# Generated by pormake.
# Topology snl, (6)-cn, num edge types: 1
# Building blocks:
#     Node 0, Type 0, BuildingBlock: BETDEL_clean_sbu_0, # of connection points: 6
#     Node 1, Type 0, BuildingBlock: BETDEL_clean_sbu_0, # of connection points: 6
#     Node 2, Type 0, BuildingBlock: BETDEL_clean_sbu_0, # of connection points: 6
#     Node 3, Type 0, BuildingBlock: BETDEL_clean_sbu_0, # of connection points: 6
#     Node 4, Type 0, BuildingBlock: BETDEL_clean_sbu_0, # of connection points: 6
#     Node 5, Type 0, BuildingBlock: BETDEL_clean_sbu_0, # of connection points: 6
#     Node 6, Type 0, BuildingBlock: BETDEL_clean_sbu_0, # of connection points: 6
#     Node 7, Type 0, BuildingBlock: BETDEL_clean_sbu_0, # of connection points: 6
#     Node 8, Type 0, BuildingBlock: BETDEL_clean_sbu_0, # of connection points: 6
#     Node 9, Type 0, BuildingBlock: BETDEL_clean_sbu_0, # of connection points: 6
#     Node 10, Type 0, BuildingBlock: BETDEL_clean_sbu_0, # of connection points: 6
#     Node 11, Type 0, BuildingBlock: BETDEL_clean_sbu_0, # of connection points: 6
#     Node 12, Type 0, BuildingBlock: BETDEL_clean_sbu_0, # of connection points: 6
#     Node 13, Type 0, BuildingBlock: BETDEL_clean_sbu_0, # of connection points: 6
#     Node 14, Type 0, BuildingBlock: BETDEL_clean_sbu_0, # of connection points: 6
#     Node 15, Type 0, BuildingBlock: BETDEL_clean_sbu_0, # of connection points: 6
#     Edge 16, Type (0, 0), BuildingBlock: EZIPEK_clean_linker_0, # of connection points: 2
#     Edge 17, Type (0, 0), BuildingBlock: EZIPEK_clean_linker_0, # of connection points: 2
#     Edge 18, Type (0, 0), BuildingBlock: EZIPEK_clean_linker_0, # of connection points: 2
#     Edge 19, Type (0, 0), BuildingBlock: EZIPEK_clean_linker_0, # of connection points: 2
#     Edge 20, Type (0, 0), BuildingBlock: EZIPEK_clean_linker_0, # of connection points: 2
#     Edge 21, Type (0, 0), BuildingBlock: EZIPEK_clean_linker_0, # of connection points: 2
#     Edge 22, Type (0, 0), BuildingBlock: EZIPEK_clean_linker_0, # of connection points: 2
#     Edge 23, Type (0, 0), BuildingBlock: EZIPEK_clean_linker_0, # of connection points: 2
#     Edge 24, Type (0, 0), BuildingBlock: EZIPEK_clean_linker_0, # of connection points: 2
#     Edge 25, Type (0, 0), BuildingBlock: EZIPEK_clean_linker_0, # of connection points: 2
#     Edge 26, Type (0, 0), BuildingBlock: EZIPEK_clean_linker_0, # of connection points: 2
#     Edge 27, Type (0, 0), BuildingBlock: EZIPEK_clean_linker_0, # of connection points: 2
#     Edge 28, Type (0, 0), BuildingBlock: EZIPEK_clean_linker_0, # of connection points: 2
#     Edge 29, Type (0, 0), BuildingBlock: EZIPEK_clean_linker_0, # of connection points: 2
#     Edge 30, Type (0, 0), BuildingBlock: EZIPEK_clean_linker_0, # of connection points: 2
#     Edge 31, Type (0, 0), BuildingBlock: EZIPEK_clean_linker_0, # of connection points: 2
#     Edge 32, Type (0, 0), BuildingBlock: EZIPEK_clean_linker_0, # of connection points: 2
#     Edge 33, Type (0, 0), BuildingBlock: EZIPEK_clean_linker_0, # of connection points: 2
#     Edge 34, Type (0, 0), BuildingBlock: EZIPEK_clean_linker_0, # of connection points: 2
#     Edge 35, Type (0, 0), BuildingBlock: EZIPEK_clean_linker_0, # of connection points: 2
#     Edge 36, Type (0, 0), BuildingBlock: EZIPEK_clean_linker_0, # of connection points: 2
#     Edge 37, Type (0, 0), BuildingBlock: EZIPEK_clean_linker_0, # of connection points: 2
#     Edge 38, Type (0, 0), BuildingBlock: EZIPEK_clean_linker_0, # of connection points: 2
#     Edge 39, Type (0, 0), BuildingBlock: EZIPEK_clean_linker_0, # of connection points: 2
#     Edge 40, Type (0, 0), BuildingBlock: EZIPEK_clean_linker_0, # of connection points: 2
#     Edge 41, Type (0, 0), BuildingBlock: EZIPEK_clean_linker_0, # of connection points: 2
#     Edge 42, Type (0, 0), BuildingBlock: EZIPEK_clean_linker_0, # of connection points: 2
#     Edge 43, Type (0, 0), BuildingBlock: EZIPEK_clean_linker_0, # of connection points: 2
#     Edge 44, Type (0, 0), BuildingBlock: EZIPEK_clean_linker_0, # of connection points: 2
#     Edge 45, Type (0, 0), BuildingBlock: EZIPEK_clean_linker_0, # of connection points: 2
#     Edge 46, Type (0, 0), BuildingBlock: EZIPEK_clean_linker_0, # of connection points: 2
#     Edge 47, Type (0, 0), BuildingBlock: EZIPEK_clean_linker_0, # of connection points: 2
#     Edge 48, Type (0, 0), BuildingBlock: EZIPEK_clean_linker_0, # of connection points: 2
#     Edge 49, Type (0, 0), BuildingBlock: EZIPEK_clean_linker_0, # of connection points: 2
#     Edge 50, Type (0, 0), BuildingBlock: EZIPEK_clean_linker_0, # of connection points: 2
#     Edge 51, Type (0, 0), BuildingBlock: EZIPEK_clean_linker_0, # of connection points: 2
#     Edge 52, Type (0, 0), BuildingBlock: EZIPEK_clean_linker_0, # of connection points: 2
#     Edge 53, Type (0, 0), BuildingBlock: EZIPEK_clean_linker_0, # of connection points: 2
#     Edge 54, Type (0, 0), BuildingBlock: EZIPEK_clean_linker_0, # of connection points: 2
#     Edge 55, Type (0, 0), BuildingBlock: EZIPEK_clean_linker_0, # of connection points: 2
#     Edge 56, Type (0, 0), BuildingBlock: EZIPEK_clean_linker_0, # of connection points: 2
#     Edge 57, Type (0, 0), BuildingBlock: EZIPEK_clean_linker_0, # of connection points: 2
#     Edge 58, Type (0, 0), BuildingBlock: EZIPEK_clean_linker_0, # of connection points: 2
#     Edge 59, Type (0, 0), BuildingBlock: EZIPEK_clean_linker_0, # of connection points: 2
#     Edge 60, Type (0, 0), BuildingBlock: EZIPEK_clean_linker_0, # of connection points: 2
#     Edge 61, Type (0, 0), BuildingBlock: EZIPEK_clean_linker_0, # of connection points: 2
#     Edge 62, Type (0, 0), BuildingBlock: EZIPEK_clean_linker_0, # of connection points: 2
#     Edge 63, Type (0, 0), BuildingBlock: EZIPEK_clean_linker_0, # of connection points: 2
# Relax obj value: 0.150
# Max RMSD: 0.206
# Mean RMSD: 0.179
data_MOF--net-snl--node1-BETDEL_clean_sbu_0--edge1-EZIPEK_clean_linker_0
_symmetry_space_group_name_H-M    P1
_symmetry_Int_Tables_number       1
_symmetry_cell_setting            triclinic
loop_
_symmetry_equiv_pos_as_xyz
'x, y, z'
_cell_length_a     42.211308
_cell_length_b     42.492784
_cell_length_c     14.01922
_cell_angle_alpha  99.239175
_cell_angle_beta   90.113857
_cell_angle_gamma 89.952524
loop_
_atom_site_label
_atom_site_type_symbol
_atom_site_fract_x
_atom_site_fract_y
_atom_site_fract_z
_atom_type_partial_charge
Dy0 Dy 0.14333 0.62611 0.04382 0.0
C1 C 0.1288 0.6294 0.45427 0.0
C2 C 0.1521 0.62032 0.85173 0.0
Dy3 Dy 0.13133 0.62015 0.25956 0.0
O4 O 0.16304 0.64364 0.91452 0.0
O5 O 0.13816 0.59913 0.89433 0.0
O6 O 0.11743 0.6715 0.06016 0.0
O7 O 0.1419 0.66028 0.18015 0.0
C8 C 0.1235 0.68045 0.15073 0.0
C9 C 0.139 0.56209 0.14821 0.0
O10 O 0.08231 0.62994 0.21297 0.0
O11 O 0.09089 0.6155 0.04759 0.0
O12 O 0.10895 0.61187 0.3981 0.0
O13 O 0.14908 0.64275 0.40435 0.0
O14 O 0.13456 0.56547 0.24074 0.0
O15 O 0.13911 0.5893 0.12643 0.0
O16 O 0.19402 0.62382 0.09888 0.0
O17 O 0.18364 0.62438 0.26291 0.0
C18 C 0.0717 0.6223 0.12333 0.0
C19 C 0.20343 0.62456 0.19027 0.0
Dy20 Dy 0.64237 0.88496 0.48396 0.0
C21 C 0.63705 0.8902 0.08658 0.0
C22 C 0.65016 0.89136 0.6779 0.0
Dy23 Dy 0.63376 0.89008 0.2798 0.0
O24 O 0.66403 0.86985 0.61555 0.0
O25 O 0.63351 0.9104 0.63399 0.0
O26 O 0.61487 0.84023 0.46699 0.0
O27 O 0.64341 0.84841 0.3526 0.0
C28 C 0.62425 0.82887 0.38086 0.0
C29 C 0.63168 0.94621 0.40202 0.0
O30 O 0.58386 0.87944 0.31408 0.0
O31 O 0.59056 0.89814 0.47614 0.0
O32 O 0.61766 0.87263 0.12731 0.0
O33 O 0.65428 0.90751 0.15113 0.0
O34 O 0.61543 0.94035 0.32308 0.0
O35 O 0.65028 0.92353 0.40573 0.0
O36 O 0.69399 0.88532 0.4388 0.0
O37 O 0.68444 0.87657 0.27388 0.0
C38 C 0.57187 0.88906 0.40062 0.0
C39 C 0.70407 0.87968 0.34778 0.0
Dy40 Dy 0.39319 0.38888 0.73327 0.0
C41 C 0.37798 0.37037 0.32175 0.0
C42 C 0.38407 0.39609 0.92788 0.0
Dy43 Dy 0.38002 0.36952 0.51653 0.0
O44 O 0.4074 0.40889 0.88651 0.0
O45 O 0.36521 0.3811 0.8628 0.0
O46 O 0.44118 0.36705 0.71986 0.0
O47 O 0.42269 0.38542 0.60269 0.0
C48 C 0.44599 0.37035 0.6307 0.0
C49 C 0.32932 0.37081 0.63627 0.0
O50 O 0.39481 0.32201 0.54866 0.0
O51 O 0.38399 0.33574 0.7118 0.0
O52 O 0.35664 0.38239 0.38354 0.0
O53 O 0.39959 0.35601 0.36543 0.0
O54 O 0.33182 0.35112 0.55554 0.0
O55 O 0.35231 0.38975 0.64308 0.0
O56 O 0.39113 0.43848 0.69114 0.0
O57 O 0.38843 0.42118 0.52484 0.0
C58 C 0.38989 0.31403 0.63473 0.0
C59 C 0.39053 0.44409 0.59985 0.0
Dy60 Dy 0.89605 0.11841 0.77926 0.0
C61 C 0.88339 0.14367 0.19566 0.0
C62 C 0.8915 0.11083 0.58205 0.0
Dy63 Dy 0.88173 0.13648 0.99801 0.0
O64 O 0.91743 0.10761 0.62997 0.0
O65 O 0.86791 0.11584 0.64171 0.0
O66 O 0.94471 0.1386 0.8023 0.0
O67 O 0.92335 0.11829 0.91294 0.0
C68 C 0.94733 0.13352 0.8908 0.0
C69 C 0.83098 0.12324 0.87863 0.0
O70 O 0.88995 0.18561 0.96275 0.0
O71 O 0.88872 0.17131 0.79492 0.0
O72 O 0.8578 0.1416 0.14334 0.0
O73 O 0.90794 0.14448 0.14032 0.0
O74 O 0.83154 0.11835 0.9677 0.0
O75 O 0.85587 0.13777 0.86346 0.0
O76 O 0.88751 0.06922 0.82103 0.0
O77 O 0.88995 0.08486 0.9878 0.0
C78 C 0.88992 0.19306 0.874 0.0
C79 C 0.88754 0.06269 0.9112 0.0
Dy80 Dy 0.15193 0.38051 0.99513 0.0
C81 C 0.13668 0.3826 0.59438 0.0
C82 C 0.15888 0.38667 0.19059 0.0
Dy83 Dy 0.14393 0.38453 0.78828 0.0
O84 O 0.16543 0.36125 0.12961 0.0
O85 O 0.1499 0.40931 0.14456 0.0
O86 O 0.12579 0.33538 0.97838 0.0
O87 O 0.15519 0.34397 0.86471 0.0
C88 C 0.13625 0.32411 0.89312 0.0
C89 C 0.15746 0.44014 0.90571 0.0
O90 O 0.09349 0.37558 0.8232 0.0
O91 O 0.09936 0.38971 0.98881 0.0
O92 O 0.12911 0.40658 0.65973 0.0
O93 O 0.14684 0.35916 0.63498 0.0
O94 O 0.16848 0.43266 0.81891 0.0
O95 O 0.13867 0.41889 0.92158 0.0
O96 O 0.20345 0.38385 0.9452 0.0
O97 O 0.19442 0.37224 0.7805 0.0
C98 C 0.08132 0.38255 0.91077 0.0
C99 C 0.21386 0.37744 0.85435 0.0
Dy100 Dy 0.88219 0.89803 0.23056 0.0
C101 C 0.86485 0.87207 0.81326 0.0
C102 C 0.86948 0.90031 0.42184 0.0
Dy103 Dy 0.86828 0.87203 1.00762 0.0
O104 O 0.88953 0.91906 0.38761 0.0
O105 O 0.85519 0.88225 0.35153 0.0
O106 O 0.93488 0.89751 0.22982 0.0
O107 O 0.90975 0.88197 0.10194 0.0
C108 C 0.93731 0.88736 0.13742 0.0
C109 C 0.81864 0.877 0.13098 0.0
O110 O 0.87845 0.82513 0.05356 0.0
O111 O 0.88106 0.84459 0.21924 0.0
O112 O 0.84347 0.88344 0.87576 0.0
O113 O 0.8873 0.85835 0.85598 0.0
O114 O 0.81934 0.85762 0.04895 0.0
O115 O 0.84238 0.89504 0.13365 0.0
O116 O 0.87862 0.945 0.17228 0.0
O117 O 0.88101 0.92247 1.00918 0.0
C118 C 0.87978 0.82081 0.14549 0.0
C119 C 0.8814 0.94735 0.07841 0.0
Dy120 Dy 0.38653 0.61493 0.30417 0.0
C121 C 0.36983 0.63398 0.7163 0.0
C122 C 0.37738 0.6078 0.10953 0.0
Dy123 Dy 0.37212 0.63497 0.52187 0.0
O124 O 0.40126 0.59573 0.15091 0.0
O125 O 0.35804 0.62189 0.17457 0.0
O126 O 0.43442 0.63769 0.32065 0.0
O127 O 0.41495 0.61999 0.43738 0.0
C128 C 0.43788 0.63578 0.41153 0.0
C129 C 0.32169 0.63192 0.39944 0.0
O130 O 0.38627 0.68232 0.48654 0.0
O131 O 0.3751 0.6676 0.32372 0.0
O132 O 0.34937 0.62064 0.65337 0.0
O133 O 0.39056 0.64975 0.67398 0.0
O134 O 0.32346 0.65164 0.4806 0.0
O135 O 0.3455 0.61398 0.39384 0.0
O136 O 0.38445 0.56553 0.34757 0.0
O137 O 0.38249 0.58364 0.5137 0.0
C138 C 0.38111 0.68973 0.39963 0.0
C139 C 0.38421 0.56044 0.43936 0.0
Dy140 Dy 0.6494 0.13037 0.54493 0.0
C141 C 0.63448 0.12835 0.94526 0.0
C142 C 0.656 0.12568 0.35003 0.0
Dy143 Dy 0.64165 0.12539 0.75119 0.0
O144 O 0.66232 0.15088 0.41228 0.0
O145 O 0.6473 0.10258 0.39429 0.0
O146 O 0.62384 0.17603 0.56612 0.0
O147 O 0.65383 0.16602 0.67692 0.0
C148 C 0.63514 0.18658 0.65093 0.0
C149 C 0.65299 0.06978 0.63177 0.0
O150 O 0.59131 0.13452 0.71599 0.0
O151 O 0.59701 0.12064 0.55042 0.0
O152 O 0.62773 0.10376 0.88106 0.0
O153 O 0.6439 0.15174 0.90339 0.0
O154 O 0.66433 0.07639 0.71863 0.0
O155 O 0.63511 0.09193 0.61693 0.0
O156 O 0.70095 0.12493 0.59239 0.0
O157 O 0.69251 0.1354 0.75734 0.0
C158 C 0.57901 0.1275 0.62843 0.0
C159 C 0.71174 0.13017 0.68309 0.0
Dy160 Dy 0.88279 0.38917 0.77868 0.0
C161 C 0.86457 0.38536 0.18316 0.0
C162 C 0.88204 0.38359 0.58546 0.0
Dy163 Dy 0.873 0.38124 0.99169 0.0
O164 O 0.86314 0.40156 0.643 0.0
O165 O 0.90207 0.3686 0.63299 0.0
O166 O 0.88411 0.444 0.80389 0.0
O167 O 0.87843 0.4193 0.91519 0.0
C168 C 0.87968 0.44688 0.8964 0.0
C169 C 0.88855 0.32702 0.87656 0.0
O170 O 0.82198 0.38598 0.942 0.0
O171 O 0.83187 0.37677 0.77681 0.0
O172 O 0.85544 0.36143 0.1197 0.0
O173 O 0.87687 0.40772 0.14186 0.0
O174 O 0.89843 0.33555 0.96441 0.0
O175 O 0.87022 0.3484 0.85363 0.0
O176 O 0.93294 0.38103 0.81627 0.0
O177 O 0.9261 0.38877 0.98356 0.0
C178 C 0.81213 0.38105 0.85035 0.0
C179 C 0.94436 0.385 0.9052 0.0
Dy180 Dy 0.38097 0.11982 0.76045 0.0
C181 C 0.36377 0.11521 0.36062 0.0
C182 C 0.37757 0.12027 0.95421 0.0
Dy183 Dy 0.37132 0.12295 0.55545 0.0
O184 O 0.36244 0.10086 0.88936 0.0
O185 O 0.39509 0.13957 0.91371 0.0
O186 O 0.40241 0.07071 0.71893 0.0
O187 O 0.3654 0.08472 0.63695 0.0
C188 C 0.38522 0.0631 0.64245 0.0
C189 C 0.38837 0.18011 0.65523 0.0
O190 O 0.31978 0.12251 0.60077 0.0
O191 O 0.32965 0.13068 0.7656 0.0
O192 O 0.3519 0.13851 0.42128 0.0
O193 O 0.37839 0.09528 0.40663 0.0
O194 O 0.3984 0.16795 0.57044 0.0
O195 O 0.3695 0.16051 0.68468 0.0
O196 O 0.43003 0.13281 0.724 0.0
O197 O 0.42333 0.11088 0.56437 0.0
C198 C 0.30988 0.12755 0.69198 0.0
C199 C 0.44203 0.12197 0.63824 0.0
Dy200 Dy 0.63434 0.63848 0.51299 0.0
C201 C 0.62449 0.61208 0.09647 0.0
C202 C 0.6312 0.64549 0.71037 0.0
Dy203 Dy 0.62046 0.6198 0.29407 0.0
O204 O 0.65665 0.64941 0.6613 0.0
O205 O 0.60722 0.64037 0.6519 0.0
O206 O 0.68495 0.62127 0.48482 0.0
O207 O 0.66041 0.63982 0.37862 0.0
C208 C 0.68552 0.62579 0.39536 0.0
C209 C 0.56883 0.63502 0.40384 0.0
O210 O 0.62789 0.57049 0.33725 0.0
O211 O 0.62846 0.58665 0.50418 0.0
O212 O 0.59836 0.61225 0.14549 0.0
O213 O 0.64847 0.61365 0.15529 0.0
O214 O 0.5716 0.63968 0.31504 0.0
O215 O 0.59289 0.61994 0.42682 0.0
O216 O 0.62384 0.6871 0.47788 0.0
O217 O 0.62799 0.67279 0.31072 0.0
C218 C 0.62899 0.56423 0.42783 0.0
C219 C 0.62491 0.69454 0.38933 0.0
Dy220 Dy 0.13232 0.86696 0.01941 0.0
C221 C 0.12241 0.8906 0.43788 0.0
C222 C 0.12831 0.85999 0.82342 0.0
Dy223 Dy 0.11808 0.88997 0.24385 0.0
O224 O 0.15128 0.84868 0.87039 0.0
O225 O 0.1068 0.87283 0.88347 0.0
O226 O 0.183 0.88381 0.04687 0.0
O227 O 0.15733 0.86895 0.15691 0.0
C228 C 0.18297 0.88157 0.13828 0.0
C229 C 0.06388 0.88739 0.14399 0.0
O230 O 0.12531 0.93784 0.19124 0.0
O231 O 0.12709 0.91863 0.02565 0.0
O232 O 0.10094 0.87586 0.38152 0.0
O233 O 0.14095 0.90679 0.38926 0.0
O234 O 0.06579 0.89713 0.23661 0.0
O235 O 0.09135 0.88016 0.11133 0.0
O236 O 0.12169 0.81933 0.05936 0.0
O237 O 0.12103 0.83647 0.2268 0.0
C238 C 0.12588 0.94222 0.09854 0.0
C239 C 0.11998 0.81381 0.14988 0.0
Dy240 Dy 0.87389 0.62492 0.24784 0.0
C241 C 0.86508 0.63034 0.85117 0.0
C242 C 0.88138 0.6288 0.4417 0.0
Dy243 Dy 0.86262 0.63148 0.04582 0.0
O244 O 0.89553 0.60799 0.37754 0.0
O245 O 0.86477 0.64831 0.39965 0.0
O246 O 0.84814 0.57737 0.22071 0.0
O247 O 0.87511 0.59094 0.11216 0.0
C248 C 0.85676 0.56982 0.1314 0.0
C249 C 0.86293 0.68851 0.16235 0.0
O250 O 0.81267 0.62268 0.09746 0.0
O251 O 0.82449 0.64228 0.25523 0.0
O252 O 0.88192 0.64847 0.91471 0.0
O253 O 0.84608 0.61295 0.89381 0.0
O254 O 0.84354 0.68034 0.09114 0.0
O255 O 0.88117 0.66531 0.16901 0.0
O256 O 0.92456 0.62927 0.20847 0.0
O257 O 0.91481 0.61868 0.04414 0.0
C258 C 0.80349 0.63247 0.18797 0.0
C259 C 0.93483 0.62303 0.11832 0.0
Dy260 Dy 0.14304 0.13493 0.02628 0.0
C261 C 0.13937 0.10793 0.61365 0.0
C262 C 0.14544 0.13364 0.22023 0.0
Dy263 Dy 0.13014 0.11525 0.808 0.0
O264 O 0.16546 0.11975 0.15706 0.0
O265 O 0.12501 0.15 0.17844 0.0
O266 O 0.19179 0.15237 0.98914 0.0
O267 O 0.17067 0.11455 0.89993 0.0
C268 C 0.19416 0.1329 0.90782 0.0
C269 C 0.07813 0.13592 0.9119 0.0
O270 O 0.13331 0.0659 0.85132 0.0
O271 O 0.1319 0.08379 0.01741 0.0
O272 O 0.11554 0.09584 0.65479 0.0
O273 O 0.15869 0.1221 0.67883 0.0
O274 O 0.08238 0.13836 0.82179 0.0
O275 O 0.10073 0.11982 0.93864 0.0
O276 O 0.12833 0.18204 0.99105 0.0
O277 O 0.1416 0.1679 0.82975 0.0
C278 C 0.13226 0.06063 0.94285 0.0
C279 C 0.13467 0.1898 0.90542 0.0
Dy280 Dy 0.64482 0.37534 0.51473 0.0
C281 C 0.64167 0.40286 0.92632 0.0
C282 C 0.64736 0.37679 0.32036 0.0
Dy283 Dy 0.63254 0.39518 0.73128 0.0
O284 O 0.66733 0.39054 0.38413 0.0
O285 O 0.62695 0.36038 0.36182 0.0
O286 O 0.69317 0.35696 0.5518 0.0
O287 O 0.67326 0.39583 0.64017 0.0
C288 C 0.69627 0.37677 0.63213 0.0
C289 C 0.57985 0.37449 0.6296 0.0
O290 O 0.63271 0.44467 0.68777 0.0
O291 O 0.63336 0.42641 0.52196 0.0
O292 O 0.61767 0.41446 0.88437 0.0
O293 O 0.66126 0.38904 0.86152 0.0
O294 O 0.58534 0.3715 0.7187 0.0
O295 O 0.60229 0.39054 0.6016 0.0
O296 O 0.62995 0.32815 0.54947 0.0
O297 O 0.64306 0.34234 0.71085 0.0
C298 C 0.63165 0.44968 0.59598 0.0
C299 C 0.63586 0.32044 0.63548 0.0
Dy300 Dy 0.37349 0.8835 0.26838 0.0
C301 C 0.35632 0.88831 0.66732 0.0
C302 C 0.37046 0.88321 0.07427 0.0
Dy303 Dy 0.36375 0.88125 0.4723 0.0
O304 O 0.35562 0.90287 0.13896 0.0
O305 O 0.3876 0.86366 0.11517 0.0
O306 O 0.39416 0.93252 0.31562 0.0
O307 O 0.35582 0.91888 0.38859 0.0
C308 C 0.37448 0.94153 0.38514 0.0
C309 C 0.38184 0.82395 0.37688 0.0
O310 O 0.31221 0.88115 0.42487 0.0
O311 O 0.32258 0.87169 0.26071 0.0
O312 O 0.34326 0.866 0.6056 0.0
O313 O 0.37207 0.90763 0.62225 0.0
O314 O 0.39149 0.83669 0.46156 0.0
O315 O 0.36281 0.84294 0.34493 0.0
O316 O 0.42262 0.87155 0.30609 0.0
O317 O 0.41524 0.89598 0.46258 0.0
C318 C 0.30251 0.87559 0.33327 0.0
C319 C 0.43439 0.88446 0.39032 0.0
C320 C 0.15786 0.59839 0.67692 0.0
C321 C 0.14667 0.62274 0.7498 0.0
C322 C 0.12513 0.65226 0.62823 0.0
C323 C 0.134 0.62677 0.55586 0.0
N324 N 0.15624 0.57414 0.50836 0.0
N325 N 0.11294 0.66876 0.7968 0.0
C326 C 0.14951 0.59929 0.57932 0.0
C327 C 0.12859 0.6487 0.72627 0.0
N328 N 0.17739 0.57513 0.70086 0.0
N329 N 0.11355 0.67991 0.60339 0.0
H330 H 0.11322 0.66614 0.86936 0.0
H331 H 0.09684 0.68598 0.78228 0.0
H332 H 0.10948 0.6829 0.53194 0.0
H333 H 0.11027 0.70067 0.65309 0.0
H334 H 0.18912 0.55856 0.65038 0.0
H335 H 0.18389 0.57382 0.77197 0.0
H336 H 0.16403 0.55205 0.52208 0.0
H337 H 0.1523 0.57455 0.43517 0.0
C338 C 0.64233 0.91972 0.94674 0.0
C339 C 0.64008 0.89026 0.98184 0.0
C340 C 0.64165 0.86161 0.81652 0.0
C341 C 0.64821 0.89071 0.7826 0.0
N342 N 0.6609 0.94677 0.81826 0.0
N343 N 0.64559 0.83285 0.95114 0.0
C344 C 0.65037 0.91961 0.84856 0.0
C345 C 0.64206 0.86106 0.91718 0.0
N346 N 0.63537 0.94773 1.00564 0.0
N347 N 0.63309 0.83488 0.75389 0.0
H348 H 0.64734 0.83132 0.02441 0.0
H349 H 0.6503 0.81138 0.90605 0.0
H350 H 0.63012 0.83437 0.67991 0.0
H351 H 0.62521 0.81414 0.77709 0.0
H352 H 0.63372 0.96949 0.9807 0.0
H353 H 0.62777 0.94883 0.07681 0.0
H354 H 0.66578 0.96774 0.86555 0.0
H355 H 0.66791 0.94745 0.74731 0.0
C356 C 0.37983 0.40929 0.20334 0.0
C357 C 0.3803 0.37715 0.221 0.0
C358 C 0.38873 0.35861 0.0481 0.0
C359 C 0.38423 0.39025 0.02945 0.0
N360 N 0.37198 0.44529 0.0872 0.0
N361 N 0.38085 0.32089 0.15856 0.0
C362 C 0.37885 0.41551 0.10651 0.0
C363 C 0.38368 0.3517 0.14291 0.0
N364 N 0.38203 0.43396 0.27871 0.0
N365 N 0.39902 0.33533 0.9759 0.0
H366 H 0.37696 0.31485 0.22681 0.0
H367 H 0.37953 0.30147 0.10298 0.0
H368 H 0.40389 0.33955 0.90617 0.0
H369 H 0.40583 0.31266 0.98732 0.0
H370 H 0.38517 0.45763 0.26982 0.0
H371 H 0.38401 0.43063 0.35035 0.0
H372 H 0.36414 0.46387 0.13949 0.0
H373 H 0.37182 0.45079 0.01727 0.0
C374 C 0.87492 0.09777 0.40782 0.0
C375 C 0.89032 0.11869 0.48239 0.0
C376 C 0.89833 0.15755 0.37141 0.0
C377 C 0.8851 0.13555 0.29511 0.0
N378 N 0.86643 0.08214 0.23594 0.0
N379 N 0.91846 0.16793 0.53583 0.0
C380 C 0.87476 0.105 0.31204 0.0
C381 C 0.90271 0.14836 0.46418 0.0
N382 N 0.86011 0.07109 0.42868 0.0
N383 N 0.90546 0.18774 0.35604 0.0
H384 H 0.92015 0.16351 0.60663 0.0
H385 H 0.93135 0.18786 0.52456 0.0
H386 H 0.90264 0.19511 0.28905 0.0
H387 H 0.91188 0.20625 0.41055 0.0
H388 H 0.84519 0.05693 0.38043 0.0
H389 H 0.86091 0.06427 0.49692 0.0
H390 H 0.86234 0.05841 0.24236 0.0
H391 H 0.86637 0.08596 0.16443 0.0
C392 C 0.12833 0.36661 0.32101 0.0
C393 C 0.15274 0.38654 0.29422 0.0
C394 C 0.16531 0.40516 0.46458 0.0
C395 C 0.14138 0.38464 0.49123 0.0
N396 N 0.10289 0.343 0.44771 0.0
N397 N 0.19105 0.42832 0.33723 0.0
C398 C 0.12369 0.36454 0.4202 0.0
C399 C 0.17017 0.40695 0.36516 0.0
N400 N 0.10817 0.35138 0.25202 0.0
N401 N 0.18492 0.42113 0.5339 0.0
H402 H 0.19643 0.42901 0.26505 0.0
H403 H 0.20169 0.44666 0.38454 0.0
H404 H 0.18281 0.41995 0.60729 0.0
H405 H 0.20497 0.43368 0.519 0.0
H406 H 0.08788 0.33926 0.26738 0.0
H407 H 0.10986 0.35317 0.17893 0.0
H408 H 0.0923 0.32477 0.39987 0.0
H409 H 0.09757 0.34203 0.51982 0.0
C410 C 0.86323 0.91159 0.69648 0.0
C411 C 0.86637 0.87945 0.71307 0.0
C412 C 0.87652 0.86248 0.5406 0.0
C413 C 0.86926 0.89374 0.52267 0.0
N414 N 0.85134 0.94707 0.58175 0.0
N415 N 0.87081 0.82355 0.64809 0.0
C416 C 0.8614 0.91805 0.60012 0.0
C417 C 0.87158 0.85466 0.63429 0.0
N418 N 0.86373 0.93623 0.77224 0.0
N419 N 0.88972 0.84064 0.46952 0.0
H420 H 0.86702 0.81683 0.71551 0.0
H421 H 0.87093 0.80441 0.59141 0.0
H422 H 0.89564 0.8459 0.40174 0.0
H423 H 0.89817 0.81853 0.48115 0.0
H424 H 0.86505 0.96009 0.76366 0.0
H425 H 0.86619 0.93297 0.84373 0.0
H426 H 0.84182 0.96454 0.6346 0.0
H427 H 0.84999 0.95272 0.51211 0.0
C428 C 0.37455 0.59501 0.8339 0.0
C429 C 0.37249 0.62716 0.81689 0.0
C430 C 0.37905 0.64589 0.99035 0.0
C431 C 0.37707 0.61391 1.00818 0.0
N432 N 0.36915 0.55816 0.94849 0.0
N433 N 0.36834 0.68317 0.88027 0.0
C434 C 0.3738 0.58847 0.93035 0.0
C435 C 0.37361 0.65262 0.89552 0.0
N436 N 0.37899 0.57078 0.75838 0.0
N437 N 0.38747 0.66977 0.06334 0.0
H438 H 0.36418 0.68905 0.81191 0.0
H439 H 0.36529 0.70229 0.93607 0.0
H440 H 0.3927 0.66573 0.13299 0.0
H441 H 0.39248 0.69295 0.05271 0.0
H442 H 0.38402 0.54742 0.76718 0.0
H443 H 0.381 0.57451 0.68716 0.0
H444 H 0.36287 0.53916 0.89523 0.0
H445 H 0.36914 0.55248 0.01819 0.0
C446 C 0.62092 0.14677 0.11863 0.0
C447 C 0.63937 0.12709 0.04875 0.0
C448 C 0.66892 0.10633 0.17649 0.0
C449 C 0.65051 0.12607 0.24631 0.0
N450 N 0.60493 0.16005 0.28625 0.0
N451 N 0.68442 0.0924 1.00851 0.0
C452 C 0.62555 0.14517 0.21818 0.0
C453 C 0.66411 0.10769 0.0768 0.0
N454 N 0.5994 0.16743 0.08964 0.0
N455 N 0.69068 0.08597 0.20578 0.0
H456 H 0.68234 0.09335 0.93494 0.0
H457 H 0.70495 0.08073 0.02448 0.0
H458 H 0.69615 0.08579 0.27825 0.0
H459 H 0.70212 0.06799 0.15928 0.0
H460 H 0.58805 0.18535 0.13659 0.0
H461 H 0.59418 0.16803 0.01719 0.0
H462 H 0.58426 0.17143 0.26993 0.0
H463 H 0.6068 0.1588 0.3597 0.0
C464 C 0.84317 0.37726 0.34255 0.0
C465 C 0.86933 0.38299 0.28499 0.0
C466 C 0.90491 0.38687 0.42376 0.0
C467 C 0.87901 0.37979 0.48045 0.0
N468 N 0.82564 0.36014 0.4902 0.0
N469 N 0.92623 0.3834 0.26288 0.0
C470 C 0.84872 0.37249 0.43871 0.0
C471 C 0.9006 0.3849 0.32306 0.0
N472 N 0.81306 0.37749 0.30656 0.0
N473 N 0.93311 0.39694 0.46612 0.0
H474 H 0.92431 0.38044 0.18784 0.0
H475 H 0.94945 0.38153 0.28667 0.0
H476 H 0.93737 0.39877 0.54006 0.0
H477 H 0.95144 0.40602 0.42891 0.0
H478 H 0.79287 0.37688 0.34882 0.0
H479 H 0.80814 0.38094 0.23601 0.0
H480 H 0.80404 0.35169 0.46049 0.0
H481 H 0.82931 0.35524 0.55997 0.0
C482 C 0.34 0.11754 0.19825 0.0
C483 C 0.36727 0.11606 0.25634 0.0
C484 C 0.40146 0.11622 0.11535 0.0
C485 C 0.37434 0.12033 0.05899 0.0
N486 N 0.31833 0.13113 0.04996 0.0
N487 N 0.42409 0.12172 0.2755 0.0
C488 C 0.34369 0.12269 0.10124 0.0
C489 C 0.39808 0.1175 0.2165 0.0
N490 N 0.31064 0.11311 0.23493 0.0
N491 N 0.43026 0.10979 0.07204 0.0
H492 H 0.42284 0.12378 0.35042 0.0
H493 H 0.44662 0.12645 0.25108 0.0
H494 H 0.43381 0.10838 0.9979 0.0
H495 H 0.45003 0.10296 0.10838 0.0
H496 H 0.29012 0.1105 0.19303 0.0
H497 H 0.3071 0.10926 0.30578 0.0
H498 H 0.29602 0.13633 0.08005 0.0
H499 H 0.3202 0.13602 0.97962 0.0
C500 C 0.64139 0.59945 0.92203 0.0
C501 C 0.62648 0.62047 0.99738 0.0
C502 C 0.61435 0.6577 0.88437 0.0
C503 C 0.63088 0.63769 0.81029 0.0
N504 N 0.66179 0.59011 0.75793 0.0
N505 N 0.6047 0.67264 0.05589 0.0
C506 C 0.64509 0.60881 0.82916 0.0
C507 C 0.61445 0.65038 0.98004 0.0
N508 N 0.65085 0.56997 0.93844 0.0
N509 N 0.59822 0.68363 0.86313 0.0
H510 H 0.60493 0.66876 0.12738 0.0
H511 H 0.59916 0.69609 0.04956 0.0
H512 H 0.59893 0.69074 0.79531 0.0
H513 H 0.58242 0.69686 0.91061 0.0
H514 H 0.6588 0.55191 0.88481 0.0
H515 H 0.64876 0.56262 1.00567 0.0
H516 H 0.67582 0.57092 0.7694 0.0
H517 H 0.66298 0.59446 0.68701 0.0
C518 C 0.12811 0.90799 0.61722 0.0
C519 C 0.12862 0.88343 0.53624 0.0
C520 C 0.1312 0.84291 0.64315 0.0
C521 C 0.13115 0.86751 0.72405 0.0
N522 N 0.13967 0.92315 0.78745 0.0
N523 N 0.13999 0.82849 0.47094 0.0
C524 C 0.1326 0.90001 0.71093 0.0
C525 C 0.13295 0.85112 0.54883 0.0
N526 N 0.12221 0.93874 0.6052 0.0
N527 N 0.12857 0.81184 0.65617 0.0
H528 H 0.14312 0.83395 0.4017 0.0
H529 H 0.14614 0.80512 0.47647 0.0
H530 H 0.128 0.80503 0.72442 0.0
H531 H 0.12478 0.79307 0.59971 0.0
H532 H 0.1178 0.95705 0.66251 0.0
H533 H 0.11942 0.94555 0.53743 0.0
H534 H 0.14362 0.94691 0.78108 0.0
H535 H 0.14531 0.9179 0.85548 0.0
C536 C 0.87129 0.59962 0.68317 0.0
C537 C 0.86869 0.62926 0.74581 0.0
C538 C 0.88169 0.65728 0.61155 0.0
C539 C 0.87985 0.62811 0.54671 0.0
N540 N 0.8653 0.57216 0.51966 0.0
N541 N 0.86456 0.68669 0.76457 0.0
C542 C 0.87266 0.59936 0.58191 0.0
C543 C 0.87202 0.65825 0.7087 0.0
N544 N 0.8738 0.57177 0.71974 0.0
N545 N 0.89343 0.68395 0.58109 0.0
H546 H 0.85563 0.68843 0.83452 0.0
H547 H 0.86377 0.70817 0.7377 0.0
H548 H 0.90182 0.6839 0.51112 0.0
H549 H 0.89804 0.70508 0.62793 0.0
H550 H 0.87896 0.55 0.67686 0.0
H551 H 0.87418 0.57074 0.79347 0.0
H552 H 0.85669 0.55171 0.54298 0.0
H553 H 0.86441 0.57084 0.44493 0.0
C554 C 0.13811 0.14602 0.49443 0.0
C555 C 0.13952 0.114 0.51234 0.0
C556 C 0.14036 0.09495 0.33809 0.0
C557 C 0.14302 0.127 0.32085 0.0
N558 N 0.14903 0.18289 0.38352 0.0
N559 N 0.14581 0.05803 0.45251 0.0
C560 C 0.14309 0.15252 0.39929 0.0
C561 C 0.14168 0.08844 0.43449 0.0
N562 N 0.13059 0.17016 0.5676 0.0
N563 N 0.13485 0.07084 0.26291 0.0
H564 H 0.14631 0.05241 0.52227 0.0
H565 H 0.15124 0.03883 0.39895 0.0
H566 H 0.13218 0.07468 0.19194 0.0
H567 H 0.12957 0.04756 0.27194 0.0
H568 H 0.12602 0.19343 0.5569 0.0
H569 H 0.1256 0.16634 0.63753 0.0
H570 H 0.15297 0.20192 0.43905 0.0
H571 H 0.15284 0.18863 0.31485 0.0
C572 C 0.64474 0.35806 0.14082 0.0
C573 C 0.64503 0.38353 0.21951 0.0
C574 C 0.64415 0.42218 0.1058 0.0
C575 C 0.64175 0.39669 0.02774 0.0
N576 N 0.63225 0.34068 0.97207 0.0
N577 N 0.6377 0.43984 0.27748 0.0
C578 C 0.63994 0.36469 0.04555 0.0
C579 C 0.6428 0.41565 0.20226 0.0
N580 N 0.65022 0.32758 0.15646 0.0
N581 N 0.64854 0.45256 0.08789 0.0
H582 H 0.63525 0.4361 0.34858 0.0
H583 H 0.63262 0.46318 0.26849 0.0
H584 H 0.64901 0.45821 0.01817 0.0
H585 H 0.65416 0.47169 0.14147 0.0
H586 H 0.65389 0.30851 0.1009 0.0
H587 H 0.65393 0.32174 0.22509 0.0
H588 H 0.62734 0.31746 0.98252 0.0
H589 H 0.62752 0.34459 0.90198 0.0
C590 C 0.33629 0.88136 0.92736 0.0
C591 C 0.36705 0.88292 0.96926 0.0
C592 C 0.39059 0.88425 0.81087 0.0
C593 C 0.35981 0.8868 0.77143 0.0
N594 N 0.30336 0.89183 0.79397 0.0
N595 N 0.42325 0.89145 0.95467 0.0
C596 C 0.3326 0.88641 0.83014 0.0
C597 C 0.39419 0.88584 0.91212 0.0
N598 N 0.31076 0.87376 0.97914 0.0
N599 N 0.41632 0.87869 0.75141 0.0
H600 H 0.42697 0.89312 0.02886 0.0
H601 H 0.44317 0.89739 0.91753 0.0
H602 H 0.41476 0.87609 0.67643 0.0
H603 H 0.43871 0.87327 0.77565 0.0
H604 H 0.28829 0.86917 0.94934 0.0
H605 H 0.3126 0.86888 0.04951 0.0
H606 H 0.28303 0.89525 0.83636 0.0
H607 H 0.29982 0.89567 0.72306 0.0
C608 C 0.09708 0.73212 0.20718 0.0
C609 C 0.1256 0.71524 0.18144 0.0
C610 C 0.15161 0.7652 0.16225 0.0
C611 C 0.12181 0.78058 0.16805 0.0
N612 N 0.06576 0.7797 0.19866 0.0
N613 N 0.17914 0.71539 0.11904 0.0
C614 C 0.09439 0.76446 0.19264 0.0
C615 C 0.15288 0.73172 0.15643 0.0
N616 N 0.07258 0.71691 0.24404 0.0
N617 N 0.17877 0.78266 0.16336 0.0
H618 H 0.18116 0.69069 0.11 0.0
H619 H 0.19799 0.72629 0.08924 0.0
H620 H 0.17849 0.80744 0.17093 0.0
H621 H 0.20128 0.7729 0.16813 0.0
H622 H 0.05182 0.72824 0.2708 0.0
H623 H 0.07442 0.69335 0.25584 0.0
H624 H 0.0443 0.76836 0.20655 0.0
H625 H 0.0633 0.80353 0.19016 0.0
C626 C 0.51968 0.90932 0.35043 0.0
C627 C 0.53668 0.89134 0.4104 0.0
C628 C 0.48609 0.87362 0.4712 0.0
C629 C 0.46946 0.88798 0.40083 0.0
N630 N 0.47138 0.91701 0.26546 0.0
N631 N 0.53622 0.85474 0.52533 0.0
C632 C 0.48653 0.90503 0.33812 0.0
C633 C 0.51993 0.87342 0.4713 0.0
N634 N 0.53502 0.93189 0.3087 0.0
N635 N 0.46965 0.85963 0.53704 0.0
H636 H 0.56077 0.85481 0.53078 0.0
H637 H 0.5256 0.83773 0.56056 0.0
H638 H 0.44523 0.85653 0.53431 0.0
H639 H 0.47998 0.85267 0.59787 0.0
H640 H 0.52346 0.94834 0.27317 0.0
H641 H 0.55894 0.93675 0.31976 0.0
H642 H 0.48333 0.92536 0.20956 0.0
H643 H 0.44699 0.91675 0.25621 0.0
C644 C 0.36442 0.2597 0.59265 0.0
C645 C 0.38789 0.2796 0.645 0.0
C646 C 0.40373 0.23533 0.72929 0.0
C647 C 0.38267 0.21499 0.67028 0.0
N648 N 0.34085 0.20711 0.55217 0.0
N649 N 0.43163 0.2859 0.75766 0.0
C650 C 0.36201 0.22722 0.60509 0.0
C651 C 0.4077 0.26742 0.71312 0.0
N652 N 0.34392 0.27196 0.53241 0.0
N653 N 0.41988 0.22369 0.8007 0.0
H654 H 0.43608 0.30893 0.74484 0.0
H655 H 0.44873 0.27781 0.80144 0.0
H656 H 0.41696 0.20028 0.81314 0.0
H657 H 0.4338 0.23756 0.85253 0.0
H658 H 0.32369 0.2604 0.50239 0.0
H659 H 0.34596 0.2947 0.5151 0.0
H660 H 0.32832 0.21232 0.49274 0.0
H661 H 0.33615 0.18431 0.56692 0.0
C662 C 0.9957 0.11004 0.96346 0.0
C663 C 0.97869 0.1369 0.94129 0.0
C664 C 0.02818 0.16724 0.94509 0.0
C665 C 0.0455 0.13924 0.95393 0.0
N666 N 0.04551 0.0894 1.01523 0.0
N667 N 0.97704 0.19371 0.94964 0.0
C668 C 0.0292 0.11236 0.97781 0.0
C669 C 0.99451 0.16646 0.94542 0.0
N670 N 0.98038 0.08194 0.96602 0.0
N671 N 0.04413 0.19424 0.93282 0.0
H672 H 0.95239 0.19345 0.95327 0.0
H673 H 0.98671 0.21652 0.95918 0.0
H674 H 0.06863 0.19614 0.94095 0.0
H675 H 0.03339 0.21427 0.91292 0.0
H676 H 0.99205 0.06039 0.96693 0.0
H677 H 0.95585 0.07995 0.96516 0.0
H678 H 0.03473 0.07019 0.03981 0.0
H679 H 0.06934 0.09182 0.03378 0.0
C680 C 0.16266 0.2763 0.93631 0.0
C681 C 0.14136 0.28924 0.87462 0.0
C682 C 0.11795 0.23632 0.82426 0.0
C683 C 0.1368 0.22412 0.89475 0.0
N684 N 0.1751 0.23381 0.0254 0.0
N685 N 0.09853 0.28288 0.76069 0.0
C686 C 0.15867 0.24444 0.95257 0.0
C687 C 0.11926 0.26947 0.8176 0.0
N688 N 0.1868 0.29471 0.98005 0.0
N689 N 0.09815 0.21644 0.76546 0.0
H690 H 0.10031 0.30665 0.75079 0.0
H691 H 0.07901 0.27115 0.7263 0.0
H692 H 0.09393 0.19297 0.7742 0.0
H693 H 0.08669 0.22269 0.70545 0.0
H694 H 0.20555 0.28575 1.01594 0.0
H695 H 0.18978 0.31856 0.97315 0.0
H696 H 0.1875 0.2488 0.07869 0.0
H697 H 0.17508 0.21031 0.03723 0.0
C698 C 0.01754 0.86348 0.04454 0.0
C699 C 0.03404 0.89083 0.09065 0.0
C700 C 0.98433 0.92042 0.11732 0.0
C701 C 0.96756 0.89159 0.08673 0.0
N702 N 0.96666 0.84021 0.98774 0.0
N703 N 0.03487 0.9476 0.14241 0.0
C704 C 0.98375 0.86465 0.03775 0.0
C705 C 0.01788 0.92024 0.11509 0.0
N706 N 0.03391 0.836 1.01453 0.0
N707 N 0.96807 0.94716 0.15726 0.0
H708 H 0.05947 0.94761 0.1489 0.0
H709 H 0.02512 0.97038 0.15199 0.0
H710 H 0.94341 0.94816 0.15776 0.0
H711 H 0.97858 0.96797 0.19242 0.0
H712 H 0.02321 0.81413 0.99003 0.0
H713 H 0.05861 0.83523 1.01629 0.0
H714 H 0.97677 0.82024 0.94618 0.0
H715 H 0.94207 0.84163 0.98166 0.0
C716 C 0.40082 0.73562 0.32032 0.0
C717 C 0.37998 0.72397 0.38678 0.0
C718 C 0.35386 0.77631 0.41762 0.0
C719 C 0.37726 0.7889 0.36183 0.0
N720 N 0.42388 0.78162 0.26309 0.0
N721 N 0.33884 0.73487 0.50793 0.0
C722 C 0.40076 0.76873 0.31304 0.0
C723 C 0.3571 0.74476 0.43791 0.0
N724 N 0.4211 0.71523 0.26527 0.0
N725 N 0.32827 0.79454 0.45099 0.0
H726 H 0.33876 0.71168 0.52273 0.0
H727 H 0.32512 0.7503 0.55639 0.0
H728 H 0.32509 0.81784 0.43861 0.0
H729 H 0.30858 0.7856 0.48239 0.0
H730 H 0.43391 0.72127 0.20748 0.0
H731 H 0.42405 0.69157 0.27389 0.0
H732 H 0.44423 0.76945 0.23646 0.0
H733 H 0.4233 0.80532 0.25195 0.0
C734 C 0.52587 0.14247 0.56582 0.0
C735 C 0.54415 0.12363 0.62013 0.0
C736 C 0.49575 0.10294 0.68352 0.0
C737 C 0.47714 0.12089 0.62664 0.0
N738 N 0.47485 0.15262 0.49798 0.0
N739 N 0.54674 0.07925 0.70732 0.0
C740 C 0.49231 0.13884 0.56226 0.0
C741 C 0.52914 0.1019 0.67212 0.0
N742 N 0.5403 0.16511 0.52191 0.0
N743 N 0.48176 0.08702 0.74953 0.0
H744 H 0.57118 0.07717 0.69785 0.0
H745 H 0.53685 0.06047 0.73653 0.0
H746 H 0.45741 0.08515 0.75681 0.0
H747 H 0.49444 0.07733 0.80169 0.0
H748 H 0.52798 0.18234 0.49166 0.0
H749 H 0.56474 0.16835 0.52209 0.0
H750 H 0.48483 0.16259 0.44186 0.0
H751 H 0.45028 0.15192 0.49524 0.0
C752 C 0.86036 0.24483 0.90156 0.0
C753 C 0.88694 0.22701 0.86162 0.0
C754 C 0.90562 0.27364 0.79419 0.0
C755 C 0.88251 0.29253 0.84924 0.0
N756 N 0.83803 0.29673 0.95879 0.0
N757 N 0.93551 0.22421 0.76974 0.0
C758 C 0.85952 0.27819 0.90238 0.0
C759 C 0.90951 0.24117 0.80621 0.0
N760 N 0.83545 0.22971 0.93652 0.0
N761 N 0.92396 0.28708 0.7314 0.0
H762 H 0.93935 0.20055 0.77769 0.0
H763 H 0.95444 0.23412 0.73754 0.0
H764 H 0.92113 0.31083 0.72224 0.0
H765 H 0.93971 0.27427 0.68287 0.0
H766 H 0.81385 0.24073 0.95617 0.0
H767 H 0.83535 0.2053 0.93714 0.0
H768 H 0.82383 0.28831 1.00989 0.0
H769 H 0.83552 0.32109 0.95843 0.0
C770 C 0.60643 0.77439 0.30809 0.0
C771 C 0.62938 0.79401 0.36184 0.0
C772 C 0.6524 0.74742 0.41915 0.0
C773 C 0.62665 0.72861 0.37743 0.0
N774 N 0.57838 0.72388 0.28355 0.0
N775 N 0.67396 0.79999 0.47159 0.0
C776 C 0.60366 0.74187 0.32085 0.0
C777 C 0.65261 0.78064 0.41699 0.0
N778 N 0.58733 0.78708 0.24521 0.0
N779 N 0.67726 0.73333 0.45845 0.0
H780 H 0.67655 0.82408 0.46733 0.0
H781 H 0.68815 0.79258 0.52465 0.0
H782 H 0.67762 0.70919 0.46331 0.0
H783 H 0.69856 0.74484 0.47877 0.0
H784 H 0.57175 0.77373 0.19726 0.0
H785 H 0.58923 0.81083 0.23515 0.0
H786 H 0.55908 0.73292 0.2504 0.0
H787 H 0.57551 0.7001 0.29148 0.0
C788 C 0.85791 0.74462 0.24591 0.0
C789 C 0.87414 0.72203 0.17866 0.0
C790 C 0.90173 0.76539 0.11691 0.0
C791 C 0.8803 0.78759 0.16768 0.0
N792 N 0.83805 0.79845 0.28609 0.0
N793 N 0.91207 0.71062 0.04874 0.0
C794 C 0.85883 0.77744 0.23554 0.0
C795 C 0.89658 0.73232 0.1147 0.0
N796 N 0.84162 0.73451 0.3195 0.0
N797 N 0.92776 0.77601 0.07389 0.0
H798 H 0.91049 0.68622 0.0481 0.0
H799 H 0.92521 0.71681 0.9917 0.0
H800 H 0.93308 0.80019 0.07973 0.0
H801 H 0.94586 0.76108 0.0431 0.0
H802 H 0.83161 0.74986 0.3769 0.0
H803 H 0.84095 0.71056 0.32806 0.0
H804 H 0.8195 0.79158 0.32701 0.0
H805 H 0.83739 0.82261 0.28198 0.0
C806 C 0.61818 0.24135 0.72382 0.0
C807 C 0.64098 0.2213 0.67123 0.0
C808 C 0.65971 0.26548 0.59332 0.0
C809 C 0.63729 0.28615 0.64725 0.0
N810 N 0.59757 0.29467 0.77301 0.0
N811 N 0.68872 0.21572 0.57632 0.0
C812 C 0.61754 0.27443 0.71628 0.0
C813 C 0.66354 0.23398 0.61311 0.0
N814 N 0.59619 0.22829 0.77729 0.0
N815 N 0.67685 0.27538 0.52096 0.0
H816 H 0.6921 0.19236 0.58802 0.0
H817 H 0.70793 0.22466 0.54264 0.0
H818 H 0.67644 0.29851 0.50579 0.0
H819 H 0.69008 0.25999 0.47096 0.0
H820 H 0.57624 0.24033 0.80767 0.0
H821 H 0.5974 0.20457 0.78816 0.0
H822 H 0.58561 0.28868 0.83241 0.0
H823 H 0.59393 0.31815 0.76356 0.0
C824 C 0.99555 0.3552 0.90941 0.0
C825 C 0.97935 0.38477 0.91642 0.0
C826 C 0.03028 0.41325 0.92488 0.0
C827 C 0.04633 0.38368 0.92041 0.0
N828 N 0.04493 0.3272 0.92373 0.0
N829 N 0.9803 0.44213 0.93653 0.0
C830 C 0.02913 0.35486 0.91726 0.0
C831 C 0.99647 0.4139 0.92654 0.0
N832 N 0.97888 0.32731 0.8914 0.0
N833 N 0.04745 0.44048 0.92329 0.0
H834 H 0.95578 0.44332 0.92957 0.0
H835 H 0.99079 0.46441 0.95534 0.0
H836 H 0.07215 0.44097 0.92479 0.0
H837 H 0.0376 0.46241 0.91597 0.0
H838 H 0.98924 0.30494 0.87279 0.0
H839 H 0.95428 0.32657 0.88867 0.0
H840 H 0.03387 0.30602 0.93298 0.0
H841 H 0.06948 0.32594 0.92732 0.0
C842 C 0.48645 0.61249 0.48151 0.0
C843 C 0.47015 0.6393 0.45668 0.0
C844 C 0.52097 0.66727 0.45538 0.0
C845 C 0.53713 0.6379 0.45212 0.0
N846 N 0.53574 0.58283 0.47518 0.0
N847 N 0.47126 0.6945 0.43804 0.0
C848 C 0.52014 0.61072 0.47134 0.0
C849 C 0.48731 0.6676 0.45097 0.0
N850 N 0.46998 0.58911 0.51605 0.0
N851 N 0.5381 0.69478 0.46283 0.0
H852 H 0.44667 0.69605 0.44356 0.0
H853 H 0.48202 0.7148 0.42022 0.0
H854 H 0.56269 0.69482 0.46955 0.0
H855 H 0.52813 0.71747 0.47206 0.0
H856 H 0.48069 0.57 0.54153 0.0
H857 H 0.44588 0.59099 0.53118 0.0
H858 H 0.52432 0.56107 0.47408 0.0
H859 H 0.56029 0.58132 0.47767 0.0
C860 C 0.49501 0.40397 0.64612 0.0
C861 C 0.47928 0.37572 0.60227 0.0
C862 C 0.53047 0.35274 0.54316 0.0
C863 C 0.54623 0.37834 0.60143 0.0
N864 N 0.54421 0.42924 0.70596 0.0
N865 N 0.48109 0.32388 0.50436 0.0
C866 C 0.52867 0.40462 0.65016 0.0
C867 C 0.49674 0.3505 0.5478 0.0
N868 N 0.4777 0.42997 0.68604 0.0
N869 N 0.54795 0.33062 0.48417 0.0
H870 H 0.45642 0.32242 0.50294 0.0
H871 H 0.4923 0.303 0.47257 0.0
H872 H 0.57252 0.33241 0.47916 0.0
H873 H 0.53822 0.31233 0.43456 0.0
H874 H 0.48738 0.45244 0.70874 0.0
H875 H 0.4531 0.42994 0.68964 0.0
H876 H 0.53305 0.44683 0.75457 0.0
H877 H 0.56879 0.43146 0.70711 0.0
C878 C 0.02027 0.64032 0.05696 0.0
C879 C 0.0368 0.6194 0.10904 0.0
C880 C 0.98618 0.59692 0.15266 0.0
C881 C 0.96964 0.61841 0.10229 0.0
N882 N 0.97139 0.6533 0.98189 0.0
N883 N 0.03632 0.57323 0.18893 0.0
C884 C 0.98679 0.6377 0.04629 0.0
C885 C 0.01995 0.59632 0.15176 0.0
N886 N 0.03626 0.66401 0.02219 0.0
N887 N 0.96946 0.57697 0.20133 0.0
H888 H 0.06099 0.57216 0.19023 0.0
H889 H 0.02576 0.55367 0.21201 0.0
H890 H 0.94504 0.57387 0.19384 0.0
H891 H 0.97948 0.56401 0.25072 0.0
H892 H 0.02514 0.68275 0.99586 0.0
H893 H 0.06071 0.66645 0.02657 0.0
H894 H 0.98304 0.66492 0.93217 0.0
H895 H 0.94713 0.65183 0.96993 0.0
C896 C 0.17113 0.51244 0.10078 0.0
C897 C 0.14525 0.53184 0.08214 0.0
C898 C 0.13256 0.49425 0.93514 0.0
C899 C 0.1559 0.47301 0.96034 0.0
N900 N 0.19469 0.45992 0.07446 0.0
N901 N 0.09748 0.53814 0.9925 0.0
C902 C 0.17452 0.48159 0.04507 0.0
C903 C 0.1251 0.52215 1.00156 0.0
N904 N 0.19292 0.52376 0.17016 0.0
N905 N 0.11712 0.48757 0.84844 0.0
H906 H 0.09018 0.55723 0.04351 0.0
H907 H 0.08017 0.53035 0.94109 0.0
H908 H 0.12098 0.46679 0.79926 0.0
H909 H 0.10241 0.50385 0.82178 0.0
H910 H 0.21415 0.51217 0.17981 0.0
H911 H 0.19131 0.54626 0.21239 0.0
H912 H 0.2063 0.46351 0.14089 0.0
H913 H 0.19795 0.43724 0.03551 0.0
C914 C 0.75006 0.84812 0.27521 0.0
C915 C 0.73825 0.87754 0.32298 0.0
C916 C 0.78575 0.90451 0.27514 0.0
C917 C 0.79419 0.87631 0.20952 0.0
N918 N 0.78593 0.81952 0.15831 0.0
N919 N 0.74408 0.93413 0.3695 0.0
C920 C 0.77694 0.84755 0.21362 0.0
C921 C 0.75617 0.90572 0.32471 0.0
N922 N 0.73559 0.82058 0.2904 0.0
N923 N 0.8058 0.93002 0.29248 0.0
H924 H 0.72351 0.93567 0.4111 0.0
H925 H 0.75337 0.95621 0.36106 0.0
H926 H 0.82818 0.93059 0.26288 0.0
H927 H 0.80198 0.94946 0.34666 0.0
H928 H 0.74453 0.79786 0.26635 0.0
H929 H 0.71597 0.82065 0.33553 0.0
H930 H 0.77137 0.79954 0.14429 0.0
H931 H 0.80826 0.81575 0.12734 0.0
C932 C 0.4162 0.48313 0.50754 0.0
C933 C 0.39215 0.47663 0.57321 0.0
C934 C 0.36022 0.52018 0.52792 0.0
C935 C 0.38509 0.52814 0.46759 0.0
N936 N 0.4387 0.52013 0.41078 0.0
N937 N 0.34411 0.49285 0.65922 0.0
C938 C 0.4136 0.51032 0.46001 0.0
C939 C 0.36509 0.49648 0.58772 0.0
N940 N 0.44133 0.46277 0.48901 0.0
N941 N 0.33156 0.5351 0.52642 0.0
H942 H 0.34718 0.47599 0.70478 0.0
H943 H 0.32551 0.50854 0.68001 0.0
H944 H 0.32711 0.55232 0.48282 0.0
H945 H 0.31142 0.52843 0.56095 0.0
H946 H 0.45734 0.46352 0.43302 0.0
H947 H 0.44529 0.44395 0.52696 0.0
H948 H 0.46145 0.51079 0.41294 0.0
H949 H 0.43721 0.53908 0.37203 0.0
C950 C 0.79417 0.10127 0.74065 0.0
C951 C 0.80132 0.12504 0.8214 0.0
C952 C 0.75627 0.15649 0.77926 0.0
C953 C 0.74606 0.13073 0.70893 0.0
N954 N 0.75413 0.07679 0.6285 0.0
N955 N 0.78408 0.1718 0.92999 0.0
C956 C 0.76496 0.10275 0.6899 0.0
C957 C 0.78105 0.15179 0.84399 0.0
N958 N 0.81495 0.07691 0.71335 0.0
N959 N 0.74181 0.1855 0.78491 0.0
H960 H 0.80094 0.16848 0.98183 0.0
H961 H 0.76784 0.18983 0.95387 0.0
H962 H 0.72377 0.18964 0.73742 0.0
H963 H 0.75 0.20593 0.82929 0.0
H964 H 0.81304 0.06107 0.6487 0.0
H965 H 0.83526 0.07385 0.75278 0.0
H966 H 0.76469 0.05437 0.62127 0.0
H967 H 0.73342 0.07721 0.58869 0.0
C968 C 0.88134 0.51529 0.11191 0.0
C969 C 0.85916 0.53652 0.07959 0.0
C970 C 0.84782 0.49705 0.93522 0.0
C971 C 0.87175 0.47688 0.96296 0.0
N972 N 0.90855 0.46441 0.08325 0.0
N973 N 0.82493 0.54969 0.95368 0.0
C974 C 0.88753 0.48523 0.05339 0.0
C975 C 0.84332 0.52788 0.98968 0.0
N976 N 0.89829 0.52494 0.19489 0.0
N977 N 0.828 0.48606 0.85983 0.0
H978 H 0.82007 0.5721 0.99218 0.0
H979 H 0.81653 0.54655 0.88288 0.0
H980 H 0.82944 0.46315 0.82022 0.0
H981 H 0.80781 0.49819 0.84316 0.0
H982 H 0.91748 0.51271 0.21765 0.0
H983 H 0.89449 0.54646 0.24047 0.0
H984 H 0.91807 0.46654 0.1524 0.0
H985 H 0.91559 0.44367 0.03946 0.0
C986 C 0.23333 0.10193 0.78896 0.0
C987 C 0.22102 0.1317 0.83659 0.0
C988 C 0.26389 0.15956 0.76476 0.0
C989 C 0.27579 0.12998 0.71778 0.0
N990 N 0.26742 0.07419 0.6629 0.0
N991 N 0.21983 0.18896 0.84431 0.0
C992 C 0.25872 0.10163 0.72172 0.0
C993 C 0.23489 0.16057 0.81676 0.0
N994 N 0.22283 0.07384 0.81321 0.0
N995 N 0.28095 0.18674 0.7621 0.0
H996 H 0.19817 0.19064 0.87927 0.0
H997 H 0.22701 0.2103 0.82347 0.0
H998 H 0.30112 0.1871 0.71932 0.0
H999 H 0.27604 0.20845 0.80559 0.0
H1000 H 0.23344 0.0519 0.78887 0.0
H1001 H 0.20567 0.07236 0.86518 0.0
H1002 H 0.25416 0.05327 0.65506 0.0
H1003 H 0.28624 0.07338 0.61443 0.0
C1004 C 0.65747 0.52491 0.51005 0.0
C1005 C 0.63125 0.53143 0.45236 0.0
C1006 C 0.60239 0.48693 0.50548 0.0
C1007 C 0.62824 0.48181 0.56714 0.0
N1008 N 0.67973 0.49762 0.63209 0.0
N1009 N 0.57842 0.51903 0.39494 0.0
C1010 C 0.65528 0.50157 0.57124 0.0
C1011 C 0.60366 0.51229 0.44941 0.0
N1012 N 0.68534 0.54085 0.50773 0.0
N1013 N 0.57689 0.46687 0.49951 0.0
H1014 H 0.57961 0.53599 0.34892 0.0
H1015 H 0.55619 0.5086 0.39624 0.0
H1016 H 0.57433 0.44974 0.54453 0.0
H1017 H 0.55866 0.46646 0.44932 0.0
H1018 H 0.68973 0.55718 0.4611 0.0
H1019 H 0.68973 0.55718 0.4611 0.0
H1020 H 0.70034 0.51135 0.63604 0.0
H1021 H 0.67858 0.48181 0.68161 0.0
C1022 C 0.24924 0.90221 0.32502 0.0
C1023 C 0.26848 0.87452 0.30518 0.0
C1024 C 0.23256 0.85228 0.17347 0.0
C1025 C 0.21238 0.87919 0.19607 0.0
N1026 N 0.19851 0.92697 0.30493 0.0
N1027 N 0.27381 0.81989 0.22932 0.0
C1028 C 0.21969 0.90313 0.2761 0.0
C1029 C 0.25848 0.84848 0.23547 0.0
N1030 N 0.26 0.92848 0.38551 0.0
N1031 N 0.22774 0.83076 0.09122 0.0
H1032 H 0.29251 0.81635 0.27532 0.0
H1033 H 0.26591 0.79908 0.18629 0.0
H1034 H 0.20842 0.83169 0.04536 0.0
H1035 H 0.24401 0.813 0.06535 0.0
H1036 H 0.24907 0.95071 0.39272 0.0
H1037 H 0.28106 0.92872 0.42421 0.0
H1038 H 0.20078 0.94322 0.36862 0.0
H1039 H 0.17719 0.9287 0.26904 0.0
C1040 C 0.61675 0.98941 0.5373 0.0
C1041 C 0.6366 0.97844 0.45758 0.0
C1042 C 0.66688 0.02811 0.48965 0.0
C1043 C 0.64961 0.03716 0.57665 0.0
N1044 N 0.61126 0.02384 0.69145 0.0
N1045 N 0.6825 0.98573 0.36128 0.0
C1046 C 0.62563 0.0169 0.60331 0.0
C1047 C 0.66242 0.99723 0.43514 0.0
N1048 N 0.58858 0.97453 0.54731 0.0
N1049 N 0.68653 0.04947 0.45675 0.0
H1050 H 0.67877 0.96418 0.31536 0.0
H1051 H 0.70389 0.9966 0.34911 0.0
H1052 H 0.68969 0.07252 0.49328 0.0
H1053 H 0.6974 0.04542 0.38931 0.0
H1054 H 0.57178 0.9831 0.59941 0.0
H1055 H 0.58031 0.95594 0.49585 0.0
H1056 H 0.596 0.00812 0.71835 0.0
H1057 H 0.61662 0.04406 0.74138 0.0
C1058 C 0.26181 0.34635 0.79236 0.0
C1059 C 0.24805 0.37628 0.82862 0.0
C1060 C 0.28745 0.40282 0.74 0.0
C1061 C 0.30198 0.37287 0.70561 0.0
N1062 N 0.30705 0.31718 0.71958 0.0
N1063 N 0.252 0.43336 0.8562 0.0
C1064 C 0.29039 0.34496 0.73814 0.0
C1065 C 0.26263 0.40462 0.80964 0.0
N1066 N 0.24669 0.31902 0.80605 0.0
N1067 N 0.29529 0.42912 0.70028 0.0
H1068 H 0.23353 0.43514 0.90598 0.0
H1069 H 0.2634 0.45488 0.85286 0.0
H1070 H 0.31142 0.42859 0.64394 0.0
H1071 H 0.28331 0.45076 0.71552 0.0
H1072 H 0.25292 0.29643 0.77051 0.0
H1073 H 0.22663 0.31923 0.8493 0.0
H1074 H 0.30183 0.29705 0.75029 0.0
H1075 H 0.32791 0.31522 0.68045 0.0
C1076 C 0.90992 0.98225 0.97634 0.0
C1077 C 0.88465 0.9784 0.04181 0.0
C1078 C 0.85726 0.02371 0.98902 0.0
C1079 C 0.88413 0.0299 0.93422 0.0
N1080 N 0.93707 0.01661 0.88013 0.0
N1081 N 0.83515 0.99756 0.11535 0.0
C1082 C 0.91067 0.00946 0.92866 0.0
C1083 C 0.85869 0.99994 0.0501 0.0
N1084 N 0.93287 0.95939 0.95705 0.0
N1085 N 0.82988 0.0401 0.97955 0.0
H1086 H 0.83449 0.97981 0.15859 0.0
H1087 H 0.81751 0.01467 0.13229 0.0
H1088 H 0.82794 0.05626 0.93113 0.0
H1089 H 0.80841 0.03524 1.01052 0.0
H1090 H 0.9492 0.95872 0.90121 0.0
H1091 H 0.93449 0.9397 0.99225 0.0
H1092 H 0.95889 0.00549 0.88465 0.0
H1093 H 0.9375 0.03497 0.83887 0.0
C1094 C 0.24814 0.65715 0.27258 0.0
C1095 C 0.23749 0.62802 0.21831 0.0
C1096 C 0.28369 0.60068 0.27408 0.0
C1097 C 0.29479 0.63022 0.32745 0.0
N1098 N 0.29299 0.6876 0.34274 0.0
N1099 N 0.24953 0.57437 0.14529 0.0
C1100 C 0.27866 0.65877 0.31596 0.0
C1101 C 0.25696 0.60064 0.21109 0.0
N1102 N 0.22872 0.68321 0.28573 0.0
N1103 N 0.29681 0.57236 0.28787 0.0
H1104 H 0.22998 0.57383 0.09936 0.0
H1105 H 0.26435 0.55461 0.1297 0.0
H1106 H 0.31563 0.57036 0.33417 0.0
H1107 H 0.28709 0.5503 0.25953 0.0
H1108 H 0.23382 0.70389 0.33404 0.0
H1109 H 0.20644 0.68328 0.25372 0.0
H1110 H 0.28344 0.709 0.32855 0.0
H1111 H 0.31626 0.68954 0.36701 0.0
C1112 C 0.35452 0.98063 0.53444 0.0
C1113 C 0.37472 0.97337 0.45115 0.0
C1114 C 0.40538 0.02163 0.51026 0.0
C1115 C 0.38323 0.03079 0.58459 0.0
N1116 N 0.33371 0.02139 0.66006 0.0
N1117 N 0.41011 0.99676 0.34491 0.0
C1118 C 0.35682 0.01108 0.5941 0.0
C1119 C 0.39757 0.99661 0.43459 0.0
N1120 N 0.33358 0.95893 0.55988 0.0
N1121 N 0.43382 0.03687 0.51085 0.0
H1122 H 0.40107 0.98299 0.28273 0.0
H1123 H 0.42553 0.01451 0.33004 0.0
H1124 H 0.44096 0.05405 0.56841 0.0
H1125 H 0.45159 0.02943 0.46064 0.0
H1126 H 0.32262 0.96178 0.62727 0.0
H1127 H 0.32803 0.93721 0.51903 0.0
H1128 H 0.31171 0.0103 0.66067 0.0
H1129 H 0.33568 0.0422 0.71049 0.0
C1130 C 0.75871 0.65849 0.28597 0.0
C1131 C 0.76984 0.63163 0.22133 0.0
C1132 C 0.72322 0.60156 0.26261 0.0
C1133 C 0.71515 0.62699 0.33743 0.0
N1134 N 0.73086 0.67646 0.43503 0.0
N1135 N 0.76452 0.57543 0.15912 0.0
C1136 C 0.73441 0.65463 0.35308 0.0
C1137 C 0.75237 0.60261 0.21141 0.0
N1138 N 0.77147 0.68785 0.28311 0.0
N1139 N 0.70335 0.57609 0.24127 0.0
H1140 H 0.78572 0.57488 0.1215 0.0
H1141 H 0.7548 0.55291 0.15917 0.0
H1142 H 0.68308 0.57355 0.28135 0.0
H1143 H 0.70592 0.5587 0.1803 0.0
H1144 H 0.76257 0.70874 0.32332 0.0
H1145 H 0.78859 0.69154 0.23239 0.0
H1146 H 0.7462 0.69566 0.45402 0.0
H1147 H 0.71488 0.67331 0.48928 0.0
C1148 C 0.10507 0.00849 0.95228 0.0
C1149 C 0.13213 0.02818 0.97009 0.0
C1150 C 0.15112 0.99544 0.08928 0.0
C1151 C 0.12515 0.97438 0.06747 0.0
N1152 N 0.08008 0.95809 0.96268 0.0
N1153 N 0.18255 0.0385 0.05344 0.0
C1154 C 0.10288 0.98017 0.99459 0.0
C1155 C 0.15547 0.021 0.03703 0.0
N1156 N 0.08049 0.01767 0.8993 0.0
N1157 N 0.17284 0.99065 0.15778 0.0
H1158 H 0.18863 0.05721 0.0171 0.0
H1159 H 0.18863 0.05721 0.0171 0.0
H1160 H 0.17084 0.97261 0.1993 0.0
H1161 H 0.19242 0.00549 0.17509 0.0
H1162 H 0.05827 0.00687 0.89533 0.0
H1163 H 0.08144 0.03766 0.86491 0.0
H1164 H 0.0665 0.95881 0.90094 0.0
H1165 H 0.07596 0.93773 0.99322 0.0
C1166 C 0.73678 0.40734 0.74677 0.0
C1167 C 0.72353 0.37771 0.70218 0.0
C1168 C 0.76569 0.34957 0.77656 0.0
C1169 C 0.77798 0.37908 0.82342 0.0
N1170 N 0.7702 0.43517 0.8746 0.0
N1171 N 0.72093 0.32072 0.69928 0.0
C1172 C 0.76151 0.40761 0.81653 0.0
C1173 C 0.73663 0.34884 0.72462 0.0
N1174 N 0.72798 0.4351 0.71663 0.0
N1175 N 0.78245 0.32217 0.77866 0.0
H1176 H 0.69929 0.31926 0.66402 0.0
H1177 H 0.72762 0.29955 0.72231 0.0
H1178 H 0.80297 0.3216 0.81976 0.0
H1179 H 0.77704 0.30054 0.73541 0.0
H1180 H 0.73897 0.4569 0.74041 0.0
H1181 H 0.71249 0.43591 0.65926 0.0
H1182 H 0.7574 0.45633 0.8791 0.0
H1183 H 0.78837 0.43583 0.92549 0.0
loop_
_geom_bond_atom_site_label_1
_geom_bond_atom_site_label_2
_geom_bond_distance
_geom_bond_site_symmetry_2
_ccdc_geom_bond_type
Dy0 O4 2.398 . S
Dy0 O5 2.492 . S
Dy0 O6 2.403 1_556 S
Dy0 O7 2.664 1_556 S
Dy0 O11 2.326 1_556 S
Dy0 O15 2.310 1_556 S
Dy0 O16 2.351 1_556 S
C1 O12 1.185 . S
C1 O13 1.355 . S
C2 O4 1.185 . S
C2 O5 1.355 . S
Dy3 O7 2.310 . S
Dy3 O10 2.351 . S
Dy3 O12 2.398 . S
Dy3 O13 2.491 . S
Dy3 O14 2.403 . S
Dy3 O15 2.664 . S
Dy3 O17 2.326 . S
O4 Dy0 2.398 . S
O4 C2 1.185 . S
O5 Dy0 2.492 . S
O5 C2 1.355 . S
O6 Dy0 2.403 1_554 S
O6 C8 1.254 . S
O7 Dy0 2.664 1_554 S
O7 Dy3 2.310 . S
O7 C8 1.268 . S
C8 O6 1.254 . S
C8 O7 1.268 . S
C9 O14 1.254 . S
C9 O15 1.268 . S
O10 Dy3 2.351 . S
O10 C18 1.249 . S
O11 Dy0 2.326 1_554 S
O11 C18 1.267 . S
O12 C1 1.185 . S
O12 Dy3 2.398 . S
O13 C1 1.355 . S
O13 Dy3 2.491 . S
O14 Dy3 2.403 . S
O14 C9 1.254 . S
O15 Dy0 2.310 1_554 S
O15 Dy3 2.664 . S
O15 C9 1.268 . S
O16 Dy0 2.351 1_554 S
O16 C19 1.249 . S
O17 Dy3 2.326 . S
O17 C19 1.267 . S
C18 O10 1.249 . S
C18 O11 1.267 . S
C19 O16 1.249 . S
C19 O17 1.267 . S
Dy20 O24 2.398 . S
Dy20 O25 2.491 . S
Dy20 O26 2.403 . S
Dy20 O27 2.664 . S
Dy20 O31 2.326 . S
Dy20 O35 2.310 . S
Dy20 O36 2.351 . S
C21 O32 1.185 . S
C21 O33 1.355 . S
C22 O24 1.185 . S
C22 O25 1.355 . S
Dy23 O27 2.310 . S
Dy23 O30 2.351 . S
Dy23 O32 2.398 . S
Dy23 O33 2.491 . S
Dy23 O34 2.403 . S
Dy23 O35 2.664 . S
Dy23 O37 2.326 . S
O24 Dy20 2.398 . S
O24 C22 1.185 . S
O25 Dy20 2.491 . S
O25 C22 1.355 . S
O26 Dy20 2.403 . S
O26 C28 1.254 . S
O27 Dy20 2.664 . S
O27 Dy23 2.310 . S
O27 C28 1.268 . S
C28 O26 1.254 . S
C28 O27 1.268 . S
C29 O34 1.254 . S
C29 O35 1.268 . S
O30 Dy23 2.351 . S
O30 C38 1.249 . S
O31 Dy20 2.326 . S
O31 C38 1.267 . S
O32 C21 1.185 . S
O32 Dy23 2.398 . S
O33 C21 1.355 . S
O33 Dy23 2.491 . S
O34 Dy23 2.403 . S
O34 C29 1.254 . S
O35 Dy20 2.310 . S
O35 Dy23 2.664 . S
O35 C29 1.268 . S
O36 Dy20 2.351 . S
O36 C39 1.249 . S
O37 Dy23 2.326 . S
O37 C39 1.267 . S
C38 O30 1.249 . S
C38 O31 1.267 . S
C39 O36 1.249 . S
C39 O37 1.267 . S
Dy40 O44 2.398 . S
Dy40 O45 2.491 . S
Dy40 O46 2.403 . S
Dy40 O47 2.664 . S
Dy40 O51 2.326 . S
Dy40 O55 2.310 . S
Dy40 O56 2.351 . S
C41 O52 1.185 . S
C41 O53 1.355 . S
C42 O44 1.185 . S
C42 O45 1.355 . S
Dy43 O47 2.310 . S
Dy43 O50 2.351 . S
Dy43 O52 2.398 . S
Dy43 O53 2.491 . S
Dy43 O54 2.403 . S
Dy43 O55 2.664 . S
Dy43 O57 2.326 . S
O44 Dy40 2.398 . S
O44 C42 1.185 . S
O45 Dy40 2.491 . S
O45 C42 1.355 . S
O46 Dy40 2.403 . S
O46 C48 1.254 . S
O47 Dy40 2.664 . S
O47 Dy43 2.310 . S
O47 C48 1.268 . S
C48 O46 1.254 . S
C48 O47 1.268 . S
C49 O54 1.254 . S
C49 O55 1.268 . S
O50 Dy43 2.351 . S
O50 C58 1.249 . S
O51 Dy40 2.326 . S
O51 C58 1.267 . S
O52 C41 1.185 . S
O52 Dy43 2.398 . S
O53 C41 1.355 . S
O53 Dy43 2.491 . S
O54 Dy43 2.403 . S
O54 C49 1.254 . S
O55 Dy40 2.310 . S
O55 Dy43 2.664 . S
O55 C49 1.268 . S
O56 Dy40 2.351 . S
O56 C59 1.249 . S
O57 Dy43 2.326 . S
O57 C59 1.267 . S
C58 O50 1.249 . S
C58 O51 1.267 . S
C59 O56 1.249 . S
C59 O57 1.267 . S
Dy60 O64 2.398 . S
Dy60 O65 2.491 . S
Dy60 O66 2.403 . S
Dy60 O67 2.664 . S
Dy60 O71 2.326 . S
Dy60 O75 2.310 . S
Dy60 O76 2.351 . S
C61 O72 1.185 . S
C61 O73 1.355 . S
C62 O64 1.185 . S
C62 O65 1.355 . S
Dy63 O67 2.310 1_554 S
Dy63 O70 2.351 1_554 S
Dy63 O72 2.398 . S
Dy63 O73 2.491 . S
Dy63 O74 2.403 1_554 S
Dy63 O75 2.664 1_554 S
Dy63 O77 2.326 1_554 S
O64 Dy60 2.398 . S
O64 C62 1.185 . S
O65 Dy60 2.491 . S
O65 C62 1.355 . S
O66 Dy60 2.403 . S
O66 C68 1.254 . S
O67 Dy60 2.664 . S
O67 Dy63 2.310 1_556 S
O67 C68 1.268 . S
C68 O66 1.254 . S
C68 O67 1.268 . S
C69 O74 1.254 . S
C69 O75 1.268 . S
O70 Dy63 2.351 1_556 S
O70 C78 1.249 . S
O71 Dy60 2.326 . S
O71 C78 1.267 . S
O72 C61 1.185 . S
O72 Dy63 2.398 . S
O73 C61 1.355 . S
O73 Dy63 2.491 . S
O74 Dy63 2.403 1_556 S
O74 C69 1.254 . S
O75 Dy60 2.310 . S
O75 Dy63 2.664 1_556 S
O75 C69 1.268 . S
O76 Dy60 2.351 . S
O76 C79 1.249 . S
O77 Dy63 2.326 1_556 S
O77 C79 1.267 . S
C78 O70 1.249 . S
C78 O71 1.267 . S
C79 O76 1.249 . S
C79 O77 1.267 . S
Dy80 O84 2.398 . S
Dy80 O85 2.492 . S
Dy80 O86 2.403 1_554 S
Dy80 O87 2.664 1_554 S
Dy80 O91 2.326 1_554 S
Dy80 O95 2.310 1_554 S
Dy80 O96 2.351 1_554 S
C81 O92 1.185 . S
C81 O93 1.355 . S
C82 O84 1.185 . S
C82 O85 1.355 . S
Dy83 O87 2.310 . S
Dy83 O90 2.351 . S
Dy83 O92 2.398 . S
Dy83 O93 2.491 . S
Dy83 O94 2.403 . S
Dy83 O95 2.664 . S
Dy83 O97 2.326 . S
O84 Dy80 2.398 . S
O84 C82 1.185 . S
O85 Dy80 2.492 . S
O85 C82 1.355 . S
O86 Dy80 2.403 1_556 S
O86 C88 1.254 . S
O87 Dy80 2.664 1_556 S
O87 Dy83 2.310 . S
O87 C88 1.268 . S
C88 O86 1.254 . S
C88 O87 1.268 . S
C89 O94 1.254 . S
C89 O95 1.268 . S
O90 Dy83 2.351 . S
O90 C98 1.249 . S
O91 Dy80 2.326 1_556 S
O91 C98 1.267 . S
O92 C81 1.185 . S
O92 Dy83 2.398 . S
O93 C81 1.355 . S
O93 Dy83 2.491 . S
O94 Dy83 2.403 . S
O94 C89 1.254 . S
O95 Dy80 2.310 1_556 S
O95 Dy83 2.664 . S
O95 C89 1.268 . S
O96 Dy80 2.351 1_556 S
O96 C99 1.249 . S
O97 Dy83 2.326 . S
O97 C99 1.267 . S
C98 O90 1.249 . S
C98 O91 1.267 . S
C99 O96 1.249 . S
C99 O97 1.267 . S
Dy100 O104 2.398 . S
Dy100 O105 2.491 . S
Dy100 O106 2.403 . S
Dy100 O107 2.664 . S
Dy100 O111 2.326 . S
Dy100 O115 2.310 . S
Dy100 O116 2.351 . S
C101 O112 1.185 . S
C101 O113 1.355 . S
C102 O104 1.185 . S
C102 O105 1.355 . S
Dy103 O107 2.310 1_556 S
Dy103 O110 2.351 1_556 S
Dy103 O112 2.398 . S
Dy103 O113 2.491 . S
Dy103 O114 2.403 1_556 S
Dy103 O115 2.664 1_556 S
Dy103 O117 2.326 1_556 S
O104 Dy100 2.398 . S
O104 C102 1.185 . S
O105 Dy100 2.491 . S
O105 C102 1.355 . S
O106 Dy100 2.403 . S
O106 C108 1.254 . S
O107 Dy100 2.664 . S
O107 Dy103 2.310 1_554 S
O107 C108 1.268 . S
C108 O106 1.254 . S
C108 O107 1.268 . S
C109 O114 1.254 . S
C109 O115 1.268 . S
O110 Dy103 2.351 1_554 S
O110 C118 1.249 . S
O111 Dy100 2.326 . S
O111 C118 1.267 . S
O112 C101 1.185 . S
O112 Dy103 2.398 . S
O113 C101 1.355 . S
O113 Dy103 2.491 . S
O114 Dy103 2.403 1_554 S
O114 C109 1.254 . S
O115 Dy100 2.310 . S
O115 Dy103 2.664 1_554 S
O115 C109 1.268 . S
O116 Dy100 2.351 . S
O116 C119 1.249 . S
O117 Dy103 2.326 1_554 S
O117 C119 1.267 . S
C118 O110 1.249 . S
C118 O111 1.267 . S
C119 O116 1.249 . S
C119 O117 1.267 . S
Dy120 O124 2.398 . S
Dy120 O125 2.491 . S
Dy120 O126 2.403 . S
Dy120 O127 2.664 . S
Dy120 O131 2.326 . S
Dy120 O135 2.310 . S
Dy120 O136 2.351 . S
C121 O132 1.185 . S
C121 O133 1.355 . S
C122 O124 1.185 . S
C122 O125 1.355 . S
Dy123 O127 2.310 . S
Dy123 O130 2.351 . S
Dy123 O132 2.398 . S
Dy123 O133 2.491 . S
Dy123 O134 2.403 . S
Dy123 O135 2.664 . S
Dy123 O137 2.326 . S
O124 Dy120 2.398 . S
O124 C122 1.185 . S
O125 Dy120 2.491 . S
O125 C122 1.355 . S
O126 Dy120 2.403 . S
O126 C128 1.254 . S
O127 Dy120 2.664 . S
O127 Dy123 2.310 . S
O127 C128 1.268 . S
C128 O126 1.254 . S
C128 O127 1.268 . S
C129 O134 1.254 . S
C129 O135 1.268 . S
O130 Dy123 2.351 . S
O130 C138 1.249 . S
O131 Dy120 2.326 . S
O131 C138 1.267 . S
O132 C121 1.185 . S
O132 Dy123 2.398 . S
O133 C121 1.355 . S
O133 Dy123 2.491 . S
O134 Dy123 2.403 . S
O134 C129 1.254 . S
O135 Dy120 2.310 . S
O135 Dy123 2.664 . S
O135 C129 1.268 . S
O136 Dy120 2.351 . S
O136 C139 1.249 . S
O137 Dy123 2.326 . S
O137 C139 1.267 . S
C138 O130 1.249 . S
C138 O131 1.267 . S
C139 O136 1.249 . S
C139 O137 1.267 . S
Dy140 O144 2.398 . S
Dy140 O145 2.491 . S
Dy140 O146 2.403 . S
Dy140 O147 2.664 . S
Dy140 O151 2.326 . S
Dy140 O155 2.310 . S
Dy140 O156 2.351 . S
C141 O152 1.185 . S
C141 O153 1.355 . S
C142 O144 1.185 . S
C142 O145 1.355 . S
Dy143 O147 2.310 . S
Dy143 O150 2.351 . S
Dy143 O152 2.398 . S
Dy143 O153 2.491 . S
Dy143 O154 2.403 . S
Dy143 O155 2.664 . S
Dy143 O157 2.326 . S
O144 Dy140 2.398 . S
O144 C142 1.185 . S
O145 Dy140 2.491 . S
O145 C142 1.355 . S
O146 Dy140 2.403 . S
O146 C148 1.254 . S
O147 Dy140 2.664 . S
O147 Dy143 2.310 . S
O147 C148 1.268 . S
C148 O146 1.254 . S
C148 O147 1.268 . S
C149 O154 1.254 . S
C149 O155 1.268 . S
O150 Dy143 2.351 . S
O150 C158 1.249 . S
O151 Dy140 2.326 . S
O151 C158 1.267 . S
O152 C141 1.185 . S
O152 Dy143 2.398 . S
O153 C141 1.355 . S
O153 Dy143 2.491 . S
O154 Dy143 2.403 . S
O154 C149 1.254 . S
O155 Dy140 2.310 . S
O155 Dy143 2.664 . S
O155 C149 1.268 . S
O156 Dy140 2.351 . S
O156 C159 1.249 . S
O157 Dy143 2.326 . S
O157 C159 1.267 . S
C158 O150 1.249 . S
C158 O151 1.267 . S
C159 O156 1.249 . S
C159 O157 1.267 . S
Dy160 O164 2.398 . S
Dy160 O165 2.491 . S
Dy160 O166 2.403 . S
Dy160 O167 2.664 . S
Dy160 O171 2.326 . S
Dy160 O175 2.310 . S
Dy160 O176 2.351 . S
C161 O172 1.185 . S
C161 O173 1.355 . S
C162 O164 1.185 . S
C162 O165 1.355 . S
Dy163 O167 2.310 1_554 S
Dy163 O170 2.351 1_554 S
Dy163 O172 2.398 . S
Dy163 O173 2.492 . S
Dy163 O174 2.403 1_554 S
Dy163 O175 2.664 1_554 S
Dy163 O177 2.326 1_554 S
O164 Dy160 2.398 . S
O164 C162 1.185 . S
O165 Dy160 2.491 . S
O165 C162 1.355 . S
O166 Dy160 2.403 . S
O166 C168 1.254 . S
O167 Dy160 2.664 . S
O167 Dy163 2.310 1_556 S
O167 C168 1.268 . S
C168 O166 1.254 . S
C168 O167 1.268 . S
C169 O174 1.254 . S
C169 O175 1.268 . S
O170 Dy163 2.351 1_556 S
O170 C178 1.249 . S
O171 Dy160 2.326 . S
O171 C178 1.267 . S
O172 C161 1.185 . S
O172 Dy163 2.398 . S
O173 C161 1.355 . S
O173 Dy163 2.492 . S
O174 Dy163 2.403 1_556 S
O174 C169 1.254 . S
O175 Dy160 2.310 . S
O175 Dy163 2.664 1_556 S
O175 C169 1.268 . S
O176 Dy160 2.351 . S
O176 C179 1.249 . S
O177 Dy163 2.326 1_556 S
O177 C179 1.267 . S
C178 O170 1.249 . S
C178 O171 1.267 . S
C179 O176 1.249 . S
C179 O177 1.267 . S
Dy180 O184 2.398 . S
Dy180 O185 2.491 . S
Dy180 O186 2.403 . S
Dy180 O187 2.664 . S
Dy180 O191 2.326 . S
Dy180 O195 2.310 . S
Dy180 O196 2.351 . S
C181 O192 1.185 . S
C181 O193 1.355 . S
C182 O184 1.185 . S
C182 O185 1.355 . S
Dy183 O187 2.310 . S
Dy183 O190 2.351 . S
Dy183 O192 2.398 . S
Dy183 O193 2.491 . S
Dy183 O194 2.403 . S
Dy183 O195 2.664 . S
Dy183 O197 2.326 . S
O184 Dy180 2.398 . S
O184 C182 1.185 . S
O185 Dy180 2.491 . S
O185 C182 1.355 . S
O186 Dy180 2.403 . S
O186 C188 1.254 . S
O187 Dy180 2.664 . S
O187 Dy183 2.310 . S
O187 C188 1.268 . S
C188 O186 1.254 . S
C188 O187 1.268 . S
C189 O194 1.254 . S
C189 O195 1.268 . S
O190 Dy183 2.351 . S
O190 C198 1.249 . S
O191 Dy180 2.326 . S
O191 C198 1.267 . S
O192 C181 1.185 . S
O192 Dy183 2.398 . S
O193 C181 1.355 . S
O193 Dy183 2.491 . S
O194 Dy183 2.403 . S
O194 C189 1.254 . S
O195 Dy180 2.310 . S
O195 Dy183 2.664 . S
O195 C189 1.268 . S
O196 Dy180 2.351 . S
O196 C199 1.249 . S
O197 Dy183 2.326 . S
O197 C199 1.267 . S
C198 O190 1.249 . S
C198 O191 1.267 . S
C199 O196 1.249 . S
C199 O197 1.267 . S
Dy200 O204 2.398 . S
Dy200 O205 2.491 . S
Dy200 O206 2.403 . S
Dy200 O207 2.664 . S
Dy200 O211 2.326 . S
Dy200 O215 2.310 . S
Dy200 O216 2.351 . S
C201 O212 1.185 . S
C201 O213 1.355 . S
C202 O204 1.185 . S
C202 O205 1.355 . S
Dy203 O207 2.310 . S
Dy203 O210 2.351 . S
Dy203 O212 2.398 . S
Dy203 O213 2.491 . S
Dy203 O214 2.403 . S
Dy203 O215 2.664 . S
Dy203 O217 2.326 . S
O204 Dy200 2.398 . S
O204 C202 1.185 . S
O205 Dy200 2.491 . S
O205 C202 1.355 . S
O206 Dy200 2.403 . S
O206 C208 1.254 . S
O207 Dy200 2.664 . S
O207 Dy203 2.310 . S
O207 C208 1.268 . S
C208 O206 1.254 . S
C208 O207 1.268 . S
C209 O214 1.254 . S
C209 O215 1.268 . S
O210 Dy203 2.351 . S
O210 C218 1.249 . S
O211 Dy200 2.326 . S
O211 C218 1.267 . S
O212 C201 1.185 . S
O212 Dy203 2.398 . S
O213 C201 1.355 . S
O213 Dy203 2.491 . S
O214 Dy203 2.403 . S
O214 C209 1.254 . S
O215 Dy200 2.310 . S
O215 Dy203 2.664 . S
O215 C209 1.268 . S
O216 Dy200 2.351 . S
O216 C219 1.249 . S
O217 Dy203 2.326 . S
O217 C219 1.267 . S
C218 O210 1.249 . S
C218 O211 1.267 . S
C219 O216 1.249 . S
C219 O217 1.267 . S
Dy220 O224 2.398 . S
Dy220 O225 2.491 . S
Dy220 O226 2.403 1_556 S
Dy220 O227 2.664 1_556 S
Dy220 O231 2.326 1_556 S
Dy220 O235 2.310 1_556 S
Dy220 O236 2.351 1_556 S
C221 O232 1.185 . S
C221 O233 1.355 . S
C222 O224 1.185 . S
C222 O225 1.355 . S
Dy223 O227 2.310 . S
Dy223 O230 2.351 . S
Dy223 O232 2.398 . S
Dy223 O233 2.491 . S
Dy223 O234 2.403 . S
Dy223 O235 2.664 . S
Dy223 O237 2.326 . S
O224 Dy220 2.398 . S
O224 C222 1.185 . S
O225 Dy220 2.491 . S
O225 C222 1.355 . S
O226 Dy220 2.403 1_554 S
O226 C228 1.254 . S
O227 Dy220 2.664 1_554 S
O227 Dy223 2.310 . S
O227 C228 1.268 . S
C228 O226 1.254 . S
C228 O227 1.268 . S
C229 O234 1.254 . S
C229 O235 1.268 . S
O230 Dy223 2.351 . S
O230 C238 1.249 . S
O231 Dy220 2.326 1_554 S
O231 C238 1.267 . S
O232 C221 1.185 . S
O232 Dy223 2.398 . S
O233 C221 1.355 . S
O233 Dy223 2.491 . S
O234 Dy223 2.403 . S
O234 C229 1.254 . S
O235 Dy220 2.310 1_554 S
O235 Dy223 2.664 . S
O235 C229 1.268 . S
O236 Dy220 2.351 1_554 S
O236 C239 1.249 . S
O237 Dy223 2.326 . S
O237 C239 1.267 . S
C238 O230 1.249 . S
C238 O231 1.267 . S
C239 O236 1.249 . S
C239 O237 1.267 . S
Dy240 O244 2.398 . S
Dy240 O245 2.491 . S
Dy240 O246 2.403 . S
Dy240 O247 2.664 . S
Dy240 O251 2.326 . S
Dy240 O255 2.310 . S
Dy240 O256 2.351 . S
C241 O252 1.185 . S
C241 O253 1.355 . S
C242 O244 1.185 . S
C242 O245 1.355 . S
Dy243 O247 2.310 1_556 S
Dy243 O250 2.351 1_556 S
Dy243 O252 2.398 . S
Dy243 O253 2.492 . S
Dy243 O254 2.403 1_556 S
Dy243 O255 2.664 1_556 S
Dy243 O257 2.326 1_556 S
O244 Dy240 2.398 . S
O244 C242 1.185 . S
O245 Dy240 2.491 . S
O245 C242 1.355 . S
O246 Dy240 2.403 . S
O246 C248 1.254 . S
O247 Dy240 2.664 . S
O247 Dy243 2.310 1_554 S
O247 C248 1.268 . S
C248 O246 1.254 . S
C248 O247 1.268 . S
C249 O254 1.254 . S
C249 O255 1.268 . S
O250 Dy243 2.351 1_554 S
O250 C258 1.249 . S
O251 Dy240 2.326 . S
O251 C258 1.267 . S
O252 C241 1.185 . S
O252 Dy243 2.398 . S
O253 C241 1.355 . S
O253 Dy243 2.492 . S
O254 Dy243 2.403 1_554 S
O254 C249 1.254 . S
O255 Dy240 2.310 . S
O255 Dy243 2.664 1_554 S
O255 C249 1.268 . S
O256 Dy240 2.351 . S
O256 C259 1.249 . S
O257 Dy243 2.326 1_554 S
O257 C259 1.267 . S
C258 O250 1.249 . S
C258 O251 1.267 . S
C259 O256 1.249 . S
C259 O257 1.267 . S
Dy260 O264 2.398 . S
Dy260 O265 2.491 . S
Dy260 O266 2.403 1_554 S
Dy260 O267 2.664 1_554 S
Dy260 O271 2.326 1_554 S
Dy260 O275 2.310 1_554 S
Dy260 O276 2.351 1_554 S
C261 O272 1.185 . S
C261 O273 1.355 . S
C262 O264 1.185 . S
C262 O265 1.355 . S
Dy263 O267 2.310 . S
Dy263 O270 2.351 . S
Dy263 O272 2.398 . S
Dy263 O273 2.491 . S
Dy263 O274 2.403 . S
Dy263 O275 2.664 . S
Dy263 O277 2.326 . S
O264 Dy260 2.398 . S
O264 C262 1.185 . S
O265 Dy260 2.491 . S
O265 C262 1.355 . S
O266 Dy260 2.403 1_556 S
O266 C268 1.254 . S
O267 Dy260 2.664 1_556 S
O267 Dy263 2.310 . S
O267 C268 1.268 . S
C268 O266 1.254 . S
C268 O267 1.268 . S
C269 O274 1.254 . S
C269 O275 1.268 . S
O270 Dy263 2.351 . S
O270 C278 1.249 . S
O271 Dy260 2.326 1_556 S
O271 C278 1.267 . S
O272 C261 1.185 . S
O272 Dy263 2.398 . S
O273 C261 1.355 . S
O273 Dy263 2.491 . S
O274 Dy263 2.403 . S
O274 C269 1.254 . S
O275 Dy260 2.310 1_556 S
O275 Dy263 2.664 . S
O275 C269 1.268 . S
O276 Dy260 2.351 1_556 S
O276 C279 1.249 . S
O277 Dy263 2.326 . S
O277 C279 1.267 . S
C278 O270 1.249 . S
C278 O271 1.267 . S
C279 O276 1.249 . S
C279 O277 1.267 . S
Dy280 O284 2.398 . S
Dy280 O285 2.491 . S
Dy280 O286 2.403 . S
Dy280 O287 2.664 . S
Dy280 O291 2.326 . S
Dy280 O295 2.310 . S
Dy280 O296 2.351 . S
C281 O292 1.185 . S
C281 O293 1.355 . S
C282 O284 1.185 . S
C282 O285 1.355 . S
Dy283 O287 2.310 . S
Dy283 O290 2.351 . S
Dy283 O292 2.398 . S
Dy283 O293 2.491 . S
Dy283 O294 2.403 . S
Dy283 O295 2.664 . S
Dy283 O297 2.326 . S
O284 Dy280 2.398 . S
O284 C282 1.185 . S
O285 Dy280 2.491 . S
O285 C282 1.355 . S
O286 Dy280 2.403 . S
O286 C288 1.254 . S
O287 Dy280 2.664 . S
O287 Dy283 2.310 . S
O287 C288 1.268 . S
C288 O286 1.254 . S
C288 O287 1.268 . S
C289 O294 1.254 . S
C289 O295 1.268 . S
O290 Dy283 2.351 . S
O290 C298 1.249 . S
O291 Dy280 2.326 . S
O291 C298 1.267 . S
O292 C281 1.185 . S
O292 Dy283 2.398 . S
O293 C281 1.355 . S
O293 Dy283 2.491 . S
O294 Dy283 2.403 . S
O294 C289 1.254 . S
O295 Dy280 2.310 . S
O295 Dy283 2.664 . S
O295 C289 1.268 . S
O296 Dy280 2.351 . S
O296 C299 1.249 . S
O297 Dy283 2.326 . S
O297 C299 1.267 . S
C298 O290 1.249 . S
C298 O291 1.267 . S
C299 O296 1.249 . S
C299 O297 1.267 . S
Dy300 O304 2.398 . S
Dy300 O305 2.491 . S
Dy300 O306 2.403 . S
Dy300 O307 2.664 . S
Dy300 O311 2.326 . S
Dy300 O315 2.310 . S
Dy300 O316 2.351 . S
C301 O312 1.185 . S
C301 O313 1.355 . S
C302 O304 1.185 . S
C302 O305 1.355 . S
Dy303 O307 2.310 . S
Dy303 O310 2.351 . S
Dy303 O312 2.398 . S
Dy303 O313 2.491 . S
Dy303 O314 2.403 . S
Dy303 O315 2.664 . S
Dy303 O317 2.326 . S
O304 Dy300 2.398 . S
O304 C302 1.185 . S
O305 Dy300 2.491 . S
O305 C302 1.355 . S
O306 Dy300 2.403 . S
O306 C308 1.254 . S
O307 Dy300 2.664 . S
O307 Dy303 2.310 . S
O307 C308 1.268 . S
C308 O306 1.254 . S
C308 O307 1.268 . S
C309 O314 1.254 . S
C309 O315 1.268 . S
O310 Dy303 2.351 . S
O310 C318 1.249 . S
O311 Dy300 2.326 . S
O311 C318 1.267 . S
O312 C301 1.185 . S
O312 Dy303 2.398 . S
O313 C301 1.355 . S
O313 Dy303 2.491 . S
O314 Dy303 2.403 . S
O314 C309 1.254 . S
O315 Dy300 2.310 . S
O315 Dy303 2.664 . S
O315 C309 1.268 . S
O316 Dy300 2.351 . S
O316 C319 1.249 . S
O317 Dy303 2.326 . S
O317 C319 1.267 . S
C318 O310 1.249 . S
C318 O311 1.267 . S
C319 O316 1.249 . S
C319 O317 1.267 . S
C320 C321 1.363 . S
C320 C326 1.379 . S
C320 N328 1.356 . S
C321 C320 1.363 . S
C321 C327 1.363 . S
C322 C323 1.363 . S
C322 C327 1.379 . S
C322 N329 1.356 . S
C323 C322 1.363 . S
C323 C326 1.363 . S
N324 C326 1.356 . S
N324 H336 0.984 . S
N324 H337 0.985 . S
N325 C327 1.356 . S
N325 H330 0.984 . S
N325 H331 0.985 . S
C326 C320 1.379 . S
C326 C323 1.363 . S
C326 N324 1.356 . S
C327 C321 1.363 . S
C327 C322 1.379 . S
C327 N325 1.356 . S
N328 C320 1.356 . S
N328 H334 0.984 . S
N328 H335 0.984 . S
N329 C322 1.356 . S
N329 H332 0.984 . S
N329 H333 0.985 . S
H330 N325 0.984 . S
H331 N325 0.985 . S
H332 N329 0.984 . S
H333 N329 0.985 . S
H334 N328 0.984 . S
H335 N328 0.984 . S
H336 N324 0.984 . S
H337 N324 0.985 . S
C338 C339 1.363 . S
C338 C344 1.379 . S
C338 N346 1.356 1_556 S
C339 C338 1.363 . S
C339 C345 1.363 . S
C340 C341 1.363 . S
C340 C345 1.379 . S
C340 N347 1.356 . S
C341 C340 1.363 . S
C341 C344 1.363 . S
N342 C344 1.356 . S
N342 H354 0.984 . S
N342 H355 0.985 . S
N343 C345 1.356 . S
N343 H348 0.984 . S
N343 H349 0.985 . S
C344 C338 1.379 . S
C344 C341 1.363 . S
C344 N342 1.356 . S
C345 C339 1.363 . S
C345 C340 1.379 . S
C345 N343 1.356 . S
N346 C338 1.356 1_554 S
N346 H352 0.984 . S
N346 H353 0.984 . S
N347 C340 1.356 . S
N347 H350 0.984 . S
N347 H351 0.985 . S
H348 N343 0.984 . S
H349 N343 0.985 . S
H350 N347 0.984 . S
H351 N347 0.985 . S
H352 N346 0.984 . S
H353 N346 0.984 . S
H354 N342 0.984 . S
H355 N342 0.985 . S
C356 C357 1.363 . S
C356 C362 1.379 . S
C356 N364 1.356 . S
C357 C356 1.363 . S
C357 C363 1.363 . S
C358 C359 1.363 . S
C358 C363 1.379 . S
C358 N365 1.356 . S
C359 C358 1.363 . S
C359 C362 1.363 . S
N360 C362 1.356 1_556 S
N360 H372 0.984 1_556 S
N360 H373 0.985 . S
N361 C363 1.356 . S
N361 H366 0.984 . S
N361 H367 0.985 . S
C362 C356 1.379 . S
C362 C359 1.363 . S
C362 N360 1.356 1_554 S
C363 C357 1.363 . S
C363 C358 1.379 . S
C363 N361 1.356 . S
N364 C356 1.356 . S
N364 H370 0.984 . S
N364 H371 0.984 . S
N365 C358 1.356 . S
N365 H368 0.984 1_554 S
N365 H369 0.985 . S
H366 N361 0.984 . S
H367 N361 0.985 . S
H368 N365 0.984 1_556 S
H369 N365 0.985 . S
H370 N364 0.984 . S
H371 N364 0.984 . S
H372 N360 0.984 1_554 S
H373 N360 0.985 . S
C374 C375 1.363 . S
C374 C380 1.379 . S
C374 N382 1.356 . S
C375 C374 1.363 . S
C375 C381 1.363 . S
C376 C377 1.363 . S
C376 C381 1.379 . S
C376 N383 1.356 . S
C377 C376 1.363 . S
C377 C380 1.363 . S
N378 C380 1.356 . S
N378 H390 0.984 . S
N378 H391 0.985 . S
N379 C381 1.356 . S
N379 H384 0.984 . S
N379 H385 0.985 . S
C380 C374 1.379 . S
C380 C377 1.363 . S
C380 N378 1.356 . S
C381 C375 1.363 . S
C381 C376 1.379 . S
C381 N379 1.356 . S
N382 C374 1.356 . S
N382 H388 0.984 . S
N382 H389 0.984 . S
N383 C376 1.356 . S
N383 H386 0.984 . S
N383 H387 0.985 . S
H384 N379 0.984 . S
H385 N379 0.985 . S
H386 N383 0.984 . S
H387 N383 0.985 . S
H388 N382 0.984 . S
H389 N382 0.984 . S
H390 N378 0.984 . S
H391 N378 0.985 . S
C392 C393 1.363 . S
C392 C398 1.379 . S
C392 N400 1.356 . S
C393 C392 1.363 . S
C393 C399 1.363 . S
C394 C395 1.363 . S
C394 C399 1.379 . S
C394 N401 1.356 . S
C395 C394 1.363 . S
C395 C398 1.363 . S
N396 C398 1.356 . S
N396 H408 0.984 . S
N396 H409 0.985 . S
N397 C399 1.356 . S
N397 H402 0.984 . S
N397 H403 0.985 . S
C398 C392 1.379 . S
C398 C395 1.363 . S
C398 N396 1.356 . S
C399 C393 1.363 . S
C399 C394 1.379 . S
C399 N397 1.356 . S
N400 C392 1.356 . S
N400 H406 0.984 . S
N400 H407 0.984 . S
N401 C394 1.356 . S
N401 H404 0.984 . S
N401 H405 0.985 . S
H402 N397 0.984 . S
H403 N397 0.985 . S
H404 N401 0.984 . S
H405 N401 0.985 . S
H406 N400 0.984 . S
H407 N400 0.984 . S
H408 N396 0.984 . S
H409 N396 0.985 . S
C410 C411 1.363 . S
C410 C416 1.379 . S
C410 N418 1.356 . S
C411 C410 1.363 . S
C411 C417 1.363 . S
C412 C413 1.363 . S
C412 C417 1.379 . S
C412 N419 1.356 . S
C413 C412 1.363 . S
C413 C416 1.363 . S
N414 C416 1.356 . S
N414 H426 0.984 . S
N414 H427 0.985 . S
N415 C417 1.356 . S
N415 H420 0.984 . S
N415 H421 0.985 . S
C416 C410 1.379 . S
C416 C413 1.363 . S
C416 N414 1.356 . S
C417 C411 1.363 . S
C417 C412 1.379 . S
C417 N415 1.356 . S
N418 C410 1.356 . S
N418 H424 0.984 . S
N418 H425 0.984 . S
N419 C412 1.356 . S
N419 H422 0.984 . S
N419 H423 0.985 . S
H420 N415 0.984 . S
H421 N415 0.985 . S
H422 N419 0.984 . S
H423 N419 0.985 . S
H424 N418 0.984 . S
H425 N418 0.984 . S
H426 N414 0.984 . S
H427 N414 0.985 . S
C428 C429 1.363 . S
C428 C434 1.379 . S
C428 N436 1.356 . S
C429 C428 1.363 . S
C429 C435 1.363 . S
C430 C431 1.363 . S
C430 C435 1.379 . S
C430 N437 1.356 . S
C431 C430 1.363 . S
C431 C434 1.363 . S
N432 C434 1.356 . S
N432 H444 0.984 . S
N432 H445 0.985 1_556 S
N433 C435 1.356 . S
N433 H438 0.984 . S
N433 H439 0.985 . S
C434 C428 1.379 . S
C434 C431 1.363 . S
C434 N432 1.356 . S
C435 C429 1.363 . S
C435 C430 1.379 . S
C435 N433 1.356 . S
N436 C428 1.356 . S
N436 H442 0.984 . S
N436 H443 0.984 . S
N437 C430 1.356 . S
N437 H440 0.984 1_556 S
N437 H441 0.985 . S
H438 N433 0.984 . S
H439 N433 0.985 . S
H440 N437 0.984 1_554 S
H441 N437 0.985 . S
H442 N436 0.984 . S
H443 N436 0.984 . S
H444 N432 0.984 . S
H445 N432 0.985 1_554 S
C446 C447 1.363 . S
C446 C452 1.379 . S
C446 N454 1.356 . S
C447 C446 1.363 . S
C447 C453 1.363 . S
C448 C449 1.363 . S
C448 C453 1.379 . S
C448 N455 1.356 . S
C449 C448 1.363 . S
C449 C452 1.363 . S
N450 C452 1.356 . S
N450 H462 0.984 . S
N450 H463 0.985 . S
N451 C453 1.356 1_556 S
N451 H456 0.984 . S
N451 H457 0.985 . S
C452 C446 1.379 . S
C452 C449 1.363 . S
C452 N450 1.356 . S
C453 C447 1.363 . S
C453 C448 1.379 . S
C453 N451 1.356 1_554 S
N454 C446 1.356 . S
N454 H460 0.984 . S
N454 H461 0.984 1_554 S
N455 C448 1.356 . S
N455 H458 0.984 . S
N455 H459 0.985 . S
H456 N451 0.984 . S
H457 N451 0.985 . S
H458 N455 0.984 . S
H459 N455 0.985 . S
H460 N454 0.984 . S
H461 N454 0.984 1_556 S
H462 N450 0.984 . S
H463 N450 0.985 . S
C464 C465 1.363 . S
C464 C470 1.379 . S
C464 N472 1.356 . S
C465 C464 1.363 . S
C465 C471 1.363 . S
C466 C467 1.363 . S
C466 C471 1.379 . S
C466 N473 1.356 . S
C467 C466 1.363 . S
C467 C470 1.363 . S
N468 C470 1.356 . S
N468 H480 0.984 . S
N468 H481 0.985 . S
N469 C471 1.356 . S
N469 H474 0.984 . S
N469 H475 0.985 . S
C470 C464 1.379 . S
C470 C467 1.363 . S
C470 N468 1.356 . S
C471 C465 1.363 . S
C471 C466 1.379 . S
C471 N469 1.356 . S
N472 C464 1.356 . S
N472 H478 0.984 . S
N472 H479 0.984 . S
N473 C466 1.356 . S
N473 H476 0.984 . S
N473 H477 0.985 . S
H474 N469 0.984 . S
H475 N469 0.985 . S
H476 N473 0.984 . S
H477 N473 0.985 . S
H478 N472 0.984 . S
H479 N472 0.984 . S
H480 N468 0.984 . S
H481 N468 0.985 . S
C482 C483 1.363 . S
C482 C488 1.379 . S
C482 N490 1.356 . S
C483 C482 1.363 . S
C483 C489 1.363 . S
C484 C485 1.363 . S
C484 C489 1.379 . S
C484 N491 1.356 1_554 S
C485 C484 1.363 . S
C485 C488 1.363 . S
N486 C488 1.356 . S
N486 H498 0.984 . S
N486 H499 0.985 . S
N487 C489 1.356 . S
N487 H492 0.984 . S
N487 H493 0.985 . S
C488 C482 1.379 . S
C488 C485 1.363 . S
C488 N486 1.356 . S
C489 C483 1.363 . S
C489 C484 1.379 . S
C489 N487 1.356 . S
N490 C482 1.356 . S
N490 H496 0.984 . S
N490 H497 0.984 . S
N491 C484 1.356 1_556 S
N491 H494 0.984 . S
N491 H495 0.985 . S
H492 N487 0.984 . S
H493 N487 0.985 . S
H494 N491 0.984 . S
H495 N491 0.985 . S
H496 N490 0.984 . S
H497 N490 0.984 . S
H498 N486 0.984 . S
H499 N486 0.985 . S
C500 C501 1.363 . S
C500 C506 1.379 . S
C500 N508 1.356 . S
C501 C500 1.363 . S
C501 C507 1.363 . S
C502 C503 1.363 . S
C502 C507 1.379 . S
C502 N509 1.356 . S
C503 C502 1.363 . S
C503 C506 1.363 . S
N504 C506 1.356 . S
N504 H516 0.984 . S
N504 H517 0.985 . S
N505 C507 1.356 . S
N505 H510 0.984 1_556 S
N505 H511 0.985 . S
C506 C500 1.379 . S
C506 C503 1.363 . S
C506 N504 1.356 . S
C507 C501 1.363 . S
C507 C502 1.379 . S
C507 N505 1.356 . S
N508 C500 1.356 . S
N508 H514 0.984 . S
N508 H515 0.984 1_556 S
N509 C502 1.356 . S
N509 H512 0.984 . S
N509 H513 0.985 . S
H510 N505 0.984 1_554 S
H511 N505 0.985 . S
H512 N509 0.984 . S
H513 N509 0.985 . S
H514 N508 0.984 . S
H515 N508 0.984 1_554 S
H516 N504 0.984 . S
H517 N504 0.985 . S
C518 C519 1.363 . S
C518 C524 1.379 . S
C518 N526 1.356 . S
C519 C518 1.363 . S
C519 C525 1.363 . S
C520 C521 1.363 . S
C520 C525 1.379 . S
C520 N527 1.356 . S
C521 C520 1.363 . S
C521 C524 1.363 . S
N522 C524 1.356 . S
N522 H534 0.984 . S
N522 H535 0.985 . S
N523 C525 1.356 . S
N523 H528 0.984 . S
N523 H529 0.985 . S
C524 C518 1.379 . S
C524 C521 1.363 . S
C524 N522 1.356 . S
C525 C519 1.363 . S
C525 C520 1.379 . S
C525 N523 1.356 . S
N526 C518 1.356 . S
N526 H532 0.984 . S
N526 H533 0.984 . S
N527 C520 1.356 . S
N527 H530 0.984 . S
N527 H531 0.985 . S
H528 N523 0.984 . S
H529 N523 0.985 . S
H530 N527 0.984 . S
H531 N527 0.985 . S
H532 N526 0.984 . S
H533 N526 0.984 . S
H534 N522 0.984 . S
H535 N522 0.985 . S
C536 C537 1.363 . S
C536 C542 1.379 . S
C536 N544 1.356 . S
C537 C536 1.363 . S
C537 C543 1.363 . S
C538 C539 1.363 . S
C538 C543 1.379 . S
C538 N545 1.356 . S
C539 C538 1.363 . S
C539 C542 1.363 . S
N540 C542 1.356 . S
N540 H552 0.984 . S
N540 H553 0.985 . S
N541 C543 1.356 . S
N541 H546 0.984 . S
N541 H547 0.985 . S
C542 C536 1.379 . S
C542 C539 1.363 . S
C542 N540 1.356 . S
C543 C537 1.363 . S
C543 C538 1.379 . S
C543 N541 1.356 . S
N544 C536 1.356 . S
N544 H550 0.984 . S
N544 H551 0.984 . S
N545 C538 1.356 . S
N545 H548 0.984 . S
N545 H549 0.985 . S
H546 N541 0.984 . S
H547 N541 0.985 . S
H548 N545 0.984 . S
H549 N545 0.985 . S
H550 N544 0.984 . S
H551 N544 0.984 . S
H552 N540 0.984 . S
H553 N540 0.985 . S
C554 C555 1.363 . S
C554 C560 1.379 . S
C554 N562 1.356 . S
C555 C554 1.363 . S
C555 C561 1.363 . S
C556 C557 1.363 . S
C556 C561 1.379 . S
C556 N563 1.356 . S
C557 C556 1.363 . S
C557 C560 1.363 . S
N558 C560 1.356 . S
N558 H570 0.984 . S
N558 H571 0.985 . S
N559 C561 1.356 . S
N559 H564 0.984 . S
N559 H565 0.985 . S
C560 C554 1.379 . S
C560 C557 1.363 . S
C560 N558 1.356 . S
C561 C555 1.363 . S
C561 C556 1.379 . S
C561 N559 1.356 . S
N562 C554 1.356 . S
N562 H568 0.984 . S
N562 H569 0.984 . S
N563 C556 1.356 . S
N563 H566 0.984 . S
N563 H567 0.985 . S
H564 N559 0.984 . S
H565 N559 0.985 . S
H566 N563 0.984 . S
H567 N563 0.985 . S
H568 N562 0.984 . S
H569 N562 0.984 . S
H570 N558 0.984 . S
H571 N558 0.985 . S
C572 C573 1.363 . S
C572 C578 1.379 . S
C572 N580 1.356 . S
C573 C572 1.363 . S
C573 C579 1.363 . S
C574 C575 1.363 . S
C574 C579 1.379 . S
C574 N581 1.356 . S
C575 C574 1.363 . S
C575 C578 1.363 . S
N576 C578 1.361 . S
N576 H588 0.987 . S
N576 H589 0.978 1_554 S
N577 C579 1.356 . S
N577 H582 0.984 . S
N577 H583 0.985 . S
C578 C572 1.379 . S
C578 C575 1.363 . S
C578 N576 1.361 . S
C579 C573 1.363 . S
C579 C574 1.379 . S
C579 N577 1.356 . S
N580 C572 1.356 . S
N580 H586 0.984 . S
N580 H587 0.984 . S
N581 C574 1.356 . S
N581 H584 0.984 1_554 S
N581 H585 0.985 . S
H582 N577 0.984 . S
H583 N577 0.985 . S
H584 N581 0.984 1_556 S
H585 N581 0.985 . S
H586 N580 0.984 . S
H587 N580 0.984 . S
H588 N576 0.987 . S
H589 N576 0.978 1_556 S
C590 C591 1.363 . S
C590 C596 1.379 . S
C590 N598 1.356 . S
C591 C590 1.363 . S
C591 C597 1.363 . S
C592 C593 1.363 . S
C592 C597 1.379 . S
C592 N599 1.356 . S
C593 C592 1.363 . S
C593 C596 1.363 . S
N594 C596 1.356 . S
N594 H606 0.984 . S
N594 H607 0.985 . S
N595 C597 1.356 . S
N595 H600 0.984 1_556 S
N595 H601 0.985 . S
C596 C590 1.379 . S
C596 C593 1.363 . S
C596 N594 1.356 . S
C597 C591 1.363 . S
C597 C592 1.379 . S
C597 N595 1.356 . S
N598 C590 1.356 . S
N598 H604 0.984 . S
N598 H605 0.984 1_556 S
N599 C592 1.356 . S
N599 H602 0.984 . S
N599 H603 0.985 . S
H600 N595 0.984 1_554 S
H601 N595 0.985 . S
H602 N599 0.984 . S
H603 N599 0.985 . S
H604 N598 0.984 . S
H605 N598 0.984 1_554 S
H606 N594 0.984 . S
H607 N594 0.985 . S
C608 C609 1.363 . S
C608 C614 1.379 . S
C608 N616 1.356 . S
C609 C608 1.363 . S
C609 C615 1.363 . S
C610 C611 1.363 . S
C610 C615 1.379 . S
C610 N617 1.356 . S
C611 C610 1.363 . S
C611 C614 1.363 . S
N612 C614 1.356 . S
N612 H624 0.984 . S
N612 H625 0.985 . S
N613 C615 1.356 . S
N613 H618 0.984 . S
N613 H619 0.985 . S
C614 C608 1.379 . S
C614 C611 1.363 . S
C614 N612 1.356 . S
C615 C609 1.363 . S
C615 C610 1.379 . S
C615 N613 1.356 . S
N616 C608 1.356 . S
N616 H622 0.984 . S
N616 H623 0.984 . S
N617 C610 1.356 . S
N617 H620 0.984 . S
N617 H621 0.985 . S
H618 N613 0.984 . S
H619 N613 0.985 . S
H620 N617 0.984 . S
H621 N617 0.985 . S
H622 N616 0.984 . S
H623 N616 0.984 . S
H624 N612 0.984 . S
H625 N612 0.985 . S
C626 C627 1.363 . S
C626 C632 1.379 . S
C626 N634 1.356 . S
C627 C626 1.363 . S
C627 C633 1.363 . S
C628 C629 1.363 . S
C628 C633 1.379 . S
C628 N635 1.356 . S
C629 C628 1.363 . S
C629 C632 1.363 . S
N630 C632 1.356 . S
N630 H642 0.984 . S
N630 H643 0.985 . S
N631 C633 1.356 . S
N631 H636 0.984 . S
N631 H637 0.985 . S
C632 C626 1.379 . S
C632 C629 1.363 . S
C632 N630 1.356 . S
C633 C627 1.363 . S
C633 C628 1.379 . S
C633 N631 1.356 . S
N634 C626 1.356 . S
N634 H640 0.984 . S
N634 H641 0.984 . S
N635 C628 1.356 . S
N635 H638 0.984 . S
N635 H639 0.985 . S
H636 N631 0.984 . S
H637 N631 0.985 . S
H638 N635 0.984 . S
H639 N635 0.985 . S
H640 N634 0.984 . S
H641 N634 0.984 . S
H642 N630 0.984 . S
H643 N630 0.985 . S
C644 C645 1.363 . S
C644 C650 1.379 . S
C644 N652 1.356 . S
C645 C644 1.363 . S
C645 C651 1.363 . S
C646 C647 1.363 . S
C646 C651 1.379 . S
C646 N653 1.356 . S
C647 C646 1.363 . S
C647 C650 1.363 . S
N648 C650 1.356 . S
N648 H660 0.984 . S
N648 H661 0.985 . S
N649 C651 1.356 . S
N649 H654 0.984 . S
N649 H655 0.985 . S
C650 C644 1.379 . S
C650 C647 1.363 . S
C650 N648 1.356 . S
C651 C645 1.363 . S
C651 C646 1.379 . S
C651 N649 1.356 . S
N652 C644 1.356 . S
N652 H658 0.984 . S
N652 H659 0.984 . S
N653 C646 1.356 . S
N653 H656 0.984 . S
N653 H657 0.985 . S
H654 N649 0.984 . S
H655 N649 0.985 . S
H656 N653 0.984 . S
H657 N653 0.985 . S
H658 N652 0.984 . S
H659 N652 0.984 . S
H660 N648 0.984 . S
H661 N648 0.985 . S
C662 C663 1.363 . S
C662 C668 1.379 1_655 S
C662 N670 1.356 . S
C663 C662 1.363 . S
C663 C669 1.363 . S
C664 C665 1.363 . S
C664 C669 1.379 1_455 S
C664 N671 1.356 1_556 S
C665 C664 1.363 . S
C665 C668 1.363 . S
N666 C668 1.356 . S
N666 H678 0.984 . S
N666 H679 0.985 . S
N667 C669 1.356 1_554 S
N667 H672 0.984 . S
N667 H673 0.985 . S
C668 C662 1.379 1_455 S
C668 C665 1.363 . S
C668 N666 1.356 . S
C669 C663 1.363 . S
C669 C664 1.379 1_655 S
C669 N667 1.356 1_556 S
N670 C662 1.356 . S
N670 H676 0.984 . S
N670 H677 0.984 . S
N671 C664 1.356 1_554 S
N671 H674 0.984 . S
N671 H675 0.985 . S
H672 N667 0.984 . S
H673 N667 0.985 . S
H674 N671 0.984 . S
H675 N671 0.985 . S
H676 N670 0.984 . S
H677 N670 0.984 . S
H678 N666 0.984 . S
H679 N666 0.985 . S
C680 C681 1.363 . S
C680 C686 1.379 . S
C680 N688 1.356 . S
C681 C680 1.363 . S
C681 C687 1.363 . S
C682 C683 1.363 . S
C682 C687 1.379 . S
C682 N689 1.356 . S
C683 C682 1.363 . S
C683 C686 1.363 . S
N684 C686 1.356 . S
N684 H696 0.984 . S
N684 H697 0.985 . S
N685 C687 1.356 . S
N685 H690 0.984 . S
N685 H691 0.985 . S
C686 C680 1.379 . S
C686 C683 1.363 . S
C686 N684 1.356 . S
C687 C681 1.363 . S
C687 C682 1.379 . S
C687 N685 1.356 . S
N688 C680 1.356 . S
N688 H694 0.984 . S
N688 H695 0.984 . S
N689 C682 1.356 . S
N689 H692 0.984 . S
N689 H693 0.985 . S
H690 N685 0.984 . S
H691 N685 0.985 . S
H692 N689 0.984 . S
H693 N689 0.985 . S
H694 N688 0.984 . S
H695 N688 0.984 . S
H696 N684 0.984 . S
H697 N684 0.985 . S
C698 C699 1.363 . S
C698 C704 1.379 1_455 S
C698 N706 1.356 . S
C699 C698 1.363 . S
C699 C705 1.363 . S
C700 C701 1.363 . S
C700 C705 1.379 1_655 S
C700 N707 1.356 . S
C701 C700 1.363 . S
C701 C704 1.363 . S
N702 C704 1.356 . S
N702 H714 0.984 . S
N702 H715 0.985 . S
N703 C705 1.356 . S
N703 H708 0.984 . S
N703 H709 0.985 . S
C704 C698 1.379 1_655 S
C704 C701 1.363 . S
C704 N702 1.356 . S
C705 C699 1.363 . S
C705 C700 1.379 1_455 S
C705 N703 1.356 . S
N706 C698 1.356 . S
N706 H712 0.984 . S
N706 H713 0.984 . S
N707 C700 1.356 . S
N707 H710 0.984 . S
N707 H711 0.985 . S
H708 N703 0.984 . S
H709 N703 0.985 . S
H710 N707 0.984 . S
H711 N707 0.985 . S
H712 N706 0.984 . S
H713 N706 0.984 . S
H714 N702 0.984 . S
H715 N702 0.985 . S
C716 C717 1.363 . S
C716 C722 1.379 . S
C716 N724 1.356 . S
C717 C716 1.363 . S
C717 C723 1.363 . S
C718 C719 1.363 . S
C718 C723 1.379 . S
C718 N725 1.356 . S
C719 C718 1.363 . S
C719 C722 1.363 . S
N720 C722 1.356 . S
N720 H732 0.984 . S
N720 H733 0.985 . S
N721 C723 1.356 . S
N721 H726 0.984 . S
N721 H727 0.985 . S
C722 C716 1.379 . S
C722 C719 1.363 . S
C722 N720 1.356 . S
C723 C717 1.363 . S
C723 C718 1.379 . S
C723 N721 1.356 . S
N724 C716 1.356 . S
N724 H730 0.984 . S
N724 H731 0.984 . S
N725 C718 1.356 . S
N725 H728 0.984 . S
N725 H729 0.985 . S
H726 N721 0.984 . S
H727 N721 0.985 . S
H728 N725 0.984 . S
H729 N725 0.985 . S
H730 N724 0.984 . S
H731 N724 0.984 . S
H732 N720 0.984 . S
H733 N720 0.985 . S
C734 C735 1.363 . S
C734 C740 1.379 . S
C734 N742 1.356 . S
C735 C734 1.363 . S
C735 C741 1.363 . S
C736 C737 1.363 . S
C736 C741 1.379 . S
C736 N743 1.356 . S
C737 C736 1.363 . S
C737 C740 1.363 . S
N738 C740 1.356 . S
N738 H750 0.984 . S
N738 H751 0.985 . S
N739 C741 1.356 . S
N739 H744 0.984 . S
N739 H745 0.985 . S
C740 C734 1.379 . S
C740 C737 1.363 . S
C740 N738 1.356 . S
C741 C735 1.363 . S
C741 C736 1.379 . S
C741 N739 1.356 . S
N742 C734 1.356 . S
N742 H748 0.984 . S
N742 H749 0.984 . S
N743 C736 1.356 . S
N743 H746 0.984 . S
N743 H747 0.985 . S
H744 N739 0.984 . S
H745 N739 0.985 . S
H746 N743 0.984 . S
H747 N743 0.985 . S
H748 N742 0.984 . S
H749 N742 0.984 . S
H750 N738 0.984 . S
H751 N738 0.985 . S
C752 C753 1.363 . S
C752 C758 1.379 . S
C752 N760 1.356 . S
C753 C752 1.363 . S
C753 C759 1.363 . S
C754 C755 1.363 . S
C754 C759 1.379 . S
C754 N761 1.356 . S
C755 C754 1.363 . S
C755 C758 1.363 . S
N756 C758 1.356 . S
N756 H768 0.984 . S
N756 H769 0.985 . S
N757 C759 1.356 . S
N757 H762 0.984 . S
N757 H763 0.985 . S
C758 C752 1.379 . S
C758 C755 1.363 . S
C758 N756 1.356 . S
C759 C753 1.363 . S
C759 C754 1.379 . S
C759 N757 1.356 . S
N760 C752 1.356 . S
N760 H766 0.984 . S
N760 H767 0.984 . S
N761 C754 1.356 . S
N761 H764 0.984 . S
N761 H765 0.985 . S
H762 N757 0.984 . S
H763 N757 0.985 . S
H764 N761 0.984 . S
H765 N761 0.985 . S
H766 N760 0.984 . S
H767 N760 0.984 . S
H768 N756 0.984 . S
H769 N756 0.985 . S
C770 C771 1.363 . S
C770 C776 1.379 . S
C770 N778 1.356 . S
C771 C770 1.363 . S
C771 C777 1.363 . S
C772 C773 1.363 . S
C772 C777 1.379 . S
C772 N779 1.356 . S
C773 C772 1.363 . S
C773 C776 1.363 . S
N774 C776 1.356 . S
N774 H786 0.984 . S
N774 H787 0.985 . S
N775 C777 1.356 . S
N775 H780 0.984 . S
N775 H781 0.985 . S
C776 C770 1.379 . S
C776 C773 1.363 . S
C776 N774 1.356 . S
C777 C771 1.363 . S
C777 C772 1.379 . S
C777 N775 1.356 . S
N778 C770 1.356 . S
N778 H784 0.984 . S
N778 H785 0.984 . S
N779 C772 1.356 . S
N779 H782 0.984 . S
N779 H783 0.985 . S
H780 N775 0.984 . S
H781 N775 0.985 . S
H782 N779 0.984 . S
H783 N779 0.985 . S
H784 N778 0.984 . S
H785 N778 0.984 . S
H786 N774 0.984 . S
H787 N774 0.985 . S
C788 C789 1.363 . S
C788 C794 1.379 . S
C788 N796 1.356 . S
C789 C788 1.363 . S
C789 C795 1.363 . S
C790 C791 1.363 . S
C790 C795 1.379 . S
C790 N797 1.356 . S
C791 C790 1.363 . S
C791 C794 1.363 . S
N792 C794 1.356 . S
N792 H804 0.984 . S
N792 H805 0.985 . S
N793 C795 1.356 . S
N793 H798 0.984 . S
N793 H799 0.985 . S
C794 C788 1.379 . S
C794 C791 1.363 . S
C794 N792 1.356 . S
C795 C789 1.363 . S
C795 C790 1.379 . S
C795 N793 1.356 . S
N796 C788 1.356 . S
N796 H802 0.984 . S
N796 H803 0.984 . S
N797 C790 1.356 . S
N797 H800 0.984 . S
N797 H801 0.985 . S
H798 N793 0.984 . S
H799 N793 0.985 . S
H800 N797 0.984 . S
H801 N797 0.985 . S
H802 N796 0.984 . S
H803 N796 0.984 . S
H804 N792 0.984 . S
H805 N792 0.985 . S
C806 C807 1.363 . S
C806 C812 1.379 . S
C806 N814 1.356 . S
C807 C806 1.363 . S
C807 C813 1.363 . S
C808 C809 1.363 . S
C808 C813 1.379 . S
C808 N815 1.356 . S
C809 C808 1.363 . S
C809 C812 1.363 . S
N810 C812 1.356 . S
N810 H822 0.984 . S
N810 H823 0.985 . S
N811 C813 1.356 . S
N811 H816 0.984 . S
N811 H817 0.985 . S
C812 C806 1.379 . S
C812 C809 1.363 . S
C812 N810 1.356 . S
C813 C807 1.363 . S
C813 C808 1.379 . S
C813 N811 1.356 . S
N814 C806 1.356 . S
N814 H820 0.984 . S
N814 H821 0.984 . S
N815 C808 1.356 . S
N815 H818 0.984 . S
N815 H819 0.985 . S
H816 N811 0.984 . S
H817 N811 0.985 . S
H818 N815 0.984 . S
H819 N815 0.985 . S
H820 N814 0.984 . S
H821 N814 0.984 . S
H822 N810 0.984 . S
H823 N810 0.985 . S
C824 C825 1.363 . S
C824 C830 1.379 1_655 S
C824 N832 1.356 . S
C825 C824 1.363 . S
C825 C831 1.363 1_556 S
C826 C827 1.363 1_554 S
C826 C831 1.379 1_455 S
C826 N833 1.356 . S
C827 C826 1.363 1_556 S
C827 C830 1.363 . S
N828 C830 1.356 . S
N828 H840 0.984 . S
N828 H841 0.985 . S
N829 C831 1.356 . S
N829 H834 0.984 . S
N829 H835 0.985 . S
C830 C824 1.379 1_455 S
C830 C827 1.363 . S
C830 N828 1.356 . S
C831 C825 1.363 1_554 S
C831 C826 1.379 1_655 S
C831 N829 1.356 . S
N832 C824 1.356 . S
N832 H838 0.984 . S
N832 H839 0.984 . S
N833 C826 1.356 . S
N833 H836 0.984 . S
N833 H837 0.985 . S
H834 N829 0.984 . S
H835 N829 0.985 . S
H836 N833 0.984 . S
H837 N833 0.985 . S
H838 N832 0.984 . S
H839 N832 0.984 . S
H840 N828 0.984 . S
H841 N828 0.985 . S
C842 C843 1.363 . S
C842 C848 1.379 . S
C842 N850 1.356 . S
C843 C842 1.363 . S
C843 C849 1.363 . S
C844 C845 1.363 . S
C844 C849 1.379 . S
C844 N851 1.356 . S
C845 C844 1.363 . S
C845 C848 1.363 . S
N846 C848 1.356 . S
N846 H858 0.984 . S
N846 H859 0.985 . S
N847 C849 1.356 . S
N847 H852 0.984 . S
N847 H853 0.985 . S
C848 C842 1.379 . S
C848 C845 1.363 . S
C848 N846 1.356 . S
C849 C843 1.363 . S
C849 C844 1.379 . S
C849 N847 1.356 . S
N850 C842 1.356 . S
N850 H856 0.984 . S
N850 H857 0.984 . S
N851 C844 1.356 . S
N851 H854 0.984 . S
N851 H855 0.985 . S
H852 N847 0.984 . S
H853 N847 0.985 . S
H854 N851 0.984 . S
H855 N851 0.985 . S
H856 N850 0.984 . S
H857 N850 0.984 . S
H858 N846 0.984 . S
H859 N846 0.985 . S
C860 C861 1.363 . S
C860 C866 1.379 . S
C860 N868 1.356 . S
C861 C860 1.363 . S
C861 C867 1.363 . S
C862 C863 1.363 . S
C862 C867 1.379 . S
C862 N869 1.356 . S
C863 C862 1.363 . S
C863 C866 1.363 . S
N864 C866 1.356 . S
N864 H876 0.984 . S
N864 H877 0.985 . S
N865 C867 1.356 . S
N865 H870 0.984 . S
N865 H871 0.985 . S
C866 C860 1.379 . S
C866 C863 1.363 . S
C866 N864 1.356 . S
C867 C861 1.363 . S
C867 C862 1.379 . S
C867 N865 1.356 . S
N868 C860 1.356 . S
N868 H874 0.984 . S
N868 H875 0.984 . S
N869 C862 1.356 . S
N869 H872 0.984 . S
N869 H873 0.985 . S
H870 N865 0.984 . S
H871 N865 0.985 . S
H872 N869 0.984 . S
H873 N869 0.985 . S
H874 N868 0.984 . S
H875 N868 0.984 . S
H876 N864 0.984 . S
H877 N864 0.985 . S
C878 C879 1.363 1_556 S
C878 C884 1.379 1_455 S
C878 N886 1.356 . S
C879 C878 1.363 1_554 S
C879 C885 1.363 . S
C880 C881 1.363 . S
C880 C885 1.379 1_655 S
C880 N887 1.356 . S
C881 C880 1.363 . S
C881 C884 1.363 1_554 S
N882 C884 1.356 . S
N882 H894 0.984 . S
N882 H895 0.985 . S
N883 C885 1.356 . S
N883 H888 0.984 . S
N883 H889 0.985 . S
C884 C878 1.379 1_655 S
C884 C881 1.363 1_556 S
C884 N882 1.356 . S
C885 C879 1.363 . S
C885 C880 1.379 1_455 S
C885 N883 1.356 . S
N886 C878 1.356 . S
N886 H892 0.984 . S
N886 H893 0.984 . S
N887 C880 1.356 . S
N887 H890 0.984 . S
N887 H891 0.985 . S
H888 N883 0.984 . S
H889 N883 0.985 . S
H890 N887 0.984 . S
H891 N887 0.985 . S
H892 N886 0.984 . S
H893 N886 0.984 . S
H894 N882 0.984 . S
H895 N882 0.985 . S
C896 C897 1.363 . S
C896 C902 1.379 . S
C896 N904 1.356 . S
C897 C896 1.363 . S
C897 C903 1.363 1_554 S
C898 C899 1.363 . S
C898 C903 1.379 . S
C898 N905 1.356 . S
C899 C898 1.363 . S
C899 C902 1.363 1_556 S
N900 C902 1.356 . S
N900 H912 0.984 . S
N900 H913 0.985 1_554 S
N901 C903 1.356 . S
N901 H906 0.984 1_556 S
N901 H907 0.985 . S
C902 C896 1.379 . S
C902 C899 1.363 1_554 S
C902 N900 1.356 . S
C903 C897 1.363 1_556 S
C903 C898 1.379 . S
C903 N901 1.356 . S
N904 C896 1.356 . S
N904 H910 0.984 . S
N904 H911 0.984 . S
N905 C898 1.356 . S
N905 H908 0.984 . S
N905 H909 0.985 . S
H906 N901 0.984 1_554 S
H907 N901 0.985 . S
H908 N905 0.984 . S
H909 N905 0.985 . S
H910 N904 0.984 . S
H911 N904 0.984 . S
H912 N900 0.984 . S
H913 N900 0.985 1_556 S
C914 C915 1.363 . S
C914 C920 1.379 . S
C914 N922 1.356 . S
C915 C914 1.363 . S
C915 C921 1.363 . S
C916 C917 1.363 . S
C916 C921 1.379 . S
C916 N923 1.356 . S
C917 C916 1.363 . S
C917 C920 1.363 . S
N918 C920 1.356 . S
N918 H930 0.984 . S
N918 H931 0.985 . S
N919 C921 1.356 . S
N919 H924 0.984 . S
N919 H925 0.985 . S
C920 C914 1.379 . S
C920 C917 1.363 . S
C920 N918 1.356 . S
C921 C915 1.363 . S
C921 C916 1.379 . S
C921 N919 1.356 . S
N922 C914 1.356 . S
N922 H928 0.984 . S
N922 H929 0.984 . S
N923 C916 1.356 . S
N923 H926 0.984 . S
N923 H927 0.985 . S
H924 N919 0.984 . S
H925 N919 0.985 . S
H926 N923 0.984 . S
H927 N923 0.985 . S
H928 N922 0.984 . S
H929 N922 0.984 . S
H930 N918 0.984 . S
H931 N918 0.985 . S
C932 C933 1.363 . S
C932 C938 1.379 . S
C932 N940 1.356 . S
C933 C932 1.363 . S
C933 C939 1.363 . S
C934 C935 1.363 . S
C934 C939 1.379 . S
C934 N941 1.356 . S
C935 C934 1.363 . S
C935 C938 1.363 . S
N936 C938 1.356 . S
N936 H948 0.984 . S
N936 H949 0.985 . S
N937 C939 1.356 . S
N937 H942 0.984 . S
N937 H943 0.985 . S
C938 C932 1.379 . S
C938 C935 1.363 . S
C938 N936 1.356 . S
C939 C933 1.363 . S
C939 C934 1.379 . S
C939 N937 1.356 . S
N940 C932 1.356 . S
N940 H946 0.984 . S
N940 H947 0.984 . S
N941 C934 1.356 . S
N941 H944 0.984 . S
N941 H945 0.985 . S
H942 N937 0.984 . S
H943 N937 0.985 . S
H944 N941 0.984 . S
H945 N941 0.985 . S
H946 N940 0.984 . S
H947 N940 0.984 . S
H948 N936 0.984 . S
H949 N936 0.985 . S
C950 C951 1.363 . S
C950 C956 1.379 . S
C950 N958 1.356 . S
C951 C950 1.363 . S
C951 C957 1.363 . S
C952 C953 1.363 . S
C952 C957 1.379 . S
C952 N959 1.356 . S
C953 C952 1.363 . S
C953 C956 1.363 . S
N954 C956 1.356 . S
N954 H966 0.984 . S
N954 H967 0.985 . S
N955 C957 1.356 . S
N955 H960 0.984 . S
N955 H961 0.985 . S
C956 C950 1.379 . S
C956 C953 1.363 . S
C956 N954 1.356 . S
C957 C951 1.363 . S
C957 C952 1.379 . S
C957 N955 1.356 . S
N958 C950 1.356 . S
N958 H964 0.984 . S
N958 H965 0.984 . S
N959 C952 1.356 . S
N959 H962 0.984 . S
N959 H963 0.985 . S
H960 N955 0.984 . S
H961 N955 0.985 . S
H962 N959 0.984 . S
H963 N959 0.985 . S
H964 N958 0.984 . S
H965 N958 0.984 . S
H966 N954 0.984 . S
H967 N954 0.985 . S
C968 C969 1.363 . S
C968 C974 1.379 . S
C968 N976 1.356 . S
C969 C968 1.363 . S
C969 C975 1.363 1_554 S
C970 C971 1.363 . S
C970 C975 1.379 . S
C970 N977 1.356 . S
C971 C970 1.363 . S
C971 C974 1.363 1_556 S
N972 C974 1.356 . S
N972 H984 0.984 . S
N972 H985 0.985 1_554 S
N973 C975 1.356 . S
N973 H978 0.984 1_556 S
N973 H979 0.985 . S
C974 C968 1.379 . S
C974 C971 1.363 1_554 S
C974 N972 1.356 . S
C975 C969 1.363 1_556 S
C975 C970 1.379 . S
C975 N973 1.356 . S
N976 C968 1.356 . S
N976 H982 0.984 . S
N976 H983 0.984 . S
N977 C970 1.356 . S
N977 H980 0.984 . S
N977 H981 0.985 . S
H978 N973 0.984 1_554 S
H979 N973 0.985 . S
H980 N977 0.984 . S
H981 N977 0.985 . S
H982 N976 0.984 . S
H983 N976 0.984 . S
H984 N972 0.984 . S
H985 N972 0.985 1_556 S
C986 C987 1.363 . S
C986 C992 1.379 . S
C986 N994 1.356 . S
C987 C986 1.363 . S
C987 C993 1.363 . S
C988 C989 1.363 . S
C988 C993 1.379 . S
C988 N995 1.356 . S
C989 C988 1.363 . S
C989 C992 1.363 . S
N990 C992 1.356 . S
N990 H1002 0.984 . S
N990 H1003 0.985 . S
N991 C993 1.356 . S
N991 H996 0.984 . S
N991 H997 0.985 . S
C992 C986 1.379 . S
C992 C989 1.363 . S
C992 N990 1.356 . S
C993 C987 1.363 . S
C993 C988 1.379 . S
C993 N991 1.356 . S
N994 C986 1.356 . S
N994 H1000 0.984 . S
N994 H1001 0.984 . S
N995 C988 1.356 . S
N995 H998 0.984 . S
N995 H999 0.985 . S
H996 N991 0.984 . S
H997 N991 0.985 . S
H998 N995 0.984 . S
H999 N995 0.985 . S
H1000 N994 0.984 . S
H1001 N994 0.984 . S
H1002 N990 0.984 . S
H1003 N990 0.985 . S
C1004 C1005 1.363 . S
C1004 C1010 1.379 . S
C1004 N1012 1.356 . S
C1005 C1004 1.363 . S
C1005 C1011 1.363 . S
C1006 C1007 1.363 . S
C1006 C1011 1.379 . S
C1006 N1013 1.356 . S
C1007 C1006 1.363 . S
C1007 C1010 1.363 . S
N1008 C1010 1.356 . S
N1008 H1020 0.984 . S
N1008 H1021 0.985 . S
N1009 C1011 1.356 . S
N1009 H1014 0.984 . S
N1009 H1015 0.985 . S
C1010 C1004 1.379 . S
C1010 C1007 1.363 . S
C1010 N1008 1.356 . S
C1011 C1005 1.363 . S
C1011 C1006 1.379 . S
C1011 N1009 1.356 . S
N1012 C1004 1.356 . S
N1012 H1018 0.984 . S
N1012 H1019 0.984 . S
N1013 C1006 1.356 . S
N1013 H1016 0.984 . S
N1013 H1017 0.985 . S
H1014 N1009 0.984 . S
H1015 N1009 0.985 . S
H1016 N1013 0.984 . S
H1017 N1013 0.985 . S
H1018 N1012 0.984 . S
H1019 N1012 0.984 . S
H1020 N1008 0.984 . S
H1021 N1008 0.985 . S
C1022 C1023 1.363 . S
C1022 C1028 1.379 . S
C1022 N1030 1.356 . S
C1023 C1022 1.363 . S
C1023 C1029 1.363 . S
C1024 C1025 1.363 . S
C1024 C1029 1.379 . S
C1024 N1031 1.356 . S
C1025 C1024 1.363 . S
C1025 C1028 1.363 . S
N1026 C1028 1.356 . S
N1026 H1038 0.984 . S
N1026 H1039 0.985 . S
N1027 C1029 1.356 . S
N1027 H1032 0.984 . S
N1027 H1033 0.985 . S
C1028 C1022 1.379 . S
C1028 C1025 1.363 . S
C1028 N1026 1.356 . S
C1029 C1023 1.363 . S
C1029 C1024 1.379 . S
C1029 N1027 1.356 . S
N1030 C1022 1.356 . S
N1030 H1036 0.984 . S
N1030 H1037 0.984 . S
N1031 C1024 1.356 . S
N1031 H1034 0.984 . S
N1031 H1035 0.985 . S
H1032 N1027 0.984 . S
H1033 N1027 0.985 . S
H1034 N1031 0.984 . S
H1035 N1031 0.985 . S
H1036 N1030 0.984 . S
H1037 N1030 0.984 . S
H1038 N1026 0.984 . S
H1039 N1026 0.985 . S
C1040 C1041 1.363 . S
C1040 C1046 1.379 1_565 S
C1040 N1048 1.356 . S
C1041 C1040 1.363 . S
C1041 C1047 1.363 . S
C1042 C1043 1.363 . S
C1042 C1047 1.379 1_545 S
C1042 N1049 1.356 . S
C1043 C1042 1.363 . S
C1043 C1046 1.363 . S
N1044 C1046 1.356 . S
N1044 H1056 0.984 . S
N1044 H1057 0.985 . S
N1045 C1047 1.356 . S
N1045 H1050 0.984 . S
N1045 H1051 0.985 . S
C1046 C1040 1.379 1_545 S
C1046 C1043 1.363 . S
C1046 N1044 1.356 . S
C1047 C1041 1.363 . S
C1047 C1042 1.379 1_565 S
C1047 N1045 1.356 . S
N1048 C1040 1.356 . S
N1048 H1054 0.984 . S
N1048 H1055 0.984 . S
N1049 C1042 1.356 . S
N1049 H1052 0.984 . S
N1049 H1053 0.985 . S
H1050 N1045 0.984 . S
H1051 N1045 0.985 . S
H1052 N1049 0.984 . S
H1053 N1049 0.985 . S
H1054 N1048 0.984 . S
H1055 N1048 0.984 . S
H1056 N1044 0.984 . S
H1057 N1044 0.985 . S
C1058 C1059 1.363 . S
C1058 C1064 1.379 . S
C1058 N1066 1.356 . S
C1059 C1058 1.363 . S
C1059 C1065 1.363 . S
C1060 C1061 1.363 . S
C1060 C1065 1.379 . S
C1060 N1067 1.356 . S
C1061 C1060 1.363 . S
C1061 C1064 1.363 . S
N1062 C1064 1.356 . S
N1062 H1074 0.984 . S
N1062 H1075 0.985 . S
N1063 C1065 1.356 . S
N1063 H1068 0.984 . S
N1063 H1069 0.985 . S
C1064 C1058 1.379 . S
C1064 C1061 1.363 . S
C1064 N1062 1.356 . S
C1065 C1059 1.363 . S
C1065 C1060 1.379 . S
C1065 N1063 1.356 . S
N1066 C1058 1.356 . S
N1066 H1072 0.984 . S
N1066 H1073 0.984 . S
N1067 C1060 1.356 . S
N1067 H1070 0.984 . S
N1067 H1071 0.985 . S
H1068 N1063 0.984 . S
H1069 N1063 0.985 . S
H1070 N1067 0.984 . S
H1071 N1067 0.985 . S
H1072 N1066 0.984 . S
H1073 N1066 0.984 . S
H1074 N1062 0.984 . S
H1075 N1062 0.985 . S
C1076 C1077 1.363 1_556 S
C1076 C1082 1.361 1_565 S
C1076 N1084 1.356 . S
C1077 C1076 1.363 1_554 S
C1077 C1083 1.378 . S
C1078 C1079 1.363 1_554 S
C1078 C1083 1.361 1_545 S
C1078 N1085 1.356 . S
C1079 C1078 1.363 1_556 S
C1079 C1082 1.378 . S
N1080 C1082 1.365 . S
N1080 H1092 0.984 1_545 S
N1080 H1093 0.985 . S
N1081 C1083 1.365 . S
N1081 H1086 0.984 . S
N1081 H1087 0.985 1_565 S
C1082 C1076 1.361 1_545 S
C1082 C1079 1.378 . S
C1082 N1080 1.365 . S
C1083 C1077 1.378 . S
C1083 C1078 1.361 1_565 S
C1083 N1081 1.365 . S
N1084 C1076 1.356 . S
N1084 H1090 0.984 . S
N1084 H1091 0.984 . S
N1085 C1078 1.356 . S
N1085 H1088 0.984 . S
N1085 H1089 0.985 . S
H1086 N1081 0.984 . S
H1087 N1081 0.985 1_545 S
H1088 N1085 0.984 . S
H1089 N1085 0.985 . S
H1090 N1084 0.984 . S
H1091 N1084 0.984 . S
H1092 N1080 0.984 1_565 S
H1093 N1080 0.985 . S
C1094 C1095 1.363 . S
C1094 C1100 1.379 . S
C1094 N1102 1.356 . S
C1095 C1094 1.363 . S
C1095 C1101 1.363 . S
C1096 C1097 1.363 . S
C1096 C1101 1.379 . S
C1096 N1103 1.356 . S
C1097 C1096 1.363 . S
C1097 C1100 1.363 . S
N1098 C1100 1.356 . S
N1098 H1110 0.984 . S
N1098 H1111 0.985 . S
N1099 C1101 1.356 . S
N1099 H1104 0.984 . S
N1099 H1105 0.985 . S
C1100 C1094 1.379 . S
C1100 C1097 1.363 . S
C1100 N1098 1.356 . S
C1101 C1095 1.363 . S
C1101 C1096 1.379 . S
C1101 N1099 1.356 . S
N1102 C1094 1.356 . S
N1102 H1108 0.984 . S
N1102 H1109 0.984 . S
N1103 C1096 1.356 . S
N1103 H1106 0.984 . S
N1103 H1107 0.985 . S
H1104 N1099 0.984 . S
H1105 N1099 0.985 . S
H1106 N1103 0.984 . S
H1107 N1103 0.985 . S
H1108 N1102 0.984 . S
H1109 N1102 0.984 . S
H1110 N1098 0.984 . S
H1111 N1098 0.985 . S
C1112 C1113 1.363 . S
C1112 C1118 1.379 1_565 S
C1112 N1120 1.356 . S
C1113 C1112 1.363 . S
C1113 C1119 1.363 . S
C1114 C1115 1.363 . S
C1114 C1119 1.379 1_545 S
C1114 N1121 1.356 . S
C1115 C1114 1.363 . S
C1115 C1118 1.363 . S
N1116 C1118 1.356 . S
N1116 H1128 0.984 . S
N1116 H1129 0.985 . S
N1117 C1119 1.356 . S
N1117 H1122 0.984 . S
N1117 H1123 0.985 . S
C1118 C1112 1.379 1_545 S
C1118 C1115 1.363 . S
C1118 N1116 1.356 . S
C1119 C1113 1.363 . S
C1119 C1114 1.379 1_565 S
C1119 N1117 1.356 . S
N1120 C1112 1.356 . S
N1120 H1126 0.984 . S
N1120 H1127 0.984 . S
N1121 C1114 1.356 . S
N1121 H1124 0.984 . S
N1121 H1125 0.985 . S
H1122 N1117 0.984 . S
H1123 N1117 0.985 . S
H1124 N1121 0.984 . S
H1125 N1121 0.985 . S
H1126 N1120 0.984 . S
H1127 N1120 0.984 . S
H1128 N1116 0.984 . S
H1129 N1116 0.985 . S
C1130 C1131 1.363 . S
C1130 C1136 1.379 . S
C1130 N1138 1.356 . S
C1131 C1130 1.363 . S
C1131 C1137 1.363 . S
C1132 C1133 1.363 . S
C1132 C1137 1.379 . S
C1132 N1139 1.356 . S
C1133 C1132 1.363 . S
C1133 C1136 1.363 . S
N1134 C1136 1.356 . S
N1134 H1146 0.984 . S
N1134 H1147 0.985 . S
N1135 C1137 1.356 . S
N1135 H1140 0.984 . S
N1135 H1141 0.985 . S
C1136 C1130 1.379 . S
C1136 C1133 1.363 . S
C1136 N1134 1.356 . S
C1137 C1131 1.363 . S
C1137 C1132 1.379 . S
C1137 N1135 1.356 . S
N1138 C1130 1.356 . S
N1138 H1144 0.984 . S
N1138 H1145 0.984 . S
N1139 C1132 1.356 . S
N1139 H1142 0.984 . S
N1139 H1143 0.985 . S
H1140 N1135 0.984 . S
H1141 N1135 0.985 . S
H1142 N1139 0.984 . S
H1143 N1139 0.985 . S
H1144 N1138 0.984 . S
H1145 N1138 0.984 . S
H1146 N1134 0.984 . S
H1147 N1134 0.985 . S
C1148 C1149 1.363 1_565 S
C1148 C1154 1.379 . S
C1148 N1156 1.356 1_565 S
C1149 C1148 1.363 1_545 S
C1149 C1155 1.363 1_556 S
C1150 C1151 1.363 1_545 S
C1150 C1155 1.379 . S
C1150 N1157 1.356 1_545 S
C1151 C1150 1.363 1_565 S
C1151 C1154 1.363 1_554 S
N1152 C1154 1.356 . S
N1152 H1164 0.984 . S
N1152 H1165 0.985 . S
N1153 C1155 1.356 . S
N1153 H1158 0.984 . S
N1153 H1159 0.985 . S
C1154 C1148 1.379 . S
C1154 C1151 1.363 1_556 S
C1154 N1152 1.356 . S
C1155 C1149 1.363 1_554 S
C1155 C1150 1.379 . S
C1155 N1153 1.356 . S
N1156 C1148 1.356 1_545 S
N1156 H1162 0.984 1_545 S
N1156 H1163 0.984 . S
N1157 C1150 1.356 1_565 S
N1157 H1160 0.984 . S
N1157 H1161 0.985 1_565 S
H1158 N1153 0.984 . S
H1159 N1153 0.985 . S
H1160 N1157 0.984 . S
H1161 N1157 0.985 1_545 S
H1162 N1156 0.984 1_565 S
H1163 N1156 0.984 . S
H1164 N1152 0.984 . S
H1165 N1152 0.985 . S
C1166 C1167 1.363 . S
C1166 C1172 1.379 . S
C1166 N1174 1.356 . S
C1167 C1166 1.363 . S
C1167 C1173 1.363 . S
C1168 C1169 1.363 . S
C1168 C1173 1.379 . S
C1168 N1175 1.356 . S
C1169 C1168 1.363 . S
C1169 C1172 1.363 . S
N1170 C1172 1.356 . S
N1170 H1182 0.984 . S
N1170 H1183 0.985 . S
N1171 C1173 1.356 . S
N1171 H1176 0.984 . S
N1171 H1177 0.985 . S
C1172 C1166 1.379 . S
C1172 C1169 1.363 . S
C1172 N1170 1.356 . S
C1173 C1167 1.363 . S
C1173 C1168 1.379 . S
C1173 N1171 1.356 . S
N1174 C1166 1.356 . S
N1174 H1180 0.984 . S
N1174 H1181 0.984 . S
N1175 C1168 1.356 . S
N1175 H1178 0.984 . S
N1175 H1179 0.985 . S
H1176 N1171 0.984 . S
H1177 N1171 0.985 . S
H1178 N1175 0.984 . S
H1179 N1175 0.985 . S
H1180 N1174 0.984 . S
H1181 N1174 0.984 . S
H1182 N1170 0.984 . S
H1183 N1170 0.985 . S
C321 C2 1.570 . S
C323 C1 1.570 . S
C339 C21 1.570 1_556 S
C341 C22 1.570 . S
C357 C41 1.469 . S
C359 C42 1.469 1_554 S
C375 C62 1.469 . S
C377 C61 1.469 . S
C393 C82 1.570 . S
C395 C81 1.570 . S
C411 C101 1.469 . S
C413 C102 1.469 . S
C429 C121 1.469 . S
C431 C122 1.469 1_556 S
C447 C141 1.570 1_554 S
C449 C142 1.570 . S
C465 C161 1.570 . S
C467 C162 1.570 . S
C483 C181 1.570 . S
C485 C182 1.570 1_554 S
C501 C201 1.469 1_556 S
C503 C202 1.469 . S
C519 C221 1.469 . S
C521 C222 1.469 . S
C537 C241 1.570 . S
C539 C242 1.570 . S
C555 C261 1.469 . S
C557 C262 1.469 . S
C573 C282 1.469 . S
C575 C281 1.469 1_554 S
C591 C302 1.570 1_556 S
C593 C301 1.570 . S
C609 C8 1.553 . S
C611 C239 1.609 . S
C627 C38 1.613 . S
C629 C319 1.613 . S
C645 C58 1.609 . S
C647 C189 1.553 . S
C663 C68 1.595 . S
C665 C269 1.595 . S
C681 C88 1.553 . S
C683 C279 1.609 . S
C699 C229 1.595 . S
C701 C108 1.595 . S
C717 C138 1.609 . S
C719 C309 1.553 . S
C735 C158 1.613 . S
C737 C199 1.613 . S
C753 C78 1.609 . S
C755 C169 1.553 . S
C771 C28 1.553 . S
C773 C219 1.609 . S
C789 C249 1.553 . S
C791 C118 1.609 . S
C807 C148 1.553 . S
C809 C299 1.609 . S
C825 C179 1.613 . S
C827 C98 1.613 . S
C843 C128 1.595 . S
C845 C209 1.595 . S
C861 C48 1.595 . S
C863 C289 1.595 . S
C879 C18 1.613 . S
C881 C259 1.613 . S
C897 C9 1.422 . S
C899 C89 1.422 . S
C915 C39 1.602 . S
C917 C109 1.602 . S
C933 C59 1.749 . S
C935 C139 1.749 . S
C951 C69 1.602 . S
C953 C159 1.602 . S
C969 C248 1.422 . S
C971 C168 1.422 . S
C987 C268 1.602 . S
C989 C198 1.602 . S
C1005 C218 1.749 . S
C1007 C298 1.749 . S
C1023 C318 1.602 . S
C1025 C228 1.602 . S
C1041 C29 1.422 . S
C1043 C149 1.422 . S
C1059 C99 1.602 . S
C1061 C49 1.602 . S
C1077 C119 1.749 . S
C1079 C79 1.749 . S
C1095 C19 1.602 . S
C1097 C129 1.602 . S
C1113 C308 1.422 . S
C1115 C188 1.422 . S
C1131 C258 1.602 . S
C1133 C208 1.602 . S
C1149 C278 1.749 . S
C1151 C238 1.749 . S
C1167 C288 1.602 . S
C1169 C178 1.602 . S
