# Generated by pormake.
# Topology umn, (4)-cn, num edge types: 1
# Building blocks:
#     Node 0, Type 0, BuildingBlock: QUQFOY_clean_sbu_1, # of connection points: 4
#     Node 1, Type 0, BuildingBlock: QUQFOY_clean_sbu_1, # of connection points: 4
#     Node 2, Type 0, BuildingBlock: QUQFOY_clean_sbu_1, # of connection points: 4
#     Node 3, Type 0, BuildingBlock: QUQFOY_clean_sbu_1, # of connection points: 4
#     Node 4, Type 0, BuildingBlock: QUQFOY_clean_sbu_1, # of connection points: 4
#     Node 5, Type 0, BuildingBlock: QUQFOY_clean_sbu_1, # of connection points: 4
#     Node 6, Type 0, BuildingBlock: QUQFOY_clean_sbu_1, # of connection points: 4
#     Node 7, Type 0, BuildingBlock: QUQFOY_clean_sbu_1, # of connection points: 4
#     Node 8, Type 0, BuildingBlock: QUQFOY_clean_sbu_1, # of connection points: 4
#     Node 9, Type 0, BuildingBlock: QUQFOY_clean_sbu_1, # of connection points: 4
#     Node 10, Type 0, BuildingBlock: QUQFOY_clean_sbu_1, # of connection points: 4
#     Node 11, Type 0, BuildingBlock: QUQFOY_clean_sbu_1, # of connection points: 4
#     Node 12, Type 0, BuildingBlock: QUQFOY_clean_sbu_1, # of connection points: 4
#     Node 13, Type 0, BuildingBlock: QUQFOY_clean_sbu_1, # of connection points: 4
#     Node 14, Type 0, BuildingBlock: QUQFOY_clean_sbu_1, # of connection points: 4
#     Node 15, Type 0, BuildingBlock: QUQFOY_clean_sbu_1, # of connection points: 4
#     Node 16, Type 0, BuildingBlock: QUQFOY_clean_sbu_1, # of connection points: 4
#     Node 17, Type 0, BuildingBlock: QUQFOY_clean_sbu_1, # of connection points: 4
#     Node 18, Type 0, BuildingBlock: QUQFOY_clean_sbu_1, # of connection points: 4
#     Node 19, Type 0, BuildingBlock: QUQFOY_clean_sbu_1, # of connection points: 4
#     Node 20, Type 0, BuildingBlock: QUQFOY_clean_sbu_1, # of connection points: 4
#     Node 21, Type 0, BuildingBlock: QUQFOY_clean_sbu_1, # of connection points: 4
#     Node 22, Type 0, BuildingBlock: QUQFOY_clean_sbu_1, # of connection points: 4
#     Node 23, Type 0, BuildingBlock: QUQFOY_clean_sbu_1, # of connection points: 4
#     Node 24, Type 0, BuildingBlock: QUQFOY_clean_sbu_1, # of connection points: 4
#     Node 25, Type 0, BuildingBlock: QUQFOY_clean_sbu_1, # of connection points: 4
#     Node 26, Type 0, BuildingBlock: QUQFOY_clean_sbu_1, # of connection points: 4
#     Node 27, Type 0, BuildingBlock: QUQFOY_clean_sbu_1, # of connection points: 4
#     Node 28, Type 0, BuildingBlock: QUQFOY_clean_sbu_1, # of connection points: 4
#     Node 29, Type 0, BuildingBlock: QUQFOY_clean_sbu_1, # of connection points: 4
#     Node 30, Type 0, BuildingBlock: QUQFOY_clean_sbu_1, # of connection points: 4
#     Node 31, Type 0, BuildingBlock: QUQFOY_clean_sbu_1, # of connection points: 4
#     Node 32, Type 0, BuildingBlock: QUQFOY_clean_sbu_1, # of connection points: 4
#     Node 33, Type 0, BuildingBlock: QUQFOY_clean_sbu_1, # of connection points: 4
#     Node 34, Type 0, BuildingBlock: QUQFOY_clean_sbu_1, # of connection points: 4
#     Node 35, Type 0, BuildingBlock: QUQFOY_clean_sbu_1, # of connection points: 4
#     Edge 36, Type (0, 0), None
#     Edge 37, Type (0, 0), None
#     Edge 38, Type (0, 0), None
#     Edge 39, Type (0, 0), None
#     Edge 40, Type (0, 0), None
#     Edge 41, Type (0, 0), None
#     Edge 42, Type (0, 0), None
#     Edge 43, Type (0, 0), None
#     Edge 44, Type (0, 0), None
#     Edge 45, Type (0, 0), None
#     Edge 46, Type (0, 0), None
#     Edge 47, Type (0, 0), None
#     Edge 48, Type (0, 0), None
#     Edge 49, Type (0, 0), None
#     Edge 50, Type (0, 0), None
#     Edge 51, Type (0, 0), None
#     Edge 52, Type (0, 0), None
#     Edge 53, Type (0, 0), None
#     Edge 54, Type (0, 0), None
#     Edge 55, Type (0, 0), None
#     Edge 56, Type (0, 0), None
#     Edge 57, Type (0, 0), None
#     Edge 58, Type (0, 0), None
#     Edge 59, Type (0, 0), None
#     Edge 60, Type (0, 0), None
#     Edge 61, Type (0, 0), None
#     Edge 62, Type (0, 0), None
#     Edge 63, Type (0, 0), None
#     Edge 64, Type (0, 0), None
#     Edge 65, Type (0, 0), None
#     Edge 66, Type (0, 0), None
#     Edge 67, Type (0, 0), None
#     Edge 68, Type (0, 0), None
#     Edge 69, Type (0, 0), None
#     Edge 70, Type (0, 0), None
#     Edge 71, Type (0, 0), None
#     Edge 72, Type (0, 0), None
#     Edge 73, Type (0, 0), None
#     Edge 74, Type (0, 0), None
#     Edge 75, Type (0, 0), None
#     Edge 76, Type (0, 0), None
#     Edge 77, Type (0, 0), None
#     Edge 78, Type (0, 0), None
#     Edge 79, Type (0, 0), None
#     Edge 80, Type (0, 0), None
#     Edge 81, Type (0, 0), None
#     Edge 82, Type (0, 0), None
#     Edge 83, Type (0, 0), None
#     Edge 84, Type (0, 0), None
#     Edge 85, Type (0, 0), None
#     Edge 86, Type (0, 0), None
#     Edge 87, Type (0, 0), None
#     Edge 88, Type (0, 0), None
#     Edge 89, Type (0, 0), None
#     Edge 90, Type (0, 0), None
#     Edge 91, Type (0, 0), None
#     Edge 92, Type (0, 0), None
#     Edge 93, Type (0, 0), None
#     Edge 94, Type (0, 0), None
#     Edge 95, Type (0, 0), None
#     Edge 96, Type (0, 0), None
#     Edge 97, Type (0, 0), None
#     Edge 98, Type (0, 0), None
#     Edge 99, Type (0, 0), None
#     Edge 100, Type (0, 0), None
#     Edge 101, Type (0, 0), None
#     Edge 102, Type (0, 0), None
#     Edge 103, Type (0, 0), None
#     Edge 104, Type (0, 0), None
#     Edge 105, Type (0, 0), None
#     Edge 106, Type (0, 0), None
#     Edge 107, Type (0, 0), None
# Relax obj value: 0.089
# Max RMSD: 0.115
# Mean RMSD: 0.115
data_MOF--net-umn--node1-QUQFOY_clean_sbu_1--edge1-none
_symmetry_space_group_name_H-M    P1
_symmetry_Int_Tables_number       1
_symmetry_cell_setting            triclinic
loop_
_symmetry_equiv_pos_as_xyz
'x, y, z'
_cell_length_a     42.783355
_cell_length_b     42.781228
_cell_length_c     16.248087
_cell_angle_alpha  90.006086
_cell_angle_beta   89.996977
_cell_angle_gamma 120.00278
loop_
_atom_site_label
_atom_site_type_symbol
_atom_site_fract_x
_atom_site_fract_y
_atom_site_fract_z
_atom_type_partial_charge
O0 O 0.3276 0.10937 0.4035 0.0
Cd1 Cd 0.31733 0.10825 0.28533 0.0
Cd2 Cd 0.37653 0.09647 0.271 0.0
O3 O 0.38497 0.12386 0.38428 0.0
O4 O 0.31596 0.15281 0.26005 0.0
O5 O 0.36145 0.14362 0.22627 0.0
C6 C 0.34893 0.16545 0.23469 0.0
C7 C 0.41338 0.0859 0.17366 0.0
C8 C 0.35853 0.11889 0.43128 0.0
C9 C 0.29628 0.03677 0.295 0.0
O10 O 0.33032 0.05087 0.29435 0.0
O11 O 0.28122 0.05418 0.26932 0.0
O12 O 0.4124 0.0783 0.25081 0.0
O13 O 0.39637 0.10251 0.15249 0.0
O14 O 0.93587 0.22728 0.40346 0.0
Cd15 Cd 0.93696 0.21814 0.28527 0.0
Cd16 Cd 0.94873 0.28912 0.271 0.0
O17 O 0.92138 0.27017 0.38432 0.0
O18 O 0.89239 0.17219 0.26 0.0
O19 O 0.90156 0.22688 0.22629 0.0
C20 C 0.87974 0.19254 0.23469 0.0
C21 C 0.95928 0.33653 0.17366 0.0
C22 C 0.92637 0.24869 0.43129 0.0
C23 C 1.00844 0.26858 0.29485 0.0
O24 O 0.99433 0.28851 0.29426 0.0
O25 O 0.99102 0.23611 0.26918 0.0
O26 O 0.96689 0.34316 0.25081 0.0
O27 O 0.94267 0.3029 0.15249 0.0
O28 O 0.81789 0.71757 0.40349 0.0
Cd29 Cd 0.82703 0.72783 0.28532 0.0
Cd30 Cd 0.75605 0.66862 0.27102 0.0
O31 O 0.77501 0.66019 0.38428 0.0
O32 O 0.87296 0.72919 0.26004 0.0
O33 O 0.81827 0.68369 0.22628 0.0
C34 C 0.85262 0.69621 0.2347 0.0
C35 C 0.70864 0.63178 0.17366 0.0
C36 C 0.79648 0.68665 0.43127 0.0
C37 C 0.7766 0.74888 0.295 0.0
O38 O 0.75667 0.71483 0.29437 0.0
O39 O 0.80907 0.76393 0.26931 0.0
O40 O 0.702 0.63274 0.25081 0.0
O41 O 0.74226 0.64879 0.15249 0.0
O42 O 0.1185 0.31857 0.21414 0.0
Cd43 Cd 0.11731 0.30827 0.3323 0.0
Cd44 Cd 0.10557 0.36751 0.34659 0.0
O45 O 0.13303 0.37596 0.2334 0.0
O46 O 0.16185 0.30687 0.35765 0.0
O47 O 0.15268 0.35239 0.39141 0.0
C48 C 0.1745 0.33985 0.38302 0.0
C49 C 0.09501 0.40435 0.44396 0.0
C50 C 0.12806 0.34951 0.18639 0.0
C51 C 0.04584 0.28727 0.32244 0.0
O52 O 0.05997 0.32132 0.3231 0.0
O53 O 0.06323 0.2722 0.34818 0.0
O54 O 0.08744 0.40341 0.3668 0.0
O55 O 0.11159 0.38731 0.46514 0.0
O56 O 0.72661 0.80889 0.21419 0.0
Cd57 Cd 0.73689 0.81803 0.33235 0.0
Cd58 Cd 0.67766 0.74705 0.34666 0.0
O59 O 0.66923 0.76602 0.23341 0.0
O60 O 0.73828 0.86398 0.35765 0.0
O61 O 0.69277 0.80929 0.39143 0.0
C62 C 0.7053 0.84364 0.38301 0.0
C63 C 0.64082 0.69964 0.44401 0.0
C64 C 0.69567 0.78749 0.18641 0.0
C65 C 0.75791 0.76758 0.32262 0.0
O66 O 0.72387 0.74766 0.32327 0.0
O67 O 0.77298 0.80006 0.34831 0.0
O68 O 0.64178 0.693 0.36685 0.0
O69 O 0.65784 0.73326 0.46519 0.0
O70 O 0.23627 0.92675 0.21412 0.0
Cd71 Cd 0.22711 0.92789 0.33228 0.0
Cd72 Cd 0.29809 0.93964 0.34666 0.0
O73 O 0.27914 0.91225 0.23339 0.0
O74 O 0.18115 0.88335 0.35754 0.0
O75 O 0.23582 0.8925 0.39137 0.0
C76 C 0.20148 0.8707 0.38293 0.0
C77 C 0.34551 0.95022 0.444 0.0
C78 C 0.25767 0.91723 0.18637 0.0
C79 C 0.27756 0.99936 0.32261 0.0
O80 O 0.29749 0.98524 0.32329 0.0
O81 O 0.24509 0.98196 0.34826 0.0
O82 O 0.35214 0.95781 0.36684 0.0
O83 O 0.31189 0.93361 0.46518 0.0
O84 O 0.72662 0.92677 0.71417 0.0
Cd85 Cd 0.73689 0.92789 0.83234 0.0
Cd86 Cd 0.67769 0.93967 0.84667 0.0
O87 O 0.66925 0.91228 0.73339 0.0
O88 O 0.73826 0.88333 0.85761 0.0
O89 O 0.69276 0.89252 0.8914 0.0
C90 C 0.70529 0.87069 0.88298 0.0
C91 C 0.64084 0.95024 0.94401 0.0
C92 C 0.69569 0.91725 0.68639 0.0
C93 C 0.75794 0.99938 0.82268 0.0
O94 O 0.7239 0.98527 0.82332 0.0
O95 O 0.773 0.98196 0.84835 0.0
O96 O 0.64181 0.95784 0.86686 0.0
O97 O 0.65785 0.93363 0.96519 0.0
O98 O 0.11836 0.80886 0.71421 0.0
Cd99 Cd 0.11726 0.81801 0.8324 0.0
Cd100 Cd 0.10549 0.74702 0.84667 0.0
O101 O 0.13284 0.76597 0.73335 0.0
O102 O 0.16183 0.86395 0.85767 0.0
O103 O 0.15266 0.80926 0.89138 0.0
C104 C 0.17448 0.84361 0.88298 0.0
C105 C 0.09494 0.69962 0.94401 0.0
C106 C 0.12785 0.78745 0.68638 0.0
C107 C 0.04578 0.76756 0.82282 0.0
O108 O 0.05989 0.74763 0.82341 0.0
O109 O 0.0632 0.80004 0.84848 0.0
O110 O 0.08733 0.69298 0.86686 0.0
O111 O 0.11155 0.73324 0.96518 0.0
O112 O 0.23633 0.31857 0.71418 0.0
Cd113 Cd 0.22719 0.30832 0.83235 0.0
Cd114 Cd 0.29817 0.36752 0.84665 0.0
O115 O 0.27921 0.37595 0.73339 0.0
O116 O 0.18126 0.30695 0.85763 0.0
O117 O 0.23595 0.35245 0.89139 0.0
C118 C 0.2016 0.33993 0.88296 0.0
C119 C 0.34558 0.40437 0.94402 0.0
C120 C 0.25774 0.3495 0.6864 0.0
C121 C 0.27762 0.28727 0.82267 0.0
O122 O 0.29755 0.32131 0.8233 0.0
O123 O 0.24515 0.27221 0.84836 0.0
O124 O 0.35222 0.4034 0.86686 0.0
O125 O 0.31196 0.38735 0.96518 0.0
O126 O 0.93573 0.71757 0.90353 0.0
Cd127 Cd 0.93691 0.72787 0.78537 0.0
Cd128 Cd 0.94865 0.66863 0.77108 0.0
O129 O 0.92119 0.66019 0.88427 0.0
O130 O 0.89237 0.72927 0.76002 0.0
O131 O 0.90154 0.68375 0.72626 0.0
C132 C 0.87973 0.69629 0.73465 0.0
C133 C 0.95921 0.63179 0.67371 0.0
C134 C 0.92616 0.68663 0.93128 0.0
C135 C 1.00838 0.74887 0.79523 0.0
O136 O 0.99425 0.71483 0.79457 0.0
O137 O 0.99099 0.76394 0.76949 0.0
O138 O 0.96678 0.63273 0.75087 0.0
O139 O 0.94263 0.64883 0.65253 0.0
O140 O 0.32761 0.22725 0.90348 0.0
Cd141 Cd 0.31733 0.21811 0.78532 0.0
Cd142 Cd 0.37656 0.28909 0.77101 0.0
O143 O 0.38499 0.27012 0.88426 0.0
O144 O 0.31594 0.17216 0.76002 0.0
O145 O 0.36145 0.22685 0.72624 0.0
C146 C 0.34892 0.1925 0.73466 0.0
C147 C 0.4134 0.3365 0.67366 0.0
C148 C 0.35855 0.24865 0.93126 0.0
C149 C 0.29631 0.26856 0.79505 0.0
O150 O 0.33035 0.28848 0.7944 0.0
O151 O 0.28124 0.23608 0.76936 0.0
O152 O 0.41244 0.34314 0.75082 0.0
O153 O 0.39638 0.30288 0.65248 0.0
O154 O 0.81795 0.10939 0.90355 0.0
Cd155 Cd 0.82711 0.10825 0.78539 0.0
Cd156 Cd 0.75613 0.0965 0.77101 0.0
O157 O 0.77508 0.12389 0.88428 0.0
O158 O 0.87307 0.1528 0.76013 0.0
O159 O 0.8184 0.14364 0.7263 0.0
C160 C 0.85274 0.16545 0.73474 0.0
C161 C 0.70871 0.08592 0.67367 0.0
C162 C 0.79655 0.11891 0.9313 0.0
C163 C 0.77666 0.03678 0.79506 0.0
O164 O 0.75673 0.0509 0.79438 0.0
O165 O 0.80913 0.05418 0.76941 0.0
O166 O 0.70208 0.07833 0.75083 0.0
O167 O 0.74233 0.10253 0.65249 0.0
O168 O 0.99434 0.44272 0.73681 0.0
Cd169 Cd 0.98405 0.44158 0.61866 0.0
Cd170 Cd 0.04328 0.42983 0.60431 0.0
O171 O 0.05171 0.45722 0.7176 0.0
O172 O 0.98262 0.48611 0.59341 0.0
O173 O 0.02815 0.47698 0.55957 0.0
C174 C 1.0156 0.49878 0.56802 0.0
C175 C 0.08011 0.41925 0.50696 0.0
C176 C 1.02527 0.45225 0.76459 0.0
C177 C 0.96304 0.37011 0.62838 0.0
O178 O 0.99707 0.38423 0.6277 0.0
O179 O 0.94796 0.38751 0.6027 0.0
O180 O 0.07915 0.41166 0.58411 0.0
O181 O 0.06311 0.43587 0.48578 0.0
O182 O 0.60246 0.56059 0.73681 0.0
Cd183 Cd 0.6036 0.55144 0.61865 0.0
Cd184 Cd 0.61536 0.62243 0.60434 0.0
O185 O 0.58795 0.60346 0.71759 0.0
O186 O 0.55904 0.5055 0.59337 0.0
O187 O 0.56822 0.56019 0.55958 0.0
C188 C 0.5464 0.52584 0.56801 0.0
C189 C 0.62593 0.66984 0.50699 0.0
C190 C 0.59293 0.58199 0.76459 0.0
C191 C 0.67507 0.60189 0.62837 0.0
O192 O 0.66095 0.62181 0.62772 0.0
O193 O 0.65766 0.56942 0.60268 0.0
O194 O 0.63353 0.67647 0.58415 0.0
O195 O 0.60932 0.63621 0.48581 0.0
O196 O 0.48458 0.0509 0.73681 0.0
Cd197 Cd 0.49373 0.06118 0.61865 0.0
Cd198 Cd 0.42274 1.00196 0.60431 0.0
O199 O 0.4417 0.99353 0.71758 0.0
O200 O 0.53967 0.06257 0.59339 0.0
O201 O 0.48499 1.01706 0.55958 0.0
C202 C 0.51934 0.02959 0.56801 0.0
C203 C 0.37532 0.96513 0.50697 0.0
C204 C 0.46317 0.01997 0.76458 0.0
C205 C 0.4433 0.08222 0.62834 0.0
O206 O 0.42337 0.04818 0.62768 0.0
O207 O 0.47577 0.09729 0.60267 0.0
O208 O 0.36869 0.96609 0.58413 0.0
O209 O 0.40894 0.98213 0.48579 0.0
O210 O 0.78506 0.6519 0.54751 0.0
Cd211 Cd 0.78394 0.64163 0.66567 0.0
Cd212 Cd 0.77217 0.70085 0.68 0.0
O213 O 0.79956 0.70928 0.56673 0.0
O214 O 0.8285 0.64026 0.69093 0.0
O215 O 0.81932 0.68576 0.72472 0.0
C216 C 0.84114 0.67324 0.71629 0.0
C217 C 0.7616 0.73769 0.77735 0.0
C218 C 0.79458 0.68283 0.51973 0.0
C219 C 0.71247 0.62059 0.65599 0.0
O220 O 0.72658 0.65463 0.65664 0.0
O221 O 0.72988 0.60553 0.68167 0.0
O222 O 0.754 0.73672 0.7002 0.0
O223 O 0.77821 0.72068 0.79853 0.0
O224 O 0.39328 0.14221 0.5475 0.0
Cd225 Cd 0.40356 0.15136 0.66567 0.0
Cd226 Cd 0.34434 0.08037 0.67999 0.0
O227 O 0.33591 0.09933 0.56673 0.0
O228 O 0.40495 0.1973 0.69094 0.0
O229 O 0.35944 0.14262 0.72474 0.0
C230 C 0.37197 0.17697 0.7163 0.0
C231 C 0.3075 0.03296 0.77733 0.0
C232 C 0.36235 0.1208 0.51973 0.0
C233 C 0.4246 0.10092 0.65596 0.0
O234 O 0.39056 0.081 0.65662 0.0
O235 O 0.43966 0.1334 0.68165 0.0
O236 O 0.30847 0.02633 0.70018 0.0
O237 O 0.32452 0.06658 0.79852 0.0
O238 O 0.90306 0.2601 0.54756 0.0
Cd239 Cd 0.89392 0.26123 0.66573 0.0
Cd240 Cd 0.9649 0.27301 0.68001 0.0
O241 O 0.94595 0.24563 0.56672 0.0
O242 O 0.84797 0.21668 0.691 0.0
O243 O 0.90265 0.22584 0.72478 0.0
C244 C 0.8683 0.20403 0.71637 0.0
C245 C 1.01231 0.28359 0.77736 0.0
C246 C 0.92446 0.25059 0.51975 0.0
C247 C 0.94434 0.33271 0.65602 0.0
O248 O 0.96428 0.3186 0.65666 0.0
O249 O 0.91188 0.3153 0.68171 0.0
O250 O 1.01895 0.2912 0.70021 0.0
O251 O 0.97869 0.26697 0.79853 0.0
O252 O 0.3933 0.26009 1.04748 0.0
Cd253 Cd 0.40358 0.26123 0.16565 0.0
Cd254 Cd 0.34436 0.27299 0.17998 0.0
O255 O 0.33593 0.24558 0.06671 0.0
O256 O 0.40496 0.21667 0.19095 0.0
O257 O 0.35946 0.22585 0.22473 0.0
C258 C 0.37198 0.20403 0.21631 0.0
C259 C 0.30751 0.28355 0.27733 0.0
C260 C 0.36236 0.25055 1.01971 0.0
C261 C 0.42461 0.3327 0.15596 0.0
O262 O 0.39057 0.31858 0.15661 0.0
O263 O 0.43967 0.3153 0.18164 0.0
O264 O 0.30848 0.29115 0.20018 0.0
O265 O 0.32453 0.26695 0.2985 0.0
O266 O 0.78509 0.14223 1.04752 0.0
Cd267 Cd 0.78396 0.15139 0.16569 0.0
Cd268 Cd 0.77219 0.0804 0.18002 0.0
O269 O 0.79959 0.09936 0.06677 0.0
O270 O 0.82852 0.19733 0.19098 0.0
O271 O 0.81934 0.14265 0.22476 0.0
C272 C 0.84116 0.17699 0.21634 0.0
C273 C 0.76162 0.03299 0.27736 0.0
C274 C 0.79462 0.12084 1.01976 0.0
C275 C 0.71248 0.10094 0.15599 0.0
O276 O 0.72659 0.08101 0.15664 0.0
O277 O 0.72989 0.13341 0.18166 0.0
O278 O 0.75402 0.02635 0.2002 0.0
O279 O 0.77822 0.06661 0.29854 0.0
O280 O 0.90286 0.65185 1.04748 0.0
Cd281 Cd 0.89374 0.64156 0.16565 0.0
Cd282 Cd 0.96471 0.7008 0.17994 0.0
O283 O 0.94571 0.70924 0.06675 0.0
O284 O 0.8478 0.64017 0.191 0.0
O285 O 0.90249 0.68568 0.22474 0.0
C286 C 0.86814 0.67315 0.21635 0.0
C287 C 1.01211 0.73765 0.27732 0.0
C288 C 0.92424 0.6828 1.01974 0.0
C289 C 0.94422 0.62057 0.15582 0.0
O290 O 0.96413 0.65461 0.15647 0.0
O291 O 0.91175 0.60549 0.18155 0.0
O292 O 1.01875 0.73671 0.20016 0.0
O293 O 0.97849 0.7206 0.29849 0.0
O294 O 0.60247 0.05092 0.23686 0.0
Cd295 Cd 0.6036 0.06119 0.11869 0.0
Cd296 Cd 0.61537 1.00198 0.10436 0.0
O297 O 0.58798 0.99355 0.21763 0.0
O298 O 0.55904 0.06257 0.0934 0.0
O299 O 0.56822 1.01707 0.05961 0.0
C300 C 0.5464 0.02959 0.06803 0.0
C301 C 0.62595 0.96515 1.007 0.0
C302 C 0.59296 0.01999 0.26463 0.0
C303 C 0.67508 0.08223 0.12837 0.0
O304 O 0.66097 0.04819 0.12772 0.0
O305 O 0.65767 0.0973 0.1027 0.0
O306 O 0.63354 0.96611 0.08416 0.0
O307 O 0.60933 0.98215 0.98583 0.0
O308 O 0.99421 0.56057 0.23681 0.0
Cd309 Cd 0.98397 0.55143 0.11863 0.0
Cd310 Cd 0.04318 0.62242 0.10434 0.0
O311 O 0.05158 0.60346 0.21764 0.0
O312 O 0.9826 0.5055 0.09333 0.0
O313 O 0.02811 0.56019 0.05962 0.0
C314 C 1.01558 0.52584 0.06801 0.0
C315 C 0.08003 0.66982 1.007 0.0
C316 C 1.02514 0.58199 0.26462 0.0
C317 C 0.96293 0.60188 0.12823 0.0
O318 O 0.99697 0.62181 0.12763 0.0
O319 O 0.94788 0.5694 0.10256 0.0
O320 O 0.07907 0.67646 0.08415 0.0
O321 O 0.06302 0.6362 0.98583 0.0
O322 O 0.48461 0.44272 0.23685 0.0
Cd323 Cd 0.49375 0.44158 0.11868 0.0
Cd324 Cd 0.42277 0.42982 0.10437 0.0
O325 O 0.44174 0.45722 0.21763 0.0
O326 O 0.53969 0.48615 0.09337 0.0
O327 O 0.485 0.47695 0.05961 0.0
C328 C 0.51934 0.49878 0.06802 0.0
C329 C 0.37537 0.41925 1.00701 0.0
C330 C 0.46321 0.45224 0.26463 0.0
C331 C 0.44331 0.37011 0.12836 0.0
O332 O 0.42338 0.38422 0.12772 0.0
O333 O 0.47578 0.38751 0.10268 0.0
O334 O 0.36873 0.41166 0.08416 0.0
O335 O 0.409 0.43586 0.98584 0.0
O336 O 0.66092 0.77605 0.07019 0.0
Cd337 Cd 0.65064 0.77492 0.95202 0.0
Cd338 Cd 0.70986 0.76316 0.93769 0.0
O339 O 0.71829 0.79056 1.05096 0.0
O340 O 0.64926 0.81947 0.92672 0.0
O341 O 0.69476 0.81029 0.89294 0.0
C342 C 0.68224 0.83211 0.90136 0.0
C343 C 0.7467 0.75259 0.84034 0.0
C344 C 0.69186 0.78559 0.09796 0.0
C345 C 0.62961 0.70344 0.9617 0.0
O346 O 0.66365 0.71756 0.96106 0.0
O347 O 0.61455 0.72085 0.93603 0.0
O348 O 0.74574 0.74499 0.9175 0.0
O349 O 0.72969 0.7692 0.81917 0.0
O350 O 0.26913 0.89391 0.07015 0.0
Cd351 Cd 0.27026 0.88476 0.95198 0.0
Cd352 Cd 0.28203 0.95574 0.93765 0.0
O353 O 0.25463 0.93678 1.0509 0.0
O354 O 0.2257 0.83881 0.92669 0.0
O355 O 0.23488 0.89349 0.89291 0.0
C356 C 0.21306 0.85915 0.90133 0.0
C357 C 0.29261 1.00315 0.84031 0.0
C358 C 0.2596 0.9153 0.09791 0.0
C359 C 0.34174 0.9352 0.96168 0.0
O360 O 0.32763 0.95513 0.96103 0.0
O361 O 0.32433 0.90273 0.936 0.0
O362 O 0.3002 1.00979 0.91747 0.0
O363 O 0.276 0.96953 0.81912 0.0
O364 O 0.15136 0.38429 0.07019 0.0
Cd365 Cd 0.16048 0.39458 0.95202 0.0
Cd366 Cd 0.0895 0.33534 0.93773 0.0
O367 O 0.10851 0.3269 1.05092 0.0
O368 O 0.20642 0.39597 0.92667 0.0
O369 O 0.15173 0.35046 0.89293 0.0
C370 C 0.18608 0.36299 0.90132 0.0
C371 C 0.04211 0.29851 0.84035 0.0
C372 C 0.12998 0.35335 0.09793 0.0
C373 C 0.11 0.41558 0.96184 0.0
O374 O 0.09008 0.38153 0.9612 0.0
O375 O 0.14247 0.43065 0.93611 0.0
O376 O 0.03547 0.29943 0.91751 0.0
O377 O 0.07574 0.31555 0.81918 0.0
O378 O 0.45175 0.98522 0.88081 0.0
Cd379 Cd 0.45062 0.97495 0.99897 0.0
Cd380 Cd 0.43885 0.03416 1.01332 0.0
O381 O 0.46624 0.0426 0.90005 0.0
O382 O 0.49518 0.97357 1.02426 0.0
O383 O 0.486 0.01907 1.05806 0.0
C384 C 0.50782 1.00655 1.04964 0.0
C385 C 0.42827 0.07099 0.11067 0.0
C386 C 0.46127 1.01615 0.85304 0.0
C387 C 0.37914 0.95391 0.9893 0.0
O388 O 0.39325 0.98795 0.98995 0.0
O389 O 0.39655 0.93884 1.01496 0.0
O390 O 0.42068 0.07004 1.03352 0.0
O391 O 0.44489 0.05399 0.13185 0.0
O392 O 0.06001 0.47557 0.88085 0.0
Cd393 Cd 0.07025 0.48471 0.99904 0.0
Cd394 Cd 1.01104 0.41372 1.01333 0.0
O395 O 1.00263 0.43268 0.90004 0.0
O396 O 0.07162 0.53065 1.02433 0.0
O397 O 1.02611 0.47596 1.05805 0.0
C398 C 0.03864 0.51031 1.04966 0.0
C399 C 0.97419 0.36632 0.11068 0.0
C400 C 0.02908 0.45416 0.85305 0.0
C401 C 0.09129 0.43426 0.98943 0.0
O402 O 0.05725 0.41433 0.99004 0.0
O403 O 0.10634 0.46674 1.0151 0.0
O404 O 0.97515 0.35968 1.03352 0.0
O405 O 0.9912 0.39995 0.13185 0.0
O406 O 0.56961 0.59342 0.88082 0.0
Cd407 Cd 0.56047 0.59456 0.99899 0.0
Cd408 Cd 0.63145 0.60632 1.01331 0.0
O409 O 0.61248 0.57892 0.90005 0.0
O410 O 0.51453 0.54999 1.02429 0.0
O411 O 0.56922 0.55919 1.05806 0.0
C412 C 0.53487 0.53736 1.04965 0.0
C413 C 0.67884 0.61689 0.11067 0.0
C414 C 0.59101 0.5839 0.85305 0.0
C415 C 0.61091 0.66604 0.98931 0.0
O416 O 0.63084 0.65192 0.98995 0.0
O417 O 0.57844 0.64863 1.01499 0.0
O418 O 0.68549 0.62448 1.03351 0.0
O419 O 0.64522 0.60028 0.13183 0.0
O420 O 0.05988 0.59342 0.38085 0.0
Cd421 Cd 0.07017 0.59457 0.49901 0.0
Cd422 Cd 1.01094 0.60631 0.51336 0.0
O423 O 1.0025 0.57892 0.40008 0.0
O424 O 0.0716 0.55003 0.52426 0.0
O425 O 1.02607 0.55916 0.5581 0.0
C426 C 0.03862 0.53737 0.54965 0.0
C427 C 0.97411 0.61689 0.61072 0.0
C428 C 0.02894 0.58389 0.35308 0.0
C429 C 0.09118 0.66603 0.48929 0.0
O430 O 0.05715 0.65191 0.48997 0.0
O431 O 0.10626 0.64864 0.51496 0.0
O432 O 0.97507 0.62448 0.53356 0.0
O433 O 0.99111 0.60028 0.63189 0.0
O434 O 0.45176 0.47555 0.38086 0.0
Cd435 Cd 0.45062 0.4847 0.49902 0.0
Cd436 Cd 0.43886 0.41371 0.51333 0.0
O437 O 0.46627 0.43268 0.40008 0.0
O438 O 0.49518 0.53064 0.5243 0.0
O439 O 0.486 0.47596 0.55809 0.0
C440 C 0.50782 0.5103 0.54966 0.0
C441 C 0.42829 0.36631 0.61068 0.0
C442 C 0.4613 0.45416 0.35308 0.0
C443 C 0.37915 0.43426 0.4893 0.0
O444 O 0.39327 0.41433 0.48995 0.0
O445 O 0.39656 0.46673 0.51499 0.0
O446 O 0.42069 0.35967 0.53352 0.0
O447 O 0.4449 0.39993 0.63186 0.0
O448 O 0.56964 0.98524 0.38086 0.0
Cd449 Cd 0.56049 0.97496 0.49902 0.0
Cd450 Cd 0.63148 0.03418 0.51336 0.0
O451 O 0.61252 0.04262 0.4001 0.0
O452 O 0.51454 0.97357 0.52428 0.0
O453 O 0.56923 0.01908 0.55809 0.0
C454 C 0.53488 1.00655 0.54965 0.0
C455 C 0.6789 0.07101 0.6107 0.0
C456 C 0.59105 1.01617 0.35309 0.0
C457 C 0.61092 0.95392 0.48933 0.0
O458 O 0.63085 0.98796 0.48999 0.0
O459 O 0.57845 0.93885 0.515 0.0
O460 O 0.68553 0.07005 0.53354 0.0
O461 O 0.64528 0.05401 0.63189 0.0
O462 O 0.26916 0.38424 0.57016 0.0
Cd463 Cd 0.27028 0.39451 0.452 0.0
Cd464 Cd 0.28205 0.33529 0.43767 0.0
O465 O 0.25466 0.32686 0.55094 0.0
O466 O 0.22572 0.39589 0.42674 0.0
O467 O 0.2349 0.35038 0.39295 0.0
C468 C 0.21308 0.3629 0.40138 0.0
C469 C 0.29262 0.29846 0.34032 0.0
C470 C 0.25964 0.35331 0.59794 0.0
C471 C 0.34175 0.41555 0.46167 0.0
O472 O 0.32764 0.38151 0.46103 0.0
O473 O 0.32434 0.43061 0.436 0.0
O474 O 0.30022 0.29942 0.41747 0.0
O475 O 0.27601 0.31546 0.31914 0.0
O476 O 0.66093 0.89393 0.57016 0.0
Cd477 Cd 0.65066 0.88478 0.452 0.0
Cd478 Cd 0.70987 0.95577 0.43768 0.0
O479 O 0.71831 0.93681 0.55094 0.0
O480 O 0.64927 0.83884 0.42673 0.0
O481 O 0.69478 0.89352 0.39293 0.0
C482 C 0.68225 0.85917 0.40137 0.0
C483 C 0.74671 1.00318 0.34034 0.0
C484 C 0.69187 0.91534 0.59794 0.0
C485 C 0.62962 0.93522 0.4617 0.0
O486 O 0.66366 0.95515 0.46105 0.0
O487 O 0.61456 0.90274 0.43602 0.0
O488 O 0.74575 1.00982 0.4175 0.0
O489 O 0.7297 0.96956 0.31915 0.0
O490 O 0.15116 0.77604 0.57011 0.0
Cd491 Cd 0.1603 0.77491 0.45194 0.0
Cd492 Cd 0.08932 0.76313 0.43766 0.0
O493 O 0.10827 0.79052 0.55095 0.0
O494 O 0.20625 0.81946 0.42667 0.0
O495 O 0.15157 0.8103 0.39289 0.0
C496 C 0.18592 0.83211 0.4013 0.0
C497 C 0.04191 0.75254 0.34031 0.0
C498 C 0.12976 0.78555 0.59792 0.0
C499 C 0.10988 0.70343 0.46165 0.0
O500 O 0.08994 0.71754 0.46101 0.0
O501 O 0.14234 0.72084 0.43595 0.0
O502 O 0.03527 0.74494 0.41746 0.0
O503 O 0.07553 0.76917 0.31914 0.0
loop_
_geom_bond_atom_site_label_1
_geom_bond_atom_site_label_2
_geom_bond_distance
_geom_bond_site_symmetry_2
_ccdc_geom_bond_type
O0 Cd1 2.223 . S
O0 C8 1.315 . S
Cd1 O0 2.223 . S
Cd1 O4 2.297 . S
Cd1 O5 2.439 . S
Cd1 O11 2.240 . S
Cd2 O3 2.240 . S
Cd2 O10 2.223 . S
Cd2 O12 2.297 . S
Cd2 O13 2.439 . S
O3 Cd2 2.240 . S
O3 C8 1.279 . S
O4 Cd1 2.297 . S
O4 C6 1.247 . S
O5 Cd1 2.439 . S
O5 C6 1.208 . S
C6 O4 1.247 . S
C6 O5 1.208 . S
C7 O12 1.247 . S
C7 O13 1.208 . S
C8 O0 1.315 . S
C8 O3 1.279 . S
C9 O10 1.315 . S
C9 O11 1.279 . S
O10 Cd2 2.223 . S
O10 C9 1.315 . S
O11 Cd1 2.240 . S
O11 C9 1.279 . S
O12 Cd2 2.297 . S
O12 C7 1.247 . S
O13 Cd2 2.439 . S
O13 C7 1.208 . S
O14 Cd15 2.223 . S
O14 C22 1.315 . S
Cd15 O14 2.223 . S
Cd15 O18 2.297 . S
Cd15 O19 2.439 . S
Cd15 O25 2.240 . S
Cd16 O17 2.240 . S
Cd16 O24 2.223 . S
Cd16 O26 2.297 . S
Cd16 O27 2.439 . S
O17 Cd16 2.240 . S
O17 C22 1.279 . S
O18 Cd15 2.297 . S
O18 C20 1.247 . S
O19 Cd15 2.439 . S
O19 C20 1.208 . S
C20 O18 1.247 . S
C20 O19 1.208 . S
C21 O26 1.247 . S
C21 O27 1.208 . S
C22 O14 1.315 . S
C22 O17 1.279 . S
C23 O24 1.315 . S
C23 O25 1.279 . S
O24 Cd16 2.223 . S
O24 C23 1.315 . S
O25 Cd15 2.240 . S
O25 C23 1.279 . S
O26 Cd16 2.297 . S
O26 C21 1.247 . S
O27 Cd16 2.439 . S
O27 C21 1.208 . S
O28 Cd29 2.223 . S
O28 C36 1.315 . S
Cd29 O28 2.223 . S
Cd29 O32 2.297 . S
Cd29 O33 2.439 . S
Cd29 O39 2.240 . S
Cd30 O31 2.240 . S
Cd30 O38 2.223 . S
Cd30 O40 2.297 . S
Cd30 O41 2.439 . S
O31 Cd30 2.240 . S
O31 C36 1.279 . S
O32 Cd29 2.297 . S
O32 C34 1.247 . S
O33 Cd29 2.439 . S
O33 C34 1.208 . S
C34 O32 1.247 . S
C34 O33 1.208 . S
C35 O40 1.247 . S
C35 O41 1.208 . S
C36 O28 1.315 . S
C36 O31 1.279 . S
C37 O38 1.315 . S
C37 O39 1.279 . S
O38 Cd30 2.223 . S
O38 C37 1.315 . S
O39 Cd29 2.240 . S
O39 C37 1.279 . S
O40 Cd30 2.297 . S
O40 C35 1.247 . S
O41 Cd30 2.439 . S
O41 C35 1.208 . S
O42 Cd43 2.223 . S
O42 C50 1.315 . S
Cd43 O42 2.223 . S
Cd43 O46 2.297 . S
Cd43 O47 2.439 . S
Cd43 O53 2.240 . S
Cd44 O45 2.240 . S
Cd44 O52 2.223 . S
Cd44 O54 2.297 . S
Cd44 O55 2.439 . S
O45 Cd44 2.240 . S
O45 C50 1.279 . S
O46 Cd43 2.297 . S
O46 C48 1.247 . S
O47 Cd43 2.439 . S
O47 C48 1.208 . S
C48 O46 1.247 . S
C48 O47 1.208 . S
C49 O54 1.247 . S
C49 O55 1.208 . S
C50 O42 1.315 . S
C50 O45 1.279 . S
C51 O52 1.315 . S
C51 O53 1.279 . S
O52 Cd44 2.223 . S
O52 C51 1.315 . S
O53 Cd43 2.240 . S
O53 C51 1.279 . S
O54 Cd44 2.297 . S
O54 C49 1.247 . S
O55 Cd44 2.439 . S
O55 C49 1.208 . S
O56 Cd57 2.223 . S
O56 C64 1.315 . S
Cd57 O56 2.223 . S
Cd57 O60 2.297 . S
Cd57 O61 2.439 . S
Cd57 O67 2.240 . S
Cd58 O59 2.240 . S
Cd58 O66 2.223 . S
Cd58 O68 2.297 . S
Cd58 O69 2.439 . S
O59 Cd58 2.240 . S
O59 C64 1.279 . S
O60 Cd57 2.297 . S
O60 C62 1.247 . S
O61 Cd57 2.439 . S
O61 C62 1.208 . S
C62 O60 1.247 . S
C62 O61 1.208 . S
C63 O68 1.247 . S
C63 O69 1.208 . S
C64 O56 1.315 . S
C64 O59 1.279 . S
C65 O66 1.315 . S
C65 O67 1.279 . S
O66 Cd58 2.223 . S
O66 C65 1.315 . S
O67 Cd57 2.240 . S
O67 C65 1.279 . S
O68 Cd58 2.297 . S
O68 C63 1.247 . S
O69 Cd58 2.439 . S
O69 C63 1.208 . S
O70 Cd71 2.223 . S
O70 C78 1.315 . S
Cd71 O70 2.223 . S
Cd71 O74 2.297 . S
Cd71 O75 2.439 . S
Cd71 O81 2.240 . S
Cd72 O73 2.240 . S
Cd72 O80 2.223 . S
Cd72 O82 2.297 . S
Cd72 O83 2.439 . S
O73 Cd72 2.240 . S
O73 C78 1.279 . S
O74 Cd71 2.297 . S
O74 C76 1.247 . S
O75 Cd71 2.439 . S
O75 C76 1.208 . S
C76 O74 1.247 . S
C76 O75 1.208 . S
C77 O82 1.247 . S
C77 O83 1.208 . S
C78 O70 1.315 . S
C78 O73 1.279 . S
C79 O80 1.315 . S
C79 O81 1.279 . S
O80 Cd72 2.223 . S
O80 C79 1.315 . S
O81 Cd71 2.240 . S
O81 C79 1.279 . S
O82 Cd72 2.297 . S
O82 C77 1.247 . S
O83 Cd72 2.439 . S
O83 C77 1.208 . S
O84 Cd85 2.223 . S
O84 C92 1.315 . S
Cd85 O84 2.223 . S
Cd85 O88 2.297 . S
Cd85 O89 2.439 . S
Cd85 O95 2.240 . S
Cd86 O87 2.240 . S
Cd86 O94 2.223 . S
Cd86 O96 2.297 . S
Cd86 O97 2.439 . S
O87 Cd86 2.240 . S
O87 C92 1.279 . S
O88 Cd85 2.297 . S
O88 C90 1.247 . S
O89 Cd85 2.439 . S
O89 C90 1.208 . S
C90 O88 1.247 . S
C90 O89 1.208 . S
C91 O96 1.247 . S
C91 O97 1.208 . S
C92 O84 1.315 . S
C92 O87 1.279 . S
C93 O94 1.315 . S
C93 O95 1.279 . S
O94 Cd86 2.223 . S
O94 C93 1.315 . S
O95 Cd85 2.240 . S
O95 C93 1.279 . S
O96 Cd86 2.297 . S
O96 C91 1.247 . S
O97 Cd86 2.439 . S
O97 C91 1.208 . S
O98 Cd99 2.223 . S
O98 C106 1.315 . S
Cd99 O98 2.223 . S
Cd99 O102 2.297 . S
Cd99 O103 2.439 . S
Cd99 O109 2.240 . S
Cd100 O101 2.240 . S
Cd100 O108 2.223 . S
Cd100 O110 2.297 . S
Cd100 O111 2.439 . S
O101 Cd100 2.240 . S
O101 C106 1.279 . S
O102 Cd99 2.297 . S
O102 C104 1.247 . S
O103 Cd99 2.439 . S
O103 C104 1.208 . S
C104 O102 1.247 . S
C104 O103 1.208 . S
C105 O110 1.247 . S
C105 O111 1.208 . S
C106 O98 1.315 . S
C106 O101 1.279 . S
C107 O108 1.315 . S
C107 O109 1.279 . S
O108 Cd100 2.223 . S
O108 C107 1.315 . S
O109 Cd99 2.240 . S
O109 C107 1.279 . S
O110 Cd100 2.297 . S
O110 C105 1.247 . S
O111 Cd100 2.439 . S
O111 C105 1.208 . S
O112 Cd113 2.223 . S
O112 C120 1.315 . S
Cd113 O112 2.223 . S
Cd113 O116 2.297 . S
Cd113 O117 2.439 . S
Cd113 O123 2.240 . S
Cd114 O115 2.240 . S
Cd114 O122 2.223 . S
Cd114 O124 2.297 . S
Cd114 O125 2.439 . S
O115 Cd114 2.240 . S
O115 C120 1.279 . S
O116 Cd113 2.297 . S
O116 C118 1.247 . S
O117 Cd113 2.439 . S
O117 C118 1.208 . S
C118 O116 1.247 . S
C118 O117 1.208 . S
C119 O124 1.247 . S
C119 O125 1.208 . S
C120 O112 1.315 . S
C120 O115 1.279 . S
C121 O122 1.315 . S
C121 O123 1.279 . S
O122 Cd114 2.223 . S
O122 C121 1.315 . S
O123 Cd113 2.240 . S
O123 C121 1.279 . S
O124 Cd114 2.297 . S
O124 C119 1.247 . S
O125 Cd114 2.439 . S
O125 C119 1.208 . S
O126 Cd127 2.223 . S
O126 C134 1.315 . S
Cd127 O126 2.223 . S
Cd127 O130 2.297 . S
Cd127 O131 2.439 . S
Cd127 O137 2.240 . S
Cd128 O129 2.240 . S
Cd128 O136 2.223 . S
Cd128 O138 2.297 . S
Cd128 O139 2.439 . S
O129 Cd128 2.240 . S
O129 C134 1.279 . S
O130 Cd127 2.297 . S
O130 C132 1.247 . S
O131 Cd127 2.439 . S
O131 C132 1.208 . S
C132 O130 1.247 . S
C132 O131 1.208 . S
C133 O138 1.247 . S
C133 O139 1.208 . S
C134 O126 1.315 . S
C134 O129 1.279 . S
C135 O136 1.315 . S
C135 O137 1.279 . S
O136 Cd128 2.223 . S
O136 C135 1.315 . S
O137 Cd127 2.240 . S
O137 C135 1.279 . S
O138 Cd128 2.297 . S
O138 C133 1.247 . S
O139 Cd128 2.439 . S
O139 C133 1.208 . S
O140 Cd141 2.223 . S
O140 C148 1.315 . S
Cd141 O140 2.223 . S
Cd141 O144 2.297 . S
Cd141 O145 2.439 . S
Cd141 O151 2.240 . S
Cd142 O143 2.240 . S
Cd142 O150 2.223 . S
Cd142 O152 2.297 . S
Cd142 O153 2.439 . S
O143 Cd142 2.240 . S
O143 C148 1.279 . S
O144 Cd141 2.297 . S
O144 C146 1.247 . S
O145 Cd141 2.439 . S
O145 C146 1.208 . S
C146 O144 1.247 . S
C146 O145 1.208 . S
C147 O152 1.247 . S
C147 O153 1.208 . S
C148 O140 1.315 . S
C148 O143 1.279 . S
C149 O150 1.315 . S
C149 O151 1.279 . S
O150 Cd142 2.223 . S
O150 C149 1.315 . S
O151 Cd141 2.240 . S
O151 C149 1.279 . S
O152 Cd142 2.297 . S
O152 C147 1.247 . S
O153 Cd142 2.439 . S
O153 C147 1.208 . S
O154 Cd155 2.223 . S
O154 C162 1.315 . S
Cd155 O154 2.223 . S
Cd155 O158 2.297 . S
Cd155 O159 2.439 . S
Cd155 O165 2.240 . S
Cd156 O157 2.240 . S
Cd156 O164 2.223 . S
Cd156 O166 2.297 . S
Cd156 O167 2.439 . S
O157 Cd156 2.240 . S
O157 C162 1.279 . S
O158 Cd155 2.297 . S
O158 C160 1.247 . S
O159 Cd155 2.439 . S
O159 C160 1.208 . S
C160 O158 1.247 . S
C160 O159 1.208 . S
C161 O166 1.247 . S
C161 O167 1.208 . S
C162 O154 1.315 . S
C162 O157 1.279 . S
C163 O164 1.315 . S
C163 O165 1.279 . S
O164 Cd156 2.223 . S
O164 C163 1.315 . S
O165 Cd155 2.240 . S
O165 C163 1.279 . S
O166 Cd156 2.297 . S
O166 C161 1.247 . S
O167 Cd156 2.439 . S
O167 C161 1.208 . S
O168 Cd169 2.223 . S
O168 C176 1.315 . S
Cd169 O168 2.223 . S
Cd169 O172 2.297 . S
Cd169 O173 2.439 1_655 S
Cd169 O179 2.240 . S
Cd170 O171 2.240 . S
Cd170 O178 2.223 1_455 S
Cd170 O180 2.297 . S
Cd170 O181 2.439 . S
O171 Cd170 2.240 . S
O171 C176 1.279 1_455 S
O172 Cd169 2.297 . S
O172 C174 1.247 . S
O173 Cd169 2.439 1_455 S
O173 C174 1.208 1_455 S
C174 O172 1.247 . S
C174 O173 1.208 1_655 S
C175 O180 1.247 . S
C175 O181 1.208 . S
C176 O168 1.315 . S
C176 O171 1.279 1_655 S
C177 O178 1.315 . S
C177 O179 1.279 . S
O178 Cd170 2.223 1_655 S
O178 C177 1.315 . S
O179 Cd169 2.240 . S
O179 C177 1.279 . S
O180 Cd170 2.297 . S
O180 C175 1.247 . S
O181 Cd170 2.439 . S
O181 C175 1.208 . S
O182 Cd183 2.223 . S
O182 C190 1.315 . S
Cd183 O182 2.223 . S
Cd183 O186 2.297 . S
Cd183 O187 2.439 . S
Cd183 O193 2.240 . S
Cd184 O185 2.240 . S
Cd184 O192 2.223 . S
Cd184 O194 2.297 . S
Cd184 O195 2.439 . S
O185 Cd184 2.240 . S
O185 C190 1.279 . S
O186 Cd183 2.297 . S
O186 C188 1.247 . S
O187 Cd183 2.439 . S
O187 C188 1.208 . S
C188 O186 1.247 . S
C188 O187 1.208 . S
C189 O194 1.247 . S
C189 O195 1.208 . S
C190 O182 1.315 . S
C190 O185 1.279 . S
C191 O192 1.315 . S
C191 O193 1.279 . S
O192 Cd184 2.223 . S
O192 C191 1.315 . S
O193 Cd183 2.240 . S
O193 C191 1.279 . S
O194 Cd184 2.297 . S
O194 C189 1.247 . S
O195 Cd184 2.439 . S
O195 C189 1.208 . S
O196 Cd197 2.223 . S
O196 C204 1.315 . S
Cd197 O196 2.223 . S
Cd197 O200 2.297 . S
Cd197 O201 2.439 1_545 S
Cd197 O207 2.240 . S
Cd198 O199 2.240 . S
Cd198 O206 2.223 1_565 S
Cd198 O208 2.297 . S
Cd198 O209 2.439 . S
O199 Cd198 2.240 . S
O199 C204 1.279 1_565 S
O200 Cd197 2.297 . S
O200 C202 1.247 . S
O201 Cd197 2.439 1_565 S
O201 C202 1.208 1_565 S
C202 O200 1.247 . S
C202 O201 1.208 1_545 S
C203 O208 1.247 . S
C203 O209 1.208 . S
C204 O196 1.315 . S
C204 O199 1.279 1_545 S
C205 O206 1.315 . S
C205 O207 1.279 . S
O206 Cd198 2.223 1_545 S
O206 C205 1.315 . S
O207 Cd197 2.240 . S
O207 C205 1.279 . S
O208 Cd198 2.297 . S
O208 C203 1.247 . S
O209 Cd198 2.439 . S
O209 C203 1.208 . S
O210 Cd211 2.223 . S
O210 C218 1.315 . S
Cd211 O210 2.223 . S
Cd211 O214 2.297 . S
Cd211 O215 2.439 . S
Cd211 O221 2.240 . S
Cd212 O213 2.240 . S
Cd212 O220 2.223 . S
Cd212 O222 2.297 . S
Cd212 O223 2.439 . S
O213 Cd212 2.240 . S
O213 C218 1.279 . S
O214 Cd211 2.297 . S
O214 C216 1.247 . S
O215 Cd211 2.439 . S
O215 C216 1.208 . S
C216 O214 1.247 . S
C216 O215 1.208 . S
C217 O222 1.247 . S
C217 O223 1.208 . S
C218 O210 1.315 . S
C218 O213 1.279 . S
C219 O220 1.315 . S
C219 O221 1.279 . S
O220 Cd212 2.223 . S
O220 C219 1.315 . S
O221 Cd211 2.240 . S
O221 C219 1.279 . S
O222 Cd212 2.297 . S
O222 C217 1.247 . S
O223 Cd212 2.439 . S
O223 C217 1.208 . S
O224 Cd225 2.223 . S
O224 C232 1.315 . S
Cd225 O224 2.223 . S
Cd225 O228 2.297 . S
Cd225 O229 2.439 . S
Cd225 O235 2.240 . S
Cd226 O227 2.240 . S
Cd226 O234 2.223 . S
Cd226 O236 2.297 1_545 S
Cd226 O237 2.439 . S
O227 Cd226 2.240 . S
O227 C232 1.279 . S
O228 Cd225 2.297 . S
O228 C230 1.247 . S
O229 Cd225 2.439 . S
O229 C230 1.208 . S
C230 O228 1.247 . S
C230 O229 1.208 . S
C231 O236 1.247 1_545 S
C231 O237 1.208 . S
C232 O224 1.315 . S
C232 O227 1.279 . S
C233 O234 1.315 . S
C233 O235 1.279 . S
O234 Cd226 2.223 . S
O234 C233 1.315 . S
O235 Cd225 2.240 . S
O235 C233 1.279 . S
O236 Cd226 2.297 1_565 S
O236 C231 1.247 1_565 S
O237 Cd226 2.439 . S
O237 C231 1.208 . S
O238 Cd239 2.223 . S
O238 C246 1.315 . S
Cd239 O238 2.223 . S
Cd239 O242 2.297 . S
Cd239 O243 2.439 . S
Cd239 O249 2.240 . S
Cd240 O241 2.240 . S
Cd240 O248 2.223 . S
Cd240 O250 2.297 1_655 S
Cd240 O251 2.439 . S
O241 Cd240 2.240 . S
O241 C246 1.279 . S
O242 Cd239 2.297 . S
O242 C244 1.247 . S
O243 Cd239 2.439 . S
O243 C244 1.208 . S
C244 O242 1.247 . S
C244 O243 1.208 . S
C245 O250 1.247 1_655 S
C245 O251 1.208 . S
C246 O238 1.315 . S
C246 O241 1.279 . S
C247 O248 1.315 . S
C247 O249 1.279 . S
O248 Cd240 2.223 . S
O248 C247 1.315 . S
O249 Cd239 2.240 . S
O249 C247 1.279 . S
O250 Cd240 2.297 1_455 S
O250 C245 1.247 1_455 S
O251 Cd240 2.439 . S
O251 C245 1.208 . S
O252 Cd253 2.223 1_556 S
O252 C260 1.315 . S
Cd253 O252 2.223 1_554 S
Cd253 O256 2.297 . S
Cd253 O257 2.439 . S
Cd253 O263 2.240 . S
Cd254 O255 2.240 . S
Cd254 O262 2.223 . S
Cd254 O264 2.297 . S
Cd254 O265 2.439 . S
O255 Cd254 2.240 . S
O255 C260 1.279 1_554 S
O256 Cd253 2.297 . S
O256 C258 1.247 . S
O257 Cd253 2.439 . S
O257 C258 1.208 . S
C258 O256 1.247 . S
C258 O257 1.208 . S
C259 O264 1.247 . S
C259 O265 1.208 . S
C260 O252 1.315 . S
C260 O255 1.279 1_556 S
C261 O262 1.315 . S
C261 O263 1.279 . S
O262 Cd254 2.223 . S
O262 C261 1.315 . S
O263 Cd253 2.240 . S
O263 C261 1.279 . S
O264 Cd254 2.297 . S
O264 C259 1.247 . S
O265 Cd254 2.439 . S
O265 C259 1.208 . S
O266 Cd267 2.223 1_556 S
O266 C274 1.315 . S
Cd267 O266 2.223 1_554 S
Cd267 O270 2.297 . S
Cd267 O271 2.439 . S
Cd267 O277 2.240 . S
Cd268 O269 2.240 . S
Cd268 O276 2.223 . S
Cd268 O278 2.297 1_545 S
Cd268 O279 2.439 . S
O269 Cd268 2.240 . S
O269 C274 1.279 1_554 S
O270 Cd267 2.297 . S
O270 C272 1.247 . S
O271 Cd267 2.439 . S
O271 C272 1.208 . S
C272 O270 1.247 . S
C272 O271 1.208 . S
C273 O278 1.247 1_545 S
C273 O279 1.208 . S
C274 O266 1.315 . S
C274 O269 1.279 1_556 S
C275 O276 1.315 . S
C275 O277 1.279 . S
O276 Cd268 2.223 . S
O276 C275 1.315 . S
O277 Cd267 2.240 . S
O277 C275 1.279 . S
O278 Cd268 2.297 1_565 S
O278 C273 1.247 1_565 S
O279 Cd268 2.439 . S
O279 C273 1.208 . S
O280 Cd281 2.223 1_556 S
O280 C288 1.315 . S
Cd281 O280 2.223 1_554 S
Cd281 O284 2.297 . S
Cd281 O285 2.439 . S
Cd281 O291 2.240 . S
Cd282 O283 2.240 . S
Cd282 O290 2.223 . S
Cd282 O292 2.297 1_655 S
Cd282 O293 2.439 . S
O283 Cd282 2.240 . S
O283 C288 1.279 1_554 S
O284 Cd281 2.297 . S
O284 C286 1.247 . S
O285 Cd281 2.439 . S
O285 C286 1.208 . S
C286 O284 1.247 . S
C286 O285 1.208 . S
C287 O292 1.247 1_655 S
C287 O293 1.208 . S
C288 O280 1.315 . S
C288 O283 1.279 1_556 S
C289 O290 1.315 . S
C289 O291 1.279 . S
O290 Cd282 2.223 . S
O290 C289 1.315 . S
O291 Cd281 2.240 . S
O291 C289 1.279 . S
O292 Cd282 2.297 1_455 S
O292 C287 1.247 1_455 S
O293 Cd282 2.439 . S
O293 C287 1.208 . S
O294 Cd295 2.223 . S
O294 C302 1.315 . S
Cd295 O294 2.223 . S
Cd295 O298 2.297 . S
Cd295 O299 2.439 1_545 S
Cd295 O305 2.240 . S
Cd296 O297 2.240 . S
Cd296 O304 2.223 1_565 S
Cd296 O306 2.297 1_554 S
Cd296 O307 2.439 1_554 S
O297 Cd296 2.240 . S
O297 C302 1.279 1_565 S
O298 Cd295 2.297 . S
O298 C300 1.247 . S
O299 Cd295 2.439 1_565 S
O299 C300 1.208 1_565 S
C300 O298 1.247 . S
C300 O299 1.208 1_545 S
C301 O306 1.247 . S
C301 O307 1.208 . S
C302 O294 1.315 . S
C302 O297 1.279 1_545 S
C303 O304 1.315 . S
C303 O305 1.279 . S
O304 Cd296 2.223 1_545 S
O304 C303 1.315 . S
O305 Cd295 2.240 . S
O305 C303 1.279 . S
O306 Cd296 2.297 1_556 S
O306 C301 1.247 . S
O307 Cd296 2.439 1_556 S
O307 C301 1.208 . S
O308 Cd309 2.223 . S
O308 C316 1.315 . S
Cd309 O308 2.223 . S
Cd309 O312 2.297 . S
Cd309 O313 2.439 1_655 S
Cd309 O319 2.240 . S
Cd310 O311 2.240 . S
Cd310 O318 2.223 1_455 S
Cd310 O320 2.297 1_554 S
Cd310 O321 2.439 1_554 S
O311 Cd310 2.240 . S
O311 C316 1.279 1_455 S
O312 Cd309 2.297 . S
O312 C314 1.247 . S
O313 Cd309 2.439 1_455 S
O313 C314 1.208 1_455 S
C314 O312 1.247 . S
C314 O313 1.208 1_655 S
C315 O320 1.247 . S
C315 O321 1.208 . S
C316 O308 1.315 . S
C316 O311 1.279 1_655 S
C317 O318 1.315 . S
C317 O319 1.279 . S
O318 Cd310 2.223 1_655 S
O318 C317 1.315 . S
O319 Cd309 2.240 . S
O319 C317 1.279 . S
O320 Cd310 2.297 1_556 S
O320 C315 1.247 . S
O321 Cd310 2.439 1_556 S
O321 C315 1.208 . S
O322 Cd323 2.223 . S
O322 C330 1.315 . S
Cd323 O322 2.223 . S
Cd323 O326 2.297 . S
Cd323 O327 2.439 . S
Cd323 O333 2.240 . S
Cd324 O325 2.240 . S
Cd324 O332 2.223 . S
Cd324 O334 2.297 1_554 S
Cd324 O335 2.439 1_554 S
O325 Cd324 2.240 . S
O325 C330 1.279 . S
O326 Cd323 2.297 . S
O326 C328 1.247 . S
O327 Cd323 2.439 . S
O327 C328 1.208 . S
C328 O326 1.247 . S
C328 O327 1.208 . S
C329 O334 1.247 . S
C329 O335 1.208 . S
C330 O322 1.315 . S
C330 O325 1.279 . S
C331 O332 1.315 . S
C331 O333 1.279 . S
O332 Cd324 2.223 . S
O332 C331 1.315 . S
O333 Cd323 2.240 . S
O333 C331 1.279 . S
O334 Cd324 2.297 1_556 S
O334 C329 1.247 . S
O335 Cd324 2.439 1_556 S
O335 C329 1.208 . S
O336 Cd337 2.223 1_554 S
O336 C344 1.315 . S
Cd337 O336 2.223 1_556 S
Cd337 O340 2.297 . S
Cd337 O341 2.439 . S
Cd337 O347 2.240 . S
Cd338 O339 2.240 . S
Cd338 O346 2.223 . S
Cd338 O348 2.297 . S
Cd338 O349 2.439 . S
O339 Cd338 2.240 . S
O339 C344 1.279 1_556 S
O340 Cd337 2.297 . S
O340 C342 1.247 . S
O341 Cd337 2.439 . S
O341 C342 1.208 . S
C342 O340 1.247 . S
C342 O341 1.208 . S
C343 O348 1.247 . S
C343 O349 1.208 . S
C344 O336 1.315 . S
C344 O339 1.279 1_554 S
C345 O346 1.315 . S
C345 O347 1.279 . S
O346 Cd338 2.223 . S
O346 C345 1.315 . S
O347 Cd337 2.240 . S
O347 C345 1.279 . S
O348 Cd338 2.297 . S
O348 C343 1.247 . S
O349 Cd338 2.439 . S
O349 C343 1.208 . S
O350 Cd351 2.223 1_554 S
O350 C358 1.315 . S
Cd351 O350 2.223 1_556 S
Cd351 O354 2.297 . S
Cd351 O355 2.439 . S
Cd351 O361 2.240 . S
Cd352 O353 2.240 . S
Cd352 O360 2.223 . S
Cd352 O362 2.297 1_565 S
Cd352 O363 2.439 . S
O353 Cd352 2.240 . S
O353 C358 1.279 1_556 S
O354 Cd351 2.297 . S
O354 C356 1.247 . S
O355 Cd351 2.439 . S
O355 C356 1.208 . S
C356 O354 1.247 . S
C356 O355 1.208 . S
C357 O362 1.247 1_565 S
C357 O363 1.208 . S
C358 O350 1.315 . S
C358 O353 1.279 1_554 S
C359 O360 1.315 . S
C359 O361 1.279 . S
O360 Cd352 2.223 . S
O360 C359 1.315 . S
O361 Cd351 2.240 . S
O361 C359 1.279 . S
O362 Cd352 2.297 1_545 S
O362 C357 1.247 1_545 S
O363 Cd352 2.439 . S
O363 C357 1.208 . S
O364 Cd365 2.223 1_554 S
O364 C372 1.315 . S
Cd365 O364 2.223 1_556 S
Cd365 O368 2.297 . S
Cd365 O369 2.439 . S
Cd365 O375 2.240 . S
Cd366 O367 2.240 . S
Cd366 O374 2.223 . S
Cd366 O376 2.297 1_455 S
Cd366 O377 2.439 . S
O367 Cd366 2.240 . S
O367 C372 1.279 1_556 S
O368 Cd365 2.297 . S
O368 C370 1.247 . S
O369 Cd365 2.439 . S
O369 C370 1.208 . S
C370 O368 1.247 . S
C370 O369 1.208 . S
C371 O376 1.247 1_455 S
C371 O377 1.208 . S
C372 O364 1.315 . S
C372 O367 1.279 1_554 S
C373 O374 1.315 . S
C373 O375 1.279 . S
O374 Cd366 2.223 . S
O374 C373 1.315 . S
O375 Cd365 2.240 . S
O375 C373 1.279 . S
O376 Cd366 2.297 1_655 S
O376 C371 1.247 1_655 S
O377 Cd366 2.439 . S
O377 C371 1.208 . S
O378 Cd379 2.223 . S
O378 C386 1.315 . S
Cd379 O378 2.223 . S
Cd379 O382 2.297 . S
Cd379 O383 2.439 1_565 S
Cd379 O389 2.240 . S
Cd380 O381 2.240 . S
Cd380 O388 2.223 1_545 S
Cd380 O390 2.297 1_556 S
Cd380 O391 2.439 1_556 S
O381 Cd380 2.240 . S
O381 C386 1.279 1_545 S
O382 Cd379 2.297 . S
O382 C384 1.247 . S
O383 Cd379 2.439 1_545 S
O383 C384 1.208 1_545 S
C384 O382 1.247 . S
C384 O383 1.208 1_565 S
C385 O390 1.247 . S
C385 O391 1.208 . S
C386 O378 1.315 . S
C386 O381 1.279 1_565 S
C387 O388 1.315 . S
C387 O389 1.279 . S
O388 Cd380 2.223 1_565 S
O388 C387 1.315 . S
O389 Cd379 2.240 . S
O389 C387 1.279 . S
O390 Cd380 2.297 1_554 S
O390 C385 1.247 . S
O391 Cd380 2.439 1_554 S
O391 C385 1.208 . S
O392 Cd393 2.223 . S
O392 C400 1.315 . S
Cd393 O392 2.223 . S
Cd393 O396 2.297 . S
Cd393 O397 2.439 1_455 S
Cd393 O403 2.240 . S
Cd394 O395 2.240 . S
Cd394 O402 2.223 1_655 S
Cd394 O404 2.297 1_556 S
Cd394 O405 2.439 1_556 S
O395 Cd394 2.240 . S
O395 C400 1.279 1_655 S
O396 Cd393 2.297 . S
O396 C398 1.247 . S
O397 Cd393 2.439 1_655 S
O397 C398 1.208 1_655 S
C398 O396 1.247 . S
C398 O397 1.208 1_455 S
C399 O404 1.247 . S
C399 O405 1.208 . S
C400 O392 1.315 . S
C400 O395 1.279 1_455 S
C401 O402 1.315 . S
C401 O403 1.279 . S
O402 Cd394 2.223 1_455 S
O402 C401 1.315 . S
O403 Cd393 2.240 . S
O403 C401 1.279 . S
O404 Cd394 2.297 1_554 S
O404 C399 1.247 . S
O405 Cd394 2.439 1_554 S
O405 C399 1.208 . S
O406 Cd407 2.223 . S
O406 C414 1.315 . S
Cd407 O406 2.223 . S
Cd407 O410 2.297 . S
Cd407 O411 2.439 . S
Cd407 O417 2.240 . S
Cd408 O409 2.240 . S
Cd408 O416 2.223 . S
Cd408 O418 2.297 1_556 S
Cd408 O419 2.439 1_556 S
O409 Cd408 2.240 . S
O409 C414 1.279 . S
O410 Cd407 2.297 . S
O410 C412 1.247 . S
O411 Cd407 2.439 . S
O411 C412 1.208 . S
C412 O410 1.247 . S
C412 O411 1.208 . S
C413 O418 1.247 . S
C413 O419 1.208 . S
C414 O406 1.315 . S
C414 O409 1.279 . S
C415 O416 1.315 . S
C415 O417 1.279 . S
O416 Cd408 2.223 . S
O416 C415 1.315 . S
O417 Cd407 2.240 . S
O417 C415 1.279 . S
O418 Cd408 2.297 1_554 S
O418 C413 1.247 . S
O419 Cd408 2.439 1_554 S
O419 C413 1.208 . S
O420 Cd421 2.223 . S
O420 C428 1.315 . S
Cd421 O420 2.223 . S
Cd421 O424 2.297 . S
Cd421 O425 2.439 1_455 S
Cd421 O431 2.240 . S
Cd422 O423 2.240 . S
Cd422 O430 2.223 1_655 S
Cd422 O432 2.297 . S
Cd422 O433 2.439 . S
O423 Cd422 2.240 . S
O423 C428 1.279 1_655 S
O424 Cd421 2.297 . S
O424 C426 1.247 . S
O425 Cd421 2.439 1_655 S
O425 C426 1.208 1_655 S
C426 O424 1.247 . S
C426 O425 1.208 1_455 S
C427 O432 1.247 . S
C427 O433 1.208 . S
C428 O420 1.315 . S
C428 O423 1.279 1_455 S
C429 O430 1.315 . S
C429 O431 1.279 . S
O430 Cd422 2.223 1_455 S
O430 C429 1.315 . S
O431 Cd421 2.240 . S
O431 C429 1.279 . S
O432 Cd422 2.297 . S
O432 C427 1.247 . S
O433 Cd422 2.439 . S
O433 C427 1.208 . S
O434 Cd435 2.223 . S
O434 C442 1.315 . S
Cd435 O434 2.223 . S
Cd435 O438 2.297 . S
Cd435 O439 2.439 . S
Cd435 O445 2.240 . S
Cd436 O437 2.240 . S
Cd436 O444 2.223 . S
Cd436 O446 2.297 . S
Cd436 O447 2.439 . S
O437 Cd436 2.240 . S
O437 C442 1.279 . S
O438 Cd435 2.297 . S
O438 C440 1.247 . S
O439 Cd435 2.439 . S
O439 C440 1.208 . S
C440 O438 1.247 . S
C440 O439 1.208 . S
C441 O446 1.247 . S
C441 O447 1.208 . S
C442 O434 1.315 . S
C442 O437 1.279 . S
C443 O444 1.315 . S
C443 O445 1.279 . S
O444 Cd436 2.223 . S
O444 C443 1.315 . S
O445 Cd435 2.240 . S
O445 C443 1.279 . S
O446 Cd436 2.297 . S
O446 C441 1.247 . S
O447 Cd436 2.439 . S
O447 C441 1.208 . S
O448 Cd449 2.223 . S
O448 C456 1.315 . S
Cd449 O448 2.223 . S
Cd449 O452 2.297 . S
Cd449 O453 2.439 1_565 S
Cd449 O459 2.240 . S
Cd450 O451 2.240 . S
Cd450 O458 2.223 1_545 S
Cd450 O460 2.297 . S
Cd450 O461 2.439 . S
O451 Cd450 2.240 . S
O451 C456 1.279 1_545 S
O452 Cd449 2.297 . S
O452 C454 1.247 . S
O453 Cd449 2.439 1_545 S
O453 C454 1.208 1_545 S
C454 O452 1.247 . S
C454 O453 1.208 1_565 S
C455 O460 1.247 . S
C455 O461 1.208 . S
C456 O448 1.315 . S
C456 O451 1.279 1_565 S
C457 O458 1.315 . S
C457 O459 1.279 . S
O458 Cd450 2.223 1_565 S
O458 C457 1.315 . S
O459 Cd449 2.240 . S
O459 C457 1.279 . S
O460 Cd450 2.297 . S
O460 C455 1.247 . S
O461 Cd450 2.439 . S
O461 C455 1.208 . S
O462 Cd463 2.223 . S
O462 C470 1.315 . S
Cd463 O462 2.223 . S
Cd463 O466 2.297 . S
Cd463 O467 2.439 . S
Cd463 O473 2.240 . S
Cd464 O465 2.240 . S
Cd464 O472 2.223 . S
Cd464 O474 2.297 . S
Cd464 O475 2.439 . S
O465 Cd464 2.240 . S
O465 C470 1.279 . S
O466 Cd463 2.297 . S
O466 C468 1.247 . S
O467 Cd463 2.439 . S
O467 C468 1.208 . S
C468 O466 1.247 . S
C468 O467 1.208 . S
C469 O474 1.247 . S
C469 O475 1.208 . S
C470 O462 1.315 . S
C470 O465 1.279 . S
C471 O472 1.315 . S
C471 O473 1.279 . S
O472 Cd464 2.223 . S
O472 C471 1.315 . S
O473 Cd463 2.240 . S
O473 C471 1.279 . S
O474 Cd464 2.297 . S
O474 C469 1.247 . S
O475 Cd464 2.439 . S
O475 C469 1.208 . S
O476 Cd477 2.223 . S
O476 C484 1.315 . S
Cd477 O476 2.223 . S
Cd477 O480 2.297 . S
Cd477 O481 2.439 . S
Cd477 O487 2.240 . S
Cd478 O479 2.240 . S
Cd478 O486 2.223 . S
Cd478 O488 2.297 1_565 S
Cd478 O489 2.439 . S
O479 Cd478 2.240 . S
O479 C484 1.279 . S
O480 Cd477 2.297 . S
O480 C482 1.247 . S
O481 Cd477 2.439 . S
O481 C482 1.208 . S
C482 O480 1.247 . S
C482 O481 1.208 . S
C483 O488 1.247 1_565 S
C483 O489 1.208 . S
C484 O476 1.315 . S
C484 O479 1.279 . S
C485 O486 1.315 . S
C485 O487 1.279 . S
O486 Cd478 2.223 . S
O486 C485 1.315 . S
O487 Cd477 2.240 . S
O487 C485 1.279 . S
O488 Cd478 2.297 1_545 S
O488 C483 1.247 1_545 S
O489 Cd478 2.439 . S
O489 C483 1.208 . S
O490 Cd491 2.223 . S
O490 C498 1.315 . S
Cd491 O490 2.223 . S
Cd491 O494 2.297 . S
Cd491 O495 2.439 . S
Cd491 O501 2.240 . S
Cd492 O493 2.240 . S
Cd492 O500 2.223 . S
Cd492 O502 2.297 1_455 S
Cd492 O503 2.439 . S
O493 Cd492 2.240 . S
O493 C498 1.279 . S
O494 Cd491 2.297 . S
O494 C496 1.247 . S
O495 Cd491 2.439 . S
O495 C496 1.208 . S
C496 O494 1.247 . S
C496 O495 1.208 . S
C497 O502 1.247 1_455 S
C497 O503 1.208 . S
C498 O490 1.315 . S
C498 O493 1.279 . S
C499 O500 1.315 . S
C499 O501 1.279 . S
O500 Cd492 2.223 . S
O500 C499 1.315 . S
O501 Cd491 2.240 . S
O501 C499 1.279 . S
O502 Cd492 2.297 1_655 S
O502 C497 1.247 1_655 S
O503 Cd492 2.439 . S
O503 C497 1.208 . S
C79 C9 1.075 1_565 S
C51 C23 1.075 1_455 S
C37 C65 1.075 . S
C93 C163 1.075 1_565 S
C107 C135 1.075 1_455 S
C149 C121 1.075 . S
C177 C247 1.075 . S
C191 C219 1.075 . S
C233 C205 1.075 . S
C331 C261 1.075 . S
C303 C275 1.075 . S
C289 C317 1.075 . S
C415 C345 1.075 . S
C387 C359 1.075 . S
C373 C401 1.075 . S
C499 C429 1.075 . S
C471 C443 1.075 . S
C485 C457 1.075 . S
C232 C8 1.754 . S
C246 C22 1.754 . S
C218 C36 1.753 . S
C50 C372 1.754 . S
C64 C344 1.754 . S
C78 C358 1.754 . S
C92 C484 1.754 . S
C498 C106 1.754 . S
C470 C120 1.753 . S
C288 C134 1.754 . S
C260 C148 1.754 . S
C162 C274 1.754 . S
C176 C400 1.753 1_655 S
C414 C190 1.754 . S
C386 C204 1.753 1_565 S
C302 C456 1.753 1_545 S
C428 C316 1.753 1_455 S
C330 C442 1.754 . S
C258 C6 1.802 . S
C272 C20 1.802 . S
C34 C286 1.802 . S
C48 C468 1.802 . S
C482 C62 1.802 . S
C496 C76 1.802 . S
C90 C342 1.802 . S
C104 C356 1.802 . S
C370 C118 1.802 . S
C132 C216 1.802 . S
C146 C230 1.802 . S
C244 C160 1.802 . S
C174 C426 1.802 1_655 S
C188 C440 1.802 . S
C454 C202 1.803 1_565 S
C384 C300 1.802 1_566 S
C314 C398 1.803 1_654 S
C328 C412 1.802 1_554 S
C385 C7 1.164 . S
C21 C399 1.164 . S
C413 C35 1.164 . S
C49 C175 1.164 . S
C189 C63 1.164 . S
C203 C77 1.164 . S
C91 C301 1.164 . S
C315 C105 1.164 . S
C119 C329 1.164 . S
C133 C427 1.164 . S
C147 C441 1.164 . S
C455 C161 1.164 . S
C217 C343 1.164 . S
C231 C357 1.164 1_545 S
C245 C371 1.164 1_655 S
C259 C469 1.164 . S
C273 C483 1.164 1_545 S
C497 C287 1.164 1_455 S
