# Generated by pormake.
# Topology snp, (6)-cn, num edge types: 1
# Building blocks:
#     Node 0, Type 0, BuildingBlock: GEDQOX_clean_sbu_0, # of connection points: 6
#     Node 1, Type 0, BuildingBlock: GEDQOX_clean_sbu_0, # of connection points: 6
#     Node 2, Type 0, BuildingBlock: GEDQOX_clean_sbu_0, # of connection points: 6
#     Node 3, Type 0, BuildingBlock: GEDQOX_clean_sbu_0, # of connection points: 6
#     Edge 4, Type (0, 0), BuildingBlock: FUNLAD_clean_linker_0, # of connection points: 2
#     Edge 5, Type (0, 0), BuildingBlock: FUNLAD_clean_linker_0, # of connection points: 2
#     Edge 6, Type (0, 0), BuildingBlock: FUNLAD_clean_linker_0, # of connection points: 2
#     Edge 7, Type (0, 0), BuildingBlock: FUNLAD_clean_linker_0, # of connection points: 2
#     Edge 8, Type (0, 0), BuildingBlock: FUNLAD_clean_linker_0, # of connection points: 2
#     Edge 9, Type (0, 0), BuildingBlock: FUNLAD_clean_linker_0, # of connection points: 2
#     Edge 10, Type (0, 0), BuildingBlock: FUNLAD_clean_linker_0, # of connection points: 2
#     Edge 11, Type (0, 0), BuildingBlock: FUNLAD_clean_linker_0, # of connection points: 2
#     Edge 12, Type (0, 0), BuildingBlock: FUNLAD_clean_linker_0, # of connection points: 2
#     Edge 13, Type (0, 0), BuildingBlock: FUNLAD_clean_linker_0, # of connection points: 2
#     Edge 14, Type (0, 0), BuildingBlock: FUNLAD_clean_linker_0, # of connection points: 2
#     Edge 15, Type (0, 0), BuildingBlock: FUNLAD_clean_linker_0, # of connection points: 2
# Relax obj value: 0.191
# Max RMSD: 0.213
# Mean RMSD: 0.202
data_MOF--net-snp--node1-GEDQOX_clean_sbu_0--edge1-FUNLAD_clean_linker_0
_symmetry_space_group_name_H-M    P1
_symmetry_Int_Tables_number       1
_symmetry_cell_setting            triclinic
loop_
_symmetry_equiv_pos_as_xyz
'x, y, z'
_cell_length_a     29.498786
_cell_length_b     29.349327
_cell_length_c     40.57416
_cell_angle_alpha  86.443903
_cell_angle_beta   102.97724
_cell_angle_gamma 94.775269
loop_
_atom_site_label
_atom_site_type_symbol
_atom_site_fract_x
_atom_site_fract_y
_atom_site_fract_z
_atom_type_partial_charge
Nd0 Nd 0.25445 0.00796 0.07401 0.0
Nd1 Nd 0.25859 0.09156 0.1211 0.0
C2 C 0.27433 0.95376 0.03018 0.0
C3 C 0.25953 0.944 0.99386 0.0
C4 C 0.29336 0.93725 0.97558 0.0
C5 C 0.2802 0.92643 0.94147 0.0
C6 C 0.23282 0.92189 0.92492 0.0
C7 C 0.19899 0.92928 0.94322 0.0
C8 C 0.2122 0.94039 0.97729 0.0
C9 C 0.17159 0.01986 0.09007 0.0
C10 C 0.23599 0.11374 0.04014 0.0
C11 C 0.25061 0.14927 0.16686 0.0
C12 C 0.23429 0.14999 0.19875 0.0
C13 C 0.20652 0.1848 0.20298 0.0
C14 C 0.19425 0.18889 0.234 0.0
C15 C 0.20964 0.15826 0.26158 0.0
C16 C 0.236 0.12231 0.25685 0.0
C17 C 0.24817 0.11821 0.22578 0.0
C18 C 0.34007 0.07335 0.10429 0.0
C19 C 0.25843 -0.01401 0.15397 0.0
O20 O 0.2971 -0.00665 0.03765 0.0
O21 O 0.24452 0.9417 0.04923 0.0
O22 O 0.18053 0.9825 0.07783 0.0
O23 O 0.20193 0.05144 0.08584 0.0
O24 O 0.24425 0.07084 0.03621 0.0
O25 O 0.23616 0.12945 0.07001 0.0
O26 O 0.21892 0.1427 0.13901 0.0
O27 O 0.28848 0.1284 0.16789 0.0
O28 O 0.32889 0.11464 0.10703 0.0
O29 O 0.31012 0.04413 0.112 0.0
O30 O 0.2482 0.02869 0.1553 0.0
O31 O 0.26937 0.97041 0.12688 0.0
H32 H 0.33005 0.93985 0.98785 0.0
H33 H 0.30713 0.92057 0.92826 0.0
H34 H 0.16225 0.92672 0.93113 0.0
H35 H 0.18537 0.94584 0.9907 0.0
H36 H 0.19544 0.20975 0.18252 0.0
H37 H 0.1743 0.21722 0.23677 0.0
H38 H 0.24785 0.0977 0.27736 0.0
H39 H 0.26943 0.0909 0.2232 0.0
Nd40 Nd 0.06943 0.24365 0.67806 0.0
Nd41 Nd 0.98164 0.20877 0.70473 0.0
C42 C 0.12784 0.27785 0.64056 0.0
C43 C 0.12925 0.27514 0.60458 0.0
C44 C 0.08811 0.27167 0.57922 0.0
C45 C 0.08978 0.26269 0.54599 0.0
C46 C 0.13262 0.25677 0.53747 0.0
C47 C 0.17377 0.26133 0.56293 0.0
C48 C 0.17204 0.27041 0.59605 0.0
C49 C 0.07672 0.1619 0.71447 0.0
C50 C 0.9818 0.19013 0.62598 0.0
C51 C 0.91335 0.16398 0.72855 0.0
C52 C 0.89804 0.16084 0.76074 0.0
C53 C 0.92591 0.18101 0.78961 0.0
C54 C 0.91411 0.17306 0.82112 0.0
C55 C 0.87427 0.1447 0.82427 0.0
C56 C 0.84541 0.12631 0.7949 0.0
C57 C 0.85729 0.13424 0.76345 0.0
C58 C 0.9891 0.3001 0.68762 0.0
C59 C 0.07189 0.25489 0.75668 0.0
O60 O 0.09577 0.30156 0.64776 0.0
O61 O 0.13267 0.23906 0.65814 0.0
O62 O 0.11091 0.19317 0.71606 0.0
O63 O 0.04102 0.17424 0.69328 0.0
O64 O 0.0254 0.20769 0.63175 0.0
O65 O 0.95679 0.18777 0.64942 0.0
O66 O 0.95356 0.14743 0.72982 0.0
O67 O 0.90821 0.20267 0.71069 0.0
O68 O 0.97434 0.28432 0.71424 0.0
O69 O 0.99814 0.26827 0.67139 0.0
O70 O 0.03656 0.22341 0.75304 0.0
O71 O 0.08624 0.27526 0.73033 0.0
H72 H 0.05455 0.27469 0.58524 0.0
H73 H 0.05742 0.26 0.52708 0.0
H74 H 0.20732 0.25626 0.55762 0.0
H75 H 0.20412 0.27219 0.61533 0.0
H76 H 0.95766 0.20155 0.78797 0.0
H77 H 0.93736 0.18738 0.8432 0.0
H78 H 0.81413 0.1049 0.79635 0.0
H79 H 0.83538 0.11843 0.74142 0.0
Nd80 Nd 0.81392 0.91729 0.14502 0.0
Nd81 Nd 0.80627 -0.00041 0.18608 0.0
C82 C 0.83109 0.84762 0.11209 0.0
C83 C 0.83818 0.84236 0.07748 0.0
C84 C 0.8617 0.87726 0.0611 0.0
C85 C 0.86795 0.87207 0.02832 0.0
C86 C 0.85051 0.83197 1.01089 0.0
C87 C 0.82667 0.79725 0.0274 0.0
C88 C 0.82066 0.8024 0.06028 0.0
C89 C 0.72972 0.95673 0.12858 0.0
C90 C 0.83039 0.0165 0.1113 0.0
C91 C 0.79396 0.07276 0.21705 0.0
C92 C 0.8061 0.08403 0.25301 0.0
C93 C 0.81625 0.04929 0.2784 0.0
C94 C 0.83119 0.06015 0.3124 0.0
C95 C 0.83656 0.10602 0.32172 0.0
C96 C 0.82571 0.14066 0.29616 0.0
C97 C 0.81065 0.12973 0.26212 0.0
C98 C 0.88955 0.96005 0.20572 0.0
C99 C 0.79344 0.89949 0.22128 0.0
O100 O 0.86354 0.87203 0.13236 0.0
O101 O 0.78909 0.85595 0.11443 0.0
O102 O 0.74952 0.94219 0.10616 0.0
O103 O 0.75339 0.94916 0.15792 0.0
O104 O 0.8449 0.97491 0.11528 0.0
O105 O 0.80711 0.03157 0.13231 0.0
O106 O 0.76146 0.03972 0.20876 0.0
O107 O 0.82947 0.06976 0.20315 0.0
O108 O 0.86854 0.97713 0.22632 0.0
O109 O 0.86792 0.96662 0.17536 0.0
O110 O 0.78069 0.94186 0.21907 0.0
O111 O 0.8113 0.88318 0.19758 0.0
H112 H 0.8754 0.90861 0.07366 0.0
H113 H 0.88704 0.89938 1.01686 0.0
H114 H 0.81199 0.76622 1.01477 0.0
H115 H 0.80206 0.77517 0.07225 0.0
H116 H 0.81352 0.01378 0.27186 0.0
H117 H 0.83985 0.03265 0.33128 0.0
H118 H 0.82897 0.17629 0.30245 0.0
H119 H 0.80324 0.15701 0.24287 0.0
Nd120 Nd 0.06808 0.77495 0.55544 0.0
Nd121 Nd 0.9774 0.75471 0.58349 0.0
C122 C 0.13057 0.80367 0.51947 0.0
C123 C 0.13386 0.81591 0.4839 0.0
C124 C 0.14368 0.86179 0.47419 0.0
C125 C 0.14936 0.8739 0.44137 0.0
C126 C 0.14569 0.84039 0.41734 0.0
C127 C 0.13571 0.79442 0.42701 0.0
C128 C 0.12981 0.78231 0.45987 0.0
C129 C 0.05035 0.68703 0.57734 0.0
C130 C 0.96389 0.75904 0.50379 0.0
C131 C 0.91757 0.72558 0.62142 0.0
C132 C 0.91127 0.73415 0.65578 0.0
C133 C 0.90308 0.69705 0.6777 0.0
C134 C 0.8969 0.70425 0.7102 0.0
C135 C 0.89851 0.74888 0.72165 0.0
C136 C 0.90717 0.78604 0.69964 0.0
C137 C 0.9136 0.77878 0.66718 0.0
C138 C 0.99876 0.84502 0.56686 0.0
C139 C 0.08039 0.77943 0.63613 0.0
O140 O 0.10963 0.83139 0.5343 0.0
O141 O 0.12157 0.76052 0.52761 0.0
O142 O 0.0921 0.70715 0.58188 0.0
O143 O 0.02031 0.71231 0.56021 0.0
O144 O 0.00603 0.78053 0.50951 0.0
O145 O 0.94681 0.73752 0.52844 0.0
O146 O 0.95375 0.70341 0.61995 0.0
O147 O 0.9101 0.75906 0.5984 0.0
O148 O 0.95628 0.82705 0.56348 0.0
O149 O 0.02668 0.81597 0.58064 0.0
O150 O 0.03747 0.75964 0.63134 0.0
O151 O 0.09955 0.79389 0.61042 0.0
H152 H 0.14766 0.88839 0.4922 0.0
H153 H 0.15781 0.90953 0.43509 0.0
H154 H 0.13228 0.76777 0.40912 0.0
H155 H 0.12249 0.74656 0.46646 0.0
H156 H 0.90154 0.66231 0.66968 0.0
H157 H 0.89133 0.67464 0.72648 0.0
H158 H 0.90824 0.8209 0.70724 0.0
H159 H 0.9202 0.80816 0.65097 0.0
C160 C 0.95923 0.92598 0.19553 0.0
C161 C 0.9393 0.95218 0.21546 0.0
C162 C 0.00754 0.92484 0.20162 0.0
C163 C 0.03633 0.95116 0.22692 0.0
C164 C 0.01646 0.97482 0.24842 0.0
C165 C 0.96803 0.97466 0.24306 0.0
C166 C 0.08482 0.96224 0.2243 0.0
C167 C 0.09395 0.00273 0.20879 0.0
C168 C 0.11765 0.00688 0.18002 0.0
C169 C 0.1267 0.05056 0.16555 0.0
C170 C 0.14204 0.05532 0.13518 0.0
C171 C 0.14881 0.01647 0.11898 0.0
H172 H 0.11547 0.93368 0.17216 0.0
C173 C 0.13876 0.97292 0.13303 0.0
C174 C 0.12369 0.9681 0.16315 0.0
H175 H 0.14353 0.94212 0.12117 0.0
H176 H 0.93771 0.90823 0.17432 0.0
H177 H 0.0225 0.90692 0.1845 0.0
H178 H 0.03829 -0.00427 0.26775 0.0
H179 H 0.95331 -0.00498 0.25888 0.0
H180 H 0.10508 0.93339 0.22324 0.0
H181 H 0.07358 0.03119 0.21107 0.0
H182 H 0.12096 0.08104 0.17738 0.0
H183 H 0.14831 0.08912 0.12428 0.0
C184 C 0.05874 0.90762 0.584 0.0
C185 C 0.01132 0.89351 0.57296 0.0
C186 C 0.07174 0.94595 0.60333 0.0
C187 C 0.03734 0.97085 0.61117 0.0
C188 C 0.99036 0.96115 0.59545 0.0
C189 C 0.97725 0.92231 0.57648 0.0
C190 C 0.04873 0.00341 0.63832 0.0
C191 C 0.08094 -0.00399 0.66708 0.0
C192 C 0.08691 0.02808 0.69425 0.0
C193 C 0.1283 0.05604 0.70216 0.0
C194 C 0.12756 0.09885 0.71512 0.0
C195 C 0.08521 0.11334 0.71965 0.0
H196 H 0.01558 0.01693 0.70001 0.0
C197 C 0.04669 0.08161 0.71801 0.0
C198 C 0.04754 0.03888 0.70534 0.0
H199 H 0.01403 0.09185 0.72203 0.0
H200 H 0.08569 0.88642 0.58087 0.0
H201 H 0.10838 0.95415 0.61399 0.0
H202 H 0.96347 0.98091 0.60059 0.0
H203 H 0.94049 0.91243 0.56776 0.0
H204 H 0.02672 0.03191 0.63619 0.0
H205 H 0.10353 0.96793 0.67021 0.0
H206 H 0.15915 0.04769 0.69414 0.0
H207 H 0.15801 0.12265 0.71673 0.0
C208 C 0.65827 0.98305 0.0882 0.0
C209 C 0.68567 0.9795 0.12126 0.0
C210 C 0.61589 0.00379 0.08198 0.0
C211 C 0.60094 0.02195 0.10869 0.0
C212 C 0.62899 0.01939 0.14145 0.0
C213 C 0.67052 -0.00232 0.14778 0.0
C214 C 0.55575 0.04266 0.10365 0.0
C215 C 0.51645 0.02387 0.08423 0.0
C216 C 0.47008 0.03802 0.08597 0.0
C217 C 0.43395 0.00419 0.08712 0.0
C218 C 0.3915 0.01582 0.09279 0.0
C219 C 0.38396 0.0617 0.09639 0.0
H220 H 0.48927 0.11098 0.08725 0.0
C221 C 0.41928 0.09588 0.09358 0.0
C222 C 0.46217 0.08413 0.08862 0.0
H223 H 0.41423 0.13153 0.0961 0.0
H224 H 0.66926 0.96933 0.06731 0.0
H225 H 0.59503 0.00583 0.05637 0.0
H226 H 0.61804 0.03298 0.16243 0.0
H227 H 0.69052 -0.00523 0.17355 0.0
H228 H 0.55357 0.06991 0.12008 0.0
H229 H 0.51784 -0.00672 0.07078 0.0
H230 H 0.43928 0.96846 0.08513 0.0
H231 H 0.36491 -0.01125 0.09499 0.0
C232 C 0.98277 0.38311 0.69464 0.0
C233 C 0.98738 0.34764 0.67427 0.0
C234 C 0.98134 0.42821 0.68135 0.0
C235 C 0.98385 0.43803 0.6474 0.0
C236 C 0.98729 0.40232 0.62697 0.0
C237 C 0.98964 0.35758 0.64037 0.0
C238 C 0.98414 0.48514 0.63256 0.0
C239 C 0.00763 0.52049 0.64985 0.0
C240 C 0.01654 0.56492 0.63249 0.0
C241 C 0.06052 0.58836 0.64186 0.0
C242 C 0.0717 0.62794 0.62364 0.0
C243 C 0.03866 0.64511 0.59619 0.0
H244 H 0.94839 0.56596 0.59832 0.0
C245 C 0.994 0.62273 0.5876 0.0
C246 C 0.98299 0.58285 0.60559 0.0
H247 H 0.96776 0.63582 0.56681 0.0
H248 H 0.98071 0.37606 0.72081 0.0
H249 H 0.97794 0.4552 0.69748 0.0
H250 H 0.98925 0.40919 0.60075 0.0
H251 H 0.9929 0.33072 0.62406 0.0
H252 H 0.97018 0.4896 0.60547 0.0
H253 H 0.02611 0.51494 0.67599 0.0
H254 H 0.08678 0.57522 0.66262 0.0
H255 H 0.10616 0.64508 0.63106 0.0
C256 C 0.17183 0.26173 0.48798 0.0
C257 C 0.13454 0.24444 0.5026 0.0
C258 C 0.17492 0.24857 0.45603 0.0
C259 C 0.14075 0.21771 0.43776 0.0
C260 C 0.10279 0.20146 0.45185 0.0
C261 C 0.09984 0.21436 0.48395 0.0
C262 C 0.1431 0.20295 0.40366 0.0
C263 C 0.18375 0.20032 0.39407 0.0
C264 C 0.1876 0.18643 0.36007 0.0
C265 C 0.23027 0.17171 0.35647 0.0
C266 C 0.23683 0.16127 0.32477 0.0
C267 C 0.20095 0.16572 0.29563 0.0
H268 H 0.11814 0.20218 0.33245 0.0
C269 C 0.15792 0.17986 0.2992 0.0
C270 C 0.15126 0.19009 0.33103 0.0
H271 H 0.12948 0.18347 0.27731 0.0
H272 H 0.19858 0.28585 0.5011 0.0
H273 H 0.2038 0.26326 0.44555 0.0
H274 H 0.07571 0.178 0.43826 0.0
H275 H 0.07083 0.1999 0.49441 0.0
H276 H 0.1105 0.19195 0.38679 0.0
H277 H 0.21626 0.20733 0.41238 0.0
H278 H 0.25904 0.16886 0.37826 0.0
H279 H 0.27066 0.15121 0.32297 0.0
C280 C 0.87205 0.16292 0.88394 0.0
C281 C 0.86497 0.13124 0.85828 0.0
C282 C 0.8663 0.1489 0.91653 0.0
C283 C 0.85346 0.10281 0.92408 0.0
C284 C 0.84581 0.0715 0.89827 0.0
C285 C 0.85131 0.08548 0.86582 0.0
C286 C 0.85103 0.08483 0.95879 0.0
C287 C 0.84608 0.11023 0.98421 0.0
C288 C 0.84523 0.08909 1.01842 0.0
C289 C 0.81677 0.10536 0.038 0.0
C290 C 0.81297 0.08309 0.06903 0.0
C291 C 0.83798 0.04443 0.08103 0.0
H292 H 0.89609 0.03988 1.01789 0.0
C293 C 0.86853 0.03008 0.0623 0.0
C294 C 0.87226 0.05217 0.03153 0.0
H295 H 0.88911 0.00103 0.07105 0.0
H296 H 0.88248 0.19847 0.87892 0.0
H297 H 0.87341 0.17394 0.93585 0.0
H298 H 0.8363 0.03571 0.90337 0.0
H299 H 0.8464 0.05994 0.84694 0.0
H300 H 0.85226 0.04801 0.96332 0.0
H301 H 0.84019 0.14631 0.97962 0.0
H302 H 0.79615 0.13423 0.02871 0.0
H303 H 0.7893 0.0951 0.08293 0.0
C304 C 0.94435 0.79976 0.44736 0.0
C305 C 0.93453 0.76298 0.46914 0.0
C306 C 0.91668 0.80532 0.41492 0.0
C307 C 0.87877 0.7739 0.40318 0.0
C308 C 0.86947 0.73633 0.42444 0.0
C309 C 0.89671 0.73128 0.45745 0.0
C310 C 0.85002 0.7802 0.36841 0.0
C311 C 0.83631 0.82184 0.35652 0.0
C312 C 0.81605 0.83414 0.32048 0.0
C313 C 0.79106 0.87348 0.31309 0.0
C314 C 0.78017 0.89248 0.28014 0.0
C315 C 0.7947 0.87295 0.25378 0.0
H316 H 0.84715 0.78227 0.29857 0.0
C317 C 0.81669 0.83158 0.26065 0.0
C318 C 0.82726 0.81228 0.29373 0.0
H319 H 0.82842 0.81564 0.24098 0.0
H320 H 0.97315 0.82487 0.45552 0.0
H321 H 0.9253 0.83406 0.39881 0.0
H322 H 0.84068 0.71145 0.41574 0.0
H323 H 0.88853 0.70247 0.47364 0.0
H324 H 0.8411 0.75088 0.35255 0.0
H325 H 0.84224 0.84942 0.37407 0.0
H326 H 0.78203 0.89103 0.3332 0.0
H327 H 0.76291 0.92417 0.27587 0.0
C328 C 0.14009 0.82494 0.67833 0.0
C329 C 0.10457 0.78957 0.67137 0.0
C330 C 0.15856 0.8377 0.71174 0.0
C331 C 0.1419 0.81513 0.73888 0.0
C332 C 0.10779 0.77863 0.73182 0.0
C333 C 0.08916 0.76621 0.69858 0.0
C334 C 0.15843 0.82807 0.77485 0.0
C335 C 0.18008 0.8689 0.78478 0.0
C336 C 0.19311 0.88165 0.82093 0.0
C337 C 0.23017 0.91464 0.83109 0.0
C338 C 0.24311 0.9277 0.86474 0.0
C339 C 0.21877 0.90857 0.88897 0.0
H340 H 0.13853 0.83865 0.8382 0.0
C341 C 0.18106 0.87623 0.87866 0.0
C342 C 0.16832 0.86297 0.8451 0.0
H343 H 0.16163 0.8607 0.89667 0.0
H344 H 0.15261 0.84371 0.65791 0.0
H345 H 0.18566 0.86521 0.716 0.0
H346 H 0.09451 0.76027 0.75208 0.0
H347 H 0.06199 0.73865 0.69419 0.0
H348 H 0.15077 0.80291 0.79398 0.0
H349 H 0.18883 0.89415 0.7661 0.0
H350 H 0.24947 0.93014 0.81298 0.0
H351 H 0.27188 0.9532 0.87169 0.0
C352 C 0.86511 0.78347 0.96528 0.0
C353 C 0.85718 0.82644 0.97577 0.0
C354 C 0.87161 0.77835 0.93252 0.0
C355 C 0.87036 0.81613 0.90923 0.0
C356 C 0.86293 0.85907 0.91978 0.0
C357 C 0.85612 0.86415 0.95243 0.0
C358 C 0.87833 0.81248 0.87432 0.0
C359 C 0.86961 0.77347 0.85721 0.0
C360 C 0.87684 0.76941 0.82215 0.0
C361 C 0.85223 0.73364 0.80264 0.0
C362 C 0.85883 0.72741 0.77014 0.0
C363 C 0.89085 0.75643 0.75621 0.0
H364 H 0.92943 0.82597 0.82273 0.0
C365 C 0.91563 0.79231 0.77578 0.0
C366 C 0.90876 0.79874 0.80829 0.0
H367 H 0.94123 0.81491 0.76633 0.0
H368 H 0.86729 0.75376 0.98262 0.0
H369 H 0.87871 0.74492 0.92592 0.0
H370 H 0.86198 0.88889 0.90256 0.0
H371 H 0.84952 0.8977 0.95918 0.0
H372 H 0.88962 0.84375 0.8618 0.0
H373 H 0.85437 0.74328 0.86865 0.0
H374 H 0.82749 0.71039 0.81254 0.0
H375 H 0.83841 0.69989 0.75584 0.0
C376 C 0.25991 0.97515 0.21531 0.0
C377 C 0.25345 0.95554 0.18371 0.0
C378 C 0.24617 0.9509 0.24247 0.0
C379 C 0.22532 0.90616 0.23886 0.0
C380 C 0.22169 0.88518 0.20799 0.0
C381 C 0.23544 0.90977 0.18049 0.0
C382 C 0.20769 0.88145 0.2673 0.0
C383 C 0.18866 0.90383 0.28843 0.0
C384 C 0.17411 0.88338 0.31942 0.0
C385 C 0.1464 0.90856 0.33458 0.0
C386 C 0.13609 0.89391 0.3657 0.0
C387 C 0.15336 0.8536 0.38272 0.0
H388 H 0.2123 0.8221 0.3254 0.0
C389 C 0.17977 0.82742 0.36704 0.0
C390 C 0.19018 0.84216 0.3358 0.0
H391 H 0.19404 0.79643 0.37957 0.0
H392 H 0.27441 0.01007 0.21881 0.0
H393 H 0.25147 0.9676 0.26624 0.0
H394 H 0.20642 0.85045 0.20469 0.0
H395 H 0.22959 0.89389 0.15636 0.0
H396 H 0.20948 0.8446 0.27018 0.0
H397 H 0.18338 0.93996 0.2828 0.0
H398 H 0.13339 0.94039 0.32263 0.0
H399 H 0.11497 0.91455 0.37665 0.0
C400 C 0.07881 0.25157 0.81894 0.0
C401 C 0.1002 0.26037 0.79135 0.0
C402 C 0.10556 0.24401 0.85157 0.0
C403 C 0.1545 0.24488 0.85733 0.0
C404 C 0.17598 0.25673 0.83006 0.0
C405 C 0.14909 0.26486 0.79736 0.0
C406 C 0.18297 0.22722 0.89 0.0
C407 C 0.16918 0.22629 0.91955 0.0
C408 C 0.19179 0.19989 0.95051 0.0
C409 C 0.18703 0.21282 0.98221 0.0
C410 C 0.20291 0.18572 1.01147 0.0
C411 C 0.22315 0.14449 1.00959 0.0
H412 H 0.21657 0.14756 0.92465 0.0
C413 C 0.22877 0.13195 0.97793 0.0
C414 C 0.21338 0.15936 0.94872 0.0
H415 H 0.24418 0.10041 0.97554 0.0
H416 H 0.04114 0.24765 0.81498 0.0
H417 H 0.08741 0.23412 0.87158 0.0
H418 H 0.21355 0.2574 0.83372 0.0
H419 H 0.1665 0.27094 0.7765 0.0
H420 H 0.21538 0.21265 0.88926 0.0
H421 H 0.13934 0.24468 0.92114 0.0
H422 H 0.17009 0.24356 0.98428 0.0
H423 H 0.19784 0.19642 0.03538 0.0
C424 C 0.84097 0.09093 0.38423 0.0
C425 C 0.85497 0.1177 0.35777 0.0
C426 C 0.85953 0.10113 0.41811 0.0
C427 C 0.8925 0.13854 0.42634 0.0
C428 C 0.90648 0.16512 0.39986 0.0
C429 C 0.88789 0.15499 0.36605 0.0
C430 C 0.91465 0.15014 0.46195 0.0
C431 C 0.89722 0.1357 0.48919 0.0
C432 C 0.91995 0.14843 0.52445 0.0
C433 C 0.89276 0.14767 0.54888 0.0
C434 C 0.91273 0.16042 0.58203 0.0
C435 C 0.96054 0.17391 0.59156 0.0
H436 H 0.99078 0.15982 0.51684 0.0
C437 C 0.98801 0.17317 0.56739 0.0
C438 C 0.9681 0.16049 0.53434 0.0
H439 H 0.02516 0.18254 0.57389 0.0
H440 H 0.81558 0.06204 0.37878 0.0
H441 H 0.8485 0.07897 0.43758 0.0
H442 H 0.93214 0.19384 0.40531 0.0
H443 H 0.90016 0.17586 0.34641 0.0
H444 H 0.94583 0.1733 0.46548 0.0
H445 H 0.86394 0.11585 0.48566 0.0
H446 H 0.85571 0.13796 0.54216 0.0
H447 H 0.89056 0.16036 0.59996 0.0
loop_
_geom_bond_atom_site_label_1
_geom_bond_atom_site_label_2
_geom_bond_distance
_geom_bond_site_symmetry_2
_ccdc_geom_bond_type
Nd0 C2 2.836 1_554 S
Nd0 O20 2.500 . S
Nd0 O21 2.492 . S
Nd0 O22 2.487 . S
Nd0 O23 2.682 1_565 S
Nd0 O24 2.410 1_565 S
Nd0 O29 2.414 1_565 S
Nd0 O31 2.424 . S
Nd1 C11 2.836 . S
Nd1 O23 2.414 . S
Nd1 O25 2.424 . S
Nd1 O26 2.500 . S
Nd1 O27 2.492 . S
Nd1 O28 2.487 . S
Nd1 O29 2.682 . S
Nd1 O30 2.410 . S
C2 Nd0 2.836 1_556 S
C2 C3 1.498 . S
C2 O20 1.258 1_556 S
C2 O21 1.239 1_556 S
C3 C2 1.498 . S
C3 C4 1.366 . S
C3 C8 1.407 . S
C4 C3 1.366 . S
C4 C5 1.392 . S
C4 H32 0.930 . S
C5 C4 1.392 . S
C5 C6 1.398 . S
C5 H33 0.929 . S
C6 C5 1.398 . S
C6 C7 1.352 . S
C7 C6 1.352 . S
C7 C8 1.384 . S
C7 H34 0.930 . S
C8 C3 1.407 . S
C8 C7 1.384 . S
C8 H35 0.929 . S
C9 O22 1.241 1_545 S
C9 O23 1.273 . S
C10 O24 1.251 . S
C10 O25 1.268 . S
C11 Nd1 2.836 . S
C11 C12 1.498 . S
C11 O26 1.258 . S
C11 O27 1.239 . S
C12 C11 1.498 . S
C12 C13 1.366 . S
C12 C17 1.407 . S
C13 C12 1.366 . S
C13 C14 1.392 . S
C13 H36 0.930 . S
C14 C13 1.392 . S
C14 C15 1.398 . S
C14 H37 0.929 . S
C15 C14 1.398 . S
C15 C16 1.352 . S
C16 C15 1.352 . S
C16 C17 1.384 . S
C16 H38 0.930 . S
C17 C12 1.407 . S
C17 C16 1.384 . S
C17 H39 0.929 . S
C18 O28 1.241 . S
C18 O29 1.273 . S
C19 O30 1.251 1_565 S
C19 O31 1.268 . S
O20 Nd0 2.500 . S
O20 C2 1.258 1_554 S
O21 Nd0 2.492 . S
O21 C2 1.239 1_554 S
O22 Nd0 2.487 . S
O22 C9 1.241 1_565 S
O23 Nd0 2.682 1_545 S
O23 Nd1 2.414 . S
O23 C9 1.273 . S
O24 Nd0 2.410 1_545 S
O24 C10 1.251 . S
O25 Nd1 2.424 . S
O25 C10 1.268 . S
O26 Nd1 2.500 . S
O26 C11 1.258 . S
O27 Nd1 2.492 . S
O27 C11 1.239 . S
O28 Nd1 2.487 . S
O28 C18 1.241 . S
O29 Nd0 2.414 1_545 S
O29 Nd1 2.682 . S
O29 C18 1.273 . S
O30 Nd1 2.410 . S
O30 C19 1.251 1_545 S
O31 Nd0 2.424 . S
O31 C19 1.268 . S
H32 C4 0.930 . S
H33 C5 0.929 . S
H34 C7 0.930 . S
H35 C8 0.929 . S
H36 C13 0.930 . S
H37 C14 0.929 . S
H38 C16 0.930 . S
H39 C17 0.929 . S
Nd40 C42 2.836 . S
Nd40 O60 2.500 . S
Nd40 O61 2.492 . S
Nd40 O62 2.487 . S
Nd40 O63 2.682 . S
Nd40 O64 2.410 . S
Nd40 O69 2.414 . S
Nd40 O71 2.424 . S
Nd41 C51 2.836 . S
Nd41 O63 2.414 1_655 S
Nd41 O65 2.424 . S
Nd41 O66 2.500 . S
Nd41 O67 2.492 . S
Nd41 O68 2.487 1_655 S
Nd41 O69 2.682 1_655 S
Nd41 O70 2.410 1_655 S
C42 Nd40 2.836 . S
C42 C43 1.498 . S
C42 O60 1.258 . S
C42 O61 1.239 . S
C43 C42 1.498 . S
C43 C44 1.366 . S
C43 C48 1.407 . S
C44 C43 1.366 . S
C44 C45 1.392 . S
C44 H72 0.930 . S
C45 C44 1.392 . S
C45 C46 1.398 . S
C45 H73 0.929 . S
C46 C45 1.398 . S
C46 C47 1.352 . S
C47 C46 1.352 . S
C47 C48 1.384 . S
C47 H74 0.930 . S
C48 C43 1.407 . S
C48 C47 1.384 . S
C48 H75 0.929 . S
C49 O62 1.241 . S
C49 O63 1.273 . S
C50 O64 1.251 . S
C50 O65 1.268 1_455 S
C51 Nd41 2.836 . S
C51 C52 1.498 . S
C51 O66 1.258 . S
C51 O67 1.239 . S
C52 C51 1.498 . S
C52 C53 1.366 . S
C52 C57 1.407 . S
C53 C52 1.366 . S
C53 C54 1.392 . S
C53 H76 0.930 . S
C54 C53 1.392 . S
C54 C55 1.398 . S
C54 H77 0.929 . S
C55 C54 1.398 . S
C55 C56 1.352 . S
C56 C55 1.352 . S
C56 C57 1.384 . S
C56 H78 0.930 . S
C57 C52 1.407 . S
C57 C56 1.384 . S
C57 H79 0.929 . S
C58 O68 1.241 . S
C58 O69 1.273 . S
C59 O70 1.251 . S
C59 O71 1.268 . S
O60 Nd40 2.500 . S
O60 C42 1.258 . S
O61 Nd40 2.492 . S
O61 C42 1.239 . S
O62 Nd40 2.487 . S
O62 C49 1.241 . S
O63 Nd40 2.682 . S
O63 Nd41 2.414 1_455 S
O63 C49 1.273 . S
O64 Nd40 2.410 . S
O64 C50 1.251 . S
O65 Nd41 2.424 . S
O65 C50 1.268 1_655 S
O66 Nd41 2.500 . S
O66 C51 1.258 . S
O67 Nd41 2.492 . S
O67 C51 1.239 . S
O68 Nd41 2.487 1_455 S
O68 C58 1.241 . S
O69 Nd40 2.414 . S
O69 Nd41 2.682 1_455 S
O69 C58 1.273 . S
O70 Nd41 2.410 1_455 S
O70 C59 1.251 . S
O71 Nd40 2.424 . S
O71 C59 1.268 . S
H72 C44 0.930 . S
H73 C45 0.929 . S
H74 C47 0.930 . S
H75 C48 0.929 . S
H76 C53 0.930 . S
H77 C54 0.929 . S
H78 C56 0.930 . S
H79 C57 0.929 . S
Nd80 C82 2.836 . S
Nd80 O100 2.500 . S
Nd80 O101 2.492 . S
Nd80 O102 2.487 . S
Nd80 O103 2.682 1_565 S
Nd80 O104 2.410 1_565 S
Nd80 O109 2.414 1_565 S
Nd80 O111 2.424 . S
Nd81 C91 2.836 . S
Nd81 O103 2.414 . S
Nd81 O105 2.424 . S
Nd81 O106 2.500 . S
Nd81 O107 2.492 . S
Nd81 O108 2.487 . S
Nd81 O109 2.682 . S
Nd81 O110 2.427 . S
C82 Nd80 2.836 . S
C82 C83 1.498 . S
C82 O100 1.258 . S
C82 O101 1.239 . S
C83 C82 1.498 . S
C83 C84 1.357 1_554 S
C83 C88 1.407 1_554 S
C84 C83 1.357 1_556 S
C84 C85 1.408 . S
C84 H112 0.924 1_556 S
C85 C84 1.408 . S
C85 C86 1.398 . S
C85 H113 0.929 . S
C86 C85 1.398 . S
C86 C87 1.352 . S
C87 C86 1.352 . S
C87 C88 1.384 . S
C87 H114 0.930 . S
C88 C83 1.407 1_556 S
C88 C87 1.384 . S
C88 H115 0.929 1_556 S
C89 O102 1.241 . S
C89 O103 1.273 1_565 S
C90 O104 1.251 . S
C90 O105 1.268 . S
C91 Nd81 2.836 . S
C91 C92 1.498 . S
C91 O106 1.258 . S
C91 O107 1.239 . S
C92 C91 1.498 . S
C92 C93 1.366 . S
C92 C97 1.407 . S
C93 C92 1.366 . S
C93 C94 1.392 . S
C93 H116 0.930 . S
C94 C93 1.392 . S
C94 C95 1.398 . S
C94 H117 0.929 . S
C95 C94 1.398 . S
C95 C96 1.352 . S
C96 C95 1.352 . S
C96 C97 1.384 . S
C96 H118 0.930 . S
C97 C92 1.407 . S
C97 C96 1.384 . S
C97 H119 0.929 . S
C98 O108 1.241 . S
C98 O109 1.273 . S
C99 O110 1.232 1_565 S
C99 O111 1.268 . S
O100 Nd80 2.500 . S
O100 C82 1.258 . S
O101 Nd80 2.492 . S
O101 C82 1.239 . S
O102 Nd80 2.487 . S
O102 C89 1.241 . S
O103 Nd80 2.682 1_545 S
O103 Nd81 2.414 . S
O103 C89 1.273 1_545 S
O104 Nd80 2.410 1_545 S
O104 C90 1.251 . S
O105 Nd81 2.424 . S
O105 C90 1.268 . S
O106 Nd81 2.500 . S
O106 C91 1.258 . S
O107 Nd81 2.492 . S
O107 C91 1.239 . S
O108 Nd81 2.487 . S
O108 C98 1.241 . S
O109 Nd80 2.414 1_545 S
O109 Nd81 2.682 . S
O109 C98 1.273 . S
O110 Nd81 2.427 . S
O110 C99 1.232 1_545 S
O111 Nd80 2.424 . S
O111 C99 1.268 . S
H112 C84 0.924 1_554 S
H113 C85 0.929 . S
H114 C87 0.930 . S
H115 C88 0.929 1_554 S
H116 C93 0.930 . S
H117 C94 0.929 . S
H118 C96 0.930 . S
H119 C97 0.929 . S
Nd120 C122 2.836 . S
Nd120 O140 2.500 . S
Nd120 O141 2.492 . S
Nd120 O142 2.487 . S
Nd120 O143 2.682 1_455 S
Nd120 O144 2.410 1_455 S
Nd120 O149 2.414 . S
Nd120 O151 2.424 . S
Nd121 C131 2.836 . S
Nd121 O143 2.414 . S
Nd121 O145 2.424 . S
Nd121 O146 2.500 . S
Nd121 O147 2.492 . S
Nd121 O148 2.487 . S
Nd121 O149 2.682 1_655 S
Nd121 O150 2.410 1_655 S
C122 Nd120 2.836 . S
C122 C123 1.498 . S
C122 O140 1.258 . S
C122 O141 1.239 . S
C123 C122 1.498 . S
C123 C124 1.366 . S
C123 C128 1.407 . S
C124 C123 1.366 . S
C124 C125 1.392 . S
C124 H152 0.930 . S
C125 C124 1.392 . S
C125 C126 1.398 . S
C125 H153 0.929 . S
C126 C125 1.398 . S
C126 C127 1.352 . S
C127 C126 1.352 . S
C127 C128 1.384 . S
C127 H154 0.930 . S
C128 C123 1.407 . S
C128 C127 1.384 . S
C128 H155 0.929 . S
C129 O142 1.241 . S
C129 O143 1.273 1_455 S
C130 O144 1.251 . S
C130 O145 1.268 . S
C131 Nd121 2.836 . S
C131 C132 1.498 . S
C131 O146 1.258 . S
C131 O147 1.239 . S
C132 C131 1.498 . S
C132 C133 1.366 . S
C132 C137 1.407 . S
C133 C132 1.366 . S
C133 C134 1.392 . S
C133 H156 0.930 . S
C134 C133 1.392 . S
C134 C135 1.398 . S
C134 H157 0.929 . S
C135 C134 1.398 . S
C135 C136 1.352 . S
C136 C135 1.352 . S
C136 C137 1.384 . S
C136 H158 0.930 . S
C137 C132 1.407 . S
C137 C136 1.384 . S
C137 H159 0.929 . S
C138 O148 1.241 . S
C138 O149 1.273 1_655 S
C139 O150 1.251 . S
C139 O151 1.268 . S
O140 Nd120 2.500 . S
O140 C122 1.258 . S
O141 Nd120 2.492 . S
O141 C122 1.239 . S
O142 Nd120 2.487 . S
O142 C129 1.241 . S
O143 Nd120 2.682 1_655 S
O143 Nd121 2.414 . S
O143 C129 1.273 1_655 S
O144 Nd120 2.410 1_655 S
O144 C130 1.251 . S
O145 Nd121 2.424 . S
O145 C130 1.268 . S
O146 Nd121 2.500 . S
O146 C131 1.258 . S
O147 Nd121 2.492 . S
O147 C131 1.239 . S
O148 Nd121 2.487 . S
O148 C138 1.241 . S
O149 Nd120 2.414 . S
O149 Nd121 2.682 1_455 S
O149 C138 1.273 1_455 S
O150 Nd121 2.410 1_455 S
O150 C139 1.251 . S
O151 Nd120 2.424 . S
O151 C139 1.268 . S
H152 C124 0.930 . S
H153 C125 0.929 . S
H154 C127 0.930 . S
H155 C128 0.929 . S
H156 C133 0.930 . S
H157 C134 0.929 . S
H158 C136 0.930 . S
H159 C137 0.929 . S
C160 C161 1.386 . S
C160 C162 1.383 . S
C160 H176 0.951 . S
C161 C160 1.386 . S
C161 C165 1.383 1_545 S
C162 C160 1.383 . S
C162 C163 1.402 1_545 S
C162 H177 0.951 . S
C163 C162 1.402 1_565 S
C163 C164 1.375 . S
C163 C166 1.481 1_655 S
C164 C163 1.375 . S
C164 C165 1.367 . S
C164 H178 0.951 . S
C165 C161 1.383 1_565 S
C165 C164 1.367 . S
C165 H179 0.950 . S
C166 C163 1.481 1_455 S
C166 C167 1.297 1_565 S
C166 H180 0.950 . S
C167 C166 1.297 1_545 S
C167 C168 1.479 . S
C167 H181 0.950 . S
C168 C167 1.479 . S
C168 C169 1.375 . S
C168 C174 1.404 1_545 S
C169 C168 1.375 . S
C169 C170 1.369 . S
C169 H182 0.950 . S
C170 C169 1.369 . S
C170 C171 1.392 . S
C170 H183 0.951 . S
C171 C170 1.392 . S
C171 C173 1.384 1_545 S
H172 C174 0.949 . S
C173 C171 1.384 1_565 S
C173 C174 1.385 . S
C173 H175 0.950 . S
C174 C168 1.404 1_565 S
C174 H172 0.949 . S
C174 C173 1.385 . S
H175 C173 0.950 . S
H176 C160 0.951 . S
H177 C162 0.951 . S
H178 C164 0.951 . S
H179 C165 0.950 . S
H180 C166 0.950 . S
H181 C167 0.950 . S
H182 C169 0.950 . S
H183 C170 0.951 . S
C184 C185 1.386 1_455 S
C184 C186 1.383 . S
C184 H200 0.951 . S
C185 C184 1.386 1_655 S
C185 C189 1.383 . S
C186 C184 1.383 . S
C186 C187 1.402 . S
C186 H201 0.951 . S
C187 C186 1.402 . S
C187 C188 1.375 1_455 S
C187 C190 1.481 1_565 S
C188 C187 1.375 1_655 S
C188 C189 1.367 . S
C188 H202 0.951 . S
C189 C185 1.383 . S
C189 C188 1.367 . S
C189 H203 0.950 . S
C190 C187 1.481 1_545 S
C190 C191 1.297 . S
C190 H204 0.950 1_455 S
C191 C190 1.297 . S
C191 C192 1.479 . S
C191 H205 0.950 . S
C192 C191 1.479 . S
C192 C193 1.375 . S
C192 C198 1.404 . S
C193 C192 1.375 . S
C193 C194 1.369 . S
C193 H206 0.950 . S
C194 C193 1.369 . S
C194 C195 1.392 . S
C194 H207 0.951 . S
C195 C194 1.392 . S
C195 C197 1.384 . S
H196 C198 0.949 1_655 S
C197 C195 1.384 . S
C197 C198 1.385 . S
C197 H199 0.950 1_455 S
C198 C192 1.404 . S
C198 H196 0.949 1_455 S
C198 C197 1.385 . S
H199 C197 0.950 1_655 S
H200 C184 0.951 . S
H201 C186 0.951 . S
H202 C188 0.951 . S
H203 C189 0.950 . S
H204 C190 0.950 1_655 S
H205 C191 0.950 . S
H206 C193 0.950 . S
H207 C194 0.951 . S
C208 C209 1.386 1_565 S
C208 C210 1.383 . S
C208 H224 0.951 . S
C209 C208 1.386 1_545 S
C209 C213 1.383 . S
C210 C208 1.383 . S
C210 C211 1.402 1_565 S
C210 H225 0.951 . S
C211 C210 1.402 1_545 S
C211 C212 1.375 . S
C211 C214 1.481 . S
C212 C211 1.375 . S
C212 C213 1.367 . S
C212 H226 0.951 . S
C213 C209 1.383 . S
C213 C212 1.367 . S
C213 H227 0.950 . S
C214 C211 1.481 . S
C214 C215 1.297 . S
C214 H228 0.950 . S
C215 C214 1.297 . S
C215 C216 1.479 . S
C215 H229 0.950 1_545 S
C216 C215 1.479 . S
C216 C217 1.375 1_545 S
C216 C222 1.404 . S
C217 C216 1.375 1_565 S
C217 C218 1.369 . S
C217 H230 0.950 . S
C218 C217 1.369 . S
C218 C219 1.392 1_565 S
C218 H231 0.951 . S
C219 C218 1.392 1_545 S
C219 C221 1.384 . S
H220 C222 0.949 . S
C221 C219 1.384 . S
C221 C222 1.385 . S
C221 H223 0.950 . S
C222 C216 1.404 . S
C222 H220 0.949 . S
C222 C221 1.385 . S
H223 C221 0.950 . S
H224 C208 0.951 . S
H225 C210 0.951 . S
H226 C212 0.951 . S
H227 C213 0.950 . S
H228 C214 0.950 . S
H229 C215 0.950 1_565 S
H230 C217 0.950 . S
H231 C218 0.951 . S
C232 C233 1.386 . S
C232 C234 1.383 . S
C232 H248 0.951 . S
C233 C232 1.386 . S
C233 C237 1.383 . S
C234 C232 1.383 . S
C234 C235 1.402 . S
C234 H249 0.951 . S
C235 C234 1.402 . S
C235 C236 1.375 . S
C235 C238 1.481 . S
C236 C235 1.375 . S
C236 C237 1.367 . S
C236 H250 0.951 1_455 S
C237 C233 1.383 . S
C237 C236 1.367 . S
C237 H251 0.950 1_455 S
C238 C235 1.481 . S
C238 C239 1.297 . S
C238 H252 0.950 1_455 S
C239 C238 1.297 . S
C239 C240 1.479 . S
C239 H253 0.950 . S
C240 C239 1.479 . S
C240 C241 1.375 . S
C240 C246 1.404 1_455 S
C241 C240 1.375 . S
C241 C242 1.369 . S
C241 H254 0.950 . S
C242 C241 1.369 . S
C242 C243 1.392 . S
C242 H255 0.951 . S
C243 C242 1.392 . S
C243 C245 1.384 1_455 S
H244 C246 0.949 . S
C245 C243 1.384 1_655 S
C245 C246 1.385 . S
C245 H247 0.950 . S
C246 C240 1.404 1_655 S
C246 H244 0.949 . S
C246 C245 1.385 . S
H247 C245 0.950 . S
H248 C232 0.951 . S
H249 C234 0.951 . S
H250 C236 0.951 1_655 S
H251 C237 0.950 1_655 S
H252 C238 0.950 1_655 S
H253 C239 0.950 . S
H254 C241 0.950 . S
H255 C242 0.951 . S
C256 C257 1.386 . S
C256 C258 1.383 . S
C256 H272 0.951 . S
C257 C256 1.386 . S
C257 C261 1.383 . S
C258 C256 1.383 . S
C258 C259 1.402 . S
C258 H273 0.951 . S
C259 C258 1.402 . S
C259 C260 1.375 . S
C259 C262 1.481 . S
C260 C259 1.375 . S
C260 C261 1.367 . S
C260 H274 0.951 . S
C261 C257 1.383 . S
C261 C260 1.367 . S
C261 H275 0.950 . S
C262 C259 1.481 . S
C262 C263 1.297 . S
C262 H276 0.950 . S
C263 C262 1.297 . S
C263 C264 1.479 . S
C263 H277 0.950 . S
C264 C263 1.479 . S
C264 C265 1.375 . S
C264 C270 1.404 . S
C265 C264 1.375 . S
C265 C266 1.369 . S
C265 H278 0.950 . S
C266 C265 1.369 . S
C266 C267 1.392 . S
C266 H279 0.951 . S
C267 C266 1.392 . S
C267 C269 1.384 . S
H268 C270 0.949 . S
C269 C267 1.384 . S
C269 C270 1.385 . S
C269 H271 0.950 . S
C270 C264 1.404 . S
C270 H268 0.949 . S
C270 C269 1.385 . S
H271 C269 0.950 . S
H272 C256 0.951 . S
H273 C258 0.951 . S
H274 C260 0.951 . S
H275 C261 0.950 . S
H276 C262 0.950 . S
H277 C263 0.950 . S
H278 C265 0.950 . S
H279 C266 0.951 . S
C280 C281 1.386 . S
C280 C282 1.383 . S
C280 H296 0.951 . S
C281 C280 1.386 . S
C281 C285 1.383 . S
C282 C280 1.383 . S
C282 C283 1.402 . S
C282 H297 0.951 . S
C283 C282 1.402 . S
C283 C284 1.375 . S
C283 C286 1.481 . S
C284 C283 1.375 . S
C284 C285 1.367 . S
C284 H298 0.951 . S
C285 C281 1.383 . S
C285 C284 1.367 . S
C285 H299 0.950 . S
C286 C283 1.481 . S
C286 C287 1.297 . S
C286 H300 0.950 . S
C287 C286 1.297 . S
C287 C288 1.479 . S
C287 H301 0.950 . S
C288 C287 1.479 . S
C288 C289 1.375 1_556 S
C288 C294 1.404 . S
C289 C288 1.375 1_554 S
C289 C290 1.369 . S
C289 H302 0.950 . S
C290 C289 1.369 . S
C290 C291 1.392 . S
C290 H303 0.951 . S
C291 C290 1.392 . S
C291 C293 1.384 . S
H292 C294 0.949 . S
C293 C291 1.384 . S
C293 C294 1.385 1_554 S
C293 H295 0.950 . S
C294 C288 1.404 . S
C294 H292 0.949 . S
C294 C293 1.385 1_556 S
H295 C293 0.950 . S
H296 C280 0.951 . S
H297 C282 0.951 . S
H298 C284 0.951 . S
H299 C285 0.950 . S
H300 C286 0.950 . S
H301 C287 0.950 . S
H302 C289 0.950 . S
H303 C290 0.951 . S
C304 C305 1.386 . S
C304 C306 1.383 . S
C304 H320 0.951 . S
C305 C304 1.386 . S
C305 C309 1.383 . S
C306 C304 1.383 . S
C306 C307 1.402 . S
C306 H321 0.951 . S
C307 C306 1.402 . S
C307 C308 1.375 . S
C307 C310 1.481 . S
C308 C307 1.375 . S
C308 C309 1.367 . S
C308 H322 0.951 . S
C309 C305 1.383 . S
C309 C308 1.367 . S
C309 H323 0.950 . S
C310 C307 1.481 . S
C310 C311 1.297 . S
C310 H324 0.950 . S
C311 C310 1.297 . S
C311 C312 1.479 . S
C311 H325 0.950 . S
C312 C311 1.479 . S
C312 C313 1.375 . S
C312 C318 1.404 . S
C313 C312 1.375 . S
C313 C314 1.369 . S
C313 H326 0.950 . S
C314 C313 1.369 . S
C314 C315 1.392 . S
C314 H327 0.951 . S
C315 C314 1.392 . S
C315 C317 1.384 . S
H316 C318 0.949 . S
C317 C315 1.384 . S
C317 C318 1.385 . S
C317 H319 0.950 . S
C318 C312 1.404 . S
C318 H316 0.949 . S
C318 C317 1.385 . S
H319 C317 0.950 . S
H320 C304 0.951 . S
H321 C306 0.951 . S
H322 C308 0.951 . S
H323 C309 0.950 . S
H324 C310 0.950 . S
H325 C311 0.950 . S
H326 C313 0.950 . S
H327 C314 0.951 . S
C328 C329 1.386 . S
C328 C330 1.383 . S
C328 H344 0.951 . S
C329 C328 1.386 . S
C329 C333 1.383 . S
C330 C328 1.383 . S
C330 C331 1.402 . S
C330 H345 0.951 . S
C331 C330 1.402 . S
C331 C332 1.375 . S
C331 C334 1.481 . S
C332 C331 1.375 . S
C332 C333 1.367 . S
C332 H346 0.951 . S
C333 C329 1.383 . S
C333 C332 1.367 . S
C333 H347 0.950 . S
C334 C331 1.481 . S
C334 C335 1.297 . S
C334 H348 0.950 . S
C335 C334 1.297 . S
C335 C336 1.479 . S
C335 H349 0.950 . S
C336 C335 1.479 . S
C336 C337 1.375 . S
C336 C342 1.404 . S
C337 C336 1.375 . S
C337 C338 1.369 . S
C337 H350 0.950 . S
C338 C337 1.369 . S
C338 C339 1.392 . S
C338 H351 0.951 . S
C339 C338 1.392 . S
C339 C341 1.384 . S
H340 C342 0.949 . S
C341 C339 1.384 . S
C341 C342 1.385 . S
C341 H343 0.950 . S
C342 C336 1.404 . S
C342 H340 0.949 . S
C342 C341 1.385 . S
H343 C341 0.950 . S
H344 C328 0.951 . S
H345 C330 0.951 . S
H346 C332 0.951 . S
H347 C333 0.950 . S
H348 C334 0.950 . S
H349 C335 0.950 . S
H350 C337 0.950 . S
H351 C338 0.951 . S
C352 C353 1.386 . S
C352 C354 1.383 . S
C352 H368 0.951 . S
C353 C352 1.386 . S
C353 C357 1.383 . S
C354 C352 1.383 . S
C354 C355 1.402 . S
C354 H369 0.951 . S
C355 C354 1.402 . S
C355 C356 1.375 . S
C355 C358 1.481 . S
C356 C355 1.375 . S
C356 C357 1.367 . S
C356 H370 0.951 . S
C357 C353 1.383 . S
C357 C356 1.367 . S
C357 H371 0.950 . S
C358 C355 1.481 . S
C358 C359 1.297 . S
C358 H372 0.950 . S
C359 C358 1.297 . S
C359 C360 1.479 . S
C359 H373 0.950 . S
C360 C359 1.479 . S
C360 C361 1.375 . S
C360 C366 1.404 . S
C361 C360 1.375 . S
C361 C362 1.369 . S
C361 H374 0.950 . S
C362 C361 1.369 . S
C362 C363 1.392 . S
C362 H375 0.951 . S
C363 C362 1.392 . S
C363 C365 1.384 . S
H364 C366 0.949 . S
C365 C363 1.384 . S
C365 C366 1.385 . S
C365 H367 0.950 . S
C366 C360 1.404 . S
C366 H364 0.949 . S
C366 C365 1.385 . S
H367 C365 0.950 . S
H368 C352 0.951 . S
H369 C354 0.951 . S
H370 C356 0.951 . S
H371 C357 0.950 . S
H372 C358 0.950 . S
H373 C359 0.950 . S
H374 C361 0.950 . S
H375 C362 0.951 . S
C376 C377 1.386 . S
C376 C378 1.383 . S
C376 H392 0.951 . S
C377 C376 1.386 . S
C377 C381 1.383 . S
C378 C376 1.383 . S
C378 C379 1.402 . S
C378 H393 0.951 . S
C379 C378 1.402 . S
C379 C380 1.375 . S
C379 C382 1.481 . S
C380 C379 1.375 . S
C380 C381 1.367 . S
C380 H394 0.951 . S
C381 C377 1.383 . S
C381 C380 1.367 . S
C381 H395 0.950 . S
C382 C379 1.481 . S
C382 C383 1.297 . S
C382 H396 0.950 . S
C383 C382 1.297 . S
C383 C384 1.479 . S
C383 H397 0.950 . S
C384 C383 1.479 . S
C384 C385 1.375 . S
C384 C390 1.404 . S
C385 C384 1.375 . S
C385 C386 1.369 . S
C385 H398 0.950 . S
C386 C385 1.369 . S
C386 C387 1.392 . S
C386 H399 0.951 . S
C387 C386 1.392 . S
C387 C389 1.384 . S
H388 C390 0.949 . S
C389 C387 1.384 . S
C389 C390 1.385 . S
C389 H391 0.950 . S
C390 C384 1.404 . S
C390 H388 0.949 . S
C390 C389 1.385 . S
H391 C389 0.950 . S
H392 C376 0.951 . S
H393 C378 0.951 . S
H394 C380 0.951 . S
H395 C381 0.950 . S
H396 C382 0.950 . S
H397 C383 0.950 . S
H398 C385 0.950 . S
H399 C386 0.951 . S
C400 C401 1.386 . S
C400 C402 1.383 . S
C400 H416 0.951 . S
C401 C400 1.386 . S
C401 C405 1.383 . S
C402 C400 1.383 . S
C402 C403 1.402 . S
C402 H417 0.951 . S
C403 C402 1.402 . S
C403 C404 1.375 . S
C403 C406 1.481 . S
C404 C403 1.375 . S
C404 C405 1.367 . S
C404 H418 0.951 . S
C405 C401 1.383 . S
C405 C404 1.367 . S
C405 H419 0.950 . S
C406 C403 1.481 . S
C406 C407 1.297 . S
C406 H420 0.950 . S
C407 C406 1.297 . S
C407 C408 1.479 . S
C407 H421 0.950 . S
C408 C407 1.479 . S
C408 C409 1.375 . S
C408 C414 1.404 . S
C409 C408 1.375 . S
C409 C410 1.369 . S
C409 H422 0.950 . S
C410 C409 1.369 . S
C410 C411 1.392 . S
C410 H423 0.951 . S
C411 C410 1.392 . S
C411 C413 1.384 . S
H412 C414 0.949 . S
C413 C411 1.384 . S
C413 C414 1.385 . S
C413 H415 0.950 . S
C414 C408 1.404 . S
C414 H412 0.949 . S
C414 C413 1.385 . S
H415 C413 0.950 . S
H416 C400 0.951 . S
H417 C402 0.951 . S
H418 C404 0.951 . S
H419 C405 0.950 . S
H420 C406 0.950 . S
H421 C407 0.950 . S
H422 C409 0.950 . S
H423 C410 0.951 . S
C424 C425 1.386 . S
C424 C426 1.383 . S
C424 H440 0.951 . S
C425 C424 1.386 . S
C425 C429 1.383 . S
C426 C424 1.383 . S
C426 C427 1.402 . S
C426 H441 0.951 . S
C427 C426 1.402 . S
C427 C428 1.375 . S
C427 C430 1.481 . S
C428 C427 1.375 . S
C428 C429 1.367 . S
C428 H442 0.951 . S
C429 C425 1.383 . S
C429 C428 1.367 . S
C429 H443 0.950 . S
C430 C427 1.481 . S
C430 C431 1.297 . S
C430 H444 0.950 . S
C431 C430 1.297 . S
C431 C432 1.479 . S
C431 H445 0.950 . S
C432 C431 1.479 . S
C432 C433 1.375 . S
C432 C438 1.404 . S
C433 C432 1.375 . S
C433 C434 1.369 . S
C433 H446 0.950 . S
C434 C433 1.369 . S
C434 C435 1.392 . S
C434 H447 0.951 . S
C435 C434 1.392 . S
C435 C437 1.384 1_655 S
H436 C438 0.949 1_455 S
C437 C435 1.384 1_455 S
C437 C438 1.385 1_455 S
C437 H439 0.950 . S
C438 C432 1.404 . S
C438 H436 0.949 1_655 S
C438 C437 1.385 1_655 S
H439 C437 0.950 . S
H440 C424 0.951 . S
H441 C426 0.951 . S
H442 C428 0.951 . S
H443 C429 0.950 . S
H444 C430 0.950 . S
H445 C431 0.950 . S
H446 C433 0.950 . S
H447 C434 0.951 . S
C161 C98 0.645 . S
C171 C9 0.602 . S
C185 C138 0.846 . S
C195 C49 0.663 . S
C209 C89 0.968 1_545 S
C219 C18 0.893 . S
C233 C58 1.025 . S
C243 C129 0.959 . S
C257 C46 0.987 . S
C267 C15 1.038 . S
C281 C55 1.760 . S
C291 C90 1.760 . S
C305 C130 2.152 . S
C315 C99 2.054 . S
C329 C139 1.324 . S
C339 C6 1.287 . S
C353 C86 1.025 . S
C363 C135 0.995 . S
C377 C19 1.767 . S
C387 C126 1.750 . S
C401 C59 2.146 . S
C411 C10 2.075 1_556 S
C425 C95 1.309 . S
C435 C50 1.257 1_655 S
