# Generated by pormake.
# Topology vbe, (5)-cn, num edge types: 1
# Building blocks:
#     Node 0, Type 0, BuildingBlock: BEQFEK_clean_sbu_0, # of connection points: 5
#     Node 1, Type 0, BuildingBlock: BEQFEK_clean_sbu_0, # of connection points: 5
#     Node 2, Type 0, BuildingBlock: BEQFEK_clean_sbu_0, # of connection points: 5
#     Node 3, Type 0, BuildingBlock: BEQFEK_clean_sbu_0, # of connection points: 5
#     Node 4, Type 0, BuildingBlock: BEQFEK_clean_sbu_0, # of connection points: 5
#     Node 5, Type 0, BuildingBlock: BEQFEK_clean_sbu_0, # of connection points: 5
#     Node 6, Type 0, BuildingBlock: BEQFEK_clean_sbu_0, # of connection points: 5
#     Node 7, Type 0, BuildingBlock: BEQFEK_clean_sbu_0, # of connection points: 5
#     Node 8, Type 0, BuildingBlock: BEQFEK_clean_sbu_0, # of connection points: 5
#     Node 9, Type 0, BuildingBlock: BEQFEK_clean_sbu_0, # of connection points: 5
#     Node 10, Type 0, BuildingBlock: BEQFEK_clean_sbu_0, # of connection points: 5
#     Node 11, Type 0, BuildingBlock: BEQFEK_clean_sbu_0, # of connection points: 5
#     Node 12, Type 0, BuildingBlock: BEQFEK_clean_sbu_0, # of connection points: 5
#     Node 13, Type 0, BuildingBlock: BEQFEK_clean_sbu_0, # of connection points: 5
#     Node 14, Type 0, BuildingBlock: BEQFEK_clean_sbu_0, # of connection points: 5
#     Node 15, Type 0, BuildingBlock: BEQFEK_clean_sbu_0, # of connection points: 5
#     Edge 16, Type (0, 0), BuildingBlock: TEMPAE_clean_linker_10, # of connection points: 2
#     Edge 17, Type (0, 0), BuildingBlock: TEMPAE_clean_linker_10, # of connection points: 2
#     Edge 18, Type (0, 0), BuildingBlock: TEMPAE_clean_linker_10, # of connection points: 2
#     Edge 19, Type (0, 0), BuildingBlock: TEMPAE_clean_linker_10, # of connection points: 2
#     Edge 20, Type (0, 0), BuildingBlock: TEMPAE_clean_linker_10, # of connection points: 2
#     Edge 21, Type (0, 0), BuildingBlock: TEMPAE_clean_linker_10, # of connection points: 2
#     Edge 22, Type (0, 0), BuildingBlock: TEMPAE_clean_linker_10, # of connection points: 2
#     Edge 23, Type (0, 0), BuildingBlock: TEMPAE_clean_linker_10, # of connection points: 2
#     Edge 24, Type (0, 0), BuildingBlock: TEMPAE_clean_linker_10, # of connection points: 2
#     Edge 25, Type (0, 0), BuildingBlock: TEMPAE_clean_linker_10, # of connection points: 2
#     Edge 26, Type (0, 0), BuildingBlock: TEMPAE_clean_linker_10, # of connection points: 2
#     Edge 27, Type (0, 0), BuildingBlock: TEMPAE_clean_linker_10, # of connection points: 2
#     Edge 28, Type (0, 0), BuildingBlock: TEMPAE_clean_linker_10, # of connection points: 2
#     Edge 29, Type (0, 0), BuildingBlock: TEMPAE_clean_linker_10, # of connection points: 2
#     Edge 30, Type (0, 0), BuildingBlock: TEMPAE_clean_linker_10, # of connection points: 2
#     Edge 31, Type (0, 0), BuildingBlock: TEMPAE_clean_linker_10, # of connection points: 2
#     Edge 32, Type (0, 0), BuildingBlock: TEMPAE_clean_linker_10, # of connection points: 2
#     Edge 33, Type (0, 0), BuildingBlock: TEMPAE_clean_linker_10, # of connection points: 2
#     Edge 34, Type (0, 0), BuildingBlock: TEMPAE_clean_linker_10, # of connection points: 2
#     Edge 35, Type (0, 0), BuildingBlock: TEMPAE_clean_linker_10, # of connection points: 2
#     Edge 36, Type (0, 0), BuildingBlock: TEMPAE_clean_linker_10, # of connection points: 2
#     Edge 37, Type (0, 0), BuildingBlock: TEMPAE_clean_linker_10, # of connection points: 2
#     Edge 38, Type (0, 0), BuildingBlock: TEMPAE_clean_linker_10, # of connection points: 2
#     Edge 39, Type (0, 0), BuildingBlock: TEMPAE_clean_linker_10, # of connection points: 2
#     Edge 40, Type (0, 0), BuildingBlock: TEMPAE_clean_linker_10, # of connection points: 2
#     Edge 41, Type (0, 0), BuildingBlock: TEMPAE_clean_linker_10, # of connection points: 2
#     Edge 42, Type (0, 0), BuildingBlock: TEMPAE_clean_linker_10, # of connection points: 2
#     Edge 43, Type (0, 0), BuildingBlock: TEMPAE_clean_linker_10, # of connection points: 2
#     Edge 44, Type (0, 0), BuildingBlock: TEMPAE_clean_linker_10, # of connection points: 2
#     Edge 45, Type (0, 0), BuildingBlock: TEMPAE_clean_linker_10, # of connection points: 2
#     Edge 46, Type (0, 0), BuildingBlock: TEMPAE_clean_linker_10, # of connection points: 2
#     Edge 47, Type (0, 0), BuildingBlock: TEMPAE_clean_linker_10, # of connection points: 2
#     Edge 48, Type (0, 0), BuildingBlock: TEMPAE_clean_linker_10, # of connection points: 2
#     Edge 49, Type (0, 0), BuildingBlock: TEMPAE_clean_linker_10, # of connection points: 2
#     Edge 50, Type (0, 0), BuildingBlock: TEMPAE_clean_linker_10, # of connection points: 2
#     Edge 51, Type (0, 0), BuildingBlock: TEMPAE_clean_linker_10, # of connection points: 2
#     Edge 52, Type (0, 0), BuildingBlock: TEMPAE_clean_linker_10, # of connection points: 2
#     Edge 53, Type (0, 0), BuildingBlock: TEMPAE_clean_linker_10, # of connection points: 2
#     Edge 54, Type (0, 0), BuildingBlock: TEMPAE_clean_linker_10, # of connection points: 2
#     Edge 55, Type (0, 0), BuildingBlock: TEMPAE_clean_linker_10, # of connection points: 2
# Relax obj value: 0.316
# Max RMSD: 0.194
# Mean RMSD: 0.194
data_MOF--net-vbe--node1-BEQFEK_clean_sbu_0--edge1-TEMPAE_clean_linker_10
_symmetry_space_group_name_H-M    P1
_symmetry_Int_Tables_number       1
_symmetry_cell_setting            triclinic
loop_
_symmetry_equiv_pos_as_xyz
'x, y, z'
_cell_length_a     45.451544
_cell_length_b     40.816106
_cell_length_c     57.724385
_cell_angle_alpha  89.97523
_cell_angle_beta   90.00384
_cell_angle_gamma 89.982053
loop_
_atom_site_label
_atom_site_type_symbol
_atom_site_fract_x
_atom_site_fract_y
_atom_site_fract_z
_atom_type_partial_charge
Co0 Co 0.09885 0.11526 0.32921 0.0
Co1 Co 0.05784 0.07434 0.36202 0.0
C2 C 0.05727 0.14756 0.36196 0.0
O3 O 0.07732 0.14891 0.3466 0.0
O4 O 0.04745 0.12026 0.36933 0.0
C5 C 0.14107 0.16365 0.31233 0.0
O6 O 0.14212 0.17475 0.33367 0.0
C7 C 0.03143 0.05199 0.40538 0.0
C8 C 0.01529 0.00273 0.39582 0.0
C9 C 0.0169 0.0247 0.41408 0.0
N10 N 0.03796 0.04633 0.38306 0.0
N11 N 0.02808 0.01698 0.37738 0.0
C12 C 0.04137 0.0818 0.41831 0.0
H13 H 0.06077 0.09292 0.40969 0.0
H14 H 0.04705 0.07555 0.43648 0.0
H15 H 0.02334 0.10013 0.41842 0.0
C16 C 0.14448 0.07693 0.35353 0.0
N17 N 0.1163 0.0853 0.3498 0.0
N18 N 0.0992 0.06826 0.36374 0.0
C19 C 0.11606 0.04855 0.37693 0.0
C20 C 0.14526 0.05356 0.37098 0.0
C21 C 0.16973 0.08935 0.33938 0.0
H22 H 0.16282 0.09254 0.3211 0.0
H23 H 0.17664 0.11358 0.34618 0.0
H24 H 0.18878 0.07237 0.34005 0.0
O25 O 0.07138 0.09288 0.30837 0.0
O26 O 0.04249 0.06319 0.33097 0.0
H27 H 0.08943 0.00778 0.38707 0.0
H28 H 0.12232 0.01286 0.40443 0.0
C29 C 0.10444 0.02589 0.39516 0.0
H30 H 0.09174 0.04018 0.40802 0.0
H31 H 0.03038 0.00655 0.36098 0.0
O32 O 0.12635 0.13792 0.30798 0.0
C33 C 0.05016 0.07297 0.31096 0.0
Co34 Co 0.38605 0.87581 0.33244 0.0
Co35 Co 0.42105 0.92511 0.3636 0.0
C36 C 0.43408 0.85307 0.36353 0.0
O37 O 0.41368 0.84732 0.34899 0.0
O38 O 0.43943 0.88204 0.37056 0.0
C39 C 0.34889 0.82156 0.3155 0.0
O40 O 0.34824 0.8096 0.33662 0.0
C41 C 0.4419 0.95237 0.40717 0.0
C42 C 0.4566 0.00192 0.39679 0.0
C43 C 0.45452 0.98092 0.41557 0.0
N44 N 0.43656 0.95647 0.3845 0.0
N45 N 0.44528 0.98612 0.37838 0.0
C46 C 0.43756 0.92046 0.41952 0.0
H47 H 0.45727 0.90493 0.4167 0.0
H48 H 0.41824 0.90741 0.41222 0.0
H49 H 0.43469 0.92373 0.4384 0.0
C50 C 0.3359 0.90615 0.35639 0.0
N51 N 0.3649 0.90184 0.35331 0.0
N52 N 0.37942 0.92276 0.36637 0.0
C53 C 0.35996 0.94107 0.37828 0.0
C54 C 0.33182 0.93104 0.37237 0.0
C55 C 0.3127 0.88836 0.34297 0.0
H56 H 0.3166 0.89178 0.32415 0.0
H57 H 0.31428 0.86182 0.34678 0.0
H58 H 0.29024 0.89688 0.34749 0.0
O59 O 0.40805 0.90362 0.31097 0.0
O60 O 0.43297 0.93925 0.33214 0.0
H61 H 0.38293 0.98643 0.38265 0.0
H62 H 0.3484 0.9844 0.39809 0.0
C63 C 0.36805 0.97022 0.39266 0.0
H64 H 0.37992 0.96184 0.40836 0.0
H65 H 0.44387 0.99539 0.36156 0.0
O66 O 0.36166 0.84868 0.31161 0.0
C67 C 0.42562 0.9277 0.31252 0.0
Co68 Co 0.60017 0.86807 0.16031 0.0
Co69 Co 0.56333 0.91208 0.12633 0.0
C70 C 0.55847 0.83873 0.12649 0.0
O71 O 0.57794 0.83581 0.14221 0.0
O72 O 0.55049 0.86676 0.1191 0.0
C73 C 0.64264 0.82038 0.18005 0.0
O74 O 0.64816 0.80941 0.15911 0.0
C75 C 0.54471 0.93883 0.08127 0.0
C76 C 0.52298 0.98481 0.09212 0.0
C77 C 0.53011 0.96624 0.07284 0.0
N78 N 0.54642 0.94138 0.10444 0.0
N79 N 0.53338 0.96889 0.1108 0.0
C80 C 0.5556 0.90995 0.06775 0.0
H81 H 0.55856 0.88835 0.07908 0.0
H82 H 0.57726 0.9159 0.05998 0.0
H83 H 0.54008 0.90397 0.05352 0.0
C84 C 0.64882 0.90583 0.13947 0.0
N85 N 0.62036 0.89713 0.14065 0.0
N86 N 0.60495 0.91554 0.12634 0.0
C87 C 0.62321 0.93656 0.11557 0.0
C88 C 0.65151 0.93084 0.1234 0.0
C89 C 0.67253 0.8917 0.15444 0.0
H90 H 0.66563 0.89272 0.17286 0.0
H91 H 0.67577 0.86562 0.14976 0.0
H92 H 0.69375 0.90474 0.15222 0.0
O93 O 0.57292 0.89271 0.18013 0.0
O94 O 0.54746 0.92513 0.15681 0.0
H95 H 0.59492 0.97756 0.1091 0.0
H96 H 0.6314 0.98213 0.09725 0.0
C97 C 0.61336 0.96447 0.1006 0.0
H98 H 0.60553 0.95477 0.08378 0.0
H99 H 0.53149 0.97677 0.12793 0.0
O100 O 0.62526 0.84445 0.18284 0.0
C101 C 0.55352 0.91468 0.17699 0.0
Co102 Co 0.87731 0.13338 0.15558 0.0
Co103 Co 0.91582 0.08661 0.12462 0.0
C104 C 0.92608 0.15817 0.12486 0.0
O105 O 0.90535 0.16221 0.1394 0.0
O106 O 0.93283 0.12984 0.11738 0.0
C107 C 0.84971 0.19189 0.1724 0.0
O108 O 0.86433 0.20561 0.15535 0.0
C109 C 0.94242 0.05833 0.08321 0.0
C110 C 0.95132 0.00747 0.09441 0.0
C111 C 0.95386 0.02863 0.07573 0.0
N112 N 0.93359 0.05479 0.10525 0.0
N113 N 0.93916 0.02445 0.11193 0.0
C114 C 0.93733 0.08877 0.06929 0.0
H115 H 0.91862 0.10292 0.07654 0.0
H116 H 0.93276 0.08267 0.05091 0.0
H117 H 0.9573 0.10435 0.07008 0.0
C118 C 0.82976 0.09873 0.13126 0.0
N119 N 0.85834 0.10585 0.13425 0.0
N120 N 0.87439 0.08695 0.12077 0.0
C121 C 0.8564 0.06758 0.10835 0.0
C122 C 0.82756 0.07414 0.11472 0.0
C123 C 0.80587 0.11191 0.14652 0.0
H124 H 0.81341 0.11188 0.1648 0.0
H125 H 0.80131 0.13769 0.14157 0.0
H126 H 0.7853 0.09748 0.14517 0.0
O127 O 0.89913 0.10709 0.17828 0.0
O128 O 0.9265 0.07418 0.15666 0.0
H129 H 0.8785 0.02238 0.1013 0.0
H130 H 0.84803 0.03087 0.08202 0.0
C131 C 0.86665 0.04188 0.0917 0.0
H132 H 0.882 0.05298 0.07906 0.0
H133 H 0.9343 0.01524 0.12836 0.0
O134 O 0.84994 0.16086 0.17431 0.0
C135 C 0.91811 0.08437 0.17641 0.0
Co136 Co 0.89337 0.87393 0.66528 0.0
Co137 Co 0.92972 0.91865 0.6316 0.0
C138 C 0.92686 0.84544 0.62596 0.0
O139 O 0.90949 0.84235 0.64311 0.0
O140 O 0.93664 0.87342 0.61987 0.0
C141 C 0.85217 0.82589 0.68456 0.0
O142 O 0.84763 0.81563 0.66329 0.0
C143 C 0.94669 0.94731 0.58719 0.0
C144 C 0.96918 0.99282 0.59812 0.0
C145 C 0.96104 0.97488 0.5788 0.0
N146 N 0.94607 0.94919 0.6104 0.0
N147 N 0.95953 0.97639 0.61685 0.0
C148 C 0.93597 0.91809 0.57397 0.0
H149 H 0.95036 0.89692 0.57804 0.0
H150 H 0.91338 0.91173 0.57972 0.0
H151 H 0.93637 0.92188 0.55499 0.0
C152 C 0.84562 0.91763 0.65015 0.0
N153 N 0.87379 0.90778 0.64971 0.0
N154 N 0.88885 0.92667 0.63551 0.0
C155 C 0.87058 0.94925 0.62639 0.0
C156 C 0.84269 0.94415 0.63536 0.0
C157 C 0.822 0.90105 0.6639 0.0
H158 H 0.828 0.90141 0.68253 0.0
H159 H 0.82047 0.87509 0.65842 0.0
H160 H 0.80021 0.91275 0.66145 0.0
O161 O 0.92558 0.89176 0.68404 0.0
O162 O 0.95118 0.92463 0.66115 0.0
H163 H 0.8995 0.98879 0.61777 0.0
H164 H 0.86222 0.99458 0.6079 0.0
C165 C 0.87996 0.97626 0.61048 0.0
H166 H 0.88607 0.96573 0.59345 0.0
H167 H 0.96224 0.98366 0.63405 0.0
O168 O 0.8687 0.85048 0.68808 0.0
C169 C 0.9468 0.91149 0.68082 0.0
Co170 Co 0.59904 0.1247 0.66415 0.0
Co171 Co 0.56452 0.08047 0.629 0.0
C172 C 0.56052 0.15351 0.62748 0.0
O173 O 0.57834 0.15643 0.64437 0.0
O174 O 0.553 0.12547 0.61983 0.0
C175 C 0.64078 0.17277 0.68367 0.0
O176 O 0.6477 0.18147 0.66245 0.0
C177 C 0.54254 0.0553 0.58486 0.0
C178 C 0.52988 0.00468 0.59414 0.0
C179 C 0.53022 0.02686 0.57596 0.0
N180 N 0.5489 0.05022 0.60728 0.0
N181 N 0.54128 0.01994 0.61275 0.0
C182 C 0.55021 0.08604 0.57208 0.0
H183 H 0.56934 0.09824 0.58034 0.0
H184 H 0.55539 0.08069 0.55368 0.0
H185 H 0.5312 0.10305 0.57272 0.0
C186 C 0.64925 0.08758 0.64495 0.0
N187 N 0.62047 0.09496 0.64589 0.0
N188 N 0.60611 0.07684 0.63077 0.0
C189 C 0.62544 0.05765 0.61945 0.0
C190 C 0.65336 0.06395 0.62801 0.0
C191 C 0.67183 0.10069 0.6614 0.0
H192 H 0.66183 0.1049 0.67865 0.0
H193 H 0.68024 0.12437 0.65469 0.0
H194 H 0.69062 0.08354 0.66329 0.0
O195 O 0.57015 0.10144 0.68315 0.0
O196 O 0.54562 0.06951 0.65896 0.0
H197 H 0.6037 0.01422 0.60787 0.0
H198 H 0.63707 0.02361 0.59209 0.0
C199 C 0.61735 0.03423 0.60055 0.0
H200 H 0.60417 0.04719 0.58727 0.0
H201 H 0.54378 0.00975 0.62922 0.0
O202 O 0.62276 0.14944 0.68695 0.0
C203 C 0.55026 0.0803 0.67929 0.0
Co204 Co 0.37765 0.12529 0.83706 0.0
Co205 Co 0.42056 0.0796 0.86495 0.0
C206 C 0.42862 0.15182 0.86431 0.0
O207 O 0.40631 0.15547 0.85124 0.0
O208 O 0.43683 0.12358 0.87108 0.0
C209 C 0.34395 0.18204 0.82454 0.0
O210 O 0.35583 0.19457 0.8433 0.0
C211 C 0.45195 0.0524 0.90465 0.0
C212 C 0.46162 0.00201 0.89284 0.0
C213 C 0.46497 0.02316 0.91144 0.0
N214 N 0.44146 0.04861 0.88308 0.0
N215 N 0.44756 0.01859 0.87601 0.0
C216 C 0.44681 0.08243 0.91898 0.0
H217 H 0.4275 0.09623 0.91238 0.0
H218 H 0.44315 0.07583 0.93741 0.0
H219 H 0.46642 0.09853 0.91787 0.0
C220 C 0.33387 0.09046 0.86558 0.0
N221 N 0.3618 0.0973 0.85973 0.0
N222 N 0.37974 0.07845 0.8717 0.0
C223 C 0.36373 0.05918 0.8858 0.0
C224 C 0.33416 0.06607 0.88236 0.0
C225 C 0.30775 0.10424 0.85311 0.0
H226 H 0.31201 0.10431 0.83419 0.0
H227 H 0.30446 0.13002 0.85862 0.0
H228 H 0.28741 0.09011 0.85665 0.0
O229 O 0.39777 0.09993 0.81284 0.0
O230 O 0.42812 0.06764 0.83233 0.0
H231 H 0.38802 0.0149 0.89112 0.0
H232 H 0.35922 0.0217 0.91225 0.0
C233 C 0.3764 0.03368 0.90156 0.0
H234 H 0.3925 0.04527 0.91336 0.0
H235 H 0.44164 0.00925 0.85984 0.0
O236 O 0.34796 0.15185 0.82018 0.0
C237 C 0.41745 0.07781 0.81328 0.0
Co238 Co 0.1152 0.86296 0.84348 0.0
Co239 Co 0.07156 0.90882 0.87038 0.0
C240 C 0.0645 0.83584 0.86992 0.0
O241 O 0.08721 0.83206 0.85735 0.0
O242 O 0.05591 0.86418 0.87616 0.0
C243 C 0.14977 0.80745 0.83007 0.0
O244 O 0.13807 0.79393 0.84856 0.0
C245 C 0.0448 0.93732 0.91185 0.0
C246 C 0.02483 0.98262 0.89789 0.0
C247 C 0.02891 0.96495 0.91813 0.0
N248 N 0.05027 0.93893 0.88901 0.0
N249 N 0.0382 0.96597 0.88075 0.0
C250 C 0.05363 0.90914 0.92697 0.0
H251 H 0.05741 0.8868 0.91654 0.0
H252 H 0.07448 0.91511 0.93599 0.0
H253 H 0.03649 0.9043 0.94024 0.0
C254 C 0.15826 0.89911 0.8714 0.0
N255 N 0.13041 0.89125 0.8661 0.0
N256 N 0.11236 0.9112 0.87702 0.0
C257 C 0.12834 0.93281 0.88937 0.0
C258 C 0.15787 0.92554 0.88642 0.0
C259 C 0.18457 0.88455 0.85972 0.0
H260 H 0.18435 0.89144 0.84112 0.0
H261 H 0.1834 0.85745 0.86078 0.0
H262 H 0.20537 0.89319 0.86775 0.0
O263 O 0.09474 0.88798 0.81916 0.0
O264 O 0.06394 0.92077 0.83777 0.0
H265 H 0.10009 0.9749 0.88857 0.0
H266 H 0.13358 0.98083 0.90496 0.0
C267 C 0.11604 0.96304 0.90044 0.0
H268 H 0.10437 0.9562 0.91657 0.0
H269 H 0.03915 0.97312 0.86341 0.0
O270 O 0.14552 0.83779 0.82643 0.0
C271 C 0.075 0.91005 0.819 0.0
Co272 Co 0.6148 0.63265 0.33818 0.0
Co273 Co 0.57177 0.59252 0.36984 0.0
C274 C 0.57114 0.66618 0.36816 0.0
O275 O 0.59227 0.66742 0.35371 0.0
O276 O 0.56112 0.63893 0.37547 0.0
C277 C 0.65531 0.68093 0.31911 0.0
O278 O 0.65155 0.69725 0.3385 0.0
C279 C 0.54682 0.56841 0.41366 0.0
C280 C 0.5229 0.5244 0.40165 0.0
C281 C 0.52952 0.5425 0.42125 0.0
N282 N 0.5505 0.5654 0.39066 0.0
N283 N 0.53609 0.53912 0.3836 0.0
C284 C 0.55859 0.59636 0.42767 0.0
H285 H 0.56316 0.61783 0.41652 0.0
H286 H 0.57957 0.58893 0.43595 0.0
H287 H 0.54278 0.60326 0.4415 0.0
C288 C 0.6584 0.59279 0.36321 0.0
N289 N 0.63073 0.60326 0.35991 0.0
N290 N 0.61276 0.58595 0.37298 0.0
C291 C 0.62848 0.56359 0.38486 0.0
C292 C 0.65786 0.56737 0.37914 0.0
C293 C 0.68437 0.6053 0.34999 0.0
H294 H 0.68262 0.59726 0.33168 0.0
H295 H 0.68429 0.63247 0.35019 0.0
H296 H 0.70536 0.5962 0.35744 0.0
O297 O 0.58872 0.60916 0.31669 0.0
O298 O 0.55884 0.57964 0.3386 0.0
H299 H 0.59681 0.52506 0.38872 0.0
H300 H 0.63165 0.51671 0.40249 0.0
C301 C 0.61528 0.53608 0.39854 0.0
H302 H 0.60658 0.54579 0.41509 0.0
H303 H 0.53528 0.5312 0.36643 0.0
O304 O 0.64407 0.65258 0.31709 0.0
C305 C 0.56781 0.58874 0.31878 0.0
Co306 Co 0.87815 0.36962 0.33716 0.0
Co307 Co 0.91849 0.41431 0.36816 0.0
C308 C 0.92972 0.34341 0.36461 0.0
O309 O 0.90815 0.34036 0.35073 0.0
O310 O 0.93657 0.37107 0.37318 0.0
C311 C 0.85015 0.3111 0.32097 0.0
O312 O 0.86506 0.29756 0.33794 0.0
C313 C 0.94753 0.44063 0.40923 0.0
C314 C 0.95505 0.49229 0.39925 0.0
C315 C 0.95887 0.47008 0.41712 0.0
N316 N 0.93708 0.44534 0.38774 0.0
N317 N 0.94179 0.47618 0.38179 0.0
C318 C 0.94814 0.40795 0.42101 0.0
H319 H 0.96606 0.39311 0.41329 0.0
H320 H 0.92713 0.39481 0.4179 0.0
H321 H 0.95234 0.41 0.43985 0.0
C322 C 0.8321 0.40097 0.36568 0.0
N323 N 0.86043 0.39497 0.36053 0.0
N324 N 0.87743 0.41256 0.37418 0.0
C325 C 0.86041 0.42955 0.38898 0.0
C326 C 0.83113 0.42311 0.38396 0.0
C327 C 0.80684 0.3892 0.35124 0.0
H328 H 0.81397 0.38542 0.33308 0.0
H329 H 0.79898 0.36545 0.35824 0.0
H330 H 0.78831 0.40689 0.35148 0.0
O331 O 0.89745 0.39808 0.31445 0.0
O332 O 0.9266 0.42902 0.33603 0.0
H333 H 0.88272 0.47358 0.39882 0.0
H334 H 0.85415 0.46109 0.41881 0.0
C335 C 0.87192 0.45229 0.4072 0.0
H336 H 0.88842 0.43931 0.4179 0.0
H337 H 0.93577 0.48626 0.36586 0.0
O338 O 0.85029 0.34212 0.3189 0.0
C339 C 0.9166 0.42059 0.31632 0.0
Co340 Co 0.09769 0.37646 0.16761 0.0
Co341 Co 0.06175 0.4203 0.13291 0.0
C342 C 0.05799 0.34734 0.13182 0.0
O343 O 0.07631 0.34469 0.14841 0.0
O344 O 0.05001 0.37525 0.12418 0.0
C345 C 0.13889 0.32723 0.18595 0.0
O346 O 0.14399 0.31827 0.16447 0.0
C347 C 0.03979 0.44608 0.08882 0.0
C348 C 0.02579 0.49607 0.0987 0.0
C349 C 0.02739 0.47461 0.08019 0.0
N350 N 0.04557 0.45061 0.1114 0.0
N351 N 0.03715 0.4805 0.11722 0.0
C352 C 0.0439 0.41405 0.07661 0.0
H353 H 0.02514 0.39785 0.08101 0.0
H354 H 0.06438 0.402 0.0827 0.0
H355 H 0.04449 0.41687 0.05755 0.0
C356 C 0.14719 0.4123 0.14617 0.0
N357 N 0.11838 0.40576 0.14848 0.0
N358 N 0.10339 0.4236 0.13355 0.0
C359 C 0.1223 0.44173 0.121 0.0
C360 C 0.15061 0.43505 0.12854 0.0
C361 C 0.17065 0.39875 0.16167 0.0
H362 H 0.16181 0.39489 0.17935 0.0
H363 H 0.17811 0.37482 0.15471 0.0
H364 H 0.18986 0.41547 0.1626 0.0
O365 O 0.06955 0.40004 0.18714 0.0
O366 O 0.04417 0.43169 0.16326 0.0
H367 H 0.09948 0.48398 0.1084 0.0
H368 H 0.1328 0.47459 0.09256 0.0
C369 C 0.11348 0.46395 0.10156 0.0
H370 H 0.10051 0.44989 0.08874 0.0
H371 H 0.039 0.49019 0.13388 0.0
O372 O 0.12214 0.35153 0.18992 0.0
C373 C 0.04957 0.4212 0.18356 0.0
Co374 Co 0.38876 0.6197 0.16381 0.0
Co375 Co 0.42719 0.57441 0.13213 0.0
C376 C 0.42934 0.64796 0.12892 0.0
O377 O 0.40981 0.6515 0.14453 0.0
O378 O 0.43818 0.61965 0.12273 0.0
C379 C 0.34835 0.66927 0.18254 0.0
O380 O 0.3474 0.68246 0.16179 0.0
C381 C 0.44809 0.54835 0.08827 0.0
C382 C 0.46659 0.50037 0.09852 0.0
C383 C 0.4619 0.52065 0.07962 0.0
N384 N 0.44489 0.54464 0.11121 0.0
N385 N 0.4561 0.51603 0.1173 0.0
C386 C 0.43596 0.5768 0.07499 0.0
H387 H 0.41706 0.58774 0.0844 0.0
H388 H 0.42889 0.56912 0.05741 0.0
H389 H 0.45328 0.59579 0.07324 0.0
C390 C 0.3414 0.57997 0.14372 0.0
N391 N 0.3698 0.58855 0.14535 0.0
N392 N 0.38574 0.56916 0.13213 0.0
C393 C 0.36785 0.54743 0.12166 0.0
C394 C 0.33926 0.55368 0.12867 0.0
C395 C 0.31706 0.59629 0.15682 0.0
H396 H 0.3178 0.62303 0.15352 0.0
H397 H 0.29514 0.58682 0.15166 0.0
H398 H 0.3204 0.59237 0.17566 0.0
O399 O 0.41694 0.59817 0.18445 0.0
O400 O 0.44397 0.56487 0.16298 0.0
H401 H 0.36014 0.50202 0.1031 0.0
H402 H 0.38734 0.52894 0.09064 0.0
C403 C 0.37822 0.51936 0.10711 0.0
H404 H 0.39594 0.50603 0.11634 0.0
H405 H 0.45632 0.50706 0.13423 0.0
O406 O 0.3625 0.6428 0.18564 0.0
C407 C 0.43733 0.57708 0.18254 0.0
Co408 Co 0.3826 0.36468 0.65564 0.0
Co409 Co 0.42072 0.41276 0.62557 0.0
C410 C 0.42819 0.34092 0.62161 0.0
O411 O 0.40786 0.33628 0.63642 0.0
O412 O 0.43599 0.36967 0.61572 0.0
C413 C 0.37201 0.31492 0.68537 0.0
O414 O 0.40055 0.31448 0.68173 0.0
C415 C 0.44728 0.44446 0.58525 0.0
C416 C 0.4566 0.49407 0.59878 0.0
C417 C 0.45904 0.47466 0.57918 0.0
N418 N 0.43842 0.44603 0.6074 0.0
N419 N 0.44422 0.47563 0.61545 0.0
C420 C 0.44202 0.41541 0.56997 0.0
H421 H 0.42312 0.40088 0.57647 0.0
H422 H 0.43765 0.42323 0.55187 0.0
H423 H 0.46184 0.39953 0.57015 0.0
C424 C 0.3346 0.40389 0.63481 0.0
N425 N 0.36305 0.39529 0.63671 0.0
N426 N 0.37909 0.41439 0.62333 0.0
C427 C 0.36124 0.43526 0.61204 0.0
C428 C 0.33254 0.42959 0.61911 0.0
C429 C 0.31067 0.39038 0.64985 0.0
H430 H 0.31968 0.38314 0.66695 0.0
H431 H 0.30133 0.36826 0.64144 0.0
H432 H 0.29275 0.4085 0.6524 0.0
O433 O 0.40685 0.38772 0.67858 0.0
O434 O 0.43353 0.42203 0.65759 0.0
H435 H 0.38368 0.48011 0.60461 0.0
H436 H 0.35291 0.47186 0.58561 0.0
C437 C 0.37154 0.46068 0.59519 0.0
H438 H 0.38661 0.4493 0.58247 0.0
H439 H 0.43945 0.48333 0.63227 0.0
O440 O 0.35656 0.33581 0.67441 0.0
C441 C 0.42613 0.41012 0.67707 0.0
Co442 Co 0.10342 0.63505 0.657 0.0
Co443 Co 0.06815 0.58578 0.62597 0.0
C444 C 0.05645 0.65767 0.6244 0.0
O445 O 0.07653 0.66313 0.63927 0.0
O446 O 0.05055 0.62872 0.61765 0.0
C447 C 0.11369 0.68291 0.68872 0.0
O448 O 0.085 0.68322 0.68592 0.0
C449 C 0.04582 0.55706 0.58338 0.0
C450 C 0.03551 0.50632 0.59409 0.0
C451 C 0.03488 0.52749 0.57532 0.0
N452 N 0.05248 0.55356 0.60587 0.0
N453 N 0.04617 0.52326 0.61224 0.0
C454 C 0.05207 0.58746 0.56975 0.0
H455 H 0.07058 0.60119 0.57768 0.0
H456 H 0.05747 0.58139 0.55149 0.0
H457 H 0.0323 0.6034 0.56994 0.0
C458 C 0.15333 0.60194 0.63487 0.0
N459 N 0.1244 0.60775 0.63689 0.0
N460 N 0.10977 0.58713 0.62367 0.0
C461 C 0.12909 0.56755 0.61269 0.0
C462 C 0.15727 0.57631 0.61946 0.0
C463 C 0.17635 0.61843 0.64925 0.0
H464 H 0.17331 0.64537 0.64836 0.0
H465 H 0.19885 0.61201 0.6433 0.0
H466 H 0.17365 0.61091 0.66761 0.0
O467 O 0.08078 0.60858 0.6791 0.0
O468 O 0.05589 0.5732 0.65762 0.0
H469 H 0.10679 0.52163 0.60966 0.0
H470 H 0.14003 0.52414 0.59268 0.0
C471 C 0.12058 0.53802 0.59885 0.0
H472 H 0.10743 0.54583 0.58365 0.0
H473 H 0.04934 0.5141 0.62894 0.0
O474 O 0.12886 0.66325 0.67652 0.0
C475 C 0.06289 0.5848 0.67731 0.0
Co476 Co 0.88743 0.61697 0.83143 0.0
Co477 Co 0.92554 0.5725 0.86399 0.0
C478 C 0.9304 0.64582 0.86444 0.0
O479 O 0.91056 0.64892 0.84904 0.0
O480 O 0.93843 0.61771 0.87167 0.0
C481 C 0.84832 0.66797 0.81404 0.0
O482 O 0.84896 0.68033 0.83504 0.0
C483 C 0.94779 0.54845 0.90811 0.0
C484 C 0.96392 0.49899 0.89902 0.0
C485 C 0.9611 0.52077 0.9173 0.0
N486 N 0.94311 0.5433 0.88546 0.0
N487 N 0.95291 0.51379 0.88007 0.0
C488 C 0.93752 0.57836 0.92073 0.0
H489 H 0.91852 0.58954 0.91159 0.0
H490 H 0.9312 0.57226 0.9388 0.0
H491 H 0.95562 0.59658 0.92118 0.0
C492 C 0.8395 0.58078 0.85407 0.0
N493 N 0.86809 0.58804 0.85148 0.0
N494 N 0.8839 0.56912 0.86515 0.0
C495 C 0.8657 0.54914 0.87697 0.0
C496 C 0.83706 0.55599 0.87034 0.0
C497 C 0.81524 0.59677 0.84067 0.0
H498 H 0.81603 0.62359 0.84359 0.0
H499 H 0.79327 0.58755 0.8459 0.0
H500 H 0.81866 0.59236 0.82189 0.0
O501 O 0.91381 0.59279 0.81076 0.0
O502 O 0.94087 0.5605 0.83302 0.0
H503 H 0.85716 0.50604 0.89793 0.0
H504 H 0.88613 0.53255 0.90816 0.0
C505 C 0.87569 0.52196 0.8925 0.0
H506 H 0.89232 0.50685 0.88338 0.0
H507 H 0.95183 0.50365 0.86349 0.0
O508 O 0.8611 0.64087 0.81006 0.0
C509 C 0.93379 0.57127 0.81312 0.0
Co510 Co 0.60309 0.37717 0.83167 0.0
Co511 Co 0.5625 0.41845 0.86444 0.0
C512 C 0.55952 0.34535 0.86315 0.0
O513 O 0.57982 0.34381 0.848 0.0
O514 O 0.55055 0.37272 0.87107 0.0
C515 C 0.64499 0.32849 0.81432 0.0
O516 O 0.64552 0.31618 0.83535 0.0
C517 C 0.53708 0.44164 0.90785 0.0
C518 C 0.52059 0.49073 0.89805 0.0
C519 C 0.52288 0.46911 0.91643 0.0
N520 N 0.54322 0.44695 0.88544 0.0
N521 N 0.53323 0.47624 0.87962 0.0
C522 C 0.54298 0.40986 0.91997 0.0
H523 H 0.52542 0.39224 0.91523 0.0
H524 H 0.56428 0.39951 0.91406 0.0
H525 H 0.54298 0.41251 0.93905 0.0
C526 C 0.64922 0.41296 0.8571 0.0
N527 N 0.62091 0.40566 0.85298 0.0
N528 N 0.60401 0.42292 0.86692 0.0
C529 C 0.62118 0.44165 0.88057 0.0
C530 C 0.65034 0.43577 0.87488 0.0
C531 C 0.67433 0.40041 0.84283 0.0
H532 H 0.66757 0.39841 0.82444 0.0
H533 H 0.6805 0.37563 0.84907 0.0
H534 H 0.69382 0.41668 0.84402 0.0
O535 O 0.57711 0.40129 0.81073 0.0
O536 O 0.54807 0.43082 0.83328 0.0
H537 H 0.59503 0.48274 0.89092 0.0
H538 H 0.62795 0.47707 0.90814 0.0
C539 C 0.60988 0.46436 0.89889 0.0
H540 H 0.59713 0.45013 0.91176 0.0
H541 H 0.53511 0.48636 0.86308 0.0
O542 O 0.63055 0.35457 0.81048 0.0
C543 C 0.5562 0.42161 0.81325 0.0
C544 C 0.92931 0.089 0.21851 0.0
C545 C 0.93303 0.07228 0.1975 0.0
C546 C 0.94732 0.08222 0.23757 0.0
C547 C 0.96923 0.05772 0.23567 0.0
C548 C 0.9712 0.03859 0.2153 0.0
C549 C 0.95321 0.0463 0.19631 0.0
C550 C 0.94456 0.10328 0.25898 0.0
C551 C 0.99369 0.01158 0.21295 0.0
C552 C 0.03722 0.08017 0.26939 0.0
C553 C 0.03228 0.06411 0.29051 0.0
C554 C 0.01764 0.07672 0.25089 0.0
C555 C 0.99276 0.05619 0.2534 0.0
C556 C 0.98892 0.03775 0.27394 0.0
C557 C 0.00863 0.04215 0.29241 0.0
C558 C 0.02249 0.09697 0.22929 0.0
C559 C 0.96312 0.01488 0.27694 0.0
H560 H 0.91357 0.10889 0.21969 0.0
H561 H 0.95586 0.03286 0.18025 0.0
H562 H 0.9437 0.08783 0.27476 0.0
H563 H 0.96419 0.11932 0.26047 0.0
H564 H 0.92463 0.11905 0.25855 0.0
H565 H 0.98838 0.99484 0.19836 0.0
H566 H 0.01565 0.02247 0.20966 0.0
H567 H -0.00479 0.99706 0.22916 0.0
H568 H 0.05557 0.09696 0.26765 0.0
H569 H 0.00488 0.0293 0.30858 0.0
H570 H 0.00464 0.1154 0.22763 0.0
H571 H 0.02171 0.08121 0.21366 0.0
H572 H 0.04391 0.11007 0.22952 0.0
H573 H 0.94299 0.02939 0.28055 0.0
H574 H 0.96656 0.99757 0.29154 0.0
H575 H 0.95911 0.00064 0.26087 0.0
C576 C 0.51776 0.95369 0.1953 0.0
C577 C 0.53647 0.92645 0.19711 0.0
C578 C 0.49942 0.96274 0.2138 0.0
C579 C 0.4994 0.94357 0.23423 0.0
C580 C 0.5193 0.91708 0.23652 0.0
C581 C 0.53777 0.90907 0.21803 0.0
C582 C 0.47913 0.99174 0.21101 0.0
C583 C 0.51984 0.89578 0.25796 0.0
C584 C 0.46463 0.96037 0.29228 0.0
C585 C 0.44032 0.93925 0.29119 0.0
C586 C 0.48268 0.9651 0.27282 0.0
C587 C 0.47636 0.94793 0.25211 0.0
C588 C 0.45014 0.92946 0.25028 0.0
C589 C 0.43231 0.92559 0.2698 0.0
C590 C 0.50987 0.98603 0.27508 0.0
C591 C 0.44249 0.9108 0.22849 0.0
H592 H 0.51696 0.96753 0.17927 0.0
H593 H 0.55227 0.8881 0.21964 0.0
H594 H 0.45674 0.98298 0.20656 0.0
H595 H 0.47748 0.00588 0.22737 0.0
H596 H 0.48666 0.00837 0.19697 0.0
H597 H 0.53766 0.87715 0.25741 0.0
H598 H 0.52293 0.91104 0.27366 0.0
H599 H 0.49848 0.88286 0.25978 0.0
H600 H 0.47068 0.97155 0.30863 0.0
H601 H 0.41315 0.90985 0.26864 0.0
H602 H 0.5139 0.00016 0.25896 0.0
H603 H 0.52927 0.97006 0.27806 0.0
H604 H 0.50811 0.00335 0.28986 0.0
H605 H 0.4447 0.92673 0.21303 0.0
H606 H 0.41975 0.90085 0.22897 0.0
H607 H 0.45802 0.89002 0.22636 0.0
C608 C 0.96472 0.89948 0.72066 0.0
C609 C 0.96723 0.9179 0.70024 0.0
C610 C 0.9846 0.90352 0.73889 0.0
C611 C 0.00748 0.92684 0.73682 0.0
C612 C 0.00977 0.94624 0.71657 0.0
C613 C 0.98966 0.94139 0.69839 0.0
C614 C 0.98149 0.88215 0.76016 0.0
C615 C 0.03371 0.97158 0.71397 0.0
C616 C 0.03969 0.94377 0.79576 0.0
C617 C 0.06221 0.92028 0.79657 0.0
C618 C 0.02332 0.94866 0.77545 0.0
C619 C 0.0295 0.92936 0.75568 0.0
C620 C 0.05394 0.90789 0.75576 0.0
C621 C 0.07012 0.90375 0.77619 0.0
C622 C -0.0022 0.97232 0.77585 0.0
C623 C 0.06125 0.88681 0.73504 0.0
H624 H 0.9475 0.88126 0.72228 0.0
H625 H 0.99166 0.95582 0.6827 0.0
H626 H 0.00157 0.86701 0.76242 0.0
H627 H 0.97916 0.89761 0.77585 0.0
H628 H 0.96219 0.86553 0.75912 0.0
H629 H 0.03088 0.98663 0.69808 0.0
H630 H 0.03405 0.98806 0.72925 0.0
H631 H 0.05545 0.95929 0.71315 0.0
H632 H 0.03374 0.95708 0.81132 0.0
H633 H 0.08775 0.88586 0.77652 0.0
H634 H 0.97694 0.95841 0.77766 0.0
H635 H -0.00343 0.98638 0.75943 0.0
H636 H -0.00058 0.98979 0.79055 0.0
H637 H 0.04466 0.86699 0.73349 0.0
H638 H 0.08335 0.87535 0.73658 0.0
H639 H 0.06048 0.90137 0.71883 0.0
C640 C 0.5339 0.08564 0.72025 0.0
C641 C 0.53079 0.07042 0.69861 0.0
C642 C 0.51357 0.08022 0.73799 0.0
C643 C 0.4897 0.05862 0.73417 0.0
C644 C 0.48741 0.04151 0.71294 0.0
C645 C 0.50791 0.04781 0.69526 0.0
C646 C 0.51681 0.09908 0.76039 0.0
C647 C 0.46264 0.01772 0.70849 0.0
C648 C 0.45185 0.04178 0.79099 0.0
C649 C 0.43093 0.06707 0.79125 0.0
C650 C 0.46932 0.03623 0.77134 0.0
C651 C 0.46605 0.05684 0.7518 0.0
C652 C 0.44308 0.08024 0.7512 0.0
C653 C 0.42561 0.08488 0.77089 0.0
C654 C 0.49295 0.01028 0.7723 0.0
C655 C 0.43887 0.10278 0.7307 0.0
H656 H 0.55162 0.10294 0.72311 0.0
H657 H 0.5055 0.03571 0.67866 0.0
H658 H 0.49774 0.11576 0.76266 0.0
H659 H 0.51703 0.08201 0.77534 0.0
H660 H 0.53727 0.11396 0.76088 0.0
H661 H 0.46715 0.00188 0.69325 0.0
H662 H 0.45878 0.00193 0.72385 0.0
H663 H 0.44205 0.03152 0.70513 0.0
H664 H 0.4557 0.02745 0.80651 0.0
H665 H 0.40925 0.10421 0.77082 0.0
H666 H 0.51448 0.02202 0.7759 0.0
H667 H 0.4948 0.99732 0.75547 0.0
H668 H 0.48858 0.99203 0.78617 0.0
H669 H 0.45724 0.12069 0.73009 0.0
H670 H 0.41784 0.11659 0.7317 0.0
H671 H 0.43926 0.08876 0.71426 0.0
C672 C 0.53129 0.55235 0.29899 0.0
C673 C 0.55215 0.57763 0.2978 0.0
C674 C 0.51354 0.54484 0.27984 0.0
C675 C 0.5164 0.56353 0.25932 0.0
C676 C 0.53873 0.58756 0.25755 0.0
C677 C 0.55651 0.59411 0.27677 0.0
C678 C 0.49051 0.51839 0.28208 0.0
C679 C 0.54234 0.60824 0.23601 0.0
C680 C 0.47855 0.54688 0.20209 0.0
C681 C 0.45506 0.56913 0.20326 0.0
C682 C 0.49775 0.54287 0.22094 0.0
C683 C 0.49349 0.56196 0.24113 0.0
C684 C 0.4688 0.58291 0.24288 0.0
C685 C 0.44977 0.58601 0.22401 0.0
C686 C 0.52342 0.51962 0.21877 0.0
C687 C 0.46353 0.60384 0.26409 0.0
H688 H 0.52816 0.53913 0.31509 0.0
H689 H 0.57273 0.61351 0.27564 0.0
H690 H 0.4686 0.52983 0.28458 0.0
H691 H 0.48943 0.50337 0.26608 0.0
H692 H 0.49492 0.50203 0.29707 0.0
H693 H 0.56242 0.62373 0.23667 0.0
H694 H 0.5435 0.5925 0.22039 0.0
H695 H 0.52294 0.62451 0.23402 0.0
H696 H 0.48257 0.53342 0.18622 0.0
H697 H 0.43149 0.60299 0.22521 0.0
H698 H 0.52646 0.50542 0.23499 0.0
H699 H 0.54387 0.53381 0.21575 0.0
H700 H 0.5205 0.50226 0.20413 0.0
H701 H 0.4636 0.58851 0.27995 0.0
H702 H 0.44229 0.61727 0.26324 0.0
H703 H 0.48155 0.62202 0.26584 0.0
C704 C 0.95286 0.45723 0.29639 0.0
C705 C 0.93044 0.43367 0.29505 0.0
C706 C 0.97076 0.46391 0.27716 0.0
C707 C 0.96634 0.4462 0.25639 0.0
C708 C 0.94177 0.42514 0.25423 0.0
C709 C 0.92395 0.41934 0.27356 0.0
C710 C -0.00397 0.48758 0.27976 0.0
C711 C 0.93617 0.40585 0.23234 0.0
C712 C 0.00982 0.4564 0.20074 0.0
C713 C 0.03073 0.43131 0.20317 0.0
C714 C 0.98973 0.46325 0.2186 0.0
C715 C 0.99025 0.44402 0.23899 0.0
C716 C 0.01222 0.41978 0.24194 0.0
C717 C 0.03233 0.41398 0.22411 0.0
C718 C 0.96719 0.48996 0.21513 0.0
C719 C 0.01348 0.39851 0.26338 0.0
H720 H 0.95762 0.46901 0.3128 0.0
H721 H 0.90631 0.40157 0.27221 0.0
H722 H 0.01663 0.47368 0.28291 0.0
H723 H -0.00088 0.50217 0.26372 0.0
H724 H 0.99257 0.50455 0.29456 0.0
H725 H 0.91419 0.39393 0.23242 0.0
H726 H 0.93774 0.42189 0.2169 0.0
H727 H 0.95318 0.38648 0.23058 0.0
H728 H 0.00867 0.47017 0.1847 0.0
H729 H 0.04849 0.39467 0.22623 0.0
H730 H 0.96323 0.50359 0.23146 0.0
H731 H 0.94601 0.47887 0.2097 0.0
H732 H 0.97413 0.50755 0.20149 0.0
H733 H 0.01485 0.41397 0.27913 0.0
H734 H 0.03261 0.38155 0.26326 0.0
H735 H 0.99307 0.3837 0.2647 0.0
C736 C 0.51348 0.45039 0.79472 0.0
C737 C 0.53899 0.43124 0.7926 0.0
C738 C 0.49418 0.45424 0.77592 0.0
C739 C 0.50047 0.4382 0.75477 0.0
C740 C 0.52729 0.42105 0.75203 0.0
C741 C 0.54633 0.41803 0.77092 0.0
C742 C 0.46616 0.47353 0.77922 0.0
C743 C 0.53481 0.4035 0.72975 0.0
C744 C 0.44032 0.40125 0.71824 0.0
C745 C 0.44184 0.42058 0.6982 0.0
C746 C 0.45816 0.40798 0.73739 0.0
C747 C 0.47761 0.43505 0.73662 0.0
C748 C 0.47762 0.45613 0.71717 0.0
C749 C 0.45991 0.44844 0.69802 0.0
C750 C 0.45764 0.38472 0.75777 0.0
C751 C 0.49748 0.48572 0.71604 0.0
H752 H 0.50783 0.46107 0.81133 0.0
H753 H 0.5662 0.40359 0.76898 0.0
H754 H 0.46134 0.48869 0.76372 0.0
H755 H 0.44749 0.45636 0.78162 0.0
H756 H 0.46735 0.48973 0.79465 0.0
H757 H 0.5576 0.39363 0.72982 0.0
H758 H 0.51933 0.38279 0.72714 0.0
H759 H 0.5324 0.42023 0.71474 0.0
H760 H 0.42631 0.37977 0.71855 0.0
H761 H 0.46083 0.46377 0.68269 0.0
H762 H 0.45477 0.39845 0.77418 0.0
H763 H 0.47897 0.37155 0.75885 0.0
H764 H 0.43974 0.36629 0.75637 0.0
H765 H 0.49732 0.49914 0.73275 0.0
H766 H 0.49088 0.5028 0.70198 0.0
H767 H 0.52041 0.47769 0.71275 0.0
C768 C 0.97554 0.54093 0.79438 0.0
C769 C 0.95098 0.56163 0.79246 0.0
C770 C -0.0052 0.53661 0.7756 0.0
C771 C 0.9895 0.55379 0.75471 0.0
C772 C 0.96354 0.57257 0.75215 0.0
C773 C 0.94449 0.57601 0.77099 0.0
C774 C 0.02179 0.51551 0.77867 0.0
C775 C 0.95706 0.59138 0.73016 0.0
C776 C 0.05065 0.59027 0.71915 0.0
C777 C 0.048 0.57267 0.6984 0.0
C778 C 0.03309 0.58273 0.73831 0.0
C779 C 0.01273 0.55659 0.7368 0.0
C780 C 0.01184 0.53684 0.71668 0.0
C781 C 0.02933 0.54532 0.69755 0.0
C782 C 0.03466 0.60453 0.75944 0.0
C783 C 0.99109 0.50811 0.71477 0.0
H784 H 0.9805 0.52932 0.81081 0.0
H785 H 0.92532 0.59162 0.76918 0.0
H786 H 0.02646 0.50124 0.76273 0.0
H787 H 0.04112 0.53137 0.7821 0.0
H788 H 0.01932 0.4983 0.79346 0.0
H789 H 0.93483 0.60271 0.73035 0.0
H790 H 0.9736 0.61113 0.72793 0.0
H791 H 0.95865 0.57504 0.71487 0.0
H792 H 0.06524 0.61123 0.72007 0.0
H793 H 0.02755 0.53124 0.6817 0.0
H794 H 0.03689 0.58958 0.77538 0.0
H795 H 0.01397 0.61882 0.76096 0.0
H796 H 0.05338 0.62198 0.75861 0.0
H797 H 0.99036 0.4941 0.73124 0.0
H798 H -0.00247 0.4913 0.70051 0.0
H799 H 0.96853 0.51718 0.71121 0.0
C800 C 0.13792 0.18022 0.27087 0.0
C801 C 0.15065 0.18465 0.29279 0.0
C802 C 0.14161 0.2035 0.25327 0.0
C803 C 0.15927 0.23146 0.25741 0.0
C804 C 0.17444 0.23452 0.27874 0.0
C805 C 0.16955 0.21133 0.29637 0.0
C806 C 0.12453 0.19949 0.23099 0.0
C807 C 0.19446 0.26323 0.28345 0.0
C808 C 0.1703 0.28269 0.20308 0.0
C809 C 0.14774 0.30589 0.2055 0.0
C810 C 0.17603 0.25973 0.22072 0.0
C811 C 0.15805 0.25932 0.24078 0.0
C812 C 0.13613 0.28363 0.24368 0.0
C813 C 0.13158 0.30687 0.2262 0.0
C814 C 0.2004 0.23508 0.21742 0.0
C815 C 0.11601 0.28378 0.26454 0.0
H816 H 0.1233 0.15967 0.26788 0.0
H817 H 0.17975 0.2147 0.31318 0.0
H818 H 0.10763 0.21905 0.22972 0.0
H819 H 0.1393 0.20206 0.21582 0.0
H820 H 0.1133 0.17536 0.22991 0.0
H821 H 0.20924 0.2585 0.29841 0.0
H822 H 0.20807 0.26894 0.268 0.0
H823 H 0.18103 0.28522 0.28741 0.0
H824 H 0.18308 0.28205 0.18723 0.0
H825 H 0.11407 0.32468 0.22822 0.0
H826 H 0.19086 0.21106 0.21252 0.0
H827 H 0.21285 0.23154 0.23378 0.0
H828 H 0.21595 0.24271 0.20358 0.0
H829 H 0.10265 0.26101 0.26473 0.0
H830 H 0.10083 0.30511 0.26459 0.0
H831 H 0.12907 0.28424 0.28075 0.0
C832 C 0.35195 0.68185 0.2246 0.0
C833 C 0.33881 0.6882 0.20306 0.0
C834 C 0.34795 0.70308 0.24337 0.0
C835 C 0.32953 0.73081 0.24081 0.0
C836 C 0.31397 0.73563 0.21982 0.0
C837 C 0.31923 0.71458 0.20098 0.0
C838 C 0.36555 0.69734 0.26522 0.0
C839 C 0.2931 0.76407 0.21681 0.0
C840 C 0.31885 0.77665 0.2975 0.0
C841 C 0.34046 0.80097 0.29554 0.0
C842 C 0.31322 0.75505 0.27902 0.0
C843 C 0.33057 0.75704 0.25866 0.0
C844 C 0.35175 0.78227 0.25642 0.0
C845 C 0.35602 0.80424 0.2747 0.0
C846 C 0.28956 0.72941 0.28164 0.0
C847 C 0.37138 0.7848 0.23535 0.0
H848 H 0.3671 0.66148 0.2264 0.0
H849 H 0.3087 0.71934 0.18446 0.0
H850 H 0.38198 0.71724 0.2673 0.0
H851 H 0.35102 0.69788 0.28062 0.0
H852 H 0.3774 0.67353 0.26495 0.0
H853 H 0.27825 0.76047 0.20173 0.0
H854 H 0.27956 0.76759 0.23262 0.0
H855 H 0.30584 0.78688 0.21396 0.0
H856 H 0.30659 0.77429 0.31353 0.0
H857 H 0.37289 0.82289 0.27314 0.0
H858 H 0.29978 0.7054 0.28566 0.0
H859 H 0.27696 0.72661 0.26529 0.0
H860 H 0.27404 0.73557 0.29586 0.0
H861 H 0.38501 0.76233 0.23383 0.0
H862 H 0.3863 0.80633 0.23613 0.0
H863 H 0.35793 0.78668 0.21939 0.0
C864 C 0.65645 0.68648 0.27613 0.0
C865 C 0.66517 0.69825 0.29793 0.0
C866 C 0.65879 0.70609 0.25629 0.0
C867 C 0.67104 0.73786 0.25814 0.0
C868 C 0.68298 0.74835 0.27956 0.0
C869 C 0.67945 0.72863 0.29934 0.0
C870 C 0.64528 0.69405 0.23395 0.0
C871 C 0.69746 0.78143 0.28197 0.0
C872 C 0.67797 0.78289 0.20057 0.0
C873 C 0.65214 0.80166 0.20066 0.0
C874 C 0.68559 0.76345 0.21982 0.0
C875 C 0.66623 0.76178 0.23904 0.0
C876 C 0.6404 0.78119 0.23927 0.0
C877 C 0.63399 0.80127 0.22029 0.0
C878 C 0.71388 0.74413 0.21931 0.0
C879 C 0.61868 0.7796 0.25908 0.0
H880 H 0.64554 0.66295 0.27479 0.0
H881 H 0.68667 0.73766 0.31606 0.0
H882 H 0.625 0.7083 0.23025 0.0
H883 H 0.66056 0.69786 0.21924 0.0
H884 H 0.63938 0.66766 0.23475 0.0
H885 H 0.71106 0.78293 0.29792 0.0
H886 H 0.71155 0.78676 0.26673 0.0
H887 H 0.68031 0.80073 0.28287 0.0
H888 H 0.69215 0.78336 0.18548 0.0
H889 H 0.61387 0.81556 0.22038 0.0
H890 H 0.709 0.71804 0.21559 0.0
H891 H 0.72512 0.74519 0.23637 0.0
H892 H 0.72916 0.7533 0.20576 0.0
H893 H 0.61026 0.7542 0.26095 0.0
H894 H 0.59963 0.79627 0.25652 0.0
H895 H 0.62965 0.78622 0.27558 0.0
C896 C 0.81951 0.30261 0.28537 0.0
C897 C 0.84042 0.29082 0.30118 0.0
C898 C 0.81426 0.28617 0.26436 0.0
C899 C 0.83116 0.25811 0.25876 0.0
C900 C 0.85113 0.24519 0.27524 0.0
C901 C 0.85512 0.2614 0.29641 0.0
C902 C 0.79184 0.29988 0.24769 0.0
C903 C 0.87009 0.21574 0.26984 0.0
C904 C 0.81956 0.19991 0.20831 0.0
C905 C 0.84007 0.212 0.1923 0.0
C906 C 0.81443 0.21628 0.22936 0.0
C907 C 0.83105 0.2446 0.2348 0.0
C908 C 0.85059 0.25782 0.21813 0.0
C909 C 0.85447 0.24165 0.19693 0.0
C910 C 0.79245 0.20225 0.24625 0.0
C911 C 0.86924 0.28757 0.22334 0.0
H912 H 0.80793 0.32523 0.28909 0.0
H913 H 0.87144 0.25225 0.30849 0.0
H914 H 0.80326 0.31327 0.2336 0.0
H915 H 0.77889 0.27988 0.23961 0.0
H916 H 0.77651 0.31715 0.25639 0.0
H917 H 0.88349 0.20785 0.28494 0.0
H918 H 0.85626 0.19484 0.26422 0.0
H919 H 0.8852 0.22171 0.25533 0.0
H920 H 0.8082 0.17713 0.2047 0.0
H921 H 0.87046 0.25106 0.18468 0.0
H922 H 0.77931 0.22206 0.2544 0.0
H923 H 0.80426 0.18914 0.26028 0.0
H924 H 0.77726 0.18468 0.23772 0.0
H925 H 0.85523 0.30825 0.2291 0.0
H926 H 0.88228 0.29567 0.2081 0.0
H927 H 0.88467 0.28185 0.2377 0.0
C928 C 0.85109 0.68264 0.77227 0.0
C929 C 0.8389 0.68842 0.79422 0.0
C930 C 0.84752 0.7052 0.75422 0.0
C931 C 0.83049 0.73376 0.75794 0.0
C932 C 0.8158 0.73818 0.77936 0.0
C933 C 0.82063 0.71572 0.79745 0.0
C934 C 0.86413 0.69979 0.73186 0.0
C935 C 0.79639 0.76755 0.78362 0.0
C936 C 0.85939 0.80707 0.72512 0.0
C937 C 0.84303 0.80563 0.70455 0.0
C938 C 0.85454 0.78469 0.74308 0.0
C939 C 0.83208 0.76088 0.74078 0.0
C940 C 0.81392 0.76094 0.72083 0.0
C941 C 0.81999 0.78296 0.70269 0.0
C942 C 0.87492 0.7851 0.76378 0.0
C943 C 0.78897 0.73686 0.71818 0.0
H944 H 0.86524 0.66158 0.7696 0.0
H945 H 0.81084 0.72007 0.8143 0.0
H946 H 0.84914 0.70205 0.7168 0.0
H947 H 0.88138 0.71886 0.72998 0.0
H948 H 0.87487 0.67535 0.7312 0.0
H949 H 0.78179 0.76383 0.79883 0.0
H950 H 0.81028 0.78938 0.78696 0.0
H951 H 0.78263 0.7729 0.76819 0.0
H952 H 0.87729 0.82448 0.72667 0.0
H953 H 0.80708 0.78201 0.68691 0.0
H954 H 0.88772 0.76194 0.76438 0.0
H955 H 0.86208 0.78668 0.78006 0.0
H956 H 0.89063 0.80593 0.76326 0.0
H957 H 0.7979 0.71248 0.71346 0.0
H958 H 0.77331 0.74455 0.70443 0.0
H959 H 0.77679 0.73407 0.73473 0.0
C960 C 0.6435 0.31535 0.77221 0.0
C961 C 0.65491 0.30864 0.7943 0.0
C962 C 0.64713 0.29322 0.75391 0.0
C963 C 0.66339 0.26409 0.75755 0.0
C964 C 0.67751 0.25879 0.77911 0.0
C965 C 0.6727 0.2809 0.79741 0.0
C966 C 0.63122 0.29966 0.73137 0.0
C967 C 0.69611 0.22876 0.78331 0.0
C968 C 0.6329 0.19223 0.72402 0.0
C969 C 0.64979 0.19308 0.70369 0.0
C970 C 0.63805 0.21432 0.74211 0.0
C971 C 0.66127 0.23727 0.74018 0.0
C972 C 0.67981 0.23667 0.72045 0.0
C973 C 0.67352 0.21492 0.7022 0.0
C974 C 0.61731 0.21445 0.76259 0.0
C975 C 0.70549 0.25987 0.71817 0.0
H976 H 0.62985 0.3368 0.76956 0.0
H977 H 0.68195 0.2758 0.81434 0.0
H978 H 0.64642 0.2969 0.71648 0.0
H979 H 0.61333 0.28141 0.72916 0.0
H980 H 0.62138 0.32456 0.73072 0.0
H981 H 0.71055 0.23177 0.7987 0.0
H982 H 0.68162 0.20732 0.78634 0.0
H983 H 0.70998 0.22325 0.76798 0.0
H984 H 0.6145 0.17545 0.72534 0.0
H985 H 0.68686 0.2154 0.68663 0.0
H986 H 0.60526 0.23809 0.76321 0.0
H987 H 0.62983 0.21213 0.77899 0.0
H988 H 0.60096 0.19426 0.76178 0.0
H989 H 0.69735 0.28456 0.71335 0.0
H990 H 0.72122 0.25167 0.70464 0.0
H991 H 0.71738 0.26219 0.73489 0.0
C992 C 0.33081 0.29847 0.71219 0.0
C993 C 0.35943 0.29373 0.70371 0.0
C994 C 0.32059 0.28075 0.73154 0.0
C995 C 0.33959 0.25813 0.74266 0.0
C996 C 0.36796 0.25223 0.73341 0.0
C997 C 0.37741 0.26995 0.71405 0.0
C998 C 0.29003 0.28727 0.74061 0.0
C999 C 0.38896 0.22819 0.74456 0.0
C1000 C 0.34111 0.23736 0.80622 0.0
C1001 C 0.33405 0.20393 0.80557 0.0
C1002 C 0.34008 0.25654 0.78606 0.0
C1003 C 0.33135 0.24201 0.76486 0.0
C1004 C 0.32059 0.20947 0.76478 0.0
C1005 C 0.32226 0.19069 0.78513 0.0
C1006 C 0.35158 0.29121 0.78698 0.0
C1007 C 0.31016 0.1934 0.74273 0.0
H1008 H 0.31675 0.31674 0.70423 0.0
H1009 H 0.39942 0.26579 0.70745 0.0
H1010 H 0.27903 0.2641 0.74572 0.0
H1011 H 0.29144 0.30294 0.75627 0.0
H1012 H 0.27615 0.30006 0.7276 0.0
H1013 H 0.40991 0.22579 0.73478 0.0
H1014 H 0.39419 0.23626 0.76245 0.0
H1015 H 0.37863 0.20363 0.74577 0.0
H1016 H 0.3499 0.24797 0.82198 0.0
H1017 H 0.31619 0.16501 0.78459 0.0
H1018 H 0.33725 0.30793 0.77687 0.0
H1019 H 0.37386 0.29203 0.77912 0.0
H1020 H 0.35315 0.30047 0.80503 0.0
H1021 H 0.29712 0.21076 0.73208 0.0
H1022 H 0.29659 0.17135 0.74635 0.0
H1023 H 0.3295 0.18571 0.73233 0.0
C1024 C 0.10952 0.72511 0.71956 0.0
C1025 C 0.12709 0.70274 0.70741 0.0
C1026 C 0.12024 0.7416 0.73904 0.0
C1027 C 0.14942 0.73577 0.74659 0.0
C1028 C 0.16785 0.71447 0.73377 0.0
C1029 C 0.15641 0.69805 0.71431 0.0
C1030 C 0.09983 0.76436 0.75205 0.0
C1031 C 0.19919 0.708 0.74107 0.0
C1032 C 0.16938 0.80107 0.78985 0.0
C1033 C 0.15918 0.78661 0.81041 0.0
C1034 C 0.16969 0.78343 0.76899 0.0
C1035 C 0.15935 0.75074 0.76874 0.0
C1036 C 0.15258 0.73489 0.78991 0.0
C1037 C 0.15276 0.753 0.81056 0.0
C1038 C 0.17798 0.80092 0.7469 0.0
C1039 C 0.14175 0.69994 0.79048 0.0
H1040 H 0.08694 0.72918 0.71422 0.0
H1041 H 0.17015 0.68084 0.70495 0.0
H1042 H 0.09628 0.755 0.76989 0.0
H1043 H 0.10984 0.78906 0.75354 0.0
H1044 H 0.07806 0.7669 0.74348 0.0
H1045 H 0.21212 0.69612 0.72706 0.0
H1046 H 0.21032 0.73109 0.74619 0.0
H1047 H 0.19928 0.69156 0.75637 0.0
H1048 H 0.175 0.82689 0.78966 0.0
H1049 H 0.14528 0.74144 0.82641 0.0
H1050 H 0.15768 0.80888 0.73781 0.0
H1051 H 0.19024 0.78442 0.73507 0.0
H1052 H 0.19159 0.82298 0.75041 0.0
H1053 H 0.11876 0.69909 0.784 0.0
H1054 H 0.14213 0.6896 0.80828 0.0
H1055 H 0.15527 0.68416 0.77903 0.0
C1056 C -0.00505 0.04349 0.45162 0.0
C1057 C 0.00681 0.01833 0.43799 0.0
C1058 C 0.98635 0.03762 0.47457 0.0
C1059 C 0.98927 0.00572 0.48391 0.0
C1060 C 0.00033 0.98 0.46998 0.0
C1061 C 0.00894 0.98663 0.44715 0.0
C1062 C 0.97448 0.0656 0.48891 0.0
C1063 C 0.00354 0.94561 0.47931 0.0
C1064 C -0.00395 0.99448 0.54882 0.0
C1065 C 0.96779 0.98363 0.55462 0.0
C1066 C 0.00321 0.00228 0.52586 0.0
C1067 C 0.98148 -0.00071 0.50843 0.0
C1068 C 0.95263 0.98929 0.51435 0.0
C1069 C 0.94606 0.98185 0.53749 0.0
C1070 C 0.03415 0.01316 0.5202 0.0
C1071 C 0.92886 0.986 0.49622 0.0
H1072 H 0.99215 0.06772 0.44433 0.0
H1073 H 0.01791 0.96707 0.43659 0.0
H1074 H 0.95222 0.05949 0.49548 0.0
H1075 H 0.9888 0.0696 0.50422 0.0
H1076 H 0.97316 0.08883 0.47892 0.0
H1077 H 0.01158 0.92816 0.46596 0.0
H1078 H 0.01922 0.94551 0.49404 0.0
H1079 H 0.98209 0.93671 0.48598 0.0
H1080 H 0.01272 0.99623 0.5622 0.0
H1081 H 0.92388 0.97474 0.54221 0.0
H1082 H 0.03368 0.0372 0.51123 0.0
H1083 H 0.04454 0.99533 0.50822 0.0
H1084 H 0.04813 0.01535 0.53591 0.0
H1085 H 0.92594 0.00956 0.48691 0.0
H1086 H 0.90739 0.97863 0.5038 0.0
H1087 H 0.93545 0.96743 0.48318 0.0
C1088 C 0.49354 0.00065 0.44222 0.0
C1089 C 0.46526 0.98784 0.4391 0.0
C1090 C 0.50429 0.00732 0.46448 0.0
C1091 C 0.48615 0.00126 0.48394 0.0
C1092 C 0.45732 0.98892 0.48081 0.0
C1093 C 0.44713 0.98257 0.45833 0.0
C1094 C 0.53509 0.02066 0.46719 0.0
C1095 C 0.43727 0.98244 0.50116 0.0
C1096 C 0.52283 0.98962 0.54234 0.0
C1097 C 0.51912 0.0206 0.55235 0.0
C1098 C 0.51219 0.98296 0.52004 0.0
C1099 C 0.49735 0.00787 0.5076 0.0
C1100 C 0.4932 0.03908 0.51775 0.0
C1101 C 0.50399 0.04499 0.5401 0.0
C1102 C 0.51689 0.94935 0.50976 0.0
C1103 C 0.47727 0.06615 0.50506 0.0
H1104 H 0.50738 0.00502 0.42724 0.0
H1105 H 0.42483 0.97391 0.45577 0.0
H1106 H 0.53444 0.04449 0.47641 0.0
H1107 H 0.54847 0.00365 0.47786 0.0
H1108 H 0.54626 0.02423 0.45026 0.0
H1109 H 0.41553 0.97265 0.49572 0.0
H1110 H 0.44769 0.96459 0.51311 0.0
H1111 H 0.4337 0.00538 0.51106 0.0
H1112 H 0.53433 0.97065 0.55189 0.0
H1113 H 0.50004 0.06855 0.54813 0.0
H1114 H 0.52971 0.95137 0.49346 0.0
H1115 H 0.49538 0.93815 0.5053 0.0
H1116 H 0.52875 0.93266 0.52177 0.0
H1117 H 0.4885 0.07141 0.4884 0.0
H1118 H 0.4762 0.08914 0.51532 0.0
H1119 H 0.45452 0.0583 0.50088 0.0
C1120 C 0.49372 0.03711 0.94705 0.0
C1121 C 0.47727 0.01441 0.93428 0.0
C1122 C 0.50394 0.02944 0.96931 0.0
C1123 C 0.49779 0.99822 0.97882 0.0
C1124 C 0.48216 0.97477 0.96562 0.0
C1125 C 0.47215 0.98314 0.94344 0.0
C1126 C 0.52077 0.05496 0.98284 0.0
C1127 C 0.47531 0.94118 0.97517 0.0
C1128 C 0.54176 0.96818 0.03046 0.0
C1129 C 0.52224 0.97442 0.04872 0.0
C1130 C 0.53417 0.97589 0.00756 0.0
C1131 C 0.50655 0.99051 0.00294 0.0
C1132 C 0.48701 0.99747 0.02138 0.0
C1133 C 0.49516 0.98942 0.04408 0.0
C1134 C 0.55564 0.96839 0.98831 0.0
C1135 C 0.45739 0.01315 0.0171 0.0
H1136 H 0.49863 0.06087 0.93967 0.0
H1137 H 0.45958 0.96549 0.9335 0.0
H1138 H 0.50829 0.06166 -0.00133 0.0
H1139 H 0.54226 0.04492 0.98856 0.0
H1140 H 0.52477 0.07755 0.97258 0.0
H1141 H 0.46415 0.92528 0.96226 0.0
H1142 H 0.49584 0.92891 0.9809 0.0
H1143 H 0.46088 0.9435 0.99059 0.0
H1144 H 0.5632 0.95783 0.03406 0.0
H1145 H 0.48011 0.99447 0.05821 0.0
H1146 H 0.56133 0.9912 0.97888 0.0
H1147 H 0.54537 0.95149 0.97562 0.0
H1148 H 0.57625 0.95702 0.99484 0.0
H1149 H 0.46027 0.03698 0.00813 0.0
H1150 H 0.44497 0.01738 0.0334 0.0
H1151 H 0.444 0.99729 0.0056 0.0
C1152 C 0.95968 0.98854 0.04363 0.0
C1153 C 0.96518 0.01983 0.0526 0.0
C1154 C 0.97006 0.97955 0.02168 0.0
C1155 C 0.98644 0.0024 0.00852 0.0
C1156 C 0.99239 0.0339 0.01761 0.0
C1157 C 0.98183 0.04216 0.03965 0.0
C1158 C 0.96344 0.94567 0.01256 0.0
C1159 C 0.00998 0.0588 0.00409 0.0
C1160 C 0.03568 0.96952 0.96097 0.0
C1161 C 0.01822 0.97453 0.94128 0.0
C1162 C 0.02559 0.97847 0.983 0.0
C1163 C -0.00245 0.99319 0.98528 0.0
C1164 C 0.98008 -0.00105 0.9654 0.0
C1165 C 0.9907 0.98962 0.94359 0.0
C1166 C 0.04491 0.97218 0.00382 0.0
C1167 C 0.95012 0.01476 0.96721 0.0
H1168 H 0.94692 0.97118 0.05369 0.0
H1169 H 0.98705 0.06594 0.04687 0.0
H1170 H 0.95096 0.94747 0.99609 0.0
H1171 H 0.98426 0.93257 0.00872 0.0
H1172 H 0.95045 0.9308 0.02502 0.0
H1173 H 0.01228 0.08239 0.01351 0.0
H1174 H 0.03227 0.04903 0.0004 0.0
H1175 H -0.00075 0.06362 0.98716 0.0
H1176 H 0.05747 0.95916 0.95916 0.0
H1177 H 0.9773 0.99376 0.92832 0.0
H1178 H 0.03326 0.95615 0.01635 0.0
H1179 H 0.04973 0.99558 0.01283 0.0
H1180 H 0.06608 0.96035 -0.00094 0.0
H1181 H 0.93556 -0.00039 0.97831 0.0
H1182 H 0.93947 0.01789 0.95003 0.0
H1183 H 0.95207 0.03915 0.97556 0.0
C1184 C 0.53817 0.53926 0.46403 0.0
C1185 C 0.51958 0.53463 0.44494 0.0
C1186 C 0.52905 0.53062 0.48641 0.0
C1187 C 0.50089 0.51659 0.48963 0.0
C1188 C 0.48208 0.51174 0.47041 0.0
C1189 C 0.49171 0.52077 0.44827 0.0
C1190 C 0.54972 0.53601 0.50654 0.0
C1191 C 0.45193 0.49669 0.4732 0.0
C1192 C 0.48688 0.46407 0.54259 0.0
C1193 C 0.47057 0.48546 0.55654 0.0
C1194 C 0.49712 0.47399 0.5208 0.0
C1195 C 0.49126 0.50622 0.51303 0.0
C1196 C 0.47559 0.52826 0.52736 0.0
C1197 C 0.46546 0.5176 0.54901 0.0
C1198 C 0.51391 0.44988 0.506 0.0
C1199 C 0.46914 0.56289 0.51966 0.0
H1200 H 0.56015 0.54872 0.46147 0.0
H1201 H 0.47737 0.517 0.43349 0.0
H1202 H 0.53879 0.55097 0.52008 0.0
H1203 H 0.55549 0.51213 0.51453 0.0
H1204 H 0.57036 0.54851 0.50122 0.0
H1205 H 0.43985 0.49507 0.45651 0.0
H1206 H 0.45397 0.47169 0.48059 0.0
H1207 H 0.43864 0.5114 0.48552 0.0
H1208 H 0.49189 0.43964 0.54874 0.0
H1209 H 0.45304 0.53426 0.55989 0.0
H1210 H 0.53587 0.45995 0.50158 0.0
H1211 H 0.50203 0.44578 0.48946 0.0
H1212 H 0.51696 0.42587 0.51475 0.0
H1213 H 0.48991 0.57564 0.51513 0.0
H1214 H 0.45758 0.57729 0.53323 0.0
H1215 H 0.45527 0.56251 0.50385 0.0
C1216 C 0.03133 0.48879 0.54219 0.0
C1217 C 0.02456 0.51933 0.55184 0.0
C1218 C 0.02144 0.48039 0.51997 0.0
C1219 C 0.00403 0.50297 0.50737 0.0
C1220 C -0.00309 0.53375 0.51716 0.0
C1221 C 0.00727 0.54155 0.53933 0.0
C1222 C 0.02952 0.44739 0.51001 0.0
C1223 C 0.97803 0.55824 0.50434 0.0
C1224 C -0.00231 0.49407 0.4422 0.0
C1225 C 0.97078 0.47773 0.44015 0.0
C1226 C 0.00902 0.50214 0.46406 0.0
C1227 C 0.99267 0.4941 0.48415 0.0
C1228 C 0.96523 0.47799 0.48207 0.0
C1229 C 0.95455 0.47008 0.46002 0.0
C1230 C 0.03838 0.51928 0.46567 0.0
C1231 C 0.94702 0.46944 0.50311 0.0
H1232 H 0.04463 0.47158 0.55195 0.0
H1233 H 0.00125 0.56477 0.54708 0.0
H1234 H 0.00929 0.43306 0.50643 0.0
H1235 H 0.04118 0.45064 0.49328 0.0
H1236 H 0.04379 0.43297 0.52186 0.0
H1237 H 0.97498 0.58133 0.51424 0.0
H1238 H 0.98813 0.56424 0.48737 0.0
H1239 H 0.95608 0.54747 0.50079 0.0
H1240 H 0.00997 0.50024 0.4267 0.0
H1241 H 0.93324 0.4584 0.45827 0.0
H1242 H 0.05374 0.50461 0.47642 0.0
H1243 H 0.03566 0.54337 0.47431 0.0
H1244 H 0.04852 0.52329 0.44839 0.0
H1245 H 0.95986 0.4535 0.51495 0.0
H1246 H 0.92628 0.45662 0.49847 0.0
H1247 H 0.94142 0.49204 0.51283 0.0
C1248 C 0.98937 0.49422 0.05255 0.0
C1249 C 0.01756 0.48157 0.05643 0.0
C1250 C 0.97961 0.50098 0.03001 0.0
C1251 C -0.00124 0.49535 0.01108 0.0
C1252 C 0.0275 0.48321 0.01502 0.0
C1253 C 0.0366 0.47656 0.03773 0.0
C1254 C 0.94882 0.51392 0.02643 0.0
C1255 C 0.04863 0.47728 0.99526 0.0
C1256 C 0.96634 0.48353 0.95117 0.0
C1257 C 0.97031 0.51463 0.94141 0.0
C1258 C 0.97522 0.477 0.97396 0.0
C1259 C 0.98871 0.50211 0.98711 0.0
C1260 C 0.99302 0.53349 0.97724 0.0
C1261 C 0.98379 0.53936 0.95445 0.0
C1262 C 0.97021 0.44327 0.98397 0.0
C1263 C 0.00766 0.56073 0.99067 0.0
H1264 H 0.97484 0.49836 0.06716 0.0
H1265 H 0.05876 0.46781 0.04091 0.0
H1266 H 0.94963 0.53793 0.01744 0.0
H1267 H 0.93622 0.49691 0.01519 0.0
H1268 H 0.93674 0.51699 0.04302 0.0
H1269 H 0.07025 0.4679 0.00133 0.0
H1270 H 0.0391 0.45929 0.98297 0.0
H1271 H 0.05227 0.50036 0.98553 0.0
H1272 H 0.956 0.46438 0.94103 0.0
H1273 H 0.98775 0.56311 0.94668 0.0
H1274 H 0.95666 0.44505 -0.0001 0.0
H1275 H 0.99156 0.43214 0.98897 0.0
H1276 H 0.95899 0.42664 0.97156 0.0
H1277 H -0.00461 0.56552 0.00693 0.0
H1278 H 0.00891 0.58388 0.98059 0.0
H1279 H 0.03029 0.55331 0.99562 0.0
C1280 C 0.48474 0.487 0.94451 0.0
C1281 C 0.51328 0.47567 0.94028 0.0
C1282 C 0.47548 0.49416 0.96712 0.0
C1283 C 0.4955 0.49034 0.98571 0.0
C1284 C 0.52451 0.47929 0.98142 0.0
C1285 C 0.53309 0.47218 0.95867 0.0
C1286 C 0.44437 0.50586 0.97111 0.0
C1287 C 0.54656 0.47533 0.00079 0.0
C1288 C 0.48187 0.53755 0.04116 0.0
C1289 C 0.46994 0.51322 0.05546 0.0
C1290 C 0.49006 0.5305 0.0183 0.0
C1291 C 0.48628 0.49833 0.00967 0.0
C1292 C 0.4743 0.47364 0.02407 0.0
C1293 C 0.46645 0.48137 0.0469 0.0
C1294 C 0.50312 0.55734 0.00351 0.0
C1295 C 0.46988 0.4391 0.01538 0.0
H1296 H 0.46962 0.49 0.93013 0.0
H1297 H 0.55549 0.46449 0.95517 0.0
H1298 H 0.43299 0.48924 0.9834 0.0
H1299 H 0.44465 0.53059 0.97907 0.0
H1300 H 0.43143 0.50701 0.9548 0.0
H1301 H 0.56814 0.46612 0.99451 0.0
H1302 H 0.55006 0.49918 0.00957 0.0
H1303 H 0.53798 0.458 0.01397 0.0
H1304 H 0.48546 0.56193 0.04799 0.0
H1305 H 0.45729 0.46254 0.05803 0.0
H1306 H 0.48997 0.56046 0.98747 0.0
H1307 H 0.52575 0.5505 0.99817 0.0
H1308 H 0.50403 0.58121 0.01272 0.0
H1309 H 0.45563 0.43929 -0.00023 0.0
H1310 H 0.45969 0.42297 0.02865 0.0
H1311 H 0.49134 0.42841 0.0102 0.0
C1312 C 0.19654 0.05183 0.38569 0.0
C1313 C 0.17112 0.03514 0.37888 0.0
C1314 C 0.2229 0.03484 0.38925 0.0
C1315 C 0.22351 0.00051 0.38589 0.0
C1316 C 0.19723 0.98332 0.38092 0.0
C1317 C 0.17128 0.00096 0.37727 0.0
C1318 C 0.25051 0.05397 0.39454 0.0
C1319 C 0.19703 0.94667 0.37735 0.0
C1320 C 0.29095 0.96476 0.35771 0.0
C1321 C 0.30453 0.94919 0.3764 0.0
C1322 C 0.26476 0.98204 0.36077 0.0
C1323 C 0.252 0.98362 0.38312 0.0
C1324 C 0.26598 0.96836 0.40219 0.0
C1325 C 0.29237 0.95129 0.39859 0.0
C1326 C 0.2506 0.99824 0.34001 0.0
C1327 C 0.25283 0.96962 0.42618 0.0
H1328 H 0.19611 0.07832 0.38708 0.0
H1329 H 0.15156 0.98819 0.37179 0.0
H1330 H 0.26388 0.04136 0.40791 0.0
H1331 H 0.26413 0.05574 0.37862 0.0
H1332 H 0.2455 0.0792 0.40059 0.0
H1333 H 0.17434 0.93655 0.37745 0.0
H1334 H 0.2073 0.94082 0.3604 0.0
H1335 H 0.21009 0.93419 0.39098 0.0
H1336 H 0.30088 0.96331 0.34065 0.0
H1337 H 0.30331 0.93925 0.41295 0.0
H1338 H 0.24739 0.02476 0.34336 0.0
H1339 H 0.22857 0.9874 0.33687 0.0
H1340 H 0.26396 0.99543 0.32402 0.0
H1341 H 0.24885 0.99541 0.43137 0.0
H1342 H 0.26723 0.95784 0.43932 0.0
H1343 H 0.2312 0.95702 0.42622 0.0
C1344 C 0.80427 0.01941 0.11538 0.0
C1345 C 0.80199 0.05294 0.11068 0.0
C1346 C 0.77958 -0.00083 0.1143 0.0
C1347 C 0.75194 0.01309 0.10888 0.0
C1348 C 0.74971 0.04673 0.10316 0.0
C1349 C 0.77497 0.06636 0.10407 0.0
C1350 C 0.78278 0.96333 0.12038 0.0
C1351 C 0.72048 0.06233 0.09747 0.0
C1352 C 0.68952 0.95409 0.09737 0.0
C1353 C 0.67711 0.95178 0.11946 0.0
C1354 C 0.71371 0.97458 0.09342 0.0
C1355 C 0.72516 0.99321 0.11201 0.0
C1356 C 0.71209 0.99141 0.13424 0.0
C1357 C 0.68817 0.97052 0.1377 0.0
C1358 C 0.72736 0.97582 0.06959 0.0
C1359 C 0.72364 0.01113 0.15443 0.0
H1360 H 0.82516 0.00922 0.12088 0.0
H1361 H 0.77345 0.09238 0.10045 0.0
H1362 H 0.7722 0.95853 0.13737 0.0
H1363 H 0.77154 0.94783 0.10733 0.0
H1364 H 0.80621 0.95569 0.12148 0.0
H1365 H 0.72304 0.08768 0.09074 0.0
H1366 H 0.70846 0.04751 0.08444 0.0
H1367 H 0.70667 0.06322 0.11331 0.0
H1368 H 0.68044 0.93962 0.08333 0.0
H1369 H 0.67796 0.9689 0.15464 0.0
H1370 H 0.75025 0.96642 0.07039 0.0
H1371 H 0.7285 0.00151 0.06338 0.0
H1372 H 0.71486 0.96104 0.05678 0.0
H1373 H 0.74645 0.00338 0.15856 0.0
H1374 H 0.70993 0.00816 0.17022 0.0
H1375 H 0.72441 0.03752 0.14984 0.0
C1376 C 0.68196 0.01248 0.6245 0.0
C1377 C 0.68086 0.04661 0.62275 0.0
C1378 C 0.70884 0.99594 0.62308 0.0
C1379 C 0.73503 0.01419 0.62006 0.0
C1380 C 0.73375 0.04853 0.61685 0.0
C1381 C 0.70652 0.0644 0.61826 0.0
C1382 C 0.7094 0.95925 0.62649 0.0
C1383 C 0.76126 0.06871 0.61355 0.0
C1384 C 0.80158 0.97823 0.64963 0.0
C1385 C 0.8161 0.96351 0.63104 0.0
C1386 C 0.77542 0.9955 0.64612 0.0
C1387 C 0.76373 0.99795 0.62345 0.0
C1388 C 0.7788 0.98379 0.6045 0.0
C1389 C 0.80502 0.96665 0.60855 0.0
C1390 C 0.75999 0.01048 0.66675 0.0
C1391 C 0.76687 0.98602 0.58014 0.0
H1392 H 0.66201 -0.00111 0.62822 0.0
H1393 H 0.70539 0.09086 0.61678 0.0
H1394 H 0.72335 0.94741 0.61313 0.0
H1395 H 0.71914 0.95348 0.64364 0.0
H1396 H 0.68702 0.94836 0.62572 0.0
H1397 H 0.75619 0.09422 0.60812 0.0
H1398 H 0.77369 0.06965 0.63009 0.0
H1399 H 0.77584 0.05735 0.60041 0.0
H1400 H 0.8106 0.97591 0.66694 0.0
H1401 H 0.81654 0.9551 0.59427 0.0
H1402 H 0.73806 -0.00104 0.66902 0.0
H1403 H 0.75635 0.03704 0.66381 0.0
H1404 H 0.77267 0.00734 0.68305 0.0
H1405 H 0.74569 0.97261 0.57903 0.0
H1406 H 0.7823 0.97557 0.56717 0.0
H1407 H 0.76235 0.01194 0.57555 0.0
C1408 C 0.28408 0.0602 0.89934 0.0
C1409 C 0.30911 0.04581 0.88959 0.0
C1410 C 0.25866 0.04155 0.90319 0.0
C1411 C 0.25861 0.00799 0.89702 0.0
C1412 C 0.28455 0.99302 0.88857 0.0
C1413 C 0.30947 0.01225 0.8848 0.0
C1414 C 0.23137 0.05821 0.91229 0.0
C1415 C 0.28533 0.95727 0.88179 0.0
C1416 C 0.19702 0.94905 0.9114 0.0
C1417 C 0.18225 0.94822 0.8902 0.0
C1418 C 0.22138 0.96969 0.91442 0.0
C1419 C 0.23067 0.98967 0.89575 0.0
C1420 C 0.21481 0.98974 0.87463 0.0
C1421 C 0.19076 0.96882 0.87211 0.0
C1422 C 0.23784 0.96914 0.93712 0.0
C1423 C 0.224 0.01081 0.85435 0.0
H1424 H 0.28407 0.08624 0.90306 0.0
H1425 H 0.32882 0.00132 0.87697 0.0
H1426 H 0.21547 0.06162 0.8979 0.0
H1427 H 0.22048 0.04287 0.92564 0.0
H1428 H 0.23636 0.08261 0.91985 0.0
H1429 H 0.30807 0.9486 0.87829 0.0
H1430 H 0.27563 0.94185 0.89564 0.0
H1431 H 0.27197 0.95357 0.86591 0.0
H1432 H 0.18995 0.93304 0.92532 0.0
H1433 H 0.17882 0.96807 0.85584 0.0
H1434 H 0.24181 0.99445 0.94337 0.0
H1435 H 0.25965 0.95748 0.93456 0.0
H1436 H 0.22578 0.95531 0.95071 0.0
H1437 H 0.2264 0.0367 0.85985 0.0
H1438 H 0.20794 0.00973 0.83985 0.0
H1439 H 0.24572 0.00253 0.84781 0.0
C1440 C 0.80728 0.47701 0.38974 0.0
C1441 C 0.80556 0.44283 0.39101 0.0
C1442 C 0.78223 0.49634 0.39254 0.0
C1443 C 0.75473 0.48095 0.39603 0.0
C1444 C 0.75312 0.44655 0.39885 0.0
C1445 C 0.77876 0.42778 0.39638 0.0
C1446 C 0.78486 0.53302 0.38963 0.0
C1447 C 0.72411 0.42936 0.40252 0.0
C1448 C 0.69108 0.53871 0.40668 0.0
C1449 C 0.68159 0.5441 0.38396 0.0
C1450 C 0.71424 0.51694 0.4112 0.0
C1451 C 0.7277 0.50033 0.39248 0.0
C1452 C 0.71717 0.50481 0.36961 0.0
C1453 C 0.69424 0.52683 0.36563 0.0
C1454 C 0.72504 0.51272 0.43574 0.0
C1455 C 0.73083 0.48728 0.3492 0.0
H1456 H 0.8279 0.48864 0.38513 0.0
H1457 H 0.77762 0.40129 0.39743 0.0
H1458 H 0.77579 0.54025 0.37252 0.0
H1459 H 0.77198 0.54601 0.40312 0.0
H1460 H 0.80808 0.5414 0.39056 0.0
H1461 H 0.72719 0.4038 0.40869 0.0
H1462 H 0.71029 0.4428 0.41518 0.0
H1463 H 0.71188 0.4286 0.38589 0.0
H1464 H 0.68079 0.55203 0.42077 0.0
H1465 H 0.68624 0.53075 0.34814 0.0
H1466 H 0.74707 0.52413 0.43752 0.0
H1467 H 0.72746 0.48636 0.44 0.0
H1468 H 0.70997 0.52421 0.44854 0.0
H1469 H 0.75376 0.4959 0.34671 0.0
H1470 H 0.71847 0.49155 0.33287 0.0
H1471 H 0.73173 0.46052 0.35251 0.0
C1472 C 0.30218 0.52908 0.10227 0.0
C1473 C 0.31328 0.53333 0.12465 0.0
C1474 C 0.27617 0.51134 0.09869 0.0
C1475 C 0.26141 0.49776 0.11801 0.0
C1476 C 0.27336 0.50101 0.14054 0.0
C1477 C 0.29924 0.51885 0.14356 0.0
C1478 C 0.26396 0.5082 0.07448 0.0
C1479 C 0.2583 0.48666 0.16157 0.0
C1480 C 0.17977 0.48542 0.12204 0.0
C1481 C 0.178 0.45125 0.12152 0.0
C1482 C 0.20672 0.50121 0.11881 0.0
C1483 C 0.23235 0.48214 0.11535 0.0
C1484 C 0.23029 0.4477 0.11323 0.0
C1485 C 0.20296 0.43258 0.11638 0.0
C1486 C 0.2081 0.53804 0.12107 0.0
C1487 C 0.2572 0.42667 0.10948 0.0
H1488 H 0.31341 0.54035 0.08773 0.0
H1489 H 0.30834 0.52199 0.16079 0.0
H1490 H 0.25819 0.48234 0.07071 0.0
H1491 H 0.24344 0.52279 0.07302 0.0
H1492 H 0.27974 0.51697 0.06115 0.0
H1493 H 0.27145 0.4899 0.17763 0.0
H1494 H 0.23661 0.49862 0.16409 0.0
H1495 H 0.25424 0.46011 0.15899 0.0
H1496 H 0.16038 0.49972 0.12624 0.0
H1497 H 0.20129 0.40609 0.1158 0.0
H1498 H 0.22179 0.54875 0.10708 0.0
H1499 H 0.21852 0.54457 0.13784 0.0
H1500 H 0.18591 0.54942 0.12045 0.0
H1501 H 0.27164 0.43743 0.09599 0.0
H1502 H 0.2513 0.40129 0.10432 0.0
H1503 H 0.27008 0.42548 0.12579 0.0
C1504 C 0.27965 0.43812 0.60958 0.0
C1505 C 0.30711 0.45119 0.61537 0.0
C1506 C 0.25491 0.45847 0.60789 0.0
C1507 C 0.25806 0.49249 0.61197 0.0
C1508 C 0.28602 0.50587 0.61696 0.0
C1509 C 0.31019 0.48494 0.61887 0.0
C1510 C 0.22527 0.44344 0.60277 0.0
C1511 C 0.29019 0.54207 0.62135 0.0
C1512 C 0.19692 0.55118 0.59579 0.0
C1513 C 0.18354 0.55581 0.61733 0.0
C1514 C 0.22124 0.5303 0.59363 0.0
C1515 C 0.23183 0.51368 0.61348 0.0
C1516 C 0.21806 0.51821 0.63523 0.0
C1517 C 0.19406 0.53942 0.63689 0.0
C1518 C 0.23571 0.52619 0.57028 0.0
C1519 C 0.22868 0.5007 0.65674 0.0
H1520 H 0.27747 0.41195 0.60688 0.0
H1521 H 0.33138 0.49489 0.62384 0.0
H1522 H 0.21092 0.44565 0.61824 0.0
H1523 H 0.2143 0.45675 0.58841 0.0
H1524 H 0.22701 0.41712 0.59806 0.0
H1525 H 0.3138 0.54891 0.62257 0.0
H1526 H 0.27986 0.55666 0.60732 0.0
H1527 H 0.27922 0.54896 0.63781 0.0
H1528 H 0.18832 0.56388 0.58074 0.0
H1529 H 0.18316 0.54287 0.65343 0.0
H1530 H 0.23577 0.49997 0.56524 0.0
H1531 H 0.259 0.53422 0.57123 0.0
H1532 H 0.22444 0.54052 0.55652 0.0
H1533 H 0.22868 0.47383 0.65383 0.0
H1534 H 0.21481 0.50615 0.67211 0.0
H1535 H 0.25165 0.50803 0.66065 0.0
C1536 C 0.70169 0.43622 0.8895 0.0
C1537 C 0.67652 0.45355 0.88285 0.0
C1538 C 0.72855 0.45245 0.89244 0.0
C1539 C 0.72991 0.48665 0.88861 0.0
C1540 C 0.70389 0.50458 0.88404 0.0
C1541 C 0.67743 0.48768 0.88101 0.0
C1542 C 0.75584 0.43257 0.89739 0.0
C1543 C 0.70447 0.54114 0.88003 0.0
C1544 C 0.79982 0.53529 0.8983 0.0
C1545 C 0.81066 0.53688 0.87566 0.0
C1546 C 0.77374 0.51823 0.90309 0.0
C1547 C 0.75867 0.50253 0.88475 0.0
C1548 C 0.77027 0.5033 0.86198 0.0
C1549 C 0.79619 0.52058 0.85773 0.0
C1550 C 0.76188 0.51783 0.92751 0.0
C1551 C 0.75494 0.48659 0.84197 0.0
H1552 H 0.70069 0.40976 0.89106 0.0
H1553 H 0.6579 0.50095 0.87567 0.0
H1554 H 0.76857 0.42949 0.88114 0.0
H1555 H 0.77023 0.44529 0.91003 0.0
H1556 H 0.75037 0.40785 0.90422 0.0
H1557 H 0.68205 0.55198 0.88055 0.0
H1558 H 0.71835 0.55349 0.8932 0.0
H1559 H 0.71421 0.54629 0.86278 0.0
H1560 H 0.81138 0.54797 0.91207 0.0
H1561 H 0.80509 0.52168 0.84031 0.0
H1562 H 0.75653 0.49242 0.93288 0.0
H1563 H 0.74117 0.53218 0.92826 0.0
H1564 H 0.77771 0.52842 0.94012 0.0
H1565 H 0.75133 0.46031 0.84599 0.0
H1566 H 0.76769 0.48836 0.8256 0.0
H1567 H 0.73303 0.4979 0.83914 0.0
C1568 C 0.02006 0.17773 0.38572 0.0
C1569 C 0.04298 0.17828 0.36944 0.0
C1570 C 0.00281 0.20564 0.38967 0.0
C1571 C 0.00851 0.23447 0.37683 0.0
C1572 C 0.03314 0.23598 0.36189 0.0
C1573 C 0.0502 0.20789 0.35848 0.0
C1574 C 0.97713 0.20344 0.40618 0.0
C1575 C 0.03995 0.26634 0.3479 0.0
C1576 C 0.94477 0.28601 0.35632 0.0
C1577 C 0.94811 0.31446 0.36965 0.0
C1578 C 0.9637 0.25934 0.35916 0.0
C1579 C 0.98634 0.26099 0.37596 0.0
C1580 C 0.98896 0.28891 0.39031 0.0
C1581 C 0.9699 0.31551 0.38686 0.0
C1582 C 0.96029 0.23001 0.3434 0.0
C1583 C 0.01251 0.29118 0.40868 0.0
H1584 H 0.01464 0.15509 0.39457 0.0
H1585 H 0.06814 0.2087 0.34612 0.0
H1586 H 0.97538 0.226 0.4168 0.0
H1587 H 0.95643 0.20103 0.39614 0.0
H1588 H 0.97903 0.18196 0.41791 0.0
H1589 H 0.06177 0.26485 0.33928 0.0
H1590 H 0.02287 0.2696 0.33434 0.0
H1591 H 0.03953 0.28844 0.35905 0.0
H1592 H 0.92799 0.28494 0.343 0.0
H1593 H 0.97241 0.33729 0.39739 0.0
H1594 H 0.95824 0.20726 0.35379 0.0
H1595 H 0.98015 0.22744 0.33237 0.0
H1596 H 0.94073 0.23205 0.33194 0.0
H1597 H 0.01333 0.26832 0.41906 0.0
H1598 H 0.00888 0.31224 0.42053 0.0
H1599 H 0.03431 0.29418 0.40031 0.0
C1600 C 0.47639 0.83083 0.38663 0.0
C1601 C 0.45347 0.8258 0.37071 0.0
C1602 C 0.497 0.80603 0.39119 0.0
C1603 C 0.4948 0.77586 0.37927 0.0
C1604 C 0.47086 0.7701 0.36413 0.0
C1605 C 0.45039 0.79504 0.36019 0.0
C1606 C 0.52185 0.8127 0.40788 0.0
C1607 C 0.46775 0.73823 0.35101 0.0
C1608 C 0.56016 0.7252 0.36137 0.0
C1609 C 0.55579 0.69676 0.37455 0.0
C1610 C 0.54172 0.7524 0.36403 0.0
C1611 C 0.51872 0.75125 0.38054 0.0
C1612 C 0.51609 0.72395 0.39549 0.0
C1613 C 0.53453 0.6968 0.39218 0.0
C1614 C 0.54521 0.78107 0.3477 0.0
C1615 C 0.4924 0.72233 0.41378 0.0
H1616 H 0.47877 0.85443 0.39501 0.0
H1617 H 0.43264 0.79078 0.34801 0.0
H1618 H 0.52577 0.79123 0.41926 0.0
H1619 H 0.5424 0.81723 0.39802 0.0
H1620 H 0.51738 0.83449 0.41887 0.0
H1621 H 0.44711 0.73715 0.34073 0.0
H1622 H 0.48664 0.7352 0.33902 0.0
H1623 H 0.46804 0.71721 0.36318 0.0
H1624 H 0.57672 0.72549 0.34786 0.0
H1625 H 0.53142 0.67511 0.40275 0.0
H1626 H 0.54469 0.80452 0.35737 0.0
H1627 H 0.52659 0.78137 0.33526 0.0
H1628 H 0.56607 0.7798 0.33771 0.0
H1629 H 0.49021 0.74617 0.42284 0.0
H1630 H 0.49696 0.7029 0.42679 0.0
H1631 H 0.47096 0.71688 0.40544 0.0
C1632 C 0.52111 0.81115 0.1012 0.0
C1633 C 0.54269 0.80914 0.11855 0.0
C1634 C 0.50252 0.78449 0.09658 0.0
C1635 C 0.50535 0.75559 0.10991 0.0
C1636 C 0.52866 0.75254 0.12603 0.0
C1637 C 0.5472 0.77927 0.13 0.0
C1638 C 0.47862 0.78816 0.07862 0.0
C1639 C 0.53251 0.72206 0.14061 0.0
C1640 C 0.43987 0.70771 0.13076 0.0
C1641 C 0.44455 0.67737 0.12 0.0
C1642 C 0.45829 0.73436 0.1262 0.0
C1643 C 0.48159 0.73075 0.11013 0.0
C1644 C 0.48447 0.70134 0.09738 0.0
C1645 C 0.46606 0.67476 0.10264 0.0
C1646 C 0.45444 0.76535 0.14021 0.0
C1647 C 0.50832 0.69704 0.07945 0.0
H1648 H 0.51785 0.83397 0.09192 0.0
H1649 H 0.5641 0.77729 0.14318 0.0
H1650 H 0.47543 0.76501 0.06887 0.0
H1651 H 0.45753 0.79411 0.08734 0.0
H1652 H 0.48367 0.80816 0.06617 0.0
H1653 H 0.55313 0.7226 0.15094 0.0
H1654 H 0.51365 0.71966 0.15271 0.0
H1655 H 0.53278 0.69992 0.1295 0.0
H1656 H 0.42305 0.71013 0.14396 0.0
H1657 H 0.46945 0.65156 0.09391 0.0
H1658 H 0.45426 0.78711 0.12872 0.0
H1659 H 0.47325 0.76811 0.15233 0.0
H1660 H 0.43377 0.7652 0.15049 0.0
H1661 H 0.51166 0.71991 0.06939 0.0
H1662 H 0.5031 0.67677 0.06729 0.0
H1663 H 0.52937 0.69111 0.08824 0.0
C1664 C 0.96741 0.18354 0.10238 0.0
C1665 C 0.94427 0.18668 0.11834 0.0
C1666 C 0.98731 0.20933 0.0988 0.0
C1667 C 0.98414 0.23851 0.11177 0.0
C1668 C 0.95972 0.24255 0.12671 0.0
C1669 C 0.93999 0.21667 0.12967 0.0
C1670 C 0.01263 0.20453 0.08223 0.0
C1671 C 0.95553 0.27333 0.14091 0.0
C1672 C 0.04769 0.28757 0.13457 0.0
C1673 C 0.04354 0.31743 0.123 0.0
C1674 C 0.02998 0.26047 0.1296 0.0
C1675 C 0.00793 0.26323 0.11241 0.0
C1676 C 0.00575 0.29209 0.09897 0.0
C1677 C 0.02346 0.31907 0.10457 0.0
C1678 C 0.03305 0.23003 0.14432 0.0
C1679 C 0.98317 0.29544 0.07995 0.0
H1680 H 0.97063 0.16058 0.0933 0.0
H1681 H 0.92205 0.21948 0.14187 0.0
H1682 H 0.01727 0.22735 0.07244 0.0
H1683 H 0.03274 0.19815 0.09216 0.0
H1684 H 0.0082 0.18442 0.06975 0.0
H1685 H 0.93438 0.27332 0.15056 0.0
H1686 H 0.97376 0.27565 0.15359 0.0
H1687 H 0.95613 0.29527 0.12959 0.0
H1688 H 0.06349 0.28587 0.14859 0.0
H1689 H 0.02055 0.34183 0.09521 0.0
H1690 H 0.03355 0.2078 0.13329 0.0
H1691 H 0.01374 0.22792 0.15599 0.0
H1692 H 0.05329 0.23048 0.15512 0.0
H1693 H 0.98147 0.27246 0.06977 0.0
H1694 H 0.98852 0.31596 0.06803 0.0
H1695 H 0.96128 0.30029 0.08773 0.0
C1696 C 0.96126 0.8175 0.59838 0.0
C1697 C 0.93921 0.81546 0.61534 0.0
C1698 C 0.97845 0.79004 0.59283 0.0
C1699 C 0.97375 0.76034 0.60491 0.0
C1700 C 0.94915 0.75714 0.61975 0.0
C1701 C 0.93198 0.78473 0.62463 0.0
C1702 C 0.00348 0.79376 0.57589 0.0
C1703 C 0.94308 0.72573 0.63273 0.0
C1704 C 0.01749 0.68168 0.59863 0.0
C1705 C 0.03798 0.68537 0.61663 0.0
C1706 C -0.00242 0.70691 0.59326 0.0
C1707 C -0.0022 0.73594 0.60666 0.0
C1708 C 0.01945 0.74036 0.62402 0.0
C1709 C 0.03944 0.71519 0.62859 0.0
C1710 C 0.97555 0.70165 0.57407 0.0
C1711 C 0.02042 0.77087 0.63888 0.0
H1712 H 0.96652 0.84094 0.5906 0.0
H1713 H 0.91445 0.78267 0.63727 0.0
H1714 H 0.02425 0.79795 0.58554 0.0
H1715 H 0.00627 0.77118 0.5654 0.0
H1716 H -7e-05 0.81488 0.56407 0.0
H1717 H 0.92112 0.72593 0.6412 0.0
H1718 H 0.94424 0.7044 0.62089 0.0
H1719 H 0.96008 0.72226 0.64632 0.0
H1720 H 0.01648 0.65884 0.58909 0.0
H1721 H 0.0553 0.71837 0.64243 0.0
H1722 H 0.96972 0.72501 0.56536 0.0
H1723 H 0.95513 0.69103 0.58143 0.0
H1724 H 0.98411 0.68423 0.56091 0.0
H1725 H 0.02228 0.79299 0.62782 0.0
H1726 H 0.03917 0.77072 0.65123 0.0
H1727 H -0.00028 0.77303 0.64896 0.0
C1728 C 0.43987 0.28142 0.62307 0.0
C1729 C 0.44529 0.31238 0.61344 0.0
C1730 C 0.45946 0.25549 0.61962 0.0
C1731 C 0.48483 0.26049 0.60585 0.0
C1732 C 0.48878 0.29055 0.59405 0.0
C1733 C 0.46904 0.31636 0.59815 0.0
C1734 C 0.45435 0.22375 0.63251 0.0
C1735 C 0.51497 0.29633 0.57852 0.0
C1736 C 0.54804 0.21268 0.63072 0.0
C1737 C 0.54575 0.18314 0.61847 0.0
C1738 C 0.52974 0.2392 0.6255 0.0
C1739 C 0.50906 0.23631 0.60728 0.0
C1740 C 0.50881 0.2079 0.59327 0.0
C1741 C 0.52699 0.1814 0.5992 0.0
C1742 C 0.53072 0.26912 0.64092 0.0
C1743 C 0.48788 0.20446 0.57313 0.0
H1744 H 0.42131 0.27791 0.63461 0.0
H1745 H 0.47309 0.34005 0.59028 0.0
H1746 H 0.45629 0.20257 0.62059 0.0
H1747 H 0.47139 0.22082 0.64614 0.0
H1748 H 0.43237 0.2229 0.6409 0.0
H1749 H 0.51106 0.31704 0.5664 0.0
H1750 H 0.53444 0.30236 0.58928 0.0
H1751 H 0.52031 0.27406 0.56833 0.0
H1752 H 0.56275 0.21444 0.64546 0.0
H1753 H 0.52552 0.15888 0.58935 0.0
H1754 H 0.51019 0.27048 0.6513 0.0
H1755 H 0.53204 0.29175 0.63034 0.0
H1756 H 0.54973 0.26865 0.65301 0.0
H1757 H 0.46581 0.19749 0.57967 0.0
H1758 H 0.49531 0.18523 0.56083 0.0
H1759 H 0.48557 0.22798 0.56364 0.0
C1760 C 0.47004 0.17833 0.88592 0.0
C1761 C 0.44658 0.18079 0.8702 0.0
C1762 C 0.48925 0.20476 0.88944 0.0
C1763 C 0.48507 0.23397 0.87667 0.0
C1764 C 0.46054 0.23715 0.86174 0.0
C1765 C 0.44148 0.2106 0.85882 0.0
C1766 C 0.5148 0.20083 0.90593 0.0
C1767 C 0.45538 0.26791 0.84771 0.0
C1768 C 0.52266 0.31514 0.88731 0.0
C1769 C 0.54401 0.31494 0.86975 0.0
C1770 C 0.50463 0.28778 0.8911 0.0
C1771 C 0.50779 0.25996 0.87672 0.0
C1772 C 0.5306 0.2588 0.86006 0.0
C1773 C 0.54861 0.28622 0.85692 0.0
C1774 C 0.48103 0.28949 0.90945 0.0
C1775 C 0.53459 0.22958 0.84429 0.0
H1776 H 0.4739 0.15548 0.89501 0.0
H1777 H 0.4233 0.21281 0.84675 0.0
H1778 H 0.53546 0.19797 0.8959 0.0
H1779 H 0.51725 0.22292 0.91695 0.0
H1780 H 0.51217 0.17903 0.91728 0.0
H1781 H 0.43427 0.26716 0.83801 0.0
H1782 H 0.45525 0.28971 0.85916 0.0
H1783 H 0.47358 0.27116 0.8351 0.0
H1784 H 0.51927 0.33706 0.89753 0.0
H1785 H 0.5652 0.28571 0.84344 0.0
H1786 H 0.47987 0.26618 0.91931 0.0
H1787 H 0.45933 0.2933 0.90108 0.0
H1788 H 0.48489 0.30994 0.92179 0.0
H1789 H 0.53549 0.20661 0.85453 0.0
H1790 H 0.55493 0.23139 0.83369 0.0
H1791 H 0.51547 0.22771 0.83241 0.0
C1792 C 0.96804 0.67328 0.88951 0.0
C1793 C 0.94652 0.67532 0.87214 0.0
C1794 C 0.98665 0.69991 0.89417 0.0
C1795 C 0.9839 0.72884 0.88084 0.0
C1796 C 0.96089 0.7318 0.86446 0.0
C1797 C 0.94231 0.7051 0.86046 0.0
C1798 C 0.01041 0.69627 0.91225 0.0
C1799 C 0.95729 0.76223 0.84979 0.0
C1800 C 0.02335 0.80904 0.89171 0.0
C1801 C 0.04639 0.8069 0.8756 0.0
C1802 C 0.00386 0.78277 0.89493 0.0
C1803 C 0.00725 0.75414 0.88138 0.0
C1804 C 0.03141 0.75122 0.86605 0.0
C1805 C 0.05084 0.77752 0.86352 0.0
C1806 C 0.97882 0.78633 0.91192 0.0
C1807 C 0.03567 0.72117 0.85112 0.0
H1808 H 0.97114 0.65051 0.89887 0.0
H1809 H 0.92556 0.70705 0.84717 0.0
H1810 H 0.03188 0.69216 0.90359 0.0
H1811 H 0.01238 0.71891 0.92276 0.0
H1812 H 0.0061 0.67524 0.924 0.0
H1813 H 0.9368 0.76169 0.8393 0.0
H1814 H 0.95695 0.78443 0.86084 0.0
H1815 H 0.97631 0.76451 0.83784 0.0
H1816 H 0.02005 0.83153 0.90135 0.0
H1817 H 0.06867 0.77559 0.85112 0.0
H1818 H 0.97596 0.76354 0.92216 0.0
H1819 H 0.95803 0.79068 0.90232 0.0
H1820 H 0.98234 0.80715 0.92399 0.0
H1821 H 0.03555 0.69872 0.86194 0.0
H1822 H 0.05662 0.72195 0.84121 0.0
H1823 H 0.01719 0.71913 0.83863 0.0
loop_
_geom_bond_atom_site_label_1
_geom_bond_atom_site_label_2
_geom_bond_distance
_geom_bond_site_symmetry_2
_ccdc_geom_bond_type
Co0 O3 1.970 . S
Co0 N17 1.989 . S
Co0 O25 1.967 . S
Co0 O32 1.920 . S
Co1 O4 1.966 . S
Co1 N10 2.022 . S
Co1 N18 1.993 . S
Co1 O26 1.941 . S
C2 O3 1.258 . S
C2 O4 1.263 . S
O3 Co0 1.970 . S
O3 C2 1.258 . S
O4 Co1 1.966 . S
O4 C2 1.263 . S
C5 O6 1.235 . S
C5 O32 1.289 . S
O6 C5 1.235 . S
C7 C9 1.400 . S
C7 N10 1.351 . S
C7 C12 1.501 . S
C8 C9 1.387 . S
C8 N11 1.341 . S
C9 C7 1.400 . S
C9 C8 1.387 . S
N10 Co1 2.022 . S
N10 C7 1.351 . S
N10 N11 1.365 . S
N11 C8 1.341 . S
N11 N10 1.365 . S
N11 H31 0.862 . S
C12 C7 1.501 . S
C12 H13 0.961 . S
C12 H14 0.961 . S
C12 H15 0.960 . S
H13 C12 0.961 . S
H14 C12 0.961 . S
H15 C12 0.960 . S
C16 N17 1.342 . S
C16 C20 1.401 . S
C16 C21 1.499 . S
N17 Co0 1.989 . S
N17 C16 1.342 . S
N17 N18 1.388 . S
N18 Co1 1.993 . S
N18 N17 1.388 . S
N18 C19 1.346 . S
C19 N18 1.346 . S
C19 C20 1.396 . S
C19 C29 1.510 . S
C20 C16 1.401 . S
C20 C19 1.396 . S
C21 C16 1.499 . S
C21 H22 0.959 . S
C21 H23 0.960 . S
C21 H24 0.961 . S
H22 C21 0.959 . S
H23 C21 0.960 . S
H24 C21 0.961 . S
O25 Co0 1.967 . S
O25 C33 1.258 . S
O26 Co1 1.941 . S
O26 C33 1.266 . S
H27 C29 0.959 . S
H28 C29 0.961 . S
C29 C19 1.510 . S
C29 H27 0.959 . S
C29 H28 0.961 . S
C29 H30 0.960 . S
H30 C29 0.960 . S
H31 N11 0.862 . S
O32 Co0 1.920 . S
O32 C5 1.289 . S
C33 O25 1.258 . S
C33 O26 1.266 . S
Co34 O37 1.970 . S
Co34 N51 1.989 . S
Co34 O59 1.967 . S
Co34 O66 1.920 . S
Co35 O38 1.966 . S
Co35 N44 2.022 . S
Co35 N52 1.993 . S
Co35 O60 1.941 . S
C36 O37 1.258 . S
C36 O38 1.263 . S
O37 Co34 1.970 . S
O37 C36 1.258 . S
O38 Co35 1.966 . S
O38 C36 1.263 . S
C39 O40 1.235 . S
C39 O66 1.289 . S
O40 C39 1.235 . S
C41 C43 1.400 . S
C41 N44 1.351 . S
C41 C46 1.501 . S
C42 C43 1.387 . S
C42 N45 1.341 . S
C43 C41 1.400 . S
C43 C42 1.387 . S
N44 Co35 2.022 . S
N44 C41 1.351 . S
N44 N45 1.365 . S
N45 C42 1.341 . S
N45 N44 1.365 . S
N45 H65 0.862 . S
C46 C41 1.501 . S
C46 H47 0.961 . S
C46 H48 0.961 . S
C46 H49 0.960 . S
H47 C46 0.961 . S
H48 C46 0.961 . S
H49 C46 0.960 . S
C50 N51 1.342 . S
C50 C54 1.401 . S
C50 C55 1.499 . S
N51 Co34 1.989 . S
N51 C50 1.342 . S
N51 N52 1.388 . S
N52 Co35 1.993 . S
N52 N51 1.388 . S
N52 C53 1.346 . S
C53 N52 1.346 . S
C53 C54 1.396 . S
C53 C63 1.510 . S
C54 C50 1.401 . S
C54 C53 1.396 . S
C55 C50 1.499 . S
C55 H56 0.959 . S
C55 H57 0.960 . S
C55 H58 0.961 . S
H56 C55 0.959 . S
H57 C55 0.960 . S
H58 C55 0.961 . S
O59 Co34 1.967 . S
O59 C67 1.258 . S
O60 Co35 1.941 . S
O60 C67 1.266 . S
H61 C63 0.959 . S
H62 C63 0.961 . S
C63 C53 1.510 . S
C63 H61 0.959 . S
C63 H62 0.961 . S
C63 H64 0.960 . S
H64 C63 0.960 . S
H65 N45 0.862 . S
O66 Co34 1.920 . S
O66 C39 1.289 . S
C67 O59 1.258 . S
C67 O60 1.266 . S
Co68 O71 1.970 . S
Co68 N85 1.989 . S
Co68 O93 1.967 . S
Co68 O100 1.920 . S
Co69 O72 1.966 . S
Co69 N78 2.022 . S
Co69 N86 1.993 . S
Co69 O94 1.941 . S
C70 O71 1.258 . S
C70 O72 1.263 . S
O71 Co68 1.970 . S
O71 C70 1.258 . S
O72 Co69 1.966 . S
O72 C70 1.263 . S
C73 O74 1.235 . S
C73 O100 1.289 . S
O74 C73 1.235 . S
C75 C77 1.400 . S
C75 N78 1.351 . S
C75 C80 1.501 . S
C76 C77 1.387 . S
C76 N79 1.341 . S
C77 C75 1.400 . S
C77 C76 1.387 . S
N78 Co69 2.022 . S
N78 C75 1.351 . S
N78 N79 1.365 . S
N79 C76 1.341 . S
N79 N78 1.365 . S
N79 H99 0.862 . S
C80 C75 1.501 . S
C80 H81 0.961 . S
C80 H82 0.961 . S
C80 H83 0.960 . S
H81 C80 0.961 . S
H82 C80 0.961 . S
H83 C80 0.960 . S
C84 N85 1.342 . S
C84 C88 1.401 . S
C84 C89 1.499 . S
N85 Co68 1.989 . S
N85 C84 1.342 . S
N85 N86 1.388 . S
N86 Co69 1.993 . S
N86 N85 1.388 . S
N86 C87 1.346 . S
C87 N86 1.346 . S
C87 C88 1.396 . S
C87 C97 1.510 . S
C88 C84 1.401 . S
C88 C87 1.396 . S
C89 C84 1.499 . S
C89 H90 0.959 . S
C89 H91 0.960 . S
C89 H92 0.961 . S
H90 C89 0.959 . S
H91 C89 0.960 . S
H92 C89 0.961 . S
O93 Co68 1.967 . S
O93 C101 1.258 . S
O94 Co69 1.941 . S
O94 C101 1.266 . S
H95 C97 0.959 . S
H96 C97 0.961 . S
C97 C87 1.510 . S
C97 H95 0.959 . S
C97 H96 0.961 . S
C97 H98 0.960 . S
H98 C97 0.960 . S
H99 N79 0.862 . S
O100 Co68 1.920 . S
O100 C73 1.289 . S
C101 O93 1.258 . S
C101 O94 1.266 . S
Co102 O105 1.970 . S
Co102 N119 1.989 . S
Co102 O127 1.967 . S
Co102 O134 1.920 . S
Co103 O106 1.966 . S
Co103 N112 2.022 . S
Co103 N120 1.993 . S
Co103 O128 1.941 . S
C104 O105 1.258 . S
C104 O106 1.263 . S
O105 Co102 1.970 . S
O105 C104 1.258 . S
O106 Co103 1.966 . S
O106 C104 1.263 . S
C107 O108 1.235 . S
C107 O134 1.289 . S
O108 C107 1.235 . S
C109 C111 1.400 . S
C109 N112 1.351 . S
C109 C114 1.501 . S
C110 C111 1.387 . S
C110 N113 1.341 . S
C111 C109 1.400 . S
C111 C110 1.387 . S
N112 Co103 2.022 . S
N112 C109 1.351 . S
N112 N113 1.365 . S
N113 C110 1.341 . S
N113 N112 1.365 . S
N113 H133 0.862 . S
C114 C109 1.501 . S
C114 H115 0.961 . S
C114 H116 0.961 . S
C114 H117 0.960 . S
H115 C114 0.961 . S
H116 C114 0.961 . S
H117 C114 0.960 . S
C118 N119 1.342 . S
C118 C122 1.401 . S
C118 C123 1.499 . S
N119 Co102 1.989 . S
N119 C118 1.342 . S
N119 N120 1.388 . S
N120 Co103 1.993 . S
N120 N119 1.388 . S
N120 C121 1.346 . S
C121 N120 1.346 . S
C121 C122 1.396 . S
C121 C131 1.510 . S
C122 C118 1.401 . S
C122 C121 1.396 . S
C123 C118 1.499 . S
C123 H124 0.959 . S
C123 H125 0.960 . S
C123 H126 0.961 . S
H124 C123 0.959 . S
H125 C123 0.960 . S
H126 C123 0.961 . S
O127 Co102 1.967 . S
O127 C135 1.258 . S
O128 Co103 1.941 . S
O128 C135 1.266 . S
H129 C131 0.959 . S
H130 C131 0.961 . S
C131 C121 1.510 . S
C131 H129 0.959 . S
C131 H130 0.961 . S
C131 H132 0.960 . S
H132 C131 0.960 . S
H133 N113 0.862 . S
O134 Co102 1.920 . S
O134 C107 1.289 . S
C135 O127 1.258 . S
C135 O128 1.266 . S
Co136 O139 1.970 . S
Co136 N153 1.989 . S
Co136 O161 1.967 . S
Co136 O168 1.920 . S
Co137 O140 1.966 . S
Co137 N146 2.022 . S
Co137 N154 1.993 . S
Co137 O162 1.941 . S
C138 O139 1.258 . S
C138 O140 1.263 . S
O139 Co136 1.970 . S
O139 C138 1.258 . S
O140 Co137 1.966 . S
O140 C138 1.263 . S
C141 O142 1.235 . S
C141 O168 1.289 . S
O142 C141 1.235 . S
C143 C145 1.400 . S
C143 N146 1.351 . S
C143 C148 1.501 . S
C144 C145 1.387 . S
C144 N147 1.341 . S
C145 C143 1.400 . S
C145 C144 1.387 . S
N146 Co137 2.022 . S
N146 C143 1.351 . S
N146 N147 1.365 . S
N147 C144 1.341 . S
N147 N146 1.365 . S
N147 H167 0.862 . S
C148 C143 1.501 . S
C148 H149 0.961 . S
C148 H150 0.961 . S
C148 H151 0.960 . S
H149 C148 0.961 . S
H150 C148 0.961 . S
H151 C148 0.960 . S
C152 N153 1.342 . S
C152 C156 1.401 . S
C152 C157 1.499 . S
N153 Co136 1.989 . S
N153 C152 1.342 . S
N153 N154 1.388 . S
N154 Co137 1.993 . S
N154 N153 1.388 . S
N154 C155 1.346 . S
C155 N154 1.346 . S
C155 C156 1.396 . S
C155 C165 1.510 . S
C156 C152 1.401 . S
C156 C155 1.396 . S
C157 C152 1.499 . S
C157 H158 0.959 . S
C157 H159 0.960 . S
C157 H160 0.961 . S
H158 C157 0.959 . S
H159 C157 0.960 . S
H160 C157 0.961 . S
O161 Co136 1.967 . S
O161 C169 1.258 . S
O162 Co137 1.941 . S
O162 C169 1.266 . S
H163 C165 0.959 . S
H164 C165 0.961 . S
C165 C155 1.510 . S
C165 H163 0.959 . S
C165 H164 0.961 . S
C165 H166 0.960 . S
H166 C165 0.960 . S
H167 N147 0.862 . S
O168 Co136 1.920 . S
O168 C141 1.289 . S
C169 O161 1.258 . S
C169 O162 1.266 . S
Co170 O173 1.970 . S
Co170 N187 1.989 . S
Co170 O195 1.967 . S
Co170 O202 1.920 . S
Co171 O174 1.966 . S
Co171 N180 2.022 . S
Co171 N188 1.993 . S
Co171 O196 1.941 . S
C172 O173 1.258 . S
C172 O174 1.263 . S
O173 Co170 1.970 . S
O173 C172 1.258 . S
O174 Co171 1.966 . S
O174 C172 1.263 . S
C175 O176 1.235 . S
C175 O202 1.289 . S
O176 C175 1.235 . S
C177 C179 1.400 . S
C177 N180 1.351 . S
C177 C182 1.501 . S
C178 C179 1.387 . S
C178 N181 1.341 . S
C179 C177 1.400 . S
C179 C178 1.387 . S
N180 Co171 2.022 . S
N180 C177 1.351 . S
N180 N181 1.365 . S
N181 C178 1.341 . S
N181 N180 1.365 . S
N181 H201 0.862 . S
C182 C177 1.501 . S
C182 H183 0.961 . S
C182 H184 0.961 . S
C182 H185 0.960 . S
H183 C182 0.961 . S
H184 C182 0.961 . S
H185 C182 0.960 . S
C186 N187 1.342 . S
C186 C190 1.401 . S
C186 C191 1.499 . S
N187 Co170 1.989 . S
N187 C186 1.342 . S
N187 N188 1.388 . S
N188 Co171 1.993 . S
N188 N187 1.388 . S
N188 C189 1.346 . S
C189 N188 1.346 . S
C189 C190 1.396 . S
C189 C199 1.510 . S
C190 C186 1.401 . S
C190 C189 1.396 . S
C191 C186 1.499 . S
C191 H192 0.959 . S
C191 H193 0.960 . S
C191 H194 0.961 . S
H192 C191 0.959 . S
H193 C191 0.960 . S
H194 C191 0.961 . S
O195 Co170 1.967 . S
O195 C203 1.258 . S
O196 Co171 1.941 . S
O196 C203 1.266 . S
H197 C199 0.959 . S
H198 C199 0.961 . S
C199 C189 1.510 . S
C199 H197 0.959 . S
C199 H198 0.961 . S
C199 H200 0.960 . S
H200 C199 0.960 . S
H201 N181 0.862 . S
O202 Co170 1.920 . S
O202 C175 1.289 . S
C203 O195 1.258 . S
C203 O196 1.266 . S
Co204 O207 1.970 . S
Co204 N221 1.989 . S
Co204 O229 1.967 . S
Co204 O236 1.920 . S
Co205 O208 1.966 . S
Co205 N214 2.022 . S
Co205 N222 1.993 . S
Co205 O230 1.941 . S
C206 O207 1.258 . S
C206 O208 1.263 . S
O207 Co204 1.970 . S
O207 C206 1.258 . S
O208 Co205 1.966 . S
O208 C206 1.263 . S
C209 O210 1.235 . S
C209 O236 1.289 . S
O210 C209 1.235 . S
C211 C213 1.400 . S
C211 N214 1.351 . S
C211 C216 1.501 . S
C212 C213 1.387 . S
C212 N215 1.341 . S
C213 C211 1.400 . S
C213 C212 1.387 . S
N214 Co205 2.022 . S
N214 C211 1.351 . S
N214 N215 1.365 . S
N215 C212 1.341 . S
N215 N214 1.365 . S
N215 H235 0.862 . S
C216 C211 1.501 . S
C216 H217 0.961 . S
C216 H218 0.961 . S
C216 H219 0.960 . S
H217 C216 0.961 . S
H218 C216 0.961 . S
H219 C216 0.960 . S
C220 N221 1.342 . S
C220 C224 1.401 . S
C220 C225 1.499 . S
N221 Co204 1.989 . S
N221 C220 1.342 . S
N221 N222 1.388 . S
N222 Co205 1.993 . S
N222 N221 1.388 . S
N222 C223 1.346 . S
C223 N222 1.346 . S
C223 C224 1.396 . S
C223 C233 1.510 . S
C224 C220 1.401 . S
C224 C223 1.396 . S
C225 C220 1.499 . S
C225 H226 0.959 . S
C225 H227 0.960 . S
C225 H228 0.961 . S
H226 C225 0.959 . S
H227 C225 0.960 . S
H228 C225 0.961 . S
O229 Co204 1.967 . S
O229 C237 1.258 . S
O230 Co205 1.941 . S
O230 C237 1.266 . S
H231 C233 0.959 . S
H232 C233 0.961 . S
C233 C223 1.510 . S
C233 H231 0.959 . S
C233 H232 0.961 . S
C233 H234 0.960 . S
H234 C233 0.960 . S
H235 N215 0.862 . S
O236 Co204 1.920 . S
O236 C209 1.289 . S
C237 O229 1.258 . S
C237 O230 1.266 . S
Co238 O241 1.970 . S
Co238 N255 1.989 . S
Co238 O263 1.967 . S
Co238 O270 1.920 . S
Co239 O242 1.966 . S
Co239 N248 2.022 . S
Co239 N256 1.993 . S
Co239 O264 1.941 . S
C240 O241 1.258 . S
C240 O242 1.263 . S
O241 Co238 1.970 . S
O241 C240 1.258 . S
O242 Co239 1.966 . S
O242 C240 1.263 . S
C243 O244 1.235 . S
C243 O270 1.289 . S
O244 C243 1.235 . S
C245 C247 1.400 . S
C245 N248 1.351 . S
C245 C250 1.501 . S
C246 C247 1.387 . S
C246 N249 1.341 . S
C247 C245 1.400 . S
C247 C246 1.387 . S
N248 Co239 2.022 . S
N248 C245 1.351 . S
N248 N249 1.365 . S
N249 C246 1.341 . S
N249 N248 1.365 . S
N249 H269 0.862 . S
C250 C245 1.501 . S
C250 H251 0.961 . S
C250 H252 0.961 . S
C250 H253 0.960 . S
H251 C250 0.961 . S
H252 C250 0.961 . S
H253 C250 0.960 . S
C254 N255 1.342 . S
C254 C258 1.401 . S
C254 C259 1.499 . S
N255 Co238 1.989 . S
N255 C254 1.342 . S
N255 N256 1.388 . S
N256 Co239 1.993 . S
N256 N255 1.388 . S
N256 C257 1.346 . S
C257 N256 1.346 . S
C257 C258 1.396 . S
C257 C267 1.510 . S
C258 C254 1.401 . S
C258 C257 1.396 . S
C259 C254 1.499 . S
C259 H260 0.959 . S
C259 H261 0.960 . S
C259 H262 0.961 . S
H260 C259 0.959 . S
H261 C259 0.960 . S
H262 C259 0.961 . S
O263 Co238 1.967 . S
O263 C271 1.258 . S
O264 Co239 1.941 . S
O264 C271 1.266 . S
H265 C267 0.959 . S
H266 C267 0.961 . S
C267 C257 1.510 . S
C267 H265 0.959 . S
C267 H266 0.961 . S
C267 H268 0.960 . S
H268 C267 0.960 . S
H269 N249 0.862 . S
O270 Co238 1.920 . S
O270 C243 1.289 . S
C271 O263 1.258 . S
C271 O264 1.266 . S
Co272 O275 1.970 . S
Co272 N289 1.989 . S
Co272 O297 1.967 . S
Co272 O304 1.920 . S
Co273 O276 1.966 . S
Co273 N282 2.022 . S
Co273 N290 1.993 . S
Co273 O298 1.941 . S
C274 O275 1.258 . S
C274 O276 1.263 . S
O275 Co272 1.970 . S
O275 C274 1.258 . S
O276 Co273 1.966 . S
O276 C274 1.263 . S
C277 O278 1.235 . S
C277 O304 1.289 . S
O278 C277 1.235 . S
C279 C281 1.400 . S
C279 N282 1.351 . S
C279 C284 1.501 . S
C280 C281 1.387 . S
C280 N283 1.341 . S
C281 C279 1.400 . S
C281 C280 1.387 . S
N282 Co273 2.022 . S
N282 C279 1.351 . S
N282 N283 1.365 . S
N283 C280 1.341 . S
N283 N282 1.365 . S
N283 H303 0.862 . S
C284 C279 1.501 . S
C284 H285 0.961 . S
C284 H286 0.961 . S
C284 H287 0.960 . S
H285 C284 0.961 . S
H286 C284 0.961 . S
H287 C284 0.960 . S
C288 N289 1.342 . S
C288 C292 1.401 . S
C288 C293 1.499 . S
N289 Co272 1.989 . S
N289 C288 1.342 . S
N289 N290 1.388 . S
N290 Co273 1.993 . S
N290 N289 1.388 . S
N290 C291 1.346 . S
C291 N290 1.346 . S
C291 C292 1.396 . S
C291 C301 1.510 . S
C292 C288 1.401 . S
C292 C291 1.396 . S
C293 C288 1.499 . S
C293 H294 0.959 . S
C293 H295 0.960 . S
C293 H296 0.961 . S
H294 C293 0.959 . S
H295 C293 0.960 . S
H296 C293 0.961 . S
O297 Co272 1.967 . S
O297 C305 1.258 . S
O298 Co273 1.941 . S
O298 C305 1.266 . S
H299 C301 0.959 . S
H300 C301 0.961 . S
C301 C291 1.510 . S
C301 H299 0.959 . S
C301 H300 0.961 . S
C301 H302 0.960 . S
H302 C301 0.960 . S
H303 N283 0.862 . S
O304 Co272 1.920 . S
O304 C277 1.289 . S
C305 O297 1.258 . S
C305 O298 1.266 . S
Co306 O309 1.970 . S
Co306 N323 1.989 . S
Co306 O331 1.967 . S
Co306 O338 1.920 . S
Co307 O310 1.966 . S
Co307 N316 2.022 . S
Co307 N324 1.993 . S
Co307 O332 1.941 . S
C308 O309 1.258 . S
C308 O310 1.263 . S
O309 Co306 1.970 . S
O309 C308 1.258 . S
O310 Co307 1.966 . S
O310 C308 1.263 . S
C311 O312 1.235 . S
C311 O338 1.289 . S
O312 C311 1.235 . S
C313 C315 1.400 . S
C313 N316 1.351 . S
C313 C318 1.501 . S
C314 C315 1.387 . S
C314 N317 1.341 . S
C315 C313 1.400 . S
C315 C314 1.387 . S
N316 Co307 2.022 . S
N316 C313 1.351 . S
N316 N317 1.365 . S
N317 C314 1.341 . S
N317 N316 1.365 . S
N317 H337 0.862 . S
C318 C313 1.501 . S
C318 H319 0.961 . S
C318 H320 0.961 . S
C318 H321 0.960 . S
H319 C318 0.961 . S
H320 C318 0.961 . S
H321 C318 0.960 . S
C322 N323 1.342 . S
C322 C326 1.401 . S
C322 C327 1.499 . S
N323 Co306 1.989 . S
N323 C322 1.342 . S
N323 N324 1.388 . S
N324 Co307 1.993 . S
N324 N323 1.388 . S
N324 C325 1.346 . S
C325 N324 1.346 . S
C325 C326 1.396 . S
C325 C335 1.510 . S
C326 C322 1.401 . S
C326 C325 1.396 . S
C327 C322 1.499 . S
C327 H328 0.959 . S
C327 H329 0.960 . S
C327 H330 0.961 . S
H328 C327 0.959 . S
H329 C327 0.960 . S
H330 C327 0.961 . S
O331 Co306 1.967 . S
O331 C339 1.258 . S
O332 Co307 1.941 . S
O332 C339 1.266 . S
H333 C335 0.959 . S
H334 C335 0.961 . S
C335 C325 1.510 . S
C335 H333 0.959 . S
C335 H334 0.961 . S
C335 H336 0.960 . S
H336 C335 0.960 . S
H337 N317 0.862 . S
O338 Co306 1.920 . S
O338 C311 1.289 . S
C339 O331 1.258 . S
C339 O332 1.266 . S
Co340 O343 1.970 . S
Co340 N357 1.989 . S
Co340 O365 1.967 . S
Co340 O372 1.920 . S
Co341 O344 1.966 . S
Co341 N350 2.022 . S
Co341 N358 1.993 . S
Co341 O366 1.941 . S
C342 O343 1.258 . S
C342 O344 1.263 . S
O343 Co340 1.970 . S
O343 C342 1.258 . S
O344 Co341 1.966 . S
O344 C342 1.263 . S
C345 O346 1.235 . S
C345 O372 1.289 . S
O346 C345 1.235 . S
C347 C349 1.400 . S
C347 N350 1.351 . S
C347 C352 1.501 . S
C348 C349 1.387 . S
C348 N351 1.341 . S
C349 C347 1.400 . S
C349 C348 1.387 . S
N350 Co341 2.022 . S
N350 C347 1.351 . S
N350 N351 1.365 . S
N351 C348 1.341 . S
N351 N350 1.365 . S
N351 H371 0.862 . S
C352 C347 1.501 . S
C352 H353 0.961 . S
C352 H354 0.961 . S
C352 H355 0.960 . S
H353 C352 0.961 . S
H354 C352 0.961 . S
H355 C352 0.960 . S
C356 N357 1.342 . S
C356 C360 1.401 . S
C356 C361 1.499 . S
N357 Co340 1.989 . S
N357 C356 1.342 . S
N357 N358 1.388 . S
N358 Co341 1.993 . S
N358 N357 1.388 . S
N358 C359 1.346 . S
C359 N358 1.346 . S
C359 C360 1.396 . S
C359 C369 1.510 . S
C360 C356 1.401 . S
C360 C359 1.396 . S
C361 C356 1.499 . S
C361 H362 0.959 . S
C361 H363 0.960 . S
C361 H364 0.961 . S
H362 C361 0.959 . S
H363 C361 0.960 . S
H364 C361 0.961 . S
O365 Co340 1.967 . S
O365 C373 1.258 . S
O366 Co341 1.941 . S
O366 C373 1.266 . S
H367 C369 0.959 . S
H368 C369 0.961 . S
C369 C359 1.510 . S
C369 H367 0.959 . S
C369 H368 0.961 . S
C369 H370 0.960 . S
H370 C369 0.960 . S
H371 N351 0.862 . S
O372 Co340 1.920 . S
O372 C345 1.289 . S
C373 O365 1.258 . S
C373 O366 1.266 . S
Co374 O377 1.970 . S
Co374 N391 1.989 . S
Co374 O399 1.967 . S
Co374 O406 1.920 . S
Co375 O378 1.966 . S
Co375 N384 2.022 . S
Co375 N392 1.993 . S
Co375 O400 1.941 . S
C376 O377 1.258 . S
C376 O378 1.263 . S
O377 Co374 1.970 . S
O377 C376 1.258 . S
O378 Co375 1.966 . S
O378 C376 1.263 . S
C379 O380 1.235 . S
C379 O406 1.289 . S
O380 C379 1.235 . S
C381 C383 1.400 . S
C381 N384 1.351 . S
C381 C386 1.501 . S
C382 C383 1.387 . S
C382 N385 1.341 . S
C383 C381 1.400 . S
C383 C382 1.387 . S
N384 Co375 2.022 . S
N384 C381 1.351 . S
N384 N385 1.365 . S
N385 C382 1.341 . S
N385 N384 1.365 . S
N385 H405 0.862 . S
C386 C381 1.501 . S
C386 H387 0.961 . S
C386 H388 0.961 . S
C386 H389 0.960 . S
H387 C386 0.961 . S
H388 C386 0.961 . S
H389 C386 0.960 . S
C390 N391 1.342 . S
C390 C394 1.401 . S
C390 C395 1.499 . S
N391 Co374 1.989 . S
N391 C390 1.342 . S
N391 N392 1.388 . S
N392 Co375 1.993 . S
N392 N391 1.388 . S
N392 C393 1.346 . S
C393 N392 1.346 . S
C393 C394 1.396 . S
C393 C403 1.510 . S
C394 C390 1.401 . S
C394 C393 1.396 . S
C395 C390 1.499 . S
C395 H396 0.959 . S
C395 H397 0.960 . S
C395 H398 0.961 . S
H396 C395 0.959 . S
H397 C395 0.960 . S
H398 C395 0.961 . S
O399 Co374 1.967 . S
O399 C407 1.258 . S
O400 Co375 1.941 . S
O400 C407 1.266 . S
H401 C403 0.959 . S
H402 C403 0.961 . S
C403 C393 1.510 . S
C403 H401 0.959 . S
C403 H402 0.961 . S
C403 H404 0.960 . S
H404 C403 0.960 . S
H405 N385 0.862 . S
O406 Co374 1.920 . S
O406 C379 1.289 . S
C407 O399 1.258 . S
C407 O400 1.266 . S
Co408 O411 1.970 . S
Co408 N425 1.989 . S
Co408 O433 1.967 . S
Co408 O440 1.920 . S
Co409 O412 1.966 . S
Co409 N418 2.022 . S
Co409 N426 1.993 . S
Co409 O434 1.941 . S
C410 O411 1.258 . S
C410 O412 1.263 . S
O411 Co408 1.970 . S
O411 C410 1.258 . S
O412 Co409 1.966 . S
O412 C410 1.263 . S
C413 O414 1.235 . S
C413 O440 1.289 . S
O414 C413 1.235 . S
C415 C417 1.400 . S
C415 N418 1.351 . S
C415 C420 1.501 . S
C416 C417 1.387 . S
C416 N419 1.341 . S
C417 C415 1.400 . S
C417 C416 1.387 . S
N418 Co409 2.022 . S
N418 C415 1.351 . S
N418 N419 1.365 . S
N419 C416 1.341 . S
N419 N418 1.365 . S
N419 H439 0.862 . S
C420 C415 1.501 . S
C420 H421 0.961 . S
C420 H422 0.961 . S
C420 H423 0.960 . S
H421 C420 0.961 . S
H422 C420 0.961 . S
H423 C420 0.960 . S
C424 N425 1.342 . S
C424 C428 1.401 . S
C424 C429 1.499 . S
N425 Co408 1.989 . S
N425 C424 1.342 . S
N425 N426 1.388 . S
N426 Co409 1.993 . S
N426 N425 1.388 . S
N426 C427 1.346 . S
C427 N426 1.346 . S
C427 C428 1.396 . S
C427 C437 1.510 . S
C428 C424 1.401 . S
C428 C427 1.396 . S
C429 C424 1.499 . S
C429 H430 0.959 . S
C429 H431 0.960 . S
C429 H432 0.961 . S
H430 C429 0.959 . S
H431 C429 0.960 . S
H432 C429 0.961 . S
O433 Co408 1.967 . S
O433 C441 1.258 . S
O434 Co409 1.941 . S
O434 C441 1.266 . S
H435 C437 0.959 . S
H436 C437 0.961 . S
C437 C427 1.510 . S
C437 H435 0.959 . S
C437 H436 0.961 . S
C437 H438 0.960 . S
H438 C437 0.960 . S
H439 N419 0.862 . S
O440 Co408 1.920 . S
O440 C413 1.289 . S
C441 O433 1.258 . S
C441 O434 1.266 . S
Co442 O445 1.970 . S
Co442 N459 1.989 . S
Co442 O467 1.967 . S
Co442 O474 1.920 . S
Co443 O446 1.966 . S
Co443 N452 2.022 . S
Co443 N460 1.993 . S
Co443 O468 1.941 . S
C444 O445 1.258 . S
C444 O446 1.263 . S
O445 Co442 1.970 . S
O445 C444 1.258 . S
O446 Co443 1.966 . S
O446 C444 1.263 . S
C447 O448 1.235 . S
C447 O474 1.289 . S
O448 C447 1.235 . S
C449 C451 1.400 . S
C449 N452 1.351 . S
C449 C454 1.501 . S
C450 C451 1.387 . S
C450 N453 1.341 . S
C451 C449 1.400 . S
C451 C450 1.387 . S
N452 Co443 2.022 . S
N452 C449 1.351 . S
N452 N453 1.365 . S
N453 C450 1.341 . S
N453 N452 1.365 . S
N453 H473 0.862 . S
C454 C449 1.501 . S
C454 H455 0.961 . S
C454 H456 0.961 . S
C454 H457 0.960 . S
H455 C454 0.961 . S
H456 C454 0.961 . S
H457 C454 0.960 . S
C458 N459 1.342 . S
C458 C462 1.401 . S
C458 C463 1.499 . S
N459 Co442 1.989 . S
N459 C458 1.342 . S
N459 N460 1.388 . S
N460 Co443 1.993 . S
N460 N459 1.388 . S
N460 C461 1.346 . S
C461 N460 1.346 . S
C461 C462 1.396 . S
C461 C471 1.510 . S
C462 C458 1.401 . S
C462 C461 1.396 . S
C463 C458 1.499 . S
C463 H464 0.959 . S
C463 H465 0.960 . S
C463 H466 0.961 . S
H464 C463 0.959 . S
H465 C463 0.960 . S
H466 C463 0.961 . S
O467 Co442 1.967 . S
O467 C475 1.258 . S
O468 Co443 1.941 . S
O468 C475 1.266 . S
H469 C471 0.959 . S
H470 C471 0.961 . S
C471 C461 1.510 . S
C471 H469 0.959 . S
C471 H470 0.961 . S
C471 H472 0.960 . S
H472 C471 0.960 . S
H473 N453 0.862 . S
O474 Co442 1.920 . S
O474 C447 1.289 . S
C475 O467 1.258 . S
C475 O468 1.266 . S
Co476 O479 1.970 . S
Co476 N493 1.989 . S
Co476 O501 1.967 . S
Co476 O508 1.920 . S
Co477 O480 1.966 . S
Co477 N486 2.022 . S
Co477 N494 1.993 . S
Co477 O502 1.941 . S
C478 O479 1.258 . S
C478 O480 1.263 . S
O479 Co476 1.970 . S
O479 C478 1.258 . S
O480 Co477 1.966 . S
O480 C478 1.263 . S
C481 O482 1.235 . S
C481 O508 1.289 . S
O482 C481 1.235 . S
C483 C485 1.400 . S
C483 N486 1.351 . S
C483 C488 1.501 . S
C484 C485 1.387 . S
C484 N487 1.341 . S
C485 C483 1.400 . S
C485 C484 1.387 . S
N486 Co477 2.022 . S
N486 C483 1.351 . S
N486 N487 1.365 . S
N487 C484 1.341 . S
N487 N486 1.365 . S
N487 H507 0.862 . S
C488 C483 1.501 . S
C488 H489 0.961 . S
C488 H490 0.961 . S
C488 H491 0.960 . S
H489 C488 0.961 . S
H490 C488 0.961 . S
H491 C488 0.960 . S
C492 N493 1.342 . S
C492 C496 1.401 . S
C492 C497 1.499 . S
N493 Co476 1.989 . S
N493 C492 1.342 . S
N493 N494 1.388 . S
N494 Co477 1.993 . S
N494 N493 1.388 . S
N494 C495 1.346 . S
C495 N494 1.346 . S
C495 C496 1.396 . S
C495 C505 1.510 . S
C496 C492 1.401 . S
C496 C495 1.396 . S
C497 C492 1.499 . S
C497 H498 0.959 . S
C497 H499 0.960 . S
C497 H500 0.961 . S
H498 C497 0.959 . S
H499 C497 0.960 . S
H500 C497 0.961 . S
O501 Co476 1.967 . S
O501 C509 1.258 . S
O502 Co477 1.941 . S
O502 C509 1.266 . S
H503 C505 0.959 . S
H504 C505 0.961 . S
C505 C495 1.510 . S
C505 H503 0.959 . S
C505 H504 0.961 . S
C505 H506 0.960 . S
H506 C505 0.960 . S
H507 N487 0.862 . S
O508 Co476 1.920 . S
O508 C481 1.289 . S
C509 O501 1.258 . S
C509 O502 1.266 . S
Co510 O513 1.970 . S
Co510 N527 1.989 . S
Co510 O535 1.967 . S
Co510 O542 1.920 . S
Co511 O514 1.966 . S
Co511 N520 2.022 . S
Co511 N528 1.993 . S
Co511 O536 1.941 . S
C512 O513 1.258 . S
C512 O514 1.263 . S
O513 Co510 1.970 . S
O513 C512 1.258 . S
O514 Co511 1.966 . S
O514 C512 1.263 . S
C515 O516 1.235 . S
C515 O542 1.289 . S
O516 C515 1.235 . S
C517 C519 1.400 . S
C517 N520 1.351 . S
C517 C522 1.501 . S
C518 C519 1.387 . S
C518 N521 1.341 . S
C519 C517 1.400 . S
C519 C518 1.387 . S
N520 Co511 2.022 . S
N520 C517 1.351 . S
N520 N521 1.365 . S
N521 C518 1.341 . S
N521 N520 1.365 . S
N521 H541 0.862 . S
C522 C517 1.501 . S
C522 H523 0.961 . S
C522 H524 0.961 . S
C522 H525 0.960 . S
H523 C522 0.961 . S
H524 C522 0.961 . S
H525 C522 0.960 . S
C526 N527 1.342 . S
C526 C530 1.401 . S
C526 C531 1.499 . S
N527 Co510 1.989 . S
N527 C526 1.342 . S
N527 N528 1.388 . S
N528 Co511 1.993 . S
N528 N527 1.388 . S
N528 C529 1.346 . S
C529 N528 1.346 . S
C529 C530 1.396 . S
C529 C539 1.510 . S
C530 C526 1.401 . S
C530 C529 1.396 . S
C531 C526 1.499 . S
C531 H532 0.959 . S
C531 H533 0.960 . S
C531 H534 0.961 . S
H532 C531 0.959 . S
H533 C531 0.960 . S
H534 C531 0.961 . S
O535 Co510 1.967 . S
O535 C543 1.258 . S
O536 Co511 1.941 . S
O536 C543 1.266 . S
H537 C539 0.959 . S
H538 C539 0.961 . S
C539 C529 1.510 . S
C539 H537 0.959 . S
C539 H538 0.961 . S
C539 H540 0.960 . S
H540 C539 0.960 . S
H541 N521 0.862 . S
O542 Co510 1.920 . S
O542 C515 1.289 . S
C543 O535 1.258 . S
C543 O536 1.266 . S
C544 C545 1.391 . S
C544 C546 1.394 . S
C544 H560 0.931 . S
C545 C544 1.391 . S
C545 C549 1.376 . S
C546 C544 1.394 . S
C546 C547 1.369 . S
C546 C550 1.531 . S
C547 C546 1.369 . S
C547 C548 1.410 1_655 S
C547 C555 1.503 1_655 S
C548 C547 1.410 1_455 S
C548 C549 1.392 1_455 S
C548 C551 1.511 . S
C549 C545 1.376 . S
C549 C548 1.392 1_655 S
C549 H561 0.929 . S
C550 C546 1.531 . S
C550 H562 0.960 . S
C550 H563 0.962 . S
C550 H564 0.960 . S
C551 C548 1.511 . S
C551 H565 0.961 . S
C551 H566 0.961 . S
C551 H567 0.961 . S
C552 C553 1.370 . S
C552 C554 1.363 . S
C552 H568 0.931 . S
C553 C552 1.370 . S
C553 C557 1.408 . S
C554 C552 1.363 . S
C554 C555 1.370 . S
C554 C558 1.524 1_455 S
C555 C547 1.503 1_455 S
C555 C554 1.370 . S
C555 C556 1.403 . S
C556 C555 1.403 . S
C556 C557 1.404 . S
C556 C559 1.539 . S
C557 C553 1.408 . S
C557 C556 1.404 . S
C557 H569 0.930 . S
C558 C554 1.524 1_655 S
C558 H570 0.956 . S
C558 H571 0.961 . S
C558 H572 0.961 . S
C559 C556 1.539 . S
C559 H573 0.958 . S
C559 H574 0.961 . S
C559 H575 0.960 . S
H560 C544 0.931 . S
H561 C549 0.929 . S
H562 C550 0.960 . S
H563 C550 0.962 . S
H564 C550 0.960 . S
H565 C551 0.961 . S
H566 C551 0.961 . S
H567 C551 0.961 . S
H568 C552 0.931 . S
H569 C557 0.930 . S
H570 C558 0.956 . S
H571 C558 0.961 . S
H572 C558 0.961 . S
H573 C559 0.958 . S
H574 C559 0.961 . S
H575 C559 0.960 . S
C576 C577 1.391 . S
C576 C578 1.394 . S
C576 H592 0.931 . S
C577 C576 1.391 . S
C577 C581 1.376 . S
C578 C576 1.394 . S
C578 C579 1.369 . S
C578 C582 1.531 . S
C579 C578 1.369 . S
C579 C580 1.410 . S
C579 C587 1.503 . S
C580 C579 1.410 . S
C580 C581 1.392 . S
C580 C583 1.511 . S
C581 C577 1.376 . S
C581 C580 1.392 . S
C581 H593 0.929 . S
C582 C578 1.531 . S
C582 H594 0.960 . S
C582 H595 0.962 . S
C582 H596 0.960 . S
C583 C580 1.511 . S
C583 H597 0.961 . S
C583 H598 0.961 . S
C583 H599 0.961 . S
C584 C585 1.370 . S
C584 C586 1.363 . S
C584 H600 0.931 . S
C585 C584 1.370 . S
C585 C589 1.408 . S
C586 C584 1.363 . S
C586 C587 1.370 . S
C586 C590 1.524 . S
C587 C579 1.503 . S
C587 C586 1.370 . S
C587 C588 1.403 . S
C588 C587 1.403 . S
C588 C589 1.404 . S
C588 C591 1.539 . S
C589 C585 1.408 . S
C589 C588 1.404 . S
C589 H601 0.930 . S
C590 C586 1.524 . S
C590 H602 0.956 . S
C590 H603 0.961 . S
C590 H604 0.961 . S
C591 C588 1.539 . S
C591 H605 0.958 . S
C591 H606 0.961 . S
C591 H607 0.960 . S
H592 C576 0.931 . S
H593 C581 0.929 . S
H594 C582 0.960 . S
H595 C582 0.962 . S
H596 C582 0.960 . S
H597 C583 0.961 . S
H598 C583 0.961 . S
H599 C583 0.961 . S
H600 C584 0.931 . S
H601 C589 0.930 . S
H602 C590 0.956 . S
H603 C590 0.961 . S
H604 C590 0.961 . S
H605 C591 0.958 . S
H606 C591 0.961 . S
H607 C591 0.960 . S
C608 C609 1.391 . S
C608 C610 1.394 . S
C608 H624 0.931 . S
C609 C608 1.391 . S
C609 C613 1.376 . S
C610 C608 1.394 . S
C610 C611 1.369 . S
C610 C614 1.531 . S
C611 C610 1.369 . S
C611 C612 1.410 . S
C611 C619 1.503 1_655 S
C612 C611 1.410 . S
C612 C613 1.392 . S
C612 C615 1.511 1_655 S
C613 C609 1.376 . S
C613 C612 1.392 . S
C613 H625 0.929 . S
C614 C610 1.531 . S
C614 H626 0.960 1_655 S
C614 H627 0.962 . S
C614 H628 0.960 . S
C615 C612 1.511 1_455 S
C615 H629 0.961 1_455 S
C615 H630 0.961 . S
C615 H631 0.961 . S
C616 C617 1.370 . S
C616 C618 1.363 1_455 S
C616 H632 0.915 1_455 S
C617 C616 1.370 . S
C617 C621 1.408 . S
C618 C616 1.363 1_655 S
C618 C619 1.370 1_655 S
C618 C622 1.524 . S
C619 C611 1.503 1_455 S
C619 C618 1.370 1_455 S
C619 C620 1.403 . S
C620 C619 1.403 . S
C620 C621 1.404 . S
C620 C623 1.539 . S
C621 C617 1.408 . S
C621 C620 1.404 . S
C621 H633 0.930 . S
C622 C618 1.524 . S
C622 H634 0.956 . S
C622 H635 0.961 . S
C622 H636 0.961 . S
C623 C620 1.539 . S
C623 H637 0.958 . S
C623 H638 0.961 . S
C623 H639 0.960 . S
H624 C608 0.931 . S
H625 C613 0.929 . S
H626 C614 0.960 1_455 S
H627 C614 0.962 . S
H628 C614 0.960 . S
H629 C615 0.961 1_655 S
H630 C615 0.961 . S
H631 C615 0.961 . S
H632 C616 0.915 1_655 S
H633 C621 0.930 . S
H634 C622 0.956 . S
H635 C622 0.961 . S
H636 C622 0.961 . S
H637 C623 0.958 . S
H638 C623 0.961 . S
H639 C623 0.960 . S
C640 C641 1.391 . S
C640 C642 1.394 . S
C640 H656 0.931 . S
C641 C640 1.391 . S
C641 C645 1.376 . S
C642 C640 1.394 . S
C642 C643 1.369 . S
C642 C646 1.531 . S
C643 C642 1.369 . S
C643 C644 1.410 . S
C643 C651 1.503 . S
C644 C643 1.410 . S
C644 C645 1.392 . S
C644 C647 1.511 . S
C645 C641 1.376 . S
C645 C644 1.392 . S
C645 H657 0.929 . S
C646 C642 1.531 . S
C646 H658 0.960 . S
C646 H659 0.962 . S
C646 H660 0.960 . S
C647 C644 1.511 . S
C647 H661 0.961 . S
C647 H662 0.961 . S
C647 H663 0.961 . S
C648 C649 1.370 . S
C648 C650 1.363 . S
C648 H664 0.931 . S
C649 C648 1.370 . S
C649 C653 1.408 . S
C650 C648 1.363 . S
C650 C651 1.370 . S
C650 C654 1.524 . S
C651 C643 1.503 . S
C651 C650 1.370 . S
C651 C652 1.403 . S
C652 C651 1.403 . S
C652 C653 1.404 . S
C652 C655 1.539 . S
C653 C649 1.408 . S
C653 C652 1.404 . S
C653 H665 0.930 . S
C654 C650 1.524 . S
C654 H666 0.956 . S
C654 H667 0.961 . S
C654 H668 0.961 . S
C655 C652 1.539 . S
C655 H669 0.958 . S
C655 H670 0.961 . S
C655 H671 0.960 . S
H656 C640 0.931 . S
H657 C645 0.929 . S
H658 C646 0.960 . S
H659 C646 0.962 . S
H660 C646 0.960 . S
H661 C647 0.961 . S
H662 C647 0.961 . S
H663 C647 0.961 . S
H664 C648 0.931 . S
H665 C653 0.930 . S
H666 C654 0.956 . S
H667 C654 0.961 . S
H668 C654 0.961 . S
H669 C655 0.958 . S
H670 C655 0.961 . S
H671 C655 0.960 . S
C672 C673 1.391 . S
C672 C674 1.394 . S
C672 H688 0.931 . S
C673 C672 1.391 . S
C673 C677 1.376 . S
C674 C672 1.394 . S
C674 C675 1.369 . S
C674 C678 1.531 . S
C675 C674 1.369 . S
C675 C676 1.410 . S
C675 C683 1.503 . S
C676 C675 1.410 . S
C676 C677 1.392 . S
C676 C679 1.511 . S
C677 C673 1.376 . S
C677 C676 1.392 . S
C677 H689 0.929 . S
C678 C674 1.531 . S
C678 H690 0.960 . S
C678 H691 0.962 . S
C678 H692 0.960 . S
C679 C676 1.511 . S
C679 H693 0.961 . S
C679 H694 0.961 . S
C679 H695 0.961 . S
C680 C681 1.370 . S
C680 C682 1.363 . S
C680 H696 0.931 . S
C681 C680 1.370 . S
C681 C685 1.408 . S
C682 C680 1.363 . S
C682 C683 1.370 . S
C682 C686 1.524 . S
C683 C675 1.503 . S
C683 C682 1.370 . S
C683 C684 1.403 . S
C684 C683 1.403 . S
C684 C685 1.404 . S
C684 C687 1.539 . S
C685 C681 1.408 . S
C685 C684 1.404 . S
C685 H697 0.930 . S
C686 C682 1.524 . S
C686 H698 0.956 . S
C686 H699 0.961 . S
C686 H700 0.961 . S
C687 C684 1.539 . S
C687 H701 0.958 . S
C687 H702 0.961 . S
C687 H703 0.960 . S
H688 C672 0.931 . S
H689 C677 0.929 . S
H690 C678 0.960 . S
H691 C678 0.962 . S
H692 C678 0.960 . S
H693 C679 0.961 . S
H694 C679 0.961 . S
H695 C679 0.961 . S
H696 C680 0.931 . S
H697 C685 0.930 . S
H698 C686 0.956 . S
H699 C686 0.961 . S
H700 C686 0.961 . S
H701 C687 0.958 . S
H702 C687 0.961 . S
H703 C687 0.960 . S
C704 C705 1.391 . S
C704 C706 1.394 . S
C704 H720 0.931 . S
C705 C704 1.391 . S
C705 C709 1.376 . S
C706 C704 1.394 . S
C706 C707 1.369 . S
C706 C710 1.531 1_655 S
C707 C706 1.369 . S
C707 C708 1.410 . S
C707 C715 1.503 1_655 S
C708 C707 1.410 . S
C708 C709 1.392 . S
C708 C711 1.511 . S
C709 C705 1.376 . S
C709 C708 1.392 . S
C709 H721 0.929 . S
C710 C706 1.531 1_455 S
C710 H722 0.960 . S
C710 H723 0.962 . S
C710 H724 0.960 . S
C711 C708 1.511 . S
C711 H725 0.961 . S
C711 H726 0.961 . S
C711 H727 0.961 . S
C712 C713 1.370 . S
C712 C714 1.363 . S
C712 H728 0.931 . S
C713 C712 1.370 . S
C713 C717 1.408 . S
C714 C712 1.363 . S
C714 C715 1.370 . S
C714 C718 1.524 . S
C715 C707 1.503 1_455 S
C715 C714 1.370 . S
C715 C716 1.398 1_455 S
C716 C715 1.398 1_655 S
C716 C717 1.392 1_655 S
C716 C719 1.557 . S
C717 C713 1.408 . S
C717 C716 1.392 1_455 S
C717 H729 0.930 . S
C718 C714 1.524 . S
C718 H730 0.956 . S
C718 H731 0.961 . S
C718 H732 0.961 . S
C719 C716 1.557 . S
C719 H733 0.958 . S
C719 H734 0.961 . S
C719 H735 0.960 . S
H720 C704 0.931 . S
H721 C709 0.929 . S
H722 C710 0.960 . S
H723 C710 0.962 . S
H724 C710 0.960 . S
H725 C711 0.961 . S
H726 C711 0.961 . S
H727 C711 0.961 . S
H728 C712 0.931 . S
H729 C717 0.930 . S
H730 C718 0.956 . S
H731 C718 0.961 . S
H732 C718 0.961 . S
H733 C719 0.958 . S
H734 C719 0.961 . S
H735 C719 0.960 . S
C736 C737 1.391 . S
C736 C738 1.394 . S
C736 H752 0.931 . S
C737 C736 1.391 . S
C737 C741 1.376 . S
C738 C736 1.394 . S
C738 C739 1.369 . S
C738 C742 1.531 . S
C739 C738 1.369 . S
C739 C740 1.410 . S
C739 C747 1.503 . S
C740 C739 1.410 . S
C740 C741 1.392 . S
C740 C743 1.511 . S
C741 C737 1.376 . S
C741 C740 1.392 . S
C741 H753 0.929 . S
C742 C738 1.531 . S
C742 H754 0.960 . S
C742 H755 0.962 . S
C742 H756 0.960 . S
C743 C740 1.511 . S
C743 H757 0.961 . S
C743 H758 0.961 . S
C743 H759 0.961 . S
C744 C745 1.370 . S
C744 C746 1.363 . S
C744 H760 0.931 . S
C745 C744 1.370 . S
C745 C749 1.408 . S
C746 C744 1.363 . S
C746 C747 1.370 . S
C746 C750 1.524 . S
C747 C739 1.503 . S
C747 C746 1.370 . S
C747 C748 1.403 . S
C748 C747 1.403 . S
C748 C749 1.404 . S
C748 C751 1.539 . S
C749 C745 1.408 . S
C749 C748 1.404 . S
C749 H761 0.930 . S
C750 C746 1.524 . S
C750 H762 0.956 . S
C750 H763 0.961 . S
C750 H764 0.961 . S
C751 C748 1.539 . S
C751 H765 0.958 . S
C751 H766 0.961 . S
C751 H767 0.960 . S
H752 C736 0.931 . S
H753 C741 0.929 . S
H754 C742 0.960 . S
H755 C742 0.962 . S
H756 C742 0.960 . S
H757 C743 0.961 . S
H758 C743 0.961 . S
H759 C743 0.961 . S
H760 C744 0.931 . S
H761 C749 0.930 . S
H762 C750 0.956 . S
H763 C750 0.961 . S
H764 C750 0.961 . S
H765 C751 0.958 . S
H766 C751 0.961 . S
H767 C751 0.960 . S
C768 C769 1.391 . S
C768 C770 1.394 1_655 S
C768 H784 0.931 1_655 S
C769 C768 1.391 . S
C769 C773 1.376 . S
C770 C768 1.394 1_455 S
C770 C771 1.369 1_455 S
C770 C774 1.531 . S
C771 C770 1.369 1_655 S
C771 C772 1.410 . S
C771 C779 1.503 1_655 S
C772 C771 1.410 . S
C772 C773 1.392 . S
C772 C775 1.511 . S
C773 C769 1.376 . S
C773 C772 1.392 . S
C773 H785 0.929 . S
C774 C770 1.531 . S
C774 H786 0.960 . S
C774 H787 0.962 . S
C774 H788 0.960 . S
C775 C772 1.511 . S
C775 H789 0.961 . S
C775 H790 0.961 . S
C775 H791 0.961 . S
C776 C777 1.370 . S
C776 C778 1.363 . S
C776 H792 0.931 . S
C777 C776 1.370 . S
C777 C781 1.408 . S
C778 C776 1.363 . S
C778 C779 1.370 . S
C778 C782 1.524 . S
C779 C771 1.503 1_455 S
C779 C778 1.370 . S
C779 C780 1.403 . S
C780 C779 1.403 . S
C780 C781 1.404 . S
C780 C783 1.539 . S
C781 C777 1.408 . S
C781 C780 1.404 . S
C781 H793 0.930 . S
C782 C778 1.524 . S
C782 H794 0.956 . S
C782 H795 0.961 1_455 S
C782 H796 0.961 . S
C783 C780 1.539 . S
C783 H797 0.958 . S
C783 H798 0.961 . S
C783 H799 0.960 1_455 S
H784 C768 0.931 1_455 S
H785 C773 0.929 . S
H786 C774 0.960 . S
H787 C774 0.962 . S
H788 C774 0.960 . S
H789 C775 0.961 . S
H790 C775 0.961 . S
H791 C775 0.961 . S
H792 C776 0.931 . S
H793 C781 0.930 . S
H794 C782 0.956 . S
H795 C782 0.961 1_655 S
H796 C782 0.961 . S
H797 C783 0.958 . S
H798 C783 0.961 . S
H799 C783 0.960 1_655 S
C800 C801 1.391 . S
C800 C802 1.394 . S
C800 H816 0.931 . S
C801 C800 1.391 . S
C801 C805 1.376 . S
C802 C800 1.394 . S
C802 C803 1.369 . S
C802 C806 1.531 . S
C803 C802 1.369 . S
C803 C804 1.410 . S
C803 C811 1.503 . S
C804 C803 1.410 . S
C804 C805 1.392 . S
C804 C807 1.511 . S
C805 C801 1.376 . S
C805 C804 1.392 . S
C805 H817 0.929 . S
C806 C802 1.531 . S
C806 H818 0.960 . S
C806 H819 0.962 . S
C806 H820 0.960 . S
C807 C804 1.511 . S
C807 H821 0.961 . S
C807 H822 0.961 . S
C807 H823 0.961 . S
C808 C809 1.370 . S
C808 C810 1.363 . S
C808 H824 0.931 . S
C809 C808 1.370 . S
C809 C813 1.408 . S
C810 C808 1.363 . S
C810 C811 1.370 . S
C810 C814 1.524 . S
C811 C803 1.503 . S
C811 C810 1.370 . S
C811 C812 1.403 . S
C812 C811 1.403 . S
C812 C813 1.404 . S
C812 C815 1.539 . S
C813 C809 1.408 . S
C813 C812 1.404 . S
C813 H825 0.930 . S
C814 C810 1.524 . S
C814 H826 0.956 . S
C814 H827 0.961 . S
C814 H828 0.961 . S
C815 C812 1.539 . S
C815 H829 0.958 . S
C815 H830 0.961 . S
C815 H831 0.960 . S
H816 C800 0.931 . S
H817 C805 0.929 . S
H818 C806 0.960 . S
H819 C806 0.962 . S
H820 C806 0.960 . S
H821 C807 0.961 . S
H822 C807 0.961 . S
H823 C807 0.961 . S
H824 C808 0.931 . S
H825 C813 0.930 . S
H826 C814 0.956 . S
H827 C814 0.961 . S
H828 C814 0.961 . S
H829 C815 0.958 . S
H830 C815 0.961 . S
H831 C815 0.960 . S
C832 C833 1.391 . S
C832 C834 1.394 . S
C832 H848 0.931 . S
C833 C832 1.391 . S
C833 C837 1.376 . S
C834 C832 1.394 . S
C834 C835 1.369 . S
C834 C838 1.531 . S
C835 C834 1.369 . S
C835 C836 1.410 . S
C835 C843 1.503 . S
C836 C835 1.410 . S
C836 C837 1.392 . S
C836 C839 1.511 . S
C837 C833 1.376 . S
C837 C836 1.392 . S
C837 H849 0.929 . S
C838 C834 1.531 . S
C838 H850 0.960 . S
C838 H851 0.962 . S
C838 H852 0.960 . S
C839 C836 1.511 . S
C839 H853 0.961 . S
C839 H854 0.961 . S
C839 H855 0.961 . S
C840 C841 1.370 . S
C840 C842 1.363 . S
C840 H856 0.931 . S
C841 C840 1.370 . S
C841 C845 1.408 . S
C842 C840 1.363 . S
C842 C843 1.370 . S
C842 C846 1.524 . S
C843 C835 1.503 . S
C843 C842 1.370 . S
C843 C844 1.403 . S
C844 C843 1.403 . S
C844 C845 1.404 . S
C844 C847 1.539 . S
C845 C841 1.408 . S
C845 C844 1.404 . S
C845 H857 0.930 . S
C846 C842 1.524 . S
C846 H858 0.956 . S
C846 H859 0.961 . S
C846 H860 0.961 . S
C847 C844 1.539 . S
C847 H861 0.958 . S
C847 H862 0.961 . S
C847 H863 0.960 . S
H848 C832 0.931 . S
H849 C837 0.929 . S
H850 C838 0.960 . S
H851 C838 0.962 . S
H852 C838 0.960 . S
H853 C839 0.961 . S
H854 C839 0.961 . S
H855 C839 0.961 . S
H856 C840 0.931 . S
H857 C845 0.930 . S
H858 C846 0.956 . S
H859 C846 0.961 . S
H860 C846 0.961 . S
H861 C847 0.958 . S
H862 C847 0.961 . S
H863 C847 0.960 . S
C864 C865 1.391 . S
C864 C866 1.394 . S
C864 H880 0.931 . S
C865 C864 1.391 . S
C865 C869 1.376 . S
C866 C864 1.394 . S
C866 C867 1.369 . S
C866 C870 1.531 . S
C867 C866 1.369 . S
C867 C868 1.410 . S
C867 C875 1.503 . S
C868 C867 1.410 . S
C868 C869 1.392 . S
C868 C871 1.511 . S
C869 C865 1.376 . S
C869 C868 1.392 . S
C869 H881 0.929 . S
C870 C866 1.531 . S
C870 H882 0.960 . S
C870 H883 0.962 . S
C870 H884 0.960 . S
C871 C868 1.511 . S
C871 H885 0.961 . S
C871 H886 0.961 . S
C871 H887 0.961 . S
C872 C873 1.370 . S
C872 C874 1.363 . S
C872 H888 0.931 . S
C873 C872 1.370 . S
C873 C877 1.408 . S
C874 C872 1.363 . S
C874 C875 1.370 . S
C874 C878 1.524 . S
C875 C867 1.503 . S
C875 C874 1.370 . S
C875 C876 1.403 . S
C876 C875 1.403 . S
C876 C877 1.404 . S
C876 C879 1.539 . S
C877 C873 1.408 . S
C877 C876 1.404 . S
C877 H889 0.930 . S
C878 C874 1.524 . S
C878 H890 0.956 . S
C878 H891 0.961 . S
C878 H892 0.961 . S
C879 C876 1.539 . S
C879 H893 0.958 . S
C879 H894 0.961 . S
C879 H895 0.960 . S
H880 C864 0.931 . S
H881 C869 0.929 . S
H882 C870 0.960 . S
H883 C870 0.962 . S
H884 C870 0.960 . S
H885 C871 0.961 . S
H886 C871 0.961 . S
H887 C871 0.961 . S
H888 C872 0.931 . S
H889 C877 0.930 . S
H890 C878 0.956 . S
H891 C878 0.961 . S
H892 C878 0.961 . S
H893 C879 0.958 . S
H894 C879 0.961 . S
H895 C879 0.960 . S
C896 C897 1.391 . S
C896 C898 1.394 . S
C896 H912 0.931 . S
C897 C896 1.391 . S
C897 C901 1.376 . S
C898 C896 1.394 . S
C898 C899 1.369 . S
C898 C902 1.531 . S
C899 C898 1.369 . S
C899 C900 1.410 . S
C899 C907 1.503 . S
C900 C899 1.410 . S
C900 C901 1.392 . S
C900 C903 1.511 . S
C901 C897 1.376 . S
C901 C900 1.392 . S
C901 H913 0.929 . S
C902 C898 1.531 . S
C902 H914 0.960 . S
C902 H915 0.962 . S
C902 H916 0.960 . S
C903 C900 1.511 . S
C903 H917 0.961 . S
C903 H918 0.961 . S
C903 H919 0.961 . S
C904 C905 1.370 . S
C904 C906 1.363 . S
C904 H920 0.931 . S
C905 C904 1.370 . S
C905 C909 1.408 . S
C906 C904 1.363 . S
C906 C907 1.370 . S
C906 C910 1.524 . S
C907 C899 1.503 . S
C907 C906 1.370 . S
C907 C908 1.403 . S
C908 C907 1.403 . S
C908 C909 1.404 . S
C908 C911 1.539 . S
C909 C905 1.408 . S
C909 C908 1.404 . S
C909 H921 0.930 . S
C910 C906 1.524 . S
C910 H922 0.956 . S
C910 H923 0.961 . S
C910 H924 0.961 . S
C911 C908 1.539 . S
C911 H925 0.958 . S
C911 H926 0.961 . S
C911 H927 0.960 . S
H912 C896 0.931 . S
H913 C901 0.929 . S
H914 C902 0.960 . S
H915 C902 0.962 . S
H916 C902 0.960 . S
H917 C903 0.961 . S
H918 C903 0.961 . S
H919 C903 0.961 . S
H920 C904 0.931 . S
H921 C909 0.930 . S
H922 C910 0.956 . S
H923 C910 0.961 . S
H924 C910 0.961 . S
H925 C911 0.958 . S
H926 C911 0.961 . S
H927 C911 0.960 . S
C928 C929 1.391 . S
C928 C930 1.394 . S
C928 H944 0.931 . S
C929 C928 1.391 . S
C929 C933 1.376 . S
C930 C928 1.394 . S
C930 C931 1.369 . S
C930 C934 1.531 . S
C931 C930 1.369 . S
C931 C932 1.410 . S
C931 C939 1.503 . S
C932 C931 1.410 . S
C932 C933 1.392 . S
C932 C935 1.511 . S
C933 C929 1.376 . S
C933 C932 1.392 . S
C933 H945 0.929 . S
C934 C930 1.531 . S
C934 H946 0.960 . S
C934 H947 0.962 . S
C934 H948 0.960 . S
C935 C932 1.511 . S
C935 H949 0.961 . S
C935 H950 0.961 . S
C935 H951 0.961 . S
C936 C937 1.370 . S
C936 C938 1.363 . S
C936 H952 0.931 . S
C937 C936 1.370 . S
C937 C941 1.408 . S
C938 C936 1.363 . S
C938 C939 1.370 . S
C938 C942 1.524 . S
C939 C931 1.503 . S
C939 C938 1.370 . S
C939 C940 1.403 . S
C940 C939 1.403 . S
C940 C941 1.404 . S
C940 C943 1.539 . S
C941 C937 1.408 . S
C941 C940 1.404 . S
C941 H953 0.930 . S
C942 C938 1.524 . S
C942 H954 0.956 . S
C942 H955 0.961 . S
C942 H956 0.961 . S
C943 C940 1.539 . S
C943 H957 0.958 . S
C943 H958 0.961 . S
C943 H959 0.960 . S
H944 C928 0.931 . S
H945 C933 0.929 . S
H946 C934 0.960 . S
H947 C934 0.962 . S
H948 C934 0.960 . S
H949 C935 0.961 . S
H950 C935 0.961 . S
H951 C935 0.961 . S
H952 C936 0.931 . S
H953 C941 0.930 . S
H954 C942 0.956 . S
H955 C942 0.961 . S
H956 C942 0.961 . S
H957 C943 0.958 . S
H958 C943 0.961 . S
H959 C943 0.960 . S
C960 C961 1.391 . S
C960 C962 1.394 . S
C960 H976 0.931 . S
C961 C960 1.391 . S
C961 C965 1.376 . S
C962 C960 1.394 . S
C962 C963 1.369 . S
C962 C966 1.531 . S
C963 C962 1.369 . S
C963 C964 1.410 . S
C963 C971 1.503 . S
C964 C963 1.410 . S
C964 C965 1.392 . S
C964 C967 1.511 . S
C965 C961 1.376 . S
C965 C964 1.392 . S
C965 H977 0.929 . S
C966 C962 1.531 . S
C966 H978 0.960 . S
C966 H979 0.962 . S
C966 H980 0.960 . S
C967 C964 1.511 . S
C967 H981 0.961 . S
C967 H982 0.961 . S
C967 H983 0.961 . S
C968 C969 1.370 . S
C968 C970 1.363 . S
C968 H984 0.931 . S
C969 C968 1.370 . S
C969 C973 1.408 . S
C970 C968 1.363 . S
C970 C971 1.370 . S
C970 C974 1.524 . S
C971 C963 1.503 . S
C971 C970 1.370 . S
C971 C972 1.403 . S
C972 C971 1.403 . S
C972 C973 1.404 . S
C972 C975 1.539 . S
C973 C969 1.408 . S
C973 C972 1.404 . S
C973 H985 0.930 . S
C974 C970 1.524 . S
C974 H986 0.956 . S
C974 H987 0.961 . S
C974 H988 0.961 . S
C975 C972 1.539 . S
C975 H989 0.958 . S
C975 H990 0.961 . S
C975 H991 0.960 . S
H976 C960 0.931 . S
H977 C965 0.929 . S
H978 C966 0.960 . S
H979 C966 0.962 . S
H980 C966 0.960 . S
H981 C967 0.961 . S
H982 C967 0.961 . S
H983 C967 0.961 . S
H984 C968 0.931 . S
H985 C973 0.930 . S
H986 C974 0.956 . S
H987 C974 0.961 . S
H988 C974 0.961 . S
H989 C975 0.958 . S
H990 C975 0.961 . S
H991 C975 0.960 . S
C992 C993 1.391 . S
C992 C994 1.394 . S
C992 H1008 0.931 . S
C993 C992 1.391 . S
C993 C997 1.376 . S
C994 C992 1.394 . S
C994 C995 1.369 . S
C994 C998 1.531 . S
C995 C994 1.369 . S
C995 C996 1.410 . S
C995 C1003 1.503 . S
C996 C995 1.410 . S
C996 C997 1.392 . S
C996 C999 1.511 . S
C997 C993 1.376 . S
C997 C996 1.392 . S
C997 H1009 0.929 . S
C998 C994 1.531 . S
C998 H1010 0.960 . S
C998 H1011 0.962 . S
C998 H1012 0.960 . S
C999 C996 1.511 . S
C999 H1013 0.961 . S
C999 H1014 0.961 . S
C999 H1015 0.961 . S
C1000 C1001 1.370 . S
C1000 C1002 1.363 . S
C1000 H1016 0.931 . S
C1001 C1000 1.370 . S
C1001 C1005 1.408 . S
C1002 C1000 1.363 . S
C1002 C1003 1.370 . S
C1002 C1006 1.524 . S
C1003 C995 1.503 . S
C1003 C1002 1.370 . S
C1003 C1004 1.403 . S
C1004 C1003 1.403 . S
C1004 C1005 1.404 . S
C1004 C1007 1.539 . S
C1005 C1001 1.408 . S
C1005 C1004 1.404 . S
C1005 H1017 0.930 . S
C1006 C1002 1.524 . S
C1006 H1018 0.956 . S
C1006 H1019 0.961 . S
C1006 H1020 0.961 . S
C1007 C1004 1.539 . S
C1007 H1021 0.958 . S
C1007 H1022 0.961 . S
C1007 H1023 0.960 . S
H1008 C992 0.931 . S
H1009 C997 0.929 . S
H1010 C998 0.960 . S
H1011 C998 0.962 . S
H1012 C998 0.960 . S
H1013 C999 0.961 . S
H1014 C999 0.961 . S
H1015 C999 0.961 . S
H1016 C1000 0.931 . S
H1017 C1005 0.930 . S
H1018 C1006 0.956 . S
H1019 C1006 0.961 . S
H1020 C1006 0.961 . S
H1021 C1007 0.958 . S
H1022 C1007 0.961 . S
H1023 C1007 0.960 . S
C1024 C1025 1.391 . S
C1024 C1026 1.394 . S
C1024 H1040 0.931 . S
C1025 C1024 1.391 . S
C1025 C1029 1.376 . S
C1026 C1024 1.394 . S
C1026 C1027 1.369 . S
C1026 C1030 1.531 . S
C1027 C1026 1.369 . S
C1027 C1028 1.410 . S
C1027 C1035 1.503 . S
C1028 C1027 1.410 . S
C1028 C1029 1.392 . S
C1028 C1031 1.511 . S
C1029 C1025 1.376 . S
C1029 C1028 1.392 . S
C1029 H1041 0.929 . S
C1030 C1026 1.531 . S
C1030 H1042 0.960 . S
C1030 H1043 0.962 . S
C1030 H1044 0.960 . S
C1031 C1028 1.511 . S
C1031 H1045 0.961 . S
C1031 H1046 0.961 . S
C1031 H1047 0.961 . S
C1032 C1033 1.370 . S
C1032 C1034 1.363 . S
C1032 H1048 0.931 . S
C1033 C1032 1.370 . S
C1033 C1037 1.408 . S
C1034 C1032 1.363 . S
C1034 C1035 1.370 . S
C1034 C1038 1.524 . S
C1035 C1027 1.503 . S
C1035 C1034 1.370 . S
C1035 C1036 1.403 . S
C1036 C1035 1.403 . S
C1036 C1037 1.404 . S
C1036 C1039 1.539 . S
C1037 C1033 1.408 . S
C1037 C1036 1.404 . S
C1037 H1049 0.930 . S
C1038 C1034 1.524 . S
C1038 H1050 0.956 . S
C1038 H1051 0.961 . S
C1038 H1052 0.961 . S
C1039 C1036 1.539 . S
C1039 H1053 0.958 . S
C1039 H1054 0.961 . S
C1039 H1055 0.960 . S
H1040 C1024 0.931 . S
H1041 C1029 0.929 . S
H1042 C1030 0.960 . S
H1043 C1030 0.962 . S
H1044 C1030 0.960 . S
H1045 C1031 0.961 . S
H1046 C1031 0.961 . S
H1047 C1031 0.961 . S
H1048 C1032 0.931 . S
H1049 C1037 0.930 . S
H1050 C1038 0.956 . S
H1051 C1038 0.961 . S
H1052 C1038 0.961 . S
H1053 C1039 0.958 . S
H1054 C1039 0.961 . S
H1055 C1039 0.960 . S
C1056 C1057 1.391 . S
C1056 C1058 1.394 1_455 S
C1056 H1072 0.931 . S
C1057 C1056 1.391 . S
C1057 C1061 1.376 . S
C1058 C1056 1.394 1_655 S
C1058 C1059 1.369 1_655 S
C1058 C1062 1.531 . S
C1059 C1058 1.369 1_455 S
C1059 C1060 1.410 1_545 S
C1059 C1067 1.503 1_445 S
C1060 C1059 1.410 1_565 S
C1060 C1061 1.392 1_565 S
C1060 C1063 1.511 . S
C1061 C1057 1.376 . S
C1061 C1060 1.392 1_545 S
C1061 H1073 0.929 1_545 S
C1062 C1058 1.531 . S
C1062 H1074 0.960 . S
C1062 H1075 0.962 . S
C1062 H1076 0.960 . S
C1063 C1060 1.511 . S
C1063 H1077 0.961 . S
C1063 H1078 0.961 . S
C1063 H1079 0.961 . S
C1064 C1065 1.370 . S
C1064 C1066 1.363 1_565 S
C1064 H1080 0.931 1_565 S
C1065 C1064 1.370 . S
C1065 C1069 1.408 . S
C1066 C1064 1.363 1_545 S
C1066 C1067 1.370 1_545 S
C1066 C1070 1.524 1_655 S
C1067 C1059 1.503 1_665 S
C1067 C1066 1.370 1_565 S
C1067 C1068 1.403 . S
C1068 C1067 1.403 . S
C1068 C1069 1.404 . S
C1068 C1071 1.539 . S
C1069 C1065 1.408 . S
C1069 C1068 1.404 . S
C1069 H1081 0.930 . S
C1070 C1066 1.524 1_455 S
C1070 H1082 0.956 . S
C1070 H1083 0.961 . S
C1070 H1084 0.961 . S
C1071 C1068 1.539 . S
C1071 H1085 0.958 . S
C1071 H1086 0.961 . S
C1071 H1087 0.960 . S
H1072 C1056 0.931 . S
H1073 C1061 0.929 1_565 S
H1074 C1062 0.960 . S
H1075 C1062 0.962 . S
H1076 C1062 0.960 . S
H1077 C1063 0.961 . S
H1078 C1063 0.961 . S
H1079 C1063 0.961 . S
H1080 C1064 0.931 1_545 S
H1081 C1069 0.930 . S
H1082 C1070 0.956 . S
H1083 C1070 0.961 . S
H1084 C1070 0.961 . S
H1085 C1071 0.958 . S
H1086 C1071 0.961 . S
H1087 C1071 0.960 . S
C1088 C1089 1.391 . S
C1088 C1090 1.394 1_565 S
C1088 H1104 0.931 . S
C1089 C1088 1.391 . S
C1089 C1093 1.376 . S
C1090 C1088 1.394 1_545 S
C1090 C1091 1.369 . S
C1090 C1094 1.531 . S
C1091 C1090 1.369 . S
C1091 C1092 1.407 1_545 S
C1091 C1099 1.505 . S
C1092 C1091 1.407 1_565 S
C1092 C1093 1.392 . S
C1092 C1095 1.511 . S
C1093 C1089 1.376 . S
C1093 C1092 1.392 . S
C1093 H1105 0.929 . S
C1094 C1090 1.531 . S
C1094 H1106 0.960 . S
C1094 H1107 0.962 . S
C1094 H1108 0.960 . S
C1095 C1092 1.511 . S
C1095 H1109 0.961 . S
C1095 H1110 0.961 . S
C1095 H1111 0.961 . S
C1096 C1097 1.370 . S
C1096 C1098 1.363 1_545 S
C1096 H1112 0.931 1_545 S
C1097 C1096 1.370 . S
C1097 C1101 1.408 . S
C1098 C1096 1.363 1_565 S
C1098 C1099 1.370 1_565 S
C1098 C1102 1.524 . S
C1099 C1091 1.505 . S
C1099 C1098 1.370 1_545 S
C1099 C1100 1.403 . S
C1100 C1099 1.403 . S
C1100 C1101 1.404 . S
C1100 C1103 1.539 . S
C1101 C1097 1.408 . S
C1101 C1100 1.404 . S
C1101 H1113 0.930 . S
C1102 C1098 1.524 . S
C1102 H1114 0.956 . S
C1102 H1115 0.961 . S
C1102 H1116 0.961 . S
C1103 C1100 1.539 . S
C1103 H1117 0.958 . S
C1103 H1118 0.961 . S
C1103 H1119 0.960 . S
H1104 C1088 0.931 . S
H1105 C1093 0.929 . S
H1106 C1094 0.960 . S
H1107 C1094 0.962 . S
H1108 C1094 0.960 . S
H1109 C1095 0.961 . S
H1110 C1095 0.961 . S
H1111 C1095 0.961 . S
H1112 C1096 0.931 1_565 S
H1113 C1101 0.930 . S
H1114 C1102 0.956 . S
H1115 C1102 0.961 . S
H1116 C1102 0.961 . S
H1117 C1103 0.958 . S
H1118 C1103 0.961 . S
H1119 C1103 0.960 . S
C1120 C1121 1.391 . S
C1120 C1122 1.394 . S
C1120 H1136 0.931 . S
C1121 C1120 1.391 . S
C1121 C1125 1.376 . S
C1122 C1120 1.394 . S
C1122 C1123 1.369 . S
C1122 C1126 1.531 . S
C1123 C1122 1.369 . S
C1123 C1124 1.410 1_545 S
C1123 C1131 1.503 1_546 S
C1124 C1123 1.410 1_565 S
C1124 C1125 1.392 1_565 S
C1124 C1127 1.511 1_556 S
C1125 C1121 1.376 . S
C1125 C1124 1.392 1_545 S
C1125 H1137 0.929 1_545 S
C1126 C1122 1.531 . S
C1126 H1138 0.960 1_556 S
C1126 H1139 0.962 . S
C1126 H1140 0.960 . S
C1127 C1124 1.511 1_554 S
C1127 H1141 0.961 1_554 S
C1127 H1142 0.961 . S
C1127 H1143 0.961 . S
C1128 C1129 1.370 . S
C1128 C1130 1.363 . S
C1128 H1144 0.931 . S
C1129 C1128 1.370 . S
C1129 C1133 1.408 . S
C1130 C1128 1.363 . S
C1130 C1131 1.370 . S
C1130 C1134 1.524 1_554 S
C1131 C1123 1.503 1_564 S
C1131 C1130 1.370 . S
C1131 C1132 1.403 1_565 S
C1132 C1131 1.403 1_545 S
C1132 C1133 1.404 1_545 S
C1132 C1135 1.539 . S
C1133 C1129 1.408 . S
C1133 C1132 1.404 1_565 S
C1133 H1145 0.930 1_565 S
C1134 C1130 1.524 1_556 S
C1134 H1146 0.956 . S
C1134 H1147 0.961 . S
C1134 H1148 0.961 . S
C1135 C1132 1.539 . S
C1135 H1149 0.958 . S
C1135 H1150 0.961 . S
C1135 H1151 0.960 . S
H1136 C1120 0.931 . S
H1137 C1125 0.929 1_565 S
H1138 C1126 0.960 1_554 S
H1139 C1126 0.962 . S
H1140 C1126 0.960 . S
H1141 C1127 0.961 1_556 S
H1142 C1127 0.961 . S
H1143 C1127 0.961 . S
H1144 C1128 0.931 . S
H1145 C1133 0.930 1_545 S
H1146 C1134 0.956 . S
H1147 C1134 0.961 . S
H1148 C1134 0.961 . S
H1149 C1135 0.958 . S
H1150 C1135 0.961 . S
H1151 C1135 0.960 . S
C1152 C1153 1.391 . S
C1152 C1154 1.394 . S
C1152 H1168 0.931 . S
C1153 C1152 1.391 . S
C1153 C1157 1.376 . S
C1154 C1152 1.394 . S
C1154 C1155 1.369 . S
C1154 C1158 1.531 1_544 S
C1155 C1154 1.369 . S
C1155 C1156 1.410 1_655 S
C1155 C1163 1.503 1_644 S
C1156 C1155 1.410 1_455 S
C1156 C1157 1.392 1_455 S
C1156 C1159 1.511 . S
C1157 C1153 1.376 . S
C1157 C1156 1.392 1_655 S
C1157 H1169 0.929 . S
C1158 C1154 1.531 1_566 S
C1158 H1170 0.960 . S
C1158 H1171 0.962 . S
C1158 H1172 0.960 . S
C1159 C1156 1.511 . S
C1159 H1173 0.961 . S
C1159 H1174 0.961 . S
C1159 H1175 0.961 . S
C1160 C1161 1.370 . S
C1160 C1162 1.363 . S
C1160 H1176 0.931 . S
C1161 C1160 1.370 . S
C1161 C1165 1.408 1_565 S
C1162 C1160 1.363 . S
C1162 C1163 1.370 . S
C1162 C1166 1.524 1_556 S
C1163 C1155 1.503 1_466 S
C1163 C1162 1.370 . S
C1163 C1164 1.403 1_565 S
C1164 C1163 1.403 1_545 S
C1164 C1165 1.404 . S
C1164 C1167 1.539 . S
C1165 C1161 1.408 1_545 S
C1165 C1164 1.404 . S
C1165 H1177 0.930 . S
C1166 C1162 1.524 1_554 S
C1166 H1178 0.956 1_455 S
C1166 H1179 0.961 . S
C1166 H1180 0.961 . S
C1167 C1164 1.539 . S
C1167 H1181 0.958 1_455 S
C1167 H1182 0.961 . S
C1167 H1183 0.960 . S
H1168 C1152 0.931 . S
H1169 C1157 0.929 . S
H1170 C1158 0.960 . S
H1171 C1158 0.962 . S
H1172 C1158 0.960 . S
H1173 C1159 0.961 . S
H1174 C1159 0.961 . S
H1175 C1159 0.961 . S
H1176 C1160 0.931 . S
H1177 C1165 0.930 . S
H1178 C1166 0.956 1_655 S
H1179 C1166 0.961 . S
H1180 C1166 0.961 . S
H1181 C1167 0.958 1_655 S
H1182 C1167 0.961 . S
H1183 C1167 0.960 . S
C1184 C1185 1.391 . S
C1184 C1186 1.394 . S
C1184 H1200 0.931 . S
C1185 C1184 1.391 . S
C1185 C1189 1.376 . S
C1186 C1184 1.394 . S
C1186 C1187 1.369 . S
C1186 C1190 1.531 . S
C1187 C1186 1.369 . S
C1187 C1188 1.410 . S
C1187 C1195 1.503 . S
C1188 C1187 1.410 . S
C1188 C1189 1.392 . S
C1188 C1191 1.511 . S
C1189 C1185 1.376 . S
C1189 C1188 1.392 . S
C1189 H1201 0.929 . S
C1190 C1186 1.531 . S
C1190 H1202 0.960 . S
C1190 H1203 0.962 . S
C1190 H1204 0.960 . S
C1191 C1188 1.511 . S
C1191 H1205 0.961 . S
C1191 H1206 0.961 . S
C1191 H1207 0.961 . S
C1192 C1193 1.370 . S
C1192 C1194 1.363 . S
C1192 H1208 0.931 . S
C1193 C1192 1.370 . S
C1193 C1197 1.408 . S
C1194 C1192 1.363 . S
C1194 C1195 1.370 . S
C1194 C1198 1.524 . S
C1195 C1187 1.503 . S
C1195 C1194 1.370 . S
C1195 C1196 1.403 . S
C1196 C1195 1.403 . S
C1196 C1197 1.404 . S
C1196 C1199 1.539 . S
C1197 C1193 1.408 . S
C1197 C1196 1.404 . S
C1197 H1209 0.930 . S
C1198 C1194 1.524 . S
C1198 H1210 0.956 . S
C1198 H1211 0.961 . S
C1198 H1212 0.961 . S
C1199 C1196 1.539 . S
C1199 H1213 0.958 . S
C1199 H1214 0.961 . S
C1199 H1215 0.960 . S
H1200 C1184 0.931 . S
H1201 C1189 0.929 . S
H1202 C1190 0.960 . S
H1203 C1190 0.962 . S
H1204 C1190 0.960 . S
H1205 C1191 0.961 . S
H1206 C1191 0.961 . S
H1207 C1191 0.961 . S
H1208 C1192 0.931 . S
H1209 C1197 0.930 . S
H1210 C1198 0.956 . S
H1211 C1198 0.961 . S
H1212 C1198 0.961 . S
H1213 C1199 0.958 . S
H1214 C1199 0.961 . S
H1215 C1199 0.960 . S
C1216 C1217 1.391 . S
C1216 C1218 1.394 . S
C1216 H1232 0.931 . S
C1217 C1216 1.391 . S
C1217 C1221 1.376 . S
C1218 C1216 1.394 . S
C1218 C1219 1.369 . S
C1218 C1222 1.531 . S
C1219 C1218 1.369 . S
C1219 C1220 1.410 1_455 S
C1219 C1227 1.503 1_455 S
C1220 C1219 1.410 1_655 S
C1220 C1221 1.392 1_655 S
C1220 C1223 1.511 . S
C1221 C1217 1.376 . S
C1221 C1220 1.392 1_455 S
C1221 H1233 0.929 . S
C1222 C1218 1.531 . S
C1222 H1234 0.960 . S
C1222 H1235 0.962 . S
C1222 H1236 0.960 . S
C1223 C1220 1.511 . S
C1223 H1237 0.961 . S
C1223 H1238 0.961 . S
C1223 H1239 0.961 . S
C1224 C1225 1.370 . S
C1224 C1226 1.363 . S
C1224 H1240 0.931 . S
C1225 C1224 1.370 . S
C1225 C1229 1.408 . S
C1226 C1224 1.363 . S
C1226 C1227 1.370 . S
C1226 C1230 1.524 1_655 S
C1227 C1219 1.503 1_655 S
C1227 C1226 1.370 . S
C1227 C1228 1.403 . S
C1228 C1227 1.403 . S
C1228 C1229 1.404 . S
C1228 C1231 1.539 . S
C1229 C1225 1.408 . S
C1229 C1228 1.404 . S
C1229 H1241 0.930 . S
C1230 C1226 1.524 1_455 S
C1230 H1242 0.956 . S
C1230 H1243 0.961 . S
C1230 H1244 0.961 . S
C1231 C1228 1.539 . S
C1231 H1245 0.958 . S
C1231 H1246 0.961 . S
C1231 H1247 0.960 . S
H1232 C1216 0.931 . S
H1233 C1221 0.929 . S
H1234 C1222 0.960 . S
H1235 C1222 0.962 . S
H1236 C1222 0.960 . S
H1237 C1223 0.961 . S
H1238 C1223 0.961 . S
H1239 C1223 0.961 . S
H1240 C1224 0.931 . S
H1241 C1229 0.930 . S
H1242 C1230 0.956 . S
H1243 C1230 0.961 . S
H1244 C1230 0.961 . S
H1245 C1231 0.958 . S
H1246 C1231 0.961 . S
H1247 C1231 0.960 . S
C1248 C1249 1.391 . S
C1248 C1250 1.394 . S
C1248 H1264 0.931 . S
C1249 C1248 1.391 . S
C1249 C1253 1.376 . S
C1250 C1248 1.394 . S
C1250 C1251 1.369 . S
C1250 C1254 1.531 . S
C1251 C1250 1.369 . S
C1251 C1252 1.410 . S
C1251 C1259 1.503 1_454 S
C1252 C1251 1.410 . S
C1252 C1253 1.392 . S
C1252 C1255 1.511 1_554 S
C1253 C1249 1.376 . S
C1253 C1252 1.392 . S
C1253 H1265 0.929 . S
C1254 C1250 1.531 . S
C1254 H1266 0.960 . S
C1254 H1267 0.962 1_455 S
C1254 H1268 0.960 . S
C1255 C1252 1.511 1_556 S
C1255 H1269 0.961 . S
C1255 H1270 0.961 . S
C1255 H1271 0.961 . S
C1256 C1257 1.370 . S
C1256 C1258 1.363 . S
C1256 H1272 0.931 . S
C1257 C1256 1.370 . S
C1257 C1261 1.408 . S
C1258 C1256 1.363 . S
C1258 C1259 1.370 . S
C1258 C1262 1.524 1_556 S
C1259 C1251 1.503 1_656 S
C1259 C1258 1.370 . S
C1259 C1260 1.403 1_655 S
C1260 C1259 1.403 1_455 S
C1260 C1261 1.404 1_455 S
C1260 C1263 1.539 . S
C1261 C1257 1.408 . S
C1261 C1260 1.404 1_655 S
C1261 H1273 0.930 . S
C1262 C1258 1.524 1_554 S
C1262 H1274 0.956 . S
C1262 H1275 0.961 . S
C1262 H1276 0.961 . S
C1263 C1260 1.539 . S
C1263 H1277 0.958 . S
C1263 H1278 0.961 . S
C1263 H1279 0.960 . S
H1264 C1248 0.931 . S
H1265 C1253 0.929 . S
H1266 C1254 0.960 . S
H1267 C1254 0.962 1_655 S
H1268 C1254 0.960 . S
H1269 C1255 0.961 . S
H1270 C1255 0.961 . S
H1271 C1255 0.961 . S
H1272 C1256 0.931 . S
H1273 C1261 0.930 . S
H1274 C1262 0.956 . S
H1275 C1262 0.961 . S
H1276 C1262 0.961 . S
H1277 C1263 0.958 . S
H1278 C1263 0.961 . S
H1279 C1263 0.960 . S
C1280 C1281 1.391 . S
C1280 C1282 1.394 . S
C1280 H1296 0.931 . S
C1281 C1280 1.391 . S
C1281 C1285 1.376 . S
C1282 C1280 1.394 . S
C1282 C1283 1.369 . S
C1282 C1286 1.531 . S
C1283 C1282 1.369 . S
C1283 C1284 1.410 . S
C1283 C1291 1.503 1_556 S
C1284 C1283 1.410 . S
C1284 C1285 1.392 . S
C1284 C1287 1.511 1_556 S
C1285 C1281 1.376 . S
C1285 C1284 1.392 . S
C1285 H1297 0.929 . S
C1286 C1282 1.531 . S
C1286 H1298 0.960 . S
C1286 H1299 0.962 . S
C1286 H1300 0.960 . S
C1287 C1284 1.511 1_554 S
C1287 H1301 0.961 . S
C1287 H1302 0.961 . S
C1287 H1303 0.961 . S
C1288 C1289 1.370 . S
C1288 C1290 1.363 . S
C1288 H1304 0.931 . S
C1289 C1288 1.370 . S
C1289 C1293 1.408 . S
C1290 C1288 1.363 . S
C1290 C1291 1.370 . S
C1290 C1294 1.524 . S
C1291 C1283 1.503 1_554 S
C1291 C1290 1.370 . S
C1291 C1292 1.403 . S
C1292 C1291 1.403 . S
C1292 C1293 1.404 . S
C1292 C1295 1.539 . S
C1293 C1289 1.408 . S
C1293 C1292 1.404 . S
C1293 H1305 0.930 . S
C1294 C1290 1.524 . S
C1294 H1306 0.956 1_554 S
C1294 H1307 0.961 . S
C1294 H1308 0.961 . S
C1295 C1292 1.539 . S
C1295 H1309 0.958 . S
C1295 H1310 0.961 . S
C1295 H1311 0.960 . S
H1296 C1280 0.931 . S
H1297 C1285 0.929 . S
H1298 C1286 0.960 . S
H1299 C1286 0.962 . S
H1300 C1286 0.960 . S
H1301 C1287 0.961 . S
H1302 C1287 0.961 . S
H1303 C1287 0.961 . S
H1304 C1288 0.931 . S
H1305 C1293 0.930 . S
H1306 C1294 0.956 1_556 S
H1307 C1294 0.961 . S
H1308 C1294 0.961 . S
H1309 C1295 0.958 . S
H1310 C1295 0.961 . S
H1311 C1295 0.960 . S
C1312 C1313 1.391 . S
C1312 C1314 1.394 . S
C1312 H1328 0.931 . S
C1313 C1312 1.391 . S
C1313 C1317 1.376 . S
C1314 C1312 1.394 . S
C1314 C1315 1.369 . S
C1314 C1318 1.531 . S
C1315 C1314 1.369 . S
C1315 C1316 1.398 1_545 S
C1315 C1323 1.503 1_545 S
C1316 C1315 1.398 1_565 S
C1316 C1317 1.372 1_565 S
C1316 C1319 1.542 . S
C1317 C1313 1.376 . S
C1317 C1316 1.372 1_545 S
C1317 H1329 0.929 . S
C1318 C1314 1.531 . S
C1318 H1330 0.960 . S
C1318 H1331 0.962 . S
C1318 H1332 0.960 . S
C1319 C1316 1.542 . S
C1319 H1333 0.961 . S
C1319 H1334 0.961 . S
C1319 H1335 0.961 . S
C1320 C1321 1.370 . S
C1320 C1322 1.363 . S
C1320 H1336 0.931 . S
C1321 C1320 1.370 . S
C1321 C1325 1.408 . S
C1322 C1320 1.363 . S
C1322 C1323 1.370 . S
C1322 C1326 1.524 . S
C1323 C1315 1.503 1_565 S
C1323 C1322 1.370 . S
C1323 C1324 1.403 . S
C1324 C1323 1.403 . S
C1324 C1325 1.404 . S
C1324 C1327 1.539 . S
C1325 C1321 1.408 . S
C1325 C1324 1.404 . S
C1325 H1337 0.930 . S
C1326 C1322 1.524 . S
C1326 H1338 0.956 1_565 S
C1326 H1339 0.961 . S
C1326 H1340 0.961 . S
C1327 C1324 1.539 . S
C1327 H1341 0.958 1_565 S
C1327 H1342 0.961 . S
C1327 H1343 0.960 . S
H1328 C1312 0.931 . S
H1329 C1317 0.929 . S
H1330 C1318 0.960 . S
H1331 C1318 0.962 . S
H1332 C1318 0.960 . S
H1333 C1319 0.961 . S
H1334 C1319 0.961 . S
H1335 C1319 0.961 . S
H1336 C1320 0.931 . S
H1337 C1325 0.930 . S
H1338 C1326 0.956 1_545 S
H1339 C1326 0.961 . S
H1340 C1326 0.961 . S
H1341 C1327 0.958 1_545 S
H1342 C1327 0.961 . S
H1343 C1327 0.960 . S
C1344 C1345 1.391 . S
C1344 C1346 1.394 . S
C1344 H1360 0.931 . S
C1345 C1344 1.391 . S
C1345 C1349 1.376 . S
C1346 C1344 1.394 . S
C1346 C1347 1.369 . S
C1346 C1350 1.531 1_545 S
C1347 C1346 1.369 . S
C1347 C1348 1.410 . S
C1347 C1355 1.503 1_545 S
C1348 C1347 1.410 . S
C1348 C1349 1.392 . S
C1348 C1351 1.511 . S
C1349 C1345 1.376 . S
C1349 C1348 1.392 . S
C1349 H1361 0.929 . S
C1350 C1346 1.531 1_565 S
C1350 H1362 0.960 . S
C1350 H1363 0.962 . S
C1350 H1364 0.960 . S
C1351 C1348 1.511 . S
C1351 H1365 0.961 . S
C1351 H1366 0.961 . S
C1351 H1367 0.961 . S
C1352 C1353 1.370 . S
C1352 C1354 1.363 . S
C1352 H1368 0.931 . S
C1353 C1352 1.370 . S
C1353 C1357 1.408 . S
C1354 C1352 1.363 . S
C1354 C1355 1.370 . S
C1354 C1358 1.524 . S
C1355 C1347 1.503 1_565 S
C1355 C1354 1.370 . S
C1355 C1356 1.403 . S
C1356 C1355 1.403 . S
C1356 C1357 1.404 . S
C1356 C1359 1.539 1_565 S
C1357 C1353 1.408 . S
C1357 C1356 1.404 . S
C1357 H1369 0.930 . S
C1358 C1354 1.524 . S
C1358 H1370 0.956 . S
C1358 H1371 0.961 . S
C1358 H1372 0.961 . S
C1359 C1356 1.539 1_545 S
C1359 H1373 0.958 . S
C1359 H1374 0.961 . S
C1359 H1375 0.960 . S
H1360 C1344 0.931 . S
H1361 C1349 0.929 . S
H1362 C1350 0.960 . S
H1363 C1350 0.962 . S
H1364 C1350 0.960 . S
H1365 C1351 0.961 . S
H1366 C1351 0.961 . S
H1367 C1351 0.961 . S
H1368 C1352 0.931 . S
H1369 C1357 0.930 . S
H1370 C1358 0.956 . S
H1371 C1358 0.961 . S
H1372 C1358 0.961 . S
H1373 C1359 0.958 . S
H1374 C1359 0.961 . S
H1375 C1359 0.960 . S
C1376 C1377 1.391 . S
C1376 C1378 1.377 1_545 S
C1376 H1392 0.931 . S
C1377 C1376 1.391 . S
C1377 C1381 1.376 . S
C1378 C1376 1.377 1_565 S
C1378 C1379 1.360 1_565 S
C1378 C1382 1.557 . S
C1379 C1378 1.360 1_545 S
C1379 C1380 1.410 . S
C1379 C1387 1.503 1_545 S
C1380 C1379 1.410 . S
C1380 C1381 1.392 . S
C1380 C1383 1.511 . S
C1381 C1377 1.376 . S
C1381 C1380 1.392 . S
C1381 H1393 0.929 . S
C1382 C1378 1.557 . S
C1382 H1394 0.960 . S
C1382 H1395 0.962 . S
C1382 H1396 0.960 . S
C1383 C1380 1.511 . S
C1383 H1397 0.961 . S
C1383 H1398 0.961 . S
C1383 H1399 0.961 . S
C1384 C1385 1.370 . S
C1384 C1386 1.363 . S
C1384 H1400 0.931 . S
C1385 C1384 1.370 . S
C1385 C1389 1.408 . S
C1386 C1384 1.363 . S
C1386 C1387 1.370 . S
C1386 C1390 1.524 . S
C1387 C1379 1.503 1_565 S
C1387 C1386 1.370 . S
C1387 C1388 1.403 . S
C1388 C1387 1.403 . S
C1388 C1389 1.404 . S
C1388 C1391 1.539 . S
C1389 C1385 1.408 . S
C1389 C1388 1.404 . S
C1389 H1401 0.930 . S
C1390 C1386 1.524 . S
C1390 H1402 0.956 . S
C1390 H1403 0.961 1_565 S
C1390 H1404 0.961 . S
C1391 C1388 1.539 . S
C1391 H1405 0.958 . S
C1391 H1406 0.961 . S
C1391 H1407 0.960 1_565 S
H1392 C1376 0.931 . S
H1393 C1381 0.929 . S
H1394 C1382 0.960 . S
H1395 C1382 0.962 . S
H1396 C1382 0.960 . S
H1397 C1383 0.961 . S
H1398 C1383 0.961 . S
H1399 C1383 0.961 . S
H1400 C1384 0.931 . S
H1401 C1389 0.930 . S
H1402 C1390 0.956 . S
H1403 C1390 0.961 1_545 S
H1404 C1390 0.961 . S
H1405 C1391 0.958 . S
H1406 C1391 0.961 . S
H1407 C1391 0.960 1_545 S
C1408 C1409 1.391 . S
C1408 C1410 1.394 . S
C1408 H1424 0.931 . S
C1409 C1408 1.391 . S
C1409 C1413 1.376 . S
C1410 C1408 1.394 . S
C1410 C1411 1.369 . S
C1410 C1414 1.531 . S
C1411 C1410 1.369 . S
C1411 C1412 1.410 1_545 S
C1411 C1419 1.503 1_545 S
C1412 C1411 1.410 1_565 S
C1412 C1413 1.393 1_565 S
C1412 C1415 1.511 . S
C1413 C1409 1.376 . S
C1413 C1412 1.393 1_545 S
C1413 H1425 0.929 . S
C1414 C1410 1.531 . S
C1414 H1426 0.960 . S
C1414 H1427 0.962 . S
C1414 H1428 0.960 . S
C1415 C1412 1.511 . S
C1415 H1429 0.961 . S
C1415 H1430 0.961 . S
C1415 H1431 0.961 . S
C1416 C1417 1.370 . S
C1416 C1418 1.363 . S
C1416 H1432 0.931 . S
C1417 C1416 1.370 . S
C1417 C1421 1.408 . S
C1418 C1416 1.363 . S
C1418 C1419 1.370 . S
C1418 C1422 1.524 . S
C1419 C1411 1.503 1_565 S
C1419 C1418 1.370 . S
C1419 C1420 1.403 . S
C1420 C1419 1.403 . S
C1420 C1421 1.404 . S
C1420 C1423 1.539 . S
C1421 C1417 1.408 . S
C1421 C1420 1.404 . S
C1421 H1433 0.930 . S
C1422 C1418 1.524 . S
C1422 H1434 0.956 1_565 S
C1422 H1435 0.961 . S
C1422 H1436 0.961 . S
C1423 C1420 1.539 . S
C1423 H1437 0.958 1_565 S
C1423 H1438 0.961 . S
C1423 H1439 0.960 . S
H1424 C1408 0.931 . S
H1425 C1413 0.929 . S
H1426 C1414 0.960 . S
H1427 C1414 0.962 . S
H1428 C1414 0.960 . S
H1429 C1415 0.961 . S
H1430 C1415 0.961 . S
H1431 C1415 0.961 . S
H1432 C1416 0.931 . S
H1433 C1421 0.930 . S
H1434 C1422 0.956 1_545 S
H1435 C1422 0.961 . S
H1436 C1422 0.961 . S
H1437 C1423 0.958 1_545 S
H1438 C1423 0.961 . S
H1439 C1423 0.960 . S
C1440 C1441 1.391 . S
C1440 C1442 1.394 . S
C1440 H1456 0.931 . S
C1441 C1440 1.391 . S
C1441 C1445 1.376 . S
C1442 C1440 1.394 . S
C1442 C1443 1.369 . S
C1442 C1446 1.531 . S
C1443 C1442 1.369 . S
C1443 C1444 1.410 . S
C1443 C1451 1.503 . S
C1444 C1443 1.410 . S
C1444 C1445 1.392 . S
C1444 C1447 1.511 . S
C1445 C1441 1.376 . S
C1445 C1444 1.392 . S
C1445 H1457 0.929 . S
C1446 C1442 1.531 . S
C1446 H1458 0.960 . S
C1446 H1459 0.962 . S
C1446 H1460 0.960 . S
C1447 C1444 1.511 . S
C1447 H1461 0.961 . S
C1447 H1462 0.961 . S
C1447 H1463 0.961 . S
C1448 C1449 1.370 . S
C1448 C1450 1.363 . S
C1448 H1464 0.931 . S
C1449 C1448 1.370 . S
C1449 C1453 1.408 . S
C1450 C1448 1.363 . S
C1450 C1451 1.370 . S
C1450 C1454 1.524 . S
C1451 C1443 1.503 . S
C1451 C1450 1.370 . S
C1451 C1452 1.403 . S
C1452 C1451 1.403 . S
C1452 C1453 1.404 . S
C1452 C1455 1.539 . S
C1453 C1449 1.408 . S
C1453 C1452 1.404 . S
C1453 H1465 0.930 . S
C1454 C1450 1.524 . S
C1454 H1466 0.956 . S
C1454 H1467 0.961 . S
C1454 H1468 0.961 . S
C1455 C1452 1.539 . S
C1455 H1469 0.958 . S
C1455 H1470 0.961 . S
C1455 H1471 0.960 . S
H1456 C1440 0.931 . S
H1457 C1445 0.929 . S
H1458 C1446 0.960 . S
H1459 C1446 0.962 . S
H1460 C1446 0.960 . S
H1461 C1447 0.961 . S
H1462 C1447 0.961 . S
H1463 C1447 0.961 . S
H1464 C1448 0.931 . S
H1465 C1453 0.930 . S
H1466 C1454 0.956 . S
H1467 C1454 0.961 . S
H1468 C1454 0.961 . S
H1469 C1455 0.958 . S
H1470 C1455 0.961 . S
H1471 C1455 0.960 . S
C1472 C1473 1.391 . S
C1472 C1474 1.394 . S
C1472 H1488 0.931 . S
C1473 C1472 1.391 . S
C1473 C1477 1.376 . S
C1474 C1472 1.394 . S
C1474 C1475 1.369 . S
C1474 C1478 1.531 . S
C1475 C1474 1.369 . S
C1475 C1476 1.410 . S
C1475 C1483 1.503 . S
C1476 C1475 1.410 . S
C1476 C1477 1.392 . S
C1476 C1479 1.511 . S
C1477 C1473 1.376 . S
C1477 C1476 1.392 . S
C1477 H1489 0.929 . S
C1478 C1474 1.531 . S
C1478 H1490 0.960 . S
C1478 H1491 0.962 . S
C1478 H1492 0.960 . S
C1479 C1476 1.511 . S
C1479 H1493 0.961 . S
C1479 H1494 0.961 . S
C1479 H1495 0.961 . S
C1480 C1481 1.370 . S
C1480 C1482 1.363 . S
C1480 H1496 0.931 . S
C1481 C1480 1.370 . S
C1481 C1485 1.408 . S
C1482 C1480 1.363 . S
C1482 C1483 1.370 . S
C1482 C1486 1.524 . S
C1483 C1475 1.503 . S
C1483 C1482 1.370 . S
C1483 C1484 1.403 . S
C1484 C1483 1.403 . S
C1484 C1485 1.404 . S
C1484 C1487 1.539 . S
C1485 C1481 1.408 . S
C1485 C1484 1.404 . S
C1485 H1497 0.930 . S
C1486 C1482 1.524 . S
C1486 H1498 0.956 . S
C1486 H1499 0.961 . S
C1486 H1500 0.961 . S
C1487 C1484 1.539 . S
C1487 H1501 0.958 . S
C1487 H1502 0.961 . S
C1487 H1503 0.960 . S
H1488 C1472 0.931 . S
H1489 C1477 0.929 . S
H1490 C1478 0.960 . S
H1491 C1478 0.962 . S
H1492 C1478 0.960 . S
H1493 C1479 0.961 . S
H1494 C1479 0.961 . S
H1495 C1479 0.961 . S
H1496 C1480 0.931 . S
H1497 C1485 0.930 . S
H1498 C1486 0.956 . S
H1499 C1486 0.961 . S
H1500 C1486 0.961 . S
H1501 C1487 0.958 . S
H1502 C1487 0.961 . S
H1503 C1487 0.960 . S
C1504 C1505 1.391 . S
C1504 C1506 1.394 . S
C1504 H1520 0.931 . S
C1505 C1504 1.391 . S
C1505 C1509 1.376 . S
C1506 C1504 1.394 . S
C1506 C1507 1.369 . S
C1506 C1510 1.531 . S
C1507 C1506 1.369 . S
C1507 C1508 1.410 . S
C1507 C1515 1.503 . S
C1508 C1507 1.410 . S
C1508 C1509 1.392 . S
C1508 C1511 1.511 . S
C1509 C1505 1.376 . S
C1509 C1508 1.392 . S
C1509 H1521 0.929 . S
C1510 C1506 1.531 . S
C1510 H1522 0.960 . S
C1510 H1523 0.962 . S
C1510 H1524 0.960 . S
C1511 C1508 1.511 . S
C1511 H1525 0.961 . S
C1511 H1526 0.961 . S
C1511 H1527 0.961 . S
C1512 C1513 1.370 . S
C1512 C1514 1.363 . S
C1512 H1528 0.931 . S
C1513 C1512 1.370 . S
C1513 C1517 1.408 . S
C1514 C1512 1.363 . S
C1514 C1515 1.370 . S
C1514 C1518 1.524 . S
C1515 C1507 1.503 . S
C1515 C1514 1.370 . S
C1515 C1516 1.403 . S
C1516 C1515 1.403 . S
C1516 C1517 1.404 . S
C1516 C1519 1.539 . S
C1517 C1513 1.408 . S
C1517 C1516 1.404 . S
C1517 H1529 0.930 . S
C1518 C1514 1.524 . S
C1518 H1530 0.956 . S
C1518 H1531 0.961 . S
C1518 H1532 0.961 . S
C1519 C1516 1.539 . S
C1519 H1533 0.958 . S
C1519 H1534 0.961 . S
C1519 H1535 0.960 . S
H1520 C1504 0.931 . S
H1521 C1509 0.929 . S
H1522 C1510 0.960 . S
H1523 C1510 0.962 . S
H1524 C1510 0.960 . S
H1525 C1511 0.961 . S
H1526 C1511 0.961 . S
H1527 C1511 0.961 . S
H1528 C1512 0.931 . S
H1529 C1517 0.930 . S
H1530 C1518 0.956 . S
H1531 C1518 0.961 . S
H1532 C1518 0.961 . S
H1533 C1519 0.958 . S
H1534 C1519 0.961 . S
H1535 C1519 0.960 . S
C1536 C1537 1.391 . S
C1536 C1538 1.394 . S
C1536 H1552 0.931 . S
C1537 C1536 1.391 . S
C1537 C1541 1.376 . S
C1538 C1536 1.394 . S
C1538 C1539 1.369 . S
C1538 C1542 1.531 . S
C1539 C1538 1.369 . S
C1539 C1540 1.410 . S
C1539 C1547 1.503 . S
C1540 C1539 1.410 . S
C1540 C1541 1.392 . S
C1540 C1543 1.511 . S
C1541 C1537 1.376 . S
C1541 C1540 1.392 . S
C1541 H1553 0.929 . S
C1542 C1538 1.531 . S
C1542 H1554 0.960 . S
C1542 H1555 0.962 . S
C1542 H1556 0.960 . S
C1543 C1540 1.511 . S
C1543 H1557 0.961 . S
C1543 H1558 0.961 . S
C1543 H1559 0.961 . S
C1544 C1545 1.370 . S
C1544 C1546 1.363 . S
C1544 H1560 0.931 . S
C1545 C1544 1.370 . S
C1545 C1549 1.408 . S
C1546 C1544 1.363 . S
C1546 C1547 1.370 . S
C1546 C1550 1.524 . S
C1547 C1539 1.503 . S
C1547 C1546 1.370 . S
C1547 C1548 1.403 . S
C1548 C1547 1.403 . S
C1548 C1549 1.404 . S
C1548 C1551 1.539 . S
C1549 C1545 1.408 . S
C1549 C1548 1.404 . S
C1549 H1561 0.930 . S
C1550 C1546 1.524 . S
C1550 H1562 0.956 . S
C1550 H1563 0.961 . S
C1550 H1564 0.961 . S
C1551 C1548 1.539 . S
C1551 H1565 0.958 . S
C1551 H1566 0.961 . S
C1551 H1567 0.960 . S
H1552 C1536 0.931 . S
H1553 C1541 0.929 . S
H1554 C1542 0.960 . S
H1555 C1542 0.962 . S
H1556 C1542 0.960 . S
H1557 C1543 0.961 . S
H1558 C1543 0.961 . S
H1559 C1543 0.961 . S
H1560 C1544 0.931 . S
H1561 C1549 0.930 . S
H1562 C1550 0.956 . S
H1563 C1550 0.961 . S
H1564 C1550 0.961 . S
H1565 C1551 0.958 . S
H1566 C1551 0.961 . S
H1567 C1551 0.960 . S
C1568 C1569 1.391 . S
C1568 C1570 1.394 . S
C1568 H1584 0.931 . S
C1569 C1568 1.391 . S
C1569 C1573 1.376 . S
C1570 C1568 1.394 . S
C1570 C1571 1.369 . S
C1570 C1574 1.531 1_455 S
C1571 C1570 1.369 . S
C1571 C1572 1.410 . S
C1571 C1579 1.503 1_455 S
C1572 C1571 1.410 . S
C1572 C1573 1.392 . S
C1572 C1575 1.511 . S
C1573 C1569 1.376 . S
C1573 C1572 1.392 . S
C1573 H1585 0.929 . S
C1574 C1570 1.531 1_655 S
C1574 H1586 0.960 . S
C1574 H1587 0.962 . S
C1574 H1588 0.960 . S
C1575 C1572 1.511 . S
C1575 H1589 0.961 . S
C1575 H1590 0.961 . S
C1575 H1591 0.961 . S
C1576 C1577 1.370 . S
C1576 C1578 1.363 . S
C1576 H1592 0.931 . S
C1577 C1576 1.370 . S
C1577 C1581 1.408 . S
C1578 C1576 1.363 . S
C1578 C1579 1.370 . S
C1578 C1582 1.524 . S
C1579 C1571 1.503 1_655 S
C1579 C1578 1.370 . S
C1579 C1580 1.403 . S
C1580 C1579 1.403 . S
C1580 C1581 1.404 . S
C1580 C1583 1.539 1_655 S
C1581 C1577 1.408 . S
C1581 C1580 1.404 . S
C1581 H1593 0.930 . S
C1582 C1578 1.524 . S
C1582 H1594 0.956 . S
C1582 H1595 0.961 . S
C1582 H1596 0.961 . S
C1583 C1580 1.539 1_455 S
C1583 H1597 0.958 1_455 S
C1583 H1598 0.961 . S
C1583 H1599 0.960 . S
H1584 C1568 0.931 . S
H1585 C1573 0.929 . S
H1586 C1574 0.960 . S
H1587 C1574 0.962 . S
H1588 C1574 0.960 . S
H1589 C1575 0.961 . S
H1590 C1575 0.961 . S
H1591 C1575 0.961 . S
H1592 C1576 0.931 . S
H1593 C1581 0.930 . S
H1594 C1582 0.956 . S
H1595 C1582 0.961 . S
H1596 C1582 0.961 . S
H1597 C1583 0.958 1_655 S
H1598 C1583 0.961 . S
H1599 C1583 0.960 . S
C1600 C1601 1.391 . S
C1600 C1602 1.394 . S
C1600 H1616 0.931 . S
C1601 C1600 1.391 . S
C1601 C1605 1.376 . S
C1602 C1600 1.394 . S
C1602 C1603 1.369 . S
C1602 C1606 1.531 . S
C1603 C1602 1.369 . S
C1603 C1604 1.410 . S
C1603 C1611 1.503 . S
C1604 C1603 1.410 . S
C1604 C1605 1.392 . S
C1604 C1607 1.511 . S
C1605 C1601 1.376 . S
C1605 C1604 1.392 . S
C1605 H1617 0.929 . S
C1606 C1602 1.531 . S
C1606 H1618 0.960 . S
C1606 H1619 0.962 . S
C1606 H1620 0.960 . S
C1607 C1604 1.511 . S
C1607 H1621 0.961 . S
C1607 H1622 0.961 . S
C1607 H1623 0.961 . S
C1608 C1609 1.370 . S
C1608 C1610 1.363 . S
C1608 H1624 0.931 . S
C1609 C1608 1.370 . S
C1609 C1613 1.408 . S
C1610 C1608 1.363 . S
C1610 C1611 1.370 . S
C1610 C1614 1.524 . S
C1611 C1603 1.503 . S
C1611 C1610 1.370 . S
C1611 C1612 1.403 . S
C1612 C1611 1.403 . S
C1612 C1613 1.404 . S
C1612 C1615 1.539 . S
C1613 C1609 1.408 . S
C1613 C1612 1.404 . S
C1613 H1625 0.930 . S
C1614 C1610 1.524 . S
C1614 H1626 0.956 . S
C1614 H1627 0.961 . S
C1614 H1628 0.961 . S
C1615 C1612 1.539 . S
C1615 H1629 0.958 . S
C1615 H1630 0.961 . S
C1615 H1631 0.960 . S
H1616 C1600 0.931 . S
H1617 C1605 0.929 . S
H1618 C1606 0.960 . S
H1619 C1606 0.962 . S
H1620 C1606 0.960 . S
H1621 C1607 0.961 . S
H1622 C1607 0.961 . S
H1623 C1607 0.961 . S
H1624 C1608 0.931 . S
H1625 C1613 0.930 . S
H1626 C1614 0.956 . S
H1627 C1614 0.961 . S
H1628 C1614 0.961 . S
H1629 C1615 0.958 . S
H1630 C1615 0.961 . S
H1631 C1615 0.960 . S
C1632 C1633 1.391 . S
C1632 C1634 1.394 . S
C1632 H1648 0.931 . S
C1633 C1632 1.391 . S
C1633 C1637 1.376 . S
C1634 C1632 1.394 . S
C1634 C1635 1.369 . S
C1634 C1638 1.531 . S
C1635 C1634 1.369 . S
C1635 C1636 1.410 . S
C1635 C1643 1.503 . S
C1636 C1635 1.410 . S
C1636 C1637 1.392 . S
C1636 C1639 1.511 . S
C1637 C1633 1.376 . S
C1637 C1636 1.392 . S
C1637 H1649 0.929 . S
C1638 C1634 1.531 . S
C1638 H1650 0.960 . S
C1638 H1651 0.962 . S
C1638 H1652 0.960 . S
C1639 C1636 1.511 . S
C1639 H1653 0.961 . S
C1639 H1654 0.961 . S
C1639 H1655 0.961 . S
C1640 C1641 1.370 . S
C1640 C1642 1.363 . S
C1640 H1656 0.931 . S
C1641 C1640 1.370 . S
C1641 C1645 1.408 . S
C1642 C1640 1.363 . S
C1642 C1643 1.370 . S
C1642 C1646 1.524 . S
C1643 C1635 1.503 . S
C1643 C1642 1.370 . S
C1643 C1644 1.403 . S
C1644 C1643 1.403 . S
C1644 C1645 1.404 . S
C1644 C1647 1.539 . S
C1645 C1641 1.408 . S
C1645 C1644 1.404 . S
C1645 H1657 0.930 . S
C1646 C1642 1.524 . S
C1646 H1658 0.956 . S
C1646 H1659 0.961 . S
C1646 H1660 0.961 . S
C1647 C1644 1.539 . S
C1647 H1661 0.958 . S
C1647 H1662 0.961 . S
C1647 H1663 0.960 . S
H1648 C1632 0.931 . S
H1649 C1637 0.929 . S
H1650 C1638 0.960 . S
H1651 C1638 0.962 . S
H1652 C1638 0.960 . S
H1653 C1639 0.961 . S
H1654 C1639 0.961 . S
H1655 C1639 0.961 . S
H1656 C1640 0.931 . S
H1657 C1645 0.930 . S
H1658 C1646 0.956 . S
H1659 C1646 0.961 . S
H1660 C1646 0.961 . S
H1661 C1647 0.958 . S
H1662 C1647 0.961 . S
H1663 C1647 0.960 . S
C1664 C1665 1.391 . S
C1664 C1666 1.394 . S
C1664 H1680 0.931 . S
C1665 C1664 1.391 . S
C1665 C1669 1.376 . S
C1666 C1664 1.394 . S
C1666 C1667 1.369 . S
C1666 C1670 1.531 1_655 S
C1667 C1666 1.369 . S
C1667 C1668 1.410 . S
C1667 C1675 1.503 1_655 S
C1668 C1667 1.410 . S
C1668 C1669 1.392 . S
C1668 C1671 1.511 . S
C1669 C1665 1.376 . S
C1669 C1668 1.392 . S
C1669 H1681 0.929 . S
C1670 C1666 1.531 1_455 S
C1670 H1682 0.960 . S
C1670 H1683 0.962 . S
C1670 H1684 0.960 . S
C1671 C1668 1.511 . S
C1671 H1685 0.961 . S
C1671 H1686 0.961 . S
C1671 H1687 0.961 . S
C1672 C1673 1.370 . S
C1672 C1674 1.363 . S
C1672 H1688 0.931 . S
C1673 C1672 1.370 . S
C1673 C1677 1.408 . S
C1674 C1672 1.363 . S
C1674 C1675 1.370 . S
C1674 C1678 1.524 . S
C1675 C1667 1.503 1_455 S
C1675 C1674 1.370 . S
C1675 C1676 1.403 . S
C1676 C1675 1.403 . S
C1676 C1677 1.404 . S
C1676 C1679 1.539 1_455 S
C1677 C1673 1.408 . S
C1677 C1676 1.404 . S
C1677 H1689 0.930 . S
C1678 C1674 1.524 . S
C1678 H1690 0.956 . S
C1678 H1691 0.961 . S
C1678 H1692 0.961 . S
C1679 C1676 1.539 1_655 S
C1679 H1693 0.974 . S
C1679 H1694 0.961 . S
C1679 H1695 0.960 . S
H1680 C1664 0.931 . S
H1681 C1669 0.929 . S
H1682 C1670 0.960 . S
H1683 C1670 0.962 . S
H1684 C1670 0.960 . S
H1685 C1671 0.961 . S
H1686 C1671 0.961 . S
H1687 C1671 0.961 . S
H1688 C1672 0.931 . S
H1689 C1677 0.930 . S
H1690 C1678 0.956 . S
H1691 C1678 0.961 . S
H1692 C1678 0.961 . S
H1693 C1679 0.974 . S
H1694 C1679 0.961 . S
H1695 C1679 0.960 . S
C1696 C1697 1.391 . S
C1696 C1698 1.415 . S
C1696 H1712 0.931 . S
C1697 C1696 1.391 . S
C1697 C1701 1.376 . S
C1698 C1696 1.415 . S
C1698 C1699 1.380 . S
C1698 C1702 1.498 1_655 S
C1699 C1698 1.380 . S
C1699 C1700 1.410 . S
C1699 C1707 1.503 1_655 S
C1700 C1699 1.410 . S
C1700 C1701 1.392 . S
C1700 C1703 1.511 . S
C1701 C1697 1.376 . S
C1701 C1700 1.392 . S
C1701 H1713 0.929 . S
C1702 C1698 1.498 1_455 S
C1702 H1714 0.960 . S
C1702 H1715 0.962 . S
C1702 H1716 0.960 . S
C1703 C1700 1.511 . S
C1703 H1717 0.961 . S
C1703 H1718 0.961 . S
C1703 H1719 0.961 . S
C1704 C1705 1.370 . S
C1704 C1706 1.363 . S
C1704 H1720 0.931 . S
C1705 C1704 1.370 . S
C1705 C1709 1.408 . S
C1706 C1704 1.363 . S
C1706 C1707 1.370 . S
C1706 C1710 1.524 . S
C1707 C1699 1.503 1_455 S
C1707 C1706 1.370 . S
C1707 C1708 1.403 . S
C1708 C1707 1.403 . S
C1708 C1709 1.404 . S
C1708 C1711 1.539 . S
C1709 C1705 1.408 . S
C1709 C1708 1.404 . S
C1709 H1721 0.930 . S
C1710 C1706 1.524 . S
C1710 H1722 0.956 . S
C1710 H1723 0.961 1_455 S
C1710 H1724 0.961 . S
C1711 C1708 1.539 . S
C1711 H1725 0.958 . S
C1711 H1726 0.961 . S
C1711 H1727 0.960 1_455 S
H1712 C1696 0.931 . S
H1713 C1701 0.929 . S
H1714 C1702 0.960 . S
H1715 C1702 0.962 . S
H1716 C1702 0.960 . S
H1717 C1703 0.961 . S
H1718 C1703 0.961 . S
H1719 C1703 0.961 . S
H1720 C1704 0.931 . S
H1721 C1709 0.930 . S
H1722 C1710 0.956 . S
H1723 C1710 0.961 1_655 S
H1724 C1710 0.961 . S
H1725 C1711 0.958 . S
H1726 C1711 0.961 . S
H1727 C1711 0.960 1_655 S
C1728 C1729 1.391 . S
C1728 C1730 1.394 . S
C1728 H1744 0.931 . S
C1729 C1728 1.391 . S
C1729 C1733 1.376 . S
C1730 C1728 1.394 . S
C1730 C1731 1.369 . S
C1730 C1734 1.531 . S
C1731 C1730 1.369 . S
C1731 C1732 1.410 . S
C1731 C1739 1.503 . S
C1732 C1731 1.410 . S
C1732 C1733 1.392 . S
C1732 C1735 1.511 . S
C1733 C1729 1.376 . S
C1733 C1732 1.392 . S
C1733 H1745 0.929 . S
C1734 C1730 1.531 . S
C1734 H1746 0.960 . S
C1734 H1747 0.962 . S
C1734 H1748 0.960 . S
C1735 C1732 1.511 . S
C1735 H1749 0.961 . S
C1735 H1750 0.961 . S
C1735 H1751 0.961 . S
C1736 C1737 1.370 . S
C1736 C1738 1.363 . S
C1736 H1752 0.931 . S
C1737 C1736 1.370 . S
C1737 C1741 1.408 . S
C1738 C1736 1.363 . S
C1738 C1739 1.370 . S
C1738 C1742 1.524 . S
C1739 C1731 1.503 . S
C1739 C1738 1.370 . S
C1739 C1740 1.403 . S
C1740 C1739 1.403 . S
C1740 C1741 1.404 . S
C1740 C1743 1.539 . S
C1741 C1737 1.408 . S
C1741 C1740 1.404 . S
C1741 H1753 0.930 . S
C1742 C1738 1.524 . S
C1742 H1754 0.956 . S
C1742 H1755 0.961 . S
C1742 H1756 0.961 . S
C1743 C1740 1.539 . S
C1743 H1757 0.958 . S
C1743 H1758 0.961 . S
C1743 H1759 0.960 . S
H1744 C1728 0.931 . S
H1745 C1733 0.929 . S
H1746 C1734 0.960 . S
H1747 C1734 0.962 . S
H1748 C1734 0.960 . S
H1749 C1735 0.961 . S
H1750 C1735 0.961 . S
H1751 C1735 0.961 . S
H1752 C1736 0.931 . S
H1753 C1741 0.930 . S
H1754 C1742 0.956 . S
H1755 C1742 0.961 . S
H1756 C1742 0.961 . S
H1757 C1743 0.958 . S
H1758 C1743 0.961 . S
H1759 C1743 0.960 . S
C1760 C1761 1.391 . S
C1760 C1762 1.394 . S
C1760 H1776 0.931 . S
C1761 C1760 1.391 . S
C1761 C1765 1.376 . S
C1762 C1760 1.394 . S
C1762 C1763 1.369 . S
C1762 C1766 1.531 . S
C1763 C1762 1.369 . S
C1763 C1764 1.410 . S
C1763 C1771 1.503 . S
C1764 C1763 1.410 . S
C1764 C1765 1.392 . S
C1764 C1767 1.511 . S
C1765 C1761 1.376 . S
C1765 C1764 1.392 . S
C1765 H1777 0.929 . S
C1766 C1762 1.531 . S
C1766 H1778 0.960 . S
C1766 H1779 0.962 . S
C1766 H1780 0.960 . S
C1767 C1764 1.511 . S
C1767 H1781 0.961 . S
C1767 H1782 0.961 . S
C1767 H1783 0.961 . S
C1768 C1769 1.370 . S
C1768 C1770 1.363 . S
C1768 H1784 0.931 . S
C1769 C1768 1.370 . S
C1769 C1773 1.408 . S
C1770 C1768 1.363 . S
C1770 C1771 1.370 . S
C1770 C1774 1.524 . S
C1771 C1763 1.503 . S
C1771 C1770 1.370 . S
C1771 C1772 1.403 . S
C1772 C1771 1.403 . S
C1772 C1773 1.404 . S
C1772 C1775 1.539 . S
C1773 C1769 1.408 . S
C1773 C1772 1.404 . S
C1773 H1785 0.930 . S
C1774 C1770 1.524 . S
C1774 H1786 0.956 . S
C1774 H1787 0.961 . S
C1774 H1788 0.961 . S
C1775 C1772 1.539 . S
C1775 H1789 0.958 . S
C1775 H1790 0.961 . S
C1775 H1791 0.960 . S
H1776 C1760 0.931 . S
H1777 C1765 0.929 . S
H1778 C1766 0.960 . S
H1779 C1766 0.962 . S
H1780 C1766 0.960 . S
H1781 C1767 0.961 . S
H1782 C1767 0.961 . S
H1783 C1767 0.961 . S
H1784 C1768 0.931 . S
H1785 C1773 0.930 . S
H1786 C1774 0.956 . S
H1787 C1774 0.961 . S
H1788 C1774 0.961 . S
H1789 C1775 0.958 . S
H1790 C1775 0.961 . S
H1791 C1775 0.960 . S
C1792 C1793 1.391 . S
C1792 C1794 1.394 . S
C1792 H1808 0.931 . S
C1793 C1792 1.391 . S
C1793 C1797 1.376 . S
C1794 C1792 1.394 . S
C1794 C1795 1.369 . S
C1794 C1798 1.531 1_655 S
C1795 C1794 1.369 . S
C1795 C1796 1.410 . S
C1795 C1803 1.503 1_655 S
C1796 C1795 1.410 . S
C1796 C1797 1.392 . S
C1796 C1799 1.511 . S
C1797 C1793 1.376 . S
C1797 C1796 1.392 . S
C1797 H1809 0.929 . S
C1798 C1794 1.531 1_455 S
C1798 H1810 0.960 . S
C1798 H1811 0.962 . S
C1798 H1812 0.960 . S
C1799 C1796 1.511 . S
C1799 H1813 0.961 . S
C1799 H1814 0.961 . S
C1799 H1815 0.961 . S
C1800 C1801 1.370 . S
C1800 C1802 1.363 . S
C1800 H1816 0.931 . S
C1801 C1800 1.370 . S
C1801 C1805 1.408 . S
C1802 C1800 1.363 . S
C1802 C1803 1.370 . S
C1802 C1806 1.524 . S
C1803 C1795 1.503 1_455 S
C1803 C1802 1.370 . S
C1803 C1804 1.403 . S
C1804 C1803 1.403 . S
C1804 C1805 1.404 . S
C1804 C1807 1.537 1_455 S
C1805 C1801 1.408 . S
C1805 C1804 1.404 . S
C1805 H1817 0.930 . S
C1806 C1802 1.524 . S
C1806 H1818 0.956 . S
C1806 H1819 0.961 1_455 S
C1806 H1820 0.961 . S
C1807 C1804 1.537 1_655 S
C1807 H1821 0.956 1_655 S
C1807 H1822 0.962 . S
C1807 H1823 0.964 . S
H1808 C1792 0.931 . S
H1809 C1797 0.929 . S
H1810 C1798 0.960 . S
H1811 C1798 0.962 . S
H1812 C1798 0.960 . S
H1813 C1799 0.961 . S
H1814 C1799 0.961 . S
H1815 C1799 0.961 . S
H1816 C1800 0.931 . S
H1817 C1805 0.930 . S
H1818 C1806 0.956 . S
H1819 C1806 0.961 1_655 S
H1820 C1806 0.961 . S
H1821 C1807 0.956 1_455 S
H1822 C1807 0.962 . S
H1823 C1807 0.964 . S
C545 C135 1.180 . S
C553 C33 1.164 . S
C577 C101 1.170 . S
C585 C67 1.156 . S
C609 C169 1.160 . S
C617 C271 1.155 . S
C641 C203 1.133 . S
C649 C237 1.152 . S
C673 C305 1.174 . S
C681 C407 1.158 . S
C705 C339 1.134 . S
C713 C373 1.156 . S
C737 C543 1.179 . S
C745 C441 1.166 . S
C769 C509 1.179 . S
C777 C475 1.169 . S
C801 C5 0.745 . S
C809 C345 0.782 . S
C833 C379 0.742 . S
C841 C39 0.776 . S
C865 C277 0.742 . S
C873 C73 0.774 . S
C897 C311 0.791 . S
C905 C107 0.772 . S
C929 C481 0.824 . S
C937 C141 0.794 . S
C961 C515 0.826 . S
C969 C175 0.797 . S
C993 C413 0.791 . S
C1001 C209 0.797 . S
C1025 C447 0.790 . S
C1033 C243 0.776 . S
C1057 C9 1.630 . S
C1065 C145 1.675 . S
C1089 C43 1.658 . S
C1097 C179 1.662 . S
C1121 C213 1.689 . S
C1129 C77 1.651 . S
C1153 C111 1.683 . S
C1161 C247 1.655 . S
C1185 C281 1.646 . S
C1193 C417 1.671 . S
C1217 C451 1.632 . S
C1225 C315 1.676 . S
C1249 C349 1.677 . S
C1257 C485 1.655 . S
C1281 C519 1.662 . S
C1289 C383 1.661 . S
C1313 C20 1.379 . S
C1321 C54 1.380 . S
C1345 C122 1.372 . S
C1353 C88 1.373 . S
C1377 C190 1.379 . S
C1385 C156 1.379 . S
C1409 C224 1.368 . S
C1417 C258 1.374 . S
C1441 C326 1.367 . S
C1449 C292 1.374 . S
C1473 C394 1.366 . S
C1481 C360 1.378 . S
C1505 C428 1.366 . S
C1513 C462 1.376 . S
C1537 C530 1.366 . S
C1545 C496 1.376 . S
C1569 C2 1.067 . S
C1577 C308 1.049 . S
C1601 C36 1.066 . S
C1609 C274 1.052 . S
C1633 C70 1.067 . S
C1641 C376 1.048 . S
C1665 C104 1.067 . S
C1673 C342 1.048 . S
C1697 C138 1.005 . S
C1705 C444 1.025 . S
C1729 C410 1.065 . S
C1737 C172 1.051 . S
C1761 C206 1.005 . S
C1769 C512 1.025 . S
C1793 C478 1.007 . S
C1801 C240 1.026 . S
