# Generated by pormake.
# Topology ukl, (4)-cn, num edge types: 1
# Building blocks:
#     Node 0, Type 0, BuildingBlock: ESEHIV_clean_sbu_0, # of connection points: 4
#     Node 1, Type 0, BuildingBlock: ESEHIV_clean_sbu_0, # of connection points: 4
#     Node 2, Type 0, BuildingBlock: ESEHIV_clean_sbu_0, # of connection points: 4
#     Node 3, Type 0, BuildingBlock: ESEHIV_clean_sbu_0, # of connection points: 4
#     Node 4, Type 0, BuildingBlock: ESEHIV_clean_sbu_0, # of connection points: 4
#     Node 5, Type 0, BuildingBlock: ESEHIV_clean_sbu_0, # of connection points: 4
#     Node 6, Type 0, BuildingBlock: ESEHIV_clean_sbu_0, # of connection points: 4
#     Node 7, Type 0, BuildingBlock: ESEHIV_clean_sbu_0, # of connection points: 4
#     Node 8, Type 0, BuildingBlock: ESEHIV_clean_sbu_0, # of connection points: 4
#     Node 9, Type 0, BuildingBlock: ESEHIV_clean_sbu_0, # of connection points: 4
#     Node 10, Type 0, BuildingBlock: ESEHIV_clean_sbu_0, # of connection points: 4
#     Node 11, Type 0, BuildingBlock: ESEHIV_clean_sbu_0, # of connection points: 4
#     Node 12, Type 0, BuildingBlock: ESEHIV_clean_sbu_0, # of connection points: 4
#     Node 13, Type 0, BuildingBlock: ESEHIV_clean_sbu_0, # of connection points: 4
#     Node 14, Type 0, BuildingBlock: ESEHIV_clean_sbu_0, # of connection points: 4
#     Node 15, Type 0, BuildingBlock: ESEHIV_clean_sbu_0, # of connection points: 4
#     Edge 16, Type (0, 0), BuildingBlock: CIFDUS_clean_linker_0, # of connection points: 2
#     Edge 17, Type (0, 0), BuildingBlock: CIFDUS_clean_linker_0, # of connection points: 2
#     Edge 18, Type (0, 0), BuildingBlock: CIFDUS_clean_linker_0, # of connection points: 2
#     Edge 19, Type (0, 0), BuildingBlock: CIFDUS_clean_linker_0, # of connection points: 2
#     Edge 20, Type (0, 0), BuildingBlock: CIFDUS_clean_linker_0, # of connection points: 2
#     Edge 21, Type (0, 0), BuildingBlock: CIFDUS_clean_linker_0, # of connection points: 2
#     Edge 22, Type (0, 0), BuildingBlock: CIFDUS_clean_linker_0, # of connection points: 2
#     Edge 23, Type (0, 0), BuildingBlock: CIFDUS_clean_linker_0, # of connection points: 2
#     Edge 24, Type (0, 0), BuildingBlock: CIFDUS_clean_linker_0, # of connection points: 2
#     Edge 25, Type (0, 0), BuildingBlock: CIFDUS_clean_linker_0, # of connection points: 2
#     Edge 26, Type (0, 0), BuildingBlock: CIFDUS_clean_linker_0, # of connection points: 2
#     Edge 27, Type (0, 0), BuildingBlock: CIFDUS_clean_linker_0, # of connection points: 2
#     Edge 28, Type (0, 0), BuildingBlock: CIFDUS_clean_linker_0, # of connection points: 2
#     Edge 29, Type (0, 0), BuildingBlock: CIFDUS_clean_linker_0, # of connection points: 2
#     Edge 30, Type (0, 0), BuildingBlock: CIFDUS_clean_linker_0, # of connection points: 2
#     Edge 31, Type (0, 0), BuildingBlock: CIFDUS_clean_linker_0, # of connection points: 2
#     Edge 32, Type (0, 0), BuildingBlock: CIFDUS_clean_linker_0, # of connection points: 2
#     Edge 33, Type (0, 0), BuildingBlock: CIFDUS_clean_linker_0, # of connection points: 2
#     Edge 34, Type (0, 0), BuildingBlock: CIFDUS_clean_linker_0, # of connection points: 2
#     Edge 35, Type (0, 0), BuildingBlock: CIFDUS_clean_linker_0, # of connection points: 2
#     Edge 36, Type (0, 0), BuildingBlock: CIFDUS_clean_linker_0, # of connection points: 2
#     Edge 37, Type (0, 0), BuildingBlock: CIFDUS_clean_linker_0, # of connection points: 2
#     Edge 38, Type (0, 0), BuildingBlock: CIFDUS_clean_linker_0, # of connection points: 2
#     Edge 39, Type (0, 0), BuildingBlock: CIFDUS_clean_linker_0, # of connection points: 2
#     Edge 40, Type (0, 0), BuildingBlock: CIFDUS_clean_linker_0, # of connection points: 2
#     Edge 41, Type (0, 0), BuildingBlock: CIFDUS_clean_linker_0, # of connection points: 2
#     Edge 42, Type (0, 0), BuildingBlock: CIFDUS_clean_linker_0, # of connection points: 2
#     Edge 43, Type (0, 0), BuildingBlock: CIFDUS_clean_linker_0, # of connection points: 2
#     Edge 44, Type (0, 0), BuildingBlock: CIFDUS_clean_linker_0, # of connection points: 2
#     Edge 45, Type (0, 0), BuildingBlock: CIFDUS_clean_linker_0, # of connection points: 2
#     Edge 46, Type (0, 0), BuildingBlock: CIFDUS_clean_linker_0, # of connection points: 2
#     Edge 47, Type (0, 0), BuildingBlock: CIFDUS_clean_linker_0, # of connection points: 2
# Relax obj value: 0.086
# Max RMSD: 0.173
# Mean RMSD: 0.150
data_MOF--net-ukl--node1-ESEHIV_clean_sbu_0--edge1-CIFDUS_clean_linker_0
_symmetry_space_group_name_H-M    P1
_symmetry_Int_Tables_number       1
_symmetry_cell_setting            triclinic
loop_
_symmetry_equiv_pos_as_xyz
'x, y, z'
_cell_length_a     29.9976
_cell_length_b     28.809684
_cell_length_c     20.148518
_cell_angle_alpha  90.092432
_cell_angle_beta   90.15353
_cell_angle_gamma 84.616316
loop_
_atom_site_label
_atom_site_type_symbol
_atom_site_fract_x
_atom_site_fract_y
_atom_site_fract_z
_atom_type_partial_charge
Cu0 Cu 0.33494 0.15058 0.96782 0.0
N1 N 0.36159 0.17479 0.04211 0.0
N2 N 0.41277 0.21885 0.08308 0.0
C3 C 0.40484 0.18351 0.04214 0.0
C4 C 0.37285 0.2322 0.1114 0.0
C5 C 0.34133 0.2051 0.08578 0.0
O6 O 0.3862 0.1224 0.91693 0.0
C7 C 0.32322 0.24266 0.92393 0.0
O8 O 0.36721 0.23822 0.92387 0.0
H9 H 0.42803 0.17027 0.00436 0.0
H10 H 0.30545 0.21147 0.0915 0.0
N11 N 0.29406 0.10887 -0.0057 0.0
N12 N 0.23033 0.08296 0.03085 0.0
C13 C 0.2509 0.12037 0.0108 0.0
C14 C 0.30125 0.06264 0.00446 0.0
C15 C 0.262 0.04653 0.02665 0.0
C16 C 0.39417 0.0841 0.88532 0.0
O17 O 0.36153 0.05805 0.87258 0.0
H18 H 0.23515 0.15571 0.00884 0.0
H19 H 0.33311 0.04228 -0.0019 0.0
O20 O 0.30276 0.2061 0.92957 0.0
H21 H 0.36584 0.26246 0.14291 0.0
H22 H 0.25776 1.0111 0.04133 0.0
Cu23 Cu 0.65366 0.59812 0.27278 0.0
N24 N 0.62235 0.59303 0.35183 0.0
N25 N 0.56576 0.57176 0.41413 0.0
C26 C 0.58917 0.56492 0.35712 0.0
C27 C 0.58556 0.60592 0.44588 0.0
C28 C 0.62046 0.61889 0.40742 0.0
O29 O 0.67059 0.53336 0.24728 0.0
C30 C 0.61667 0.6676 0.18025 0.0
O31 O 0.65792 0.67539 0.16555 0.0
H32 H 0.58098 0.54201 0.31731 0.0
H33 H 0.64134 0.6467 0.41768 0.0
N34 N 0.7041 0.63201 0.28125 0.0
N35 N 0.7453 0.69309 0.27905 0.0
C36 C 0.70458 0.67831 0.29158 0.0
C37 C 0.74609 0.61707 0.26269 0.0
C38 C 0.77156 0.6543 0.26207 0.0
C39 C 0.69978 0.51055 0.2837 0.0
O40 O 0.71864 0.53239 0.33191 0.0
H41 H 0.67473 0.70117 0.30222 0.0
H42 H 0.75688 0.58214 0.24609 0.0
O43 O 0.60964 0.63231 0.21548 0.0
H44 H 0.57481 0.62195 0.49237 0.0
H45 H 0.80633 0.65301 0.24746 0.0
Cu46 Cu 0.20411 0.90065 0.54842 0.0
N47 N 0.17628 0.86282 0.48919 0.0
N48 N 0.12774 0.80831 0.48364 0.0
C49 C 0.13586 0.85049 0.5072 0.0
C50 C 0.16434 0.79378 0.44757 0.0
C51 C 0.19425 0.82751 0.45103 0.0
O52 O 0.15613 0.94821 0.57358 0.0
C53 C 0.25568 0.82541 0.59983 0.0
O54 O 0.27635 0.83104 0.54346 0.0
H55 H 0.11584 0.86895 0.54523 0.0
H56 H 0.22852 0.82376 0.43385 0.0
N57 N 0.25504 0.9286 0.51875 0.0
N58 N 0.32338 0.95429 0.52349 0.0
C59 C 0.293 0.93028 0.55455 0.0
C60 C 0.26166 0.95284 0.46302 0.0
C61 C 0.30372 0.96892 0.46605 0.0
C62 C 0.13773 0.97227 0.52595 0.0
O63 O 0.15502 0.96669 0.46634 0.0
H64 H 0.29825 0.91425 0.60284 0.0
H65 H 0.23778 0.95848 0.42291 0.0
O66 O 0.22315 0.8549 0.61634 0.0
H67 H 0.17054 0.75987 0.42444 0.0
H68 H 0.31908 0.98894 0.42851 0.0
Cu69 Cu 0.86824 0.4706 0.73515 0.0
N70 N 0.89679 0.49694 0.80694 0.0
N71 N 0.95557 0.52835 0.85202 0.0
C72 C 0.94128 0.49129 0.81971 0.0
C73 C 0.91875 0.55846 0.85977 0.0
C74 C 0.88271 0.53898 0.83239 0.0
O75 O 0.85037 0.52603 0.68211 0.0
C76 C 0.91996 0.38908 0.73699 0.0
O77 O 0.90108 0.39046 0.79579 0.0
H78 H 0.96362 0.46337 0.79892 0.0
H79 H 0.84969 0.55664 0.82446 0.0
N80 N 0.81784 0.43892 0.75716 0.0
N81 N 0.7693 0.38417 0.75144 0.0
C82 C 0.8086 0.39798 0.73005 0.0
C83 C 0.78275 0.45178 0.79674 0.0
C84 C 0.75273 0.41812 0.79332 0.0
C85 C 0.8094 0.5404 0.67246 0.0
O86 O 0.77915 0.51038 0.67551 0.0
H87 H 0.82992 0.37914 0.69387 0.0
H88 H 0.77856 0.48416 0.824 0.0
O89 O 0.91151 0.42334 0.69746 0.0
H90 H 0.91835 0.59326 0.88019 0.0
H91 H 0.72128 0.4186 0.81965 0.0
Cu92 Cu 0.70513 0.87298 0.83688 0.0
N93 N 0.68249 0.83936 0.90627 0.0
N94 N 0.63268 0.80572 0.96765 0.0
C95 C 0.63878 0.8367 0.91926 0.0
C96 C 0.67415 0.78802 -0.01412 0.0
C97 C 0.70489 0.80903 0.948 0.0
O98 O 0.65278 0.91246 0.80434 0.0
C99 C 0.76901 0.80713 0.77579 0.0
O100 O 0.79643 0.82275 0.81961 0.0
H101 H 0.61184 0.85504 0.89116 0.0
H102 H 0.74089 0.8015 0.949 0.0
N103 N 0.74971 0.90875 0.87096 0.0
N104 N 0.81089 0.94746 0.88451 0.0
C105 C 0.78484 0.92614 0.84081 0.0
C106 C 0.75353 0.91985 0.93542 0.0
C107 C 0.7907 0.94373 0.94388 0.0
C108 C 0.63562 0.94337 0.84449 0.0
O109 O 0.65707 0.95036 0.89998 0.0
H110 H 0.79194 0.92168 0.78847 0.0
H111 H 0.73093 0.9107 -0.02602 0.0
O112 O 0.72884 0.82599 0.77233 0.0
H113 H 0.68159 0.76103 0.02266 0.0
H114 H 0.80181 0.95718 -0.00938 0.0
Cu115 Cu 0.4273 0.45208 0.71914 0.0
N116 N 0.45615 0.42866 0.79552 0.0
N117 N 0.48842 0.37078 0.85753 0.0
C118 C 0.45545 0.38402 0.81429 0.0
C119 C 0.51038 0.40899 0.86764 0.0
C120 C 0.49026 0.44479 0.82933 0.0
O121 O 0.39187 0.40147 0.69162 0.0
C122 C 0.49828 0.49742 0.66246 0.0
O123 O 0.48866 0.52727 0.71082 0.0
H124 H 0.43498 0.36 0.79017 0.0
H125 H 0.50266 0.47829 0.8214 0.0
N126 N 0.39081 0.50664 0.73918 0.0
N127 N 0.35676 0.57892 0.73267 0.0
C128 C 0.38624 0.54657 0.70418 0.0
C129 C 0.36321 0.51393 0.79153 0.0
C130 C 0.34181 0.55838 0.78733 0.0
C131 C 0.34925 0.40376 0.6902 0.0
O132 O 0.32604 0.44452 0.69605 0.0
H133 H 0.40391 0.55168 0.65841 0.0
H134 H 0.35883 0.48853 0.82988 0.0
O135 O 0.47435 0.46335 0.65509 0.0
H136 H 0.5412 0.40972 0.89559 0.0
H137 H 0.3178 0.57459 0.82229 0.0
Cu138 Cu 0.82419 0.17993 0.45811 0.0
N139 N 0.84493 0.21929 0.52274 0.0
N140 N 0.89781 0.26442 0.55518 0.0
C141 C 0.88882 0.22515 0.52399 0.0
C142 C 0.85764 0.28499 0.57441 0.0
C143 C 0.82491 0.2571 0.55386 0.0
O144 O 0.87717 0.13576 0.44087 0.0
C145 C 0.77376 0.25297 0.39382 0.0
O146 O 0.74767 0.24847 0.44516 0.0
H147 H 0.91334 0.20419 0.49493 0.0
H148 H 0.78914 0.26598 0.55636 0.0
N149 N 0.77514 0.14646 0.48201 0.0
N150 N 0.71013 0.11371 0.47477 0.0
C151 C 0.73518 0.14651 0.45056 0.0
C152 C 0.77516 0.11182 0.52692 0.0
C153 C 0.73552 0.0915 0.52224 0.0
C154 C 0.89659 0.11481 0.4906 0.0
O155 O 0.87857 0.12121 0.54958 0.0
H156 H 0.72534 0.16862 0.40869 0.0
H157 H 0.8023 0.10098 0.56019 0.0
O158 O 0.80809 0.22375 0.38595 0.0
H159 H 0.85209 0.31887 0.59782 0.0
H160 H 0.72601 0.06278 0.55184 0.0
Cu161 Cu 0.13652 0.58315 0.13923 0.0
N162 N 0.10711 0.59717 0.21912 0.0
N163 N 0.07928 0.65364 0.28833 0.0
C164 C 0.11611 0.6337 0.25703 0.0
C165 C 0.04617 0.62749 0.27036 0.0
C166 C 0.06343 0.59254 0.22883 0.0
O167 O 0.16504 0.63991 0.11944 0.0
C168 C 0.07027 0.53519 0.07993 0.0
O169 O 0.08837 0.50157 0.11811 0.0
H170 H 0.14773 0.64863 0.25484 0.0
H171 H 0.04384 0.56987 0.20061 0.0
N172 N 0.17779 0.53011 0.14567 0.0
N173 N 0.22393 0.46757 0.11805 0.0
C174 C 0.1915 0.49987 0.09692 0.0
C175 C 0.20166 0.51569 0.19969 0.0
C176 C 0.23045 0.47742 0.18265 0.0
C177 C 0.20301 0.64718 0.14398 0.0
O178 O 0.2266 0.613 0.17472 0.0
H179 H 0.17889 0.50223 0.04658 0.0
H180 H 0.19902 0.53259 0.2477 0.0
O181 O 0.08886 0.5731 0.07666 0.0
H182 H 1.0109 0.63579 0.28021 0.0
H183 H 0.25451 0.45841 0.2151 0.0
Cu184 Cu 0.85087 0.6047 0.46822 0.0
N185 N 0.88685 0.60742 0.54342 0.0
N186 N 0.95149 0.63166 0.58003 0.0
C187 C 0.91127 0.64396 0.55168 0.0
C188 C 0.95119 0.58576 0.59365 0.0
C189 C 0.91153 0.57089 0.57057 0.0
O190 O 0.89358 0.57323 0.40561 0.0
C191 C 0.79297 0.69064 0.44497 0.0
O192 O 0.759 0.66544 0.43838 0.0
H193 H 0.90337 0.67667 0.52597 0.0
H194 H 0.9045 0.53496 0.56475 0.0
N195 N 0.80228 0.56857 0.4814 0.0
N196 N 0.73481 0.54548 0.50793 0.0
C197 C 0.76329 0.57931 0.51382 0.0
C198 C 0.79879 0.52621 0.45499 0.0
C199 C 0.75768 0.51185 0.47129 0.0
C200 C 0.92987 0.59152 0.39413 0.0
O201 O 0.93171 0.63578 0.4086 0.0
H202 H 0.75604 0.61172 0.54032 0.0
H203 H 0.82418 0.50738 0.42472 0.0
O204 O 0.8326 0.67052 0.44901 0.0
H205 H 0.97957 0.56329 0.61165 0.0
H206 H 0.74566 0.47932 0.45578 0.0
Cu207 Cu 0.14302 0.09159 0.75883 0.0
N208 N 0.10624 0.07976 0.8304 0.0
N209 N 0.04551 0.05658 0.88073 0.0
C210 C 0.06846 0.05828 0.82331 0.0
C211 C 0.07024 0.07794 0.92579 0.0
C212 C 0.10764 0.09221 0.89462 0.0
O213 O 0.15485 0.03061 0.71697 0.0
C214 C 0.10322 0.17857 0.74045 0.0
O215 O 0.12115 0.18135 0.79966 0.0
H216 H 0.05812 0.04431 0.77643 0.0
H217 H 0.13333 0.11124 0.91678 0.0
N218 N 0.19668 0.11644 0.78234 0.0
N219 N 0.25216 0.16327 0.77714 0.0
C220 C 0.21327 0.15216 0.75044 0.0
C221 C 0.22646 0.10396 0.83064 0.0
C222 C 0.26095 0.13255 0.82711 0.0
C223 C 0.19377 1.00871 0.71396 0.0
O224 O 0.22908 0.03215 0.7195 0.0
H225 H 0.19702 0.16968 0.70816 0.0
H226 H 0.22342 0.076 0.86564 0.0
O227 O 0.10793 0.13994 0.70902 0.0
H228 H 0.06143 0.08411 -0.02273 0.0
H229 H 0.28981 0.13124 0.85942 0.0
Cu230 Cu 0.70014 0.43355 0.0462 0.0
N231 N 0.67763 0.3896 -0.00914 0.0
N232 N 0.63287 0.332 -0.01604 0.0
C233 C 0.63856 0.37433 0.00891 0.0
C234 C 0.66996 0.32018 0.94745 0.0
C235 C 0.69756 0.35604 0.95151 0.0
O236 O 0.64804 0.47894 0.06022 0.0
C237 C 0.75145 0.36295 0.10806 0.0
O238 O 0.7706 0.36374 0.04963 0.0
H239 H 0.61743 0.3915 0.04679 0.0
H240 H 0.73146 0.35527 0.93309 0.0
N241 N 0.74926 0.46272 0.01333 0.0
N242 N 0.81837 0.48603 0.00792 0.0
C243 C 0.7904 0.46036 0.04107 0.0
C244 C 0.75111 0.49216 0.96171 0.0
C245 C 0.79367 0.50669 0.95843 0.0
C246 C 0.62735 0.49356 0.00753 0.0
O247 O 0.64477 0.48103 0.94976 0.0
H248 H 0.79969 0.44076 0.08553 0.0
H249 H 0.72365 0.50245 0.92852 0.0
O250 O 0.71954 0.39401 0.12177 0.0
H251 H 0.67821 0.28683 0.92368 0.0
H252 H 0.80575 0.52976 0.92169 0.0
Cu253 Cu 0.3994 0.97845 0.23365 0.0
N254 N 0.42277 0.99678 0.31472 0.0
N255 N 0.47638 1.02394 0.37759 0.0
C256 C 0.46636 0.99148 0.33282 0.0
C257 C 0.43771 0.0508 0.3877 0.0
C258 C 0.40472 0.03367 0.34966 0.0
O259 O 0.38139 0.039 0.19257 0.0
C260 C 0.45702 0.89989 0.21962 0.0
O261 O 0.43696 0.89204 0.27585 0.0
H262 H 0.49132 0.96812 0.30793 0.0
H263 H 0.37131 0.0504 0.34184 0.0
N264 N 0.35028 0.94275 0.24383 0.0
N265 N 0.30796 0.88325 0.2318 0.0
C266 C 0.34601 0.90138 0.21415 0.0
C267 C 0.31317 0.95124 0.28111 0.0
C268 C 0.28686 0.91458 0.27358 0.0
C269 C 0.34075 0.05494 0.18294 0.0
O270 O 0.30981 1.0257 0.17921 0.0
H271 H 0.3705 0.88448 0.18049 0.0
H272 H 0.30578 0.98193 0.31148 0.0
O273 O 0.44679 0.93844 0.18963 0.0
H274 H 0.43427 0.08272 0.41627 0.0
H275 H 0.25552 0.91052 0.29845 0.0
Cu276 Cu 0.23308 0.378 0.39962 0.0
N277 N 0.20544 0.34656 0.46632 0.0
N278 N 0.15087 0.31458 0.51952 0.0
C279 C 0.16097 0.34462 0.4719 0.0
C280 C 0.19052 0.29704 0.5452 0.0
C281 C 0.22422 0.31706 0.51239 0.0
O282 O 0.18512 0.42297 0.36502 0.0
C283 C 0.29284 0.30589 0.34819 0.0
O284 O 0.31495 0.3155 0.40207 0.0
H285 H 0.13665 0.36263 0.43885 0.0
H286 H 0.25987 0.30927 0.51972 0.0
N287 N 0.28046 0.40815 0.43687 0.0
N288 N 0.34417 0.44224 0.44988 0.0
C289 C 0.31649 0.42316 0.40642 0.0
C290 C 0.28565 0.41797 0.50163 0.0
C291 C 0.32464 0.43912 0.50975 0.0
C292 C 0.17779 0.46252 0.39351 0.0
O293 O 0.20595 0.47408 0.43929 0.0
H294 H 0.32228 0.42003 0.35354 0.0
H295 H 0.26264 0.41011 0.54035 0.0
O296 O 0.25604 0.33019 0.33521 0.0
H297 H 0.19483 0.27061 0.58343 0.0
H298 H 0.33808 0.45038 0.55632 0.0
Cu299 Cu 0.92247 0.99271 0.2433 0.0
N300 N 0.95089 0.96728 0.31905 0.0
N301 N 0.98378 0.90717 0.3766 0.0
C302 C 0.94882 0.92279 0.33803 0.0
C303 C 1.00856 0.94363 0.38331 0.0
C304 C 0.98825 0.98055 0.34751 0.0
O305 O 0.88544 0.94487 0.21139 0.0
C306 C 0.99448 0.03677 0.18708 0.0
O307 O 0.98401 0.06814 0.23324 0.0
H308 H 0.92627 0.90007 0.31569 0.0
H309 H 1.00303 1.01211 0.33531 0.0
N310 N 0.88729 0.04849 0.26244 0.0
N311 N 0.85274 0.12032 0.25144 0.0
C312 C 0.88134 0.08674 0.22385 0.0
C313 C 0.86174 0.05847 0.31645 0.0
C314 C 0.83986 0.10249 0.3093 0.0
C315 C 0.85169 0.9347 0.24501 0.0
O316 O 0.83899 0.96076 0.29628 0.0
H317 H 0.89753 0.08985 0.17632 0.0
H318 H 0.85934 0.03547 0.35838 0.0
O319 O 0.97056 1.00266 0.1806 0.0
H320 H 0.04158 0.94194 0.40557 0.0
H321 H 0.81722 0.1205 0.34459 0.0
Cu322 Cu 0.30905 0.68012 0.91993 0.0
N323 N 0.32954 0.71574 -0.01067 0.0
N324 N 0.38262 0.75721 0.03119 0.0
C325 C 0.37363 0.71961 -0.0043 0.0
C326 C 0.34218 0.77853 0.04783 0.0
C327 C 0.30939 0.75271 0.02209 0.0
O328 O 0.36058 0.63487 0.90092 0.0
C329 C 0.262 0.75509 0.85541 0.0
O330 O 0.2334 0.74959 0.90334 0.0
H331 H 0.39863 0.69887 0.96714 0.0
H332 H 0.27374 0.76277 0.02183 0.0
N333 N 0.25795 0.6492 0.94005 0.0
N334 N 0.19259 0.61763 0.92992 0.0
C335 C 0.22125 0.64543 0.90184 0.0
C336 C 0.25193 0.623 -0.00605 0.0
C337 C 0.21205 0.6033 -0.01247 0.0
C338 C 0.37743 0.61091 0.94979 0.0
O339 O 0.35608 0.61353 0.00663 0.0
H340 H 0.21592 0.66217 0.85403 0.0
H341 H 0.2747 0.61864 0.03555 0.0
O342 O 0.29649 0.72593 0.84974 0.0
H343 H 0.33661 0.81193 0.07257 0.0
H344 H 0.19774 0.58126 0.02338 0.0
Cu345 Cu 0.64488 0.05993 0.6589 0.0
N346 N 0.62989 0.06665 0.74807 0.0
N347 N 0.6068 0.11812 0.82659 0.0
C348 C 0.59928 0.10156 0.76551 0.0
C349 C 0.64319 0.09185 0.84931 0.0
C350 C 0.65708 0.05966 0.8011 0.0
O351 O 0.67047 0.11931 0.6404 0.0
C352 C 0.5678 1.01877 0.62349 0.0
O353 O 0.58725 0.98601 0.66178 0.0
H354 H 0.5774 0.12015 0.7296 0.0
H355 H 0.68836 0.03781 0.80135 0.0
N356 N 0.68528 1.00646 0.64244 0.0
N357 N 0.71584 0.93943 0.59765 0.0
C358 C 0.68115 0.97305 0.59611 0.0
C359 C 0.72375 0.99275 0.67465 0.0
C360 C 0.74267 0.95189 0.64697 0.0
C361 C 0.70565 0.1279 0.67231 0.0
O362 O 0.72602 0.09507 0.70929 0.0
H363 H 0.65313 0.9732 0.56222 0.0
H364 H 0.73707 1.01026 0.71654 0.0
O365 O 0.58828 0.05477 0.6121 0.0
H366 H 0.66161 0.09924 0.89378 0.0
H367 H 0.77303 0.93192 0.6635 0.0
H368 H 0.59961 1.01923 0.90927 0.0
H369 H 0.56751 0.9188 0.76224 0.0
H370 H 0.48971 0.95435 0.75879 0.0
H371 H 0.42961 1.01226 0.80364 0.0
H372 H 0.46678 0.1131 0.94756 0.0
H373 H 0.54342 0.07936 0.94557 0.0
C374 C 0.57597 1.00551 0.87533 0.0
C375 C 0.58969 0.96685 0.8354 0.0
C376 C 0.53182 1.02617 0.8734 0.0
C377 C 0.55811 0.94906 0.79285 0.0
C378 C 0.51353 0.96926 0.79114 0.0
C379 C 0.45463 0.02714 0.83386 0.0
C380 C 0.44183 0.06537 0.87597 0.0
C381 C 0.49977 1.00764 0.83197 0.0
C382 C 0.47498 0.08403 0.91462 0.0
C383 C 0.51916 0.06453 0.91384 0.0
H384 H 0.77899 0.90442 0.30627 0.0
H385 H 0.88306 0.86188 0.16518 0.0
H386 H 0.85872 0.78334 0.16282 0.0
H387 H 0.8106 0.72594 0.20491 0.0
H388 H 0.70526 0.76848 0.34362 0.0
H389 H 0.72752 0.8479 0.3429 0.0
C390 C 0.79609 0.87816 0.27436 0.0
C391 C 0.83298 0.88915 0.2361 0.0
C392 C 0.78206 0.83292 0.27348 0.0
C393 C 0.85451 0.8546 0.19492 0.0
C394 C 0.84079 0.80953 0.19388 0.0
C395 C 0.79265 0.75232 0.23553 0.0
C396 C 0.75705 0.74063 0.27597 0.0
C397 C 0.80514 0.79811 0.23385 0.0
C398 C 0.73317 0.77611 0.31293 0.0
C399 C 0.74585 0.82164 0.31239 0.0
H400 H 0.09592 0.03184 0.43614 0.0
H401 H 0.08029 0.97556 0.63223 0.0
H402 H 1.00412 1.01414 0.63766 0.0
H403 H 0.94082 0.06051 0.58433 0.0
H404 H 0.95653 0.11664 0.38815 0.0
H405 H 0.03425 0.08215 0.38578 0.0
C406 C 0.07609 0.02829 0.48045 0.0
C407 C 0.09388 1.00049 0.53362 0.0
C408 C 0.0322 0.05024 0.48292 0.0
C409 C 0.06763 0.99668 0.59067 0.0
C410 C 1.0239 1.01848 0.59354 0.0
C411 C 0.96104 0.06484 0.54063 0.0
C412 C 0.94251 0.09066 0.486 0.0
C413 C 1.00557 0.04455 0.53941 0.0
C414 C 0.96954 0.09638 0.43036 0.0
C415 C 1.01411 0.07693 0.42925 0.0
H416 H 0.65848 0.21425 0.68113 0.0
H417 H 0.79219 0.14511 0.67212 0.0
H418 H 0.82365 0.21839 0.69509 0.0
H419 H 0.81364 0.30128 0.72281 0.0
H420 H 0.68093 0.37121 0.73987 0.0
H421 H 0.6486 0.29912 0.70851 0.0
C422 C 0.69447 0.21571 0.68223 0.0
C423 C 0.72301 0.17442 0.67345 0.0
C424 C 0.71252 0.25811 0.6977 0.0
C425 C 0.76956 0.17647 0.67761 0.0
C426 C 0.7876 0.21831 0.69139 0.0
C427 C 0.77769 0.30092 0.71902 0.0
C428 C 0.74988 0.34175 0.73328 0.0
C429 C 0.75947 0.25923 0.70221 0.0
C430 C 0.70317 0.34028 0.72952 0.0
C431 C 0.68469 0.29906 0.71123 0.0
H432 H 0.21882 0.246 0.72657 0.0
H433 H 0.34182 0.16782 0.78684 0.0
H434 H 0.38363 0.23431 0.75989 0.0
H435 H 0.38467 0.31581 0.72317 0.0
H436 H 0.26081 0.39461 0.66734 0.0
H437 H 0.22012 0.3264 0.68684 0.0
C438 C 0.25485 0.2432 0.73285 0.0
C439 C 0.27712 0.20184 0.75865 0.0
C440 C 0.27857 0.28169 0.71766 0.0
C441 C 0.32379 0.19926 0.76754 0.0
C442 C 0.34773 0.23724 0.75183 0.0
C443 C 0.34889 0.31795 0.71435 0.0
C444 C 0.32592 0.36046 0.69361 0.0
C445 C 0.32542 0.2788 0.72736 0.0
C446 C 0.27942 0.36247 0.6831 0.0
C447 C 0.25605 0.32346 0.69451 0.0
H448 H 0.22711 0.86086 0.19075 0.0
H449 H 0.36145 0.80323 0.23522 0.0
H450 H 0.34153 0.72488 0.20853 0.0
H451 H 0.28545 0.67258 0.17501 0.0
H452 H 0.15131 0.72985 0.1265 0.0
H453 H 0.17163 0.8084 0.15065 0.0
C454 C 0.25179 0.83098 0.19451 0.0
C455 C 0.29558 0.83754 0.21516 0.0
C456 C 0.24023 0.7861 0.17772 0.0
C457 C 0.32761 0.79883 0.21928 0.0
C458 C 0.31618 0.75411 0.2042 0.0
C459 C 0.26073 0.70227 0.16914 0.0
C460 C 0.21689 0.69522 0.14911 0.0
C461 C 0.27259 0.7473 0.18344 0.0
C462 C 0.18541 0.73421 0.14127 0.0
C463 C 0.1969 0.77916 0.15568 0.0
H464 H 1.0141 0.61416 0.415 0.0
H465 H 0.94132 0.50086 0.34759 0.0
H466 H 1.01204 0.45112 0.33594 0.0
H467 H 0.09511 0.43906 0.35102 0.0
H468 H 0.16544 0.55524 0.41552 0.0
H469 H 0.09539 0.60491 0.41926 0.0
C470 C 1.01349 0.57886 0.39658 0.0
C471 C 0.97231 0.56168 0.38115 0.0
C472 C 0.05409 0.55081 0.3896 0.0
C473 C 0.9725 0.51531 0.35901 0.0
C474 C 1.013 0.48684 0.3524 0.0
C475 C 0.09509 0.47547 0.36475 0.0
C476 C 0.13562 0.49323 0.38348 0.0
C477 C 0.05413 0.50412 0.36805 0.0
C478 C 0.13486 0.54042 0.40161 0.0
C479 C 0.09469 0.56884 0.40452 0.0
H480 H 0.42789 0.57818 0.05476 0.0
H481 H 0.43305 0.5954 0.84212 0.0
H482 H 0.51165 0.56348 0.84249 0.0
H483 H 0.57797 0.52881 0.90271 0.0
H484 H 0.5731 0.51324 0.11565 0.0
H485 H 0.49503 0.54677 0.11551 0.0
C486 C 0.44592 0.57455 0.00819 0.0
C487 C 0.42423 0.5887 0.94825 0.0
C488 C 0.49115 0.55659 0.00891 0.0
C489 C 0.44862 0.58442 0.8888 0.0
C490 C 0.49362 0.56628 0.88908 0.0
C491 C 0.56005 0.53299 0.94933 0.0
C492 C 0.58153 0.51829 0.00923 0.0
C493 C 0.51513 0.55206 0.94878 0.0
C494 C 0.5576 0.52424 0.06893 0.0
C495 C 0.51284 0.54317 0.06878 0.0
H496 H 0.19104 0.41084 0.02698 0.0
H497 H 0.31269 0.44423 0.12239 0.0
H498 H 0.35539 0.38132 0.06199 0.0
H499 H 0.35725 0.31304 -0.01029 0.0
H500 H 0.2351 0.27347 0.90206 0.0
H501 H 0.19351 0.34284 0.95037 0.0
C502 C 0.22695 0.40444 0.03378 0.0
C503 C 0.24876 0.43188 0.07928 0.0
C504 C 0.2511 0.36712 0.00022 0.0
C505 C 0.29522 0.42315 0.08828 0.0
C506 C 0.31961 0.38731 0.05359 0.0
C507 C 0.32168 0.32004 -0.0201 0.0
C508 C 0.29931 0.28829 0.94199 0.0
C509 C 0.29782 0.35856 0.01039 0.0
C510 C 0.25306 0.29751 0.93088 0.0
C511 C 0.22928 0.33699 0.95886 0.0
H512 H 0.38191 0.5099 0.51747 0.0
H513 H 0.4025 0.41527 0.35187 0.0
H514 H 0.47429 0.44529 0.3287 0.0
H515 H 0.53058 0.49835 0.35461 0.0
H516 H 0.50845 0.59643 0.51651 0.0
H517 H 0.43888 0.5638 0.54317 0.0
C518 C 0.4022 0.49563 0.47655 0.0
C519 C 0.38655 0.46043 0.43626 0.0
C520 C 0.44344 0.51338 0.4631 0.0
C521 C 0.41323 0.44278 0.38303 0.0
C522 C 0.45451 0.45974 0.37005 0.0
C523 C 0.51071 0.51331 0.39535 0.0
C524 C 0.52536 0.55067 0.43257 0.0
C525 C 0.46982 0.49523 0.40949 0.0
C526 C 0.49877 0.56799 0.48636 0.0
C527 C 0.45854 0.54939 0.50169 0.0
H528 H 0.33731 0.7792 0.60937 0.0
H529 H 0.20062 0.77376 0.67159 0.0
H530 H 0.22035 0.69692 0.72184 0.0
H531 H 0.27632 0.62934 0.74233 0.0
H532 H 0.41172 0.63462 0.67338 0.0
H533 H 0.39281 0.71341 0.6314 0.0
C534 C 0.31195 0.76136 0.63461 0.0
C535 C 0.26778 0.78224 0.63774 0.0
C536 C 0.32334 0.71702 0.66165 0.0
C537 C 0.23506 0.75867 0.66978 0.0
C538 C 0.24626 0.71459 0.69783 0.0
C539 C 0.30164 0.64799 0.71853 0.0
C540 C 0.3453 0.62605 0.71041 0.0
C541 C 0.29026 0.69317 0.69341 0.0
C542 C 0.37778 0.65046 0.6792 0.0
C543 C 0.36704 0.69559 0.65553 0.0
H544 H 0.99289 0.60948 0.83792 0.0
H545 H 1.02143 0.46619 0.89715 0.0
H546 H 0.09846 0.48077 0.92558 0.0
H547 H 0.1571 0.53528 0.93664 0.0
H548 H 0.12968 0.67742 0.87175 0.0
H549 H 0.053 0.66252 0.84192 0.0
C550 C 1.016 0.58153 0.85717 0.0
C551 C 1.00137 0.53688 0.86615 0.0
C552 C 0.06043 0.59006 0.87218 0.0
C553 C 0.03199 0.50072 0.88964 0.0
C554 C 0.07595 0.50912 0.90602 0.0
C555 C 0.13427 0.56286 0.91583 0.0
C556 C 0.1489 0.60751 0.90682 0.0
C557 C 0.09045 0.55376 0.89801 0.0
C558 C 0.11928 0.64278 0.87873 0.0
C559 C 0.07538 0.6343 0.86211 0.0
H560 H 0.86158 0.61358 0.68076 0.0
H561 H 0.72415 0.58125 0.68021 0.0
H562 H 0.69889 0.66276 0.70035 0.0
H563 H 0.71601 0.74165 0.73164 0.0
H564 H 0.85368 0.77266 0.7424 0.0
H565 H 0.87852 0.69409 0.70327 0.0
C566 C 0.82607 0.62455 0.68292 0.0
C567 C 0.7948 0.59122 0.67645 0.0
C568 C 0.81176 0.67152 0.69715 0.0
C569 C 0.74898 0.60612 0.68253 0.0
C570 C 0.73445 0.65283 0.69488 0.0
C571 C 0.75136 0.73157 0.72393 0.0
C572 C 0.78292 0.76296 0.74017 0.0
C573 C 0.76555 0.68568 0.70389 0.0
C574 C 0.82868 0.74909 0.73062 0.0
C575 C 0.84295 0.70406 0.70853 0.0
H576 H 0.55006 0.57004 0.65817 0.0
H577 H 0.53907 0.43333 0.57553 0.0
H578 H 0.61075 0.43657 0.5188 0.0
H579 H 0.67858 0.47599 0.499 0.0
H580 H 0.68585 0.61571 0.57434 0.0
H581 H 0.61429 0.61268 0.62869 0.0
C582 C 0.56319 0.54092 0.62761 0.0
C583 C 0.53934 0.50117 0.62209 0.0
C584 C 0.60436 0.54307 0.59489 0.0
C585 C 0.55667 0.46426 0.58113 0.0
C586 C 0.59782 0.46604 0.54881 0.0
C587 C 0.66491 0.50607 0.52691 0.0
C588 C 0.68969 0.54525 0.53458 0.0
C589 C 0.62238 0.50495 0.5563 0.0
C590 C 0.66952 0.58405 0.56961 0.0
C591 C 0.628 0.5826 0.60053 0.0
H592 H 0.69517 0.30147 0.36113 0.0
H593 H 0.83804 0.30294 0.34094 0.0
H594 H 0.82764 0.38266 0.29758 0.0
H595 H 0.77793 0.45536 0.2799 0.0
H596 H 0.63495 0.45139 0.29112 0.0
H597 H 0.64513 0.36894 0.3224 0.0
C598 C 0.72395 0.31902 0.34609 0.0
C599 C 0.76733 0.29665 0.35491 0.0
C600 C 0.71763 0.36441 0.31997 0.0
C601 C 0.80434 0.31941 0.33447 0.0
C602 C 0.7984 0.36509 0.31009 0.0
C603 C 0.74909 0.43589 0.28715 0.0
C604 C 0.70577 0.45915 0.28326 0.0
C605 C 0.75526 0.38841 0.30452 0.0
C606 C 0.66854 0.43392 0.29301 0.0
C607 C 0.6744 0.38699 0.31173 0.0
H608 H 1.02294 0.45956 0.07753 0.0
H609 H 1.01297 0.60587 0.02827 0.0
H610 H 0.93361 0.60379 0.00188 0.0
H611 H 0.86609 0.56045 -0.00462 0.0
H612 H 0.87671 0.4149 0.04787 0.0
H613 H 0.95665 0.41648 0.06982 0.0
C614 C 1.0036 0.49092 0.0602 0.0
C615 C 1.02399 0.53278 0.05491 0.0
C616 C 0.95795 0.48956 0.0456 0.0
C617 C 0.99828 0.57308 0.03254 0.0
C618 C 0.95277 0.57196 0.01771 0.0
C619 C 0.8861 0.52915 0.0113 0.0
C620 C 0.86555 0.48767 0.02023 0.0
C621 C 0.93213 0.53045 0.02444 0.0
C622 C 0.89168 0.44735 0.04141 0.0
C623 C 0.93743 0.44817 0.05356 0.0
H624 H 0.71293 0.74148 0.46841 0.0
H625 H 0.85522 0.7535 0.46039 0.0
H626 H 0.84353 0.83282 0.50376 0.0
H627 H 0.79353 0.89661 0.55275 0.0
H628 H 0.65132 0.88593 0.55762 0.0
H629 H 0.6622 0.80873 0.50568 0.0
C630 C 0.74137 0.76165 0.47506 0.0
C631 C 0.78496 0.74118 0.46135 0.0
C632 C 0.73442 0.80751 0.49988 0.0
C633 C 0.82131 0.76808 0.47051 0.0
C634 C 0.81468 0.81352 0.49556 0.0
C635 C 0.76495 0.87744 0.54194 0.0
C636 C 0.72172 0.8967 0.55973 0.0
C637 C 0.77151 0.83319 0.51187 0.0
C638 C 0.68486 0.87192 0.54432 0.0
C639 C 0.69114 0.82766 0.515 0.0
H640 H 0.87481 0.96436 -0.02532 0.0
H641 H 0.84206 0.97714 0.76627 0.0
H642 H 0.91219 1.01166 0.74628 0.0
H643 H 0.98241 0.03947 0.78842 0.0
H644 H 1.01295 0.02809 -0.00253 0.0
H645 H 0.94345 0.99308 0.01681 0.0
C646 C 0.88235 0.97511 0.92485 0.0
C647 C 0.85252 0.96802 0.8722 0.0
C648 C 0.92248 0.99554 0.9138 0.0
C649 C 0.86416 0.98154 0.80786 0.0
C650 C 0.9043 1.00161 0.7964 0.0
C651 C 0.97421 0.02903 0.83818 0.0
C652 C 1.00357 0.03636 0.89145 0.0
C653 C 0.93376 1.00881 0.84903 0.0
C654 C 0.99137 1.02324 0.95561 0.0
C655 C 0.95152 1.00296 0.96667 0.0
H656 H 0.77197 0.17005 0.2577 0.0
H657 H 0.90764 0.17487 0.19008 0.0
H658 H 0.88891 0.25345 0.14676 0.0
H659 H 0.83341 0.31893 0.12305 0.0
H660 H 0.69636 0.31378 0.18352 0.0
H661 H 0.71588 0.23723 0.23492 0.0
C662 C 0.79731 0.18854 0.23365 0.0
C663 C 0.84108 0.16671 0.2266 0.0
C664 C 0.78601 0.23351 0.20777 0.0
C665 C 0.87366 0.19079 0.19517 0.0
C666 C 0.86302 0.23576 0.17082 0.0
C667 C 0.80801 0.30142 0.14873 0.0
C668 C 0.76374 0.32215 0.15069 0.0
C669 C 0.81929 0.25725 0.17636 0.0
C670 C 0.73089 0.29889 0.18284 0.0
C671 C 0.74195 0.25487 0.21126 0.0
H672 H 0.509 0.10773 0.38807 0.0
H673 H 0.54327 0.96051 0.41539 0.0
H674 H 0.61931 0.97508 0.44915 0.0
H675 H 0.67652 0.03009 0.46914 0.0
H676 H 0.64296 0.17696 0.43645 0.0
H677 H 0.56636 0.16244 0.40639 0.0
C678 C 0.53304 0.07896 0.40213 0.0
C679 C 0.52057 0.03307 0.39958 0.0
C680 C 0.57688 0.08766 0.42022 0.0
C681 C 0.55227 0.99603 0.41675 0.0
C682 C 0.59563 1.00443 0.43622 0.0
C683 C 0.65229 0.05886 0.45585 0.0
C684 C 0.66539 0.10459 0.45517 0.0
C685 C 0.60843 0.0501 0.43783 0.0
C686 C 0.63385 0.14147 0.43669 0.0
C687 C 0.58998 0.13318 0.41991 0.0
H688 H 0.39163 0.12092 0.23202 0.0
H689 H 0.25796 0.10189 0.16464 0.0
H690 H 0.2317 0.18006 0.20349 0.0
H691 H 0.24515 0.25113 0.26754 0.0
H692 H 0.37844 0.26708 0.33952 0.0
H693 H 0.40614 0.19342 0.28805 0.0
C694 C 0.35692 0.13408 0.22457 0.0
C695 C 0.32694 0.10533 0.19504 0.0
C696 C 0.34167 0.17854 0.24916 0.0
C697 C 0.28195 0.12318 0.18664 0.0
C698 C 0.26676 0.16786 0.2095 0.0
C699 C 0.28037 0.23883 0.27089 0.0
C700 C 0.30957 0.26459 0.30779 0.0
C701 C 0.29607 0.1955 0.24237 0.0
C702 C 0.35509 0.24788 0.31199 0.0
C703 C 0.37102 0.2056 0.28268 0.0
H704 H 0.04368 0.11077 0.17385 0.0
H705 H 0.04017 0.96729 0.11413 0.0
H706 H 0.11239 0.96929 0.05846 0.0
H707 H 0.17815 1.01109 0.03047 0.0
H708 H 0.18129 0.15423 0.09221 0.0
H709 H 0.10763 0.15315 0.14244 0.0
C710 C 0.05855 0.07994 0.1484 0.0
C711 C 0.03642 0.03892 0.14836 0.0
C712 C 0.10022 0.08124 0.11686 0.0
C713 C 0.05628 0.9994 0.11488 0.0
C714 C 0.09773 1.00046 0.08322 0.0
C715 C 0.1628 0.04199 0.0551 0.0
C716 C 0.18558 0.08265 0.05752 0.0
C717 C 0.12032 0.04103 0.08461 0.0
C718 C 0.1646 0.12261 0.08868 0.0
C719 C 0.12248 0.12193 0.11797 0.0
H720 H 0.18464 0.80538 0.82185 0.0
H721 H 0.32784 0.80207 0.8003 0.0
H722 H 0.31928 0.87922 0.74816 0.0
H723 H 0.27118 0.95054 0.7186 0.0
H724 H 0.12761 0.95147 0.73603 0.0
H725 H 0.13626 0.87194 0.77812 0.0
C726 C 0.21394 0.82143 0.80521 0.0
C727 C 0.25681 0.7984 0.81562 0.0
C728 C 0.20871 0.86538 0.77457 0.0
C729 C 0.29448 0.81917 0.79292 0.0
C730 C 0.2896 0.86337 0.76342 0.0
C731 C 0.24171 0.93311 0.73049 0.0
C732 C 0.19881 0.95744 0.72485 0.0
C733 C 0.24689 0.88726 0.75539 0.0
C734 C 0.16105 0.93391 0.73989 0.0
C735 C 0.16595 0.88844 0.76461 0.0
H736 H 0.36819 0.03129 0.51365 0.0
H737 H 0.38021 0.88904 0.58206 0.0
H738 H 0.45743 0.89605 0.61689 0.0
H739 H 0.52154 0.94226 0.6278 0.0
H740 H 0.50945 0.08605 0.56539 0.0
H741 H 0.43181 0.07956 0.53178 0.0
C742 C 0.38788 1.00194 0.53612 0.0
C743 C 0.3686 0.9596 0.54501 0.0
C744 C 0.43217 1.00655 0.55734 0.0
C745 C 0.39422 0.92198 0.575 0.0
C746 C 0.43843 0.92593 0.59464 0.0
C747 C 0.50222 0.9721 0.60588 0.0
C748 C 0.52164 1.01447 0.59847 0.0
C749 C 0.45781 0.96795 0.58584 0.0
C750 C 0.49571 0.05282 0.5708 0.0
C751 C 0.45131 0.04904 0.55119 0.0
H752 H 0.49823 0.18588 0.0593 0.0
H753 H 0.41253 0.31276 0.09066 0.0
H754 H 0.4737 0.35883 0.06211 0.0
H755 H 0.54952 0.36319 0.02064 0.0
H756 H 0.63709 0.23731 -0.00808 0.0
H757 H 0.57685 0.19057 0.02533 0.0
C758 C 0.49325 0.22363 0.06081 0.0
C759 C 0.45078 0.24575 0.07723 0.0
C760 C 0.52864 0.25001 0.04379 0.0
C761 C 0.44482 0.29472 0.07915 0.0
C762 C 0.47973 0.32114 0.06213 0.0
C763 C 0.55581 0.32556 0.02278 0.0
C764 C 0.59775 0.30385 0.0033 0.0
C765 C 0.52147 0.29914 0.04332 0.0
C766 C 0.60498 0.25495 0.00554 0.0
C767 C 0.57066 0.22824 0.02527 0.0
H768 H 0.44589 0.80893 0.21338 0.0
H769 H 0.54035 0.90789 0.16766 0.0
H770 H 0.59825 0.8436 0.14525 0.0
H771 H 0.62344 0.75937 0.1509 0.0
H772 H 0.52714 0.66126 0.19451 0.0
H773 H 0.46823 0.72519 0.20459 0.0
C774 C 0.47902 0.81633 0.19749 0.0
C775 C 0.48921 0.86282 0.19274 0.0
C776 C 0.51178 0.7794 0.18502 0.0
C777 C 0.53188 0.87225 0.17137 0.0
C778 C 0.56501 0.83553 0.15932 0.0
C779 C 0.58943 0.75186 0.16141 0.0
C780 C 0.5799 0.70546 0.17265 0.0
C781 C 0.5556 0.78895 0.16767 0.0
C782 C 0.53554 0.69653 0.18609 0.0
C783 C 0.50183 0.7331 0.19222 0.0
H784 H 0.12953 0.71436 0.49721 0.0
H785 H 0.04483 0.84275 0.52105 0.0
H786 H 0.9839 0.79954 0.55989 0.0
H787 H 0.95309 0.72497 0.58161 0.0
H788 H 0.03785 0.59651 0.5587 0.0
H789 H 0.10042 0.64009 0.52784 0.0
C790 C 0.09768 0.73287 0.51035 0.0
C791 C 0.09174 0.78184 0.5052 0.0
C792 C 0.06271 0.70777 0.53354 0.0
C793 C 0.05048 0.80517 0.52452 0.0
C794 C 1.01553 0.78046 0.54679 0.0
C795 C 0.98532 0.7065 0.57013 0.0
C796 C 0.99034 0.65743 0.57228 0.0
C797 C 1.02106 0.73171 0.55074 0.0
C798 C 0.03271 0.63417 0.55831 0.0
C799 C 0.06848 0.65907 0.5394 0.0
H800 H 1.01411 0.18654 0.72237 0.0
H801 H 0.13072 0.26251 0.71085 0.0
H802 H 0.08326 0.33603 0.69912 0.0
H803 H 1.00834 0.37938 0.70688 0.0
H804 H 0.89262 0.30328 0.73041 0.0
H805 H 0.93927 0.22929 0.72246 0.0
C806 C 0.02886 0.21914 0.7151 0.0
C807 C 0.07549 0.21945 0.71581 0.0
C808 C 1.00139 0.26131 0.71212 0.0
C809 C 0.09468 0.26178 0.70905 0.0
C810 C 0.06761 0.30375 0.70322 0.0
C811 C 0.9935 0.34648 0.70834 0.0
C812 C 0.94726 0.34633 0.71786 0.0
C813 C 1.0209 0.30411 0.70664 0.0
C814 C 0.92818 0.3038 0.72197 0.0
C815 C 0.95487 0.2616 0.71815 0.0
H816 H 0.46196 0.70628 0.0358 0.0
H817 H 0.40127 0.84794 0.03126 0.0
H818 H 0.47482 0.8761 0.01315 0.0
H819 H 0.55564 0.85943 -0.01196 0.0
H820 H 0.61517 0.71739 -0.00794 0.0
H821 H 0.54255 0.69007 0.01854 0.0
C822 C 0.46483 0.74337 0.03096 0.0
C823 C 0.42605 0.77486 0.03373 0.0
C824 C 0.50685 0.75904 0.01872 0.0
C825 C 0.43048 0.82291 0.02942 0.0
C826 C 0.47248 0.83896 0.01815 0.0
C827 C 0.55252 0.82257 -0.00498 0.0
C828 C 0.59054 0.79038 -0.01196 0.0
C829 C 0.51069 0.80722 0.0109 0.0
C830 C 0.58642 0.74274 -0.0023 0.0
C831 C 0.54491 0.72714 0.01249 0.0
H832 H 0.52523 0.15396 0.86395 0.0
H833 H 0.65862 0.18849 0.82246 0.0
H834 H 0.63359 0.27164 0.83004 0.0
H835 H 0.57334 0.33415 0.845 0.0
H836 H 0.44 0.30023 0.89035 0.0
H837 H 0.46568 0.21681 0.88918 0.0
C838 C 0.54897 0.17976 0.85969 0.0
C839 C 0.5938 0.16549 0.84481 0.0
C840 C 0.53447 0.22734 0.86564 0.0
C841 C 0.62424 0.19905 0.83606 0.0
C842 C 0.6099 0.24641 0.8399 0.0
C843 C 0.55022 0.3085 0.85619 0.0
C844 C 0.50503 0.32303 0.86844 0.0
C845 C 0.5651 0.26095 0.85447 0.0
C846 C 0.47504 0.28952 0.88131 0.0
C847 C 0.48963 0.24201 0.88018 0.0
H848 H 0.07221 0.36777 0.52415 0.0
H849 H 0.13223 0.22638 0.54131 0.0
H850 H 0.05835 0.19856 0.55485 0.0
H851 H 0.97719 0.21422 0.56108 0.0
H852 H 0.91566 0.35519 0.54723 0.0
H853 H 0.9897 0.38382 0.53464 0.0
C854 C 0.06887 0.33094 0.53102 0.0
C855 C 0.10746 0.29908 0.53182 0.0
C856 C 0.02622 0.3153 0.5395 0.0
C857 C 0.10302 0.25148 0.5412 0.0
C858 C 0.06082 0.23558 0.5484 0.0
C859 C 0.97994 0.25122 0.55485 0.0
C860 C 0.94101 0.2825 0.55464 0.0
C861 C 1.0223 0.26715 0.54752 0.0
C862 C 0.94513 0.33046 0.54814 0.0
C863 C 0.98741 0.34672 0.54033 0.0
H864 H 0.06553 0.86745 0.3464 0.0
H865 H 0.93552 0.8381 0.41595 0.0
H866 H 0.95646 0.75419 0.40328 0.0
H867 H 1.00881 0.6908 0.36094 0.0
H868 H 0.13614 0.7225 0.28095 0.0
H869 H 0.11954 0.80351 0.31063 0.0
C870 C 0.04231 0.84259 0.36056 0.0
C871 C 0.99924 0.85866 0.38271 0.0
C872 C 0.05388 0.79485 0.35033 0.0
C873 C 0.96895 0.82621 0.39926 0.0
C874 C 0.98079 0.77844 0.39143 0.0
C875 C 0.03313 0.71516 0.35009 0.0
C876 C 0.07323 0.6999 0.31702 0.0
C877 C 1.02277 0.76249 0.36522 0.0
C878 C 0.10478 0.73233 0.30568 0.0
C879 C 0.09521 0.7792 0.32226 0.0
loop_
_geom_bond_atom_site_label_1
_geom_bond_atom_site_label_2
_geom_bond_distance
_geom_bond_site_symmetry_2
_ccdc_geom_bond_type
Cu0 N1 1.999 . S
Cu0 O6 1.974 . S
Cu0 N11 1.985 . S
Cu0 O20 1.959 . S
N1 Cu0 1.999 . S
N1 C3 1.263 1_554 S
N1 C5 1.389 . S
N2 C3 1.358 . S
N2 C4 1.400 1_556 S
C3 N1 1.263 1_556 S
C3 N2 1.358 . S
C3 H9 0.930 . S
C4 N2 1.400 1_554 S
C4 C5 1.351 . S
C4 H21 0.930 . S
C5 N1 1.389 . S
C5 C4 1.351 . S
C5 H10 0.930 . S
O6 Cu0 1.974 . S
O6 C16 1.282 1_554 S
C7 O8 1.261 1_554 S
C7 O20 1.251 . S
O8 C7 1.261 1_556 S
H9 C3 0.930 . S
H10 C5 0.930 . S
N11 Cu0 1.985 . S
N11 C13 1.335 . S
N11 C14 1.390 . S
N12 C13 1.345 . S
N12 C15 1.336 . S
C13 N11 1.335 . S
C13 N12 1.345 . S
C13 H18 0.930 . S
C14 N11 1.390 . S
C14 C15 1.346 . S
C14 H19 0.930 1_554 S
C15 N12 1.336 . S
C15 C14 1.346 . S
C15 H22 0.925 1_554 S
C16 O6 1.282 1_556 S
C16 O17 1.216 . S
O17 C16 1.216 . S
H18 C13 0.930 . S
H19 C14 0.930 1_556 S
O20 Cu0 1.959 . S
O20 C7 1.251 . S
H21 C4 0.930 . S
H22 C15 0.925 1_556 S
Cu23 N24 1.999 . S
Cu23 O29 1.974 . S
Cu23 N34 1.985 . S
Cu23 O43 1.959 . S
N24 Cu23 1.999 . S
N24 C26 1.263 . S
N24 C28 1.389 . S
N25 C26 1.358 . S
N25 C27 1.400 . S
C26 N24 1.263 . S
C26 N25 1.358 . S
C26 H32 0.930 . S
C27 N25 1.400 . S
C27 C28 1.351 . S
C27 H44 0.930 . S
C28 N24 1.389 . S
C28 C27 1.351 . S
C28 H33 0.930 . S
O29 Cu23 1.974 . S
O29 C39 1.282 . S
C30 O31 1.261 . S
C30 O43 1.251 . S
O31 C30 1.261 . S
H32 C26 0.930 . S
H33 C28 0.930 . S
N34 Cu23 1.985 . S
N34 C36 1.335 . S
N34 C37 1.390 . S
N35 C36 1.345 . S
N35 C38 1.336 . S
C36 N34 1.335 . S
C36 N35 1.345 . S
C36 H41 0.930 . S
C37 N34 1.390 . S
C37 C38 1.346 . S
C37 H42 0.930 . S
C38 N35 1.336 . S
C38 C37 1.346 . S
C38 H45 0.929 . S
C39 O29 1.282 . S
C39 O40 1.216 . S
O40 C39 1.216 . S
H41 C36 0.930 . S
H42 C37 0.930 . S
O43 Cu23 1.959 . S
O43 C30 1.251 . S
H44 C27 0.930 . S
H45 C38 0.929 . S
Cu46 N47 1.999 . S
Cu46 O52 1.974 . S
Cu46 N57 1.985 . S
Cu46 O66 1.959 . S
N47 Cu46 1.999 . S
N47 C49 1.263 . S
N47 C51 1.389 . S
N48 C49 1.358 . S
N48 C50 1.400 . S
C49 N47 1.263 . S
C49 N48 1.358 . S
C49 H55 0.930 . S
C50 N48 1.400 . S
C50 C51 1.351 . S
C50 H67 0.930 . S
C51 N47 1.389 . S
C51 C50 1.351 . S
C51 H56 0.930 . S
O52 Cu46 1.974 . S
O52 C62 1.282 . S
C53 O54 1.261 . S
C53 O66 1.251 . S
O54 C53 1.261 . S
H55 C49 0.930 . S
H56 C51 0.930 . S
N57 Cu46 1.985 . S
N57 C59 1.335 . S
N57 C60 1.390 . S
N58 C59 1.345 . S
N58 C61 1.336 . S
C59 N57 1.335 . S
C59 N58 1.345 . S
C59 H64 0.930 . S
C60 N57 1.390 . S
C60 C61 1.346 . S
C60 H65 0.930 . S
C61 N58 1.336 . S
C61 C60 1.346 . S
C61 H68 0.929 . S
C62 O52 1.282 . S
C62 O63 1.216 . S
O63 C62 1.216 . S
H64 C59 0.930 . S
H65 C60 0.930 . S
O66 Cu46 1.959 . S
O66 C53 1.251 . S
H67 C50 0.930 . S
H68 C61 0.929 . S
Cu69 N70 1.999 . S
Cu69 O75 1.974 . S
Cu69 N80 1.985 . S
Cu69 O89 1.959 . S
N70 Cu69 1.999 . S
N70 C72 1.263 . S
N70 C74 1.389 . S
N71 C72 1.358 . S
N71 C73 1.400 1_655 S
C72 N70 1.263 . S
C72 N71 1.358 . S
C72 H78 0.930 . S
C73 N71 1.400 1_455 S
C73 C74 1.351 1_455 S
C73 H90 0.930 . S
C74 N70 1.389 . S
C74 C73 1.351 1_655 S
C74 H79 0.930 . S
O75 Cu69 1.974 . S
O75 C85 1.282 . S
C76 O77 1.261 . S
C76 O89 1.251 . S
O77 C76 1.261 . S
H78 C72 0.930 . S
H79 C74 0.930 . S
N80 Cu69 1.985 . S
N80 C82 1.335 . S
N80 C83 1.390 . S
N81 C82 1.345 . S
N81 C84 1.336 . S
C82 N80 1.335 . S
C82 N81 1.345 . S
C82 H87 0.930 . S
C83 N80 1.390 . S
C83 C84 1.346 . S
C83 H88 0.930 . S
C84 N81 1.336 . S
C84 C83 1.346 . S
C84 H91 0.929 . S
C85 O75 1.282 . S
C85 O86 1.216 . S
O86 C85 1.216 . S
H87 C82 0.930 . S
H88 C83 0.930 . S
O89 Cu69 1.959 . S
O89 C76 1.251 . S
H90 C73 0.930 . S
H91 C84 0.929 . S
Cu92 N93 1.999 . S
Cu92 O98 1.974 . S
Cu92 N103 1.985 . S
Cu92 O112 1.959 . S
N93 Cu92 1.999 . S
N93 C95 1.263 1_556 S
N93 C97 1.389 . S
N94 C95 1.359 . S
N94 C96 1.397 1_554 S
C95 N93 1.263 1_554 S
C95 N94 1.359 . S
C95 H101 0.930 . S
C96 N94 1.397 1_556 S
C96 C97 1.351 . S
C96 H113 0.930 . S
C97 N93 1.389 . S
C97 C96 1.351 . S
C97 H102 0.930 . S
O98 Cu92 1.974 . S
O98 C108 1.282 1_556 S
C99 O100 1.261 1_556 S
C99 O112 1.251 . S
O100 C99 1.261 1_554 S
H101 C95 0.930 . S
H102 C97 0.930 . S
N103 Cu92 1.985 . S
N103 C105 1.335 . S
N103 C106 1.390 1_556 S
N104 C105 1.345 . S
N104 C107 1.336 . S
C105 N103 1.335 . S
C105 N104 1.345 . S
C105 H110 0.930 . S
C106 N103 1.390 1_554 S
C106 C107 1.346 1_554 S
C106 H111 0.930 . S
C107 N104 1.336 . S
C107 C106 1.346 1_556 S
C107 H114 0.929 1_556 S
C108 O98 1.282 1_554 S
C108 O109 1.216 . S
O109 C108 1.216 . S
H110 C105 0.930 . S
H111 C106 0.930 . S
O112 Cu92 1.959 . S
O112 C99 1.251 . S
H113 C96 0.930 . S
H114 C107 0.929 1_554 S
Cu115 N116 1.999 . S
Cu115 O121 1.974 . S
Cu115 N126 1.985 . S
Cu115 O135 1.959 . S
N116 Cu115 1.999 . S
N116 C118 1.263 . S
N116 C120 1.389 . S
N117 C118 1.358 . S
N117 C119 1.400 . S
C118 N116 1.263 . S
C118 N117 1.358 . S
C118 H124 0.930 . S
C119 N117 1.400 . S
C119 C120 1.351 . S
C119 H136 0.930 . S
C120 N116 1.389 . S
C120 C119 1.351 . S
C120 H125 0.930 . S
O121 Cu115 1.974 . S
O121 C131 1.282 . S
C122 O123 1.261 . S
C122 O135 1.251 . S
O123 C122 1.261 . S
H124 C118 0.930 . S
H125 C120 0.930 . S
N126 Cu115 1.985 . S
N126 C128 1.335 . S
N126 C129 1.390 . S
N127 C128 1.345 . S
N127 C130 1.336 . S
C128 N126 1.335 . S
C128 N127 1.345 . S
C128 H133 0.930 . S
C129 N126 1.390 . S
C129 C130 1.346 . S
C129 H134 0.930 . S
C130 N127 1.336 . S
C130 C129 1.346 . S
C130 H137 0.929 . S
C131 O121 1.282 . S
C131 O132 1.216 . S
O132 C131 1.216 . S
H133 C128 0.930 . S
H134 C129 0.930 . S
O135 Cu115 1.959 . S
O135 C122 1.251 . S
H136 C119 0.930 . S
H137 C130 0.929 . S
Cu138 N139 1.999 . S
Cu138 O144 1.974 . S
Cu138 N149 1.985 . S
Cu138 O158 1.959 . S
N139 Cu138 1.999 . S
N139 C141 1.263 . S
N139 C143 1.389 . S
N140 C141 1.358 . S
N140 C142 1.400 . S
C141 N139 1.263 . S
C141 N140 1.358 . S
C141 H147 0.930 . S
C142 N140 1.400 . S
C142 C143 1.351 . S
C142 H159 0.930 . S
C143 N139 1.389 . S
C143 C142 1.351 . S
C143 H148 0.930 . S
O144 Cu138 1.974 . S
O144 C154 1.282 . S
C145 O146 1.261 . S
C145 O158 1.251 . S
O146 C145 1.261 . S
H147 C141 0.930 . S
H148 C143 0.930 . S
N149 Cu138 1.985 . S
N149 C151 1.335 . S
N149 C152 1.390 . S
N150 C151 1.345 . S
N150 C153 1.336 . S
C151 N149 1.335 . S
C151 N150 1.345 . S
C151 H156 0.930 . S
C152 N149 1.390 . S
C152 C153 1.346 . S
C152 H157 0.930 . S
C153 N150 1.336 . S
C153 C152 1.346 . S
C153 H160 0.929 . S
C154 O144 1.282 . S
C154 O155 1.216 . S
O155 C154 1.216 . S
H156 C151 0.930 . S
H157 C152 0.930 . S
O158 Cu138 1.959 . S
O158 C145 1.251 . S
H159 C142 0.930 . S
H160 C153 0.929 . S
Cu161 N162 1.999 . S
Cu161 O167 1.974 . S
Cu161 N172 1.985 . S
Cu161 O181 1.959 . S
N162 Cu161 1.999 . S
N162 C164 1.263 . S
N162 C166 1.389 . S
N163 C164 1.358 . S
N163 C165 1.400 1_455 S
C164 N162 1.263 . S
C164 N163 1.358 . S
C164 H170 0.930 . S
C165 N163 1.400 1_655 S
C165 C166 1.351 1_655 S
C165 H182 0.930 . S
C166 N162 1.389 . S
C166 C165 1.351 1_455 S
C166 H171 0.930 . S
O167 Cu161 1.974 . S
O167 C177 1.282 . S
C168 O169 1.261 . S
C168 O181 1.251 . S
O169 C168 1.261 . S
H170 C164 0.930 . S
H171 C166 0.930 . S
N172 Cu161 1.985 . S
N172 C174 1.335 . S
N172 C175 1.390 . S
N173 C174 1.345 . S
N173 C176 1.336 . S
C174 N172 1.335 . S
C174 N173 1.345 . S
C174 H179 0.930 . S
C175 N172 1.390 . S
C175 C176 1.346 . S
C175 H180 0.930 . S
C176 N173 1.336 . S
C176 C175 1.346 . S
C176 H183 0.929 . S
C177 O167 1.282 . S
C177 O178 1.216 . S
O178 C177 1.216 . S
H179 C174 0.930 . S
H180 C175 0.930 . S
O181 Cu161 1.959 . S
O181 C168 1.251 . S
H182 C165 0.930 . S
H183 C176 0.929 . S
Cu184 N185 1.999 . S
Cu184 O190 1.974 . S
Cu184 N195 1.985 . S
Cu184 O204 1.959 . S
N185 Cu184 1.999 . S
N185 C187 1.263 . S
N185 C189 1.389 . S
N186 C187 1.358 . S
N186 C188 1.400 . S
C187 N185 1.263 . S
C187 N186 1.358 . S
C187 H193 0.930 . S
C188 N186 1.400 . S
C188 C189 1.351 . S
C188 H205 0.930 . S
C189 N185 1.389 . S
C189 C188 1.351 . S
C189 H194 0.930 . S
O190 Cu184 1.974 . S
O190 C200 1.282 . S
C191 O192 1.261 . S
C191 O204 1.251 . S
O192 C191 1.261 . S
H193 C187 0.930 . S
H194 C189 0.930 . S
N195 Cu184 1.985 . S
N195 C197 1.335 . S
N195 C198 1.390 . S
N196 C197 1.345 . S
N196 C199 1.336 . S
C197 N195 1.335 . S
C197 N196 1.345 . S
C197 H202 0.930 . S
C198 N195 1.390 . S
C198 C199 1.346 . S
C198 H203 0.930 . S
C199 N196 1.336 . S
C199 C198 1.346 . S
C199 H206 0.929 . S
C200 O190 1.282 . S
C200 O201 1.216 . S
O201 C200 1.216 . S
H202 C197 0.930 . S
H203 C198 0.930 . S
O204 Cu184 1.959 . S
O204 C191 1.251 . S
H205 C188 0.930 . S
H206 C199 0.929 . S
Cu207 N208 1.999 . S
Cu207 O213 1.974 . S
Cu207 N218 1.985 . S
Cu207 O227 1.959 . S
N208 Cu207 1.999 . S
N208 C210 1.263 . S
N208 C212 1.389 . S
N209 C210 1.358 1_565 S
N209 C211 1.400 1_465 S
C210 N208 1.263 . S
C210 N209 1.358 1_545 S
C210 H216 0.930 1_545 S
C211 N209 1.400 1_645 S
C211 C212 1.351 1_655 S
C211 H228 0.930 . S
C212 N208 1.389 . S
C212 C211 1.351 1_455 S
C212 H217 0.930 . S
O213 Cu207 1.974 . S
O213 C223 1.282 1_545 S
C214 O215 1.261 . S
C214 O227 1.251 . S
O215 C214 1.261 . S
H216 C210 0.930 1_565 S
H217 C212 0.930 . S
N218 Cu207 1.985 . S
N218 C220 1.335 . S
N218 C221 1.390 . S
N219 C220 1.345 . S
N219 C222 1.336 . S
C220 N218 1.335 . S
C220 N219 1.345 . S
C220 H225 0.930 . S
C221 N218 1.390 . S
C221 C222 1.346 . S
C221 H226 0.930 . S
C222 N219 1.336 . S
C222 C221 1.346 . S
C222 H229 0.929 . S
C223 O213 1.282 1_565 S
C223 O224 1.216 1_565 S
O224 C223 1.216 1_545 S
H225 C220 0.930 . S
H226 C221 0.930 . S
O227 Cu207 1.959 . S
O227 C214 1.251 . S
H228 C211 0.930 . S
H229 C222 0.929 . S
Cu230 N231 1.999 . S
Cu230 O236 1.974 . S
Cu230 N241 1.985 . S
Cu230 O250 1.959 . S
N231 Cu230 1.999 . S
N231 C233 1.263 1_554 S
N231 C235 1.389 . S
N232 C233 1.358 . S
N232 C234 1.400 1_556 S
C233 N231 1.263 1_556 S
C233 N232 1.358 . S
C233 H239 0.930 . S
C234 N232 1.400 1_554 S
C234 C235 1.351 . S
C234 H251 0.930 . S
C235 N231 1.389 . S
C235 C234 1.351 . S
C235 H240 0.930 . S
O236 Cu230 1.974 . S
O236 C246 1.282 1_554 S
C237 O238 1.261 1_554 S
C237 O250 1.251 . S
O238 C237 1.261 1_556 S
H239 C233 0.930 . S
H240 C235 0.930 . S
N241 Cu230 1.985 . S
N241 C243 1.335 . S
N241 C244 1.390 . S
N242 C243 1.345 . S
N242 C245 1.336 . S
C243 N241 1.335 . S
C243 N242 1.345 . S
C243 H248 0.930 . S
C244 N241 1.390 . S
C244 C245 1.346 . S
C244 H249 0.930 1_554 S
C245 N242 1.336 . S
C245 C244 1.346 . S
C245 H252 0.925 1_554 S
C246 O236 1.282 1_556 S
C246 O247 1.216 . S
O247 C246 1.216 . S
H248 C243 0.930 . S
H249 C244 0.930 1_556 S
O250 Cu230 1.959 . S
O250 C237 1.251 . S
H251 C234 0.930 . S
H252 C245 0.925 1_556 S
Cu253 N254 1.999 . S
Cu253 O259 1.974 . S
Cu253 N264 1.985 . S
Cu253 O273 1.959 . S
N254 Cu253 1.999 . S
N254 C256 1.263 . S
N254 C258 1.389 . S
N255 C256 1.358 1_545 S
N255 C257 1.400 1_545 S
C256 N254 1.263 . S
C256 N255 1.358 1_565 S
C256 H262 0.930 1_565 S
C257 N255 1.400 1_565 S
C257 C258 1.351 . S
C257 H274 0.930 . S
C258 N254 1.389 . S
C258 C257 1.351 . S
C258 H263 0.930 . S
O259 Cu253 1.974 . S
O259 C269 1.282 1_565 S
C260 O261 1.261 . S
C260 O273 1.251 . S
O261 C260 1.261 . S
H262 C256 0.930 1_545 S
H263 C258 0.930 . S
N264 Cu253 1.985 . S
N264 C266 1.335 . S
N264 C267 1.390 . S
N265 C266 1.345 . S
N265 C268 1.336 . S
C266 N264 1.335 . S
C266 N265 1.345 . S
C266 H271 0.930 . S
C267 N264 1.390 . S
C267 C268 1.346 . S
C267 H272 0.930 . S
C268 N265 1.336 . S
C268 C267 1.346 . S
C268 H275 0.929 . S
C269 O259 1.282 1_545 S
C269 O270 1.216 1_545 S
O270 C269 1.216 1_565 S
H271 C266 0.930 . S
H272 C267 0.930 . S
O273 Cu253 1.959 . S
O273 C260 1.251 . S
H274 C257 0.930 . S
H275 C268 0.929 . S
Cu276 N277 1.999 . S
Cu276 O282 1.974 . S
Cu276 N287 1.985 . S
Cu276 O296 1.959 . S
N277 Cu276 1.999 . S
N277 C279 1.263 . S
N277 C281 1.389 . S
N278 C279 1.358 . S
N278 C280 1.400 . S
C279 N277 1.263 . S
C279 N278 1.358 . S
C279 H285 0.930 . S
C280 N278 1.400 . S
C280 C281 1.351 . S
C280 H297 0.930 . S
C281 N277 1.389 . S
C281 C280 1.351 . S
C281 H286 0.930 . S
O282 Cu276 1.974 . S
O282 C292 1.282 . S
C283 O284 1.261 . S
C283 O296 1.251 . S
O284 C283 1.261 . S
H285 C279 0.930 . S
H286 C281 0.930 . S
N287 Cu276 1.985 . S
N287 C289 1.335 . S
N287 C290 1.390 . S
N288 C289 1.345 . S
N288 C291 1.336 . S
C289 N287 1.335 . S
C289 N288 1.345 . S
C289 H294 0.930 . S
C290 N287 1.390 . S
C290 C291 1.346 . S
C290 H295 0.930 . S
C291 N288 1.336 . S
C291 C290 1.346 . S
C291 H298 0.929 . S
C292 O282 1.282 . S
C292 O293 1.216 . S
O293 C292 1.216 . S
H294 C289 0.930 . S
H295 C290 0.930 . S
O296 Cu276 1.959 . S
O296 C283 1.251 . S
H297 C280 0.930 . S
H298 C291 0.929 . S
Cu299 N300 1.999 . S
Cu299 O305 1.974 . S
Cu299 N310 1.985 1_565 S
Cu299 O319 1.959 . S
N300 Cu299 1.999 . S
N300 C302 1.263 . S
N300 C304 1.389 . S
N301 C302 1.358 . S
N301 C303 1.400 1_655 S
C302 N300 1.263 . S
C302 N301 1.358 . S
C302 H308 0.930 . S
C303 N301 1.400 1_455 S
C303 C304 1.351 1_455 S
C303 H320 0.930 . S
C304 N300 1.389 . S
C304 C303 1.351 1_655 S
C304 H309 0.930 . S
O305 Cu299 1.974 . S
O305 C315 1.282 . S
C306 O307 1.261 . S
C306 O319 1.251 1_545 S
O307 C306 1.261 . S
H308 C302 0.930 . S
H309 C304 0.930 . S
N310 Cu299 1.985 1_545 S
N310 C312 1.335 . S
N310 C313 1.390 . S
N311 C312 1.345 . S
N311 C314 1.336 . S
C312 N310 1.335 . S
C312 N311 1.345 . S
C312 H317 0.930 . S
C313 N310 1.390 . S
C313 C314 1.346 . S
C313 H318 0.930 1_545 S
C314 N311 1.336 . S
C314 C313 1.346 . S
C314 H321 0.929 . S
C315 O305 1.282 . S
C315 O316 1.216 . S
O316 C315 1.216 . S
H317 C312 0.930 . S
H318 C313 0.930 1_565 S
O319 Cu299 1.959 . S
O319 C306 1.251 1_565 S
H320 C303 0.930 . S
H321 C314 0.929 . S
Cu322 N323 1.999 . S
Cu322 O328 1.974 . S
Cu322 N333 1.985 . S
Cu322 O342 1.959 . S
N323 Cu322 1.999 . S
N323 C325 1.263 1_556 S
N323 C327 1.389 . S
N324 C325 1.359 . S
N324 C326 1.397 1_554 S
C325 N323 1.263 1_554 S
C325 N324 1.359 . S
C325 H331 0.930 . S
C326 N324 1.397 1_556 S
C326 C327 1.351 . S
C326 H343 0.930 . S
C327 N323 1.389 . S
C327 C326 1.351 . S
C327 H332 0.930 . S
O328 Cu322 1.974 . S
O328 C338 1.282 1_556 S
C329 O330 1.261 1_556 S
C329 O342 1.251 . S
O330 C329 1.261 1_554 S
H331 C325 0.930 . S
H332 C327 0.930 . S
N333 Cu322 1.985 . S
N333 C335 1.335 . S
N333 C336 1.390 1_556 S
N334 C335 1.345 . S
N334 C337 1.336 . S
C335 N333 1.335 . S
C335 N334 1.345 . S
C335 H340 0.930 . S
C336 N333 1.390 1_554 S
C336 C337 1.346 1_554 S
C336 H341 0.930 . S
C337 N334 1.336 . S
C337 C336 1.346 1_556 S
C337 H344 0.929 1_556 S
C338 O328 1.282 1_554 S
C338 O339 1.216 . S
O339 C338 1.216 . S
H340 C335 0.930 . S
H341 C336 0.930 . S
O342 Cu322 1.959 . S
O342 C329 1.251 . S
H343 C326 0.930 . S
H344 C337 0.929 1_554 S
Cu345 N346 1.999 . S
Cu345 O351 1.974 . S
Cu345 N356 1.985 1_545 S
Cu345 O365 1.959 . S
N346 Cu345 1.999 . S
N346 C348 1.263 . S
N346 C350 1.389 . S
N347 C348 1.358 . S
N347 C349 1.400 . S
C348 N346 1.263 . S
C348 N347 1.358 . S
C348 H354 0.930 . S
C349 N347 1.400 . S
C349 C350 1.351 . S
C349 H366 0.930 . S
C350 N346 1.389 . S
C350 C349 1.351 . S
C350 H355 0.930 . S
O351 Cu345 1.974 . S
O351 C361 1.282 . S
C352 O353 1.261 . S
C352 O365 1.251 1_565 S
O353 C352 1.261 . S
H354 C348 0.930 . S
H355 C350 0.930 . S
N356 Cu345 1.985 1_565 S
N356 C358 1.335 . S
N356 C359 1.390 . S
N357 C358 1.345 . S
N357 C360 1.336 . S
C358 N356 1.335 . S
C358 N357 1.345 . S
C358 H363 0.930 . S
C359 N356 1.390 . S
C359 C360 1.346 . S
C359 H364 0.930 1_565 S
C360 N357 1.336 . S
C360 C359 1.346 . S
C360 H367 0.929 . S
C361 O351 1.282 . S
C361 O362 1.216 . S
O362 C361 1.216 . S
H363 C358 0.930 . S
H364 C359 0.930 1_545 S
O365 Cu345 1.959 . S
O365 C352 1.251 1_545 S
H366 C349 0.930 . S
H367 C360 0.929 . S
H368 C374 0.930 . S
H369 C377 0.930 . S
H370 C378 0.930 . S
H371 C379 0.930 . S
H372 C382 0.930 . S
H373 C383 0.930 . S
C374 H368 0.930 . S
C374 C375 1.355 . S
C374 C376 1.415 . S
C375 C374 1.355 . S
C375 C377 1.419 1_554 S
C376 C374 1.415 . S
C376 C381 1.425 1_554 S
C376 C383 1.409 1_565 S
C377 H369 0.930 . S
C377 C375 1.419 1_556 S
C377 C378 1.362 . S
C378 H370 0.930 . S
C378 C377 1.362 . S
C378 C381 1.409 . S
C379 H371 0.930 . S
C379 C380 1.355 1_565 S
C379 C381 1.415 . S
C380 C379 1.355 1_545 S
C380 C382 1.419 1_556 S
C381 C376 1.425 1_556 S
C381 C378 1.409 . S
C381 C379 1.415 . S
C382 H372 0.930 . S
C382 C380 1.419 1_554 S
C382 C383 1.362 . S
C383 H373 0.930 . S
C383 C376 1.409 1_545 S
C383 C382 1.362 . S
H384 C390 0.930 . S
H385 C393 0.930 . S
H386 C394 0.930 . S
H387 C395 0.930 . S
H388 C398 0.930 . S
H389 C399 0.930 . S
C390 H384 0.930 . S
C390 C391 1.355 . S
C390 C392 1.415 . S
C391 C390 1.355 . S
C391 C393 1.419 . S
C392 C390 1.415 . S
C392 C397 1.425 . S
C392 C399 1.409 . S
C393 H385 0.930 . S
C393 C391 1.419 . S
C393 C394 1.362 . S
C394 H386 0.930 . S
C394 C393 1.362 . S
C394 C397 1.409 . S
C395 H387 0.930 . S
C395 C396 1.355 . S
C395 C397 1.415 . S
C396 C395 1.355 . S
C396 C398 1.419 . S
C397 C392 1.425 . S
C397 C394 1.409 . S
C397 C395 1.415 . S
C398 H388 0.930 . S
C398 C396 1.419 . S
C398 C399 1.362 . S
C399 H389 0.930 . S
C399 C392 1.409 . S
C399 C398 1.362 . S
H400 C406 0.930 . S
H401 C409 0.930 . S
H402 C410 0.930 . S
H403 C411 0.930 . S
H404 C414 0.930 . S
H405 C415 0.930 . S
C406 H400 0.930 . S
C406 C407 1.355 . S
C406 C408 1.415 1_565 S
C407 C406 1.355 . S
C407 C409 1.419 1_565 S
C408 C406 1.415 1_545 S
C408 C413 1.425 1_455 S
C408 C415 1.409 1_445 S
C409 H401 0.930 . S
C409 C407 1.419 1_545 S
C409 C410 1.362 . S
C410 H402 0.930 . S
C410 C409 1.362 . S
C410 C413 1.409 1_455 S
C411 H403 0.930 . S
C411 C412 1.355 . S
C411 C413 1.415 . S
C412 C411 1.355 . S
C412 C414 1.419 . S
C413 C408 1.425 1_655 S
C413 C410 1.409 1_655 S
C413 C411 1.415 . S
C414 H404 0.930 . S
C414 C412 1.419 . S
C414 C415 1.362 1_545 S
C415 H405 0.930 . S
C415 C408 1.409 1_665 S
C415 C414 1.362 1_565 S
H416 C422 0.930 . S
H417 C425 0.930 . S
H418 C426 0.930 . S
H419 C427 0.930 . S
H420 C430 0.930 . S
H421 C431 0.930 . S
C422 H416 0.930 . S
C422 C423 1.355 . S
C422 C424 1.415 . S
C423 C422 1.355 . S
C423 C425 1.419 . S
C424 C422 1.415 . S
C424 C429 1.425 . S
C424 C431 1.409 . S
C425 H417 0.930 . S
C425 C423 1.419 . S
C425 C426 1.362 . S
C426 H418 0.930 . S
C426 C425 1.362 . S
C426 C429 1.409 . S
C427 H419 0.930 . S
C427 C428 1.355 . S
C427 C429 1.415 . S
C428 C427 1.355 . S
C428 C430 1.419 . S
C429 C424 1.425 . S
C429 C426 1.409 . S
C429 C427 1.415 . S
C430 H420 0.930 . S
C430 C428 1.419 . S
C430 C431 1.362 . S
C431 H421 0.930 . S
C431 C424 1.409 . S
C431 C430 1.362 . S
H432 C438 0.930 . S
H433 C441 0.930 . S
H434 C442 0.930 . S
H435 C443 0.930 . S
H436 C446 0.930 . S
H437 C447 0.930 . S
C438 H432 0.930 . S
C438 C439 1.355 . S
C438 C440 1.415 . S
C439 C438 1.355 . S
C439 C441 1.419 . S
C440 C438 1.415 . S
C440 C445 1.425 . S
C440 C447 1.409 . S
C441 H433 0.930 . S
C441 C439 1.419 . S
C441 C442 1.362 . S
C442 H434 0.930 . S
C442 C441 1.362 . S
C442 C445 1.409 . S
C443 H435 0.930 . S
C443 C444 1.355 . S
C443 C445 1.415 . S
C444 C443 1.355 . S
C444 C446 1.419 . S
C445 C440 1.425 . S
C445 C442 1.409 . S
C445 C443 1.415 . S
C446 H436 0.930 . S
C446 C444 1.419 . S
C446 C447 1.362 . S
C447 H437 0.930 . S
C447 C440 1.409 . S
C447 C446 1.362 . S
H448 C454 0.930 . S
H449 C457 0.930 . S
H450 C458 0.930 . S
H451 C459 0.930 . S
H452 C462 0.930 . S
H453 C463 0.930 . S
C454 H448 0.930 . S
C454 C455 1.355 . S
C454 C456 1.415 . S
C455 C454 1.355 . S
C455 C457 1.419 . S
C456 C454 1.415 . S
C456 C461 1.425 . S
C456 C463 1.409 . S
C457 H449 0.930 . S
C457 C455 1.419 . S
C457 C458 1.362 . S
C458 H450 0.930 . S
C458 C457 1.362 . S
C458 C461 1.409 . S
C459 H451 0.930 . S
C459 C460 1.355 . S
C459 C461 1.415 . S
C460 C459 1.355 . S
C460 C462 1.419 . S
C461 C456 1.425 . S
C461 C458 1.409 . S
C461 C459 1.415 . S
C462 H452 0.930 . S
C462 C460 1.419 . S
C462 C463 1.362 . S
C463 H453 0.930 . S
C463 C456 1.409 . S
C463 C462 1.362 . S
H464 C470 0.930 . S
H465 C473 0.930 . S
H466 C474 0.930 . S
H467 C475 0.930 . S
H468 C478 0.930 . S
H469 C479 0.930 . S
C470 H464 0.930 . S
C470 C471 1.355 . S
C470 C472 1.415 1_655 S
C471 C470 1.355 . S
C471 C473 1.419 . S
C472 C470 1.415 1_455 S
C472 C477 1.425 1_455 S
C472 C479 1.409 . S
C473 H465 0.930 . S
C473 C471 1.419 . S
C473 C474 1.362 . S
C474 H466 0.930 . S
C474 C473 1.362 . S
C474 C477 1.409 . S
C475 H467 0.930 . S
C475 C476 1.355 . S
C475 C477 1.415 1_455 S
C476 C475 1.355 . S
C476 C478 1.419 . S
C477 C472 1.425 1_655 S
C477 C474 1.409 . S
C477 C475 1.415 1_655 S
C478 H468 0.930 . S
C478 C476 1.419 . S
C478 C479 1.362 . S
C479 H469 0.930 . S
C479 C472 1.409 . S
C479 C478 1.362 . S
H480 C486 0.930 . S
H481 C489 0.930 . S
H482 C490 0.930 . S
H483 C491 0.930 . S
H484 C494 0.930 . S
H485 C495 0.930 . S
C486 H480 0.930 . S
C486 C487 1.355 1_556 S
C486 C488 1.415 . S
C487 C486 1.355 1_554 S
C487 C489 1.419 . S
C488 C486 1.415 . S
C488 C493 1.425 1_556 S
C488 C495 1.409 . S
C489 H481 0.930 . S
C489 C487 1.419 . S
C489 C490 1.362 . S
C490 H482 0.930 . S
C490 C489 1.362 . S
C490 C493 1.409 . S
C491 H483 0.930 . S
C491 C492 1.355 1_554 S
C491 C493 1.415 . S
C492 C491 1.355 1_556 S
C492 C494 1.419 . S
C493 C488 1.425 1_554 S
C493 C490 1.409 . S
C493 C491 1.415 . S
C494 H484 0.930 . S
C494 C492 1.419 . S
C494 C495 1.362 . S
C495 H485 0.930 . S
C495 C488 1.409 . S
C495 C494 1.362 . S
H496 C502 0.930 . S
H497 C505 0.930 . S
H498 C506 0.930 . S
H499 C507 0.930 . S
H500 C510 0.930 . S
H501 C511 0.930 . S
C502 H496 0.930 . S
C502 C503 1.355 . S
C502 C504 1.415 . S
C503 C502 1.355 . S
C503 C505 1.419 . S
C504 C502 1.415 . S
C504 C509 1.425 . S
C504 C511 1.409 . S
C505 H497 0.930 . S
C505 C503 1.419 . S
C505 C506 1.362 . S
C506 H498 0.930 . S
C506 C505 1.362 . S
C506 C509 1.409 . S
C507 H499 0.930 . S
C507 C508 1.355 . S
C507 C509 1.415 . S
C508 C507 1.355 . S
C508 C510 1.419 . S
C509 C504 1.425 . S
C509 C506 1.409 . S
C509 C507 1.415 . S
C510 H500 0.930 . S
C510 C508 1.419 . S
C510 C511 1.362 . S
C511 H501 0.930 . S
C511 C504 1.409 . S
C511 C510 1.362 . S
H512 C518 0.930 . S
H513 C521 0.930 . S
H514 C522 0.930 . S
H515 C523 0.930 . S
H516 C526 0.930 . S
H517 C527 0.930 . S
C518 H512 0.930 . S
C518 C519 1.355 . S
C518 C520 1.415 . S
C519 C518 1.355 . S
C519 C521 1.419 . S
C520 C518 1.415 . S
C520 C525 1.425 . S
C520 C527 1.409 . S
C521 H513 0.930 . S
C521 C519 1.419 . S
C521 C522 1.362 . S
C522 H514 0.930 . S
C522 C521 1.362 . S
C522 C525 1.409 . S
C523 H515 0.930 . S
C523 C524 1.355 . S
C523 C525 1.415 . S
C524 C523 1.355 . S
C524 C526 1.419 . S
C525 C520 1.425 . S
C525 C522 1.409 . S
C525 C523 1.415 . S
C526 H516 0.930 . S
C526 C524 1.419 . S
C526 C527 1.362 . S
C527 H517 0.930 . S
C527 C520 1.409 . S
C527 C526 1.362 . S
H528 C534 0.930 . S
H529 C537 0.930 . S
H530 C538 0.930 . S
H531 C539 0.930 . S
H532 C542 0.930 . S
H533 C543 0.930 . S
C534 H528 0.930 . S
C534 C535 1.355 . S
C534 C536 1.415 . S
C535 C534 1.355 . S
C535 C537 1.419 . S
C536 C534 1.415 . S
C536 C541 1.425 . S
C536 C543 1.409 . S
C537 H529 0.930 . S
C537 C535 1.419 . S
C537 C538 1.362 . S
C538 H530 0.930 . S
C538 C537 1.362 . S
C538 C541 1.409 . S
C539 H531 0.930 . S
C539 C540 1.355 . S
C539 C541 1.415 . S
C540 C539 1.355 . S
C540 C542 1.419 . S
C541 C536 1.425 . S
C541 C538 1.409 . S
C541 C539 1.415 . S
C542 H532 0.930 . S
C542 C540 1.419 . S
C542 C543 1.362 . S
C543 H533 0.930 . S
C543 C536 1.409 . S
C543 C542 1.362 . S
H544 C550 0.930 . S
H545 C553 0.930 . S
H546 C554 0.930 . S
H547 C555 0.930 . S
H548 C558 0.930 . S
H549 C559 0.930 . S
C550 H544 0.930 . S
C550 C551 1.355 . S
C550 C552 1.415 . S
C551 C550 1.355 . S
C551 C553 1.419 . S
C552 C550 1.415 . S
C552 C557 1.425 . S
C552 C559 1.409 . S
C553 H545 0.930 . S
C553 C551 1.419 . S
C553 C554 1.362 . S
C554 H546 0.930 . S
C554 C553 1.362 . S
C554 C557 1.409 . S
C555 H547 0.930 . S
C555 C556 1.355 . S
C555 C557 1.415 . S
C556 C555 1.355 . S
C556 C558 1.419 . S
C557 C552 1.425 . S
C557 C554 1.409 . S
C557 C555 1.415 . S
C558 H548 0.930 . S
C558 C556 1.419 . S
C558 C559 1.362 . S
C559 H549 0.930 . S
C559 C552 1.409 . S
C559 C558 1.362 . S
H560 C566 0.930 . S
H561 C569 0.930 . S
H562 C570 0.930 . S
H563 C571 0.930 . S
H564 C574 0.930 1_554 S
H565 C575 0.930 . S
C566 H560 0.930 . S
C566 C567 1.355 . S
C566 C568 1.415 . S
C567 C566 1.355 . S
C567 C569 1.419 . S
C568 C566 1.415 . S
C568 C573 1.425 . S
C568 C575 1.409 . S
C569 H561 0.930 . S
C569 C567 1.419 . S
C569 C570 1.362 . S
C570 H562 0.930 . S
C570 C569 1.362 . S
C570 C573 1.409 . S
C571 H563 0.930 . S
C571 C572 1.355 . S
C571 C573 1.415 . S
C572 C571 1.355 . S
C572 C574 1.419 . S
C573 C568 1.425 . S
C573 C570 1.409 . S
C573 C571 1.415 . S
C574 H564 0.930 1_556 S
C574 C572 1.419 . S
C574 C575 1.362 . S
C575 H565 0.930 . S
C575 C568 1.409 . S
C575 C574 1.362 . S
H576 C582 0.930 . S
H577 C585 0.930 . S
H578 C586 0.930 . S
H579 C587 0.930 . S
H580 C590 0.930 . S
H581 C591 0.930 . S
C582 H576 0.930 . S
C582 C583 1.355 . S
C582 C584 1.415 . S
C583 C582 1.355 . S
C583 C585 1.419 . S
C584 C582 1.415 . S
C584 C589 1.425 . S
C584 C591 1.409 . S
C585 H577 0.930 . S
C585 C583 1.419 . S
C585 C586 1.362 . S
C586 H578 0.930 . S
C586 C585 1.362 . S
C586 C589 1.409 . S
C587 H579 0.930 . S
C587 C588 1.355 . S
C587 C589 1.415 . S
C588 C587 1.355 . S
C588 C590 1.419 . S
C589 C584 1.425 . S
C589 C586 1.409 . S
C589 C587 1.415 . S
C590 H580 0.930 . S
C590 C588 1.419 . S
C590 C591 1.362 . S
C591 H581 0.930 . S
C591 C584 1.409 . S
C591 C590 1.362 . S
H592 C598 0.930 . S
H593 C601 0.930 . S
H594 C602 0.930 . S
H595 C603 0.930 . S
H596 C606 0.930 . S
H597 C607 0.930 . S
C598 H592 0.930 . S
C598 C599 1.355 . S
C598 C600 1.415 . S
C599 C598 1.355 . S
C599 C601 1.419 . S
C600 C598 1.415 . S
C600 C605 1.425 . S
C600 C607 1.409 . S
C601 H593 0.930 . S
C601 C599 1.419 . S
C601 C602 1.362 . S
C602 H594 0.930 . S
C602 C601 1.362 . S
C602 C605 1.409 . S
C603 H595 0.930 . S
C603 C604 1.355 . S
C603 C605 1.415 . S
C604 C603 1.355 . S
C604 C606 1.419 . S
C605 C600 1.425 . S
C605 C602 1.409 . S
C605 C603 1.415 . S
C606 H596 0.930 . S
C606 C604 1.419 . S
C606 C607 1.362 . S
C607 H597 0.930 . S
C607 C600 1.409 . S
C607 C606 1.362 . S
H608 C614 0.930 . S
H609 C617 0.930 . S
H610 C618 0.930 . S
H611 C619 0.930 . S
H612 C622 0.930 . S
H613 C623 0.930 . S
C614 H608 0.930 . S
C614 C615 1.355 . S
C614 C616 1.415 . S
C615 C614 1.355 . S
C615 C617 1.419 . S
C616 C614 1.415 . S
C616 C621 1.425 . S
C616 C623 1.409 . S
C617 H609 0.930 . S
C617 C615 1.419 . S
C617 C618 1.362 . S
C618 H610 0.930 . S
C618 C617 1.362 . S
C618 C621 1.409 . S
C619 H611 0.930 . S
C619 C620 1.355 . S
C619 C621 1.415 . S
C620 C619 1.355 . S
C620 C622 1.419 . S
C621 C616 1.425 . S
C621 C618 1.409 . S
C621 C619 1.415 . S
C622 H612 0.930 . S
C622 C620 1.419 . S
C622 C623 1.362 . S
C623 H613 0.930 . S
C623 C616 1.409 . S
C623 C622 1.362 . S
H624 C630 0.930 . S
H625 C633 0.930 . S
H626 C634 0.930 . S
H627 C635 0.930 . S
H628 C638 0.930 . S
H629 C639 0.930 . S
C630 H624 0.930 . S
C630 C631 1.355 . S
C630 C632 1.415 . S
C631 C630 1.355 . S
C631 C633 1.419 . S
C632 C630 1.415 . S
C632 C637 1.425 . S
C632 C639 1.409 . S
C633 H625 0.930 . S
C633 C631 1.419 . S
C633 C634 1.362 . S
C634 H626 0.930 . S
C634 C633 1.362 . S
C634 C637 1.409 . S
C635 H627 0.930 . S
C635 C636 1.355 . S
C635 C637 1.415 . S
C636 C635 1.355 . S
C636 C638 1.419 . S
C637 C632 1.425 . S
C637 C634 1.409 . S
C637 C635 1.415 . S
C638 H628 0.930 . S
C638 C636 1.419 . S
C638 C639 1.362 . S
C639 H629 0.930 . S
C639 C632 1.409 . S
C639 C638 1.362 . S
H640 C646 0.930 . S
H641 C649 0.930 . S
H642 C650 0.930 1_545 S
H643 C651 0.930 1_545 S
H644 C654 0.920 1_455 S
H645 C655 0.930 . S
C646 H640 0.930 . S
C646 C647 1.355 . S
C646 C648 1.415 . S
C647 C646 1.355 . S
C647 C649 1.419 . S
C648 C646 1.415 . S
C648 C653 1.425 . S
C648 C655 1.409 . S
C649 H641 0.930 . S
C649 C647 1.419 . S
C649 C650 1.362 . S
C650 H642 0.930 1_565 S
C650 C649 1.362 . S
C650 C653 1.409 . S
C651 H643 0.930 1_565 S
C651 C652 1.355 . S
C651 C653 1.415 . S
C652 C651 1.355 . S
C652 C654 1.419 . S
C653 C648 1.425 . S
C653 C650 1.409 . S
C653 C651 1.415 . S
C654 H644 0.920 1_655 S
C654 C652 1.419 . S
C654 C655 1.362 . S
C655 H645 0.930 . S
C655 C648 1.409 . S
C655 C654 1.362 . S
H656 C662 0.930 . S
H657 C665 0.930 . S
H658 C666 0.930 . S
H659 C667 0.930 . S
H660 C670 0.930 . S
H661 C671 0.930 . S
C662 H656 0.930 . S
C662 C663 1.355 . S
C662 C664 1.415 . S
C663 C662 1.355 . S
C663 C665 1.419 . S
C664 C662 1.415 . S
C664 C669 1.425 . S
C664 C671 1.409 . S
C665 H657 0.930 . S
C665 C663 1.419 . S
C665 C666 1.362 . S
C666 H658 0.930 . S
C666 C665 1.362 . S
C666 C669 1.409 . S
C667 H659 0.930 . S
C667 C668 1.355 . S
C667 C669 1.415 . S
C668 C667 1.355 . S
C668 C670 1.419 . S
C669 C664 1.425 . S
C669 C666 1.409 . S
C669 C667 1.415 . S
C670 H660 0.930 . S
C670 C668 1.419 . S
C670 C671 1.362 . S
C671 H661 0.930 . S
C671 C664 1.409 . S
C671 C670 1.362 . S
H672 C678 0.930 . S
H673 C681 0.930 1_565 S
H674 C682 0.930 . S
H675 C683 0.930 . S
H676 C686 0.930 . S
H677 C687 0.930 . S
C678 H672 0.930 . S
C678 C679 1.355 . S
C678 C680 1.415 . S
C679 C678 1.355 . S
C679 C681 1.419 . S
C680 C678 1.415 . S
C680 C685 1.425 . S
C680 C687 1.409 . S
C681 H673 0.930 1_545 S
C681 C679 1.419 . S
C681 C682 1.362 . S
C682 H674 0.930 . S
C682 C681 1.362 . S
C682 C685 1.409 . S
C683 H675 0.930 . S
C683 C684 1.355 . S
C683 C685 1.415 . S
C684 C683 1.355 . S
C684 C686 1.419 . S
C685 C680 1.425 . S
C685 C682 1.409 . S
C685 C683 1.415 . S
C686 H676 0.930 . S
C686 C684 1.419 . S
C686 C687 1.362 . S
C687 H677 0.930 . S
C687 C680 1.409 . S
C687 C686 1.362 . S
H688 C694 0.930 . S
H689 C697 0.930 . S
H690 C698 0.930 . S
H691 C699 0.930 . S
H692 C702 0.930 . S
H693 C703 0.930 . S
C694 H688 0.930 . S
C694 C695 1.355 . S
C694 C696 1.415 . S
C695 C694 1.355 . S
C695 C697 1.419 . S
C696 C694 1.415 . S
C696 C701 1.425 . S
C696 C703 1.409 . S
C697 H689 0.930 . S
C697 C695 1.419 . S
C697 C698 1.362 . S
C698 H690 0.930 . S
C698 C697 1.362 . S
C698 C701 1.409 . S
C699 H691 0.930 . S
C699 C700 1.355 . S
C699 C701 1.415 . S
C700 C699 1.355 . S
C700 C702 1.419 . S
C701 C696 1.425 . S
C701 C698 1.409 . S
C701 C699 1.415 . S
C702 H692 0.930 . S
C702 C700 1.419 . S
C702 C703 1.362 . S
C703 H693 0.930 . S
C703 C696 1.409 . S
C703 C702 1.362 . S
H704 C710 0.930 . S
H705 C713 0.930 . S
H706 C714 0.930 . S
H707 C715 0.930 . S
H708 C718 0.930 . S
H709 C719 0.930 . S
C710 H704 0.930 . S
C710 C711 1.355 . S
C710 C712 1.415 . S
C711 C710 1.355 . S
C711 C713 1.419 1_545 S
C712 C710 1.415 . S
C712 C717 1.425 . S
C712 C719 1.409 . S
C713 H705 0.930 . S
C713 C711 1.419 1_565 S
C713 C714 1.362 . S
C714 H706 0.930 . S
C714 C713 1.362 . S
C714 C717 1.409 1_565 S
C715 H707 0.930 . S
C715 C716 1.355 . S
C715 C717 1.415 . S
C716 C715 1.355 . S
C716 C718 1.419 . S
C717 C712 1.425 . S
C717 C714 1.409 1_545 S
C717 C715 1.415 . S
C718 H708 0.930 . S
C718 C716 1.419 . S
C718 C719 1.362 . S
C719 H709 0.930 . S
C719 C712 1.409 . S
C719 C718 1.362 . S
H720 C726 0.930 . S
H721 C729 0.930 . S
H722 C730 0.930 1_554 S
H723 C731 0.930 . S
H724 C734 0.930 . S
H725 C735 0.930 . S
C726 H720 0.930 . S
C726 C727 1.355 . S
C726 C728 1.415 . S
C727 C726 1.355 . S
C727 C729 1.419 1_556 S
C728 C726 1.415 . S
C728 C733 1.425 . S
C728 C735 1.409 . S
C729 H721 0.930 . S
C729 C727 1.419 1_554 S
C729 C730 1.362 1_554 S
C730 H722 0.930 1_556 S
C730 C729 1.362 1_556 S
C730 C733 1.409 . S
C731 H723 0.930 . S
C731 C732 1.355 . S
C731 C733 1.415 . S
C732 C731 1.355 . S
C732 C734 1.419 . S
C733 C728 1.425 . S
C733 C730 1.409 . S
C733 C731 1.415 . S
C734 H724 0.930 . S
C734 C732 1.419 . S
C734 C735 1.362 . S
C735 H725 0.930 . S
C735 C728 1.409 . S
C735 C734 1.362 . S
H736 C742 0.930 . S
H737 C745 0.930 . S
H738 C746 0.930 . S
H739 C747 0.930 . S
H740 C750 0.930 . S
H741 C751 0.930 . S
C742 H736 0.930 . S
C742 C743 1.355 . S
C742 C744 1.415 . S
C743 C742 1.355 . S
C743 C745 1.419 . S
C744 C742 1.415 . S
C744 C749 1.425 . S
C744 C751 1.409 . S
C745 H737 0.930 . S
C745 C743 1.419 . S
C745 C746 1.362 . S
C746 H738 0.930 . S
C746 C745 1.362 . S
C746 C749 1.409 . S
C747 H739 0.930 . S
C747 C748 1.355 . S
C747 C749 1.415 . S
C748 C747 1.355 . S
C748 C750 1.419 . S
C749 C744 1.425 . S
C749 C746 1.409 . S
C749 C747 1.415 . S
C750 H740 0.930 . S
C750 C748 1.419 . S
C750 C751 1.362 . S
C751 H741 0.930 . S
C751 C744 1.409 . S
C751 C750 1.362 . S
H752 C758 0.930 . S
H753 C761 0.930 . S
H754 C762 0.930 . S
H755 C763 0.930 . S
H756 C766 0.930 . S
H757 C767 0.930 . S
C758 H752 0.930 . S
C758 C759 1.355 . S
C758 C760 1.415 . S
C759 C758 1.355 . S
C759 C761 1.419 . S
C760 C758 1.415 . S
C760 C765 1.425 . S
C760 C767 1.409 . S
C761 H753 0.930 . S
C761 C759 1.419 . S
C761 C762 1.362 . S
C762 H754 0.930 . S
C762 C761 1.362 . S
C762 C765 1.409 . S
C763 H755 0.930 . S
C763 C764 1.355 . S
C763 C765 1.415 . S
C764 C763 1.355 . S
C764 C766 1.419 . S
C765 C760 1.425 . S
C765 C762 1.409 . S
C765 C763 1.415 . S
C766 H756 0.930 . S
C766 C764 1.419 . S
C766 C767 1.362 . S
C767 H757 0.930 . S
C767 C760 1.409 . S
C767 C766 1.362 . S
H768 C774 0.930 . S
H769 C777 0.930 . S
H770 C778 0.930 . S
H771 C779 0.930 . S
H772 C782 0.930 . S
H773 C783 0.930 . S
C774 H768 0.930 . S
C774 C775 1.355 . S
C774 C776 1.415 . S
C775 C774 1.355 . S
C775 C777 1.419 . S
C776 C774 1.415 . S
C776 C781 1.425 . S
C776 C783 1.409 . S
C777 H769 0.930 . S
C777 C775 1.419 . S
C777 C778 1.362 . S
C778 H770 0.930 . S
C778 C777 1.362 . S
C778 C781 1.409 . S
C779 H771 0.930 . S
C779 C780 1.355 . S
C779 C781 1.415 . S
C780 C779 1.355 . S
C780 C782 1.419 . S
C781 C776 1.425 . S
C781 C778 1.409 . S
C781 C779 1.415 . S
C782 H772 0.930 . S
C782 C780 1.419 . S
C782 C783 1.362 . S
C783 H773 0.930 . S
C783 C776 1.409 . S
C783 C782 1.362 . S
H784 C790 0.930 . S
H785 C793 0.930 . S
H786 C794 0.930 . S
H787 C795 0.930 . S
H788 C798 0.930 . S
H789 C799 0.930 . S
C790 H784 0.930 . S
C790 C791 1.355 . S
C790 C792 1.415 . S
C791 C790 1.355 . S
C791 C793 1.419 . S
C792 C790 1.415 . S
C792 C797 1.425 1_455 S
C792 C799 1.409 . S
C793 H785 0.930 . S
C793 C791 1.419 . S
C793 C794 1.362 1_455 S
C794 H786 0.930 . S
C794 C793 1.362 1_655 S
C794 C797 1.409 . S
C795 H787 0.930 . S
C795 C796 1.355 . S
C795 C797 1.415 . S
C796 C795 1.355 . S
C796 C798 1.419 . S
C797 C792 1.425 1_655 S
C797 C794 1.409 . S
C797 C795 1.415 . S
C798 H788 0.930 . S
C798 C796 1.419 . S
C798 C799 1.362 1_655 S
C799 H789 0.930 . S
C799 C792 1.409 . S
C799 C798 1.362 1_455 S
H800 C806 0.930 1_655 S
H801 C809 0.930 . S
H802 C810 0.930 . S
H803 C811 0.930 1_455 S
H804 C814 0.930 . S
H805 C815 0.930 . S
C806 H800 0.930 1_455 S
C806 C807 1.355 . S
C806 C808 1.415 1_455 S
C807 C806 1.355 . S
C807 C809 1.419 . S
C808 C806 1.415 1_655 S
C808 C813 1.425 1_655 S
C808 C815 1.409 . S
C809 H801 0.930 . S
C809 C807 1.419 . S
C809 C810 1.362 . S
C810 H802 0.930 . S
C810 C809 1.362 . S
C810 C813 1.409 . S
C811 H803 0.930 1_655 S
C811 C812 1.355 . S
C811 C813 1.415 1_655 S
C812 C811 1.355 . S
C812 C814 1.419 . S
C813 C808 1.425 1_455 S
C813 C810 1.409 . S
C813 C811 1.415 1_455 S
C814 H804 0.930 . S
C814 C812 1.419 . S
C814 C815 1.362 . S
C815 H805 0.930 . S
C815 C808 1.409 . S
C815 C814 1.362 . S
H816 C822 0.930 . S
H817 C825 0.930 1_556 S
H818 C826 0.930 . S
H819 C827 0.930 1_556 S
H820 C830 0.930 . S
H821 C831 0.930 . S
C822 H816 0.930 . S
C822 C823 1.355 . S
C822 C824 1.415 . S
C823 C822 1.355 . S
C823 C825 1.419 . S
C824 C822 1.415 . S
C824 C829 1.425 . S
C824 C831 1.409 . S
C825 H817 0.930 1_554 S
C825 C823 1.419 . S
C825 C826 1.362 1_554 S
C826 H818 0.930 . S
C826 C825 1.362 1_556 S
C826 C829 1.409 1_556 S
C827 H819 0.930 1_554 S
C827 C828 1.355 . S
C827 C829 1.415 . S
C828 C827 1.355 . S
C828 C830 1.419 . S
C829 C824 1.425 . S
C829 C826 1.409 1_554 S
C829 C827 1.415 . S
C830 H820 0.930 . S
C830 C828 1.419 . S
C830 C831 1.362 . S
C831 H821 0.930 . S
C831 C824 1.409 . S
C831 C830 1.362 . S
H832 C838 0.930 . S
H833 C841 0.930 . S
H834 C842 0.930 . S
H835 C843 0.930 . S
H836 C846 0.930 . S
H837 C847 0.930 . S
C838 H832 0.930 . S
C838 C839 1.355 . S
C838 C840 1.415 . S
C839 C838 1.355 . S
C839 C841 1.419 . S
C840 C838 1.415 . S
C840 C845 1.425 . S
C840 C847 1.409 . S
C841 H833 0.930 . S
C841 C839 1.419 . S
C841 C842 1.362 . S
C842 H834 0.930 . S
C842 C841 1.362 . S
C842 C845 1.409 . S
C843 H835 0.930 . S
C843 C844 1.355 . S
C843 C845 1.415 . S
C844 C843 1.355 . S
C844 C846 1.419 . S
C845 C840 1.425 . S
C845 C842 1.409 . S
C845 C843 1.415 . S
C846 H836 0.930 . S
C846 C844 1.419 . S
C846 C847 1.362 . S
C847 H837 0.930 . S
C847 C840 1.409 . S
C847 C846 1.362 . S
H848 C854 0.930 . S
H849 C857 0.930 . S
H850 C858 0.930 . S
H851 C859 0.930 . S
H852 C862 0.930 . S
H853 C863 0.930 . S
C854 H848 0.930 . S
C854 C855 1.355 . S
C854 C856 1.433 . S
C855 C854 1.355 . S
C855 C857 1.419 . S
C856 C854 1.433 . S
C856 C861 1.421 1_455 S
C856 C863 1.393 1_455 S
C857 H849 0.930 . S
C857 C855 1.419 . S
C857 C858 1.362 . S
C858 H850 0.930 . S
C858 C857 1.362 . S
C858 C861 1.394 1_455 S
C859 H851 0.930 . S
C859 C860 1.355 . S
C859 C861 1.433 . S
C860 C859 1.355 . S
C860 C862 1.419 . S
C861 C856 1.421 1_655 S
C861 C858 1.394 1_655 S
C861 C859 1.433 . S
C862 H852 0.930 . S
C862 C860 1.419 . S
C862 C863 1.362 . S
C863 H853 0.930 . S
C863 C856 1.393 1_655 S
C863 C862 1.362 . S
H864 C870 0.930 . S
H865 C873 0.930 . S
H866 C874 0.930 . S
H867 C875 0.930 . S
H868 C878 0.930 . S
H869 C879 0.930 . S
C870 H864 0.930 . S
C870 C871 1.355 1_455 S
C870 C872 1.415 . S
C871 C870 1.355 1_655 S
C871 C873 1.419 . S
C872 C870 1.415 . S
C872 C877 1.425 1_455 S
C872 C879 1.409 . S
C873 H865 0.930 . S
C873 C871 1.419 . S
C873 C874 1.362 . S
C874 H866 0.930 . S
C874 C873 1.362 . S
C874 C877 1.409 . S
C875 H867 0.930 . S
C875 C876 1.355 1_655 S
C875 C877 1.415 . S
C876 C875 1.355 1_455 S
C876 C878 1.419 . S
C877 C872 1.425 1_655 S
C877 C874 1.409 . S
C877 C875 1.415 . S
C878 H868 0.930 . S
C878 C876 1.419 . S
C878 C879 1.362 . S
C879 H869 0.930 . S
C879 C872 1.409 . S
C879 C878 1.362 . S
C375 C108 2.516 . S
C380 C16 2.513 . S
C391 C315 2.537 . S
C396 N35 2.475 . S
C407 C62 2.622 . S
C412 C154 2.624 . S
C423 C361 2.553 . S
C428 N81 2.471 . S
C439 N219 2.507 . S
C444 C131 2.568 . S
C455 N265 2.477 . S
C460 C177 2.559 . S
C471 C200 2.614 . S
C476 C292 2.618 . S
C487 C338 2.544 . S
C492 C246 2.542 . S
C503 N173 1.656 . S
C508 C7 1.672 . S
C519 N288 1.763 . S
C524 N25 1.708 . S
C535 C53 1.667 . S
C540 N127 1.745 . S
C551 N71 1.717 1_455 S
C556 N334 1.766 . S
C567 C85 2.050 . S
C572 C99 2.054 . S
C583 C122 2.015 . S
C588 N196 2.084 . S
C599 C145 2.041 . S
C604 C39 2.056 . S
C615 C168 2.002 1_655 S
C620 N242 2.089 . S
C631 C191 1.650 . S
C636 N357 1.728 . S
C647 N104 1.733 . S
C652 N209 1.757 1_655 S
C663 N311 1.667 . S
C668 C237 1.624 . S
C679 N255 1.716 . S
C684 N150 1.764 . S
C695 C269 2.068 . S
C700 C283 2.072 . S
C711 C306 1.979 1_455 S
C716 N12 2.074 . S
C727 C329 2.028 . S
C732 C223 2.059 . S
C743 N58 2.062 . S
C748 C352 1.981 . S
C759 N2 0.705 . S
C764 N232 0.748 . S
C775 C260 0.933 . S
C780 C30 0.929 . S
C791 N48 0.829 . S
C796 N186 0.829 . S
C807 C214 0.964 . S
C812 C76 0.955 . S
C823 N324 0.443 . S
C828 N94 0.431 . S
C839 N347 0.335 . S
C844 N117 0.570 . S
C855 N278 0.454 . S
C860 N140 0.414 . S
C871 N301 0.520 . S
C876 N163 0.452 . S
