# Generated by pormake.
# Topology unp, (4)-cn, num edge types: 1
# Building blocks:
#     Node 0, Type 0, BuildingBlock: AZAVOO_clean_sbu_0, # of connection points: 4
#     Node 1, Type 0, BuildingBlock: AZAVOO_clean_sbu_0, # of connection points: 4
#     Node 2, Type 0, BuildingBlock: AZAVOO_clean_sbu_0, # of connection points: 4
#     Node 3, Type 0, BuildingBlock: AZAVOO_clean_sbu_0, # of connection points: 4
#     Node 4, Type 0, BuildingBlock: AZAVOO_clean_sbu_0, # of connection points: 4
#     Node 5, Type 0, BuildingBlock: AZAVOO_clean_sbu_0, # of connection points: 4
#     Node 6, Type 0, BuildingBlock: AZAVOO_clean_sbu_0, # of connection points: 4
#     Node 7, Type 0, BuildingBlock: AZAVOO_clean_sbu_0, # of connection points: 4
#     Node 8, Type 0, BuildingBlock: AZAVOO_clean_sbu_0, # of connection points: 4
#     Node 9, Type 0, BuildingBlock: AZAVOO_clean_sbu_0, # of connection points: 4
#     Node 10, Type 0, BuildingBlock: AZAVOO_clean_sbu_0, # of connection points: 4
#     Node 11, Type 0, BuildingBlock: AZAVOO_clean_sbu_0, # of connection points: 4
#     Node 12, Type 0, BuildingBlock: AZAVOO_clean_sbu_0, # of connection points: 4
#     Node 13, Type 0, BuildingBlock: AZAVOO_clean_sbu_0, # of connection points: 4
#     Node 14, Type 0, BuildingBlock: AZAVOO_clean_sbu_0, # of connection points: 4
#     Node 15, Type 0, BuildingBlock: AZAVOO_clean_sbu_0, # of connection points: 4
#     Node 16, Type 0, BuildingBlock: AZAVOO_clean_sbu_0, # of connection points: 4
#     Node 17, Type 0, BuildingBlock: AZAVOO_clean_sbu_0, # of connection points: 4
#     Edge 18, Type (0, 0), BuildingBlock: AJUNOK_clean_linker_0, # of connection points: 2
#     Edge 19, Type (0, 0), BuildingBlock: AJUNOK_clean_linker_0, # of connection points: 2
#     Edge 20, Type (0, 0), BuildingBlock: AJUNOK_clean_linker_0, # of connection points: 2
#     Edge 21, Type (0, 0), BuildingBlock: AJUNOK_clean_linker_0, # of connection points: 2
#     Edge 22, Type (0, 0), BuildingBlock: AJUNOK_clean_linker_0, # of connection points: 2
#     Edge 23, Type (0, 0), BuildingBlock: AJUNOK_clean_linker_0, # of connection points: 2
#     Edge 24, Type (0, 0), BuildingBlock: AJUNOK_clean_linker_0, # of connection points: 2
#     Edge 25, Type (0, 0), BuildingBlock: AJUNOK_clean_linker_0, # of connection points: 2
#     Edge 26, Type (0, 0), BuildingBlock: AJUNOK_clean_linker_0, # of connection points: 2
#     Edge 27, Type (0, 0), BuildingBlock: AJUNOK_clean_linker_0, # of connection points: 2
#     Edge 28, Type (0, 0), BuildingBlock: AJUNOK_clean_linker_0, # of connection points: 2
#     Edge 29, Type (0, 0), BuildingBlock: AJUNOK_clean_linker_0, # of connection points: 2
#     Edge 30, Type (0, 0), BuildingBlock: AJUNOK_clean_linker_0, # of connection points: 2
#     Edge 31, Type (0, 0), BuildingBlock: AJUNOK_clean_linker_0, # of connection points: 2
#     Edge 32, Type (0, 0), BuildingBlock: AJUNOK_clean_linker_0, # of connection points: 2
#     Edge 33, Type (0, 0), BuildingBlock: AJUNOK_clean_linker_0, # of connection points: 2
#     Edge 34, Type (0, 0), BuildingBlock: AJUNOK_clean_linker_0, # of connection points: 2
#     Edge 35, Type (0, 0), BuildingBlock: AJUNOK_clean_linker_0, # of connection points: 2
#     Edge 36, Type (0, 0), BuildingBlock: AJUNOK_clean_linker_0, # of connection points: 2
#     Edge 37, Type (0, 0), BuildingBlock: AJUNOK_clean_linker_0, # of connection points: 2
#     Edge 38, Type (0, 0), BuildingBlock: AJUNOK_clean_linker_0, # of connection points: 2
#     Edge 39, Type (0, 0), BuildingBlock: AJUNOK_clean_linker_0, # of connection points: 2
#     Edge 40, Type (0, 0), BuildingBlock: AJUNOK_clean_linker_0, # of connection points: 2
#     Edge 41, Type (0, 0), BuildingBlock: AJUNOK_clean_linker_0, # of connection points: 2
#     Edge 42, Type (0, 0), BuildingBlock: AJUNOK_clean_linker_0, # of connection points: 2
#     Edge 43, Type (0, 0), BuildingBlock: AJUNOK_clean_linker_0, # of connection points: 2
#     Edge 44, Type (0, 0), BuildingBlock: AJUNOK_clean_linker_0, # of connection points: 2
#     Edge 45, Type (0, 0), BuildingBlock: AJUNOK_clean_linker_0, # of connection points: 2
#     Edge 46, Type (0, 0), BuildingBlock: AJUNOK_clean_linker_0, # of connection points: 2
#     Edge 47, Type (0, 0), BuildingBlock: AJUNOK_clean_linker_0, # of connection points: 2
#     Edge 48, Type (0, 0), BuildingBlock: AJUNOK_clean_linker_0, # of connection points: 2
#     Edge 49, Type (0, 0), BuildingBlock: AJUNOK_clean_linker_0, # of connection points: 2
#     Edge 50, Type (0, 0), BuildingBlock: AJUNOK_clean_linker_0, # of connection points: 2
#     Edge 51, Type (0, 0), BuildingBlock: AJUNOK_clean_linker_0, # of connection points: 2
#     Edge 52, Type (0, 0), BuildingBlock: AJUNOK_clean_linker_0, # of connection points: 2
#     Edge 53, Type (0, 0), BuildingBlock: AJUNOK_clean_linker_0, # of connection points: 2
# Relax obj value: 0.354
# Max RMSD: 0.203
# Mean RMSD: 0.193
data_MOF--net-unp--node1-AZAVOO_clean_sbu_0--edge1-AJUNOK_clean_linker_0
_symmetry_space_group_name_H-M    P1
_symmetry_Int_Tables_number       1
_symmetry_cell_setting            triclinic
loop_
_symmetry_equiv_pos_as_xyz
'x, y, z'
_cell_length_a     30.886453
_cell_length_b     30.898567
_cell_length_c     55.547603
_cell_angle_alpha  90.290767
_cell_angle_beta   89.839705
_cell_angle_gamma 120.53266
loop_
_atom_site_label
_atom_site_type_symbol
_atom_site_fract_x
_atom_site_fract_y
_atom_site_fract_z
_atom_type_partial_charge
Mg0 Mg 0.17773 0.24768 0.10237 0.0
O1 O 0.16429 0.16766 0.10374 0.0
O2 O 0.10369 0.12069 0.07719 0.0
Mg3 Mg 0.07955 0.17113 0.05819 0.0
C4 C 0.13523 0.1258 0.0934 0.0
C5 C 0.25083 0.27809 0.14716 0.0
O6 O 0.20921 0.26627 0.15882 0.0
O7 O 0.22175 0.26153 0.06684 0.0
O8 O 0.15746 0.21592 0.04179 0.0
O9 O 0.11271 0.22101 0.12855 0.0
O10 O 0.10551 0.22165 0.08914 0.0
C11 C 0.20414 0.24577 0.04573 0.0
C12 C 0.08414 0.20863 0.10973 0.0
O13 O 0.24948 0.27424 0.12434 0.0
Mg14 Mg 0.77718 0.9483 0.08679 0.0
O15 O 0.85495 0.01782 0.09281 0.0
O16 O 0.91063 0.00915 0.07055 0.0
Mg17 Mg 0.86725 0.93844 0.04715 0.0
C18 C 0.89983 0.03284 0.08606 0.0
C19 C 0.73016 0.97882 0.12927 0.0
O20 O 0.73409 0.94319 0.14003 0.0
O21 O 0.76876 0.9797 0.0508 0.0
O22 O 0.82479 0.97144 0.02846 0.0
O23 O 0.79974 0.9089 0.11398 0.0
O24 O 0.80883 0.90654 0.07472 0.0
C25 C 0.79153 0.98399 0.03092 0.0
C26 C 0.8171 0.89593 0.09582 0.0
O27 O 0.74404 0.98895 0.10746 0.0
Mg28 Mg 0.07324 0.84251 0.10336 0.0
O29 O 0.00548 0.8535 0.10095 0.0
O30 O 0.02201 0.91121 0.07257 0.0
Mg31 Mg 0.09906 0.93494 0.05596 0.0
C32 C 0.99371 0.88099 0.08888 0.0
C33 C 0.04482 0.75424 0.1395 0.0
O34 O 0.09404 0.77743 0.14117 0.0
O35 O 0.04769 0.79493 0.06872 0.0
O36 O 0.06804 0.85547 0.04153 0.0
O37 O 0.10683 0.90864 0.12884 0.0
O38 O 0.12006 0.91451 0.08968 0.0
C39 C 0.05119 0.80957 0.04695 0.0
C40 C 0.12385 0.93655 0.10985 0.0
O41 O 0.02519 0.77242 0.12583 0.0
Mg42 Mg 0.22852 0.15153 0.90358 0.0
O43 O 0.15003 0.14196 0.90363 0.0
O44 O 0.10421 0.08587 0.93201 0.0
Mg45 Mg 0.15365 0.05923 0.94999 0.0
C46 C 0.10906 0.11601 0.91517 0.0
C47 C 0.26025 0.22596 0.85881 0.0
O48 O 0.24723 0.18489 0.84634 0.0
O49 O 0.24955 0.19832 0.93858 0.0
O50 O 0.20552 0.13747 0.9653 0.0
O51 O 0.19625 0.08506 0.87795 0.0
O52 O 0.19952 0.07935 0.91734 0.0
C53 C 0.23704 0.18316 0.96022 0.0
C54 C 0.18367 0.05718 0.89699 0.0
O55 O 0.25662 0.22327 0.88161 0.0
Mg56 Mg 0.82412 0.06072 0.8894 0.0
O57 O 0.82696 0.98913 0.89698 0.0
O58 O 0.87283 0.99963 0.93034 0.0
Mg59 Mg 0.90463 0.07881 0.94725 0.0
C60 C 0.84644 0.9733 0.91236 0.0
C61 C 0.75448 0.03716 0.84341 0.0
O62 O 0.78751 0.08413 0.8383 0.0
O63 O 0.76556 0.04041 0.92005 0.0
O64 O 0.84285 0.08423 0.93058 0.0
O65 O 0.89837 0.08973 0.87056 0.0
O66 O 0.89419 0.10091 0.90959 0.0
C67 C 0.7974 0.05846 0.93696 0.0
C68 C 0.92095 0.10388 0.89119 0.0
O69 O 0.76048 0.01788 0.86235 0.0
Mg70 Mg 0.91221 0.75119 0.90843 0.0
O71 O 0.98443 0.82814 0.90422 0.0
O72 O 0.98078 0.87961 0.9317 0.0
Mg73 Mg 0.90808 0.83657 0.95358 0.0
C74 C 0.00266 0.87108 0.91434 0.0
C75 C 0.96995 0.73144 0.86552 0.0
O76 O 0.97656 0.77414 0.85724 0.0
O77 O 0.94481 0.73617 0.94258 0.0
O78 O 0.93589 0.78675 0.96857 0.0
O79 O 0.87339 0.77946 0.88378 0.0
O80 O 0.87485 0.78529 0.92326 0.0
C81 C 0.94772 0.75366 0.9638 0.0
C82 C 0.86374 0.79685 0.90304 0.0
O83 O 0.94584 0.71413 0.88508 0.0
Mg84 Mg 0.84633 0.57914 0.43075 0.0
O85 O 0.8438 0.50173 0.43275 0.0
O86 O 0.77199 0.4479 0.41502 0.0
Mg87 Mg 0.79597 0.5126 0.39051 0.0
C88 C 0.80835 0.45662 0.42878 0.0
C89 C 0.91361 0.60323 0.47691 0.0
O90 O 0.86893 0.57452 0.48637 0.0
O91 O 0.89572 0.60512 0.39557 0.0
O92 O 0.8337 0.5839 0.3699 0.0
O93 O 0.77879 0.54217 0.45557 0.0
O94 O 0.77187 0.54862 0.41656 0.0
C95 C 0.88057 0.60738 0.37437 0.0
C96 C 0.75037 0.53006 0.43672 0.0
O97 O 0.91685 0.61169 0.4544 0.0
Mg98 Mg 0.44014 0.26348 0.44371 0.0
O99 O 0.51935 0.33346 0.44158 0.0
O100 O 0.56159 0.31688 0.41365 0.0
Mg101 Mg 0.51067 0.23769 0.39831 0.0
C102 C 0.55902 0.34586 0.42935 0.0
C103 C 0.3672 0.28096 0.47329 0.0
O104 O 0.34122 0.23326 0.46714 0.0
O105 O 0.42002 0.28705 0.40803 0.0
O106 O 0.4621 0.26606 0.38215 0.0
O107 O 0.47216 0.23311 0.47055 0.0
O108 O 0.46724 0.21792 0.43148 0.0
C109 C 0.4326 0.28267 0.38658 0.0
C110 C 0.48416 0.21544 0.45216 0.0
O111 O 0.41234 0.30688 0.46599 0.0
Mg112 Mg 0.74614 0.18014 0.4204 0.0
O113 O 0.67766 0.18828 0.42928 0.0
O114 O 0.68915 0.25905 0.41241 0.0
Mg115 Mg 0.75657 0.28711 0.38719 0.0
C116 C 0.66446 0.22077 0.42586 0.0
C117 C 0.68555 0.09687 0.45859 0.0
O118 O 0.68607 0.13538 0.46901 0.0
O119 O 0.71071 0.14543 0.38397 0.0
O120 O 0.71464 0.21254 0.36646 0.0
O121 O 0.78705 0.23579 0.45009 0.0
O122 O 0.78874 0.25602 0.41184 0.0
C123 C 0.70147 0.16611 0.36644 0.0
C124 C 0.7997 0.27009 0.43386 0.0
O125 O 0.70721 0.10318 0.43834 0.0
Mg126 Mg 0.90946 0.496 0.23834 0.0
O127 O 0.8336 0.49344 0.2361 0.0
O128 O 0.7873 0.44664 0.2672 0.0
Mg129 Mg 0.8311 0.41782 0.28825 0.0
C130 C 0.7933 0.47326 0.24859 0.0
C131 C 0.9248 0.5707 0.19489 0.0
O132 O 0.87725 0.53858 0.19031 0.0
O133 O 0.93251 0.55129 0.27022 0.0
O134 O 0.88627 0.49845 0.29955 0.0
O135 O 0.87539 0.42472 0.21609 0.0
O136 O 0.87442 0.4267 0.25567 0.0
C137 C 0.91929 0.54205 0.29227 0.0
C138 C 0.85928 0.40066 0.2362 0.0
O139 O 0.94603 0.56226 0.21233 0.0
Mg140 Mg 0.51195 0.4139 0.24487 0.0
O141 O 0.52021 0.34426 0.24193 0.0
O142 O 0.58396 0.35698 0.26589 0.0
Mg143 Mg 0.60925 0.42926 0.28768 0.0
C144 C 0.55012 0.33097 0.25031 0.0
C145 C 0.43895 0.36103 0.201 0.0
O146 O 0.48143 0.37047 0.19097 0.0
O147 O 0.46786 0.38338 0.28024 0.0
O148 O 0.53129 0.39672 0.30452 0.0
O149 O 0.576 0.45129 0.21815 0.0
O150 O 0.58551 0.45696 0.25754 0.0
C151 C 0.48508 0.38229 0.30098 0.0
C152 C 0.60566 0.46497 0.2366 0.0
O153 O 0.43938 0.37363 0.22287 0.0
Mg154 Mg 0.58871 0.09385 0.2287 0.0
O155 O 0.66275 0.1693 0.23427 0.0
O156 O 0.65299 0.21133 0.26515 0.0
Mg157 Mg 0.57352 0.16861 0.28178 0.0
C158 C 0.67934 0.20752 0.24829 0.0
C159 C 0.64724 0.08264 0.1836 0.0
O160 O 0.64821 0.12322 0.17585 0.0
O161 O 0.60913 0.06066 0.26131 0.0
O162 O 0.56902 0.09784 0.27057 0.0
O163 O 0.56314 0.13739 0.20646 0.0
O164 O 0.55072 0.12889 0.24579 0.0
C165 C 0.59587 0.08028 0.27761 0.0
C166 C 0.54901 0.14949 0.22607 0.0
O167 O 0.6265 0.06404 0.2037 0.0
Mg168 Mg 0.49157 0.88598 0.74511 0.0
O169 O 0.49024 0.81325 0.75575 0.0
O170 O 0.43175 0.75113 0.73297 0.0
Mg171 Mg 0.39866 0.78337 0.70674 0.0
C172 C 0.46478 0.76709 0.74961 0.0
C173 C 0.56994 0.91971 0.78779 0.0
O174 O 0.53253 0.87958 0.79775 0.0
O175 O 0.53573 0.89237 0.71053 0.0
O176 O 0.47512 0.82925 0.68885 0.0
O177 O 0.42607 0.86348 0.77058 0.0
O178 O 0.41865 0.84512 0.73191 0.0
C179 C 0.52 0.86584 0.69132 0.0
C180 C 0.39743 0.84008 0.75235 0.0
O181 O 0.56428 0.93182 0.76669 0.0
Mg182 Mg 0.09184 0.57857 0.77604 0.0
O183 O 0.16892 0.6476 0.7685 0.0
O184 O 0.20575 0.62611 0.73976 0.0
Mg185 Mg 0.15232 0.54397 0.72884 0.0
C186 C 0.20575 0.65794 0.75454 0.0
C187 C 0.04332 0.61396 0.81556 0.0
O188 O 0.02986 0.56907 0.82382 0.0
O189 O 0.06296 0.5936 0.7408 0.0
O190 O 0.10038 0.56943 0.71381 0.0
O191 O 0.13213 0.55606 0.80227 0.0
O192 O 0.11774 0.53114 0.76436 0.0
C193 C 0.07147 0.58636 0.71905 0.0
C194 C 0.14055 0.53472 0.78419 0.0
O195 O 0.06981 0.62901 0.79654 0.0
Mg196 Mg 0.40251 0.49299 0.76552 0.0
O197 O 0.33397 0.50333 0.76848 0.0
O198 O 0.34824 0.56774 0.74479 0.0
Mg199 Mg 0.4204 0.5915 0.7231 0.0
C200 C 0.32151 0.53394 0.76018 0.0
C201 C 0.34789 0.41849 0.80891 0.0
O202 O 0.35829 0.46049 0.81983 0.0
O203 O 0.37117 0.44952 0.73005 0.0
O204 O 0.38602 0.51368 0.70604 0.0
O205 O 0.44215 0.5578 0.79215 0.0
O206 O 0.44727 0.5657 0.75272 0.0
C207 C 0.37055 0.46724 0.70939 0.0
C208 C 0.45706 0.58672 0.77346 0.0
O209 O 0.3606 0.42016 0.787 0.0
Mg210 Mg 0.55903 0.8296 0.55154 0.0
O211 O 0.4879 0.82873 0.56429 0.0
O212 O 0.45864 0.78252 0.59802 0.0
Mg213 Mg 0.50667 0.74756 0.60898 0.0
C214 C 0.45612 0.81003 0.5815 0.0
C215 C 0.60804 0.90675 0.50909 0.0
O216 O 0.62886 0.87954 0.50469 0.0
O217 O 0.60433 0.88786 0.58147 0.0
O218 O 0.57386 0.81176 0.59262 0.0
O219 O 0.50716 0.75784 0.53208 0.0
O220 O 0.52987 0.75782 0.56979 0.0
C221 C 0.5929 0.85728 0.59867 0.0
C222 C 0.50177 0.73345 0.5518 0.0
O223 O 0.57677 0.89419 0.52626 0.0
Mg224 Mg 0.16384 0.73616 0.5827 0.0
O225 O 0.16941 0.66613 0.57505 0.0
O226 O 0.22132 0.66415 0.60251 0.0
Mg227 Mg 0.24957 0.73259 0.62741 0.0
C228 C 0.19257 0.64587 0.58422 0.0
C229 C 0.09652 0.69868 0.53527 0.0
O230 O 0.14029 0.71565 0.52469 0.0
O231 O 0.11261 0.6971 0.6154 0.0
O232 O 0.17008 0.70189 0.6415 0.0
O233 O 0.23368 0.78105 0.55989 0.0
O234 O 0.23479 0.7722 0.59907 0.0
C235 C 0.1253 0.69056 0.63634 0.0
C236 C 0.25947 0.78828 0.57938 0.0
O237 O 0.09503 0.70325 0.55797 0.0
Mg238 Mg 0.2458 0.42601 0.56766 0.0
O239 O 0.31343 0.50621 0.56902 0.0
O240 O 0.29534 0.55094 0.59468 0.0
Mg241 Mg 0.22101 0.49659 0.61357 0.0
C242 C 0.32426 0.5476 0.57923 0.0
C243 C 0.2687 0.35957 0.53458 0.0
O244 O 0.22022 0.33081 0.53849 0.0
O245 O 0.27287 0.40734 0.60254 0.0
O246 O 0.25397 0.45094 0.62852 0.0
O247 O 0.21095 0.45577 0.54182 0.0
O248 O 0.19874 0.45057 0.58108 0.0
C249 C 0.27038 0.42131 0.62395 0.0
C250 C 0.19399 0.46706 0.56072 0.0
O251 O 0.29171 0.4027 0.54444 0.0
C252 C 0.34625 0.32776 0.19817 0.0
C253 C 0.39136 0.33795 0.1869 0.0
C254 C 0.30111 0.30786 0.18525 0.0
C255 C 0.29903 0.29738 0.16045 0.0
H256 H 0.34567 0.33559 0.21716 0.0
H257 H 0.26772 0.30128 0.19483 0.0
S258 S 0.40601 0.31508 0.12244 0.0
N259 N 0.43066 0.33443 0.14946 0.0
N260 N 0.34599 0.29717 0.12522 0.0
C261 C 0.34366 0.30656 0.14898 0.0
C262 C 0.38969 0.32674 0.16218 0.0
C263 C 0.68894 0.99046 0.16558 0.0
C264 C 0.7097 0.00654 0.14251 0.0
C265 C 0.66913 0.0154 0.1786 0.0
C266 C 0.6693 0.05776 0.1692 0.0
H267 H 0.68763 0.95804 0.17373 0.0
H268 H 0.6535 0.00111 0.19624 0.0
S269 S 0.72032 0.11608 0.1097 0.0
N270 N 0.7299 0.06821 0.11086 0.0
N271 N 0.69277 0.11514 0.13536 0.0
C272 C 0.69028 0.0746 0.14619 0.0
C273 C 0.71038 0.049 0.13285 0.0
C274 C 0.00612 0.64764 0.18394 0.0
C275 C 0.95397 0.6169 0.18022 0.0
C276 C 0.03492 0.69171 0.1707 0.0
C277 C 0.01288 0.70729 0.15323 0.0
H278 H 0.02517 0.63764 0.19719 0.0
H279 H 0.07486 0.71382 0.17434 0.0
S280 S 0.87772 0.6404 0.13634 0.0
N281 N 0.8814 0.60525 0.15759 0.0
N282 N 0.93546 0.68815 0.13276 0.0
C283 C 0.96072 0.677 0.14927 0.0
C284 C 0.93134 0.63184 0.16271 0.0
C285 C 0.31268 0.32532 0.80977 0.0
C286 C 0.32357 0.36979 0.82202 0.0
C287 C 0.29163 0.27911 0.82172 0.0
C288 C 0.28067 0.27524 0.84649 0.0
H289 H 0.32085 0.3261 0.79075 0.0
H290 H 0.28458 0.24629 0.81143 0.0
S291 S 0.29968 0.37986 0.88683 0.0
N292 N 0.32007 0.40653 0.86032 0.0
N293 N 0.28066 0.31986 0.88276 0.0
C294 C 0.29049 0.31922 0.85893 0.0
C295 C 0.31184 0.36635 0.84672 0.0
C296 C 0.66932 0.96134 0.83674 0.0
C297 C 0.70885 0.00759 0.82829 0.0
C298 C 0.6249 0.93339 0.8235 0.0
C299 C 0.61801 0.95022 0.80112 0.0
H300 H 0.67228 0.94668 0.85394 0.0
H301 H 0.59567 0.89828 0.831 0.0
S302 S 0.71069 0.06805 0.77037 0.0
N303 N 0.73862 0.06842 0.79572 0.0
N304 N 0.65531 0.01587 0.77078 0.0
C305 C 0.65753 0.99607 0.79222 0.0
C306 C 0.7028 0.02472 0.8058 0.0
C307 C 0.99958 0.62919 0.84975 0.0
C308 C 0.02636 0.64565 0.82797 0.0
C309 C 0.98188 0.65727 0.86168 0.0
C310 C 0.99 0.70314 0.85237 0.0
H311 H 0.99196 0.5941 0.85775 0.0
H312 H 0.96141 0.64255 0.87835 0.0
S313 S 0.0584 0.7635 0.79586 0.0
N314 N 0.06051 0.71129 0.79756 0.0
N315 N 0.02722 0.76399 0.81994 0.0
C316 C 0.01702 0.72033 0.83063 0.0
C317 C 0.03519 0.69168 0.81847 0.0
C318 C 0.00735 0.65576 0.48168 0.0
C319 C 0.95956 0.62647 0.49225 0.0
C320 C 0.05126 0.67873 0.49569 0.0
C321 C 0.04932 0.67377 0.5209 0.0
H322 H 0.01106 0.66115 0.46237 0.0
H323 H 0.08699 0.70094 0.48662 0.0
S324 S 0.9339 0.59986 0.55756 0.0
N325 N 0.91326 0.59289 0.52963 0.0
N326 N 0.99554 0.63618 0.55586 0.0
C327 C 0.00185 0.64435 0.53174 0.0
C328 C 0.95712 0.62068 0.51746 0.0
C329 C 0.26919 0.29204 0.50985 0.0
C330 C 0.29546 0.34143 0.51895 0.0
C331 C 0.29278 0.27327 0.49511 0.0
C332 C 0.34378 0.30302 0.4887 0.0
H333 H 0.22988 0.26728 0.51417 0.0
H334 H 0.27057 0.23489 0.48873 0.0
S335 S 0.42981 0.43532 0.50754 0.0
N336 N 0.37562 0.42012 0.52034 0.0
N337 N 0.41997 0.38481 0.49256 0.0
C338 C 0.37065 0.35267 0.49756 0.0
C339 C 0.34655 0.37184 0.51269 0.0
C340 C 0.67442 0.0112 0.46321 0.0
C341 C 0.66253 0.04747 0.47082 0.0
C342 C 0.65579 0.96548 0.47537 0.0
C343 C 0.62409 0.95387 0.49552 0.0
H344 H 0.69935 0.01858 0.44805 0.0
H345 H 0.66696 0.93934 0.46906 0.0
S346 S 0.57846 0.03452 0.52165 0.0
N347 N 0.61488 0.06759 0.49905 0.0
N348 N 0.57961 0.98171 0.52182 0.0
C349 C 0.61051 0.98914 0.50284 0.0
C350 C 0.62982 0.03589 0.49055 0.0
C351 C 0.01693 0.12249 0.12085 0.0
C352 C 0.03077 0.1688 0.11004 0.0
C353 C 0.9729 0.07838 0.11377 0.0
C354 C 0.94095 0.07976 0.09621 0.0
H355 H 0.04236 0.11963 0.13321 0.0
H356 H 0.96506 0.04274 0.12121 0.0
S357 S 0.95674 0.19241 0.06507 0.0
N358 N 0.00669 0.21393 0.08261 0.0
N359 N 0.92307 0.13133 0.07007 0.0
C360 C 0.95206 0.12629 0.08689 0.0
C361 C 0.99717 0.17087 0.09372 0.0
C362 C 0.89557 0.90701 0.11462 0.0
C363 C 0.85563 0.88146 0.09826 0.0
C364 C 0.93981 0.90488 0.11223 0.0
C365 C 0.94505 0.87709 0.0935 0.0
H366 H 0.89422 0.93169 0.12814 0.0
H367 H 0.97097 0.92707 0.12429 0.0
S368 S 0.84953 0.79907 0.04794 0.0
N369 N 0.82264 0.82389 0.0642 0.0
N370 N 0.90579 0.8203 0.05981 0.0
C371 C 0.9044 0.84898 0.07809 0.0
C372 C 0.85954 0.85096 0.0805 0.0
C373 C 0.16347 0.06498 0.08511 0.0
C374 C 0.13839 0.08157 0.10022 0.0
C375 C 0.16225 0.01985 0.08976 0.0
C376 C 0.13516 0.98927 0.10943 0.0
H377 H 0.18287 0.08627 0.06921 0.0
H378 H 0.18064 0.00758 0.07711 0.0
S379 S 0.06597 0.01864 0.15519 0.0
N380 N 0.08891 0.06667 0.13647 0.0
N381 N 0.08511 0.98085 0.14492 0.0
C382 C 0.11213 0.00701 0.12539 0.0
C383 C 0.11392 0.05335 0.12076 0.0
C384 C 0.05535 0.94282 0.88692 0.0
C385 C 0.05179 0.91244 0.90648 0.0
C386 C 0.10038 0.98796 0.88216 0.0
C387 C 0.14279 0.00398 0.897 0.0
H388 H 0.02241 0.93311 0.87615 0.0
H389 H 0.10073 0.01212 0.86802 0.0
S390 S 0.15368 0.93382 0.9484 0.0
N391 N 0.09505 0.8985 0.93913 0.0
N392 N 0.17967 0.98284 0.93026 0.0
C393 C 0.14039 0.97173 0.91543 0.0
C394 C 0.09475 0.92611 0.92023 0.0
C395 C 0.04226 0.13676 0.92316 0.0
C396 C 0.0645 0.11795 0.90752 0.0
C397 C 0.99757 0.13521 0.91684 0.0
C398 C 0.97268 0.11338 0.89498 0.0
H399 H 0.05922 0.15225 0.9405 0.0
H400 H 0.9817 0.15002 0.92956 0.0
S401 S 0.01711 0.0597 0.84768 0.0
N402 N 0.06039 0.07894 0.86893 0.0
N403 N 0.97519 0.07392 0.85735 0.0
C404 C 0.99566 0.09583 0.87886 0.0
C405 C 0.04177 0.09842 0.88513 0.0
C406 C 0.83154 0.84621 0.92405 0.0
C407 C 0.85002 0.83642 0.9027 0.0
C408 C 0.82864 0.88973 0.92676 0.0
C409 C 0.84265 0.9244 0.90797 0.0
H410 H 0.82141 0.82116 0.9393 0.0
H411 H 0.81658 0.89696 0.9439 0.0
S412 S 0.89002 0.91539 0.84785 0.0
N413 N 0.88034 0.86433 0.86202 0.0
N414 N 0.87307 0.94541 0.86686 0.0
C415 C 0.85806 0.91374 0.88598 0.0
C416 C 0.86197 0.86977 0.88335 0.0
C417 C 0.67794 0.4541 0.45607 0.0
C418 C 0.69723 0.4881 0.43671 0.0
C419 C 0.63157 0.40885 0.45414 0.0
C420 C 0.60345 0.39613 0.43274 0.0
H421 H 0.69985 0.46117 0.47233 0.0
H422 H 0.61889 0.38261 0.46899 0.0
S423 S 0.63335 0.47411 0.37806 0.0
N424 N 0.68103 0.50762 0.39639 0.0
N425 N 0.59523 0.4221 0.39279 0.0
C426 C 0.62077 0.43065 0.41384 0.0
C427 C 0.66729 0.47685 0.41584 0.0
C428 C 0.57511 0.25049 0.45845 0.0
C429 C 0.52801 0.20884 0.45258 0.0
C430 C 0.61963 0.25324 0.45059 0.0
C431 C 0.61836 0.21368 0.43739 0.0
H432 H 0.57749 0.28309 0.46715 0.0
H433 H 0.65509 0.28741 0.45396 0.0
S434 S 0.50481 0.09429 0.4198 0.0
N435 N 0.48278 0.12612 0.43412 0.0
N436 N 0.5667 0.12998 0.42064 0.0
C437 C 0.57178 0.17013 0.43322 0.0
C438 C 0.52645 0.16801 0.44054 0.0
C439 C 0.77552 0.37377 0.44887 0.0
C440 C 0.81405 0.41409 0.43604 0.0
C441 C 0.77503 0.32829 0.45124 0.0
C442 C 0.81194 0.32137 0.44001 0.0
H443 H 0.74427 0.3765 0.45596 0.0
H444 H 0.74301 0.29692 0.45983 0.0
S445 S 0.92256 0.41672 0.40604 0.0
N446 N 0.89243 0.44597 0.41406 0.0
N447 N 0.88969 0.35944 0.41721 0.0
C448 C 0.85218 0.36243 0.42848 0.0
C449 C 0.85362 0.40914 0.42676 0.0
C450 C 0.76191 0.27627 0.26301 0.0
C451 C 0.72941 0.25159 0.24366 0.0
C452 C 0.80595 0.32272 0.25984 0.0
C453 C 0.81833 0.34722 0.23737 0.0
H454 H 0.75253 0.26015 0.28088 0.0
H455 H 0.82944 0.34039 0.27543 0.0
S456 S 0.74665 0.29612 0.1806 0.0
N457 N 0.71398 0.25253 0.20087 0.0
N458 N 0.79577 0.34113 0.19503 0.0
C459 C 0.78734 0.32158 0.21756 0.0
C460 C 0.74299 0.27351 0.22071 0.0
C461 C 0.73652 0.50583 0.25761 0.0
C462 C 0.75158 0.48064 0.24168 0.0
C463 C 0.69117 0.50487 0.2542 0.0
C464 C 0.65875 0.47784 0.23499 0.0
H465 H 0.7588 0.52439 0.27346 0.0
H466 H 0.67982 0.52265 0.26766 0.0
S467 S 0.6832 0.40817 0.18746 0.0
N468 N 0.73304 0.43092 0.20515 0.0
N469 N 0.64679 0.42791 0.19894 0.0
C470 C 0.67503 0.45515 0.21804 0.0
C471 C 0.72169 0.45665 0.22142 0.0
C472 C 0.58787 0.28606 0.22985 0.0
C473 C 0.54639 0.28433 0.24131 0.0
C474 C 0.58659 0.24176 0.22278 0.0
C475 C 0.5443 0.19445 0.22757 0.0
H476 H 0.62188 0.32183 0.22683 0.0
H477 H 0.62001 0.24446 0.21492 0.0
S478 S 0.42604 0.17004 0.25676 0.0
N479 N 0.46126 0.23196 0.25614 0.0
N480 N 0.45991 0.14849 0.24408 0.0
C481 C 0.50232 0.19236 0.23856 0.0
C482 C 0.50306 0.23745 0.2451 0.0
C483 C 0.28055 0.72569 0.77613 0.0
C484 C 0.25027 0.70858 0.7554 0.0
C485 C 0.32708 0.77091 0.77586 0.0
C486 C 0.34411 0.80034 0.7549 0.0
H487 H 0.26954 0.70271 0.79217 0.0
H488 H 0.35106 0.78113 0.79158 0.0
S489 S 0.27364 0.77556 0.6975 0.0
N490 N 0.23724 0.72662 0.71453 0.0
N491 N 0.32344 0.81235 0.7141 0.0
C492 C 0.31184 0.78535 0.7348 0.0
C493 C 0.26521 0.73913 0.73499 0.0
C494 C 0.27705 0.57431 0.77864 0.0
C495 C 0.27513 0.53114 0.76913 0.0
C496 C 0.23316 0.57349 0.78604 0.0
C497 C 0.1857 0.53004 0.78319 0.0
H498 H 0.31259 0.60924 0.77984 0.0
H499 H 0.23613 0.60804 0.79246 0.0
S500 S 0.16047 0.40734 0.75906 0.0
N501 N 0.22234 0.44329 0.75813 0.0
N502 N 0.13936 0.44281 0.7703 0.0
C503 C 0.18336 0.48648 0.77399 0.0
C504 C 0.22823 0.48676 0.76737 0.0
C505 C 0.5047 0.71523 0.74898 0.0
C506 C 0.47479 0.73037 0.76114 0.0
C507 C 0.50406 0.67126 0.75557 0.0
C508 C 0.47288 0.64056 0.77429 0.0
H509 H 0.52577 0.7354 0.73316 0.0
H510 H 0.52445 0.65869 0.74442 0.0
S511 S 0.39416 0.66907 0.81423 0.0
N512 N 0.41862 0.7158 0.79472 0.0
N513 N 0.41673 0.63233 0.807 0.0
C514 C 0.44677 0.65814 0.78815 0.0
C515 C 0.44762 0.7032 0.78146 0.0
C516 C 0.41 0.68148 0.5587 0.0
C517 C 0.4566 0.68428 0.55606 0.0
C518 C 0.36758 0.63728 0.56669 0.0
C519 C 0.37 0.59393 0.5715 0.0
H520 H 0.40671 0.71419 0.55537 0.0
H521 H 0.33255 0.63693 0.56897 0.0
S522 S 0.48317 0.58188 0.5668 0.0
N523 N 0.50315 0.64067 0.55907 0.0
N524 N 0.42252 0.55627 0.57261 0.0
C525 C 0.41611 0.59588 0.56826 0.0
C526 C 0.45971 0.64147 0.56092 0.0
C527 C 0.33566 0.7982 0.55801 0.0
C528 C 0.31368 0.80439 0.57898 0.0
C529 C 0.38351 0.80333 0.55868 0.0
C530 C 0.41063 0.81416 0.58038 0.0
H531 H 0.31472 0.78654 0.5413 0.0
H532 H 0.39799 0.79571 0.54242 0.0
S533 S 0.37432 0.84319 0.63915 0.0
N534 N 0.32663 0.83008 0.62117 0.0
N535 N 0.41519 0.83692 0.6225 0.0
C536 C 0.39071 0.82372 0.60103 0.0
C537 C 0.34261 0.81967 0.60028 0.0
C538 C 0.15223 0.50907 0.57961 0.0
C539 C 0.18302 0.5084 0.56102 0.0
C540 C 0.15337 0.55345 0.58611 0.0
C541 C 0.18475 0.59849 0.57402 0.0
H542 H 0.12987 0.47584 0.59041 0.0
H543 H 0.13155 0.55311 0.6015 0.0
S544 S 0.26817 0.61623 0.52239 0.0
N545 N 0.24263 0.55616 0.52929 0.0
N546 N 0.24384 0.63955 0.54136 0.0
C547 C 0.21268 0.59779 0.55422 0.0
C548 C 0.21181 0.55256 0.54764 0.0
C549 C 0.22783 0.26996 0.00339 0.0
C550 C 0.23744 0.25345 0.02524 0.0
C551 C 0.23598 0.25332 0.98121 0.0
C552 C 0.25308 0.21904 0.98041 0.0
H553 H 0.20807 0.2906 0.0035 0.0
H554 H 0.22243 0.26185 0.96497 0.0
S555 S 0.29378 0.17344 0.03225 0.0
N556 N 0.27362 0.20885 0.04449 0.0
N557 N 0.2878 0.17647 0.00285 0.0
C558 C 0.26936 0.20808 0.00191 0.0
C559 C 0.26192 0.22575 0.02441 0.0
C560 C 0.81686 0.0731 0.98049 0.0
C561 C 0.78549 0.04103 0.96211 0.0
C562 C 0.81476 0.05539 0.00385 0.0
C563 C 0.78111 0.00505 0.00963 0.0
H564 H 0.84534 0.11153 0.97644 0.0
H565 H 0.8421 0.08028 0.01699 0.0
S566 S 0.68855 0.90659 0.96875 0.0
N567 N 0.71734 0.95733 0.95177 0.0
N568 N 0.71387 0.92391 0.99581 0.0
C569 C 0.74733 0.97334 0.99194 0.0
C570 C 0.74924 0.99143 0.96811 0.0
C571 C 0.02514 0.76798 0.98327 0.0
C572 C 0.97241 0.74262 0.98339 0.0
C573 C 0.05213 0.78343 0.00493 0.0
C574 C 0.02704 0.77311 0.02722 0.0
H575 H 0.04553 0.78226 0.96652 0.0
H576 H 0.09244 0.80877 0.00411 0.0
S577 S 0.88965 0.6971 0.03694 0.0
N578 N 0.89636 0.69993 0.00736 0.0
N579 N 0.94716 0.72772 0.04813 0.0
C580 C 0.97475 0.74084 0.02754 0.0
C581 C 0.94729 0.72588 0.00551 0.0
C582 C 0.95495 0.5791 0.33187 0.0
C583 C 0.93476 0.58294 0.30988 0.0
C584 C 0.94528 0.59685 0.35332 0.0
C585 C 0.9138 0.61748 0.35334 0.0
H586 H 0.97267 0.55659 0.33297 0.0
H587 H 0.95603 0.58727 0.37013 0.0
S588 S 0.86375 0.648 0.2996 0.0
N589 N 0.89212 0.619 0.28867 0.0
N590 N 0.87271 0.65132 0.32903 0.0
C591 C 0.90079 0.62903 0.33102 0.0
C592 C 0.91144 0.61174 0.30918 0.0
C593 C 0.42135 0.30616 0.32211 0.0
C594 C 0.45123 0.35876 0.3216 0.0
C595 C 0.4077 0.28045 0.34412 0.0
C596 C 0.42288 0.30672 0.36615 0.0
H597 H 0.41402 0.28461 0.30562 0.0
H598 H 0.39035 0.23991 0.34385 0.0
S599 S 0.49253 0.44485 0.37413 0.0
N600 N 0.48893 0.43636 0.34465 0.0
N601 N 0.46202 0.38807 0.38601 0.0
C602 C 0.44644 0.35929 0.36575 0.0
C603 C 0.46115 0.3854 0.34339 0.0
C604 C 0.62631 0.13371 0.34068 0.0
C605 C 0.67172 0.13575 0.34581 0.0
C606 C 0.60073 0.11278 0.31914 0.0
C607 C 0.62028 0.09432 0.30159 0.0
H608 H 0.61116 0.14976 0.35315 0.0
H609 H 0.56609 0.11263 0.31594 0.0
S610 S 0.7368 0.08822 0.30737 0.0
N611 N 0.7339 0.11483 0.33274 0.0
N612 N 0.68652 0.07638 0.29169 0.0
C613 C 0.66459 0.09389 0.30707 0.0
C614 C 0.69027 0.11461 0.32931 0.0
C615 C 0.58681 0.84 0.64246 0.0
C616 C 0.5865 0.87005 0.62359 0.0
C617 C 0.57036 0.84302 0.66557 0.0
C618 C 0.55334 0.87639 0.67061 0.0
H619 H 0.597 0.81176 0.63899 0.0
H620 H 0.56741 0.81648 0.67909 0.0
S621 S 0.54769 0.96534 0.62814 0.0
N622 N 0.57059 0.93653 0.61195 0.0
N623 N 0.53922 0.94173 0.65553 0.0
C624 C 0.55584 0.90894 0.65243 0.0
C625 C 0.57273 0.90602 0.62884 0.0
C626 C 0.06065 0.61192 0.65495 0.0
C627 C 0.08776 0.66466 0.65532 0.0
C628 C 0.0469 0.58468 0.67653 0.0
C629 C 0.05948 0.60952 0.69897 0.0
H630 H 0.05633 0.5919 0.63823 0.0
H631 H 0.03226 0.54454 0.67565 0.0
S632 S 0.11979 0.74671 0.70903 0.0
N633 N 0.11869 0.74027 0.67946 0.0
N634 N 0.09174 0.68915 0.72001 0.0
C635 C 0.07917 0.66169 0.69933 0.0
C636 C 0.09383 0.68937 0.67741 0.0
C637 C 0.34575 0.43232 0.64478 0.0
C638 C 0.29323 0.40992 0.6443 0.0
C639 C 0.37159 0.44464 0.66678 0.0
C640 C 0.34548 0.43383 0.68879 0.0
H641 H 0.36729 0.44642 0.62831 0.0
H642 H 0.41223 0.46769 0.66656 0.0
S643 S 0.20752 0.36583 0.69686 0.0
N644 N 0.21573 0.37025 0.66737 0.0
N645 N 0.26438 0.39215 0.70871 0.0
C646 C 0.29289 0.40499 0.68842 0.0
C647 C 0.26664 0.39331 0.66608 0.0
loop_
_geom_bond_atom_site_label_1
_geom_bond_atom_site_label_2
_geom_bond_distance
_geom_bond_site_symmetry_2
_ccdc_geom_bond_type
Mg0 O1 2.028 . S
Mg0 O7 1.986 . S
Mg0 O9 2.114 . S
Mg0 O10 2.251 . S
Mg0 O13 2.010 . S
O1 Mg0 2.028 . S
O1 C4 1.250 . S
O2 Mg3 2.028 . S
O2 C4 1.248 . S
Mg3 O2 2.028 . S
Mg3 O8 2.032 . S
Mg3 O10 2.079 . S
C4 O1 1.250 . S
C4 O2 1.248 . S
C5 O6 1.264 . S
C5 O13 1.249 . S
O6 C5 1.264 . S
O7 Mg0 1.986 . S
O7 C11 1.246 . S
O8 Mg3 2.032 . S
O8 C11 1.259 . S
O9 Mg0 2.114 . S
O9 C12 1.252 . S
O10 Mg0 2.251 . S
O10 Mg3 2.079 . S
O10 C12 1.273 . S
C11 O7 1.246 . S
C11 O8 1.259 . S
C12 O9 1.252 . S
C12 O10 1.273 . S
O13 Mg0 2.010 . S
O13 C5 1.249 . S
Mg14 O15 2.028 1_565 S
Mg14 O21 1.986 . S
Mg14 O23 2.114 . S
Mg14 O24 2.251 . S
Mg14 O27 2.010 . S
O15 Mg14 2.028 1_545 S
O15 C18 1.250 . S
O16 Mg17 2.028 1_545 S
O16 C18 1.248 . S
Mg17 O16 2.028 1_565 S
Mg17 O22 2.032 . S
Mg17 O24 2.079 . S
C18 O15 1.250 . S
C18 O16 1.248 . S
C19 O20 1.264 1_545 S
C19 O27 1.249 1_545 S
O20 C19 1.264 1_565 S
O21 Mg14 1.986 . S
O21 C25 1.246 . S
O22 Mg17 2.032 . S
O22 C25 1.259 . S
O23 Mg14 2.114 . S
O23 C26 1.252 . S
O24 Mg14 2.251 . S
O24 Mg17 2.079 . S
O24 C26 1.273 . S
C25 O21 1.246 . S
C25 O22 1.259 . S
C26 O23 1.252 . S
C26 O24 1.273 . S
O27 Mg14 2.010 . S
O27 C19 1.249 1_565 S
Mg28 O29 2.028 1_455 S
Mg28 O35 1.986 . S
Mg28 O37 2.114 . S
Mg28 O38 2.251 . S
Mg28 O41 2.010 . S
O29 Mg28 2.028 1_655 S
O29 C32 1.250 . S
O30 Mg31 2.028 1_655 S
O30 C32 1.248 . S
Mg31 O30 2.028 1_455 S
Mg31 O36 2.032 . S
Mg31 O38 2.079 . S
C32 O29 1.250 . S
C32 O30 1.248 . S
C33 O34 1.264 1_655 S
C33 O41 1.249 1_655 S
O34 C33 1.264 1_455 S
O35 Mg28 1.986 . S
O35 C39 1.246 . S
O36 Mg31 2.032 . S
O36 C39 1.259 . S
O37 Mg28 2.114 . S
O37 C40 1.252 . S
O38 Mg28 2.251 . S
O38 Mg31 2.079 . S
O38 C40 1.273 . S
C39 O35 1.246 . S
C39 O36 1.259 . S
C40 O37 1.252 . S
C40 O38 1.273 . S
O41 Mg28 2.010 . S
O41 C33 1.249 1_455 S
Mg42 O43 2.028 . S
Mg42 O49 1.986 . S
Mg42 O51 2.114 . S
Mg42 O52 2.251 . S
Mg42 O55 2.010 . S
O43 Mg42 2.028 . S
O43 C46 1.250 . S
O44 Mg45 2.028 . S
O44 C46 1.248 . S
Mg45 O44 2.028 . S
Mg45 O50 2.032 . S
Mg45 O52 2.079 . S
C46 O43 1.250 . S
C46 O44 1.248 . S
C47 O48 1.264 . S
C47 O55 1.249 . S
O48 C47 1.264 . S
O49 Mg42 1.986 . S
O49 C53 1.246 . S
O50 Mg45 2.032 . S
O50 C53 1.259 . S
O51 Mg42 2.114 . S
O51 C54 1.252 . S
O52 Mg42 2.251 . S
O52 Mg45 2.079 . S
O52 C54 1.273 . S
C53 O49 1.246 . S
C53 O50 1.259 . S
C54 O51 1.252 . S
C54 O52 1.273 . S
O55 Mg42 2.010 . S
O55 C47 1.249 . S
Mg56 O57 2.028 1_545 S
Mg56 O63 1.986 . S
Mg56 O65 2.114 . S
Mg56 O66 2.251 . S
Mg56 O69 2.010 . S
O57 Mg56 2.028 1_565 S
O57 C60 1.250 . S
O58 Mg59 2.028 1_565 S
O58 C60 1.248 . S
Mg59 O58 2.028 1_545 S
Mg59 O64 2.032 . S
Mg59 O66 2.079 . S
C60 O57 1.250 . S
C60 O58 1.248 . S
C61 O62 1.264 1_565 S
C61 O69 1.249 1_565 S
O62 C61 1.264 1_545 S
O63 Mg56 1.986 . S
O63 C67 1.246 . S
O64 Mg59 2.032 . S
O64 C67 1.259 . S
O65 Mg56 2.114 . S
O65 C68 1.252 . S
O66 Mg56 2.251 . S
O66 Mg59 2.079 . S
O66 C68 1.273 . S
C67 O63 1.246 . S
C67 O64 1.259 . S
C68 O65 1.252 . S
C68 O66 1.273 . S
O69 Mg56 2.010 . S
O69 C61 1.249 1_545 S
Mg70 O71 2.028 1_655 S
Mg70 O77 1.986 . S
Mg70 O79 2.114 . S
Mg70 O80 2.251 . S
Mg70 O83 2.010 . S
O71 Mg70 2.028 1_455 S
O71 C74 1.250 . S
O72 Mg73 2.028 1_455 S
O72 C74 1.248 . S
Mg73 O72 2.028 1_655 S
Mg73 O78 2.032 . S
Mg73 O80 2.079 . S
C74 O71 1.250 . S
C74 O72 1.248 . S
C75 O76 1.264 1_455 S
C75 O83 1.249 1_455 S
O76 C75 1.264 1_655 S
O77 Mg70 1.986 . S
O77 C81 1.246 . S
O78 Mg73 2.032 . S
O78 C81 1.259 . S
O79 Mg70 2.114 . S
O79 C82 1.252 . S
O80 Mg70 2.251 . S
O80 Mg73 2.079 . S
O80 C82 1.273 . S
C81 O77 1.246 . S
C81 O78 1.259 . S
C82 O79 1.252 . S
C82 O80 1.273 . S
O83 Mg70 2.010 . S
O83 C75 1.249 1_655 S
Mg84 O85 2.028 . S
Mg84 O91 1.986 . S
Mg84 O93 2.114 . S
Mg84 O94 2.251 . S
Mg84 O97 2.010 . S
O85 Mg84 2.028 . S
O85 C88 1.250 . S
O86 Mg87 2.028 . S
O86 C88 1.248 . S
Mg87 O86 2.028 . S
Mg87 O92 2.032 . S
Mg87 O94 2.079 . S
C88 O85 1.250 . S
C88 O86 1.248 . S
C89 O90 1.264 . S
C89 O97 1.249 . S
O90 C89 1.264 . S
O91 Mg84 1.986 . S
O91 C95 1.246 . S
O92 Mg87 2.032 . S
O92 C95 1.259 . S
O93 Mg84 2.114 . S
O93 C96 1.252 . S
O94 Mg84 2.251 . S
O94 Mg87 2.079 . S
O94 C96 1.273 . S
C95 O91 1.246 . S
C95 O92 1.259 . S
C96 O93 1.252 . S
C96 O94 1.273 . S
O97 Mg84 2.010 . S
O97 C89 1.249 . S
Mg98 O99 2.028 . S
Mg98 O105 1.986 . S
Mg98 O107 2.114 . S
Mg98 O108 2.251 . S
Mg98 O111 2.010 . S
O99 Mg98 2.028 . S
O99 C102 1.250 . S
O100 Mg101 2.028 . S
O100 C102 1.248 . S
Mg101 O100 2.028 . S
Mg101 O106 2.032 . S
Mg101 O108 2.079 . S
C102 O99 1.250 . S
C102 O100 1.248 . S
C103 O104 1.264 . S
C103 O111 1.249 . S
O104 C103 1.264 . S
O105 Mg98 1.986 . S
O105 C109 1.246 . S
O106 Mg101 2.032 . S
O106 C109 1.259 . S
O107 Mg98 2.114 . S
O107 C110 1.252 . S
O108 Mg98 2.251 . S
O108 Mg101 2.079 . S
O108 C110 1.273 . S
C109 O105 1.246 . S
C109 O106 1.259 . S
C110 O107 1.252 . S
C110 O108 1.273 . S
O111 Mg98 2.010 . S
O111 C103 1.249 . S
Mg112 O113 2.028 . S
Mg112 O119 1.986 . S
Mg112 O121 2.114 . S
Mg112 O122 2.251 . S
Mg112 O125 2.010 . S
O113 Mg112 2.028 . S
O113 C116 1.250 . S
O114 Mg115 2.028 . S
O114 C116 1.248 . S
Mg115 O114 2.028 . S
Mg115 O120 2.032 . S
Mg115 O122 2.079 . S
C116 O113 1.250 . S
C116 O114 1.248 . S
C117 O118 1.264 . S
C117 O125 1.249 . S
O118 C117 1.264 . S
O119 Mg112 1.986 . S
O119 C123 1.246 . S
O120 Mg115 2.032 . S
O120 C123 1.259 . S
O121 Mg112 2.114 . S
O121 C124 1.252 . S
O122 Mg112 2.251 . S
O122 Mg115 2.079 . S
O122 C124 1.273 . S
C123 O119 1.246 . S
C123 O120 1.259 . S
C124 O121 1.252 . S
C124 O122 1.273 . S
O125 Mg112 2.010 . S
O125 C117 1.249 . S
Mg126 O127 2.028 . S
Mg126 O133 1.986 . S
Mg126 O135 2.114 . S
Mg126 O136 2.251 . S
Mg126 O139 2.010 . S
O127 Mg126 2.028 . S
O127 C130 1.250 . S
O128 Mg129 2.028 . S
O128 C130 1.248 . S
Mg129 O128 2.028 . S
Mg129 O134 2.032 . S
Mg129 O136 2.079 . S
C130 O127 1.250 . S
C130 O128 1.248 . S
C131 O132 1.264 . S
C131 O139 1.249 . S
O132 C131 1.264 . S
O133 Mg126 1.986 . S
O133 C137 1.246 . S
O134 Mg129 2.032 . S
O134 C137 1.259 . S
O135 Mg126 2.114 . S
O135 C138 1.252 . S
O136 Mg126 2.251 . S
O136 Mg129 2.079 . S
O136 C138 1.273 . S
C137 O133 1.246 . S
C137 O134 1.259 . S
C138 O135 1.252 . S
C138 O136 1.273 . S
O139 Mg126 2.010 . S
O139 C131 1.249 . S
Mg140 O141 2.028 . S
Mg140 O147 1.986 . S
Mg140 O149 2.114 . S
Mg140 O150 2.251 . S
Mg140 O153 2.010 . S
O141 Mg140 2.028 . S
O141 C144 1.250 . S
O142 Mg143 2.028 . S
O142 C144 1.248 . S
Mg143 O142 2.028 . S
Mg143 O148 2.032 . S
Mg143 O150 2.079 . S
C144 O141 1.250 . S
C144 O142 1.248 . S
C145 O146 1.264 . S
C145 O153 1.249 . S
O146 C145 1.264 . S
O147 Mg140 1.986 . S
O147 C151 1.246 . S
O148 Mg143 2.032 . S
O148 C151 1.259 . S
O149 Mg140 2.114 . S
O149 C152 1.252 . S
O150 Mg140 2.251 . S
O150 Mg143 2.079 . S
O150 C152 1.273 . S
C151 O147 1.246 . S
C151 O148 1.259 . S
C152 O149 1.252 . S
C152 O150 1.273 . S
O153 Mg140 2.010 . S
O153 C145 1.249 . S
Mg154 O155 2.028 . S
Mg154 O161 1.986 . S
Mg154 O163 2.114 . S
Mg154 O164 2.251 . S
Mg154 O167 2.010 . S
O155 Mg154 2.028 . S
O155 C158 1.250 . S
O156 Mg157 2.028 . S
O156 C158 1.248 . S
Mg157 O156 2.028 . S
Mg157 O162 2.032 . S
Mg157 O164 2.079 . S
C158 O155 1.250 . S
C158 O156 1.248 . S
C159 O160 1.264 . S
C159 O167 1.249 . S
O160 C159 1.264 . S
O161 Mg154 1.986 . S
O161 C165 1.246 . S
O162 Mg157 2.032 . S
O162 C165 1.259 . S
O163 Mg154 2.114 . S
O163 C166 1.252 . S
O164 Mg154 2.251 . S
O164 Mg157 2.079 . S
O164 C166 1.273 . S
C165 O161 1.246 . S
C165 O162 1.259 . S
C166 O163 1.252 . S
C166 O164 1.273 . S
O167 Mg154 2.010 . S
O167 C159 1.249 . S
Mg168 O169 2.028 . S
Mg168 O175 1.986 . S
Mg168 O177 2.114 . S
Mg168 O178 2.251 . S
Mg168 O181 2.010 . S
O169 Mg168 2.028 . S
O169 C172 1.250 . S
O170 Mg171 2.028 . S
O170 C172 1.248 . S
Mg171 O170 2.028 . S
Mg171 O176 2.032 . S
Mg171 O178 2.079 . S
C172 O169 1.250 . S
C172 O170 1.248 . S
C173 O174 1.264 . S
C173 O181 1.249 . S
O174 C173 1.264 . S
O175 Mg168 1.986 . S
O175 C179 1.246 . S
O176 Mg171 2.032 . S
O176 C179 1.259 . S
O177 Mg168 2.114 . S
O177 C180 1.252 . S
O178 Mg168 2.251 . S
O178 Mg171 2.079 . S
O178 C180 1.273 . S
C179 O175 1.246 . S
C179 O176 1.259 . S
C180 O177 1.252 . S
C180 O178 1.273 . S
O181 Mg168 2.010 . S
O181 C173 1.249 . S
Mg182 O183 2.028 . S
Mg182 O189 1.986 . S
Mg182 O191 2.114 . S
Mg182 O192 2.251 . S
Mg182 O195 2.010 . S
O183 Mg182 2.028 . S
O183 C186 1.250 . S
O184 Mg185 2.028 . S
O184 C186 1.248 . S
Mg185 O184 2.028 . S
Mg185 O190 2.032 . S
Mg185 O192 2.079 . S
C186 O183 1.250 . S
C186 O184 1.248 . S
C187 O188 1.264 . S
C187 O195 1.249 . S
O188 C187 1.264 . S
O189 Mg182 1.986 . S
O189 C193 1.246 . S
O190 Mg185 2.032 . S
O190 C193 1.259 . S
O191 Mg182 2.114 . S
O191 C194 1.252 . S
O192 Mg182 2.251 . S
O192 Mg185 2.079 . S
O192 C194 1.273 . S
C193 O189 1.246 . S
C193 O190 1.259 . S
C194 O191 1.252 . S
C194 O192 1.273 . S
O195 Mg182 2.010 . S
O195 C187 1.249 . S
Mg196 O197 2.028 . S
Mg196 O203 1.986 . S
Mg196 O205 2.114 . S
Mg196 O206 2.251 . S
Mg196 O209 2.010 . S
O197 Mg196 2.028 . S
O197 C200 1.250 . S
O198 Mg199 2.028 . S
O198 C200 1.248 . S
Mg199 O198 2.028 . S
Mg199 O204 2.032 . S
Mg199 O206 2.079 . S
C200 O197 1.250 . S
C200 O198 1.248 . S
C201 O202 1.264 . S
C201 O209 1.249 . S
O202 C201 1.264 . S
O203 Mg196 1.986 . S
O203 C207 1.246 . S
O204 Mg199 2.032 . S
O204 C207 1.259 . S
O205 Mg196 2.114 . S
O205 C208 1.252 . S
O206 Mg196 2.251 . S
O206 Mg199 2.079 . S
O206 C208 1.273 . S
C207 O203 1.246 . S
C207 O204 1.259 . S
C208 O205 1.252 . S
C208 O206 1.273 . S
O209 Mg196 2.010 . S
O209 C201 1.249 . S
Mg210 O211 2.028 . S
Mg210 O217 1.986 . S
Mg210 O219 2.114 . S
Mg210 O220 2.251 . S
Mg210 O223 2.010 . S
O211 Mg210 2.028 . S
O211 C214 1.250 . S
O212 Mg213 2.028 . S
O212 C214 1.248 . S
Mg213 O212 2.028 . S
Mg213 O218 2.032 . S
Mg213 O220 2.079 . S
C214 O211 1.250 . S
C214 O212 1.248 . S
C215 O216 1.264 . S
C215 O223 1.249 . S
O216 C215 1.264 . S
O217 Mg210 1.986 . S
O217 C221 1.246 . S
O218 Mg213 2.032 . S
O218 C221 1.259 . S
O219 Mg210 2.114 . S
O219 C222 1.252 . S
O220 Mg210 2.251 . S
O220 Mg213 2.079 . S
O220 C222 1.273 . S
C221 O217 1.246 . S
C221 O218 1.259 . S
C222 O219 1.252 . S
C222 O220 1.273 . S
O223 Mg210 2.010 . S
O223 C215 1.249 . S
Mg224 O225 2.028 . S
Mg224 O231 1.986 . S
Mg224 O233 2.114 . S
Mg224 O234 2.251 . S
Mg224 O237 2.010 . S
O225 Mg224 2.028 . S
O225 C228 1.250 . S
O226 Mg227 2.028 . S
O226 C228 1.248 . S
Mg227 O226 2.028 . S
Mg227 O232 2.032 . S
Mg227 O234 2.079 . S
C228 O225 1.250 . S
C228 O226 1.248 . S
C229 O230 1.264 . S
C229 O237 1.249 . S
O230 C229 1.264 . S
O231 Mg224 1.986 . S
O231 C235 1.246 . S
O232 Mg227 2.032 . S
O232 C235 1.259 . S
O233 Mg224 2.114 . S
O233 C236 1.252 . S
O234 Mg224 2.251 . S
O234 Mg227 2.079 . S
O234 C236 1.273 . S
C235 O231 1.246 . S
C235 O232 1.259 . S
C236 O233 1.252 . S
C236 O234 1.273 . S
O237 Mg224 2.010 . S
O237 C229 1.249 . S
Mg238 O239 2.028 . S
Mg238 O245 1.986 . S
Mg238 O247 2.114 . S
Mg238 O248 2.251 . S
Mg238 O251 2.010 . S
O239 Mg238 2.028 . S
O239 C242 1.250 . S
O240 Mg241 2.028 . S
O240 C242 1.248 . S
Mg241 O240 2.028 . S
Mg241 O246 2.032 . S
Mg241 O248 2.079 . S
C242 O239 1.250 . S
C242 O240 1.248 . S
C243 O244 1.264 . S
C243 O251 1.249 . S
O244 C243 1.264 . S
O245 Mg238 1.986 . S
O245 C249 1.246 . S
O246 Mg241 2.032 . S
O246 C249 1.259 . S
O247 Mg238 2.114 . S
O247 C250 1.252 . S
O248 Mg238 2.251 . S
O248 Mg241 2.079 . S
O248 C250 1.273 . S
C249 O245 1.246 . S
C249 O246 1.259 . S
C250 O247 1.252 . S
C250 O248 1.273 . S
O251 Mg238 2.010 . S
O251 C243 1.249 . S
C252 C253 1.369 . S
C252 C254 1.419 . S
C252 H256 0.930 . S
C253 C252 1.369 . S
C253 C262 1.429 . S
C254 C252 1.419 . S
C254 C255 1.363 . S
C254 H257 0.929 . S
C255 C254 1.363 . S
C255 C261 1.428 . S
H256 C252 0.930 . S
H257 C254 0.929 . S
S258 N259 1.613 . S
S258 N260 1.610 . S
N259 S258 1.613 . S
N259 C262 1.350 . S
N260 S258 1.610 . S
N260 C261 1.351 . S
C261 C255 1.428 . S
C261 N260 1.351 . S
C261 C262 1.434 . S
C262 C253 1.429 . S
C262 N259 1.350 . S
C262 C261 1.434 . S
C263 C264 1.369 . S
C263 C265 1.419 . S
C263 H267 0.930 1_545 S
C264 C263 1.369 . S
C264 C273 1.429 . S
C265 C263 1.419 . S
C265 C266 1.363 . S
C265 H268 0.929 . S
C266 C265 1.363 . S
C266 C272 1.428 . S
H267 C263 0.930 1_565 S
H268 C265 0.929 . S
S269 N270 1.613 . S
S269 N271 1.610 . S
N270 S269 1.613 . S
N270 C273 1.350 . S
N271 S269 1.610 . S
N271 C272 1.351 . S
C272 C266 1.428 . S
C272 N271 1.351 . S
C272 C273 1.434 . S
C273 C264 1.429 . S
C273 N270 1.350 . S
C273 C272 1.434 . S
C274 C275 1.369 . S
C274 C276 1.419 . S
C274 H278 0.951 . S
C275 C274 1.369 . S
C275 C284 1.429 . S
C276 C274 1.419 . S
C276 C277 1.363 . S
C276 H279 0.929 1_655 S
C277 C276 1.363 . S
C277 C283 1.428 . S
H278 C274 0.951 . S
H279 C276 0.929 1_455 S
S280 N281 1.613 . S
S280 N282 1.610 . S
N281 S280 1.613 . S
N281 C284 1.350 . S
N282 S280 1.610 . S
N282 C283 1.351 . S
C283 C277 1.428 . S
C283 N282 1.351 . S
C283 C284 1.434 . S
C284 C275 1.429 . S
C284 N281 1.350 . S
C284 C283 1.434 . S
C285 C286 1.369 . S
C285 C287 1.419 . S
C285 H289 0.930 . S
C286 C285 1.369 . S
C286 C295 1.429 . S
C287 C285 1.419 . S
C287 C288 1.363 . S
C287 H290 0.929 . S
C288 C287 1.363 . S
C288 C294 1.428 . S
H289 C285 0.930 . S
H290 C287 0.929 . S
S291 N292 1.613 . S
S291 N293 1.610 . S
N292 S291 1.613 . S
N292 C295 1.350 . S
N293 S291 1.610 . S
N293 C294 1.351 . S
C294 C288 1.428 . S
C294 N293 1.351 . S
C294 C295 1.434 . S
C295 C286 1.429 . S
C295 N292 1.350 . S
C295 C294 1.434 . S
C296 C297 1.369 . S
C296 C298 1.419 . S
C296 H300 0.930 . S
C297 C296 1.369 . S
C297 C306 1.429 . S
C298 C296 1.419 . S
C298 C299 1.363 . S
C298 H301 0.929 . S
C299 C298 1.363 . S
C299 C305 1.428 . S
H300 C296 0.930 . S
H301 C298 0.929 . S
S302 N303 1.613 . S
S302 N304 1.610 . S
N303 S302 1.613 . S
N303 C306 1.350 1_545 S
N304 S302 1.610 . S
N304 C305 1.351 1_545 S
C305 C299 1.428 . S
C305 N304 1.351 1_565 S
C305 C306 1.434 . S
C306 C297 1.429 . S
C306 N303 1.350 1_565 S
C306 C305 1.434 . S
C307 C308 1.369 . S
C307 C309 1.419 . S
C307 H311 0.930 . S
C308 C307 1.369 . S
C308 C317 1.429 . S
C309 C307 1.419 . S
C309 C310 1.363 . S
C309 H312 0.929 . S
C310 C309 1.363 . S
C310 C316 1.428 . S
H311 C307 0.930 . S
H312 C309 0.929 . S
S313 N314 1.613 . S
S313 N315 1.610 . S
N314 S313 1.613 . S
N314 C317 1.350 . S
N315 S313 1.610 . S
N315 C316 1.351 . S
C316 C310 1.428 . S
C316 N315 1.351 . S
C316 C317 1.434 . S
C317 C308 1.429 . S
C317 N314 1.350 . S
C317 C316 1.434 . S
C318 C319 1.369 . S
C318 C320 1.419 1_655 S
C318 H322 0.930 . S
C319 C318 1.369 . S
C319 C328 1.429 . S
C320 C318 1.419 1_455 S
C320 C321 1.363 . S
C320 H323 0.929 . S
C321 C320 1.363 . S
C321 C327 1.428 1_455 S
H322 C318 0.930 . S
H323 C320 0.929 . S
S324 N325 1.613 . S
S324 N326 1.610 . S
N325 S324 1.613 . S
N325 C328 1.350 . S
N326 S324 1.610 . S
N326 C327 1.351 . S
C327 C321 1.428 1_655 S
C327 N326 1.351 . S
C327 C328 1.434 . S
C328 C319 1.429 . S
C328 N325 1.350 . S
C328 C327 1.434 . S
C329 C330 1.369 . S
C329 C331 1.419 . S
C329 H333 0.930 . S
C330 C329 1.369 . S
C330 C339 1.429 . S
C331 C329 1.419 . S
C331 C332 1.363 . S
C331 H334 0.929 . S
C332 C331 1.363 . S
C332 C338 1.428 . S
H333 C329 0.930 . S
H334 C331 0.929 . S
S335 N336 1.613 . S
S335 N337 1.610 . S
N336 S335 1.613 . S
N336 C339 1.350 . S
N337 S335 1.610 . S
N337 C338 1.351 . S
C338 C332 1.428 . S
C338 N337 1.351 . S
C338 C339 1.434 . S
C339 C330 1.429 . S
C339 N336 1.350 . S
C339 C338 1.434 . S
C340 C341 1.369 1_565 S
C340 C342 1.419 . S
C340 H344 0.930 . S
C341 C340 1.369 1_545 S
C341 C350 1.429 . S
C342 C340 1.419 . S
C342 C343 1.363 . S
C342 H345 0.929 . S
C343 C342 1.363 . S
C343 C349 1.428 . S
H344 C340 0.930 . S
H345 C342 0.929 . S
S346 N347 1.613 . S
S346 N348 1.610 . S
N347 S346 1.613 . S
N347 C350 1.350 . S
N348 S346 1.610 . S
N348 C349 1.351 1_545 S
C349 C343 1.428 . S
C349 N348 1.351 1_565 S
C349 C350 1.434 1_565 S
C350 C341 1.429 . S
C350 N347 1.350 . S
C350 C349 1.434 1_545 S
C351 C352 1.369 . S
C351 C353 1.419 1_455 S
C351 H355 0.930 . S
C352 C351 1.369 . S
C352 C361 1.429 . S
C353 C351 1.419 1_655 S
C353 C354 1.363 . S
C353 H356 0.929 . S
C354 C353 1.363 . S
C354 C360 1.428 . S
H355 C351 0.930 . S
H356 C353 0.929 . S
S357 N358 1.613 1_655 S
S357 N359 1.610 . S
N358 S357 1.613 1_455 S
N358 C361 1.350 . S
N359 S357 1.610 . S
N359 C360 1.351 . S
C360 C354 1.428 . S
C360 N359 1.351 . S
C360 C361 1.434 1_655 S
C361 C352 1.429 . S
C361 N358 1.350 . S
C361 C360 1.434 1_455 S
C362 C363 1.369 . S
C362 C364 1.419 . S
C362 H366 0.930 . S
C363 C362 1.369 . S
C363 C372 1.429 . S
C364 C362 1.419 . S
C364 C365 1.363 . S
C364 H367 0.929 . S
C365 C364 1.363 . S
C365 C371 1.428 . S
H366 C362 0.930 . S
H367 C364 0.929 . S
S368 N369 1.613 . S
S368 N370 1.610 . S
N369 S368 1.613 . S
N369 C372 1.350 . S
N370 S368 1.610 . S
N370 C371 1.351 . S
C371 C365 1.428 . S
C371 N370 1.351 . S
C371 C372 1.434 . S
C372 C363 1.429 . S
C372 N369 1.350 . S
C372 C371 1.434 . S
C373 C374 1.369 . S
C373 C375 1.419 . S
C373 H377 0.930 . S
C374 C373 1.369 . S
C374 C383 1.429 . S
C375 C373 1.419 . S
C375 C376 1.363 1_545 S
C375 H378 0.929 1_545 S
C376 C375 1.363 1_565 S
C376 C382 1.428 . S
H377 C373 0.930 . S
H378 C375 0.929 1_565 S
S379 N380 1.613 1_665 S
S379 N381 1.610 1_655 S
N380 S379 1.613 1_445 S
N380 C383 1.350 . S
N381 S379 1.610 1_455 S
N381 C382 1.351 . S
C382 C376 1.428 . S
C382 N381 1.351 . S
C382 C383 1.434 1_565 S
C383 C374 1.429 . S
C383 N380 1.350 . S
C383 C382 1.434 1_545 S
C384 C385 1.369 . S
C384 C386 1.419 1_565 S
C384 H388 0.930 . S
C385 C384 1.369 . S
C385 C394 1.429 . S
C386 C384 1.419 1_545 S
C386 C387 1.363 . S
C386 H389 0.929 . S
C387 C386 1.363 . S
C387 C393 1.428 . S
H388 C384 0.930 . S
H389 C386 0.929 . S
S390 N391 1.613 . S
S390 N392 1.610 1_565 S
N391 S390 1.613 . S
N391 C394 1.350 . S
N392 S390 1.610 1_545 S
N392 C393 1.351 . S
C393 C387 1.428 . S
C393 N392 1.351 . S
C393 C394 1.434 1_545 S
C394 C385 1.429 . S
C394 N391 1.350 . S
C394 C393 1.434 1_565 S
C395 C396 1.369 . S
C395 C397 1.419 1_455 S
C395 H399 0.930 . S
C396 C395 1.369 . S
C396 C405 1.429 . S
C397 C395 1.419 1_655 S
C397 C398 1.363 . S
C397 H400 0.929 . S
C398 C397 1.363 . S
C398 C404 1.428 . S
H399 C395 0.930 . S
H400 C397 0.929 . S
S401 N402 1.613 . S
S401 N403 1.610 1_455 S
N402 S401 1.613 . S
N402 C405 1.350 . S
N403 S401 1.610 1_655 S
N403 C404 1.351 . S
C404 C398 1.428 . S
C404 N403 1.351 . S
C404 C405 1.434 1_655 S
C405 C396 1.429 . S
C405 N402 1.350 . S
C405 C404 1.434 1_455 S
C406 C407 1.369 . S
C406 C408 1.419 . S
C406 H410 0.930 . S
C407 C406 1.369 . S
C407 C416 1.429 . S
C408 C406 1.419 . S
C408 C409 1.363 . S
C408 H411 0.929 . S
C409 C408 1.363 . S
C409 C415 1.428 . S
H410 C406 0.930 . S
H411 C408 0.929 . S
S412 N413 1.613 . S
S412 N414 1.610 . S
N413 S412 1.613 . S
N413 C416 1.350 . S
N414 S412 1.610 . S
N414 C415 1.351 . S
C415 C409 1.428 . S
C415 N414 1.351 . S
C415 C416 1.434 . S
C416 C407 1.429 . S
C416 N413 1.350 . S
C416 C415 1.434 . S
C417 C418 1.369 . S
C417 C419 1.419 . S
C417 H421 0.930 . S
C418 C417 1.369 . S
C418 C427 1.429 . S
C419 C417 1.419 . S
C419 C420 1.363 . S
C419 H422 0.929 . S
C420 C419 1.363 . S
C420 C426 1.428 . S
H421 C417 0.930 . S
H422 C419 0.929 . S
S423 N424 1.613 . S
S423 N425 1.610 . S
N424 S423 1.613 . S
N424 C427 1.350 . S
N425 S423 1.610 . S
N425 C426 1.351 . S
C426 C420 1.428 . S
C426 N425 1.351 . S
C426 C427 1.434 . S
C427 C418 1.429 . S
C427 N424 1.350 . S
C427 C426 1.434 . S
C428 C429 1.369 . S
C428 C430 1.419 . S
C428 H432 0.930 . S
C429 C428 1.369 . S
C429 C438 1.429 . S
C430 C428 1.419 . S
C430 C431 1.363 . S
C430 H433 0.929 . S
C431 C430 1.363 . S
C431 C437 1.428 . S
H432 C428 0.930 . S
H433 C430 0.929 . S
S434 N435 1.613 . S
S434 N436 1.610 . S
N435 S434 1.613 . S
N435 C438 1.350 . S
N436 S434 1.610 . S
N436 C437 1.351 . S
C437 C431 1.428 . S
C437 N436 1.351 . S
C437 C438 1.434 . S
C438 C429 1.429 . S
C438 N435 1.350 . S
C438 C437 1.434 . S
C439 C440 1.369 . S
C439 C441 1.419 . S
C439 H443 0.930 . S
C440 C439 1.369 . S
C440 C449 1.429 . S
C441 C439 1.419 . S
C441 C442 1.363 . S
C441 H444 0.929 . S
C442 C441 1.363 . S
C442 C448 1.428 . S
H443 C439 0.930 . S
H444 C441 0.929 . S
S445 N446 1.613 . S
S445 N447 1.610 . S
N446 S445 1.613 . S
N446 C449 1.350 . S
N447 S445 1.610 . S
N447 C448 1.351 . S
C448 C442 1.428 . S
C448 N447 1.351 . S
C448 C449 1.434 . S
C449 C440 1.429 . S
C449 N446 1.350 . S
C449 C448 1.434 . S
C450 C451 1.369 . S
C450 C452 1.419 . S
C450 H454 0.930 . S
C451 C450 1.369 . S
C451 C460 1.429 . S
C452 C450 1.419 . S
C452 C453 1.363 . S
C452 H455 0.929 . S
C453 C452 1.363 . S
C453 C459 1.428 . S
H454 C450 0.930 . S
H455 C452 0.929 . S
S456 N457 1.613 . S
S456 N458 1.610 . S
N457 S456 1.613 . S
N457 C460 1.350 . S
N458 S456 1.610 . S
N458 C459 1.351 . S
C459 C453 1.428 . S
C459 N458 1.351 . S
C459 C460 1.434 . S
C460 C451 1.429 . S
C460 N457 1.350 . S
C460 C459 1.434 . S
C461 C462 1.369 . S
C461 C463 1.419 . S
C461 H465 0.930 . S
C462 C461 1.369 . S
C462 C471 1.429 . S
C463 C461 1.419 . S
C463 C464 1.363 . S
C463 H466 0.929 . S
C464 C463 1.363 . S
C464 C470 1.428 . S
H465 C461 0.930 . S
H466 C463 0.929 . S
S467 N468 1.613 . S
S467 N469 1.610 . S
N468 S467 1.613 . S
N468 C471 1.350 . S
N469 S467 1.610 . S
N469 C470 1.351 . S
C470 C464 1.428 . S
C470 N469 1.351 . S
C470 C471 1.434 . S
C471 C462 1.429 . S
C471 N468 1.350 . S
C471 C470 1.434 . S
C472 C473 1.369 . S
C472 C474 1.419 . S
C472 H476 0.930 . S
C473 C472 1.369 . S
C473 C482 1.429 . S
C474 C472 1.419 . S
C474 C475 1.363 . S
C474 H477 0.929 . S
C475 C474 1.363 . S
C475 C481 1.428 . S
H476 C472 0.930 . S
H477 C474 0.929 . S
S478 N479 1.613 . S
S478 N480 1.610 . S
N479 S478 1.613 . S
N479 C482 1.350 . S
N480 S478 1.610 . S
N480 C481 1.351 . S
C481 C475 1.428 . S
C481 N480 1.351 . S
C481 C482 1.434 . S
C482 C473 1.429 . S
C482 N479 1.350 . S
C482 C481 1.434 . S
C483 C484 1.369 . S
C483 C485 1.419 . S
C483 H487 0.930 . S
C484 C483 1.369 . S
C484 C493 1.429 . S
C485 C483 1.419 . S
C485 C486 1.363 . S
C485 H488 0.929 . S
C486 C485 1.363 . S
C486 C492 1.428 . S
H487 C483 0.930 . S
H488 C485 0.929 . S
S489 N490 1.613 . S
S489 N491 1.610 . S
N490 S489 1.613 . S
N490 C493 1.350 . S
N491 S489 1.610 . S
N491 C492 1.351 . S
C492 C486 1.428 . S
C492 N491 1.351 . S
C492 C493 1.434 . S
C493 C484 1.429 . S
C493 N490 1.350 . S
C493 C492 1.434 . S
C494 C495 1.369 . S
C494 C496 1.419 . S
C494 H498 0.930 . S
C495 C494 1.369 . S
C495 C504 1.429 . S
C496 C494 1.419 . S
C496 C497 1.363 . S
C496 H499 0.929 . S
C497 C496 1.363 . S
C497 C503 1.428 . S
H498 C494 0.930 . S
H499 C496 0.929 . S
S500 N501 1.613 . S
S500 N502 1.610 . S
N501 S500 1.613 . S
N501 C504 1.350 . S
N502 S500 1.610 . S
N502 C503 1.351 . S
C503 C497 1.428 . S
C503 N502 1.351 . S
C503 C504 1.434 . S
C504 C495 1.429 . S
C504 N501 1.350 . S
C504 C503 1.434 . S
C505 C506 1.369 . S
C505 C507 1.419 . S
C505 H509 0.930 . S
C506 C505 1.369 . S
C506 C515 1.429 . S
C507 C505 1.419 . S
C507 C508 1.363 . S
C507 H510 0.929 . S
C508 C507 1.363 . S
C508 C514 1.428 . S
H509 C505 0.930 . S
H510 C507 0.929 . S
S511 N512 1.613 . S
S511 N513 1.610 . S
N512 S511 1.613 . S
N512 C515 1.350 . S
N513 S511 1.610 . S
N513 C514 1.351 . S
C514 C508 1.428 . S
C514 N513 1.351 . S
C514 C515 1.434 . S
C515 C506 1.429 . S
C515 N512 1.350 . S
C515 C514 1.434 . S
C516 C517 1.369 . S
C516 C518 1.419 . S
C516 H520 0.930 . S
C517 C516 1.369 . S
C517 C526 1.429 . S
C518 C516 1.419 . S
C518 C519 1.363 . S
C518 H521 0.929 . S
C519 C518 1.363 . S
C519 C525 1.428 . S
H520 C516 0.930 . S
H521 C518 0.929 . S
S522 N523 1.613 . S
S522 N524 1.610 . S
N523 S522 1.613 . S
N523 C526 1.350 . S
N524 S522 1.610 . S
N524 C525 1.351 . S
C525 C519 1.428 . S
C525 N524 1.351 . S
C525 C526 1.434 . S
C526 C517 1.429 . S
C526 N523 1.350 . S
C526 C525 1.434 . S
C527 C528 1.369 . S
C527 C529 1.419 . S
C527 H531 0.930 . S
C528 C527 1.369 . S
C528 C537 1.429 . S
C529 C527 1.419 . S
C529 C530 1.363 . S
C529 H532 0.929 . S
C530 C529 1.363 . S
C530 C536 1.428 . S
H531 C527 0.930 . S
H532 C529 0.929 . S
S533 N534 1.613 . S
S533 N535 1.610 . S
N534 S533 1.613 . S
N534 C537 1.350 . S
N535 S533 1.610 . S
N535 C536 1.351 . S
C536 C530 1.428 . S
C536 N535 1.351 . S
C536 C537 1.434 . S
C537 C528 1.429 . S
C537 N534 1.350 . S
C537 C536 1.434 . S
C538 C539 1.369 . S
C538 C540 1.419 . S
C538 H542 0.930 . S
C539 C538 1.369 . S
C539 C548 1.429 . S
C540 C538 1.419 . S
C540 C541 1.363 . S
C540 H543 0.929 . S
C541 C540 1.363 . S
C541 C547 1.428 . S
H542 C538 0.930 . S
H543 C540 0.929 . S
S544 N545 1.613 . S
S544 N546 1.610 . S
N545 S544 1.613 . S
N545 C548 1.350 . S
N546 S544 1.610 . S
N546 C547 1.351 . S
C547 C541 1.428 . S
C547 N546 1.351 . S
C547 C548 1.434 . S
C548 C539 1.429 . S
C548 N545 1.350 . S
C548 C547 1.434 . S
C549 C550 1.369 . S
C549 C551 1.419 1_554 S
C549 H553 0.930 . S
C550 C549 1.369 . S
C550 C559 1.429 . S
C551 C549 1.419 1_556 S
C551 C552 1.363 . S
C551 H554 0.929 . S
C552 C551 1.363 . S
C552 C558 1.428 . S
H553 C549 0.930 . S
H554 C551 0.929 . S
S555 N556 1.613 . S
S555 N557 1.610 1_554 S
N556 S555 1.613 . S
N556 C559 1.350 . S
N557 S555 1.610 1_556 S
N557 C558 1.351 . S
C558 C552 1.428 . S
C558 N557 1.351 . S
C558 C559 1.434 1_556 S
C559 C550 1.429 . S
C559 N556 1.350 . S
C559 C558 1.434 1_554 S
C560 C561 1.369 . S
C560 C562 1.419 1_556 S
C560 H564 0.930 . S
C561 C560 1.369 . S
C561 C570 1.429 1_545 S
C562 C560 1.419 1_554 S
C562 C563 1.363 1_545 S
C562 H565 0.929 . S
C563 C562 1.363 1_565 S
C563 C569 1.428 . S
H564 C560 0.930 . S
H565 C562 0.929 . S
S566 N567 1.613 . S
S566 N568 1.610 1_556 S
N567 S566 1.613 . S
N567 C570 1.350 . S
N568 S566 1.610 1_554 S
N568 C569 1.351 . S
C569 C563 1.428 . S
C569 N568 1.351 . S
C569 C570 1.434 1_554 S
C570 C561 1.429 1_565 S
C570 N567 1.350 . S
C570 C569 1.434 1_556 S
C571 C572 1.369 1_455 S
C571 C573 1.419 1_556 S
C571 H575 0.930 . S
C572 C571 1.369 1_655 S
C572 C581 1.429 . S
C573 C571 1.419 1_554 S
C573 C574 1.363 . S
C573 H576 0.929 . S
C574 C573 1.363 . S
C574 C580 1.428 1_455 S
H575 C571 0.930 . S
H576 C573 0.929 . S
S577 N578 1.613 1_554 S
S577 N579 1.610 . S
N578 S577 1.613 1_556 S
N578 C581 1.350 . S
N579 S577 1.610 . S
N579 C580 1.351 . S
C580 C574 1.428 1_655 S
C580 N579 1.351 . S
C580 C581 1.434 1_554 S
C581 C572 1.429 . S
C581 N578 1.350 . S
C581 C580 1.434 1_556 S
C582 C583 1.369 . S
C582 C584 1.419 . S
C582 H586 0.930 . S
C583 C582 1.369 . S
C583 C592 1.429 . S
C584 C582 1.419 . S
C584 C585 1.363 . S
C584 H587 0.929 . S
C585 C584 1.363 . S
C585 C591 1.428 . S
H586 C582 0.930 . S
H587 C584 0.929 . S
S588 N589 1.613 . S
S588 N590 1.610 . S
N589 S588 1.613 . S
N589 C592 1.350 . S
N590 S588 1.610 . S
N590 C591 1.351 . S
C591 C585 1.428 . S
C591 N590 1.351 . S
C591 C592 1.434 . S
C592 C583 1.429 . S
C592 N589 1.350 . S
C592 C591 1.434 . S
C593 C594 1.369 . S
C593 C595 1.419 . S
C593 H597 0.930 . S
C594 C593 1.369 . S
C594 C603 1.429 . S
C595 C593 1.419 . S
C595 C596 1.363 . S
C595 H598 0.929 . S
C596 C595 1.363 . S
C596 C602 1.428 . S
H597 C593 0.930 . S
H598 C595 0.929 . S
S599 N600 1.613 . S
S599 N601 1.610 . S
N600 S599 1.613 . S
N600 C603 1.350 . S
N601 S599 1.610 . S
N601 C602 1.351 . S
C602 C596 1.428 . S
C602 N601 1.351 . S
C602 C603 1.434 . S
C603 C594 1.429 . S
C603 N600 1.350 . S
C603 C602 1.434 . S
C604 C605 1.369 . S
C604 C606 1.419 . S
C604 H608 0.930 . S
C605 C604 1.369 . S
C605 C614 1.429 . S
C606 C604 1.419 . S
C606 C607 1.363 . S
C606 H609 0.929 . S
C607 C606 1.363 . S
C607 C613 1.428 . S
H608 C604 0.930 . S
H609 C606 0.929 . S
S610 N611 1.613 . S
S610 N612 1.610 . S
N611 S610 1.613 . S
N611 C614 1.350 . S
N612 S610 1.610 . S
N612 C613 1.351 . S
C613 C607 1.428 . S
C613 N612 1.351 . S
C613 C614 1.434 . S
C614 C605 1.429 . S
C614 N611 1.350 . S
C614 C613 1.434 . S
C615 C616 1.369 . S
C615 C617 1.419 . S
C615 H619 0.930 . S
C616 C615 1.369 . S
C616 C625 1.429 . S
C617 C615 1.419 . S
C617 C618 1.363 . S
C617 H620 0.929 . S
C618 C617 1.363 . S
C618 C624 1.428 . S
H619 C615 0.930 . S
H620 C617 0.929 . S
S621 N622 1.613 1_545 S
S621 N623 1.610 1_545 S
N622 S621 1.613 1_565 S
N622 C625 1.350 . S
N623 S621 1.610 1_565 S
N623 C624 1.351 . S
C624 C618 1.428 . S
C624 N623 1.351 . S
C624 C625 1.434 . S
C625 C616 1.429 . S
C625 N622 1.350 . S
C625 C624 1.434 . S
C626 C627 1.369 . S
C626 C628 1.419 . S
C626 H630 0.930 . S
C627 C626 1.369 . S
C627 C636 1.429 . S
C628 C626 1.419 . S
C628 C629 1.363 . S
C628 H631 0.929 . S
C629 C628 1.363 . S
C629 C635 1.428 . S
H630 C626 0.930 . S
H631 C628 0.929 . S
S632 N633 1.613 . S
S632 N634 1.610 . S
N633 S632 1.613 . S
N633 C636 1.350 . S
N634 S632 1.610 . S
N634 C635 1.351 . S
C635 C629 1.428 . S
C635 N634 1.351 . S
C635 C636 1.434 . S
C636 C627 1.429 . S
C636 N633 1.350 . S
C636 C635 1.434 . S
C637 C638 1.369 . S
C637 C639 1.419 . S
C637 H641 0.930 . S
C638 C637 1.369 . S
C638 C647 1.429 . S
C639 C637 1.419 . S
C639 C640 1.363 . S
C639 H642 0.929 . S
C640 C639 1.363 . S
C640 C646 1.428 . S
H641 C637 0.930 . S
H642 C639 0.929 . S
S643 N644 1.613 . S
S643 N645 1.610 . S
N644 S643 1.613 . S
N644 C647 1.350 . S
N645 S643 1.610 . S
N645 C646 1.351 . S
C646 C640 1.428 . S
C646 N645 1.351 . S
C646 C647 1.434 . S
C647 C638 1.429 . S
C647 N644 1.350 . S
C647 C646 1.434 . S
C253 C145 1.109 . S
C255 C5 1.112 . S
C264 C19 1.086 . S
C266 C159 1.111 . S
C275 C131 1.117 . S
C277 C33 1.067 . S
C286 C201 1.108 . S
C288 C47 1.111 . S
C297 C61 1.057 . S
C299 C173 1.106 . S
C308 C187 1.109 . S
C310 C75 1.082 . S
C319 C89 1.143 . S
C321 C229 1.130 . S
C330 C243 1.128 . S
C332 C103 1.124 . S
C341 C117 1.129 . S
C343 C215 1.136 . S
C352 C12 1.164 . S
C354 C18 1.220 . S
C363 C26 1.158 . S
C365 C32 1.186 . S
C374 C4 1.251 . S
C376 C40 1.192 . S
C385 C74 1.218 . S
C387 C54 1.157 . S
C396 C46 1.255 . S
C398 C68 1.198 . S
C407 C82 1.155 . S
C409 C60 1.185 . S
C418 C96 1.193 . S
C420 C102 1.271 . S
C429 C110 1.191 . S
C431 C116 1.257 . S
C440 C88 1.250 . S
C442 C124 1.189 . S
C451 C158 1.278 . S
C453 C138 1.208 . S
C462 C130 1.232 . S
C464 C152 1.165 . S
C473 C144 1.256 . S
C475 C166 1.185 . S
C484 C186 1.269 . S
C486 C180 1.199 . S
C495 C200 1.254 . S
C497 C194 1.185 . S
C506 C172 1.236 . S
C508 C208 1.170 . S
C517 C222 1.205 . S
C519 C242 1.277 . S
C528 C236 1.196 . S
C530 C214 1.256 . S
C539 C250 1.177 . S
C541 C228 1.251 . S
C550 C11 1.459 . S
C552 C53 1.458 . S
C561 C67 1.426 . S
C563 C25 1.402 . S
C572 C81 1.393 . S
C574 C39 1.418 . S
C583 C137 1.453 . S
C585 C95 1.458 . S
C594 C151 1.441 . S
C596 C109 1.444 . S
C605 C123 1.462 . S
C607 C165 1.462 . S
C616 C221 1.459 . S
C618 C179 1.453 . S
C627 C235 1.459 . S
C629 C193 1.459 . S
C638 C249 1.444 . S
C640 C207 1.437 . S
