# Generated by pormake.
# Topology sst, (4)-cn, num edge types: 1
# Building blocks:
#     Node 0, Type 0, BuildingBlock: NAWXER_clean_sbu_0, # of connection points: 4
#     Node 1, Type 0, BuildingBlock: NAWXER_clean_sbu_0, # of connection points: 4
#     Node 2, Type 0, BuildingBlock: NAWXER_clean_sbu_0, # of connection points: 4
#     Node 3, Type 0, BuildingBlock: NAWXER_clean_sbu_0, # of connection points: 4
#     Node 4, Type 0, BuildingBlock: NAWXER_clean_sbu_0, # of connection points: 4
#     Node 5, Type 0, BuildingBlock: NAWXER_clean_sbu_0, # of connection points: 4
#     Node 6, Type 0, BuildingBlock: NAWXER_clean_sbu_0, # of connection points: 4
#     Node 7, Type 0, BuildingBlock: NAWXER_clean_sbu_0, # of connection points: 4
#     Node 8, Type 0, BuildingBlock: NAWXER_clean_sbu_0, # of connection points: 4
#     Node 9, Type 0, BuildingBlock: NAWXER_clean_sbu_0, # of connection points: 4
#     Node 10, Type 0, BuildingBlock: NAWXER_clean_sbu_0, # of connection points: 4
#     Node 11, Type 0, BuildingBlock: NAWXER_clean_sbu_0, # of connection points: 4
#     Node 12, Type 0, BuildingBlock: NAWXER_clean_sbu_0, # of connection points: 4
#     Node 13, Type 0, BuildingBlock: NAWXER_clean_sbu_0, # of connection points: 4
#     Node 14, Type 0, BuildingBlock: NAWXER_clean_sbu_0, # of connection points: 4
#     Node 15, Type 0, BuildingBlock: NAWXER_clean_sbu_0, # of connection points: 4
#     Node 16, Type 0, BuildingBlock: NAWXER_clean_sbu_0, # of connection points: 4
#     Node 17, Type 0, BuildingBlock: NAWXER_clean_sbu_0, # of connection points: 4
#     Node 18, Type 0, BuildingBlock: NAWXER_clean_sbu_0, # of connection points: 4
#     Node 19, Type 0, BuildingBlock: NAWXER_clean_sbu_0, # of connection points: 4
#     Node 20, Type 0, BuildingBlock: NAWXER_clean_sbu_0, # of connection points: 4
#     Node 21, Type 0, BuildingBlock: NAWXER_clean_sbu_0, # of connection points: 4
#     Node 22, Type 0, BuildingBlock: NAWXER_clean_sbu_0, # of connection points: 4
#     Node 23, Type 0, BuildingBlock: NAWXER_clean_sbu_0, # of connection points: 4
#     Node 24, Type 0, BuildingBlock: NAWXER_clean_sbu_0, # of connection points: 4
#     Node 25, Type 0, BuildingBlock: NAWXER_clean_sbu_0, # of connection points: 4
#     Node 26, Type 0, BuildingBlock: NAWXER_clean_sbu_0, # of connection points: 4
#     Node 27, Type 0, BuildingBlock: NAWXER_clean_sbu_0, # of connection points: 4
#     Node 28, Type 0, BuildingBlock: NAWXER_clean_sbu_0, # of connection points: 4
#     Node 29, Type 0, BuildingBlock: NAWXER_clean_sbu_0, # of connection points: 4
#     Node 30, Type 0, BuildingBlock: NAWXER_clean_sbu_0, # of connection points: 4
#     Node 31, Type 0, BuildingBlock: NAWXER_clean_sbu_0, # of connection points: 4
#     Node 32, Type 0, BuildingBlock: NAWXER_clean_sbu_0, # of connection points: 4
#     Node 33, Type 0, BuildingBlock: NAWXER_clean_sbu_0, # of connection points: 4
#     Node 34, Type 0, BuildingBlock: NAWXER_clean_sbu_0, # of connection points: 4
#     Node 35, Type 0, BuildingBlock: NAWXER_clean_sbu_0, # of connection points: 4
#     Node 36, Type 0, BuildingBlock: NAWXER_clean_sbu_0, # of connection points: 4
#     Node 37, Type 0, BuildingBlock: NAWXER_clean_sbu_0, # of connection points: 4
#     Node 38, Type 0, BuildingBlock: NAWXER_clean_sbu_0, # of connection points: 4
#     Node 39, Type 0, BuildingBlock: NAWXER_clean_sbu_0, # of connection points: 4
#     Node 40, Type 0, BuildingBlock: NAWXER_clean_sbu_0, # of connection points: 4
#     Node 41, Type 0, BuildingBlock: NAWXER_clean_sbu_0, # of connection points: 4
#     Node 42, Type 0, BuildingBlock: NAWXER_clean_sbu_0, # of connection points: 4
#     Node 43, Type 0, BuildingBlock: NAWXER_clean_sbu_0, # of connection points: 4
#     Node 44, Type 0, BuildingBlock: NAWXER_clean_sbu_0, # of connection points: 4
#     Node 45, Type 0, BuildingBlock: NAWXER_clean_sbu_0, # of connection points: 4
#     Node 46, Type 0, BuildingBlock: NAWXER_clean_sbu_0, # of connection points: 4
#     Node 47, Type 0, BuildingBlock: NAWXER_clean_sbu_0, # of connection points: 4
#     Edge 48, Type (0, 0), BuildingBlock: OJICUG_clean_linker_0, # of connection points: 2
#     Edge 49, Type (0, 0), BuildingBlock: OJICUG_clean_linker_0, # of connection points: 2
#     Edge 50, Type (0, 0), BuildingBlock: OJICUG_clean_linker_0, # of connection points: 2
#     Edge 51, Type (0, 0), BuildingBlock: OJICUG_clean_linker_0, # of connection points: 2
#     Edge 52, Type (0, 0), BuildingBlock: OJICUG_clean_linker_0, # of connection points: 2
#     Edge 53, Type (0, 0), BuildingBlock: OJICUG_clean_linker_0, # of connection points: 2
#     Edge 54, Type (0, 0), BuildingBlock: OJICUG_clean_linker_0, # of connection points: 2
#     Edge 55, Type (0, 0), BuildingBlock: OJICUG_clean_linker_0, # of connection points: 2
#     Edge 56, Type (0, 0), BuildingBlock: OJICUG_clean_linker_0, # of connection points: 2
#     Edge 57, Type (0, 0), BuildingBlock: OJICUG_clean_linker_0, # of connection points: 2
#     Edge 58, Type (0, 0), BuildingBlock: OJICUG_clean_linker_0, # of connection points: 2
#     Edge 59, Type (0, 0), BuildingBlock: OJICUG_clean_linker_0, # of connection points: 2
#     Edge 60, Type (0, 0), BuildingBlock: OJICUG_clean_linker_0, # of connection points: 2
#     Edge 61, Type (0, 0), BuildingBlock: OJICUG_clean_linker_0, # of connection points: 2
#     Edge 62, Type (0, 0), BuildingBlock: OJICUG_clean_linker_0, # of connection points: 2
#     Edge 63, Type (0, 0), BuildingBlock: OJICUG_clean_linker_0, # of connection points: 2
#     Edge 64, Type (0, 0), BuildingBlock: OJICUG_clean_linker_0, # of connection points: 2
#     Edge 65, Type (0, 0), BuildingBlock: OJICUG_clean_linker_0, # of connection points: 2
#     Edge 66, Type (0, 0), BuildingBlock: OJICUG_clean_linker_0, # of connection points: 2
#     Edge 67, Type (0, 0), BuildingBlock: OJICUG_clean_linker_0, # of connection points: 2
#     Edge 68, Type (0, 0), BuildingBlock: OJICUG_clean_linker_0, # of connection points: 2
#     Edge 69, Type (0, 0), BuildingBlock: OJICUG_clean_linker_0, # of connection points: 2
#     Edge 70, Type (0, 0), BuildingBlock: OJICUG_clean_linker_0, # of connection points: 2
#     Edge 71, Type (0, 0), BuildingBlock: OJICUG_clean_linker_0, # of connection points: 2
#     Edge 72, Type (0, 0), BuildingBlock: OJICUG_clean_linker_0, # of connection points: 2
#     Edge 73, Type (0, 0), BuildingBlock: OJICUG_clean_linker_0, # of connection points: 2
#     Edge 74, Type (0, 0), BuildingBlock: OJICUG_clean_linker_0, # of connection points: 2
#     Edge 75, Type (0, 0), BuildingBlock: OJICUG_clean_linker_0, # of connection points: 2
#     Edge 76, Type (0, 0), BuildingBlock: OJICUG_clean_linker_0, # of connection points: 2
#     Edge 77, Type (0, 0), BuildingBlock: OJICUG_clean_linker_0, # of connection points: 2
#     Edge 78, Type (0, 0), BuildingBlock: OJICUG_clean_linker_0, # of connection points: 2
#     Edge 79, Type (0, 0), BuildingBlock: OJICUG_clean_linker_0, # of connection points: 2
#     Edge 80, Type (0, 0), BuildingBlock: OJICUG_clean_linker_0, # of connection points: 2
#     Edge 81, Type (0, 0), BuildingBlock: OJICUG_clean_linker_0, # of connection points: 2
#     Edge 82, Type (0, 0), BuildingBlock: OJICUG_clean_linker_0, # of connection points: 2
#     Edge 83, Type (0, 0), BuildingBlock: OJICUG_clean_linker_0, # of connection points: 2
#     Edge 84, Type (0, 0), BuildingBlock: OJICUG_clean_linker_0, # of connection points: 2
#     Edge 85, Type (0, 0), BuildingBlock: OJICUG_clean_linker_0, # of connection points: 2
#     Edge 86, Type (0, 0), BuildingBlock: OJICUG_clean_linker_0, # of connection points: 2
#     Edge 87, Type (0, 0), BuildingBlock: OJICUG_clean_linker_0, # of connection points: 2
#     Edge 88, Type (0, 0), BuildingBlock: OJICUG_clean_linker_0, # of connection points: 2
#     Edge 89, Type (0, 0), BuildingBlock: OJICUG_clean_linker_0, # of connection points: 2
#     Edge 90, Type (0, 0), BuildingBlock: OJICUG_clean_linker_0, # of connection points: 2
#     Edge 91, Type (0, 0), BuildingBlock: OJICUG_clean_linker_0, # of connection points: 2
#     Edge 92, Type (0, 0), BuildingBlock: OJICUG_clean_linker_0, # of connection points: 2
#     Edge 93, Type (0, 0), BuildingBlock: OJICUG_clean_linker_0, # of connection points: 2
#     Edge 94, Type (0, 0), BuildingBlock: OJICUG_clean_linker_0, # of connection points: 2
#     Edge 95, Type (0, 0), BuildingBlock: OJICUG_clean_linker_0, # of connection points: 2
#     Edge 96, Type (0, 0), BuildingBlock: OJICUG_clean_linker_0, # of connection points: 2
#     Edge 97, Type (0, 0), BuildingBlock: OJICUG_clean_linker_0, # of connection points: 2
#     Edge 98, Type (0, 0), BuildingBlock: OJICUG_clean_linker_0, # of connection points: 2
#     Edge 99, Type (0, 0), BuildingBlock: OJICUG_clean_linker_0, # of connection points: 2
#     Edge 100, Type (0, 0), BuildingBlock: OJICUG_clean_linker_0, # of connection points: 2
#     Edge 101, Type (0, 0), BuildingBlock: OJICUG_clean_linker_0, # of connection points: 2
#     Edge 102, Type (0, 0), BuildingBlock: OJICUG_clean_linker_0, # of connection points: 2
#     Edge 103, Type (0, 0), BuildingBlock: OJICUG_clean_linker_0, # of connection points: 2
#     Edge 104, Type (0, 0), BuildingBlock: OJICUG_clean_linker_0, # of connection points: 2
#     Edge 105, Type (0, 0), BuildingBlock: OJICUG_clean_linker_0, # of connection points: 2
#     Edge 106, Type (0, 0), BuildingBlock: OJICUG_clean_linker_0, # of connection points: 2
#     Edge 107, Type (0, 0), BuildingBlock: OJICUG_clean_linker_0, # of connection points: 2
#     Edge 108, Type (0, 0), BuildingBlock: OJICUG_clean_linker_0, # of connection points: 2
#     Edge 109, Type (0, 0), BuildingBlock: OJICUG_clean_linker_0, # of connection points: 2
#     Edge 110, Type (0, 0), BuildingBlock: OJICUG_clean_linker_0, # of connection points: 2
#     Edge 111, Type (0, 0), BuildingBlock: OJICUG_clean_linker_0, # of connection points: 2
#     Edge 112, Type (0, 0), BuildingBlock: OJICUG_clean_linker_0, # of connection points: 2
#     Edge 113, Type (0, 0), BuildingBlock: OJICUG_clean_linker_0, # of connection points: 2
#     Edge 114, Type (0, 0), BuildingBlock: OJICUG_clean_linker_0, # of connection points: 2
#     Edge 115, Type (0, 0), BuildingBlock: OJICUG_clean_linker_0, # of connection points: 2
#     Edge 116, Type (0, 0), BuildingBlock: OJICUG_clean_linker_0, # of connection points: 2
#     Edge 117, Type (0, 0), BuildingBlock: OJICUG_clean_linker_0, # of connection points: 2
#     Edge 118, Type (0, 0), BuildingBlock: OJICUG_clean_linker_0, # of connection points: 2
#     Edge 119, Type (0, 0), BuildingBlock: OJICUG_clean_linker_0, # of connection points: 2
#     Edge 120, Type (0, 0), BuildingBlock: OJICUG_clean_linker_0, # of connection points: 2
#     Edge 121, Type (0, 0), BuildingBlock: OJICUG_clean_linker_0, # of connection points: 2
#     Edge 122, Type (0, 0), BuildingBlock: OJICUG_clean_linker_0, # of connection points: 2
#     Edge 123, Type (0, 0), BuildingBlock: OJICUG_clean_linker_0, # of connection points: 2
#     Edge 124, Type (0, 0), BuildingBlock: OJICUG_clean_linker_0, # of connection points: 2
#     Edge 125, Type (0, 0), BuildingBlock: OJICUG_clean_linker_0, # of connection points: 2
#     Edge 126, Type (0, 0), BuildingBlock: OJICUG_clean_linker_0, # of connection points: 2
#     Edge 127, Type (0, 0), BuildingBlock: OJICUG_clean_linker_0, # of connection points: 2
#     Edge 128, Type (0, 0), BuildingBlock: OJICUG_clean_linker_0, # of connection points: 2
#     Edge 129, Type (0, 0), BuildingBlock: OJICUG_clean_linker_0, # of connection points: 2
#     Edge 130, Type (0, 0), BuildingBlock: OJICUG_clean_linker_0, # of connection points: 2
#     Edge 131, Type (0, 0), BuildingBlock: OJICUG_clean_linker_0, # of connection points: 2
#     Edge 132, Type (0, 0), BuildingBlock: OJICUG_clean_linker_0, # of connection points: 2
#     Edge 133, Type (0, 0), BuildingBlock: OJICUG_clean_linker_0, # of connection points: 2
#     Edge 134, Type (0, 0), BuildingBlock: OJICUG_clean_linker_0, # of connection points: 2
#     Edge 135, Type (0, 0), BuildingBlock: OJICUG_clean_linker_0, # of connection points: 2
#     Edge 136, Type (0, 0), BuildingBlock: OJICUG_clean_linker_0, # of connection points: 2
#     Edge 137, Type (0, 0), BuildingBlock: OJICUG_clean_linker_0, # of connection points: 2
#     Edge 138, Type (0, 0), BuildingBlock: OJICUG_clean_linker_0, # of connection points: 2
#     Edge 139, Type (0, 0), BuildingBlock: OJICUG_clean_linker_0, # of connection points: 2
#     Edge 140, Type (0, 0), BuildingBlock: OJICUG_clean_linker_0, # of connection points: 2
#     Edge 141, Type (0, 0), BuildingBlock: OJICUG_clean_linker_0, # of connection points: 2
#     Edge 142, Type (0, 0), BuildingBlock: OJICUG_clean_linker_0, # of connection points: 2
#     Edge 143, Type (0, 0), BuildingBlock: OJICUG_clean_linker_0, # of connection points: 2
# Relax obj value: 0.000
# Max RMSD: 0.000
# Mean RMSD: 0.000
data_MOF--net-sst--node1-NAWXER_clean_sbu_0--edge1-OJICUG_clean_linker_0
_symmetry_space_group_name_H-M    P1
_symmetry_Int_Tables_number       1
_symmetry_cell_setting            triclinic
loop_
_symmetry_equiv_pos_as_xyz
'x, y, z'
_cell_length_a     42.138451
_cell_length_b     41.942489
_cell_length_c     41.806478
_cell_angle_alpha  96.817245
_cell_angle_beta   96.275704
_cell_angle_gamma 96.737027
loop_
_atom_site_label
_atom_site_type_symbol
_atom_site_fract_x
_atom_site_fract_y
_atom_site_fract_z
_atom_type_partial_charge
C0 C 0.20185 0.23955 0.37101 0.0
C1 C 0.19818 0.12962 0.4044 0.0
O2 O 0.20111 0.21407 0.35073 0.0
Zn3 Zn 0.19793 0.18334 0.38309 0.0
O4 O 0.19879 0.23717 0.40072 0.0
Zn5 Zn 0.19468 0.20275 0.43356 0.0
O6 O 0.23561 0.21931 0.46199 0.0
O7 O 0.24232 0.20111 0.41162 0.0
O8 O 0.19643 0.15235 0.42712 0.0
O9 O 0.19969 0.13642 0.37561 0.0
O10 O 0.15027 0.18553 0.39302 0.0
O11 O 0.1504 0.20526 0.44425 0.0
C12 C 0.25409 0.21477 0.44006 0.0
C13 C 0.13477 0.19409 0.41651 0.0
C14 C 0.94348 0.2351 0.43421 0.0
C15 C 0.92499 0.11525 0.42101 0.0
O16 O 0.94195 0.22038 0.40545 0.0
Zn17 Zn 0.93486 0.17363 0.37921 0.0
O18 O 0.93885 0.21913 0.45786 0.0
Zn19 Zn 0.93328 0.17577 0.43217 0.0
O20 O 0.97977 0.17656 0.41801 0.0
O21 O 0.97836 0.17367 0.36487 0.0
O22 O 0.9269 0.13324 0.44819 0.0
O23 O 0.92787 0.12834 0.39526 0.0
O24 O 0.89245 0.1732 0.35267 0.0
O25 O 0.88842 0.17675 0.40513 0.0
C26 C 0.99462 0.1762 0.39295 0.0
C27 C 0.87525 0.17554 0.37596 0.0
C28 C 0.9113 0.97482 0.40611 0.0
C29 C 0.90816 0.85555 0.38852 0.0
O30 O 0.90376 0.95714 0.37867 0.0
Zn31 Zn 0.90728 0.91482 0.39367 0.0
O32 O 0.91827 0.96151 0.43146 0.0
Zn33 Zn 0.92196 0.91547 0.44581 0.0
O34 O 0.96854 0.91975 0.4604 0.0
O35 O 0.95737 0.91867 0.40743 0.0
O36 O 0.91615 0.86921 0.41775 0.0
O37 O 0.90003 0.87234 0.36619 0.0
O38 O 0.869 0.91116 0.4218 0.0
O39 O 0.88701 0.91206 0.47364 0.0
C40 C 0.97808 0.92012 0.43245 0.0
C41 C 0.86362 0.91061 0.45119 0.0
C42 C 0.18587 0.99657 0.43289 0.0
C43 C 0.18039 0.8801 0.45032 0.0
O44 O 0.1761 0.9751 0.40841 0.0
Zn45 Zn 0.16707 0.92465 0.39458 0.0
O46 O 0.19256 0.98762 0.46079 0.0
Zn47 Zn 0.18441 0.93994 0.44645 0.0
O48 O 0.22061 0.93742 0.41575 0.0
O49 O 0.20008 0.91978 0.3649 0.0
O50 O 0.19109 0.90365 0.47258 0.0
O51 O 0.17127 0.88595 0.42171 0.0
O52 O 0.12043 0.91892 0.38212 0.0
O53 O 0.13373 0.93309 0.4349 0.0
C54 C 0.22443 0.93038 0.38598 0.0
C55 C 0.11207 0.92524 0.4104 0.0
C56 C 0.14653 0.9446 0.62061 0.0
C57 C 0.14279 0.82698 0.60098 0.0
O58 O 0.14395 0.92718 0.5931 0.0
Zn59 Zn 0.1434 0.88523 0.60764 0.0
O60 O 0.14904 0.93126 0.64662 0.0
Zn61 Zn 0.14852 0.88404 0.66023 0.0
O62 O 0.19255 0.88275 0.68193 0.0
O63 O 0.19079 0.88569 0.6294 0.0
O64 O 0.14495 0.83926 0.63069 0.0
O65 O 0.1396 0.84457 0.57827 0.0
O66 O 0.09967 0.88094 0.62755 0.0
O67 O 0.10806 0.87976 0.68035 0.0
C68 C 0.20684 0.88335 0.65655 0.0
C69 C 0.08857 0.87931 0.65463 0.0
C70 C 0.12459 0.19748 0.62963 0.0
C71 C 0.13102 0.08047 0.62762 0.0
O72 O 0.12588 0.18108 0.60216 0.0
Zn73 Zn 0.12734 0.13422 0.57967 0.0
O74 O 0.12621 0.18365 0.65528 0.0
Zn75 Zn 0.12928 0.13974 0.63367 0.0
O76 O 0.17486 0.14492 0.61725 0.0
O77 O 0.17033 0.13718 0.56367 0.0
O78 O 0.1314 0.09963 0.65385 0.0
O79 O 0.1291 0.09161 0.60047 0.0
O80 O 0.08297 0.12684 0.55468 0.0
O81 O 0.08305 0.13041 0.60774 0.0
C82 C 0.18801 0.14291 0.59109 0.0
C83 C 0.06747 0.1265 0.57931 0.0
C84 C 0.8891 0.21404 0.6476 0.0
C85 C 0.89792 0.10055 0.66558 0.0
O86 O 0.88063 0.19378 0.62174 0.0
Zn87 Zn 0.88013 0.14262 0.60708 0.0
O88 O 0.90124 0.20399 0.67315 0.0
Zn89 Zn 0.89558 0.1574 0.65725 0.0
O90 O 0.93364 0.15046 0.62729 0.0
O91 O 0.91193 0.13922 0.57615 0.0
O92 O 0.90282 0.12527 0.68724 0.0
O93 O 0.88952 0.10423 0.6359 0.0
O94 O 0.83499 0.12994 0.59162 0.0
O95 O 0.84399 0.14725 0.64421 0.0
C96 C 0.93675 0.14338 0.59714 0.0
C97 C 0.82422 0.1369 0.6185 0.0
C98 C 0.90554 0.96664 0.68458 0.0
C99 C 0.8768 0.84825 0.68794 0.0
O100 O 0.90389 0.94785 0.65781 0.0
Zn101 Zn 0.89477 0.89803 0.63836 0.0
O102 O 0.90214 0.95417 0.71063 0.0
Zn103 Zn 0.89438 0.90796 0.69039 0.0
O104 O 0.94025 0.899 0.67663 0.0
O105 O 0.93508 0.8891 0.62323 0.0
O106 O 0.88253 0.86973 0.71287 0.0
O107 O 0.88069 0.85641 0.66002 0.0
O108 O 0.85579 0.89839 0.60874 0.0
O109 O 0.85019 0.90987 0.66075 0.0
C110 C 0.9526 0.89178 0.65046 0.0
C111 C 0.83846 0.90636 0.63077 0.0
C112 C 0.44315 0.20814 0.17565 0.0
C113 C 0.43803 0.08763 0.16542 0.0
O114 O 0.46795 0.19353 0.17969 0.0
Zn115 Zn 0.44518 0.14828 0.17157 0.0
O116 O 0.41531 0.19173 0.16868 0.0
Zn117 Zn 0.39272 0.14365 0.15977 0.0
O118 O 0.36569 0.14314 0.19457 0.0
O119 O 0.41793 0.14674 0.21148 0.0
O120 O 0.41147 0.09935 0.16098 0.0
O121 O 0.46442 0.10687 0.1714 0.0
O122 O 0.42925 0.14713 0.12195 0.0
O123 O 0.37614 0.14172 0.11441 0.0
C124 C 0.38864 0.14471 0.21745 0.0
C125 C 0.403 0.14509 0.10298 0.0
C126 C 0.94877 0.40167 0.13385 0.0
C127 C 0.83192 0.39216 0.13426 0.0
O128 O 0.92814 0.37637 0.12806 0.0
Zn129 Zn 0.89078 0.39603 0.13801 0.0
O130 O 0.93976 0.4288 0.14429 0.0
Zn131 Zn 0.89458 0.44618 0.15383 0.0
O132 O 0.89912 0.46039 0.20012 0.0
O133 O 0.89888 0.40764 0.18948 0.0
O134 O 0.84555 0.42144 0.14264 0.0
O135 O 0.84909 0.36943 0.13025 0.0
O136 O 0.88758 0.42755 0.10092 0.0
O137 O 0.89419 0.47858 0.12445 0.0
C138 C 0.90104 0.43318 0.21007 0.0
C139 C 0.88963 0.458 0.09891 0.0
C140 C 0.61828 0.93143 0.13325 0.0
C141 C 0.63668 0.82078 0.14973 0.0
O142 O 0.64814 0.92805 0.13933 0.0
Zn143 Zn 0.6773 0.891 0.14988 0.0
O144 O 0.59699 0.90721 0.13278 0.0
Zn145 Zn 0.62653 0.87532 0.14041 0.0
O146 O 0.64509 0.88678 0.19074 0.0
O147 O 0.69687 0.90498 0.19529 0.0
O148 O 0.6099 0.83032 0.14071 0.0
O149 O 0.66278 0.84059 0.15304 0.0
O150 O 0.70315 0.88877 0.11315 0.0
O151 O 0.6515 0.87251 0.09814 0.0
C152 C 0.67184 0.89707 0.20861 0.0
C153 C 0.68018 0.87808 0.09063 0.0
C154 C 0.20213 0.65365 0.16695 0.0
C155 C 0.08551 0.6512 0.14464 0.0
O156 O 0.18075 0.62905 0.15973 0.0
Zn157 Zn 0.14367 0.65174 0.15483 0.0
O158 O 0.19367 0.68215 0.16862 0.0
Zn159 Zn 0.14969 0.70352 0.16246 0.0
O160 O 0.14913 0.72573 0.20662 0.0
O161 O 0.14033 0.67243 0.20329 0.0
O162 O 0.10053 0.68012 0.15108 0.0
O163 O 0.10147 0.62725 0.14351 0.0
O164 O 0.15062 0.67414 0.11245 0.0
O165 O 0.15515 0.72714 0.12455 0.0
C166 C 0.14281 0.70039 0.22003 0.0
C167 C 0.15469 0.70239 0.10357 0.0
C168 C 0.38224 0.96931 0.91397 0.0
C169 C 0.40124 0.85553 0.91998 0.0
O170 O 0.40907 0.96061 0.92457 0.0
Zn171 Zn 0.39526 0.91387 0.9173 0.0
O172 O 0.35796 0.94781 0.90389 0.0
Zn173 Zn 0.34545 0.89656 0.89682 0.0
O174 O 0.31306 0.89102 0.92746 0.0
O175 O 0.36208 0.91064 0.95113 0.0
O176 O 0.37319 0.85927 0.90714 0.0
O177 O 0.42218 0.8803 0.92933 0.0
O178 O 0.38743 0.90804 0.86586 0.0
O179 O 0.33635 0.8896 0.84922 0.0
C180 C 0.33237 0.90191 0.95312 0.0
C181 C 0.36439 0.89967 0.84272 0.0
C182 C 0.20265 0.40118 0.9014 0.0
C183 C 0.08608 0.39735 0.88948 0.0
O184 O 0.18826 0.37314 0.88879 0.0
Zn185 Zn 0.13948 0.34962 0.87617 0.0
O186 O 0.18634 0.42327 0.91102 0.0
Zn187 Zn 0.14457 0.39926 0.89532 0.0
O188 O 0.13762 0.36583 0.92996 0.0
O189 O 0.13638 0.31608 0.90526 0.0
O190 O 0.10755 0.42166 0.89822 0.0
O191 O 0.09459 0.36962 0.88029 0.0
O192 O 0.13958 0.33754 0.82968 0.0
O193 O 0.14776 0.39041 0.84403 0.0
C194 C 0.13482 0.3352 0.93086 0.0
C195 C 0.14611 0.3659 0.82215 0.0
C196 C 0.65296 0.16648 0.84663 0.0
C197 C 0.66107 0.05489 0.86893 0.0
O198 O 0.67909 0.15468 0.85297 0.0
Zn199 Zn 0.66048 0.11064 0.85725 0.0
O200 O 0.62591 0.14871 0.84538 0.0
Zn201 Zn 0.6077 0.101 0.85156 0.0
O202 O 0.58669 0.10754 0.8917 0.0
O203 O 0.63959 0.11846 0.9006 0.0
O204 O 0.63271 0.06242 0.86297 0.0
O205 O 0.6855 0.07573 0.86802 0.0
O206 O 0.63896 0.09082 0.80977 0.0
O207 O 0.58604 0.08283 0.8078 0.0
C208 C 0.61236 0.11643 0.91151 0.0
C209 C 0.61125 0.08072 0.79373 0.0
C210 C 0.94675 0.62667 0.91147 0.0
C211 C 0.83071 0.62635 0.89904 0.0
O212 O 0.93106 0.59901 0.89945 0.0
Zn213 Zn 0.88199 0.57724 0.8863 0.0
O214 O 0.93169 0.65052 0.91912 0.0
Zn215 Zn 0.8892 0.62784 0.90616 0.0
O216 O 0.88713 0.59511 0.94092 0.0
O217 O 0.87753 0.54462 0.91665 0.0
O218 O 0.85178 0.64998 0.91156 0.0
O219 O 0.83936 0.59906 0.88892 0.0
O220 O 0.88068 0.56601 0.8392 0.0
O221 O 0.88985 0.61882 0.85484 0.0
C222 C 0.88259 0.56471 0.94259 0.0
C223 C 0.8866 0.59474 0.8323 0.0
C224 C 0.19734 0.38056 0.11303 0.0
C225 C 0.08127 0.39159 0.1131 0.0
O226 O 0.17964 0.35561 0.11907 0.0
Zn227 Zn 0.13055 0.33919 0.12158 0.0
O228 O 0.18477 0.40605 0.10812 0.0
Zn229 Zn 0.13991 0.39004 0.11312 0.0
O230 O 0.14159 0.38328 0.16246 0.0
O231 O 0.12983 0.33155 0.16739 0.0
O232 O 0.1027 0.41476 0.10981 0.0
O233 O 0.08958 0.36378 0.11687 0.0
O234 O 0.12162 0.30593 0.08246 0.0
O235 O 0.12876 0.35619 0.07104 0.0
C236 C 0.13664 0.36102 0.18044 0.0
C237 C 0.12277 0.32579 0.0616 0.0
C238 C 0.19763 0.64669 0.89796 0.0
C239 C 0.0838 0.64331 0.90901 0.0
O240 O 0.17733 0.62194 0.89852 0.0
Zn241 Zn 0.14001 0.64399 0.90214 0.0
O242 O 0.18858 0.67492 0.89966 0.0
Zn243 Zn 0.14489 0.69574 0.90441 0.0
O244 O 0.15407 0.72254 0.94785 0.0
O245 O 0.15062 0.67003 0.9498 0.0
O246 O 0.09783 0.67203 0.90844 0.0
O247 O 0.09963 0.6193 0.906 0.0
O248 O 0.12902 0.66043 0.8561 0.0
O249 O 0.13719 0.71384 0.86314 0.0
C250 C 0.1551 0.69904 0.96454 0.0
C251 C 0.12863 0.68726 0.84438 0.0
C252 C 0.35633 0.21887 0.92315 0.0
C253 C 0.3679 0.10294 0.8998 0.0
O254 O 0.38499 0.21202 0.92257 0.0
Zn255 Zn 0.41047 0.17287 0.91197 0.0
O256 O 0.33237 0.19702 0.9135 0.0
Zn257 Zn 0.35731 0.1603 0.90543 0.0
O258 O 0.38064 0.16132 0.95227 0.0
O259 O 0.4335 0.17341 0.9562 0.0
O260 O 0.34074 0.11379 0.89837 0.0
O261 O 0.39386 0.12281 0.90347 0.0
O262 O 0.42891 0.18206 0.87178 0.0
O263 O 0.3764 0.16729 0.86229 0.0
C264 C 0.40809 0.16602 0.96942 0.0
C265 C 0.40313 0.1756 0.85187 0.0
C266 C 0.95318 0.40895 0.9073 0.0
C267 C 0.83629 0.40173 0.9051 0.0
O268 O 0.9331 0.38419 0.9085 0.0
Zn269 Zn 0.89439 0.405 0.90787 0.0
O270 O 0.94329 0.43672 0.90752 0.0
Zn271 Zn 0.89849 0.45612 0.90786 0.0
O272 O 0.90316 0.48466 0.94882 0.0
O273 O 0.89664 0.43258 0.95407 0.0
O274 O 0.84968 0.43085 0.90481 0.0
O275 O 0.85349 0.37886 0.90677 0.0
O276 O 0.89023 0.42114 0.8612 0.0
O277 O 0.89692 0.47482 0.8678 0.0
C278 C 0.89961 0.46229 0.96657 0.0
C279 C 0.89188 0.44795 0.84923 0.0
C280 C 0.66403 0.92111 0.88684 0.0
C281 C 0.64627 0.80386 0.87096 0.0
O282 O 0.69043 0.90901 0.89146 0.0
Zn283 Zn 0.7045 0.86186 0.89392 0.0
O284 O 0.63733 0.90263 0.88221 0.0
Zn285 Zn 0.65347 0.86212 0.88356 0.0
O286 O 0.6688 0.86241 0.93346 0.0
O287 O 0.72127 0.86278 0.9406 0.0
O288 O 0.62439 0.82233 0.87175 0.0
O289 O 0.67584 0.81554 0.87996 0.0
O290 O 0.73103 0.85881 0.8577 0.0
O291 O 0.67917 0.85944 0.84227 0.0
C292 C 0.69476 0.86295 0.9526 0.0
C293 C 0.70769 0.8576 0.83517 0.0
C294 C 0.94617 0.63244 0.13471 0.0
C295 C 0.82938 0.62937 0.11874 0.0
O296 O 0.93124 0.6045 0.13732 0.0
Zn297 Zn 0.88174 0.58213 0.13549 0.0
O298 O 0.93017 0.65577 0.13016 0.0
Zn299 Zn 0.88807 0.63221 0.12903 0.0
O300 O 0.88804 0.62427 0.17834 0.0
O301 O 0.87889 0.57178 0.1801 0.0
O302 O 0.85054 0.6539 0.1203 0.0
O303 O 0.83806 0.602 0.12401 0.0
O304 O 0.87854 0.54829 0.09796 0.0
O305 O 0.88647 0.59842 0.08609 0.0
C306 C 0.88415 0.60059 0.19484 0.0
C307 C 0.88272 0.56779 0.07717 0.0
C308 C 0.41834 0.94689 0.14611 0.0
C309 C 0.40199 0.82887 0.11216 0.0
O310 O 0.439 0.92961 0.13595 0.0
Zn311 Zn 0.41144 0.88789 0.13024 0.0
O312 O 0.39002 0.93308 0.14886 0.0
Zn313 Zn 0.36294 0.88476 0.14083 0.0
O314 O 0.35367 0.87664 0.18393 0.0
O315 O 0.40559 0.88094 0.17954 0.0
O316 O 0.37688 0.8397 0.12152 0.0
O317 O 0.42788 0.84822 0.11371 0.0
O318 O 0.37563 0.89385 0.09104 0.0
O319 O 0.32756 0.88864 0.10802 0.0
C320 C 0.38244 0.87664 0.19676 0.0
C321 C 0.34499 0.89336 0.08562 0.0
C322 C 0.584 0.17822 0.12272 0.0
C323 C 0.59328 0.06076 0.11166 0.0
O324 O 0.61179 0.17061 0.11846 0.0
Zn325 Zn 0.63575 0.12978 0.11151 0.0
O326 O 0.56049 0.1561 0.12265 0.0
Zn327 Zn 0.58459 0.11854 0.11491 0.0
O328 O 0.61587 0.1242 0.15939 0.0
O329 O 0.6665 0.13713 0.15117 0.0
O330 O 0.56685 0.07239 0.11412 0.0
O331 O 0.61884 0.07996 0.11001 0.0
O332 O 0.64854 0.13232 0.06873 0.0
O333 O 0.59584 0.12051 0.06624 0.0
C334 C 0.64576 0.13101 0.17038 0.0
C335 C 0.62092 0.12617 0.05191 0.0
C336 C 0.62858 0.66884 0.83638 0.0
C337 C 0.62854 0.55334 0.84175 0.0
O338 O 0.6264 0.64734 0.81175 0.0
Zn339 Zn 0.62836 0.61097 0.83675 0.0
O340 O 0.63242 0.66128 0.86509 0.0
Zn341 Zn 0.63565 0.62036 0.88921 0.0
O342 O 0.67883 0.62983 0.91201 0.0
O343 O 0.6774 0.61923 0.85875 0.0
O344 O 0.63264 0.5712 0.86931 0.0
O345 O 0.62414 0.56619 0.8158 0.0
O346 O 0.58557 0.61316 0.85958 0.0
O347 O 0.59913 0.62179 0.91277 0.0
C348 C 0.69351 0.62629 0.88708 0.0
C349 C 0.5776 0.61802 0.8883 0.0
C350 C 0.40498 0.72157 0.94024 0.0
C351 C 0.40156 0.60735 0.96231 0.0
O352 O 0.39908 0.7002 0.9151 0.0
Zn353 Zn 0.3922 0.64926 0.90269 0.0
O354 O 0.40795 0.71224 0.9682 0.0
Zn355 Zn 0.40061 0.66463 0.95408 0.0
O356 O 0.44247 0.65705 0.93051 0.0
O357 O 0.42716 0.64226 0.87802 0.0
O358 O 0.4041 0.63166 0.98433 0.0
O359 O 0.3963 0.61147 0.93241 0.0
O360 O 0.34899 0.64064 0.88087 0.0
O361 O 0.35062 0.65469 0.93376 0.0
C362 C 0.44932 0.64791 0.902 0.0
C363 C 0.33444 0.646 0.90559 0.0
C364 C 0.41224 0.47289 0.96713 0.0
C365 C 0.37875 0.35489 0.95427 0.0
O366 O 0.40859 0.45867 0.93785 0.0
Zn367 Zn 0.39684 0.41138 0.9116 0.0
O368 O 0.40999 0.45596 0.99034 0.0
Zn369 Zn 0.39996 0.4131 0.96341 0.0
O370 O 0.44376 0.40302 0.94374 0.0
O371 O 0.43426 0.40269 0.89083 0.0
O372 O 0.38743 0.37271 0.98145 0.0
O373 O 0.38203 0.36677 0.92789 0.0
O374 O 0.35676 0.41529 0.88587 0.0
O375 O 0.35387 0.41861 0.93869 0.0
C376 C 0.45331 0.3992 0.91554 0.0
C377 C 0.34045 0.41869 0.9097 0.0
C378 C 0.63373 0.41691 0.84678 0.0
C379 C 0.63738 0.30116 0.84973 0.0
O380 O 0.6295 0.39518 0.8221 0.0
Zn381 Zn 0.63223 0.35908 0.84719 0.0
O382 O 0.63785 0.40874 0.87542 0.0
Zn383 Zn 0.64016 0.36604 0.89893 0.0
O384 O 0.6832 0.37539 0.9223 0.0
O385 O 0.68209 0.37023 0.86884 0.0
O386 O 0.6414 0.31747 0.87808 0.0
O387 O 0.62962 0.31496 0.82511 0.0
O388 O 0.589 0.3614 0.86985 0.0
O389 O 0.60262 0.36629 0.92268 0.0
C390 C 0.69801 0.37577 0.89735 0.0
C391 C 0.58098 0.36486 0.89866 0.0
C392 C 0.64314 0.43426 0.1605 0.0
C393 C 0.61195 0.31605 0.13844 0.0
O394 O 0.64326 0.42212 0.13084 0.0
Zn395 Zn 0.63483 0.37572 0.10088 0.0
O396 O 0.63612 0.41559 0.18131 0.0
Zn397 Zn 0.62992 0.37516 0.15111 0.0
O398 O 0.67824 0.37193 0.13936 0.0
O399 O 0.67672 0.3731 0.08659 0.0
O400 O 0.61589 0.33377 0.16581 0.0
O401 O 0.61889 0.32881 0.11325 0.0
O402 O 0.5986 0.38093 0.06948 0.0
O403 O 0.58775 0.38249 0.12022 0.0
C404 C 0.69276 0.37202 0.11391 0.0
C405 C 0.5788 0.38403 0.09016 0.0
C406 C 0.64742 0.68946 0.17133 0.0
C407 C 0.65273 0.57298 0.17601 0.0
O408 O 0.64054 0.67084 0.14437 0.0
Zn409 Zn 0.63727 0.62167 0.12485 0.0
O410 O 0.65651 0.67794 0.19724 0.0
Zn411 Zn 0.65165 0.63233 0.17727 0.0
O412 O 0.68996 0.63443 0.14816 0.0
O413 O 0.6707 0.62217 0.09614 0.0
O414 O 0.65793 0.59459 0.2008 0.0
O415 O 0.64514 0.58107 0.14795 0.0
O416 O 0.59158 0.6137 0.10921 0.0
O417 O 0.60133 0.62526 0.16258 0.0
C418 C 0.69452 0.63034 0.11826 0.0
C419 C 0.5813 0.61899 0.13667 0.0
C420 C 0.38983 0.69124 0.10091 0.0
C421 C 0.37692 0.57568 0.11598 0.0
O422 O 0.37849 0.66801 0.07865 0.0
Zn423 Zn 0.37987 0.63247 0.10557 0.0
O424 O 0.39629 0.68559 0.1301 0.0
Zn425 Zn 0.39444 0.64641 0.15742 0.0
O426 O 0.43966 0.64849 0.17433 0.0
O427 O 0.42978 0.63473 0.12114 0.0
O428 O 0.38479 0.59586 0.14187 0.0
O429 O 0.37117 0.58617 0.08875 0.0
O430 O 0.34137 0.63765 0.13337 0.0
O431 O 0.36044 0.65436 0.18473 0.0
C432 C 0.44966 0.64028 0.14719 0.0
C433 C 0.33659 0.64603 0.16269 0.0
C434 C 0.39171 0.44197 0.12841 0.0
C435 C 0.41246 0.33263 0.14949 0.0
O436 O 0.38709 0.42097 0.10294 0.0
Zn437 Zn 0.38761 0.37004 0.09005 0.0
O438 O 0.3998 0.43317 0.15599 0.0
Zn439 Zn 0.39936 0.38747 0.14093 0.0
O440 O 0.43827 0.39029 0.11235 0.0
O441 O 0.42136 0.37086 0.06102 0.0
O442 O 0.41201 0.35703 0.17056 0.0
O443 O 0.40326 0.33439 0.1195 0.0
O444 O 0.34162 0.35752 0.07402 0.0
O445 O 0.34926 0.3745 0.12657 0.0
C446 C 0.44415 0.38362 0.08305 0.0
C447 C 0.33011 0.36453 0.1005 0.0
C448 C 0.85108 0.70918 0.66694 0.0
C449 C 0.82858 0.59074 0.63081 0.0
O450 O 0.87643 0.69539 0.66471 0.0
Zn451 Zn 0.88847 0.6484 0.6496 0.0
O452 O 0.82364 0.69235 0.65847 0.0
Zn453 Zn 0.8376 0.64962 0.64635 0.0
O454 O 0.85965 0.63739 0.69137 0.0
O455 O 0.91198 0.63864 0.68959 0.0
O456 O 0.80711 0.60941 0.63483 0.0
O457 O 0.8584 0.6027 0.63485 0.0
O458 O 0.90975 0.65406 0.61097 0.0
O459 O 0.85735 0.65421 0.60123 0.0
C460 C 0.88755 0.63344 0.7046 0.0
C461 C 0.88508 0.65566 0.59103 0.0
C462 C 0.45553 0.86151 0.65904 0.0
C463 C 0.33688 0.8592 0.6452 0.0
O464 O 0.43559 0.83559 0.655 0.0
Zn465 Zn 0.39527 0.85573 0.65024 0.0
O466 O 0.44484 0.88879 0.65921 0.0
Zn467 Zn 0.40178 0.90911 0.6542 0.0
O468 O 0.40148 0.93297 0.69815 0.0
O469 O 0.39396 0.87982 0.69701 0.0
O470 O 0.35385 0.88679 0.64714 0.0
O471 O 0.35048 0.83354 0.64549 0.0
O472 O 0.39759 0.87424 0.60524 0.0
O473 O 0.40454 0.92765 0.61308 0.0
C474 C 0.39552 0.90814 0.71256 0.0
C475 C 0.4013 0.90122 0.59371 0.0
C476 C 0.11677 0.44916 0.64228 0.0
C477 C 0.1081 0.33057 0.62533 0.0
O478 O 0.14335 0.43753 0.64071 0.0
Zn479 Zn 0.16126 0.39291 0.63321 0.0
O480 O 0.09043 0.43 0.63855 0.0
Zn481 Zn 0.10895 0.3894 0.63154 0.0
O482 O 0.13417 0.38789 0.67777 0.0
O483 O 0.18666 0.39198 0.67567 0.0
O484 O 0.08403 0.34625 0.62683 0.0
O485 O 0.13648 0.34552 0.62639 0.0
O486 O 0.17892 0.39575 0.5918 0.0
O487 O 0.12592 0.39186 0.58539 0.0
C488 C 0.16274 0.38854 0.69178 0.0
C489 C 0.15259 0.39455 0.5732 0.0
C490 C 0.68686 0.12315 0.62477 0.0
C491 C 0.56946 0.12167 0.61888 0.0
O492 O 0.67048 0.09564 0.61354 0.0
Zn493 Zn 0.62138 0.07386 0.60242 0.0
O494 O 0.67237 0.14702 0.63386 0.0
Zn495 Zn 0.62861 0.12496 0.62088 0.0
O496 O 0.62379 0.09373 0.6564 0.0
O497 O 0.6178 0.04251 0.63423 0.0
O498 O 0.59083 0.14636 0.62635 0.0
O499 O 0.57786 0.0943 0.60855 0.0
O500 O 0.62017 0.06203 0.55495 0.0
O501 O 0.62874 0.11477 0.56997 0.0
C502 C 0.61926 0.06363 0.65915 0.0
C503 C 0.62626 0.09061 0.54764 0.0
C504 C 0.97304 0.48608 0.41568 0.0
C505 C 0.95764 0.36851 0.4157 0.0
O506 O 0.99556 0.46835 0.41525 0.0
Zn507 Zn 0.96712 0.42684 0.41078 0.0
O508 O 0.94368 0.47306 0.41247 0.0
Zn509 Zn 0.91618 0.42669 0.40602 0.0
O510 O 0.89286 0.43093 0.44252 0.0
O511 O 0.94534 0.43146 0.45545 0.0
O512 O 0.93128 0.38072 0.41154 0.0
O513 O 0.98428 0.38589 0.41452 0.0
O514 O 0.94481 0.42266 0.36146 0.0
O515 O 0.89285 0.4238 0.36341 0.0
C516 C 0.91704 0.43214 0.46396 0.0
C517 C 0.91634 0.42253 0.34697 0.0
C518 C 0.72757 0.90885 0.43397 0.0
C519 C 0.61286 0.91914 0.40631 0.0
O520 O 0.7109 0.88261 0.41937 0.0
Zn521 Zn 0.66226 0.86585 0.39862 0.0
O522 O 0.71408 0.93437 0.43797 0.0
Zn523 Zn 0.67068 0.91579 0.41794 0.0
O524 O 0.6566 0.88207 0.45092 0.0
O525 O 0.65098 0.83208 0.42531 0.0
O526 O 0.63503 0.94193 0.4187 0.0
O527 O 0.62034 0.89079 0.398 0.0
O528 O 0.66475 0.85399 0.35296 0.0
O529 O 0.67498 0.90686 0.36658 0.0
C530 C 0.64991 0.8514 0.45092 0.0
C531 C 0.67173 0.88197 0.34484 0.0
C532 C 0.16147 0.7408 0.4412 0.0
C533 C 0.16249 0.62367 0.40739 0.0
O534 O 0.18478 0.72439 0.44514 0.0
Zn535 Zn 0.16223 0.68214 0.42429 0.0
O536 O 0.13396 0.72612 0.4276 0.0
Zn537 Zn 0.11271 0.67735 0.40719 0.0
O538 O 0.07973 0.66725 0.43517 0.0
O539 O 0.12948 0.66741 0.45819 0.0
O540 O 0.13449 0.63261 0.40158 0.0
O541 O 0.18605 0.64489 0.41989 0.0
O542 O 0.15158 0.69038 0.37416 0.0
O543 O 0.09872 0.68226 0.36261 0.0
C544 C 0.09894 0.66268 0.45929 0.0
C545 C 0.12628 0.68947 0.35376 0.0
C546 C 0.49385 0.20878 0.39856 0.0
C547 C 0.38573 0.22833 0.4264 0.0
O548 O 0.4748 0.18352 0.40148 0.0
Zn549 Zn 0.42767 0.17031 0.41184 0.0
O550 O 0.48403 0.23638 0.40273 0.0
Zn551 Zn 0.43946 0.22153 0.41104 0.0
O552 O 0.4457 0.20631 0.458 0.0
O553 O 0.43417 0.15302 0.45203 0.0
O554 O 0.40673 0.25036 0.41989 0.0
O555 O 0.3909 0.19878 0.42322 0.0
O556 O 0.40777 0.1427 0.37285 0.0
O557 O 0.41713 0.19422 0.36591 0.0
C558 C 0.44182 0.1799 0.47046 0.0
C559 C 0.40611 0.16475 0.35456 0.0
C560 C 0.70397 0.89399 0.63026 0.0
C561 C 0.59316 0.86841 0.65445 0.0
O562 O 0.69498 0.86382 0.63071 0.0
Zn563 Zn 0.65412 0.83222 0.63959 0.0
O564 O 0.68536 0.91478 0.63783 0.0
Zn565 Zn 0.6498 0.88326 0.64477 0.0
O566 O 0.66999 0.86771 0.68773 0.0
O567 O 0.67182 0.81522 0.67914 0.0
O568 O 0.60922 0.89615 0.655 0.0
O569 O 0.60699 0.84299 0.64891 0.0
O570 O 0.64558 0.80683 0.59596 0.0
O571 O 0.63817 0.8582 0.5969 0.0
C572 C 0.67769 0.84188 0.69815 0.0
C573 C 0.63797 0.83015 0.58095 0.0
C574 C 0.73769 0.17026 0.37778 0.0
C575 C 0.62329 0.18452 0.37701 0.0
O576 O 0.71934 0.14317 0.36969 0.0
Zn577 Zn 0.66801 0.1269 0.36615 0.0
O578 O 0.72522 0.19533 0.38722 0.0
Zn579 Zn 0.68011 0.17696 0.37943 0.0
O580 O 0.67146 0.14961 0.41939 0.0
O581 O 0.66203 0.09813 0.39893 0.0
O582 O 0.64761 0.2063 0.38335 0.0
O583 O 0.62778 0.15481 0.37008 0.0
O584 O 0.65929 0.10754 0.32179 0.0
O585 O 0.67351 0.16048 0.32739 0.0
C586 C 0.66418 0.1198 0.42326 0.0
C587 C 0.66561 0.13323 0.30906 0.0
C588 C 0.92619 0.7218 0.38913 0.0
C589 C 0.95901 0.61652 0.40723 0.0
O590 O 0.95434 0.71421 0.3952 0.0
Zn591 Zn 0.94327 0.6688 0.39832 0.0
O592 O 0.9018 0.70005 0.38793 0.0
Zn593 Zn 0.89396 0.6493 0.3936 0.0
O594 O 0.87177 0.64872 0.43219 0.0
O595 O 0.9231 0.66829 0.44407 0.0
O596 O 0.92841 0.61665 0.4036 0.0
O597 O 0.97774 0.64195 0.40477 0.0
O598 O 0.92216 0.64946 0.34951 0.0
O599 O 0.87198 0.62855 0.35117 0.0
C600 C 0.89572 0.65973 0.45348 0.0
C601 C 0.89525 0.63447 0.33485 0.0
C602 C 0.47623 0.93012 0.39947 0.0
C603 C 0.35943 0.93643 0.38427 0.0
O604 O 0.4579 0.90317 0.39767 0.0
Zn605 Zn 0.4083 0.88466 0.39424 0.0
O606 O 0.46372 0.95637 0.39983 0.0
Zn607 Zn 0.4183 0.93661 0.39528 0.0
O608 O 0.41357 0.92208 0.44204 0.0
O609 O 0.40376 0.86889 0.43602 0.0
O610 O 0.38125 0.96089 0.38896 0.0
O611 O 0.36722 0.90819 0.38641 0.0
O612 O 0.40177 0.85625 0.35277 0.0
O613 O 0.41345 0.90827 0.34821 0.0
C614 C 0.40795 0.89584 0.4545 0.0
C615 C 0.40678 0.87868 0.33511 0.0
C616 C 0.17685 0.48622 0.38517 0.0
C617 C 0.19974 0.37291 0.36924 0.0
O618 O 0.20429 0.47636 0.38543 0.0
Zn619 Zn 0.19062 0.42949 0.37957 0.0
O620 O 0.15156 0.4652 0.38162 0.0
Zn621 Zn 0.14001 0.41331 0.37631 0.0
O622 O 0.12282 0.40461 0.41672 0.0
O623 O 0.17505 0.4203 0.42508 0.0
O624 O 0.1701 0.37623 0.37022 0.0
O625 O 0.22116 0.39772 0.37499 0.0
O626 O 0.16551 0.41903 0.33114 0.0
O627 O 0.11441 0.40143 0.33356 0.0
C628 C 0.14889 0.41072 0.43614 0.0
C629 C 0.13741 0.40727 0.31676 0.0
C630 C 0.43936 0.12796 0.6496 0.0
C631 C 0.32398 0.14154 0.62917 0.0
O632 O 0.41633 0.10459 0.64302 0.0
Zn633 Zn 0.38097 0.13157 0.6444 0.0
O634 O 0.43287 0.15692 0.6555 0.0
Zn635 Zn 0.39305 0.18375 0.65447 0.0
O636 O 0.39756 0.20337 0.69983 0.0
O637 O 0.38487 0.15028 0.69465 0.0
O638 O 0.34268 0.1682 0.63872 0.0
O639 O 0.33558 0.11487 0.6295 0.0
O640 O 0.39306 0.15529 0.60506 0.0
O641 O 0.40582 0.20803 0.61939 0.0
C642 C 0.392 0.17766 0.71279 0.0
C643 C 0.40337 0.18312 0.59807 0.0
C644 C 0.83256 0.45707 0.63679 0.0
C645 C 0.86288 0.34736 0.64718 0.0
O646 O 0.86267 0.45567 0.64372 0.0
Zn647 Zn 0.89513 0.42156 0.65387 0.0
O648 O 0.81245 0.4315 0.63491 0.0
Zn649 Zn 0.84517 0.40195 0.64285 0.0
O650 O 0.86181 0.41678 0.69309 0.0
O651 O 0.91297 0.43796 0.6978 0.0
O652 O 0.83477 0.3546 0.63951 0.0
O653 O 0.88674 0.37005 0.65336 0.0
O654 O 0.92152 0.42659 0.61955 0.0
O655 O 0.87065 0.4075 0.60206 0.0
C656 C 0.88769 0.43057 0.71077 0.0
C657 C 0.89906 0.41755 0.5962 0.0
C658 C 0.13951 0.70029 0.62824 0.0
C659 C 0.12344 0.5883 0.65002 0.0
O660 O 0.16227 0.68338 0.63378 0.0
Zn661 Zn 0.13478 0.64633 0.64438 0.0
O662 O 0.11092 0.69021 0.63338 0.0
Zn663 Zn 0.08363 0.64823 0.64472 0.0
O664 O 0.07064 0.6616 0.68798 0.0
O665 O 0.12328 0.66291 0.691 0.0
O666 O 0.09751 0.60151 0.6484 0.0
O667 O 0.1503 0.60548 0.6494 0.0
O668 O 0.10596 0.63507 0.59852 0.0
O669 O 0.05503 0.64068 0.6027 0.0
C670 C 0.09827 0.66741 0.70482 0.0
C671 C 0.07715 0.63471 0.58507 0.0
C672 C 0.19024 0.0378 0.39443 0.0
C673 C 0.19055 0.031 0.42675 0.0
H674 H 0.1927 0.07372 0.36207 0.0
C675 C 0.19492 0.05708 0.45182 0.0
H676 H 0.18732 1.01841 0.37435 0.0
C677 C 0.19794 0.08911 0.44456 0.0
C678 C 0.19699 0.09575 0.41211 0.0
H679 H 0.19541 0.05278 0.4769 0.0
H680 H 0.2007 0.10869 0.46444 0.0
C681 C 0.19351 0.06964 0.38723 0.0
C682 C 0.08035 0.19376 0.43618 0.0
C683 C 0.09892 0.19025 0.41049 0.0
H684 H 0.03328 0.19184 0.45078 0.0
C685 C 0.08286 0.18215 0.37853 0.0
H686 H 0.09178 0.19989 0.461 0.0
C687 C 0.04908 0.17759 0.37247 0.0
C688 C 0.03053 0.18072 0.39826 0.0
H689 H 0.0964 0.17931 0.35803 0.0
H690 H 0.03757 0.17145 0.34769 0.0
C691 C 0.04667 0.18894 0.43017 0.0
C692 C 0.90999 0.02722 0.38264 0.0
C693 C 0.91289 1.01066 0.40977 0.0
H694 H 0.91143 0.07299 0.36499 0.0
C695 C 0.91843 0.02882 0.44103 0.0
H696 H 0.90567 1.01409 0.35832 0.0
C697 C 0.9217 0.06274 0.445 0.0
C698 C 0.91968 0.0793 0.4178 0.0
H699 H 0.92062 1.01685 0.46259 0.0
H700 H 0.92643 0.07593 0.46928 0.0
C701 C 0.91341 0.06108 0.3866 0.0
C702 C 1.0209 0.9172 0.39553 0.0
C703 C 1.01252 0.92126 0.42742 0.0
H704 H 0.05854 0.91511 0.36507 0.0
C705 C 0.03718 0.92624 0.45356 0.0
H706 H 1.00254 0.9131 0.37469 0.0
C707 C 0.06943 0.92748 0.44789 0.0
C708 C 0.07775 0.92357 0.41596 0.0
H709 H 0.03161 0.92938 0.47834 0.0
H710 H 0.08788 0.93149 0.46866 0.0
C711 C 0.05306 0.91826 0.38988 0.0
C712 C 0.13795 0.99399 0.59468 0.0
C713 C 0.14386 0.97967 0.62294 0.0
H714 H 0.12875 0.03642 0.5741 0.0
C715 C 0.14515 0.99872 0.65337 0.0
H716 H 0.13654 0.98007 0.5709 0.0
C717 C 0.14055 0.03146 0.65536 0.0
C718 C 0.13452 0.04565 0.62695 0.0
H719 H 0.14949 0.98831 0.67569 0.0
H720 H 0.14187 0.04559 0.67901 0.0
C721 C 0.13328 0.02644 0.59664 0.0
C722 C 0.98652 0.11869 0.60908 0.0
C723 C 0.9684 0.13552 0.58829 0.0
H724 H 0.03103 0.10102 0.62115 0.0
C725 C 0.9813 0.14473 0.56051 0.0
H726 H 0.97695 0.11047 0.63016 0.0
C727 C 1.01304 0.13957 0.55539 0.0
C728 C 0.03181 0.12456 0.57767 0.0
H729 H 0.96762 0.15742 0.54386 0.0
H730 H 0.02345 0.14906 0.53533 0.0
C731 C 1.01749 0.11299 0.60366 0.0
C732 C 0.89882 0.05722 0.70348 0.0
C733 C 0.9032 0.06761 0.67321 0.0
H734 H 0.89596 1.0169 0.73119 0.0
C735 C 0.91169 0.04548 0.64874 0.0
H736 H 0.89239 0.07378 0.72289 0.0
C737 C 0.91429 1.01354 0.6536 0.0
C738 C 0.90805 1.00226 0.683 0.0
H739 H 0.91589 0.05272 0.62536 0.0
H740 H 0.92018 0.99732 0.6336 0.0
C741 C 0.901 0.0247 0.70828 0.0
C742 C 0.03305 0.87406 0.62505 0.0
C743 C 0.0533 0.87924 0.65485 0.0
H744 H 0.98589 0.87402 0.60027 0.0
C745 C 0.03976 0.88705 0.68354 0.0
H746 H 0.04251 0.86779 0.6024 0.0
C747 C 1.00694 0.89072 0.68223 0.0
C748 C 0.98704 0.88661 0.65221 0.0
H749 H 0.05466 0.89133 0.70683 0.0
H750 H 0.99732 0.89737 0.70471 0.0
C751 C 1.00045 0.87772 0.62374 0.0
C752 C 0.37664 0.15078 0.04809 0.0
C753 C 0.40476 0.14947 0.06865 0.0
H754 H 0.35586 0.15771 1.00137 0.0
C755 C 0.43479 0.15438 0.05663 0.0
H756 H 0.35324 0.14746 0.05658 0.0
C757 C 0.43651 0.16039 0.02453 0.0
C758 C 0.4082 0.16159 1.00402 0.0
H759 H 0.45704 0.15375 0.07206 0.0
H760 H 0.45977 0.16378 1.01578 0.0
C761 C 0.37833 0.15684 1.01632 0.0
C762 C 0.91754 0.48737 0.02411 0.0
C763 C 0.89408 0.46908 1.00052 0.0
H764 H 0.93396 0.4989 0.07521 0.0
C765 C 0.8665 0.4526 1.01003 0.0
H766 H 0.93905 0.50006 1.0171 0.0
C767 C 0.86358 0.45198 0.04273 0.0
C768 C 0.88816 0.46792 0.06645 0.0
H769 H 0.8481 0.43845 0.99208 0.0
H770 H 0.84321 0.43708 0.04946 0.0
C771 C 0.91453 0.48684 0.05715 0.0
C772 C 0.66242 0.85806 0.9989 0.0
C773 C 0.69275 0.86469 0.98825 0.0
H774 H 0.63487 0.85681 0.03869 0.0
C775 C 0.71972 0.87457 1.01188 0.0
H776 H 0.64104 0.8502 0.98161 0.0
C777 C 0.71609 0.87862 0.04526 0.0
C778 C 0.68545 0.87265 0.05566 0.0
H779 H 0.74343 0.87999 1.00459 0.0
H780 H 0.73716 0.88686 0.06284 0.0
C781 C 0.65885 0.86188 0.0319 0.0
C782 C 0.1523 0.73121 0.0197 0.0
C783 C 0.15954 0.70349 1.00078 0.0
H784 H 0.14505 0.75293 0.06739 0.0
C785 C 0.16813 0.67748 1.0167 0.0
H786 H 0.14551 0.75165 1.00821 0.0
C787 C 0.16765 0.67811 0.05004 0.0
C788 C 0.1587 0.70484 0.06888 0.0
H789 H 0.17431 0.65589 1.00317 0.0
H790 H 0.1736 0.65704 0.06094 0.0
C791 C 0.15195 0.7319 0.05355 0.0
C792 C 0.34067 0.92783 0.04188 0.0
C793 C 0.33098 0.89854 0.05313 0.0
H794 H 0.34681 0.95222 1.0005 0.0
C795 C 0.31422 0.87252 0.03109 0.0
H796 H 0.35386 0.94807 0.05845 0.0
C797 C 0.31026 0.8748 0.99763 0.0
C798 C 0.32304 0.90315 0.98618 0.0
H799 H 0.30703 0.84952 0.03932 0.0
H800 H 0.30049 0.85341 0.98072 0.0
C801 C 0.33647 0.93021 1.00874 0.0
C802 C 0.14669 0.30516 0.9787 0.0
C803 C 0.12654 0.32317 0.96114 0.0
H804 H 0.16071 0.29089 0.02549 0.0
C805 C 0.10064 0.33463 0.97526 0.0
H806 H 0.16702 0.29638 0.96836 0.0
C807 C 0.09663 0.33087 1.00733 0.0
C808 C 0.11863 0.31588 0.02618 0.0
H809 H 0.08477 0.34857 0.96218 0.0
H810 H 0.07817 0.34258 0.01842 0.0
C811 C 0.14285 0.30169 1.01122 0.0
C812 C 0.58789 0.11454 0.99656 0.0
C813 C 0.61758 0.12554 1.01603 0.0
H814 H 0.5626 0.10311 0.94816 0.0
C815 C 0.64431 0.13575 1.00082 0.0
H816 H 0.56671 0.10665 1.00754 0.0
C817 C 0.64182 0.13409 0.9671 0.0
C818 C 0.61257 0.12193 0.94738 0.0
H819 H 0.66741 0.14472 1.01495 0.0
H820 H 0.66329 0.14171 0.95644 0.0
C821 C 0.58542 0.11268 0.96254 0.0
C822 C 0.85868 0.53969 0.98774 0.0
C823 C 0.88544 0.5547 0.97531 0.0
H824 H 0.83693 0.53146 0.03091 0.0
C825 C 0.91307 0.56788 0.99673 0.0
H826 H 0.83691 0.52989 0.97168 0.0
C827 C 0.91301 0.56897 0.03015 0.0
C828 C 0.88539 0.55669 0.04291 0.0
H829 H 0.93387 0.57983 0.98772 0.0
H830 H 0.93379 0.58162 0.04617 0.0
C831 C 0.85866 0.54067 0.02154 0.0
C832 C 0.03732 0.42598 0.1249 0.0
C833 C 0.04698 0.39577 0.11505 0.0
H834 H 0.99874 0.4516 0.13908 0.0
C835 C 0.02382 0.36802 0.11039 0.0
H836 H 0.05461 0.44774 0.12896 0.0
C837 C 0.99216 0.37011 0.11637 0.0
C838 C 0.98258 0.40002 0.12729 0.0
H839 H 0.03032 0.34432 0.10267 0.0
H840 H 0.97529 0.34805 0.11281 0.0
C841 C 1.00541 0.42808 0.13104 0.0
C842 C 0.03171 0.60755 0.90757 0.0
C843 C 0.0492 0.63866 0.91244 0.0
H844 H 0.9855 0.57937 0.90367 0.0
C845 C 0.03308 0.6657 0.91949 0.0
H846 H 0.04349 0.58627 0.90226 0.0
C847 C 0.9999 0.6618 0.92047 0.0
C848 C 0.98219 0.63079 0.91421 0.0
H849 H 0.04597 0.69003 0.92369 0.0
H850 H 0.98803 0.68314 0.9251 0.0
C851 C 0.99849 0.60365 0.90836 0.0
C852 C 0.40562 0.02699 0.91314 0.0
C853 C 0.3786 1.00364 0.91105 0.0
H854 H 0.42341 0.07616 0.91037 0.0
C855 C 0.3477 1.01291 0.90411 0.0
H856 H 0.42969 1.02064 0.91808 0.0
C857 C 0.34393 0.0449 0.89964 0.0
C858 C 0.37099 0.06827 0.90169 0.0
H859 H 0.32629 0.99543 0.90223 0.0
H860 H 0.31987 0.05135 0.89488 0.0
C861 C 0.40188 0.05882 0.90835 0.0
C862 C 0.04179 0.43091 0.89982 0.0
C863 C 0.05182 0.40032 0.89279 0.0
H864 H 1.00299 0.4576 0.91006 0.0
C865 C 0.02919 0.3725 0.89109 0.0
H866 H 0.05861 0.45283 0.90149 0.0
C867 C 0.99734 0.37522 0.89646 0.0
C868 C 0.98731 0.40582 0.9034 0.0
H869 H 0.03617 0.34854 0.88607 0.0
H870 H 0.98052 0.35331 0.89488 0.0
C871 C 1.00991 0.43363 0.9049 0.0
C872 C 0.63558 1.00222 0.88151 0.0
C873 C 0.66372 0.02168 0.87648 0.0
H874 H 0.61371 0.95562 0.88879 0.0
C875 C 0.6928 1.00838 0.87728 0.0
H876 H 0.61275 1.01169 0.88158 0.0
C877 C 0.69328 0.97579 0.88171 0.0
C878 C 0.66468 0.95615 0.88528 0.0
H879 H 0.71483 0.02279 0.87358 0.0
H880 H 0.71579 0.96574 0.88132 0.0
C881 C 0.63603 0.96992 0.88572 0.0
C882 C 0.0328 0.61492 0.13895 0.0
C883 C 0.04979 0.64608 0.14045 0.0
H884 H 0.98685 0.58621 0.1362 0.0
C885 C 0.03235 0.67264 0.13947 0.0
H886 H 0.04547 0.59395 0.13975 0.0
C887 C 0.99874 0.66821 0.13738 0.0
C888 C 0.98178 0.63715 0.13647 0.0
H889 H 0.04466 0.69698 0.14056 0.0
H890 H 0.98611 0.68923 0.13685 0.0
C891 C 0.99918 0.61052 0.13709 0.0
C892 C 0.40743 0.03446 0.17046 0.0
C893 C 0.43616 0.05177 0.16394 0.0
H894 H 0.37957 0.98862 0.1703 0.0
C895 C 0.46051 0.0342 0.15364 0.0
H896 H 0.38826 0.0471 0.17883 0.0
C897 C 0.45535 1.0 0.14848 0.0
C898 C 0.42587 0.98288 0.15377 0.0
H899 H 0.48287 0.0468 0.14833 0.0
H900 H 0.47407 0.98704 0.13957 0.0
C901 C 0.4024 1.0007 0.16553 0.0
C902 C 0.62654 1.01546 0.10868 0.0
C903 C 0.59674 0.02606 0.11361 0.0
H904 H 0.65645 0.97801 0.11115 0.0
C905 C 0.57273 1.00419 0.12321 0.0
H906 H 0.64562 0.03129 0.10096 0.0
C907 C 0.57906 0.97289 0.12887 0.0
C908 C 0.60959 0.96324 0.12543 0.0
H909 H 0.54956 1.01155 0.12733 0.0
H910 H 0.5605 0.95672 0.13695 0.0
C911 C 0.6329 0.98476 0.11469 0.0
C912 C 0.62437 0.46277 0.81399 0.0
C913 C 0.63346 0.45166 0.8437 0.0
H914 H 0.61548 0.50402 0.7898 0.0
C915 C 0.64154 0.47426 0.87184 0.0
H916 H 0.61802 0.44589 0.79189 0.0
C917 C 0.63993 0.50693 0.87069 0.0
C918 C 0.63029 0.51826 0.84134 0.0
H919 H 0.64894 0.46679 0.89514 0.0
H920 H 0.64629 0.52331 0.89314 0.0
C921 C 0.62283 0.49595 0.81281 0.0
C922 C 0.53601 0.63486 0.92273 0.0
C923 C 0.5442 0.62345 0.8922 0.0
H924 H 0.49984 0.65213 0.94963 0.0
C925 C 0.52095 0.62032 0.86476 0.0
H926 H 0.55343 0.6378 0.94428 0.0
C927 C 0.49027 0.62883 0.86774 0.0
C928 C 0.48224 0.64067 0.8982 0.0
H929 H 0.52656 0.61174 0.84082 0.0
H930 H 0.47289 0.62607 0.84618 0.0
C931 C 0.50537 0.64344 0.92569 0.0
C932 C 0.40084 0.52636 0.99585 0.0
C933 C 0.41575 0.50886 0.9721 0.0
H934 H 0.38445 0.5719 1.01176 0.0
C935 C 0.42949 0.52549 0.94873 0.0
H936 H 0.38978 0.51404 1.01397 0.0
C937 C 0.42619 0.55793 0.94728 0.0
C938 C 0.40909 0.57492 0.96917 0.0
H939 H 0.4414 0.51289 0.9303 0.0
H940 H 0.43599 0.56943 0.92795 0.0
C941 C 0.3976 0.55934 0.99447 0.0
C942 C 0.49483 0.38234 0.88044 0.0
C943 C 0.48578 0.38956 0.91161 0.0
H944 H 0.53132 0.36839 0.85196 0.0
C945 C 0.50782 0.38677 0.9387 0.0
H946 H 0.47849 0.38392 0.85897 0.0
C947 C 0.53837 0.37773 0.93467 0.0
C948 C 0.54755 0.37106 0.90343 0.0
H949 H 0.50163 0.39191 0.96309 0.0
H950 H 0.55497 0.37654 0.95605 0.0
C951 C 0.52518 0.37317 0.87641 0.0
C952 C 0.66877 0.52162 0.15194 0.0
C953 C 0.65605 0.53844 0.17759 0.0
H954 H 0.6751 0.47597 0.12692 0.0
C955 C 0.64251 0.5209 0.20056 0.0
H956 H 0.67962 0.53452 0.13402 0.0
C957 C 0.63967 0.48676 0.19633 0.0
C958 C 0.65035 0.46998 0.16911 0.0
H959 H 0.6323 0.5333 0.22041 0.0
H960 H 0.62758 0.47355 0.21325 0.0
C961 C 0.66601 0.48797 0.14778 0.0
C962 C 0.53697 0.62991 0.17 0.0
C963 C 0.54704 0.62206 0.13928 0.0
H964 H 0.49853 0.64228 0.19671 0.0
C965 C 0.52482 0.62022 0.11142 0.0
H966 H 0.55354 0.63168 0.19204 0.0
C967 C 0.49338 0.62653 0.11419 0.0
C968 C 0.48342 0.63485 0.14488 0.0
H969 H 0.53184 0.61451 0.08745 0.0
H970 H 0.4769 0.625 0.09212 0.0
C971 C 0.50551 0.63629 0.17277 0.0
C972 C 0.37905 0.48545 0.09428 0.0
C973 C 0.38678 0.47594 0.12516 0.0
H974 H 0.36937 0.52431 0.06703 0.0
C975 C 0.38927 0.49906 0.1527 0.0
H976 H 0.37674 0.46817 0.07247 0.0
C977 C 0.38482 0.53104 0.14949 0.0
C978 C 0.3779 0.54084 0.11863 0.0
H979 H 0.39487 0.49255 0.1768 0.0
H980 H 0.38746 0.54825 0.17138 0.0
C981 C 0.37465 0.51758 0.09106 0.0
C982 C 0.53236 0.41263 0.10044 0.0
C983 C 0.5453 0.38932 0.08081 0.0
H984 H 0.48997 0.42982 0.11535 0.0
C985 C 0.52468 0.3679 0.05683 0.0
H986 H 0.54783 0.42952 0.11892 0.0
C987 C 0.49111 0.36775 0.05497 0.0
C988 C 0.47817 0.38912 0.07703 0.0
H989 H 0.53424 0.34957 0.04156 0.0
H990 H 0.47541 0.34926 0.03834 0.0
C991 C 0.49922 0.41272 0.09838 0.0
C992 C 0.86258 0.65501 0.49996 0.0
C993 C 0.89283 0.66058 0.48889 0.0
H994 H 0.8364 0.64939 0.54056 0.0
C995 C 0.92056 0.66542 0.51195 0.0
H996 H 0.84071 0.65114 0.48299 0.0
C997 C 0.91812 0.66407 0.54501 0.0
C998 C 0.88787 0.65819 0.55604 0.0
H999 H 0.9443 0.6696 0.50438 0.0
H1000 H 0.94001 0.66745 0.56192 0.0
C1001 C 0.86013 0.65402 0.53306 0.0
C1002 C 0.40845 0.92899 0.54382 0.0
C1003 C 0.40244 0.90051 0.55804 0.0
H1004 H 0.415 0.9499 0.50021 0.0
C1005 C 0.39809 0.87053 0.53776 0.0
H1006 H 0.41197 0.95245 0.55858 0.0
C1007 C 0.39987 0.869 0.50436 0.0
C1008 C 0.40606 0.8974 0.49012 0.0
H1009 H 0.3934 0.84799 0.54769 0.0
H1010 H 0.39643 0.84548 0.48972 0.0
C1011 C 0.41025 0.92745 0.51029 0.0
C1012 C 0.17937 0.4098 0.49138 0.0
C1013 C 0.14976 0.40616 0.47112 0.0
H1014 H 0.20367 0.40875 0.53911 0.0
C1015 C 0.12133 0.39782 0.48464 0.0
H1016 H 0.20184 0.41605 0.48186 0.0
C1017 C 0.12243 0.39368 0.51754 0.0
C1018 C 0.15201 0.39755 0.53788 0.0
H1019 H 0.09813 0.39469 0.46987 0.0
H1020 H 0.09993 0.38756 0.52707 0.0
C1021 C 0.18049 0.40547 0.52427 0.0
C1022 C 0.64284 0.12922 0.5094 0.0
C1023 C 0.63427 0.097 0.51487 0.0
H1024 H 0.65938 0.16145 0.47708 0.0
C1025 C 0.63611 0.07194 0.48985 0.0
H1026 H 0.64196 0.1493 0.52799 0.0
C1027 C 0.64632 0.07908 0.4602 0.0
C1028 C 0.65515 0.11142 0.45507 0.0
H1029 H 0.63 0.04686 0.49326 0.0
H1030 H 0.64726 0.05929 0.44132 0.0
C1031 C 0.65318 0.13628 0.48011 0.0
C1032 C 0.88155 0.42329 0.50683 0.0
C1033 C 0.91252 0.43073 0.49822 0.0
H1034 H 0.85315 0.41275 0.54434 0.0
C1035 C 0.93932 0.43403 0.5222 0.0
H1036 H 0.86046 0.42038 0.4889 0.0
C1037 C 0.93517 0.42957 0.55413 0.0
C1038 C 0.90419 0.42143 0.56251 0.0
H1039 H 0.96354 0.4397 0.51624 0.0
H1040 H 0.95618 0.43225 0.57213 0.0
C1041 C 0.87744 0.41855 0.53858 0.0
C1042 C 0.61743 0.85131 0.53093 0.0
C1043 C 0.63348 0.82789 0.54505 0.0
H1044 H 0.61032 0.87702 0.49009 0.0
C1045 C 0.65059 0.80805 0.52561 0.0
H1046 H 0.6038 0.8668 0.54512 0.0
C1047 C 0.65403 0.81379 0.49357 0.0
C1048 C 0.64068 0.8396 0.48096 0.0
H1049 H 0.66345 0.79003 0.5359 0.0
H1050 H 0.66915 0.79982 0.47971 0.0
C1051 C 0.62125 0.8573 0.49943 0.0
C1052 C 0.09503 0.61797 0.53195 0.0
C1053 C 0.07327 0.63382 0.54926 0.0
H1054 H 0.12056 0.61535 0.49041 0.0
C1055 C 0.05576 0.65564 0.53401 0.0
H1056 H 0.10889 0.60102 0.54297 0.0
C1057 C 0.06232 0.66364 0.50337 0.0
C1058 C 0.08683 0.65034 0.48805 0.0
H1059 H 0.03926 0.66866 0.54691 0.0
H1060 H 0.05009 0.68201 0.49293 0.0
C1061 C 0.10204 0.62645 0.502 0.0
C1062 C 0.42461 0.2127 0.55407 0.0
C1063 C 0.4162 0.18382 0.56665 0.0
H1064 H 0.44022 0.23421 0.51358 0.0
C1065 C 0.42099 0.15422 0.54917 0.0
H1066 H 0.42175 0.23583 0.56722 0.0
C1067 C 0.43195 0.15322 0.51898 0.0
C1068 C 0.43836 0.18177 0.50533 0.0
H1069 H 0.41572 0.13142 0.55849 0.0
H1070 H 0.43393 0.12987 0.50572 0.0
C1071 C 0.43558 0.21168 0.52356 0.0
C1072 C 0.50513 0.83341 0.65336 0.0
C1073 C 0.49106 0.86156 0.6615 0.0
H1074 H 0.54857 0.81339 0.64475 0.0
C1075 C 0.5113 0.89132 0.6696 0.0
H1076 H 0.49029 0.81015 0.64695 0.0
C1077 C 0.54437 0.89325 0.66812 0.0
C1078 C 0.55838 0.86546 0.65869 0.0
H1079 H 0.50149 0.91357 0.67631 0.0
H1080 H 0.55886 0.91677 0.67378 0.0
C1081 C 0.53852 0.83534 0.65202 0.0
C1082 C 0.55244 0.22995 0.39588 0.0
C1083 C 0.52678 0.20447 0.39044 0.0
H1084 H 0.6033 0.2438 0.39601 0.0
C1085 C 0.53298 0.17333 0.37839 0.0
H1086 H 0.54849 0.25421 0.40512 0.0
C1087 C 0.56399 0.16742 0.37306 0.0
C1088 C 0.59001 0.19241 0.3797 0.0
H1089 H 0.51384 0.15312 0.3735 0.0
H1090 H 0.56759 0.14289 0.3644 0.0
C1091 C 0.58382 0.22395 0.39067 0.0
C1092 C 0.99263 0.57142 0.39719 0.0
C1093 C 0.97122 0.58667 0.41548 0.0
H1094 H 1.01057 0.52642 0.38314 0.0
C1095 C 0.95654 0.57035 0.43848 0.0
H1096 H 1.00404 0.58361 0.37917 0.0
C1097 C 0.96046 0.53825 0.44093 0.0
C1098 C 0.97899 0.52171 0.4203 0.0
H1099 H 0.94015 0.58174 0.45302 0.0
H1100 H 0.94683 0.52553 0.45718 0.0
C1101 C 0.99646 0.53886 0.39954 0.0
C1102 C 0.53453 0.95654 0.41093 0.0
C1103 C 0.51146 0.92927 0.39986 0.0
H1104 H 0.58499 0.97493 0.42198 0.0
C1105 C 0.52222 0.89974 0.38953 0.0
H1106 H 0.527 0.97966 0.41901 0.0
C1107 C 0.55494 0.8971 0.39091 0.0
C1108 C 0.57822 0.92386 0.40292 0.0
H1109 H 0.50526 0.87827 0.38043 0.0
H1110 H 0.5619 0.87366 0.38302 0.0
C1111 C 0.5677 0.95381 0.41263 0.0
C1112 C 0.19737 0.57836 0.40421 0.0
C1113 C 0.1667 0.58869 0.40057 0.0
H1114 H 0.22478 0.5382 0.40199 0.0
C1115 C 0.13969 0.56501 0.39103 0.0
H1116 H 0.21874 0.59583 0.41149 0.0
C1117 C 0.14313 0.53202 0.38579 0.0
C1118 C 0.17372 0.52159 0.38967 0.0
H1119 H 0.11567 0.57189 0.38801 0.0
H1120 H 0.12165 0.51463 0.37882 0.0
C1121 C 0.20085 0.54526 0.3987 0.0
C1122 C 0.4973 0.15087 0.65413 0.0
C1123 C 0.4732 0.12405 0.64487 0.0
H1124 H 0.54585 0.17157 0.6525 0.0
C1125 C 0.48111 0.09626 0.62692 0.0
H1126 H 0.49216 0.1728 0.66793 0.0
C1127 C 0.5122 0.09569 0.61788 0.0
C1128 C 0.53593 0.12297 0.62639 0.0
H1129 H 0.46308 0.0754 0.61898 0.0
H1130 H 0.51755 0.07391 0.60401 0.0
C1131 C 0.52811 0.15041 0.6449 0.0
C1132 C 0.84156 0.50469 0.60788 0.0
C1133 C 0.82322 0.48832 0.62848 0.0
H1134 H 0.85671 0.54987 0.59179 0.0
C1135 C 0.80138 0.50478 0.64504 0.0
H1136 H 0.85854 0.49255 0.59479 0.0
C1137 C 0.80026 0.53802 0.64323 0.0
C1138 C 0.82102 0.55495 0.6249 0.0
H1139 H 0.78729 0.49279 0.66139 0.0
H1140 H 0.78541 0.55098 0.65838 0.0
C1141 C 0.84046 0.53752 0.6061 0.0
C1142 C 0.09142 0.53337 0.64709 0.0
C1143 C 0.12151 0.55293 0.65073 0.0
H1144 H 0.06611 0.48514 0.64156 0.0
C1145 C 0.14965 0.53816 0.65354 0.0
H1146 H 0.06921 0.54403 0.6449 0.0
C1147 C 0.14781 0.50458 0.65177 0.0
C1148 C 0.11778 0.48484 0.64698 0.0
H1149 H 0.17317 0.55246 0.65655 0.0
H1150 H 0.17014 0.49409 0.6535 0.0
C1151 C 0.08956 0.49962 0.64519 0.0
C1152 C 0.18771 0.28377 0.33906 0.0
C1153 C 0.20825 0.27267 0.36267 0.0
H1154 H 0.1691 0.3253 0.32273 0.0
C1155 C 0.23042 0.29534 0.38414 0.0
H1156 H 0.17004 0.26687 0.32271 0.0
C1157 C 0.2305 0.32857 0.38373 0.0
C1158 C 0.20759 0.33967 0.36254 0.0
H1159 H 0.24584 0.28746 0.40325 0.0
H1160 H 0.24606 0.34537 0.4022 0.0
C1161 C 0.18714 0.31714 0.33925 0.0
C1162 C 0.81879 0.15088 0.35318 0.0
C1163 C 0.84006 0.17671 0.37112 0.0
H1164 H 0.76973 0.12815 0.34176 0.0
C1165 C 0.82732 0.20086 0.39016 0.0
H1166 H 0.82804 0.13153 0.33898 0.0
C1167 C 0.79415 0.19909 0.39172 0.0
C1168 C 0.77285 0.1726 0.37497 0.0
H1169 H 0.84326 0.22073 0.40473 0.0
H1170 H 0.78533 0.21797 0.40697 0.0
C1171 C 0.78551 0.14872 0.35527 0.0
C1172 C 0.94352 0.8126 0.38927 0.0
C1173 C 0.91263 0.82118 0.38166 0.0
H1174 H 0.97208 0.77472 0.39723 0.0
C1175 C 0.88627 0.79669 0.37412 0.0
H1176 H 0.96413 0.83119 0.39573 0.0
C1177 C 0.89069 0.76416 0.37557 0.0
C1178 C 0.92155 0.75567 0.38451 0.0
H1179 H 0.86215 0.80284 0.36892 0.0
H1180 H 0.8698 0.74581 0.37071 0.0
C1181 C 0.948 0.78025 0.3904 0.0
C1182 C 0.27835 0.96318 0.39353 0.0
C1183 C 0.25759 0.93568 0.3777 0.0
H1184 H 0.32721 0.98551 0.40739 0.0
C1185 C 0.2704 0.91134 0.35936 0.0
H1186 H 0.26888 0.98235 0.4078 0.0
C1187 C 0.3038 0.91299 0.35957 0.0
C1188 C 0.32477 0.93923 0.37767 0.0
H1189 H 0.25496 0.8899 0.34717 0.0
H1190 H 0.31336 0.89278 0.34708 0.0
C1191 C 0.31168 0.96511 0.39325 0.0
C1192 C 0.1188 0.77023 0.58514 0.0
C1193 C 0.14629 0.79264 0.59524 0.0
H1194 H 0.09535 0.72287 0.5879 0.0
C1195 C 0.17395 0.78255 0.61099 0.0
H1196 H 0.09711 0.7777 0.57353 0.0
C1197 C 0.17294 0.75137 0.6198 0.0
C1198 C 0.14407 0.73025 0.61324 0.0
H1199 H 0.19527 0.79986 0.61943 0.0
H1200 H 0.19365 0.74489 0.63411 0.0
C1201 C 0.11769 0.73918 0.59411 0.0
C1202 C 0.24229 0.17121 0.61441 0.0
C1203 C 0.2236 0.14471 0.59462 0.0
H1204 H 0.28833 0.19111 0.64048 0.0
C1205 C 0.23838 0.1173 0.58526 0.0
H1206 H 0.23132 0.19229 0.62271 0.0
C1207 C 0.27093 0.11607 0.59644 0.0
C1208 C 0.28948 0.14243 0.61685 0.0
H1209 H 0.22429 0.09612 0.57089 0.0
H1210 H 0.28146 0.09434 0.58944 0.0
C1211 C 0.27487 0.1703 0.62495 0.0
C1212 C 0.90146 0.27366 0.66893 0.0
C1213 C 0.88245 0.24822 0.64791 0.0
H1214 H 0.91049 0.32488 0.68476 0.0
C1215 C 0.85629 0.25559 0.62734 0.0
H1216 H 0.92169 0.26882 0.68512 0.0
C1217 C 0.84926 0.28755 0.62781 0.0
C1218 C 0.86875 0.3131 0.64822 0.0
H1219 H 0.84093 0.23652 0.61109 0.0
H1220 H 0.82901 0.29235 0.61161 0.0
C1221 C 0.895 0.30576 0.6687 0.0
C1222 C 0.75676 0.92919 0.64303 0.0
C1223 C 0.73701 0.90349 0.62338 0.0
H1224 H 0.80525 0.9502 0.66062 0.0
C1225 C 0.75072 0.88283 0.60128 0.0
H1226 H 0.74677 0.94527 0.66035 0.0
C1227 C 0.78407 0.88597 0.60097 0.0
C1228 C 0.80408 0.90934 0.6233 0.0
H1229 H 0.73581 0.86286 0.58579 0.0
H1230 H 0.79425 0.86826 0.58552 0.0
C1231 C 0.79016 0.93187 0.64324 0.0
C1232 C 0.39169 0.1212 0.269 0.0
C1233 C 0.38303 0.14608 0.25149 0.0
H1234 H 0.40503 0.10735 0.31583 0.0
C1235 C 0.37752 0.17545 0.26824 0.0
H1236 H 0.39672 0.0986 0.25637 0.0
C1237 C 0.38312 0.18083 0.30214 0.0
C1238 C 0.39395 0.15673 0.3197 0.0
H1239 H 0.37158 0.19517 0.2551 0.0
H1240 H 0.38064 0.20445 0.3145 0.0
C1241 C 0.39664 0.1263 0.30293 0.0
C1242 C 0.89106 0.44504 0.2993 0.0
C1243 C 0.91154 0.42411 0.31176 0.0
H1244 H 0.87257 0.46514 0.2573 0.0
C1245 C 0.92871 0.40636 0.29062 0.0
H1246 H 0.87788 0.4593 0.31524 0.0
C1247 C 0.92499 0.40905 0.25741 0.0
C1248 C 0.90505 0.43051 0.24509 0.0
H1249 H 0.94476 0.39021 0.29974 0.0
H1250 H 0.93816 0.39482 0.24144 0.0
C1251 C 0.88827 0.44863 0.26631 0.0
C1252 C 0.69154 0.91713 0.26795 0.0
C1253 C 0.67364 0.89384 0.24372 0.0
H1254 H 0.70445 0.93207 0.31929 0.0
C1255 C 0.65644 0.86637 0.25305 0.0
H1256 H 0.70505 0.93848 0.26142 0.0
C1257 C 0.65679 0.86225 0.28573 0.0
C1258 C 0.6737 0.88589 0.31017 0.0
H1259 H 0.64273 0.84777 0.23491 0.0
H1260 H 0.64303 0.84083 0.29186 0.0
C1261 C 0.69112 0.91345 0.30098 0.0
C1262 C 0.10946 0.6837 0.26219 0.0
C1263 C 0.13701 0.70196 0.25439 0.0
H1264 H 0.08413 0.66611 0.29964 0.0
C1265 C 0.16026 0.71784 0.2796 0.0
H1266 H 0.09131 0.67101 0.24311 0.0
C1267 C 0.15665 0.71422 0.31206 0.0
C1268 C 0.12931 0.69536 0.31981 0.0
H1269 H 0.18191 0.73167 0.27414 0.0
H1270 H 0.17542 0.72581 0.33104 0.0
C1271 C 0.10539 0.68085 0.29454 0.0
C1272 C 0.35079 0.88672 0.78214 0.0
C1273 C 0.37086 0.90386 0.80913 0.0
H1274 H 0.34317 0.87499 0.73039 0.0
C1275 C 0.39777 0.92522 0.80389 0.0
H1276 H 0.32985 0.87031 0.78527 0.0
C1277 C 0.40502 0.92853 0.77236 0.0
C1278 C 0.3858 0.91009 0.74558 0.0
H1279 H 0.41351 0.93919 0.82423 0.0
H1280 H 0.42637 0.94426 0.76905 0.0
C1281 C 0.35841 0.88953 0.75076 0.0
C1282 C 0.14867 0.34525 0.76352 0.0
C1283 C 0.15358 0.37104 0.78901 0.0
H1284 H 0.14858 0.3308 0.7125 0.0
C1285 C 0.16608 0.40204 0.78263 0.0
H1286 H 0.13926 0.32108 0.76753 0.0
C1287 C 0.17211 0.40739 0.75124 0.0
C1288 C 0.16592 0.38183 0.72567 0.0
H1289 H 0.17049 0.42244 0.80175 0.0
H1290 H 0.17992 0.43178 0.74662 0.0
C1291 C 0.15448 0.35069 0.73213 0.0
C1292 C 0.58448 0.06275 0.70306 0.0
C1293 C 0.61328 0.05546 0.69142 0.0
H1294 H 0.56089 0.07619 0.74476 0.0
C1295 C 0.63943 0.05173 0.71369 0.0
H1296 H 0.5643 0.06676 0.68628 0.0
C1297 C 0.63773 0.05774 0.74707 0.0
C1298 C 0.60986 0.06777 0.75885 0.0
H1299 H 0.66215 0.04709 0.70539 0.0
H1300 H 0.65904 0.05648 0.76365 0.0
C1301 C 0.58265 0.06856 0.73653 0.0
C1302 C 0.86726 0.58553 0.77264 0.0
C1303 C 0.88952 0.60138 0.79868 0.0
H1304 H 0.84895 0.58394 0.72242 0.0
C1305 C 0.91289 0.62625 0.79295 0.0
H1306 H 0.84889 0.5665 0.77644 0.0
C1307 C 0.91354 0.63563 0.76191 0.0
C1308 C 0.8901 0.62105 0.73634 0.0
H1309 H 0.93034 0.63887 0.8127 0.0
H1310 H 0.93131 0.65529 0.75829 0.0
C1311 C 0.86722 0.59565 0.74187 0.0
C1312 C 0.24628 0.38827 0.08376 0.0
C1313 C 0.2317 0.37787 0.11007 0.0
H1314 H 0.28863 0.39074 0.05916 0.0
C1315 C 0.2491 0.36121 0.13179 0.0
H1316 H 0.23317 0.40059 0.06629 0.0
C1317 C 0.2807 0.35587 0.12792 0.0
C1318 C 0.29526 0.36593 0.1015 0.0
H1319 H 0.23831 0.35256 0.15205 0.0
H1320 H 0.29389 0.34399 0.14572 0.0
C1321 C 0.27768 0.382 0.07929 0.0
C1322 C 0.2496 0.65862 0.87576 0.0
C1323 C 0.23199 0.64362 0.89775 0.0
H1324 H 0.29609 0.67008 0.86042 0.0
C1325 C 0.248 0.62803 0.92137 0.0
H1326 H 0.23766 0.67094 0.8575 0.0
C1327 C 0.28144 0.62859 0.92382 0.0
C1328 C 0.29909 0.6437 0.90191 0.0
H1329 H 0.23484 0.61665 0.93879 0.0
H1330 H 0.29354 0.61737 0.94289 0.0
C1331 C 0.28286 0.65809 0.87741 0.0
C1332 C 0.33775 0.27219 0.9164 0.0
C1333 C 0.35298 0.25236 0.9361 0.0
H1334 H 0.33409 0.32082 0.90711 0.0
C1335 C 0.37212 0.26661 0.9652 0.0
H1336 H 0.32333 0.26182 0.89368 0.0
C1337 C 0.37819 0.30033 0.97311 0.0
C1338 C 0.36574 0.32024 0.9516 0.0
H1339 H 0.38435 0.25165 0.98064 0.0
H1340 H 0.39482 0.31068 0.99443 0.0
C1341 C 0.34425 0.30591 0.924 0.0
C1342 C 0.78671 0.37381 0.92306 0.0
C1343 C 0.80096 0.39511 0.90357 0.0
H1344 H 0.74258 0.35181 0.93719 0.0
C1345 C 0.78117 0.41056 0.88283 0.0
H1346 H 0.80156 0.36184 0.93942 0.0
C1347 C 0.74767 0.40414 0.88091 0.0
C1348 C 0.73338 0.38311 0.90058 0.0
H1349 H 0.79162 0.42708 0.8676 0.0
H1350 H 0.73287 0.41584 0.86422 0.0
C1351 C 0.75313 0.36829 0.92198 0.0
C1352 C 0.65778 0.72143 0.83088 0.0
C1353 C 0.62856 0.70316 0.8338 0.0
H1354 H 0.68645 0.7677 0.84127 0.0
C1355 C 0.60364 0.71871 0.84576 0.0
H1356 H 0.67758 0.7097 0.82268 0.0
C1357 C 0.60861 0.75197 0.85656 0.0
C1358 C 0.63891 0.76971 0.85637 0.0
H1359 H 0.58124 0.70467 0.8491 0.0
H1360 H 0.58958 0.76327 0.86697 0.0
C1361 C 0.663 0.75443 0.84228 0.0
C1362 C 0.77296 0.60538 0.09713 0.0
C1363 C 0.79474 0.63215 0.11268 0.0
H1364 H 0.72343 0.58443 0.08549 0.0
C1365 C 0.78278 0.66021 0.12531 0.0
H1366 H 0.78166 0.5835 0.08707 0.0
C1367 C 0.74959 0.66044 0.12492 0.0
C1368 C 0.72792 0.63306 0.1109 0.0
H1369 H 0.79905 0.68108 0.13753 0.0
H1370 H 0.74088 0.6814 0.13702 0.0
C1371 C 0.73973 0.60599 0.09589 0.0
C1372 C 0.36836 0.74083 0.08517 0.0
C1373 C 0.39479 0.72527 0.09483 0.0
H1374 H 0.34996 0.78623 0.08337 0.0
C1375 C 0.42472 0.74403 0.10593 0.0
H1376 H 0.34493 0.7269 0.07714 0.0
C1377 C 0.42781 0.7779 0.10905 0.0
C1378 C 0.40072 0.7936 0.10209 0.0
H1379 H 0.44532 0.7325 0.11399 0.0
H1380 H 0.45077 0.79174 0.11922 0.0
C1381 C 0.37123 0.77474 0.08908 0.0
C1382 C 0.59102 0.26321 0.10377 0.0
C1383 C 0.59922 0.28098 0.13493 0.0
H1384 H 0.5784 0.21636 0.07562 0.0
C1385 C 0.59609 0.26458 0.16215 0.0
H1386 H 0.59274 0.27499 0.08221 0.0
C1387 C 0.58729 0.23083 0.15818 0.0
C1388 C 0.58098 0.21304 0.12699 0.0
H1389 H 0.60204 0.2775 0.18648 0.0
H1390 H 0.58765 0.21839 0.17948 0.0
C1391 C 0.58216 0.22965 0.09988 0.0
C1392 C 0.83179 0.76376 0.6655 0.0
C1393 C 0.85455 0.7448 0.67756 0.0
H1394 H 0.82122 0.81175 0.65946 0.0
C1395 C 0.88252 0.76063 0.6974 0.0
H1396 H 0.81016 0.75242 0.65 0.0
C1397 C 0.88836 0.79461 0.70366 0.0
C1398 C 0.86663 0.8135 0.68973 0.0
H1399 H 0.90054 0.74674 0.70713 0.0
H1400 H 0.91091 0.80608 0.71745 0.0
C1401 C 0.83805 0.79773 0.67107 0.0
C1402 C 0.25553 0.85733 0.6758 0.0
C1403 C 0.24072 0.87736 0.65562 0.0
H1404 H 0.29776 0.83433 0.68738 0.0
C1405 C 0.25679 0.88796 0.63028 0.0
H1406 H 0.24342 0.84819 0.69505 0.0
C1407 C 0.28695 0.87935 0.6254 0.0
C1408 C 0.30202 0.85968 0.64553 0.0
H1409 H 0.246 0.90313 0.61406 0.0
H1410 H 0.29911 0.88907 0.60641 0.0
C1411 C 0.28607 0.84854 0.67077 0.0
C1412 C 0.09937 0.2808 0.65223 0.0
C1413 C 0.1054 0.29533 0.62447 0.0
H1414 H 0.10143 0.23826 0.6763 0.0
C1415 C 0.11764 0.27776 0.59917 0.0
H1416 H 0.09112 0.29453 0.6726 0.0
C1417 C 0.12413 0.24633 0.60149 0.0
C1418 C 0.11889 0.23165 0.6294 0.0
H1419 H 0.12353 0.2889 0.57808 0.0
H1420 H 0.13393 0.23374 0.58144 0.0
C1421 C 0.10608 0.24905 0.6547 0.0
C1422 C 0.74309 0.15018 0.64572 0.0
C1423 C 0.72211 0.12704 0.62388 0.0
H1424 H 0.79213 0.17098 0.66153 0.0
C1425 C 0.73498 0.10737 0.60021 0.0
H1426 H 0.73383 0.16567 0.66413 0.0
C1427 C 0.76805 0.11088 0.59821 0.0
C1428 C 0.78913 0.13358 0.62034 0.0
H1429 H 0.71937 0.08952 0.58279 0.0
H1430 H 0.77715 0.09549 0.57959 0.0
C1431 C 0.77639 0.15311 0.64426 0.0
C1432 C 0.92936 0.32176 0.43803 0.0
C1433 C 0.95637 0.33527 0.42465 0.0
H1434 H 0.9047 0.27931 0.45304 0.0
C1435 C 0.98146 0.31668 0.41999 0.0
H1436 H 0.90984 0.3357 0.44248 0.0
C1437 C 0.97841 0.28445 0.4262 0.0
C1438 C 0.9507 0.27057 0.43803 0.0
H1439 H 1.00262 0.32646 0.41002 0.0
H1440 H 0.99696 0.26976 0.4201 0.0
C1441 C 0.92662 0.28974 0.44479 0.0
C1442 C 0.81624 0.93804 0.46282 0.0
C1443 C 0.82982 0.90914 0.45734 0.0
H1444 H 0.77312 0.9608 0.4598 0.0
C1445 C 0.80937 0.87998 0.44755 0.0
H1446 H 0.83166 0.96098 0.46931 0.0
C1447 C 0.77605 0.87984 0.44162 0.0
C1448 C 0.76241 0.90898 0.44493 0.0
H1449 H 0.81935 0.85756 0.4422 0.0
H1450 H 0.76115 0.85699 0.4328 0.0
C1451 C 0.78278 0.93796 0.45685 0.0
C1452 C 0.19668 0.79459 0.46115 0.0
C1453 C 0.16613 0.77689 0.44962 0.0
H1454 H 0.2253 0.84166 0.4713 0.0
C1455 C 0.14005 0.79431 0.44351 0.0
H1456 H 0.21735 0.78204 0.46614 0.0
C1457 C 0.14467 0.82815 0.44655 0.0
C1458 C 0.17537 0.84577 0.45624 0.0
H1459 H 0.11615 0.78178 0.43482 0.0
H1460 H 0.12434 0.84061 0.43967 0.0
C1461 C 0.20125 0.82875 0.46445 0.0
C1462 C 0.33325 0.24931 0.41716 0.0
C1463 C 0.35469 0.23501 0.43706 0.0
H1464 H 0.28397 0.2532 0.40244 0.0
C1465 C 0.34341 0.21969 0.46271 0.0
H1466 H 0.34118 0.26053 0.39685 0.0
C1467 C 0.31059 0.2163 0.46663 0.0
C1468 C 0.28865 0.22759 0.44445 0.0
H1469 H 0.35963 0.20813 0.47816 0.0
H1470 H 0.30211 0.20213 0.48479 0.0
C1471 C 0.30045 0.24516 0.42052 0.0
C1472 C 0.69184 0.81708 0.74925 0.0
C1473 C 0.69262 0.84419 0.73245 0.0
H1474 H 0.69714 0.80026 0.79585 0.0
C1475 C 0.70536 0.87483 0.74965 0.0
H1476 H 0.68219 0.79321 0.7368 0.0
C1477 C 0.71444 0.87871 0.78323 0.0
C1478 C 0.71124 0.85205 0.80037 0.0
H1479 H 0.70669 0.89625 0.73744 0.0
H1480 H 0.72144 0.90293 0.79614 0.0
C1481 C 0.70079 0.82107 0.78299 0.0
C1482 C 0.09108 0.66452 0.79406 0.0
C1483 C 0.11798 0.68634 0.80915 0.0
H1484 H 0.06287 0.6424 0.74923 0.0
C1485 C 0.13612 0.70452 0.78974 0.0
H1486 H 0.07669 0.65014 0.80846 0.0
C1487 C 0.12873 0.69939 0.75577 0.0
C1488 C 0.10236 0.67685 0.7406 0.0
H1489 H 0.1571 0.72127 0.80064 0.0
H1490 H 0.14422 0.71237 0.74123 0.0
C1491 C 0.08301 0.66022 0.76019 0.0
C1492 C 0.38133 0.15254 0.79525 0.0
C1493 C 0.40269 0.17603 0.81643 0.0
H1494 H 0.36134 0.13472 0.74631 0.0
C1495 C 0.42057 0.20067 0.80336 0.0
H1496 H 0.36715 0.13329 0.80462 0.0
C1497 C 0.41651 0.20202 0.76968 0.0
C1498 C 0.39509 0.17831 0.74859 0.0
H1499 H 0.43689 0.2193 0.81919 0.0
H1500 H 0.43045 0.22125 0.76009 0.0
C1501 C 0.37786 0.15344 0.76183 0.0
C1502 C 0.90917 0.46212 0.7651 0.0
C1503 C 0.8878 0.43695 0.74613 0.0
H1504 H 0.92645 0.48618 0.81321 0.0
C1505 C 0.86621 0.41743 0.76121 0.0
H1506 H 0.9258 0.47768 0.7539 0.0
C1507 C 0.86692 0.42198 0.79479 0.0
C1508 C 0.88866 0.44663 0.81384 0.0
H1509 H 0.84945 0.3979 0.74716 0.0
H1510 H 0.8508 0.40583 0.80596 0.0
C1511 C 0.9093 0.46721 0.79882 0.0
C1512 C 0.6442 0.10556 0.25345 0.0
C1513 C 0.66317 0.13177 0.27332 0.0
H1514 H 0.62402 0.08506 0.2052 0.0
C1515 C 0.67899 0.15665 0.25869 0.0
H1516 H 0.63175 0.08601 0.26393 0.0
C1517 C 0.67517 0.15566 0.22479 0.0
C1518 C 0.65492 0.13014 0.20524 0.0
H1519 H 0.69398 0.17703 0.27344 0.0
H1520 H 0.68674 0.17549 0.21403 0.0
C1521 C 0.63983 0.10497 0.21984 0.0
C1522 C 0.91049 0.64336 0.28022 0.0
C1523 C 0.89179 0.625 0.29907 0.0
H1524 H 0.92237 0.65016 0.23283 0.0
C1525 C 0.87077 0.59765 0.28343 0.0
H1526 H 0.92689 0.66455 0.29144 0.0
C1527 C 0.86879 0.58881 0.24961 0.0
C1528 C 0.8871 0.60773 0.23082 0.0
H1529 H 0.85622 0.5829 0.29736 0.0
H1530 H 0.85245 0.56769 0.23811 0.0
C1531 C 0.90786 0.63511 0.24657 0.0
C1532 C 0.41999 0.88626 0.24862 0.0
C1533 C 0.38967 0.87331 0.23168 0.0
H1534 H 0.44906 0.89803 0.29489 0.0
C1535 C 0.36629 0.85849 0.24876 0.0
H1536 H 0.4385 0.8979 0.23623 0.0
C1537 C 0.37283 0.85762 0.28229 0.0
C1538 C 0.40255 0.87219 0.29934 0.0
H1539 H 0.34277 0.84817 0.23634 0.0
H1540 H 0.35399 0.84736 0.29518 0.0
C1541 C 0.42616 0.88617 0.28215 0.0
C1542 C 0.15454 0.41276 0.26235 0.0
C1543 C 0.13421 0.39647 0.28131 0.0
H1544 H 0.17149 0.41406 0.21615 0.0
C1545 C 0.11508 0.36735 0.2671 0.0
H1546 H 0.16992 0.43495 0.27268 0.0
C1547 C 0.11666 0.35472 0.23463 0.0
C1548 C 0.13703 0.37128 0.21576 0.0
H1549 H 0.09975 0.35384 0.28137 0.0
H1550 H 0.10158 0.33242 0.22416 0.0
C1551 C 0.15571 0.40054 0.23003 0.0
C1552 C 0.74327 0.61236 0.86524 0.0
C1553 C 0.72891 0.62847 0.89011 0.0
H1554 H 0.78676 0.59913 0.84886 0.0
C1555 C 0.7486 0.64584 0.91744 0.0
H1556 H 0.72876 0.59873 0.8439 0.0
C1557 C 0.78216 0.64667 0.9199 0.0
C1558 C 0.79618 0.62945 0.89545 0.0
H1559 H 0.7381 0.65862 0.93686 0.0
H1560 H 0.79698 0.65965 0.94137 0.0
C1561 C 0.77647 0.61255 0.86806 0.0
C1562 C 0.74579 0.396 0.09989 0.0
C1563 C 0.72837 0.37471 0.11721 0.0
H1564 H 0.79232 0.41887 0.09259 0.0
C1565 C 0.74538 0.35835 0.13956 0.0
H1566 H 0.73331 0.40924 0.08284 0.0
C1567 C 0.77919 0.36315 0.14438 0.0
C1568 C 0.79643 0.38536 0.12792 0.0
H1569 H 0.73252 0.34197 0.15335 0.0
H1570 H 0.79182 0.35034 0.16174 0.0
C1571 C 0.77947 0.4017 0.10563 0.0
C1572 C 0.66711 0.74883 0.18468 0.0
C1573 C 0.64289 0.7237 0.17089 0.0
H1574 H 0.68431 0.79944 0.18823 0.0
C1575 C 0.61566 0.73097 0.15189 0.0
H1576 H 0.68845 0.74372 0.19906 0.0
C1577 C 0.61312 0.76263 0.14577 0.0
C1578 C 0.63812 0.78758 0.15795 0.0
H1579 H 0.59667 0.71186 0.14092 0.0
H1580 H 0.59216 0.76731 0.1305 0.0
C1581 C 0.66486 0.78053 0.17803 0.0
C1582 C 0.26004 0.6751 0.18683 0.0
C1583 C 0.23676 0.64978 0.1707 0.0
H1584 H 0.31044 0.69333 0.19789 0.0
C1585 C 0.24707 0.62175 0.15566 0.0
H1586 H 0.25276 0.69695 0.19876 0.0
C1587 C 0.27984 0.62001 0.15474 0.0
C1588 C 0.30302 0.64585 0.16958 0.0
H1589 H 0.22979 0.60188 0.14299 0.0
H1590 H 0.28708 0.59887 0.14137 0.0
C1591 C 0.29298 0.67298 0.18659 0.0
C1592 C 0.44908 0.25378 0.14339 0.0
C1593 C 0.44489 0.2432 0.17345 0.0
H1594 H 0.4416 0.28991 0.11213 0.0
C1595 C 0.43209 0.26344 0.19667 0.0
H1596 H 0.45772 0.23816 0.12461 0.0
C1597 C 0.42289 0.29327 0.18963 0.0
C1598 C 0.42513 0.30282 0.15873 0.0
H1599 H 0.42744 0.25529 0.21956 0.0
H1600 H 0.41228 0.30791 0.20766 0.0
C1601 C 0.43914 0.28311 0.13603 0.0
C1602 C 0.28988 0.43503 0.92841 0.0
C1603 C 0.30532 0.41843 0.90464 0.0
H1604 H 0.24498 0.44293 0.94578 0.0
C1605 C 0.28669 0.39768 0.87891 0.0
H1606 H 0.30385 0.45102 0.94862 0.0
C1607 C 0.25323 0.39224 0.87794 0.0
C1608 C 0.23784 0.40808 0.90223 0.0
H1609 H 0.29805 0.38428 0.86058 0.0
H1610 H 0.2394 0.37537 0.85832 0.0
C1611 C 0.25633 0.43028 0.92693 0.0
C1612 C 0.67279 0.22483 0.86571 0.0
C1613 C 0.65265 0.20119 0.8437 0.0
H1614 H 0.68306 0.27507 0.88528 0.0
C1615 C 0.62882 0.2109 0.82201 0.0
H1616 H 0.69101 0.21794 0.88296 0.0
C1617 C 0.62465 0.24363 0.82286 0.0
C1618 C 0.6435 0.26701 0.84621 0.0
H1619 H 0.61284 0.19303 0.80493 0.0
H1620 H 0.60573 0.25042 0.80633 0.0
C1621 C 0.66795 0.2574 0.86726 0.0
C1622 C 0.41996 0.78186 0.96033 0.0
C1623 C 0.40695 0.75647 0.93552 0.0
H1624 H 0.42949 0.83359 0.97459 0.0
C1625 C 0.39517 0.76452 0.90509 0.0
H1626 H 0.42937 0.77655 0.984 0.0
C1627 C 0.39507 0.79677 0.89988 0.0
C1628 C 0.40739 0.82215 0.92466 0.0
H1629 H 0.38495 0.74581 0.88531 0.0
H1630 H 0.38453 0.8019 0.87652 0.0
C1631 C 0.42044 0.81447 0.95483 0.0
loop_
_geom_bond_atom_site_label_1
_geom_bond_atom_site_label_2
_geom_bond_distance
_geom_bond_site_symmetry_2
_ccdc_geom_bond_type
C0 O2 1.247 . S
C0 O4 1.258 . S
C1 O8 1.247 . S
C1 O9 1.258 . S
O2 C0 1.247 . S
O2 Zn3 2.028 . S
Zn3 O2 2.028 . S
Zn3 O7 2.035 . S
Zn3 O9 2.035 . S
Zn3 O10 2.028 . S
O4 C0 1.258 . S
O4 Zn5 2.035 . S
Zn5 O4 2.035 . S
Zn5 O6 2.028 . S
Zn5 O8 2.028 . S
Zn5 O11 2.035 . S
O6 Zn5 2.028 . S
O6 C12 1.247 . S
O7 Zn3 2.035 . S
O7 C12 1.258 . S
O8 C1 1.247 . S
O8 Zn5 2.028 . S
O9 C1 1.258 . S
O9 Zn3 2.035 . S
O10 Zn3 2.028 . S
O10 C13 1.247 . S
O11 Zn5 2.035 . S
O11 C13 1.258 . S
C12 O6 1.247 . S
C12 O7 1.258 . S
C13 O10 1.247 . S
C13 O11 1.258 . S
C14 O16 1.247 . S
C14 O18 1.258 . S
C15 O22 1.247 . S
C15 O23 1.258 . S
O16 C14 1.247 . S
O16 Zn17 2.028 . S
Zn17 O16 2.028 . S
Zn17 O21 2.035 . S
Zn17 O23 2.035 . S
Zn17 O24 2.028 . S
O18 C14 1.258 . S
O18 Zn19 2.035 . S
Zn19 O18 2.035 . S
Zn19 O20 2.028 . S
Zn19 O22 2.028 . S
Zn19 O25 2.035 . S
O20 Zn19 2.028 . S
O20 C26 1.247 . S
O21 Zn17 2.035 . S
O21 C26 1.258 . S
O22 C15 1.247 . S
O22 Zn19 2.028 . S
O23 C15 1.258 . S
O23 Zn17 2.035 . S
O24 Zn17 2.028 . S
O24 C27 1.247 . S
O25 Zn19 2.035 . S
O25 C27 1.258 . S
C26 O20 1.247 . S
C26 O21 1.258 . S
C27 O24 1.247 . S
C27 O25 1.258 . S
C28 O30 1.247 . S
C28 O32 1.258 . S
C29 O36 1.247 . S
C29 O37 1.258 . S
O30 C28 1.247 . S
O30 Zn31 2.028 . S
Zn31 O30 2.028 . S
Zn31 O35 2.035 . S
Zn31 O37 2.035 . S
Zn31 O38 2.028 . S
O32 C28 1.258 . S
O32 Zn33 2.035 . S
Zn33 O32 2.035 . S
Zn33 O34 2.028 . S
Zn33 O36 2.028 . S
Zn33 O39 2.035 . S
O34 Zn33 2.028 . S
O34 C40 1.247 . S
O35 Zn31 2.035 . S
O35 C40 1.258 . S
O36 C29 1.247 . S
O36 Zn33 2.028 . S
O37 C29 1.258 . S
O37 Zn31 2.035 . S
O38 Zn31 2.028 . S
O38 C41 1.247 . S
O39 Zn33 2.035 . S
O39 C41 1.258 . S
C40 O34 1.247 . S
C40 O35 1.258 . S
C41 O38 1.247 . S
C41 O39 1.258 . S
C42 O44 1.247 . S
C42 O46 1.258 . S
C43 O50 1.247 . S
C43 O51 1.258 . S
O44 C42 1.247 . S
O44 Zn45 2.028 . S
Zn45 O44 2.028 . S
Zn45 O49 2.035 . S
Zn45 O51 2.035 . S
Zn45 O52 2.028 . S
O46 C42 1.258 . S
O46 Zn47 2.035 . S
Zn47 O46 2.035 . S
Zn47 O48 2.028 . S
Zn47 O50 2.028 . S
Zn47 O53 2.035 . S
O48 Zn47 2.028 . S
O48 C54 1.247 . S
O49 Zn45 2.035 . S
O49 C54 1.258 . S
O50 C43 1.247 . S
O50 Zn47 2.028 . S
O51 C43 1.258 . S
O51 Zn45 2.035 . S
O52 Zn45 2.028 . S
O52 C55 1.247 . S
O53 Zn47 2.035 . S
O53 C55 1.258 . S
C54 O48 1.247 . S
C54 O49 1.258 . S
C55 O52 1.247 . S
C55 O53 1.258 . S
C56 O58 1.247 . S
C56 O60 1.258 . S
C57 O64 1.247 . S
C57 O65 1.258 . S
O58 C56 1.247 . S
O58 Zn59 2.028 . S
Zn59 O58 2.028 . S
Zn59 O63 2.035 . S
Zn59 O65 2.035 . S
Zn59 O66 2.028 . S
O60 C56 1.258 . S
O60 Zn61 2.035 . S
Zn61 O60 2.035 . S
Zn61 O62 2.028 . S
Zn61 O64 2.028 . S
Zn61 O67 2.035 . S
O62 Zn61 2.028 . S
O62 C68 1.247 . S
O63 Zn59 2.035 . S
O63 C68 1.258 . S
O64 C57 1.247 . S
O64 Zn61 2.028 . S
O65 C57 1.258 . S
O65 Zn59 2.035 . S
O66 Zn59 2.028 . S
O66 C69 1.247 . S
O67 Zn61 2.035 . S
O67 C69 1.258 . S
C68 O62 1.247 . S
C68 O63 1.258 . S
C69 O66 1.247 . S
C69 O67 1.258 . S
C70 O72 1.247 . S
C70 O74 1.258 . S
C71 O78 1.247 . S
C71 O79 1.258 . S
O72 C70 1.247 . S
O72 Zn73 2.028 . S
Zn73 O72 2.028 . S
Zn73 O77 2.035 . S
Zn73 O79 2.035 . S
Zn73 O80 2.028 . S
O74 C70 1.258 . S
O74 Zn75 2.035 . S
Zn75 O74 2.035 . S
Zn75 O76 2.028 . S
Zn75 O78 2.028 . S
Zn75 O81 2.035 . S
O76 Zn75 2.028 . S
O76 C82 1.247 . S
O77 Zn73 2.035 . S
O77 C82 1.258 . S
O78 C71 1.247 . S
O78 Zn75 2.028 . S
O79 C71 1.258 . S
O79 Zn73 2.035 . S
O80 Zn73 2.028 . S
O80 C83 1.247 . S
O81 Zn75 2.035 . S
O81 C83 1.258 . S
C82 O76 1.247 . S
C82 O77 1.258 . S
C83 O80 1.247 . S
C83 O81 1.258 . S
C84 O86 1.247 . S
C84 O88 1.258 . S
C85 O92 1.247 . S
C85 O93 1.258 . S
O86 C84 1.247 . S
O86 Zn87 2.028 . S
Zn87 O86 2.028 . S
Zn87 O91 2.035 . S
Zn87 O93 2.035 . S
Zn87 O94 2.028 . S
O88 C84 1.258 . S
O88 Zn89 2.035 . S
Zn89 O88 2.035 . S
Zn89 O90 2.028 . S
Zn89 O92 2.028 . S
Zn89 O95 2.035 . S
O90 Zn89 2.028 . S
O90 C96 1.247 . S
O91 Zn87 2.035 . S
O91 C96 1.258 . S
O92 C85 1.247 . S
O92 Zn89 2.028 . S
O93 C85 1.258 . S
O93 Zn87 2.035 . S
O94 Zn87 2.028 . S
O94 C97 1.247 . S
O95 Zn89 2.035 . S
O95 C97 1.258 . S
C96 O90 1.247 . S
C96 O91 1.258 . S
C97 O94 1.247 . S
C97 O95 1.258 . S
C98 O100 1.247 . S
C98 O102 1.258 . S
C99 O106 1.247 . S
C99 O107 1.258 . S
O100 C98 1.247 . S
O100 Zn101 2.028 . S
Zn101 O100 2.028 . S
Zn101 O105 2.035 . S
Zn101 O107 2.035 . S
Zn101 O108 2.028 . S
O102 C98 1.258 . S
O102 Zn103 2.035 . S
Zn103 O102 2.035 . S
Zn103 O104 2.028 . S
Zn103 O106 2.028 . S
Zn103 O109 2.035 . S
O104 Zn103 2.028 . S
O104 C110 1.247 . S
O105 Zn101 2.035 . S
O105 C110 1.258 . S
O106 C99 1.247 . S
O106 Zn103 2.028 . S
O107 C99 1.258 . S
O107 Zn101 2.035 . S
O108 Zn101 2.028 . S
O108 C111 1.247 . S
O109 Zn103 2.035 . S
O109 C111 1.258 . S
C110 O104 1.247 . S
C110 O105 1.258 . S
C111 O108 1.247 . S
C111 O109 1.258 . S
C112 O114 1.247 . S
C112 O116 1.258 . S
C113 O120 1.247 . S
C113 O121 1.258 . S
O114 C112 1.247 . S
O114 Zn115 2.028 . S
Zn115 O114 2.028 . S
Zn115 O119 2.035 . S
Zn115 O121 2.035 . S
Zn115 O122 2.028 . S
O116 C112 1.258 . S
O116 Zn117 2.035 . S
Zn117 O116 2.035 . S
Zn117 O118 2.028 . S
Zn117 O120 2.028 . S
Zn117 O123 2.035 . S
O118 Zn117 2.028 . S
O118 C124 1.247 . S
O119 Zn115 2.035 . S
O119 C124 1.258 . S
O120 C113 1.247 . S
O120 Zn117 2.028 . S
O121 C113 1.258 . S
O121 Zn115 2.035 . S
O122 Zn115 2.028 . S
O122 C125 1.247 . S
O123 Zn117 2.035 . S
O123 C125 1.258 . S
C124 O118 1.247 . S
C124 O119 1.258 . S
C125 O122 1.247 . S
C125 O123 1.258 . S
C126 O128 1.247 . S
C126 O130 1.258 . S
C127 O134 1.247 . S
C127 O135 1.258 . S
O128 C126 1.247 . S
O128 Zn129 2.028 . S
Zn129 O128 2.028 . S
Zn129 O133 2.035 . S
Zn129 O135 2.035 . S
Zn129 O136 2.028 . S
O130 C126 1.258 . S
O130 Zn131 2.035 . S
Zn131 O130 2.035 . S
Zn131 O132 2.028 . S
Zn131 O134 2.028 . S
Zn131 O137 2.035 . S
O132 Zn131 2.028 . S
O132 C138 1.247 . S
O133 Zn129 2.035 . S
O133 C138 1.258 . S
O134 C127 1.247 . S
O134 Zn131 2.028 . S
O135 C127 1.258 . S
O135 Zn129 2.035 . S
O136 Zn129 2.028 . S
O136 C139 1.247 . S
O137 Zn131 2.035 . S
O137 C139 1.258 . S
C138 O132 1.247 . S
C138 O133 1.258 . S
C139 O136 1.247 . S
C139 O137 1.258 . S
C140 O142 1.247 . S
C140 O144 1.258 . S
C141 O148 1.247 . S
C141 O149 1.258 . S
O142 C140 1.247 . S
O142 Zn143 2.028 . S
Zn143 O142 2.028 . S
Zn143 O147 2.035 . S
Zn143 O149 2.035 . S
Zn143 O150 2.028 . S
O144 C140 1.258 . S
O144 Zn145 2.035 . S
Zn145 O144 2.035 . S
Zn145 O146 2.028 . S
Zn145 O148 2.028 . S
Zn145 O151 2.035 . S
O146 Zn145 2.028 . S
O146 C152 1.247 . S
O147 Zn143 2.035 . S
O147 C152 1.258 . S
O148 C141 1.247 . S
O148 Zn145 2.028 . S
O149 C141 1.258 . S
O149 Zn143 2.035 . S
O150 Zn143 2.028 . S
O150 C153 1.247 . S
O151 Zn145 2.035 . S
O151 C153 1.258 . S
C152 O146 1.247 . S
C152 O147 1.258 . S
C153 O150 1.247 . S
C153 O151 1.258 . S
C154 O156 1.247 . S
C154 O158 1.258 . S
C155 O162 1.247 . S
C155 O163 1.258 . S
O156 C154 1.247 . S
O156 Zn157 2.028 . S
Zn157 O156 2.028 . S
Zn157 O161 2.035 . S
Zn157 O163 2.035 . S
Zn157 O164 2.028 . S
O158 C154 1.258 . S
O158 Zn159 2.035 . S
Zn159 O158 2.035 . S
Zn159 O160 2.028 . S
Zn159 O162 2.028 . S
Zn159 O165 2.035 . S
O160 Zn159 2.028 . S
O160 C166 1.247 . S
O161 Zn157 2.035 . S
O161 C166 1.258 . S
O162 C155 1.247 . S
O162 Zn159 2.028 . S
O163 C155 1.258 . S
O163 Zn157 2.035 . S
O164 Zn157 2.028 . S
O164 C167 1.247 . S
O165 Zn159 2.035 . S
O165 C167 1.258 . S
C166 O160 1.247 . S
C166 O161 1.258 . S
C167 O164 1.247 . S
C167 O165 1.258 . S
C168 O170 1.247 . S
C168 O172 1.258 . S
C169 O176 1.247 . S
C169 O177 1.258 . S
O170 C168 1.247 . S
O170 Zn171 2.028 . S
Zn171 O170 2.028 . S
Zn171 O175 2.035 . S
Zn171 O177 2.035 . S
Zn171 O178 2.028 . S
O172 C168 1.258 . S
O172 Zn173 2.035 . S
Zn173 O172 2.035 . S
Zn173 O174 2.028 . S
Zn173 O176 2.028 . S
Zn173 O179 2.035 . S
O174 Zn173 2.028 . S
O174 C180 1.247 . S
O175 Zn171 2.035 . S
O175 C180 1.258 . S
O176 C169 1.247 . S
O176 Zn173 2.028 . S
O177 C169 1.258 . S
O177 Zn171 2.035 . S
O178 Zn171 2.028 . S
O178 C181 1.247 . S
O179 Zn173 2.035 . S
O179 C181 1.258 . S
C180 O174 1.247 . S
C180 O175 1.258 . S
C181 O178 1.247 . S
C181 O179 1.258 . S
C182 O184 1.247 . S
C182 O186 1.258 . S
C183 O190 1.247 . S
C183 O191 1.258 . S
O184 C182 1.247 . S
O184 Zn185 2.028 . S
Zn185 O184 2.028 . S
Zn185 O189 2.035 . S
Zn185 O191 2.035 . S
Zn185 O192 2.028 . S
O186 C182 1.258 . S
O186 Zn187 2.035 . S
Zn187 O186 2.035 . S
Zn187 O188 2.028 . S
Zn187 O190 2.028 . S
Zn187 O193 2.035 . S
O188 Zn187 2.028 . S
O188 C194 1.247 . S
O189 Zn185 2.035 . S
O189 C194 1.258 . S
O190 C183 1.247 . S
O190 Zn187 2.028 . S
O191 C183 1.258 . S
O191 Zn185 2.035 . S
O192 Zn185 2.028 . S
O192 C195 1.247 . S
O193 Zn187 2.035 . S
O193 C195 1.258 . S
C194 O188 1.247 . S
C194 O189 1.258 . S
C195 O192 1.247 . S
C195 O193 1.258 . S
C196 O198 1.247 . S
C196 O200 1.258 . S
C197 O204 1.247 . S
C197 O205 1.258 . S
O198 C196 1.247 . S
O198 Zn199 2.028 . S
Zn199 O198 2.028 . S
Zn199 O203 2.035 . S
Zn199 O205 2.035 . S
Zn199 O206 2.028 . S
O200 C196 1.258 . S
O200 Zn201 2.035 . S
Zn201 O200 2.035 . S
Zn201 O202 2.028 . S
Zn201 O204 2.028 . S
Zn201 O207 2.035 . S
O202 Zn201 2.028 . S
O202 C208 1.247 . S
O203 Zn199 2.035 . S
O203 C208 1.258 . S
O204 C197 1.247 . S
O204 Zn201 2.028 . S
O205 C197 1.258 . S
O205 Zn199 2.035 . S
O206 Zn199 2.028 . S
O206 C209 1.247 . S
O207 Zn201 2.035 . S
O207 C209 1.258 . S
C208 O202 1.247 . S
C208 O203 1.258 . S
C209 O206 1.247 . S
C209 O207 1.258 . S
C210 O212 1.247 . S
C210 O214 1.258 . S
C211 O218 1.247 . S
C211 O219 1.258 . S
O212 C210 1.247 . S
O212 Zn213 2.028 . S
Zn213 O212 2.028 . S
Zn213 O217 2.035 . S
Zn213 O219 2.035 . S
Zn213 O220 2.028 . S
O214 C210 1.258 . S
O214 Zn215 2.035 . S
Zn215 O214 2.035 . S
Zn215 O216 2.028 . S
Zn215 O218 2.028 . S
Zn215 O221 2.035 . S
O216 Zn215 2.028 . S
O216 C222 1.247 . S
O217 Zn213 2.035 . S
O217 C222 1.258 . S
O218 C211 1.247 . S
O218 Zn215 2.028 . S
O219 C211 1.258 . S
O219 Zn213 2.035 . S
O220 Zn213 2.028 . S
O220 C223 1.247 . S
O221 Zn215 2.035 . S
O221 C223 1.258 . S
C222 O216 1.247 . S
C222 O217 1.258 . S
C223 O220 1.247 . S
C223 O221 1.258 . S
C224 O226 1.247 . S
C224 O228 1.258 . S
C225 O232 1.247 . S
C225 O233 1.258 . S
O226 C224 1.247 . S
O226 Zn227 2.028 . S
Zn227 O226 2.028 . S
Zn227 O231 2.035 . S
Zn227 O233 2.035 . S
Zn227 O234 2.028 . S
O228 C224 1.258 . S
O228 Zn229 2.035 . S
Zn229 O228 2.035 . S
Zn229 O230 2.028 . S
Zn229 O232 2.028 . S
Zn229 O235 2.035 . S
O230 Zn229 2.028 . S
O230 C236 1.247 . S
O231 Zn227 2.035 . S
O231 C236 1.258 . S
O232 C225 1.247 . S
O232 Zn229 2.028 . S
O233 C225 1.258 . S
O233 Zn227 2.035 . S
O234 Zn227 2.028 . S
O234 C237 1.247 . S
O235 Zn229 2.035 . S
O235 C237 1.258 . S
C236 O230 1.247 . S
C236 O231 1.258 . S
C237 O234 1.247 . S
C237 O235 1.258 . S
C238 O240 1.247 . S
C238 O242 1.258 . S
C239 O246 1.247 . S
C239 O247 1.258 . S
O240 C238 1.247 . S
O240 Zn241 2.028 . S
Zn241 O240 2.028 . S
Zn241 O245 2.035 . S
Zn241 O247 2.035 . S
Zn241 O248 2.028 . S
O242 C238 1.258 . S
O242 Zn243 2.035 . S
Zn243 O242 2.035 . S
Zn243 O244 2.028 . S
Zn243 O246 2.028 . S
Zn243 O249 2.035 . S
O244 Zn243 2.028 . S
O244 C250 1.247 . S
O245 Zn241 2.035 . S
O245 C250 1.258 . S
O246 C239 1.247 . S
O246 Zn243 2.028 . S
O247 C239 1.258 . S
O247 Zn241 2.035 . S
O248 Zn241 2.028 . S
O248 C251 1.247 . S
O249 Zn243 2.035 . S
O249 C251 1.258 . S
C250 O244 1.247 . S
C250 O245 1.258 . S
C251 O248 1.247 . S
C251 O249 1.258 . S
C252 O254 1.247 . S
C252 O256 1.258 . S
C253 O260 1.247 . S
C253 O261 1.258 . S
O254 C252 1.247 . S
O254 Zn255 2.028 . S
Zn255 O254 2.028 . S
Zn255 O259 2.035 . S
Zn255 O261 2.035 . S
Zn255 O262 2.028 . S
O256 C252 1.258 . S
O256 Zn257 2.035 . S
Zn257 O256 2.035 . S
Zn257 O258 2.028 . S
Zn257 O260 2.028 . S
Zn257 O263 2.035 . S
O258 Zn257 2.028 . S
O258 C264 1.247 . S
O259 Zn255 2.035 . S
O259 C264 1.258 . S
O260 C253 1.247 . S
O260 Zn257 2.028 . S
O261 C253 1.258 . S
O261 Zn255 2.035 . S
O262 Zn255 2.028 . S
O262 C265 1.247 . S
O263 Zn257 2.035 . S
O263 C265 1.258 . S
C264 O258 1.247 . S
C264 O259 1.258 . S
C265 O262 1.247 . S
C265 O263 1.258 . S
C266 O268 1.247 . S
C266 O270 1.258 . S
C267 O274 1.247 . S
C267 O275 1.258 . S
O268 C266 1.247 . S
O268 Zn269 2.028 . S
Zn269 O268 2.028 . S
Zn269 O273 2.035 . S
Zn269 O275 2.035 . S
Zn269 O276 2.028 . S
O270 C266 1.258 . S
O270 Zn271 2.035 . S
Zn271 O270 2.035 . S
Zn271 O272 2.028 . S
Zn271 O274 2.028 . S
Zn271 O277 2.035 . S
O272 Zn271 2.028 . S
O272 C278 1.247 . S
O273 Zn269 2.035 . S
O273 C278 1.258 . S
O274 C267 1.247 . S
O274 Zn271 2.028 . S
O275 C267 1.258 . S
O275 Zn269 2.035 . S
O276 Zn269 2.028 . S
O276 C279 1.247 . S
O277 Zn271 2.035 . S
O277 C279 1.258 . S
C278 O272 1.247 . S
C278 O273 1.258 . S
C279 O276 1.247 . S
C279 O277 1.258 . S
C280 O282 1.247 . S
C280 O284 1.258 . S
C281 O288 1.247 . S
C281 O289 1.258 . S
O282 C280 1.247 . S
O282 Zn283 2.028 . S
Zn283 O282 2.028 . S
Zn283 O287 2.035 . S
Zn283 O289 2.035 . S
Zn283 O290 2.028 . S
O284 C280 1.258 . S
O284 Zn285 2.035 . S
Zn285 O284 2.035 . S
Zn285 O286 2.028 . S
Zn285 O288 2.028 . S
Zn285 O291 2.035 . S
O286 Zn285 2.028 . S
O286 C292 1.247 . S
O287 Zn283 2.035 . S
O287 C292 1.258 . S
O288 C281 1.247 . S
O288 Zn285 2.028 . S
O289 C281 1.258 . S
O289 Zn283 2.035 . S
O290 Zn283 2.028 . S
O290 C293 1.247 . S
O291 Zn285 2.035 . S
O291 C293 1.258 . S
C292 O286 1.247 . S
C292 O287 1.258 . S
C293 O290 1.247 . S
C293 O291 1.258 . S
C294 O296 1.247 . S
C294 O298 1.258 . S
C295 O302 1.247 . S
C295 O303 1.258 . S
O296 C294 1.247 . S
O296 Zn297 2.028 . S
Zn297 O296 2.028 . S
Zn297 O301 2.035 . S
Zn297 O303 2.035 . S
Zn297 O304 2.028 . S
O298 C294 1.258 . S
O298 Zn299 2.035 . S
Zn299 O298 2.035 . S
Zn299 O300 2.028 . S
Zn299 O302 2.028 . S
Zn299 O305 2.035 . S
O300 Zn299 2.028 . S
O300 C306 1.247 . S
O301 Zn297 2.035 . S
O301 C306 1.258 . S
O302 C295 1.247 . S
O302 Zn299 2.028 . S
O303 C295 1.258 . S
O303 Zn297 2.035 . S
O304 Zn297 2.028 . S
O304 C307 1.247 . S
O305 Zn299 2.035 . S
O305 C307 1.258 . S
C306 O300 1.247 . S
C306 O301 1.258 . S
C307 O304 1.247 . S
C307 O305 1.258 . S
C308 O310 1.247 . S
C308 O312 1.258 . S
C309 O316 1.247 . S
C309 O317 1.258 . S
O310 C308 1.247 . S
O310 Zn311 2.028 . S
Zn311 O310 2.028 . S
Zn311 O315 2.035 . S
Zn311 O317 2.035 . S
Zn311 O318 2.028 . S
O312 C308 1.258 . S
O312 Zn313 2.035 . S
Zn313 O312 2.035 . S
Zn313 O314 2.028 . S
Zn313 O316 2.028 . S
Zn313 O319 2.035 . S
O314 Zn313 2.028 . S
O314 C320 1.247 . S
O315 Zn311 2.035 . S
O315 C320 1.258 . S
O316 C309 1.247 . S
O316 Zn313 2.028 . S
O317 C309 1.258 . S
O317 Zn311 2.035 . S
O318 Zn311 2.028 . S
O318 C321 1.247 . S
O319 Zn313 2.035 . S
O319 C321 1.258 . S
C320 O314 1.247 . S
C320 O315 1.258 . S
C321 O318 1.247 . S
C321 O319 1.258 . S
C322 O324 1.247 . S
C322 O326 1.258 . S
C323 O330 1.247 . S
C323 O331 1.258 . S
O324 C322 1.247 . S
O324 Zn325 2.028 . S
Zn325 O324 2.028 . S
Zn325 O329 2.035 . S
Zn325 O331 2.035 . S
Zn325 O332 2.028 . S
O326 C322 1.258 . S
O326 Zn327 2.035 . S
Zn327 O326 2.035 . S
Zn327 O328 2.028 . S
Zn327 O330 2.028 . S
Zn327 O333 2.035 . S
O328 Zn327 2.028 . S
O328 C334 1.247 . S
O329 Zn325 2.035 . S
O329 C334 1.258 . S
O330 C323 1.247 . S
O330 Zn327 2.028 . S
O331 C323 1.258 . S
O331 Zn325 2.035 . S
O332 Zn325 2.028 . S
O332 C335 1.247 . S
O333 Zn327 2.035 . S
O333 C335 1.258 . S
C334 O328 1.247 . S
C334 O329 1.258 . S
C335 O332 1.247 . S
C335 O333 1.258 . S
C336 O338 1.247 . S
C336 O340 1.258 . S
C337 O344 1.247 . S
C337 O345 1.258 . S
O338 C336 1.247 . S
O338 Zn339 2.028 . S
Zn339 O338 2.028 . S
Zn339 O343 2.035 . S
Zn339 O345 2.035 . S
Zn339 O346 2.028 . S
O340 C336 1.258 . S
O340 Zn341 2.035 . S
Zn341 O340 2.035 . S
Zn341 O342 2.028 . S
Zn341 O344 2.028 . S
Zn341 O347 2.035 . S
O342 Zn341 2.028 . S
O342 C348 1.247 . S
O343 Zn339 2.035 . S
O343 C348 1.258 . S
O344 C337 1.247 . S
O344 Zn341 2.028 . S
O345 C337 1.258 . S
O345 Zn339 2.035 . S
O346 Zn339 2.028 . S
O346 C349 1.247 . S
O347 Zn341 2.035 . S
O347 C349 1.258 . S
C348 O342 1.247 . S
C348 O343 1.258 . S
C349 O346 1.247 . S
C349 O347 1.258 . S
C350 O352 1.247 . S
C350 O354 1.258 . S
C351 O358 1.247 . S
C351 O359 1.258 . S
O352 C350 1.247 . S
O352 Zn353 2.028 . S
Zn353 O352 2.028 . S
Zn353 O357 2.035 . S
Zn353 O359 2.035 . S
Zn353 O360 2.028 . S
O354 C350 1.258 . S
O354 Zn355 2.035 . S
Zn355 O354 2.035 . S
Zn355 O356 2.028 . S
Zn355 O358 2.028 . S
Zn355 O361 2.035 . S
O356 Zn355 2.028 . S
O356 C362 1.247 . S
O357 Zn353 2.035 . S
O357 C362 1.258 . S
O358 C351 1.247 . S
O358 Zn355 2.028 . S
O359 C351 1.258 . S
O359 Zn353 2.035 . S
O360 Zn353 2.028 . S
O360 C363 1.247 . S
O361 Zn355 2.035 . S
O361 C363 1.258 . S
C362 O356 1.247 . S
C362 O357 1.258 . S
C363 O360 1.247 . S
C363 O361 1.258 . S
C364 O366 1.247 . S
C364 O368 1.258 . S
C365 O372 1.247 . S
C365 O373 1.258 . S
O366 C364 1.247 . S
O366 Zn367 2.028 . S
Zn367 O366 2.028 . S
Zn367 O371 2.035 . S
Zn367 O373 2.035 . S
Zn367 O374 2.028 . S
O368 C364 1.258 . S
O368 Zn369 2.035 . S
Zn369 O368 2.035 . S
Zn369 O370 2.028 . S
Zn369 O372 2.028 . S
Zn369 O375 2.035 . S
O370 Zn369 2.028 . S
O370 C376 1.247 . S
O371 Zn367 2.035 . S
O371 C376 1.258 . S
O372 C365 1.247 . S
O372 Zn369 2.028 . S
O373 C365 1.258 . S
O373 Zn367 2.035 . S
O374 Zn367 2.028 . S
O374 C377 1.247 . S
O375 Zn369 2.035 . S
O375 C377 1.258 . S
C376 O370 1.247 . S
C376 O371 1.258 . S
C377 O374 1.247 . S
C377 O375 1.258 . S
C378 O380 1.247 . S
C378 O382 1.258 . S
C379 O386 1.247 . S
C379 O387 1.258 . S
O380 C378 1.247 . S
O380 Zn381 2.028 . S
Zn381 O380 2.028 . S
Zn381 O385 2.035 . S
Zn381 O387 2.035 . S
Zn381 O388 2.028 . S
O382 C378 1.258 . S
O382 Zn383 2.035 . S
Zn383 O382 2.035 . S
Zn383 O384 2.028 . S
Zn383 O386 2.028 . S
Zn383 O389 2.035 . S
O384 Zn383 2.028 . S
O384 C390 1.247 . S
O385 Zn381 2.035 . S
O385 C390 1.258 . S
O386 C379 1.247 . S
O386 Zn383 2.028 . S
O387 C379 1.258 . S
O387 Zn381 2.035 . S
O388 Zn381 2.028 . S
O388 C391 1.247 . S
O389 Zn383 2.035 . S
O389 C391 1.258 . S
C390 O384 1.247 . S
C390 O385 1.258 . S
C391 O388 1.247 . S
C391 O389 1.258 . S
C392 O394 1.247 . S
C392 O396 1.258 . S
C393 O400 1.247 . S
C393 O401 1.258 . S
O394 C392 1.247 . S
O394 Zn395 2.028 . S
Zn395 O394 2.028 . S
Zn395 O399 2.035 . S
Zn395 O401 2.035 . S
Zn395 O402 2.028 . S
O396 C392 1.258 . S
O396 Zn397 2.035 . S
Zn397 O396 2.035 . S
Zn397 O398 2.028 . S
Zn397 O400 2.028 . S
Zn397 O403 2.035 . S
O398 Zn397 2.028 . S
O398 C404 1.247 . S
O399 Zn395 2.035 . S
O399 C404 1.258 . S
O400 C393 1.247 . S
O400 Zn397 2.028 . S
O401 C393 1.258 . S
O401 Zn395 2.035 . S
O402 Zn395 2.028 . S
O402 C405 1.247 . S
O403 Zn397 2.035 . S
O403 C405 1.258 . S
C404 O398 1.247 . S
C404 O399 1.258 . S
C405 O402 1.247 . S
C405 O403 1.258 . S
C406 O408 1.247 . S
C406 O410 1.258 . S
C407 O414 1.247 . S
C407 O415 1.258 . S
O408 C406 1.247 . S
O408 Zn409 2.028 . S
Zn409 O408 2.028 . S
Zn409 O413 2.035 . S
Zn409 O415 2.035 . S
Zn409 O416 2.028 . S
O410 C406 1.258 . S
O410 Zn411 2.035 . S
Zn411 O410 2.035 . S
Zn411 O412 2.028 . S
Zn411 O414 2.028 . S
Zn411 O417 2.035 . S
O412 Zn411 2.028 . S
O412 C418 1.247 . S
O413 Zn409 2.035 . S
O413 C418 1.258 . S
O414 C407 1.247 . S
O414 Zn411 2.028 . S
O415 C407 1.258 . S
O415 Zn409 2.035 . S
O416 Zn409 2.028 . S
O416 C419 1.247 . S
O417 Zn411 2.035 . S
O417 C419 1.258 . S
C418 O412 1.247 . S
C418 O413 1.258 . S
C419 O416 1.247 . S
C419 O417 1.258 . S
C420 O422 1.247 . S
C420 O424 1.258 . S
C421 O428 1.247 . S
C421 O429 1.258 . S
O422 C420 1.247 . S
O422 Zn423 2.028 . S
Zn423 O422 2.028 . S
Zn423 O427 2.035 . S
Zn423 O429 2.035 . S
Zn423 O430 2.028 . S
O424 C420 1.258 . S
O424 Zn425 2.035 . S
Zn425 O424 2.035 . S
Zn425 O426 2.028 . S
Zn425 O428 2.028 . S
Zn425 O431 2.035 . S
O426 Zn425 2.028 . S
O426 C432 1.247 . S
O427 Zn423 2.035 . S
O427 C432 1.258 . S
O428 C421 1.247 . S
O428 Zn425 2.028 . S
O429 C421 1.258 . S
O429 Zn423 2.035 . S
O430 Zn423 2.028 . S
O430 C433 1.247 . S
O431 Zn425 2.035 . S
O431 C433 1.258 . S
C432 O426 1.247 . S
C432 O427 1.258 . S
C433 O430 1.247 . S
C433 O431 1.258 . S
C434 O436 1.247 . S
C434 O438 1.258 . S
C435 O442 1.247 . S
C435 O443 1.258 . S
O436 C434 1.247 . S
O436 Zn437 2.028 . S
Zn437 O436 2.028 . S
Zn437 O441 2.035 . S
Zn437 O443 2.035 . S
Zn437 O444 2.028 . S
O438 C434 1.258 . S
O438 Zn439 2.035 . S
Zn439 O438 2.035 . S
Zn439 O440 2.028 . S
Zn439 O442 2.028 . S
Zn439 O445 2.035 . S
O440 Zn439 2.028 . S
O440 C446 1.247 . S
O441 Zn437 2.035 . S
O441 C446 1.258 . S
O442 C435 1.247 . S
O442 Zn439 2.028 . S
O443 C435 1.258 . S
O443 Zn437 2.035 . S
O444 Zn437 2.028 . S
O444 C447 1.247 . S
O445 Zn439 2.035 . S
O445 C447 1.258 . S
C446 O440 1.247 . S
C446 O441 1.258 . S
C447 O444 1.247 . S
C447 O445 1.258 . S
C448 O450 1.247 . S
C448 O452 1.258 . S
C449 O456 1.247 . S
C449 O457 1.258 . S
O450 C448 1.247 . S
O450 Zn451 2.028 . S
Zn451 O450 2.028 . S
Zn451 O455 2.035 . S
Zn451 O457 2.035 . S
Zn451 O458 2.028 . S
O452 C448 1.258 . S
O452 Zn453 2.035 . S
Zn453 O452 2.035 . S
Zn453 O454 2.028 . S
Zn453 O456 2.028 . S
Zn453 O459 2.035 . S
O454 Zn453 2.028 . S
O454 C460 1.247 . S
O455 Zn451 2.035 . S
O455 C460 1.258 . S
O456 C449 1.247 . S
O456 Zn453 2.028 . S
O457 C449 1.258 . S
O457 Zn451 2.035 . S
O458 Zn451 2.028 . S
O458 C461 1.247 . S
O459 Zn453 2.035 . S
O459 C461 1.258 . S
C460 O454 1.247 . S
C460 O455 1.258 . S
C461 O458 1.247 . S
C461 O459 1.258 . S
C462 O464 1.247 . S
C462 O466 1.258 . S
C463 O470 1.247 . S
C463 O471 1.258 . S
O464 C462 1.247 . S
O464 Zn465 2.028 . S
Zn465 O464 2.028 . S
Zn465 O469 2.035 . S
Zn465 O471 2.035 . S
Zn465 O472 2.028 . S
O466 C462 1.258 . S
O466 Zn467 2.035 . S
Zn467 O466 2.035 . S
Zn467 O468 2.028 . S
Zn467 O470 2.028 . S
Zn467 O473 2.035 . S
O468 Zn467 2.028 . S
O468 C474 1.247 . S
O469 Zn465 2.035 . S
O469 C474 1.258 . S
O470 C463 1.247 . S
O470 Zn467 2.028 . S
O471 C463 1.258 . S
O471 Zn465 2.035 . S
O472 Zn465 2.028 . S
O472 C475 1.247 . S
O473 Zn467 2.035 . S
O473 C475 1.258 . S
C474 O468 1.247 . S
C474 O469 1.258 . S
C475 O472 1.247 . S
C475 O473 1.258 . S
C476 O478 1.247 . S
C476 O480 1.258 . S
C477 O484 1.247 . S
C477 O485 1.258 . S
O478 C476 1.247 . S
O478 Zn479 2.028 . S
Zn479 O478 2.028 . S
Zn479 O483 2.035 . S
Zn479 O485 2.035 . S
Zn479 O486 2.028 . S
O480 C476 1.258 . S
O480 Zn481 2.035 . S
Zn481 O480 2.035 . S
Zn481 O482 2.028 . S
Zn481 O484 2.028 . S
Zn481 O487 2.035 . S
O482 Zn481 2.028 . S
O482 C488 1.247 . S
O483 Zn479 2.035 . S
O483 C488 1.258 . S
O484 C477 1.247 . S
O484 Zn481 2.028 . S
O485 C477 1.258 . S
O485 Zn479 2.035 . S
O486 Zn479 2.028 . S
O486 C489 1.247 . S
O487 Zn481 2.035 . S
O487 C489 1.258 . S
C488 O482 1.247 . S
C488 O483 1.258 . S
C489 O486 1.247 . S
C489 O487 1.258 . S
C490 O492 1.247 . S
C490 O494 1.258 . S
C491 O498 1.247 . S
C491 O499 1.258 . S
O492 C490 1.247 . S
O492 Zn493 2.028 . S
Zn493 O492 2.028 . S
Zn493 O497 2.035 . S
Zn493 O499 2.035 . S
Zn493 O500 2.028 . S
O494 C490 1.258 . S
O494 Zn495 2.035 . S
Zn495 O494 2.035 . S
Zn495 O496 2.028 . S
Zn495 O498 2.028 . S
Zn495 O501 2.035 . S
O496 Zn495 2.028 . S
O496 C502 1.247 . S
O497 Zn493 2.035 . S
O497 C502 1.258 . S
O498 C491 1.247 . S
O498 Zn495 2.028 . S
O499 C491 1.258 . S
O499 Zn493 2.035 . S
O500 Zn493 2.028 . S
O500 C503 1.247 . S
O501 Zn495 2.035 . S
O501 C503 1.258 . S
C502 O496 1.247 . S
C502 O497 1.258 . S
C503 O500 1.247 . S
C503 O501 1.258 . S
C504 O506 1.247 . S
C504 O508 1.258 . S
C505 O512 1.247 . S
C505 O513 1.258 . S
O506 C504 1.247 . S
O506 Zn507 2.028 . S
Zn507 O506 2.028 . S
Zn507 O511 2.035 . S
Zn507 O513 2.035 . S
Zn507 O514 2.028 . S
O508 C504 1.258 . S
O508 Zn509 2.035 . S
Zn509 O508 2.035 . S
Zn509 O510 2.028 . S
Zn509 O512 2.028 . S
Zn509 O515 2.035 . S
O510 Zn509 2.028 . S
O510 C516 1.247 . S
O511 Zn507 2.035 . S
O511 C516 1.258 . S
O512 C505 1.247 . S
O512 Zn509 2.028 . S
O513 C505 1.258 . S
O513 Zn507 2.035 . S
O514 Zn507 2.028 . S
O514 C517 1.247 . S
O515 Zn509 2.035 . S
O515 C517 1.258 . S
C516 O510 1.247 . S
C516 O511 1.258 . S
C517 O514 1.247 . S
C517 O515 1.258 . S
C518 O520 1.247 . S
C518 O522 1.258 . S
C519 O526 1.247 . S
C519 O527 1.258 . S
O520 C518 1.247 . S
O520 Zn521 2.028 . S
Zn521 O520 2.028 . S
Zn521 O525 2.035 . S
Zn521 O527 2.035 . S
Zn521 O528 2.028 . S
O522 C518 1.258 . S
O522 Zn523 2.035 . S
Zn523 O522 2.035 . S
Zn523 O524 2.028 . S
Zn523 O526 2.028 . S
Zn523 O529 2.035 . S
O524 Zn523 2.028 . S
O524 C530 1.247 . S
O525 Zn521 2.035 . S
O525 C530 1.258 . S
O526 C519 1.247 . S
O526 Zn523 2.028 . S
O527 C519 1.258 . S
O527 Zn521 2.035 . S
O528 Zn521 2.028 . S
O528 C531 1.247 . S
O529 Zn523 2.035 . S
O529 C531 1.258 . S
C530 O524 1.247 . S
C530 O525 1.258 . S
C531 O528 1.247 . S
C531 O529 1.258 . S
C532 O534 1.247 . S
C532 O536 1.258 . S
C533 O540 1.247 . S
C533 O541 1.258 . S
O534 C532 1.247 . S
O534 Zn535 2.028 . S
Zn535 O534 2.028 . S
Zn535 O539 2.035 . S
Zn535 O541 2.035 . S
Zn535 O542 2.028 . S
O536 C532 1.258 . S
O536 Zn537 2.035 . S
Zn537 O536 2.035 . S
Zn537 O538 2.028 . S
Zn537 O540 2.028 . S
Zn537 O543 2.035 . S
O538 Zn537 2.028 . S
O538 C544 1.247 . S
O539 Zn535 2.035 . S
O539 C544 1.258 . S
O540 C533 1.247 . S
O540 Zn537 2.028 . S
O541 C533 1.258 . S
O541 Zn535 2.035 . S
O542 Zn535 2.028 . S
O542 C545 1.247 . S
O543 Zn537 2.035 . S
O543 C545 1.258 . S
C544 O538 1.247 . S
C544 O539 1.258 . S
C545 O542 1.247 . S
C545 O543 1.258 . S
C546 O548 1.247 . S
C546 O550 1.258 . S
C547 O554 1.247 . S
C547 O555 1.258 . S
O548 C546 1.247 . S
O548 Zn549 2.028 . S
Zn549 O548 2.028 . S
Zn549 O553 2.035 . S
Zn549 O555 2.035 . S
Zn549 O556 2.028 . S
O550 C546 1.258 . S
O550 Zn551 2.035 . S
Zn551 O550 2.035 . S
Zn551 O552 2.028 . S
Zn551 O554 2.028 . S
Zn551 O557 2.035 . S
O552 Zn551 2.028 . S
O552 C558 1.247 . S
O553 Zn549 2.035 . S
O553 C558 1.258 . S
O554 C547 1.247 . S
O554 Zn551 2.028 . S
O555 C547 1.258 . S
O555 Zn549 2.035 . S
O556 Zn549 2.028 . S
O556 C559 1.247 . S
O557 Zn551 2.035 . S
O557 C559 1.258 . S
C558 O552 1.247 . S
C558 O553 1.258 . S
C559 O556 1.247 . S
C559 O557 1.258 . S
C560 O562 1.247 . S
C560 O564 1.258 . S
C561 O568 1.247 . S
C561 O569 1.258 . S
O562 C560 1.247 . S
O562 Zn563 2.028 . S
Zn563 O562 2.028 . S
Zn563 O567 2.035 . S
Zn563 O569 2.035 . S
Zn563 O570 2.028 . S
O564 C560 1.258 . S
O564 Zn565 2.035 . S
Zn565 O564 2.035 . S
Zn565 O566 2.028 . S
Zn565 O568 2.028 . S
Zn565 O571 2.035 . S
O566 Zn565 2.028 . S
O566 C572 1.247 . S
O567 Zn563 2.035 . S
O567 C572 1.258 . S
O568 C561 1.247 . S
O568 Zn565 2.028 . S
O569 C561 1.258 . S
O569 Zn563 2.035 . S
O570 Zn563 2.028 . S
O570 C573 1.247 . S
O571 Zn565 2.035 . S
O571 C573 1.258 . S
C572 O566 1.247 . S
C572 O567 1.258 . S
C573 O570 1.247 . S
C573 O571 1.258 . S
C574 O576 1.247 . S
C574 O578 1.258 . S
C575 O582 1.247 . S
C575 O583 1.258 . S
O576 C574 1.247 . S
O576 Zn577 2.028 . S
Zn577 O576 2.028 . S
Zn577 O581 2.035 . S
Zn577 O583 2.035 . S
Zn577 O584 2.028 . S
O578 C574 1.258 . S
O578 Zn579 2.035 . S
Zn579 O578 2.035 . S
Zn579 O580 2.028 . S
Zn579 O582 2.028 . S
Zn579 O585 2.035 . S
O580 Zn579 2.028 . S
O580 C586 1.247 . S
O581 Zn577 2.035 . S
O581 C586 1.258 . S
O582 C575 1.247 . S
O582 Zn579 2.028 . S
O583 C575 1.258 . S
O583 Zn577 2.035 . S
O584 Zn577 2.028 . S
O584 C587 1.247 . S
O585 Zn579 2.035 . S
O585 C587 1.258 . S
C586 O580 1.247 . S
C586 O581 1.258 . S
C587 O584 1.247 . S
C587 O585 1.258 . S
C588 O590 1.247 . S
C588 O592 1.258 . S
C589 O596 1.247 . S
C589 O597 1.258 . S
O590 C588 1.247 . S
O590 Zn591 2.028 . S
Zn591 O590 2.028 . S
Zn591 O595 2.035 . S
Zn591 O597 2.035 . S
Zn591 O598 2.028 . S
O592 C588 1.258 . S
O592 Zn593 2.035 . S
Zn593 O592 2.035 . S
Zn593 O594 2.028 . S
Zn593 O596 2.028 . S
Zn593 O599 2.035 . S
O594 Zn593 2.028 . S
O594 C600 1.247 . S
O595 Zn591 2.035 . S
O595 C600 1.258 . S
O596 C589 1.247 . S
O596 Zn593 2.028 . S
O597 C589 1.258 . S
O597 Zn591 2.035 . S
O598 Zn591 2.028 . S
O598 C601 1.247 . S
O599 Zn593 2.035 . S
O599 C601 1.258 . S
C600 O594 1.247 . S
C600 O595 1.258 . S
C601 O598 1.247 . S
C601 O599 1.258 . S
C602 O604 1.247 . S
C602 O606 1.258 . S
C603 O610 1.247 . S
C603 O611 1.258 . S
O604 C602 1.247 . S
O604 Zn605 2.028 . S
Zn605 O604 2.028 . S
Zn605 O609 2.035 . S
Zn605 O611 2.035 . S
Zn605 O612 2.028 . S
O606 C602 1.258 . S
O606 Zn607 2.035 . S
Zn607 O606 2.035 . S
Zn607 O608 2.028 . S
Zn607 O610 2.028 . S
Zn607 O613 2.035 . S
O608 Zn607 2.028 . S
O608 C614 1.247 . S
O609 Zn605 2.035 . S
O609 C614 1.258 . S
O610 C603 1.247 . S
O610 Zn607 2.028 . S
O611 C603 1.258 . S
O611 Zn605 2.035 . S
O612 Zn605 2.028 . S
O612 C615 1.247 . S
O613 Zn607 2.035 . S
O613 C615 1.258 . S
C614 O608 1.247 . S
C614 O609 1.258 . S
C615 O612 1.247 . S
C615 O613 1.258 . S
C616 O618 1.247 . S
C616 O620 1.258 . S
C617 O624 1.247 . S
C617 O625 1.258 . S
O618 C616 1.247 . S
O618 Zn619 2.028 . S
Zn619 O618 2.028 . S
Zn619 O623 2.035 . S
Zn619 O625 2.035 . S
Zn619 O626 2.028 . S
O620 C616 1.258 . S
O620 Zn621 2.035 . S
Zn621 O620 2.035 . S
Zn621 O622 2.028 . S
Zn621 O624 2.028 . S
Zn621 O627 2.035 . S
O622 Zn621 2.028 . S
O622 C628 1.247 . S
O623 Zn619 2.035 . S
O623 C628 1.258 . S
O624 C617 1.247 . S
O624 Zn621 2.028 . S
O625 C617 1.258 . S
O625 Zn619 2.035 . S
O626 Zn619 2.028 . S
O626 C629 1.247 . S
O627 Zn621 2.035 . S
O627 C629 1.258 . S
C628 O622 1.247 . S
C628 O623 1.258 . S
C629 O626 1.247 . S
C629 O627 1.258 . S
C630 O632 1.247 . S
C630 O634 1.258 . S
C631 O638 1.247 . S
C631 O639 1.258 . S
O632 C630 1.247 . S
O632 Zn633 2.028 . S
Zn633 O632 2.028 . S
Zn633 O637 2.035 . S
Zn633 O639 2.035 . S
Zn633 O640 2.028 . S
O634 C630 1.258 . S
O634 Zn635 2.035 . S
Zn635 O634 2.035 . S
Zn635 O636 2.028 . S
Zn635 O638 2.028 . S
Zn635 O641 2.035 . S
O636 Zn635 2.028 . S
O636 C642 1.247 . S
O637 Zn633 2.035 . S
O637 C642 1.258 . S
O638 C631 1.247 . S
O638 Zn635 2.028 . S
O639 C631 1.258 . S
O639 Zn633 2.035 . S
O640 Zn633 2.028 . S
O640 C643 1.247 . S
O641 Zn635 2.035 . S
O641 C643 1.258 . S
C642 O636 1.247 . S
C642 O637 1.258 . S
C643 O640 1.247 . S
C643 O641 1.258 . S
C644 O646 1.247 . S
C644 O648 1.258 . S
C645 O652 1.247 . S
C645 O653 1.258 . S
O646 C644 1.247 . S
O646 Zn647 2.028 . S
Zn647 O646 2.028 . S
Zn647 O651 2.035 . S
Zn647 O653 2.035 . S
Zn647 O654 2.028 . S
O648 C644 1.258 . S
O648 Zn649 2.035 . S
Zn649 O648 2.035 . S
Zn649 O650 2.028 . S
Zn649 O652 2.028 . S
Zn649 O655 2.035 . S
O650 Zn649 2.028 . S
O650 C656 1.247 . S
O651 Zn647 2.035 . S
O651 C656 1.258 . S
O652 C645 1.247 . S
O652 Zn649 2.028 . S
O653 C645 1.258 . S
O653 Zn647 2.035 . S
O654 Zn647 2.028 . S
O654 C657 1.247 . S
O655 Zn649 2.035 . S
O655 C657 1.258 . S
C656 O650 1.247 . S
C656 O651 1.258 . S
C657 O654 1.247 . S
C657 O655 1.258 . S
C658 O660 1.247 . S
C658 O662 1.258 . S
C659 O666 1.247 . S
C659 O667 1.258 . S
O660 C658 1.247 . S
O660 Zn661 2.028 . S
Zn661 O660 2.028 . S
Zn661 O665 2.035 . S
Zn661 O667 2.035 . S
Zn661 O668 2.028 . S
O662 C658 1.258 . S
O662 Zn663 2.035 . S
Zn663 O662 2.035 . S
Zn663 O664 2.028 . S
Zn663 O666 2.028 . S
Zn663 O669 2.035 . S
O664 Zn663 2.028 . S
O664 C670 1.247 . S
O665 Zn661 2.035 . S
O665 C670 1.258 . S
O666 C659 1.247 . S
O666 Zn663 2.028 . S
O667 C659 1.258 . S
O667 Zn661 2.035 . S
O668 Zn661 2.028 . S
O668 C671 1.247 . S
O669 Zn663 2.035 . S
O669 C671 1.258 . S
C670 O664 1.247 . S
C670 O665 1.258 . S
C671 O668 1.247 . S
C671 O669 1.258 . S
C672 C673 1.387 . S
C672 H676 0.950 . S
C672 C681 1.390 1_565 S
C673 C672 1.387 . S
C673 C675 1.387 . S
H674 C681 0.950 . S
C675 C673 1.387 . S
C675 C677 1.390 1_565 S
C675 H679 0.950 . S
H676 C672 0.950 . S
C677 C675 1.390 1_545 S
C677 C678 1.387 . S
C677 H680 0.950 . S
C678 C677 1.387 . S
C678 C681 1.387 . S
H679 C675 0.950 . S
H680 C677 0.950 . S
C681 C672 1.390 1_545 S
C681 H674 0.950 . S
C681 C678 1.387 . S
C682 C683 1.387 . S
C682 H686 0.950 . S
C682 C691 1.390 1_455 S
C683 C682 1.387 . S
C683 C685 1.387 . S
H684 C691 0.950 . S
C685 C683 1.387 . S
C685 C687 1.390 1_455 S
C685 H689 0.950 . S
H686 C682 0.950 . S
C687 C685 1.390 1_655 S
C687 C688 1.387 . S
C687 H690 0.950 . S
C688 C687 1.387 . S
C688 C691 1.387 . S
H689 C685 0.950 . S
H690 C687 0.950 . S
C691 C682 1.390 1_655 S
C691 H684 0.950 . S
C691 C688 1.387 . S
C692 C693 1.387 . S
C692 H696 0.950 . S
C692 C701 1.390 1_565 S
C693 C692 1.387 . S
C693 C695 1.387 . S
H694 C701 0.950 . S
C695 C693 1.387 . S
C695 C697 1.390 1_565 S
C695 H699 0.950 . S
H696 C692 0.950 . S
C697 C695 1.390 1_545 S
C697 C698 1.387 . S
C697 H700 0.950 . S
C698 C697 1.387 . S
C698 C701 1.387 . S
H699 C695 0.950 . S
H700 C697 0.950 . S
C701 C692 1.390 1_545 S
C701 H694 0.950 . S
C701 C698 1.387 . S
C702 C703 1.387 . S
C702 H706 0.950 . S
C702 C711 1.390 1_655 S
C703 C702 1.387 . S
C703 C705 1.387 . S
H704 C711 0.950 . S
C705 C703 1.387 . S
C705 C707 1.390 1_655 S
C705 H709 0.950 . S
H706 C702 0.950 . S
C707 C705 1.390 1_455 S
C707 C708 1.387 . S
C707 H710 0.950 . S
C708 C707 1.387 . S
C708 C711 1.387 . S
H709 C705 0.950 . S
H710 C707 0.950 . S
C711 C702 1.390 1_455 S
C711 H704 0.950 . S
C711 C708 1.387 . S
C712 C713 1.387 . S
C712 H716 0.950 . S
C712 C721 1.390 1_565 S
C713 C712 1.387 . S
C713 C715 1.387 . S
H714 C721 0.950 . S
C715 C713 1.387 . S
C715 C717 1.390 1_565 S
C715 H719 0.950 . S
H716 C712 0.950 . S
C717 C715 1.390 1_545 S
C717 C718 1.387 . S
C717 H720 0.950 . S
C718 C717 1.387 . S
C718 C721 1.387 . S
H719 C715 0.950 . S
H720 C717 0.950 . S
C721 C712 1.390 1_545 S
C721 H714 0.950 . S
C721 C718 1.387 . S
C722 C723 1.387 . S
C722 H726 0.950 . S
C722 C731 1.390 1_655 S
C723 C722 1.387 . S
C723 C725 1.387 . S
H724 C731 0.950 . S
C725 C723 1.387 . S
C725 C727 1.390 1_655 S
C725 H729 0.950 . S
H726 C722 0.950 . S
C727 C725 1.390 1_455 S
C727 C728 1.387 . S
C727 H730 0.950 . S
C728 C727 1.387 . S
C728 C731 1.387 . S
H729 C725 0.950 . S
H730 C727 0.950 . S
C731 C722 1.390 1_455 S
C731 H724 0.950 . S
C731 C728 1.387 . S
C732 C733 1.387 . S
C732 H736 0.950 . S
C732 C741 1.390 1_545 S
C733 C732 1.387 . S
C733 C735 1.387 . S
H734 C741 0.950 . S
C735 C733 1.387 . S
C735 C737 1.390 1_545 S
C735 H739 0.950 . S
H736 C732 0.950 . S
C737 C735 1.390 1_565 S
C737 C738 1.387 . S
C737 H740 0.950 . S
C738 C737 1.387 . S
C738 C741 1.387 . S
H739 C735 0.950 . S
H740 C737 0.950 . S
C741 C732 1.390 1_565 S
C741 H734 0.950 . S
C741 C738 1.387 . S
C742 C743 1.387 . S
C742 H746 0.950 . S
C742 C751 1.390 1_455 S
C743 C742 1.387 . S
C743 C745 1.387 . S
H744 C751 0.950 . S
C745 C743 1.387 . S
C745 C747 1.390 1_455 S
C745 H749 0.950 . S
H746 C742 0.950 . S
C747 C745 1.390 1_655 S
C747 C748 1.387 . S
C747 H750 0.950 . S
C748 C747 1.387 . S
C748 C751 1.387 . S
H749 C745 0.950 . S
H750 C747 0.950 . S
C751 C742 1.390 1_655 S
C751 H744 0.950 . S
C751 C748 1.387 . S
C752 C753 1.387 . S
C752 H756 0.950 . S
C752 C761 1.390 1_554 S
C753 C752 1.387 . S
C753 C755 1.387 . S
H754 C761 0.950 . S
C755 C753 1.387 . S
C755 C757 1.390 1_554 S
C755 H759 0.950 . S
H756 C752 0.950 . S
C757 C755 1.390 1_556 S
C757 C758 1.387 . S
C757 H760 0.950 . S
C758 C757 1.387 . S
C758 C761 1.387 . S
H759 C755 0.950 . S
H760 C757 0.950 . S
C761 C752 1.390 1_556 S
C761 H754 0.950 . S
C761 C758 1.387 . S
C762 C763 1.387 . S
C762 H766 0.950 . S
C762 C771 1.390 1_556 S
C763 C762 1.387 . S
C763 C765 1.387 . S
H764 C771 0.950 . S
C765 C763 1.387 . S
C765 C767 1.390 1_556 S
C765 H769 0.950 . S
H766 C762 0.950 . S
C767 C765 1.390 1_554 S
C767 C768 1.387 . S
C767 H770 0.950 . S
C768 C767 1.387 . S
C768 C771 1.387 . S
H769 C765 0.950 . S
H770 C767 0.950 . S
C771 C762 1.390 1_554 S
C771 H764 0.950 . S
C771 C768 1.387 . S
C772 C773 1.387 . S
C772 H776 0.950 . S
C772 C781 1.390 1_556 S
C773 C772 1.387 . S
C773 C775 1.387 . S
H774 C781 0.950 . S
C775 C773 1.387 . S
C775 C777 1.390 1_556 S
C775 H779 0.950 . S
H776 C772 0.950 . S
C777 C775 1.390 1_554 S
C777 C778 1.387 . S
C777 H780 0.950 . S
C778 C777 1.387 . S
C778 C781 1.387 . S
H779 C775 0.950 . S
H780 C777 0.950 . S
C781 C772 1.390 1_554 S
C781 H774 0.950 . S
C781 C778 1.387 . S
C782 C783 1.387 . S
C782 H786 0.950 . S
C782 C791 1.390 1_556 S
C783 C782 1.387 . S
C783 C785 1.387 . S
H784 C791 0.950 . S
C785 C783 1.387 . S
C785 C787 1.390 1_556 S
C785 H789 0.950 . S
H786 C782 0.950 . S
C787 C785 1.390 1_554 S
C787 C788 1.387 . S
C787 H790 0.950 . S
C788 C787 1.387 . S
C788 C791 1.387 . S
H789 C785 0.950 . S
H790 C787 0.950 . S
C791 C782 1.390 1_554 S
C791 H784 0.950 . S
C791 C788 1.387 . S
C792 C793 1.387 . S
C792 H796 0.950 . S
C792 C801 1.390 1_554 S
C793 C792 1.387 . S
C793 C795 1.387 . S
H794 C801 0.950 . S
C795 C793 1.387 . S
C795 C797 1.390 1_554 S
C795 H799 0.950 . S
H796 C792 0.950 . S
C797 C795 1.390 1_556 S
C797 C798 1.387 . S
C797 H800 0.950 . S
C798 C797 1.387 . S
C798 C801 1.387 . S
H799 C795 0.950 . S
H800 C797 0.950 . S
C801 C792 1.390 1_556 S
C801 H794 0.950 . S
C801 C798 1.387 . S
C802 C803 1.387 . S
C802 H806 0.950 . S
C802 C811 1.390 1_556 S
C803 C802 1.387 . S
C803 C805 1.387 . S
H804 C811 0.950 . S
C805 C803 1.387 . S
C805 C807 1.390 1_556 S
C805 H809 0.950 . S
H806 C802 0.950 . S
C807 C805 1.390 1_554 S
C807 C808 1.387 . S
C807 H810 0.950 . S
C808 C807 1.387 . S
C808 C811 1.387 . S
H809 C805 0.950 . S
H810 C807 0.950 . S
C811 C802 1.390 1_554 S
C811 H804 0.950 . S
C811 C808 1.387 . S
C812 C813 1.387 . S
C812 H816 0.950 . S
C812 C821 1.390 1_554 S
C813 C812 1.387 . S
C813 C815 1.387 . S
H814 C821 0.950 . S
C815 C813 1.387 . S
C815 C817 1.390 1_554 S
C815 H819 0.950 . S
H816 C812 0.950 . S
C817 C815 1.390 1_556 S
C817 C818 1.387 . S
C817 H820 0.950 . S
C818 C817 1.387 . S
C818 C821 1.387 . S
H819 C815 0.950 . S
H820 C817 0.950 . S
C821 C812 1.390 1_556 S
C821 H814 0.950 . S
C821 C818 1.387 . S
C822 C823 1.387 . S
C822 H826 0.950 . S
C822 C831 1.390 1_556 S
C823 C822 1.387 . S
C823 C825 1.387 . S
H824 C831 0.950 . S
C825 C823 1.387 . S
C825 C827 1.390 1_556 S
C825 H829 0.950 . S
H826 C822 0.950 . S
C827 C825 1.390 1_554 S
C827 C828 1.387 . S
C827 H830 0.950 . S
C828 C827 1.387 . S
C828 C831 1.387 . S
H829 C825 0.950 . S
H830 C827 0.950 . S
C831 C822 1.390 1_554 S
C831 H824 0.950 . S
C831 C828 1.387 . S
C832 C833 1.387 . S
C832 H836 0.950 . S
C832 C841 1.390 1_455 S
C833 C832 1.387 . S
C833 C835 1.387 . S
H834 C841 0.950 . S
C835 C833 1.387 . S
C835 C837 1.390 1_455 S
C835 H839 0.950 . S
H836 C832 0.950 . S
C837 C835 1.390 1_655 S
C837 C838 1.387 . S
C837 H840 0.950 . S
C838 C837 1.387 . S
C838 C841 1.387 . S
H839 C835 0.950 . S
H840 C837 0.950 . S
C841 C832 1.390 1_655 S
C841 H834 0.950 . S
C841 C838 1.387 . S
C842 C843 1.387 . S
C842 H846 0.950 . S
C842 C851 1.390 1_455 S
C843 C842 1.387 . S
C843 C845 1.387 . S
H844 C851 0.950 . S
C845 C843 1.387 . S
C845 C847 1.390 1_455 S
C845 H849 0.950 . S
H846 C842 0.950 . S
C847 C845 1.390 1_655 S
C847 C848 1.387 . S
C847 H850 0.950 . S
C848 C847 1.387 . S
C848 C851 1.387 . S
H849 C845 0.950 . S
H850 C847 0.950 . S
C851 C842 1.390 1_655 S
C851 H844 0.950 . S
C851 C848 1.387 . S
C852 C853 1.387 . S
C852 H856 0.950 . S
C852 C861 1.390 1_565 S
C853 C852 1.387 . S
C853 C855 1.387 . S
H854 C861 0.950 . S
C855 C853 1.387 . S
C855 C857 1.390 1_565 S
C855 H859 0.950 . S
H856 C852 0.950 . S
C857 C855 1.390 1_545 S
C857 C858 1.387 . S
C857 H860 0.950 . S
C858 C857 1.387 . S
C858 C861 1.387 . S
H859 C855 0.950 . S
H860 C857 0.950 . S
C861 C852 1.390 1_545 S
C861 H854 0.950 . S
C861 C858 1.387 . S
C862 C863 1.387 . S
C862 H866 0.950 . S
C862 C871 1.390 1_455 S
C863 C862 1.387 . S
C863 C865 1.387 . S
H864 C871 0.950 . S
C865 C863 1.387 . S
C865 C867 1.390 1_455 S
C865 H869 0.950 . S
H866 C862 0.950 . S
C867 C865 1.390 1_655 S
C867 C868 1.387 . S
C867 H870 0.950 . S
C868 C867 1.387 . S
C868 C871 1.387 . S
H869 C865 0.950 . S
H870 C867 0.950 . S
C871 C862 1.390 1_655 S
C871 H864 0.950 . S
C871 C868 1.387 . S
C872 C873 1.387 . S
C872 H876 0.950 . S
C872 C881 1.390 1_545 S
C873 C872 1.387 . S
C873 C875 1.387 . S
H874 C881 0.950 . S
C875 C873 1.387 . S
C875 C877 1.390 1_545 S
C875 H879 0.950 . S
H876 C872 0.950 . S
C877 C875 1.390 1_565 S
C877 C878 1.387 . S
C877 H880 0.950 . S
C878 C877 1.387 . S
C878 C881 1.387 . S
H879 C875 0.950 . S
H880 C877 0.950 . S
C881 C872 1.390 1_565 S
C881 H874 0.950 . S
C881 C878 1.387 . S
C882 C883 1.387 . S
C882 H886 0.950 . S
C882 C891 1.390 1_455 S
C883 C882 1.387 . S
C883 C885 1.387 . S
H884 C891 0.950 . S
C885 C883 1.387 . S
C885 C887 1.390 1_455 S
C885 H889 0.950 . S
H886 C882 0.950 . S
C887 C885 1.390 1_655 S
C887 C888 1.387 . S
C887 H890 0.950 . S
C888 C887 1.387 . S
C888 C891 1.387 . S
H889 C885 0.950 . S
H890 C887 0.950 . S
C891 C882 1.390 1_655 S
C891 H884 0.950 . S
C891 C888 1.387 . S
C892 C893 1.387 . S
C892 H896 0.950 . S
C892 C901 1.390 1_545 S
C893 C892 1.387 . S
C893 C895 1.387 . S
H894 C901 0.950 . S
C895 C893 1.387 . S
C895 C897 1.390 1_545 S
C895 H899 0.950 . S
H896 C892 0.950 . S
C897 C895 1.390 1_565 S
C897 C898 1.387 . S
C897 H900 0.950 . S
C898 C897 1.387 . S
C898 C901 1.387 . S
H899 C895 0.950 . S
H900 C897 0.950 . S
C901 C892 1.390 1_565 S
C901 H894 0.950 . S
C901 C898 1.387 . S
C902 C903 1.387 . S
C902 H906 0.950 . S
C902 C911 1.390 1_545 S
C903 C902 1.387 . S
C903 C905 1.387 . S
H904 C911 0.950 . S
C905 C903 1.387 . S
C905 C907 1.390 1_545 S
C905 H909 0.950 . S
H906 C902 0.950 . S
C907 C905 1.390 1_565 S
C907 C908 1.387 . S
C907 H910 0.950 . S
C908 C907 1.387 . S
C908 C911 1.387 . S
H909 C905 0.950 . S
H910 C907 0.950 . S
C911 C902 1.390 1_565 S
C911 H904 0.950 . S
C911 C908 1.387 . S
C912 C913 1.387 . S
C912 H916 0.950 . S
C912 C921 1.390 . S
C913 C912 1.387 . S
C913 C915 1.387 . S
H914 C921 0.950 . S
C915 C913 1.387 . S
C915 C917 1.390 . S
C915 H919 0.950 . S
H916 C912 0.950 . S
C917 C915 1.390 . S
C917 C918 1.387 . S
C917 H920 0.950 . S
C918 C917 1.387 . S
C918 C921 1.387 . S
H919 C915 0.950 . S
H920 C917 0.950 . S
C921 C912 1.390 . S
C921 H914 0.950 . S
C921 C918 1.387 . S
C922 C923 1.387 . S
C922 H926 0.950 . S
C922 C931 1.390 . S
C923 C922 1.387 . S
C923 C925 1.387 . S
H924 C931 0.950 . S
C925 C923 1.387 . S
C925 C927 1.390 . S
C925 H929 0.950 . S
H926 C922 0.950 . S
C927 C925 1.390 . S
C927 C928 1.387 . S
C927 H930 0.950 . S
C928 C927 1.387 . S
C928 C931 1.387 . S
H929 C925 0.950 . S
H930 C927 0.950 . S
C931 C922 1.390 . S
C931 H924 0.950 . S
C931 C928 1.387 . S
C932 C933 1.387 . S
C932 H936 0.950 . S
C932 C941 1.390 . S
C933 C932 1.387 . S
C933 C935 1.387 . S
H934 C941 0.950 . S
C935 C933 1.387 . S
C935 C937 1.390 . S
C935 H939 0.950 . S
H936 C932 0.950 . S
C937 C935 1.390 . S
C937 C938 1.387 . S
C937 H940 0.950 . S
C938 C937 1.387 . S
C938 C941 1.387 . S
H939 C935 0.950 . S
H940 C937 0.950 . S
C941 C932 1.390 . S
C941 H934 0.950 . S
C941 C938 1.387 . S
C942 C943 1.387 . S
C942 H946 0.950 . S
C942 C951 1.390 . S
C943 C942 1.387 . S
C943 C945 1.387 . S
H944 C951 0.950 . S
C945 C943 1.387 . S
C945 C947 1.390 . S
C945 H949 0.950 . S
H946 C942 0.950 . S
C947 C945 1.390 . S
C947 C948 1.387 . S
C947 H950 0.950 . S
C948 C947 1.387 . S
C948 C951 1.387 . S
H949 C945 0.950 . S
H950 C947 0.950 . S
C951 C942 1.390 . S
C951 H944 0.950 . S
C951 C948 1.387 . S
C952 C953 1.387 . S
C952 H956 0.950 . S
C952 C961 1.390 . S
C953 C952 1.387 . S
C953 C955 1.387 . S
H954 C961 0.950 . S
C955 C953 1.387 . S
C955 C957 1.390 . S
C955 H959 0.950 . S
H956 C952 0.950 . S
C957 C955 1.390 . S
C957 C958 1.387 . S
C957 H960 0.950 . S
C958 C957 1.387 . S
C958 C961 1.387 . S
H959 C955 0.950 . S
H960 C957 0.950 . S
C961 C952 1.390 . S
C961 H954 0.950 . S
C961 C958 1.387 . S
C962 C963 1.387 . S
C962 H966 0.950 . S
C962 C971 1.390 . S
C963 C962 1.387 . S
C963 C965 1.387 . S
H964 C971 0.950 . S
C965 C963 1.387 . S
C965 C967 1.390 . S
C965 H969 0.950 . S
H966 C962 0.950 . S
C967 C965 1.390 . S
C967 C968 1.387 . S
C967 H970 0.950 . S
C968 C967 1.387 . S
C968 C971 1.387 . S
H969 C965 0.950 . S
H970 C967 0.950 . S
C971 C962 1.390 . S
C971 H964 0.950 . S
C971 C968 1.387 . S
C972 C973 1.387 . S
C972 H976 0.950 . S
C972 C981 1.390 . S
C973 C972 1.387 . S
C973 C975 1.387 . S
H974 C981 0.950 . S
C975 C973 1.387 . S
C975 C977 1.390 . S
C975 H979 0.950 . S
H976 C972 0.950 . S
C977 C975 1.390 . S
C977 C978 1.387 . S
C977 H980 0.950 . S
C978 C977 1.387 . S
C978 C981 1.387 . S
H979 C975 0.950 . S
H980 C977 0.950 . S
C981 C972 1.390 . S
C981 H974 0.950 . S
C981 C978 1.387 . S
C982 C983 1.387 . S
C982 H986 0.950 . S
C982 C991 1.390 . S
C983 C982 1.387 . S
C983 C985 1.387 . S
H984 C991 0.950 . S
C985 C983 1.387 . S
C985 C987 1.390 . S
C985 H989 0.950 . S
H986 C982 0.950 . S
C987 C985 1.390 . S
C987 C988 1.387 . S
C987 H990 0.950 . S
C988 C987 1.387 . S
C988 C991 1.387 . S
H989 C985 0.950 . S
H990 C987 0.950 . S
C991 C982 1.390 . S
C991 H984 0.950 . S
C991 C988 1.387 . S
C992 C993 1.387 . S
C992 H996 0.950 . S
C992 C1001 1.390 . S
C993 C992 1.387 . S
C993 C995 1.387 . S
H994 C1001 0.950 . S
C995 C993 1.387 . S
C995 C997 1.390 . S
C995 H999 0.950 . S
H996 C992 0.950 . S
C997 C995 1.390 . S
C997 C998 1.387 . S
C997 H1000 0.950 . S
C998 C997 1.387 . S
C998 C1001 1.387 . S
H999 C995 0.950 . S
H1000 C997 0.950 . S
C1001 C992 1.390 . S
C1001 H994 0.950 . S
C1001 C998 1.387 . S
C1002 C1003 1.387 . S
C1002 H1006 0.950 . S
C1002 C1011 1.390 . S
C1003 C1002 1.387 . S
C1003 C1005 1.387 . S
H1004 C1011 0.950 . S
C1005 C1003 1.387 . S
C1005 C1007 1.390 . S
C1005 H1009 0.950 . S
H1006 C1002 0.950 . S
C1007 C1005 1.390 . S
C1007 C1008 1.387 . S
C1007 H1010 0.950 . S
C1008 C1007 1.387 . S
C1008 C1011 1.387 . S
H1009 C1005 0.950 . S
H1010 C1007 0.950 . S
C1011 C1002 1.390 . S
C1011 H1004 0.950 . S
C1011 C1008 1.387 . S
C1012 C1013 1.387 . S
C1012 H1016 0.950 . S
C1012 C1021 1.390 . S
C1013 C1012 1.387 . S
C1013 C1015 1.387 . S
H1014 C1021 0.950 . S
C1015 C1013 1.387 . S
C1015 C1017 1.390 . S
C1015 H1019 0.950 . S
H1016 C1012 0.950 . S
C1017 C1015 1.390 . S
C1017 C1018 1.387 . S
C1017 H1020 0.950 . S
C1018 C1017 1.387 . S
C1018 C1021 1.387 . S
H1019 C1015 0.950 . S
H1020 C1017 0.950 . S
C1021 C1012 1.390 . S
C1021 H1014 0.950 . S
C1021 C1018 1.387 . S
C1022 C1023 1.387 . S
C1022 H1026 0.950 . S
C1022 C1031 1.390 . S
C1023 C1022 1.387 . S
C1023 C1025 1.387 . S
H1024 C1031 0.950 . S
C1025 C1023 1.387 . S
C1025 C1027 1.390 . S
C1025 H1029 0.950 . S
H1026 C1022 0.950 . S
C1027 C1025 1.390 . S
C1027 C1028 1.387 . S
C1027 H1030 0.950 . S
C1028 C1027 1.387 . S
C1028 C1031 1.387 . S
H1029 C1025 0.950 . S
H1030 C1027 0.950 . S
C1031 C1022 1.390 . S
C1031 H1024 0.950 . S
C1031 C1028 1.387 . S
C1032 C1033 1.387 . S
C1032 H1036 0.950 . S
C1032 C1041 1.390 . S
C1033 C1032 1.387 . S
C1033 C1035 1.387 . S
H1034 C1041 0.950 . S
C1035 C1033 1.387 . S
C1035 C1037 1.390 . S
C1035 H1039 0.950 . S
H1036 C1032 0.950 . S
C1037 C1035 1.390 . S
C1037 C1038 1.387 . S
C1037 H1040 0.950 . S
C1038 C1037 1.387 . S
C1038 C1041 1.387 . S
H1039 C1035 0.950 . S
H1040 C1037 0.950 . S
C1041 C1032 1.390 . S
C1041 H1034 0.950 . S
C1041 C1038 1.387 . S
C1042 C1043 1.387 . S
C1042 H1046 0.950 . S
C1042 C1051 1.390 . S
C1043 C1042 1.387 . S
C1043 C1045 1.387 . S
H1044 C1051 0.950 . S
C1045 C1043 1.387 . S
C1045 C1047 1.390 . S
C1045 H1049 0.950 . S
H1046 C1042 0.950 . S
C1047 C1045 1.390 . S
C1047 C1048 1.387 . S
C1047 H1050 0.950 . S
C1048 C1047 1.387 . S
C1048 C1051 1.387 . S
H1049 C1045 0.950 . S
H1050 C1047 0.950 . S
C1051 C1042 1.390 . S
C1051 H1044 0.950 . S
C1051 C1048 1.387 . S
C1052 C1053 1.387 . S
C1052 H1056 0.950 . S
C1052 C1061 1.390 . S
C1053 C1052 1.387 . S
C1053 C1055 1.387 . S
H1054 C1061 0.950 . S
C1055 C1053 1.387 . S
C1055 C1057 1.390 . S
C1055 H1059 0.950 . S
H1056 C1052 0.950 . S
C1057 C1055 1.390 . S
C1057 C1058 1.387 . S
C1057 H1060 0.950 . S
C1058 C1057 1.387 . S
C1058 C1061 1.387 . S
H1059 C1055 0.950 . S
H1060 C1057 0.950 . S
C1061 C1052 1.390 . S
C1061 H1054 0.950 . S
C1061 C1058 1.387 . S
C1062 C1063 1.387 . S
C1062 H1066 0.950 . S
C1062 C1071 1.390 . S
C1063 C1062 1.387 . S
C1063 C1065 1.387 . S
H1064 C1071 0.950 . S
C1065 C1063 1.387 . S
C1065 C1067 1.390 . S
C1065 H1069 0.950 . S
H1066 C1062 0.950 . S
C1067 C1065 1.390 . S
C1067 C1068 1.387 . S
C1067 H1070 0.950 . S
C1068 C1067 1.387 . S
C1068 C1071 1.387 . S
H1069 C1065 0.950 . S
H1070 C1067 0.950 . S
C1071 C1062 1.390 . S
C1071 H1064 0.950 . S
C1071 C1068 1.387 . S
C1072 C1073 1.387 . S
C1072 H1076 0.950 . S
C1072 C1081 1.390 . S
C1073 C1072 1.387 . S
C1073 C1075 1.387 . S
H1074 C1081 0.950 . S
C1075 C1073 1.387 . S
C1075 C1077 1.390 . S
C1075 H1079 0.950 . S
H1076 C1072 0.950 . S
C1077 C1075 1.390 . S
C1077 C1078 1.387 . S
C1077 H1080 0.950 . S
C1078 C1077 1.387 . S
C1078 C1081 1.387 . S
H1079 C1075 0.950 . S
H1080 C1077 0.950 . S
C1081 C1072 1.390 . S
C1081 H1074 0.950 . S
C1081 C1078 1.387 . S
C1082 C1083 1.387 . S
C1082 H1086 0.950 . S
C1082 C1091 1.390 . S
C1083 C1082 1.387 . S
C1083 C1085 1.387 . S
H1084 C1091 0.950 . S
C1085 C1083 1.387 . S
C1085 C1087 1.390 . S
C1085 H1089 0.950 . S
H1086 C1082 0.950 . S
C1087 C1085 1.390 . S
C1087 C1088 1.387 . S
C1087 H1090 0.950 . S
C1088 C1087 1.387 . S
C1088 C1091 1.387 . S
H1089 C1085 0.950 . S
H1090 C1087 0.950 . S
C1091 C1082 1.390 . S
C1091 H1084 0.950 . S
C1091 C1088 1.387 . S
C1092 C1093 1.387 . S
C1092 H1096 0.950 . S
C1092 C1101 1.390 . S
C1093 C1092 1.387 . S
C1093 C1095 1.387 . S
H1094 C1101 0.950 . S
C1095 C1093 1.387 . S
C1095 C1097 1.390 . S
C1095 H1099 0.950 . S
H1096 C1092 0.950 . S
C1097 C1095 1.390 . S
C1097 C1098 1.387 . S
C1097 H1100 0.950 . S
C1098 C1097 1.387 . S
C1098 C1101 1.387 . S
H1099 C1095 0.950 . S
H1100 C1097 0.950 . S
C1101 C1092 1.390 . S
C1101 H1094 0.950 . S
C1101 C1098 1.387 . S
C1102 C1103 1.387 . S
C1102 H1106 0.950 . S
C1102 C1111 1.390 . S
C1103 C1102 1.387 . S
C1103 C1105 1.387 . S
H1104 C1111 0.950 . S
C1105 C1103 1.387 . S
C1105 C1107 1.390 . S
C1105 H1109 0.950 . S
H1106 C1102 0.950 . S
C1107 C1105 1.390 . S
C1107 C1108 1.387 . S
C1107 H1110 0.950 . S
C1108 C1107 1.387 . S
C1108 C1111 1.387 . S
H1109 C1105 0.950 . S
H1110 C1107 0.950 . S
C1111 C1102 1.390 . S
C1111 H1104 0.950 . S
C1111 C1108 1.387 . S
C1112 C1113 1.387 . S
C1112 H1116 0.950 . S
C1112 C1121 1.390 . S
C1113 C1112 1.387 . S
C1113 C1115 1.387 . S
H1114 C1121 0.950 . S
C1115 C1113 1.387 . S
C1115 C1117 1.390 . S
C1115 H1119 0.950 . S
H1116 C1112 0.950 . S
C1117 C1115 1.390 . S
C1117 C1118 1.387 . S
C1117 H1120 0.950 . S
C1118 C1117 1.387 . S
C1118 C1121 1.387 . S
H1119 C1115 0.950 . S
H1120 C1117 0.950 . S
C1121 C1112 1.390 . S
C1121 H1114 0.950 . S
C1121 C1118 1.387 . S
C1122 C1123 1.387 . S
C1122 H1126 0.950 . S
C1122 C1131 1.390 . S
C1123 C1122 1.387 . S
C1123 C1125 1.387 . S
H1124 C1131 0.950 . S
C1125 C1123 1.387 . S
C1125 C1127 1.390 . S
C1125 H1129 0.950 . S
H1126 C1122 0.950 . S
C1127 C1125 1.390 . S
C1127 C1128 1.387 . S
C1127 H1130 0.950 . S
C1128 C1127 1.387 . S
C1128 C1131 1.387 . S
H1129 C1125 0.950 . S
H1130 C1127 0.950 . S
C1131 C1122 1.390 . S
C1131 H1124 0.950 . S
C1131 C1128 1.387 . S
C1132 C1133 1.387 . S
C1132 H1136 0.950 . S
C1132 C1141 1.390 . S
C1133 C1132 1.387 . S
C1133 C1135 1.387 . S
H1134 C1141 0.950 . S
C1135 C1133 1.387 . S
C1135 C1137 1.390 . S
C1135 H1139 0.950 . S
H1136 C1132 0.950 . S
C1137 C1135 1.390 . S
C1137 C1138 1.387 . S
C1137 H1140 0.950 . S
C1138 C1137 1.387 . S
C1138 C1141 1.387 . S
H1139 C1135 0.950 . S
H1140 C1137 0.950 . S
C1141 C1132 1.390 . S
C1141 H1134 0.950 . S
C1141 C1138 1.387 . S
C1142 C1143 1.387 . S
C1142 H1146 0.950 . S
C1142 C1151 1.390 . S
C1143 C1142 1.387 . S
C1143 C1145 1.387 . S
H1144 C1151 0.950 . S
C1145 C1143 1.387 . S
C1145 C1147 1.390 . S
C1145 H1149 0.950 . S
H1146 C1142 0.950 . S
C1147 C1145 1.390 . S
C1147 C1148 1.387 . S
C1147 H1150 0.950 . S
C1148 C1147 1.387 . S
C1148 C1151 1.387 . S
H1149 C1145 0.950 . S
H1150 C1147 0.950 . S
C1151 C1142 1.390 . S
C1151 H1144 0.950 . S
C1151 C1148 1.387 . S
C1152 C1153 1.387 . S
C1152 H1156 0.950 . S
C1152 C1161 1.390 . S
C1153 C1152 1.387 . S
C1153 C1155 1.387 . S
H1154 C1161 0.950 . S
C1155 C1153 1.387 . S
C1155 C1157 1.390 . S
C1155 H1159 0.950 . S
H1156 C1152 0.950 . S
C1157 C1155 1.390 . S
C1157 C1158 1.387 . S
C1157 H1160 0.950 . S
C1158 C1157 1.387 . S
C1158 C1161 1.387 . S
H1159 C1155 0.950 . S
H1160 C1157 0.950 . S
C1161 C1152 1.390 . S
C1161 H1154 0.950 . S
C1161 C1158 1.387 . S
C1162 C1163 1.387 . S
C1162 H1166 0.950 . S
C1162 C1171 1.390 . S
C1163 C1162 1.387 . S
C1163 C1165 1.387 . S
H1164 C1171 0.950 . S
C1165 C1163 1.387 . S
C1165 C1167 1.390 . S
C1165 H1169 0.950 . S
H1166 C1162 0.950 . S
C1167 C1165 1.390 . S
C1167 C1168 1.387 . S
C1167 H1170 0.950 . S
C1168 C1167 1.387 . S
C1168 C1171 1.387 . S
H1169 C1165 0.950 . S
H1170 C1167 0.950 . S
C1171 C1162 1.390 . S
C1171 H1164 0.950 . S
C1171 C1168 1.387 . S
C1172 C1173 1.387 . S
C1172 H1176 0.950 . S
C1172 C1181 1.390 . S
C1173 C1172 1.387 . S
C1173 C1175 1.387 . S
H1174 C1181 0.950 . S
C1175 C1173 1.387 . S
C1175 C1177 1.390 . S
C1175 H1179 0.950 . S
H1176 C1172 0.950 . S
C1177 C1175 1.390 . S
C1177 C1178 1.387 . S
C1177 H1180 0.950 . S
C1178 C1177 1.387 . S
C1178 C1181 1.387 . S
H1179 C1175 0.950 . S
H1180 C1177 0.950 . S
C1181 C1172 1.390 . S
C1181 H1174 0.950 . S
C1181 C1178 1.387 . S
C1182 C1183 1.387 . S
C1182 H1186 0.950 . S
C1182 C1191 1.390 . S
C1183 C1182 1.387 . S
C1183 C1185 1.387 . S
H1184 C1191 0.950 . S
C1185 C1183 1.387 . S
C1185 C1187 1.390 . S
C1185 H1189 0.950 . S
H1186 C1182 0.950 . S
C1187 C1185 1.390 . S
C1187 C1188 1.387 . S
C1187 H1190 0.950 . S
C1188 C1187 1.387 . S
C1188 C1191 1.387 . S
H1189 C1185 0.950 . S
H1190 C1187 0.950 . S
C1191 C1182 1.390 . S
C1191 H1184 0.950 . S
C1191 C1188 1.387 . S
C1192 C1193 1.387 . S
C1192 H1196 0.950 . S
C1192 C1201 1.390 . S
C1193 C1192 1.387 . S
C1193 C1195 1.387 . S
H1194 C1201 0.950 . S
C1195 C1193 1.387 . S
C1195 C1197 1.390 . S
C1195 H1199 0.950 . S
H1196 C1192 0.950 . S
C1197 C1195 1.390 . S
C1197 C1198 1.387 . S
C1197 H1200 0.950 . S
C1198 C1197 1.387 . S
C1198 C1201 1.387 . S
H1199 C1195 0.950 . S
H1200 C1197 0.950 . S
C1201 C1192 1.390 . S
C1201 H1194 0.950 . S
C1201 C1198 1.387 . S
C1202 C1203 1.387 . S
C1202 H1206 0.950 . S
C1202 C1211 1.390 . S
C1203 C1202 1.387 . S
C1203 C1205 1.387 . S
H1204 C1211 0.950 . S
C1205 C1203 1.387 . S
C1205 C1207 1.390 . S
C1205 H1209 0.950 . S
H1206 C1202 0.950 . S
C1207 C1205 1.390 . S
C1207 C1208 1.387 . S
C1207 H1210 0.950 . S
C1208 C1207 1.387 . S
C1208 C1211 1.387 . S
H1209 C1205 0.950 . S
H1210 C1207 0.950 . S
C1211 C1202 1.390 . S
C1211 H1204 0.950 . S
C1211 C1208 1.387 . S
C1212 C1213 1.387 . S
C1212 H1216 0.950 . S
C1212 C1221 1.390 . S
C1213 C1212 1.387 . S
C1213 C1215 1.387 . S
H1214 C1221 0.950 . S
C1215 C1213 1.387 . S
C1215 C1217 1.390 . S
C1215 H1219 0.950 . S
H1216 C1212 0.950 . S
C1217 C1215 1.390 . S
C1217 C1218 1.387 . S
C1217 H1220 0.950 . S
C1218 C1217 1.387 . S
C1218 C1221 1.387 . S
H1219 C1215 0.950 . S
H1220 C1217 0.950 . S
C1221 C1212 1.390 . S
C1221 H1214 0.950 . S
C1221 C1218 1.387 . S
C1222 C1223 1.387 . S
C1222 H1226 0.950 . S
C1222 C1231 1.390 . S
C1223 C1222 1.387 . S
C1223 C1225 1.387 . S
H1224 C1231 0.950 . S
C1225 C1223 1.387 . S
C1225 C1227 1.390 . S
C1225 H1229 0.950 . S
H1226 C1222 0.950 . S
C1227 C1225 1.390 . S
C1227 C1228 1.387 . S
C1227 H1230 0.950 . S
C1228 C1227 1.387 . S
C1228 C1231 1.387 . S
H1229 C1225 0.950 . S
H1230 C1227 0.950 . S
C1231 C1222 1.390 . S
C1231 H1224 0.950 . S
C1231 C1228 1.387 . S
C1232 C1233 1.387 . S
C1232 H1236 0.950 . S
C1232 C1241 1.390 . S
C1233 C1232 1.387 . S
C1233 C1235 1.387 . S
H1234 C1241 0.950 . S
C1235 C1233 1.387 . S
C1235 C1237 1.390 . S
C1235 H1239 0.950 . S
H1236 C1232 0.950 . S
C1237 C1235 1.390 . S
C1237 C1238 1.387 . S
C1237 H1240 0.950 . S
C1238 C1237 1.387 . S
C1238 C1241 1.387 . S
H1239 C1235 0.950 . S
H1240 C1237 0.950 . S
C1241 C1232 1.390 . S
C1241 H1234 0.950 . S
C1241 C1238 1.387 . S
C1242 C1243 1.387 . S
C1242 H1246 0.950 . S
C1242 C1251 1.390 . S
C1243 C1242 1.387 . S
C1243 C1245 1.387 . S
H1244 C1251 0.950 . S
C1245 C1243 1.387 . S
C1245 C1247 1.390 . S
C1245 H1249 0.950 . S
H1246 C1242 0.950 . S
C1247 C1245 1.390 . S
C1247 C1248 1.387 . S
C1247 H1250 0.950 . S
C1248 C1247 1.387 . S
C1248 C1251 1.387 . S
H1249 C1245 0.950 . S
H1250 C1247 0.950 . S
C1251 C1242 1.390 . S
C1251 H1244 0.950 . S
C1251 C1248 1.387 . S
C1252 C1253 1.387 . S
C1252 H1256 0.950 . S
C1252 C1261 1.390 . S
C1253 C1252 1.387 . S
C1253 C1255 1.387 . S
H1254 C1261 0.950 . S
C1255 C1253 1.387 . S
C1255 C1257 1.390 . S
C1255 H1259 0.950 . S
H1256 C1252 0.950 . S
C1257 C1255 1.390 . S
C1257 C1258 1.387 . S
C1257 H1260 0.950 . S
C1258 C1257 1.387 . S
C1258 C1261 1.387 . S
H1259 C1255 0.950 . S
H1260 C1257 0.950 . S
C1261 C1252 1.390 . S
C1261 H1254 0.950 . S
C1261 C1258 1.387 . S
C1262 C1263 1.387 . S
C1262 H1266 0.950 . S
C1262 C1271 1.390 . S
C1263 C1262 1.387 . S
C1263 C1265 1.387 . S
H1264 C1271 0.950 . S
C1265 C1263 1.387 . S
C1265 C1267 1.390 . S
C1265 H1269 0.950 . S
H1266 C1262 0.950 . S
C1267 C1265 1.390 . S
C1267 C1268 1.387 . S
C1267 H1270 0.950 . S
C1268 C1267 1.387 . S
C1268 C1271 1.387 . S
H1269 C1265 0.950 . S
H1270 C1267 0.950 . S
C1271 C1262 1.390 . S
C1271 H1264 0.950 . S
C1271 C1268 1.387 . S
C1272 C1273 1.387 . S
C1272 H1276 0.950 . S
C1272 C1281 1.390 . S
C1273 C1272 1.387 . S
C1273 C1275 1.387 . S
H1274 C1281 0.950 . S
C1275 C1273 1.387 . S
C1275 C1277 1.390 . S
C1275 H1279 0.950 . S
H1276 C1272 0.950 . S
C1277 C1275 1.390 . S
C1277 C1278 1.387 . S
C1277 H1280 0.950 . S
C1278 C1277 1.387 . S
C1278 C1281 1.387 . S
H1279 C1275 0.950 . S
H1280 C1277 0.950 . S
C1281 C1272 1.390 . S
C1281 H1274 0.950 . S
C1281 C1278 1.387 . S
C1282 C1283 1.387 . S
C1282 H1286 0.950 . S
C1282 C1291 1.390 . S
C1283 C1282 1.387 . S
C1283 C1285 1.387 . S
H1284 C1291 0.950 . S
C1285 C1283 1.387 . S
C1285 C1287 1.390 . S
C1285 H1289 0.950 . S
H1286 C1282 0.950 . S
C1287 C1285 1.390 . S
C1287 C1288 1.387 . S
C1287 H1290 0.950 . S
C1288 C1287 1.387 . S
C1288 C1291 1.387 . S
H1289 C1285 0.950 . S
H1290 C1287 0.950 . S
C1291 C1282 1.390 . S
C1291 H1284 0.950 . S
C1291 C1288 1.387 . S
C1292 C1293 1.387 . S
C1292 H1296 0.950 . S
C1292 C1301 1.390 . S
C1293 C1292 1.387 . S
C1293 C1295 1.387 . S
H1294 C1301 0.950 . S
C1295 C1293 1.387 . S
C1295 C1297 1.390 . S
C1295 H1299 0.950 . S
H1296 C1292 0.950 . S
C1297 C1295 1.390 . S
C1297 C1298 1.387 . S
C1297 H1300 0.950 . S
C1298 C1297 1.387 . S
C1298 C1301 1.387 . S
H1299 C1295 0.950 . S
H1300 C1297 0.950 . S
C1301 C1292 1.390 . S
C1301 H1294 0.950 . S
C1301 C1298 1.387 . S
C1302 C1303 1.387 . S
C1302 H1306 0.950 . S
C1302 C1311 1.390 . S
C1303 C1302 1.387 . S
C1303 C1305 1.387 . S
H1304 C1311 0.950 . S
C1305 C1303 1.387 . S
C1305 C1307 1.390 . S
C1305 H1309 0.950 . S
H1306 C1302 0.950 . S
C1307 C1305 1.390 . S
C1307 C1308 1.387 . S
C1307 H1310 0.950 . S
C1308 C1307 1.387 . S
C1308 C1311 1.387 . S
H1309 C1305 0.950 . S
H1310 C1307 0.950 . S
C1311 C1302 1.390 . S
C1311 H1304 0.950 . S
C1311 C1308 1.387 . S
C1312 C1313 1.387 . S
C1312 H1316 0.950 . S
C1312 C1321 1.390 . S
C1313 C1312 1.387 . S
C1313 C1315 1.387 . S
H1314 C1321 0.950 . S
C1315 C1313 1.387 . S
C1315 C1317 1.390 . S
C1315 H1319 0.950 . S
H1316 C1312 0.950 . S
C1317 C1315 1.390 . S
C1317 C1318 1.387 . S
C1317 H1320 0.950 . S
C1318 C1317 1.387 . S
C1318 C1321 1.387 . S
H1319 C1315 0.950 . S
H1320 C1317 0.950 . S
C1321 C1312 1.390 . S
C1321 H1314 0.950 . S
C1321 C1318 1.387 . S
C1322 C1323 1.387 . S
C1322 H1326 0.950 . S
C1322 C1331 1.390 . S
C1323 C1322 1.387 . S
C1323 C1325 1.387 . S
H1324 C1331 0.950 . S
C1325 C1323 1.387 . S
C1325 C1327 1.390 . S
C1325 H1329 0.950 . S
H1326 C1322 0.950 . S
C1327 C1325 1.390 . S
C1327 C1328 1.387 . S
C1327 H1330 0.950 . S
C1328 C1327 1.387 . S
C1328 C1331 1.387 . S
H1329 C1325 0.950 . S
H1330 C1327 0.950 . S
C1331 C1322 1.390 . S
C1331 H1324 0.950 . S
C1331 C1328 1.387 . S
C1332 C1333 1.387 . S
C1332 H1336 0.950 . S
C1332 C1341 1.390 . S
C1333 C1332 1.387 . S
C1333 C1335 1.387 . S
H1334 C1341 0.950 . S
C1335 C1333 1.387 . S
C1335 C1337 1.390 . S
C1335 H1339 0.950 . S
H1336 C1332 0.950 . S
C1337 C1335 1.390 . S
C1337 C1338 1.387 . S
C1337 H1340 0.950 . S
C1338 C1337 1.387 . S
C1338 C1341 1.387 . S
H1339 C1335 0.950 . S
H1340 C1337 0.950 . S
C1341 C1332 1.390 . S
C1341 H1334 0.950 . S
C1341 C1338 1.387 . S
C1342 C1343 1.387 . S
C1342 H1346 0.950 . S
C1342 C1351 1.390 . S
C1343 C1342 1.387 . S
C1343 C1345 1.387 . S
H1344 C1351 0.950 . S
C1345 C1343 1.387 . S
C1345 C1347 1.390 . S
C1345 H1349 0.950 . S
H1346 C1342 0.950 . S
C1347 C1345 1.390 . S
C1347 C1348 1.387 . S
C1347 H1350 0.950 . S
C1348 C1347 1.387 . S
C1348 C1351 1.387 . S
H1349 C1345 0.950 . S
H1350 C1347 0.950 . S
C1351 C1342 1.390 . S
C1351 H1344 0.950 . S
C1351 C1348 1.387 . S
C1352 C1353 1.387 . S
C1352 H1356 0.950 . S
C1352 C1361 1.390 . S
C1353 C1352 1.387 . S
C1353 C1355 1.387 . S
H1354 C1361 0.950 . S
C1355 C1353 1.387 . S
C1355 C1357 1.390 . S
C1355 H1359 0.950 . S
H1356 C1352 0.950 . S
C1357 C1355 1.390 . S
C1357 C1358 1.387 . S
C1357 H1360 0.950 . S
C1358 C1357 1.387 . S
C1358 C1361 1.387 . S
H1359 C1355 0.950 . S
H1360 C1357 0.950 . S
C1361 C1352 1.390 . S
C1361 H1354 0.950 . S
C1361 C1358 1.387 . S
C1362 C1363 1.387 . S
C1362 H1366 0.950 . S
C1362 C1371 1.390 . S
C1363 C1362 1.387 . S
C1363 C1365 1.387 . S
H1364 C1371 0.950 . S
C1365 C1363 1.387 . S
C1365 C1367 1.390 . S
C1365 H1369 0.950 . S
H1366 C1362 0.950 . S
C1367 C1365 1.390 . S
C1367 C1368 1.387 . S
C1367 H1370 0.950 . S
C1368 C1367 1.387 . S
C1368 C1371 1.387 . S
H1369 C1365 0.950 . S
H1370 C1367 0.950 . S
C1371 C1362 1.390 . S
C1371 H1364 0.950 . S
C1371 C1368 1.387 . S
C1372 C1373 1.387 . S
C1372 H1376 0.950 . S
C1372 C1381 1.390 . S
C1373 C1372 1.387 . S
C1373 C1375 1.387 . S
H1374 C1381 0.950 . S
C1375 C1373 1.387 . S
C1375 C1377 1.390 . S
C1375 H1379 0.950 . S
H1376 C1372 0.950 . S
C1377 C1375 1.390 . S
C1377 C1378 1.387 . S
C1377 H1380 0.950 . S
C1378 C1377 1.387 . S
C1378 C1381 1.387 . S
H1379 C1375 0.950 . S
H1380 C1377 0.950 . S
C1381 C1372 1.390 . S
C1381 H1374 0.950 . S
C1381 C1378 1.387 . S
C1382 C1383 1.387 . S
C1382 H1386 0.950 . S
C1382 C1391 1.390 . S
C1383 C1382 1.387 . S
C1383 C1385 1.387 . S
H1384 C1391 0.950 . S
C1385 C1383 1.387 . S
C1385 C1387 1.390 . S
C1385 H1389 0.950 . S
H1386 C1382 0.950 . S
C1387 C1385 1.390 . S
C1387 C1388 1.387 . S
C1387 H1390 0.950 . S
C1388 C1387 1.387 . S
C1388 C1391 1.387 . S
H1389 C1385 0.950 . S
H1390 C1387 0.950 . S
C1391 C1382 1.390 . S
C1391 H1384 0.950 . S
C1391 C1388 1.387 . S
C1392 C1393 1.387 . S
C1392 H1396 0.950 . S
C1392 C1401 1.390 . S
C1393 C1392 1.387 . S
C1393 C1395 1.387 . S
H1394 C1401 0.950 . S
C1395 C1393 1.387 . S
C1395 C1397 1.390 . S
C1395 H1399 0.950 . S
H1396 C1392 0.950 . S
C1397 C1395 1.390 . S
C1397 C1398 1.387 . S
C1397 H1400 0.950 . S
C1398 C1397 1.387 . S
C1398 C1401 1.387 . S
H1399 C1395 0.950 . S
H1400 C1397 0.950 . S
C1401 C1392 1.390 . S
C1401 H1394 0.950 . S
C1401 C1398 1.387 . S
C1402 C1403 1.387 . S
C1402 H1406 0.950 . S
C1402 C1411 1.390 . S
C1403 C1402 1.387 . S
C1403 C1405 1.387 . S
H1404 C1411 0.950 . S
C1405 C1403 1.387 . S
C1405 C1407 1.390 . S
C1405 H1409 0.950 . S
H1406 C1402 0.950 . S
C1407 C1405 1.390 . S
C1407 C1408 1.387 . S
C1407 H1410 0.950 . S
C1408 C1407 1.387 . S
C1408 C1411 1.387 . S
H1409 C1405 0.950 . S
H1410 C1407 0.950 . S
C1411 C1402 1.390 . S
C1411 H1404 0.950 . S
C1411 C1408 1.387 . S
C1412 C1413 1.387 . S
C1412 H1416 0.950 . S
C1412 C1421 1.390 . S
C1413 C1412 1.387 . S
C1413 C1415 1.387 . S
H1414 C1421 0.950 . S
C1415 C1413 1.387 . S
C1415 C1417 1.390 . S
C1415 H1419 0.950 . S
H1416 C1412 0.950 . S
C1417 C1415 1.390 . S
C1417 C1418 1.387 . S
C1417 H1420 0.950 . S
C1418 C1417 1.387 . S
C1418 C1421 1.387 . S
H1419 C1415 0.950 . S
H1420 C1417 0.950 . S
C1421 C1412 1.390 . S
C1421 H1414 0.950 . S
C1421 C1418 1.387 . S
C1422 C1423 1.387 . S
C1422 H1426 0.950 . S
C1422 C1431 1.390 . S
C1423 C1422 1.387 . S
C1423 C1425 1.387 . S
H1424 C1431 0.950 . S
C1425 C1423 1.387 . S
C1425 C1427 1.390 . S
C1425 H1429 0.950 . S
H1426 C1422 0.950 . S
C1427 C1425 1.390 . S
C1427 C1428 1.387 . S
C1427 H1430 0.950 . S
C1428 C1427 1.387 . S
C1428 C1431 1.387 . S
H1429 C1425 0.950 . S
H1430 C1427 0.950 . S
C1431 C1422 1.390 . S
C1431 H1424 0.950 . S
C1431 C1428 1.387 . S
C1432 C1433 1.387 . S
C1432 H1436 0.950 . S
C1432 C1441 1.390 . S
C1433 C1432 1.387 . S
C1433 C1435 1.387 . S
H1434 C1441 0.950 . S
C1435 C1433 1.387 . S
C1435 C1437 1.390 . S
C1435 H1439 0.950 . S
H1436 C1432 0.950 . S
C1437 C1435 1.390 . S
C1437 C1438 1.387 . S
C1437 H1440 0.950 . S
C1438 C1437 1.387 . S
C1438 C1441 1.387 . S
H1439 C1435 0.950 . S
H1440 C1437 0.950 . S
C1441 C1432 1.390 . S
C1441 H1434 0.950 . S
C1441 C1438 1.387 . S
C1442 C1443 1.387 . S
C1442 H1446 0.950 . S
C1442 C1451 1.390 . S
C1443 C1442 1.387 . S
C1443 C1445 1.387 . S
H1444 C1451 0.950 . S
C1445 C1443 1.387 . S
C1445 C1447 1.390 . S
C1445 H1449 0.950 . S
H1446 C1442 0.950 . S
C1447 C1445 1.390 . S
C1447 C1448 1.387 . S
C1447 H1450 0.950 . S
C1448 C1447 1.387 . S
C1448 C1451 1.387 . S
H1449 C1445 0.950 . S
H1450 C1447 0.950 . S
C1451 C1442 1.390 . S
C1451 H1444 0.950 . S
C1451 C1448 1.387 . S
C1452 C1453 1.387 . S
C1452 H1456 0.950 . S
C1452 C1461 1.390 . S
C1453 C1452 1.387 . S
C1453 C1455 1.387 . S
H1454 C1461 0.950 . S
C1455 C1453 1.387 . S
C1455 C1457 1.390 . S
C1455 H1459 0.950 . S
H1456 C1452 0.950 . S
C1457 C1455 1.390 . S
C1457 C1458 1.387 . S
C1457 H1460 0.950 . S
C1458 C1457 1.387 . S
C1458 C1461 1.387 . S
H1459 C1455 0.950 . S
H1460 C1457 0.950 . S
C1461 C1452 1.390 . S
C1461 H1454 0.950 . S
C1461 C1458 1.387 . S
C1462 C1463 1.387 . S
C1462 H1466 0.950 . S
C1462 C1471 1.390 . S
C1463 C1462 1.387 . S
C1463 C1465 1.387 . S
H1464 C1471 0.950 . S
C1465 C1463 1.387 . S
C1465 C1467 1.390 . S
C1465 H1469 0.950 . S
H1466 C1462 0.950 . S
C1467 C1465 1.390 . S
C1467 C1468 1.387 . S
C1467 H1470 0.950 . S
C1468 C1467 1.387 . S
C1468 C1471 1.387 . S
H1469 C1465 0.950 . S
H1470 C1467 0.950 . S
C1471 C1462 1.390 . S
C1471 H1464 0.950 . S
C1471 C1468 1.387 . S
C1472 C1473 1.387 . S
C1472 H1476 0.950 . S
C1472 C1481 1.390 . S
C1473 C1472 1.387 . S
C1473 C1475 1.387 . S
H1474 C1481 0.950 . S
C1475 C1473 1.387 . S
C1475 C1477 1.390 . S
C1475 H1479 0.950 . S
H1476 C1472 0.950 . S
C1477 C1475 1.390 . S
C1477 C1478 1.387 . S
C1477 H1480 0.950 . S
C1478 C1477 1.387 . S
C1478 C1481 1.387 . S
H1479 C1475 0.950 . S
H1480 C1477 0.950 . S
C1481 C1472 1.390 . S
C1481 H1474 0.950 . S
C1481 C1478 1.387 . S
C1482 C1483 1.387 . S
C1482 H1486 0.950 . S
C1482 C1491 1.390 . S
C1483 C1482 1.387 . S
C1483 C1485 1.387 . S
H1484 C1491 0.950 . S
C1485 C1483 1.387 . S
C1485 C1487 1.390 . S
C1485 H1489 0.950 . S
H1486 C1482 0.950 . S
C1487 C1485 1.390 . S
C1487 C1488 1.387 . S
C1487 H1490 0.950 . S
C1488 C1487 1.387 . S
C1488 C1491 1.387 . S
H1489 C1485 0.950 . S
H1490 C1487 0.950 . S
C1491 C1482 1.390 . S
C1491 H1484 0.950 . S
C1491 C1488 1.387 . S
C1492 C1493 1.387 . S
C1492 H1496 0.950 . S
C1492 C1501 1.390 . S
C1493 C1492 1.387 . S
C1493 C1495 1.387 . S
H1494 C1501 0.950 . S
C1495 C1493 1.387 . S
C1495 C1497 1.390 . S
C1495 H1499 0.950 . S
H1496 C1492 0.950 . S
C1497 C1495 1.390 . S
C1497 C1498 1.387 . S
C1497 H1500 0.950 . S
C1498 C1497 1.387 . S
C1498 C1501 1.387 . S
H1499 C1495 0.950 . S
H1500 C1497 0.950 . S
C1501 C1492 1.390 . S
C1501 H1494 0.950 . S
C1501 C1498 1.387 . S
C1502 C1503 1.387 . S
C1502 H1506 0.950 . S
C1502 C1511 1.390 . S
C1503 C1502 1.387 . S
C1503 C1505 1.387 . S
H1504 C1511 0.950 . S
C1505 C1503 1.387 . S
C1505 C1507 1.390 . S
C1505 H1509 0.950 . S
H1506 C1502 0.950 . S
C1507 C1505 1.390 . S
C1507 C1508 1.387 . S
C1507 H1510 0.950 . S
C1508 C1507 1.387 . S
C1508 C1511 1.387 . S
H1509 C1505 0.950 . S
H1510 C1507 0.950 . S
C1511 C1502 1.390 . S
C1511 H1504 0.950 . S
C1511 C1508 1.387 . S
C1512 C1513 1.387 . S
C1512 H1516 0.950 . S
C1512 C1521 1.390 . S
C1513 C1512 1.387 . S
C1513 C1515 1.387 . S
H1514 C1521 0.950 . S
C1515 C1513 1.387 . S
C1515 C1517 1.390 . S
C1515 H1519 0.950 . S
H1516 C1512 0.950 . S
C1517 C1515 1.390 . S
C1517 C1518 1.387 . S
C1517 H1520 0.950 . S
C1518 C1517 1.387 . S
C1518 C1521 1.387 . S
H1519 C1515 0.950 . S
H1520 C1517 0.950 . S
C1521 C1512 1.390 . S
C1521 H1514 0.950 . S
C1521 C1518 1.387 . S
C1522 C1523 1.387 . S
C1522 H1526 0.950 . S
C1522 C1531 1.390 . S
C1523 C1522 1.387 . S
C1523 C1525 1.387 . S
H1524 C1531 0.950 . S
C1525 C1523 1.387 . S
C1525 C1527 1.390 . S
C1525 H1529 0.950 . S
H1526 C1522 0.950 . S
C1527 C1525 1.390 . S
C1527 C1528 1.387 . S
C1527 H1530 0.950 . S
C1528 C1527 1.387 . S
C1528 C1531 1.387 . S
H1529 C1525 0.950 . S
H1530 C1527 0.950 . S
C1531 C1522 1.390 . S
C1531 H1524 0.950 . S
C1531 C1528 1.387 . S
C1532 C1533 1.387 . S
C1532 H1536 0.950 . S
C1532 C1541 1.390 . S
C1533 C1532 1.387 . S
C1533 C1535 1.387 . S
H1534 C1541 0.950 . S
C1535 C1533 1.387 . S
C1535 C1537 1.390 . S
C1535 H1539 0.950 . S
H1536 C1532 0.950 . S
C1537 C1535 1.390 . S
C1537 C1538 1.387 . S
C1537 H1540 0.950 . S
C1538 C1537 1.387 . S
C1538 C1541 1.387 . S
H1539 C1535 0.950 . S
H1540 C1537 0.950 . S
C1541 C1532 1.390 . S
C1541 H1534 0.950 . S
C1541 C1538 1.387 . S
C1542 C1543 1.387 . S
C1542 H1546 0.950 . S
C1542 C1551 1.390 . S
C1543 C1542 1.387 . S
C1543 C1545 1.387 . S
H1544 C1551 0.950 . S
C1545 C1543 1.387 . S
C1545 C1547 1.390 . S
C1545 H1549 0.950 . S
H1546 C1542 0.950 . S
C1547 C1545 1.390 . S
C1547 C1548 1.387 . S
C1547 H1550 0.950 . S
C1548 C1547 1.387 . S
C1548 C1551 1.387 . S
H1549 C1545 0.950 . S
H1550 C1547 0.950 . S
C1551 C1542 1.390 . S
C1551 H1544 0.950 . S
C1551 C1548 1.387 . S
C1552 C1553 1.387 . S
C1552 H1556 0.950 . S
C1552 C1561 1.390 . S
C1553 C1552 1.387 . S
C1553 C1555 1.387 . S
H1554 C1561 0.950 . S
C1555 C1553 1.387 . S
C1555 C1557 1.390 . S
C1555 H1559 0.950 . S
H1556 C1552 0.950 . S
C1557 C1555 1.390 . S
C1557 C1558 1.387 . S
C1557 H1560 0.950 . S
C1558 C1557 1.387 . S
C1558 C1561 1.387 . S
H1559 C1555 0.950 . S
H1560 C1557 0.950 . S
C1561 C1552 1.390 . S
C1561 H1554 0.950 . S
C1561 C1558 1.387 . S
C1562 C1563 1.387 . S
C1562 H1566 0.950 . S
C1562 C1571 1.390 . S
C1563 C1562 1.387 . S
C1563 C1565 1.387 . S
H1564 C1571 0.950 . S
C1565 C1563 1.387 . S
C1565 C1567 1.390 . S
C1565 H1569 0.950 . S
H1566 C1562 0.950 . S
C1567 C1565 1.390 . S
C1567 C1568 1.387 . S
C1567 H1570 0.950 . S
C1568 C1567 1.387 . S
C1568 C1571 1.387 . S
H1569 C1565 0.950 . S
H1570 C1567 0.950 . S
C1571 C1562 1.390 . S
C1571 H1564 0.950 . S
C1571 C1568 1.387 . S
C1572 C1573 1.387 . S
C1572 H1576 0.950 . S
C1572 C1581 1.390 . S
C1573 C1572 1.387 . S
C1573 C1575 1.387 . S
H1574 C1581 0.950 . S
C1575 C1573 1.387 . S
C1575 C1577 1.390 . S
C1575 H1579 0.950 . S
H1576 C1572 0.950 . S
C1577 C1575 1.390 . S
C1577 C1578 1.387 . S
C1577 H1580 0.950 . S
C1578 C1577 1.387 . S
C1578 C1581 1.387 . S
H1579 C1575 0.950 . S
H1580 C1577 0.950 . S
C1581 C1572 1.390 . S
C1581 H1574 0.950 . S
C1581 C1578 1.387 . S
C1582 C1583 1.387 . S
C1582 H1586 0.950 . S
C1582 C1591 1.390 . S
C1583 C1582 1.387 . S
C1583 C1585 1.387 . S
H1584 C1591 0.950 . S
C1585 C1583 1.387 . S
C1585 C1587 1.390 . S
C1585 H1589 0.950 . S
H1586 C1582 0.950 . S
C1587 C1585 1.390 . S
C1587 C1588 1.387 . S
C1587 H1590 0.950 . S
C1588 C1587 1.387 . S
C1588 C1591 1.387 . S
H1589 C1585 0.950 . S
H1590 C1587 0.950 . S
C1591 C1582 1.390 . S
C1591 H1584 0.950 . S
C1591 C1588 1.387 . S
C1592 C1593 1.387 . S
C1592 H1596 0.950 . S
C1592 C1601 1.390 . S
C1593 C1592 1.387 . S
C1593 C1595 1.387 . S
H1594 C1601 0.950 . S
C1595 C1593 1.387 . S
C1595 C1597 1.390 . S
C1595 H1599 0.950 . S
H1596 C1592 0.950 . S
C1597 C1595 1.390 . S
C1597 C1598 1.387 . S
C1597 H1600 0.950 . S
C1598 C1597 1.387 . S
C1598 C1601 1.387 . S
H1599 C1595 0.950 . S
H1600 C1597 0.950 . S
C1601 C1592 1.390 . S
C1601 H1594 0.950 . S
C1601 C1598 1.387 . S
C1602 C1603 1.387 . S
C1602 H1606 0.950 . S
C1602 C1611 1.390 . S
C1603 C1602 1.387 . S
C1603 C1605 1.387 . S
H1604 C1611 0.950 . S
C1605 C1603 1.387 . S
C1605 C1607 1.390 . S
C1605 H1609 0.950 . S
H1606 C1602 0.950 . S
C1607 C1605 1.390 . S
C1607 C1608 1.387 . S
C1607 H1610 0.950 . S
C1608 C1607 1.387 . S
C1608 C1611 1.387 . S
H1609 C1605 0.950 . S
H1610 C1607 0.950 . S
C1611 C1602 1.390 . S
C1611 H1604 0.950 . S
C1611 C1608 1.387 . S
C1612 C1613 1.387 . S
C1612 H1616 0.950 . S
C1612 C1621 1.390 . S
C1613 C1612 1.387 . S
C1613 C1615 1.387 . S
H1614 C1621 0.950 . S
C1615 C1613 1.387 . S
C1615 C1617 1.390 . S
C1615 H1619 0.950 . S
H1616 C1612 0.950 . S
C1617 C1615 1.390 . S
C1617 C1618 1.387 . S
C1617 H1620 0.950 . S
C1618 C1617 1.387 . S
C1618 C1621 1.387 . S
H1619 C1615 0.950 . S
H1620 C1617 0.950 . S
C1621 C1612 1.390 . S
C1621 H1614 0.950 . S
C1621 C1618 1.387 . S
C1622 C1623 1.387 . S
C1622 H1626 0.950 . S
C1622 C1631 1.390 . S
C1623 C1622 1.387 . S
C1623 C1625 1.387 . S
H1624 C1631 0.950 . S
C1625 C1623 1.387 . S
C1625 C1627 1.390 . S
C1625 H1629 0.950 . S
H1626 C1622 0.950 . S
C1627 C1625 1.390 . S
C1627 C1628 1.387 . S
C1627 H1630 0.950 . S
C1628 C1627 1.387 . S
C1628 C1631 1.387 . S
H1629 C1625 0.950 . S
H1630 C1627 0.950 . S
C1631 C1622 1.390 . S
C1631 H1624 0.950 . S
C1631 C1628 1.387 . S
C673 C42 1.498 . S
C678 C1 1.498 . S
C683 C13 1.498 . S
C688 C26 1.498 . S
C693 C28 1.498 . S
C698 C15 1.498 . S
C703 C40 1.499 . S
C708 C55 1.499 . S
C713 C56 1.498 . S
C718 C71 1.498 . S
C723 C96 1.498 . S
C728 C83 1.498 . S
C733 C85 1.499 . S
C738 C98 1.499 . S
C743 C69 1.499 . S
C748 C110 1.499 . S
C753 C125 1.498 . S
C758 C264 1.498 . S
C763 C278 1.498 . S
C768 C139 1.498 . S
C773 C292 1.498 . S
C778 C153 1.498 . S
C783 C250 1.498 . S
C788 C167 1.498 . S
C793 C321 1.498 . S
C798 C180 1.498 . S
C803 C194 1.499 . S
C808 C237 1.499 . S
C813 C335 1.498 . S
C818 C208 1.498 . S
C823 C222 1.498 . S
C828 C307 1.498 . S
C833 C225 1.499 . S
C838 C126 1.499 . S
C843 C239 1.498 . S
C848 C210 1.498 . S
C853 C168 1.498 . S
C858 C253 1.498 . S
C863 C183 1.498 . S
C868 C266 1.498 . S
C873 C197 1.499 . S
C878 C280 1.499 . S
C883 C155 1.498 . S
C888 C294 1.498 . S
C893 C113 1.499 . S
C898 C308 1.499 . S
C903 C323 1.498 . S
C908 C140 1.498 . S
C913 C378 1.498 . S
C918 C337 1.498 . S
C923 C349 1.498 . S
C928 C362 1.498 . S
C933 C364 1.499 . S
C938 C351 1.499 . S
C943 C376 1.498 . S
C948 C391 1.498 . S
C953 C407 1.498 . S
C958 C392 1.498 . S
C963 C419 1.498 . S
C968 C432 1.498 . S
C973 C434 1.498 . S
C978 C421 1.498 . S
C983 C405 1.498 . S
C988 C446 1.498 . S
C993 C600 1.498 . S
C998 C461 1.498 . S
C1003 C475 1.498 . S
C1008 C614 1.498 . S
C1013 C628 1.499 . S
C1018 C489 1.499 . S
C1023 C503 1.498 . S
C1028 C586 1.498 . S
C1033 C516 1.498 . S
C1038 C657 1.498 . S
C1043 C573 1.498 . S
C1048 C530 1.498 . S
C1053 C671 1.499 . S
C1058 C544 1.499 . S
C1063 C643 1.498 . S
C1068 C558 1.498 . S
C1073 C462 1.498 . S
C1078 C561 1.498 . S
C1083 C546 1.499 . S
C1088 C575 1.499 . S
C1093 C589 1.498 . S
C1098 C504 1.498 . S
C1103 C602 1.499 . S
C1108 C519 1.499 . S
C1113 C533 1.498 . S
C1118 C616 1.498 . S
C1123 C630 1.499 . S
C1128 C491 1.499 . S
C1133 C644 1.498 . S
C1138 C449 1.498 . S
C1143 C659 1.499 . S
C1148 C476 1.499 . S
C1153 C0 1.499 . S
C1158 C617 1.499 . S
C1163 C27 1.498 . S
C1168 C574 1.498 . S
C1173 C29 1.499 . S
C1178 C588 1.498 . S
C1183 C54 1.499 . S
C1188 C603 1.499 . S
C1193 C57 1.499 . S
C1198 C658 1.499 . S
C1203 C82 1.499 . S
C1208 C631 1.498 . S
C1213 C84 1.499 . S
C1218 C645 1.498 . S
C1223 C560 1.498 . S
C1228 C111 1.498 . S
C1233 C124 1.499 . S
C1238 C559 1.499 . S
C1243 C517 1.498 . S
C1248 C138 1.498 . S
C1253 C152 1.498 . S
C1258 C531 1.498 . S
C1263 C166 1.498 . S
C1268 C545 1.498 . S
C1273 C181 1.498 . S
C1278 C474 1.499 . S
C1283 C195 1.499 . S
C1288 C488 1.498 . S
C1293 C502 1.498 . S
C1298 C209 1.498 . S
C1303 C223 1.499 . S
C1308 C460 1.498 . S
C1313 C224 1.499 . S
C1318 C447 1.499 . S
C1323 C238 1.498 . S
C1328 C363 1.498 . S
C1333 C252 1.499 . S
C1338 C365 1.498 . S
C1343 C267 1.498 . S
C1348 C390 1.498 . S
C1353 C336 1.499 . S
C1358 C281 1.498 . S
C1363 C295 1.498 . S
C1368 C418 1.499 . S
C1373 C420 1.498 . S
C1378 C309 1.499 . S
C1383 C393 1.498 . S
C1388 C322 1.499 . S
C1393 C448 1.499 . S
C1398 C99 1.498 . S
C1403 C68 1.498 . S
C1408 C463 1.498 . S
C1413 C477 1.499 . S
C1418 C70 1.499 . S
C1423 C490 1.498 . S
C1428 C97 1.498 . S
C1433 C505 1.499 . S
C1438 C14 1.499 . S
C1443 C41 1.499 . S
C1448 C518 1.499 . S
C1453 C532 1.498 . S
C1458 C43 1.499 . S
C1463 C547 1.499 . S
C1468 C12 1.499 . S
C1473 C572 1.499 . S
C1478 C293 1.498 . S
C1483 C251 1.499 . S
C1488 C670 1.498 . S
C1493 C265 1.498 . S
C1498 C642 1.498 . S
C1503 C656 1.499 . S
C1508 C279 1.498 . S
C1513 C587 1.499 . S
C1518 C334 1.499 . S
C1523 C601 1.498 . S
C1528 C306 1.498 . S
C1533 C320 1.499 . S
C1538 C615 1.498 . S
C1543 C629 1.499 . S
C1548 C236 1.498 . S
C1553 C348 1.499 . S
C1558 C211 1.498 . S
C1563 C404 1.498 . S
C1568 C127 1.498 . S
C1573 C406 1.498 . S
C1578 C141 1.498 . S
C1583 C154 1.499 . S
C1588 C433 1.499 . S
C1593 C112 1.499 . S
C1598 C435 1.498 . S
C1603 C377 1.499 . S
C1608 C182 1.499 . S
C1613 C196 1.498 . S
C1618 C379 1.499 . S
C1623 C350 1.499 . S
C1628 C169 1.498 . S
