# Generated by pormake.
# Topology snp, (6)-cn, num edge types: 1
# Building blocks:
#     Node 0, Type 0, BuildingBlock: KUMJIN_clean_sbu_0, # of connection points: 6
#     Node 1, Type 0, BuildingBlock: KUMJIN_clean_sbu_0, # of connection points: 6
#     Node 2, Type 0, BuildingBlock: KUMJIN_clean_sbu_0, # of connection points: 6
#     Node 3, Type 0, BuildingBlock: KUMJIN_clean_sbu_0, # of connection points: 6
#     Edge 4, Type (0, 0), BuildingBlock: AJUNOK_clean_linker_0, # of connection points: 2
#     Edge 5, Type (0, 0), BuildingBlock: AJUNOK_clean_linker_0, # of connection points: 2
#     Edge 6, Type (0, 0), BuildingBlock: AJUNOK_clean_linker_0, # of connection points: 2
#     Edge 7, Type (0, 0), BuildingBlock: AJUNOK_clean_linker_0, # of connection points: 2
#     Edge 8, Type (0, 0), BuildingBlock: AJUNOK_clean_linker_0, # of connection points: 2
#     Edge 9, Type (0, 0), BuildingBlock: AJUNOK_clean_linker_0, # of connection points: 2
#     Edge 10, Type (0, 0), BuildingBlock: AJUNOK_clean_linker_0, # of connection points: 2
#     Edge 11, Type (0, 0), BuildingBlock: AJUNOK_clean_linker_0, # of connection points: 2
#     Edge 12, Type (0, 0), BuildingBlock: AJUNOK_clean_linker_0, # of connection points: 2
#     Edge 13, Type (0, 0), BuildingBlock: AJUNOK_clean_linker_0, # of connection points: 2
#     Edge 14, Type (0, 0), BuildingBlock: AJUNOK_clean_linker_0, # of connection points: 2
#     Edge 15, Type (0, 0), BuildingBlock: AJUNOK_clean_linker_0, # of connection points: 2
# Relax obj value: 0.316
# Max RMSD: 0.234
# Mean RMSD: 0.215
data_MOF--net-snp--node1-KUMJIN_clean_sbu_0--edge1-AJUNOK_clean_linker_0
_symmetry_space_group_name_H-M    P1
_symmetry_Int_Tables_number       1
_symmetry_cell_setting            triclinic
loop_
_symmetry_equiv_pos_as_xyz
'x, y, z'
_cell_length_a     20.253823
_cell_length_b     20.325724
_cell_length_c     22.869491
_cell_angle_alpha  114.23183
_cell_angle_beta   104.05532
_cell_angle_gamma 72.784647
loop_
_atom_site_label
_atom_site_type_symbol
_atom_site_fract_x
_atom_site_fract_y
_atom_site_fract_z
_atom_type_partial_charge
Eu0 Eu 0.28198 0.26489 0.17039 0.0
C1 C 0.39345 0.90844 1.06807 0.0
C2 C 0.3102 0.85156 1.07971 0.0
C3 C 0.39751 0.77701 1.00816 0.0
C4 C 0.33841 0.91407 0.09711 0.0
C5 C 0.42509 0.83915 1.02517 0.0
C6 C 0.3396 0.78343 1.03474 0.0
C7 C 0.51079 0.89676 1.02024 0.0
N8 N 0.41831 0.96973 1.08384 0.0
C9 C 0.47595 0.96476 1.06005 0.0
C10 C 0.48516 0.8337 1.00235 0.0
Eu11 Eu 0.36911 0.07856 0.16561 0.0
N12 N 0.31251 0.98019 0.14223 0.0
C13 C 0.25621 0.98727 0.1693 0.0
C14 C 0.25324 0.8591 0.10802 0.0
C15 C 0.22586 0.92744 0.15266 0.0
H16 H 0.49834 1.01197 1.07538 0.0
H17 H 0.18096 0.93432 0.17411 0.0
H18 H 0.31863 0.73505 1.021 0.0
H19 H 0.55755 0.89297 1.00336 0.0
H20 H 0.23227 0.03939 0.20189 0.0
H21 H 0.38892 0.44102 0.40358 0.0
H22 H 0.2298 0.81268 0.09546 0.0
H23 H 0.07285 0.2725 1.02952 0.0
H24 H 0.39429 0.34167 0.29775 0.0
H25 H -0.00455 0.28892 0.17 0.0
H26 H 0.42083 0.72365 0.97476 0.0
H27 H 0.27594 0.50419 0.44438 0.0
H28 H 0.14883 0.51653 0.42912 0.0
H29 H 0.51252 0.78098 0.97133 0.0
H30 H 0.04386 0.47499 0.36399 0.0
N31 N 0.28479 0.34494 0.27764 0.0
C32 C 0.34425 0.36683 0.31443 0.0
C33 C 0.27774 0.46008 0.39718 0.0
C34 C 0.21688 0.43857 0.35893 0.0
C35 C 0.34161 0.42428 0.37465 0.0
C36 C 0.22116 0.38063 0.29713 0.0
H37 H -0.0112 0.39175 0.26713 0.0
N38 N 0.16041 0.31072 0.19305 0.0
C39 C 0.04189 0.3107 0.18952 0.0
C40 C 0.15973 0.35998 0.2568 0.0
C41 C 0.09601 0.2968 0.15151 0.0
C42 C 0.03816 0.36749 0.24865 0.0
C43 C 0.09652 0.39357 0.283 0.0
O44 O 0.33988 0.33983 0.16948 0.0
O45 O 0.32495 0.14803 0.10132 0.0
O46 O 0.42581 0.12801 0.12647 0.0
O47 O 0.39891 0.24513 0.19902 0.0
O48 O 0.28158 0.22411 1.06039 0.0
O49 O 0.22712 0.36896 0.15722 0.0
O50 O 0.45039 0.11823 0.24574 0.0
O51 O 0.3245 0.19521 0.23203 0.0
O52 O 0.21569 0.1888 0.16227 0.0
O53 O 0.26771 0.07055 0.10183 0.0
O54 O 0.31636 0.10914 0.25387 0.0
O55 O 0.46253 1.00193 0.189 0.0
C56 C 0.3043 0.15396 1.04534 0.0
C57 C 0.28161 0.42023 0.11135 0.0
C58 C 0.3227 0.41602 1.01779 0.0
C59 C 0.33109 0.3906 1.06847 0.0
C60 C 0.26799 0.47696 1.01506 0.0
C61 C 0.22756 0.481 0.10788 0.0
C62 C 0.22153 0.50987 1.06056 0.0
C63 C 0.43976 0.19406 0.15786 0.0
C64 C 0.28373 0.38766 0.15876 0.0
C65 C 0.09293 0.44962 0.34448 0.0
C66 C 0.15263 0.47297 0.38177 0.0
C67 C 0.3007 0.18036 0.27134 0.0
C68 C 0.51958 0.03466 0.29554 0.0
C69 C 0.48446 1.00191 0.31822 0.0
C70 C 0.51768 0.97568 0.36846 0.0
C71 C 0.58603 0.98464 0.39679 0.0
C72 C 0.58695 0.04455 0.32503 0.0
C73 C 0.61986 1.01996 0.37581 0.0
C74 C 0.21279 0.12522 0.1138 0.0
C75 C 0.48928 0.05249 0.23755 0.0
H76 H 0.37453 0.34581 1.07304 0.0
H77 H 0.25927 0.49748 0.97634 0.0
H78 H 0.18944 0.50549 0.1413 0.0
H79 H 0.17924 0.55626 1.05774 0.0
H80 H 0.43213 0.99491 0.29534 0.0
H81 H 0.61429 0.96246 0.43379 0.0
H82 H 0.61473 0.06948 0.30764 0.0
H83 H 0.67247 0.02633 0.39769 0.0
Eu84 Eu 0.02221 0.41495 0.56802 0.0
C85 C 0.31221 0.43007 0.7182 0.0
C86 C 0.40487 0.40434 0.65641 0.0
C87 C 0.40748 0.4949 0.76601 0.0
C88 C 0.34152 0.39224 0.66134 0.0
C89 C 0.34429 0.48325 0.77059 0.0
C90 C 0.43794 0.45516 0.70922 0.0
C91 C 0.24817 0.51217 0.82802 0.0
N92 N 0.25052 0.41807 0.72106 0.0
C93 C 0.21814 0.45932 0.77505 0.0
C94 C 0.31157 0.52411 0.82593 0.0
Eu95 Eu 0.20163 0.32882 0.62595 0.0
N96 N 0.30681 0.34578 0.60997 0.0
C97 C 0.33475 0.30746 0.55335 0.0
C98 C 0.43278 0.36579 0.59818 0.0
C99 C 0.39762 0.31691 0.54649 0.0
H100 H 0.16827 0.4539 0.77814 0.0
H101 H 0.41906 0.28607 0.50137 0.0
H102 H 0.48653 0.46505 0.70623 0.0
H103 H 0.22185 0.54431 0.8703 0.0
H104 H 0.30969 0.26737 0.51361 0.0
H105 H 0.84523 0.58854 0.74806 0.0
H106 H 0.48137 0.37336 0.59264 0.0
H107 H -0.00434 0.26874 0.43291 0.0
H108 H 0.95231 0.54714 0.698 0.0
H109 H 0.90108 0.20525 0.36712 0.0
H110 H 0.4329 0.53508 0.80596 0.0
H111 H 0.74943 0.52267 0.69555 0.0
H112 H 0.70086 0.42348 0.60099 0.0
H113 H 0.33448 0.56544 0.867 0.0
H114 H 0.71474 0.32137 0.49589 0.0
N115 N 0.9211 0.45458 0.62071 0.0
C116 C 0.91278 0.51525 0.6764 0.0
C117 C 0.79715 0.50314 0.67415 0.0
C118 C 0.8042 0.44324 0.61556 0.0
C119 C 0.85134 0.54003 0.70418 0.0
C120 C 0.8673 0.42052 0.58946 0.0
H121 H 0.78848 0.24071 0.40767 0.0
N122 N 0.93548 0.3451 0.50653 0.0
C123 C 0.89279 0.24975 0.4129 0.0
C124 C 0.87451 0.36433 0.53022 0.0
C125 C 0.94568 0.28724 0.44934 0.0
C126 C 0.82931 0.27009 0.43594 0.0
C127 C 0.81972 0.32748 0.49566 0.0
O128 O 0.00167 0.47285 0.50152 0.0
O129 O 0.13075 0.35457 0.54193 0.0
O130 O 0.1995 0.43221 0.61402 0.0
O131 O 0.09305 0.48035 0.64909 0.0
O132 O 0.05876 0.37174 0.46766 0.0
O133 O 0.98313 0.53555 0.59976 0.0
O134 O 0.23532 0.24248 0.66649 0.0
O135 O 0.09301 0.38778 0.65295 0.0
O136 O 0.02406 0.30359 0.56656 0.0
O137 O 0.13462 0.26135 0.54149 0.0
O138 O 0.15584 0.32886 0.70817 0.0
O139 O 0.27412 0.22412 0.58044 0.0
C140 C 0.12458 0.34724 0.48265 0.0
C141 C 0.90129 0.56917 0.51725 0.0
C142 C 0.81866 0.53876 0.41951 0.0
C143 C 0.88468 0.55243 0.45046 0.0
C144 C 0.7638 0.56667 0.45697 0.0
C145 C 0.84658 0.59786 0.55487 0.0
C146 C 0.77756 0.59959 0.52445 0.0
C147 C 0.14861 0.48903 0.63523 0.0
C148 C 0.97263 0.53638 0.54177 0.0
C149 C 0.75733 0.34896 0.52174 0.0
C150 C 0.74955 0.40683 0.58163 0.0
C151 C 0.09349 0.367 0.69916 0.0
C152 C 0.35703 0.20485 0.66831 0.0
C153 C 0.3634 0.23279 0.73599 0.0
C154 C 0.42368 0.25512 0.77435 0.0
C155 C 0.48103 0.24484 0.74514 0.0
C156 C 0.41558 0.19203 0.63914 0.0
C157 C 0.47743 0.21146 0.67757 0.0
C158 C 0.07798 0.24825 0.54886 0.0
C159 C 0.28589 0.20696 0.63145 0.0
H160 H 0.92655 0.53554 0.42191 0.0
H161 H 0.71166 0.55858 0.43504 0.0
H162 H 0.85719 0.61448 0.60702 0.0
H163 H 0.73559 0.6197 0.55334 0.0
H164 H 0.31906 0.243 0.75971 0.0
H165 H 0.52797 0.26239 0.77429 0.0
H166 H 0.41239 0.17079 0.58691 0.0
H167 H 0.52171 0.20323 0.65476 0.0
Eu168 Eu 0.7853 0.27033 1.03699 0.0
C169 C 0.86759 0.96846 1.03525 0.0
C170 C 0.76366 0.92035 1.00513 0.0
C171 C 0.86937 0.84159 0.96042 0.0
C172 C 0.79819 0.97926 1.03888 0.0
C173 C 0.90499 0.89817 0.99879 0.0
C174 C 0.79854 0.85279 0.96342 0.0
C175 C 0.01121 0.94042 1.05049 0.0
N176 N 0.90026 0.02427 1.07291 0.0
C177 C 0.97156 1.00933 1.08474 0.0
C178 C 0.9776 0.88545 1.00533 0.0
Eu179 Eu 0.83057 0.14118 0.12952 0.0
N180 N 0.76687 0.04454 1.08107 0.0
C181 C 0.70509 0.04959 0.09886 0.0
C182 C 0.69675 0.92939 1.01739 0.0
C183 C 0.66826 0.99343 1.06601 0.0
H184 H -0.00111 0.05065 0.11996 0.0
H185 H 0.61857 0.99923 1.07917 0.0
H186 H 0.77234 0.80752 0.93618 0.0
H187 H 0.06765 0.9301 1.05876 0.0
H188 H 0.68349 0.09716 0.13845 0.0
H189 H 0.90085 0.49104 0.22525 0.0
H190 H 0.66896 0.88526 0.99245 0.0
H191 H 0.63835 0.28131 0.93402 0.0
H192 H 0.89743 0.36255 0.14971 0.0
H193 H 0.53718 0.377 0.9167 0.0
H194 H 0.89688 0.78784 0.93101 0.0
H195 H 0.7942 0.59052 0.22859 0.0
H196 H 0.67001 0.62985 0.18166 0.0
H197 H 0.00831 0.83217 0.97869 0.0
H198 H 0.57007 0.59865 0.0978 0.0
N199 N 0.79082 0.389 0.11441 0.0
C200 C 0.85136 0.40578 0.15181 0.0
C201 C 0.79271 0.53425 0.19605 0.0
C202 C 0.73196 0.51742 0.1539 0.0
C203 C 0.85307 0.47831 0.19423 0.0
C204 C 0.73283 0.44326 0.11247 0.0
H205 H 0.52048 0.50502 0.99739 0.0
N206 N 0.68129 0.35498 1.02231 0.0
C207 C 0.57396 0.39102 0.96001 0.0
C208 C 0.67649 0.42577 1.06501 0.0
C209 C 0.63197 0.33703 0.9695 0.0
C210 C 0.56567 0.46333 1.00528 0.0
C211 C 0.61782 0.48181 1.05819 0.0
O212 O 0.77953 0.28786 0.94516 0.0
O213 O 0.80753 0.15429 1.03346 0.0
O214 O 0.92566 0.16824 0.1158 0.0
O215 O 0.8877 0.19362 1.0215 0.0
O216 O 0.73436 0.17876 0.96056 0.0
O217 O 0.87197 0.29377 1.01404 0.0
O218 O 0.92064 0.1251 0.20451 0.0
O219 O 0.82158 0.25861 0.1356 0.0
O220 O 0.68404 0.27759 1.06694 0.0
O221 O 0.71317 0.18103 0.10776 0.0
O222 O 0.77372 0.24398 0.19946 0.0
O223 O 0.81978 0.12507 0.21605 0.0
C224 C 0.76645 0.12705 0.98363 0.0
C225 C 0.85662 0.36269 0.94776 0.0
C226 C 0.91874 0.41036 0.89541 0.0
C227 C 0.89196 0.35213 0.89597 0.0
C228 C 0.91191 0.47635 0.95066 0.0
C229 C 0.84556 0.43272 0.99665 0.0
C230 C 0.87378 0.48816 0.9986 0.0
C231 C 0.9366 0.17785 1.0654 0.0
C232 C 0.84252 0.29987 0.95874 0.0
C233 C 0.61497 0.55495 0.102 0.0
C234 C 0.67191 0.57272 0.14976 0.0
C235 C 0.78539 0.29208 0.18214 0.0
C236 C 0.91486 0.04365 0.2558 0.0
C237 C 0.95926 0.04096 0.31515 0.0
C238 C 0.98046 0.97401 0.32907 0.0
C239 C 0.95491 0.91229 0.28339 0.0
C240 C 0.89358 0.97883 0.21206 0.0
C241 C 0.91298 0.91451 0.22582 0.0
C242 C 0.6687 0.23442 1.08972 0.0
C243 C 0.88603 0.11248 0.23845 0.0
H244 H 0.89979 0.2984 0.85765 0.0
H245 H 0.93806 0.51931 0.95985 0.0
H246 H 0.81887 0.44338 1.03613 0.0
H247 H 0.86847 0.54022 1.03939 0.0
H248 H 0.97772 0.08948 0.3495 0.0
H249 H 0.96752 0.86122 0.29225 0.0
H250 H 0.86023 0.97817 0.16714 0.0
H251 H 0.89476 0.86573 0.19152 0.0
Eu252 Eu 0.07973 0.92396 0.67849 0.0
C253 C 0.36647 0.8639 0.77998 0.0
C254 C 0.4352 0.95545 0.81018 0.0
C255 C 0.4676 0.86688 0.8632 0.0
C256 C 0.37824 0.92372 0.77219 0.0
C257 C 0.4115 0.83524 0.82604 0.0
C258 C 0.47855 0.92749 0.85642 0.0
C259 C 0.35619 0.73245 0.78292 0.0
N260 N 0.31751 0.82778 0.73738 0.0
C261 C 0.31694 0.75954 0.73516 0.0
C262 C 0.40328 0.77106 0.82928 0.0
Eu263 Eu 0.2587 0.87324 0.65327 0.0
N264 N 0.33973 0.94512 0.72283 0.0
C265 C 0.35747 0.99559 0.70763 0.0
C266 C 0.45121 1.00937 0.79633 0.0
C267 C 0.41249 0.02908 0.74448 0.0
H268 H 0.29209 0.72158 0.69409 0.0
H269 H 0.42643 0.06831 0.7315 0.0
H270 H 0.52387 0.94841 0.88428 0.0
H271 H 0.35369 0.67913 0.7811 0.0
H272 H 0.33193 1.00717 0.66474 0.0
H273 H 0.00304 0.75442 0.42701 0.0
H274 H 0.49499 0.03422 0.82371 0.0
H275 H 0.00055 0.09337 0.77201 0.0
H276 H 0.07574 0.78177 0.53441 0.0
H277 H 0.89888 0.19242 0.75976 0.0
H278 H 0.50634 0.84099 0.89336 0.0
H279 H 0.90113 0.84935 0.40656 0.0
H280 H 0.82473 0.97605 0.4484 0.0
H281 H 0.43671 0.74775 0.86403 0.0
H282 H 0.79712 0.09476 0.53811 0.0
N283 N 0.01683 0.89192 0.57317 0.0
C284 C 0.03158 0.82371 0.52561 0.0
C285 C 0.93273 0.86161 0.45373 0.0
C286 C 0.91598 0.93013 0.50365 0.0
C287 C -0.00965 0.80794 0.46499 0.0
C288 C 0.95906 0.94367 0.56414 0.0
H289 H 0.82441 0.17583 0.65396 0.0
N290 N -0.01548 0.0223 0.67345 0.0
C291 C 0.91095 0.14179 0.71879 0.0
C292 C 0.94302 1.01078 0.61524 0.0
C293 C 0.9685 0.08563 0.72551 0.0
C294 C 0.86896 0.13213 0.65891 0.0
C295 C 0.88422 0.06581 0.60639 0.0
O296 O 0.01367 0.92624 0.7419 0.0
O297 O 0.19057 0.91518 0.73194 0.0
O298 O 0.21072 0.77449 0.61913 0.0
O299 O 0.14977 0.82965 0.70215 0.0
O300 O 0.11296 1.00257 0.77882 0.0
O301 O 0.0302 0.83212 0.65186 0.0
O302 O 0.30075 0.76198 0.58711 0.0
O303 O 0.14848 0.88388 0.6006 0.0
O304 O 0.09749 0.02257 0.67198 0.0
O305 O 0.21835 0.99614 0.66973 0.0
O306 O 0.22106 0.9064 0.56521 0.0
O307 O 0.35637 0.84909 0.61756 0.0
C308 C 0.17965 0.97342 0.78368 0.0
C309 C 0.927 0.85664 0.69397 0.0
C310 C 0.83571 0.88496 0.75645 0.0
C311 C 0.90518 0.85409 0.74588 0.0
C312 C 0.78559 0.89626 0.70444 0.0
C313 C 0.87785 0.86784 0.64209 0.0
C314 C 0.8068 0.88418 0.64633 0.0
C315 C 0.17166 0.77047 0.65468 0.0
C316 C -0.00096 0.86236 0.70302 0.0
C317 C 0.84226 0.05292 0.5458 0.0
C318 C 0.85795 0.98526 0.4947 0.0
C319 C 0.15579 0.90563 0.55713 0.0
C320 C 0.36624 0.75859 0.51262 0.0
C321 C 0.37476 0.81034 0.49082 0.0
C322 C 0.40462 0.787 0.43435 0.0
C323 C 0.41673 0.71131 0.395 0.0
C324 C 0.37872 0.68341 0.47311 0.0
C325 C 0.40226 0.6602 0.41372 0.0
C326 C 0.1546 0.03934 0.66926 0.0
C327 C 0.35248 0.78175 0.57923 0.0
H328 H 0.9443 0.8424 0.78431 0.0
H329 H 0.73121 0.92081 0.70994 0.0
H330 H 0.89398 0.86725 0.60017 0.0
H331 H 0.76846 0.89473 0.60717 0.0
H332 H 0.36118 0.86878 0.51955 0.0
H333 H 0.43957 0.69113 0.35095 0.0
H334 H 0.3719 0.64259 0.48886 0.0
H335 H 0.41232 0.60203 0.38351 0.0
C336 C 0.04586 0.09111 1.03188 0.0
C337 C 0.00597 0.164 1.05327 0.0
C338 C 0.11914 0.07326 1.03849 0.0
C339 C 0.15857 0.1271 1.06132 0.0
H340 H 0.01995 0.04595 1.01298 0.0
H341 H 0.14547 1.01666 1.03313 0.0
S342 S 0.07952 0.37282 0.09153 0.0
N343 N 0.00106 0.31241 1.07818 0.0
N344 N 0.16025 0.26947 1.07533 0.0
C345 C 0.1266 0.19613 1.06025 0.0
C346 C 0.0353 0.22092 1.0621 0.0
C347 C 0.07499 0.14611 0.64805 0.0
C348 C 0.14027 0.09627 0.64185 0.0
C349 C 0.04877 0.18906 0.61013 0.0
C350 C 0.0878 0.18416 0.56533 0.0
H351 H 0.0433 0.15183 0.68249 0.0
H352 H 0.00023 0.22986 0.61952 0.0
S353 S 0.25038 0.04726 0.51481 0.0
N354 N 0.23753 0.03647 0.57849 0.0
N355 N 0.18428 0.1134 0.50346 0.0
C356 C 0.1485 0.12857 0.55245 0.0
C357 C 0.17685 0.08686 0.59282 0.0
C358 C 0.5747 0.28843 0.15758 0.0
C359 C 0.59703 0.24421 0.09709 0.0
C360 C 0.52043 0.2748 0.17607 0.0
C361 C 0.48909 0.21535 0.13501 0.0
H362 H 0.60308 0.32927 0.19264 0.0
H363 H 0.5065 0.30741 0.22425 0.0
S364 S 0.52786 0.08856 0.97071 0.0
N365 N 0.58134 0.14472 0.99506 0.0
N366 N 0.48048 0.11699 1.0292 0.0
C367 C 0.50812 0.17474 1.07275 0.0
C368 C 0.56188 0.18993 1.05386 0.0
C369 C 0.18168 0.56657 0.59366 0.0
C370 C 0.15273 0.56084 0.6407 0.0
C371 C 0.18659 0.63522 0.59794 0.0
C372 C 0.16392 0.69931 0.65009 0.0
H373 H 0.19987 0.51785 0.55299 0.0
H374 H 0.20863 0.6379 0.5605 0.0
S375 S 0.08798 0.71044 0.78762 0.0
N376 N 0.10218 0.62212 0.74073 0.0
N377 N 0.1142 0.75184 0.75148 0.0
C378 C 0.1356 0.6936 0.69801 0.0
C379 C 0.12927 0.62388 0.69259 0.0
C380 C 0.2331 0.32401 0.43163 0.0
C381 C 0.17352 0.30199 0.43229 0.0
C382 C 0.27507 0.2844 0.3807 0.0
C383 C 0.25358 0.2286 0.32307 0.0
H384 H 0.24823 0.37148 0.47139 0.0
H385 H 0.32453 0.29796 0.38656 0.0
S386 S 0.09988 0.15104 0.29834 0.0
N387 N 0.09913 0.21503 0.3718 0.0
N388 N 0.16668 0.15432 0.27113 0.0
C389 C 0.19233 0.2085 0.32234 0.0
C390 C 0.15436 0.24288 0.377 0.0
C391 C 0.03485 0.32313 0.75772 0.0
C392 C 0.04027 0.3819 0.7426 0.0
C393 C -0.00634 0.33207 0.80353 0.0
C394 C 0.95761 0.40222 0.84128 0.0
H395 H 0.06788 0.26984 0.73778 0.0
H396 H -0.00569 0.28329 0.81203 0.0
S397 S 0.97929 0.57929 0.84182 0.0
N398 N 0.0265 0.51448 0.78657 0.0
N399 N 0.94086 0.53507 0.86541 0.0
C400 C 0.96706 0.46329 0.8302 0.0
C401 C 0.01101 0.45272 0.78402 0.0
C402 C 0.0529 0.98746 0.50694 0.0
C403 C 0.10628 0.92234 0.50025 0.0
C404 C 0.01445 1.00683 0.45285 0.0
C405 C 0.02892 0.96317 0.38893 0.0
H406 H 0.03988 0.02385 0.55427 0.0
H407 H 0.97196 0.05535 0.46115 0.0
S408 S 0.17241 0.79485 0.3453 0.0
N409 N 0.17632 0.81975 0.4242 0.0
N410 N 0.10726 0.8559 0.32422 0.0
C411 C 0.0852 0.90058 0.38232 0.0
C412 C 0.12308 0.88068 0.43706 0.0
C413 C 0.26677 0.9791 0.88993 0.0
C414 C 0.22833 1.01089 0.84322 0.0
C415 C 0.29486 0.02267 0.95392 0.0
C416 C 0.2838 0.10088 0.97561 0.0
H417 H 0.2722 0.92066 0.87829 0.0
H418 H 0.32247 0.99506 0.98713 0.0
S419 S 0.18082 0.21187 0.87359 0.0
N420 N 0.18056 0.12566 0.82499 0.0
N421 N 0.22608 0.20659 0.94249 0.0
C422 C 0.24428 0.13228 0.92877 0.0
C423 C 0.21862 0.08803 0.86401 0.0
C424 C 0.85508 0.0264 0.92427 0.0
C425 C 0.7864 0.05139 0.93793 0.0
C426 C 0.8727 0.96636 0.86872 0.0
C427 C 0.8222 0.92805 0.82445 0.0
H428 H 0.89463 0.05684 0.95363 0.0
H429 H 0.92488 0.95585 0.85812 0.0
S430 S 0.6405 0.95892 0.84875 0.0
N431 N 0.67072 0.02656 0.90991 0.0
N432 N 0.70551 0.90847 0.80685 0.0
C433 C 0.7559 0.94621 0.84247 0.0
C434 C 0.73733 1.00951 0.89848 0.0
C435 C 0.4489 0.87983 0.33915 0.0
C436 C 0.4833 0.93361 0.38732 0.0
C437 C 0.42148 0.8346 0.35498 0.0
C438 C 0.42837 0.8404 0.41949 0.0
H439 H 0.44485 0.87087 0.28846 0.0
H440 H 0.39566 0.79396 0.31612 0.0
S441 S 0.50987 0.97655 0.56434 0.0
N442 N 0.51685 0.99517 0.50264 0.0
N443 N 0.47138 0.90603 0.53239 0.0
C444 C 0.46131 0.89539 0.46842 0.0
C445 C 0.48741 0.9428 0.45231 0.0
C446 C 0.40983 0.37051 0.87192 0.0
C447 C 0.42115 0.29315 0.84444 0.0
C448 C 0.3834 0.41014 0.93114 0.0
C449 C 0.36463 0.37357 0.9633 0.0
H450 H 0.41902 0.40053 0.84621 0.0
H451 H 0.37427 0.46994 0.95 0.0
S452 S 0.38008 0.17126 0.90669 0.0
N453 N 0.41332 0.18169 0.85306 0.0
N454 N 0.35814 0.25476 0.96084 0.0
C455 C 0.37794 0.29574 0.93667 0.0
C456 C 0.40733 0.25595 0.87804 0.0
C457 C 0.74135 0.42322 0.25176 0.0
C458 C 0.7961 0.36067 0.23439 0.0
C459 C 0.75019 0.48342 0.3099 0.0
C460 C 0.81262 0.48053 0.35357 0.0
H461 H 0.69145 0.42498 0.2209 0.0
H462 H 0.7072 0.53119 0.32163 0.0
S463 S 0.96466 0.31961 0.33174 0.0
N464 N 0.911 0.29573 0.26418 0.0
N465 N 0.92613 0.40302 0.37637 0.0
C466 C 0.86639 0.41586 0.33634 0.0
C467 C 0.85828 0.35724 0.27617 0.0
loop_
_geom_bond_atom_site_label_1
_geom_bond_atom_site_label_2
_geom_bond_distance
_geom_bond_site_symmetry_2
_ccdc_geom_bond_type
Eu0 N31 2.657 . S
Eu0 N38 2.609 . S
Eu0 O44 2.558 1_554 S
Eu0 O45 2.612 1_544 S
Eu0 O47 2.339 . S
Eu0 O48 2.563 1_554 S
Eu0 O49 2.419 1_554 S
Eu0 O51 2.380 . S
Eu0 O52 2.432 . S
Eu0 C64 2.848 1_554 S
C1 C4 1.429 . S
C1 C5 1.411 . S
C1 N8 1.377 1_556 S
C2 C4 1.420 . S
C2 C6 1.423 . S
C2 C14 1.392 . S
C3 C5 1.420 . S
C3 C6 1.351 . S
C3 H26 0.931 . S
C4 C1 1.429 . S
C4 C2 1.420 . S
C4 N12 1.362 . S
C5 C1 1.411 . S
C5 C3 1.420 . S
C5 C10 1.395 . S
C6 C2 1.423 . S
C6 C3 1.351 . S
C6 H18 0.930 . S
C7 C9 1.400 . S
C7 C10 1.386 1_554 S
C7 H19 0.930 . S
N8 C1 1.377 1_554 S
N8 C9 1.321 . S
N8 Eu11 2.609 . S
C9 C7 1.400 . S
C9 N8 1.321 . S
C9 H16 0.930 . S
C10 C5 1.395 . S
C10 C7 1.386 1_556 S
C10 H29 0.930 . S
Eu11 N8 2.609 . S
Eu11 N12 2.657 1_554 S
Eu11 O45 2.380 1_554 S
Eu11 O46 2.432 1_565 S
Eu11 O50 2.558 . S
Eu11 O51 2.612 1_565 S
Eu11 O53 2.337 1_565 S
Eu11 O54 2.563 1_565 S
Eu11 O55 2.419 . S
Eu11 C75 2.848 . S
N12 C4 1.362 . S
N12 Eu11 2.657 1_556 S
N12 C13 1.334 . S
C13 N12 1.334 . S
C13 C15 1.413 . S
C13 H20 0.929 . S
C14 C2 1.392 . S
C14 C15 1.367 . S
C14 H22 0.930 . S
C15 C13 1.413 . S
C15 C14 1.367 . S
C15 H17 0.930 . S
H16 C9 0.930 . S
H17 C15 0.930 . S
H18 C6 0.930 . S
H19 C7 0.930 . S
H20 C13 0.929 . S
H21 C35 0.930 . S
H22 C14 0.930 . S
H23 C41 0.930 . S
H24 C32 0.929 . S
H25 C39 0.930 . S
H26 C3 0.931 . S
H27 C33 0.930 . S
H28 C66 0.930 . S
H29 C10 0.930 . S
H30 C65 0.931 . S
N31 Eu0 2.657 . S
N31 C32 1.334 . S
N31 C36 1.362 . S
C32 H24 0.929 . S
C32 N31 1.334 . S
C32 C35 1.413 . S
C33 H27 0.930 . S
C33 C34 1.392 . S
C33 C35 1.367 . S
C34 C33 1.392 . S
C34 C36 1.420 . S
C34 C66 1.423 . S
C35 H21 0.930 . S
C35 C32 1.413 . S
C35 C33 1.367 . S
C36 N31 1.362 . S
C36 C34 1.420 . S
C36 C40 1.429 . S
H37 C42 0.930 . S
N38 Eu0 2.609 . S
N38 C40 1.377 . S
N38 C41 1.321 . S
C39 H25 0.930 . S
C39 C41 1.400 . S
C39 C42 1.386 . S
C40 C36 1.429 . S
C40 N38 1.377 . S
C40 C43 1.411 . S
C41 H23 0.930 . S
C41 N38 1.321 . S
C41 C39 1.400 . S
C42 H37 0.930 . S
C42 C39 1.386 . S
C42 C43 1.395 . S
C43 C40 1.411 . S
C43 C42 1.395 . S
C43 C65 1.420 . S
O44 Eu0 2.558 1_556 S
O44 C64 1.257 . S
O45 Eu0 2.612 1_566 S
O45 Eu11 2.380 1_556 S
O45 C56 1.276 . S
O46 Eu11 2.432 1_545 S
O46 C63 1.264 . S
O47 Eu0 2.339 . S
O47 C63 1.254 . S
O48 Eu0 2.563 1_556 S
O48 C56 1.235 1_545 S
O49 Eu0 2.419 1_556 S
O49 C64 1.249 . S
O50 Eu11 2.558 . S
O50 C75 1.257 . S
O51 Eu0 2.380 . S
O51 Eu11 2.612 1_545 S
O51 C67 1.276 . S
O52 Eu0 2.432 . S
O52 C74 1.264 . S
O53 Eu11 2.337 1_545 S
O53 C74 1.265 . S
O54 Eu11 2.563 1_545 S
O54 C67 1.235 . S
O55 Eu11 2.419 . S
O55 C75 1.249 . S
C56 O45 1.276 . S
C56 O48 1.235 1_565 S
C57 C59 1.393 . S
C57 C61 1.395 . S
C57 C64 1.492 . S
C58 C59 1.392 . S
C58 C60 1.386 . S
C59 C57 1.393 . S
C59 C58 1.392 . S
C59 H76 0.930 . S
C60 C58 1.386 . S
C60 C62 1.395 . S
C60 H77 0.930 . S
C61 C57 1.395 . S
C61 C62 1.379 . S
C61 H78 0.930 . S
C62 C60 1.395 . S
C62 C61 1.379 . S
C62 H79 0.930 . S
C63 O46 1.264 . S
C63 O47 1.254 . S
C64 Eu0 2.848 1_556 S
C64 O44 1.257 . S
C64 O49 1.249 . S
C64 C57 1.492 . S
C65 H30 0.931 . S
C65 C43 1.420 . S
C65 C66 1.351 . S
C66 H28 0.930 . S
C66 C34 1.423 . S
C66 C65 1.351 . S
C67 O51 1.276 . S
C67 O54 1.235 . S
C68 C69 1.393 . S
C68 C72 1.395 . S
C68 C75 1.492 . S
C69 C68 1.393 . S
C69 C70 1.392 . S
C69 H80 0.930 . S
C70 C69 1.392 . S
C70 C71 1.386 . S
C71 C70 1.386 . S
C71 C73 1.395 . S
C71 H81 0.930 . S
C72 C68 1.395 . S
C72 C73 1.379 . S
C72 H82 0.930 . S
C73 C71 1.395 . S
C73 C72 1.379 . S
C73 H83 0.930 . S
C74 O52 1.264 . S
C74 O53 1.265 . S
C75 Eu11 2.848 . S
C75 O50 1.257 . S
C75 O55 1.249 . S
C75 C68 1.492 . S
H76 C59 0.930 . S
H77 C60 0.930 . S
H78 C61 0.930 . S
H79 C62 0.930 . S
H80 C69 0.930 . S
H81 C71 0.930 . S
H82 C72 0.930 . S
H83 C73 0.930 . S
Eu84 N115 2.657 1_455 S
Eu84 N122 2.609 1_455 S
Eu84 O128 2.558 1_455 S
Eu84 O129 2.612 . S
Eu84 O131 2.339 . S
Eu84 O132 2.563 . S
Eu84 O133 2.419 1_455 S
Eu84 O135 2.380 . S
Eu84 O136 2.432 . S
Eu84 C148 2.848 1_455 S
C85 C88 1.429 . S
C85 C89 1.411 . S
C85 N92 1.377 . S
C86 C88 1.420 . S
C86 C90 1.423 . S
C86 C98 1.392 . S
C87 C89 1.420 . S
C87 C90 1.351 . S
C87 H110 0.931 . S
C88 C85 1.429 . S
C88 C86 1.420 . S
C88 N96 1.362 . S
C89 C85 1.411 . S
C89 C87 1.420 . S
C89 C94 1.395 . S
C90 C86 1.423 . S
C90 C87 1.351 . S
C90 H102 0.930 . S
C91 C93 1.400 . S
C91 C94 1.386 . S
C91 H103 0.930 . S
N92 C85 1.377 . S
N92 C93 1.321 . S
N92 Eu95 2.609 . S
C93 C91 1.400 . S
C93 N92 1.321 . S
C93 H100 0.930 . S
C94 C89 1.395 . S
C94 C91 1.386 . S
C94 H113 0.930 . S
Eu95 N92 2.609 . S
Eu95 N96 2.657 . S
Eu95 O129 2.380 . S
Eu95 O130 2.432 . S
Eu95 O134 2.558 . S
Eu95 O135 2.612 . S
Eu95 O137 2.339 . S
Eu95 O138 2.563 . S
Eu95 O139 2.419 . S
Eu95 C159 2.848 . S
N96 C88 1.362 . S
N96 Eu95 2.657 . S
N96 C97 1.334 . S
C97 N96 1.334 . S
C97 C99 1.413 . S
C97 H104 0.929 . S
C98 C86 1.392 . S
C98 C99 1.367 . S
C98 H106 0.930 . S
C99 C97 1.413 . S
C99 C98 1.367 . S
C99 H101 0.930 . S
H100 C93 0.930 . S
H101 C99 0.930 . S
H102 C90 0.930 . S
H103 C91 0.930 . S
H104 C97 0.929 . S
H105 C119 0.930 . S
H106 C98 0.930 . S
H107 C125 0.930 . S
H108 C116 0.929 . S
H109 C123 0.930 . S
H110 C87 0.931 . S
H111 C117 0.930 . S
H112 C150 0.930 . S
H113 C94 0.930 . S
H114 C149 0.931 . S
N115 Eu84 2.657 1_655 S
N115 C116 1.334 . S
N115 C120 1.362 . S
C116 H108 0.929 . S
C116 N115 1.334 . S
C116 C119 1.413 . S
C117 H111 0.930 . S
C117 C118 1.392 . S
C117 C119 1.367 . S
C118 C117 1.392 . S
C118 C120 1.420 . S
C118 C150 1.423 . S
C119 H105 0.930 . S
C119 C116 1.413 . S
C119 C117 1.367 . S
C120 N115 1.362 . S
C120 C118 1.420 . S
C120 C124 1.429 . S
H121 C126 0.930 . S
N122 Eu84 2.609 1_655 S
N122 C124 1.377 . S
N122 C125 1.321 . S
C123 H109 0.930 . S
C123 C125 1.400 . S
C123 C126 1.386 . S
C124 C120 1.429 . S
C124 N122 1.377 . S
C124 C127 1.411 . S
C125 H107 0.930 . S
C125 N122 1.321 . S
C125 C123 1.400 . S
C126 H121 0.930 . S
C126 C123 1.386 . S
C126 C127 1.395 . S
C127 C124 1.411 . S
C127 C126 1.395 . S
C127 C149 1.420 . S
O128 Eu84 2.558 1_655 S
O128 C148 1.257 . S
O129 Eu84 2.612 . S
O129 Eu95 2.380 . S
O129 C140 1.276 . S
O130 Eu95 2.432 . S
O130 C147 1.264 . S
O131 Eu84 2.339 . S
O131 C147 1.254 . S
O132 Eu84 2.563 . S
O132 C140 1.235 . S
O133 Eu84 2.419 1_655 S
O133 C148 1.249 . S
O134 Eu95 2.558 . S
O134 C159 1.257 . S
O135 Eu84 2.380 . S
O135 Eu95 2.612 . S
O135 C151 1.276 . S
O136 Eu84 2.432 . S
O136 C158 1.264 . S
O137 Eu95 2.339 . S
O137 C158 1.254 . S
O138 Eu95 2.563 . S
O138 C151 1.235 . S
O139 Eu95 2.419 . S
O139 C159 1.249 . S
C140 O129 1.276 . S
C140 O132 1.235 . S
C141 C143 1.393 . S
C141 C145 1.395 . S
C141 C148 1.492 . S
C142 C143 1.392 . S
C142 C144 1.386 . S
C143 C141 1.393 . S
C143 C142 1.392 . S
C143 H160 0.930 . S
C144 C142 1.386 . S
C144 C146 1.395 . S
C144 H161 0.930 . S
C145 C141 1.395 . S
C145 C146 1.379 . S
C145 H162 0.930 . S
C146 C144 1.395 . S
C146 C145 1.379 . S
C146 H163 0.930 . S
C147 O130 1.264 . S
C147 O131 1.254 . S
C148 Eu84 2.848 1_655 S
C148 O128 1.257 . S
C148 O133 1.249 . S
C148 C141 1.492 . S
C149 H114 0.931 . S
C149 C127 1.420 . S
C149 C150 1.351 . S
C150 H112 0.930 . S
C150 C118 1.423 . S
C150 C149 1.351 . S
C151 O135 1.276 . S
C151 O138 1.235 . S
C152 C153 1.393 . S
C152 C156 1.395 . S
C152 C159 1.492 . S
C153 C152 1.393 . S
C153 C154 1.392 . S
C153 H164 0.930 . S
C154 C153 1.392 . S
C154 C155 1.386 . S
C155 C154 1.386 . S
C155 C157 1.395 . S
C155 H165 0.930 . S
C156 C152 1.395 . S
C156 C157 1.379 . S
C156 H166 0.930 . S
C157 C155 1.395 . S
C157 C156 1.379 . S
C157 H167 0.930 . S
C158 O136 1.264 . S
C158 O137 1.254 . S
C159 Eu95 2.848 . S
C159 O134 1.257 . S
C159 O139 1.249 . S
C159 C152 1.492 . S
H160 C143 0.930 . S
H161 C144 0.930 . S
H162 C145 0.930 . S
H163 C146 0.930 . S
H164 C153 0.930 . S
H165 C155 0.930 . S
H166 C156 0.930 . S
H167 C157 0.930 . S
Eu168 N199 2.657 . S
Eu168 N206 2.609 . S
Eu168 O212 2.558 1_554 S
Eu168 O213 2.612 1_554 S
Eu168 O215 2.339 . S
Eu168 O216 2.563 1_554 S
Eu168 O217 2.419 1_554 S
Eu168 O219 2.380 . S
Eu168 O220 2.432 . S
Eu168 C232 2.848 1_554 S
C169 C172 1.429 . S
C169 C173 1.411 1_655 S
C169 N176 1.371 1_565 S
C170 C172 1.420 . S
C170 C174 1.423 . S
C170 C182 1.392 . S
C171 C173 1.420 . S
C171 C174 1.351 1_455 S
C171 H194 0.931 . S
C172 C169 1.429 . S
C172 C170 1.420 . S
C172 N180 1.362 1_565 S
C173 C169 1.411 1_455 S
C173 C171 1.420 . S
C173 C178 1.395 . S
C174 C170 1.423 . S
C174 C171 1.351 1_655 S
C174 H186 0.930 . S
C175 C177 1.400 1_556 S
C175 C178 1.386 . S
C175 H187 0.930 1_556 S
N176 C169 1.371 1_545 S
N176 C177 1.322 1_646 S
N176 Eu179 2.614 1_556 S
C177 C175 1.400 1_554 S
C177 N176 1.322 1_464 S
C177 H184 0.930 1_565 S
C178 C173 1.395 . S
C178 C175 1.386 . S
C178 H197 0.930 . S
Eu179 N176 2.614 1_554 S
Eu179 N180 2.657 1_554 S
Eu179 O213 2.380 1_554 S
Eu179 O214 2.432 1_655 S
Eu179 O218 2.558 . S
Eu179 O219 2.612 . S
Eu179 O221 2.339 . S
Eu179 O222 2.563 . S
Eu179 O223 2.419 . S
Eu179 C243 2.848 . S
N180 C172 1.362 1_545 S
N180 Eu179 2.657 1_556 S
N180 C181 1.334 . S
C181 N180 1.334 . S
C181 C183 1.413 1_545 S
C181 H188 0.929 . S
C182 C170 1.392 . S
C182 C183 1.367 . S
C182 H190 0.930 . S
C183 C181 1.413 1_565 S
C183 C182 1.367 . S
C183 H185 0.930 . S
H184 C177 0.930 1_545 S
H185 C183 0.930 . S
H186 C174 0.930 . S
H187 C175 0.930 1_554 S
H188 C181 0.929 . S
H189 C203 0.930 1_455 S
H190 C182 0.930 . S
H191 C209 0.930 . S
H192 C200 0.929 . S
H193 C207 0.930 . S
H194 C171 0.931 . S
H195 C201 0.930 . S
H196 C234 0.930 . S
H197 C178 0.930 . S
H198 C233 0.931 . S
N199 Eu168 2.657 . S
N199 C200 1.334 . S
N199 C204 1.362 . S
C200 H192 0.929 . S
C200 N199 1.334 . S
C200 C203 1.413 . S
C201 H195 0.930 . S
C201 C202 1.392 . S
C201 C203 1.367 . S
C202 C201 1.392 . S
C202 C204 1.420 . S
C202 C234 1.423 . S
C203 H189 0.930 1_655 S
C203 C200 1.413 . S
C203 C201 1.367 . S
C204 N199 1.362 . S
C204 C202 1.420 . S
C204 C208 1.429 . S
H205 C210 0.930 . S
N206 Eu168 2.609 . S
N206 C208 1.377 . S
N206 C209 1.321 . S
C207 H193 0.930 . S
C207 C209 1.400 . S
C207 C210 1.386 . S
C208 C204 1.429 . S
C208 N206 1.377 . S
C208 C211 1.411 . S
C209 H191 0.930 . S
C209 N206 1.321 . S
C209 C207 1.400 . S
C210 H205 0.930 . S
C210 C207 1.386 . S
C210 C211 1.395 . S
C211 C208 1.411 . S
C211 C210 1.395 . S
C211 C233 1.420 . S
O212 Eu168 2.558 1_556 S
O212 C232 1.257 . S
O213 Eu168 2.612 1_556 S
O213 Eu179 2.380 1_556 S
O213 C224 1.276 . S
O214 Eu179 2.432 1_455 S
O214 C231 1.264 . S
O215 Eu168 2.339 . S
O215 C231 1.254 1_655 S
O216 Eu168 2.563 1_556 S
O216 C224 1.235 . S
O217 Eu168 2.419 1_556 S
O217 C232 1.249 . S
O218 Eu179 2.558 . S
O218 C243 1.257 . S
O219 Eu168 2.380 . S
O219 Eu179 2.612 . S
O219 C235 1.276 . S
O220 Eu168 2.432 . S
O220 C242 1.264 . S
O221 Eu179 2.339 . S
O221 C242 1.254 . S
O222 Eu179 2.563 . S
O222 C235 1.235 . S
O223 Eu179 2.419 . S
O223 C243 1.249 . S
C224 O213 1.276 . S
C224 O216 1.235 . S
C225 C227 1.393 . S
C225 C229 1.395 . S
C225 C232 1.492 . S
C226 C227 1.392 . S
C226 C228 1.386 . S
C227 C225 1.393 . S
C227 C226 1.392 . S
C227 H244 0.930 . S
C228 C226 1.386 . S
C228 C230 1.395 . S
C228 H245 0.930 . S
C229 C225 1.395 . S
C229 C230 1.379 . S
C229 H246 0.930 . S
C230 C228 1.395 . S
C230 C229 1.379 . S
C230 H247 0.930 . S
C231 O214 1.264 . S
C231 O215 1.254 1_455 S
C232 Eu168 2.848 1_556 S
C232 O212 1.257 . S
C232 O217 1.249 . S
C232 C225 1.492 . S
C233 H198 0.931 . S
C233 C211 1.420 . S
C233 C234 1.351 . S
C234 H196 0.930 . S
C234 C202 1.423 . S
C234 C233 1.351 . S
C235 O219 1.276 . S
C235 O222 1.235 . S
C236 C237 1.393 . S
C236 C240 1.395 1_545 S
C236 C243 1.492 . S
C237 C236 1.393 . S
C237 C238 1.392 1_545 S
C237 H248 0.930 . S
C238 C237 1.392 1_565 S
C238 C239 1.386 . S
C239 C238 1.386 . S
C239 C241 1.395 1_655 S
C239 H249 0.930 . S
C240 C236 1.395 1_565 S
C240 C241 1.379 1_655 S
C240 H250 0.930 1_655 S
C241 C239 1.395 1_455 S
C241 C240 1.379 1_455 S
C241 H251 0.930 . S
C242 O220 1.264 . S
C242 O221 1.254 . S
C243 Eu179 2.848 . S
C243 O218 1.257 . S
C243 O223 1.249 . S
C243 C236 1.492 . S
H244 C227 0.930 . S
H245 C228 0.930 . S
H246 C229 0.930 . S
H247 C230 0.930 . S
H248 C237 0.930 . S
H249 C239 0.930 . S
H250 C240 0.930 1_455 S
H251 C241 0.930 . S
Eu252 N283 2.657 . S
Eu252 N290 2.609 1_565 S
Eu252 O296 2.558 1_565 S
Eu252 O297 2.612 1_655 S
Eu252 O299 2.339 1_655 S
Eu252 O300 2.563 1_655 S
Eu252 O301 2.419 . S
Eu252 O303 2.380 1_655 S
Eu252 O304 2.432 1_665 S
Eu252 C316 2.848 1_565 S
C253 C256 1.429 . S
C253 C257 1.411 . S
C253 N260 1.377 . S
C254 C256 1.420 . S
C254 C258 1.423 . S
C254 C266 1.392 . S
C255 C257 1.420 . S
C255 C258 1.351 . S
C255 H278 0.931 . S
C256 C253 1.429 . S
C256 C254 1.420 . S
C256 N264 1.362 . S
C257 C253 1.411 . S
C257 C255 1.420 . S
C257 C262 1.395 . S
C258 C254 1.423 . S
C258 C255 1.351 . S
C258 H270 0.930 . S
C259 C261 1.400 . S
C259 C262 1.386 . S
C259 H271 0.930 . S
N260 C253 1.377 . S
N260 C261 1.321 . S
N260 Eu263 2.609 . S
C261 C259 1.400 . S
C261 N260 1.321 . S
C261 H268 0.930 . S
C262 C257 1.395 . S
C262 C259 1.386 . S
C262 H281 0.930 . S
Eu263 N260 2.609 . S
Eu263 N264 2.657 . S
Eu263 O297 2.380 . S
Eu263 O298 2.432 . S
Eu263 O302 2.558 . S
Eu263 O303 2.612 . S
Eu263 O305 2.339 . S
Eu263 O306 2.563 . S
Eu263 O307 2.419 . S
Eu263 C327 2.848 . S
N264 C256 1.362 . S
N264 Eu263 2.657 . S
N264 C265 1.334 . S
C265 N264 1.334 . S
C265 C267 1.413 . S
C265 H272 0.929 1_565 S
C266 C254 1.392 . S
C266 C267 1.367 . S
C266 H274 0.930 . S
C267 C265 1.413 . S
C267 C266 1.367 . S
C267 H269 0.930 1_565 S
H268 C261 0.930 . S
H269 C267 0.930 1_545 S
H270 C258 0.930 . S
H271 C259 0.930 . S
H272 C265 0.929 1_545 S
H273 C287 0.930 . S
H274 C266 0.930 . S
H275 C293 0.930 . S
H276 C284 0.929 . S
H277 C291 0.930 . S
H278 C255 0.931 . S
H279 C285 0.930 . S
H280 C318 0.930 . S
H281 C262 0.930 . S
H282 C317 0.931 . S
N283 Eu252 2.657 . S
N283 C284 1.334 . S
N283 C288 1.362 . S
C284 H276 0.929 . S
C284 N283 1.334 . S
C284 C287 1.413 . S
C285 H279 0.930 . S
C285 C286 1.392 . S
C285 C287 1.367 . S
C286 C285 1.392 . S
C286 C288 1.420 . S
C286 C318 1.423 1_565 S
C287 H273 0.930 . S
C287 C284 1.413 . S
C287 C285 1.367 . S
C288 N283 1.362 . S
C288 C286 1.420 . S
C288 C292 1.429 1_565 S
H289 C294 0.930 . S
N290 Eu252 2.609 1_545 S
N290 C292 1.377 . S
N290 C293 1.321 . S
C291 H277 0.930 . S
C291 C293 1.400 . S
C291 C294 1.386 . S
C292 C288 1.429 1_545 S
C292 N290 1.377 . S
C292 C295 1.411 . S
C293 H275 0.930 . S
C293 N290 1.321 . S
C293 C291 1.400 . S
C294 H289 0.930 . S
C294 C291 1.386 . S
C294 C295 1.395 . S
C295 C292 1.411 . S
C295 C294 1.395 . S
C295 C317 1.420 . S
O296 Eu252 2.558 1_545 S
O296 C316 1.257 . S
O297 Eu252 2.612 1_455 S
O297 Eu263 2.380 . S
O297 C308 1.276 . S
O298 Eu263 2.432 . S
O298 C315 1.264 . S
O299 Eu252 2.339 1_455 S
O299 C315 1.254 . S
O300 Eu252 2.563 1_455 S
O300 C308 1.235 . S
O301 Eu252 2.419 . S
O301 C316 1.249 1_565 S
O302 Eu263 2.558 . S
O302 C327 1.257 . S
O303 Eu252 2.380 1_455 S
O303 Eu263 2.612 . S
O303 C319 1.276 . S
O304 Eu252 2.432 1_445 S
O304 C326 1.264 . S
O305 Eu263 2.339 . S
O305 C326 1.254 1_565 S
O306 Eu263 2.563 . S
O306 C319 1.235 . S
O307 Eu263 2.419 . S
O307 C327 1.249 . S
C308 O297 1.276 . S
C308 O300 1.235 . S
C309 C311 1.393 1_545 S
C309 C313 1.395 . S
C309 C316 1.492 . S
C310 C311 1.392 . S
C310 C312 1.386 1_565 S
C311 C309 1.393 1_565 S
C311 C310 1.392 . S
C311 H328 0.930 . S
C312 C310 1.386 1_545 S
C312 C314 1.395 . S
C312 H329 0.930 . S
C313 C309 1.395 . S
C313 C314 1.379 . S
C313 H330 0.930 . S
C314 C312 1.395 . S
C314 C313 1.379 . S
C314 H331 0.930 . S
C315 O298 1.264 . S
C315 O299 1.254 . S
C316 Eu252 2.848 1_545 S
C316 O296 1.257 . S
C316 O301 1.249 1_545 S
C316 C309 1.492 . S
C317 H282 0.931 . S
C317 C295 1.420 . S
C317 C318 1.351 . S
C318 H280 0.930 . S
C318 C286 1.423 1_545 S
C318 C317 1.351 . S
C319 O303 1.276 . S
C319 O306 1.235 . S
C320 C321 1.393 . S
C320 C324 1.395 . S
C320 C327 1.492 . S
C321 C320 1.393 . S
C321 C322 1.392 . S
C321 H332 0.930 . S
C322 C321 1.392 . S
C322 C323 1.386 . S
C323 C322 1.386 . S
C323 C325 1.395 . S
C323 H333 0.930 . S
C324 C320 1.395 . S
C324 C325 1.379 . S
C324 H334 0.930 . S
C325 C323 1.395 . S
C325 C324 1.379 . S
C325 H335 0.930 . S
C326 O304 1.264 . S
C326 O305 1.254 1_545 S
C327 Eu263 2.848 . S
C327 O302 1.257 . S
C327 O307 1.249 . S
C327 C320 1.492 . S
H328 C311 0.930 . S
H329 C312 0.930 . S
H330 C313 0.930 . S
H331 C314 0.930 . S
H332 C321 0.930 . S
H333 C323 0.930 . S
H334 C324 0.930 . S
H335 C325 0.930 . S
C336 C337 1.369 . S
C336 C338 1.419 . S
C336 H340 0.930 . S
C337 C336 1.369 . S
C337 C346 1.429 . S
C338 C336 1.419 . S
C338 C339 1.363 . S
C338 H341 0.929 . S
C339 C338 1.363 . S
C339 C345 1.428 . S
H340 C336 0.930 . S
H341 C338 0.929 . S
S342 N343 1.613 . S
S342 N344 1.610 . S
N343 S342 1.613 . S
N343 C346 1.350 . S
N344 S342 1.610 . S
N344 C345 1.351 . S
C345 C339 1.428 . S
C345 N344 1.351 . S
C345 C346 1.434 . S
C346 C337 1.429 . S
C346 N343 1.350 . S
C346 C345 1.434 . S
C347 C348 1.369 . S
C347 C349 1.419 . S
C347 H351 0.930 . S
C348 C347 1.369 . S
C348 C357 1.429 . S
C349 C347 1.419 . S
C349 C350 1.363 . S
C349 H352 0.929 . S
C350 C349 1.363 . S
C350 C356 1.428 . S
H351 C347 0.930 . S
H352 C349 0.929 . S
S353 N354 1.613 . S
S353 N355 1.610 1_565 S
N354 S353 1.613 . S
N354 C357 1.350 1_565 S
N355 S353 1.610 1_545 S
N355 C356 1.351 . S
C356 C350 1.428 . S
C356 N355 1.351 . S
C356 C357 1.434 . S
C357 C348 1.429 . S
C357 N354 1.350 1_545 S
C357 C356 1.434 . S
C358 C359 1.369 . S
C358 C360 1.419 . S
C358 H362 0.930 . S
C359 C358 1.369 . S
C359 C368 1.429 . S
C360 C358 1.419 . S
C360 C361 1.363 . S
C360 H363 0.929 . S
C361 C360 1.363 . S
C361 C367 1.428 . S
H362 C358 0.930 . S
H363 C360 0.929 . S
S364 N365 1.613 . S
S364 N366 1.610 . S
N365 S364 1.613 . S
N365 C368 1.350 1_556 S
N366 S364 1.610 . S
N366 C367 1.351 1_556 S
C367 C361 1.428 . S
C367 N366 1.351 1_554 S
C367 C368 1.434 . S
C368 C359 1.429 . S
C368 N365 1.350 1_554 S
C368 C367 1.434 . S
C369 C370 1.369 . S
C369 C371 1.419 . S
C369 H373 0.930 . S
C370 C369 1.369 . S
C370 C379 1.429 . S
C371 C369 1.419 . S
C371 C372 1.363 . S
C371 H374 0.929 1_455 S
C372 C371 1.363 . S
C372 C378 1.428 . S
H373 C369 0.930 . S
H374 C371 0.929 1_655 S
S375 N376 1.613 . S
S375 N377 1.610 . S
N376 S375 1.613 . S
N376 C379 1.350 . S
N377 S375 1.610 . S
N377 C378 1.351 . S
C378 C372 1.428 . S
C378 N377 1.351 . S
C378 C379 1.434 . S
C379 C370 1.429 . S
C379 N376 1.350 . S
C379 C378 1.434 . S
C380 C381 1.369 . S
C380 C382 1.419 . S
C380 H384 0.930 . S
C381 C380 1.369 . S
C381 C390 1.429 . S
C382 C380 1.419 . S
C382 C383 1.363 . S
C382 H385 0.929 . S
C383 C382 1.363 . S
C383 C389 1.428 . S
H384 C380 0.930 . S
H385 C382 0.929 . S
S386 N387 1.613 . S
S386 N388 1.610 . S
N387 S386 1.613 . S
N387 C390 1.350 . S
N388 S386 1.610 . S
N388 C389 1.351 . S
C389 C383 1.428 . S
C389 N388 1.351 . S
C389 C390 1.434 . S
C390 C381 1.429 . S
C390 N387 1.350 . S
C390 C389 1.434 . S
C391 C392 1.369 1_455 S
C391 C393 1.417 1_455 S
C391 H395 0.930 . S
C392 C391 1.369 1_655 S
C392 C401 1.429 . S
C393 C391 1.417 1_655 S
C393 C394 1.366 . S
C393 H396 0.928 1_655 S
C394 C393 1.366 . S
C394 C400 1.428 . S
H395 C391 0.930 . S
H396 C393 0.928 1_455 S
S397 N398 1.613 . S
S397 N399 1.610 . S
N398 S397 1.613 . S
N398 C401 1.350 . S
N399 S397 1.610 . S
N399 C400 1.351 . S
C400 C394 1.428 . S
C400 N399 1.351 . S
C400 C401 1.434 . S
C401 C392 1.429 . S
C401 N398 1.350 . S
C401 C400 1.434 . S
C402 C403 1.369 . S
C402 C404 1.419 . S
C402 H406 0.930 . S
C403 C402 1.369 . S
C403 C412 1.429 . S
C404 C402 1.419 . S
C404 C405 1.363 . S
C404 H407 0.929 . S
C405 C404 1.363 . S
C405 C411 1.428 . S
H406 C402 0.930 . S
H407 C404 0.929 . S
S408 N409 1.613 . S
S408 N410 1.610 . S
N409 S408 1.613 . S
N409 C412 1.350 1_455 S
N410 S408 1.610 . S
N410 C411 1.351 1_455 S
C411 C405 1.428 . S
C411 N410 1.351 1_655 S
C411 C412 1.434 . S
C412 C403 1.429 . S
C412 N409 1.350 1_655 S
C412 C411 1.434 . S
C413 C414 1.369 . S
C413 C415 1.419 . S
C413 H417 0.930 . S
C414 C413 1.369 . S
C414 C423 1.429 . S
C415 C413 1.419 . S
C415 C416 1.363 . S
C415 H418 0.929 . S
C416 C415 1.363 . S
C416 C422 1.428 . S
H417 C413 0.930 . S
H418 C415 0.929 . S
S419 N420 1.613 . S
S419 N421 1.610 . S
N420 S419 1.613 . S
N420 C423 1.350 1_545 S
N421 S419 1.610 . S
N421 C422 1.351 1_545 S
C422 C416 1.428 . S
C422 N421 1.351 1_565 S
C422 C423 1.434 . S
C423 C414 1.429 . S
C423 N420 1.350 1_565 S
C423 C422 1.434 . S
C424 C425 1.369 . S
C424 C426 1.419 . S
C424 H428 0.930 . S
C425 C424 1.369 . S
C425 C434 1.429 . S
C426 C424 1.419 . S
C426 C427 1.363 1_545 S
C426 H429 0.929 . S
C427 C426 1.363 1_565 S
C427 C433 1.428 . S
H428 C424 0.930 . S
H429 C426 0.929 . S
S430 N431 1.613 1_565 S
S430 N432 1.610 . S
N431 S430 1.613 1_545 S
N431 C434 1.350 . S
N432 S430 1.610 . S
N432 C433 1.351 . S
C433 C427 1.428 . S
C433 N432 1.351 . S
C433 C434 1.434 1_565 S
C434 C425 1.429 . S
C434 N431 1.350 . S
C434 C433 1.434 1_545 S
C435 C436 1.369 . S
C435 C437 1.419 . S
C435 H439 0.930 . S
C436 C435 1.369 . S
C436 C445 1.429 . S
C437 C435 1.419 . S
C437 C438 1.363 . S
C437 H440 0.929 . S
C438 C437 1.363 . S
C438 C444 1.428 . S
H439 C435 0.930 . S
H440 C437 0.929 . S
S441 N442 1.613 . S
S441 N443 1.610 . S
N442 S441 1.613 . S
N442 C445 1.350 . S
N443 S441 1.610 . S
N443 C444 1.351 . S
C444 C438 1.428 . S
C444 N443 1.351 . S
C444 C445 1.434 . S
C445 C436 1.429 . S
C445 N442 1.350 . S
C445 C444 1.434 . S
C446 C447 1.369 . S
C446 C448 1.419 . S
C446 H450 0.930 . S
C447 C446 1.369 . S
C447 C456 1.429 . S
C448 C446 1.419 . S
C448 C449 1.363 . S
C448 H451 0.929 . S
C449 C448 1.363 . S
C449 C455 1.428 . S
H450 C446 0.930 . S
H451 C448 0.929 . S
S452 N453 1.613 . S
S452 N454 1.610 . S
N453 S452 1.613 . S
N453 C456 1.350 . S
N454 S452 1.610 . S
N454 C455 1.351 . S
C455 C449 1.428 . S
C455 N454 1.351 . S
C455 C456 1.434 . S
C456 C447 1.429 . S
C456 N453 1.350 . S
C456 C455 1.434 . S
C457 C458 1.369 . S
C457 C459 1.419 . S
C457 H461 0.930 . S
C458 C457 1.369 . S
C458 C467 1.429 . S
C459 C457 1.419 . S
C459 C460 1.363 . S
C459 H462 0.929 . S
C460 C459 1.363 . S
C460 C466 1.428 . S
H461 C457 0.930 . S
H462 C459 0.929 . S
S463 N464 1.613 1_455 S
S463 N465 1.610 . S
N464 S463 1.613 1_655 S
N464 C467 1.350 . S
N465 S463 1.610 . S
N465 C466 1.351 1_455 S
C466 C460 1.428 . S
C466 N465 1.351 1_655 S
C466 C467 1.434 . S
C467 C458 1.429 . S
C467 N464 1.350 . S
C467 C466 1.434 . S
C337 C231 1.094 . S
C339 C74 1.076 . S
C348 C326 0.939 . S
C350 C158 0.946 . S
C359 C242 1.440 . S
C361 C63 1.432 . S
C370 C147 0.951 . S
C372 C315 0.965 . S
C381 C140 3.033 . S
C383 C67 3.069 . S
C392 C151 3.066 1_655 S
C394 C226 3.114 . S
C403 C319 2.525 1_655 S
C405 C238 2.213 . S
C414 C308 2.741 . S
C416 C56 2.488 . S
C425 C224 1.012 . S
C427 C310 0.771 . S
C436 C70 0.667 . S
C438 C322 0.698 . S
C447 C154 0.598 . S
C449 C58 0.893 . S
C458 C235 0.688 . S
C460 C142 0.776 . S
