# Generated by pormake.
# Topology crr, (4)-cn, num edge types: 1
# Building blocks:
#     Node 0, Type 0, BuildingBlock: NAWXER_clean_sbu_0, # of connection points: 4
#     Node 1, Type 0, BuildingBlock: NAWXER_clean_sbu_0, # of connection points: 4
#     Node 2, Type 0, BuildingBlock: NAWXER_clean_sbu_0, # of connection points: 4
#     Node 3, Type 0, BuildingBlock: NAWXER_clean_sbu_0, # of connection points: 4
#     Node 4, Type 0, BuildingBlock: NAWXER_clean_sbu_0, # of connection points: 4
#     Node 5, Type 0, BuildingBlock: NAWXER_clean_sbu_0, # of connection points: 4
#     Node 6, Type 0, BuildingBlock: NAWXER_clean_sbu_0, # of connection points: 4
#     Node 7, Type 0, BuildingBlock: NAWXER_clean_sbu_0, # of connection points: 4
#     Node 8, Type 0, BuildingBlock: NAWXER_clean_sbu_0, # of connection points: 4
#     Node 9, Type 0, BuildingBlock: NAWXER_clean_sbu_0, # of connection points: 4
#     Node 10, Type 0, BuildingBlock: NAWXER_clean_sbu_0, # of connection points: 4
#     Node 11, Type 0, BuildingBlock: NAWXER_clean_sbu_0, # of connection points: 4
#     Edge 12, Type (0, 0), BuildingBlock: TEMPAE_clean_linker_10, # of connection points: 2
#     Edge 13, Type (0, 0), BuildingBlock: TEMPAE_clean_linker_10, # of connection points: 2
#     Edge 14, Type (0, 0), BuildingBlock: TEMPAE_clean_linker_10, # of connection points: 2
#     Edge 15, Type (0, 0), BuildingBlock: TEMPAE_clean_linker_10, # of connection points: 2
#     Edge 16, Type (0, 0), BuildingBlock: TEMPAE_clean_linker_10, # of connection points: 2
#     Edge 17, Type (0, 0), BuildingBlock: TEMPAE_clean_linker_10, # of connection points: 2
#     Edge 18, Type (0, 0), BuildingBlock: TEMPAE_clean_linker_10, # of connection points: 2
#     Edge 19, Type (0, 0), BuildingBlock: TEMPAE_clean_linker_10, # of connection points: 2
#     Edge 20, Type (0, 0), BuildingBlock: TEMPAE_clean_linker_10, # of connection points: 2
#     Edge 21, Type (0, 0), BuildingBlock: TEMPAE_clean_linker_10, # of connection points: 2
#     Edge 22, Type (0, 0), BuildingBlock: TEMPAE_clean_linker_10, # of connection points: 2
#     Edge 23, Type (0, 0), BuildingBlock: TEMPAE_clean_linker_10, # of connection points: 2
#     Edge 24, Type (0, 0), BuildingBlock: TEMPAE_clean_linker_10, # of connection points: 2
#     Edge 25, Type (0, 0), BuildingBlock: TEMPAE_clean_linker_10, # of connection points: 2
#     Edge 26, Type (0, 0), BuildingBlock: TEMPAE_clean_linker_10, # of connection points: 2
#     Edge 27, Type (0, 0), BuildingBlock: TEMPAE_clean_linker_10, # of connection points: 2
#     Edge 28, Type (0, 0), BuildingBlock: TEMPAE_clean_linker_10, # of connection points: 2
#     Edge 29, Type (0, 0), BuildingBlock: TEMPAE_clean_linker_10, # of connection points: 2
#     Edge 30, Type (0, 0), BuildingBlock: TEMPAE_clean_linker_10, # of connection points: 2
#     Edge 31, Type (0, 0), BuildingBlock: TEMPAE_clean_linker_10, # of connection points: 2
#     Edge 32, Type (0, 0), BuildingBlock: TEMPAE_clean_linker_10, # of connection points: 2
#     Edge 33, Type (0, 0), BuildingBlock: TEMPAE_clean_linker_10, # of connection points: 2
#     Edge 34, Type (0, 0), BuildingBlock: TEMPAE_clean_linker_10, # of connection points: 2
#     Edge 35, Type (0, 0), BuildingBlock: TEMPAE_clean_linker_10, # of connection points: 2
# Relax obj value: 0.065
# Max RMSD: 0.110
# Mean RMSD: 0.110
data_MOF--net-crr--node1-NAWXER_clean_sbu_0--edge1-TEMPAE_clean_linker_10
_symmetry_space_group_name_H-M    P1
_symmetry_Int_Tables_number       1
_symmetry_cell_setting            triclinic
loop_
_symmetry_equiv_pos_as_xyz
'x, y, z'
_cell_length_a     40.39616
_cell_length_b     40.405638
_cell_length_c     40.39343
_cell_angle_alpha  89.81113
_cell_angle_beta   89.974615
_cell_angle_gamma 89.769963
loop_
_atom_site_label
_atom_site_type_symbol
_atom_site_fract_x
_atom_site_fract_y
_atom_site_fract_z
_atom_type_partial_charge
C0 C 0.11449 0.32842 0.43866 0.0
C1 C 0.14875 0.36515 0.32826 0.0
O2 O 0.13467 0.35182 0.43267 0.0
Zn3 Zn 0.13075 0.35019 0.38451 0.0
O4 O 0.09945 0.31412 0.4148 0.0
Zn5 Zn 0.0968 0.31549 0.36227 0.0
O6 O 0.11158 0.27035 0.35268 0.0
O7 O 0.15062 0.30232 0.37381 0.0
O8 O 0.1263 0.34285 0.32813 0.0
O9 O 0.15811 0.3774 0.35571 0.0
O10 O 0.08224 0.36911 0.37703 0.0
O11 O 0.05148 0.331 0.35338 0.0
C12 C 0.1414 0.27445 0.36209 0.0
C13 C 0.0543 0.35996 0.36531 0.0
C14 C 0.353 0.84902 0.68818 0.0
C15 C 0.35199 0.89696 0.57615 0.0
O16 O 0.33449 0.87462 0.68517 0.0
Zn17 Zn 0.31843 0.90829 0.64786 0.0
O18 O 0.3683 0.8378 0.66302 0.0
Zn19 Zn 0.35306 0.87111 0.63124 0.0
O20 O 0.37404 0.91557 0.64962 0.0
O21 O 0.33444 0.94999 0.6653 0.0
O22 O 0.3687 0.87186 0.58563 0.0
O23 O 0.33281 0.91168 0.59676 0.0
O24 O 0.27142 0.8989 0.64608 0.0
O25 O 0.30254 0.85854 0.62594 0.0
C26 C 0.36509 0.94352 0.66161 0.0
C27 C 0.274 0.87061 0.63259 0.0
C28 C 0.89747 0.55349 0.36323 0.0
C29 C 0.8279 0.6536 0.3675 0.0
O30 O 0.91209 0.57984 0.35329 0.0
Zn31 Zn 0.90216 0.63179 0.34889 0.0
O32 O 0.86813 0.5555 0.37456 0.0
Zn33 Zn 0.86184 0.60304 0.36823 0.0
O34 O 0.86386 0.60828 0.31538 0.0
O35 O 0.9068 0.63959 0.30195 0.0
O36 O 0.81957 0.62508 0.37805 0.0
O37 O 0.85727 0.6584 0.3567 0.0
O38 O 0.93237 0.65247 0.37984 0.0
O39 O 0.89314 0.62397 0.40473 0.0
C40 C 0.88158 0.62285 0.29344 0.0
C41 C 0.91878 0.6424 0.40639 0.0
C42 C 0.59144 0.18069 0.63582 0.0
C43 C 0.60158 0.0817 0.5688 0.0
O44 O 0.60127 0.15548 0.65245 0.0
Zn45 Zn 0.61446 0.10495 0.64371 0.0
O46 O 0.58724 0.1787 0.60473 0.0
Zn47 Zn 0.59873 0.13228 0.60156 0.0
O48 O 0.56022 0.10878 0.63016 0.0
O49 O 0.58364 0.08318 0.67262 0.0
O50 O 0.59462 0.11096 0.55948 0.0
O51 O 0.60963 0.07623 0.59907 0.0
O52 O 0.66102 0.1041 0.65506 0.0
O53 O 0.65086 0.13337 0.61001 0.0
C54 C 0.55771 0.09112 0.65653 0.0
C55 C 0.6714 0.12206 0.63142 0.0
C56 C 0.09424 0.64326 0.72968 0.0
C57 C 0.03524 0.65338 0.62427 0.0
O58 O 0.10833 0.62847 0.70555 0.0
Zn59 Zn 0.10191 0.6215 0.65416 0.0
O60 O 0.06768 0.65963 0.72501 0.0
Zn61 Zn 0.06319 0.65 0.67783 0.0
O62 O 0.05578 0.59755 0.67651 0.0
O63 O 0.09805 0.57404 0.65076 0.0
O64 O 0.0258 0.66603 0.65157 0.0
O65 O 0.06244 0.63704 0.62303 0.0
O66 O 0.13978 0.6446 0.63578 0.0
O67 O 0.10213 0.67824 0.65703 0.0
C68 C 0.0703 0.57153 0.66549 0.0
C69 C 0.12962 0.67378 0.64193 0.0
C70 C 0.65159 0.97443 0.31693 0.0
C71 C 0.69734 0.86527 0.34563 0.0
O72 O 0.6302 0.95124 0.31904 0.0
Zn73 Zn 0.62716 0.90006 0.33073 0.0
O74 O 0.68209 0.96812 0.32196 0.0
Zn75 Zn 0.67626 0.92076 0.33088 0.0
O76 O 0.66017 0.90109 0.2844 0.0
O77 O 0.60934 0.882 0.29029 0.0
O78 O 0.71342 0.8921 0.34216 0.0
O79 O 0.6658 0.86553 0.34212 0.0
O80 O 0.60049 0.90225 0.37113 0.0
O81 O 0.65024 0.92394 0.37633 0.0
C82 C 0.63456 0.88707 0.27207 0.0
C83 C 0.62197 0.91695 0.38876 0.0
C84 C 0.89996 0.29221 0.72502 0.0
C85 C 0.97235 0.2789 0.62916 0.0
O86 O 0.88936 0.30664 0.69885 0.0
Zn87 Zn 0.90383 0.31385 0.64879 0.0
O88 O 0.92728 0.27647 0.72467 0.0
Zn89 Zn 0.93649 0.28392 0.6778 0.0
O90 O 0.94763 0.33585 0.67664 0.0
O91 O 0.91009 0.36094 0.6457 0.0
O92 O 0.97654 0.26599 0.65763 0.0
O93 O 0.94629 0.2961 0.62336 0.0
O94 O 0.86731 0.29462 0.6259 0.0
O95 O 0.89609 0.2577 0.65445 0.0
C96 C 0.93609 0.36235 0.66335 0.0
C97 C 0.8713 0.26501 0.63587 0.0
C98 C 0.46512 0.10718 0.36363 0.0
C99 C 0.34769 0.13734 0.37363 0.0
O100 O 0.45347 0.13028 0.38156 0.0
Zn101 Zn 0.40685 0.12265 0.37097 0.0
O102 O 0.44569 0.08935 0.34622 0.0
Zn103 Zn 0.39435 0.08532 0.33506 0.0
O104 O 0.39356 0.09716 0.288 0.0
O105 O 0.40434 0.1393 0.32106 0.0
O106 O 0.35341 0.11379 0.3532 0.0
O107 O 0.37154 0.14928 0.39034 0.0
O108 O 0.39776 0.07451 0.39102 0.0
O109 O 0.38424 0.04066 0.35052 0.0
C110 C 0.39931 0.12784 0.29204 0.0
C111 C 0.38949 0.04555 0.38119 0.0
C112 C 0.36663 0.44632 0.1227 0.0
C113 C 0.39464 0.33195 0.15279 0.0
O114 O 0.38794 0.43763 0.14425 0.0
Zn115 Zn 0.38379 0.38997 0.13723 0.0
O116 O 0.35227 0.42447 0.10496 0.0
Zn117 Zn 0.35135 0.37208 0.09908 0.0
O118 O 0.30484 0.36406 0.1084 0.0
O119 O 0.33357 0.38119 0.15181 0.0
O120 O 0.37435 0.3344 0.12851 0.0
O121 O 0.40698 0.3581 0.16513 0.0
O122 O 0.40674 0.38368 0.09028 0.0
O123 O 0.3698 0.36497 0.05495 0.0
C124 C 0.30625 0.37171 0.13893 0.0
C125 C 0.39924 0.37419 0.06102 0.0
C126 C 0.28211 0.63603 0.88617 0.0
C127 C 0.39275 0.65154 0.93291 0.0
O128 O 0.28294 0.65718 0.9097 0.0
Zn129 Zn 0.31844 0.67944 0.94149 0.0
O130 O 0.30863 0.62148 0.87725 0.0
Zn131 Zn 0.33849 0.64267 0.9081 0.0
O132 O 0.32342 0.62469 0.95509 0.0
O133 O 0.30469 0.66566 0.98602 0.0
O134 O 0.38534 0.63146 0.90984 0.0
O135 O 0.37027 0.67018 0.94536 0.0
O136 O 0.31689 0.72552 0.92651 0.0
O137 O 0.33953 0.69181 0.8898 0.0
C138 C 0.31185 0.6351 0.98269 0.0
C139 C 0.33067 0.7209 0.89855 0.0
C140 C 0.67163 0.72935 0.09059 0.0
C141 C 0.69395 0.63153 0.02304 0.0
O142 O 0.66092 0.70224 0.10287 0.0
Zn143 Zn 0.65846 0.65154 0.09128 0.0
O144 O 0.68579 0.72947 0.06245 0.0
Zn145 Zn 0.68396 0.68158 0.05519 0.0
O146 O 0.63269 0.67319 0.04552 0.0
O147 O 0.61158 0.6431 0.08597 0.0
O148 O 0.70348 0.66078 0.01613 0.0
O149 O 0.67805 0.6261 0.04991 0.0
O150 O 0.68242 0.63237 0.12771 0.0
O151 O 0.71429 0.66179 0.09426 0.0
C152 C 0.60802 0.65802 0.0584 0.0
C153 C 0.71078 0.64371 0.12019 0.0
C154 C 0.61756 0.35181 0.80774 0.0
C155 C 0.65996 0.43954 0.87613 0.0
O156 O 0.61569 0.38284 0.80331 0.0
Zn157 Zn 0.63604 0.3953 0.84411 0.0
O158 O 0.62944 0.34033 0.83496 0.0
Zn159 Zn 0.64973 0.36067 0.8801 0.0
O160 O 0.61876 0.34836 0.91412 0.0
O161 O 0.59793 0.38574 0.88032 0.0
O162 O 0.66346 0.41138 0.89058 0.0
O163 O 0.64458 0.44139 0.84884 0.0
O164 O 0.6858 0.37398 0.83967 0.0
O165 O 0.69193 0.33907 0.88146 0.0
C166 C 0.59477 0.36686 0.90571 0.0
C167 C 0.70361 0.35285 0.85569 0.0
C168 C 0.16442 0.21945 0.37862 0.0
C169 C 0.16655 0.24821 0.35936 0.0
C170 C 0.19192 0.19815 0.38195 0.0
C171 C 0.22185 0.20577 0.36524 0.0
C172 C 0.22328 0.23391 0.34429 0.0
C173 C 0.19575 0.25501 0.342 0.0
C174 C 0.18952 0.16858 0.40472 0.0
C175 C 0.25436 0.2426 0.32539 0.0
C176 C 0.30644 0.17814 0.39653 0.0
C177 C 0.31403 0.15229 0.37471 0.0
C178 C 0.27575 0.19468 0.39484 0.0
C179 C 0.25227 0.18539 0.37052 0.0
C180 C 0.25929 0.15848 0.34933 0.0
C181 C 0.28993 0.14219 0.35179 0.0
C182 C 0.26901 0.223 0.4182 0.0
C183 C 0.23516 0.14799 0.32285 0.0
H184 H 0.14201 0.21471 0.3926 0.0
H185 H 0.19736 0.27755 0.32742 0.0
H186 H 0.19823 0.1459 0.39197 0.0
H187 H 0.20582 0.17234 0.42648 0.0
H188 H 0.16384 0.16451 0.41366 0.0
H189 H 0.2505 0.26376 0.30816 0.0
H190 H 0.27431 0.24917 0.34302 0.0
H191 H 0.26314 0.22098 0.31092 0.0
H192 H 0.32477 0.18604 0.41439 0.0
H193 H 0.29544 0.12225 0.33475 0.0
H194 H 0.24452 0.21988 0.43023 0.0
H195 H 0.26822 0.24659 0.40408 0.0
H196 H 0.28824 0.22504 0.43773 0.0
H197 H 0.21013 0.14442 0.33355 0.0
H198 H 0.24293 0.12472 0.31045 0.0
H199 H 0.23312 0.16778 0.30383 0.0
C200 C 0.22496 0.84179 0.65515 0.0
C201 C 0.24525 0.84909 0.62808 0.0
C202 C 0.20389 0.81427 0.65444 0.0
C203 C 0.20263 0.79441 0.6256 0.0
C204 C 0.22096 0.80358 0.5972 0.0
C205 C 0.24258 0.83053 0.599 0.0
C206 C 0.18512 0.80496 0.68541 0.0
C207 C 0.21939 0.78373 0.56565 0.0
C208 C 0.18343 0.70344 0.63861 0.0
C209 C 0.14926 0.70305 0.63319 0.0
C210 C 0.20126 0.73305 0.63572 0.0
C211 C 0.18453 0.76253 0.62623 0.0
C212 C 0.15035 0.76171 0.61884 0.0
C213 C 0.133 0.73203 0.62294 0.0
C214 C 0.23763 0.73312 0.64436 0.0
C215 C 0.13192 0.79234 0.60764 0.0
H216 H 0.22763 0.85585 0.67781 0.0
H217 H 0.25855 0.83623 0.57817 0.0
H218 H 0.15864 0.80075 0.67969 0.0
H219 H 0.19525 0.78144 0.69554 0.0
H220 H 0.18687 0.82427 0.70485 0.0
H221 H 0.23108 0.79694 0.54452 0.0
H222 H 0.23245 0.75979 0.56922 0.0
H223 H 0.19332 0.77811 0.55917 0.0
H224 H 0.19581 0.68105 0.64692 0.0
H225 H 0.1065 0.73157 0.61864 0.0
H226 H 0.24194 0.74978 0.66571 0.0
H227 H 0.25232 0.74281 0.62327 0.0
H228 H 0.247 0.70803 0.65082 0.0
H229 H 0.13065 0.81041 0.62822 0.0
H230 H 0.10628 0.78671 0.59953 0.0
H231 H 0.14525 0.80445 0.58688 0.0
C232 C 0.69828 0.80341 0.3454 0.0
C233 C 0.71455 0.83334 0.35196 0.0
C234 C 0.71443 0.77282 0.34935 0.0
C235 C 0.74754 0.772 0.36072 0.0
C236 C 0.7638 0.80206 0.36838 0.0
C237 C 0.74723 0.8324 0.36359 0.0
C238 C 0.69644 0.74148 0.34013 0.0
C239 C 0.79898 0.8022 0.38097 0.0
C240 C 0.78441 0.69058 0.3922 0.0
C241 C 0.80416 0.68134 0.36527 0.0
C242 C 0.76556 0.72 0.3911 0.0
C243 C 0.766 0.73996 0.36212 0.0
C244 C 0.78475 0.72967 0.33436 0.0
C245 C 0.80392 0.70077 0.33647 0.0
C246 C 0.7462 0.73037 0.42131 0.0
C247 C 0.78523 0.74955 0.30261 0.0
H248 H 0.67308 0.80386 0.33617 0.0
H249 H 0.75989 0.85538 0.36889 0.0
H250 H 0.70899 0.72964 0.31876 0.0
H251 H 0.69718 0.72354 0.36096 0.0
H252 H 0.67018 0.74619 0.3334 0.0
H253 H 0.80714 0.82732 0.38843 0.0
H254 H 0.80147 0.78528 0.40252 0.0
H255 H 0.8159 0.793 0.36138 0.0
H256 H 0.78493 0.67569 0.41457 0.0
H257 H 0.81912 0.69345 0.31556 0.0
H258 H 0.71987 0.73471 0.41475 0.0
H259 H 0.7561 0.75408 0.43084 0.0
H260 H 0.74741 0.71158 0.44142 0.0
H261 H 0.75959 0.75417 0.29385 0.0
H262 H 0.79924 0.73688 0.28261 0.0
H263 H 0.79675 0.77399 0.30713 0.0
C264 C 0.81236 0.25056 0.62571 0.0
C265 C 0.84522 0.24016 0.62998 0.0
C266 C 0.78641 0.22765 0.62491 0.0
C267 C 0.79358 0.19339 0.62746 0.0
C268 C 0.82687 0.18262 0.63015 0.0
C269 C 0.85231 0.2062 0.63193 0.0
C270 C 0.7512 0.24025 0.62274 0.0
C271 C 0.83554 0.14629 0.6319 0.0
C272 C 0.72192 0.1424 0.66004 0.0
C273 C 0.70591 0.13383 0.63056 0.0
C274 C 0.75153 0.16049 0.65945 0.0
C275 C 0.76585 0.16927 0.62862 0.0
C276 C 0.75116 0.15818 0.59886 0.0
C277 C 0.72101 0.1411 0.60017 0.0
C278 C 0.76597 0.17247 0.69173 0.0
C279 C 0.7662 0.16609 0.56556 0.0
H280 H 0.8067 0.27679 0.62463 0.0
H281 H 0.87772 0.19809 0.6352 0.0
H282 H 0.73869 0.22958 0.60083 0.0
H283 H 0.73712 0.23227 0.64497 0.0
H284 H 0.74987 0.26767 0.62093 0.0
H285 H 0.86267 0.14192 0.63051 0.0
H286 H 0.82623 0.13563 0.65545 0.0
H287 H 0.82338 0.13274 0.61141 0.0
H288 H 0.71006 0.13712 0.68355 0.0
H289 H 0.70867 0.13434 0.57735 0.0
H290 H 0.76311 0.19975 0.69332 0.0
H291 H 0.79283 0.16687 0.69295 0.0
H292 H 0.75364 0.16111 0.71355 0.0
H293 H 0.76236 0.1927 0.5598 0.0
H294 H 0.75493 0.15127 0.54541 0.0
H295 H 0.79329 0.16144 0.56587 0.0
C296 C 0.38528 0.2708 0.15451 0.0
C297 C 0.4007 0.29888 0.16786 0.0
C298 C 0.38662 0.24006 0.17074 0.0
C299 C 0.40393 0.23718 0.20103 0.0
C300 C 0.42122 0.26489 0.21365 0.0
C301 C 0.41934 0.29545 0.19695 0.0
C302 C 0.3678 0.21122 0.15646 0.0
C303 C 0.44023 0.26273 0.24575 0.0
C304 C 0.37391 0.17723 0.2667 0.0
C305 C 0.39737 0.15175 0.26464 0.0
C306 C 0.37503 0.20444 0.24518 0.0
C307 C 0.40075 0.20656 0.22143 0.0
C308 C 0.42386 0.18019 0.21844 0.0
C309 C 0.42181 0.15289 0.24012 0.0
C310 C 0.3495 0.23162 0.24891 0.0
C311 C 0.45169 0.18164 0.19358 0.0
H312 H 0.37097 0.27303 0.13192 0.0
H313 H 0.43146 0.3169 0.20738 0.0
H314 H 0.38352 0.18865 0.15614 0.0
H315 H 0.34602 0.20582 0.1723 0.0
H316 H 0.35896 0.2163 0.1309 0.0
H317 H 0.45526 0.28522 0.25031 0.0
H318 H 0.42266 0.25962 0.26664 0.0
H319 H 0.45687 0.24083 0.24568 0.0
H320 H 0.35526 0.17634 0.28603 0.0
H321 H 0.44033 0.13342 0.23912 0.0
H322 H 0.33764 0.23703 0.22471 0.0
H323 H 0.36171 0.25467 0.25728 0.0
H324 H 0.32987 0.22509 0.26706 0.0
H325 H 0.44199 0.18787 0.16863 0.0
H326 H 0.46557 0.1579 0.19215 0.0
H327 H 0.46919 0.20151 0.20063 0.0
C328 C 0.25143 0.62424 0.8339 0.0
C329 C 0.25084 0.63167 0.86772 0.0
C330 C 0.22233 0.62552 0.81493 0.0
C331 C 0.19183 0.63363 0.83038 0.0
C332 C 0.19085 0.63932 0.86489 0.0
C333 C 0.22045 0.6387 0.88308 0.0
C334 C 0.22449 0.61969 0.77807 0.0
C335 C 0.15874 0.64707 0.8824 0.0
C336 C 0.12835 0.67112 0.77194 0.0
C337 C 0.11142 0.64286 0.76165 0.0
C338 C 0.15356 0.66882 0.79578 0.0
C339 C 0.16142 0.63758 0.80991 0.0
C340 C 0.1423 0.60954 0.80156 0.0
C341 C 0.11788 0.61242 0.77702 0.0
C342 C 0.17366 0.69923 0.80362 0.0
C343 C 0.14923 0.57602 0.81669 0.0
H344 H 0.27491 0.61914 0.8219 0.0
H345 H 0.2199 0.64432 0.90931 0.0
H346 H 0.20753 0.59949 0.77075 0.0
H347 H 0.21656 0.64234 0.76458 0.0
H348 H 0.24996 0.6131 0.77 0.0
H349 H 0.16168 0.64748 0.90974 0.0
H350 H 0.14937 0.6716 0.8742 0.0
H351 H 0.13965 0.62852 0.87591 0.0
H352 H 0.12383 0.69444 0.75932 0.0
H353 H 0.10506 0.59049 0.76852 0.0
H354 H 0.19901 0.69627 0.79339 0.0
H355 H 0.17609 0.70237 0.83077 0.0
H356 H 0.16252 0.72208 0.79298 0.0
H357 H 0.17245 0.56577 0.80614 0.0
H358 H 0.12891 0.55824 0.81179 0.0
H359 H 0.15274 0.5781 0.84384 0.0
C360 C 0.6762 0.75604 0.145 0.0
C361 C 0.66919 0.75918 0.11121 0.0
C362 C 0.66996 0.78196 0.16694 0.0
C363 C 0.65576 0.81172 0.15488 0.0
C364 C 0.64972 0.81558 0.12048 0.0
C365 C 0.65677 0.78916 0.09885 0.0
C366 C 0.67756 0.77694 0.20328 0.0
C367 C 0.63441 0.84686 0.1068 0.0
C368 C 0.61127 0.85328 0.22568 0.0
C369 C 0.63632 0.87376 0.23796 0.0
C370 C 0.61592 0.83529 0.19633 0.0
C371 C 0.64638 0.83777 0.17909 0.0
C372 C 0.67036 0.86084 0.18964 0.0
C373 C 0.66502 0.8786 0.21892 0.0
C374 C 0.58947 0.81137 0.18554 0.0
C375 C 0.70305 0.86442 0.17189 0.0
H376 H 0.68602 0.73282 0.15443 0.0
H377 H 0.65107 0.79135 0.07271 0.0
H378 H 0.69355 0.7972 0.21244 0.0
H379 H 0.65426 0.77761 0.21782 0.0
H380 H 0.69022 0.75297 0.20822 0.0
H381 H 0.63572 0.84787 0.07935 0.0
H382 H 0.608 0.84812 0.11429 0.0
H383 H 0.64681 0.86902 0.11705 0.0
H384 H 0.58882 0.84974 0.23994 0.0
H385 H 0.68433 0.89484 0.22787 0.0
H386 H 0.59727 0.78577 0.19195 0.0
H387 H 0.58596 0.8125 0.15832 0.0
H388 H 0.56538 0.81646 0.19782 0.0
H389 H 0.71916 0.84297 0.1781 0.0
H390 H 0.71613 0.88741 0.17919 0.0
H391 H 0.69951 0.86459 0.14467 0.0
C392 C 0.74961 0.35885 0.81479 0.0
C393 C 0.73683 0.34348 0.84318 0.0
C394 C 0.77964 0.34841 0.80082 0.0
C395 C 0.7974 0.3219 0.81558 0.0
C396 C 0.78542 0.30721 0.84506 0.0
C397 C 0.75524 0.31816 0.85852 0.0
C398 C 0.7916 0.36486 0.7694 0.0
C399 C 0.80375 0.27903 0.86156 0.0
C400 C 0.84743 0.27666 0.75111 0.0
C401 C 0.87815 0.29222 0.75397 0.0
C402 C 0.8216 0.284 0.77302 0.0
C403 C 0.82663 0.30788 0.79809 0.0
C404 C 0.85853 0.32164 0.80272 0.0
C405 C 0.88406 0.31367 0.78039 0.0
C406 C 0.78811 0.26855 0.76726 0.0
C407 C 0.86492 0.34697 0.82928 0.0
H408 H 0.73574 0.37859 0.8029 0.0
H409 H 0.74565 0.30623 0.88058 0.0
H410 H 0.81757 0.37317 0.77235 0.0
H411 H 0.79114 0.3468 0.74876 0.0
H412 H 0.77613 0.38655 0.76234 0.0
H413 H 0.79346 0.27308 0.88638 0.0
H414 H 0.80213 0.2566 0.84589 0.0
H415 H 0.83038 0.28509 0.86425 0.0
H416 H 0.84294 0.26041 0.73026 0.0
H417 H 0.90773 0.32612 0.78207 0.0
H418 H 0.77098 0.28742 0.75682 0.0
H419 H 0.77732 0.25973 0.79092 0.0
H420 H 0.78945 0.24743 0.74975 0.0
H421 H 0.85402 0.37106 0.82164 0.0
H422 H 0.89183 0.35055 0.83359 0.0
H423 H 0.85303 0.33961 0.85292 0.0
C424 C 0.35689 0.79805 0.72344 0.0
C425 C 0.35487 0.83256 0.72086 0.0
C426 C 0.35391 0.78225 0.75439 0.0
C427 C 0.34969 0.80152 0.78341 0.0
C428 C 0.34926 0.83644 0.78099 0.0
C429 C 0.35139 0.8515 0.74972 0.0
C430 C 0.35395 0.74491 0.75587 0.0
C431 C 0.34576 0.85789 0.81134 0.0
C432 C 0.30773 0.75923 0.8564 0.0
C433 C 0.33504 0.74774 0.87439 0.0
C434 C 0.3121 0.77762 0.82714 0.0
C435 C 0.34458 0.78506 0.81608 0.0
C436 C 0.37214 0.77516 0.83543 0.0
C437 C 0.36703 0.75608 0.86408 0.0
C438 C 0.28207 0.78722 0.80698 0.0
C439 C 0.40708 0.78328 0.82502 0.0
H440 H 0.35922 0.78337 0.70114 0.0
H441 H 0.35 0.87825 0.74778 0.0
H442 H 0.37362 0.73601 0.77289 0.0
H443 H 0.32994 0.73609 0.76587 0.0
H444 H 0.35796 0.73355 0.73118 0.0
H445 H 0.3485 0.88463 0.80551 0.0
H446 H 0.32109 0.854 0.82275 0.0
H447 H 0.36461 0.85084 0.83008 0.0
H448 H 0.28306 0.75186 0.86397 0.0
H449 H 0.38812 0.7465 0.87775 0.0
H450 H 0.28269 0.77411 0.78288 0.0
H451 H 0.28226 0.81414 0.80156 0.0
H452 H 0.25854 0.78102 0.81979 0.0
H453 H 0.4136 0.76904 0.8025 0.0
H454 H 0.42538 0.77724 0.84468 0.0
H455 H 0.40917 0.80994 0.81872 0.0
C456 C 0.7717 0.63821 0.12873 0.0
C457 C 0.73955 0.63779 0.14188 0.0
C458 C 0.79946 0.63465 0.14933 0.0
C459 C 0.79487 0.63154 0.18391 0.0
C460 C 0.76242 0.63101 0.19727 0.0
C461 C 0.73511 0.63367 0.176 0.0
C462 C 0.83363 0.63448 0.13418 0.0
C463 C 0.75653 0.62844 0.23413 0.0
C464 C 0.85654 0.59594 0.24467 0.0
C465 C 0.86832 0.62471 0.25973 0.0
C466 C 0.83483 0.59782 0.21766 0.0
C467 C 0.82378 0.62921 0.2065 0.0
C468 C 0.83743 0.65835 0.22027 0.0
C469 C 0.85999 0.65569 0.24654 0.0
C470 C 0.82162 0.5662 0.20298 0.0
C471 C 0.82573 0.6923 0.20966 0.0
H472 H 0.77513 0.64126 0.10227 0.0
H473 H 0.71028 0.63372 0.18621 0.0
H474 H 0.84789 0.65605 0.1432 0.0
H475 H 0.84729 0.61187 0.14194 0.0
H476 H 0.83286 0.63541 0.1067 0.0
H477 H 0.72978 0.62909 0.24053 0.0
H478 H 0.76732 0.60506 0.24382 0.0
H479 H 0.76903 0.64914 0.24701 0.0
H480 H 0.86282 0.57202 0.25523 0.0
H481 H 0.86858 0.67791 0.25881 0.0
H482 H 0.82101 0.56781 0.17556 0.0
H483 H 0.79587 0.56222 0.21165 0.0
H484 H 0.83675 0.54436 0.21033 0.0
H485 H 0.82496 0.69433 0.18229 0.0
H486 H 0.84181 0.71222 0.2195 0.0
H487 H 0.80019 0.69645 0.21894 0.0
C488 C 0.60824 0.23814 0.64817 0.0
C489 C 0.58653 0.21183 0.65352 0.0
C490 C 0.61002 0.26423 0.67095 0.0
C491 C 0.58909 0.26396 0.69914 0.0
C492 C 0.56507 0.23882 0.70282 0.0
C493 C 0.56449 0.21266 0.6802 0.0
C494 C 0.63638 0.29024 0.66648 0.0
C495 C 0.54184 0.23803 0.7321 0.0
C496 C 0.62332 0.2976 0.7794 0.0
C497 C 0.60872 0.32906 0.78072 0.0
C498 C 0.61738 0.27644 0.75272 0.0
C499 C 0.59565 0.2867 0.72712 0.0
C500 C 0.58024 0.31816 0.72863 0.0
C501 C 0.58729 0.3392 0.75529 0.0
C502 C 0.63475 0.24325 0.75173 0.0
C503 C 0.55639 0.32952 0.70214 0.0
H504 H 0.62564 0.23696 0.62774 0.0
H505 H 0.54792 0.19197 0.68425 0.0
H506 H 0.62615 0.31532 0.67106 0.0
H507 H 0.65644 0.28593 0.68478 0.0
H508 H 0.64736 0.28963 0.64127 0.0
H509 H 0.52123 0.22029 0.72838 0.0
H510 H 0.55572 0.23046 0.7546 0.0
H511 H 0.53125 0.26296 0.73676 0.0
H512 H 0.64023 0.28985 0.79881 0.0
H513 H 0.57593 0.36352 0.75632 0.0
H514 H 0.64926 0.24096 0.72851 0.0
H515 H 0.61625 0.22304 0.7519 0.0
H516 H 0.65175 0.23956 0.77305 0.0
H517 H 0.5691 0.33031 0.6778 0.0
H518 H 0.5459 0.35442 0.70738 0.0
H519 H 0.53575 0.31162 0.69996 0.0
C520 C 0.27757 0.34672 0.18667 0.0
C521 C 0.27722 0.36953 0.16058 0.0
C522 C 0.2536 0.34802 0.21173 0.0
C523 C 0.22925 0.37336 0.21103 0.0
C524 C 0.22832 0.39598 0.18414 0.0
C525 C 0.25235 0.39368 0.15903 0.0
C526 C 0.25514 0.323 0.23959 0.0
C527 C 0.20301 0.42352 0.18273 0.0
C528 C 0.15615 0.35724 0.26743 0.0
C529 C 0.16623 0.37274 0.29684 0.0
C530 C 0.17553 0.35876 0.23867 0.0
C531 C 0.20563 0.37647 0.23915 0.0
C532 C 0.21478 0.39417 0.26796 0.0
C533 C 0.19501 0.39201 0.29654 0.0
C534 C 0.16489 0.33949 0.20855 0.0
C535 C 0.24648 0.41376 0.26924 0.0
H536 H 0.29728 0.32844 0.18795 0.0
H537 H 0.25278 0.4118 0.13916 0.0
H538 H 0.26076 0.33573 0.26321 0.0
H539 H 0.23081 0.3107 0.24259 0.0
H540 H 0.27433 0.3037 0.23533 0.0
H541 H 0.204 0.4374 0.15897 0.0
H542 H 0.1777 0.4135 0.18606 0.0
H543 H 0.20749 0.44108 0.2033 0.0
H544 H 0.1338 0.34248 0.26722 0.0
H545 H 0.20293 0.40418 0.31905 0.0
H546 H 0.18162 0.3179 0.2052 0.0
H547 H 0.16679 0.35498 0.18591 0.0
H548 H 0.1391 0.3303 0.21077 0.0
H549 H 0.26795 0.39654 0.26904 0.0
H550 H 0.24803 0.42932 0.29181 0.0
H551 H 0.24865 0.42996 0.24712 0.0
C552 C 0.99043 0.28728 0.57107 0.0
C553 C 0.99859 0.2783 0.60362 0.0
C554 C 0.01497 0.29322 0.5474 0.0
C555 C 0.04871 0.28991 0.55633 0.0
C556 C 0.05722 0.27919 0.58866 0.0
C557 C 0.03197 0.27352 0.61205 0.0
C558 C 0.00467 0.30421 0.51307 0.0
C559 C 0.0929 0.27504 0.59893 0.0
C560 C 0.09936 0.28433 0.47845 0.0
C561 C 0.1065 0.31777 0.47263 0.0
C562 C 0.08374 0.27418 0.5077 0.0
C563 C 0.07446 0.29822 0.53135 0.0
C564 C 0.08452 0.33157 0.52701 0.0
C565 C 0.10071 0.34097 0.49763 0.0
C566 C 0.07418 0.2383 0.5116 0.0
C567 C 0.07521 0.35792 0.55174 0.0
H568 H 0.96467 0.29079 0.56432 0.0
H569 H 0.03845 0.26686 0.63725 0.0
H570 H 0.01479 0.32916 0.50775 0.0
H571 H 0.0149 0.28703 0.49427 0.0
H572 H 0.97735 0.3052 0.5101 0.0
H573 H 0.09527 0.26227 0.62322 0.0
H574 H 0.10688 0.2608 0.58006 0.0
H575 H 0.10464 0.29972 0.60085 0.0
H576 H 0.1043 0.26629 0.45922 0.0
H577 H 0.10622 0.36683 0.49309 0.0
H578 H 0.04752 0.23543 0.50569 0.0
H579 H 0.07795 0.2298 0.53747 0.0
H580 H 0.08862 0.22201 0.49477 0.0
H581 H 0.04842 0.36369 0.54932 0.0
H582 H 0.08936 0.38111 0.54775 0.0
H583 H 0.07952 0.34907 0.5774 0.0
C584 C 0.37076 0.98848 0.3983 0.0
C585 C 0.38611 0.01858 0.40605 0.0
C586 C 0.36567 0.9641 0.4228 0.0
C587 C 0.37631 0.96996 0.4557 0.0
C588 C 0.39302 0.99972 0.46325 0.0
C589 C 0.39763 0.02358 0.43843 0.0
C590 C 0.34788 0.93264 0.41379 0.0
C591 C 0.40497 0.00699 0.49791 0.0
C592 C 0.33284 0.93452 0.53087 0.0
C593 C 0.35597 0.91122 0.54246 0.0
C594 C 0.33822 0.95225 0.50147 0.0
C595 C 0.36758 0.94674 0.48313 0.0
C596 C 0.39013 0.92184 0.49359 0.0
C597 C 0.38401 0.90427 0.52315 0.0
C598 C 0.31339 0.97839 0.49121 0.0
C599 C 0.42168 0.91517 0.47472 0.0
H600 H 0.36191 0.98434 0.37334 0.0
H601 H 0.40992 0.04653 0.44465 0.0
H602 H 0.36185 0.91076 0.42293 0.0
H603 H 0.32323 0.93227 0.42591 0.0
H604 H 0.34431 0.93025 0.38663 0.0
H605 H 0.41946 0.03026 0.4992 0.0
H606 H 0.38345 0.0092 0.51485 0.0
H607 H 0.42066 0.98635 0.50717 0.0
H608 H 0.31089 0.93979 0.54541 0.0
H609 H 0.40201 0.88631 0.53191 0.0
H610 H 0.30692 0.97567 0.46468 0.0
H611 H 0.32443 0.00329 0.49437 0.0
H612 H 0.29029 0.97722 0.50609 0.0
H613 H 0.41665 0.9134 0.44779 0.0
H614 H 0.43405 0.89201 0.48308 0.0
H615 H 0.43907 0.93604 0.47836 0.0
C616 C 0.99169 0.68112 0.58907 0.0
C617 C 0.01537 0.65608 0.59366 0.0
C618 C 0.97415 0.68378 0.55903 0.0
C619 C 0.98021 0.66054 0.53349 0.0
C620 C 0.00386 0.63509 0.53829 0.0
C621 C 0.02119 0.63331 0.56815 0.0
C622 C 0.9493 0.7114 0.55453 0.0
C623 C 0.01071 0.60941 0.51197 0.0
C624 C 0.91807 0.63729 0.46794 0.0
C625 C 0.93247 0.65081 0.43931 0.0
C626 C 0.93211 0.64224 0.4992 0.0
C627 C 0.96119 0.66139 0.50203 0.0
C628 C 0.97469 0.67687 0.47357 0.0
C629 C 0.96025 0.67126 0.44245 0.0
C630 C 0.9171 0.62501 0.52884 0.0
C631 C 0.00548 0.69778 0.47571 0.0
H632 H 0.98729 0.69888 0.60866 0.0
H633 H 0.03923 0.61366 0.5716 0.0
H634 H 0.95583 0.7264 0.53243 0.0
H635 H 0.92434 0.70096 0.55009 0.0
H636 H 0.94807 0.72794 0.57642 0.0
H637 H 0.03001 0.5913 0.51966 0.0
H638 H 0.9877 0.59567 0.50623 0.0
H639 H 0.01896 0.62164 0.48879 0.0
H640 H 0.89639 0.62172 0.46588 0.0
H641 H 0.97127 0.68216 0.42053 0.0
H642 H 0.91465 0.64234 0.54993 0.0
H643 H 0.93366 0.60452 0.53689 0.0
H644 H 0.89236 0.61452 0.52326 0.0
H645 H 0.00375 0.71522 0.49681 0.0
H646 H 0.00983 0.71214 0.45262 0.0
H647 H 0.02727 0.68156 0.48015 0.0
C648 C 0.59618 0.02128 0.55632 0.0
C649 C 0.59992 0.05396 0.54508 0.0
C650 C 0.595 0.99476 0.53392 0.0
C651 C 0.59859 0.00105 0.49962 0.0
C652 C 0.60173 0.0341 0.48821 0.0
C653 C 0.60186 0.06015 0.51104 0.0
C654 C 0.59071 0.96001 0.547 0.0
C655 C 0.60548 0.04214 0.4519 0.0
C656 C 0.64009 0.9398 0.44259 0.0
C657 C 0.61396 0.93084 0.42164 0.0
C658 C 0.63496 0.96103 0.46941 0.0
C659 C 0.60275 0.97328 0.47583 0.0
C660 C 0.57571 0.96196 0.45664 0.0
C661 C 0.58165 0.94085 0.42958 0.0
C662 C 0.66462 0.97278 0.48884 0.0
C663 C 0.54089 0.97378 0.46341 0.0
H664 H 0.59407 0.01641 0.58264 0.0
H665 H 0.60444 0.08538 0.50223 0.0
H666 H 0.57144 0.94682 0.53266 0.0
H667 H 0.61418 0.94599 0.54407 0.0
H668 H 0.58371 0.95971 0.57361 0.0
H669 H 0.61255 0.06837 0.44786 0.0
H670 H 0.62442 0.02604 0.44016 0.0
H671 H 0.5816 0.03779 0.4392 0.0
H672 H 0.6651 0.93191 0.4367 0.0
H673 H 0.56137 0.93411 0.41341 0.0
H674 H 0.66004 0.97052 0.51581 0.0
H675 H 0.66899 0.99935 0.48334 0.0
H676 H 0.68746 0.95869 0.48265 0.0
H677 H 0.53504 0.97126 0.49014 0.0
H678 H 0.52226 0.95986 0.44887 0.0
H679 H 0.53869 0.00041 0.45699 0.0
C680 C 0.51073 0.06754 0.37245 0.0
C681 C 0.50066 0.09925 0.36276 0.0
C682 C 0.5422 0.05546 0.36424 0.0
C683 C 0.56388 0.07538 0.34509 0.0
C684 C 0.55468 0.10837 0.3373 0.0
C685 C 0.52301 0.12003 0.34633 0.0
C686 C 0.55094 0.02022 0.37358 0.0
C687 C 0.57734 0.13043 0.31753 0.0
C688 C 0.64615 0.03131 0.3395 0.0
C689 C 0.63858 0.00846 0.31465 0.0
C690 C 0.6237 0.05684 0.34745 0.0
C691 C 0.59347 0.05942 0.32976 0.0
C692 C 0.5887 0.03976 0.30121 0.0
C693 C 0.61119 0.01426 0.2942 0.0
C694 C 0.63142 0.07935 0.37611 0.0
C695 C 0.55766 0.04264 0.28057 0.0
H696 H 0.49322 0.05146 0.38492 0.0
H697 H 0.51491 0.14444 0.3385 0.0
H698 H 0.54826 0.00412 0.35155 0.0
H699 H 0.57699 0.01831 0.38207 0.0
H700 H 0.53452 0.01049 0.39339 0.0
H701 H 0.56764 0.15612 0.31552 0.0
H702 H 0.60219 0.13106 0.32917 0.0
H703 H 0.58046 0.12026 0.29222 0.0
H704 H 0.66761 0.02707 0.35509 0.0
H705 H 0.60552 0.99675 0.27472 0.0
H706 H 0.60888 0.08633 0.39015 0.0
H707 H 0.64252 0.10246 0.3663 0.0
H708 H 0.64958 0.06789 0.39337 0.0
H709 H 0.53698 0.0301 0.29358 0.0
H710 H 0.56079 0.03087 0.25594 0.0
H711 H 0.55057 0.06895 0.27694 0.0
C712 C 0.06212 0.51267 0.64807 0.0
C713 C 0.05323 0.53936 0.66833 0.0
C714 C 0.0435 0.48338 0.64821 0.0
C715 C 0.01563 0.48075 0.66936 0.0
C716 C 0.00733 0.50715 0.69073 0.0
C717 C 0.02615 0.53617 0.68986 0.0
C718 C 0.053 0.45567 0.62504 0.0
C719 C 0.97806 0.50509 0.71393 0.0
C720 C 0.94734 0.42085 0.64628 0.0
C721 C 0.95481 0.39357 0.66651 0.0
C722 C 0.96698 0.4494 0.64695 0.0
C723 C 0.99454 0.45075 0.66856 0.0
C724 C 0.00176 0.42362 0.68958 0.0
C725 C 0.98186 0.39532 0.68824 0.0
C726 C 0.95858 0.47792 0.62415 0.0
C727 C 0.03072 0.42433 0.7132 0.0
H728 H 0.08292 0.51506 0.63128 0.0
H729 H 0.01928 0.55662 0.70578 0.0
H730 H 0.05658 0.43232 0.63912 0.0
H731 H 0.03271 0.45142 0.60706 0.0
H732 H 0.07606 0.46111 0.61107 0.0
H733 H 0.97596 0.52716 0.73014 0.0
H734 H 0.95487 0.50282 0.69942 0.0
H735 H 0.98011 0.4827 0.72978 0.0
H736 H 0.92661 0.41961 0.62931 0.0
H737 H 0.98778 0.37436 0.70401 0.0
H738 H 0.97974 0.48294 0.60737 0.0
H739 H 0.95416 0.50069 0.6388 0.0
H740 H 0.93628 0.47298 0.60889 0.0
H741 H 0.05412 0.42738 0.69916 0.0
H742 H 0.03255 0.40142 0.72838 0.0
H743 H 0.02843 0.44585 0.73006 0.0
C744 C 0.52106 0.05935 0.69522 0.0
C745 C 0.52506 0.07773 0.66599 0.0
C746 C 0.49168 0.04189 0.70127 0.0
C747 C 0.46623 0.04239 0.67719 0.0
C748 C 0.46901 0.06329 0.64918 0.0
C749 C 0.49831 0.08092 0.64406 0.0
C750 C 0.48911 0.02069 0.73197 0.0
C751 C 0.44259 0.06436 0.62273 0.0
C752 C 0.42333 0.96219 0.65784 0.0
C753 C 0.39093 0.96825 0.66883 0.0
C754 C 0.44816 0.98578 0.66154 0.0
C755 C 0.44068 0.01616 0.6772 0.0
C756 C 0.40848 0.02196 0.68988 0.0
C757 C 0.38375 0.99799 0.68519 0.0
C758 C 0.48208 0.97865 0.64726 0.0
C759 C 0.3999 0.05377 0.70739 0.0
H760 H 0.54138 0.05733 0.71263 0.0
H761 H 0.50099 0.09546 0.62162 0.0
H762 H 0.4637 0.02168 0.74239 0.0
H763 H 0.49453 0.99455 0.72552 0.0
H764 H 0.50697 0.02853 0.7513 0.0
H765 H 0.4463 0.08518 0.6051 0.0
H766 H 0.44314 0.04087 0.60856 0.0
H767 H 0.41765 0.06675 0.63395 0.0
H768 H 0.42922 0.93928 0.6452 0.0
H769 H 0.35882 0.00269 0.69398 0.0
H770 H 0.50127 0.98101 0.66672 0.0
H771 H 0.48787 0.99694 0.62755 0.0
H772 H 0.48393 0.95345 0.63648 0.0
H773 H 0.41981 0.06075 0.72493 0.0
H774 H 0.37618 0.05186 0.72118 0.0
H775 H 0.39752 0.07406 0.68898 0.0
C776 C 0.90532 0.49384 0.38023 0.0
C777 C 0.91538 0.52132 0.36147 0.0
C778 C 0.92417 0.46439 0.38051 0.0
C779 C 0.9535 0.4623 0.36131 0.0
C780 C 0.96278 0.48944 0.34114 0.0
C781 C 0.94378 0.51857 0.34162 0.0
C782 C 0.91352 0.43611 0.4025 0.0
C783 C 0.99365 0.48828 0.32004 0.0
C784 C 0.0271 0.41033 0.38834 0.0
C785 C 0.02614 0.38371 0.36612 0.0
C786 C 0.00264 0.43504 0.3881 0.0
C787 C 0.97656 0.43348 0.36478 0.0
C788 C 0.97464 0.406 0.34308 0.0
C789 C 0.99939 0.38127 0.34415 0.0
C790 C 0.00555 0.46359 0.41197 0.0
C791 C 0.94734 0.40351 0.31776 0.0
H792 H 0.8834 0.49573 0.39559 0.0
H793 H 0.95154 0.53949 0.32668 0.0
H794 H 0.91373 0.41253 0.38853 0.0
H795 H 0.93131 0.43334 0.42326 0.0
H796 H 0.8884 0.4401 0.41298 0.0
H797 H 0.99575 0.51017 0.30346 0.0
H798 H 0.01584 0.48737 0.33621 0.0
H799 H 0.9939 0.46559 0.30466 0.0
H800 H 0.04742 0.4122 0.40575 0.0
H801 H 0.99848 0.36078 0.32693 0.0
H802 H 0.98185 0.46738 0.42535 0.0
H803 H 0.01087 0.4867 0.39806 0.0
H804 H 0.02555 0.45965 0.43045 0.0
H805 H 0.92287 0.40764 0.32955 0.0
H806 H 0.94721 0.37908 0.30523 0.0
H807 H 0.95058 0.42309 0.29871 0.0
C808 C 0.38149 0.5033 0.10468 0.0
C809 C 0.35786 0.48121 0.11687 0.0
C810 C 0.37162 0.53305 0.08936 0.0
C811 C 0.3374 0.54081 0.08676 0.0
C812 C 0.3139 0.52027 0.10261 0.0
C813 C 0.32438 0.49037 0.11697 0.0
C814 C 0.39751 0.55419 0.07272 0.0
C815 C 0.27735 0.52805 0.10141 0.0
C816 C 0.31505 0.62221 0.04369 0.0
C817 C 0.31151 0.61154 0.01086 0.0
C818 C 0.32211 0.59939 0.06926 0.0
C819 C 0.32603 0.56538 0.06157 0.0
C820 C 0.32047 0.55444 0.02879 0.0
C821 C 0.31303 0.57756 0.00403 0.0
C822 C 0.32701 0.61191 0.10404 0.0
C823 C 0.32411 0.51842 0.01933 0.0
H824 H 0.40734 0.49596 0.10438 0.0
H825 H 0.30613 0.47315 0.12649 0.0
H826 H 0.39628 0.55044 0.04553 0.0
H827 H 0.39285 0.5808 0.07754 0.0
H828 H 0.42291 0.54781 0.0812 0.0
H829 H 0.26343 0.51408 0.12059 0.0
H830 H 0.27284 0.55492 0.10493 0.0
H831 H 0.2674 0.52119 0.07678 0.0
H832 H 0.31406 0.64845 0.04913 0.0
H833 H 0.30995 0.56907 0.97878 0.0
H834 H 0.35386 0.61264 0.10969 0.0
H835 H 0.31522 0.59512 0.12232 0.0
H836 H 0.31671 0.63723 0.10723 0.0
H837 H 0.34979 0.50991 0.02434 0.0
H838 H 0.31855 0.51402 0.99278 0.0
H839 H 0.30726 0.50292 0.03446 0.0
C840 C 0.44913 0.62675 0.94257 0.0
C841 C 0.42618 0.65232 0.94783 0.0
C842 C 0.47934 0.62601 0.95989 0.0
C843 C 0.4866 0.65144 0.98283 0.0
C844 C 0.46384 0.67765 0.98757 0.0
C845 C 0.43402 0.67779 0.97001 0.0
C846 C 0.50322 0.59778 0.95413 0.0
C847 C 0.47075 0.70539 0.0116 0.0
C848 C 0.54919 0.63905 0.05205 0.0
C849 C 0.57662 0.6562 0.03956 0.0
C850 C 0.51991 0.63646 0.03344 0.0
C851 C 0.51818 0.6513 0.00164 0.0
C852 C 0.54591 0.66826 0.98879 0.0
C853 C 0.5747 0.67057 0.00791 0.0
C854 C 0.49068 0.61832 0.04797 0.0
C855 C 0.54501 0.68446 0.95503 0.0
H856 H 0.44313 0.6069 0.92565 0.0
H857 H 0.41652 0.69777 0.97413 0.0
H858 H 0.52766 0.60753 0.94634 0.0
H859 H 0.50709 0.58387 0.97754 0.0
H860 H 0.49424 0.58036 0.93494 0.0
H861 H 0.45043 0.72398 0.01233 0.0
H862 H 0.47423 0.69517 0.03689 0.0
H863 H 0.49401 0.71816 0.00465 0.0
H864 H 0.55054 0.62767 0.07635 0.0
H865 H 0.59583 0.68367 0.99786 0.0
H866 H 0.48225 0.59878 0.03071 0.0
H867 H 0.46969 0.63577 0.0514 0.0
H868 H 0.49656 0.6067 0.07224 0.0
H869 H 0.53755 0.66623 0.936 0.0
H870 H 0.56931 0.69509 0.94787 0.0
H871 H 0.52626 0.7046 0.95482 0.0
C872 C 0.70013 0.46811 0.91308 0.0
C873 C 0.6729 0.46977 0.89167 0.0
C874 C 0.71059 0.49618 0.93045 0.0
C875 C 0.69261 0.52615 0.92712 0.0
C876 C 0.6664 0.52841 0.90394 0.0
C877 C 0.65713 0.50022 0.88615 0.0
C878 C 0.73935 0.49311 0.95411 0.0
C879 C 0.6461 0.55966 0.90017 0.0
C880 C 0.6788 0.57505 0.00515 0.0
C881 C 0.69716 0.60391 0.9993 0.0
C882 C 0.67775 0.54953 0.98205 0.0
C883 C 0.69625 0.55234 0.95248 0.0
C884 C 0.71622 0.5806 0.94693 0.0
C885 C 0.71609 0.60641 0.9703 0.0
C886 C 0.65567 0.5201 0.98884 0.0
C887 C 0.73699 0.5839 0.91606 0.0
H888 H 0.71281 0.44469 0.9168 0.0
H889 H 0.63617 0.50156 0.86942 0.0
H890 H 0.75522 0.51544 0.9529 0.0
H891 H 0.72987 0.49097 0.97981 0.0
H892 H 0.75476 0.47092 0.94879 0.0
H893 H 0.62953 0.55876 0.87825 0.0
H894 H 0.63059 0.56315 0.92259 0.0
H895 H 0.66236 0.58157 0.89788 0.0
H896 H 0.66399 0.57275 0.02742 0.0
H897 H 0.73043 0.62858 0.9657 0.0
H898 H 0.67047 0.49693 0.98878 0.0
H899 H 0.63676 0.51797 0.96904 0.0
H900 H 0.64269 0.52196 0.01302 0.0
H901 H 0.75069 0.56056 0.91115 0.0
H902 H 0.755 0.60451 0.91794 0.0
H903 H 0.72069 0.58868 0.89447 0.0
C904 C 0.4551 0.39087 0.04072 0.0
C905 C 0.42531 0.37401 0.0351 0.0
C906 C 0.48102 0.38994 0.01766 0.0
C907 C 0.47735 0.37143 0.98823 0.0
C908 C 0.44713 0.35484 0.982 0.0
C909 C 0.42136 0.35647 0.00546 0.0
C910 C 0.51266 0.40827 0.02518 0.0
C911 C 0.44237 0.33471 0.95097 0.0
C912 C 0.53909 0.39092 0.91972 0.0
C913 C 0.56365 0.36688 0.92532 0.0
C914 C 0.51031 0.39209 0.93929 0.0
C915 C 0.50583 0.36849 0.9649 0.0
C916 C 0.53003 0.34353 0.96994 0.0
C917 C 0.55867 0.34311 0.95023 0.0
C918 C 0.48523 0.41925 0.9333 0.0
C919 C 0.52615 0.31778 0.99684 0.0
H920 H 0.45832 0.40477 0.06339 0.0
H921 H 0.39846 0.34335 0.00095 0.0
H922 H 0.53345 0.39041 0.0276 0.0
H923 H 0.51881 0.42533 0.00452 0.0
H924 H 0.51095 0.42285 0.0484 0.0
H925 H 0.41691 0.32462 0.949 0.0
H926 H 0.4475 0.35008 0.92877 0.0
H927 H 0.46022 0.31377 0.95074 0.0
H928 H 0.54269 0.40936 0.90052 0.0
H929 H 0.57734 0.32426 0.95459 0.0
H930 H 0.48441 0.43597 0.95503 0.0
H931 H 0.46014 0.40861 0.93037 0.0
H932 H 0.49113 0.4342 0.91095 0.0
H933 H 0.52694 0.32988 0.02145 0.0
H934 H 0.54589 0.29858 0.99593 0.0
H935 H 0.50175 0.30546 0.99467 0.0
loop_
_geom_bond_atom_site_label_1
_geom_bond_atom_site_label_2
_geom_bond_distance
_geom_bond_site_symmetry_2
_ccdc_geom_bond_type
C0 O2 1.247 . S
C0 O4 1.258 . S
C1 O8 1.247 . S
C1 O9 1.258 . S
O2 C0 1.247 . S
O2 Zn3 2.028 . S
Zn3 O2 2.028 . S
Zn3 O7 2.035 . S
Zn3 O9 2.035 . S
Zn3 O10 2.028 . S
O4 C0 1.258 . S
O4 Zn5 2.035 . S
Zn5 O4 2.035 . S
Zn5 O6 2.028 . S
Zn5 O8 2.028 . S
Zn5 O11 2.035 . S
O6 Zn5 2.028 . S
O6 C12 1.247 . S
O7 Zn3 2.035 . S
O7 C12 1.258 . S
O8 C1 1.247 . S
O8 Zn5 2.028 . S
O9 C1 1.258 . S
O9 Zn3 2.035 . S
O10 Zn3 2.028 . S
O10 C13 1.247 . S
O11 Zn5 2.035 . S
O11 C13 1.258 . S
C12 O6 1.247 . S
C12 O7 1.258 . S
C13 O10 1.247 . S
C13 O11 1.258 . S
C14 O16 1.247 . S
C14 O18 1.258 . S
C15 O22 1.247 . S
C15 O23 1.258 . S
O16 C14 1.247 . S
O16 Zn17 2.028 . S
Zn17 O16 2.028 . S
Zn17 O21 2.035 . S
Zn17 O23 2.035 . S
Zn17 O24 2.028 . S
O18 C14 1.258 . S
O18 Zn19 2.035 . S
Zn19 O18 2.035 . S
Zn19 O20 2.028 . S
Zn19 O22 2.028 . S
Zn19 O25 2.035 . S
O20 Zn19 2.028 . S
O20 C26 1.247 . S
O21 Zn17 2.035 . S
O21 C26 1.258 . S
O22 C15 1.247 . S
O22 Zn19 2.028 . S
O23 C15 1.258 . S
O23 Zn17 2.035 . S
O24 Zn17 2.028 . S
O24 C27 1.247 . S
O25 Zn19 2.035 . S
O25 C27 1.258 . S
C26 O20 1.247 . S
C26 O21 1.258 . S
C27 O24 1.247 . S
C27 O25 1.258 . S
C28 O30 1.247 . S
C28 O32 1.258 . S
C29 O36 1.247 . S
C29 O37 1.258 . S
O30 C28 1.247 . S
O30 Zn31 2.028 . S
Zn31 O30 2.028 . S
Zn31 O35 2.035 . S
Zn31 O37 2.035 . S
Zn31 O38 2.028 . S
O32 C28 1.258 . S
O32 Zn33 2.035 . S
Zn33 O32 2.035 . S
Zn33 O34 2.028 . S
Zn33 O36 2.028 . S
Zn33 O39 2.035 . S
O34 Zn33 2.028 . S
O34 C40 1.247 . S
O35 Zn31 2.035 . S
O35 C40 1.258 . S
O36 C29 1.247 . S
O36 Zn33 2.028 . S
O37 C29 1.258 . S
O37 Zn31 2.035 . S
O38 Zn31 2.028 . S
O38 C41 1.247 . S
O39 Zn33 2.035 . S
O39 C41 1.258 . S
C40 O34 1.247 . S
C40 O35 1.258 . S
C41 O38 1.247 . S
C41 O39 1.258 . S
C42 O44 1.247 . S
C42 O46 1.258 . S
C43 O50 1.247 . S
C43 O51 1.258 . S
O44 C42 1.247 . S
O44 Zn45 2.028 . S
Zn45 O44 2.028 . S
Zn45 O49 2.035 . S
Zn45 O51 2.035 . S
Zn45 O52 2.028 . S
O46 C42 1.258 . S
O46 Zn47 2.035 . S
Zn47 O46 2.035 . S
Zn47 O48 2.028 . S
Zn47 O50 2.028 . S
Zn47 O53 2.035 . S
O48 Zn47 2.028 . S
O48 C54 1.247 . S
O49 Zn45 2.035 . S
O49 C54 1.258 . S
O50 C43 1.247 . S
O50 Zn47 2.028 . S
O51 C43 1.258 . S
O51 Zn45 2.035 . S
O52 Zn45 2.028 . S
O52 C55 1.247 . S
O53 Zn47 2.035 . S
O53 C55 1.258 . S
C54 O48 1.247 . S
C54 O49 1.258 . S
C55 O52 1.247 . S
C55 O53 1.258 . S
C56 O58 1.247 . S
C56 O60 1.258 . S
C57 O64 1.247 . S
C57 O65 1.258 . S
O58 C56 1.247 . S
O58 Zn59 2.028 . S
Zn59 O58 2.028 . S
Zn59 O63 2.035 . S
Zn59 O65 2.035 . S
Zn59 O66 2.028 . S
O60 C56 1.258 . S
O60 Zn61 2.035 . S
Zn61 O60 2.035 . S
Zn61 O62 2.028 . S
Zn61 O64 2.028 . S
Zn61 O67 2.035 . S
O62 Zn61 2.028 . S
O62 C68 1.247 . S
O63 Zn59 2.035 . S
O63 C68 1.258 . S
O64 C57 1.247 . S
O64 Zn61 2.028 . S
O65 C57 1.258 . S
O65 Zn59 2.035 . S
O66 Zn59 2.028 . S
O66 C69 1.247 . S
O67 Zn61 2.035 . S
O67 C69 1.258 . S
C68 O62 1.247 . S
C68 O63 1.258 . S
C69 O66 1.247 . S
C69 O67 1.258 . S
C70 O72 1.247 . S
C70 O74 1.258 . S
C71 O78 1.247 . S
C71 O79 1.258 . S
O72 C70 1.247 . S
O72 Zn73 2.028 . S
Zn73 O72 2.028 . S
Zn73 O77 2.035 . S
Zn73 O79 2.035 . S
Zn73 O80 2.028 . S
O74 C70 1.258 . S
O74 Zn75 2.035 . S
Zn75 O74 2.035 . S
Zn75 O76 2.028 . S
Zn75 O78 2.028 . S
Zn75 O81 2.035 . S
O76 Zn75 2.028 . S
O76 C82 1.247 . S
O77 Zn73 2.035 . S
O77 C82 1.258 . S
O78 C71 1.247 . S
O78 Zn75 2.028 . S
O79 C71 1.258 . S
O79 Zn73 2.035 . S
O80 Zn73 2.028 . S
O80 C83 1.247 . S
O81 Zn75 2.035 . S
O81 C83 1.258 . S
C82 O76 1.247 . S
C82 O77 1.258 . S
C83 O80 1.247 . S
C83 O81 1.258 . S
C84 O86 1.247 . S
C84 O88 1.258 . S
C85 O92 1.247 . S
C85 O93 1.258 . S
O86 C84 1.247 . S
O86 Zn87 2.028 . S
Zn87 O86 2.028 . S
Zn87 O91 2.035 . S
Zn87 O93 2.035 . S
Zn87 O94 2.028 . S
O88 C84 1.258 . S
O88 Zn89 2.035 . S
Zn89 O88 2.035 . S
Zn89 O90 2.028 . S
Zn89 O92 2.028 . S
Zn89 O95 2.035 . S
O90 Zn89 2.028 . S
O90 C96 1.247 . S
O91 Zn87 2.035 . S
O91 C96 1.258 . S
O92 C85 1.247 . S
O92 Zn89 2.028 . S
O93 C85 1.258 . S
O93 Zn87 2.035 . S
O94 Zn87 2.028 . S
O94 C97 1.247 . S
O95 Zn89 2.035 . S
O95 C97 1.258 . S
C96 O90 1.247 . S
C96 O91 1.258 . S
C97 O94 1.247 . S
C97 O95 1.258 . S
C98 O100 1.247 . S
C98 O102 1.258 . S
C99 O106 1.247 . S
C99 O107 1.258 . S
O100 C98 1.247 . S
O100 Zn101 2.028 . S
Zn101 O100 2.028 . S
Zn101 O105 2.035 . S
Zn101 O107 2.035 . S
Zn101 O108 2.028 . S
O102 C98 1.258 . S
O102 Zn103 2.035 . S
Zn103 O102 2.035 . S
Zn103 O104 2.028 . S
Zn103 O106 2.028 . S
Zn103 O109 2.035 . S
O104 Zn103 2.028 . S
O104 C110 1.247 . S
O105 Zn101 2.035 . S
O105 C110 1.258 . S
O106 C99 1.247 . S
O106 Zn103 2.028 . S
O107 C99 1.258 . S
O107 Zn101 2.035 . S
O108 Zn101 2.028 . S
O108 C111 1.247 . S
O109 Zn103 2.035 . S
O109 C111 1.258 . S
C110 O104 1.247 . S
C110 O105 1.258 . S
C111 O108 1.247 . S
C111 O109 1.258 . S
C112 O114 1.247 . S
C112 O116 1.258 . S
C113 O120 1.247 . S
C113 O121 1.258 . S
O114 C112 1.247 . S
O114 Zn115 2.028 . S
Zn115 O114 2.028 . S
Zn115 O119 2.035 . S
Zn115 O121 2.035 . S
Zn115 O122 2.028 . S
O116 C112 1.258 . S
O116 Zn117 2.035 . S
Zn117 O116 2.035 . S
Zn117 O118 2.028 . S
Zn117 O120 2.028 . S
Zn117 O123 2.035 . S
O118 Zn117 2.028 . S
O118 C124 1.247 . S
O119 Zn115 2.035 . S
O119 C124 1.258 . S
O120 C113 1.247 . S
O120 Zn117 2.028 . S
O121 C113 1.258 . S
O121 Zn115 2.035 . S
O122 Zn115 2.028 . S
O122 C125 1.247 . S
O123 Zn117 2.035 . S
O123 C125 1.258 . S
C124 O118 1.247 . S
C124 O119 1.258 . S
C125 O122 1.247 . S
C125 O123 1.258 . S
C126 O128 1.247 . S
C126 O130 1.258 . S
C127 O134 1.247 . S
C127 O135 1.258 . S
O128 C126 1.247 . S
O128 Zn129 2.028 . S
Zn129 O128 2.028 . S
Zn129 O133 2.035 . S
Zn129 O135 2.035 . S
Zn129 O136 2.028 . S
O130 C126 1.258 . S
O130 Zn131 2.035 . S
Zn131 O130 2.035 . S
Zn131 O132 2.028 . S
Zn131 O134 2.028 . S
Zn131 O137 2.035 . S
O132 Zn131 2.028 . S
O132 C138 1.247 . S
O133 Zn129 2.035 . S
O133 C138 1.258 . S
O134 C127 1.247 . S
O134 Zn131 2.028 . S
O135 C127 1.258 . S
O135 Zn129 2.035 . S
O136 Zn129 2.028 . S
O136 C139 1.247 . S
O137 Zn131 2.035 . S
O137 C139 1.258 . S
C138 O132 1.247 . S
C138 O133 1.258 . S
C139 O136 1.247 . S
C139 O137 1.258 . S
C140 O142 1.247 . S
C140 O144 1.258 . S
C141 O148 1.247 . S
C141 O149 1.258 . S
O142 C140 1.247 . S
O142 Zn143 2.028 . S
Zn143 O142 2.028 . S
Zn143 O147 2.035 . S
Zn143 O149 2.035 . S
Zn143 O150 2.028 . S
O144 C140 1.258 . S
O144 Zn145 2.035 . S
Zn145 O144 2.035 . S
Zn145 O146 2.028 . S
Zn145 O148 2.028 . S
Zn145 O151 2.035 . S
O146 Zn145 2.028 . S
O146 C152 1.247 . S
O147 Zn143 2.035 . S
O147 C152 1.258 . S
O148 C141 1.247 . S
O148 Zn145 2.028 . S
O149 C141 1.258 . S
O149 Zn143 2.035 . S
O150 Zn143 2.028 . S
O150 C153 1.247 . S
O151 Zn145 2.035 . S
O151 C153 1.258 . S
C152 O146 1.247 . S
C152 O147 1.258 . S
C153 O150 1.247 . S
C153 O151 1.258 . S
C154 O156 1.247 . S
C154 O158 1.258 . S
C155 O162 1.247 . S
C155 O163 1.258 . S
O156 C154 1.247 . S
O156 Zn157 2.028 . S
Zn157 O156 2.028 . S
Zn157 O161 2.035 . S
Zn157 O163 2.035 . S
Zn157 O164 2.028 . S
O158 C154 1.258 . S
O158 Zn159 2.035 . S
Zn159 O158 2.035 . S
Zn159 O160 2.028 . S
Zn159 O162 2.028 . S
Zn159 O165 2.035 . S
O160 Zn159 2.028 . S
O160 C166 1.247 . S
O161 Zn157 2.035 . S
O161 C166 1.258 . S
O162 C155 1.247 . S
O162 Zn159 2.028 . S
O163 C155 1.258 . S
O163 Zn157 2.035 . S
O164 Zn157 2.028 . S
O164 C167 1.247 . S
O165 Zn159 2.035 . S
O165 C167 1.258 . S
C166 O160 1.247 . S
C166 O161 1.258 . S
C167 O164 1.247 . S
C167 O165 1.258 . S
C168 C169 1.391 . S
C168 C170 1.394 . S
C168 H184 0.931 . S
C169 C168 1.391 . S
C169 C173 1.376 . S
C170 C168 1.394 . S
C170 C171 1.369 . S
C170 C174 1.531 . S
C171 C170 1.369 . S
C171 C172 1.410 . S
C171 C179 1.503 . S
C172 C171 1.410 . S
C172 C173 1.392 . S
C172 C175 1.511 . S
C173 C169 1.376 . S
C173 C172 1.392 . S
C173 H185 0.929 . S
C174 C170 1.531 . S
C174 H186 0.960 . S
C174 H187 0.962 . S
C174 H188 0.960 . S
C175 C172 1.511 . S
C175 H189 0.961 . S
C175 H190 0.961 . S
C175 H191 0.961 . S
C176 C177 1.370 . S
C176 C178 1.363 . S
C176 H192 0.931 . S
C177 C176 1.370 . S
C177 C181 1.408 . S
C178 C176 1.363 . S
C178 C179 1.370 . S
C178 C182 1.524 . S
C179 C171 1.503 . S
C179 C178 1.370 . S
C179 C180 1.403 . S
C180 C179 1.403 . S
C180 C181 1.404 . S
C180 C183 1.539 . S
C181 C177 1.408 . S
C181 C180 1.404 . S
C181 H193 0.930 . S
C182 C178 1.524 . S
C182 H194 0.956 . S
C182 H195 0.961 . S
C182 H196 0.961 . S
C183 C180 1.539 . S
C183 H197 0.958 . S
C183 H198 0.961 . S
C183 H199 0.960 . S
H184 C168 0.931 . S
H185 C173 0.929 . S
H186 C174 0.960 . S
H187 C174 0.962 . S
H188 C174 0.960 . S
H189 C175 0.961 . S
H190 C175 0.961 . S
H191 C175 0.961 . S
H192 C176 0.931 . S
H193 C181 0.930 . S
H194 C182 0.956 . S
H195 C182 0.961 . S
H196 C182 0.961 . S
H197 C183 0.958 . S
H198 C183 0.961 . S
H199 C183 0.960 . S
C200 C201 1.391 . S
C200 C202 1.394 . S
C200 H216 0.931 . S
C201 C200 1.391 . S
C201 C205 1.376 . S
C202 C200 1.394 . S
C202 C203 1.369 . S
C202 C206 1.531 . S
C203 C202 1.369 . S
C203 C204 1.410 . S
C203 C211 1.503 . S
C204 C203 1.410 . S
C204 C205 1.392 . S
C204 C207 1.511 . S
C205 C201 1.376 . S
C205 C204 1.392 . S
C205 H217 0.929 . S
C206 C202 1.531 . S
C206 H218 0.960 . S
C206 H219 0.962 . S
C206 H220 0.960 . S
C207 C204 1.511 . S
C207 H221 0.961 . S
C207 H222 0.961 . S
C207 H223 0.961 . S
C208 C209 1.370 . S
C208 C210 1.363 . S
C208 H224 0.931 . S
C209 C208 1.370 . S
C209 C213 1.408 . S
C210 C208 1.363 . S
C210 C211 1.370 . S
C210 C214 1.524 . S
C211 C203 1.503 . S
C211 C210 1.370 . S
C211 C212 1.403 . S
C212 C211 1.403 . S
C212 C213 1.404 . S
C212 C215 1.539 . S
C213 C209 1.408 . S
C213 C212 1.404 . S
C213 H225 0.930 . S
C214 C210 1.524 . S
C214 H226 0.956 . S
C214 H227 0.961 . S
C214 H228 0.961 . S
C215 C212 1.539 . S
C215 H229 0.958 . S
C215 H230 0.961 . S
C215 H231 0.960 . S
H216 C200 0.931 . S
H217 C205 0.929 . S
H218 C206 0.960 . S
H219 C206 0.962 . S
H220 C206 0.960 . S
H221 C207 0.961 . S
H222 C207 0.961 . S
H223 C207 0.961 . S
H224 C208 0.931 . S
H225 C213 0.930 . S
H226 C214 0.956 . S
H227 C214 0.961 . S
H228 C214 0.961 . S
H229 C215 0.958 . S
H230 C215 0.961 . S
H231 C215 0.960 . S
C232 C233 1.391 . S
C232 C234 1.394 . S
C232 H248 0.931 . S
C233 C232 1.391 . S
C233 C237 1.376 . S
C234 C232 1.394 . S
C234 C235 1.369 . S
C234 C238 1.531 . S
C235 C234 1.369 . S
C235 C236 1.410 . S
C235 C243 1.503 . S
C236 C235 1.410 . S
C236 C237 1.392 . S
C236 C239 1.511 . S
C237 C233 1.376 . S
C237 C236 1.392 . S
C237 H249 0.929 . S
C238 C234 1.531 . S
C238 H250 0.960 . S
C238 H251 0.962 . S
C238 H252 0.960 . S
C239 C236 1.511 . S
C239 H253 0.961 . S
C239 H254 0.961 . S
C239 H255 0.961 . S
C240 C241 1.370 . S
C240 C242 1.363 . S
C240 H256 0.931 . S
C241 C240 1.370 . S
C241 C245 1.408 . S
C242 C240 1.363 . S
C242 C243 1.370 . S
C242 C246 1.524 . S
C243 C235 1.503 . S
C243 C242 1.370 . S
C243 C244 1.403 . S
C244 C243 1.403 . S
C244 C245 1.404 . S
C244 C247 1.539 . S
C245 C241 1.408 . S
C245 C244 1.404 . S
C245 H257 0.930 . S
C246 C242 1.524 . S
C246 H258 0.956 . S
C246 H259 0.961 . S
C246 H260 0.961 . S
C247 C244 1.539 . S
C247 H261 0.958 . S
C247 H262 0.961 . S
C247 H263 0.960 . S
H248 C232 0.931 . S
H249 C237 0.929 . S
H250 C238 0.960 . S
H251 C238 0.962 . S
H252 C238 0.960 . S
H253 C239 0.961 . S
H254 C239 0.961 . S
H255 C239 0.961 . S
H256 C240 0.931 . S
H257 C245 0.930 . S
H258 C246 0.956 . S
H259 C246 0.961 . S
H260 C246 0.961 . S
H261 C247 0.958 . S
H262 C247 0.961 . S
H263 C247 0.960 . S
C264 C265 1.391 . S
C264 C266 1.394 . S
C264 H280 0.931 . S
C265 C264 1.391 . S
C265 C269 1.376 . S
C266 C264 1.394 . S
C266 C267 1.369 . S
C266 C270 1.531 . S
C267 C266 1.369 . S
C267 C268 1.410 . S
C267 C275 1.503 . S
C268 C267 1.410 . S
C268 C269 1.392 . S
C268 C271 1.511 . S
C269 C265 1.376 . S
C269 C268 1.392 . S
C269 H281 0.929 . S
C270 C266 1.531 . S
C270 H282 0.960 . S
C270 H283 0.962 . S
C270 H284 0.960 . S
C271 C268 1.511 . S
C271 H285 0.961 . S
C271 H286 0.961 . S
C271 H287 0.961 . S
C272 C273 1.370 . S
C272 C274 1.363 . S
C272 H288 0.931 . S
C273 C272 1.370 . S
C273 C277 1.408 . S
C274 C272 1.363 . S
C274 C275 1.370 . S
C274 C278 1.524 . S
C275 C267 1.503 . S
C275 C274 1.370 . S
C275 C276 1.403 . S
C276 C275 1.403 . S
C276 C277 1.404 . S
C276 C279 1.539 . S
C277 C273 1.408 . S
C277 C276 1.404 . S
C277 H289 0.930 . S
C278 C274 1.524 . S
C278 H290 0.956 . S
C278 H291 0.961 . S
C278 H292 0.961 . S
C279 C276 1.539 . S
C279 H293 0.958 . S
C279 H294 0.961 . S
C279 H295 0.960 . S
H280 C264 0.931 . S
H281 C269 0.929 . S
H282 C270 0.960 . S
H283 C270 0.962 . S
H284 C270 0.960 . S
H285 C271 0.961 . S
H286 C271 0.961 . S
H287 C271 0.961 . S
H288 C272 0.931 . S
H289 C277 0.930 . S
H290 C278 0.956 . S
H291 C278 0.961 . S
H292 C278 0.961 . S
H293 C279 0.958 . S
H294 C279 0.961 . S
H295 C279 0.960 . S
C296 C297 1.391 . S
C296 C298 1.394 . S
C296 H312 0.931 . S
C297 C296 1.391 . S
C297 C301 1.376 . S
C298 C296 1.394 . S
C298 C299 1.369 . S
C298 C302 1.531 . S
C299 C298 1.369 . S
C299 C300 1.410 . S
C299 C307 1.503 . S
C300 C299 1.410 . S
C300 C301 1.392 . S
C300 C303 1.511 . S
C301 C297 1.376 . S
C301 C300 1.392 . S
C301 H313 0.929 . S
C302 C298 1.531 . S
C302 H314 0.960 . S
C302 H315 0.962 . S
C302 H316 0.960 . S
C303 C300 1.511 . S
C303 H317 0.961 . S
C303 H318 0.961 . S
C303 H319 0.961 . S
C304 C305 1.370 . S
C304 C306 1.363 . S
C304 H320 0.931 . S
C305 C304 1.370 . S
C305 C309 1.408 . S
C306 C304 1.363 . S
C306 C307 1.370 . S
C306 C310 1.524 . S
C307 C299 1.503 . S
C307 C306 1.370 . S
C307 C308 1.403 . S
C308 C307 1.403 . S
C308 C309 1.404 . S
C308 C311 1.539 . S
C309 C305 1.408 . S
C309 C308 1.404 . S
C309 H321 0.930 . S
C310 C306 1.524 . S
C310 H322 0.956 . S
C310 H323 0.961 . S
C310 H324 0.961 . S
C311 C308 1.539 . S
C311 H325 0.958 . S
C311 H326 0.961 . S
C311 H327 0.960 . S
H312 C296 0.931 . S
H313 C301 0.929 . S
H314 C302 0.960 . S
H315 C302 0.962 . S
H316 C302 0.960 . S
H317 C303 0.961 . S
H318 C303 0.961 . S
H319 C303 0.961 . S
H320 C304 0.931 . S
H321 C309 0.930 . S
H322 C310 0.956 . S
H323 C310 0.961 . S
H324 C310 0.961 . S
H325 C311 0.958 . S
H326 C311 0.961 . S
H327 C311 0.960 . S
C328 C329 1.391 . S
C328 C330 1.394 . S
C328 H344 0.931 . S
C329 C328 1.391 . S
C329 C333 1.376 . S
C330 C328 1.394 . S
C330 C331 1.369 . S
C330 C334 1.531 . S
C331 C330 1.369 . S
C331 C332 1.410 . S
C331 C339 1.503 . S
C332 C331 1.410 . S
C332 C333 1.392 . S
C332 C335 1.511 . S
C333 C329 1.376 . S
C333 C332 1.392 . S
C333 H345 0.929 . S
C334 C330 1.531 . S
C334 H346 0.960 . S
C334 H347 0.962 . S
C334 H348 0.960 . S
C335 C332 1.511 . S
C335 H349 0.961 . S
C335 H350 0.961 . S
C335 H351 0.961 . S
C336 C337 1.370 . S
C336 C338 1.363 . S
C336 H352 0.931 . S
C337 C336 1.370 . S
C337 C341 1.408 . S
C338 C336 1.363 . S
C338 C339 1.370 . S
C338 C342 1.524 . S
C339 C331 1.503 . S
C339 C338 1.370 . S
C339 C340 1.403 . S
C340 C339 1.403 . S
C340 C341 1.404 . S
C340 C343 1.539 . S
C341 C337 1.408 . S
C341 C340 1.404 . S
C341 H353 0.930 . S
C342 C338 1.524 . S
C342 H354 0.956 . S
C342 H355 0.961 . S
C342 H356 0.961 . S
C343 C340 1.539 . S
C343 H357 0.958 . S
C343 H358 0.961 . S
C343 H359 0.960 . S
H344 C328 0.931 . S
H345 C333 0.929 . S
H346 C334 0.960 . S
H347 C334 0.962 . S
H348 C334 0.960 . S
H349 C335 0.961 . S
H350 C335 0.961 . S
H351 C335 0.961 . S
H352 C336 0.931 . S
H353 C341 0.930 . S
H354 C342 0.956 . S
H355 C342 0.961 . S
H356 C342 0.961 . S
H357 C343 0.958 . S
H358 C343 0.961 . S
H359 C343 0.960 . S
C360 C361 1.391 . S
C360 C362 1.394 . S
C360 H376 0.931 . S
C361 C360 1.391 . S
C361 C365 1.376 . S
C362 C360 1.394 . S
C362 C363 1.369 . S
C362 C366 1.531 . S
C363 C362 1.369 . S
C363 C364 1.410 . S
C363 C371 1.503 . S
C364 C363 1.410 . S
C364 C365 1.392 . S
C364 C367 1.511 . S
C365 C361 1.376 . S
C365 C364 1.392 . S
C365 H377 0.929 . S
C366 C362 1.531 . S
C366 H378 0.960 . S
C366 H379 0.962 . S
C366 H380 0.960 . S
C367 C364 1.511 . S
C367 H381 0.961 . S
C367 H382 0.961 . S
C367 H383 0.961 . S
C368 C369 1.370 . S
C368 C370 1.363 . S
C368 H384 0.931 . S
C369 C368 1.370 . S
C369 C373 1.408 . S
C370 C368 1.363 . S
C370 C371 1.370 . S
C370 C374 1.524 . S
C371 C363 1.503 . S
C371 C370 1.370 . S
C371 C372 1.403 . S
C372 C371 1.403 . S
C372 C373 1.404 . S
C372 C375 1.539 . S
C373 C369 1.408 . S
C373 C372 1.404 . S
C373 H385 0.930 . S
C374 C370 1.524 . S
C374 H386 0.956 . S
C374 H387 0.961 . S
C374 H388 0.961 . S
C375 C372 1.539 . S
C375 H389 0.958 . S
C375 H390 0.961 . S
C375 H391 0.960 . S
H376 C360 0.931 . S
H377 C365 0.929 . S
H378 C366 0.960 . S
H379 C366 0.962 . S
H380 C366 0.960 . S
H381 C367 0.961 . S
H382 C367 0.961 . S
H383 C367 0.961 . S
H384 C368 0.931 . S
H385 C373 0.930 . S
H386 C374 0.956 . S
H387 C374 0.961 . S
H388 C374 0.961 . S
H389 C375 0.958 . S
H390 C375 0.961 . S
H391 C375 0.960 . S
C392 C393 1.391 . S
C392 C394 1.394 . S
C392 H408 0.931 . S
C393 C392 1.391 . S
C393 C397 1.376 . S
C394 C392 1.394 . S
C394 C395 1.369 . S
C394 C398 1.531 . S
C395 C394 1.369 . S
C395 C396 1.410 . S
C395 C403 1.503 . S
C396 C395 1.410 . S
C396 C397 1.392 . S
C396 C399 1.511 . S
C397 C393 1.376 . S
C397 C396 1.392 . S
C397 H409 0.929 . S
C398 C394 1.531 . S
C398 H410 0.960 . S
C398 H411 0.962 . S
C398 H412 0.960 . S
C399 C396 1.511 . S
C399 H413 0.961 . S
C399 H414 0.961 . S
C399 H415 0.961 . S
C400 C401 1.370 . S
C400 C402 1.363 . S
C400 H416 0.931 . S
C401 C400 1.370 . S
C401 C405 1.408 . S
C402 C400 1.363 . S
C402 C403 1.370 . S
C402 C406 1.524 . S
C403 C395 1.503 . S
C403 C402 1.370 . S
C403 C404 1.403 . S
C404 C403 1.403 . S
C404 C405 1.404 . S
C404 C407 1.539 . S
C405 C401 1.408 . S
C405 C404 1.404 . S
C405 H417 0.930 . S
C406 C402 1.524 . S
C406 H418 0.956 . S
C406 H419 0.961 . S
C406 H420 0.961 . S
C407 C404 1.539 . S
C407 H421 0.958 . S
C407 H422 0.961 . S
C407 H423 0.960 . S
H408 C392 0.931 . S
H409 C397 0.929 . S
H410 C398 0.960 . S
H411 C398 0.962 . S
H412 C398 0.960 . S
H413 C399 0.961 . S
H414 C399 0.961 . S
H415 C399 0.961 . S
H416 C400 0.931 . S
H417 C405 0.930 . S
H418 C406 0.956 . S
H419 C406 0.961 . S
H420 C406 0.961 . S
H421 C407 0.958 . S
H422 C407 0.961 . S
H423 C407 0.960 . S
C424 C425 1.391 . S
C424 C426 1.394 . S
C424 H440 0.931 . S
C425 C424 1.391 . S
C425 C429 1.376 . S
C426 C424 1.394 . S
C426 C427 1.369 . S
C426 C430 1.531 . S
C427 C426 1.369 . S
C427 C428 1.410 . S
C427 C435 1.503 . S
C428 C427 1.410 . S
C428 C429 1.392 . S
C428 C431 1.511 . S
C429 C425 1.376 . S
C429 C428 1.392 . S
C429 H441 0.929 . S
C430 C426 1.531 . S
C430 H442 0.960 . S
C430 H443 0.962 . S
C430 H444 0.960 . S
C431 C428 1.511 . S
C431 H445 0.961 . S
C431 H446 0.961 . S
C431 H447 0.961 . S
C432 C433 1.370 . S
C432 C434 1.363 . S
C432 H448 0.931 . S
C433 C432 1.370 . S
C433 C437 1.408 . S
C434 C432 1.363 . S
C434 C435 1.370 . S
C434 C438 1.524 . S
C435 C427 1.503 . S
C435 C434 1.370 . S
C435 C436 1.403 . S
C436 C435 1.403 . S
C436 C437 1.404 . S
C436 C439 1.539 . S
C437 C433 1.408 . S
C437 C436 1.404 . S
C437 H449 0.930 . S
C438 C434 1.524 . S
C438 H450 0.956 . S
C438 H451 0.961 . S
C438 H452 0.961 . S
C439 C436 1.539 . S
C439 H453 0.958 . S
C439 H454 0.961 . S
C439 H455 0.960 . S
H440 C424 0.931 . S
H441 C429 0.929 . S
H442 C430 0.960 . S
H443 C430 0.962 . S
H444 C430 0.960 . S
H445 C431 0.961 . S
H446 C431 0.961 . S
H447 C431 0.961 . S
H448 C432 0.931 . S
H449 C437 0.930 . S
H450 C438 0.956 . S
H451 C438 0.961 . S
H452 C438 0.961 . S
H453 C439 0.958 . S
H454 C439 0.961 . S
H455 C439 0.960 . S
C456 C457 1.391 . S
C456 C458 1.394 . S
C456 H472 0.931 . S
C457 C456 1.391 . S
C457 C461 1.376 . S
C458 C456 1.394 . S
C458 C459 1.369 . S
C458 C462 1.531 . S
C459 C458 1.369 . S
C459 C460 1.410 . S
C459 C467 1.503 . S
C460 C459 1.410 . S
C460 C461 1.392 . S
C460 C463 1.511 . S
C461 C457 1.376 . S
C461 C460 1.392 . S
C461 H473 0.929 . S
C462 C458 1.531 . S
C462 H474 0.960 . S
C462 H475 0.962 . S
C462 H476 0.960 . S
C463 C460 1.511 . S
C463 H477 0.961 . S
C463 H478 0.961 . S
C463 H479 0.961 . S
C464 C465 1.370 . S
C464 C466 1.363 . S
C464 H480 0.931 . S
C465 C464 1.370 . S
C465 C469 1.408 . S
C466 C464 1.363 . S
C466 C467 1.370 . S
C466 C470 1.524 . S
C467 C459 1.503 . S
C467 C466 1.370 . S
C467 C468 1.403 . S
C468 C467 1.403 . S
C468 C469 1.404 . S
C468 C471 1.539 . S
C469 C465 1.408 . S
C469 C468 1.404 . S
C469 H481 0.930 . S
C470 C466 1.524 . S
C470 H482 0.956 . S
C470 H483 0.961 . S
C470 H484 0.961 . S
C471 C468 1.539 . S
C471 H485 0.958 . S
C471 H486 0.961 . S
C471 H487 0.960 . S
H472 C456 0.931 . S
H473 C461 0.929 . S
H474 C462 0.960 . S
H475 C462 0.962 . S
H476 C462 0.960 . S
H477 C463 0.961 . S
H478 C463 0.961 . S
H479 C463 0.961 . S
H480 C464 0.931 . S
H481 C469 0.930 . S
H482 C470 0.956 . S
H483 C470 0.961 . S
H484 C470 0.961 . S
H485 C471 0.958 . S
H486 C471 0.961 . S
H487 C471 0.960 . S
C488 C489 1.391 . S
C488 C490 1.394 . S
C488 H504 0.931 . S
C489 C488 1.391 . S
C489 C493 1.376 . S
C490 C488 1.394 . S
C490 C491 1.369 . S
C490 C494 1.531 . S
C491 C490 1.369 . S
C491 C492 1.410 . S
C491 C499 1.503 . S
C492 C491 1.410 . S
C492 C493 1.392 . S
C492 C495 1.511 . S
C493 C489 1.376 . S
C493 C492 1.392 . S
C493 H505 0.929 . S
C494 C490 1.531 . S
C494 H506 0.960 . S
C494 H507 0.962 . S
C494 H508 0.960 . S
C495 C492 1.511 . S
C495 H509 0.961 . S
C495 H510 0.961 . S
C495 H511 0.961 . S
C496 C497 1.370 . S
C496 C498 1.363 . S
C496 H512 0.931 . S
C497 C496 1.370 . S
C497 C501 1.408 . S
C498 C496 1.363 . S
C498 C499 1.370 . S
C498 C502 1.524 . S
C499 C491 1.503 . S
C499 C498 1.370 . S
C499 C500 1.403 . S
C500 C499 1.403 . S
C500 C501 1.404 . S
C500 C503 1.539 . S
C501 C497 1.408 . S
C501 C500 1.404 . S
C501 H513 0.930 . S
C502 C498 1.524 . S
C502 H514 0.956 . S
C502 H515 0.961 . S
C502 H516 0.961 . S
C503 C500 1.539 . S
C503 H517 0.958 . S
C503 H518 0.961 . S
C503 H519 0.960 . S
H504 C488 0.931 . S
H505 C493 0.929 . S
H506 C494 0.960 . S
H507 C494 0.962 . S
H508 C494 0.960 . S
H509 C495 0.961 . S
H510 C495 0.961 . S
H511 C495 0.961 . S
H512 C496 0.931 . S
H513 C501 0.930 . S
H514 C502 0.956 . S
H515 C502 0.961 . S
H516 C502 0.961 . S
H517 C503 0.958 . S
H518 C503 0.961 . S
H519 C503 0.960 . S
C520 C521 1.391 . S
C520 C522 1.394 . S
C520 H536 0.931 . S
C521 C520 1.391 . S
C521 C525 1.376 . S
C522 C520 1.394 . S
C522 C523 1.369 . S
C522 C526 1.531 . S
C523 C522 1.369 . S
C523 C524 1.410 . S
C523 C531 1.503 . S
C524 C523 1.410 . S
C524 C525 1.392 . S
C524 C527 1.511 . S
C525 C521 1.376 . S
C525 C524 1.392 . S
C525 H537 0.929 . S
C526 C522 1.531 . S
C526 H538 0.960 . S
C526 H539 0.962 . S
C526 H540 0.960 . S
C527 C524 1.511 . S
C527 H541 0.961 . S
C527 H542 0.961 . S
C527 H543 0.961 . S
C528 C529 1.370 . S
C528 C530 1.363 . S
C528 H544 0.931 . S
C529 C528 1.370 . S
C529 C533 1.408 . S
C530 C528 1.363 . S
C530 C531 1.370 . S
C530 C534 1.524 . S
C531 C523 1.503 . S
C531 C530 1.370 . S
C531 C532 1.403 . S
C532 C531 1.403 . S
C532 C533 1.404 . S
C532 C535 1.539 . S
C533 C529 1.408 . S
C533 C532 1.404 . S
C533 H545 0.930 . S
C534 C530 1.524 . S
C534 H546 0.956 . S
C534 H547 0.961 . S
C534 H548 0.961 . S
C535 C532 1.539 . S
C535 H549 0.958 . S
C535 H550 0.961 . S
C535 H551 0.960 . S
H536 C520 0.931 . S
H537 C525 0.929 . S
H538 C526 0.960 . S
H539 C526 0.962 . S
H540 C526 0.960 . S
H541 C527 0.961 . S
H542 C527 0.961 . S
H543 C527 0.961 . S
H544 C528 0.931 . S
H545 C533 0.930 . S
H546 C534 0.956 . S
H547 C534 0.961 . S
H548 C534 0.961 . S
H549 C535 0.958 . S
H550 C535 0.961 . S
H551 C535 0.960 . S
C552 C553 1.391 . S
C552 C554 1.394 . S
C552 H568 0.931 . S
C553 C552 1.391 . S
C553 C557 1.376 1_655 S
C554 C552 1.394 . S
C554 C555 1.374 . S
C554 C558 1.531 . S
C555 C554 1.374 . S
C555 C556 1.405 1_655 S
C555 C563 1.502 1_655 S
C556 C555 1.405 1_455 S
C556 C557 1.392 . S
C556 C559 1.511 . S
C557 C553 1.376 1_455 S
C557 C556 1.392 . S
C557 H569 0.929 . S
C558 C554 1.531 . S
C558 H570 0.960 . S
C558 H571 0.962 . S
C558 H572 0.960 . S
C559 C556 1.511 . S
C559 H573 0.961 . S
C559 H574 0.961 . S
C559 H575 0.961 . S
C560 C561 1.364 1_655 S
C560 C562 1.365 . S
C560 H576 0.935 . S
C561 C560 1.364 1_455 S
C561 C565 1.408 . S
C562 C560 1.365 . S
C562 C563 1.370 1_655 S
C562 C566 1.524 . S
C563 C555 1.502 1_455 S
C563 C562 1.370 1_455 S
C563 C564 1.403 . S
C564 C563 1.403 . S
C564 C565 1.404 . S
C564 C567 1.539 . S
C565 C561 1.408 . S
C565 C564 1.404 . S
C565 H577 0.930 . S
C566 C562 1.524 . S
C566 H578 0.956 . S
C566 H579 0.961 . S
C566 H580 0.961 . S
C567 C564 1.539 . S
C567 H581 0.958 . S
C567 H582 0.961 . S
C567 H583 0.960 . S
H568 C552 0.931 . S
H569 C557 0.929 . S
H570 C558 0.960 . S
H571 C558 0.962 . S
H572 C558 0.960 . S
H573 C559 0.961 . S
H574 C559 0.961 . S
H575 C559 0.961 . S
H576 C560 0.935 . S
H577 C565 0.930 . S
H578 C566 0.956 . S
H579 C566 0.961 . S
H580 C566 0.961 . S
H581 C567 0.958 . S
H582 C567 0.961 . S
H583 C567 0.960 . S
C584 C585 1.391 . S
C584 C586 1.394 1_545 S
C584 H600 0.931 . S
C585 C584 1.391 . S
C585 C589 1.376 . S
C586 C584 1.394 1_565 S
C586 C587 1.369 . S
C586 C590 1.531 . S
C587 C586 1.369 . S
C587 C588 1.410 1_565 S
C587 C595 1.503 . S
C588 C587 1.410 1_545 S
C588 C589 1.392 . S
C588 C591 1.511 . S
C589 C585 1.376 . S
C589 C588 1.392 . S
C589 H601 0.929 . S
C590 C586 1.531 . S
C590 H602 0.960 . S
C590 H603 0.962 1_565 S
C590 H604 0.960 . S
C591 C588 1.511 . S
C591 H605 0.961 . S
C591 H606 0.961 . S
C591 H607 0.961 1_545 S
C592 C593 1.370 1_545 S
C592 C594 1.363 . S
C592 H608 0.931 . S
C593 C592 1.370 1_565 S
C593 C597 1.408 . S
C594 C592 1.363 . S
C594 C595 1.370 1_545 S
C594 C598 1.524 . S
C595 C587 1.503 . S
C595 C594 1.370 1_565 S
C595 C596 1.403 . S
C596 C595 1.403 . S
C596 C597 1.404 . S
C596 C599 1.539 . S
C597 C593 1.408 . S
C597 C596 1.404 . S
C597 H609 0.930 . S
C598 C594 1.524 . S
C598 H610 0.956 . S
C598 H611 0.961 . S
C598 H612 0.961 . S
C599 C596 1.539 . S
C599 H613 0.958 . S
C599 H614 0.961 . S
C599 H615 0.960 . S
H600 C584 0.931 . S
H601 C589 0.929 . S
H602 C590 0.960 . S
H603 C590 0.962 1_545 S
H604 C590 0.960 . S
H605 C591 0.961 . S
H606 C591 0.961 . S
H607 C591 0.961 1_565 S
H608 C592 0.931 . S
H609 C597 0.930 . S
H610 C598 0.956 . S
H611 C598 0.961 . S
H612 C598 0.961 . S
H613 C599 0.958 . S
H614 C599 0.961 . S
H615 C599 0.960 . S
C616 C617 1.391 1_655 S
C616 C618 1.394 . S
C616 H632 0.931 . S
C617 C616 1.391 1_455 S
C617 C621 1.376 . S
C618 C616 1.394 . S
C618 C619 1.369 1_655 S
C618 C622 1.531 . S
C619 C618 1.369 1_455 S
C619 C620 1.410 . S
C619 C627 1.501 1_455 S
C620 C619 1.410 . S
C620 C621 1.392 . S
C620 C623 1.511 . S
C621 C617 1.376 . S
C621 C620 1.392 . S
C621 H633 0.929 . S
C622 C618 1.531 . S
C622 H634 0.960 . S
C622 H635 0.962 . S
C622 H636 0.960 . S
C623 C620 1.511 . S
C623 H637 0.961 . S
C623 H638 0.961 . S
C623 H639 0.961 . S
C624 C625 1.370 . S
C624 C626 1.363 . S
C624 H640 0.931 . S
C625 C624 1.370 . S
C625 C629 1.408 1_655 S
C626 C624 1.363 . S
C626 C627 1.376 . S
C626 C630 1.524 . S
C627 C619 1.501 1_655 S
C627 C626 1.376 . S
C627 C628 1.399 1_655 S
C628 C627 1.399 1_455 S
C628 C629 1.404 . S
C628 C631 1.539 . S
C629 C625 1.408 1_455 S
C629 C628 1.404 . S
C629 H641 0.930 . S
C630 C626 1.524 . S
C630 H642 0.956 . S
C630 H643 0.961 . S
C630 H644 0.961 . S
C631 C628 1.539 . S
C631 H645 0.958 . S
C631 H646 0.961 . S
C631 H647 0.960 . S
H632 C616 0.931 . S
H633 C621 0.929 . S
H634 C622 0.960 . S
H635 C622 0.962 . S
H636 C622 0.960 . S
H637 C623 0.961 . S
H638 C623 0.961 . S
H639 C623 0.961 . S
H640 C624 0.931 . S
H641 C629 0.930 . S
H642 C630 0.956 . S
H643 C630 0.961 . S
H644 C630 0.961 . S
H645 C631 0.958 . S
H646 C631 0.961 . S
H647 C631 0.960 . S
C648 C649 1.391 1_565 S
C648 C650 1.394 . S
C648 H664 0.931 . S
C649 C648 1.391 1_545 S
C649 C653 1.376 . S
C650 C648 1.394 . S
C650 C651 1.369 1_565 S
C650 C654 1.531 . S
C651 C650 1.369 1_545 S
C651 C652 1.410 . S
C651 C659 1.503 1_545 S
C652 C651 1.410 . S
C652 C653 1.392 . S
C652 C655 1.511 . S
C653 C649 1.376 . S
C653 C652 1.392 . S
C653 H665 0.929 . S
C654 C650 1.531 . S
C654 H666 0.960 . S
C654 H667 0.962 . S
C654 H668 0.960 . S
C655 C652 1.511 . S
C655 H669 0.961 . S
C655 H670 0.961 . S
C655 H671 0.961 . S
C656 C657 1.370 . S
C656 C658 1.363 . S
C656 H672 0.931 . S
C657 C656 1.370 . S
C657 C661 1.408 . S
C658 C656 1.363 . S
C658 C659 1.370 . S
C658 C662 1.524 . S
C659 C651 1.503 1_565 S
C659 C658 1.370 . S
C659 C660 1.403 . S
C660 C659 1.403 . S
C660 C661 1.404 . S
C660 C663 1.534 1_565 S
C661 C657 1.408 . S
C661 C660 1.404 . S
C661 H673 0.930 . S
C662 C658 1.524 . S
C662 H674 0.956 . S
C662 H675 0.961 1_565 S
C662 H676 0.961 . S
C663 C660 1.534 1_545 S
C663 H677 0.930 1_545 S
C663 H678 0.976 . S
C663 H679 0.980 . S
H664 C648 0.931 . S
H665 C653 0.929 . S
H666 C654 0.960 . S
H667 C654 0.962 . S
H668 C654 0.960 . S
H669 C655 0.961 . S
H670 C655 0.961 . S
H671 C655 0.961 . S
H672 C656 0.931 . S
H673 C661 0.930 . S
H674 C662 0.956 . S
H675 C662 0.961 1_545 S
H676 C662 0.961 . S
H677 C663 0.930 1_565 S
H678 C663 0.976 . S
H679 C663 0.980 . S
C680 C681 1.391 1_565 S
C680 C682 1.394 . S
C680 H696 0.931 . S
C681 C680 1.391 1_545 S
C681 C685 1.376 . S
C682 C680 1.394 . S
C682 C683 1.369 . S
C682 C686 1.531 . S
C683 C682 1.369 . S
C683 C684 1.410 1_565 S
C683 C691 1.503 . S
C684 C683 1.410 1_545 S
C684 C685 1.392 . S
C684 C687 1.511 . S
C685 C681 1.376 . S
C685 C684 1.392 . S
C685 H697 0.929 . S
C686 C682 1.531 . S
C686 H698 0.960 . S
C686 H699 0.962 . S
C686 H700 0.960 . S
C687 C684 1.511 . S
C687 H701 0.961 . S
C687 H702 0.961 . S
C687 H703 0.961 . S
C688 C689 1.370 1_545 S
C688 C690 1.363 . S
C688 H704 0.931 . S
C689 C688 1.370 1_565 S
C689 C693 1.408 . S
C690 C688 1.363 . S
C690 C691 1.370 1_545 S
C690 C694 1.524 . S
C691 C683 1.503 . S
C691 C690 1.370 1_565 S
C691 C692 1.403 . S
C692 C691 1.403 . S
C692 C693 1.404 . S
C692 C695 1.539 . S
C693 C689 1.408 . S
C693 C692 1.404 . S
C693 H705 0.930 . S
C694 C690 1.524 . S
C694 H706 0.956 . S
C694 H707 0.961 . S
C694 H708 0.961 . S
C695 C692 1.539 . S
C695 H709 0.958 . S
C695 H710 0.961 . S
C695 H711 0.960 . S
H696 C680 0.931 . S
H697 C685 0.929 . S
H698 C686 0.960 . S
H699 C686 0.962 . S
H700 C686 0.960 . S
H701 C687 0.961 . S
H702 C687 0.961 . S
H703 C687 0.961 . S
H704 C688 0.931 . S
H705 C693 0.930 . S
H706 C694 0.956 . S
H707 C694 0.961 . S
H708 C694 0.961 . S
H709 C695 0.958 . S
H710 C695 0.961 . S
H711 C695 0.960 . S
C712 C713 1.391 . S
C712 C714 1.394 . S
C712 H728 0.931 . S
C713 C712 1.391 . S
C713 C717 1.376 1_455 S
C714 C712 1.394 . S
C714 C715 1.383 . S
C714 C718 1.531 . S
C715 C714 1.383 . S
C715 C716 1.398 1_455 S
C715 C723 1.501 1_455 S
C716 C715 1.398 1_655 S
C716 C717 1.392 . S
C716 C719 1.511 . S
C717 C713 1.376 1_655 S
C717 C716 1.392 . S
C717 H729 0.929 . S
C718 C714 1.531 . S
C718 H730 0.960 . S
C718 H731 0.962 . S
C718 H732 0.960 . S
C719 C716 1.511 . S
C719 H733 0.961 . S
C719 H734 0.961 . S
C719 H735 0.961 . S
C720 C721 1.377 . S
C720 C722 1.361 1_655 S
C720 H736 0.926 1_655 S
C721 C720 1.377 . S
C721 C725 1.408 . S
C722 C720 1.361 1_455 S
C722 C723 1.370 1_455 S
C722 C726 1.524 . S
C723 C715 1.501 1_655 S
C723 C722 1.370 1_655 S
C723 C724 1.403 . S
C724 C723 1.403 . S
C724 C725 1.404 . S
C724 C727 1.539 . S
C725 C721 1.408 . S
C725 C724 1.404 . S
C725 H737 0.930 . S
C726 C722 1.524 . S
C726 H738 0.956 . S
C726 H739 0.961 . S
C726 H740 0.961 . S
C727 C724 1.539 . S
C727 H741 0.958 . S
C727 H742 0.961 . S
C727 H743 0.960 . S
H728 C712 0.931 . S
H729 C717 0.929 . S
H730 C718 0.960 . S
H731 C718 0.962 . S
H732 C718 0.960 . S
H733 C719 0.961 . S
H734 C719 0.961 . S
H735 C719 0.961 . S
H736 C720 0.926 1_455 S
H737 C725 0.930 . S
H738 C726 0.956 . S
H739 C726 0.961 . S
H740 C726 0.961 . S
H741 C727 0.958 . S
H742 C727 0.961 . S
H743 C727 0.960 . S
C744 C745 1.391 . S
C744 C746 1.394 1_545 S
C744 H760 0.931 1_545 S
C745 C744 1.391 . S
C745 C749 1.376 . S
C746 C744 1.394 1_565 S
C746 C747 1.369 1_565 S
C746 C750 1.531 . S
C747 C746 1.369 1_545 S
C747 C748 1.410 . S
C747 C755 1.503 . S
C748 C747 1.410 . S
C748 C749 1.392 . S
C748 C751 1.511 . S
C749 C745 1.376 . S
C749 C748 1.392 . S
C749 H761 0.929 . S
C750 C746 1.531 . S
C750 H762 0.960 . S
C750 H763 0.962 . S
C750 H764 0.960 . S
C751 C748 1.511 . S
C751 H765 0.961 . S
C751 H766 0.961 . S
C751 H767 0.961 . S
C752 C753 1.370 . S
C752 C754 1.363 . S
C752 H768 0.931 . S
C753 C752 1.370 . S
C753 C757 1.408 1_565 S
C754 C752 1.363 . S
C754 C755 1.370 1_565 S
C754 C758 1.524 . S
C755 C747 1.503 . S
C755 C754 1.370 1_545 S
C755 C756 1.403 . S
C756 C755 1.403 . S
C756 C757 1.404 . S
C756 C759 1.539 . S
C757 C753 1.408 1_545 S
C757 C756 1.404 . S
C757 H769 0.930 . S
C758 C754 1.524 . S
C758 H770 0.956 . S
C758 H771 0.961 . S
C758 H772 0.961 . S
C759 C756 1.539 . S
C759 H773 0.958 . S
C759 H774 0.961 . S
C759 H775 0.960 . S
H760 C744 0.931 1_565 S
H761 C749 0.929 . S
H762 C750 0.960 . S
H763 C750 0.962 . S
H764 C750 0.960 . S
H765 C751 0.961 . S
H766 C751 0.961 . S
H767 C751 0.961 . S
H768 C752 0.931 . S
H769 C757 0.930 . S
H770 C758 0.956 . S
H771 C758 0.961 . S
H772 C758 0.961 . S
H773 C759 0.958 . S
H774 C759 0.961 . S
H775 C759 0.960 . S
C776 C777 1.391 . S
C776 C778 1.394 . S
C776 H792 0.931 . S
C777 C776 1.391 . S
C777 C781 1.376 1_655 S
C778 C776 1.394 . S
C778 C779 1.369 . S
C778 C782 1.531 . S
C779 C778 1.369 . S
C779 C780 1.410 1_655 S
C779 C787 1.503 1_655 S
C780 C779 1.410 1_455 S
C780 C781 1.392 . S
C780 C783 1.511 . S
C781 C777 1.376 1_455 S
C781 C780 1.392 . S
C781 H793 0.929 . S
C782 C778 1.531 . S
C782 H794 0.960 . S
C782 H795 0.962 . S
C782 H796 0.960 . S
C783 C780 1.511 . S
C783 H797 0.961 . S
C783 H798 0.961 . S
C783 H799 0.961 . S
C784 C785 1.370 . S
C784 C786 1.360 1_455 S
C784 H800 0.931 . S
C785 C784 1.370 . S
C785 C789 1.408 . S
C786 C784 1.360 1_655 S
C786 C787 1.367 1_655 S
C786 C790 1.531 . S
C787 C779 1.503 1_455 S
C787 C786 1.367 1_455 S
C787 C788 1.403 . S
C788 C787 1.403 . S
C788 C789 1.404 . S
C788 C791 1.539 . S
C789 C785 1.408 . S
C789 C788 1.404 . S
C789 H801 0.930 . S
C790 C786 1.531 . S
C790 H802 0.956 . S
C790 H803 0.961 1_655 S
C790 H804 0.961 . S
C791 C788 1.539 . S
C791 H805 0.958 . S
C791 H806 0.961 . S
C791 H807 0.960 . S
H792 C776 0.931 . S
H793 C781 0.929 . S
H794 C782 0.960 . S
H795 C782 0.962 . S
H796 C782 0.960 . S
H797 C783 0.961 . S
H798 C783 0.961 . S
H799 C783 0.961 . S
H800 C784 0.931 . S
H801 C789 0.930 . S
H802 C790 0.956 . S
H803 C790 0.961 1_455 S
H804 C790 0.961 . S
H805 C791 0.958 . S
H806 C791 0.961 . S
H807 C791 0.960 . S
C808 C809 1.391 1_556 S
C808 C810 1.394 . S
C808 H824 0.931 . S
C809 C808 1.391 1_554 S
C809 C813 1.376 . S
C810 C808 1.394 . S
C810 C811 1.369 . S
C810 C814 1.531 . S
C811 C810 1.369 . S
C811 C812 1.410 1_556 S
C811 C819 1.503 . S
C812 C811 1.410 1_554 S
C812 C813 1.392 . S
C812 C815 1.511 . S
C813 C809 1.376 . S
C813 C812 1.392 . S
C813 H825 0.929 . S
C814 C810 1.531 . S
C814 H826 0.960 . S
C814 H827 0.962 . S
C814 H828 0.960 . S
C815 C812 1.511 . S
C815 H829 0.961 . S
C815 H830 0.961 . S
C815 H831 0.961 1_554 S
C816 C817 1.370 1_554 S
C816 C818 1.363 . S
C816 H832 0.931 . S
C817 C816 1.370 1_556 S
C817 C821 1.408 . S
C818 C816 1.363 . S
C818 C819 1.370 1_554 S
C818 C822 1.524 . S
C819 C811 1.503 . S
C819 C818 1.370 1_556 S
C819 C820 1.403 . S
C820 C819 1.403 . S
C820 C821 1.404 . S
C820 C823 1.539 . S
C821 C817 1.408 . S
C821 C820 1.404 . S
C821 H833 0.930 . S
C822 C818 1.524 . S
C822 H834 0.956 . S
C822 H835 0.961 . S
C822 H836 0.961 . S
C823 C820 1.539 . S
C823 H837 0.958 . S
C823 H838 0.961 . S
C823 H839 0.960 . S
H824 C808 0.931 . S
H825 C813 0.929 . S
H826 C814 0.960 . S
H827 C814 0.962 . S
H828 C814 0.960 . S
H829 C815 0.961 . S
H830 C815 0.961 . S
H831 C815 0.961 1_556 S
H832 C816 0.931 . S
H833 C821 0.930 . S
H834 C822 0.956 . S
H835 C822 0.961 . S
H836 C822 0.961 . S
H837 C823 0.958 . S
H838 C823 0.961 . S
H839 C823 0.960 . S
C840 C841 1.391 . S
C840 C842 1.394 . S
C840 H856 0.931 . S
C841 C840 1.391 . S
C841 C845 1.376 . S
C842 C840 1.394 . S
C842 C843 1.369 . S
C842 C846 1.531 . S
C843 C842 1.369 . S
C843 C844 1.410 . S
C843 C851 1.503 . S
C844 C843 1.410 . S
C844 C845 1.392 . S
C844 C847 1.511 . S
C845 C841 1.376 . S
C845 C844 1.392 . S
C845 H857 0.929 . S
C846 C842 1.531 . S
C846 H858 0.960 . S
C846 H859 0.962 1_556 S
C846 H860 0.960 . S
C847 C844 1.511 . S
C847 H861 0.961 . S
C847 H862 0.961 . S
C847 H863 0.961 . S
C848 C849 1.370 . S
C848 C850 1.363 . S
C848 H864 0.931 . S
C849 C848 1.370 . S
C849 C853 1.408 1_554 S
C850 C848 1.363 . S
C850 C851 1.370 1_554 S
C850 C854 1.524 . S
C851 C843 1.503 . S
C851 C850 1.370 1_556 S
C851 C852 1.403 . S
C852 C851 1.403 . S
C852 C853 1.404 . S
C852 C855 1.539 . S
C853 C849 1.408 1_556 S
C853 C852 1.404 . S
C853 H865 0.930 . S
C854 C850 1.524 . S
C854 H866 0.956 . S
C854 H867 0.961 . S
C854 H868 0.961 . S
C855 C852 1.539 . S
C855 H869 0.958 . S
C855 H870 0.961 . S
C855 H871 0.960 . S
H856 C840 0.931 . S
H857 C845 0.929 . S
H858 C846 0.960 . S
H859 C846 0.962 1_554 S
H860 C846 0.960 . S
H861 C847 0.961 . S
H862 C847 0.961 . S
H863 C847 0.961 . S
H864 C848 0.931 . S
H865 C853 0.930 . S
H866 C854 0.956 . S
H867 C854 0.961 . S
H868 C854 0.961 . S
H869 C855 0.958 . S
H870 C855 0.961 . S
H871 C855 0.960 . S
C872 C873 1.391 . S
C872 C874 1.394 . S
C872 H888 0.931 . S
C873 C872 1.391 . S
C873 C877 1.376 . S
C874 C872 1.394 . S
C874 C875 1.369 . S
C874 C878 1.531 . S
C875 C874 1.369 . S
C875 C876 1.410 . S
C875 C883 1.503 . S
C876 C875 1.410 . S
C876 C877 1.392 . S
C876 C879 1.511 . S
C877 C873 1.376 . S
C877 C876 1.392 . S
C877 H889 0.929 . S
C878 C874 1.531 . S
C878 H890 0.960 . S
C878 H891 0.962 1_556 S
C878 H892 0.960 . S
C879 C876 1.511 . S
C879 H893 0.961 1_556 S
C879 H894 0.961 1_556 S
C879 H895 0.961 . S
C880 C881 1.370 . S
C880 C882 1.363 . S
C880 H896 0.931 . S
C881 C880 1.370 . S
C881 C885 1.408 1_554 S
C882 C880 1.363 . S
C882 C883 1.370 1_554 S
C882 C886 1.524 . S
C883 C875 1.503 . S
C883 C882 1.370 1_556 S
C883 C884 1.403 . S
C884 C883 1.403 . S
C884 C885 1.404 . S
C884 C887 1.539 . S
C885 C881 1.408 1_556 S
C885 C884 1.404 . S
C885 H897 0.930 . S
C886 C882 1.524 . S
C886 H898 0.956 . S
C886 H899 0.961 . S
C886 H900 0.961 . S
C887 C884 1.539 . S
C887 H901 0.958 . S
C887 H902 0.961 . S
C887 H903 0.960 . S
H888 C872 0.931 . S
H889 C877 0.929 . S
H890 C878 0.960 . S
H891 C878 0.962 1_554 S
H892 C878 0.960 . S
H893 C879 0.961 1_554 S
H894 C879 0.961 1_554 S
H895 C879 0.961 . S
H896 C880 0.931 . S
H897 C885 0.930 . S
H898 C886 0.956 . S
H899 C886 0.961 . S
H900 C886 0.961 . S
H901 C887 0.958 . S
H902 C887 0.961 . S
H903 C887 0.960 . S
C904 C905 1.391 . S
C904 C906 1.394 . S
C904 H920 0.931 . S
C905 C904 1.391 . S
C905 C909 1.376 1_554 S
C906 C904 1.394 . S
C906 C907 1.396 . S
C906 C910 1.531 . S
C907 C906 1.396 . S
C907 C908 1.388 1_554 S
C907 C915 1.499 1_554 S
C908 C907 1.388 1_556 S
C908 C909 1.392 . S
C908 C911 1.511 . S
C909 C905 1.376 1_556 S
C909 C908 1.392 . S
C909 H921 0.929 . S
C910 C906 1.531 . S
C910 H922 0.960 . S
C910 H923 0.962 . S
C910 H924 0.960 . S
C911 C908 1.511 . S
C911 H925 0.961 . S
C911 H926 0.961 . S
C911 H927 0.961 . S
C912 C913 1.370 . S
C912 C914 1.363 1_556 S
C912 H928 0.931 1_556 S
C913 C912 1.370 . S
C913 C917 1.408 . S
C914 C912 1.363 1_554 S
C914 C915 1.370 1_554 S
C914 C918 1.524 . S
C915 C907 1.499 1_556 S
C915 C914 1.370 1_556 S
C915 C916 1.403 . S
C916 C915 1.403 . S
C916 C917 1.404 . S
C916 C919 1.539 . S
C917 C913 1.408 . S
C917 C916 1.404 . S
C917 H929 0.930 . S
C918 C914 1.524 . S
C918 H930 0.956 . S
C918 H931 0.961 . S
C918 H932 0.961 . S
C919 C916 1.539 . S
C919 H933 0.958 . S
C919 H934 0.961 . S
C919 H935 0.960 . S
H920 C904 0.931 . S
H921 C909 0.929 . S
H922 C910 0.960 . S
H923 C910 0.962 . S
H924 C910 0.960 . S
H925 C911 0.961 . S
H926 C911 0.961 . S
H927 C911 0.961 . S
H928 C912 0.931 1_554 S
H929 C917 0.930 . S
H930 C918 0.956 . S
H931 C918 0.961 . S
H932 C918 0.961 . S
H933 C919 0.958 . S
H934 C919 0.961 . S
H935 C919 0.960 . S
C169 C12 1.451 . S
C177 C99 1.449 . S
C201 C27 1.455 . S
C209 C69 1.449 . S
C233 C71 1.438 . S
C241 C29 1.444 . S
C265 C97 1.443 . S
C273 C55 1.447 . S
C297 C113 1.454 . S
C305 C110 1.450 . S
C329 C126 1.428 . S
C337 C56 1.438 . S
C361 C140 1.450 . S
C369 C82 1.448 . S
C393 C167 1.454 . S
C401 C84 1.450 . S
C425 C14 1.430 . S
C433 C139 1.441 . S
C457 C153 1.447 . S
C465 C40 1.446 . S
C489 C42 1.431 . S
C497 C154 1.440 . S
C521 C124 1.436 . S
C529 C1 1.442 . S
C553 C85 1.737 . S
C561 C0 1.725 . S
C585 C111 1.744 . S
C593 C15 1.722 . S
C617 C57 1.715 . S
C625 C41 1.737 . S
C649 C43 1.725 . S
C657 C83 1.732 . S
C681 C98 1.735 . S
C689 C70 1.726 . S
C713 C68 1.734 . S
C721 C96 1.727 . S
C745 C54 1.708 . S
C753 C26 1.737 . S
C777 C28 1.731 . S
C785 C13 1.726 . S
C809 C112 1.743 . S
C817 C138 1.723 . S
C841 C127 1.706 . S
C849 C152 1.739 . S
C873 C155 1.708 . S
C881 C141 1.739 . S
C905 C125 1.732 . S
C913 C166 1.727 . S
