# Generated by pormake.
# Topology usf, (4)-cn, num edge types: 1
# Building blocks:
#     Node 0, Type 0, BuildingBlock: MUDLON_clean_sbu_0, # of connection points: 4
#     Node 1, Type 0, BuildingBlock: MUDLON_clean_sbu_0, # of connection points: 4
#     Node 2, Type 0, BuildingBlock: MUDLON_clean_sbu_0, # of connection points: 4
#     Node 3, Type 0, BuildingBlock: MUDLON_clean_sbu_0, # of connection points: 4
#     Node 4, Type 0, BuildingBlock: MUDLON_clean_sbu_0, # of connection points: 4
#     Node 5, Type 0, BuildingBlock: MUDLON_clean_sbu_0, # of connection points: 4
#     Node 6, Type 0, BuildingBlock: MUDLON_clean_sbu_0, # of connection points: 4
#     Node 7, Type 0, BuildingBlock: MUDLON_clean_sbu_0, # of connection points: 4
#     Node 8, Type 0, BuildingBlock: MUDLON_clean_sbu_0, # of connection points: 4
#     Node 9, Type 0, BuildingBlock: MUDLON_clean_sbu_0, # of connection points: 4
#     Node 10, Type 0, BuildingBlock: MUDLON_clean_sbu_0, # of connection points: 4
#     Node 11, Type 0, BuildingBlock: MUDLON_clean_sbu_0, # of connection points: 4
#     Node 12, Type 0, BuildingBlock: MUDLON_clean_sbu_0, # of connection points: 4
#     Node 13, Type 0, BuildingBlock: MUDLON_clean_sbu_0, # of connection points: 4
#     Node 14, Type 0, BuildingBlock: MUDLON_clean_sbu_0, # of connection points: 4
#     Node 15, Type 0, BuildingBlock: MUDLON_clean_sbu_0, # of connection points: 4
#     Node 16, Type 0, BuildingBlock: MUDLON_clean_sbu_0, # of connection points: 4
#     Node 17, Type 0, BuildingBlock: MUDLON_clean_sbu_0, # of connection points: 4
#     Edge 18, Type (0, 0), BuildingBlock: CIFDUS_clean_linker_0, # of connection points: 2
#     Edge 19, Type (0, 0), BuildingBlock: CIFDUS_clean_linker_0, # of connection points: 2
#     Edge 20, Type (0, 0), BuildingBlock: CIFDUS_clean_linker_0, # of connection points: 2
#     Edge 21, Type (0, 0), BuildingBlock: CIFDUS_clean_linker_0, # of connection points: 2
#     Edge 22, Type (0, 0), BuildingBlock: CIFDUS_clean_linker_0, # of connection points: 2
#     Edge 23, Type (0, 0), BuildingBlock: CIFDUS_clean_linker_0, # of connection points: 2
#     Edge 24, Type (0, 0), BuildingBlock: CIFDUS_clean_linker_0, # of connection points: 2
#     Edge 25, Type (0, 0), BuildingBlock: CIFDUS_clean_linker_0, # of connection points: 2
#     Edge 26, Type (0, 0), BuildingBlock: CIFDUS_clean_linker_0, # of connection points: 2
#     Edge 27, Type (0, 0), BuildingBlock: CIFDUS_clean_linker_0, # of connection points: 2
#     Edge 28, Type (0, 0), BuildingBlock: CIFDUS_clean_linker_0, # of connection points: 2
#     Edge 29, Type (0, 0), BuildingBlock: CIFDUS_clean_linker_0, # of connection points: 2
#     Edge 30, Type (0, 0), BuildingBlock: CIFDUS_clean_linker_0, # of connection points: 2
#     Edge 31, Type (0, 0), BuildingBlock: CIFDUS_clean_linker_0, # of connection points: 2
#     Edge 32, Type (0, 0), BuildingBlock: CIFDUS_clean_linker_0, # of connection points: 2
#     Edge 33, Type (0, 0), BuildingBlock: CIFDUS_clean_linker_0, # of connection points: 2
#     Edge 34, Type (0, 0), BuildingBlock: CIFDUS_clean_linker_0, # of connection points: 2
#     Edge 35, Type (0, 0), BuildingBlock: CIFDUS_clean_linker_0, # of connection points: 2
#     Edge 36, Type (0, 0), BuildingBlock: CIFDUS_clean_linker_0, # of connection points: 2
#     Edge 37, Type (0, 0), BuildingBlock: CIFDUS_clean_linker_0, # of connection points: 2
#     Edge 38, Type (0, 0), BuildingBlock: CIFDUS_clean_linker_0, # of connection points: 2
#     Edge 39, Type (0, 0), BuildingBlock: CIFDUS_clean_linker_0, # of connection points: 2
#     Edge 40, Type (0, 0), BuildingBlock: CIFDUS_clean_linker_0, # of connection points: 2
#     Edge 41, Type (0, 0), BuildingBlock: CIFDUS_clean_linker_0, # of connection points: 2
#     Edge 42, Type (0, 0), BuildingBlock: CIFDUS_clean_linker_0, # of connection points: 2
#     Edge 43, Type (0, 0), BuildingBlock: CIFDUS_clean_linker_0, # of connection points: 2
#     Edge 44, Type (0, 0), BuildingBlock: CIFDUS_clean_linker_0, # of connection points: 2
#     Edge 45, Type (0, 0), BuildingBlock: CIFDUS_clean_linker_0, # of connection points: 2
#     Edge 46, Type (0, 0), BuildingBlock: CIFDUS_clean_linker_0, # of connection points: 2
#     Edge 47, Type (0, 0), BuildingBlock: CIFDUS_clean_linker_0, # of connection points: 2
#     Edge 48, Type (0, 0), BuildingBlock: CIFDUS_clean_linker_0, # of connection points: 2
#     Edge 49, Type (0, 0), BuildingBlock: CIFDUS_clean_linker_0, # of connection points: 2
#     Edge 50, Type (0, 0), BuildingBlock: CIFDUS_clean_linker_0, # of connection points: 2
#     Edge 51, Type (0, 0), BuildingBlock: CIFDUS_clean_linker_0, # of connection points: 2
#     Edge 52, Type (0, 0), BuildingBlock: CIFDUS_clean_linker_0, # of connection points: 2
#     Edge 53, Type (0, 0), BuildingBlock: CIFDUS_clean_linker_0, # of connection points: 2
# Relax obj value: 0.161
# Max RMSD: 0.154
# Mean RMSD: 0.149
data_MOF--net-usf--node1-MUDLON_clean_sbu_0--edge1-CIFDUS_clean_linker_0
_symmetry_space_group_name_H-M    P1
_symmetry_Int_Tables_number       1
_symmetry_cell_setting            triclinic
loop_
_symmetry_equiv_pos_as_xyz
'x, y, z'
_cell_length_a     43.531301
_cell_length_b     43.562794
_cell_length_c     25.709617
_cell_angle_alpha  90.568949
_cell_angle_beta   89.625642
_cell_angle_gamma 119.79568
loop_
_atom_site_label
_atom_site_type_symbol
_atom_site_fract_x
_atom_site_fract_y
_atom_site_fract_z
_atom_type_partial_charge
Mg0 Mg 0.96887 0.46756 0.00812 0.0
C1 C 1.0017 0.42115 0.99157 0.0
O2 O 1.02395 0.44412 0.02534 0.0
C3 C 0.90083 0.45518 0.0618 0.0
O4 O 0.9132 0.44425 0.09946 0.0
C5 C 0.9767 0.49896 0.90345 0.0
O6 O 0.94454 0.47154 0.90145 0.0
O7 O 0.994 0.50547 0.94573 0.0
O8 O 0.97402 0.42256 0.97968 0.0
O9 O 0.99539 0.48889 0.08228 0.0
C10 C 0.99417 0.46905 0.11917 0.0
O11 O 0.97843 0.43467 0.11163 0.0
O12 O 0.91652 0.46244 0.01787 0.0
Mg13 Mg 0.54914 0.54366 0.02224 0.0
C14 C 0.59845 0.61113 0.97077 0.0
O15 O 0.56699 0.60625 0.95904 0.0
C16 C 0.55481 0.48923 0.08723 0.0
O17 O 0.57485 0.51731 0.11578 0.0
C18 C 0.51567 0.5133 0.92287 0.0
O19 O 0.53634 0.49981 0.93089 0.0
O20 O 0.51332 0.53266 0.95818 0.0
O21 O 0.60033 0.5875 0.99727 0.0
O22 O 0.53487 0.55915 0.0942 0.0
C23 C 0.55174 0.59049 0.11217 0.0
O24 O 0.57481 0.61604 0.08256 0.0
O25 O 0.54389 0.4931 0.04338 0.0
Mg26 Mg 0.50969 0.98554 0.07494 0.0
C27 C 0.49929 0.94249 0.9777 0.0
O28 O 0.46743 0.92555 0.99811 0.0
C29 C 0.51692 0.95118 0.17431 0.0
O30 O 0.55005 0.96549 0.15901 0.0
C31 C 0.43212 0.95944 0.06246 0.0
O32 O 0.43157 0.93697 0.09662 0.0
O33 O 0.46188 0.98559 0.04933 0.0
O34 O 0.52417 0.96692 0.00439 0.0
O35 O 0.5538 0.03617 0.1026 0.0
C36 C 0.58146 0.05754 0.07738 0.0
O37 O 0.58373 0.05173 0.02764 0.0
O38 O 0.49451 0.95273 0.14457 0.0
Mg39 Mg 0.5204 0.97024 0.56967 0.0
C40 C 0.56925 0.94769 0.52919 0.0
O41 O 0.53822 0.9189 0.53341 0.0
C42 C 0.48244 1.01043 0.59767 0.0
O43 O 0.45779 0.97747 0.60543 0.0
C44 C 0.4742 0.95047 0.47282 0.0
O45 O 0.47186 0.97828 0.48692 0.0
O46 O 0.48829 0.93847 0.50384 0.0
O47 O 0.57193 0.97709 0.54376 0.0
O48 O 0.5125 0.9475 0.64747 0.0
C49 C 0.48351 0.92534 0.6688 0.0
O50 O 0.45427 0.91105 0.64121 0.0
O51 O 0.5127 1.01651 0.58096 0.0
Mg52 Mg 0.07199 0.55438 0.51495 0.0
C53 C 0.09791 0.63001 0.489 0.0
O54 O 0.06353 0.61472 0.48196 0.0
C55 C 0.06373 0.48407 0.53919 0.0
O56 O 0.03707 0.47673 0.50814 0.0
C57 C 0.065 0.5216 0.41023 0.0
O58 O 0.09207 0.5201 0.42959 0.0
O59 O 0.04992 0.53477 0.43776 0.0
O60 O 0.11081 0.61101 0.50474 0.0
O61 O 0.03438 0.55048 0.57407 0.0
C62 C 0.04914 0.56339 0.61764 0.0
O63 O 0.0839 0.58091 0.61954 0.0
O64 O 0.08623 0.51651 0.54838 0.0
Mg65 Mg 0.53792 0.58224 0.53071 0.0
C66 C 0.46547 0.54923 0.4964 0.0
O67 O 0.47554 0.52537 0.4941 0.0
C68 C 0.61511 0.63241 0.54023 0.0
O69 O 0.61274 0.60989 0.504 0.0
C70 C 0.55282 0.5929 0.42161 0.0
O71 O 0.55407 0.62191 0.4393 0.0
O72 O 0.54832 0.56908 0.4539 0.0
O73 O 0.48749 0.58001 0.51385 0.0
O74 O 0.52565 0.54293 0.58991 0.0
C75 C 0.50473 0.54278 0.62478 0.0
O76 O 0.49108 0.56349 0.61899 0.0
O77 O 0.58655 0.62938 0.55912 0.0
Mg78 Mg 0.74685 0.85573 0.37403 0.0
C79 C 0.70783 0.89368 0.41284 0.0
O80 O 0.74067 0.91841 0.42179 0.0
C81 C 0.71807 0.77471 0.385 0.0
O82 O 0.71078 0.77949 0.43307 0.0
C83 C 0.79085 0.85298 0.46649 0.0
O84 O 0.78747 0.82489 0.44194 0.0
O85 O 0.77898 0.87135 0.44537 0.0
O86 O 0.70216 0.86463 0.39177 0.0
O87 O 0.77502 0.88317 0.30294 0.0
C88 C 0.7636 0.89926 0.27489 0.0
O89 O 0.73712 0.90287 0.29227 0.0
O90 O 0.73085 0.80073 0.35394 0.0
Mg91 Mg 0.22058 0.90741 0.36409 0.0
C92 C 0.21301 0.8855 0.25498 0.0
O93 O 0.18248 0.8631 0.27618 0.0
C94 C 0.26177 0.94904 0.45762 0.0
O95 O 0.24719 0.96774 0.44344 0.0
C96 C 0.1961 0.95514 0.31321 0.0
O97 O 0.17887 0.92789 0.28197 0.0
O98 O 0.20908 0.95091 0.35499 0.0
O99 O 0.23838 0.90563 0.28501 0.0
O100 O 0.18006 0.85327 0.38682 0.0
C101 C 0.19263 0.83375 0.40149 0.0
O102 O 0.22717 0.84739 0.40164 0.0
O103 O 0.25874 0.92416 0.42774 0.0
Mg104 Mg 0.19918 0.43527 0.33683 0.0
C105 C 0.22752 0.45477 0.2314 0.0
O106 O 0.24004 0.43502 0.24927 0.0
C107 C 0.15859 0.42872 0.43651 0.0
O108 O 0.13279 0.40423 0.40853 0.0
C109 C 0.12821 0.39354 0.29339 0.0
O110 O 0.13641 0.42684 0.28992 0.0
O111 O 0.15099 0.38666 0.31316 0.0
O112 O 0.21076 0.46408 0.26293 0.0
O113 O 0.24902 0.4377 0.3582 0.0
C114 C 0.27112 0.46871 0.37468 0.0
O115 O 0.2616 0.49299 0.3742 0.0
O116 O 0.18748 0.45002 0.41377 0.0
Mg117 Mg 0.19662 0.36669 0.83565 0.0
C118 C 0.12349 0.36042 0.84978 0.0
O119 O 0.13443 0.38205 0.81011 0.0
C120 C 0.22204 0.31543 0.78889 0.0
O121 O 0.21696 0.32591 0.74364 0.0
C122 C 0.21404 0.41901 0.92644 0.0
O123 O 0.1866 0.42006 0.90765 0.0
O124 O 0.22614 0.40184 0.90132 0.0
O125 O 0.14235 0.3473 0.86507 0.0
O126 O 0.20405 0.39414 0.7609 0.0
C127 C 0.18076 0.37912 0.72547 0.0
O128 O 0.15383 0.34739 0.73419 0.0
O129 O 0.21455 0.32681 0.83042 0.0
Mg130 Mg 0.79755 0.88064 0.86385 0.0
C131 C 0.8117 0.84438 0.77134 0.0
O132 O 0.78722 0.81542 0.79354 0.0
C133 C 0.80518 0.90501 0.97195 0.0
O134 O 0.78511 0.91563 0.94941 0.0
C135 C 0.83024 0.95346 0.82845 0.0
O136 O 0.85636 0.94695 0.83528 0.0
O137 O 0.79887 0.92922 0.83954 0.0
O138 O 0.8243 0.87361 0.79605 0.0
O139 O 0.74636 0.83208 0.87148 0.0
C140 C 0.74808 0.80765 0.89602 0.0
O141 O 0.77904 0.81413 0.9136 0.0
O142 O 0.81831 0.89014 0.94366 0.0
Mg143 Mg 0.20844 0.9082 0.85806 0.0
C144 C 0.25123 0.93382 0.7621 0.0
O145 O 0.25435 0.90638 0.77492 0.0
C146 C 0.1793 0.91476 0.95981 0.0
O147 O 0.15025 0.89099 0.93655 0.0
C148 C 0.14128 0.87705 0.79447 0.0
O149 O 0.162 0.90575 0.76811 0.0
O150 O 0.15394 0.86963 0.83396 0.0
O151 O 0.23431 0.94339 0.79264 0.0
O152 O 0.24487 0.89031 0.88111 0.0
C153 C 0.24268 0.8782 0.92661 0.0
O154 O 0.21284 0.86634 0.95246 0.0
O155 O 0.20727 0.93154 0.93274 0.0
Mg156 Mg 0.38337 0.18941 0.71217 0.0
C157 C 0.33059 0.21136 0.75409 0.0
O158 O 0.35094 0.21833 0.79506 0.0
C159 C 0.41276 0.14371 0.68178 0.0
O160 O 0.43987 0.176 0.6847 0.0
C161 C 0.41034 0.18714 0.81914 0.0
O162 O 0.39562 0.15335 0.80729 0.0
O163 O 0.41059 0.20845 0.78549 0.0
O164 O 0.33591 0.19636 0.71469 0.0
O165 O 0.4152 0.22219 0.64904 0.0
C166 C 0.41608 0.25039 0.63469 0.0
O167 O 0.39958 0.26316 0.66271 0.0
O168 O 0.38202 0.13909 0.69271 0.0
Mg169 Mg 0.93291 0.21845 0.6761 0.0
C170 C 0.89263 0.22491 0.58411 0.0
O171 O 0.9073 0.25776 0.60093 0.0
C172 C 0.88643 0.22377 0.76437 0.0
O173 O 0.86256 0.21606 0.72802 0.0
C174 C 0.99284 0.29654 0.66735 0.0
O175 O 0.98199 0.29931 0.71406 0.0
O176 O 0.9798 0.26598 0.64615 0.0
O177 O 0.89615 0.20241 0.61073 0.0
O178 O 0.93386 0.16999 0.69372 0.0
C179 C 0.9027 0.14567 0.70576 0.0
O180 O 0.87672 0.15271 0.70259 0.0
O181 O 0.91673 0.22839 0.75203 0.0
Mg182 Mg 0.86809 0.72514 0.69023 0.0
C183 C 0.85686 0.66643 0.61327 0.0
O184 O 0.83479 0.6459 0.64919 0.0
C185 C 0.86357 0.70946 0.80255 0.0
O186 O 0.88161 0.74419 0.80188 0.0
C187 C 0.79544 0.72061 0.69767 0.0
O188 O 0.7967 0.71045 0.74515 0.0
O189 O 0.8228 0.73176 0.66874 0.0
O190 O 0.87493 0.6995 0.62182 0.0
O191 O 0.92052 0.77013 0.70858 0.0
C192 C 0.9454 0.78293 0.67515 0.0
O193 O 0.9382 0.77271 0.62636 0.0
O194 O 0.85356 0.69268 0.75954 0.0
Mg195 Mg 0.81515 0.62167 0.205 0.0
C196 C 0.76034 0.63079 0.26613 0.0
O197 O 0.77385 0.62148 0.30427 0.0
C198 C 0.79646 0.54046 0.19673 0.0
O199 O 0.7766 0.53255 0.23862 0.0
C200 C 0.84399 0.62134 0.31143 0.0
O201 O 0.82361 0.58722 0.30367 0.0
O202 O 0.84773 0.64238 0.27481 0.0
O203 O 0.76897 0.62808 0.21957 0.0
O204 O 0.83946 0.65455 0.13742 0.0
C205 C 0.82494 0.63945 0.09469 0.0
O206 O 0.7979 0.60706 0.09598 0.0
O207 O 0.81139 0.57178 0.17906 0.0
Mg208 Mg 0.3962 0.22064 0.2305 0.0
C209 C 0.40585 0.2122 0.12118 0.0
O210 O 0.39071 0.23178 0.1237 0.0
C211 C 0.42605 0.25193 0.33115 0.0
O212 O 0.40977 0.26877 0.31562 0.0
C213 C 0.44201 0.29471 0.20291 0.0
O214 O 0.46348 0.28323 0.21698 0.0
O215 O 0.40873 0.27379 0.20657 0.0
O216 O 0.41154 0.20061 0.16314 0.0
O217 O 0.34266 0.18106 0.2551 0.0
C218 C 0.32297 0.15352 0.22814 0.0
O219 O 0.33235 0.15144 0.18014 0.0
O220 O 0.42683 0.22913 0.30067 0.0
Mg221 Mg 0.85311 0.22188 0.18288 0.0
C222 C 0.85976 0.21899 0.07259 0.0
O223 O 0.84962 0.24211 0.08371 0.0
C224 C 0.85822 0.18042 0.28164 0.0
O225 O 0.87246 0.16583 0.25249 0.0
C226 C 0.77383 0.19183 0.18525 0.0
O227 O 0.77776 0.17509 0.22458 0.0
O228 O 0.80145 0.21669 0.16395 0.0
O229 O 0.86455 0.20281 0.1101 0.0
O230 O 0.90204 0.27245 0.19422 0.0
C231 C 0.92762 0.26662 0.20236 0.0
O232 O 0.92106 0.23377 0.19989 0.0
O233 O 0.8478 0.2 0.26087 0.0
H234 H 0.03861 0.54697 0.33731 0.0
H235 H 0.06344 0.46432 0.36542 0.0
H236 H 0.04351 0.44048 0.27798 0.0
H237 H 1.0189 0.44306 0.19323 0.0
H238 H 0.9989 0.52865 0.16219 0.0
H239 H 1.01721 0.55156 0.25059 0.0
C240 C 0.03937 0.52362 0.32422 0.0
C241 C 0.05205 0.50715 0.35773 0.0
C242 C 1.02893 0.51072 0.27324 0.0
C243 C 0.05366 0.47735 0.34019 0.0
C244 C 0.04227 0.46369 0.29023 0.0
C245 C 1.01866 0.46677 0.20588 0.0
C246 C 1.00748 0.48408 0.17142 0.0
C247 C 1.0299 0.48018 0.25637 0.0
C248 C 1.00763 0.51499 0.18798 0.0
C249 C 1.0179 0.52799 0.23859 0.0
H250 H 0.56868 0.64107 0.3456 0.0
H251 H 0.53555 0.53105 0.37061 0.0
H252 H 0.52994 0.52028 0.27676 0.0
H253 H 0.53408 0.54203 0.18809 0.0
H254 H 0.56973 0.65251 0.16267 0.0
H255 H 0.5741 0.66312 0.25673 0.0
C256 C 0.56035 0.61474 0.33055 0.0
C257 C 0.55248 0.58687 0.36499 0.0
C258 C 0.55718 0.60877 0.2767 0.0
C259 C 0.54194 0.55298 0.34489 0.0
C260 C 0.53849 0.54676 0.29129 0.0
C261 C 0.54233 0.56835 0.20312 0.0
C262 C 0.55112 0.59641 0.16862 0.0
C263 C 0.54577 0.5744 0.25693 0.0
C264 C 0.56256 0.63049 0.18858 0.0
C265 C 0.56523 0.63658 0.24224 0.0
H266 H 0.46157 0.94709 0.22985 0.0
H267 H 0.55205 0.93219 0.24303 0.0
H268 H 0.54271 0.92435 0.33698 0.0
H269 H 0.51384 0.92981 0.41639 0.0
H270 H 0.42757 0.95125 0.40359 0.0
H271 H 0.42977 0.94782 0.30869 0.0
C272 C 0.47879 0.94134 0.25307 0.0
C273 C 0.50756 0.94033 0.22937 0.0
C274 C 0.47409 0.93826 0.30737 0.0
C275 C 0.52981 0.93324 0.26025 0.0
C276 C 0.52453 0.92885 0.31404 0.0
C277 C 0.49485 0.93269 0.39284 0.0
C278 C 0.47039 0.94055 0.41697 0.0
C279 C 0.49744 0.93242 0.33823 0.0
C280 C 0.4465 0.94503 0.3859 0.0
C281 C 0.44793 0.9433 0.33164 0.0
H282 H 0.07425 0.58471 0.71548 0.0
H283 H 0.97778 0.51903 0.63062 0.0
H284 H 0.94611 0.49554 0.71247 0.0
H285 H 0.9473 0.48938 0.80729 0.0
H286 H 0.04443 0.55375 0.89153 0.0
H287 H 0.07427 0.58213 0.81063 0.0
C288 C 0.04617 0.56561 0.71477 0.0
C289 C 1.02852 0.55342 0.66683 0.0
C290 C 1.02831 0.55171 0.76188 0.0
C291 C 0.99207 0.52883 0.66686 0.0
C292 C 0.97398 0.51524 0.71368 0.0
C293 C 0.97491 0.50989 0.80813 0.0
C294 C 0.99367 0.51912 0.85548 0.0
C295 C 0.99206 0.5258 0.76132 0.0
C296 C 1.02936 0.54594 0.85572 0.0
C297 C 0.04649 0.56216 0.80941 0.0
H298 H 0.47 0.54637 0.71029 0.0
H299 H 0.53211 0.50077 0.65308 0.0
H300 H 0.53595 0.48233 0.74111 0.0
H301 H 0.52923 0.4872 0.83497 0.0
H302 H 0.47119 0.53713 0.89242 0.0
H303 H 0.45776 0.54542 0.80332 0.0
C304 C 0.4839 0.53187 0.71681 0.0
C305 C 0.5013 0.52551 0.67533 0.0
C306 C 0.487 0.52245 0.76763 0.0
C307 C 0.51882 0.50634 0.68444 0.0
C308 C 0.52113 0.49591 0.73479 0.0
C309 C 0.51307 0.49931 0.82812 0.0
C310 C 0.5017 0.51205 0.87024 0.0
C311 C 0.5065 0.50506 0.77686 0.0
C312 C 0.48059 0.52745 0.86064 0.0
C313 C 0.473 0.53229 0.80972 0.0
H314 H 0.44905 0.89908 0.9084 0.0
H315 H 0.56015 0.97649 0.91954 0.0
H316 H 0.56567 0.97559 0.8249 0.0
H317 H 0.53774 0.95704 0.7387 0.0
H318 H 0.4261 0.88129 0.72801 0.0
H319 H 0.42216 0.87726 0.82269 0.0
C320 C 0.47466 0.91541 0.89033 0.0
C321 C 0.50411 0.93799 0.92129 0.0
C322 C 0.47748 0.91532 0.83579 0.0
C323 C 0.53701 0.95889 0.89688 0.0
C324 C 0.54015 0.95851 0.84264 0.0
C325 C 0.5126 0.93928 0.75696 0.0
C326 C 0.48218 0.91969 0.72599 0.0
C327 C 0.51038 0.93748 0.81163 0.0
C328 C 0.44991 0.89681 0.75062 0.0
C329 C 0.44761 0.89453 0.80489 0.0
H330 H 0.82468 0.89681 0.70297 0.0
H331 H 0.80787 0.79083 0.71152 0.0
H332 H 0.80427 0.78572 0.61648 0.0
H333 H 0.79848 0.80859 0.53235 0.0
H334 H 0.81021 0.91281 0.52468 0.0
H335 H 0.82317 0.9214 0.61778 0.0
C336 C 0.82112 0.87292 0.68395 0.0
C337 C 0.81673 0.84421 0.71422 0.0
C338 C 0.81746 0.86963 0.62945 0.0
C339 C 0.81139 0.81321 0.689 0.0
C340 C 0.80908 0.81022 0.63474 0.0
C341 C 0.80449 0.83346 0.55077 0.0
C342 C 0.80325 0.85998 0.5214 0.0
C343 C 0.81093 0.83783 0.60469 0.0
C344 C 0.81081 0.89188 0.54625 0.0
C345 C 0.8182 0.8968 0.59958 0.0
H346 H 0.28108 0.91349 0.68604 0.0
H347 H 0.24368 0.98683 0.71824 0.0
H348 H 0.24992 1.00267 0.62632 0.0
H349 H 0.25721 0.98895 0.53595 0.0
H350 H 0.29016 0.91216 0.50332 0.0
H351 H 0.29512 0.90497 0.59646 0.0
C352 C 0.27482 0.93339 0.67322 0.0
C353 C 0.26131 0.94848 0.70893 0.0
C354 C 0.27744 0.94155 0.62011 0.0
C355 C 0.25377 0.97452 0.69159 0.0
C356 C 0.25723 0.9835 0.63895 0.0
C357 C 0.26619 0.97114 0.54904 0.0
C358 C 0.27273 0.95067 0.51257 0.0
C359 C 0.26771 0.96617 0.60265 0.0
C360 C 0.28462 0.92799 0.53044 0.0
C361 C 0.28728 0.92373 0.58376 0.0
H362 H 0.21356 0.45483 0.50666 0.0
H363 H 0.09979 0.39146 0.49569 0.0
H364 H 0.09679 0.37172 0.58483 0.0
H365 H 0.12635 0.36763 0.66274 0.0
H366 H 0.2398 0.43087 0.67605 0.0
H367 H 0.24294 0.45575 0.58964 0.0
C368 C 0.18802 0.43752 0.52424 0.0
C369 C 0.15695 0.42446 0.49407 0.0
C370 C 0.1864 0.42584 0.57581 0.0
C371 C 0.12414 0.40184 0.51765 0.0
C372 C 0.12235 0.39039 0.56868 0.0
C373 C 0.15179 0.38702 0.6469 0.0
C374 C 0.18286 0.39692 0.67544 0.0
C375 C 0.15332 0.40132 0.59752 0.0
C376 C 0.21551 0.42263 0.65477 0.0
C377 C 0.21729 0.43683 0.60531 0.0
H378 H 0.80065 0.87669 0.21366 0.0
H379 H 0.75396 0.94396 0.21305 0.0
H380 H 0.76634 0.95449 0.12039 0.0
H381 H 0.78493 0.9403 0.03821 0.0
H382 H 0.82949 0.87125 0.03601 0.0
H383 H 0.82397 0.86619 0.13098 0.0
C384 C 0.79377 0.89415 0.19343 0.0
C385 C 0.77616 0.90934 0.22043 0.0
C386 C 0.80035 0.89958 0.13948 0.0
C387 C 0.76728 0.93172 0.19338 0.0
C388 C 0.77431 0.93774 0.14026 0.0
C389 C 0.79387 0.92442 0.05841 0.0
C390 C 0.80735 0.90595 0.02978 0.0
C391 C 0.78996 0.92111 0.11269 0.0
C392 C 0.81904 0.88579 0.05692 0.0
C393 C 0.81568 0.88273 0.11127 0.0
H394 H 0.23823 0.93399 0.01943 0.0
H395 H 0.12507 0.89089 0.02876 0.0
H396 H 0.12582 0.87715 0.12024 0.0
H397 H 0.1575 0.87391 0.19563 0.0
H398 H 0.27071 0.91785 0.18952 0.0
H399 H 0.27099 0.93403 0.09809 0.0
C400 C 0.21386 0.92235 0.04181 0.0
C401 C 0.18156 0.91353 0.0172 0.0
C402 C 0.21437 0.91383 0.09444 0.0
C403 C 0.15022 0.89799 0.04667 0.0
C404 C 0.15059 0.88986 0.0989 0.0
C405 C 0.18231 0.88681 0.17434 0.0
C406 C 0.21398 0.89407 0.19908 0.0
C407 C 0.18231 0.89687 0.12274 0.0
C408 C 0.24593 0.91161 0.17116 0.0
C409 C 0.24608 0.92105 0.11906 0.0
H410 H 0.1876 0.44871 0.99476 0.0
H411 H 0.26768 0.41813 0.9803 0.0
H412 H 0.28174 0.43095 0.07249 0.0
H413 H 0.267 0.44447 0.15879 0.0
H414 H 0.18579 0.47324 0.17471 0.0
H415 H 0.17699 0.46815 0.0803 0.0
C416 C 0.20856 0.44538 0.01148 0.0
C417 C 0.22632 0.43211 0.98038 0.0
C418 C 0.2162 0.45233 0.06495 0.0
C419 C 0.25342 0.4281 1.00303 0.0
C420 C 0.26143 0.43535 0.05592 0.0
C421 C 0.24774 0.45023 0.14163 0.0
C422 C 0.22689 0.45898 0.17404 0.0
C423 C 0.24234 0.44653 0.0875 0.0
C424 C 0.20229 0.46658 0.15089 0.0
C425 C 0.19705 0.46337 0.09685 0.0
H426 H 0.42985 0.25559 0.03986 0.0
H427 H 0.4012 0.1501 0.08741 0.0
H428 H 0.40452 0.13382 0.99661 0.0
H429 H 0.40746 0.14784 0.90311 0.0
H430 H 0.43561 0.25388 0.8575 0.0
H431 H 0.44115 0.27187 0.94838 0.0
C432 C 0.42493 0.2292 0.03035 0.0
C433 C 0.41478 0.20386 0.06968 0.0
C434 C 0.42653 0.22012 0.97849 0.0
C435 C 0.40904 0.16995 0.05746 0.0
C436 C 0.41068 0.16064 0.00561 0.0
C437 C 0.41543 0.17504 0.91304 0.0
C438 C 0.42037 0.19927 0.8735 0.0
C439 C 0.41817 0.1852 0.96563 0.0
C440 C 0.43117 0.23454 0.88705 0.0
C441 C 0.43427 0.24488 0.93906 0.0
H442 H 0.91389 0.20779 0.84799 0.0
H443 H 0.83749 0.23876 0.80532 0.0
H444 H 0.82165 0.23837 0.89685 0.0
H445 H 0.83038 0.23061 0.98869 0.0
H446 H 0.90446 0.19696 0.03245 0.0
H447 H 0.91996 0.19634 0.94053 0.0
C448 C 0.8939 0.21464 0.85883 0.0
C449 C 0.87722 0.22383 0.81997 0.0
C450 C 0.88433 0.21352 0.91151 0.0
C451 C 0.85083 0.23183 0.83445 0.0
C452 C 0.84175 0.23155 0.88676 0.0
C453 C 0.84981 0.22292 0.97816 0.0
C454 C 0.86646 0.21407 0.01736 0.0
C455 C 0.8584 0.22257 0.92554 0.0
C456 C 0.89118 0.20372 1.00302 0.0
C457 C 0.90021 0.20365 0.95052 0.0
H458 H 0.80446 0.61064 0.99848 0.0
H459 H 0.87333 0.70913 0.07742 0.0
H460 H 0.8918 0.73921 0.99369 0.0
H461 H 0.88718 0.73773 0.89847 0.0
H462 H 0.81868 0.63902 0.81971 0.0
H463 H 0.80133 0.60875 0.90329 0.0
C464 C 0.82355 0.6387 0.99748 0.0
C465 C 0.83735 0.65766 0.04421 0.0
C466 C 0.83408 0.65575 0.9493 0.0
C467 C 0.86229 0.69392 0.04207 0.0
C468 C 0.87281 0.71114 0.99422 0.0
C469 C 0.86849 0.70957 0.8995 0.0
C470 C 0.85412 0.69069 0.85287 0.0
C471 C 0.85868 0.69234 0.94765 0.0
C472 C 0.83015 0.65418 0.85497 0.0
C473 C 0.82016 0.63687 0.90276 0.0
H474 H 0.42591 0.29721 0.40387 0.0
H475 H 0.45019 0.21312 0.38224 0.0
H476 H 0.45562 0.20987 0.4763 0.0
H477 H 0.44376 0.22413 0.56385 0.0
H478 H 0.41508 0.30518 0.58505 0.0
H479 H 0.42179 0.31687 0.4918 0.0
C480 C 0.43299 0.27855 0.41959 0.0
C481 C 0.43688 0.2549 0.38617 0.0
C482 C 0.43496 0.27608 0.47364 0.0
C483 C 0.44666 0.23134 0.40714 0.0
C484 C 0.44961 0.22937 0.46094 0.0
C485 C 0.43962 0.24485 0.54832 0.0
C486 C 0.42816 0.26323 0.58127 0.0
C487 C 0.44231 0.25057 0.49452 0.0
C488 C 0.42347 0.29033 0.56053 0.0
C489 C 0.42714 0.29691 0.50714 0.0
H490 H 0.84682 0.22108 0.35136 0.0
H491 H 0.87372 0.13824 0.34212 0.0
H492 H 0.88272 0.14191 0.43639 0.0
H493 H 0.88817 0.17244 0.52019 0.0
H494 H 0.86567 0.25832 0.52705 0.0
H495 H 0.84939 0.24941 0.43511 0.0
C496 C 0.85417 0.20341 0.36989 0.0
C497 C 0.85965 0.17944 0.33943 0.0
C498 C 0.86027 0.20637 0.42381 0.0
C499 C 0.8694 0.15699 0.36441 0.0
C500 C 0.87462 0.15914 0.41837 0.0
C501 C 0.87906 0.18876 0.50179 0.0
C502 C 0.87806 0.216 0.53056 0.0
C503 C 0.87087 0.18425 0.44833 0.0
C504 C 0.8667 0.23723 0.50587 0.0
C505 C 0.85749 0.2322 0.45323 0.0
H506 H 0.88822 0.70347 0.52532 0.0
H507 H 0.82544 0.59708 0.58298 0.0
H508 H 0.81951 0.57361 0.4947 0.0
H509 H 0.82728 0.58356 0.40077 0.0
H510 H 0.88711 0.69006 0.34245 0.0
H511 H 0.89944 0.71316 0.43149 0.0
C512 C 0.87364 0.6751 0.51875 0.0
C513 C 0.85707 0.65208 0.56079 0.0
C514 C 0.86965 0.66181 0.46771 0.0
C515 C 0.83827 0.61542 0.5514 0.0
C516 C 0.83482 0.60197 0.50088 0.0
C517 C 0.84349 0.61181 0.4074 0.0
C518 C 0.85605 0.63505 0.36486 0.0
C519 C 0.84968 0.62496 0.45864 0.0
C520 C 0.87698 0.67157 0.37439 0.0
C521 C 0.88394 0.68481 0.42533 0.0
H522 H 0.04227 0.39359 0.02318 0.0
H523 H 0.98776 0.40187 0.88931 0.0
H524 H 1.01791 0.37933 0.8333 0.0
H525 H 0.06631 0.36577 0.82107 0.0
H526 H 0.11915 0.35544 0.95551 0.0
H527 H 0.0828 0.36966 0.0126 0.0
C528 C 0.03637 0.38963 0.98192 0.0
C529 C 1.01311 0.39975 0.96035 0.0
C530 C 0.05377 0.37657 0.94997 0.0
C531 C 1.00546 0.3942 0.90692 0.0
C532 C 1.02294 0.38158 0.87479 0.0
C533 C 0.06917 0.36571 0.86295 0.0
C534 C 0.09561 0.35984 0.88395 0.0
C535 C 0.0481 0.3739 0.89564 0.0
C536 C 0.0989 0.35965 0.9383 0.0
C537 C 0.07832 0.36813 0.97099 0.0
H538 H 0.74594 0.75074 0.94218 0.0
H539 H 0.67926 0.78456 0.86769 0.0
H540 H 0.62754 0.72626 0.88246 0.0
H541 H 0.60115 0.66638 0.91842 0.0
H542 H 0.66782 0.63279 0.99358 0.0
H543 H 0.71979 0.6904 0.97617 0.0
C544 C 0.72012 0.74546 0.92907 0.0
C545 C 0.71653 0.77219 0.90404 0.0
C546 C 0.69053 0.7119 0.93772 0.0
C547 C 0.68283 0.76463 0.88716 0.0
C548 C 0.65324 0.73126 0.89559 0.0
C549 C 0.62705 0.6715 0.93083 0.0
C550 C 0.63048 0.64518 0.95744 0.0
C551 C 0.65677 0.70478 0.92108 0.0
C552 C 0.66433 0.65244 0.97307 0.0
C553 C 0.69407 0.68545 0.96323 0.0
H554 H 0.31009 0.92868 0.90307 0.0
H555 H 0.24858 0.84869 0.01637 0.0
H556 H 0.30149 0.86792 0.0696 0.0
H557 H 0.36497 0.90791 0.08444 0.0
H558 H 0.42595 0.98957 0.97294 0.0
H559 H 0.37327 0.96963 0.91902 0.0
C560 C 0.30834 0.91502 0.93896 0.0
C561 C 0.27548 0.88681 0.95525 0.0
C562 C 0.33864 0.92695 0.97015 0.0
C563 C 0.27359 0.8701 1.00259 0.0
C564 C 0.30379 0.88128 0.03323 0.0
C565 C 0.36674 0.92156 0.04853 0.0
C566 C 0.39945 0.95026 0.03286 0.0
C567 C 0.33638 0.90985 0.01759 0.0
C568 C 0.40114 0.96762 0.98623 0.0
C569 C 0.37106 0.95602 0.95511 0.0
H570 H 0.41915 1.00443 0.62693 0.0
H571 H 0.52803 0.08208 0.59514 0.0
H572 H 0.51563 0.12951 0.61773 0.0
H573 H 0.4745 0.14899 0.64813 0.0
H574 H 0.36541 0.07191 0.6794 0.0
H575 H 0.37729 0.02419 0.65517 0.0
C576 C 0.44024 0.03173 0.62479 0.0
C577 C 0.47464 0.03954 0.60943 0.0
C578 C 0.43287 0.05897 0.63785 0.0
C579 C 0.5014 0.07515 0.60675 0.0
C580 C 0.49431 0.10233 0.61978 0.0
C581 C 0.45318 0.12177 0.64974 0.0
C582 C 0.41904 0.11418 0.66597 0.0
C583 C 0.46023 0.09455 0.63567 0.0
C584 C 0.39189 0.07865 0.66725 0.0
C585 C 0.39873 0.05133 0.65342 0.0
H586 H 0.0341 0.36514 0.70088 0.0
H587 H 0.99694 0.30101 0.56155 0.0
H588 H 1.01968 0.35411 0.5088 0.0
H589 H 0.04286 0.41819 0.50312 0.0
H590 H 0.08186 0.48322 0.64091 0.0
H591 H 0.06647 0.43061 0.6931 0.0
C592 C 1.03158 0.36282 0.65888 0.0
C593 C 1.01329 0.32895 0.63543 0.0
C594 C 0.04488 0.39368 0.62846 0.0
C595 C 1.01072 0.32654 0.58085 0.0
C596 C 1.02353 0.35697 0.55056 0.0
C597 C 0.04872 0.42092 0.54442 0.0
C598 C 0.0632 0.4545 0.56821 0.0
C599 C 0.03957 0.39058 0.57406 0.0
C600 C 0.07096 0.45773 0.62161 0.0
C601 C 0.06177 0.42756 0.65154 0.0
H602 H 0.77695 0.71456 0.59544 0.0
H603 H 0.73523 0.7075 0.75014 0.0
H604 H 0.6756 0.68407 0.7147 0.0
H605 H 0.63407 0.65834 0.64017 0.0
H606 H 0.67645 0.66182 0.48711 0.0
H607 H 0.73668 0.69413 0.52116 0.0
C608 C 0.75497 0.70862 0.62139 0.0
C609 C 0.76066 0.71261 0.67545 0.0
C610 C 0.72056 0.69416 0.60087 0.0
C611 C 0.73167 0.7045 0.70837 0.0
C612 C 0.69747 0.69098 0.68811 0.0
C613 C 0.65655 0.66704 0.61417 0.0
C614 C 0.65078 0.65781 0.561 0.0
C615 C 0.69135 0.68462 0.63448 0.0
C616 C 0.68022 0.6687 0.52805 0.0
C617 C 0.71467 0.68702 0.54753 0.0
H618 H 0.82079 0.54024 0.09923 0.0
H619 H 0.79586 0.4844 0.2448 0.0
H620 H 0.82279 0.44994 0.21352 0.0
H621 H 0.85971 0.44091 0.14876 0.0
H622 H 0.88368 0.49637 1.00275 0.0
H623 H 0.8504 0.52521 0.02996 0.0
C624 C 0.82074 0.52012 0.12382 0.0
C625 C 0.80674 0.51524 0.17455 0.0
C626 C 0.83633 0.50046 0.10561 0.0
C627 C 0.80646 0.48874 0.20564 0.0
C628 C 0.82207 0.46916 0.18786 0.0
C629 C 0.85712 0.45881 0.12248 0.0
C630 C 0.87468 0.46677 0.07403 0.0
C631 C 0.83802 0.47555 0.1385 0.0
C632 C 0.87065 0.48977 0.04031 0.0
C633 C 0.85175 0.50649 0.05598 0.0
H634 H 0.50854 0.34973 0.21404 0.0
H635 H 0.4094 0.31884 0.13738 0.0
H636 H 0.43647 0.3755 0.09178 0.0
H637 H 0.4886 0.43367 0.07333 0.0
H638 H 0.58636 0.46585 0.15483 0.0
H639 H 0.55974 0.40853 0.19842 0.0
C640 C 0.49279 0.35545 0.18751 0.0
C641 C 0.45701 0.3301 0.17904 0.0
C642 C 0.50845 0.3881 0.16186 0.0
C643 C 0.43689 0.33801 0.14489 0.0
C644 C 0.45245 0.37028 0.11853 0.0
C645 C 0.50418 0.4279 0.10013 0.0
C646 C 0.53961 0.45364 0.11022 0.0
C647 C 0.48827 0.39541 0.12642 0.0
C648 C 0.5592 0.44627 0.1461 0.0
C649 C 0.54393 0.41361 0.17116 0.0
H650 H 0.70932 0.14898 0.2281 0.0
H651 H 0.75952 0.19835 0.08351 0.0
H652 H 0.70357 0.16281 0.03741 0.0
H653 H 0.6419 0.11287 0.03685 0.0
H654 H 0.59199 0.06466 0.18236 0.0
H655 H 0.64604 0.1046 0.22912 0.0
C656 C 0.70788 0.15246 0.18664 0.0
C657 C 0.73871 0.17615 0.15934 0.0
C658 C 0.67566 0.13177 0.16031 0.0
C659 C 0.73625 0.18048 0.10565 0.0
C660 C 0.70427 0.15989 0.07913 0.0
C661 C 0.64269 0.11141 0.07886 0.0
C662 C 0.61289 0.08538 0.10581 0.0
C663 C 0.67404 0.13468 0.10582 0.0
C664 C 0.6144 0.08424 0.16038 0.0
C665 C 0.64542 0.10705 0.18728 0.0
H666 H 0.56645 0.89054 0.48159 0.0
H667 H 0.64024 0.998 0.52742 0.0
H668 H 0.68946 0.99101 0.49436 0.0
H669 H 0.71152 0.95355 0.45467 0.0
H670 H 0.63679 0.8463 0.40862 0.0
H671 H 0.58798 0.85417 0.43949 0.0
C672 C 0.59328 0.91257 0.48446 0.0
C673 C 0.59956 0.94474 0.50748 0.0
C674 C 0.62132 0.90834 0.46531 0.0
C675 C 0.63456 0.97296 0.5101 0.0
C676 C 0.66272 0.96891 0.49123 0.0
C677 C 0.68455 0.93189 0.45118 0.0
C678 C 0.678 0.89924 0.42941 0.0
C679 C 0.65643 0.93661 0.4691 0.0
C680 C 0.64278 0.87165 0.42512 0.0
C681 C 0.61479 0.87612 0.44289 0.0
H682 H 0.07676 0.67603 0.45629 0.0
H683 H 0.17041 0.6705 0.49371 0.0
H684 H 0.20747 0.73281 0.47066 0.0
H685 H 0.21341 0.78849 0.43842 0.0
H686 H 0.11988 0.79419 0.40091 0.0
H687 H 0.08268 0.73215 0.42557 0.0
C688 C 0.10529 0.68838 0.45959 0.0
C689 C 0.12069 0.66834 0.47672 0.0
C690 C 0.12647 0.72428 0.44614 0.0
C691 C 0.15774 0.68507 0.48072 0.0
C692 C 0.17897 0.72076 0.46745 0.0
C693 C 0.18487 0.77629 0.43562 0.0
C694 C 0.16955 0.79619 0.41757 0.0
C695 C 0.16365 0.74057 0.44987 0.0
C696 C 0.13247 0.7797 0.41455 0.0
C697 C 0.11117 0.74415 0.42864 0.0
H698 H 0.32052 0.53179 0.41578 0.0
H699 H 0.3014 0.42654 0.38112 0.0
H700 H 0.35954 0.44234 0.41656 0.0
H701 H 0.4156 0.48594 0.45683 0.0
H702 H 0.43487 0.59124 0.49147 0.0
H703 H 0.37652 0.57534 0.45663 0.0
C704 C 0.32898 0.51221 0.41583 0.0
C705 C 0.30651 0.47794 0.39559 0.0
C706 C 0.36239 0.52147 0.43637 0.0
C707 C 0.31806 0.45304 0.39628 0.0
C708 C 0.35131 0.46208 0.4166 0.0
C709 C 0.40713 0.50552 0.45697 0.0
C710 C 0.42974 0.53985 0.47687 0.0
C711 C 0.37366 0.49621 0.43672 0.0
C712 C 0.41811 0.56469 0.47655 0.0
C713 C 0.38475 0.55559 0.45653 0.0
H714 H 0.74018 0.64304 0.36086 0.0
H715 H 0.74322 0.66832 0.19835 0.0
H716 H 0.72724 0.71331 0.22042 0.0
H717 H 0.71946 0.75035 0.28692 0.0
H718 H 0.71745 0.7252 0.44914 0.0
H719 H 0.72614 0.67549 0.42596 0.0
C720 C 0.73674 0.6579 0.33007 0.0
C721 C 0.74335 0.65247 0.27804 0.0
C722 C 0.72815 0.68419 0.34308 0.0
C723 C 0.73843 0.6719 0.23876 0.0
C724 C 0.72952 0.69787 0.25139 0.0
C725 C 0.72031 0.73362 0.31716 0.0
C726 C 0.71791 0.74161 0.36981 0.0
C727 C 0.72543 0.70503 0.30358 0.0
C728 C 0.71892 0.71953 0.40841 0.0
C729 C 0.72406 0.69119 0.39522 0.0
H730 H 0.27007 0.09447 0.1817 0.0
H731 H 0.31245 0.13966 0.33235 0.0
H732 H 0.27366 0.08286 0.37337 0.0
H733 H 0.23329 1.01846 0.36506 0.0
H734 H 0.19034 0.97379 0.21423 0.0
H735 H 0.22318 0.03212 0.17523 0.0
C736 C 0.27036 0.09208 0.22362 0.0
C737 C 0.29454 0.12127 0.25369 0.0
C738 C 0.24799 0.05922 0.24707 0.0
C739 C 0.29422 0.11772 0.30808 0.0
C740 C 0.27215 0.08511 0.33163 0.0
C741 C 0.23048 0.02158 0.32386 0.0
C742 C 0.20962 0.99151 0.29271 0.0
C743 C 0.24972 0.05537 0.30134 0.0
C744 C 0.20619 0.99625 0.23938 0.0
C745 C 0.22521 0.02968 0.21681 0.0
H746 H 0.07422 0.40209 0.25777 0.0
H747 H 0.10124 0.32161 0.29243 0.0
H748 H 0.04179 0.27571 0.26656 0.0
H749 H 0.98227 0.25853 0.23511 0.0
H750 H 0.95462 0.33873 0.20193 0.0
H751 H 1.01446 0.38478 0.2261 0.0
C752 C 0.06723 0.37452 0.25964 0.0
C753 C 0.09234 0.36536 0.27706 0.0
C754 C 1.03292 0.34829 0.24502 0.0
C755 C 0.08259 0.32946 0.27923 0.0
C756 C 0.04856 0.30321 0.26444 0.0
C757 C 0.98923 0.28609 0.23299 0.0
C758 C 0.96385 0.29511 0.21656 0.0
C759 C 1.02353 0.31233 0.24741 0.0
C760 C 0.97349 0.33099 0.21446 0.0
C761 C 1.00774 0.35733 0.22833 0.0
H762 H 0.30792 0.23609 0.83504 0.0
H763 H 0.29669 0.21875 0.66909 0.0
H764 H 0.26114 0.24807 0.66541 0.0
H765 H 0.23622 0.28202 0.70869 0.0
H766 H 0.24715 0.29839 0.87494 0.0
H767 H 0.2796 0.26611 0.87895 0.0
C768 C 0.29744 0.23836 0.79802 0.0
C769 C 0.30525 0.22521 0.75233 0.0
C770 C 0.27707 0.25539 0.79618 0.0
C771 C 0.29114 0.22838 0.70492 0.0
C772 C 0.27092 0.24538 0.70277 0.0
C773 C 0.24545 0.27834 0.74592 0.0
C774 C 0.23927 0.29302 0.79145 0.0
C775 C 0.26417 0.25952 0.74803 0.0
C776 C 0.25138 0.28759 0.83923 0.0
C777 C 0.27008 0.26913 0.84156 0.0
H778 H 0.83909 0.09159 0.73629 0.0
H779 H 0.94928 0.1213 0.72165 0.0
H780 H 0.93632 0.06449 0.75862 0.0
H781 H 0.89387 1.00691 0.79592 0.0
H782 H 0.78374 0.97747 0.81057 0.0
H783 H 0.79666 0.034 0.77282 0.0
C784 C 0.86037 0.08572 0.74094 0.0
C785 C 0.8952 0.1108 0.7261 0.0
C786 C 0.85274 0.05315 0.76245 0.0
C787 C 0.92229 0.10256 0.73259 0.0
C788 C 0.91488 0.07009 0.75385 0.0
C789 C 0.87261 1.01279 0.79101 0.0
C790 C 0.83781 0.9879 0.80628 0.0
C791 C 0.88023 0.04528 0.76912 0.0
C792 C 0.81071 0.99606 0.79932 0.0
C793 C 0.8181 0.02839 0.77766 0.0
H794 H 0.11062 0.87928 0.70406 0.0
H795 H 0.08619 0.82714 0.85269 0.0
H796 H 1.02314 0.79531 0.83048 0.0
H797 H 0.97478 0.78222 0.76838 0.0
H798 H 1.00035 0.83217 0.61811 0.0
H799 H 0.06297 0.8653 0.64169 0.0
C800 C 0.09156 0.86089 0.73165 0.0
C801 C 0.10323 0.85568 0.78006 0.0
C802 C 0.05543 0.84255 0.71847 0.0
C803 C 0.07806 0.83154 0.81507 0.0
C804 C 0.04194 0.81349 0.80249 0.0
C805 C 0.99404 0.80072 0.7411 0.0
C806 C 0.98284 0.80508 0.69173 0.0
C807 C 1.03027 0.8189 0.75436 0.0
C808 C 1.00822 0.82851 0.6564 0.0
C809 C 0.04406 0.84736 0.6698 0.0
loop_
_geom_bond_atom_site_label_1
_geom_bond_atom_site_label_2
_geom_bond_distance
_geom_bond_site_symmetry_2
_ccdc_geom_bond_type
Mg0 O7 2.141 1_554 S
Mg0 O8 2.048 . S
Mg0 O9 2.048 . S
Mg0 O12 2.141 . S
C1 O2 1.313 . S
C1 O8 1.195 . S
O2 C1 1.313 . S
C3 O4 1.245 . S
C3 O12 1.289 1_655 S
O4 C3 1.245 . S
C5 O6 1.245 1_455 S
C5 O7 1.289 . S
O6 C5 1.245 1_655 S
O7 Mg0 2.141 1_556 S
O7 C5 1.289 . S
O8 Mg0 2.048 . S
O8 C1 1.195 . S
O9 Mg0 2.048 . S
O9 C10 1.195 . S
C10 O9 1.195 . S
C10 O11 1.313 1_455 S
O11 C10 1.313 1_655 S
O12 Mg0 2.141 . S
O12 C3 1.289 1_455 S
Mg13 O20 2.141 1_554 S
Mg13 O21 2.048 . S
Mg13 O22 2.048 . S
Mg13 O25 2.141 . S
C14 O15 1.313 . S
C14 O21 1.195 . S
O15 C14 1.313 . S
C16 O17 1.245 . S
C16 O25 1.289 . S
O17 C16 1.245 . S
C18 O19 1.245 . S
C18 O20 1.289 . S
O19 C18 1.245 . S
O20 Mg13 2.141 1_556 S
O20 C18 1.289 . S
O21 Mg13 2.048 . S
O21 C14 1.195 . S
O22 Mg13 2.048 . S
O22 C23 1.195 . S
C23 O22 1.195 . S
C23 O24 1.313 . S
O24 C23 1.313 . S
O25 Mg13 2.141 . S
O25 C16 1.289 . S
Mg26 O33 2.141 1_545 S
Mg26 O34 2.048 1_554 S
Mg26 O35 2.048 . S
Mg26 O38 2.141 . S
C27 O28 1.313 1_545 S
C27 O34 1.195 . S
O28 C27 1.313 1_565 S
C29 O30 1.245 . S
C29 O38 1.289 1_565 S
O30 C29 1.245 . S
C31 O32 1.245 . S
C31 O33 1.289 . S
O32 C31 1.245 . S
O33 Mg26 2.141 1_565 S
O33 C31 1.289 . S
O34 Mg26 2.048 1_556 S
O34 C27 1.195 . S
O35 Mg26 2.048 . S
O35 C36 1.195 . S
C36 O35 1.195 . S
C36 O37 1.313 . S
O37 C36 1.313 . S
O38 Mg26 2.141 . S
O38 C29 1.289 1_545 S
Mg39 O46 2.141 . S
Mg39 O47 2.048 . S
Mg39 O48 2.048 . S
Mg39 O51 2.141 . S
C40 O41 1.313 . S
C40 O47 1.195 1_565 S
O41 C40 1.313 . S
C42 O43 1.245 . S
C42 O51 1.289 . S
O43 C42 1.245 . S
C44 O45 1.245 1_545 S
C44 O46 1.289 . S
O45 C44 1.245 1_565 S
O46 Mg39 2.141 . S
O46 C44 1.289 . S
O47 Mg39 2.048 . S
O47 C40 1.195 1_545 S
O48 Mg39 2.048 . S
O48 C49 1.195 . S
C49 O48 1.195 . S
C49 O50 1.313 1_545 S
O50 C49 1.313 1_565 S
O51 Mg39 2.141 . S
O51 C42 1.289 . S
Mg52 O59 2.141 1_455 S
Mg52 O60 2.048 . S
Mg52 O61 2.048 . S
Mg52 O64 2.141 1_455 S
C53 O54 1.313 . S
C53 O60 1.195 . S
O54 C53 1.313 . S
C55 O56 1.245 1_655 S
C55 O64 1.289 . S
O56 C55 1.245 1_455 S
C57 O58 1.245 . S
C57 O59 1.289 1_455 S
O58 C57 1.245 . S
O59 Mg52 2.141 1_655 S
O59 C57 1.289 1_655 S
O60 Mg52 2.048 . S
O60 C53 1.195 . S
O61 Mg52 2.048 . S
O61 C62 1.195 . S
C62 O61 1.195 . S
C62 O63 1.313 . S
O63 C62 1.313 . S
O64 Mg52 2.141 1_655 S
O64 C55 1.289 . S
Mg65 O72 2.141 . S
Mg65 O73 2.048 . S
Mg65 O74 2.048 . S
Mg65 O77 2.141 . S
C66 O67 1.313 . S
C66 O73 1.195 . S
O67 C66 1.313 . S
C68 O69 1.245 . S
C68 O77 1.289 . S
O69 C68 1.245 . S
C70 O71 1.245 . S
C70 O72 1.289 . S
O71 C70 1.245 . S
O72 Mg65 2.141 . S
O72 C70 1.289 . S
O73 Mg65 2.048 . S
O73 C66 1.195 . S
O74 Mg65 2.048 . S
O74 C75 1.195 . S
C75 O74 1.195 . S
C75 O76 1.313 . S
O76 C75 1.313 . S
O77 Mg65 2.141 . S
O77 C68 1.289 . S
Mg78 O85 2.141 . S
Mg78 O86 2.048 . S
Mg78 O87 2.048 . S
Mg78 O90 2.141 . S
C79 O80 1.313 . S
C79 O86 1.195 . S
O80 C79 1.313 . S
C81 O82 1.245 . S
C81 O90 1.289 . S
O82 C81 1.245 . S
C83 O84 1.245 . S
C83 O85 1.289 . S
O84 C83 1.245 . S
O85 Mg78 2.141 . S
O85 C83 1.289 . S
O86 Mg78 2.048 . S
O86 C79 1.195 . S
O87 Mg78 2.048 . S
O87 C88 1.195 . S
C88 O87 1.195 . S
C88 O89 1.313 . S
O89 C88 1.313 . S
O90 Mg78 2.141 . S
O90 C81 1.289 . S
Mg91 O98 2.141 . S
Mg91 O99 2.048 . S
Mg91 O100 2.048 . S
Mg91 O103 2.141 . S
C92 O93 1.313 . S
C92 O99 1.195 . S
O93 C92 1.313 . S
C94 O95 1.245 . S
C94 O103 1.289 . S
O95 C94 1.245 . S
C96 O97 1.245 . S
C96 O98 1.289 . S
O97 C96 1.245 . S
O98 Mg91 2.141 . S
O98 C96 1.289 . S
O99 Mg91 2.048 . S
O99 C92 1.195 . S
O100 Mg91 2.048 . S
O100 C101 1.195 . S
C101 O100 1.195 . S
C101 O102 1.313 . S
O102 C101 1.313 . S
O103 Mg91 2.141 . S
O103 C94 1.289 . S
Mg104 O111 2.141 . S
Mg104 O112 2.048 . S
Mg104 O113 2.048 . S
Mg104 O116 2.141 . S
C105 O106 1.313 . S
C105 O112 1.195 . S
O106 C105 1.313 . S
C107 O108 1.245 . S
C107 O116 1.289 . S
O108 C107 1.245 . S
C109 O110 1.245 . S
C109 O111 1.289 . S
O110 C109 1.245 . S
O111 Mg104 2.141 . S
O111 C109 1.289 . S
O112 Mg104 2.048 . S
O112 C105 1.195 . S
O113 Mg104 2.048 . S
O113 C114 1.195 . S
C114 O113 1.195 . S
C114 O115 1.313 . S
O115 C114 1.313 . S
O116 Mg104 2.141 . S
O116 C107 1.289 . S
Mg117 O124 2.141 . S
Mg117 O125 2.048 . S
Mg117 O126 2.048 . S
Mg117 O129 2.141 . S
C118 O119 1.313 . S
C118 O125 1.195 . S
O119 C118 1.313 . S
C120 O121 1.245 . S
C120 O129 1.289 . S
O121 C120 1.245 . S
C122 O123 1.245 . S
C122 O124 1.289 . S
O123 C122 1.245 . S
O124 Mg117 2.141 . S
O124 C122 1.289 . S
O125 Mg117 2.048 . S
O125 C118 1.195 . S
O126 Mg117 2.048 . S
O126 C127 1.195 . S
C127 O126 1.195 . S
C127 O128 1.313 . S
O128 C127 1.313 . S
O129 Mg117 2.141 . S
O129 C120 1.289 . S
Mg130 O137 2.141 . S
Mg130 O138 2.048 . S
Mg130 O139 2.048 . S
Mg130 O142 2.141 . S
C131 O132 1.313 . S
C131 O138 1.195 . S
O132 C131 1.313 . S
C133 O134 1.245 . S
C133 O142 1.289 . S
O134 C133 1.245 . S
C135 O136 1.245 . S
C135 O137 1.289 . S
O136 C135 1.245 . S
O137 Mg130 2.141 . S
O137 C135 1.289 . S
O138 Mg130 2.048 . S
O138 C131 1.195 . S
O139 Mg130 2.048 . S
O139 C140 1.195 . S
C140 O139 1.195 . S
C140 O141 1.313 . S
O141 C140 1.313 . S
O142 Mg130 2.141 . S
O142 C133 1.289 . S
Mg143 O150 2.141 . S
Mg143 O151 2.048 . S
Mg143 O152 2.048 . S
Mg143 O155 2.141 . S
C144 O145 1.313 . S
C144 O151 1.195 . S
O145 C144 1.313 . S
C146 O147 1.245 . S
C146 O155 1.289 . S
O147 C146 1.245 . S
C148 O149 1.245 . S
C148 O150 1.289 . S
O149 C148 1.245 . S
O150 Mg143 2.141 . S
O150 C148 1.289 . S
O151 Mg143 2.048 . S
O151 C144 1.195 . S
O152 Mg143 2.048 . S
O152 C153 1.195 . S
C153 O152 1.195 . S
C153 O154 1.313 . S
O154 C153 1.313 . S
O155 Mg143 2.141 . S
O155 C146 1.289 . S
Mg156 O163 2.141 . S
Mg156 O164 2.048 . S
Mg156 O165 2.048 . S
Mg156 O168 2.141 . S
C157 O158 1.313 . S
C157 O164 1.195 . S
O158 C157 1.313 . S
C159 O160 1.245 . S
C159 O168 1.289 . S
O160 C159 1.245 . S
C161 O162 1.245 . S
C161 O163 1.289 . S
O162 C161 1.245 . S
O163 Mg156 2.141 . S
O163 C161 1.289 . S
O164 Mg156 2.048 . S
O164 C157 1.195 . S
O165 Mg156 2.048 . S
O165 C166 1.195 . S
C166 O165 1.195 . S
C166 O167 1.313 . S
O167 C166 1.313 . S
O168 Mg156 2.141 . S
O168 C159 1.289 . S
Mg169 O176 2.141 . S
Mg169 O177 2.048 . S
Mg169 O178 2.048 . S
Mg169 O181 2.141 . S
C170 O171 1.313 . S
C170 O177 1.195 . S
O171 C170 1.313 . S
C172 O173 1.245 . S
C172 O181 1.289 . S
O173 C172 1.245 . S
C174 O175 1.245 . S
C174 O176 1.289 . S
O175 C174 1.245 . S
O176 Mg169 2.141 . S
O176 C174 1.289 . S
O177 Mg169 2.048 . S
O177 C170 1.195 . S
O178 Mg169 2.048 . S
O178 C179 1.195 . S
C179 O178 1.195 . S
C179 O180 1.313 . S
O180 C179 1.313 . S
O181 Mg169 2.141 . S
O181 C172 1.289 . S
Mg182 O189 2.141 . S
Mg182 O190 2.048 . S
Mg182 O191 2.048 . S
Mg182 O194 2.141 . S
C183 O184 1.313 . S
C183 O190 1.195 . S
O184 C183 1.313 . S
C185 O186 1.245 . S
C185 O194 1.289 . S
O186 C185 1.245 . S
C187 O188 1.245 . S
C187 O189 1.289 . S
O188 C187 1.245 . S
O189 Mg182 2.141 . S
O189 C187 1.289 . S
O190 Mg182 2.048 . S
O190 C183 1.195 . S
O191 Mg182 2.048 . S
O191 C192 1.195 . S
C192 O191 1.195 . S
C192 O193 1.313 . S
O193 C192 1.313 . S
O194 Mg182 2.141 . S
O194 C185 1.289 . S
Mg195 O202 2.141 . S
Mg195 O203 2.048 . S
Mg195 O204 2.048 . S
Mg195 O207 2.141 . S
C196 O197 1.313 . S
C196 O203 1.195 . S
O197 C196 1.313 . S
C198 O199 1.245 . S
C198 O207 1.289 . S
O199 C198 1.245 . S
C200 O201 1.245 . S
C200 O202 1.289 . S
O201 C200 1.245 . S
O202 Mg195 2.141 . S
O202 C200 1.289 . S
O203 Mg195 2.048 . S
O203 C196 1.195 . S
O204 Mg195 2.048 . S
O204 C205 1.195 . S
C205 O204 1.195 . S
C205 O206 1.313 . S
O206 C205 1.313 . S
O207 Mg195 2.141 . S
O207 C198 1.289 . S
Mg208 O215 2.141 . S
Mg208 O216 2.048 . S
Mg208 O217 2.048 . S
Mg208 O220 2.141 . S
C209 O210 1.313 . S
C209 O216 1.195 . S
O210 C209 1.313 . S
C211 O212 1.245 . S
C211 O220 1.289 . S
O212 C211 1.245 . S
C213 O214 1.245 . S
C213 O215 1.289 . S
O214 C213 1.245 . S
O215 Mg208 2.141 . S
O215 C213 1.289 . S
O216 Mg208 2.048 . S
O216 C209 1.195 . S
O217 Mg208 2.048 . S
O217 C218 1.195 . S
C218 O217 1.195 . S
C218 O219 1.313 . S
O219 C218 1.313 . S
O220 Mg208 2.141 . S
O220 C211 1.289 . S
Mg221 O228 2.141 . S
Mg221 O229 2.048 . S
Mg221 O230 2.048 . S
Mg221 O233 2.141 . S
C222 O223 1.313 . S
C222 O229 1.195 . S
O223 C222 1.313 . S
C224 O225 1.245 . S
C224 O233 1.289 . S
O225 C224 1.245 . S
C226 O227 1.245 . S
C226 O228 1.289 . S
O227 C226 1.245 . S
O228 Mg221 2.141 . S
O228 C226 1.289 . S
O229 Mg221 2.048 . S
O229 C222 1.195 . S
O230 Mg221 2.048 . S
O230 C231 1.195 . S
C231 O230 1.195 . S
C231 O232 1.313 . S
O232 C231 1.313 . S
O233 Mg221 2.141 . S
O233 C224 1.289 . S
H234 C240 0.930 1_655 S
H235 C243 0.930 . S
H236 C244 0.930 . S
H237 C245 0.930 . S
H238 C248 0.941 . S
H239 C249 0.930 1_655 S
C240 H234 0.930 1_455 S
C240 C241 1.355 . S
C240 C242 1.415 . S
C241 C240 1.355 . S
C241 C243 1.419 . S
C242 C240 1.415 . S
C242 C247 1.425 . S
C242 C249 1.409 . S
C243 H235 0.930 . S
C243 C241 1.419 . S
C243 C244 1.362 . S
C244 H236 0.930 . S
C244 C243 1.362 . S
C244 C247 1.409 . S
C245 H237 0.930 . S
C245 C246 1.355 . S
C245 C247 1.415 . S
C246 C245 1.355 . S
C246 C248 1.419 . S
C247 C242 1.425 . S
C247 C244 1.409 . S
C247 C245 1.415 . S
C248 H238 0.941 . S
C248 C246 1.419 . S
C248 C249 1.362 . S
C249 H239 0.930 1_455 S
C249 C242 1.409 . S
C249 C248 1.362 . S
H250 C256 0.930 . S
H251 C259 0.930 . S
H252 C260 0.930 . S
H253 C261 0.930 . S
H254 C264 0.930 . S
H255 C265 0.930 . S
C256 H250 0.930 . S
C256 C257 1.355 . S
C256 C258 1.415 . S
C257 C256 1.355 . S
C257 C259 1.419 . S
C258 C256 1.415 . S
C258 C263 1.425 . S
C258 C265 1.409 . S
C259 H251 0.930 . S
C259 C257 1.419 . S
C259 C260 1.362 . S
C260 H252 0.930 . S
C260 C259 1.362 . S
C260 C263 1.409 . S
C261 H253 0.930 . S
C261 C262 1.355 . S
C261 C263 1.415 . S
C262 C261 1.355 . S
C262 C264 1.419 . S
C263 C258 1.425 . S
C263 C260 1.409 . S
C263 C261 1.415 . S
C264 H254 0.930 . S
C264 C262 1.419 . S
C264 C265 1.362 . S
C265 H255 0.930 . S
C265 C258 1.409 . S
C265 C264 1.362 . S
H266 C272 0.930 . S
H267 C275 0.930 . S
H268 C276 0.930 . S
H269 C277 0.930 . S
H270 C280 0.930 . S
H271 C281 0.930 . S
C272 H266 0.930 . S
C272 C273 1.355 . S
C272 C274 1.415 1_565 S
C273 C272 1.355 . S
C273 C275 1.419 1_565 S
C274 C272 1.415 1_545 S
C274 C279 1.425 . S
C274 C281 1.409 1_545 S
C275 H267 0.930 . S
C275 C273 1.419 1_545 S
C275 C276 1.362 . S
C276 H268 0.930 . S
C276 C275 1.362 . S
C276 C279 1.409 . S
C277 H269 0.930 . S
C277 C278 1.355 . S
C277 C279 1.415 . S
C278 C277 1.355 . S
C278 C280 1.419 . S
C279 C274 1.425 . S
C279 C276 1.409 . S
C279 C277 1.415 . S
C280 H270 0.930 . S
C280 C278 1.419 . S
C280 C281 1.362 1_545 S
C281 H271 0.930 . S
C281 C274 1.409 1_565 S
C281 C280 1.362 1_565 S
H282 C288 0.930 . S
H283 C291 0.930 . S
H284 C292 0.930 . S
H285 C293 0.930 . S
H286 C296 0.930 . S
H287 C297 0.930 . S
C288 H282 0.930 . S
C288 C289 1.355 . S
C288 C290 1.415 . S
C289 C288 1.355 . S
C289 C291 1.419 1_455 S
C290 C288 1.415 . S
C290 C295 1.425 . S
C290 C297 1.409 . S
C291 H283 0.930 . S
C291 C289 1.419 1_655 S
C291 C292 1.362 . S
C292 H284 0.930 . S
C292 C291 1.362 . S
C292 C295 1.409 1_655 S
C293 H285 0.930 . S
C293 C294 1.355 1_655 S
C293 C295 1.415 1_655 S
C294 C293 1.355 1_455 S
C294 C296 1.419 . S
C295 C290 1.425 . S
C295 C292 1.409 1_455 S
C295 C293 1.415 1_455 S
C296 H286 0.930 . S
C296 C294 1.419 . S
C296 C297 1.362 . S
C297 H287 0.930 . S
C297 C290 1.409 . S
C297 C296 1.362 . S
H298 C304 0.930 . S
H299 C307 0.930 . S
H300 C308 0.930 . S
H301 C309 0.930 . S
H302 C312 0.930 . S
H303 C313 0.930 . S
C304 H298 0.930 . S
C304 C305 1.355 . S
C304 C306 1.415 . S
C305 C304 1.355 . S
C305 C307 1.419 . S
C306 C304 1.415 . S
C306 C311 1.425 . S
C306 C313 1.409 . S
C307 H299 0.930 . S
C307 C305 1.419 . S
C307 C308 1.362 . S
C308 H300 0.930 . S
C308 C307 1.362 . S
C308 C311 1.409 . S
C309 H301 0.930 . S
C309 C310 1.355 . S
C309 C311 1.415 . S
C310 C309 1.355 . S
C310 C312 1.419 . S
C311 C306 1.425 . S
C311 C308 1.409 . S
C311 C309 1.415 . S
C312 H302 0.930 . S
C312 C310 1.419 . S
C312 C313 1.362 . S
C313 H303 0.930 . S
C313 C306 1.409 . S
C313 C312 1.362 . S
H314 C320 0.930 . S
H315 C323 0.930 . S
H316 C324 0.930 . S
H317 C325 0.930 . S
H318 C328 0.930 . S
H319 C329 0.930 . S
C320 H314 0.930 . S
C320 C321 1.355 1_565 S
C320 C322 1.415 . S
C321 C320 1.355 1_545 S
C321 C323 1.419 . S
C322 C320 1.415 . S
C322 C327 1.425 1_565 S
C322 C329 1.409 . S
C323 H315 0.930 . S
C323 C321 1.419 . S
C323 C324 1.362 . S
C324 H316 0.930 . S
C324 C323 1.362 . S
C324 C327 1.409 . S
C325 H317 0.930 . S
C325 C326 1.355 . S
C325 C327 1.415 . S
C326 C325 1.355 . S
C326 C328 1.419 1_545 S
C327 C322 1.425 1_545 S
C327 C324 1.409 . S
C327 C325 1.415 . S
C328 H318 0.930 . S
C328 C326 1.419 1_565 S
C328 C329 1.362 . S
C329 H319 0.930 . S
C329 C322 1.409 . S
C329 C328 1.362 . S
H330 C336 0.930 . S
H331 C339 0.930 . S
H332 C340 0.930 . S
H333 C341 0.930 . S
H334 C344 0.930 . S
H335 C345 0.930 . S
C336 H330 0.930 . S
C336 C337 1.355 . S
C336 C338 1.415 . S
C337 C336 1.355 . S
C337 C339 1.419 . S
C338 C336 1.415 . S
C338 C343 1.425 . S
C338 C345 1.409 . S
C339 H331 0.930 . S
C339 C337 1.419 . S
C339 C340 1.362 . S
C340 H332 0.930 . S
C340 C339 1.362 . S
C340 C343 1.409 . S
C341 H333 0.930 . S
C341 C342 1.355 . S
C341 C343 1.415 . S
C342 C341 1.355 . S
C342 C344 1.419 . S
C343 C338 1.425 . S
C343 C340 1.409 . S
C343 C341 1.415 . S
C344 H334 0.930 . S
C344 C342 1.419 . S
C344 C345 1.362 . S
C345 H335 0.930 . S
C345 C338 1.409 . S
C345 C344 1.362 . S
H346 C352 0.930 . S
H347 C355 0.930 . S
H348 C356 0.930 . S
H349 C357 0.930 . S
H350 C360 0.930 . S
H351 C361 0.930 . S
C352 H346 0.930 . S
C352 C353 1.355 . S
C352 C354 1.415 . S
C353 C352 1.355 . S
C353 C355 1.419 . S
C354 C352 1.415 . S
C354 C359 1.425 . S
C354 C361 1.409 . S
C355 H347 0.930 . S
C355 C353 1.419 . S
C355 C356 1.362 . S
C356 H348 0.930 . S
C356 C355 1.362 . S
C356 C359 1.409 . S
C357 H349 0.930 . S
C357 C358 1.355 . S
C357 C359 1.415 . S
C358 C357 1.355 . S
C358 C360 1.419 . S
C359 C354 1.425 . S
C359 C356 1.409 . S
C359 C357 1.415 . S
C360 H350 0.930 . S
C360 C358 1.419 . S
C360 C361 1.362 . S
C361 H351 0.930 . S
C361 C354 1.409 . S
C361 C360 1.362 . S
H362 C368 0.930 . S
H363 C371 0.930 . S
H364 C372 0.930 . S
H365 C373 0.930 . S
H366 C376 0.930 . S
H367 C377 0.930 . S
C368 H362 0.930 . S
C368 C369 1.355 . S
C368 C370 1.415 . S
C369 C368 1.355 . S
C369 C371 1.419 . S
C370 C368 1.415 . S
C370 C375 1.425 . S
C370 C377 1.409 . S
C371 H363 0.930 . S
C371 C369 1.419 . S
C371 C372 1.362 . S
C372 H364 0.930 . S
C372 C371 1.362 . S
C372 C375 1.409 . S
C373 H365 0.930 . S
C373 C374 1.355 . S
C373 C375 1.415 . S
C374 C373 1.355 . S
C374 C376 1.419 . S
C375 C370 1.425 . S
C375 C372 1.409 . S
C375 C373 1.415 . S
C376 H366 0.930 . S
C376 C374 1.419 . S
C376 C377 1.362 . S
C377 H367 0.930 . S
C377 C370 1.409 . S
C377 C376 1.362 . S
H378 C384 0.930 . S
H379 C387 0.930 . S
H380 C388 0.930 . S
H381 C389 0.930 . S
H382 C392 0.930 . S
H383 C393 0.930 . S
C384 H378 0.930 . S
C384 C385 1.355 . S
C384 C386 1.415 . S
C385 C384 1.355 . S
C385 C387 1.419 . S
C386 C384 1.415 . S
C386 C391 1.425 . S
C386 C393 1.409 . S
C387 H379 0.930 . S
C387 C385 1.419 . S
C387 C388 1.362 . S
C388 H380 0.930 . S
C388 C387 1.362 . S
C388 C391 1.409 . S
C389 H381 0.930 . S
C389 C390 1.355 . S
C389 C391 1.415 . S
C390 C389 1.355 . S
C390 C392 1.419 . S
C391 C386 1.425 . S
C391 C388 1.409 . S
C391 C389 1.415 . S
C392 H382 0.930 . S
C392 C390 1.419 . S
C392 C393 1.362 . S
C393 H383 0.930 . S
C393 C386 1.409 . S
C393 C392 1.362 . S
H394 C400 0.930 . S
H395 C403 0.930 . S
H396 C404 0.930 . S
H397 C405 0.930 . S
H398 C408 0.930 . S
H399 C409 0.930 . S
C400 H394 0.930 . S
C400 C401 1.355 . S
C400 C402 1.415 . S
C401 C400 1.355 . S
C401 C403 1.419 . S
C402 C400 1.415 . S
C402 C407 1.425 . S
C402 C409 1.409 . S
C403 H395 0.930 . S
C403 C401 1.419 . S
C403 C404 1.362 . S
C404 H396 0.930 . S
C404 C403 1.362 . S
C404 C407 1.409 . S
C405 H397 0.930 . S
C405 C406 1.355 . S
C405 C407 1.415 . S
C406 C405 1.355 . S
C406 C408 1.419 . S
C407 C402 1.425 . S
C407 C404 1.409 . S
C407 C405 1.415 . S
C408 H398 0.930 . S
C408 C406 1.419 . S
C408 C409 1.362 . S
C409 H399 0.930 . S
C409 C402 1.409 . S
C409 C408 1.362 . S
H410 C416 0.930 . S
H411 C419 0.930 . S
H412 C420 0.930 . S
H413 C421 0.930 . S
H414 C424 0.930 . S
H415 C425 0.930 . S
C416 H410 0.930 . S
C416 C417 1.355 . S
C416 C418 1.415 . S
C417 C416 1.355 . S
C417 C419 1.419 . S
C418 C416 1.415 . S
C418 C423 1.425 . S
C418 C425 1.409 . S
C419 H411 0.930 . S
C419 C417 1.419 . S
C419 C420 1.362 . S
C420 H412 0.930 . S
C420 C419 1.362 . S
C420 C423 1.409 . S
C421 H413 0.930 . S
C421 C422 1.355 . S
C421 C423 1.415 . S
C422 C421 1.355 . S
C422 C424 1.419 . S
C423 C418 1.425 . S
C423 C420 1.409 . S
C423 C421 1.415 . S
C424 H414 0.930 . S
C424 C422 1.419 . S
C424 C425 1.362 . S
C425 H415 0.930 . S
C425 C418 1.409 . S
C425 C424 1.362 . S
H426 C432 0.930 . S
H427 C435 0.930 . S
H428 C436 0.930 . S
H429 C437 0.930 . S
H430 C440 0.930 . S
H431 C441 0.930 . S
C432 H426 0.930 . S
C432 C433 1.355 . S
C432 C434 1.415 1_554 S
C433 C432 1.355 . S
C433 C435 1.419 . S
C434 C432 1.415 1_556 S
C434 C439 1.425 . S
C434 C441 1.409 . S
C435 H427 0.930 . S
C435 C433 1.419 . S
C435 C436 1.362 1_554 S
C436 H428 0.930 . S
C436 C435 1.362 1_556 S
C436 C439 1.409 . S
C437 H429 0.930 . S
C437 C438 1.355 . S
C437 C439 1.415 . S
C438 C437 1.355 . S
C438 C440 1.419 . S
C439 C434 1.425 . S
C439 C436 1.409 . S
C439 C437 1.415 . S
C440 H430 0.930 . S
C440 C438 1.419 . S
C440 C441 1.362 . S
C441 H431 0.930 . S
C441 C434 1.409 . S
C441 C440 1.362 . S
H442 C448 0.930 . S
H443 C451 0.930 . S
H444 C452 0.930 . S
H445 C453 0.930 . S
H446 C456 0.930 . S
H447 C457 0.930 . S
C448 H442 0.930 . S
C448 C449 1.355 . S
C448 C450 1.415 . S
C449 C448 1.355 . S
C449 C451 1.419 . S
C450 C448 1.415 . S
C450 C455 1.425 . S
C450 C457 1.409 . S
C451 H443 0.930 . S
C451 C449 1.419 . S
C451 C452 1.362 . S
C452 H444 0.930 . S
C452 C451 1.362 . S
C452 C455 1.409 . S
C453 H445 0.930 . S
C453 C454 1.355 . S
C453 C455 1.415 1_554 S
C454 C453 1.355 . S
C454 C456 1.419 . S
C455 C450 1.425 . S
C455 C452 1.409 . S
C455 C453 1.415 1_556 S
C456 H446 0.930 . S
C456 C454 1.419 . S
C456 C457 1.362 1_554 S
C457 H447 0.930 . S
C457 C450 1.409 . S
C457 C456 1.362 1_556 S
H458 C464 0.930 . S
H459 C467 0.930 . S
H460 C468 0.930 . S
H461 C469 0.930 . S
H462 C472 0.930 . S
H463 C473 0.930 . S
C464 H458 0.930 . S
C464 C465 1.355 . S
C464 C466 1.415 1_554 S
C465 C464 1.355 . S
C465 C467 1.419 . S
C466 C464 1.415 1_556 S
C466 C471 1.425 . S
C466 C473 1.409 . S
C467 H459 0.930 . S
C467 C465 1.419 . S
C467 C468 1.362 1_554 S
C468 H460 0.930 . S
C468 C467 1.362 1_556 S
C468 C471 1.409 . S
C469 H461 0.930 . S
C469 C470 1.355 . S
C469 C471 1.415 . S
C470 C469 1.355 . S
C470 C472 1.419 . S
C471 C466 1.425 . S
C471 C468 1.409 . S
C471 C469 1.415 . S
C472 H462 0.930 . S
C472 C470 1.419 . S
C472 C473 1.362 . S
C473 H463 0.930 . S
C473 C466 1.409 . S
C473 C472 1.362 . S
H474 C480 0.930 . S
H475 C483 0.930 . S
H476 C484 0.930 . S
H477 C485 0.930 . S
H478 C488 0.930 . S
H479 C489 0.930 . S
C480 H474 0.930 . S
C480 C481 1.355 . S
C480 C482 1.415 . S
C481 C480 1.355 . S
C481 C483 1.419 . S
C482 C480 1.415 . S
C482 C487 1.425 . S
C482 C489 1.409 . S
C483 H475 0.930 . S
C483 C481 1.419 . S
C483 C484 1.362 . S
C484 H476 0.930 . S
C484 C483 1.362 . S
C484 C487 1.409 . S
C485 H477 0.930 . S
C485 C486 1.355 . S
C485 C487 1.415 . S
C486 C485 1.355 . S
C486 C488 1.419 . S
C487 C482 1.425 . S
C487 C484 1.409 . S
C487 C485 1.415 . S
C488 H478 0.930 . S
C488 C486 1.419 . S
C488 C489 1.362 . S
C489 H479 0.930 . S
C489 C482 1.409 . S
C489 C488 1.362 . S
H490 C496 0.930 . S
H491 C499 0.930 . S
H492 C500 0.930 . S
H493 C501 0.930 . S
H494 C504 0.930 . S
H495 C505 0.930 . S
C496 H490 0.930 . S
C496 C497 1.355 . S
C496 C498 1.415 . S
C497 C496 1.355 . S
C497 C499 1.419 . S
C498 C496 1.415 . S
C498 C503 1.425 . S
C498 C505 1.409 . S
C499 H491 0.930 . S
C499 C497 1.419 . S
C499 C500 1.362 . S
C500 H492 0.930 . S
C500 C499 1.362 . S
C500 C503 1.409 . S
C501 H493 0.930 . S
C501 C502 1.355 . S
C501 C503 1.415 . S
C502 C501 1.355 . S
C502 C504 1.419 . S
C503 C498 1.425 . S
C503 C500 1.409 . S
C503 C501 1.415 . S
C504 H494 0.930 . S
C504 C502 1.419 . S
C504 C505 1.362 . S
C505 H495 0.930 . S
C505 C498 1.409 . S
C505 C504 1.362 . S
H506 C512 0.930 . S
H507 C515 0.930 . S
H508 C516 0.930 . S
H509 C517 0.930 . S
H510 C520 0.930 . S
H511 C521 0.930 . S
C512 H506 0.930 . S
C512 C513 1.355 . S
C512 C514 1.415 . S
C513 C512 1.355 . S
C513 C515 1.419 . S
C514 C512 1.415 . S
C514 C519 1.425 . S
C514 C521 1.409 . S
C515 H507 0.930 . S
C515 C513 1.419 . S
C515 C516 1.362 . S
C516 H508 0.930 . S
C516 C515 1.362 . S
C516 C519 1.409 . S
C517 H509 0.930 . S
C517 C518 1.355 . S
C517 C519 1.415 . S
C518 C517 1.355 . S
C518 C520 1.419 . S
C519 C514 1.425 . S
C519 C516 1.409 . S
C519 C517 1.415 . S
C520 H510 0.930 . S
C520 C518 1.419 . S
C520 C521 1.362 . S
C521 H511 0.930 . S
C521 C514 1.409 . S
C521 C520 1.362 . S
H522 C528 0.930 1_554 S
H523 C531 0.930 . S
H524 C532 0.930 . S
H525 C533 0.930 . S
H526 C536 0.930 . S
H527 C537 0.930 1_554 S
C528 H522 0.930 1_556 S
C528 C529 1.355 . S
C528 C530 1.415 . S
C529 C528 1.355 . S
C529 C531 1.419 . S
C530 C528 1.415 . S
C530 C535 1.425 . S
C530 C537 1.409 . S
C531 H523 0.930 . S
C531 C529 1.419 . S
C531 C532 1.362 . S
C532 H524 0.930 . S
C532 C531 1.362 . S
C532 C535 1.409 . S
C533 H525 0.930 . S
C533 C534 1.355 . S
C533 C535 1.415 . S
C534 C533 1.355 . S
C534 C536 1.419 . S
C535 C530 1.425 . S
C535 C532 1.409 . S
C535 C533 1.415 . S
C536 H526 0.930 . S
C536 C534 1.419 . S
C536 C537 1.362 . S
C537 H527 0.930 1_556 S
C537 C530 1.409 . S
C537 C536 1.362 . S
H538 C544 0.930 . S
H539 C547 0.930 . S
H540 C548 0.930 . S
H541 C549 0.930 . S
H542 C552 0.930 . S
H543 C553 0.930 . S
C544 H538 0.930 . S
C544 C545 1.355 . S
C544 C546 1.415 . S
C545 C544 1.355 . S
C545 C547 1.419 . S
C546 C544 1.415 . S
C546 C551 1.425 . S
C546 C553 1.409 1_556 S
C547 H539 0.930 . S
C547 C545 1.419 . S
C547 C548 1.362 . S
C548 H540 0.930 . S
C548 C547 1.362 . S
C548 C551 1.409 . S
C549 H541 0.930 . S
C549 C550 1.355 . S
C549 C551 1.415 . S
C550 C549 1.355 . S
C550 C552 1.419 1_556 S
C551 C546 1.425 . S
C551 C548 1.409 . S
C551 C549 1.415 . S
C552 H542 0.930 . S
C552 C550 1.419 1_554 S
C552 C553 1.362 . S
C553 H543 0.930 . S
C553 C546 1.409 1_554 S
C553 C552 1.362 . S
H554 C560 0.930 . S
H555 C563 0.930 . S
H556 C564 0.930 . S
H557 C565 0.930 . S
H558 C568 0.930 1_554 S
H559 C569 0.930 . S
C560 H554 0.930 . S
C560 C561 1.355 . S
C560 C562 1.415 . S
C561 C560 1.355 . S
C561 C563 1.419 . S
C562 C560 1.415 . S
C562 C567 1.425 . S
C562 C569 1.409 . S
C563 H555 0.930 . S
C563 C561 1.419 . S
C563 C564 1.362 . S
C564 H556 0.930 . S
C564 C563 1.362 . S
C564 C567 1.409 . S
C565 H557 0.930 . S
C565 C566 1.355 . S
C565 C567 1.415 . S
C566 C565 1.355 . S
C566 C568 1.419 . S
C567 C562 1.425 . S
C567 C564 1.409 . S
C567 C565 1.415 . S
C568 H558 0.930 1_556 S
C568 C566 1.419 . S
C568 C569 1.362 . S
C569 H559 0.930 . S
C569 C562 1.409 . S
C569 C568 1.362 . S
H570 C576 0.930 . S
H571 C579 0.930 . S
H572 C580 0.930 . S
H573 C581 0.930 . S
H574 C584 0.930 . S
H575 C585 0.930 . S
C576 H570 0.930 . S
C576 C577 1.355 . S
C576 C578 1.415 . S
C577 C576 1.355 . S
C577 C579 1.419 . S
C578 C576 1.415 . S
C578 C583 1.425 . S
C578 C585 1.409 . S
C579 H571 0.930 . S
C579 C577 1.419 . S
C579 C580 1.362 . S
C580 H572 0.930 . S
C580 C579 1.362 . S
C580 C583 1.409 . S
C581 H573 0.930 . S
C581 C582 1.355 . S
C581 C583 1.415 . S
C582 C581 1.355 . S
C582 C584 1.419 . S
C583 C578 1.425 . S
C583 C580 1.409 . S
C583 C581 1.415 . S
C584 H574 0.930 . S
C584 C582 1.419 . S
C584 C585 1.362 . S
C585 H575 0.930 . S
C585 C578 1.409 . S
C585 C584 1.362 . S
H586 C592 0.930 . S
H587 C595 0.930 . S
H588 C596 0.930 . S
H589 C597 0.930 . S
H590 C600 0.930 . S
H591 C601 0.930 . S
C592 H586 0.930 . S
C592 C593 1.355 . S
C592 C594 1.415 . S
C593 C592 1.355 . S
C593 C595 1.419 . S
C594 C592 1.415 . S
C594 C599 1.425 . S
C594 C601 1.409 . S
C595 H587 0.930 . S
C595 C593 1.419 . S
C595 C596 1.362 . S
C596 H588 0.930 . S
C596 C595 1.362 . S
C596 C599 1.409 . S
C597 H589 0.930 . S
C597 C598 1.355 . S
C597 C599 1.415 . S
C598 C597 1.355 . S
C598 C600 1.419 . S
C599 C594 1.425 . S
C599 C596 1.409 . S
C599 C597 1.415 . S
C600 H590 0.930 . S
C600 C598 1.419 . S
C600 C601 1.362 . S
C601 H591 0.930 . S
C601 C594 1.409 . S
C601 C600 1.362 . S
H602 C608 0.930 . S
H603 C611 0.930 . S
H604 C612 0.930 . S
H605 C613 0.930 . S
H606 C616 0.930 . S
H607 C617 0.930 . S
C608 H602 0.930 . S
C608 C609 1.355 . S
C608 C610 1.415 . S
C609 C608 1.355 . S
C609 C611 1.419 . S
C610 C608 1.415 . S
C610 C615 1.425 . S
C610 C617 1.409 . S
C611 H603 0.930 . S
C611 C609 1.419 . S
C611 C612 1.362 . S
C612 H604 0.930 . S
C612 C611 1.362 . S
C612 C615 1.409 . S
C613 H605 0.930 . S
C613 C614 1.355 . S
C613 C615 1.415 . S
C614 C613 1.355 . S
C614 C616 1.419 . S
C615 C610 1.425 . S
C615 C612 1.409 . S
C615 C613 1.415 . S
C616 H606 0.930 . S
C616 C614 1.419 . S
C616 C617 1.362 . S
C617 H607 0.930 . S
C617 C610 1.409 . S
C617 C616 1.362 . S
H618 C624 0.930 . S
H619 C627 0.930 . S
H620 C628 0.930 . S
H621 C629 0.930 . S
H622 C632 0.930 1_455 S
H623 C633 0.930 . S
C624 H618 0.930 . S
C624 C625 1.355 . S
C624 C626 1.415 . S
C625 C624 1.355 . S
C625 C627 1.419 . S
C626 C624 1.415 . S
C626 C631 1.425 . S
C626 C633 1.409 . S
C627 H619 0.930 . S
C627 C625 1.419 . S
C627 C628 1.362 . S
C628 H620 0.930 . S
C628 C627 1.362 . S
C628 C631 1.409 . S
C629 H621 0.930 . S
C629 C630 1.355 . S
C629 C631 1.415 . S
C630 C629 1.355 . S
C630 C632 1.419 . S
C631 C626 1.425 . S
C631 C628 1.409 . S
C631 C629 1.415 . S
C632 H622 0.930 1_655 S
C632 C630 1.419 . S
C632 C633 1.362 . S
C633 H623 0.930 . S
C633 C626 1.409 . S
C633 C632 1.362 . S
H634 C640 0.930 . S
H635 C643 0.930 . S
H636 C644 0.930 . S
H637 C645 0.930 . S
H638 C648 0.930 . S
H639 C649 0.930 . S
C640 H634 0.930 . S
C640 C641 1.355 . S
C640 C642 1.415 . S
C641 C640 1.355 . S
C641 C643 1.419 . S
C642 C640 1.415 . S
C642 C647 1.425 . S
C642 C649 1.409 . S
C643 H635 0.930 . S
C643 C641 1.419 . S
C643 C644 1.362 . S
C644 H636 0.930 . S
C644 C643 1.362 . S
C644 C647 1.409 . S
C645 H637 0.930 . S
C645 C646 1.355 . S
C645 C647 1.415 . S
C646 C645 1.355 . S
C646 C648 1.419 . S
C647 C642 1.425 . S
C647 C644 1.409 . S
C647 C645 1.415 . S
C648 H638 0.930 . S
C648 C646 1.419 . S
C648 C649 1.362 . S
C649 H639 0.930 . S
C649 C642 1.409 . S
C649 C648 1.362 . S
H650 C656 0.930 . S
H651 C659 0.930 . S
H652 C660 0.930 . S
H653 C661 0.930 . S
H654 C664 0.930 . S
H655 C665 0.930 . S
C656 H650 0.930 . S
C656 C657 1.355 . S
C656 C658 1.415 . S
C657 C656 1.355 . S
C657 C659 1.419 . S
C658 C656 1.415 . S
C658 C663 1.425 . S
C658 C665 1.409 . S
C659 H651 0.930 . S
C659 C657 1.419 . S
C659 C660 1.362 . S
C660 H652 0.930 . S
C660 C659 1.362 . S
C660 C663 1.409 . S
C661 H653 0.930 . S
C661 C662 1.355 . S
C661 C663 1.415 . S
C662 C661 1.355 . S
C662 C664 1.419 . S
C663 C658 1.425 . S
C663 C660 1.409 . S
C663 C661 1.415 . S
C664 H654 0.930 . S
C664 C662 1.419 . S
C664 C665 1.362 . S
C665 H655 0.930 . S
C665 C658 1.409 . S
C665 C664 1.362 . S
H666 C672 0.930 . S
H667 C675 0.930 . S
H668 C676 0.930 . S
H669 C677 0.930 . S
H670 C680 0.930 . S
H671 C681 0.930 . S
C672 H666 0.930 . S
C672 C673 1.355 . S
C672 C674 1.415 . S
C673 C672 1.355 . S
C673 C675 1.419 . S
C674 C672 1.415 . S
C674 C679 1.425 . S
C674 C681 1.409 . S
C675 H667 0.930 . S
C675 C673 1.419 . S
C675 C676 1.362 . S
C676 H668 0.930 . S
C676 C675 1.362 . S
C676 C679 1.409 . S
C677 H669 0.930 . S
C677 C678 1.355 . S
C677 C679 1.415 . S
C678 C677 1.355 . S
C678 C680 1.419 . S
C679 C674 1.425 . S
C679 C676 1.409 . S
C679 C677 1.415 . S
C680 H670 0.930 . S
C680 C678 1.419 . S
C680 C681 1.362 . S
C681 H671 0.930 . S
C681 C674 1.409 . S
C681 C680 1.362 . S
H682 C688 0.930 . S
H683 C691 0.930 . S
H684 C692 0.930 . S
H685 C693 0.930 . S
H686 C696 0.930 . S
H687 C697 0.930 . S
C688 H682 0.930 . S
C688 C689 1.355 . S
C688 C690 1.415 . S
C689 C688 1.355 . S
C689 C691 1.419 . S
C690 C688 1.415 . S
C690 C695 1.425 . S
C690 C697 1.409 . S
C691 H683 0.930 . S
C691 C689 1.419 . S
C691 C692 1.362 . S
C692 H684 0.930 . S
C692 C691 1.362 . S
C692 C695 1.409 . S
C693 H685 0.930 . S
C693 C694 1.355 . S
C693 C695 1.415 . S
C694 C693 1.355 . S
C694 C696 1.419 . S
C695 C690 1.425 . S
C695 C692 1.409 . S
C695 C693 1.415 . S
C696 H686 0.930 . S
C696 C694 1.419 . S
C696 C697 1.362 . S
C697 H687 0.930 . S
C697 C690 1.409 . S
C697 C696 1.362 . S
H698 C704 0.930 . S
H699 C707 0.930 . S
H700 C708 0.930 . S
H701 C709 0.930 . S
H702 C712 0.930 . S
H703 C713 0.930 . S
C704 H698 0.930 . S
C704 C705 1.355 . S
C704 C706 1.415 . S
C705 C704 1.355 . S
C705 C707 1.419 . S
C706 C704 1.415 . S
C706 C711 1.425 . S
C706 C713 1.409 . S
C707 H699 0.930 . S
C707 C705 1.419 . S
C707 C708 1.362 . S
C708 H700 0.930 . S
C708 C707 1.362 . S
C708 C711 1.409 . S
C709 H701 0.930 . S
C709 C710 1.355 . S
C709 C711 1.415 . S
C710 C709 1.355 . S
C710 C712 1.419 . S
C711 C706 1.425 . S
C711 C708 1.409 . S
C711 C709 1.415 . S
C712 H702 0.930 . S
C712 C710 1.419 . S
C712 C713 1.362 . S
C713 H703 0.930 . S
C713 C706 1.409 . S
C713 C712 1.362 . S
H714 C720 0.930 . S
H715 C723 0.930 . S
H716 C724 0.930 . S
H717 C725 0.930 . S
H718 C728 0.930 . S
H719 C729 0.930 . S
C720 H714 0.930 . S
C720 C721 1.355 . S
C720 C722 1.415 . S
C721 C720 1.355 . S
C721 C723 1.419 . S
C722 C720 1.415 . S
C722 C727 1.425 . S
C722 C729 1.409 . S
C723 H715 0.930 . S
C723 C721 1.419 . S
C723 C724 1.362 . S
C724 H716 0.930 . S
C724 C723 1.362 . S
C724 C727 1.409 . S
C725 H717 0.930 . S
C725 C726 1.355 . S
C725 C727 1.415 . S
C726 C725 1.355 . S
C726 C728 1.419 . S
C727 C722 1.425 . S
C727 C724 1.409 . S
C727 C725 1.415 . S
C728 H718 0.930 . S
C728 C726 1.419 . S
C728 C729 1.362 . S
C729 H719 0.930 . S
C729 C722 1.409 . S
C729 C728 1.362 . S
H730 C736 0.930 . S
H731 C739 0.930 . S
H732 C740 0.930 . S
H733 C741 0.930 . S
H734 C744 0.930 . S
H735 C745 0.930 . S
C736 H730 0.930 . S
C736 C737 1.355 . S
C736 C738 1.415 . S
C737 C736 1.355 . S
C737 C739 1.419 . S
C738 C736 1.415 . S
C738 C743 1.425 . S
C738 C745 1.409 1_545 S
C739 H731 0.930 . S
C739 C737 1.419 . S
C739 C740 1.362 . S
C740 H732 0.930 . S
C740 C739 1.362 . S
C740 C743 1.409 . S
C741 H733 0.930 . S
C741 C742 1.355 . S
C741 C743 1.415 1_565 S
C742 C741 1.355 . S
C742 C744 1.419 . S
C743 C738 1.425 . S
C743 C740 1.409 . S
C743 C741 1.415 1_545 S
C744 H734 0.930 . S
C744 C742 1.419 . S
C744 C745 1.362 . S
C745 H735 0.930 . S
C745 C738 1.409 1_565 S
C745 C744 1.362 . S
H746 C752 0.930 . S
H747 C755 0.930 . S
H748 C756 0.930 1_655 S
H749 C757 0.930 . S
H750 C760 0.930 . S
H751 C761 0.930 . S
C752 H746 0.930 . S
C752 C753 1.355 . S
C752 C754 1.415 . S
C753 C752 1.355 . S
C753 C755 1.419 . S
C754 C752 1.415 . S
C754 C759 1.425 1_455 S
C754 C761 1.409 . S
C755 H747 0.930 . S
C755 C753 1.419 . S
C755 C756 1.362 . S
C756 H748 0.930 1_455 S
C756 C755 1.362 . S
C756 C759 1.409 1_455 S
C757 H749 0.930 . S
C757 C758 1.355 . S
C757 C759 1.415 . S
C758 C757 1.355 . S
C758 C760 1.419 . S
C759 C754 1.425 1_655 S
C759 C756 1.409 1_655 S
C759 C757 1.415 . S
C760 H750 0.930 . S
C760 C758 1.419 . S
C760 C761 1.362 1_655 S
C761 H751 0.930 . S
C761 C754 1.409 . S
C761 C760 1.362 1_455 S
H762 C768 0.930 . S
H763 C771 0.930 . S
H764 C772 0.930 . S
H765 C773 0.930 . S
H766 C776 0.930 . S
H767 C777 0.930 . S
C768 H762 0.930 . S
C768 C769 1.355 . S
C768 C770 1.415 . S
C769 C768 1.355 . S
C769 C771 1.419 . S
C770 C768 1.415 . S
C770 C775 1.425 . S
C770 C777 1.409 . S
C771 H763 0.930 . S
C771 C769 1.419 . S
C771 C772 1.362 . S
C772 H764 0.930 . S
C772 C771 1.362 . S
C772 C775 1.409 . S
C773 H765 0.930 . S
C773 C774 1.355 . S
C773 C775 1.415 . S
C774 C773 1.355 . S
C774 C776 1.419 . S
C775 C770 1.425 . S
C775 C772 1.409 . S
C775 C773 1.415 . S
C776 H766 0.930 . S
C776 C774 1.419 . S
C776 C777 1.362 . S
C777 H767 0.930 . S
C777 C770 1.409 . S
C777 C776 1.362 . S
H778 C784 0.930 . S
H779 C787 0.930 . S
H780 C788 0.930 . S
H781 C789 0.930 . S
H782 C792 0.930 . S
H783 C793 0.930 . S
C784 H778 0.930 . S
C784 C785 1.355 . S
C784 C786 1.415 . S
C785 C784 1.355 . S
C785 C787 1.419 . S
C786 C784 1.415 . S
C786 C791 1.425 . S
C786 C793 1.409 1_545 S
C787 H779 0.930 . S
C787 C785 1.419 . S
C787 C788 1.362 . S
C788 H780 0.930 . S
C788 C787 1.362 . S
C788 C791 1.409 . S
C789 H781 0.930 . S
C789 C790 1.355 . S
C789 C791 1.415 1_565 S
C790 C789 1.355 . S
C790 C792 1.419 . S
C791 C786 1.425 . S
C791 C788 1.409 . S
C791 C789 1.415 1_545 S
C792 H782 0.930 . S
C792 C790 1.419 . S
C792 C793 1.362 . S
C793 H783 0.930 . S
C793 C786 1.409 1_565 S
C793 C792 1.362 . S
H794 C800 0.930 . S
H795 C803 0.930 . S
H796 C804 0.930 . S
H797 C805 0.930 . S
H798 C808 0.930 . S
H799 C809 0.930 . S
C800 H794 0.930 . S
C800 C801 1.355 . S
C800 C802 1.415 . S
C801 C800 1.355 . S
C801 C803 1.419 . S
C802 C800 1.415 . S
C802 C807 1.425 . S
C802 C809 1.409 1_455 S
C803 H795 0.930 . S
C803 C801 1.419 . S
C803 C804 1.362 . S
C804 H796 0.930 . S
C804 C803 1.362 . S
C804 C807 1.409 . S
C805 H797 0.930 . S
C805 C806 1.355 . S
C805 C807 1.415 1_655 S
C806 C805 1.355 . S
C806 C808 1.419 . S
C807 C802 1.425 . S
C807 C804 1.409 . S
C807 C805 1.415 1_455 S
C808 H798 0.930 . S
C808 C806 1.419 . S
C808 C809 1.362 . S
C809 H799 0.930 . S
C809 C802 1.409 1_655 S
C809 C808 1.362 . S
C241 C57 1.096 . S
C246 C10 1.105 . S
C257 C70 1.077 . S
C262 C23 1.082 . S
C273 C29 1.097 . S
C278 C44 1.068 . S
C289 C62 1.116 . S
C294 C5 1.129 . S
C305 C75 1.128 . S
C310 C18 1.105 . S
C321 C27 1.149 . S
C326 C49 1.119 . S
C337 C131 1.099 . S
C342 C83 1.119 . S
C353 C144 1.104 . S
C358 C94 1.112 . S
C369 C107 1.099 . S
C374 C127 1.132 . S
C385 C88 1.126 . S
C390 C133 1.141 1_554 S
C401 C146 1.088 1_554 S
C406 C92 1.100 . S
C417 C122 1.125 1_554 S
C422 C105 1.086 . S
C433 C209 1.120 . S
C438 C161 1.101 . S
C449 C172 1.081 . S
C454 C222 1.121 . S
C465 C205 1.133 . S
C470 C185 1.128 . S
C481 C211 1.144 . S
C486 C166 1.122 . S
C497 C224 1.090 . S
C502 C170 1.096 . S
C513 C183 1.079 . S
C518 C200 1.113 . S
C529 C1 1.541 1_556 S
C534 C118 1.551 . S
C545 C140 1.580 . S
C550 C14 1.579 1_556 S
C561 C153 1.553 . S
C566 C31 1.571 1_556 S
C577 C42 1.565 . S
C582 C159 1.547 . S
C593 C174 1.543 . S
C598 C55 1.544 . S
C609 C187 1.556 . S
C614 C68 1.559 . S
C625 C198 1.531 . S
C630 C3 1.555 . S
C641 C213 1.558 . S
C646 C16 1.554 . S
C657 C226 1.554 . S
C662 C36 1.585 . S
C673 C40 1.551 . S
C678 C79 1.583 . S
C689 C53 1.582 . S
C694 C101 1.580 . S
C705 C114 1.547 . S
C710 C66 1.549 . S
C721 C196 1.577 . S
C726 C81 1.553 . S
C737 C218 1.554 . S
C742 C96 1.525 . S
C753 C109 1.576 . S
C758 C231 1.559 . S
C769 C157 1.552 . S
C774 C120 1.529 . S
C785 C179 1.542 . S
C790 C135 1.557 . S
C801 C148 1.551 . S
C806 C192 1.536 . S
