# Generated by pormake.
# Topology qdl, (4)-cn, num edge types: 1
# Building blocks:
#     Node 0, Type 0, BuildingBlock: NAWXER_clean_sbu_0, # of connection points: 4
#     Node 1, Type 0, BuildingBlock: NAWXER_clean_sbu_0, # of connection points: 4
#     Node 2, Type 0, BuildingBlock: NAWXER_clean_sbu_0, # of connection points: 4
#     Node 3, Type 0, BuildingBlock: NAWXER_clean_sbu_0, # of connection points: 4
#     Node 4, Type 0, BuildingBlock: NAWXER_clean_sbu_0, # of connection points: 4
#     Node 5, Type 0, BuildingBlock: NAWXER_clean_sbu_0, # of connection points: 4
#     Edge 6, Type (0, 0), BuildingBlock: KIFKEQ_clean_linker_1, # of connection points: 2
#     Edge 7, Type (0, 0), BuildingBlock: KIFKEQ_clean_linker_1, # of connection points: 2
#     Edge 8, Type (0, 0), BuildingBlock: KIFKEQ_clean_linker_1, # of connection points: 2
#     Edge 9, Type (0, 0), BuildingBlock: KIFKEQ_clean_linker_1, # of connection points: 2
#     Edge 10, Type (0, 0), BuildingBlock: KIFKEQ_clean_linker_1, # of connection points: 2
#     Edge 11, Type (0, 0), BuildingBlock: KIFKEQ_clean_linker_1, # of connection points: 2
#     Edge 12, Type (0, 0), BuildingBlock: KIFKEQ_clean_linker_1, # of connection points: 2
#     Edge 13, Type (0, 0), BuildingBlock: KIFKEQ_clean_linker_1, # of connection points: 2
#     Edge 14, Type (0, 0), BuildingBlock: KIFKEQ_clean_linker_1, # of connection points: 2
#     Edge 15, Type (0, 0), BuildingBlock: KIFKEQ_clean_linker_1, # of connection points: 2
#     Edge 16, Type (0, 0), BuildingBlock: KIFKEQ_clean_linker_1, # of connection points: 2
#     Edge 17, Type (0, 0), BuildingBlock: KIFKEQ_clean_linker_1, # of connection points: 2
# Relax obj value: 0.000
# Max RMSD: 0.024
# Mean RMSD: 0.019
data_MOF--net-qdl--node1-NAWXER_clean_sbu_0--edge1-KIFKEQ_clean_linker_1
_symmetry_space_group_name_H-M    P1
_symmetry_Int_Tables_number       1
_symmetry_cell_setting            triclinic
loop_
_symmetry_equiv_pos_as_xyz
'x, y, z'
_cell_length_a     14.970481
_cell_length_b     14.962926
_cell_length_c     89.314688
_cell_angle_alpha  94.854269
_cell_angle_beta   94.669923
_cell_angle_gamma 120.06302
loop_
_atom_site_label
_atom_site_type_symbol
_atom_site_fract_x
_atom_site_fract_y
_atom_site_fract_z
_atom_type_partial_charge
C0 C 0.35325 0.16888 0.09993 0.0
C1 C 0.35173 0.49611 0.10281 0.0
O2 O 0.43192 0.26096 0.10286 0.0
Zn3 Zn 0.35504 0.3339 0.10148 0.0
O4 O 0.26149 0.15559 0.09753 0.0
Zn5 Zn 0.18957 0.24831 0.09697 0.0
O6 O 0.11784 0.20913 0.07649 0.0
O7 O 0.28919 0.29486 0.07778 0.0
O8 O 0.26007 0.41476 0.10024 0.0
O9 O 0.43102 0.48554 0.10421 0.0
O10 O 0.2764 0.2983 0.12127 0.0
O11 O 0.10711 0.20698 0.11327 0.0
C12 C 0.19827 0.24789 0.06984 0.0
C13 C 0.18218 0.24897 0.12415 0.0
C14 C 0.16995 0.9585 0.42116 0.0
C15 C 0.84163 0.955 0.42129 0.0
O16 O 0.07853 0.87866 0.41913 0.0
Zn17 Zn 1.00454 0.9537 0.42099 0.0
O18 O 0.18224 0.04996 0.4238 0.0
Zn19 Zn 0.08789 0.11986 0.4261 0.0
O20 O 0.13006 0.1882 0.44691 0.0
O21 O 0.04488 1.01617 0.44477 0.0
O22 O 0.92259 0.04664 0.42425 0.0
O23 O 0.8523 0.87659 0.41826 0.0
O24 O 0.03973 0.03549 0.40162 0.0
O25 O 0.11933 0.20442 0.40991 0.0
C26 C 0.0917 0.10577 0.45311 0.0
C27 C 0.08295 0.13013 0.39894 0.0
C28 C 0.13243 0.14897 0.78827 0.0
C29 C 0.10473 0.11818 0.73294 0.0
O30 O 0.08759 0.18191 0.77951 0.0
Zn31 Zn 0.11798 0.13582 0.76063 0.0
O32 O 0.17682 0.10224 0.78262 0.0
Zn33 Zn 0.20084 0.05388 0.76076 0.0
O34 O 0.35157 0.12987 0.7619 0.0
O35 O 0.2843 0.23174 0.76241 0.0
O36 O 0.15242 0.07529 0.73874 0.0
O37 O 0.07125 0.16324 0.7416 0.0
O38 O 1.0232 0.96947 0.75896 0.0
O39 O 0.12566 0.90295 0.7598 0.0
C40 C 0.36407 0.22078 0.76267 0.0
C41 C 0.03458 0.88999 0.75887 0.0
C42 C 1.02052 0.06795 0.61871 0.0
C43 C 1.02045 0.07408 0.56411 0.0
O44 O 0.05974 0.14763 0.6119 0.0
Zn45 Zn 1.02073 0.07331 0.59145 0.0
O46 O 0.97379 0.97642 0.61094 0.0
Zn47 Zn 0.935 0.9068 0.58754 0.0
O48 O 1.00833 0.83006 0.58666 0.0
O49 O 0.11331 1.00096 0.59133 0.0
O50 O 0.97142 0.98134 0.56755 0.0
O51 O 0.06207 0.15195 0.5746 0.0
O52 O 0.85425 1.00245 0.58821 0.0
O53 O 0.78346 0.8313 0.58482 0.0
C54 C 0.10028 0.90907 0.58932 0.0
C55 C 0.77291 0.91071 0.58591 0.0
C56 C 0.14274 0.15221 0.95551 0.0
C57 C 0.10797 0.12209 0.90016 0.0
O58 O 0.09692 0.185 0.94691 0.0
Zn59 Zn 0.12272 0.13712 0.92781 0.0
O60 O 0.18489 0.10383 0.94963 0.0
Zn61 Zn 0.2042 0.05391 0.92749 0.0
O62 O 0.35486 0.12856 0.92821 0.0
O63 O 0.28882 0.23147 0.92924 0.0
O64 O 0.15479 0.07756 0.90569 0.0
O65 O 0.0758 0.16735 0.90903 0.0
O66 O 0.02657 0.97083 0.92608 0.0
O67 O 0.12801 0.90314 0.9264 0.0
C68 C 0.36802 0.21979 0.92919 0.0
C69 C 0.03731 0.89086 0.92575 0.0
C70 C 0.05425 0.18894 0.28786 0.0
C71 C 0.0573 0.18184 0.23332 0.0
O72 O 0.9617 0.14335 0.28047 0.0
Zn73 Zn 0.89047 0.10154 0.25697 0.0
O74 O 0.13224 0.22387 0.2807 0.0
Zn75 Zn 0.0558 0.1843 0.26058 0.0
O76 O 0.98565 0.27938 0.26034 0.0
O77 O 0.81457 0.1751 0.25608 0.0
O78 O 0.13424 0.22047 0.24387 0.0
O79 O 0.96408 0.13621 0.23665 0.0
O80 O 0.81319 0.94933 0.2545 0.0
O81 O 0.98378 1.01847 0.25759 0.0
C82 C 0.89395 0.26686 0.25848 0.0
C83 C 0.89189 0.93776 0.25545 0.0
H84 H 0.52104 0.15609 0.11208 0.0
H85 H 0.21057 0.97116 0.08696 0.0
H86 H 0.52877 0.99697 0.11346 0.0
H87 H 0.21935 0.81436 0.08791 0.0
H88 H 0.20288 0.54386 0.10749 0.0
H89 H 0.2125 0.7101 0.107 0.0
H90 H 0.53353 0.85174 0.09916 0.0
H91 H 0.52464 0.68414 0.10013 0.0
C92 C 0.45521 0.08184 0.10669 0.0
C93 C 0.36464 0.07599 0.0996 0.0
C94 C 0.45968 0.99078 0.10745 0.0
C95 C 0.37386 0.89257 0.10106 0.0
C96 C 0.28567 0.88811 0.09336 0.0
C97 C 0.28087 0.97833 0.09273 0.0
C98 C 0.27586 0.61038 0.10573 0.0
C99 C 0.36265 0.60047 0.10368 0.0
C100 C 0.28121 0.7058 0.10535 0.0
C101 C 0.37312 0.79397 0.10271 0.0
C102 C 0.46154 0.78538 0.10122 0.0
C103 C 0.45642 0.68943 0.10174 0.0
H104 H 0.36421 0.11087 0.41793 0.0
H105 H 0.18618 0.78359 0.42238 0.0
H106 H 0.52025 0.1004 0.41759 0.0
H107 H 0.34504 0.77375 0.42254 0.0
H108 H 0.64844 0.79124 0.40803 0.0
H109 H 0.48061 0.78411 0.40752 0.0
H110 H 0.63492 0.0849 0.43579 0.0
H111 H 0.80064 0.09335 0.43586 0.0
C112 C 0.35848 0.03658 0.41894 0.0
C113 C 0.26296 0.94837 0.42038 0.0
C114 C 0.44831 0.03066 0.41882 0.0
C115 C 0.44579 0.93671 0.42034 0.0
C116 C 0.34962 0.84727 0.42133 0.0
C117 C 0.25883 0.853 0.4213 0.0
C118 C 0.64583 0.85533 0.41416 0.0
C119 C 0.7379 0.94361 0.42176 0.0
C120 C 0.54986 0.85116 0.41392 0.0
C121 C 0.54462 0.93491 0.42137 0.0
C122 C 0.63634 0.02047 0.42953 0.0
C123 C 0.73155 0.02509 0.42963 0.0
H124 H 1.02341 0.71118 0.76684 0.0
H125 H 0.8338 0.83254 0.74958 0.0
H126 H 0.86499 0.54519 0.76832 0.0
H127 H 0.67723 0.66749 0.7506 0.0
H128 H 0.42018 0.42243 0.77119 0.0
H129 H 0.58566 0.57864 0.77021 0.0
H130 H 0.71054 0.38921 0.75403 0.0
H131 H 0.54416 0.23128 0.75547 0.0
C132 C 0.94812 0.70188 0.76315 0.0
C133 C 0.94105 0.78536 0.75828 0.0
C134 C 0.85743 0.60684 0.76398 0.0
C135 C 0.75827 0.59364 0.75986 0.0
C136 C 0.75206 0.67579 0.7543 0.0
C137 C 0.84205 0.77041 0.75361 0.0
C138 C 0.48295 0.41375 0.7675 0.0
C139 C 0.46863 0.3144 0.76326 0.0
C140 C 0.57783 0.50351 0.76684 0.0
C141 C 0.66088 0.49669 0.76172 0.0
C142 C 0.64821 0.39726 0.75803 0.0
C143 C 0.55292 0.30684 0.75883 0.0
H144 H 0.11302 0.73994 0.57765 0.0
H145 H 0.29849 0.0538 0.60178 0.0
H146 H 0.27208 0.73247 0.57612 0.0
H147 H 0.45537 0.04538 0.60069 0.0
H148 H 0.72448 0.05881 0.58092 0.0
H149 H 0.55847 0.04942 0.58158 0.0
H150 H 0.41838 0.73005 0.59021 0.0
H151 H 0.58558 0.73865 0.58906 0.0
C152 C 0.18741 0.80659 0.58281 0.0
C153 C 0.19332 0.89793 0.58966 0.0
C154 C 0.27847 0.8023 0.58196 0.0
C155 C 0.37686 0.88909 0.58802 0.0
C156 C 0.38148 0.97821 0.59548 0.0
C157 C 0.29121 0.9828 0.5962 0.0
C158 C 0.65832 0.98623 0.58288 0.0
C159 C 0.66858 0.89982 0.5851 0.0
C160 C 0.56303 0.98103 0.58337 0.0
C161 C 0.47534 0.88967 0.58628 0.0
C162 C 0.48429 0.80161 0.58793 0.0
C163 C 0.58006 0.80656 0.58731 0.0
H164 H 0.54624 0.23087 0.92094 0.0
H165 H 0.42596 0.42051 0.93879 0.0
H166 H 0.71233 0.38948 0.91955 0.0
H167 H 0.59105 0.57718 0.93786 0.0
H168 H 0.83589 0.83537 0.91743 0.0
H169 H 0.67965 0.66964 0.91829 0.0
H170 H 0.86849 0.54344 0.93398 0.0
H171 H 0.02648 0.71011 0.93266 0.0
C172 C 0.5558 0.3062 0.92477 0.0
C173 C 0.47261 0.31327 0.92978 0.0
C174 C 0.65087 0.39698 0.924 0.0
C175 C 0.66437 0.49618 0.92831 0.0
C176 C 0.5825 0.50233 0.934 0.0
C177 C 0.48786 0.41228 0.93464 0.0
C178 C 0.84445 0.77228 0.92099 0.0
C179 C 0.94364 0.7863 0.92514 0.0
C180 C 0.75467 0.67725 0.92158 0.0
C181 C 0.76133 0.59374 0.92652 0.0
C182 C 0.86059 0.60614 0.93012 0.0
C183 C 0.95103 0.7016 0.9294 0.0
H184 H 0.04125 0.4668 0.26986 0.0
H185 H 0.72244 0.27798 0.24779 0.0
H186 H 0.03139 0.62303 0.26887 0.0
H187 H 0.71342 0.43628 0.24635 0.0
H188 H 0.7223 0.7517 0.25974 0.0
H189 H 0.71474 0.58466 0.26076 0.0
H190 H 0.028 0.72202 0.24955 0.0
H191 H 0.03651 0.8877 0.24902 0.0
C192 C 0.9689 0.45864 0.26475 0.0
C193 C 0.883 0.36 0.25875 0.0
C194 C 0.96342 0.54849 0.26409 0.0
C195 C 0.87231 0.54261 0.25724 0.0
C196 C 0.78475 0.44359 0.25172 0.0
C197 C 0.78998 0.35299 0.2525 0.0
C198 C 0.78899 0.7455 0.25739 0.0
C199 C 0.8805 0.83319 0.25452 0.0
C200 C 0.78465 0.6499 0.25794 0.0
C201 C 0.87156 0.64044 0.25554 0.0
C202 C 0.96077 0.72714 0.25193 0.0
C203 C 0.96541 0.82219 0.25152 0.0
H204 H 0.91777 0.15261 0.20901 0.0
H205 H 0.23602 0.23023 0.22139 0.0
H206 H 0.94711 0.17087 0.18275 0.0
H207 H 0.26436 0.24384 0.19502 0.0
H208 H 0.31729 0.36482 0.14988 0.0
H209 H 0.28601 0.34953 0.17609 0.0
H210 H 0.97158 0.09383 0.16064 0.0
H211 H 1.00182 0.11271 0.1344 0.0
C212 C 0.99377 0.17253 0.20608 0.0
C213 C 0.07467 0.19029 0.21729 0.0
C214 C 1.0105 0.18241 0.19098 0.0
C215 C 0.10822 0.20896 0.18667 0.0
C216 C 0.1887 0.2254 0.19791 0.0
C217 C 0.17233 0.21691 0.21304 0.0
C218 C 0.24137 0.30554 0.15209 0.0
C219 C 0.16201 0.24003 0.14006 0.0
C220 C 0.22357 0.29616 0.16715 0.0
C221 C 0.12636 0.21998 0.17058 0.0
C222 C 0.04691 0.15452 0.15849 0.0
C223 C 0.06433 0.16491 0.14342 0.0
H224 H 0.15914 0.2485 0.55255 0.0
H225 H 0.90561 0.93066 0.53925 0.0
H226 H 0.1851 0.263 0.52594 0.0
H227 H 0.92888 0.94599 0.51285 0.0
H228 H 0.06208 0.95256 0.46991 0.0
H229 H 0.05021 0.95261 0.49685 0.0
H230 H 0.11213 0.26919 0.50104 0.0
H231 H 0.12773 0.27018 0.47398 0.0
C232 C 0.10811 0.18233 0.54394 0.0
C233 C 0.03105 0.08809 0.54801 0.0
C234 C 0.12282 0.19066 0.52869 0.0
C235 C 0.06026 0.10507 0.51725 0.0
C236 C 0.9806 1.01252 0.52136 0.0
C237 C 0.96665 1.00394 0.53652 0.0
C238 C 0.07403 0.02257 0.47658 0.0
C239 C 0.09492 0.11103 0.46978 0.0
C240 C 0.06641 0.02238 0.49204 0.0
C241 C 0.07801 0.11016 0.50109 0.0
C242 C 0.10299 0.20032 0.49442 0.0
C243 C 0.11174 0.20087 0.47892 0.0
H244 H 0.25829 0.13174 0.80996 0.0
H245 H 1.0019 0.18754 0.80408 0.0
H246 H 0.24611 0.12878 0.83683 0.0
H247 H 0.98768 0.18171 0.8312 0.0
H248 H 0.06899 0.25285 0.88457 0.0
H249 H 0.07357 0.26702 0.85744 0.0
H250 H 0.12512 1.0076 0.85139 0.0
H251 H 0.12344 0.9955 0.87827 0.0
C252 C 0.19921 0.14352 0.81442 0.0
C253 C 0.1303 0.1587 0.80485 0.0
C254 C 0.19173 0.14109 0.82984 0.0
C255 C 0.11433 0.15258 0.83612 0.0
C256 C 0.04809 0.17248 0.82671 0.0
C257 C 0.05616 0.17573 0.81119 0.0
C258 C 0.08022 0.19835 0.87736 0.0
C259 C 0.09731 0.12401 0.88359 0.0
C260 C 0.08273 0.20638 0.86184 0.0
C261 C 0.10193 0.13988 0.85231 0.0
C262 C 0.11334 0.06218 0.85847 0.0
C263 C 0.11167 0.05475 0.8739 0.0
H264 H 0.35416 0.30694 0.05232 0.0
H265 H 1.01997 0.16777 0.04933 0.0
H266 H 0.33887 0.28795 0.02476 0.0
H267 H 1.00492 0.1482 0.02161 0.0
H268 H 0.04339 0.22908 0.97231 0.0
H269 H 0.05497 0.25549 1.00002 0.0
H270 H 0.26622 0.13869 1.00406 0.0
H271 H 0.25542 0.11291 0.97661 0.0
C272 C 0.27736 0.27243 0.0458 0.0
C273 C 0.18821 0.23835 0.05305 0.0
C274 C 0.26864 0.26119 0.02999 0.0
C275 C 0.17065 0.21607 0.02102 0.0
C276 C 0.08154 0.18391 0.02823 0.0
C277 C 0.09016 0.19454 0.0441 0.0
C278 C 0.09239 0.20928 0.97914 0.0
C279 C 0.14865 0.16914 0.97224 0.0
C280 C 0.09854 0.22386 0.99498 0.0
C281 C 0.16191 0.19962 1.00421 0.0
C282 C 0.21787 0.15946 0.99728 0.0
C283 C 0.21113 0.14416 0.98151 0.0
H284 H 0.92354 0.19043 0.3073 0.0
H285 H 0.21765 0.20332 0.30611 0.0
H286 H 0.94181 0.19008 0.3348 0.0
H287 H 0.234 0.1999 0.33356 0.0
H288 H 0.09557 1.01287 0.37525 0.0
H289 H 0.09997 0.04149 0.3487 0.0
H290 H 0.08746 0.3206 0.3601 0.0
H291 H 0.08629 0.29394 0.38689 0.0
C292 C 0.99231 0.19388 0.31293 0.0
C293 C 0.06906 0.19661 0.30458 0.0
C294 C 1.00292 0.19428 0.32864 0.0
C295 C 0.08925 0.19502 0.3362 0.0
C296 C 0.16685 0.19944 0.32792 0.0
C297 C 0.15752 0.2016 0.31227 0.0
C298 C 0.09462 0.08083 0.37212 0.0
C299 C 0.0903 0.1511 0.38309 0.0
C300 C 0.09773 0.09738 0.35698 0.0
C301 C 0.09415 0.18317 0.35245 0.0
C302 C 0.09036 0.25394 0.36339 0.0
C303 C 0.08995 0.23883 0.37866 0.0
H304 H 0.10184 0.24752 0.6392 0.0
H305 H 0.95727 0.91254 0.63625 0.0
H306 H 0.11902 0.26269 0.66697 0.0
H307 H 0.97392 0.92798 0.66376 0.0
H308 H 0.14573 1.00716 0.71176 0.0
H309 H 0.12366 0.99949 0.68437 0.0
H310 H 1.00859 0.21225 0.68858 0.0
H311 H 0.03125 0.22069 0.71628 0.0
C312 C 0.07342 0.17726 0.64444 0.0
C313 C 0.02889 0.07892 0.6355 0.0
C314 C 0.08268 0.18595 0.66032 0.0
C315 C 0.04843 0.09657 0.66752 0.0
C316 C 1.00236 0.99839 0.65855 0.0
C317 C 0.99253 0.98963 0.64275 0.0
C318 C 0.11565 0.05248 0.70692 0.0
C319 C 0.08989 0.1143 0.71624 0.0
C320 C 0.10256 0.0476 0.69118 0.0
C321 C 0.06382 0.10476 0.68432 0.0
C322 C 0.03909 0.16776 0.69359 0.0
C323 C 0.05145 0.17204 0.70941 0.0
loop_
_geom_bond_atom_site_label_1
_geom_bond_atom_site_label_2
_geom_bond_distance
_geom_bond_site_symmetry_2
_ccdc_geom_bond_type
C0 O2 1.247 1_565 S
C0 O4 1.258 . S
C1 O8 1.247 . S
C1 O9 1.258 . S
O2 C0 1.247 1_545 S
O2 Zn3 2.028 . S
Zn3 O2 2.028 . S
Zn3 O7 2.035 . S
Zn3 O9 2.035 . S
Zn3 O10 2.028 . S
O4 C0 1.258 . S
O4 Zn5 2.035 1_565 S
Zn5 O4 2.035 1_545 S
Zn5 O6 2.028 . S
Zn5 O8 2.028 . S
Zn5 O11 2.035 . S
O6 Zn5 2.028 . S
O6 C12 1.247 . S
O7 Zn3 2.035 . S
O7 C12 1.258 . S
O8 C1 1.247 . S
O8 Zn5 2.028 . S
O9 C1 1.258 . S
O9 Zn3 2.035 . S
O10 Zn3 2.028 . S
O10 C13 1.247 . S
O11 Zn5 2.035 . S
O11 C13 1.258 . S
C12 O6 1.247 . S
C12 O7 1.258 . S
C13 O10 1.247 . S
C13 O11 1.258 . S
C14 O16 1.247 1_545 S
C14 O18 1.258 . S
C15 O22 1.247 . S
C15 O23 1.258 1_545 S
O16 C14 1.247 1_565 S
O16 Zn17 2.028 . S
Zn17 O16 2.028 . S
Zn17 O21 2.035 . S
Zn17 O23 2.035 1_455 S
Zn17 O24 2.028 . S
O18 C14 1.258 . S
O18 Zn19 2.035 . S
Zn19 O18 2.035 . S
Zn19 O20 2.028 . S
Zn19 O22 2.028 1_455 S
Zn19 O25 2.035 . S
O20 Zn19 2.028 . S
O20 C26 1.247 . S
O21 Zn17 2.035 . S
O21 C26 1.258 1_565 S
O22 C15 1.247 . S
O22 Zn19 2.028 1_655 S
O23 C15 1.258 1_565 S
O23 Zn17 2.035 1_655 S
O24 Zn17 2.028 . S
O24 C27 1.247 1_565 S
O25 Zn19 2.035 . S
O25 C27 1.258 . S
C26 O20 1.247 . S
C26 O21 1.258 1_545 S
C27 O24 1.247 1_545 S
C27 O25 1.258 . S
C28 O30 1.247 1_455 S
C28 O32 1.258 . S
C29 O36 1.247 . S
C29 O37 1.258 1_455 S
O30 C28 1.247 1_655 S
O30 Zn31 2.028 . S
Zn31 O30 2.028 . S
Zn31 O35 2.035 1_655 S
Zn31 O37 2.035 . S
Zn31 O38 2.028 . S
O32 C28 1.258 . S
O32 Zn33 2.035 . S
Zn33 O32 2.035 . S
Zn33 O34 2.028 . S
Zn33 O36 2.028 . S
Zn33 O39 2.035 1_445 S
O34 Zn33 2.028 . S
O34 C40 1.247 . S
O35 Zn31 2.035 1_455 S
O35 C40 1.258 . S
O36 C29 1.247 . S
O36 Zn33 2.028 . S
O37 C29 1.258 1_655 S
O37 Zn31 2.035 . S
O38 Zn31 2.028 . S
O38 C41 1.247 1_545 S
O39 Zn33 2.035 1_665 S
O39 C41 1.258 . S
C40 O34 1.247 . S
C40 O35 1.258 . S
C41 O38 1.247 1_565 S
C41 O39 1.258 . S
C42 O44 1.247 . S
C42 O46 1.258 1_445 S
C43 O50 1.247 1_455 S
C43 O51 1.258 1_565 S
O44 C42 1.247 . S
O44 Zn45 2.028 . S
Zn45 O44 2.028 . S
Zn45 O49 2.035 . S
Zn45 O51 2.035 . S
Zn45 O52 2.028 1_455 S
O46 C42 1.258 1_665 S
O46 Zn47 2.035 . S
Zn47 O46 2.035 . S
Zn47 O48 2.028 1_655 S
Zn47 O50 2.028 . S
Zn47 O53 2.035 . S
O48 Zn47 2.028 1_455 S
O48 C54 1.247 1_565 S
O49 Zn45 2.035 . S
O49 C54 1.258 . S
O50 C43 1.247 1_655 S
O50 Zn47 2.028 . S
O51 C43 1.258 1_545 S
O51 Zn45 2.035 . S
O52 Zn45 2.028 1_655 S
O52 C55 1.247 . S
O53 Zn47 2.035 . S
O53 C55 1.258 1_565 S
C54 O48 1.247 1_545 S
C54 O49 1.258 . S
C55 O52 1.247 . S
C55 O53 1.258 1_545 S
C56 O58 1.247 . S
C56 O60 1.258 . S
C57 O64 1.247 . S
C57 O65 1.258 . S
O58 C56 1.247 . S
O58 Zn59 2.028 . S
Zn59 O58 2.028 . S
Zn59 O63 2.035 . S
Zn59 O65 2.035 . S
Zn59 O66 2.028 1_455 S
O60 C56 1.258 . S
O60 Zn61 2.035 . S
Zn61 O60 2.035 . S
Zn61 O62 2.028 . S
Zn61 O64 2.028 . S
Zn61 O67 2.035 1_445 S
O62 Zn61 2.028 . S
O62 C68 1.247 . S
O63 Zn59 2.035 . S
O63 C68 1.258 . S
O64 C57 1.247 . S
O64 Zn61 2.028 . S
O65 C57 1.258 . S
O65 Zn59 2.035 . S
O66 Zn59 2.028 1_655 S
O66 C69 1.247 1_545 S
O67 Zn61 2.035 1_665 S
O67 C69 1.258 . S
C68 O62 1.247 . S
C68 O63 1.258 . S
C69 O66 1.247 1_565 S
C69 O67 1.258 . S
C70 O72 1.247 . S
C70 O74 1.258 . S
C71 O78 1.247 . S
C71 O79 1.258 . S
O72 C70 1.247 . S
O72 Zn73 2.028 . S
Zn73 O72 2.028 . S
Zn73 O77 2.035 . S
Zn73 O79 2.035 . S
Zn73 O80 2.028 1_545 S
O74 C70 1.258 . S
O74 Zn75 2.035 . S
Zn75 O74 2.035 . S
Zn75 O76 2.028 . S
Zn75 O78 2.028 . S
Zn75 O81 2.035 . S
O76 Zn75 2.028 . S
O76 C82 1.247 . S
O77 Zn73 2.035 . S
O77 C82 1.258 . S
O78 C71 1.247 . S
O78 Zn75 2.028 . S
O79 C71 1.258 . S
O79 Zn73 2.035 . S
O80 Zn73 2.028 1_565 S
O80 C83 1.247 . S
O81 Zn75 2.035 . S
O81 C83 1.258 1_545 S
C82 O76 1.247 . S
C82 O77 1.258 . S
C83 O80 1.247 . S
C83 O81 1.258 1_565 S
H84 C92 0.950 . S
H85 C97 0.950 . S
H86 C94 0.950 . S
H87 C96 0.950 . S
H88 C98 0.950 . S
H89 C100 0.950 . S
H90 C102 0.950 . S
H91 C103 0.950 . S
C92 H84 0.950 . S
C92 C93 1.386 . S
C92 C94 1.391 . S
C93 C92 1.386 . S
C93 C97 1.393 . S
C94 H86 0.950 . S
C94 C92 1.391 . S
C94 C95 1.400 . S
C95 C94 1.400 . S
C95 C96 1.398 . S
C95 C101 1.491 . S
C96 H87 0.950 . S
C96 C95 1.398 . S
C96 C97 1.391 . S
C97 H85 0.950 . S
C97 C93 1.393 . S
C97 C96 1.391 . S
C98 H88 0.950 . S
C98 C99 1.386 . S
C98 C100 1.391 . S
C99 C98 1.386 . S
C99 C103 1.393 . S
C100 H89 0.950 . S
C100 C98 1.391 . S
C100 C101 1.400 . S
C101 C95 1.491 . S
C101 C100 1.400 . S
C101 C102 1.398 . S
C102 H90 0.950 . S
C102 C101 1.398 . S
C102 C103 1.391 . S
C103 H91 0.950 . S
C103 C99 1.393 . S
C103 C102 1.391 . S
H104 C112 0.950 . S
H105 C117 0.950 . S
H106 C114 0.950 . S
H107 C116 0.950 . S
H108 C118 0.950 . S
H109 C120 0.950 . S
H110 C122 0.950 . S
H111 C123 0.950 . S
C112 H104 0.950 . S
C112 C113 1.386 . S
C112 C114 1.391 . S
C113 C112 1.386 . S
C113 C117 1.393 1_545 S
C114 H106 0.950 . S
C114 C112 1.391 . S
C114 C115 1.400 . S
C115 C114 1.400 . S
C115 C116 1.398 1_545 S
C115 C121 1.491 . S
C116 H107 0.950 . S
C116 C115 1.398 1_565 S
C116 C117 1.391 . S
C117 H105 0.950 . S
C117 C113 1.393 1_565 S
C117 C116 1.391 . S
C118 H108 0.950 . S
C118 C119 1.386 1_565 S
C118 C120 1.391 . S
C119 C118 1.386 1_545 S
C119 C123 1.393 . S
C120 H109 0.950 . S
C120 C118 1.391 . S
C120 C121 1.400 1_565 S
C121 C115 1.491 . S
C121 C120 1.400 1_545 S
C121 C122 1.398 . S
C122 H110 0.950 . S
C122 C121 1.398 . S
C122 C123 1.391 . S
C123 H111 0.950 . S
C123 C119 1.393 . S
C123 C122 1.391 . S
H124 C132 0.950 . S
H125 C137 0.950 . S
H126 C134 0.950 . S
H127 C136 0.950 . S
H128 C138 0.950 . S
H129 C140 0.950 . S
H130 C142 0.950 . S
H131 C143 0.950 . S
C132 H124 0.950 . S
C132 C133 1.386 . S
C132 C134 1.391 . S
C133 C132 1.386 . S
C133 C137 1.393 . S
C134 H126 0.950 . S
C134 C132 1.391 . S
C134 C135 1.400 . S
C135 C134 1.400 . S
C135 C136 1.398 . S
C135 C141 1.491 . S
C136 H127 0.950 . S
C136 C135 1.398 . S
C136 C137 1.391 . S
C137 H125 0.950 . S
C137 C133 1.393 . S
C137 C136 1.391 . S
C138 H128 0.950 . S
C138 C139 1.386 . S
C138 C140 1.391 . S
C139 C138 1.386 . S
C139 C143 1.393 . S
C140 H129 0.950 . S
C140 C138 1.391 . S
C140 C141 1.400 . S
C141 C135 1.491 . S
C141 C140 1.400 . S
C141 C142 1.398 . S
C142 H130 0.950 . S
C142 C141 1.398 . S
C142 C143 1.391 . S
C143 H131 0.950 . S
C143 C139 1.393 . S
C143 C142 1.391 . S
H144 C152 0.950 . S
H145 C157 0.950 . S
H146 C154 0.950 . S
H147 C156 0.950 . S
H148 C158 0.950 . S
H149 C160 0.950 . S
H150 C162 0.950 . S
H151 C163 0.950 . S
C152 H144 0.950 . S
C152 C153 1.386 1_565 S
C152 C154 1.391 . S
C153 C152 1.386 1_545 S
C153 C157 1.393 . S
C154 H146 0.950 . S
C154 C152 1.391 . S
C154 C155 1.400 1_565 S
C155 C154 1.400 1_545 S
C155 C156 1.398 . S
C155 C161 1.491 . S
C156 H147 0.950 . S
C156 C155 1.398 . S
C156 C157 1.391 . S
C157 H145 0.950 . S
C157 C153 1.393 . S
C157 C156 1.391 . S
C158 H148 0.950 . S
C158 C159 1.386 . S
C158 C160 1.391 . S
C159 C158 1.386 . S
C159 C163 1.393 1_545 S
C160 H149 0.950 . S
C160 C158 1.391 . S
C160 C161 1.400 . S
C161 C155 1.491 . S
C161 C160 1.400 . S
C161 C162 1.398 1_545 S
C162 H150 0.950 . S
C162 C161 1.398 1_565 S
C162 C163 1.391 . S
C163 H151 0.950 . S
C163 C159 1.393 1_565 S
C163 C162 1.391 . S
H164 C172 0.950 . S
H165 C177 0.950 . S
H166 C174 0.950 . S
H167 C176 0.950 . S
H168 C178 0.950 . S
H169 C180 0.950 . S
H170 C182 0.950 . S
H171 C183 0.950 . S
C172 H164 0.950 . S
C172 C173 1.386 . S
C172 C174 1.391 . S
C173 C172 1.386 . S
C173 C177 1.393 . S
C174 H166 0.950 . S
C174 C172 1.391 . S
C174 C175 1.400 . S
C175 C174 1.400 . S
C175 C176 1.398 . S
C175 C181 1.491 . S
C176 H167 0.950 . S
C176 C175 1.398 . S
C176 C177 1.391 . S
C177 H165 0.950 . S
C177 C173 1.393 . S
C177 C176 1.391 . S
C178 H168 0.950 . S
C178 C179 1.386 . S
C178 C180 1.391 . S
C179 C178 1.386 . S
C179 C183 1.393 . S
C180 H169 0.950 . S
C180 C178 1.391 . S
C180 C181 1.400 . S
C181 C175 1.491 . S
C181 C180 1.400 . S
C181 C182 1.398 . S
C182 H170 0.950 . S
C182 C181 1.398 . S
C182 C183 1.391 . S
C183 H171 0.950 . S
C183 C179 1.393 . S
C183 C182 1.391 . S
H184 C192 0.950 . S
H185 C197 0.950 . S
H186 C194 0.950 . S
H187 C196 0.950 . S
H188 C198 0.950 . S
H189 C200 0.950 . S
H190 C202 0.950 . S
H191 C203 0.950 . S
C192 H184 0.950 . S
C192 C193 1.386 . S
C192 C194 1.391 . S
C193 C192 1.386 . S
C193 C197 1.393 . S
C194 H186 0.950 . S
C194 C192 1.391 . S
C194 C195 1.400 . S
C195 C194 1.400 . S
C195 C196 1.398 . S
C195 C201 1.491 . S
C196 H187 0.950 . S
C196 C195 1.398 . S
C196 C197 1.391 . S
C197 H185 0.950 . S
C197 C193 1.393 . S
C197 C196 1.391 . S
C198 H188 0.950 . S
C198 C199 1.386 . S
C198 C200 1.391 . S
C199 C198 1.386 . S
C199 C203 1.393 . S
C200 H189 0.950 . S
C200 C198 1.391 . S
C200 C201 1.400 . S
C201 C195 1.491 . S
C201 C200 1.400 . S
C201 C202 1.398 . S
C202 H190 0.950 . S
C202 C201 1.398 . S
C202 C203 1.391 . S
C203 H191 0.950 . S
C203 C199 1.393 . S
C203 C202 1.391 . S
H204 C212 0.950 . S
H205 C217 0.950 . S
H206 C214 0.950 . S
H207 C216 0.950 . S
H208 C218 0.950 . S
H209 C220 0.950 . S
H210 C222 0.950 . S
H211 C223 0.950 . S
C212 H204 0.950 . S
C212 C213 1.386 . S
C212 C214 1.391 . S
C213 C212 1.386 . S
C213 C217 1.393 . S
C214 H206 0.950 . S
C214 C212 1.391 . S
C214 C215 1.400 . S
C215 C214 1.400 . S
C215 C216 1.398 . S
C215 C221 1.491 . S
C216 H207 0.950 . S
C216 C215 1.398 . S
C216 C217 1.391 . S
C217 H205 0.950 . S
C217 C213 1.393 . S
C217 C216 1.391 . S
C218 H208 0.950 . S
C218 C219 1.386 . S
C218 C220 1.391 . S
C219 C218 1.386 . S
C219 C223 1.393 . S
C220 H209 0.950 . S
C220 C218 1.391 . S
C220 C221 1.400 . S
C221 C215 1.491 . S
C221 C220 1.400 . S
C221 C222 1.398 . S
C222 H210 0.950 . S
C222 C221 1.398 . S
C222 C223 1.391 . S
C223 H211 0.950 . S
C223 C219 1.393 . S
C223 C222 1.391 . S
H224 C232 0.950 . S
H225 C237 0.950 . S
H226 C234 0.950 . S
H227 C236 0.950 . S
H228 C238 0.950 . S
H229 C240 0.950 . S
H230 C242 0.950 . S
H231 C243 0.950 . S
C232 H224 0.950 . S
C232 C233 1.393 1_655 S
C232 C234 1.391 . S
C233 C232 1.393 1_455 S
C233 C237 1.386 1_545 S
C234 H226 0.950 . S
C234 C232 1.391 . S
C234 C235 1.400 1_655 S
C235 C234 1.400 1_455 S
C235 C236 1.398 1_545 S
C235 C241 1.491 . S
C236 H227 0.950 . S
C236 C235 1.398 1_565 S
C236 C237 1.391 . S
C237 H225 0.950 . S
C237 C233 1.386 1_565 S
C237 C236 1.391 . S
C238 H228 0.950 . S
C238 C239 1.386 1_565 S
C238 C240 1.391 . S
C239 C238 1.386 1_545 S
C239 C243 1.393 1_455 S
C240 H229 0.950 . S
C240 C238 1.391 . S
C240 C241 1.400 1_565 S
C241 C235 1.491 . S
C241 C240 1.400 1_545 S
C241 C242 1.398 1_455 S
C242 H230 0.950 . S
C242 C241 1.398 1_655 S
C242 C243 1.391 . S
C243 H231 0.950 . S
C243 C239 1.393 1_655 S
C243 C242 1.391 . S
H244 C252 0.950 . S
H245 C257 0.950 . S
H246 C254 0.950 . S
H247 C256 0.950 . S
H248 C258 0.940 1_655 S
H249 C260 0.950 . S
H250 C262 0.950 . S
H251 C263 0.950 . S
C252 H244 0.950 . S
C252 C253 1.386 . S
C252 C254 1.391 . S
C253 C252 1.386 . S
C253 C257 1.393 1_455 S
C254 H246 0.950 . S
C254 C252 1.391 . S
C254 C255 1.400 . S
C255 C254 1.400 . S
C255 C256 1.398 1_455 S
C255 C261 1.491 . S
C256 H247 0.950 . S
C256 C255 1.398 1_655 S
C256 C257 1.391 . S
C257 H245 0.950 . S
C257 C253 1.393 1_655 S
C257 C256 1.391 . S
C258 H248 0.940 1_455 S
C258 C259 1.394 . S
C258 C260 1.392 1_455 S
C259 C258 1.394 . S
C259 C263 1.393 . S
C260 H249 0.950 . S
C260 C258 1.392 1_655 S
C260 C261 1.400 1_655 S
C261 C255 1.491 . S
C261 C260 1.400 1_455 S
C261 C262 1.398 . S
C262 H250 0.950 . S
C262 C261 1.398 . S
C262 C263 1.391 . S
C263 H251 0.950 . S
C263 C259 1.393 . S
C263 C262 1.391 . S
H264 C272 0.950 . S
H265 C277 0.950 . S
H266 C274 0.950 . S
H267 C276 0.950 . S
H268 C278 0.950 1_655 S
H269 C280 0.950 . S
H270 C282 0.950 . S
H271 C283 0.950 . S
C272 H264 0.950 . S
C272 C273 1.386 . S
C272 C274 1.391 . S
C273 C272 1.386 . S
C273 C277 1.393 . S
C274 H266 0.950 . S
C274 C272 1.391 . S
C274 C275 1.400 . S
C275 C274 1.400 . S
C275 C276 1.398 . S
C275 C281 1.491 1_554 S
C276 H267 0.950 . S
C276 C275 1.398 . S
C276 C277 1.391 . S
C277 H265 0.950 . S
C277 C273 1.393 . S
C277 C276 1.391 . S
C278 H268 0.950 1_455 S
C278 C279 1.386 . S
C278 C280 1.391 . S
C279 C278 1.386 . S
C279 C283 1.393 . S
C280 H269 0.950 . S
C280 C278 1.391 . S
C280 C281 1.400 . S
C281 C275 1.491 1_556 S
C281 C280 1.400 . S
C281 C282 1.398 . S
C282 H270 0.950 . S
C282 C281 1.398 . S
C282 C283 1.391 . S
C283 H271 0.950 . S
C283 C279 1.393 . S
C283 C282 1.391 . S
H284 C292 0.950 . S
H285 C297 0.950 . S
H286 C294 0.950 . S
H287 C296 0.950 . S
H288 C298 0.950 1_565 S
H289 C300 0.952 . S
H290 C302 0.950 . S
H291 C303 0.950 1_655 S
C292 H284 0.950 . S
C292 C293 1.386 . S
C292 C294 1.391 . S
C293 C292 1.386 . S
C293 C297 1.393 . S
C294 H286 0.950 . S
C294 C292 1.391 . S
C294 C295 1.400 . S
C295 C294 1.400 . S
C295 C296 1.398 . S
C295 C301 1.491 . S
C296 H287 0.950 . S
C296 C295 1.398 . S
C296 C297 1.391 . S
C297 H285 0.950 . S
C297 C293 1.393 . S
C297 C296 1.391 . S
C298 H288 0.950 1_545 S
C298 C299 1.386 . S
C298 C300 1.391 . S
C299 C298 1.386 . S
C299 C303 1.393 . S
C300 H289 0.952 . S
C300 C298 1.391 . S
C300 C301 1.400 . S
C301 C295 1.491 . S
C301 C300 1.400 . S
C301 C302 1.398 . S
C302 H290 0.950 . S
C302 C301 1.398 . S
C302 C303 1.391 . S
C303 H291 0.950 1_455 S
C303 C299 1.393 . S
C303 C302 1.391 . S
H304 C312 0.950 . S
H305 C317 0.950 . S
H306 C314 0.950 . S
H307 C316 0.950 . S
H308 C318 0.948 . S
H309 C320 0.950 1_655 S
H310 C322 0.950 . S
H311 C323 0.950 . S
C312 H304 0.950 . S
C312 C313 1.386 . S
C312 C314 1.391 . S
C313 C312 1.386 . S
C313 C317 1.393 1_445 S
C314 H306 0.950 . S
C314 C312 1.391 . S
C314 C315 1.400 . S
C315 C314 1.400 . S
C315 C316 1.398 1_445 S
C315 C321 1.491 . S
C316 H307 0.950 . S
C316 C315 1.398 1_665 S
C316 C317 1.391 . S
C317 H305 0.950 . S
C317 C313 1.393 1_665 S
C317 C316 1.391 . S
C318 H308 0.948 . S
C318 C319 1.386 1_565 S
C318 C320 1.391 . S
C319 C318 1.386 1_545 S
C319 C323 1.393 . S
C320 H309 0.950 1_455 S
C320 C318 1.391 . S
C320 C321 1.400 1_565 S
C321 C315 1.491 . S
C321 C320 1.400 1_545 S
C321 C322 1.398 . S
C322 H310 0.950 . S
C322 C321 1.398 . S
C322 C323 1.391 . S
C323 H311 0.950 . S
C323 C319 1.393 . S
C323 C322 1.391 . S
C93 C0 1.499 . S
C99 C1 1.499 . S
C113 C14 1.497 . S
C119 C15 1.497 . S
C133 C41 1.499 . S
C139 C40 1.499 . S
C153 C54 1.499 . S
C159 C55 1.499 . S
C173 C68 1.498 . S
C179 C69 1.498 . S
C193 C82 1.500 . S
C199 C83 1.500 . S
C213 C71 1.506 . S
C219 C13 1.505 . S
C233 C43 1.504 1_545 S
C239 C26 1.506 . S
C253 C28 1.502 . S
C259 C57 1.502 . S
C273 C12 1.503 . S
C279 C56 1.502 . S
C293 C70 1.504 . S
C299 C27 1.504 . S
C313 C42 1.508 . S
C319 C29 1.507 . S
