# Generated by pormake.
# Topology vbe, (5)-cn, num edge types: 1
# Building blocks:
#     Node 0, Type 0, BuildingBlock: XOMCOT_clean_sbu_1, # of connection points: 5
#     Node 1, Type 0, BuildingBlock: XOMCOT_clean_sbu_1, # of connection points: 5
#     Node 2, Type 0, BuildingBlock: XOMCOT_clean_sbu_1, # of connection points: 5
#     Node 3, Type 0, BuildingBlock: XOMCOT_clean_sbu_1, # of connection points: 5
#     Node 4, Type 0, BuildingBlock: XOMCOT_clean_sbu_1, # of connection points: 5
#     Node 5, Type 0, BuildingBlock: XOMCOT_clean_sbu_1, # of connection points: 5
#     Node 6, Type 0, BuildingBlock: XOMCOT_clean_sbu_1, # of connection points: 5
#     Node 7, Type 0, BuildingBlock: XOMCOT_clean_sbu_1, # of connection points: 5
#     Node 8, Type 0, BuildingBlock: XOMCOT_clean_sbu_1, # of connection points: 5
#     Node 9, Type 0, BuildingBlock: XOMCOT_clean_sbu_1, # of connection points: 5
#     Node 10, Type 0, BuildingBlock: XOMCOT_clean_sbu_1, # of connection points: 5
#     Node 11, Type 0, BuildingBlock: XOMCOT_clean_sbu_1, # of connection points: 5
#     Node 12, Type 0, BuildingBlock: XOMCOT_clean_sbu_1, # of connection points: 5
#     Node 13, Type 0, BuildingBlock: XOMCOT_clean_sbu_1, # of connection points: 5
#     Node 14, Type 0, BuildingBlock: XOMCOT_clean_sbu_1, # of connection points: 5
#     Node 15, Type 0, BuildingBlock: XOMCOT_clean_sbu_1, # of connection points: 5
#     Edge 16, Type (0, 0), BuildingBlock: MIFKUJ_clean_linker_0, # of connection points: 2
#     Edge 17, Type (0, 0), BuildingBlock: MIFKUJ_clean_linker_0, # of connection points: 2
#     Edge 18, Type (0, 0), BuildingBlock: MIFKUJ_clean_linker_0, # of connection points: 2
#     Edge 19, Type (0, 0), BuildingBlock: MIFKUJ_clean_linker_0, # of connection points: 2
#     Edge 20, Type (0, 0), BuildingBlock: MIFKUJ_clean_linker_0, # of connection points: 2
#     Edge 21, Type (0, 0), BuildingBlock: MIFKUJ_clean_linker_0, # of connection points: 2
#     Edge 22, Type (0, 0), BuildingBlock: MIFKUJ_clean_linker_0, # of connection points: 2
#     Edge 23, Type (0, 0), BuildingBlock: MIFKUJ_clean_linker_0, # of connection points: 2
#     Edge 24, Type (0, 0), BuildingBlock: MIFKUJ_clean_linker_0, # of connection points: 2
#     Edge 25, Type (0, 0), BuildingBlock: MIFKUJ_clean_linker_0, # of connection points: 2
#     Edge 26, Type (0, 0), BuildingBlock: MIFKUJ_clean_linker_0, # of connection points: 2
#     Edge 27, Type (0, 0), BuildingBlock: MIFKUJ_clean_linker_0, # of connection points: 2
#     Edge 28, Type (0, 0), BuildingBlock: MIFKUJ_clean_linker_0, # of connection points: 2
#     Edge 29, Type (0, 0), BuildingBlock: MIFKUJ_clean_linker_0, # of connection points: 2
#     Edge 30, Type (0, 0), BuildingBlock: MIFKUJ_clean_linker_0, # of connection points: 2
#     Edge 31, Type (0, 0), BuildingBlock: MIFKUJ_clean_linker_0, # of connection points: 2
#     Edge 32, Type (0, 0), BuildingBlock: MIFKUJ_clean_linker_0, # of connection points: 2
#     Edge 33, Type (0, 0), BuildingBlock: MIFKUJ_clean_linker_0, # of connection points: 2
#     Edge 34, Type (0, 0), BuildingBlock: MIFKUJ_clean_linker_0, # of connection points: 2
#     Edge 35, Type (0, 0), BuildingBlock: MIFKUJ_clean_linker_0, # of connection points: 2
#     Edge 36, Type (0, 0), BuildingBlock: MIFKUJ_clean_linker_0, # of connection points: 2
#     Edge 37, Type (0, 0), BuildingBlock: MIFKUJ_clean_linker_0, # of connection points: 2
#     Edge 38, Type (0, 0), BuildingBlock: MIFKUJ_clean_linker_0, # of connection points: 2
#     Edge 39, Type (0, 0), BuildingBlock: MIFKUJ_clean_linker_0, # of connection points: 2
#     Edge 40, Type (0, 0), BuildingBlock: MIFKUJ_clean_linker_0, # of connection points: 2
#     Edge 41, Type (0, 0), BuildingBlock: MIFKUJ_clean_linker_0, # of connection points: 2
#     Edge 42, Type (0, 0), BuildingBlock: MIFKUJ_clean_linker_0, # of connection points: 2
#     Edge 43, Type (0, 0), BuildingBlock: MIFKUJ_clean_linker_0, # of connection points: 2
#     Edge 44, Type (0, 0), BuildingBlock: MIFKUJ_clean_linker_0, # of connection points: 2
#     Edge 45, Type (0, 0), BuildingBlock: MIFKUJ_clean_linker_0, # of connection points: 2
#     Edge 46, Type (0, 0), BuildingBlock: MIFKUJ_clean_linker_0, # of connection points: 2
#     Edge 47, Type (0, 0), BuildingBlock: MIFKUJ_clean_linker_0, # of connection points: 2
#     Edge 48, Type (0, 0), BuildingBlock: MIFKUJ_clean_linker_0, # of connection points: 2
#     Edge 49, Type (0, 0), BuildingBlock: MIFKUJ_clean_linker_0, # of connection points: 2
#     Edge 50, Type (0, 0), BuildingBlock: MIFKUJ_clean_linker_0, # of connection points: 2
#     Edge 51, Type (0, 0), BuildingBlock: MIFKUJ_clean_linker_0, # of connection points: 2
#     Edge 52, Type (0, 0), BuildingBlock: MIFKUJ_clean_linker_0, # of connection points: 2
#     Edge 53, Type (0, 0), BuildingBlock: MIFKUJ_clean_linker_0, # of connection points: 2
#     Edge 54, Type (0, 0), BuildingBlock: MIFKUJ_clean_linker_0, # of connection points: 2
#     Edge 55, Type (0, 0), BuildingBlock: MIFKUJ_clean_linker_0, # of connection points: 2
# Relax obj value: 0.482
# Max RMSD: 0.268
# Mean RMSD: 0.268
data_MOF--net-vbe--node1-XOMCOT_clean_sbu_1--edge1-MIFKUJ_clean_linker_0
_symmetry_space_group_name_H-M    P1
_symmetry_Int_Tables_number       1
_symmetry_cell_setting            triclinic
loop_
_symmetry_equiv_pos_as_xyz
'x, y, z'
_cell_length_a     49.386603
_cell_length_b     53.452496
_cell_length_c     62.345083
_cell_angle_alpha  89.974262
_cell_angle_beta   90.003483
_cell_angle_gamma 90.241022
loop_
_atom_site_label
_atom_site_type_symbol
_atom_site_fract_x
_atom_site_fract_y
_atom_site_fract_z
_atom_type_partial_charge
C0 C 0.10727 0.12516 0.34336 0.0
C1 C 0.11545 0.13631 0.32459 0.0
N2 N 0.13158 0.15594 0.32931 0.0
N3 N 0.1174 0.1378 0.3603 0.0
C4 C 0.13355 0.15554 0.35111 0.0
H5 H 0.09322 0.10968 0.34456 0.0
Co6 Co 0.1049 0.13105 0.38909 0.0
C7 C 0.10188 0.18902 0.38891 0.0
O8 O 0.10456 0.19248 0.36822 0.0
N9 N 0.09195 0.12415 0.41731 0.0
C10 C 0.0628 0.12683 0.44444 0.0
C11 C 0.07448 0.13932 0.4277 0.0
C12 C 0.09034 0.10223 0.42829 0.0
N13 N 0.07236 0.10336 0.44466 0.0
O14 O 0.14155 0.12649 0.39871 0.0
H15 H 0.06738 0.15704 0.42177 0.0
H16 H 0.09917 0.08495 0.42268 0.0
O17 O 0.10341 0.16695 0.39678 0.0
C18 C 0.14386 0.10318 0.39426 0.0
O19 O 0.1242 0.09231 0.38347 0.0
N20 N 0.06908 0.13085 0.37959 0.0
C21 C 0.0248 0.11588 0.35584 0.0
C22 C 0.03355 0.14088 0.35515 0.0
C23 C 0.05584 0.14818 0.36748 0.0
C24 C 0.05867 0.10732 0.38202 0.0
C25 C 0.0359 0.09972 0.3709 0.0
H26 H 0.0641 0.16656 0.36508 0.0
H27 H 0.06989 0.09319 0.39049 0.0
H28 H 0.14532 0.16889 0.36027 0.0
H29 H 0.10821 0.13138 0.30876 0.0
H30 H 0.04618 0.13358 0.45415 0.0
H31 H 0.02554 0.15366 0.34326 0.0
H32 H 0.03002 0.08016 0.37132 0.0
C33 C 0.36367 0.89697 0.3446 0.0
C34 C 0.36058 0.883 0.32623 0.0
N35 N 0.36667 0.85893 0.33057 0.0
N36 N 0.37146 0.88207 0.36087 0.0
C37 C 0.37304 0.85891 0.35181 0.0
H38 H 0.36115 0.91699 0.34578 0.0
Co39 Co 0.38118 0.89448 0.38854 0.0
C40 C 0.38865 0.84692 0.41326 0.0
O41 O 0.37294 0.8534 0.42927 0.0
N42 N 0.39134 0.90703 0.41654 0.0
C43 C 0.38821 0.91882 0.45085 0.0
C44 C 0.37528 0.90717 0.43413 0.0
C45 C 0.41447 0.91839 0.42354 0.0
N46 N 0.41286 0.92613 0.44417 0.0
O47 O 0.34421 0.89101 0.39787 0.0
H48 H 0.35523 0.89918 0.43511 0.0
H49 H 0.43218 0.92152 0.41375 0.0
O50 O 0.39168 0.86136 0.3972 0.0
C51 C 0.3344 0.9126 0.39373 0.0
O52 O 0.35014 0.92939 0.38466 0.0
N53 N 0.4154 0.90098 0.37823 0.0
C54 C 0.45844 0.91718 0.35328 0.0
C55 C 0.45587 0.89176 0.35895 0.0
C56 C 0.43408 0.88399 0.37157 0.0
C57 C 0.41855 0.9258 0.37403 0.0
C58 C 0.44059 0.93444 0.36241 0.0
H59 H 0.4311 0.86422 0.37427 0.0
H60 H 0.40327 0.93889 0.37924 0.0
H61 H 0.37964 0.84252 0.36042 0.0
H62 H 0.35447 0.89029 0.3108 0.0
H63 H 0.37998 0.92166 0.46674 0.0
H64 H 0.46881 0.87761 0.35203 0.0
H65 H 0.44212 0.95425 0.35893 0.0
C66 C 0.64436 0.88705 0.1511 0.0
C67 C 0.6484 0.87294 0.16927 0.0
N68 N 0.63421 0.85143 0.1675 0.0
N69 N 0.62779 0.87466 0.13759 0.0
C70 C 0.62198 0.85292 0.14803 0.0
H71 H 0.65267 0.90547 0.14816 0.0
Co72 Co 0.61459 0.8878 0.11139 0.0
C73 C 0.62241 0.83384 0.09449 0.0
O74 O 0.64674 0.82728 0.10082 0.0
N75 N 0.60144 0.90043 0.08516 0.0
C76 C 0.59757 0.90629 0.05 0.0
C77 C 0.60999 0.89258 0.06575 0.0
C78 C 0.58387 0.91914 0.08075 0.0
N79 N 0.58113 0.92305 0.05941 0.0
O80 O 0.65089 0.89424 0.10162 0.0
H81 H 0.62472 0.87797 0.06318 0.0
H82 H 0.57386 0.93019 0.09288 0.0
O83 O 0.61318 0.85525 0.09922 0.0
C84 C 0.65332 0.91791 0.10388 0.0
O85 O 0.63336 0.93024 0.11289 0.0
N86 N 0.57956 0.8844 0.1215 0.0
C87 C 0.53173 0.88496 0.14453 0.0
C88 C 0.53921 0.86354 0.13315 0.0
C89 C 0.56339 0.8636 0.12162 0.0
C90 C 0.57164 0.90579 0.13143 0.0
C91 C 0.54753 0.90664 0.14279 0.0
H92 H 0.56972 0.8464 0.1143 0.0
H93 H 0.58491 0.92192 0.13143 0.0
H94 H 0.60836 0.8388 0.14177 0.0
H95 H 0.66088 0.87829 0.18278 0.0
H96 H 0.60034 0.90397 0.0329 0.0
H97 H 0.52752 0.84647 0.1345 0.0
H98 H 0.54272 0.92332 0.15186 0.0
C99 C 0.88827 0.12897 0.15524 0.0
C100 C 0.8825 0.14173 0.17381 0.0
N101 N 0.87609 0.16549 0.16877 0.0
N102 N 0.88536 0.1443 0.13821 0.0
C103 C 0.87798 0.16654 0.14707 0.0
H104 H 0.89557 0.10997 0.15438 0.0
Co105 Co 0.89536 0.13454 0.10979 0.0
C106 C 0.87967 0.18841 0.09512 0.0
O107 O 0.85405 0.19148 0.10003 0.0
N108 N 0.90562 0.12496 0.08176 0.0
C109 C 0.92887 0.12554 0.05122 0.0
C110 C 0.92076 0.1393 0.06855 0.0
C111 C 0.90536 0.10218 0.07222 0.0
N112 N 0.91946 0.10208 0.05361 0.0
O113 O 0.85852 0.12562 0.10348 0.0
H114 H 0.92853 0.15751 0.07263 0.0
H115 H 0.8971 0.0855 0.07959 0.0
O116 O 0.8918 0.16814 0.09962 0.0
C117 C 0.8578 0.10275 0.10949 0.0
O118 O 0.87974 0.09343 0.1183 0.0
N119 N 0.9316 0.14025 0.11653 0.0
C120 C 0.97794 0.13531 0.1406 0.0
C121 C 0.96399 0.15815 0.14052 0.0
C122 C 0.94077 0.16042 0.12784 0.0
C123 C 0.9475 0.11968 0.11396 0.0
C124 C 0.97169 0.1175 0.12497 0.0
H125 H 0.92836 0.17692 0.12947 0.0
H126 H 0.94007 0.10346 0.10549 0.0
H127 H 0.87513 0.18351 0.13801 0.0
H128 H 0.88437 0.13434 0.18991 0.0
H129 H 0.9432 0.13156 0.0391 0.0
H130 H 0.96849 0.17252 0.15225 0.0
H131 H 0.98239 0.09984 0.12437 0.0
C132 C 0.88246 0.89232 0.65919 0.0
C133 C 0.87756 0.87959 0.67795 0.0
N134 N 0.87179 0.85554 0.67325 0.0
N135 N 0.87969 0.8767 0.64237 0.0
C136 C 0.87301 0.85433 0.65148 0.0
H137 H 0.88941 0.91147 0.65802 0.0
Co138 Co 0.89052 0.88653 0.61426 0.0
C139 C 0.88228 0.83063 0.59698 0.0
O140 O 0.85773 0.82109 0.59677 0.0
N141 N 0.90126 0.89691 0.58644 0.0
C142 C 0.91623 0.89784 0.55271 0.0
C143 C 0.90547 0.88303 0.56861 0.0
C144 C 0.90849 0.92039 0.58047 0.0
N145 N 0.91806 0.92128 0.56024 0.0
O146 O 0.85394 0.8949 0.60702 0.0
H147 H 0.90202 0.86323 0.56714 0.0
H148 H 0.90826 0.93634 0.59116 0.0
O149 O 0.88564 0.85289 0.60385 0.0
C150 C 0.84925 0.91717 0.61323 0.0
O151 O 0.86844 0.92932 0.6235 0.0
N152 N 0.92664 0.8804 0.62191 0.0
C153 C 0.97487 0.87984 0.64499 0.0
C154 C 0.95831 0.85838 0.64393 0.0
C155 C 0.93429 0.85907 0.63225 0.0
C156 C 0.94382 0.90041 0.62109 0.0
C157 C 0.96861 0.90003 0.63161 0.0
H158 H 0.92083 0.84314 0.63305 0.0
H159 H 0.93749 0.91784 0.61422 0.0
H160 H 0.87051 0.83722 0.64245 0.0
H161 H 0.87984 0.88724 0.69391 0.0
H162 H 0.92354 0.89165 0.53723 0.0
H163 H 0.96199 0.84217 0.65389 0.0
H164 H 0.98105 0.91676 0.63137 0.0
C165 C 0.65117 0.13827 0.64943 0.0
C166 C 0.65269 0.15308 0.6674 0.0
N167 N 0.63528 0.17223 0.66522 0.0
N168 N 0.63295 0.14781 0.6356 0.0
C169 C 0.62354 0.16867 0.64573 0.0
H170 H 0.6622 0.1211 0.64704 0.0
Co171 Co 0.62186 0.1309 0.61011 0.0
C172 C 0.62182 0.18384 0.59326 0.0
O173 O 0.64486 0.1914 0.60161 0.0
N174 N 0.61069 0.11425 0.58486 0.0
C175 C 0.60909 0.10382 0.55031 0.0
C176 C 0.62048 0.11965 0.56515 0.0
C177 C 0.59305 0.09514 0.58147 0.0
N178 N 0.59177 0.08848 0.56057 0.0
O179 O 0.65839 0.13038 0.59969 0.0
H180 H 0.63512 0.13423 0.56177 0.0
H181 H 0.58156 0.08599 0.594 0.0
O182 O 0.61362 0.16159 0.59626 0.0
C183 C 0.66672 0.10833 0.60385 0.0
O184 O 0.65065 0.09297 0.61434 0.0
N185 N 0.58729 0.12889 0.62091 0.0
C186 C 0.54093 0.12107 0.64469 0.0
C187 C 0.54313 0.14219 0.63153 0.0
C188 C 0.56667 0.14578 0.61954 0.0
C189 C 0.5848 0.10776 0.63285 0.0
C190 C 0.56157 0.10325 0.64464 0.0
H191 H 0.56864 0.16268 0.61026 0.0
H192 H 0.60151 0.0948 0.63377 0.0
H193 H 0.60761 0.1804 0.63941 0.0
H194 H 0.66554 0.14982 0.68118 0.0
H195 H 0.61285 0.10389 0.5332 0.0
H196 H 0.52752 0.15634 0.63146 0.0
H197 H 0.5608 0.08703 0.65506 0.0
C198 C 0.34433 0.12988 0.85053 0.0
C199 C 0.33966 0.14532 0.83325 0.0
N200 N 0.35621 0.16533 0.8347 0.0
N201 N 0.36362 0.14001 0.86318 0.0
C202 C 0.37061 0.16162 0.85297 0.0
H203 H 0.33425 0.11225 0.85354 0.0
Co204 Co 0.37625 0.12529 0.88909 0.0
C205 C 0.38593 0.17805 0.90602 0.0
O206 O 0.36082 0.18539 0.9087 0.0
N207 N 0.38887 0.11142 0.9155 0.0
C208 C 0.39388 0.10826 0.95099 0.0
C209 C 0.38187 0.12136 0.93465 0.0
C210 C 0.40544 0.09216 0.92085 0.0
N211 N 0.4088 0.08992 0.94228 0.0
O212 O 0.34135 0.13002 0.90201 0.0
H213 H 0.36895 0.13746 0.93668 0.0
H214 H 0.41492 0.07974 0.90954 0.0
O215 O 0.39091 0.15642 0.89864 0.0
C216 C 0.33121 0.10812 0.89982 0.0
O217 O 0.34548 0.09091 0.88998 0.0
N218 N 0.4085 0.1176 0.87567 0.0
C219 C 0.45084 0.09951 0.85066 0.0
C220 C 0.44918 0.12514 0.85589 0.0
C221 C 0.42795 0.13378 0.86862 0.0
C222 C 0.40967 0.0929 0.87067 0.0
C223 C 0.4314 0.08324 0.8594 0.0
H224 H 0.42631 0.15361 0.87149 0.0
H225 H 0.39354 0.08047 0.87566 0.0
H226 H 0.38576 0.17457 0.85885 0.0
H227 H 0.32549 0.14179 0.82034 0.0
H228 H 0.3923 0.11233 0.96795 0.0
H229 H 0.46291 0.13885 0.84916 0.0
H230 H 0.43191 0.06327 0.85671 0.0
C231 C 0.12456 0.89228 0.84302 0.0
C232 C 0.13058 0.87875 0.82488 0.0
N233 N 0.12597 0.85433 0.82887 0.0
N234 N 0.11627 0.87671 0.85877 0.0
C235 C 0.11739 0.85363 0.84954 0.0
H236 H 0.12541 0.9124 0.84425 0.0
Co237 Co 0.1024 0.88746 0.88587 0.0
C238 C 0.11775 0.83398 0.90087 0.0
O239 O 0.14192 0.83014 0.89277 0.0
N240 N 0.08798 0.89769 0.91266 0.0
C241 C 0.06235 0.89611 0.94203 0.0
C242 C 0.07224 0.88282 0.92503 0.0
C243 C 0.08646 0.92042 0.92226 0.0
N244 N 0.07116 0.91982 0.94025 0.0
O245 O 0.13813 0.89698 0.89525 0.0
H246 H 0.06598 0.86414 0.92083 0.0
H247 H 0.09497 0.9374 0.91567 0.0
O248 O 0.10537 0.85435 0.89732 0.0
C249 C 0.13955 0.92033 0.89099 0.0
O250 O 0.11928 0.93056 0.88056 0.0
N251 N 0.06746 0.88108 0.8765 0.0
C252 C 0.01632 0.87988 0.85744 0.0
C253 C 0.03119 0.85764 0.86091 0.0
C254 C 0.05663 0.85865 0.87066 0.0
C255 C 0.05252 0.90231 0.87532 0.0
C256 C 0.02658 0.90194 0.86681 0.0
H257 H 0.06804 0.84161 0.87239 0.0
H258 H 0.06116 0.91992 0.88049 0.0
H259 H 0.11083 0.83666 0.85738 0.0
H260 H 0.13756 0.88648 0.80981 0.0
H261 H 0.04776 0.88943 0.95369 0.0
H262 H 0.02459 0.83964 0.85509 0.0
H263 H 0.01597 0.9195 0.86645 0.0
C264 C 0.62932 0.62135 0.34549 0.0
C265 C 0.63183 0.63446 0.32662 0.0
N266 N 0.62719 0.65888 0.33053 0.0
N267 N 0.6233 0.6372 0.36158 0.0
C268 C 0.62225 0.66004 0.35194 0.0
H269 H 0.63087 0.60128 0.34717 0.0
Co270 Co 0.61445 0.62634 0.38974 0.0
C271 C 0.60837 0.67511 0.41272 0.0
O272 O 0.6247 0.66929 0.42855 0.0
N273 N 0.60504 0.6154 0.41829 0.0
C274 C 0.60826 0.60437 0.45276 0.0
C275 C 0.62151 0.61491 0.43561 0.0
C276 C 0.58145 0.60556 0.42587 0.0
N277 N 0.58302 0.59817 0.44657 0.0
O278 O 0.65173 0.62995 0.39817 0.0
H279 H 0.642 0.62193 0.43607 0.0
H280 H 0.56336 0.60339 0.41641 0.0
O281 O 0.60454 0.65985 0.39735 0.0
C282 C 0.66068 0.60801 0.39413 0.0
O283 O 0.64391 0.59129 0.3862 0.0
N284 N 0.57986 0.61957 0.38034 0.0
C285 C 0.53324 0.60157 0.36087 0.0
C286 C 0.53693 0.62741 0.36411 0.0
C287 C 0.56045 0.6361 0.3741 0.0
C288 C 0.5764 0.59451 0.37757 0.0
C289 C 0.55273 0.58505 0.36885 0.0
H290 H 0.56368 0.65598 0.3755 0.0
H291 H 0.59221 0.58177 0.38238 0.0
H292 H 0.61689 0.67705 0.36025 0.0
H293 H 0.63647 0.62643 0.31113 0.0
H294 H 0.61678 0.60152 0.46855 0.0
H295 H 0.52286 0.64092 0.35761 0.0
H296 H 0.55059 0.56499 0.36705 0.0
C297 C 0.86288 0.39334 0.34659 0.0
C298 C 0.86026 0.37933 0.32826 0.0
N299 N 0.86851 0.35581 0.33235 0.0
N300 N 0.87258 0.37897 0.36257 0.0
C301 C 0.8757 0.35601 0.35341 0.0
H302 H 0.85883 0.41312 0.34788 0.0
Co303 Co 0.88258 0.39272 0.38956 0.0
C304 C 0.88551 0.34205 0.41154 0.0
O305 O 0.86052 0.33991 0.41852 0.0
N306 N 0.89285 0.40615 0.41704 0.0
C307 C 0.89144 0.41382 0.45227 0.0
C308 C 0.87872 0.40225 0.43535 0.0
C309 C 0.91466 0.41971 0.42369 0.0
N310 N 0.9141 0.42484 0.4449 0.0
O311 O 0.84562 0.39072 0.39899 0.0
H312 H 0.86037 0.39126 0.4366 0.0
H313 H 0.93097 0.42579 0.41348 0.0
O314 O 0.89269 0.36092 0.4005 0.0
C315 C 0.83759 0.41287 0.39469 0.0
O316 O 0.85484 0.42872 0.3861 0.0
N317 N 0.91704 0.39763 0.37899 0.0
C318 C 0.96254 0.41126 0.35559 0.0
C319 C 0.95758 0.38601 0.36068 0.0
C320 C 0.93459 0.37955 0.37245 0.0
C321 C 0.92164 0.42211 0.37427 0.0
C322 C 0.945 0.42947 0.36372 0.0
H323 H 0.9299 0.35999 0.37469 0.0
H324 H 0.90695 0.43606 0.37884 0.0
H325 H 0.8843 0.34011 0.36168 0.0
H326 H 0.85311 0.38614 0.31293 0.0
H327 H 0.88478 0.41362 0.46881 0.0
H328 H 0.96995 0.37116 0.35417 0.0
H329 H 0.94817 0.4492 0.36064 0.0
C330 C 0.12343 0.39056 0.15613 0.0
C331 C 0.1281 0.37811 0.1751 0.0
N332 N 0.12899 0.35326 0.17125 0.0
N333 N 0.12142 0.37401 0.13993 0.0
C334 C 0.1248 0.35139 0.14972 0.0
H335 H 0.12036 0.41047 0.15448 0.0
Co336 Co 0.11029 0.38354 0.1116 0.0
C337 C 0.12052 0.32788 0.09893 0.0
O338 O 0.14561 0.32335 0.10466 0.0
N339 N 0.09837 0.39257 0.08364 0.0
C340 C 0.07043 0.39111 0.05567 0.0
C341 C 0.08026 0.37835 0.07291 0.0
C342 C 0.09854 0.41454 0.07267 0.0
N343 N 0.08158 0.41409 0.05554 0.0
O344 O 0.1474 0.38899 0.10329 0.0
H345 H 0.07145 0.36135 0.07905 0.0
H346 H 0.10869 0.43123 0.07828 0.0
O347 O 0.10986 0.34915 0.10234 0.0
C348 C 0.15137 0.41223 0.10712 0.0
O349 O 0.13153 0.42524 0.11552 0.0
N350 N 0.07444 0.38169 0.12014 0.0
C351 C 0.02906 0.39155 0.14405 0.0
C352 C 0.03957 0.36721 0.14353 0.0
C353 C 0.06257 0.3625 0.13111 0.0
C354 C 0.06176 0.40418 0.1181 0.0
C355 C 0.03796 0.40897 0.12897 0.0
H356 H 0.07259 0.34464 0.13245 0.0
H357 H 0.07164 0.41956 0.11002 0.0
H358 H 0.12289 0.33379 0.14146 0.0
H359 H 0.12959 0.38696 0.19063 0.0
H360 H 0.05376 0.38499 0.04567 0.0
H361 H 0.03288 0.35342 0.1551 0.0
H362 H 0.03026 0.42794 0.12911 0.0
C363 C 0.38036 0.62119 0.15927 0.0
C364 C 0.37488 0.63341 0.1782 0.0
N365 N 0.37365 0.65822 0.17434 0.0
N366 N 0.38246 0.6379 0.14316 0.0
C367 C 0.37822 0.66034 0.15291 0.0
H368 H 0.38398 0.60135 0.15762 0.0
Co369 Co 0.3952 0.629 0.11523 0.0
C370 C 0.38608 0.68511 0.10231 0.0
O371 O 0.36099 0.69064 0.10732 0.0
N372 N 0.40858 0.62031 0.08774 0.0
C373 C 0.4381 0.62169 0.06082 0.0
C374 C 0.42667 0.63481 0.07723 0.0
C375 C 0.40978 0.59799 0.07739 0.0
N376 N 0.42787 0.59839 0.06109 0.0
O377 O 0.35861 0.62314 0.1057 0.0
H378 H 0.43446 0.6523 0.08316 0.0
H379 H 0.40055 0.581 0.08336 0.0
O380 O 0.39555 0.66346 0.10612 0.0
C381 C 0.35467 0.59988 0.10945 0.0
O382 O 0.37417 0.58712 0.11863 0.0
N383 N 0.43058 0.63162 0.125 0.0
C384 C 0.47244 0.62241 0.15277 0.0
C385 C 0.46162 0.6466 0.15135 0.0
C386 C 0.44056 0.65098 0.13688 0.0
C387 C 0.44416 0.60952 0.12377 0.0
C388 C 0.46632 0.60506 0.13676 0.0
H389 H 0.43004 0.66865 0.13745 0.0
H390 H 0.43587 0.59403 0.11481 0.0
H391 H 0.3804 0.67807 0.14486 0.0
H392 H 0.37272 0.62453 0.19369 0.0
H393 H 0.45508 0.62783 0.05112 0.0
H394 H 0.46614 0.66055 0.16346 0.0
H395 H 0.47452 0.58628 0.1374 0.0
C396 C 0.36264 0.38629 0.65078 0.0
C397 C 0.35734 0.37156 0.66838 0.0
N398 N 0.36775 0.34876 0.6649 0.0
N399 N 0.37601 0.37294 0.63574 0.0
C400 C 0.37916 0.35006 0.64515 0.0
H401 H 0.35738 0.40578 0.64944 0.0
Co402 Co 0.38774 0.38665 0.60868 0.0
C403 C 0.38572 0.33177 0.59435 0.0
O404 O 0.36141 0.32556 0.60109 0.0
N405 N 0.39971 0.40011 0.58203 0.0
C406 C 0.42679 0.40569 0.55386 0.0
C407 C 0.41887 0.38944 0.56963 0.0
C408 C 0.39695 0.42339 0.57361 0.0
N409 N 0.41306 0.42708 0.55637 0.0
O410 O 0.3511 0.38731 0.59845 0.0
H411 H 0.42943 0.37253 0.57364 0.0
H412 H 0.3859 0.43831 0.58131 0.0
O413 O 0.39493 0.35373 0.5975 0.0
C414 C 0.34316 0.40929 0.60343 0.0
O415 O 0.35987 0.42409 0.61384 0.0
N416 N 0.42274 0.38914 0.61893 0.0
C417 C 0.46997 0.40177 0.64019 0.0
C418 C 0.46155 0.37659 0.63898 0.0
C419 C 0.438 0.37055 0.62766 0.0
C420 C 0.4319 0.41318 0.61861 0.0
C421 C 0.4564 0.41953 0.6278 0.0
H422 H 0.43106 0.35139 0.62739 0.0
H423 H 0.41947 0.42793 0.61217 0.0
H424 H 0.38963 0.33454 0.63786 0.0
H425 H 0.34722 0.37738 0.68295 0.0
H426 H 0.44383 0.40321 0.54313 0.0
H427 H 0.47143 0.36207 0.64817 0.0
H428 H 0.46275 0.43895 0.62747 0.0
C429 C 0.12131 0.61948 0.66152 0.0
C430 C 0.12934 0.63131 0.68002 0.0
N431 N 0.14141 0.65312 0.67483 0.0
N432 N 0.12764 0.6337 0.64438 0.0
C433 C 0.14154 0.65331 0.653 0.0
H434 H 0.10988 0.60223 0.66068 0.0
Co435 Co 0.11375 0.62542 0.61653 0.0
C436 C 0.10428 0.68276 0.61679 0.0
O437 O 0.10578 0.68575 0.63761 0.0
N438 N 0.09948 0.61654 0.58927 0.0
C439 C 0.06906 0.6157 0.56291 0.0
C440 C 0.0808 0.63009 0.57853 0.0
C441 C 0.09844 0.5937 0.57978 0.0
N442 N 0.07998 0.59278 0.56377 0.0
O443 O 0.14971 0.62504 0.60493 0.0
H444 H 0.07318 0.64801 0.58348 0.0
H445 H 0.10819 0.5773 0.58628 0.0
O446 O 0.10787 0.66104 0.60858 0.0
C447 C 0.15748 0.60276 0.60903 0.0
O448 O 0.14163 0.58836 0.62066 0.0
N449 N 0.07885 0.62182 0.62774 0.0
C450 C 0.02887 0.60647 0.64409 0.0
C451 C 0.03716 0.63171 0.64517 0.0
C452 C 0.06198 0.63908 0.63653 0.0
C453 C 0.07121 0.59732 0.6267 0.0
C454 C 0.04598 0.58946 0.63381 0.0
H455 H 0.06769 0.65831 0.63793 0.0
H456 H 0.08511 0.58353 0.62058 0.0
H457 H 0.15019 0.66829 0.64351 0.0
H458 H 0.12448 0.62521 0.69612 0.0
H459 H 0.05171 0.62083 0.55326 0.0
H460 H 0.02538 0.64564 0.65355 0.0
H461 H 0.0407 0.5699 0.63217 0.0
C462 C 0.8669 0.62697 0.85234 0.0
C463 C 0.86016 0.64026 0.83421 0.0
N464 N 0.86613 0.66457 0.83744 0.0
N465 N 0.87685 0.6426 0.86743 0.0
C466 C 0.87601 0.66547 0.85773 0.0
H467 H 0.8656 0.60689 0.85385 0.0
Co468 Co 0.89243 0.63208 0.89426 0.0
C469 C 0.88175 0.68696 0.90816 0.0
O470 O 0.85686 0.69118 0.90174 0.0
N471 N 0.90853 0.62225 0.92062 0.0
C472 C 0.93933 0.62341 0.94666 0.0
C473 C 0.92803 0.63623 0.93 0.0
C474 C 0.90894 0.60041 0.93177 0.0
N475 N 0.92757 0.60073 0.94776 0.0
O476 O 0.85682 0.6247 0.9054 0.0
H477 H 0.93589 0.65351 0.92356 0.0
H478 H 0.89722 0.58405 0.92743 0.0
O479 O 0.89292 0.66593 0.90467 0.0
C480 C 0.85405 0.60177 0.89983 0.0
O481 O 0.87459 0.59074 0.89039 0.0
N482 N 0.92675 0.63564 0.88263 0.0
C483 C 0.96549 0.62776 0.85183 0.0
C484 C 0.9557 0.65203 0.85545 0.0
C485 C 0.9365 0.65576 0.87158 0.0
C486 C 0.9396 0.61318 0.88171 0.0
C487 C 0.96021 0.60925 0.86712 0.0
H488 H 0.92728 0.67392 0.87326 0.0
H489 H 0.93186 0.59731 0.89055 0.0
H490 H 0.88333 0.68248 0.86504 0.0
H491 H 0.85259 0.63231 0.81946 0.0
H492 H 0.95681 0.62941 0.95582 0.0
H493 H 0.95997 0.667 0.84429 0.0
H494 H 0.96835 0.59056 0.86541 0.0
C495 C 0.63937 0.39327 0.85197 0.0
C496 C 0.6435 0.38186 0.83242 0.0
N497 N 0.63687 0.35743 0.83411 0.0
N498 N 0.6303 0.37628 0.86627 0.0
C499 C 0.62936 0.35453 0.85491 0.0
H500 H 0.64116 0.4131 0.85502 0.0
Co501 Co 0.61391 0.38407 0.89313 0.0
C502 C 0.61811 0.33563 0.91659 0.0
O503 O 0.63009 0.34593 0.93323 0.0
N504 N 0.5961 0.39158 0.91936 0.0
C505 C 0.56231 0.3895 0.94299 0.0
C506 C 0.57673 0.37664 0.92796 0.0
C507 C 0.59249 0.41386 0.92941 0.0
N508 N 0.5719 0.41301 0.94374 0.0
O509 O 0.64888 0.38931 0.90596 0.0
H510 H 0.57092 0.35848 0.92194 0.0
H511 H 0.6025 0.43103 0.9247 0.0
O512 O 0.61311 0.34892 0.90011 0.0
C513 C 0.65411 0.4126 0.9037 0.0
O514 O 0.63622 0.42687 0.89416 0.0
N515 N 0.58066 0.38205 0.88031 0.0
C516 C 0.53973 0.38848 0.85112 0.0
C517 C 0.54841 0.36432 0.85638 0.0
C518 C 0.56884 0.36142 0.87146 0.0
C519 C 0.57032 0.40529 0.87719 0.0
C520 C 0.5493 0.40892 0.86288 0.0
H521 H 0.57678 0.343 0.87423 0.0
H522 H 0.58015 0.42135 0.88435 0.0
H523 H 0.62133 0.33723 0.86128 0.0
H524 H 0.64993 0.3912 0.81788 0.0
H525 H 0.54449 0.38272 0.95132 0.0
H526 H 0.54133 0.34818 0.84744 0.0
H527 H 0.54331 0.42787 0.85898 0.0
H528 H 0.01694 0.15753 0.16601 0.0
H529 H 0.02855 0.14516 0.2029 0.0
H530 H 0.97354 0.08233 0.19799 0.0
H531 H 0.96333 0.09358 0.16161 0.0
H532 H 0.99843 0.14645 0.23453 0.0
H533 H 0.9834 0.03686 0.23186 0.0
H534 H 0.99718 1.00143 0.20909 0.0
H535 H 0.06271 0.0452 0.18345 0.0
H536 H 0.04961 0.08077 0.20629 0.0
H537 H 0.97342 0.11862 0.33904 0.0
H538 H 0.96132 0.1078 0.30182 0.0
H539 H 0.04223 0.08016 0.29135 0.0
H540 H 0.05326 0.08835 0.32858 0.0
H541 H 0.00654 0.06005 0.26301 0.0
H542 H 0.04268 0.14913 0.2763 0.0
H543 H 0.04379 0.18472 0.30157 0.0
H544 H 0.95711 0.18185 0.30695 0.0
H545 H 0.95581 0.14597 0.28206 0.0
C546 C 0.00831 0.14057 0.17269 0.0
C547 C 0.98976 0.12626 0.16084 0.0
C548 C 0.01474 0.13358 0.19371 0.0
C549 C 0.00218 0.11257 0.20314 0.0
C550 C 0.98433 0.098 0.19096 0.0
C551 C 0.97845 0.10457 0.17003 0.0
C552 C 0.00444 0.10755 0.22637 0.0
C553 C 0.00033 0.12751 0.24058 0.0
C554 C 0.00737 0.08293 0.23453 0.0
C555 C 0.01534 0.06159 0.22068 0.0
C556 C 0.00082 0.03891 0.22143 0.0
C557 C 0.0085 0.0188 0.2085 0.0
C558 C 0.03076 0.02109 0.19479 0.0
C559 C 0.04541 0.04348 0.19401 0.0
C560 C 0.03783 0.06365 0.20692 0.0
C561 C 0.988 0.10919 0.32892 0.0
C562 C 0.01429 0.10467 0.33621 0.0
C563 C 0.98125 0.10316 0.30779 0.0
C564 C 0.00136 0.09433 0.29378 0.0
C565 C 0.02651 0.08713 0.30188 0.0
C566 C 0.03287 0.09211 0.32307 0.0
C567 C -0.00062 0.09868 0.2706 0.0
C568 C 0.00403 0.07875 0.25655 0.0
C569 C 0.99858 0.1234 0.2626 0.0
C570 C -0.00095 0.14533 0.27706 0.0
C571 C 0.02389 0.15631 0.28275 0.0
C572 C 0.02458 0.17641 0.29709 0.0
C573 C 0.00052 0.18566 0.30577 0.0
C574 C 0.97573 0.17483 0.30011 0.0
C575 C 0.97499 0.15472 0.28581 0.0
H576 H 0.00109 0.20113 0.31696 0.0
H577 H 0.03668 1.00549 0.1848 0.0
H578 H 0.53616 0.85354 0.17762 0.0
H579 H 0.51886 0.86098 0.21325 0.0
H580 H 0.4695 0.92122 0.18925 0.0
H581 H 0.48782 0.91426 0.15318 0.0
H582 H 0.50107 0.93804 0.21807 0.0
H583 H 0.44337 0.86793 0.21568 0.0
H584 H 0.42854 0.82484 0.20877 0.0
H585 H 0.48545 0.79748 0.25522 0.0
H586 H 0.50069 0.84051 0.2624 0.0
H587 H 0.44449 0.95097 0.32238 0.0
H588 H 0.46 0.95056 0.28584 0.0
H589 H 0.52274 0.89822 0.3026 0.0
H590 H 0.50784 0.89902 0.33999 0.0
H591 H 0.48079 0.87907 0.27732 0.0
H592 H 0.5388 0.95201 0.27748 0.0
H593 H 0.54944 0.99634 0.28461 0.0
H594 H 0.48455 0.01896 0.24315 0.0
H595 H 0.47326 0.97478 0.23603 0.0
C596 C 0.52027 0.86725 0.17961 0.0
C597 C 0.513 0.88313 0.1627 0.0
C598 C 0.51048 0.87161 0.20011 0.0
C599 C 0.49286 0.89159 0.20396 0.0
C600 C 0.48317 0.90573 0.1866 0.0
C601 C 0.49336 0.90162 0.16603 0.0
C602 C 0.48911 0.9003 0.22624 0.0
C603 C 0.49604 0.92521 0.23098 0.0
C604 C 0.4832 0.88349 0.24314 0.0
C605 C 0.47365 0.85751 0.23922 0.0
C606 C 0.45295 0.85273 0.22427 0.0
C607 C 0.44438 0.82825 0.22038 0.0
C608 C 0.45621 0.80833 0.23142 0.0
C609 C 0.47641 0.81291 0.24658 0.0
C610 C 0.485 0.83737 0.25058 0.0
C611 C 0.46264 0.94046 0.31886 0.0
C612 C 0.47443 0.92435 0.33412 0.0
C613 C 0.47146 0.94028 0.29773 0.0
C614 C 0.49213 0.92405 0.29156 0.0
C615 C 0.50653 0.91072 0.3072 0.0
C616 C 0.49785 0.91105 0.32849 0.0
C617 C 0.4936 0.91635 0.26899 0.0
C618 C 0.4859 0.89171 0.26429 0.0
C619 C 0.4981 0.93353 0.25219 0.0
C620 C 0.50509 0.96008 0.25634 0.0
C621 C 0.52668 0.96644 0.27001 0.0
C622 C 0.53285 0.99155 0.27403 0.0
C623 C 0.51766 0.01046 0.26437 0.0
C624 C 0.4963 1.0043 0.25063 0.0
C625 C 0.49004 0.97923 0.24657 0.0
H626 H 0.52246 0.02989 0.26751 0.0
H627 H 0.44976 0.78936 0.22834 0.0
H628 H 0.98369 0.92362 0.667 0.0
H629 H 0.99362 0.92611 0.70469 0.0
H630 H 0.014 0.84782 0.70559 0.0
H631 H 0.00554 0.84517 0.66705 0.0
H632 H 0.96321 0.86303 0.72632 0.0
H633 H 0.05818 0.88578 0.7242 0.0
H634 H 0.09729 0.91145 0.71297 0.0
H635 H 0.06095 0.97648 0.74109 0.0
H636 H 0.02144 0.95129 0.75221 0.0
H637 H 0.99023 0.8411 0.83475 0.0
H638 H 0.97839 0.84508 0.79748 0.0
H639 H 0.97654 0.9253 0.80363 0.0
H640 H 0.98948 0.92206 0.84047 0.0
H641 H 0.01693 0.91229 0.77858 0.0
H642 H 0.92378 0.89434 0.78086 0.0
H643 H 0.88115 0.87324 0.79092 0.0
H644 H 0.90876 0.80533 0.76161 0.0
H645 H 0.95154 0.82596 0.75135 0.0
C646 C 0.99189 0.9071 0.67458 0.0
C647 C 0.99256 0.88376 0.664 0.0
C648 C 0.99744 0.90866 0.69639 0.0
C649 C 0.00369 0.88699 0.70787 0.0
C650 C 0.0087 0.86464 0.69686 0.0
C651 C 0.00367 0.86315 0.67488 0.0
C652 C 0.99832 0.88649 0.73103 0.0
C653 C 0.97526 0.8733 0.73794 0.0
C654 C 0.01291 0.90151 0.7456 0.0
C655 C 0.03671 0.91666 0.73888 0.0
C656 C 0.0584 0.9056 0.72781 0.0
C657 C 0.08067 0.92006 0.72151 0.0
C658 C 0.08158 0.94559 0.72627 0.0
C659 C 0.06023 0.95671 0.73739 0.0
C660 C 0.0379 0.94234 0.74372 0.0
C661 C 0.98746 0.85976 0.82854 0.0
C662 C 0.99479 0.88128 0.84037 0.0
C663 C 0.97988 0.86192 0.80708 0.0
C664 C 0.97817 0.88559 0.79754 0.0
C665 C 0.97901 0.90684 0.81055 0.0
C666 C 0.98689 0.90473 0.83189 0.0
C667 C 0.98216 0.88812 0.77418 0.0
C668 C 0.00479 0.90192 0.7671 0.0
C669 C 0.96667 0.87429 0.75931 0.0
C670 C 0.94101 0.86166 0.76551 0.0
C671 C 0.92085 0.87484 0.77669 0.0
C672 C 0.89659 0.86299 0.78234 0.0
C673 C 0.89224 0.83794 0.77691 0.0
C674 C 0.9121 0.82473 0.76574 0.0
C675 C 0.93633 0.83652 0.75994 0.0
H676 H 0.87346 0.82876 0.78131 0.0
H677 H 0.09884 0.95675 0.72138 0.0
H678 H 0.50565 0.08348 0.65433 0.0
H679 H 0.48904 0.07473 0.69066 0.0
H680 H 0.51875 0.14663 0.71173 0.0
H681 H 0.53511 0.15549 0.6756 0.0
H682 H 0.54303 0.10085 0.73089 0.0
H683 H 0.4582 0.1397 0.71243 0.0
H684 H 0.41572 0.14542 0.69245 0.0
H685 H 0.38974 0.07157 0.71039 0.0
H686 H 0.43232 0.06523 0.73028 0.0
H687 H 0.50003 0.11942 0.83743 0.0
H688 H 0.51831 0.11541 0.80147 0.0
H689 H 0.46417 0.05357 0.78906 0.0
H690 H 0.44352 0.05919 0.82343 0.0
H691 H 0.45258 0.08921 0.76383 0.0
H692 H 0.53444 0.0492 0.78313 0.0
H693 H 0.57649 0.04125 0.80325 0.0
H694 H 0.60828 0.11246 0.78339 0.0
H695 H 0.56625 0.12105 0.76341 0.0
C696 C 0.50724 0.09787 0.6665 0.0
C697 C 0.52143 0.12016 0.66233 0.0
C698 C 0.49808 0.09279 0.68718 0.0
C699 C 0.50324 0.10993 0.70368 0.0
C700 C 0.51484 0.13324 0.69904 0.0
C701 C 0.52369 0.13845 0.67837 0.0
C702 C 0.49986 0.10238 0.72607 0.0
C703 C 0.52332 0.09842 0.73831 0.0
C704 C 0.47411 0.09818 0.73504 0.0
C705 C 0.44872 0.10185 0.72264 0.0
C706 C 0.44371 0.12446 0.71181 0.0
C707 C 0.4195 0.12789 0.7006 0.0
C708 C 0.40008 0.10883 0.70007 0.0
C709 C 0.40482 0.08632 0.71079 0.0
C710 C 0.42898 0.08282 0.72208 0.0
C711 C 0.49202 0.10483 0.82718 0.0
C712 C 0.46908 0.09075 0.83319 0.0
C713 C 0.50303 0.10216 0.80671 0.0
C714 C 0.49202 0.08459 0.79241 0.0
C715 C 0.47254 0.06759 0.79976 0.0
C716 C 0.46085 0.07083 0.81979 0.0
C717 C 0.49585 0.08776 0.76912 0.0
C718 C 0.47244 0.09103 0.75654 0.0
C719 C 0.52168 0.09085 0.75977 0.0
C720 C 0.54704 0.08585 0.77187 0.0
C721 C 0.55028 0.06328 0.7832 0.0
C722 C 0.57415 0.05863 0.79455 0.0
C723 C 0.59502 0.07635 0.79463 0.0
C724 C 0.59209 0.09875 0.78332 0.0
C725 C 0.56825 0.1035 0.77194 0.0
H726 H 0.61349 0.07271 0.80342 0.0
H727 H 0.38133 0.11154 0.69141 0.0
H728 H 0.48099 0.61812 0.35446 0.0
H729 H 0.45471 0.61197 0.3216 0.0
H730 H 0.51417 0.55899 0.29929 0.0
H731 H 0.53993 0.56481 0.33131 0.0
H732 H 0.47659 0.62874 0.28788 0.0
H733 H 0.49827 0.52554 0.25931 0.0
H734 H 0.49153 0.48279 0.27312 0.0
H735 H 0.42944 0.50907 0.31561 0.0
H736 H 0.43545 0.55193 0.30183 0.0
H737 H 0.51306 0.63527 0.18099 0.0
H738 H 0.5151 0.62303 0.21902 0.0
H739 H 0.44364 0.57715 0.21058 0.0
H740 H 0.44261 0.58795 0.17295 0.0
H741 H 0.472 0.55631 0.23833 0.0
H742 H 0.44004 0.63972 0.22781 0.0
H743 H 0.44254 0.68279 0.21376 0.0
H744 H 0.51477 0.6962 0.25049 0.0
H745 H 0.51292 0.65306 0.26449 0.0
C746 C 0.48782 0.60446 0.34286 0.0
C747 C 0.51285 0.59238 0.34537 0.0
C748 C 0.47269 0.60083 0.32419 0.0
C749 C 0.48254 0.58515 0.3079 0.0
C750 C 0.50571 0.5708 0.31169 0.0
C751 C 0.52067 0.57431 0.33022 0.0
C752 C 0.47382 0.58849 0.28547 0.0
C753 C 0.47487 0.61286 0.27713 0.0
C754 C 0.47123 0.56791 0.27137 0.0
C755 C 0.46732 0.54202 0.2795 0.0
C756 C 0.48298 0.5222 0.27144 0.0
C757 C 0.47934 0.49793 0.27932 0.0
C758 C 0.46008 0.49321 0.29524 0.0
C759 C 0.44439 0.51275 0.30331 0.0
C760 C 0.44793 0.53705 0.29549 0.0
C761 C 0.49849 0.62195 0.18727 0.0
C762 C 0.47793 0.61234 0.17418 0.0
C763 C 0.49943 0.61515 0.2089 0.0
C764 C 0.47906 0.59967 0.21766 0.0
C765 C 0.45956 0.58903 0.20421 0.0
C766 C 0.45905 0.59523 0.18267 0.0
C767 C 0.47625 0.59633 0.24101 0.0
C768 C 0.47293 0.57208 0.24924 0.0
C769 C 0.47569 0.61704 0.25505 0.0
C770 C 0.47637 0.64319 0.24716 0.0
C771 C 0.45646 0.65187 0.23287 0.0
C772 C 0.45779 0.67628 0.2249 0.0
C773 C 0.4788 0.69223 0.23126 0.0
C774 C 0.4985 0.68383 0.24561 0.0
C775 C 0.4973 0.65942 0.25359 0.0
H776 H 0.47988 0.71114 0.22514 0.0
H777 H 0.4573 0.47441 0.30132 0.0
H778 H 0.01186 0.3898 0.34592 0.0
H779 H 0.03512 0.39294 0.3113 0.0
H780 H 0.97954 0.45071 0.29174 0.0
H781 H 0.95602 0.44726 0.32512 0.0
H782 H 0.00756 0.37986 0.27651 0.0
H783 H 0.00189 0.48646 0.25422 0.0
H784 H 0.01401 0.52694 0.27057 0.0
H785 H 0.07164 0.49045 0.31143 0.0
H786 H 0.06019 0.44978 0.29511 0.0
H787 H 0.98194 0.38492 0.16716 0.0
H788 H 0.97549 0.39693 0.20501 0.0
H789 H 0.05524 0.43055 0.20557 0.0
H790 H 0.06089 0.42005 0.16815 0.0
H791 H 0.02575 0.45465 0.2315 0.0
H792 H 0.04351 0.3684 0.2158 0.0
H793 H 0.03197 0.32946 0.19668 0.0
H794 H 0.95807 0.32335 0.23265 0.0
H795 H 0.9685 0.36299 0.25119 0.0
C796 C 0.00509 0.40361 0.33441 0.0
C797 C 0.98176 0.41795 0.33828 0.0
C798 C 0.01853 0.4055 0.31477 0.0
C799 C 0.00902 0.42206 0.29904 0.0
C800 C 0.98761 0.43817 0.3038 0.0
C801 C 0.9741 0.43614 0.32315 0.0
C802 C 0.01694 0.41934 0.27645 0.0
C803 C 0.01218 0.39609 0.26669 0.0
C804 C 0.02295 0.44051 0.26372 0.0
C805 C 0.03012 0.46502 0.27344 0.0
C806 C 0.01731 0.48707 0.26657 0.0
C807 C 0.02402 0.51006 0.27587 0.0
C808 C 0.04356 0.51127 0.29204 0.0
C809 C 0.05646 0.48948 0.29894 0.0
C810 C 0.04984 0.46645 0.28968 0.0
C811 C 0.99747 0.39562 0.17535 0.0
C812 C 0.02176 0.40169 0.16502 0.0
C813 C 0.99392 0.40243 0.19681 0.0
C814 C 0.0152 0.41415 0.20809 0.0
C815 C 0.03857 0.42162 0.19719 0.0
C816 C 0.0418 0.41549 0.17584 0.0
C817 C 0.01537 0.41546 0.23165 0.0
C818 C 0.02172 0.43836 0.24141 0.0
C819 C 0.01171 0.39379 0.24438 0.0
C820 C 0.00665 0.36881 0.23473 0.0
C821 C 0.02474 0.35881 0.21957 0.0
C822 C 0.01824 0.33677 0.20864 0.0
C823 C 0.99422 0.32401 0.21335 0.0
C824 C 0.97664 0.33329 0.22898 0.0
C825 C 0.98275 0.35563 0.23961 0.0
H826 H 0.98932 0.30684 0.20498 0.0
H827 H 0.04872 0.52908 0.29923 0.0
H828 H 0.55952 0.37163 0.81393 0.0
H829 H 0.54912 0.38729 0.77837 0.0
H830 H 0.48566 0.43341 0.80451 0.0
H831 H 0.49648 0.41802 0.8408 0.0
H832 H 0.47312 0.40126 0.76735 0.0
H833 H 0.53124 0.46566 0.78831 0.0
H834 H 0.57029 0.48699 0.80486 0.0
H835 H 0.62411 0.44982 0.76132 0.0
H836 H 0.58544 0.42789 0.74471 0.0
H837 H 0.46349 0.44466 0.66324 0.0
H838 H 0.48011 0.45268 0.69874 0.0
H839 H 0.52953 0.38657 0.69582 0.0
H840 H 0.51361 0.37835 0.65923 0.0
H841 H 0.54496 0.44095 0.7229 0.0
H842 H 0.48391 0.36591 0.71417 0.0
H843 H 0.44311 0.34472 0.70016 0.0
H844 H 0.39365 0.40519 0.72261 0.0
H845 H 0.43431 0.42687 0.7365 0.0
C846 C 0.54282 0.38456 0.8121 0.0
C847 C 0.52838 0.39336 0.82992 0.0
C848 C 0.53737 0.39389 0.7919 0.0
C849 C 0.51723 0.4119 0.78919 0.0
C850 C 0.50165 0.41983 0.80666 0.0
C851 C 0.50748 0.41079 0.82712 0.0
C852 C 0.51154 0.4204 0.76746 0.0
C853 C 0.48842 0.41061 0.7577 0.0
C854 C 0.5318 0.43238 0.75512 0.0
C855 C 0.55537 0.44499 0.76532 0.0
C856 C 0.55142 0.46179 0.7824 0.0
C857 C 0.57349 0.47405 0.79177 0.0
C858 C 0.59967 0.46975 0.78416 0.0
C859 C 0.60382 0.45314 0.76719 0.0
C860 C 0.58181 0.4408 0.75777 0.0
C861 C 0.47908 0.43239 0.66929 0.0
C862 C 0.48691 0.4105 0.65829 0.0
C863 C 0.48842 0.4371 0.68981 0.0
C864 C 0.5056 0.42005 0.69968 0.0
C865 C 0.51615 0.39984 0.68812 0.0
C866 C 0.50685 0.39507 0.66738 0.0
C867 C 0.50741 0.42046 0.72297 0.0
C868 C 0.52953 0.43214 0.73275 0.0
C869 C 0.48619 0.41036 0.73549 0.0
C870 C 0.46211 0.39819 0.72593 0.0
C871 C 0.46439 0.37488 0.71572 0.0
C872 C 0.44128 0.36274 0.70791 0.0
C873 C 0.41582 0.37368 0.71042 0.0
C874 C 0.41341 0.39682 0.72061 0.0
C875 C 0.43646 0.40905 0.72841 0.0
H876 H 0.3979 0.36419 0.70464 0.0
H877 H 0.61673 0.47931 0.7914 0.0
H878 H 0.99738 0.65225 0.82214 0.0
H879 H 0.00048 0.64225 0.78375 0.0
H880 H 0.95146 0.57628 0.79368 0.0
H881 H 0.94756 0.58618 0.83132 0.0
H882 H 0.01896 0.59984 0.76247 0.0
H883 H 0.90468 0.57505 0.74868 0.0
H884 H 0.85954 0.58662 0.76221 0.0
H885 H 0.89214 0.65507 0.78761 0.0
H886 H 0.93724 0.64395 0.77431 0.0
H887 H 0.02218 0.56017 0.66324 0.0
H888 H 0.99784 0.55349 0.69612 0.0
H889 H 0.95968 0.6254 0.68949 0.0
H890 H 0.98198 0.63151 0.65521 0.0
H891 H 0.93421 0.5965 0.71958 0.0
H892 H 0.02665 0.62484 0.70287 0.0
H893 H 0.07131 0.61923 0.6861 0.0
H894 H 0.08275 0.55115 0.72159 0.0
H895 H 0.03777 0.55624 0.73831 0.0
C896 C 0.98772 0.63542 0.81615 0.0
C897 C 0.97259 0.61991 0.82986 0.0
C898 C 0.98945 0.62976 0.79433 0.0
C899 C 0.97579 0.60876 0.7861 0.0
C900 C 0.96182 0.59269 0.79983 0.0
C901 C 0.96011 0.59824 0.82147 0.0
C902 C 0.97563 0.60368 0.76302 0.0
C903 C 0.00041 0.59896 0.75314 0.0
C904 C 0.95128 0.60254 0.75102 0.0
C905 C 0.92447 0.60862 0.76046 0.0
C906 C 0.90223 0.59254 0.75722 0.0
C907 C 0.87659 0.59901 0.76487 0.0
C908 C 0.87289 0.6216 0.7757 0.0
C909 C 0.89492 0.63756 0.77925 0.0
C910 C 0.92058 0.63112 0.77171 0.0
C911 C 0.00735 0.57405 0.66769 0.0
C912 C 0.00566 0.5974 0.6572 0.0
C913 C 0.99337 0.57005 0.68675 0.0
C914 C 0.9785 0.58964 0.69572 0.0
C915 C 0.97196 0.61041 0.68307 0.0
C916 C 0.98524 0.61409 0.66362 0.0
C917 C 0.97745 0.59231 0.71918 0.0
C918 C 0.95256 0.59672 0.72913 0.0
C919 C 0.00169 0.5936 0.73133 0.0
C920 C 0.02883 0.59075 0.72159 0.0
C921 C 0.03868 0.60864 0.70702 0.0
C922 C 0.06405 0.60553 0.69751 0.0
C923 C 0.07989 0.58477 0.70273 0.0
C924 C 0.07042 0.56716 0.71752 0.0
C925 C 0.04499 0.57013 0.72699 0.0
H926 H 0.09954 0.58231 0.69539 0.0
H927 H 0.85293 0.62676 0.78124 0.0
H928 H 0.13788 0.15212 0.28606 0.0
H929 H 0.14201 0.18605 0.26023 0.0
H930 H 0.14689 0.23937 0.31196 0.0
H931 H 0.14167 0.2054 0.338 0.0
H932 H 0.11333 0.25638 0.28425 0.0
H933 H 0.20218 0.22485 0.27733 0.0
H934 H 0.23838 0.19379 0.27237 0.0
H935 H 0.20775 0.17629 0.20967 0.0
H936 H 0.17107 0.20697 0.21437 0.0
H937 H 0.14178 0.35797 0.21391 0.0
H938 H 0.14591 0.32525 0.24059 0.0
H939 H 0.12843 0.26951 0.19267 0.0
H940 H 0.12381 0.30228 0.16554 0.0
H941 H 0.17131 0.25539 0.2193 0.0
H942 H 0.07604 0.27902 0.23311 0.0
H943 H 0.03889 0.30832 0.24055 0.0
H944 H 0.08578 0.34279 0.29049 0.0
H945 H 0.12266 0.31253 0.28419 0.0
C946 C 0.14001 0.17101 0.29208 0.0
C947 C 0.13906 0.17577 0.31433 0.0
C948 C 0.14269 0.19053 0.27715 0.0
C949 C 0.14496 0.21556 0.28391 0.0
C950 C 0.14514 0.22034 0.30615 0.0
C951 C 0.14236 0.20076 0.32114 0.0
C952 C 0.14508 0.23662 0.26779 0.0
C953 C 0.1265 0.25625 0.27032 0.0
C954 C 0.16176 0.23665 0.24919 0.0
C955 C 0.18369 0.21806 0.2463 0.0
C956 C 0.20299 0.21422 0.26256 0.0
C957 C 0.22364 0.19671 0.25978 0.0
C958 C 0.22532 0.18302 0.24074 0.0
C959 C 0.20639 0.18687 0.22442 0.0
C960 C 0.18568 0.20434 0.22713 0.0
C961 C 0.13845 0.33893 0.20876 0.0
C962 C 0.13209 0.3333 0.18717 0.0
C963 C 0.14087 0.32004 0.22428 0.0
C964 C 0.13712 0.29475 0.2189 0.0
C965 C 0.13135 0.28884 0.19737 0.0
C966 C 0.12872 0.30779 0.18176 0.0
C967 C 0.13936 0.2747 0.23578 0.0
C968 C 0.15839 0.2554 0.23337 0.0
C969 C 0.1235 0.27507 0.25469 0.0
C970 C 0.10212 0.29386 0.25798 0.0
C971 C 0.07846 0.293 0.24555 0.0
C972 C 0.05744 0.30972 0.24961 0.0
C973 C 0.06015 0.32783 0.26564 0.0
C974 C 0.08376 0.3289 0.27796 0.0
C975 C 0.10461 0.31179 0.27433 0.0
H976 H 0.04385 0.34084 0.26865 0.0
H977 H 0.24133 0.16948 0.23862 0.0
H978 H 0.36109 0.70735 0.16711 0.0
H979 H 0.35728 0.74079 0.19362 0.0
H980 H 0.3749 0.68849 0.24425 0.0
H981 H 0.37901 0.655 0.21803 0.0
H982 H 0.33324 0.72255 0.25548 0.0
H983 H 0.42575 0.72682 0.22634 0.0
H984 H 0.45581 0.72795 0.19461 0.0
H985 H 0.41642 0.79444 0.17231 0.0
H986 H 0.38577 0.79339 0.20361 0.0
H987 H 0.36625 0.8085 0.33883 0.0
H988 H 0.36649 0.77434 0.31269 0.0
H989 H 0.36786 0.82797 0.26103 0.0
H990 H 0.36897 0.86191 0.28683 0.0
H991 H 0.39844 0.79308 0.24948 0.0
H992 H 0.30896 0.79364 0.27655 0.0
H993 H 0.2722 0.79323 0.3033 0.0
H994 H 0.29705 0.72052 0.32475 0.0
H995 H 0.33424 0.72064 0.29831 0.0
C996 C 0.36425 0.7028 0.18382 0.0
C997 C 0.37051 0.67815 0.19012 0.0
C998 C 0.36192 0.72205 0.19906 0.0
C999 C 0.36594 0.71732 0.22105 0.0
C1000 C 0.37153 0.69271 0.22747 0.0
C1001 C 0.37389 0.67345 0.21228 0.0
C1002 C 0.36609 0.73819 0.23716 0.0
C1003 C 0.34773 0.7378 0.25439 0.0
C1004 C 0.38422 0.75864 0.23537 0.0
C1005 C 0.40368 0.76014 0.21735 0.0
C1006 C 0.42364 0.74173 0.2147 0.0
C1007 C 0.44071 0.74231 0.1968 0.0
C1008 C 0.43814 0.76132 0.18156 0.0
C1009 C 0.41842 0.77974 0.18415 0.0
C1010 C 0.40121 0.77918 0.20196 0.0
C1011 C 0.36682 0.8131 0.32194 0.0
C1012 C 0.36725 0.8383 0.31522 0.0
C1013 C 0.36667 0.79343 0.30688 0.0
C1014 C 0.3667 0.79831 0.28463 0.0
C1015 C 0.3677 0.82341 0.27796 0.0
C1016 C 0.36801 0.843 0.29293 0.0
C1017 C 0.3657 0.7775 0.26827 0.0
C1018 C 0.38395 0.77787 0.25086 0.0
C1019 C 0.34679 0.75742 0.26957 0.0
C1020 C 0.32461 0.75728 0.28562 0.0
C1021 C 0.30675 0.77765 0.28711 0.0
C1022 C 0.2858 0.77746 0.30218 0.0
C1023 C 0.28234 0.75689 0.31576 0.0
C1024 C 0.2998 0.73646 0.31425 0.0
C1025 C 0.32081 0.73657 0.29921 0.0
H1026 H 0.2661 0.75676 0.32741 0.0
H1027 H 0.45136 0.76173 0.16772 0.0
H1028 H 0.61692 0.65438 0.28782 0.0
H1029 H 0.61757 0.68709 0.26072 0.0
H1030 H 0.63555 0.74201 0.30933 0.0
H1031 H 0.63494 0.70906 0.33682 0.0
H1032 H 0.59957 0.76043 0.28163 0.0
H1033 H 0.68506 0.72001 0.27444 0.0
H1034 H 0.71658 0.68472 0.27009 0.0
H1035 H 0.68003 0.66641 0.20957 0.0
H1036 H 0.64802 0.70139 0.21371 0.0
H1037 H 0.64189 0.85604 0.21052 0.0
H1038 H 0.64008 0.82335 0.2376 0.0
H1039 H 0.61888 0.76924 0.18912 0.0
H1040 H 0.62147 0.80203 0.16155 0.0
H1041 H 0.65665 0.75053 0.21669 0.0
H1042 H 0.57026 0.79064 0.22494 0.0
H1043 H 0.54098 0.82745 0.22866 0.0
H1044 H 0.5816 0.84773 0.28709 0.0
H1045 H 0.61115 0.81079 0.28372 0.0
C1046 C 0.62133 0.67331 0.29288 0.0
C1047 C 0.62637 0.67883 0.31465 0.0
C1048 C 0.62165 0.69212 0.27724 0.0
C1049 C 0.62722 0.7171 0.28274 0.0
C1050 C 0.63139 0.72291 0.30454 0.0
C1051 C 0.631 0.70401 0.3203 0.0
C1052 C 0.62859 0.73692 0.26568 0.0
C1053 C 0.61236 0.75833 0.2676 0.0
C1054 C 0.64481 0.73423 0.24701 0.0
C1055 C 0.66396 0.71315 0.24449 0.0
C1056 C 0.68359 0.70833 0.26029 0.0
C1057 C 0.70157 0.6884 0.25785 0.0
C1058 C 0.70025 0.67329 0.2396 0.0
C1059 C 0.68099 0.6781 0.22372 0.0
C1060 C 0.66294 0.69798 0.2261 0.0
C1061 C 0.63705 0.83722 0.20542 0.0
C1062 C 0.63199 0.83185 0.18364 0.0
C1063 C 0.63571 0.81848 0.22109 0.0
C1064 C 0.62901 0.79373 0.2156 0.0
C1065 C 0.62403 0.78816 0.19387 0.0
C1066 C 0.62531 0.80701 0.17809 0.0
C1067 C 0.62754 0.77386 0.2326 0.0
C1068 C 0.6438 0.7525 0.23069 0.0
C1069 C 0.61152 0.77664 0.25133 0.0
C1070 C 0.59305 0.79814 0.25396 0.0
C1071 C 0.57296 0.80298 0.23856 0.0
C1072 C 0.55634 0.8239 0.2406 0.0
C1073 C 0.55961 0.84016 0.25797 0.0
C1074 C 0.57918 0.83521 0.27358 0.0
C1075 C 0.5958 0.81421 0.27167 0.0
H1076 H 0.54696 0.85657 0.25937 0.0
H1077 H 0.7142 0.65788 0.23773 0.0
H1078 H 0.87799 0.36065 0.28974 0.0
H1079 H 0.8775 0.32807 0.26253 0.0
H1080 H 0.86345 0.27238 0.31135 0.0
H1081 H 0.86402 0.30534 0.339 0.0
H1082 H 0.89841 0.25473 0.28136 0.0
H1083 H 0.81138 0.29317 0.27921 0.0
H1084 H 0.77846 0.32765 0.2773 0.0
H1085 H 0.80968 0.34907 0.21565 0.0
H1086 H 0.84306 0.31493 0.21734 0.0
H1087 H 0.85531 0.16131 0.20889 0.0
H1088 H 0.8515 0.19403 0.23599 0.0
H1089 H 0.88147 0.24846 0.19078 0.0
H1090 H 0.88554 0.2156 0.1634 0.0
H1091 H 0.83659 0.26566 0.2192 0.0
H1092 H 0.92804 0.23125 0.22505 0.0
H1093 H 0.95395 0.19203 0.22194 0.0
H1094 H 0.90879 0.16052 0.27434 0.0
H1095 H 0.88288 0.19968 0.27787 0.0
C1096 C 0.87461 0.34153 0.29481 0.0
C1097 C 0.87049 0.3358 0.31664 0.0
C1098 C 0.87437 0.32281 0.27913 0.0
C1099 C 0.86975 0.29768 0.28465 0.0
C1100 C 0.86683 0.29161 0.30655 0.0
C1101 C 0.8672 0.31047 0.32239 0.0
C1102 C 0.86758 0.27816 0.26738 0.0
C1103 C 0.88463 0.25714 0.26798 0.0
C1104 C 0.84988 0.28105 0.24955 0.0
C1105 C 0.8299 0.30164 0.24851 0.0
C1106 C 0.81138 0.30537 0.26533 0.0
C1107 C 0.79261 0.32483 0.26427 0.0
C1108 C 0.79203 0.34059 0.24639 0.0
C1109 C 0.81018 0.33687 0.22951 0.0
C1110 C 0.82902 0.31746 0.2305 0.0
C1111 C 0.86105 0.18021 0.20459 0.0
C1112 C 0.87111 0.1856 0.18394 0.0
C1113 C 0.85871 0.19899 0.22013 0.0
C1114 C 0.86647 0.22373 0.21557 0.0
C1115 C 0.87529 0.22953 0.1947 0.0
C1116 C 0.87761 0.21068 0.17903 0.0
C1117 C 0.86753 0.24277 0.23319 0.0
C1118 C 0.85034 0.26353 0.23263 0.0
C1119 C 0.8849 0.23969 0.25105 0.0
C1120 C 0.90371 0.21831 0.25179 0.0
C1121 C 0.92414 0.21612 0.23621 0.0
C1122 C 0.93867 0.19388 0.23427 0.0
C1123 C 0.93287 0.17375 0.2478 0.0
C1124 C 0.91324 0.17613 0.26384 0.0
C1125 C 0.89879 0.19842 0.26596 0.0
H1126 H 0.94355 0.15629 0.24576 0.0
H1127 H 0.77747 0.35564 0.24559 0.0
H1128 H 0.8331 0.66715 0.80253 0.0
H1129 H 0.83321 0.69896 0.7743 0.0
H1130 H 0.89521 0.73991 0.80793 0.0
H1131 H 0.89603 0.70772 0.83596 0.0
H1132 H 0.82432 0.75279 0.77767 0.0
H1133 H 0.93344 0.75374 0.78015 0.0
H1134 H 0.97353 0.72648 0.7838 0.0
H1135 H 0.93654 0.67227 0.74209 0.0
H1136 H 0.89581 0.69869 0.73915 0.0
H1137 H 0.85459 0.85957 0.7145 0.0
H1138 H 0.85263 0.82699 0.74166 0.0
H1139 H 0.8789 0.77263 0.69511 0.0
H1140 H 0.88196 0.80562 0.66784 0.0
H1141 H 0.90468 0.76428 0.73086 0.0
H1142 H 0.81072 0.77675 0.71451 0.0
H1143 H 0.76878 0.80091 0.70934 0.0
H1144 H 0.77226 0.82573 0.77479 0.0
H1145 H 0.81443 0.80197 0.78027 0.0
C1146 C 0.84695 0.68279 0.80395 0.0
C1147 C 0.86477 0.68454 0.82158 0.0
C1148 C 0.84689 0.70107 0.78777 0.0
C1149 C 0.86462 0.72163 0.78872 0.0
C1150 C 0.88186 0.7239 0.80656 0.0
C1151 C 0.882 0.70559 0.82277 0.0
C1152 C 0.86495 0.74072 0.77112 0.0
C1153 C 0.84195 0.75549 0.76755 0.0
C1154 C 0.88758 0.74395 0.75751 0.0
C1155 C 0.91169 0.72798 0.7596 0.0
C1156 C 0.93386 0.73586 0.77199 0.0
C1157 C 0.95659 0.72052 0.77402 0.0
C1158 C 0.9575 0.69754 0.76333 0.0
C1159 C 0.93568 0.68989 0.7506 0.0
C1160 C 0.9127 0.70493 0.7489 0.0
C1161 C 0.86006 0.84074 0.70992 0.0
C1162 C 0.86848 0.83544 0.6888 0.0
C1163 C 0.85866 0.82194 0.72555 0.0
C1164 C 0.8653 0.79706 0.72059 0.0
C1165 C 0.87357 0.79159 0.69948 0.0
C1166 C 0.87504 0.81049 0.68376 0.0
C1167 C 0.86416 0.77706 0.73755 0.0
C1168 C 0.88697 0.76188 0.74096 0.0
C1169 C 0.8412 0.7735 0.75099 0.0
C1170 C 0.81581 0.78772 0.74775 0.0
C1171 C 0.80262 0.78748 0.72776 0.0
C1172 C 0.7788 0.80109 0.72478 0.0
C1173 C 0.76789 0.81488 0.74172 0.0
C1174 C 0.78074 0.81505 0.76168 0.0
C1175 C 0.80458 0.80149 0.76474 0.0
H1176 H 0.74944 0.8254 0.73938 0.0
H1177 H 0.97514 0.68572 0.76483 0.0
H1178 H 0.63193 0.36667 0.79117 0.0
H1179 H 0.62932 0.33631 0.7621 0.0
H1180 H 0.63369 0.27606 0.80792 0.0
H1181 H 0.63724 0.30645 0.83719 0.0
H1182 H 0.66604 0.26689 0.77479 0.0
H1183 H 0.57366 0.29439 0.78187 0.0
H1184 H 0.53738 0.32592 0.78305 0.0
H1185 H 0.55614 0.3483 0.71858 0.0
H1186 H 0.59295 0.31727 0.71716 0.0
H1187 H 0.63461 0.16604 0.70821 0.0
H1188 H 0.63176 0.19826 0.73572 0.0
H1189 H 0.62223 0.25455 0.68674 0.0
H1190 H 0.62425 0.22179 0.65894 0.0
H1191 H 0.5929 0.26741 0.72025 0.0
H1192 H 0.68509 0.24279 0.7126 0.0
H1193 H 0.72382 0.21391 0.71065 0.0
H1194 H 0.70775 0.18896 0.7749 0.0
H1195 H 0.66867 0.21744 0.77712 0.0
C1196 C 0.63262 0.34701 0.79521 0.0
C1197 C 0.63499 0.33922 0.81677 0.0
C1198 C 0.63074 0.32955 0.77844 0.0
C1199 C 0.63091 0.30371 0.78264 0.0
C1200 C 0.63337 0.29583 0.80412 0.0
C1201 C 0.63525 0.3133 0.82093 0.0
C1202 C 0.62936 0.28493 0.76469 0.0
C1203 C 0.64976 0.26681 0.7631 0.0
C1204 C 0.60877 0.28528 0.74876 0.0
C1205 C 0.58627 0.30363 0.74949 0.0
C1206 C 0.57019 0.30614 0.76799 0.0
C1207 C 0.54952 0.32393 0.7687 0.0
C1208 C 0.54447 0.33912 0.75091 0.0
C1209 C 0.56008 0.33653 0.73236 0.0
C1210 C 0.58086 0.31885 0.7316 0.0
C1211 C 0.63181 0.18525 0.70323 0.0
C1212 C 0.63021 0.19133 0.68129 0.0
C1213 C 0.63028 0.20379 0.71905 0.0
C1214 C 0.62775 0.22917 0.7135 0.0
C1215 C 0.62457 0.23523 0.6916 0.0
C1216 C 0.62569 0.21649 0.67566 0.0
C1217 C 0.62937 0.24907 0.7306 0.0
C1218 C 0.60911 0.26745 0.73198 0.0
C1219 C 0.65032 0.24927 0.74624 0.0
C1220 C 0.67379 0.23209 0.74495 0.0
C1221 C 0.68969 0.23101 0.72625 0.0
C1222 C 0.71172 0.21473 0.72511 0.0
C1223 C 0.7182 0.19957 0.74262 0.0
C1224 C 0.70268 0.20069 0.76133 0.0
C1225 C 0.6806 0.21691 0.76255 0.0
H1226 H 0.73527 0.18698 0.7417 0.0
H1227 H 0.52845 0.35287 0.75148 0.0
H1228 H 0.32417 0.33147 0.68621 0.0
H1229 H 0.32303 0.29988 0.71451 0.0
H1230 H 0.40928 0.28952 0.70774 0.0
H1231 H 0.40964 0.3196 0.67785 0.0
H1232 H 0.39161 0.24804 0.71829 0.0
H1233 H 0.37474 0.32747 0.75002 0.0
H1234 H 0.35257 0.36827 0.7552 0.0
H1235 H 0.27705 0.33122 0.7684 0.0
H1236 H 0.29869 0.29019 0.76298 0.0
H1237 H 0.40122 0.19167 0.82303 0.0
H1238 H 0.40452 0.22365 0.79472 0.0
H1239 H 0.31873 0.21716 0.78325 0.0
H1240 H 0.31539 0.18526 0.81134 0.0
H1241 H 0.33865 0.26791 0.7837 0.0
H1242 H 0.35937 0.18778 0.75002 0.0
H1243 H 0.38568 0.14864 0.75103 0.0
H1244 H 0.4597 0.19071 0.74631 0.0
H1245 H 0.4338 0.23012 0.74549 0.0
C1246 C 0.34277 0.32211 0.69057 0.0
C1247 C 0.367 0.3281 0.67991 0.0
C1248 C 0.34226 0.30426 0.70705 0.0
C1249 C 0.36625 0.29276 0.71419 0.0
C1250 C 0.3904 0.29808 0.7029 0.0
C1251 C 0.39068 0.31529 0.68577 0.0
C1252 C 0.36605 0.27555 0.73343 0.0
C1253 C 0.38027 0.25276 0.7326 0.0
C1254 C 0.35135 0.28116 0.75248 0.0
C1255 C 0.33829 0.30578 0.7559 0.0
C1256 C 0.35337 0.32804 0.75391 0.0
C1257 C 0.3409 0.3512 0.7569 0.0
C1258 C 0.31341 0.35234 0.76209 0.0
C1259 C 0.29834 0.33031 0.76436 0.0
C1260 C 0.3107 0.30709 0.76134 0.0
C1261 C 0.38303 0.1973 0.81466 0.0
C1262 C 0.35808 0.18573 0.81938 0.0
C1263 C 0.38494 0.2155 0.79839 0.0
C1264 C 0.36189 0.22275 0.78666 0.0
C1265 C 0.33682 0.21192 0.79197 0.0
C1266 C 0.33497 0.19353 0.80797 0.0
C1267 C 0.3639 0.24074 0.76825 0.0
C1268 C 0.34999 0.26352 0.76929 0.0
C1269 C 0.3794 0.23546 0.7497 0.0
C1270 C 0.39471 0.21183 0.74789 0.0
C1271 C 0.38125 0.18864 0.74908 0.0
C1272 C 0.39608 0.16644 0.7497 0.0
C1273 C 0.42434 0.16724 0.74901 0.0
C1274 C 0.43781 0.19016 0.74701 0.0
C1275 C 0.42308 0.21243 0.74641 0.0
H1276 H 0.43582 0.15011 0.75014 0.0
H1277 H 0.30378 0.37029 0.76438 0.0
H1278 H 0.14011 0.70339 0.6663 0.0
H1279 H 0.13937 0.73738 0.69247 0.0
H1280 H 0.15168 0.68432 0.7436 0.0
H1281 H 0.15215 0.65025 0.71756 0.0
H1282 H 0.11239 0.71476 0.75455 0.0
H1283 H 0.20213 0.72665 0.72644 0.0
H1284 H 0.23648 0.73283 0.6982 0.0
H1285 H 0.19755 0.80082 0.67867 0.0
H1286 H 0.16276 0.79488 0.70664 0.0
H1287 H 0.13416 0.80488 0.83766 0.0
H1288 H 0.13912 0.77067 0.81183 0.0
H1289 H 0.12789 0.82263 0.7597 0.0
H1290 H 0.12314 0.85675 0.78529 0.0
H1291 H 0.16723 0.79245 0.74964 0.0
H1292 H 0.07708 0.78047 0.77682 0.0
H1293 H 0.04247 0.77481 0.80495 0.0
H1294 H 0.08154 0.70749 0.82591 0.0
H1295 H 0.11659 0.7129 0.79805 0.0
C1296 C 0.14313 0.69888 0.68302 0.0
C1297 C 0.14587 0.67379 0.68966 0.0
C1298 C 0.14268 0.71847 0.69809 0.0
C1299 C 0.14539 0.71361 0.72021 0.0
C1300 C 0.14924 0.68872 0.72675 0.0
C1301 C 0.14958 0.66917 0.71174 0.0
C1302 C 0.14329 0.73418 0.73658 0.0
C1303 C 0.12472 0.73157 0.75359 0.0
C1304 C 0.15876 0.75654 0.73527 0.0
C1305 C 0.17972 0.76021 0.71851 0.0
C1306 C 0.20079 0.74283 0.71603 0.0
C1307 C 0.22036 0.74631 0.70008 0.0
C1308 C 0.21917 0.76717 0.68662 0.0
C1309 C 0.19844 0.78465 0.6891 0.0
C1310 C 0.17881 0.78125 0.70501 0.0
C1311 C 0.13255 0.80903 0.82072 0.0
C1312 C 0.12833 0.83377 0.81371 0.0
C1313 C 0.13539 0.78938 0.80589 0.0
C1314 C 0.1337 0.79385 0.78364 0.0
C1315 C 0.12947 0.81853 0.77667 0.0
C1316 C 0.12679 0.83815 0.79143 0.0
C1317 C 0.13635 0.77303 0.76758 0.0
C1318 C 0.15497 0.77561 0.75062 0.0
C1319 C 0.12084 0.75069 0.76888 0.0
C1320 C 0.09959 0.7472 0.78546 0.0
C1321 C 0.07837 0.76453 0.7875 0.0
C1322 C 0.05867 0.76136 0.80339 0.0
C1323 C 0.05984 0.74084 0.81724 0.0
C1324 C 0.08068 0.72339 0.81518 0.0
C1325 C 0.10045 0.72648 0.79933 0.0
H1326 H 0.04458 0.73843 0.82954 0.0
H1327 H 0.23433 0.76983 0.67428 0.0
H1328 H 0.09528 0.06668 0.46845 0.0
H1329 H 0.07101 0.03484 0.48977 0.0
H1330 H 0.99489 0.06204 0.46512 0.0
H1331 H 0.01901 0.09397 0.44459 0.0
H1332 H 0.9908 0.05664 0.50631 0.0
H1333 H 0.02487 1.00513 0.44847 0.0
H1334 H 0.06098 0.98811 0.42544 0.0
H1335 H 0.10032 0.95693 0.48069 0.0
H1336 H 0.06453 0.97396 0.50408 0.0
H1337 H 0.90048 0.95842 0.53481 0.0
H1338 H 0.9288 0.98927 0.51582 0.0
H1339 H 0.00015 0.9581 0.54544 0.0
H1340 H 0.97165 0.92704 0.56396 0.0
H1341 H 0.00909 0.96553 0.50409 0.0
H1342 H 0.97441 0.01532 0.56172 0.0
H1343 H 0.93892 0.03269 0.5851 0.0
H1344 H 0.90114 0.06725 0.53065 0.0
H1345 H 0.93644 0.05001 0.50691 0.0
C1346 C 0.07341 0.0655 0.46752 0.0
C1347 C 0.05894 0.0828 0.45514 0.0
C1348 C 0.05953 0.04739 0.47964 0.0
C1349 C 0.03101 0.04603 0.47911 0.0
C1350 C 0.01679 0.06282 0.46605 0.0
C1351 C 0.03057 0.081 0.45426 0.0
C1352 C 0.0156 0.02773 0.49245 0.0
C1353 C 0.99466 0.03669 0.50562 0.0
C1354 C 0.02103 1.00175 0.49212 0.0
C1355 C 0.04215 0.99097 0.47803 0.0
C1356 C 0.04127 0.9947 0.45571 0.0
C1357 C 0.06167 0.98505 0.44259 0.0
C1358 C 0.08296 0.97149 0.4516 0.0
C1359 C 0.08382 0.96744 0.47374 0.0
C1360 C 0.06346 0.97705 0.48693 0.0
C1361 C 0.92217 0.95854 0.53735 0.0
C1362 C 0.93408 0.9408 0.55086 0.0
C1363 C 0.93835 0.97607 0.52659 0.0
C1364 C 0.96666 0.97617 0.52934 0.0
C1365 C 0.97843 0.95842 0.54305 0.0
C1366 C 0.96224 0.94088 0.55373 0.0
C1367 C 0.98401 0.99444 0.5176 0.0
C1368 C 0.00533 0.98549 0.50481 0.0
C1369 C 0.97897 0.02046 0.51828 0.0
C1370 C 0.95797 0.03124 0.53253 0.0
C1371 C 0.95848 0.02655 0.55472 0.0
C1372 C 0.9384 0.03638 0.56804 0.0
C1373 C 0.91771 0.05098 0.55935 0.0
C1374 C 0.91717 0.05591 0.53735 0.0
C1375 C 0.93726 0.04618 0.52396 0.0
H1376 H 0.90214 0.05852 0.56969 0.0
H1377 H 0.09877 0.96408 0.44143 0.0
H1378 H 0.402 0.95858 0.47637 0.0
H1379 H 0.43403 0.98408 0.49647 0.0
H1380 H 0.4999 0.95409 0.45922 0.0
H1381 H 0.46775 0.92773 0.43926 0.0
H1382 H 0.51359 0.95774 0.50169 0.0
H1383 H 0.47706 0.01147 0.44849 0.0
H1384 H 0.44155 0.03172 0.42688 0.0
H1385 H 0.40891 0.06576 0.48358 0.0
H1386 H 0.44401 0.04539 0.50561 0.0
H1387 H 0.60566 0.05738 0.52841 0.0
H1388 H 0.57601 0.02795 0.50937 0.0
H1389 H 0.50979 0.04807 0.55091 0.0
H1390 H 0.53961 0.07742 0.57018 0.0
H1391 H 0.49775 0.04929 0.50546 0.0
H1392 H 0.53637 0.99432 0.55833 0.0
H1393 H 0.57461 0.97583 0.57811 0.0
H1394 H 0.60622 0.94566 0.51947 0.0
H1395 H 0.56835 0.96432 0.49926 0.0
C1396 C 0.4233 0.95704 0.47257 0.0
C1397 C 0.43222 0.94098 0.45616 0.0
C1398 C 0.44162 0.97188 0.48399 0.0
C1399 C 0.46939 0.97126 0.47925 0.0
C1400 C 0.47856 0.95495 0.46314 0.0
C1401 C 0.46013 0.94005 0.45162 0.0
C1402 C 0.48848 0.98814 0.4909 0.0
C1403 C 0.51031 0.97778 0.50227 0.0
C1404 C 0.48415 0.01432 0.49188 0.0
C1405 C 0.46303 0.02671 0.47873 0.0
C1406 C 0.46218 0.02311 0.45638 0.0
C1407 C 0.44215 0.03464 0.44405 0.0
C1408 C 0.42295 0.04997 0.45386 0.0
C1409 C 0.42379 0.05385 0.47602 0.0
C1410 C 0.44376 0.04234 0.48843 0.0
C1411 C 0.58481 0.05537 0.53354 0.0
C1412 C 0.57488 0.06967 0.55072 0.0
C1413 C 0.56794 0.03854 0.5227 0.0
C1414 C 0.54068 0.03586 0.52869 0.0
C1415 C 0.53075 0.04989 0.54602 0.0
C1416 C 0.5478 0.06646 0.55711 0.0
C1417 C 0.52249 0.01884 0.51646 0.0
C1418 C 0.50092 0.02923 0.50491 0.0
C1419 C 0.52732 0.99281 0.51508 0.0
C1420 C 0.54963 0.98088 0.52726 0.0
C1421 C 0.55154 0.98385 0.54963 0.0
C1422 C 0.57314 0.97333 0.56092 0.0
C1423 C 0.59286 0.95962 0.55005 0.0
C1424 C 0.59093 0.9563 0.52786 0.0
C1425 C 0.56938 0.96681 0.51649 0.0
H1426 H 0.60961 0.95156 0.55881 0.0
H1427 H 0.40746 0.05889 0.44429 0.0
H1428 H 0.45614 0.06972 0.92885 0.0
H1429 H 0.48559 0.04154 0.94906 0.0
H1430 H 0.42887 0.04199 0.00171 0.0
H1431 H 0.39972 0.07054 0.98171 0.0
H1432 H 0.4778 0.04681 0.01677 0.0
H1433 H 0.4356 0.99124 0.96605 0.0
H1434 H 0.42206 0.97666 0.93007 0.0
H1435 H 0.5056 0.97198 0.91145 0.0
H1436 H 0.51962 0.98688 0.94723 0.0
H1437 H 0.53355 0.94257 0.07331 0.0
H1438 H 0.50405 0.97142 0.05375 0.0
H1439 H 0.5613 0.97352 0.00151 0.0
H1440 H 0.59066 0.94473 0.02089 0.0
H1441 H 0.51183 0.96717 0.98642 0.0
H1442 H 0.55404 0.02279 0.03695 0.0
H1443 H 0.56775 0.03744 0.07286 0.0
H1444 H 0.48432 0.04195 0.09179 0.0
H1445 H 0.47012 0.02697 0.05607 0.0
C1446 C 0.44983 0.06357 0.94462 0.0
C1447 C 0.42558 0.07233 0.95367 0.0
C1448 C 0.46668 0.04746 0.95619 0.0
C1449 C 0.45936 0.03936 0.97688 0.0
C1450 C 0.43505 0.04799 0.98584 0.0
C1451 C 0.41839 0.06431 0.97439 0.0
C1452 C 0.47717 0.02225 0.98936 0.0
C1453 C 0.48491 0.02922 0.01022 0.0
C1454 C 0.48704 0.99955 0.98072 0.0
C1455 C 0.47864 0.99037 0.95926 0.0
C1456 C 0.45107 0.98725 0.95424 0.0
C1457 C 0.44332 0.97892 0.93388 0.0
C1458 C 0.46296 0.97345 0.91847 0.0
C1459 C 0.49041 0.97624 0.9234 0.0
C1460 C 0.49827 0.98461 0.94372 0.0
C1461 C 0.53998 0.94943 0.05778 0.0
C1462 C 0.5644 0.94122 0.04862 0.0
C1463 C 0.52309 0.96591 0.04659 0.0
C1464 C 0.53048 0.97474 0.02614 0.0
C1465 C 0.55504 0.96685 0.01716 0.0
C1466 C 0.57181 0.95033 0.02826 0.0
C1467 C 0.51244 0.99174 0.0138 0.0
C1468 C 0.50466 0.98474 0.99297 0.0
C1469 C 0.50254 0.0144 0.02247 0.0
C1470 C 0.51103 0.02354 0.04391 0.0
C1471 C 0.53863 0.02673 0.04882 0.0
C1472 C 0.54648 0.03512 0.06913 0.0
C1473 C 0.52692 0.04057 0.08461 0.0
C1474 C 0.49945 0.03769 0.07979 0.0
C1475 C 0.49148 0.02927 0.05951 0.0
H1476 H 0.53304 0.04706 0.10033 0.0
H1477 H 0.45691 0.967 0.90272 0.0
H1478 H 0.93456 0.05711 0.06967 0.0
H1479 H 0.95996 0.02475 0.05049 0.0
H1480 H 0.9537 0.06752 0.99202 0.0
H1481 H 0.92807 0.09969 0.0111 0.0
H1482 H 0.94841 0.01722 0.98469 0.0
H1483 H 0.00889 0.07289 0.02228 0.0
H1484 H 0.02649 0.09498 0.05411 0.0
H1485 H 0.04335 0.02465 0.08452 0.0
H1486 H 0.02541 1.00213 0.05298 0.0
H1487 H 0.05615 0.96533 0.92547 0.0
H1488 H 0.03059 0.99693 0.94549 0.0
H1489 H 0.03651 0.9519 0.00272 0.0
H1490 H 0.06209 0.92041 0.98276 0.0
H1491 H 0.04187 1.0027 0.01114 0.0
H1492 H 0.98179 0.94696 0.97391 0.0
H1493 H 0.96405 0.92447 0.94235 0.0
H1494 H 0.94622 0.99441 0.91163 0.0
H1495 H 0.96431 0.01733 0.9429 0.0
C1496 C 0.93788 0.05919 0.0526 0.0
C1497 C 0.92941 0.0809 0.04182 0.0
C1498 C 0.95265 0.04086 0.04172 0.0
C1499 C 0.9591 0.04398 0.01992 0.0
C1500 C 0.94905 0.06481 0.00885 0.0
C1501 C 0.93446 0.08315 0.01973 0.0
C1502 C 0.97782 0.02655 0.00893 0.0
C1503 C 0.96892 0.01424 0.99035 0.0
C1504 C 0.00446 0.02236 0.01652 0.0
C1505 C 0.01552 0.03584 0.03539 0.0
C1506 C 0.01615 0.06214 0.03583 0.0
C1507 C 0.02621 0.07474 0.0538 0.0
C1508 C 0.03595 0.06123 0.07136 0.0
C1509 C 0.03574 0.03509 0.07093 0.0
C1510 C 0.02564 0.0224 0.05301 0.0
C1511 C 0.05265 0.96258 0.94245 0.0
C1512 C 0.06095 0.94044 0.9526 0.0
C1513 C 0.03786 0.98048 0.95382 0.0
C1514 C 0.03133 0.97653 0.9755 0.0
C1515 C 0.04124 0.95526 0.986 0.0
C1516 C 0.05577 0.93729 0.9746 0.0
C1517 C 0.01249 0.99351 0.98685 0.0
C1518 C 0.02136 1.00569 0.00549 0.0
C1519 C 0.9858 0.99754 0.97936 0.0
C1520 C 0.9747 0.98385 0.96062 0.0
C1521 C 0.97431 0.95754 0.96034 0.0
C1522 C 0.96416 0.94472 0.94253 0.0
C1523 C 0.95409 0.958 0.92496 0.0
C1524 C 0.95408 0.98414 0.92522 0.0
C1525 C 0.96427 0.99707 0.94299 0.0
H1526 H 0.94625 0.94803 0.91118 0.0
H1527 H 0.04372 0.07102 0.08526 0.0
H1528 H 0.5288 0.5937 0.43825 0.0
H1529 H 0.49614 0.56758 0.45722 0.0
H1530 H 0.55805 0.54569 0.50217 0.0
H1531 H 0.59118 0.57047 0.48267 0.0
H1532 H 0.53141 0.50649 0.49068 0.0
H1533 H 0.50574 0.58832 0.51462 0.0
H1534 H 0.49187 0.63232 0.51046 0.0
H1535 H 0.42006 0.60889 0.47705 0.0
H1536 H 0.43372 0.56475 0.48075 0.0
H1537 H 0.4531 0.45452 0.57295 0.0
H1538 H 0.47788 0.48811 0.55448 0.0
H1539 H 0.42054 0.48496 0.50237 0.0
H1540 H 0.39608 0.45085 0.52083 0.0
H1541 H 0.44213 0.5367 0.5162 0.0
H1542 H 0.46913 0.45425 0.49299 0.0
H1543 H 0.48306 0.41064 0.4993 0.0
H1544 H 0.55339 0.43635 0.53342 0.0
H1545 H 0.53953 0.48015 0.5277 0.0
C1546 C 0.53566 0.58329 0.45208 0.0
C1547 C 0.56292 0.58434 0.45876 0.0
C1548 C 0.51675 0.56853 0.46311 0.0
C1549 C 0.52449 0.5548 0.48131 0.0
C1550 C 0.55151 0.5561 0.4882 0.0
C1551 C 0.57047 0.5706 0.47708 0.0
C1552 C 0.50485 0.53832 0.49278 0.0
C1553 C 0.51205 0.51329 0.49643 0.0
C1554 C 0.47921 0.54683 0.4999 0.0
C1555 C 0.47091 0.57329 0.49773 0.0
C1556 C 0.4871 0.59258 0.50623 0.0
C1557 C 0.47926 0.61753 0.50398 0.0
C1558 C 0.45515 0.6234 0.49343 0.0
C1559 C 0.43877 0.60432 0.48518 0.0
C1560 C 0.44654 0.57934 0.48735 0.0
C1561 C 0.44534 0.46174 0.55793 0.0
C1562 C 0.42266 0.45056 0.54831 0.0
C1563 C 0.4595 0.48073 0.54736 0.0
C1564 C 0.45106 0.48888 0.52705 0.0
C1565 C 0.42721 0.47899 0.5181 0.0
C1566 C 0.41324 0.45967 0.5286 0.0
C1567 C 0.46905 0.5053 0.51423 0.0
C1568 C 0.4615 0.5301 0.51032 0.0
C1569 C 0.4945 0.49672 0.50699 0.0
C1570 C 0.50312 0.47044 0.51014 0.0
C1571 C 0.48742 0.45059 0.50202 0.0
C1572 C 0.49532 0.42584 0.50547 0.0
C1573 C 0.51905 0.42072 0.51682 0.0
C1574 C 0.53498 0.44034 0.52468 0.0
C1575 C 0.52711 0.46514 0.52134 0.0
H1576 H 0.52514 0.40154 0.51946 0.0
H1577 H 0.44912 0.64274 0.4917 0.0
H1578 H 0.10278 0.55996 0.5363 0.0
H1579 H 0.07892 0.52654 0.51645 0.0
H1580 H 0.00533 0.54383 0.55059 0.0
H1581 H 0.02913 0.57699 0.57018 0.0
H1582 H 0.01184 0.49337 0.54579 0.0
H1583 H 0.01621 0.56784 0.50174 0.0
H1584 H 0.03967 0.60195 0.48254 0.0
H1585 H 0.08253 0.54817 0.44444 0.0
H1586 H 0.05956 0.51372 0.46365 0.0
H1587 H 0.90437 0.45193 0.48075 0.0
H1588 H 0.93685 0.47642 0.50151 0.0
H1589 H 0.00047 0.45539 0.45776 0.0
H1590 H 0.96791 0.43087 0.4368 0.0
H1591 H 0.00413 0.50375 0.46693 0.0
H1592 H 0.9958 0.42912 0.50825 0.0
H1593 H 0.97165 0.39517 0.52709 0.0
H1594 H 0.9365 0.44855 0.57026 0.0
H1595 H 0.96014 0.48288 0.55146 0.0
C1596 C 0.08168 0.55612 0.53975 0.0
C1597 C 0.06765 0.57089 0.5546 0.0
C1598 C 0.06803 0.53724 0.52838 0.0
C1599 C 0.04024 0.53287 0.53188 0.0
C1600 C 0.02671 0.54683 0.5476 0.0
C1601 C 0.04024 0.56575 0.55874 0.0
C1602 C 0.02457 0.51496 0.51843 0.0
C1603 C 0.01009 0.49566 0.52856 0.0
C1604 C 0.02272 0.51758 0.49588 0.0
C1605 C 0.03646 0.53824 0.48431 0.0
C1606 C 0.03082 0.5633 0.48939 0.0
C1607 C 0.04399 0.58269 0.47849 0.0
C1608 C 0.06266 0.57723 0.46233 0.0
C1609 C 0.06812 0.55237 0.457 0.0
C1610 C 0.05503 0.53291 0.46788 0.0
C1611 C 0.9253 0.45226 0.47565 0.0
C1612 C 0.9335 0.43927 0.45716 0.0
C1613 C 0.94391 0.4663 0.48755 0.0
C1614 C 0.97127 0.46745 0.48144 0.0
C1615 C 0.9795 0.45475 0.46284 0.0
C1616 C 0.96082 0.44078 0.45083 0.0
C1617 C 0.99103 0.4823 0.49432 0.0
C1618 C 0.00622 0.50109 0.4841 0.0
C1619 C 0.99357 0.47917 0.5168 0.0
C1620 C 0.97959 0.45858 0.52835 0.0
C1621 C 0.9828 0.43363 0.52168 0.0
C1622 C 0.96921 0.41432 0.53236 0.0
C1623 C 0.95251 0.4197 0.54984 0.0
C1624 C 0.94943 0.44441 0.55671 0.0
C1625 C 0.96294 0.4638 0.54607 0.0
H1626 H 0.94199 0.40472 0.55808 0.0
H1627 H 0.07283 0.59227 0.4539 0.0
H1628 H 0.06034 0.41159 0.01579 0.0
H1629 H 0.0337 0.44345 0.99787 0.0
H1630 H 0.05281 0.49582 0.04838 0.0
H1631 H 0.07807 0.46315 0.06725 0.0
H1632 H 0.00134 0.49737 0.04065 0.0
H1633 H 0.07949 0.4996 0.99483 0.0
H1634 H 0.11499 0.48161 0.97177 0.0
H1635 H 0.05428 0.45326 0.92876 0.0
H1636 H 0.01839 0.47078 0.95173 0.0
H1637 H 0.94991 0.60384 0.98707 0.0
H1638 H 0.97583 0.57166 0.0054 0.0
H1639 H 0.95461 0.51868 0.9559 0.0
H1640 H 0.92963 0.55146 0.93684 0.0
H1641 H 0.00693 0.51739 0.96309 0.0
H1642 H 0.92885 0.51548 0.00878 0.0
H1643 H 0.89335 0.53328 0.03195 0.0
H1644 H 0.95403 0.56113 0.07521 0.0
H1645 H 0.98993 0.54381 0.05215 0.0
C1646 C 0.05912 0.42995 0.02302 0.0
C1647 C 0.07118 0.43469 0.04306 0.0
C1648 C 0.04405 0.44831 0.01261 0.0
C1649 C 0.04136 0.47223 0.02159 0.0
C1650 C 0.05456 0.4775 0.04109 0.0
C1651 C 0.06934 0.45891 0.05175 0.0
C1652 C 0.0233 0.49102 0.0113 0.0
C1653 C 0.00291 0.50208 0.02376 0.0
C1654 C 0.02464 0.49657 0.98909 0.0
C1655 C 0.04624 0.48638 0.97509 0.0
C1656 C 0.0737 0.48942 0.98052 0.0
C1657 C 0.0939 0.47931 0.96745 0.0
C1658 C 0.08689 0.46627 0.94883 0.0
C1659 C 0.05968 0.46337 0.9432 0.0
C1660 C 0.03941 0.47341 0.95621 0.0
C1661 C 0.95047 0.58525 0.98021 0.0
C1662 C 0.93784 0.58027 0.96043 0.0
C1663 C 0.96514 0.56676 0.99081 0.0
C1664 C 0.96709 0.54261 0.98217 0.0
C1665 C 0.9534 0.53718 0.96291 0.0
C1666 C 0.93884 0.55583 0.95215 0.0
C1667 C 0.98503 0.52376 0.99245 0.0
C1668 C 0.0054 0.51269 0.97998 0.0
C1669 C 0.98369 0.51823 0.01465 0.0
C1670 C 0.96209 0.52849 0.02864 0.0
C1671 C 0.93463 0.52554 0.02316 0.0
C1672 C 0.91444 0.53553 0.03629 0.0
C1673 C 0.92143 0.54837 0.05502 0.0
C1674 C 0.94864 0.55119 0.06069 0.0
C1675 C 0.96892 0.54126 0.04761 0.0
H1676 H 0.90576 0.55609 0.06515 0.0
H1677 H 0.10255 0.45843 0.93875 0.0
H1678 H 0.51825 0.42111 0.94401 0.0
H1679 H 0.49393 0.45321 0.96393 0.0
H1680 H 0.56984 0.48378 0.98626 0.0
H1681 H 0.59443 0.45119 0.96616 0.0
H1682 H 0.53202 0.47603 0.01907 0.0
H1683 H 0.53464 0.51523 0.95016 0.0
H1684 H 0.52885 0.5182 0.91098 0.0
H1685 H 0.44357 0.50439 0.91774 0.0
H1686 H 0.4489 0.50093 0.95697 0.0
H1687 H 0.48099 0.58848 0.06149 0.0
H1688 H 0.5044 0.55577 0.04164 0.0
H1689 H 0.42771 0.52776 0.01846 0.0
H1690 H 0.40409 0.56111 0.03843 0.0
H1691 H 0.46537 0.53373 0.98617 0.0
H1692 H 0.46229 0.49491 0.05489 0.0
H1693 H 0.46762 0.49227 0.09413 0.0
H1694 H 0.55312 0.50517 0.08784 0.0
H1695 H 0.54825 0.50829 0.04855 0.0
C1696 C 0.52976 0.43475 0.95309 0.0
C1697 C 0.55819 0.43361 0.95377 0.0
C1698 C 0.51586 0.45317 0.96434 0.0
C1699 C 0.53005 0.47092 0.97653 0.0
C1700 C 0.55853 0.47022 0.97692 0.0
C1701 C 0.57254 0.45181 0.9654 0.0
C1702 C 0.5148 0.48937 0.98949 0.0
C1703 C 0.51778 0.48896 0.01187 0.0
C1704 C 0.49551 0.50556 0.98011 0.0
C1705 C 0.49222 0.50758 0.95651 0.0
C1706 C 0.51469 0.51259 0.94329 0.0
C1707 C 0.51148 0.51441 0.92107 0.0
C1708 C 0.48587 0.51143 0.91187 0.0
C1709 C 0.4634 0.50667 0.92489 0.0
C1710 C 0.4665 0.50479 0.94712 0.0
C1711 C 0.46913 0.57522 0.05226 0.0
C1712 C 0.44082 0.57731 0.05125 0.0
C1713 C 0.48249 0.55646 0.04105 0.0
C1714 C 0.46782 0.53924 0.02866 0.0
C1715 C 0.43939 0.54088 0.02798 0.0
C1716 C 0.42592 0.55971 0.03941 0.0
C1717 C 0.48262 0.52044 0.01574 0.0
C1718 C 0.47956 0.52077 0.99338 0.0
C1719 C 0.50177 0.50412 0.02514 0.0
C1720 C 0.50486 0.50203 0.04877 0.0
C1721 C 0.4822 0.49737 0.06188 0.0
C1722 C 0.48515 0.49576 0.08413 0.0
C1723 C 0.51069 0.4986 0.09348 0.0
C1724 C 0.53335 0.50299 0.08058 0.0
C1725 C 0.53051 0.50466 0.05831 0.0
H1726 H 0.51292 0.49734 0.11072 0.0
H1727 H 0.48343 0.51286 0.89466 0.0
H1728 H 0.13591 0.0572 0.40984 0.0
H1729 H 0.1691 0.02504 0.4163 0.0
H1730 H 0.23346 0.07817 0.4045 0.0
H1731 H 0.19946 0.11087 0.39711 0.0
H1732 H 0.2421 0.03746 0.38238 0.0
H1733 H 0.22226 0.0508 0.45605 0.0
H1734 H 0.19304 0.0577 0.48755 0.0
H1735 H 0.1559 0.98575 0.4782 0.0
H1736 H 0.18476 0.97848 0.44654 0.0
H1737 H 0.32364 0.93217 0.4328 0.0
H1738 H 0.28996 0.96448 0.43923 0.0
H1739 H 0.2537 0.94874 0.37776 0.0
H1740 H 0.288 0.91672 0.37109 0.0
H1741 H 0.23681 0.97429 0.44066 0.0
H1742 H 0.24429 1.00284 0.35134 0.0
H1743 H 0.27541 0.99685 0.32082 0.0
H1744 H 0.34218 0.98855 0.36434 0.0
H1745 H 0.31156 0.99495 0.39508 0.0
C1746 C 0.15714 0.06235 0.40912 0.0
C1747 C 0.16508 0.08662 0.40301 0.0
C1748 C 0.1762 0.04384 0.41298 0.0
C1749 C 0.20393 0.04907 0.41122 0.0
C1750 C 0.21215 0.07369 0.4061 0.0
C1751 C 0.19281 0.09244 0.40211 0.0
C1752 C 0.22357 0.02799 0.41262 0.0
C1753 C 0.24111 0.02385 0.39527 0.0
C1754 C 0.22259 0.01016 0.4295 0.0
C1755 C 0.20567 0.01413 0.44888 0.0
C1756 C 0.20783 0.03647 0.46069 0.0
C1757 C 0.19134 0.04044 0.47858 0.0
C1758 C 0.17263 0.02218 0.48487 0.0
C1759 C 0.17045 0.99985 0.47334 0.0
C1760 C 0.18694 0.99576 0.45546 0.0
C1761 C 0.30754 0.93448 0.42122 0.0
C1762 C 0.30811 0.92148 0.40163 0.0
C1763 C 0.28844 0.95328 0.4248 0.0
C1764 C 0.26971 0.95952 0.40875 0.0
C1765 C 0.26827 0.94456 0.39023 0.0
C1766 C 0.28754 0.9259 0.38658 0.0
C1767 C 0.25447 0.98348 0.41009 0.0
C1768 C 0.23792 0.98809 0.42793 0.0
C1769 C 0.25678 1.00204 0.39392 0.0
C1770 C 0.27557 0.99919 0.3755 0.0
C1771 C 0.26564 0.99994 0.35438 0.0
C1772 C 0.28319 0.99644 0.33705 0.0
C1773 C 0.31074 0.99226 0.34064 0.0
C1774 C 0.32083 0.99174 0.36157 0.0
C1775 C 0.30339 0.99533 0.37895 0.0
H1776 H 0.32427 0.98946 0.32721 0.0
H1777 H 0.15982 0.02532 0.49869 0.0
H1778 H 0.80878 0.11195 0.08902 0.0
H1779 H 0.7728 0.08099 0.08138 0.0
H1780 H 0.81988 0.02379 0.11262 0.0
H1781 H 0.85513 0.05391 0.12029 0.0
H1782 H 0.80021 1.00739 0.07467 0.0
H1783 H 0.76798 0.05047 0.13807 0.0
H1784 H 0.7532 0.08724 0.15882 0.0
H1785 H 0.68976 0.10075 0.1132 0.0
H1786 H 0.70443 0.06422 0.09202 0.0
H1787 H 0.70798 0.91109 0.10985 0.0
H1788 H 0.74316 0.94309 0.10364 0.0
H1789 H 0.68398 0.99055 0.07325 0.0
H1790 H 0.64912 0.95897 0.07961 0.0
H1791 H 0.70795 0.0143 0.10532 0.0
H1792 H 0.73659 0.96695 0.04475 0.0
H1793 H 0.75141 0.92976 0.02463 0.0
H1794 H 0.82157 0.92368 0.06495 0.0
H1795 H 0.80694 0.96062 0.08555 0.0
C1796 C 0.81127 0.0928 0.09431 0.0
C1797 C 0.83484 0.08549 0.10527 0.0
C1798 C 0.79081 0.07514 0.0899 0.0
C1799 C 0.7938 0.05003 0.09634 0.0
C1800 C 0.81723 0.04293 0.1073 0.0
C1801 C 0.83736 0.06038 0.11178 0.0
C1802 C 0.77267 0.03077 0.09232 0.0
C1803 C 0.78001 0.00885 0.08137 0.0
C1804 C 0.7462 0.03287 0.1007 0.0
C1805 C 0.73754 0.05489 0.11331 0.0
C1806 C 0.75106 0.06145 0.13235 0.0
C1807 C 0.74267 0.0822 0.14421 0.0
C1808 C 0.72063 0.09638 0.13728 0.0
C1809 C 0.70688 0.0898 0.11851 0.0
C1810 C 0.71523 0.06908 0.10657 0.0
C1811 C 0.70288 0.92795 0.10111 0.0
C1812 C 0.67599 0.93266 0.09516 0.0
C1813 C 0.72287 0.94628 0.09765 0.0
C1814 C 0.71613 0.96933 0.08809 0.0
C1815 C 0.68964 0.97305 0.08077 0.0
C1816 C 0.66979 0.95494 0.0843 0.0
C1817 C 0.73557 0.99063 0.08792 0.0
C1818 C 0.72794 0.01292 0.0982 0.0
C1819 C 0.76179 0.98878 0.079 0.0
C1820 C 0.77051 0.9664 0.06683 0.0
C1821 C 0.75503 0.95753 0.04947 0.0
C1822 C 0.76343 0.93653 0.03795 0.0
C1823 C 0.78738 0.92432 0.04355 0.0
C1824 C 0.803 0.93313 0.06066 0.0
C1825 C 0.79467 0.9541 0.07225 0.0
H1826 H 0.79386 0.90808 0.03459 0.0
H1827 H 0.71414 0.11243 0.1465 0.0
H1828 H 0.67527 0.08991 0.56408 0.0
H1829 H 0.70815 0.05706 0.5556 0.0
H1830 H 0.7455 0.06763 0.61751 0.0
H1831 H 0.71274 0.10036 0.62586 0.0
H1832 H 0.78281 0.0537 0.58681 0.0
H1833 H 0.69215 0.02848 0.61121 0.0
H1834 H 0.64248 0.02728 0.60705 0.0
H1835 H 0.65104 0.9909 0.54605 0.0
H1836 H 0.70084 0.99232 0.54969 0.0
H1837 H 0.82248 0.9492 0.6386 0.0
H1838 H 0.7899 0.98074 0.6274 0.0
H1839 H 0.78845 0.94934 0.56373 0.0
H1840 H 0.82127 0.91724 0.57505 0.0
H1841 H 0.73426 0.97216 0.58421 0.0
H1842 H 0.8253 0.99168 0.56218 0.0
H1843 H 0.87475 0.9916 0.56786 0.0
H1844 H 0.86522 0.03782 0.62363 0.0
H1845 H 0.81567 0.0379 0.61844 0.0
C1846 C 0.69154 0.08619 0.57529 0.0
C1847 C 0.69198 0.09798 0.59541 0.0
C1848 C 0.71004 0.06718 0.57058 0.0
C1849 C 0.72901 0.05962 0.58606 0.0
C1850 C 0.73111 0.07317 0.60529 0.0
C1851 C 0.71257 0.09206 0.61001 0.0
C1852 C 0.74391 0.03564 0.58396 0.0
C1853 C 0.77221 0.03592 0.5859 0.0
C1854 C 0.73013 0.01233 0.58243 0.0
C1855 C 0.70021 0.01075 0.58061 0.0
C1856 C 0.68344 0.02032 0.59687 0.0
C1857 C 0.65527 0.01962 0.5946 0.0
C1858 C 0.64361 0.00909 0.57626 0.0
C1859 C 0.66011 0.99911 0.56021 0.0
C1860 C 0.6883 0.99987 0.56237 0.0
C1861 C 0.81451 0.94844 0.62241 0.0
C1862 C 0.82437 0.93087 0.60767 0.0
C1863 C 0.79591 0.96646 0.61603 0.0
C1864 C 0.78701 0.96749 0.59471 0.0
C1865 C 0.79501 0.94872 0.58029 0.0
C1866 C 0.81365 0.93039 0.58678 0.0
C1867 C 0.77297 0.99042 0.58738 0.0
C1868 C 0.7449 0.98995 0.58405 0.0
C1869 C 0.78691 0.01359 0.58737 0.0
C1870 C 0.81678 0.01473 0.58995 0.0
C1871 C 0.83376 1.0018 0.57567 0.0
C1872 C 0.86179 1.00173 0.57881 0.0
C1873 C 0.87309 0.01463 0.59614 0.0
C1874 C 0.85642 0.02783 0.61023 0.0
C1875 C 0.82836 0.02795 0.60716 0.0
H1876 H 0.89475 0.01438 0.59867 0.0
H1877 H 0.62181 0.00863 0.5745 0.0
H1878 H 0.32241 0.08804 0.93885 0.0
H1879 H 0.28882 0.05498 0.94513 0.0
H1880 H 0.24975 0.07362 0.88542 0.0
H1881 H 0.28346 0.10644 0.87909 0.0
H1882 H 0.23266 0.04494 0.94577 0.0
H1883 H 0.2475 0.02029 0.85597 0.0
H1884 H 0.28139 0.02752 0.82752 0.0
H1885 H 0.34397 0.03437 0.87499 0.0
H1886 H 0.31058 0.0267 0.90367 0.0
H1887 H 0.13252 0.96787 0.90349 0.0
H1888 H 0.16654 0.99862 0.91317 0.0
H1889 H 0.22885 0.94267 0.90749 0.0
H1890 H 0.19419 0.91125 0.89755 0.0
H1891 H 0.24168 0.98481 0.88549 0.0
H1892 H 0.21487 0.96712 0.95639 0.0
H1893 H 0.18358 0.95865 0.98635 0.0
H1894 H 0.1502 0.03233 0.98006 0.0
H1895 H 0.18103 0.04115 0.94985 0.0
C1896 C 0.30555 0.08617 0.92783 0.0
C1897 C 0.30515 0.10008 0.9087 0.0
C1898 C 0.28659 0.06702 0.93127 0.0
C1899 C 0.26719 0.06149 0.9155 0.0
C1900 C 0.26475 0.07743 0.89769 0.0
C1901 C 0.2837 0.09651 0.89426 0.0
C1902 C 0.25252 0.03716 0.91583 0.0
C1903 C 0.23459 0.03176 0.93264 0.0
C1904 C 0.25607 0.0194 0.89919 0.0
C1905 C 0.27646 0.02314 0.88197 0.0
C1906 C 0.26852 0.02316 0.86032 0.0
C1907 C 0.28764 0.02736 0.84415 0.0
C1908 C 0.3148 0.03148 0.84945 0.0
C1909 C 0.32293 0.03125 0.87091 0.0
C1910 C 0.30391 0.02698 0.88712 0.0
C1911 C 0.15341 0.96188 0.90458 0.0
C1912 C 0.16073 0.93715 0.89966 0.0
C1913 C 0.17286 0.97952 0.9103 0.0
C1914 C 0.20026 0.97299 0.91128 0.0
C1915 C 0.20775 0.94808 0.90696 0.0
C1916 C 0.18802 0.93014 0.9014 0.0
C1917 C 0.2207 0.99307 0.91492 0.0
C1918 C 0.2399 0.99775 0.89882 0.0
C1919 C 0.21874 0.00982 0.93249 0.0
C1920 C 0.20023 1.00476 0.95077 0.0
C1921 C 0.20075 0.98148 0.9613 0.0
C1922 C 0.1831 0.97662 0.97835 0.0
C1923 C 0.1649 0.99494 0.98509 0.0
C1924 C 0.16433 0.01817 0.97483 0.0
C1925 C 0.18194 0.02313 0.95776 0.0
H1926 H 0.15124 0.99113 0.99828 0.0
H1927 H 0.32955 0.03481 0.83692 0.0
H1928 H 0.81884 0.42508 0.43429 0.0
H1929 H 0.78745 0.45989 0.44056 0.0
H1930 H 0.76807 0.46123 0.37317 0.0
H1931 H 0.79899 0.42643 0.36699 0.0
H1932 H 0.79711 0.50565 0.39323 0.0
H1933 H 0.71951 0.45012 0.40038 0.0
H1934 H 0.69368 0.41569 0.41708 0.0
H1935 H 0.69565 0.45395 0.47762 0.0
H1936 H 0.72187 0.48846 0.46131 0.0
H1937 H 0.69929 0.59475 0.36634 0.0
H1938 H 0.73225 0.56196 0.37296 0.0
H1939 H 0.71439 0.56496 0.44065 0.0
H1940 H 0.68086 0.59755 0.43384 0.0
H1941 H 0.70773 0.51949 0.42729 0.0
H1942 H 0.77983 0.5773 0.42034 0.0
H1943 H 0.80674 0.61196 0.40513 0.0
H1944 H 0.81778 0.57041 0.34688 0.0
H1945 H 0.7906 0.53563 0.3616 0.0
C1946 C 0.80645 0.43168 0.42114 0.0
C1947 C 0.81085 0.42278 0.40023 0.0
C1948 C 0.78886 0.45183 0.42466 0.0
C1949 C 0.7757 0.46323 0.40727 0.0
C1950 C 0.77802 0.45264 0.38679 0.0
C1951 C 0.79536 0.4325 0.38333 0.0
C1952 C 0.76346 0.48837 0.40946 0.0
C1953 C 0.77748 0.50875 0.40056 0.0
C1954 C 0.73854 0.49246 0.41991 0.0
C1955 C 0.723 0.47166 0.42972 0.0
C1956 C 0.71475 0.45104 0.41731 0.0
C1957 C 0.69995 0.43155 0.42669 0.0
C1958 C 0.69313 0.43258 0.44842 0.0
C1959 C 0.70101 0.45314 0.46081 0.0
C1960 C 0.71583 0.47267 0.45151 0.0
C1961 C 0.70361 0.58951 0.38278 0.0
C1962 C 0.68793 0.59915 0.3996 0.0
C1963 C 0.72234 0.57052 0.38658 0.0
C1964 C 0.72591 0.56084 0.40735 0.0
C1965 C 0.71203 0.57207 0.42449 0.0
C1966 C 0.69319 0.59111 0.42064 0.0
C1967 C 0.74097 0.53696 0.41038 0.0
C1968 C 0.7276 0.51671 0.42029 0.0
C1969 C 0.76674 0.53301 0.40107 0.0
C1970 C 0.78302 0.55391 0.39205 0.0
C1971 C 0.78781 0.57563 0.40422 0.0
C1972 C 0.80315 0.59529 0.3957 0.0
C1973 C 0.81393 0.59341 0.37504 0.0
C1974 C 0.80942 0.57184 0.36288 0.0
C1975 C 0.79408 0.55213 0.37132 0.0
H1976 H 0.8258 0.60865 0.36847 0.0
H1977 H 0.68165 0.41748 0.45565 0.0
H1978 H 0.30095 0.60676 0.11966 0.0
H1979 H 0.26468 0.57536 0.11507 0.0
H1980 H 0.31976 0.5284 0.0797 0.0
H1981 H 0.35536 0.55961 0.08396 0.0
H1982 H 0.27166 0.52361 0.06323 0.0
H1983 H 0.30958 0.52228 0.13482 0.0
H1984 H 0.32102 0.54051 0.17004 0.0
H1985 H 0.23684 0.55455 0.18212 0.0
H1986 H 0.22495 0.53671 0.14683 0.0
H1987 H 0.20252 0.40943 0.12387 0.0
H1988 H 0.23804 0.44164 0.1202 0.0
H1989 H 0.18865 0.48071 0.07407 0.0
H1990 H 0.15384 0.44855 0.07743 0.0
H1991 H 0.23391 0.48941 0.13094 0.0
H1992 H 0.22589 0.51644 0.04127 0.0
H1993 H 0.21746 0.49628 0.0063 0.0
H1994 H 0.24739 0.42663 0.03092 0.0
H1995 H 0.2563 0.44645 0.06594 0.0
C1996 C 0.30482 0.59018 0.11018 0.0
C1997 C 0.33081 0.58568 0.10194 0.0
C1998 C 0.28428 0.57206 0.10784 0.0
C1999 C 0.28959 0.54922 0.09735 0.0
C2000 C 0.31504 0.54574 0.08785 0.0
C2001 C 0.3354 0.56367 0.09023 0.0
C2002 C 0.26987 0.52797 0.09753 0.0
C2003 C 0.26324 0.51629 0.07803 0.0
C2004 C 0.2593 0.5179 0.11685 0.0
C2005 C 0.26642 0.52843 0.13811 0.0
C2006 C 0.29354 0.52941 0.14494 0.0
C2007 C 0.3001 0.53965 0.16491 0.0
C2008 C 0.27968 0.54875 0.17828 0.0
C2009 C 0.25264 0.54755 0.17173 0.0
C2010 C 0.24598 0.53737 0.15175 0.0
C2011 C 0.19995 0.42429 0.11224 0.0
C2012 C 0.1758 0.42616 0.10049 0.0
C2013 C 0.21998 0.44293 0.11041 0.0
C2014 C 0.21615 0.46366 0.09678 0.0
C2015 C 0.19247 0.46479 0.08438 0.0
C2016 C 0.17257 0.44628 0.08622 0.0
C2017 C 0.2357 0.48505 0.09661 0.0
C2018 C 0.24221 0.4968 0.11611 0.0
C2019 C 0.24654 0.49493 0.07732 0.0
C2020 C 0.24152 0.48289 0.05627 0.0
C2021 C 0.23077 0.49685 0.03918 0.0
C2022 C 0.22588 0.48548 0.01936 0.0
C2023 C 0.23181 0.46017 0.01641 0.0
C2024 C 0.24271 0.44621 0.03325 0.0
C2025 C 0.24764 0.45749 0.0531 0.0
H2026 H 0.228 0.4514 1.00105 0.0
H2027 H 0.2848 0.55668 0.19374 0.0
H2028 H 0.29435 0.411 0.62318 0.0
H2029 H 0.26093 0.44418 0.61786 0.0
H2030 H 0.30595 0.47051 0.56287 0.0
H2031 H 0.33797 0.43643 0.56742 0.0
H2032 H 0.26941 0.48962 0.62352 0.0
H2033 H 0.27166 0.50909 0.53168 0.0
H2034 H 0.27285 0.48526 0.4978 0.0
H2035 H 0.23658 0.42197 0.52926 0.0
H2036 H 0.23488 0.44551 0.56323 0.0
H2037 H 0.21188 0.60801 0.61672 0.0
H2038 H 0.24588 0.5759 0.60861 0.0
H2039 H 0.18635 0.53525 0.57156 0.0
H2040 H 0.15357 0.56793 0.57832 0.0
H2041 H 0.23065 0.52357 0.55622 0.0
H2042 H 0.19743 0.52726 0.62885 0.0
H2043 H 0.18929 0.54728 0.66391 0.0
H2044 H 0.27496 0.55639 0.67306 0.0
H2045 H 0.28356 0.53672 0.6379 0.0
C2046 C 0.29598 0.42291 0.60916 0.0
C2047 C 0.31821 0.42071 0.59531 0.0
C2048 C 0.27725 0.44226 0.60638 0.0
C2049 C 0.2808 0.46011 0.58998 0.0
C2050 C 0.30217 0.45685 0.57536 0.0
C2051 C 0.32048 0.4372 0.57788 0.0
C2052 C 0.26417 0.48342 0.58958 0.0
C2053 C 0.26084 0.49687 0.60876 0.0
C2054 C 0.25278 0.49314 0.57047 0.0
C2055 C 0.2534 0.47899 0.55003 0.0
C2056 C 0.26384 0.49013 0.53133 0.0
C2057 C 0.26463 0.47666 0.51212 0.0
C2058 C 0.25488 0.45209 0.5114 0.0
C2059 C 0.24422 0.44097 0.52986 0.0
C2060 C 0.24338 0.45435 0.5491 0.0
C2061 C 0.20669 0.59293 0.60585 0.0
C2062 C 0.18019 0.5905 0.59802 0.0
C2063 C 0.2259 0.57427 0.60157 0.0
C2064 C 0.21846 0.55253 0.59013 0.0
C2065 C 0.19276 0.55157 0.58056 0.0
C2066 C 0.17392 0.5704 0.58439 0.0
C2067 C 0.23563 0.52954 0.59018 0.0
C2068 C 0.23926 0.51625 0.57094 0.0
C2069 C 0.2462 0.51932 0.60943 0.0
C2070 C 0.24111 0.53079 0.63068 0.0
C2071 C 0.21451 0.53363 0.63832 0.0
C2072 C 0.20982 0.54492 0.65819 0.0
C2073 C 0.2316 0.55316 0.67067 0.0
C2074 C 0.25811 0.55004 0.66335 0.0
C2075 C 0.26291 0.53883 0.64346 0.0
H2076 H 0.22793 0.56191 0.68605 0.0
H2077 H 0.25553 0.44169 0.49652 0.0
H2078 H 0.69969 0.41657 0.88009 0.0
H2079 H 0.73485 0.44846 0.88463 0.0
H2080 H 0.69972 0.4697 0.94531 0.0
H2081 H 0.664 0.4382 0.94027 0.0
H2082 H 0.7063 0.50933 0.92222 0.0
H2083 H 0.76531 0.44209 0.94061 0.0
H2084 H 0.78753 0.40112 0.93671 0.0
H2085 H 0.82177 0.42439 0.87657 0.0
H2086 H 0.79945 0.46538 0.87997 0.0
H2087 H 0.81884 0.59921 0.93445 0.0
H2088 H 0.78419 0.56638 0.94028 0.0
H2089 H 0.79963 0.53735 0.87693 0.0
H2090 H 0.83362 0.56966 0.87113 0.0
H2091 H 0.80455 0.50141 0.90774 0.0
H2092 H 0.74168 0.56609 0.88733 0.0
H2093 H 0.71919 0.60703 0.89041 0.0
H2094 H 0.69255 0.58837 0.95403 0.0
H2095 H 0.71523 0.54743 0.95142 0.0
C2096 C 0.70035 0.4272 0.89488 0.0
C2097 C 0.67978 0.42436 0.91021 0.0
C2098 C 0.72035 0.44561 0.89743 0.0
C2099 C 0.72025 0.46148 0.91545 0.0
C2100 C 0.70041 0.45769 0.93132 0.0
C2101 C 0.68028 0.43941 0.92865 0.0
C2102 C 0.73897 0.4835 0.91653 0.0
C2103 C 0.7279 0.50747 0.91956 0.0
C2104 C 0.76711 0.48137 0.91261 0.0
C2105 C 0.78054 0.45674 0.91049 0.0
C2106 C 0.77742 0.4384 0.92648 0.0
C2107 C 0.79006 0.41518 0.92437 0.0
C2108 C 0.80601 0.41014 0.90638 0.0
C2109 C 0.8094 0.42832 0.89049 0.0
C2110 C 0.79678 0.45156 0.89252 0.0
C2111 C 0.8141 0.58628 0.92161 0.0
C2112 C 0.82891 0.58693 0.90237 0.0
C2113 C 0.79452 0.56742 0.92498 0.0
C2114 C 0.7896 0.54916 0.90912 0.0
C2115 C 0.80327 0.55096 0.8895 0.0
C2116 C 0.8226 0.56958 0.88617 0.0
C2117 C 0.77175 0.52708 0.91298 0.0
C2118 C 0.78302 0.50313 0.91085 0.0
C2119 C 0.74387 0.52924 0.91766 0.0
C2120 C 0.73049 0.55389 0.91931 0.0
C2121 C 0.7313 0.57085 0.90207 0.0
C2122 C 0.71845 0.59402 0.90371 0.0
C2123 C 0.70455 0.60034 0.92244 0.0
C2124 C 0.7034 0.58348 0.93956 0.0
C2125 C 0.71624 0.56029 0.93801 0.0
H2126 H 0.69459 0.61828 0.92367 0.0
H2127 H 0.81578 0.39215 0.90478 0.0
H2128 H 0.09329 0.19207 0.43271 0.0
H2129 H 0.05676 0.21588 0.44999 0.0
H2130 H 0.04107 0.25378 0.39029 0.0
H2131 H 0.07666 0.23014 0.37294 0.0
H2132 H 0.03966 0.27498 0.44796 0.0
H2133 H 0.97567 0.22801 0.38122 0.0
H2134 H 0.97186 0.1872 0.36293 0.0
H2135 H 0.00753 0.15079 0.41739 0.0
H2136 H 0.01109 0.19127 0.43613 0.0
H2137 H 0.93963 0.35063 0.41083 0.0
H2138 H 0.97583 0.32222 0.4191 0.0
H2139 H 0.91769 0.26633 0.43906 0.0
H2140 H 0.88056 0.29461 0.42895 0.0
H2141 H 0.95319 0.245 0.41623 0.0
H2142 H 0.96244 0.29706 0.47604 0.0
H2143 H 0.96383 0.3363 0.49676 0.0
H2144 H 0.03523 0.35943 0.46271 0.0
H2145 H 0.03406 0.32056 0.44152 0.0
C2146 C 0.08235 0.20581 0.4234 0.0
C2147 C 0.08712 0.20839 0.40123 0.0
C2148 C 0.06165 0.21948 0.43334 0.0
C2149 C 0.04591 0.23605 0.4212 0.0
C2150 C 0.05282 0.24077 0.3998 0.0
C2151 C 0.07332 0.22722 0.38993 0.0
C2152 C 0.02018 0.24631 0.42935 0.0
C2153 C 0.02057 0.26833 0.44147 0.0
C2154 C 0.9953 0.23697 0.42148 0.0
C2155 C 0.9937 0.21268 0.41004 0.0
C2156 C 0.98261 0.21128 0.38931 0.0
C2157 C 0.98046 0.18821 0.37888 0.0
C2158 C 0.98922 0.16642 0.38909 0.0
C2159 C 0.00062 0.16768 0.40956 0.0
C2160 C 0.00277 0.19069 0.42007 0.0
C2161 C 0.93428 0.33219 0.41661 0.0
C2162 C 0.90706 0.32465 0.41856 0.0
C2163 C 0.95521 0.31609 0.42196 0.0
C2164 C 0.9497 0.29223 0.43025 0.0
C2165 C 0.9225 0.28475 0.43286 0.0
C2166 C 0.90131 0.30088 0.4271 0.0
C2167 C 0.97261 0.27472 0.43391 0.0
C2168 C 0.97182 0.25137 0.42368 0.0
C2169 C 0.9969 0.28253 0.44419 0.0
C2170 C 0.99814 0.30581 0.45718 0.0
C2171 C 0.9784 0.31053 0.47292 0.0
C2172 C 0.97914 0.33274 0.48474 0.0
C2173 C -0.0004 0.35035 0.48106 0.0
C2174 C 0.01942 0.34575 0.46558 0.0
C2175 C 0.01877 0.32359 0.45369 0.0
H2176 H 0.0001 0.36756 0.4902 0.0
H2177 H 0.98705 0.14853 0.38116 0.0
H2178 H 0.40958 0.82715 0.45011 0.0
H2179 H 0.44688 0.79712 0.45293 0.0
H2180 H 0.44764 0.78904 0.38413 0.0
H2181 H 0.41087 0.81924 0.38116 0.0
H2182 H 0.45401 0.74283 0.40813 0.0
H2183 H 0.48969 0.82689 0.4028 0.0
H2184 H 0.49322 0.871 0.41401 0.0
H2185 H 0.52075 0.84804 0.47631 0.0
H2186 H 0.5168 0.80372 0.46558 0.0
H2187 H 0.58085 0.69785 0.38036 0.0
H2188 H 0.54341 0.72708 0.38372 0.0
H2189 H 0.55628 0.73093 0.45204 0.0
H2190 H 0.5938 0.70115 0.44886 0.0
H2191 H 0.54215 0.77794 0.43232 0.0
H2192 H 0.50977 0.69397 0.43707 0.0
H2193 H 0.50561 0.64977 0.42625 0.0
H2194 H 0.47166 0.67209 0.36583 0.0
H2195 H 0.47607 0.71652 0.37615 0.0
C2196 C 0.41726 0.8185 0.43564 0.0
C2197 C 0.40732 0.82554 0.4154 0.0
C2198 C 0.43865 0.8015 0.43727 0.0
C2199 C 0.45007 0.79105 0.41872 0.0
C2200 C 0.43906 0.7969 0.39862 0.0
C2201 C 0.41807 0.81418 0.39696 0.0
C2202 C 0.47474 0.77549 0.41997 0.0
C2203 C 0.47329 0.7505 0.41333 0.0
C2204 C 0.49975 0.78544 0.42716 0.0
C2205 C 0.5026 0.81202 0.4335 0.0
C2206 C 0.49625 0.83125 0.41896 0.0
C2207 C 0.49835 0.85628 0.42521 0.0
C2208 C 0.50711 0.86232 0.44589 0.0
C2209 C 0.51389 0.84333 0.46032 0.0
C2210 C 0.51171 0.81825 0.45417 0.0
C2211 C 0.576 0.70509 0.3961 0.0
C2212 C 0.58998 0.6968 0.4144 0.0
C2213 C 0.5546 0.72184 0.39797 0.0
C2214 C 0.54677 0.73074 0.41817 0.0
C2215 C 0.56197 0.72412 0.43633 0.0
C2216 C 0.58343 0.70718 0.43447 0.0
C2217 C 0.52147 0.74533 0.42025 0.0
C2218 C 0.5228 0.77014 0.42742 0.0
C2219 C 0.49629 0.7352 0.41361 0.0
C2220 C 0.49342 0.70856 0.40733 0.0
C2221 C 0.50161 0.68947 0.4214 0.0
C2222 C 0.49917 0.66438 0.41538 0.0
C2223 C 0.48831 0.65815 0.3954 0.0
C2224 C 0.47999 0.67698 0.38133 0.0
C2225 C 0.48245 0.70211 0.38726 0.0
H2226 H 0.48633 0.6387 0.39083 0.0
H2227 H 0.50871 0.88172 0.45071 0.0
H2228 H 0.5773 0.84302 0.07104 0.0
H2229 H 0.53787 0.81579 0.06763 0.0
H2230 H 0.58289 0.75505 0.09564 0.0
H2231 H 0.62208 0.78285 0.1005 0.0
H2232 H 0.52452 0.77106 0.04959 0.0
H2233 H 0.5585 0.73544 0.12555 0.0
H2234 H 0.57991 0.74698 0.16003 0.0
H2235 H 0.53128 0.81321 0.16298 0.0
H2236 H 0.51056 0.80263 0.12807 0.0
H2237 H 0.41638 0.68534 0.06611 0.0
H2238 H 0.45851 0.70816 0.06094 0.0
H2239 H 0.43968 0.75437 0.11582 0.0
H2240 H 0.39971 0.72833 0.12296 0.0
H2241 H 0.48689 0.74469 0.11983 0.0
H2242 H 0.44027 0.77261 0.05627 0.0
H2243 H 0.41492 0.76798 0.02239 0.0
H2244 H 0.48074 0.72644 0.99518 0.0
H2245 H 0.50634 0.73056 0.02898 0.0
C2246 C 0.57902 0.8237 0.07614 0.0
C2247 C 0.60256 0.81523 0.08655 0.0
C2248 C 0.5564 0.80817 0.0742 0.0
C2249 C 0.55705 0.78369 0.08221 0.0
C2250 C 0.58157 0.77424 0.09027 0.0
C2251 C 0.60415 0.78998 0.09262 0.0
C2252 C 0.53144 0.76908 0.08359 0.0
C2253 C 0.51635 0.7649 0.06487 0.0
C2254 C 0.52034 0.76194 0.10357 0.0
C2255 C 0.53351 0.76857 0.12408 0.0
C2256 C 0.55277 0.75268 0.13342 0.0
C2257 C 0.56482 0.7591 0.15298 0.0
C2258 C 0.55717 0.781 0.16357 0.0
C2259 C 0.53754 0.79654 0.15458 0.0
C2260 C 0.52581 0.79045 0.13485 0.0
C2261 C 0.42149 0.70021 0.07718 0.0
C2262 C 0.4054 0.70455 0.0953 0.0
C2263 C 0.44532 0.7138 0.07389 0.0
C2264 C 0.45259 0.73339 0.08782 0.0
C2265 C 0.43494 0.73923 0.10489 0.0
C2266 C 0.41174 0.72472 0.10877 0.0
C2267 C 0.47941 0.74635 0.08568 0.0
C2268 C 0.49483 0.7504 0.10435 0.0
C2269 C 0.49041 0.75395 0.06561 0.0
C2270 C 0.47512 0.75174 0.04521 0.0
C2271 C 0.44927 0.7624 0.04309 0.0
C2272 C 0.43487 0.75986 0.0239 0.0
C2273 C 0.44619 0.74688 0.00666 0.0
C2274 C 0.47198 0.73647 0.00855 0.0
C2275 C 0.48646 0.73893 0.0277 0.0
H2276 H 0.43499 0.74492 0.99183 0.0
H2277 H 0.5662 0.7858 0.17885 0.0
H2278 H 0.88925 0.23179 0.11675 0.0
H2279 H 0.92921 0.25853 0.11209 0.0
H2280 H 0.95201 0.21492 0.05656 0.0
H2281 H 0.90978 0.19185 0.0591 0.0
H2282 H 0.97498 0.24804 0.11869 0.0
H2283 H 0.00263 0.23585 0.0281 0.0
H2284 H 0.9799 0.23645 0.99288 0.0
H2285 H 0.91573 0.28094 0.01907 0.0
H2286 H 0.93825 0.28094 0.05437 0.0
H2287 H 0.11121 0.28194 0.11729 0.0
H2288 H 0.07103 0.25579 0.11113 0.0
H2289 H 0.04625 0.30595 0.06036 0.0
H2290 H 0.08905 0.32791 0.06347 0.0
H2291 H 0.02324 0.27026 0.05172 0.0
H2292 H 0.02978 0.30713 0.1229 0.0
H2293 H 0.04989 0.31309 0.15888 0.0
H2294 H 0.03773 0.2354 0.17309 0.0
H2295 H 0.01856 0.22862 0.13702 0.0
C2296 C 0.902 0.22917 0.1028 0.0
C2297 C 0.8969 0.20951 0.08849 0.0
C2298 C 0.92527 0.24401 0.10038 0.0
C2299 C 0.94426 0.2388 0.08409 0.0
C2300 C 0.93787 0.22011 0.06901 0.0
C2301 C 0.91393 0.20637 0.07075 0.0
C2302 C 0.97175 0.25076 0.08425 0.0
C2303 C 0.98522 0.25343 0.104 0.0
C2304 C 0.98559 0.25781 0.06524 0.0
C2305 C 0.97207 0.25823 0.04395 0.0
C2306 C 0.98376 0.2459 0.02632 0.0
C2307 C 0.97089 0.2461 0.00635 0.0
C2308 C 0.94636 0.25867 0.00376 0.0
C2309 C 0.93469 0.27115 0.02112 0.0
C2310 C 0.94749 0.27104 0.04112 0.0
C2311 C 0.09772 0.28643 0.10415 0.0
C2312 C 0.10229 0.30776 0.09155 0.0
C2313 C 0.07423 0.272 0.10104 0.0
C2314 C 0.05416 0.2798 0.08637 0.0
C2315 C 0.06056 0.29955 0.07229 0.0
C2316 C 0.08482 0.31268 0.0744 0.0
C2317 C 0.02611 0.26884 0.08626 0.0
C2318 C 0.0127 0.26577 0.06648 0.0
C2319 C 0.01167 0.26307 0.10538 0.0
C2320 C 0.02297 0.26732 0.12716 0.0
C2321 C 0.03148 0.2913 0.13367 0.0
C2322 C 0.04272 0.29483 0.15405 0.0
C2323 C 0.04493 0.27473 0.16825 0.0
C2324 C 0.03602 0.25097 0.16208 0.0
C2325 C 0.02508 0.24723 0.14164 0.0
H2326 H 0.05359 0.27758 0.18402 0.0
H2327 H 0.93641 0.25878 0.98829 0.0
H2328 H 0.93534 0.84536 0.59248 0.0
H2329 H 0.97413 0.81941 0.58596 0.0
H2330 H 0.92109 0.75709 0.57162 0.0
H2331 H 0.88221 0.78223 0.58229 0.0
H2332 H 0.95678 0.73843 0.59074 0.0
H2333 H 0.9651 0.79314 0.53237 0.0
H2334 H 0.9655 0.83311 0.51262 0.0
H2335 H 0.03546 0.85711 0.54808 0.0
H2336 H 0.03522 0.81751 0.56832 0.0
H2337 H 0.09401 0.68488 0.57306 0.0
H2338 H 0.05808 0.70973 0.55607 0.0
H2339 H 0.04621 0.74972 0.61529 0.0
H2340 H 0.08124 0.72513 0.63236 0.0
H2341 H 0.04228 0.77217 0.56029 0.0
H2342 H 0.98126 0.71771 0.62434 0.0
H2343 H 0.97775 0.67483 0.63882 0.0
H2344 H 0.00951 0.64525 0.57998 0.0
H2345 H 0.01253 0.68785 0.565 0.0
C2346 C 0.93185 0.82593 0.58886 0.0
C2347 C 0.90565 0.81565 0.58927 0.0
C2348 C 0.95423 0.81117 0.58412 0.0
C2349 C 0.95097 0.78612 0.57777 0.0
C2350 C 0.92451 0.77623 0.57665 0.0
C2351 C 0.90216 0.79071 0.58264 0.0
C2352 C 0.9752 0.76987 0.57439 0.0
C2353 C 0.97509 0.74581 0.58349 0.0
C2354 C -0.00066 0.77869 0.5644 0.0
C2355 C 0.0001 0.80232 0.55189 0.0
C2356 C 0.98054 0.80696 0.53599 0.0
C2357 C 0.98072 0.82958 0.52473 0.0
C2358 C 0.00048 0.84764 0.5291 0.0
C2359 C 0.02018 0.84309 0.54469 0.0
C2360 C 0.02007 0.82053 0.55603 0.0
C2361 C 0.08396 0.69919 0.58235 0.0
C2362 C 0.08959 0.70212 0.60437 0.0
C2363 C 0.06368 0.71352 0.57255 0.0
C2364 C 0.0492 0.73109 0.58464 0.0
C2365 C 0.05703 0.73603 0.60579 0.0
C2366 C 0.07712 0.72184 0.61553 0.0
C2367 C 0.02336 0.74173 0.57708 0.0
C2368 C 0.02334 0.76477 0.56646 0.0
C2369 C 0.99871 0.73146 0.58444 0.0
C2370 C 0.99738 0.70595 0.59366 0.0
C2371 C 0.98745 0.70203 0.61451 0.0
C2372 C 0.98548 0.67777 0.62277 0.0
C2373 C 0.9933 0.65733 0.61027 0.0
C2374 C 0.00342 0.6611 0.58961 0.0
C2375 C 0.0053 0.68529 0.58126 0.0
H2376 H 0.99141 0.63853 0.61652 0.0
H2377 H 0.00054 0.86517 0.5204 0.0
H2378 H 0.42184 0.33517 0.56166 0.0
H2379 H 0.46323 0.31142 0.55806 0.0
H2380 H 0.43359 0.25845 0.605 0.0
H2381 H 0.39398 0.28505 0.61112 0.0
H2382 H 0.48075 0.2655 0.61448 0.0
H2383 H 0.44249 0.24846 0.54512 0.0
H2384 H 0.42202 0.25833 0.51003 0.0
H2385 H 0.49252 0.30102 0.49263 0.0
H2386 H 0.51326 0.29167 0.52768 0.0
H2387 H 0.57752 0.17341 0.56898 0.0
H2388 H 0.53778 0.19976 0.56432 0.0
H2389 H 0.58014 0.26146 0.5938 0.0
H2390 H 0.61973 0.2347 0.59965 0.0
H2391 H 0.52769 0.24891 0.54562 0.0
H2392 H 0.55382 0.27278 0.62526 0.0
H2393 H 0.57286 0.25611 0.659 0.0
H2394 H 0.52045 0.19206 0.65456 0.0
H2395 H 0.50224 0.2077 0.6202 0.0
C2396 C 0.42446 0.31881 0.57155 0.0
C2397 C 0.40531 0.31263 0.58732 0.0
C2398 C 0.44785 0.30462 0.56898 0.0
C2399 C 0.45184 0.28278 0.58111 0.0
C2400 C 0.43135 0.27531 0.59555 0.0
C2401 C 0.40841 0.29025 0.5988 0.0
C2402 C 0.47815 0.26903 0.57997 0.0
C2403 C 0.49072 0.26192 0.59929 0.0
C2404 C 0.49171 0.26411 0.56029 0.0
C2405 C 0.47934 0.26948 0.5391 0.0
C2406 C 0.45356 0.26004 0.53384 0.0
C2407 C 0.44192 0.26554 0.51396 0.0
C2408 C 0.45594 0.28032 0.49913 0.0
C2409 C 0.48167 0.28958 0.50412 0.0
C2410 C 0.4934 0.28415 0.52398 0.0
C2411 C 0.57862 0.19274 0.57417 0.0
C2412 C 0.60157 0.20184 0.58513 0.0
C2413 C 0.55585 0.20775 0.57147 0.0
C2414 C 0.55574 0.23226 0.57936 0.0
C2415 C 0.57958 0.24228 0.58826 0.0
C2416 C 0.60234 0.22711 0.59128 0.0
C2417 C 0.52992 0.24626 0.57995 0.0
C2418 C 0.51748 0.253 0.56062 0.0
C2419 C 0.51618 0.25043 0.59946 0.0
C2420 C 0.52703 0.2412 0.62009 0.0
C2421 C 0.54668 0.25497 0.63136 0.0
C2422 C 0.55742 0.24563 0.65052 0.0
C2423 C 0.54812 0.22286 0.65878 0.0
C2424 C 0.52801 0.20943 0.64794 0.0
C2425 C 0.51759 0.21844 0.62858 0.0
H2426 H 0.55635 0.21571 0.67365 0.0
H2427 H 0.44688 0.28458 0.48375 0.0
H2428 H 0.43915 0.16501 0.90713 0.0
H2429 H 0.47814 0.1915 0.91348 0.0
H2430 H 0.4255 0.25405 0.9261 0.0
H2431 H 0.38592 0.2277 0.91814 0.0
H2432 H 0.46377 0.26967 0.90317 0.0
H2433 H 0.46297 0.22272 0.96683 0.0
H2434 H 0.46037 0.18554 0.99015 0.0
H2435 H 0.53398 0.15748 0.96271 0.0
H2436 H 0.53679 0.1943 0.93896 0.0
H2437 H 0.59729 0.31664 0.95404 0.0
H2438 H 0.55745 0.28939 0.95706 0.0
H2439 H 0.55757 0.27871 0.88852 0.0
H2440 H 0.59793 0.30504 0.88548 0.0
H2441 H 0.54283 0.24149 0.94579 0.0
H2442 H 0.48936 0.28891 0.87174 0.0
H2443 H 0.48326 0.33072 0.85578 0.0
H2444 H 0.51173 0.365 0.91386 0.0
H2445 H 0.51734 0.32349 0.93039 0.0
C2446 C 0.43567 0.18446 0.911 0.0
C2447 C 0.40928 0.19433 0.91168 0.0
C2448 C 0.45814 0.19954 0.91507 0.0
C2449 C 0.45493 0.22475 0.92066 0.0
C2450 C 0.42857 0.23463 0.92185 0.0
C2451 C 0.40593 0.21955 0.91738 0.0
C2452 C 0.47927 0.2409 0.92389 0.0
C2453 C 0.48102 0.26347 0.9125 0.0
C2454 C 0.50151 0.23339 0.93674 0.0
C2455 C 0.49998 0.2112 0.951 0.0
C2456 C 0.4785 0.20853 0.96565 0.0
C2457 C 0.477 0.18753 0.97896 0.0
C2458 C 0.49697 0.16913 0.97788 0.0
C2459 C 0.51851 0.17174 0.96352 0.0
C2460 C 0.52009 0.19269 0.95014 0.0
C2461 C 0.58954 0.30767 0.93972 0.0
C2462 C 0.60056 0.3133 0.91946 0.0
C2463 C 0.56654 0.29235 0.94144 0.0
C2464 C 0.55411 0.28267 0.92294 0.0
C2465 C 0.56647 0.28649 0.90295 0.0
C2466 C 0.58964 0.30142 0.90126 0.0
C2467 C 0.52763 0.26951 0.92422 0.0
C2468 C 0.52554 0.24758 0.93645 0.0
C2469 C 0.50467 0.27812 0.91283 0.0
C2470 C 0.504 0.303 0.90224 0.0
C2471 C 0.49444 0.30535 0.88108 0.0
C2472 C 0.49085 0.32901 0.872 0.0
C2473 C 0.49675 0.35048 0.88392 0.0
C2474 C 0.50696 0.34834 0.90473 0.0
C2475 C 0.51044 0.32473 0.91393 0.0
H2476 H 0.4936 0.36879 0.87697 0.0
H2477 H 0.49577 0.15288 0.9882 0.0
H2478 H 0.88627 0.73429 0.89122 0.0
H2479 H 0.92542 0.76223 0.89552 0.0
H2480 H 0.95915 0.71103 0.94205 0.0
H2481 H 0.91794 0.68636 0.94065 0.0
H2482 H 0.97943 0.74857 0.95124 0.0
H2483 H 0.96887 0.71402 0.87927 0.0
H2484 H 0.94777 0.70839 0.84363 0.0
H2485 H 0.95402 0.78715 0.83162 0.0
H2486 H 0.97434 0.79353 0.86736 0.0
H2487 H 0.10743 0.7897 0.88087 0.0
H2488 H 0.06777 0.76309 0.88732 0.0
H2489 H 0.04738 0.80815 0.94252 0.0
H2490 H 0.08875 0.83226 0.93759 0.0
H2491 H 0.02071 0.77485 0.8824 0.0
H2492 H 0.0005 0.78428 0.97418 0.0
H2493 H 0.02618 0.78393 0.00811 0.0
H2494 H 0.08951 0.74175 0.97806 0.0
H2495 H 0.06404 0.74153 0.94404 0.0
C2496 C 0.90154 0.72981 0.90308 0.0
C2497 C 0.89983 0.70754 0.91492 0.0
C2498 C 0.92437 0.74538 0.9051 0.0
C2499 C 0.94644 0.73809 0.91805 0.0
C2500 C 0.94309 0.71714 0.93147 0.0
C2501 C 0.9197 0.70257 0.93036 0.0
C2502 C 0.97351 0.75089 0.91697 0.0
C2503 C 0.9884 0.75407 0.93607 0.0
C2504 C 0.98582 0.75813 0.8973 0.0
C2505 C 0.97286 0.75427 0.87609 0.0
C2506 C 0.96553 0.73016 0.86911 0.0
C2507 C 0.95375 0.72682 0.84891 0.0
C2508 C 0.94972 0.74731 0.83541 0.0
C2509 C 0.95716 0.77129 0.84212 0.0
C2510 C 0.9687 0.7748 0.86237 0.0
C2511 C 0.09531 0.79282 0.8951 0.0
C2512 C 0.10087 0.81313 0.90865 0.0
C2513 C 0.07225 0.778 0.89855 0.0
C2514 C 0.05412 0.78358 0.91533 0.0
C2515 C 0.06097 0.80286 0.9297 0.0
C2516 C 0.0845 0.81696 0.92671 0.0
C2517 C 0.02696 0.77119 0.91646 0.0
C2518 C 0.01191 0.7687 0.89746 0.0
C2519 C 0.0151 0.76327 0.93602 0.0
C2520 C 0.03045 0.7631 0.9565 0.0
C2521 C 0.01984 0.77483 0.97483 0.0
C2522 C 0.03438 0.77475 0.99408 0.0
C2523 C 0.05949 0.76289 0.99522 0.0
C2524 C 0.07009 0.751 0.97714 0.0
C2525 C 0.05563 0.751 0.95786 0.0
H2526 H 0.07072 0.76287 0.01013 0.0
H2527 H 0.94095 0.74459 0.81971 0.0
loop_
_geom_bond_atom_site_label_1
_geom_bond_atom_site_label_2
_geom_bond_distance
_geom_bond_site_symmetry_2
_ccdc_geom_bond_type
C0 C1 1.351 . S
C0 N3 1.368 . S
C0 H5 0.931 . S
C1 C0 1.351 . S
C1 N2 1.373 . S
C1 H29 0.930 . S
N2 C1 1.373 . S
N2 C4 1.340 . S
N3 C0 1.368 . S
N3 C4 1.321 . S
N3 Co6 2.135 . S
C4 N2 1.340 . S
C4 N3 1.321 . S
C4 H28 0.930 . S
H5 C0 0.931 . S
Co6 N3 2.135 . S
Co6 N9 2.121 . S
Co6 O14 2.055 . S
Co6 O17 2.039 . S
Co6 N20 2.140 . S
C7 O8 1.227 . S
C7 O17 1.265 . S
O8 C7 1.227 . S
N9 Co6 2.121 . S
N9 C11 1.375 . S
N9 C12 1.313 . S
C10 C11 1.338 . S
C10 N13 1.377 . S
C10 H30 0.930 . S
C11 N9 1.375 . S
C11 C10 1.338 . S
C11 H15 0.931 . S
C12 N9 1.313 . S
C12 N13 1.344 . S
C12 H16 0.930 . S
N13 C10 1.377 . S
N13 C12 1.344 . S
O14 Co6 2.055 . S
O14 C18 1.253 . S
H15 C11 0.931 . S
H16 C12 0.930 . S
O17 Co6 2.039 . S
O17 C7 1.265 . S
C18 O14 1.253 . S
C18 O19 1.227 . S
O19 C18 1.227 . S
N20 Co6 2.140 . S
N20 C23 1.346 . S
N20 C24 1.345 . S
C21 C22 1.387 . S
C21 C25 1.391 . S
C22 C21 1.387 . S
C22 C23 1.369 . S
C22 H31 0.929 . S
C23 N20 1.346 . S
C23 C22 1.369 . S
C23 H26 0.928 . S
C24 N20 1.345 . S
C24 C25 1.371 . S
C24 H27 0.931 . S
C25 C21 1.391 . S
C25 C24 1.371 . S
C25 H32 0.930 . S
H26 C23 0.928 . S
H27 C24 0.931 . S
H28 C4 0.930 . S
H29 C1 0.930 . S
H30 C10 0.930 . S
H31 C22 0.929 . S
H32 C25 0.930 . S
C33 C34 1.351 . S
C33 N36 1.368 . S
C33 H38 0.931 . S
C34 C33 1.351 . S
C34 N35 1.373 . S
C34 H62 0.930 . S
N35 C34 1.373 . S
N35 C37 1.340 . S
N36 C33 1.368 . S
N36 C37 1.321 . S
N36 Co39 2.135 . S
C37 N35 1.340 . S
C37 N36 1.321 . S
C37 H61 0.930 . S
H38 C33 0.931 . S
Co39 N36 2.135 . S
Co39 N42 2.121 . S
Co39 O47 2.055 . S
Co39 O50 2.039 . S
Co39 N53 2.140 . S
C40 O41 1.227 . S
C40 O50 1.265 . S
O41 C40 1.227 . S
N42 Co39 2.121 . S
N42 C44 1.375 . S
N42 C45 1.313 . S
C43 C44 1.338 . S
C43 N46 1.377 . S
C43 H63 0.930 . S
C44 N42 1.375 . S
C44 C43 1.338 . S
C44 H48 0.931 . S
C45 N42 1.313 . S
C45 N46 1.344 . S
C45 H49 0.930 . S
N46 C43 1.377 . S
N46 C45 1.344 . S
O47 Co39 2.055 . S
O47 C51 1.253 . S
H48 C44 0.931 . S
H49 C45 0.930 . S
O50 Co39 2.039 . S
O50 C40 1.265 . S
C51 O47 1.253 . S
C51 O52 1.227 . S
O52 C51 1.227 . S
N53 Co39 2.140 . S
N53 C56 1.346 . S
N53 C57 1.345 . S
C54 C55 1.387 . S
C54 C58 1.391 . S
C55 C54 1.387 . S
C55 C56 1.369 . S
C55 H64 0.929 . S
C56 N53 1.346 . S
C56 C55 1.369 . S
C56 H59 0.928 . S
C57 N53 1.345 . S
C57 C58 1.371 . S
C57 H60 0.931 . S
C58 C54 1.391 . S
C58 C57 1.371 . S
C58 H65 0.930 . S
H59 C56 0.928 . S
H60 C57 0.931 . S
H61 C37 0.930 . S
H62 C34 0.930 . S
H63 C43 0.930 . S
H64 C55 0.929 . S
H65 C58 0.930 . S
C66 C67 1.351 . S
C66 N69 1.368 . S
C66 H71 0.931 . S
C67 C66 1.351 . S
C67 N68 1.373 . S
C67 H95 0.930 . S
N68 C67 1.373 . S
N68 C70 1.340 . S
N69 C66 1.368 . S
N69 C70 1.321 . S
N69 Co72 2.135 . S
C70 N68 1.340 . S
C70 N69 1.321 . S
C70 H94 0.930 . S
H71 C66 0.931 . S
Co72 N69 2.135 . S
Co72 N75 2.121 . S
Co72 O80 2.055 . S
Co72 O83 2.039 . S
Co72 N86 2.140 . S
C73 O74 1.227 . S
C73 O83 1.265 . S
O74 C73 1.227 . S
N75 Co72 2.121 . S
N75 C77 1.375 . S
N75 C78 1.313 . S
C76 C77 1.338 . S
C76 N79 1.377 . S
C76 H96 0.930 . S
C77 N75 1.375 . S
C77 C76 1.338 . S
C77 H81 0.931 . S
C78 N75 1.313 . S
C78 N79 1.344 . S
C78 H82 0.930 . S
N79 C76 1.377 . S
N79 C78 1.344 . S
O80 Co72 2.055 . S
O80 C84 1.253 . S
H81 C77 0.931 . S
H82 C78 0.930 . S
O83 Co72 2.039 . S
O83 C73 1.265 . S
C84 O80 1.253 . S
C84 O85 1.227 . S
O85 C84 1.227 . S
N86 Co72 2.140 . S
N86 C89 1.346 . S
N86 C90 1.345 . S
C87 C88 1.387 . S
C87 C91 1.391 . S
C88 C87 1.387 . S
C88 C89 1.369 . S
C88 H97 0.929 . S
C89 N86 1.346 . S
C89 C88 1.369 . S
C89 H92 0.928 . S
C90 N86 1.345 . S
C90 C91 1.371 . S
C90 H93 0.931 . S
C91 C87 1.391 . S
C91 C90 1.371 . S
C91 H98 0.930 . S
H92 C89 0.928 . S
H93 C90 0.931 . S
H94 C70 0.930 . S
H95 C67 0.930 . S
H96 C76 0.930 . S
H97 C88 0.929 . S
H98 C91 0.930 . S
C99 C100 1.351 . S
C99 N102 1.368 . S
C99 H104 0.931 . S
C100 C99 1.351 . S
C100 N101 1.373 . S
C100 H128 0.930 . S
N101 C100 1.373 . S
N101 C103 1.340 . S
N102 C99 1.368 . S
N102 C103 1.321 . S
N102 Co105 2.135 . S
C103 N101 1.340 . S
C103 N102 1.321 . S
C103 H127 0.930 . S
H104 C99 0.931 . S
Co105 N102 2.135 . S
Co105 N108 2.121 . S
Co105 O113 2.055 . S
Co105 O116 2.039 . S
Co105 N119 2.140 . S
C106 O107 1.227 . S
C106 O116 1.265 . S
O107 C106 1.227 . S
N108 Co105 2.121 . S
N108 C110 1.375 . S
N108 C111 1.313 . S
C109 C110 1.338 . S
C109 N112 1.377 . S
C109 H129 0.930 . S
C110 N108 1.375 . S
C110 C109 1.338 . S
C110 H114 0.931 . S
C111 N108 1.313 . S
C111 N112 1.344 . S
C111 H115 0.930 . S
N112 C109 1.377 . S
N112 C111 1.344 . S
O113 Co105 2.055 . S
O113 C117 1.253 . S
H114 C110 0.931 . S
H115 C111 0.930 . S
O116 Co105 2.039 . S
O116 C106 1.265 . S
C117 O113 1.253 . S
C117 O118 1.227 . S
O118 C117 1.227 . S
N119 Co105 2.140 . S
N119 C122 1.346 . S
N119 C123 1.345 . S
C120 C121 1.387 . S
C120 C124 1.391 . S
C121 C120 1.387 . S
C121 C122 1.369 . S
C121 H130 0.929 . S
C122 N119 1.346 . S
C122 C121 1.369 . S
C122 H125 0.928 . S
C123 N119 1.345 . S
C123 C124 1.371 . S
C123 H126 0.931 . S
C124 C120 1.391 . S
C124 C123 1.371 . S
C124 H131 0.930 . S
H125 C122 0.928 . S
H126 C123 0.931 . S
H127 C103 0.930 . S
H128 C100 0.930 . S
H129 C109 0.930 . S
H130 C121 0.929 . S
H131 C124 0.930 . S
C132 C133 1.351 . S
C132 N135 1.368 . S
C132 H137 0.931 . S
C133 C132 1.351 . S
C133 N134 1.373 . S
C133 H161 0.930 . S
N134 C133 1.373 . S
N134 C136 1.340 . S
N135 C132 1.368 . S
N135 C136 1.321 . S
N135 Co138 2.135 . S
C136 N134 1.340 . S
C136 N135 1.321 . S
C136 H160 0.930 . S
H137 C132 0.931 . S
Co138 N135 2.135 . S
Co138 N141 2.121 . S
Co138 O146 2.055 . S
Co138 O149 2.039 . S
Co138 N152 2.140 . S
C139 O140 1.227 . S
C139 O149 1.265 . S
O140 C139 1.227 . S
N141 Co138 2.121 . S
N141 C143 1.375 . S
N141 C144 1.313 . S
C142 C143 1.338 . S
C142 N145 1.377 . S
C142 H162 0.930 . S
C143 N141 1.375 . S
C143 C142 1.338 . S
C143 H147 0.931 . S
C144 N141 1.313 . S
C144 N145 1.344 . S
C144 H148 0.930 . S
N145 C142 1.377 . S
N145 C144 1.344 . S
O146 Co138 2.055 . S
O146 C150 1.253 . S
H147 C143 0.931 . S
H148 C144 0.930 . S
O149 Co138 2.039 . S
O149 C139 1.265 . S
C150 O146 1.253 . S
C150 O151 1.227 . S
O151 C150 1.227 . S
N152 Co138 2.140 . S
N152 C155 1.346 . S
N152 C156 1.345 . S
C153 C154 1.387 . S
C153 C157 1.391 . S
C154 C153 1.387 . S
C154 C155 1.369 . S
C154 H163 0.929 . S
C155 N152 1.346 . S
C155 C154 1.369 . S
C155 H158 0.928 . S
C156 N152 1.345 . S
C156 C157 1.371 . S
C156 H159 0.931 . S
C157 C153 1.391 . S
C157 C156 1.371 . S
C157 H164 0.930 . S
H158 C155 0.928 . S
H159 C156 0.931 . S
H160 C136 0.930 . S
H161 C133 0.930 . S
H162 C142 0.930 . S
H163 C154 0.929 . S
H164 C157 0.930 . S
C165 C166 1.351 . S
C165 N168 1.368 . S
C165 H170 0.931 . S
C166 C165 1.351 . S
C166 N167 1.373 . S
C166 H194 0.930 . S
N167 C166 1.373 . S
N167 C169 1.340 . S
N168 C165 1.368 . S
N168 C169 1.321 . S
N168 Co171 2.135 . S
C169 N167 1.340 . S
C169 N168 1.321 . S
C169 H193 0.930 . S
H170 C165 0.931 . S
Co171 N168 2.135 . S
Co171 N174 2.121 . S
Co171 O179 2.055 . S
Co171 O182 2.039 . S
Co171 N185 2.140 . S
C172 O173 1.227 . S
C172 O182 1.265 . S
O173 C172 1.227 . S
N174 Co171 2.121 . S
N174 C176 1.375 . S
N174 C177 1.313 . S
C175 C176 1.338 . S
C175 N178 1.377 . S
C175 H195 0.930 . S
C176 N174 1.375 . S
C176 C175 1.338 . S
C176 H180 0.931 . S
C177 N174 1.313 . S
C177 N178 1.344 . S
C177 H181 0.930 . S
N178 C175 1.377 . S
N178 C177 1.344 . S
O179 Co171 2.055 . S
O179 C183 1.253 . S
H180 C176 0.931 . S
H181 C177 0.930 . S
O182 Co171 2.039 . S
O182 C172 1.265 . S
C183 O179 1.253 . S
C183 O184 1.227 . S
O184 C183 1.227 . S
N185 Co171 2.140 . S
N185 C188 1.346 . S
N185 C189 1.345 . S
C186 C187 1.387 . S
C186 C190 1.391 . S
C187 C186 1.387 . S
C187 C188 1.369 . S
C187 H196 0.929 . S
C188 N185 1.346 . S
C188 C187 1.369 . S
C188 H191 0.928 . S
C189 N185 1.345 . S
C189 C190 1.371 . S
C189 H192 0.931 . S
C190 C186 1.391 . S
C190 C189 1.371 . S
C190 H197 0.930 . S
H191 C188 0.928 . S
H192 C189 0.931 . S
H193 C169 0.930 . S
H194 C166 0.930 . S
H195 C175 0.930 . S
H196 C187 0.929 . S
H197 C190 0.930 . S
C198 C199 1.351 . S
C198 N201 1.368 . S
C198 H203 0.931 . S
C199 C198 1.351 . S
C199 N200 1.373 . S
C199 H227 0.930 . S
N200 C199 1.373 . S
N200 C202 1.340 . S
N201 C198 1.368 . S
N201 C202 1.321 . S
N201 Co204 2.135 . S
C202 N200 1.340 . S
C202 N201 1.321 . S
C202 H226 0.930 . S
H203 C198 0.931 . S
Co204 N201 2.135 . S
Co204 N207 2.121 . S
Co204 O212 2.055 . S
Co204 O215 2.039 . S
Co204 N218 2.140 . S
C205 O206 1.227 . S
C205 O215 1.265 . S
O206 C205 1.227 . S
N207 Co204 2.121 . S
N207 C209 1.375 . S
N207 C210 1.313 . S
C208 C209 1.338 . S
C208 N211 1.377 . S
C208 H228 0.930 . S
C209 N207 1.375 . S
C209 C208 1.338 . S
C209 H213 0.931 . S
C210 N207 1.313 . S
C210 N211 1.344 . S
C210 H214 0.930 . S
N211 C208 1.377 . S
N211 C210 1.344 . S
O212 Co204 2.055 . S
O212 C216 1.253 . S
H213 C209 0.931 . S
H214 C210 0.930 . S
O215 Co204 2.039 . S
O215 C205 1.265 . S
C216 O212 1.253 . S
C216 O217 1.227 . S
O217 C216 1.227 . S
N218 Co204 2.140 . S
N218 C221 1.346 . S
N218 C222 1.345 . S
C219 C220 1.387 . S
C219 C223 1.391 . S
C220 C219 1.387 . S
C220 C221 1.369 . S
C220 H229 0.929 . S
C221 N218 1.346 . S
C221 C220 1.369 . S
C221 H224 0.928 . S
C222 N218 1.345 . S
C222 C223 1.371 . S
C222 H225 0.931 . S
C223 C219 1.391 . S
C223 C222 1.371 . S
C223 H230 0.930 . S
H224 C221 0.928 . S
H225 C222 0.931 . S
H226 C202 0.930 . S
H227 C199 0.930 . S
H228 C208 0.930 . S
H229 C220 0.929 . S
H230 C223 0.930 . S
C231 C232 1.351 . S
C231 N234 1.368 . S
C231 H236 0.931 . S
C232 C231 1.351 . S
C232 N233 1.373 . S
C232 H260 0.930 . S
N233 C232 1.373 . S
N233 C235 1.340 . S
N234 C231 1.368 . S
N234 C235 1.321 . S
N234 Co237 2.135 . S
C235 N233 1.340 . S
C235 N234 1.321 . S
C235 H259 0.930 . S
H236 C231 0.931 . S
Co237 N234 2.135 . S
Co237 N240 2.121 . S
Co237 O245 2.055 . S
Co237 O248 2.039 . S
Co237 N251 2.140 . S
C238 O239 1.227 . S
C238 O248 1.265 . S
O239 C238 1.227 . S
N240 Co237 2.121 . S
N240 C242 1.375 . S
N240 C243 1.313 . S
C241 C242 1.338 . S
C241 N244 1.377 . S
C241 H261 0.930 . S
C242 N240 1.375 . S
C242 C241 1.338 . S
C242 H246 0.931 . S
C243 N240 1.313 . S
C243 N244 1.344 . S
C243 H247 0.930 . S
N244 C241 1.377 . S
N244 C243 1.344 . S
O245 Co237 2.055 . S
O245 C249 1.253 . S
H246 C242 0.931 . S
H247 C243 0.930 . S
O248 Co237 2.039 . S
O248 C238 1.265 . S
C249 O245 1.253 . S
C249 O250 1.227 . S
O250 C249 1.227 . S
N251 Co237 2.140 . S
N251 C254 1.346 . S
N251 C255 1.345 . S
C252 C253 1.387 . S
C252 C256 1.391 . S
C253 C252 1.387 . S
C253 C254 1.369 . S
C253 H262 0.929 . S
C254 N251 1.346 . S
C254 C253 1.369 . S
C254 H257 0.928 . S
C255 N251 1.345 . S
C255 C256 1.371 . S
C255 H258 0.931 . S
C256 C252 1.391 . S
C256 C255 1.371 . S
C256 H263 0.930 . S
H257 C254 0.928 . S
H258 C255 0.931 . S
H259 C235 0.930 . S
H260 C232 0.930 . S
H261 C241 0.930 . S
H262 C253 0.929 . S
H263 C256 0.930 . S
C264 C265 1.351 . S
C264 N267 1.368 . S
C264 H269 0.931 . S
C265 C264 1.351 . S
C265 N266 1.373 . S
C265 H293 0.930 . S
N266 C265 1.373 . S
N266 C268 1.340 . S
N267 C264 1.368 . S
N267 C268 1.321 . S
N267 Co270 2.135 . S
C268 N266 1.340 . S
C268 N267 1.321 . S
C268 H292 0.930 . S
H269 C264 0.931 . S
Co270 N267 2.135 . S
Co270 N273 2.121 . S
Co270 O278 2.055 . S
Co270 O281 2.039 . S
Co270 N284 2.140 . S
C271 O272 1.227 . S
C271 O281 1.265 . S
O272 C271 1.227 . S
N273 Co270 2.121 . S
N273 C275 1.375 . S
N273 C276 1.313 . S
C274 C275 1.338 . S
C274 N277 1.377 . S
C274 H294 0.930 . S
C275 N273 1.375 . S
C275 C274 1.338 . S
C275 H279 0.931 . S
C276 N273 1.313 . S
C276 N277 1.344 . S
C276 H280 0.930 . S
N277 C274 1.377 . S
N277 C276 1.344 . S
O278 Co270 2.055 . S
O278 C282 1.253 . S
H279 C275 0.931 . S
H280 C276 0.930 . S
O281 Co270 2.039 . S
O281 C271 1.265 . S
C282 O278 1.253 . S
C282 O283 1.227 . S
O283 C282 1.227 . S
N284 Co270 2.140 . S
N284 C287 1.346 . S
N284 C288 1.345 . S
C285 C286 1.387 . S
C285 C289 1.391 . S
C286 C285 1.387 . S
C286 C287 1.369 . S
C286 H295 0.929 . S
C287 N284 1.346 . S
C287 C286 1.369 . S
C287 H290 0.928 . S
C288 N284 1.345 . S
C288 C289 1.371 . S
C288 H291 0.931 . S
C289 C285 1.391 . S
C289 C288 1.371 . S
C289 H296 0.930 . S
H290 C287 0.928 . S
H291 C288 0.931 . S
H292 C268 0.930 . S
H293 C265 0.930 . S
H294 C274 0.930 . S
H295 C286 0.929 . S
H296 C289 0.930 . S
C297 C298 1.351 . S
C297 N300 1.368 . S
C297 H302 0.931 . S
C298 C297 1.351 . S
C298 N299 1.373 . S
C298 H326 0.930 . S
N299 C298 1.373 . S
N299 C301 1.340 . S
N300 C297 1.368 . S
N300 C301 1.321 . S
N300 Co303 2.135 . S
C301 N299 1.340 . S
C301 N300 1.321 . S
C301 H325 0.930 . S
H302 C297 0.931 . S
Co303 N300 2.135 . S
Co303 N306 2.121 . S
Co303 O311 2.055 . S
Co303 O314 2.039 . S
Co303 N317 2.140 . S
C304 O305 1.227 . S
C304 O314 1.265 . S
O305 C304 1.227 . S
N306 Co303 2.121 . S
N306 C308 1.375 . S
N306 C309 1.313 . S
C307 C308 1.338 . S
C307 N310 1.377 . S
C307 H327 0.930 . S
C308 N306 1.375 . S
C308 C307 1.338 . S
C308 H312 0.931 . S
C309 N306 1.313 . S
C309 N310 1.344 . S
C309 H313 0.930 . S
N310 C307 1.377 . S
N310 C309 1.344 . S
O311 Co303 2.055 . S
O311 C315 1.253 . S
H312 C308 0.931 . S
H313 C309 0.930 . S
O314 Co303 2.039 . S
O314 C304 1.265 . S
C315 O311 1.253 . S
C315 O316 1.227 . S
O316 C315 1.227 . S
N317 Co303 2.140 . S
N317 C320 1.346 . S
N317 C321 1.345 . S
C318 C319 1.387 . S
C318 C322 1.391 . S
C319 C318 1.387 . S
C319 C320 1.369 . S
C319 H328 0.929 . S
C320 N317 1.346 . S
C320 C319 1.369 . S
C320 H323 0.928 . S
C321 N317 1.345 . S
C321 C322 1.371 . S
C321 H324 0.931 . S
C322 C318 1.391 . S
C322 C321 1.371 . S
C322 H329 0.930 . S
H323 C320 0.928 . S
H324 C321 0.931 . S
H325 C301 0.930 . S
H326 C298 0.930 . S
H327 C307 0.930 . S
H328 C319 0.929 . S
H329 C322 0.930 . S
C330 C331 1.351 . S
C330 N333 1.368 . S
C330 H335 0.931 . S
C331 C330 1.351 . S
C331 N332 1.373 . S
C331 H359 0.930 . S
N332 C331 1.373 . S
N332 C334 1.340 . S
N333 C330 1.368 . S
N333 C334 1.321 . S
N333 Co336 2.135 . S
C334 N332 1.340 . S
C334 N333 1.321 . S
C334 H358 0.930 . S
H335 C330 0.931 . S
Co336 N333 2.135 . S
Co336 N339 2.121 . S
Co336 O344 2.055 . S
Co336 O347 2.039 . S
Co336 N350 2.140 . S
C337 O338 1.227 . S
C337 O347 1.265 . S
O338 C337 1.227 . S
N339 Co336 2.121 . S
N339 C341 1.375 . S
N339 C342 1.313 . S
C340 C341 1.338 . S
C340 N343 1.377 . S
C340 H360 0.930 . S
C341 N339 1.375 . S
C341 C340 1.338 . S
C341 H345 0.931 . S
C342 N339 1.313 . S
C342 N343 1.344 . S
C342 H346 0.930 . S
N343 C340 1.377 . S
N343 C342 1.344 . S
O344 Co336 2.055 . S
O344 C348 1.253 . S
H345 C341 0.931 . S
H346 C342 0.930 . S
O347 Co336 2.039 . S
O347 C337 1.265 . S
C348 O344 1.253 . S
C348 O349 1.227 . S
O349 C348 1.227 . S
N350 Co336 2.140 . S
N350 C353 1.346 . S
N350 C354 1.345 . S
C351 C352 1.387 . S
C351 C355 1.391 . S
C352 C351 1.387 . S
C352 C353 1.369 . S
C352 H361 0.929 . S
C353 N350 1.346 . S
C353 C352 1.369 . S
C353 H356 0.928 . S
C354 N350 1.345 . S
C354 C355 1.371 . S
C354 H357 0.931 . S
C355 C351 1.391 . S
C355 C354 1.371 . S
C355 H362 0.930 . S
H356 C353 0.928 . S
H357 C354 0.931 . S
H358 C334 0.930 . S
H359 C331 0.930 . S
H360 C340 0.930 . S
H361 C352 0.929 . S
H362 C355 0.930 . S
C363 C364 1.351 . S
C363 N366 1.368 . S
C363 H368 0.931 . S
C364 C363 1.351 . S
C364 N365 1.373 . S
C364 H392 0.930 . S
N365 C364 1.373 . S
N365 C367 1.340 . S
N366 C363 1.368 . S
N366 C367 1.321 . S
N366 Co369 2.135 . S
C367 N365 1.340 . S
C367 N366 1.321 . S
C367 H391 0.930 . S
H368 C363 0.931 . S
Co369 N366 2.135 . S
Co369 N372 2.121 . S
Co369 O377 2.055 . S
Co369 O380 2.039 . S
Co369 N383 2.140 . S
C370 O371 1.227 . S
C370 O380 1.265 . S
O371 C370 1.227 . S
N372 Co369 2.121 . S
N372 C374 1.375 . S
N372 C375 1.313 . S
C373 C374 1.338 . S
C373 N376 1.377 . S
C373 H393 0.930 . S
C374 N372 1.375 . S
C374 C373 1.338 . S
C374 H378 0.931 . S
C375 N372 1.313 . S
C375 N376 1.344 . S
C375 H379 0.930 . S
N376 C373 1.377 . S
N376 C375 1.344 . S
O377 Co369 2.055 . S
O377 C381 1.253 . S
H378 C374 0.931 . S
H379 C375 0.930 . S
O380 Co369 2.039 . S
O380 C370 1.265 . S
C381 O377 1.253 . S
C381 O382 1.227 . S
O382 C381 1.227 . S
N383 Co369 2.140 . S
N383 C386 1.346 . S
N383 C387 1.345 . S
C384 C385 1.387 . S
C384 C388 1.391 . S
C385 C384 1.387 . S
C385 C386 1.369 . S
C385 H394 0.929 . S
C386 N383 1.346 . S
C386 C385 1.369 . S
C386 H389 0.928 . S
C387 N383 1.345 . S
C387 C388 1.371 . S
C387 H390 0.931 . S
C388 C384 1.391 . S
C388 C387 1.371 . S
C388 H395 0.930 . S
H389 C386 0.928 . S
H390 C387 0.931 . S
H391 C367 0.930 . S
H392 C364 0.930 . S
H393 C373 0.930 . S
H394 C385 0.929 . S
H395 C388 0.930 . S
C396 C397 1.351 . S
C396 N399 1.368 . S
C396 H401 0.931 . S
C397 C396 1.351 . S
C397 N398 1.373 . S
C397 H425 0.930 . S
N398 C397 1.373 . S
N398 C400 1.340 . S
N399 C396 1.368 . S
N399 C400 1.321 . S
N399 Co402 2.135 . S
C400 N398 1.340 . S
C400 N399 1.321 . S
C400 H424 0.930 . S
H401 C396 0.931 . S
Co402 N399 2.135 . S
Co402 N405 2.121 . S
Co402 O410 2.055 . S
Co402 O413 2.039 . S
Co402 N416 2.140 . S
C403 O404 1.227 . S
C403 O413 1.265 . S
O404 C403 1.227 . S
N405 Co402 2.121 . S
N405 C407 1.375 . S
N405 C408 1.313 . S
C406 C407 1.338 . S
C406 N409 1.377 . S
C406 H426 0.930 . S
C407 N405 1.375 . S
C407 C406 1.338 . S
C407 H411 0.931 . S
C408 N405 1.313 . S
C408 N409 1.344 . S
C408 H412 0.930 . S
N409 C406 1.377 . S
N409 C408 1.344 . S
O410 Co402 2.055 . S
O410 C414 1.253 . S
H411 C407 0.931 . S
H412 C408 0.930 . S
O413 Co402 2.039 . S
O413 C403 1.265 . S
C414 O410 1.253 . S
C414 O415 1.227 . S
O415 C414 1.227 . S
N416 Co402 2.140 . S
N416 C419 1.346 . S
N416 C420 1.345 . S
C417 C418 1.387 . S
C417 C421 1.391 . S
C418 C417 1.387 . S
C418 C419 1.369 . S
C418 H427 0.929 . S
C419 N416 1.346 . S
C419 C418 1.369 . S
C419 H422 0.928 . S
C420 N416 1.345 . S
C420 C421 1.371 . S
C420 H423 0.931 . S
C421 C417 1.391 . S
C421 C420 1.371 . S
C421 H428 0.930 . S
H422 C419 0.928 . S
H423 C420 0.931 . S
H424 C400 0.930 . S
H425 C397 0.930 . S
H426 C406 0.930 . S
H427 C418 0.929 . S
H428 C421 0.930 . S
C429 C430 1.351 . S
C429 N432 1.368 . S
C429 H434 0.931 . S
C430 C429 1.351 . S
C430 N431 1.373 . S
C430 H458 0.930 . S
N431 C430 1.373 . S
N431 C433 1.340 . S
N432 C429 1.368 . S
N432 C433 1.321 . S
N432 Co435 2.135 . S
C433 N431 1.340 . S
C433 N432 1.321 . S
C433 H457 0.930 . S
H434 C429 0.931 . S
Co435 N432 2.135 . S
Co435 N438 2.121 . S
Co435 O443 2.055 . S
Co435 O446 2.039 . S
Co435 N449 2.140 . S
C436 O437 1.227 . S
C436 O446 1.265 . S
O437 C436 1.227 . S
N438 Co435 2.121 . S
N438 C440 1.375 . S
N438 C441 1.313 . S
C439 C440 1.338 . S
C439 N442 1.377 . S
C439 H459 0.930 . S
C440 N438 1.375 . S
C440 C439 1.338 . S
C440 H444 0.931 . S
C441 N438 1.313 . S
C441 N442 1.344 . S
C441 H445 0.930 . S
N442 C439 1.377 . S
N442 C441 1.344 . S
O443 Co435 2.055 . S
O443 C447 1.253 . S
H444 C440 0.931 . S
H445 C441 0.930 . S
O446 Co435 2.039 . S
O446 C436 1.265 . S
C447 O443 1.253 . S
C447 O448 1.227 . S
O448 C447 1.227 . S
N449 Co435 2.140 . S
N449 C452 1.346 . S
N449 C453 1.345 . S
C450 C451 1.387 . S
C450 C454 1.391 . S
C451 C450 1.387 . S
C451 C452 1.369 . S
C451 H460 0.929 . S
C452 N449 1.346 . S
C452 C451 1.369 . S
C452 H455 0.928 . S
C453 N449 1.345 . S
C453 C454 1.371 . S
C453 H456 0.931 . S
C454 C450 1.391 . S
C454 C453 1.371 . S
C454 H461 0.930 . S
H455 C452 0.928 . S
H456 C453 0.931 . S
H457 C433 0.930 . S
H458 C430 0.930 . S
H459 C439 0.930 . S
H460 C451 0.929 . S
H461 C454 0.930 . S
C462 C463 1.351 . S
C462 N465 1.368 . S
C462 H467 0.931 . S
C463 C462 1.351 . S
C463 N464 1.373 . S
C463 H491 0.930 . S
N464 C463 1.373 . S
N464 C466 1.340 . S
N465 C462 1.368 . S
N465 C466 1.321 . S
N465 Co468 2.135 . S
C466 N464 1.340 . S
C466 N465 1.321 . S
C466 H490 0.930 . S
H467 C462 0.931 . S
Co468 N465 2.135 . S
Co468 N471 2.121 . S
Co468 O476 2.055 . S
Co468 O479 2.039 . S
Co468 N482 2.140 . S
C469 O470 1.227 . S
C469 O479 1.265 . S
O470 C469 1.227 . S
N471 Co468 2.121 . S
N471 C473 1.375 . S
N471 C474 1.313 . S
C472 C473 1.338 . S
C472 N475 1.377 . S
C472 H492 0.930 . S
C473 N471 1.375 . S
C473 C472 1.338 . S
C473 H477 0.931 . S
C474 N471 1.313 . S
C474 N475 1.344 . S
C474 H478 0.930 . S
N475 C472 1.377 . S
N475 C474 1.344 . S
O476 Co468 2.055 . S
O476 C480 1.253 . S
H477 C473 0.931 . S
H478 C474 0.930 . S
O479 Co468 2.039 . S
O479 C469 1.265 . S
C480 O476 1.253 . S
C480 O481 1.227 . S
O481 C480 1.227 . S
N482 Co468 2.140 . S
N482 C485 1.346 . S
N482 C486 1.345 . S
C483 C484 1.387 . S
C483 C487 1.391 . S
C484 C483 1.387 . S
C484 C485 1.369 . S
C484 H493 0.929 . S
C485 N482 1.346 . S
C485 C484 1.369 . S
C485 H488 0.928 . S
C486 N482 1.345 . S
C486 C487 1.371 . S
C486 H489 0.931 . S
C487 C483 1.391 . S
C487 C486 1.371 . S
C487 H494 0.930 . S
H488 C485 0.928 . S
H489 C486 0.931 . S
H490 C466 0.930 . S
H491 C463 0.930 . S
H492 C472 0.930 . S
H493 C484 0.929 . S
H494 C487 0.930 . S
C495 C496 1.351 . S
C495 N498 1.368 . S
C495 H500 0.931 . S
C496 C495 1.351 . S
C496 N497 1.373 . S
C496 H524 0.930 . S
N497 C496 1.373 . S
N497 C499 1.340 . S
N498 C495 1.368 . S
N498 C499 1.321 . S
N498 Co501 2.135 . S
C499 N497 1.340 . S
C499 N498 1.321 . S
C499 H523 0.930 . S
H500 C495 0.931 . S
Co501 N498 2.135 . S
Co501 N504 2.121 . S
Co501 O509 2.055 . S
Co501 O512 2.039 . S
Co501 N515 2.140 . S
C502 O503 1.227 . S
C502 O512 1.265 . S
O503 C502 1.227 . S
N504 Co501 2.121 . S
N504 C506 1.375 . S
N504 C507 1.313 . S
C505 C506 1.338 . S
C505 N508 1.377 . S
C505 H525 0.930 . S
C506 N504 1.375 . S
C506 C505 1.338 . S
C506 H510 0.931 . S
C507 N504 1.313 . S
C507 N508 1.344 . S
C507 H511 0.930 . S
N508 C505 1.377 . S
N508 C507 1.344 . S
O509 Co501 2.055 . S
O509 C513 1.253 . S
H510 C506 0.931 . S
H511 C507 0.930 . S
O512 Co501 2.039 . S
O512 C502 1.265 . S
C513 O509 1.253 . S
C513 O514 1.227 . S
O514 C513 1.227 . S
N515 Co501 2.140 . S
N515 C518 1.346 . S
N515 C519 1.345 . S
C516 C517 1.387 . S
C516 C520 1.391 . S
C517 C516 1.387 . S
C517 C518 1.369 . S
C517 H526 0.929 . S
C518 N515 1.346 . S
C518 C517 1.369 . S
C518 H521 0.928 . S
C519 N515 1.345 . S
C519 C520 1.371 . S
C519 H522 0.931 . S
C520 C516 1.391 . S
C520 C519 1.371 . S
C520 H527 0.930 . S
H521 C518 0.928 . S
H522 C519 0.931 . S
H523 C499 0.930 . S
H524 C496 0.930 . S
H525 C505 0.930 . S
H526 C517 0.929 . S
H527 C520 0.930 . S
H528 C546 0.951 . S
H529 C548 0.951 1_455 S
H530 C550 0.950 . S
H531 C551 0.950 . S
H532 C553 0.950 . S
H533 C556 0.938 1_655 S
H534 C557 0.950 1_655 S
H535 C559 0.950 . S
H536 C560 0.950 . S
H537 C561 0.951 . S
H538 C563 0.951 1_655 S
H539 C565 0.950 . S
H540 C566 0.950 . S
H541 C568 0.950 . S
H542 C571 0.939 1_455 S
H543 C572 0.950 1_455 S
H544 C574 0.950 . S
H545 C575 0.950 . S
C546 H528 0.951 . S
C546 C547 1.366 . S
C546 C548 1.388 . S
C547 C546 1.366 . S
C547 C551 1.385 . S
C548 H529 0.951 1_655 S
C548 C546 1.388 . S
C548 C549 1.366 . S
C549 C548 1.366 . S
C549 C550 1.414 . S
C549 C552 1.499 . S
C550 H530 0.950 . S
C550 C549 1.414 . S
C550 C551 1.374 . S
C551 H531 0.950 . S
C551 C547 1.385 . S
C551 C550 1.374 . S
C552 C549 1.499 . S
C552 C553 1.373 . S
C552 C554 1.389 1_655 S
C553 H532 0.950 . S
C553 C552 1.373 . S
C553 C569 1.377 . S
C554 C552 1.389 1_455 S
C554 C555 1.524 . S
C554 C568 1.377 . S
C555 C554 1.524 . S
C555 C556 1.405 . S
C555 C560 1.363 . S
C556 H533 0.938 1_455 S
C556 C555 1.405 . S
C556 C557 1.337 . S
C557 H534 0.950 1_455 S
C557 C556 1.337 . S
C557 C558 1.287 . S
C558 C557 1.287 . S
C558 C559 1.524 . S
C558 H577 0.913 . S
C559 H535 0.950 . S
C559 C558 1.524 . S
C559 C560 1.415 . S
C560 H536 0.950 . S
C560 C555 1.363 . S
C560 C559 1.415 . S
C561 H537 0.951 . S
C561 C562 1.366 . S
C561 C563 1.388 . S
C562 C561 1.366 . S
C562 C566 1.385 . S
C563 H538 0.951 1_455 S
C563 C561 1.388 . S
C563 C564 1.366 . S
C564 C563 1.366 . S
C564 C565 1.414 . S
C564 C567 1.499 . S
C565 H539 0.950 . S
C565 C564 1.414 . S
C565 C566 1.374 . S
C566 H540 0.950 . S
C566 C562 1.385 . S
C566 C565 1.374 . S
C567 C564 1.499 . S
C567 C568 1.373 . S
C567 C569 1.389 1_455 S
C568 H541 0.950 . S
C568 C554 1.377 . S
C568 C567 1.373 . S
C569 C553 1.377 . S
C569 C567 1.389 1_655 S
C569 C570 1.524 . S
C570 C569 1.524 . S
C570 C571 1.404 . S
C570 C575 1.363 . S
C571 H542 0.939 1_655 S
C571 C570 1.404 . S
C571 C572 1.337 . S
C572 H543 0.950 1_655 S
C572 C571 1.337 . S
C572 C573 1.287 . S
C573 C572 1.287 . S
C573 C574 1.524 . S
C573 H576 0.999 . S
C574 H544 0.950 . S
C574 C573 1.524 . S
C574 C575 1.415 . S
C575 H545 0.950 . S
C575 C570 1.363 . S
C575 C574 1.415 . S
H576 C573 0.999 . S
H577 C558 0.913 . S
H578 C596 0.951 . S
H579 C598 0.951 . S
H580 C600 0.950 . S
H581 C601 0.950 . S
H582 C603 0.950 . S
H583 C606 0.950 . S
H584 C607 0.950 . S
H585 C609 0.950 . S
H586 C610 0.950 . S
H587 C611 0.951 . S
H588 C613 0.951 . S
H589 C615 0.950 . S
H590 C616 0.950 . S
H591 C618 0.950 . S
H592 C621 0.950 . S
H593 C622 0.950 . S
H594 C624 0.950 . S
H595 C625 0.950 . S
C596 H578 0.951 . S
C596 C597 1.366 . S
C596 C598 1.388 . S
C597 C596 1.366 . S
C597 C601 1.385 . S
C598 H579 0.951 . S
C598 C596 1.388 . S
C598 C599 1.366 . S
C599 C598 1.366 . S
C599 C600 1.414 . S
C599 C602 1.499 . S
C600 H580 0.950 . S
C600 C599 1.414 . S
C600 C601 1.374 . S
C601 H581 0.950 . S
C601 C597 1.385 . S
C601 C600 1.374 . S
C602 C599 1.499 . S
C602 C603 1.373 . S
C602 C604 1.389 . S
C603 H582 0.950 . S
C603 C602 1.373 . S
C603 C619 1.377 . S
C604 C602 1.389 . S
C604 C605 1.524 . S
C604 C618 1.377 . S
C605 C604 1.524 . S
C605 C606 1.397 . S
C605 C610 1.363 . S
C606 H583 0.950 . S
C606 C605 1.397 . S
C606 C607 1.334 . S
C607 H584 0.950 . S
C607 C606 1.334 . S
C607 C608 1.287 . S
C608 C607 1.287 . S
C608 C609 1.524 . S
C608 H627 0.913 . S
C609 H585 0.950 . S
C609 C608 1.524 . S
C609 C610 1.415 . S
C610 H586 0.950 . S
C610 C605 1.363 . S
C610 C609 1.415 . S
C611 H587 0.951 . S
C611 C612 1.366 . S
C611 C613 1.388 . S
C612 C611 1.366 . S
C612 C616 1.385 . S
C613 H588 0.951 . S
C613 C611 1.388 . S
C613 C614 1.366 . S
C614 C613 1.366 . S
C614 C615 1.414 . S
C614 C617 1.499 . S
C615 H589 0.950 . S
C615 C614 1.414 . S
C615 C616 1.374 . S
C616 H590 0.950 . S
C616 C612 1.385 . S
C616 C615 1.374 . S
C617 C614 1.499 . S
C617 C618 1.373 . S
C617 C619 1.389 . S
C618 H591 0.950 . S
C618 C604 1.377 . S
C618 C617 1.373 . S
C619 C603 1.377 . S
C619 C617 1.389 . S
C619 C620 1.524 . S
C620 C619 1.524 . S
C620 C621 1.397 . S
C620 C625 1.363 . S
C621 H592 0.950 . S
C621 C620 1.397 . S
C621 C622 1.334 . S
C622 H593 0.950 . S
C622 C621 1.334 . S
C622 C623 1.287 . S
C623 C622 1.287 . S
C623 C624 1.524 . S
C623 H626 0.999 1_565 S
C624 H594 0.950 . S
C624 C623 1.524 . S
C624 C625 1.415 . S
C625 H595 0.950 . S
C625 C620 1.363 . S
C625 C624 1.415 . S
H626 C623 0.999 1_545 S
H627 C608 0.913 . S
H628 C646 0.951 . S
H629 C648 0.951 . S
H630 C650 0.950 . S
H631 C651 0.950 . S
H632 C653 0.950 . S
H633 C656 0.950 . S
H634 C657 0.950 . S
H635 C659 0.950 . S
H636 C660 0.950 . S
H637 C661 0.951 . S
H638 C663 0.951 . S
H639 C665 0.950 . S
H640 C666 0.950 . S
H641 C668 0.950 . S
H642 C671 0.950 . S
H643 C672 0.950 . S
H644 C674 0.950 . S
H645 C675 0.950 . S
C646 H628 0.951 . S
C646 C647 1.366 . S
C646 C648 1.388 . S
C647 C646 1.366 . S
C647 C651 1.385 . S
C648 H629 0.951 . S
C648 C646 1.388 . S
C648 C649 1.366 . S
C649 C648 1.366 . S
C649 C650 1.414 . S
C649 C652 1.499 . S
C650 H630 0.950 . S
C650 C649 1.414 . S
C650 C651 1.374 . S
C651 H631 0.950 . S
C651 C647 1.385 . S
C651 C650 1.374 . S
C652 C649 1.499 . S
C652 C653 1.373 . S
C652 C654 1.389 1_655 S
C653 H632 0.950 . S
C653 C652 1.373 . S
C653 C669 1.377 . S
C654 C652 1.389 1_455 S
C654 C655 1.524 . S
C654 C668 1.377 . S
C655 C654 1.524 . S
C655 C656 1.397 . S
C655 C660 1.363 . S
C656 H633 0.950 . S
C656 C655 1.397 . S
C656 C657 1.334 . S
C657 H634 0.950 . S
C657 C656 1.334 . S
C657 C658 1.287 . S
C658 C657 1.287 . S
C658 C659 1.524 . S
C658 H677 0.913 . S
C659 H635 0.950 . S
C659 C658 1.524 . S
C659 C660 1.415 . S
C660 H636 0.950 . S
C660 C655 1.363 . S
C660 C659 1.415 . S
C661 H637 0.951 . S
C661 C662 1.366 . S
C661 C663 1.388 . S
C662 C661 1.366 . S
C662 C666 1.385 . S
C663 H638 0.951 . S
C663 C661 1.388 . S
C663 C664 1.366 . S
C664 C663 1.366 . S
C664 C665 1.414 . S
C664 C667 1.499 . S
C665 H639 0.950 . S
C665 C664 1.414 . S
C665 C666 1.374 . S
C666 H640 0.950 . S
C666 C662 1.385 . S
C666 C665 1.374 . S
C667 C664 1.499 . S
C667 C668 1.373 . S
C667 C669 1.389 1_455 S
C668 H641 0.950 . S
C668 C654 1.377 . S
C668 C667 1.373 . S
C669 C653 1.377 . S
C669 C667 1.389 1_655 S
C669 C670 1.524 . S
C670 C669 1.524 . S
C670 C671 1.397 . S
C670 C675 1.363 . S
C671 H642 0.950 . S
C671 C670 1.397 . S
C671 C672 1.334 . S
C672 H643 0.950 . S
C672 C671 1.334 . S
C672 C673 1.287 . S
C673 C672 1.287 . S
C673 C674 1.524 . S
C673 H676 0.999 . S
C674 H644 0.950 . S
C674 C673 1.524 . S
C674 C675 1.415 . S
C675 H645 0.950 . S
C675 C670 1.363 . S
C675 C674 1.415 . S
H676 C673 0.999 . S
H677 C658 0.913 . S
H678 C696 0.951 . S
H679 C698 0.951 . S
H680 C700 0.950 . S
H681 C701 0.950 . S
H682 C703 0.950 . S
H683 C706 0.950 . S
H684 C707 0.950 . S
H685 C709 0.950 . S
H686 C710 0.950 . S
H687 C711 0.951 . S
H688 C713 0.951 . S
H689 C715 0.950 . S
H690 C716 0.950 . S
H691 C718 0.950 . S
H692 C721 0.950 . S
H693 C722 0.950 . S
H694 C724 0.950 . S
H695 C725 0.950 . S
C696 H678 0.951 . S
C696 C697 1.366 . S
C696 C698 1.388 . S
C697 C696 1.366 . S
C697 C701 1.385 . S
C698 H679 0.951 . S
C698 C696 1.388 . S
C698 C699 1.366 . S
C699 C698 1.366 . S
C699 C700 1.414 . S
C699 C702 1.499 . S
C700 H680 0.950 . S
C700 C699 1.414 . S
C700 C701 1.374 . S
C701 H681 0.950 . S
C701 C697 1.385 . S
C701 C700 1.374 . S
C702 C699 1.499 . S
C702 C703 1.373 . S
C702 C704 1.389 . S
C703 H682 0.950 . S
C703 C702 1.373 . S
C703 C719 1.377 . S
C704 C702 1.389 . S
C704 C705 1.524 . S
C704 C718 1.377 . S
C705 C704 1.524 . S
C705 C706 1.397 . S
C705 C710 1.363 . S
C706 H683 0.950 . S
C706 C705 1.397 . S
C706 C707 1.334 . S
C707 H684 0.950 . S
C707 C706 1.334 . S
C707 C708 1.287 . S
C708 C707 1.287 . S
C708 C709 1.524 . S
C708 H727 0.913 . S
C709 H685 0.950 . S
C709 C708 1.524 . S
C709 C710 1.415 . S
C710 H686 0.950 . S
C710 C705 1.363 . S
C710 C709 1.415 . S
C711 H687 0.951 . S
C711 C712 1.366 . S
C711 C713 1.388 . S
C712 C711 1.366 . S
C712 C716 1.385 . S
C713 H688 0.951 . S
C713 C711 1.388 . S
C713 C714 1.366 . S
C714 C713 1.366 . S
C714 C715 1.414 . S
C714 C717 1.499 . S
C715 H689 0.950 . S
C715 C714 1.414 . S
C715 C716 1.374 . S
C716 H690 0.950 . S
C716 C712 1.385 . S
C716 C715 1.374 . S
C717 C714 1.499 . S
C717 C718 1.373 . S
C717 C719 1.389 . S
C718 H691 0.950 . S
C718 C704 1.377 . S
C718 C717 1.373 . S
C719 C703 1.377 . S
C719 C717 1.389 . S
C719 C720 1.524 . S
C720 C719 1.524 . S
C720 C721 1.397 . S
C720 C725 1.363 . S
C721 H692 0.950 . S
C721 C720 1.397 . S
C721 C722 1.334 . S
C722 H693 0.950 . S
C722 C721 1.334 . S
C722 C723 1.287 . S
C723 C722 1.287 . S
C723 C724 1.524 . S
C723 H726 0.999 . S
C724 H694 0.950 . S
C724 C723 1.524 . S
C724 C725 1.415 . S
C725 H695 0.950 . S
C725 C720 1.363 . S
C725 C724 1.415 . S
H726 C723 0.999 . S
H727 C708 0.913 . S
H728 C746 0.951 . S
H729 C748 0.951 . S
H730 C750 0.950 . S
H731 C751 0.950 . S
H732 C753 0.950 . S
H733 C756 0.950 . S
H734 C757 0.950 . S
H735 C759 0.950 . S
H736 C760 0.950 . S
H737 C761 0.951 . S
H738 C763 0.951 . S
H739 C765 0.950 . S
H740 C766 0.950 . S
H741 C768 0.950 . S
H742 C771 0.950 . S
H743 C772 0.950 . S
H744 C774 0.950 . S
H745 C775 0.950 . S
C746 H728 0.951 . S
C746 C747 1.366 . S
C746 C748 1.388 . S
C747 C746 1.366 . S
C747 C751 1.385 . S
C748 H729 0.951 . S
C748 C746 1.388 . S
C748 C749 1.366 . S
C749 C748 1.366 . S
C749 C750 1.414 . S
C749 C752 1.499 . S
C750 H730 0.950 . S
C750 C749 1.414 . S
C750 C751 1.374 . S
C751 H731 0.950 . S
C751 C747 1.385 . S
C751 C750 1.374 . S
C752 C749 1.499 . S
C752 C753 1.373 . S
C752 C754 1.389 . S
C753 H732 0.950 . S
C753 C752 1.373 . S
C753 C769 1.377 . S
C754 C752 1.389 . S
C754 C755 1.524 . S
C754 C768 1.377 . S
C755 C754 1.524 . S
C755 C756 1.397 . S
C755 C760 1.363 . S
C756 H733 0.950 . S
C756 C755 1.397 . S
C756 C757 1.334 . S
C757 H734 0.950 . S
C757 C756 1.334 . S
C757 C758 1.287 . S
C758 C757 1.287 . S
C758 C759 1.524 . S
C758 H777 0.913 . S
C759 H735 0.950 . S
C759 C758 1.524 . S
C759 C760 1.415 . S
C760 H736 0.950 . S
C760 C755 1.363 . S
C760 C759 1.415 . S
C761 H737 0.951 . S
C761 C762 1.366 . S
C761 C763 1.388 . S
C762 C761 1.366 . S
C762 C766 1.385 . S
C763 H738 0.951 . S
C763 C761 1.388 . S
C763 C764 1.366 . S
C764 C763 1.366 . S
C764 C765 1.414 . S
C764 C767 1.499 . S
C765 H739 0.950 . S
C765 C764 1.414 . S
C765 C766 1.374 . S
C766 H740 0.950 . S
C766 C762 1.385 . S
C766 C765 1.374 . S
C767 C764 1.499 . S
C767 C768 1.373 . S
C767 C769 1.389 . S
C768 H741 0.950 . S
C768 C754 1.377 . S
C768 C767 1.373 . S
C769 C753 1.377 . S
C769 C767 1.389 . S
C769 C770 1.524 . S
C770 C769 1.524 . S
C770 C771 1.397 . S
C770 C775 1.363 . S
C771 H742 0.950 . S
C771 C770 1.397 . S
C771 C772 1.334 . S
C772 H743 0.950 . S
C772 C771 1.334 . S
C772 C773 1.287 . S
C773 C772 1.287 . S
C773 C774 1.524 . S
C773 H776 0.999 . S
C774 H744 0.950 . S
C774 C773 1.524 . S
C774 C775 1.415 . S
C775 H745 0.950 . S
C775 C770 1.363 . S
C775 C774 1.415 . S
H776 C773 0.999 . S
H777 C758 0.913 . S
H778 C796 0.951 . S
H779 C798 0.951 1_455 S
H780 C800 0.950 . S
H781 C801 0.950 . S
H782 C803 0.950 . S
H783 C806 0.950 . S
H784 C807 0.950 . S
H785 C809 0.950 . S
H786 C810 0.950 . S
H787 C811 0.951 . S
H788 C813 0.951 1_655 S
H789 C815 0.950 . S
H790 C816 0.950 . S
H791 C818 0.950 . S
H792 C821 0.950 . S
H793 C822 0.950 . S
H794 C824 0.950 . S
H795 C825 0.950 . S
C796 H778 0.951 . S
C796 C797 1.366 . S
C796 C798 1.388 . S
C797 C796 1.366 . S
C797 C801 1.385 . S
C798 H779 0.951 1_655 S
C798 C796 1.388 . S
C798 C799 1.366 . S
C799 C798 1.366 . S
C799 C800 1.414 . S
C799 C802 1.499 . S
C800 H780 0.950 . S
C800 C799 1.414 . S
C800 C801 1.374 . S
C801 H781 0.950 . S
C801 C797 1.385 . S
C801 C800 1.374 . S
C802 C799 1.499 . S
C802 C803 1.373 . S
C802 C804 1.389 1_655 S
C803 H782 0.950 . S
C803 C802 1.373 . S
C803 C819 1.377 . S
C804 C802 1.389 1_455 S
C804 C805 1.524 . S
C804 C818 1.377 . S
C805 C804 1.524 . S
C805 C806 1.397 1_455 S
C805 C810 1.363 . S
C806 H783 0.950 . S
C806 C805 1.397 1_655 S
C806 C807 1.334 . S
C807 H784 0.950 . S
C807 C806 1.334 . S
C807 C808 1.287 1_655 S
C808 C807 1.287 1_455 S
C808 C809 1.524 . S
C808 H827 0.913 . S
C809 H785 0.950 . S
C809 C808 1.524 . S
C809 C810 1.415 . S
C810 H786 0.950 . S
C810 C805 1.363 . S
C810 C809 1.415 . S
C811 H787 0.951 . S
C811 C812 1.366 . S
C811 C813 1.388 . S
C812 C811 1.366 . S
C812 C816 1.385 . S
C813 H788 0.951 1_455 S
C813 C811 1.388 . S
C813 C814 1.366 . S
C814 C813 1.366 . S
C814 C815 1.414 . S
C814 C817 1.499 . S
C815 H789 0.950 . S
C815 C814 1.414 . S
C815 C816 1.374 . S
C816 H790 0.950 . S
C816 C812 1.385 . S
C816 C815 1.374 . S
C817 C814 1.499 . S
C817 C818 1.373 . S
C817 C819 1.389 1_455 S
C818 H791 0.950 . S
C818 C804 1.377 . S
C818 C817 1.373 . S
C819 C803 1.377 . S
C819 C817 1.389 1_655 S
C819 C820 1.524 . S
C820 C819 1.524 . S
C820 C821 1.397 1_655 S
C820 C825 1.363 . S
C821 H792 0.950 . S
C821 C820 1.397 1_455 S
C821 C822 1.334 . S
C822 H793 0.950 . S
C822 C821 1.334 . S
C822 C823 1.287 1_455 S
C823 C822 1.287 1_655 S
C823 C824 1.524 . S
C823 H826 0.999 . S
C824 H794 0.950 . S
C824 C823 1.524 . S
C824 C825 1.415 . S
C825 H795 0.950 . S
C825 C820 1.363 . S
C825 C824 1.415 . S
H826 C823 0.999 . S
H827 C808 0.913 . S
H828 C846 0.951 . S
H829 C848 0.951 . S
H830 C850 0.950 . S
H831 C851 0.950 . S
H832 C853 0.950 . S
H833 C856 0.950 . S
H834 C857 0.950 . S
H835 C859 0.950 . S
H836 C860 0.950 . S
H837 C861 0.951 . S
H838 C863 0.951 . S
H839 C865 0.950 . S
H840 C866 0.950 . S
H841 C868 0.950 . S
H842 C871 0.950 . S
H843 C872 0.950 . S
H844 C874 0.950 . S
H845 C875 0.950 . S
C846 H828 0.951 . S
C846 C847 1.366 . S
C846 C848 1.388 . S
C847 C846 1.366 . S
C847 C851 1.385 . S
C848 H829 0.951 . S
C848 C846 1.388 . S
C848 C849 1.366 . S
C849 C848 1.366 . S
C849 C850 1.414 . S
C849 C852 1.499 . S
C850 H830 0.950 . S
C850 C849 1.414 . S
C850 C851 1.374 . S
C851 H831 0.950 . S
C851 C847 1.385 . S
C851 C850 1.374 . S
C852 C849 1.499 . S
C852 C853 1.373 . S
C852 C854 1.389 . S
C853 H832 0.950 . S
C853 C852 1.373 . S
C853 C869 1.377 . S
C854 C852 1.389 . S
C854 C855 1.524 . S
C854 C868 1.377 . S
C855 C854 1.524 . S
C855 C856 1.397 . S
C855 C860 1.363 . S
C856 H833 0.950 . S
C856 C855 1.397 . S
C856 C857 1.334 . S
C857 H834 0.950 . S
C857 C856 1.334 . S
C857 C858 1.287 . S
C858 C857 1.287 . S
C858 C859 1.524 . S
C858 H877 0.913 . S
C859 H835 0.950 . S
C859 C858 1.524 . S
C859 C860 1.415 . S
C860 H836 0.950 . S
C860 C855 1.363 . S
C860 C859 1.415 . S
C861 H837 0.951 . S
C861 C862 1.366 . S
C861 C863 1.388 . S
C862 C861 1.366 . S
C862 C866 1.385 . S
C863 H838 0.951 . S
C863 C861 1.388 . S
C863 C864 1.366 . S
C864 C863 1.366 . S
C864 C865 1.414 . S
C864 C867 1.499 . S
C865 H839 0.950 . S
C865 C864 1.414 . S
C865 C866 1.374 . S
C866 H840 0.950 . S
C866 C862 1.385 . S
C866 C865 1.374 . S
C867 C864 1.499 . S
C867 C868 1.373 . S
C867 C869 1.389 . S
C868 H841 0.950 . S
C868 C854 1.377 . S
C868 C867 1.373 . S
C869 C853 1.377 . S
C869 C867 1.389 . S
C869 C870 1.524 . S
C870 C869 1.524 . S
C870 C871 1.397 . S
C870 C875 1.363 . S
C871 H842 0.950 . S
C871 C870 1.397 . S
C871 C872 1.334 . S
C872 H843 0.950 . S
C872 C871 1.334 . S
C872 C873 1.287 . S
C873 C872 1.287 . S
C873 C874 1.524 . S
C873 H876 0.999 . S
C874 H844 0.950 . S
C874 C873 1.524 . S
C874 C875 1.415 . S
C875 H845 0.950 . S
C875 C870 1.363 . S
C875 C874 1.415 . S
H876 C873 0.999 . S
H877 C858 0.913 . S
H878 C896 0.951 . S
H879 C898 0.951 . S
H880 C900 0.950 . S
H881 C901 0.950 . S
H882 C903 0.950 . S
H883 C906 0.950 . S
H884 C907 0.950 . S
H885 C909 0.950 . S
H886 C910 0.950 . S
H887 C911 0.951 . S
H888 C913 0.951 . S
H889 C915 0.950 . S
H890 C916 0.950 . S
H891 C918 0.950 . S
H892 C921 0.950 . S
H893 C922 0.950 . S
H894 C924 0.950 . S
H895 C925 0.950 . S
C896 H878 0.951 . S
C896 C897 1.366 . S
C896 C898 1.388 . S
C897 C896 1.366 . S
C897 C901 1.385 . S
C898 H879 0.951 . S
C898 C896 1.388 . S
C898 C899 1.366 . S
C899 C898 1.366 . S
C899 C900 1.414 . S
C899 C902 1.499 . S
C900 H880 0.950 . S
C900 C899 1.414 . S
C900 C901 1.374 . S
C901 H881 0.950 . S
C901 C897 1.385 . S
C901 C900 1.374 . S
C902 C899 1.499 . S
C902 C903 1.373 1_655 S
C902 C904 1.389 . S
C903 H882 0.950 . S
C903 C902 1.373 1_455 S
C903 C919 1.377 . S
C904 C902 1.389 . S
C904 C905 1.524 . S
C904 C918 1.377 . S
C905 C904 1.524 . S
C905 C906 1.397 . S
C905 C910 1.363 . S
C906 H883 0.950 . S
C906 C905 1.397 . S
C906 C907 1.334 . S
C907 H884 0.950 . S
C907 C906 1.334 . S
C907 C908 1.287 . S
C908 C907 1.287 . S
C908 C909 1.524 . S
C908 H927 0.913 . S
C909 H885 0.950 . S
C909 C908 1.524 . S
C909 C910 1.415 . S
C910 H886 0.950 . S
C910 C905 1.363 . S
C910 C909 1.415 . S
C911 H887 0.951 . S
C911 C912 1.366 . S
C911 C913 1.388 . S
C912 C911 1.366 . S
C912 C916 1.385 . S
C913 H888 0.951 . S
C913 C911 1.388 . S
C913 C914 1.366 . S
C914 C913 1.366 . S
C914 C915 1.414 . S
C914 C917 1.499 . S
C915 H889 0.950 . S
C915 C914 1.414 . S
C915 C916 1.374 . S
C916 H890 0.950 . S
C916 C912 1.385 . S
C916 C915 1.374 . S
C917 C914 1.499 . S
C917 C918 1.373 1_455 S
C917 C919 1.389 . S
C918 H891 0.950 . S
C918 C904 1.377 . S
C918 C917 1.373 1_655 S
C919 C903 1.377 . S
C919 C917 1.389 . S
C919 C920 1.524 . S
C920 C919 1.524 . S
C920 C921 1.397 . S
C920 C925 1.363 . S
C921 H892 0.950 . S
C921 C920 1.397 . S
C921 C922 1.334 . S
C922 H893 0.950 . S
C922 C921 1.334 . S
C922 C923 1.287 . S
C923 C922 1.287 . S
C923 C924 1.524 . S
C923 H926 0.999 . S
C924 H894 0.950 . S
C924 C923 1.524 . S
C924 C925 1.415 . S
C925 H895 0.950 . S
C925 C920 1.363 . S
C925 C924 1.415 . S
H926 C923 0.999 . S
H927 C908 0.913 . S
H928 C946 0.951 . S
H929 C948 0.951 . S
H930 C950 0.950 . S
H931 C951 0.950 . S
H932 C953 0.950 . S
H933 C956 0.950 . S
H934 C957 0.950 . S
H935 C959 0.950 . S
H936 C960 0.950 . S
H937 C961 0.951 . S
H938 C963 0.951 . S
H939 C965 0.950 . S
H940 C966 0.950 . S
H941 C968 0.950 . S
H942 C971 0.950 . S
H943 C972 0.950 . S
H944 C974 0.950 . S
H945 C975 0.950 . S
C946 H928 0.951 . S
C946 C947 1.366 . S
C946 C948 1.388 . S
C947 C946 1.366 . S
C947 C951 1.385 . S
C948 H929 0.951 . S
C948 C946 1.388 . S
C948 C949 1.366 . S
C949 C948 1.366 . S
C949 C950 1.414 . S
C949 C952 1.499 . S
C950 H930 0.950 . S
C950 C949 1.414 . S
C950 C951 1.374 . S
C951 H931 0.950 . S
C951 C947 1.385 . S
C951 C950 1.374 . S
C952 C949 1.499 . S
C952 C953 1.373 . S
C952 C954 1.389 . S
C953 H932 0.950 . S
C953 C952 1.373 . S
C953 C969 1.377 . S
C954 C952 1.389 . S
C954 C955 1.524 . S
C954 C968 1.377 . S
C955 C954 1.524 . S
C955 C956 1.397 . S
C955 C960 1.363 . S
C956 H933 0.950 . S
C956 C955 1.397 . S
C956 C957 1.334 . S
C957 H934 0.950 . S
C957 C956 1.334 . S
C957 C958 1.287 . S
C958 C957 1.287 . S
C958 C959 1.524 . S
C958 H977 0.913 . S
C959 H935 0.950 . S
C959 C958 1.524 . S
C959 C960 1.415 . S
C960 H936 0.950 . S
C960 C955 1.363 . S
C960 C959 1.415 . S
C961 H937 0.951 . S
C961 C962 1.366 . S
C961 C963 1.388 . S
C962 C961 1.366 . S
C962 C966 1.385 . S
C963 H938 0.951 . S
C963 C961 1.388 . S
C963 C964 1.366 . S
C964 C963 1.366 . S
C964 C965 1.414 . S
C964 C967 1.499 . S
C965 H939 0.950 . S
C965 C964 1.414 . S
C965 C966 1.374 . S
C966 H940 0.950 . S
C966 C962 1.385 . S
C966 C965 1.374 . S
C967 C964 1.499 . S
C967 C968 1.373 . S
C967 C969 1.389 . S
C968 H941 0.950 . S
C968 C954 1.377 . S
C968 C967 1.373 . S
C969 C953 1.377 . S
C969 C967 1.389 . S
C969 C970 1.524 . S
C970 C969 1.524 . S
C970 C971 1.397 . S
C970 C975 1.363 . S
C971 H942 0.950 . S
C971 C970 1.397 . S
C971 C972 1.334 . S
C972 H943 0.950 . S
C972 C971 1.334 . S
C972 C973 1.287 . S
C973 C972 1.287 . S
C973 C974 1.524 . S
C973 H976 0.999 . S
C974 H944 0.950 . S
C974 C973 1.524 . S
C974 C975 1.415 . S
C975 H945 0.950 . S
C975 C970 1.363 . S
C975 C974 1.415 . S
H976 C973 0.999 . S
H977 C958 0.913 . S
H978 C996 0.951 . S
H979 C998 0.951 . S
H980 C1000 0.950 . S
H981 C1001 0.950 . S
H982 C1003 0.950 . S
H983 C1006 0.950 . S
H984 C1007 0.950 . S
H985 C1009 0.950 . S
H986 C1010 0.950 . S
H987 C1011 0.951 . S
H988 C1013 0.951 . S
H989 C1015 0.950 . S
H990 C1016 0.950 . S
H991 C1018 0.950 . S
H992 C1021 0.950 . S
H993 C1022 0.950 . S
H994 C1024 0.950 . S
H995 C1025 0.950 . S
C996 H978 0.951 . S
C996 C997 1.366 . S
C996 C998 1.388 . S
C997 C996 1.366 . S
C997 C1001 1.385 . S
C998 H979 0.951 . S
C998 C996 1.388 . S
C998 C999 1.366 . S
C999 C998 1.366 . S
C999 C1000 1.414 . S
C999 C1002 1.499 . S
C1000 H980 0.950 . S
C1000 C999 1.414 . S
C1000 C1001 1.374 . S
C1001 H981 0.950 . S
C1001 C997 1.385 . S
C1001 C1000 1.374 . S
C1002 C999 1.499 . S
C1002 C1003 1.373 . S
C1002 C1004 1.389 . S
C1003 H982 0.950 . S
C1003 C1002 1.373 . S
C1003 C1019 1.377 . S
C1004 C1002 1.389 . S
C1004 C1005 1.524 . S
C1004 C1018 1.377 . S
C1005 C1004 1.524 . S
C1005 C1006 1.397 . S
C1005 C1010 1.363 . S
C1006 H983 0.950 . S
C1006 C1005 1.397 . S
C1006 C1007 1.334 . S
C1007 H984 0.950 . S
C1007 C1006 1.334 . S
C1007 C1008 1.287 . S
C1008 C1007 1.287 . S
C1008 C1009 1.524 . S
C1008 H1027 0.913 . S
C1009 H985 0.950 . S
C1009 C1008 1.524 . S
C1009 C1010 1.415 . S
C1010 H986 0.950 . S
C1010 C1005 1.363 . S
C1010 C1009 1.415 . S
C1011 H987 0.951 . S
C1011 C1012 1.366 . S
C1011 C1013 1.388 . S
C1012 C1011 1.366 . S
C1012 C1016 1.385 . S
C1013 H988 0.951 . S
C1013 C1011 1.388 . S
C1013 C1014 1.366 . S
C1014 C1013 1.366 . S
C1014 C1015 1.414 . S
C1014 C1017 1.499 . S
C1015 H989 0.950 . S
C1015 C1014 1.414 . S
C1015 C1016 1.374 . S
C1016 H990 0.950 . S
C1016 C1012 1.385 . S
C1016 C1015 1.374 . S
C1017 C1014 1.499 . S
C1017 C1018 1.373 . S
C1017 C1019 1.389 . S
C1018 H991 0.950 . S
C1018 C1004 1.377 . S
C1018 C1017 1.373 . S
C1019 C1003 1.377 . S
C1019 C1017 1.389 . S
C1019 C1020 1.524 . S
C1020 C1019 1.524 . S
C1020 C1021 1.397 . S
C1020 C1025 1.363 . S
C1021 H992 0.950 . S
C1021 C1020 1.397 . S
C1021 C1022 1.334 . S
C1022 H993 0.950 . S
C1022 C1021 1.334 . S
C1022 C1023 1.287 . S
C1023 C1022 1.287 . S
C1023 C1024 1.524 . S
C1023 H1026 0.999 . S
C1024 H994 0.950 . S
C1024 C1023 1.524 . S
C1024 C1025 1.415 . S
C1025 H995 0.950 . S
C1025 C1020 1.363 . S
C1025 C1024 1.415 . S
H1026 C1023 0.999 . S
H1027 C1008 0.913 . S
H1028 C1046 0.951 . S
H1029 C1048 0.951 . S
H1030 C1050 0.950 . S
H1031 C1051 0.950 . S
H1032 C1053 0.950 . S
H1033 C1056 0.950 . S
H1034 C1057 0.950 . S
H1035 C1059 0.950 . S
H1036 C1060 0.950 . S
H1037 C1061 0.951 . S
H1038 C1063 0.951 . S
H1039 C1065 0.950 . S
H1040 C1066 0.950 . S
H1041 C1068 0.950 . S
H1042 C1071 0.950 . S
H1043 C1072 0.950 . S
H1044 C1074 0.950 . S
H1045 C1075 0.950 . S
C1046 H1028 0.951 . S
C1046 C1047 1.366 . S
C1046 C1048 1.388 . S
C1047 C1046 1.366 . S
C1047 C1051 1.385 . S
C1048 H1029 0.951 . S
C1048 C1046 1.388 . S
C1048 C1049 1.366 . S
C1049 C1048 1.366 . S
C1049 C1050 1.414 . S
C1049 C1052 1.499 . S
C1050 H1030 0.950 . S
C1050 C1049 1.414 . S
C1050 C1051 1.374 . S
C1051 H1031 0.950 . S
C1051 C1047 1.385 . S
C1051 C1050 1.374 . S
C1052 C1049 1.499 . S
C1052 C1053 1.373 . S
C1052 C1054 1.389 . S
C1053 H1032 0.950 . S
C1053 C1052 1.373 . S
C1053 C1069 1.377 . S
C1054 C1052 1.389 . S
C1054 C1055 1.524 . S
C1054 C1068 1.377 . S
C1055 C1054 1.524 . S
C1055 C1056 1.397 . S
C1055 C1060 1.363 . S
C1056 H1033 0.950 . S
C1056 C1055 1.397 . S
C1056 C1057 1.334 . S
C1057 H1034 0.950 . S
C1057 C1056 1.334 . S
C1057 C1058 1.287 . S
C1058 C1057 1.287 . S
C1058 C1059 1.524 . S
C1058 H1077 0.913 . S
C1059 H1035 0.950 . S
C1059 C1058 1.524 . S
C1059 C1060 1.415 . S
C1060 H1036 0.950 . S
C1060 C1055 1.363 . S
C1060 C1059 1.415 . S
C1061 H1037 0.951 . S
C1061 C1062 1.366 . S
C1061 C1063 1.388 . S
C1062 C1061 1.366 . S
C1062 C1066 1.385 . S
C1063 H1038 0.951 . S
C1063 C1061 1.388 . S
C1063 C1064 1.366 . S
C1064 C1063 1.366 . S
C1064 C1065 1.414 . S
C1064 C1067 1.499 . S
C1065 H1039 0.950 . S
C1065 C1064 1.414 . S
C1065 C1066 1.374 . S
C1066 H1040 0.950 . S
C1066 C1062 1.385 . S
C1066 C1065 1.374 . S
C1067 C1064 1.499 . S
C1067 C1068 1.373 . S
C1067 C1069 1.389 . S
C1068 H1041 0.950 . S
C1068 C1054 1.377 . S
C1068 C1067 1.373 . S
C1069 C1053 1.377 . S
C1069 C1067 1.389 . S
C1069 C1070 1.524 . S
C1070 C1069 1.524 . S
C1070 C1071 1.397 . S
C1070 C1075 1.363 . S
C1071 H1042 0.950 . S
C1071 C1070 1.397 . S
C1071 C1072 1.334 . S
C1072 H1043 0.950 . S
C1072 C1071 1.334 . S
C1072 C1073 1.287 . S
C1073 C1072 1.287 . S
C1073 C1074 1.524 . S
C1073 H1076 0.999 . S
C1074 H1044 0.950 . S
C1074 C1073 1.524 . S
C1074 C1075 1.415 . S
C1075 H1045 0.950 . S
C1075 C1070 1.363 . S
C1075 C1074 1.415 . S
H1076 C1073 0.999 . S
H1077 C1058 0.913 . S
H1078 C1096 0.951 . S
H1079 C1098 0.951 . S
H1080 C1100 0.950 . S
H1081 C1101 0.950 . S
H1082 C1103 0.950 . S
H1083 C1106 0.950 . S
H1084 C1107 0.950 . S
H1085 C1109 0.950 . S
H1086 C1110 0.950 . S
H1087 C1111 0.951 . S
H1088 C1113 0.951 . S
H1089 C1115 0.950 . S
H1090 C1116 0.950 . S
H1091 C1118 0.950 . S
H1092 C1121 0.950 . S
H1093 C1122 0.950 . S
H1094 C1124 0.950 . S
H1095 C1125 0.950 . S
C1096 H1078 0.951 . S
C1096 C1097 1.366 . S
C1096 C1098 1.388 . S
C1097 C1096 1.366 . S
C1097 C1101 1.385 . S
C1098 H1079 0.951 . S
C1098 C1096 1.388 . S
C1098 C1099 1.366 . S
C1099 C1098 1.366 . S
C1099 C1100 1.414 . S
C1099 C1102 1.499 . S
C1100 H1080 0.950 . S
C1100 C1099 1.414 . S
C1100 C1101 1.374 . S
C1101 H1081 0.950 . S
C1101 C1097 1.385 . S
C1101 C1100 1.374 . S
C1102 C1099 1.499 . S
C1102 C1103 1.373 . S
C1102 C1104 1.389 . S
C1103 H1082 0.950 . S
C1103 C1102 1.373 . S
C1103 C1119 1.377 . S
C1104 C1102 1.389 . S
C1104 C1105 1.524 . S
C1104 C1118 1.377 . S
C1105 C1104 1.524 . S
C1105 C1106 1.397 . S
C1105 C1110 1.363 . S
C1106 H1083 0.950 . S
C1106 C1105 1.397 . S
C1106 C1107 1.334 . S
C1107 H1084 0.950 . S
C1107 C1106 1.334 . S
C1107 C1108 1.287 . S
C1108 C1107 1.287 . S
C1108 C1109 1.524 . S
C1108 H1127 0.913 . S
C1109 H1085 0.950 . S
C1109 C1108 1.524 . S
C1109 C1110 1.415 . S
C1110 H1086 0.950 . S
C1110 C1105 1.363 . S
C1110 C1109 1.415 . S
C1111 H1087 0.951 . S
C1111 C1112 1.366 . S
C1111 C1113 1.388 . S
C1112 C1111 1.366 . S
C1112 C1116 1.385 . S
C1113 H1088 0.951 . S
C1113 C1111 1.388 . S
C1113 C1114 1.366 . S
C1114 C1113 1.366 . S
C1114 C1115 1.414 . S
C1114 C1117 1.499 . S
C1115 H1089 0.950 . S
C1115 C1114 1.414 . S
C1115 C1116 1.374 . S
C1116 H1090 0.950 . S
C1116 C1112 1.385 . S
C1116 C1115 1.374 . S
C1117 C1114 1.499 . S
C1117 C1118 1.373 . S
C1117 C1119 1.389 . S
C1118 H1091 0.950 . S
C1118 C1104 1.377 . S
C1118 C1117 1.373 . S
C1119 C1103 1.377 . S
C1119 C1117 1.389 . S
C1119 C1120 1.524 . S
C1120 C1119 1.524 . S
C1120 C1121 1.397 . S
C1120 C1125 1.363 . S
C1121 H1092 0.950 . S
C1121 C1120 1.397 . S
C1121 C1122 1.334 . S
C1122 H1093 0.950 . S
C1122 C1121 1.334 . S
C1122 C1123 1.287 . S
C1123 C1122 1.287 . S
C1123 C1124 1.524 . S
C1123 H1126 0.999 . S
C1124 H1094 0.950 . S
C1124 C1123 1.524 . S
C1124 C1125 1.415 . S
C1125 H1095 0.950 . S
C1125 C1120 1.363 . S
C1125 C1124 1.415 . S
H1126 C1123 0.999 . S
H1127 C1108 0.913 . S
H1128 C1146 0.951 . S
H1129 C1148 0.951 . S
H1130 C1150 0.950 . S
H1131 C1151 0.950 . S
H1132 C1153 0.950 . S
H1133 C1156 0.950 . S
H1134 C1157 0.950 . S
H1135 C1159 0.950 . S
H1136 C1160 0.950 . S
H1137 C1161 0.951 . S
H1138 C1163 0.951 . S
H1139 C1165 0.950 . S
H1140 C1166 0.950 . S
H1141 C1168 0.950 . S
H1142 C1171 0.950 . S
H1143 C1172 0.950 . S
H1144 C1174 0.950 . S
H1145 C1175 0.950 . S
C1146 H1128 0.951 . S
C1146 C1147 1.366 . S
C1146 C1148 1.388 . S
C1147 C1146 1.366 . S
C1147 C1151 1.385 . S
C1148 H1129 0.951 . S
C1148 C1146 1.388 . S
C1148 C1149 1.366 . S
C1149 C1148 1.366 . S
C1149 C1150 1.414 . S
C1149 C1152 1.499 . S
C1150 H1130 0.950 . S
C1150 C1149 1.414 . S
C1150 C1151 1.374 . S
C1151 H1131 0.950 . S
C1151 C1147 1.385 . S
C1151 C1150 1.374 . S
C1152 C1149 1.499 . S
C1152 C1153 1.373 . S
C1152 C1154 1.389 . S
C1153 H1132 0.950 . S
C1153 C1152 1.373 . S
C1153 C1169 1.377 . S
C1154 C1152 1.389 . S
C1154 C1155 1.524 . S
C1154 C1168 1.377 . S
C1155 C1154 1.524 . S
C1155 C1156 1.397 . S
C1155 C1160 1.363 . S
C1156 H1133 0.950 . S
C1156 C1155 1.397 . S
C1156 C1157 1.334 . S
C1157 H1134 0.950 . S
C1157 C1156 1.334 . S
C1157 C1158 1.287 . S
C1158 C1157 1.287 . S
C1158 C1159 1.524 . S
C1158 H1177 0.913 . S
C1159 H1135 0.950 . S
C1159 C1158 1.524 . S
C1159 C1160 1.415 . S
C1160 H1136 0.950 . S
C1160 C1155 1.363 . S
C1160 C1159 1.415 . S
C1161 H1137 0.951 . S
C1161 C1162 1.366 . S
C1161 C1163 1.388 . S
C1162 C1161 1.366 . S
C1162 C1166 1.385 . S
C1163 H1138 0.951 . S
C1163 C1161 1.388 . S
C1163 C1164 1.366 . S
C1164 C1163 1.366 . S
C1164 C1165 1.414 . S
C1164 C1167 1.499 . S
C1165 H1139 0.950 . S
C1165 C1164 1.414 . S
C1165 C1166 1.374 . S
C1166 H1140 0.950 . S
C1166 C1162 1.385 . S
C1166 C1165 1.374 . S
C1167 C1164 1.499 . S
C1167 C1168 1.373 . S
C1167 C1169 1.389 . S
C1168 H1141 0.950 . S
C1168 C1154 1.377 . S
C1168 C1167 1.373 . S
C1169 C1153 1.377 . S
C1169 C1167 1.389 . S
C1169 C1170 1.524 . S
C1170 C1169 1.524 . S
C1170 C1171 1.397 . S
C1170 C1175 1.363 . S
C1171 H1142 0.950 . S
C1171 C1170 1.397 . S
C1171 C1172 1.334 . S
C1172 H1143 0.950 . S
C1172 C1171 1.334 . S
C1172 C1173 1.287 . S
C1173 C1172 1.287 . S
C1173 C1174 1.524 . S
C1173 H1176 0.999 . S
C1174 H1144 0.950 . S
C1174 C1173 1.524 . S
C1174 C1175 1.415 . S
C1175 H1145 0.950 . S
C1175 C1170 1.363 . S
C1175 C1174 1.415 . S
H1176 C1173 0.999 . S
H1177 C1158 0.913 . S
H1178 C1196 0.951 . S
H1179 C1198 0.951 . S
H1180 C1200 0.950 . S
H1181 C1201 0.950 . S
H1182 C1203 0.950 . S
H1183 C1206 0.950 . S
H1184 C1207 0.950 . S
H1185 C1209 0.950 . S
H1186 C1210 0.950 . S
H1187 C1211 0.951 . S
H1188 C1213 0.951 . S
H1189 C1215 0.950 . S
H1190 C1216 0.950 . S
H1191 C1218 0.950 . S
H1192 C1221 0.950 . S
H1193 C1222 0.950 . S
H1194 C1224 0.950 . S
H1195 C1225 0.950 . S
C1196 H1178 0.951 . S
C1196 C1197 1.366 . S
C1196 C1198 1.388 . S
C1197 C1196 1.366 . S
C1197 C1201 1.385 . S
C1198 H1179 0.951 . S
C1198 C1196 1.388 . S
C1198 C1199 1.366 . S
C1199 C1198 1.366 . S
C1199 C1200 1.414 . S
C1199 C1202 1.499 . S
C1200 H1180 0.950 . S
C1200 C1199 1.414 . S
C1200 C1201 1.374 . S
C1201 H1181 0.950 . S
C1201 C1197 1.385 . S
C1201 C1200 1.374 . S
C1202 C1199 1.499 . S
C1202 C1203 1.373 . S
C1202 C1204 1.389 . S
C1203 H1182 0.950 . S
C1203 C1202 1.373 . S
C1203 C1219 1.377 . S
C1204 C1202 1.389 . S
C1204 C1205 1.524 . S
C1204 C1218 1.377 . S
C1205 C1204 1.524 . S
C1205 C1206 1.397 . S
C1205 C1210 1.363 . S
C1206 H1183 0.950 . S
C1206 C1205 1.397 . S
C1206 C1207 1.334 . S
C1207 H1184 0.950 . S
C1207 C1206 1.334 . S
C1207 C1208 1.287 . S
C1208 C1207 1.287 . S
C1208 C1209 1.524 . S
C1208 H1227 0.913 . S
C1209 H1185 0.950 . S
C1209 C1208 1.524 . S
C1209 C1210 1.415 . S
C1210 H1186 0.950 . S
C1210 C1205 1.363 . S
C1210 C1209 1.415 . S
C1211 H1187 0.951 . S
C1211 C1212 1.366 . S
C1211 C1213 1.388 . S
C1212 C1211 1.366 . S
C1212 C1216 1.385 . S
C1213 H1188 0.951 . S
C1213 C1211 1.388 . S
C1213 C1214 1.366 . S
C1214 C1213 1.366 . S
C1214 C1215 1.414 . S
C1214 C1217 1.499 . S
C1215 H1189 0.950 . S
C1215 C1214 1.414 . S
C1215 C1216 1.374 . S
C1216 H1190 0.950 . S
C1216 C1212 1.385 . S
C1216 C1215 1.374 . S
C1217 C1214 1.499 . S
C1217 C1218 1.373 . S
C1217 C1219 1.389 . S
C1218 H1191 0.950 . S
C1218 C1204 1.377 . S
C1218 C1217 1.373 . S
C1219 C1203 1.377 . S
C1219 C1217 1.389 . S
C1219 C1220 1.524 . S
C1220 C1219 1.524 . S
C1220 C1221 1.397 . S
C1220 C1225 1.363 . S
C1221 H1192 0.950 . S
C1221 C1220 1.397 . S
C1221 C1222 1.334 . S
C1222 H1193 0.950 . S
C1222 C1221 1.334 . S
C1222 C1223 1.287 . S
C1223 C1222 1.287 . S
C1223 C1224 1.524 . S
C1223 H1226 0.999 . S
C1224 H1194 0.950 . S
C1224 C1223 1.524 . S
C1224 C1225 1.415 . S
C1225 H1195 0.950 . S
C1225 C1220 1.363 . S
C1225 C1224 1.415 . S
H1226 C1223 0.999 . S
H1227 C1208 0.913 . S
H1228 C1246 0.951 . S
H1229 C1248 0.951 . S
H1230 C1250 0.950 . S
H1231 C1251 0.950 . S
H1232 C1253 0.950 . S
H1233 C1256 0.950 . S
H1234 C1257 0.950 . S
H1235 C1259 0.950 . S
H1236 C1260 0.950 . S
H1237 C1261 0.951 . S
H1238 C1263 0.951 . S
H1239 C1265 0.950 . S
H1240 C1266 0.950 . S
H1241 C1268 0.950 . S
H1242 C1271 0.950 . S
H1243 C1272 0.950 . S
H1244 C1274 0.950 . S
H1245 C1275 0.950 . S
C1246 H1228 0.951 . S
C1246 C1247 1.366 . S
C1246 C1248 1.388 . S
C1247 C1246 1.366 . S
C1247 C1251 1.385 . S
C1248 H1229 0.951 . S
C1248 C1246 1.388 . S
C1248 C1249 1.366 . S
C1249 C1248 1.366 . S
C1249 C1250 1.414 . S
C1249 C1252 1.499 . S
C1250 H1230 0.950 . S
C1250 C1249 1.414 . S
C1250 C1251 1.374 . S
C1251 H1231 0.950 . S
C1251 C1247 1.385 . S
C1251 C1250 1.374 . S
C1252 C1249 1.499 . S
C1252 C1253 1.373 . S
C1252 C1254 1.389 . S
C1253 H1232 0.950 . S
C1253 C1252 1.373 . S
C1253 C1269 1.377 . S
C1254 C1252 1.389 . S
C1254 C1255 1.524 . S
C1254 C1268 1.377 . S
C1255 C1254 1.524 . S
C1255 C1256 1.397 . S
C1255 C1260 1.363 . S
C1256 H1233 0.950 . S
C1256 C1255 1.397 . S
C1256 C1257 1.334 . S
C1257 H1234 0.950 . S
C1257 C1256 1.334 . S
C1257 C1258 1.287 . S
C1258 C1257 1.287 . S
C1258 C1259 1.524 . S
C1258 H1277 0.913 . S
C1259 H1235 0.950 . S
C1259 C1258 1.524 . S
C1259 C1260 1.415 . S
C1260 H1236 0.950 . S
C1260 C1255 1.363 . S
C1260 C1259 1.415 . S
C1261 H1237 0.951 . S
C1261 C1262 1.366 . S
C1261 C1263 1.388 . S
C1262 C1261 1.366 . S
C1262 C1266 1.385 . S
C1263 H1238 0.951 . S
C1263 C1261 1.388 . S
C1263 C1264 1.366 . S
C1264 C1263 1.366 . S
C1264 C1265 1.414 . S
C1264 C1267 1.499 . S
C1265 H1239 0.950 . S
C1265 C1264 1.414 . S
C1265 C1266 1.374 . S
C1266 H1240 0.950 . S
C1266 C1262 1.385 . S
C1266 C1265 1.374 . S
C1267 C1264 1.499 . S
C1267 C1268 1.373 . S
C1267 C1269 1.389 . S
C1268 H1241 0.950 . S
C1268 C1254 1.377 . S
C1268 C1267 1.373 . S
C1269 C1253 1.377 . S
C1269 C1267 1.389 . S
C1269 C1270 1.524 . S
C1270 C1269 1.524 . S
C1270 C1271 1.397 . S
C1270 C1275 1.363 . S
C1271 H1242 0.950 . S
C1271 C1270 1.397 . S
C1271 C1272 1.334 . S
C1272 H1243 0.950 . S
C1272 C1271 1.334 . S
C1272 C1273 1.287 . S
C1273 C1272 1.287 . S
C1273 C1274 1.524 . S
C1273 H1276 0.999 . S
C1274 H1244 0.950 . S
C1274 C1273 1.524 . S
C1274 C1275 1.415 . S
C1275 H1245 0.950 . S
C1275 C1270 1.363 . S
C1275 C1274 1.415 . S
H1276 C1273 0.999 . S
H1277 C1258 0.913 . S
H1278 C1296 0.951 . S
H1279 C1298 0.951 . S
H1280 C1300 0.950 . S
H1281 C1301 0.950 . S
H1282 C1303 0.950 . S
H1283 C1306 0.950 . S
H1284 C1307 0.950 . S
H1285 C1309 0.950 . S
H1286 C1310 0.950 . S
H1287 C1311 0.951 . S
H1288 C1313 0.951 . S
H1289 C1315 0.950 . S
H1290 C1316 0.950 . S
H1291 C1318 0.950 . S
H1292 C1321 0.950 . S
H1293 C1322 0.950 . S
H1294 C1324 0.950 . S
H1295 C1325 0.950 . S
C1296 H1278 0.951 . S
C1296 C1297 1.366 . S
C1296 C1298 1.388 . S
C1297 C1296 1.366 . S
C1297 C1301 1.385 . S
C1298 H1279 0.951 . S
C1298 C1296 1.388 . S
C1298 C1299 1.366 . S
C1299 C1298 1.366 . S
C1299 C1300 1.414 . S
C1299 C1302 1.499 . S
C1300 H1280 0.950 . S
C1300 C1299 1.414 . S
C1300 C1301 1.374 . S
C1301 H1281 0.950 . S
C1301 C1297 1.385 . S
C1301 C1300 1.374 . S
C1302 C1299 1.499 . S
C1302 C1303 1.373 . S
C1302 C1304 1.389 . S
C1303 H1282 0.950 . S
C1303 C1302 1.373 . S
C1303 C1319 1.377 . S
C1304 C1302 1.389 . S
C1304 C1305 1.524 . S
C1304 C1318 1.377 . S
C1305 C1304 1.524 . S
C1305 C1306 1.397 . S
C1305 C1310 1.363 . S
C1306 H1283 0.950 . S
C1306 C1305 1.397 . S
C1306 C1307 1.334 . S
C1307 H1284 0.950 . S
C1307 C1306 1.334 . S
C1307 C1308 1.287 . S
C1308 C1307 1.287 . S
C1308 C1309 1.524 . S
C1308 H1327 0.913 . S
C1309 H1285 0.950 . S
C1309 C1308 1.524 . S
C1309 C1310 1.415 . S
C1310 H1286 0.950 . S
C1310 C1305 1.363 . S
C1310 C1309 1.415 . S
C1311 H1287 0.951 . S
C1311 C1312 1.366 . S
C1311 C1313 1.388 . S
C1312 C1311 1.366 . S
C1312 C1316 1.385 . S
C1313 H1288 0.951 . S
C1313 C1311 1.388 . S
C1313 C1314 1.366 . S
C1314 C1313 1.366 . S
C1314 C1315 1.414 . S
C1314 C1317 1.499 . S
C1315 H1289 0.950 . S
C1315 C1314 1.414 . S
C1315 C1316 1.374 . S
C1316 H1290 0.950 . S
C1316 C1312 1.385 . S
C1316 C1315 1.374 . S
C1317 C1314 1.499 . S
C1317 C1318 1.373 . S
C1317 C1319 1.389 . S
C1318 H1291 0.950 . S
C1318 C1304 1.377 . S
C1318 C1317 1.373 . S
C1319 C1303 1.377 . S
C1319 C1317 1.389 . S
C1319 C1320 1.524 . S
C1320 C1319 1.524 . S
C1320 C1321 1.397 . S
C1320 C1325 1.363 . S
C1321 H1292 0.950 . S
C1321 C1320 1.397 . S
C1321 C1322 1.334 . S
C1322 H1293 0.950 . S
C1322 C1321 1.334 . S
C1322 C1323 1.287 . S
C1323 C1322 1.287 . S
C1323 C1324 1.524 . S
C1323 H1326 0.999 . S
C1324 H1294 0.950 . S
C1324 C1323 1.524 . S
C1324 C1325 1.415 . S
C1325 H1295 0.950 . S
C1325 C1320 1.363 . S
C1325 C1324 1.415 . S
H1326 C1323 0.999 . S
H1327 C1308 0.913 . S
H1328 C1346 0.951 . S
H1329 C1348 0.951 . S
H1330 C1350 0.950 . S
H1331 C1351 0.950 . S
H1332 C1353 0.950 . S
H1333 C1356 0.950 . S
H1334 C1357 0.950 . S
H1335 C1359 0.950 . S
H1336 C1360 0.950 . S
H1337 C1361 0.951 . S
H1338 C1363 0.951 . S
H1339 C1365 0.950 . S
H1340 C1366 0.950 . S
H1341 C1368 0.950 . S
H1342 C1371 0.950 . S
H1343 C1372 0.950 . S
H1344 C1374 0.950 . S
H1345 C1375 0.950 . S
C1346 H1328 0.951 . S
C1346 C1347 1.366 . S
C1346 C1348 1.388 . S
C1347 C1346 1.366 . S
C1347 C1351 1.385 . S
C1348 H1329 0.951 . S
C1348 C1346 1.388 . S
C1348 C1349 1.366 . S
C1349 C1348 1.366 . S
C1349 C1350 1.414 . S
C1349 C1352 1.499 . S
C1350 H1330 0.950 . S
C1350 C1349 1.414 . S
C1350 C1351 1.374 . S
C1351 H1331 0.950 . S
C1351 C1347 1.385 . S
C1351 C1350 1.374 . S
C1352 C1349 1.499 . S
C1352 C1353 1.373 1_455 S
C1352 C1354 1.389 1_545 S
C1353 H1332 0.950 . S
C1353 C1352 1.373 1_655 S
C1353 C1369 1.377 . S
C1354 C1352 1.389 1_565 S
C1354 C1355 1.524 . S
C1354 C1368 1.377 . S
C1355 C1354 1.524 . S
C1355 C1356 1.397 . S
C1355 C1360 1.363 . S
C1356 H1333 0.950 . S
C1356 C1355 1.397 . S
C1356 C1357 1.334 . S
C1357 H1334 0.950 . S
C1357 C1356 1.334 . S
C1357 C1358 1.287 . S
C1358 C1357 1.287 . S
C1358 C1359 1.524 . S
C1358 H1377 0.913 . S
C1359 H1335 0.950 . S
C1359 C1358 1.524 . S
C1359 C1360 1.415 . S
C1360 H1336 0.950 . S
C1360 C1355 1.363 . S
C1360 C1359 1.415 . S
C1361 H1337 0.951 . S
C1361 C1362 1.366 . S
C1361 C1363 1.388 . S
C1362 C1361 1.366 . S
C1362 C1366 1.385 . S
C1363 H1338 0.951 . S
C1363 C1361 1.388 . S
C1363 C1364 1.366 . S
C1364 C1363 1.366 . S
C1364 C1365 1.414 . S
C1364 C1367 1.499 . S
C1365 H1339 0.950 . S
C1365 C1364 1.414 . S
C1365 C1366 1.374 . S
C1366 H1340 0.950 . S
C1366 C1362 1.385 . S
C1366 C1365 1.374 . S
C1367 C1364 1.499 . S
C1367 C1368 1.373 1_655 S
C1367 C1369 1.389 1_565 S
C1368 H1341 0.950 . S
C1368 C1354 1.377 . S
C1368 C1367 1.373 1_455 S
C1369 C1353 1.377 . S
C1369 C1367 1.389 1_545 S
C1369 C1370 1.524 . S
C1370 C1369 1.524 . S
C1370 C1371 1.397 . S
C1370 C1375 1.363 . S
C1371 H1342 0.950 . S
C1371 C1370 1.397 . S
C1371 C1372 1.334 . S
C1372 H1343 0.950 . S
C1372 C1371 1.334 . S
C1372 C1373 1.287 . S
C1373 C1372 1.287 . S
C1373 C1374 1.524 . S
C1373 H1376 0.999 . S
C1374 H1344 0.950 . S
C1374 C1373 1.524 . S
C1374 C1375 1.415 . S
C1375 H1345 0.950 . S
C1375 C1370 1.363 . S
C1375 C1374 1.415 . S
H1376 C1373 0.999 . S
H1377 C1358 0.913 . S
H1378 C1396 0.951 . S
H1379 C1398 0.951 . S
H1380 C1400 0.950 . S
H1381 C1401 0.950 . S
H1382 C1403 0.950 . S
H1383 C1406 0.950 . S
H1384 C1407 0.950 . S
H1385 C1409 0.950 . S
H1386 C1410 0.950 . S
H1387 C1411 0.951 . S
H1388 C1413 0.951 . S
H1389 C1415 0.950 . S
H1390 C1416 0.950 . S
H1391 C1418 0.950 . S
H1392 C1421 0.950 . S
H1393 C1422 0.950 . S
H1394 C1424 0.950 . S
H1395 C1425 0.950 . S
C1396 H1378 0.951 . S
C1396 C1397 1.366 . S
C1396 C1398 1.388 . S
C1397 C1396 1.366 . S
C1397 C1401 1.385 . S
C1398 H1379 0.951 . S
C1398 C1396 1.388 . S
C1398 C1399 1.366 . S
C1399 C1398 1.366 . S
C1399 C1400 1.414 . S
C1399 C1402 1.499 . S
C1400 H1380 0.950 . S
C1400 C1399 1.414 . S
C1400 C1401 1.374 . S
C1401 H1381 0.950 . S
C1401 C1397 1.385 . S
C1401 C1400 1.374 . S
C1402 C1399 1.499 . S
C1402 C1403 1.373 . S
C1402 C1404 1.389 1_565 S
C1403 H1382 0.950 . S
C1403 C1402 1.373 . S
C1403 C1419 1.377 . S
C1404 C1402 1.389 1_545 S
C1404 C1405 1.524 . S
C1404 C1418 1.377 . S
C1405 C1404 1.524 . S
C1405 C1406 1.397 . S
C1405 C1410 1.363 . S
C1406 H1383 0.950 . S
C1406 C1405 1.397 . S
C1406 C1407 1.334 . S
C1407 H1384 0.950 . S
C1407 C1406 1.334 . S
C1407 C1408 1.287 . S
C1408 C1407 1.287 . S
C1408 C1409 1.524 . S
C1408 H1427 0.913 . S
C1409 H1385 0.950 . S
C1409 C1408 1.524 . S
C1409 C1410 1.415 . S
C1410 H1386 0.950 . S
C1410 C1405 1.363 . S
C1410 C1409 1.415 . S
C1411 H1387 0.951 . S
C1411 C1412 1.366 . S
C1411 C1413 1.388 . S
C1412 C1411 1.366 . S
C1412 C1416 1.385 . S
C1413 H1388 0.951 . S
C1413 C1411 1.388 . S
C1413 C1414 1.366 . S
C1414 C1413 1.366 . S
C1414 C1415 1.414 . S
C1414 C1417 1.499 . S
C1415 H1389 0.950 . S
C1415 C1414 1.414 . S
C1415 C1416 1.374 . S
C1416 H1390 0.950 . S
C1416 C1412 1.385 . S
C1416 C1415 1.374 . S
C1417 C1414 1.499 . S
C1417 C1418 1.373 . S
C1417 C1419 1.389 1_545 S
C1418 H1391 0.950 . S
C1418 C1404 1.377 . S
C1418 C1417 1.373 . S
C1419 C1403 1.377 . S
C1419 C1417 1.389 1_565 S
C1419 C1420 1.524 . S
C1420 C1419 1.524 . S
C1420 C1421 1.397 . S
C1420 C1425 1.363 . S
C1421 H1392 0.950 . S
C1421 C1420 1.397 . S
C1421 C1422 1.334 . S
C1422 H1393 0.950 . S
C1422 C1421 1.334 . S
C1422 C1423 1.287 . S
C1423 C1422 1.287 . S
C1423 C1424 1.524 . S
C1423 H1426 0.999 . S
C1424 H1394 0.950 . S
C1424 C1423 1.524 . S
C1424 C1425 1.415 . S
C1425 H1395 0.950 . S
C1425 C1420 1.363 . S
C1425 C1424 1.415 . S
H1426 C1423 0.999 . S
H1427 C1408 0.913 . S
H1428 C1446 0.951 . S
H1429 C1448 0.951 . S
H1430 C1450 0.950 . S
H1431 C1451 0.950 . S
H1432 C1453 0.950 . S
H1433 C1456 0.950 . S
H1434 C1457 0.950 . S
H1435 C1459 0.950 . S
H1436 C1460 0.950 . S
H1437 C1461 0.951 . S
H1438 C1463 0.951 . S
H1439 C1465 0.950 . S
H1440 C1466 0.950 . S
H1441 C1468 0.950 . S
H1442 C1471 0.950 . S
H1443 C1472 0.950 . S
H1444 C1474 0.950 . S
H1445 C1475 0.950 . S
C1446 H1428 0.951 . S
C1446 C1447 1.366 . S
C1446 C1448 1.388 . S
C1447 C1446 1.366 . S
C1447 C1451 1.385 . S
C1448 H1429 0.951 . S
C1448 C1446 1.388 . S
C1448 C1449 1.366 . S
C1449 C1448 1.366 . S
C1449 C1450 1.414 . S
C1449 C1452 1.499 . S
C1450 H1430 0.950 . S
C1450 C1449 1.414 . S
C1450 C1451 1.374 . S
C1451 H1431 0.950 . S
C1451 C1447 1.385 . S
C1451 C1450 1.374 . S
C1452 C1449 1.499 . S
C1452 C1453 1.373 1_556 S
C1452 C1454 1.389 1_545 S
C1453 H1432 0.950 . S
C1453 C1452 1.373 1_554 S
C1453 C1469 1.377 . S
C1454 C1452 1.389 1_565 S
C1454 C1455 1.524 . S
C1454 C1468 1.377 . S
C1455 C1454 1.524 . S
C1455 C1456 1.397 . S
C1455 C1460 1.363 . S
C1456 H1433 0.950 . S
C1456 C1455 1.397 . S
C1456 C1457 1.334 . S
C1457 H1434 0.950 . S
C1457 C1456 1.334 . S
C1457 C1458 1.287 . S
C1458 C1457 1.287 . S
C1458 C1459 1.524 . S
C1458 H1477 0.913 . S
C1459 H1435 0.950 . S
C1459 C1458 1.524 . S
C1459 C1460 1.415 . S
C1460 H1436 0.950 . S
C1460 C1455 1.363 . S
C1460 C1459 1.415 . S
C1461 H1437 0.951 . S
C1461 C1462 1.366 . S
C1461 C1463 1.388 . S
C1462 C1461 1.366 . S
C1462 C1466 1.385 . S
C1463 H1438 0.951 . S
C1463 C1461 1.388 . S
C1463 C1464 1.366 . S
C1464 C1463 1.366 . S
C1464 C1465 1.414 . S
C1464 C1467 1.499 . S
C1465 H1439 0.950 . S
C1465 C1464 1.414 . S
C1465 C1466 1.374 . S
C1466 H1440 0.950 . S
C1466 C1462 1.385 . S
C1466 C1465 1.374 . S
C1467 C1464 1.499 . S
C1467 C1468 1.373 1_554 S
C1467 C1469 1.389 1_565 S
C1468 H1441 0.950 . S
C1468 C1454 1.377 . S
C1468 C1467 1.373 1_556 S
C1469 C1453 1.377 . S
C1469 C1467 1.389 1_545 S
C1469 C1470 1.524 . S
C1470 C1469 1.524 . S
C1470 C1471 1.397 . S
C1470 C1475 1.363 . S
C1471 H1442 0.950 . S
C1471 C1470 1.397 . S
C1471 C1472 1.334 . S
C1472 H1443 0.950 . S
C1472 C1471 1.334 . S
C1472 C1473 1.287 . S
C1473 C1472 1.287 . S
C1473 C1474 1.524 . S
C1473 H1476 0.999 . S
C1474 H1444 0.950 . S
C1474 C1473 1.524 . S
C1474 C1475 1.415 . S
C1475 H1445 0.950 . S
C1475 C1470 1.363 . S
C1475 C1474 1.415 . S
H1476 C1473 0.999 . S
H1477 C1458 0.913 . S
H1478 C1496 0.951 . S
H1479 C1498 0.951 . S
H1480 C1500 0.950 . S
H1481 C1501 0.950 . S
H1482 C1503 0.950 . S
H1483 C1506 0.950 . S
H1484 C1507 0.950 . S
H1485 C1509 0.950 . S
H1486 C1510 0.950 1_565 S
H1487 C1511 0.951 . S
H1488 C1513 0.951 . S
H1489 C1515 0.950 . S
H1490 C1516 0.950 . S
H1491 C1518 0.950 . S
H1492 C1521 0.950 . S
H1493 C1522 0.950 . S
H1494 C1524 0.950 . S
H1495 C1525 0.950 1_545 S
C1496 H1478 0.951 . S
C1496 C1497 1.366 . S
C1496 C1498 1.388 . S
C1497 C1496 1.366 . S
C1497 C1501 1.385 . S
C1498 H1479 0.951 . S
C1498 C1496 1.388 . S
C1498 C1499 1.366 . S
C1499 C1498 1.366 . S
C1499 C1500 1.414 . S
C1499 C1502 1.499 . S
C1500 H1480 0.950 . S
C1500 C1499 1.414 . S
C1500 C1501 1.374 . S
C1501 H1481 0.950 . S
C1501 C1497 1.385 . S
C1501 C1500 1.374 . S
C1502 C1499 1.499 . S
C1502 C1503 1.373 1_554 S
C1502 C1504 1.389 1_655 S
C1503 H1482 0.950 . S
C1503 C1502 1.373 1_556 S
C1503 C1519 1.377 1_545 S
C1504 C1502 1.389 1_455 S
C1504 C1505 1.524 . S
C1504 C1518 1.377 1_545 S
C1505 C1504 1.524 . S
C1505 C1506 1.397 . S
C1505 C1510 1.363 . S
C1506 H1483 0.950 . S
C1506 C1505 1.397 . S
C1506 C1507 1.334 . S
C1507 H1484 0.950 . S
C1507 C1506 1.334 . S
C1507 C1508 1.287 . S
C1508 C1507 1.287 . S
C1508 C1509 1.524 . S
C1508 H1527 0.913 . S
C1509 H1485 0.950 . S
C1509 C1508 1.524 . S
C1509 C1510 1.415 . S
C1510 H1486 0.950 1_545 S
C1510 C1505 1.363 . S
C1510 C1509 1.415 . S
C1511 H1487 0.951 . S
C1511 C1512 1.366 . S
C1511 C1513 1.388 . S
C1512 C1511 1.366 . S
C1512 C1516 1.385 . S
C1513 H1488 0.951 . S
C1513 C1511 1.388 . S
C1513 C1514 1.366 . S
C1514 C1513 1.366 . S
C1514 C1515 1.414 . S
C1514 C1517 1.499 . S
C1515 H1489 0.950 . S
C1515 C1514 1.414 . S
C1515 C1516 1.374 . S
C1516 H1490 0.950 . S
C1516 C1512 1.385 . S
C1516 C1515 1.374 . S
C1517 C1514 1.499 . S
C1517 C1518 1.373 1_556 S
C1517 C1519 1.389 1_455 S
C1518 H1491 0.950 . S
C1518 C1504 1.377 1_565 S
C1518 C1517 1.373 1_554 S
C1519 C1503 1.377 1_565 S
C1519 C1517 1.389 1_655 S
C1519 C1520 1.524 . S
C1520 C1519 1.524 . S
C1520 C1521 1.397 . S
C1520 C1525 1.363 . S
C1521 H1492 0.950 . S
C1521 C1520 1.397 . S
C1521 C1522 1.334 . S
C1522 H1493 0.950 . S
C1522 C1521 1.334 . S
C1522 C1523 1.287 . S
C1523 C1522 1.287 . S
C1523 C1524 1.524 . S
C1523 H1526 0.999 . S
C1524 H1494 0.950 . S
C1524 C1523 1.524 . S
C1524 C1525 1.415 . S
C1525 H1495 0.950 1_565 S
C1525 C1520 1.363 . S
C1525 C1524 1.415 . S
H1526 C1523 0.999 . S
H1527 C1508 0.913 . S
H1528 C1546 0.951 . S
H1529 C1548 0.951 . S
H1530 C1550 0.950 . S
H1531 C1551 0.950 . S
H1532 C1553 0.950 . S
H1533 C1556 0.950 . S
H1534 C1557 0.950 . S
H1535 C1559 0.950 . S
H1536 C1560 0.950 . S
H1537 C1561 0.951 . S
H1538 C1563 0.951 . S
H1539 C1565 0.950 . S
H1540 C1566 0.950 . S
H1541 C1568 0.950 . S
H1542 C1571 0.950 . S
H1543 C1572 0.950 . S
H1544 C1574 0.950 . S
H1545 C1575 0.950 . S
C1546 H1528 0.951 . S
C1546 C1547 1.366 . S
C1546 C1548 1.388 . S
C1547 C1546 1.366 . S
C1547 C1551 1.385 . S
C1548 H1529 0.951 . S
C1548 C1546 1.388 . S
C1548 C1549 1.366 . S
C1549 C1548 1.366 . S
C1549 C1550 1.414 . S
C1549 C1552 1.499 . S
C1550 H1530 0.950 . S
C1550 C1549 1.414 . S
C1550 C1551 1.374 . S
C1551 H1531 0.950 . S
C1551 C1547 1.385 . S
C1551 C1550 1.374 . S
C1552 C1549 1.499 . S
C1552 C1553 1.373 . S
C1552 C1554 1.389 . S
C1553 H1532 0.950 . S
C1553 C1552 1.373 . S
C1553 C1569 1.377 . S
C1554 C1552 1.389 . S
C1554 C1555 1.524 . S
C1554 C1568 1.377 . S
C1555 C1554 1.524 . S
C1555 C1556 1.397 . S
C1555 C1560 1.363 . S
C1556 H1533 0.950 . S
C1556 C1555 1.397 . S
C1556 C1557 1.334 . S
C1557 H1534 0.950 . S
C1557 C1556 1.334 . S
C1557 C1558 1.287 . S
C1558 C1557 1.287 . S
C1558 C1559 1.524 . S
C1558 H1577 0.913 . S
C1559 H1535 0.950 . S
C1559 C1558 1.524 . S
C1559 C1560 1.415 . S
C1560 H1536 0.950 . S
C1560 C1555 1.363 . S
C1560 C1559 1.415 . S
C1561 H1537 0.951 . S
C1561 C1562 1.366 . S
C1561 C1563 1.388 . S
C1562 C1561 1.366 . S
C1562 C1566 1.385 . S
C1563 H1538 0.951 . S
C1563 C1561 1.388 . S
C1563 C1564 1.366 . S
C1564 C1563 1.366 . S
C1564 C1565 1.414 . S
C1564 C1567 1.499 . S
C1565 H1539 0.950 . S
C1565 C1564 1.414 . S
C1565 C1566 1.374 . S
C1566 H1540 0.950 . S
C1566 C1562 1.385 . S
C1566 C1565 1.374 . S
C1567 C1564 1.499 . S
C1567 C1568 1.373 . S
C1567 C1569 1.389 . S
C1568 H1541 0.950 . S
C1568 C1554 1.377 . S
C1568 C1567 1.373 . S
C1569 C1553 1.377 . S
C1569 C1567 1.389 . S
C1569 C1570 1.524 . S
C1570 C1569 1.524 . S
C1570 C1571 1.397 . S
C1570 C1575 1.363 . S
C1571 H1542 0.950 . S
C1571 C1570 1.397 . S
C1571 C1572 1.334 . S
C1572 H1543 0.950 . S
C1572 C1571 1.334 . S
C1572 C1573 1.287 . S
C1573 C1572 1.287 . S
C1573 C1574 1.524 . S
C1573 H1576 0.999 . S
C1574 H1544 0.950 . S
C1574 C1573 1.524 . S
C1574 C1575 1.415 . S
C1575 H1545 0.950 . S
C1575 C1570 1.363 . S
C1575 C1574 1.415 . S
H1576 C1573 0.999 . S
H1577 C1558 0.913 . S
H1578 C1596 0.951 . S
H1579 C1598 0.951 . S
H1580 C1600 0.950 . S
H1581 C1601 0.950 . S
H1582 C1603 0.950 . S
H1583 C1606 0.950 . S
H1584 C1607 0.950 . S
H1585 C1609 0.950 . S
H1586 C1610 0.950 . S
H1587 C1611 0.951 . S
H1588 C1613 0.951 . S
H1589 C1615 0.950 . S
H1590 C1616 0.950 . S
H1591 C1618 0.950 . S
H1592 C1621 0.950 . S
H1593 C1622 0.950 . S
H1594 C1624 0.950 . S
H1595 C1625 0.950 . S
C1596 H1578 0.951 . S
C1596 C1597 1.366 . S
C1596 C1598 1.388 . S
C1597 C1596 1.366 . S
C1597 C1601 1.385 . S
C1598 H1579 0.951 . S
C1598 C1596 1.388 . S
C1598 C1599 1.366 . S
C1599 C1598 1.366 . S
C1599 C1600 1.414 . S
C1599 C1602 1.499 . S
C1600 H1580 0.950 . S
C1600 C1599 1.414 . S
C1600 C1601 1.374 . S
C1601 H1581 0.950 . S
C1601 C1597 1.385 . S
C1601 C1600 1.374 . S
C1602 C1599 1.499 . S
C1602 C1603 1.373 1_455 S
C1602 C1604 1.389 . S
C1603 H1582 0.950 . S
C1603 C1602 1.373 1_655 S
C1603 C1619 1.377 . S
C1604 C1602 1.389 . S
C1604 C1605 1.524 . S
C1604 C1618 1.377 . S
C1605 C1604 1.524 . S
C1605 C1606 1.397 . S
C1605 C1610 1.363 . S
C1606 H1583 0.950 . S
C1606 C1605 1.397 . S
C1606 C1607 1.334 . S
C1607 H1584 0.950 . S
C1607 C1606 1.334 . S
C1607 C1608 1.287 . S
C1608 C1607 1.287 . S
C1608 C1609 1.524 . S
C1608 H1627 0.913 . S
C1609 H1585 0.950 . S
C1609 C1608 1.524 . S
C1609 C1610 1.415 . S
C1610 H1586 0.950 . S
C1610 C1605 1.363 . S
C1610 C1609 1.415 . S
C1611 H1587 0.951 . S
C1611 C1612 1.366 . S
C1611 C1613 1.388 . S
C1612 C1611 1.366 . S
C1612 C1616 1.385 . S
C1613 H1588 0.951 . S
C1613 C1611 1.388 . S
C1613 C1614 1.366 . S
C1614 C1613 1.366 . S
C1614 C1615 1.414 . S
C1614 C1617 1.499 . S
C1615 H1589 0.950 . S
C1615 C1614 1.414 . S
C1615 C1616 1.374 . S
C1616 H1590 0.950 . S
C1616 C1612 1.385 . S
C1616 C1615 1.374 . S
C1617 C1614 1.499 . S
C1617 C1618 1.373 1_655 S
C1617 C1619 1.389 . S
C1618 H1591 0.950 . S
C1618 C1604 1.377 . S
C1618 C1617 1.373 1_455 S
C1619 C1603 1.377 . S
C1619 C1617 1.389 . S
C1619 C1620 1.524 . S
C1620 C1619 1.524 . S
C1620 C1621 1.397 . S
C1620 C1625 1.363 . S
C1621 H1592 0.950 . S
C1621 C1620 1.397 . S
C1621 C1622 1.334 . S
C1622 H1593 0.950 . S
C1622 C1621 1.334 . S
C1622 C1623 1.287 . S
C1623 C1622 1.287 . S
C1623 C1624 1.524 . S
C1623 H1626 0.999 . S
C1624 H1594 0.950 . S
C1624 C1623 1.524 . S
C1624 C1625 1.415 . S
C1625 H1595 0.950 . S
C1625 C1620 1.363 . S
C1625 C1624 1.415 . S
H1626 C1623 0.999 . S
H1627 C1608 0.913 . S
H1628 C1646 0.951 . S
H1629 C1648 0.951 . S
H1630 C1650 0.950 . S
H1631 C1651 0.950 . S
H1632 C1653 0.950 . S
H1633 C1656 0.950 . S
H1634 C1657 0.950 . S
H1635 C1659 0.950 . S
H1636 C1660 0.950 . S
H1637 C1661 0.951 . S
H1638 C1663 0.951 . S
H1639 C1665 0.950 . S
H1640 C1666 0.950 . S
H1641 C1668 0.950 . S
H1642 C1671 0.950 . S
H1643 C1672 0.950 . S
H1644 C1674 0.950 . S
H1645 C1675 0.950 . S
C1646 H1628 0.951 . S
C1646 C1647 1.366 . S
C1646 C1648 1.388 . S
C1647 C1646 1.366 . S
C1647 C1651 1.385 . S
C1648 H1629 0.951 . S
C1648 C1646 1.388 . S
C1648 C1649 1.366 . S
C1649 C1648 1.366 . S
C1649 C1650 1.414 . S
C1649 C1652 1.499 . S
C1650 H1630 0.950 . S
C1650 C1649 1.414 . S
C1650 C1651 1.374 . S
C1651 H1631 0.950 . S
C1651 C1647 1.385 . S
C1651 C1650 1.374 . S
C1652 C1649 1.499 . S
C1652 C1653 1.373 . S
C1652 C1654 1.389 1_554 S
C1653 H1632 0.950 . S
C1653 C1652 1.373 . S
C1653 C1669 1.377 1_455 S
C1654 C1652 1.389 1_556 S
C1654 C1655 1.524 . S
C1654 C1668 1.377 1_455 S
C1655 C1654 1.524 . S
C1655 C1656 1.397 . S
C1655 C1660 1.363 . S
C1656 H1633 0.950 . S
C1656 C1655 1.397 . S
C1656 C1657 1.334 . S
C1657 H1634 0.950 . S
C1657 C1656 1.334 . S
C1657 C1658 1.287 . S
C1658 C1657 1.287 . S
C1658 C1659 1.524 . S
C1658 H1677 0.913 . S
C1659 H1635 0.950 . S
C1659 C1658 1.524 . S
C1659 C1660 1.415 . S
C1660 H1636 0.950 . S
C1660 C1655 1.363 . S
C1660 C1659 1.415 . S
C1661 H1637 0.951 . S
C1661 C1662 1.366 . S
C1661 C1663 1.388 . S
C1662 C1661 1.366 . S
C1662 C1666 1.385 . S
C1663 H1638 0.951 . S
C1663 C1661 1.388 . S
C1663 C1664 1.366 . S
C1664 C1663 1.366 . S
C1664 C1665 1.414 . S
C1664 C1667 1.499 . S
C1665 H1639 0.950 . S
C1665 C1664 1.414 . S
C1665 C1666 1.374 . S
C1666 H1640 0.950 . S
C1666 C1662 1.385 . S
C1666 C1665 1.374 . S
C1667 C1664 1.499 . S
C1667 C1668 1.373 . S
C1667 C1669 1.389 1_556 S
C1668 H1641 0.950 . S
C1668 C1654 1.377 1_655 S
C1668 C1667 1.373 . S
C1669 C1653 1.377 1_655 S
C1669 C1667 1.389 1_554 S
C1669 C1670 1.524 . S
C1670 C1669 1.524 . S
C1670 C1671 1.397 . S
C1670 C1675 1.363 . S
C1671 H1642 0.950 . S
C1671 C1670 1.397 . S
C1671 C1672 1.334 . S
C1672 H1643 0.950 . S
C1672 C1671 1.334 . S
C1672 C1673 1.287 . S
C1673 C1672 1.287 . S
C1673 C1674 1.524 . S
C1673 H1676 0.999 . S
C1674 H1644 0.950 . S
C1674 C1673 1.524 . S
C1674 C1675 1.415 . S
C1675 H1645 0.950 . S
C1675 C1670 1.363 . S
C1675 C1674 1.415 . S
H1676 C1673 0.999 . S
H1677 C1658 0.913 . S
H1678 C1696 0.951 . S
H1679 C1698 0.951 . S
H1680 C1700 0.950 . S
H1681 C1701 0.950 . S
H1682 C1703 0.950 . S
H1683 C1706 0.950 . S
H1684 C1707 0.950 . S
H1685 C1709 0.950 . S
H1686 C1710 0.950 . S
H1687 C1711 0.951 . S
H1688 C1713 0.951 . S
H1689 C1715 0.950 . S
H1690 C1716 0.950 . S
H1691 C1718 0.950 . S
H1692 C1721 0.950 . S
H1693 C1722 0.950 . S
H1694 C1724 0.950 . S
H1695 C1725 0.950 . S
C1696 H1678 0.951 . S
C1696 C1697 1.366 . S
C1696 C1698 1.388 . S
C1697 C1696 1.366 . S
C1697 C1701 1.385 . S
C1698 H1679 0.951 . S
C1698 C1696 1.388 . S
C1698 C1699 1.366 . S
C1699 C1698 1.366 . S
C1699 C1700 1.414 . S
C1699 C1702 1.499 . S
C1700 H1680 0.950 . S
C1700 C1699 1.414 . S
C1700 C1701 1.374 . S
C1701 H1681 0.950 . S
C1701 C1697 1.385 . S
C1701 C1700 1.374 . S
C1702 C1699 1.499 . S
C1702 C1703 1.373 1_556 S
C1702 C1704 1.389 . S
C1703 H1682 0.950 . S
C1703 C1702 1.373 1_554 S
C1703 C1719 1.377 . S
C1704 C1702 1.389 . S
C1704 C1705 1.524 . S
C1704 C1718 1.377 . S
C1705 C1704 1.524 . S
C1705 C1706 1.397 . S
C1705 C1710 1.363 . S
C1706 H1683 0.950 . S
C1706 C1705 1.397 . S
C1706 C1707 1.334 . S
C1707 H1684 0.950 . S
C1707 C1706 1.334 . S
C1707 C1708 1.287 . S
C1708 C1707 1.287 . S
C1708 C1709 1.524 . S
C1708 H1727 0.913 . S
C1709 H1685 0.950 . S
C1709 C1708 1.524 . S
C1709 C1710 1.415 . S
C1710 H1686 0.950 . S
C1710 C1705 1.363 . S
C1710 C1709 1.415 . S
C1711 H1687 0.951 . S
C1711 C1712 1.366 . S
C1711 C1713 1.388 . S
C1712 C1711 1.366 . S
C1712 C1716 1.385 . S
C1713 H1688 0.951 . S
C1713 C1711 1.388 . S
C1713 C1714 1.366 . S
C1714 C1713 1.366 . S
C1714 C1715 1.414 . S
C1714 C1717 1.499 . S
C1715 H1689 0.950 . S
C1715 C1714 1.414 . S
C1715 C1716 1.374 . S
C1716 H1690 0.950 . S
C1716 C1712 1.385 . S
C1716 C1715 1.374 . S
C1717 C1714 1.499 . S
C1717 C1718 1.373 1_554 S
C1717 C1719 1.389 . S
C1718 H1691 0.950 . S
C1718 C1704 1.377 . S
C1718 C1717 1.373 1_556 S
C1719 C1703 1.377 . S
C1719 C1717 1.389 . S
C1719 C1720 1.524 . S
C1720 C1719 1.524 . S
C1720 C1721 1.397 . S
C1720 C1725 1.363 . S
C1721 H1692 0.950 . S
C1721 C1720 1.397 . S
C1721 C1722 1.334 . S
C1722 H1693 0.950 . S
C1722 C1721 1.334 . S
C1722 C1723 1.287 . S
C1723 C1722 1.287 . S
C1723 C1724 1.524 . S
C1723 H1726 0.999 . S
C1724 H1694 0.950 . S
C1724 C1723 1.524 . S
C1724 C1725 1.415 . S
C1725 H1695 0.950 . S
C1725 C1720 1.363 . S
C1725 C1724 1.415 . S
H1726 C1723 0.999 . S
H1727 C1708 0.913 . S
H1728 C1746 0.951 . S
H1729 C1748 0.951 . S
H1730 C1750 0.950 . S
H1731 C1751 0.950 . S
H1732 C1753 0.950 . S
H1733 C1756 0.950 . S
H1734 C1757 0.950 . S
H1735 C1759 0.950 . S
H1736 C1760 0.950 . S
H1737 C1761 0.951 . S
H1738 C1763 0.951 . S
H1739 C1765 0.950 . S
H1740 C1766 0.950 . S
H1741 C1768 0.950 . S
H1742 C1771 0.950 . S
H1743 C1772 0.950 . S
H1744 C1774 0.950 . S
H1745 C1775 0.950 . S
C1746 H1728 0.951 . S
C1746 C1747 1.366 . S
C1746 C1748 1.388 . S
C1747 C1746 1.366 . S
C1747 C1751 1.385 . S
C1748 H1729 0.951 . S
C1748 C1746 1.388 . S
C1748 C1749 1.366 . S
C1749 C1748 1.366 . S
C1749 C1750 1.414 . S
C1749 C1752 1.499 . S
C1750 H1730 0.950 . S
C1750 C1749 1.414 . S
C1750 C1751 1.374 . S
C1751 H1731 0.950 . S
C1751 C1747 1.385 . S
C1751 C1750 1.374 . S
C1752 C1749 1.499 . S
C1752 C1753 1.373 . S
C1752 C1754 1.389 . S
C1753 H1732 0.950 . S
C1753 C1752 1.373 . S
C1753 C1769 1.377 1_545 S
C1754 C1752 1.389 . S
C1754 C1755 1.524 . S
C1754 C1768 1.377 1_545 S
C1755 C1754 1.524 . S
C1755 C1756 1.397 . S
C1755 C1760 1.363 1_545 S
C1756 H1733 0.950 . S
C1756 C1755 1.397 . S
C1756 C1757 1.334 . S
C1757 H1734 0.950 . S
C1757 C1756 1.334 . S
C1757 C1758 1.287 . S
C1758 C1757 1.287 . S
C1758 C1759 1.524 1_545 S
C1758 H1777 0.913 . S
C1759 H1735 0.950 . S
C1759 C1758 1.524 1_565 S
C1759 C1760 1.415 . S
C1760 H1736 0.950 . S
C1760 C1755 1.363 1_565 S
C1760 C1759 1.415 . S
C1761 H1737 0.951 . S
C1761 C1762 1.366 . S
C1761 C1763 1.388 . S
C1762 C1761 1.366 . S
C1762 C1766 1.385 . S
C1763 H1738 0.951 . S
C1763 C1761 1.388 . S
C1763 C1764 1.366 . S
C1764 C1763 1.366 . S
C1764 C1765 1.414 . S
C1764 C1767 1.499 . S
C1765 H1739 0.950 . S
C1765 C1764 1.414 . S
C1765 C1766 1.374 . S
C1766 H1740 0.950 . S
C1766 C1762 1.385 . S
C1766 C1765 1.374 . S
C1767 C1764 1.499 . S
C1767 C1768 1.373 . S
C1767 C1769 1.389 . S
C1768 H1741 0.950 . S
C1768 C1754 1.377 1_565 S
C1768 C1767 1.373 . S
C1769 C1753 1.377 1_565 S
C1769 C1767 1.389 . S
C1769 C1770 1.524 . S
C1770 C1769 1.524 . S
C1770 C1771 1.397 . S
C1770 C1775 1.363 1_565 S
C1771 H1742 0.950 . S
C1771 C1770 1.397 . S
C1771 C1772 1.334 . S
C1772 H1743 0.950 . S
C1772 C1771 1.334 . S
C1772 C1773 1.287 . S
C1773 C1772 1.287 . S
C1773 C1774 1.524 1_565 S
C1773 H1776 0.999 . S
C1774 H1744 0.950 . S
C1774 C1773 1.524 1_545 S
C1774 C1775 1.415 . S
C1775 H1745 0.950 . S
C1775 C1770 1.363 1_545 S
C1775 C1774 1.415 . S
H1776 C1773 0.999 . S
H1777 C1758 0.913 . S
H1778 C1796 0.951 . S
H1779 C1798 0.951 . S
H1780 C1800 0.950 . S
H1781 C1801 0.950 . S
H1782 C1803 0.950 . S
H1783 C1806 0.950 . S
H1784 C1807 0.950 . S
H1785 C1809 0.950 . S
H1786 C1810 0.950 . S
H1787 C1811 0.951 . S
H1788 C1813 0.951 . S
H1789 C1815 0.950 . S
H1790 C1816 0.950 . S
H1791 C1818 0.950 . S
H1792 C1821 0.950 . S
H1793 C1822 0.950 . S
H1794 C1824 0.950 . S
H1795 C1825 0.950 . S
C1796 H1778 0.951 . S
C1796 C1797 1.366 . S
C1796 C1798 1.388 . S
C1797 C1796 1.366 . S
C1797 C1801 1.385 . S
C1798 H1779 0.951 . S
C1798 C1796 1.388 . S
C1798 C1799 1.366 . S
C1799 C1798 1.366 . S
C1799 C1800 1.414 . S
C1799 C1802 1.499 . S
C1800 H1780 0.950 . S
C1800 C1799 1.414 . S
C1800 C1801 1.374 . S
C1801 H1781 0.950 . S
C1801 C1797 1.385 . S
C1801 C1800 1.374 . S
C1802 C1799 1.499 . S
C1802 C1803 1.373 1_545 S
C1802 C1804 1.389 . S
C1803 H1782 0.950 . S
C1803 C1802 1.373 1_565 S
C1803 C1819 1.377 . S
C1804 C1802 1.389 . S
C1804 C1805 1.524 . S
C1804 C1818 1.377 . S
C1805 C1804 1.524 . S
C1805 C1806 1.397 . S
C1805 C1810 1.363 . S
C1806 H1783 0.950 . S
C1806 C1805 1.397 . S
C1806 C1807 1.334 . S
C1807 H1784 0.950 . S
C1807 C1806 1.334 . S
C1807 C1808 1.287 . S
C1808 C1807 1.287 . S
C1808 C1809 1.524 . S
C1808 H1827 0.913 . S
C1809 H1785 0.950 . S
C1809 C1808 1.524 . S
C1809 C1810 1.415 . S
C1810 H1786 0.950 . S
C1810 C1805 1.363 . S
C1810 C1809 1.415 . S
C1811 H1787 0.951 . S
C1811 C1812 1.366 . S
C1811 C1813 1.388 . S
C1812 C1811 1.366 . S
C1812 C1816 1.385 . S
C1813 H1788 0.951 . S
C1813 C1811 1.388 . S
C1813 C1814 1.366 . S
C1814 C1813 1.366 . S
C1814 C1815 1.414 . S
C1814 C1817 1.499 . S
C1815 H1789 0.950 . S
C1815 C1814 1.414 . S
C1815 C1816 1.374 . S
C1816 H1790 0.950 . S
C1816 C1812 1.385 . S
C1816 C1815 1.374 . S
C1817 C1814 1.499 . S
C1817 C1818 1.373 1_565 S
C1817 C1819 1.389 . S
C1818 H1791 0.950 . S
C1818 C1804 1.377 . S
C1818 C1817 1.373 1_545 S
C1819 C1803 1.377 . S
C1819 C1817 1.389 . S
C1819 C1820 1.524 . S
C1820 C1819 1.524 . S
C1820 C1821 1.397 . S
C1820 C1825 1.363 . S
C1821 H1792 0.950 . S
C1821 C1820 1.397 . S
C1821 C1822 1.334 . S
C1822 H1793 0.950 . S
C1822 C1821 1.334 . S
C1822 C1823 1.287 . S
C1823 C1822 1.287 . S
C1823 C1824 1.524 . S
C1823 H1826 0.999 . S
C1824 H1794 0.950 . S
C1824 C1823 1.524 . S
C1824 C1825 1.415 . S
C1825 H1795 0.950 . S
C1825 C1820 1.363 . S
C1825 C1824 1.415 . S
H1826 C1823 0.999 . S
H1827 C1808 0.913 . S
H1828 C1846 0.951 . S
H1829 C1848 0.951 . S
H1830 C1850 0.950 . S
H1831 C1851 0.950 . S
H1832 C1853 0.950 . S
H1833 C1856 0.950 1_545 S
H1834 C1857 0.950 . S
H1835 C1859 0.950 . S
H1836 C1860 0.950 . S
H1837 C1861 0.951 . S
H1838 C1863 0.951 . S
H1839 C1865 0.950 . S
H1840 C1866 0.950 . S
H1841 C1868 0.950 . S
H1842 C1871 0.950 1_565 S
H1843 C1872 0.950 . S
H1844 C1874 0.950 . S
H1845 C1875 0.950 . S
C1846 H1828 0.951 . S
C1846 C1847 1.366 . S
C1846 C1848 1.388 . S
C1847 C1846 1.366 . S
C1847 C1851 1.385 . S
C1848 H1829 0.951 . S
C1848 C1846 1.388 . S
C1848 C1849 1.366 . S
C1849 C1848 1.366 . S
C1849 C1850 1.414 . S
C1849 C1852 1.499 . S
C1850 H1830 0.950 . S
C1850 C1849 1.414 . S
C1850 C1851 1.374 . S
C1851 H1831 0.950 . S
C1851 C1847 1.385 . S
C1851 C1850 1.374 . S
C1852 C1849 1.499 . S
C1852 C1853 1.373 . S
C1852 C1854 1.389 1_545 S
C1853 H1832 0.950 . S
C1853 C1852 1.373 . S
C1853 C1869 1.377 . S
C1854 C1852 1.389 1_565 S
C1854 C1855 1.524 . S
C1854 C1868 1.377 . S
C1855 C1854 1.524 . S
C1855 C1856 1.397 . S
C1855 C1860 1.363 . S
C1856 H1833 0.950 1_565 S
C1856 C1855 1.397 . S
C1856 C1857 1.334 . S
C1857 H1834 0.950 . S
C1857 C1856 1.334 . S
C1857 C1858 1.287 . S
C1858 C1857 1.287 . S
C1858 C1859 1.524 . S
C1858 H1877 0.913 . S
C1859 H1835 0.950 . S
C1859 C1858 1.524 . S
C1859 C1860 1.415 . S
C1860 H1836 0.950 . S
C1860 C1855 1.363 . S
C1860 C1859 1.415 . S
C1861 H1837 0.951 . S
C1861 C1862 1.366 . S
C1861 C1863 1.388 . S
C1862 C1861 1.366 . S
C1862 C1866 1.385 . S
C1863 H1838 0.951 . S
C1863 C1861 1.388 . S
C1863 C1864 1.366 . S
C1864 C1863 1.366 . S
C1864 C1865 1.414 . S
C1864 C1867 1.499 . S
C1865 H1839 0.950 . S
C1865 C1864 1.414 . S
C1865 C1866 1.374 . S
C1866 H1840 0.950 . S
C1866 C1862 1.385 . S
C1866 C1865 1.374 . S
C1867 C1864 1.499 . S
C1867 C1868 1.373 . S
C1867 C1869 1.389 1_565 S
C1868 H1841 0.950 . S
C1868 C1854 1.377 . S
C1868 C1867 1.373 . S
C1869 C1853 1.377 . S
C1869 C1867 1.389 1_545 S
C1869 C1870 1.524 . S
C1870 C1869 1.524 . S
C1870 C1871 1.397 . S
C1870 C1875 1.363 . S
C1871 H1842 0.950 1_545 S
C1871 C1870 1.397 . S
C1871 C1872 1.334 . S
C1872 H1843 0.950 . S
C1872 C1871 1.334 . S
C1872 C1873 1.287 . S
C1873 C1872 1.287 . S
C1873 C1874 1.524 . S
C1873 H1876 0.999 . S
C1874 H1844 0.950 . S
C1874 C1873 1.524 . S
C1874 C1875 1.415 . S
C1875 H1845 0.950 . S
C1875 C1870 1.363 . S
C1875 C1874 1.415 . S
H1876 C1873 0.999 . S
H1877 C1858 0.913 . S
H1878 C1896 0.951 . S
H1879 C1898 0.951 . S
H1880 C1900 0.950 . S
H1881 C1901 0.950 . S
H1882 C1903 0.950 . S
H1883 C1906 0.950 . S
H1884 C1907 0.950 . S
H1885 C1909 0.950 . S
H1886 C1910 0.950 . S
H1887 C1911 0.951 . S
H1888 C1913 0.951 . S
H1889 C1915 0.950 . S
H1890 C1916 0.950 . S
H1891 C1918 0.950 . S
H1892 C1921 0.950 . S
H1893 C1922 0.950 . S
H1894 C1924 0.950 . S
H1895 C1925 0.950 . S
C1896 H1878 0.951 . S
C1896 C1897 1.366 . S
C1896 C1898 1.388 . S
C1897 C1896 1.366 . S
C1897 C1901 1.385 . S
C1898 H1879 0.951 . S
C1898 C1896 1.388 . S
C1898 C1899 1.366 . S
C1899 C1898 1.366 . S
C1899 C1900 1.414 . S
C1899 C1902 1.499 . S
C1900 H1880 0.950 . S
C1900 C1899 1.414 . S
C1900 C1901 1.374 . S
C1901 H1881 0.950 . S
C1901 C1897 1.385 . S
C1901 C1900 1.374 . S
C1902 C1899 1.499 . S
C1902 C1903 1.373 . S
C1902 C1904 1.417 . S
C1903 H1882 0.950 . S
C1903 C1902 1.373 . S
C1903 C1919 1.348 1_545 S
C1904 C1902 1.417 . S
C1904 C1905 1.524 . S
C1904 C1918 1.348 1_545 S
C1905 C1904 1.524 . S
C1905 C1906 1.429 . S
C1905 C1910 1.331 1_545 S
C1906 H1883 0.950 . S
C1906 C1905 1.429 . S
C1906 C1907 1.334 . S
C1907 H1884 0.950 . S
C1907 C1906 1.334 . S
C1907 C1908 1.287 . S
C1908 C1907 1.287 . S
C1908 C1909 1.524 1_545 S
C1908 H1927 0.913 . S
C1909 H1885 0.950 . S
C1909 C1908 1.524 1_565 S
C1909 C1910 1.415 . S
C1910 H1886 0.950 . S
C1910 C1905 1.331 1_565 S
C1910 C1909 1.415 . S
C1911 H1887 0.951 . S
C1911 C1912 1.366 . S
C1911 C1913 1.388 . S
C1912 C1911 1.366 . S
C1912 C1916 1.385 . S
C1913 H1888 0.951 . S
C1913 C1911 1.388 . S
C1913 C1914 1.366 . S
C1914 C1913 1.366 . S
C1914 C1915 1.414 . S
C1914 C1917 1.499 . S
C1915 H1889 0.950 . S
C1915 C1914 1.414 . S
C1915 C1916 1.374 . S
C1916 H1890 0.950 . S
C1916 C1912 1.385 . S
C1916 C1915 1.374 . S
C1917 C1914 1.499 . S
C1917 C1918 1.373 . S
C1917 C1919 1.417 . S
C1918 H1891 0.950 . S
C1918 C1904 1.348 1_565 S
C1918 C1917 1.373 . S
C1919 C1903 1.348 1_565 S
C1919 C1917 1.417 . S
C1919 C1920 1.524 . S
C1920 C1919 1.524 . S
C1920 C1921 1.428 . S
C1920 C1925 1.331 1_565 S
C1921 H1892 0.950 . S
C1921 C1920 1.428 . S
C1921 C1922 1.334 . S
C1922 H1893 0.950 . S
C1922 C1921 1.334 . S
C1922 C1923 1.287 . S
C1923 C1922 1.287 . S
C1923 C1924 1.524 1_565 S
C1923 H1926 0.999 . S
C1924 H1894 0.950 . S
C1924 C1923 1.524 1_545 S
C1924 C1925 1.415 . S
C1925 H1895 0.950 . S
C1925 C1920 1.331 1_545 S
C1925 C1924 1.415 . S
H1926 C1923 0.999 . S
H1927 C1908 0.913 . S
H1928 C1946 0.951 . S
H1929 C1948 0.951 . S
H1930 C1950 0.950 . S
H1931 C1951 0.950 . S
H1932 C1953 0.950 . S
H1933 C1956 0.950 . S
H1934 C1957 0.950 . S
H1935 C1959 0.950 . S
H1936 C1960 0.950 . S
H1937 C1961 0.951 . S
H1938 C1963 0.951 . S
H1939 C1965 0.950 . S
H1940 C1966 0.950 . S
H1941 C1968 0.950 . S
H1942 C1971 0.950 . S
H1943 C1972 0.950 . S
H1944 C1974 0.950 . S
H1945 C1975 0.950 . S
C1946 H1928 0.951 . S
C1946 C1947 1.366 . S
C1946 C1948 1.388 . S
C1947 C1946 1.366 . S
C1947 C1951 1.385 . S
C1948 H1929 0.951 . S
C1948 C1946 1.388 . S
C1948 C1949 1.366 . S
C1949 C1948 1.366 . S
C1949 C1950 1.414 . S
C1949 C1952 1.499 . S
C1950 H1930 0.950 . S
C1950 C1949 1.414 . S
C1950 C1951 1.374 . S
C1951 H1931 0.950 . S
C1951 C1947 1.385 . S
C1951 C1950 1.374 . S
C1952 C1949 1.499 . S
C1952 C1953 1.373 . S
C1952 C1954 1.389 . S
C1953 H1932 0.950 . S
C1953 C1952 1.373 . S
C1953 C1969 1.377 . S
C1954 C1952 1.389 . S
C1954 C1955 1.524 . S
C1954 C1968 1.377 . S
C1955 C1954 1.524 . S
C1955 C1956 1.397 . S
C1955 C1960 1.363 . S
C1956 H1933 0.950 . S
C1956 C1955 1.397 . S
C1956 C1957 1.334 . S
C1957 H1934 0.950 . S
C1957 C1956 1.334 . S
C1957 C1958 1.287 . S
C1958 C1957 1.287 . S
C1958 C1959 1.524 . S
C1958 H1977 0.913 . S
C1959 H1935 0.950 . S
C1959 C1958 1.524 . S
C1959 C1960 1.415 . S
C1960 H1936 0.950 . S
C1960 C1955 1.363 . S
C1960 C1959 1.415 . S
C1961 H1937 0.951 . S
C1961 C1962 1.366 . S
C1961 C1963 1.388 . S
C1962 C1961 1.366 . S
C1962 C1966 1.385 . S
C1963 H1938 0.951 . S
C1963 C1961 1.388 . S
C1963 C1964 1.366 . S
C1964 C1963 1.366 . S
C1964 C1965 1.414 . S
C1964 C1967 1.499 . S
C1965 H1939 0.950 . S
C1965 C1964 1.414 . S
C1965 C1966 1.374 . S
C1966 H1940 0.950 . S
C1966 C1962 1.385 . S
C1966 C1965 1.374 . S
C1967 C1964 1.499 . S
C1967 C1968 1.373 . S
C1967 C1969 1.389 . S
C1968 H1941 0.950 . S
C1968 C1954 1.377 . S
C1968 C1967 1.373 . S
C1969 C1953 1.377 . S
C1969 C1967 1.389 . S
C1969 C1970 1.524 . S
C1970 C1969 1.524 . S
C1970 C1971 1.397 . S
C1970 C1975 1.363 . S
C1971 H1942 0.950 . S
C1971 C1970 1.397 . S
C1971 C1972 1.334 . S
C1972 H1943 0.950 . S
C1972 C1971 1.334 . S
C1972 C1973 1.287 . S
C1973 C1972 1.287 . S
C1973 C1974 1.524 . S
C1973 H1976 0.999 . S
C1974 H1944 0.950 . S
C1974 C1973 1.524 . S
C1974 C1975 1.415 . S
C1975 H1945 0.950 . S
C1975 C1970 1.363 . S
C1975 C1974 1.415 . S
H1976 C1973 0.999 . S
H1977 C1958 0.913 . S
H1978 C1996 0.951 . S
H1979 C1998 0.951 . S
H1980 C2000 0.950 . S
H1981 C2001 0.950 . S
H1982 C2003 0.950 . S
H1983 C2006 0.950 . S
H1984 C2007 0.950 . S
H1985 C2009 0.950 . S
H1986 C2010 0.950 . S
H1987 C2011 0.951 . S
H1988 C2013 0.951 . S
H1989 C2015 0.950 . S
H1990 C2016 0.950 . S
H1991 C2018 0.950 . S
H1992 C2021 0.950 . S
H1993 C2022 0.950 . S
H1994 C2024 0.950 . S
H1995 C2025 0.950 . S
C1996 H1978 0.951 . S
C1996 C1997 1.366 . S
C1996 C1998 1.388 . S
C1997 C1996 1.366 . S
C1997 C2001 1.385 . S
C1998 H1979 0.951 . S
C1998 C1996 1.388 . S
C1998 C1999 1.366 . S
C1999 C1998 1.366 . S
C1999 C2000 1.414 . S
C1999 C2002 1.499 . S
C2000 H1980 0.950 . S
C2000 C1999 1.414 . S
C2000 C2001 1.374 . S
C2001 H1981 0.950 . S
C2001 C1997 1.385 . S
C2001 C2000 1.374 . S
C2002 C1999 1.499 . S
C2002 C2003 1.373 . S
C2002 C2004 1.389 . S
C2003 H1982 0.950 . S
C2003 C2002 1.373 . S
C2003 C2019 1.377 . S
C2004 C2002 1.389 . S
C2004 C2005 1.524 . S
C2004 C2018 1.377 . S
C2005 C2004 1.524 . S
C2005 C2006 1.397 . S
C2005 C2010 1.363 . S
C2006 H1983 0.950 . S
C2006 C2005 1.397 . S
C2006 C2007 1.334 . S
C2007 H1984 0.950 . S
C2007 C2006 1.334 . S
C2007 C2008 1.287 . S
C2008 C2007 1.287 . S
C2008 C2009 1.524 . S
C2008 H2027 0.913 . S
C2009 H1985 0.950 . S
C2009 C2008 1.524 . S
C2009 C2010 1.415 . S
C2010 H1986 0.950 . S
C2010 C2005 1.363 . S
C2010 C2009 1.415 . S
C2011 H1987 0.951 . S
C2011 C2012 1.366 . S
C2011 C2013 1.388 . S
C2012 C2011 1.366 . S
C2012 C2016 1.385 . S
C2013 H1988 0.951 . S
C2013 C2011 1.388 . S
C2013 C2014 1.366 . S
C2014 C2013 1.366 . S
C2014 C2015 1.414 . S
C2014 C2017 1.499 . S
C2015 H1989 0.950 . S
C2015 C2014 1.414 . S
C2015 C2016 1.374 . S
C2016 H1990 0.950 . S
C2016 C2012 1.385 . S
C2016 C2015 1.374 . S
C2017 C2014 1.499 . S
C2017 C2018 1.373 . S
C2017 C2019 1.389 . S
C2018 H1991 0.950 . S
C2018 C2004 1.377 . S
C2018 C2017 1.373 . S
C2019 C2003 1.377 . S
C2019 C2017 1.389 . S
C2019 C2020 1.524 . S
C2020 C2019 1.524 . S
C2020 C2021 1.397 . S
C2020 C2025 1.363 . S
C2021 H1992 0.950 . S
C2021 C2020 1.397 . S
C2021 C2022 1.334 . S
C2022 H1993 0.950 . S
C2022 C2021 1.334 . S
C2022 C2023 1.287 . S
C2023 C2022 1.287 . S
C2023 C2024 1.524 . S
C2023 H2026 0.999 . S
C2024 H1994 0.950 . S
C2024 C2023 1.524 . S
C2024 C2025 1.415 . S
C2025 H1995 0.950 . S
C2025 C2020 1.363 . S
C2025 C2024 1.415 . S
H2026 C2023 0.999 . S
H2027 C2008 0.913 . S
H2028 C2046 0.951 . S
H2029 C2048 0.951 . S
H2030 C2050 0.950 . S
H2031 C2051 0.950 . S
H2032 C2053 0.950 . S
H2033 C2056 0.950 . S
H2034 C2057 0.950 . S
H2035 C2059 0.950 . S
H2036 C2060 0.950 . S
H2037 C2061 0.951 . S
H2038 C2063 0.951 . S
H2039 C2065 0.950 . S
H2040 C2066 0.950 . S
H2041 C2068 0.950 . S
H2042 C2071 0.950 . S
H2043 C2072 0.950 . S
H2044 C2074 0.950 . S
H2045 C2075 0.950 . S
C2046 H2028 0.951 . S
C2046 C2047 1.366 . S
C2046 C2048 1.388 . S
C2047 C2046 1.366 . S
C2047 C2051 1.385 . S
C2048 H2029 0.951 . S
C2048 C2046 1.388 . S
C2048 C2049 1.366 . S
C2049 C2048 1.366 . S
C2049 C2050 1.414 . S
C2049 C2052 1.499 . S
C2050 H2030 0.950 . S
C2050 C2049 1.414 . S
C2050 C2051 1.374 . S
C2051 H2031 0.950 . S
C2051 C2047 1.385 . S
C2051 C2050 1.374 . S
C2052 C2049 1.499 . S
C2052 C2053 1.373 . S
C2052 C2054 1.389 . S
C2053 H2032 0.950 . S
C2053 C2052 1.373 . S
C2053 C2069 1.377 . S
C2054 C2052 1.389 . S
C2054 C2055 1.524 . S
C2054 C2068 1.377 . S
C2055 C2054 1.524 . S
C2055 C2056 1.397 . S
C2055 C2060 1.363 . S
C2056 H2033 0.950 . S
C2056 C2055 1.397 . S
C2056 C2057 1.334 . S
C2057 H2034 0.950 . S
C2057 C2056 1.334 . S
C2057 C2058 1.287 . S
C2058 C2057 1.287 . S
C2058 C2059 1.524 . S
C2058 H2077 0.913 . S
C2059 H2035 0.950 . S
C2059 C2058 1.524 . S
C2059 C2060 1.415 . S
C2060 H2036 0.950 . S
C2060 C2055 1.363 . S
C2060 C2059 1.415 . S
C2061 H2037 0.951 . S
C2061 C2062 1.366 . S
C2061 C2063 1.388 . S
C2062 C2061 1.366 . S
C2062 C2066 1.385 . S
C2063 H2038 0.951 . S
C2063 C2061 1.388 . S
C2063 C2064 1.366 . S
C2064 C2063 1.366 . S
C2064 C2065 1.414 . S
C2064 C2067 1.499 . S
C2065 H2039 0.950 . S
C2065 C2064 1.414 . S
C2065 C2066 1.374 . S
C2066 H2040 0.950 . S
C2066 C2062 1.385 . S
C2066 C2065 1.374 . S
C2067 C2064 1.499 . S
C2067 C2068 1.373 . S
C2067 C2069 1.389 . S
C2068 H2041 0.950 . S
C2068 C2054 1.377 . S
C2068 C2067 1.373 . S
C2069 C2053 1.377 . S
C2069 C2067 1.389 . S
C2069 C2070 1.524 . S
C2070 C2069 1.524 . S
C2070 C2071 1.397 . S
C2070 C2075 1.363 . S
C2071 H2042 0.950 . S
C2071 C2070 1.397 . S
C2071 C2072 1.334 . S
C2072 H2043 0.950 . S
C2072 C2071 1.334 . S
C2072 C2073 1.287 . S
C2073 C2072 1.287 . S
C2073 C2074 1.524 . S
C2073 H2076 0.999 . S
C2074 H2044 0.950 . S
C2074 C2073 1.524 . S
C2074 C2075 1.415 . S
C2075 H2045 0.950 . S
C2075 C2070 1.363 . S
C2075 C2074 1.415 . S
H2076 C2073 0.999 . S
H2077 C2058 0.913 . S
H2078 C2096 0.951 . S
H2079 C2098 0.951 . S
H2080 C2100 0.950 . S
H2081 C2101 0.950 . S
H2082 C2103 0.950 . S
H2083 C2106 0.950 . S
H2084 C2107 0.950 . S
H2085 C2109 0.950 . S
H2086 C2110 0.950 . S
H2087 C2111 0.951 . S
H2088 C2113 0.951 . S
H2089 C2115 0.950 . S
H2090 C2116 0.950 . S
H2091 C2118 0.950 . S
H2092 C2121 0.950 . S
H2093 C2122 0.950 . S
H2094 C2124 0.950 . S
H2095 C2125 0.950 . S
C2096 H2078 0.951 . S
C2096 C2097 1.366 . S
C2096 C2098 1.388 . S
C2097 C2096 1.366 . S
C2097 C2101 1.385 . S
C2098 H2079 0.951 . S
C2098 C2096 1.388 . S
C2098 C2099 1.366 . S
C2099 C2098 1.366 . S
C2099 C2100 1.414 . S
C2099 C2102 1.499 . S
C2100 H2080 0.950 . S
C2100 C2099 1.414 . S
C2100 C2101 1.374 . S
C2101 H2081 0.950 . S
C2101 C2097 1.385 . S
C2101 C2100 1.374 . S
C2102 C2099 1.499 . S
C2102 C2103 1.373 . S
C2102 C2104 1.389 . S
C2103 H2082 0.950 . S
C2103 C2102 1.373 . S
C2103 C2119 1.377 . S
C2104 C2102 1.389 . S
C2104 C2105 1.524 . S
C2104 C2118 1.377 . S
C2105 C2104 1.524 . S
C2105 C2106 1.397 . S
C2105 C2110 1.363 . S
C2106 H2083 0.950 . S
C2106 C2105 1.397 . S
C2106 C2107 1.334 . S
C2107 H2084 0.950 . S
C2107 C2106 1.334 . S
C2107 C2108 1.287 . S
C2108 C2107 1.287 . S
C2108 C2109 1.524 . S
C2108 H2127 0.913 . S
C2109 H2085 0.950 . S
C2109 C2108 1.524 . S
C2109 C2110 1.415 . S
C2110 H2086 0.950 . S
C2110 C2105 1.363 . S
C2110 C2109 1.415 . S
C2111 H2087 0.951 . S
C2111 C2112 1.366 . S
C2111 C2113 1.388 . S
C2112 C2111 1.366 . S
C2112 C2116 1.385 . S
C2113 H2088 0.951 . S
C2113 C2111 1.388 . S
C2113 C2114 1.366 . S
C2114 C2113 1.366 . S
C2114 C2115 1.414 . S
C2114 C2117 1.499 . S
C2115 H2089 0.950 . S
C2115 C2114 1.414 . S
C2115 C2116 1.374 . S
C2116 H2090 0.950 . S
C2116 C2112 1.385 . S
C2116 C2115 1.374 . S
C2117 C2114 1.499 . S
C2117 C2118 1.373 . S
C2117 C2119 1.389 . S
C2118 H2091 0.950 . S
C2118 C2104 1.377 . S
C2118 C2117 1.373 . S
C2119 C2103 1.377 . S
C2119 C2117 1.389 . S
C2119 C2120 1.524 . S
C2120 C2119 1.524 . S
C2120 C2121 1.397 . S
C2120 C2125 1.363 . S
C2121 H2092 0.950 . S
C2121 C2120 1.397 . S
C2121 C2122 1.334 . S
C2122 H2093 0.950 . S
C2122 C2121 1.334 . S
C2122 C2123 1.287 . S
C2123 C2122 1.287 . S
C2123 C2124 1.524 . S
C2123 H2126 0.999 . S
C2124 H2094 0.950 . S
C2124 C2123 1.524 . S
C2124 C2125 1.415 . S
C2125 H2095 0.950 . S
C2125 C2120 1.363 . S
C2125 C2124 1.415 . S
H2126 C2123 0.999 . S
H2127 C2108 0.913 . S
H2128 C2146 0.951 . S
H2129 C2148 0.951 . S
H2130 C2150 0.950 . S
H2131 C2151 0.950 . S
H2132 C2153 0.950 . S
H2133 C2156 0.950 . S
H2134 C2157 0.950 . S
H2135 C2159 0.950 . S
H2136 C2160 0.950 . S
H2137 C2161 0.951 . S
H2138 C2163 0.951 . S
H2139 C2165 0.950 . S
H2140 C2166 0.950 . S
H2141 C2168 0.950 . S
H2142 C2171 0.950 . S
H2143 C2172 0.950 . S
H2144 C2174 0.950 . S
H2145 C2175 0.950 . S
C2146 H2128 0.951 . S
C2146 C2147 1.366 . S
C2146 C2148 1.388 . S
C2147 C2146 1.366 . S
C2147 C2151 1.385 . S
C2148 H2129 0.951 . S
C2148 C2146 1.388 . S
C2148 C2149 1.366 . S
C2149 C2148 1.366 . S
C2149 C2150 1.414 . S
C2149 C2152 1.499 . S
C2150 H2130 0.950 . S
C2150 C2149 1.414 . S
C2150 C2151 1.374 . S
C2151 H2131 0.950 . S
C2151 C2147 1.385 . S
C2151 C2150 1.374 . S
C2152 C2149 1.499 . S
C2152 C2153 1.373 . S
C2152 C2154 1.389 1_455 S
C2153 H2132 0.950 . S
C2153 C2152 1.373 . S
C2153 C2169 1.377 . S
C2154 C2152 1.389 1_655 S
C2154 C2155 1.524 . S
C2154 C2168 1.377 . S
C2155 C2154 1.524 . S
C2155 C2156 1.397 1_655 S
C2155 C2160 1.363 . S
C2156 H2133 0.950 . S
C2156 C2155 1.397 1_455 S
C2156 C2157 1.334 . S
C2157 H2134 0.950 . S
C2157 C2156 1.334 . S
C2157 C2158 1.287 1_455 S
C2158 C2157 1.287 1_655 S
C2158 C2159 1.524 . S
C2158 H2177 0.913 . S
C2159 H2135 0.950 . S
C2159 C2158 1.524 . S
C2159 C2160 1.415 . S
C2160 H2136 0.950 . S
C2160 C2155 1.363 . S
C2160 C2159 1.415 . S
C2161 H2137 0.951 . S
C2161 C2162 1.366 . S
C2161 C2163 1.388 . S
C2162 C2161 1.366 . S
C2162 C2166 1.385 . S
C2163 H2138 0.951 . S
C2163 C2161 1.388 . S
C2163 C2164 1.366 . S
C2164 C2163 1.366 . S
C2164 C2165 1.414 . S
C2164 C2167 1.499 . S
C2165 H2139 0.950 . S
C2165 C2164 1.414 . S
C2165 C2166 1.374 . S
C2166 H2140 0.950 . S
C2166 C2162 1.385 . S
C2166 C2165 1.374 . S
C2167 C2164 1.499 . S
C2167 C2168 1.373 . S
C2167 C2169 1.389 1_655 S
C2168 H2141 0.950 . S
C2168 C2154 1.377 . S
C2168 C2167 1.373 . S
C2169 C2153 1.377 . S
C2169 C2167 1.389 1_455 S
C2169 C2170 1.524 . S
C2170 C2169 1.524 . S
C2170 C2171 1.397 1_455 S
C2170 C2175 1.363 . S
C2171 H2142 0.950 . S
C2171 C2170 1.397 1_655 S
C2171 C2172 1.334 . S
C2172 H2143 0.950 . S
C2172 C2171 1.334 . S
C2172 C2173 1.287 1_655 S
C2173 C2172 1.287 1_455 S
C2173 C2174 1.524 . S
C2173 H2176 0.999 . S
C2174 H2144 0.950 . S
C2174 C2173 1.524 . S
C2174 C2175 1.415 . S
C2175 H2145 0.950 . S
C2175 C2170 1.363 . S
C2175 C2174 1.415 . S
H2176 C2173 0.999 . S
H2177 C2158 0.913 . S
H2178 C2196 0.951 . S
H2179 C2198 0.951 . S
H2180 C2200 0.950 . S
H2181 C2201 0.950 . S
H2182 C2203 0.950 . S
H2183 C2206 0.950 . S
H2184 C2207 0.950 . S
H2185 C2209 0.950 . S
H2186 C2210 0.950 . S
H2187 C2211 0.951 . S
H2188 C2213 0.951 . S
H2189 C2215 0.950 . S
H2190 C2216 0.950 . S
H2191 C2218 0.950 . S
H2192 C2221 0.950 . S
H2193 C2222 0.950 . S
H2194 C2224 0.950 . S
H2195 C2225 0.950 . S
C2196 H2178 0.951 . S
C2196 C2197 1.366 . S
C2196 C2198 1.388 . S
C2197 C2196 1.366 . S
C2197 C2201 1.385 . S
C2198 H2179 0.951 . S
C2198 C2196 1.388 . S
C2198 C2199 1.366 . S
C2199 C2198 1.366 . S
C2199 C2200 1.414 . S
C2199 C2202 1.499 . S
C2200 H2180 0.950 . S
C2200 C2199 1.414 . S
C2200 C2201 1.374 . S
C2201 H2181 0.950 . S
C2201 C2197 1.385 . S
C2201 C2200 1.374 . S
C2202 C2199 1.499 . S
C2202 C2203 1.373 . S
C2202 C2204 1.389 . S
C2203 H2182 0.950 . S
C2203 C2202 1.373 . S
C2203 C2219 1.377 . S
C2204 C2202 1.389 . S
C2204 C2205 1.524 . S
C2204 C2218 1.377 . S
C2205 C2204 1.524 . S
C2205 C2206 1.397 . S
C2205 C2210 1.363 . S
C2206 H2183 0.950 . S
C2206 C2205 1.397 . S
C2206 C2207 1.334 . S
C2207 H2184 0.950 . S
C2207 C2206 1.334 . S
C2207 C2208 1.287 . S
C2208 C2207 1.287 . S
C2208 C2209 1.524 . S
C2208 H2227 0.913 . S
C2209 H2185 0.950 . S
C2209 C2208 1.524 . S
C2209 C2210 1.415 . S
C2210 H2186 0.950 . S
C2210 C2205 1.363 . S
C2210 C2209 1.415 . S
C2211 H2187 0.951 . S
C2211 C2212 1.366 . S
C2211 C2213 1.388 . S
C2212 C2211 1.366 . S
C2212 C2216 1.385 . S
C2213 H2188 0.951 . S
C2213 C2211 1.388 . S
C2213 C2214 1.366 . S
C2214 C2213 1.366 . S
C2214 C2215 1.414 . S
C2214 C2217 1.499 . S
C2215 H2189 0.950 . S
C2215 C2214 1.414 . S
C2215 C2216 1.374 . S
C2216 H2190 0.950 . S
C2216 C2212 1.385 . S
C2216 C2215 1.374 . S
C2217 C2214 1.499 . S
C2217 C2218 1.373 . S
C2217 C2219 1.389 . S
C2218 H2191 0.950 . S
C2218 C2204 1.377 . S
C2218 C2217 1.373 . S
C2219 C2203 1.377 . S
C2219 C2217 1.389 . S
C2219 C2220 1.524 . S
C2220 C2219 1.524 . S
C2220 C2221 1.397 . S
C2220 C2225 1.363 . S
C2221 H2192 0.950 . S
C2221 C2220 1.397 . S
C2221 C2222 1.334 . S
C2222 H2193 0.950 . S
C2222 C2221 1.334 . S
C2222 C2223 1.287 . S
C2223 C2222 1.287 . S
C2223 C2224 1.524 . S
C2223 H2226 0.999 . S
C2224 H2194 0.950 . S
C2224 C2223 1.524 . S
C2224 C2225 1.415 . S
C2225 H2195 0.950 . S
C2225 C2220 1.363 . S
C2225 C2224 1.415 . S
H2226 C2223 0.999 . S
H2227 C2208 0.913 . S
H2228 C2246 0.951 . S
H2229 C2248 0.951 . S
H2230 C2250 0.950 . S
H2231 C2251 0.950 . S
H2232 C2253 0.950 . S
H2233 C2256 0.950 . S
H2234 C2257 0.950 . S
H2235 C2259 0.950 . S
H2236 C2260 0.950 . S
H2237 C2261 0.951 . S
H2238 C2263 0.951 . S
H2239 C2265 0.950 . S
H2240 C2266 0.950 . S
H2241 C2268 0.950 . S
H2242 C2271 0.950 . S
H2243 C2272 0.950 . S
H2244 C2274 0.950 . S
H2245 C2275 0.950 . S
C2246 H2228 0.951 . S
C2246 C2247 1.366 . S
C2246 C2248 1.388 . S
C2247 C2246 1.366 . S
C2247 C2251 1.385 . S
C2248 H2229 0.951 . S
C2248 C2246 1.388 . S
C2248 C2249 1.366 . S
C2249 C2248 1.366 . S
C2249 C2250 1.414 . S
C2249 C2252 1.499 . S
C2250 H2230 0.950 . S
C2250 C2249 1.414 . S
C2250 C2251 1.374 . S
C2251 H2231 0.950 . S
C2251 C2247 1.385 . S
C2251 C2250 1.374 . S
C2252 C2249 1.499 . S
C2252 C2253 1.373 . S
C2252 C2254 1.389 . S
C2253 H2232 0.950 . S
C2253 C2252 1.373 . S
C2253 C2269 1.377 . S
C2254 C2252 1.389 . S
C2254 C2255 1.524 . S
C2254 C2268 1.377 . S
C2255 C2254 1.524 . S
C2255 C2256 1.397 . S
C2255 C2260 1.363 . S
C2256 H2233 0.950 . S
C2256 C2255 1.397 . S
C2256 C2257 1.334 . S
C2257 H2234 0.950 . S
C2257 C2256 1.334 . S
C2257 C2258 1.287 . S
C2258 C2257 1.287 . S
C2258 C2259 1.524 . S
C2258 H2277 0.913 . S
C2259 H2235 0.950 . S
C2259 C2258 1.524 . S
C2259 C2260 1.415 . S
C2260 H2236 0.950 . S
C2260 C2255 1.363 . S
C2260 C2259 1.415 . S
C2261 H2237 0.951 . S
C2261 C2262 1.366 . S
C2261 C2263 1.388 . S
C2262 C2261 1.366 . S
C2262 C2266 1.385 . S
C2263 H2238 0.951 . S
C2263 C2261 1.388 . S
C2263 C2264 1.366 . S
C2264 C2263 1.366 . S
C2264 C2265 1.414 . S
C2264 C2267 1.499 . S
C2265 H2239 0.950 . S
C2265 C2264 1.414 . S
C2265 C2266 1.374 . S
C2266 H2240 0.950 . S
C2266 C2262 1.385 . S
C2266 C2265 1.374 . S
C2267 C2264 1.499 . S
C2267 C2268 1.373 . S
C2267 C2269 1.389 . S
C2268 H2241 0.950 . S
C2268 C2254 1.377 . S
C2268 C2267 1.373 . S
C2269 C2253 1.377 . S
C2269 C2267 1.389 . S
C2269 C2270 1.524 . S
C2270 C2269 1.524 . S
C2270 C2271 1.397 . S
C2270 C2275 1.363 . S
C2271 H2242 0.950 . S
C2271 C2270 1.397 . S
C2271 C2272 1.334 . S
C2272 H2243 0.950 . S
C2272 C2271 1.334 . S
C2272 C2273 1.287 . S
C2273 C2272 1.287 . S
C2273 C2274 1.524 . S
C2273 H2276 0.999 . S
C2274 H2244 0.950 . S
C2274 C2273 1.524 . S
C2274 C2275 1.415 . S
C2275 H2245 0.950 . S
C2275 C2270 1.363 . S
C2275 C2274 1.415 . S
H2276 C2273 0.999 . S
H2277 C2258 0.913 . S
H2278 C2296 0.951 . S
H2279 C2298 0.951 . S
H2280 C2300 0.950 . S
H2281 C2301 0.950 . S
H2282 C2303 0.951 . S
H2283 C2306 0.950 . S
H2284 C2307 0.950 . S
H2285 C2309 0.950 . S
H2286 C2310 0.950 . S
H2287 C2311 0.951 . S
H2288 C2313 0.951 . S
H2289 C2315 0.950 . S
H2290 C2316 0.950 . S
H2291 C2318 0.951 . S
H2292 C2321 0.950 . S
H2293 C2322 0.950 . S
H2294 C2324 0.950 . S
H2295 C2325 0.950 . S
C2296 H2278 0.951 . S
C2296 C2297 1.366 . S
C2296 C2298 1.388 . S
C2297 C2296 1.366 . S
C2297 C2301 1.385 . S
C2298 H2279 0.951 . S
C2298 C2296 1.388 . S
C2298 C2299 1.366 . S
C2299 C2298 1.366 . S
C2299 C2300 1.414 . S
C2299 C2302 1.499 . S
C2300 H2280 0.950 . S
C2300 C2299 1.414 . S
C2300 C2301 1.374 . S
C2301 H2281 0.950 . S
C2301 C2297 1.385 . S
C2301 C2300 1.374 . S
C2302 C2299 1.499 . S
C2302 C2303 1.360 1_655 S
C2302 C2304 1.389 . S
C2303 H2282 0.951 . S
C2303 C2302 1.360 1_455 S
C2303 C2319 1.389 . S
C2304 C2302 1.389 . S
C2304 C2305 1.524 . S
C2304 C2318 1.389 . S
C2305 C2304 1.524 . S
C2305 C2306 1.397 . S
C2305 C2310 1.363 . S
C2306 H2283 0.950 . S
C2306 C2305 1.397 . S
C2306 C2307 1.334 . S
C2307 H2284 0.950 . S
C2307 C2306 1.334 . S
C2307 C2308 1.287 . S
C2308 C2307 1.287 . S
C2308 C2309 1.524 . S
C2308 H2327 0.913 . S
C2309 H2285 0.950 . S
C2309 C2308 1.524 . S
C2309 C2310 1.415 . S
C2310 H2286 0.950 . S
C2310 C2305 1.363 . S
C2310 C2309 1.415 . S
C2311 H2287 0.951 . S
C2311 C2312 1.366 . S
C2311 C2313 1.388 . S
C2312 C2311 1.366 . S
C2312 C2316 1.385 . S
C2313 H2288 0.951 . S
C2313 C2311 1.388 . S
C2313 C2314 1.366 . S
C2314 C2313 1.366 . S
C2314 C2315 1.414 . S
C2314 C2317 1.499 . S
C2315 H2289 0.950 . S
C2315 C2314 1.414 . S
C2315 C2316 1.374 . S
C2316 H2290 0.950 . S
C2316 C2312 1.385 . S
C2316 C2315 1.374 . S
C2317 C2314 1.499 . S
C2317 C2318 1.361 1_455 S
C2317 C2319 1.389 . S
C2318 H2291 0.951 . S
C2318 C2304 1.389 . S
C2318 C2317 1.361 1_655 S
C2319 C2303 1.389 . S
C2319 C2317 1.389 . S
C2319 C2320 1.524 . S
C2320 C2319 1.524 . S
C2320 C2321 1.397 . S
C2320 C2325 1.363 . S
C2321 H2292 0.950 . S
C2321 C2320 1.397 . S
C2321 C2322 1.334 . S
C2322 H2293 0.950 . S
C2322 C2321 1.334 . S
C2322 C2323 1.287 . S
C2323 C2322 1.287 . S
C2323 C2324 1.524 . S
C2323 H2326 0.999 . S
C2324 H2294 0.950 . S
C2324 C2323 1.524 . S
C2324 C2325 1.415 . S
C2325 H2295 0.950 . S
C2325 C2320 1.363 . S
C2325 C2324 1.415 . S
H2326 C2323 0.999 . S
H2327 C2308 0.913 . S
H2328 C2346 0.951 . S
H2329 C2348 0.951 . S
H2330 C2350 0.950 . S
H2331 C2351 0.950 . S
H2332 C2353 0.950 . S
H2333 C2356 0.982 . S
H2334 C2357 0.950 1_655 S
H2335 C2359 0.950 . S
H2336 C2360 0.950 . S
H2337 C2361 0.951 . S
H2338 C2363 0.951 . S
H2339 C2365 0.950 . S
H2340 C2366 0.950 . S
H2341 C2368 0.950 . S
H2342 C2371 0.982 . S
H2343 C2372 0.950 1_455 S
H2344 C2374 0.950 . S
H2345 C2375 0.950 . S
C2346 H2328 0.951 . S
C2346 C2347 1.366 . S
C2346 C2348 1.388 . S
C2347 C2346 1.366 . S
C2347 C2351 1.385 . S
C2348 H2329 0.951 . S
C2348 C2346 1.388 . S
C2348 C2349 1.366 . S
C2349 C2348 1.366 . S
C2349 C2350 1.414 . S
C2349 C2352 1.499 . S
C2350 H2330 0.950 . S
C2350 C2349 1.414 . S
C2350 C2351 1.374 . S
C2351 H2331 0.950 . S
C2351 C2347 1.385 . S
C2351 C2350 1.374 . S
C2352 C2349 1.499 . S
C2352 C2353 1.373 . S
C2352 C2354 1.389 1_655 S
C2353 H2332 0.950 . S
C2353 C2352 1.373 . S
C2353 C2369 1.377 . S
C2354 C2352 1.389 1_455 S
C2354 C2355 1.524 . S
C2354 C2368 1.377 . S
C2355 C2354 1.524 . S
C2355 C2356 1.375 1_455 S
C2355 C2360 1.363 . S
C2356 H2333 0.982 . S
C2356 C2355 1.375 1_655 S
C2356 C2357 1.325 1_655 S
C2357 H2334 0.950 1_455 S
C2357 C2356 1.325 1_455 S
C2357 C2358 1.287 . S
C2358 C2357 1.287 . S
C2358 C2359 1.524 . S
C2358 H2377 0.913 . S
C2359 H2335 0.950 . S
C2359 C2358 1.524 . S
C2359 C2360 1.415 . S
C2360 H2336 0.950 . S
C2360 C2355 1.363 . S
C2360 C2359 1.415 . S
C2361 H2337 0.951 . S
C2361 C2362 1.366 . S
C2361 C2363 1.388 . S
C2362 C2361 1.366 . S
C2362 C2366 1.385 . S
C2363 H2338 0.951 . S
C2363 C2361 1.388 . S
C2363 C2364 1.366 . S
C2364 C2363 1.366 . S
C2364 C2365 1.414 . S
C2364 C2367 1.499 . S
C2365 H2339 0.950 . S
C2365 C2364 1.414 . S
C2365 C2366 1.374 . S
C2366 H2340 0.950 . S
C2366 C2362 1.385 . S
C2366 C2365 1.374 . S
C2367 C2364 1.499 . S
C2367 C2368 1.373 . S
C2367 C2369 1.389 1_455 S
C2368 H2341 0.950 . S
C2368 C2354 1.377 . S
C2368 C2367 1.373 . S
C2369 C2353 1.377 . S
C2369 C2367 1.389 1_655 S
C2369 C2370 1.524 . S
C2370 C2369 1.524 . S
C2370 C2371 1.375 1_655 S
C2370 C2375 1.363 . S
C2371 H2342 0.982 . S
C2371 C2370 1.375 1_455 S
C2371 C2372 1.325 1_455 S
C2372 H2343 0.950 1_655 S
C2372 C2371 1.325 1_655 S
C2372 C2373 1.287 . S
C2373 C2372 1.287 . S
C2373 C2374 1.524 . S
C2373 H2376 0.999 . S
C2374 H2344 0.950 . S
C2374 C2373 1.524 . S
C2374 C2375 1.415 . S
C2375 H2345 0.950 . S
C2375 C2370 1.363 . S
C2375 C2374 1.415 . S
H2376 C2373 0.999 . S
H2377 C2358 0.913 . S
H2378 C2396 0.951 . S
H2379 C2398 0.951 . S
H2380 C2400 0.950 . S
H2381 C2401 0.950 . S
H2382 C2403 0.950 . S
H2383 C2406 0.950 . S
H2384 C2407 0.950 . S
H2385 C2409 0.950 . S
H2386 C2410 0.950 . S
H2387 C2411 0.951 . S
H2388 C2413 0.951 . S
H2389 C2415 0.950 . S
H2390 C2416 0.950 . S
H2391 C2418 0.950 . S
H2392 C2421 0.950 . S
H2393 C2422 0.950 . S
H2394 C2424 0.950 . S
H2395 C2425 0.950 . S
C2396 H2378 0.951 . S
C2396 C2397 1.366 . S
C2396 C2398 1.388 . S
C2397 C2396 1.366 . S
C2397 C2401 1.385 . S
C2398 H2379 0.951 . S
C2398 C2396 1.388 . S
C2398 C2399 1.366 . S
C2399 C2398 1.366 . S
C2399 C2400 1.414 . S
C2399 C2402 1.499 . S
C2400 H2380 0.950 . S
C2400 C2399 1.414 . S
C2400 C2401 1.374 . S
C2401 H2381 0.950 . S
C2401 C2397 1.385 . S
C2401 C2400 1.374 . S
C2402 C2399 1.499 . S
C2402 C2403 1.373 . S
C2402 C2404 1.389 . S
C2403 H2382 0.950 . S
C2403 C2402 1.373 . S
C2403 C2419 1.377 . S
C2404 C2402 1.389 . S
C2404 C2405 1.524 . S
C2404 C2418 1.377 . S
C2405 C2404 1.524 . S
C2405 C2406 1.397 . S
C2405 C2410 1.363 . S
C2406 H2383 0.950 . S
C2406 C2405 1.397 . S
C2406 C2407 1.334 . S
C2407 H2384 0.950 . S
C2407 C2406 1.334 . S
C2407 C2408 1.287 . S
C2408 C2407 1.287 . S
C2408 C2409 1.524 . S
C2408 H2427 0.913 . S
C2409 H2385 0.950 . S
C2409 C2408 1.524 . S
C2409 C2410 1.415 . S
C2410 H2386 0.950 . S
C2410 C2405 1.363 . S
C2410 C2409 1.415 . S
C2411 H2387 0.951 . S
C2411 C2412 1.366 . S
C2411 C2413 1.388 . S
C2412 C2411 1.366 . S
C2412 C2416 1.385 . S
C2413 H2388 0.951 . S
C2413 C2411 1.388 . S
C2413 C2414 1.366 . S
C2414 C2413 1.366 . S
C2414 C2415 1.414 . S
C2414 C2417 1.499 . S
C2415 H2389 0.950 . S
C2415 C2414 1.414 . S
C2415 C2416 1.374 . S
C2416 H2390 0.950 . S
C2416 C2412 1.385 . S
C2416 C2415 1.374 . S
C2417 C2414 1.499 . S
C2417 C2418 1.373 . S
C2417 C2419 1.389 . S
C2418 H2391 0.950 . S
C2418 C2404 1.377 . S
C2418 C2417 1.373 . S
C2419 C2403 1.377 . S
C2419 C2417 1.389 . S
C2419 C2420 1.524 . S
C2420 C2419 1.524 . S
C2420 C2421 1.397 . S
C2420 C2425 1.363 . S
C2421 H2392 0.950 . S
C2421 C2420 1.397 . S
C2421 C2422 1.334 . S
C2422 H2393 0.950 . S
C2422 C2421 1.334 . S
C2422 C2423 1.287 . S
C2423 C2422 1.287 . S
C2423 C2424 1.524 . S
C2423 H2426 0.999 . S
C2424 H2394 0.950 . S
C2424 C2423 1.524 . S
C2424 C2425 1.415 . S
C2425 H2395 0.950 . S
C2425 C2420 1.363 . S
C2425 C2424 1.415 . S
H2426 C2423 0.999 . S
H2427 C2408 0.913 . S
H2428 C2446 0.951 . S
H2429 C2448 0.951 . S
H2430 C2450 0.950 . S
H2431 C2451 0.950 . S
H2432 C2453 0.950 . S
H2433 C2456 0.950 . S
H2434 C2457 0.950 . S
H2435 C2459 0.950 . S
H2436 C2460 0.950 . S
H2437 C2461 0.951 . S
H2438 C2463 0.951 . S
H2439 C2465 0.950 . S
H2440 C2466 0.950 . S
H2441 C2468 0.950 . S
H2442 C2471 0.950 . S
H2443 C2472 0.950 . S
H2444 C2474 0.950 . S
H2445 C2475 0.950 . S
C2446 H2428 0.951 . S
C2446 C2447 1.366 . S
C2446 C2448 1.388 . S
C2447 C2446 1.366 . S
C2447 C2451 1.385 . S
C2448 H2429 0.951 . S
C2448 C2446 1.388 . S
C2448 C2449 1.366 . S
C2449 C2448 1.366 . S
C2449 C2450 1.414 . S
C2449 C2452 1.499 . S
C2450 H2430 0.950 . S
C2450 C2449 1.414 . S
C2450 C2451 1.374 . S
C2451 H2431 0.950 . S
C2451 C2447 1.385 . S
C2451 C2450 1.374 . S
C2452 C2449 1.499 . S
C2452 C2453 1.373 . S
C2452 C2454 1.389 . S
C2453 H2432 0.950 . S
C2453 C2452 1.373 . S
C2453 C2469 1.377 . S
C2454 C2452 1.389 . S
C2454 C2455 1.524 . S
C2454 C2468 1.377 . S
C2455 C2454 1.524 . S
C2455 C2456 1.397 . S
C2455 C2460 1.363 . S
C2456 H2433 0.950 . S
C2456 C2455 1.397 . S
C2456 C2457 1.334 . S
C2457 H2434 0.950 . S
C2457 C2456 1.334 . S
C2457 C2458 1.287 . S
C2458 C2457 1.287 . S
C2458 C2459 1.524 . S
C2458 H2477 0.913 . S
C2459 H2435 0.950 . S
C2459 C2458 1.524 . S
C2459 C2460 1.415 . S
C2460 H2436 0.950 . S
C2460 C2455 1.363 . S
C2460 C2459 1.415 . S
C2461 H2437 0.951 . S
C2461 C2462 1.366 . S
C2461 C2463 1.388 . S
C2462 C2461 1.366 . S
C2462 C2466 1.385 . S
C2463 H2438 0.951 . S
C2463 C2461 1.388 . S
C2463 C2464 1.366 . S
C2464 C2463 1.366 . S
C2464 C2465 1.414 . S
C2464 C2467 1.499 . S
C2465 H2439 0.950 . S
C2465 C2464 1.414 . S
C2465 C2466 1.374 . S
C2466 H2440 0.950 . S
C2466 C2462 1.385 . S
C2466 C2465 1.374 . S
C2467 C2464 1.499 . S
C2467 C2468 1.373 . S
C2467 C2469 1.389 . S
C2468 H2441 0.950 . S
C2468 C2454 1.377 . S
C2468 C2467 1.373 . S
C2469 C2453 1.377 . S
C2469 C2467 1.389 . S
C2469 C2470 1.524 . S
C2470 C2469 1.524 . S
C2470 C2471 1.397 . S
C2470 C2475 1.363 . S
C2471 H2442 0.950 . S
C2471 C2470 1.397 . S
C2471 C2472 1.334 . S
C2472 H2443 0.950 . S
C2472 C2471 1.334 . S
C2472 C2473 1.287 . S
C2473 C2472 1.287 . S
C2473 C2474 1.524 . S
C2473 H2476 0.999 . S
C2474 H2444 0.950 . S
C2474 C2473 1.524 . S
C2474 C2475 1.415 . S
C2475 H2445 0.950 . S
C2475 C2470 1.363 . S
C2475 C2474 1.415 . S
H2476 C2473 0.999 . S
H2477 C2458 0.913 . S
H2478 C2496 0.951 . S
H2479 C2498 0.951 . S
H2480 C2500 0.950 . S
H2481 C2501 0.950 . S
H2482 C2503 0.950 . S
H2483 C2506 0.950 . S
H2484 C2507 0.950 . S
H2485 C2509 0.950 . S
H2486 C2510 0.950 . S
H2487 C2511 0.951 . S
H2488 C2513 0.951 . S
H2489 C2515 0.950 . S
H2490 C2516 0.950 . S
H2491 C2518 0.950 . S
H2492 C2521 0.950 . S
H2493 C2522 0.950 . S
H2494 C2524 0.950 . S
H2495 C2525 0.950 . S
C2496 H2478 0.951 . S
C2496 C2497 1.366 . S
C2496 C2498 1.388 . S
C2497 C2496 1.366 . S
C2497 C2501 1.385 . S
C2498 H2479 0.951 . S
C2498 C2496 1.388 . S
C2498 C2499 1.366 . S
C2499 C2498 1.366 . S
C2499 C2500 1.414 . S
C2499 C2502 1.499 . S
C2500 H2480 0.950 . S
C2500 C2499 1.414 . S
C2500 C2501 1.374 . S
C2501 H2481 0.950 . S
C2501 C2497 1.385 . S
C2501 C2500 1.374 . S
C2502 C2499 1.499 . S
C2502 C2503 1.373 . S
C2502 C2504 1.389 . S
C2503 H2482 0.950 . S
C2503 C2502 1.373 . S
C2503 C2519 1.377 1_655 S
C2504 C2502 1.389 . S
C2504 C2505 1.524 . S
C2504 C2518 1.377 1_655 S
C2505 C2504 1.524 . S
C2505 C2506 1.397 . S
C2505 C2510 1.363 . S
C2506 H2483 0.950 . S
C2506 C2505 1.397 . S
C2506 C2507 1.334 . S
C2507 H2484 0.950 . S
C2507 C2506 1.334 . S
C2507 C2508 1.287 . S
C2508 C2507 1.287 . S
C2508 C2509 1.524 . S
C2508 H2527 0.913 . S
C2509 H2485 0.950 . S
C2509 C2508 1.524 . S
C2509 C2510 1.415 . S
C2510 H2486 0.950 . S
C2510 C2505 1.363 . S
C2510 C2509 1.415 . S
C2511 H2487 0.951 . S
C2511 C2512 1.366 . S
C2511 C2513 1.388 . S
C2512 C2511 1.366 . S
C2512 C2516 1.385 . S
C2513 H2488 0.951 . S
C2513 C2511 1.388 . S
C2513 C2514 1.366 . S
C2514 C2513 1.366 . S
C2514 C2515 1.414 . S
C2514 C2517 1.499 . S
C2515 H2489 0.950 . S
C2515 C2514 1.414 . S
C2515 C2516 1.374 . S
C2516 H2490 0.950 . S
C2516 C2512 1.385 . S
C2516 C2515 1.374 . S
C2517 C2514 1.499 . S
C2517 C2518 1.373 . S
C2517 C2519 1.389 . S
C2518 H2491 0.950 . S
C2518 C2504 1.377 1_455 S
C2518 C2517 1.373 . S
C2519 C2503 1.377 1_455 S
C2519 C2517 1.389 . S
C2519 C2520 1.524 . S
C2520 C2519 1.524 . S
C2520 C2521 1.397 . S
C2520 C2525 1.363 . S
C2521 H2492 0.950 . S
C2521 C2520 1.397 . S
C2521 C2522 1.334 . S
C2522 H2493 0.950 . S
C2522 C2521 1.334 . S
C2522 C2523 1.287 . S
C2523 C2522 1.287 . S
C2523 C2524 1.524 . S
C2523 H2526 0.999 . S
C2524 H2494 0.950 . S
C2524 C2523 1.524 . S
C2524 C2525 1.415 . S
C2525 H2495 0.950 . S
C2525 C2520 1.363 . S
C2525 C2524 1.415 . S
H2526 C2523 0.999 . S
H2527 C2508 0.913 . S
C547 C120 0.485 . S
C562 C21 0.487 . S
C597 C87 0.487 . S
C612 C54 0.485 . S
C647 C153 0.485 . S
C662 C252 0.486 . S
C697 C186 0.486 . S
C712 C219 0.485 . S
C747 C285 0.485 . S
C762 C384 0.487 . S
C797 C318 0.485 . S
C812 C351 0.487 . S
C847 C516 0.485 . S
C862 C417 0.487 . S
C897 C483 0.487 . S
C912 C450 0.486 . S
C947 N2 1.039 . S
C962 N332 1.039 . S
C997 N365 1.039 . S
C1012 N35 1.039 . S
C1047 N266 1.039 . S
C1062 N68 1.039 . S
C1097 N299 1.039 . S
C1112 N101 1.039 . S
C1147 N464 1.038 . S
C1162 N134 1.038 . S
C1197 N497 1.039 . S
C1212 N167 1.039 . S
C1247 N398 1.039 . S
C1262 N200 1.039 . S
C1297 N431 1.039 . S
C1312 N233 1.039 . S
C1347 N13 1.668 . S
C1362 N145 1.668 . S
C1397 N46 1.667 . S
C1412 N178 1.667 . S
C1447 N211 1.668 . S
C1462 N79 1.668 . S
C1497 N112 1.668 . S
C1512 N244 1.668 . S
C1547 N277 1.669 . S
C1562 N409 1.669 . S
C1597 N442 1.668 . S
C1612 N310 1.668 . S
C1647 N343 1.668 . S
C1662 N475 1.668 . S
C1697 N508 1.668 . S
C1712 N376 1.668 . S
C1747 C18 1.313 . S
C1762 C51 1.313 . S
C1797 C117 1.313 . S
C1812 C84 1.312 . S
C1847 C183 1.313 . S
C1862 C150 1.313 . S
C1897 C216 1.313 . S
C1912 C249 1.313 . S
C1947 C315 1.312 . S
C1962 C282 1.312 . S
C1997 C381 1.313 . S
C2012 C348 1.313 . S
C2047 C414 1.312 . S
C2062 C447 1.313 . S
C2097 C513 1.312 . S
C2112 C480 1.312 . S
C2147 C7 0.644 . S
C2162 C304 0.641 . S
C2197 C40 0.643 . S
C2212 C271 0.643 . S
C2247 C73 0.644 . S
C2262 C370 0.641 . S
C2297 C106 0.640 . S
C2312 C337 0.643 . S
C2347 C139 0.642 . S
C2362 C436 0.644 . S
C2397 C403 0.641 . S
C2412 C172 0.644 . S
C2447 C205 0.641 . S
C2462 C502 0.644 . S
C2497 C469 0.644 . S
C2512 C238 0.640 . S
