# Generated by pormake.
# Topology ukb, (4)-cn, num edge types: 1
# Building blocks:
#     Node 0, Type 0, BuildingBlock: NAHDIM_clean_sbu_0, # of connection points: 4
#     Node 1, Type 0, BuildingBlock: NAHDIM_clean_sbu_0, # of connection points: 4
#     Node 2, Type 0, BuildingBlock: NAHDIM_clean_sbu_0, # of connection points: 4
#     Node 3, Type 0, BuildingBlock: NAHDIM_clean_sbu_0, # of connection points: 4
#     Node 4, Type 0, BuildingBlock: NAHDIM_clean_sbu_0, # of connection points: 4
#     Node 5, Type 0, BuildingBlock: NAHDIM_clean_sbu_0, # of connection points: 4
#     Node 6, Type 0, BuildingBlock: NAHDIM_clean_sbu_0, # of connection points: 4
#     Node 7, Type 0, BuildingBlock: NAHDIM_clean_sbu_0, # of connection points: 4
#     Node 8, Type 0, BuildingBlock: NAHDIM_clean_sbu_0, # of connection points: 4
#     Node 9, Type 0, BuildingBlock: NAHDIM_clean_sbu_0, # of connection points: 4
#     Node 10, Type 0, BuildingBlock: NAHDIM_clean_sbu_0, # of connection points: 4
#     Node 11, Type 0, BuildingBlock: NAHDIM_clean_sbu_0, # of connection points: 4
#     Node 12, Type 0, BuildingBlock: NAHDIM_clean_sbu_0, # of connection points: 4
#     Node 13, Type 0, BuildingBlock: NAHDIM_clean_sbu_0, # of connection points: 4
#     Node 14, Type 0, BuildingBlock: NAHDIM_clean_sbu_0, # of connection points: 4
#     Node 15, Type 0, BuildingBlock: NAHDIM_clean_sbu_0, # of connection points: 4
#     Edge 16, Type (0, 0), BuildingBlock: AJUNOK_clean_linker_0, # of connection points: 2
#     Edge 17, Type (0, 0), BuildingBlock: AJUNOK_clean_linker_0, # of connection points: 2
#     Edge 18, Type (0, 0), BuildingBlock: AJUNOK_clean_linker_0, # of connection points: 2
#     Edge 19, Type (0, 0), BuildingBlock: AJUNOK_clean_linker_0, # of connection points: 2
#     Edge 20, Type (0, 0), BuildingBlock: AJUNOK_clean_linker_0, # of connection points: 2
#     Edge 21, Type (0, 0), BuildingBlock: AJUNOK_clean_linker_0, # of connection points: 2
#     Edge 22, Type (0, 0), BuildingBlock: AJUNOK_clean_linker_0, # of connection points: 2
#     Edge 23, Type (0, 0), BuildingBlock: AJUNOK_clean_linker_0, # of connection points: 2
#     Edge 24, Type (0, 0), BuildingBlock: AJUNOK_clean_linker_0, # of connection points: 2
#     Edge 25, Type (0, 0), BuildingBlock: AJUNOK_clean_linker_0, # of connection points: 2
#     Edge 26, Type (0, 0), BuildingBlock: AJUNOK_clean_linker_0, # of connection points: 2
#     Edge 27, Type (0, 0), BuildingBlock: AJUNOK_clean_linker_0, # of connection points: 2
#     Edge 28, Type (0, 0), BuildingBlock: AJUNOK_clean_linker_0, # of connection points: 2
#     Edge 29, Type (0, 0), BuildingBlock: AJUNOK_clean_linker_0, # of connection points: 2
#     Edge 30, Type (0, 0), BuildingBlock: AJUNOK_clean_linker_0, # of connection points: 2
#     Edge 31, Type (0, 0), BuildingBlock: AJUNOK_clean_linker_0, # of connection points: 2
#     Edge 32, Type (0, 0), BuildingBlock: AJUNOK_clean_linker_0, # of connection points: 2
#     Edge 33, Type (0, 0), BuildingBlock: AJUNOK_clean_linker_0, # of connection points: 2
#     Edge 34, Type (0, 0), BuildingBlock: AJUNOK_clean_linker_0, # of connection points: 2
#     Edge 35, Type (0, 0), BuildingBlock: AJUNOK_clean_linker_0, # of connection points: 2
#     Edge 36, Type (0, 0), BuildingBlock: AJUNOK_clean_linker_0, # of connection points: 2
#     Edge 37, Type (0, 0), BuildingBlock: AJUNOK_clean_linker_0, # of connection points: 2
#     Edge 38, Type (0, 0), BuildingBlock: AJUNOK_clean_linker_0, # of connection points: 2
#     Edge 39, Type (0, 0), BuildingBlock: AJUNOK_clean_linker_0, # of connection points: 2
#     Edge 40, Type (0, 0), BuildingBlock: AJUNOK_clean_linker_0, # of connection points: 2
#     Edge 41, Type (0, 0), BuildingBlock: AJUNOK_clean_linker_0, # of connection points: 2
#     Edge 42, Type (0, 0), BuildingBlock: AJUNOK_clean_linker_0, # of connection points: 2
#     Edge 43, Type (0, 0), BuildingBlock: AJUNOK_clean_linker_0, # of connection points: 2
#     Edge 44, Type (0, 0), BuildingBlock: AJUNOK_clean_linker_0, # of connection points: 2
#     Edge 45, Type (0, 0), BuildingBlock: AJUNOK_clean_linker_0, # of connection points: 2
#     Edge 46, Type (0, 0), BuildingBlock: AJUNOK_clean_linker_0, # of connection points: 2
#     Edge 47, Type (0, 0), BuildingBlock: AJUNOK_clean_linker_0, # of connection points: 2
# Relax obj value: 0.149
# Max RMSD: 0.161
# Mean RMSD: 0.161
data_MOF--net-ukb--node1-NAHDIM_clean_sbu_0--edge1-AJUNOK_clean_linker_0
_symmetry_space_group_name_H-M    P1
_symmetry_Int_Tables_number       1
_symmetry_cell_setting            triclinic
loop_
_symmetry_equiv_pos_as_xyz
'x, y, z'
_cell_length_a     32.242532
_cell_length_b     32.229393
_cell_length_c     27.864154
_cell_angle_alpha  89.995191
_cell_angle_beta   89.95958
_cell_angle_gamma 90.088911
loop_
_atom_site_label
_atom_site_type_symbol
_atom_site_fract_x
_atom_site_fract_y
_atom_site_fract_z
_atom_type_partial_charge
C0 C 0.42909 0.18383 0.2119 0.0
O1 O 0.43324 0.17944 0.16529 0.0
O2 O 0.50617 0.23699 0.13675 0.0
Zn3 Zn 0.51291 0.21374 0.20358 0.0
O4 O 0.54621 0.16108 0.20435 0.0
C5 C 0.53905 0.29326 0.24301 0.0
O6 O 0.5077 0.30795 0.21822 0.0
O7 O 0.45848 0.20052 0.23539 0.0
C8 C 0.58429 0.16159 0.19275 0.0
O9 O 0.60013 0.19606 0.17537 0.0
C10 C 0.5077 0.21538 0.09865 0.0
O11 O 0.51249 0.17502 0.10213 0.0
O12 O 0.54574 0.25444 0.24278 0.0
C13 C 0.33985 0.4653 0.6853 0.0
O14 O 0.35776 0.49414 0.65915 0.0
O15 O 0.26366 0.51642 0.59654 0.0
Zn16 Zn 0.27476 0.52003 0.66757 0.0
O17 O 0.31402 0.56725 0.68169 0.0
C18 C 0.18603 0.52257 0.68634 0.0
O19 O 0.18406 0.49643 0.65025 0.0
O20 O 0.30108 0.46768 0.69308 0.0
C21 C 0.32373 0.57134 0.72562 0.0
O22 O 0.30742 0.54557 0.75698 0.0
C23 C 0.24178 0.54515 0.57831 0.0
O24 O 0.23 0.57618 0.60565 0.0
O25 O 0.22138 0.53406 0.70154 0.0
C26 C 0.05886 0.32682 0.19034 0.0
O27 O 0.0524 0.32977 0.1439 0.0
O28 O 0.9793 0.2763 0.12096 0.0
Zn29 Zn 0.97447 0.29981 0.18815 0.0
O30 O 0.94229 0.35309 0.18918 0.0
C31 C 0.95206 0.22386 0.24032 0.0
O32 O 0.98763 0.20924 0.22473 0.0
O33 O 0.03017 0.31224 0.21667 0.0
C34 C 0.90347 0.35176 0.1818 0.0
O35 O 0.88682 0.31643 0.16821 0.0
C36 C 0.95451 0.24808 0.10685 0.0
O37 O 0.92484 0.23561 0.13576 0.0
O38 O 0.94207 0.26085 0.23005 0.0
C39 C 0.18186 0.05446 0.71597 0.0
O40 O 0.17749 0.04859 0.6696 0.0
O41 O 0.23405 0.98227 0.64014 0.0
Zn42 Zn 0.21449 0.97309 0.70834 0.0
O43 O 0.16243 0.93893 0.70945 0.0
C44 C 0.29435 0.95307 0.75201 0.0
O45 O 0.3063 0.9888 0.73398 0.0
O46 O 0.2 0.02671 0.74054 0.0
C47 C 0.16016 0.90321 0.69047 0.0
O48 O 0.19233 0.88895 0.66671 0.0
C49 C 0.26214 0.95959 0.62183 0.0
O50 O 0.27785 0.92923 0.64739 0.0
O51 O 0.25699 0.94154 0.74632 0.0
C52 C 0.44743 0.35292 0.78951 0.0
O53 O 0.47413 0.36946 0.81954 0.0
O54 O 0.49733 0.2676 0.87173 0.0
Zn55 Zn 0.50368 0.28809 0.80347 0.0
O56 O 0.54837 0.33158 0.79896 0.0
C57 C 0.52545 0.2041 0.77363 0.0
O58 O 0.50984 0.19347 0.81543 0.0
O59 O 0.45151 0.31497 0.77797 0.0
C60 C 0.58653 0.32354 0.80496 0.0
O61 O 0.59737 0.28578 0.81745 0.0
C62 C 0.50582 0.29013 0.90788 0.0
O63 O 0.5181 0.32852 0.90082 0.0
O64 O 0.52357 0.24182 0.76062 0.0
C65 C 0.17422 0.44048 0.27753 0.0
O66 O 0.17102 0.44797 0.32371 0.0
O67 O 0.21577 0.52472 0.34716 0.0
Zn68 Zn 0.20159 0.5253 0.27644 0.0
O69 O 0.15086 0.55972 0.26418 0.0
C70 C 0.28493 0.55243 0.2525 0.0
O71 O 0.29567 0.52803 0.28816 0.0
O72 O 0.18944 0.46841 0.25053 0.0
C73 C 0.15168 0.5981 0.27427 0.0
O74 O 0.18477 0.61338 0.29544 0.0
C75 C 0.18904 0.53372 0.37905 0.0
O76 O 0.15075 0.54155 0.36587 0.0
O77 O 0.24711 0.55396 0.24011 0.0
C78 C 0.06197 0.15879 0.81018 0.0
O79 O 0.0559 0.15525 0.85663 0.0
O80 O 0.97918 0.20546 0.87979 0.0
Zn81 Zn 0.9771 0.18784 0.81036 0.0
O82 O 0.93926 0.13872 0.80135 0.0
C83 C 0.95659 0.27169 0.78035 0.0
O84 O 0.98163 0.28287 0.81523 0.0
O85 O 0.03307 0.17321 0.78418 0.0
C86 C 0.90066 0.14416 0.80791 0.0
O87 O 0.88787 0.18054 0.82319 0.0
C88 C 0.9684 0.18106 0.9134 0.0
O89 O 0.95775 0.14282 0.90272 0.0
O90 O 0.95175 0.23338 0.77153 0.0
C91 C 0.32295 0.0702 0.31434 0.0
O92 O 0.32962 0.06485 0.36043 0.0
O93 O 0.28334 0.98766 0.39149 0.0
Zn94 Zn 0.29687 0.98497 0.32071 0.0
O95 O 0.34873 0.95171 0.31022 0.0
C96 C 0.21735 0.96293 0.2718 0.0
O97 O 0.20465 0.00117 0.27883 0.0
O98 O 0.30641 0.04088 0.2906 0.0
C99 C 0.34879 0.91393 0.3232 0.0
O100 O 0.316 0.89911 0.34543 0.0
C101 C 0.31161 0.98227 0.42267 0.0
O102 O 0.35016 0.97798 0.40831 0.0
O103 O 0.25298 0.95221 0.28654 0.0
C104 C 0.5634 0.80981 0.78988 0.0
O105 O 0.56085 0.81318 0.83677 0.0
O106 O 0.49485 0.75953 0.87225 0.0
Zn107 Zn 0.48273 0.77441 0.80329 0.0
O108 O 0.44502 0.82396 0.79918 0.0
C109 C 0.43224 0.70186 0.79801 0.0
O110 O 0.43194 0.70824 0.84456 0.0
O111 O 0.53449 0.79111 0.76764 0.0
C112 C 0.40816 0.82466 0.81518 0.0
O113 O 0.39356 0.79183 0.83748 0.0
C114 C 0.48988 0.78428 0.90728 0.0
O115 O 0.47848 0.82266 0.89863 0.0
O116 O 0.45335 0.72612 0.7715 0.0
C117 C 0.65714 0.54422 0.32029 0.0
O118 O 0.64308 0.52005 0.35464 0.0
O119 O 0.73277 0.48265 0.39063 0.0
Zn120 Zn 0.71298 0.48002 0.32208 0.0
O121 O 0.66451 0.44104 0.31647 0.0
C122 C 0.79287 0.47102 0.27001 0.0
O123 O 0.80536 0.50476 0.29217 0.0
O124 O 0.6914 0.53521 0.30038 0.0
C125 C 0.66835 0.40187 0.31698 0.0
O126 O 0.70518 0.38582 0.32474 0.0
C127 C 0.76278 0.46057 0.40541 0.0
O128 O 0.78125 0.4353 0.37527 0.0
O129 O 0.75643 0.4575 0.27753 0.0
C130 C 0.93656 0.66709 0.79326 0.0
O131 O 0.94865 0.66034 0.83761 0.0
O132 O 0.0169 0.72003 0.85781 0.0
Zn133 Zn 0.01737 0.70263 0.7884 0.0
O134 O 0.05466 0.65307 0.77986 0.0
C135 C 0.03568 0.78643 0.75669 0.0
O136 O 0.00872 0.7968 0.78994 0.0
O137 O 0.96043 0.68719 0.76541 0.0
C138 C 0.05102 0.63133 0.74201 0.0
O139 O 0.0219 0.64104 0.71106 0.0
C140 C 0.05119 0.73085 0.87648 0.0
O141 O 0.08475 0.72992 0.84974 0.0
O142 O 0.04243 0.74822 0.74881 0.0
C143 C 0.84938 0.96997 0.28822 0.0
O144 O 0.86527 0.9957 0.31982 0.0
O145 O 0.76802 0.02061 0.37113 0.0
Zn146 Zn 0.78605 0.02685 0.30189 0.0
O147 O 0.83023 0.07075 0.29619 0.0
C148 C 0.70079 0.04239 0.27059 0.0
O149 O 0.69029 0.01948 0.30766 0.0
O150 O 0.81184 0.97465 0.27546 0.0
C151 C 0.8236 0.10916 0.30248 0.0
O152 O 0.78622 0.12138 0.31477 0.0
C153 C 0.79097 0.03378 0.40497 0.0
O154 O 0.82713 0.0502 0.39435 0.0
O155 O 0.73899 0.04741 0.26105 0.0
C156 C 0.54262 0.65258 0.22218 0.0
O157 O 0.51493 0.63364 0.19548 0.0
O158 O 0.49298 0.73969 0.13828 0.0
Zn159 Zn 0.48601 0.71668 0.2049 0.0
O160 O 0.44227 0.67214 0.2063 0.0
C161 C 0.46752 0.79971 0.24007 0.0
O162 O 0.48904 0.81202 0.20261 0.0
O163 O 0.5387 0.69115 0.23047 0.0
C164 C 0.40536 0.6761 0.19122 0.0
O165 O 0.39426 0.71123 0.1711 0.0
C166 C 0.49302 0.71681 0.10121 0.0
O167 O 0.48963 0.67644 0.10648 0.0
O168 O 0.46446 0.76114 0.2486 0.0
C169 C 0.81704 0.55373 0.71203 0.0
O170 O 0.81158 0.55148 0.66541 0.0
O171 O 0.77982 0.47016 0.63869 0.0
Zn172 Zn 0.79329 0.46689 0.70939 0.0
O173 O 0.84226 0.42968 0.71918 0.0
C174 C 0.70884 0.44194 0.73501 0.0
O175 O 0.69733 0.46751 0.70081 0.0
O176 O 0.8085 0.52222 0.73764 0.0
C177 C 0.83971 0.39218 0.70553 0.0
O178 O 0.80586 0.37986 0.68348 0.0
C179 C 0.80835 0.46573 0.60758 0.0
O180 O 0.84676 0.46091 0.62217 0.0
O181 O 0.74704 0.43902 0.7453 0.0
C182 C 0.96535 0.86731 0.18312 0.0
O183 O 0.99336 0.88593 0.15644 0.0
O184 O 0.02147 0.79084 0.09879 0.0
Zn185 Zn 0.02373 0.80493 0.16939 0.0
O186 O 0.06817 0.84819 0.18201 0.0
C187 C 0.03682 0.71748 0.19374 0.0
O188 O 0.01838 0.70963 0.15271 0.0
O189 O 0.96985 0.82906 0.19271 0.0
C190 C 0.10425 0.83801 0.19607 0.0
O191 O 0.11334 0.7985 0.20045 0.0
C192 C 0.05505 0.78147 0.07746 0.0
O193 O 0.0897 0.78135 0.10216 0.0
O194 O 0.03969 0.7548 0.20796 0.0
C195 C 0.66248 0.93333 0.69228 0.0
O196 O 0.65544 0.94216 0.647 0.0
O197 O 0.70983 0.01376 0.62188 0.0
Zn198 Zn 0.6942 0.01666 0.6922 0.0
O199 O 0.64374 0.05239 0.70233 0.0
C200 C 0.77682 0.0292 0.73422 0.0
O201 O 0.78625 0.99385 0.71347 0.0
O202 O 0.68067 0.96015 0.71829 0.0
C203 C 0.6413 0.08899 0.68565 0.0
O204 O 0.67153 0.10292 0.65843 0.0
C205 C 0.73736 0.03787 0.60476 0.0
O206 O 0.7551 0.06507 0.63325 0.0
O207 O 0.74014 0.04314 0.73032 0.0
C208 C 0.39731 0.15827 0.2883 0.0
C209 C 0.39541 0.16183 0.23798 0.0
C210 C 0.37149 0.13069 0.31319 0.0
C211 C 0.34272 0.1055 0.28879 0.0
H212 H 0.42053 0.1751 0.30858 0.0
H213 H 0.37598 0.12745 0.35152 0.0
S214 S 0.31915 0.10954 0.15844 0.0
N215 N 0.35774 0.14268 0.16558 0.0
N216 N 0.30923 0.09081 0.21238 0.0
C217 C 0.33772 0.11164 0.23909 0.0
C218 C 0.36405 0.13981 0.2137 0.0
C219 C 0.40504 0.44807 0.7278 0.0
C220 C 0.36583 0.43527 0.71153 0.0
C221 C 0.43056 0.42127 0.75378 0.0
C222 C 0.41836 0.38024 0.76357 0.0
H223 H 0.41595 0.47935 0.72104 0.0
H224 H 0.46052 0.43267 0.76551 0.0
S225 S 0.31875 0.3313 0.72858 0.0
N226 N 0.31556 0.37911 0.70743 0.0
N227 N 0.36452 0.32789 0.75496 0.0
C228 C 0.37937 0.36678 0.74721 0.0
C229 C 0.3528 0.39455 0.72163 0.0
C230 C 0.11934 0.37504 0.1844 0.0
C231 C 0.09474 0.34836 0.21252 0.0
C232 C 0.14743 0.40266 0.20559 0.0
C233 C 0.15208 0.4047 0.25578 0.0
H234 H 0.11521 0.37653 0.14586 0.0
H235 H 0.16374 0.42422 0.18245 0.0
S236 S 0.10181 0.33494 0.34463 0.0
N237 N 0.08187 0.3209 0.29255 0.0
N238 N 0.13471 0.37279 0.33242 0.0
C239 C 0.13074 0.37533 0.28395 0.0
C240 C 0.10205 0.34718 0.26232 0.0
C241 C 0.15183 0.0854 0.79055 0.0
C242 C 0.1581 0.08759 0.74059 0.0
C243 C 0.12257 0.11066 0.81344 0.0
C244 C 0.09845 0.13908 0.78726 0.0
H245 H 0.16779 0.06233 0.81191 0.0
H246 H 0.11721 0.10603 0.85144 0.0
S247 S 0.10936 0.16322 0.65754 0.0
N248 N 0.14252 0.12512 0.667 0.0
N249 N 0.08753 0.17261 0.71001 0.0
C250 C 0.10717 0.14431 0.7381 0.0
C251 C 0.137 0.11857 0.71478 0.0
C252 C 0.62121 0.86144 0.78873 0.0
C253 C 0.59449 0.83487 0.76319 0.0
C254 C 0.64507 0.89149 0.76514 0.0
C255 C 0.64325 0.89628 0.71497 0.0
H256 H 0.62227 0.86059 0.82757 0.0
H257 H 0.66349 0.91243 0.78683 0.0
S258 S 0.58424 0.82934 0.63057 0.0
N259 N 0.57205 0.81146 0.68428 0.0
N260 N 0.61694 0.86795 0.6399 0.0
C261 C 0.6194 0.8676 0.6886 0.0
C262 C 0.59504 0.8369 0.7127 0.0
C263 C 0.55914 0.59039 0.27016 0.0
C264 C 0.57278 0.62746 0.24887 0.0
C265 C 0.58662 0.56466 0.2948 0.0
C266 C 0.629 0.57451 0.29794 0.0
H267 H 0.52686 0.58117 0.26781 0.0
H268 H 0.57473 0.53609 0.31008 0.0
S269 S 0.68017 0.66837 0.2487 0.0
N270 N 0.63089 0.67367 0.23357 0.0
N271 N 0.68336 0.62406 0.27837 0.0
C272 C 0.64312 0.61161 0.27702 0.0
C273 C 0.61475 0.6385 0.25294 0.0
C274 C 0.87969 0.61501 0.80241 0.0
C275 C 0.90001 0.6447 0.77377 0.0
C276 C 0.85066 0.58756 0.78272 0.0
C277 C 0.84067 0.58865 0.73355 0.0
H278 H 0.88778 0.61131 0.83989 0.0
H279 H 0.83762 0.56392 0.80592 0.0
S280 S 0.87908 0.66588 0.64501 0.0
N281 N 0.90365 0.67755 0.69519 0.0
N282 N 0.84901 0.62596 0.65815 0.0
C283 C 0.85794 0.62062 0.70541 0.0
C284 C 0.88763 0.64861 0.72551 0.0
C285 C 0.91712 0.9571 0.24935 0.0
C286 C 0.87735 0.94245 0.26121 0.0
C287 C 0.94473 0.93276 0.22299 0.0
C288 C 0.93405 0.89239 0.20851 0.0
H289 H 0.92688 0.98796 0.25998 0.0
H290 H 0.97508 0.94543 0.21485 0.0
S291 S 0.83372 0.83938 0.23069 0.0
N292 N 0.82816 0.88546 0.25593 0.0
N293 N 0.88103 0.83865 0.20781 0.0
C294 C 0.89447 0.87711 0.22033 0.0
C295 C 0.86581 0.90247 0.24623 0.0
C296 C 0.60718 0.30547 0.28357 0.0
C297 C 0.56933 0.32149 0.26648 0.0
C298 C 0.63831 0.33157 0.30141 0.0
C299 C 0.63294 0.37484 0.30317 0.0
H300 H 0.61352 0.27251 0.28183 0.0
H301 H 0.66726 0.31763 0.3127 0.0
S302 S 0.53788 0.43229 0.26762 0.0
N303 N 0.52702 0.38327 0.25588 0.0
N304 N 0.58538 0.43236 0.28965 0.0
C305 C 0.59445 0.39119 0.28839 0.0
C306 C 0.56275 0.36454 0.26997 0.0
C307 C 0.15025 0.56819 0.74587 0.0
C308 C 0.14847 0.54474 0.7033 0.0
C309 C 0.11775 0.59459 0.75921 0.0
C310 C 0.08222 0.59896 0.73033 0.0
H311 H 0.17758 0.56716 0.76843 0.0
H312 H 0.12136 0.61289 0.79155 0.0
S313 S 0.06065 0.54183 0.61718 0.0
N314 N 0.10693 0.52552 0.63386 0.0
N315 N 0.04591 0.57513 0.65881 0.0
C316 C 0.07911 0.57414 0.68884 0.0
C317 C 0.11217 0.54702 0.67539 0.0
C318 C 0.89631 0.12518 0.27708 0.0
C319 C 0.85715 0.13951 0.29221 0.0
C320 C 0.92747 0.15276 0.26251 0.0
C321 C 0.9208 0.19585 0.26235 0.0
H322 H 0.90276 0.09224 0.27514 0.0
H323 H 0.95647 0.13996 0.24966 0.0
S324 S 0.82538 0.24979 0.30365 0.0
N325 N 0.81465 0.19998 0.3098 0.0
N326 N 0.87317 0.25183 0.28255 0.0
C327 C 0.88252 0.21078 0.27969 0.0
C328 C 0.85074 0.18264 0.29457 0.0
C329 C 0.31018 0.88733 0.79582 0.0
C330 C 0.32464 0.92363 0.77311 0.0
C331 C 0.33756 0.85637 0.81111 0.0
C332 C 0.38059 0.86022 0.80406 0.0
H333 H 0.27725 0.88217 0.80081 0.0
H334 H 0.32462 0.82857 0.82705 0.0
S335 S 0.43489 0.95091 0.75057 0.0
N336 N 0.38523 0.96297 0.74749 0.0
N337 N 0.43673 0.90476 0.77615 0.0
C338 C 0.39571 0.89721 0.78344 0.0
C339 C 0.36776 0.92891 0.76805 0.0
C340 C 0.55389 0.13261 0.76172 0.0
C341 C 0.55062 0.17389 0.74573 0.0
C342 C 0.58183 0.10485 0.74051 0.0
C343 C 0.60792 0.11722 0.70253 0.0
H344 H 0.53573 0.12186 0.79201 0.0
H345 H 0.58407 0.07389 0.75542 0.0
S346 S 0.60806 0.22043 0.64323 0.0
N347 N 0.57327 0.22466 0.68641 0.0
N348 N 0.62582 0.17253 0.64676 0.0
C349 C 0.60332 0.1577 0.68432 0.0
C350 C 0.57468 0.18598 0.70582 0.0
C351 C 0.38654 0.60827 0.22907 0.0
C352 C 0.37462 0.64285 0.20139 0.0
C353 C 0.35761 0.57845 0.24384 0.0
C354 C 0.31551 0.58171 0.23135 0.0
H355 H 0.41836 0.60467 0.24082 0.0
H356 H 0.36829 0.55319 0.26627 0.0
S357 S 0.26868 0.66419 0.1555 0.0
N358 N 0.31814 0.67705 0.15924 0.0
N359 N 0.26373 0.62095 0.18673 0.0
C360 C 0.30341 0.61504 0.20169 0.0
C361 C 0.33294 0.6456 0.18682 0.0
C362 C 0.903 0.37357 0.75263 0.0
C363 C 0.87229 0.36205 0.71926 0.0
C364 C 0.93125 0.34453 0.77066 0.0
C365 C 0.93005 0.30279 0.75596 0.0
H366 H 0.90441 0.40497 0.76638 0.0
H367 H 0.95327 0.35472 0.79753 0.0
S368 S 0.85908 0.25784 0.66451 0.0
N369 N 0.84486 0.30686 0.66881 0.0
N370 N 0.89795 0.25228 0.70245 0.0
C371 C 0.90099 0.29135 0.72053 0.0
C372 C 0.87212 0.32095 0.70228 0.0
C373 C 0.12094 0.91098 0.22071 0.0
C374 C 0.1344 0.8702 0.21142 0.0
C375 C 0.14811 0.94103 0.23924 0.0
C376 C 0.18984 0.93154 0.24907 0.0
H377 H 0.08886 0.91956 0.21493 0.0
H378 H 0.13597 0.97164 0.24686 0.0
S379 S 0.24162 0.83033 0.22636 0.0
N380 N 0.19298 0.82275 0.21019 0.0
N381 N 0.244 0.87894 0.2447 0.0
C382 C 0.20407 0.89124 0.23815 0.0
C383 C 0.17638 0.86068 0.21943 0.0
C384 C 0.36048 0.60881 0.79136 0.0
C385 C 0.35264 0.60433 0.74198 0.0
C386 C 0.38671 0.63995 0.80868 0.0
C387 C 0.40647 0.66804 0.77746 0.0
H388 H 0.34596 0.58832 0.81723 0.0
H389 H 0.39122 0.64206 0.84713 0.0
S390 S 0.3975 0.66911 0.64459 0.0
N391 N 0.36761 0.63017 0.66169 0.0
N392 N 0.41708 0.68883 0.69436 0.0
C393 C 0.39956 0.66361 0.72781 0.0
C394 C 0.37261 0.63179 0.71008 0.0
C395 C 0.8331 0.38163 0.19518 0.0
C396 C 0.8764 0.38657 0.19715 0.0
C397 C 0.80647 0.41028 0.2168 0.0
C398 C 0.82189 0.44526 0.24131 0.0
H399 H 0.81947 0.35445 0.17859 0.0
H400 H 0.77346 0.40398 0.21568 0.0
S401 S 0.93265 0.47583 0.25111 0.0
N402 N 0.93346 0.43161 0.22123 0.0
N403 N 0.88326 0.48551 0.26197 0.0
C404 C 0.865 0.45221 0.24075 0.0
C405 C 0.89227 0.42288 0.21866 0.0
C406 C 0.09632 0.80521 0.70504 0.0
C407 C 0.06296 0.81808 0.7341 0.0
C408 C 0.1264 0.83337 0.68903 0.0
C409 C 0.12443 0.87563 0.70136 0.0
H410 H 0.10036 0.77277 0.69607 0.0
H411 H 0.1523 0.82143 0.6685 0.0
S412 S 0.03984 0.92655 0.77017 0.0
N413 N 0.02716 0.87691 0.76985 0.0
N414 N 0.08363 0.9299 0.73969 0.0
C415 C 0.0897 0.88949 0.72758 0.0
C416 C 0.05901 0.86073 0.74395 0.0
C417 C 0.6546 0.12921 0.19604 0.0
C418 C 0.61195 0.12665 0.20631 0.0
C419 C 0.68271 0.10044 0.21487 0.0
C420 C 0.66946 0.06794 0.24505 0.0
H421 H 0.66678 0.15459 0.17477 0.0
H422 H 0.71537 0.10499 0.20734 0.0
S423 S 0.56036 0.04366 0.27735 0.0
N424 N 0.55721 0.08607 0.24433 0.0
N425 N 0.61018 0.03218 0.27996 0.0
C426 C 0.6266 0.06334 0.25307 0.0
C427 C 0.59784 0.09259 0.23363 0.0
C428 C 0.4398 0.87141 0.25245 0.0
C429 C 0.44157 0.82968 0.26719 0.0
C430 C 0.41105 0.89899 0.27247 0.0
C431 C 0.38277 0.88593 0.30793 0.0
H432 H 0.45964 0.88261 0.22385 0.0
H433 H 0.40989 0.93032 0.25847 0.0
S434 S 0.37849 0.78158 0.36415 0.0
N435 N 0.41543 0.77789 0.32336 0.0
N436 N 0.36135 0.8297 0.36069 0.0
C437 C 0.3859 0.84504 0.32516 0.0
C438 C 0.41531 0.81695 0.30492 0.0
C439 C 0.63562 0.41977 0.75036 0.0
C440 C 0.67829 0.41348 0.75765 0.0
C441 C 0.6062 0.39134 0.76745 0.0
C442 C 0.61822 0.35515 0.79216 0.0
H443 H 0.62475 0.4465 0.73046 0.0
H444 H 0.5738 0.39727 0.75982 0.0
S445 S 0.72601 0.32537 0.82363 0.0
N446 N 0.73103 0.36932 0.79379 0.0
N447 N 0.67572 0.31585 0.82553 0.0
C448 C 0.6607 0.34916 0.80122 0.0
C449 C 0.69071 0.37831 0.78411 0.0
C450 C 0.11846 0.66792 0.2727 0.0
C451 C 0.11804 0.62616 0.25816 0.0
C452 C 0.09047 0.69662 0.25363 0.0
C453 C 0.06105 0.68491 0.21879 0.0
H454 H 0.14143 0.67898 0.29803 0.0
H455 H 0.09325 0.72865 0.26495 0.0
S456 S 0.04345 0.5782 0.17291 0.0
N457 N 0.08292 0.57356 0.21022 0.0
N458 N 0.03052 0.62774 0.17401 0.0
C459 C 0.05865 0.64276 0.20591 0.0
C460 C 0.08705 0.61335 0.22569 0.0
C461 C 0.82745 0.1211 0.79596 0.0
C462 C 0.87004 0.11194 0.79371 0.0
C463 C 0.7977 0.09347 0.77818 0.0
C464 C 0.80913 0.05535 0.75736 0.0
H465 H 0.81682 0.15043 0.81036 0.0
H466 H 0.76544 0.10274 0.77976 0.0
S467 S 0.91644 0.01451 0.74697 0.0
N468 N 0.9221 0.06053 0.77216 0.0
N469 N 0.86609 0.00854 0.73869 0.0
C470 C 0.85151 0.04484 0.75685 0.0
C471 C 0.88195 0.07312 0.77499 0.0
C472 C 0.50186 0.21108 0.00912 0.0
C473 C 0.50545 0.23557 0.05073 0.0
C474 C 0.50115 0.22906 0.9633 0.0
C475 C 0.50436 0.2723 0.95706 0.0
H476 H 0.49979 0.17761 0.01179 0.0
H477 H 0.49882 0.20868 0.9325 0.0
S478 S 0.513 0.35062 0.05436 0.0
N479 N 0.51115 0.30569 0.08268 0.0
N480 N 0.51003 0.33935 0.99669 0.0
C481 C 0.50736 0.29728 0.99837 0.0
C482 C 0.50782 0.27898 0.04511 0.0
C483 C 0.23843 0.51777 0.44587 0.0
C484 C 0.20137 0.53645 0.43022 0.0
C485 C 0.25114 0.52041 0.4939 0.0
C486 C 0.22769 0.54251 0.52789 0.0
H487 H 0.25774 0.50073 0.4209 0.0
H488 H 0.27985 0.50549 0.50432 0.0
S489 S 0.12786 0.59643 0.50584 0.0
N490 N 0.14099 0.57723 0.45306 0.0
N491 N 0.16518 0.58258 0.54301 0.0
C492 C 0.19055 0.56126 0.51284 0.0
C493 C 0.17729 0.5581 0.46412 0.0
C494 C 0.98126 0.25065 0.02251 0.0
C495 C 0.95875 0.22967 0.05835 0.0
C496 C 0.98452 0.2345 0.97594 0.0
C497 C 0.96589 0.19644 0.96351 0.0
H498 H 0.99591 0.28018 0.03018 0.0
H499 H 0.00173 0.25214 0.94946 0.0
S500 S 0.90506 0.12828 0.04493 0.0
N501 N 0.91855 0.16814 0.07868 0.0
N502 N 0.92494 0.13767 0.99143 0.0
C503 C 0.94402 0.17469 0.99932 0.0
C504 C 0.94035 0.19135 0.04662 0.0
C505 C 0.26237 0.99288 0.49108 0.0
C506 C 0.30072 0.97806 0.47414 0.0
C507 C 0.2505 0.98756 0.53913 0.0
C508 C 0.27622 0.96659 0.57187 0.0
H509 H 0.24121 0.00862 0.46703 0.0
H510 H 0.22053 -0.00079 0.55038 0.0
S511 S 0.38027 0.9227 0.54607 0.0
N512 N 0.36486 0.94237 0.49439 0.0
N513 N 0.34235 0.93202 0.58438 0.0
C514 C 0.31486 0.95204 0.55558 0.0
C515 C 0.32718 0.95791 0.50683 0.0
C516 C 0.49715 0.72568 0.96546 0.0
C517 C 0.49349 0.76862 0.9572 0.0
C518 C 0.49765 0.70942 0.01205 0.0
C519 C 0.49475 0.73539 0.05248 0.0
H520 H 0.49876 0.70413 0.93568 0.0
H521 H 0.49984 0.67608 0.01624 0.0
S522 S 0.48704 0.85044 0.05075 0.0
N523 N 0.48866 0.83708 0.9936 0.0
N524 N 0.48972 0.8066 0.08118 0.0
C525 C 0.49223 0.77856 0.04486 0.0
C526 C 0.49155 0.79513 0.99728 0.0
C527 C 0.75963 0.4802 0.53976 0.0
C528 C 0.79815 0.46507 0.55569 0.0
C529 C 0.74877 0.47918 0.49108 0.0
C530 C 0.77575 0.46244 0.45641 0.0
H531 H 0.7376 0.49305 0.56507 0.0
H532 H 0.71866 0.49104 0.48073 0.0
S533 S 0.88057 0.41916 0.47918 0.0
N534 N 0.86365 0.43328 0.53265 0.0
N535 N 0.84308 0.43103 0.44131 0.0
C536 C 0.81447 0.44737 0.47176 0.0
C537 C 0.82573 0.44882 0.52131 0.0
C538 C 0.01729 0.76059 0.00265 0.0
C539 C 0.05495 0.76951 0.026 0.0
C540 C 0.01641 0.74815 0.95444 0.0
C541 C 0.05315 0.74436 0.92743 0.0
H542 H 0.98815 0.76275 0.02186 0.0
H543 H 0.98659 0.74142 0.93833 0.0
S544 S 0.15997 0.76547 0.97122 0.0
N545 N 0.12997 0.77457 0.01804 0.0
N546 N 0.12836 0.75138 0.92761 0.0
C547 C 0.09104 0.75366 0.95018 0.0
C548 C 0.09193 0.76615 0.99937 0.0
C549 C 0.78602 0.05638 0.53843 0.0
C550 C 0.7501 0.03532 0.55365 0.0
C551 C 0.79907 0.05511 0.49057 0.0
C552 C 0.77662 0.033 0.45561 0.0
H553 H 0.80447 0.07405 0.56369 0.0
H554 H 0.82686 0.07211 0.48094 0.0
S555 S 0.6804 0.97211 0.47666 0.0
N556 N 0.69233 0.99118 0.52989 0.0
N557 N 0.71672 0.98904 0.43969 0.0
C558 C 0.74066 0.01157 0.47025 0.0
C559 C 0.72747 0.01263 0.51927 0.0
loop_
_geom_bond_atom_site_label_1
_geom_bond_atom_site_label_2
_geom_bond_distance
_geom_bond_site_symmetry_2
_ccdc_geom_bond_type
C0 O1 1.160 . S
C0 O7 1.185 . S
O1 C0 1.160 . S
O2 Zn3 1.899 . S
O2 C10 1.284 . S
Zn3 O2 1.899 . S
Zn3 O4 2.032 . S
Zn3 O7 2.086 . S
Zn3 O12 1.977 . S
O4 Zn3 2.032 . S
O4 C8 1.278 . S
C5 O6 1.203 . S
C5 O12 1.267 . S
O6 C5 1.203 . S
O7 C0 1.185 . S
O7 Zn3 2.086 . S
C8 O4 1.278 . S
C8 O9 1.211 . S
O9 C8 1.211 . S
C10 O2 1.284 . S
C10 O11 1.273 . S
O11 C10 1.273 . S
O12 Zn3 1.977 . S
O12 C5 1.267 . S
C13 O14 1.160 . S
C13 O20 1.185 . S
O14 C13 1.160 . S
O15 Zn16 1.899 . S
O15 C23 1.284 . S
Zn16 O15 1.899 . S
Zn16 O17 2.032 . S
Zn16 O20 2.086 . S
Zn16 O25 1.977 . S
O17 Zn16 2.032 . S
O17 C21 1.278 . S
C18 O19 1.203 . S
C18 O25 1.267 . S
O19 C18 1.203 . S
O20 C13 1.185 . S
O20 Zn16 2.086 . S
C21 O17 1.278 . S
C21 O22 1.211 . S
O22 C21 1.211 . S
C23 O15 1.284 . S
C23 O24 1.273 . S
O24 C23 1.273 . S
O25 Zn16 1.977 . S
O25 C18 1.267 . S
C26 O27 1.160 . S
C26 O33 1.185 . S
O27 C26 1.160 . S
O28 Zn29 1.899 . S
O28 C36 1.284 . S
Zn29 O28 1.899 . S
Zn29 O30 2.032 . S
Zn29 O33 2.086 1_655 S
Zn29 O38 1.977 . S
O30 Zn29 2.032 . S
O30 C34 1.278 . S
C31 O32 1.203 . S
C31 O38 1.267 . S
O32 C31 1.203 . S
O33 C26 1.185 . S
O33 Zn29 2.086 1_455 S
C34 O30 1.278 . S
C34 O35 1.211 . S
O35 C34 1.211 . S
C36 O28 1.284 . S
C36 O37 1.273 . S
O37 C36 1.273 . S
O38 Zn29 1.977 . S
O38 C31 1.267 . S
C39 O40 1.160 . S
C39 O46 1.185 . S
O40 C39 1.160 . S
O41 Zn42 1.899 . S
O41 C49 1.284 . S
Zn42 O41 1.899 . S
Zn42 O43 2.032 . S
Zn42 O46 2.086 1_565 S
Zn42 O51 1.977 . S
O43 Zn42 2.032 . S
O43 C47 1.278 . S
C44 O45 1.203 . S
C44 O51 1.267 . S
O45 C44 1.203 . S
O46 C39 1.185 . S
O46 Zn42 2.086 1_545 S
C47 O43 1.278 . S
C47 O48 1.211 . S
O48 C47 1.211 . S
C49 O41 1.284 . S
C49 O50 1.273 . S
O50 C49 1.273 . S
O51 Zn42 1.977 . S
O51 C44 1.267 . S
C52 O53 1.160 . S
C52 O59 1.185 . S
O53 C52 1.160 . S
O54 Zn55 1.899 . S
O54 C62 1.284 . S
Zn55 O54 1.899 . S
Zn55 O56 2.032 . S
Zn55 O59 2.086 . S
Zn55 O64 1.977 . S
O56 Zn55 2.032 . S
O56 C60 1.278 . S
C57 O58 1.203 . S
C57 O64 1.267 . S
O58 C57 1.203 . S
O59 C52 1.185 . S
O59 Zn55 2.086 . S
C60 O56 1.278 . S
C60 O61 1.211 . S
O61 C60 1.211 . S
C62 O54 1.284 . S
C62 O63 1.273 . S
O63 C62 1.273 . S
O64 Zn55 1.977 . S
O64 C57 1.267 . S
C65 O66 1.160 . S
C65 O72 1.185 . S
O66 C65 1.160 . S
O67 Zn68 1.899 . S
O67 C75 1.284 . S
Zn68 O67 1.899 . S
Zn68 O69 2.032 . S
Zn68 O72 2.086 . S
Zn68 O77 1.977 . S
O69 Zn68 2.032 . S
O69 C73 1.278 . S
C70 O71 1.203 . S
C70 O77 1.267 . S
O71 C70 1.203 . S
O72 C65 1.185 . S
O72 Zn68 2.086 . S
C73 O69 1.278 . S
C73 O74 1.211 . S
O74 C73 1.211 . S
C75 O67 1.284 . S
C75 O76 1.273 . S
O76 C75 1.273 . S
O77 Zn68 1.977 . S
O77 C70 1.267 . S
C78 O79 1.160 . S
C78 O85 1.185 . S
O79 C78 1.160 . S
O80 Zn81 1.899 . S
O80 C88 1.284 . S
Zn81 O80 1.899 . S
Zn81 O82 2.032 . S
Zn81 O85 2.086 1_655 S
Zn81 O90 1.977 . S
O82 Zn81 2.032 . S
O82 C86 1.278 . S
C83 O84 1.203 . S
C83 O90 1.267 . S
O84 C83 1.203 . S
O85 C78 1.185 . S
O85 Zn81 2.086 1_455 S
C86 O82 1.278 . S
C86 O87 1.211 . S
O87 C86 1.211 . S
C88 O80 1.284 . S
C88 O89 1.273 . S
O89 C88 1.273 . S
O90 Zn81 1.977 . S
O90 C83 1.267 . S
C91 O92 1.160 . S
C91 O98 1.185 . S
O92 C91 1.160 . S
O93 Zn94 1.899 . S
O93 C101 1.284 . S
Zn94 O93 1.899 . S
Zn94 O95 2.032 . S
Zn94 O98 2.086 1_565 S
Zn94 O103 1.977 . S
O95 Zn94 2.032 . S
O95 C99 1.278 . S
C96 O97 1.203 . S
C96 O103 1.267 . S
O97 C96 1.203 . S
O98 C91 1.185 . S
O98 Zn94 2.086 1_545 S
C99 O95 1.278 . S
C99 O100 1.211 . S
O100 C99 1.211 . S
C101 O93 1.284 . S
C101 O102 1.273 . S
O102 C101 1.273 . S
O103 Zn94 1.977 . S
O103 C96 1.267 . S
C104 O105 1.160 . S
C104 O111 1.185 . S
O105 C104 1.160 . S
O106 Zn107 1.899 . S
O106 C114 1.284 . S
Zn107 O106 1.899 . S
Zn107 O108 2.032 . S
Zn107 O111 2.086 . S
Zn107 O116 1.977 . S
O108 Zn107 2.032 . S
O108 C112 1.278 . S
C109 O110 1.203 . S
C109 O116 1.267 . S
O110 C109 1.203 . S
O111 C104 1.185 . S
O111 Zn107 2.086 . S
C112 O108 1.278 . S
C112 O113 1.211 . S
O113 C112 1.211 . S
C114 O106 1.284 . S
C114 O115 1.273 . S
O115 C114 1.273 . S
O116 Zn107 1.977 . S
O116 C109 1.267 . S
C117 O118 1.160 . S
C117 O124 1.185 . S
O118 C117 1.160 . S
O119 Zn120 1.899 . S
O119 C127 1.284 . S
Zn120 O119 1.899 . S
Zn120 O121 2.032 . S
Zn120 O124 2.086 . S
Zn120 O129 1.977 . S
O121 Zn120 2.032 . S
O121 C125 1.278 . S
C122 O123 1.203 . S
C122 O129 1.267 . S
O123 C122 1.203 . S
O124 C117 1.185 . S
O124 Zn120 2.086 . S
C125 O121 1.278 . S
C125 O126 1.211 . S
O126 C125 1.211 . S
C127 O119 1.284 . S
C127 O128 1.273 . S
O128 C127 1.273 . S
O129 Zn120 1.977 . S
O129 C122 1.267 . S
C130 O131 1.160 . S
C130 O137 1.185 . S
O131 C130 1.160 . S
O132 Zn133 1.899 . S
O132 C140 1.284 . S
Zn133 O132 1.899 . S
Zn133 O134 2.032 . S
Zn133 O137 2.086 1_455 S
Zn133 O142 1.977 . S
O134 Zn133 2.032 . S
O134 C138 1.278 . S
C135 O136 1.203 . S
C135 O142 1.267 . S
O136 C135 1.203 . S
O137 C130 1.185 . S
O137 Zn133 2.086 1_655 S
C138 O134 1.278 . S
C138 O139 1.211 . S
O139 C138 1.211 . S
C140 O132 1.284 . S
C140 O141 1.273 . S
O141 C140 1.273 . S
O142 Zn133 1.977 . S
O142 C135 1.267 . S
C143 O144 1.160 . S
C143 O150 1.185 . S
O144 C143 1.160 . S
O145 Zn146 1.899 . S
O145 C153 1.284 . S
Zn146 O145 1.899 . S
Zn146 O147 2.032 . S
Zn146 O150 2.086 1_545 S
Zn146 O155 1.977 . S
O147 Zn146 2.032 . S
O147 C151 1.278 . S
C148 O149 1.203 . S
C148 O155 1.267 . S
O149 C148 1.203 . S
O150 C143 1.185 . S
O150 Zn146 2.086 1_565 S
C151 O147 1.278 . S
C151 O152 1.211 . S
O152 C151 1.211 . S
C153 O145 1.284 . S
C153 O154 1.273 . S
O154 C153 1.273 . S
O155 Zn146 1.977 . S
O155 C148 1.267 . S
C156 O157 1.160 . S
C156 O163 1.185 . S
O157 C156 1.160 . S
O158 Zn159 1.899 . S
O158 C166 1.284 . S
Zn159 O158 1.899 . S
Zn159 O160 2.032 . S
Zn159 O163 2.086 . S
Zn159 O168 1.977 . S
O160 Zn159 2.032 . S
O160 C164 1.278 . S
C161 O162 1.203 . S
C161 O168 1.267 . S
O162 C161 1.203 . S
O163 C156 1.185 . S
O163 Zn159 2.086 . S
C164 O160 1.278 . S
C164 O165 1.211 . S
O165 C164 1.211 . S
C166 O158 1.284 . S
C166 O167 1.273 . S
O167 C166 1.273 . S
O168 Zn159 1.977 . S
O168 C161 1.267 . S
C169 O170 1.160 . S
C169 O176 1.185 . S
O170 C169 1.160 . S
O171 Zn172 1.899 . S
O171 C179 1.284 . S
Zn172 O171 1.899 . S
Zn172 O173 2.032 . S
Zn172 O176 2.086 . S
Zn172 O181 1.977 . S
O173 Zn172 2.032 . S
O173 C177 1.278 . S
C174 O175 1.203 . S
C174 O181 1.267 . S
O175 C174 1.203 . S
O176 C169 1.185 . S
O176 Zn172 2.086 . S
C177 O173 1.278 . S
C177 O178 1.211 . S
O178 C177 1.211 . S
C179 O171 1.284 . S
C179 O180 1.273 . S
O180 C179 1.273 . S
O181 Zn172 1.977 . S
O181 C174 1.267 . S
C182 O183 1.160 . S
C182 O189 1.185 . S
O183 C182 1.160 . S
O184 Zn185 1.899 . S
O184 C192 1.284 . S
Zn185 O184 1.899 . S
Zn185 O186 2.032 . S
Zn185 O189 2.086 1_455 S
Zn185 O194 1.977 . S
O186 Zn185 2.032 . S
O186 C190 1.278 . S
C187 O188 1.203 . S
C187 O194 1.267 . S
O188 C187 1.203 . S
O189 C182 1.185 . S
O189 Zn185 2.086 1_655 S
C190 O186 1.278 . S
C190 O191 1.211 . S
O191 C190 1.211 . S
C192 O184 1.284 . S
C192 O193 1.273 . S
O193 C192 1.273 . S
O194 Zn185 1.977 . S
O194 C187 1.267 . S
C195 O196 1.160 . S
C195 O202 1.185 . S
O196 C195 1.160 . S
O197 Zn198 1.899 . S
O197 C205 1.284 . S
Zn198 O197 1.899 . S
Zn198 O199 2.032 . S
Zn198 O202 2.086 1_545 S
Zn198 O207 1.977 . S
O199 Zn198 2.032 . S
O199 C203 1.278 . S
C200 O201 1.203 . S
C200 O207 1.267 . S
O201 C200 1.203 . S
O202 C195 1.185 . S
O202 Zn198 2.086 1_565 S
C203 O199 1.278 . S
C203 O204 1.211 . S
O204 C203 1.211 . S
C205 O197 1.284 . S
C205 O206 1.273 . S
O206 C205 1.273 . S
O207 Zn198 1.977 . S
O207 C200 1.267 . S
C208 C209 1.369 . S
C208 C210 1.419 . S
C208 H212 0.930 . S
C209 C208 1.369 . S
C209 C218 1.429 . S
C210 C208 1.419 . S
C210 C211 1.363 . S
C210 H213 0.929 . S
C211 C210 1.363 . S
C211 C217 1.428 . S
H212 C208 0.930 . S
H213 C210 0.929 . S
S214 N215 1.613 . S
S214 N216 1.610 . S
N215 S214 1.613 . S
N215 C218 1.350 . S
N216 S214 1.610 . S
N216 C217 1.351 . S
C217 C211 1.428 . S
C217 N216 1.351 . S
C217 C218 1.434 . S
C218 C209 1.429 . S
C218 N215 1.350 . S
C218 C217 1.434 . S
C219 C220 1.369 . S
C219 C221 1.419 . S
C219 H223 0.930 . S
C220 C219 1.369 . S
C220 C229 1.429 . S
C221 C219 1.419 . S
C221 C222 1.363 . S
C221 H224 0.929 . S
C222 C221 1.363 . S
C222 C228 1.428 . S
H223 C219 0.930 . S
H224 C221 0.929 . S
S225 N226 1.613 . S
S225 N227 1.610 . S
N226 S225 1.613 . S
N226 C229 1.350 . S
N227 S225 1.610 . S
N227 C228 1.351 . S
C228 C222 1.428 . S
C228 N227 1.351 . S
C228 C229 1.434 . S
C229 C220 1.429 . S
C229 N226 1.350 . S
C229 C228 1.434 . S
C230 C231 1.369 . S
C230 C232 1.419 . S
C230 H234 0.930 . S
C231 C230 1.369 . S
C231 C240 1.429 . S
C232 C230 1.419 . S
C232 C233 1.363 . S
C232 H235 0.929 . S
C233 C232 1.363 . S
C233 C239 1.428 . S
H234 C230 0.930 . S
H235 C232 0.929 . S
S236 N237 1.613 . S
S236 N238 1.610 . S
N237 S236 1.613 . S
N237 C240 1.350 . S
N238 S236 1.610 . S
N238 C239 1.351 . S
C239 C233 1.428 . S
C239 N238 1.351 . S
C239 C240 1.434 . S
C240 C231 1.429 . S
C240 N237 1.350 . S
C240 C239 1.434 . S
C241 C242 1.369 . S
C241 C243 1.419 . S
C241 H245 0.930 . S
C242 C241 1.369 . S
C242 C251 1.429 . S
C243 C241 1.419 . S
C243 C244 1.363 . S
C243 H246 0.929 . S
C244 C243 1.363 . S
C244 C250 1.428 . S
H245 C241 0.930 . S
H246 C243 0.929 . S
S247 N248 1.613 . S
S247 N249 1.610 . S
N248 S247 1.613 . S
N248 C251 1.350 . S
N249 S247 1.610 . S
N249 C250 1.351 . S
C250 C244 1.428 . S
C250 N249 1.351 . S
C250 C251 1.434 . S
C251 C242 1.429 . S
C251 N248 1.350 . S
C251 C250 1.434 . S
C252 C253 1.369 . S
C252 C254 1.419 . S
C252 H256 0.930 . S
C253 C252 1.369 . S
C253 C262 1.429 . S
C254 C252 1.419 . S
C254 C255 1.363 . S
C254 H257 0.929 . S
C255 C254 1.363 . S
C255 C261 1.428 . S
H256 C252 0.930 . S
H257 C254 0.929 . S
S258 N259 1.613 . S
S258 N260 1.610 . S
N259 S258 1.613 . S
N259 C262 1.350 . S
N260 S258 1.610 . S
N260 C261 1.351 . S
C261 C255 1.428 . S
C261 N260 1.351 . S
C261 C262 1.434 . S
C262 C253 1.429 . S
C262 N259 1.350 . S
C262 C261 1.434 . S
C263 C264 1.369 . S
C263 C265 1.419 . S
C263 H267 0.930 . S
C264 C263 1.369 . S
C264 C273 1.429 . S
C265 C263 1.419 . S
C265 C266 1.363 . S
C265 H268 0.929 . S
C266 C265 1.363 . S
C266 C272 1.428 . S
H267 C263 0.930 . S
H268 C265 0.929 . S
S269 N270 1.613 . S
S269 N271 1.610 . S
N270 S269 1.613 . S
N270 C273 1.350 . S
N271 S269 1.610 . S
N271 C272 1.351 . S
C272 C266 1.428 . S
C272 N271 1.351 . S
C272 C273 1.434 . S
C273 C264 1.429 . S
C273 N270 1.350 . S
C273 C272 1.434 . S
C274 C275 1.369 . S
C274 C276 1.419 . S
C274 H278 0.930 . S
C275 C274 1.369 . S
C275 C284 1.429 . S
C276 C274 1.419 . S
C276 C277 1.363 . S
C276 H279 0.929 . S
C277 C276 1.363 . S
C277 C283 1.428 . S
H278 C274 0.930 . S
H279 C276 0.929 . S
S280 N281 1.613 . S
S280 N282 1.610 . S
N281 S280 1.613 . S
N281 C284 1.350 . S
N282 S280 1.610 . S
N282 C283 1.351 . S
C283 C277 1.428 . S
C283 N282 1.351 . S
C283 C284 1.434 . S
C284 C275 1.429 . S
C284 N281 1.350 . S
C284 C283 1.434 . S
C285 C286 1.369 . S
C285 C287 1.419 . S
C285 H289 0.930 . S
C286 C285 1.369 . S
C286 C295 1.429 . S
C287 C285 1.419 . S
C287 C288 1.363 . S
C287 H290 0.929 . S
C288 C287 1.363 . S
C288 C294 1.428 . S
H289 C285 0.930 . S
H290 C287 0.929 . S
S291 N292 1.613 . S
S291 N293 1.610 . S
N292 S291 1.613 . S
N292 C295 1.350 . S
N293 S291 1.610 . S
N293 C294 1.351 . S
C294 C288 1.428 . S
C294 N293 1.351 . S
C294 C295 1.434 . S
C295 C286 1.429 . S
C295 N292 1.350 . S
C295 C294 1.434 . S
C296 C297 1.369 . S
C296 C298 1.419 . S
C296 H300 0.930 . S
C297 C296 1.369 . S
C297 C306 1.429 . S
C298 C296 1.419 . S
C298 C299 1.363 . S
C298 H301 0.929 . S
C299 C298 1.363 . S
C299 C305 1.428 . S
H300 C296 0.930 . S
H301 C298 0.929 . S
S302 N303 1.613 . S
S302 N304 1.610 . S
N303 S302 1.613 . S
N303 C306 1.350 . S
N304 S302 1.610 . S
N304 C305 1.351 . S
C305 C299 1.428 . S
C305 N304 1.351 . S
C305 C306 1.434 . S
C306 C297 1.429 . S
C306 N303 1.350 . S
C306 C305 1.434 . S
C307 C308 1.369 . S
C307 C309 1.419 . S
C307 H311 0.930 . S
C308 C307 1.369 . S
C308 C317 1.429 . S
C309 C307 1.419 . S
C309 C310 1.363 . S
C309 H312 0.929 . S
C310 C309 1.363 . S
C310 C316 1.428 . S
H311 C307 0.930 . S
H312 C309 0.929 . S
S313 N314 1.613 . S
S313 N315 1.610 . S
N314 S313 1.613 . S
N314 C317 1.350 . S
N315 S313 1.610 . S
N315 C316 1.351 . S
C316 C310 1.428 . S
C316 N315 1.351 . S
C316 C317 1.434 . S
C317 C308 1.429 . S
C317 N314 1.350 . S
C317 C316 1.434 . S
C318 C319 1.369 . S
C318 C320 1.419 . S
C318 H322 0.930 . S
C319 C318 1.369 . S
C319 C328 1.429 . S
C320 C318 1.419 . S
C320 C321 1.363 . S
C320 H323 0.929 . S
C321 C320 1.363 . S
C321 C327 1.428 . S
H322 C318 0.930 . S
H323 C320 0.929 . S
S324 N325 1.613 . S
S324 N326 1.610 . S
N325 S324 1.613 . S
N325 C328 1.350 . S
N326 S324 1.610 . S
N326 C327 1.351 . S
C327 C321 1.428 . S
C327 N326 1.351 . S
C327 C328 1.434 . S
C328 C319 1.429 . S
C328 N325 1.350 . S
C328 C327 1.434 . S
C329 C330 1.369 . S
C329 C331 1.419 . S
C329 H333 0.930 . S
C330 C329 1.369 . S
C330 C339 1.429 . S
C331 C329 1.419 . S
C331 C332 1.363 . S
C331 H334 0.929 . S
C332 C331 1.363 . S
C332 C338 1.428 . S
H333 C329 0.930 . S
H334 C331 0.929 . S
S335 N336 1.613 . S
S335 N337 1.610 . S
N336 S335 1.613 . S
N336 C339 1.350 . S
N337 S335 1.610 . S
N337 C338 1.351 . S
C338 C332 1.428 . S
C338 N337 1.351 . S
C338 C339 1.434 . S
C339 C330 1.429 . S
C339 N336 1.350 . S
C339 C338 1.434 . S
C340 C341 1.369 . S
C340 C342 1.419 . S
C340 H344 0.930 . S
C341 C340 1.369 . S
C341 C350 1.429 . S
C342 C340 1.419 . S
C342 C343 1.363 . S
C342 H345 0.929 . S
C343 C342 1.363 . S
C343 C349 1.428 . S
H344 C340 0.930 . S
H345 C342 0.929 . S
S346 N347 1.613 . S
S346 N348 1.610 . S
N347 S346 1.613 . S
N347 C350 1.350 . S
N348 S346 1.610 . S
N348 C349 1.351 . S
C349 C343 1.428 . S
C349 N348 1.351 . S
C349 C350 1.434 . S
C350 C341 1.429 . S
C350 N347 1.350 . S
C350 C349 1.434 . S
C351 C352 1.369 . S
C351 C353 1.419 . S
C351 H355 0.930 . S
C352 C351 1.369 . S
C352 C361 1.429 . S
C353 C351 1.419 . S
C353 C354 1.363 . S
C353 H356 0.929 . S
C354 C353 1.363 . S
C354 C360 1.428 . S
H355 C351 0.930 . S
H356 C353 0.929 . S
S357 N358 1.613 . S
S357 N359 1.610 . S
N358 S357 1.613 . S
N358 C361 1.350 . S
N359 S357 1.610 . S
N359 C360 1.351 . S
C360 C354 1.428 . S
C360 N359 1.351 . S
C360 C361 1.434 . S
C361 C352 1.429 . S
C361 N358 1.350 . S
C361 C360 1.434 . S
C362 C363 1.369 . S
C362 C364 1.419 . S
C362 H366 0.930 . S
C363 C362 1.369 . S
C363 C372 1.429 . S
C364 C362 1.419 . S
C364 C365 1.363 . S
C364 H367 0.929 . S
C365 C364 1.363 . S
C365 C371 1.428 . S
H366 C362 0.930 . S
H367 C364 0.929 . S
S368 N369 1.613 . S
S368 N370 1.610 . S
N369 S368 1.613 . S
N369 C372 1.350 . S
N370 S368 1.610 . S
N370 C371 1.351 . S
C371 C365 1.428 . S
C371 N370 1.351 . S
C371 C372 1.434 . S
C372 C363 1.429 . S
C372 N369 1.350 . S
C372 C371 1.434 . S
C373 C374 1.369 . S
C373 C375 1.419 . S
C373 H377 0.930 . S
C374 C373 1.369 . S
C374 C383 1.429 . S
C375 C373 1.419 . S
C375 C376 1.363 . S
C375 H378 0.929 . S
C376 C375 1.363 . S
C376 C382 1.428 . S
H377 C373 0.930 . S
H378 C375 0.929 . S
S379 N380 1.613 . S
S379 N381 1.610 . S
N380 S379 1.613 . S
N380 C383 1.350 . S
N381 S379 1.610 . S
N381 C382 1.351 . S
C382 C376 1.428 . S
C382 N381 1.351 . S
C382 C383 1.434 . S
C383 C374 1.429 . S
C383 N380 1.350 . S
C383 C382 1.434 . S
C384 C385 1.369 . S
C384 C386 1.419 . S
C384 H388 0.930 . S
C385 C384 1.369 . S
C385 C394 1.429 . S
C386 C384 1.419 . S
C386 C387 1.363 . S
C386 H389 0.929 . S
C387 C386 1.363 . S
C387 C393 1.428 . S
H388 C384 0.930 . S
H389 C386 0.929 . S
S390 N391 1.613 . S
S390 N392 1.610 . S
N391 S390 1.613 . S
N391 C394 1.350 . S
N392 S390 1.610 . S
N392 C393 1.351 . S
C393 C387 1.428 . S
C393 N392 1.351 . S
C393 C394 1.434 . S
C394 C385 1.429 . S
C394 N391 1.350 . S
C394 C393 1.434 . S
C395 C396 1.369 . S
C395 C397 1.419 . S
C395 H399 0.930 . S
C396 C395 1.369 . S
C396 C405 1.429 . S
C397 C395 1.419 . S
C397 C398 1.363 . S
C397 H400 0.929 . S
C398 C397 1.363 . S
C398 C404 1.428 . S
H399 C395 0.930 . S
H400 C397 0.929 . S
S401 N402 1.613 . S
S401 N403 1.610 . S
N402 S401 1.613 . S
N402 C405 1.350 . S
N403 S401 1.610 . S
N403 C404 1.351 . S
C404 C398 1.428 . S
C404 N403 1.351 . S
C404 C405 1.434 . S
C405 C396 1.429 . S
C405 N402 1.350 . S
C405 C404 1.434 . S
C406 C407 1.369 . S
C406 C408 1.419 . S
C406 H410 0.930 . S
C407 C406 1.369 . S
C407 C416 1.429 . S
C408 C406 1.419 . S
C408 C409 1.363 . S
C408 H411 0.929 . S
C409 C408 1.363 . S
C409 C415 1.428 . S
H410 C406 0.930 . S
H411 C408 0.929 . S
S412 N413 1.613 . S
S412 N414 1.610 . S
N413 S412 1.613 . S
N413 C416 1.350 . S
N414 S412 1.610 . S
N414 C415 1.351 . S
C415 C409 1.428 . S
C415 N414 1.351 . S
C415 C416 1.434 . S
C416 C407 1.429 . S
C416 N413 1.350 . S
C416 C415 1.434 . S
C417 C418 1.369 . S
C417 C419 1.419 . S
C417 H421 0.930 . S
C418 C417 1.369 . S
C418 C427 1.429 . S
C419 C417 1.419 . S
C419 C420 1.363 . S
C419 H422 0.929 . S
C420 C419 1.363 . S
C420 C426 1.428 . S
H421 C417 0.930 . S
H422 C419 0.929 . S
S423 N424 1.613 . S
S423 N425 1.610 . S
N424 S423 1.613 . S
N424 C427 1.350 . S
N425 S423 1.610 . S
N425 C426 1.351 . S
C426 C420 1.428 . S
C426 N425 1.351 . S
C426 C427 1.434 . S
C427 C418 1.429 . S
C427 N424 1.350 . S
C427 C426 1.434 . S
C428 C429 1.369 . S
C428 C430 1.419 . S
C428 H432 0.930 . S
C429 C428 1.369 . S
C429 C438 1.429 . S
C430 C428 1.419 . S
C430 C431 1.363 . S
C430 H433 0.929 . S
C431 C430 1.363 . S
C431 C437 1.428 . S
H432 C428 0.930 . S
H433 C430 0.929 . S
S434 N435 1.613 . S
S434 N436 1.610 . S
N435 S434 1.613 . S
N435 C438 1.350 . S
N436 S434 1.610 . S
N436 C437 1.351 . S
C437 C431 1.428 . S
C437 N436 1.351 . S
C437 C438 1.434 . S
C438 C429 1.429 . S
C438 N435 1.350 . S
C438 C437 1.434 . S
C439 C440 1.369 . S
C439 C441 1.419 . S
C439 H443 0.930 . S
C440 C439 1.369 . S
C440 C449 1.429 . S
C441 C439 1.419 . S
C441 C442 1.363 . S
C441 H444 0.929 . S
C442 C441 1.363 . S
C442 C448 1.428 . S
H443 C439 0.930 . S
H444 C441 0.929 . S
S445 N446 1.613 . S
S445 N447 1.610 . S
N446 S445 1.613 . S
N446 C449 1.350 . S
N447 S445 1.610 . S
N447 C448 1.351 . S
C448 C442 1.428 . S
C448 N447 1.351 . S
C448 C449 1.434 . S
C449 C440 1.429 . S
C449 N446 1.350 . S
C449 C448 1.434 . S
C450 C451 1.369 . S
C450 C452 1.419 . S
C450 H454 0.930 . S
C451 C450 1.369 . S
C451 C460 1.429 . S
C452 C450 1.419 . S
C452 C453 1.363 . S
C452 H455 0.929 . S
C453 C452 1.363 . S
C453 C459 1.428 . S
H454 C450 0.930 . S
H455 C452 0.929 . S
S456 N457 1.613 . S
S456 N458 1.610 . S
N457 S456 1.613 . S
N457 C460 1.350 . S
N458 S456 1.610 . S
N458 C459 1.351 . S
C459 C453 1.428 . S
C459 N458 1.351 . S
C459 C460 1.434 . S
C460 C451 1.429 . S
C460 N457 1.350 . S
C460 C459 1.434 . S
C461 C462 1.369 . S
C461 C463 1.419 . S
C461 H465 0.930 . S
C462 C461 1.369 . S
C462 C471 1.429 . S
C463 C461 1.419 . S
C463 C464 1.363 . S
C463 H466 0.929 . S
C464 C463 1.363 . S
C464 C470 1.428 . S
H465 C461 0.930 . S
H466 C463 0.929 . S
S467 N468 1.613 . S
S467 N469 1.610 . S
N468 S467 1.613 . S
N468 C471 1.350 . S
N469 S467 1.610 . S
N469 C470 1.351 . S
C470 C464 1.428 . S
C470 N469 1.351 . S
C470 C471 1.434 . S
C471 C462 1.429 . S
C471 N468 1.350 . S
C471 C470 1.434 . S
C472 C473 1.369 . S
C472 C474 1.419 1_554 S
C472 H476 0.930 . S
C473 C472 1.369 . S
C473 C482 1.429 . S
C474 C472 1.419 1_556 S
C474 C475 1.363 . S
C474 H477 0.929 . S
C475 C474 1.363 . S
C475 C481 1.428 . S
H476 C472 0.930 . S
H477 C474 0.929 . S
S478 N479 1.613 . S
S478 N480 1.610 1_554 S
N479 S478 1.613 . S
N479 C482 1.350 . S
N480 S478 1.610 1_556 S
N480 C481 1.351 . S
C481 C475 1.428 . S
C481 N480 1.351 . S
C481 C482 1.434 1_556 S
C482 C473 1.429 . S
C482 N479 1.350 . S
C482 C481 1.434 1_554 S
C483 C484 1.369 . S
C483 C485 1.419 . S
C483 H487 0.930 . S
C484 C483 1.369 . S
C484 C493 1.429 . S
C485 C483 1.419 . S
C485 C486 1.363 . S
C485 H488 0.929 . S
C486 C485 1.363 . S
C486 C492 1.428 . S
H487 C483 0.930 . S
H488 C485 0.929 . S
S489 N490 1.613 . S
S489 N491 1.610 . S
N490 S489 1.613 . S
N490 C493 1.350 . S
N491 S489 1.610 . S
N491 C492 1.351 . S
C492 C486 1.428 . S
C492 N491 1.351 . S
C492 C493 1.434 . S
C493 C484 1.429 . S
C493 N490 1.350 . S
C493 C492 1.434 . S
C494 C495 1.369 1_455 S
C494 C496 1.419 1_554 S
C494 H498 0.930 . S
C495 C494 1.369 1_655 S
C495 C504 1.429 . S
C496 C494 1.419 1_556 S
C496 C497 1.363 1_455 S
C496 H499 0.929 . S
C497 C496 1.363 1_655 S
C497 C503 1.428 . S
H498 C494 0.930 . S
H499 C496 0.929 . S
S500 N501 1.613 . S
S500 N502 1.610 1_554 S
N501 S500 1.613 . S
N501 C504 1.350 . S
N502 S500 1.610 1_556 S
N502 C503 1.351 . S
C503 C497 1.428 . S
C503 N502 1.351 . S
C503 C504 1.434 1_556 S
C504 C495 1.429 . S
C504 N501 1.350 . S
C504 C503 1.434 1_554 S
C505 C506 1.369 1_545 S
C505 C507 1.419 . S
C505 H509 0.930 . S
C506 C505 1.369 1_565 S
C506 C515 1.429 . S
C507 C505 1.419 . S
C507 C508 1.363 1_545 S
C507 H510 0.929 . S
C508 C507 1.363 1_565 S
C508 C514 1.428 . S
H509 C505 0.930 . S
H510 C507 0.929 . S
S511 N512 1.613 . S
S511 N513 1.610 . S
N512 S511 1.613 . S
N512 C515 1.350 . S
N513 S511 1.610 . S
N513 C514 1.351 . S
C514 C508 1.428 . S
C514 N513 1.351 . S
C514 C515 1.434 . S
C515 C506 1.429 . S
C515 N512 1.350 . S
C515 C514 1.434 . S
C516 C517 1.369 . S
C516 C518 1.419 1_556 S
C516 H520 0.930 . S
C517 C516 1.369 . S
C517 C526 1.429 . S
C518 C516 1.419 1_554 S
C518 C519 1.363 . S
C518 H521 0.929 . S
C519 C518 1.363 . S
C519 C525 1.428 . S
H520 C516 0.930 . S
H521 C518 0.929 . S
S522 N523 1.613 1_554 S
S522 N524 1.610 . S
N523 S522 1.613 1_556 S
N523 C526 1.350 . S
N524 S522 1.610 . S
N524 C525 1.351 . S
C525 C519 1.428 . S
C525 N524 1.351 . S
C525 C526 1.434 1_554 S
C526 C517 1.429 . S
C526 N523 1.350 . S
C526 C525 1.434 1_556 S
C527 C528 1.369 . S
C527 C529 1.419 . S
C527 H531 0.930 . S
C528 C527 1.369 . S
C528 C537 1.429 . S
C529 C527 1.419 . S
C529 C530 1.363 . S
C529 H532 0.929 . S
C530 C529 1.363 . S
C530 C536 1.428 . S
H531 C527 0.930 . S
H532 C529 0.929 . S
S533 N534 1.613 . S
S533 N535 1.610 . S
N534 S533 1.613 . S
N534 C537 1.350 . S
N535 S533 1.610 . S
N535 C536 1.351 . S
C536 C530 1.428 . S
C536 N535 1.351 . S
C536 C537 1.434 . S
C537 C528 1.429 . S
C537 N534 1.350 . S
C537 C536 1.434 . S
C538 C539 1.369 1_655 S
C538 C540 1.419 1_554 S
C538 H542 0.930 . S
C539 C538 1.369 1_455 S
C539 C548 1.429 . S
C540 C538 1.419 1_556 S
C540 C541 1.363 1_655 S
C540 H543 0.929 . S
C541 C540 1.363 1_455 S
C541 C547 1.428 . S
H542 C538 0.930 . S
H543 C540 0.929 . S
S544 N545 1.613 1_556 S
S544 N546 1.610 . S
N545 S544 1.613 1_554 S
N545 C548 1.350 . S
N546 S544 1.610 . S
N546 C547 1.351 . S
C547 C541 1.428 . S
C547 N546 1.351 . S
C547 C548 1.434 1_556 S
C548 C539 1.429 . S
C548 N545 1.350 . S
C548 C547 1.434 1_554 S
C549 C550 1.369 . S
C549 C551 1.419 . S
C549 H553 0.930 . S
C550 C549 1.369 . S
C550 C559 1.429 1_545 S
C551 C549 1.419 . S
C551 C552 1.363 . S
C551 H554 0.929 . S
C552 C551 1.363 . S
C552 C558 1.428 1_545 S
H553 C549 0.930 . S
H554 C551 0.929 . S
S555 N556 1.613 . S
S555 N557 1.610 . S
N556 S555 1.613 . S
N556 C559 1.350 . S
N557 S555 1.610 . S
N557 C558 1.351 . S
C558 C552 1.428 1_565 S
C558 N557 1.351 . S
C558 C559 1.434 . S
C559 C550 1.429 1_565 S
C559 N556 1.350 . S
C559 C558 1.434 . S
C209 C0 1.272 . S
C211 C91 1.271 . S
C220 C13 1.273 . S
C222 C52 1.270 . S
C231 C26 1.273 . S
C233 C65 1.267 . S
C242 C39 1.265 . S
C244 C78 1.273 . S
C253 C104 1.274 . S
C255 C195 1.268 . S
C264 C156 1.269 . S
C266 C117 1.272 . S
C275 C130 1.274 . S
C277 C169 1.266 . S
C286 C143 1.268 . S
C288 C182 1.273 . S
C297 C5 1.318 . S
C299 C125 1.406 . S
C308 C18 1.313 . S
C310 C138 1.404 . S
C319 C151 1.403 . S
C321 C31 1.315 . S
C330 C44 1.320 . S
C332 C112 1.407 . S
C341 C57 1.322 . S
C343 C203 1.407 . S
C352 C164 1.406 . S
C354 C70 1.319 . S
C363 C177 1.408 . S
C365 C83 1.323 . S
C374 C190 1.403 . S
C376 C96 1.315 . S
C385 C21 1.409 . S
C387 C109 1.325 . S
C396 C34 1.403 . S
C398 C122 1.315 . S
C407 C135 1.323 . S
C409 C47 1.407 . S
C418 C8 1.405 . S
C420 C148 1.318 . S
C429 C161 1.316 . S
C431 C99 1.405 . S
C440 C174 1.313 . S
C442 C60 1.404 . S
C451 C73 1.405 . S
C453 C187 1.318 . S
C462 C86 1.407 . S
C464 C200 1.321 . S
C473 C10 1.511 . S
C475 C62 1.511 . S
C484 C75 1.510 . S
C486 C23 1.510 . S
C495 C36 1.510 . S
C497 C88 1.510 . S
C506 C101 1.509 . S
C508 C49 1.510 . S
C517 C114 1.511 . S
C519 C166 1.511 . S
C528 C179 1.511 . S
C530 C127 1.511 . S
C539 C192 1.509 . S
C541 C140 1.510 . S
C550 C205 1.514 . S
C552 C153 1.514 . S
