# Generated by pormake.
# Topology fnj, (5)-cn, num edge types: 1
# Building blocks:
#     Node 0, Type 0, BuildingBlock: BEQFEK_clean_sbu_0, # of connection points: 5
#     Node 1, Type 0, BuildingBlock: BEQFEK_clean_sbu_0, # of connection points: 5
#     Node 2, Type 0, BuildingBlock: BEQFEK_clean_sbu_0, # of connection points: 5
#     Node 3, Type 0, BuildingBlock: BEQFEK_clean_sbu_0, # of connection points: 5
#     Node 4, Type 0, BuildingBlock: BEQFEK_clean_sbu_0, # of connection points: 5
#     Node 5, Type 0, BuildingBlock: BEQFEK_clean_sbu_0, # of connection points: 5
#     Node 6, Type 0, BuildingBlock: BEQFEK_clean_sbu_0, # of connection points: 5
#     Node 7, Type 0, BuildingBlock: BEQFEK_clean_sbu_0, # of connection points: 5
#     Node 8, Type 0, BuildingBlock: BEQFEK_clean_sbu_0, # of connection points: 5
#     Node 9, Type 0, BuildingBlock: BEQFEK_clean_sbu_0, # of connection points: 5
#     Node 10, Type 0, BuildingBlock: BEQFEK_clean_sbu_0, # of connection points: 5
#     Node 11, Type 0, BuildingBlock: BEQFEK_clean_sbu_0, # of connection points: 5
#     Node 12, Type 0, BuildingBlock: BEQFEK_clean_sbu_0, # of connection points: 5
#     Node 13, Type 0, BuildingBlock: BEQFEK_clean_sbu_0, # of connection points: 5
#     Node 14, Type 0, BuildingBlock: BEQFEK_clean_sbu_0, # of connection points: 5
#     Node 15, Type 0, BuildingBlock: BEQFEK_clean_sbu_0, # of connection points: 5
#     Edge 16, Type (0, 0), BuildingBlock: ZUJKAS_clean_linker_0, # of connection points: 2
#     Edge 17, Type (0, 0), BuildingBlock: ZUJKAS_clean_linker_0, # of connection points: 2
#     Edge 18, Type (0, 0), BuildingBlock: ZUJKAS_clean_linker_0, # of connection points: 2
#     Edge 19, Type (0, 0), BuildingBlock: ZUJKAS_clean_linker_0, # of connection points: 2
#     Edge 20, Type (0, 0), BuildingBlock: ZUJKAS_clean_linker_0, # of connection points: 2
#     Edge 21, Type (0, 0), BuildingBlock: ZUJKAS_clean_linker_0, # of connection points: 2
#     Edge 22, Type (0, 0), BuildingBlock: ZUJKAS_clean_linker_0, # of connection points: 2
#     Edge 23, Type (0, 0), BuildingBlock: ZUJKAS_clean_linker_0, # of connection points: 2
#     Edge 24, Type (0, 0), BuildingBlock: ZUJKAS_clean_linker_0, # of connection points: 2
#     Edge 25, Type (0, 0), BuildingBlock: ZUJKAS_clean_linker_0, # of connection points: 2
#     Edge 26, Type (0, 0), BuildingBlock: ZUJKAS_clean_linker_0, # of connection points: 2
#     Edge 27, Type (0, 0), BuildingBlock: ZUJKAS_clean_linker_0, # of connection points: 2
#     Edge 28, Type (0, 0), BuildingBlock: ZUJKAS_clean_linker_0, # of connection points: 2
#     Edge 29, Type (0, 0), BuildingBlock: ZUJKAS_clean_linker_0, # of connection points: 2
#     Edge 30, Type (0, 0), BuildingBlock: ZUJKAS_clean_linker_0, # of connection points: 2
#     Edge 31, Type (0, 0), BuildingBlock: ZUJKAS_clean_linker_0, # of connection points: 2
#     Edge 32, Type (0, 0), BuildingBlock: ZUJKAS_clean_linker_0, # of connection points: 2
#     Edge 33, Type (0, 0), BuildingBlock: ZUJKAS_clean_linker_0, # of connection points: 2
#     Edge 34, Type (0, 0), BuildingBlock: ZUJKAS_clean_linker_0, # of connection points: 2
#     Edge 35, Type (0, 0), BuildingBlock: ZUJKAS_clean_linker_0, # of connection points: 2
#     Edge 36, Type (0, 0), BuildingBlock: ZUJKAS_clean_linker_0, # of connection points: 2
#     Edge 37, Type (0, 0), BuildingBlock: ZUJKAS_clean_linker_0, # of connection points: 2
#     Edge 38, Type (0, 0), BuildingBlock: ZUJKAS_clean_linker_0, # of connection points: 2
#     Edge 39, Type (0, 0), BuildingBlock: ZUJKAS_clean_linker_0, # of connection points: 2
#     Edge 40, Type (0, 0), BuildingBlock: ZUJKAS_clean_linker_0, # of connection points: 2
#     Edge 41, Type (0, 0), BuildingBlock: ZUJKAS_clean_linker_0, # of connection points: 2
#     Edge 42, Type (0, 0), BuildingBlock: ZUJKAS_clean_linker_0, # of connection points: 2
#     Edge 43, Type (0, 0), BuildingBlock: ZUJKAS_clean_linker_0, # of connection points: 2
#     Edge 44, Type (0, 0), BuildingBlock: ZUJKAS_clean_linker_0, # of connection points: 2
#     Edge 45, Type (0, 0), BuildingBlock: ZUJKAS_clean_linker_0, # of connection points: 2
#     Edge 46, Type (0, 0), BuildingBlock: ZUJKAS_clean_linker_0, # of connection points: 2
#     Edge 47, Type (0, 0), BuildingBlock: ZUJKAS_clean_linker_0, # of connection points: 2
#     Edge 48, Type (0, 0), BuildingBlock: ZUJKAS_clean_linker_0, # of connection points: 2
#     Edge 49, Type (0, 0), BuildingBlock: ZUJKAS_clean_linker_0, # of connection points: 2
#     Edge 50, Type (0, 0), BuildingBlock: ZUJKAS_clean_linker_0, # of connection points: 2
#     Edge 51, Type (0, 0), BuildingBlock: ZUJKAS_clean_linker_0, # of connection points: 2
#     Edge 52, Type (0, 0), BuildingBlock: ZUJKAS_clean_linker_0, # of connection points: 2
#     Edge 53, Type (0, 0), BuildingBlock: ZUJKAS_clean_linker_0, # of connection points: 2
#     Edge 54, Type (0, 0), BuildingBlock: ZUJKAS_clean_linker_0, # of connection points: 2
#     Edge 55, Type (0, 0), BuildingBlock: ZUJKAS_clean_linker_0, # of connection points: 2
# Relax obj value: 0.128
# Max RMSD: 0.155
# Mean RMSD: 0.155
data_MOF--net-fnj--node1-BEQFEK_clean_sbu_0--edge1-ZUJKAS_clean_linker_0
_symmetry_space_group_name_H-M    P1
_symmetry_Int_Tables_number       1
_symmetry_cell_setting            triclinic
loop_
_symmetry_equiv_pos_as_xyz
'x, y, z'
_cell_length_a     95.528168
_cell_length_b     95.515545
_cell_length_c     23.323647
_cell_angle_alpha  90.005465
_cell_angle_beta   89.999935
_cell_angle_gamma 101.05758
loop_
_atom_site_label
_atom_site_type_symbol
_atom_site_fract_x
_atom_site_fract_y
_atom_site_fract_z
_atom_type_partial_charge
Co0 Co 0.38884 0.04282 0.00528 0.0
Co1 Co 0.38877 0.03178 0.1312 0.0
C2 C 0.37823 0.05875 0.09904 0.0
O3 O 0.38178 0.0582 0.04661 0.0
O4 O 0.38008 0.0491 0.13433 0.0
C5 C 0.39791 0.05872 0.89923 0.0
O6 O 0.40582 0.06868 0.93035 0.0
C7 C 0.39474 0.03538 0.25318 0.0
C8 C 0.39366 0.01328 0.2834 0.0
C9 C 0.39595 0.02734 0.30168 0.0
N10 N 0.39178 0.02651 0.20827 0.0
N11 N 0.39113 0.0133 0.22653 0.0
C12 C 0.39748 0.05129 0.24846 0.0
H13 H 0.40192 0.05468 0.2056 0.0
H14 H 0.40499 0.05629 0.28224 0.0
H15 H 0.38727 0.05505 0.25378 0.0
C16 C 0.41933 0.03934 0.01369 0.0
N17 N 0.40631 0.03928 0.03634 0.0
N18 N 0.40629 0.03512 0.09019 0.0
C19 C 0.41933 0.03268 0.10374 0.0
C20 C 0.42801 0.03524 0.05573 0.0
C21 C 0.42298 0.04166 0.95158 0.0
H22 H 0.41367 0.03712 0.92462 0.0
H23 H 0.42599 0.05327 0.94318 0.0
H24 H 0.43211 0.03663 0.93943 0.0
O25 O 0.37401 0.02524 0.00791 0.0
O26 O 0.37507 0.016 0.09483 0.0
H27 H 0.41754 0.017 0.1701 0.0
H28 H 0.43501 0.02829 0.16512 0.0
C29 C 0.42338 0.02801 0.16166 0.0
H30 H 0.42033 0.03515 0.19485 0.0
H31 H 0.38899 0.00431 0.20019 0.0
O32 O 0.39064 0.04776 0.92319 0.0
C33 C 0.36985 0.01543 0.04447 0.0
Co34 Co 0.26805 0.16498 0.34643 0.0
Co35 Co 0.25654 0.16112 0.22145 0.0
C36 C 0.28354 0.15145 0.25905 0.0
O37 O 0.28299 0.15617 0.30987 0.0
O38 O 0.27395 0.1526 0.22245 0.0
C39 C 0.28297 0.16572 0.45443 0.0
O40 O 0.29045 0.15724 0.42962 0.0
C41 C 0.26025 0.16461 0.09936 0.0
C42 C 0.23823 0.16047 0.06564 0.0
C43 C 0.25243 0.16372 0.04911 0.0
N44 N 0.25116 0.16186 0.14351 0.0
N45 N 0.23799 0.1594 0.12329 0.0
C46 C 0.27606 0.1691 0.10619 0.0
H47 H 0.27861 0.17441 0.14826 0.0
H48 H 0.28063 0.17646 0.07123 0.0
H49 H 0.28104 0.15953 0.10461 0.0
C50 C 0.26603 0.19495 0.32253 0.0
N51 N 0.26504 0.18128 0.30608 0.0
N52 N 0.25998 0.17973 0.25358 0.0
C53 C 0.25752 0.19239 0.23485 0.0
C54 C 0.26129 0.20248 0.27792 0.0
C55 C 0.27008 0.20021 0.38186 0.0
H56 H 0.26273 0.19384 0.41313 0.0
H57 H 0.28102 0.19857 0.39153 0.0
H58 H 0.26958 0.21163 0.38731 0.0
O59 O 0.24995 0.15078 0.35194 0.0
O60 O 0.24118 0.14834 0.2636 0.0
H61 H 0.24104 0.18766 0.1718 0.0
H62 H 0.25061 0.20598 0.17027 0.0
C63 C 0.25163 0.19472 0.17692 0.0
H64 H 0.25881 0.19184 0.14348 0.0
H65 H 0.22886 0.15695 0.14876 0.0
O66 O 0.27346 0.1703 0.42595 0.0
C67 C 0.24028 0.1452 0.31672 0.0
Co68 Co 0.11047 0.00521 0.50454 0.0
Co69 Co 0.11413 0.01797 0.62712 0.0
C70 C 0.124 0.99071 0.59529 0.0
O71 O 0.11939 0.99078 0.54413 0.0
O72 O 0.1227 1.00061 0.63029 0.0
C73 C 0.11521 0.99567 0.39452 0.0
O74 O 0.12796 0.99611 0.41644 0.0
C75 C 0.11044 0.01596 0.74952 0.0
C76 C 0.11514 0.03841 0.77832 0.0
C77 C 0.11155 0.02447 0.79798 0.0
N78 N 0.11338 0.02442 0.70353 0.0
N79 N 0.11617 0.03784 0.72078 0.0
C80 C 0.10562 1.00011 0.74586 0.0
H81 H 0.10037 0.99713 0.70398 0.0
H82 H 0.09812 0.99615 0.78118 0.0
H83 H 0.11503 0.99492 0.74918 0.0
C84 C 0.08047 0.00763 0.52586 0.0
N85 N 0.09406 0.00857 0.5432 0.0
N86 N 0.09555 0.01415 0.59487 0.0
C87 C 0.08292 0.01699 0.61217 0.0
C88 C 0.07293 0.01295 0.56901 0.0
C89 C 0.07536 0.00318 0.46672 0.0
H90 H 0.08202 0.0101 0.43489 0.0
H91 H 0.07671 0.99206 0.45899 0.0
H92 H 0.06403 0.00394 0.46015 0.0
O93 O 0.12451 0.02335 0.4956 0.0
O94 O 0.1268 0.03289 0.58263 0.0
H95 H 0.08772 0.03425 0.67183 0.0
H96 H 0.06935 0.02484 0.67436 0.0
C97 C 0.08058 0.02365 0.6686 0.0
H98 H 0.08337 0.01688 0.70373 0.0
H99 H 0.11884 0.04658 0.69337 0.0
O100 O 0.10541 0.9986 0.4264 0.0
C101 C 0.12997 0.03337 0.52955 0.0
Co102 Co 0.2311 0.88357 0.85675 0.0
Co103 Co 0.24476 0.88732 0.73553 0.0
C104 C 0.21704 0.89694 0.76551 0.0
O105 O 0.2166 0.89209 0.8164 0.0
O106 O 0.22734 0.89593 0.73209 0.0
C107 C 0.22122 0.88805 0.96724 0.0
O108 O 0.22087 0.90064 0.94523 0.0
C109 C 0.24245 0.88278 0.61368 0.0
C110 C 0.26454 0.88962 0.58249 0.0
C111 C 0.25065 0.88464 0.56423 0.0
N112 N 0.25103 0.88664 0.65875 0.0
N113 N 0.26424 0.89067 0.64007 0.0
C114 C 0.22684 0.87678 0.61917 0.0
H115 H 0.22453 0.87156 0.66154 0.0
H116 H 0.2232 0.86898 0.58448 0.0
H117 H 0.2208 0.88559 0.61627 0.0
C118 C 0.23353 0.85353 0.83507 0.0
N119 N 0.23481 0.8672 0.81836 0.0
N120 N 0.24084 0.86878 0.76753 0.0
C121 C 0.24378 0.85618 0.75042 0.0
C122 C 0.23922 0.84605 0.79265 0.0
C123 C 0.227 0.84783 0.89071 0.0
H124 H 0.21726 0.85223 0.89913 0.0
H125 H 0.22419 0.83601 0.89037 0.0
H126 H 0.23469 0.85134 0.92595 0.0
O127 O 0.24892 0.89815 0.86552 0.0
O128 O 0.25969 0.89974 0.78072 0.0
H129 H 0.25658 0.8444 0.69936 0.0
H130 H 0.24508 0.85385 0.65962 0.0
C131 C 0.25214 0.85431 0.6976 0.0
H132 H 0.26104 0.86355 0.69249 0.0
H133 H 0.273 0.89432 0.66649 0.0
O134 O 0.22472 0.87852 0.93538 0.0
C135 C 0.2594 0.90331 0.83323 0.0
Co136 Co 0.61004 0.00708 0.09699 0.0
Co137 Co 0.61376 0.01744 0.97003 0.0
C138 C 0.62352 0.99081 0.01277 0.0
O139 O 0.61898 0.99181 0.06364 0.0
O140 O 0.62223 1.00005 0.97482 0.0
C141 C 0.60361 0.99091 0.20341 0.0
O142 O 0.60567 0.97957 0.17518 0.0
C143 C 0.60788 0.01283 0.84806 0.0
C144 C 0.61672 0.03392 0.81072 0.0
C145 C 0.61009 0.02015 0.79643 0.0
N146 N 0.61286 0.02189 0.89072 0.0
N147 N 0.61806 0.03451 0.86819 0.0
C148 C 0.60193 0.99728 0.85674 0.0
H149 H 0.60677 0.9908 0.82565 0.0
H150 H 0.60373 0.99391 0.90104 0.0
H151 H 0.59025 0.99518 0.84951 0.0
C152 C 0.58006 0.00906 0.07236 0.0
N153 N 0.59366 0.00968 0.05572 0.0
N154 N 0.59523 0.01449 0.00283 0.0
C155 C 0.58267 0.01728 0.98425 0.0
C156 C 0.57261 0.01385 0.02762 0.0
C157 C 0.57481 0.00542 0.13201 0.0
H158 H 0.58126 0.01289 0.16265 0.0
H159 H 0.5763 0.99448 0.14269 0.0
H160 H 0.56342 0.00608 0.13729 0.0
O161 O 0.62412 0.02525 0.09928 0.0
O162 O 0.6266 0.0333 0.00987 0.0
H163 H 0.58895 0.03283 0.91828 0.0
H164 H 0.56987 0.0263 0.92228 0.0
C165 C 0.58048 0.02334 0.92646 0.0
H166 H 0.5813 0.01527 0.89324 0.0
H167 H 0.62279 0.04343 0.89193 0.0
O168 O 0.60489 0.00279 0.17767 0.0
C169 C 0.62969 0.03465 0.063 0.0
Co170 Co 0.73427 0.88617 0.7587 0.0
Co171 Co 0.74514 0.88875 0.88501 0.0
C172 C 0.71824 0.89876 0.84626 0.0
O173 O 0.71904 0.89472 0.79452 0.0
O174 O 0.72766 0.89715 0.883 0.0
C175 C 0.71812 0.87952 0.65148 0.0
O176 O 0.70633 0.8799 0.67994 0.0
C177 C 0.74098 0.88187 0.00637 0.0
C178 C 0.76217 0.89061 0.04308 0.0
C179 C 0.74846 0.88385 0.05769 0.0
N180 N 0.74988 0.88716 0.96362 0.0
N181 N 0.76256 0.89226 0.98574 0.0
C182 C 0.72542 0.87593 -0.00186 0.0
H183 H 0.719 0.88069 0.02975 0.0
H184 H 0.72195 0.87782 0.95406 0.0
H185 H 0.72336 0.86423 0.00495 0.0
C186 C 0.73618 0.85592 0.77851 0.0
N187 N 0.73701 0.86942 0.79699 0.0
N188 N 0.74213 0.87054 0.84949 0.0
C189 C 0.74493 0.85782 0.86586 0.0
C190 C 0.74117 0.84811 0.82153 0.0
C191 C 0.73202 0.85106 0.71881 0.0
H192 H 0.7393 0.85763 0.68785 0.0
H193 H 0.72104 0.85271 0.71002 0.0
H194 H 0.73252 0.83968 0.71208 0.0
O195 O 0.75239 0.90033 0.75744 0.0
O196 O 0.76084 0.90202 0.84629 0.0
H197 H 0.76072 0.86364 0.93133 0.0
H198 H 0.75447 0.84457 0.9242 0.0
C199 C 0.7513 0.85513 0.92251 0.0
H200 H 0.74334 0.85546 0.9567 0.0
H201 H 0.77138 0.8972 0.96188 0.0
O202 O 0.73002 0.8818 0.67748 0.0
C203 C 0.76194 0.90561 0.79363 0.0
Co204 Co 0.89157 0.04518 0.59988 0.0
Co205 Co 0.88813 0.0319 0.47791 0.0
C206 C 0.87824 0.05934 0.50742 0.0
O207 O 0.88256 0.05938 0.55907 0.0
O208 O 0.87978 0.0494 0.47299 0.0
C209 C 0.8866 0.05396 0.71101 0.0
O210 O 0.87366 0.05281 0.69006 0.0
C211 C 0.89257 0.03345 0.3557 0.0
C212 C 0.88685 0.01099 0.32755 0.0
C213 C 0.89121 0.02482 0.30753 0.0
N214 N 0.88903 0.02517 0.40187 0.0
N215 N 0.88565 0.01174 0.385 0.0
C216 C 0.89817 0.04918 0.3589 0.0
H217 H 0.90293 0.05211 0.40167 0.0
H218 H 0.90626 0.05258 0.32498 0.0
H219 H 0.88926 0.05492 0.3525 0.0
C220 C 0.9216 0.04261 0.57993 0.0
N221 N 0.90804 0.04164 0.562 0.0
N222 N 0.90662 0.03575 0.51088 0.0
C223 C 0.91925 0.03271 0.49457 0.0
C224 C 0.92918 0.03697 0.53778 0.0
C225 C 0.92662 0.04736 0.63885 0.0
H226 H 0.92004 0.04047 0.67099 0.0
H227 H 0.92506 0.05846 0.64583 0.0
H228 H 0.93798 0.04683 0.64572 0.0
O229 O 0.87757 0.02708 0.60945 0.0
O230 O 0.87524 0.01721 0.52305 0.0
H231 H 0.91413 0.01527 0.43581 0.0
H232 H 0.93275 0.02396 0.4347 0.0
C233 C 0.92164 0.02565 0.43905 0.0
H234 H 0.91941 0.03245 0.40302 0.0
H235 H 0.88241 0.00313 0.41258 0.0
O236 O 0.89657 0.05191 0.67802 0.0
C237 C 0.87207 0.01695 0.57613 0.0
Co238 Co 0.76896 0.16516 0.24291 0.0
Co239 Co 0.75781 0.16134 0.36889 0.0
C240 C 0.78491 0.15189 0.3286 0.0
O241 O 0.78415 0.15635 0.27744 0.0
O242 O 0.77544 0.15314 0.36566 0.0
C243 C 0.78487 0.17103 0.13511 0.0
O244 O 0.79613 0.16833 0.16205 0.0
C245 C 0.76185 0.16792 0.49034 0.0
C246 C 0.74121 0.15763 0.52791 0.0
C247 C 0.75465 0.16523 0.54212 0.0
N248 N 0.75306 0.16223 0.44786 0.0
N249 N 0.7407 0.1562 0.47049 0.0
C250 C 0.77712 0.17487 0.48118 0.0
H251 H 0.78064 0.173 0.4371 0.0
H252 H 0.77833 0.18655 0.48703 0.0
H253 H 0.78406 0.17082 0.51286 0.0
C254 C 0.76709 0.19514 0.26756 0.0
N255 N 0.76613 0.18147 0.28397 0.0
N256 N 0.76079 0.17986 0.33604 0.0
C257 C 0.75791 0.19242 0.35409 0.0
C258 C 0.76186 0.20255 0.31134 0.0
C259 C 0.77294 0.20089 0.21096 0.0
H260 H 0.76494 0.19725 0.17698 0.0
H261 H 0.7827 0.19668 0.20083 0.0
H262 H 0.77559 0.21272 0.21108 0.0
O263 O 0.75088 0.15094 0.23974 0.0
O264 O 0.74224 0.14837 0.32822 0.0
H265 H 0.7421 0.1845 0.41765 0.0
H266 H 0.74455 0.20347 0.40518 0.0
C267 C 0.75007 0.19429 0.40828 0.0
H268 H 0.75777 0.19624 0.4443 0.0
H269 H 0.73205 0.15077 0.44689 0.0
O270 O 0.77321 0.17034 0.16211 0.0
C271 C 0.74127 0.14528 0.27503 0.0
Co272 Co 0.89237 0.54609 0.50503 0.0
Co273 Co 0.88904 0.53227 0.62608 0.0
C274 C 0.87919 0.55992 0.59829 0.0
O275 O 0.88362 0.56033 0.54671 0.0
O276 O 0.88058 0.54968 0.63142 0.0
C277 C 0.88718 0.55467 0.39362 0.0
O278 O 0.87426 0.55354 0.4148 0.0
C279 C 0.89392 0.53408 0.74783 0.0
C280 C 0.88761 0.5118 0.77746 0.0
C281 C 0.89239 0.52565 0.79659 0.0
N282 N 0.89006 0.52569 0.70225 0.0
N283 N 0.88634 0.51235 0.71999 0.0
C284 C 0.89962 0.54978 0.7435 0.0
H285 H 0.90477 0.55239 0.70118 0.0
H286 H 0.90741 0.55339 0.77827 0.0
H287 H 0.89066 0.5556 0.74726 0.0
C288 C 0.9225 0.54389 0.5248 0.0
N289 N 0.90888 0.54251 0.54238 0.0
N290 N 0.90749 0.5363 0.59288 0.0
C291 C 0.92018 0.53336 0.60894 0.0
C292 C 0.93014 0.53809 0.56629 0.0
C293 C 0.92796 0.55054 0.46907 0.0
H294 H 0.92354 0.5603 0.46151 0.0
H295 H 0.93979 0.55336 0.46865 0.0
H296 H 0.92432 0.54294 0.4337 0.0
O297 O 0.87828 0.52797 0.49565 0.0
O298 O 0.8762 0.51759 0.58111 0.0
H299 H 0.91318 0.51585 0.66603 0.0
H300 H 0.93231 0.52068 0.65887 0.0
C301 C 0.92229 0.5249 0.66118 0.0
H302 H 0.92264 0.53182 0.69958 0.0
H303 H 0.88278 0.50368 0.69302 0.0
O304 O 0.8972 0.55268 0.4265 0.0
C305 C 0.8729 0.51763 0.52823 0.0
Co306 Co 0.7697 0.66618 0.85722 0.0
Co307 Co 0.75869 0.6624 0.7311 0.0
C308 C 0.78544 0.65243 0.77237 0.0
O309 O 0.78488 0.65724 0.82308 0.0
O310 O 0.77594 0.65366 0.73543 0.0
C311 C 0.78579 0.67245 0.96437 0.0
O312 O 0.79716 0.67022 0.93686 0.0
C313 C 0.7631 0.66836 0.60914 0.0
C314 C 0.74201 0.65939 0.57206 0.0
C315 C 0.75575 0.66611 0.55759 0.0
N316 N 0.7541 0.66331 0.6519 0.0
N317 N 0.74149 0.65804 0.62954 0.0
C318 C 0.77864 0.67437 0.61768 0.0
H319 H 0.78512 0.66969 0.5861 0.0
H320 H 0.78207 0.67243 0.66177 0.0
H321 H 0.78064 0.68608 0.61109 0.0
C322 C 0.76793 0.69621 0.83258 0.0
N323 N 0.76705 0.68255 0.81611 0.0
N324 N 0.76189 0.68095 0.76374 0.0
C325 C 0.75908 0.69352 0.74547 0.0
C326 C 0.76291 0.70363 0.78837 0.0
C327 C 0.7721 0.70156 0.89167 0.0
H328 H 0.76456 0.69553 0.92316 0.0
H329 H 0.78291 0.69958 0.90165 0.0
H330 H 0.772 0.71309 0.89635 0.0
O331 O 0.75151 0.65206 0.86013 0.0
O332 O 0.74289 0.64973 0.77154 0.0
H333 H 0.74318 0.687 0.68098 0.0
H334 H 0.74922 0.70615 0.68564 0.0
C335 C 0.75253 0.69567 0.6886 0.0
H336 H 0.76044 0.69518 0.65434 0.0
H337 H 0.73261 0.65323 0.65337 0.0
O338 O 0.77401 0.67133 0.93792 0.0
C339 C 0.74187 0.64657 0.82465 0.0
Co340 Co 0.61288 0.50631 -0.00226 0.0
Co341 Co 0.61479 0.51702 0.12458 0.0
C342 C 0.62537 0.49046 0.08693 0.0
O343 O 0.62137 0.49127 0.03517 0.0
O344 O 0.62359 0.49979 0.12375 0.0
C345 C 0.60399 0.49022 0.89152 0.0
O346 O 0.59825 0.47915 0.92271 0.0
C347 C 0.6078 0.51293 0.24631 0.0
C348 C 0.61576 0.53439 0.28203 0.0
C349 C 0.60945 0.52059 0.29726 0.0
N350 N 0.61282 0.52182 0.20313 0.0
N351 N 0.61746 0.53466 0.22471 0.0
C352 C 0.60238 0.49724 0.23894 0.0
H353 H 0.60431 0.49374 0.19494 0.0
H354 H 0.59071 0.49478 0.2463 0.0
H355 H 0.6075 0.49117 0.27067 0.0
C356 C 0.58247 0.50864 0.01463 0.0
N357 N 0.59583 0.50905 0.03419 0.0
N358 N 0.5967 0.51376 0.08738 0.0
C359 C 0.58394 0.51655 0.10326 0.0
C360 C 0.57449 0.51334 0.05779 0.0
C361 C 0.5779 0.50537 0.95393 0.0
H362 H 0.58612 0.51107 0.92424 0.0
H363 H 0.5768 0.49374 0.9464 0.0
H364 H 0.56756 0.50853 0.94441 0.0
O365 O 0.62678 0.52454 -0.00234 0.0
O366 O 0.628 0.53295 0.08654 0.0
H367 H 0.58903 0.53224 0.16949 0.0
H368 H 0.57014 0.52492 0.16315 0.0
C369 C 0.581 0.52246 0.16053 0.0
H370 H 0.58192 0.5145 0.19409 0.0
H371 H 0.62214 0.54352 0.2005 0.0
O372 O 0.60994 0.50174 0.91571 0.0
C373 C 0.63176 0.53414 0.03406 0.0
Co374 Co 0.7352 0.38614 0.35399 0.0
Co375 Co 0.74593 0.38828 0.2275 0.0
C376 C 0.7191 0.39848 0.26587 0.0
O377 O 0.72001 0.39468 0.31788 0.0
O378 O 0.72843 0.39666 0.22901 0.0
C379 C 0.71918 0.38047 0.46173 0.0
O380 O 0.70759 0.38176 0.43357 0.0
C381 C 0.74185 0.38083 0.10674 0.0
C382 C 0.7628 0.39017 0.06936 0.0
C383 C 0.74921 0.38298 0.05514 0.0
N384 N 0.75068 0.3865 0.14909 0.0
N385 N 0.76324 0.39194 0.12661 0.0
C386 C 0.72642 0.37444 0.11575 0.0
H387 H 0.71973 0.37872 0.08379 0.0
H388 H 0.72296 0.37651 0.15969 0.0
H389 H 0.7248 0.36271 0.11023 0.0
C390 C 0.73663 0.35575 0.335 0.0
N391 N 0.73774 0.36925 0.3162 0.0
N392 N 0.74287 0.37018 0.26373 0.0
C393 C 0.74545 0.35734 0.24777 0.0
C394 C 0.74153 0.34773 0.29236 0.0
C395 C 0.73085 0.35068 0.39257 0.0
H396 H 0.721 0.35486 0.40124 0.0
H397 H 0.72834 0.33887 0.39504 0.0
H398 H 0.73881 0.35489 0.42604 0.0
O399 O 0.75342 0.40026 0.3547 0.0
O400 O 0.76162 0.4016 0.26548 0.0
H401 H 0.76117 0.3642 0.1827 0.0
H402 H 0.75806 0.3453 0.19742 0.0
C403 C 0.75292 0.35473 0.19351 0.0
H404 H 0.74506 0.35282 0.15805 0.0
H405 H 0.77196 0.39722 0.15013 0.0
O406 O 0.73101 0.38189 0.43542 0.0
C407 C 0.76288 0.40537 0.31789 0.0
Co408 Co 0.11202 0.50629 0.59898 0.0
Co409 Co 0.11443 0.51861 0.47507 0.0
C410 C 0.12456 0.49129 0.50818 0.0
O411 O 0.12037 0.49144 0.55993 0.0
O412 O 0.12299 0.50115 0.47333 0.0
C413 C 0.11356 0.49281 0.70912 0.0
O414 O 0.12359 0.487 0.68582 0.0
C415 C 0.10873 0.51477 0.35431 0.0
C416 C 0.11549 0.53638 0.31816 0.0
C417 C 0.11034 0.52228 0.30318 0.0
N418 N 0.11292 0.52393 0.39734 0.0
N419 N 0.11687 0.53687 0.37569 0.0
C420 C 0.10271 0.49926 0.36305 0.0
H421 H 0.09781 0.49748 0.40625 0.0
H422 H 0.09464 0.49529 0.32966 0.0
H423 H 0.11141 0.49312 0.36017 0.0
C424 C 0.08171 0.5082 0.58046 0.0
N425 N 0.09524 0.50943 0.56183 0.0
N426 N 0.09626 0.51498 0.51011 0.0
C427 C 0.08347 0.51769 0.49436 0.0
C428 C 0.07378 0.51345 0.53846 0.0
C429 C 0.07657 0.50207 0.63743 0.0
H430 H 0.08111 0.49244 0.64624 0.0
H431 H 0.06475 0.49915 0.63885 0.0
H432 H 0.0803 0.51004 0.67143 0.0
O433 O 0.12653 0.52425 0.60298 0.0
O434 O 0.12726 0.53406 0.51635 0.0
H435 H 0.09022 0.53431 0.43297 0.0
H436 H 0.07117 0.53003 0.44356 0.0
C437 C 0.08102 0.52552 0.4408 0.0
H438 H 0.0801 0.51806 0.40392 0.0
H439 H 0.12078 0.54595 0.39999 0.0
O440 O 0.10735 0.50088 0.67911 0.0
C441 C 0.13134 0.53436 0.56839 0.0
Co442 Co 0.23375 0.38517 0.24729 0.0
Co443 Co 0.24403 0.38791 0.37447 0.0
C444 C 0.21745 0.39806 0.33302 0.0
O445 O 0.21845 0.3938 0.28172 0.0
O446 O 0.22667 0.39653 0.37074 0.0
C447 C 0.21764 0.37904 0.1405 0.0
O448 O 0.2062 0.38058 0.16913 0.0
C449 C 0.23942 0.38146 0.49605 0.0
C450 C 0.26054 0.39014 0.53356 0.0
C451 C 0.24674 0.38355 0.54771 0.0
N452 N 0.2485 0.3865 0.45352 0.0
N453 N 0.26113 0.39158 0.47614 0.0
C454 C 0.22386 0.37565 0.48726 0.0
H455 H 0.21742 0.38062 0.5181 0.0
H456 H 0.22056 0.37742 0.44282 0.0
H457 H 0.22164 0.36398 0.49485 0.0
C458 C 0.23558 0.35497 0.26843 0.0
N459 N 0.2363 0.36848 0.28657 0.0
N460 N 0.24105 0.36963 0.33962 0.0
C461 C 0.24371 0.35691 0.35674 0.0
C462 C 0.24026 0.34717 0.31228 0.0
C463 C 0.23187 0.35011 0.20835 0.0
H464 H 0.23937 0.35669 0.17818 0.0
H465 H 0.22096 0.35174 0.19814 0.0
H466 H 0.23244 0.33873 0.20193 0.0
O467 O 0.25183 0.39941 0.2467 0.0
O468 O 0.25998 0.40091 0.33604 0.0
H469 H 0.25924 0.36264 0.42321 0.0
H470 H 0.25262 0.34361 0.41694 0.0
C471 C 0.24972 0.35428 0.41416 0.0
H472 H 0.24164 0.35492 0.44758 0.0
H473 H 0.27005 0.39637 0.45253 0.0
O474 O 0.22957 0.38054 0.16611 0.0
C475 C 0.26127 0.40459 0.28351 0.0
Co476 Co 0.39315 0.54322 0.10233 0.0
Co477 Co 0.38855 0.53075 0.97886 0.0
C478 C 0.37894 0.55796 0.01494 0.0
O479 O 0.38413 0.55794 0.06518 0.0
O480 O 0.37983 0.54803 0.9795 0.0
C481 C 0.3922 0.55674 0.2114 0.0
O482 O 0.38163 0.56178 0.18845 0.0
C483 C 0.39132 0.5339 0.85618 0.0
C484 C 0.38703 0.51173 0.82406 0.0
C485 C 0.39018 0.52585 0.80642 0.0
N486 N 0.38882 0.525 0.90107 0.0
N487 N 0.38626 0.51174 0.88179 0.0
C488 C 0.39587 0.54973 0.86182 0.0
H489 H 0.40134 0.55246 0.90345 0.0
H490 H 0.40309 0.55414 0.82621 0.0
H491 H 0.3863 0.55473 0.86049 0.0
C492 C 0.42297 0.54093 0.07626 0.0
N493 N 0.40922 0.53993 0.06093 0.0
N494 N 0.40736 0.53456 0.00897 0.0
C495 C 0.41988 0.53193 0.98946 0.0
C496 C 0.43021 0.53589 0.03145 0.0
C497 C 0.42855 0.54522 0.13494 0.0
H498 H 0.42224 0.53812 0.16715 0.0
H499 H 0.42711 0.55627 0.14388 0.0
H500 H 0.43995 0.54459 0.13974 0.0
O501 O 0.37894 0.52519 0.11039 0.0
O502 O 0.37632 0.51549 0.02363 0.0
H503 H 0.41479 0.51502 0.92839 0.0
H504 H 0.43305 0.52466 0.92416 0.0
C505 C 0.42184 0.52566 0.93186 0.0
H506 H 0.41868 0.53259 0.89808 0.0
H507 H 0.38396 0.50273 0.90796 0.0
O508 O 0.39885 0.5491 0.18116 0.0
C509 C 0.37335 0.51512 0.07693 0.0
Co510 Co 0.27145 0.66422 0.75182 0.0
Co511 Co 0.25811 0.66169 0.87369 0.0
C512 C 0.28542 0.65121 0.84463 0.0
O513 O 0.28571 0.65555 0.79299 0.0
O514 O 0.27536 0.65281 0.87834 0.0
C515 C 0.28073 0.65881 0.6412 0.0
O516 O 0.2803 0.64609 0.66344 0.0
C517 C 0.26052 0.66694 0.99513 0.0
C518 C 0.23844 0.66036 0.0266 0.0
C519 C 0.25236 0.66526 0.04465 0.0
N520 N 0.25191 0.66304 0.95022 0.0
N521 N 0.23868 0.6592 0.96905 0.0
C522 C 0.27617 0.67275 0.98948 0.0
H523 H 0.27852 0.6779 0.947 0.0
H524 H 0.27991 0.68056 0.02406 0.0
H525 H 0.28209 0.66386 0.99256 0.0
C526 C 0.26976 0.6946 0.77005 0.0
N527 N 0.26824 0.68103 0.78839 0.0
N528 N 0.26233 0.67997 0.83948 0.0
C529 C 0.2597 0.6928 0.85511 0.0
C530 C 0.26436 0.70255 0.81163 0.0
C531 C 0.27624 0.69976 0.71365 0.0
H532 H 0.28588 0.69515 0.7058 0.0
H533 H 0.27922 0.71157 0.7124 0.0
H534 H 0.26847 0.69606 0.67892 0.0
O535 O 0.25334 0.64999 0.74461 0.0
O536 O 0.24292 0.6492 0.82998 0.0
H537 H 0.24729 0.70525 0.90481 0.0
H538 H 0.25865 0.69586 0.9456 0.0
C539 C 0.25152 0.69525 0.90775 0.0
H540 H 0.2425 0.68619 0.91408 0.0
H541 H 0.2299 0.65551 0.94281 0.0
O542 O 0.27788 0.66869 0.67285 0.0
C543 C 0.24293 0.64527 0.77784 0.0
H544 H 0.42044 0.07046 0.83102 0.0
H545 H 0.42238 0.06734 0.72702 0.0
H546 H 0.37869 0.04475 0.7221 0.0
H547 H 0.37693 0.04735 0.8257 0.0
H548 H 0.39598 0.02986 0.67203 0.0
H549 H 0.40757 0.08534 0.58876 0.0
H550 H 0.41972 0.08173 0.64306 0.0
H551 H 0.4013 0.08111 0.66086 0.0
C552 C 0.41119 0.06513 0.80735 0.0
C553 C 0.39855 0.05911 0.83617 0.0
C554 C 0.41229 0.06337 0.74799 0.0
C555 C 0.40065 0.05587 0.71671 0.0
C556 C 0.38782 0.05052 0.74535 0.0
H557 H 0.38346 0.04682 0.35713 0.0
H558 H 0.38636 0.05411 0.45751 0.0
C559 C 0.38681 0.05204 0.80449 0.0
C560 C 0.40199 0.05239 0.65527 0.0
H561 H 0.40864 0.06687 0.52194 0.0
C562 C 0.39876 0.03796 0.6392 0.0
C563 C 0.4056 0.06297 0.61257 0.0
C564 C 0.40863 0.07867 0.62694 0.0
C565 C 0.39863 0.03381 0.58158 0.0
C566 C 0.40236 0.04437 0.53881 0.0
C567 C 0.4059 0.0588 0.55488 0.0
C568 C 0.40162 0.0407 0.477 0.0
C569 C 0.39387 0.0182 0.56715 0.0
C570 C 0.40942 0.03092 0.45433 0.0
C571 C 0.40763 0.02661 0.39708 0.0
C572 C 0.39834 0.03234 0.36131 0.0
C573 C 0.39091 0.04246 0.38352 0.0
C574 C 0.39253 0.0466 0.44088 0.0
H575 H 0.38787 0.01217 0.60305 0.0
H576 H 0.38699 0.01679 0.52841 0.0
H577 H 0.40338 0.01344 0.55854 0.0
H578 H 0.41674 0.02647 0.48109 0.0
H579 H 0.41352 0.01884 0.38071 0.0
H580 H 0.27474 0.1534 0.00384 0.0
H581 H 0.28364 0.15593 0.90537 0.0
H582 H 0.25073 0.17928 0.86128 0.0
H583 H 0.2419 0.17699 0.96036 0.0
H584 H 0.26666 0.146 0.80633 0.0
H585 H 0.2886 0.20422 0.79912 0.0
H586 H 0.2855 0.19435 0.86551 0.0
H587 H 0.27083 0.19927 0.82749 0.0
C588 C 0.26962 0.15937 0.97355 0.0
C589 C 0.25785 0.16531 0.98987 0.0
C590 C 0.27464 0.16071 0.91731 0.0
C591 C 0.26801 0.16803 0.87662 0.0
C592 C 0.25617 0.17386 0.89257 0.0
H593 H 0.26825 0.18198 0.51806 0.0
H594 H 0.26699 0.18319 0.6222 0.0
C595 C 0.25108 0.17245 0.94884 0.0
C596 C 0.27286 0.16873 0.8165 0.0
H597 H 0.2864 0.19186 0.70998 0.0
C598 C 0.27115 0.15598 0.78527 0.0
C599 C 0.27868 0.1818 0.78962 0.0
C600 C 0.28115 0.1957 0.82214 0.0
C601 C 0.27453 0.156 0.72684 0.0
C602 C 0.28013 0.16911 0.69951 0.0
C603 C 0.28219 0.18183 0.73123 0.0
C604 C 0.28261 0.16991 0.63698 0.0
C605 C 0.27144 0.14207 0.69433 0.0
C606 C 0.29225 0.1625 0.61088 0.0
C607 C 0.29292 0.16167 0.55114 0.0
C608 C 0.28402 0.16834 0.51681 0.0
C609 C 0.27513 0.17658 0.54325 0.0
C610 C 0.27443 0.17734 0.6028 0.0
H611 H 0.26438 0.13355 0.71889 0.0
H612 H 0.2663 0.14341 0.65251 0.0
H613 H 0.2816 0.13844 0.68579 0.0
H614 H 0.29888 0.15696 0.6367 0.0
H615 H 0.29999 0.15537 0.53203 0.0
H616 H 0.13493 0.99322 0.31224 0.0
H617 H 0.13226 0.99569 0.2087 0.0
H618 H 0.08801 0.99814 0.2317 0.0
H619 H 0.09051 0.99562 0.33536 0.0
H620 H 0.09539 0.98129 0.13092 0.0
H621 H 0.12684 0.03648 0.15155 0.0
H622 H 0.13478 0.0226 0.18231 0.0
H623 H 0.1186 0.02639 0.21222 0.0
C624 C 0.12455 0.99399 0.29527 0.0
C625 C 0.11299 0.99446 0.332 0.0
C626 C 0.12306 0.99543 0.23619 0.0
C627 C 0.11001 0.99731 0.2131 0.0
C628 C 0.09818 0.99675 0.24906 0.0
H629 H 0.09995 0.03744 0.88485 0.0
H630 H 0.09798 0.03035 0.9861 0.0
C631 C 0.09965 0.99534 0.3082 0.0
C632 C 0.10908 0.00123 0.15236 0.0
H633 H 0.12085 0.0281 0.05769 0.0
C634 C 0.1009 0.99152 0.11472 0.0
C635 C 0.11609 0.0147 0.13206 0.0
C636 C 0.12449 0.02573 0.17157 0.0
C637 C 0.09989 0.99481 0.05642 0.0
C638 C 0.10735 0.00808 0.03573 0.0
C639 C 0.1152 0.01792 0.07381 0.0
C640 C 0.10764 0.01182 0.97434 0.0
C641 C 0.09082 0.98412 0.01754 0.0
C642 C 0.1139 0.00386 0.93476 0.0
C643 C 0.11508 0.00791 0.87731 0.0
C644 C 0.10996 0.01996 0.85845 0.0
C645 C 0.10384 0.02803 0.89827 0.0
C646 C 0.10267 0.02397 0.95586 0.0
H647 H 0.0829 0.97638 0.04216 0.0
H648 H 0.08508 0.98955 0.98562 0.0
H649 H 0.09778 0.97804 0.99391 0.0
H650 H 0.11824 0.99474 0.94862 0.0
H651 H 0.12042 0.00185 0.84817 0.0
H652 H 0.22626 0.89076 0.51696 0.0
H653 H 0.21901 0.88874 0.41668 0.0
H654 H 0.25751 0.87378 0.37364 0.0
H655 H 0.26474 0.87549 0.4747 0.0
H656 H 0.25223 0.89686 0.30729 0.0
H657 H 0.20466 0.85314 0.31627 0.0
H658 H 0.20474 0.86713 0.36786 0.0
H659 H 0.21797 0.85611 0.37226 0.0
C660 C 0.23296 0.88654 0.4867 0.0
C661 C 0.24588 0.88286 0.50399 0.0
C662 C 0.22883 0.88549 0.42926 0.0
C663 C 0.23758 0.88082 0.3881 0.0
C664 C 0.25054 0.87723 0.40506 0.0
H665 H 0.22348 0.86395 0.0269 0.0
H666 H 0.22599 0.86177 0.13065 0.0
C667 C 0.25466 0.87825 0.4626 0.0
C668 C 0.23375 0.88082 0.32679 0.0
H669 H 0.20839 0.8664 0.22927 0.0
C670 C 0.24269 0.89016 0.29013 0.0
C671 C 0.22132 0.87201 0.30476 0.0
C672 C 0.21166 0.86143 0.34213 0.0
C673 C 0.23942 0.89108 0.23191 0.0
C674 C 0.22678 0.88258 0.21015 0.0
C675 C 0.21795 0.87304 0.24651 0.0
C676 C 0.22296 0.88317 0.14904 0.0
C677 C 0.2496 0.90104 0.19395 0.0
C678 C 0.21983 0.89574 0.12563 0.0
C679 C 0.21842 0.89705 0.06641 0.0
C680 C 0.22011 0.8858 0.02983 0.0
C681 C 0.22223 0.87286 0.0539 0.0
C682 C 0.22365 0.87157 0.11313 0.0
H683 H 0.26018 0.90453 0.21457 0.0
H684 H 0.25114 0.89585 0.15243 0.0
H685 H 0.24509 0.91068 0.18481 0.0
H686 H 0.21906 0.90473 0.15299 0.0
H687 H 0.21665 0.90711 0.04925 0.0
H688 H 0.58713 1.00069 0.75624 0.0
H689 H 0.58367 0.99076 0.65971 0.0
H690 H 0.6227 0.0181 0.60523 0.0
H691 H 0.62663 0.0275 0.70256 0.0
H692 H 0.58016 0.00364 0.5607 0.0
H693 H 0.6284 0.97992 0.54538 0.0
H694 H 0.62212 0.98576 0.61264 0.0
H695 H 0.63286 0.99837 0.56531 0.0
C696 C 0.59522 0.00425 0.72434 0.0
C697 C 0.60743 0.01449 0.73759 0.0
C698 C 0.59312 0.99869 0.6689 0.0
C699 C 0.60314 0.00337 0.62571 0.0
C700 C 0.61508 0.01398 0.63837 0.0
H701 H 0.59776 0.01227 0.27095 0.0
H702 H 0.59532 0.01237 0.37456 0.0
C703 C 0.61722 0.01947 0.69381 0.0
C704 C 0.60081 0.99779 0.56656 0.0
H705 H 0.61775 0.98486 0.45541 0.0
C706 C 0.58826 0.99929 0.53794 0.0
C707 C 0.61119 0.99174 0.5373 0.0
C708 C 0.62432 0.9887 0.567 0.0
C709 C 0.58629 0.99587 0.47966 0.0
C710 C 0.59731 0.99116 0.44907 0.0
C711 C 0.60938 0.98867 0.47868 0.0
C712 C 0.59732 0.99034 0.3857 0.0
C713 C 0.57255 0.99763 0.45123 0.0
C714 C 0.59948 0.97795 0.35735 0.0
C715 C 0.60108 0.9779 0.29768 0.0
C716 C 0.60067 0.99029 0.26567 0.0
C717 C 0.59814 0.00254 0.29422 0.0
C718 C 0.59658 0.00258 0.35355 0.0
H719 H 0.56359 0.99596 0.48243 0.0
H720 H 0.57372 0.00866 0.43445 0.0
H721 H 0.56975 0.99005 0.41505 0.0
H722 H 0.60021 0.96843 0.3815 0.0
H723 H 0.60302 0.96831 0.27692 0.0
H724 H 0.74069 0.87713 0.58387 0.0
H725 H 0.74116 0.87462 0.48034 0.0
H726 H 0.69577 0.87308 0.47301 0.0
H727 H 0.69522 0.87592 0.57765 0.0
H728 H 0.72727 0.85374 0.40703 0.0
H729 H 0.71205 0.90634 0.3663 0.0
H730 H 0.71719 0.9012 0.43647 0.0
H731 H 0.69989 0.89369 0.4083 0.0
C732 C 0.73076 0.87623 0.56054 0.0
C733 C 0.71793 0.87692 0.58899 0.0
C734 C 0.73105 0.87472 0.50126 0.0
C735 C 0.71855 0.87384 0.46899 0.0
C736 C 0.70558 0.87398 0.49718 0.0
H737 H 0.72887 0.86097 0.09815 0.0
H738 H 0.71916 0.85754 0.19509 0.0
C739 C 0.70527 0.87554 0.55688 0.0
C740 C 0.71955 0.87348 0.40576 0.0
H741 H 0.71892 0.8942 0.28701 0.0
C742 C 0.72523 0.86245 0.38045 0.0
C743 C 0.71698 0.88494 0.37156 0.0
C744 C 0.71128 0.89729 0.39681 0.0
C745 C 0.72908 0.86292 0.32236 0.0
C746 C 0.7269 0.87461 0.28859 0.0
C747 C 0.72057 0.88527 0.31321 0.0
C748 C 0.73232 0.87671 0.2292 0.0
C749 C 0.73621 0.85137 0.29855 0.0
C750 C 0.74277 0.88872 0.21606 0.0
C751 C 0.74808 0.89088 0.1604 0.0
C752 C 0.74297 0.88112 0.11672 0.0
C753 C 0.73265 0.86897 0.13016 0.0
C754 C 0.72727 0.86685 0.18587 0.0
H755 H 0.7397 0.84477 0.33299 0.0
H756 H 0.72857 0.84422 0.27062 0.0
H757 H 0.74564 0.85603 0.27222 0.0
H758 H 0.74686 0.89642 0.24902 0.0
H759 H 0.75606 0.90032 0.15139 0.0
H760 H 0.90228 0.01114 0.22124 0.0
H761 H 0.90445 0.01796 0.11967 0.0
H762 H 0.8857 0.05464 0.15573 0.0
H763 H 0.88335 0.04783 0.25638 0.0
H764 H 0.88212 0.02065 0.04787 0.0
H765 H 0.92089 0.07181 0.06075 0.0
H766 H 0.91835 0.05893 0.11834 0.0
H767 H 0.90608 0.07085 0.10894 0.0
C768 C 0.89879 0.02074 0.20743 0.0
C769 C 0.89304 0.02918 0.24692 0.0
C770 C 0.90007 0.02464 0.14965 0.0
C771 C 0.89558 0.03701 0.13064 0.0
C772 C 0.8897 0.04535 0.16994 0.0
H773 H 0.86695 0.05521 0.79492 0.0
H774 H 0.87005 0.05229 0.89797 0.0
C775 C 0.88842 0.04147 0.22756 0.0
C776 C 0.89588 0.04059 0.06902 0.0
H777 H 0.90773 0.06722 0.97306 0.0
C778 C 0.88783 0.03077 0.03139 0.0
C779 C 0.90343 0.05376 0.04776 0.0
C780 C 0.91279 0.0644 0.08593 0.0
C781 C 0.88676 0.03395 0.97317 0.0
C782 C 0.89375 0.04739 0.95244 0.0
C783 C 0.9022 0.05704 0.98955 0.0
C784 C 0.89246 0.0514 0.89192 0.0
C785 C 0.87815 0.02292 0.93424 0.0
C786 C 0.90422 0.05258 0.8552 0.0
C787 C 0.90251 0.05429 0.79633 0.0
C788 C 0.889 0.05486 0.77352 0.0
C789 C 0.87746 0.05469 0.81108 0.0
C790 C 0.87919 0.05297 0.86989 0.0
H791 H 0.87616 0.01212 0.95391 0.0
H792 H 0.86767 0.02588 0.92552 0.0
H793 H 0.88367 0.02244 0.89259 0.0
H794 H 0.91456 0.05148 0.8717 0.0
H795 H 0.91164 0.05449 0.76854 0.0
H796 H 0.77356 0.18863 0.58285 0.0
H797 H 0.7835 0.19218 0.6794 0.0
H798 H 0.75714 0.15252 0.73302 0.0
H799 H 0.74775 0.14851 0.63583 0.0
H800 H 0.77072 0.19508 0.77949 0.0
H801 H 0.79573 0.14761 0.79072 0.0
H802 H 0.78956 0.15392 0.72413 0.0
H803 H 0.77728 0.14275 0.77134 0.0
C804 C 0.7702 0.18044 0.61458 0.0
C805 C 0.76024 0.16803 0.60106 0.0
C806 C 0.77576 0.18259 0.67003 0.0
C807 C 0.77139 0.1724 0.71296 0.0
C808 C 0.76104 0.16028 0.70009 0.0
H809 H 0.76321 0.17683 0.06902 0.0
H810 H 0.76277 0.17949 0.96556 0.0
C811 C 0.75555 0.1581 0.64468 0.0
C812 C 0.77706 0.17467 0.77204 0.0
H813 H 0.7906 0.15771 0.8816 0.0
C814 C 0.77531 0.18703 0.80156 0.0
C815 C 0.78342 0.16439 0.80042 0.0
C816 C 0.78676 0.15151 0.76975 0.0
C817 C 0.77879 0.18886 0.85985 0.0
C818 C 0.78381 0.17789 0.88958 0.0
C819 C 0.78654 0.16604 0.85905 0.0
C820 C 0.78481 0.17769 0.95296 0.0
C821 C 0.7768 0.20242 0.88915 0.0
C822 C 0.7973 0.17553 0.9805 0.0
C823 C 0.79754 0.17377 0.04007 0.0
C824 C 0.78525 0.17405 0.07288 0.0
C825 C 0.77289 0.17656 0.04517 0.0
C826 C 0.77265 0.17825 0.9859 0.0
H827 H 0.77831 0.21149 0.85847 0.0
H828 H 0.76576 0.20101 0.90601 0.0
H829 H 0.78437 0.20523 0.92537 0.0
H830 H 0.80677 0.17493 0.95577 0.0
H831 H 0.80722 0.17184 0.06015 0.0
H832 H 0.86749 0.55617 0.31008 0.0
H833 H 0.87047 0.5534 0.20686 0.0
H834 H 0.9149 0.55207 0.23224 0.0
H835 H 0.9121 0.55496 0.33554 0.0
H836 H 0.90847 0.56802 0.13203 0.0
H837 H 0.87577 0.51337 0.14847 0.0
H838 H 0.86752 0.52729 0.17694 0.0
H839 H 0.8833 0.52342 0.21037 0.0
C840 C 0.87796 0.55556 0.29369 0.0
C841 C 0.88951 0.55557 0.33104 0.0
C842 C 0.87962 0.55392 0.23477 0.0
C843 C 0.89283 0.55226 0.2124 0.0
C844 C 0.90461 0.55325 0.24897 0.0
H845 H 0.9028 0.51187 0.88414 0.0
H846 H 0.90465 0.51878 0.98561 0.0
C847 C 0.90297 0.55489 0.30793 0.0
C848 C 0.89406 0.54838 0.15164 0.0
H849 H 0.88214 0.52198 0.05505 0.0
C850 C 0.90277 0.55795 0.11505 0.0
C851 C 0.88683 0.5351 0.13024 0.0
C852 C 0.87792 0.52412 0.16853 0.0
C853 C 0.90409 0.55474 0.05681 0.0
C854 C 0.89637 0.54171 0.03492 0.0
C855 C 0.88799 0.53199 0.07198 0.0
C856 C 0.89635 0.53812 0.97331 0.0
C857 C 0.91378 0.56527 0.01931 0.0
C858 C 0.89093 0.54663 0.9332 0.0
C859 C 0.88986 0.5427 0.87556 0.0
C860 C 0.8942 0.5302 0.85702 0.0
C861 C 0.89953 0.52163 0.8973 0.0
C862 C 0.90062 0.52558 0.95505 0.0
H863 H 0.92187 0.57255 0.04506 0.0
H864 H 0.91937 0.5597 0.98732 0.0
H865 H 0.90732 0.57188 0.99581 0.0
H866 H 0.88712 0.55607 0.94676 0.0
H867 H 0.88512 0.54919 0.84609 0.0
H868 H 0.74836 0.64956 0.46376 0.0
H869 H 0.7577 0.65347 0.36635 0.0
H870 H 0.785 0.69256 0.42046 0.0
H871 H 0.77515 0.6891 0.51716 0.0
H872 H 0.77198 0.69591 0.32098 0.0
H873 H 0.79604 0.64784 0.3072 0.0
H874 H 0.77759 0.64336 0.32719 0.0
H875 H 0.79018 0.65421 0.37424 0.0
C876 C 0.75636 0.65898 0.45492 0.0
C877 C 0.76135 0.66878 0.49865 0.0
C878 C 0.76182 0.66111 0.39942 0.0
C879 C 0.7724 0.67306 0.38663 0.0
C880 C 0.77708 0.6831 0.42975 0.0
H881 H 0.80817 0.67312 0.03908 0.0
H882 H 0.80772 0.67594 0.14362 0.0
C883 C 0.77157 0.681 0.48527 0.0
C884 C 0.77799 0.67534 0.32747 0.0
H885 H 0.79121 0.65841 0.21704 0.0
C886 C 0.77642 0.68783 0.2985 0.0
C887 C 0.78415 0.66499 0.29858 0.0
C888 C 0.78724 0.65193 0.32866 0.0
C889 C 0.77991 0.68976 0.24026 0.0
C890 C 0.78477 0.67876 0.21005 0.0
C891 C 0.7873 0.66675 0.24 0.0
C892 C 0.78577 0.67873 0.14669 0.0
C893 C 0.77809 0.70344 0.21149 0.0
C894 C 0.77362 0.6794 0.11389 0.0
C895 C 0.77385 0.67785 0.05457 0.0
C896 C 0.7862 0.67538 0.02666 0.0
C897 C 0.7985 0.67501 0.05932 0.0
C898 C 0.79826 0.67662 0.11898 0.0
H899 H 0.77962 0.71243 0.24256 0.0
H900 H 0.78572 0.70627 0.17552 0.0
H901 H 0.76708 0.70216 0.19435 0.0
H902 H 0.76375 0.68062 0.13437 0.0
H903 H 0.76418 0.67818 0.03081 0.0
H904 H 0.58601 0.47147 0.82255 0.0
H905 H 0.5846 0.472 0.71712 0.0
H906 H 0.61923 0.50833 0.71347 0.0
H907 H 0.62063 0.508 0.81769 0.0
H908 H 0.58117 0.4989 0.64983 0.0
H909 H 0.62971 0.47754 0.59703 0.0
H910 H 0.6201 0.47363 0.66372 0.0
H911 H 0.63189 0.49052 0.65381 0.0
C912 C 0.59339 0.47946 0.79908 0.0
C913 C 0.60341 0.48971 0.82829 0.0
C914 C 0.59255 0.47976 0.7391 0.0
C915 C 0.6019 0.49013 0.70787 0.0
C916 C 0.61203 0.50017 0.73695 0.0
H917 H 0.62597 0.52866 0.39041 0.0
H918 H 0.62249 0.51947 0.48825 0.0
C919 C 0.61276 0.49999 0.79651 0.0
C920 C 0.60087 0.49119 0.64497 0.0
H921 H 0.62082 0.49105 0.52388 0.0
C922 C 0.58963 0.49688 0.62178 0.0
C923 C 0.61199 0.4886 0.60903 0.0
C924 C 0.62407 0.48212 0.63192 0.0
C925 C 0.58971 0.50095 0.5639 0.0
C926 C 0.60123 0.49903 0.52855 0.0
C927 C 0.61205 0.49259 0.55121 0.0
C928 C 0.60291 0.50464 0.46932 0.0
C929 C 0.57796 0.50808 0.54198 0.0
C930 C 0.59299 0.49941 0.42643 0.0
C931 C 0.59491 0.50474 0.37055 0.0
C932 C 0.60689 0.51521 0.35655 0.0
C933 C 0.61666 0.52056 0.39987 0.0
C934 C 0.61473 0.51527 0.45565 0.0
H935 H 0.5714 0.51121 0.57737 0.0
H936 H 0.58245 0.51773 0.51659 0.0
H937 H 0.57082 0.50059 0.51349 0.0
H938 H 0.58383 0.49117 0.43607 0.0
H939 H 0.5869 0.50077 0.33876 0.0
H940 H 0.69627 0.37759 0.53526 0.0
H941 H 0.69658 0.37434 0.63969 0.0
H942 H 0.74166 0.37412 0.63279 0.0
H943 H 0.74142 0.37699 0.52938 0.0
H944 H 0.72714 0.35352 0.70512 0.0
H945 H 0.71368 0.40679 0.74805 0.0
H946 H 0.70116 0.39458 0.70568 0.0
H947 H 0.7186 0.40161 0.67763 0.0
C948 C 0.70621 0.37674 0.55607 0.0
C949 C 0.71884 0.37771 0.52411 0.0
C950 C 0.70637 0.37494 0.61566 0.0
C951 C 0.71919 0.37419 0.64395 0.0
C952 C 0.73166 0.37468 0.61181 0.0
H953 H 0.75699 0.39932 0.96131 0.0
H954 H 0.74768 0.39561 0.86394 0.0
C955 C 0.7315 0.3764 0.55261 0.0
C956 C 0.72009 0.37361 0.70719 0.0
H957 H 0.71995 0.39412 0.82684 0.0
C958 C 0.72535 0.36227 0.73207 0.0
C959 C 0.71783 0.38511 0.74189 0.0
C960 C 0.7126 0.39778 0.71719 0.0
C961 C 0.72915 0.36247 0.79021 0.0
C962 C 0.72732 0.3742 0.82446 0.0
C963 C 0.72133 0.38516 0.80028 0.0
C964 C 0.73286 0.37609 0.88375 0.0
C965 C 0.73588 0.35058 0.81352 0.0
C966 C 0.7277 0.36625 0.92704 0.0
C967 C 0.73316 0.36825 0.98269 0.0
C968 C 0.74366 0.38026 0.99613 0.0
C969 C 0.74888 0.38998 0.95241 0.0
C970 C 0.7435 0.38793 0.89685 0.0
H971 H 0.73913 0.34391 0.77882 0.0
H972 H 0.74539 0.35493 0.83991 0.0
H973 H 0.72807 0.34358 0.84128 0.0
H974 H 0.71943 0.35707 0.91787 0.0
H975 H 0.72927 0.36028 0.01466 0.0
H976 H 0.12622 0.47829 0.78915 0.0
H977 H 0.12333 0.47886 0.89339 0.0
H978 H 0.09186 0.50542 0.87356 0.0
H979 H 0.09439 0.50463 0.7699 0.0
H980 H 0.12964 0.5029 0.9557 0.0
H981 H 0.07326 0.47799 0.99439 0.0
H982 H 0.08214 0.47607 0.92729 0.0
H983 H 0.07487 0.49179 0.94136 0.0
C984 C 0.11846 0.48398 0.80697 0.0
C985 C 0.11061 0.49149 0.77128 0.0
C986 C 0.11682 0.4843 0.8665 0.0
C987 C 0.10726 0.49204 0.8912 0.0
C988 C 0.09904 0.49908 0.85549 0.0
H989 H 0.09974 0.53414 0.21072 0.0
H990 H 0.09838 0.52543 0.11132 0.0
C991 C 0.10061 0.49873 0.79612 0.0
C992 C 0.10708 0.49426 0.95397 0.0
H993 H 0.08489 0.49349 0.06927 0.0
C994 C 0.1199 0.5006 0.98072 0.0
C995 C 0.09435 0.49131 0.9865 0.0
C996 C 0.08041 0.48378 0.96098 0.0
C997 C 0.12022 0.50458 0.03858 0.0
C998 C 0.10741 0.50212 0.07033 0.0
C999 C 0.09465 0.49545 0.0443 0.0
C1000 C 0.10716 0.50671 0.13054 0.0
C1001 C 0.13415 0.51178 0.06517 0.0
C1002 C 0.11245 0.49896 0.17368 0.0
C1003 C 0.11322 0.50388 0.23012 0.0
C1004 C 0.10863 0.51658 0.24426 0.0
C1005 C 0.10323 0.52426 0.20093 0.0
C1006 C 0.1024 0.51929 0.14443 0.0
H1007 H 0.14289 0.51416 0.03313 0.0
H1008 H 0.13288 0.52189 0.08623 0.0
H1009 H 0.13732 0.50475 0.0987 0.0
H1010 H 0.1163 0.4893 0.16339 0.0
H1011 H 0.11792 0.498 0.26209 0.0
H1012 H 0.19491 0.37793 0.06729 0.0
H1013 H 0.19492 0.37478 0.96282 0.0
H1014 H 0.23913 0.37085 0.96923 0.0
H1015 H 0.23916 0.37367 0.0727 0.0
H1016 H 0.21114 0.39229 0.88708 0.0
H1017 H 0.22281 0.33821 0.8646 0.0
H1018 H 0.21681 0.34463 0.93134 0.0
H1019 H 0.23541 0.34874 0.91189 0.0
C1020 C 0.20455 0.37616 0.04644 0.0
C1021 C 0.21704 0.3761 0.07825 0.0
C1022 C 0.20453 0.37436 0.98685 0.0
C1023 C 0.21695 0.37233 0.95842 0.0
C1024 C 0.22931 0.37201 0.99035 0.0
H1025 H 0.25405 0.40029 0.64101 0.0
H1026 H 0.24452 0.39665 0.73821 0.0
C1027 C 0.22934 0.37379 0.04959 0.0
C1028 C 0.21764 0.37199 0.89507 0.0
H1029 H 0.23018 0.3544 0.78487 0.0
C1030 C 0.215 0.38386 0.86448 0.0
C1031 C 0.22242 0.36087 0.8654 0.0
C1032 C 0.22437 0.34733 0.89503 0.0
C1033 C 0.21802 0.38539 0.80574 0.0
C1034 C 0.22414 0.37494 0.77736 0.0
C1035 C 0.22577 0.36256 0.80696 0.0
C1036 C 0.22977 0.37707 0.71824 0.0
C1037 C 0.21489 0.39835 0.77499 0.0
C1038 C 0.22511 0.36694 0.6754 0.0
C1039 C 0.23072 0.36889 0.62 0.0
C1040 C 0.24103 0.38103 0.60651 0.0
C1041 C 0.24598 0.39092 0.64996 0.0
C1042 C 0.24042 0.38894 0.70532 0.0
H1043 H 0.2061 0.40249 0.79624 0.0
H1044 H 0.22453 0.40693 0.77601 0.0
H1045 H 0.21194 0.39591 0.72952 0.0
H1046 H 0.21713 0.35754 0.68485 0.0
H1047 H 0.22715 0.36074 0.5883 0.0
H1048 H 0.38003 0.54821 0.76033 0.0
H1049 H 0.38221 0.55662 0.66116 0.0
H1050 H 0.40479 0.5231 0.61756 0.0
H1051 H 0.40286 0.51472 0.71738 0.0
H1052 H 0.41683 0.55376 0.57648 0.0
H1053 H 0.35976 0.53238 0.5252 0.0
H1054 H 0.36358 0.54255 0.59022 0.0
H1055 H 0.36883 0.52557 0.58386 0.0
C1056 C 0.38572 0.5428 0.72997 0.0
C1057 C 0.39154 0.53098 0.74666 0.0
C1058 C 0.38683 0.54754 0.6733 0.0
C1059 C 0.39369 0.54048 0.63243 0.0
C1060 C 0.39953 0.52869 0.64883 0.0
H1061 H 0.41116 0.54486 0.27341 0.0
H1062 H 0.41267 0.54332 0.37734 0.0
C1063 C 0.39835 0.5239 0.70555 0.0
C1064 C 0.39433 0.54513 0.57208 0.0
H1065 H 0.37384 0.54498 0.45247 0.0
C1066 C 0.40746 0.5519 0.54922 0.0
C1067 C 0.38202 0.54279 0.53722 0.0
C1068 C 0.36773 0.53536 0.55996 0.0
C1069 C 0.40862 0.55637 0.49178 0.0
C1070 C 0.39637 0.55366 0.45635 0.0
C1071 C 0.3832 0.54712 0.47977 0.0
C1072 C 0.39704 0.5565 0.39395 0.0
C1073 C 0.4229 0.56402 0.46982 0.0
C1074 C 0.38778 0.56448 0.36861 0.0
C1075 C 0.38673 0.56522 0.30898 0.0
C1076 C 0.3949 0.55794 0.27376 0.0
C1077 C 0.40471 0.5506 0.29929 0.0
C1078 C 0.40569 0.5498 0.35883 0.0
H1079 H 0.42964 0.56946 0.50515 0.0
H1080 H 0.42864 0.55613 0.45039 0.0
H1081 H 0.42167 0.57204 0.43669 0.0
H1082 H 0.38097 0.56969 0.39502 0.0
H1083 H 0.3791 0.571 0.29063 0.0
H1084 H 0.27646 0.6582 0.0905 0.0
H1085 H 0.28359 0.65911 0.19093 0.0
H1086 H 0.24589 0.67522 0.23646 0.0
H1087 H 0.23876 0.6746 0.13526 0.0
H1088 H 0.28809 0.68237 0.2731 0.0
H1089 H 0.24375 0.63773 0.32986 0.0
H1090 H 0.24917 0.64189 0.2567 0.0
H1091 H 0.23853 0.65257 0.29391 0.0
C1092 C 0.2699 0.66239 0.12141 0.0
C1093 C 0.2572 0.66666 0.10483 0.0
C1094 C 0.27394 0.66276 0.17892 0.0
C1095 C 0.26524 0.66719 0.22087 0.0
C1096 C 0.25267 0.67167 0.20453 0.0
H1097 H 0.28028 0.6833 0.58131 0.0
H1098 H 0.27851 0.68577 0.47752 0.0
C1099 C 0.24863 0.67133 0.1469 0.0
C1100 C 0.269 0.66635 0.28196 0.0
H1101 H 0.25805 0.64875 0.40598 0.0
C1102 C 0.28155 0.67504 0.30231 0.0
C1103 C 0.26054 0.65658 0.31938 0.0
C1104 C 0.2473 0.64656 0.29897 0.0
C1105 C 0.28575 0.67438 0.35976 0.0
C1106 C 0.27709 0.66486 0.39748 0.0
C1107 C 0.26465 0.65605 0.37682 0.0
C1108 C 0.2804 0.66401 0.45906 0.0
C1109 C 0.29946 0.68371 0.3795 0.0
C1110 C 0.28222 0.651 0.48291 0.0
C1111 C 0.28315 0.64951 0.54224 0.0
C1112 C 0.28215 0.661 0.57865 0.0
C1113 C 0.28107 0.67424 0.55441 0.0
C1114 C 0.28014 0.67571 0.49507 0.0
H1115 H 0.3066 0.68757 0.34287 0.0
H1116 H 0.29697 0.69315 0.40212 0.0
H1117 H 0.30525 0.67788 0.4098 0.0
H1118 H 0.28241 0.64184 0.45567 0.0
H1119 H 0.28402 0.63919 0.55955 0.0
H1120 H 0.37338 0.08204 0.03866 0.0
H1121 H 0.35936 0.09966 0.06916 0.0
H1122 H 0.35245 0.0791 0.23405 0.0
H1123 H 0.36626 0.0614 0.20401 0.0
H1124 H 0.32738 0.08308 0.17757 0.0
H1125 H 0.36806 0.13315 0.18523 0.0
H1126 H 0.3678 0.12296 0.12028 0.0
H1127 H 0.3727 0.11568 0.18666 0.0
C1128 C 0.36905 0.08138 0.08171 0.0
C1129 C 0.37097 0.07028 0.11886 0.0
C1130 C 0.36111 0.09151 0.09916 0.0
C1131 C 0.355 0.09075 0.15405 0.0
C1132 C 0.35716 0.07991 0.19163 0.0
H1133 H 0.30668 0.14767 0.32301 0.0
H1134 H 0.32463 0.1335 0.29761 0.0
C1135 C 0.36511 0.06982 0.17435 0.0
C1136 C 0.34534 0.10048 0.17071 0.0
H1137 H 0.34379 0.13546 0.19417 0.0
C1138 C 0.33098 0.09453 0.18144 0.0
C1139 C 0.35011 0.11538 0.17607 0.0
C1140 C 0.36553 0.12222 0.16696 0.0
C1141 C 0.32118 0.10311 0.19641 0.0
C1142 C 0.32585 0.11804 0.20029 0.0
C1143 C 0.34026 0.124 0.1907 0.0
C1144 C 0.31577 0.12755 0.2138 0.0
C1145 C 0.30589 0.09615 0.20823 0.0
C1146 C 0.30507 0.12911 0.17451 0.0
C1147 C 0.29484 0.13718 0.18873 0.0
C1148 C 0.2951 0.14385 0.24264 0.0
C1149 C 0.30613 0.14263 0.28125 0.0
C1150 C 0.31641 0.13458 0.26681 0.0
H1151 H 0.30468 0.08446 0.21503 0.0
H1152 H 0.30179 0.10094 0.24662 0.0
H1153 H 0.29918 0.0979 0.17108 0.0
H1154 H 0.3045 0.12385 0.13317 0.0
H1155 H 0.28653 0.13788 0.15789 0.0
H1156 H 0.14631 0.0551 0.59026 0.0
H1157 H 0.16414 0.07483 0.55276 0.0
H1158 H 0.15519 0.05919 0.38068 0.0
H1159 H 0.13736 0.03939 0.41753 0.0
H1160 H 0.18871 0.07125 0.48227 0.0
H1161 H 0.1529 0.10262 0.37435 0.0
H1162 H 0.14675 0.08978 0.43012 0.0
H1163 H 0.14974 0.08382 0.35899 0.0
C1164 C 0.14804 0.05589 0.54438 0.0
C1165 C 0.14039 0.04565 0.50692 0.0
C1166 C 0.15824 0.06717 0.52309 0.0
C1167 C 0.16085 0.06852 0.46399 0.0
C1168 C 0.15317 0.05843 0.42639 0.0
H1169 H 0.21979 0.1277 0.25372 0.0
H1170 H 0.20048 0.10914 0.28961 0.0
C1171 C 0.14303 0.04709 0.44762 0.0
C1172 C 0.17211 0.08009 0.44191 0.0
H1173 H 0.17771 0.1103 0.36021 0.0
C1174 C 0.18633 0.07984 0.45579 0.0
C1175 C 0.16892 0.09115 0.40699 0.0
C1176 C 0.15375 0.092 0.39189 0.0
C1177 C 0.19754 0.09029 0.43501 0.0
C1178 C 0.19437 0.10151 0.40069 0.0
C1179 C 0.18011 0.10172 0.38664 0.0
C1180 C 0.20572 0.11314 0.37914 0.0
C1181 C 0.21268 0.089 0.44884 0.0
C1182 C 0.21485 0.12176 0.4176 0.0
C1183 C 0.22595 0.13228 0.39729 0.0
C1184 C 0.22803 0.13454 0.33802 0.0
C1185 C 0.21853 0.12622 0.2996 0.0
C1186 C 0.20748 0.11561 0.32002 0.0
H1187 H 0.21342 0.0779 0.46074 0.0
H1188 H 0.21989 0.09235 0.41194 0.0
H1189 H 0.21652 0.09599 0.48585 0.0
H1190 H 0.21345 0.12029 0.46343 0.0
H1191 H 0.23295 0.13859 0.42813 0.0
H1192 H 0.21524 0.90979 0.66158 0.0
H1193 H 0.1979 0.92412 0.63176 0.0
H1194 H 0.17617 0.91595 0.79377 0.0
H1195 H 0.19344 0.90154 0.82423 0.0
H1196 H 0.15786 0.91389 0.69064 0.0
H1197 H 0.19816 0.9642 0.70555 0.0
H1198 H 0.20325 0.95023 0.66343 0.0
H1199 H 0.20062 0.94783 0.73928 0.0
C1200 C 0.20672 0.91091 0.69082 0.0
C1201 C 0.20582 0.9046 0.74558 0.0
C1202 C 0.19684 0.91914 0.67368 0.0
C1203 C 0.18589 0.92121 0.71086 0.0
C1204 C 0.18459 0.91449 0.76458 0.0
H1205 H 0.13688 0.98833 0.6986 0.0
H1206 H 0.15086 0.97062 0.72711 0.0
C1207 C 0.19449 0.90629 0.7819 0.0
C1208 C 0.1762 0.93093 0.69468 0.0
H1209 H 0.17556 0.96595 0.66835 0.0
C1210 C 0.16169 0.92527 0.68573 0.0
C1211 C 0.18125 0.94577 0.689 0.0
C1212 C 0.19664 0.95245 0.70021 0.0
C1213 C 0.1521 0.93411 0.67037 0.0
C1214 C 0.15722 0.94892 0.66362 0.0
C1215 C 0.1717 0.95457 0.67327 0.0
C1216 C 0.14776 0.95887 0.6474 0.0
C1217 C 0.13654 0.92761 0.66237 0.0
C1218 C 0.14132 0.95808 0.59312 0.0
C1219 C 0.1333 0.96822 0.57652 0.0
C1220 C 0.13162 0.97935 0.61393 0.0
C1221 C 0.13789 0.97991 0.66871 0.0
C1222 C 0.14592 0.9698 0.68513 0.0
H1223 H 0.13382 0.91672 0.68098 0.0
H1224 H 0.12967 0.93439 0.68242 0.0
H1225 H 0.13407 0.92684 0.61586 0.0
H1226 H 0.1428 0.94986 0.56304 0.0
H1227 H 0.12866 0.9675 0.53399 0.0
H1228 H 0.34797 0.01597 0.97106 0.0
H1229 H 0.32952 0.99607 0.94042 0.0
H1230 H 0.34848 0.96741 0.04518 0.0
H1231 H 0.36646 0.98758 0.07889 0.0
H1232 H 0.33112 0.97419 0.88128 0.0
H1233 H 0.30834 0.95464 0.09128 0.0
H1234 H 0.32093 0.9712 0.08402 0.0
H1235 H 0.32704 0.95449 0.08688 0.0
C1236 C 0.34809 0.00544 0.98807 0.0
C1237 C 0.35858 0.00331 0.02755 0.0
C1238 C 0.33756 0.99405 0.97045 0.0
C1239 C 0.33743 0.9802 0.99097 0.0
C1240 C 0.34803 0.97802 0.03003 0.0
H1241 H 0.28737 0.90836 0.80053 0.0
H1242 H 0.30694 0.92604 0.84018 0.0
C1243 C 0.35837 0.98953 0.04896 0.0
C1244 C 0.3265 0.96811 0.96926 0.0
H1245 H 0.3009 0.93987 0.01067 0.0
C1246 C 0.32446 0.96674 0.9097 0.0
C1247 C 0.31769 0.95843 0.00617 0.0
C1248 C 0.3185 0.95984 0.07061 0.0
C1249 C 0.31377 0.95619 0.88605 0.0
C1250 C 0.3053 0.94619 0.92281 0.0
C1251 C 0.30746 0.94743 0.98236 0.0
C1252 C 0.2937 0.93479 0.90075 0.0
C1253 C 0.31133 0.95635 0.82209 0.0
C1254 C 0.27988 0.93325 0.92357 0.0
C1255 C 0.26881 0.92282 0.90234 0.0
C1256 C 0.27128 0.91389 0.85712 0.0
C1257 C 0.28513 0.91527 0.83478 0.0
C1258 C 0.29629 0.92545 0.85713 0.0
H1259 H 0.31541 0.96706 0.80348 0.0
H1260 H 0.31715 0.94873 0.80118 0.0
H1261 H 0.29983 0.95323 0.81141 0.0
H1262 H 0.27758 0.94026 0.95734 0.0
H1263 H 0.25823 0.92199 0.92037 0.0
H1264 H 0.69992 0.91025 0.77809 0.0
H1265 H 0.68217 0.9241 0.80905 0.0
H1266 H 0.69209 0.91703 0.98582 0.0
H1267 H 0.71005 0.90354 0.95544 0.0
H1268 H 0.65812 0.918 0.87659 0.0
H1269 H 0.69863 0.9601 0.97815 0.0
H1270 H 0.7034 0.94659 0.93206 0.0
H1271 H 0.69868 0.94258 0.00576 0.0
C1272 C 0.69826 0.91158 0.82355 0.0
C1273 C 0.70655 0.90597 0.86426 0.0
C1274 C 0.68812 0.91949 0.84117 0.0
C1275 C 0.68605 0.92188 0.89972 0.0
C1276 C 0.6938 0.91567 0.94041 0.0
H1277 H 0.63383 0.97246 0.08486 0.0
H1278 H 0.64788 0.95447 0.05858 0.0
C1279 C 0.70402 0.9079 0.92291 0.0
C1280 C 0.67608 0.93114 0.9183 0.0
H1281 H 0.67442 0.9615 0.99334 0.0
C1282 C 0.66168 0.92752 0.90204 0.0
C1283 C 0.68076 0.9436 0.95138 0.0
C1284 C 0.69623 0.94855 0.96742 0.0
C1285 C 0.65182 0.93595 0.91849 0.0
C1286 C 0.65651 0.94833 0.95175 0.0
C1287 C 0.67086 0.95191 0.96832 0.0
C1288 C 0.64692 0.9582 0.96732 0.0
C1289 C 0.63643 0.93153 0.90059 0.0
C1290 C 0.64173 0.96619 0.92465 0.0
C1291 C 0.63382 0.97652 0.93945 0.0
C1292 C 0.63093 0.97906 -0.00268 0.0
C1293 C 0.63583 0.97075 0.03994 0.0
C1294 C 0.64386 0.96048 0.02504 0.0
H1295 H 0.63389 0.9202 0.8867 0.0
H1296 H 0.62918 0.93309 0.93628 0.0
H1297 H 0.63429 0.93828 0.86411 0.0
H1298 H 0.64417 0.96473 0.87993 0.0
H1299 H 0.63019 0.98269 0.90551 0.0
H1300 H 0.76949 0.91277 0.68311 0.0
H1301 H 0.78927 0.93093 0.64938 0.0
H1302 H 0.80206 0.94114 0.82414 0.0
H1303 H 0.78241 0.9227 0.85849 0.0
H1304 H 0.7936 0.95931 0.66977 0.0
H1305 H 0.83963 0.93739 0.75069 0.0
H1306 H 0.82176 0.92697 0.74822 0.0
H1307 H 0.82693 0.93964 0.805 0.0
C1308 C 0.77656 0.91877 0.71453 0.0
C1309 C 0.77435 0.91626 0.77359 0.0
C1310 C 0.78788 0.92916 0.69509 0.0
C1311 C 0.79725 0.93728 0.73414 0.0
C1312 C 0.79515 0.93478 0.79316 0.0
H1313 H 0.86475 0.01153 0.68854 0.0
H1314 H 0.84682 0.99204 0.72702 0.0
C1315 C 0.78386 0.92429 0.81274 0.0
C1316 C 0.8087 0.94884 0.71271 0.0
H1317 H 0.8448 0.96075 0.71107 0.0
C1318 C 0.80479 0.95958 0.67862 0.0
C1319 C 0.82331 0.94919 0.7244 0.0
C1320 C 0.82821 0.93762 0.75863 0.0
C1321 C 0.81507 0.97071 0.6562 0.0
C1322 C 0.82964 0.97105 0.66781 0.0
C1323 C 0.83359 0.96041 0.70228 0.0
C1324 C 0.8409 0.98243 0.64444 0.0
C1325 C 0.81027 0.98216 0.62084 0.0
C1326 C 0.84364 0.9833 0.58533 0.0
C1327 C 0.85391 0.99439 0.56309 0.0
C1328 C 0.8616 0.00483 0.59966 0.0
C1329 C 0.85898 0.00373 0.65907 0.0
C1330 C 0.84877 0.99259 0.68124 0.0
H1331 H 0.79864 0.98189 0.62517 0.0
H1332 H 0.81614 0.99289 0.63364 0.0
H1333 H 0.81262 0.98056 0.57497 0.0
H1334 H 0.83775 0.97545 0.55636 0.0
H1335 H 0.85568 0.99488 0.5172 0.0
H1336 H 0.86834 0.07944 0.57187 0.0
H1337 H 0.85401 0.09656 0.53905 0.0
H1338 H 0.85704 0.08219 0.365 0.0
H1339 H 0.87083 0.06473 0.39754 0.0
H1340 H 0.85866 0.11876 0.46424 0.0
H1341 H 0.81453 0.0769 0.38453 0.0
H1342 H 0.82887 0.07282 0.4278 0.0
H1343 H 0.83135 0.07599 0.35206 0.0
C1344 C 0.86601 0.07996 0.52656 0.0
C1345 C 0.87065 0.07061 0.48741 0.0
C1346 C 0.85782 0.08976 0.50788 0.0
C1347 C 0.85417 0.09044 0.44974 0.0
C1348 C 0.85936 0.08159 0.41028 0.0
H1349 H 0.80325 0.14104 0.25839 0.0
H1350 H 0.8212 0.12715 0.28691 0.0
C1351 C 0.86738 0.07168 0.42895 0.0
C1352 C 0.84471 0.10017 0.43047 0.0
H1353 H 0.81332 0.10083 0.36122 0.0
C1354 C 0.84874 0.11484 0.44185 0.0
C1355 C 0.8317 0.09502 0.40152 0.0
C1356 C 0.82627 0.07931 0.39125 0.0
C1357 C 0.84018 0.1245 0.42439 0.0
C1358 C 0.82732 0.11934 0.39487 0.0
C1359 C 0.8233 0.10473 0.38332 0.0
C1360 C 0.81746 0.12882 0.37788 0.0
C1361 C 0.84494 0.14016 0.43721 0.0
C1362 C 0.8095 0.13435 0.4197 0.0
C1363 C 0.79917 0.14215 0.40364 0.0
C1364 C 0.79665 0.14461 0.34536 0.0
C1365 C 0.80496 0.13938 0.30359 0.0
C1366 C 0.8152 0.13144 0.31976 0.0
H1367 H 0.85626 0.14276 0.45113 0.0
H1368 H 0.84356 0.14666 0.39887 0.0
H1369 H 0.83822 0.14325 0.47205 0.0
H1370 H 0.811 0.13229 0.46474 0.0
H1371 H 0.79301 0.14606 0.43692 0.0
H1372 H 0.72025 0.12809 0.33703 0.0
H1373 H 0.70065 0.10998 0.29983 0.0
H1374 H 0.71461 0.12087 0.12692 0.0
H1375 H 0.7343 0.13873 0.1634 0.0
H1376 H 0.67834 0.11219 0.22577 0.0
H1377 H 0.71326 0.07809 0.13102 0.0
H1378 H 0.71981 0.09232 0.18069 0.0
H1379 H 0.71723 0.09622 0.1064 0.0
C1380 C 0.71914 0.12664 0.29109 0.0
C1381 C 0.72895 0.13476 0.25326 0.0
C1382 C 0.70794 0.11629 0.26992 0.0
C1383 C 0.70636 0.11389 0.21066 0.0
C1384 C 0.71584 0.12229 0.17284 0.0
H1385 H 0.64693 0.05513 -0.00119 0.0
H1386 H 0.66496 0.07509 0.03397 0.0
C1387 C 0.72707 0.13256 0.19386 0.0
C1388 C 0.69481 0.10259 0.18816 0.0
H1389 H 0.68865 0.07219 0.10745 0.0
C1390 C 0.68058 0.10341 0.2001 0.0
C1391 C 0.69778 0.09115 0.15466 0.0
C1392 C 0.71284 0.08928 0.14283 0.0
C1393 C 0.66923 0.09319 0.17868 0.0
C1394 C 0.67222 0.08181 0.14496 0.0
C1395 C 0.68642 0.08101 0.13293 0.0
C1396 C 0.66079 0.07027 0.12368 0.0
C1397 C 0.65412 0.09472 0.19161 0.0
C1398 C 0.65255 0.06095 0.16254 0.0
C1399 C 0.64233 0.04953 0.14271 0.0
C1400 C 0.64014 0.04718 0.08351 0.0
C1401 C 0.64831 0.05665 0.04463 0.0
C1402 C 0.65862 0.06805 0.0646 0.0
H1403 H 0.65356 0.10569 0.20593 0.0
H1404 H 0.6472 0.09205 0.15335 0.0
H1405 H 0.6498 0.08721 0.22644 0.0
H1406 H 0.65424 0.06235 0.20828 0.0
H1407 H 0.63625 0.04246 0.17392 0.0
H1408 H 0.78932 0.64041 0.66877 0.0
H1409 H 0.80703 0.62616 0.64342 0.0
H1410 H 0.82538 0.63263 0.81238 0.0
H1411 H 0.80759 0.64694 0.83869 0.0
H1412 H 0.8455 0.63589 0.70789 0.0
H1413 H 0.80551 0.58527 0.71989 0.0
H1414 H 0.80039 0.59955 0.67967 0.0
H1415 H 0.80305 0.6014 0.75567 0.0
C1416 C 0.79715 0.63891 0.70064 0.0
C1417 C 0.79693 0.64473 0.75605 0.0
C1418 C 0.80726 0.63075 0.68596 0.0
C1419 C 0.81739 0.62827 0.7262 0.0
C1420 C 0.8176 0.63444 0.78084 0.0
H1421 H 0.86708 0.56145 0.70375 0.0
H1422 H 0.8533 0.57888 0.73721 0.0
C1423 C 0.80741 0.64258 0.79577 0.0
C1424 C 0.82732 0.61868 0.7116 0.0
H1425 H 0.82821 0.58385 0.68259 0.0
C1426 C 0.84179 0.6245 0.7026 0.0
C1427 C 0.8224 0.60384 0.70521 0.0
C1428 C 0.80701 0.59705 0.71596 0.0
C1429 C 0.85144 0.61583 0.68605 0.0
C1430 C 0.84642 0.60104 0.67813 0.0
C1431 C 0.83201 0.59521 0.68841 0.0
C1432 C 0.85586 0.59131 0.65914 0.0
C1433 C 0.86693 0.62251 0.67753 0.0
C1434 C 0.86193 0.59257 0.60412 0.0
C1435 C 0.86981 0.58258 0.58463 0.0
C1436 C 0.87172 0.57113 0.61985 0.0
C1437 C 0.86586 0.57012 0.67543 0.0
C1438 C 0.85796 0.58007 0.69471 0.0
H1439 H 0.86965 0.63324 0.69761 0.0
H1440 H 0.87395 0.61562 0.69576 0.0
H1441 H 0.86919 0.6237 0.63093 0.0
H1442 H 0.86023 0.60105 0.57566 0.0
H1443 H 0.87414 0.58367 0.5416 0.0
H1444 H 0.73493 0.63944 0.93597 0.0
H1445 H 0.71532 0.62121 0.97119 0.0
H1446 H 0.70108 0.61164 0.79771 0.0
H1447 H 0.72072 0.62987 0.76173 0.0
H1448 H 0.68462 0.61818 0.95171 0.0
H1449 H 0.70753 0.57297 0.86717 0.0
H1450 H 0.71801 0.59071 0.87566 0.0
H1451 H 0.70586 0.58675 0.81654 0.0
C1452 C 0.72762 0.63351 0.90515 0.0
C1453 C 0.72948 0.63605 0.84591 0.0
C1454 C 0.7164 0.62312 0.92546 0.0
C1455 C 0.70688 0.615 0.88702 0.0
C1456 C 0.70844 0.61771 0.82799 0.0
H1457 H 0.63888 0.54179 0.92369 0.0
H1458 H 0.6565 0.562 0.89 0.0
C1459 C 0.71964 0.62816 0.80756 0.0
C1460 C 0.69554 0.60345 0.90882 0.0
H1461 H 0.68487 0.56727 0.91067 0.0
C1462 C 0.68464 0.60703 0.94285 0.0
C1463 C 0.69568 0.58896 0.89725 0.0
C1464 C 0.70744 0.58453 0.86255 0.0
C1465 C 0.67364 0.59647 0.96472 0.0
C1466 C 0.6738 0.58194 0.95326 0.0
C1467 C 0.68477 0.5784 0.91939 0.0
C1468 C 0.66256 0.57019 0.97474 0.0
C1469 C 0.6618 0.60097 -0.00136 0.0
C1470 C 0.66007 0.56806 0.03377 0.0
C1471 C 0.64989 0.5565 0.05336 0.0
C1472 C 0.64216 0.54677 0.0142 0.0
C1473 C 0.64466 0.54902 0.95515 0.0
C1474 C 0.65474 0.56059 0.93571 0.0
H1475 H 0.6612 0.6123 0.99049 0.0
H1476 H 0.65132 0.59419 0.98813 0.0
H1477 H 0.66383 0.59981 0.04507 0.0
H1478 H 0.66621 0.57516 0.06475 0.0
H1479 H 0.64828 0.55503 0.0991 0.0
H1480 H 0.63241 0.48361 0.19561 0.0
H1481 H 0.64648 0.46592 0.22415 0.0
H1482 H 0.6493 0.45341 0.0476 0.0
H1483 H 0.63524 0.47111 0.01834 0.0
H1484 H 0.6419 0.43481 0.20095 0.0
H1485 H 0.6915 0.46631 0.10561 0.0
H1486 H 0.67607 0.47402 0.1211 0.0
H1487 H 0.67611 0.46271 0.05967 0.0
C1488 C 0.63593 0.47704 0.16276 0.0
C1489 C 0.63281 0.47888 0.10455 0.0
C1490 C 0.64393 0.46691 0.17925 0.0
C1491 C 0.64904 0.4585 0.13791 0.0
C1492 C 0.64555 0.45993 0.08004 0.0
H1493 H 0.71106 0.40333 0.15654 0.0
H1494 H 0.69297 0.41661 0.12585 0.0
C1495 C 0.63748 0.47002 0.06346 0.0
C1496 C 0.65858 0.44873 0.15524 0.0
H1497 H 0.69308 0.44422 0.14706 0.0
C1498 C 0.65309 0.43681 0.18915 0.0
C1499 C 0.67315 0.45143 0.13978 0.0
C1500 C 0.67966 0.46435 0.10489 0.0
C1501 C 0.66179 0.42736 0.20745 0.0
C1502 C 0.67643 0.43014 0.19249 0.0
C1503 C 0.68186 0.44207 0.1584 0.0
C1504 C 0.68642 0.42096 0.21181 0.0
C1505 C 0.65517 0.41436 0.24164 0.0
C1506 C 0.6887 0.41887 0.27044 0.0
C1507 C 0.69899 0.41116 0.28823 0.0
C1508 C 0.70736 0.4056 0.24765 0.0
C1509 C 0.70487 0.40752 0.18897 0.0
C1510 C 0.69452 0.41511 0.1713 0.0
H1511 H 0.64346 0.41155 0.23486 0.0
H1512 H 0.65994 0.40501 0.23009 0.0
H1513 H 0.65708 0.41661 0.28795 0.0
H1514 H 0.68283 0.42357 0.30253 0.0
H1515 H 0.70071 0.40995 0.33372 0.0
H1516 H 0.78297 0.42219 0.25078 0.0
H1517 H 0.80299 0.44059 0.28275 0.0
H1518 H 0.79106 0.43124 0.45886 0.0
H1519 H 0.77105 0.41291 0.42764 0.0
H1520 H 0.80003 0.46495 0.35682 0.0
H1521 H 0.83477 0.43035 0.45017 0.0
H1522 H 0.82102 0.42393 0.39808 0.0
H1523 H 0.81634 0.42627 0.47153 0.0
C1524 C 0.78467 0.42396 0.29633 0.0
C1525 C 0.77539 0.41608 0.33664 0.0
C1526 C 0.7961 0.43448 0.31446 0.0
C1527 C 0.79855 0.43714 0.37311 0.0
C1528 C 0.78944 0.4292 0.41341 0.0
H1529 H 0.8563 0.49552 0.5861 0.0
H1530 H 0.83854 0.47613 0.54597 0.0
C1531 C 0.77796 0.41878 0.39541 0.0
C1532 C 0.8102 0.44869 0.39247 0.0
H1533 H 0.84114 0.45514 0.46952 0.0
C1534 C 0.80911 0.46285 0.381 0.0
C1535 C 0.82191 0.44584 0.42433 0.0
C1536 C 0.82371 0.43078 0.43652 0.0
C1537 C 0.81925 0.47431 0.40205 0.0
C1538 C 0.83098 0.47148 0.43417 0.0
C1539 C 0.83214 0.45729 0.44494 0.0
C1540 C 0.842 0.48311 0.45795 0.0
C1541 C 0.81699 0.48931 0.39146 0.0
C1542 C 0.85002 0.49333 0.42171 0.0
C1543 C 0.86009 0.50451 0.44452 0.0
C1544 C 0.86249 0.50556 0.50405 0.0
C1545 C 0.85471 0.49506 0.54011 0.0
C1546 C 0.84456 0.48396 0.51724 0.0
H1547 H 0.80572 0.48952 0.38043 0.0
H1548 H 0.82002 0.49617 0.42963 0.0
H1549 H 0.82375 0.49397 0.35491 0.0
H1550 H 0.8485 0.49269 0.37571 0.0
H1551 H 0.866 0.51231 0.41542 0.0
H1552 H 0.13275 0.48628 0.39891 0.0
H1553 H 0.14602 0.46834 0.36678 0.0
H1554 H 0.14724 0.453 0.54029 0.0
H1555 H 0.13346 0.4706 0.57259 0.0
H1556 H 0.17233 0.46627 0.39655 0.0
H1557 H 0.13589 0.41594 0.45547 0.0
H1558 H 0.13025 0.43293 0.4549 0.0
H1559 H 0.14003 0.42791 0.51501 0.0
C1560 C 0.13558 0.47893 0.43019 0.0
C1561 C 0.13193 0.47984 0.48833 0.0
C1562 C 0.14322 0.46869 0.41171 0.0
C1563 C 0.14746 0.45917 0.4509 0.0
C1564 C 0.14376 0.45996 0.50894 0.0
H1565 H 0.20956 0.40472 0.44074 0.0
H1566 H 0.19167 0.41879 0.46698 0.0
C1567 C 0.13597 0.47012 0.52743 0.0
C1568 C 0.15664 0.44916 0.43153 0.0
H1569 H 0.15982 0.41411 0.43105 0.0
C1570 C 0.16949 0.45485 0.40356 0.0
C1571 C 0.15296 0.43425 0.44071 0.0
C1572 C 0.13896 0.42737 0.46765 0.0
C1573 C 0.17889 0.4461 0.38566 0.0
C1574 C 0.17534 0.43127 0.39585 0.0
C1575 C 0.16247 0.42551 0.42341 0.0
C1576 C 0.18517 0.42172 0.37974 0.0
C1577 C 0.19275 0.45277 0.35711 0.0
C1578 C 0.18719 0.4185 0.322 0.0
C1579 C 0.19737 0.41041 0.30674 0.0
C1580 C 0.20576 0.40551 0.34905 0.0
C1581 C 0.20336 0.40842 0.40702 0.0
C1582 C 0.19311 0.4164 0.42219 0.0
H1583 H 0.19475 0.46461 0.35903 0.0
H1584 H 0.20181 0.44898 0.37772 0.0
H1585 H 0.19244 0.4495 0.3114 0.0
H1586 H 0.18108 0.4225 0.28872 0.0
H1587 H 0.19893 0.40836 0.26175 0.0
H1588 H 0.28509 0.41637 0.34557 0.0
H1589 H 0.30525 0.43466 0.31372 0.0
H1590 H 0.2858 0.43542 0.14733 0.0
H1591 H 0.26571 0.41716 0.1782 0.0
H1592 H 0.32341 0.43346 0.20176 0.0
H1593 H 0.2936 0.47799 0.21938 0.0
H1594 H 0.28879 0.4617 0.26023 0.0
H1595 H 0.28463 0.46182 0.18528 0.0
C1596 C 0.28512 0.42039 0.30214 0.0
C1597 C 0.27374 0.41532 0.26453 0.0
C1598 C 0.29665 0.4308 0.28404 0.0
C1599 C 0.29691 0.43638 0.22837 0.0
C1600 C 0.28571 0.43125 0.19056 0.0
H1601 H 0.36055 0.49057 0.02192 0.0
H1602 H 0.3427 0.47102 0.06089 0.0
C1603 C 0.27426 0.4208 0.20836 0.0
C1604 C 0.3087 0.44783 0.2097 0.0
H1605 H 0.31646 0.48328 0.17689 0.0
C1606 C 0.32196 0.44437 0.19653 0.0
C1607 C 0.30672 0.46202 0.20329 0.0
C1608 C 0.29271 0.46623 0.21804 0.0
C1609 C 0.33327 0.45478 0.17592 0.0
C1610 C 0.33117 0.46892 0.16822 0.0
C1611 C 0.31799 0.4724 0.18258 0.0
C1612 C 0.3425 0.48032 0.1454 0.0
C1613 C 0.34739 0.45064 0.16285 0.0
C1614 C 0.34819 0.49204 0.17992 0.0
C1615 C 0.35837 0.50321 0.15791 0.0
C1616 C 0.36296 0.50294 0.10062 0.0
C1617 C 0.35728 0.49112 0.06619 0.0
C1618 C 0.34713 0.4799 0.08844 0.0
H1619 H 0.34819 0.44019 0.18213 0.0
H1620 H 0.3486 0.44983 0.11571 0.0
H1621 H 0.35635 0.45888 0.17891 0.0
H1622 H 0.34468 0.49258 0.22391 0.0
H1623 H 0.36248 0.51215 0.18565 0.0
H1624 H 0.30703 0.64328 0.78275 0.0
H1625 H 0.32417 0.629 0.81555 0.0
H1626 H 0.30644 0.62774 0.98591 0.0
H1627 H 0.28908 0.64173 0.95341 0.0
H1628 H 0.34496 0.63322 0.90245 0.0
H1629 H 0.30282 0.58556 0.94524 0.0
H1630 H 0.29941 0.60071 0.90514 0.0
H1631 H 0.30043 0.60144 0.98207 0.0
C1632 C 0.30682 0.64005 0.8273 0.0
C1633 C 0.29658 0.64357 0.86531 0.0
C1634 C 0.31664 0.6319 0.84597 0.0
C1635 C 0.31642 0.62712 0.9029 0.0
C1636 C 0.30661 0.63108 0.9415 0.0
H1637 H 0.37551 0.58166 0.07617 0.0
H1638 H 0.36118 0.59939 0.04943 0.0
C1639 C 0.29674 0.63916 0.92285 0.0
C1640 C 0.32611 0.61756 0.92129 0.0
H1641 H 0.3264 0.58399 0.97107 0.0
C1642 C 0.34092 0.62248 0.91767 0.0
C1643 C 0.32078 0.60349 0.94054 0.0
C1644 C 0.305 0.5974 0.94308 0.0
C1645 C 0.35053 0.6137 0.9332 0.0
C1646 C 0.34518 0.59972 0.9528 0.0
C1647 C 0.33041 0.59479 0.95638 0.0
C1648 C 0.3547 0.58974 0.9674 0.0
C1649 C 0.36635 0.61922 0.92748 0.0
C1650 C 0.3558 0.57855 0.9299 0.0
C1651 C 0.36397 0.56846 0.9448 0.0
C1652 C 0.37112 0.5693 -0.00214 0.0
C1653 C 0.37016 0.5807 0.035 0.0
C1654 C 0.36202 0.59085 0.01982 0.0
H1655 H 0.36879 0.62998 0.90763 0.0
H1656 H 0.37139 0.61978 0.97051 0.0
H1657 H 0.37123 0.61175 0.90104 0.0
H1658 H 0.35016 0.57752 0.88934 0.0
H1659 H 0.36441 0.55983 0.91518 0.0
H1660 H 0.15126 0.53417 0.65143 0.0
H1661 H 0.16911 0.5542 0.68562 0.0
H1662 H 0.15284 0.58234 0.56905 0.0
H1663 H 0.13553 0.56205 0.53203 0.0
H1664 H 0.17979 0.58881 0.56739 0.0
H1665 H 0.16471 0.58417 0.79567 0.0
H1666 H 0.1693 0.56784 0.77162 0.0
H1667 H 0.15411 0.57381 0.74102 0.0
C1668 C 0.15146 0.54465 0.63328 0.0
C1669 C 0.14197 0.54659 0.58936 0.0
C1670 C 0.16159 0.55613 0.65327 0.0
C1671 C 0.16209 0.56992 0.6313 0.0
C1672 C 0.15263 0.57185 0.58708 0.0
H1673 H 0.21506 0.64156 0.81119 0.0
H1674 H 0.19479 0.62455 0.77255 0.0
C1675 C 0.14274 0.56026 0.56594 0.0
C1676 C 0.17286 0.58216 0.65279 0.0
H1677 H 0.18812 0.59774 0.77513 0.0
C1678 C 0.18146 0.59087 0.61284 0.0
C1679 C 0.17489 0.58516 0.71204 0.0
C1680 C 0.16513 0.57734 0.75738 0.0
C1681 C 0.1923 0.60215 0.63043 0.0
C1682 C 0.19512 0.60434 0.68974 0.0
C1683 C 0.1862 0.59595 0.72964 0.0
C1684 C 0.20735 0.6151 0.71148 0.0
C1685 C 0.20037 0.61168 0.58499 0.0
C1686 C 0.22121 0.61544 0.69054 0.0
C1687 C 0.23271 0.62542 0.71144 0.0
C1688 C 0.23068 0.63491 0.75528 0.0
C1689 C 0.21692 0.63434 0.77742 0.0
C1690 C 0.20534 0.62462 0.75535 0.0
H1691 H 0.19369 0.61206 0.54622 0.0
H1692 H 0.20398 0.62275 0.60088 0.0
H1693 H 0.20984 0.60734 0.57166 0.0
H1694 H 0.22321 0.60787 0.65847 0.0
H1695 H 0.24326 0.62548 0.69423 0.0
H1696 H 0.45098 0.05418 0.01662 0.0
H1697 H 0.47571 0.05059 0.00815 0.0
H1698 H 0.4629 0.00768 0.07218 0.0
H1699 H 0.43821 0.01122 0.08028 0.0
H1700 H 0.49276 0.04222 0.10237 0.0
H1701 H 0.48541 0.00372 0.92104 0.0
H1702 H 0.47295 0.01528 0.93622 0.0
H1703 H 0.4729 0.99966 0.97909 0.0
C1704 C 0.45349 0.04398 0.02846 0.0
C1705 C 0.44281 0.033 0.0494 0.0
C1706 C 0.46756 0.04195 0.02375 0.0
C1707 C 0.47107 0.02884 0.03912 0.0
C1708 C 0.46036 0.01782 0.05952 0.0
H1709 H 0.54855 0.99418 0.0482 0.0
H1710 H 0.5239 0.99811 0.05189 0.0
C1711 C 0.44633 0.01987 0.06454 0.0
C1712 C 0.48602 0.02682 0.03578 0.0
H1713 H 0.50779 0.0076 0.96814 0.0
C1714 C 0.4961 0.03473 0.07283 0.0
C1715 C 0.49025 0.01695 -0.00255 0.0
C1716 C 0.47987 0.00847 0.95579 0.0
C1717 C 0.51031 0.03282 0.07343 0.0
C1718 C 0.51459 0.02299 0.03486 0.0
C1719 C 0.50449 0.01512 -0.00236 0.0
C1720 C 0.52949 0.02066 0.0326 0.0
C1721 C 0.52049 0.04105 0.11648 0.0
C1722 C 0.54077 0.032 0.01994 0.0
C1723 C 0.5548 0.02978 0.01835 0.0
C1724 C 0.55776 0.01615 0.02846 0.0
C1725 C 0.54648 0.00478 0.04039 0.0
C1726 C 0.53245 0.00701 0.04232 0.0
H1727 H 0.51473 0.04491 0.15282 0.0
H1728 H 0.52786 0.03441 0.13386 0.0
H1729 H 0.52696 0.05051 0.09518 0.0
H1730 H 0.53872 0.04255 0.01118 0.0
H1731 H 0.56337 0.03873 0.00957 0.0
H1732 H 0.22035 0.32334 0.29098 0.0
H1733 H 0.22405 0.29861 0.28513 0.0
H1734 H 0.26883 0.31302 0.32041 0.0
H1735 H 0.26513 0.3377 0.32627 0.0
H1736 H 0.24234 0.28733 0.21067 0.0
H1737 H 0.25671 0.28115 0.43878 0.0
H1738 H 0.2482 0.2954 0.41437 0.0
H1739 H 0.26701 0.29646 0.40361 0.0
C1740 C 0.23095 0.32115 0.2977 0.0
C1741 C 0.24243 0.33229 0.30976 0.0
C1742 C 0.23305 0.30709 0.29436 0.0
C1743 C 0.24667 0.30398 0.30327 0.0
C1744 C 0.25818 0.31516 0.31469 0.0
H1745 H 0.28136 0.22625 0.29873 0.0
H1746 H 0.27789 0.25107 0.30276 0.0
C1747 C 0.25608 0.32921 0.31798 0.0
C1748 C 0.2489 0.28908 0.29911 0.0
H1749 H 0.25976 0.26257 0.37532 0.0
C1750 C 0.24609 0.28188 0.24669 0.0
C1751 C 0.25383 0.28204 0.34617 0.0
C1752 C 0.2565 0.28909 0.4041 0.0
C1753 C 0.2483 0.26786 0.23977 0.0
C1754 C 0.25321 0.26081 0.28686 0.0
C1755 C 0.25603 0.26803 0.33926 0.0
C1756 C 0.25535 0.24588 0.28292 0.0
C1757 C 0.24566 0.26084 0.18179 0.0
C1758 C 0.24382 0.23476 0.27094 0.0
C1759 C 0.24579 0.22065 0.26865 0.0
C1760 C 0.25932 0.21744 0.27863 0.0
C1761 C 0.27084 0.22853 0.29087 0.0
C1762 C 0.26887 0.24265 0.29314 0.0
H1763 H 0.24566 0.26881 0.14709 0.0
H1764 H 0.25385 0.25437 0.17182 0.0
H1765 H 0.23506 0.25363 0.18192 0.0
H1766 H 0.23323 0.23698 0.26424 0.0
H1767 H 0.23672 0.21222 0.26004 0.0
H1768 H 0.04873 0.99329 0.55002 0.0
H1769 H 0.02417 0.99747 0.54405 0.0
H1770 H 0.03943 0.04224 0.57712 0.0
H1771 H 0.06396 0.03811 0.58201 0.0
H1772 H 0.00849 0.00928 0.62875 0.0
H1773 H 0.01546 0.04205 0.43038 0.0
H1774 H 0.02804 0.03118 0.45225 0.0
H1775 H 0.02822 0.04813 0.48591 0.0
C1776 C 0.04677 0.00401 0.55574 0.0
C1777 C 0.05813 0.01539 0.56648 0.0
C1778 C 0.0328 0.00638 0.55248 0.0
C1779 C 0.03002 0.02019 0.55942 0.0
C1780 C 0.04137 0.03155 0.5707 0.0
H1781 H 0.95339 0.0567 0.55544 0.0
H1782 H 0.97793 0.05252 0.56249 0.0
C1783 C 0.05533 0.02917 0.574 0.0
C1784 C 0.01522 0.0227 0.55584 0.0
H1785 H 0.99361 0.04064 0.48029 0.0
C1786 C 0.0052 0.01608 0.59617 0.0
C1787 C 0.011 0.03161 0.51336 0.0
C1788 C 0.02119 0.03857 0.46765 0.0
C1789 C 0.9911 0.01833 0.59577 0.0
C1790 C 0.98687 0.02722 0.55323 0.0
C1791 C 0.9969 0.03385 0.51291 0.0
C1792 C 0.97206 0.02971 0.54948 0.0
C1793 C 0.98094 0.01141 0.64165 0.0
C1794 C 0.96068 0.0183 0.53923 0.0
C1795 C 0.94673 0.02067 0.53544 0.0
C1796 C 0.94395 0.03451 0.54127 0.0
C1797 C 0.95532 0.04594 0.55103 0.0
C1798 C 0.96929 0.04357 0.55489 0.0
H1799 H 0.98671 0.00814 0.67922 0.0
H1800 H 0.97396 0.01873 0.65651 0.0
H1801 H 0.97405 0.0017 0.62381 0.0
H1802 H 0.96261 0.00756 0.53388 0.0
H1803 H 0.93809 0.01169 0.52822 0.0
H1804 H 0.25257 0.71523 0.72426 0.0
H1805 H 0.24886 0.7399 0.71948 0.0
H1806 H 0.26767 0.74805 0.88726 0.0
H1807 H 0.27174 0.72348 0.89142 0.0
H1808 H 0.23266 0.75313 0.79432 0.0
H1809 H 0.28916 0.78134 0.79194 0.0
H1810 H 0.28396 0.76249 0.77743 0.0
H1811 H 0.28475 0.76893 0.85 0.0
C1812 C 0.25613 0.72238 0.75961 0.0
C1813 C 0.26255 0.71755 0.808 0.0
C1814 C 0.25392 0.73642 0.75703 0.0
C1815 C 0.25816 0.74585 0.80267 0.0
C1816 C 0.26457 0.74103 0.85109 0.0
H1817 H 0.25114 0.83303 0.87865 0.0
H1818 H 0.25517 0.80845 0.88102 0.0
C1819 C 0.26679 0.72699 0.85365 0.0
C1820 C 0.25536 0.76058 0.80051 0.0
H1821 H 0.27162 0.79566 0.80439 0.0
C1822 C 0.24117 0.76244 0.79619 0.0
C1823 C 0.26649 0.77268 0.80307 0.0
C1824 C 0.28196 0.77132 0.80534 0.0
C1825 C 0.23779 0.77611 0.79548 0.0
C1826 C 0.24893 0.78821 0.79824 0.0
C1827 C 0.26311 0.78635 0.8024 0.0
C1828 C 0.24609 0.80293 0.79712 0.0
C1829 C 0.22233 0.77748 0.79314 0.0
C1830 C 0.23972 0.80797 0.74905 0.0
C1831 C 0.23733 0.82196 0.74785 0.0
C1832 C 0.24134 0.83112 0.79455 0.0
C1833 C 0.24776 0.82609 0.8425 0.0
C1834 C 0.25015 0.81211 0.84371 0.0
H1835 H 0.2151 0.76739 0.80558 0.0
H1836 H 0.22029 0.78616 0.82182 0.0
H1837 H 0.21962 0.78013 0.74869 0.0
H1838 H 0.23675 0.80114 0.71222 0.0
H1839 H 0.23239 0.82564 0.7104 0.0
H1840 H 0.73787 0.71294 0.77739 0.0
H1841 H 0.73419 0.73767 0.78065 0.0
H1842 H 0.77928 0.75237 0.80806 0.0
H1843 H 0.78299 0.72765 0.80355 0.0
H1844 H 0.74049 0.75713 0.87077 0.0
H1845 H 0.77061 0.77722 0.67436 0.0
H1846 H 0.76511 0.75843 0.68956 0.0
H1847 H 0.78049 0.76867 0.72458 0.0
C1848 C 0.74698 0.72151 0.7833 0.0
C1849 C 0.76072 0.71852 0.78948 0.0
C1850 C 0.74488 0.73558 0.78546 0.0
C1851 C 0.75649 0.74686 0.79368 0.0
C1852 C 0.77022 0.74385 0.80045 0.0
H1853 H 0.76607 0.83851 0.83165 0.0
H1854 H 0.76954 0.81373 0.82613 0.0
C1855 C 0.77232 0.72977 0.79825 0.0
C1856 C 0.75416 0.76174 0.79703 0.0
H1857 H 0.76308 0.79451 0.73405 0.0
C1858 C 0.74536 0.7653 0.84073 0.0
C1859 C 0.76055 0.77235 0.75779 0.0
C1860 C 0.76962 0.76899 0.70858 0.0
C1861 C 0.74299 0.77928 0.84693 0.0
C1862 C 0.74942 0.7899 0.80779 0.0
C1863 C 0.75819 0.78633 0.76403 0.0
C1864 C 0.74723 0.80481 0.81168 0.0
C1865 C 0.73391 0.78264 0.89609 0.0
C1866 C 0.73357 0.80799 0.80476 0.0
C1867 C 0.73159 0.82209 0.80821 0.0
C1868 C 0.74324 0.8332 0.81847 0.0
C1869 C 0.75692 0.83005 0.8246 0.0
C1870 C 0.7589 0.81596 0.82115 0.0
H1871 H 0.73273 0.77431 0.92996 0.0
H1872 H 0.73854 0.79311 0.91562 0.0
H1873 H 0.72311 0.78319 0.87987 0.0
H1874 H 0.72447 0.79958 0.79627 0.0
H1875 H 0.72097 0.82434 0.80293 0.0
H1876 H 0.76953 0.22297 0.39304 0.0
H1877 H 0.76561 0.24764 0.3918 0.0
H1878 H 0.74548 0.2403 0.22608 0.0
H1879 H 0.74909 0.21559 0.22784 0.0
H1880 H 0.77548 0.26909 0.30942 0.0
H1881 H 0.71634 0.25695 0.32128 0.0
H1882 H 0.72715 0.24397 0.33861 0.0
H1883 H 0.72374 0.24778 0.26503 0.0
C1884 C 0.76419 0.22664 0.35663 0.0
C1885 C 0.75964 0.21745 0.31047 0.0
C1886 C 0.762 0.2407 0.35585 0.0
C1887 C 0.7551 0.24573 0.30916 0.0
C1888 C 0.75062 0.23656 0.26292 0.0
H1889 H 0.73314 0.32663 0.21411 0.0
H1890 H 0.73678 0.30189 0.21837 0.0
C1891 C 0.75282 0.22252 0.26366 0.0
C1892 C 0.75291 0.26066 0.30807 0.0
H1893 H 0.72718 0.28098 0.30153 0.0
C1894 C 0.76493 0.27172 0.30806 0.0
C1895 C 0.73913 0.26401 0.30611 0.0
C1896 C 0.72583 0.25257 0.30826 0.0
C1897 C 0.76355 0.28607 0.30491 0.0
C1898 C 0.74976 0.28942 0.3028 0.0
C1899 C 0.73774 0.27836 0.30303 0.0
C1900 C 0.74758 0.30436 0.30039 0.0
C1901 C 0.77686 0.29749 0.30243 0.0
C1902 C 0.75229 0.31386 0.34535 0.0
C1903 C 0.75029 0.32796 0.3428 0.0
C1904 C 0.74341 0.33274 0.29551 0.0
C1905 C 0.73855 0.32319 0.25084 0.0
C1906 C 0.74057 0.30908 0.25335 0.0
H1907 H 0.78633 0.29307 0.2895 0.0
H1908 H 0.77554 0.30605 0.27184 0.0
H1909 H 0.77898 0.30235 0.34553 0.0
H1910 H 0.75751 0.31037 0.38248 0.0
H1911 H 0.75425 0.33517 0.37752 0.0
H1912 H 0.95102 0.54491 0.64674 0.0
H1913 H 0.97564 0.54091 0.64173 0.0
H1914 H 0.96722 0.52222 0.47386 0.0
H1915 H 0.94267 0.52622 0.47881 0.0
H1916 H 0.98492 0.51511 0.62841 0.0
H1917 H 0.00362 0.55188 0.44812 0.0
H1918 H 0.9874 0.5524 0.48708 0.0
H1919 H 0.98769 0.53909 0.43277 0.0
C1920 C 0.95449 0.54 0.60879 0.0
C1921 C 0.94506 0.53598 0.56294 0.0
C1922 C 0.96851 0.53773 0.60592 0.0
C1923 C 0.97332 0.53149 0.55702 0.0
C1924 C 0.96384 0.52737 0.51138 0.0
H1925 H 0.05259 0.50597 0.45967 0.0
H1926 H 0.028 0.51001 0.46508 0.0
C1927 C 0.94984 0.52964 0.51425 0.0
C1928 C 0.9881 0.52885 0.55446 0.0
H1929 H 0.01903 0.53643 0.47743 0.0
C1930 C 0.99241 0.51983 0.59563 0.0
C1931 C 0.99782 0.53499 0.51151 0.0
C1932 C 0.99398 0.54523 0.46764 0.0
C1933 C 0.00614 0.51658 0.5944 0.0
C1934 C 0.01584 0.52269 0.55136 0.0
C1935 C 0.01153 0.53172 0.51023 0.0
C1936 C 0.0306 0.52001 0.54868 0.0
C1937 C 0.01004 0.50641 0.63843 0.0
C1938 C 0.04021 0.52442 0.59359 0.0
C1939 C 0.05421 0.52217 0.59045 0.0
C1940 C 0.05884 0.51551 0.54225 0.0
C1941 C 0.04925 0.51115 0.4972 0.0
C1942 C 0.03524 0.51343 0.50031 0.0
H1943 H 1.00043 0.49992 0.65885 0.0
H1944 H 0.01643 0.49909 0.61879 0.0
H1945 H 0.01656 0.51259 0.67259 0.0
H1946 H 0.03693 0.5298 0.63071 0.0
H1947 H 0.06149 0.52587 0.62524 0.0
H1948 H 0.45427 0.55577 0.05019 0.0
H1949 H 0.47901 0.55203 0.05208 0.0
H1950 H 0.46427 0.50737 0.01513 0.0
H1951 H 0.43957 0.5111 0.01342 0.0
H1952 H 0.4905 0.53327 0.12427 0.0
H1953 H 0.4956 0.51989 0.89443 0.0
H1954 H 0.48157 0.52843 0.9208 0.0
H1955 H 0.48039 0.50956 0.93011 0.0
C1956 C 0.45638 0.54519 0.04231 0.0
C1957 C 0.44512 0.53373 0.03122 0.0
C1958 C 0.47046 0.54306 0.04331 0.0
C1959 C 0.47347 0.52947 0.03287 0.0
C1960 C 0.4622 0.518 0.02204 0.0
H1961 H 0.55066 0.49388 0.03153 0.0
H1962 H 0.526 0.49781 0.02604 0.0
C1963 C 0.44813 0.52013 0.02115 0.0
C1964 C 0.48836 0.52717 0.03539 0.0
H1965 H 0.51443 0.51645 0.956 0.0
C1966 C 0.49578 0.52967 0.08744 0.0
C1967 C 0.49515 0.5224 0.98731 0.0
C1968 C 0.48784 0.52002 0.92981 0.0
C1969 C 0.50977 0.5273 0.09302 0.0
C1970 C 0.51659 0.52257 0.04488 0.0
C1971 C 0.50916 0.52006 0.99282 0.0
C1972 C 0.53147 0.52024 0.04764 0.0
C1973 C 0.51699 0.52957 0.15073 0.0
C1974 C 0.5427 0.5316 0.06054 0.0
C1975 C 0.5567 0.52935 0.06375 0.0
C1976 C 0.55969 0.51573 0.05394 0.0
C1977 C 0.54853 0.50444 0.03967 0.0
C1978 C 0.53451 0.50668 0.03652 0.0
H1979 H 0.50916 0.52945 0.18602 0.0
H1980 H 0.52339 0.52124 0.1594 0.0
H1981 H 0.52429 0.54011 0.15116 0.0
H1982 H 0.54064 0.54222 0.06781 0.0
H1983 H 0.56522 0.53826 0.07358 0.0
loop_
_geom_bond_atom_site_label_1
_geom_bond_atom_site_label_2
_geom_bond_distance
_geom_bond_site_symmetry_2
_ccdc_geom_bond_type
Co0 O3 1.970 . S
Co0 N17 1.989 . S
Co0 O25 1.967 . S
Co0 O32 1.920 1_554 S
Co1 O4 1.966 . S
Co1 N10 2.022 . S
Co1 N18 1.993 . S
Co1 O26 1.941 . S
C2 O3 1.258 . S
C2 O4 1.263 . S
O3 Co0 1.970 . S
O3 C2 1.258 . S
O4 Co1 1.966 . S
O4 C2 1.263 . S
C5 O6 1.235 . S
C5 O32 1.289 . S
O6 C5 1.235 . S
C7 C9 1.400 . S
C7 N10 1.351 . S
C7 C12 1.501 . S
C8 C9 1.387 . S
C8 N11 1.341 . S
C9 C7 1.400 . S
C9 C8 1.387 . S
N10 Co1 2.022 . S
N10 C7 1.351 . S
N10 N11 1.365 . S
N11 C8 1.341 . S
N11 N10 1.365 . S
N11 H31 0.862 . S
C12 C7 1.501 . S
C12 H13 0.961 . S
C12 H14 0.961 . S
C12 H15 0.960 . S
H13 C12 0.961 . S
H14 C12 0.961 . S
H15 C12 0.960 . S
C16 N17 1.342 . S
C16 C20 1.401 . S
C16 C21 1.499 1_554 S
N17 Co0 1.989 . S
N17 C16 1.342 . S
N17 N18 1.388 . S
N18 Co1 1.993 . S
N18 N17 1.388 . S
N18 C19 1.346 . S
C19 N18 1.346 . S
C19 C20 1.396 . S
C19 C29 1.510 . S
C20 C16 1.401 . S
C20 C19 1.396 . S
C21 C16 1.499 1_556 S
C21 H22 0.959 . S
C21 H23 0.960 . S
C21 H24 0.961 . S
H22 C21 0.959 . S
H23 C21 0.960 . S
H24 C21 0.961 . S
O25 Co0 1.967 . S
O25 C33 1.258 . S
O26 Co1 1.941 . S
O26 C33 1.266 . S
H27 C29 0.959 . S
H28 C29 0.961 . S
C29 C19 1.510 . S
C29 H27 0.959 . S
C29 H28 0.961 . S
C29 H30 0.960 . S
H30 C29 0.960 . S
H31 N11 0.862 . S
O32 Co0 1.920 1_556 S
O32 C5 1.289 . S
C33 O25 1.258 . S
C33 O26 1.266 . S
Co34 O37 1.970 . S
Co34 N51 1.989 . S
Co34 O59 1.967 . S
Co34 O66 1.920 . S
Co35 O38 1.966 . S
Co35 N44 2.022 . S
Co35 N52 1.993 . S
Co35 O60 1.941 . S
C36 O37 1.258 . S
C36 O38 1.263 . S
O37 Co34 1.970 . S
O37 C36 1.258 . S
O38 Co35 1.966 . S
O38 C36 1.263 . S
C39 O40 1.235 . S
C39 O66 1.289 . S
O40 C39 1.235 . S
C41 C43 1.400 . S
C41 N44 1.351 . S
C41 C46 1.501 . S
C42 C43 1.387 . S
C42 N45 1.341 . S
C43 C41 1.400 . S
C43 C42 1.387 . S
N44 Co35 2.022 . S
N44 C41 1.351 . S
N44 N45 1.365 . S
N45 C42 1.341 . S
N45 N44 1.365 . S
N45 H65 0.862 . S
C46 C41 1.501 . S
C46 H47 0.961 . S
C46 H48 0.961 . S
C46 H49 0.960 . S
H47 C46 0.961 . S
H48 C46 0.961 . S
H49 C46 0.960 . S
C50 N51 1.342 . S
C50 C54 1.401 . S
C50 C55 1.499 . S
N51 Co34 1.989 . S
N51 C50 1.342 . S
N51 N52 1.388 . S
N52 Co35 1.993 . S
N52 N51 1.388 . S
N52 C53 1.346 . S
C53 N52 1.346 . S
C53 C54 1.396 . S
C53 C63 1.510 . S
C54 C50 1.401 . S
C54 C53 1.396 . S
C55 C50 1.499 . S
C55 H56 0.959 . S
C55 H57 0.960 . S
C55 H58 0.961 . S
H56 C55 0.959 . S
H57 C55 0.960 . S
H58 C55 0.961 . S
O59 Co34 1.967 . S
O59 C67 1.258 . S
O60 Co35 1.941 . S
O60 C67 1.266 . S
H61 C63 0.959 . S
H62 C63 0.961 . S
C63 C53 1.510 . S
C63 H61 0.959 . S
C63 H62 0.961 . S
C63 H64 0.960 . S
H64 C63 0.960 . S
H65 N45 0.862 . S
O66 Co34 1.920 . S
O66 C39 1.289 . S
C67 O59 1.258 . S
C67 O60 1.266 . S
Co68 O71 1.970 1_545 S
Co68 N85 1.989 . S
Co68 O93 1.967 . S
Co68 O100 1.920 . S
Co69 O72 2.002 . S
Co69 N78 2.022 . S
Co69 N86 1.993 . S
Co69 O94 1.941 . S
C70 O71 1.258 . S
C70 O72 1.239 1_565 S
O71 Co68 1.970 1_565 S
O71 C70 1.258 . S
O72 Co69 2.002 . S
O72 C70 1.239 1_545 S
C73 O74 1.235 . S
C73 O100 1.289 1_565 S
O74 C73 1.235 . S
C75 C77 1.400 . S
C75 N78 1.351 . S
C75 C80 1.501 1_545 S
C76 C77 1.387 . S
C76 N79 1.341 . S
C77 C75 1.400 . S
C77 C76 1.387 . S
N78 Co69 2.022 . S
N78 C75 1.351 . S
N78 N79 1.365 . S
N79 C76 1.341 . S
N79 N78 1.365 . S
N79 H99 0.862 . S
C80 C75 1.501 1_565 S
C80 H81 0.961 . S
C80 H82 0.961 . S
C80 H83 0.960 . S
H81 C80 0.961 . S
H82 C80 0.961 . S
H83 C80 0.960 . S
C84 N85 1.342 . S
C84 C88 1.401 . S
C84 C89 1.499 . S
N85 Co68 1.989 . S
N85 C84 1.342 . S
N85 N86 1.388 . S
N86 Co69 1.993 . S
N86 N85 1.388 . S
N86 C87 1.346 . S
C87 N86 1.346 . S
C87 C88 1.396 . S
C87 C97 1.510 . S
C88 C84 1.401 . S
C88 C87 1.396 . S
C89 C84 1.499 . S
C89 H90 0.959 . S
C89 H91 0.960 . S
C89 H92 0.961 . S
H90 C89 0.959 . S
H91 C89 0.960 . S
H92 C89 0.961 . S
O93 Co68 1.967 . S
O93 C101 1.258 . S
O94 Co69 1.941 . S
O94 C101 1.266 . S
H95 C97 0.959 . S
H96 C97 0.961 . S
C97 C87 1.510 . S
C97 H95 0.959 . S
C97 H96 0.961 . S
C97 H98 0.960 . S
H98 C97 0.960 . S
H99 N79 0.862 . S
O100 Co68 1.920 . S
O100 C73 1.289 1_545 S
C101 O93 1.258 . S
C101 O94 1.266 . S
Co102 O105 1.970 . S
Co102 N119 1.989 . S
Co102 O127 1.967 . S
Co102 O134 1.920 . S
Co103 O106 1.966 . S
Co103 N112 2.022 . S
Co103 N120 1.993 . S
Co103 O128 1.941 . S
C104 O105 1.258 . S
C104 O106 1.263 . S
O105 Co102 1.970 . S
O105 C104 1.258 . S
O106 Co103 1.966 . S
O106 C104 1.263 . S
C107 O108 1.235 . S
C107 O134 1.289 . S
O108 C107 1.235 . S
C109 C111 1.400 . S
C109 N112 1.351 . S
C109 C114 1.501 . S
C110 C111 1.387 . S
C110 N113 1.341 . S
C111 C109 1.400 . S
C111 C110 1.387 . S
N112 Co103 2.022 . S
N112 C109 1.351 . S
N112 N113 1.365 . S
N113 C110 1.341 . S
N113 N112 1.365 . S
N113 H133 0.862 . S
C114 C109 1.501 . S
C114 H115 0.961 . S
C114 H116 0.961 . S
C114 H117 0.960 . S
H115 C114 0.961 . S
H116 C114 0.961 . S
H117 C114 0.960 . S
C118 N119 1.342 . S
C118 C122 1.401 . S
C118 C123 1.499 . S
N119 Co102 1.989 . S
N119 C118 1.342 . S
N119 N120 1.388 . S
N120 Co103 1.993 . S
N120 N119 1.388 . S
N120 C121 1.346 . S
C121 N120 1.346 . S
C121 C122 1.396 . S
C121 C131 1.510 . S
C122 C118 1.401 . S
C122 C121 1.396 . S
C123 C118 1.499 . S
C123 H124 0.959 . S
C123 H125 0.960 . S
C123 H126 0.961 . S
H124 C123 0.959 . S
H125 C123 0.960 . S
H126 C123 0.961 . S
O127 Co102 1.967 . S
O127 C135 1.258 . S
O128 Co103 1.941 . S
O128 C135 1.266 . S
H129 C131 0.959 . S
H130 C131 0.961 . S
C131 C121 1.510 . S
C131 H129 0.959 . S
C131 H130 0.961 . S
C131 H132 0.960 . S
H132 C131 0.960 . S
H133 N113 0.862 . S
O134 Co102 1.920 . S
O134 C107 1.289 . S
C135 O127 1.258 . S
C135 O128 1.266 . S
Co136 O139 1.970 1_545 S
Co136 N153 1.989 . S
Co136 O161 1.967 . S
Co136 O168 1.920 . S
Co137 O140 2.003 . S
Co137 N146 2.022 . S
Co137 N154 1.993 1_556 S
Co137 O162 1.941 . S
C138 O139 1.258 . S
C138 O140 1.238 1_564 S
O139 Co136 1.970 1_565 S
O139 C138 1.258 . S
O140 Co137 2.003 . S
O140 C138 1.238 1_546 S
C141 O142 1.235 . S
C141 O168 1.289 1_565 S
O142 C141 1.235 . S
C143 C145 1.400 . S
C143 N146 1.351 . S
C143 C148 1.501 1_545 S
C144 C145 1.387 . S
C144 N147 1.341 . S
C145 C143 1.400 . S
C145 C144 1.387 . S
N146 Co137 2.022 . S
N146 C143 1.351 . S
N146 N147 1.365 . S
N147 C144 1.341 . S
N147 N146 1.365 . S
N147 H167 0.862 . S
C148 C143 1.501 1_565 S
C148 H149 0.961 . S
C148 H150 0.961 . S
C148 H151 0.960 . S
H149 C148 0.961 . S
H150 C148 0.961 . S
H151 C148 0.960 . S
C152 N153 1.342 . S
C152 C156 1.401 . S
C152 C157 1.499 . S
N153 Co136 1.989 . S
N153 C152 1.342 . S
N153 N154 1.388 . S
N154 Co137 1.993 1_554 S
N154 N153 1.388 . S
N154 C155 1.346 1_554 S
C155 N154 1.346 1_556 S
C155 C156 1.396 1_556 S
C155 C165 1.510 . S
C156 C152 1.401 . S
C156 C155 1.396 1_554 S
C157 C152 1.499 . S
C157 H158 0.959 . S
C157 H159 0.960 . S
C157 H160 0.961 . S
H158 C157 0.959 . S
H159 C157 0.960 . S
H160 C157 0.961 . S
O161 Co136 1.967 . S
O161 C169 1.258 . S
O162 Co137 1.941 . S
O162 C169 1.266 1_556 S
H163 C165 0.959 . S
H164 C165 0.961 . S
C165 C155 1.510 . S
C165 H163 0.959 . S
C165 H164 0.961 . S
C165 H166 0.960 . S
H166 C165 0.960 . S
H167 N147 0.862 . S
O168 Co136 1.920 . S
O168 C141 1.289 1_545 S
C169 O161 1.258 . S
C169 O162 1.266 1_554 S
Co170 O173 1.970 . S
Co170 N187 1.989 . S
Co170 O195 1.967 . S
Co170 O202 1.920 . S
Co171 O174 1.966 . S
Co171 N180 2.022 . S
Co171 N188 1.993 . S
Co171 O196 1.941 . S
C172 O173 1.258 . S
C172 O174 1.263 . S
O173 Co170 1.970 . S
O173 C172 1.258 . S
O174 Co171 1.966 . S
O174 C172 1.263 . S
C175 O176 1.235 . S
C175 O202 1.289 . S
O176 C175 1.235 . S
C177 C179 1.400 . S
C177 N180 1.351 1_554 S
C177 C182 1.501 . S
C178 C179 1.387 . S
C178 N181 1.345 . S
C179 C177 1.400 . S
C179 C178 1.387 . S
N180 Co171 2.022 . S
N180 C177 1.351 1_556 S
N180 N181 1.363 1_556 S
N181 C178 1.345 . S
N181 N180 1.363 1_554 S
N181 H201 0.859 1_554 S
C182 C177 1.501 . S
C182 H183 0.961 1_554 S
C182 H184 0.961 . S
C182 H185 0.960 . S
H183 C182 0.961 1_556 S
H184 C182 0.961 . S
H185 C182 0.960 . S
C186 N187 1.342 . S
C186 C190 1.401 . S
C186 C191 1.499 . S
N187 Co170 1.989 . S
N187 C186 1.342 . S
N187 N188 1.388 . S
N188 Co171 1.993 . S
N188 N187 1.388 . S
N188 C189 1.346 . S
C189 N188 1.346 . S
C189 C190 1.396 . S
C189 C199 1.510 . S
C190 C186 1.401 . S
C190 C189 1.396 . S
C191 C186 1.499 . S
C191 H192 0.959 . S
C191 H193 0.960 . S
C191 H194 0.961 . S
H192 C191 0.959 . S
H193 C191 0.960 . S
H194 C191 0.961 . S
O195 Co170 1.967 . S
O195 C203 1.258 . S
O196 Co171 1.941 . S
O196 C203 1.266 . S
H197 C199 0.959 . S
H198 C199 0.961 . S
C199 C189 1.510 . S
C199 H197 0.959 . S
C199 H198 0.961 . S
C199 H200 0.960 . S
H200 C199 0.960 . S
H201 N181 0.859 1_556 S
O202 Co170 1.920 . S
O202 C175 1.289 . S
C203 O195 1.258 . S
C203 O196 1.266 . S
Co204 O207 1.970 . S
Co204 N221 1.989 . S
Co204 O229 1.967 . S
Co204 O236 1.920 . S
Co205 O208 1.966 . S
Co205 N214 2.022 . S
Co205 N222 1.993 . S
Co205 O230 1.941 . S
C206 O207 1.258 . S
C206 O208 1.263 . S
O207 Co204 1.970 . S
O207 C206 1.258 . S
O208 Co205 1.966 . S
O208 C206 1.263 . S
C209 O210 1.235 . S
C209 O236 1.289 . S
O210 C209 1.235 . S
C211 C213 1.400 . S
C211 N214 1.351 . S
C211 C216 1.501 . S
C212 C213 1.387 . S
C212 N215 1.341 . S
C213 C211 1.400 . S
C213 C212 1.387 . S
N214 Co205 2.022 . S
N214 C211 1.351 . S
N214 N215 1.365 . S
N215 C212 1.341 . S
N215 N214 1.365 . S
N215 H235 0.862 . S
C216 C211 1.501 . S
C216 H217 0.961 . S
C216 H218 0.961 . S
C216 H219 0.960 . S
H217 C216 0.961 . S
H218 C216 0.961 . S
H219 C216 0.960 . S
C220 N221 1.342 . S
C220 C224 1.401 . S
C220 C225 1.499 . S
N221 Co204 1.989 . S
N221 C220 1.342 . S
N221 N222 1.388 . S
N222 Co205 1.993 . S
N222 N221 1.388 . S
N222 C223 1.346 . S
C223 N222 1.346 . S
C223 C224 1.396 . S
C223 C233 1.510 . S
C224 C220 1.401 . S
C224 C223 1.396 . S
C225 C220 1.499 . S
C225 H226 0.959 . S
C225 H227 0.960 . S
C225 H228 0.961 . S
H226 C225 0.959 . S
H227 C225 0.960 . S
H228 C225 0.961 . S
O229 Co204 1.967 . S
O229 C237 1.258 . S
O230 Co205 1.941 . S
O230 C237 1.266 . S
H231 C233 0.959 . S
H232 C233 0.961 . S
C233 C223 1.510 . S
C233 H231 0.959 . S
C233 H232 0.961 . S
C233 H234 0.960 . S
H234 C233 0.960 . S
H235 N215 0.862 . S
O236 Co204 1.920 . S
O236 C209 1.289 . S
C237 O229 1.258 . S
C237 O230 1.266 . S
Co238 O241 1.970 . S
Co238 N255 1.989 . S
Co238 O263 1.967 . S
Co238 O270 1.920 . S
Co239 O242 1.966 . S
Co239 N248 2.022 . S
Co239 N256 1.993 . S
Co239 O264 1.941 . S
C240 O241 1.258 . S
C240 O242 1.263 . S
O241 Co238 1.970 . S
O241 C240 1.258 . S
O242 Co239 1.966 . S
O242 C240 1.263 . S
C243 O244 1.235 . S
C243 O270 1.289 . S
O244 C243 1.235 . S
C245 C247 1.400 . S
C245 N248 1.351 . S
C245 C250 1.501 . S
C246 C247 1.387 . S
C246 N249 1.341 . S
C247 C245 1.400 . S
C247 C246 1.387 . S
N248 Co239 2.022 . S
N248 C245 1.351 . S
N248 N249 1.365 . S
N249 C246 1.341 . S
N249 N248 1.365 . S
N249 H269 0.862 . S
C250 C245 1.501 . S
C250 H251 0.961 . S
C250 H252 0.961 . S
C250 H253 0.960 . S
H251 C250 0.961 . S
H252 C250 0.961 . S
H253 C250 0.960 . S
C254 N255 1.342 . S
C254 C258 1.401 . S
C254 C259 1.499 . S
N255 Co238 1.989 . S
N255 C254 1.342 . S
N255 N256 1.388 . S
N256 Co239 1.993 . S
N256 N255 1.388 . S
N256 C257 1.346 . S
C257 N256 1.346 . S
C257 C258 1.396 . S
C257 C267 1.510 . S
C258 C254 1.401 . S
C258 C257 1.396 . S
C259 C254 1.499 . S
C259 H260 0.959 . S
C259 H261 0.960 . S
C259 H262 0.961 . S
H260 C259 0.959 . S
H261 C259 0.960 . S
H262 C259 0.961 . S
O263 Co238 1.967 . S
O263 C271 1.258 . S
O264 Co239 1.941 . S
O264 C271 1.266 . S
H265 C267 0.959 . S
H266 C267 0.961 . S
C267 C257 1.510 . S
C267 H265 0.959 . S
C267 H266 0.961 . S
C267 H268 0.960 . S
H268 C267 0.960 . S
H269 N249 0.862 . S
O270 Co238 1.920 . S
O270 C243 1.289 . S
C271 O263 1.258 . S
C271 O264 1.266 . S
Co272 O275 1.970 . S
Co272 N289 1.989 . S
Co272 O297 1.967 . S
Co272 O304 1.920 . S
Co273 O276 1.966 . S
Co273 N282 2.022 . S
Co273 N290 1.993 . S
Co273 O298 1.941 . S
C274 O275 1.258 . S
C274 O276 1.263 . S
O275 Co272 1.970 . S
O275 C274 1.258 . S
O276 Co273 1.966 . S
O276 C274 1.263 . S
C277 O278 1.235 . S
C277 O304 1.289 . S
O278 C277 1.235 . S
C279 C281 1.400 . S
C279 N282 1.351 . S
C279 C284 1.501 . S
C280 C281 1.387 . S
C280 N283 1.341 . S
C281 C279 1.400 . S
C281 C280 1.387 . S
N282 Co273 2.022 . S
N282 C279 1.351 . S
N282 N283 1.365 . S
N283 C280 1.341 . S
N283 N282 1.365 . S
N283 H303 0.862 . S
C284 C279 1.501 . S
C284 H285 0.961 . S
C284 H286 0.961 . S
C284 H287 0.960 . S
H285 C284 0.961 . S
H286 C284 0.961 . S
H287 C284 0.960 . S
C288 N289 1.342 . S
C288 C292 1.401 . S
C288 C293 1.499 . S
N289 Co272 1.989 . S
N289 C288 1.342 . S
N289 N290 1.388 . S
N290 Co273 1.993 . S
N290 N289 1.388 . S
N290 C291 1.346 . S
C291 N290 1.346 . S
C291 C292 1.396 . S
C291 C301 1.510 . S
C292 C288 1.401 . S
C292 C291 1.396 . S
C293 C288 1.499 . S
C293 H294 0.959 . S
C293 H295 0.960 . S
C293 H296 0.961 . S
H294 C293 0.959 . S
H295 C293 0.960 . S
H296 C293 0.961 . S
O297 Co272 1.967 . S
O297 C305 1.258 . S
O298 Co273 1.941 . S
O298 C305 1.266 . S
H299 C301 0.959 . S
H300 C301 0.961 . S
C301 C291 1.510 . S
C301 H299 0.959 . S
C301 H300 0.961 . S
C301 H302 0.960 . S
H302 C301 0.960 . S
H303 N283 0.862 . S
O304 Co272 1.920 . S
O304 C277 1.289 . S
C305 O297 1.258 . S
C305 O298 1.266 . S
Co306 O309 1.970 . S
Co306 N323 1.989 . S
Co306 O331 1.967 . S
Co306 O338 1.920 . S
Co307 O310 1.966 . S
Co307 N316 2.022 . S
Co307 N324 1.993 . S
Co307 O332 1.941 . S
C308 O309 1.258 . S
C308 O310 1.263 . S
O309 Co306 1.970 . S
O309 C308 1.258 . S
O310 Co307 1.966 . S
O310 C308 1.263 . S
C311 O312 1.235 . S
C311 O338 1.289 . S
O312 C311 1.235 . S
C313 C315 1.400 . S
C313 N316 1.351 . S
C313 C318 1.501 . S
C314 C315 1.387 . S
C314 N317 1.341 . S
C315 C313 1.400 . S
C315 C314 1.387 . S
N316 Co307 2.022 . S
N316 C313 1.351 . S
N316 N317 1.365 . S
N317 C314 1.341 . S
N317 N316 1.365 . S
N317 H337 0.862 . S
C318 C313 1.501 . S
C318 H319 0.961 . S
C318 H320 0.961 . S
C318 H321 0.960 . S
H319 C318 0.961 . S
H320 C318 0.961 . S
H321 C318 0.960 . S
C322 N323 1.342 . S
C322 C326 1.401 . S
C322 C327 1.499 . S
N323 Co306 1.989 . S
N323 C322 1.342 . S
N323 N324 1.388 . S
N324 Co307 1.993 . S
N324 N323 1.388 . S
N324 C325 1.346 . S
C325 N324 1.346 . S
C325 C326 1.396 . S
C325 C335 1.510 . S
C326 C322 1.401 . S
C326 C325 1.396 . S
C327 C322 1.499 . S
C327 H328 0.959 . S
C327 H329 0.960 . S
C327 H330 0.961 . S
H328 C327 0.959 . S
H329 C327 0.960 . S
H330 C327 0.961 . S
O331 Co306 1.967 . S
O331 C339 1.258 . S
O332 Co307 1.941 . S
O332 C339 1.266 . S
H333 C335 0.959 . S
H334 C335 0.961 . S
C335 C325 1.510 . S
C335 H333 0.959 . S
C335 H334 0.961 . S
C335 H336 0.960 . S
H336 C335 0.960 . S
H337 N317 0.862 . S
O338 Co306 1.920 . S
O338 C311 1.289 . S
C339 O331 1.258 . S
C339 O332 1.266 . S
Co340 O343 1.970 . S
Co340 N357 1.989 . S
Co340 O365 1.967 . S
Co340 O372 1.920 1_554 S
Co341 O344 1.966 . S
Co341 N350 2.022 . S
Co341 N358 1.993 . S
Co341 O366 1.941 . S
C342 O343 1.258 . S
C342 O344 1.263 . S
O343 Co340 1.970 . S
O343 C342 1.258 . S
O344 Co341 1.966 . S
O344 C342 1.263 . S
C345 O346 1.235 . S
C345 O372 1.289 . S
O346 C345 1.235 . S
C347 C349 1.400 . S
C347 N350 1.351 . S
C347 C352 1.501 . S
C348 C349 1.387 . S
C348 N351 1.341 . S
C349 C347 1.400 . S
C349 C348 1.387 . S
N350 Co341 2.022 . S
N350 C347 1.351 . S
N350 N351 1.365 . S
N351 C348 1.341 . S
N351 N350 1.365 . S
N351 H371 0.862 . S
C352 C347 1.501 . S
C352 H353 0.961 . S
C352 H354 0.961 . S
C352 H355 0.960 . S
H353 C352 0.961 . S
H354 C352 0.961 . S
H355 C352 0.960 . S
C356 N357 1.342 . S
C356 C360 1.401 . S
C356 C361 1.499 1_554 S
N357 Co340 1.989 . S
N357 C356 1.342 . S
N357 N358 1.388 . S
N358 Co341 1.993 . S
N358 N357 1.388 . S
N358 C359 1.346 . S
C359 N358 1.346 . S
C359 C360 1.396 . S
C359 C369 1.510 . S
C360 C356 1.401 . S
C360 C359 1.396 . S
C361 C356 1.499 1_556 S
C361 H362 0.959 . S
C361 H363 0.960 . S
C361 H364 0.961 . S
H362 C361 0.959 . S
H363 C361 0.960 . S
H364 C361 0.961 . S
O365 Co340 1.967 . S
O365 C373 1.258 . S
O366 Co341 1.941 . S
O366 C373 1.266 . S
H367 C369 0.959 . S
H368 C369 0.961 . S
C369 C359 1.510 . S
C369 H367 0.959 . S
C369 H368 0.961 . S
C369 H370 0.960 . S
H370 C369 0.960 . S
H371 N351 0.862 . S
O372 Co340 1.920 1_556 S
O372 C345 1.289 . S
C373 O365 1.258 . S
C373 O366 1.266 . S
Co374 O377 1.970 . S
Co374 N391 1.989 . S
Co374 O399 1.967 . S
Co374 O406 1.920 . S
Co375 O378 1.966 . S
Co375 N384 2.022 . S
Co375 N392 1.993 . S
Co375 O400 1.941 . S
C376 O377 1.258 . S
C376 O378 1.263 . S
O377 Co374 1.970 . S
O377 C376 1.258 . S
O378 Co375 1.966 . S
O378 C376 1.263 . S
C379 O380 1.235 . S
C379 O406 1.289 . S
O380 C379 1.235 . S
C381 C383 1.400 . S
C381 N384 1.351 . S
C381 C386 1.501 . S
C382 C383 1.387 . S
C382 N385 1.341 . S
C383 C381 1.400 . S
C383 C382 1.387 . S
N384 Co375 2.022 . S
N384 C381 1.351 . S
N384 N385 1.365 . S
N385 C382 1.341 . S
N385 N384 1.365 . S
N385 H405 0.862 . S
C386 C381 1.501 . S
C386 H387 0.961 . S
C386 H388 0.961 . S
C386 H389 0.960 . S
H387 C386 0.961 . S
H388 C386 0.961 . S
H389 C386 0.960 . S
C390 N391 1.342 . S
C390 C394 1.401 . S
C390 C395 1.499 . S
N391 Co374 1.989 . S
N391 C390 1.342 . S
N391 N392 1.388 . S
N392 Co375 1.993 . S
N392 N391 1.388 . S
N392 C393 1.346 . S
C393 N392 1.346 . S
C393 C394 1.396 . S
C393 C403 1.510 . S
C394 C390 1.401 . S
C394 C393 1.396 . S
C395 C390 1.499 . S
C395 H396 0.959 . S
C395 H397 0.960 . S
C395 H398 0.961 . S
H396 C395 0.959 . S
H397 C395 0.960 . S
H398 C395 0.961 . S
O399 Co374 1.967 . S
O399 C407 1.258 . S
O400 Co375 1.941 . S
O400 C407 1.266 . S
H401 C403 0.959 . S
H402 C403 0.961 . S
C403 C393 1.510 . S
C403 H401 0.959 . S
C403 H402 0.961 . S
C403 H404 0.960 . S
H404 C403 0.960 . S
H405 N385 0.862 . S
O406 Co374 1.920 . S
O406 C379 1.289 . S
C407 O399 1.258 . S
C407 O400 1.266 . S
Co408 O411 1.970 . S
Co408 N425 1.989 . S
Co408 O433 1.967 . S
Co408 O440 1.920 . S
Co409 O412 1.966 . S
Co409 N418 2.022 . S
Co409 N426 1.993 . S
Co409 O434 1.941 . S
C410 O411 1.258 . S
C410 O412 1.263 . S
O411 Co408 1.970 . S
O411 C410 1.258 . S
O412 Co409 1.966 . S
O412 C410 1.263 . S
C413 O414 1.235 . S
C413 O440 1.289 . S
O414 C413 1.235 . S
C415 C417 1.400 . S
C415 N418 1.351 . S
C415 C420 1.501 . S
C416 C417 1.387 . S
C416 N419 1.341 . S
C417 C415 1.400 . S
C417 C416 1.387 . S
N418 Co409 2.022 . S
N418 C415 1.351 . S
N418 N419 1.365 . S
N419 C416 1.341 . S
N419 N418 1.365 . S
N419 H439 0.862 . S
C420 C415 1.501 . S
C420 H421 0.961 . S
C420 H422 0.961 . S
C420 H423 0.960 . S
H421 C420 0.961 . S
H422 C420 0.961 . S
H423 C420 0.960 . S
C424 N425 1.342 . S
C424 C428 1.401 . S
C424 C429 1.499 . S
N425 Co408 1.989 . S
N425 C424 1.342 . S
N425 N426 1.388 . S
N426 Co409 1.993 . S
N426 N425 1.388 . S
N426 C427 1.346 . S
C427 N426 1.346 . S
C427 C428 1.396 . S
C427 C437 1.510 . S
C428 C424 1.401 . S
C428 C427 1.396 . S
C429 C424 1.499 . S
C429 H430 0.959 . S
C429 H431 0.960 . S
C429 H432 0.961 . S
H430 C429 0.959 . S
H431 C429 0.960 . S
H432 C429 0.961 . S
O433 Co408 1.967 . S
O433 C441 1.258 . S
O434 Co409 1.941 . S
O434 C441 1.266 . S
H435 C437 0.959 . S
H436 C437 0.961 . S
C437 C427 1.510 . S
C437 H435 0.959 . S
C437 H436 0.961 . S
C437 H438 0.960 . S
H438 C437 0.960 . S
H439 N419 0.862 . S
O440 Co408 1.920 . S
O440 C413 1.289 . S
C441 O433 1.258 . S
C441 O434 1.266 . S
Co442 O445 1.970 . S
Co442 N459 1.989 . S
Co442 O467 1.967 . S
Co442 O474 1.920 . S
Co443 O446 1.966 . S
Co443 N452 2.022 . S
Co443 N460 1.993 . S
Co443 O468 1.941 . S
C444 O445 1.258 . S
C444 O446 1.263 . S
O445 Co442 1.970 . S
O445 C444 1.258 . S
O446 Co443 1.966 . S
O446 C444 1.263 . S
C447 O448 1.235 . S
C447 O474 1.289 . S
O448 C447 1.235 . S
C449 C451 1.400 . S
C449 N452 1.351 . S
C449 C454 1.501 . S
C450 C451 1.387 . S
C450 N453 1.341 . S
C451 C449 1.400 . S
C451 C450 1.387 . S
N452 Co443 2.022 . S
N452 C449 1.351 . S
N452 N453 1.365 . S
N453 C450 1.341 . S
N453 N452 1.365 . S
N453 H473 0.862 . S
C454 C449 1.501 . S
C454 H455 0.961 . S
C454 H456 0.961 . S
C454 H457 0.960 . S
H455 C454 0.961 . S
H456 C454 0.961 . S
H457 C454 0.960 . S
C458 N459 1.342 . S
C458 C462 1.401 . S
C458 C463 1.499 . S
N459 Co442 1.989 . S
N459 C458 1.342 . S
N459 N460 1.388 . S
N460 Co443 1.993 . S
N460 N459 1.388 . S
N460 C461 1.346 . S
C461 N460 1.346 . S
C461 C462 1.396 . S
C461 C471 1.510 . S
C462 C458 1.401 . S
C462 C461 1.396 . S
C463 C458 1.499 . S
C463 H464 0.959 . S
C463 H465 0.960 . S
C463 H466 0.961 . S
H464 C463 0.959 . S
H465 C463 0.960 . S
H466 C463 0.961 . S
O467 Co442 1.967 . S
O467 C475 1.258 . S
O468 Co443 1.941 . S
O468 C475 1.266 . S
H469 C471 0.959 . S
H470 C471 0.961 . S
C471 C461 1.510 . S
C471 H469 0.959 . S
C471 H470 0.961 . S
C471 H472 0.960 . S
H472 C471 0.960 . S
H473 N453 0.862 . S
O474 Co442 1.920 . S
O474 C447 1.289 . S
C475 O467 1.258 . S
C475 O468 1.266 . S
Co476 O479 1.970 . S
Co476 N493 1.989 . S
Co476 O501 1.967 . S
Co476 O508 1.920 . S
Co477 O480 1.966 . S
Co477 N486 2.022 . S
Co477 N494 1.993 1_556 S
Co477 O502 1.941 . S
C478 O479 1.258 . S
C478 O480 1.263 1_554 S
O479 Co476 1.970 . S
O479 C478 1.258 . S
O480 Co477 1.966 . S
O480 C478 1.263 1_556 S
C481 O482 1.235 . S
C481 O508 1.289 . S
O482 C481 1.235 . S
C483 C485 1.400 . S
C483 N486 1.351 . S
C483 C488 1.501 . S
C484 C485 1.387 . S
C484 N487 1.341 . S
C485 C483 1.400 . S
C485 C484 1.387 . S
N486 Co477 2.022 . S
N486 C483 1.351 . S
N486 N487 1.365 . S
N487 C484 1.341 . S
N487 N486 1.365 . S
N487 H507 0.862 . S
C488 C483 1.501 . S
C488 H489 0.961 . S
C488 H490 0.961 . S
C488 H491 0.960 . S
H489 C488 0.961 . S
H490 C488 0.961 . S
H491 C488 0.960 . S
C492 N493 1.342 . S
C492 C496 1.401 . S
C492 C497 1.499 . S
N493 Co476 1.989 . S
N493 C492 1.342 . S
N493 N494 1.388 . S
N494 Co477 1.993 1_554 S
N494 N493 1.388 . S
N494 C495 1.346 1_554 S
C495 N494 1.346 1_556 S
C495 C496 1.396 1_556 S
C495 C505 1.510 . S
C496 C492 1.401 . S
C496 C495 1.396 1_554 S
C497 C492 1.499 . S
C497 H498 0.959 . S
C497 H499 0.960 . S
C497 H500 0.961 . S
H498 C497 0.959 . S
H499 C497 0.960 . S
H500 C497 0.961 . S
O501 Co476 1.967 . S
O501 C509 1.258 . S
O502 Co477 1.941 . S
O502 C509 1.266 1_556 S
H503 C505 0.959 . S
H504 C505 0.961 . S
C505 C495 1.510 . S
C505 H503 0.959 . S
C505 H504 0.961 . S
C505 H506 0.960 . S
H506 C505 0.960 . S
H507 N487 0.862 . S
O508 Co476 1.920 . S
O508 C481 1.289 . S
C509 O501 1.258 . S
C509 O502 1.266 1_554 S
Co510 O513 1.970 . S
Co510 N527 1.989 . S
Co510 O535 1.967 . S
Co510 O542 1.920 . S
Co511 O514 1.966 . S
Co511 N520 2.022 . S
Co511 N528 1.993 . S
Co511 O536 1.941 . S
C512 O513 1.258 . S
C512 O514 1.263 . S
O513 Co510 1.970 . S
O513 C512 1.258 . S
O514 Co511 1.966 . S
O514 C512 1.263 . S
C515 O516 1.235 . S
C515 O542 1.289 . S
O516 C515 1.235 . S
C517 C519 1.400 . S
C517 N520 1.351 1_554 S
C517 C522 1.501 . S
C518 C519 1.387 . S
C518 N521 1.344 . S
C519 C517 1.400 . S
C519 C518 1.387 . S
N520 Co511 2.022 . S
N520 C517 1.351 1_556 S
N520 N521 1.364 1_556 S
N521 C518 1.344 . S
N521 N520 1.364 1_554 S
N521 H541 0.860 1_554 S
C522 C517 1.501 . S
C522 H523 0.961 1_554 S
C522 H524 0.961 . S
C522 H525 0.960 . S
H523 C522 0.961 1_556 S
H524 C522 0.961 . S
H525 C522 0.960 . S
C526 N527 1.342 . S
C526 C530 1.401 . S
C526 C531 1.499 . S
N527 Co510 1.989 . S
N527 C526 1.342 . S
N527 N528 1.388 . S
N528 Co511 1.993 . S
N528 N527 1.388 . S
N528 C529 1.346 . S
C529 N528 1.346 . S
C529 C530 1.396 . S
C529 C539 1.510 . S
C530 C526 1.401 . S
C530 C529 1.396 . S
C531 C526 1.499 . S
C531 H532 0.959 . S
C531 H533 0.960 . S
C531 H534 0.961 . S
H532 C531 0.959 . S
H533 C531 0.960 . S
H534 C531 0.961 . S
O535 Co510 1.967 . S
O535 C543 1.258 . S
O536 Co511 1.941 . S
O536 C543 1.266 . S
H537 C539 0.959 . S
H538 C539 0.961 . S
C539 C529 1.510 . S
C539 H537 0.959 . S
C539 H538 0.961 . S
C539 H540 0.960 . S
H540 C539 0.960 . S
H541 N521 0.860 1_556 S
O542 Co510 1.920 . S
O542 C515 1.289 . S
C543 O535 1.258 . S
C543 O536 1.266 . S
H544 C552 0.929 . S
H545 C554 0.930 . S
H546 C556 0.930 . S
H547 C559 0.929 . S
H548 C562 0.930 . S
H549 C564 0.960 . S
H550 C564 0.960 . S
H551 C564 0.960 . S
C552 H544 0.929 . S
C552 C553 1.377 . S
C552 C554 1.384 . S
C553 C552 1.377 . S
C553 C559 1.390 . S
C554 H545 0.930 . S
C554 C552 1.384 . S
C554 C555 1.372 . S
C555 C554 1.372 . S
C555 C556 1.400 . S
C555 C560 1.490 . S
C556 H546 0.930 . S
C556 C555 1.400 . S
C556 C559 1.386 . S
H557 C573 0.930 . S
H558 C574 0.931 . S
C559 H547 0.929 . S
C559 C553 1.390 . S
C559 C556 1.386 . S
C560 C555 1.490 . S
C560 C562 1.395 . S
C560 C563 1.403 . S
H561 C567 0.930 . S
C562 H548 0.930 . S
C562 C560 1.395 . S
C562 C565 1.403 . S
C563 C560 1.403 . S
C563 C564 1.524 . S
C563 C567 1.400 . S
C564 H549 0.960 . S
C564 H550 0.960 . S
C564 H551 0.960 . S
C564 C563 1.524 . S
C565 C562 1.403 . S
C565 C566 1.392 . S
C565 C569 1.495 . S
C566 C565 1.392 . S
C566 C567 1.385 . S
C566 C568 1.478 . S
C567 H561 0.930 . S
C567 C563 1.400 . S
C567 C566 1.385 . S
C568 C566 1.478 . S
C568 C570 1.381 . S
C568 C574 1.383 . S
C569 C565 1.495 . S
C569 H575 0.959 . S
C569 H576 0.961 . S
C569 H577 0.960 . S
C570 C568 1.381 . S
C570 C571 1.394 . S
C570 H578 0.930 . S
C571 C570 1.394 . S
C571 C572 1.383 . S
C571 H579 0.929 . S
C572 C571 1.383 . S
C572 C573 1.377 . S
C573 H557 0.930 . S
C573 C572 1.377 . S
C573 C574 1.379 . S
C574 H558 0.931 . S
C574 C568 1.383 . S
C574 C573 1.379 . S
H575 C569 0.959 . S
H576 C569 0.961 . S
H577 C569 0.960 . S
H578 C570 0.930 . S
H579 C571 0.929 . S
H580 C588 0.929 . S
H581 C590 0.930 . S
H582 C592 0.930 . S
H583 C595 0.929 . S
H584 C598 0.930 . S
H585 C600 0.960 . S
H586 C600 0.960 . S
H587 C600 0.960 . S
C588 H580 0.929 . S
C588 C589 1.377 . S
C588 C590 1.384 . S
C589 C588 1.377 . S
C589 C595 1.390 . S
C590 H581 0.930 . S
C590 C588 1.384 . S
C590 C591 1.372 . S
C591 C590 1.372 . S
C591 C592 1.400 . S
C591 C596 1.490 . S
C592 H582 0.930 . S
C592 C591 1.400 . S
C592 C595 1.386 . S
H593 C609 0.930 . S
H594 C610 0.931 . S
C595 H583 0.929 . S
C595 C589 1.390 . S
C595 C592 1.386 . S
C596 C591 1.490 . S
C596 C598 1.395 . S
C596 C599 1.403 . S
H597 C603 0.930 . S
C598 H584 0.930 . S
C598 C596 1.395 . S
C598 C601 1.403 . S
C599 C596 1.403 . S
C599 C600 1.524 . S
C599 C603 1.400 . S
C600 H585 0.960 . S
C600 H586 0.960 . S
C600 H587 0.960 . S
C600 C599 1.524 . S
C601 C598 1.403 . S
C601 C602 1.392 . S
C601 C605 1.495 . S
C602 C601 1.392 . S
C602 C603 1.385 . S
C602 C604 1.478 . S
C603 H597 0.930 . S
C603 C599 1.400 . S
C603 C602 1.385 . S
C604 C602 1.478 . S
C604 C606 1.381 . S
C604 C610 1.383 . S
C605 C601 1.495 . S
C605 H611 0.959 . S
C605 H612 0.961 . S
C605 H613 0.960 . S
C606 C604 1.381 . S
C606 C607 1.394 . S
C606 H614 0.930 . S
C607 C606 1.394 . S
C607 C608 1.383 . S
C607 H615 0.929 . S
C608 C607 1.383 . S
C608 C609 1.377 . S
C609 H593 0.930 . S
C609 C608 1.377 . S
C609 C610 1.379 . S
C610 H594 0.931 . S
C610 C604 1.383 . S
C610 C609 1.379 . S
H611 C605 0.959 . S
H612 C605 0.961 . S
H613 C605 0.960 . S
H614 C606 0.930 . S
H615 C607 0.929 . S
H616 C624 0.929 . S
H617 C626 0.930 . S
H618 C628 0.930 . S
H619 C631 0.929 . S
H620 C634 0.930 . S
H621 C636 0.960 . S
H622 C636 0.960 . S
H623 C636 0.960 . S
C624 H616 0.929 . S
C624 C625 1.377 . S
C624 C626 1.384 . S
C625 C624 1.377 . S
C625 C631 1.390 1_565 S
C626 H617 0.930 . S
C626 C624 1.384 . S
C626 C627 1.365 1_565 S
C627 C626 1.365 1_545 S
C627 C628 1.406 . S
C627 C632 1.491 . S
C628 H618 0.930 . S
C628 C627 1.406 . S
C628 C631 1.386 . S
H629 C645 0.930 . S
H630 C646 0.931 . S
C631 H619 0.929 . S
C631 C625 1.390 1_545 S
C631 C628 1.386 . S
C632 C627 1.491 . S
C632 C634 1.395 1_545 S
C632 C635 1.403 . S
H633 C639 0.930 . S
C634 H620 0.930 . S
C634 C632 1.395 1_565 S
C634 C637 1.403 . S
C635 C632 1.403 . S
C635 C636 1.524 . S
C635 C639 1.400 . S
C636 H621 0.960 . S
C636 H622 0.960 . S
C636 H623 0.960 . S
C636 C635 1.524 . S
C637 C634 1.403 . S
C637 C638 1.392 1_565 S
C637 C641 1.495 . S
C638 C637 1.392 1_545 S
C638 C639 1.385 . S
C638 C640 1.478 1_554 S
C639 H633 0.930 . S
C639 C635 1.400 . S
C639 C638 1.385 . S
C640 C638 1.478 1_556 S
C640 C642 1.392 . S
C640 C646 1.383 . S
C641 C637 1.495 . S
C641 H647 0.959 . S
C641 H648 0.961 . S
C641 H649 0.960 . S
C642 C640 1.392 . S
C642 C643 1.399 . S
C642 H650 0.914 1_545 S
C643 C642 1.399 . S
C643 C644 1.383 . S
C643 H651 0.947 . S
C644 C643 1.383 . S
C644 C645 1.377 . S
C645 H629 0.930 . S
C645 C644 1.377 . S
C645 C646 1.379 . S
C646 H630 0.931 . S
C646 C640 1.383 . S
C646 C645 1.379 . S
H647 C641 0.959 . S
H648 C641 0.961 . S
H649 C641 0.960 . S
H650 C642 0.914 1_565 S
H651 C643 0.947 . S
H652 C660 0.929 . S
H653 C662 0.930 . S
H654 C664 0.930 . S
H655 C667 0.929 . S
H656 C670 0.930 . S
H657 C672 0.960 . S
H658 C672 0.960 . S
H659 C672 0.960 . S
C660 H652 0.929 . S
C660 C661 1.377 . S
C660 C662 1.384 . S
C661 C660 1.377 . S
C661 C667 1.390 . S
C662 H653 0.930 . S
C662 C660 1.384 . S
C662 C663 1.372 . S
C663 C662 1.372 . S
C663 C664 1.400 . S
C663 C668 1.490 . S
C664 H654 0.930 . S
C664 C663 1.400 . S
C664 C667 1.386 . S
H665 C681 0.930 . S
H666 C682 0.931 . S
C667 H655 0.929 . S
C667 C661 1.390 . S
C667 C664 1.386 . S
C668 C663 1.490 . S
C668 C670 1.395 . S
C668 C671 1.403 . S
H669 C675 0.930 . S
C670 H656 0.930 . S
C670 C668 1.395 . S
C670 C673 1.403 . S
C671 C668 1.403 . S
C671 C672 1.524 . S
C671 C675 1.400 . S
C672 H657 0.960 . S
C672 H658 0.960 . S
C672 H659 0.960 . S
C672 C671 1.524 . S
C673 C670 1.403 . S
C673 C674 1.392 . S
C673 C677 1.495 . S
C674 C673 1.392 . S
C674 C675 1.385 . S
C674 C676 1.478 . S
C675 H669 0.930 . S
C675 C671 1.400 . S
C675 C674 1.385 . S
C676 C674 1.478 . S
C676 C678 1.381 . S
C676 C682 1.383 . S
C677 C673 1.495 . S
C677 H683 0.959 . S
C677 H684 0.961 . S
C677 H685 0.960 . S
C678 C676 1.381 . S
C678 C679 1.394 . S
C678 H686 0.930 . S
C679 C678 1.394 . S
C679 C680 1.383 . S
C679 H687 0.929 . S
C680 C679 1.383 . S
C680 C681 1.377 . S
C681 H665 0.930 . S
C681 C680 1.377 . S
C681 C682 1.379 . S
C682 H666 0.931 . S
C682 C676 1.383 . S
C682 C681 1.379 . S
H683 C677 0.959 . S
H684 C677 0.961 . S
H685 C677 0.960 . S
H686 C678 0.930 . S
H687 C679 0.929 . S
H688 C696 0.929 . S
H689 C698 0.930 . S
H690 C700 0.930 . S
H691 C703 0.929 . S
H692 C706 0.927 . S
H693 C708 0.960 . S
H694 C708 0.957 . S
H695 C708 0.960 . S
C696 H688 0.929 . S
C696 C697 1.377 1_565 S
C696 C698 1.384 . S
C697 C696 1.377 1_545 S
C697 C703 1.390 . S
C698 H689 0.930 . S
C698 C696 1.384 . S
C698 C699 1.372 1_565 S
C699 C698 1.372 1_545 S
C699 C700 1.400 . S
C699 C704 1.490 . S
C700 H690 0.930 . S
C700 C699 1.400 . S
C700 C703 1.386 . S
H701 C717 0.930 . S
H702 C718 0.931 . S
C703 H691 0.929 . S
C703 C697 1.390 . S
C703 C700 1.386 . S
C704 C699 1.490 . S
C704 C706 1.395 . S
C704 C707 1.403 . S
H705 C711 0.930 . S
C706 H692 0.927 . S
C706 C704 1.395 . S
C706 C709 1.404 1_545 S
C707 C704 1.403 . S
C707 C708 1.524 . S
C707 C711 1.400 . S
C708 H693 0.960 . S
C708 H694 0.957 . S
C708 H695 0.960 . S
C708 C707 1.524 . S
C709 C706 1.404 1_565 S
C709 C710 1.392 1_565 S
C709 C713 1.495 . S
C710 C709 1.392 1_545 S
C710 C711 1.385 . S
C710 C712 1.478 1_545 S
C711 H705 0.930 . S
C711 C707 1.400 . S
C711 C710 1.385 . S
C712 C710 1.478 1_565 S
C712 C714 1.377 . S
C712 C718 1.386 1_565 S
C713 C709 1.495 . S
C713 H719 0.959 . S
C713 H720 0.961 1_565 S
C713 H721 0.960 . S
C714 C712 1.377 . S
C714 C715 1.394 . S
C714 H722 0.930 . S
C715 C714 1.394 . S
C715 C716 1.383 . S
C715 H723 0.929 . S
C716 C715 1.383 . S
C716 C717 1.377 1_565 S
C717 H701 0.930 . S
C717 C716 1.377 1_545 S
C717 C718 1.379 . S
C718 H702 0.931 . S
C718 C712 1.386 1_545 S
C718 C717 1.379 . S
H719 C713 0.959 . S
H720 C713 0.961 1_545 S
H721 C713 0.960 . S
H722 C714 0.930 . S
H723 C715 0.929 . S
H724 C732 0.929 . S
H725 C734 0.930 . S
H726 C736 0.930 . S
H727 C739 0.929 . S
H728 C742 0.930 . S
H729 C744 0.960 . S
H730 C744 0.960 . S
H731 C744 0.960 . S
C732 H724 0.929 . S
C732 C733 1.377 . S
C732 C734 1.384 . S
C733 C732 1.377 . S
C733 C739 1.390 . S
C734 H725 0.930 . S
C734 C732 1.384 . S
C734 C735 1.372 . S
C735 C734 1.372 . S
C735 C736 1.400 . S
C735 C740 1.490 . S
C736 H726 0.930 . S
C736 C735 1.400 . S
C736 C739 1.386 . S
H737 C753 0.930 . S
H738 C754 0.931 . S
C739 H727 0.929 . S
C739 C733 1.390 . S
C739 C736 1.386 . S
C740 C735 1.490 . S
C740 C742 1.395 . S
C740 C743 1.403 . S
H741 C747 0.930 . S
C742 H728 0.930 . S
C742 C740 1.395 . S
C742 C745 1.403 . S
C743 C740 1.403 . S
C743 C744 1.524 . S
C743 C747 1.400 . S
C744 H729 0.960 . S
C744 H730 0.960 . S
C744 H731 0.960 . S
C744 C743 1.524 . S
C745 C742 1.403 . S
C745 C746 1.392 . S
C745 C749 1.495 . S
C746 C745 1.392 . S
C746 C747 1.385 . S
C746 C748 1.478 . S
C747 H741 0.930 . S
C747 C743 1.400 . S
C747 C746 1.385 . S
C748 C746 1.478 . S
C748 C750 1.381 . S
C748 C754 1.383 . S
C749 C745 1.495 . S
C749 H755 0.959 . S
C749 H756 0.961 . S
C749 H757 0.960 . S
C750 C748 1.381 . S
C750 C751 1.394 . S
C750 H758 0.930 . S
C751 C750 1.394 . S
C751 C752 1.383 . S
C751 H759 0.929 . S
C752 C751 1.383 . S
C752 C753 1.377 . S
C753 H737 0.930 . S
C753 C752 1.377 . S
C753 C754 1.379 . S
C754 H738 0.931 . S
C754 C748 1.383 . S
C754 C753 1.379 . S
H755 C749 0.959 . S
H756 C749 0.961 . S
H757 C749 0.960 . S
H758 C750 0.930 . S
H759 C751 0.929 . S
H760 C768 0.929 . S
H761 C770 0.930 . S
H762 C772 0.930 . S
H763 C775 0.929 . S
H764 C778 0.930 . S
H765 C780 0.960 . S
H766 C780 0.960 . S
H767 C780 0.960 . S
C768 H760 0.929 . S
C768 C769 1.377 . S
C768 C770 1.384 . S
C769 C768 1.377 . S
C769 C775 1.390 . S
C770 H761 0.930 . S
C770 C768 1.384 . S
C770 C771 1.372 . S
C771 C770 1.372 . S
C771 C772 1.400 . S
C771 C776 1.490 . S
C772 H762 0.930 . S
C772 C771 1.400 . S
C772 C775 1.386 . S
H773 C789 0.930 . S
H774 C790 0.931 . S
C775 H763 0.929 . S
C775 C769 1.390 . S
C775 C772 1.386 . S
C776 C771 1.490 . S
C776 C778 1.395 . S
C776 C779 1.403 . S
H777 C783 0.930 . S
C778 H764 0.930 . S
C778 C776 1.395 . S
C778 C781 1.403 1_554 S
C779 C776 1.403 . S
C779 C780 1.524 . S
C779 C783 1.400 1_554 S
C780 H765 0.960 . S
C780 H766 0.960 . S
C780 H767 0.960 . S
C780 C779 1.524 . S
C781 C778 1.403 1_556 S
C781 C782 1.392 . S
C781 C785 1.495 . S
C782 C781 1.392 . S
C782 C783 1.385 . S
C782 C784 1.478 . S
C783 H777 0.930 . S
C783 C779 1.400 1_556 S
C783 C782 1.385 . S
C784 C782 1.478 . S
C784 C786 1.381 . S
C784 C790 1.383 . S
C785 C781 1.495 . S
C785 H791 0.959 . S
C785 H792 0.961 . S
C785 H793 0.960 . S
C786 C784 1.381 . S
C786 C787 1.394 . S
C786 H794 0.930 . S
C787 C786 1.394 . S
C787 C788 1.383 . S
C787 H795 0.929 . S
C788 C787 1.383 . S
C788 C789 1.377 . S
C789 H773 0.930 . S
C789 C788 1.377 . S
C789 C790 1.379 . S
C790 H774 0.931 . S
C790 C784 1.383 . S
C790 C789 1.379 . S
H791 C785 0.959 . S
H792 C785 0.961 . S
H793 C785 0.960 . S
H794 C786 0.930 . S
H795 C787 0.929 . S
H796 C804 0.929 . S
H797 C806 0.930 . S
H798 C808 0.930 . S
H799 C811 0.929 . S
H800 C814 0.930 . S
H801 C816 0.960 . S
H802 C816 0.960 . S
H803 C816 0.960 . S
C804 H796 0.929 . S
C804 C805 1.377 . S
C804 C806 1.384 . S
C805 C804 1.377 . S
C805 C811 1.390 . S
C806 H797 0.930 . S
C806 C804 1.384 . S
C806 C807 1.372 . S
C807 C806 1.372 . S
C807 C808 1.400 . S
C807 C812 1.490 . S
C808 H798 0.930 . S
C808 C807 1.400 . S
C808 C811 1.386 . S
H809 C825 0.930 . S
H810 C826 0.931 1_556 S
C811 H799 0.929 . S
C811 C805 1.390 . S
C811 C808 1.386 . S
C812 C807 1.490 . S
C812 C814 1.395 . S
C812 C815 1.403 . S
H813 C819 0.930 . S
C814 H800 0.930 . S
C814 C812 1.395 . S
C814 C817 1.403 . S
C815 C812 1.403 . S
C815 C816 1.524 . S
C815 C819 1.400 . S
C816 H801 0.960 . S
C816 H802 0.960 . S
C816 H803 0.960 . S
C816 C815 1.524 . S
C817 C814 1.403 . S
C817 C818 1.392 . S
C817 C821 1.495 . S
C818 C817 1.392 . S
C818 C819 1.385 . S
C818 C820 1.478 . S
C819 H813 0.930 . S
C819 C815 1.400 . S
C819 C818 1.385 . S
C820 C818 1.478 . S
C820 C822 1.381 1_556 S
C820 C826 1.383 1_556 S
C821 C817 1.495 . S
C821 H827 0.959 . S
C821 H828 0.961 . S
C821 H829 0.960 . S
C822 C820 1.381 1_554 S
C822 C823 1.394 . S
C822 H830 0.930 1_554 S
C823 C822 1.394 . S
C823 C824 1.383 . S
C823 H831 0.929 . S
C824 C823 1.383 . S
C824 C825 1.377 . S
C825 H809 0.930 . S
C825 C824 1.377 . S
C825 C826 1.379 . S
C826 H810 0.931 1_554 S
C826 C820 1.383 1_554 S
C826 C825 1.379 . S
H827 C821 0.959 . S
H828 C821 0.961 . S
H829 C821 0.960 . S
H830 C822 0.930 1_556 S
H831 C823 0.929 . S
H832 C840 0.929 . S
H833 C842 0.930 . S
H834 C844 0.930 . S
H835 C847 0.929 . S
H836 C850 0.930 . S
H837 C852 0.960 . S
H838 C852 0.960 . S
H839 C852 0.960 . S
C840 H832 0.929 . S
C840 C841 1.377 . S
C840 C842 1.384 . S
C841 C840 1.377 . S
C841 C847 1.390 . S
C842 H833 0.930 . S
C842 C840 1.384 . S
C842 C843 1.372 . S
C843 C842 1.372 . S
C843 C844 1.400 . S
C843 C848 1.490 . S
C844 H834 0.930 . S
C844 C843 1.400 . S
C844 C847 1.386 . S
H845 C861 0.930 . S
H846 C862 0.931 . S
C847 H835 0.929 . S
C847 C841 1.390 . S
C847 C844 1.386 . S
C848 C843 1.490 . S
C848 C850 1.395 . S
C848 C851 1.403 . S
H849 C855 0.930 . S
C850 H836 0.930 . S
C850 C848 1.395 . S
C850 C853 1.403 . S
C851 C848 1.403 . S
C851 C852 1.524 . S
C851 C855 1.400 . S
C852 H837 0.960 . S
C852 H838 0.960 . S
C852 H839 0.960 . S
C852 C851 1.524 . S
C853 C850 1.403 . S
C853 C854 1.392 . S
C853 C857 1.495 . S
C854 C853 1.392 . S
C854 C855 1.385 . S
C854 C856 1.478 1_554 S
C855 H849 0.930 . S
C855 C851 1.400 . S
C855 C854 1.385 . S
C856 C854 1.478 1_556 S
C856 C858 1.381 . S
C856 C862 1.383 . S
C857 C853 1.495 . S
C857 H863 0.959 . S
C857 H864 0.961 . S
C857 H865 0.960 . S
C858 C856 1.381 . S
C858 C859 1.394 . S
C858 H866 0.930 . S
C859 C858 1.394 . S
C859 C860 1.383 . S
C859 H867 0.929 . S
C860 C859 1.383 . S
C860 C861 1.377 . S
C861 H845 0.930 . S
C861 C860 1.377 . S
C861 C862 1.379 . S
C862 H846 0.931 . S
C862 C856 1.383 . S
C862 C861 1.379 . S
H863 C857 0.959 . S
H864 C857 0.961 . S
H865 C857 0.960 . S
H866 C858 0.930 . S
H867 C859 0.929 . S
H868 C876 0.929 . S
H869 C878 0.930 . S
H870 C880 0.930 . S
H871 C883 0.929 . S
H872 C886 0.930 . S
H873 C888 0.960 . S
H874 C888 0.960 . S
H875 C888 0.960 . S
C876 H868 0.929 . S
C876 C877 1.377 . S
C876 C878 1.384 . S
C877 C876 1.377 . S
C877 C883 1.390 . S
C878 H869 0.930 . S
C878 C876 1.384 . S
C878 C879 1.372 . S
C879 C878 1.372 . S
C879 C880 1.400 . S
C879 C884 1.490 . S
C880 H870 0.930 . S
C880 C879 1.400 . S
C880 C883 1.386 . S
H881 C897 0.930 . S
H882 C898 0.931 . S
C883 H871 0.929 . S
C883 C877 1.390 . S
C883 C880 1.386 . S
C884 C879 1.490 . S
C884 C886 1.395 . S
C884 C887 1.403 . S
H885 C891 0.930 . S
C886 H872 0.930 . S
C886 C884 1.395 . S
C886 C889 1.403 . S
C887 C884 1.403 . S
C887 C888 1.524 . S
C887 C891 1.400 . S
C888 H873 0.960 . S
C888 H874 0.960 . S
C888 H875 0.960 . S
C888 C887 1.524 . S
C889 C886 1.403 . S
C889 C890 1.392 . S
C889 C893 1.495 . S
C890 C889 1.392 . S
C890 C891 1.385 . S
C890 C892 1.478 . S
C891 H885 0.930 . S
C891 C887 1.400 . S
C891 C890 1.385 . S
C892 C890 1.478 . S
C892 C894 1.381 . S
C892 C898 1.383 . S
C893 C889 1.495 . S
C893 H899 0.959 . S
C893 H900 0.961 . S
C893 H901 0.960 . S
C894 C892 1.381 . S
C894 C895 1.394 . S
C894 H902 0.930 . S
C895 C894 1.394 . S
C895 C896 1.383 . S
C895 H903 0.929 . S
C896 C895 1.383 . S
C896 C897 1.377 . S
C897 H881 0.930 . S
C897 C896 1.377 . S
C897 C898 1.379 . S
C898 H882 0.931 . S
C898 C892 1.383 . S
C898 C897 1.379 . S
H899 C893 0.959 . S
H900 C893 0.961 . S
H901 C893 0.960 . S
H902 C894 0.930 . S
H903 C895 0.929 . S
H904 C912 0.929 . S
H905 C914 0.930 . S
H906 C916 0.930 . S
H907 C919 0.929 . S
H908 C922 0.930 . S
H909 C924 0.960 . S
H910 C924 0.960 . S
H911 C924 0.960 . S
C912 H904 0.929 . S
C912 C913 1.377 . S
C912 C914 1.384 . S
C913 C912 1.377 . S
C913 C919 1.390 . S
C914 H905 0.930 . S
C914 C912 1.384 . S
C914 C915 1.372 . S
C915 C914 1.372 . S
C915 C916 1.400 . S
C915 C920 1.490 . S
C916 H906 0.930 . S
C916 C915 1.400 . S
C916 C919 1.386 . S
H917 C933 0.930 . S
H918 C934 0.931 . S
C919 H907 0.929 . S
C919 C913 1.390 . S
C919 C916 1.386 . S
C920 C915 1.490 . S
C920 C922 1.395 . S
C920 C923 1.403 . S
H921 C927 0.930 . S
C922 H908 0.930 . S
C922 C920 1.395 . S
C922 C925 1.403 . S
C923 C920 1.403 . S
C923 C924 1.524 . S
C923 C927 1.400 . S
C924 H909 0.960 . S
C924 H910 0.960 . S
C924 H911 0.960 . S
C924 C923 1.524 . S
C925 C922 1.403 . S
C925 C926 1.392 . S
C925 C929 1.495 . S
C926 C925 1.392 . S
C926 C927 1.385 . S
C926 C928 1.478 . S
C927 H921 0.930 . S
C927 C923 1.400 . S
C927 C926 1.385 . S
C928 C926 1.478 . S
C928 C930 1.381 . S
C928 C934 1.383 . S
C929 C925 1.495 . S
C929 H935 0.959 . S
C929 H936 0.961 . S
C929 H937 0.960 . S
C930 C928 1.381 . S
C930 C931 1.394 . S
C930 H938 0.930 . S
C931 C930 1.394 . S
C931 C932 1.383 . S
C931 H939 0.929 . S
C932 C931 1.383 . S
C932 C933 1.377 . S
C933 H917 0.930 . S
C933 C932 1.377 . S
C933 C934 1.379 . S
C934 H918 0.931 . S
C934 C928 1.383 . S
C934 C933 1.379 . S
H935 C929 0.959 . S
H936 C929 0.961 . S
H937 C929 0.960 . S
H938 C930 0.930 . S
H939 C931 0.929 . S
H940 C948 0.929 . S
H941 C950 0.930 . S
H942 C952 0.930 . S
H943 C955 0.929 . S
H944 C958 0.930 . S
H945 C960 0.960 . S
H946 C960 0.960 . S
H947 C960 0.960 . S
C948 H940 0.929 . S
C948 C949 1.377 . S
C948 C950 1.384 . S
C949 C948 1.377 . S
C949 C955 1.390 . S
C950 H941 0.930 . S
C950 C948 1.384 . S
C950 C951 1.372 . S
C951 C950 1.372 . S
C951 C952 1.400 . S
C951 C956 1.490 . S
C952 H942 0.930 . S
C952 C951 1.400 . S
C952 C955 1.386 . S
H953 C969 0.930 . S
H954 C970 0.931 . S
C955 H943 0.929 . S
C955 C949 1.390 . S
C955 C952 1.386 . S
C956 C951 1.490 . S
C956 C958 1.395 . S
C956 C959 1.403 . S
H957 C963 0.930 . S
C958 H944 0.930 . S
C958 C956 1.395 . S
C958 C961 1.403 . S
C959 C956 1.403 . S
C959 C960 1.524 . S
C959 C963 1.400 . S
C960 H945 0.960 . S
C960 H946 0.960 . S
C960 H947 0.960 . S
C960 C959 1.524 . S
C961 C958 1.403 . S
C961 C962 1.392 . S
C961 C965 1.495 . S
C962 C961 1.392 . S
C962 C963 1.385 . S
C962 C964 1.478 . S
C963 H957 0.930 . S
C963 C959 1.400 . S
C963 C962 1.385 . S
C964 C962 1.478 . S
C964 C966 1.381 . S
C964 C970 1.383 . S
C965 C961 1.495 . S
C965 H971 0.959 . S
C965 H972 0.961 . S
C965 H973 0.960 . S
C966 C964 1.381 . S
C966 C967 1.394 . S
C966 H974 0.930 . S
C967 C966 1.394 . S
C967 C968 1.383 . S
C967 H975 0.929 . S
C968 C967 1.383 . S
C968 C969 1.377 . S
C969 H953 0.930 . S
C969 C968 1.377 . S
C969 C970 1.379 . S
C970 H954 0.931 . S
C970 C964 1.383 . S
C970 C969 1.379 . S
H971 C965 0.959 . S
H972 C965 0.961 . S
H973 C965 0.960 . S
H974 C966 0.930 . S
H975 C967 0.929 . S
H976 C984 0.929 . S
H977 C986 0.930 . S
H978 C988 0.930 . S
H979 C991 0.929 . S
H980 C994 0.930 . S
H981 C996 0.960 . S
H982 C996 0.960 . S
H983 C996 0.960 . S
C984 H976 0.929 . S
C984 C985 1.377 . S
C984 C986 1.384 . S
C985 C984 1.377 . S
C985 C991 1.390 . S
C986 H977 0.930 . S
C986 C984 1.384 . S
C986 C987 1.372 . S
C987 C986 1.372 . S
C987 C988 1.400 . S
C987 C992 1.490 . S
C988 H978 0.930 . S
C988 C987 1.400 . S
C988 C991 1.386 . S
H989 C1005 0.930 . S
H990 C1006 0.931 . S
C991 H979 0.929 . S
C991 C985 1.390 . S
C991 C988 1.386 . S
C992 C987 1.490 . S
C992 C994 1.395 . S
C992 C995 1.403 . S
H993 C999 0.930 . S
C994 H980 0.930 . S
C994 C992 1.395 . S
C994 C997 1.403 1_556 S
C995 C992 1.403 . S
C995 C996 1.524 . S
C995 C999 1.400 1_556 S
C996 H981 0.960 . S
C996 H982 0.960 . S
C996 H983 0.960 . S
C996 C995 1.524 . S
C997 C994 1.403 1_554 S
C997 C998 1.392 . S
C997 C1001 1.495 . S
C998 C997 1.392 . S
C998 C999 1.385 . S
C998 C1000 1.478 . S
C999 H993 0.930 . S
C999 C995 1.400 1_554 S
C999 C998 1.385 . S
C1000 C998 1.478 . S
C1000 C1002 1.381 . S
C1000 C1006 1.383 . S
C1001 C997 1.495 . S
C1001 H1007 0.959 . S
C1001 H1008 0.961 . S
C1001 H1009 0.960 . S
C1002 C1000 1.381 . S
C1002 C1003 1.394 . S
C1002 H1010 0.930 . S
C1003 C1002 1.394 . S
C1003 C1004 1.383 . S
C1003 H1011 0.929 . S
C1004 C1003 1.383 . S
C1004 C1005 1.377 . S
C1005 H989 0.930 . S
C1005 C1004 1.377 . S
C1005 C1006 1.379 . S
C1006 H990 0.931 . S
C1006 C1000 1.383 . S
C1006 C1005 1.379 . S
H1007 C1001 0.959 . S
H1008 C1001 0.961 . S
H1009 C1001 0.960 . S
H1010 C1002 0.930 . S
H1011 C1003 0.929 . S
H1012 C1020 0.929 . S
H1013 C1022 0.930 1_556 S
H1014 C1024 0.930 1_556 S
H1015 C1027 0.929 . S
H1016 C1030 0.930 . S
H1017 C1032 0.960 . S
H1018 C1032 0.960 . S
H1019 C1032 0.960 . S
C1020 H1012 0.929 . S
C1020 C1021 1.377 . S
C1020 C1022 1.384 . S
C1021 C1020 1.377 . S
C1021 C1027 1.390 . S
C1022 H1013 0.930 1_554 S
C1022 C1020 1.384 . S
C1022 C1023 1.372 1_554 S
C1023 C1022 1.372 1_556 S
C1023 C1024 1.400 1_556 S
C1023 C1028 1.490 . S
C1024 H1014 0.930 1_554 S
C1024 C1023 1.400 1_554 S
C1024 C1027 1.386 . S
H1025 C1041 0.930 . S
H1026 C1042 0.931 . S
C1027 H1015 0.929 . S
C1027 C1021 1.390 . S
C1027 C1024 1.386 . S
C1028 C1023 1.490 . S
C1028 C1030 1.395 . S
C1028 C1031 1.403 . S
H1029 C1035 0.930 . S
C1030 H1016 0.930 . S
C1030 C1028 1.395 . S
C1030 C1033 1.403 . S
C1031 C1028 1.403 . S
C1031 C1032 1.524 . S
C1031 C1035 1.400 . S
C1032 H1017 0.960 . S
C1032 H1018 0.960 . S
C1032 H1019 0.960 . S
C1032 C1031 1.524 . S
C1033 C1030 1.403 . S
C1033 C1034 1.392 . S
C1033 C1037 1.495 . S
C1034 C1033 1.392 . S
C1034 C1035 1.385 . S
C1034 C1036 1.478 . S
C1035 H1029 0.930 . S
C1035 C1031 1.400 . S
C1035 C1034 1.385 . S
C1036 C1034 1.478 . S
C1036 C1038 1.381 . S
C1036 C1042 1.383 . S
C1037 C1033 1.495 . S
C1037 H1043 0.959 . S
C1037 H1044 0.961 . S
C1037 H1045 0.960 . S
C1038 C1036 1.381 . S
C1038 C1039 1.394 . S
C1038 H1046 0.930 . S
C1039 C1038 1.394 . S
C1039 C1040 1.383 . S
C1039 H1047 0.929 . S
C1040 C1039 1.383 . S
C1040 C1041 1.377 . S
C1041 H1025 0.930 . S
C1041 C1040 1.377 . S
C1041 C1042 1.379 . S
C1042 H1026 0.931 . S
C1042 C1036 1.383 . S
C1042 C1041 1.379 . S
H1043 C1037 0.959 . S
H1044 C1037 0.961 . S
H1045 C1037 0.960 . S
H1046 C1038 0.930 . S
H1047 C1039 0.929 . S
H1048 C1056 0.929 . S
H1049 C1058 0.930 . S
H1050 C1060 0.930 . S
H1051 C1063 0.929 . S
H1052 C1066 0.930 . S
H1053 C1068 0.960 . S
H1054 C1068 0.960 . S
H1055 C1068 0.960 . S
C1056 H1048 0.929 . S
C1056 C1057 1.377 . S
C1056 C1058 1.384 . S
C1057 C1056 1.377 . S
C1057 C1063 1.390 . S
C1058 H1049 0.930 . S
C1058 C1056 1.384 . S
C1058 C1059 1.372 . S
C1059 C1058 1.372 . S
C1059 C1060 1.400 . S
C1059 C1064 1.490 . S
C1060 H1050 0.930 . S
C1060 C1059 1.400 . S
C1060 C1063 1.386 . S
H1061 C1077 0.930 . S
H1062 C1078 0.931 . S
C1063 H1051 0.929 . S
C1063 C1057 1.390 . S
C1063 C1060 1.386 . S
C1064 C1059 1.490 . S
C1064 C1066 1.395 . S
C1064 C1067 1.403 . S
H1065 C1071 0.930 . S
C1066 H1052 0.930 . S
C1066 C1064 1.395 . S
C1066 C1069 1.403 . S
C1067 C1064 1.403 . S
C1067 C1068 1.524 . S
C1067 C1071 1.400 . S
C1068 H1053 0.960 . S
C1068 H1054 0.960 . S
C1068 H1055 0.960 . S
C1068 C1067 1.524 . S
C1069 C1066 1.403 . S
C1069 C1070 1.392 . S
C1069 C1073 1.495 . S
C1070 C1069 1.392 . S
C1070 C1071 1.385 . S
C1070 C1072 1.478 . S
C1071 H1065 0.930 . S
C1071 C1067 1.400 . S
C1071 C1070 1.385 . S
C1072 C1070 1.478 . S
C1072 C1074 1.381 . S
C1072 C1078 1.383 . S
C1073 C1069 1.495 . S
C1073 H1079 0.959 . S
C1073 H1080 0.961 . S
C1073 H1081 0.960 . S
C1074 C1072 1.381 . S
C1074 C1075 1.394 . S
C1074 H1082 0.930 . S
C1075 C1074 1.394 . S
C1075 C1076 1.383 . S
C1075 H1083 0.929 . S
C1076 C1075 1.383 . S
C1076 C1077 1.377 . S
C1077 H1061 0.930 . S
C1077 C1076 1.377 . S
C1077 C1078 1.379 . S
C1078 H1062 0.931 . S
C1078 C1072 1.383 . S
C1078 C1077 1.379 . S
H1079 C1073 0.959 . S
H1080 C1073 0.961 . S
H1081 C1073 0.960 . S
H1082 C1074 0.930 . S
H1083 C1075 0.929 . S
H1084 C1092 0.929 . S
H1085 C1094 0.930 . S
H1086 C1096 0.930 . S
H1087 C1099 0.929 . S
H1088 C1102 0.930 . S
H1089 C1104 0.960 . S
H1090 C1104 0.960 . S
H1091 C1104 0.960 . S
C1092 H1084 0.929 . S
C1092 C1093 1.377 . S
C1092 C1094 1.384 . S
C1093 C1092 1.377 . S
C1093 C1099 1.390 . S
C1094 H1085 0.930 . S
C1094 C1092 1.384 . S
C1094 C1095 1.372 . S
C1095 C1094 1.372 . S
C1095 C1096 1.400 . S
C1095 C1100 1.490 . S
C1096 H1086 0.930 . S
C1096 C1095 1.400 . S
C1096 C1099 1.386 . S
H1097 C1113 0.930 . S
H1098 C1114 0.931 . S
C1099 H1087 0.929 . S
C1099 C1093 1.390 . S
C1099 C1096 1.386 . S
C1100 C1095 1.490 . S
C1100 C1102 1.395 . S
C1100 C1103 1.403 . S
H1101 C1107 0.930 . S
C1102 H1088 0.930 . S
C1102 C1100 1.395 . S
C1102 C1105 1.403 . S
C1103 C1100 1.403 . S
C1103 C1104 1.524 . S
C1103 C1107 1.400 . S
C1104 H1089 0.960 . S
C1104 H1090 0.960 . S
C1104 H1091 0.960 . S
C1104 C1103 1.524 . S
C1105 C1102 1.403 . S
C1105 C1106 1.392 . S
C1105 C1109 1.495 . S
C1106 C1105 1.392 . S
C1106 C1107 1.385 . S
C1106 C1108 1.478 . S
C1107 H1101 0.930 . S
C1107 C1103 1.400 . S
C1107 C1106 1.385 . S
C1108 C1106 1.478 . S
C1108 C1110 1.381 . S
C1108 C1114 1.383 . S
C1109 C1105 1.495 . S
C1109 H1115 0.959 . S
C1109 H1116 0.961 . S
C1109 H1117 0.960 . S
C1110 C1108 1.381 . S
C1110 C1111 1.394 . S
C1110 H1118 0.930 . S
C1111 C1110 1.394 . S
C1111 C1112 1.383 . S
C1111 H1119 0.929 . S
C1112 C1111 1.383 . S
C1112 C1113 1.377 . S
C1113 H1097 0.930 . S
C1113 C1112 1.377 . S
C1113 C1114 1.379 . S
C1114 H1098 0.931 . S
C1114 C1108 1.383 . S
C1114 C1113 1.379 . S
H1115 C1109 0.959 . S
H1116 C1109 0.961 . S
H1117 C1109 0.960 . S
H1118 C1110 0.930 . S
H1119 C1111 0.929 . S
H1120 C1128 0.929 . S
H1121 C1130 0.930 . S
H1122 C1132 0.930 . S
H1123 C1135 0.929 . S
H1124 C1138 0.930 . S
H1125 C1140 0.960 . S
H1126 C1140 0.960 . S
H1127 C1140 0.960 . S
C1128 H1120 0.929 . S
C1128 C1129 1.377 . S
C1128 C1130 1.384 . S
C1129 C1128 1.377 . S
C1129 C1135 1.390 . S
C1130 H1121 0.930 . S
C1130 C1128 1.384 . S
C1130 C1131 1.372 . S
C1131 C1130 1.372 . S
C1131 C1132 1.400 . S
C1131 C1136 1.490 . S
C1132 H1122 0.930 . S
C1132 C1131 1.400 . S
C1132 C1135 1.386 . S
H1133 C1149 0.930 . S
H1134 C1150 0.931 . S
C1135 H1123 0.929 . S
C1135 C1129 1.390 . S
C1135 C1132 1.386 . S
C1136 C1131 1.490 . S
C1136 C1138 1.395 . S
C1136 C1139 1.403 . S
H1137 C1143 0.930 . S
C1138 H1124 0.930 . S
C1138 C1136 1.395 . S
C1138 C1141 1.403 . S
C1139 C1136 1.403 . S
C1139 C1140 1.524 . S
C1139 C1143 1.400 . S
C1140 H1125 0.960 . S
C1140 H1126 0.960 . S
C1140 H1127 0.960 . S
C1140 C1139 1.524 . S
C1141 C1138 1.403 . S
C1141 C1142 1.392 . S
C1141 C1145 1.495 . S
C1142 C1141 1.392 . S
C1142 C1143 1.385 . S
C1142 C1144 1.478 . S
C1143 H1137 0.930 . S
C1143 C1139 1.400 . S
C1143 C1142 1.385 . S
C1144 C1142 1.478 . S
C1144 C1146 1.381 . S
C1144 C1150 1.383 . S
C1145 C1141 1.495 . S
C1145 H1151 0.959 . S
C1145 H1152 0.961 . S
C1145 H1153 0.960 . S
C1146 C1144 1.381 . S
C1146 C1147 1.394 . S
C1146 H1154 0.930 . S
C1147 C1146 1.394 . S
C1147 C1148 1.383 . S
C1147 H1155 0.929 . S
C1148 C1147 1.383 . S
C1148 C1149 1.377 . S
C1149 H1133 0.930 . S
C1149 C1148 1.377 . S
C1149 C1150 1.379 . S
C1150 H1134 0.931 . S
C1150 C1144 1.383 . S
C1150 C1149 1.379 . S
H1151 C1145 0.959 . S
H1152 C1145 0.961 . S
H1153 C1145 0.960 . S
H1154 C1146 0.930 . S
H1155 C1147 0.929 . S
H1156 C1164 0.929 . S
H1157 C1166 0.930 . S
H1158 C1168 0.930 . S
H1159 C1171 0.929 . S
H1160 C1174 0.930 . S
H1161 C1176 0.960 . S
H1162 C1176 0.960 . S
H1163 C1176 0.960 . S
C1164 H1156 0.929 . S
C1164 C1165 1.377 . S
C1164 C1166 1.384 . S
C1165 C1164 1.377 . S
C1165 C1171 1.390 . S
C1166 H1157 0.930 . S
C1166 C1164 1.384 . S
C1166 C1167 1.372 . S
C1167 C1166 1.372 . S
C1167 C1168 1.400 . S
C1167 C1172 1.490 . S
C1168 H1158 0.930 . S
C1168 C1167 1.400 . S
C1168 C1171 1.386 . S
H1169 C1185 0.930 . S
H1170 C1186 0.931 . S
C1171 H1159 0.929 . S
C1171 C1165 1.390 . S
C1171 C1168 1.386 . S
C1172 C1167 1.490 . S
C1172 C1174 1.395 . S
C1172 C1175 1.403 . S
H1173 C1179 0.930 . S
C1174 H1160 0.930 . S
C1174 C1172 1.395 . S
C1174 C1177 1.403 . S
C1175 C1172 1.403 . S
C1175 C1176 1.524 . S
C1175 C1179 1.400 . S
C1176 H1161 0.960 . S
C1176 H1162 0.960 . S
C1176 H1163 0.960 . S
C1176 C1175 1.524 . S
C1177 C1174 1.403 . S
C1177 C1178 1.392 . S
C1177 C1181 1.495 . S
C1178 C1177 1.392 . S
C1178 C1179 1.385 . S
C1178 C1180 1.478 . S
C1179 H1173 0.930 . S
C1179 C1175 1.400 . S
C1179 C1178 1.385 . S
C1180 C1178 1.478 . S
C1180 C1182 1.381 . S
C1180 C1186 1.383 . S
C1181 C1177 1.495 . S
C1181 H1187 0.959 . S
C1181 H1188 0.961 . S
C1181 H1189 0.960 . S
C1182 C1180 1.381 . S
C1182 C1183 1.394 . S
C1182 H1190 0.930 . S
C1183 C1182 1.394 . S
C1183 C1184 1.383 . S
C1183 H1191 0.929 . S
C1184 C1183 1.383 . S
C1184 C1185 1.377 . S
C1185 H1169 0.930 . S
C1185 C1184 1.377 . S
C1185 C1186 1.379 . S
C1186 H1170 0.931 . S
C1186 C1180 1.383 . S
C1186 C1185 1.379 . S
H1187 C1181 0.959 . S
H1188 C1181 0.961 . S
H1189 C1181 0.960 . S
H1190 C1182 0.930 . S
H1191 C1183 0.929 . S
H1192 C1200 0.929 . S
H1193 C1202 0.930 . S
H1194 C1204 0.930 . S
H1195 C1207 0.929 . S
H1196 C1210 0.930 . S
H1197 C1212 0.960 . S
H1198 C1212 0.960 . S
H1199 C1212 0.960 . S
C1200 H1192 0.929 . S
C1200 C1201 1.377 . S
C1200 C1202 1.384 . S
C1201 C1200 1.377 . S
C1201 C1207 1.390 . S
C1202 H1193 0.930 . S
C1202 C1200 1.384 . S
C1202 C1203 1.372 . S
C1203 C1202 1.372 . S
C1203 C1204 1.400 . S
C1203 C1208 1.490 . S
C1204 H1194 0.930 . S
C1204 C1203 1.400 . S
C1204 C1207 1.386 . S
H1205 C1221 0.930 . S
H1206 C1222 0.931 . S
C1207 H1195 0.929 . S
C1207 C1201 1.390 . S
C1207 C1204 1.386 . S
C1208 C1203 1.490 . S
C1208 C1210 1.395 . S
C1208 C1211 1.403 . S
H1209 C1215 0.930 . S
C1210 H1196 0.930 . S
C1210 C1208 1.395 . S
C1210 C1213 1.403 . S
C1211 C1208 1.403 . S
C1211 C1212 1.524 . S
C1211 C1215 1.400 . S
C1212 H1197 0.960 . S
C1212 H1198 0.960 . S
C1212 H1199 0.960 . S
C1212 C1211 1.524 . S
C1213 C1210 1.403 . S
C1213 C1214 1.392 . S
C1213 C1217 1.495 . S
C1214 C1213 1.392 . S
C1214 C1215 1.385 . S
C1214 C1216 1.478 . S
C1215 H1209 0.930 . S
C1215 C1211 1.400 . S
C1215 C1214 1.385 . S
C1216 C1214 1.478 . S
C1216 C1218 1.381 . S
C1216 C1222 1.383 . S
C1217 C1213 1.495 . S
C1217 H1223 0.959 . S
C1217 H1224 0.961 . S
C1217 H1225 0.960 . S
C1218 C1216 1.381 . S
C1218 C1219 1.394 . S
C1218 H1226 0.930 . S
C1219 C1218 1.394 . S
C1219 C1220 1.383 . S
C1219 H1227 0.929 . S
C1220 C1219 1.383 . S
C1220 C1221 1.377 . S
C1221 H1205 0.930 . S
C1221 C1220 1.377 . S
C1221 C1222 1.379 . S
C1222 H1206 0.931 . S
C1222 C1216 1.383 . S
C1222 C1221 1.379 . S
H1223 C1217 0.959 . S
H1224 C1217 0.961 . S
H1225 C1217 0.960 . S
H1226 C1218 0.930 . S
H1227 C1219 0.929 . S
H1228 C1236 0.929 . S
H1229 C1238 0.930 . S
H1230 C1240 0.930 . S
H1231 C1243 0.929 . S
H1232 C1246 0.930 . S
H1233 C1248 0.960 . S
H1234 C1248 0.960 . S
H1235 C1248 0.960 . S
C1236 H1228 0.929 . S
C1236 C1237 1.400 . S
C1236 C1238 1.384 1_544 S
C1237 C1236 1.400 . S
C1237 C1243 1.335 1_545 S
C1238 H1229 0.930 . S
C1238 C1236 1.384 1_566 S
C1238 C1239 1.372 . S
C1239 C1238 1.372 . S
C1239 C1240 1.400 . S
C1239 C1244 1.490 . S
C1240 H1230 0.930 . S
C1240 C1239 1.400 . S
C1240 C1243 1.386 1_556 S
H1241 C1257 0.930 . S
H1242 C1258 0.931 . S
C1243 H1231 0.929 . S
C1243 C1237 1.335 1_565 S
C1243 C1240 1.386 1_554 S
C1244 C1239 1.490 . S
C1244 C1246 1.395 . S
C1244 C1247 1.403 . S
H1245 C1251 0.930 . S
C1246 H1232 0.930 . S
C1246 C1244 1.395 . S
C1246 C1249 1.403 . S
C1247 C1244 1.403 . S
C1247 C1248 1.524 1_556 S
C1247 C1251 1.400 . S
C1248 H1233 0.960 . S
C1248 H1234 0.960 . S
C1248 H1235 0.960 . S
C1248 C1247 1.524 1_554 S
C1249 C1246 1.403 . S
C1249 C1250 1.392 . S
C1249 C1253 1.495 . S
C1250 C1249 1.392 . S
C1250 C1251 1.385 . S
C1250 C1252 1.478 . S
C1251 H1245 0.930 . S
C1251 C1247 1.400 . S
C1251 C1250 1.385 . S
C1252 C1250 1.478 . S
C1252 C1254 1.381 . S
C1252 C1258 1.383 . S
C1253 C1249 1.495 . S
C1253 H1259 0.959 . S
C1253 H1260 0.961 . S
C1253 H1261 0.960 . S
C1254 C1252 1.381 . S
C1254 C1255 1.394 . S
C1254 H1262 0.930 . S
C1255 C1254 1.394 . S
C1255 C1256 1.383 . S
C1255 H1263 0.929 . S
C1256 C1255 1.383 . S
C1256 C1257 1.377 . S
C1257 H1241 0.930 . S
C1257 C1256 1.377 . S
C1257 C1258 1.379 . S
C1258 H1242 0.931 . S
C1258 C1252 1.383 . S
C1258 C1257 1.379 . S
H1259 C1253 0.959 . S
H1260 C1253 0.961 . S
H1261 C1253 0.960 . S
H1262 C1254 0.930 . S
H1263 C1255 0.929 . S
H1264 C1272 0.929 . S
H1265 C1274 0.930 . S
H1266 C1276 0.930 . S
H1267 C1279 0.929 . S
H1268 C1282 0.930 . S
H1269 C1284 0.960 . S
H1270 C1284 0.960 . S
H1271 C1284 0.960 . S
C1272 H1264 0.929 . S
C1272 C1273 1.377 . S
C1272 C1274 1.384 . S
C1273 C1272 1.377 . S
C1273 C1279 1.390 . S
C1274 H1265 0.930 . S
C1274 C1272 1.384 . S
C1274 C1275 1.372 . S
C1275 C1274 1.372 . S
C1275 C1276 1.400 . S
C1275 C1280 1.490 . S
C1276 H1266 0.930 . S
C1276 C1275 1.400 . S
C1276 C1279 1.386 . S
H1277 C1293 0.930 . S
H1278 C1294 0.931 . S
C1279 H1267 0.929 . S
C1279 C1273 1.390 . S
C1279 C1276 1.386 . S
C1280 C1275 1.490 . S
C1280 C1282 1.395 . S
C1280 C1283 1.403 . S
H1281 C1287 0.930 . S
C1282 H1268 0.930 . S
C1282 C1280 1.395 . S
C1282 C1285 1.403 . S
C1283 C1280 1.403 . S
C1283 C1284 1.524 . S
C1283 C1287 1.400 . S
C1284 H1269 0.960 . S
C1284 H1270 0.960 . S
C1284 H1271 0.960 . S
C1284 C1283 1.524 . S
C1285 C1282 1.403 . S
C1285 C1286 1.392 . S
C1285 C1289 1.495 . S
C1286 C1285 1.392 . S
C1286 C1287 1.385 . S
C1286 C1288 1.478 . S
C1287 H1281 0.930 . S
C1287 C1283 1.400 . S
C1287 C1286 1.385 . S
C1288 C1286 1.478 . S
C1288 C1290 1.381 . S
C1288 C1294 1.383 1_556 S
C1289 C1285 1.495 . S
C1289 H1295 0.959 . S
C1289 H1296 0.961 . S
C1289 H1297 0.960 . S
C1290 C1288 1.381 . S
C1290 C1291 1.394 . S
C1290 H1298 0.930 . S
C1291 C1290 1.394 . S
C1291 C1292 1.383 1_556 S
C1291 H1299 0.929 . S
C1292 C1291 1.383 1_554 S
C1292 C1293 1.377 . S
C1293 H1277 0.930 . S
C1293 C1292 1.377 . S
C1293 C1294 1.379 . S
C1294 H1278 0.931 . S
C1294 C1288 1.383 1_554 S
C1294 C1293 1.379 . S
H1295 C1289 0.959 . S
H1296 C1289 0.961 . S
H1297 C1289 0.960 . S
H1298 C1290 0.930 . S
H1299 C1291 0.929 . S
H1300 C1308 0.929 . S
H1301 C1310 0.930 . S
H1302 C1312 0.930 . S
H1303 C1315 0.929 . S
H1304 C1318 0.930 . S
H1305 C1320 0.960 . S
H1306 C1320 0.960 . S
H1307 C1320 0.960 . S
C1308 H1300 0.929 . S
C1308 C1309 1.377 . S
C1308 C1310 1.384 . S
C1309 C1308 1.377 . S
C1309 C1315 1.390 . S
C1310 H1301 0.930 . S
C1310 C1308 1.384 . S
C1310 C1311 1.372 . S
C1311 C1310 1.372 . S
C1311 C1312 1.400 . S
C1311 C1316 1.490 . S
C1312 H1302 0.930 . S
C1312 C1311 1.400 . S
C1312 C1315 1.386 . S
H1313 C1329 0.937 . S
H1314 C1330 0.931 . S
C1315 H1303 0.929 . S
C1315 C1309 1.390 . S
C1315 C1312 1.386 . S
C1316 C1311 1.490 . S
C1316 C1318 1.395 . S
C1316 C1319 1.403 . S
H1317 C1323 0.930 . S
C1318 H1304 0.930 . S
C1318 C1316 1.395 . S
C1318 C1321 1.403 . S
C1319 C1316 1.403 . S
C1319 C1320 1.524 . S
C1319 C1323 1.400 . S
C1320 H1305 0.960 . S
C1320 H1306 0.960 . S
C1320 H1307 0.960 . S
C1320 C1319 1.524 . S
C1321 C1318 1.403 . S
C1321 C1322 1.392 . S
C1321 C1325 1.495 . S
C1322 C1321 1.392 . S
C1322 C1323 1.385 . S
C1322 C1324 1.478 . S
C1323 H1317 0.930 . S
C1323 C1319 1.400 . S
C1323 C1322 1.385 . S
C1324 C1322 1.478 . S
C1324 C1326 1.381 . S
C1324 C1330 1.383 . S
C1325 C1321 1.495 . S
C1325 H1331 0.959 . S
C1325 H1332 0.961 . S
C1325 H1333 0.960 . S
C1326 C1324 1.381 . S
C1326 C1327 1.394 . S
C1326 H1334 0.930 . S
C1327 C1326 1.394 . S
C1327 C1328 1.383 1_565 S
C1327 H1335 0.926 . S
C1328 C1327 1.383 1_545 S
C1328 C1329 1.377 1_545 S
C1329 H1313 0.937 . S
C1329 C1328 1.377 1_565 S
C1329 C1330 1.379 . S
C1330 H1314 0.931 . S
C1330 C1324 1.383 . S
C1330 C1329 1.379 . S
H1331 C1325 0.959 . S
H1332 C1325 0.961 . S
H1333 C1325 0.960 . S
H1334 C1326 0.930 . S
H1335 C1327 0.926 . S
H1336 C1344 0.929 . S
H1337 C1346 0.930 . S
H1338 C1348 0.930 . S
H1339 C1351 0.929 . S
H1340 C1354 0.930 . S
H1341 C1356 0.960 . S
H1342 C1356 0.960 . S
H1343 C1356 0.960 . S
C1344 H1336 0.929 . S
C1344 C1345 1.377 . S
C1344 C1346 1.384 . S
C1345 C1344 1.377 . S
C1345 C1351 1.390 . S
C1346 H1337 0.930 . S
C1346 C1344 1.384 . S
C1346 C1347 1.372 . S
C1347 C1346 1.372 . S
C1347 C1348 1.400 . S
C1347 C1352 1.490 . S
C1348 H1338 0.930 . S
C1348 C1347 1.400 . S
C1348 C1351 1.386 . S
H1349 C1365 0.930 . S
H1350 C1366 0.931 . S
C1351 H1339 0.929 . S
C1351 C1345 1.390 . S
C1351 C1348 1.386 . S
C1352 C1347 1.490 . S
C1352 C1354 1.395 . S
C1352 C1355 1.403 . S
H1353 C1359 0.930 . S
C1354 H1340 0.930 . S
C1354 C1352 1.395 . S
C1354 C1357 1.403 . S
C1355 C1352 1.403 . S
C1355 C1356 1.524 . S
C1355 C1359 1.400 . S
C1356 H1341 0.960 . S
C1356 H1342 0.960 . S
C1356 H1343 0.960 . S
C1356 C1355 1.524 . S
C1357 C1354 1.403 . S
C1357 C1358 1.392 . S
C1357 C1361 1.495 . S
C1358 C1357 1.392 . S
C1358 C1359 1.385 . S
C1358 C1360 1.478 . S
C1359 H1353 0.930 . S
C1359 C1355 1.400 . S
C1359 C1358 1.385 . S
C1360 C1358 1.478 . S
C1360 C1362 1.381 . S
C1360 C1366 1.383 . S
C1361 C1357 1.495 . S
C1361 H1367 0.959 . S
C1361 H1368 0.961 . S
C1361 H1369 0.960 . S
C1362 C1360 1.381 . S
C1362 C1363 1.394 . S
C1362 H1370 0.930 . S
C1363 C1362 1.394 . S
C1363 C1364 1.383 . S
C1363 H1371 0.929 . S
C1364 C1363 1.383 . S
C1364 C1365 1.377 . S
C1365 H1349 0.930 . S
C1365 C1364 1.377 . S
C1365 C1366 1.379 . S
C1366 H1350 0.931 . S
C1366 C1360 1.383 . S
C1366 C1365 1.379 . S
H1367 C1361 0.959 . S
H1368 C1361 0.961 . S
H1369 C1361 0.960 . S
H1370 C1362 0.930 . S
H1371 C1363 0.929 . S
H1372 C1380 0.929 . S
H1373 C1382 0.930 . S
H1374 C1384 0.930 . S
H1375 C1387 0.929 . S
H1376 C1390 0.930 . S
H1377 C1392 0.960 . S
H1378 C1392 0.960 . S
H1379 C1392 0.960 . S
C1380 H1372 0.929 . S
C1380 C1381 1.377 . S
C1380 C1382 1.384 . S
C1381 C1380 1.377 . S
C1381 C1387 1.390 . S
C1382 H1373 0.930 . S
C1382 C1380 1.384 . S
C1382 C1383 1.372 . S
C1383 C1382 1.372 . S
C1383 C1384 1.400 . S
C1383 C1388 1.490 . S
C1384 H1374 0.930 . S
C1384 C1383 1.400 . S
C1384 C1387 1.386 . S
H1385 C1401 0.930 . S
H1386 C1402 0.931 . S
C1387 H1375 0.929 . S
C1387 C1381 1.390 . S
C1387 C1384 1.386 . S
C1388 C1383 1.490 . S
C1388 C1390 1.395 . S
C1388 C1391 1.403 . S
H1389 C1395 0.930 . S
C1390 H1376 0.930 . S
C1390 C1388 1.395 . S
C1390 C1393 1.403 . S
C1391 C1388 1.403 . S
C1391 C1392 1.524 . S
C1391 C1395 1.400 . S
C1392 H1377 0.960 . S
C1392 H1378 0.960 . S
C1392 H1379 0.960 . S
C1392 C1391 1.524 . S
C1393 C1390 1.403 . S
C1393 C1394 1.392 . S
C1393 C1397 1.495 . S
C1394 C1393 1.392 . S
C1394 C1395 1.385 . S
C1394 C1396 1.478 . S
C1395 H1389 0.930 . S
C1395 C1391 1.400 . S
C1395 C1394 1.385 . S
C1396 C1394 1.478 . S
C1396 C1398 1.381 . S
C1396 C1402 1.383 . S
C1397 C1393 1.495 . S
C1397 H1403 0.959 . S
C1397 H1404 0.961 . S
C1397 H1405 0.960 . S
C1398 C1396 1.381 . S
C1398 C1399 1.394 . S
C1398 H1406 0.930 . S
C1399 C1398 1.394 . S
C1399 C1400 1.383 . S
C1399 H1407 0.929 . S
C1400 C1399 1.383 . S
C1400 C1401 1.377 . S
C1401 H1385 0.930 . S
C1401 C1400 1.377 . S
C1401 C1402 1.379 . S
C1402 H1386 0.931 . S
C1402 C1396 1.383 . S
C1402 C1401 1.379 . S
H1403 C1397 0.959 . S
H1404 C1397 0.961 . S
H1405 C1397 0.960 . S
H1406 C1398 0.930 . S
H1407 C1399 0.929 . S
H1408 C1416 0.929 . S
H1409 C1418 0.930 . S
H1410 C1420 0.930 . S
H1411 C1423 0.929 . S
H1412 C1426 0.930 . S
H1413 C1428 0.960 . S
H1414 C1428 0.960 . S
H1415 C1428 0.960 . S
C1416 H1408 0.929 . S
C1416 C1417 1.377 . S
C1416 C1418 1.384 . S
C1417 C1416 1.377 . S
C1417 C1423 1.390 . S
C1418 H1409 0.930 . S
C1418 C1416 1.384 . S
C1418 C1419 1.372 . S
C1419 C1418 1.372 . S
C1419 C1420 1.400 . S
C1419 C1424 1.490 . S
C1420 H1410 0.930 . S
C1420 C1419 1.400 . S
C1420 C1423 1.386 . S
H1421 C1437 0.930 . S
H1422 C1438 0.931 . S
C1423 H1411 0.929 . S
C1423 C1417 1.390 . S
C1423 C1420 1.386 . S
C1424 C1419 1.490 . S
C1424 C1426 1.395 . S
C1424 C1427 1.403 . S
H1425 C1431 0.930 . S
C1426 H1412 0.930 . S
C1426 C1424 1.395 . S
C1426 C1429 1.403 . S
C1427 C1424 1.403 . S
C1427 C1428 1.524 . S
C1427 C1431 1.400 . S
C1428 H1413 0.960 . S
C1428 H1414 0.960 . S
C1428 H1415 0.960 . S
C1428 C1427 1.524 . S
C1429 C1426 1.403 . S
C1429 C1430 1.392 . S
C1429 C1433 1.495 . S
C1430 C1429 1.392 . S
C1430 C1431 1.385 . S
C1430 C1432 1.478 . S
C1431 H1425 0.930 . S
C1431 C1427 1.400 . S
C1431 C1430 1.385 . S
C1432 C1430 1.478 . S
C1432 C1434 1.381 . S
C1432 C1438 1.383 . S
C1433 C1429 1.495 . S
C1433 H1439 0.959 . S
C1433 H1440 0.961 . S
C1433 H1441 0.960 . S
C1434 C1432 1.381 . S
C1434 C1435 1.394 . S
C1434 H1442 0.930 . S
C1435 C1434 1.394 . S
C1435 C1436 1.383 . S
C1435 H1443 0.929 . S
C1436 C1435 1.383 . S
C1436 C1437 1.377 . S
C1437 H1421 0.930 . S
C1437 C1436 1.377 . S
C1437 C1438 1.379 . S
C1438 H1422 0.931 . S
C1438 C1432 1.383 . S
C1438 C1437 1.379 . S
H1439 C1433 0.959 . S
H1440 C1433 0.961 . S
H1441 C1433 0.960 . S
H1442 C1434 0.930 . S
H1443 C1435 0.929 . S
H1444 C1452 0.929 . S
H1445 C1454 0.930 . S
H1446 C1456 0.930 . S
H1447 C1459 0.929 . S
H1448 C1462 0.930 . S
H1449 C1464 0.960 . S
H1450 C1464 0.960 . S
H1451 C1464 0.960 . S
C1452 H1444 0.929 . S
C1452 C1453 1.377 . S
C1452 C1454 1.384 . S
C1453 C1452 1.377 . S
C1453 C1459 1.390 . S
C1454 H1445 0.930 . S
C1454 C1452 1.384 . S
C1454 C1455 1.372 . S
C1455 C1454 1.372 . S
C1455 C1456 1.400 . S
C1455 C1460 1.490 . S
C1456 H1446 0.930 . S
C1456 C1455 1.400 . S
C1456 C1459 1.386 . S
H1457 C1473 0.930 . S
H1458 C1474 0.931 . S
C1459 H1447 0.929 . S
C1459 C1453 1.390 . S
C1459 C1456 1.386 . S
C1460 C1455 1.490 . S
C1460 C1462 1.395 . S
C1460 C1463 1.403 . S
H1461 C1467 0.930 . S
C1462 H1448 0.930 . S
C1462 C1460 1.395 . S
C1462 C1465 1.403 . S
C1463 C1460 1.403 . S
C1463 C1464 1.524 . S
C1463 C1467 1.400 . S
C1464 H1449 0.960 . S
C1464 H1450 0.960 . S
C1464 H1451 0.960 . S
C1464 C1463 1.524 . S
C1465 C1462 1.403 . S
C1465 C1466 1.392 . S
C1465 C1469 1.495 1_556 S
C1466 C1465 1.392 . S
C1466 C1467 1.385 . S
C1466 C1468 1.478 . S
C1467 H1461 0.930 . S
C1467 C1463 1.400 . S
C1467 C1466 1.385 . S
C1468 C1466 1.478 . S
C1468 C1470 1.381 1_556 S
C1468 C1474 1.383 . S
C1469 C1465 1.495 1_554 S
C1469 H1475 0.959 . S
C1469 H1476 0.961 . S
C1469 H1477 0.960 . S
C1470 C1468 1.381 1_554 S
C1470 C1471 1.394 . S
C1470 H1478 0.930 . S
C1471 C1470 1.394 . S
C1471 C1472 1.383 . S
C1471 H1479 0.929 . S
C1472 C1471 1.383 . S
C1472 C1473 1.377 1_554 S
C1473 H1457 0.930 . S
C1473 C1472 1.377 1_556 S
C1473 C1474 1.379 . S
C1474 H1458 0.931 . S
C1474 C1468 1.383 . S
C1474 C1473 1.379 . S
H1475 C1469 0.959 . S
H1476 C1469 0.961 . S
H1477 C1469 0.960 . S
H1478 C1470 0.930 . S
H1479 C1471 0.929 . S
H1480 C1488 0.929 . S
H1481 C1490 0.930 . S
H1482 C1492 0.930 . S
H1483 C1495 0.929 . S
H1484 C1498 0.930 . S
H1485 C1500 0.960 . S
H1486 C1500 0.960 . S
H1487 C1500 0.960 . S
C1488 H1480 0.929 . S
C1488 C1489 1.377 . S
C1488 C1490 1.384 . S
C1489 C1488 1.377 . S
C1489 C1495 1.390 . S
C1490 H1481 0.930 . S
C1490 C1488 1.384 . S
C1490 C1491 1.372 . S
C1491 C1490 1.372 . S
C1491 C1492 1.400 . S
C1491 C1496 1.490 . S
C1492 H1482 0.930 . S
C1492 C1491 1.400 . S
C1492 C1495 1.386 . S
H1493 C1509 0.930 . S
H1494 C1510 0.931 . S
C1495 H1483 0.929 . S
C1495 C1489 1.390 . S
C1495 C1492 1.386 . S
C1496 C1491 1.490 . S
C1496 C1498 1.395 . S
C1496 C1499 1.403 . S
H1497 C1503 0.930 . S
C1498 H1484 0.930 . S
C1498 C1496 1.395 . S
C1498 C1501 1.403 . S
C1499 C1496 1.403 . S
C1499 C1500 1.524 . S
C1499 C1503 1.400 . S
C1500 H1485 0.960 . S
C1500 H1486 0.960 . S
C1500 H1487 0.960 . S
C1500 C1499 1.524 . S
C1501 C1498 1.403 . S
C1501 C1502 1.392 . S
C1501 C1505 1.495 . S
C1502 C1501 1.392 . S
C1502 C1503 1.385 . S
C1502 C1504 1.478 . S
C1503 H1497 0.930 . S
C1503 C1499 1.400 . S
C1503 C1502 1.385 . S
C1504 C1502 1.478 . S
C1504 C1506 1.381 . S
C1504 C1510 1.383 . S
C1505 C1501 1.495 . S
C1505 H1511 0.959 . S
C1505 H1512 0.961 . S
C1505 H1513 0.960 . S
C1506 C1504 1.381 . S
C1506 C1507 1.394 . S
C1506 H1514 0.930 . S
C1507 C1506 1.394 . S
C1507 C1508 1.383 . S
C1507 H1515 0.929 . S
C1508 C1507 1.383 . S
C1508 C1509 1.377 . S
C1509 H1493 0.930 . S
C1509 C1508 1.377 . S
C1509 C1510 1.379 . S
C1510 H1494 0.931 . S
C1510 C1504 1.383 . S
C1510 C1509 1.379 . S
H1511 C1505 0.959 . S
H1512 C1505 0.961 . S
H1513 C1505 0.960 . S
H1514 C1506 0.930 . S
H1515 C1507 0.929 . S
H1516 C1524 0.929 . S
H1517 C1526 0.930 . S
H1518 C1528 0.930 . S
H1519 C1531 0.929 . S
H1520 C1534 0.930 . S
H1521 C1536 0.960 . S
H1522 C1536 0.960 . S
H1523 C1536 0.960 . S
C1524 H1516 0.929 . S
C1524 C1525 1.377 . S
C1524 C1526 1.384 . S
C1525 C1524 1.377 . S
C1525 C1531 1.390 . S
C1526 H1517 0.930 . S
C1526 C1524 1.384 . S
C1526 C1527 1.372 . S
C1527 C1526 1.372 . S
C1527 C1528 1.400 . S
C1527 C1532 1.490 . S
C1528 H1518 0.930 . S
C1528 C1527 1.400 . S
C1528 C1531 1.386 . S
H1529 C1545 0.930 . S
H1530 C1546 0.931 . S
C1531 H1519 0.929 . S
C1531 C1525 1.390 . S
C1531 C1528 1.386 . S
C1532 C1527 1.490 . S
C1532 C1534 1.395 . S
C1532 C1535 1.403 . S
H1533 C1539 0.930 . S
C1534 H1520 0.930 . S
C1534 C1532 1.395 . S
C1534 C1537 1.403 . S
C1535 C1532 1.403 . S
C1535 C1536 1.524 . S
C1535 C1539 1.400 . S
C1536 H1521 0.960 . S
C1536 H1522 0.960 . S
C1536 H1523 0.960 . S
C1536 C1535 1.524 . S
C1537 C1534 1.403 . S
C1537 C1538 1.392 . S
C1537 C1541 1.495 . S
C1538 C1537 1.392 . S
C1538 C1539 1.385 . S
C1538 C1540 1.478 . S
C1539 H1533 0.930 . S
C1539 C1535 1.400 . S
C1539 C1538 1.385 . S
C1540 C1538 1.478 . S
C1540 C1542 1.381 . S
C1540 C1546 1.383 . S
C1541 C1537 1.495 . S
C1541 H1547 0.959 . S
C1541 H1548 0.961 . S
C1541 H1549 0.960 . S
C1542 C1540 1.381 . S
C1542 C1543 1.394 . S
C1542 H1550 0.930 . S
C1543 C1542 1.394 . S
C1543 C1544 1.383 . S
C1543 H1551 0.929 . S
C1544 C1543 1.383 . S
C1544 C1545 1.377 . S
C1545 H1529 0.930 . S
C1545 C1544 1.377 . S
C1545 C1546 1.379 . S
C1546 H1530 0.931 . S
C1546 C1540 1.383 . S
C1546 C1545 1.379 . S
H1547 C1541 0.959 . S
H1548 C1541 0.961 . S
H1549 C1541 0.960 . S
H1550 C1542 0.930 . S
H1551 C1543 0.929 . S
H1552 C1560 0.929 . S
H1553 C1562 0.930 . S
H1554 C1564 0.930 . S
H1555 C1567 0.929 . S
H1556 C1570 0.930 . S
H1557 C1572 0.960 . S
H1558 C1572 0.960 . S
H1559 C1572 0.960 . S
C1560 H1552 0.929 . S
C1560 C1561 1.377 . S
C1560 C1562 1.384 . S
C1561 C1560 1.377 . S
C1561 C1567 1.390 . S
C1562 H1553 0.930 . S
C1562 C1560 1.384 . S
C1562 C1563 1.372 . S
C1563 C1562 1.372 . S
C1563 C1564 1.400 . S
C1563 C1568 1.490 . S
C1564 H1554 0.930 . S
C1564 C1563 1.400 . S
C1564 C1567 1.386 . S
H1565 C1581 0.930 . S
H1566 C1582 0.931 . S
C1567 H1555 0.929 . S
C1567 C1561 1.390 . S
C1567 C1564 1.386 . S
C1568 C1563 1.490 . S
C1568 C1570 1.395 . S
C1568 C1571 1.403 . S
H1569 C1575 0.930 . S
C1570 H1556 0.930 . S
C1570 C1568 1.395 . S
C1570 C1573 1.403 . S
C1571 C1568 1.403 . S
C1571 C1572 1.524 . S
C1571 C1575 1.400 . S
C1572 H1557 0.960 . S
C1572 H1558 0.960 . S
C1572 H1559 0.960 . S
C1572 C1571 1.524 . S
C1573 C1570 1.403 . S
C1573 C1574 1.392 . S
C1573 C1577 1.495 . S
C1574 C1573 1.392 . S
C1574 C1575 1.385 . S
C1574 C1576 1.478 . S
C1575 H1569 0.930 . S
C1575 C1571 1.400 . S
C1575 C1574 1.385 . S
C1576 C1574 1.478 . S
C1576 C1578 1.381 . S
C1576 C1582 1.383 . S
C1577 C1573 1.495 . S
C1577 H1583 0.959 . S
C1577 H1584 0.961 . S
C1577 H1585 0.960 . S
C1578 C1576 1.381 . S
C1578 C1579 1.394 . S
C1578 H1586 0.930 . S
C1579 C1578 1.394 . S
C1579 C1580 1.383 . S
C1579 H1587 0.929 . S
C1580 C1579 1.383 . S
C1580 C1581 1.377 . S
C1581 H1565 0.930 . S
C1581 C1580 1.377 . S
C1581 C1582 1.379 . S
C1582 H1566 0.931 . S
C1582 C1576 1.383 . S
C1582 C1581 1.379 . S
H1583 C1577 0.959 . S
H1584 C1577 0.961 . S
H1585 C1577 0.960 . S
H1586 C1578 0.930 . S
H1587 C1579 0.929 . S
H1588 C1596 0.929 . S
H1589 C1598 0.930 . S
H1590 C1600 0.930 . S
H1591 C1603 0.929 . S
H1592 C1606 0.930 . S
H1593 C1608 0.960 . S
H1594 C1608 0.960 . S
H1595 C1608 0.960 . S
C1596 H1588 0.929 . S
C1596 C1597 1.377 . S
C1596 C1598 1.384 . S
C1597 C1596 1.377 . S
C1597 C1603 1.390 . S
C1598 H1589 0.930 . S
C1598 C1596 1.384 . S
C1598 C1599 1.372 . S
C1599 C1598 1.372 . S
C1599 C1600 1.400 . S
C1599 C1604 1.490 . S
C1600 H1590 0.930 . S
C1600 C1599 1.400 . S
C1600 C1603 1.386 . S
H1601 C1617 0.930 . S
H1602 C1618 0.931 . S
C1603 H1591 0.929 . S
C1603 C1597 1.390 . S
C1603 C1600 1.386 . S
C1604 C1599 1.490 . S
C1604 C1606 1.395 . S
C1604 C1607 1.403 . S
H1605 C1611 0.930 . S
C1606 H1592 0.930 . S
C1606 C1604 1.395 . S
C1606 C1609 1.403 . S
C1607 C1604 1.403 . S
C1607 C1608 1.524 . S
C1607 C1611 1.400 . S
C1608 H1593 0.960 . S
C1608 H1594 0.960 . S
C1608 H1595 0.960 . S
C1608 C1607 1.524 . S
C1609 C1606 1.403 . S
C1609 C1610 1.392 . S
C1609 C1613 1.495 . S
C1610 C1609 1.392 . S
C1610 C1611 1.385 . S
C1610 C1612 1.478 . S
C1611 H1605 0.930 . S
C1611 C1607 1.400 . S
C1611 C1610 1.385 . S
C1612 C1610 1.478 . S
C1612 C1614 1.381 . S
C1612 C1618 1.383 . S
C1613 C1609 1.495 . S
C1613 H1619 0.959 . S
C1613 H1620 0.961 . S
C1613 H1621 0.960 . S
C1614 C1612 1.381 . S
C1614 C1615 1.394 . S
C1614 H1622 0.930 . S
C1615 C1614 1.394 . S
C1615 C1616 1.383 . S
C1615 H1623 0.929 . S
C1616 C1615 1.383 . S
C1616 C1617 1.377 . S
C1617 H1601 0.930 . S
C1617 C1616 1.377 . S
C1617 C1618 1.379 . S
C1618 H1602 0.931 . S
C1618 C1612 1.383 . S
C1618 C1617 1.379 . S
H1619 C1613 0.959 . S
H1620 C1613 0.961 . S
H1621 C1613 0.960 . S
H1622 C1614 0.930 . S
H1623 C1615 0.929 . S
H1624 C1632 0.929 . S
H1625 C1634 0.930 . S
H1626 C1636 0.930 . S
H1627 C1639 0.929 . S
H1628 C1642 0.930 . S
H1629 C1644 0.960 . S
H1630 C1644 0.960 . S
H1631 C1644 0.960 . S
C1632 H1624 0.929 . S
C1632 C1633 1.377 . S
C1632 C1634 1.384 . S
C1633 C1632 1.377 . S
C1633 C1639 1.390 . S
C1634 H1625 0.930 . S
C1634 C1632 1.384 . S
C1634 C1635 1.372 . S
C1635 C1634 1.372 . S
C1635 C1636 1.400 . S
C1635 C1640 1.490 . S
C1636 H1626 0.930 . S
C1636 C1635 1.400 . S
C1636 C1639 1.386 . S
H1637 C1653 0.930 . S
H1638 C1654 0.931 . S
C1639 H1627 0.929 . S
C1639 C1633 1.390 . S
C1639 C1636 1.386 . S
C1640 C1635 1.490 . S
C1640 C1642 1.395 . S
C1640 C1643 1.403 . S
H1641 C1647 0.930 1_554 S
C1642 H1628 0.930 . S
C1642 C1640 1.395 . S
C1642 C1645 1.403 . S
C1643 C1640 1.403 . S
C1643 C1644 1.524 1_556 S
C1643 C1647 1.400 . S
C1644 H1629 0.960 . S
C1644 H1630 0.960 . S
C1644 H1631 0.960 . S
C1644 C1643 1.524 1_554 S
C1645 C1642 1.403 . S
C1645 C1646 1.392 . S
C1645 C1649 1.495 . S
C1646 C1645 1.392 . S
C1646 C1647 1.385 . S
C1646 C1648 1.478 . S
C1647 H1641 0.930 1_556 S
C1647 C1643 1.400 . S
C1647 C1646 1.385 . S
C1648 C1646 1.478 . S
C1648 C1650 1.381 . S
C1648 C1654 1.383 . S
C1649 C1645 1.495 . S
C1649 H1655 0.959 . S
C1649 H1656 0.961 . S
C1649 H1657 0.960 . S
C1650 C1648 1.381 . S
C1650 C1651 1.394 . S
C1650 H1658 0.930 . S
C1651 C1650 1.394 . S
C1651 C1652 1.383 1_556 S
C1651 H1659 0.929 . S
C1652 C1651 1.383 1_554 S
C1652 C1653 1.377 . S
C1653 H1637 0.930 . S
C1653 C1652 1.377 . S
C1653 C1654 1.379 1_554 S
C1654 H1638 0.931 . S
C1654 C1648 1.383 . S
C1654 C1653 1.379 1_556 S
H1655 C1649 0.959 . S
H1656 C1649 0.961 . S
H1657 C1649 0.960 . S
H1658 C1650 0.930 . S
H1659 C1651 0.929 . S
H1660 C1668 0.929 . S
H1661 C1670 0.930 . S
H1662 C1672 0.930 . S
H1663 C1675 0.929 . S
H1664 C1678 0.930 . S
H1665 C1680 0.960 . S
H1666 C1680 0.960 . S
H1667 C1680 0.960 . S
C1668 H1660 0.929 . S
C1668 C1669 1.377 . S
C1668 C1670 1.384 . S
C1669 C1668 1.377 . S
C1669 C1675 1.390 . S
C1670 H1661 0.930 . S
C1670 C1668 1.384 . S
C1670 C1671 1.372 . S
C1671 C1670 1.372 . S
C1671 C1672 1.400 . S
C1671 C1676 1.490 . S
C1672 H1662 0.930 . S
C1672 C1671 1.400 . S
C1672 C1675 1.386 . S
H1673 C1689 0.930 . S
H1674 C1690 0.931 . S
C1675 H1663 0.929 . S
C1675 C1669 1.390 . S
C1675 C1672 1.386 . S
C1676 C1671 1.490 . S
C1676 C1678 1.395 . S
C1676 C1679 1.403 . S
H1677 C1683 0.930 . S
C1678 H1664 0.930 . S
C1678 C1676 1.395 . S
C1678 C1681 1.403 . S
C1679 C1676 1.403 . S
C1679 C1680 1.524 . S
C1679 C1683 1.400 . S
C1680 H1665 0.960 . S
C1680 H1666 0.960 . S
C1680 H1667 0.960 . S
C1680 C1679 1.524 . S
C1681 C1678 1.403 . S
C1681 C1682 1.392 . S
C1681 C1685 1.495 . S
C1682 C1681 1.392 . S
C1682 C1683 1.385 . S
C1682 C1684 1.478 . S
C1683 H1677 0.930 . S
C1683 C1679 1.400 . S
C1683 C1682 1.385 . S
C1684 C1682 1.478 . S
C1684 C1686 1.381 . S
C1684 C1690 1.383 . S
C1685 C1681 1.495 . S
C1685 H1691 0.959 . S
C1685 H1692 0.961 . S
C1685 H1693 0.960 . S
C1686 C1684 1.381 . S
C1686 C1687 1.394 . S
C1686 H1694 0.930 . S
C1687 C1686 1.394 . S
C1687 C1688 1.383 . S
C1687 H1695 0.929 . S
C1688 C1687 1.383 . S
C1688 C1689 1.377 . S
C1689 H1673 0.930 . S
C1689 C1688 1.377 . S
C1689 C1690 1.379 . S
C1690 H1674 0.931 . S
C1690 C1684 1.383 . S
C1690 C1689 1.379 . S
H1691 C1685 0.959 . S
H1692 C1685 0.961 . S
H1693 C1685 0.960 . S
H1694 C1686 0.930 . S
H1695 C1687 0.929 . S
H1696 C1704 0.929 1_556 S
H1697 C1706 0.930 1_556 S
H1698 C1708 0.930 . S
H1699 C1711 0.929 . S
H1700 C1714 0.930 . S
H1701 C1716 0.960 . S
H1702 C1716 0.960 . S
H1703 C1716 0.960 . S
C1704 H1696 0.929 1_554 S
C1704 C1705 1.377 . S
C1704 C1706 1.384 . S
C1705 C1704 1.377 . S
C1705 C1711 1.390 . S
C1706 H1697 0.930 1_554 S
C1706 C1704 1.384 . S
C1706 C1707 1.372 . S
C1707 C1706 1.372 . S
C1707 C1708 1.400 . S
C1707 C1712 1.490 . S
C1708 H1698 0.930 . S
C1708 C1707 1.400 . S
C1708 C1711 1.386 . S
H1709 C1725 0.930 . S
H1710 C1726 0.931 . S
C1711 H1699 0.929 . S
C1711 C1705 1.390 . S
C1711 C1708 1.386 . S
C1712 C1707 1.490 . S
C1712 C1714 1.395 . S
C1712 C1715 1.403 . S
H1713 C1719 0.930 . S
C1714 H1700 0.930 . S
C1714 C1712 1.395 . S
C1714 C1717 1.403 . S
C1715 C1712 1.403 . S
C1715 C1716 1.524 1_545 S
C1715 C1719 1.400 . S
C1716 H1701 0.960 . S
C1716 H1702 0.960 . S
C1716 H1703 0.960 . S
C1716 C1715 1.524 1_565 S
C1717 C1714 1.403 . S
C1717 C1718 1.392 . S
C1717 C1721 1.495 . S
C1718 C1717 1.392 . S
C1718 C1719 1.385 . S
C1718 C1720 1.478 . S
C1719 H1713 0.930 . S
C1719 C1715 1.400 . S
C1719 C1718 1.385 . S
C1720 C1718 1.478 . S
C1720 C1722 1.381 1_554 S
C1720 C1726 1.383 . S
C1721 C1717 1.495 . S
C1721 H1727 0.959 . S
C1721 H1728 0.961 . S
C1721 H1729 0.960 . S
C1722 C1720 1.381 1_556 S
C1722 C1723 1.394 . S
C1722 H1730 0.930 . S
C1723 C1722 1.394 . S
C1723 C1724 1.383 1_556 S
C1723 H1731 0.929 . S
C1724 C1723 1.383 1_554 S
C1724 C1725 1.377 . S
C1725 H1709 0.930 . S
C1725 C1724 1.377 . S
C1725 C1726 1.379 . S
C1726 H1710 0.931 . S
C1726 C1720 1.383 . S
C1726 C1725 1.379 . S
H1727 C1721 0.959 . S
H1728 C1721 0.961 . S
H1729 C1721 0.960 . S
H1730 C1722 0.930 . S
H1731 C1723 0.929 . S
H1732 C1740 0.929 . S
H1733 C1742 0.930 . S
H1734 C1744 0.930 . S
H1735 C1747 0.929 . S
H1736 C1750 0.930 . S
H1737 C1752 0.960 . S
H1738 C1752 0.960 . S
H1739 C1752 0.960 . S
C1740 H1732 0.929 . S
C1740 C1741 1.377 . S
C1740 C1742 1.384 . S
C1741 C1740 1.377 . S
C1741 C1747 1.390 . S
C1742 H1733 0.930 . S
C1742 C1740 1.384 . S
C1742 C1743 1.372 . S
C1743 C1742 1.372 . S
C1743 C1744 1.400 . S
C1743 C1748 1.490 . S
C1744 H1734 0.930 . S
C1744 C1743 1.400 . S
C1744 C1747 1.386 . S
H1745 C1761 0.930 . S
H1746 C1762 0.931 . S
C1747 H1735 0.929 . S
C1747 C1741 1.390 . S
C1747 C1744 1.386 . S
C1748 C1743 1.490 . S
C1748 C1750 1.395 . S
C1748 C1751 1.403 . S
H1749 C1755 0.930 . S
C1750 H1736 0.930 . S
C1750 C1748 1.395 . S
C1750 C1753 1.403 . S
C1751 C1748 1.403 . S
C1751 C1752 1.524 . S
C1751 C1755 1.400 . S
C1752 H1737 0.960 . S
C1752 H1738 0.960 . S
C1752 H1739 0.960 . S
C1752 C1751 1.524 . S
C1753 C1750 1.403 . S
C1753 C1754 1.392 . S
C1753 C1757 1.495 . S
C1754 C1753 1.392 . S
C1754 C1755 1.385 . S
C1754 C1756 1.478 . S
C1755 H1749 0.930 . S
C1755 C1751 1.400 . S
C1755 C1754 1.385 . S
C1756 C1754 1.478 . S
C1756 C1758 1.381 . S
C1756 C1762 1.383 . S
C1757 C1753 1.495 . S
C1757 H1763 0.959 . S
C1757 H1764 0.961 . S
C1757 H1765 0.960 . S
C1758 C1756 1.381 . S
C1758 C1759 1.394 . S
C1758 H1766 0.930 . S
C1759 C1758 1.394 . S
C1759 C1760 1.383 . S
C1759 H1767 0.929 . S
C1760 C1759 1.383 . S
C1760 C1761 1.377 . S
C1761 H1745 0.930 . S
C1761 C1760 1.377 . S
C1761 C1762 1.379 . S
C1762 H1746 0.931 . S
C1762 C1756 1.383 . S
C1762 C1761 1.379 . S
H1763 C1757 0.959 . S
H1764 C1757 0.961 . S
H1765 C1757 0.960 . S
H1766 C1758 0.930 . S
H1767 C1759 0.929 . S
H1768 C1776 0.929 1_565 S
H1769 C1778 0.932 . S
H1770 C1780 0.930 . S
H1771 C1783 0.929 . S
H1772 C1786 0.930 . S
H1773 C1788 0.960 . S
H1774 C1788 0.960 . S
H1775 C1788 0.960 . S
C1776 H1768 0.929 1_545 S
C1776 C1777 1.377 . S
C1776 C1778 1.384 . S
C1777 C1776 1.377 . S
C1777 C1783 1.390 . S
C1778 H1769 0.932 . S
C1778 C1776 1.384 . S
C1778 C1779 1.372 . S
C1779 C1778 1.372 . S
C1779 C1780 1.400 . S
C1779 C1784 1.490 . S
C1780 H1770 0.930 . S
C1780 C1779 1.400 . S
C1780 C1783 1.386 . S
H1781 C1797 0.930 . S
H1782 C1798 0.931 . S
C1783 H1771 0.929 . S
C1783 C1777 1.390 . S
C1783 C1780 1.386 . S
C1784 C1779 1.490 . S
C1784 C1786 1.395 . S
C1784 C1787 1.403 . S
H1785 C1791 0.930 . S
C1786 H1772 0.930 . S
C1786 C1784 1.395 . S
C1786 C1789 1.403 1_455 S
C1787 C1784 1.403 . S
C1787 C1788 1.524 . S
C1787 C1791 1.400 1_455 S
C1788 H1773 0.960 . S
C1788 H1774 0.960 . S
C1788 H1775 0.960 . S
C1788 C1787 1.524 . S
C1789 C1786 1.403 1_655 S
C1789 C1790 1.392 . S
C1789 C1793 1.495 . S
C1790 C1789 1.392 . S
C1790 C1791 1.385 . S
C1790 C1792 1.478 . S
C1791 H1785 0.930 . S
C1791 C1787 1.400 1_655 S
C1791 C1790 1.385 . S
C1792 C1790 1.478 . S
C1792 C1794 1.381 . S
C1792 C1798 1.383 . S
C1793 C1789 1.495 . S
C1793 H1799 0.959 1_545 S
C1793 H1800 0.961 . S
C1793 H1801 0.960 1_545 S
C1794 C1792 1.381 . S
C1794 C1795 1.394 . S
C1794 H1802 0.930 . S
C1795 C1794 1.394 . S
C1795 C1796 1.383 . S
C1795 H1803 0.929 . S
C1796 C1795 1.383 . S
C1796 C1797 1.377 . S
C1797 H1781 0.930 . S
C1797 C1796 1.377 . S
C1797 C1798 1.379 . S
C1798 H1782 0.931 . S
C1798 C1792 1.383 . S
C1798 C1797 1.379 . S
H1799 C1793 0.959 1_565 S
H1800 C1793 0.961 . S
H1801 C1793 0.960 1_565 S
H1802 C1794 0.930 . S
H1803 C1795 0.929 . S
H1804 C1812 0.929 . S
H1805 C1814 0.930 . S
H1806 C1816 0.930 . S
H1807 C1819 0.929 . S
H1808 C1822 0.930 . S
H1809 C1824 0.960 . S
H1810 C1824 0.960 . S
H1811 C1824 0.960 . S
C1812 H1804 0.929 . S
C1812 C1813 1.377 . S
C1812 C1814 1.384 . S
C1813 C1812 1.377 . S
C1813 C1819 1.390 . S
C1814 H1805 0.930 . S
C1814 C1812 1.384 . S
C1814 C1815 1.372 . S
C1815 C1814 1.372 . S
C1815 C1816 1.400 . S
C1815 C1820 1.490 . S
C1816 H1806 0.930 . S
C1816 C1815 1.400 . S
C1816 C1819 1.386 . S
H1817 C1833 0.930 . S
H1818 C1834 0.931 . S
C1819 H1807 0.929 . S
C1819 C1813 1.390 . S
C1819 C1816 1.386 . S
C1820 C1815 1.490 . S
C1820 C1822 1.395 . S
C1820 C1823 1.403 . S
H1821 C1827 0.930 . S
C1822 H1808 0.930 . S
C1822 C1820 1.395 . S
C1822 C1825 1.403 . S
C1823 C1820 1.403 . S
C1823 C1824 1.524 . S
C1823 C1827 1.400 . S
C1824 H1809 0.960 . S
C1824 H1810 0.960 . S
C1824 H1811 0.960 . S
C1824 C1823 1.524 . S
C1825 C1822 1.403 . S
C1825 C1826 1.392 . S
C1825 C1829 1.495 . S
C1826 C1825 1.392 . S
C1826 C1827 1.385 . S
C1826 C1828 1.478 . S
C1827 H1821 0.930 . S
C1827 C1823 1.400 . S
C1827 C1826 1.385 . S
C1828 C1826 1.478 . S
C1828 C1830 1.381 . S
C1828 C1834 1.383 . S
C1829 C1825 1.495 . S
C1829 H1835 0.959 . S
C1829 H1836 0.961 . S
C1829 H1837 0.960 . S
C1830 C1828 1.381 . S
C1830 C1831 1.394 . S
C1830 H1838 0.930 . S
C1831 C1830 1.394 . S
C1831 C1832 1.383 . S
C1831 H1839 0.929 . S
C1832 C1831 1.383 . S
C1832 C1833 1.377 . S
C1833 H1817 0.930 . S
C1833 C1832 1.377 . S
C1833 C1834 1.379 . S
C1834 H1818 0.931 . S
C1834 C1828 1.383 . S
C1834 C1833 1.379 . S
H1835 C1829 0.959 . S
H1836 C1829 0.961 . S
H1837 C1829 0.960 . S
H1838 C1830 0.930 . S
H1839 C1831 0.929 . S
H1840 C1848 0.929 . S
H1841 C1850 0.930 . S
H1842 C1852 0.930 . S
H1843 C1855 0.929 . S
H1844 C1858 0.930 . S
H1845 C1860 0.960 . S
H1846 C1860 0.960 . S
H1847 C1860 0.960 . S
C1848 H1840 0.929 . S
C1848 C1849 1.377 . S
C1848 C1850 1.384 . S
C1849 C1848 1.377 . S
C1849 C1855 1.390 . S
C1850 H1841 0.930 . S
C1850 C1848 1.384 . S
C1850 C1851 1.372 . S
C1851 C1850 1.372 . S
C1851 C1852 1.400 . S
C1851 C1856 1.490 . S
C1852 H1842 0.930 . S
C1852 C1851 1.400 . S
C1852 C1855 1.386 . S
H1853 C1869 0.930 . S
H1854 C1870 0.931 . S
C1855 H1843 0.929 . S
C1855 C1849 1.390 . S
C1855 C1852 1.386 . S
C1856 C1851 1.490 . S
C1856 C1858 1.395 . S
C1856 C1859 1.403 . S
H1857 C1863 0.930 . S
C1858 H1844 0.930 . S
C1858 C1856 1.395 . S
C1858 C1861 1.403 . S
C1859 C1856 1.403 . S
C1859 C1860 1.524 . S
C1859 C1863 1.400 . S
C1860 H1845 0.960 . S
C1860 H1846 0.960 . S
C1860 H1847 0.960 . S
C1860 C1859 1.524 . S
C1861 C1858 1.403 . S
C1861 C1862 1.392 . S
C1861 C1865 1.495 . S
C1862 C1861 1.392 . S
C1862 C1863 1.385 . S
C1862 C1864 1.478 . S
C1863 H1857 0.930 . S
C1863 C1859 1.400 . S
C1863 C1862 1.385 . S
C1864 C1862 1.478 . S
C1864 C1866 1.381 . S
C1864 C1870 1.383 . S
C1865 C1861 1.495 . S
C1865 H1871 0.959 . S
C1865 H1872 0.961 . S
C1865 H1873 0.960 . S
C1866 C1864 1.381 . S
C1866 C1867 1.394 . S
C1866 H1874 0.930 . S
C1867 C1866 1.394 . S
C1867 C1868 1.383 . S
C1867 H1875 0.929 . S
C1868 C1867 1.383 . S
C1868 C1869 1.377 . S
C1869 H1853 0.930 . S
C1869 C1868 1.377 . S
C1869 C1870 1.379 . S
C1870 H1854 0.931 . S
C1870 C1864 1.383 . S
C1870 C1869 1.379 . S
H1871 C1865 0.959 . S
H1872 C1865 0.961 . S
H1873 C1865 0.960 . S
H1874 C1866 0.930 . S
H1875 C1867 0.929 . S
H1876 C1884 0.929 . S
H1877 C1886 0.930 . S
H1878 C1888 0.930 . S
H1879 C1891 0.929 . S
H1880 C1894 0.930 . S
H1881 C1896 0.960 . S
H1882 C1896 0.960 . S
H1883 C1896 0.960 . S
C1884 H1876 0.929 . S
C1884 C1885 1.377 . S
C1884 C1886 1.384 . S
C1885 C1884 1.377 . S
C1885 C1891 1.390 . S
C1886 H1877 0.930 . S
C1886 C1884 1.384 . S
C1886 C1887 1.372 . S
C1887 C1886 1.372 . S
C1887 C1888 1.400 . S
C1887 C1892 1.490 . S
C1888 H1878 0.930 . S
C1888 C1887 1.400 . S
C1888 C1891 1.386 . S
H1889 C1905 0.930 . S
H1890 C1906 0.931 . S
C1891 H1879 0.929 . S
C1891 C1885 1.390 . S
C1891 C1888 1.386 . S
C1892 C1887 1.490 . S
C1892 C1894 1.395 . S
C1892 C1895 1.403 . S
H1893 C1899 0.930 . S
C1894 H1880 0.930 . S
C1894 C1892 1.395 . S
C1894 C1897 1.403 . S
C1895 C1892 1.403 . S
C1895 C1896 1.524 . S
C1895 C1899 1.400 . S
C1896 H1881 0.960 . S
C1896 H1882 0.960 . S
C1896 H1883 0.960 . S
C1896 C1895 1.524 . S
C1897 C1894 1.403 . S
C1897 C1898 1.392 . S
C1897 C1901 1.495 . S
C1898 C1897 1.392 . S
C1898 C1899 1.385 . S
C1898 C1900 1.478 . S
C1899 H1893 0.930 . S
C1899 C1895 1.400 . S
C1899 C1898 1.385 . S
C1900 C1898 1.478 . S
C1900 C1902 1.381 . S
C1900 C1906 1.383 . S
C1901 C1897 1.495 . S
C1901 H1907 0.959 . S
C1901 H1908 0.961 . S
C1901 H1909 0.960 . S
C1902 C1900 1.381 . S
C1902 C1903 1.394 . S
C1902 H1910 0.930 . S
C1903 C1902 1.394 . S
C1903 C1904 1.383 . S
C1903 H1911 0.929 . S
C1904 C1903 1.383 . S
C1904 C1905 1.377 . S
C1905 H1889 0.930 . S
C1905 C1904 1.377 . S
C1905 C1906 1.379 . S
C1906 H1890 0.931 . S
C1906 C1900 1.383 . S
C1906 C1905 1.379 . S
H1907 C1901 0.959 . S
H1908 C1901 0.961 . S
H1909 C1901 0.960 . S
H1910 C1902 0.930 . S
H1911 C1903 0.929 . S
H1912 C1920 0.929 . S
H1913 C1922 0.930 . S
H1914 C1924 0.930 . S
H1915 C1927 0.929 . S
H1916 C1930 0.930 . S
H1917 C1932 0.960 . S
H1918 C1932 0.960 . S
H1919 C1932 0.960 . S
C1920 H1912 0.929 . S
C1920 C1921 1.377 . S
C1920 C1922 1.384 . S
C1921 C1920 1.377 . S
C1921 C1927 1.390 . S
C1922 H1913 0.930 . S
C1922 C1920 1.384 . S
C1922 C1923 1.372 . S
C1923 C1922 1.372 . S
C1923 C1924 1.400 . S
C1923 C1928 1.490 . S
C1924 H1914 0.930 . S
C1924 C1923 1.400 . S
C1924 C1927 1.386 . S
H1925 C1941 0.930 . S
H1926 C1942 0.931 . S
C1927 H1915 0.929 . S
C1927 C1921 1.390 . S
C1927 C1924 1.386 . S
C1928 C1923 1.490 . S
C1928 C1930 1.395 . S
C1928 C1931 1.403 . S
H1929 C1935 0.930 . S
C1930 H1916 0.930 . S
C1930 C1928 1.395 . S
C1930 C1933 1.403 1_655 S
C1931 C1928 1.403 . S
C1931 C1932 1.524 . S
C1931 C1935 1.400 1_655 S
C1932 H1917 0.960 . S
C1932 H1918 0.960 . S
C1932 H1919 0.960 . S
C1932 C1931 1.524 . S
C1933 C1930 1.403 1_455 S
C1933 C1934 1.392 . S
C1933 C1937 1.495 . S
C1934 C1933 1.392 . S
C1934 C1935 1.385 . S
C1934 C1936 1.478 . S
C1935 H1929 0.930 . S
C1935 C1931 1.400 1_455 S
C1935 C1934 1.385 . S
C1936 C1934 1.478 . S
C1936 C1938 1.381 . S
C1936 C1942 1.383 . S
C1937 C1933 1.495 . S
C1937 H1943 0.959 . S
C1937 H1944 0.961 . S
C1937 H1945 0.960 . S
C1938 C1936 1.381 . S
C1938 C1939 1.394 . S
C1938 H1946 0.930 . S
C1939 C1938 1.394 . S
C1939 C1940 1.383 . S
C1939 H1947 0.929 . S
C1940 C1939 1.383 . S
C1940 C1941 1.377 . S
C1941 H1925 0.930 . S
C1941 C1940 1.377 . S
C1941 C1942 1.379 . S
C1942 H1926 0.931 . S
C1942 C1936 1.383 . S
C1942 C1941 1.379 . S
H1943 C1937 0.959 . S
H1944 C1937 0.961 . S
H1945 C1937 0.960 . S
H1946 C1938 0.930 . S
H1947 C1939 0.929 . S
H1948 C1956 0.929 . S
H1949 C1958 0.930 . S
H1950 C1960 0.930 . S
H1951 C1963 0.929 1_556 S
H1952 C1966 0.930 . S
H1953 C1968 0.960 . S
H1954 C1968 0.960 . S
H1955 C1968 0.960 . S
C1956 H1948 0.929 . S
C1956 C1957 1.377 . S
C1956 C1958 1.384 . S
C1957 C1956 1.377 . S
C1957 C1963 1.390 . S
C1958 H1949 0.930 . S
C1958 C1956 1.384 . S
C1958 C1959 1.372 . S
C1959 C1958 1.372 . S
C1959 C1960 1.400 . S
C1959 C1964 1.490 . S
C1960 H1950 0.930 . S
C1960 C1959 1.400 . S
C1960 C1963 1.386 . S
H1961 C1977 0.930 . S
H1962 C1978 0.931 . S
C1963 H1951 0.929 1_554 S
C1963 C1957 1.390 . S
C1963 C1960 1.386 . S
C1964 C1959 1.490 . S
C1964 C1966 1.395 . S
C1964 C1967 1.403 . S
H1965 C1971 0.930 1_556 S
C1966 H1952 0.930 . S
C1966 C1964 1.395 . S
C1966 C1969 1.403 . S
C1967 C1964 1.403 . S
C1967 C1968 1.524 1_554 S
C1967 C1971 1.400 . S
C1968 H1953 0.960 . S
C1968 H1954 0.960 . S
C1968 H1955 0.960 . S
C1968 C1967 1.524 1_556 S
C1969 C1966 1.403 . S
C1969 C1970 1.392 . S
C1969 C1973 1.495 . S
C1970 C1969 1.392 . S
C1970 C1971 1.385 . S
C1970 C1972 1.478 . S
C1971 H1965 0.930 1_554 S
C1971 C1967 1.400 . S
C1971 C1970 1.385 . S
C1972 C1970 1.478 . S
C1972 C1974 1.381 . S
C1972 C1978 1.383 . S
C1973 C1969 1.495 . S
C1973 H1979 0.959 . S
C1973 H1980 0.961 . S
C1973 H1981 0.960 . S
C1974 C1972 1.381 . S
C1974 C1975 1.394 . S
C1974 H1982 0.930 . S
C1975 C1974 1.394 . S
C1975 C1976 1.383 . S
C1975 H1983 0.929 . S
C1976 C1975 1.383 . S
C1976 C1977 1.377 . S
C1977 H1961 0.930 . S
C1977 C1976 1.377 . S
C1977 C1978 1.379 . S
C1978 H1962 0.931 . S
C1978 C1972 1.383 . S
C1978 C1977 1.379 . S
H1979 C1973 0.959 . S
H1980 C1973 0.961 . S
H1981 C1973 0.960 . S
H1982 C1974 0.930 . S
H1983 C1975 0.929 . S
C553 C5 1.152 . S
C572 C9 1.101 . S
C589 C43 1.130 1_556 S
C608 C39 1.149 . S
C625 C73 1.152 . S
C644 C77 1.151 . S
C661 C111 1.130 . S
C680 C107 1.149 1_554 S
C697 C145 1.128 . S
C716 C141 1.145 . S
C733 C175 1.152 . S
C752 C179 1.117 . S
C769 C213 1.129 . S
C788 C209 1.144 . S
C805 C247 1.131 . S
C824 C243 1.142 . S
C841 C277 1.151 . S
C860 C281 1.148 . S
C877 C315 1.120 . S
C896 C311 1.142 1_554 S
C913 C345 1.153 . S
C932 C349 1.119 . S
C949 C379 1.153 . S
C968 C383 1.144 1_556 S
C985 C413 1.153 . S
C1004 C417 1.096 . S
C1021 C447 1.151 . S
C1040 C451 1.125 . S
C1057 C485 1.125 . S
C1076 C481 1.149 . S
C1093 C519 1.121 . S
C1112 C515 1.153 . S
C1129 C2 1.594 . S
C1148 C36 1.586 . S
C1165 C101 1.561 . S
C1184 C67 1.547 . S
C1201 C104 1.591 . S
C1220 C70 1.589 . S
C1237 C33 1.596 . S
C1256 C135 1.562 . S
C1273 C172 1.594 . S
C1292 C138 1.593 . S
C1309 C203 1.558 . S
C1328 C237 1.550 . S
C1345 C206 1.591 . S
C1364 C240 1.582 . S
C1381 C271 1.560 . S
C1400 C169 1.558 . S
C1417 C308 1.591 . S
C1436 C274 1.590 . S
C1453 C339 1.558 . S
C1472 C373 1.564 . S
C1489 C342 1.592 . S
C1508 C376 1.596 . S
C1525 C407 1.561 . S
C1544 C305 1.552 . S
C1561 C410 1.594 . S
C1580 C444 1.597 . S
C1597 C475 1.561 . S
C1616 C509 1.561 . S
C1633 C512 1.592 . S
C1652 C478 1.583 . S
C1669 C441 1.557 . S
C1688 C543 1.546 . S
C1705 C20 1.516 . S
C1724 C156 1.518 . S
C1741 C462 1.516 . S
C1760 C54 1.519 . S
C1777 C88 1.516 . S
C1796 C224 1.514 . S
C1813 C530 1.515 . S
C1832 C122 1.508 . S
C1849 C326 1.518 . S
C1868 C190 1.513 . S
C1885 C258 1.518 . S
C1904 C394 1.519 . S
C1921 C292 1.516 . S
C1940 C428 1.507 . S
C1957 C496 1.516 . S
C1976 C360 1.517 . S
