# Generated by pormake.
# Topology umz, (4)-cn, num edge types: 1
# Building blocks:
#     Node 0, Type 0, BuildingBlock: NAHDIM_clean_sbu_0, # of connection points: 4
#     Node 1, Type 0, BuildingBlock: NAHDIM_clean_sbu_0, # of connection points: 4
#     Node 2, Type 0, BuildingBlock: NAHDIM_clean_sbu_0, # of connection points: 4
#     Node 3, Type 0, BuildingBlock: NAHDIM_clean_sbu_0, # of connection points: 4
#     Node 4, Type 0, BuildingBlock: NAHDIM_clean_sbu_0, # of connection points: 4
#     Node 5, Type 0, BuildingBlock: NAHDIM_clean_sbu_0, # of connection points: 4
#     Node 6, Type 0, BuildingBlock: NAHDIM_clean_sbu_0, # of connection points: 4
#     Node 7, Type 0, BuildingBlock: NAHDIM_clean_sbu_0, # of connection points: 4
#     Node 8, Type 0, BuildingBlock: NAHDIM_clean_sbu_0, # of connection points: 4
#     Node 9, Type 0, BuildingBlock: NAHDIM_clean_sbu_0, # of connection points: 4
#     Node 10, Type 0, BuildingBlock: NAHDIM_clean_sbu_0, # of connection points: 4
#     Node 11, Type 0, BuildingBlock: NAHDIM_clean_sbu_0, # of connection points: 4
#     Node 12, Type 0, BuildingBlock: NAHDIM_clean_sbu_0, # of connection points: 4
#     Node 13, Type 0, BuildingBlock: NAHDIM_clean_sbu_0, # of connection points: 4
#     Node 14, Type 0, BuildingBlock: NAHDIM_clean_sbu_0, # of connection points: 4
#     Node 15, Type 0, BuildingBlock: NAHDIM_clean_sbu_0, # of connection points: 4
#     Edge 16, Type (0, 0), BuildingBlock: XUDNAN_clean_linker_2, # of connection points: 2
#     Edge 17, Type (0, 0), BuildingBlock: XUDNAN_clean_linker_2, # of connection points: 2
#     Edge 18, Type (0, 0), BuildingBlock: XUDNAN_clean_linker_2, # of connection points: 2
#     Edge 19, Type (0, 0), BuildingBlock: XUDNAN_clean_linker_2, # of connection points: 2
#     Edge 20, Type (0, 0), BuildingBlock: XUDNAN_clean_linker_2, # of connection points: 2
#     Edge 21, Type (0, 0), BuildingBlock: XUDNAN_clean_linker_2, # of connection points: 2
#     Edge 22, Type (0, 0), BuildingBlock: XUDNAN_clean_linker_2, # of connection points: 2
#     Edge 23, Type (0, 0), BuildingBlock: XUDNAN_clean_linker_2, # of connection points: 2
#     Edge 24, Type (0, 0), BuildingBlock: XUDNAN_clean_linker_2, # of connection points: 2
#     Edge 25, Type (0, 0), BuildingBlock: XUDNAN_clean_linker_2, # of connection points: 2
#     Edge 26, Type (0, 0), BuildingBlock: XUDNAN_clean_linker_2, # of connection points: 2
#     Edge 27, Type (0, 0), BuildingBlock: XUDNAN_clean_linker_2, # of connection points: 2
#     Edge 28, Type (0, 0), BuildingBlock: XUDNAN_clean_linker_2, # of connection points: 2
#     Edge 29, Type (0, 0), BuildingBlock: XUDNAN_clean_linker_2, # of connection points: 2
#     Edge 30, Type (0, 0), BuildingBlock: XUDNAN_clean_linker_2, # of connection points: 2
#     Edge 31, Type (0, 0), BuildingBlock: XUDNAN_clean_linker_2, # of connection points: 2
#     Edge 32, Type (0, 0), BuildingBlock: XUDNAN_clean_linker_2, # of connection points: 2
#     Edge 33, Type (0, 0), BuildingBlock: XUDNAN_clean_linker_2, # of connection points: 2
#     Edge 34, Type (0, 0), BuildingBlock: XUDNAN_clean_linker_2, # of connection points: 2
#     Edge 35, Type (0, 0), BuildingBlock: XUDNAN_clean_linker_2, # of connection points: 2
#     Edge 36, Type (0, 0), BuildingBlock: XUDNAN_clean_linker_2, # of connection points: 2
#     Edge 37, Type (0, 0), BuildingBlock: XUDNAN_clean_linker_2, # of connection points: 2
#     Edge 38, Type (0, 0), BuildingBlock: XUDNAN_clean_linker_2, # of connection points: 2
#     Edge 39, Type (0, 0), BuildingBlock: XUDNAN_clean_linker_2, # of connection points: 2
#     Edge 40, Type (0, 0), BuildingBlock: XUDNAN_clean_linker_2, # of connection points: 2
#     Edge 41, Type (0, 0), BuildingBlock: XUDNAN_clean_linker_2, # of connection points: 2
#     Edge 42, Type (0, 0), BuildingBlock: XUDNAN_clean_linker_2, # of connection points: 2
#     Edge 43, Type (0, 0), BuildingBlock: XUDNAN_clean_linker_2, # of connection points: 2
#     Edge 44, Type (0, 0), BuildingBlock: XUDNAN_clean_linker_2, # of connection points: 2
#     Edge 45, Type (0, 0), BuildingBlock: XUDNAN_clean_linker_2, # of connection points: 2
#     Edge 46, Type (0, 0), BuildingBlock: XUDNAN_clean_linker_2, # of connection points: 2
#     Edge 47, Type (0, 0), BuildingBlock: XUDNAN_clean_linker_2, # of connection points: 2
# Relax obj value: 0.220
# Max RMSD: 0.162
# Mean RMSD: 0.160
data_MOF--net-umz--node1-NAHDIM_clean_sbu_0--edge1-XUDNAN_clean_linker_2
_symmetry_space_group_name_H-M    P1
_symmetry_Int_Tables_number       1
_symmetry_cell_setting            triclinic
loop_
_symmetry_equiv_pos_as_xyz
'x, y, z'
_cell_length_a     59.897397
_cell_length_b     59.932518
_cell_length_c     21.768717
_cell_angle_alpha  90.022599
_cell_angle_beta   89.925318
_cell_angle_gamma 89.986328
loop_
_atom_site_label
_atom_site_type_symbol
_atom_site_fract_x
_atom_site_fract_y
_atom_site_fract_z
_atom_type_partial_charge
C0 C 0.01448 0.68276 0.04698 0.0
O1 O 0.99623 0.67088 0.04006 0.0
O2 O 0.9933 0.6414 0.15037 0.0
Zn3 Zn 0.02532 0.64663 0.1258 0.0
O4 O 0.03656 0.6244 0.06386 0.0
C5 C 0.03776 0.63125 0.24478 0.0
O6 O 0.01789 0.62213 0.24065 0.0
O7 O 0.02919 0.67635 0.0851 0.0
C8 C 0.04501 0.60557 0.07741 0.0
O9 O 0.04463 0.59874 0.13471 0.0
C10 C 0.98091 0.62662 0.12628 0.0
O11 O 0.98838 0.61522 0.07896 0.0
O12 O 0.04465 0.64363 0.20123 0.0
C13 C 0.81626 0.01653 0.65359 0.0
O14 O 0.82413 0.9964 0.66358 0.0
O15 O 0.86488 0.00069 0.74271 0.0
Zn16 Zn 0.85577 0.03184 0.7193 0.0
O17 O 0.87783 0.04549 0.66038 0.0
C18 C 0.87803 0.05257 0.81178 0.0
O19 O 0.89333 0.04136 0.78133 0.0
O20 O 0.82605 0.03328 0.67704 0.0
C21 C 0.87186 0.06379 0.63588 0.0
O22 O 0.85189 0.07176 0.64789 0.0
C23 C 0.87595 0.98816 0.70682 0.0
O24 O 0.88047 0.99516 0.65099 0.0
O25 O 0.85777 0.05092 0.795 0.0
C26 C 0.47904 0.82531 0.11765 0.0
O27 O 0.47092 0.83898 0.07615 0.0
O28 O 0.49717 0.88295 0.19032 0.0
Zn29 Zn 0.47024 0.86283 0.19309 0.0
O30 O 0.44628 0.87224 0.13379 0.0
C31 C 0.45364 0.8867 0.29021 0.0
O32 O 0.46036 0.90187 0.25081 0.0
O33 O 0.47977 0.83148 0.1735 0.0
C34 C 0.44468 0.89134 0.10899 0.0
O35 O 0.4601 0.90644 0.11961 0.0
C36 C 0.51706 0.8756 0.18772 0.0
O37 O 0.52051 0.85408 0.18143 0.0
O38 O 0.45669 0.86623 0.27725 0.0
C39 C 0.68562 0.47238 0.58023 0.0
O40 O 0.67223 0.48917 0.56816 0.0
O41 O 0.64567 0.49589 0.67826 0.0
Zn42 Zn 0.64977 0.4633 0.6589 0.0
O43 O 0.62755 0.45217 0.59701 0.0
C44 C 0.63253 0.45425 0.77839 0.0
O45 O 0.62498 0.47462 0.77055 0.0
O46 O 0.68001 0.45837 0.62127 0.0
C47 C 0.60803 0.44559 0.61108 0.0
O48 O 0.60102 0.44762 0.66799 0.0
C49 C 0.63069 0.50829 0.65511 0.0
O50 O 0.61774 0.50028 0.61173 0.0
O51 O 0.6449 0.44564 0.73707 0.0
C52 C 0.01395 0.8133 0.7791 0.0
O53 O 0.99388 0.82194 0.7842 0.0
O54 O 0.99454 0.86908 0.76248 0.0
Zn55 Zn 0.02652 0.85903 0.75949 0.0
O56 O 0.04374 0.87056 0.83192 0.0
C57 C 0.0373 0.89506 0.68948 0.0
O58 O 0.02653 0.90319 0.73714 0.0
O59 O 0.03002 0.82574 0.76241 0.0
C60 C 0.06488 0.86988 0.82659 0.0
O61 O 0.07365 0.86194 0.77574 0.0
C62 C 0.98331 0.87339 0.81055 0.0
O63 O 0.99209 0.86949 0.86477 0.0
O64 O 0.03992 0.87404 0.68559 0.0
C65 C 0.69226 0.01338 0.36149 0.0
O66 O 0.67798 0.99862 0.38267 0.0
O67 O 0.63989 0.99773 0.29845 0.0
Zn68 Zn 0.65291 0.02858 0.30443 0.0
O69 O 0.6403 0.0452 0.37695 0.0
C70 C 0.62605 0.04998 0.21398 0.0
O71 O 0.61109 0.04817 0.25784 0.0
O72 O 0.68572 0.0274 0.32157 0.0
C73 C 0.63617 0.066 0.37814 0.0
O74 O 0.63876 0.07808 0.32835 0.0
C75 C 0.61961 0.99451 0.31305 0.0
O76 O 0.60809 0.01098 0.33719 0.0
O77 O 0.64595 0.04357 0.22393 0.0
C78 C 0.52198 0.68325 0.93118 0.0
O79 O 0.53335 0.66689 0.95624 0.0
O80 O 0.53336 0.63193 0.8365 0.0
Zn81 Zn 0.50542 0.64596 0.87034 0.0
O82 O 0.49749 0.63267 0.95206 0.0
C83 C 0.48291 0.63083 0.76072 0.0
O84 O 0.50332 0.62959 0.7389 0.0
O85 O 0.50893 0.67881 0.8868 0.0
C86 C 0.48418 0.61633 0.95801 0.0
O87 O 0.47656 0.60623 0.90874 0.0
C88 C 0.54873 0.62334 0.86892 0.0
O89 O 0.54728 0.62397 0.92908 0.0
O90 O 0.47976 0.63901 0.8139 0.0
C91 C 0.82381 0.48636 0.3456 0.0
O92 O 0.8295 0.50742 0.35146 0.0
O93 O 0.87441 0.51415 0.30414 0.0
Zn94 Zn 0.87061 0.48224 0.32978 0.0
O95 O 0.88177 0.47646 0.41538 0.0
C96 C 0.91066 0.47071 0.2756 0.0
O97 O 0.91641 0.48582 0.31637 0.0
O98 O 0.83863 0.47225 0.33029 0.0
C99 C 0.88735 0.45639 0.42651 0.0
O100 O 0.88615 0.44151 0.38234 0.0
C101 C 0.87802 0.53088 0.3385 0.0
O102 O 0.87731 0.52846 0.39844 0.0
O103 O 0.89021 0.46517 0.27139 0.0
C104 C 0.97744 0.33162 0.89831 0.0
O105 O 0.95953 0.34401 0.90564 0.0
O106 O 0.9687 0.37821 0.77923 0.0
Zn107 Zn 0.99264 0.37126 0.84159 0.0
O108 O 0.98578 0.38876 0.91751 0.0
C109 C 0.0269 0.37845 0.75116 0.0
O110 O 0.01241 0.36853 0.71508 0.0
O111 O 0.99372 0.33929 0.86742 0.0
C112 C -0.0006 0.39812 0.95389 0.0
O113 O 0.02094 0.39705 0.94281 0.0
C114 C 0.95114 0.38863 0.79546 0.0
O115 O 0.94759 0.39253 0.85401 0.0
O116 O 0.02222 0.38099 0.80769 0.0
C117 C 0.1871 0.9638 0.33193 0.0
O118 O 0.17727 0.94423 0.33491 0.0
O119 O 0.14795 0.9512 0.19333 0.0
Zn120 Zn 0.14818 0.97315 0.26373 0.0
O121 O 0.12939 0.96169 0.33333 0.0
C122 C 0.11371 0.00123 0.2218 0.0
O123 O 0.1032 0.98202 0.22445 0.0
O124 O 0.17842 0.979 0.29909 0.0
C125 C 0.12177 0.97527 0.37288 0.0
O126 O 0.12663 0.99657 0.36801 0.0
C127 C 0.13213 0.93706 0.19113 0.0
O128 O 0.1179 0.93599 0.23696 0.0
O129 O 0.13434 0.00188 0.23527 0.0
C130 C 0.54703 0.19162 0.83069 0.0
O131 O 0.56339 0.18705 0.79257 0.0
O132 O 0.55314 0.14562 0.72366 0.0
Zn133 Zn 0.5316 0.14773 0.79532 0.0
O134 O 0.54305 0.1266 0.86024 0.0
C135 C 0.49948 0.12141 0.73228 0.0
O136 O 0.51777 0.11378 0.70645 0.0
O137 O 0.53078 0.1781 0.83543 0.0
C138 C 0.55166 0.1078 0.84698 0.0
O139 O 0.55189 0.10103 0.78962 0.0
C140 C 0.57374 0.14248 0.73505 0.0
O141 O 0.58071 0.14364 0.79217 0.0
O142 O 0.50092 0.13727 0.77086 0.0
C143 C 0.34013 0.55365 0.40394 0.0
O144 O 0.35499 0.5697 0.40013 0.0
O145 O 0.39107 0.54726 0.30839 0.0
Zn146 Zn 0.37853 0.52776 0.37569 0.0
O147 O 0.39537 0.53537 0.45282 0.0
C148 C 0.37917 0.49004 0.2967 0.0
O149 O 0.36975 0.5046 0.25979 0.0
O150 O 0.34602 0.53379 0.39135 0.0
C151 C 0.38618 0.53721 0.50523 0.0
O152 O 0.36527 0.53112 0.51214 0.0
C153 C 0.40219 0.56469 0.32156 0.0
O154 O 0.40386 0.57092 0.37921 0.0
O155 O 0.38385 0.4959 0.35132 0.0
C156 C 0.96795 0.20331 0.1762 0.0
O157 O 0.94716 0.19637 0.17827 0.0
O158 O 0.96783 0.15585 0.31301 0.0
Zn159 Zn 0.97679 0.15977 0.22498 0.0
O160 O 0.95272 0.1472 0.17096 0.0
C161 C 0.0027 0.12047 0.21306 0.0
O162 O 0.98294 0.11151 0.22197 0.0
O163 O 0.98325 0.19105 0.19838 0.0
C164 C 0.95759 0.14273 0.11557 0.0
O165 O 0.97787 0.14688 0.09555 0.0
C166 C 0.94737 0.1552 0.32827 0.0
O167 O 0.93215 0.16048 0.28739 0.0
O168 O 0.00449 0.14157 0.21227 0.0
C169 C 0.30428 0.96921 0.64523 0.0
O170 O 0.31361 0.9494 0.64758 0.0
O171 O 0.34407 0.9689 0.79681 0.0
Zn172 Zn 0.34375 0.98094 0.711 0.0
O173 O 0.36038 0.95891 0.65864 0.0
C174 C 0.38177 0.00929 0.71048 0.0
O175 O 0.39179 0.98979 0.71077 0.0
O176 O 0.31345 0.9854 0.67323 0.0
C177 C 0.36623 0.96438 0.60469 0.0
O178 O 0.36123 0.9844 0.58428 0.0
C179 C 0.33961 0.94857 0.8077 0.0
O180 O 0.33132 0.93615 0.76356 0.0
O181 O 0.36057 0.01002 0.71089 0.0
C182 C 0.53704 0.3089 0.14278 0.0
O183 O 0.5531 0.32159 0.16432 0.0
O184 O 0.52741 0.356 0.24959 0.0
Zn185 Zn 0.51592 0.34893 0.16454 0.0
O186 O 0.53635 0.36285 0.10228 0.0
C187 C 0.47323 0.36324 0.20529 0.0
O188 O 0.48062 0.35405 0.25613 0.0
O189 O 0.51716 0.3163 0.14412 0.0
C190 C 0.5384 0.3834 0.08957 0.0
O191 O 0.52563 0.39809 0.11745 0.0
C192 C 0.54649 0.36468 0.25849 0.0
O193 O 0.5601 0.36737 0.21175 0.0
O194 O 0.4851 0.36202 0.15695 0.0
C195 C 0.19587 0.55108 0.61732 0.0
O196 O 0.18243 0.56768 0.63105 0.0
O197 O 0.1456 0.53789 0.71703 0.0
Zn198 Zn 0.15528 0.52854 0.63194 0.0
O199 O 0.14109 0.54861 0.56955 0.0
C200 C 0.14468 0.48404 0.66485 0.0
O201 O 0.15385 0.49082 0.71638 0.0
O202 O 0.18827 0.53129 0.61861 0.0
C203 C 0.1203 0.54905 0.55858 0.0
O204 O 0.10695 0.53543 0.58842 0.0
C205 C 0.13581 0.55631 0.7276 0.0
O206 O 0.13371 0.5709 0.68297 0.0
O207 O 0.14443 0.49716 0.61904 0.0
H208 H 0.98409 0.70731 0.98203 0.0
H209 H 0.05503 0.70096 0.0186 0.0
H210 H 0.06279 0.7312 0.94455 0.0
H211 H 0.98816 0.72023 0.81967 0.0
H212 H 0.96587 0.74042 0.82176 0.0
H213 H 0.96587 0.71735 0.87481 0.0
H214 H 0.9635 0.7448 0.96668 0.0
H215 H 0.96315 0.7679 0.9139 0.0
H216 H 0.98396 0.76672 0.97358 0.0
H217 H 0.06283 0.76209 0.86713 0.0
H218 H 0.05494 0.79504 0.80305 0.0
H219 H 0.98382 0.78225 0.82004 0.0
C220 C 0.00126 0.71225 0.97427 0.0
C221 C 0.01897 0.70176 0.00576 0.0
C222 C 0.0412 0.70885 0.99508 0.0
C223 C 0.04579 0.72585 0.95271 0.0
C224 C 0.02795 0.73567 0.92187 0.0
C225 C 0.00611 0.72939 0.93282 0.0
C226 C 0.98991 0.74369 0.89688 0.0
C227 C 0.97667 0.72957 0.85053 0.0
C228 C 0.97421 0.75654 0.94036 0.0
C229 C 0.00604 0.75919 0.86458 0.0
C230 C 0.02792 0.754 0.87869 0.0
C231 C 0.04577 0.76631 0.85563 0.0
C232 C 0.0411 0.78495 0.81899 0.0
C233 C 0.01874 0.79127 0.80658 0.0
C234 C 0.00108 0.77781 0.82842 0.0
H235 H 0.71363 0.98406 0.4379 0.0
H236 H 0.71924 0.05015 0.35773 0.0
H237 H 0.75188 0.05785 0.42332 0.0
H238 H 0.72666 0.99871 0.5886 0.0
H239 H 0.74296 0.97419 0.60555 0.0
H240 H 0.72115 0.9729 0.54883 0.0
H241 H 0.74936 0.95867 0.46741 0.0
H242 H 0.77121 0.95951 0.5242 0.0
H243 H 0.77447 0.97438 0.45279 0.0
H244 H 0.78079 0.06001 0.50561 0.0
H245 H 0.80798 0.05464 0.58921 0.0
H246 H 0.78504 0.98645 0.61271 0.0
C247 C 0.72201 -2e-05 0.43324 0.0
C248 C 0.71389 0.01651 0.39277 0.0
C249 C 0.72525 0.03717 0.3881 0.0
C250 C 0.74373 0.04176 0.42542 0.0
C251 C 0.75082 0.02538 0.46635 0.0
C252 C 0.74067 0.00472 0.46954 0.0
C253 C 0.75144 0.99017 0.5181 0.0
C254 C 0.73454 0.98362 0.56822 0.0
C255 C 0.76227 0.96946 0.48887 0.0
C256 C 0.76889 0.0061 0.54273 0.0
C257 C 0.76812 0.02636 0.51247 0.0
C258 C 0.7818 0.04412 0.52904 0.0
C259 C 0.79704 0.04095 0.57696 0.0
C260 C 0.79863 0.0201 0.60732 0.0
C261 C 0.78428 0.00251 0.59002 0.0
H262 H 0.47111 0.80248 0.01122 0.0
H263 H 0.50912 0.79982 0.18071 0.0
H264 H 0.52684 0.76475 0.14619 0.0
H265 H 0.45991 0.74417 0.00347 0.0
H266 H 0.46194 0.74277 0.92093 0.0
H267 H 0.45339 0.76832 0.9575 0.0
H268 H 0.48534 0.78937 0.90179 0.0
H269 H 0.49415 0.76379 0.86557 0.0
H270 H 0.51371 0.77981 0.91038 0.0
H271 H 0.54014 0.73014 0.09396 0.0
H272 H 0.54507 0.69582 0.03337 0.0
H273 H 0.4973 0.7202 0.8992 0.0
C274 C 0.48324 0.79456 0.04093 0.0
C275 C 0.48885 0.80386 0.09849 0.0
C276 C 0.50455 0.7929 0.13651 0.0
C277 C 0.51483 0.7731 0.11709 0.0
C278 C 0.50906 0.76447 0.05983 0.0
C279 C 0.49343 0.77467 0.02262 0.0
C280 C 0.48919 0.76119 0.96495 0.0
C281 C 0.46465 0.75367 0.96155 0.0
C282 C 0.49601 0.77433 0.90727 0.0
C283 C 0.50469 0.74165 0.97591 0.0
C284 C 0.51626 0.7441 0.0304 0.0
C285 C 0.5312 0.72803 0.05118 0.0
C286 C 0.53391 0.7086 0.01628 0.0
C287 C 0.52152 0.70528 0.96159 0.0
C288 C 0.5071 0.72229 0.94059 0.0
H289 H 0.70778 0.50407 0.51428 0.0
H290 H 0.71002 0.43407 0.5647 0.0
H291 H 0.74379 0.42913 0.50047 0.0
H292 H 0.72724 0.49823 0.35728 0.0
H293 H 0.74377 0.52334 0.36 0.0
H294 H 0.71897 0.52099 0.40649 0.0
H295 H 0.74204 0.52959 0.50441 0.0
H296 H 0.76681 0.53223 0.45817 0.0
H297 H 0.76628 0.51289 0.52155 0.0
H298 H 0.7776 0.43212 0.43165 0.0
H299 H 0.81133 0.44363 0.37459 0.0
H300 H 0.78739 0.51201 0.37285 0.0
C301 C 0.71528 0.48765 0.51148 0.0
C302 C 0.70625 0.4694 0.54405 0.0
C303 C 0.71673 0.44827 0.5401 0.0
C304 C 0.73578 0.44528 0.50339 0.0
C305 C 0.74416 0.46362 0.47142 0.0
C306 C 0.7344 0.48446 0.47581 0.0
C307 C 0.74752 0.5018 0.44054 0.0
C308 C 0.73354 0.51166 0.38796 0.0
C309 C 0.75618 0.5202 0.48375 0.0
C310 C 0.76637 0.48754 0.41612 0.0
C311 C 0.76394 0.46549 0.43348 0.0
C312 C 0.77964 0.44932 0.41764 0.0
C313 C 0.79869 0.45601 0.38492 0.0
C314 C 0.80198 0.47873 0.36927 0.0
C315 C 0.78531 0.49451 0.38391 0.0
H316 H 0.94508 0.3085 0.96078 0.0
H317 H 0.01591 0.30808 0.91768 0.0
H318 H 0.02125 0.27606 0.98721 0.0
H319 H 0.94989 0.29505 0.11887 0.0
H320 H 0.92574 0.27712 0.12079 0.0
H321 H 0.92713 0.29967 0.06625 0.0
H322 H 0.92081 0.27192 0.97656 0.0
H323 H 0.91904 0.24934 0.03091 0.0
H324 H 0.93892 0.24805 0.96877 0.0
H325 H 0.01938 0.24579 0.06592 0.0
H326 H 0.00968 0.21582 0.13867 0.0
H327 H 0.93983 0.23495 0.128 0.0
C328 C 0.96167 0.30152 0.96544 0.0
C329 C 0.98009 0.31082 0.93393 0.0
C330 C 0.00153 0.30118 0.94115 0.0
C331 C 0.00477 0.28308 0.98084 0.0
C332 C 0.98637 0.27469 0.01241 0.0
C333 C 0.96518 0.2833 0.00437 0.0
C334 C 0.9482 0.27094 0.04315 0.0
C335 C 0.93709 0.28664 0.09004 0.0
C336 C 0.93072 0.25937 0.00241 0.0
C337 C 0.96321 0.25414 0.07457 0.0
C338 C 0.98519 0.25677 0.05663 0.0
C339 C 0.0022 0.24344 0.08001 0.0
C340 C 0.99653 0.22655 0.12163 0.0
C341 C 0.97398 0.223 0.13893 0.0
C342 C 0.9572 0.23723 0.11562 0.0
H343 H 0.27837 0.93795 0.58795 0.0
H344 H 0.2882 0.00946 0.60512 0.0
H345 H 0.25995 0.01582 0.52447 0.0
H346 H 0.27181 0.93635 0.42662 0.0
H347 H 0.25039 0.91523 0.42727 0.0
H348 H 0.27074 0.9162 0.48803 0.0
H349 H 0.23915 0.91878 0.56924 0.0
H350 H 0.21869 0.91745 0.50879 0.0
H351 H 0.21832 0.94035 0.56247 0.0
H352 H 0.23239 0.01422 0.43747 0.0
H353 H 0.2042 0.00504 0.35881 0.0
H354 H 0.21179 0.93462 0.40075 0.0
C355 C 0.27441 0.95497 0.57529 0.0
C356 C 0.28551 0.97321 0.60273 0.0
C357 C 0.27983 0.99523 0.58493 0.0
C358 C 0.26391 -0.00099 0.53892 0.0
C359 C 0.25371 0.98061 0.51169 0.0
C360 C 0.25846 0.95904 0.5299 0.0
C361 C 0.24505 0.94219 0.49364 0.0
C362 C 0.26042 0.92658 0.4567 0.0
C363 C 0.22937 0.92892 0.53607 0.0
C364 C 0.23213 0.95764 0.4518 0.0
C365 C 0.23749 0.97972 0.46257 0.0
C366 C 0.22794 0.997 0.42891 0.0
C367 C 0.21205 0.9916 0.38406 0.0
C368 C 0.20577 0.96911 0.37372 0.0
C369 C 0.21621 0.95196 0.40763 0.0
H370 H 0.5142 0.21195 0.89916 0.0
H371 H 0.58559 0.21228 0.86417 0.0
H372 H 0.59076 0.24003 0.94644 0.0
H373 H 0.50989 0.27133 0.92696 0.0
H374 H 0.48887 0.26837 0.98574 0.0
H375 H 0.4909 0.248 0.92517 0.0
H376 H 0.49471 0.2167 0.00663 0.0
H377 H 0.49308 0.23704 0.06745 0.0
H378 H 0.51662 0.21837 0.06315 0.0
H379 H 0.5886 0.26637 0.03422 0.0
H380 H 0.57872 0.29464 0.11146 0.0
H381 H 0.50843 0.2792 0.08664 0.0
C382 C 0.53089 0.21797 0.90869 0.0
C383 C 0.54951 0.20992 0.87547 0.0
C384 C 0.57107 0.2183 0.88882 0.0
C385 C 0.57422 0.2339 0.93584 0.0
C386 C 0.5556 0.24116 0.96854 0.0
C387 C 0.5343 0.23387 0.95486 0.0
C388 C 0.51707 0.24532 0.99504 0.0
C389 C 0.50072 0.25908 0.95589 0.0
C390 C 0.50464 0.22834 0.03546 0.0
C391 C 0.53206 0.26021 0.03326 0.0
C392 C 0.55424 0.25719 0.01787 0.0
C393 C 0.57128 0.269 0.04653 0.0
C394 C 0.56547 0.28496 0.09063 0.0
C395 C 0.54278 0.28923 0.10497 0.0
C396 C 0.52591 0.27629 0.0768 0.0
H397 H 0.30793 0.52311 0.43509 0.0
H398 H 0.32295 0.59399 0.43906 0.0
H399 H 0.28813 0.60088 0.49674 0.0
H400 H 0.24791 0.52873 0.41691 0.0
H401 H 0.2419 0.50511 0.46543 0.0
H402 H 0.26758 0.50605 0.4224 0.0
H403 H 0.28988 0.50045 0.52321 0.0
H404 H 0.26428 0.49985 0.56668 0.0
H405 H 0.28582 0.51962 0.58611 0.0
H406 H 0.25239 0.59991 0.55681 0.0
H407 H 0.2168 0.5915 0.60907 0.0
H408 H 0.22538 0.52119 0.56669 0.0
C409 C 0.30378 0.54013 0.44732 0.0
C410 C 0.31815 0.55803 0.43244 0.0
C411 C 0.31217 0.58002 0.44981 0.0
C412 C 0.29247 0.5841 0.48278 0.0
C413 C 0.27896 0.56601 0.49796 0.0
C414 C 0.28423 0.54449 0.48035 0.0
C415 C 0.26695 0.52799 0.50294 0.0
C416 C 0.2554 0.51629 0.44869 0.0
C417 C 0.27736 0.51098 0.54738 0.0
C418 C 0.25114 0.54359 0.53609 0.0
C419 C 0.25841 0.56544 0.53282 0.0
C420 C 0.24649 0.58287 0.55959 0.0
C421 C 0.22634 0.57791 0.58934 0.0
C422 C 0.21831 0.55569 0.59205 0.0
C423 C 0.23112 0.53832 0.56578 0.0
H424 H 0.05414 0.61857 0.95959 0.0
H425 H 0.06574 0.56496 0.08984 0.0
H426 H 0.09053 0.54639 0.01461 0.0
H427 H 0.05422 0.58445 0.82158 0.0
H428 H 0.06831 0.60545 0.77669 0.0
H429 H 0.05055 0.61359 0.83966 0.0
H430 H 0.08337 0.63575 0.88752 0.0
H431 H 0.10132 0.62744 0.82517 0.0
H432 H 0.10933 0.62165 0.90333 0.0
H433 H 0.11522 0.5345 0.92599 0.0
H434 H 0.13652 0.52943 0.82967 0.0
H435 H 0.10908 0.59147 0.75965 0.0
C436 C 0.0616 0.60276 0.97215 0.0
C437 C 0.05794 0.59318 0.03059 0.0
C438 C 0.06824 0.57258 0.04526 0.0
C439 C 0.08239 0.56194 0.00291 0.0
C440 C 0.08604 0.57215 0.94625 0.0
C441 C 0.07582 0.59203 0.93074 0.0
C442 C 0.0829 0.59988 0.86763 0.0
C443 C 0.0628 0.60089 0.8238 0.0
C444 C 0.09495 0.62252 0.87117 0.0
C445 C 0.09881 0.58137 0.85004 0.0
C446 C 0.1004 0.5655 0.89587 0.0
C447 C 0.11407 0.54681 0.88978 0.0
C448 C 0.12616 0.54412 0.83499 0.0
C449 C 0.12453 0.56009 0.78717 0.0
C450 C 0.11081 0.57902 0.79537 0.0
H451 H 0.90523 0.15075 0.37578 0.0
H452 H 0.97453 0.13356 0.41003 0.0
H453 H 0.96286 0.10938 0.49584 0.0
H454 H 0.88737 0.15044 0.53938 0.0
H455 H 0.8605 0.13876 0.5206 0.0
H456 H 0.87462 0.15656 0.46633 0.0
H457 H 0.87171 0.12545 0.384 0.0
H458 H 0.85794 0.10743 0.43819 0.0
H459 H 0.88305 0.09821 0.40016 0.0
H460 H 0.94333 0.0833 0.56867 0.0
H461 H 0.91745 0.06064 0.63164 0.0
H462 H 0.86118 0.09592 0.55226 0.0
C463 C 0.918 0.14235 0.40225 0.0
C464 C 0.94078 0.14405 0.38611 0.0
C465 C 0.95697 0.13263 0.42166 0.0
C466 C 0.95052 0.11877 0.4704 0.0
C467 C 0.92785 0.11679 0.48357 0.0
C468 C 0.91187 0.1286 0.45135 0.0
C469 C 0.88857 0.12287 0.47313 0.0
C470 C 0.87709 0.14338 0.50157 0.0
C471 C 0.8745 0.11289 0.42075 0.0
C472 C 0.89391 0.10553 0.52141 0.0
C473 C 0.91665 0.10221 0.52671 0.0
C474 C 0.92551 0.08603 0.56572 0.0
C475 C 0.9107 0.07313 0.60089 0.0
C476 C 0.88738 0.07665 0.59699 0.0
C477 C 0.87897 0.09307 0.55672 0.0
H478 H 0.4339 0.93155 0.05663 0.0
H479 H 0.41131 0.86297 0.07343 0.0
H480 H 0.37891 0.87154 0.00774 0.0
H481 H 0.37815 0.95734 0.05555 0.0
H482 H 0.38616 0.9781 -0.00015 0.0
H483 H 0.4066 0.9671 0.05246 0.0
H484 H 0.43185 0.95559 0.9609 0.0
H485 H 0.41162 0.96674 0.90823 0.0
H486 H 0.42054 0.93813 0.9011 0.0
H487 H 0.35097 0.88659 0.93291 0.0
H488 H 0.33038 0.90681 0.85189 0.0
H489 H 0.37048 0.96576 0.88691 0.0
C490 C 0.42204 0.91838 0.047 0.0
C491 C 0.42514 0.8966 0.0702 0.0
C492 C 0.40927 0.87981 0.05627 0.0
C493 C 0.39074 0.88453 0.01924 0.0
C494 C 0.3882 0.90616 0.99701 0.0
C495 C 0.40339 0.92282 0.01042 0.0
C496 C 0.39754 0.94432 0.97784 0.0
C497 C 0.39177 0.96281 0.02421 0.0
C498 C 0.41651 0.95161 0.93444 0.0
C499 C 0.37709 0.93695 0.94252 0.0
C500 C 0.37181 0.91495 0.95468 0.0
C501 C 0.35469 0.90394 0.92372 0.0
C502 C 0.34308 0.91555 0.87784 0.0
C503 C 0.34867 0.9379 0.86348 0.0
C504 C 0.36546 0.94885 0.89765 0.0
H505 H 0.58473 0.38671 0.29011 0.0
H506 H 0.52108 0.36446 0.36358 0.0
H507 H 0.52961 0.38317 0.46199 0.0
H508 H 0.61647 0.38064 0.43072 0.0
H509 H 0.63304 0.40519 0.41618 0.0
H510 H 0.62213 0.38922 0.35288 0.0
H511 H 0.60316 0.42485 0.31004 0.0
H512 H 0.61378 0.44086 0.37359 0.0
H513 H 0.58422 0.44038 0.35826 0.0
H514 H 0.54475 0.40544 0.5514 0.0
H515 H 0.56611 0.42793 0.62623 0.0
H516 H 0.61938 0.43572 0.49239 0.0
C517 C 0.57266 0.38553 0.32702 0.0
C518 C 0.55227 0.37408 0.31918 0.0
C519 C 0.53687 0.37307 0.36862 0.0
C520 C 0.54152 0.3837 0.42461 0.0
C521 C 0.56162 0.39522 0.43031 0.0
C522 C 0.57699 0.39605 0.38297 0.0
C523 C 0.59721 0.40975 0.40032 0.0
C524 C 0.61847 0.39533 0.40002 0.0
C525 C 0.59972 0.43017 0.35804 0.0
C526 C 0.5908 0.4166 0.46478 0.0
C527 C 0.57022 0.40808 0.48135 0.0
C528 C 0.5609 0.41216 0.53896 0.0
C529 C 0.57312 0.42501 0.58106 0.0
C530 C 0.5944 0.43361 0.56517 0.0
C531 C 0.60314 0.42948 0.50597 0.0
H532 H 0.09318 0.91686 0.15891 0.0
H533 H 0.16051 0.92965 0.09402 0.0
H534 H 0.15124 0.91155 0.99502 0.0
H535 H 0.08468 0.86319 0.08158 0.0
H536 H 0.05591 0.86936 0.06437 0.0
H537 H 0.06874 0.88097 0.13204 0.0
H538 H 0.05779 0.92071 0.09601 0.0
H539 H 0.04511 0.90928 0.02805 0.0
H540 H 0.06657 0.93022 0.02121 0.0
H541 H 0.13382 0.89385 0.90148 0.0
H542 H 0.10953 0.87895 0.81959 0.0
H543 H 0.0532 0.87966 0.94529 0.0
C544 C 0.10616 0.91544 0.12448 0.0
C545 C 0.12765 0.92443 0.13428 0.0
C546 C 0.14399 0.92272 0.08747 0.0
C547 C 0.13888 0.91246 0.03123 0.0
C548 C 0.11735 0.90417 0.02267 0.0
C549 C 0.10126 0.90558 0.06804 0.0
C550 C 0.07893 0.89694 0.04598 0.0
C551 C 0.07164 0.87639 0.0832 0.0
C552 C 0.06106 0.91539 0.04792 0.0
C553 C 0.08485 0.89072 0.9807 0.0
C554 C 0.10714 0.89472 0.96834 0.0
C555 C 0.11638 0.89055 0.91074 0.0
C556 C 0.10244 0.8821 0.86455 0.0
C557 C 0.07948 0.87821 0.8761 0.0
C558 C 0.07067 0.88253 0.93505 0.0
H559 H 0.56834 0.14368 0.60968 0.0
H560 H 0.61196 0.11891 0.75353 0.0
H561 H 0.63365 0.098 0.67659 0.0
H562 H 0.56576 0.09498 0.52302 0.0
H563 H 0.56659 0.10827 0.44879 0.0
H564 H 0.55546 0.12305 0.51397 0.0
H565 H 0.58353 0.15529 0.49598 0.0
H566 H 0.59457 0.14074 0.43014 0.0
H567 H 0.61296 0.14922 0.49134 0.0
H568 H 0.64708 0.07569 0.58776 0.0
H569 H 0.65511 0.05734 0.48846 0.0
H570 H 0.60521 0.09865 0.39981 0.0
C571 C 0.58275 0.13424 0.62468 0.0
C572 C 0.58849 0.13295 0.68751 0.0
C573 C 0.60738 0.12033 0.70558 0.0
C574 C 0.61976 0.10829 0.66226 0.0
C575 C 0.61331 0.10941 0.60096 0.0
C576 C 0.5956 0.12244 0.58181 0.0
C577 C 0.59197 0.1203 0.51316 0.0
C578 C 0.56856 0.1111 0.49894 0.0
C579 C 0.59601 0.14272 0.48075 0.0
C580 C 0.60998 0.10351 0.49719 0.0
C581 C 0.62196 0.09734 0.54871 0.0
C582 C 0.63819 0.08072 0.54679 0.0
C583 C 0.64251 0.07029 0.49047 0.0
C584 C 0.63089 0.07682 0.43689 0.0
C585 C 0.61454 0.09371 0.44016 0.0
H586 H 0.40415 0.55522 0.19814 0.0
H587 H 0.43007 0.60033 0.33709 0.0
H588 H 0.45438 0.61784 0.25945 0.0
H589 H 0.45532 0.54658 0.11874 0.0
H590 H 0.44291 0.54612 0.04336 0.0
H591 H 0.42684 0.53749 0.10917 0.0
H592 H 0.39628 0.56655 0.08269 0.0
H593 H 0.41213 0.57508 0.01637 0.0
H594 H 0.40393 0.59543 0.07307 0.0
H595 H 0.47691 0.62946 0.16831 0.0
H596 H 0.49425 0.63639 0.06738 0.0
H597 H 0.45351 0.58396 0.98732 0.0
C598 C 0.41477 0.56893 0.21214 0.0
C599 C 0.41521 0.57639 0.27373 0.0
C600 C 0.4294 0.59434 0.29019 0.0
C601 C 0.44334 0.60436 0.24648 0.0
C602 C 0.44282 0.5963 0.18652 0.0
C603 C 0.42875 0.57917 0.16909 0.0
C604 C 0.43148 0.57367 0.10159 0.0
C605 C 0.43962 0.54953 0.09273 0.0
C606 C 0.40966 0.57795 0.06636 0.0
C607 C 0.44938 0.59032 0.08394 0.0
C608 C 0.45572 0.60314 0.13369 0.0
C609 C 0.47203 0.61959 0.12891 0.0
C610 C 0.48184 0.62334 0.0714 0.0
C611 C 0.47524 0.61073 0.01939 0.0
C612 C 0.45896 0.59384 0.02615 0.0
H613 H 0.95012 0.38052 0.67146 0.0
H614 H 0.92059 0.4218 0.814 0.0
H615 H 0.90059 0.44347 0.73509 0.0
H616 H 0.95912 0.42288 0.56336 0.0
H617 H 0.95187 0.40631 0.4972 0.0
H618 H 0.96283 0.39303 0.5649 0.0
H619 H 0.92806 0.36736 0.5706 0.0
H620 H 0.91712 0.38037 0.50238 0.0
H621 H 0.90058 0.37964 0.57158 0.0
H622 H 0.88696 0.46311 0.64018 0.0
H623 H 0.8768 0.47622 0.53604 0.0
H624 H 0.91353 0.42089 0.4564 0.0
C625 C 0.93917 0.39388 0.68612 0.0
C626 C 0.93695 0.3995 0.74882 0.0
C627 C 0.92247 0.41712 0.76622 0.0
C628 C 0.91111 0.42961 0.72174 0.0
C629 C 0.91414 0.42404 0.66021 0.0
C630 C 0.92745 0.40632 0.64242 0.0
C631 C 0.928 0.4039 0.57326 0.0
C632 C 0.95187 0.4067 0.54824 0.0
C633 C 0.91782 0.38149 0.55329 0.0
C634 C 0.91327 0.42329 0.55495 0.0
C635 C 0.90557 0.43482 0.6057 0.0
C636 C 0.8926 0.45403 0.60007 0.0
C637 C 0.88705 0.46144 0.54089 0.0
C638 C 0.89426 0.44945 0.48848 0.0
C639 C 0.90757 0.4302 0.49579 0.0
H640 H 0.95598 0.40059 0.99134 0.0
H641 H 0.02282 0.42268 0.03891 0.0
H642 H 0.00743 0.44304 0.12841 0.0
H643 H 0.92788 0.45096 0.0296 0.0
H644 H 0.90351 0.43708 0.05967 0.0
H645 H 0.91997 0.42391 0.00066 0.0
H646 H 0.92496 0.38906 0.06982 0.0
H647 H 0.90853 0.40213 0.12911 0.0
H648 H 0.93628 0.39229 0.146 0.0
H649 H 0.98442 0.46174 0.21075 0.0
H650 H 0.95578 0.47717 0.28038 0.0
H651 H 0.90422 0.44226 0.17842 0.0
C652 C 0.96748 0.40965 0.02055 0.0
C653 C 0.99063 0.41008 0.00813 0.0
C654 C 0.00504 0.42211 0.04761 0.0
C655 C 0.99644 0.43371 0.09848 0.0
C656 C 0.97349 0.43297 0.10914 0.0
C657 C 0.95923 0.4212 0.07132 0.0
C658 C 0.93521 0.42321 0.09216 0.0
C659 C 0.9208 0.43447 0.04258 0.0
C660 C 0.92569 0.40031 0.11037 0.0
C661 C 0.93811 0.43812 0.14756 0.0
C662 C 0.9603 0.44356 0.15663 0.0
C663 C 0.96701 0.45751 0.20426 0.0
C664 C 0.9506 0.46619 0.2435 0.0
C665 C 0.92776 0.46086 0.2349 0.0
C666 C 0.92153 0.44654 0.18641 0.0
H667 H 0.06369 0.88482 0.58958 0.0
H668 H 0.03303 0.94028 0.68675 0.0
H669 H 0.05067 0.96664 0.61499 0.0
H670 H 0.11564 0.91136 0.56004 0.0
H671 H 0.11914 0.89956 0.48446 0.0
H672 H 0.10331 0.88474 0.54174 0.0
H673 H 0.06932 0.88315 0.46827 0.0
H674 H 0.0851 0.89789 0.41062 0.0
H675 H 0.05854 0.90866 0.43597 0.0
H676 H 0.07292 0.98716 0.53668 0.0
H677 H 0.09744 0.00051 0.45328 0.0
H678 H 0.11327 0.93192 0.40557 0.0
C679 C 0.06052 0.90249 0.59536 0.0
C680 C 0.047 0.91048 0.64381 0.0
C681 C 0.04335 0.93374 0.65004 0.0
C682 C 0.05329 0.94888 0.60951 0.0
C683 C 0.06675 0.94051 0.5628 0.0
C684 C 0.07029 0.91789 0.55515 0.0
C685 C 0.08586 0.9134 0.50169 0.0
C686 C 0.10725 0.90157 0.5233 0.0
C687 C 0.07399 0.89998 0.45114 0.0
C688 C 0.09065 0.93705 0.48105 0.0
C689 C 0.07945 0.95242 0.51696 0.0
C690 C 0.08167 0.97531 0.50789 0.0
C691 C 0.09569 0.98272 0.46057 0.0
C692 C 0.10721 0.96727 0.4229 0.0
C693 C 0.10457 0.94414 0.43337 0.0
H694 H 0.59036 0.07626 0.18573 0.0
H695 H 0.64601 0.04061 0.10391 0.0
H696 H 0.63225 0.05055 0.00036 0.0
H697 H 0.54919 0.06171 0.07561 0.0
H698 H 0.53582 0.08867 0.07582 0.0
H699 H 0.55011 0.07895 0.14345 0.0
H700 H 0.57474 0.11452 0.1438 0.0
H701 H 0.56033 0.12448 0.07663 0.0
H702 H 0.5903 0.12182 0.07578 0.0
H703 H 0.61105 0.06245 0.9061 0.0
H704 H 0.58676 0.07965 0.8276 0.0
H705 H 0.54626 0.10925 0.97163 0.0
C706 C 0.59971 0.07067 0.14599 0.0
C707 C 0.61917 0.05761 0.15257 0.0
C708 C 0.63111 0.05073 0.09969 0.0
C709 C 0.62335 0.05616 0.0408 0.0
C710 C 0.60386 0.06873 0.03589 0.0
C711 C 0.59244 0.07625 0.08707 0.0
C712 C 0.57229 0.09003 0.06933 0.0
C713 C 0.55057 0.07918 0.09243 0.0
C714 C 0.57456 0.11414 0.09276 0.0
C715 C 0.57402 0.08891 0.0001 0.0
C716 C 0.59217 0.07632 0.9817 0.0
C717 C 0.59688 0.07248 0.91992 0.0
C718 C 0.5829 0.08216 0.87574 0.0
C719 C 0.56468 0.09574 0.89372 0.0
C720 C 0.56013 0.09899 0.95669 0.0
H721 H 0.42889 0.55352 0.50345 0.0
H722 H 0.36933 0.54994 0.61704 0.0
H723 H 0.38713 0.57475 0.69322 0.0
H724 H 0.46891 0.55391 0.62831 0.0
H725 H 0.48736 0.57308 0.58963 0.0
H726 H 0.47005 0.55447 0.54555 0.0
H727 H 0.45354 0.58834 0.48709 0.0
H728 H 0.47056 0.60709 0.53164 0.0
H729 H 0.44069 0.6107 0.52984 0.0
H730 H 0.41087 0.6012 0.75478 0.0
H731 H 0.44015 0.62447 0.80216 0.0
H732 H 0.48408 0.61054 0.64792 0.0
C733 C 0.41965 0.55769 0.54469 0.0
C734 C 0.39771 0.54975 0.55431 0.0
C735 C 0.3862 0.55572 0.60879 0.0
C736 C 0.39611 0.56991 0.65216 0.0
C737 C 0.41754 0.57789 0.64039 0.0
C738 C 0.42928 0.57177 0.58837 0.0
C739 C 0.45207 0.58265 0.58651 0.0
C740 C 0.47069 0.56497 0.58759 0.0
C741 C 0.45434 0.59811 0.53044 0.0
C742 C 0.45135 0.59584 0.64573 0.0
C743 C 0.43124 0.59301 0.67592 0.0
C744 C 0.42671 0.6035 0.73166 0.0
C745 C 0.44342 0.61678 0.75803 0.0
C746 C 0.46442 0.61935 0.72876 0.0
C747 C 0.4682 0.60898 0.67139 0.0
H748 H 0.91987 0.06776 0.83434 0.0
H749 H 0.85179 0.07138 0.90207 0.0
H750 H 0.86441 0.096 0.98688 0.0
H751 H 0.94706 0.06595 0.97856 0.0
H752 H 0.97023 0.08297 0.95412 0.0
H753 H 0.95555 0.06607 0.89907 0.0
H754 H 0.94797 0.10113 0.83246 0.0
H755 H 0.96263 0.11816 0.88737 0.0
H756 H 0.93432 0.12495 0.86642 0.0
H757 H 0.8854 0.11874 0.06729 0.0
H758 H 0.91238 0.13884 0.13328 0.0
H759 H 0.96591 0.12104 0.00796 0.0
C760 C 0.90755 0.07368 0.86697 0.0
C761 C 0.88488 0.06756 0.86205 0.0
C762 C 0.86926 0.07589 0.9052 0.0
C763 C 0.87628 0.08984 0.95341 0.0
C764 C 0.89886 0.09544 0.957 0.0
C765 C 0.91418 0.08773 0.91451 0.0
C766 C 0.93745 0.09611 0.92792 0.0
C767 C 0.95351 0.07661 0.94069 0.0
C768 C 0.94609 0.11097 0.87542 0.0
C769 C 0.93298 0.10956 0.98526 0.0
C770 C 0.91067 0.10897 0.00159 0.0
C771 C 0.90285 0.11948 0.05455 0.0
C772 C 0.91828 0.1308 0.09174 0.0
C773 C 0.94118 0.13162 0.07541 0.0
C774 C 0.94847 0.12098 0.02123 0.0
H775 H 0.38822 0.97363 0.49791 0.0
H776 H 0.37332 0.91976 0.62467 0.0
H777 H 0.39488 0.89366 0.55946 0.0
H778 H 0.38422 0.942 0.35987 0.0
H779 H 0.407 0.95631 0.32272 0.0
H780 H 0.39053 0.9705 0.37986 0.0
H781 H 0.42643 0.97923 0.44192 0.0
H782 H 0.443 0.965 0.38501 0.0
H783 H 0.44459 0.95669 0.46445 0.0
H784 H 0.41735 0.87325 0.47744 0.0
H785 H 0.4393 0.86072 0.38711 0.0
H786 H 0.43989 0.92869 0.31816 0.0
C787 C 0.38944 0.95635 0.512 0.0
C788 C 0.37905 0.94869 0.56615 0.0
C789 C 0.38119 0.92597 0.58325 0.0
C790 C 0.39339 0.91103 0.54655 0.0
C791 C 0.40345 0.91916 0.49334 0.0
C792 C 0.40167 0.94133 0.47637 0.0
C793 C 0.41404 0.946 0.41731 0.0
C794 C 0.39799 0.95417 0.36698 0.0
C795 C 0.43315 0.96271 0.42784 0.0
C796 C 0.42289 0.92296 0.40325 0.0
C797 C 0.41664 0.90764 0.4474 0.0
C798 C 0.42246 0.88514 0.44279 0.0
C799 C 0.4349 0.87818 0.39142 0.0
C800 C 0.44139 0.89373 0.34582 0.0
C801 C 0.43538 0.91638 0.3524 0.0
H802 H 0.54562 0.42536 0.04265 0.0
H803 H 0.57061 0.35736 0.03684 0.0
H804 H 0.59955 0.36876 0.9627 0.0
H805 H 0.55228 0.43633 0.88394 0.0
H806 H 0.56054 0.465 0.89428 0.0
H807 H 0.54276 0.45177 0.95008 0.0
H808 H 0.57093 0.4618 0.03611 0.0
H809 H 0.58887 0.47498 0.9804 0.0
H810 H 0.59964 0.45313 0.02895 0.0
H811 H 0.62456 0.38704 0.885 0.0
H812 H 0.64283 0.41078 0.80684 0.0
H813 H 0.60168 0.46671 0.86424 0.0
C814 C 0.55729 0.41291 0.02622 0.0
C815 C 0.55584 0.39049 0.04562 0.0
C816 C 0.57134 0.37465 0.02258 0.0
C817 C 0.58793 0.38097 0.98064 0.0
C818 C 0.58886 0.40318 0.96226 0.0
C819 C 0.57394 0.41891 0.98419 0.0
C820 C 0.57784 0.44143 0.95473 0.0
C821 C 0.55713 0.44907 0.91861 0.0
C822 C 0.58473 0.45886 0.00293 0.0
C823 C 0.59705 0.4358 0.91221 0.0
C824 C 0.60329 0.41371 0.91753 0.0
C825 C 0.61998 0.40444 0.88078 0.0
C826 C 0.63027 0.41804 0.83658 0.0
C827 C 0.62376 0.44061 0.82955 0.0
C828 C 0.60722 0.4496 0.86878 0.0
H829 H 0.07707 0.55315 0.51855 0.0
H830 H 0.14337 0.5814 0.49664 0.0
H831 H 0.12874 0.60787 0.41989 0.0
H832 H 0.06223 0.55511 0.36215 0.0
H833 H 0.03341 0.56221 0.37598 0.0
H834 H 0.04879 0.54668 0.43257 0.0
H835 H 0.03918 0.57657 0.51461 0.0
H836 H 0.02383 0.59226 0.45808 0.0
H837 H 0.0461 0.60538 0.50037 0.0
H838 H 0.10741 0.62976 0.34109 0.0
H839 H 0.08107 0.64456 0.26387 0.0
H840 H 0.02885 0.60211 0.33808 0.0
C841 C 0.08848 0.56504 0.4981 0.0
C842 C 0.11135 0.56521 0.51365 0.0
C843 C 0.12576 0.58093 0.48543 0.0
C844 C 0.11761 0.59611 0.44196 0.0
C845 C 0.095 0.59542 0.42741 0.0
C846 C 0.08064 0.58029 0.4546 0.0
C847 C 0.05732 0.58224 0.42857 0.0
C848 C 0.05003 0.56026 0.39799 0.0
C849 C 0.04062 0.58955 0.47838 0.0
C850 C 0.06093 0.60049 0.3816 0.0
C851 C 0.08272 0.60804 0.38202 0.0
C852 C 0.09024 0.62415 0.3407 0.0
C853 C 0.07517 0.63246 0.29705 0.0
C854 C 0.0529 0.62455 0.29502 0.0
C855 C 0.0457 0.60866 0.33868 0.0
H856 H 0.89186 0.5366 0.22031 0.0
H857 H 0.88573 0.57128 0.39454 0.0
H858 H 0.90647 0.60329 0.35113 0.0
H859 H 0.94606 0.54956 0.19664 0.0
H860 H 0.9444 0.55254 0.11437 0.0
H861 H 0.92491 0.53486 0.15387 0.0
H862 H 0.89186 0.55703 0.10723 0.0
H863 H 0.91131 0.57478 0.0671 0.0
H864 H 0.89057 0.58687 0.11712 0.0
H865 H 0.9326 0.62865 0.29428 0.0
H866 H 0.96292 0.64446 0.2312 0.0
H867 H 0.9528 0.5924 0.0954 0.0
C868 C 0.89414 0.55123 0.24882 0.0
C869 C 0.88698 0.55154 0.3107 0.0
C870 C 0.89091 0.57076 0.34688 0.0
C871 C 0.9026 0.58905 0.3225 0.0
C872 C 0.91015 0.58783 0.26191 0.0
C873 C 0.90598 0.56941 0.22549 0.0
C874 C 0.91842 0.57072 0.16503 0.0
C875 C 0.93439 0.55075 0.15708 0.0
C876 C 0.90206 0.57246 0.11092 0.0
C877 C 0.93106 0.5923 0.17408 0.0
C878 C 0.92568 0.60219 0.22959 0.0
C879 C 0.93663 0.62127 0.25025 0.0
C880 C 0.95387 0.63011 0.21406 0.0
C881 C 0.96022 0.61969 0.15822 0.0
C882 C 0.94817 0.60093 0.13739 0.0
H883 H 0.90356 0.9593 0.64552 0.0
H884 H 0.87164 0.97026 0.82211 0.0
H885 H 0.89237 0.93835 0.86529 0.0
H886 H 0.90676 0.89711 0.65619 0.0
H887 H 0.9337 0.8966 0.6192 0.0
H888 H 0.91378 0.91803 0.59991 0.0
H889 H 0.94307 0.94837 0.62653 0.0
H890 H 0.96298 0.9271 0.6461 0.0
H891 H 0.95587 0.94832 0.70147 0.0
H892 H 0.92058 0.90894 0.89298 0.0
H893 H 0.95329 0.88393 0.90169 0.0
H894 H 0.96592 0.89181 0.7065 0.0
C895 C 0.90045 0.95465 0.69282 0.0
C896 C 0.88594 0.96726 0.73035 0.0
C897 C 0.88262 0.9608 0.79234 0.0
C898 C 0.89428 0.94265 0.81729 0.0
C899 C 0.909 0.93098 0.7795 0.0
C900 C 0.91192 0.93658 0.71838 0.0
C901 C 0.9301 0.92267 0.68894 0.0
C902 C 0.9205 0.90771 0.63805 0.0
C903 C 0.94912 0.9375 0.66436 0.0
C904 C 0.93755 0.90902 0.74361 0.0
C905 C 0.92504 0.91382 0.79531 0.0
C906 C 0.93019 0.90468 0.85251 0.0
C907 C 0.94882 0.89054 0.85708 0.0
C908 C 0.96205 0.88577 0.80475 0.0
C909 C 0.95593 0.89479 0.74721 0.0
H910 H 0.51516 0.91861 0.2293 0.0
H911 H 0.5617 0.86671 0.17451 0.0
H912 H 0.59329 0.89127 0.20226 0.0
H913 H 0.54767 0.96565 0.1761 0.0
H914 H 0.53974 0.98301 0.24015 0.0
H915 H 0.52107 0.96159 0.21329 0.0
H916 H 0.51976 0.9447 0.32285 0.0
H917 H 0.53865 0.9659 0.34991 0.0
H918 H 0.54545 0.93684 0.36012 0.0
H919 H 0.61974 0.92155 0.23719 0.0
H920 H 0.63896 0.95542 0.27473 0.0
H921 H 0.57473 0.98653 0.30984 0.0
C922 C 0.53199 0.91247 0.22235 0.0
C923 C 0.53599 0.89079 0.19944 0.0
C924 C 0.55826 0.8833 0.19185 0.0
C925 C 0.57629 0.8971 0.20758 0.0
C926 C 0.57173 0.91825 0.23111 0.0
C927 C 0.55011 0.9259 0.23832 0.0
C928 C 0.54963 0.94907 0.2658 0.0
C929 C 0.5389 0.96582 0.22116 0.0
C930 C 0.53767 0.94912 0.32839 0.0
C931 C 0.57438 0.9533 0.27294 0.0
C932 C 0.58687 0.93537 0.25254 0.0
C933 C 0.61013 0.93566 0.25344 0.0
C934 C 0.62089 0.95494 0.27493 0.0
C935 C 0.60835 0.97355 0.29553 0.0
C936 C 0.5848 0.97251 0.29509 0.0
H937 H 0.59626 0.53684 0.62841 0.0
H938 H 0.6528 0.52799 0.75065 0.0
H939 H 0.64034 0.56023 0.81187 0.0
H940 H 0.59402 0.59968 0.63926 0.0
H941 H 0.56393 0.59954 0.63745 0.0
H942 H 0.57943 0.57833 0.59697 0.0
H943 H 0.5576 0.54775 0.65597 0.0
H944 H 0.54224 0.5688 0.69692 0.0
H945 H 0.55766 0.54794 0.73881 0.0
H946 H 0.61836 0.58851 0.87002 0.0
H947 H 0.5896 0.61284 0.9166 0.0
H948 H 0.54817 0.60446 0.75492 0.0
C949 C 0.60643 0.54212 0.66685 0.0
C950 C 0.6255 0.52989 0.68467 0.0
C951 C 0.63814 0.53713 0.73594 0.0
C952 C 0.63123 0.55546 0.77101 0.0
C953 C 0.61184 0.56661 0.7537 0.0
C954 C 0.59981 0.56047 0.70222 0.0
C955 C 0.57851 0.57393 0.69677 0.0
C956 C 0.57901 0.58875 0.63919 0.0
C957 C 0.55779 0.55869 0.69718 0.0
C958 C 0.57994 0.58778 0.75476 0.0
C959 C 0.5994 0.58348 0.78669 0.0
C960 C 0.60334 0.5925 0.84472 0.0
C961 C 0.58689 0.60617 0.87096 0.0
C962 C 0.56685 0.61072 0.839 0.0
C963 C 0.56358 0.60171 0.77974 0.0
H964 H 0.13054 0.45972 0.76324 0.0
H965 H 0.12777 0.46231 0.56422 0.0
H966 H 0.10077 0.43112 0.56431 0.0
H967 H 0.12197 0.39807 0.78086 0.0
H968 H 0.10469 0.40209 0.84781 0.0
H969 H 0.12699 0.42139 0.83131 0.0
H970 H 0.09877 0.45417 0.83436 0.0
H971 H 0.07642 0.43504 0.85031 0.0
H972 H 0.07462 0.45343 0.78501 0.0
H973 H 0.07046 0.40333 0.58687 0.0
H974 H 0.0388 0.38204 0.62986 0.0
H975 H 0.06076 0.39872 0.8142 0.0
C976 C 0.12487 0.45324 0.71952 0.0
C977 C 0.13142 0.46327 0.66367 0.0
C978 C 0.12308 0.45474 0.60753 0.0
C979 C 0.1078 0.43699 0.60713 0.0
C980 C 0.10108 0.42798 0.66323 0.0
C981 C 0.10944 0.43577 0.7184 0.0
C982 C 0.0976 0.42523 0.77255 0.0
C983 C 0.11378 0.41083 0.81035 0.0
C984 C 0.08618 0.44303 0.81288 0.0
C985 C 0.08068 0.41095 0.7393 0.0
C986 C 0.08323 0.41238 0.67631 0.0
C987 C 0.06854 0.4018 0.63613 0.0
C988 C 0.05058 0.38977 0.66099 0.0
C989 C 0.04732 0.3887 0.72539 0.0
C990 C 0.06288 0.39908 0.7648 0.0
H991 H 0.00396 0.07494 0.20722 0.0
H992 H 0.04643 0.13362 0.2033 0.0
H993 H 0.07974 0.10939 0.1968 0.0
H994 H 0.03809 0.04244 0.30209 0.0
H995 H 0.03242 0.01651 0.26316 0.0
H996 H 0.01199 0.03851 0.26233 0.0
H997 H 0.01166 0.03769 0.14322 0.0
H998 H 0.03212 0.01565 0.1437 0.0
H999 H 0.03749 0.04098 0.10163 0.0
H1000 H 0.10847 0.07861 0.19914 0.0
H1001 H 0.13022 0.04374 0.20938 0.0
H1002 H 0.0686 0.00561 0.20975 0.0
C1003 C 0.02023 0.08274 0.20429 0.0
C1004 C 0.02261 0.10616 0.20581 0.0
C1005 C 0.04422 0.11569 0.20211 0.0
C1006 C 0.06323 0.10208 0.19828 0.0
C1007 C 0.06029 0.07902 0.19765 0.0
C1008 C 0.03932 0.06944 0.20021 0.0
C1009 C 0.04068 0.04426 0.20162 0.0
C1010 C 0.03018 0.03489 0.26082 0.0
C1011 C 0.02985 0.03405 0.14411 0.0
C1012 C 0.06572 0.04115 0.201 0.0
C1013 C 0.07677 0.06136 0.19827 0.0
C1014 C 0.1 0.06267 0.20051 0.0
C1015 C 0.1122 0.0428 0.2064 0.0
C1016 C 0.10111 0.02196 0.21005 0.0
C1017 C 0.0776 0.02123 0.20637 0.0
H1018 H 0.42564 0.0136 0.67951 0.0
H1019 H 0.3681 0.05157 0.74093 0.0
H1020 H 0.39139 0.08564 0.74573 0.0
H1021 H 0.46536 0.03923 0.77356 0.0
H1022 H 0.48733 0.03894 0.71691 0.0
H1023 H 0.46571 0.01814 0.71447 0.0
H1024 H 0.45657 0.02925 0.60216 0.0
H1025 H 0.47819 0.05014 0.60428 0.0
H1026 H 0.45003 0.05789 0.58447 0.0
H1027 H 0.4221 0.11457 0.75365 0.0
H1028 H 0.45722 0.13625 0.75951 0.0
H1029 H 0.49372 0.07941 0.68741 0.0
C1030 C 0.41787 0.02912 0.69348 0.0
C1031 C 0.39512 0.02997 0.71012 0.0
C1032 C 0.38552 0.0506 0.72784 0.0
C1033 C 0.39861 0.07001 0.73068 0.0
C1034 C 0.4211 0.06852 0.71462 0.0
C1035 C 0.43056 0.04863 0.69569 0.0
C1036 C 0.45521 0.05122 0.68251 0.0
C1037 C 0.46922 0.03599 0.72437 0.0
C1038 C 0.46029 0.04687 0.6143 0.0
C1039 C 0.45832 0.07555 0.69866 0.0
C1040 C 0.43849 0.0853 0.71699 0.0
C1041 C 0.43765 0.10723 0.73835 0.0
C1042 C 0.45765 0.11939 0.74163 0.0
C1043 C 0.47812 0.10959 0.72325 0.0
C1044 C 0.47828 0.08753 0.7006 0.0
H1045 H 0.45366 0.38132 0.30678 0.0
H1046 H 0.44926 0.37962 0.10794 0.0
H1047 H 0.41998 0.40868 0.11138 0.0
H1048 H 0.39371 0.39453 0.33952 0.0
H1049 H 0.40123 0.41296 0.40159 0.0
H1050 H 0.41845 0.3891 0.38418 0.0
H1051 H 0.45283 0.41503 0.37277 0.0
H1052 H 0.43577 0.43891 0.38969 0.0
H1053 H 0.45171 0.43801 0.31944 0.0
H1054 H 0.39489 0.44106 0.13568 0.0
H1055 H 0.37728 0.47498 0.17799 0.0
H1056 H 0.3993 0.45625 0.36075 0.0
C1057 C 0.44601 0.38649 0.26405 0.0
C1058 C 0.45352 0.37803 0.20711 0.0
C1059 C 0.4436 0.38576 0.15209 0.0
C1060 C 0.42691 0.4022 0.15364 0.0
C1061 C 0.42038 0.4107 0.21055 0.0
C1062 C 0.42961 0.40306 0.26479 0.0
C1063 C 0.42185 0.41677 0.31919 0.0
C1064 C 0.40798 0.40248 0.36374 0.0
C1065 C 0.44172 0.42783 0.35215 0.0
C1066 C 0.40744 0.43384 0.2869 0.0
C1067 C 0.40641 0.42979 0.22444 0.0
C1068 C 0.3953 0.4442 0.18462 0.0
C1069 C 0.38536 0.46344 0.20912 0.0
C1070 C 0.38689 0.46826 0.27272 0.0
C1071 C 0.39767 0.45295 0.31205 0.0
loop_
_geom_bond_atom_site_label_1
_geom_bond_atom_site_label_2
_geom_bond_distance
_geom_bond_site_symmetry_2
_ccdc_geom_bond_type
C0 O1 1.160 . S
C0 O7 1.185 . S
O1 C0 1.160 . S
O2 Zn3 1.936 . S
O2 C10 1.271 1_455 S
Zn3 O2 1.936 . S
Zn3 O4 2.032 . S
Zn3 O7 2.086 . S
Zn3 O12 1.977 . S
O4 Zn3 2.032 . S
O4 C8 1.278 . S
C5 O6 1.203 . S
C5 O12 1.267 . S
O6 C5 1.203 . S
O7 C0 1.185 . S
O7 Zn3 2.086 . S
C8 O4 1.278 . S
C8 O9 1.211 . S
O9 C8 1.211 . S
C10 O2 1.271 1_655 S
C10 O11 1.273 1_655 S
O11 C10 1.273 1_455 S
O12 Zn3 1.977 . S
O12 C5 1.267 . S
C13 O14 1.160 . S
C13 O20 1.185 . S
O14 C13 1.160 . S
O15 Zn16 1.937 . S
O15 C23 1.270 1_545 S
Zn16 O15 1.937 . S
Zn16 O17 2.032 . S
Zn16 O20 2.086 . S
Zn16 O25 1.977 . S
O17 Zn16 2.032 . S
O17 C21 1.278 . S
C18 O19 1.203 . S
C18 O25 1.267 . S
O19 C18 1.203 . S
O20 C13 1.185 . S
O20 Zn16 2.086 . S
C21 O17 1.278 . S
C21 O22 1.211 . S
O22 C21 1.211 . S
C23 O15 1.270 1_565 S
C23 O24 1.273 1_565 S
O24 C23 1.273 1_545 S
O25 Zn16 1.977 . S
O25 C18 1.267 . S
C26 O27 1.160 . S
C26 O33 1.185 . S
O27 C26 1.160 . S
O28 Zn29 1.899 . S
O28 C36 1.284 . S
Zn29 O28 1.899 . S
Zn29 O30 2.032 . S
Zn29 O33 2.086 . S
Zn29 O38 1.977 . S
O30 Zn29 2.032 . S
O30 C34 1.278 . S
C31 O32 1.203 . S
C31 O38 1.267 . S
O32 C31 1.203 . S
O33 C26 1.185 . S
O33 Zn29 2.086 . S
C34 O30 1.278 . S
C34 O35 1.211 . S
O35 C34 1.211 . S
C36 O28 1.284 . S
C36 O37 1.273 . S
O37 C36 1.273 . S
O38 Zn29 1.977 . S
O38 C31 1.267 . S
C39 O40 1.160 . S
C39 O46 1.185 . S
O40 C39 1.160 . S
O41 Zn42 1.899 . S
O41 C49 1.284 . S
Zn42 O41 1.899 . S
Zn42 O43 2.032 . S
Zn42 O46 2.086 . S
Zn42 O51 1.977 . S
O43 Zn42 2.032 . S
O43 C47 1.278 . S
C44 O45 1.203 . S
C44 O51 1.267 . S
O45 C44 1.203 . S
O46 C39 1.185 . S
O46 Zn42 2.086 . S
C47 O43 1.278 . S
C47 O48 1.211 . S
O48 C47 1.211 . S
C49 O41 1.284 . S
C49 O50 1.273 . S
O50 C49 1.273 . S
O51 Zn42 1.977 . S
O51 C44 1.267 . S
C52 O53 1.160 . S
C52 O59 1.185 . S
O53 C52 1.160 . S
O54 Zn55 1.937 . S
O54 C62 1.270 1_455 S
Zn55 O54 1.937 . S
Zn55 O56 2.032 . S
Zn55 O59 2.086 . S
Zn55 O64 1.977 . S
O56 Zn55 2.032 . S
O56 C60 1.278 . S
C57 O58 1.203 . S
C57 O64 1.267 . S
O58 C57 1.203 . S
O59 C52 1.185 . S
O59 Zn55 2.086 . S
C60 O56 1.278 . S
C60 O61 1.211 . S
O61 C60 1.211 . S
C62 O54 1.270 1_655 S
C62 O63 1.273 1_655 S
O63 C62 1.273 1_455 S
O64 Zn55 1.977 . S
O64 C57 1.267 . S
C65 O66 1.160 . S
C65 O72 1.185 . S
O66 C65 1.160 . S
O67 Zn68 1.936 . S
O67 C75 1.271 1_545 S
Zn68 O67 1.936 . S
Zn68 O69 2.032 . S
Zn68 O72 2.086 . S
Zn68 O77 1.977 . S
O69 Zn68 2.032 . S
O69 C73 1.278 . S
C70 O71 1.203 . S
C70 O77 1.267 . S
O71 C70 1.203 . S
O72 C65 1.185 . S
O72 Zn68 2.086 . S
C73 O69 1.278 . S
C73 O74 1.211 . S
O74 C73 1.211 . S
C75 O67 1.271 1_565 S
C75 O76 1.273 1_565 S
O76 C75 1.273 1_545 S
O77 Zn68 1.977 . S
O77 C70 1.267 . S
C78 O79 1.160 . S
C78 O85 1.185 . S
O79 C78 1.160 . S
O80 Zn81 1.899 . S
O80 C88 1.284 . S
Zn81 O80 1.899 . S
Zn81 O82 2.032 . S
Zn81 O85 2.086 . S
Zn81 O90 1.977 . S
O82 Zn81 2.032 . S
O82 C86 1.278 . S
C83 O84 1.203 . S
C83 O90 1.267 . S
O84 C83 1.203 . S
O85 C78 1.185 . S
O85 Zn81 2.086 . S
C86 O82 1.278 . S
C86 O87 1.211 . S
O87 C86 1.211 . S
C88 O80 1.284 . S
C88 O89 1.273 . S
O89 C88 1.273 . S
O90 Zn81 1.977 . S
O90 C83 1.267 . S
C91 O92 1.160 . S
C91 O98 1.185 . S
O92 C91 1.160 . S
O93 Zn94 1.899 . S
O93 C101 1.284 . S
Zn94 O93 1.899 . S
Zn94 O95 2.032 . S
Zn94 O98 2.086 . S
Zn94 O103 1.977 . S
O95 Zn94 2.032 . S
O95 C99 1.278 . S
C96 O97 1.203 . S
C96 O103 1.267 . S
O97 C96 1.203 . S
O98 C91 1.185 . S
O98 Zn94 2.086 . S
C99 O95 1.278 . S
C99 O100 1.211 . S
O100 C99 1.211 . S
C101 O93 1.284 . S
C101 O102 1.273 . S
O102 C101 1.273 . S
O103 Zn94 1.977 . S
O103 C96 1.267 . S
C104 O105 1.160 . S
C104 O111 1.185 . S
O105 C104 1.160 . S
O106 Zn107 1.899 . S
O106 C114 1.284 . S
Zn107 O106 1.899 . S
Zn107 O108 2.032 . S
Zn107 O111 2.086 . S
Zn107 O116 1.977 1_655 S
O108 Zn107 2.032 . S
O108 C112 1.278 . S
C109 O110 1.213 . S
C109 O116 1.267 . S
O110 C109 1.213 . S
O111 C104 1.185 . S
O111 Zn107 2.086 . S
C112 O108 1.278 . S
C112 O113 1.211 . S
O113 C112 1.211 . S
C114 O106 1.284 . S
C114 O115 1.273 . S
O115 C114 1.273 . S
O116 Zn107 1.977 1_455 S
O116 C109 1.267 . S
C117 O118 1.160 . S
C117 O124 1.185 . S
O118 C117 1.160 . S
O119 Zn120 1.899 . S
O119 C127 1.284 . S
Zn120 O119 1.899 . S
Zn120 O121 2.032 . S
Zn120 O124 2.086 . S
Zn120 O129 1.977 1_565 S
O121 Zn120 2.032 . S
O121 C125 1.278 . S
C122 O123 1.214 . S
C122 O129 1.267 . S
O123 C122 1.214 . S
O124 C117 1.185 . S
O124 Zn120 2.086 . S
C125 O121 1.278 . S
C125 O126 1.211 . S
O126 C125 1.211 . S
C127 O119 1.284 . S
C127 O128 1.273 . S
O128 C127 1.273 . S
O129 Zn120 1.977 1_545 S
O129 C122 1.267 . S
C130 O131 1.160 . S
C130 O137 1.185 . S
O131 C130 1.160 . S
O132 Zn133 1.899 . S
O132 C140 1.284 . S
Zn133 O132 1.899 . S
Zn133 O134 2.032 . S
Zn133 O137 2.086 . S
Zn133 O142 1.977 . S
O134 Zn133 2.032 . S
O134 C138 1.278 . S
C135 O136 1.203 . S
C135 O142 1.267 . S
O136 C135 1.203 . S
O137 C130 1.185 . S
O137 Zn133 2.086 . S
C138 O134 1.278 . S
C138 O139 1.211 . S
O139 C138 1.211 . S
C140 O132 1.284 . S
C140 O141 1.273 . S
O141 C140 1.273 . S
O142 Zn133 1.977 . S
O142 C135 1.267 . S
C143 O144 1.160 . S
C143 O150 1.185 . S
O144 C143 1.160 . S
O145 Zn146 1.899 . S
O145 C153 1.284 . S
Zn146 O145 1.899 . S
Zn146 O147 2.032 . S
Zn146 O150 2.086 . S
Zn146 O155 1.977 . S
O147 Zn146 2.032 . S
O147 C151 1.278 . S
C148 O149 1.203 . S
C148 O155 1.267 . S
O149 C148 1.203 . S
O150 C143 1.185 . S
O150 Zn146 2.086 . S
C151 O147 1.278 . S
C151 O152 1.211 . S
O152 C151 1.211 . S
C153 O145 1.284 . S
C153 O154 1.273 . S
O154 C153 1.273 . S
O155 Zn146 1.977 . S
O155 C148 1.267 . S
C156 O157 1.160 . S
C156 O163 1.185 . S
O157 C156 1.160 . S
O158 Zn159 1.899 . S
O158 C166 1.284 . S
Zn159 O158 1.899 . S
Zn159 O160 2.032 . S
Zn159 O163 2.086 . S
Zn159 O168 1.977 1_655 S
O160 Zn159 2.032 . S
O160 C164 1.278 . S
C161 O162 1.214 . S
C161 O168 1.267 . S
O162 C161 1.214 . S
O163 C156 1.185 . S
O163 Zn159 2.086 . S
C164 O160 1.278 . S
C164 O165 1.211 . S
O165 C164 1.211 . S
C166 O158 1.284 . S
C166 O167 1.273 . S
O167 C166 1.273 . S
O168 Zn159 1.977 1_455 S
O168 C161 1.267 . S
C169 O170 1.160 . S
C169 O176 1.185 . S
O170 C169 1.160 . S
O171 Zn172 1.899 . S
O171 C179 1.284 . S
Zn172 O171 1.899 . S
Zn172 O173 2.032 . S
Zn172 O176 2.086 . S
Zn172 O181 1.977 1_565 S
O173 Zn172 2.032 . S
O173 C177 1.278 . S
C174 O175 1.213 . S
C174 O181 1.267 . S
O175 C174 1.213 . S
O176 C169 1.185 . S
O176 Zn172 2.086 . S
C177 O173 1.278 . S
C177 O178 1.211 . S
O178 C177 1.211 . S
C179 O171 1.284 . S
C179 O180 1.273 . S
O180 C179 1.273 . S
O181 Zn172 1.977 1_545 S
O181 C174 1.267 . S
C182 O183 1.160 . S
C182 O189 1.185 . S
O183 C182 1.160 . S
O184 Zn185 1.899 . S
O184 C192 1.284 . S
Zn185 O184 1.899 . S
Zn185 O186 2.032 . S
Zn185 O189 2.086 . S
Zn185 O194 1.977 . S
O186 Zn185 2.032 . S
O186 C190 1.278 . S
C187 O188 1.203 . S
C187 O194 1.267 . S
O188 C187 1.203 . S
O189 C182 1.185 . S
O189 Zn185 2.086 . S
C190 O186 1.278 . S
C190 O191 1.211 . S
O191 C190 1.211 . S
C192 O184 1.284 . S
C192 O193 1.273 . S
O193 C192 1.273 . S
O194 Zn185 1.977 . S
O194 C187 1.267 . S
C195 O196 1.160 . S
C195 O202 1.185 . S
O196 C195 1.160 . S
O197 Zn198 1.899 . S
O197 C205 1.284 . S
Zn198 O197 1.899 . S
Zn198 O199 2.032 . S
Zn198 O202 2.086 . S
Zn198 O207 1.977 . S
O199 Zn198 2.032 . S
O199 C203 1.278 . S
C200 O201 1.203 . S
C200 O207 1.267 . S
O201 C200 1.203 . S
O202 C195 1.185 . S
O202 Zn198 2.086 . S
C203 O199 1.278 . S
C203 O204 1.211 . S
O204 C203 1.211 . S
C205 O197 1.284 . S
C205 O206 1.273 . S
O206 C205 1.273 . S
O207 Zn198 1.977 . S
O207 C200 1.267 . S
H208 C220 0.930 1_655 S
H209 C222 0.930 . S
H210 C223 0.930 . S
H211 C227 0.959 1_455 S
H212 C227 0.959 . S
H213 C227 0.961 . S
H214 C228 0.960 . S
H215 C228 0.961 . S
H216 C228 0.959 1_554 S
H217 C231 0.929 . S
H218 C232 0.931 . S
H219 C234 0.930 1_655 S
C220 H208 0.930 1_455 S
C220 C221 1.399 . S
C220 C225 1.399 . S
C221 C220 1.399 . S
C221 C222 1.376 . S
C222 H209 0.930 . S
C222 C221 1.376 . S
C222 C223 1.388 . S
C223 H210 0.930 . S
C223 C222 1.388 . S
C223 C224 1.390 . S
C224 C223 1.390 . S
C224 C225 1.394 . S
C224 C230 1.465 . S
C225 C220 1.399 . S
C225 C224 1.394 . S
C225 C226 1.498 1_454 S
C226 C225 1.498 1_656 S
C226 C227 1.504 . S
C226 C228 1.596 . S
C226 C229 1.507 1_655 S
C227 H211 0.959 1_655 S
C227 H212 0.959 . S
C227 H213 0.961 . S
C227 C226 1.504 . S
C228 H214 0.960 . S
C228 H215 0.961 . S
C228 H216 0.959 1_556 S
C228 C226 1.596 . S
C229 C226 1.507 1_455 S
C229 C230 1.396 1_556 S
C229 C234 1.390 . S
C230 C224 1.465 . S
C230 C229 1.396 1_554 S
C230 C231 1.399 . S
C231 H217 0.929 . S
C231 C230 1.399 . S
C231 C232 1.385 1_554 S
C232 H218 0.931 . S
C232 C231 1.385 1_556 S
C232 C233 1.389 . S
C233 C232 1.389 . S
C233 C234 1.387 . S
C234 H219 0.930 1_455 S
C234 C229 1.390 . S
C234 C233 1.387 . S
H235 C247 0.930 1_565 S
H236 C249 0.930 . S
H237 C250 0.930 . S
H238 C254 0.959 . S
H239 C254 0.959 . S
H240 C254 0.961 . S
H241 C255 0.960 . S
H242 C255 0.961 . S
H243 C255 0.959 . S
H244 C258 0.929 . S
H245 C259 0.931 . S
H246 C261 0.930 1_565 S
C247 H235 0.930 1_545 S
C247 C248 1.399 . S
C247 C252 1.399 . S
C248 C247 1.399 . S
C248 C249 1.376 . S
C249 H236 0.930 . S
C249 C248 1.376 . S
C249 C250 1.388 . S
C250 H237 0.930 . S
C250 C249 1.388 . S
C250 C251 1.390 . S
C251 C250 1.390 . S
C251 C252 1.394 . S
C251 C257 1.465 . S
C252 C247 1.399 . S
C252 C251 1.394 . S
C252 C253 1.516 1_545 S
C253 C252 1.516 1_565 S
C253 C254 1.502 . S
C253 C255 1.561 . S
C253 C256 1.526 1_565 S
C254 H238 0.959 . S
C254 H239 0.959 . S
C254 H240 0.961 . S
C254 C253 1.502 . S
C255 H241 0.960 . S
C255 H242 0.961 . S
C255 H243 0.959 . S
C255 C253 1.561 . S
C256 C253 1.526 1_545 S
C256 C257 1.396 . S
C256 C261 1.390 . S
C257 C251 1.465 . S
C257 C256 1.396 . S
C257 C258 1.399 . S
C258 H244 0.929 . S
C258 C257 1.399 . S
C258 C259 1.385 . S
C259 H245 0.931 . S
C259 C258 1.385 . S
C259 C260 1.389 . S
C260 C259 1.389 . S
C260 C261 1.387 . S
C261 H246 0.930 1_545 S
C261 C256 1.390 . S
C261 C260 1.387 . S
H262 C274 0.930 . S
H263 C276 0.930 . S
H264 C277 0.930 . S
H265 C281 0.959 . S
H266 C281 0.959 . S
H267 C281 0.961 . S
H268 C282 0.960 . S
H269 C282 0.961 . S
H270 C282 0.959 . S
H271 C285 0.929 . S
H272 C286 0.931 . S
H273 C288 0.930 . S
C274 H262 0.930 . S
C274 C275 1.399 . S
C274 C279 1.399 . S
C275 C274 1.399 . S
C275 C276 1.376 . S
C276 H263 0.930 . S
C276 C275 1.376 . S
C276 C277 1.388 . S
C277 H264 0.930 . S
C277 C276 1.388 . S
C277 C278 1.390 . S
C278 C277 1.390 . S
C278 C279 1.394 . S
C278 C284 1.465 . S
C279 C274 1.399 . S
C279 C278 1.394 . S
C279 C280 1.516 1_554 S
C280 C279 1.516 1_556 S
C280 C281 1.502 . S
C280 C282 1.561 . S
C280 C283 1.526 . S
C281 H265 0.959 . S
C281 H266 0.959 . S
C281 H267 0.961 . S
C281 C280 1.502 . S
C282 H268 0.960 . S
C282 H269 0.961 . S
C282 H270 0.959 . S
C282 C280 1.561 . S
C283 C280 1.526 . S
C283 C284 1.396 1_556 S
C283 C288 1.390 . S
C284 C278 1.465 . S
C284 C283 1.396 1_554 S
C284 C285 1.399 . S
C285 H271 0.929 . S
C285 C284 1.399 . S
C285 C286 1.385 1_554 S
C286 H272 0.931 . S
C286 C285 1.385 1_556 S
C286 C287 1.389 . S
C287 C286 1.389 . S
C287 C288 1.387 . S
C288 H273 0.930 . S
C288 C283 1.390 . S
C288 C287 1.387 . S
H289 C301 0.930 . S
H290 C303 0.930 . S
H291 C304 0.930 . S
H292 C308 0.959 . S
H293 C308 0.959 . S
H294 C308 0.961 . S
H295 C309 0.960 . S
H296 C309 0.961 . S
H297 C309 0.959 . S
H298 C312 0.929 . S
H299 C313 0.931 . S
H300 C315 0.930 . S
C301 H289 0.930 . S
C301 C302 1.399 . S
C301 C306 1.399 . S
C302 C301 1.399 . S
C302 C303 1.376 . S
C303 H290 0.930 . S
C303 C302 1.376 . S
C303 C304 1.388 . S
C304 H291 0.930 . S
C304 C303 1.388 . S
C304 C305 1.390 . S
C305 C304 1.390 . S
C305 C306 1.394 . S
C305 C311 1.465 . S
C306 C301 1.399 . S
C306 C305 1.394 . S
C306 C307 1.516 . S
C307 C306 1.516 . S
C307 C308 1.502 . S
C307 C309 1.561 . S
C307 C310 1.526 . S
C308 H292 0.959 . S
C308 H293 0.959 . S
C308 H294 0.961 . S
C308 C307 1.502 . S
C309 H295 0.960 . S
C309 H296 0.961 . S
C309 H297 0.959 . S
C309 C307 1.561 . S
C310 C307 1.526 . S
C310 C311 1.396 . S
C310 C315 1.390 . S
C311 C305 1.465 . S
C311 C310 1.396 . S
C311 C312 1.399 . S
C312 H298 0.929 . S
C312 C311 1.399 . S
C312 C313 1.385 . S
C313 H299 0.931 . S
C313 C312 1.385 . S
C313 C314 1.389 . S
C314 C313 1.389 . S
C314 C315 1.387 . S
C315 H300 0.930 . S
C315 C310 1.390 . S
C315 C314 1.387 . S
H316 C328 0.930 . S
H317 C330 0.938 . S
H318 C331 0.930 1_455 S
H319 C335 0.959 . S
H320 C335 0.959 . S
H321 C335 0.961 . S
H322 C336 0.960 . S
H323 C336 0.961 . S
H324 C336 0.959 . S
H325 C339 0.929 1_455 S
H326 C340 0.931 . S
H327 C342 0.930 . S
C328 H316 0.930 . S
C328 C329 1.399 . S
C328 C333 1.399 . S
C329 C328 1.399 . S
C329 C330 1.376 . S
C330 H317 0.938 . S
C330 C329 1.376 . S
C330 C331 1.388 1_556 S
C331 H318 0.930 1_655 S
C331 C330 1.388 1_554 S
C331 C332 1.388 1_554 S
C332 C331 1.388 1_556 S
C332 C333 1.404 . S
C332 C338 1.458 1_556 S
C333 C328 1.399 . S
C333 C332 1.404 . S
C333 C334 1.516 . S
C334 C333 1.516 . S
C334 C335 1.502 . S
C334 C336 1.561 . S
C334 C337 1.526 1_556 S
C335 H319 0.959 . S
C335 H320 0.959 . S
C335 H321 0.961 . S
C335 C334 1.502 . S
C336 H322 0.960 . S
C336 H323 0.961 . S
C336 H324 0.959 . S
C336 C334 1.561 . S
C337 C334 1.526 1_554 S
C337 C338 1.396 . S
C337 C342 1.390 . S
C338 C332 1.458 1_554 S
C338 C337 1.396 . S
C338 C339 1.399 . S
C339 H325 0.929 1_655 S
C339 C338 1.399 . S
C339 C340 1.385 . S
C340 H326 0.931 . S
C340 C339 1.385 . S
C340 C341 1.389 . S
C341 C340 1.389 . S
C341 C342 1.387 . S
C342 H327 0.930 . S
C342 C337 1.390 . S
C342 C341 1.387 . S
H343 C355 0.930 . S
H344 C357 0.930 1_545 S
H345 C358 0.930 . S
H346 C362 0.959 . S
H347 C362 0.959 . S
H348 C362 0.961 . S
H349 C363 0.960 . S
H350 C363 0.961 . S
H351 C363 0.959 . S
H352 C366 0.929 . S
H353 C367 0.901 1_545 S
H354 C369 0.930 . S
C355 H343 0.930 . S
C355 C356 1.399 . S
C355 C360 1.399 . S
C356 C355 1.399 . S
C356 C357 1.376 . S
C357 H344 0.930 1_565 S
C357 C356 1.376 . S
C357 C358 1.388 1_565 S
C358 H345 0.930 . S
C358 C357 1.388 1_545 S
C358 C359 1.390 1_545 S
C359 C358 1.390 1_565 S
C359 C360 1.394 . S
C359 C365 1.465 . S
C360 C355 1.399 . S
C360 C359 1.394 . S
C360 C361 1.516 . S
C361 C360 1.516 . S
C361 C362 1.502 . S
C361 C363 1.561 . S
C361 C364 1.526 . S
C362 H346 0.959 . S
C362 H347 0.959 . S
C362 H348 0.961 . S
C362 C361 1.502 . S
C363 H349 0.960 . S
C363 H350 0.961 . S
C363 H351 0.959 . S
C363 C361 1.561 . S
C364 C361 1.526 . S
C364 C365 1.396 . S
C364 C369 1.390 . S
C365 C359 1.465 . S
C365 C364 1.396 . S
C365 C366 1.399 1_565 S
C366 H352 0.929 . S
C366 C365 1.399 1_545 S
C366 C367 1.379 1_545 S
C367 H353 0.901 1_565 S
C367 C366 1.379 1_565 S
C367 C368 1.426 . S
C368 C367 1.426 . S
C368 C369 1.387 . S
C369 H354 0.930 . S
C369 C364 1.390 . S
C369 C368 1.387 . S
H370 C382 0.930 . S
H371 C384 0.930 . S
H372 C385 0.930 . S
H373 C389 0.959 . S
H374 C389 0.959 . S
H375 C389 0.961 . S
H376 C390 0.960 . S
H377 C390 0.961 . S
H378 C390 0.959 . S
H379 C393 0.929 1_556 S
H380 C394 0.931 . S
H381 C396 0.930 . S
C382 H370 0.930 . S
C382 C383 1.399 . S
C382 C387 1.399 . S
C383 C382 1.399 . S
C383 C384 1.376 . S
C384 H371 0.930 . S
C384 C383 1.376 . S
C384 C385 1.388 . S
C385 H372 0.930 . S
C385 C384 1.388 . S
C385 C386 1.390 . S
C386 C385 1.390 . S
C386 C387 1.394 . S
C386 C392 1.465 1_556 S
C387 C382 1.399 . S
C387 C386 1.394 . S
C387 C388 1.516 1_556 S
C388 C387 1.516 1_554 S
C388 C389 1.502 . S
C388 C390 1.561 . S
C388 C391 1.526 . S
C389 H373 0.959 . S
C389 H374 0.959 . S
C389 H375 0.961 . S
C389 C388 1.502 . S
C390 H376 0.960 . S
C390 H377 0.961 . S
C390 H378 0.959 . S
C390 C388 1.561 . S
C391 C388 1.526 . S
C391 C392 1.396 . S
C391 C396 1.390 . S
C392 C386 1.465 1_554 S
C392 C391 1.396 . S
C392 C393 1.399 . S
C393 H379 0.929 1_554 S
C393 C392 1.399 . S
C393 C394 1.385 . S
C394 H380 0.931 . S
C394 C393 1.385 . S
C394 C395 1.389 . S
C395 C394 1.389 . S
C395 C396 1.387 . S
C396 H381 0.930 . S
C396 C391 1.390 . S
C396 C395 1.387 . S
H397 C409 0.930 . S
H398 C411 0.930 . S
H399 C412 0.930 . S
H400 C416 0.959 . S
H401 C416 0.959 . S
H402 C416 0.961 . S
H403 C417 0.960 . S
H404 C417 0.961 . S
H405 C417 0.959 . S
H406 C420 0.929 . S
H407 C421 0.931 . S
H408 C423 0.930 . S
C409 H397 0.930 . S
C409 C410 1.399 . S
C409 C414 1.399 . S
C410 C409 1.399 . S
C410 C411 1.376 . S
C411 H398 0.930 . S
C411 C410 1.376 . S
C411 C412 1.388 . S
C412 H399 0.930 . S
C412 C411 1.388 . S
C412 C413 1.390 . S
C413 C412 1.390 . S
C413 C414 1.394 . S
C413 C419 1.465 . S
C414 C409 1.399 . S
C414 C413 1.394 . S
C414 C415 1.516 . S
C415 C414 1.516 . S
C415 C416 1.502 . S
C415 C417 1.561 . S
C415 C418 1.526 . S
C416 H400 0.959 . S
C416 H401 0.959 . S
C416 H402 0.961 . S
C416 C415 1.502 . S
C417 H403 0.960 . S
C417 H404 0.961 . S
C417 H405 0.959 . S
C417 C415 1.561 . S
C418 C415 1.526 . S
C418 C419 1.396 . S
C418 C423 1.390 . S
C419 C413 1.465 . S
C419 C418 1.396 . S
C419 C420 1.399 . S
C420 H406 0.929 . S
C420 C419 1.399 . S
C420 C421 1.385 . S
C421 H407 0.931 . S
C421 C420 1.385 . S
C421 C422 1.389 . S
C422 C421 1.389 . S
C422 C423 1.387 . S
C423 H408 0.930 . S
C423 C418 1.390 . S
C423 C422 1.387 . S
H424 C436 0.930 . S
H425 C438 0.930 . S
H426 C439 0.930 . S
H427 C443 0.959 . S
H428 C443 0.959 . S
H429 C443 0.961 . S
H430 C444 0.960 . S
H431 C444 0.961 . S
H432 C444 0.959 . S
H433 C447 0.929 . S
H434 C448 0.931 . S
H435 C450 0.930 . S
C436 H424 0.930 . S
C436 C437 1.399 1_556 S
C436 C441 1.399 . S
C437 C436 1.399 1_554 S
C437 C438 1.376 . S
C438 H425 0.930 . S
C438 C437 1.376 . S
C438 C439 1.388 1_554 S
C439 H426 0.930 . S
C439 C438 1.388 1_556 S
C439 C440 1.390 . S
C440 C439 1.390 . S
C440 C441 1.394 . S
C440 C446 1.465 . S
C441 C436 1.399 . S
C441 C440 1.394 . S
C441 C442 1.516 . S
C442 C441 1.516 . S
C442 C443 1.502 . S
C442 C444 1.561 . S
C442 C445 1.526 . S
C443 H427 0.959 . S
C443 H428 0.959 . S
C443 H429 0.961 . S
C443 C442 1.502 . S
C444 H430 0.960 . S
C444 H431 0.961 . S
C444 H432 0.959 . S
C444 C442 1.561 . S
C445 C442 1.526 . S
C445 C446 1.396 . S
C445 C450 1.390 . S
C446 C440 1.465 . S
C446 C445 1.396 . S
C446 C447 1.399 . S
C447 H433 0.929 . S
C447 C446 1.399 . S
C447 C448 1.385 . S
C448 H434 0.931 . S
C448 C447 1.385 . S
C448 C449 1.389 . S
C449 C448 1.389 . S
C449 C450 1.387 . S
C450 H435 0.930 . S
C450 C445 1.390 . S
C450 C449 1.387 . S
H451 C463 0.930 . S
H452 C465 0.930 . S
H453 C466 0.930 . S
H454 C470 0.959 . S
H455 C470 0.959 . S
H456 C470 0.961 . S
H457 C471 0.960 . S
H458 C471 0.961 . S
H459 C471 0.959 . S
H460 C474 0.929 . S
H461 C475 0.931 . S
H462 C477 0.930 . S
C463 H451 0.930 . S
C463 C464 1.399 . S
C463 C468 1.399 . S
C464 C463 1.399 . S
C464 C465 1.376 . S
C465 H452 0.930 . S
C465 C464 1.376 . S
C465 C466 1.388 . S
C466 H453 0.930 . S
C466 C465 1.388 . S
C466 C467 1.390 . S
C467 C466 1.390 . S
C467 C468 1.394 . S
C467 C473 1.465 . S
C468 C463 1.399 . S
C468 C467 1.394 . S
C468 C469 1.516 . S
C469 C468 1.516 . S
C469 C470 1.502 . S
C469 C471 1.561 . S
C469 C472 1.526 . S
C470 H454 0.959 . S
C470 H455 0.959 . S
C470 H456 0.961 . S
C470 C469 1.502 . S
C471 H457 0.960 . S
C471 H458 0.961 . S
C471 H459 0.959 . S
C471 C469 1.561 . S
C472 C469 1.526 . S
C472 C473 1.396 . S
C472 C477 1.390 . S
C473 C467 1.465 . S
C473 C472 1.396 . S
C473 C474 1.399 . S
C474 H460 0.929 . S
C474 C473 1.399 . S
C474 C475 1.385 . S
C475 H461 0.931 . S
C475 C474 1.385 . S
C475 C476 1.389 . S
C476 C475 1.389 . S
C476 C477 1.387 . S
C477 H462 0.930 . S
C477 C472 1.390 . S
C477 C476 1.387 . S
H478 C490 0.922 1_554 S
H479 C492 0.930 . S
H480 C493 0.930 . S
H481 C497 0.959 . S
H482 C497 0.959 . S
H483 C497 0.961 1_554 S
H484 C498 0.960 . S
H485 C498 0.961 . S
H486 C498 0.959 . S
H487 C501 0.929 . S
H488 C502 0.931 . S
H489 C504 0.930 . S
C490 H478 0.922 1_556 S
C490 C491 1.399 1_556 S
C490 C495 1.407 . S
C491 C490 1.399 1_554 S
C491 C492 1.376 1_554 S
C492 H479 0.930 . S
C492 C491 1.376 1_556 S
C492 C493 1.388 . S
C493 H480 0.930 . S
C493 C492 1.388 . S
C493 C494 1.390 . S
C494 C493 1.390 . S
C494 C495 1.394 . S
C494 C500 1.465 . S
C495 C490 1.407 . S
C495 C494 1.394 . S
C495 C496 1.516 . S
C496 C495 1.516 . S
C496 C497 1.502 . S
C496 C498 1.561 . S
C496 C499 1.526 . S
C497 H481 0.959 . S
C497 H482 0.959 . S
C497 H483 0.961 1_556 S
C497 C496 1.502 . S
C498 H484 0.960 . S
C498 H485 0.961 . S
C498 H486 0.959 . S
C498 C496 1.561 . S
C499 C496 1.526 . S
C499 C500 1.396 . S
C499 C504 1.390 . S
C500 C494 1.465 . S
C500 C499 1.396 . S
C500 C501 1.399 . S
C501 H487 0.929 . S
C501 C500 1.399 . S
C501 C502 1.385 . S
C502 H488 0.931 . S
C502 C501 1.385 . S
C502 C503 1.389 . S
C503 C502 1.389 . S
C503 C504 1.387 . S
C504 H489 0.930 . S
C504 C499 1.390 . S
C504 C503 1.387 . S
H505 C517 0.930 . S
H506 C519 0.930 . S
H507 C520 0.930 . S
H508 C524 0.959 . S
H509 C524 0.959 . S
H510 C524 0.961 . S
H511 C525 0.960 . S
H512 C525 0.961 . S
H513 C525 0.959 . S
H514 C528 0.929 . S
H515 C529 0.931 . S
H516 C531 0.930 . S
C517 H505 0.930 . S
C517 C518 1.399 . S
C517 C522 1.399 . S
C518 C517 1.399 . S
C518 C519 1.376 . S
C519 H506 0.930 . S
C519 C518 1.376 . S
C519 C520 1.388 . S
C520 H507 0.930 . S
C520 C519 1.388 . S
C520 C521 1.390 . S
C521 C520 1.390 . S
C521 C522 1.394 . S
C521 C527 1.465 . S
C522 C517 1.399 . S
C522 C521 1.394 . S
C522 C523 1.516 . S
C523 C522 1.516 . S
C523 C524 1.502 . S
C523 C525 1.561 . S
C523 C526 1.526 . S
C524 H508 0.959 . S
C524 H509 0.959 . S
C524 H510 0.961 . S
C524 C523 1.502 . S
C525 H511 0.960 . S
C525 H512 0.961 . S
C525 H513 0.959 . S
C525 C523 1.561 . S
C526 C523 1.526 . S
C526 C527 1.396 . S
C526 C531 1.390 . S
C527 C521 1.465 . S
C527 C526 1.396 . S
C527 C528 1.399 . S
C528 H514 0.929 . S
C528 C527 1.399 . S
C528 C529 1.385 . S
C529 H515 0.931 . S
C529 C528 1.385 . S
C529 C530 1.389 . S
C530 C529 1.389 . S
C530 C531 1.387 . S
C531 H516 0.930 . S
C531 C526 1.390 . S
C531 C530 1.387 . S
H532 C544 0.930 . S
H533 C546 0.930 . S
H534 C547 0.930 . S
H535 C551 0.959 . S
H536 C551 0.959 . S
H537 C551 0.961 . S
H538 C552 0.960 . S
H539 C552 0.961 . S
H540 C552 0.959 . S
H541 C555 0.929 . S
H542 C556 0.931 . S
H543 C558 0.930 . S
C544 H532 0.930 . S
C544 C545 1.399 . S
C544 C549 1.399 . S
C545 C544 1.399 . S
C545 C546 1.376 . S
C546 H533 0.930 . S
C546 C545 1.376 . S
C546 C547 1.388 . S
C547 H534 0.930 . S
C547 C546 1.388 . S
C547 C548 1.390 . S
C548 C547 1.390 . S
C548 C549 1.394 . S
C548 C554 1.465 . S
C549 C544 1.399 . S
C549 C548 1.394 . S
C549 C550 1.516 . S
C550 C549 1.516 . S
C550 C551 1.502 . S
C550 C552 1.561 . S
C550 C553 1.526 . S
C551 H535 0.959 . S
C551 H536 0.959 . S
C551 H537 0.961 . S
C551 C550 1.502 . S
C552 H538 0.960 . S
C552 H539 0.961 . S
C552 H540 0.959 . S
C552 C550 1.561 . S
C553 C550 1.526 . S
C553 C554 1.396 . S
C553 C558 1.390 . S
C554 C548 1.465 . S
C554 C553 1.396 . S
C554 C555 1.399 . S
C555 H541 0.929 . S
C555 C554 1.399 . S
C555 C556 1.385 1_554 S
C556 H542 0.931 . S
C556 C555 1.385 1_556 S
C556 C557 1.389 . S
C557 C556 1.389 . S
C557 C558 1.387 1_556 S
C558 H543 0.930 . S
C558 C553 1.390 . S
C558 C557 1.387 1_554 S
H559 C571 0.930 . S
H560 C573 0.930 . S
H561 C574 0.930 . S
H562 C578 0.959 . S
H563 C578 0.959 . S
H564 C578 0.961 . S
H565 C579 0.960 . S
H566 C579 0.961 . S
H567 C579 0.959 . S
H568 C582 0.929 . S
H569 C583 0.931 . S
H570 C585 0.930 . S
C571 H559 0.930 . S
C571 C572 1.399 . S
C571 C576 1.399 . S
C572 C571 1.399 . S
C572 C573 1.376 . S
C573 H560 0.930 . S
C573 C572 1.376 . S
C573 C574 1.388 . S
C574 H561 0.930 . S
C574 C573 1.388 . S
C574 C575 1.390 . S
C575 C574 1.390 . S
C575 C576 1.394 . S
C575 C581 1.465 . S
C576 C571 1.399 . S
C576 C575 1.394 . S
C576 C577 1.516 . S
C577 C576 1.516 . S
C577 C578 1.502 . S
C577 C579 1.561 . S
C577 C580 1.526 . S
C578 H562 0.959 . S
C578 H563 0.959 . S
C578 H564 0.961 . S
C578 C577 1.502 . S
C579 H565 0.960 . S
C579 H566 0.961 . S
C579 H567 0.959 . S
C579 C577 1.561 . S
C580 C577 1.526 . S
C580 C581 1.396 . S
C580 C585 1.390 . S
C581 C575 1.465 . S
C581 C580 1.396 . S
C581 C582 1.399 . S
C582 H568 0.929 . S
C582 C581 1.399 . S
C582 C583 1.385 . S
C583 H569 0.931 . S
C583 C582 1.385 . S
C583 C584 1.389 . S
C584 C583 1.389 . S
C584 C585 1.387 . S
C585 H570 0.930 . S
C585 C580 1.390 . S
C585 C584 1.387 . S
H586 C598 0.930 . S
H587 C600 0.930 . S
H588 C601 0.930 . S
H589 C605 0.959 . S
H590 C605 0.959 . S
H591 C605 0.961 . S
H592 C606 0.960 . S
H593 C606 0.961 . S
H594 C606 0.959 . S
H595 C609 0.929 . S
H596 C610 0.931 . S
H597 C612 0.930 . S
C598 H586 0.930 . S
C598 C599 1.399 . S
C598 C603 1.399 . S
C599 C598 1.399 . S
C599 C600 1.376 . S
C600 H587 0.930 . S
C600 C599 1.376 . S
C600 C601 1.388 . S
C601 H588 0.930 . S
C601 C600 1.388 . S
C601 C602 1.390 . S
C602 C601 1.390 . S
C602 C603 1.394 . S
C602 C608 1.465 . S
C603 C598 1.399 . S
C603 C602 1.394 . S
C603 C604 1.516 . S
C604 C603 1.516 . S
C604 C605 1.502 . S
C604 C606 1.561 . S
C604 C607 1.526 . S
C605 H589 0.959 . S
C605 H590 0.959 . S
C605 H591 0.961 . S
C605 C604 1.502 . S
C606 H592 0.960 . S
C606 H593 0.961 . S
C606 H594 0.959 . S
C606 C604 1.561 . S
C607 C604 1.526 . S
C607 C608 1.396 . S
C607 C612 1.390 . S
C608 C602 1.465 . S
C608 C607 1.396 . S
C608 C609 1.399 . S
C609 H595 0.929 . S
C609 C608 1.399 . S
C609 C610 1.385 1_554 S
C610 H596 0.931 . S
C610 C609 1.385 1_556 S
C610 C611 1.389 . S
C611 C610 1.389 . S
C611 C612 1.387 1_556 S
C612 H597 0.930 . S
C612 C607 1.390 . S
C612 C611 1.387 1_554 S
H613 C625 0.930 . S
H614 C627 0.930 . S
H615 C628 0.930 . S
H616 C632 0.959 . S
H617 C632 0.959 . S
H618 C632 0.961 . S
H619 C633 0.960 . S
H620 C633 0.961 . S
H621 C633 0.959 . S
H622 C636 0.929 . S
H623 C637 0.931 . S
H624 C639 0.930 . S
C625 H613 0.930 . S
C625 C626 1.399 . S
C625 C630 1.399 . S
C626 C625 1.399 . S
C626 C627 1.376 . S
C627 H614 0.930 . S
C627 C626 1.376 . S
C627 C628 1.388 . S
C628 H615 0.930 . S
C628 C627 1.388 . S
C628 C629 1.390 . S
C629 C628 1.390 . S
C629 C630 1.394 . S
C629 C635 1.465 . S
C630 C625 1.399 . S
C630 C629 1.394 . S
C630 C631 1.516 . S
C631 C630 1.516 . S
C631 C632 1.502 . S
C631 C633 1.561 . S
C631 C634 1.526 . S
C632 H616 0.959 . S
C632 H617 0.959 . S
C632 H618 0.961 . S
C632 C631 1.502 . S
C633 H619 0.960 . S
C633 H620 0.961 . S
C633 H621 0.959 . S
C633 C631 1.561 . S
C634 C631 1.526 . S
C634 C635 1.396 . S
C634 C639 1.390 . S
C635 C629 1.465 . S
C635 C634 1.396 . S
C635 C636 1.399 . S
C636 H622 0.929 . S
C636 C635 1.399 . S
C636 C637 1.385 . S
C637 H623 0.931 . S
C637 C636 1.385 . S
C637 C638 1.389 . S
C638 C637 1.389 . S
C638 C639 1.387 . S
C639 H624 0.930 . S
C639 C634 1.390 . S
C639 C638 1.387 . S
H640 C652 0.930 . S
H641 C654 0.930 . S
H642 C655 0.930 . S
H643 C659 0.959 . S
H644 C659 0.959 . S
H645 C659 0.961 . S
H646 C660 0.960 . S
H647 C660 0.961 . S
H648 C660 0.959 . S
H649 C663 0.929 . S
H650 C664 0.931 . S
H651 C666 0.930 . S
C652 H640 0.930 . S
C652 C653 1.399 1_554 S
C652 C657 1.399 . S
C653 C652 1.399 1_556 S
C653 C654 1.376 . S
C654 H641 0.930 . S
C654 C653 1.376 . S
C654 C655 1.388 1_556 S
C655 H642 0.930 . S
C655 C654 1.388 1_554 S
C655 C656 1.390 . S
C656 C655 1.390 . S
C656 C657 1.394 . S
C656 C662 1.465 . S
C657 C652 1.399 . S
C657 C656 1.394 . S
C657 C658 1.516 . S
C658 C657 1.516 . S
C658 C659 1.502 . S
C658 C660 1.561 . S
C658 C661 1.526 . S
C659 H643 0.959 . S
C659 H644 0.959 . S
C659 H645 0.961 . S
C659 C658 1.502 . S
C660 H646 0.960 . S
C660 H647 0.961 . S
C660 H648 0.959 . S
C660 C658 1.561 . S
C661 C658 1.526 . S
C661 C662 1.396 . S
C661 C666 1.390 . S
C662 C656 1.465 . S
C662 C661 1.396 . S
C662 C663 1.399 . S
C663 H649 0.929 . S
C663 C662 1.399 . S
C663 C664 1.385 . S
C664 H650 0.931 . S
C664 C663 1.385 . S
C664 C665 1.389 . S
C665 C664 1.389 . S
C665 C666 1.387 . S
C666 H651 0.930 . S
C666 C661 1.390 . S
C666 C665 1.387 . S
H667 C679 0.930 . S
H668 C681 0.930 . S
H669 C682 0.930 . S
H670 C686 0.959 . S
H671 C686 0.959 . S
H672 C686 0.961 . S
H673 C687 0.960 . S
H674 C687 0.961 . S
H675 C687 0.959 . S
H676 C690 0.929 . S
H677 C691 0.931 . S
H678 C693 0.930 . S
C679 H667 0.930 . S
C679 C680 1.399 . S
C679 C684 1.399 . S
C680 C679 1.399 . S
C680 C681 1.376 . S
C681 H668 0.930 . S
C681 C680 1.376 . S
C681 C682 1.388 . S
C682 H669 0.930 . S
C682 C681 1.388 . S
C682 C683 1.390 . S
C683 C682 1.390 . S
C683 C684 1.394 . S
C683 C689 1.465 . S
C684 C679 1.399 . S
C684 C683 1.394 . S
C684 C685 1.516 . S
C685 C684 1.516 . S
C685 C686 1.502 . S
C685 C687 1.561 . S
C685 C688 1.526 . S
C686 H670 0.959 . S
C686 H671 0.959 . S
C686 H672 0.961 . S
C686 C685 1.502 . S
C687 H673 0.960 . S
C687 H674 0.961 . S
C687 H675 0.959 . S
C687 C685 1.561 . S
C688 C685 1.526 . S
C688 C689 1.396 . S
C688 C693 1.390 . S
C689 C683 1.465 . S
C689 C688 1.396 . S
C689 C690 1.399 . S
C690 H676 0.929 . S
C690 C689 1.399 . S
C690 C691 1.385 . S
C691 H677 0.931 . S
C691 C690 1.385 . S
C691 C692 1.389 . S
C692 C691 1.389 . S
C692 C693 1.387 . S
C693 H678 0.930 . S
C693 C688 1.390 . S
C693 C692 1.387 . S
H694 C706 0.930 . S
H695 C708 0.930 . S
H696 C709 0.930 . S
H697 C713 0.959 . S
H698 C713 0.959 . S
H699 C713 0.961 . S
H700 C714 0.960 . S
H701 C714 0.961 . S
H702 C714 0.959 . S
H703 C717 0.929 . S
H704 C718 0.931 . S
H705 C720 0.930 . S
C706 H694 0.930 . S
C706 C707 1.399 . S
C706 C711 1.399 . S
C707 C706 1.399 . S
C707 C708 1.376 . S
C708 H695 0.930 . S
C708 C707 1.376 . S
C708 C709 1.388 . S
C709 H696 0.930 . S
C709 C708 1.388 . S
C709 C710 1.390 . S
C710 C709 1.390 . S
C710 C711 1.394 . S
C710 C716 1.465 . S
C711 C706 1.399 . S
C711 C710 1.394 . S
C711 C712 1.516 . S
C712 C711 1.516 . S
C712 C713 1.502 . S
C712 C714 1.561 . S
C712 C715 1.526 . S
C713 H697 0.959 . S
C713 H698 0.959 . S
C713 H699 0.961 . S
C713 C712 1.502 . S
C714 H700 0.960 . S
C714 H701 0.961 . S
C714 H702 0.959 . S
C714 C712 1.561 . S
C715 C712 1.526 . S
C715 C716 1.396 . S
C715 C720 1.390 . S
C716 C710 1.465 . S
C716 C715 1.396 . S
C716 C717 1.399 1_554 S
C717 H703 0.929 . S
C717 C716 1.399 1_556 S
C717 C718 1.385 . S
C718 H704 0.931 . S
C718 C717 1.385 . S
C718 C719 1.389 . S
C719 C718 1.389 . S
C719 C720 1.387 1_556 S
C720 H705 0.930 . S
C720 C715 1.390 . S
C720 C719 1.387 1_554 S
H721 C733 0.930 . S
H722 C735 0.930 . S
H723 C736 0.930 . S
H724 C740 0.959 . S
H725 C740 0.959 . S
H726 C740 0.961 . S
H727 C741 0.960 . S
H728 C741 0.961 . S
H729 C741 0.959 . S
H730 C744 0.929 . S
H731 C745 0.931 . S
H732 C747 0.930 . S
C733 H721 0.930 . S
C733 C734 1.399 . S
C733 C738 1.399 . S
C734 C733 1.399 . S
C734 C735 1.376 . S
C735 H722 0.930 . S
C735 C734 1.376 . S
C735 C736 1.388 . S
C736 H723 0.930 . S
C736 C735 1.388 . S
C736 C737 1.390 . S
C737 C736 1.390 . S
C737 C738 1.394 . S
C737 C743 1.465 . S
C738 C733 1.399 . S
C738 C737 1.394 . S
C738 C739 1.516 . S
C739 C738 1.516 . S
C739 C740 1.502 . S
C739 C741 1.561 . S
C739 C742 1.526 . S
C740 H724 0.959 . S
C740 H725 0.959 . S
C740 H726 0.961 . S
C740 C739 1.502 . S
C741 H727 0.960 . S
C741 H728 0.961 . S
C741 H729 0.959 . S
C741 C739 1.561 . S
C742 C739 1.526 . S
C742 C743 1.396 . S
C742 C747 1.390 . S
C743 C737 1.465 . S
C743 C742 1.396 . S
C743 C744 1.399 . S
C744 H730 0.929 . S
C744 C743 1.399 . S
C744 C745 1.385 . S
C745 H731 0.931 . S
C745 C744 1.385 . S
C745 C746 1.389 . S
C746 C745 1.389 . S
C746 C747 1.387 . S
C747 H732 0.930 . S
C747 C742 1.390 . S
C747 C746 1.387 . S
H748 C760 0.930 . S
H749 C762 0.930 . S
H750 C763 0.930 . S
H751 C767 0.959 . S
H752 C767 0.959 . S
H753 C767 0.961 . S
H754 C768 0.960 . S
H755 C768 0.961 . S
H756 C768 0.959 . S
H757 C771 0.929 . S
H758 C772 0.931 . S
H759 C774 0.930 . S
C760 H748 0.930 . S
C760 C761 1.399 . S
C760 C765 1.399 . S
C761 C760 1.399 . S
C761 C762 1.376 . S
C762 H749 0.930 . S
C762 C761 1.376 . S
C762 C763 1.388 . S
C763 H750 0.930 . S
C763 C762 1.388 . S
C763 C764 1.390 . S
C764 C763 1.390 . S
C764 C765 1.394 . S
C764 C770 1.465 . S
C765 C760 1.399 . S
C765 C764 1.394 . S
C765 C766 1.516 . S
C766 C765 1.516 . S
C766 C767 1.502 . S
C766 C768 1.561 . S
C766 C769 1.526 . S
C767 H751 0.959 . S
C767 H752 0.959 . S
C767 H753 0.961 . S
C767 C766 1.502 . S
C768 H754 0.960 . S
C768 H755 0.961 . S
C768 H756 0.959 . S
C768 C766 1.561 . S
C769 C766 1.526 . S
C769 C770 1.396 . S
C769 C774 1.390 . S
C770 C764 1.465 . S
C770 C769 1.396 . S
C770 C771 1.399 1_556 S
C771 H757 0.929 . S
C771 C770 1.399 1_554 S
C771 C772 1.385 . S
C772 H758 0.931 . S
C772 C771 1.385 . S
C772 C773 1.389 . S
C773 C772 1.389 . S
C773 C774 1.387 1_554 S
C774 H759 0.930 . S
C774 C769 1.390 . S
C774 C773 1.387 1_556 S
H775 C787 0.930 . S
H776 C789 0.930 . S
H777 C790 0.930 . S
H778 C794 0.959 . S
H779 C794 0.959 . S
H780 C794 0.961 . S
H781 C795 0.960 . S
H782 C795 0.961 . S
H783 C795 0.959 . S
H784 C798 0.929 . S
H785 C799 0.931 . S
H786 C801 0.930 . S
C787 H775 0.930 . S
C787 C788 1.399 . S
C787 C792 1.399 . S
C788 C787 1.399 . S
C788 C789 1.376 . S
C789 H776 0.930 . S
C789 C788 1.376 . S
C789 C790 1.388 . S
C790 H777 0.930 . S
C790 C789 1.388 . S
C790 C791 1.390 . S
C791 C790 1.390 . S
C791 C792 1.394 . S
C791 C797 1.465 . S
C792 C787 1.399 . S
C792 C791 1.394 . S
C792 C793 1.516 . S
C793 C792 1.516 . S
C793 C794 1.502 . S
C793 C795 1.561 . S
C793 C796 1.526 . S
C794 H778 0.959 . S
C794 H779 0.959 . S
C794 H780 0.961 . S
C794 C793 1.502 . S
C795 H781 0.960 . S
C795 H782 0.961 . S
C795 H783 0.959 . S
C795 C793 1.561 . S
C796 C793 1.526 . S
C796 C797 1.396 . S
C796 C801 1.390 . S
C797 C791 1.465 . S
C797 C796 1.396 . S
C797 C798 1.399 . S
C798 H784 0.929 . S
C798 C797 1.399 . S
C798 C799 1.385 . S
C799 H785 0.931 . S
C799 C798 1.385 . S
C799 C800 1.389 . S
C800 C799 1.389 . S
C800 C801 1.387 . S
C801 H786 0.930 . S
C801 C796 1.390 . S
C801 C800 1.387 . S
H802 C814 0.930 . S
H803 C816 0.930 . S
H804 C817 0.930 . S
H805 C821 0.959 . S
H806 C821 0.959 . S
H807 C821 0.961 . S
H808 C822 0.960 . S
H809 C822 0.961 . S
H810 C822 0.959 . S
H811 C825 0.929 . S
H812 C826 0.931 . S
H813 C828 0.930 . S
C814 H802 0.930 . S
C814 C815 1.399 1_556 S
C814 C819 1.399 . S
C815 C814 1.399 1_554 S
C815 C816 1.376 . S
C816 H803 0.930 . S
C816 C815 1.376 . S
C816 C817 1.388 . S
C817 H804 0.930 . S
C817 C816 1.388 . S
C817 C818 1.390 1_554 S
C818 C817 1.390 1_556 S
C818 C819 1.394 . S
C818 C824 1.465 . S
C819 C814 1.399 . S
C819 C818 1.394 . S
C819 C820 1.516 . S
C820 C819 1.516 . S
C820 C821 1.502 . S
C820 C822 1.561 . S
C820 C823 1.526 . S
C821 H805 0.959 . S
C821 H806 0.959 . S
C821 H807 0.961 . S
C821 C820 1.502 . S
C822 H808 0.960 . S
C822 H809 0.961 . S
C822 H810 0.959 . S
C822 C820 1.561 . S
C823 C820 1.526 . S
C823 C824 1.396 . S
C823 C828 1.390 . S
C824 C818 1.465 . S
C824 C823 1.396 . S
C824 C825 1.399 . S
C825 H811 0.929 . S
C825 C824 1.399 . S
C825 C826 1.385 . S
C826 H812 0.931 . S
C826 C825 1.385 . S
C826 C827 1.389 . S
C827 C826 1.389 . S
C827 C828 1.387 . S
C828 H813 0.930 . S
C828 C823 1.390 . S
C828 C827 1.387 . S
H829 C841 0.930 . S
H830 C843 0.930 . S
H831 C844 0.930 . S
H832 C848 0.959 . S
H833 C848 0.959 . S
H834 C848 0.961 . S
H835 C849 0.960 . S
H836 C849 0.961 . S
H837 C849 0.959 . S
H838 C852 0.929 . S
H839 C853 0.931 . S
H840 C855 0.930 . S
C841 H829 0.930 . S
C841 C842 1.399 . S
C841 C846 1.399 . S
C842 C841 1.399 . S
C842 C843 1.376 . S
C843 H830 0.930 . S
C843 C842 1.376 . S
C843 C844 1.388 . S
C844 H831 0.930 . S
C844 C843 1.388 . S
C844 C845 1.390 . S
C845 C844 1.390 . S
C845 C846 1.394 . S
C845 C851 1.465 . S
C846 C841 1.399 . S
C846 C845 1.394 . S
C846 C847 1.516 . S
C847 C846 1.516 . S
C847 C848 1.502 . S
C847 C849 1.561 . S
C847 C850 1.526 . S
C848 H832 0.959 . S
C848 H833 0.959 . S
C848 H834 0.961 . S
C848 C847 1.502 . S
C849 H835 0.960 . S
C849 H836 0.961 . S
C849 H837 0.959 . S
C849 C847 1.561 . S
C850 C847 1.526 . S
C850 C851 1.396 . S
C850 C855 1.390 . S
C851 C845 1.465 . S
C851 C850 1.396 . S
C851 C852 1.399 . S
C852 H838 0.929 . S
C852 C851 1.399 . S
C852 C853 1.385 . S
C853 H839 0.931 . S
C853 C852 1.385 . S
C853 C854 1.389 . S
C854 C853 1.389 . S
C854 C855 1.387 . S
C855 H840 0.930 . S
C855 C850 1.390 . S
C855 C854 1.387 . S
H856 C868 0.930 . S
H857 C870 0.930 . S
H858 C871 0.930 . S
H859 C875 0.959 . S
H860 C875 0.959 . S
H861 C875 0.961 . S
H862 C876 0.960 . S
H863 C876 0.961 . S
H864 C876 0.959 . S
H865 C879 0.929 . S
H866 C880 0.931 1_455 S
H867 C882 0.930 . S
C868 H856 0.930 . S
C868 C869 1.399 . S
C868 C873 1.399 . S
C869 C868 1.399 . S
C869 C870 1.376 . S
C870 H857 0.930 . S
C870 C869 1.376 . S
C870 C871 1.388 . S
C871 H858 0.930 . S
C871 C870 1.388 . S
C871 C872 1.390 . S
C872 C871 1.390 . S
C872 C873 1.394 . S
C872 C878 1.465 . S
C873 C868 1.399 . S
C873 C872 1.394 . S
C873 C874 1.516 . S
C874 C873 1.516 . S
C874 C875 1.502 . S
C874 C876 1.561 . S
C874 C877 1.526 . S
C875 H859 0.959 . S
C875 H860 0.959 . S
C875 H861 0.961 . S
C875 C874 1.502 . S
C876 H862 0.960 . S
C876 H863 0.961 . S
C876 H864 0.959 . S
C876 C874 1.561 . S
C877 C874 1.526 . S
C877 C878 1.396 . S
C877 C882 1.390 . S
C878 C872 1.465 . S
C878 C877 1.396 . S
C878 C879 1.399 . S
C879 H865 0.929 . S
C879 C878 1.399 . S
C879 C880 1.385 . S
C880 H866 0.931 1_655 S
C880 C879 1.385 . S
C880 C881 1.389 . S
C881 C880 1.389 . S
C881 C882 1.387 . S
C882 H867 0.930 . S
C882 C877 1.390 . S
C882 C881 1.387 . S
H883 C895 0.930 . S
H884 C897 0.930 1_545 S
H885 C898 0.930 . S
H886 C902 0.959 . S
H887 C902 0.959 . S
H888 C902 0.961 . S
H889 C903 0.960 . S
H890 C903 0.961 . S
H891 C903 0.959 . S
H892 C906 0.929 . S
H893 C907 0.931 . S
H894 C909 0.930 . S
C895 H883 0.930 . S
C895 C896 1.399 . S
C895 C900 1.399 . S
C896 C895 1.399 . S
C896 C897 1.376 . S
C897 H884 0.930 1_565 S
C897 C896 1.376 . S
C897 C898 1.388 . S
C898 H885 0.930 . S
C898 C897 1.388 . S
C898 C899 1.390 . S
C899 C898 1.390 . S
C899 C900 1.394 . S
C899 C905 1.465 . S
C900 C895 1.399 . S
C900 C899 1.394 . S
C900 C901 1.516 . S
C901 C900 1.516 . S
C901 C902 1.502 . S
C901 C903 1.561 . S
C901 C904 1.526 . S
C902 H886 0.959 . S
C902 H887 0.959 . S
C902 H888 0.961 . S
C902 C901 1.502 . S
C903 H889 0.960 . S
C903 H890 0.961 . S
C903 H891 0.959 . S
C903 C901 1.561 . S
C904 C901 1.526 . S
C904 C905 1.396 . S
C904 C909 1.390 . S
C905 C899 1.465 . S
C905 C904 1.396 . S
C905 C906 1.399 . S
C906 H892 0.929 . S
C906 C905 1.399 . S
C906 C907 1.385 . S
C907 H893 0.931 . S
C907 C906 1.385 . S
C907 C908 1.389 . S
C908 C907 1.389 . S
C908 C909 1.387 . S
C909 H894 0.930 . S
C909 C904 1.390 . S
C909 C908 1.387 . S
H910 C922 0.930 . S
H911 C924 0.930 . S
H912 C925 0.930 . S
H913 C929 0.959 . S
H914 C929 0.959 . S
H915 C929 0.961 . S
H916 C930 0.960 . S
H917 C930 0.961 . S
H918 C930 0.959 . S
H919 C933 0.929 . S
H920 C934 0.931 1_545 S
H921 C936 0.930 . S
C922 H910 0.930 . S
C922 C923 1.399 . S
C922 C927 1.399 . S
C923 C922 1.399 . S
C923 C924 1.376 . S
C924 H911 0.930 . S
C924 C923 1.376 . S
C924 C925 1.388 . S
C925 H912 0.930 . S
C925 C924 1.388 . S
C925 C926 1.390 . S
C926 C925 1.390 . S
C926 C927 1.394 . S
C926 C932 1.465 . S
C927 C922 1.399 . S
C927 C926 1.394 . S
C927 C928 1.516 . S
C928 C927 1.516 . S
C928 C929 1.502 . S
C928 C930 1.561 . S
C928 C931 1.526 . S
C929 H913 0.959 . S
C929 H914 0.959 . S
C929 H915 0.961 . S
C929 C928 1.502 . S
C930 H916 0.960 . S
C930 H917 0.961 . S
C930 H918 0.959 . S
C930 C928 1.561 . S
C931 C928 1.526 . S
C931 C932 1.396 . S
C931 C936 1.390 . S
C932 C926 1.465 . S
C932 C931 1.396 . S
C932 C933 1.399 . S
C933 H919 0.929 . S
C933 C932 1.399 . S
C933 C934 1.385 . S
C934 H920 0.931 1_565 S
C934 C933 1.385 . S
C934 C935 1.389 . S
C935 C934 1.389 . S
C935 C936 1.387 . S
C936 H921 0.930 . S
C936 C931 1.390 . S
C936 C935 1.387 . S
H937 C949 0.930 . S
H938 C951 0.930 . S
H939 C952 0.930 . S
H940 C956 0.959 . S
H941 C956 0.959 . S
H942 C956 0.961 . S
H943 C957 0.960 . S
H944 C957 0.961 . S
H945 C957 0.959 . S
H946 C960 0.929 . S
H947 C961 0.931 . S
H948 C963 0.930 . S
C949 H937 0.930 . S
C949 C950 1.399 . S
C949 C954 1.399 . S
C950 C949 1.399 . S
C950 C951 1.376 . S
C951 H938 0.930 . S
C951 C950 1.376 . S
C951 C952 1.388 . S
C952 H939 0.930 . S
C952 C951 1.388 . S
C952 C953 1.390 . S
C953 C952 1.390 . S
C953 C954 1.394 . S
C953 C959 1.465 . S
C954 C949 1.399 . S
C954 C953 1.394 . S
C954 C955 1.516 . S
C955 C954 1.516 . S
C955 C956 1.502 . S
C955 C957 1.561 . S
C955 C958 1.526 . S
C956 H940 0.959 . S
C956 H941 0.959 . S
C956 H942 0.961 . S
C956 C955 1.502 . S
C957 H943 0.960 . S
C957 H944 0.961 . S
C957 H945 0.959 . S
C957 C955 1.561 . S
C958 C955 1.526 . S
C958 C959 1.396 . S
C958 C963 1.390 . S
C959 C953 1.465 . S
C959 C958 1.396 . S
C959 C960 1.399 . S
C960 H946 0.929 . S
C960 C959 1.399 . S
C960 C961 1.385 . S
C961 H947 0.931 . S
C961 C960 1.385 . S
C961 C962 1.389 . S
C962 C961 1.389 . S
C962 C963 1.387 . S
C963 H948 0.930 . S
C963 C958 1.390 . S
C963 C962 1.387 . S
H964 C976 0.930 . S
H965 C978 0.930 . S
H966 C979 0.930 . S
H967 C983 0.959 . S
H968 C983 0.959 . S
H969 C983 0.961 . S
H970 C984 0.960 . S
H971 C984 0.961 . S
H972 C984 0.959 . S
H973 C987 0.929 . S
H974 C988 0.931 . S
H975 C990 0.930 . S
C976 H964 0.930 . S
C976 C977 1.399 . S
C976 C981 1.399 . S
C977 C976 1.399 . S
C977 C978 1.376 . S
C978 H965 0.930 . S
C978 C977 1.376 . S
C978 C979 1.388 . S
C979 H966 0.930 . S
C979 C978 1.388 . S
C979 C980 1.390 . S
C980 C979 1.390 . S
C980 C981 1.394 . S
C980 C986 1.465 . S
C981 C976 1.399 . S
C981 C980 1.394 . S
C981 C982 1.516 . S
C982 C981 1.516 . S
C982 C983 1.502 . S
C982 C984 1.561 . S
C982 C985 1.526 . S
C983 H967 0.959 . S
C983 H968 0.959 . S
C983 H969 0.961 . S
C983 C982 1.502 . S
C984 H970 0.960 . S
C984 H971 0.961 . S
C984 H972 0.959 . S
C984 C982 1.561 . S
C985 C982 1.526 . S
C985 C986 1.396 . S
C985 C990 1.390 . S
C986 C980 1.465 . S
C986 C985 1.396 . S
C986 C987 1.399 . S
C987 H973 0.929 . S
C987 C986 1.399 . S
C987 C988 1.385 . S
C988 H974 0.931 . S
C988 C987 1.385 . S
C988 C989 1.389 . S
C989 C988 1.389 . S
C989 C990 1.387 . S
C990 H975 0.930 . S
C990 C985 1.390 . S
C990 C989 1.387 . S
H991 C1003 0.930 . S
H992 C1005 0.930 . S
H993 C1006 0.930 . S
H994 C1010 0.959 . S
H995 C1010 0.959 . S
H996 C1010 0.961 . S
H997 C1011 0.960 . S
H998 C1011 0.961 . S
H999 C1011 0.959 . S
H1000 C1014 0.929 . S
H1001 C1015 0.931 . S
H1002 C1017 0.930 . S
C1003 H991 0.930 . S
C1003 C1004 1.399 . S
C1003 C1008 1.399 . S
C1004 C1003 1.399 . S
C1004 C1005 1.376 . S
C1005 H992 0.930 . S
C1005 C1004 1.376 . S
C1005 C1006 1.388 . S
C1006 H993 0.930 . S
C1006 C1005 1.388 . S
C1006 C1007 1.390 . S
C1007 C1006 1.390 . S
C1007 C1008 1.394 . S
C1007 C1013 1.465 . S
C1008 C1003 1.399 . S
C1008 C1007 1.394 . S
C1008 C1009 1.516 . S
C1009 C1008 1.516 . S
C1009 C1010 1.502 . S
C1009 C1011 1.561 . S
C1009 C1012 1.526 . S
C1010 H994 0.959 . S
C1010 H995 0.959 . S
C1010 H996 0.961 . S
C1010 C1009 1.502 . S
C1011 H997 0.960 . S
C1011 H998 0.961 . S
C1011 H999 0.959 . S
C1011 C1009 1.561 . S
C1012 C1009 1.526 . S
C1012 C1013 1.396 . S
C1012 C1017 1.390 . S
C1013 C1007 1.465 . S
C1013 C1012 1.396 . S
C1013 C1014 1.399 . S
C1014 H1000 0.929 . S
C1014 C1013 1.399 . S
C1014 C1015 1.385 . S
C1015 H1001 0.931 . S
C1015 C1014 1.385 . S
C1015 C1016 1.389 . S
C1016 C1015 1.389 . S
C1016 C1017 1.387 . S
C1017 H1002 0.930 . S
C1017 C1012 1.390 . S
C1017 C1016 1.387 . S
H1018 C1030 0.930 . S
H1019 C1032 0.930 . S
H1020 C1033 0.930 . S
H1021 C1037 0.959 . S
H1022 C1037 0.959 . S
H1023 C1037 0.961 . S
H1024 C1038 0.960 . S
H1025 C1038 0.961 . S
H1026 C1038 0.959 . S
H1027 C1041 0.929 . S
H1028 C1042 0.931 . S
H1029 C1044 0.930 . S
C1030 H1018 0.930 . S
C1030 C1031 1.399 . S
C1030 C1035 1.399 . S
C1031 C1030 1.399 . S
C1031 C1032 1.376 . S
C1032 H1019 0.930 . S
C1032 C1031 1.376 . S
C1032 C1033 1.388 . S
C1033 H1020 0.930 . S
C1033 C1032 1.388 . S
C1033 C1034 1.390 . S
C1034 C1033 1.390 . S
C1034 C1035 1.394 . S
C1034 C1040 1.465 . S
C1035 C1030 1.399 . S
C1035 C1034 1.394 . S
C1035 C1036 1.516 . S
C1036 C1035 1.516 . S
C1036 C1037 1.502 . S
C1036 C1038 1.561 . S
C1036 C1039 1.526 . S
C1037 H1021 0.959 . S
C1037 H1022 0.959 . S
C1037 H1023 0.961 . S
C1037 C1036 1.502 . S
C1038 H1024 0.960 . S
C1038 H1025 0.961 . S
C1038 H1026 0.959 . S
C1038 C1036 1.561 . S
C1039 C1036 1.526 . S
C1039 C1040 1.396 . S
C1039 C1044 1.390 . S
C1040 C1034 1.465 . S
C1040 C1039 1.396 . S
C1040 C1041 1.399 . S
C1041 H1027 0.929 . S
C1041 C1040 1.399 . S
C1041 C1042 1.385 . S
C1042 H1028 0.931 . S
C1042 C1041 1.385 . S
C1042 C1043 1.389 . S
C1043 C1042 1.389 . S
C1043 C1044 1.387 . S
C1044 H1029 0.930 . S
C1044 C1039 1.390 . S
C1044 C1043 1.387 . S
H1045 C1057 0.930 . S
H1046 C1059 0.930 . S
H1047 C1060 0.930 . S
H1048 C1064 0.959 . S
H1049 C1064 0.959 . S
H1050 C1064 0.961 . S
H1051 C1065 0.960 . S
H1052 C1065 0.961 . S
H1053 C1065 0.959 . S
H1054 C1068 0.929 . S
H1055 C1069 0.931 . S
H1056 C1071 0.930 . S
C1057 H1045 0.930 . S
C1057 C1058 1.399 . S
C1057 C1062 1.399 . S
C1058 C1057 1.399 . S
C1058 C1059 1.376 . S
C1059 H1046 0.930 . S
C1059 C1058 1.376 . S
C1059 C1060 1.388 . S
C1060 H1047 0.930 . S
C1060 C1059 1.388 . S
C1060 C1061 1.390 . S
C1061 C1060 1.390 . S
C1061 C1062 1.394 . S
C1061 C1067 1.465 . S
C1062 C1057 1.399 . S
C1062 C1061 1.394 . S
C1062 C1063 1.516 . S
C1063 C1062 1.516 . S
C1063 C1064 1.502 . S
C1063 C1065 1.561 . S
C1063 C1066 1.526 . S
C1064 H1048 0.959 . S
C1064 H1049 0.959 . S
C1064 H1050 0.961 . S
C1064 C1063 1.502 . S
C1065 H1051 0.960 . S
C1065 H1052 0.961 . S
C1065 H1053 0.959 . S
C1065 C1063 1.561 . S
C1066 C1063 1.526 . S
C1066 C1067 1.396 . S
C1066 C1071 1.390 . S
C1067 C1061 1.465 . S
C1067 C1066 1.396 . S
C1067 C1068 1.399 . S
C1068 H1054 0.929 . S
C1068 C1067 1.399 . S
C1068 C1069 1.385 . S
C1069 H1055 0.931 . S
C1069 C1068 1.385 . S
C1069 C1070 1.389 . S
C1070 C1069 1.389 . S
C1070 C1071 1.387 . S
C1071 H1056 0.930 . S
C1071 C1066 1.390 . S
C1071 C1070 1.387 . S
C221 C0 1.228 . S
C233 C52 1.193 . S
C248 C65 1.229 . S
C260 C13 1.209 . S
C275 C26 1.199 . S
C287 C78 1.165 . S
C302 C39 1.229 . S
C314 C91 1.205 . S
C329 C104 1.272 . S
C341 C156 1.277 . S
C356 C169 1.275 . S
C368 C117 1.270 . S
C383 C130 1.237 . S
C395 C182 1.235 . S
C410 C143 1.238 . S
C422 C195 1.243 . S
C437 C8 1.182 . S
C449 C205 1.233 . S
C464 C166 1.129 . S
C476 C21 1.239 . S
C491 C34 1.244 . S
C503 C179 1.159 . S
C518 C192 1.204 . S
C530 C47 1.159 . S
C545 C127 1.169 . S
C557 C60 1.182 . S
C572 C140 1.136 . S
C584 C73 1.246 . S
C599 C153 1.235 . S
C611 C86 1.180 . S
C626 C114 1.128 . S
C638 C99 1.235 . S
C653 C112 1.087 . S
C665 C96 1.012 . S
C680 C57 1.013 . S
C692 C125 1.087 . S
C707 C70 1.112 . S
C719 C138 1.107 . S
C734 C151 1.132 . S
C746 C83 1.025 . S
C761 C18 1.125 . S
C773 C164 1.117 . S
C788 C177 1.097 . S
C800 C31 1.091 . S
C815 C190 1.104 . S
C827 C44 1.107 . S
C842 C203 1.132 . S
C854 C5 1.025 . S
C869 C101 1.319 . S
C881 C10 1.311 . S
C896 C23 1.293 . S
C908 C62 1.296 . S
C923 C36 1.308 . S
C935 C75 1.303 . S
C950 C49 1.304 . S
C962 C88 1.311 . S
C977 C200 1.137 . S
C989 C109 1.114 . S
C1004 C161 1.215 . S
C1016 C122 1.231 . S
C1031 C174 1.228 . S
C1043 C135 1.191 . S
C1058 C187 1.124 . S
C1070 C148 1.116 . S
