# Generated by pormake.
# Topology hcp, (12)-cn, num edge types: 1
# Building blocks:
#     Node 0, Type 0, BuildingBlock: QEWDON_clean_sbu_0, # of connection points: 12
#     Node 1, Type 0, BuildingBlock: QEWDON_clean_sbu_0, # of connection points: 12
#     Edge 2, Type (0, 0), BuildingBlock: FUNLAD_clean_linker_1, # of connection points: 2
#     Edge 3, Type (0, 0), BuildingBlock: FUNLAD_clean_linker_1, # of connection points: 2
#     Edge 4, Type (0, 0), BuildingBlock: FUNLAD_clean_linker_1, # of connection points: 2
#     Edge 5, Type (0, 0), BuildingBlock: FUNLAD_clean_linker_1, # of connection points: 2
#     Edge 6, Type (0, 0), BuildingBlock: FUNLAD_clean_linker_1, # of connection points: 2
#     Edge 7, Type (0, 0), BuildingBlock: FUNLAD_clean_linker_1, # of connection points: 2
#     Edge 8, Type (0, 0), BuildingBlock: FUNLAD_clean_linker_1, # of connection points: 2
#     Edge 9, Type (0, 0), BuildingBlock: FUNLAD_clean_linker_1, # of connection points: 2
#     Edge 10, Type (0, 0), BuildingBlock: FUNLAD_clean_linker_1, # of connection points: 2
#     Edge 11, Type (0, 0), BuildingBlock: FUNLAD_clean_linker_1, # of connection points: 2
#     Edge 12, Type (0, 0), BuildingBlock: FUNLAD_clean_linker_1, # of connection points: 2
#     Edge 13, Type (0, 0), BuildingBlock: FUNLAD_clean_linker_1, # of connection points: 2
# Relax obj value: 0.192
# Max RMSD: 0.273
# Mean RMSD: 0.273
data_MOF--net-hcp--node1-QEWDON_clean_sbu_0--edge1-FUNLAD_clean_linker_1
_symmetry_space_group_name_H-M    P1
_symmetry_Int_Tables_number       1
_symmetry_cell_setting            triclinic
loop_
_symmetry_equiv_pos_as_xyz
'x, y, z'
_cell_length_a     19.405606
_cell_length_b     19.034671
_cell_length_c     32.550069
_cell_angle_alpha  93.655257
_cell_angle_beta   88.973067
_cell_angle_gamma 120.47809
loop_
_atom_site_label
_atom_site_type_symbol
_atom_site_fract_x
_atom_site_fract_y
_atom_site_fract_z
_atom_type_partial_charge
Zn0 Zn 0.71627 0.2478 0.28791 0.0
Zn1 Zn 0.82634 0.39513 0.22553 0.0
O2 O 0.74297 0.36041 0.27016 0.0
H3 H 0.70918 0.38338 0.27527 0.0
C4 C 0.59284 0.08014 0.19753 0.0
O5 O 0.64838 0.1415 0.17791 0.0
Zn6 Zn 0.58371 0.50459 0.23994 0.0
Zn7 Zn 0.48906 0.3211 0.27885 0.0
O8 O 0.57717 0.39556 0.24012 0.0
H9 H 0.62372 0.39199 0.23311 0.0
Zn10 Zn 0.50872 0.16478 0.18163 0.0
O11 O 0.60737 0.27608 0.18624 0.0
Zn12 Zn 0.61162 0.33758 0.13774 0.0
H13 H 0.64934 0.28918 0.20596 0.0
Zn14 Zn 0.67324 0.38987 0.34215 0.0
O15 O 0.66533 0.48065 0.31978 0.0
H16 H 0.62186 0.48983 0.32702 0.0
Zn17 Zn 0.78305 0.56359 0.32198 0.0
C18 C 0.52286 0.27768 0.37713 0.0
O19 O 0.45488 0.20956 0.38173 0.0
O20 O 0.80746 0.22706 0.27119 0.0
O21 O 0.87479 0.3233 0.22665 0.0
O22 O 0.42759 0.37758 0.29915 0.0
O23 O 0.48725 0.49627 0.26918 0.0
O24 O 0.46044 0.13919 0.12348 0.0
O25 O 0.53177 0.25836 0.09478 0.0
C26 C 0.90413 0.55841 0.26225 0.0
O27 O 0.74806 0.43574 0.39219 0.0
O28 O 0.82491 0.56714 0.37936 0.0
O29 O 0.41177 0.19343 0.26647 0.0
C30 C 0.86466 0.26265 0.24624 0.0
O31 O 0.6474 0.19184 0.34037 0.0
C32 C 0.5778 0.48409 0.15141 0.0
O33 O 0.5256 0.07491 0.20364 0.0
C34 C 0.43219 0.44462 0.29137 0.0
O35 O 0.56688 0.28191 0.34706 0.0
C36 C 0.78149 0.4 0.1332 0.0
O37 O 0.9159 0.51291 0.23638 0.0
O38 O 0.83733 0.52662 0.28032 0.0
C39 C 0.47772 0.18302 0.09268 0.0
O40 O 0.57527 0.52911 0.18124 0.0
O41 O 0.59433 0.42962 0.1594 0.0
C42 C 0.74086 0.6607 0.28193 0.0
O43 O 0.72034 0.38411 0.11197 0.0
O44 O 0.77181 0.38647 0.17128 0.0
C45 C 0.80306 0.50828 0.40283 0.0
O46 O 0.7957 0.66966 0.3062 0.0
O47 O 0.6872 0.58839 0.27003 0.0
C48 C 0.4284 0.13754 0.27072 0.0
O49 O 0.50151 0.15781 0.2811 0.0
C50 C 0.67698 0.21431 0.37675 0.0
O51 O 0.75111 0.27446 0.38195 0.0
Zn52 Zn 0.44353 0.53264 0.76 0.0
Zn53 Zn 0.51139 0.67187 0.69366 0.0
O54 O 0.43242 0.62563 0.7396 0.0
H55 H 0.41069 0.65296 0.75662 0.0
C56 C 0.29496 0.40267 0.70592 0.0
O57 O 0.22492 0.381 0.72206 0.0
Zn58 Zn 0.2591 0.78878 0.69232 0.0
Zn59 Zn 0.14424 0.62836 0.73943 0.0
O60 O 0.21434 0.66912 0.68892 0.0
H61 H 0.18009 0.6424 0.71159 0.0
Zn62 Zn 0.28263 0.54554 0.68612 0.0
O63 O 0.35568 0.67163 0.68626 0.0
Zn64 Zn 0.32614 0.6734 0.6285 0.0
H65 H 0.36328 0.71119 0.70844 0.0
Zn66 Zn 0.34205 0.68612 0.85247 0.0
O67 O 0.33884 0.73994 0.80038 0.0
H68 H 0.29388 0.71792 0.7814 0.0
Zn69 Zn 0.44948 0.83819 0.79291 0.0
C70 C 0.17543 0.62316 0.88776 0.0
O71 O 0.15933 0.64703 0.85412 0.0
O72 O 0.52839 0.51681 0.72966 0.0
O73 O 0.58708 0.63029 0.69553 0.0
O74 O 0.13829 0.72451 0.76914 0.0
O75 O 0.17381 0.80732 0.71754 0.0
O76 O 0.17125 0.49844 0.657 0.0
O77 O 0.2095 0.60157 0.61681 0.0
C78 C 0.56466 0.8415 0.72449 0.0
O79 O 0.44625 0.76094 0.88504 0.0
O80 O 0.51024 0.86881 0.84695 0.0
O81 O 0.03178 0.51761 0.73569 0.0
C82 C 0.585 0.56726 0.70797 0.0
O83 O 0.47097 0.53771 0.82159 0.0
C84 C 0.34569 0.8407 0.61037 0.0
O85 O 0.33253 0.4701 0.68876 0.0
C86 C 0.13884 0.78289 0.75174 0.0
O87 O 0.2441 0.63127 0.89257 0.0
C88 C 0.42769 0.60922 0.60154 0.0
O89 O 0.57708 0.79605 0.69882 0.0
O90 O 0.50546 0.80768 0.74844 0.0
C91 C 0.15581 0.53328 0.6294 0.0
O92 O 0.29912 0.84337 0.63789 0.0
O93 O 0.3634 0.78458 0.60764 0.0
C94 C 0.38569 0.91371 0.74853 0.0
O95 O 0.37142 0.62057 0.59189 0.0
O96 O 0.46028 0.63326 0.63709 0.0
C97 C 0.50388 0.83271 0.87978 0.0
O98 O 0.43801 0.93262 0.77646 0.0
O99 O 0.34959 0.84061 0.73307 0.0
C100 C 0.01953 0.44585 0.73893 0.0
O101 O 0.08084 0.43556 0.74384 0.0
C102 C 0.42378 0.50501 0.85094 0.0
O103 O 0.34608 0.46511 0.84429 0.0
H104 H 0.53012 0.84807 0.94494 0.0
C105 C 0.54847 0.8812 0.91701 0.0
H106 H 0.59564 0.99549 0.89254 0.0
H107 H 0.34652 0.06349 0.98186 0.0
H108 H 0.3155 0.05915 0.90952 0.0
H109 H 0.38343 0.02013 0.85592 0.0
H110 H 0.48571 0.99073 0.8738 0.0
C111 C 0.5747 0.96154 0.92005 0.0
C112 C 0.53884 0.99156 0.95229 0.0
C113 C 0.47963 0.01018 0.94072 0.0
C114 C 0.43862 0.03037 0.97152 0.0
C115 C 0.37973 0.04841 0.95952 0.0
C116 C 0.36096 0.04562 0.91816 0.0
C117 C 0.39956 0.02417 0.88799 0.0
C118 C 0.45834 0.00701 0.89886 0.0
H119 H 0.48178 0.18008 0.02572 0.0
C120 C 0.45221 0.14227 0.05137 0.0
H121 H 0.39189 0.02279 0.07133 0.0
H122 H 0.65194 0.96455 0.98461 0.0
H123 H 0.67707 0.96164 0.05693 0.0
H124 H 0.60025 0.98859 0.11052 0.0
H125 H 0.49997 0.02076 0.09209 0.0
C126 C 0.42099 0.06121 0.0459 0.0
C127 C 0.45566 0.03052 0.01357 0.0
C128 C 0.51308 0.00978 0.02518 0.0
C129 C 0.5559 0.99204 0.99447 0.0
C130 C 0.61581 0.97576 0.00677 0.0
C131 C 0.63118 0.97431 0.04821 0.0
C132 C 0.58822 0.98983 0.07831 0.0
C133 C 0.5304 0.0081 0.06717 0.0
H134 H 0.40144 0.51718 0.55149 0.0
C135 C 0.44953 0.56347 0.57144 0.0
H136 H 0.57416 0.62954 0.58299 0.0
H137 H 0.61522 0.34916 0.48855 0.0
H138 H 0.687 0.372 0.55319 0.0
H139 H 0.6919 0.47123 0.6075 0.0
H140 H 0.62589 0.54863 0.59732 0.0
C141 C 0.52513 0.58254 0.56387 0.0
C142 C 0.54125 0.5391 0.52854 0.0
C143 C 0.58017 0.49477 0.53531 0.0
C144 C 0.576 0.43633 0.50444 0.0
C145 C 0.61567 0.3931 0.51149 0.0
C146 C 0.65702 0.40578 0.54834 0.0
C147 C 0.65977 0.46165 0.57889 0.0
C148 C 0.62154 0.50558 0.57271 0.0
H149 H 0.59963 0.40766 0.39832 0.0
C150 C 0.54825 0.34989 0.4059 0.0
H151 H 0.45704 0.28993 0.44876 0.0
H152 H 0.49018 0.63746 0.49964 0.0
H153 H 0.42452 0.61878 0.43342 0.0
H154 H 0.408 0.51055 0.38239 0.0
H155 H 0.45561 0.41866 0.39672 0.0
C156 C 0.50875 0.34687 0.44047 0.0
C157 C 0.53136 0.42122 0.46766 0.0
C158 C 0.5019 0.47306 0.45872 0.0
C159 C 0.50921 0.53397 0.48877 0.0
C160 C 0.48258 0.58763 0.47855 0.0
C161 C 0.44602 0.57848 0.44057 0.0
C162 C 0.43643 0.51713 0.41175 0.0
C163 C 0.46395 0.46481 0.42048 0.0
H164 H 0.91323 0.44931 0.1315 0.0
C165 C 0.86069 0.43446 0.11326 0.0
H166 H 0.81464 0.4339 0.05479 0.0
H167 H 0.12413 0.70552 0.97739 0.0
H168 H 0.07216 0.78965 0.0063 0.0
H169 H 0.96076 0.73486 0.05509 0.0
H170 H 0.90204 0.59614 0.07613 0.0
C171 C 0.86714 0.44714 0.07263 0.0
C172 C 0.94376 0.48394 0.04976 0.0
C173 C 0.97759 0.56497 0.03758 0.0
C174 C 0.04045 0.59581 0.00852 0.0
C175 C 0.07445 0.6779 0.99812 0.0
C176 C 0.04556 0.72712 0.01474 0.0
C177 C 0.98292 0.69632 0.04226 0.0
C178 C 0.94948 0.61648 0.05389 0.0
H179 H 0.05669 0.58423 0.91434 0.0
C180 C 0.11481 0.59126 0.92051 0.0
H181 H 0.18697 0.57923 0.96411 0.0
H182 H 0.89593 0.32787 0.06824 0.0
H183 H 0.94766 0.24322 0.03949 0.0
H184 H 0.05512 0.29557 0.9884 0.0
H185 H 0.11147 0.4327 0.96563 0.0
C186 C 0.1298 0.57418 0.95776 0.0
C187 C 0.06818 0.54472 0.99072 0.0
C188 C 0.03701 0.46497 0.00447 0.0
C189 C 0.97478 0.43459 0.03397 0.0
C190 C 0.94323 0.35392 0.04606 0.0
C191 C 0.9724 0.30472 0.02981 0.0
C192 C 0.03295 0.33422 0.00105 0.0
C193 C 0.06494 0.4132 0.98833 0.0
H194 H 0.33809 0.92462 0.56915 0.0
C195 C 0.37507 0.90023 0.57813 0.0
H196 H 0.48011 0.89574 0.56809 0.0
H197 H 0.54233 0.97095 0.38358 0.0
H198 H 0.52038 0.83377 0.38373 0.0
H199 H 0.47684 0.75759 0.44642 0.0
H200 H 0.45043 0.81521 0.50864 0.0
C201 C 0.44394 0.92073 0.5585 0.0
C202 C 0.46876 0.96798 0.52061 0.0
C203 C 0.48313 0.93275 0.48403 0.0
C204 C 0.50915 0.97725 0.44784 0.0
C205 C 0.523 0.94029 0.41196 0.0
C206 C 0.51081 0.86163 0.41159 0.0
C207 C 0.48569 0.81837 0.4468 0.0
C208 C 0.47141 0.8528 0.48254 0.0
H209 H 0.66359 0.19044 0.44269 0.0
C210 C 0.63197 0.17105 0.4132 0.0
H211 H 0.52504 0.08443 0.38192 0.0
H212 H 0.45734 0.05985 0.58613 0.0
H213 H 0.45664 0.18621 0.58254 0.0
H214 H 0.47866 0.251 0.51703 0.0
H215 H 0.51481 0.1971 0.45553 0.0
C216 C 0.55684 0.10663 0.41132 0.0
C217 C 0.52071 0.05702 0.448 0.0
C218 C 0.50105 0.08986 0.48363 0.0
C219 C 0.47856 0.0471 0.52045 0.0
C220 C 0.46737 0.08564 0.55649 0.0
C221 C 0.46802 0.15885 0.55504 0.0
C222 C 0.48215 0.19635 0.51819 0.0
C223 C 0.50153 0.16425 0.48315 0.0
H224 H 0.53603 0.53774 0.10766 0.0
C225 C 0.55662 0.49451 0.1098 0.0
H226 H 0.5753 0.40669 0.07706 0.0
H227 H 0.33286 0.32471 0.93099 0.0
H228 H 0.2795 0.19435 0.96116 0.0
H229 H 0.33236 0.18437 0.02745 0.0
H230 H 0.44181 0.30427 0.06286 0.0
C231 C 0.55707 0.45171 0.07549 0.0
C232 C 0.52382 0.45872 0.03576 0.0
C233 C 0.45668 0.38898 0.0166 0.0
C234 C 0.42261 0.39566 0.97973 0.0
C235 C 0.35927 0.32388 0.9598 0.0
C236 C 0.32806 0.24848 0.97673 0.0
C237 C 0.35818 0.2428 0.01393 0.0
C238 C 0.42151 0.312 0.03379 0.0
H239 H 0.52237 0.52827 0.89226 0.0
C240 C 0.45853 0.50597 0.89095 0.0
H241 H 0.35094 0.45448 0.92374 0.0
H242 H 0.66152 0.60156 0.05871 0.0
H243 H 0.70873 0.73393 0.03126 0.0
H244 H 0.63372 0.74997 0.97597 0.0
H245 H 0.51448 0.63294 0.94551 0.0
C246 C 0.41513 0.47893 0.92495 0.0
C247 C 0.45194 0.47301 0.96351 0.0
C248 C 0.51724 0.54334 0.98345 0.0
C249 C 0.55596 0.53539 0.0181 0.0
C250 C 0.62662 0.60505 0.03423 0.0
C251 C 0.65463 0.68129 0.01868 0.0
C252 C 0.61283 0.69023 0.98723 0.0
C253 C 0.54488 0.62233 0.96974 0.0
H254 H 0.90254 0.57655 0.44772 0.0
C255 C 0.84323 0.52318 0.44289 0.0
H256 H 0.75016 0.41663 0.46686 0.0
H257 H 9e-05 0.36725 0.56287 0.0
H258 H 0.91772 0.23577 0.52653 0.0
H259 H 0.80458 0.21077 0.48226 0.0
H260 H 0.77404 0.31753 0.47397 0.0
C261 C 0.80925 0.4695 0.47226 0.0
C262 C 0.85567 0.47415 0.50904 0.0
C263 C 0.86969 0.40936 0.51516 0.0
C264 C 0.93376 0.42324 0.54137 0.0
C265 C 0.9509 0.35976 0.54441 0.0
C266 C 0.90422 0.28386 0.52349 0.0
C267 C 0.84065 0.26981 0.49852 0.0
C268 C 0.82379 0.33182 0.49399 0.0
H269 H 0.02445 0.44822 0.62815 0.0
C270 C 0.07405 0.49711 0.61265 0.0
H271 H 0.1114 0.5761 0.56399 0.0
H272 H 0.82126 0.59661 0.51593 0.0
H273 H 0.89472 0.72474 0.55764 0.0
H274 H 0.00988 0.75223 0.60111 0.0
H275 H 0.05123 0.65155 0.60373 0.0
C276 C 0.06139 0.5263 0.57885 0.0
C277 C 0.98138 0.5012 0.56198 0.0
C278 C 0.95927 0.56145 0.56039 0.0
C279 C 0.89492 0.547 0.5345 0.0
C280 C 0.87193 0.60659 0.53418 0.0
C281 C 0.91312 0.67979 0.55812 0.0
C282 C 0.97791 0.69524 0.5826 0.0
C283 C 0.00122 0.63713 0.5837 0.0
H284 H 0.5582 0.96593 0.22679 0.0
C285 C 0.60678 0.01636 0.21153 0.0
H286 H 0.72463 0.0666 0.18939 0.0
H287 H 0.66463 0.7877 0.32391 0.0
H288 H 0.66967 0.88711 0.37605 0.0
H289 H 0.68198 0.0162 0.3566 0.0
H290 H 0.68948 0.04651 0.28479 0.0
C291 C 0.67617 0.01778 0.2055 0.0
C292 C 0.68569 0.94938 0.21808 0.0
C293 C 0.68156 0.93279 0.26019 0.0
C294 C 0.67727 0.85979 0.27146 0.0
C295 C 0.6707 0.84347 0.31365 0.0
C296 C 0.6729 0.89977 0.3439 0.0
C297 C 0.6796 0.97232 0.33295 0.0
C298 C 0.68333 0.98872 0.29162 0.0
H299 H 0.79132 0.79266 0.27893 0.0
C300 C 0.73943 0.73322 0.27054 0.0
H301 H 0.62452 0.67057 0.24251 0.0
H302 H 0.7121 0.97256 0.13576 0.0
H303 H 0.72875 0.88336 0.08475 0.0
H304 H 0.7214 0.75693 0.10462 0.0
H305 H 0.69762 0.71856 0.17506 0.0
C306 C 0.67654 0.72913 0.25188 0.0
C307 C 0.67994 0.80512 0.24062 0.0
C308 C 0.69099 0.82525 0.19899 0.0
C309 C 0.69481 0.89803 0.18771 0.0
C310 C 0.70773 0.91753 0.14596 0.0
C311 C 0.71751 0.86705 0.11641 0.0
C312 C 0.71344 0.79582 0.12751 0.0
C313 C 0.69989 0.77458 0.16818 0.0
H314 H 0.0535 0.783 0.79542 0.0
C315 C 0.07662 0.80093 0.76477 0.0
H316 H 0.04775 0.8114 0.7046 0.0
H317 H 0.74049 0.4679 0.70377 0.0
H318 H 0.83066 0.4394 0.66279 0.0
H319 H 0.97228 0.54519 0.65672 0.0
H320 H 0.02426 0.68031 0.68965 0.0
C321 C 0.02632 0.79654 0.73575 0.0
C322 C 0.94086 0.73386 0.73929 0.0
C323 C 0.91155 0.65579 0.71827 0.0
C324 C 0.83027 0.59454 0.72188 0.0
C325 C 0.8019 0.51669 0.70133 0.0
C326 C 0.85292 0.49946 0.67797 0.0
C327 C 0.93263 0.55914 0.67444 0.0
C328 C 0.96182 0.63659 0.69388 0.0
H329 H 0.69756 0.59488 0.67966 0.0
C330 C 0.65892 0.56515 0.70528 0.0
H331 H 0.65477 0.53579 0.76699 0.0
H332 H 0.98048 0.87409 0.78621 0.0
H333 H 0.89193 0.89783 0.83111 0.0
H334 H 0.75053 0.79076 0.83761 0.0
H335 H 0.69691 0.6596 0.79945 0.0
C336 C 0.69126 0.55893 0.73993 0.0
C337 C 0.77866 0.61178 0.74577 0.0
C338 C 0.80912 0.68729 0.76931 0.0
C339 C 0.8905 0.74882 0.76578 0.0
C340 C 0.91921 0.8249 0.78829 0.0
C341 C 0.86899 0.83941 0.81401 0.0
C342 C 0.78936 0.77917 0.81763 0.0
C343 C 0.75932 0.70407 0.79546 0.0
H344 H 0.38286 0.00494 0.27176 0.0
C345 C 0.36533 0.04982 0.26711 0.0
H346 H 0.26984 0.06834 0.25445 0.0
H347 H 0.02992 0.71456 0.17797 0.0
H348 H 0.06812 0.79223 0.11714 0.0
H349 H 0.17761 0.93581 0.12009 0.0
H350 H 0.24962 1.00295 0.1841 0.0
C351 C 0.28755 0.02423 0.26038 0.0
C352 C 0.22378 0.93569 0.25862 0.0
C353 C 0.18197 0.89702 0.22102 0.0
C354 C 0.11952 0.81355 0.21916 0.0
C355 C 0.07868 0.7772 0.18112 0.0
C356 C 0.09974 0.82117 0.14592 0.0
C357 C 0.16132 0.90207 0.14761 0.0
C358 C 0.20204 0.93991 0.18461 0.0
H359 H 0.95221 0.68442 0.29046 0.0
C360 C 0.96592 0.64601 0.26994 0.0
H361 H 0.05007 0.64062 0.2299 0.0
H362 H 0.28571 0.99195 0.33672 0.0
H363 H 0.25312 0.9123 0.39665 0.0
H364 H 0.15178 0.76545 0.39223 0.0
H365 H 0.08134 0.69771 0.32803 0.0
C366 C 0.03747 0.67881 0.25126 0.0
C367 C 0.09886 0.76808 0.25484 0.0
C368 C 0.14127 0.80643 0.29239 0.0
C369 C 0.20253 0.89058 0.29448 0.0
C370 C 0.24103 0.92782 0.33288 0.0
C371 C 0.22254 0.88287 0.36765 0.0
C372 C 0.1653 0.80024 0.36519 0.0
C373 C 0.12497 0.76217 0.32813 0.0
H374 H 0.38735 0.3688 0.69308 0.0
C375 C 0.32994 0.34939 0.70743 0.0
H376 H 0.2366 0.25932 0.74146 0.0
H377 H 0.3757 0.02946 0.66391 0.0
H378 H 0.30936 0.02738 0.60113 0.0
H379 H 0.25249 0.11638 0.59572 0.0
H380 H 0.26084 0.20783 0.65334 0.0
C381 C 0.29301 0.27845 0.72608 0.0
C382 C 0.32914 0.22578 0.72882 0.0
C383 C 0.3227 0.17151 0.69519 0.0
C384 C 0.35286 0.11762 0.69893 0.0
C385 C 0.34948 0.06779 0.66388 0.0
C386 C 0.31267 0.06691 0.62735 0.0
C387 C 0.28074 0.11718 0.62426 0.0
C388 C 0.28598 0.16938 0.65758 0.0
H389 H 0.30357 0.94991 0.72386 0.0
C390 C 0.36289 0.97326 0.73688 0.0
H391 H 0.47199 0.07722 0.75565 0.0
H392 H 0.35445 0.32481 0.79822 0.0
H393 H 0.41546 0.32387 0.86241 0.0
H394 H 0.46385 0.22798 0.87012 0.0
H395 H 0.45259 0.1335 0.81378 0.0
C396 C 0.41241 0.05462 0.74301 0.0
C397 C 0.38631 0.11539 0.73706 0.0
C398 C 0.39459 0.1716 0.77035 0.0
C399 C 0.36594 0.22655 0.76616 0.0
C400 C 0.3745 0.28137 0.79993 0.0
C401 C 0.40953 0.28162 0.83693 0.0
C402 C 0.43686 0.22772 0.84124 0.0
C403 C 0.4298 0.17347 0.8085 0.0
H404 H 0.35374 0.49167 0.27849 0.0
C405 C 0.36133 0.45236 0.2985 0.0
H406 H 0.30616 0.35741 0.33864 0.0
H407 H 0.03752 0.4417 0.25813 0.0
H408 H 0.10894 0.57341 0.29563 0.0
H409 H 0.22886 0.6115 0.33765 0.0
H410 H 0.27816 0.51745 0.34198 0.0
C411 C 0.29799 0.39576 0.31829 0.0
C412 C 0.21648 0.36687 0.3017 0.0
C413 C 0.18742 0.42153 0.30024 0.0
C414 C 0.11775 0.39894 0.27652 0.0
C415 C 0.09043 0.45529 0.27536 0.0
C416 C 0.13072 0.53127 0.29695 0.0
C417 C 0.19827 0.55274 0.32055 0.0
C418 C 0.22632 0.49858 0.32247 0.0
H419 H 0.92824 0.20776 0.27217 0.0
C420 C 0.93109 0.24684 0.24842 0.0
H421 H 0.00567 0.33817 0.20892 0.0
H422 H 0.25036 0.24226 0.30177 0.0
H423 H 0.1746 0.10833 0.26724 0.0
H424 H 0.05532 0.07057 0.22502 0.0
H425 H 0.00978 0.16676 0.2181 0.0
C426 C 0.0019 0.29745 0.23194 0.0
C427 C 0.0763 0.3208 0.25509 0.0
C428 C 0.10283 0.26449 0.25828 0.0
C429 C 0.17261 0.28711 0.28201 0.0
C430 C 0.19791 0.22938 0.28441 0.0
C431 C 0.15515 0.15194 0.26447 0.0
C432 C 0.08772 0.13053 0.24085 0.0
C433 C 0.06193 0.18611 0.23741 0.0
H434 H 0.88725 0.38766 0.73881 0.0
C435 C 0.93622 0.37552 0.7396 0.0
H436 H 0.96921 0.28675 0.74466 0.0
H437 H 0.68167 0.00674 0.82724 0.0
H438 H 0.77726 0.06596 0.88395 0.0
H439 H 0.9005 0.19981 0.87947 0.0
H440 H 0.92899 0.27501 0.81798 0.0
C441 C 0.92 0.29821 0.74235 0.0
C442 C 0.83742 0.22688 0.74763 0.0
C443 C 0.82012 0.18421 0.78416 0.0
C444 C 0.74805 0.10763 0.78709 0.0
C445 C 0.73452 0.0655 0.82343 0.0
C446 C 0.78907 0.09878 0.85629 0.0
C447 C 0.85849 0.17407 0.85375 0.0
C448 C 0.87426 0.21641 0.81818 0.0
H449 H 0.66513 0.95153 0.70065 0.0
C450 C 0.62068 0.93096 0.72472 0.0
H451 H 0.58421 0.96744 0.77925 0.0
H452 H 0.84767 0.29346 0.67374 0.0
H453 H 0.74455 0.24214 0.62067 0.0
H454 H 0.61494 0.11595 0.62872 0.0
H455 H 0.58864 0.03922 0.68966 0.0
C456 C 0.62464 0.98683 0.75356 0.0
C457 C 0.69235 0.0739 0.75366 0.0
C458 C 0.7055 0.12092 0.71904 0.0
C459 C 0.77886 0.19624 0.71545 0.0
C460 C 0.79222 0.23795 0.679 0.0
C461 C 0.73353 0.20889 0.64813 0.0
C462 C 0.66067 0.13768 0.65257 0.0
C463 C 0.64657 0.0939 0.68751 0.0
loop_
_geom_bond_atom_site_label_1
_geom_bond_atom_site_label_2
_geom_bond_distance
_geom_bond_site_symmetry_2
_ccdc_geom_bond_type
Zn0 O2 1.933 . S
Zn0 O20 1.985 . S
Zn0 O31 1.955 . S
Zn1 O2 1.911 . S
Zn1 O21 1.970 . S
Zn1 O37 1.945 . S
Zn1 O44 1.981 . S
O2 Zn0 1.933 . S
O2 Zn1 1.911 . S
O2 H3 0.841 . S
H3 O2 0.841 . S
C4 O5 1.246 . S
C4 O33 1.276 . S
O5 C4 1.246 . S
Zn6 O8 1.911 . S
Zn6 O23 1.970 . S
Zn6 O40 1.945 . S
Zn6 O47 1.981 . S
Zn7 O8 1.933 . S
Zn7 O22 1.985 . S
Zn7 O29 1.955 . S
O8 Zn6 1.911 . S
O8 Zn7 1.933 . S
O8 H9 0.841 . S
H9 O8 0.841 . S
Zn10 O11 1.933 . S
Zn10 O24 1.985 . S
Zn10 O33 1.955 . S
O11 Zn10 1.933 . S
O11 Zn12 1.911 . S
O11 H13 0.841 . S
Zn12 O11 1.911 . S
Zn12 O25 1.970 . S
Zn12 O41 1.981 . S
Zn12 O43 1.945 . S
H13 O11 0.841 . S
Zn14 O15 1.933 . S
Zn14 O27 1.985 . S
Zn14 O35 1.955 . S
O15 Zn14 1.933 . S
O15 H16 0.841 . S
O15 Zn17 1.911 . S
H16 O15 0.841 . S
Zn17 O15 1.911 . S
Zn17 O28 1.970 . S
Zn17 O38 1.981 . S
Zn17 O46 1.945 . S
C18 O19 1.246 . S
C18 O35 1.276 . S
O19 C18 1.246 . S
O20 Zn0 1.985 . S
O20 C30 1.245 . S
O21 Zn1 1.970 . S
O21 C30 1.263 . S
O22 Zn7 1.985 . S
O22 C34 1.245 . S
O23 Zn6 1.970 . S
O23 C34 1.263 . S
O24 Zn10 1.985 . S
O24 C39 1.245 . S
O25 Zn12 1.970 . S
O25 C39 1.263 . S
C26 O37 1.262 . S
C26 O38 1.245 . S
O27 Zn14 1.985 . S
O27 C45 1.245 . S
O28 Zn17 1.970 . S
O28 C45 1.263 . S
O29 Zn7 1.955 . S
O29 C48 1.276 . S
C30 O20 1.245 . S
C30 O21 1.263 . S
O31 Zn0 1.955 . S
O31 C50 1.276 . S
C32 O40 1.262 . S
C32 O41 1.245 . S
O33 C4 1.276 . S
O33 Zn10 1.955 . S
C34 O22 1.245 . S
C34 O23 1.263 . S
O35 Zn14 1.955 . S
O35 C18 1.276 . S
C36 O43 1.262 . S
C36 O44 1.245 . S
O37 Zn1 1.945 . S
O37 C26 1.262 . S
O38 Zn17 1.981 . S
O38 C26 1.245 . S
C39 O24 1.245 . S
C39 O25 1.263 . S
O40 Zn6 1.945 . S
O40 C32 1.262 . S
O41 Zn12 1.981 . S
O41 C32 1.245 . S
C42 O46 1.262 . S
C42 O47 1.245 . S
O43 Zn12 1.945 . S
O43 C36 1.262 . S
O44 Zn1 1.981 . S
O44 C36 1.245 . S
C45 O27 1.245 . S
C45 O28 1.263 . S
O46 Zn17 1.945 . S
O46 C42 1.262 . S
O47 Zn6 1.981 . S
O47 C42 1.245 . S
C48 O29 1.276 . S
C48 O49 1.246 . S
O49 C48 1.246 . S
C50 O31 1.276 . S
C50 O51 1.246 . S
O51 C50 1.246 . S
Zn52 O54 1.933 . S
Zn52 O72 1.985 . S
Zn52 O83 1.955 . S
Zn53 O54 1.911 . S
Zn53 O73 1.970 . S
Zn53 O89 1.945 . S
Zn53 O96 1.981 . S
O54 Zn52 1.933 . S
O54 Zn53 1.911 . S
O54 H55 0.841 . S
H55 O54 0.841 . S
C56 O57 1.246 . S
C56 O85 1.276 . S
O57 C56 1.246 . S
Zn58 O60 1.911 . S
Zn58 O75 1.970 . S
Zn58 O92 1.945 . S
Zn58 O99 1.981 . S
Zn59 O60 1.933 . S
Zn59 O74 1.985 . S
Zn59 O81 1.955 . S
O60 Zn58 1.911 . S
O60 Zn59 1.933 . S
O60 H61 0.841 . S
H61 O60 0.841 . S
Zn62 O63 1.933 . S
Zn62 O76 1.985 . S
Zn62 O85 1.955 . S
O63 Zn62 1.933 . S
O63 Zn64 1.911 . S
O63 H65 0.841 . S
Zn64 O63 1.911 . S
Zn64 O77 1.970 . S
Zn64 O93 1.981 . S
Zn64 O95 1.945 . S
H65 O63 0.841 . S
Zn66 O67 1.933 . S
Zn66 O79 1.985 . S
Zn66 O87 1.955 . S
O67 Zn66 1.933 . S
O67 H68 0.841 . S
O67 Zn69 1.911 . S
H68 O67 0.841 . S
Zn69 O67 1.911 . S
Zn69 O80 1.970 . S
Zn69 O90 1.981 . S
Zn69 O98 1.945 . S
C70 O71 1.246 . S
C70 O87 1.276 . S
O71 C70 1.246 . S
O72 Zn52 1.985 . S
O72 C82 1.245 . S
O73 Zn53 1.970 . S
O73 C82 1.263 . S
O74 Zn59 1.985 . S
O74 C86 1.245 . S
O75 Zn58 1.970 . S
O75 C86 1.263 . S
O76 Zn62 1.985 . S
O76 C91 1.245 . S
O77 Zn64 1.970 . S
O77 C91 1.263 . S
C78 O89 1.262 . S
C78 O90 1.245 . S
O79 Zn66 1.985 . S
O79 C97 1.245 . S
O80 Zn69 1.970 . S
O80 C97 1.263 . S
O81 Zn59 1.955 . S
O81 C100 1.276 . S
C82 O72 1.245 . S
C82 O73 1.263 . S
O83 Zn52 1.955 . S
O83 C102 1.276 . S
C84 O92 1.262 . S
C84 O93 1.245 . S
O85 C56 1.276 . S
O85 Zn62 1.955 . S
C86 O74 1.245 . S
C86 O75 1.263 . S
O87 Zn66 1.955 . S
O87 C70 1.276 . S
C88 O95 1.262 . S
C88 O96 1.245 . S
O89 Zn53 1.945 . S
O89 C78 1.262 . S
O90 Zn69 1.981 . S
O90 C78 1.245 . S
C91 O76 1.245 . S
C91 O77 1.263 . S
O92 Zn58 1.945 . S
O92 C84 1.262 . S
O93 Zn64 1.981 . S
O93 C84 1.245 . S
C94 O98 1.262 . S
C94 O99 1.245 . S
O95 Zn64 1.945 . S
O95 C88 1.262 . S
O96 Zn53 1.981 . S
O96 C88 1.245 . S
C97 O79 1.245 . S
C97 O80 1.263 . S
O98 Zn69 1.945 . S
O98 C94 1.262 . S
O99 Zn58 1.981 . S
O99 C94 1.245 . S
C100 O81 1.276 . S
C100 O101 1.246 . S
O101 C100 1.246 . S
C102 O83 1.276 . S
C102 O103 1.246 . S
O103 C102 1.246 . S
H104 C105 0.951 . S
C105 H104 0.951 . S
C105 C111 1.265 . S
H106 C111 0.950 . S
H107 C115 0.949 . S
H108 C116 0.950 . S
H109 C117 0.951 . S
H110 C118 0.951 . S
C111 C105 1.265 . S
C111 H106 0.950 . S
C111 C112 1.478 . S
C112 C111 1.478 . S
C112 C113 1.397 1_565 S
C112 C129 1.394 . S
C113 C112 1.397 1_545 S
C113 C114 1.438 1_556 S
C113 C118 1.429 . S
C114 C113 1.438 1_554 S
C114 C115 1.428 . S
C114 C127 1.394 . S
C115 H107 0.949 . S
C115 C114 1.428 . S
C115 C116 1.345 1_554 S
C116 H108 0.950 . S
C116 C115 1.345 1_556 S
C116 C117 1.424 . S
C117 H109 0.951 . S
C117 C116 1.424 . S
C117 C118 1.347 . S
C118 H110 0.951 . S
C118 C113 1.429 . S
C118 C117 1.347 . S
H119 C120 0.951 . S
C120 H119 0.951 . S
C120 C126 1.265 . S
H121 C126 0.950 . S
H122 C130 0.949 . S
H123 C131 0.950 . S
H124 C132 0.951 . S
H125 C133 0.951 . S
C126 C120 1.265 . S
C126 H121 0.950 . S
C126 C127 1.478 . S
C127 C114 1.394 . S
C127 C126 1.478 . S
C127 C128 1.397 1_545 S
C128 C127 1.397 1_565 S
C128 C129 1.438 1_554 S
C128 C133 1.429 . S
C129 C112 1.394 . S
C129 C128 1.438 1_556 S
C129 C130 1.428 . S
C130 H122 0.949 . S
C130 C129 1.428 . S
C130 C131 1.345 1_556 S
C131 H123 0.950 . S
C131 C130 1.345 1_554 S
C131 C132 1.424 . S
C132 H124 0.951 . S
C132 C131 1.424 . S
C132 C133 1.347 . S
C133 H125 0.951 . S
C133 C128 1.429 . S
C133 C132 1.347 . S
H134 C135 0.951 . S
C135 H134 0.951 . S
C135 C141 1.265 . S
H136 C141 0.950 . S
H137 C145 0.949 . S
H138 C146 0.950 . S
H139 C147 0.951 . S
H140 C148 0.951 . S
C141 C135 1.265 . S
C141 H136 0.950 . S
C141 C142 1.478 . S
C142 C141 1.478 . S
C142 C143 1.397 . S
C142 C159 1.394 . S
C143 C142 1.397 . S
C143 C144 1.438 . S
C143 C148 1.429 . S
C144 C143 1.438 . S
C144 C145 1.428 . S
C144 C157 1.394 . S
C145 H137 0.949 . S
C145 C144 1.428 . S
C145 C146 1.345 . S
C146 H138 0.950 . S
C146 C145 1.345 . S
C146 C147 1.424 . S
C147 H139 0.951 . S
C147 C146 1.424 . S
C147 C148 1.347 . S
C148 H140 0.951 . S
C148 C143 1.429 . S
C148 C147 1.347 . S
H149 C150 0.951 . S
C150 H149 0.951 . S
C150 C156 1.265 . S
H151 C156 0.950 . S
H152 C160 0.949 . S
H153 C161 0.950 . S
H154 C162 0.951 . S
H155 C163 0.951 . S
C156 C150 1.265 . S
C156 H151 0.950 . S
C156 C157 1.478 . S
C157 C144 1.394 . S
C157 C156 1.478 . S
C157 C158 1.397 . S
C158 C157 1.397 . S
C158 C159 1.438 . S
C158 C163 1.429 . S
C159 C142 1.394 . S
C159 C158 1.438 . S
C159 C160 1.428 . S
C160 H152 0.949 . S
C160 C159 1.428 . S
C160 C161 1.345 . S
C161 H153 0.950 . S
C161 C160 1.345 . S
C161 C162 1.424 . S
C162 H154 0.951 . S
C162 C161 1.424 . S
C162 C163 1.347 . S
C163 H155 0.951 . S
C163 C158 1.429 . S
C163 C162 1.347 . S
H164 C165 0.951 . S
C165 H164 0.951 . S
C165 C171 1.265 . S
H166 C171 0.950 . S
H167 C175 0.949 . S
H168 C176 0.950 . S
H169 C177 0.951 1_655 S
H170 C178 0.951 . S
C171 C165 1.265 . S
C171 H166 0.950 . S
C171 C172 1.478 . S
C172 C171 1.478 . S
C172 C173 1.397 . S
C172 C189 1.394 . S
C173 C172 1.397 . S
C173 C174 1.438 1_654 S
C173 C178 1.429 . S
C174 C173 1.438 1_456 S
C174 C175 1.428 . S
C174 C187 1.394 . S
C175 H167 0.949 . S
C175 C174 1.428 . S
C175 C176 1.345 . S
C176 H168 0.950 . S
C176 C175 1.345 . S
C176 C177 1.424 1_556 S
C177 H169 0.951 1_455 S
C177 C176 1.424 1_554 S
C177 C178 1.347 1_455 S
C178 H170 0.951 . S
C178 C173 1.429 . S
C178 C177 1.347 1_655 S
H179 C180 0.951 . S
C180 H179 0.951 . S
C180 C186 1.265 . S
H181 C186 0.950 . S
H182 C190 0.949 . S
H183 C191 0.950 . S
H184 C192 0.951 . S
H185 C193 0.951 . S
C186 C180 1.265 . S
C186 H181 0.950 . S
C186 C187 1.478 . S
C187 C174 1.394 . S
C187 C186 1.478 . S
C187 C188 1.397 . S
C188 C187 1.397 . S
C188 C189 1.438 1_456 S
C188 C193 1.429 . S
C189 C172 1.394 . S
C189 C188 1.438 1_654 S
C189 C190 1.428 . S
C190 H182 0.949 . S
C190 C189 1.428 . S
C190 C191 1.345 . S
C191 H183 0.950 . S
C191 C190 1.345 . S
C191 C192 1.424 1_554 S
C192 H184 0.951 . S
C192 C191 1.424 1_556 S
C192 C193 1.347 1_655 S
C193 H185 0.951 . S
C193 C188 1.429 . S
C193 C192 1.347 1_455 S
H194 C195 0.951 . S
C195 H194 0.951 . S
C195 C201 1.265 . S
H196 C201 0.950 . S
H197 C205 0.949 . S
H198 C206 0.950 . S
H199 C207 0.951 . S
H200 C208 0.951 . S
C201 C195 1.265 . S
C201 H196 0.950 . S
C201 C202 1.478 . S
C202 C201 1.478 . S
C202 C203 1.397 . S
C202 C219 1.394 1_565 S
C203 C202 1.397 . S
C203 C204 1.438 . S
C203 C208 1.429 . S
C204 C203 1.438 . S
C204 C205 1.428 . S
C204 C217 1.394 1_565 S
C205 H197 0.949 . S
C205 C204 1.428 . S
C205 C206 1.345 . S
C206 H198 0.950 . S
C206 C205 1.345 . S
C206 C207 1.424 . S
C207 H199 0.951 . S
C207 C206 1.424 . S
C207 C208 1.347 . S
C208 H200 0.951 . S
C208 C203 1.429 . S
C208 C207 1.347 . S
H209 C210 0.951 . S
C210 H209 0.951 . S
C210 C216 1.265 . S
H211 C216 0.950 . S
H212 C220 0.949 . S
H213 C221 0.950 . S
H214 C222 0.951 . S
H215 C223 0.951 . S
C216 C210 1.265 . S
C216 H211 0.950 . S
C216 C217 1.478 . S
C217 C204 1.394 1_545 S
C217 C216 1.478 . S
C217 C218 1.397 . S
C218 C217 1.397 . S
C218 C219 1.438 . S
C218 C223 1.429 . S
C219 C202 1.394 1_545 S
C219 C218 1.438 . S
C219 C220 1.428 . S
C220 H212 0.949 . S
C220 C219 1.428 . S
C220 C221 1.345 . S
C221 H213 0.950 . S
C221 C220 1.345 . S
C221 C222 1.424 . S
C222 H214 0.951 . S
C222 C221 1.424 . S
C222 C223 1.347 . S
C223 H215 0.951 . S
C223 C218 1.429 . S
C223 C222 1.347 . S
H224 C225 0.951 . S
C225 H224 0.951 . S
C225 C231 1.265 . S
H226 C231 0.950 . S
H227 C235 0.949 . S
H228 C236 0.950 . S
H229 C237 0.951 . S
H230 C238 0.951 . S
C231 C225 1.265 . S
C231 H226 0.950 . S
C231 C232 1.478 . S
C232 C231 1.478 . S
C232 C233 1.397 . S
C232 C249 1.394 . S
C233 C232 1.397 . S
C233 C234 1.438 1_554 S
C233 C238 1.429 . S
C234 C233 1.438 1_556 S
C234 C235 1.428 . S
C234 C247 1.394 . S
C235 H227 0.949 . S
C235 C234 1.428 . S
C235 C236 1.345 . S
C236 H228 0.950 . S
C236 C235 1.345 . S
C236 C237 1.424 1_556 S
C237 H229 0.951 . S
C237 C236 1.424 1_554 S
C237 C238 1.347 . S
C238 H230 0.951 . S
C238 C233 1.429 . S
C238 C237 1.347 . S
H239 C240 0.951 . S
C240 H239 0.951 . S
C240 C246 1.265 . S
H241 C246 0.950 . S
H242 C250 0.949 . S
H243 C251 0.950 . S
H244 C252 0.951 . S
H245 C253 0.951 . S
C246 C240 1.265 . S
C246 H241 0.950 . S
C246 C247 1.478 . S
C247 C234 1.394 . S
C247 C246 1.478 . S
C247 C248 1.397 . S
C248 C247 1.397 . S
C248 C249 1.438 1_556 S
C248 C253 1.429 . S
C249 C232 1.394 . S
C249 C248 1.438 1_554 S
C249 C250 1.428 . S
C250 H242 0.949 . S
C250 C249 1.428 . S
C250 C251 1.345 . S
C251 H243 0.950 . S
C251 C250 1.345 . S
C251 C252 1.424 1_554 S
C252 H244 0.951 . S
C252 C251 1.424 1_556 S
C252 C253 1.347 . S
C253 H245 0.951 . S
C253 C248 1.429 . S
C253 C252 1.347 . S
H254 C255 0.951 . S
C255 H254 0.951 . S
C255 C261 1.265 . S
H256 C261 0.950 . S
H257 C265 0.949 1_455 S
H258 C266 0.950 . S
H259 C267 0.951 . S
H260 C268 0.951 . S
C261 C255 1.265 . S
C261 H256 0.950 . S
C261 C262 1.478 . S
C262 C261 1.478 . S
C262 C263 1.397 . S
C262 C279 1.394 1_655 S
C263 C262 1.397 . S
C263 C264 1.438 . S
C263 C268 1.429 . S
C264 C263 1.438 . S
C264 C265 1.428 . S
C264 C277 1.394 1_655 S
C265 H257 0.949 1_655 S
C265 C264 1.428 . S
C265 C266 1.345 . S
C266 H258 0.950 . S
C266 C265 1.345 . S
C266 C267 1.424 . S
C267 H259 0.951 . S
C267 C266 1.424 . S
C267 C268 1.347 . S
C268 H260 0.951 . S
C268 C263 1.429 . S
C268 C267 1.347 . S
H269 C270 0.951 . S
C270 H269 0.951 . S
C270 C276 1.265 . S
H271 C276 0.950 . S
H272 C280 0.949 1_655 S
H273 C281 0.950 . S
H274 C282 0.951 . S
H275 C283 0.951 . S
C276 C270 1.265 . S
C276 H271 0.950 . S
C276 C277 1.478 . S
C277 C264 1.394 1_455 S
C277 C276 1.478 . S
C277 C278 1.397 . S
C278 C277 1.397 . S
C278 C279 1.438 . S
C278 C283 1.429 . S
C279 C262 1.394 1_455 S
C279 C278 1.438 . S
C279 C280 1.428 . S
C280 H272 0.949 1_455 S
C280 C279 1.428 . S
C280 C281 1.345 . S
C281 H273 0.950 . S
C281 C280 1.345 . S
C281 C282 1.424 . S
C282 H274 0.951 . S
C282 C281 1.424 . S
C282 C283 1.347 . S
C283 H275 0.951 . S
C283 C278 1.429 . S
C283 C282 1.347 . S
H284 C285 0.951 1_565 S
C285 H284 0.951 1_545 S
C285 C291 1.260 1_545 S
H286 C291 0.947 1_545 S
H287 C295 0.949 . S
H288 C296 0.950 . S
H289 C297 0.951 . S
H290 C298 0.951 . S
C291 C285 1.260 1_565 S
C291 H286 0.947 1_565 S
C291 C292 1.485 . S
C292 C291 1.485 . S
C292 C293 1.397 . S
C292 C309 1.394 . S
C293 C292 1.397 . S
C293 C294 1.438 . S
C293 C298 1.429 . S
C294 C293 1.438 . S
C294 C295 1.428 . S
C294 C307 1.394 . S
C295 H287 0.949 . S
C295 C294 1.428 . S
C295 C296 1.345 . S
C296 H288 0.950 . S
C296 C295 1.345 . S
C296 C297 1.424 . S
C297 H289 0.951 . S
C297 C296 1.424 . S
C297 C298 1.347 . S
C298 H290 0.951 . S
C298 C293 1.429 . S
C298 C297 1.347 . S
H299 C300 0.951 . S
C300 H299 0.951 . S
C300 C306 1.265 . S
H301 C306 0.950 . S
H302 C310 0.949 . S
H303 C311 0.950 . S
H304 C312 0.951 . S
H305 C313 0.951 . S
C306 C300 1.265 . S
C306 H301 0.950 . S
C306 C307 1.478 . S
C307 C294 1.394 . S
C307 C306 1.478 . S
C307 C308 1.397 . S
C308 C307 1.397 . S
C308 C309 1.438 . S
C308 C313 1.429 . S
C309 C292 1.394 . S
C309 C308 1.438 . S
C309 C310 1.428 . S
C310 H302 0.949 . S
C310 C309 1.428 . S
C310 C311 1.345 . S
C311 H303 0.950 . S
C311 C310 1.345 . S
C311 C312 1.424 . S
C312 H304 0.951 . S
C312 C311 1.424 . S
C312 C313 1.347 . S
C313 H305 0.951 . S
C313 C308 1.429 . S
C313 C312 1.347 . S
H314 C315 0.951 . S
C315 H314 0.951 . S
C315 C321 1.265 . S
H316 C321 0.950 . S
H317 C325 0.949 . S
H318 C326 0.950 . S
H319 C327 0.951 . S
H320 C328 0.951 . S
C321 C315 1.265 . S
C321 H316 0.950 . S
C321 C322 1.478 1_455 S
C322 C321 1.478 1_655 S
C322 C323 1.397 . S
C322 C339 1.394 . S
C323 C322 1.397 . S
C323 C324 1.438 . S
C323 C328 1.429 . S
C324 C323 1.438 . S
C324 C325 1.428 . S
C324 C337 1.394 . S
C325 H317 0.949 . S
C325 C324 1.428 . S
C325 C326 1.345 . S
C326 H318 0.950 . S
C326 C325 1.345 . S
C326 C327 1.424 . S
C327 H319 0.951 . S
C327 C326 1.424 . S
C327 C328 1.347 . S
C328 H320 0.951 . S
C328 C323 1.429 . S
C328 C327 1.347 . S
H329 C330 0.951 . S
C330 H329 0.951 . S
C330 C336 1.265 . S
H331 C336 0.950 . S
H332 C340 0.949 1_455 S
H333 C341 0.950 . S
H334 C342 0.951 . S
H335 C343 0.951 . S
C336 C330 1.265 . S
C336 H331 0.950 . S
C336 C337 1.478 . S
C337 C324 1.394 . S
C337 C336 1.478 . S
C337 C338 1.397 . S
C338 C337 1.397 . S
C338 C339 1.438 . S
C338 C343 1.429 . S
C339 C322 1.394 . S
C339 C338 1.438 . S
C339 C340 1.428 . S
C340 H332 0.949 1_655 S
C340 C339 1.428 . S
C340 C341 1.345 . S
C341 H333 0.950 . S
C341 C340 1.345 . S
C341 C342 1.424 . S
C342 H334 0.951 . S
C342 C341 1.424 . S
C342 C343 1.347 . S
C343 H335 0.951 . S
C343 C338 1.429 . S
C343 C342 1.347 . S
H344 C345 0.951 1_565 S
C345 H344 0.951 1_545 S
C345 C351 1.265 1_545 S
H346 C351 0.950 1_545 S
H347 C355 0.949 . S
H348 C356 0.950 . S
H349 C357 0.951 . S
H350 C358 0.951 . S
C351 C345 1.265 1_565 S
C351 H346 0.950 1_565 S
C351 C352 1.478 . S
C352 C351 1.478 . S
C352 C353 1.397 . S
C352 C369 1.394 . S
C353 C352 1.397 . S
C353 C354 1.438 . S
C353 C358 1.429 . S
C354 C353 1.438 . S
C354 C355 1.428 . S
C354 C367 1.394 . S
C355 H347 0.949 . S
C355 C354 1.428 . S
C355 C356 1.345 . S
C356 H348 0.950 . S
C356 C355 1.345 . S
C356 C357 1.424 . S
C357 H349 0.951 . S
C357 C356 1.424 . S
C357 C358 1.347 . S
C358 H350 0.951 . S
C358 C353 1.429 . S
C358 C357 1.347 . S
H359 C360 0.951 . S
C360 H359 0.951 . S
C360 C366 1.265 1_655 S
H361 C366 0.950 . S
H362 C370 0.949 . S
H363 C371 0.950 . S
H364 C372 0.951 . S
H365 C373 0.951 . S
C366 C360 1.265 1_455 S
C366 H361 0.950 . S
C366 C367 1.478 . S
C367 C354 1.394 . S
C367 C366 1.478 . S
C367 C368 1.397 . S
C368 C367 1.397 . S
C368 C369 1.438 . S
C368 C373 1.429 . S
C369 C352 1.394 . S
C369 C368 1.438 . S
C369 C370 1.428 . S
C370 H362 0.949 . S
C370 C369 1.428 . S
C370 C371 1.345 . S
C371 H363 0.950 . S
C371 C370 1.345 . S
C371 C372 1.424 . S
C372 H364 0.951 . S
C372 C371 1.424 . S
C372 C373 1.347 . S
C373 H365 0.951 . S
C373 C368 1.429 . S
C373 C372 1.347 . S
H374 C375 0.951 . S
C375 H374 0.951 . S
C375 C381 1.265 . S
H376 C381 0.950 . S
H377 C385 0.949 . S
H378 C386 0.950 . S
H379 C387 0.951 . S
H380 C388 0.951 . S
C381 C375 1.265 . S
C381 H376 0.950 . S
C381 C382 1.478 . S
C382 C381 1.478 . S
C382 C383 1.397 . S
C382 C399 1.394 . S
C383 C382 1.397 . S
C383 C384 1.438 . S
C383 C388 1.429 . S
C384 C383 1.438 . S
C384 C385 1.428 . S
C384 C397 1.394 . S
C385 H377 0.949 . S
C385 C384 1.428 . S
C385 C386 1.345 . S
C386 H378 0.950 . S
C386 C385 1.345 . S
C386 C387 1.424 . S
C387 H379 0.951 . S
C387 C386 1.424 . S
C387 C388 1.347 . S
C388 H380 0.951 . S
C388 C383 1.429 . S
C388 C387 1.347 . S
H389 C390 0.951 . S
C390 H389 0.951 . S
C390 C396 1.265 1_565 S
H391 C396 0.950 . S
H392 C400 0.949 . S
H393 C401 0.950 . S
H394 C402 0.951 . S
H395 C403 0.951 . S
C396 C390 1.265 1_545 S
C396 H391 0.950 . S
C396 C397 1.478 . S
C397 C384 1.394 . S
C397 C396 1.478 . S
C397 C398 1.397 . S
C398 C397 1.397 . S
C398 C399 1.438 . S
C398 C403 1.429 . S
C399 C382 1.394 . S
C399 C398 1.438 . S
C399 C400 1.428 . S
C400 H392 0.949 . S
C400 C399 1.428 . S
C400 C401 1.345 . S
C401 H393 0.950 . S
C401 C400 1.345 . S
C401 C402 1.424 . S
C402 H394 0.951 . S
C402 C401 1.424 . S
C402 C403 1.347 . S
C403 H395 0.951 . S
C403 C398 1.429 . S
C403 C402 1.347 . S
H404 C405 0.951 . S
C405 H404 0.951 . S
C405 C411 1.265 . S
H406 C411 0.950 . S
H407 C415 0.949 . S
H408 C416 0.950 . S
H409 C417 0.951 . S
H410 C418 0.951 . S
C411 C405 1.265 . S
C411 H406 0.950 . S
C411 C412 1.478 . S
C412 C411 1.478 . S
C412 C413 1.397 . S
C412 C429 1.394 . S
C413 C412 1.397 . S
C413 C414 1.438 . S
C413 C418 1.429 . S
C414 C413 1.438 . S
C414 C415 1.428 . S
C414 C427 1.394 . S
C415 H407 0.949 . S
C415 C414 1.428 . S
C415 C416 1.345 . S
C416 H408 0.950 . S
C416 C415 1.345 . S
C416 C417 1.424 . S
C417 H409 0.951 . S
C417 C416 1.424 . S
C417 C418 1.347 . S
C418 H410 0.951 . S
C418 C413 1.429 . S
C418 C417 1.347 . S
H419 C420 0.951 . S
C420 H419 0.951 . S
C420 C426 1.276 . S
H421 C426 0.949 . S
H422 C430 0.949 . S
H423 C431 0.950 . S
H424 C432 0.951 . S
H425 C433 0.951 . S
C426 C420 1.276 . S
C426 H421 0.949 . S
C426 C427 1.468 1_655 S
C427 C414 1.394 . S
C427 C426 1.468 1_455 S
C427 C428 1.397 . S
C428 C427 1.397 . S
C428 C429 1.438 . S
C428 C433 1.429 . S
C429 C412 1.394 . S
C429 C428 1.438 . S
C429 C430 1.428 . S
C430 H422 0.949 . S
C430 C429 1.428 . S
C430 C431 1.345 . S
C431 H423 0.950 . S
C431 C430 1.345 . S
C431 C432 1.424 . S
C432 H424 0.951 . S
C432 C431 1.424 . S
C432 C433 1.347 . S
C433 H425 0.951 . S
C433 C428 1.429 . S
C433 C432 1.347 . S
H434 C435 0.951 1_655 S
C435 H434 0.951 1_455 S
C435 C441 1.265 . S
H436 C441 0.950 . S
H437 C445 0.949 . S
H438 C446 0.950 . S
H439 C447 0.951 . S
H440 C448 0.951 . S
C441 C435 1.265 . S
C441 H436 0.950 . S
C441 C442 1.478 1_455 S
C442 C441 1.478 1_655 S
C442 C443 1.397 . S
C442 C459 1.394 . S
C443 C442 1.397 . S
C443 C444 1.438 . S
C443 C448 1.429 . S
C444 C443 1.438 . S
C444 C445 1.428 . S
C444 C457 1.394 . S
C445 H437 0.949 . S
C445 C444 1.428 . S
C445 C446 1.345 . S
C446 H438 0.950 . S
C446 C445 1.345 . S
C446 C447 1.424 . S
C447 H439 0.951 . S
C447 C446 1.424 . S
C447 C448 1.347 . S
C448 H440 0.951 . S
C448 C443 1.429 . S
C448 C447 1.347 . S
H449 C450 0.951 . S
C450 H449 0.951 . S
C450 C456 1.265 1_565 S
H451 C456 0.950 . S
H452 C460 0.949 . S
H453 C461 0.950 . S
H454 C462 0.951 . S
H455 C463 0.951 . S
C456 C450 1.265 1_545 S
C456 H451 0.950 . S
C456 C457 1.478 . S
C457 C444 1.394 . S
C457 C456 1.478 . S
C457 C458 1.397 . S
C458 C457 1.397 . S
C458 C459 1.438 . S
C458 C463 1.429 . S
C459 C442 1.394 . S
C459 C458 1.438 . S
C459 C460 1.428 . S
C460 H452 0.949 . S
C460 C459 1.428 . S
C460 C461 1.345 . S
C461 H453 0.950 . S
C461 C460 1.345 . S
C461 C462 1.424 . S
C462 H454 0.951 . S
C462 C461 1.424 . S
C462 C463 1.347 . S
C463 H455 0.951 . S
C463 C458 1.429 . S
C463 C462 1.347 . S
C105 C97 0.560 . S
C120 C39 0.561 . S
C135 C88 2.361 . S
C150 C18 2.330 . S
C165 C36 1.813 . S
C180 C70 1.801 . S
C195 C84 2.811 . S
C210 C50 2.812 . S
C225 C32 1.756 . S
C240 C102 1.739 . S
C255 C45 1.793 . S
C270 C91 1.794 . S
C285 C4 1.319 . S
C300 C42 1.331 . S
C315 C86 0.814 . S
C330 C82 0.814 . S
C345 C48 1.428 . S
C360 C26 1.433 . S
C375 C56 1.322 . S
C390 C94 1.328 . S
C405 C34 0.607 . S
C420 C30 0.607 . S
C435 C100 1.326 . S
C450 C78 1.338 . S
