# Generated by pormake.
# Topology unf, (4)-cn, num edge types: 1
# Building blocks:
#     Node 0, Type 0, BuildingBlock: NAHDIM_clean_sbu_0, # of connection points: 4
#     Node 1, Type 0, BuildingBlock: NAHDIM_clean_sbu_0, # of connection points: 4
#     Node 2, Type 0, BuildingBlock: NAHDIM_clean_sbu_0, # of connection points: 4
#     Node 3, Type 0, BuildingBlock: NAHDIM_clean_sbu_0, # of connection points: 4
#     Node 4, Type 0, BuildingBlock: NAHDIM_clean_sbu_0, # of connection points: 4
#     Node 5, Type 0, BuildingBlock: NAHDIM_clean_sbu_0, # of connection points: 4
#     Node 6, Type 0, BuildingBlock: NAHDIM_clean_sbu_0, # of connection points: 4
#     Node 7, Type 0, BuildingBlock: NAHDIM_clean_sbu_0, # of connection points: 4
#     Node 8, Type 0, BuildingBlock: NAHDIM_clean_sbu_0, # of connection points: 4
#     Node 9, Type 0, BuildingBlock: NAHDIM_clean_sbu_0, # of connection points: 4
#     Node 10, Type 0, BuildingBlock: NAHDIM_clean_sbu_0, # of connection points: 4
#     Node 11, Type 0, BuildingBlock: NAHDIM_clean_sbu_0, # of connection points: 4
#     Edge 12, Type (0, 0), BuildingBlock: KIFKEQ_clean_linker_1, # of connection points: 2
#     Edge 13, Type (0, 0), BuildingBlock: KIFKEQ_clean_linker_1, # of connection points: 2
#     Edge 14, Type (0, 0), BuildingBlock: KIFKEQ_clean_linker_1, # of connection points: 2
#     Edge 15, Type (0, 0), BuildingBlock: KIFKEQ_clean_linker_1, # of connection points: 2
#     Edge 16, Type (0, 0), BuildingBlock: KIFKEQ_clean_linker_1, # of connection points: 2
#     Edge 17, Type (0, 0), BuildingBlock: KIFKEQ_clean_linker_1, # of connection points: 2
#     Edge 18, Type (0, 0), BuildingBlock: KIFKEQ_clean_linker_1, # of connection points: 2
#     Edge 19, Type (0, 0), BuildingBlock: KIFKEQ_clean_linker_1, # of connection points: 2
#     Edge 20, Type (0, 0), BuildingBlock: KIFKEQ_clean_linker_1, # of connection points: 2
#     Edge 21, Type (0, 0), BuildingBlock: KIFKEQ_clean_linker_1, # of connection points: 2
#     Edge 22, Type (0, 0), BuildingBlock: KIFKEQ_clean_linker_1, # of connection points: 2
#     Edge 23, Type (0, 0), BuildingBlock: KIFKEQ_clean_linker_1, # of connection points: 2
#     Edge 24, Type (0, 0), BuildingBlock: KIFKEQ_clean_linker_1, # of connection points: 2
#     Edge 25, Type (0, 0), BuildingBlock: KIFKEQ_clean_linker_1, # of connection points: 2
#     Edge 26, Type (0, 0), BuildingBlock: KIFKEQ_clean_linker_1, # of connection points: 2
#     Edge 27, Type (0, 0), BuildingBlock: KIFKEQ_clean_linker_1, # of connection points: 2
#     Edge 28, Type (0, 0), BuildingBlock: KIFKEQ_clean_linker_1, # of connection points: 2
#     Edge 29, Type (0, 0), BuildingBlock: KIFKEQ_clean_linker_1, # of connection points: 2
#     Edge 30, Type (0, 0), BuildingBlock: KIFKEQ_clean_linker_1, # of connection points: 2
#     Edge 31, Type (0, 0), BuildingBlock: KIFKEQ_clean_linker_1, # of connection points: 2
#     Edge 32, Type (0, 0), BuildingBlock: KIFKEQ_clean_linker_1, # of connection points: 2
#     Edge 33, Type (0, 0), BuildingBlock: KIFKEQ_clean_linker_1, # of connection points: 2
#     Edge 34, Type (0, 0), BuildingBlock: KIFKEQ_clean_linker_1, # of connection points: 2
#     Edge 35, Type (0, 0), BuildingBlock: KIFKEQ_clean_linker_1, # of connection points: 2
# Relax obj value: 0.235
# Max RMSD: 0.178
# Mean RMSD: 0.178
data_MOF--net-unf--node1-NAHDIM_clean_sbu_0--edge1-KIFKEQ_clean_linker_1
_symmetry_space_group_name_H-M    P1
_symmetry_Int_Tables_number       1
_symmetry_cell_setting            triclinic
loop_
_symmetry_equiv_pos_as_xyz
'x, y, z'
_cell_length_a     37.998694
_cell_length_b     37.923391
_cell_length_c     38.522924
_cell_angle_alpha  90.035629
_cell_angle_beta   90.026179
_cell_angle_gamma 119.99971
loop_
_atom_site_label
_atom_site_type_symbol
_atom_site_fract_x
_atom_site_fract_y
_atom_site_fract_z
_atom_type_partial_charge
C0 C 0.12921 0.40828 0.14433 0.0
O1 O 0.1465 0.42433 0.11447 0.0
O2 O 0.04577 0.41472 0.08495 0.0
Zn3 Zn 0.05867 0.37192 0.10135 0.0
O4 O 0.0906 0.36338 0.06411 0.0
C5 C 0.97228 0.31658 0.10707 0.0
O6 O 0.9707 0.35035 0.10916 0.0
O7 O 0.09077 0.38606 0.14562 0.0
C8 C 0.07328 0.34011 0.03833 0.0
O9 O 0.03344 0.32045 0.03613 0.0
C10 C 0.06396 0.43677 0.05879 0.0
O11 O 0.09457 0.43482 0.04507 0.0
O12 O 0.00669 0.31872 0.10609 0.0
C13 C 0.5751 0.71433 0.13819 0.0
O14 O 0.54731 0.70414 0.11396 0.0
O15 O 0.56716 0.63415 0.07334 0.0
Zn16 Zn 0.61201 0.6907 0.08558 0.0
O17 O 0.61351 0.73064 0.05059 0.0
C18 C 0.66761 0.65978 0.08104 0.0
O19 O 0.63448 0.62445 0.08567 0.0
O20 O 0.60522 0.70926 0.13254 0.0
C21 C 0.63358 0.73815 0.02251 0.0
O22 O 0.65412 0.71947 0.01603 0.0
C23 C 0.5447 0.62779 0.04691 0.0
O24 O 0.54789 0.65896 0.02943 0.0
O25 O 0.66545 0.69212 0.08222 0.0
C26 C 0.25527 0.8633 0.14379 0.0
O27 O 0.25135 0.84649 0.11315 0.0
O28 O 0.33987 0.95553 0.08712 0.0
Zn29 Zn 0.28228 0.93411 0.10182 0.0
O30 O 0.24637 0.89915 0.06327 0.0
C31 C 0.30341 0.01604 0.11702 0.0
O32 O 0.33681 0.01761 0.1283 0.0
O33 O 0.26903 0.90146 0.14576 0.0
C34 C 0.2409 0.91446 0.03589 0.0
O35 O 0.25847 0.95422 0.03293 0.0
C36 C 0.35061 0.93535 0.06793 0.0
O37 O 0.32384 0.89771 0.05947 0.0
O38 O 0.27415 0.98215 0.1068 0.0
C39 C 0.58789 0.88559 0.3428 0.0
O40 O 0.56194 0.86993 0.36856 0.0
O41 O 0.59125 0.96735 0.40552 0.0
Zn42 Zn 0.63085 0.94925 0.39246 0.0
O43 O 0.62934 0.91123 0.42942 0.0
C44 C 0.71805 -0.00319 0.39815 0.0
O45 O 0.71502 0.96082 0.4004 0.0
O46 O 0.61919 0.92055 0.34652 0.0
C47 C 0.64387 0.92402 0.45952 0.0
O48 O 0.66039 0.96299 0.46667 0.0
C49 C 0.56044 0.94529 0.42427 0.0
O50 O 0.55202 0.90821 0.43226 0.0
O51 O 0.68621 -0.001 0.39281 0.0
C52 C 0.12506 0.70525 0.35985 0.0
O53 O 0.1454 0.70981 0.38868 0.0
O54 O 0.04185 0.61858 0.42304 0.0
Zn55 Zn 0.05921 0.67575 0.40772 0.0
O56 O 0.09738 0.71544 0.44307 0.0
C57 C 0.97457 0.65398 0.40864 0.0
O58 O 0.96804 0.6166 0.40648 0.0
O59 O 0.08667 0.68939 0.36123 0.0
C60 C 0.08397 0.72226 0.47099 0.0
O61 O 0.04464 0.70282 0.47681 0.0
C62 C 0.06039 0.61212 0.44747 0.0
O63 O 0.09326 0.6429 0.46075 0.0
O64 O 0.01079 0.68357 0.40728 0.0
C65 C 0.28855 0.37764 0.33822 0.0
O66 O 0.31755 0.36959 0.33082 0.0
O67 O 0.35639 0.39775 0.41996 0.0
Zn68 Zn 0.29846 0.35733 0.4091 0.0
O69 O 0.26591 0.35232 0.45158 0.0
C70 C 0.32414 0.29903 0.39386 0.0
O71 O 0.35886 0.33179 0.38648 0.0
O72 O 0.27647 0.37455 0.36937 0.0
C73 C 0.23284 0.31946 0.45707 0.0
O74 O 0.22022 0.28976 0.4343 0.0
C75 C 0.36576 0.43012 0.43668 0.0
O76 O 0.33728 0.4389 0.44419 0.0
O77 O 0.29363 0.30274 0.40145 0.0
C78 C 0.87406 0.60582 0.84637 0.0
O79 O 0.85494 0.58036 0.87188 0.0
O80 O 0.95361 0.60281 0.91058 0.0
Zn81 Zn 0.93649 0.64336 0.8979 0.0
O82 O 0.89776 0.64186 0.93387 0.0
C83 C 0.02062 0.70363 0.89126 0.0
O84 O 0.02263 0.67297 0.87752 0.0
O85 O 0.91039 0.63435 0.85104 0.0
C86 C 0.88899 0.67005 0.9341 0.0
O87 O 0.90514 0.69886 0.91052 0.0
C88 C 0.93258 0.5726 0.93028 0.0
O89 O 0.89613 0.56465 0.93978 0.0
O90 O 0.98626 0.69853 0.90039 0.0
C91 C 0.3721 0.25814 0.86049 0.0
O92 O 0.40013 0.27127 0.88478 0.0
O93 O 0.3686 0.33579 0.92241 0.0
Zn94 Zn 0.32874 0.27745 0.91132 0.0
O95 O 0.33031 0.24246 0.94956 0.0
C96 C 0.26948 0.30098 0.89876 0.0
O97 O 0.3005 0.3315 0.88317 0.0
O98 O 0.33965 0.2592 0.86582 0.0
C99 C 0.31122 0.23804 0.97778 0.0
O100 O 0.28981 0.25628 0.98169 0.0
C101 C 0.39871 0.34635 0.94256 0.0
O102 O 0.40678 0.31861 0.95423 0.0
O103 O 0.27369 0.27227 0.91112 0.0
C104 C 0.69917 0.08865 0.84696 0.0
O105 O 0.66923 0.05128 0.84204 0.0
O106 O 0.63361 0.05307 0.93183 0.0
Zn107 Zn 0.69007 0.06555 0.91971 0.0
O108 O 0.72676 0.09499 0.95973 0.0
C109 C 0.65726 0.98051 0.90456 0.0
O110 O 0.62509 0.98284 0.89571 0.0
O111 O 0.7119 0.10072 0.87756 0.0
C112 C 0.76098 0.09717 0.96344 0.0
O113 O 0.77284 0.07975 0.94037 0.0
C114 C 0.62749 0.071 0.95699 0.0
O115 O 0.65876 0.10081 0.97299 0.0
O116 O 0.68934 0.01264 0.9139 0.0
C117 C 0.38256 0.11046 0.6471 0.0
O118 O 0.41036 0.12906 0.62308 0.0
O119 O 0.38894 0.04229 0.57776 0.0
Zn120 Zn 0.3434 0.05139 0.59294 0.0
O121 O 0.33888 0.08875 0.55871 0.0
C122 C 0.2925 0.96515 0.59897 0.0
O123 O 0.32638 0.96803 0.61051 0.0
O124 O 0.35187 0.07594 0.64038 0.0
C125 C 0.32013 0.07599 0.53004 0.0
O126 O 0.30132 0.03684 0.52304 0.0
C127 C 0.41368 0.06393 0.55414 0.0
O128 O 0.41234 0.09563 0.54211 0.0
O129 O 0.29195 -0.00256 0.5913 0.0
C130 C 0.86916 0.2468 0.64375 0.0
O131 O 0.85313 0.24399 0.61293 0.0
O132 O 0.95465 0.32917 0.58338 0.0
Zn133 Zn 0.93995 0.27432 0.60248 0.0
O134 O 0.90854 0.23101 0.56711 0.0
C135 C 0.025 0.30705 0.6152 0.0
O136 O 0.02385 0.34063 0.62085 0.0
O137 O 0.90723 0.26077 0.64622 0.0
C138 C 0.91672 0.23577 0.53489 0.0
O139 O 0.94613 0.27089 0.52355 0.0
C140 C 0.93234 0.33803 0.56512 0.0
O141 O 0.89443 0.31014 0.55898 0.0
O142 O -0.00803 0.27408 0.60973 0.0
C143 C 0.72081 0.61925 0.63825 0.0
O144 O 0.70619 0.59061 0.61443 0.0
O145 O 0.6453 0.61537 0.57405 0.0
Zn146 Zn 0.701 0.66103 0.587 0.0
O147 O 0.73997 0.66494 0.55025 0.0
C148 C 0.6668 0.71307 0.59353 0.0
O149 O 0.635 0.67913 0.60402 0.0
O150 O 0.72037 0.65207 0.6328 0.0
C151 C 0.77729 0.69197 0.55018 0.0
O152 O 0.79165 0.71919 0.57518 0.0
C153 C 0.64073 0.59077 0.54971 0.0
O154 O 0.67297 0.59278 0.53525 0.0
O155 O 0.69949 0.71312 0.5865 0.0
H156 H 0.04805 0.28013 0.98923 0.0
H157 H 0.15421 0.38877 0.02657 0.0
H158 H 0.09035 0.26981 0.94711 0.0
H159 H 0.19612 0.37852 0.98457 0.0
H160 H 0.25929 0.36702 0.89222 0.0
H161 H 0.20686 0.37668 0.91968 0.0
H162 H 0.14655 0.25216 0.95543 0.0
H163 H 0.19886 0.24233 0.92806 0.0
C164 C 0.08027 0.30201 0.98817 0.0
C165 C 0.09794 0.33505 0.01136 0.0
C166 C 0.10439 0.29607 0.96413 0.0
C167 C 0.14639 0.32347 0.96253 0.0
C168 C 0.16372 0.35724 0.98491 0.0
C169 C 0.13979 0.36287 0.00919 0.0
C170 C 0.23432 0.34138 0.90518 0.0
C171 C 0.23354 0.3041 0.90848 0.0
C172 C 0.20445 0.34701 0.921 0.0
C173 C 0.17305 0.31533 0.94002 0.0
C174 C 0.17037 0.27705 0.94083 0.0
C175 C 0.20044 0.27151 0.92529 0.0
H176 H 0.68504 0.77378 0.96762 0.0
H177 H 0.58413 0.77091 0.02194 0.0
H178 H 0.6896 0.82789 0.93002 0.0
H179 H 0.58878 0.82474 0.98456 0.0
H180 H 0.58877 0.90555 0.9018 0.0
H181 H 0.5812 0.84155 0.9231 0.0
H182 H 0.71033 0.90097 0.94244 0.0
H183 H 0.71808 0.96489 0.92101 0.0
C184 C 0.66356 0.78433 0.97125 0.0
C185 C 0.63449 0.76842 0.99793 0.0
C186 C 0.66622 0.81529 0.94978 0.0
C187 C 0.6395 0.83042 0.95434 0.0
C188 C 0.60943 0.81331 0.98012 0.0
C189 C 0.60704 0.78275 0.00177 0.0
C190 C 0.6157 0.90477 0.90981 0.0
C191 C 0.65392 0.94044 0.91032 0.0
C192 C 0.61129 0.86816 0.92213 0.0
C193 C 0.64507 0.86649 0.93487 0.0
C194 C 0.68377 0.90133 0.93267 0.0
C195 C 0.68815 0.938 0.92058 0.0
H196 H 0.214 0.8337 0.02749 0.0
H197 H 0.20734 0.93428 0.9818 0.0
H198 H 0.16593 0.78775 0.98454 0.0
H199 H 0.1589 0.88794 0.93866 0.0
H200 H 0.02746 0.77426 0.91605 0.0
H201 H 0.08634 0.82977 0.9447 0.0
H202 H 0.1571 0.77259 0.92035 0.0
H203 H 0.0982 0.71688 0.89171 0.0
C204 C 0.20254 0.84606 0.00806 0.0
C205 C 0.21412 0.8875 0.00819 0.0
C206 C 0.17533 0.81981 0.98324 0.0
C207 C 0.15881 0.83435 0.95823 0.0
C208 C 0.17116 0.87599 0.95774 0.0
C209 C 0.19886 0.90244 0.98237 0.0
C210 C 0.05582 0.77396 0.91612 0.0
C211 C 0.05802 0.74087 0.90213 0.0
C212 C 0.08959 0.80588 0.93235 0.0
C213 C 0.12607 0.80516 0.93508 0.0
C214 C 0.12913 0.77356 0.91895 0.0
C215 C 0.09545 0.74179 0.90244 0.0
H216 H 0.72711 0.78942 0.57596 0.0
H217 H 0.59687 0.71649 0.58844 0.0
H218 H 0.719 0.8434 0.5496 0.0
H219 H 0.58892 0.77057 0.56201 0.0
H220 H 0.59787 0.84138 0.45916 0.0
H221 H 0.60165 0.79367 0.49918 0.0
H222 H 0.69413 0.89412 0.55833 0.0
H223 H 0.69027 0.94217 0.51823 0.0
C224 C 0.69684 0.78526 0.57375 0.0
C225 C 0.66259 0.74848 0.58383 0.0
C226 C 0.69224 0.81627 0.55883 0.0
C227 C 0.6533 0.81091 0.55346 0.0
C228 C 0.61924 0.77522 0.56554 0.0
C229 C 0.62386 0.74438 0.58079 0.0
C230 C 0.61871 0.85333 0.4809 0.0
C231 C 0.64398 0.89547 0.48545 0.0
C232 C 0.6206 0.82602 0.50399 0.0
C233 C 0.64813 0.84026 0.53187 0.0
C234 C 0.67273 0.88241 0.53697 0.0
C235 C 0.67043 0.90982 0.5141 0.0
H236 H 0.16649 0.75802 0.47227 0.0
H237 H 0.06552 0.756 0.52577 0.0
H238 H 0.21378 0.81248 0.51035 0.0
H239 H 0.11311 0.81067 0.56399 0.0
H240 H 0.21694 0.94815 0.57799 0.0
H241 H 0.16385 0.8847 0.55284 0.0
H242 H 0.23632 0.82822 0.57262 0.0
H243 H 0.28962 0.89173 0.59774 0.0
C244 C 0.15439 0.76893 0.49239 0.0
C245 C 0.11231 0.75298 0.49585 0.0
C246 C 0.18147 0.79987 0.51439 0.0
C247 C 0.16707 0.81573 0.54013 0.0
C248 C 0.12497 0.79908 0.54424 0.0
C249 C 0.0978 0.76777 0.52242 0.0
C250 C 0.22125 0.92199 0.5776 0.0
C251 C 0.25769 0.9251 0.58943 0.0
C252 C 0.19073 0.88559 0.56336 0.0
C253 C 0.19621 0.85172 0.56048 0.0
C254 C 0.23159 0.85408 0.57416 0.0
C255 C 0.26198 0.89038 0.58868 0.0
H256 H 0.04024 0.24419 0.60936 0.0
H257 H 0.09669 0.37472 0.59847 0.0
H258 H 0.09726 0.24571 0.57905 0.0
H259 H 0.15266 0.37611 0.56702 0.0
H260 H 0.25325 0.37144 0.51236 0.0
H261 H 0.20994 0.36708 0.56082 0.0
H262 H 0.11261 0.25458 0.51883 0.0
H263 H 0.1562 0.25824 0.47138 0.0
C264 C 0.06526 0.27331 0.60114 0.0
C265 C 0.06364 0.30922 0.60566 0.0
C266 C 0.09776 0.27415 0.58354 0.0
C267 C 0.12899 0.31085 0.56973 0.0
C268 C 0.12923 0.34727 0.57729 0.0
C269 C 0.09697 0.34648 0.59529 0.0
C270 C 0.22274 0.34553 0.51379 0.0
C271 C 0.20794 0.31542 0.48784 0.0
C272 C 0.19792 0.34307 0.54153 0.0
C273 C 0.15772 0.31058 0.54373 0.0
C274 C 0.1436 0.27969 0.51842 0.0
C275 C 0.16848 0.28199 0.4909 0.0
H276 H 0.67801 0.59626 0.06175 0.0
H277 H 0.74165 0.72749 0.07015 0.0
H278 H 0.73525 0.60004 0.03025 0.0
H279 H 0.79945 0.73119 0.0395 0.0
H280 H 0.85963 0.72243 0.9386 0.0
H281 H 0.81028 0.72064 0.97973 0.0
H282 H 0.80533 0.61662 0.03047 0.0
H283 H 0.85402 0.61774 0.98861 0.0
C284 C 0.70462 0.62587 0.05763 0.0
C285 C 0.70505 0.66161 0.06801 0.0
C286 C 0.73755 0.62803 0.03966 0.0
C287 C 0.77169 0.66597 0.03189 0.0
C288 C 0.7732 0.70155 0.04437 0.0
C289 C 0.7402 0.6994 0.06217 0.0
C290 C 0.84821 0.6993 0.95863 0.0
C291 C 0.86051 0.67006 0.96019 0.0
C292 C 0.82016 0.69849 0.98244 0.0
C293 C 0.80391 0.66854 0.00848 0.0
C294 C 0.81692 0.63981 0.0105 0.0
C295 C 0.8449 0.64053 0.98657 0.0
H296 H 0.36459 0.21042 0.98457 0.0
H297 H 0.25971 0.20556 0.03307 0.0
H298 H 0.36305 0.16226 0.02717 0.0
H299 H 0.25814 0.15699 0.07577 0.0
H300 H 0.23918 0.02394 0.09551 0.0
H301 H 0.24247 0.08371 0.06867 0.0
H302 H 0.3708 0.15352 0.09143 0.0
H303 H 0.36769 0.09381 0.11832 0.0
C304 C 0.34145 0.19935 0.00455 0.0
C305 C 0.31205 0.21144 0.00531 0.0
C306 C 0.34082 0.1721 0.02915 0.0
C307 C 0.31053 0.15603 0.05481 0.0
C308 C 0.28175 0.16892 0.0562 0.0
C309 C 0.28271 0.19669 0.03182 0.0
C310 C 0.26788 0.05231 0.09562 0.0
C311 C 0.30331 0.05397 0.1085 0.0
C312 C 0.26971 0.08658 0.08039 0.0
C313 C 0.30701 0.123 0.07757 0.0
C314 C 0.34177 0.12559 0.0929 0.0
C315 C 0.33989 0.09143 0.10843 0.0
H316 H 0.96452 0.24112 0.1021 0.0
H317 H 0.89731 0.3046 0.09014 0.0
H318 H 0.9091 0.18102 0.07474 0.0
H319 H 0.84265 0.24518 0.06186 0.0
H320 H 0.74254 0.12965 0.01904 0.0
H321 H 0.78907 0.17582 0.06285 0.0
H322 H 0.88763 0.16729 0.01537 0.0
H323 H 0.84091 0.12021 0.97236 0.0
C324 C 0.93762 0.24201 0.0942 0.0
C325 C 0.93557 0.27784 0.09776 0.0
C326 C 0.90599 0.20766 0.0783 0.0
C327 C 0.87179 0.20853 0.06548 0.0
C328 C 0.86841 0.2433 0.07157 0.0
C329 C 0.8999 0.27753 0.08769 0.0
C330 C 0.77406 0.13723 0.01826 0.0
C331 C 0.78821 0.12172 0.99198 0.0
C332 C 0.80072 0.16377 0.04332 0.0
C333 C 0.84214 0.17555 0.04249 0.0
C334 C 0.85583 0.15848 0.01712 0.0
C335 C 0.8291 0.13171 0.99222 0.0
H336 H 0.27228 0.06035 0.4724 0.0
H337 H 0.37095 0.15797 0.52939 0.0
H338 H 0.27381 0.10994 0.43075 0.0
H339 H 0.37248 0.20706 0.48794 0.0
H340 H 0.38809 0.28528 0.39784 0.0
H341 H 0.38778 0.22695 0.42477 0.0
H342 H 0.25741 0.16729 0.43588 0.0
H343 H 0.25751 0.22546 0.40888 0.0
C344 C 0.29442 0.09229 0.47589 0.0
C345 C 0.32129 0.10535 0.50428 0.0
C346 C 0.29528 0.12057 0.45208 0.0
C347 C 0.32348 0.16223 0.45599 0.0
C348 C 0.35087 0.17506 0.48395 0.0
C349 C 0.34966 0.14697 0.50792 0.0
C350 C 0.35921 0.2593 0.40513 0.0
C351 C 0.3229 0.26031 0.40184 0.0
C352 C 0.35911 0.22601 0.42071 0.0
C353 C 0.32267 0.19301 0.43293 0.0
C354 C 0.28594 0.19233 0.42668 0.0
C355 C 0.28605 0.22574 0.41134 0.0
H356 H 0.86967 0.15563 0.55097 0.0
H357 H 0.91126 0.23894 0.46419 0.0
H358 H 0.82904 0.09933 0.51176 0.0
H359 H 0.86998 0.18217 0.4248 0.0
H360 H 0.73758 0.07602 0.38978 0.0
H361 H 0.79237 0.1355 0.41863 0.0
H362 H 0.83762 0.0605 0.46124 0.0
H363 H 0.78295 0.00093 0.43236 0.0
C364 C 0.87029 0.16188 0.52348 0.0
C365 C 0.89345 0.20171 0.51066 0.0
C366 C 0.84734 0.12956 0.50099 0.0
C367 C 0.84664 0.13642 0.46526 0.0
C368 C 0.87011 0.17616 0.45227 0.0
C369 C 0.89366 0.20852 0.47477 0.0
C370 C 0.75979 0.0724 0.40461 0.0
C371 C 0.75565 0.03372 0.40919 0.0
C372 C 0.79124 0.10649 0.42097 0.0
C373 C 0.81884 0.10239 0.44245 0.0
C374 C 0.81641 0.06429 0.44508 0.0
C375 C 0.78524 0.03028 0.4284 0.0
H376 H 0.89642 0.59764 0.42542 0.0
H377 H 0.97857 0.72739 0.4177 0.0
H378 H 0.84691 0.61011 0.45452 0.0
H379 H 0.92854 0.73985 0.44612 0.0
H380 H 0.86007 0.73832 0.54663 0.0
H381 H 0.90502 0.7314 0.50565 0.0
H382 H 0.80086 0.63655 0.45164 0.0
H383 H 0.75591 0.64277 0.49311 0.0
C384 C 0.90352 0.62883 0.42914 0.0
C385 C 0.94166 0.66149 0.41971 0.0
C386 C 0.87504 0.63601 0.44572 0.0
C387 C 0.88403 0.67601 0.45307 0.0
C388 C 0.92106 0.70869 0.44146 0.0
C389 C 0.9496 0.70152 0.42496 0.0
C390 C 0.84675 0.71631 0.5258 0.0
C391 C 0.80448 0.69078 0.52338 0.0
C392 C 0.8725 0.71253 0.50212 0.0
C393 C 0.8565 0.68327 0.47545 0.0
C394 C 0.81414 0.65895 0.47219 0.0
C395 C 0.78841 0.66262 0.49592 0.0
H396 H 0.22969 0.39832 0.34568 0.0
H397 H 0.30182 0.38093 0.26813 0.0
H398 H 0.19363 0.41189 0.30014 0.0
H399 H 0.26509 0.39372 0.2225 0.0
H400 H 0.21214 0.44768 0.14868 0.0
H401 H 0.25317 0.44559 0.1965 0.0
H402 H 0.14406 0.37201 0.25594 0.0
H403 H 0.10314 0.37472 0.20855 0.0
C404 C 0.23796 0.3975 0.31891 0.0
C405 C 0.26847 0.38825 0.31051 0.0
C406 C 0.21715 0.40513 0.29281 0.0
C407 C 0.22631 0.40366 0.2577 0.0
C408 C 0.2576 0.39554 0.24932 0.0
C409 C 0.27848 0.38794 0.27546 0.0
C410 C 0.19694 0.43154 0.17215 0.0
C411 C 0.15434 0.41116 0.17472 0.0
C412 C 0.22046 0.43011 0.19943 0.0
C413 C 0.20188 0.40837 0.2299 0.0
C414 C 0.15938 0.38936 0.23297 0.0
C415 C 0.13588 0.39076 0.20571 0.0
H416 H 0.63435 0.75133 0.18731 0.0
H417 H 0.51378 0.72693 0.16022 0.0
H418 H 0.63541 0.79252 0.23629 0.0
H419 H 0.51501 0.76831 0.20942 0.0
H420 H 0.52264 0.81224 0.32443 0.0
H421 H 0.51761 0.76898 0.2754 0.0
H422 H 0.63762 0.85984 0.2418 0.0
H423 H 0.6428 0.90306 0.29063 0.0
C424 C 0.60792 0.75443 0.19196 0.0
C425 C 0.57404 0.73599 0.16976 0.0
C426 C 0.60869 0.77828 0.21986 0.0
C427 C 0.57548 0.78394 0.22639 0.0
C428 C 0.54099 0.76437 0.20499 0.0
C429 C 0.54035 0.74077 0.17682 0.0
C430 C 0.5478 0.82312 0.30641 0.0
C431 C 0.58319 0.861 0.31151 0.0
C432 C 0.54485 0.79839 0.27833 0.0
C433 C 0.57739 0.81091 0.25505 0.0
C434 C 0.61233 0.84918 0.25967 0.0
C435 C 0.61513 0.87404 0.2875 0.0
H436 H 0.21032 0.78037 0.14721 0.0
H437 H 0.26713 0.88834 0.21143 0.0
H438 H 0.18162 0.73841 0.19894 0.0
H439 H 0.23842 0.84629 0.26304 0.0
H440 H 0.20661 0.75572 0.3509 0.0
H441 H 0.24161 0.79145 0.29802 0.0
H442 H 0.12802 0.73124 0.24193 0.0
H443 H 0.09289 0.69547 0.29473 0.0
C444 C 0.21706 0.79511 0.17236 0.0
C445 C 0.24078 0.8377 0.17524 0.0
C446 C 0.20048 0.77108 0.20192 0.0
C447 C 0.20774 0.78913 0.23492 0.0
C448 C 0.23265 0.83155 0.23792 0.0
C449 C 0.24886 0.85563 0.20836 0.0
C450 C 0.18917 0.74964 0.32719 0.0
C451 C 0.14692 0.723 0.32704 0.0
C452 C 0.20921 0.77027 0.297 0.0
C453 C 0.18747 0.76427 0.266 0.0
C454 C 0.14556 0.73622 0.26544 0.0
C455 C 0.12544 0.71591 0.2957 0.0
H456 H 0.79744 0.54767 0.82658 0.0
H457 H 0.90091 0.66119 0.79358 0.0
H458 H 0.75913 0.54919 0.77614 0.0
H459 H 0.86262 0.66251 0.74335 0.0
H460 H 0.76519 0.6775 0.68652 0.0
H461 H 0.80212 0.67196 0.73596 0.0
H462 H 0.75939 0.54609 0.71029 0.0
H463 H 0.72222 0.55148 0.66065 0.0
C464 C 0.81214 0.5727 0.80842 0.0
C465 C 0.85214 0.60442 0.81419 0.0
C466 C 0.79023 0.57349 0.77953 0.0
C467 C 0.80778 0.60619 0.75609 0.0
C468 C 0.84813 0.63726 0.76133 0.0
C469 C 0.87013 0.63631 0.78997 0.0
C470 C 0.7634 0.64854 0.69149 0.0
C471 C 0.74086 0.61495 0.66958 0.0
C472 C 0.78481 0.64548 0.71966 0.0
C473 C 0.78391 0.6087 0.72674 0.0
C474 C 0.76051 0.57477 0.70546 0.0
C475 C 0.73935 0.57792 0.67702 0.0
H476 H 0.43811 0.25274 0.83933 0.0
H477 H 0.31574 0.21991 0.80951 0.0
H478 H 0.44298 0.21678 0.78843 0.0
H479 H 0.32079 0.1843 0.75889 0.0
H480 H 0.32526 0.08422 0.69816 0.0
H481 H 0.32508 0.12111 0.74982 0.0
H482 H 0.4434 0.22092 0.7225 0.0
H483 H 0.44381 0.18394 0.6706 0.0
C484 C 0.4124 0.23813 0.82184 0.0
C485 C 0.37647 0.23901 0.82856 0.0
C486 C 0.41526 0.21766 0.7927 0.0
C487 C 0.38211 0.19742 0.76997 0.0
C488 C 0.34657 0.19907 0.77631 0.0
C489 C 0.34382 0.21973 0.8052 0.0
C490 C 0.35145 0.11386 0.70324 0.0
C491 C 0.38443 0.13128 0.68011 0.0
C492 C 0.35119 0.13508 0.73274 0.0
C493 C 0.38401 0.17405 0.73991 0.0
C494 C 0.41775 0.19087 0.7176 0.0
C495 C 0.41789 0.16974 0.68786 0.0
H496 H 0.76078 0.16765 0.84889 0.0
H497 H 0.68553 0.07061 0.77774 0.0
H498 H 0.79963 0.21028 0.80024 0.0
H499 H 0.72498 0.11309 0.72909 0.0
H500 H 0.7863 0.20944 0.64641 0.0
H501 H 0.74248 0.17486 0.69591 0.0
H502 H 0.84843 0.20956 0.75971 0.0
H503 H 0.8922 0.24469 0.71054 0.0
C504 C 0.75235 0.15547 0.82285 0.0
C505 C 0.72027 0.11558 0.81719 0.0
C506 C 0.77475 0.17988 0.795 0.0
C507 C 0.7656 0.16496 0.76086 0.0
C508 C 0.73255 0.12562 0.75508 0.0
C509 C 0.71008 0.10118 0.78297 0.0
C510 C 0.80025 0.21013 0.67112 0.0
C511 C 0.84274 0.22957 0.6745 0.0
C512 C 0.77512 0.19011 0.6994 0.0
C513 C 0.79197 0.18925 0.73163 0.0
C514 C 0.83448 0.21002 0.73531 0.0
C515 C 0.85959 0.22998 0.70706 0.0
H516 H 0.00372 0.45081 0.08125 0.0
H517 H 0.08538 0.47326 0.99534 0.0
H518 H 0.9722 0.48328 0.04928 0.0
H519 H 0.05295 0.50417 0.96291 0.0
H520 H 0.01232 0.593 0.92806 0.0
H521 H 0.04503 0.56201 0.95994 0.0
H522 H 0.92848 0.47146 0.00085 0.0
H523 H 0.89591 0.50358 0.9699 0.0
C524 C 0.01502 0.46279 0.05559 0.0
C525 C 0.0471 0.45954 0.04088 0.0
C526 C -0.00334 0.481 0.03709 0.0
C527 C 0.00976 0.49605 0.00335 0.0
C528 C 0.04236 0.4934 0.98896 0.0
C529 C 0.06094 0.47556 0.00757 0.0
C530 C -0.00644 0.56624 0.94359 0.0
C531 C 0.95149 0.55079 0.9465 0.0
C532 C 0.01236 0.54838 0.96185 0.0
C533 C 0.98948 0.51435 0.98318 0.0
C534 C 0.94718 0.49816 0.98525 0.0
C535 C 0.92841 0.51629 0.96723 0.0
H536 H 0.50502 0.60538 0.98482 0.0
H537 H 0.52893 0.55608 0.07716 0.0
H538 H 0.4707 0.53797 0.95885 0.0
H539 H 0.49316 0.48817 0.05164 0.0
H540 H 0.46833 0.3817 0.98134 0.0
H541 H 0.50222 0.44963 0.00695 0.0
H542 H 0.41161 0.47286 0.96174 0.0
H543 H 0.37877 0.40575 0.93516 0.0
C544 C 0.50233 0.58002 -0.00015 0.0
C545 C 0.51981 0.58611 0.03302 0.0
C546 C 0.48252 0.54127 0.98496 0.0
C547 C 0.47937 0.50762 0.00304 0.0
C548 C 0.49576 0.51354 0.0367 0.0
C549 C 0.5159 0.55239 0.05149 0.0
C550 C 0.45591 0.4015 0.97664 0.0
C551 C 0.42097 0.3884 0.95616 0.0
C552 C 0.47508 0.44028 0.9916 0.0
C553 C 0.45948 0.46665 0.98663 0.0
C554 C 0.42479 0.45361 0.96576 0.0
C555 C 0.40588 0.41504 0.95056 0.0
H556 H 0.40707 0.01619 0.06988 0.0
H557 H 0.38661 0.90065 0.03055 0.0
H558 H 0.47282 0.05066 0.04129 0.0
H559 H 0.45322 0.93504 0.00289 0.0
H560 H 0.55591 0.01195 0.92906 0.0
H561 H 0.48877 0.98003 0.95563 0.0
H562 H 0.53911 0.05924 0.0447 0.0
H563 H 0.60578 0.09203 0.01765 0.0
C564 C 0.41685 -0.00195 0.05549 0.0
C565 C 0.39165 0.95566 0.05249 0.0
C566 C 0.45463 0.01784 0.03915 0.0
C567 C 0.46829 -0.00433 0.0197 0.0
C568 C 0.44331 0.95315 0.01714 0.0
C569 C 0.4053 0.93336 0.03325 0.0
C570 C 0.5525 0.02288 0.95412 0.0
C571 C 0.58616 0.05448 0.97128 0.0
C572 C 0.51411 0.00431 0.96951 0.0
C573 C 0.50861 0.01677 0.00247 0.0
C574 C 0.54213 0.04915 0.01915 0.0
C575 C 0.58043 0.06791 0.00365 0.0
H576 H 0.58132 0.02539 0.42647 0.0
H577 H 0.48928 0.90574 0.46045 0.0
H578 H 0.54837 0.0557 0.45913 0.0
H579 H 0.45534 0.93592 0.49209 0.0
H580 H 0.42812 0.00335 0.57475 0.0
H581 H 0.4641 0.9756 0.54276 0.0
H582 H 0.4902 0.0633 0.46095 0.0
H583 H 0.45566 0.09197 0.49353 0.0
C584 C 0.55363 0.00547 0.44044 0.0
C585 C 0.53794 0.96315 0.44094 0.0
C586 C 0.53467 0.02287 0.45914 0.0
C587 C 0.49934 -0.00169 0.4785 0.0
C588 C 0.48301 0.95584 0.47812 0.0
C589 C 0.50221 0.93848 0.45969 0.0
C590 C 0.44201 0.01701 0.55014 0.0
C591 C 0.43902 0.04983 0.53666 0.0
C592 C 0.46226 0.00084 0.53161 0.0
C593 C 0.47964 0.01687 0.49905 0.0
C594 C 0.47756 0.05042 0.48607 0.0
C595 C 0.45765 0.06684 0.50475 0.0
H596 H 0.8936 0.37189 0.53018 0.0
H597 H 0.01258 0.39517 0.56156 0.0
H598 H 0.92474 0.43803 0.50129 0.0
H599 H 0.04363 0.46012 0.53174 0.0
H600 H 0.0839 0.59169 0.50738 0.0
H601 H 0.05199 0.52594 0.53612 0.0
H602 H 0.96537 0.47407 0.45206 0.0
H603 H -0.00351 0.54052 0.4239 0.0
C604 C 0.92635 0.39106 0.53084 0.0
C605 C 0.95056 0.3784 0.54833 0.0
C606 C 0.94425 0.4288 0.51405 0.0
C607 C 0.98673 0.45445 0.51417 0.0
C608 C 0.01081 0.44157 0.53163 0.0
C609 C -0.00705 0.40416 0.54865 0.0
C610 C 0.05822 0.56623 0.49488 0.0
C611 C 0.04277 0.57131 0.46333 0.0
C612 C 0.03995 0.52842 0.51132 0.0
C613 C 0.00606 0.49462 0.49643 0.0
C614 C -0.009 0.49958 0.46455 0.0
C615 C 0.00907 0.53757 0.44824 0.0
H616 H 0.42643 0.41154 0.437 0.0
H617 H 0.39814 0.50352 0.46997 0.0
H618 H 0.49209 0.44835 0.4656 0.0
H619 H 0.46464 0.54127 0.49758 0.0
H620 H 0.56726 0.57632 0.57455 0.0
H621 H 0.50104 0.53721 0.54675 0.0
H622 H 0.55669 0.50821 0.4619 0.0
H623 H 0.62243 0.54595 0.49026 0.0
C624 C 0.43448 0.43998 0.44991 0.0
C625 C 0.40705 0.4546 0.45127 0.0
C626 C 0.47224 0.46116 0.46626 0.0
C627 C 0.48362 0.49769 0.48407 0.0
C628 C 0.45652 0.5128 0.4847 0.0
C629 C 0.41857 0.4914 0.46858 0.0
C630 C 0.56523 0.56118 0.55016 0.0
C631 C 0.60008 0.56422 0.53462 0.0
C632 C 0.52735 0.53912 0.53404 0.0
C633 C 0.52357 0.51987 0.50191 0.0
C634 C 0.55836 0.52224 0.4868 0.0
C635 C 0.59613 0.544 0.50304 0.0
loop_
_geom_bond_atom_site_label_1
_geom_bond_atom_site_label_2
_geom_bond_distance
_geom_bond_site_symmetry_2
_ccdc_geom_bond_type
C0 O1 1.160 . S
C0 O7 1.185 . S
O1 C0 1.160 . S
O2 Zn3 1.899 . S
O2 C10 1.284 . S
Zn3 O2 1.899 . S
Zn3 O4 2.032 . S
Zn3 O7 2.086 . S
Zn3 O12 1.977 1_455 S
O4 Zn3 2.032 . S
O4 C8 1.278 . S
C5 O6 1.203 . S
C5 O12 1.267 . S
O6 C5 1.203 . S
O7 C0 1.185 . S
O7 Zn3 2.086 . S
C8 O4 1.278 . S
C8 O9 1.211 . S
O9 C8 1.211 . S
C10 O2 1.284 . S
C10 O11 1.273 . S
O11 C10 1.273 . S
O12 Zn3 1.977 1_655 S
O12 C5 1.267 . S
C13 O14 1.160 . S
C13 O20 1.185 . S
O14 C13 1.160 . S
O15 Zn16 1.899 . S
O15 C23 1.284 . S
Zn16 O15 1.899 . S
Zn16 O17 2.032 . S
Zn16 O20 2.086 . S
Zn16 O25 1.977 . S
O17 Zn16 2.032 . S
O17 C21 1.278 . S
C18 O19 1.203 . S
C18 O25 1.267 . S
O19 C18 1.203 . S
O20 C13 1.185 . S
O20 Zn16 2.086 . S
C21 O17 1.278 . S
C21 O22 1.211 . S
O22 C21 1.211 . S
C23 O15 1.284 . S
C23 O24 1.273 . S
O24 C23 1.273 . S
O25 Zn16 1.977 . S
O25 C18 1.267 . S
C26 O27 1.160 . S
C26 O33 1.185 . S
O27 C26 1.160 . S
O28 Zn29 1.899 . S
O28 C36 1.284 . S
Zn29 O28 1.899 . S
Zn29 O30 2.032 . S
Zn29 O33 2.086 . S
Zn29 O38 1.977 1_565 S
O30 Zn29 2.032 . S
O30 C34 1.278 . S
C31 O32 1.203 . S
C31 O38 1.267 . S
O32 C31 1.203 . S
O33 C26 1.185 . S
O33 Zn29 2.086 . S
C34 O30 1.278 . S
C34 O35 1.211 . S
O35 C34 1.211 . S
C36 O28 1.284 . S
C36 O37 1.273 . S
O37 C36 1.273 . S
O38 Zn29 1.977 1_545 S
O38 C31 1.267 . S
C39 O40 1.160 . S
C39 O46 1.185 . S
O40 C39 1.160 . S
O41 Zn42 1.899 . S
O41 C49 1.284 . S
Zn42 O41 1.899 . S
Zn42 O43 2.032 . S
Zn42 O46 2.086 . S
Zn42 O51 1.977 1_565 S
O43 Zn42 2.032 . S
O43 C47 1.278 . S
C44 O45 1.203 . S
C44 O51 1.267 . S
O45 C44 1.203 . S
O46 C39 1.185 . S
O46 Zn42 2.086 . S
C47 O43 1.278 . S
C47 O48 1.211 . S
O48 C47 1.211 . S
C49 O41 1.284 . S
C49 O50 1.273 . S
O50 C49 1.273 . S
O51 Zn42 1.977 1_545 S
O51 C44 1.267 . S
C52 O53 1.160 . S
C52 O59 1.185 . S
O53 C52 1.160 . S
O54 Zn55 1.899 . S
O54 C62 1.284 . S
Zn55 O54 1.899 . S
Zn55 O56 2.032 . S
Zn55 O59 2.086 . S
Zn55 O64 1.977 1_455 S
O56 Zn55 2.032 . S
O56 C60 1.278 . S
C57 O58 1.203 . S
C57 O64 1.267 . S
O58 C57 1.203 . S
O59 C52 1.185 . S
O59 Zn55 2.086 . S
C60 O56 1.278 . S
C60 O61 1.211 . S
O61 C60 1.211 . S
C62 O54 1.284 . S
C62 O63 1.273 . S
O63 C62 1.273 . S
O64 Zn55 1.977 1_655 S
O64 C57 1.267 . S
C65 O66 1.160 . S
C65 O72 1.185 . S
O66 C65 1.160 . S
O67 Zn68 1.899 . S
O67 C75 1.284 . S
Zn68 O67 1.899 . S
Zn68 O69 2.032 . S
Zn68 O72 2.086 . S
Zn68 O77 1.977 . S
O69 Zn68 2.032 . S
O69 C73 1.278 . S
C70 O71 1.203 . S
C70 O77 1.267 . S
O71 C70 1.203 . S
O72 C65 1.185 . S
O72 Zn68 2.086 . S
C73 O69 1.278 . S
C73 O74 1.211 . S
O74 C73 1.211 . S
C75 O67 1.284 . S
C75 O76 1.273 . S
O76 C75 1.273 . S
O77 Zn68 1.977 . S
O77 C70 1.267 . S
C78 O79 1.160 . S
C78 O85 1.185 . S
O79 C78 1.160 . S
O80 Zn81 1.899 . S
O80 C88 1.284 . S
Zn81 O80 1.899 . S
Zn81 O82 2.032 . S
Zn81 O85 2.086 . S
Zn81 O90 1.977 1_655 S
O82 Zn81 2.032 . S
O82 C86 1.278 . S
C83 O84 1.203 . S
C83 O90 1.267 . S
O84 C83 1.203 . S
O85 C78 1.185 . S
O85 Zn81 2.086 . S
C86 O82 1.278 . S
C86 O87 1.211 . S
O87 C86 1.211 . S
C88 O80 1.284 . S
C88 O89 1.273 . S
O89 C88 1.273 . S
O90 Zn81 1.977 1_455 S
O90 C83 1.267 . S
C91 O92 1.160 . S
C91 O98 1.185 . S
O92 C91 1.160 . S
O93 Zn94 1.899 . S
O93 C101 1.284 . S
Zn94 O93 1.899 . S
Zn94 O95 2.032 . S
Zn94 O98 2.086 . S
Zn94 O103 1.977 . S
O95 Zn94 2.032 . S
O95 C99 1.278 . S
C96 O97 1.203 . S
C96 O103 1.267 . S
O97 C96 1.203 . S
O98 C91 1.185 . S
O98 Zn94 2.086 . S
C99 O95 1.278 . S
C99 O100 1.211 . S
O100 C99 1.211 . S
C101 O93 1.284 . S
C101 O102 1.273 . S
O102 C101 1.273 . S
O103 Zn94 1.977 . S
O103 C96 1.267 . S
C104 O105 1.160 . S
C104 O111 1.185 . S
O105 C104 1.160 . S
O106 Zn107 1.899 . S
O106 C114 1.284 . S
Zn107 O106 1.899 . S
Zn107 O108 2.032 . S
Zn107 O111 2.086 . S
Zn107 O116 1.977 1_545 S
O108 Zn107 2.032 . S
O108 C112 1.278 . S
C109 O110 1.203 . S
C109 O116 1.267 . S
O110 C109 1.203 . S
O111 C104 1.185 . S
O111 Zn107 2.086 . S
C112 O108 1.278 . S
C112 O113 1.211 . S
O113 C112 1.211 . S
C114 O106 1.284 . S
C114 O115 1.273 . S
O115 C114 1.273 . S
O116 Zn107 1.977 1_565 S
O116 C109 1.267 . S
C117 O118 1.160 . S
C117 O124 1.185 . S
O118 C117 1.160 . S
O119 Zn120 1.899 . S
O119 C127 1.284 . S
Zn120 O119 1.899 . S
Zn120 O121 2.032 . S
Zn120 O124 2.086 . S
Zn120 O129 1.977 1_545 S
O121 Zn120 2.032 . S
O121 C125 1.278 . S
C122 O123 1.203 . S
C122 O129 1.267 . S
O123 C122 1.203 . S
O124 C117 1.185 . S
O124 Zn120 2.086 . S
C125 O121 1.278 . S
C125 O126 1.211 . S
O126 C125 1.211 . S
C127 O119 1.284 . S
C127 O128 1.273 . S
O128 C127 1.273 . S
O129 Zn120 1.977 1_565 S
O129 C122 1.267 . S
C130 O131 1.160 . S
C130 O137 1.185 . S
O131 C130 1.160 . S
O132 Zn133 1.899 . S
O132 C140 1.284 . S
Zn133 O132 1.899 . S
Zn133 O134 2.032 . S
Zn133 O137 2.086 . S
Zn133 O142 1.977 1_655 S
O134 Zn133 2.032 . S
O134 C138 1.278 . S
C135 O136 1.203 . S
C135 O142 1.267 . S
O136 C135 1.203 . S
O137 C130 1.185 . S
O137 Zn133 2.086 . S
C138 O134 1.278 . S
C138 O139 1.211 . S
O139 C138 1.211 . S
C140 O132 1.284 . S
C140 O141 1.273 . S
O141 C140 1.273 . S
O142 Zn133 1.977 1_455 S
O142 C135 1.267 . S
C143 O144 1.160 . S
C143 O150 1.185 . S
O144 C143 1.160 . S
O145 Zn146 1.899 . S
O145 C153 1.284 . S
Zn146 O145 1.899 . S
Zn146 O147 2.032 . S
Zn146 O150 2.086 . S
Zn146 O155 1.977 . S
O147 Zn146 2.032 . S
O147 C151 1.278 . S
C148 O149 1.203 . S
C148 O155 1.267 . S
O149 C148 1.203 . S
O150 C143 1.185 . S
O150 Zn146 2.086 . S
C151 O147 1.278 . S
C151 O152 1.211 . S
O152 C151 1.211 . S
C153 O145 1.284 . S
C153 O154 1.273 . S
O154 C153 1.273 . S
O155 Zn146 1.977 . S
O155 C148 1.267 . S
H156 C164 0.938 1_556 S
H157 C169 0.950 . S
H158 C166 0.950 . S
H159 C168 0.950 . S
H160 C170 0.950 . S
H161 C172 0.950 1_554 S
H162 C174 0.950 . S
H163 C175 0.950 . S
C164 H156 0.938 1_554 S
C164 C165 1.410 . S
C164 C166 1.379 1_554 S
C165 C164 1.410 . S
C165 C169 1.393 . S
C166 H158 0.950 . S
C166 C164 1.379 1_556 S
C166 C167 1.412 . S
C167 C166 1.412 . S
C167 C168 1.372 1_556 S
C167 C173 1.504 . S
C168 H159 0.950 . S
C168 C167 1.372 1_554 S
C168 C169 1.391 . S
C169 H157 0.950 . S
C169 C165 1.393 . S
C169 C168 1.391 . S
C170 H160 0.950 . S
C170 C171 1.386 . S
C170 C172 1.391 . S
C171 C170 1.386 . S
C171 C175 1.393 . S
C172 H161 0.950 1_556 S
C172 C170 1.391 . S
C172 C173 1.400 . S
C173 C167 1.504 . S
C173 C172 1.400 . S
C173 C174 1.398 . S
C174 H162 0.950 . S
C174 C173 1.398 . S
C174 C175 1.391 . S
C175 H163 0.950 . S
C175 C171 1.393 . S
C175 C174 1.391 . S
H176 C184 0.950 . S
H177 C189 0.950 . S
H178 C186 0.950 . S
H179 C188 0.950 1_556 S
H180 C190 0.950 . S
H181 C192 0.950 . S
H182 C194 0.950 . S
H183 C195 0.950 . S
C184 H176 0.950 . S
C184 C185 1.386 . S
C184 C186 1.391 . S
C185 C184 1.386 . S
C185 C189 1.393 . S
C186 H178 0.950 . S
C186 C184 1.391 . S
C186 C187 1.400 1_554 S
C187 C186 1.400 1_556 S
C187 C188 1.398 1_556 S
C187 C193 1.491 . S
C188 H179 0.950 1_554 S
C188 C187 1.398 1_554 S
C188 C189 1.391 . S
C189 H177 0.950 . S
C189 C185 1.393 . S
C189 C188 1.391 . S
C190 H180 0.950 . S
C190 C191 1.386 . S
C190 C192 1.391 . S
C191 C190 1.386 . S
C191 C195 1.393 . S
C192 H181 0.950 . S
C192 C190 1.391 . S
C192 C193 1.400 . S
C193 C187 1.491 . S
C193 C192 1.400 . S
C193 C194 1.398 . S
C194 H182 0.950 . S
C194 C193 1.398 . S
C194 C195 1.391 . S
C195 H183 0.950 . S
C195 C191 1.393 . S
C195 C194 1.391 . S
H196 C204 0.950 . S
H197 C209 0.950 . S
H198 C206 0.950 . S
H199 C208 0.950 1_556 S
H200 C210 0.950 . S
H201 C212 0.950 . S
H202 C214 0.950 . S
H203 C215 0.950 . S
C204 H196 0.950 . S
C204 C205 1.386 . S
C204 C206 1.391 . S
C205 C204 1.386 . S
C205 C209 1.393 . S
C206 H198 0.950 . S
C206 C204 1.391 . S
C206 C207 1.395 1_554 S
C207 C206 1.395 1_556 S
C207 C208 1.396 1_556 S
C207 C213 1.498 . S
C208 H199 0.950 1_554 S
C208 C207 1.396 1_554 S
C208 C209 1.391 . S
C209 H197 0.950 . S
C209 C205 1.393 . S
C209 C208 1.391 . S
C210 H200 0.950 . S
C210 C211 1.386 . S
C210 C212 1.391 . S
C211 C210 1.386 . S
C211 C215 1.393 . S
C212 H201 0.950 . S
C212 C210 1.391 . S
C212 C213 1.400 . S
C213 C207 1.498 . S
C213 C212 1.400 . S
C213 C214 1.398 . S
C214 H202 0.950 . S
C214 C213 1.398 . S
C214 C215 1.391 . S
C215 H203 0.950 . S
C215 C211 1.393 . S
C215 C214 1.391 . S
H216 C224 0.950 . S
H217 C229 0.950 . S
H218 C226 0.950 . S
H219 C228 0.950 . S
H220 C230 0.950 . S
H221 C232 0.950 . S
H222 C234 0.950 . S
H223 C235 0.950 . S
C224 H216 0.950 . S
C224 C225 1.386 . S
C224 C226 1.391 . S
C225 C224 1.386 . S
C225 C229 1.393 . S
C226 H218 0.950 . S
C226 C224 1.391 . S
C226 C227 1.400 . S
C227 C226 1.400 . S
C227 C228 1.398 . S
C227 C233 1.491 . S
C228 H219 0.950 . S
C228 C227 1.398 . S
C228 C229 1.391 . S
C229 H217 0.950 . S
C229 C225 1.393 . S
C229 C228 1.391 . S
C230 H220 0.950 . S
C230 C231 1.386 . S
C230 C232 1.391 . S
C231 C230 1.386 . S
C231 C235 1.393 . S
C232 H221 0.950 . S
C232 C230 1.391 . S
C232 C233 1.400 . S
C233 C227 1.491 . S
C233 C232 1.400 . S
C233 C234 1.398 . S
C234 H222 0.950 . S
C234 C233 1.398 . S
C234 C235 1.391 . S
C235 H223 0.950 . S
C235 C231 1.393 . S
C235 C234 1.391 . S
H236 C244 0.950 . S
H237 C249 0.950 . S
H238 C246 0.950 . S
H239 C248 0.950 . S
H240 C250 0.950 . S
H241 C252 0.950 . S
H242 C254 0.950 . S
H243 C255 0.950 . S
C244 H236 0.950 . S
C244 C245 1.386 . S
C244 C246 1.391 . S
C245 C244 1.386 . S
C245 C249 1.393 . S
C246 H238 0.950 . S
C246 C244 1.391 . S
C246 C247 1.400 . S
C247 C246 1.400 . S
C247 C248 1.398 . S
C247 C253 1.491 . S
C248 H239 0.950 . S
C248 C247 1.398 . S
C248 C249 1.391 . S
C249 H237 0.950 . S
C249 C245 1.393 . S
C249 C248 1.391 . S
C250 H240 0.950 . S
C250 C251 1.386 . S
C250 C252 1.391 . S
C251 C250 1.386 . S
C251 C255 1.393 . S
C252 H241 0.950 . S
C252 C250 1.391 . S
C252 C253 1.400 . S
C253 C247 1.491 . S
C253 C252 1.400 . S
C253 C254 1.398 . S
C254 H242 0.950 . S
C254 C253 1.398 . S
C254 C255 1.391 . S
C255 H243 0.950 . S
C255 C251 1.393 . S
C255 C254 1.391 . S
H256 C264 0.950 . S
H257 C269 0.950 . S
H258 C266 0.950 . S
H259 C268 0.950 . S
H260 C270 0.950 . S
H261 C272 0.950 . S
H262 C274 0.950 . S
H263 C275 0.950 . S
C264 H256 0.950 . S
C264 C265 1.386 . S
C264 C266 1.391 . S
C265 C264 1.386 . S
C265 C269 1.393 . S
C266 H258 0.950 . S
C266 C264 1.391 . S
C266 C267 1.400 . S
C267 C266 1.400 . S
C267 C268 1.398 . S
C267 C273 1.491 . S
C268 H259 0.950 . S
C268 C267 1.398 . S
C268 C269 1.391 . S
C269 H257 0.950 . S
C269 C265 1.393 . S
C269 C268 1.391 . S
C270 H260 0.950 . S
C270 C271 1.386 . S
C270 C272 1.391 . S
C271 C270 1.386 . S
C271 C275 1.393 . S
C272 H261 0.950 . S
C272 C270 1.391 . S
C272 C273 1.400 . S
C273 C267 1.491 . S
C273 C272 1.400 . S
C273 C274 1.398 . S
C274 H262 0.950 . S
C274 C273 1.398 . S
C274 C275 1.391 . S
C275 H263 0.950 . S
C275 C271 1.393 . S
C275 C274 1.391 . S
H276 C284 0.950 . S
H277 C289 0.950 . S
H278 C286 0.950 1_556 S
H279 C288 0.950 . S
H280 C290 0.948 . S
H281 C292 0.950 . S
H282 C294 0.950 . S
H283 C295 0.950 . S
C284 H276 0.950 . S
C284 C285 1.386 . S
C284 C286 1.391 . S
C285 C284 1.386 . S
C285 C289 1.393 . S
C286 H278 0.950 1_554 S
C286 C284 1.391 . S
C286 C287 1.400 . S
C287 C286 1.400 . S
C287 C288 1.398 . S
C287 C293 1.491 . S
C288 H279 0.950 . S
C288 C287 1.398 . S
C288 C289 1.391 . S
C289 H277 0.950 . S
C289 C285 1.393 . S
C289 C288 1.391 . S
C290 H280 0.948 . S
C290 C291 1.389 1_554 S
C290 C292 1.389 . S
C291 C290 1.389 1_556 S
C291 C295 1.393 . S
C292 H281 0.950 . S
C292 C290 1.389 . S
C292 C293 1.400 . S
C293 C287 1.491 . S
C293 C292 1.400 . S
C293 C294 1.398 1_554 S
C294 H282 0.950 . S
C294 C293 1.398 1_556 S
C294 C295 1.391 . S
C295 H283 0.950 . S
C295 C291 1.393 . S
C295 C294 1.391 . S
H296 C304 0.950 . S
H297 C309 0.952 . S
H298 C306 0.950 . S
H299 C308 0.950 . S
H300 C310 0.950 . S
H301 C312 0.950 . S
H302 C314 0.950 1_556 S
H303 C315 0.950 . S
C304 H296 0.950 . S
C304 C305 1.386 . S
C304 C306 1.391 . S
C305 C304 1.386 . S
C305 C309 1.393 . S
C306 H298 0.950 . S
C306 C304 1.391 . S
C306 C307 1.384 1_556 S
C307 C306 1.384 1_554 S
C307 C308 1.404 . S
C307 C313 1.501 . S
C308 H299 0.950 . S
C308 C307 1.404 . S
C308 C309 1.391 1_554 S
C309 H297 0.952 . S
C309 C305 1.393 . S
C309 C308 1.391 1_556 S
C310 H300 0.950 . S
C310 C311 1.386 . S
C310 C312 1.391 . S
C311 C310 1.386 . S
C311 C315 1.393 . S
C312 H301 0.950 . S
C312 C310 1.391 . S
C312 C313 1.400 . S
C313 C307 1.501 . S
C313 C312 1.400 . S
C313 C314 1.398 . S
C314 H302 0.950 1_554 S
C314 C313 1.398 . S
C314 C315 1.391 . S
C315 H303 0.950 . S
C315 C311 1.393 . S
C315 C314 1.391 . S
H316 C324 0.950 . S
H317 C329 0.950 . S
H318 C326 0.950 . S
H319 C328 0.950 1_556 S
H320 C330 0.950 . S
H321 C332 0.950 . S
H322 C334 0.950 . S
H323 C335 0.941 1_554 S
C324 H316 0.950 . S
C324 C325 1.386 . S
C324 C326 1.391 . S
C325 C324 1.386 . S
C325 C329 1.393 . S
C326 H318 0.950 . S
C326 C324 1.391 . S
C326 C327 1.400 . S
C327 C326 1.400 . S
C327 C328 1.398 . S
C327 C333 1.506 . S
C328 H319 0.950 1_554 S
C328 C327 1.398 . S
C328 C329 1.391 . S
C329 H317 0.950 . S
C329 C325 1.393 . S
C329 C328 1.391 . S
C330 H320 0.950 . S
C330 C331 1.386 . S
C330 C332 1.391 . S
C331 C330 1.386 . S
C331 C335 1.411 . S
C332 H321 0.950 . S
C332 C330 1.391 . S
C332 C333 1.370 1_556 S
C333 C327 1.506 . S
C333 C332 1.370 1_554 S
C333 C334 1.412 . S
C334 H322 0.950 . S
C334 C333 1.412 . S
C334 C335 1.382 1_554 S
C335 H323 0.941 1_556 S
C335 C331 1.411 . S
C335 C334 1.382 1_556 S
H336 C344 0.950 . S
H337 C349 0.950 . S
H338 C346 0.950 . S
H339 C348 0.950 . S
H340 C350 0.950 . S
H341 C352 0.950 . S
H342 C354 0.950 . S
H343 C355 0.950 . S
C344 H336 0.950 . S
C344 C345 1.386 . S
C344 C346 1.391 . S
C345 C344 1.386 . S
C345 C349 1.393 . S
C346 H338 0.950 . S
C346 C344 1.391 . S
C346 C347 1.400 . S
C347 C346 1.400 . S
C347 C348 1.398 . S
C347 C353 1.491 . S
C348 H339 0.950 . S
C348 C347 1.398 . S
C348 C349 1.391 . S
C349 H337 0.950 . S
C349 C345 1.393 . S
C349 C348 1.391 . S
C350 H340 0.950 . S
C350 C351 1.386 . S
C350 C352 1.391 . S
C351 C350 1.386 . S
C351 C355 1.393 . S
C352 H341 0.950 . S
C352 C350 1.391 . S
C352 C353 1.400 . S
C353 C347 1.491 . S
C353 C352 1.400 . S
C353 C354 1.398 . S
C354 H342 0.950 . S
C354 C353 1.398 . S
C354 C355 1.391 . S
C355 H343 0.950 . S
C355 C351 1.393 . S
C355 C354 1.391 . S
H356 C364 0.950 . S
H357 C369 0.950 . S
H358 C366 0.950 . S
H359 C368 0.950 . S
H360 C370 0.950 . S
H361 C372 0.950 . S
H362 C374 0.950 . S
H363 C375 0.950 . S
C364 H356 0.950 . S
C364 C365 1.386 . S
C364 C366 1.391 . S
C365 C364 1.386 . S
C365 C369 1.393 . S
C366 H358 0.950 . S
C366 C364 1.391 . S
C366 C367 1.400 . S
C367 C366 1.400 . S
C367 C368 1.398 . S
C367 C373 1.491 . S
C368 H359 0.950 . S
C368 C367 1.398 . S
C368 C369 1.391 . S
C369 H357 0.950 . S
C369 C365 1.393 . S
C369 C368 1.391 . S
C370 H360 0.950 . S
C370 C371 1.386 . S
C370 C372 1.391 . S
C371 C370 1.386 . S
C371 C375 1.393 . S
C372 H361 0.950 . S
C372 C370 1.391 . S
C372 C373 1.400 . S
C373 C367 1.491 . S
C373 C372 1.400 . S
C373 C374 1.398 . S
C374 H362 0.950 . S
C374 C373 1.398 . S
C374 C375 1.391 . S
C375 H363 0.950 . S
C375 C371 1.393 . S
C375 C374 1.391 . S
H376 C384 0.950 . S
H377 C389 0.950 . S
H378 C386 0.950 . S
H379 C388 0.950 . S
H380 C390 0.950 . S
H381 C392 0.950 . S
H382 C394 0.950 . S
H383 C395 0.950 . S
C384 H376 0.950 . S
C384 C385 1.386 . S
C384 C386 1.391 . S
C385 C384 1.386 . S
C385 C389 1.393 . S
C386 H378 0.950 . S
C386 C384 1.391 . S
C386 C387 1.400 . S
C387 C386 1.400 . S
C387 C388 1.398 . S
C387 C393 1.491 . S
C388 H379 0.950 . S
C388 C387 1.398 . S
C388 C389 1.391 . S
C389 H377 0.950 . S
C389 C385 1.393 . S
C389 C388 1.391 . S
C390 H380 0.950 . S
C390 C391 1.386 . S
C390 C392 1.391 . S
C391 C390 1.386 . S
C391 C395 1.393 . S
C392 H381 0.950 . S
C392 C390 1.391 . S
C392 C393 1.400 . S
C393 C387 1.491 . S
C393 C392 1.400 . S
C393 C394 1.398 . S
C394 H382 0.950 . S
C394 C393 1.398 . S
C394 C395 1.391 . S
C395 H383 0.950 . S
C395 C391 1.393 . S
C395 C394 1.391 . S
H396 C404 0.950 . S
H397 C409 0.950 . S
H398 C406 0.950 . S
H399 C408 0.950 . S
H400 C410 0.950 . S
H401 C412 0.950 . S
H402 C414 0.950 . S
H403 C415 0.950 . S
C404 H396 0.950 . S
C404 C405 1.386 . S
C404 C406 1.391 . S
C405 C404 1.386 . S
C405 C409 1.393 . S
C406 H398 0.950 . S
C406 C404 1.391 . S
C406 C407 1.400 . S
C407 C406 1.400 . S
C407 C408 1.398 . S
C407 C413 1.491 . S
C408 H399 0.950 . S
C408 C407 1.398 . S
C408 C409 1.391 . S
C409 H397 0.950 . S
C409 C405 1.393 . S
C409 C408 1.391 . S
C410 H400 0.950 . S
C410 C411 1.386 . S
C410 C412 1.391 . S
C411 C410 1.386 . S
C411 C415 1.393 . S
C412 H401 0.950 . S
C412 C410 1.391 . S
C412 C413 1.400 . S
C413 C407 1.491 . S
C413 C412 1.400 . S
C413 C414 1.398 . S
C414 H402 0.950 . S
C414 C413 1.398 . S
C414 C415 1.391 . S
C415 H403 0.950 . S
C415 C411 1.393 . S
C415 C414 1.391 . S
H416 C424 0.950 . S
H417 C429 0.950 . S
H418 C426 0.950 . S
H419 C428 0.950 . S
H420 C430 0.950 . S
H421 C432 0.950 . S
H422 C434 0.950 . S
H423 C435 0.950 . S
C424 H416 0.950 . S
C424 C425 1.386 . S
C424 C426 1.391 . S
C425 C424 1.386 . S
C425 C429 1.393 . S
C426 H418 0.950 . S
C426 C424 1.391 . S
C426 C427 1.400 . S
C427 C426 1.400 . S
C427 C428 1.398 . S
C427 C433 1.491 . S
C428 H419 0.950 . S
C428 C427 1.398 . S
C428 C429 1.391 . S
C429 H417 0.950 . S
C429 C425 1.393 . S
C429 C428 1.391 . S
C430 H420 0.950 . S
C430 C431 1.386 . S
C430 C432 1.391 . S
C431 C430 1.386 . S
C431 C435 1.393 . S
C432 H421 0.950 . S
C432 C430 1.391 . S
C432 C433 1.400 . S
C433 C427 1.491 . S
C433 C432 1.400 . S
C433 C434 1.398 . S
C434 H422 0.950 . S
C434 C433 1.398 . S
C434 C435 1.391 . S
C435 H423 0.950 . S
C435 C431 1.393 . S
C435 C434 1.391 . S
H436 C444 0.950 . S
H437 C449 0.950 . S
H438 C446 0.950 . S
H439 C448 0.950 . S
H440 C450 0.950 . S
H441 C452 0.950 . S
H442 C454 0.950 . S
H443 C455 0.950 . S
C444 H436 0.950 . S
C444 C445 1.386 . S
C444 C446 1.391 . S
C445 C444 1.386 . S
C445 C449 1.393 . S
C446 H438 0.950 . S
C446 C444 1.391 . S
C446 C447 1.400 . S
C447 C446 1.400 . S
C447 C448 1.398 . S
C447 C453 1.491 . S
C448 H439 0.950 . S
C448 C447 1.398 . S
C448 C449 1.391 . S
C449 H437 0.950 . S
C449 C445 1.393 . S
C449 C448 1.391 . S
C450 H440 0.950 . S
C450 C451 1.386 . S
C450 C452 1.391 . S
C451 C450 1.386 . S
C451 C455 1.393 . S
C452 H441 0.950 . S
C452 C450 1.391 . S
C452 C453 1.400 . S
C453 C447 1.491 . S
C453 C452 1.400 . S
C453 C454 1.398 . S
C454 H442 0.950 . S
C454 C453 1.398 . S
C454 C455 1.391 . S
C455 H443 0.950 . S
C455 C451 1.393 . S
C455 C454 1.391 . S
H456 C464 0.950 . S
H457 C469 0.950 . S
H458 C466 0.950 . S
H459 C468 0.950 . S
H460 C470 0.950 . S
H461 C472 0.950 . S
H462 C474 0.950 . S
H463 C475 0.950 . S
C464 H456 0.950 . S
C464 C465 1.386 . S
C464 C466 1.391 . S
C465 C464 1.386 . S
C465 C469 1.393 . S
C466 H458 0.950 . S
C466 C464 1.391 . S
C466 C467 1.400 . S
C467 C466 1.400 . S
C467 C468 1.398 . S
C467 C473 1.491 . S
C468 H459 0.950 . S
C468 C467 1.398 . S
C468 C469 1.391 . S
C469 H457 0.950 . S
C469 C465 1.393 . S
C469 C468 1.391 . S
C470 H460 0.950 . S
C470 C471 1.386 . S
C470 C472 1.391 . S
C471 C470 1.386 . S
C471 C475 1.393 . S
C472 H461 0.950 . S
C472 C470 1.391 . S
C472 C473 1.400 . S
C473 C467 1.491 . S
C473 C472 1.400 . S
C473 C474 1.398 . S
C474 H462 0.950 . S
C474 C473 1.398 . S
C474 C475 1.391 . S
C475 H463 0.950 . S
C475 C471 1.393 . S
C475 C474 1.391 . S
H476 C484 0.950 . S
H477 C489 0.950 . S
H478 C486 0.950 . S
H479 C488 0.950 . S
H480 C490 0.950 . S
H481 C492 0.950 . S
H482 C494 0.950 . S
H483 C495 0.950 . S
C484 H476 0.950 . S
C484 C485 1.386 . S
C484 C486 1.391 . S
C485 C484 1.386 . S
C485 C489 1.393 . S
C486 H478 0.950 . S
C486 C484 1.391 . S
C486 C487 1.400 . S
C487 C486 1.400 . S
C487 C488 1.398 . S
C487 C493 1.491 . S
C488 H479 0.950 . S
C488 C487 1.398 . S
C488 C489 1.391 . S
C489 H477 0.950 . S
C489 C485 1.393 . S
C489 C488 1.391 . S
C490 H480 0.950 . S
C490 C491 1.386 . S
C490 C492 1.391 . S
C491 C490 1.386 . S
C491 C495 1.393 . S
C492 H481 0.950 . S
C492 C490 1.391 . S
C492 C493 1.400 . S
C493 C487 1.491 . S
C493 C492 1.400 . S
C493 C494 1.398 . S
C494 H482 0.950 . S
C494 C493 1.398 . S
C494 C495 1.391 . S
C495 H483 0.950 . S
C495 C491 1.393 . S
C495 C494 1.391 . S
H496 C504 0.950 . S
H497 C509 0.950 . S
H498 C506 0.950 . S
H499 C508 0.950 . S
H500 C510 0.950 . S
H501 C512 0.950 . S
H502 C514 0.950 . S
H503 C515 0.950 . S
C504 H496 0.950 . S
C504 C505 1.386 . S
C504 C506 1.391 . S
C505 C504 1.386 . S
C505 C509 1.393 . S
C506 H498 0.950 . S
C506 C504 1.391 . S
C506 C507 1.400 . S
C507 C506 1.400 . S
C507 C508 1.398 . S
C507 C513 1.491 . S
C508 H499 0.950 . S
C508 C507 1.398 . S
C508 C509 1.391 . S
C509 H497 0.950 . S
C509 C505 1.393 . S
C509 C508 1.391 . S
C510 H500 0.950 . S
C510 C511 1.386 . S
C510 C512 1.391 . S
C511 C510 1.386 . S
C511 C515 1.393 . S
C512 H501 0.950 . S
C512 C510 1.391 . S
C512 C513 1.400 . S
C513 C507 1.491 . S
C513 C512 1.400 . S
C513 C514 1.398 . S
C514 H502 0.950 . S
C514 C513 1.398 . S
C514 C515 1.391 . S
C515 H503 0.950 . S
C515 C511 1.393 . S
C515 C514 1.391 . S
H516 C524 0.950 . S
H517 C529 0.950 . S
H518 C526 0.950 . S
H519 C528 0.950 . S
H520 C530 0.950 . S
H521 C532 0.950 . S
H522 C534 0.950 . S
H523 C535 0.950 . S
C524 H516 0.950 . S
C524 C525 1.386 1_655 S
C524 C526 1.391 . S
C525 C524 1.386 1_455 S
C525 C529 1.393 . S
C526 H518 0.950 . S
C526 C524 1.391 . S
C526 C527 1.400 1_655 S
C527 C526 1.400 1_455 S
C527 C528 1.398 . S
C527 C533 1.491 1_454 S
C528 H519 0.950 . S
C528 C527 1.398 . S
C528 C529 1.391 . S
C529 H517 0.950 . S
C529 C525 1.393 . S
C529 C528 1.391 . S
C530 H520 0.950 . S
C530 C531 1.386 1_455 S
C530 C532 1.391 . S
C531 C530 1.386 1_655 S
C531 C535 1.393 . S
C532 H521 0.950 . S
C532 C530 1.391 . S
C532 C533 1.400 1_455 S
C533 C527 1.491 1_656 S
C533 C532 1.400 1_655 S
C533 C534 1.398 . S
C534 H522 0.950 . S
C534 C533 1.398 . S
C534 C535 1.391 . S
C535 H523 0.950 . S
C535 C531 1.393 . S
C535 C534 1.391 . S
H536 C544 0.950 . S
H537 C549 0.950 . S
H538 C546 0.963 . S
H539 C548 0.950 . S
H540 C550 0.950 . S
H541 C552 0.963 . S
H542 C554 0.950 . S
H543 C555 0.950 . S
C544 H536 0.950 . S
C544 C545 1.386 . S
C544 C546 1.383 1_554 S
C545 C544 1.386 . S
C545 C549 1.393 . S
C546 H538 0.963 . S
C546 C544 1.383 1_556 S
C546 C547 1.396 1_556 S
C547 C546 1.396 1_554 S
C547 C548 1.398 . S
C547 C553 1.491 1_554 S
C548 H539 0.950 . S
C548 C547 1.398 . S
C548 C549 1.391 . S
C549 H537 0.950 . S
C549 C545 1.393 . S
C549 C548 1.391 . S
C550 H540 0.950 . S
C550 C551 1.386 . S
C550 C552 1.383 1_556 S
C551 C550 1.386 . S
C551 C555 1.393 . S
C552 H541 0.963 . S
C552 C550 1.383 1_554 S
C552 C553 1.396 1_554 S
C553 C547 1.491 1_556 S
C553 C552 1.396 1_556 S
C553 C554 1.398 . S
C554 H542 0.950 . S
C554 C553 1.398 . S
C554 C555 1.391 . S
C555 H543 0.950 . S
C555 C551 1.393 . S
C555 C554 1.391 . S
H556 C564 0.950 . S
H557 C569 0.944 1_556 S
H558 C566 0.950 1_545 S
H559 C568 0.950 . S
H560 C570 0.950 . S
H561 C572 0.950 1_565 S
H562 C574 0.950 . S
H563 C575 0.944 1_554 S
C564 H556 0.950 . S
C564 C565 1.386 . S
C564 C566 1.391 . S
C565 C564 1.386 . S
C565 C569 1.393 . S
C566 H558 0.950 1_565 S
C566 C564 1.391 . S
C566 C567 1.400 . S
C567 C566 1.400 . S
C567 C568 1.398 1_554 S
C567 C573 1.491 1_564 S
C568 H559 0.950 . S
C568 C567 1.398 1_556 S
C568 C569 1.391 1_556 S
C569 H557 0.944 1_554 S
C569 C565 1.393 . S
C569 C568 1.391 1_554 S
C570 H560 0.950 . S
C570 C571 1.386 . S
C570 C572 1.391 . S
C571 C570 1.386 . S
C571 C575 1.393 . S
C572 H561 0.950 1_545 S
C572 C570 1.391 . S
C572 C573 1.400 . S
C573 C567 1.491 1_546 S
C573 C572 1.400 . S
C573 C574 1.398 1_556 S
C574 H562 0.950 . S
C574 C573 1.398 1_554 S
C574 C575 1.391 1_554 S
C575 H563 0.944 1_556 S
C575 C571 1.393 . S
C575 C574 1.391 1_556 S
H576 C584 0.950 . S
H577 C589 0.950 . S
H578 C586 0.950 . S
H579 C588 0.950 . S
H580 C590 0.950 . S
H581 C592 0.950 . S
H582 C594 0.950 . S
H583 C595 0.950 . S
C584 H576 0.950 . S
C584 C585 1.386 1_545 S
C584 C586 1.391 . S
C585 C584 1.386 1_565 S
C585 C589 1.393 . S
C586 H578 0.950 . S
C586 C584 1.391 . S
C586 C587 1.400 1_545 S
C587 C586 1.400 1_565 S
C587 C588 1.398 . S
C587 C593 1.491 1_565 S
C588 H579 0.950 . S
C588 C587 1.398 . S
C588 C589 1.391 . S
C589 H577 0.950 . S
C589 C585 1.393 . S
C589 C588 1.391 . S
C590 H580 0.950 . S
C590 C591 1.386 1_565 S
C590 C592 1.391 . S
C591 C590 1.386 1_545 S
C591 C595 1.393 . S
C592 H581 0.950 . S
C592 C590 1.391 . S
C592 C593 1.400 1_565 S
C593 C587 1.491 1_545 S
C593 C592 1.400 1_545 S
C593 C594 1.398 . S
C594 H582 0.950 . S
C594 C593 1.398 . S
C594 C595 1.391 . S
C595 H583 0.950 . S
C595 C591 1.393 . S
C595 C594 1.391 . S
H596 C604 0.950 . S
H597 C609 0.950 . S
H598 C606 0.950 . S
H599 C608 0.950 . S
H600 C610 0.950 . S
H601 C612 0.950 . S
H602 C614 0.950 . S
H603 C615 0.950 . S
C604 H596 0.950 . S
C604 C605 1.386 . S
C604 C606 1.391 . S
C605 C604 1.386 . S
C605 C609 1.393 . S
C606 H598 0.950 . S
C606 C604 1.391 . S
C606 C607 1.400 . S
C607 C606 1.400 . S
C607 C608 1.398 . S
C607 C613 1.491 1_655 S
C608 H599 0.950 . S
C608 C607 1.398 . S
C608 C609 1.391 . S
C609 H597 0.950 . S
C609 C605 1.393 . S
C609 C608 1.391 . S
C610 H600 0.950 . S
C610 C611 1.386 . S
C610 C612 1.391 . S
C611 C610 1.386 . S
C611 C615 1.393 . S
C612 H601 0.950 . S
C612 C610 1.391 . S
C612 C613 1.400 . S
C613 C607 1.491 1_455 S
C613 C612 1.400 . S
C613 C614 1.398 . S
C614 H602 0.950 . S
C614 C613 1.398 . S
C614 C615 1.391 . S
C615 H603 0.950 . S
C615 C611 1.393 . S
C615 C614 1.391 . S
H616 C624 0.950 . S
H617 C629 0.950 . S
H618 C626 0.950 . S
H619 C628 0.950 . S
H620 C630 0.950 . S
H621 C632 0.950 . S
H622 C634 0.950 . S
H623 C635 0.950 . S
C624 H616 0.950 . S
C624 C625 1.386 . S
C624 C626 1.391 . S
C625 C624 1.386 . S
C625 C629 1.393 . S
C626 H618 0.950 . S
C626 C624 1.391 . S
C626 C627 1.400 . S
C627 C626 1.400 . S
C627 C628 1.398 . S
C627 C633 1.491 . S
C628 H619 0.950 . S
C628 C627 1.398 . S
C628 C629 1.391 . S
C629 H617 0.950 . S
C629 C625 1.393 . S
C629 C628 1.391 . S
C630 H620 0.950 . S
C630 C631 1.386 . S
C630 C632 1.391 . S
C631 C630 1.386 . S
C631 C635 1.393 . S
C632 H621 0.950 . S
C632 C630 1.391 . S
C632 C633 1.400 . S
C633 C627 1.491 . S
C633 C632 1.400 . S
C633 C634 1.398 . S
C634 H622 0.950 . S
C634 C633 1.398 . S
C634 C635 1.391 . S
C635 H623 0.950 . S
C635 C631 1.393 . S
C635 C634 1.391 . S
C165 C8 0.701 . S
C171 C96 0.710 . S
C185 C21 0.669 . S
C191 C109 0.659 . S
C205 C34 0.682 . S
C211 C83 0.706 . S
C225 C148 0.712 . S
C231 C47 0.701 . S
C245 C60 0.655 . S
C251 C122 0.667 . S
C265 C135 0.682 . S
C271 C73 0.689 . S
C285 C18 0.697 . S
C291 C86 0.698 . S
C305 C99 0.700 . S
C311 C31 0.713 . S
C325 C5 0.674 . S
C331 C112 0.658 . S
C345 C125 0.654 . S
C351 C70 0.658 . S
C365 C138 0.701 . S
C371 C44 0.713 . S
C385 C57 0.703 . S
C391 C151 0.700 . S
C405 C65 1.716 . S
C411 C0 1.718 . S
C425 C13 1.719 . S
C431 C39 1.716 . S
C445 C26 1.726 . S
C451 C52 1.733 . S
C465 C78 1.715 . S
C471 C143 1.724 . S
C485 C91 1.719 . S
C491 C117 1.716 . S
C505 C104 1.733 . S
C511 C130 1.728 . S
C525 C10 1.521 . S
C531 C88 1.521 . S
C545 C23 1.501 . S
C551 C101 1.501 . S
C565 C36 1.511 . S
C571 C114 1.511 . S
C585 C49 1.521 . S
C591 C127 1.521 . S
C605 C140 1.513 . S
C611 C62 1.513 . S
C625 C75 1.502 . S
C631 C153 1.502 . S
