# Generated by pormake.
# Topology wjd, (6)-cn, num edge types: 1
# Building blocks:
#     Node 0, Type 0, BuildingBlock: INOVEN_clean_sbu_0, # of connection points: 6
#     Node 1, Type 0, BuildingBlock: INOVEN_clean_sbu_0, # of connection points: 6
#     Node 2, Type 0, BuildingBlock: INOVEN_clean_sbu_0, # of connection points: 6
#     Node 3, Type 0, BuildingBlock: INOVEN_clean_sbu_0, # of connection points: 6
#     Node 4, Type 0, BuildingBlock: INOVEN_clean_sbu_0, # of connection points: 6
#     Node 5, Type 0, BuildingBlock: INOVEN_clean_sbu_0, # of connection points: 6
#     Node 6, Type 0, BuildingBlock: INOVEN_clean_sbu_0, # of connection points: 6
#     Node 7, Type 0, BuildingBlock: INOVEN_clean_sbu_0, # of connection points: 6
#     Node 8, Type 0, BuildingBlock: INOVEN_clean_sbu_0, # of connection points: 6
#     Node 9, Type 0, BuildingBlock: INOVEN_clean_sbu_0, # of connection points: 6
#     Node 10, Type 0, BuildingBlock: INOVEN_clean_sbu_0, # of connection points: 6
#     Node 11, Type 0, BuildingBlock: INOVEN_clean_sbu_0, # of connection points: 6
#     Edge 12, Type (0, 0), BuildingBlock: UVAHIK_clean_linker_0, # of connection points: 2
#     Edge 13, Type (0, 0), BuildingBlock: UVAHIK_clean_linker_0, # of connection points: 2
#     Edge 14, Type (0, 0), BuildingBlock: UVAHIK_clean_linker_0, # of connection points: 2
#     Edge 15, Type (0, 0), BuildingBlock: UVAHIK_clean_linker_0, # of connection points: 2
#     Edge 16, Type (0, 0), BuildingBlock: UVAHIK_clean_linker_0, # of connection points: 2
#     Edge 17, Type (0, 0), BuildingBlock: UVAHIK_clean_linker_0, # of connection points: 2
#     Edge 18, Type (0, 0), BuildingBlock: UVAHIK_clean_linker_0, # of connection points: 2
#     Edge 19, Type (0, 0), BuildingBlock: UVAHIK_clean_linker_0, # of connection points: 2
#     Edge 20, Type (0, 0), BuildingBlock: UVAHIK_clean_linker_0, # of connection points: 2
#     Edge 21, Type (0, 0), BuildingBlock: UVAHIK_clean_linker_0, # of connection points: 2
#     Edge 22, Type (0, 0), BuildingBlock: UVAHIK_clean_linker_0, # of connection points: 2
#     Edge 23, Type (0, 0), BuildingBlock: UVAHIK_clean_linker_0, # of connection points: 2
#     Edge 24, Type (0, 0), BuildingBlock: UVAHIK_clean_linker_0, # of connection points: 2
#     Edge 25, Type (0, 0), BuildingBlock: UVAHIK_clean_linker_0, # of connection points: 2
#     Edge 26, Type (0, 0), BuildingBlock: UVAHIK_clean_linker_0, # of connection points: 2
#     Edge 27, Type (0, 0), BuildingBlock: UVAHIK_clean_linker_0, # of connection points: 2
#     Edge 28, Type (0, 0), BuildingBlock: UVAHIK_clean_linker_0, # of connection points: 2
#     Edge 29, Type (0, 0), BuildingBlock: UVAHIK_clean_linker_0, # of connection points: 2
#     Edge 30, Type (0, 0), BuildingBlock: UVAHIK_clean_linker_0, # of connection points: 2
#     Edge 31, Type (0, 0), BuildingBlock: UVAHIK_clean_linker_0, # of connection points: 2
#     Edge 32, Type (0, 0), BuildingBlock: UVAHIK_clean_linker_0, # of connection points: 2
#     Edge 33, Type (0, 0), BuildingBlock: UVAHIK_clean_linker_0, # of connection points: 2
#     Edge 34, Type (0, 0), BuildingBlock: UVAHIK_clean_linker_0, # of connection points: 2
#     Edge 35, Type (0, 0), BuildingBlock: UVAHIK_clean_linker_0, # of connection points: 2
#     Edge 36, Type (0, 0), BuildingBlock: UVAHIK_clean_linker_0, # of connection points: 2
#     Edge 37, Type (0, 0), BuildingBlock: UVAHIK_clean_linker_0, # of connection points: 2
#     Edge 38, Type (0, 0), BuildingBlock: UVAHIK_clean_linker_0, # of connection points: 2
#     Edge 39, Type (0, 0), BuildingBlock: UVAHIK_clean_linker_0, # of connection points: 2
#     Edge 40, Type (0, 0), BuildingBlock: UVAHIK_clean_linker_0, # of connection points: 2
#     Edge 41, Type (0, 0), BuildingBlock: UVAHIK_clean_linker_0, # of connection points: 2
#     Edge 42, Type (0, 0), BuildingBlock: UVAHIK_clean_linker_0, # of connection points: 2
#     Edge 43, Type (0, 0), BuildingBlock: UVAHIK_clean_linker_0, # of connection points: 2
#     Edge 44, Type (0, 0), BuildingBlock: UVAHIK_clean_linker_0, # of connection points: 2
#     Edge 45, Type (0, 0), BuildingBlock: UVAHIK_clean_linker_0, # of connection points: 2
#     Edge 46, Type (0, 0), BuildingBlock: UVAHIK_clean_linker_0, # of connection points: 2
#     Edge 47, Type (0, 0), BuildingBlock: UVAHIK_clean_linker_0, # of connection points: 2
# Relax obj value: 0.091
# Max RMSD: 0.204
# Mean RMSD: 0.204
data_MOF--net-wjd--node1-INOVEN_clean_sbu_0--edge1-UVAHIK_clean_linker_0
_symmetry_space_group_name_H-M    P1
_symmetry_Int_Tables_number       1
_symmetry_cell_setting            triclinic
loop_
_symmetry_equiv_pos_as_xyz
'x, y, z'
_cell_length_a     49.389166
_cell_length_b     49.451014
_cell_length_c     68.717598
_cell_angle_alpha  89.953233
_cell_angle_beta   90.082852
_cell_angle_gamma 119.99165
loop_
_atom_site_label
_atom_site_type_symbol
_atom_site_fract_x
_atom_site_fract_y
_atom_site_fract_z
_atom_type_partial_charge
Gd0 Gd 0.36363 0.16534 0.12831 0.0
Gd1 Gd 0.32856 0.09794 0.13952 0.0
C2 C 0.40215 0.13035 0.13785 0.0
C3 C 0.40041 0.22494 0.12308 0.0
C4 C 0.4301 0.25344 0.12856 0.0
C5 C 0.45751 0.26297 0.11768 0.0
C6 C 0.43017 0.27367 0.14297 0.0
C7 C 0.48368 0.31303 0.1347 0.0
C8 C 0.45661 0.30301 0.14604 0.0
C9 C 0.48399 0.29233 0.12076 0.0
C10 C 0.33763 0.1241 0.09826 0.0
C11 C 0.2914 0.13697 0.13515 0.0
C12 C 0.28949 0.03843 0.14064 0.0
C13 C 0.25532 0.01755 0.13956 0.0
C14 C 0.23441 0.02582 0.14777 0.0
C15 C 0.24342 0.98891 0.1299 0.0
C16 C 0.19003 0.97626 0.13724 0.0
C17 C 0.21119 0.96853 0.12869 0.0
C18 C 0.20207 1.00533 0.14666 0.0
C19 C 0.35518 0.13608 0.17029 0.0
O20 O 0.40157 0.15669 0.13938 0.0
O21 O 0.37621 0.10345 0.13472 0.0
O22 O 0.40163 0.20358 0.11251 0.0
O23 O 0.37785 0.21312 0.1359 0.0
O24 O 0.33771 0.1503 0.09923 0.0
O25 O 0.35175 0.12168 0.11273 0.0
O26 O 0.28945 0.10926 0.13503 0.0
O27 O 0.31854 0.1629 0.13455 0.0
O28 O 0.30058 0.05575 0.15622 0.0
O29 O 0.30301 0.05342 0.12466 0.0
O30 O 0.35324 0.10908 0.16817 0.0
O31 O 0.34176 0.14143 0.15626 0.0
H32 H 0.45821 0.24818 0.1063 0.0
H33 H 0.40932 0.26739 0.15139 0.0
H34 H 0.45529 0.31837 0.15673 0.0
H35 H 0.50455 0.29903 0.11194 0.0
H36 H 0.24306 0.048 0.15514 0.0
H37 H 0.25913 0.98227 0.12325 0.0
H38 H 0.20286 0.94675 0.12092 0.0
H39 H 0.18656 0.01204 0.1535 0.0
Gd40 Gd 0.79007 0.70107 0.40114 0.0
Gd41 Gd 0.81971 0.65945 0.41117 0.0
C42 C 0.86568 0.73237 0.40586 0.0
C43 C 0.7698 0.73936 0.40674 0.0
C44 C 0.78206 0.77287 0.40288 0.0
C45 C 0.76206 0.7831 0.39586 0.0
C46 C 0.81348 0.79499 0.40673 0.0
C47 C 0.80428 0.83734 0.39758 0.0
C48 C 0.82442 0.82684 0.40421 0.0
C49 C 0.77306 0.81499 0.39315 0.0
C50 C 0.8128 0.69048 0.3679 0.0
C51 C 0.74806 0.62684 0.39651 0.0
C52 C 0.83972 0.62035 0.41546 0.0
C53 C 0.84102 0.59295 0.40784 0.0
C54 C 0.81993 0.56267 0.41451 0.0
C55 C 0.86629 0.59738 0.39617 0.0
C56 C 0.85071 0.5424 0.39922 0.0
C57 C 0.87103 0.57242 0.39187 0.0
C58 C 0.82464 0.53765 0.41017 0.0
C59 C 0.80289 0.68358 0.44144 0.0
O60 O 0.84117 0.73651 0.4069 0.0
O61 O 0.86278 0.70442 0.40491 0.0
O62 O 0.76153 0.72075 0.39158 0.0
O63 O 0.78492 0.73295 0.41998 0.0
O64 O 0.79945 0.70732 0.36888 0.0
O65 O 0.81369 0.6805 0.38469 0.0
O66 O 0.77431 0.62573 0.39667 0.0
O67 O 0.74749 0.65287 0.40031 0.0
O68 O 0.81363 0.61612 0.42321 0.0
O69 O 0.85508 0.64679 0.40599 0.0
O70 O 0.82786 0.68125 0.44148 0.0
O71 O 0.78822 0.67235 0.42589 0.0
H72 H 0.73781 0.76645 0.39267 0.0
H73 H 0.82952 0.78776 0.41209 0.0
H74 H 0.84846 0.84324 0.408 0.0
H75 H 0.75702 0.8221 0.38765 0.0
H76 H 0.80051 0.5585 0.4238 0.0
H77 H 0.88323 0.62043 0.39097 0.0
H78 H 0.89108 0.5768 0.38316 0.0
H79 H 0.80868 0.5149 0.41621 0.0
Gd80 Gd 0.86058 0.20296 0.12426 0.0
Gd81 Gd 0.93161 0.23469 0.13641 0.0
C82 C 0.89773 0.27562 0.1375 0.0
C83 C 0.80177 0.18155 0.11765 0.0
C84 C 0.77264 0.18185 0.1217 0.0
C85 C 0.75146 0.17497 0.10636 0.0
C86 C 0.76421 0.18589 0.14054 0.0
C87 C 0.7128 0.17402 0.12867 0.0
C88 C 0.73452 0.18216 0.14397 0.0
C89 C 0.72188 0.17106 0.10978 0.0
C90 C 0.9036 0.2193 0.09534 0.0
C91 C 0.88852 0.15849 0.13296 0.0
C92 C 0.99068 0.25568 0.13189 0.0
C93 C 1.01237 0.24445 0.13669 0.0
C94 C 1.00153 0.21537 0.14572 0.0
C95 C 0.04349 0.26146 0.1305 0.0
C96 C 0.05266 0.2199 0.14167 0.0
C97 C 0.0635 0.24936 0.13301 0.0
C98 C 0.0215 0.20318 0.14818 0.0
C99 C 0.89584 0.21406 0.16886 0.0
O100 O 0.87063 0.24914 0.13659 0.0
O101 O 0.92498 0.27668 0.13529 0.0
O102 O 0.8239 0.20497 0.10794 0.0
O103 O 0.81229 0.17013 0.13098 0.0
O104 O 0.87667 0.19387 0.09514 0.0
O105 O 0.90586 0.2346 0.11043 0.0
O106 O 0.91704 0.18334 0.13292 0.0
O107 O 0.86305 0.16071 0.13189 0.0
O108 O 0.97933 0.26402 0.14649 0.0
O109 O 0.96958 0.23888 0.11882 0.0
O110 O 0.92621 0.22906 0.16906 0.0
O111 O 0.8865 0.21131 0.15148 0.0
H112 H 0.7575 0.1717 0.09173 0.0
H113 H 0.7802 0.19111 0.15261 0.0
H114 H 0.72816 0.18455 0.15869 0.0
H115 H 0.70593 0.16537 0.09763 0.0
H116 H 0.97744 0.2018 0.15045 0.0
H117 H 0.05209 0.28375 0.12326 0.0
H118 H 0.0872 0.26267 0.12758 0.0
H119 H 1.01251 0.18061 0.1551 0.0
Gd120 Gd 0.32599 0.09607 0.40226 0.0
Gd121 Gd 0.36669 0.16767 0.41408 0.0
C122 C 0.29342 0.13939 0.40805 0.0
C123 C 0.2875 0.03717 0.40647 0.0
C124 C 0.25398 0.01585 0.40254 0.0
C125 C 0.24386 0.98566 0.39557 0.0
C126 C 0.23168 0.02483 0.4066 0.0
C127 C 0.18941 0.97295 0.39794 0.0
C128 C 0.19978 1.00359 0.40441 0.0
C129 C 0.21193 0.96446 0.3932 0.0
C130 C 0.33963 0.13248 0.37009 0.0
C131 C 0.40059 0.12951 0.3995 0.0
C132 C 0.4047 0.22652 0.41975 0.0
C133 C 0.43382 0.25572 0.41525 0.0
C134 C 0.44832 0.27731 0.43034 0.0
C135 C 0.44562 0.2639 0.39624 0.0
C136 C 0.48468 0.3159 0.40743 0.0
C137 C 0.47105 0.29376 0.39238 0.0
C138 C 0.47341 0.30706 0.42649 0.0
C139 C 0.34144 0.12478 0.44323 0.0
O140 O 0.28982 0.11093 0.40746 0.0
O141 O 0.3211 0.16498 0.40857 0.0
O142 O 0.30612 0.04855 0.39137 0.0
O143 O 0.29376 0.05784 0.42023 0.0
O144 O 0.32429 0.10217 0.36964 0.0
O145 O 0.34675 0.14115 0.38749 0.0
O146 O 0.40153 0.15675 0.40043 0.0
O147 O 0.37455 0.10244 0.40243 0.0
O148 O 0.40651 0.20464 0.42946 0.0
O149 O 0.38205 0.21574 0.40687 0.0
O150 O 0.34374 0.15205 0.44387 0.0
O151 O 0.35337 0.12229 0.42769 0.0
H152 H 0.26065 0.97831 0.39225 0.0
H153 H 0.23883 0.04805 0.41194 0.0
H154 H 0.18327 0.01096 0.40842 0.0
H155 H 0.20491 0.94131 0.38779 0.0
H156 H 0.43954 0.2715 0.44509 0.0
H157 H 0.43468 0.2476 0.38435 0.0
H158 H 0.47924 0.29994 0.37755 0.0
H159 H 0.48372 0.32339 0.43844 0.0
Gd160 Gd 0.82272 0.65962 0.12666 0.0
Gd161 Gd 0.79119 0.69973 0.13631 0.0
C162 C 0.75027 0.62507 0.14024 0.0
C163 C 0.84435 0.62179 0.12286 0.0
C164 C 0.84512 0.59385 0.13001 0.0
C165 C 0.82354 0.56381 0.1232 0.0
C166 C 0.87043 0.59765 0.14143 0.0
C167 C 0.85393 0.5425 0.1379 0.0
C168 C 0.87472 0.5723 0.14538 0.0
C169 C 0.82782 0.5384 0.12718 0.0
C170 C 0.80559 0.68313 0.0962 0.0
C171 C 0.86711 0.73286 0.13174 0.0
C172 C 0.77006 0.73733 0.13057 0.0
C173 C 0.78232 0.77094 0.13418 0.0
C174 C 0.76291 0.78115 0.14218 0.0
C175 C 0.81324 0.79316 0.12922 0.0
C176 C 0.8047 0.83547 0.13945 0.0
C177 C 0.82424 0.82502 0.13175 0.0
C178 C 0.77398 0.81307 0.14486 0.0
C179 C 0.81412 0.68971 0.16973 0.0
O180 O 0.77688 0.62462 0.14008 0.0
O181 O 0.74916 0.65098 0.1369 0.0
O182 O 0.81935 0.61801 0.11375 0.0
O183 O 0.85783 0.64714 0.13352 0.0
O184 O 0.83107 0.68169 0.09645 0.0
O185 O 0.79067 0.67157 0.11162 0.0
O186 O 0.84205 0.73607 0.13038 0.0
O187 O 0.865 0.70527 0.13299 0.0
O188 O 0.76234 0.71905 0.14588 0.0
O189 O 0.78483 0.73069 0.11726 0.0
O190 O 0.80018 0.70599 0.16864 0.0
O191 O 0.8155 0.68007 0.15295 0.0
H192 H 0.80404 0.5601 0.11412 0.0
H193 H 0.88771 0.62051 0.14671 0.0
H194 H 0.8948 0.57621 0.15393 0.0
H195 H 0.81149 0.51584 0.12104 0.0
H196 H 0.73906 0.76444 0.14621 0.0
H197 H 0.82884 0.78601 0.12305 0.0
H198 H 0.84784 0.84145 0.12716 0.0
H199 H 0.75842 0.82017 0.15116 0.0
Gd200 Gd 0.93073 0.23637 0.39966 0.0
Gd201 Gd 0.8594 0.20467 0.41153 0.0
C202 C 0.88757 0.16023 0.40351 0.0
C203 C 0.98985 0.25744 0.40405 0.0
C204 C 1.01158 0.24582 0.40009 0.0
C205 C 0.0433 0.26697 0.39683 0.0
C206 C 1.00129 0.21374 0.40094 0.0
C207 C 0.0547 0.22429 0.39686 0.0
C208 C 0.02262 0.20308 0.39941 0.0
C209 C 0.06467 0.25633 0.39515 0.0
C210 C 0.89487 0.21547 0.36717 0.0
C211 C 0.89687 0.27733 0.39817 0.0
C212 C 0.8005 0.1832 0.41771 0.0
C213 C 0.77134 0.18337 0.41344 0.0
C214 C 0.75004 0.17656 0.42866 0.0
C215 C 0.76296 0.18709 0.39449 0.0
C216 C 0.71136 0.17502 0.40603 0.0
C217 C 0.73321 0.18311 0.39084 0.0
C218 C 0.72039 0.1724 0.42502 0.0
C219 C 0.90229 0.22093 0.44062 0.0
O220 O 0.91609 0.18509 0.40357 0.0
O221 O 0.86206 0.16241 0.40428 0.0
O222 O 0.97836 0.26467 0.38899 0.0
O223 O 0.96904 0.24224 0.41759 0.0
O224 O 0.92523 0.23051 0.36699 0.0
O225 O 0.88564 0.21284 0.38455 0.0
O226 O 0.86972 0.25089 0.3991 0.0
O227 O 0.9241 0.27837 0.40047 0.0
O228 O 0.82247 0.20663 0.42753 0.0
O229 O 0.81122 0.17182 0.40452 0.0
O230 O 0.87523 0.19564 0.4408 0.0
O231 O 0.90465 0.23621 0.42549 0.0
H232 H 0.05168 0.29181 0.39606 0.0
H233 H 0.97689 0.19694 0.40347 0.0
H234 H 1.01405 0.17832 0.40102 0.0
H235 H 0.08908 0.27329 0.39281 0.0
H236 H 0.75602 0.17352 0.44337 0.0
H237 H 0.77903 0.19223 0.3825 0.0
H238 H 0.7269 0.18525 0.37604 0.0
H239 H 0.70434 0.16675 0.43708 0.0
Gd240 Gd 0.10145 0.32024 0.63688 0.0
Gd241 Gd 0.17284 0.36207 0.6261 0.0
C242 C 0.14601 0.28915 0.63143 0.0
C243 C 0.04275 0.2814 0.6317 0.0
C244 C 0.02226 0.2476 0.63495 0.0
C245 C 0.99065 0.23551 0.63961 0.0
C246 C 0.03374 0.22694 0.63235 0.0
C247 C 0.98182 0.18245 0.63772 0.0
C248 C 1.01371 0.19472 0.63364 0.0
C249 C 0.97058 0.20318 0.64108 0.0
C250 C 0.13615 0.33156 0.6696 0.0
C251 C 0.13367 0.39472 0.64099 0.0
C252 C 0.23167 0.40061 0.62065 0.0
C253 C 0.26091 0.42975 0.62499 0.0
C254 C 0.2825 0.44379 0.60985 0.0
C255 C 0.26911 0.44204 0.64389 0.0
C256 C 0.32114 0.48071 0.63252 0.0
C257 C 0.29901 0.46754 0.64761 0.0
C258 C 0.31229 0.46892 0.61356 0.0
C259 C 0.13105 0.33697 0.59634 0.0
O260 O 0.11728 0.28495 0.63113 0.0
O261 O 0.17118 0.31709 0.63173 0.0
O262 O 0.05344 0.29924 0.64718 0.0
O263 O 0.06393 0.2888 0.61813 0.0
O264 O 0.1059 0.31457 0.66911 0.0
O265 O 0.14618 0.34117 0.65265 0.0
O266 O 0.16119 0.39628 0.63969 0.0
O267 O 0.10682 0.36835 0.6382 0.0
O268 O 0.20968 0.40216 0.61088 0.0
O269 O 0.22104 0.37811 0.63358 0.0
O270 O 0.15834 0.33925 0.59621 0.0
O271 O 0.12783 0.34854 0.61183 0.0
H272 H 0.98133 0.25103 0.64166 0.0
H273 H 0.05807 0.23565 0.62884 0.0
H274 H 0.02311 0.17936 0.63123 0.0
H275 H 0.94607 0.19436 0.64415 0.0
H276 H 0.27665 0.43461 0.59518 0.0
H277 H 0.2528 0.43143 0.65581 0.0
H278 H 0.30523 0.47615 0.66236 0.0
H279 H 0.32863 0.47888 0.60159 0.0
Gd280 Gd 0.2126 0.85479 0.91243 0.0
Gd281 Gd 0.24199 0.92601 0.9023 0.0
C282 C 0.28444 0.89397 0.89823 0.0
C283 C 0.19259 0.79603 0.91787 0.0
C284 C 0.19195 0.76663 0.91315 0.0
C285 C 0.18587 0.74537 0.92831 0.0
C286 C 0.19393 0.75792 0.89398 0.0
C287 C 0.18141 0.70607 0.90522 0.0
C288 C 0.18891 0.72787 0.89006 0.0
C289 C 0.18059 0.71543 0.9244 0.0
C290 C 0.22835 0.89578 0.9426 0.0
C291 C 0.16627 0.88124 0.90652 0.0
C292 C 0.26214 0.98463 0.90773 0.0
C293 C 0.25062 1.00646 0.90366 0.0
C294 C 0.27143 0.03684 0.89726 0.0
C295 C 0.21924 0.99779 0.90708 0.0
C296 C 0.23015 0.05026 0.89893 0.0
C297 C 0.20917 0.01946 0.90483 0.0
C298 C 0.2613 0.05849 0.89483 0.0
C299 C 0.21973 0.8925 0.86908 0.0
O300 O 0.25836 0.86653 0.89859 0.0
O301 O 0.28484 0.92056 0.9018 0.0
O302 O 0.21694 0.81805 0.92701 0.0
O303 O 0.17975 0.80659 0.90558 0.0
O304 O 0.20326 0.86861 0.94229 0.0
O305 O 0.2436 0.8994 0.92728 0.0
O306 O 0.19065 0.90993 0.9079 0.0
O307 O 0.16945 0.85634 0.90565 0.0
O308 O 0.27075 0.97421 0.89277 0.0
O309 O 0.24629 0.96306 0.92076 0.0
O310 O 0.2328 0.92266 0.86999 0.0
O311 O 0.21881 0.88182 0.88592 0.0
H312 H 0.18414 0.75159 0.94319 0.0
H313 H 0.19846 0.77394 0.88204 0.0
H314 H 0.18967 0.72127 0.87513 0.0
H315 H 0.17537 0.69936 0.93642 0.0
H316 H 0.29568 0.04399 0.89445 0.0
H317 H 0.20261 0.97444 0.91198 0.0
H318 H 0.18514 0.01227 0.90835 0.0
H319 H 0.27799 0.08177 0.88987 0.0
Gd320 Gd 0.70716 0.7851 0.63702 0.0
Gd321 Gd 0.66711 0.81717 0.62747 0.0
C322 C 0.74082 0.86091 0.63139 0.0
C323 C 0.7433 0.76237 0.63057 0.0
C324 C 0.77627 0.77229 0.6343 0.0
C325 C 0.79605 0.80084 0.64352 0.0
C326 C 0.78876 0.75442 0.62702 0.0
C327 C 0.84093 0.794 0.63755 0.0
C328 C 0.82076 0.76512 0.62864 0.0
C329 C 0.82812 0.81161 0.64515 0.0
C330 C 0.6981 0.80883 0.67032 0.0
C331 C 0.63235 0.74459 0.64088 0.0
C332 C 0.62995 0.83948 0.62331 0.0
C333 C 0.60049 0.83904 0.62773 0.0
C334 C 0.58497 0.84439 0.61241 0.0
C335 C 0.58931 0.8367 0.64682 0.0
C336 C 0.54875 0.84727 0.63515 0.0
C337 C 0.5635 0.84061 0.65048 0.0
C338 C 0.55945 0.84848 0.61605 0.0
C339 C 0.69017 0.79941 0.59713 0.0
O340 O 0.74379 0.83568 0.63116 0.0
O341 O 0.71345 0.8595 0.63212 0.0
O342 O 0.72475 0.75451 0.64575 0.0
O343 O 0.73887 0.77979 0.61804 0.0
O344 O 0.71415 0.7946 0.66929 0.0
O345 O 0.68818 0.80995 0.65356 0.0
O346 O 0.63156 0.77098 0.64025 0.0
O347 O 0.65832 0.74351 0.63777 0.0
O348 O 0.62882 0.81753 0.61209 0.0
O349 O 0.65159 0.84896 0.63682 0.0
O350 O 0.68922 0.82513 0.5973 0.0
O351 O 0.67853 0.7847 0.61262 0.0
H352 H 0.78678 0.81507 0.64909 0.0
H353 H 0.77388 0.73253 0.61962 0.0
H354 H 0.82983 0.75118 0.62234 0.0
H355 H 0.84288 0.83376 0.65227 0.0
H356 H 0.59325 0.84641 0.59759 0.0
H357 H 0.60099 0.83272 0.65891 0.0
H358 H 0.55583 0.83958 0.66536 0.0
H359 H 0.54829 0.85302 0.6039 0.0
Gd360 Gd 0.17311 0.36408 0.90971 0.0
Gd361 Gd 0.10156 0.32092 0.89987 0.0
C362 C 0.13259 0.39502 0.89484 0.0
C363 C 0.23209 0.40411 0.9135 0.0
C364 C 0.26049 0.4317 0.90575 0.0
C365 C 0.2698 0.46178 0.91282 0.0
C366 C 0.28106 0.42764 0.89357 0.0
C367 C 0.32053 0.48255 0.89699 0.0
C368 C 0.31067 0.45275 0.88922 0.0
C369 C 0.29943 0.48695 0.90842 0.0
C370 C 0.13263 0.33991 0.94016 0.0
C371 C 0.14721 0.29118 0.90509 0.0
C372 C 0.0431 0.28175 0.90551 0.0
C373 C 0.02273 0.24797 0.90215 0.0
C374 C 0.99068 0.23552 0.89872 0.0
C375 C 0.03488 0.2277 0.90348 0.0
C376 C 0.98285 0.18277 0.89933 0.0
C377 C 1.01513 0.19544 0.90217 0.0
C378 C 0.97087 0.20315 0.89723 0.0
C379 C 0.13531 0.33188 0.86674 0.0
O380 O 0.16025 0.39677 0.89502 0.0
O381 O 0.10625 0.36874 0.89876 0.0
O382 O 0.21007 0.40797 0.92136 0.0
O383 O 0.22127 0.37759 0.90415 0.0
O384 O 0.1604 0.34337 0.94025 0.0
O385 O 0.12843 0.35028 0.92447 0.0
O386 O 0.11835 0.28651 0.90601 0.0
O387 O 0.172 0.31933 0.90402 0.0
O388 O 0.05325 0.29976 0.89007 0.0
O389 O 0.06471 0.28907 0.91882 0.0
O390 O 0.10512 0.31449 0.86761 0.0
O391 O 0.14576 0.34207 0.88354 0.0
H392 H 0.25477 0.46565 0.92249 0.0
H393 H 0.27485 0.40475 0.88804 0.0
H394 H 0.32617 0.44865 0.88015 0.0
H395 H 0.30636 0.50952 0.91479 0.0
H396 H 0.98085 0.25076 0.89768 0.0
H397 H 0.05955 0.23674 0.90602 0.0
H398 H 0.02508 0.18035 0.9036 0.0
H399 H 0.94606 0.19402 0.89514 0.0
Gd400 Gd 0.24146 0.92501 0.63764 0.0
Gd401 Gd 0.2124 0.85371 0.62824 0.0
C402 C 0.16598 0.88009 0.63344 0.0
C403 C 0.26168 0.9835 0.63165 0.0
C404 C 0.25001 1.00528 0.6354 0.0
C405 C 0.27076 0.03588 0.64144 0.0
C406 C 0.21849 0.99621 0.63214 0.0
C407 C 0.22905 0.04871 0.63977 0.0
C408 C 0.20817 0.01771 0.63421 0.0
C409 C 0.26039 0.05737 0.64369 0.0
C410 C 0.21893 0.89226 0.67112 0.0
C411 C 0.28364 0.89309 0.64321 0.0
C412 C 0.19305 0.79474 0.62413 0.0
C413 C 0.19081 0.76585 0.63221 0.0
C414 C 0.21231 0.75653 0.62665 0.0
C415 C 0.1644 0.74498 0.64307 0.0
C416 C 0.17981 0.70529 0.64134 0.0
C417 C 0.15902 0.71511 0.64762 0.0
C418 C 0.20695 0.72665 0.63125 0.0
C419 C 0.22916 0.89405 0.59758 0.0
O420 O 0.19026 0.90868 0.63142 0.0
O421 O 0.16937 0.85539 0.63517 0.0
O422 O 0.27024 0.97337 0.64681 0.0
O423 O 0.24593 0.96169 0.61871 0.0
O424 O 0.23193 0.9224 0.66989 0.0
O425 O 0.21815 0.88118 0.65445 0.0
O426 O 0.25738 0.8658 0.64342 0.0
O427 O 0.28421 0.9195 0.63871 0.0
O428 O 0.22002 0.81675 0.61747 0.0
O429 O 0.17656 0.8056 0.63242 0.0
O430 O 0.20435 0.86669 0.59768 0.0
O431 O 0.24373 0.89789 0.61321 0.0
H432 H 0.29512 0.04332 0.64413 0.0
H433 H 0.20191 0.97267 0.62753 0.0
H434 H 0.184 1.01019 0.63084 0.0
H435 H 0.27702 0.08083 0.64838 0.0
H436 H 0.23261 0.7718 0.61799 0.0
H437 H 0.14714 0.75119 0.6474 0.0
H438 H 0.13812 0.69942 0.65566 0.0
H439 H 0.22331 0.71977 0.62603 0.0
Gd440 Gd 0.66901 0.81914 0.91157 0.0
Gd441 Gd 0.70764 0.78587 0.90134 0.0
C442 C 0.63271 0.74656 0.8978 0.0
C443 C 0.63271 0.8424 0.91609 0.0
C444 C 0.60325 0.84219 0.91197 0.0
C445 C 0.58869 0.84858 0.92736 0.0
C446 C 0.59107 0.83886 0.89306 0.0
C447 C 0.55135 0.85041 0.905 0.0
C448 C 0.56519 0.84277 0.88963 0.0
C449 C 0.56308 0.85266 0.92394 0.0
C450 C 0.69189 0.80052 0.94157 0.0
C451 C 0.74272 0.86176 0.90723 0.0
C452 C 0.74331 0.76244 0.90741 0.0
C453 C 0.77626 0.77229 0.90368 0.0
C454 C 0.79593 0.80063 0.8942 0.0
C455 C 0.78889 0.75473 0.9113 0.0
C456 C 0.84099 0.7942 0.90062 0.0
C457 C 0.82092 0.76553 0.90978 0.0
C458 C 0.82803 0.81148 0.89266 0.0
C459 C 0.69868 0.81035 0.86834 0.0
O460 O 0.63254 0.77322 0.89904 0.0
O461 O 0.65846 0.74481 0.90032 0.0
O462 O 0.6317 0.82058 0.9274 0.0
O463 O 0.65379 0.85126 0.90229 0.0
O464 O 0.69149 0.82654 0.94156 0.0
O465 O 0.67986 0.78593 0.92608 0.0
O466 O 0.74511 0.83619 0.9071 0.0
O467 O 0.71564 0.86097 0.90689 0.0
O468 O 0.72479 0.75513 0.8922 0.0
O469 O 0.73901 0.77961 0.92016 0.0
O470 O 0.71423 0.7956 0.86912 0.0
O471 O 0.68919 0.81163 0.8852 0.0
H472 H 0.59773 0.85134 0.94204 0.0
H473 H 0.602 0.83406 0.88092 0.0
H474 H 0.55672 0.84093 0.87487 0.0
H475 H 0.55265 0.85795 0.93614 0.0
H476 H 0.78656 0.81465 0.88839 0.0
H477 H 0.77411 0.73304 0.91892 0.0
H478 H 0.83009 0.75184 0.91636 0.0
H479 H 0.84269 0.83347 0.88534 0.0
C480 C 0.06263 0.17477 0.13928 0.0
C481 C 0.07364 0.20647 0.14342 0.0
C482 C 0.08282 0.16257 0.14009 0.0
C483 C 0.15956 0.17913 0.15995 0.0
H484 H 0.15859 0.12638 0.11788 0.0
C485 C 0.26638 0.16925 0.14088 0.0
C486 C 0.26298 0.13978 0.13701 0.0
C487 C 0.24034 0.17282 0.14312 0.0
C488 C 0.15877 0.14062 0.1299 0.0
H489 H 0.11436 0.24994 0.15212 0.0
H490 H 0.14957 0.22893 0.1532 0.0
H491 H 0.11841 0.14153 0.11924 0.0
H492 H 0.22925 0.09086 0.13231 0.0
H493 H 0.18322 0.09732 0.13594 0.0
H494 H 0.20049 0.17917 0.17021 0.0
C495 C 0.12528 0.21334 0.14951 0.0
C496 C 0.13579 0.14933 0.13069 0.0
C497 C 0.10517 0.22552 0.14867 0.0
C498 C 0.23266 0.11386 0.13528 0.0
C499 C 0.20637 0.11755 0.13732 0.0
C500 C 0.18249 0.17055 0.1591 0.0
C501 C 0.11443 0.18175 0.14516 0.0
C502 C 0.13644 0.1694 0.14545 0.0
C503 C 0.21005 0.14709 0.14145 0.0
C504 C 0.18287 0.15192 0.14379 0.0
H505 H 0.03855 0.15951 0.13499 0.0
H506 H 0.07365 0.13811 0.13678 0.0
H507 H 0.16031 0.19395 0.17178 0.0
H508 H 0.28928 0.18981 0.14235 0.0
H509 H 0.24397 0.19595 0.14596 0.0
C510 C 0.13339 0.95853 0.39138 0.0
C511 C 0.15531 0.94964 0.39694 0.0
C512 C 0.10133 0.93674 0.39123 0.0
C513 C 0.046 0.85232 0.38848 0.0
H514 H 0.98697 0.87118 0.41345 0.0
C515 C 0.92342 0.75505 0.40817 0.0
C516 C 0.89781 0.75965 0.4053 0.0
C517 C 0.95394 0.77978 0.40644 0.0
C518 C 1.00306 0.86571 0.40615 0.0
H519 H 0.16025 0.91068 0.40699 0.0
H520 H 0.10467 0.87276 0.40624 0.0
H521 H 0.04215 0.91156 0.41116 0.0
H522 H 0.88435 0.79425 0.39885 0.0
H523 H 0.93813 0.83775 0.39559 0.0
H524 H 1.0073 0.80665 0.38341 0.0
C525 C 0.11234 0.89656 0.40185 0.0
C526 C 0.03466 0.88882 0.40487 0.0
C527 C 0.14428 0.91833 0.40218 0.0
C528 C 0.90356 0.78993 0.40116 0.0
C529 C 0.93435 0.81484 0.39932 0.0
C530 C 1.01453 0.82938 0.38963 0.0
C531 C 0.09049 0.9055 0.39643 0.0
C532 C 0.05655 0.88212 0.39637 0.0
C533 C 0.95989 0.80987 0.40163 0.0
C534 C 0.99276 0.83551 0.39889 0.0
H535 H 0.14097 0.98229 0.38699 0.0
H536 H 0.08505 0.94423 0.38681 0.0
H537 H 0.06219 0.84665 0.38148 0.0
H538 H 0.91997 0.73218 0.41167 0.0
H539 H 0.97297 0.77522 0.40888 0.0
C540 C 0.85397 0.10065 0.13218 0.0
C541 C 0.88412 0.12659 0.13452 0.0
C542 C 0.84862 0.0704 0.13441 0.0
C543 C 0.88573 0.02193 0.13392 0.0
H544 H 0.80877 0.96308 0.15992 0.0
C545 C 0.84726 0.89088 0.14622 0.0
C546 C 0.81601 0.86956 0.14116 0.0
C547 C 0.85801 0.92298 0.14705 0.0
C548 C 0.83029 0.97919 0.15257 0.0
H549 H 0.93254 0.14082 0.14062 0.0
H550 H 0.92303 0.08738 0.14463 0.0
H551 H 0.82398 0.01805 0.15855 0.0
H552 H 0.7718 0.8657 0.1328 0.0
H553 H 0.79036 0.92136 0.13469 0.0
H554 H 0.89173 0.98266 0.12784 0.0
C555 C 0.90359 0.09079 0.14101 0.0
C556 C 0.83903 1.0107 0.15176 0.0
C557 C 0.90903 0.12137 0.13875 0.0
C558 C 0.79579 0.88121 0.13717 0.0
C559 C 0.80646 0.91319 0.13817 0.0
C560 C 0.87703 0.99027 0.13482 0.0
C561 C 0.87317 0.065 0.13913 0.0
C562 C 0.86639 0.03234 0.14197 0.0
C563 C 0.8377 0.93446 0.14306 0.0
C564 C 0.8488 0.96847 0.14374 0.0
H565 H 0.8342 0.10357 0.12866 0.0
H566 H 0.82507 0.05112 0.13232 0.0
H567 H 0.90687 0.03797 0.12621 0.0
H568 H 0.86342 0.88279 0.14967 0.0
H569 H 0.88213 0.93879 0.15103 0.0
C570 C 0.23625 0.1196 0.40157 0.0
C571 C 0.26561 0.14335 0.40809 0.0
C572 C 0.21074 0.12469 0.40078 0.0
C573 C 0.18177 0.17434 0.42129 0.0
H574 H 0.13506 0.15872 0.37322 0.0
C575 C 0.10662 0.2307 0.40673 0.0
C576 C 0.07776 0.21317 0.39717 0.0
C577 C 0.1276 0.21962 0.40809 0.0
C578 C 0.14752 0.16279 0.38686 0.0
H579 H 0.29091 0.19067 0.41939 0.0
H580 H 0.24666 0.19924 0.4182 0.0
H581 H 0.17415 0.14237 0.37629 0.0
H582 H 0.04883 0.17041 0.3811 0.0
H583 H 0.08512 0.15068 0.38397 0.0
H584 H 0.15545 0.19476 0.43195 0.0
C585 C 0.24326 0.17677 0.41366 0.0
C586 C 0.16988 0.15339 0.38861 0.0
C587 C 0.2687 0.17189 0.4142 0.0
C588 C 0.07067 0.1844 0.38877 0.0
C589 C 0.09164 0.17321 0.39023 0.0
C590 C 0.15934 0.18351 0.41962 0.0
C591 C 0.21406 0.15338 0.40683 0.0
C592 C 0.18771 0.1597 0.4057 0.0
C593 C 0.12025 0.19055 0.4001 0.0
C594 C 0.1424 0.17852 0.40224 0.0
H595 H 0.23315 0.09739 0.39672 0.0
H596 H 0.18842 0.10621 0.39552 0.0
H597 H 0.19481 0.17906 0.43476 0.0
H598 H 0.1128 0.25274 0.4136 0.0
H599 H 0.14965 0.23392 0.41547 0.0
C600 C 0.13398 0.96404 0.1338 0.0
C601 C 0.15568 0.95376 0.13648 0.0
C602 C 0.10186 0.94253 0.13254 0.0
C603 C 0.04748 0.86007 0.12044 0.0
H604 H 0.9854 0.86994 0.14914 0.0
C605 C 0.92518 0.75672 0.13319 0.0
C606 C 0.89901 0.76077 0.13171 0.0
C607 C 0.95541 0.78227 0.13283 0.0
C608 C 1.00239 0.8671 0.1408 0.0
H609 H 0.16016 0.91269 0.14085 0.0
H610 H 0.10457 0.87547 0.13835 0.0
H611 H 0.04048 0.91111 0.1504 0.0
H612 H 0.8844 0.79532 0.12904 0.0
H613 H 0.93771 0.84032 0.12833 0.0
H614 H 1.00982 0.81617 0.11091 0.0
C615 C 0.11239 0.90011 0.13687 0.0
C616 C 0.03393 0.89064 0.14155 0.0
C617 C 0.14434 0.92151 0.13826 0.0
C618 C 0.90399 0.79132 0.13014 0.0
C619 C 0.93451 0.8171 0.12982 0.0
C620 C 1.01612 0.83673 0.11963 0.0
C621 C 0.09076 0.91029 0.13381 0.0
C622 C 0.0569 0.887 0.13174 0.0
C623 C 0.96058 0.81278 0.13094 0.0
C624 C 0.99326 0.83952 0.13018 0.0
H625 H 0.14184 0.98866 0.13221 0.0
H626 H 0.08578 0.95109 0.1301 0.0
H627 H 0.06447 0.85688 0.11234 0.0
H628 H 0.92247 0.73368 0.13459 0.0
H629 H 0.97485 0.77806 0.13419 0.0
C630 C 0.84624 0.89269 0.39003 0.0
C631 C 0.81549 0.87142 0.39602 0.0
C632 C 0.85689 0.92477 0.38927 0.0
C633 C 0.82855 0.9806 0.38545 0.0
H634 H 0.907 0.04013 0.40975 0.0
C635 C 0.85337 0.10246 0.40561 0.0
C636 C 0.88323 0.12834 0.40233 0.0
C637 C 0.84795 0.07216 0.40358 0.0
C638 C 0.8853 0.02387 0.40262 0.0
H639 H 0.77214 0.86764 0.40621 0.0
H640 H 0.79045 0.92325 0.4044 0.0
H641 H 0.89199 0.98485 0.40811 0.0
H642 H 0.93113 0.14245 0.39482 0.0
H643 H 0.92153 0.08896 0.39116 0.0
H644 H 0.82157 0.01921 0.38002 0.0
C645 C 0.80622 0.91505 0.40014 0.0
C646 C 0.87669 0.99224 0.40171 0.0
C647 C 0.79568 0.8831 0.40109 0.0
C648 C 0.90786 0.12305 0.39744 0.0
C649 C 0.90237 0.09244 0.39537 0.0
C650 C 0.83719 0.01209 0.38625 0.0
C651 C 0.83694 0.93625 0.39426 0.0
C652 C 0.84784 0.9702 0.39354 0.0
C653 C 0.87217 0.06668 0.39812 0.0
C654 C 0.86524 0.03399 0.39531 0.0
H655 H 0.86206 0.88457 0.38576 0.0
H656 H 0.8806 0.94055 0.38452 0.0
H657 H 0.8065 0.96428 0.37868 0.0
H658 H 0.83386 0.10548 0.40969 0.0
H659 H 0.82462 0.05292 0.40635 0.0
C660 C 0.18823 0.06379 0.64715 0.0
C661 C 0.21849 0.07217 0.64069 0.0
C662 C 0.1781 0.08566 0.64724 0.0
C663 C 0.20771 0.17027 0.64798 0.0
H664 H 0.12756 0.14982 0.62555 0.0
C665 C 0.18063 0.2662 0.62789 0.0
C666 C 0.15082 0.26187 0.63189 0.0
C667 C 0.18656 0.24157 0.62964 0.0
C668 C 0.14979 0.15576 0.63212 0.0
H669 H 0.26155 0.11027 0.62899 0.0
H670 H 0.24416 0.14838 0.62963 0.0
H671 H 0.14246 0.10954 0.62796 0.0
H672 H 0.10352 0.22782 0.64037 0.0
H673 H 0.11402 0.18451 0.64361 0.0
H674 H 0.21525 0.21631 0.65219 0.0
C675 C 0.22836 0.12493 0.63477 0.0
C676 C 0.15833 0.13271 0.63348 0.0
C677 C 0.23838 0.10305 0.63449 0.0
C678 C 0.12673 0.23191 0.63714 0.0
C679 C 0.13274 0.20712 0.63899 0.0
C680 C 0.19915 0.19316 0.64673 0.0
C681 C 0.1981 0.11648 0.64109 0.0
C682 C 0.18767 0.13994 0.64107 0.0
C683 C 0.16294 0.21186 0.63558 0.0
C684 C 0.17041 0.18643 0.63839 0.0
H685 H 0.17238 0.04037 0.65229 0.0
H686 H 0.15475 0.07857 0.65237 0.0
H687 H 0.23019 0.17638 0.65427 0.0
H688 H 0.19967 0.28881 0.62352 0.0
H689 H 0.20984 0.2459 0.62636 0.0
C690 C 0.1276 0.90064 0.90825 0.0
C691 C 0.13394 0.87608 0.90587 0.0
C692 C 0.09663 0.89469 0.908 0.0
C693 C 1.01551 0.82964 0.91508 0.0
H694 H 0.99049 0.88136 0.88666 0.0
C695 C 0.88691 0.78581 0.89695 0.0
C696 C 0.87534 0.80631 0.9 0.0
C697 C 0.91897 0.79661 0.89775 0.0
C698 C 0.9972 0.86689 0.89482 0.0
H699 H 0.11254 0.82614 0.90078 0.0
H700 H 0.05941 0.8161 0.90017 0.0
H701 H 0.04593 0.89669 0.88843 0.0
H702 H 0.88877 0.85454 0.90588 0.0
H703 H 0.94491 0.87343 0.90704 0.0
H704 H 0.96701 0.79962 0.92126 0.0
C705 C 0.07807 0.83981 0.90267 0.0
C706 C 0.02894 0.8757 0.89588 0.0
C707 C 0.10873 0.84569 0.90291 0.0
C708 C 0.89684 0.83814 0.90325 0.0
C709 C 0.92902 0.84899 0.90397 0.0
C710 C 0.98395 0.82082 0.91396 0.0
C711 C 0.0715 0.86408 0.90544 0.0
C712 C 0.03837 0.85681 0.90571 0.0
C713 C 0.9404 0.82822 0.90156 0.0
C714 C 0.97431 0.83899 0.90353 0.0
H715 H 0.14645 0.92433 0.9105 0.0
H716 H 0.09234 0.9139 0.9102 0.0
H717 H 0.022 0.81494 0.92319 0.0
H718 H 0.87114 0.76131 0.89399 0.0
H719 H 0.92702 0.78012 0.89541 0.0
C720 C 0.7665 0.91773 0.62387 0.0
C721 C 0.769 0.89231 0.63078 0.0
C722 C 0.7923 0.94783 0.62402 0.0
C723 C 0.86446 0.99803 0.64963 0.0
H724 H 0.88353 0.05152 0.60438 0.0
C725 C 0.93776 0.13343 0.65222 0.0
C726 C 0.96018 0.14816 0.6375 0.0
C727 C 0.91699 0.10119 0.65159 0.0
C728 C 0.87868 0.03682 0.61709 0.0
H729 H 0.80064 0.87848 0.64317 0.0
H730 H 0.84596 0.93168 0.64382 0.0
H731 H 0.84304 0.9966 0.60228 0.0
H732 H 0.97834 0.14071 0.61057 0.0
H733 H 0.94189 0.08454 0.60938 0.0
H734 H 0.89957 0.0386 0.66459 0.0
C735 C 0.82389 0.928 0.63817 0.0
C736 C 0.85542 1.00545 0.6159 0.0
C737 C 0.79807 0.89762 0.63769 0.0
C738 C 0.9615 0.12997 0.62221 0.0
C739 C 0.94052 0.09787 0.62145 0.0
C740 C 0.88747 0.02959 0.6509 0.0
C741 C 0.82117 0.95337 0.63134 0.0
C742 C 0.84786 0.98581 0.6322 0.0
C743 C 0.91795 0.08315 0.63608 0.0
C744 C 0.89462 0.04935 0.63467 0.0
H745 H 0.74448 0.91442 0.61836 0.0
H746 H 0.78946 0.96696 0.61882 0.0
H747 H 0.85891 0.98343 0.66245 0.0
H748 H 0.93633 0.14685 0.66422 0.0
H749 H 0.89966 0.0905 0.66298 0.0
C750 C 0.12842 0.23387 0.90034 0.0
C751 C 0.15253 0.26422 0.90483 0.0
C752 C 0.1347 0.20922 0.89882 0.0
C753 C 0.20123 0.19539 0.89094 0.0
H754 H 0.14501 0.11247 0.91091 0.0
C755 C 0.24018 0.10497 0.90367 0.0
C756 C 0.21989 0.07395 0.89786 0.0
C757 C 0.23042 0.12705 0.9033 0.0
C758 C 0.16076 0.13544 0.90507 0.0
H759 H 0.2018 0.29209 0.9121 0.0
H760 H 0.21244 0.24941 0.90988 0.0
H761 H 0.1303 0.15288 0.91297 0.0
H762 H 0.17334 0.04216 0.88679 0.0
H763 H 0.15617 0.08071 0.88656 0.0
H764 H 0.23197 0.17825 0.88345 0.0
C765 C 0.1889 0.24463 0.90694 0.0
C766 C 0.15233 0.15857 0.90622 0.0
C767 C 0.18272 0.26914 0.90834 0.0
C768 C 0.1895 0.06567 0.89165 0.0
C769 C 0.17963 0.08775 0.89147 0.0
C770 C 0.20971 0.17241 0.88993 0.0
C771 C 0.16517 0.21447 0.90182 0.0
C772 C 0.17273 0.189 0.89946 0.0
C773 C 0.20002 0.11868 0.89727 0.0
C774 C 0.18981 0.14232 0.89723 0.0
H775 H 0.10495 0.22932 0.89748 0.0
H776 H 0.11588 0.18629 0.89479 0.0
H777 H 0.21717 0.21831 0.88511 0.0
H778 H 0.26347 0.11214 0.90896 0.0
H779 H 0.24652 0.15059 0.90816 0.0
C780 C 0.10848 0.84461 0.6372 0.0
C781 C 0.13364 0.87487 0.63384 0.0
C782 C 0.0778 0.83872 0.63725 0.0
C783 C 0.02876 0.87493 0.64274 0.0
H784 H 0.96664 0.79791 0.61831 0.0
C785 C 0.89685 0.83763 0.63468 0.0
C786 C 0.87524 0.80595 0.6383 0.0
C787 C 0.929 0.84829 0.63411 0.0
C788 C 0.98363 0.81938 0.62534 0.0
H789 H 0.14607 0.92288 0.62824 0.0
H790 H 0.09197 0.91243 0.62819 0.0
H791 H 0.02158 0.81299 0.6167 0.0
H792 H 0.87077 0.76105 0.64509 0.0
H793 H 0.9266 0.77955 0.64395 0.0
H794 H 0.99043 0.8811 0.6514 0.0
C795 C 0.0963 0.89333 0.63087 0.0
C796 C 1.01516 0.82806 0.6244 0.0
C797 C 0.12726 0.89929 0.63082 0.0
C798 C 0.88664 0.78543 0.64185 0.0
C799 C 0.91867 0.79605 0.6412 0.0
C800 C 0.99705 0.86624 0.64363 0.0
C801 C 0.0712 0.86284 0.63387 0.0
C802 C 0.03809 0.85558 0.63343 0.0
C803 C 0.94022 0.82748 0.63704 0.0
C804 C 0.97409 0.83803 0.63525 0.0
H805 H 0.11233 0.82518 0.63981 0.0
H806 H 0.05916 0.81511 0.64007 0.0
H807 H 0.04581 0.89619 0.64992 0.0
H808 H 0.88889 0.85402 0.63167 0.0
H809 H 0.94498 0.8726 0.63075 0.0
C810 C 0.9647 0.1302 0.9142 0.0
C811 C 0.96165 0.14841 0.89958 0.0
C812 C 0.94409 0.09803 0.91505 0.0
C813 C 0.88859 0.02983 0.88638 0.0
H814 H 0.84866 0.9963 0.9361 0.0
C815 C 0.79969 0.89787 0.89993 0.0
C816 C 0.77127 0.89285 0.90778 0.0
C817 C 0.82575 0.9281 0.89928 0.0
C818 C 0.85982 1.00531 0.92216 0.0
H819 H 0.93514 0.14708 0.87409 0.0
H820 H 0.89912 0.09061 0.87549 0.0
H821 H 0.88896 0.05125 0.9336 0.0
H822 H 0.74817 0.91519 0.92175 0.0
H823 H 0.7936 0.96745 0.921 0.0
H824 H 0.85894 0.98381 0.87493 0.0
C825 C 0.91751 0.10134 0.88629 0.0
C826 C 0.88295 0.03669 0.92075 0.0
C827 C 0.93791 0.13365 0.88558 0.0
C828 C 0.76969 0.91832 0.91551 0.0
C829 C 0.79575 0.94825 0.91519 0.0
C830 C 0.86571 0.99826 0.88787 0.0
C831 C 0.92019 0.08327 0.90117 0.0
C832 C 0.89721 0.04942 0.90278 0.0
C833 C 0.82392 0.95354 0.90688 0.0
C834 C 0.85072 0.98587 0.90571 0.0
H835 H 0.9826 0.14097 0.92529 0.0
H836 H 0.94678 0.08467 0.92663 0.0
H837 H 0.89938 0.03901 0.87239 0.0
H838 H 0.80152 0.87867 0.89381 0.0
H839 H 0.84728 0.93161 0.89285 0.0
C840 C 0.37458 0.14927 0.3415 0.0
C841 C 0.35189 0.15162 0.35242 0.0
C842 C 0.38029 0.1593 0.32214 0.0
C843 C 0.33797 0.16723 0.28043 0.0
H844 H 0.41714 0.19508 0.25436 0.0
C845 C 0.34663 0.16713 0.19619 0.0
C846 C 0.36196 0.15142 0.18958 0.0
C847 C 0.34919 0.17634 0.21578 0.0
C848 C 0.39486 0.18739 0.26141 0.0
H849 H 0.31794 0.16702 0.35206 0.0
H850 H 0.32824 0.18528 0.3182 0.0
H851 H 0.41534 0.19573 0.28984 0.0
H852 H 0.39343 0.13477 0.19779 0.0
H853 H 0.3983 0.15112 0.2316 0.0
H854 H 0.31737 0.15793 0.25198 0.0
C855 C 0.34166 0.17563 0.32455 0.0
C856 C 0.39381 0.18771 0.28177 0.0
C857 C 0.33606 0.16565 0.34401 0.0
C858 C 0.38134 0.14684 0.20251 0.0
C859 C 0.38425 0.15637 0.22189 0.0
C860 C 0.33906 0.16703 0.26004 0.0
C861 C 0.3631 0.17158 0.31315 0.0
C862 C 0.36519 0.17665 0.2916 0.0
C863 C 0.36756 0.17046 0.22896 0.0
C864 C 0.36736 0.17614 0.25029 0.0
H865 H 0.38651 0.13782 0.34758 0.0
H866 H 0.39662 0.15533 0.31387 0.0
H867 H 0.31544 0.1582 0.2874 0.0
H868 H 0.3314 0.17081 0.18654 0.0
H869 H 0.3362 0.18735 0.22072 0.0
C870 C 0.81928 0.65602 0.34352 0.0
C871 C 0.82535 0.68568 0.34954 0.0
C872 C 0.82548 0.65126 0.32419 0.0
C873 C 0.868 0.69363 0.27927 0.0
H874 H 0.79615 0.63032 0.25108 0.0
C875 C 0.8405 0.71026 0.20124 0.0
C876 C 0.82669 0.68515 0.18818 0.0
C877 C 0.847 0.70586 0.22036 0.0
C878 C 0.81676 0.64763 0.25873 0.0
H879 H 0.84395 0.73373 0.34065 0.0
H880 H 0.85563 0.72585 0.30752 0.0
H881 H 0.79581 0.63042 0.28671 0.0
H882 H 0.80937 0.6357 0.18465 0.0
H883 H 0.82025 0.62764 0.21859 0.0
H884 H 0.88828 0.71189 0.25139 0.0
C885 C 0.84607 0.70615 0.3174 0.0
C886 C 0.81656 0.64769 0.27918 0.0
C887 C 0.83931 0.71069 0.33641 0.0
C888 C 0.82053 0.65553 0.19439 0.0
C889 C 0.82646 0.65091 0.21382 0.0
C890 C 0.8682 0.69357 0.25891 0.0
C891 C 0.83848 0.67626 0.31082 0.0
C892 C 0.84164 0.67152 0.28966 0.0
C893 C 0.83928 0.67601 0.22712 0.0
C894 C 0.84204 0.6714 0.24837 0.0
H895 H 0.80805 0.63627 0.35332 0.0
H896 H 0.81937 0.62796 0.31956 0.0
H897 H 0.88794 0.71199 0.28689 0.0
H898 H 0.84516 0.73326 0.19685 0.0
H899 H 0.85642 0.72563 0.23018 0.0
C900 C 0.88298 0.23316 0.19867 0.0
C901 C 0.87718 0.20784 0.18673 0.0
C902 C 0.87244 0.22836 0.21791 0.0
C903 C 0.85667 0.17344 0.2579 0.0
H904 H 0.83553 0.22882 0.28538 0.0
C905 C 0.85846 0.17845 0.34209 0.0
C906 C 0.87615 0.20899 0.34928 0.0
C907 C 0.84832 0.1733 0.32262 0.0
C908 C 0.84134 0.21308 0.27795 0.0
H909 H 0.85526 0.15758 0.18521 0.0
H910 H 0.83652 0.14891 0.21905 0.0
H911 H 0.83584 0.2286 0.24987 0.0
H912 H 0.89615 0.2579 0.34227 0.0
H913 H 0.87808 0.24917 0.30866 0.0
H914 H 0.86351 0.1589 0.28597 0.0
C915 C 0.84908 0.17255 0.21348 0.0
C916 C 0.84151 0.21295 0.25756 0.0
C917 C 0.85939 0.17741 0.19406 0.0
C918 C 0.88196 0.23411 0.33713 0.0
C919 C 0.8716 0.22903 0.31784 0.0
C920 C 0.8565 0.17357 0.27831 0.0
C921 C 0.85626 0.19807 0.22582 0.0
C922 C 0.85021 0.1939 0.24725 0.0
C923 C 0.85559 0.19864 0.31008 0.0
C924 C 0.84987 0.19417 0.28862 0.0
H925 H 0.89723 0.25687 0.19342 0.0
H926 H 0.87887 0.24863 0.22694 0.0
H927 H 0.8638 0.15867 0.25051 0.0
H928 H 0.85433 0.15875 0.3511 0.0
H929 H 0.83588 0.14958 0.31717 0.0
C930 C 0.17689 0.36711 0.69372 0.0
C931 C 0.1543 0.33699 0.68769 0.0
C932 C 0.18803 0.3723 0.71302 0.0
C933 C 0.19004 0.33108 0.75815 0.0
H934 H 0.17744 0.3922 0.78581 0.0
C935 C 0.14278 0.31229 0.83535 0.0
C936 C 0.15301 0.33719 0.8485 0.0
C937 C 0.15443 0.31722 0.81642 0.0
C938 C 0.18188 0.37555 0.77831 0.0
H939 H 0.12693 0.28864 0.69648 0.0
H940 H 0.14682 0.29731 0.72958 0.0
H941 H 0.17783 0.39218 0.7502 0.0
H942 H 0.18402 0.3868 0.85241 0.0
H943 H 0.20419 0.39578 0.81877 0.0
H944 H 0.19221 0.31325 0.78617 0.0
C945 C 0.15608 0.31704 0.71973 0.0
C946 C 0.18211 0.37553 0.75787 0.0
C947 C 0.14459 0.31203 0.70074 0.0
C948 C 0.17615 0.36715 0.84259 0.0
C949 C 0.18741 0.37229 0.82334 0.0
C950 C 0.18976 0.33107 0.7785 0.0
C951 C 0.1772 0.34733 0.72636 0.0
C952 C 0.18479 0.3524 0.74756 0.0
C953 C 0.17622 0.34737 0.80995 0.0
C954 C 0.1843 0.35241 0.78883 0.0
H955 H 0.18432 0.3868 0.68398 0.0
H956 H 0.20431 0.39591 0.71768 0.0
H957 H 0.19273 0.31329 0.75067 0.0
H958 H 0.12475 0.28902 0.83952 0.0
H959 H 0.14492 0.29757 0.8065 0.0
C960 C 0.19276 0.88564 0.83768 0.0
C961 C 0.2072 0.875 0.85077 0.0
C962 C 0.18613 0.87438 0.81866 0.0
C963 C 0.21677 0.84666 0.78041 0.0
H964 H 0.14485 0.83859 0.75243 0.0
C965 C 0.21303 0.85166 0.69561 0.0
C966 C 0.20684 0.8752 0.68962 0.0
C967 C 0.20715 0.84082 0.71496 0.0
C968 C 0.16497 0.84048 0.76001 0.0
H969 H 0.22546 0.84364 0.85447 0.0
H970 H 0.21435 0.82407 0.82069 0.0
H971 H 0.14482 0.83837 0.78793 0.0
H972 H 0.18831 0.90468 0.6986 0.0
H973 H 0.17711 0.88528 0.7318 0.0
H974 H 0.23755 0.85046 0.75237 0.0
C975 C 0.20777 0.8409 0.82536 0.0
C976 C 0.16497 0.84036 0.78036 0.0
C977 C 0.21384 0.85182 0.8447 0.0
C978 C 0.19306 0.88633 0.70282 0.0
C979 C 0.18658 0.87512 0.72186 0.0
C980 C 0.21676 0.84674 0.75996 0.0
C981 C 0.19433 0.85254 0.81202 0.0
C982 C 0.19141 0.84486 0.79083 0.0
C983 C 0.19429 0.85287 0.72839 0.0
C984 C 0.19139 0.84504 0.74955 0.0
H985 H 0.18768 0.90373 0.84196 0.0
H986 H 0.17623 0.88425 0.80881 0.0
H987 H 0.23758 0.85034 0.78799 0.0
H988 H 0.22412 0.84308 0.68574 0.0
H989 H 0.21336 0.82367 0.71957 0.0
C990 C 0.66454 0.81665 0.69475 0.0
C991 C 0.6939 0.82175 0.6887 0.0
C992 C 0.66013 0.82309 0.71409 0.0
C993 C 0.70332 0.86492 0.75898 0.0
H994 H 0.63905 0.79398 0.78725 0.0
C995 C 0.71954 0.83709 0.837 0.0
C996 C 0.69439 0.82347 0.85005 0.0
C997 C 0.71524 0.8438 0.81791 0.0
C998 C 0.65665 0.81436 0.77959 0.0
H999 H 0.74181 0.83891 0.69757 0.0
H1000 H 0.73456 0.85107 0.73073 0.0
H1001 H 0.63894 0.79353 0.75163 0.0
H1002 H 0.645 0.80678 0.8536 0.0
H1003 H 0.63712 0.81808 0.81973 0.0
H1004 H 0.72203 0.88506 0.78683 0.0
C1005 C 0.71483 0.84205 0.72085 0.0
C1006 C 0.65658 0.81409 0.75914 0.0
C1007 C 0.71901 0.83502 0.70183 0.0
C1008 C 0.66487 0.81779 0.84387 0.0
C1009 C 0.66035 0.82395 0.82447 0.0
C1010 C 0.70337 0.8652 0.77934 0.0
C1011 C 0.68521 0.8354 0.72745 0.0
C1012 C 0.68073 0.8388 0.74862 0.0
C1013 C 0.68545 0.8365 0.81117 0.0
C1014 C 0.68085 0.83934 0.78992 0.0
H1015 H 0.6447 0.80596 0.68495 0.0
H1016 H 0.63702 0.81771 0.71874 0.0
H1017 H 0.72195 0.88456 0.75133 0.0
H1018 H 0.74245 0.84137 0.84136 0.0
H1019 H 0.73502 0.85301 0.8081 0.0
C1020 C 0.21843 0.91415 0.97459 0.0
C1021 C 0.23807 0.91912 0.95858 0.0
C1022 C 0.22778 0.93632 0.9896 0.0
C1023 C 0.28204 0.01997 1.00069 0.0
H1024 H 0.26954 0.99263 0.05447 0.0
C1025 C 0.30907 0.105 0.06626 0.0
C1026 C 0.32503 0.10115 0.08201 0.0
C1027 C 0.2973 0.08301 0.05107 0.0
C1028 C 0.27325 1.00068 0.03953 0.0
H1029 H 0.28321 0.95104 0.94599 0.0
H1030 H 0.29929 0.98985 0.97193 0.0
H1031 H 0.25135 0.95397 0.02833 0.0
H1032 H 0.34174 0.07152 0.09389 0.0
H1033 H 0.32075 0.03305 0.06777 0.0
H1034 H 0.30417 0.06672 1.01193 0.0
C1035 C 0.27652 0.96899 0.97285 0.0
C1036 C 0.26256 0.97848 0.02453 0.0
C1037 C 0.26733 0.94667 0.95799 0.0
C1038 C 0.32907 0.07494 0.08216 0.0
C1039 C 0.31701 0.05283 0.06717 0.0
C1040 C 0.2924 0.04218 1.01571 0.0
C1041 C 0.25691 0.96414 0.98889 0.0
C1042 C 0.26709 0.9878 1.00489 0.0
C1043 C 0.30094 0.0565 0.05139 0.0
C1044 C 0.28846 0.03286 0.03534 0.0
H1045 H 0.19578 0.89313 0.9755 0.0
H1046 H 0.212 0.93187 1.00166 0.0
H1047 H 0.28568 0.02801 0.98575 0.0
H1048 H 0.30564 0.12498 0.06568 0.0
H1049 H 0.28494 0.08653 0.03919 0.0
C1050 C 0.76184 0.69182 0.45726 0.0
C1051 C 0.79228 0.69632 0.45743 0.0
C1052 C 0.75147 0.70353 0.4723 0.0
C1053 C 0.77903 0.76223 0.51199 0.0
H1054 H 0.69516 0.71028 0.53208 0.0
C1055 C 0.72002 0.80839 0.56583 0.0
C1056 C 0.70263 0.78846 0.58117 0.0
C1057 C 0.7317 0.79775 0.55084 0.0
C1058 C 0.71871 0.72508 0.52673 0.0
H1059 H 0.83578 0.71674 0.47354 0.0
H1060 H 0.81774 0.73732 0.49986 0.0
H1061 H 0.71428 0.69062 0.5061 0.0
H1062 H 0.68371 0.7417 0.59276 0.0
H1063 H 0.7039 0.72315 0.56672 0.0
H1064 H 0.78344 0.79665 0.53275 0.0
C1065 C 0.8019 0.72487 0.48801 0.0
C1066 C 0.72959 0.7139 0.51167 0.0
C1067 C 0.8122 0.71292 0.47299 0.0
C1068 C 0.69704 0.75765 0.58115 0.0
C1069 C 0.70849 0.74696 0.56614 0.0
C1070 C 0.76803 0.77355 0.52697 0.0
C1071 C 0.77131 0.72019 0.48792 0.0
C1072 C 0.75991 0.73227 0.50408 0.0
C1073 C 0.72595 0.76682 0.55074 0.0
C1074 C 0.73773 0.75508 0.5346 0.0
H1075 H 0.7459 0.67912 0.44548 0.0
H1076 H 0.72793 0.69977 0.47158 0.0
H1077 H 0.8024 0.77715 0.50642 0.0
H1078 H 0.72469 0.83224 0.56543 0.0
H1079 H 0.74479 0.81362 0.53915 0.0
C1080 C 0.08178 0.32808 0.95553 0.0
C1081 C 0.10952 0.32671 0.95626 0.0
C1082 C 0.05966 0.3153 0.97051 0.0
C1083 C 1.00901 0.27065 0.9986 0.0
H1084 H 0.03654 0.28455 0.05237 0.0
C1085 C 0.9233 0.21136 0.06329 0.0
C1086 C 0.9273 0.23024 0.07955 0.0
C1087 C 0.94558 0.2221 0.0483 0.0
C1088 C 0.02842 0.28052 0.03743 0.0
H1089 H 0.13607 0.31139 0.97352 0.0
H1090 H 0.09757 0.28926 0.99981 0.0
H1091 H 0.07516 0.30546 0.02624 0.0
H1092 H 0.95765 0.27536 0.09268 0.0
H1093 H 0.99655 0.29394 0.06673 0.0
H1094 H 0.96226 0.24605 1.00979 0.0
C1095 C 0.09286 0.30017 0.9876 0.0
C1096 C 0.05061 0.29226 0.02243 0.0
C1097 C 0.1149 0.31276 0.97251 0.0
C1098 C 0.95404 0.26008 0.08046 0.0
C1099 C 0.97642 0.2707 0.0656 0.0
C1100 C 0.98683 0.25869 1.0136 0.0
C1101 C 0.06485 0.30113 0.98676 0.0
C1102 C 0.04123 0.28772 1.00279 0.0
C1103 C 0.9725 0.25192 0.04926 0.0
C1104 C 0.9962 0.26366 0.03324 0.0
H1105 H 0.07712 0.33905 0.94333 0.0
H1106 H 0.03866 0.31696 0.96948 0.0
H1107 H 1.00089 0.26638 0.98366 0.0
H1108 H 0.90292 0.18829 0.06214 0.0
H1109 H 0.94189 0.20689 0.03604 0.0
C1110 C 0.31384 0.10484 0.47523 0.0
C1111 C 0.3286 0.10087 0.45891 0.0
C1112 C 0.302 0.08233 0.49008 0.0
C1113 C 0.27651 0.99917 0.50049 0.0
H1114 H 0.28951 0.0259 0.55438 0.0
C1115 C 0.22041 0.91221 0.56513 0.0
C1116 C 0.23951 0.91718 0.58146 0.0
C1117 C 0.23034 0.93435 0.55006 0.0
C1118 C 0.28576 0.018 0.53941 0.0
H1119 H 0.343 0.07042 0.44553 0.0
H1120 H 0.32218 0.0311 0.47127 0.0
H1121 H 0.30866 0.06486 0.52845 0.0
H1122 H 0.28429 0.94894 0.59457 0.0
H1123 H 0.30148 0.98754 0.56848 0.0
H1124 H 0.25395 0.95229 0.51148 0.0
C1125 C 0.31935 0.05137 0.47255 0.0
C1126 C 0.29647 0.04037 0.52451 0.0
C1127 C 0.33139 0.07398 0.4578 0.0
C1128 C 0.26885 0.94459 0.5823 0.0
C1129 C 0.27866 0.9668 0.56735 0.0
C1130 C 0.26557 0.97677 0.5154 0.0
C1131 C 0.30453 0.05523 0.48893 0.0
C1132 C 0.29221 0.0313 0.50483 0.0
C1133 C 0.25955 0.96205 0.55102 0.0
C1134 C 0.27026 0.98587 0.53508 0.0
H1135 H 0.31137 0.12533 0.47652 0.0
H1136 H 0.29052 0.086 0.50238 0.0
H1137 H 0.2725 0.99127 0.48552 0.0
H1138 H 0.19771 0.8913 0.56404 0.0
H1139 H 0.21491 0.92998 0.53779 0.0
C1140 C 0.76419 0.69051 0.08005 0.0
C1141 C 0.79492 0.69578 0.08015 0.0
C1142 C 0.75378 0.7023 0.06505 0.0
C1143 C 0.7813 0.76214 0.02597 0.0
H1144 H 0.69759 0.7101 1.00557 0.0
C1145 C 0.72212 0.80901 0.9727 0.0
C1146 C 0.70441 0.78927 0.95736 0.0
C1147 C 0.73389 0.79812 0.98752 0.0
C1148 C 0.72111 0.72493 1.01099 0.0
H1149 H 0.83883 0.71752 0.06453 0.0
H1150 H 0.82067 0.73812 0.03822 0.0
H1151 H 0.71693 0.6901 0.03124 0.0
H1152 H 0.68502 0.74258 0.94559 0.0
H1153 H 0.70551 0.72363 0.97128 0.0
H1154 H 0.78549 0.79689 1.00554 0.0
C1155 C 0.80466 0.72508 0.04987 0.0
C1156 C 0.73211 0.71355 0.02589 0.0
C1157 C 0.81503 0.71311 0.06486 0.0
C1158 C 0.69861 0.75839 0.95721 0.0
C1159 C 0.71022 0.74747 0.97202 0.0
C1160 C 0.7702 0.77363 1.01112 0.0
C1161 C 0.77382 0.71973 0.04971 0.0
C1162 C 0.76236 0.73196 0.03363 0.0
C1163 C 0.728 0.76714 0.98743 0.0
C1164 C 0.73994 0.75515 1.00339 0.0
H1165 H 0.7481 0.67722 0.09161 0.0
H1166 H 0.73004 0.69801 0.06561 0.0
H1167 H 0.80461 0.77711 0.03165 0.0
H1168 H 0.72694 0.8329 0.97324 0.0
H1169 H 0.74719 0.81386 0.99923 0.0
C1170 C 0.08056 0.32662 0.58099 0.0
C1171 C 0.1077 0.32417 0.58032 0.0
C1172 C 0.05836 0.31439 0.56599 0.0
C1173 C 1.0071 0.27052 0.53778 0.0
H1174 H 0.03482 0.28462 0.48408 0.0
C1175 C 0.92171 0.21254 0.47267 0.0
C1176 C 0.92586 0.2317 0.45652 0.0
C1177 C 0.94386 0.22299 0.48776 0.0
C1178 C 0.02665 0.28054 0.49899 0.0
H1179 H 0.13311 0.30748 0.56316 0.0
H1180 H 0.09453 0.2864 0.53682 0.0
H1181 H 0.07338 0.30453 0.51034 0.0
H1182 H 0.95625 0.27709 0.44375 0.0
H1183 H 0.99502 0.29514 0.46986 0.0
H1184 H 0.96036 0.24676 0.52643 0.0
C1185 C 0.09033 0.29768 0.549 0.0
C1186 C 0.0488 0.29171 0.51407 0.0
C1187 C 0.1124 0.30966 0.56412 0.0
C1188 C 0.95257 0.26158 0.45585 0.0
C1189 C 0.97485 0.2719 0.47081 0.0
C1190 C 0.98496 0.25908 0.52271 0.0
C1191 C 0.06293 0.29977 0.54977 0.0
C1192 C 0.03933 0.28706 0.53368 0.0
C1193 C 0.9708 0.25279 0.48701 0.0
C1194 C 0.99441 0.26413 0.5031 0.0
H1195 H 0.07645 0.33804 0.59314 0.0
H1196 H 0.03782 0.31686 0.56695 0.0
H1197 H 0.99894 0.26623 0.55269 0.0
H1198 H 0.90133 0.18943 0.47364 0.0
H1199 H 0.94007 0.20755 0.49992 0.0
C1200 C 0.67481 0.18775 0.14383 0.0
C1201 C 0.68043 0.16767 0.13224 0.0
C1202 C 0.64436 0.18242 0.14621 0.0
C1203 C 0.56083 0.12189 0.14195 0.0
H1204 H 0.54811 0.1925 0.13485 0.0
C1205 C 0.43755 0.10811 0.1322 0.0
C1206 C 0.43271 0.13175 0.13975 0.0
C1207 C 0.4674 0.11126 0.13265 0.0
C1208 C 0.55117 0.17254 0.13721 0.0
H1209 H 0.65837 0.12553 0.11476 0.0
H1210 H 0.60538 0.11631 0.11887 0.0
H1211 H 0.60079 0.20038 0.1338 0.0
H1212 H 0.45499 0.17641 0.15465 0.0
H1213 H 0.5064 0.18141 0.156 0.0
H1214 H 0.51119 0.09403 0.14545 0.0
C1215 C 0.62444 0.13619 0.12609 0.0
C1216 C 0.58147 0.17712 0.13657 0.0
C1217 C 0.65485 0.14166 0.12357 0.0
C1218 C 0.45799 0.15795 0.14843 0.0
C1219 C 0.48761 0.16093 0.14909 0.0
C1220 C 0.53048 0.11733 0.14275 0.0
C1221 C 0.61885 0.15669 0.13724 0.0
C1222 C 0.58667 0.15185 0.13884 0.0
C1223 C 0.49294 0.13798 0.14086 0.0
C1224 C 0.52522 0.1426 0.14034 0.0
H1225 H 0.69403 0.20801 0.15065 0.0
H1226 H 0.64076 0.19849 0.15504 0.0
H1227 H 0.5641 0.10198 0.14392 0.0
H1228 H 0.41855 0.0877 0.12535 0.0
H1229 H 0.47061 0.09321 0.12602 0.0
C1230 C 0.68975 0.59319 0.39997 0.0
C1231 C 0.7184 0.59709 0.39334 0.0
C1232 C 0.66261 0.56377 0.39931 0.0
C1233 C 0.62728 0.48503 0.37703 0.0
H1234 H 0.58064 0.45756 0.42525 0.0
C1235 C 0.53571 0.35505 0.39192 0.0
C1236 C 0.50965 0.34856 0.40342 0.0
C1237 C 0.55988 0.38592 0.38922 0.0
C1238 C 0.59295 0.4649 0.41152 0.0
H1239 H 0.74061 0.57348 0.37984 0.0
H1240 H 0.69335 0.52248 0.37851 0.0
H1241 H 0.62402 0.51075 0.42248 0.0
H1242 H 0.4877 0.36941 0.42023 0.0
H1243 H 0.52918 0.423 0.41517 0.0
H1244 H 0.59618 0.43919 0.36602 0.0
C1245 C 0.69182 0.54205 0.38429 0.0
C1246 C 0.61791 0.49549 0.40996 0.0
C1247 C 0.71896 0.5713 0.38516 0.0
C1248 C 0.50779 0.37362 0.4116 0.0
C1249 C 0.53168 0.40439 0.40875 0.0
C1250 C 0.60209 0.45446 0.37851 0.0
C1251 C 0.66347 0.53775 0.39176 0.0
C1252 C 0.63554 0.50587 0.39277 0.0
C1253 C 0.55835 0.41102 0.39779 0.0
C1254 C 0.58469 0.44387 0.39584 0.0
H1255 H 0.68852 0.61254 0.4064 0.0
H1256 H 0.64103 0.56126 0.405 0.0
H1257 H 0.64027 0.49241 0.36353 0.0
H1258 H 0.53785 0.3362 0.3855 0.0
H1259 H 0.58013 0.38998 0.38086 0.0
C1260 C 0.86808 0.30319 0.14489 0.0
C1261 C 0.8967 0.30486 0.14051 0.0
C1262 C 0.86603 0.33023 0.14652 0.0
C1263 C 0.90485 0.41245 0.13087 0.0
H1264 H 0.84939 0.4175 0.16875 0.0
C1265 C 0.89112 0.52168 0.13804 0.0
C1266 C 0.86051 0.51635 0.14025 0.0
C1267 C 0.89732 0.49706 0.13942 0.0
C1268 C 0.86478 0.41636 0.15798 0.0
H1269 H 0.94585 0.3366 0.13484 0.0
H1270 H 0.94229 0.38409 0.13783 0.0
H1271 H 0.85795 0.37304 0.16927 0.0
H1272 H 0.81248 0.48089 0.14596 0.0
H1273 H 0.82321 0.43784 0.14816 0.0
H1274 H 0.91141 0.45565 0.11947 0.0
C1275 C 0.92135 0.36164 0.1398 0.0
C1276 C 0.86974 0.39087 0.15829 0.0
C1277 C 0.92344 0.33444 0.13822 0.0
C1278 C 0.83629 0.48579 0.14407 0.0
C1279 C 0.84251 0.46116 0.14552 0.0
C1280 C 0.89994 0.43799 0.13059 0.0
C1281 C 0.89252 0.35982 0.14384 0.0
C1282 C 0.88948 0.38834 0.14456 0.0
C1283 C 0.87308 0.46646 0.14309 0.0
C1284 C 0.87952 0.44006 0.14399 0.0
H1285 H 0.84693 0.28088 0.14679 0.0
H1286 H 0.84336 0.32783 0.14936 0.0
H1287 H 0.91987 0.41108 0.11992 0.0
H1288 H 0.9103 0.54484 0.13483 0.0
H1289 H 0.92116 0.50204 0.13764 0.0
C1290 C 0.45514 0.15623 0.38663 0.0
C1291 C 0.43053 0.13024 0.39591 0.0
C1292 C 0.4847 0.1592 0.38513 0.0
C1293 C 0.5287 0.11645 0.39106 0.0
H1294 H 0.59852 0.19998 0.39952 0.0
C1295 C 0.6534 0.14231 0.4109 0.0
C1296 C 0.67891 0.16833 0.40222 0.0
C1297 C 0.6229 0.13648 0.40813 0.0
C1298 C 0.57934 0.17658 0.39687 0.0
H1299 H 0.41736 0.08642 0.41033 0.0
H1300 H 0.4693 0.09192 0.40821 0.0
H1301 H 0.54564 0.19152 0.39844 0.0
H1302 H 0.69229 0.20833 0.38352 0.0
H1303 H 0.63887 0.19821 0.3787 0.0
H1304 H 0.56268 0.10155 0.39013 0.0
C1305 C 0.46563 0.10981 0.40174 0.0
C1306 C 0.54892 0.17167 0.39619 0.0
C1307 C 0.43583 0.10664 0.40301 0.0
C1308 C 0.67313 0.18807 0.39036 0.0
C1309 C 0.64258 0.18239 0.38773 0.0
C1310 C 0.55918 0.12135 0.3919 0.0
C1311 C 0.49065 0.1365 0.39314 0.0
C1312 C 0.52312 0.14154 0.39331 0.0
C1313 C 0.61714 0.15665 0.39671 0.0
C1314 C 0.58484 0.15147 0.39487 0.0
H1315 H 0.4517 0.17463 0.38074 0.0
H1316 H 0.50303 0.17963 0.37791 0.0
H1317 H 0.50954 0.093 0.38855 0.0
H1318 H 0.65704 0.12643 0.41993 0.0
H1319 H 0.60389 0.11661 0.41538 0.0
C1320 C 0.52678 0.36285 0.12015 0.0
C1321 C 0.51073 0.3455 0.13672 0.0
C1322 C 0.55126 0.39371 0.12188 0.0
C1323 C 0.60845 0.45008 0.15723 0.0
H1324 H 0.61794 0.51108 0.11833 0.0
C1325 C 0.72243 0.56809 0.14853 0.0
C1326 C 0.7209 0.59475 0.14309 0.0
C1327 C 0.69545 0.53874 0.1494 0.0
C1328 C 0.61546 0.49449 0.12947 0.0
H1329 H 0.50843 0.34719 0.16818 0.0
H1330 H 0.55076 0.40112 0.17116 0.0
H1331 H 0.57362 0.45804 0.11649 0.0
H1332 H 0.68934 0.61133 0.13483 0.0
H1333 H 0.64201 0.55995 0.13652 0.0
H1334 H 0.65013 0.48657 0.17031 0.0
C1335 C 0.54456 0.39075 0.15681 0.0
C1336 C 0.59024 0.46389 0.12826 0.0
C1337 C 0.52004 0.35986 0.15508 0.0
C1338 C 0.69142 0.59136 0.1391 0.0
C1339 C 0.66431 0.56184 0.1399 0.0
C1340 C 0.63366 0.48066 0.15844 0.0
C1341 C 0.56043 0.40817 0.14022 0.0
C1342 C 0.58657 0.44115 0.14199 0.0
C1343 C 0.66605 0.53507 0.14483 0.0
C1344 C 0.63775 0.5032 0.14444 0.0
H1345 H 0.52006 0.3528 0.10575 0.0
H1346 H 0.56318 0.40618 0.1088 0.0
H1347 H 0.60657 0.43324 0.16801 0.0
H1348 H 0.74466 0.56967 0.15174 0.0
H1349 H 0.69786 0.51873 0.15301 0.0
C1350 C 0.88857 0.52241 0.39862 0.0
C1351 C 0.85779 0.51667 0.3965 0.0
C1352 C 0.8952 0.49811 0.39699 0.0
C1353 C 0.86372 0.41797 0.3778 0.0
H1354 H 0.91858 0.41238 0.41603 0.0
C1355 C 0.86733 0.30492 0.39048 0.0
C1356 C 0.89589 0.30657 0.39509 0.0
C1357 C 0.86526 0.33195 0.38886 0.0
C1358 C 0.90365 0.41385 0.40502 0.0
H1359 H 0.80994 0.48085 0.39064 0.0
H1360 H 0.82145 0.43837 0.38795 0.0
H1361 H 0.90971 0.45669 0.41671 0.0
H1362 H 0.94494 0.33828 0.40114 0.0
H1363 H 0.94136 0.38577 0.39815 0.0
H1364 H 0.85737 0.37501 0.36622 0.0
C1365 C 0.84052 0.46176 0.39074 0.0
C1366 C 0.8985 0.43924 0.40544 0.0
C1367 C 0.83386 0.48605 0.39247 0.0
C1368 C 0.92258 0.33614 0.39758 0.0
C1369 C 0.92047 0.36334 0.396 0.0
C1370 C 0.86893 0.39265 0.37734 0.0
C1371 C 0.87125 0.46746 0.39312 0.0
C1372 C 0.87811 0.44138 0.392 0.0
C1373 C 0.89168 0.36152 0.39177 0.0
C1374 C 0.88856 0.38999 0.39114 0.0
H1375 H 0.90752 0.54562 0.40199 0.0
H1376 H 0.91915 0.50337 0.39875 0.0
H1377 H 0.84836 0.41918 0.367 0.0
H1378 H 0.84622 0.28262 0.38841 0.0
H1379 H 0.84262 0.32954 0.38587 0.0
C1380 C 0.19552 0.66527 0.64935 0.0
C1381 C 0.17219 0.67234 0.64421 0.0
C1382 C 0.18846 0.63421 0.65113 0.0
C1383 C 0.13164 0.55448 0.63471 0.0
H1384 H 0.16882 0.52959 0.67561 0.0
C1385 C 0.10724 0.42718 0.6416 0.0
C1386 C 0.13383 0.42435 0.64487 0.0
C1387 C 0.10893 0.45625 0.64351 0.0
C1388 C 0.15836 0.53617 0.66403 0.0
H1389 H 0.1231 0.65214 0.63684 0.0
H1390 H 0.11076 0.59807 0.64019 0.0
H1391 H 0.17801 0.58283 0.67491 0.0
H1392 H 0.18271 0.44974 0.65347 0.0
H1393 H 0.18561 0.49989 0.65661 0.0
H1394 H 0.11254 0.50801 0.62358 0.0
C1395 C 0.13455 0.61654 0.64276 0.0
C1396 C 0.16367 0.56673 0.66362 0.0
C1397 C 0.14157 0.64758 0.64107 0.0
C1398 C 0.16174 0.45095 0.65075 0.0
C1399 C 0.16337 0.47981 0.65271 0.0
C1400 C 0.12638 0.52391 0.63509 0.0
C1401 C 0.15793 0.60945 0.64771 0.0
C1402 C 0.15075 0.5764 0.64881 0.0
C1403 C 0.13716 0.483 0.64887 0.0
C1404 C 0.14008 0.5145 0.64958 0.0
H1405 H 0.21928 0.68376 0.65197 0.0
H1406 H 0.20711 0.62959 0.65477 0.0
H1407 H 0.12158 0.56122 0.62297 0.0
H1408 H 0.0854 0.40718 0.63705 0.0
H1409 H 0.0882 0.45782 0.64064 0.0
C1410 C 0.34258 0.91726 0.90244 0.0
C1411 C 0.31403 0.89387 0.89475 0.0
C1412 C 0.36941 0.91436 0.9014 0.0
C1413 C 0.39161 0.85311 0.89518 0.0
H1414 H 0.4756 0.92378 0.89084 0.0
C1415 C 0.50004 0.83759 0.88936 0.0
C1416 C 0.52541 0.85697 0.90145 0.0
C1417 C 0.47506 0.84317 0.88691 0.0
C1418 C 0.45227 0.90382 0.89215 0.0
H1419 H 0.29174 0.8502 0.87878 0.0
H1420 H 0.33841 0.84574 0.87633 0.0
H1421 H 0.4309 0.93213 0.88916 0.0
H1422 H 0.54497 0.89817 0.91978 0.0
H1423 H 0.50148 0.9078 0.91555 0.0
H1424 H 0.41298 0.82483 0.89814 0.0
C1425 C 0.34006 0.86575 0.88384 0.0
C1426 C 0.42662 0.90861 0.89124 0.0
C1427 C 0.31328 0.86845 0.8851 0.0
C1428 C 0.5256 0.88254 0.91057 0.0
C1429 C 0.50082 0.88827 0.90799 0.0
C1430 C 0.41721 0.84832 0.89593 0.0
C1431 C 0.36832 0.88817 0.89245 0.0
C1432 C 0.39589 0.88332 0.89283 0.0
C1433 C 0.47506 0.86847 0.8963 0.0
C1434 C 0.44787 0.8736 0.89454 0.0
H1435 H 0.34386 0.93702 0.91007 0.0
H1436 H 0.39064 0.93203 0.90832 0.0
H1437 H 0.36844 0.83308 0.89692 0.0
H1438 H 0.49915 0.81767 0.88218 0.0
H1439 H 0.4557 0.82763 0.87766 0.0
C1440 C 0.59845 0.68629 0.63803 0.0
C1441 C 0.60232 0.71521 0.64398 0.0
C1442 C 0.56899 0.65924 0.63891 0.0
C1443 C 0.49036 0.62498 0.66115 0.0
H1444 H 0.46259 0.57572 0.6139 0.0
C1445 C 0.36029 0.53233 0.64732 0.0
C1446 C 0.35382 0.50578 0.63638 0.0
C1447 C 0.39117 0.55666 0.64975 0.0
C1448 C 0.47003 0.58878 0.62738 0.0
H1449 H 0.5786 0.73807 0.65643 0.0
H1450 H 0.52751 0.69094 0.65816 0.0
H1451 H 0.51578 0.6194 0.61606 0.0
H1452 H 0.37468 0.4831 0.62034 0.0
H1453 H 0.42833 0.52486 0.62497 0.0
H1454 H 0.44465 0.59432 0.67253 0.0
C1455 C 0.54714 0.68915 0.65274 0.0
C1456 C 0.5006 0.61391 0.62858 0.0
C1457 C 0.57643 0.7162 0.65163 0.0
C1458 C 0.37889 0.50356 0.62853 0.0
C1459 C 0.40969 0.52762 0.63113 0.0
C1460 C 0.45982 0.59962 0.66004 0.0
C1461 C 0.54291 0.66047 0.64602 0.0
C1462 C 0.51107 0.63247 0.64541 0.0
C1463 C 0.4163 0.55478 0.64148 0.0
C1464 C 0.44913 0.58128 0.64306 0.0
H1465 H 0.61788 0.68472 0.63202 0.0
H1466 H 0.56651 0.6374 0.6338 0.0
H1467 H 0.49783 0.63871 0.67438 0.0
H1468 H 0.34141 0.53473 0.65347 0.0
H1469 H 0.39523 0.5773 0.65764 0.0
C1470 C 0.14663 0.64851 0.91007 0.0
C1471 C 0.1731 0.67323 0.90124 0.0
C1472 C 0.13927 0.61759 0.90725 0.0
C1473 C 0.15711 0.56644 0.87624 0.0
H1474 H 0.12526 0.51119 0.92085 0.0
C1475 C 0.15789 0.45008 0.88274 0.0
C1476 C 0.1321 0.42442 0.89151 0.0
C1477 C 0.15973 0.47919 0.8818 0.0
C1478 C 0.13368 0.52615 0.90816 0.0
H1479 H 0.21233 0.68484 0.88222 0.0
H1480 H 0.20004 0.63082 0.87765 0.0
H1481 H 0.13545 0.5645 0.92355 0.0
H1482 H 0.08746 0.40903 0.90554 0.0
H1483 H 0.0908 0.46011 0.90403 0.0
H1484 H 0.15632 0.52809 0.86114 0.0
C1485 C 0.18454 0.63525 0.88648 0.0
C1486 C 0.13953 0.55681 0.90968 0.0
C1487 C 0.19171 0.66626 0.88914 0.0
C1488 C 0.10758 0.42828 0.89864 0.0
C1489 C 0.10961 0.45758 0.89792 0.0
C1490 C 0.15153 0.5358 0.87479 0.0
C1491 C 0.15837 0.61047 0.89569 0.0
C1492 C 0.15145 0.57749 0.89377 0.0
C1493 C 0.13599 0.4835 0.88979 0.0
C1494 C 0.13988 0.51534 0.89077 0.0
H1495 H 0.13149 0.6531 0.91917 0.0
H1496 H 0.11851 0.59924 0.91419 0.0
H1497 H 0.16577 0.5814 0.86357 0.0
H1498 H 0.17715 0.44791 0.87703 0.0
H1499 H 0.18044 0.49867 0.87557 0.0
C1500 C 0.34159 0.91584 0.63874 0.0
C1501 C 0.31317 0.89293 0.64683 0.0
C1502 C 0.36829 0.91274 0.6398 0.0
C1503 C 0.38998 0.85128 0.64677 0.0
H1504 H 0.47435 0.92171 0.64951 0.0
C1505 C 0.49829 0.8353 0.65154 0.0
C1506 C 0.52303 0.85405 0.63891 0.0
C1507 C 0.47352 0.84111 0.65424 0.0
C1508 C 0.45091 0.90181 0.64866 0.0
H1509 H 0.29102 0.84995 0.6635 0.0
H1510 H 0.33752 0.84515 0.66596 0.0
H1511 H 0.42999 0.93052 0.65154 0.0
H1512 H 0.54174 0.89434 0.61982 0.0
H1513 H 0.49862 0.90439 0.62449 0.0
H1514 H 0.41092 0.82261 0.64392 0.0
C1515 C 0.33913 0.86493 0.65816 0.0
C1516 C 0.42544 0.90686 0.64976 0.0
C1517 C 0.31246 0.86783 0.65689 0.0
C1518 C 0.52283 0.87921 0.62946 0.0
C1519 C 0.49828 0.88518 0.6323 0.0
C1520 C 0.4154 0.84624 0.64584 0.0
C1521 C 0.36721 0.88683 0.64915 0.0
C1522 C 0.39458 0.88167 0.64872 0.0
C1523 C 0.47314 0.86603 0.64456 0.0
C1524 C 0.44618 0.87143 0.64662 0.0
H1525 H 0.34284 0.93534 0.63078 0.0
H1526 H 0.38937 0.92999 0.63255 0.0
H1527 H 0.36667 0.8313 0.64546 0.0
H1528 H 0.49772 0.81571 0.65899 0.0
H1529 H 0.45462 0.82607 0.66392 0.0
C1530 C 0.59898 0.68788 0.89633 0.0
C1531 C 0.60227 0.71769 0.89434 0.0
C1532 C 0.5695 0.66096 0.89451 0.0
C1533 C 0.48869 0.633 0.87617 0.0
H1534 H 0.46519 0.56743 0.91447 0.0
C1535 C 0.36004 0.53909 0.89078 0.0
C1536 C 0.35334 0.50834 0.89429 0.0
C1537 C 0.39101 0.56343 0.88917 0.0
C1538 C 0.47149 0.58531 0.90349 0.0
H1539 H 0.5771 0.74238 0.8883 0.0
H1540 H 0.52621 0.69587 0.88535 0.0
H1541 H 0.51846 0.6116 0.91413 0.0
H1542 H 0.37409 0.47918 0.89893 0.0
H1543 H 0.42799 0.52152 0.89588 0.0
H1544 H 0.44154 0.60699 0.86579 0.0
C1545 C 0.54628 0.69309 0.88812 0.0
C1546 C 0.50208 0.61064 0.90327 0.0
C1547 C 0.57558 0.71987 0.88997 0.0
C1548 C 0.37836 0.50251 0.89597 0.0
C1549 C 0.40931 0.52685 0.89446 0.0
C1550 C 0.4581 0.60774 0.87643 0.0
C1551 C 0.54274 0.66328 0.89057 0.0
C1552 C 0.51098 0.63502 0.88976 0.0
C1553 C 0.41604 0.55765 0.89115 0.0
C1554 C 0.44901 0.58376 0.89024 0.0
H1555 H 0.61901 0.68532 0.89969 0.0
H1556 H 0.56767 0.63834 0.89628 0.0
H1557 H 0.49485 0.65106 0.86533 0.0
H1558 H 0.34133 0.54436 0.88931 0.0
H1559 H 0.39536 0.58693 0.88681 0.0
loop_
_geom_bond_atom_site_label_1
_geom_bond_atom_site_label_2
_geom_bond_distance
_geom_bond_site_symmetry_2
_ccdc_geom_bond_type
Gd0 C3 2.818 . S
Gd0 O20 2.377 . S
Gd0 O22 2.448 . S
Gd0 O23 2.506 . S
Gd0 O24 2.435 . S
Gd0 O25 2.717 . S
Gd0 O27 2.395 . S
Gd0 O31 2.327 . S
Gd1 C12 2.818 . S
Gd1 O21 2.395 . S
Gd1 O25 2.327 . S
Gd1 O26 2.377 . S
Gd1 O28 2.448 . S
Gd1 O29 2.506 . S
Gd1 O30 2.435 . S
Gd1 O31 2.717 . S
C2 O20 1.240 . S
C2 O21 1.240 . S
C3 Gd0 2.818 . S
C3 C4 1.510 . S
C3 O22 1.249 . S
C3 O23 1.252 . S
C4 C3 1.510 . S
C4 C5 1.404 . S
C4 C6 1.352 . S
C5 C4 1.404 . S
C5 C9 1.389 . S
C5 H32 0.930 . S
C6 C4 1.352 . S
C6 C8 1.374 . S
C6 H33 0.931 . S
C7 C8 1.359 . S
C7 C9 1.364 . S
C8 C6 1.374 . S
C8 C7 1.359 . S
C8 H34 0.931 . S
C9 C5 1.389 . S
C9 C7 1.364 . S
C9 H35 0.931 . S
C10 O24 1.256 . S
C10 O25 1.257 . S
C11 O26 1.240 . S
C11 O27 1.240 . S
C12 Gd1 2.818 . S
C12 C13 1.510 . S
C12 O28 1.249 . S
C12 O29 1.252 . S
C13 C12 1.510 . S
C13 C14 1.404 . S
C13 C15 1.352 . S
C14 C13 1.404 . S
C14 C18 1.389 1_545 S
C14 H36 0.930 . S
C15 C13 1.352 . S
C15 C17 1.374 1_545 S
C15 H37 0.931 . S
C16 C17 1.359 . S
C16 C18 1.364 . S
C17 C15 1.374 1_565 S
C17 C16 1.359 . S
C17 H38 0.931 . S
C18 C14 1.389 1_565 S
C18 C16 1.364 . S
C18 H39 0.931 . S
C19 O30 1.256 . S
C19 O31 1.257 . S
O20 Gd0 2.377 . S
O20 C2 1.240 . S
O21 Gd1 2.395 . S
O21 C2 1.240 . S
O22 Gd0 2.448 . S
O22 C3 1.249 . S
O23 Gd0 2.506 . S
O23 C3 1.252 . S
O24 Gd0 2.435 . S
O24 C10 1.256 . S
O25 Gd0 2.717 . S
O25 Gd1 2.327 . S
O25 C10 1.257 . S
O26 Gd1 2.377 . S
O26 C11 1.240 . S
O27 Gd0 2.395 . S
O27 C11 1.240 . S
O28 Gd1 2.448 . S
O28 C12 1.249 . S
O29 Gd1 2.506 . S
O29 C12 1.252 . S
O30 Gd1 2.435 . S
O30 C19 1.256 . S
O31 Gd0 2.327 . S
O31 Gd1 2.717 . S
O31 C19 1.257 . S
H32 C5 0.930 . S
H33 C6 0.931 . S
H34 C8 0.931 . S
H35 C9 0.931 . S
H36 C14 0.930 . S
H37 C15 0.931 . S
H38 C17 0.931 . S
H39 C18 0.931 . S
Gd40 C43 2.818 . S
Gd40 O60 2.377 . S
Gd40 O62 2.448 . S
Gd40 O63 2.506 . S
Gd40 O64 2.435 . S
Gd40 O65 2.717 . S
Gd40 O67 2.395 . S
Gd40 O71 2.327 . S
Gd41 C52 2.818 . S
Gd41 O61 2.395 . S
Gd41 O65 2.327 . S
Gd41 O66 2.377 . S
Gd41 O68 2.448 . S
Gd41 O69 2.506 . S
Gd41 O70 2.435 . S
Gd41 O71 2.717 . S
C42 O60 1.240 . S
C42 O61 1.240 . S
C43 Gd40 2.818 . S
C43 C44 1.510 . S
C43 O62 1.249 . S
C43 O63 1.252 . S
C44 C43 1.510 . S
C44 C45 1.404 . S
C44 C46 1.352 . S
C45 C44 1.404 . S
C45 C49 1.389 . S
C45 H72 0.930 . S
C46 C44 1.352 . S
C46 C48 1.374 . S
C46 H73 0.931 . S
C47 C48 1.359 . S
C47 C49 1.364 . S
C48 C46 1.374 . S
C48 C47 1.359 . S
C48 H74 0.931 . S
C49 C45 1.389 . S
C49 C47 1.364 . S
C49 H75 0.931 . S
C50 O64 1.256 . S
C50 O65 1.257 . S
C51 O66 1.240 . S
C51 O67 1.240 . S
C52 Gd41 2.818 . S
C52 C53 1.510 . S
C52 O68 1.249 . S
C52 O69 1.252 . S
C53 C52 1.510 . S
C53 C54 1.404 . S
C53 C55 1.352 . S
C54 C53 1.404 . S
C54 C58 1.389 . S
C54 H76 0.930 . S
C55 C53 1.352 . S
C55 C57 1.374 . S
C55 H77 0.931 . S
C56 C57 1.359 . S
C56 C58 1.364 . S
C57 C55 1.374 . S
C57 C56 1.359 . S
C57 H78 0.931 . S
C58 C54 1.389 . S
C58 C56 1.364 . S
C58 H79 0.931 . S
C59 O70 1.256 . S
C59 O71 1.257 . S
O60 Gd40 2.377 . S
O60 C42 1.240 . S
O61 Gd41 2.395 . S
O61 C42 1.240 . S
O62 Gd40 2.448 . S
O62 C43 1.249 . S
O63 Gd40 2.506 . S
O63 C43 1.252 . S
O64 Gd40 2.435 . S
O64 C50 1.256 . S
O65 Gd40 2.717 . S
O65 Gd41 2.327 . S
O65 C50 1.257 . S
O66 Gd41 2.377 . S
O66 C51 1.240 . S
O67 Gd40 2.395 . S
O67 C51 1.240 . S
O68 Gd41 2.448 . S
O68 C52 1.249 . S
O69 Gd41 2.506 . S
O69 C52 1.252 . S
O70 Gd41 2.435 . S
O70 C59 1.256 . S
O71 Gd40 2.327 . S
O71 Gd41 2.717 . S
O71 C59 1.257 . S
H72 C45 0.930 . S
H73 C46 0.931 . S
H74 C48 0.931 . S
H75 C49 0.931 . S
H76 C54 0.930 . S
H77 C55 0.931 . S
H78 C57 0.931 . S
H79 C58 0.931 . S
Gd80 C83 2.818 . S
Gd80 O100 2.377 . S
Gd80 O102 2.448 . S
Gd80 O103 2.506 . S
Gd80 O104 2.435 . S
Gd80 O105 2.717 . S
Gd80 O107 2.395 . S
Gd80 O111 2.327 . S
Gd81 C92 2.818 . S
Gd81 O101 2.395 . S
Gd81 O105 2.327 . S
Gd81 O106 2.377 . S
Gd81 O108 2.448 . S
Gd81 O109 2.506 . S
Gd81 O110 2.435 . S
Gd81 O111 2.717 . S
C82 O100 1.240 . S
C82 O101 1.240 . S
C83 Gd80 2.818 . S
C83 C84 1.510 . S
C83 O102 1.249 . S
C83 O103 1.252 . S
C84 C83 1.510 . S
C84 C85 1.404 . S
C84 C86 1.352 . S
C85 C84 1.404 . S
C85 C89 1.389 . S
C85 H112 0.930 . S
C86 C84 1.352 . S
C86 C88 1.374 . S
C86 H113 0.931 . S
C87 C88 1.359 . S
C87 C89 1.364 . S
C88 C86 1.374 . S
C88 C87 1.359 . S
C88 H114 0.931 . S
C89 C85 1.389 . S
C89 C87 1.364 . S
C89 H115 0.931 . S
C90 O104 1.256 . S
C90 O105 1.257 . S
C91 O106 1.240 . S
C91 O107 1.240 . S
C92 Gd81 2.818 . S
C92 C93 1.510 . S
C92 O108 1.249 . S
C92 O109 1.252 . S
C93 C92 1.510 . S
C93 C94 1.404 . S
C93 C95 1.352 . S
C94 C93 1.404 . S
C94 C98 1.389 1_655 S
C94 H116 0.930 . S
C95 C93 1.352 . S
C95 C97 1.374 1_655 S
C95 H117 0.931 . S
C96 C97 1.359 . S
C96 C98 1.364 . S
C97 C95 1.374 1_455 S
C97 C96 1.359 . S
C97 H118 0.931 . S
C98 C94 1.389 1_455 S
C98 C96 1.364 . S
C98 H119 0.931 . S
C99 O110 1.256 . S
C99 O111 1.257 . S
O100 Gd80 2.377 . S
O100 C82 1.240 . S
O101 Gd81 2.395 . S
O101 C82 1.240 . S
O102 Gd80 2.448 . S
O102 C83 1.249 . S
O103 Gd80 2.506 . S
O103 C83 1.252 . S
O104 Gd80 2.435 . S
O104 C90 1.256 . S
O105 Gd80 2.717 . S
O105 Gd81 2.327 . S
O105 C90 1.257 . S
O106 Gd81 2.377 . S
O106 C91 1.240 . S
O107 Gd80 2.395 . S
O107 C91 1.240 . S
O108 Gd81 2.448 . S
O108 C92 1.249 . S
O109 Gd81 2.506 . S
O109 C92 1.252 . S
O110 Gd81 2.435 . S
O110 C99 1.256 . S
O111 Gd80 2.327 . S
O111 Gd81 2.717 . S
O111 C99 1.257 . S
H112 C85 0.930 . S
H113 C86 0.931 . S
H114 C88 0.931 . S
H115 C89 0.931 . S
H116 C94 0.930 . S
H117 C95 0.931 . S
H118 C97 0.931 . S
H119 C98 0.931 . S
Gd120 C123 2.818 . S
Gd120 O140 2.377 . S
Gd120 O142 2.448 . S
Gd120 O143 2.506 . S
Gd120 O144 2.435 . S
Gd120 O145 2.717 . S
Gd120 O147 2.395 . S
Gd120 O151 2.327 . S
Gd121 C132 2.818 . S
Gd121 O141 2.395 . S
Gd121 O145 2.327 . S
Gd121 O146 2.377 . S
Gd121 O148 2.448 . S
Gd121 O149 2.506 . S
Gd121 O150 2.435 . S
Gd121 O151 2.717 . S
C122 O140 1.240 . S
C122 O141 1.240 . S
C123 Gd120 2.818 . S
C123 C124 1.510 . S
C123 O142 1.249 . S
C123 O143 1.252 . S
C124 C123 1.510 . S
C124 C125 1.404 . S
C124 C126 1.352 . S
C125 C124 1.404 . S
C125 C129 1.389 1_545 S
C125 H152 0.930 . S
C126 C124 1.352 . S
C126 C128 1.374 1_545 S
C126 H153 0.931 . S
C127 C128 1.359 . S
C127 C129 1.364 . S
C128 C126 1.374 1_565 S
C128 C127 1.359 . S
C128 H154 0.931 . S
C129 C125 1.389 1_565 S
C129 C127 1.364 . S
C129 H155 0.931 . S
C130 O144 1.256 . S
C130 O145 1.257 . S
C131 O146 1.240 . S
C131 O147 1.240 . S
C132 Gd121 2.818 . S
C132 C133 1.510 . S
C132 O148 1.249 . S
C132 O149 1.252 . S
C133 C132 1.510 . S
C133 C134 1.404 . S
C133 C135 1.352 . S
C134 C133 1.404 . S
C134 C138 1.389 . S
C134 H156 0.930 . S
C135 C133 1.352 . S
C135 C137 1.374 . S
C135 H157 0.931 . S
C136 C137 1.359 . S
C136 C138 1.364 . S
C137 C135 1.374 . S
C137 C136 1.359 . S
C137 H158 0.931 . S
C138 C134 1.389 . S
C138 C136 1.364 . S
C138 H159 0.931 . S
C139 O150 1.256 . S
C139 O151 1.257 . S
O140 Gd120 2.377 . S
O140 C122 1.240 . S
O141 Gd121 2.395 . S
O141 C122 1.240 . S
O142 Gd120 2.448 . S
O142 C123 1.249 . S
O143 Gd120 2.506 . S
O143 C123 1.252 . S
O144 Gd120 2.435 . S
O144 C130 1.256 . S
O145 Gd120 2.717 . S
O145 Gd121 2.327 . S
O145 C130 1.257 . S
O146 Gd121 2.377 . S
O146 C131 1.240 . S
O147 Gd120 2.395 . S
O147 C131 1.240 . S
O148 Gd121 2.448 . S
O148 C132 1.249 . S
O149 Gd121 2.506 . S
O149 C132 1.252 . S
O150 Gd121 2.435 . S
O150 C139 1.256 . S
O151 Gd120 2.327 . S
O151 Gd121 2.717 . S
O151 C139 1.257 . S
H152 C125 0.930 . S
H153 C126 0.931 . S
H154 C128 0.931 . S
H155 C129 0.931 . S
H156 C134 0.930 . S
H157 C135 0.931 . S
H158 C137 0.931 . S
H159 C138 0.931 . S
Gd160 C163 2.818 . S
Gd160 O180 2.377 . S
Gd160 O182 2.448 . S
Gd160 O183 2.506 . S
Gd160 O184 2.435 . S
Gd160 O185 2.717 . S
Gd160 O187 2.395 . S
Gd160 O191 2.327 . S
Gd161 C172 2.818 . S
Gd161 O181 2.395 . S
Gd161 O185 2.327 . S
Gd161 O186 2.377 . S
Gd161 O188 2.448 . S
Gd161 O189 2.506 . S
Gd161 O190 2.435 . S
Gd161 O191 2.717 . S
C162 O180 1.240 . S
C162 O181 1.240 . S
C163 Gd160 2.818 . S
C163 C164 1.510 . S
C163 O182 1.249 . S
C163 O183 1.252 . S
C164 C163 1.510 . S
C164 C165 1.404 . S
C164 C166 1.352 . S
C165 C164 1.404 . S
C165 C169 1.389 . S
C165 H192 0.930 . S
C166 C164 1.352 . S
C166 C168 1.374 . S
C166 H193 0.931 . S
C167 C168 1.359 . S
C167 C169 1.364 . S
C168 C166 1.374 . S
C168 C167 1.359 . S
C168 H194 0.931 . S
C169 C165 1.389 . S
C169 C167 1.364 . S
C169 H195 0.931 . S
C170 O184 1.256 . S
C170 O185 1.257 . S
C171 O186 1.240 . S
C171 O187 1.240 . S
C172 Gd161 2.818 . S
C172 C173 1.510 . S
C172 O188 1.249 . S
C172 O189 1.252 . S
C173 C172 1.510 . S
C173 C174 1.404 . S
C173 C175 1.352 . S
C174 C173 1.404 . S
C174 C178 1.389 . S
C174 H196 0.930 . S
C175 C173 1.352 . S
C175 C177 1.374 . S
C175 H197 0.931 . S
C176 C177 1.359 . S
C176 C178 1.364 . S
C177 C175 1.374 . S
C177 C176 1.359 . S
C177 H198 0.931 . S
C178 C174 1.389 . S
C178 C176 1.364 . S
C178 H199 0.931 . S
C179 O190 1.256 . S
C179 O191 1.257 . S
O180 Gd160 2.377 . S
O180 C162 1.240 . S
O181 Gd161 2.395 . S
O181 C162 1.240 . S
O182 Gd160 2.448 . S
O182 C163 1.249 . S
O183 Gd160 2.506 . S
O183 C163 1.252 . S
O184 Gd160 2.435 . S
O184 C170 1.256 . S
O185 Gd160 2.717 . S
O185 Gd161 2.327 . S
O185 C170 1.257 . S
O186 Gd161 2.377 . S
O186 C171 1.240 . S
O187 Gd160 2.395 . S
O187 C171 1.240 . S
O188 Gd161 2.448 . S
O188 C172 1.249 . S
O189 Gd161 2.506 . S
O189 C172 1.252 . S
O190 Gd161 2.435 . S
O190 C179 1.256 . S
O191 Gd160 2.327 . S
O191 Gd161 2.717 . S
O191 C179 1.257 . S
H192 C165 0.930 . S
H193 C166 0.931 . S
H194 C168 0.931 . S
H195 C169 0.931 . S
H196 C174 0.930 . S
H197 C175 0.931 . S
H198 C177 0.931 . S
H199 C178 0.931 . S
Gd200 C203 2.818 . S
Gd200 O220 2.377 . S
Gd200 O222 2.448 . S
Gd200 O223 2.506 . S
Gd200 O224 2.435 . S
Gd200 O225 2.717 . S
Gd200 O227 2.395 . S
Gd200 O231 2.327 . S
Gd201 C212 2.818 . S
Gd201 O221 2.395 . S
Gd201 O225 2.327 . S
Gd201 O226 2.377 . S
Gd201 O228 2.448 . S
Gd201 O229 2.506 . S
Gd201 O230 2.435 . S
Gd201 O231 2.717 . S
C202 O220 1.240 . S
C202 O221 1.240 . S
C203 Gd200 2.818 . S
C203 C204 1.510 . S
C203 O222 1.249 . S
C203 O223 1.252 . S
C204 C203 1.510 . S
C204 C205 1.404 . S
C204 C206 1.352 . S
C205 C204 1.404 . S
C205 C209 1.389 1_655 S
C205 H232 0.930 . S
C206 C204 1.352 . S
C206 C208 1.374 1_655 S
C206 H233 0.931 . S
C207 C208 1.359 . S
C207 C209 1.364 . S
C208 C206 1.374 1_455 S
C208 C207 1.359 . S
C208 H234 0.931 . S
C209 C205 1.389 1_455 S
C209 C207 1.364 . S
C209 H235 0.931 . S
C210 O224 1.256 . S
C210 O225 1.257 . S
C211 O226 1.240 . S
C211 O227 1.240 . S
C212 Gd201 2.818 . S
C212 C213 1.510 . S
C212 O228 1.249 . S
C212 O229 1.252 . S
C213 C212 1.510 . S
C213 C214 1.404 . S
C213 C215 1.352 . S
C214 C213 1.404 . S
C214 C218 1.389 . S
C214 H236 0.930 . S
C215 C213 1.352 . S
C215 C217 1.374 . S
C215 H237 0.931 . S
C216 C217 1.359 . S
C216 C218 1.364 . S
C217 C215 1.374 . S
C217 C216 1.359 . S
C217 H238 0.931 . S
C218 C214 1.389 . S
C218 C216 1.364 . S
C218 H239 0.931 . S
C219 O230 1.256 . S
C219 O231 1.257 . S
O220 Gd200 2.377 . S
O220 C202 1.240 . S
O221 Gd201 2.395 . S
O221 C202 1.240 . S
O222 Gd200 2.448 . S
O222 C203 1.249 . S
O223 Gd200 2.506 . S
O223 C203 1.252 . S
O224 Gd200 2.435 . S
O224 C210 1.256 . S
O225 Gd200 2.717 . S
O225 Gd201 2.327 . S
O225 C210 1.257 . S
O226 Gd201 2.377 . S
O226 C211 1.240 . S
O227 Gd200 2.395 . S
O227 C211 1.240 . S
O228 Gd201 2.448 . S
O228 C212 1.249 . S
O229 Gd201 2.506 . S
O229 C212 1.252 . S
O230 Gd201 2.435 . S
O230 C219 1.256 . S
O231 Gd200 2.327 . S
O231 Gd201 2.717 . S
O231 C219 1.257 . S
H232 C205 0.930 . S
H233 C206 0.931 . S
H234 C208 0.931 . S
H235 C209 0.931 . S
H236 C214 0.930 . S
H237 C215 0.931 . S
H238 C217 0.931 . S
H239 C218 0.931 . S
Gd240 C243 2.818 . S
Gd240 O260 2.377 . S
Gd240 O262 2.448 . S
Gd240 O263 2.506 . S
Gd240 O264 2.435 . S
Gd240 O265 2.717 . S
Gd240 O267 2.395 . S
Gd240 O271 2.327 . S
Gd241 C252 2.818 . S
Gd241 O261 2.395 . S
Gd241 O265 2.327 . S
Gd241 O266 2.377 . S
Gd241 O268 2.448 . S
Gd241 O269 2.506 . S
Gd241 O270 2.435 . S
Gd241 O271 2.717 . S
C242 O260 1.240 . S
C242 O261 1.240 . S
C243 Gd240 2.818 . S
C243 C244 1.510 . S
C243 O262 1.249 . S
C243 O263 1.252 . S
C244 C243 1.510 . S
C244 C245 1.404 . S
C244 C246 1.352 . S
C245 C244 1.404 . S
C245 C249 1.389 1_455 S
C245 H272 0.930 . S
C246 C244 1.352 . S
C246 C248 1.374 1_455 S
C246 H273 0.931 . S
C247 C248 1.359 . S
C247 C249 1.364 . S
C248 C246 1.374 1_655 S
C248 C247 1.359 . S
C248 H274 0.931 . S
C249 C245 1.389 1_655 S
C249 C247 1.364 . S
C249 H275 0.931 . S
C250 O264 1.256 . S
C250 O265 1.257 . S
C251 O266 1.240 . S
C251 O267 1.240 . S
C252 Gd241 2.818 . S
C252 C253 1.510 . S
C252 O268 1.249 . S
C252 O269 1.252 . S
C253 C252 1.510 . S
C253 C254 1.404 . S
C253 C255 1.352 . S
C254 C253 1.404 . S
C254 C258 1.389 . S
C254 H276 0.930 . S
C255 C253 1.352 . S
C255 C257 1.374 . S
C255 H277 0.931 . S
C256 C257 1.359 . S
C256 C258 1.364 . S
C257 C255 1.374 . S
C257 C256 1.359 . S
C257 H278 0.931 . S
C258 C254 1.389 . S
C258 C256 1.364 . S
C258 H279 0.931 . S
C259 O270 1.256 . S
C259 O271 1.257 . S
O260 Gd240 2.377 . S
O260 C242 1.240 . S
O261 Gd241 2.395 . S
O261 C242 1.240 . S
O262 Gd240 2.448 . S
O262 C243 1.249 . S
O263 Gd240 2.506 . S
O263 C243 1.252 . S
O264 Gd240 2.435 . S
O264 C250 1.256 . S
O265 Gd240 2.717 . S
O265 Gd241 2.327 . S
O265 C250 1.257 . S
O266 Gd241 2.377 . S
O266 C251 1.240 . S
O267 Gd240 2.395 . S
O267 C251 1.240 . S
O268 Gd241 2.448 . S
O268 C252 1.249 . S
O269 Gd241 2.506 . S
O269 C252 1.252 . S
O270 Gd241 2.435 . S
O270 C259 1.256 . S
O271 Gd240 2.327 . S
O271 Gd241 2.717 . S
O271 C259 1.257 . S
H272 C245 0.930 . S
H273 C246 0.931 . S
H274 C248 0.931 . S
H275 C249 0.931 . S
H276 C254 0.930 . S
H277 C255 0.931 . S
H278 C257 0.931 . S
H279 C258 0.931 . S
Gd280 C283 2.818 . S
Gd280 O300 2.377 . S
Gd280 O302 2.448 . S
Gd280 O303 2.506 . S
Gd280 O304 2.435 . S
Gd280 O305 2.717 . S
Gd280 O307 2.395 . S
Gd280 O311 2.327 . S
Gd281 C292 2.818 . S
Gd281 O301 2.395 . S
Gd281 O305 2.327 . S
Gd281 O306 2.377 . S
Gd281 O308 2.448 . S
Gd281 O309 2.506 . S
Gd281 O310 2.435 . S
Gd281 O311 2.717 . S
C282 O300 1.240 . S
C282 O301 1.240 . S
C283 Gd280 2.818 . S
C283 C284 1.510 . S
C283 O302 1.249 . S
C283 O303 1.252 . S
C284 C283 1.510 . S
C284 C285 1.404 . S
C284 C286 1.352 . S
C285 C284 1.404 . S
C285 C289 1.389 . S
C285 H312 0.930 . S
C286 C284 1.352 . S
C286 C288 1.374 . S
C286 H313 0.931 . S
C287 C288 1.359 . S
C287 C289 1.364 . S
C288 C286 1.374 . S
C288 C287 1.359 . S
C288 H314 0.931 . S
C289 C285 1.389 . S
C289 C287 1.364 . S
C289 H315 0.931 . S
C290 O304 1.256 . S
C290 O305 1.257 . S
C291 O306 1.240 . S
C291 O307 1.240 . S
C292 Gd281 2.818 . S
C292 C293 1.510 . S
C292 O308 1.249 . S
C292 O309 1.252 . S
C293 C292 1.510 . S
C293 C294 1.404 . S
C293 C295 1.352 . S
C294 C293 1.404 . S
C294 C298 1.389 1_565 S
C294 H316 0.930 . S
C295 C293 1.352 . S
C295 C297 1.374 1_565 S
C295 H317 0.931 . S
C296 C297 1.359 . S
C296 C298 1.364 . S
C297 C295 1.374 1_545 S
C297 C296 1.359 . S
C297 H318 0.931 . S
C298 C294 1.389 1_545 S
C298 C296 1.364 . S
C298 H319 0.931 . S
C299 O310 1.256 . S
C299 O311 1.257 . S
O300 Gd280 2.377 . S
O300 C282 1.240 . S
O301 Gd281 2.395 . S
O301 C282 1.240 . S
O302 Gd280 2.448 . S
O302 C283 1.249 . S
O303 Gd280 2.506 . S
O303 C283 1.252 . S
O304 Gd280 2.435 . S
O304 C290 1.256 . S
O305 Gd280 2.717 . S
O305 Gd281 2.327 . S
O305 C290 1.257 . S
O306 Gd281 2.377 . S
O306 C291 1.240 . S
O307 Gd280 2.395 . S
O307 C291 1.240 . S
O308 Gd281 2.448 . S
O308 C292 1.249 . S
O309 Gd281 2.506 . S
O309 C292 1.252 . S
O310 Gd281 2.435 . S
O310 C299 1.256 . S
O311 Gd280 2.327 . S
O311 Gd281 2.717 . S
O311 C299 1.257 . S
H312 C285 0.930 . S
H313 C286 0.931 . S
H314 C288 0.931 . S
H315 C289 0.931 . S
H316 C294 0.930 . S
H317 C295 0.931 . S
H318 C297 0.931 . S
H319 C298 0.931 . S
Gd320 C323 2.818 . S
Gd320 O340 2.377 . S
Gd320 O342 2.448 . S
Gd320 O343 2.506 . S
Gd320 O344 2.435 . S
Gd320 O345 2.717 . S
Gd320 O347 2.395 . S
Gd320 O351 2.327 . S
Gd321 C332 2.818 . S
Gd321 O341 2.395 . S
Gd321 O345 2.327 . S
Gd321 O346 2.377 . S
Gd321 O348 2.448 . S
Gd321 O349 2.506 . S
Gd321 O350 2.435 . S
Gd321 O351 2.717 . S
C322 O340 1.240 . S
C322 O341 1.240 . S
C323 Gd320 2.818 . S
C323 C324 1.510 . S
C323 O342 1.249 . S
C323 O343 1.252 . S
C324 C323 1.510 . S
C324 C325 1.404 . S
C324 C326 1.352 . S
C325 C324 1.404 . S
C325 C329 1.389 . S
C325 H352 0.930 . S
C326 C324 1.352 . S
C326 C328 1.374 . S
C326 H353 0.931 . S
C327 C328 1.359 . S
C327 C329 1.364 . S
C328 C326 1.374 . S
C328 C327 1.359 . S
C328 H354 0.931 . S
C329 C325 1.389 . S
C329 C327 1.364 . S
C329 H355 0.931 . S
C330 O344 1.256 . S
C330 O345 1.257 . S
C331 O346 1.240 . S
C331 O347 1.240 . S
C332 Gd321 2.818 . S
C332 C333 1.510 . S
C332 O348 1.249 . S
C332 O349 1.252 . S
C333 C332 1.510 . S
C333 C334 1.404 . S
C333 C335 1.352 . S
C334 C333 1.404 . S
C334 C338 1.389 . S
C334 H356 0.930 . S
C335 C333 1.352 . S
C335 C337 1.374 . S
C335 H357 0.931 . S
C336 C337 1.359 . S
C336 C338 1.364 . S
C337 C335 1.374 . S
C337 C336 1.359 . S
C337 H358 0.931 . S
C338 C334 1.389 . S
C338 C336 1.364 . S
C338 H359 0.931 . S
C339 O350 1.256 . S
C339 O351 1.257 . S
O340 Gd320 2.377 . S
O340 C322 1.240 . S
O341 Gd321 2.395 . S
O341 C322 1.240 . S
O342 Gd320 2.448 . S
O342 C323 1.249 . S
O343 Gd320 2.506 . S
O343 C323 1.252 . S
O344 Gd320 2.435 . S
O344 C330 1.256 . S
O345 Gd320 2.717 . S
O345 Gd321 2.327 . S
O345 C330 1.257 . S
O346 Gd321 2.377 . S
O346 C331 1.240 . S
O347 Gd320 2.395 . S
O347 C331 1.240 . S
O348 Gd321 2.448 . S
O348 C332 1.249 . S
O349 Gd321 2.506 . S
O349 C332 1.252 . S
O350 Gd321 2.435 . S
O350 C339 1.256 . S
O351 Gd320 2.327 . S
O351 Gd321 2.717 . S
O351 C339 1.257 . S
H352 C325 0.930 . S
H353 C326 0.931 . S
H354 C328 0.931 . S
H355 C329 0.931 . S
H356 C334 0.930 . S
H357 C335 0.931 . S
H358 C337 0.931 . S
H359 C338 0.931 . S
Gd360 C363 2.818 . S
Gd360 O380 2.377 . S
Gd360 O382 2.448 . S
Gd360 O383 2.506 . S
Gd360 O384 2.435 . S
Gd360 O385 2.717 . S
Gd360 O387 2.395 . S
Gd360 O391 2.327 . S
Gd361 C372 2.818 . S
Gd361 O381 2.395 . S
Gd361 O385 2.327 . S
Gd361 O386 2.377 . S
Gd361 O388 2.448 . S
Gd361 O389 2.506 . S
Gd361 O390 2.435 . S
Gd361 O391 2.717 . S
C362 O380 1.240 . S
C362 O381 1.240 . S
C363 Gd360 2.818 . S
C363 C364 1.510 . S
C363 O382 1.249 . S
C363 O383 1.252 . S
C364 C363 1.510 . S
C364 C365 1.404 . S
C364 C366 1.352 . S
C365 C364 1.404 . S
C365 C369 1.389 . S
C365 H392 0.930 . S
C366 C364 1.352 . S
C366 C368 1.374 . S
C366 H393 0.931 . S
C367 C368 1.359 . S
C367 C369 1.364 . S
C368 C366 1.374 . S
C368 C367 1.359 . S
C368 H394 0.931 . S
C369 C365 1.389 . S
C369 C367 1.364 . S
C369 H395 0.931 . S
C370 O384 1.256 . S
C370 O385 1.257 . S
C371 O386 1.240 . S
C371 O387 1.240 . S
C372 Gd361 2.818 . S
C372 C373 1.510 . S
C372 O388 1.249 . S
C372 O389 1.252 . S
C373 C372 1.510 . S
C373 C374 1.404 . S
C373 C375 1.352 . S
C374 C373 1.404 . S
C374 C378 1.389 1_455 S
C374 H396 0.930 . S
C375 C373 1.352 . S
C375 C377 1.374 1_455 S
C375 H397 0.931 . S
C376 C377 1.359 . S
C376 C378 1.364 . S
C377 C375 1.374 1_655 S
C377 C376 1.359 . S
C377 H398 0.931 . S
C378 C374 1.389 1_655 S
C378 C376 1.364 . S
C378 H399 0.931 . S
C379 O390 1.256 . S
C379 O391 1.257 . S
O380 Gd360 2.377 . S
O380 C362 1.240 . S
O381 Gd361 2.395 . S
O381 C362 1.240 . S
O382 Gd360 2.448 . S
O382 C363 1.249 . S
O383 Gd360 2.506 . S
O383 C363 1.252 . S
O384 Gd360 2.435 . S
O384 C370 1.256 . S
O385 Gd360 2.717 . S
O385 Gd361 2.327 . S
O385 C370 1.257 . S
O386 Gd361 2.377 . S
O386 C371 1.240 . S
O387 Gd360 2.395 . S
O387 C371 1.240 . S
O388 Gd361 2.448 . S
O388 C372 1.249 . S
O389 Gd361 2.506 . S
O389 C372 1.252 . S
O390 Gd361 2.435 . S
O390 C379 1.256 . S
O391 Gd360 2.327 . S
O391 Gd361 2.717 . S
O391 C379 1.257 . S
H392 C365 0.930 . S
H393 C366 0.931 . S
H394 C368 0.931 . S
H395 C369 0.931 . S
H396 C374 0.930 . S
H397 C375 0.931 . S
H398 C377 0.931 . S
H399 C378 0.931 . S
Gd400 C403 2.818 . S
Gd400 O420 2.377 . S
Gd400 O422 2.448 . S
Gd400 O423 2.506 . S
Gd400 O424 2.435 . S
Gd400 O425 2.717 . S
Gd400 O427 2.395 . S
Gd400 O431 2.327 . S
Gd401 C412 2.818 . S
Gd401 O421 2.395 . S
Gd401 O425 2.327 . S
Gd401 O426 2.377 . S
Gd401 O428 2.448 . S
Gd401 O429 2.506 . S
Gd401 O430 2.435 . S
Gd401 O431 2.717 . S
C402 O420 1.240 . S
C402 O421 1.240 . S
C403 Gd400 2.818 . S
C403 C404 1.510 . S
C403 O422 1.249 . S
C403 O423 1.252 . S
C404 C403 1.510 . S
C404 C405 1.404 . S
C404 C406 1.352 . S
C405 C404 1.404 . S
C405 C409 1.389 1_565 S
C405 H432 0.930 . S
C406 C404 1.352 . S
C406 C408 1.374 1_565 S
C406 H433 0.931 . S
C407 C408 1.359 . S
C407 C409 1.364 . S
C408 C406 1.374 1_545 S
C408 C407 1.359 . S
C408 H434 0.931 . S
C409 C405 1.389 1_545 S
C409 C407 1.364 . S
C409 H435 0.931 . S
C410 O424 1.256 . S
C410 O425 1.257 . S
C411 O426 1.240 . S
C411 O427 1.240 . S
C412 Gd401 2.818 . S
C412 C413 1.510 . S
C412 O428 1.249 . S
C412 O429 1.252 . S
C413 C412 1.510 . S
C413 C414 1.404 . S
C413 C415 1.352 . S
C414 C413 1.404 . S
C414 C418 1.389 . S
C414 H436 0.930 . S
C415 C413 1.352 . S
C415 C417 1.374 . S
C415 H437 0.931 . S
C416 C417 1.359 . S
C416 C418 1.364 . S
C417 C415 1.374 . S
C417 C416 1.359 . S
C417 H438 0.931 . S
C418 C414 1.389 . S
C418 C416 1.364 . S
C418 H439 0.931 . S
C419 O430 1.256 . S
C419 O431 1.257 . S
O420 Gd400 2.377 . S
O420 C402 1.240 . S
O421 Gd401 2.395 . S
O421 C402 1.240 . S
O422 Gd400 2.448 . S
O422 C403 1.249 . S
O423 Gd400 2.506 . S
O423 C403 1.252 . S
O424 Gd400 2.435 . S
O424 C410 1.256 . S
O425 Gd400 2.717 . S
O425 Gd401 2.327 . S
O425 C410 1.257 . S
O426 Gd401 2.377 . S
O426 C411 1.240 . S
O427 Gd400 2.395 . S
O427 C411 1.240 . S
O428 Gd401 2.448 . S
O428 C412 1.249 . S
O429 Gd401 2.506 . S
O429 C412 1.252 . S
O430 Gd401 2.435 . S
O430 C419 1.256 . S
O431 Gd400 2.327 . S
O431 Gd401 2.717 . S
O431 C419 1.257 . S
H432 C405 0.930 . S
H433 C406 0.931 . S
H434 C408 0.931 . S
H435 C409 0.931 . S
H436 C414 0.930 . S
H437 C415 0.931 . S
H438 C417 0.931 . S
H439 C418 0.931 . S
Gd440 C443 2.818 . S
Gd440 O460 2.377 . S
Gd440 O462 2.448 . S
Gd440 O463 2.506 . S
Gd440 O464 2.435 . S
Gd440 O465 2.717 . S
Gd440 O467 2.395 . S
Gd440 O471 2.327 . S
Gd441 C452 2.818 . S
Gd441 O461 2.395 . S
Gd441 O465 2.327 . S
Gd441 O466 2.377 . S
Gd441 O468 2.448 . S
Gd441 O469 2.506 . S
Gd441 O470 2.435 . S
Gd441 O471 2.717 . S
C442 O460 1.240 . S
C442 O461 1.240 . S
C443 Gd440 2.818 . S
C443 C444 1.510 . S
C443 O462 1.249 . S
C443 O463 1.252 . S
C444 C443 1.510 . S
C444 C445 1.404 . S
C444 C446 1.352 . S
C445 C444 1.404 . S
C445 C449 1.389 . S
C445 H472 0.930 . S
C446 C444 1.352 . S
C446 C448 1.374 . S
C446 H473 0.931 . S
C447 C448 1.359 . S
C447 C449 1.364 . S
C448 C446 1.374 . S
C448 C447 1.359 . S
C448 H474 0.931 . S
C449 C445 1.389 . S
C449 C447 1.364 . S
C449 H475 0.931 . S
C450 O464 1.256 . S
C450 O465 1.257 . S
C451 O466 1.240 . S
C451 O467 1.240 . S
C452 Gd441 2.818 . S
C452 C453 1.510 . S
C452 O468 1.249 . S
C452 O469 1.252 . S
C453 C452 1.510 . S
C453 C454 1.404 . S
C453 C455 1.352 . S
C454 C453 1.404 . S
C454 C458 1.389 . S
C454 H476 0.930 . S
C455 C453 1.352 . S
C455 C457 1.374 . S
C455 H477 0.931 . S
C456 C457 1.359 . S
C456 C458 1.364 . S
C457 C455 1.374 . S
C457 C456 1.359 . S
C457 H478 0.931 . S
C458 C454 1.389 . S
C458 C456 1.364 . S
C458 H479 0.931 . S
C459 O470 1.256 . S
C459 O471 1.257 . S
O460 Gd440 2.377 . S
O460 C442 1.240 . S
O461 Gd441 2.395 . S
O461 C442 1.240 . S
O462 Gd440 2.448 . S
O462 C443 1.249 . S
O463 Gd440 2.506 . S
O463 C443 1.252 . S
O464 Gd440 2.435 . S
O464 C450 1.256 . S
O465 Gd440 2.717 . S
O465 Gd441 2.327 . S
O465 C450 1.257 . S
O466 Gd441 2.377 . S
O466 C451 1.240 . S
O467 Gd440 2.395 . S
O467 C451 1.240 . S
O468 Gd441 2.448 . S
O468 C452 1.249 . S
O469 Gd441 2.506 . S
O469 C452 1.252 . S
O470 Gd441 2.435 . S
O470 C459 1.256 . S
O471 Gd440 2.327 . S
O471 Gd441 2.717 . S
O471 C459 1.257 . S
H472 C445 0.930 . S
H473 C446 0.931 . S
H474 C448 0.931 . S
H475 C449 0.931 . S
H476 C454 0.930 . S
H477 C455 0.931 . S
H478 C457 0.931 . S
H479 C458 0.931 . S
C480 C481 1.349 . S
C480 C482 1.327 . S
C480 H505 0.950 . S
C481 C480 1.349 . S
C481 C497 1.349 . S
C482 C480 1.327 . S
C482 C501 1.429 . S
C482 H506 0.950 . S
C483 C500 1.574 . S
C483 C502 1.368 . S
C483 H507 0.949 . S
H484 C488 0.949 . S
C485 C486 1.349 . S
C485 C487 1.327 . S
C485 H508 0.950 . S
C486 C485 1.349 . S
C486 C498 1.349 . S
C487 C485 1.327 . S
C487 C503 1.429 . S
C487 H509 0.950 . S
C488 H484 0.949 . S
C488 C496 1.574 . S
C488 C504 1.368 . S
H489 C497 0.950 . S
H490 C495 0.950 . S
H491 C496 0.949 . S
H492 C498 0.950 . S
H493 C499 0.950 . S
H494 C500 0.949 . S
C495 H490 0.950 . S
C495 C497 1.327 . S
C495 C501 1.429 . S
C496 C488 1.574 . S
C496 H491 0.949 . S
C496 C502 1.368 . S
C497 C481 1.349 . S
C497 H489 0.950 . S
C497 C495 1.327 . S
C498 C486 1.349 . S
C498 H492 0.950 . S
C498 C499 1.327 . S
C499 H493 0.950 . S
C499 C498 1.327 . S
C499 C503 1.429 . S
C500 C483 1.574 . S
C500 H494 0.949 . S
C500 C504 1.368 . S
C501 C482 1.429 . S
C501 C495 1.429 . S
C501 C502 1.523 . S
C502 C483 1.368 . S
C502 C496 1.368 . S
C502 C501 1.523 . S
C503 C487 1.429 . S
C503 C499 1.429 . S
C503 C504 1.523 . S
C504 C488 1.368 . S
C504 C500 1.368 . S
C504 C503 1.523 . S
H505 C480 0.950 . S
H506 C482 0.950 . S
H507 C483 0.949 . S
H508 C485 0.950 . S
H509 C487 0.950 . S
C510 C511 1.349 . S
C510 C512 1.327 . S
C510 H535 0.950 . S
C511 C510 1.349 . S
C511 C527 1.349 . S
C512 C510 1.327 . S
C512 C531 1.429 . S
C512 H536 0.950 . S
C513 C530 1.574 1_455 S
C513 C532 1.368 . S
C513 H537 0.949 . S
H514 C518 0.949 . S
C515 C516 1.349 . S
C515 C517 1.327 . S
C515 H538 0.950 . S
C516 C515 1.349 . S
C516 C528 1.349 . S
C517 C515 1.327 . S
C517 C533 1.429 . S
C517 H539 0.950 . S
C518 H514 0.949 . S
C518 C526 1.574 1_655 S
C518 C534 1.368 . S
H519 C527 0.950 . S
H520 C525 0.950 . S
H521 C526 0.949 . S
H522 C528 0.950 . S
H523 C529 0.950 . S
H524 C530 0.949 . S
C525 H520 0.950 . S
C525 C527 1.327 . S
C525 C531 1.429 . S
C526 C518 1.574 1_455 S
C526 H521 0.949 . S
C526 C532 1.368 . S
C527 C511 1.349 . S
C527 H519 0.950 . S
C527 C525 1.327 . S
C528 C516 1.349 . S
C528 H522 0.950 . S
C528 C529 1.327 . S
C529 H523 0.950 . S
C529 C528 1.327 . S
C529 C533 1.429 . S
C530 C513 1.574 1_655 S
C530 H524 0.949 . S
C530 C534 1.368 . S
C531 C512 1.429 . S
C531 C525 1.429 . S
C531 C532 1.523 . S
C532 C513 1.368 . S
C532 C526 1.368 . S
C532 C531 1.523 . S
C533 C517 1.429 . S
C533 C529 1.429 . S
C533 C534 1.523 . S
C534 C518 1.368 . S
C534 C530 1.368 . S
C534 C533 1.523 . S
H535 C510 0.950 . S
H536 C512 0.950 . S
H537 C513 0.949 . S
H538 C515 0.950 . S
H539 C517 0.950 . S
C540 C541 1.349 . S
C540 C542 1.327 . S
C540 H565 0.950 . S
C541 C540 1.349 . S
C541 C557 1.349 . S
C542 C540 1.327 . S
C542 C561 1.429 . S
C542 H566 0.950 . S
C543 C560 1.574 1_545 S
C543 C562 1.368 . S
C543 H567 0.949 . S
H544 C548 0.949 . S
C545 C546 1.349 . S
C545 C547 1.327 . S
C545 H568 0.950 . S
C546 C545 1.349 . S
C546 C558 1.349 . S
C547 C545 1.327 . S
C547 C563 1.429 . S
C547 H569 0.950 . S
C548 H544 0.949 . S
C548 C556 1.574 1_565 S
C548 C564 1.368 . S
H549 C557 0.950 . S
H550 C555 0.950 . S
H551 C556 0.949 . S
H552 C558 0.950 . S
H553 C559 0.950 . S
H554 C560 0.949 . S
C555 H550 0.950 . S
C555 C557 1.327 . S
C555 C561 1.429 . S
C556 C548 1.574 1_545 S
C556 H551 0.949 . S
C556 C562 1.368 . S
C557 C541 1.349 . S
C557 H549 0.950 . S
C557 C555 1.327 . S
C558 C546 1.349 . S
C558 H552 0.950 . S
C558 C559 1.327 . S
C559 H553 0.950 . S
C559 C558 1.327 . S
C559 C563 1.429 . S
C560 C543 1.574 1_565 S
C560 H554 0.949 . S
C560 C564 1.368 . S
C561 C542 1.429 . S
C561 C555 1.429 . S
C561 C562 1.523 . S
C562 C543 1.368 . S
C562 C556 1.368 . S
C562 C561 1.523 . S
C563 C547 1.429 . S
C563 C559 1.429 . S
C563 C564 1.523 . S
C564 C548 1.368 . S
C564 C560 1.368 . S
C564 C563 1.523 . S
H565 C540 0.950 . S
H566 C542 0.950 . S
H567 C543 0.949 . S
H568 C545 0.950 . S
H569 C547 0.950 . S
C570 C571 1.349 . S
C570 C572 1.327 . S
C570 H595 0.950 . S
C571 C570 1.349 . S
C571 C587 1.349 . S
C572 C570 1.327 . S
C572 C591 1.429 . S
C572 H596 0.950 . S
C573 C590 1.574 . S
C573 C592 1.368 . S
C573 H597 0.949 . S
H574 C578 0.949 . S
C575 C576 1.349 . S
C575 C577 1.327 . S
C575 H598 0.950 . S
C576 C575 1.349 . S
C576 C588 1.349 . S
C577 C575 1.327 . S
C577 C593 1.429 . S
C577 H599 0.950 . S
C578 H574 0.949 . S
C578 C586 1.574 . S
C578 C594 1.368 . S
H579 C587 0.950 . S
H580 C585 0.950 . S
H581 C586 0.949 . S
H582 C588 0.950 . S
H583 C589 0.950 . S
H584 C590 0.949 . S
C585 H580 0.950 . S
C585 C587 1.327 . S
C585 C591 1.429 . S
C586 C578 1.574 . S
C586 H581 0.949 . S
C586 C592 1.368 . S
C587 C571 1.349 . S
C587 H579 0.950 . S
C587 C585 1.327 . S
C588 C576 1.349 . S
C588 H582 0.950 . S
C588 C589 1.327 . S
C589 H583 0.950 . S
C589 C588 1.327 . S
C589 C593 1.429 . S
C590 C573 1.574 . S
C590 H584 0.949 . S
C590 C594 1.368 . S
C591 C572 1.429 . S
C591 C585 1.429 . S
C591 C592 1.523 . S
C592 C573 1.368 . S
C592 C586 1.368 . S
C592 C591 1.523 . S
C593 C577 1.429 . S
C593 C589 1.429 . S
C593 C594 1.523 . S
C594 C578 1.368 . S
C594 C590 1.368 . S
C594 C593 1.523 . S
H595 C570 0.950 . S
H596 C572 0.950 . S
H597 C573 0.949 . S
H598 C575 0.950 . S
H599 C577 0.950 . S
C600 C601 1.349 . S
C600 C602 1.327 . S
C600 H625 0.950 . S
C601 C600 1.349 . S
C601 C617 1.349 . S
C602 C600 1.327 . S
C602 C621 1.429 . S
C602 H626 0.950 . S
C603 C620 1.574 1_455 S
C603 C622 1.368 . S
C603 H627 0.949 . S
H604 C608 0.949 . S
C605 C606 1.349 . S
C605 C607 1.327 . S
C605 H628 0.950 . S
C606 C605 1.349 . S
C606 C618 1.349 . S
C607 C605 1.327 . S
C607 C623 1.429 . S
C607 H629 0.950 . S
C608 H604 0.949 . S
C608 C616 1.574 1_655 S
C608 C624 1.368 . S
H609 C617 0.950 . S
H610 C615 0.950 . S
H611 C616 0.949 . S
H612 C618 0.950 . S
H613 C619 0.950 . S
H614 C620 0.949 . S
C615 H610 0.950 . S
C615 C617 1.327 . S
C615 C621 1.429 . S
C616 C608 1.574 1_455 S
C616 H611 0.949 . S
C616 C622 1.368 . S
C617 C601 1.349 . S
C617 H609 0.950 . S
C617 C615 1.327 . S
C618 C606 1.349 . S
C618 H612 0.950 . S
C618 C619 1.327 . S
C619 H613 0.950 . S
C619 C618 1.327 . S
C619 C623 1.429 . S
C620 C603 1.574 1_655 S
C620 H614 0.949 . S
C620 C624 1.368 . S
C621 C602 1.429 . S
C621 C615 1.429 . S
C621 C622 1.523 . S
C622 C603 1.368 . S
C622 C616 1.368 . S
C622 C621 1.523 . S
C623 C607 1.429 . S
C623 C619 1.429 . S
C623 C624 1.523 . S
C624 C608 1.368 . S
C624 C620 1.368 . S
C624 C623 1.523 . S
H625 C600 0.950 . S
H626 C602 0.950 . S
H627 C603 0.949 . S
H628 C605 0.950 . S
H629 C607 0.950 . S
C630 C631 1.349 . S
C630 C632 1.327 . S
C630 H655 0.950 . S
C631 C630 1.349 . S
C631 C647 1.349 . S
C632 C630 1.327 . S
C632 C651 1.429 . S
C632 H656 0.950 . S
C633 C650 1.574 1_565 S
C633 C652 1.368 . S
C633 H657 0.949 . S
H634 C638 0.949 . S
C635 C636 1.349 . S
C635 C637 1.327 . S
C635 H658 0.950 . S
C636 C635 1.349 . S
C636 C648 1.349 . S
C637 C635 1.327 . S
C637 C653 1.429 . S
C637 H659 0.950 . S
C638 H634 0.949 . S
C638 C646 1.574 1_545 S
C638 C654 1.368 . S
H639 C647 0.950 . S
H640 C645 0.950 . S
H641 C646 0.949 . S
H642 C648 0.950 . S
H643 C649 0.950 . S
H644 C650 0.949 . S
C645 H640 0.950 . S
C645 C647 1.327 . S
C645 C651 1.429 . S
C646 C638 1.574 1_565 S
C646 H641 0.949 . S
C646 C652 1.368 . S
C647 C631 1.349 . S
C647 H639 0.950 . S
C647 C645 1.327 . S
C648 C636 1.349 . S
C648 H642 0.950 . S
C648 C649 1.327 . S
C649 H643 0.950 . S
C649 C648 1.327 . S
C649 C653 1.429 . S
C650 C633 1.574 1_545 S
C650 H644 0.949 . S
C650 C654 1.368 . S
C651 C632 1.429 . S
C651 C645 1.429 . S
C651 C652 1.523 . S
C652 C633 1.368 . S
C652 C646 1.368 . S
C652 C651 1.523 . S
C653 C637 1.429 . S
C653 C649 1.429 . S
C653 C654 1.523 . S
C654 C638 1.368 . S
C654 C650 1.368 . S
C654 C653 1.523 . S
H655 C630 0.950 . S
H656 C632 0.950 . S
H657 C633 0.949 . S
H658 C635 0.950 . S
H659 C637 0.950 . S
C660 C661 1.349 . S
C660 C662 1.327 . S
C660 H685 0.950 . S
C661 C660 1.349 . S
C661 C677 1.349 . S
C662 C660 1.327 . S
C662 C681 1.429 . S
C662 H686 0.950 . S
C663 C680 1.574 . S
C663 C682 1.368 . S
C663 H687 0.949 . S
H664 C668 0.949 . S
C665 C666 1.349 . S
C665 C667 1.327 . S
C665 H688 0.950 . S
C666 C665 1.349 . S
C666 C678 1.349 . S
C667 C665 1.327 . S
C667 C683 1.429 . S
C667 H689 0.950 . S
C668 H664 0.949 . S
C668 C676 1.574 . S
C668 C684 1.368 . S
H669 C677 0.950 . S
H670 C675 0.950 . S
H671 C676 0.949 . S
H672 C678 0.950 . S
H673 C679 0.950 . S
H674 C680 0.949 . S
C675 H670 0.950 . S
C675 C677 1.327 . S
C675 C681 1.429 . S
C676 C668 1.574 . S
C676 H671 0.949 . S
C676 C682 1.368 . S
C677 C661 1.349 . S
C677 H669 0.950 . S
C677 C675 1.327 . S
C678 C666 1.349 . S
C678 H672 0.950 . S
C678 C679 1.327 . S
C679 H673 0.950 . S
C679 C678 1.327 . S
C679 C683 1.429 . S
C680 C663 1.574 . S
C680 H674 0.949 . S
C680 C684 1.368 . S
C681 C662 1.429 . S
C681 C675 1.429 . S
C681 C682 1.523 . S
C682 C663 1.368 . S
C682 C676 1.368 . S
C682 C681 1.523 . S
C683 C667 1.429 . S
C683 C679 1.429 . S
C683 C684 1.523 . S
C684 C668 1.368 . S
C684 C680 1.368 . S
C684 C683 1.523 . S
H685 C660 0.950 . S
H686 C662 0.950 . S
H687 C663 0.949 . S
H688 C665 0.950 . S
H689 C667 0.950 . S
C690 C691 1.349 . S
C690 C692 1.327 . S
C690 H715 0.950 . S
C691 C690 1.349 . S
C691 C707 1.349 . S
C692 C690 1.327 . S
C692 C711 1.429 . S
C692 H716 0.950 . S
C693 C710 1.574 1_455 S
C693 C712 1.368 . S
C693 H717 0.949 . S
H694 C698 0.949 . S
C695 C696 1.349 . S
C695 C697 1.327 . S
C695 H718 0.950 . S
C696 C695 1.349 . S
C696 C708 1.349 . S
C697 C695 1.327 . S
C697 C713 1.429 . S
C697 H719 0.950 . S
C698 H694 0.949 . S
C698 C706 1.574 1_655 S
C698 C714 1.368 . S
H699 C707 0.950 . S
H700 C705 0.950 . S
H701 C706 0.949 . S
H702 C708 0.950 . S
H703 C709 0.950 . S
H704 C710 0.949 . S
C705 H700 0.950 . S
C705 C707 1.327 . S
C705 C711 1.429 . S
C706 C698 1.574 1_455 S
C706 H701 0.949 . S
C706 C712 1.368 . S
C707 C691 1.349 . S
C707 H699 0.950 . S
C707 C705 1.327 . S
C708 C696 1.349 . S
C708 H702 0.950 . S
C708 C709 1.327 . S
C709 H703 0.950 . S
C709 C708 1.327 . S
C709 C713 1.429 . S
C710 C693 1.574 1_655 S
C710 H704 0.949 . S
C710 C714 1.368 . S
C711 C692 1.429 . S
C711 C705 1.429 . S
C711 C712 1.523 . S
C712 C693 1.368 . S
C712 C706 1.368 . S
C712 C711 1.523 . S
C713 C697 1.429 . S
C713 C709 1.429 . S
C713 C714 1.523 . S
C714 C698 1.368 . S
C714 C710 1.368 . S
C714 C713 1.523 . S
H715 C690 0.950 . S
H716 C692 0.950 . S
H717 C693 0.949 . S
H718 C695 0.950 . S
H719 C697 0.950 . S
C720 C721 1.349 . S
C720 C722 1.327 . S
C720 H745 0.950 . S
C721 C720 1.349 . S
C721 C737 1.349 . S
C722 C720 1.327 . S
C722 C741 1.429 . S
C722 H746 0.950 . S
C723 C740 1.574 1_565 S
C723 C742 1.368 . S
C723 H747 0.949 . S
H724 C728 0.949 . S
C725 C726 1.349 . S
C725 C727 1.327 . S
C725 H748 0.950 . S
C726 C725 1.349 . S
C726 C738 1.349 . S
C727 C725 1.327 . S
C727 C743 1.429 . S
C727 H749 0.950 . S
C728 H724 0.949 . S
C728 C736 1.574 1_545 S
C728 C744 1.368 . S
H729 C737 0.950 . S
H730 C735 0.950 . S
H731 C736 0.949 . S
H732 C738 0.950 . S
H733 C739 0.950 . S
H734 C740 0.949 . S
C735 H730 0.950 . S
C735 C737 1.327 . S
C735 C741 1.429 . S
C736 C728 1.574 1_565 S
C736 H731 0.949 . S
C736 C742 1.368 . S
C737 C721 1.349 . S
C737 H729 0.950 . S
C737 C735 1.327 . S
C738 C726 1.349 . S
C738 H732 0.950 . S
C738 C739 1.327 . S
C739 H733 0.950 . S
C739 C738 1.327 . S
C739 C743 1.429 . S
C740 C723 1.574 1_545 S
C740 H734 0.949 . S
C740 C744 1.368 . S
C741 C722 1.429 . S
C741 C735 1.429 . S
C741 C742 1.523 . S
C742 C723 1.368 . S
C742 C736 1.368 . S
C742 C741 1.523 . S
C743 C727 1.429 . S
C743 C739 1.429 . S
C743 C744 1.523 . S
C744 C728 1.368 . S
C744 C740 1.368 . S
C744 C743 1.523 . S
H745 C720 0.950 . S
H746 C722 0.950 . S
H747 C723 0.949 . S
H748 C725 0.950 . S
H749 C727 0.950 . S
C750 C751 1.349 . S
C750 C752 1.327 . S
C750 H775 0.950 . S
C751 C750 1.349 . S
C751 C767 1.349 . S
C752 C750 1.327 . S
C752 C771 1.429 . S
C752 H776 0.950 . S
C753 C770 1.574 . S
C753 C772 1.368 . S
C753 H777 0.949 . S
H754 C758 0.949 . S
C755 C756 1.349 . S
C755 C757 1.327 . S
C755 H778 0.950 . S
C756 C755 1.349 . S
C756 C768 1.349 . S
C757 C755 1.327 . S
C757 C773 1.429 . S
C757 H779 0.950 . S
C758 H754 0.949 . S
C758 C766 1.574 . S
C758 C774 1.368 . S
H759 C767 0.950 . S
H760 C765 0.950 . S
H761 C766 0.949 . S
H762 C768 0.950 . S
H763 C769 0.950 . S
H764 C770 0.949 . S
C765 H760 0.950 . S
C765 C767 1.327 . S
C765 C771 1.429 . S
C766 C758 1.574 . S
C766 H761 0.949 . S
C766 C772 1.368 . S
C767 C751 1.349 . S
C767 H759 0.950 . S
C767 C765 1.327 . S
C768 C756 1.349 . S
C768 H762 0.950 . S
C768 C769 1.327 . S
C769 H763 0.950 . S
C769 C768 1.327 . S
C769 C773 1.429 . S
C770 C753 1.574 . S
C770 H764 0.949 . S
C770 C774 1.368 . S
C771 C752 1.429 . S
C771 C765 1.429 . S
C771 C772 1.523 . S
C772 C753 1.368 . S
C772 C766 1.368 . S
C772 C771 1.523 . S
C773 C757 1.429 . S
C773 C769 1.429 . S
C773 C774 1.523 . S
C774 C758 1.368 . S
C774 C770 1.368 . S
C774 C773 1.523 . S
H775 C750 0.950 . S
H776 C752 0.950 . S
H777 C753 0.949 . S
H778 C755 0.950 . S
H779 C757 0.950 . S
C780 C781 1.349 . S
C780 C782 1.327 . S
C780 H805 0.950 . S
C781 C780 1.349 . S
C781 C797 1.349 . S
C782 C780 1.327 . S
C782 C801 1.429 . S
C782 H806 0.950 . S
C783 C800 1.574 1_455 S
C783 C802 1.368 . S
C783 H807 0.949 . S
H784 C788 0.949 . S
C785 C786 1.349 . S
C785 C787 1.327 . S
C785 H808 0.950 . S
C786 C785 1.349 . S
C786 C798 1.349 . S
C787 C785 1.327 . S
C787 C803 1.429 . S
C787 H809 0.950 . S
C788 H784 0.949 . S
C788 C796 1.574 1_655 S
C788 C804 1.368 . S
H789 C797 0.950 . S
H790 C795 0.950 . S
H791 C796 0.949 . S
H792 C798 0.950 . S
H793 C799 0.950 . S
H794 C800 0.949 . S
C795 H790 0.950 . S
C795 C797 1.327 . S
C795 C801 1.429 . S
C796 C788 1.574 1_455 S
C796 H791 0.949 . S
C796 C802 1.368 . S
C797 C781 1.349 . S
C797 H789 0.950 . S
C797 C795 1.327 . S
C798 C786 1.349 . S
C798 H792 0.950 . S
C798 C799 1.327 . S
C799 H793 0.950 . S
C799 C798 1.327 . S
C799 C803 1.429 . S
C800 C783 1.574 1_655 S
C800 H794 0.949 . S
C800 C804 1.368 . S
C801 C782 1.429 . S
C801 C795 1.429 . S
C801 C802 1.523 . S
C802 C783 1.368 . S
C802 C796 1.368 . S
C802 C801 1.523 . S
C803 C787 1.429 . S
C803 C799 1.429 . S
C803 C804 1.523 . S
C804 C788 1.368 . S
C804 C800 1.368 . S
C804 C803 1.523 . S
H805 C780 0.950 . S
H806 C782 0.950 . S
H807 C783 0.949 . S
H808 C785 0.950 . S
H809 C787 0.950 . S
C810 C811 1.349 . S
C810 C812 1.327 . S
C810 H835 0.950 . S
C811 C810 1.349 . S
C811 C827 1.349 . S
C812 C810 1.327 . S
C812 C831 1.429 . S
C812 H836 0.950 . S
C813 C830 1.574 1_545 S
C813 C832 1.368 . S
C813 H837 0.949 . S
H814 C818 0.949 . S
C815 C816 1.349 . S
C815 C817 1.327 . S
C815 H838 0.950 . S
C816 C815 1.349 . S
C816 C828 1.349 . S
C817 C815 1.327 . S
C817 C833 1.429 . S
C817 H839 0.950 . S
C818 H814 0.949 . S
C818 C826 1.574 1_565 S
C818 C834 1.368 . S
H819 C827 0.950 . S
H820 C825 0.950 . S
H821 C826 0.949 . S
H822 C828 0.950 . S
H823 C829 0.950 . S
H824 C830 0.949 . S
C825 H820 0.950 . S
C825 C827 1.327 . S
C825 C831 1.429 . S
C826 C818 1.574 1_545 S
C826 H821 0.949 . S
C826 C832 1.368 . S
C827 C811 1.349 . S
C827 H819 0.950 . S
C827 C825 1.327 . S
C828 C816 1.349 . S
C828 H822 0.950 . S
C828 C829 1.327 . S
C829 H823 0.950 . S
C829 C828 1.327 . S
C829 C833 1.429 . S
C830 C813 1.574 1_565 S
C830 H824 0.949 . S
C830 C834 1.368 . S
C831 C812 1.429 . S
C831 C825 1.429 . S
C831 C832 1.523 . S
C832 C813 1.368 . S
C832 C826 1.368 . S
C832 C831 1.523 . S
C833 C817 1.429 . S
C833 C829 1.429 . S
C833 C834 1.523 . S
C834 C818 1.368 . S
C834 C830 1.368 . S
C834 C833 1.523 . S
H835 C810 0.950 . S
H836 C812 0.950 . S
H837 C813 0.949 . S
H838 C815 0.950 . S
H839 C817 0.950 . S
C840 C841 1.349 . S
C840 C842 1.327 . S
C840 H865 0.950 . S
C841 C840 1.349 . S
C841 C857 1.349 . S
C842 C840 1.327 . S
C842 C861 1.429 . S
C842 H866 0.950 . S
C843 C860 1.574 . S
C843 C862 1.368 . S
C843 H867 0.949 . S
H844 C848 0.949 . S
C845 C846 1.349 . S
C845 C847 1.327 . S
C845 H868 0.950 . S
C846 C845 1.349 . S
C846 C858 1.349 . S
C847 C845 1.327 . S
C847 C863 1.429 . S
C847 H869 0.950 . S
C848 H844 0.949 . S
C848 C856 1.574 . S
C848 C864 1.368 . S
H849 C857 0.950 . S
H850 C855 0.950 . S
H851 C856 0.949 . S
H852 C858 0.950 . S
H853 C859 0.950 . S
H854 C860 0.949 . S
C855 H850 0.950 . S
C855 C857 1.327 . S
C855 C861 1.429 . S
C856 C848 1.574 . S
C856 H851 0.949 . S
C856 C862 1.368 . S
C857 C841 1.349 . S
C857 H849 0.950 . S
C857 C855 1.327 . S
C858 C846 1.349 . S
C858 H852 0.950 . S
C858 C859 1.327 . S
C859 H853 0.950 . S
C859 C858 1.327 . S
C859 C863 1.429 . S
C860 C843 1.574 . S
C860 H854 0.949 . S
C860 C864 1.368 . S
C861 C842 1.429 . S
C861 C855 1.429 . S
C861 C862 1.523 . S
C862 C843 1.368 . S
C862 C856 1.368 . S
C862 C861 1.523 . S
C863 C847 1.429 . S
C863 C859 1.429 . S
C863 C864 1.523 . S
C864 C848 1.368 . S
C864 C860 1.368 . S
C864 C863 1.523 . S
H865 C840 0.950 . S
H866 C842 0.950 . S
H867 C843 0.949 . S
H868 C845 0.950 . S
H869 C847 0.950 . S
C870 C871 1.349 . S
C870 C872 1.327 . S
C870 H895 0.950 . S
C871 C870 1.349 . S
C871 C887 1.349 . S
C872 C870 1.327 . S
C872 C891 1.429 . S
C872 H896 0.950 . S
C873 C890 1.574 . S
C873 C892 1.368 . S
C873 H897 0.949 . S
H874 C878 0.949 . S
C875 C876 1.349 . S
C875 C877 1.327 . S
C875 H898 0.950 . S
C876 C875 1.349 . S
C876 C888 1.349 . S
C877 C875 1.327 . S
C877 C893 1.429 . S
C877 H899 0.950 . S
C878 H874 0.949 . S
C878 C886 1.574 . S
C878 C894 1.368 . S
H879 C887 0.950 . S
H880 C885 0.950 . S
H881 C886 0.949 . S
H882 C888 0.950 . S
H883 C889 0.950 . S
H884 C890 0.949 . S
C885 H880 0.950 . S
C885 C887 1.327 . S
C885 C891 1.429 . S
C886 C878 1.574 . S
C886 H881 0.949 . S
C886 C892 1.368 . S
C887 C871 1.349 . S
C887 H879 0.950 . S
C887 C885 1.327 . S
C888 C876 1.349 . S
C888 H882 0.950 . S
C888 C889 1.327 . S
C889 H883 0.950 . S
C889 C888 1.327 . S
C889 C893 1.429 . S
C890 C873 1.574 . S
C890 H884 0.949 . S
C890 C894 1.368 . S
C891 C872 1.429 . S
C891 C885 1.429 . S
C891 C892 1.523 . S
C892 C873 1.368 . S
C892 C886 1.368 . S
C892 C891 1.523 . S
C893 C877 1.429 . S
C893 C889 1.429 . S
C893 C894 1.523 . S
C894 C878 1.368 . S
C894 C890 1.368 . S
C894 C893 1.523 . S
H895 C870 0.950 . S
H896 C872 0.950 . S
H897 C873 0.949 . S
H898 C875 0.950 . S
H899 C877 0.950 . S
C900 C901 1.349 . S
C900 C902 1.327 . S
C900 H925 0.950 . S
C901 C900 1.349 . S
C901 C917 1.349 . S
C902 C900 1.327 . S
C902 C921 1.429 . S
C902 H926 0.950 . S
C903 C920 1.574 . S
C903 C922 1.368 . S
C903 H927 0.949 . S
H904 C908 0.949 . S
C905 C906 1.349 . S
C905 C907 1.327 . S
C905 H928 0.950 . S
C906 C905 1.349 . S
C906 C918 1.349 . S
C907 C905 1.327 . S
C907 C923 1.429 . S
C907 H929 0.950 . S
C908 H904 0.949 . S
C908 C916 1.574 . S
C908 C924 1.368 . S
H909 C917 0.950 . S
H910 C915 0.950 . S
H911 C916 0.949 . S
H912 C918 0.950 . S
H913 C919 0.950 . S
H914 C920 0.949 . S
C915 H910 0.950 . S
C915 C917 1.327 . S
C915 C921 1.429 . S
C916 C908 1.574 . S
C916 H911 0.949 . S
C916 C922 1.368 . S
C917 C901 1.349 . S
C917 H909 0.950 . S
C917 C915 1.327 . S
C918 C906 1.349 . S
C918 H912 0.950 . S
C918 C919 1.327 . S
C919 H913 0.950 . S
C919 C918 1.327 . S
C919 C923 1.429 . S
C920 C903 1.574 . S
C920 H914 0.949 . S
C920 C924 1.368 . S
C921 C902 1.429 . S
C921 C915 1.429 . S
C921 C922 1.523 . S
C922 C903 1.368 . S
C922 C916 1.368 . S
C922 C921 1.523 . S
C923 C907 1.429 . S
C923 C919 1.429 . S
C923 C924 1.523 . S
C924 C908 1.368 . S
C924 C920 1.368 . S
C924 C923 1.523 . S
H925 C900 0.950 . S
H926 C902 0.950 . S
H927 C903 0.949 . S
H928 C905 0.950 . S
H929 C907 0.950 . S
C930 C931 1.349 . S
C930 C932 1.327 . S
C930 H955 0.950 . S
C931 C930 1.349 . S
C931 C947 1.349 . S
C932 C930 1.327 . S
C932 C951 1.429 . S
C932 H956 0.950 . S
C933 C950 1.574 . S
C933 C952 1.368 . S
C933 H957 0.949 . S
H934 C938 0.949 . S
C935 C936 1.349 . S
C935 C937 1.327 . S
C935 H958 0.950 . S
C936 C935 1.349 . S
C936 C948 1.349 . S
C937 C935 1.327 . S
C937 C953 1.429 . S
C937 H959 0.950 . S
C938 H934 0.949 . S
C938 C946 1.574 . S
C938 C954 1.368 . S
H939 C947 0.950 . S
H940 C945 0.950 . S
H941 C946 0.949 . S
H942 C948 0.950 . S
H943 C949 0.950 . S
H944 C950 0.949 . S
C945 H940 0.950 . S
C945 C947 1.327 . S
C945 C951 1.429 . S
C946 C938 1.574 . S
C946 H941 0.949 . S
C946 C952 1.368 . S
C947 C931 1.349 . S
C947 H939 0.950 . S
C947 C945 1.327 . S
C948 C936 1.349 . S
C948 H942 0.950 . S
C948 C949 1.327 . S
C949 H943 0.950 . S
C949 C948 1.327 . S
C949 C953 1.429 . S
C950 C933 1.574 . S
C950 H944 0.949 . S
C950 C954 1.368 . S
C951 C932 1.429 . S
C951 C945 1.429 . S
C951 C952 1.523 . S
C952 C933 1.368 . S
C952 C946 1.368 . S
C952 C951 1.523 . S
C953 C937 1.429 . S
C953 C949 1.429 . S
C953 C954 1.523 . S
C954 C938 1.368 . S
C954 C950 1.368 . S
C954 C953 1.523 . S
H955 C930 0.950 . S
H956 C932 0.950 . S
H957 C933 0.949 . S
H958 C935 0.950 . S
H959 C937 0.950 . S
C960 C961 1.349 . S
C960 C962 1.327 . S
C960 H985 0.950 . S
C961 C960 1.349 . S
C961 C977 1.349 . S
C962 C960 1.327 . S
C962 C981 1.429 . S
C962 H986 0.950 . S
C963 C980 1.574 . S
C963 C982 1.368 . S
C963 H987 0.949 . S
H964 C968 0.949 . S
C965 C966 1.349 . S
C965 C967 1.327 . S
C965 H988 0.950 . S
C966 C965 1.349 . S
C966 C978 1.349 . S
C967 C965 1.327 . S
C967 C983 1.429 . S
C967 H989 0.950 . S
C968 H964 0.949 . S
C968 C976 1.574 . S
C968 C984 1.368 . S
H969 C977 0.950 . S
H970 C975 0.950 . S
H971 C976 0.949 . S
H972 C978 0.950 . S
H973 C979 0.950 . S
H974 C980 0.949 . S
C975 H970 0.950 . S
C975 C977 1.327 . S
C975 C981 1.429 . S
C976 C968 1.574 . S
C976 H971 0.949 . S
C976 C982 1.368 . S
C977 C961 1.349 . S
C977 H969 0.950 . S
C977 C975 1.327 . S
C978 C966 1.349 . S
C978 H972 0.950 . S
C978 C979 1.327 . S
C979 H973 0.950 . S
C979 C978 1.327 . S
C979 C983 1.429 . S
C980 C963 1.574 . S
C980 H974 0.949 . S
C980 C984 1.368 . S
C981 C962 1.429 . S
C981 C975 1.429 . S
C981 C982 1.523 . S
C982 C963 1.368 . S
C982 C976 1.368 . S
C982 C981 1.523 . S
C983 C967 1.429 . S
C983 C979 1.429 . S
C983 C984 1.523 . S
C984 C968 1.368 . S
C984 C980 1.368 . S
C984 C983 1.523 . S
H985 C960 0.950 . S
H986 C962 0.950 . S
H987 C963 0.949 . S
H988 C965 0.950 . S
H989 C967 0.950 . S
C990 C991 1.349 . S
C990 C992 1.327 . S
C990 H1015 0.950 . S
C991 C990 1.349 . S
C991 C1007 1.349 . S
C992 C990 1.327 . S
C992 C1011 1.429 . S
C992 H1016 0.950 . S
C993 C1010 1.574 . S
C993 C1012 1.368 . S
C993 H1017 0.949 . S
H994 C998 0.949 . S
C995 C996 1.349 . S
C995 C997 1.327 . S
C995 H1018 0.950 . S
C996 C995 1.349 . S
C996 C1008 1.349 . S
C997 C995 1.327 . S
C997 C1013 1.429 . S
C997 H1019 0.950 . S
C998 H994 0.949 . S
C998 C1006 1.574 . S
C998 C1014 1.368 . S
H999 C1007 0.950 . S
H1000 C1005 0.950 . S
H1001 C1006 0.949 . S
H1002 C1008 0.950 . S
H1003 C1009 0.950 . S
H1004 C1010 0.949 . S
C1005 H1000 0.950 . S
C1005 C1007 1.327 . S
C1005 C1011 1.429 . S
C1006 C998 1.574 . S
C1006 H1001 0.949 . S
C1006 C1012 1.368 . S
C1007 C991 1.349 . S
C1007 H999 0.950 . S
C1007 C1005 1.327 . S
C1008 C996 1.349 . S
C1008 H1002 0.950 . S
C1008 C1009 1.327 . S
C1009 H1003 0.950 . S
C1009 C1008 1.327 . S
C1009 C1013 1.429 . S
C1010 C993 1.574 . S
C1010 H1004 0.949 . S
C1010 C1014 1.368 . S
C1011 C992 1.429 . S
C1011 C1005 1.429 . S
C1011 C1012 1.523 . S
C1012 C993 1.368 . S
C1012 C1006 1.368 . S
C1012 C1011 1.523 . S
C1013 C997 1.429 . S
C1013 C1009 1.429 . S
C1013 C1014 1.523 . S
C1014 C998 1.368 . S
C1014 C1010 1.368 . S
C1014 C1013 1.523 . S
H1015 C990 0.950 . S
H1016 C992 0.950 . S
H1017 C993 0.949 . S
H1018 C995 0.950 . S
H1019 C997 0.950 . S
C1020 C1021 1.349 . S
C1020 C1022 1.327 . S
C1020 H1045 0.950 . S
C1021 C1020 1.349 . S
C1021 C1037 1.349 . S
C1022 C1020 1.327 . S
C1022 C1041 1.429 . S
C1022 H1046 0.950 . S
C1023 C1040 1.574 . S
C1023 C1042 1.368 1_545 S
C1023 H1047 0.949 . S
H1024 C1028 0.949 . S
C1025 C1026 1.349 . S
C1025 C1027 1.327 . S
C1025 H1048 0.950 . S
C1026 C1025 1.349 . S
C1026 C1038 1.349 . S
C1027 C1025 1.327 . S
C1027 C1043 1.429 . S
C1027 H1049 0.950 . S
C1028 H1024 0.949 . S
C1028 C1036 1.574 . S
C1028 C1044 1.368 1_565 S
H1029 C1037 0.950 . S
H1030 C1035 0.950 . S
H1031 C1036 0.949 . S
H1032 C1038 0.950 . S
H1033 C1039 0.950 . S
H1034 C1040 0.949 . S
C1035 H1030 0.950 . S
C1035 C1037 1.327 . S
C1035 C1041 1.429 . S
C1036 C1028 1.574 . S
C1036 H1031 0.949 . S
C1036 C1042 1.368 1_554 S
C1037 C1021 1.349 . S
C1037 H1029 0.950 . S
C1037 C1035 1.327 . S
C1038 C1026 1.349 . S
C1038 H1032 0.950 . S
C1038 C1039 1.327 . S
C1039 H1033 0.950 . S
C1039 C1038 1.327 . S
C1039 C1043 1.429 . S
C1040 C1023 1.574 . S
C1040 H1034 0.949 . S
C1040 C1044 1.368 1_556 S
C1041 C1022 1.429 . S
C1041 C1035 1.429 . S
C1041 C1042 1.523 . S
C1042 C1023 1.368 1_565 S
C1042 C1036 1.368 1_556 S
C1042 C1041 1.523 . S
C1043 C1027 1.429 . S
C1043 C1039 1.429 . S
C1043 C1044 1.523 . S
C1044 C1028 1.368 1_545 S
C1044 C1040 1.368 1_554 S
C1044 C1043 1.523 . S
H1045 C1020 0.950 . S
H1046 C1022 0.950 . S
H1047 C1023 0.949 . S
H1048 C1025 0.950 . S
H1049 C1027 0.950 . S
C1050 C1051 1.349 . S
C1050 C1052 1.327 . S
C1050 H1075 0.950 . S
C1051 C1050 1.349 . S
C1051 C1067 1.349 . S
C1052 C1050 1.327 . S
C1052 C1071 1.429 . S
C1052 H1076 0.950 . S
C1053 C1070 1.574 . S
C1053 C1072 1.368 . S
C1053 H1077 0.949 . S
H1054 C1058 0.949 . S
C1055 C1056 1.349 . S
C1055 C1057 1.327 . S
C1055 H1078 0.950 . S
C1056 C1055 1.349 . S
C1056 C1068 1.349 . S
C1057 C1055 1.327 . S
C1057 C1073 1.429 . S
C1057 H1079 0.950 . S
C1058 H1054 0.949 . S
C1058 C1066 1.574 . S
C1058 C1074 1.368 . S
H1059 C1067 0.950 . S
H1060 C1065 0.950 . S
H1061 C1066 0.949 . S
H1062 C1068 0.950 . S
H1063 C1069 0.950 . S
H1064 C1070 0.949 . S
C1065 H1060 0.950 . S
C1065 C1067 1.327 . S
C1065 C1071 1.429 . S
C1066 C1058 1.574 . S
C1066 H1061 0.949 . S
C1066 C1072 1.368 . S
C1067 C1051 1.349 . S
C1067 H1059 0.950 . S
C1067 C1065 1.327 . S
C1068 C1056 1.349 . S
C1068 H1062 0.950 . S
C1068 C1069 1.327 . S
C1069 H1063 0.950 . S
C1069 C1068 1.327 . S
C1069 C1073 1.429 . S
C1070 C1053 1.574 . S
C1070 H1064 0.949 . S
C1070 C1074 1.368 . S
C1071 C1052 1.429 . S
C1071 C1065 1.429 . S
C1071 C1072 1.523 . S
C1072 C1053 1.368 . S
C1072 C1066 1.368 . S
C1072 C1071 1.523 . S
C1073 C1057 1.429 . S
C1073 C1069 1.429 . S
C1073 C1074 1.523 . S
C1074 C1058 1.368 . S
C1074 C1070 1.368 . S
C1074 C1073 1.523 . S
H1075 C1050 0.950 . S
H1076 C1052 0.950 . S
H1077 C1053 0.949 . S
H1078 C1055 0.950 . S
H1079 C1057 0.950 . S
C1080 C1081 1.349 . S
C1080 C1082 1.327 . S
C1080 H1105 0.950 . S
C1081 C1080 1.349 . S
C1081 C1097 1.349 . S
C1082 C1080 1.327 . S
C1082 C1101 1.429 . S
C1082 H1106 0.950 . S
C1083 C1100 1.574 . S
C1083 C1102 1.368 1_655 S
C1083 H1107 0.949 . S
H1084 C1088 0.949 . S
C1085 C1086 1.349 . S
C1085 C1087 1.327 . S
C1085 H1108 0.950 . S
C1086 C1085 1.349 . S
C1086 C1098 1.349 . S
C1087 C1085 1.327 . S
C1087 C1103 1.429 . S
C1087 H1109 0.950 . S
C1088 H1084 0.949 . S
C1088 C1096 1.574 . S
C1088 C1104 1.368 1_455 S
H1089 C1097 0.950 . S
H1090 C1095 0.950 . S
H1091 C1096 0.949 . S
H1092 C1098 0.950 . S
H1093 C1099 0.950 . S
H1094 C1100 0.949 . S
C1095 H1090 0.950 . S
C1095 C1097 1.327 . S
C1095 C1101 1.429 . S
C1096 C1088 1.574 . S
C1096 H1091 0.949 . S
C1096 C1102 1.368 1_554 S
C1097 C1081 1.349 . S
C1097 H1089 0.950 . S
C1097 C1095 1.327 . S
C1098 C1086 1.349 . S
C1098 H1092 0.950 . S
C1098 C1099 1.327 . S
C1099 H1093 0.950 . S
C1099 C1098 1.327 . S
C1099 C1103 1.429 . S
C1100 C1083 1.574 . S
C1100 H1094 0.949 . S
C1100 C1104 1.368 1_556 S
C1101 C1082 1.429 . S
C1101 C1095 1.429 . S
C1101 C1102 1.523 . S
C1102 C1083 1.368 1_455 S
C1102 C1096 1.368 1_556 S
C1102 C1101 1.523 . S
C1103 C1087 1.429 . S
C1103 C1099 1.429 . S
C1103 C1104 1.523 . S
C1104 C1088 1.368 1_655 S
C1104 C1100 1.368 1_554 S
C1104 C1103 1.523 . S
H1105 C1080 0.950 . S
H1106 C1082 0.950 . S
H1107 C1083 0.949 . S
H1108 C1085 0.950 . S
H1109 C1087 0.950 . S
C1110 C1111 1.349 . S
C1110 C1112 1.327 . S
C1110 H1135 0.950 . S
C1111 C1110 1.349 . S
C1111 C1127 1.349 . S
C1112 C1110 1.327 . S
C1112 C1131 1.429 . S
C1112 H1136 0.950 . S
C1113 C1130 1.574 . S
C1113 C1132 1.368 1_565 S
C1113 H1137 0.949 . S
H1114 C1118 0.949 . S
C1115 C1116 1.349 . S
C1115 C1117 1.327 . S
C1115 H1138 0.950 . S
C1116 C1115 1.349 . S
C1116 C1128 1.349 . S
C1117 C1115 1.327 . S
C1117 C1133 1.429 . S
C1117 H1139 0.950 . S
C1118 H1114 0.949 . S
C1118 C1126 1.574 . S
C1118 C1134 1.368 1_545 S
H1119 C1127 0.950 . S
H1120 C1125 0.950 . S
H1121 C1126 0.949 . S
H1122 C1128 0.950 . S
H1123 C1129 0.950 . S
H1124 C1130 0.949 . S
C1125 H1120 0.950 . S
C1125 C1127 1.327 . S
C1125 C1131 1.429 . S
C1126 C1118 1.574 . S
C1126 H1121 0.949 . S
C1126 C1132 1.368 . S
C1127 C1111 1.349 . S
C1127 H1119 0.950 . S
C1127 C1125 1.327 . S
C1128 C1116 1.349 . S
C1128 H1122 0.950 . S
C1128 C1129 1.327 . S
C1129 H1123 0.950 . S
C1129 C1128 1.327 . S
C1129 C1133 1.429 . S
C1130 C1113 1.574 . S
C1130 H1124 0.949 . S
C1130 C1134 1.368 . S
C1131 C1112 1.429 . S
C1131 C1125 1.429 . S
C1131 C1132 1.523 . S
C1132 C1113 1.368 1_545 S
C1132 C1126 1.368 . S
C1132 C1131 1.523 . S
C1133 C1117 1.429 . S
C1133 C1129 1.429 . S
C1133 C1134 1.523 . S
C1134 C1118 1.368 1_565 S
C1134 C1130 1.368 . S
C1134 C1133 1.523 . S
H1135 C1110 0.950 . S
H1136 C1112 0.950 . S
H1137 C1113 0.949 . S
H1138 C1115 0.950 . S
H1139 C1117 0.950 . S
C1140 C1141 1.349 . S
C1140 C1142 1.327 . S
C1140 H1165 0.950 . S
C1141 C1140 1.349 . S
C1141 C1157 1.349 . S
C1142 C1140 1.327 . S
C1142 C1161 1.429 . S
C1142 H1166 0.950 . S
C1143 C1160 1.533 1_554 S
C1143 C1162 1.368 . S
C1143 H1167 0.949 . S
H1144 C1148 0.949 . S
C1145 C1146 1.349 . S
C1145 C1147 1.327 . S
C1145 H1168 0.950 . S
C1146 C1145 1.349 . S
C1146 C1158 1.349 . S
C1147 C1145 1.327 . S
C1147 C1163 1.429 . S
C1147 H1169 0.950 . S
C1148 H1144 0.949 . S
C1148 C1156 1.533 1_556 S
C1148 C1164 1.368 . S
H1149 C1157 0.950 . S
H1150 C1155 0.950 . S
H1151 C1156 0.955 . S
H1152 C1158 0.950 . S
H1153 C1159 0.950 . S
H1154 C1160 0.955 . S
C1155 H1150 0.950 . S
C1155 C1157 1.327 . S
C1155 C1161 1.429 . S
C1156 C1148 1.533 1_554 S
C1156 H1151 0.955 . S
C1156 C1162 1.406 . S
C1157 C1141 1.349 . S
C1157 H1149 0.950 . S
C1157 C1155 1.327 . S
C1158 C1146 1.349 . S
C1158 H1152 0.950 . S
C1158 C1159 1.327 . S
C1159 H1153 0.950 . S
C1159 C1158 1.327 . S
C1159 C1163 1.429 . S
C1160 C1143 1.533 1_556 S
C1160 H1154 0.955 . S
C1160 C1164 1.406 . S
C1161 C1142 1.429 . S
C1161 C1155 1.429 . S
C1161 C1162 1.523 . S
C1162 C1143 1.368 . S
C1162 C1156 1.406 . S
C1162 C1161 1.523 . S
C1163 C1147 1.429 . S
C1163 C1159 1.429 . S
C1163 C1164 1.523 . S
C1164 C1148 1.368 . S
C1164 C1160 1.406 . S
C1164 C1163 1.523 . S
H1165 C1140 0.950 . S
H1166 C1142 0.950 . S
H1167 C1143 0.949 . S
H1168 C1145 0.950 . S
H1169 C1147 0.950 . S
C1170 C1171 1.349 . S
C1170 C1172 1.327 . S
C1170 H1195 0.950 . S
C1171 C1170 1.349 . S
C1171 C1187 1.349 . S
C1172 C1170 1.327 . S
C1172 C1191 1.429 . S
C1172 H1196 0.950 . S
C1173 C1190 1.574 . S
C1173 C1192 1.368 1_655 S
C1173 H1197 0.949 . S
H1174 C1178 0.949 . S
C1175 C1176 1.349 . S
C1175 C1177 1.327 . S
C1175 H1198 0.950 . S
C1176 C1175 1.349 . S
C1176 C1188 1.349 . S
C1177 C1175 1.327 . S
C1177 C1193 1.429 . S
C1177 H1199 0.950 . S
C1178 H1174 0.949 . S
C1178 C1186 1.574 . S
C1178 C1194 1.368 1_455 S
H1179 C1187 0.950 . S
H1180 C1185 0.950 . S
H1181 C1186 0.949 . S
H1182 C1188 0.950 . S
H1183 C1189 0.950 . S
H1184 C1190 0.949 . S
C1185 H1180 0.950 . S
C1185 C1187 1.327 . S
C1185 C1191 1.429 . S
C1186 C1178 1.574 . S
C1186 H1181 0.949 . S
C1186 C1192 1.368 . S
C1187 C1171 1.349 . S
C1187 H1179 0.950 . S
C1187 C1185 1.327 . S
C1188 C1176 1.349 . S
C1188 H1182 0.950 . S
C1188 C1189 1.327 . S
C1189 H1183 0.950 . S
C1189 C1188 1.327 . S
C1189 C1193 1.429 . S
C1190 C1173 1.574 . S
C1190 H1184 0.949 . S
C1190 C1194 1.368 . S
C1191 C1172 1.429 . S
C1191 C1185 1.429 . S
C1191 C1192 1.523 . S
C1192 C1173 1.368 1_455 S
C1192 C1186 1.368 . S
C1192 C1191 1.523 . S
C1193 C1177 1.429 . S
C1193 C1189 1.429 . S
C1193 C1194 1.523 . S
C1194 C1178 1.368 1_655 S
C1194 C1190 1.368 . S
C1194 C1193 1.523 . S
H1195 C1170 0.950 . S
H1196 C1172 0.950 . S
H1197 C1173 0.949 . S
H1198 C1175 0.950 . S
H1199 C1177 0.950 . S
C1200 C1201 1.349 . S
C1200 C1202 1.327 . S
C1200 H1225 0.950 . S
C1201 C1200 1.349 . S
C1201 C1217 1.349 . S
C1202 C1200 1.327 . S
C1202 C1221 1.429 . S
C1202 H1226 0.950 . S
C1203 C1220 1.574 . S
C1203 C1222 1.368 . S
C1203 H1227 0.949 . S
H1204 C1208 0.949 . S
C1205 C1206 1.349 . S
C1205 C1207 1.327 . S
C1205 H1228 0.950 . S
C1206 C1205 1.349 . S
C1206 C1218 1.349 . S
C1207 C1205 1.327 . S
C1207 C1223 1.429 . S
C1207 H1229 0.950 . S
C1208 H1204 0.949 . S
C1208 C1216 1.574 . S
C1208 C1224 1.368 . S
H1209 C1217 0.950 . S
H1210 C1215 0.950 . S
H1211 C1216 0.949 . S
H1212 C1218 0.950 . S
H1213 C1219 0.950 . S
H1214 C1220 0.949 . S
C1215 H1210 0.950 . S
C1215 C1217 1.327 . S
C1215 C1221 1.429 . S
C1216 C1208 1.574 . S
C1216 H1211 0.949 . S
C1216 C1222 1.368 . S
C1217 C1201 1.349 . S
C1217 H1209 0.950 . S
C1217 C1215 1.327 . S
C1218 C1206 1.349 . S
C1218 H1212 0.950 . S
C1218 C1219 1.327 . S
C1219 H1213 0.950 . S
C1219 C1218 1.327 . S
C1219 C1223 1.429 . S
C1220 C1203 1.574 . S
C1220 H1214 0.949 . S
C1220 C1224 1.368 . S
C1221 C1202 1.429 . S
C1221 C1215 1.429 . S
C1221 C1222 1.523 . S
C1222 C1203 1.368 . S
C1222 C1216 1.368 . S
C1222 C1221 1.523 . S
C1223 C1207 1.429 . S
C1223 C1219 1.429 . S
C1223 C1224 1.523 . S
C1224 C1208 1.368 . S
C1224 C1220 1.368 . S
C1224 C1223 1.523 . S
H1225 C1200 0.950 . S
H1226 C1202 0.950 . S
H1227 C1203 0.949 . S
H1228 C1205 0.950 . S
H1229 C1207 0.950 . S
C1230 C1231 1.349 . S
C1230 C1232 1.327 . S
C1230 H1255 0.950 . S
C1231 C1230 1.349 . S
C1231 C1247 1.349 . S
C1232 C1230 1.327 . S
C1232 C1251 1.429 . S
C1232 H1256 0.950 . S
C1233 C1250 1.574 . S
C1233 C1252 1.368 . S
C1233 H1257 0.949 . S
H1234 C1238 0.949 . S
C1235 C1236 1.349 . S
C1235 C1237 1.327 . S
C1235 H1258 0.950 . S
C1236 C1235 1.349 . S
C1236 C1248 1.349 . S
C1237 C1235 1.327 . S
C1237 C1253 1.429 . S
C1237 H1259 0.950 . S
C1238 H1234 0.949 . S
C1238 C1246 1.574 . S
C1238 C1254 1.368 . S
H1239 C1247 0.950 . S
H1240 C1245 0.950 . S
H1241 C1246 0.949 . S
H1242 C1248 0.950 . S
H1243 C1249 0.950 . S
H1244 C1250 0.949 . S
C1245 H1240 0.950 . S
C1245 C1247 1.327 . S
C1245 C1251 1.429 . S
C1246 C1238 1.574 . S
C1246 H1241 0.949 . S
C1246 C1252 1.368 . S
C1247 C1231 1.349 . S
C1247 H1239 0.950 . S
C1247 C1245 1.327 . S
C1248 C1236 1.349 . S
C1248 H1242 0.950 . S
C1248 C1249 1.327 . S
C1249 H1243 0.950 . S
C1249 C1248 1.327 . S
C1249 C1253 1.429 . S
C1250 C1233 1.574 . S
C1250 H1244 0.949 . S
C1250 C1254 1.368 . S
C1251 C1232 1.429 . S
C1251 C1245 1.429 . S
C1251 C1252 1.523 . S
C1252 C1233 1.368 . S
C1252 C1246 1.368 . S
C1252 C1251 1.523 . S
C1253 C1237 1.429 . S
C1253 C1249 1.429 . S
C1253 C1254 1.523 . S
C1254 C1238 1.368 . S
C1254 C1250 1.368 . S
C1254 C1253 1.523 . S
H1255 C1230 0.950 . S
H1256 C1232 0.950 . S
H1257 C1233 0.949 . S
H1258 C1235 0.950 . S
H1259 C1237 0.950 . S
C1260 C1261 1.349 . S
C1260 C1262 1.327 . S
C1260 H1285 0.950 . S
C1261 C1260 1.349 . S
C1261 C1277 1.349 . S
C1262 C1260 1.327 . S
C1262 C1281 1.429 . S
C1262 H1286 0.950 . S
C1263 C1280 1.574 . S
C1263 C1282 1.368 . S
C1263 H1287 0.949 . S
H1264 C1268 0.949 . S
C1265 C1266 1.349 . S
C1265 C1267 1.327 . S
C1265 H1288 0.950 . S
C1266 C1265 1.349 . S
C1266 C1278 1.349 . S
C1267 C1265 1.327 . S
C1267 C1283 1.429 . S
C1267 H1289 0.950 . S
C1268 H1264 0.949 . S
C1268 C1276 1.574 . S
C1268 C1284 1.368 . S
H1269 C1277 0.950 . S
H1270 C1275 0.950 . S
H1271 C1276 0.949 . S
H1272 C1278 0.950 . S
H1273 C1279 0.950 . S
H1274 C1280 0.949 . S
C1275 H1270 0.950 . S
C1275 C1277 1.327 . S
C1275 C1281 1.429 . S
C1276 C1268 1.574 . S
C1276 H1271 0.949 . S
C1276 C1282 1.368 . S
C1277 C1261 1.349 . S
C1277 H1269 0.950 . S
C1277 C1275 1.327 . S
C1278 C1266 1.349 . S
C1278 H1272 0.950 . S
C1278 C1279 1.327 . S
C1279 H1273 0.950 . S
C1279 C1278 1.327 . S
C1279 C1283 1.429 . S
C1280 C1263 1.574 . S
C1280 H1274 0.949 . S
C1280 C1284 1.368 . S
C1281 C1262 1.429 . S
C1281 C1275 1.429 . S
C1281 C1282 1.523 . S
C1282 C1263 1.368 . S
C1282 C1276 1.368 . S
C1282 C1281 1.523 . S
C1283 C1267 1.429 . S
C1283 C1279 1.429 . S
C1283 C1284 1.523 . S
C1284 C1268 1.368 . S
C1284 C1280 1.368 . S
C1284 C1283 1.523 . S
H1285 C1260 0.950 . S
H1286 C1262 0.950 . S
H1287 C1263 0.949 . S
H1288 C1265 0.950 . S
H1289 C1267 0.950 . S
C1290 C1291 1.349 . S
C1290 C1292 1.327 . S
C1290 H1315 0.950 . S
C1291 C1290 1.349 . S
C1291 C1307 1.349 . S
C1292 C1290 1.327 . S
C1292 C1311 1.429 . S
C1292 H1316 0.950 . S
C1293 C1310 1.574 . S
C1293 C1312 1.368 . S
C1293 H1317 0.949 . S
H1294 C1298 0.949 . S
C1295 C1296 1.349 . S
C1295 C1297 1.327 . S
C1295 H1318 0.950 . S
C1296 C1295 1.349 . S
C1296 C1308 1.349 . S
C1297 C1295 1.327 . S
C1297 C1313 1.429 . S
C1297 H1319 0.950 . S
C1298 H1294 0.949 . S
C1298 C1306 1.574 . S
C1298 C1314 1.368 . S
H1299 C1307 0.950 . S
H1300 C1305 0.950 . S
H1301 C1306 0.949 . S
H1302 C1308 0.950 . S
H1303 C1309 0.950 . S
H1304 C1310 0.949 . S
C1305 H1300 0.950 . S
C1305 C1307 1.327 . S
C1305 C1311 1.429 . S
C1306 C1298 1.574 . S
C1306 H1301 0.949 . S
C1306 C1312 1.368 . S
C1307 C1291 1.349 . S
C1307 H1299 0.950 . S
C1307 C1305 1.327 . S
C1308 C1296 1.349 . S
C1308 H1302 0.950 . S
C1308 C1309 1.327 . S
C1309 H1303 0.950 . S
C1309 C1308 1.327 . S
C1309 C1313 1.429 . S
C1310 C1293 1.574 . S
C1310 H1304 0.949 . S
C1310 C1314 1.368 . S
C1311 C1292 1.429 . S
C1311 C1305 1.429 . S
C1311 C1312 1.523 . S
C1312 C1293 1.368 . S
C1312 C1306 1.368 . S
C1312 C1311 1.523 . S
C1313 C1297 1.429 . S
C1313 C1309 1.429 . S
C1313 C1314 1.523 . S
C1314 C1298 1.368 . S
C1314 C1310 1.368 . S
C1314 C1313 1.523 . S
H1315 C1290 0.950 . S
H1316 C1292 0.950 . S
H1317 C1293 0.949 . S
H1318 C1295 0.950 . S
H1319 C1297 0.950 . S
C1320 C1321 1.349 . S
C1320 C1322 1.327 . S
C1320 H1345 0.950 . S
C1321 C1320 1.349 . S
C1321 C1337 1.349 . S
C1322 C1320 1.327 . S
C1322 C1341 1.429 . S
C1322 H1346 0.950 . S
C1323 C1340 1.574 . S
C1323 C1342 1.368 . S
C1323 H1347 0.949 . S
H1324 C1328 0.949 . S
C1325 C1326 1.349 . S
C1325 C1327 1.327 . S
C1325 H1348 0.950 . S
C1326 C1325 1.349 . S
C1326 C1338 1.349 . S
C1327 C1325 1.327 . S
C1327 C1343 1.429 . S
C1327 H1349 0.950 . S
C1328 H1324 0.949 . S
C1328 C1336 1.574 . S
C1328 C1344 1.368 . S
H1329 C1337 0.950 . S
H1330 C1335 0.950 . S
H1331 C1336 0.949 . S
H1332 C1338 0.950 . S
H1333 C1339 0.950 . S
H1334 C1340 0.949 . S
C1335 H1330 0.950 . S
C1335 C1337 1.327 . S
C1335 C1341 1.429 . S
C1336 C1328 1.574 . S
C1336 H1331 0.949 . S
C1336 C1342 1.368 . S
C1337 C1321 1.349 . S
C1337 H1329 0.950 . S
C1337 C1335 1.327 . S
C1338 C1326 1.349 . S
C1338 H1332 0.950 . S
C1338 C1339 1.327 . S
C1339 H1333 0.950 . S
C1339 C1338 1.327 . S
C1339 C1343 1.429 . S
C1340 C1323 1.574 . S
C1340 H1334 0.949 . S
C1340 C1344 1.368 . S
C1341 C1322 1.429 . S
C1341 C1335 1.429 . S
C1341 C1342 1.523 . S
C1342 C1323 1.368 . S
C1342 C1336 1.368 . S
C1342 C1341 1.523 . S
C1343 C1327 1.429 . S
C1343 C1339 1.429 . S
C1343 C1344 1.523 . S
C1344 C1328 1.368 . S
C1344 C1340 1.368 . S
C1344 C1343 1.523 . S
H1345 C1320 0.950 . S
H1346 C1322 0.950 . S
H1347 C1323 0.949 . S
H1348 C1325 0.950 . S
H1349 C1327 0.950 . S
C1350 C1351 1.349 . S
C1350 C1352 1.327 . S
C1350 H1375 0.950 . S
C1351 C1350 1.349 . S
C1351 C1367 1.349 . S
C1352 C1350 1.327 . S
C1352 C1371 1.429 . S
C1352 H1376 0.950 . S
C1353 C1370 1.574 . S
C1353 C1372 1.368 . S
C1353 H1377 0.949 . S
H1354 C1358 0.949 . S
C1355 C1356 1.349 . S
C1355 C1357 1.327 . S
C1355 H1378 0.950 . S
C1356 C1355 1.349 . S
C1356 C1368 1.349 . S
C1357 C1355 1.327 . S
C1357 C1373 1.429 . S
C1357 H1379 0.950 . S
C1358 H1354 0.949 . S
C1358 C1366 1.574 . S
C1358 C1374 1.368 . S
H1359 C1367 0.950 . S
H1360 C1365 0.950 . S
H1361 C1366 0.949 . S
H1362 C1368 0.950 . S
H1363 C1369 0.950 . S
H1364 C1370 0.949 . S
C1365 H1360 0.950 . S
C1365 C1367 1.327 . S
C1365 C1371 1.429 . S
C1366 C1358 1.574 . S
C1366 H1361 0.949 . S
C1366 C1372 1.368 . S
C1367 C1351 1.349 . S
C1367 H1359 0.950 . S
C1367 C1365 1.327 . S
C1368 C1356 1.349 . S
C1368 H1362 0.950 . S
C1368 C1369 1.327 . S
C1369 H1363 0.950 . S
C1369 C1368 1.327 . S
C1369 C1373 1.429 . S
C1370 C1353 1.574 . S
C1370 H1364 0.949 . S
C1370 C1374 1.368 . S
C1371 C1352 1.429 . S
C1371 C1365 1.429 . S
C1371 C1372 1.523 . S
C1372 C1353 1.368 . S
C1372 C1366 1.368 . S
C1372 C1371 1.523 . S
C1373 C1357 1.429 . S
C1373 C1369 1.429 . S
C1373 C1374 1.523 . S
C1374 C1358 1.368 . S
C1374 C1370 1.368 . S
C1374 C1373 1.523 . S
H1375 C1350 0.950 . S
H1376 C1352 0.950 . S
H1377 C1353 0.949 . S
H1378 C1355 0.950 . S
H1379 C1357 0.950 . S
C1380 C1381 1.349 . S
C1380 C1382 1.327 . S
C1380 H1405 0.950 . S
C1381 C1380 1.349 . S
C1381 C1397 1.349 . S
C1382 C1380 1.327 . S
C1382 C1401 1.429 . S
C1382 H1406 0.950 . S
C1383 C1400 1.574 . S
C1383 C1402 1.368 . S
C1383 H1407 0.949 . S
H1384 C1388 0.949 . S
C1385 C1386 1.349 . S
C1385 C1387 1.327 . S
C1385 H1408 0.950 . S
C1386 C1385 1.349 . S
C1386 C1398 1.349 . S
C1387 C1385 1.327 . S
C1387 C1403 1.429 . S
C1387 H1409 0.950 . S
C1388 H1384 0.949 . S
C1388 C1396 1.574 . S
C1388 C1404 1.368 . S
H1389 C1397 0.950 . S
H1390 C1395 0.950 . S
H1391 C1396 0.949 . S
H1392 C1398 0.950 . S
H1393 C1399 0.950 . S
H1394 C1400 0.949 . S
C1395 H1390 0.950 . S
C1395 C1397 1.327 . S
C1395 C1401 1.429 . S
C1396 C1388 1.574 . S
C1396 H1391 0.949 . S
C1396 C1402 1.368 . S
C1397 C1381 1.349 . S
C1397 H1389 0.950 . S
C1397 C1395 1.327 . S
C1398 C1386 1.349 . S
C1398 H1392 0.950 . S
C1398 C1399 1.327 . S
C1399 H1393 0.950 . S
C1399 C1398 1.327 . S
C1399 C1403 1.429 . S
C1400 C1383 1.574 . S
C1400 H1394 0.949 . S
C1400 C1404 1.368 . S
C1401 C1382 1.429 . S
C1401 C1395 1.429 . S
C1401 C1402 1.523 . S
C1402 C1383 1.368 . S
C1402 C1396 1.368 . S
C1402 C1401 1.523 . S
C1403 C1387 1.429 . S
C1403 C1399 1.429 . S
C1403 C1404 1.523 . S
C1404 C1388 1.368 . S
C1404 C1400 1.368 . S
C1404 C1403 1.523 . S
H1405 C1380 0.950 . S
H1406 C1382 0.950 . S
H1407 C1383 0.949 . S
H1408 C1385 0.950 . S
H1409 C1387 0.950 . S
C1410 C1411 1.349 . S
C1410 C1412 1.327 . S
C1410 H1435 0.950 . S
C1411 C1410 1.349 . S
C1411 C1427 1.349 . S
C1412 C1410 1.327 . S
C1412 C1431 1.429 . S
C1412 H1436 0.950 . S
C1413 C1430 1.574 . S
C1413 C1432 1.368 . S
C1413 H1437 0.949 . S
H1414 C1418 0.949 . S
C1415 C1416 1.349 . S
C1415 C1417 1.327 . S
C1415 H1438 0.950 . S
C1416 C1415 1.349 . S
C1416 C1428 1.349 . S
C1417 C1415 1.327 . S
C1417 C1433 1.429 . S
C1417 H1439 0.950 . S
C1418 H1414 0.949 . S
C1418 C1426 1.574 . S
C1418 C1434 1.368 . S
H1419 C1427 0.950 . S
H1420 C1425 0.950 . S
H1421 C1426 0.949 . S
H1422 C1428 0.950 . S
H1423 C1429 0.950 . S
H1424 C1430 0.949 . S
C1425 H1420 0.950 . S
C1425 C1427 1.327 . S
C1425 C1431 1.429 . S
C1426 C1418 1.574 . S
C1426 H1421 0.949 . S
C1426 C1432 1.368 . S
C1427 C1411 1.349 . S
C1427 H1419 0.950 . S
C1427 C1425 1.327 . S
C1428 C1416 1.349 . S
C1428 H1422 0.950 . S
C1428 C1429 1.327 . S
C1429 H1423 0.950 . S
C1429 C1428 1.327 . S
C1429 C1433 1.429 . S
C1430 C1413 1.574 . S
C1430 H1424 0.949 . S
C1430 C1434 1.368 . S
C1431 C1412 1.429 . S
C1431 C1425 1.429 . S
C1431 C1432 1.523 . S
C1432 C1413 1.368 . S
C1432 C1426 1.368 . S
C1432 C1431 1.523 . S
C1433 C1417 1.429 . S
C1433 C1429 1.429 . S
C1433 C1434 1.523 . S
C1434 C1418 1.368 . S
C1434 C1430 1.368 . S
C1434 C1433 1.523 . S
H1435 C1410 0.950 . S
H1436 C1412 0.950 . S
H1437 C1413 0.949 . S
H1438 C1415 0.950 . S
H1439 C1417 0.950 . S
C1440 C1441 1.349 . S
C1440 C1442 1.327 . S
C1440 H1465 0.950 . S
C1441 C1440 1.349 . S
C1441 C1457 1.349 . S
C1442 C1440 1.327 . S
C1442 C1461 1.429 . S
C1442 H1466 0.950 . S
C1443 C1460 1.574 . S
C1443 C1462 1.368 . S
C1443 H1467 0.949 . S
H1444 C1448 0.949 . S
C1445 C1446 1.349 . S
C1445 C1447 1.327 . S
C1445 H1468 0.950 . S
C1446 C1445 1.349 . S
C1446 C1458 1.349 . S
C1447 C1445 1.327 . S
C1447 C1463 1.429 . S
C1447 H1469 0.950 . S
C1448 H1444 0.949 . S
C1448 C1456 1.574 . S
C1448 C1464 1.368 . S
H1449 C1457 0.950 . S
H1450 C1455 0.950 . S
H1451 C1456 0.949 . S
H1452 C1458 0.950 . S
H1453 C1459 0.950 . S
H1454 C1460 0.949 . S
C1455 H1450 0.950 . S
C1455 C1457 1.327 . S
C1455 C1461 1.429 . S
C1456 C1448 1.574 . S
C1456 H1451 0.949 . S
C1456 C1462 1.368 . S
C1457 C1441 1.349 . S
C1457 H1449 0.950 . S
C1457 C1455 1.327 . S
C1458 C1446 1.349 . S
C1458 H1452 0.950 . S
C1458 C1459 1.327 . S
C1459 H1453 0.950 . S
C1459 C1458 1.327 . S
C1459 C1463 1.429 . S
C1460 C1443 1.574 . S
C1460 H1454 0.949 . S
C1460 C1464 1.368 . S
C1461 C1442 1.429 . S
C1461 C1455 1.429 . S
C1461 C1462 1.523 . S
C1462 C1443 1.368 . S
C1462 C1456 1.368 . S
C1462 C1461 1.523 . S
C1463 C1447 1.429 . S
C1463 C1459 1.429 . S
C1463 C1464 1.523 . S
C1464 C1448 1.368 . S
C1464 C1460 1.368 . S
C1464 C1463 1.523 . S
H1465 C1440 0.950 . S
H1466 C1442 0.950 . S
H1467 C1443 0.949 . S
H1468 C1445 0.950 . S
H1469 C1447 0.950 . S
C1470 C1471 1.349 . S
C1470 C1472 1.327 . S
C1470 H1495 0.950 . S
C1471 C1470 1.349 . S
C1471 C1487 1.349 . S
C1472 C1470 1.327 . S
C1472 C1491 1.429 . S
C1472 H1496 0.950 . S
C1473 C1490 1.574 . S
C1473 C1492 1.368 . S
C1473 H1497 0.949 . S
H1474 C1478 0.949 . S
C1475 C1476 1.349 . S
C1475 C1477 1.327 . S
C1475 H1498 0.950 . S
C1476 C1475 1.349 . S
C1476 C1488 1.349 . S
C1477 C1475 1.327 . S
C1477 C1493 1.429 . S
C1477 H1499 0.950 . S
C1478 H1474 0.949 . S
C1478 C1486 1.574 . S
C1478 C1494 1.368 . S
H1479 C1487 0.950 . S
H1480 C1485 0.950 . S
H1481 C1486 0.949 . S
H1482 C1488 0.950 . S
H1483 C1489 0.950 . S
H1484 C1490 0.949 . S
C1485 H1480 0.950 . S
C1485 C1487 1.327 . S
C1485 C1491 1.429 . S
C1486 C1478 1.574 . S
C1486 H1481 0.949 . S
C1486 C1492 1.368 . S
C1487 C1471 1.349 . S
C1487 H1479 0.950 . S
C1487 C1485 1.327 . S
C1488 C1476 1.349 . S
C1488 H1482 0.950 . S
C1488 C1489 1.327 . S
C1489 H1483 0.950 . S
C1489 C1488 1.327 . S
C1489 C1493 1.429 . S
C1490 C1473 1.574 . S
C1490 H1484 0.949 . S
C1490 C1494 1.368 . S
C1491 C1472 1.429 . S
C1491 C1485 1.429 . S
C1491 C1492 1.523 . S
C1492 C1473 1.368 . S
C1492 C1486 1.368 . S
C1492 C1491 1.523 . S
C1493 C1477 1.429 . S
C1493 C1489 1.429 . S
C1493 C1494 1.523 . S
C1494 C1478 1.368 . S
C1494 C1490 1.368 . S
C1494 C1493 1.523 . S
H1495 C1470 0.950 . S
H1496 C1472 0.950 . S
H1497 C1473 0.949 . S
H1498 C1475 0.950 . S
H1499 C1477 0.950 . S
C1500 C1501 1.349 . S
C1500 C1502 1.327 . S
C1500 H1525 0.950 . S
C1501 C1500 1.349 . S
C1501 C1517 1.349 . S
C1502 C1500 1.327 . S
C1502 C1521 1.429 . S
C1502 H1526 0.950 . S
C1503 C1520 1.574 . S
C1503 C1522 1.368 . S
C1503 H1527 0.949 . S
H1504 C1508 0.949 . S
C1505 C1506 1.349 . S
C1505 C1507 1.327 . S
C1505 H1528 0.950 . S
C1506 C1505 1.349 . S
C1506 C1518 1.349 . S
C1507 C1505 1.327 . S
C1507 C1523 1.429 . S
C1507 H1529 0.950 . S
C1508 H1504 0.949 . S
C1508 C1516 1.574 . S
C1508 C1524 1.368 . S
H1509 C1517 0.950 . S
H1510 C1515 0.950 . S
H1511 C1516 0.949 . S
H1512 C1518 0.950 . S
H1513 C1519 0.950 . S
H1514 C1520 0.949 . S
C1515 H1510 0.950 . S
C1515 C1517 1.327 . S
C1515 C1521 1.429 . S
C1516 C1508 1.574 . S
C1516 H1511 0.949 . S
C1516 C1522 1.368 . S
C1517 C1501 1.349 . S
C1517 H1509 0.950 . S
C1517 C1515 1.327 . S
C1518 C1506 1.349 . S
C1518 H1512 0.950 . S
C1518 C1519 1.327 . S
C1519 H1513 0.950 . S
C1519 C1518 1.327 . S
C1519 C1523 1.429 . S
C1520 C1503 1.574 . S
C1520 H1514 0.949 . S
C1520 C1524 1.368 . S
C1521 C1502 1.429 . S
C1521 C1515 1.429 . S
C1521 C1522 1.523 . S
C1522 C1503 1.368 . S
C1522 C1516 1.368 . S
C1522 C1521 1.523 . S
C1523 C1507 1.429 . S
C1523 C1519 1.429 . S
C1523 C1524 1.523 . S
C1524 C1508 1.368 . S
C1524 C1520 1.368 . S
C1524 C1523 1.523 . S
H1525 C1500 0.950 . S
H1526 C1502 0.950 . S
H1527 C1503 0.949 . S
H1528 C1505 0.950 . S
H1529 C1507 0.950 . S
C1530 C1531 1.349 . S
C1530 C1532 1.327 . S
C1530 H1555 0.950 . S
C1531 C1530 1.349 . S
C1531 C1547 1.349 . S
C1532 C1530 1.327 . S
C1532 C1551 1.429 . S
C1532 H1556 0.950 . S
C1533 C1550 1.574 . S
C1533 C1552 1.368 . S
C1533 H1557 0.949 . S
H1534 C1538 0.949 . S
C1535 C1536 1.349 . S
C1535 C1537 1.327 . S
C1535 H1558 0.950 . S
C1536 C1535 1.349 . S
C1536 C1548 1.349 . S
C1537 C1535 1.327 . S
C1537 C1553 1.429 . S
C1537 H1559 0.950 . S
C1538 H1534 0.949 . S
C1538 C1546 1.574 . S
C1538 C1554 1.368 . S
H1539 C1547 0.950 . S
H1540 C1545 0.950 . S
H1541 C1546 0.949 . S
H1542 C1548 0.950 . S
H1543 C1549 0.950 . S
H1544 C1550 0.949 . S
C1545 H1540 0.950 . S
C1545 C1547 1.327 . S
C1545 C1551 1.429 . S
C1546 C1538 1.574 . S
C1546 H1541 0.949 . S
C1546 C1552 1.368 . S
C1547 C1531 1.349 . S
C1547 H1539 0.950 . S
C1547 C1545 1.327 . S
C1548 C1536 1.349 . S
C1548 H1542 0.950 . S
C1548 C1549 1.327 . S
C1549 H1543 0.950 . S
C1549 C1548 1.327 . S
C1549 C1553 1.429 . S
C1550 C1533 1.574 . S
C1550 H1544 0.949 . S
C1550 C1554 1.368 . S
C1551 C1532 1.429 . S
C1551 C1545 1.429 . S
C1551 C1552 1.523 . S
C1552 C1533 1.368 . S
C1552 C1546 1.368 . S
C1552 C1551 1.523 . S
C1553 C1537 1.429 . S
C1553 C1549 1.429 . S
C1553 C1554 1.523 . S
C1554 C1538 1.368 . S
C1554 C1550 1.368 . S
C1554 C1553 1.523 . S
H1555 C1530 0.950 . S
H1556 C1532 0.950 . S
H1557 C1533 0.949 . S
H1558 C1535 0.950 . S
H1559 C1537 0.950 . S
C481 C96 1.250 . S
C486 C11 1.230 . S
C511 C127 1.250 . S
C516 C42 1.230 . S
C541 C91 1.230 . S
C546 C176 1.250 . S
C571 C122 1.230 . S
C576 C207 1.250 . S
C601 C16 1.250 . S
C606 C171 1.230 . S
C631 C47 1.250 . S
C636 C202 1.230 . S
C661 C407 1.250 . S
C666 C242 1.230 . S
C691 C291 1.230 . S
C696 C456 1.250 . S
C721 C322 1.230 . S
C726 C247 1.250 . S
C751 C371 1.230 . S
C756 C296 1.250 . S
C781 C402 1.230 . S
C786 C327 1.250 . S
C811 C376 1.250 . S
C816 C451 1.230 . S
C841 C130 1.756 . S
C846 C19 1.756 . S
C871 C50 1.756 . S
C876 C179 1.756 . S
C901 C99 1.756 . S
C906 C210 1.756 . S
C931 C250 1.756 . S
C936 C379 1.756 . S
C961 C299 1.756 . S
C966 C410 1.756 . S
C991 C330 1.756 . S
C996 C459 1.756 . S
C1021 C290 2.281 . S
C1026 C10 2.281 . S
C1051 C59 2.281 . S
C1056 C339 2.281 . S
C1081 C370 2.281 . S
C1086 C90 2.281 . S
C1111 C139 2.281 . S
C1116 C419 2.281 . S
C1141 C170 2.281 . S
C1146 C450 2.281 . S
C1171 C259 2.281 . S
C1176 C219 2.281 . S
C1201 C87 1.736 . S
C1206 C2 1.753 . S
C1231 C51 1.753 . S
C1236 C136 1.736 . S
C1261 C82 1.753 . S
C1266 C167 1.736 . S
C1291 C131 1.753 . S
C1296 C216 1.736 . S
C1321 C7 1.736 . S
C1326 C162 1.753 . S
C1351 C56 1.736 . S
C1356 C211 1.753 . S
C1381 C416 1.736 . S
C1386 C251 1.753 . S
C1411 C282 1.753 . S
C1416 C447 1.736 . S
C1441 C331 1.753 . S
C1446 C256 1.736 . S
C1471 C287 1.736 . S
C1476 C362 1.753 . S
C1501 C411 1.753 . S
C1506 C336 1.736 . S
C1531 C442 1.753 . S
C1536 C367 1.736 . S
