# Generated by pormake.
# Topology vbw, (6)-cn, num edge types: 1
# Building blocks:
#     Node 0, Type 0, BuildingBlock: OJICUG_clean_sbu_0, # of connection points: 6
#     Node 1, Type 0, BuildingBlock: OJICUG_clean_sbu_0, # of connection points: 6
#     Node 2, Type 0, BuildingBlock: OJICUG_clean_sbu_0, # of connection points: 6
#     Node 3, Type 0, BuildingBlock: OJICUG_clean_sbu_0, # of connection points: 6
#     Node 4, Type 0, BuildingBlock: OJICUG_clean_sbu_0, # of connection points: 6
#     Node 5, Type 0, BuildingBlock: OJICUG_clean_sbu_0, # of connection points: 6
#     Node 6, Type 0, BuildingBlock: OJICUG_clean_sbu_0, # of connection points: 6
#     Node 7, Type 0, BuildingBlock: OJICUG_clean_sbu_0, # of connection points: 6
#     Node 8, Type 0, BuildingBlock: OJICUG_clean_sbu_0, # of connection points: 6
#     Node 9, Type 0, BuildingBlock: OJICUG_clean_sbu_0, # of connection points: 6
#     Node 10, Type 0, BuildingBlock: OJICUG_clean_sbu_0, # of connection points: 6
#     Node 11, Type 0, BuildingBlock: OJICUG_clean_sbu_0, # of connection points: 6
#     Node 12, Type 0, BuildingBlock: OJICUG_clean_sbu_0, # of connection points: 6
#     Node 13, Type 0, BuildingBlock: OJICUG_clean_sbu_0, # of connection points: 6
#     Node 14, Type 0, BuildingBlock: OJICUG_clean_sbu_0, # of connection points: 6
#     Node 15, Type 0, BuildingBlock: OJICUG_clean_sbu_0, # of connection points: 6
#     Edge 16, Type (0, 0), BuildingBlock: CIFDUS_clean_linker_0, # of connection points: 2
#     Edge 17, Type (0, 0), BuildingBlock: CIFDUS_clean_linker_0, # of connection points: 2
#     Edge 18, Type (0, 0), BuildingBlock: CIFDUS_clean_linker_0, # of connection points: 2
#     Edge 19, Type (0, 0), BuildingBlock: CIFDUS_clean_linker_0, # of connection points: 2
#     Edge 20, Type (0, 0), BuildingBlock: CIFDUS_clean_linker_0, # of connection points: 2
#     Edge 21, Type (0, 0), BuildingBlock: CIFDUS_clean_linker_0, # of connection points: 2
#     Edge 22, Type (0, 0), BuildingBlock: CIFDUS_clean_linker_0, # of connection points: 2
#     Edge 23, Type (0, 0), BuildingBlock: CIFDUS_clean_linker_0, # of connection points: 2
#     Edge 24, Type (0, 0), BuildingBlock: CIFDUS_clean_linker_0, # of connection points: 2
#     Edge 25, Type (0, 0), BuildingBlock: CIFDUS_clean_linker_0, # of connection points: 2
#     Edge 26, Type (0, 0), BuildingBlock: CIFDUS_clean_linker_0, # of connection points: 2
#     Edge 27, Type (0, 0), BuildingBlock: CIFDUS_clean_linker_0, # of connection points: 2
#     Edge 28, Type (0, 0), BuildingBlock: CIFDUS_clean_linker_0, # of connection points: 2
#     Edge 29, Type (0, 0), BuildingBlock: CIFDUS_clean_linker_0, # of connection points: 2
#     Edge 30, Type (0, 0), BuildingBlock: CIFDUS_clean_linker_0, # of connection points: 2
#     Edge 31, Type (0, 0), BuildingBlock: CIFDUS_clean_linker_0, # of connection points: 2
#     Edge 32, Type (0, 0), BuildingBlock: CIFDUS_clean_linker_0, # of connection points: 2
#     Edge 33, Type (0, 0), BuildingBlock: CIFDUS_clean_linker_0, # of connection points: 2
#     Edge 34, Type (0, 0), BuildingBlock: CIFDUS_clean_linker_0, # of connection points: 2
#     Edge 35, Type (0, 0), BuildingBlock: CIFDUS_clean_linker_0, # of connection points: 2
#     Edge 36, Type (0, 0), BuildingBlock: CIFDUS_clean_linker_0, # of connection points: 2
#     Edge 37, Type (0, 0), BuildingBlock: CIFDUS_clean_linker_0, # of connection points: 2
#     Edge 38, Type (0, 0), BuildingBlock: CIFDUS_clean_linker_0, # of connection points: 2
#     Edge 39, Type (0, 0), BuildingBlock: CIFDUS_clean_linker_0, # of connection points: 2
#     Edge 40, Type (0, 0), BuildingBlock: CIFDUS_clean_linker_0, # of connection points: 2
#     Edge 41, Type (0, 0), BuildingBlock: CIFDUS_clean_linker_0, # of connection points: 2
#     Edge 42, Type (0, 0), BuildingBlock: CIFDUS_clean_linker_0, # of connection points: 2
#     Edge 43, Type (0, 0), BuildingBlock: CIFDUS_clean_linker_0, # of connection points: 2
#     Edge 44, Type (0, 0), BuildingBlock: CIFDUS_clean_linker_0, # of connection points: 2
#     Edge 45, Type (0, 0), BuildingBlock: CIFDUS_clean_linker_0, # of connection points: 2
#     Edge 46, Type (0, 0), BuildingBlock: CIFDUS_clean_linker_0, # of connection points: 2
#     Edge 47, Type (0, 0), BuildingBlock: CIFDUS_clean_linker_0, # of connection points: 2
#     Edge 48, Type (0, 0), BuildingBlock: CIFDUS_clean_linker_0, # of connection points: 2
#     Edge 49, Type (0, 0), BuildingBlock: CIFDUS_clean_linker_0, # of connection points: 2
#     Edge 50, Type (0, 0), BuildingBlock: CIFDUS_clean_linker_0, # of connection points: 2
#     Edge 51, Type (0, 0), BuildingBlock: CIFDUS_clean_linker_0, # of connection points: 2
#     Edge 52, Type (0, 0), BuildingBlock: CIFDUS_clean_linker_0, # of connection points: 2
#     Edge 53, Type (0, 0), BuildingBlock: CIFDUS_clean_linker_0, # of connection points: 2
#     Edge 54, Type (0, 0), BuildingBlock: CIFDUS_clean_linker_0, # of connection points: 2
#     Edge 55, Type (0, 0), BuildingBlock: CIFDUS_clean_linker_0, # of connection points: 2
#     Edge 56, Type (0, 0), BuildingBlock: CIFDUS_clean_linker_0, # of connection points: 2
#     Edge 57, Type (0, 0), BuildingBlock: CIFDUS_clean_linker_0, # of connection points: 2
#     Edge 58, Type (0, 0), BuildingBlock: CIFDUS_clean_linker_0, # of connection points: 2
#     Edge 59, Type (0, 0), BuildingBlock: CIFDUS_clean_linker_0, # of connection points: 2
#     Edge 60, Type (0, 0), BuildingBlock: CIFDUS_clean_linker_0, # of connection points: 2
#     Edge 61, Type (0, 0), BuildingBlock: CIFDUS_clean_linker_0, # of connection points: 2
#     Edge 62, Type (0, 0), BuildingBlock: CIFDUS_clean_linker_0, # of connection points: 2
#     Edge 63, Type (0, 0), BuildingBlock: CIFDUS_clean_linker_0, # of connection points: 2
# Relax obj value: 0.200
# Max RMSD: 0.231
# Mean RMSD: 0.231
data_MOF--net-vbw--node1-OJICUG_clean_sbu_0--edge1-CIFDUS_clean_linker_0
_symmetry_space_group_name_H-M    P1
_symmetry_Int_Tables_number       1
_symmetry_cell_setting            triclinic
loop_
_symmetry_equiv_pos_as_xyz
'x, y, z'
_cell_length_a     51.412389
_cell_length_b     41.151427
_cell_length_c     25.526917
_cell_angle_alpha  89.669475
_cell_angle_beta   89.669326
_cell_angle_gamma 89.911604
loop_
_atom_site_label
_atom_site_type_symbol
_atom_site_fract_x
_atom_site_fract_y
_atom_site_fract_z
_atom_type_partial_charge
Sc0 Sc 0.15142 0.14831 0.04218 0.0
Sc1 Sc 0.11354 0.21231 0.09219 0.0
Sc2 Sc 0.11662 0.13672 0.1574 0.0
O3 O 0.12707 0.16607 0.09702 0.0
C4 C 0.11812 0.08656 0.06204 0.0
C5 C 0.11563 0.19522 0.97133 0.0
C6 C 0.06352 0.16888 0.1247 0.0
C7 C 0.17356 0.21889 0.0582 0.0
C8 C 0.17604 0.12175 0.1498 0.0
C9 C 0.119 0.20576 0.21496 0.0
O10 O 0.12759 0.10662 0.02929 0.0
O11 O 0.10492 0.20964 0.00975 0.0
O12 O 0.07667 0.14425 0.13928 0.0
O13 O 0.17644 0.18871 0.05019 0.0
O14 O 0.15641 0.12867 0.1781 0.0
O15 O 0.12137 0.22256 0.17339 0.0
O16 O 0.17548 0.12329 0.09986 0.0
O17 O 0.15188 0.23163 0.07199 0.0
O18 O 0.11533 0.17526 0.21432 0.0
O19 O 0.13235 0.17267 0.9774 0.0
O20 O 0.11603 0.09288 0.1106 0.0
O21 O 0.07387 0.19591 0.1106 0.0
Sc22 Sc 0.32146 0.85652 0.54248 0.0
Sc23 Sc 0.3602 0.79377 0.58858 0.0
Sc24 Sc 0.36539 0.87096 0.64292 0.0
O25 O 0.34915 0.84056 0.59128 0.0
C26 C 0.3594 0.91554 0.53984 0.0
C27 C 0.35536 0.80802 0.47042 0.0
C28 C 0.41374 0.83004 0.61093 0.0
C29 C 0.29958 0.78883 0.56276 0.0
C30 C 0.30631 0.89113 0.6506 0.0
C31 C 0.36001 0.80395 0.70822 0.0
O32 O 0.34562 0.89518 0.5153 0.0
O33 O 0.3697 0.79834 0.50769 0.0
O34 O 0.40396 0.85821 0.61724 0.0
O35 O 0.29576 0.81907 0.567 0.0
O36 O 0.32773 0.88441 0.67297 0.0
O37 O 0.35182 0.78715 0.67004 0.0
O38 O 0.3028 0.88665 0.60174 0.0
O39 O 0.32207 0.77621 0.56689 0.0
O40 O 0.3674 0.83342 0.70306 0.0
O41 O 0.33581 0.82673 0.47769 0.0
O42 O 0.36559 0.91183 0.5879 0.0
O43 O 0.40003 0.80458 0.60644 0.0
Sc44 Sc 0.15762 0.86419 0.91335 0.0
Sc45 Sc 0.12429 0.79535 0.86909 0.0
Sc46 Sc 0.11227 0.87178 0.81239 0.0
O47 O 0.13133 0.8437 0.86526 0.0
C48 C 0.11711 0.92121 0.90816 0.0
C49 C 0.13067 0.81209 0.98994 0.0
C50 C 0.06782 0.82731 0.85828 0.0
C51 C 0.18529 0.79742 0.88671 0.0
C52 C 0.17069 0.89475 0.79975 0.0
C53 C 0.11859 0.80569 0.74809 0.0
O54 O 0.13246 0.90347 0.9344 0.0
O55 O 0.12134 0.79547 0.95274 0.0
O56 O 0.07546 0.85544 0.84358 0.0
O57 O 0.18555 0.82721 0.89899 0.0
O58 O 0.14882 0.8878 0.77936 0.0
O59 O 0.12696 0.78908 0.78636 0.0
O60 O 0.17527 0.89094 0.84855 0.0
O61 O 0.16464 0.78235 0.87477 0.0
O62 O 0.11098 0.83488 0.75285 0.0
O63 O 0.14389 0.83791 0.98226 0.0
O64 O 0.11002 0.9141 0.86208 0.0
O65 O 0.08304 0.80321 0.86469 0.0
Sc66 Sc 0.35869 0.14023 0.33008 0.0
Sc67 Sc 0.36228 0.21601 0.39035 0.0
Sc68 Sc 0.32115 0.15664 0.43916 0.0
O69 O 0.34761 0.17104 0.38633 0.0
C70 C 0.29969 0.12473 0.3347 0.0
C71 C 0.35697 0.20921 0.26922 0.0
C72 C 0.30134 0.2251 0.41696 0.0
C73 C 0.41183 0.17178 0.35928 0.0
C74 C 0.35587 0.09576 0.43406 0.0
C75 C 0.35766 0.20317 0.50815 0.0
O76 O 0.31918 0.13288 0.3069 0.0
O77 O 0.35305 0.22602 0.31012 0.0
O78 O 0.29644 0.195 0.4154 0.0
O79 O 0.39851 0.14659 0.34958 0.0
O80 O 0.34579 0.11768 0.46259 0.0
O81 O 0.3729 0.20942 0.47028 0.0
O82 O 0.35785 0.09858 0.3842 0.0
O83 O 0.40146 0.19942 0.36901 0.0
O84 O 0.33686 0.18679 0.50192 0.0
O85 O 0.36142 0.17865 0.27096 0.0
O86 O 0.30014 0.12587 0.38458 0.0
O87 O 0.32449 0.23653 0.41506 0.0
Sc88 Sc 0.86688 0.86636 0.86179 0.0
Sc89 Sc 0.86369 0.78994 0.92147 0.0
Sc90 Sc 0.8202 0.85065 0.95647 0.0
O91 O 0.85041 0.83569 0.91339 0.0
C92 C 0.85596 0.91139 0.96186 0.0
C93 C 0.91562 0.83188 0.90584 0.0
C94 C 0.85209 0.80479 0.03741 0.0
C95 C 0.86614 0.79803 0.80015 0.0
C96 C 0.8085 0.88276 0.84422 0.0
C97 C 0.8019 0.78162 0.93624 0.0
O98 O 0.86322 0.90817 0.91419 0.0
O99 O 0.90418 0.80439 0.9088 0.0
O100 O 0.83246 0.82233 0.02509 0.0
O101 O 0.87272 0.82791 0.80383 0.0
O102 O 0.80335 0.87955 0.89298 0.0
O103 O 0.825 0.77025 0.93811 0.0
O104 O 0.83065 0.87608 0.82514 0.0
O105 O 0.85872 0.78128 0.83948 0.0
O106 O 0.79743 0.81153 0.92886 0.0
O107 O 0.90375 0.85809 0.89553 0.0
O108 O 0.84203 0.89046 0.98546 0.0
O109 O 0.86894 0.79575 0.00388 0.0
Sc110 Sc 0.65315 0.1402 0.46568 0.0
Sc111 Sc 0.61999 0.20855 0.42093 0.0
Sc112 Sc 0.61702 0.13577 0.35085 0.0
O113 O 0.6298 0.16148 0.41275 0.0
C114 C 0.67544 0.11304 0.35705 0.0
C115 C 0.67913 0.20795 0.45769 0.0
C116 C 0.62848 0.20602 0.29978 0.0
C117 C 0.61886 0.18782 0.53833 0.0
C118 C 0.61521 0.08311 0.44555 0.0
C119 C 0.5671 0.17581 0.3809 0.0
O120 O 0.67458 0.11301 0.40697 0.0
O121 O 0.65772 0.22234 0.44871 0.0
O122 O 0.61972 0.17709 0.29658 0.0
O123 O 0.63623 0.16615 0.53128 0.0
O124 O 0.61289 0.09072 0.39711 0.0
O125 O 0.58072 0.19999 0.39522 0.0
O126 O 0.62612 0.10166 0.47826 0.0
O127 O 0.60734 0.20194 0.50055 0.0
O128 O 0.57709 0.14843 0.36867 0.0
O129 O 0.6816 0.17729 0.45729 0.0
O130 O 0.65652 0.12309 0.32925 0.0
O131 O 0.63287 0.21981 0.34309 0.0
Sc132 Sc 0.82208 0.14443 0.07605 0.0
Sc133 Sc 0.85447 0.20841 0.13252 0.0
Sc134 Sc 0.86091 0.13056 0.18324 0.0
O135 O 0.84609 0.16116 0.13039 0.0
C136 C 0.80298 0.10853 0.17896 0.0
C137 C 0.7942 0.2078 0.10177 0.0
C138 C 0.85109 0.19526 0.25044 0.0
C139 C 0.85501 0.19882 0.01375 0.0
C140 C 0.86136 0.08854 0.07754 0.0
C141 C 0.90879 0.17371 0.15664 0.0
O142 O 0.80435 0.10912 0.12904 0.0
O143 O 0.81573 0.2229 0.10631 0.0
O144 O 0.86118 0.16712 0.24475 0.0
O145 O 0.83605 0.17885 0.01678 0.0
O146 O 0.86278 0.09018 0.12747 0.0
O147 O 0.89432 0.19896 0.1559 0.0
O148 O 0.85077 0.11067 0.05023 0.0
O149 O 0.86767 0.20771 0.05358 0.0
O150 O 0.89961 0.14495 0.16003 0.0
O151 O 0.79272 0.17715 0.10095 0.0
O152 O 0.82192 0.11758 0.20735 0.0
O153 O 0.84208 0.21146 0.21216 0.0
Sc154 Sc 0.65632 0.85528 0.5797 0.0
Sc155 Sc 0.61743 0.79089 0.61913 0.0
Sc156 Sc 0.6178 0.86234 0.69139 0.0
O157 O 0.63046 0.83622 0.63024 0.0
C158 C 0.67591 0.88236 0.69074 0.0
C159 C 0.67776 0.78641 0.58445 0.0
C160 C 0.62507 0.79023 0.74024 0.0
C161 C 0.61977 0.81196 0.50429 0.0
C162 C 0.61972 0.9146 0.59614 0.0
C163 C 0.56648 0.82897 0.6584 0.0
O164 O 0.67737 0.88177 0.64074 0.0
O165 O 0.65498 0.77414 0.58817 0.0
O166 O 0.61782 0.81989 0.74445 0.0
O167 O 0.64014 0.8291 0.51207 0.0
O168 O 0.61637 0.90737 0.64461 0.0
O169 O 0.57791 0.80265 0.64523 0.0
O170 O 0.63124 0.8957 0.5643 0.0
O171 O 0.60523 0.80271 0.54175 0.0
O172 O 0.57868 0.8544 0.67092 0.0
O173 O 0.68215 0.81612 0.59344 0.0
O174 O 0.6562 0.87217 0.71578 0.0
O175 O 0.62913 0.77665 0.69638 0.0
Sc176 Sc 0.65699 0.64386 0.08392 0.0
Sc177 Sc 0.61711 0.70796 0.11825 0.0
Sc178 Sc 0.61743 0.63771 0.19412 0.0
O179 O 0.6304 0.66303 0.13216 0.0
C180 C 0.62171 0.58384 0.10283 0.0
C181 C 0.62036 0.68573 0.00511 0.0
C182 C 0.5662 0.67019 0.15859 0.0
C183 C 0.67734 0.71277 0.08412 0.0
C184 C 0.67588 0.61907 0.19744 0.0
C185 C 0.62395 0.71045 0.23876 0.0
O186 O 0.63257 0.60281 0.06985 0.0
O187 O 0.60509 0.69444 0.04166 0.0
O188 O 0.57832 0.64442 0.17065 0.0
O189 O 0.68212 0.68364 0.09703 0.0
O190 O 0.65581 0.6295 0.22102 0.0
O191 O 0.629 0.72319 0.19442 0.0
O192 O 0.67768 0.61849 0.14743 0.0
O193 O 0.65434 0.72453 0.08567 0.0
O194 O 0.61597 0.68114 0.24414 0.0
O195 O 0.64104 0.66929 0.01441 0.0
O196 O 0.61785 0.59171 0.15072 0.0
O197 O 0.57784 0.69654 0.14609 0.0
Sc198 Sc 0.82222 0.35373 0.58479 0.0
Sc199 Sc 0.86006 0.28756 0.61974 0.0
Sc200 Sc 0.86797 0.3615 0.684 0.0
O201 O 0.85028 0.33444 0.62939 0.0
C202 C 0.86306 0.40985 0.58504 0.0
C203 C 0.85262 0.30652 0.50455 0.0
C204 C 0.91486 0.32013 0.64276 0.0
C205 C 0.79883 0.28618 0.60152 0.0
C206 C 0.80976 0.38462 0.69703 0.0
C207 C 0.85781 0.29291 0.74093 0.0
O208 O 0.84751 0.39173 0.56024 0.0
O209 O 0.86809 0.29494 0.53853 0.0
O210 O 0.90566 0.34787 0.65451 0.0
O211 O 0.79567 0.31652 0.60668 0.0
O212 O 0.83127 0.37614 0.71731 0.0
O213 O 0.85144 0.27815 0.69954 0.0
O214 O 0.80548 0.38231 0.64806 0.0
O215 O 0.82113 0.2729 0.60049 0.0
O216 O 0.86771 0.32141 0.741 0.0
O217 O 0.83419 0.32603 0.5163 0.0
O218 O 0.86976 0.40438 0.63247 0.0
O219 O 0.90066 0.29525 0.63636 0.0
Sc220 Sc 0.65842 0.3563 0.95807 0.0
Sc221 Sc 0.62186 0.29087 0.91373 0.0
Sc222 Sc 0.61569 0.36678 0.85455 0.0
O223 O 0.63186 0.33802 0.90903 0.0
C224 C 0.62068 0.41527 0.95291 0.0
C225 C 0.62576 0.30663 0.03194 0.0
C226 C 0.56768 0.32638 0.89019 0.0
C227 C 0.68289 0.28916 0.93773 0.0
C228 C 0.67422 0.38763 0.84702 0.0
C229 C 0.62165 0.29881 0.79319 0.0
O230 O 0.63314 0.3953 0.98151 0.0
O231 O 0.6123 0.29567 0.9945 0.0
O232 O 0.57749 0.35438 0.88208 0.0
O233 O 0.68549 0.31969 0.93687 0.0
O234 O 0.65338 0.37921 0.82419 0.0
O235 O 0.63021 0.28288 0.83232 0.0
O236 O 0.6769 0.38573 0.8967 0.0
O237 O 0.66087 0.27512 0.93515 0.0
O238 O 0.61368 0.32808 0.79698 0.0
O239 O 0.64445 0.32673 0.02475 0.0
O240 O 0.61548 0.40941 0.90504 0.0
O241 O 0.58149 0.30087 0.89579 0.0
Sc242 Sc 0.86807 0.63112 0.36383 0.0
Sc243 Sc 0.86461 0.70776 0.42171 0.0
Sc244 Sc 0.82259 0.64625 0.46114 0.0
O245 O 0.85194 0.66165 0.41576 0.0
C246 C 0.80929 0.61399 0.3504 0.0
C247 C 0.86483 0.69926 0.30055 0.0
C248 C 0.80299 0.71508 0.44141 0.0
C249 C 0.91718 0.66725 0.4017 0.0
C250 C 0.85945 0.58608 0.46571 0.0
C251 C 0.85548 0.6925 0.53886 0.0
O252 O 0.83129 0.62026 0.33013 0.0
O253 O 0.85786 0.71604 0.33993 0.0
O254 O 0.79878 0.68509 0.43518 0.0
O255 O 0.90562 0.64057 0.39391 0.0
O256 O 0.8452 0.60659 0.48922 0.0
O257 O 0.87146 0.70229 0.50397 0.0
O258 O 0.8663 0.58945 0.41775 0.0
O259 O 0.90514 0.69432 0.40564 0.0
O260 O 0.836 0.67445 0.52821 0.0
O261 O 0.87198 0.66955 0.30455 0.0
O262 O 0.80471 0.61756 0.39924 0.0
O263 O 0.82597 0.72684 0.44104 0.0
Sc264 Sc 0.3626 0.37136 0.82459 0.0
Sc265 Sc 0.36098 0.30075 0.90119 0.0
Sc266 Sc 0.32193 0.36683 0.93397 0.0
O267 O 0.3485 0.34625 0.88644 0.0
C268 C 0.36051 0.42429 0.91648 0.0
C269 C 0.4132 0.33738 0.86483 0.0
C270 C 0.35539 0.32345 0.01524 0.0
C271 C 0.35567 0.29923 0.77895 0.0
C272 C 0.30448 0.39282 0.82045 0.0
C273 C 0.2998 0.29768 0.93 0.0
O274 O 0.36466 0.41646 0.86881 0.0
O275 O 0.40135 0.31177 0.88021 0.0
O276 O 0.33646 0.34232 0.00418 0.0
O277 O 0.36238 0.32893 0.77357 0.0
O278 O 0.30211 0.39233 0.87024 0.0
O279 O 0.32244 0.28497 0.92673 0.0
O280 O 0.32469 0.38258 0.79716 0.0
O281 O 0.35178 0.28588 0.82325 0.0
O282 O 0.2957 0.32777 0.92281 0.0
O283 O 0.40137 0.36219 0.84757 0.0
O284 O 0.34734 0.40675 0.94796 0.0
O285 O 0.37041 0.31196 0.98033 0.0
Sc286 Sc 0.15734 0.64755 0.42205 0.0
Sc287 Sc 0.12365 0.7136 0.3706 0.0
Sc288 Sc 0.11748 0.63656 0.31537 0.0
O289 O 0.13276 0.66609 0.36933 0.0
C290 C 0.17563 0.61417 0.31622 0.0
C291 C 0.18415 0.71328 0.40059 0.0
C292 C 0.12571 0.70326 0.25041 0.0
C293 C 0.12534 0.69914 0.49025 0.0
C294 C 0.11766 0.59155 0.41837 0.0
C295 C 0.06946 0.6787 0.34806 0.0
O296 O 0.1756 0.61523 0.36608 0.0
O297 O 0.16266 0.72785 0.39218 0.0
O298 O 0.11719 0.67426 0.25503 0.0
O299 O 0.14301 0.67779 0.4845 0.0
O300 O 0.11534 0.59453 0.36877 0.0
O301 O 0.0834 0.70416 0.35187 0.0
O302 O 0.12958 0.61222 0.44573 0.0
O303 O 0.1133 0.71185 0.45195 0.0
O304 O 0.07896 0.65046 0.34028 0.0
O305 O 0.18614 0.68257 0.40231 0.0
O306 O 0.15613 0.62338 0.2893 0.0
O307 O 0.13328 0.71965 0.28945 0.0
Sc308 Sc 0.32858 0.64879 0.03282 0.0
Sc309 Sc 0.3613 0.71672 0.07885 0.0
Sc310 Sc 0.36122 0.64455 0.15185 0.0
O311 O 0.35043 0.67004 0.08776 0.0
C312 C 0.30293 0.62287 0.13976 0.0
C313 C 0.30383 0.71738 0.03216 0.0
C314 C 0.34956 0.71549 0.19827 0.0
C315 C 0.3664 0.69404 0.96345 0.0
C316 C 0.36558 0.59145 0.06069 0.0
C317 C 0.4122 0.68319 0.12662 0.0
O318 O 0.30476 0.62328 0.08996 0.0
O319 O 0.32503 0.73116 0.04436 0.0
O320 O 0.3577 0.68635 0.20309 0.0
O321 O 0.34834 0.67316 0.96895 0.0
O322 O 0.36642 0.59929 0.10892 0.0
O323 O 0.39942 0.70779 0.11061 0.0
O324 O 0.35533 0.60951 0.0261 0.0
O325 O 0.37676 0.70844 1.00197 0.0
O326 O 0.4015 0.65609 0.13788 0.0
O327 O 0.30059 0.68686 0.03434 0.0
O328 O 0.32124 0.63242 0.16932 0.0
O329 O 0.34599 0.72913 0.15424 0.0
Sc330 Sc 0.1632 0.35903 0.5556 0.0
Sc331 Sc 0.12157 0.29659 0.59095 0.0
Sc332 Sc 0.11491 0.37319 0.64721 0.0
O333 O 0.13302 0.34299 0.59791 0.0
C334 C 0.17243 0.3934 0.66576 0.0
C335 C 0.18389 0.29206 0.58101 0.0
C336 C 0.11671 0.30502 0.7117 0.0
C337 C 0.13394 0.3112 0.47536 0.0
C338 C 0.12503 0.41708 0.54433 0.0
C339 C 0.06775 0.33534 0.60398 0.0
O340 O 0.17776 0.39049 0.61717 0.0
O341 O 0.1614 0.27939 0.5755 0.0
O342 O 0.1098 0.3348 0.70651 0.0
O343 O 0.15334 0.32883 0.48802 0.0
O344 O 0.11757 0.41441 0.59212 0.0
O345 O 0.08038 0.3086 0.60213 0.0
O346 O 0.14001 0.39658 0.52266 0.0
O347 O 0.11676 0.30234 0.50843 0.0
O348 O 0.07854 0.3624 0.61284 0.0
O349 O 0.18697 0.32211 0.58853 0.0
O350 O 0.15056 0.38523 0.68481 0.0
O351 O 0.12563 0.28841 0.67364 0.0
H352 H 0.18464 0.11254 0.25424 0.0
H353 H 0.22434 0.1162 0.10471 0.0
H354 H 0.26623 0.11401 0.14891 0.0
H355 H 0.29154 0.11709 0.22993 0.0
H356 H 0.2518 0.11455 0.37945 0.0
H357 H 0.2101 0.1099 0.33513 0.0
C358 C 0.20242 0.1124 0.23115 0.0
C359 C 0.20121 0.11492 0.17613 0.0
C360 C 0.22652 0.11158 0.25683 0.0
C361 C 0.22454 0.11438 0.14705 0.0
C362 C 0.24858 0.11328 0.17233 0.0
C363 C 0.27382 0.11506 0.25296 0.0
C364 C 0.27492 0.11658 0.30806 0.0
C365 C 0.2498 0.11281 0.22722 0.0
C366 C 0.25167 0.1136 0.33706 0.0
C367 C 0.22774 0.11107 0.31172 0.0
H368 H 0.22116 0.90692 0.8266 0.0
H369 H 0.17055 0.90054 0.69257 0.0
H370 H 0.20815 0.90287 0.63402 0.0
H371 H 0.25553 0.89941 0.62122 0.0
H372 H 0.30599 0.90418 0.75568 0.0
H373 H 0.26833 0.9101 0.81318 0.0
C374 C 0.21821 0.90667 0.78457 0.0
C375 C 0.19291 0.90311 0.76434 0.0
C376 C 0.24 0.90734 0.75095 0.0
C377 C 0.18969 0.90306 0.70958 0.0
C378 C 0.21125 0.90422 0.67591 0.0
C379 C 0.2584 0.90237 0.66297 0.0
C380 C 0.28371 0.90087 0.68389 0.0
C381 C 0.23655 0.90523 0.6962 0.0
C382 C 0.28684 0.90491 0.73824 0.0
C383 C 0.26525 0.90822 0.77134 0.0
H384 H 0.72716 0.88547 0.66147 0.0
H385 H 0.67521 0.90206 0.79212 0.0
H386 H 0.71204 0.90764 0.85066 0.0
H387 H 0.75849 0.9002 0.86724 0.0
H388 H 0.81071 0.88311 0.73711 0.0
H389 H 0.77447 0.88592 0.67637 0.0
C390 C 0.72394 0.89111 0.70246 0.0
C391 C 0.69845 0.8927 0.72243 0.0
C392 C 0.74529 0.89382 0.73643 0.0
C393 C 0.69464 0.90011 0.77575 0.0
C394 C 0.7157 0.90328 0.80943 0.0
C395 C 0.76205 0.89767 0.82554 0.0
C396 C 0.78727 0.89085 0.80716 0.0
C397 C 0.74106 0.89892 0.79061 0.0
C398 C 0.79148 0.88807 0.75273 0.0
C399 C 0.77072 0.88955 0.71776 0.0
H400 H 0.68569 0.10559 0.25209 0.0
H401 H 0.72232 0.10167 0.40386 0.0
H402 H 0.76482 0.09655 0.36234 0.0
H403 H 0.7922 0.09923 0.28318 0.0
H404 H 0.75572 0.10246 0.13131 0.0
H405 H 0.71291 0.10131 0.17265 0.0
C406 C 0.7029 0.1031 0.27616 0.0
C407 C 0.7006 0.10445 0.33116 0.0
C408 C 0.72753 0.10022 0.252 0.0
C409 C 0.72326 0.10088 0.36149 0.0
C410 C 0.74773 0.09806 0.33776 0.0
C411 C 0.77492 0.09907 0.25901 0.0
C412 C 0.77738 0.10124 0.20411 0.0
C413 C 0.75018 0.09861 0.28306 0.0
C414 C 0.75462 0.1008 0.17362 0.0
C415 C 0.73001 0.10036 0.19727 0.0
H416 H 0.75846 0.60222 0.37569 0.0
H417 H 0.81098 0.60911 0.24346 0.0
H418 H 0.77437 0.60754 0.18348 0.0
H419 H 0.72708 0.61149 0.16879 0.0
H420 H 0.67494 0.60504 0.30169 0.0
H421 H 0.71163 0.59885 0.36044 0.0
C422 C 0.762 0.60275 0.33377 0.0
C423 C 0.7875 0.60632 0.31447 0.0
C424 C 0.7408 0.60231 0.29924 0.0
C425 C 0.79158 0.60668 0.25979 0.0
C426 C 0.77061 0.60591 0.22523 0.0
C427 C 0.72373 0.60806 0.21044 0.0
C428 C 0.69825 0.60937 0.23065 0.0
C429 C 0.74506 0.60486 0.24453 0.0
C430 C 0.69433 0.60473 0.28489 0.0
C431 C 0.71534 0.60117 0.31874 0.0
H432 H 0.72525 0.39263 0.87621 0.0
H433 H 0.67486 0.40137 0.74208 0.0
H434 H 0.71259 0.40524 0.68425 0.0
H435 H 0.7596 0.39934 0.67047 0.0
H436 H 0.81008 0.38903 0.80421 0.0
H437 H 0.77271 0.39309 0.86301 0.0
C438 C 0.72246 0.39609 0.83447 0.0
C439 C 0.6971 0.39633 0.81372 0.0
C440 C 0.74434 0.39771 0.80104 0.0
C441 C 0.69405 0.40079 0.75936 0.0
C442 C 0.71567 0.40293 0.72608 0.0
C443 C 0.76258 0.39859 0.71248 0.0
C444 C 0.78775 0.39347 0.73255 0.0
C445 C 0.74089 0.40036 0.74628 0.0
C446 C 0.79103 0.39274 0.78731 0.0
C447 C 0.76959 0.39493 0.82114 0.0
H448 H 0.25328 0.39849 0.84866 0.0
H449 H 0.30577 0.40944 0.71708 0.0
H450 H 0.2691 0.41534 0.658 0.0
H451 H 0.22253 0.40958 0.64193 0.0
H452 H 0.16979 0.39709 0.77278 0.0
H453 H 0.20604 0.4003 0.83355 0.0
C454 C 0.2567 0.40291 0.80726 0.0
C455 C 0.28226 0.40289 0.78733 0.0
C456 C 0.23544 0.4057 0.77306 0.0
C457 C 0.2863 0.40877 0.7335 0.0
C458 C 0.26532 0.41214 0.69953 0.0
C459 C 0.21884 0.40819 0.68375 0.0
C460 C 0.19347 0.40248 0.70246 0.0
C461 C 0.23983 0.40939 0.71859 0.0
C462 C 0.18912 0.40114 0.75699 0.0
C463 C 0.20989 0.40283 0.79193 0.0
H464 H 0.29224 0.60719 0.24186 0.0
H465 H 0.25586 0.61955 0.09102 0.0
H466 H 0.21304 0.61403 0.1314 0.0
H467 H 0.18575 0.61217 0.21077 0.0
H468 H 0.22224 0.59913 0.36148 0.0
H469 H 0.26486 0.59788 0.31973 0.0
C470 C 0.27497 0.60821 0.21769 0.0
C471 C 0.27738 0.61421 0.16356 0.0
C472 C 0.25026 0.60505 0.24115 0.0
C473 C 0.25472 0.61503 0.13282 0.0
C474 C 0.23012 0.61202 0.15591 0.0
C475 C 0.20295 0.60838 0.23446 0.0
C476 C 0.20061 0.60628 0.28937 0.0
C477 C 0.22762 0.60794 0.21025 0.0
C478 C 0.22325 0.60111 0.31919 0.0
C479 C 0.24778 0.60055 0.29538 0.0
H480 H 0.09939 0.25621 0.94517 0.0
H481 H 0.12542 0.16599 0.87706 0.0
H482 H 0.12754 0.19191 0.79075 0.0
H483 H 0.12505 0.24101 0.73583 0.0
H484 H 0.10052 0.33176 0.80467 0.0
H485 H 0.09503 0.30478 0.88943 0.0
C486 C 0.10498 0.24195 0.91132 0.0
C487 C 0.1121 0.20903 0.91779 0.0
C488 C 0.10694 0.25728 0.862 0.0
C489 C 0.11973 0.19125 0.87338 0.0
C490 C 0.12113 0.20615 0.824 0.0
C491 C 0.11849 0.25501 0.76927 0.0
C492 C 0.11344 0.28858 0.76358 0.0
C493 C 0.11538 0.23934 0.81808 0.0
C494 C 0.10474 0.30602 0.8076 0.0
C495 C 0.1015 0.29056 0.8562 0.0
H496 H 0.32384 0.81055 0.38441 0.0
H497 H 0.39648 0.77063 0.44016 0.0
H498 H 0.40029 0.73758 0.36199 0.0
H499 H 0.38208 0.71756 0.28005 0.0
H500 H 0.31113 0.75912 0.22042 0.0
H501 H 0.30738 0.79368 0.29813 0.0
C502 C 0.34072 0.79507 0.37907 0.0
C503 C 0.35966 0.79291 0.41856 0.0
C504 C 0.34285 0.7759 0.33383 0.0
C505 C 0.38144 0.77267 0.41077 0.0
C506 C 0.38363 0.75356 0.36614 0.0
C507 C 0.3657 0.73403 0.28442 0.0
C508 C 0.34661 0.73545 0.24551 0.0
C509 C 0.36418 0.75442 0.32806 0.0
C510 C 0.32587 0.75748 0.25049 0.0
C511 C 0.32381 0.77728 0.29468 0.0
H512 H 0.1391 0.76586 0.22585 0.0
H513 H 0.11093 0.67695 0.15709 0.0
H514 H 0.10815 0.70375 0.07199 0.0
H515 H 0.11423 0.75165 0.01692 0.0
H516 H 0.14362 0.84044 0.0837 0.0
H517 H 0.14492 0.81441 0.17014 0.0
C518 C 0.13244 0.75223 0.19227 0.0
C519 C 0.12531 0.71929 0.19812 0.0
C520 C 0.13082 0.76783 0.14323 0.0
C521 C 0.11663 0.70222 0.15399 0.0
C522 C 0.11493 0.71757 0.10524 0.0
C523 C 0.12065 0.76561 0.05034 0.0
C524 C 0.12871 0.79812 0.04362 0.0
C525 C 0.12193 0.75032 0.09947 0.0
C526 C 0.1372 0.81548 0.0876 0.0
C527 C 0.13809 0.80054 0.13701 0.0
H528 H 0.3871 0.29687 0.69351 0.0
H529 H 0.31748 0.25537 0.76048 0.0
H530 H 0.3124 0.22049 0.68384 0.0
H531 H 0.32738 0.20265 0.59682 0.0
H532 H 0.39871 0.24213 0.53282 0.0
H533 H 0.40372 0.27624 0.60952 0.0
C534 C 0.37078 0.28027 0.69103 0.0
C535 C 0.35251 0.27891 0.732 0.0
C536 C 0.36845 0.25959 0.64769 0.0
C537 C 0.33172 0.25687 0.7291 0.0
C538 C 0.32885 0.23689 0.68542 0.0
C539 C 0.34423 0.21832 0.59994 0.0
C540 C 0.36251 0.21979 0.5587 0.0
C541 C 0.34712 0.23801 0.64442 0.0
C542 C 0.38422 0.24039 0.56369 0.0
C543 C 0.38709 0.26014 0.60751 0.0
H544 H 0.87761 0.75014 0.06772 0.0
H545 H 0.82948 0.82767 0.12761 0.0
H546 H 0.82953 0.80206 0.21445 0.0
H547 H 0.84219 0.75682 0.2725 0.0
H548 H 0.88849 0.67804 0.21069 0.0
H549 H 0.89 0.70496 0.12528 0.0
C550 C 0.86739 0.76174 0.09988 0.0
C551 C 0.85377 0.79102 0.0912 0.0
C552 C 0.86693 0.74646 0.14922 0.0
C553 C 0.84022 0.80526 0.1332 0.0
C554 C 0.84018 0.79056 0.18282 0.0
C555 C 0.85268 0.74552 0.24043 0.0
C556 C 0.86524 0.71537 0.24825 0.0
C557 C 0.85327 0.76099 0.19115 0.0
C558 C 0.87854 0.70108 0.20594 0.0
C559 C 0.87951 0.71654 0.15706 0.0
H560 H 0.60284 0.24853 0.56335 0.0
H561 H 0.6299 0.15881 0.63252 0.0
H562 H 0.63318 0.1853 0.7178 0.0
H563 H 0.63106 0.23485 0.77118 0.0
H564 H 0.60582 0.32497 0.69997 0.0
H565 H 0.59954 0.29739 0.61688 0.0
C566 C 0.60888 0.23449 0.59727 0.0
C567 C 0.61591 0.20161 0.59156 0.0
C568 C 0.61163 0.25015 0.64562 0.0
C569 C 0.62422 0.18407 0.63585 0.0
C570 C 0.62631 0.19929 0.68453 0.0
C571 C 0.62428 0.24855 0.7375 0.0
C572 C 0.61911 0.28208 0.74203 0.0
C573 C 0.62065 0.23252 0.68958 0.0
C574 C 0.61012 0.29923 0.69784 0.0
C575 C 0.60638 0.28344 0.65023 0.0
H576 H 0.88946 0.28954 0.82576 0.0
H577 H 0.81604 0.25632 0.76545 0.0
H578 H 0.8092 0.22271 0.84332 0.0
H579 H 0.82414 0.20245 0.92806 0.0
H580 H 0.89813 0.23431 0.98814 0.0
H581 H 0.90492 0.26815 0.91053 0.0
C582 C 0.87189 0.2752 0.83021 0.0
C583 C 0.85321 0.27545 0.79044 0.0
C584 C 0.86838 0.25524 0.8745 0.0
C585 C 0.83067 0.25641 0.79586 0.0
C586 C 0.82679 0.2371 0.84016 0.0
C587 C 0.84194 0.21639 0.92386 0.0
C588 C 0.86058 0.21576 0.96377 0.0
C589 C 0.84563 0.23607 0.87948 0.0
C590 C 0.88341 0.23433 0.95794 0.0
C591 C 0.88728 0.25386 0.91371 0.0
H592 H 0.58902 0.72052 0.31716 0.0
H593 H 0.66539 0.74806 0.26295 0.0
H594 H 0.67033 0.78443 0.33789 0.0
H595 H 0.65338 0.80698 0.42079 0.0
H596 H 0.57573 0.78154 0.4716 0.0
H597 H 0.57063 0.74668 0.39569 0.0
C598 C 0.60677 0.73436 0.32213 0.0
C599 C 0.62701 0.73122 0.28537 0.0
C600 C 0.6091 0.75605 0.36432 0.0
C601 C 0.64967 0.74989 0.29125 0.0
C602 C 0.65244 0.77079 0.3339 0.0
C603 C 0.63512 0.79442 0.41469 0.0
C604 C 0.61507 0.79688 0.45231 0.0
C605 C 0.63228 0.77407 0.37081 0.0
C606 C 0.59161 0.78012 0.44362 0.0
C607 C 0.58869 0.75991 0.4003 0.0
H608 H 0.65587 0.69533 0.92578 0.0
H609 H 0.57555 0.71236 0.9677 0.0
H610 H 0.57032 0.74765 0.89158 0.0
H611 H 0.58901 0.77633 0.81507 0.0
H612 H 0.66833 0.75727 0.76974 0.0
H613 H 0.67364 0.72077 0.84522 0.0
C614 C 0.63706 0.70611 0.91762 0.0
C615 C 0.61618 0.70107 0.95277 0.0
C616 C 0.63416 0.72679 0.87369 0.0
C617 C 0.59202 0.71571 0.94158 0.0
C618 C 0.58902 0.73618 0.89816 0.0
C619 C 0.60748 0.76437 0.82218 0.0
C620 C 0.62844 0.76996 0.78779 0.0
C621 C 0.61008 0.74252 0.86459 0.0
C622 C 0.65207 0.75364 0.79632 0.0
C623 C 0.65504 0.73261 0.83923 0.0
H624 H 0.87194 0.24784 0.47753 0.0
H625 H 0.83288 0.33205 0.41384 0.0
H626 H 0.82826 0.30445 0.32973 0.0
H627 H 0.8341 0.2559 0.27577 0.0
H628 H 0.8718 0.17106 0.34118 0.0
H629 H 0.87767 0.19941 0.42387 0.0
C630 C 0.86283 0.26046 0.44501 0.0
C631 C 0.85304 0.29213 0.45171 0.0
C632 C 0.85952 0.24412 0.39755 0.0
C633 C 0.84075 0.30778 0.4095 0.0
C634 C 0.83795 0.29193 0.3616 0.0
C635 C 0.84348 0.24345 0.30812 0.0
C636 C 0.85247 0.21131 0.30211 0.0
C637 C 0.84694 0.25994 0.35548 0.0
C638 C 0.86459 0.19571 0.34462 0.0
C639 C 0.86811 0.21197 0.39186 0.0
H640 H 0.66005 0.29984 0.11313 0.0
H641 H 0.58147 0.27757 0.06679 0.0
H642 H 0.57598 0.24286 0.14355 0.0
H643 H 0.59396 0.21651 0.22205 0.0
H644 H 0.67136 0.24068 0.27208 0.0
H645 H 0.67705 0.27633 0.19555 0.0
C646 C 0.64154 0.28801 0.1205 0.0
C647 C 0.62125 0.29137 0.08406 0.0
C648 C 0.6385 0.2677 0.16479 0.0
C649 C 0.59748 0.27543 0.09401 0.0
C650 C 0.59433 0.25533 0.13778 0.0
C651 C 0.61213 0.22937 0.21573 0.0
C652 C 0.63242 0.22556 0.25175 0.0
C653 C 0.61487 0.25071 0.17282 0.0
C654 C 0.65562 0.24302 0.24425 0.0
C655 C 0.6588 0.26354 0.20076 0.0
H656 H 0.87993 0.74803 0.56773 0.0
H657 H 0.83526 0.66785 0.63025 0.0
H658 H 0.83523 0.6931 0.71678 0.0
H659 H 0.84623 0.73899 0.77357 0.0
H660 H 0.88905 0.82044 0.7097 0.0
H661 H 0.89128 0.79364 0.62468 0.0
C662 C 0.87051 0.73578 0.60042 0.0
C663 C 0.85777 0.70591 0.59251 0.0
C664 C 0.86996 0.75086 0.64969 0.0
C665 C 0.84526 0.69077 0.63521 0.0
C666 C 0.84517 0.70526 0.68467 0.0
C667 C 0.85616 0.75091 0.74118 0.0
C668 C 0.86744 0.7818 0.74826 0.0
C669 C 0.85716 0.73551 0.69218 0.0
C670 C 0.88007 0.79681 0.70553 0.0
C671 C 0.88144 0.78144 0.65686 0.0
H672 H 0.34179 0.27149 0.24708 0.0
H673 H 0.37531 0.18595 0.17599 0.0
H674 H 0.38004 0.21512 0.09314 0.0
H675 H 0.37415 0.26419 0.04054 0.0
H676 H 0.33815 0.34894 0.10855 0.0
H677 H 0.33541 0.32092 0.19348 0.0
C678 C 0.35009 0.25916 0.21347 0.0
C679 C 0.35816 0.22646 0.21797 0.0
C680 C 0.35264 0.27606 0.16565 0.0
C681 C 0.36875 0.21095 0.17379 0.0
C682 C 0.37164 0.22769 0.1264 0.0
C683 C 0.36614 0.27687 0.07411 0.0
C684 C 0.35676 0.30888 0.06839 0.0
C685 C 0.36373 0.26022 0.12197 0.0
C686 C 0.34577 0.32448 0.11205 0.0
C687 C 0.34405 0.30836 0.16046 0.0
H688 H 0.12954 0.74287 0.72473 0.0
H689 H 0.10332 0.83303 0.65512 0.0
H690 H 0.10032 0.80674 0.56997 0.0
H691 H 0.10731 0.75903 0.51465 0.0
H692 H 0.13509 0.66963 0.5839 0.0
H693 H 0.13482 0.69475 0.67032 0.0
C694 C 0.12316 0.75687 0.69102 0.0
C695 C 0.11687 0.78997 0.69633 0.0
C696 C 0.12155 0.74169 0.64225 0.0
C697 C 0.10844 0.80757 0.65218 0.0
C698 C 0.10664 0.79254 0.60347 0.0
C699 C 0.11282 0.74485 0.5488 0.0
C700 C 0.12119 0.71254 0.543 0.0
C701 C 0.11333 0.75969 0.59802 0.0
C702 C 0.12862 0.69459 0.58745 0.0
C703 C 0.12859 0.70896 0.63677 0.0
H704 H 0.37998 0.75558 0.93904 0.0
H705 H 0.36055 0.66348 0.86948 0.0
H706 H 0.35696 0.6897 0.78356 0.0
H707 H 0.35557 0.73942 0.73033 0.0
H708 H 0.37279 0.83189 0.80154 0.0
H709 H 0.38051 0.8048 0.8852 0.0
C710 C 0.37569 0.74103 0.90487 0.0
C711 C 0.37072 0.70758 0.9105 0.0
C712 C 0.3725 0.75647 0.85628 0.0
C713 C 0.36463 0.68923 0.866 0.0
C714 C 0.36229 0.70427 0.81706 0.0
C715 C 0.36088 0.75374 0.76414 0.0
C716 C 0.3633 0.78773 0.75965 0.0
C717 C 0.36539 0.73803 0.81213 0.0
C718 C 0.37057 0.80575 0.80385 0.0
C719 C 0.37515 0.79026 0.85168 0.0
H720 H 0.1094 0.25618 0.44682 0.0
H721 H 0.15642 0.33417 0.38435 0.0
H722 H 0.15551 0.30893 0.29752 0.0
H723 H 0.14176 0.26385 0.2398 0.0
H724 H 0.09713 0.18468 0.30599 0.0
H725 H 0.09677 0.21127 0.39091 0.0
C726 C 0.11924 0.26795 0.41416 0.0
C727 C 0.13267 0.29728 0.42196 0.0
C728 C 0.1192 0.25292 0.36503 0.0
C729 C 0.14581 0.31169 0.37935 0.0
C730 C 0.14532 0.29723 0.32975 0.0
C731 C 0.13193 0.25251 0.27283 0.0
C732 C 0.11946 0.2223 0.26643 0.0
C733 C 0.13216 0.26772 0.32216 0.0
C734 C 0.10702 0.20777 0.30977 0.0
C735 C 0.1067 0.22302 0.35839 0.0
H736 H 0.02661 0.21655 0.13415 0.0
H737 H 0.03609 0.11277 0.11853 0.0
H738 H 0.9894 0.10508 0.12785 0.0
H739 H 0.94593 0.1273 0.14251 0.0
H740 H 0.93588 0.23095 0.15896 0.0
H741 H 0.98255 0.23901 0.14759 0.0
C742 C 0.0184 0.19233 0.13223 0.0
C743 C 0.03487 0.16534 0.12582 0.0
C744 C -0.0086 0.18791 0.13833 0.0
C745 C 0.02391 0.13403 0.12384 0.0
C746 C -0.00282 0.12953 0.12921 0.0
C747 C 0.9539 0.15166 0.14391 0.0
C748 C 0.93732 0.17838 0.15185 0.0
C749 C 0.98076 0.15622 0.13709 0.0
C750 C 0.94811 0.20982 0.15303 0.0
C751 C 0.97485 0.21453 0.1464 0.0
H752 H 0.44825 0.8678 0.66144 0.0
H753 H 0.44263 0.78221 0.56545 0.0
H754 H 0.48943 0.77299 0.57358 0.0
H755 H 0.53207 0.78958 0.608 0.0
H756 H 0.53661 0.87452 0.70625 0.0
H757 H 0.49015 0.8833 0.69771 0.0
C758 C 0.45734 0.84736 0.64184 0.0
C759 C 0.44216 0.82593 0.61258 0.0
C760 C 0.48403 0.84181 0.64759 0.0
C761 C 0.45404 0.79912 0.58817 0.0
C762 C 0.48074 0.79376 0.59292 0.0
C763 C 0.52281 0.80973 0.62802 0.0
C764 C 0.53784 0.83138 0.65741 0.0
C765 C 0.49593 0.81486 0.62282 0.0
C766 C 0.52556 0.85755 0.68296 0.0
C767 C 0.49896 0.86272 0.67807 0.0
H768 H 0.95116 0.78413 0.88701 0.0
H769 H 0.94397 0.88489 0.93123 0.0
H770 H -0.00935 0.8923 0.92097 0.0
H771 H 0.03292 0.87156 0.89253 0.0
H772 H 0.04079 0.77081 0.84936 0.0
H773 H -0.00553 0.76204 0.86592 0.0
C774 C 0.95992 0.80747 0.89541 0.0
C775 C 0.94414 0.83397 0.90912 0.0
C776 C 0.9868 0.81178 0.88873 0.0
C777 C 0.95571 0.86417 0.91987 0.0
C778 C 0.98238 0.86852 0.91388 0.0
C779 C 0.02445 0.84773 0.88668 0.0
C780 C 0.04003 0.82204 0.86906 0.0
C781 C -0.00202 0.84277 0.89685 0.0
C782 C 0.02903 0.79105 0.8627 0.0
C783 C 0.00259 0.78598 0.8722 0.0
H784 H 0.44852 0.21704 0.38517 0.0
H785 H 0.43996 0.11784 0.33347 0.0
H786 H 0.4868 0.11041 0.33532 0.0
H787 H 0.53039 0.13147 0.35245 0.0
H788 H 0.53923 0.23055 0.40441 0.0
H789 H 0.49234 0.23834 0.40148 0.0
C790 C 0.45688 0.19384 0.37413 0.0
C791 C 0.44056 0.16813 0.35931 0.0
C792 C 0.48402 0.18953 0.37537 0.0
C793 C 0.45188 0.13818 0.34522 0.0
C794 C 0.47877 0.1338 0.34622 0.0
C795 C 0.52212 0.15479 0.36312 0.0
C796 C 0.53847 0.18026 0.37868 0.0
C797 C 0.49504 0.15923 0.36143 0.0
C798 C 0.52724 0.21035 0.39229 0.0
C799 C 0.50035 0.21493 0.39064 0.0
H800 H 0.53195 0.71708 0.12675 0.0
H801 H 0.53565 0.61973 0.19079 0.0
H802 H 0.4886 0.61549 0.18745 0.0
H803 H 0.44642 0.63843 0.16425 0.0
H804 H 0.44226 0.73564 0.09999 0.0
H805 H 0.48934 0.74074 0.10578 0.0
C806 C 0.52247 0.69502 0.14025 0.0
C807 C 0.53743 0.6688 0.15871 0.0
C808 C 0.49526 0.69255 0.13809 0.0
C809 C 0.52474 0.64035 0.17607 0.0
C810 C 0.49776 0.63781 0.17422 0.0
C811 C 0.45575 0.66078 0.15156 0.0
C812 C 0.44074 0.68648 0.13153 0.0
C813 C 0.48285 0.66362 0.15488 0.0
C814 C 0.45326 0.71534 0.11554 0.0
C815 C 0.48024 0.71834 0.11878 0.0
H816 H 0.94845 0.36681 0.61171 0.0
H817 H 0.94443 0.26536 0.65433 0.0
H818 H -0.00856 0.25997 0.64139 0.0
H819 H 0.03408 0.28516 0.62254 0.0
H820 H 0.03708 0.38658 0.57842 0.0
H821 H 0.99007 0.39068 0.58649 0.0
C822 C 0.95789 0.34355 0.61835 0.0
C823 C 0.94314 0.31669 0.6347 0.0
C824 C 0.98472 0.34054 0.61017 0.0
C825 C 0.95548 0.28648 0.642 0.0
C826 C 0.98232 0.28337 0.63455 0.0
C827 C 0.02437 0.30795 0.61379 0.0
C828 C 0.0391 0.33556 0.60052 0.0
C829 C -0.0028 0.31033 0.61905 0.0
C830 C 0.02623 0.365 0.58937 0.0
C831 C -0.00066 0.36746 0.5941 0.0
H832 H 0.53227 0.37197 0.86265 0.0
H833 H 0.53866 0.27305 0.91844 0.0
H834 H 0.49137 0.26737 0.91582 0.0
H835 H 0.44805 0.29055 0.89638 0.0
H836 H 0.44315 0.38951 0.83916 0.0
H837 H 0.4899 0.3948 0.84366 0.0
C838 C 0.5234 0.34917 0.87457 0.0
C839 C 0.53903 0.32305 0.89074 0.0
C840 C 0.49636 0.34593 0.87249 0.0
C841 C 0.5271 0.29362 0.90569 0.0
C842 C 0.50004 0.29031 0.90419 0.0
C843 C 0.45722 0.31322 0.88486 0.0
C844 C 0.44192 0.33946 0.86739 0.0
C845 C 0.48444 0.31629 0.88735 0.0
C846 C 0.45424 0.36873 0.85266 0.0
C847 C 0.48109 0.37193 0.85526 0.0
H848 H 0.0358 0.63275 0.38238 0.0
H849 H 0.03982 0.73307 0.33299 0.0
H850 H -0.00678 0.7395 0.34954 0.0
H851 H 0.95095 0.71591 0.37547 0.0
H852 H 0.94774 0.61563 0.42579 0.0
H853 H -0.00558 0.61015 0.41236 0.0
C854 C 0.02644 0.65595 0.37483 0.0
C855 C 0.04114 0.68223 0.35588 0.0
C856 C -0.00018 0.65963 0.38521 0.0
C857 C 0.02886 0.71237 0.34736 0.0
C858 C 0.00224 0.71611 0.35696 0.0
C859 C 0.96058 0.69308 0.38435 0.0
C860 C 0.94588 0.66621 0.40129 0.0
C861 C 0.98749 0.68987 0.37583 0.0
C862 C 0.95859 0.63665 0.41229 0.0
C863 C 0.98528 0.63341 0.40445 0.0
H864 H 0.10539 0.06859 0.96336 0.0
H865 H 0.11726 0.03036 0.11922 0.0
H866 H 0.11486 0.97498 0.08576 0.0
H867 H 0.11511 0.93792 0.01075 0.0
H868 H 0.10294 0.9761 0.85495 0.0
H869 H 0.09929 0.031 0.89005 0.0
C870 C 0.10708 0.04812 0.9901 0.0
C871 C 0.11197 0.05353 0.04349 0.0
C872 C 0.10578 0.01638 0.97059 0.0
C873 C 0.11361 0.02683 0.07789 0.0
C874 C 0.11238 0.99516 0.05876 0.0
C875 C 0.11125 0.95821 0.98458 0.0
C876 C 0.10976 0.95305 0.93027 0.0
C877 C 0.10935 0.9897 0.00495 0.0
C878 C 0.10427 0.97944 0.89691 0.0
C879 C 0.10235 0.01088 0.9169 0.0
H880 H 0.36887 0.97474 0.58247 0.0
H881 H 0.36375 0.92501 0.43454 0.0
H882 H 0.36564 0.97679 0.38774 0.0
H883 H 0.36271 0.03631 0.38941 0.0
H884 H 0.36547 0.08595 0.5378 0.0
H885 H 0.37081 0.03428 0.58352 0.0
C886 C 0.3688 0.97521 0.53998 0.0
C887 C 0.36585 0.94614 0.51211 0.0
C888 C 0.36909 0.00515 0.51329 0.0
C889 C 0.36568 0.94714 0.45698 0.0
C890 C 0.3667 0.97674 0.43014 0.0
C891 C 0.36497 0.03587 0.43163 0.0
C892 C 0.36325 0.0649 0.46012 0.0
C893 C 0.36744 0.00596 0.45795 0.0
C894 C 0.36628 0.06389 0.51489 0.0
C895 C 0.36936 0.03434 0.54117 0.0
H896 H 0.86413 0.02767 0.11901 0.0
H897 H 0.87363 0.08108 0.97426 0.0
H898 H 0.876 0.03031 0.92551 0.0
H899 H 0.86937 0.97109 0.92275 0.0
H900 H 0.85749 0.91834 0.06756 0.0
H901 H 0.86226 0.96826 0.11722 0.0
C902 C 0.86737 0.02819 0.07699 0.0
C903 C 0.86841 0.05809 0.05031 0.0
C904 C 0.86787 0.99893 0.04893 0.0
C905 C 0.87249 0.05833 0.99572 0.0
C906 C 0.87375 0.02931 0.96773 0.0
C907 C 0.86829 0.97047 0.96519 0.0
C908 C 0.86264 0.94113 0.99124 0.0
C909 C 0.87049 0.99949 0.99369 0.0
C910 C 0.86135 0.94072 0.04636 0.0
C911 C 0.86413 0.96926 0.07492 0.0
H912 H 0.60628 0.06352 0.54595 0.0
H913 H 0.60988 0.02764 0.38752 0.0
H914 H 0.60887 0.97173 0.42056 0.0
H915 H 0.61284 0.93347 0.49461 0.0
H916 H 0.60987 0.96958 0.653 0.0
H917 H 0.60456 0.02497 0.61968 0.0
C918 C 0.60639 0.04349 0.5185 0.0
C919 C 0.60854 0.04984 0.46426 0.0
C920 C 0.60625 0.01144 0.53782 0.0
C921 C 0.60825 0.02356 0.42937 0.0
C922 C 0.6079 0.99154 0.44831 0.0
C923 C 0.61072 0.95339 0.52194 0.0
C924 C 0.61221 0.94734 0.57634 0.0
C925 C 0.60786 0.98524 0.50249 0.0
C926 C 0.60893 0.97344 0.61104 0.0
C927 C 0.606 0.00518 0.59198 0.0
H928 H 0.61046 0.56419 0.00428 0.0
H929 H 0.62062 0.52805 0.16178 0.0
H930 H 0.61899 0.47212 0.1298 0.0
H931 H 0.61949 0.43383 0.05568 0.0
H932 H 0.60856 0.47053 0.89849 0.0
H933 H 0.60541 0.52577 0.93189 0.0
C934 C 0.61194 0.54406 0.03174 0.0
C935 C 0.61598 0.5503 0.08526 0.0
C936 C 0.61106 0.51203 0.01306 0.0
C937 C 0.61748 0.52396 0.12042 0.0
C938 C 0.61674 0.49196 0.10207 0.0
C939 C 0.61608 0.45386 0.02877 0.0
C940 C 0.61464 0.44794 0.97448 0.0
C941 C 0.61428 0.48573 0.04826 0.0
C942 C 0.60984 0.47422 0.94037 0.0
C943 C 0.60815 0.50592 0.95942 0.0
H944 H 0.87239 0.52621 0.42778 0.0
H945 H 0.8629 0.57979 0.57146 0.0
H946 H 0.86787 0.53 0.62245 0.0
H947 H 0.86846 0.47029 0.62587 0.0
H948 H 0.87506 0.41641 0.48211 0.0
H949 H 0.87828 0.46693 0.43191 0.0
C950 C 0.87195 0.52704 0.47023 0.0
C951 C 0.86682 0.55656 0.49562 0.0
C952 C 0.87418 0.4981 0.4995 0.0
C953 C 0.86634 0.55725 0.55079 0.0
C954 C 0.86922 0.52878 0.58011 0.0
C955 C 0.8714 0.4697 0.58377 0.0
C956 C 0.87136 0.43981 0.55767 0.0
C957 C 0.87221 0.49889 0.55488 0.0
C958 C 0.87486 0.43927 0.50297 0.0
C959 C 0.87657 0.46813 0.4742 0.0
H960 H 0.36702 0.44256 0.01748 0.0
H961 H 0.37392 0.47783 0.85837 0.0
H962 H 0.3808 0.53293 0.89047 0.0
H963 H 0.37805 0.57171 0.96272 0.0
H964 H 0.36954 0.53674 0.12164 0.0
H965 H 0.37078 0.48069 0.0906 0.0
C966 C 0.37036 0.46223 0.9898 0.0
C967 C 0.36934 0.45626 0.93557 0.0
C968 C 0.37394 0.49386 0.00848 0.0
C969 C 0.37435 0.48182 0.90026 0.0
C970 C 0.37819 0.51336 0.91859 0.0
C971 C 0.37697 0.55181 0.99071 0.0
C972 C 0.37314 0.55836 0.04429 0.0
C973 C 0.377 0.51978 0.97249 0.0
C974 C 0.37234 0.53237 0.08019 0.0
C975 C 0.37281 0.50032 0.0624 0.0
H976 H 0.11675 0.53024 0.37922 0.0
H977 H 0.10176 0.58521 0.5195 0.0
H978 H 0.09926 0.53515 0.57094 0.0
H979 H 0.10806 0.47648 0.57822 0.0
H980 H 0.12524 0.42208 0.43811 0.0
H981 H 0.11995 0.47081 0.38485 0.0
C982 C 0.11216 0.53115 0.42072 0.0
C983 C 0.10971 0.56132 0.44557 0.0
C984 C 0.11166 0.5023 0.45049 0.0
C985 C 0.10398 0.56219 0.49955 0.0
C986 C 0.10267 0.53359 0.52909 0.0
C987 C 0.11014 0.4752 0.53598 0.0
C988 C 0.11756 0.44581 0.51246 0.0
C989 C 0.10758 0.50357 0.50538 0.0
C990 C 0.12006 0.44454 0.4575 0.0
C991 C 0.11698 0.47242 0.42684 0.0
H992 H 0.22227 0.19884 0.03447 0.0
H993 H 0.17489 0.28539 0.04615 0.0
H994 H 0.20973 0.31716 0.00496 0.0
H995 H 0.25232 0.31941 0.96158 0.0
H996 H 0.29869 0.23208 0.94778 0.0
H997 H 0.26465 0.2011 0.99235 0.0
C998 C 0.21947 0.22473 0.02846 0.0
C999 C 0.19584 0.23966 0.04311 0.0
C1000 C 0.23903 0.24244 0.00318 0.0
C1001 C 0.19287 0.27328 0.03551 0.0
C1002 C 0.21264 0.29135 0.01138 0.0
C1003 C 0.25496 0.29352 0.9677 0.0
C1004 C 0.27802 0.27804 0.95089 0.0
C1005 C 0.23552 0.27598 0.99403 0.0
C1006 C 0.28111 0.24456 0.95986 0.0
C1007 C 0.26176 0.2269 0.98575 0.0
H1008 H 0.25794 0.81182 0.51061 0.0
H1009 H 0.29521 0.72258 0.55955 0.0
H1010 H 0.26424 0.69138 0.5077 0.0
H1011 H 0.22712 0.68985 0.44875 0.0
H1012 H 0.1901 0.77934 0.39982 0.0
H1013 H 0.22161 0.81038 0.45013 0.0
C1014 C 0.2591 0.78549 0.51083 0.0
C1015 C 0.27863 0.76946 0.5395 0.0
C1016 C 0.2419 0.76795 0.47981 0.0
C1017 C 0.28015 0.73541 0.53829 0.0
C1018 C 0.26267 0.71765 0.50823 0.0
C1019 C 0.22612 0.71618 0.44819 0.0
C1020 C 0.2062 0.73226 0.42059 0.0
C1021 C 0.2437 0.73375 0.47843 0.0
C1022 C 0.20525 0.76637 0.42063 0.0
C1023 C 0.22305 0.7841 0.44985 0.0
H1024 H 0.22965 0.81978 0.92955 0.0
H1025 H 0.19382 0.73238 0.87073 0.0
H1026 H 0.22778 0.69965 0.91185 0.0
H1027 H 0.26455 0.69582 0.97177 0.0
H1028 H 0.29863 0.7833 0.03416 0.0
H1029 H 0.26744 0.8162 0.98546 0.0
C1030 C 0.22938 0.7936 0.92482 0.0
C1031 C 0.20895 0.7785 0.89788 0.0
C1032 C 0.24803 0.77497 0.9506 0.0
C1033 C 0.20923 0.7446 0.89162 0.0
C1034 C 0.22842 0.72586 0.91564 0.0
C1035 C 0.26499 0.72207 0.97527 0.0
C1036 C 0.28355 0.73713 0.0072 0.0
C1037 C 0.24725 0.74077 0.94688 0.0
C1038 C 0.28429 0.77117 0.01029 0.0
C1039 C 0.26666 0.78997 0.98215 0.0
H1040 H 0.29635 0.25166 0.51175 0.0
H1041 H 0.25682 0.23828 0.3652 0.0
H1042 H 0.21544 0.25392 0.40599 0.0
H1043 H 0.19032 0.26848 0.4846 0.0
H1044 H 0.22971 0.28242 0.63119 0.0
H1045 H 0.27135 0.26791 0.59005 0.0
C1046 C 0.2788 0.2535 0.48846 0.0
C1047 C 0.27958 0.24505 0.43526 0.0
C1048 C 0.25499 0.26088 0.51286 0.0
C1049 C 0.25665 0.24588 0.40578 0.0
C1050 C 0.23298 0.25407 0.42937 0.0
C1051 C 0.20795 0.26731 0.50775 0.0
C1052 C 0.20701 0.27516 0.56117 0.0
C1053 C 0.23183 0.26067 0.48319 0.0
C1054 C 0.23003 0.27524 0.59042 0.0
C1055 C 0.25382 0.26763 0.56667 0.0
H1056 H 0.7519 0.80116 0.94951 0.0
H1057 H 0.8024 0.71786 0.96841 0.0
H1058 H 0.76837 0.68997 0.01835 0.0
H1059 H 0.72587 0.69088 0.06128 0.0
H1060 H 0.67581 0.77476 0.04425 0.0
H1061 H 0.70896 0.80147 0.99032 0.0
C1062 C 0.75548 0.7767 0.96381 0.0
C1063 C 0.77984 0.76172 0.95539 0.0
C1064 C 0.73631 0.76139 0.99412 0.0
C1065 C 0.78389 0.72996 0.97412 0.0
C1066 C 0.76456 0.71417 0.00325 0.0
C1067 C 0.72217 0.71515 0.04629 0.0
C1068 C 0.69839 0.73092 0.05732 0.0
C1069 C 0.74102 0.73005 0.01461 0.0
C1070 C 0.694 0.76221 0.03696 0.0
C1071 C 0.71283 0.77734 0.00566 0.0
H1072 H 0.75603 0.30875 0.55355 0.0
H1073 H 0.79264 0.22052 0.60869 0.0
H1074 H 0.75932 0.1882 0.56525 0.0
H1075 H 0.72111 0.18539 0.50954 0.0
H1076 H 0.68515 0.27378 0.45291 0.0
H1077 H 0.7178 0.30595 0.49815 0.0
C1078 C 0.75645 0.28246 0.55704 0.0
C1079 C 0.77655 0.26693 0.58454 0.0
C1080 C 0.73793 0.2642 0.53063 0.0
C1081 C 0.77717 0.23289 0.58789 0.0
C1082 C 0.75834 0.21448 0.56271 0.0
C1083 C 0.72057 0.21168 0.50638 0.0
C1084 C 0.70083 0.22722 0.47776 0.0
C1085 C 0.73898 0.22993 0.53319 0.0
C1086 C 0.70025 0.26129 0.4746 0.0
C1087 C 0.71873 0.27967 0.50077 0.0
H1088 H 0.68458 0.24784 0.01893 0.0
H1089 H 0.7321 0.29326 0.89978 0.0
H1090 H 0.77156 0.27509 0.9446 0.0
H1091 H 0.79228 0.2481 0.01951 0.0
H1092 H 0.74484 0.20245 0.1385 0.0
H1093 H 0.70532 0.22025 0.09334 0.0
C1094 C 0.7036 0.25277 1.00204 0.0
C1095 C 0.70565 0.271 0.95562 0.0
C1096 C 0.72604 0.24358 0.02924 0.0
C1097 C 0.73028 0.27851 0.93491 0.0
C1098 C 0.75274 0.26867 0.96097 0.0
C1099 C 0.77324 0.24298 0.0362 0.0
C1100 C 0.77121 0.22502 0.08286 0.0
C1101 C 0.75081 0.2519 0.00879 0.0
C1102 C 0.74661 0.21712 0.10326 0.0
C1103 C 0.72413 0.22674 0.07702 0.0
H1104 H 0.75365 0.6946 0.46011 0.0
H1105 H 0.80283 0.77952 0.46872 0.0
H1106 H 0.76865 0.80823 0.51673 0.0
H1107 H 0.72614 0.80811 0.55967 0.0
H1108 H 0.67726 0.72287 0.55234 0.0
H1109 H 0.71087 0.69478 0.50178 0.0
C1110 C 0.75692 0.71956 0.47177 0.0
C1111 C 0.78091 0.73485 0.46078 0.0
C1112 C 0.73762 0.73547 0.5008 0.0
C1113 C 0.78458 0.76719 0.47635 0.0
C1114 C 0.76516 0.78348 0.50433 0.0
C1115 C 0.72278 0.78326 0.54755 0.0
C1116 C 0.69916 0.76756 0.5602 0.0
C1117 C 0.74188 0.76757 0.51768 0.0
C1118 C 0.69529 0.73545 0.54367 0.0
C1119 C 0.71438 0.71951 0.5143 0.0
loop_
_geom_bond_atom_site_label_1
_geom_bond_atom_site_label_2
_geom_bond_distance
_geom_bond_site_symmetry_2
_ccdc_geom_bond_type
Sc0 O3 2.025 . S
Sc0 O10 2.105 . S
Sc0 O13 2.105 . S
Sc0 O16 2.105 . S
Sc0 O19 2.105 1_554 S
Sc1 O3 2.025 . S
Sc1 O11 2.105 1_554 S
Sc1 O15 2.105 . S
Sc1 O17 2.105 . S
Sc1 O21 2.105 . S
Sc2 O3 2.025 . S
Sc2 O12 2.105 . S
Sc2 O14 2.105 . S
Sc2 O18 2.105 . S
Sc2 O20 2.105 . S
O3 Sc0 2.025 . S
O3 Sc1 2.025 . S
O3 Sc2 2.025 . S
C4 O10 1.268 . S
C4 O20 1.268 . S
C5 O11 1.268 . S
C5 O19 1.268 . S
C6 O12 1.268 . S
C6 O21 1.268 . S
C7 O13 1.268 . S
C7 O17 1.268 . S
C8 O14 1.268 . S
C8 O16 1.268 . S
C9 O15 1.268 . S
C9 O18 1.268 . S
O10 Sc0 2.105 . S
O10 C4 1.268 . S
O11 Sc1 2.105 1_556 S
O11 C5 1.268 . S
O12 Sc2 2.105 . S
O12 C6 1.268 . S
O13 Sc0 2.105 . S
O13 C7 1.268 . S
O14 Sc2 2.105 . S
O14 C8 1.268 . S
O15 Sc1 2.105 . S
O15 C9 1.268 . S
O16 Sc0 2.105 . S
O16 C8 1.268 . S
O17 Sc1 2.105 . S
O17 C7 1.268 . S
O18 Sc2 2.105 . S
O18 C9 1.268 . S
O19 Sc0 2.105 1_556 S
O19 C5 1.268 . S
O20 Sc2 2.105 . S
O20 C4 1.268 . S
O21 Sc1 2.105 . S
O21 C6 1.268 . S
Sc22 O25 2.025 . S
Sc22 O32 2.105 . S
Sc22 O35 2.105 . S
Sc22 O38 2.105 . S
Sc22 O41 2.105 . S
Sc23 O25 2.025 . S
Sc23 O33 2.105 . S
Sc23 O37 2.105 . S
Sc23 O39 2.105 . S
Sc23 O43 2.105 . S
Sc24 O25 2.025 . S
Sc24 O34 2.105 . S
Sc24 O36 2.105 . S
Sc24 O40 2.105 . S
Sc24 O42 2.105 . S
O25 Sc22 2.025 . S
O25 Sc23 2.025 . S
O25 Sc24 2.025 . S
C26 O32 1.268 . S
C26 O42 1.268 . S
C27 O33 1.268 . S
C27 O41 1.268 . S
C28 O34 1.268 . S
C28 O43 1.268 . S
C29 O35 1.268 . S
C29 O39 1.268 . S
C30 O36 1.268 . S
C30 O38 1.268 . S
C31 O37 1.268 . S
C31 O40 1.268 . S
O32 Sc22 2.105 . S
O32 C26 1.268 . S
O33 Sc23 2.105 . S
O33 C27 1.268 . S
O34 Sc24 2.105 . S
O34 C28 1.268 . S
O35 Sc22 2.105 . S
O35 C29 1.268 . S
O36 Sc24 2.105 . S
O36 C30 1.268 . S
O37 Sc23 2.105 . S
O37 C31 1.268 . S
O38 Sc22 2.105 . S
O38 C30 1.268 . S
O39 Sc23 2.105 . S
O39 C29 1.268 . S
O40 Sc24 2.105 . S
O40 C31 1.268 . S
O41 Sc22 2.105 . S
O41 C27 1.268 . S
O42 Sc24 2.105 . S
O42 C26 1.268 . S
O43 Sc23 2.105 . S
O43 C28 1.268 . S
Sc44 O47 2.025 . S
Sc44 O54 2.105 . S
Sc44 O57 2.105 . S
Sc44 O60 2.105 . S
Sc44 O63 2.105 1_556 S
Sc45 O47 2.025 . S
Sc45 O55 2.105 1_556 S
Sc45 O59 2.105 . S
Sc45 O61 2.105 . S
Sc45 O65 2.105 . S
Sc46 O47 2.025 . S
Sc46 O56 2.105 . S
Sc46 O58 2.105 . S
Sc46 O62 2.105 . S
Sc46 O64 2.105 . S
O47 Sc44 2.025 . S
O47 Sc45 2.025 . S
O47 Sc46 2.025 . S
C48 O54 1.268 . S
C48 O64 1.268 . S
C49 O55 1.268 . S
C49 O63 1.268 . S
C50 O56 1.268 . S
C50 O65 1.268 . S
C51 O57 1.268 . S
C51 O61 1.268 . S
C52 O58 1.268 . S
C52 O60 1.268 . S
C53 O59 1.268 . S
C53 O62 1.268 . S
O54 Sc44 2.105 . S
O54 C48 1.268 . S
O55 Sc45 2.105 1_554 S
O55 C49 1.268 . S
O56 Sc46 2.105 . S
O56 C50 1.268 . S
O57 Sc44 2.105 . S
O57 C51 1.268 . S
O58 Sc46 2.105 . S
O58 C52 1.268 . S
O59 Sc45 2.105 . S
O59 C53 1.268 . S
O60 Sc44 2.105 . S
O60 C52 1.268 . S
O61 Sc45 2.105 . S
O61 C51 1.268 . S
O62 Sc46 2.105 . S
O62 C53 1.268 . S
O63 Sc44 2.105 1_554 S
O63 C49 1.268 . S
O64 Sc46 2.105 . S
O64 C48 1.268 . S
O65 Sc45 2.105 . S
O65 C50 1.268 . S
Sc66 O69 2.025 . S
Sc66 O76 2.105 . S
Sc66 O79 2.105 . S
Sc66 O82 2.105 . S
Sc66 O85 2.105 . S
Sc67 O69 2.025 . S
Sc67 O77 2.105 . S
Sc67 O81 2.105 . S
Sc67 O83 2.105 . S
Sc67 O87 2.105 . S
Sc68 O69 2.025 . S
Sc68 O78 2.105 . S
Sc68 O80 2.105 . S
Sc68 O84 2.105 . S
Sc68 O86 2.105 . S
O69 Sc66 2.025 . S
O69 Sc67 2.025 . S
O69 Sc68 2.025 . S
C70 O76 1.268 . S
C70 O86 1.268 . S
C71 O77 1.268 . S
C71 O85 1.268 . S
C72 O78 1.268 . S
C72 O87 1.268 . S
C73 O79 1.268 . S
C73 O83 1.268 . S
C74 O80 1.268 . S
C74 O82 1.268 . S
C75 O81 1.268 . S
C75 O84 1.268 . S
O76 Sc66 2.105 . S
O76 C70 1.268 . S
O77 Sc67 2.105 . S
O77 C71 1.268 . S
O78 Sc68 2.105 . S
O78 C72 1.268 . S
O79 Sc66 2.105 . S
O79 C73 1.268 . S
O80 Sc68 2.105 . S
O80 C74 1.268 . S
O81 Sc67 2.105 . S
O81 C75 1.268 . S
O82 Sc66 2.105 . S
O82 C74 1.268 . S
O83 Sc67 2.105 . S
O83 C73 1.268 . S
O84 Sc68 2.105 . S
O84 C75 1.268 . S
O85 Sc66 2.105 . S
O85 C71 1.268 . S
O86 Sc68 2.105 . S
O86 C70 1.268 . S
O87 Sc67 2.105 . S
O87 C72 1.268 . S
Sc88 O91 2.025 . S
Sc88 O98 2.105 . S
Sc88 O101 2.105 . S
Sc88 O104 2.105 . S
Sc88 O107 2.105 . S
Sc89 O91 2.025 . S
Sc89 O99 2.105 . S
Sc89 O103 2.105 . S
Sc89 O105 2.105 . S
Sc89 O109 2.105 1_556 S
Sc90 O91 2.025 . S
Sc90 O100 2.105 1_556 S
Sc90 O102 2.105 . S
Sc90 O106 2.105 . S
Sc90 O108 2.105 . S
O91 Sc88 2.025 . S
O91 Sc89 2.025 . S
O91 Sc90 2.025 . S
C92 O98 1.268 . S
C92 O108 1.268 . S
C93 O99 1.268 . S
C93 O107 1.268 . S
C94 O100 1.268 . S
C94 O109 1.268 . S
C95 O101 1.268 . S
C95 O105 1.268 . S
C96 O102 1.268 . S
C96 O104 1.268 . S
C97 O103 1.268 . S
C97 O106 1.268 . S
O98 Sc88 2.105 . S
O98 C92 1.268 . S
O99 Sc89 2.105 . S
O99 C93 1.268 . S
O100 Sc90 2.105 1_554 S
O100 C94 1.268 . S
O101 Sc88 2.105 . S
O101 C95 1.268 . S
O102 Sc90 2.105 . S
O102 C96 1.268 . S
O103 Sc89 2.105 . S
O103 C97 1.268 . S
O104 Sc88 2.105 . S
O104 C96 1.268 . S
O105 Sc89 2.105 . S
O105 C95 1.268 . S
O106 Sc90 2.105 . S
O106 C97 1.268 . S
O107 Sc88 2.105 . S
O107 C93 1.268 . S
O108 Sc90 2.105 . S
O108 C92 1.268 . S
O109 Sc89 2.105 1_554 S
O109 C94 1.268 . S
Sc110 O113 2.025 . S
Sc110 O120 2.105 . S
Sc110 O123 2.105 . S
Sc110 O126 2.105 . S
Sc110 O129 2.105 . S
Sc111 O113 2.025 . S
Sc111 O121 2.105 . S
Sc111 O125 2.105 . S
Sc111 O127 2.105 . S
Sc111 O131 2.105 . S
Sc112 O113 2.025 . S
Sc112 O122 2.105 . S
Sc112 O124 2.105 . S
Sc112 O128 2.105 . S
Sc112 O130 2.105 . S
O113 Sc110 2.025 . S
O113 Sc111 2.025 . S
O113 Sc112 2.025 . S
C114 O120 1.268 . S
C114 O130 1.268 . S
C115 O121 1.268 . S
C115 O129 1.268 . S
C116 O122 1.268 . S
C116 O131 1.268 . S
C117 O123 1.268 . S
C117 O127 1.268 . S
C118 O124 1.268 . S
C118 O126 1.268 . S
C119 O125 1.268 . S
C119 O128 1.268 . S
O120 Sc110 2.105 . S
O120 C114 1.268 . S
O121 Sc111 2.105 . S
O121 C115 1.268 . S
O122 Sc112 2.105 . S
O122 C116 1.268 . S
O123 Sc110 2.105 . S
O123 C117 1.268 . S
O124 Sc112 2.105 . S
O124 C118 1.268 . S
O125 Sc111 2.105 . S
O125 C119 1.268 . S
O126 Sc110 2.105 . S
O126 C118 1.268 . S
O127 Sc111 2.105 . S
O127 C117 1.268 . S
O128 Sc112 2.105 . S
O128 C119 1.268 . S
O129 Sc110 2.105 . S
O129 C115 1.268 . S
O130 Sc112 2.105 . S
O130 C114 1.268 . S
O131 Sc111 2.105 . S
O131 C116 1.268 . S
Sc132 O135 2.025 . S
Sc132 O142 2.105 . S
Sc132 O145 2.105 1_554 S
Sc132 O148 2.105 . S
Sc132 O151 2.105 . S
Sc133 O135 2.025 . S
Sc133 O143 2.105 . S
Sc133 O147 2.105 . S
Sc133 O149 2.105 1_554 S
Sc133 O153 2.105 . S
Sc134 O135 2.025 . S
Sc134 O144 2.105 . S
Sc134 O146 2.105 . S
Sc134 O150 2.105 . S
Sc134 O152 2.105 . S
O135 Sc132 2.025 . S
O135 Sc133 2.025 . S
O135 Sc134 2.025 . S
C136 O142 1.268 . S
C136 O152 1.268 . S
C137 O143 1.268 . S
C137 O151 1.268 . S
C138 O144 1.268 . S
C138 O153 1.268 . S
C139 O145 1.268 . S
C139 O149 1.268 . S
C140 O146 1.268 . S
C140 O148 1.268 . S
C141 O147 1.268 . S
C141 O150 1.268 . S
O142 Sc132 2.105 . S
O142 C136 1.268 . S
O143 Sc133 2.105 . S
O143 C137 1.268 . S
O144 Sc134 2.105 . S
O144 C138 1.268 . S
O145 Sc132 2.105 1_556 S
O145 C139 1.268 . S
O146 Sc134 2.105 . S
O146 C140 1.268 . S
O147 Sc133 2.105 . S
O147 C141 1.268 . S
O148 Sc132 2.105 . S
O148 C140 1.268 . S
O149 Sc133 2.105 1_556 S
O149 C139 1.268 . S
O150 Sc134 2.105 . S
O150 C141 1.268 . S
O151 Sc132 2.105 . S
O151 C137 1.268 . S
O152 Sc134 2.105 . S
O152 C136 1.268 . S
O153 Sc133 2.105 . S
O153 C138 1.268 . S
Sc154 O157 2.025 . S
Sc154 O164 2.105 . S
Sc154 O167 2.105 . S
Sc154 O170 2.105 . S
Sc154 O173 2.105 . S
Sc155 O157 2.025 . S
Sc155 O165 2.105 . S
Sc155 O169 2.105 . S
Sc155 O171 2.105 . S
Sc155 O175 2.105 . S
Sc156 O157 2.025 . S
Sc156 O166 2.105 . S
Sc156 O168 2.105 . S
Sc156 O172 2.105 . S
Sc156 O174 2.105 . S
O157 Sc154 2.025 . S
O157 Sc155 2.025 . S
O157 Sc156 2.025 . S
C158 O164 1.268 . S
C158 O174 1.268 . S
C159 O165 1.268 . S
C159 O173 1.268 . S
C160 O166 1.268 . S
C160 O175 1.268 . S
C161 O167 1.268 . S
C161 O171 1.268 . S
C162 O168 1.268 . S
C162 O170 1.268 . S
C163 O169 1.268 . S
C163 O172 1.268 . S
O164 Sc154 2.105 . S
O164 C158 1.268 . S
O165 Sc155 2.105 . S
O165 C159 1.268 . S
O166 Sc156 2.105 . S
O166 C160 1.268 . S
O167 Sc154 2.105 . S
O167 C161 1.268 . S
O168 Sc156 2.105 . S
O168 C162 1.268 . S
O169 Sc155 2.105 . S
O169 C163 1.268 . S
O170 Sc154 2.105 . S
O170 C162 1.268 . S
O171 Sc155 2.105 . S
O171 C161 1.268 . S
O172 Sc156 2.105 . S
O172 C163 1.268 . S
O173 Sc154 2.105 . S
O173 C159 1.268 . S
O174 Sc156 2.105 . S
O174 C158 1.268 . S
O175 Sc155 2.105 . S
O175 C160 1.268 . S
Sc176 O179 2.025 . S
Sc176 O186 2.105 . S
Sc176 O189 2.105 . S
Sc176 O192 2.105 . S
Sc176 O195 2.105 1_554 S
Sc177 O179 2.025 . S
Sc177 O187 2.105 1_554 S
Sc177 O191 2.105 . S
Sc177 O193 2.105 . S
Sc177 O197 2.105 . S
Sc178 O179 2.025 . S
Sc178 O188 2.105 . S
Sc178 O190 2.105 . S
Sc178 O194 2.105 . S
Sc178 O196 2.105 . S
O179 Sc176 2.025 . S
O179 Sc177 2.025 . S
O179 Sc178 2.025 . S
C180 O186 1.268 . S
C180 O196 1.268 . S
C181 O187 1.268 . S
C181 O195 1.268 . S
C182 O188 1.268 . S
C182 O197 1.268 . S
C183 O189 1.268 . S
C183 O193 1.268 . S
C184 O190 1.268 . S
C184 O192 1.268 . S
C185 O191 1.268 . S
C185 O194 1.268 . S
O186 Sc176 2.105 . S
O186 C180 1.268 . S
O187 Sc177 2.105 1_556 S
O187 C181 1.268 . S
O188 Sc178 2.105 . S
O188 C182 1.268 . S
O189 Sc176 2.105 . S
O189 C183 1.268 . S
O190 Sc178 2.105 . S
O190 C184 1.268 . S
O191 Sc177 2.105 . S
O191 C185 1.268 . S
O192 Sc176 2.105 . S
O192 C184 1.268 . S
O193 Sc177 2.105 . S
O193 C183 1.268 . S
O194 Sc178 2.105 . S
O194 C185 1.268 . S
O195 Sc176 2.105 1_556 S
O195 C181 1.268 . S
O196 Sc178 2.105 . S
O196 C180 1.268 . S
O197 Sc177 2.105 . S
O197 C182 1.268 . S
Sc198 O201 2.025 . S
Sc198 O208 2.105 . S
Sc198 O211 2.105 . S
Sc198 O214 2.105 . S
Sc198 O217 2.105 . S
Sc199 O201 2.025 . S
Sc199 O209 2.105 . S
Sc199 O213 2.105 . S
Sc199 O215 2.105 . S
Sc199 O219 2.105 . S
Sc200 O201 2.025 . S
Sc200 O210 2.105 . S
Sc200 O212 2.105 . S
Sc200 O216 2.105 . S
Sc200 O218 2.105 . S
O201 Sc198 2.025 . S
O201 Sc199 2.025 . S
O201 Sc200 2.025 . S
C202 O208 1.268 . S
C202 O218 1.268 . S
C203 O209 1.268 . S
C203 O217 1.268 . S
C204 O210 1.268 . S
C204 O219 1.268 . S
C205 O211 1.268 . S
C205 O215 1.268 . S
C206 O212 1.268 . S
C206 O214 1.268 . S
C207 O213 1.268 . S
C207 O216 1.268 . S
O208 Sc198 2.105 . S
O208 C202 1.268 . S
O209 Sc199 2.105 . S
O209 C203 1.268 . S
O210 Sc200 2.105 . S
O210 C204 1.268 . S
O211 Sc198 2.105 . S
O211 C205 1.268 . S
O212 Sc200 2.105 . S
O212 C206 1.268 . S
O213 Sc199 2.105 . S
O213 C207 1.268 . S
O214 Sc198 2.105 . S
O214 C206 1.268 . S
O215 Sc199 2.105 . S
O215 C205 1.268 . S
O216 Sc200 2.105 . S
O216 C207 1.268 . S
O217 Sc198 2.105 . S
O217 C203 1.268 . S
O218 Sc200 2.105 . S
O218 C202 1.268 . S
O219 Sc199 2.105 . S
O219 C204 1.268 . S
Sc220 O223 2.025 . S
Sc220 O230 2.105 . S
Sc220 O233 2.105 . S
Sc220 O236 2.105 . S
Sc220 O239 2.105 1_556 S
Sc221 O223 2.025 . S
Sc221 O231 2.105 1_556 S
Sc221 O235 2.105 . S
Sc221 O237 2.105 . S
Sc221 O241 2.105 . S
Sc222 O223 2.025 . S
Sc222 O232 2.105 . S
Sc222 O234 2.105 . S
Sc222 O238 2.105 . S
Sc222 O240 2.105 . S
O223 Sc220 2.025 . S
O223 Sc221 2.025 . S
O223 Sc222 2.025 . S
C224 O230 1.268 . S
C224 O240 1.268 . S
C225 O231 1.268 . S
C225 O239 1.268 . S
C226 O232 1.268 . S
C226 O241 1.268 . S
C227 O233 1.268 . S
C227 O237 1.268 . S
C228 O234 1.268 . S
C228 O236 1.268 . S
C229 O235 1.268 . S
C229 O238 1.268 . S
O230 Sc220 2.105 . S
O230 C224 1.268 . S
O231 Sc221 2.105 1_554 S
O231 C225 1.268 . S
O232 Sc222 2.105 . S
O232 C226 1.268 . S
O233 Sc220 2.105 . S
O233 C227 1.268 . S
O234 Sc222 2.105 . S
O234 C228 1.268 . S
O235 Sc221 2.105 . S
O235 C229 1.268 . S
O236 Sc220 2.105 . S
O236 C228 1.268 . S
O237 Sc221 2.105 . S
O237 C227 1.268 . S
O238 Sc222 2.105 . S
O238 C229 1.268 . S
O239 Sc220 2.105 1_554 S
O239 C225 1.268 . S
O240 Sc222 2.105 . S
O240 C224 1.268 . S
O241 Sc221 2.105 . S
O241 C226 1.268 . S
Sc242 O245 2.025 . S
Sc242 O252 2.105 . S
Sc242 O255 2.105 . S
Sc242 O258 2.105 . S
Sc242 O261 2.105 . S
Sc243 O245 2.025 . S
Sc243 O253 2.105 . S
Sc243 O257 2.105 . S
Sc243 O259 2.105 . S
Sc243 O263 2.105 . S
Sc244 O245 2.025 . S
Sc244 O254 2.105 . S
Sc244 O256 2.105 . S
Sc244 O260 2.105 . S
Sc244 O262 2.105 . S
O245 Sc242 2.025 . S
O245 Sc243 2.025 . S
O245 Sc244 2.025 . S
C246 O252 1.268 . S
C246 O262 1.268 . S
C247 O253 1.268 . S
C247 O261 1.268 . S
C248 O254 1.268 . S
C248 O263 1.268 . S
C249 O255 1.268 . S
C249 O259 1.268 . S
C250 O256 1.268 . S
C250 O258 1.268 . S
C251 O257 1.268 . S
C251 O260 1.268 . S
O252 Sc242 2.105 . S
O252 C246 1.268 . S
O253 Sc243 2.105 . S
O253 C247 1.268 . S
O254 Sc244 2.105 . S
O254 C248 1.268 . S
O255 Sc242 2.105 . S
O255 C249 1.268 . S
O256 Sc244 2.105 . S
O256 C250 1.268 . S
O257 Sc243 2.105 . S
O257 C251 1.268 . S
O258 Sc242 2.105 . S
O258 C250 1.268 . S
O259 Sc243 2.105 . S
O259 C249 1.268 . S
O260 Sc244 2.105 . S
O260 C251 1.268 . S
O261 Sc242 2.105 . S
O261 C247 1.268 . S
O262 Sc244 2.105 . S
O262 C246 1.268 . S
O263 Sc243 2.105 . S
O263 C248 1.268 . S
Sc264 O267 2.025 . S
Sc264 O274 2.105 . S
Sc264 O277 2.105 . S
Sc264 O280 2.105 . S
Sc264 O283 2.105 . S
Sc265 O267 2.025 . S
Sc265 O275 2.105 . S
Sc265 O279 2.105 . S
Sc265 O281 2.105 . S
Sc265 O285 2.105 1_556 S
Sc266 O267 2.025 . S
Sc266 O276 2.105 1_556 S
Sc266 O278 2.105 . S
Sc266 O282 2.105 . S
Sc266 O284 2.105 . S
O267 Sc264 2.025 . S
O267 Sc265 2.025 . S
O267 Sc266 2.025 . S
C268 O274 1.268 . S
C268 O284 1.268 . S
C269 O275 1.268 . S
C269 O283 1.268 . S
C270 O276 1.268 . S
C270 O285 1.268 . S
C271 O277 1.268 . S
C271 O281 1.268 . S
C272 O278 1.268 . S
C272 O280 1.268 . S
C273 O279 1.268 . S
C273 O282 1.268 . S
O274 Sc264 2.105 . S
O274 C268 1.268 . S
O275 Sc265 2.105 . S
O275 C269 1.268 . S
O276 Sc266 2.105 1_554 S
O276 C270 1.268 . S
O277 Sc264 2.105 . S
O277 C271 1.268 . S
O278 Sc266 2.105 . S
O278 C272 1.268 . S
O279 Sc265 2.105 . S
O279 C273 1.268 . S
O280 Sc264 2.105 . S
O280 C272 1.268 . S
O281 Sc265 2.105 . S
O281 C271 1.268 . S
O282 Sc266 2.105 . S
O282 C273 1.268 . S
O283 Sc264 2.105 . S
O283 C269 1.268 . S
O284 Sc266 2.105 . S
O284 C268 1.268 . S
O285 Sc265 2.105 1_554 S
O285 C270 1.268 . S
Sc286 O289 2.025 . S
Sc286 O296 2.105 . S
Sc286 O299 2.105 . S
Sc286 O302 2.105 . S
Sc286 O305 2.105 . S
Sc287 O289 2.025 . S
Sc287 O297 2.105 . S
Sc287 O301 2.105 . S
Sc287 O303 2.105 . S
Sc287 O307 2.105 . S
Sc288 O289 2.025 . S
Sc288 O298 2.105 . S
Sc288 O300 2.105 . S
Sc288 O304 2.105 . S
Sc288 O306 2.105 . S
O289 Sc286 2.025 . S
O289 Sc287 2.025 . S
O289 Sc288 2.025 . S
C290 O296 1.268 . S
C290 O306 1.268 . S
C291 O297 1.268 . S
C291 O305 1.268 . S
C292 O298 1.268 . S
C292 O307 1.268 . S
C293 O299 1.268 . S
C293 O303 1.268 . S
C294 O300 1.268 . S
C294 O302 1.268 . S
C295 O301 1.268 . S
C295 O304 1.268 . S
O296 Sc286 2.105 . S
O296 C290 1.268 . S
O297 Sc287 2.105 . S
O297 C291 1.268 . S
O298 Sc288 2.105 . S
O298 C292 1.268 . S
O299 Sc286 2.105 . S
O299 C293 1.268 . S
O300 Sc288 2.105 . S
O300 C294 1.268 . S
O301 Sc287 2.105 . S
O301 C295 1.268 . S
O302 Sc286 2.105 . S
O302 C294 1.268 . S
O303 Sc287 2.105 . S
O303 C293 1.268 . S
O304 Sc288 2.105 . S
O304 C295 1.268 . S
O305 Sc286 2.105 . S
O305 C291 1.268 . S
O306 Sc288 2.105 . S
O306 C290 1.268 . S
O307 Sc287 2.105 . S
O307 C292 1.268 . S
Sc308 O311 2.025 . S
Sc308 O318 2.105 . S
Sc308 O321 2.105 1_554 S
Sc308 O324 2.105 . S
Sc308 O327 2.105 . S
Sc309 O311 2.025 . S
Sc309 O319 2.105 . S
Sc309 O323 2.105 . S
Sc309 O325 2.105 1_554 S
Sc309 O329 2.105 . S
Sc310 O311 2.025 . S
Sc310 O320 2.105 . S
Sc310 O322 2.105 . S
Sc310 O326 2.105 . S
Sc310 O328 2.105 . S
O311 Sc308 2.025 . S
O311 Sc309 2.025 . S
O311 Sc310 2.025 . S
C312 O318 1.268 . S
C312 O328 1.268 . S
C313 O319 1.268 . S
C313 O327 1.268 . S
C314 O320 1.268 . S
C314 O329 1.268 . S
C315 O321 1.268 . S
C315 O325 1.268 . S
C316 O322 1.268 . S
C316 O324 1.268 . S
C317 O323 1.268 . S
C317 O326 1.268 . S
O318 Sc308 2.105 . S
O318 C312 1.268 . S
O319 Sc309 2.105 . S
O319 C313 1.268 . S
O320 Sc310 2.105 . S
O320 C314 1.268 . S
O321 Sc308 2.105 1_556 S
O321 C315 1.268 . S
O322 Sc310 2.105 . S
O322 C316 1.268 . S
O323 Sc309 2.105 . S
O323 C317 1.268 . S
O324 Sc308 2.105 . S
O324 C316 1.268 . S
O325 Sc309 2.105 1_556 S
O325 C315 1.268 . S
O326 Sc310 2.105 . S
O326 C317 1.268 . S
O327 Sc308 2.105 . S
O327 C313 1.268 . S
O328 Sc310 2.105 . S
O328 C312 1.268 . S
O329 Sc309 2.105 . S
O329 C314 1.268 . S
Sc330 O333 2.025 . S
Sc330 O340 2.105 . S
Sc330 O343 2.105 . S
Sc330 O346 2.105 . S
Sc330 O349 2.105 . S
Sc331 O333 2.025 . S
Sc331 O341 2.105 . S
Sc331 O345 2.105 . S
Sc331 O347 2.105 . S
Sc331 O351 2.105 . S
Sc332 O333 2.025 . S
Sc332 O342 2.105 . S
Sc332 O344 2.105 . S
Sc332 O348 2.105 . S
Sc332 O350 2.105 . S
O333 Sc330 2.025 . S
O333 Sc331 2.025 . S
O333 Sc332 2.025 . S
C334 O340 1.268 . S
C334 O350 1.268 . S
C335 O341 1.268 . S
C335 O349 1.268 . S
C336 O342 1.268 . S
C336 O351 1.268 . S
C337 O343 1.268 . S
C337 O347 1.268 . S
C338 O344 1.268 . S
C338 O346 1.268 . S
C339 O345 1.268 . S
C339 O348 1.268 . S
O340 Sc330 2.105 . S
O340 C334 1.268 . S
O341 Sc331 2.105 . S
O341 C335 1.268 . S
O342 Sc332 2.105 . S
O342 C336 1.268 . S
O343 Sc330 2.105 . S
O343 C337 1.268 . S
O344 Sc332 2.105 . S
O344 C338 1.268 . S
O345 Sc331 2.105 . S
O345 C339 1.268 . S
O346 Sc330 2.105 . S
O346 C338 1.268 . S
O347 Sc331 2.105 . S
O347 C337 1.268 . S
O348 Sc332 2.105 . S
O348 C339 1.268 . S
O349 Sc330 2.105 . S
O349 C335 1.268 . S
O350 Sc332 2.105 . S
O350 C334 1.268 . S
O351 Sc331 2.105 . S
O351 C336 1.268 . S
H352 C358 0.930 . S
H353 C361 0.930 . S
H354 C362 0.930 . S
H355 C363 0.930 . S
H356 C366 0.930 . S
H357 C367 0.930 . S
C358 H352 0.930 . S
C358 C359 1.355 . S
C358 C360 1.415 . S
C359 C358 1.355 . S
C359 C361 1.419 . S
C360 C358 1.415 . S
C360 C365 1.425 . S
C360 C367 1.409 . S
C361 H353 0.930 . S
C361 C359 1.419 . S
C361 C362 1.362 . S
C362 H354 0.930 . S
C362 C361 1.362 . S
C362 C365 1.409 . S
C363 H355 0.930 . S
C363 C364 1.355 . S
C363 C365 1.415 . S
C364 C363 1.355 . S
C364 C366 1.419 . S
C365 C360 1.425 . S
C365 C362 1.409 . S
C365 C363 1.415 . S
C366 H356 0.930 . S
C366 C364 1.419 . S
C366 C367 1.362 . S
C367 H357 0.930 . S
C367 C360 1.409 . S
C367 C366 1.362 . S
H368 C374 0.930 . S
H369 C377 0.930 . S
H370 C378 0.930 . S
H371 C379 0.930 . S
H372 C382 0.930 . S
H373 C383 0.930 . S
C374 H368 0.930 . S
C374 C375 1.355 . S
C374 C376 1.415 . S
C375 C374 1.355 . S
C375 C377 1.419 . S
C376 C374 1.415 . S
C376 C381 1.425 . S
C376 C383 1.409 . S
C377 H369 0.930 . S
C377 C375 1.419 . S
C377 C378 1.362 . S
C378 H370 0.930 . S
C378 C377 1.362 . S
C378 C381 1.409 . S
C379 H371 0.930 . S
C379 C380 1.355 . S
C379 C381 1.415 . S
C380 C379 1.355 . S
C380 C382 1.419 . S
C381 C376 1.425 . S
C381 C378 1.409 . S
C381 C379 1.415 . S
C382 H372 0.930 . S
C382 C380 1.419 . S
C382 C383 1.362 . S
C383 H373 0.930 . S
C383 C376 1.409 . S
C383 C382 1.362 . S
H384 C390 0.930 . S
H385 C393 0.930 . S
H386 C394 0.930 . S
H387 C395 0.930 . S
H388 C398 0.930 . S
H389 C399 0.930 . S
C390 H384 0.930 . S
C390 C391 1.355 . S
C390 C392 1.415 . S
C391 C390 1.355 . S
C391 C393 1.419 . S
C392 C390 1.415 . S
C392 C397 1.425 . S
C392 C399 1.409 . S
C393 H385 0.930 . S
C393 C391 1.419 . S
C393 C394 1.362 . S
C394 H386 0.930 . S
C394 C393 1.362 . S
C394 C397 1.409 . S
C395 H387 0.930 . S
C395 C396 1.355 . S
C395 C397 1.415 . S
C396 C395 1.355 . S
C396 C398 1.419 . S
C397 C392 1.425 . S
C397 C394 1.409 . S
C397 C395 1.415 . S
C398 H388 0.930 . S
C398 C396 1.419 . S
C398 C399 1.362 . S
C399 H389 0.930 . S
C399 C392 1.409 . S
C399 C398 1.362 . S
H400 C406 0.930 . S
H401 C409 0.930 . S
H402 C410 0.930 . S
H403 C411 0.930 . S
H404 C414 0.930 . S
H405 C415 0.930 . S
C406 H400 0.930 . S
C406 C407 1.355 . S
C406 C408 1.415 . S
C407 C406 1.355 . S
C407 C409 1.419 . S
C408 C406 1.415 . S
C408 C413 1.425 . S
C408 C415 1.409 . S
C409 H401 0.930 . S
C409 C407 1.419 . S
C409 C410 1.362 . S
C410 H402 0.930 . S
C410 C409 1.362 . S
C410 C413 1.409 . S
C411 H403 0.930 . S
C411 C412 1.355 . S
C411 C413 1.415 . S
C412 C411 1.355 . S
C412 C414 1.419 . S
C413 C408 1.425 . S
C413 C410 1.409 . S
C413 C411 1.415 . S
C414 H404 0.930 . S
C414 C412 1.419 . S
C414 C415 1.362 . S
C415 H405 0.930 . S
C415 C408 1.409 . S
C415 C414 1.362 . S
H416 C422 0.930 . S
H417 C425 0.930 . S
H418 C426 0.930 . S
H419 C427 0.930 . S
H420 C430 0.930 . S
H421 C431 0.930 . S
C422 H416 0.930 . S
C422 C423 1.355 . S
C422 C424 1.415 . S
C423 C422 1.355 . S
C423 C425 1.419 . S
C424 C422 1.415 . S
C424 C429 1.425 . S
C424 C431 1.409 . S
C425 H417 0.930 . S
C425 C423 1.419 . S
C425 C426 1.362 . S
C426 H418 0.930 . S
C426 C425 1.362 . S
C426 C429 1.409 . S
C427 H419 0.930 . S
C427 C428 1.355 . S
C427 C429 1.415 . S
C428 C427 1.355 . S
C428 C430 1.419 . S
C429 C424 1.425 . S
C429 C426 1.409 . S
C429 C427 1.415 . S
C430 H420 0.930 . S
C430 C428 1.419 . S
C430 C431 1.362 . S
C431 H421 0.930 . S
C431 C424 1.409 . S
C431 C430 1.362 . S
H432 C438 0.930 . S
H433 C441 0.930 . S
H434 C442 0.930 . S
H435 C443 0.930 . S
H436 C446 0.930 . S
H437 C447 0.930 . S
C438 H432 0.930 . S
C438 C439 1.355 . S
C438 C440 1.415 . S
C439 C438 1.355 . S
C439 C441 1.419 . S
C440 C438 1.415 . S
C440 C445 1.425 . S
C440 C447 1.409 . S
C441 H433 0.930 . S
C441 C439 1.419 . S
C441 C442 1.362 . S
C442 H434 0.930 . S
C442 C441 1.362 . S
C442 C445 1.409 . S
C443 H435 0.930 . S
C443 C444 1.355 . S
C443 C445 1.415 . S
C444 C443 1.355 . S
C444 C446 1.419 . S
C445 C440 1.425 . S
C445 C442 1.409 . S
C445 C443 1.415 . S
C446 H436 0.930 . S
C446 C444 1.419 . S
C446 C447 1.362 . S
C447 H437 0.930 . S
C447 C440 1.409 . S
C447 C446 1.362 . S
H448 C454 0.930 . S
H449 C457 0.930 . S
H450 C458 0.930 . S
H451 C459 0.930 . S
H452 C462 0.930 . S
H453 C463 0.930 . S
C454 H448 0.930 . S
C454 C455 1.355 . S
C454 C456 1.415 . S
C455 C454 1.355 . S
C455 C457 1.419 . S
C456 C454 1.415 . S
C456 C461 1.425 . S
C456 C463 1.409 . S
C457 H449 0.930 . S
C457 C455 1.419 . S
C457 C458 1.362 . S
C458 H450 0.930 . S
C458 C457 1.362 . S
C458 C461 1.409 . S
C459 H451 0.930 . S
C459 C460 1.355 . S
C459 C461 1.415 . S
C460 C459 1.355 . S
C460 C462 1.419 . S
C461 C456 1.425 . S
C461 C458 1.409 . S
C461 C459 1.415 . S
C462 H452 0.930 . S
C462 C460 1.419 . S
C462 C463 1.362 . S
C463 H453 0.930 . S
C463 C456 1.409 . S
C463 C462 1.362 . S
H464 C470 0.930 . S
H465 C473 0.930 . S
H466 C474 0.930 . S
H467 C475 0.930 . S
H468 C478 0.930 . S
H469 C479 0.930 . S
C470 H464 0.930 . S
C470 C471 1.355 . S
C470 C472 1.415 . S
C471 C470 1.355 . S
C471 C473 1.419 . S
C472 C470 1.415 . S
C472 C477 1.425 . S
C472 C479 1.409 . S
C473 H465 0.930 . S
C473 C471 1.419 . S
C473 C474 1.362 . S
C474 H466 0.930 . S
C474 C473 1.362 . S
C474 C477 1.409 . S
C475 H467 0.930 . S
C475 C476 1.355 . S
C475 C477 1.415 . S
C476 C475 1.355 . S
C476 C478 1.419 . S
C477 C472 1.425 . S
C477 C474 1.409 . S
C477 C475 1.415 . S
C478 H468 0.930 . S
C478 C476 1.419 . S
C478 C479 1.362 . S
C479 H469 0.930 . S
C479 C472 1.409 . S
C479 C478 1.362 . S
H480 C486 0.930 . S
H481 C489 0.930 . S
H482 C490 0.930 . S
H483 C491 0.930 . S
H484 C494 0.930 . S
H485 C495 0.930 . S
C486 H480 0.930 . S
C486 C487 1.355 . S
C486 C488 1.415 . S
C487 C486 1.355 . S
C487 C489 1.419 . S
C488 C486 1.415 . S
C488 C493 1.425 . S
C488 C495 1.409 . S
C489 H481 0.930 . S
C489 C487 1.419 . S
C489 C490 1.362 . S
C490 H482 0.930 . S
C490 C489 1.362 . S
C490 C493 1.409 . S
C491 H483 0.930 . S
C491 C492 1.355 . S
C491 C493 1.415 . S
C492 C491 1.355 . S
C492 C494 1.419 . S
C493 C488 1.425 . S
C493 C490 1.409 . S
C493 C491 1.415 . S
C494 H484 0.930 . S
C494 C492 1.419 . S
C494 C495 1.362 . S
C495 H485 0.930 . S
C495 C488 1.409 . S
C495 C494 1.362 . S
H496 C502 0.930 . S
H497 C505 0.930 . S
H498 C506 0.930 . S
H499 C507 0.930 . S
H500 C510 0.930 . S
H501 C511 0.930 . S
C502 H496 0.930 . S
C502 C503 1.355 . S
C502 C504 1.415 . S
C503 C502 1.355 . S
C503 C505 1.419 . S
C504 C502 1.415 . S
C504 C509 1.425 . S
C504 C511 1.409 . S
C505 H497 0.930 . S
C505 C503 1.419 . S
C505 C506 1.362 . S
C506 H498 0.930 . S
C506 C505 1.362 . S
C506 C509 1.409 . S
C507 H499 0.930 . S
C507 C508 1.355 . S
C507 C509 1.415 . S
C508 C507 1.355 . S
C508 C510 1.419 . S
C509 C504 1.425 . S
C509 C506 1.409 . S
C509 C507 1.415 . S
C510 H500 0.930 . S
C510 C508 1.419 . S
C510 C511 1.362 . S
C511 H501 0.930 . S
C511 C504 1.409 . S
C511 C510 1.362 . S
H512 C518 0.930 . S
H513 C521 0.930 . S
H514 C522 0.930 . S
H515 C523 0.930 . S
H516 C526 0.930 . S
H517 C527 0.930 . S
C518 H512 0.930 . S
C518 C519 1.355 . S
C518 C520 1.415 . S
C519 C518 1.355 . S
C519 C521 1.419 . S
C520 C518 1.415 . S
C520 C525 1.425 . S
C520 C527 1.409 . S
C521 H513 0.930 . S
C521 C519 1.419 . S
C521 C522 1.362 . S
C522 H514 0.930 . S
C522 C521 1.362 . S
C522 C525 1.409 . S
C523 H515 0.930 . S
C523 C524 1.355 . S
C523 C525 1.415 . S
C524 C523 1.355 . S
C524 C526 1.419 . S
C525 C520 1.425 . S
C525 C522 1.409 . S
C525 C523 1.415 . S
C526 H516 0.930 . S
C526 C524 1.419 . S
C526 C527 1.362 . S
C527 H517 0.930 . S
C527 C520 1.409 . S
C527 C526 1.362 . S
H528 C534 0.930 . S
H529 C537 0.930 . S
H530 C538 0.930 . S
H531 C539 0.930 . S
H532 C542 0.930 . S
H533 C543 0.930 . S
C534 H528 0.930 . S
C534 C535 1.355 . S
C534 C536 1.415 . S
C535 C534 1.355 . S
C535 C537 1.419 . S
C536 C534 1.415 . S
C536 C541 1.425 . S
C536 C543 1.409 . S
C537 H529 0.930 . S
C537 C535 1.419 . S
C537 C538 1.362 . S
C538 H530 0.930 . S
C538 C537 1.362 . S
C538 C541 1.409 . S
C539 H531 0.930 . S
C539 C540 1.355 . S
C539 C541 1.415 . S
C540 C539 1.355 . S
C540 C542 1.419 . S
C541 C536 1.425 . S
C541 C538 1.409 . S
C541 C539 1.415 . S
C542 H532 0.930 . S
C542 C540 1.419 . S
C542 C543 1.362 . S
C543 H533 0.930 . S
C543 C536 1.409 . S
C543 C542 1.362 . S
H544 C550 0.930 . S
H545 C553 0.930 . S
H546 C554 0.930 . S
H547 C555 0.930 . S
H548 C558 0.930 . S
H549 C559 0.930 . S
C550 H544 0.930 . S
C550 C551 1.355 . S
C550 C552 1.415 . S
C551 C550 1.355 . S
C551 C553 1.419 . S
C552 C550 1.415 . S
C552 C557 1.425 . S
C552 C559 1.409 . S
C553 H545 0.930 . S
C553 C551 1.419 . S
C553 C554 1.362 . S
C554 H546 0.930 . S
C554 C553 1.362 . S
C554 C557 1.409 . S
C555 H547 0.930 . S
C555 C556 1.355 . S
C555 C557 1.415 . S
C556 C555 1.355 . S
C556 C558 1.419 . S
C557 C552 1.425 . S
C557 C554 1.409 . S
C557 C555 1.415 . S
C558 H548 0.930 . S
C558 C556 1.419 . S
C558 C559 1.362 . S
C559 H549 0.930 . S
C559 C552 1.409 . S
C559 C558 1.362 . S
H560 C566 0.930 . S
H561 C569 0.930 . S
H562 C570 0.930 . S
H563 C571 0.930 . S
H564 C574 0.930 . S
H565 C575 0.930 . S
C566 H560 0.930 . S
C566 C567 1.355 . S
C566 C568 1.415 . S
C567 C566 1.355 . S
C567 C569 1.419 . S
C568 C566 1.415 . S
C568 C573 1.425 . S
C568 C575 1.409 . S
C569 H561 0.930 . S
C569 C567 1.419 . S
C569 C570 1.362 . S
C570 H562 0.930 . S
C570 C569 1.362 . S
C570 C573 1.409 . S
C571 H563 0.930 . S
C571 C572 1.355 . S
C571 C573 1.415 . S
C572 C571 1.355 . S
C572 C574 1.419 . S
C573 C568 1.425 . S
C573 C570 1.409 . S
C573 C571 1.415 . S
C574 H564 0.930 . S
C574 C572 1.419 . S
C574 C575 1.362 . S
C575 H565 0.930 . S
C575 C568 1.409 . S
C575 C574 1.362 . S
H576 C582 0.930 . S
H577 C585 0.930 . S
H578 C586 0.930 . S
H579 C587 0.930 . S
H580 C590 0.930 . S
H581 C591 0.930 . S
C582 H576 0.930 . S
C582 C583 1.355 . S
C582 C584 1.415 . S
C583 C582 1.355 . S
C583 C585 1.419 . S
C584 C582 1.415 . S
C584 C589 1.425 . S
C584 C591 1.409 . S
C585 H577 0.930 . S
C585 C583 1.419 . S
C585 C586 1.362 . S
C586 H578 0.930 . S
C586 C585 1.362 . S
C586 C589 1.409 . S
C587 H579 0.930 . S
C587 C588 1.355 . S
C587 C589 1.415 . S
C588 C587 1.355 . S
C588 C590 1.419 . S
C589 C584 1.425 . S
C589 C586 1.409 . S
C589 C587 1.415 . S
C590 H580 0.930 . S
C590 C588 1.419 . S
C590 C591 1.362 . S
C591 H581 0.930 . S
C591 C584 1.409 . S
C591 C590 1.362 . S
H592 C598 0.930 . S
H593 C601 0.930 . S
H594 C602 0.930 . S
H595 C603 0.930 . S
H596 C606 0.930 . S
H597 C607 0.930 . S
C598 H592 0.930 . S
C598 C599 1.355 . S
C598 C600 1.415 . S
C599 C598 1.355 . S
C599 C601 1.419 . S
C600 C598 1.415 . S
C600 C605 1.425 . S
C600 C607 1.409 . S
C601 H593 0.930 . S
C601 C599 1.419 . S
C601 C602 1.362 . S
C602 H594 0.930 . S
C602 C601 1.362 . S
C602 C605 1.409 . S
C603 H595 0.930 . S
C603 C604 1.355 . S
C603 C605 1.415 . S
C604 C603 1.355 . S
C604 C606 1.419 . S
C605 C600 1.425 . S
C605 C602 1.409 . S
C605 C603 1.415 . S
C606 H596 0.930 . S
C606 C604 1.419 . S
C606 C607 1.362 . S
C607 H597 0.930 . S
C607 C600 1.409 . S
C607 C606 1.362 . S
H608 C614 0.930 . S
H609 C617 0.930 . S
H610 C618 0.930 . S
H611 C619 0.930 . S
H612 C622 0.930 . S
H613 C623 0.930 . S
C614 H608 0.930 . S
C614 C615 1.355 . S
C614 C616 1.415 . S
C615 C614 1.355 . S
C615 C617 1.419 . S
C616 C614 1.415 . S
C616 C621 1.425 . S
C616 C623 1.409 . S
C617 H609 0.930 . S
C617 C615 1.419 . S
C617 C618 1.362 . S
C618 H610 0.930 . S
C618 C617 1.362 . S
C618 C621 1.409 . S
C619 H611 0.930 . S
C619 C620 1.355 . S
C619 C621 1.415 . S
C620 C619 1.355 . S
C620 C622 1.419 . S
C621 C616 1.425 . S
C621 C618 1.409 . S
C621 C619 1.415 . S
C622 H612 0.930 . S
C622 C620 1.419 . S
C622 C623 1.362 . S
C623 H613 0.930 . S
C623 C616 1.409 . S
C623 C622 1.362 . S
H624 C630 0.930 . S
H625 C633 0.930 . S
H626 C634 0.930 . S
H627 C635 0.930 . S
H628 C638 0.930 . S
H629 C639 0.930 . S
C630 H624 0.930 . S
C630 C631 1.355 . S
C630 C632 1.415 . S
C631 C630 1.355 . S
C631 C633 1.419 . S
C632 C630 1.415 . S
C632 C637 1.425 . S
C632 C639 1.409 . S
C633 H625 0.930 . S
C633 C631 1.419 . S
C633 C634 1.362 . S
C634 H626 0.930 . S
C634 C633 1.362 . S
C634 C637 1.409 . S
C635 H627 0.930 . S
C635 C636 1.355 . S
C635 C637 1.415 . S
C636 C635 1.355 . S
C636 C638 1.419 . S
C637 C632 1.425 . S
C637 C634 1.409 . S
C637 C635 1.415 . S
C638 H628 0.930 . S
C638 C636 1.419 . S
C638 C639 1.362 . S
C639 H629 0.930 . S
C639 C632 1.409 . S
C639 C638 1.362 . S
H640 C646 0.930 . S
H641 C649 0.930 . S
H642 C650 0.930 . S
H643 C651 0.930 . S
H644 C654 0.930 . S
H645 C655 0.930 . S
C646 H640 0.930 . S
C646 C647 1.355 . S
C646 C648 1.415 . S
C647 C646 1.355 . S
C647 C649 1.419 . S
C648 C646 1.415 . S
C648 C653 1.425 . S
C648 C655 1.409 . S
C649 H641 0.930 . S
C649 C647 1.419 . S
C649 C650 1.362 . S
C650 H642 0.930 . S
C650 C649 1.362 . S
C650 C653 1.409 . S
C651 H643 0.930 . S
C651 C652 1.355 . S
C651 C653 1.415 . S
C652 C651 1.355 . S
C652 C654 1.419 . S
C653 C648 1.425 . S
C653 C650 1.409 . S
C653 C651 1.415 . S
C654 H644 0.930 . S
C654 C652 1.419 . S
C654 C655 1.362 . S
C655 H645 0.930 . S
C655 C648 1.409 . S
C655 C654 1.362 . S
H656 C662 0.930 . S
H657 C665 0.930 . S
H658 C666 0.930 . S
H659 C667 0.930 . S
H660 C670 0.930 . S
H661 C671 0.930 . S
C662 H656 0.930 . S
C662 C663 1.355 . S
C662 C664 1.415 . S
C663 C662 1.355 . S
C663 C665 1.419 . S
C664 C662 1.415 . S
C664 C669 1.425 . S
C664 C671 1.409 . S
C665 H657 0.930 . S
C665 C663 1.419 . S
C665 C666 1.362 . S
C666 H658 0.930 . S
C666 C665 1.362 . S
C666 C669 1.409 . S
C667 H659 0.930 . S
C667 C668 1.355 . S
C667 C669 1.415 . S
C668 C667 1.355 . S
C668 C670 1.419 . S
C669 C664 1.425 . S
C669 C666 1.409 . S
C669 C667 1.415 . S
C670 H660 0.930 . S
C670 C668 1.419 . S
C670 C671 1.362 . S
C671 H661 0.930 . S
C671 C664 1.409 . S
C671 C670 1.362 . S
H672 C678 0.930 . S
H673 C681 0.930 . S
H674 C682 0.930 . S
H675 C683 0.930 . S
H676 C686 0.930 . S
H677 C687 0.930 . S
C678 H672 0.930 . S
C678 C679 1.355 . S
C678 C680 1.415 . S
C679 C678 1.355 . S
C679 C681 1.419 . S
C680 C678 1.415 . S
C680 C685 1.425 . S
C680 C687 1.409 . S
C681 H673 0.930 . S
C681 C679 1.419 . S
C681 C682 1.362 . S
C682 H674 0.930 . S
C682 C681 1.362 . S
C682 C685 1.409 . S
C683 H675 0.930 . S
C683 C684 1.355 . S
C683 C685 1.415 . S
C684 C683 1.355 . S
C684 C686 1.419 . S
C685 C680 1.425 . S
C685 C682 1.409 . S
C685 C683 1.415 . S
C686 H676 0.930 . S
C686 C684 1.419 . S
C686 C687 1.362 . S
C687 H677 0.930 . S
C687 C680 1.409 . S
C687 C686 1.362 . S
H688 C694 0.930 . S
H689 C697 0.930 . S
H690 C698 0.930 . S
H691 C699 0.930 . S
H692 C702 0.930 . S
H693 C703 0.930 . S
C694 H688 0.930 . S
C694 C695 1.355 . S
C694 C696 1.415 . S
C695 C694 1.355 . S
C695 C697 1.419 . S
C696 C694 1.415 . S
C696 C701 1.425 . S
C696 C703 1.409 . S
C697 H689 0.930 . S
C697 C695 1.419 . S
C697 C698 1.362 . S
C698 H690 0.930 . S
C698 C697 1.362 . S
C698 C701 1.409 . S
C699 H691 0.930 . S
C699 C700 1.355 . S
C699 C701 1.415 . S
C700 C699 1.355 . S
C700 C702 1.419 . S
C701 C696 1.425 . S
C701 C698 1.409 . S
C701 C699 1.415 . S
C702 H692 0.930 . S
C702 C700 1.419 . S
C702 C703 1.362 . S
C703 H693 0.930 . S
C703 C696 1.409 . S
C703 C702 1.362 . S
H704 C710 0.930 . S
H705 C713 0.930 . S
H706 C714 0.930 . S
H707 C715 0.930 . S
H708 C718 0.930 . S
H709 C719 0.930 . S
C710 H704 0.930 . S
C710 C711 1.355 . S
C710 C712 1.415 . S
C711 C710 1.355 . S
C711 C713 1.419 . S
C712 C710 1.415 . S
C712 C717 1.425 . S
C712 C719 1.409 . S
C713 H705 0.930 . S
C713 C711 1.419 . S
C713 C714 1.362 . S
C714 H706 0.930 . S
C714 C713 1.362 . S
C714 C717 1.409 . S
C715 H707 0.930 . S
C715 C716 1.355 . S
C715 C717 1.415 . S
C716 C715 1.355 . S
C716 C718 1.419 . S
C717 C712 1.425 . S
C717 C714 1.409 . S
C717 C715 1.415 . S
C718 H708 0.930 . S
C718 C716 1.419 . S
C718 C719 1.362 . S
C719 H709 0.930 . S
C719 C712 1.409 . S
C719 C718 1.362 . S
H720 C726 0.930 . S
H721 C729 0.930 . S
H722 C730 0.930 . S
H723 C731 0.930 . S
H724 C734 0.930 . S
H725 C735 0.930 . S
C726 H720 0.930 . S
C726 C727 1.355 . S
C726 C728 1.415 . S
C727 C726 1.355 . S
C727 C729 1.419 . S
C728 C726 1.415 . S
C728 C733 1.425 . S
C728 C735 1.409 . S
C729 H721 0.930 . S
C729 C727 1.419 . S
C729 C730 1.362 . S
C730 H722 0.930 . S
C730 C729 1.362 . S
C730 C733 1.409 . S
C731 H723 0.930 . S
C731 C732 1.355 . S
C731 C733 1.415 . S
C732 C731 1.355 . S
C732 C734 1.419 . S
C733 C728 1.425 . S
C733 C730 1.409 . S
C733 C731 1.415 . S
C734 H724 0.930 . S
C734 C732 1.419 . S
C734 C735 1.362 . S
C735 H725 0.930 . S
C735 C728 1.409 . S
C735 C734 1.362 . S
H736 C742 0.930 . S
H737 C745 0.930 . S
H738 C746 0.930 . S
H739 C747 0.930 . S
H740 C750 0.930 1_556 S
H741 C751 0.930 1_556 S
C742 H736 0.930 . S
C742 C743 1.355 . S
C742 C744 1.415 . S
C743 C742 1.355 . S
C743 C745 1.419 . S
C744 C742 1.415 . S
C744 C749 1.425 1_455 S
C744 C751 1.409 1_455 S
C745 H737 0.930 . S
C745 C743 1.419 . S
C745 C746 1.362 . S
C746 H738 0.930 . S
C746 C745 1.362 . S
C746 C749 1.409 1_455 S
C747 H739 0.930 . S
C747 C748 1.355 . S
C747 C749 1.415 . S
C748 C747 1.355 . S
C748 C750 1.419 . S
C749 C744 1.425 1_655 S
C749 C746 1.409 1_655 S
C749 C747 1.415 . S
C750 H740 0.930 1_554 S
C750 C748 1.419 . S
C750 C751 1.362 . S
C751 H741 0.930 1_554 S
C751 C744 1.409 1_655 S
C751 C750 1.362 . S
H752 C758 0.930 . S
H753 C761 0.930 . S
H754 C762 0.930 . S
H755 C763 0.930 . S
H756 C766 0.930 . S
H757 C767 0.930 . S
C758 H752 0.930 . S
C758 C759 1.355 . S
C758 C760 1.415 . S
C759 C758 1.355 . S
C759 C761 1.419 . S
C760 C758 1.415 . S
C760 C765 1.425 . S
C760 C767 1.409 . S
C761 H753 0.930 . S
C761 C759 1.419 . S
C761 C762 1.362 . S
C762 H754 0.930 . S
C762 C761 1.362 . S
C762 C765 1.409 . S
C763 H755 0.930 . S
C763 C764 1.355 . S
C763 C765 1.415 . S
C764 C763 1.355 . S
C764 C766 1.419 . S
C765 C760 1.425 . S
C765 C762 1.409 . S
C765 C763 1.415 . S
C766 H756 0.930 . S
C766 C764 1.419 . S
C766 C767 1.362 . S
C767 H757 0.930 . S
C767 C760 1.409 . S
C767 C766 1.362 . S
H768 C774 0.930 . S
H769 C777 0.930 . S
H770 C778 0.930 . S
H771 C779 0.930 . S
H772 C782 0.930 . S
H773 C783 0.930 . S
C774 H768 0.930 . S
C774 C775 1.355 . S
C774 C776 1.415 . S
C775 C774 1.355 . S
C775 C777 1.419 . S
C776 C774 1.415 . S
C776 C781 1.425 1_655 S
C776 C783 1.409 1_655 S
C777 H769 0.930 . S
C777 C775 1.419 . S
C777 C778 1.362 . S
C778 H770 0.930 . S
C778 C777 1.362 . S
C778 C781 1.409 1_655 S
C779 H771 0.930 . S
C779 C780 1.355 . S
C779 C781 1.415 . S
C780 C779 1.355 . S
C780 C782 1.419 . S
C781 C776 1.425 1_455 S
C781 C778 1.409 1_455 S
C781 C779 1.415 . S
C782 H772 0.930 . S
C782 C780 1.419 . S
C782 C783 1.362 . S
C783 H773 0.930 . S
C783 C776 1.409 1_455 S
C783 C782 1.362 . S
H784 C790 0.930 . S
H785 C793 0.930 . S
H786 C794 0.930 . S
H787 C795 0.930 . S
H788 C798 0.930 . S
H789 C799 0.930 . S
C790 H784 0.930 . S
C790 C791 1.355 . S
C790 C792 1.415 . S
C791 C790 1.355 . S
C791 C793 1.419 . S
C792 C790 1.415 . S
C792 C797 1.425 . S
C792 C799 1.409 . S
C793 H785 0.930 . S
C793 C791 1.419 . S
C793 C794 1.362 . S
C794 H786 0.930 . S
C794 C793 1.362 . S
C794 C797 1.409 . S
C795 H787 0.930 . S
C795 C796 1.355 . S
C795 C797 1.415 . S
C796 C795 1.355 . S
C796 C798 1.419 . S
C797 C792 1.425 . S
C797 C794 1.409 . S
C797 C795 1.415 . S
C798 H788 0.930 . S
C798 C796 1.419 . S
C798 C799 1.362 . S
C799 H789 0.930 . S
C799 C792 1.409 . S
C799 C798 1.362 . S
H800 C806 0.930 . S
H801 C809 0.930 . S
H802 C810 0.930 . S
H803 C811 0.930 . S
H804 C814 0.930 . S
H805 C815 0.930 . S
C806 H800 0.930 . S
C806 C807 1.355 . S
C806 C808 1.415 . S
C807 C806 1.355 . S
C807 C809 1.419 . S
C808 C806 1.415 . S
C808 C813 1.425 . S
C808 C815 1.409 . S
C809 H801 0.930 . S
C809 C807 1.419 . S
C809 C810 1.362 . S
C810 H802 0.930 . S
C810 C809 1.362 . S
C810 C813 1.409 . S
C811 H803 0.930 . S
C811 C812 1.355 . S
C811 C813 1.415 . S
C812 C811 1.355 . S
C812 C814 1.419 . S
C813 C808 1.425 . S
C813 C810 1.409 . S
C813 C811 1.415 . S
C814 H804 0.930 . S
C814 C812 1.419 . S
C814 C815 1.362 . S
C815 H805 0.930 . S
C815 C808 1.409 . S
C815 C814 1.362 . S
H816 C822 0.930 . S
H817 C825 0.930 . S
H818 C826 0.930 . S
H819 C827 0.930 . S
H820 C830 0.930 . S
H821 C831 0.930 . S
C822 H816 0.930 . S
C822 C823 1.355 . S
C822 C824 1.415 . S
C823 C822 1.355 . S
C823 C825 1.419 . S
C824 C822 1.415 . S
C824 C829 1.425 1_655 S
C824 C831 1.409 1_655 S
C825 H817 0.930 . S
C825 C823 1.419 . S
C825 C826 1.362 . S
C826 H818 0.930 . S
C826 C825 1.362 . S
C826 C829 1.409 1_655 S
C827 H819 0.930 . S
C827 C828 1.355 . S
C827 C829 1.415 . S
C828 C827 1.355 . S
C828 C830 1.419 . S
C829 C824 1.425 1_455 S
C829 C826 1.409 1_455 S
C829 C827 1.415 . S
C830 H820 0.930 . S
C830 C828 1.419 . S
C830 C831 1.362 . S
C831 H821 0.930 . S
C831 C824 1.409 1_455 S
C831 C830 1.362 . S
H832 C838 0.930 . S
H833 C841 0.930 1_554 S
H834 C842 0.930 1_554 S
H835 C843 0.930 . S
H836 C846 0.930 . S
H837 C847 0.930 . S
C838 H832 0.930 . S
C838 C839 1.355 . S
C838 C840 1.415 . S
C839 C838 1.355 . S
C839 C841 1.419 . S
C840 C838 1.415 . S
C840 C845 1.425 . S
C840 C847 1.409 . S
C841 H833 0.930 1_556 S
C841 C839 1.419 . S
C841 C842 1.362 . S
C842 H834 0.930 1_556 S
C842 C841 1.362 . S
C842 C845 1.409 . S
C843 H835 0.930 . S
C843 C844 1.355 . S
C843 C845 1.415 . S
C844 C843 1.355 . S
C844 C846 1.419 . S
C845 C840 1.425 . S
C845 C842 1.409 . S
C845 C843 1.415 . S
C846 H836 0.930 . S
C846 C844 1.419 . S
C846 C847 1.362 . S
C847 H837 0.930 . S
C847 C840 1.409 . S
C847 C846 1.362 . S
H848 C854 0.930 . S
H849 C857 0.930 . S
H850 C858 0.930 . S
H851 C859 0.930 . S
H852 C862 0.930 . S
H853 C863 0.930 . S
C854 H848 0.930 . S
C854 C855 1.355 . S
C854 C856 1.415 . S
C855 C854 1.355 . S
C855 C857 1.419 . S
C856 C854 1.415 . S
C856 C861 1.425 1_455 S
C856 C863 1.409 1_455 S
C857 H849 0.930 . S
C857 C855 1.419 . S
C857 C858 1.362 . S
C858 H850 0.930 . S
C858 C857 1.362 . S
C858 C861 1.409 1_455 S
C859 H851 0.930 . S
C859 C860 1.355 . S
C859 C861 1.415 . S
C860 C859 1.355 . S
C860 C862 1.419 . S
C861 C856 1.425 1_655 S
C861 C858 1.409 1_655 S
C861 C859 1.415 . S
C862 H852 0.930 . S
C862 C860 1.419 . S
C862 C863 1.362 . S
C863 H853 0.930 . S
C863 C856 1.409 1_655 S
C863 C862 1.362 . S
H864 C870 0.930 . S
H865 C873 0.930 . S
H866 C874 0.930 . S
H867 C875 0.930 . S
H868 C878 0.930 . S
H869 C879 0.930 . S
C870 H864 0.930 . S
C870 C871 1.355 1_556 S
C870 C872 1.415 . S
C871 C870 1.355 1_554 S
C871 C873 1.419 . S
C872 C870 1.415 . S
C872 C877 1.425 1_546 S
C872 C879 1.409 1_545 S
C873 H865 0.930 . S
C873 C871 1.419 . S
C873 C874 1.362 . S
C874 H866 0.930 . S
C874 C873 1.362 . S
C874 C877 1.409 1_545 S
C875 H867 0.930 . S
C875 C876 1.355 1_554 S
C875 C877 1.415 . S
C876 C875 1.355 1_556 S
C876 C878 1.419 . S
C877 C872 1.425 1_564 S
C877 C874 1.409 1_565 S
C877 C875 1.415 . S
C878 H868 0.930 . S
C878 C876 1.419 . S
C878 C879 1.362 . S
C879 H869 0.930 . S
C879 C872 1.409 1_565 S
C879 C878 1.362 . S
H880 C886 0.930 . S
H881 C889 0.930 . S
H882 C890 0.930 . S
H883 C891 0.930 . S
H884 C894 0.930 . S
H885 C895 0.930 . S
C886 H880 0.930 . S
C886 C887 1.355 . S
C886 C888 1.415 . S
C887 C886 1.355 . S
C887 C889 1.419 . S
C888 C886 1.415 . S
C888 C893 1.425 1_565 S
C888 C895 1.409 1_565 S
C889 H881 0.930 . S
C889 C887 1.419 . S
C889 C890 1.362 . S
C890 H882 0.930 . S
C890 C889 1.362 . S
C890 C893 1.409 1_565 S
C891 H883 0.930 . S
C891 C892 1.355 . S
C891 C893 1.415 . S
C892 C891 1.355 . S
C892 C894 1.419 . S
C893 C888 1.425 1_545 S
C893 C890 1.409 1_545 S
C893 C891 1.415 . S
C894 H884 0.930 . S
C894 C892 1.419 . S
C894 C895 1.362 . S
C895 H885 0.930 . S
C895 C888 1.409 1_545 S
C895 C894 1.362 . S
H896 C902 0.930 . S
H897 C905 0.930 . S
H898 C906 0.930 . S
H899 C907 0.930 . S
H900 C910 0.930 . S
H901 C911 0.930 . S
C902 H896 0.930 . S
C902 C903 1.355 . S
C902 C904 1.415 . S
C903 C902 1.355 . S
C903 C905 1.419 1_554 S
C904 C902 1.415 . S
C904 C909 1.425 1_544 S
C904 C911 1.409 1_545 S
C905 H897 0.930 . S
C905 C903 1.419 1_556 S
C905 C906 1.362 . S
C906 H898 0.930 . S
C906 C905 1.362 . S
C906 C909 1.409 1_545 S
C907 H899 0.930 . S
C907 C908 1.355 . S
C907 C909 1.415 . S
C908 C907 1.355 . S
C908 C910 1.419 1_556 S
C909 C904 1.425 1_566 S
C909 C906 1.409 1_565 S
C909 C907 1.415 . S
C910 H900 0.930 . S
C910 C908 1.419 1_554 S
C910 C911 1.362 . S
C911 H901 0.930 . S
C911 C904 1.409 1_565 S
C911 C910 1.362 . S
H912 C918 0.930 . S
H913 C921 0.930 . S
H914 C922 0.930 1_565 S
H915 C923 0.930 . S
H916 C926 0.930 . S
H917 C927 0.930 1_545 S
C918 H912 0.930 . S
C918 C919 1.355 . S
C918 C920 1.415 . S
C919 C918 1.355 . S
C919 C921 1.419 . S
C920 C918 1.415 . S
C920 C925 1.425 1_545 S
C920 C927 1.409 1_545 S
C921 H913 0.930 . S
C921 C919 1.419 . S
C921 C922 1.362 . S
C922 H914 0.930 1_545 S
C922 C921 1.362 . S
C922 C925 1.409 1_545 S
C923 H915 0.930 . S
C923 C924 1.355 . S
C923 C925 1.415 . S
C924 C923 1.355 . S
C924 C926 1.419 . S
C925 C920 1.425 1_565 S
C925 C922 1.409 1_565 S
C925 C923 1.415 . S
C926 H916 0.930 . S
C926 C924 1.419 . S
C926 C927 1.362 . S
C927 H917 0.930 1_565 S
C927 C920 1.409 1_565 S
C927 C926 1.362 . S
H928 C934 0.930 . S
H929 C937 0.930 . S
H930 C938 0.930 . S
H931 C939 0.930 . S
H932 C942 0.930 . S
H933 C943 0.930 . S
C934 H928 0.930 . S
C934 C935 1.355 1_556 S
C934 C936 1.415 . S
C935 C934 1.355 1_554 S
C935 C937 1.419 . S
C936 C934 1.415 . S
C936 C941 1.425 1_556 S
C936 C943 1.409 . S
C937 H929 0.930 . S
C937 C935 1.419 . S
C937 C938 1.362 . S
C938 H930 0.930 . S
C938 C937 1.362 . S
C938 C941 1.409 . S
C939 H931 0.930 . S
C939 C940 1.355 1_554 S
C939 C941 1.415 . S
C940 C939 1.355 1_556 S
C940 C942 1.419 . S
C941 C936 1.425 1_554 S
C941 C938 1.409 . S
C941 C939 1.415 . S
C942 H932 0.930 . S
C942 C940 1.419 . S
C942 C943 1.362 . S
C943 H933 0.930 . S
C943 C936 1.409 . S
C943 C942 1.362 . S
H944 C950 0.930 . S
H945 C953 0.930 . S
H946 C954 0.930 . S
H947 C955 0.930 . S
H948 C958 0.930 . S
H949 C959 0.930 . S
C950 H944 0.930 . S
C950 C951 1.355 . S
C950 C952 1.415 . S
C951 C950 1.355 . S
C951 C953 1.419 . S
C952 C950 1.415 . S
C952 C957 1.425 . S
C952 C959 1.409 . S
C953 H945 0.930 . S
C953 C951 1.419 . S
C953 C954 1.362 . S
C954 H946 0.930 . S
C954 C953 1.362 . S
C954 C957 1.409 . S
C955 H947 0.930 . S
C955 C956 1.355 . S
C955 C957 1.415 . S
C956 C955 1.355 . S
C956 C958 1.419 . S
C957 C952 1.425 . S
C957 C954 1.409 . S
C957 C955 1.415 . S
C958 H948 0.930 . S
C958 C956 1.419 . S
C958 C959 1.362 . S
C959 H949 0.930 . S
C959 C952 1.409 . S
C959 C958 1.362 . S
H960 C966 0.930 . S
H961 C969 0.930 . S
H962 C970 0.930 . S
H963 C971 0.930 . S
H964 C974 0.930 . S
H965 C975 0.930 . S
C966 H960 0.930 . S
C966 C967 1.355 1_554 S
C966 C968 1.415 . S
C967 C966 1.355 1_556 S
C967 C969 1.419 . S
C968 C966 1.415 . S
C968 C973 1.425 1_554 S
C968 C975 1.409 . S
C969 H961 0.930 . S
C969 C967 1.419 . S
C969 C970 1.362 . S
C970 H962 0.930 . S
C970 C969 1.362 . S
C970 C973 1.409 . S
C971 H963 0.930 . S
C971 C972 1.355 1_556 S
C971 C973 1.415 . S
C972 C971 1.355 1_554 S
C972 C974 1.419 . S
C973 C968 1.425 1_556 S
C973 C970 1.409 . S
C973 C971 1.415 . S
C974 H964 0.930 . S
C974 C972 1.419 . S
C974 C975 1.362 . S
C975 H965 0.930 . S
C975 C968 1.409 . S
C975 C974 1.362 . S
H976 C982 0.930 . S
H977 C985 0.930 . S
H978 C986 0.930 . S
H979 C987 0.930 . S
H980 C990 0.930 . S
H981 C991 0.930 . S
C982 H976 0.930 . S
C982 C983 1.355 . S
C982 C984 1.415 . S
C983 C982 1.355 . S
C983 C985 1.419 . S
C984 C982 1.415 . S
C984 C989 1.425 . S
C984 C991 1.409 . S
C985 H977 0.930 . S
C985 C983 1.419 . S
C985 C986 1.362 . S
C986 H978 0.930 . S
C986 C985 1.362 . S
C986 C989 1.409 . S
C987 H979 0.930 . S
C987 C988 1.355 . S
C987 C989 1.415 . S
C988 C987 1.355 . S
C988 C990 1.419 . S
C989 C984 1.425 . S
C989 C986 1.409 . S
C989 C987 1.415 . S
C990 H980 0.930 . S
C990 C988 1.419 . S
C990 C991 1.362 . S
C991 H981 0.930 . S
C991 C984 1.409 . S
C991 C990 1.362 . S
H992 C998 0.930 . S
H993 C1001 0.930 . S
H994 C1002 0.930 . S
H995 C1003 0.930 . S
H996 C1006 0.930 . S
H997 C1007 0.930 . S
C998 H992 0.930 . S
C998 C999 1.355 . S
C998 C1000 1.415 . S
C999 C998 1.355 . S
C999 C1001 1.419 . S
C1000 C998 1.415 . S
C1000 C1005 1.425 1_554 S
C1000 C1007 1.409 . S
C1001 H993 0.930 . S
C1001 C999 1.419 . S
C1001 C1002 1.362 1_554 S
C1002 H994 0.930 . S
C1002 C1001 1.362 1_556 S
C1002 C1005 1.409 . S
C1003 H995 0.930 . S
C1003 C1004 1.355 . S
C1003 C1005 1.415 . S
C1004 C1003 1.355 . S
C1004 C1006 1.419 . S
C1005 C1000 1.425 1_556 S
C1005 C1002 1.409 . S
C1005 C1003 1.415 . S
C1006 H996 0.930 . S
C1006 C1004 1.419 . S
C1006 C1007 1.362 1_556 S
C1007 H997 0.930 . S
C1007 C1000 1.409 . S
C1007 C1006 1.362 1_554 S
H1008 C1014 0.930 . S
H1009 C1017 0.930 . S
H1010 C1018 0.930 . S
H1011 C1019 0.930 . S
H1012 C1022 0.930 . S
H1013 C1023 0.930 . S
C1014 H1008 0.930 . S
C1014 C1015 1.355 . S
C1014 C1016 1.415 . S
C1015 C1014 1.355 . S
C1015 C1017 1.419 . S
C1016 C1014 1.415 . S
C1016 C1021 1.425 . S
C1016 C1023 1.409 . S
C1017 H1009 0.930 . S
C1017 C1015 1.419 . S
C1017 C1018 1.362 . S
C1018 H1010 0.930 . S
C1018 C1017 1.362 . S
C1018 C1021 1.409 . S
C1019 H1011 0.930 . S
C1019 C1020 1.355 . S
C1019 C1021 1.415 . S
C1020 C1019 1.355 . S
C1020 C1022 1.419 . S
C1021 C1016 1.425 . S
C1021 C1018 1.409 . S
C1021 C1019 1.415 . S
C1022 H1012 0.930 . S
C1022 C1020 1.419 . S
C1022 C1023 1.362 . S
C1023 H1013 0.930 . S
C1023 C1016 1.409 . S
C1023 C1022 1.362 . S
H1024 C1030 0.930 . S
H1025 C1033 0.930 . S
H1026 C1034 0.930 . S
H1027 C1035 0.930 . S
H1028 C1038 0.930 . S
H1029 C1039 0.930 . S
C1030 H1024 0.930 . S
C1030 C1031 1.355 . S
C1030 C1032 1.415 . S
C1031 C1030 1.355 . S
C1031 C1033 1.419 1_556 S
C1032 C1030 1.415 . S
C1032 C1037 1.425 1_556 S
C1032 C1039 1.409 . S
C1033 H1025 0.930 . S
C1033 C1031 1.419 1_554 S
C1033 C1034 1.362 . S
C1034 H1026 0.930 . S
C1034 C1033 1.362 . S
C1034 C1037 1.409 . S
C1035 H1027 0.930 . S
C1035 C1036 1.355 . S
C1035 C1037 1.415 . S
C1036 C1035 1.355 . S
C1036 C1038 1.419 1_554 S
C1037 C1032 1.425 1_554 S
C1037 C1034 1.409 . S
C1037 C1035 1.415 . S
C1038 H1028 0.930 . S
C1038 C1036 1.419 1_556 S
C1038 C1039 1.362 . S
C1039 H1029 0.930 . S
C1039 C1032 1.409 . S
C1039 C1038 1.362 . S
H1040 C1046 0.930 . S
H1041 C1049 0.930 . S
H1042 C1050 0.930 . S
H1043 C1051 0.930 . S
H1044 C1054 0.930 . S
H1045 C1055 0.930 . S
C1046 H1040 0.930 . S
C1046 C1047 1.355 . S
C1046 C1048 1.415 . S
C1047 C1046 1.355 . S
C1047 C1049 1.419 . S
C1048 C1046 1.415 . S
C1048 C1053 1.425 . S
C1048 C1055 1.409 . S
C1049 H1041 0.930 . S
C1049 C1047 1.419 . S
C1049 C1050 1.362 . S
C1050 H1042 0.930 . S
C1050 C1049 1.362 . S
C1050 C1053 1.409 . S
C1051 H1043 0.930 . S
C1051 C1052 1.355 . S
C1051 C1053 1.415 . S
C1052 C1051 1.355 . S
C1052 C1054 1.419 . S
C1053 C1048 1.425 . S
C1053 C1050 1.409 . S
C1053 C1051 1.415 . S
C1054 H1044 0.930 . S
C1054 C1052 1.419 . S
C1054 C1055 1.362 . S
C1055 H1045 0.930 . S
C1055 C1048 1.409 . S
C1055 C1054 1.362 . S
H1056 C1062 0.930 . S
H1057 C1065 0.930 . S
H1058 C1066 0.930 . S
H1059 C1067 0.930 . S
H1060 C1070 0.930 . S
H1061 C1071 0.930 . S
C1062 H1056 0.930 . S
C1062 C1063 1.355 . S
C1062 C1064 1.415 . S
C1063 C1062 1.355 . S
C1063 C1065 1.419 1_556 S
C1064 C1062 1.415 . S
C1064 C1069 1.425 1_556 S
C1064 C1071 1.409 . S
C1065 H1057 0.930 . S
C1065 C1063 1.419 1_554 S
C1065 C1066 1.362 . S
C1066 H1058 0.930 . S
C1066 C1065 1.362 . S
C1066 C1069 1.409 . S
C1067 H1059 0.930 . S
C1067 C1068 1.355 . S
C1067 C1069 1.415 . S
C1068 C1067 1.355 . S
C1068 C1070 1.419 1_554 S
C1069 C1064 1.425 1_554 S
C1069 C1066 1.409 . S
C1069 C1067 1.415 . S
C1070 H1060 0.930 . S
C1070 C1068 1.419 1_556 S
C1070 C1071 1.362 . S
C1071 H1061 0.930 . S
C1071 C1064 1.409 . S
C1071 C1070 1.362 . S
H1072 C1078 0.930 . S
H1073 C1081 0.930 . S
H1074 C1082 0.930 . S
H1075 C1083 0.930 . S
H1076 C1086 0.930 . S
H1077 C1087 0.930 . S
C1078 H1072 0.930 . S
C1078 C1079 1.355 . S
C1078 C1080 1.415 . S
C1079 C1078 1.355 . S
C1079 C1081 1.419 . S
C1080 C1078 1.415 . S
C1080 C1085 1.425 . S
C1080 C1087 1.409 . S
C1081 H1073 0.930 . S
C1081 C1079 1.419 . S
C1081 C1082 1.362 . S
C1082 H1074 0.930 . S
C1082 C1081 1.362 . S
C1082 C1085 1.409 . S
C1083 H1075 0.930 . S
C1083 C1084 1.355 . S
C1083 C1085 1.415 . S
C1084 C1083 1.355 . S
C1084 C1086 1.419 . S
C1085 C1080 1.425 . S
C1085 C1082 1.409 . S
C1085 C1083 1.415 . S
C1086 H1076 0.930 . S
C1086 C1084 1.419 . S
C1086 C1087 1.362 . S
C1087 H1077 0.930 . S
C1087 C1080 1.409 . S
C1087 C1086 1.362 . S
H1088 C1094 0.930 1_554 S
H1089 C1097 0.930 . S
H1090 C1098 0.930 . S
H1091 C1099 0.930 1_556 S
H1092 C1102 0.930 . S
H1093 C1103 0.930 . S
C1094 H1088 0.930 1_556 S
C1094 C1095 1.355 . S
C1094 C1096 1.415 1_556 S
C1095 C1094 1.355 . S
C1095 C1097 1.419 . S
C1096 C1094 1.415 1_554 S
C1096 C1101 1.425 1_554 S
C1096 C1103 1.409 . S
C1097 H1089 0.930 . S
C1097 C1095 1.419 . S
C1097 C1098 1.362 . S
C1098 H1090 0.930 . S
C1098 C1097 1.362 . S
C1098 C1101 1.409 . S
C1099 H1091 0.930 1_554 S
C1099 C1100 1.355 . S
C1099 C1101 1.415 1_554 S
C1100 C1099 1.355 . S
C1100 C1102 1.419 . S
C1101 C1096 1.425 1_556 S
C1101 C1098 1.409 . S
C1101 C1099 1.415 1_556 S
C1102 H1092 0.930 . S
C1102 C1100 1.419 . S
C1102 C1103 1.362 . S
C1103 H1093 0.930 . S
C1103 C1096 1.409 . S
C1103 C1102 1.362 . S
H1104 C1110 0.930 . S
H1105 C1113 0.930 . S
H1106 C1114 0.930 . S
H1107 C1115 0.930 . S
H1108 C1118 0.930 . S
H1109 C1119 0.930 . S
C1110 H1104 0.930 . S
C1110 C1111 1.355 . S
C1110 C1112 1.415 . S
C1111 C1110 1.355 . S
C1111 C1113 1.419 . S
C1112 C1110 1.415 . S
C1112 C1117 1.425 . S
C1112 C1119 1.409 . S
C1113 H1105 0.930 . S
C1113 C1111 1.419 . S
C1113 C1114 1.362 . S
C1114 H1106 0.930 . S
C1114 C1113 1.362 . S
C1114 C1117 1.409 . S
C1115 H1107 0.930 . S
C1115 C1116 1.355 . S
C1115 C1117 1.415 . S
C1116 C1115 1.355 . S
C1116 C1118 1.419 . S
C1117 C1112 1.425 . S
C1117 C1114 1.409 . S
C1117 C1115 1.415 . S
C1118 H1108 0.930 . S
C1118 C1116 1.419 . S
C1118 C1119 1.362 . S
C1119 H1109 0.930 . S
C1119 C1112 1.409 . S
C1119 C1118 1.362 . S
C359 C8 1.604 . S
C364 C70 1.610 . S
C375 C52 1.599 . S
C380 C30 1.601 . S
C391 C158 1.600 . S
C396 C96 1.600 . S
C407 C114 1.608 . S
C412 C136 1.607 . S
C423 C246 1.601 . S
C428 C184 1.599 . S
C439 C228 1.601 . S
C444 C206 1.599 . S
C455 C272 1.598 . S
C460 C334 1.603 . S
C471 C312 1.605 . S
C476 C290 1.610 . S
C487 C5 1.541 . S
C492 C336 1.619 . S
C503 C27 1.456 . S
C508 C314 1.614 . S
C519 C292 1.604 . S
C524 C49 1.459 . S
C535 C271 1.625 . S
C540 C75 1.496 . S
C551 C94 1.464 . S
C556 C247 1.617 . S
C567 C117 1.487 . S
C572 C229 1.605 . S
C583 C207 1.606 . S
C588 C139 1.449 . S
C599 C185 1.616 . S
C604 C161 1.461 . S
C615 C181 1.448 . S
C620 C160 1.606 . S
C631 C203 1.539 . S
C636 C138 1.618 . S
C647 C225 1.465 . S
C652 C116 1.617 . S
C663 C251 1.544 . S
C668 C95 1.622 . S
C679 C71 1.627 . S
C684 C270 1.517 . S
C695 C53 1.627 . S
C700 C293 1.536 . S
C711 C315 1.454 . S
C716 C31 1.604 . S
C727 C337 1.545 . S
C732 C9 1.624 . S
C743 C6 1.414 . S
C748 C141 1.457 . S
C759 C28 1.459 . S
C764 C163 1.411 . S
C775 C93 1.452 . S
C780 C50 1.418 . S
C791 C73 1.425 . S
C796 C119 1.445 . S
C807 C182 1.437 . S
C812 C317 1.434 . S
C823 C204 1.436 . S
C828 C339 1.435 . S
C839 C226 1.459 . S
C844 C269 1.411 . S
C855 C295 1.411 . S
C860 C249 1.459 . S
C871 C4 1.533 . S
C876 C48 1.487 . S
C887 C26 1.532 . S
C892 C74 1.534 . S
C903 C140 1.545 . S
C908 C92 1.504 . S
C919 C118 1.485 . S
C924 C162 1.524 . S
C935 C180 1.520 . S
C940 C224 1.486 . S
C951 C250 1.545 . S
C956 C202 1.508 . S
C967 C268 1.486 . S
C972 C316 1.518 . S
C983 C294 1.514 . S
C988 C338 1.544 . S
C999 C7 0.975 . S
C1004 C273 0.975 . S
C1015 C29 1.057 . S
C1020 C291 1.057 . S
C1031 C51 1.021 . S
C1036 C313 1.021 . S
C1047 C72 1.114 . S
C1052 C335 1.114 . S
C1063 C97 0.989 . S
C1068 C183 0.989 . S
C1079 C205 1.117 . S
C1084 C115 1.117 . S
C1095 C227 1.009 . S
C1100 C137 1.009 . S
C1111 C248 1.106 . S
C1116 C159 1.106 . S
