# Generated by pormake.
# Topology afw, (4)-cn, num edge types: 1
# Building blocks:
#     Node 0, Type 0, BuildingBlock: AZAVOO_clean_sbu_0, # of connection points: 4
#     Node 1, Type 0, BuildingBlock: AZAVOO_clean_sbu_0, # of connection points: 4
#     Node 2, Type 0, BuildingBlock: AZAVOO_clean_sbu_0, # of connection points: 4
#     Node 3, Type 0, BuildingBlock: AZAVOO_clean_sbu_0, # of connection points: 4
#     Node 4, Type 0, BuildingBlock: AZAVOO_clean_sbu_0, # of connection points: 4
#     Node 5, Type 0, BuildingBlock: AZAVOO_clean_sbu_0, # of connection points: 4
#     Node 6, Type 0, BuildingBlock: AZAVOO_clean_sbu_0, # of connection points: 4
#     Node 7, Type 0, BuildingBlock: AZAVOO_clean_sbu_0, # of connection points: 4
#     Node 8, Type 0, BuildingBlock: AZAVOO_clean_sbu_0, # of connection points: 4
#     Edge 9, Type (0, 0), BuildingBlock: XUDNAN_clean_linker_2, # of connection points: 2
#     Edge 10, Type (0, 0), BuildingBlock: XUDNAN_clean_linker_2, # of connection points: 2
#     Edge 11, Type (0, 0), BuildingBlock: XUDNAN_clean_linker_2, # of connection points: 2
#     Edge 12, Type (0, 0), BuildingBlock: XUDNAN_clean_linker_2, # of connection points: 2
#     Edge 13, Type (0, 0), BuildingBlock: XUDNAN_clean_linker_2, # of connection points: 2
#     Edge 14, Type (0, 0), BuildingBlock: XUDNAN_clean_linker_2, # of connection points: 2
#     Edge 15, Type (0, 0), BuildingBlock: XUDNAN_clean_linker_2, # of connection points: 2
#     Edge 16, Type (0, 0), BuildingBlock: XUDNAN_clean_linker_2, # of connection points: 2
#     Edge 17, Type (0, 0), BuildingBlock: XUDNAN_clean_linker_2, # of connection points: 2
#     Edge 18, Type (0, 0), BuildingBlock: XUDNAN_clean_linker_2, # of connection points: 2
#     Edge 19, Type (0, 0), BuildingBlock: XUDNAN_clean_linker_2, # of connection points: 2
#     Edge 20, Type (0, 0), BuildingBlock: XUDNAN_clean_linker_2, # of connection points: 2
#     Edge 21, Type (0, 0), BuildingBlock: XUDNAN_clean_linker_2, # of connection points: 2
#     Edge 22, Type (0, 0), BuildingBlock: XUDNAN_clean_linker_2, # of connection points: 2
#     Edge 23, Type (0, 0), BuildingBlock: XUDNAN_clean_linker_2, # of connection points: 2
#     Edge 24, Type (0, 0), BuildingBlock: XUDNAN_clean_linker_2, # of connection points: 2
#     Edge 25, Type (0, 0), BuildingBlock: XUDNAN_clean_linker_2, # of connection points: 2
#     Edge 26, Type (0, 0), BuildingBlock: XUDNAN_clean_linker_2, # of connection points: 2
# Relax obj value: 0.306
# Max RMSD: 0.283
# Mean RMSD: 0.260
data_MOF--net-afw--node1-AZAVOO_clean_sbu_0--edge1-XUDNAN_clean_linker_2
_symmetry_space_group_name_H-M    P1
_symmetry_Int_Tables_number       1
_symmetry_cell_setting            triclinic
loop_
_symmetry_equiv_pos_as_xyz
'x, y, z'
_cell_length_a     39.692124
_cell_length_b     37.797738
_cell_length_c     36.72954
_cell_angle_alpha  90.001621
_cell_angle_beta   90.516447
_cell_angle_gamma 119.92697
loop_
_atom_site_label
_atom_site_type_symbol
_atom_site_fract_x
_atom_site_fract_y
_atom_site_fract_z
_atom_type_partial_charge
Mg0 Mg 0.06636 0.27497 0.00332 0.0
O1 O 0.00482 0.21894 -0.00247 0.0
O2 O 0.96364 0.24315 -0.00473 0.0
Mg3 Mg 0.99734 0.31257 0.00087 0.0
C4 C 0.97035 0.21343 -0.00507 0.0
C5 C 0.08767 0.20514 0.00444 0.0
O6 O 0.06128 0.19087 0.03005 0.0
O7 O 0.06544 0.29207 0.94415 0.0
O8 O 0.02597 0.31828 0.9456 0.0
O9 O 0.06206 0.27174 0.06391 0.0
O10 O 0.0431 0.3065 0.0292 0.0
C11 C 0.04887 0.30962 0.92858 0.0
C12 C 0.04566 0.29388 0.06109 0.0
O13 O 0.09486 0.23776 0.98812 0.0
Mg14 Mg 0.78019 0.83206 0.00182 0.0
O15 O 0.79695 0.89931 -0.0004 0.0
O16 O 0.74463 0.90154 0.9802 0.0
Mg17 Mg 0.69652 0.83692 0.96488 0.0
C18 C 0.77986 0.91927 -0.00855 0.0
C19 C 0.86624 0.86918 0.01985 0.0
O20 O 0.86586 0.88303 0.98713 0.0
O21 O 0.74109 0.81952 0.05069 0.0
O22 O 0.68793 0.81411 0.0237 0.0
O23 O 0.79932 0.83334 0.94474 0.0
O24 O 0.73984 0.81736 0.96006 0.0
C25 C 0.70528 0.80988 0.05142 0.0
C26 C 0.76397 0.82202 0.93493 0.0
O27 O 0.83413 0.84793 0.03605 0.0
Mg28 Mg 0.21527 0.96666 0.04123 0.0
O29 O 0.2108 0.0219 0.02306 0.0
O30 O 0.26843 0.07147 0.00415 0.0
Mg31 Mg 0.31122 0.04824 0.01256 0.0
C32 C 0.23234 0.05743 0.01005 0.0
C33 C 0.12972 0.91911 0.06894 0.0
O34 O 0.14813 0.92418 0.1001 0.0
O35 O 0.21988 0.94975 0.98232 0.0
O36 O 0.27976 0.99964 0.96854 0.0
O37 O 0.23076 0.99186 0.09782 0.0
O38 O 0.27368 0.00483 0.05448 0.0
C39 C 0.24829 0.96699 0.96029 0.0
C40 C 0.26653 0.01107 0.08722 0.0
O41 O 0.14917 0.93073 0.03973 0.0
Mg42 Mg 0.57584 0.54547 0.27698 0.0
O43 O 0.63098 0.546 0.25969 0.0
O44 O 0.68061 0.60924 0.25267 0.0
Mg45 Mg 0.65507 0.65091 0.26368 0.0
C46 C 0.66649 0.57063 0.25238 0.0
C47 C 0.52262 0.44638 0.29149 0.0
O48 O 0.49259 0.44507 0.27483 0.0
O49 O 0.60179 0.56723 0.33327 0.0
O50 O 0.64883 0.63155 0.32317 0.0
O51 O 0.55908 0.54635 0.21821 0.0
O52 O 0.59518 0.60105 0.25221 0.0
C53 C 0.62949 0.60152 0.34444 0.0
C54 C 0.58016 0.58568 0.2211 0.0
O55 O 0.55427 0.48004 0.29454 0.0
Mg56 Mg 0.51596 0.10877 0.32101 0.0
O57 O 0.50948 0.16452 0.33303 0.0
O58 O 0.44642 0.14534 0.33609 0.0
Mg59 Mg 0.41276 0.07573 0.33097 0.0
C60 C 0.48225 0.17288 0.33676 0.0
C61 C 0.60311 0.13268 0.33502 0.0
O62 O 0.58786 0.09283 0.33507 0.0
O63 O 0.50389 0.08897 0.37994 0.0
O64 O 0.44064 0.06862 0.38403 0.0
O65 O 0.51018 0.11794 0.26245 0.0
O66 O 0.46033 0.07915 0.29786 0.0
C67 C 0.47251 0.0741 0.39809 0.0
C68 C 0.47294 0.09635 0.26676 0.0
O69 O 0.58095 0.14774 0.33138 0.0
Mg70 Mg 0.9154 0.44682 0.27236 0.0
O71 O 0.87245 0.38179 0.2909 0.0
O72 O 0.90524 0.35244 0.31271 0.0
Mg73 Mg 0.96992 0.39964 0.30946 0.0
C74 C 0.87333 0.35133 0.30487 0.0
C75 C 0.86841 0.49389 0.26548 0.0
O76 O 0.90302 0.52606 0.27031 0.0
O77 O 0.92566 0.46824 0.33184 0.0
O78 O 0.96132 0.44026 0.34966 0.0
O79 O 0.92015 0.42291 0.21791 0.0
O80 O 0.95815 0.43073 0.26501 0.0
C81 C 0.9457 0.46209 0.35574 0.0
C82 C 0.94762 0.41821 0.23214 0.0
O83 O 0.86477 0.45853 0.26573 0.0
Mg84 Mg 0.40656 0.89987 0.71293 0.0
O85 O 0.34778 0.84927 0.68999 0.0
O86 O 0.30849 0.87582 0.68744 0.0
Mg87 Mg 0.34213 0.94281 0.70444 0.0
C88 C 0.31458 0.84591 0.68346 0.0
C89 C 0.47347 0.88702 0.69187 0.0
O90 O 0.48877 0.92683 0.69413 0.0
O91 O 0.42202 0.93221 0.65839 0.0
O92 O 0.3822 0.95794 0.65483 0.0
O93 O 0.38303 0.87881 0.76849 0.0
O94 O 0.37847 0.92696 0.73826 0.0
C95 C 0.40906 0.95263 0.64168 0.0
C96 C 0.36904 0.90323 0.76604 0.0
O97 O 0.4373 0.86452 0.69775 0.0
Mg98 Mg 0.12406 0.47522 0.60985 0.0
O99 O 0.14011 0.53826 0.63204 0.0
O100 O 0.0859 0.53718 0.64969 0.0
Mg101 Mg 0.03529 0.47204 0.64147 0.0
C102 C 0.12262 0.55603 0.6449 0.0
C103 C 0.20359 0.47685 0.62693 0.0
O104 O 0.18119 0.4437 0.64548 0.0
O105 O 0.11622 0.45008 0.667 0.0
O106 O 0.06096 0.44697 0.68417 0.0
O107 O 0.11361 0.49432 0.55596 0.0
O108 O 0.06801 0.46372 0.59746 0.0
C109 C 0.08947 0.44093 0.69024 0.0
C110 C 0.07842 0.48193 0.56654 0.0
O111 O 0.18855 0.495 0.60999 0.0
Mg112 Mg 0.57212 0.62383 0.67561 0.0
O113 O 0.57709 0.68648 0.67195 0.0
O114 O 0.63917 0.73561 0.67571 0.0
Mg115 Mg 0.67502 0.70334 0.68054 0.0
C116 C 0.60307 0.7241 0.6727 0.0
C117 C 0.47966 0.57099 0.67319 0.0
O118 O 0.48397 0.55532 0.70361 0.0
O119 O 0.59298 0.6288 0.61715 0.0
O120 O 0.65563 0.67639 0.62391 0.0
O121 O 0.57353 0.6301 0.73681 0.0
O122 O 0.6249 0.64836 0.70237 0.0
C123 C 0.62704 0.65101 0.60427 0.0
C124 C 0.61095 0.64728 0.73387 0.0
O125 O 0.50953 0.59758 0.65657 0.0
H126 H 0.16549 0.04991 0.03813 0.0
H127 H 0.26 0.12358 0.96476 0.0
H128 H 0.23088 0.16698 0.95244 0.0
H129 H 0.08874 0.05411 0.9882 0.0
H130 H 0.06546 0.05806 0.02871 0.0
H131 H 0.0929 0.03183 0.03021 0.0
H132 H 0.13507 0.0785 0.08301 0.0
H133 H 0.10797 0.10503 0.08183 0.0
H134 H 0.16009 0.13312 0.0773 0.0
H135 H 0.1921 0.20297 0.94912 0.0
H136 H 0.14891 0.23166 0.95776 0.0
H137 H 0.08078 0.13542 0.03476 0.0
C138 C 0.17989 0.07492 0.01917 0.0
C139 C 0.21487 0.08322 0.00218 0.0
C140 C 0.23317 0.11667 0.97806 0.0
C141 C 0.21677 0.14136 0.97079 0.0
C142 C 0.1823 0.13236 0.98809 0.0
C143 C 0.16426 0.10016 0.012 0.0
C144 C 0.12863 0.09831 0.02856 0.0
C145 C 0.09173 0.05821 0.01827 0.0
C146 C 0.13324 0.1041 0.07013 0.0
C147 C 0.1294 0.13455 0.01022 0.0
C148 C 0.16042 0.15359 0.98677 0.0
C149 C 0.16766 0.18827 0.96733 0.0
C150 C 0.14291 0.2043 0.97242 0.0
C151 C 0.11144 0.18583 -0.00303 0.0
C152 C 0.10447 0.1502 0.01573 0.0
H153 H 0.85862 0.96921 0.00254 0.0
H154 H 0.7517 0.97187 0.98342 0.0
H155 H 0.789 0.04706 0.98236 0.0
H156 H 0.90538 0.059 0.06101 0.0
H157 H 0.95301 0.07623 0.04262 0.0
H158 H 0.91776 0.02252 0.04324 0.0
H159 H 0.92554 0.01843 0.97368 0.0
H160 H 0.96059 0.07217 0.97282 0.0
H161 H 0.91805 0.0518 0.94381 0.0
H162 H 0.83746 0.1214 0.98183 0.0
H163 H 0.89407 0.19081 0.98321 0.0
H164 H 0.97015 0.14055 0.00202 0.0
C165 C 0.84294 0.98556 -0.00149 0.0
C166 C 0.80212 0.9645 -0.00686 0.0
C167 C 0.78289 0.98718 0.9876 0.0
C168 C 0.80382 0.02994 0.98693 0.0
C169 C 0.84399 0.04964 -0.0082 0.0
C170 C 0.86341 0.0283 -0.0024 0.0
C171 C 0.90688 0.05703 0.00139 0.0
C172 C 0.92161 0.05348 0.03933 0.0
C173 C 0.92906 0.04939 0.97111 0.0
C174 C 0.9088 0.09784 -0.00335 0.0
C175 C 0.87216 0.09277 -0.00879 0.0
C176 C 0.86632 0.1258 0.98614 0.0
C177 C 0.89876 0.16517 0.98694 0.0
C178 C 0.9367 0.17132 -0.0073 0.0
C179 C 0.94164 0.137 -0.00258 0.0
H180 H 0.93561 0.89905 0.98532 0.0
H181 H 0.87974 0.85016 0.08881 0.0
H182 H 0.9408 0.85567 0.11258 0.0
H183 H 0.99031 0.84716 0.98262 0.0
H184 H 0.03197 0.88939 0.9619 0.0
H185 H 0.98409 0.88203 0.95365 0.0
H186 H 0.0075 0.95545 0.97595 0.0
H187 H 0.05543 0.96358 0.98553 0.0
H188 H 0.02812 0.97069 0.02097 0.0
H189 H 0.00874 0.86718 0.1247 0.0
H190 H 0.07769 0.88466 0.12457 0.0
H191 H 0.08705 0.92378 0.01218 0.0
C192 C 0.93614 0.8897 0.01309 0.0
C193 C 0.90296 0.87434 0.03529 0.0
C194 C 0.90489 0.86213 0.07136 0.0
C195 C 0.93937 0.86504 0.08503 0.0
C196 C 0.97142 0.87987 0.06215 0.0
C197 C 0.96999 0.89192 0.02694 0.0
C198 C 0.0082 0.90672 0.00772 0.0
C199 C 0.00333 0.8797 0.97452 0.0
C200 C 0.02589 0.95179 -0.0031 0.0
C201 C 0.03159 0.90131 0.03765 0.0
C202 C 0.00997 0.88581 0.06887 0.0
C203 C 0.02586 0.87915 0.10035 0.0
C204 C 0.06501 0.8891 0.09999 0.0
C205 C 0.08768 0.90529 0.0683 0.0
C206 C 0.07043 0.91098 0.03671 0.0
H207 H 0.86391 0.56421 0.26856 0.0
H208 H 0.79474 0.43379 0.24787 0.0
H209 H 0.73695 0.44072 0.23726 0.0
H210 H 0.79154 0.57271 0.3175 0.0
H211 H 0.80388 0.62202 0.29944 0.0
H212 H 0.8405 0.60736 0.30311 0.0
H213 H 0.85474 0.62121 0.23427 0.0
H214 H 0.81794 0.63569 0.23036 0.0
H215 H 0.81561 0.59586 0.20161 0.0
H216 H 0.68616 0.46065 0.2319 0.0
H217 H 0.64472 0.49199 0.23441 0.0
H218 H 0.74631 0.60975 0.25826 0.0
C219 C 0.8367 0.53717 0.26149 0.0
C220 C 0.83393 0.49847 0.25893 0.0
C221 C 0.79765 0.46377 0.24998 0.0
C222 C 0.76465 0.4674 0.24374 0.0
C223 C 0.76835 0.50592 0.2465 0.0
C224 C 0.80336 0.5402 0.25525 0.0
C225 C 0.79886 0.57765 0.25824 0.0
C226 C 0.8093 0.596 0.29687 0.0
C227 C 0.82324 0.60948 0.22939 0.0
C228 C 0.75573 0.55887 0.25031 0.0
C229 C 0.73883 0.51751 0.24334 0.0
C230 C 0.69908 0.49307 0.23699 0.0
C231 C 0.67578 0.51119 0.23851 0.0
C232 C 0.69227 0.55338 0.24634 0.0
C233 C 0.73292 0.57759 0.25163 0.0
H234 H 0.43768 0.20666 0.31689 0.0
H235 H 0.55118 0.23712 0.36018 0.0
H236 H 0.57143 0.31031 0.35794 0.0
H237 H 0.47174 0.28539 0.25336 0.0
H238 H 0.43226 0.2957 0.25794 0.0
H239 H 0.42453 0.24549 0.26742 0.0
H240 H 0.40017 0.24837 0.33196 0.0
H241 H 0.40759 0.29857 0.3226 0.0
H242 H 0.43045 0.29047 0.36185 0.0
H243 H 0.58121 0.37945 0.34678 0.0
H244 H 0.58091 0.44112 0.32631 0.0
H245 H 0.46161 0.36676 0.2881 0.0
C246 C 0.46643 0.2287 0.3268 0.0
C247 C 0.49275 0.21623 0.33911 0.0
C248 C 0.53052 0.24601 0.35083 0.0
C249 C 0.54223 0.28762 0.34976 0.0
C250 C 0.5159 0.29894 0.33675 0.0
C251 C 0.47878 0.27044 0.32548 0.0
C252 C 0.45739 0.29098 0.30984 0.0
C253 C 0.44582 0.27865 0.26977 0.0
C254 C 0.42179 0.28154 0.33295 0.0
C255 C 0.48862 0.33546 0.31335 0.0
C256 C 0.5219 0.33922 0.32941 0.0
C257 C 0.55523 0.37696 0.33448 0.0
C258 C 0.55472 0.41185 0.32263 0.0
C259 C 0.52119 0.4089 0.30556 0.0
C260 C 0.48759 0.3701 0.30121 0.0
H261 H 0.64347 0.21521 0.32381 0.0
H262 H 0.6593 0.11166 0.34651 0.0
H263 H 0.73055 0.15677 0.34318 0.0
H264 H 0.71763 0.26108 0.2585 0.0
H265 H 0.73273 0.31271 0.27222 0.0
H266 H 0.68328 0.27292 0.27896 0.0
H267 H 0.68943 0.29062 0.34776 0.0
H268 H 0.73888 0.33066 0.34118 0.0
H269 H 0.72821 0.2913 0.37426 0.0
H270 H 0.8001 0.21309 0.33532 0.0
H271 H 0.86231 0.27583 0.32307 0.0
H272 H 0.80007 0.34158 0.30399 0.0
C273 C 0.66186 0.20202 0.32858 0.0
C274 C 0.6458 0.1599 0.33562 0.0
C275 C 0.67095 0.14386 0.34122 0.0
C276 C 0.71144 0.16923 0.33938 0.0
C277 C 0.72624 0.21051 0.33187 0.0
C278 C 0.70219 0.22678 0.32661 0.0
C279 C 0.72521 0.27173 0.3175 0.0
C280 C 0.71404 0.28007 0.27954 0.0
C281 C 0.72013 0.2976 0.34693 0.0
C282 C 0.766 0.27818 0.31806 0.0
C283 C 0.76606 0.24263 0.32668 0.0
C284 C 0.8004 0.24113 0.32865 0.0
C285 C 0.8356 0.27695 0.32165 0.0
C286 C 0.83614 0.31367 0.31248 0.0
C287 C 0.80073 0.31404 0.31074 0.0
H288 H 0.45289 0.80574 0.68918 0.0
H289 H 0.55134 0.92834 0.67833 0.0
H290 H 0.59464 0.89991 0.66947 0.0
H291 H 0.50227 0.76525 0.73954 0.0
H292 H 0.47778 0.71581 0.71777 0.0
H293 H 0.45388 0.74552 0.72109 0.0
H294 H 0.44357 0.74106 0.6511 0.0
H295 H 0.46739 0.71122 0.64762 0.0
H296 H 0.48484 0.75752 0.62171 0.0
H297 H 0.62811 0.85871 0.66553 0.0
H298 H 0.64897 0.80713 0.66529 0.0
H299 H 0.52882 0.71131 0.67773 0.0
C300 C 0.48347 0.82658 0.68454 0.0
C301 C 0.49867 0.8693 0.68447 0.0
C302 C 0.53894 0.89551 0.67852 0.0
C303 C 0.56383 0.87967 0.67341 0.0
C304 C 0.54805 0.83752 0.6741 0.0
C305 C 0.50879 0.81127 0.6793 0.0
C306 C 0.49954 0.76723 0.67994 0.0
C307 C 0.48236 0.7473 0.71678 0.0
C308 C 0.47222 0.74283 0.64819 0.0
C309 C 0.5398 0.77295 0.67486 0.0
C310 C 0.56735 0.8137 0.67145 0.0
C311 C 0.60676 0.82664 0.66783 0.0
C312 C 0.61834 0.79711 0.66781 0.0
C313 C 0.5906 0.75511 0.67132 0.0
C314 C 0.55079 0.74308 0.67463 0.0
H315 H 0.31435 0.77384 0.67044 0.0
H316 H 0.23832 0.82563 0.67667 0.0
H317 H 0.1814 0.75725 0.66798 0.0
H318 H 0.25764 0.69745 0.60063 0.0
H319 H 0.26708 0.65951 0.62029 0.0
H320 H 0.30218 0.71293 0.62566 0.0
H321 H 0.29996 0.70386 0.69568 0.0
H322 H 0.26453 0.65054 0.69054 0.0
H323 H 0.254 0.68288 0.71862 0.0
H324 H 0.1324 0.68316 0.66275 0.0
H325 H 0.09461 0.60837 0.65513 0.0
H326 H 0.20205 0.60447 0.65041 0.0
C327 C 0.28579 0.77093 0.66953 0.0
C328 C 0.28096 0.80527 0.67431 0.0
C329 C 0.24297 0.79995 0.673 0.0
C330 C 0.21033 0.76116 0.66821 0.0
C331 C 0.21607 0.72793 0.66442 0.0
C332 C 0.25281 0.73239 0.66448 0.0
C333 C 0.25075 0.6915 0.65989 0.0
C334 C 0.27058 0.69029 0.62451 0.0
C335 C 0.26835 0.68163 0.69317 0.0
C336 C 0.20711 0.66344 0.65764 0.0
C337 C 0.18768 0.68509 0.66055 0.0
C338 C 0.14725 0.66584 0.66014 0.0
C339 C 0.12604 0.6233 0.65602 0.0
C340 C 0.14531 0.6005 0.65207 0.0
C341 C 0.18643 0.621 0.65316 0.0
H342 H 0.24743 0.45688 0.67153 0.0
H343 H 0.25601 0.53586 0.58195 0.0
H344 H 0.3273 0.56618 0.58251 0.0
H345 H 0.33123 0.53114 0.71964 0.0
H346 H 0.34607 0.49561 0.73496 0.0
H347 H 0.29546 0.47817 0.72613 0.0
H348 H 0.2923 0.42384 0.68102 0.0
H349 H 0.34292 0.44109 0.68974 0.0
H350 H 0.32596 0.43962 0.64378 0.0
H351 H 0.3973 0.58907 0.59355 0.0
H352 H 0.46213 0.60491 0.61562 0.0
H353 H 0.40863 0.51236 0.6992 0.0
C354 C 0.26427 0.48021 0.65176 0.0
C355 C 0.24615 0.49385 0.62655 0.0
C356 C 0.26925 0.5249 0.60148 0.0
C357 C 0.30975 0.54224 0.60152 0.0
C358 C 0.3267 0.52832 0.62687 0.0
C359 C 0.30479 0.49813 0.65161 0.0
C360 C 0.33046 0.49004 0.67703 0.0
C361 C 0.32551 0.49931 0.71679 0.0
C362 C 0.32243 0.44604 0.67261 0.0
C363 C 0.37024 0.52063 0.66284 0.0
C364 C 0.36732 0.54213 0.63372 0.0
C365 C 0.4 0.57237 0.61625 0.0
C366 C 0.43671 0.5811 0.62901 0.0
C367 C 0.44052 0.55985 0.65915 0.0
C368 C 0.40672 0.52908 0.6761 0.0
H369 H 0.0149 0.34205 0.88508 0.0
H370 H 0.10541 0.30931 0.88606 0.0
H371 H 0.1257 0.33917 0.82483 0.0
H372 H 0.99022 0.322 0.78876 0.0
H373 H 0.98177 0.36444 0.78418 0.0
H374 H 0.97337 0.33846 0.82711 0.0
H375 H 0.02014 0.4073 0.85892 0.0
H376 H 0.02907 0.43341 0.81605 0.0
H377 H 0.0692 0.4375 0.84275 0.0
H378 H 0.13858 0.37664 0.76509 0.0
H379 H 0.13992 0.41403 0.70956 0.0
H380 H 0.0405 0.42139 0.74832 0.0
C381 C 0.03872 0.34066 0.87235 0.0
C382 C 0.05858 0.32335 0.89045 0.0
C383 C 0.08962 0.32225 0.87271 0.0
C384 C 0.10146 0.33927 0.83799 0.0
C385 C 0.08179 0.35697 0.82137 0.0
C386 C 0.0508 0.35733 0.83782 0.0
C387 C 0.03487 0.37874 0.81455 0.0
C388 C 0.99255 0.34914 0.80296 0.0
C389 C 0.03856 0.41647 0.83425 0.0
C390 C 0.06201 0.39081 0.78255 0.0
C391 C 0.08893 0.37809 0.78698 0.0
C392 C 0.11745 0.38648 0.7612 0.0
C393 C 0.11806 0.40792 0.72981 0.0
C394 C 0.09025 0.42061 0.72443 0.0
C395 C 0.0621 0.41206 0.75143 0.0
H396 H 0.69031 0.79302 0.90792 0.0
H397 H 0.80499 0.81475 0.87911 0.0
H398 H 0.77724 0.77251 0.824 0.0
H399 H 0.63944 0.69241 0.88507 0.0
H400 H 0.59725 0.69181 0.86574 0.0
H401 H 0.62609 0.72922 0.89984 0.0
H402 H 0.63672 0.78801 0.85665 0.0
H403 H 0.60671 0.75076 0.82278 0.0
H404 H 0.65525 0.79014 0.81158 0.0
H405 H 0.73651 0.71924 0.77944 0.0
H406 H 0.68647 0.66818 0.73873 0.0
H407 H 0.59761 0.68211 0.79428 0.0
C408 C 0.70985 0.79018 0.88935 0.0
C409 C 0.74981 0.80705 0.89781 0.0
C410 C 0.77435 0.80224 0.87307 0.0
C411 C 0.75882 0.77809 0.84183 0.0
C412 C 0.71891 0.75969 0.8356 0.0
C413 C 0.69486 0.76639 0.85794 0.0
C414 C 0.65268 0.74132 0.84585 0.0
C415 C 0.6274 0.71196 0.87593 0.0
C416 C 0.63692 0.76923 0.83347 0.0
C417 C 0.65671 0.71831 0.81404 0.0
C418 C 0.69522 0.72942 0.80883 0.0
C419 C 0.7064 0.71105 0.78257 0.0
C420 C 0.67768 0.68189 0.75979 0.0
C421 C 0.63829 0.67169 0.76309 0.0
C422 C 0.62749 0.68937 0.79118 0.0
H423 H 0.35565 0.96494 0.7835 0.0
H424 H 0.31956 0.83902 0.80874 0.0
H425 H 0.27336 0.83813 0.85411 0.0
H426 H 0.35965 0.99535 0.87266 0.0
H427 H 0.34345 0.03135 0.86334 0.0
H428 H 0.36771 0.01922 0.82865 0.0
H429 H 0.30896 0.99855 0.78501 0.0
H430 H 0.28428 0.01016 0.81996 0.0
H431 H 0.26098 0.96031 0.79895 0.0
H432 H 0.23543 0.85302 0.9003 0.0
H433 H 0.21766 0.88507 0.94957 0.0
H434 H 0.28181 0.00223 0.89622 0.0
C435 C 0.33737 0.93692 0.79803 0.0
C436 C 0.34077 0.90193 0.79251 0.0
C437 C 0.31726 0.86613 0.81265 0.0
C438 C 0.29067 0.86524 0.83813 0.0
C439 C 0.28822 0.90047 0.8432 0.0
C440 C 0.31135 0.9358 0.82398 0.0
C441 C 0.3074 0.97118 0.83795 0.0
C442 C 0.34688 0.00631 0.85147 0.0
C443 C 0.28932 0.9859 0.80872 0.0
C444 C 0.27963 0.95072 0.86902 0.0
C445 C 0.26778 0.9096 0.87087 0.0
C446 C 0.2441 0.88504 0.89884 0.0
C447 C 0.23388 0.90341 0.92657 0.0
C448 C 0.24822 0.94601 0.92645 0.0
C449 C 0.27007 0.96949 0.89661 0.0
H450 H 0.39379 0.047 0.26415 0.0
H451 H 0.49113 0.14071 0.20404 0.0
H452 H 0.44631 0.13572 0.15478 0.0
H453 H 0.34557 0.98507 0.19001 0.0
H454 H 0.29721 0.96961 0.20549 0.0
H455 H 0.33612 0.98434 0.23801 0.0
H456 H 0.32167 0.03874 0.2649 0.0
H457 H 0.28271 0.02424 0.23224 0.0
H458 H 0.32126 0.07663 0.23538 0.0
H459 H 0.39282 0.11571 0.10967 0.0
H460 H 0.33449 0.08 0.07057 0.0
H461 H 0.27138 0.99979 0.15984 0.0
C462 C 0.40558 0.06708 0.24099 0.0
C463 C 0.44589 0.0944 0.23799 0.0
C464 C 0.46032 0.11955 0.2069 0.0
C465 C 0.43507 0.11717 0.17891 0.0
C466 C 0.3955 0.08968 0.18257 0.0
C467 C 0.38078 0.06508 0.2128 0.0
C468 C 0.3376 0.0356 0.20856 0.0
C469 C 0.32863 0.99103 0.21062 0.0
C470 C 0.31444 0.04434 0.23696 0.0
C471 C 0.33066 0.0464 0.17061 0.0
C472 C 0.36435 0.07813 0.15637 0.0
C473 C 0.36612 0.09125 0.12066 0.0
C474 C 0.33293 0.07059 0.09856 0.0
C475 C 0.29856 0.03722 0.11224 0.0
C476 C 0.29708 0.02584 0.14902 0.0
H477 H 0.98636 0.31107 0.06392 0.0
H478 H 0.07263 0.30265 0.13085 0.0
H479 H 0.05433 0.33041 0.18326 0.0
H480 H 0.00172 0.40411 0.09713 0.0
H481 H 0.95134 0.39083 0.09616 0.0
H482 H 0.96839 0.3666 0.06502 0.0
H483 H 0.91644 0.2954 0.08821 0.0
H484 H 0.89889 0.31939 0.11922 0.0
H485 H 0.91373 0.28446 0.13622 0.0
H486 H 0.03324 0.36767 0.22499 0.0
H487 H 0.00559 0.40459 0.25623 0.0
H488 H 0.92978 0.38497 0.16324 0.0
C489 C 0.00121 0.31473 0.08958 0.0
C490 C 0.0312 0.30518 0.09329 0.0
C491 C 0.04945 0.30968 0.12758 0.0
C492 C 0.03935 0.32553 0.15739 0.0
C493 C 0.01048 0.33588 0.15245 0.0
C494 C 0.99113 0.32995 0.11962 0.0
C495 C 0.96194 0.3446 0.12119 0.0
C496 C 0.97144 0.37855 0.09322 0.0
C497 C 0.92028 0.30882 0.11591 0.0
C498 C 0.9688 0.36097 0.15974 0.0
C499 C 0.99692 0.35563 0.17724 0.0
C500 C 0.01037 0.37095 0.21202 0.0
C501 C 0.99426 0.39177 0.22962 0.0
C502 C 0.96455 0.39659 0.21271 0.0
C503 C 0.95185 0.38107 0.1772 0.0
H504 H 0.65227 0.63681 0.19684 0.0
H505 H 0.5309 0.59784 0.17739 0.0
H506 H 0.55017 0.65645 0.13559 0.0
H507 H 0.68632 0.74269 0.20007 0.0
H508 H 0.73151 0.75715 0.17755 0.0
H509 H 0.70813 0.71089 0.20381 0.0
H510 H 0.70709 0.66838 0.14794 0.0
H511 H 0.73168 0.71465 0.12194 0.0
H512 H 0.68632 0.67276 0.1055 0.0
H513 H 0.58368 0.72193 0.09917 0.0
H514 H 0.62749 0.78112 0.06182 0.0
H515 H 0.72696 0.77714 0.1073 0.0
C516 C 0.6298 0.64032 0.18328 0.0
C517 C 0.59022 0.61308 0.18991 0.0
C518 C 0.56139 0.61823 0.17187 0.0
C519 C 0.57212 0.65168 0.14866 0.0
C520 C 0.61166 0.67928 0.14409 0.0
C521 C 0.64 0.67337 0.1603 0.0
C522 C 0.68041 0.70698 0.1509 0.0
C523 C 0.7029 0.73083 0.18513 0.0
C524 C 0.70267 0.68966 0.13033 0.0
C525 C 0.67056 0.7328 0.12653 0.0
C526 C 0.6308 0.71668 0.12332 0.0
C527 C 0.61483 0.7347 0.10137 0.0
C528 C 0.64006 0.76858 0.08047 0.0
C529 C 0.68077 0.78377 0.08139 0.0
C530 C 0.69611 0.76666 0.10607 0.0
H531 H 0.09545 0.52886 0.50583 0.0
H532 H 1.00013 0.44994 0.57606 0.0
H533 H 0.95384 0.45393 0.53337 0.0
H534 H 0.04898 0.59005 0.46791 0.0
H535 H 0.06921 0.59173 0.42378 0.0
H536 H 0.09544 0.59265 0.46447 0.0
H537 H 0.09884 0.52972 0.44114 0.0
H538 H 0.07331 0.52912 0.40056 0.0
H539 H 0.05443 0.48405 0.42844 0.0
H540 H 0.91768 0.45156 0.47726 0.0
H541 H 0.89621 0.44028 0.41282 0.0
H542 H 0.01404 0.52238 0.37927 0.0
C543 C 0.06496 0.51358 0.51281 0.0
C544 C 0.05137 0.48915 0.54417 0.0
C545 C 0.01124 0.46913 0.55226 0.0
C546 C 0.98473 0.47147 0.52826 0.0
C547 C 0.99889 0.49457 0.49668 0.0
C548 C 0.03825 0.51573 0.48919 0.0
C549 C 0.04573 0.53274 0.45102 0.0
C550 C 0.06604 0.57958 0.45186 0.0
C551 C 0.0694 0.51797 0.42903 0.0
C552 C 0.0044 0.51445 0.43695 0.0
C553 C 0.97766 0.49386 0.46406 0.0
C554 C 0.93811 0.46886 0.45612 0.0
C555 C 0.92601 0.4628 0.41949 0.0
C556 C 0.95349 0.48153 0.3916 0.0
C557 C 0.99253 0.50929 0.40052 0.0
H558 H 0.5794 0.56505 0.40077 0.0
H559 H 0.69903 0.65418 0.3759 0.0
H560 H 0.71205 0.67272 0.44088 0.0
H561 H 0.56548 0.62527 0.46278 0.0
H562 H 0.53556 0.58493 0.49378 0.0
H563 H 0.53655 0.57355 0.44637 0.0
H564 H 0.55671 0.52008 0.46324 0.0
H565 H 0.5552 0.53081 0.51082 0.0
H566 H 0.59877 0.5349 0.49198 0.0
H567 H 0.71056 0.68696 0.5058 0.0
H568 H 0.69583 0.69473 0.56896 0.0
H569 H 0.57639 0.59732 0.55264 0.0
C570 C 0.6086 0.58756 0.40924 0.0
C571 C 0.63833 0.60808 0.38356 0.0
C572 C 0.67593 0.63816 0.39531 0.0
C573 C 0.68361 0.64879 0.43209 0.0
C574 C 0.65335 0.62905 0.4566 0.0
C575 C 0.61666 0.59888 0.44587 0.0
C576 C 0.58859 0.58509 0.47737 0.0
C577 C 0.55455 0.59268 0.46959 0.0
C578 C 0.57397 0.54004 0.48639 0.0
C579 C 0.61507 0.61308 0.50714 0.0
C580 C 0.65233 0.6378 0.49453 0.0
C581 C 0.68166 0.66742 0.51624 0.0
C582 C 0.67284 0.67168 0.55208 0.0
C583 C 0.6349 0.64654 0.56587 0.0
C584 C 0.60565 0.61688 0.54298 0.0
H585 H 0.3785 0.98154 0.59032 0.0
H586 H 0.47799 0.96613 0.61285 0.0
H587 H 0.50683 0.99892 0.55425 0.0
H588 H 0.37192 0.95852 0.49537 0.0
H589 H 0.35747 0.99513 0.48265 0.0
H590 H 0.34569 0.97208 0.52701 0.0
H591 H 0.38032 0.04391 0.55698 0.0
H592 H 0.39241 0.06719 0.51268 0.0
H593 H 0.43027 0.07932 0.54603 0.0
H594 H 0.52487 0.03382 0.49318 0.0
H595 H 0.52824 0.06286 0.4322 0.0
H596 H 0.41576 0.0531 0.44922 0.0
C597 C 0.40646 0.98523 0.58308 0.0
C598 C 0.4261 0.97148 0.60628 0.0
C599 C 0.46239 0.9764 0.5955 0.0
C600 C 0.47909 0.99516 0.56236 0.0
C601 C 0.45901 0.00854 0.54024 0.0
C602 C 0.42332 0.00345 0.55 0.0
C603 C 0.40689 0.01889 0.52071 0.0
C604 C 0.36821 0.98408 0.50554 0.0
C605 C 0.40221 0.05444 0.53496 0.0
C606 C 0.43884 0.03333 0.49283 0.0
C607 C 0.46886 0.02755 0.50474 0.0
C608 C 0.50152 0.03846 0.48355 0.0
C609 C 0.50322 0.05507 0.44899 0.0
C610 C 0.47222 0.06018 0.43584 0.0
C611 C 0.4399 0.04951 0.45838 0.0
loop_
_geom_bond_atom_site_label_1
_geom_bond_atom_site_label_2
_geom_bond_distance
_geom_bond_site_symmetry_2
_ccdc_geom_bond_type
Mg0 O1 2.028 1_455 S
Mg0 O7 1.986 1_554 S
Mg0 O9 2.114 . S
Mg0 O10 2.251 1_455 S
Mg0 O13 2.010 . S
O1 Mg0 2.028 1_655 S
O1 C4 1.250 1_554 S
O2 Mg3 2.028 . S
O2 C4 1.248 . S
Mg3 O2 2.028 . S
Mg3 O8 2.032 . S
Mg3 O10 2.079 1_556 S
C4 O1 1.250 1_556 S
C4 O2 1.248 . S
C5 O6 1.264 . S
C5 O13 1.249 . S
O6 C5 1.264 . S
O7 Mg0 1.986 1_556 S
O7 C11 1.246 . S
O8 Mg3 2.032 . S
O8 C11 1.259 1_655 S
O9 Mg0 2.114 . S
O9 C12 1.252 1_455 S
O10 Mg0 2.251 1_655 S
O10 Mg3 2.079 1_554 S
O10 C12 1.273 . S
C11 O7 1.246 . S
C11 O8 1.259 1_455 S
C12 O9 1.252 1_655 S
C12 O10 1.273 . S
O13 Mg0 2.010 . S
O13 C5 1.249 . S
Mg14 O15 2.028 . S
Mg14 O21 1.986 . S
Mg14 O23 2.114 1_554 S
Mg14 O24 2.251 1_554 S
Mg14 O27 2.010 . S
O15 Mg14 2.028 . S
O15 C18 1.250 . S
O16 Mg17 2.028 . S
O16 C18 1.248 . S
Mg17 O16 2.028 . S
Mg17 O22 2.032 . S
Mg17 O24 2.079 1_554 S
C18 O15 1.250 . S
C18 O16 1.248 . S
C19 O20 1.264 . S
C19 O27 1.249 1_556 S
O20 C19 1.264 . S
O21 Mg14 1.986 . S
O21 C25 1.246 . S
O22 Mg17 2.032 . S
O22 C25 1.259 . S
O23 Mg14 2.114 1_556 S
O23 C26 1.252 . S
O24 Mg14 2.251 1_556 S
O24 Mg17 2.079 1_556 S
O24 C26 1.273 . S
C25 O21 1.246 . S
C25 O22 1.259 . S
C26 O23 1.252 . S
C26 O24 1.273 . S
O27 Mg14 2.010 . S
O27 C19 1.249 1_554 S
Mg28 O29 2.028 1_565 S
Mg28 O35 1.986 1_554 S
Mg28 O37 2.114 1_565 S
Mg28 O38 2.251 1_565 S
Mg28 O41 2.010 . S
O29 Mg28 2.028 1_545 S
O29 C32 1.250 1_554 S
O30 Mg31 2.028 . S
O30 C32 1.248 . S
Mg31 O30 2.028 . S
Mg31 O36 2.032 . S
Mg31 O38 2.079 1_556 S
C32 O29 1.250 1_556 S
C32 O30 1.248 . S
C33 O34 1.264 . S
C33 O41 1.249 . S
O34 C33 1.264 . S
O35 Mg28 1.986 1_556 S
O35 C39 1.246 1_565 S
O36 Mg31 2.032 . S
O36 C39 1.259 . S
O37 Mg28 2.114 1_545 S
O37 C40 1.252 . S
O38 Mg28 2.251 1_545 S
O38 Mg31 2.079 1_554 S
O38 C40 1.273 . S
C39 O35 1.246 1_545 S
C39 O36 1.259 . S
C40 O37 1.252 . S
C40 O38 1.273 . S
O41 Mg28 2.010 . S
O41 C33 1.249 . S
Mg42 O43 2.028 . S
Mg42 O49 1.986 . S
Mg42 O51 2.114 . S
Mg42 O52 2.251 . S
Mg42 O55 2.010 . S
O43 Mg42 2.028 . S
O43 C46 1.250 . S
O44 Mg45 2.028 . S
O44 C46 1.248 . S
Mg45 O44 2.028 . S
Mg45 O50 2.032 . S
Mg45 O52 2.079 . S
C46 O43 1.250 . S
C46 O44 1.248 . S
C47 O48 1.264 . S
C47 O55 1.249 . S
O48 C47 1.264 . S
O49 Mg42 1.986 . S
O49 C53 1.246 . S
O50 Mg45 2.032 . S
O50 C53 1.259 . S
O51 Mg42 2.114 . S
O51 C54 1.252 . S
O52 Mg42 2.251 . S
O52 Mg45 2.079 . S
O52 C54 1.273 . S
C53 O49 1.246 . S
C53 O50 1.259 . S
C54 O51 1.252 . S
C54 O52 1.273 . S
O55 Mg42 2.010 . S
O55 C47 1.249 . S
Mg56 O57 2.028 . S
Mg56 O63 1.986 . S
Mg56 O65 2.114 . S
Mg56 O66 2.251 . S
Mg56 O69 2.010 . S
O57 Mg56 2.028 . S
O57 C60 1.250 . S
O58 Mg59 2.028 . S
O58 C60 1.248 . S
Mg59 O58 2.028 . S
Mg59 O64 2.032 . S
Mg59 O66 2.079 . S
C60 O57 1.250 . S
C60 O58 1.248 . S
C61 O62 1.264 . S
C61 O69 1.249 . S
O62 C61 1.264 . S
O63 Mg56 1.986 . S
O63 C67 1.246 . S
O64 Mg59 2.032 . S
O64 C67 1.259 . S
O65 Mg56 2.114 . S
O65 C68 1.252 . S
O66 Mg56 2.251 . S
O66 Mg59 2.079 . S
O66 C68 1.273 . S
C67 O63 1.246 . S
C67 O64 1.259 . S
C68 O65 1.252 . S
C68 O66 1.273 . S
O69 Mg56 2.010 . S
O69 C61 1.249 . S
Mg70 O71 2.028 . S
Mg70 O77 1.986 . S
Mg70 O79 2.114 . S
Mg70 O80 2.251 . S
Mg70 O83 2.010 . S
O71 Mg70 2.028 . S
O71 C74 1.250 . S
O72 Mg73 2.028 . S
O72 C74 1.248 . S
Mg73 O72 2.028 . S
Mg73 O78 2.032 . S
Mg73 O80 2.079 . S
C74 O71 1.250 . S
C74 O72 1.248 . S
C75 O76 1.264 . S
C75 O83 1.249 . S
O76 C75 1.264 . S
O77 Mg70 1.986 . S
O77 C81 1.246 . S
O78 Mg73 2.032 . S
O78 C81 1.259 . S
O79 Mg70 2.114 . S
O79 C82 1.252 . S
O80 Mg70 2.251 . S
O80 Mg73 2.079 . S
O80 C82 1.273 . S
C81 O77 1.246 . S
C81 O78 1.259 . S
C82 O79 1.252 . S
C82 O80 1.273 . S
O83 Mg70 2.010 . S
O83 C75 1.249 . S
Mg84 O85 2.028 . S
Mg84 O91 1.986 . S
Mg84 O93 2.114 . S
Mg84 O94 2.251 . S
Mg84 O97 2.010 . S
O85 Mg84 2.028 . S
O85 C88 1.250 . S
O86 Mg87 2.028 . S
O86 C88 1.248 . S
Mg87 O86 2.028 . S
Mg87 O92 2.032 . S
Mg87 O94 2.079 . S
C88 O85 1.250 . S
C88 O86 1.248 . S
C89 O90 1.264 . S
C89 O97 1.249 . S
O90 C89 1.264 . S
O91 Mg84 1.986 . S
O91 C95 1.246 . S
O92 Mg87 2.032 . S
O92 C95 1.259 . S
O93 Mg84 2.114 . S
O93 C96 1.252 . S
O94 Mg84 2.251 . S
O94 Mg87 2.079 . S
O94 C96 1.273 . S
C95 O91 1.246 . S
C95 O92 1.259 . S
C96 O93 1.252 . S
C96 O94 1.273 . S
O97 Mg84 2.010 . S
O97 C89 1.249 . S
Mg98 O99 2.028 . S
Mg98 O105 1.986 . S
Mg98 O107 2.114 . S
Mg98 O108 2.251 . S
Mg98 O111 2.010 . S
O99 Mg98 2.028 . S
O99 C102 1.250 . S
O100 Mg101 2.028 . S
O100 C102 1.248 . S
Mg101 O100 2.028 . S
Mg101 O106 2.032 . S
Mg101 O108 2.079 . S
C102 O99 1.250 . S
C102 O100 1.248 . S
C103 O104 1.264 . S
C103 O111 1.249 . S
O104 C103 1.264 . S
O105 Mg98 1.986 . S
O105 C109 1.246 . S
O106 Mg101 2.032 . S
O106 C109 1.259 . S
O107 Mg98 2.114 . S
O107 C110 1.252 . S
O108 Mg98 2.251 . S
O108 Mg101 2.079 . S
O108 C110 1.273 . S
C109 O105 1.246 . S
C109 O106 1.259 . S
C110 O107 1.252 . S
C110 O108 1.273 . S
O111 Mg98 2.010 . S
O111 C103 1.249 . S
Mg112 O113 2.028 . S
Mg112 O119 1.986 . S
Mg112 O121 2.114 . S
Mg112 O122 2.251 . S
Mg112 O125 2.010 . S
O113 Mg112 2.028 . S
O113 C116 1.250 . S
O114 Mg115 2.028 . S
O114 C116 1.248 . S
Mg115 O114 2.028 . S
Mg115 O120 2.032 . S
Mg115 O122 2.079 . S
C116 O113 1.250 . S
C116 O114 1.248 . S
C117 O118 1.264 . S
C117 O125 1.249 . S
O118 C117 1.264 . S
O119 Mg112 1.986 . S
O119 C123 1.246 . S
O120 Mg115 2.032 . S
O120 C123 1.259 . S
O121 Mg112 2.114 . S
O121 C124 1.252 . S
O122 Mg112 2.251 . S
O122 Mg115 2.079 . S
O122 C124 1.273 . S
C123 O119 1.246 . S
C123 O120 1.259 . S
C124 O121 1.252 . S
C124 O122 1.273 . S
O125 Mg112 2.010 . S
O125 C117 1.249 . S
H126 C138 0.930 . S
H127 C140 0.930 . S
H128 C141 0.930 . S
H129 C145 0.959 . S
H130 C145 0.959 . S
H131 C145 0.961 . S
H132 C146 0.960 . S
H133 C146 0.961 . S
H134 C146 0.959 . S
H135 C149 0.929 . S
H136 C150 0.931 . S
H137 C152 0.930 . S
C138 H126 0.930 . S
C138 C139 1.399 1_554 S
C138 C143 1.399 . S
C139 C138 1.399 1_556 S
C139 C140 1.376 . S
C140 H127 0.930 . S
C140 C139 1.376 . S
C140 C141 1.388 . S
C141 H128 0.930 . S
C141 C140 1.388 . S
C141 C142 1.390 . S
C142 C141 1.390 . S
C142 C143 1.394 1_556 S
C142 C148 1.465 . S
C143 C138 1.399 . S
C143 C142 1.394 1_554 S
C143 C144 1.516 . S
C144 C143 1.516 . S
C144 C145 1.502 . S
C144 C146 1.561 . S
C144 C147 1.526 . S
C145 H129 0.959 . S
C145 H130 0.959 . S
C145 H131 0.961 . S
C145 C144 1.502 . S
C146 H132 0.960 . S
C146 H133 0.961 . S
C146 H134 0.959 . S
C146 C144 1.561 . S
C147 C144 1.526 . S
C147 C148 1.396 1_554 S
C147 C152 1.390 . S
C148 C142 1.465 . S
C148 C147 1.396 1_556 S
C148 C149 1.399 . S
C149 H135 0.929 . S
C149 C148 1.399 . S
C149 C150 1.385 . S
C150 H136 0.931 . S
C150 C149 1.385 . S
C150 C151 1.389 1_556 S
C151 C150 1.389 1_554 S
C151 C152 1.387 . S
C152 H137 0.930 . S
C152 C147 1.390 . S
C152 C151 1.387 . S
H153 C165 0.930 . S
H154 C167 0.930 . S
H155 C168 0.930 . S
H156 C172 0.959 . S
H157 C172 0.959 . S
H158 C172 0.961 1_565 S
H159 C173 0.960 1_565 S
H160 C173 0.961 . S
H161 C173 0.959 . S
H162 C176 0.929 . S
H163 C177 0.931 . S
H164 C179 0.930 . S
C165 H153 0.930 . S
C165 C166 1.399 1_556 S
C165 C170 1.399 . S
C166 C165 1.399 1_554 S
C166 C167 1.376 . S
C167 H154 0.930 . S
C167 C166 1.376 . S
C167 C168 1.388 . S
C168 H155 0.930 . S
C168 C167 1.388 . S
C168 C169 1.390 1_565 S
C169 C168 1.390 1_545 S
C169 C170 1.394 1_544 S
C169 C175 1.465 . S
C170 C165 1.399 . S
C170 C169 1.394 1_566 S
C170 C171 1.516 1_565 S
C171 C170 1.516 1_545 S
C171 C172 1.502 . S
C171 C173 1.561 . S
C171 C174 1.526 . S
C172 H156 0.959 . S
C172 H157 0.959 . S
C172 H158 0.961 1_545 S
C172 C171 1.502 . S
C173 H159 0.960 1_545 S
C173 H160 0.961 . S
C173 H161 0.959 . S
C173 C171 1.561 . S
C174 C171 1.526 . S
C174 C175 1.396 1_556 S
C174 C179 1.390 . S
C175 C169 1.465 . S
C175 C174 1.396 1_554 S
C175 C176 1.399 . S
C176 H162 0.929 . S
C176 C175 1.399 . S
C176 C177 1.385 . S
C177 H163 0.931 . S
C177 C176 1.385 . S
C177 C178 1.389 . S
C178 C177 1.389 . S
C178 C179 1.387 1_554 S
C179 H164 0.930 . S
C179 C174 1.390 . S
C179 C178 1.387 1_556 S
H180 C192 0.930 . S
H181 C194 0.930 . S
H182 C195 0.930 . S
H183 C199 0.959 . S
H184 C199 0.959 . S
H185 C199 0.972 . S
H186 C200 0.960 . S
H187 C200 0.961 . S
H188 C200 0.959 . S
H189 C203 0.929 . S
H190 C204 0.931 . S
H191 C206 0.930 . S
C192 H180 0.930 . S
C192 C193 1.415 . S
C192 C197 1.399 . S
C193 C192 1.415 . S
C193 C194 1.353 1_556 S
C194 H181 0.930 . S
C194 C193 1.353 1_554 S
C194 C195 1.388 . S
C195 H182 0.930 . S
C195 C194 1.388 . S
C195 C196 1.390 . S
C196 C195 1.390 . S
C196 C197 1.394 1_554 S
C196 C202 1.465 1_655 S
C197 C192 1.399 . S
C197 C196 1.394 1_556 S
C197 C198 1.516 1_655 S
C198 C197 1.516 1_455 S
C198 C199 1.502 . S
C198 C200 1.561 . S
C198 C201 1.526 . S
C199 H183 0.959 . S
C199 H184 0.959 . S
C199 H185 0.972 . S
C199 C198 1.502 . S
C200 H186 0.960 . S
C200 H187 0.961 . S
C200 H188 0.959 . S
C200 C198 1.561 . S
C201 C198 1.526 . S
C201 C202 1.396 1_556 S
C201 C206 1.390 . S
C202 C196 1.465 1_455 S
C202 C201 1.396 1_554 S
C202 C203 1.399 . S
C203 H189 0.929 . S
C203 C202 1.399 . S
C203 C204 1.385 . S
C204 H190 0.931 . S
C204 C203 1.385 . S
C204 C205 1.389 . S
C205 C204 1.389 . S
C205 C206 1.387 1_554 S
C206 H191 0.930 . S
C206 C201 1.390 . S
C206 C205 1.387 1_556 S
H207 C219 0.930 . S
H208 C221 0.930 . S
H209 C222 0.930 . S
H210 C226 0.959 . S
H211 C226 0.959 . S
H212 C226 0.961 . S
H213 C227 0.960 . S
H214 C227 0.961 . S
H215 C227 0.959 . S
H216 C230 0.929 . S
H217 C231 0.931 . S
H218 C233 0.930 . S
C219 H207 0.930 . S
C219 C220 1.399 . S
C219 C224 1.399 . S
C220 C219 1.399 . S
C220 C221 1.376 . S
C221 H208 0.930 . S
C221 C220 1.376 . S
C221 C222 1.388 . S
C222 H209 0.930 . S
C222 C221 1.388 . S
C222 C223 1.390 . S
C223 C222 1.390 . S
C223 C224 1.394 . S
C223 C229 1.465 . S
C224 C219 1.399 . S
C224 C223 1.394 . S
C224 C225 1.516 . S
C225 C224 1.516 . S
C225 C226 1.502 . S
C225 C227 1.561 . S
C225 C228 1.526 . S
C226 H210 0.959 . S
C226 H211 0.959 . S
C226 H212 0.961 . S
C226 C225 1.502 . S
C227 H213 0.960 . S
C227 H214 0.961 . S
C227 H215 0.959 . S
C227 C225 1.561 . S
C228 C225 1.526 . S
C228 C229 1.396 . S
C228 C233 1.390 . S
C229 C223 1.465 . S
C229 C228 1.396 . S
C229 C230 1.399 . S
C230 H216 0.929 . S
C230 C229 1.399 . S
C230 C231 1.385 . S
C231 H217 0.931 . S
C231 C230 1.385 . S
C231 C232 1.389 . S
C232 C231 1.389 . S
C232 C233 1.387 . S
C233 H218 0.930 . S
C233 C228 1.390 . S
C233 C232 1.387 . S
H234 C246 0.930 . S
H235 C248 0.930 . S
H236 C249 0.930 . S
H237 C253 0.959 . S
H238 C253 0.959 . S
H239 C253 0.961 . S
H240 C254 0.960 . S
H241 C254 0.961 . S
H242 C254 0.959 . S
H243 C257 0.929 . S
H244 C258 0.931 . S
H245 C260 0.930 . S
C246 H234 0.930 . S
C246 C247 1.399 . S
C246 C251 1.399 . S
C247 C246 1.399 . S
C247 C248 1.376 . S
C248 H235 0.930 . S
C248 C247 1.376 . S
C248 C249 1.388 . S
C249 H236 0.930 . S
C249 C248 1.388 . S
C249 C250 1.390 . S
C250 C249 1.390 . S
C250 C251 1.394 . S
C250 C256 1.465 . S
C251 C246 1.399 . S
C251 C250 1.394 . S
C251 C252 1.516 . S
C252 C251 1.516 . S
C252 C253 1.502 . S
C252 C254 1.561 . S
C252 C255 1.526 . S
C253 H237 0.959 . S
C253 H238 0.959 . S
C253 H239 0.961 . S
C253 C252 1.502 . S
C254 H240 0.960 . S
C254 H241 0.961 . S
C254 H242 0.959 . S
C254 C252 1.561 . S
C255 C252 1.526 . S
C255 C256 1.396 . S
C255 C260 1.390 . S
C256 C250 1.465 . S
C256 C255 1.396 . S
C256 C257 1.399 . S
C257 H243 0.929 . S
C257 C256 1.399 . S
C257 C258 1.385 . S
C258 H244 0.931 . S
C258 C257 1.385 . S
C258 C259 1.389 . S
C259 C258 1.389 . S
C259 C260 1.387 . S
C260 H245 0.930 . S
C260 C255 1.390 . S
C260 C259 1.387 . S
H261 C273 0.930 . S
H262 C275 0.930 . S
H263 C276 0.930 . S
H264 C280 0.959 . S
H265 C280 0.959 . S
H266 C280 0.961 . S
H267 C281 0.960 . S
H268 C281 0.961 . S
H269 C281 0.959 . S
H270 C284 0.929 . S
H271 C285 0.931 . S
H272 C287 0.930 . S
C273 H261 0.930 . S
C273 C274 1.399 . S
C273 C278 1.399 . S
C274 C273 1.399 . S
C274 C275 1.376 . S
C275 H262 0.930 . S
C275 C274 1.376 . S
C275 C276 1.388 . S
C276 H263 0.930 . S
C276 C275 1.388 . S
C276 C277 1.390 . S
C277 C276 1.390 . S
C277 C278 1.394 . S
C277 C283 1.465 . S
C278 C273 1.399 . S
C278 C277 1.394 . S
C278 C279 1.516 . S
C279 C278 1.516 . S
C279 C280 1.502 . S
C279 C281 1.561 . S
C279 C282 1.526 . S
C280 H264 0.959 . S
C280 H265 0.959 . S
C280 H266 0.961 . S
C280 C279 1.502 . S
C281 H267 0.960 . S
C281 H268 0.961 . S
C281 H269 0.959 . S
C281 C279 1.561 . S
C282 C279 1.526 . S
C282 C283 1.396 . S
C282 C287 1.390 . S
C283 C277 1.465 . S
C283 C282 1.396 . S
C283 C284 1.399 . S
C284 H270 0.929 . S
C284 C283 1.399 . S
C284 C285 1.385 . S
C285 H271 0.931 . S
C285 C284 1.385 . S
C285 C286 1.389 . S
C286 C285 1.389 . S
C286 C287 1.387 . S
C287 H272 0.930 . S
C287 C282 1.390 . S
C287 C286 1.387 . S
H288 C300 0.930 . S
H289 C302 0.930 . S
H290 C303 0.930 . S
H291 C307 0.959 . S
H292 C307 0.959 . S
H293 C307 0.961 . S
H294 C308 0.960 . S
H295 C308 0.961 . S
H296 C308 0.959 . S
H297 C311 0.929 . S
H298 C312 0.931 . S
H299 C314 0.930 . S
C300 H288 0.930 . S
C300 C301 1.399 . S
C300 C305 1.399 . S
C301 C300 1.399 . S
C301 C302 1.376 . S
C302 H289 0.930 . S
C302 C301 1.376 . S
C302 C303 1.388 . S
C303 H290 0.930 . S
C303 C302 1.388 . S
C303 C304 1.390 . S
C304 C303 1.390 . S
C304 C305 1.394 . S
C304 C310 1.465 . S
C305 C300 1.399 . S
C305 C304 1.394 . S
C305 C306 1.516 . S
C306 C305 1.516 . S
C306 C307 1.502 . S
C306 C308 1.561 . S
C306 C309 1.526 . S
C307 H291 0.959 . S
C307 H292 0.959 . S
C307 H293 0.961 . S
C307 C306 1.502 . S
C308 H294 0.960 . S
C308 H295 0.961 . S
C308 H296 0.959 . S
C308 C306 1.561 . S
C309 C306 1.526 . S
C309 C310 1.396 . S
C309 C314 1.390 . S
C310 C304 1.465 . S
C310 C309 1.396 . S
C310 C311 1.399 . S
C311 H297 0.929 . S
C311 C310 1.399 . S
C311 C312 1.385 . S
C312 H298 0.931 . S
C312 C311 1.385 . S
C312 C313 1.389 . S
C313 C312 1.389 . S
C313 C314 1.387 . S
C314 H299 0.930 . S
C314 C309 1.390 . S
C314 C313 1.387 . S
H315 C327 0.930 . S
H316 C329 0.930 . S
H317 C330 0.930 . S
H318 C334 0.959 . S
H319 C334 0.959 . S
H320 C334 0.961 . S
H321 C335 0.960 . S
H322 C335 0.961 . S
H323 C335 0.959 . S
H324 C338 0.929 . S
H325 C339 0.931 . S
H326 C341 0.930 . S
C327 H315 0.930 . S
C327 C328 1.399 . S
C327 C332 1.399 . S
C328 C327 1.399 . S
C328 C329 1.376 . S
C329 H316 0.930 . S
C329 C328 1.376 . S
C329 C330 1.388 . S
C330 H317 0.930 . S
C330 C329 1.388 . S
C330 C331 1.390 . S
C331 C330 1.390 . S
C331 C332 1.394 . S
C331 C337 1.465 . S
C332 C327 1.399 . S
C332 C331 1.394 . S
C332 C333 1.516 . S
C333 C332 1.516 . S
C333 C334 1.502 . S
C333 C335 1.561 . S
C333 C336 1.526 . S
C334 H318 0.959 . S
C334 H319 0.959 . S
C334 H320 0.961 . S
C334 C333 1.502 . S
C335 H321 0.960 . S
C335 H322 0.961 . S
C335 H323 0.959 . S
C335 C333 1.561 . S
C336 C333 1.526 . S
C336 C337 1.396 . S
C336 C341 1.390 . S
C337 C331 1.465 . S
C337 C336 1.396 . S
C337 C338 1.399 . S
C338 H324 0.929 . S
C338 C337 1.399 . S
C338 C339 1.385 . S
C339 H325 0.931 . S
C339 C338 1.385 . S
C339 C340 1.389 . S
C340 C339 1.389 . S
C340 C341 1.387 . S
C341 H326 0.930 . S
C341 C336 1.390 . S
C341 C340 1.387 . S
H342 C354 0.930 . S
H343 C356 0.930 . S
H344 C357 0.930 . S
H345 C361 0.959 . S
H346 C361 0.959 . S
H347 C361 0.961 . S
H348 C362 0.960 . S
H349 C362 0.961 . S
H350 C362 0.959 . S
H351 C365 0.929 . S
H352 C366 0.931 . S
H353 C368 0.930 . S
C354 H342 0.930 . S
C354 C355 1.399 . S
C354 C359 1.399 . S
C355 C354 1.399 . S
C355 C356 1.376 . S
C356 H343 0.930 . S
C356 C355 1.376 . S
C356 C357 1.388 . S
C357 H344 0.930 . S
C357 C356 1.388 . S
C357 C358 1.390 . S
C358 C357 1.390 . S
C358 C359 1.394 . S
C358 C364 1.465 . S
C359 C354 1.399 . S
C359 C358 1.394 . S
C359 C360 1.516 . S
C360 C359 1.516 . S
C360 C361 1.502 . S
C360 C362 1.561 . S
C360 C363 1.526 . S
C361 H345 0.959 . S
C361 H346 0.959 . S
C361 H347 0.961 . S
C361 C360 1.502 . S
C362 H348 0.960 . S
C362 H349 0.961 . S
C362 H350 0.959 . S
C362 C360 1.561 . S
C363 C360 1.526 . S
C363 C364 1.396 . S
C363 C368 1.390 . S
C364 C358 1.465 . S
C364 C363 1.396 . S
C364 C365 1.399 . S
C365 H351 0.929 . S
C365 C364 1.399 . S
C365 C366 1.385 . S
C366 H352 0.931 . S
C366 C365 1.385 . S
C366 C367 1.389 . S
C367 C366 1.389 . S
C367 C368 1.387 . S
C368 H353 0.930 . S
C368 C363 1.390 . S
C368 C367 1.387 . S
H369 C381 0.930 . S
H370 C383 0.930 . S
H371 C384 0.930 . S
H372 C388 0.962 . S
H373 C388 0.963 . S
H374 C388 0.971 . S
H375 C389 0.960 . S
H376 C389 0.961 . S
H377 C389 0.959 . S
H378 C392 0.929 . S
H379 C393 0.931 . S
H380 C395 0.930 . S
C381 H369 0.930 . S
C381 C382 1.399 . S
C381 C386 1.399 . S
C382 C381 1.399 . S
C382 C383 1.376 . S
C383 H370 0.930 . S
C383 C382 1.376 . S
C383 C384 1.388 . S
C384 H371 0.930 . S
C384 C383 1.388 . S
C384 C385 1.390 . S
C385 C384 1.390 . S
C385 C386 1.394 . S
C385 C391 1.465 . S
C386 C381 1.399 . S
C386 C385 1.394 . S
C386 C387 1.516 . S
C387 C386 1.516 . S
C387 C388 1.479 1_455 S
C387 C389 1.561 . S
C387 C390 1.526 . S
C388 H372 0.962 . S
C388 H373 0.963 . S
C388 H374 0.971 . S
C388 C387 1.479 1_655 S
C389 H375 0.960 . S
C389 H376 0.961 . S
C389 H377 0.959 . S
C389 C387 1.561 . S
C390 C387 1.526 . S
C390 C391 1.396 . S
C390 C395 1.390 . S
C391 C385 1.465 . S
C391 C390 1.396 . S
C391 C392 1.399 . S
C392 H378 0.929 . S
C392 C391 1.399 . S
C392 C393 1.385 . S
C393 H379 0.931 . S
C393 C392 1.385 . S
C393 C394 1.389 . S
C394 C393 1.389 . S
C394 C395 1.387 . S
C395 H380 0.930 . S
C395 C390 1.390 . S
C395 C394 1.387 . S
H396 C408 0.930 . S
H397 C410 0.930 . S
H398 C411 0.930 . S
H399 C415 0.959 . S
H400 C415 0.959 . S
H401 C415 0.961 . S
H402 C416 0.960 . S
H403 C416 0.961 . S
H404 C416 0.959 . S
H405 C419 0.929 . S
H406 C420 0.931 . S
H407 C422 0.930 . S
C408 H396 0.930 . S
C408 C409 1.399 . S
C408 C413 1.399 . S
C409 C408 1.399 . S
C409 C410 1.376 . S
C410 H397 0.930 . S
C410 C409 1.376 . S
C410 C411 1.388 . S
C411 H398 0.930 . S
C411 C410 1.388 . S
C411 C412 1.390 . S
C412 C411 1.390 . S
C412 C413 1.394 . S
C412 C418 1.465 . S
C413 C408 1.399 . S
C413 C412 1.394 . S
C413 C414 1.516 . S
C414 C413 1.516 . S
C414 C415 1.502 . S
C414 C416 1.561 . S
C414 C417 1.526 . S
C415 H399 0.959 . S
C415 H400 0.959 . S
C415 H401 0.961 . S
C415 C414 1.502 . S
C416 H402 0.960 . S
C416 H403 0.961 . S
C416 H404 0.959 . S
C416 C414 1.561 . S
C417 C414 1.526 . S
C417 C418 1.396 . S
C417 C422 1.390 . S
C418 C412 1.465 . S
C418 C417 1.396 . S
C418 C419 1.399 . S
C419 H405 0.929 . S
C419 C418 1.399 . S
C419 C420 1.385 . S
C420 H406 0.931 . S
C420 C419 1.385 . S
C420 C421 1.389 . S
C421 C420 1.389 . S
C421 C422 1.387 . S
C422 H407 0.930 . S
C422 C417 1.390 . S
C422 C421 1.387 . S
H423 C435 0.930 . S
H424 C437 0.930 . S
H425 C438 0.930 . S
H426 C442 0.959 . S
H427 C442 0.959 . S
H428 C442 0.961 . S
H429 C443 0.960 . S
H430 C443 0.961 . S
H431 C443 0.959 . S
H432 C446 0.929 . S
H433 C447 0.931 . S
H434 C449 0.930 . S
C435 H423 0.930 . S
C435 C436 1.399 . S
C435 C440 1.399 . S
C436 C435 1.399 . S
C436 C437 1.376 . S
C437 H424 0.930 . S
C437 C436 1.376 . S
C437 C438 1.388 . S
C438 H425 0.930 . S
C438 C437 1.388 . S
C438 C439 1.390 . S
C439 C438 1.390 . S
C439 C440 1.394 . S
C439 C445 1.465 . S
C440 C435 1.399 . S
C440 C439 1.394 . S
C440 C441 1.516 1_565 S
C441 C440 1.516 1_545 S
C441 C442 1.502 . S
C441 C443 1.561 . S
C441 C444 1.526 1_545 S
C442 H426 0.959 . S
C442 H427 0.959 . S
C442 H428 0.961 . S
C442 C441 1.502 . S
C443 H429 0.960 . S
C443 H430 0.961 . S
C443 H431 0.959 . S
C443 C441 1.561 . S
C444 C441 1.526 1_565 S
C444 C445 1.396 . S
C444 C449 1.390 1_565 S
C445 C439 1.465 . S
C445 C444 1.396 . S
C445 C446 1.399 . S
C446 H432 0.929 . S
C446 C445 1.399 . S
C446 C447 1.385 . S
C447 H433 0.931 . S
C447 C446 1.385 . S
C447 C448 1.389 . S
C448 C447 1.389 . S
C448 C449 1.387 1_565 S
C449 H434 0.930 . S
C449 C444 1.390 1_545 S
C449 C448 1.387 1_545 S
H450 C462 0.930 . S
H451 C464 0.930 . S
H452 C465 0.930 . S
H453 C469 0.959 . S
H454 C469 0.959 . S
H455 C469 0.961 . S
H456 C470 0.960 . S
H457 C470 0.961 . S
H458 C470 0.959 . S
H459 C473 0.929 1_565 S
H460 C474 0.931 1_565 S
H461 C476 0.930 . S
C462 H450 0.930 . S
C462 C463 1.399 . S
C462 C467 1.399 . S
C463 C462 1.399 . S
C463 C464 1.376 . S
C464 H451 0.930 . S
C464 C463 1.376 . S
C464 C465 1.388 . S
C465 H452 0.930 . S
C465 C464 1.388 . S
C465 C466 1.390 . S
C466 C465 1.390 . S
C466 C467 1.394 . S
C466 C472 1.465 . S
C467 C462 1.399 . S
C467 C466 1.394 . S
C467 C468 1.516 . S
C468 C467 1.516 . S
C468 C469 1.502 . S
C468 C470 1.561 . S
C468 C471 1.526 . S
C469 H453 0.959 . S
C469 H454 0.959 . S
C469 H455 0.961 . S
C469 C468 1.502 . S
C470 H456 0.960 . S
C470 H457 0.961 . S
C470 H458 0.959 . S
C470 C468 1.561 . S
C471 C468 1.526 . S
C471 C472 1.396 . S
C471 C476 1.390 . S
C472 C466 1.465 . S
C472 C471 1.396 . S
C472 C473 1.399 . S
C473 H459 0.929 1_545 S
C473 C472 1.399 . S
C473 C474 1.385 . S
C474 H460 0.931 1_545 S
C474 C473 1.385 . S
C474 C475 1.389 . S
C475 C474 1.389 . S
C475 C476 1.387 . S
C476 H461 0.930 . S
C476 C471 1.390 . S
C476 C475 1.387 . S
H477 C489 0.930 1_455 S
H478 C491 0.930 . S
H479 C492 0.930 . S
H480 C496 0.959 . S
H481 C496 0.959 . S
H482 C496 0.961 . S
H483 C497 0.960 . S
H484 C497 0.961 . S
H485 C497 0.959 . S
H486 C500 0.929 . S
H487 C501 0.931 . S
H488 C503 0.930 . S
C489 H477 0.930 1_655 S
C489 C490 1.399 . S
C489 C494 1.399 . S
C490 C489 1.399 . S
C490 C491 1.376 . S
C491 H478 0.930 . S
C491 C490 1.376 . S
C491 C492 1.388 . S
C492 H479 0.930 . S
C492 C491 1.388 . S
C492 C493 1.390 . S
C493 C492 1.390 . S
C493 C494 1.394 . S
C493 C499 1.465 . S
C494 C489 1.399 . S
C494 C493 1.394 . S
C494 C495 1.516 . S
C495 C494 1.516 . S
C495 C496 1.502 1_655 S
C495 C497 1.561 . S
C495 C498 1.526 . S
C496 H480 0.959 . S
C496 H481 0.959 . S
C496 H482 0.961 . S
C496 C495 1.502 1_455 S
C497 H483 0.960 . S
C497 H484 0.961 . S
C497 H485 0.959 . S
C497 C495 1.561 . S
C498 C495 1.526 . S
C498 C499 1.396 . S
C498 C503 1.390 . S
C499 C493 1.465 . S
C499 C498 1.396 . S
C499 C500 1.399 . S
C500 H486 0.929 . S
C500 C499 1.399 . S
C500 C501 1.385 . S
C501 H487 0.931 . S
C501 C500 1.385 . S
C501 C502 1.389 . S
C502 C501 1.389 . S
C502 C503 1.387 . S
C503 H488 0.930 . S
C503 C498 1.390 . S
C503 C502 1.387 . S
H504 C516 0.930 . S
H505 C518 0.930 . S
H506 C519 0.930 . S
H507 C523 0.959 . S
H508 C523 0.959 . S
H509 C523 0.961 . S
H510 C524 0.960 . S
H511 C524 0.961 . S
H512 C524 0.959 . S
H513 C527 0.929 . S
H514 C528 0.931 . S
H515 C530 0.930 . S
C516 H504 0.930 . S
C516 C517 1.399 . S
C516 C521 1.399 . S
C517 C516 1.399 . S
C517 C518 1.376 . S
C518 H505 0.930 . S
C518 C517 1.376 . S
C518 C519 1.388 . S
C519 H506 0.930 . S
C519 C518 1.388 . S
C519 C520 1.390 . S
C520 C519 1.390 . S
C520 C521 1.394 . S
C520 C526 1.465 . S
C521 C516 1.399 . S
C521 C520 1.394 . S
C521 C522 1.516 . S
C522 C521 1.516 . S
C522 C523 1.502 . S
C522 C524 1.561 . S
C522 C525 1.526 . S
C523 H507 0.959 . S
C523 H508 0.959 . S
C523 H509 0.961 . S
C523 C522 1.502 . S
C524 H510 0.960 . S
C524 H511 0.961 . S
C524 H512 0.959 . S
C524 C522 1.561 . S
C525 C522 1.526 . S
C525 C526 1.396 . S
C525 C530 1.390 . S
C526 C520 1.465 . S
C526 C525 1.396 . S
C526 C527 1.399 . S
C527 H513 0.929 . S
C527 C526 1.399 . S
C527 C528 1.385 . S
C528 H514 0.931 . S
C528 C527 1.385 . S
C528 C529 1.389 . S
C529 C528 1.389 . S
C529 C530 1.387 . S
C530 H515 0.930 . S
C530 C525 1.390 . S
C530 C529 1.387 . S
H531 C543 0.930 . S
H532 C545 0.930 . S
H533 C546 0.930 . S
H534 C550 0.959 . S
H535 C550 0.959 . S
H536 C550 0.961 1_455 S
H537 C551 0.960 . S
H538 C551 0.961 . S
H539 C551 0.959 . S
H540 C554 0.929 . S
H541 C555 0.931 . S
H542 C557 0.930 . S
C543 H531 0.930 . S
C543 C544 1.399 . S
C543 C548 1.399 . S
C544 C543 1.399 . S
C544 C545 1.376 . S
C545 H532 0.930 . S
C545 C544 1.376 . S
C545 C546 1.388 . S
C546 H533 0.930 . S
C546 C545 1.388 . S
C546 C547 1.390 . S
C547 C546 1.390 . S
C547 C548 1.394 . S
C547 C553 1.465 . S
C548 C543 1.399 . S
C548 C547 1.394 . S
C548 C549 1.516 . S
C549 C548 1.516 . S
C549 C550 1.502 1_455 S
C549 C551 1.561 . S
C549 C552 1.526 1_455 S
C550 H534 0.959 . S
C550 H535 0.959 . S
C550 H536 0.961 1_655 S
C550 C549 1.502 1_655 S
C551 H537 0.960 . S
C551 H538 0.961 . S
C551 H539 0.959 . S
C551 C549 1.561 . S
C552 C549 1.526 1_655 S
C552 C553 1.396 1_655 S
C552 C557 1.390 . S
C553 C547 1.465 . S
C553 C552 1.396 1_455 S
C553 C554 1.399 1_455 S
C554 H540 0.929 . S
C554 C553 1.399 1_655 S
C554 C555 1.385 . S
C555 H541 0.931 . S
C555 C554 1.385 . S
C555 C556 1.389 . S
C556 C555 1.389 . S
C556 C557 1.387 . S
C557 H542 0.930 . S
C557 C552 1.390 . S
C557 C556 1.387 . S
H558 C570 0.930 . S
H559 C572 0.930 . S
H560 C573 0.930 . S
H561 C577 0.959 . S
H562 C577 0.959 . S
H563 C577 0.961 . S
H564 C578 0.960 . S
H565 C578 0.961 . S
H566 C578 0.959 . S
H567 C581 0.929 . S
H568 C582 0.931 . S
H569 C584 0.930 . S
C570 H558 0.930 . S
C570 C571 1.399 . S
C570 C575 1.399 . S
C571 C570 1.399 . S
C571 C572 1.376 . S
C572 H559 0.930 . S
C572 C571 1.376 . S
C572 C573 1.388 . S
C573 H560 0.930 . S
C573 C572 1.388 . S
C573 C574 1.390 . S
C574 C573 1.390 . S
C574 C575 1.394 . S
C574 C580 1.465 . S
C575 C570 1.399 . S
C575 C574 1.394 . S
C575 C576 1.516 . S
C576 C575 1.516 . S
C576 C577 1.502 . S
C576 C578 1.561 . S
C576 C579 1.526 . S
C577 H561 0.959 . S
C577 H562 0.959 . S
C577 H563 0.961 . S
C577 C576 1.502 . S
C578 H564 0.960 . S
C578 H565 0.961 . S
C578 H566 0.959 . S
C578 C576 1.561 . S
C579 C576 1.526 . S
C579 C580 1.396 . S
C579 C584 1.390 . S
C580 C574 1.465 . S
C580 C579 1.396 . S
C580 C581 1.399 . S
C581 H567 0.929 . S
C581 C580 1.399 . S
C581 C582 1.385 . S
C582 H568 0.931 . S
C582 C581 1.385 . S
C582 C583 1.389 . S
C583 C582 1.389 . S
C583 C584 1.387 . S
C584 H569 0.930 . S
C584 C579 1.390 . S
C584 C583 1.387 . S
H585 C597 0.930 1_545 S
H586 C599 0.930 . S
H587 C600 0.930 . S
H588 C604 0.959 . S
H589 C604 0.959 . S
H590 C604 0.961 . S
H591 C605 0.960 . S
H592 C605 0.961 . S
H593 C605 0.959 . S
H594 C608 0.929 1_565 S
H595 C609 0.931 . S
H596 C611 0.930 . S
C597 H585 0.930 1_565 S
C597 C598 1.399 . S
C597 C602 1.399 1_565 S
C598 C597 1.399 . S
C598 C599 1.376 . S
C599 H586 0.930 . S
C599 C598 1.376 . S
C599 C600 1.388 . S
C600 H587 0.930 . S
C600 C599 1.388 . S
C600 C601 1.390 . S
C601 C600 1.390 . S
C601 C602 1.394 1_565 S
C601 C607 1.465 1_565 S
C602 C597 1.399 1_545 S
C602 C601 1.394 1_545 S
C602 C603 1.516 . S
C603 C602 1.516 . S
C603 C604 1.502 . S
C603 C605 1.561 . S
C603 C606 1.526 . S
C604 H588 0.959 . S
C604 H589 0.959 . S
C604 H590 0.961 . S
C604 C603 1.502 . S
C605 H591 0.960 . S
C605 H592 0.961 . S
C605 H593 0.959 . S
C605 C603 1.561 . S
C606 C603 1.526 . S
C606 C607 1.396 . S
C606 C611 1.390 . S
C607 C601 1.465 1_545 S
C607 C606 1.396 . S
C607 C608 1.399 . S
C608 H594 0.929 1_545 S
C608 C607 1.399 . S
C608 C609 1.385 . S
C609 H595 0.931 . S
C609 C608 1.385 . S
C609 C610 1.389 . S
C610 C609 1.389 . S
C610 C611 1.387 . S
C611 H596 0.930 . S
C611 C606 1.390 . S
C611 C610 1.387 . S
C139 C32 1.102 . S
C151 C5 0.998 . S
C166 C18 1.103 . S
C178 C4 1.059 1_554 S
C193 C19 0.849 . S
C205 C33 0.828 . S
C220 C75 1.020 . S
C232 C46 1.040 . S
C247 C60 0.953 . S
C259 C47 0.979 . S
C274 C61 1.044 . S
C286 C74 1.053 . S
C301 C89 0.795 . S
C313 C116 0.879 . S
C328 C88 1.134 . S
C340 C102 1.169 . S
C355 C103 0.954 . S
C367 C117 0.954 . S
C382 C11 1.355 . S
C394 C109 1.350 . S
C409 C26 1.289 . S
C421 C124 1.295 . S
C436 C96 1.294 . S
C448 C39 1.311 1_565 S
C463 C68 1.314 . S
C475 C40 1.307 . S
C490 C12 1.420 . S
C502 C82 1.414 . S
C517 C54 1.306 . S
C529 C25 1.306 . S
C544 C110 1.326 . S
C556 C81 1.303 . S
C571 C53 1.190 . S
C583 C123 1.200 . S
C598 C95 1.332 . S
C610 C67 1.329 . S
