# Generated by pormake.
# Topology tzs, (4)-cn, num edge types: 1
# Building blocks:
#     Node 0, Type 0, BuildingBlock: TATPOV_clean_sbu_0, # of connection points: 4
#     Node 1, Type 0, BuildingBlock: TATPOV_clean_sbu_0, # of connection points: 4
#     Node 2, Type 0, BuildingBlock: TATPOV_clean_sbu_0, # of connection points: 4
#     Node 3, Type 0, BuildingBlock: TATPOV_clean_sbu_0, # of connection points: 4
#     Node 4, Type 0, BuildingBlock: TATPOV_clean_sbu_0, # of connection points: 4
#     Node 5, Type 0, BuildingBlock: TATPOV_clean_sbu_0, # of connection points: 4
#     Node 6, Type 0, BuildingBlock: TATPOV_clean_sbu_0, # of connection points: 4
#     Node 7, Type 0, BuildingBlock: TATPOV_clean_sbu_0, # of connection points: 4
#     Node 8, Type 0, BuildingBlock: TATPOV_clean_sbu_0, # of connection points: 4
#     Node 9, Type 0, BuildingBlock: TATPOV_clean_sbu_0, # of connection points: 4
#     Node 10, Type 0, BuildingBlock: TATPOV_clean_sbu_0, # of connection points: 4
#     Node 11, Type 0, BuildingBlock: TATPOV_clean_sbu_0, # of connection points: 4
#     Node 12, Type 0, BuildingBlock: TATPOV_clean_sbu_0, # of connection points: 4
#     Node 13, Type 0, BuildingBlock: TATPOV_clean_sbu_0, # of connection points: 4
#     Node 14, Type 0, BuildingBlock: TATPOV_clean_sbu_0, # of connection points: 4
#     Node 15, Type 0, BuildingBlock: TATPOV_clean_sbu_0, # of connection points: 4
#     Edge 16, Type (0, 0), BuildingBlock: XIVTED_clean_linker_0, # of connection points: 2
#     Edge 17, Type (0, 0), BuildingBlock: XIVTED_clean_linker_0, # of connection points: 2
#     Edge 18, Type (0, 0), BuildingBlock: XIVTED_clean_linker_0, # of connection points: 2
#     Edge 19, Type (0, 0), BuildingBlock: XIVTED_clean_linker_0, # of connection points: 2
#     Edge 20, Type (0, 0), BuildingBlock: XIVTED_clean_linker_0, # of connection points: 2
#     Edge 21, Type (0, 0), BuildingBlock: XIVTED_clean_linker_0, # of connection points: 2
#     Edge 22, Type (0, 0), BuildingBlock: XIVTED_clean_linker_0, # of connection points: 2
#     Edge 23, Type (0, 0), BuildingBlock: XIVTED_clean_linker_0, # of connection points: 2
#     Edge 24, Type (0, 0), BuildingBlock: XIVTED_clean_linker_0, # of connection points: 2
#     Edge 25, Type (0, 0), BuildingBlock: XIVTED_clean_linker_0, # of connection points: 2
#     Edge 26, Type (0, 0), BuildingBlock: XIVTED_clean_linker_0, # of connection points: 2
#     Edge 27, Type (0, 0), BuildingBlock: XIVTED_clean_linker_0, # of connection points: 2
#     Edge 28, Type (0, 0), BuildingBlock: XIVTED_clean_linker_0, # of connection points: 2
#     Edge 29, Type (0, 0), BuildingBlock: XIVTED_clean_linker_0, # of connection points: 2
#     Edge 30, Type (0, 0), BuildingBlock: XIVTED_clean_linker_0, # of connection points: 2
#     Edge 31, Type (0, 0), BuildingBlock: XIVTED_clean_linker_0, # of connection points: 2
#     Edge 32, Type (0, 0), BuildingBlock: XIVTED_clean_linker_0, # of connection points: 2
#     Edge 33, Type (0, 0), BuildingBlock: XIVTED_clean_linker_0, # of connection points: 2
#     Edge 34, Type (0, 0), BuildingBlock: XIVTED_clean_linker_0, # of connection points: 2
#     Edge 35, Type (0, 0), BuildingBlock: XIVTED_clean_linker_0, # of connection points: 2
#     Edge 36, Type (0, 0), BuildingBlock: XIVTED_clean_linker_0, # of connection points: 2
#     Edge 37, Type (0, 0), BuildingBlock: XIVTED_clean_linker_0, # of connection points: 2
#     Edge 38, Type (0, 0), BuildingBlock: XIVTED_clean_linker_0, # of connection points: 2
#     Edge 39, Type (0, 0), BuildingBlock: XIVTED_clean_linker_0, # of connection points: 2
#     Edge 40, Type (0, 0), BuildingBlock: XIVTED_clean_linker_0, # of connection points: 2
#     Edge 41, Type (0, 0), BuildingBlock: XIVTED_clean_linker_0, # of connection points: 2
#     Edge 42, Type (0, 0), BuildingBlock: XIVTED_clean_linker_0, # of connection points: 2
#     Edge 43, Type (0, 0), BuildingBlock: XIVTED_clean_linker_0, # of connection points: 2
#     Edge 44, Type (0, 0), BuildingBlock: XIVTED_clean_linker_0, # of connection points: 2
#     Edge 45, Type (0, 0), BuildingBlock: XIVTED_clean_linker_0, # of connection points: 2
#     Edge 46, Type (0, 0), BuildingBlock: XIVTED_clean_linker_0, # of connection points: 2
#     Edge 47, Type (0, 0), BuildingBlock: XIVTED_clean_linker_0, # of connection points: 2
# Relax obj value: 0.049
# Max RMSD: 0.075
# Mean RMSD: 0.075
data_MOF--net-tzs--node1-TATPOV_clean_sbu_0--edge1-XIVTED_clean_linker_0
_symmetry_space_group_name_H-M    P1
_symmetry_Int_Tables_number       1
_symmetry_cell_setting            triclinic
loop_
_symmetry_equiv_pos_as_xyz
'x, y, z'
_cell_length_a     48.079195
_cell_length_b     48.106418
_cell_length_c     41.71155
_cell_angle_alpha  90.082051
_cell_angle_beta   89.900669
_cell_angle_gamma 90.09784
loop_
_atom_site_label
_atom_site_type_symbol
_atom_site_fract_x
_atom_site_fract_y
_atom_site_fract_z
_atom_type_partial_charge
Zn0 Zn 0.14716 0.39817 0.12265 0.0
Zn1 Zn 0.17766 0.36196 0.1569 0.0
O2 O 0.13885 0.35211 0.17232 0.0
O3 O 0.11282 0.37931 0.14238 0.0
O4 O 0.20221 0.33493 0.17977 0.0
O5 O 0.16336 0.38321 0.08145 0.0
O6 O 0.18395 0.35082 0.11002 0.0
C7 C 0.11497 0.36049 0.16353 0.0
C8 C 0.18397 0.42519 0.16682 0.0
O9 O 0.19067 0.40019 0.17321 0.0
O10 O 0.16584 0.43017 0.14561 0.0
C11 C 0.19907 0.30926 0.1735 0.0
O12 O 0.1795 0.30165 0.15334 0.0
C13 C 0.17782 0.3613 0.08299 0.0
Zn14 Zn 0.62676 0.09428 0.15905 0.0
Zn15 Zn 0.65227 0.13005 0.19726 0.0
O16 O 0.66625 0.09167 0.21312 0.0
O17 O 0.64551 0.06223 0.18043 0.0
O18 O 0.67589 0.15801 0.22079 0.0
O19 O 0.64316 0.10985 0.11902 0.0
O20 O 0.65914 0.14297 0.15044 0.0
C21 C 0.6615 0.06682 0.2039 0.0
C22 C 0.58991 0.12677 0.20063 0.0
O23 O 0.61239 0.13646 0.2123 0.0
O24 O 0.5906 0.10977 0.17736 0.0
C25 C 0.70122 0.15918 0.21207 0.0
O26 O 0.71028 0.14115 0.1908 0.0
C27 C 0.65561 0.13277 0.12256 0.0
Zn28 Zn 0.9155 0.62564 0.1552 0.0
Zn29 Zn 0.87835 0.64948 0.19458 0.0
O30 O 0.91609 0.6634 0.21177 0.0
O31 O 0.94668 0.64446 0.17904 0.0
O32 O 0.8501 0.6703 0.22066 0.0
O33 O 0.89901 0.64446 0.11678 0.0
O34 O 0.86606 0.65993 0.14884 0.0
C35 C 0.94123 0.65958 0.20309 0.0
C36 C 0.88222 0.58672 0.19326 0.0
O37 O 0.87204 0.60871 0.20555 0.0
O38 O 0.90014 0.58834 0.17096 0.0
C39 C 0.85235 0.69657 0.22262 0.0
O40 O 0.87378 0.70887 0.20909 0.0
C41 C 0.87645 0.65745 0.1209 0.0
Zn42 Zn 0.40465 0.85511 0.10771 0.0
Zn43 Zn 0.36768 0.82289 0.13889 0.0
O44 O 0.35726 0.86111 0.15576 0.0
O45 O 0.38518 0.88858 0.12832 0.0
O46 O 0.34019 0.79763 0.1602 0.0
O47 O 0.39123 0.84007 0.06536 0.0
O48 O 0.35816 0.81765 0.09127 0.0
C49 C 0.36581 0.88538 0.14869 0.0
C50 C 0.43065 0.81679 0.15081 0.0
O51 O 0.40553 0.80955 0.15601 0.0
O52 O 0.43605 0.83585 0.13082 0.0
C53 C 0.33657 0.79781 0.19036 0.0
O54 O 0.35153 0.81468 0.20818 0.0
C55 C 0.36968 0.82494 0.06512 0.0
Zn56 Zn 0.13738 0.59949 0.36638 0.0
Zn57 Zn 0.16971 0.63905 0.34061 0.0
O58 O 0.13075 0.65182 0.32751 0.0
O59 O 0.10363 0.62112 0.3512 0.0
O60 O 0.19485 0.66787 0.32151 0.0
O61 O 0.15437 0.60711 0.40917 0.0
O62 O 0.17847 0.642 0.38896 0.0
C63 C 0.10653 0.6427 0.33413 0.0
C64 C 0.1745 0.5779 0.319 0.0
O65 O 0.18212 0.60324 0.31737 0.0
O66 O 0.15541 0.57067 0.3382 0.0
C67 C 0.19626 0.67053 0.29127 0.0
O68 O 0.18067 0.65462 0.273 0.0
C69 C 0.17121 0.62708 0.41273 0.0
Zn70 Zn 0.36527 0.07834 0.33442 0.0
Zn71 Zn 0.34058 0.1128 0.29251 0.0
O72 O 0.33031 0.07409 0.27523 0.0
O73 O 0.34993 0.04561 0.30974 0.0
O74 O 0.31983 0.13936 0.26446 0.0
O75 O 0.34352 0.0946 0.37125 0.0
O76 O 0.32725 0.12529 0.33707 0.0
C77 C 0.33578 0.04949 0.28456 0.0
C78 C 0.40335 0.11356 0.29771 0.0
O79 O 0.38116 0.1217 0.28411 0.0
O80 O 0.40221 0.09599 0.32035 0.0
C81 C 0.32354 0.1651 0.26991 0.0
O82 O 0.34145 0.17263 0.29206 0.0
C83 C 0.32926 0.11609 0.36553 0.0
Zn84 Zn 0.91519 0.36514 0.33443 0.0
Zn85 Zn 0.88026 0.33884 0.29528 0.0
O86 O 0.91907 0.32772 0.27812 0.0
O87 O 0.94787 0.34881 0.31125 0.0
O88 O 0.85363 0.31457 0.2706 0.0
O89 O 0.90064 0.34633 0.37373 0.0
O90 O 0.86868 0.32901 0.34173 0.0
C91 C 0.94378 0.3335 0.28702 0.0
C92 C 0.88017 0.40147 0.29518 0.0
O93 O 0.87146 0.37887 0.28279 0.0
O94 O 0.89758 0.401 0.31801 0.0
C95 C 0.82809 0.31471 0.2786 0.0
O96 O 0.81965 0.33242 0.30056 0.0
C97 C 0.87869 0.33229 0.36972 0.0
Zn98 Zn 0.60107 0.85667 0.35497 0.0
Zn99 Zn 0.64185 0.82938 0.3241 0.0
O100 O 0.65042 0.86943 0.31154 0.0
O101 O 0.61926 0.89275 0.33942 0.0
O102 O 0.67248 0.80717 0.30374 0.0
O103 O 0.61259 0.83976 0.39691 0.0
O104 O 0.64863 0.82155 0.37196 0.0
C105 C 0.63988 0.89246 0.3204 0.0
C106 C 0.58032 0.81953 0.30674 0.0
O107 O 0.60612 0.81444 0.3027 0.0
O108 O 0.57259 0.83684 0.32783 0.0
C109 C 0.6975 0.81516 0.30721 0.0
O110 O 0.70257 0.83826 0.32301 0.0
C111 C 0.63504 0.82611 0.39764 0.0
Zn112 Zn 0.85242 0.5995 0.86149 0.0
Zn113 Zn 0.82809 0.64223 0.83137 0.0
O114 O 0.81001 0.608 0.81031 0.0
O115 O 0.82988 0.57274 0.83483 0.0
O116 O 0.80863 0.67425 0.8107 0.0
O117 O 0.8373 0.61248 0.90383 0.0
O118 O 0.82183 0.64996 0.87947 0.0
C119 C 0.81306 0.58191 0.81408 0.0
C120 C 0.89046 0.63468 0.82514 0.0
O121 O 0.86821 0.64712 0.81711 0.0
O122 O 0.88959 0.61446 0.84461 0.0
C123 C 0.78298 0.6784 0.81617 0.0
O124 O 0.76943 0.66119 0.83502 0.0
C125 C 0.82568 0.63602 0.905 0.0
Zn126 Zn 0.35604 0.91667 0.81714 0.0
Zn127 Zn 0.33125 0.87986 0.779 0.0
O128 O 0.37119 0.8742 0.76448 0.0
O129 O 0.39261 0.90157 0.79903 0.0
O130 O 0.30919 0.85046 0.75613 0.0
O131 O 0.33983 0.90077 0.85732 0.0
O132 O 0.32469 0.86737 0.8258 0.0
C133 C 0.39351 0.88429 0.77603 0.0
C134 C 0.32037 0.94243 0.77122 0.0
O135 O 0.31619 0.91739 0.76236 0.0
O136 O 0.33621 0.94765 0.79468 0.0
C137 C 0.28385 0.84795 0.76439 0.0
O138 O 0.27319 0.86619 0.7844 0.0
C139 C 0.32797 0.87752 0.85373 0.0
Zn140 Zn 0.07663 0.35607 0.8554 0.0
Zn141 Zn 0.11118 0.3339 0.81143 0.0
O142 O 0.12231 0.37448 0.80902 0.0
O143 O 0.09588 0.39336 0.84632 0.0
O144 O 0.13697 0.31483 0.78065 0.0
O145 O 0.09214 0.33093 0.88962 0.0
O146 O 0.12303 0.31684 0.85424 0.0
C147 C 0.11467 0.39566 0.82506 0.0
C148 C 0.0475 0.3322 0.80231 0.0
O149 O 0.07214 0.32681 0.79286 0.0
O150 O 0.04355 0.34421 0.82896 0.0
C151 C 0.16294 0.31741 0.7854 0.0
O152 O 0.17159 0.33304 0.80926 0.0
C153 C 0.11362 0.31695 0.88275 0.0
Zn154 Zn 0.58794 0.13363 0.86486 0.0
Zn155 Zn 0.62712 0.16291 0.83262 0.0
O156 O 0.5904 0.17609 0.81266 0.0
O157 O 0.55813 0.1523 0.83827 0.0
O158 O 0.65593 0.18435 0.80846 0.0
O159 O 0.60097 0.15216 0.9057 0.0
O160 O 0.63508 0.17283 0.87953 0.0
C161 C 0.5649 0.16996 0.81714 0.0
C162 C 0.62737 0.09957 0.82955 0.0
O163 O 0.63681 0.12316 0.82117 0.0
O164 O 0.60684 0.09804 0.84864 0.0
C165 C 0.65533 0.2107 0.80756 0.0
O166 O 0.6355 0.22398 0.82294 0.0
C167 C 0.62238 0.16754 0.90561 0.0
Zn168 Zn 0.85478 0.40332 0.62238 0.0
Zn169 Zn 0.82118 0.36782 0.65407 0.0
O170 O 0.80829 0.40669 0.66765 0.0
O171 O 0.8358 0.43634 0.64298 0.0
O172 O 0.79422 0.344 0.67806 0.0
O173 O 0.83976 0.38781 0.58087 0.0
O174 O 0.81623 0.35573 0.6072 0.0
C175 C 0.8158 0.4316 0.662 0.0
C176 C 0.88339 0.36537 0.66592 0.0
O177 O 0.85883 0.3573 0.67253 0.0
O178 O 0.88734 0.3841 0.64499 0.0
C179 C 0.79625 0.31776 0.68018 0.0
O180 O 0.81694 0.30501 0.66575 0.0
C181 C 0.82426 0.36651 0.58093 0.0
Zn182 Zn 0.62419 0.91028 0.6466 0.0
Zn183 Zn 0.64466 0.87217 0.6869 0.0
O184 O 0.60335 0.8672 0.69481 0.0
O185 O 0.58553 0.8962 0.65954 0.0
O186 O 0.66266 0.84335 0.7145 0.0
O187 O 0.64466 0.89354 0.60934 0.0
O188 O 0.65724 0.8598 0.64178 0.0
C189 C 0.5823 0.87822 0.68147 0.0
C190 C 0.65549 0.9345 0.69773 0.0
O191 O 0.65826 0.9092 0.70608 0.0
O192 O 0.6423 0.94062 0.67248 0.0
C193 C 0.68892 0.84092 0.7128 0.0
O194 O 0.70298 0.85792 0.69418 0.0
C195 C 0.65664 0.87052 0.61391 0.0
Zn196 Zn 0.10396 0.59861 0.67922 0.0
Zn197 Zn 0.13421 0.63618 0.71049 0.0
O198 O 0.14682 0.60068 0.73387 0.0
O199 O 0.12159 0.56984 0.70746 0.0
O200 O 0.15668 0.66749 0.72921 0.0
O201 O 0.1223 0.60639 0.63753 0.0
O202 O 0.14612 0.63885 0.66272 0.0
C203 C 0.13928 0.57564 0.7289 0.0
C204 C 0.07028 0.63743 0.71322 0.0
O205 O 0.09395 0.64615 0.72261 0.0
O206 O 0.06867 0.61796 0.69286 0.0
C207 C 0.18221 0.66959 0.7216 0.0
O208 O 0.19364 0.64991 0.70414 0.0
C209 C 0.1403 0.62553 0.6372 0.0
Zn210 Zn 0.38802 0.14526 0.61464 0.0
Zn211 Zn 0.35051 0.17533 0.64707 0.0
O212 O 0.3882 0.18665 0.66682 0.0
O213 O 0.41925 0.16196 0.64045 0.0
O214 O 0.32334 0.19981 0.67014 0.0
O215 O 0.37634 0.16324 0.57335 0.0
O216 O 0.34219 0.18355 0.59962 0.0
C217 C 0.4134 0.17954 0.66203 0.0
C218 C 0.34724 0.11252 0.65041 0.0
O219 O 0.33875 0.13624 0.65973 0.0
O220 O 0.36737 0.11071 0.6308 0.0
C221 C 0.29765 0.19874 0.66314 0.0
O222 O 0.28923 0.18128 0.64092 0.0
C223 C 0.35465 0.17809 0.57343 0.0
H224 H 0.28272 0.15673 0.22511 0.0
H225 H 0.24211 0.31785 0.2153 0.0
H226 H 0.32512 0.22151 0.27768 0.0
H227 H 0.19886 0.25303 0.16374 0.0
H228 H 0.2734 0.28292 0.23749 0.0
H229 H 0.25276 0.19188 0.20096 0.0
C230 C 0.28584 0.17836 0.23144 0.0
C231 C 0.30641 0.18619 0.25353 0.0
C232 C 0.25707 0.27633 0.22132 0.0
C233 C 0.27209 0.2265 0.22612 0.0
C234 C 0.23916 0.29626 0.20868 0.0
C235 C 0.21781 0.28834 0.18766 0.0
C236 C 0.25362 0.24826 0.21289 0.0
C237 C 0.215 0.26008 0.17989 0.0
C238 C 0.26868 0.19841 0.2177 0.0
C239 C 0.3095 0.21451 0.26082 0.0
N240 N 0.23271 0.24106 0.19251 0.0
N241 N 0.29247 0.23362 0.24723 0.0
H242 H 0.83931 0.27276 0.23596 0.0
H243 H 0.68872 0.2024 0.25275 0.0
H244 H 0.77322 0.30699 0.29395 0.0
H245 H 0.75566 0.16802 0.19618 0.0
H246 H 0.71907 0.24114 0.26785 0.0
H247 H 0.80836 0.23494 0.21993 0.0
C248 C 0.81823 0.27246 0.24514 0.0
C249 C 0.80889 0.29307 0.26641 0.0
C250 C 0.72712 0.22508 0.25219 0.0
C251 C 0.77337 0.24962 0.24837 0.0
C252 C 0.70983 0.2029 0.24365 0.0
C253 C 0.71965 0.18191 0.22317 0.0
C254 C 0.75441 0.2263 0.24013 0.0
C255 C 0.74717 0.1837 0.21203 0.0
C256 C 0.80058 0.25078 0.23607 0.0
C257 C 0.78134 0.29155 0.27754 0.0
N258 N 0.76354 0.20551 0.2206 0.0
N259 N 0.76459 0.27015 0.26849 0.0
H260 H 0.80074 0.67922 0.24211 0.0
H261 H 0.75256 0.8292 0.30314 0.0
H262 H 0.85302 0.75213 0.23663 0.0
H263 H 0.69532 0.76203 0.28368 0.0
H264 H 0.7908 0.80006 0.28409 0.0
H265 H 0.7631 0.70802 0.26332 0.0
C266 C 0.80438 0.70124 0.24558 0.0
C267 C 0.83004 0.71332 0.23749 0.0
C268 C 0.76986 0.79174 0.28394 0.0
C269 C 0.78705 0.74635 0.26168 0.0
C270 C 0.74802 0.80834 0.29483 0.0
C271 C 0.7207 0.79805 0.29494 0.0
C272 C 0.76438 0.76455 0.2734 0.0
C273 C 0.71605 0.77086 0.28389 0.0
C274 C 0.78284 0.71769 0.25753 0.0
C275 C 0.83354 0.74198 0.24242 0.0
N276 N 0.73769 0.75501 0.27369 0.0
N277 N 0.81229 0.75753 0.25422 0.0
H278 H 0.30114 0.76191 0.15999 0.0
H279 H 0.23117 0.70678 0.3221 0.0
H280 H 0.32374 0.79186 0.25406 0.0
H281 H 0.20657 0.67962 0.22758 0.0
H282 H 0.2649 0.73837 0.29774 0.0
H283 H 0.26628 0.73177 0.18446 0.0
C284 C 0.29879 0.76215 0.18582 0.0
C285 C 0.31544 0.77942 0.20502 0.0
C286 C 0.25208 0.72556 0.28232 0.0
C287 C 0.27547 0.74491 0.23322 0.0
C288 C 0.23279 0.70751 0.29621 0.0
C289 C 0.21605 0.69046 0.27684 0.0
C290 C 0.25471 0.72654 0.24881 0.0
C291 C 0.21905 0.69234 0.24345 0.0
C292 C 0.27883 0.74494 0.19977 0.0
C293 C 0.31139 0.77887 0.23834 0.0
N294 N 0.23806 0.70999 0.23051 0.0
N295 N 0.29184 0.76186 0.25139 0.0
H296 H 0.74444 0.82872 0.71227 0.0
H297 H 0.72818 0.69316 0.82191 0.0
H298 H 0.66609 0.8012 0.75193 0.0
H299 H 0.80544 0.71888 0.77804 0.0
H300 H 0.70529 0.73351 0.7982 0.0
H301 H 0.76746 0.78967 0.7383 0.0
C302 C 0.73208 0.81454 0.72657 0.0
C303 C 0.70327 0.81819 0.72984 0.0
C304 C 0.72725 0.73032 0.79379 0.0
C305 C 0.72951 0.77333 0.75963 0.0
C306 C 0.74034 0.70728 0.8073 0.0
C307 C 0.76876 0.7026 0.80191 0.0
C308 C 0.74272 0.74885 0.77479 0.0
C309 C 0.78348 0.72161 0.7828 0.0
C310 C 0.74524 0.79219 0.74139 0.0
C311 C 0.68834 0.79916 0.74871 0.0
N312 N 0.77029 0.74388 0.76994 0.0
N313 N 0.70163 0.7775 0.76283 0.0
H314 H 0.23602 0.68213 0.70559 0.0
H315 H 0.22981 0.83572 0.77936 0.0
H316 H 0.16404 0.71582 0.75386 0.0
H317 H 0.30143 0.80274 0.72971 0.0
H318 H 0.20511 0.79225 0.76926 0.0
H319 H 0.26041 0.72604 0.71438 0.0
C320 C 0.22539 0.69868 0.71823 0.0
C321 C 0.19791 0.69527 0.72899 0.0
C322 C 0.22618 0.79455 0.76044 0.0
C323 C 0.22567 0.74573 0.73887 0.0
C324 C 0.24029 0.81943 0.76608 0.0
C325 C 0.26779 0.82287 0.75545 0.0
C326 C 0.23967 0.77286 0.7441 0.0
C327 C 0.28026 0.80102 0.73837 0.0
C328 C 0.2393 0.72381 0.72311 0.0
C329 C 0.1852 0.71749 0.74516 0.0
N330 N 0.26615 0.77689 0.73337 0.0
N331 N 0.19916 0.74178 0.74954 0.0
H332 H 0.21965 0.31752 0.79016 0.0
H333 H 0.24128 0.20175 0.65435 0.0
H334 H 0.15223 0.28134 0.73595 0.0
H335 H 0.30823 0.23734 0.70985 0.0
H336 H 0.20845 0.23183 0.6826 0.0
H337 H 0.25255 0.28961 0.75937 0.0
C338 C 0.21176 0.3038 0.77168 0.0
C339 C 0.18312 0.3017 0.76571 0.0
C340 C 0.23033 0.23309 0.68856 0.0
C341 C 0.22072 0.26956 0.73041 0.0
C342 C 0.24909 0.2159 0.67245 0.0
C343 C 0.27755 0.21696 0.6798 0.0
C344 C 0.24008 0.25148 0.7122 0.0
C345 C 0.28647 0.23575 0.70344 0.0
C346 C 0.23057 0.28783 0.75411 0.0
C347 C 0.17412 0.28359 0.74141 0.0
N348 N 0.2678 0.25222 0.71881 0.0
N349 N 0.19286 0.26814 0.72473 0.0
H350 H 0.69927 0.18949 0.77371 0.0
H351 H 0.75193 0.33836 0.7136 0.0
H352 H 0.65971 0.26698 0.79918 0.0
H353 H 0.79328 0.2614 0.68982 0.0
H354 H 0.71789 0.31236 0.74483 0.0
H355 H 0.73383 0.2153 0.74276 0.0
C356 C 0.69785 0.21194 0.77283 0.0
C357 C 0.67654 0.22611 0.78906 0.0
C358 C 0.7344 0.30112 0.7328 0.0
C359 C 0.71604 0.25575 0.75362 0.0
C360 C 0.75387 0.31596 0.71492 0.0
C361 C 0.77552 0.30203 0.69903 0.0
C362 C 0.7365 0.27209 0.73485 0.0
C363 C 0.77694 0.27299 0.70166 0.0
C364 C 0.71761 0.22665 0.75514 0.0
C365 C 0.67576 0.2552 0.78706 0.0
N366 N 0.75767 0.25897 0.71924 0.0
N367 N 0.69521 0.26905 0.76963 0.0
H368 H 0.09681 0.29406 0.93942 0.0
H369 H 0.19507 0.38085 0.02504 0.0
H370 H 0.16993 0.31903 0.88676 0.0
H371 H 0.16961 0.30607 0.07383 0.0
H372 H 0.18925 0.35693 0.97363 0.0
H373 H 0.12426 0.294 0.98877 0.0
C374 C 0.11889 0.29845 0.93811 0.0
C375 C 0.13109 0.30691 0.90921 0.0
C376 C 0.18594 0.34543 -0.00438 0.0
C377 C 0.16214 0.30798 0.96538 0.0
C378 C 0.18918 0.3591 0.02486 0.0
C379 C 0.18262 0.34538 0.05345 0.0
C380 C 0.1749 0.31839 -0.00486 0.0
C381 C 0.17486 0.31726 0.05214 0.0
C382 C 0.13455 0.2984 0.96621 0.0
C383 C 0.15976 0.31251 0.90869 0.0
N384 N 0.1702 0.30491 0.02332 0.0
N385 N 0.17414 0.31403 0.93664 0.0
H386 H 0.67671 0.16568 0.9236 0.0
H387 H 0.63836 0.18493 0.10816 0.0
H388 H 0.59491 0.18726 0.95794 0.0
H389 H 0.68628 0.11633 0.07128 0.0
H390 H 0.63706 0.20504 0.054 0.0
H391 H 0.69392 0.16732 0.97905 0.0
C392 C 0.66267 0.17184 0.94267 0.0
C393 C 0.63433 0.17601 0.93651 0.0
C394 C 0.64877 0.18617 0.05816 0.0
C395 C 0.65385 0.17835 -0.00076 0.0
C396 C 0.64966 0.17481 0.08893 0.0
C397 C 0.66231 0.14895 0.09381 0.0
C398 C 0.66113 0.17175 0.03259 0.0
C399 C 0.67625 0.13628 0.0682 0.0
C400 C 0.67247 0.17267 0.97416 0.0
C401 C 0.61685 0.18363 0.96194 0.0
N402 N 0.67508 0.14769 0.03849 0.0
N403 N 0.62684 0.18431 0.99234 0.0
H404 H 0.83873 0.68843 0.9243 0.0
H405 H 0.82137 0.6498 0.10895 0.0
H406 H 0.80285 0.61148 0.95752 0.0
H407 H 0.89639 0.68403 0.06817 0.0
H408 H 0.79891 0.65326 0.05617 0.0
H409 H 0.84337 0.7038 0.98027 0.0
C410 C 0.83076 0.67531 0.94332 0.0
C411 C 0.82068 0.64858 0.93659 0.0
C412 C 0.81995 0.66091 0.0592 0.0
C413 C 0.82556 0.66605 -5e-05 0.0
C414 C 0.8327 0.65905 0.08918 0.0
C415 C 0.86078 0.66638 0.09255 0.0
C416 C 0.83529 0.67078 0.03293 0.0
C417 C 0.87476 0.67794 0.06627 0.0
C418 C 0.83353 0.68402 0.97511 0.0
C419 C 0.81095 0.63215 0.96195 0.0
N420 N 0.86193 0.67959 0.03738 0.0
N421 N 0.81389 0.64104 0.99266 0.0
H422 H 0.31494 0.8315 0.05121 0.0
H423 H 0.34055 0.8231 0.86285 0.0
H424 H 0.39346 0.80812 0.00913 0.0
H425 H 0.30395 0.89418 0.90964 0.0
H426 H 0.34342 0.79958 0.91503 0.0
H427 H 0.29517 0.83585 -0.00288 0.0
C428 C 0.32763 0.82616 0.03062 0.0
C429 C 0.35587 0.8197 0.03434 0.0
C430 C 0.33382 0.8199 0.91352 0.0
C431 C 0.33342 0.82412 0.97314 0.0
C432 C 0.33206 0.83324 0.8839 0.0
C433 C 0.32225 0.86063 0.88227 0.0
C434 C 0.32502 0.83388 0.94124 0.0
C435 C 0.31184 0.87311 0.91015 0.0
C436 C 0.3164 0.82875 -7e-05 0.0
C437 C 0.37164 0.81335 0.00705 0.0
N438 N 0.31371 0.8597 0.93868 0.0
N439 N 0.36025 0.81595 0.97745 0.0
H440 H 0.1518 0.67517 0.60724 0.0
H441 H 0.19825 0.59161 0.45148 0.0
H442 H 0.16387 0.58664 0.59985 0.0
H443 H 0.16565 0.67488 0.44763 0.0
H444 H 0.20227 0.59565 0.50957 0.0
H445 H 0.17128 0.68051 0.55277 0.0
C446 C 0.15915 0.65702 0.59439 0.0
C447 C 0.15585 0.63039 0.60745 0.0
C448 C 0.19482 0.61335 0.49607 0.0
C449 C 0.17832 0.63626 0.54619 0.0
C450 C 0.19273 0.61107 0.46295 0.0
C451 C 0.18139 0.63285 0.44512 0.0
C452 C 0.18463 0.63723 0.5115 0.0
C453 C 0.17447 0.65767 0.46084 0.0
C454 C 0.17019 0.66004 0.56347 0.0
C455 C 0.16564 0.60746 0.5902 0.0
N456 N 0.17552 0.65899 0.49342 0.0
N457 N 0.17625 0.6109 0.56041 0.0
H458 H 0.37861 0.19905 0.51952 0.0
H459 H 0.3048 0.0976 0.42044 0.0
H460 H 0.30108 0.16786 0.55707 0.0
H461 H 0.33231 0.17216 0.37264 0.0
H462 H 0.30021 0.12401 0.47039 0.0
H463 H 0.36067 0.19297 0.46505 0.0
C464 C 0.35741 0.19196 0.51621 0.0
C465 C 0.34128 0.18381 0.54256 0.0
C466 C 0.30631 0.13481 0.44871 0.0
C467 C 0.32122 0.17565 0.48077 0.0
C468 C 0.30903 0.11973 0.42032 0.0
C469 C 0.31914 0.13277 0.39266 0.0
C470 C 0.31491 0.1627 0.44958 0.0
C471 C 0.32446 0.16144 0.39361 0.0
C472 C 0.34717 0.18849 0.48522 0.0
C473 C 0.31405 0.17442 0.53721 0.0
N474 N 0.32322 0.17533 0.42198 0.0
N475 N 0.30517 0.16959 0.50678 0.0
H476 H 0.89864 0.30833 0.42395 0.0
H477 H 0.80305 0.38908 0.52667 0.0
H478 H 0.82323 0.33833 0.38038 0.0
H479 H 0.83549 0.31285 0.5656 0.0
H480 H 0.8072 0.36952 0.47264 0.0
H481 H 0.87478 0.30661 0.4758 0.0
C482 C 0.87678 0.3137 0.42522 0.0
C483 C 0.86284 0.32366 0.39814 0.0
C484 C 0.81248 0.35668 0.49306 0.0
C485 C 0.83588 0.32275 0.45719 0.0
C486 C 0.81016 0.36786 0.52378 0.0
C487 C 0.819 0.35248 0.55032 0.0
C488 C 0.82487 0.33052 0.48896 0.0
C489 C 0.82837 0.32521 0.54555 0.0
C490 C 0.86316 0.31264 0.45471 0.0
C491 C 0.8346 0.33052 0.40086 0.0
N492 N 0.83196 0.31535 0.51526 0.0
N493 N 0.82223 0.33085 0.43019 0.0
H494 H 0.64685 0.816 0.60089 0.0
H495 H 0.68823 0.83474 0.41725 0.0
H496 H 0.68621 0.88946 0.56276 0.0
H497 H 0.60874 0.80381 0.44934 0.0
H498 H 0.7038 0.83673 0.47332 0.0
H499 H 0.65006 0.7942 0.54768 0.0
C500 C 0.65723 0.82704 0.58165 0.0
C501 C 0.666 0.85461 0.58585 0.0
C502 C 0.68336 0.82851 0.46784 0.0
C503 C 0.67007 0.82984 0.52571 0.0
C504 C 0.67452 0.82726 0.436 0.0
C505 C 0.6471 0.8194 0.42899 0.0
C506 C 0.66481 0.82122 0.49243 0.0
C507 C 0.62995 0.81023 0.454 0.0
C508 C 0.65893 0.81466 0.55141 0.0
C509 C 0.67899 0.86824 0.56021 0.0
N510 N 0.63899 0.81164 0.48477 0.0
N511 N 0.68039 0.8558 0.53103 0.0
H512 H 0.19471 0.58549 0.25819 0.0
H513 H 0.20726 0.42207 0.22651 0.0
H514 H 0.18071 0.52255 0.33002 0.0
H515 H 0.18336 0.48092 0.15359 0.0
H516 H 0.21421 0.46068 0.26394 0.0
H517 H 0.20664 0.54877 0.2195 0.0
C518 C 0.19479 0.56402 0.26599 0.0
C519 C 0.18636 0.55691 0.29713 0.0
C520 C 0.208 0.46511 0.23953 0.0
C521 C 0.20019 0.51516 0.2534 0.0
C522 C 0.20417 0.44313 0.2181 0.0
C523 C 0.19423 0.44827 0.18706 0.0
C524 C 0.20216 0.49237 0.22971 0.0
C525 C 0.1906 0.47601 0.17748 0.0
C526 C 0.20147 0.54315 0.24393 0.0
C527 C 0.18671 0.52882 0.30606 0.0
N528 N 0.19427 0.49704 0.19885 0.0
N529 N 0.19333 0.50894 0.28424 0.0
H530 H 0.57936 0.13951 0.26343 0.0
H531 H 0.41447 0.13879 0.24046 0.0
H532 H 0.53907 0.12802 0.17201 0.0
H533 H 0.45433 0.10967 0.32678 0.0
H534 H 0.46024 0.14899 0.21765 0.0
H535 H 0.53342 0.14263 0.28908 0.0
C536 C 0.56087 0.13826 0.2487 0.0
C537 C 0.56291 0.13324 0.21564 0.0
C538 C 0.45888 0.14069 0.24173 0.0
C539 C 0.51069 0.13699 0.24462 0.0
C540 C 0.4328 0.13493 0.25482 0.0
C541 C 0.43062 0.12299 0.28541 0.0
C542 C 0.48289 0.13486 0.25951 0.0
C543 C 0.45511 0.11852 0.30294 0.0
C544 C 0.53476 0.13987 0.26334 0.0
C545 C 0.53835 0.1316 0.19763 0.0
N546 N 0.48029 0.12434 0.28967 0.0
N547 N 0.51323 0.13339 0.21238 0.0
H548 H 0.88694 0.53591 0.16426 0.0
H549 H 0.87924 0.45212 0.32469 0.0
H550 H 0.861 0.57493 0.25259 0.0
H551 H 0.86407 0.41233 0.2336 0.0
H552 H 0.87327 0.49745 0.29911 0.0
H553 H 0.87958 0.49033 0.1889 0.0
C554 C 0.87942 0.53488 0.18872 0.0
C555 C 0.87477 0.55922 0.2065 0.0
C556 C 0.87078 0.47878 0.28484 0.0
C557 C 0.86671 0.50725 0.23489 0.0
C558 C 0.87426 0.45294 0.29939 0.0
C559 C 0.87231 0.42849 0.28117 0.0
C560 C 0.86603 0.48018 0.2517 0.0
C561 C 0.86571 0.4307 0.2485 0.0
C562 C 0.8751 0.50888 0.2027 0.0
C563 C 0.86487 0.55668 0.23805 0.0
N564 N 0.86333 0.45615 0.23464 0.0
N565 N 0.86163 0.53114 0.25144 0.0
H566 H 0.52527 0.81077 0.31878 0.0
H567 H 0.48635 0.81658 0.13765 0.0
H568 H 0.58735 0.80229 0.24464 0.0
H569 H 0.42677 0.79268 0.21006 0.0
H570 H 0.52396 0.80742 0.17547 0.0
H571 H 0.48916 0.80016 0.27952 0.0
C572 C 0.53132 0.80616 0.29431 0.0
C573 C 0.55928 0.80774 0.28483 0.0
C574 C 0.50271 0.80359 0.18289 0.0
C575 C 0.51803 0.79614 0.23963 0.0
C576 C 0.48122 0.80888 0.16133 0.0
C577 C 0.45339 0.80576 0.17089 0.0
C578 C 0.49629 0.79575 0.21446 0.0
C579 C 0.44793 0.79551 0.20176 0.0
C580 C 0.5107 0.80003 0.27192 0.0
C581 C 0.56601 0.80138 0.25291 0.0
N582 N 0.46918 0.79145 0.2227 0.0
N583 N 0.54545 0.79646 0.23125 0.0
H584 H 0.79849 0.59101 0.75165 0.0
H585 H 0.78471 0.42844 0.71688 0.0
H586 H 0.79969 0.52759 0.82466 0.0
H587 H 0.81942 0.48745 0.64989 0.0
H588 H 0.77301 0.46687 0.75289 0.0
H589 H 0.7888 0.55509 0.71136 0.0
C590 C 0.79585 0.56967 0.75934 0.0
C591 C 0.80032 0.56211 0.7914 0.0
C592 C 0.78266 0.47138 0.72999 0.0
C593 C 0.78926 0.52121 0.74566 0.0
C594 C 0.78929 0.44951 0.70937 0.0
C595 C 0.80359 0.45473 0.68063 0.0
C596 C 0.79011 0.49864 0.72163 0.0
C597 C 0.80886 0.48247 0.6721 0.0
C598 C 0.79051 0.54921 0.73634 0.0
C599 C 0.79679 0.53417 0.80008 0.0
N600 N 0.80241 0.5034 0.69271 0.0
N601 N 0.79176 0.51466 0.77727 0.0
H602 H 0.56815 0.85666 0.73976 0.0
H603 H 0.40427 0.86847 0.71426 0.0
H604 H 0.53237 0.88629 0.65133 0.0
H605 H 0.44427 0.8841 0.80508 0.0
H606 H 0.45021 0.86142 0.68971 0.0
H607 H 0.52136 0.85272 0.7625 0.0
C608 C 0.55044 0.86186 0.72492 0.0
C609 C 0.55413 0.8721 0.69371 0.0
C610 C 0.44878 0.86608 0.71508 0.0
C611 C 0.50075 0.86743 0.71952 0.0
C612 C 0.42268 0.86998 0.72911 0.0
C613 C 0.42059 0.8771 0.76166 0.0
C614 C 0.47276 0.86872 0.73395 0.0
C615 C 0.44504 0.87892 0.77982 0.0
C616 C 0.52382 0.85973 0.73799 0.0
C617 C 0.53043 0.87859 0.67561 0.0
N618 N 0.47016 0.87474 0.76572 0.0
N619 N 0.50468 0.87622 0.68882 0.0
H620 H 0.1037 0.44581 0.85399 0.0
H621 H 0.1657 0.52924 0.70915 0.0
H622 H 0.15352 0.40831 0.77938 0.0
H623 H 0.13307 0.56957 0.79339 0.0
H624 H 0.16848 0.48564 0.73875 0.0
H625 H 0.11984 0.49162 0.83671 0.0
C626 C 0.11827 0.44716 0.83422 0.0
C627 C 0.12677 0.4232 0.81765 0.0
C628 C 0.1614 0.5041 0.75118 0.0
C629 C 0.14531 0.47555 0.79777 0.0
C630 C 0.16002 0.529 0.73431 0.0
C631 C 0.14921 0.5528 0.74901 0.0
C632 C 0.15095 0.50286 0.78263 0.0
C633 C 0.14173 0.55155 0.78144 0.0
C634 C 0.1276 0.47333 0.82447 0.0
C635 C 0.14599 0.42621 0.79252 0.0
N636 N 0.1421 0.52674 0.79704 0.0
N637 N 0.15426 0.45191 0.78305 0.0
H638 H 0.40799 0.19839 0.72367 0.0
H639 H 0.57155 0.19214 0.75718 0.0
H640 H 0.46934 0.1813 0.65065 0.0
H641 H 0.50894 0.17316 0.82817 0.0
H642 H 0.53459 0.20338 0.71894 0.0
H643 H 0.44556 0.20457 0.76272 0.0
C644 C 0.42936 0.19663 0.71567 0.0
C645 C 0.43559 0.18893 0.684 0.0
C646 C 0.52904 0.19721 0.74308 0.0
C647 C 0.47846 0.19602 0.7284 0.0
C648 C 0.55007 0.1909 0.76494 0.0
C649 C 0.54326 0.1813 0.79574 0.0
C650 C 0.50108 0.19428 0.75228 0.0
C651 C 0.51508 0.18009 0.80451 0.0
C652 C 0.45074 0.19999 0.73799 0.0
C653 C 0.46365 0.18685 0.67495 0.0
N654 N 0.495 0.1863 0.78281 0.0
N655 N 0.48406 0.19013 0.69711 0.0
H656 H 0.61758 0.0452 0.84631 0.0
H657 H 0.6708 0.98738 0.68243 0.0
H658 H 0.66433 0.09589 0.77991 0.0
H659 H 0.65629 0.93332 0.76316 0.0
H660 H 0.67162 0.02721 0.71879 0.0
H661 H 0.63352 0.00364 0.81781 0.0
C662 C 0.63143 0.04759 0.82599 0.0
C663 C 0.63928 0.07409 0.81519 0.0
C664 C 0.6689 0.00658 0.7287 0.0
C665 C 0.65742 0.02672 0.78243 0.0
C666 C 0.66848 0.98387 0.70795 0.0
C667 C 0.66325 0.95713 0.71983 0.0
C668 C 0.66325 0.00259 0.76142 0.0
C669 C 0.66039 0.95365 0.75307 0.0
C670 C 0.64065 0.02386 0.80985 0.0
C671 C 0.6575 0.07591 0.78891 0.0
N672 N 0.65975 0.97624 0.77269 0.0
N673 N 0.66557 0.05259 0.77311 0.0
H674 H 0.89843 0.66039 0.76754 0.0
H675 H 0.06411 0.65477 0.77514 0.0
H676 H 0.94305 0.62683 0.84837 0.0
H677 H 0.01809 0.64047 0.68794 0.0
H678 H 0.01999 0.66061 0.80406 0.0
H679 H 0.9429 0.66868 0.74028 0.0
C680 C 0.91759 0.65521 0.77977 0.0
C681 C 0.91711 0.64262 0.8101 0.0
C682 C 0.01969 0.65676 0.77847 0.0
C683 C 0.96776 0.65247 0.77933 0.0
C684 C 0.04476 0.65367 0.76192 0.0
C685 C 0.04463 0.64694 0.72918 0.0
C686 C 0.99448 0.65369 0.76195 0.0
C687 C 0.01901 0.64544 0.71324 0.0
C688 C 0.94286 0.65988 0.76417 0.0
C689 C 0.94253 0.63627 0.82483 0.0
N690 N 0.99489 0.64867 0.72982 0.0
N691 N 0.96689 0.64122 0.80926 0.0
H692 H 0.35278 0.05901 0.62878 0.0
H693 H 0.30581 0.99419 0.79139 0.0
H694 H 0.31292 0.10783 0.70257 0.0
H695 H 0.31539 0.9444 0.70607 0.0
H696 H 0.30382 0.0359 0.75819 0.0
H697 H 0.33607 0.01671 0.65493 0.0
C698 C 0.34027 0.06085 0.6503 0.0
C699 C 0.33463 0.08698 0.6638 0.0
C700 C 0.30564 0.01582 0.74659 0.0
C701 C 0.31556 0.03866 0.69392 0.0
C702 C 0.30669 0.99202 0.76555 0.0
C703 C 0.311 0.96593 0.75141 0.0
C704 C 0.30973 0.01355 0.71335 0.0
C705 C 0.31203 0.96418 0.71786 0.0
C706 C 0.33057 0.03669 0.6651 0.0
C707 C 0.31801 0.08812 0.69149 0.0
N708 N 0.31214 0.98779 0.69996 0.0
N709 N 0.30948 0.06428 0.70595 0.0
H710 H 0.04799 0.32767 0.73689 0.0
H711 H 0.88242 0.33573 0.72187 0.0
H712 H 0.99254 0.32795 0.81837 0.0
H713 H 0.93877 0.3687 0.65069 0.0
H714 H 0.92242 0.32055 0.75353 0.0
H715 H 0.00757 0.32991 0.70125 0.0
C716 C 0.02732 0.32754 0.74726 0.0
C717 C 0.02359 0.32794 0.78064 0.0
C718 C 0.92595 0.33086 0.73082 0.0
C719 C 0.97747 0.33053 0.7401 0.0
C720 C 0.90318 0.33949 0.7127 0.0
C721 C 0.90728 0.35383 0.68378 0.0
C722 C 0.953 0.33627 0.71973 0.0
C723 C 0.93466 0.35804 0.67304 0.0
C724 C 0.00432 0.32903 0.72693 0.0
C725 C 0.99634 0.32792 0.79278 0.0
N726 N 0.9565 0.34939 0.69109 0.0
N727 N 0.97431 0.3294 0.77252 0.0
H728 H 0.32938 0.99526 0.30227 0.0
H729 H 0.36973 0.94025 0.13174 0.0
H730 H 0.32932 0.04891 0.21947 0.0
H731 H 0.33543 0.88605 0.20418 0.0
H732 H 0.35413 0.98043 0.16293 0.0
H733 H 0.32971 0.95484 0.26671 0.0
C734 C 0.32884 -0.0015 0.27658 0.0
C735 C 0.32957 0.02543 0.26377 0.0
C736 C 0.34966 0.95973 0.17174 0.0
C737 C 0.33069 0.97937 0.223 0.0
C738 C 0.35871 0.9368 0.15406 0.0
C739 C 0.35415 0.90978 0.16556 0.0
C740 C 0.33647 0.9556 0.20142 0.0
C741 C 0.33952 0.90652 0.19449 0.0
C742 C 0.32904 0.97544 0.2563 0.0
C743 C 0.32877 0.02848 0.23032 0.0
N744 N 0.3316 0.92918 0.21169 0.0
N745 N 0.32999 0.0057 0.21105 0.0
H746 H 0.94553 0.32768 0.22183 0.0
H747 H 0.11177 0.32894 0.21793 0.0
H748 H 0.99697 0.32404 0.30634 0.0
H749 H 0.06071 0.36566 0.14425 0.0
H750 H 0.06962 0.31367 0.24572 0.0
H751 H 0.98768 0.32745 0.18853 0.0
C752 C 0.96564 0.32595 0.23332 0.0
C753 C 0.96788 0.32615 0.26684 0.0
C754 C 0.06771 0.3248 0.22328 0.0
C755 C 0.01587 0.32604 0.22911 0.0
C756 C 0.09172 0.33352 0.20738 0.0
C757 C 0.08974 0.34899 0.17896 0.0
C758 C 0.04154 0.33129 0.21051 0.0
C759 C 0.06319 0.35416 0.16635 0.0
C760 C 0.98963 0.3261 0.21435 0.0
C761 C 0.99441 0.32418 0.28055 0.0
N762 N 0.04009 0.34546 0.18231 0.0
N763 N 0.01741 0.32444 0.26164 0.0
H764 H 0.63062 0.94533 0.34241 0.0
H765 H 0.67631 0.01563 0.1822 0.0
H766 H 0.67413 0.89979 0.26858 0.0
H767 H 0.66568 0.06316 0.26905 0.0
H768 H 0.67873 0.97313 0.21405 0.0
H769 H 0.64515 0.98885 0.31715 0.0
C770 C 0.64343 0.94448 0.32105 0.0
C771 C 0.65084 0.91888 0.30732 0.0
C772 C 0.67656 0.99289 0.22627 0.0
C773 C 0.6674 0.96859 0.27824 0.0
C774 C 0.67526 0.01714 0.2081 0.0
C775 C 0.67067 0.04284 0.22307 0.0
C776 C 0.67241 0.99429 0.25955 0.0
C777 C 0.66934 0.04372 0.25664 0.0
C778 C 0.65189 0.96933 0.30678 0.0
C779 C 0.66775 0.91904 0.27984 0.0
N780 N 0.66952 0.01967 0.27377 0.0
N781 N 0.67506 0.9435 0.26589 0.0
H782 H 0.05249 0.63892 0.35406 0.0
H783 H 0.99441 0.67105 0.18451 0.0
H784 H 0.10412 0.67515 0.28036 0.0
H785 H 0.941 0.66936 0.2677 0.0
H786 H 0.03467 0.67655 0.2196 0.0
H787 H 0.01121 0.65327 0.32434 0.0
C788 C 0.05512 0.65029 0.33186 0.0
C789 C 0.08175 0.65549 0.3194 0.0
C790 C 0.0141 0.67563 0.2302 0.0
C791 C 0.03464 0.67159 0.28506 0.0
C792 C 0.99113 0.67246 0.21017 0.0
C793 C 0.96443 0.66939 0.22329 0.0
C794 C 0.01039 0.67499 0.26358 0.0
C795 C 0.96128 0.67153 0.25664 0.0
C796 C 0.03155 0.6586 0.31498 0.0
C797 C 0.08397 0.67055 0.29072 0.0
N798 N 0.9841 0.67352 0.27574 0.0
N799 N 0.0607 0.67756 0.27414 0.0
loop_
_geom_bond_atom_site_label_1
_geom_bond_atom_site_label_2
_geom_bond_distance
_geom_bond_site_symmetry_2
_ccdc_geom_bond_type
Zn0 O3 2.031 . S
Zn0 O5 2.049 . S
Zn0 O10 2.067 . S
Zn1 O2 1.962 . S
Zn1 O4 1.986 . S
Zn1 O6 1.996 . S
Zn1 O9 1.943 . S
O2 Zn1 1.962 . S
O2 C7 1.254 . S
O3 Zn0 2.031 . S
O3 C7 1.269 . S
O4 Zn1 1.986 . S
O4 C11 1.262 . S
O5 Zn0 2.049 . S
O5 C13 1.260 . S
O6 Zn1 1.996 . S
O6 C13 1.257 . S
C7 O2 1.254 . S
C7 O3 1.269 . S
C8 O9 1.249 . S
C8 O10 1.270 . S
O9 Zn1 1.943 . S
O9 C8 1.249 . S
O10 Zn0 2.067 . S
O10 C8 1.270 . S
C11 O4 1.262 . S
C11 O12 1.232 . S
O12 C11 1.232 . S
C13 O5 1.260 . S
C13 O6 1.257 . S
Zn14 O17 2.031 . S
Zn14 O19 2.049 . S
Zn14 O24 2.067 . S
Zn15 O16 1.962 . S
Zn15 O18 1.986 . S
Zn15 O20 1.996 . S
Zn15 O23 1.943 . S
O16 Zn15 1.962 . S
O16 C21 1.254 . S
O17 Zn14 2.031 . S
O17 C21 1.269 . S
O18 Zn15 1.986 . S
O18 C25 1.262 . S
O19 Zn14 2.049 . S
O19 C27 1.260 . S
O20 Zn15 1.996 . S
O20 C27 1.257 . S
C21 O16 1.254 . S
C21 O17 1.269 . S
C22 O23 1.249 . S
C22 O24 1.270 . S
O23 Zn15 1.943 . S
O23 C22 1.249 . S
O24 Zn14 2.067 . S
O24 C22 1.270 . S
C25 O18 1.262 . S
C25 O26 1.232 . S
O26 C25 1.232 . S
C27 O19 1.260 . S
C27 O20 1.257 . S
Zn28 O31 2.031 . S
Zn28 O33 2.049 . S
Zn28 O38 2.067 . S
Zn29 O30 1.962 . S
Zn29 O32 1.986 . S
Zn29 O34 1.996 . S
Zn29 O37 1.943 . S
O30 Zn29 1.962 . S
O30 C35 1.254 . S
O31 Zn28 2.031 . S
O31 C35 1.269 . S
O32 Zn29 1.986 . S
O32 C39 1.262 . S
O33 Zn28 2.049 . S
O33 C41 1.260 . S
O34 Zn29 1.996 . S
O34 C41 1.257 . S
C35 O30 1.254 . S
C35 O31 1.269 . S
C36 O37 1.249 . S
C36 O38 1.270 . S
O37 Zn29 1.943 . S
O37 C36 1.249 . S
O38 Zn28 2.067 . S
O38 C36 1.270 . S
C39 O32 1.262 . S
C39 O40 1.232 . S
O40 C39 1.232 . S
C41 O33 1.260 . S
C41 O34 1.257 . S
Zn42 O45 2.031 . S
Zn42 O47 2.049 . S
Zn42 O52 2.067 . S
Zn43 O44 1.962 . S
Zn43 O46 1.986 . S
Zn43 O48 1.996 . S
Zn43 O51 1.943 . S
O44 Zn43 1.962 . S
O44 C49 1.254 . S
O45 Zn42 2.031 . S
O45 C49 1.269 . S
O46 Zn43 1.986 . S
O46 C53 1.262 . S
O47 Zn42 2.049 . S
O47 C55 1.260 . S
O48 Zn43 1.996 . S
O48 C55 1.257 . S
C49 O44 1.254 . S
C49 O45 1.269 . S
C50 O51 1.249 . S
C50 O52 1.270 . S
O51 Zn43 1.943 . S
O51 C50 1.249 . S
O52 Zn42 2.067 . S
O52 C50 1.270 . S
C53 O46 1.262 . S
C53 O54 1.232 . S
O54 C53 1.232 . S
C55 O47 1.260 . S
C55 O48 1.257 . S
Zn56 O59 2.031 . S
Zn56 O61 2.049 . S
Zn56 O66 2.067 . S
Zn57 O58 1.962 . S
Zn57 O60 1.986 . S
Zn57 O62 1.996 . S
Zn57 O65 1.943 . S
O58 Zn57 1.962 . S
O58 C63 1.254 . S
O59 Zn56 2.031 . S
O59 C63 1.269 . S
O60 Zn57 1.986 . S
O60 C67 1.262 . S
O61 Zn56 2.049 . S
O61 C69 1.260 . S
O62 Zn57 1.996 . S
O62 C69 1.257 . S
C63 O58 1.254 . S
C63 O59 1.269 . S
C64 O65 1.249 . S
C64 O66 1.270 . S
O65 Zn57 1.943 . S
O65 C64 1.249 . S
O66 Zn56 2.067 . S
O66 C64 1.270 . S
C67 O60 1.262 . S
C67 O68 1.232 . S
O68 C67 1.232 . S
C69 O61 1.260 . S
C69 O62 1.257 . S
Zn70 O73 2.031 . S
Zn70 O75 2.049 . S
Zn70 O80 2.067 . S
Zn71 O72 1.962 . S
Zn71 O74 1.986 . S
Zn71 O76 1.996 . S
Zn71 O79 1.943 . S
O72 Zn71 1.962 . S
O72 C77 1.254 . S
O73 Zn70 2.031 . S
O73 C77 1.269 . S
O74 Zn71 1.986 . S
O74 C81 1.262 . S
O75 Zn70 2.049 . S
O75 C83 1.260 . S
O76 Zn71 1.996 . S
O76 C83 1.257 . S
C77 O72 1.254 . S
C77 O73 1.269 . S
C78 O79 1.249 . S
C78 O80 1.270 . S
O79 Zn71 1.943 . S
O79 C78 1.249 . S
O80 Zn70 2.067 . S
O80 C78 1.270 . S
C81 O74 1.262 . S
C81 O82 1.232 . S
O82 C81 1.232 . S
C83 O75 1.260 . S
C83 O76 1.257 . S
Zn84 O87 2.031 . S
Zn84 O89 2.049 . S
Zn84 O94 2.067 . S
Zn85 O86 1.962 . S
Zn85 O88 1.986 . S
Zn85 O90 1.996 . S
Zn85 O93 1.943 . S
O86 Zn85 1.962 . S
O86 C91 1.254 . S
O87 Zn84 2.031 . S
O87 C91 1.269 . S
O88 Zn85 1.986 . S
O88 C95 1.262 . S
O89 Zn84 2.049 . S
O89 C97 1.260 . S
O90 Zn85 1.996 . S
O90 C97 1.257 . S
C91 O86 1.254 . S
C91 O87 1.269 . S
C92 O93 1.249 . S
C92 O94 1.270 . S
O93 Zn85 1.943 . S
O93 C92 1.249 . S
O94 Zn84 2.067 . S
O94 C92 1.270 . S
C95 O88 1.262 . S
C95 O96 1.232 . S
O96 C95 1.232 . S
C97 O89 1.260 . S
C97 O90 1.257 . S
Zn98 O101 2.031 . S
Zn98 O103 2.049 . S
Zn98 O108 2.067 . S
Zn99 O100 1.962 . S
Zn99 O102 1.986 . S
Zn99 O104 1.996 . S
Zn99 O107 1.943 . S
O100 Zn99 1.962 . S
O100 C105 1.254 . S
O101 Zn98 2.031 . S
O101 C105 1.269 . S
O102 Zn99 1.986 . S
O102 C109 1.262 . S
O103 Zn98 2.049 . S
O103 C111 1.260 . S
O104 Zn99 1.996 . S
O104 C111 1.257 . S
C105 O100 1.254 . S
C105 O101 1.269 . S
C106 O107 1.249 . S
C106 O108 1.270 . S
O107 Zn99 1.943 . S
O107 C106 1.249 . S
O108 Zn98 2.067 . S
O108 C106 1.270 . S
C109 O102 1.262 . S
C109 O110 1.232 . S
O110 C109 1.232 . S
C111 O103 1.260 . S
C111 O104 1.257 . S
Zn112 O115 2.031 . S
Zn112 O117 2.049 . S
Zn112 O122 2.067 . S
Zn113 O114 1.962 . S
Zn113 O116 1.986 . S
Zn113 O118 1.996 . S
Zn113 O121 1.943 . S
O114 Zn113 1.962 . S
O114 C119 1.254 . S
O115 Zn112 2.031 . S
O115 C119 1.269 . S
O116 Zn113 1.986 . S
O116 C123 1.262 . S
O117 Zn112 2.049 . S
O117 C125 1.260 . S
O118 Zn113 1.996 . S
O118 C125 1.257 . S
C119 O114 1.254 . S
C119 O115 1.269 . S
C120 O121 1.249 . S
C120 O122 1.270 . S
O121 Zn113 1.943 . S
O121 C120 1.249 . S
O122 Zn112 2.067 . S
O122 C120 1.270 . S
C123 O116 1.262 . S
C123 O124 1.232 . S
O124 C123 1.232 . S
C125 O117 1.260 . S
C125 O118 1.257 . S
Zn126 O129 2.031 . S
Zn126 O131 2.049 . S
Zn126 O136 2.067 . S
Zn127 O128 1.962 . S
Zn127 O130 1.986 . S
Zn127 O132 1.996 . S
Zn127 O135 1.943 . S
O128 Zn127 1.962 . S
O128 C133 1.254 . S
O129 Zn126 2.031 . S
O129 C133 1.269 . S
O130 Zn127 1.986 . S
O130 C137 1.262 . S
O131 Zn126 2.049 . S
O131 C139 1.260 . S
O132 Zn127 1.996 . S
O132 C139 1.257 . S
C133 O128 1.254 . S
C133 O129 1.269 . S
C134 O135 1.249 . S
C134 O136 1.270 . S
O135 Zn127 1.943 . S
O135 C134 1.249 . S
O136 Zn126 2.067 . S
O136 C134 1.270 . S
C137 O130 1.262 . S
C137 O138 1.232 . S
O138 C137 1.232 . S
C139 O131 1.260 . S
C139 O132 1.257 . S
Zn140 O143 2.031 . S
Zn140 O145 2.049 . S
Zn140 O150 2.067 . S
Zn141 O142 1.962 . S
Zn141 O144 1.986 . S
Zn141 O146 1.996 . S
Zn141 O149 1.943 . S
O142 Zn141 1.962 . S
O142 C147 1.254 . S
O143 Zn140 2.031 . S
O143 C147 1.269 . S
O144 Zn141 1.986 . S
O144 C151 1.262 . S
O145 Zn140 2.049 . S
O145 C153 1.260 . S
O146 Zn141 1.996 . S
O146 C153 1.257 . S
C147 O142 1.254 . S
C147 O143 1.269 . S
C148 O149 1.249 . S
C148 O150 1.270 . S
O149 Zn141 1.943 . S
O149 C148 1.249 . S
O150 Zn140 2.067 . S
O150 C148 1.270 . S
C151 O144 1.262 . S
C151 O152 1.232 . S
O152 C151 1.232 . S
C153 O145 1.260 . S
C153 O146 1.257 . S
Zn154 O157 2.031 . S
Zn154 O159 2.049 . S
Zn154 O164 2.067 . S
Zn155 O156 1.962 . S
Zn155 O158 1.986 . S
Zn155 O160 1.996 . S
Zn155 O163 1.943 . S
O156 Zn155 1.962 . S
O156 C161 1.254 . S
O157 Zn154 2.031 . S
O157 C161 1.269 . S
O158 Zn155 1.986 . S
O158 C165 1.262 . S
O159 Zn154 2.049 . S
O159 C167 1.260 . S
O160 Zn155 1.996 . S
O160 C167 1.257 . S
C161 O156 1.254 . S
C161 O157 1.269 . S
C162 O163 1.249 . S
C162 O164 1.270 . S
O163 Zn155 1.943 . S
O163 C162 1.249 . S
O164 Zn154 2.067 . S
O164 C162 1.270 . S
C165 O158 1.262 . S
C165 O166 1.232 . S
O166 C165 1.232 . S
C167 O159 1.260 . S
C167 O160 1.257 . S
Zn168 O171 2.031 . S
Zn168 O173 2.049 . S
Zn168 O178 2.067 . S
Zn169 O170 1.962 . S
Zn169 O172 1.986 . S
Zn169 O174 1.996 . S
Zn169 O177 1.943 . S
O170 Zn169 1.962 . S
O170 C175 1.254 . S
O171 Zn168 2.031 . S
O171 C175 1.269 . S
O172 Zn169 1.986 . S
O172 C179 1.262 . S
O173 Zn168 2.049 . S
O173 C181 1.260 . S
O174 Zn169 1.996 . S
O174 C181 1.257 . S
C175 O170 1.254 . S
C175 O171 1.269 . S
C176 O177 1.249 . S
C176 O178 1.270 . S
O177 Zn169 1.943 . S
O177 C176 1.249 . S
O178 Zn168 2.067 . S
O178 C176 1.270 . S
C179 O172 1.262 . S
C179 O180 1.232 . S
O180 C179 1.232 . S
C181 O173 1.260 . S
C181 O174 1.257 . S
Zn182 O185 2.031 . S
Zn182 O187 2.049 . S
Zn182 O192 2.067 . S
Zn183 O184 1.962 . S
Zn183 O186 1.986 . S
Zn183 O188 1.996 . S
Zn183 O191 1.943 . S
O184 Zn183 1.962 . S
O184 C189 1.254 . S
O185 Zn182 2.031 . S
O185 C189 1.269 . S
O186 Zn183 1.986 . S
O186 C193 1.262 . S
O187 Zn182 2.049 . S
O187 C195 1.260 . S
O188 Zn183 1.996 . S
O188 C195 1.257 . S
C189 O184 1.254 . S
C189 O185 1.269 . S
C190 O191 1.249 . S
C190 O192 1.270 . S
O191 Zn183 1.943 . S
O191 C190 1.249 . S
O192 Zn182 2.067 . S
O192 C190 1.270 . S
C193 O186 1.262 . S
C193 O194 1.232 . S
O194 C193 1.232 . S
C195 O187 1.260 . S
C195 O188 1.257 . S
Zn196 O199 2.031 . S
Zn196 O201 2.049 . S
Zn196 O206 2.067 . S
Zn197 O198 1.962 . S
Zn197 O200 1.986 . S
Zn197 O202 1.996 . S
Zn197 O205 1.943 . S
O198 Zn197 1.962 . S
O198 C203 1.254 . S
O199 Zn196 2.031 . S
O199 C203 1.269 . S
O200 Zn197 1.986 . S
O200 C207 1.262 . S
O201 Zn196 2.049 . S
O201 C209 1.260 . S
O202 Zn197 1.996 . S
O202 C209 1.257 . S
C203 O198 1.254 . S
C203 O199 1.269 . S
C204 O205 1.249 . S
C204 O206 1.270 . S
O205 Zn197 1.943 . S
O205 C204 1.249 . S
O206 Zn196 2.067 . S
O206 C204 1.270 . S
C207 O200 1.262 . S
C207 O208 1.232 . S
O208 C207 1.232 . S
C209 O201 1.260 . S
C209 O202 1.257 . S
Zn210 O213 2.031 . S
Zn210 O215 2.049 . S
Zn210 O220 2.067 . S
Zn211 O212 1.962 . S
Zn211 O214 1.986 . S
Zn211 O216 1.996 . S
Zn211 O219 1.943 . S
O212 Zn211 1.962 . S
O212 C217 1.254 . S
O213 Zn210 2.031 . S
O213 C217 1.269 . S
O214 Zn211 1.986 . S
O214 C221 1.262 . S
O215 Zn210 2.049 . S
O215 C223 1.260 . S
O216 Zn211 1.996 . S
O216 C223 1.257 . S
C217 O212 1.254 . S
C217 O213 1.269 . S
C218 O219 1.249 . S
C218 O220 1.270 . S
O219 Zn211 1.943 . S
O219 C218 1.249 . S
O220 Zn210 2.067 . S
O220 C218 1.270 . S
C221 O214 1.262 . S
C221 O222 1.232 . S
O222 C221 1.232 . S
C223 O215 1.260 . S
C223 O216 1.257 . S
H224 C230 0.930 . S
H225 C234 0.930 . S
H226 C239 0.929 . S
H227 C237 0.929 . S
H228 C232 0.929 . S
H229 C238 0.929 . S
C230 H224 0.930 . S
C230 C231 1.367 . S
C230 C238 1.378 . S
C231 C230 1.367 . S
C231 C239 1.433 . S
C232 H228 0.929 . S
C232 C234 1.378 . S
C232 C236 1.350 . S
C233 C236 1.463 . S
C233 C238 1.350 . S
C233 N241 1.427 . S
C234 H225 0.930 . S
C234 C232 1.378 . S
C234 C235 1.367 . S
C235 C234 1.367 . S
C235 C237 1.433 . S
C236 C232 1.350 . S
C236 C233 1.463 . S
C236 N240 1.427 . S
C237 H227 0.929 . S
C237 C235 1.433 . S
C237 N240 1.384 . S
C238 H229 0.929 . S
C238 C230 1.378 . S
C238 C233 1.350 . S
C239 H226 0.929 . S
C239 C231 1.433 . S
C239 N241 1.384 . S
N240 C236 1.427 . S
N240 C237 1.384 . S
N241 C233 1.427 . S
N241 C239 1.384 . S
H242 C248 0.930 . S
H243 C252 0.930 . S
H244 C257 0.929 . S
H245 C255 0.929 . S
H246 C250 0.929 . S
H247 C256 0.929 . S
C248 H242 0.930 . S
C248 C249 1.367 . S
C248 C256 1.378 . S
C249 C248 1.367 . S
C249 C257 1.433 . S
C250 H246 0.929 . S
C250 C252 1.378 . S
C250 C254 1.350 . S
C251 C254 1.463 . S
C251 C256 1.350 . S
C251 N259 1.427 . S
C252 H243 0.930 . S
C252 C250 1.378 . S
C252 C253 1.367 . S
C253 C252 1.367 . S
C253 C255 1.433 . S
C254 C250 1.350 . S
C254 C251 1.463 . S
C254 N258 1.427 . S
C255 H245 0.929 . S
C255 C253 1.433 . S
C255 N258 1.384 . S
C256 H247 0.929 . S
C256 C248 1.378 . S
C256 C251 1.350 . S
C257 H244 0.929 . S
C257 C249 1.433 . S
C257 N259 1.384 . S
N258 C254 1.427 . S
N258 C255 1.384 . S
N259 C251 1.427 . S
N259 C257 1.384 . S
H260 C266 0.930 . S
H261 C270 0.930 . S
H262 C275 0.929 . S
H263 C273 0.929 . S
H264 C268 0.929 . S
H265 C274 0.929 . S
C266 H260 0.930 . S
C266 C267 1.367 . S
C266 C274 1.378 . S
C267 C266 1.367 . S
C267 C275 1.433 . S
C268 H264 0.929 . S
C268 C270 1.378 . S
C268 C272 1.350 . S
C269 C272 1.463 . S
C269 C274 1.350 . S
C269 N277 1.427 . S
C270 H261 0.930 . S
C270 C268 1.378 . S
C270 C271 1.367 . S
C271 C270 1.367 . S
C271 C273 1.433 . S
C272 C268 1.350 . S
C272 C269 1.463 . S
C272 N276 1.427 . S
C273 H263 0.929 . S
C273 C271 1.433 . S
C273 N276 1.384 . S
C274 H265 0.929 . S
C274 C266 1.378 . S
C274 C269 1.350 . S
C275 H262 0.929 . S
C275 C267 1.433 . S
C275 N277 1.384 . S
N276 C272 1.427 . S
N276 C273 1.384 . S
N277 C269 1.427 . S
N277 C275 1.384 . S
H278 C284 0.930 . S
H279 C288 0.930 . S
H280 C293 0.929 . S
H281 C291 0.929 . S
H282 C286 0.929 . S
H283 C292 0.929 . S
C284 H278 0.930 . S
C284 C285 1.367 . S
C284 C292 1.378 . S
C285 C284 1.367 . S
C285 C293 1.433 . S
C286 H282 0.929 . S
C286 C288 1.378 . S
C286 C290 1.350 . S
C287 C290 1.463 . S
C287 C292 1.350 . S
C287 N295 1.427 . S
C288 H279 0.930 . S
C288 C286 1.378 . S
C288 C289 1.367 . S
C289 C288 1.367 . S
C289 C291 1.433 . S
C290 C286 1.350 . S
C290 C287 1.463 . S
C290 N294 1.427 . S
C291 H281 0.929 . S
C291 C289 1.433 . S
C291 N294 1.384 . S
C292 H283 0.929 . S
C292 C284 1.378 . S
C292 C287 1.350 . S
C293 H280 0.929 . S
C293 C285 1.433 . S
C293 N295 1.384 . S
N294 C290 1.427 . S
N294 C291 1.384 . S
N295 C287 1.427 . S
N295 C293 1.384 . S
H296 C302 0.930 . S
H297 C306 0.930 . S
H298 C311 0.929 . S
H299 C309 0.929 . S
H300 C304 0.929 . S
H301 C310 0.929 . S
C302 H296 0.930 . S
C302 C303 1.367 . S
C302 C310 1.378 . S
C303 C302 1.367 . S
C303 C311 1.433 . S
C304 H300 0.929 . S
C304 C306 1.378 . S
C304 C308 1.350 . S
C305 C308 1.463 . S
C305 C310 1.350 . S
C305 N313 1.427 . S
C306 H297 0.930 . S
C306 C304 1.378 . S
C306 C307 1.367 . S
C307 C306 1.367 . S
C307 C309 1.433 . S
C308 C304 1.350 . S
C308 C305 1.463 . S
C308 N312 1.427 . S
C309 H299 0.929 . S
C309 C307 1.433 . S
C309 N312 1.384 . S
C310 H301 0.929 . S
C310 C302 1.378 . S
C310 C305 1.350 . S
C311 H298 0.929 . S
C311 C303 1.433 . S
C311 N313 1.384 . S
N312 C308 1.427 . S
N312 C309 1.384 . S
N313 C305 1.427 . S
N313 C311 1.384 . S
H314 C320 0.930 . S
H315 C324 0.930 . S
H316 C329 0.929 . S
H317 C327 0.929 . S
H318 C322 0.929 . S
H319 C328 0.929 . S
C320 H314 0.930 . S
C320 C321 1.367 . S
C320 C328 1.378 . S
C321 C320 1.367 . S
C321 C329 1.433 . S
C322 H318 0.929 . S
C322 C324 1.378 . S
C322 C326 1.350 . S
C323 C326 1.463 . S
C323 C328 1.350 . S
C323 N331 1.427 . S
C324 H315 0.930 . S
C324 C322 1.378 . S
C324 C325 1.367 . S
C325 C324 1.367 . S
C325 C327 1.433 . S
C326 C322 1.350 . S
C326 C323 1.463 . S
C326 N330 1.427 . S
C327 H317 0.929 . S
C327 C325 1.433 . S
C327 N330 1.384 . S
C328 H319 0.929 . S
C328 C320 1.378 . S
C328 C323 1.350 . S
C329 H316 0.929 . S
C329 C321 1.433 . S
C329 N331 1.384 . S
N330 C326 1.427 . S
N330 C327 1.384 . S
N331 C323 1.427 . S
N331 C329 1.384 . S
H332 C338 0.930 . S
H333 C342 0.930 . S
H334 C347 0.929 . S
H335 C345 0.929 . S
H336 C340 0.929 . S
H337 C346 0.929 . S
C338 H332 0.930 . S
C338 C339 1.367 . S
C338 C346 1.378 . S
C339 C338 1.367 . S
C339 C347 1.433 . S
C340 H336 0.929 . S
C340 C342 1.378 . S
C340 C344 1.350 . S
C341 C344 1.463 . S
C341 C346 1.350 . S
C341 N349 1.427 . S
C342 H333 0.930 . S
C342 C340 1.378 . S
C342 C343 1.367 . S
C343 C342 1.367 . S
C343 C345 1.433 . S
C344 C340 1.350 . S
C344 C341 1.463 . S
C344 N348 1.427 . S
C345 H335 0.929 . S
C345 C343 1.433 . S
C345 N348 1.384 . S
C346 H337 0.929 . S
C346 C338 1.378 . S
C346 C341 1.350 . S
C347 H334 0.929 . S
C347 C339 1.433 . S
C347 N349 1.384 . S
N348 C344 1.427 . S
N348 C345 1.384 . S
N349 C341 1.427 . S
N349 C347 1.384 . S
H350 C356 0.930 . S
H351 C360 0.930 . S
H352 C365 0.929 . S
H353 C363 0.929 . S
H354 C358 0.929 . S
H355 C364 0.929 . S
C356 H350 0.930 . S
C356 C357 1.367 . S
C356 C364 1.378 . S
C357 C356 1.367 . S
C357 C365 1.433 . S
C358 H354 0.929 . S
C358 C360 1.378 . S
C358 C362 1.350 . S
C359 C362 1.463 . S
C359 C364 1.350 . S
C359 N367 1.427 . S
C360 H351 0.930 . S
C360 C358 1.378 . S
C360 C361 1.367 . S
C361 C360 1.367 . S
C361 C363 1.433 . S
C362 C358 1.350 . S
C362 C359 1.463 . S
C362 N366 1.427 . S
C363 H353 0.929 . S
C363 C361 1.433 . S
C363 N366 1.384 . S
C364 H355 0.929 . S
C364 C356 1.378 . S
C364 C359 1.350 . S
C365 H352 0.929 . S
C365 C357 1.433 . S
C365 N367 1.384 . S
N366 C362 1.427 . S
N366 C363 1.384 . S
N367 C359 1.427 . S
N367 C365 1.384 . S
H368 C374 0.930 . S
H369 C378 0.930 . S
H370 C383 0.929 . S
H371 C381 0.929 . S
H372 C376 0.929 . S
H373 C382 0.929 . S
C374 H368 0.930 . S
C374 C375 1.367 . S
C374 C382 1.378 . S
C375 C374 1.367 . S
C375 C383 1.433 . S
C376 H372 0.929 . S
C376 C378 1.378 . S
C376 C380 1.350 . S
C377 C380 1.463 1_556 S
C377 C382 1.350 . S
C377 N385 1.427 . S
C378 H369 0.930 . S
C378 C376 1.378 . S
C378 C379 1.367 . S
C379 C378 1.367 . S
C379 C381 1.433 . S
C380 C376 1.350 . S
C380 C377 1.463 1_554 S
C380 N384 1.427 . S
C381 H371 0.929 . S
C381 C379 1.433 . S
C381 N384 1.384 . S
C382 H373 0.929 . S
C382 C374 1.378 . S
C382 C377 1.350 . S
C383 H370 0.929 . S
C383 C375 1.433 . S
C383 N385 1.384 . S
N384 C380 1.427 . S
N384 C381 1.384 . S
N385 C377 1.427 . S
N385 C383 1.384 . S
H386 C392 0.930 . S
H387 C396 0.930 . S
H388 C401 0.929 . S
H389 C399 0.929 . S
H390 C394 0.929 . S
H391 C400 0.929 . S
C392 H386 0.930 . S
C392 C393 1.367 . S
C392 C400 1.378 . S
C393 C392 1.367 . S
C393 C401 1.433 . S
C394 H390 0.929 . S
C394 C396 1.378 . S
C394 C398 1.350 . S
C395 C398 1.463 1_556 S
C395 C400 1.350 . S
C395 N403 1.427 . S
C396 H387 0.930 . S
C396 C394 1.378 . S
C396 C397 1.367 . S
C397 C396 1.367 . S
C397 C399 1.433 . S
C398 C394 1.350 . S
C398 C395 1.463 1_554 S
C398 N402 1.427 . S
C399 H389 0.929 . S
C399 C397 1.433 . S
C399 N402 1.384 . S
C400 H391 0.929 . S
C400 C392 1.378 . S
C400 C395 1.350 . S
C401 H388 0.929 . S
C401 C393 1.433 . S
C401 N403 1.384 . S
N402 C398 1.427 . S
N402 C399 1.384 . S
N403 C395 1.427 . S
N403 C401 1.384 . S
H404 C410 0.930 . S
H405 C414 0.930 . S
H406 C419 0.929 . S
H407 C417 0.929 . S
H408 C412 0.929 . S
H409 C418 0.929 . S
C410 H404 0.930 . S
C410 C411 1.367 . S
C410 C418 1.378 . S
C411 C410 1.367 . S
C411 C419 1.433 . S
C412 H408 0.929 . S
C412 C414 1.378 . S
C412 C416 1.350 . S
C413 C416 1.463 1_556 S
C413 C418 1.350 . S
C413 N421 1.427 . S
C414 H405 0.930 . S
C414 C412 1.378 . S
C414 C415 1.367 . S
C415 C414 1.367 . S
C415 C417 1.433 . S
C416 C412 1.350 . S
C416 C413 1.463 1_554 S
C416 N420 1.427 . S
C417 H407 0.929 . S
C417 C415 1.433 . S
C417 N420 1.384 . S
C418 H409 0.929 . S
C418 C410 1.378 . S
C418 C413 1.350 . S
C419 H406 0.929 . S
C419 C411 1.433 . S
C419 N421 1.384 . S
N420 C416 1.427 . S
N420 C417 1.384 . S
N421 C413 1.427 . S
N421 C419 1.384 . S
H422 C428 0.930 . S
H423 C432 0.930 . S
H424 C437 0.929 . S
H425 C435 0.929 . S
H426 C430 0.929 . S
H427 C436 0.929 . S
C428 H422 0.930 . S
C428 C429 1.367 . S
C428 C436 1.378 . S
C429 C428 1.367 . S
C429 C437 1.433 . S
C430 H426 0.929 . S
C430 C432 1.378 . S
C430 C434 1.350 . S
C431 C434 1.463 1_554 S
C431 C436 1.350 . S
C431 N439 1.427 . S
C432 H423 0.930 . S
C432 C430 1.378 . S
C432 C433 1.367 . S
C433 C432 1.367 . S
C433 C435 1.433 . S
C434 C430 1.350 . S
C434 C431 1.463 1_556 S
C434 N438 1.427 . S
C435 H425 0.929 . S
C435 C433 1.433 . S
C435 N438 1.384 . S
C436 H427 0.929 . S
C436 C428 1.378 . S
C436 C431 1.350 . S
C437 H424 0.929 . S
C437 C429 1.433 . S
C437 N439 1.384 . S
N438 C434 1.427 . S
N438 C435 1.384 . S
N439 C431 1.427 . S
N439 C437 1.384 . S
H440 C446 0.930 . S
H441 C450 0.930 . S
H442 C455 0.929 . S
H443 C453 0.929 . S
H444 C448 0.929 . S
H445 C454 0.929 . S
C446 H440 0.930 . S
C446 C447 1.367 . S
C446 C454 1.378 . S
C447 C446 1.367 . S
C447 C455 1.433 . S
C448 H444 0.929 . S
C448 C450 1.378 . S
C448 C452 1.350 . S
C449 C452 1.463 . S
C449 C454 1.350 . S
C449 N457 1.427 . S
C450 H441 0.930 . S
C450 C448 1.378 . S
C450 C451 1.367 . S
C451 C450 1.367 . S
C451 C453 1.433 . S
C452 C448 1.350 . S
C452 C449 1.463 . S
C452 N456 1.427 . S
C453 H443 0.929 . S
C453 C451 1.433 . S
C453 N456 1.384 . S
C454 H445 0.929 . S
C454 C446 1.378 . S
C454 C449 1.350 . S
C455 H442 0.929 . S
C455 C447 1.433 . S
C455 N457 1.384 . S
N456 C452 1.427 . S
N456 C453 1.384 . S
N457 C449 1.427 . S
N457 C455 1.384 . S
H458 C464 0.930 . S
H459 C468 0.930 . S
H460 C473 0.929 . S
H461 C471 0.929 . S
H462 C466 0.929 . S
H463 C472 0.929 . S
C464 H458 0.930 . S
C464 C465 1.367 . S
C464 C472 1.378 . S
C465 C464 1.367 . S
C465 C473 1.433 . S
C466 H462 0.929 . S
C466 C468 1.378 . S
C466 C470 1.350 . S
C467 C470 1.463 . S
C467 C472 1.350 . S
C467 N475 1.427 . S
C468 H459 0.930 . S
C468 C466 1.378 . S
C468 C469 1.367 . S
C469 C468 1.367 . S
C469 C471 1.433 . S
C470 C466 1.350 . S
C470 C467 1.463 . S
C470 N474 1.427 . S
C471 H461 0.929 . S
C471 C469 1.433 . S
C471 N474 1.384 . S
C472 H463 0.929 . S
C472 C464 1.378 . S
C472 C467 1.350 . S
C473 H460 0.929 . S
C473 C465 1.433 . S
C473 N475 1.384 . S
N474 C470 1.427 . S
N474 C471 1.384 . S
N475 C467 1.427 . S
N475 C473 1.384 . S
H476 C482 0.930 . S
H477 C486 0.930 . S
H478 C491 0.929 . S
H479 C489 0.929 . S
H480 C484 0.929 . S
H481 C490 0.929 . S
C482 H476 0.930 . S
C482 C483 1.367 . S
C482 C490 1.378 . S
C483 C482 1.367 . S
C483 C491 1.433 . S
C484 H480 0.929 . S
C484 C486 1.378 . S
C484 C488 1.350 . S
C485 C488 1.463 . S
C485 C490 1.350 . S
C485 N493 1.427 . S
C486 H477 0.930 . S
C486 C484 1.378 . S
C486 C487 1.367 . S
C487 C486 1.367 . S
C487 C489 1.433 . S
C488 C484 1.350 . S
C488 C485 1.463 . S
C488 N492 1.427 . S
C489 H479 0.929 . S
C489 C487 1.433 . S
C489 N492 1.384 . S
C490 H481 0.929 . S
C490 C482 1.378 . S
C490 C485 1.350 . S
C491 H478 0.929 . S
C491 C483 1.433 . S
C491 N493 1.384 . S
N492 C488 1.427 . S
N492 C489 1.384 . S
N493 C485 1.427 . S
N493 C491 1.384 . S
H494 C500 0.930 . S
H495 C504 0.930 . S
H496 C509 0.929 . S
H497 C507 0.929 . S
H498 C502 0.929 . S
H499 C508 0.929 . S
C500 H494 0.930 . S
C500 C501 1.367 . S
C500 C508 1.378 . S
C501 C500 1.367 . S
C501 C509 1.433 . S
C502 H498 0.929 . S
C502 C504 1.378 . S
C502 C506 1.350 . S
C503 C506 1.463 . S
C503 C508 1.350 . S
C503 N511 1.427 . S
C504 H495 0.930 . S
C504 C502 1.378 . S
C504 C505 1.367 . S
C505 C504 1.367 . S
C505 C507 1.433 . S
C506 C502 1.350 . S
C506 C503 1.463 . S
C506 N510 1.427 . S
C507 H497 0.929 . S
C507 C505 1.433 . S
C507 N510 1.384 . S
C508 H499 0.929 . S
C508 C500 1.378 . S
C508 C503 1.350 . S
C509 H496 0.929 . S
C509 C501 1.433 . S
C509 N511 1.384 . S
N510 C506 1.427 . S
N510 C507 1.384 . S
N511 C503 1.427 . S
N511 C509 1.384 . S
H512 C518 0.930 . S
H513 C522 0.930 . S
H514 C527 0.929 . S
H515 C525 0.929 . S
H516 C520 0.929 . S
H517 C526 0.929 . S
C518 H512 0.930 . S
C518 C519 1.367 . S
C518 C526 1.378 . S
C519 C518 1.367 . S
C519 C527 1.433 . S
C520 H516 0.929 . S
C520 C522 1.378 . S
C520 C524 1.350 . S
C521 C524 1.463 . S
C521 C526 1.350 . S
C521 N529 1.427 . S
C522 H513 0.930 . S
C522 C520 1.378 . S
C522 C523 1.367 . S
C523 C522 1.367 . S
C523 C525 1.433 . S
C524 C520 1.350 . S
C524 C521 1.463 . S
C524 N528 1.427 . S
C525 H515 0.929 . S
C525 C523 1.433 . S
C525 N528 1.384 . S
C526 H517 0.929 . S
C526 C518 1.378 . S
C526 C521 1.350 . S
C527 H514 0.929 . S
C527 C519 1.433 . S
C527 N529 1.384 . S
N528 C524 1.427 . S
N528 C525 1.384 . S
N529 C521 1.427 . S
N529 C527 1.384 . S
H530 C536 0.930 . S
H531 C540 0.930 . S
H532 C545 0.929 . S
H533 C543 0.929 . S
H534 C538 0.929 . S
H535 C544 0.929 . S
C536 H530 0.930 . S
C536 C537 1.367 . S
C536 C544 1.378 . S
C537 C536 1.367 . S
C537 C545 1.433 . S
C538 H534 0.929 . S
C538 C540 1.378 . S
C538 C542 1.350 . S
C539 C542 1.463 . S
C539 C544 1.350 . S
C539 N547 1.427 . S
C540 H531 0.930 . S
C540 C538 1.378 . S
C540 C541 1.367 . S
C541 C540 1.367 . S
C541 C543 1.433 . S
C542 C538 1.350 . S
C542 C539 1.463 . S
C542 N546 1.427 . S
C543 H533 0.929 . S
C543 C541 1.433 . S
C543 N546 1.384 . S
C544 H535 0.929 . S
C544 C536 1.378 . S
C544 C539 1.350 . S
C545 H532 0.929 . S
C545 C537 1.433 . S
C545 N547 1.384 . S
N546 C542 1.427 . S
N546 C543 1.384 . S
N547 C539 1.427 . S
N547 C545 1.384 . S
H548 C554 0.930 . S
H549 C558 0.930 . S
H550 C563 0.929 . S
H551 C561 0.929 . S
H552 C556 0.929 . S
H553 C562 0.929 . S
C554 H548 0.930 . S
C554 C555 1.367 . S
C554 C562 1.378 . S
C555 C554 1.367 . S
C555 C563 1.433 . S
C556 H552 0.929 . S
C556 C558 1.378 . S
C556 C560 1.350 . S
C557 C560 1.463 . S
C557 C562 1.350 . S
C557 N565 1.427 . S
C558 H549 0.930 . S
C558 C556 1.378 . S
C558 C559 1.367 . S
C559 C558 1.367 . S
C559 C561 1.433 . S
C560 C556 1.350 . S
C560 C557 1.463 . S
C560 N564 1.427 . S
C561 H551 0.929 . S
C561 C559 1.433 . S
C561 N564 1.384 . S
C562 H553 0.929 . S
C562 C554 1.378 . S
C562 C557 1.350 . S
C563 H550 0.929 . S
C563 C555 1.433 . S
C563 N565 1.384 . S
N564 C560 1.427 . S
N564 C561 1.384 . S
N565 C557 1.427 . S
N565 C563 1.384 . S
H566 C572 0.930 . S
H567 C576 0.930 . S
H568 C581 0.929 . S
H569 C579 0.929 . S
H570 C574 0.929 . S
H571 C580 0.929 . S
C572 H566 0.930 . S
C572 C573 1.367 . S
C572 C580 1.378 . S
C573 C572 1.367 . S
C573 C581 1.433 . S
C574 H570 0.929 . S
C574 C576 1.378 . S
C574 C578 1.350 . S
C575 C578 1.463 . S
C575 C580 1.350 . S
C575 N583 1.427 . S
C576 H567 0.930 . S
C576 C574 1.378 . S
C576 C577 1.367 . S
C577 C576 1.367 . S
C577 C579 1.433 . S
C578 C574 1.350 . S
C578 C575 1.463 . S
C578 N582 1.427 . S
C579 H569 0.929 . S
C579 C577 1.433 . S
C579 N582 1.384 . S
C580 H571 0.929 . S
C580 C572 1.378 . S
C580 C575 1.350 . S
C581 H568 0.929 . S
C581 C573 1.433 . S
C581 N583 1.384 . S
N582 C578 1.427 . S
N582 C579 1.384 . S
N583 C575 1.427 . S
N583 C581 1.384 . S
H584 C590 0.930 . S
H585 C594 0.930 . S
H586 C599 0.929 . S
H587 C597 0.929 . S
H588 C592 0.929 . S
H589 C598 0.929 . S
C590 H584 0.930 . S
C590 C591 1.367 . S
C590 C598 1.378 . S
C591 C590 1.367 . S
C591 C599 1.433 . S
C592 H588 0.929 . S
C592 C594 1.378 . S
C592 C596 1.350 . S
C593 C596 1.463 . S
C593 C598 1.350 . S
C593 N601 1.427 . S
C594 H585 0.930 . S
C594 C592 1.378 . S
C594 C595 1.367 . S
C595 C594 1.367 . S
C595 C597 1.433 . S
C596 C592 1.350 . S
C596 C593 1.463 . S
C596 N600 1.427 . S
C597 H587 0.929 . S
C597 C595 1.433 . S
C597 N600 1.384 . S
C598 H589 0.929 . S
C598 C590 1.378 . S
C598 C593 1.350 . S
C599 H586 0.929 . S
C599 C591 1.433 . S
C599 N601 1.384 . S
N600 C596 1.427 . S
N600 C597 1.384 . S
N601 C593 1.427 . S
N601 C599 1.384 . S
H602 C608 0.930 . S
H603 C612 0.930 . S
H604 C617 0.929 . S
H605 C615 0.929 . S
H606 C610 0.929 . S
H607 C616 0.929 . S
C608 H602 0.930 . S
C608 C609 1.367 . S
C608 C616 1.378 . S
C609 C608 1.367 . S
C609 C617 1.433 . S
C610 H606 0.929 . S
C610 C612 1.378 . S
C610 C614 1.350 . S
C611 C614 1.463 . S
C611 C616 1.350 . S
C611 N619 1.427 . S
C612 H603 0.930 . S
C612 C610 1.378 . S
C612 C613 1.367 . S
C613 C612 1.367 . S
C613 C615 1.433 . S
C614 C610 1.350 . S
C614 C611 1.463 . S
C614 N618 1.427 . S
C615 H605 0.929 . S
C615 C613 1.433 . S
C615 N618 1.384 . S
C616 H607 0.929 . S
C616 C608 1.378 . S
C616 C611 1.350 . S
C617 H604 0.929 . S
C617 C609 1.433 . S
C617 N619 1.384 . S
N618 C614 1.427 . S
N618 C615 1.384 . S
N619 C611 1.427 . S
N619 C617 1.384 . S
H620 C626 0.930 . S
H621 C630 0.930 . S
H622 C635 0.929 . S
H623 C633 0.929 . S
H624 C628 0.929 . S
H625 C634 0.929 . S
C626 H620 0.930 . S
C626 C627 1.367 . S
C626 C634 1.378 . S
C627 C626 1.367 . S
C627 C635 1.433 . S
C628 H624 0.929 . S
C628 C630 1.378 . S
C628 C632 1.350 . S
C629 C632 1.463 . S
C629 C634 1.350 . S
C629 N637 1.427 . S
C630 H621 0.930 . S
C630 C628 1.378 . S
C630 C631 1.367 . S
C631 C630 1.367 . S
C631 C633 1.433 . S
C632 C628 1.350 . S
C632 C629 1.463 . S
C632 N636 1.427 . S
C633 H623 0.929 . S
C633 C631 1.433 . S
C633 N636 1.384 . S
C634 H625 0.929 . S
C634 C626 1.378 . S
C634 C629 1.350 . S
C635 H622 0.929 . S
C635 C627 1.433 . S
C635 N637 1.384 . S
N636 C632 1.427 . S
N636 C633 1.384 . S
N637 C629 1.427 . S
N637 C635 1.384 . S
H638 C644 0.930 . S
H639 C648 0.930 . S
H640 C653 0.929 . S
H641 C651 0.929 . S
H642 C646 0.929 . S
H643 C652 0.929 . S
C644 H638 0.930 . S
C644 C645 1.367 . S
C644 C652 1.378 . S
C645 C644 1.367 . S
C645 C653 1.433 . S
C646 H642 0.929 . S
C646 C648 1.378 . S
C646 C650 1.350 . S
C647 C650 1.463 . S
C647 C652 1.350 . S
C647 N655 1.427 . S
C648 H639 0.930 . S
C648 C646 1.378 . S
C648 C649 1.367 . S
C649 C648 1.367 . S
C649 C651 1.433 . S
C650 C646 1.350 . S
C650 C647 1.463 . S
C650 N654 1.427 . S
C651 H641 0.929 . S
C651 C649 1.433 . S
C651 N654 1.384 . S
C652 H643 0.929 . S
C652 C644 1.378 . S
C652 C647 1.350 . S
C653 H640 0.929 . S
C653 C645 1.433 . S
C653 N655 1.384 . S
N654 C650 1.427 . S
N654 C651 1.384 . S
N655 C647 1.427 . S
N655 C653 1.384 . S
H656 C662 0.930 . S
H657 C666 0.930 . S
H658 C671 0.929 . S
H659 C669 0.929 . S
H660 C664 0.929 . S
H661 C670 0.929 . S
C662 H656 0.930 . S
C662 C663 1.367 . S
C662 C670 1.378 . S
C663 C662 1.367 . S
C663 C671 1.433 . S
C664 H660 0.929 . S
C664 C666 1.378 . S
C664 C668 1.350 . S
C665 C668 1.463 1_545 S
C665 C670 1.350 . S
C665 N673 1.427 . S
C666 H657 0.930 . S
C666 C664 1.378 . S
C666 C667 1.367 . S
C667 C666 1.367 . S
C667 C669 1.433 . S
C668 C664 1.350 . S
C668 C665 1.463 1_565 S
C668 N672 1.427 . S
C669 H659 0.929 . S
C669 C667 1.433 . S
C669 N672 1.384 . S
C670 H661 0.929 . S
C670 C662 1.378 . S
C670 C665 1.350 . S
C671 H658 0.929 . S
C671 C663 1.433 . S
C671 N673 1.384 . S
N672 C668 1.427 . S
N672 C669 1.384 . S
N673 C665 1.427 . S
N673 C671 1.384 . S
H674 C680 0.930 . S
H675 C684 0.930 . S
H676 C689 0.929 . S
H677 C687 0.929 . S
H678 C682 0.929 . S
H679 C688 0.929 . S
C680 H674 0.930 . S
C680 C681 1.367 . S
C680 C688 1.378 . S
C681 C680 1.367 . S
C681 C689 1.433 . S
C682 H678 0.929 . S
C682 C684 1.378 . S
C682 C686 1.350 . S
C683 C686 1.463 1_655 S
C683 C688 1.350 . S
C683 N691 1.427 . S
C684 H675 0.930 . S
C684 C682 1.378 . S
C684 C685 1.367 . S
C685 C684 1.367 . S
C685 C687 1.433 . S
C686 C682 1.350 . S
C686 C683 1.463 1_455 S
C686 N690 1.427 . S
C687 H677 0.929 . S
C687 C685 1.433 . S
C687 N690 1.384 . S
C688 H679 0.929 . S
C688 C680 1.378 . S
C688 C683 1.350 . S
C689 H676 0.929 . S
C689 C681 1.433 . S
C689 N691 1.384 . S
N690 C686 1.427 . S
N690 C687 1.384 . S
N691 C683 1.427 . S
N691 C689 1.384 . S
H692 C698 0.930 . S
H693 C702 0.930 . S
H694 C707 0.929 . S
H695 C705 0.929 . S
H696 C700 0.929 . S
H697 C706 0.929 . S
C698 H692 0.930 . S
C698 C699 1.367 . S
C698 C706 1.378 . S
C699 C698 1.367 . S
C699 C707 1.433 . S
C700 H696 0.929 . S
C700 C702 1.378 . S
C700 C704 1.350 . S
C701 C704 1.463 1_545 S
C701 C706 1.350 . S
C701 N709 1.427 . S
C702 H693 0.930 . S
C702 C700 1.378 . S
C702 C703 1.367 . S
C703 C702 1.367 . S
C703 C705 1.433 . S
C704 C700 1.350 . S
C704 C701 1.463 1_565 S
C704 N708 1.427 . S
C705 H695 0.929 . S
C705 C703 1.433 . S
C705 N708 1.384 . S
C706 H697 0.929 . S
C706 C698 1.378 . S
C706 C701 1.350 . S
C707 H694 0.929 . S
C707 C699 1.433 . S
C707 N709 1.384 . S
N708 C704 1.427 . S
N708 C705 1.384 . S
N709 C701 1.427 . S
N709 C707 1.384 . S
H710 C716 0.930 . S
H711 C720 0.930 . S
H712 C725 0.929 . S
H713 C723 0.929 . S
H714 C718 0.929 . S
H715 C724 0.929 . S
C716 H710 0.930 . S
C716 C717 1.367 . S
C716 C724 1.378 . S
C717 C716 1.367 . S
C717 C725 1.433 . S
C718 H714 0.929 . S
C718 C720 1.378 . S
C718 C722 1.350 . S
C719 C722 1.463 1_455 S
C719 C724 1.350 . S
C719 N727 1.427 . S
C720 H711 0.930 . S
C720 C718 1.378 . S
C720 C721 1.367 . S
C721 C720 1.367 . S
C721 C723 1.433 . S
C722 C718 1.350 . S
C722 C719 1.463 1_655 S
C722 N726 1.427 . S
C723 H713 0.929 . S
C723 C721 1.433 . S
C723 N726 1.384 . S
C724 H715 0.929 . S
C724 C716 1.378 . S
C724 C719 1.350 . S
C725 H712 0.929 . S
C725 C717 1.433 . S
C725 N727 1.384 . S
N726 C722 1.427 . S
N726 C723 1.384 . S
N727 C719 1.427 . S
N727 C725 1.384 . S
H728 C734 0.930 . S
H729 C738 0.930 . S
H730 C743 0.929 . S
H731 C741 0.929 . S
H732 C736 0.929 . S
H733 C742 0.929 . S
C734 H728 0.930 . S
C734 C735 1.367 . S
C734 C742 1.378 . S
C735 C734 1.367 . S
C735 C743 1.433 . S
C736 H732 0.929 . S
C736 C738 1.378 . S
C736 C740 1.350 . S
C737 C740 1.463 1_545 S
C737 C742 1.350 . S
C737 N745 1.427 . S
C738 H729 0.930 . S
C738 C736 1.378 . S
C738 C739 1.367 . S
C739 C738 1.367 . S
C739 C741 1.433 . S
C740 C736 1.350 . S
C740 C737 1.463 1_565 S
C740 N744 1.427 . S
C741 H731 0.929 . S
C741 C739 1.433 . S
C741 N744 1.384 . S
C742 H733 0.929 . S
C742 C734 1.378 . S
C742 C737 1.350 . S
C743 H730 0.929 . S
C743 C735 1.433 . S
C743 N745 1.384 . S
N744 C740 1.427 . S
N744 C741 1.384 . S
N745 C737 1.427 . S
N745 C743 1.384 . S
H746 C752 0.930 . S
H747 C756 0.930 . S
H748 C761 0.929 . S
H749 C759 0.929 . S
H750 C754 0.929 . S
H751 C760 0.929 . S
C752 H746 0.930 . S
C752 C753 1.367 . S
C752 C760 1.378 . S
C753 C752 1.367 . S
C753 C761 1.433 . S
C754 H750 0.929 . S
C754 C756 1.378 . S
C754 C758 1.350 . S
C755 C758 1.463 1_655 S
C755 C760 1.350 . S
C755 N763 1.427 . S
C756 H747 0.930 . S
C756 C754 1.378 . S
C756 C757 1.367 . S
C757 C756 1.367 . S
C757 C759 1.433 . S
C758 C754 1.350 . S
C758 C755 1.463 1_455 S
C758 N762 1.427 . S
C759 H749 0.929 . S
C759 C757 1.433 . S
C759 N762 1.384 . S
C760 H751 0.929 . S
C760 C752 1.378 . S
C760 C755 1.350 . S
C761 H748 0.929 . S
C761 C753 1.433 . S
C761 N763 1.384 . S
N762 C758 1.427 . S
N762 C759 1.384 . S
N763 C755 1.427 . S
N763 C761 1.384 . S
H764 C770 0.930 . S
H765 C774 0.930 . S
H766 C779 0.929 . S
H767 C777 0.929 . S
H768 C772 0.929 . S
H769 C778 0.929 . S
C770 H764 0.930 . S
C770 C771 1.367 . S
C770 C778 1.378 . S
C771 C770 1.367 . S
C771 C779 1.433 . S
C772 H768 0.929 . S
C772 C774 1.378 . S
C772 C776 1.350 . S
C773 C776 1.463 1_565 S
C773 C778 1.350 . S
C773 N781 1.427 . S
C774 H765 0.930 . S
C774 C772 1.378 . S
C774 C775 1.367 . S
C775 C774 1.367 . S
C775 C777 1.433 . S
C776 C772 1.350 . S
C776 C773 1.463 1_545 S
C776 N780 1.427 . S
C777 H767 0.929 . S
C777 C775 1.433 . S
C777 N780 1.384 . S
C778 H769 0.929 . S
C778 C770 1.378 . S
C778 C773 1.350 . S
C779 H766 0.929 . S
C779 C771 1.433 . S
C779 N781 1.384 . S
N780 C776 1.427 . S
N780 C777 1.384 . S
N781 C773 1.427 . S
N781 C779 1.384 . S
H782 C788 0.930 . S
H783 C792 0.930 . S
H784 C797 0.929 . S
H785 C795 0.929 . S
H786 C790 0.929 . S
H787 C796 0.929 . S
C788 H782 0.930 . S
C788 C789 1.367 . S
C788 C796 1.378 . S
C789 C788 1.367 . S
C789 C797 1.433 . S
C790 H786 0.929 . S
C790 C792 1.378 . S
C790 C794 1.350 . S
C791 C794 1.463 1_455 S
C791 C796 1.350 . S
C791 N799 1.427 . S
C792 H783 0.930 . S
C792 C790 1.378 . S
C792 C793 1.367 . S
C793 C792 1.367 . S
C793 C795 1.433 . S
C794 C790 1.350 . S
C794 C791 1.463 1_655 S
C794 N798 1.427 . S
C795 H785 0.929 . S
C795 C793 1.433 . S
C795 N798 1.384 . S
C796 H787 0.929 . S
C796 C788 1.378 . S
C796 C791 1.350 . S
C797 H784 0.929 . S
C797 C789 1.433 . S
C797 N799 1.384 . S
N798 C794 1.427 . S
N798 C795 1.384 . S
N799 C791 1.427 . S
N799 C797 1.384 . S
C231 C81 1.313 . S
C235 C11 1.315 . S
C249 C95 1.314 . S
C253 C25 1.315 . S
C267 C39 1.315 . S
C271 C109 1.311 . S
C285 C53 1.313 . S
C289 C67 1.315 . S
C303 C193 1.314 . S
C307 C123 1.310 . S
C321 C207 1.310 . S
C325 C137 1.314 . S
C339 C151 1.310 . S
C343 C221 1.313 . S
C357 C165 1.315 . S
C361 C179 1.312 . S
C375 C153 1.394 . S
C379 C13 1.401 . S
C393 C167 1.400 . S
C397 C27 1.395 . S
C411 C125 1.405 . S
C415 C41 1.387 . S
C429 C55 1.403 . S
C433 C139 1.383 . S
C447 C209 1.403 . S
C451 C69 1.391 . S
C465 C223 1.391 . S
C469 C83 1.391 . S
C483 C97 1.384 . S
C487 C181 1.400 . S
C501 C195 1.393 . S
C505 C111 1.389 . S
C519 C64 1.585 . S
C523 C8 1.582 . S
C537 C22 1.583 . S
C541 C78 1.577 . S
C555 C36 1.575 . S
C559 C92 1.580 . S
C573 C106 1.575 . S
C577 C50 1.576 . S
C591 C119 1.223 . S
C595 C175 1.225 . S
C609 C189 1.223 . S
C613 C133 1.225 . S
C627 C147 1.215 . S
C631 C203 1.218 . S
C645 C217 1.226 . S
C649 C161 1.220 . S
C663 C162 1.576 . S
C667 C190 1.583 . S
C681 C120 1.585 . S
C685 C204 1.582 . S
C699 C218 1.575 . S
C703 C134 1.579 . S
C717 C148 1.577 . S
C721 C176 1.583 . S
C735 C77 1.215 . S
C739 C49 1.217 . S
C753 C91 1.224 . S
C757 C7 1.224 . S
C771 C105 1.218 . S
C775 C21 1.215 . S
C789 C63 1.215 . S
C793 C35 1.223 . S
