# Generated by pormake.
# Topology une, (4)-cn, num edge types: 1
# Building blocks:
#     Node 0, Type 0, BuildingBlock: KUFVIS_clean_sbu_0, # of connection points: 4
#     Node 1, Type 0, BuildingBlock: KUFVIS_clean_sbu_0, # of connection points: 4
#     Node 2, Type 0, BuildingBlock: KUFVIS_clean_sbu_0, # of connection points: 4
#     Node 3, Type 0, BuildingBlock: KUFVIS_clean_sbu_0, # of connection points: 4
#     Node 4, Type 0, BuildingBlock: KUFVIS_clean_sbu_0, # of connection points: 4
#     Node 5, Type 0, BuildingBlock: KUFVIS_clean_sbu_0, # of connection points: 4
#     Node 6, Type 0, BuildingBlock: KUFVIS_clean_sbu_0, # of connection points: 4
#     Node 7, Type 0, BuildingBlock: KUFVIS_clean_sbu_0, # of connection points: 4
#     Node 8, Type 0, BuildingBlock: KUFVIS_clean_sbu_0, # of connection points: 4
#     Node 9, Type 0, BuildingBlock: KUFVIS_clean_sbu_0, # of connection points: 4
#     Node 10, Type 0, BuildingBlock: KUFVIS_clean_sbu_0, # of connection points: 4
#     Node 11, Type 0, BuildingBlock: KUFVIS_clean_sbu_0, # of connection points: 4
#     Node 12, Type 0, BuildingBlock: KUFVIS_clean_sbu_0, # of connection points: 4
#     Node 13, Type 0, BuildingBlock: KUFVIS_clean_sbu_0, # of connection points: 4
#     Node 14, Type 0, BuildingBlock: KUFVIS_clean_sbu_0, # of connection points: 4
#     Node 15, Type 0, BuildingBlock: KUFVIS_clean_sbu_0, # of connection points: 4
#     Node 16, Type 0, BuildingBlock: KUFVIS_clean_sbu_0, # of connection points: 4
#     Node 17, Type 0, BuildingBlock: KUFVIS_clean_sbu_0, # of connection points: 4
#     Edge 18, Type (0, 0), BuildingBlock: ZUJKAS_clean_linker_0, # of connection points: 2
#     Edge 19, Type (0, 0), BuildingBlock: ZUJKAS_clean_linker_0, # of connection points: 2
#     Edge 20, Type (0, 0), BuildingBlock: ZUJKAS_clean_linker_0, # of connection points: 2
#     Edge 21, Type (0, 0), BuildingBlock: ZUJKAS_clean_linker_0, # of connection points: 2
#     Edge 22, Type (0, 0), BuildingBlock: ZUJKAS_clean_linker_0, # of connection points: 2
#     Edge 23, Type (0, 0), BuildingBlock: ZUJKAS_clean_linker_0, # of connection points: 2
#     Edge 24, Type (0, 0), BuildingBlock: ZUJKAS_clean_linker_0, # of connection points: 2
#     Edge 25, Type (0, 0), BuildingBlock: ZUJKAS_clean_linker_0, # of connection points: 2
#     Edge 26, Type (0, 0), BuildingBlock: ZUJKAS_clean_linker_0, # of connection points: 2
#     Edge 27, Type (0, 0), BuildingBlock: ZUJKAS_clean_linker_0, # of connection points: 2
#     Edge 28, Type (0, 0), BuildingBlock: ZUJKAS_clean_linker_0, # of connection points: 2
#     Edge 29, Type (0, 0), BuildingBlock: ZUJKAS_clean_linker_0, # of connection points: 2
#     Edge 30, Type (0, 0), BuildingBlock: ZUJKAS_clean_linker_0, # of connection points: 2
#     Edge 31, Type (0, 0), BuildingBlock: ZUJKAS_clean_linker_0, # of connection points: 2
#     Edge 32, Type (0, 0), BuildingBlock: ZUJKAS_clean_linker_0, # of connection points: 2
#     Edge 33, Type (0, 0), BuildingBlock: ZUJKAS_clean_linker_0, # of connection points: 2
#     Edge 34, Type (0, 0), BuildingBlock: ZUJKAS_clean_linker_0, # of connection points: 2
#     Edge 35, Type (0, 0), BuildingBlock: ZUJKAS_clean_linker_0, # of connection points: 2
#     Edge 36, Type (0, 0), BuildingBlock: ZUJKAS_clean_linker_0, # of connection points: 2
#     Edge 37, Type (0, 0), BuildingBlock: ZUJKAS_clean_linker_0, # of connection points: 2
#     Edge 38, Type (0, 0), BuildingBlock: ZUJKAS_clean_linker_0, # of connection points: 2
#     Edge 39, Type (0, 0), BuildingBlock: ZUJKAS_clean_linker_0, # of connection points: 2
#     Edge 40, Type (0, 0), BuildingBlock: ZUJKAS_clean_linker_0, # of connection points: 2
#     Edge 41, Type (0, 0), BuildingBlock: ZUJKAS_clean_linker_0, # of connection points: 2
#     Edge 42, Type (0, 0), BuildingBlock: ZUJKAS_clean_linker_0, # of connection points: 2
#     Edge 43, Type (0, 0), BuildingBlock: ZUJKAS_clean_linker_0, # of connection points: 2
#     Edge 44, Type (0, 0), BuildingBlock: ZUJKAS_clean_linker_0, # of connection points: 2
#     Edge 45, Type (0, 0), BuildingBlock: ZUJKAS_clean_linker_0, # of connection points: 2
#     Edge 46, Type (0, 0), BuildingBlock: ZUJKAS_clean_linker_0, # of connection points: 2
#     Edge 47, Type (0, 0), BuildingBlock: ZUJKAS_clean_linker_0, # of connection points: 2
#     Edge 48, Type (0, 0), BuildingBlock: ZUJKAS_clean_linker_0, # of connection points: 2
#     Edge 49, Type (0, 0), BuildingBlock: ZUJKAS_clean_linker_0, # of connection points: 2
#     Edge 50, Type (0, 0), BuildingBlock: ZUJKAS_clean_linker_0, # of connection points: 2
#     Edge 51, Type (0, 0), BuildingBlock: ZUJKAS_clean_linker_0, # of connection points: 2
#     Edge 52, Type (0, 0), BuildingBlock: ZUJKAS_clean_linker_0, # of connection points: 2
#     Edge 53, Type (0, 0), BuildingBlock: ZUJKAS_clean_linker_0, # of connection points: 2
# Relax obj value: 0.249
# Max RMSD: 0.168
# Mean RMSD: 0.160
data_MOF--net-une--node1-KUFVIS_clean_sbu_0--edge1-ZUJKAS_clean_linker_0
_symmetry_space_group_name_H-M    P1
_symmetry_Int_Tables_number       1
_symmetry_cell_setting            triclinic
loop_
_symmetry_equiv_pos_as_xyz
'x, y, z'
_cell_length_a     48.886883
_cell_length_b     49.92665
_cell_length_c     68.805157
_cell_angle_alpha  89.582738
_cell_angle_beta   89.202046
_cell_angle_gamma 119.6342
loop_
_atom_site_label
_atom_site_type_symbol
_atom_site_fract_x
_atom_site_fract_y
_atom_site_fract_z
_atom_type_partial_charge
Mn0 Mn 0.38866 0.09106 0.06009 0.0
Mn1 Mn 0.40744 0.10764 0.01237 0.0
C2 C 0.37065 0.11885 0.0427 0.0
C3 C 0.39536 0.10467 0.09286 0.0
C4 C 0.35659 0.04535 0.02728 0.0
O5 O 0.42506 0.08186 0.05679 0.0
O6 O 0.43464 0.09372 0.02476 0.0
C7 C 0.47044 0.16215 0.01733 0.0
N8 N 0.44114 0.14912 0.0097 0.0
C9 C 0.45306 0.19655 0.99337 0.0
C10 C 0.48346 0.21043 1.00092 0.0
C11 C 0.49214 0.19317 0.013 0.0
C12 C 0.43248 0.16556 0.99817 0.0
H13 H 0.47715 0.14898 0.02666 0.0
C14 C 0.43992 0.08412 0.04081 0.0
O15 O 0.37892 0.07604 0.08775 0.0
O16 O 0.41118 0.12447 0.07912 0.0
N17 N 0.38314 0.12144 0.99828 0.0
C18 C 0.35251 0.10499 0.99292 0.0
C19 C 0.33998 0.11898 0.98094 0.0
C20 C 0.35914 0.14958 0.97445 0.0
C21 C 0.39056 0.16603 0.98017 0.0
C22 C 0.40185 0.15078 0.99193 0.0
H23 H 0.3378 0.08137 0.99773 0.0
O24 O 0.3562 0.10389 0.05841 0.0
O25 O 0.39555 0.11739 0.03747 0.0
O26 O 0.36041 0.05162 0.04533 0.0
O27 O 0.37231 0.06485 0.01374 0.0
C28 C 0.41103 0.19707 0.97484 0.0
C29 C 0.44222 0.21236 0.98151 0.0
H30 H 0.50024 0.23437 0.99765 0.0
H31 H 0.5155 0.20377 0.01897 0.0
H32 H 0.31565 0.10618 0.97664 0.0
H33 H 0.34945 0.16026 0.96513 0.0
H34 H 0.40292 0.20951 0.96581 0.0
H35 H 0.45762 0.23634 0.97752 0.0
Mn36 Mn 0.89205 0.30375 0.05542 0.0
Mn37 Mn 0.87246 0.3021 0.00824 0.0
C38 C 0.8604 0.25738 0.04064 0.0
C39 C 0.88218 0.30084 0.08886 0.0
C40 C 0.93462 0.30961 0.02057 0.0
O41 O 0.90465 0.34914 0.05028 0.0
O42 O 0.89155 0.3444 0.01867 0.0
C43 C 0.82139 0.31664 0.01535 0.0
N44 N 0.8314 0.29779 0.00774 0.0
C45 C 0.77993 0.26341 0.99555 0.0
C46 C 0.76912 0.28258 1.00312 0.0
C47 C 0.78993 0.30927 0.01311 0.0
C48 C 0.81153 0.27196 0.99822 0.0
H49 H 0.83728 0.33709 0.0231 0.0
C50 C 0.9033 0.36062 0.03381 0.0
O51 O 0.91053 0.31133 0.08185 0.0
O52 O 0.86077 0.29696 0.07647 0.0
N53 N 0.85383 0.26298 0.99582 0.0
C54 C 0.86793 0.24683 0.98956 0.0
C55 C 0.85024 0.2193 0.97948 0.0
C56 C 0.81846 0.209 0.97561 0.0
C57 C 0.80471 0.22646 0.98173 0.0
C58 C 0.82354 0.25376 0.99165 0.0
H59 H 0.8924 0.25473 0.99242 0.0
O60 O 0.87611 0.25876 0.0559 0.0
O61 O 0.86295 0.28325 0.03438 0.0
O62 O 0.92966 0.31028 0.03876 0.0
O63 O 0.91461 0.30589 0.00762 0.0
C64 C 0.77292 0.21759 0.97867 0.0
C65 C 0.76052 0.236 0.98562 0.0
H66 H 0.74485 0.27695 1.00146 0.0
H67 H 0.78173 0.3241 0.01908 0.0
H68 H 0.86106 0.20602 0.97474 0.0
H69 H 0.80482 0.18762 0.96799 0.0
H70 H 0.75773 0.1965 0.97115 0.0
H71 H 0.73597 0.2288 0.98333 0.0
Mn72 Mn 0.70088 0.60036 0.07156 0.0
Mn73 Mn 0.69781 0.58135 0.02418 0.0
C74 C 0.74662 0.61836 0.05316 0.0
C75 C 0.70918 0.59429 0.10428 0.0
C76 C 0.68598 0.63199 0.03831 0.0
O77 O 0.65516 0.56503 0.0696 0.0
O78 O 0.65718 0.55521 0.03782 0.0
C79 C 0.69133 0.51985 0.031 0.0
N80 N 0.70655 0.54817 0.02221 0.0
C81 C 0.742 0.53563 0.00522 0.0
C82 C 0.72656 0.50623 0.01398 0.0
C83 C 0.70119 0.49835 0.02699 0.0
C84 C 0.73117 0.55609 0.00984 0.0
H85 H 0.67186 0.51376 0.04102 0.0
C86 C 0.64243 0.55033 0.05409 0.0
O87 O 0.69594 0.61023 0.09908 0.0
O88 O 0.71296 0.5783 0.09083 0.0
N89 N 0.73506 0.60444 0.00858 0.0
C90 C 0.74755 0.63384 1.00155 0.0
C91 C 0.77288 0.64525 0.98816 0.0
C92 C 0.78505 0.62633 0.9821 0.0
C93 C 0.77153 0.59603 0.98933 0.0
C94 C 0.74592 0.58573 1.00235 0.0
H95 H 0.73811 0.64839 0.00602 0.0
O96 O 0.74591 0.63202 0.06887 0.0
O97 O 0.72059 0.59371 0.04865 0.0
O98 O 0.68892 0.62838 0.05641 0.0
O99 O 0.68924 0.61597 0.02501 0.0
C100 C 0.78255 0.57569 0.98423 0.0
C101 C 0.76791 0.54556 0.99226 0.0
H102 H 0.7341 0.48959 0.01092 0.0
H103 H 0.68925 0.47576 0.03388 0.0
H104 H 0.783 0.66858 0.98251 0.0
H105 H 0.80478 0.63531 0.97189 0.0
H106 H 0.80244 0.58307 0.97428 0.0
H107 H 0.77679 0.53024 0.98839 0.0
Mn108 Mn 0.62347 0.9034 0.94609 0.0
Mn109 Mn 0.59948 0.88735 0.99318 0.0
C110 C 0.63776 0.8743 0.9653 0.0
C111 C 0.62029 0.89036 0.91327 0.0
C112 C 0.65306 0.94871 0.97948 0.0
O113 O 0.58792 0.91413 0.94706 0.0
O114 O 0.57554 0.90342 0.97901 0.0
C115 C 0.53595 0.83509 0.98576 0.0
N116 N 0.56416 0.84659 0.99469 0.0
C117 C 0.548 0.79805 0.01093 0.0
C118 C 0.51867 0.78576 1.00204 0.0
C119 C 0.51268 0.80434 0.98933 0.0
C120 C 0.57031 0.82882 0.00675 0.0
H121 H 0.53129 0.84927 0.97595 0.0
C122 C 0.57218 0.91307 0.96241 0.0
O123 O 0.63682 0.91877 0.91874 0.0
O124 O 0.60259 0.87045 0.92652 0.0
N125 N 0.62043 0.87148 0.00885 0.0
C126 C 0.65019 0.88662 0.01585 0.0
C127 C 0.6602 0.87106 0.02845 0.0
C128 C 0.63935 0.84033 0.03402 0.0
C129 C 0.60862 0.82545 0.02697 0.0
C130 C 0.6 0.8421 0.01442 0.0
H131 H 0.66623 0.91029 0.01169 0.0
O132 O 0.65445 0.88896 0.95008 0.0
O133 O 0.61307 0.87693 0.96896 0.0
O134 O 0.65051 0.94239 0.96143 0.0
O135 O 0.6362 0.92943 0.99286 0.0
C136 C 0.58624 0.79471 0.03181 0.0
C137 C 0.55605 0.78094 0.02367 0.0
H138 H 0.50064 0.76206 0.00478 0.0
H139 H 0.49016 0.79498 0.98233 0.0
H140 H 0.68392 0.88274 0.03388 0.0
H141 H 0.64719 0.82836 0.04368 0.0
H142 H 0.59208 0.78135 0.04166 0.0
H143 H 0.53921 0.75714 0.02729 0.0
Mn144 Mn 0.07738 0.70147 0.93733 0.0
Mn145 Mn 0.05184 0.75177 0.92729 0.0
C146 C 0.03827 0.70222 0.95612 0.0
C147 C 0.07074 0.65171 0.93656 0.0
C148 C 0.11183 0.76936 0.94888 0.0
O149 O 0.09575 0.71647 0.90965 0.0
O150 O 0.07666 0.74905 0.90524 0.0
C151 C 0.00773 0.71542 0.89644 0.0
N152 N 0.01332 0.73056 0.91357 0.0
C153 C 0.95963 0.71963 0.91618 0.0
C154 C 0.9534 0.70428 0.89843 0.0
C155 C 0.97753 0.70202 0.88857 0.0
C156 C 0.99016 0.73243 0.92333 0.0
H157 H 0.02615 0.71349 0.88889 0.0
C158 C 0.09251 0.73637 0.89951 0.0
O159 O 0.09748 0.67521 0.94131 0.0
O160 O 0.05007 0.65798 0.92953 0.0
N161 N 0.02729 0.75705 0.94723 0.0
C162 C 0.03695 0.77183 0.96446 0.0
C163 C 0.01539 0.77532 0.97638 0.0
C164 C 0.98436 0.76416 0.97028 0.0
C165 C 0.97517 0.74966 0.95228 0.0
C166 C 0.99765 0.74677 0.94106 0.0
H167 H 0.06086 0.78069 0.96913 0.0
O168 O 0.05479 0.69073 0.96294 0.0
O169 O 0.0446 0.71266 0.93832 0.0
O170 O 0.11046 0.74316 0.94794 0.0
O171 O 0.091 0.77488 0.94184 0.0
C172 C 0.94453 0.73776 0.94509 0.0
C173 C 0.93669 0.72253 0.92714 0.0
H174 H 0.93013 0.69392 0.89231 0.0
H175 H 0.97285 0.68999 0.87493 0.0
H176 H 0.0227 0.78664 0.99021 0.0
H177 H 0.96778 0.76681 0.97954 0.0
H178 H 0.92671 0.73995 0.95333 0.0
H179 H 0.91293 0.71306 0.92192 0.0
Mn180 Mn 0.28901 0.38574 0.94941 0.0
Mn181 Mn 0.29494 0.40928 0.99585 0.0
C182 C 0.24463 0.37295 0.9683 0.0
C183 C 0.27982 0.38815 0.91637 0.0
C184 C 0.30199 0.35502 0.98409 0.0
O185 O 0.33563 0.41942 0.95004 0.0
O186 O 0.33584 0.43109 0.98173 0.0
C187 C 0.30798 0.47253 0.98643 0.0
N188 N 0.29037 0.44512 0.99601 0.0
C189 C 0.25849 0.46349 0.01149 0.0
C190 C 0.27644 0.49201 1.00191 0.0
C191 C 0.30118 0.49648 0.98924 0.0
C192 C 0.26614 0.44038 0.00793 0.0
H193 H 0.32704 0.47606 0.97671 0.0
C194 C 0.34973 0.43415 0.9653 0.0
O195 O 0.29196 0.3718 0.92269 0.0
O196 O 0.27764 0.40651 0.92875 0.0
N197 N 0.25729 0.39032 0.01151 0.0
C198 C 0.24206 0.36133 0.01943 0.0
C199 C 0.21664 0.35304 0.03243 0.0
C200 C 0.2076 0.3748 0.03747 0.0
C201 C 0.22385 0.4046 0.02929 0.0
C202 C 0.24889 0.41148 0.01635 0.0
H203 H 0.24926 0.34468 0.01584 0.0
O204 O 0.24333 0.35648 0.95357 0.0
O205 O 0.27184 0.39682 0.97165 0.0
O206 O 0.2998 0.35828 0.96589 0.0
O207 O 0.29922 0.37196 0.99691 0.0
C208 C 0.21631 0.4278 0.03352 0.0
C209 C 0.23336 0.4571 0.02446 0.0
H210 H 0.27138 0.5106 0.00413 0.0
H211 H 0.31506 0.51837 0.98172 0.0
H212 H 0.20424 0.33002 0.0387 0.0
H213 H 0.18817 0.36838 0.04765 0.0
H214 H 0.19727 0.42329 0.04363 0.0
H215 H 0.22704 0.47459 0.02763 0.0
Mn216 Mn 0.05636 0.42137 0.39708 0.0
Mn217 Mn 0.08118 0.44132 0.35038 0.0
C218 C 0.04185 0.4516 0.3793 0.0
C219 C 0.0603 0.43283 0.43023 0.0
C220 C 0.02761 0.37852 0.36254 0.0
O221 O 0.09175 0.41042 0.39489 0.0
O222 O 0.10638 0.42587 0.36367 0.0
C223 C 0.14359 0.49473 0.3585 0.0
N224 N 0.11525 0.48278 0.34969 0.0
C225 C 0.12912 0.53193 0.3351 0.0
C226 C 0.15856 0.54473 0.3439 0.0
C227 C 0.16577 0.52606 0.35571 0.0
C228 C 0.10795 0.50059 0.33845 0.0
H229 H 0.14918 0.48045 0.3676 0.0
C230 C 0.10878 0.41402 0.37967 0.0
O231 O 0.04333 0.40471 0.42431 0.0
O232 O 0.07797 0.45314 0.41719 0.0
N233 N 0.05893 0.45668 0.33553 0.0
C234 C 0.02929 0.44089 0.32841 0.0
C235 C 0.01816 0.45636 0.31659 0.0
C236 C 0.03778 0.48774 0.31195 0.0
C237 C 0.06845 0.50331 0.31907 0.0
C238 C 0.07824 0.48669 0.33078 0.0
H239 H 0.01419 0.41673 0.33185 0.0
O240 O 0.02551 0.43619 0.39442 0.0
O241 O 0.0666 0.44934 0.37504 0.0
O242 O 0.02865 0.38359 0.38077 0.0
O243 O 0.04577 0.39862 0.3499 0.0
C244 C 0.08963 0.53472 0.31514 0.0
C245 C 0.11986 0.54908 0.32325 0.0
H246 H 0.17573 0.56889 0.34179 0.0
H247 H 0.18838 0.5358 0.36262 0.0
H248 H 0.9945 0.44414 0.31108 0.0
H249 H 0.02906 0.49964 0.30292 0.0
H250 H 0.08285 0.54812 0.30599 0.0
H251 H 0.13578 0.57333 0.32031 0.0
Mn252 Mn 0.56904 0.63671 0.38697 0.0
Mn253 Mn 0.54807 0.63512 0.3401 0.0
C254 C 0.5365 0.59035 0.37239 0.0
C255 C 0.55993 0.63403 0.42048 0.0
C256 C 0.6104 0.64204 0.3516 0.0
O257 O 0.58207 0.68222 0.38188 0.0
O258 O 0.56785 0.67747 0.35049 0.0
C259 C 0.49764 0.65027 0.34801 0.0
N260 N 0.50717 0.6312 0.34016 0.0
C261 C 0.45524 0.59715 0.32848 0.0
C262 C 0.44491 0.61655 0.33632 0.0
C263 C 0.4662 0.64318 0.34617 0.0
C264 C 0.48684 0.60541 0.33077 0.0
H265 H 0.51391 0.67069 0.35565 0.0
C266 C 0.5803 0.69372 0.36552 0.0
O267 O 0.5881 0.64416 0.41323 0.0
O268 O 0.53837 0.63039 0.40828 0.0
N269 N 0.52876 0.59596 0.32772 0.0
C270 C 0.54244 0.57959 0.32114 0.0
C271 C 0.52426 0.5521 0.31112 0.0
C272 C 0.49241 0.54206 0.30765 0.0
C273 C 0.47909 0.55974 0.31409 0.0
C274 C 0.4984 0.587 0.32393 0.0
H275 H 0.56696 0.5873 0.32369 0.0
O276 O 0.55256 0.5916 0.38744 0.0
O277 O 0.53922 0.61634 0.36624 0.0
O278 O 0.60607 0.64274 0.36987 0.0
O279 O 0.59001 0.6385 0.33896 0.0
C280 C 0.44728 0.55114 0.31142 0.0
C281 C 0.43534 0.56979 0.31866 0.0
H282 H 0.42067 0.61114 0.33496 0.0
H283 H 0.45838 0.65819 0.35233 0.0
H284 H 0.53475 0.53865 0.30613 0.0
H285 H 0.4784 0.52071 0.30007 0.0
H286 H 0.43173 0.53009 0.30398 0.0
H287 H 0.41078 0.5628 0.31667 0.0
Mn288 Mn 0.37149 0.93648 0.40418 0.0
Mn289 Mn 0.37128 0.91268 0.35825 0.0
C290 C 0.41795 0.94887 0.38803 0.0
C291 C 0.37627 0.93277 0.43767 0.0
C292 C 0.36309 0.96734 0.36785 0.0
O293 O 0.32495 0.90342 0.40126 0.0
O294 O 0.32888 0.88984 0.37051 0.0
C295 C 0.35911 0.85009 0.36879 0.0
N296 N 0.37733 0.87771 0.35958 0.0
C297 C 0.41355 0.86164 0.348 0.0
C298 C 0.39504 0.83292 0.35724 0.0
C299 C 0.36776 0.82717 0.36774 0.0
C300 C 0.40385 0.88364 0.34967 0.0
H301 H 0.33819 0.84562 0.37692 0.0
C302 C 0.31293 0.88762 0.38595 0.0
O303 O 0.36562 0.94995 0.43049 0.0
O304 O 0.37907 0.91429 0.42571 0.0
N305 N 0.41074 0.9327 0.34436 0.0
C306 C 0.42563 0.96136 0.33595 0.0
C307 C 0.45337 0.97077 0.3249 0.0
C308 C 0.46514 0.95043 0.32228 0.0
C309 C 0.44884 0.92071 0.33054 0.0
C310 C 0.42133 0.91262 0.3414 0.0
H311 H 0.41654 0.97699 0.33779 0.0
O312 O 0.41769 0.9651 0.40248 0.0
O313 O 0.39112 0.92546 0.38346 0.0
O314 O 0.36423 0.96505 0.38628 0.0
O315 O 0.36581 0.94924 0.35589 0.0
C316 C 0.45873 0.89873 0.32836 0.0
C317 C 0.44126 0.86932 0.33722 0.0
H318 H 0.40159 0.81516 0.35641 0.0
H319 H 0.35343 0.80512 0.37498 0.0
H320 H 0.46565 0.99365 0.31843 0.0
H321 H 0.48662 0.95781 0.31383 0.0
H322 H 0.47982 0.90426 0.31994 0.0
H323 H 0.44928 0.85273 0.3356 0.0
Mn324 Mn 0.29296 0.23679 0.27913 0.0
Mn325 Mn 0.27374 0.22005 0.32676 0.0
C326 C 0.30936 0.20766 0.29656 0.0
C327 C 0.28672 0.22382 0.24626 0.0
C328 C 0.32542 0.28197 0.31216 0.0
O329 O 0.25721 0.24701 0.28237 0.0
O330 O 0.24766 0.23545 0.31448 0.0
C331 C 0.20994 0.16697 0.32136 0.0
N332 N 0.23918 0.17893 0.32896 0.0
C333 C 0.22587 0.13044 0.34432 0.0
C334 C 0.19552 0.11766 0.3368 0.0
C335 C 0.18757 0.13598 0.3252 0.0
C336 C 0.24719 0.16142 0.33994 0.0
H337 H 0.20378 0.18095 0.3124 0.0
C338 C 0.24267 0.24532 0.29842 0.0
O339 O 0.30351 0.25228 0.2516 0.0
O340 O 0.27029 0.20388 0.25982 0.0
N341 N 0.29703 0.20478 0.3406 0.0
C342 C 0.32757 0.22037 0.34624 0.0
C343 C 0.33951 0.20512 0.35758 0.0
C344 C 0.3198 0.1742 0.36326 0.0
C345 C 0.28829 0.15884 0.3576 0.0
C346 C 0.27774 0.17519 0.34626 0.0
H347 H 0.34275 0.24418 0.34198 0.0
O348 O 0.32457 0.22268 0.28103 0.0
O349 O 0.28503 0.21014 0.3016 0.0
O350 O 0.32136 0.27577 0.29412 0.0
O351 O 0.30984 0.26251 0.32576 0.0
C352 C 0.26698 0.12789 0.36266 0.0
C353 C 0.23587 0.11361 0.35589 0.0
H354 H 0.17819 0.09377 0.33974 0.0
H355 H 0.16426 0.12624 0.31925 0.0
H356 H 0.36383 0.21717 0.36193 0.0
H357 H 0.32912 0.16248 0.37194 0.0
H358 H 0.27434 0.11475 0.37161 0.0
H359 H 0.21985 0.08966 0.35964 0.0
Mn360 Mn 0.74707 0.03214 0.27351 0.0
Mn361 Mn 0.7143 0.0778 0.27083 0.0
C362 C 0.70806 0.02605 0.29533 0.0
C363 C 0.74394 0.98437 0.26881 0.0
C364 C 0.77803 0.09819 0.28834 0.0
O365 O 0.7613 0.05128 0.24603 0.0
O366 O 0.73758 0.08038 0.2464 0.0
C367 C 0.66765 0.04324 0.24072 0.0
N368 N 0.67435 0.05576 0.25873 0.0
C369 C 0.61971 0.03875 0.26557 0.0
C370 C 0.61229 0.02602 0.24699 0.0
C371 C 0.63636 0.0282 0.23454 0.0
C372 C 0.65135 0.05367 0.27087 0.0
H373 H 0.68604 0.04459 0.2312 0.0
C374 C 0.75477 0.0708 0.23816 0.0
O375 O 0.77041 0.00843 0.27336 0.0
O376 O 0.7215 0.98953 0.26389 0.0
N377 N 0.69094 0.07755 0.29346 0.0
C378 C 0.70179 0.08923 0.31134 0.0
C379 C 0.68052 0.08787 0.32578 0.0
C380 C 0.64841 0.07478 0.32164 0.0
C381 C 0.63785 0.06322 0.30307 0.0
C382 C 0.66018 0.06545 0.28922 0.0
H383 H 0.72643 0.09923 0.31461 0.0
O384 O 0.72759 0.01672 0.29972 0.0
O385 O 0.71186 0.03896 0.2783 0.0
O386 O 0.77908 0.07355 0.28507 0.0
O387 O 0.75478 0.10184 0.28386 0.0
C388 C 0.60595 0.04886 0.29793 0.0
C389 C 0.59688 0.03659 0.2792 0.0
H390 H 0.58815 0.0142 0.24222 0.0
H391 H 0.63078 0.0182 0.22024 0.0
H392 H 0.68883 0.09677 0.34009 0.0
H393 H 0.63203 0.0735 0.33287 0.0
H394 H 0.58813 0.04665 0.30837 0.0
H395 H 0.57222 0.02516 0.27552 0.0
Mn396 Mn 0.96259 0.71427 0.27461 0.0
Mn397 Mn 0.96198 0.73483 0.32125 0.0
C398 C 0.91581 0.6993 0.29119 0.0
C399 C 0.95715 0.71944 0.24135 0.0
C400 C 0.97311 0.68263 0.30971 0.0
O401 O 0.00857 0.74858 0.27775 0.0
O402 O 0.00422 0.75974 0.30905 0.0
C403 C 0.97173 0.79723 0.31291 0.0
N404 N 0.95437 0.76886 0.32141 0.0
C405 C 0.91702 0.78242 0.33451 0.0
C406 C 0.93466 0.81189 0.32604 0.0
C407 C 0.96207 0.81928 0.31513 0.0
C408 C 0.92779 0.76141 0.33177 0.0
H409 H 0.99273 0.80294 0.30445 0.0
C410 C 0.02024 0.7636 0.29338 0.0
O411 O 0.96897 0.70284 0.24778 0.0
O412 O 0.95346 0.73663 0.25394 0.0
N413 N 0.92252 0.71264 0.33498 0.0
C414 C 0.90782 0.68299 0.34182 0.0
C415 C 0.87964 0.67171 0.3527 0.0
C416 C 0.86718 0.69116 0.3567 0.0
C417 C 0.88311 0.72178 0.34988 0.0
C418 C 0.91108 0.73172 0.33912 0.0
H419 H 0.9174 0.66801 0.33885 0.0
O420 O 0.91675 0.68411 0.27632 0.0
O421 O 0.9422 0.72309 0.29598 0.0
O422 O 0.97173 0.68585 0.2914 0.0
O423 O 0.96926 0.6993 0.32227 0.0
C424 C 0.87223 0.74277 0.35322 0.0
C425 C 0.88905 0.773 0.34543 0.0
H426 H 0.92728 0.82895 0.32771 0.0
H427 H 0.97572 0.84191 0.30846 0.0
H428 H 0.86756 0.64809 0.35798 0.0
H429 H 0.84535 0.68233 0.36501 0.0
H430 H 0.85082 0.73583 0.36164 0.0
H431 H 0.88022 0.78879 0.34788 0.0
Mn432 Mn 0.72549 0.7632 0.72791 0.0
Mn433 Mn 0.74169 0.78234 0.68023 0.0
C434 C 0.70668 0.79193 0.71256 0.0
C435 C 0.73401 0.77513 0.76084 0.0
C436 C 0.69143 0.71937 0.69459 0.0
O437 O 0.76145 0.75393 0.72263 0.0
O438 O 0.76964 0.76773 0.69081 0.0
C439 C 0.80493 0.83661 0.68488 0.0
N440 N 0.77513 0.82402 0.67809 0.0
C441 C 0.78552 0.87274 0.66442 0.0
C442 C 0.81642 0.88618 0.67114 0.0
C443 C 0.82613 0.86804 0.68145 0.0
C444 C 0.7655 0.84128 0.66821 0.0
H445 H 0.81242 0.82276 0.69289 0.0
C446 C 0.7755 0.75699 0.70619 0.0
O447 O 0.71722 0.74678 0.75527 0.0
O448 O 0.74932 0.79554 0.74729 0.0
N449 N 0.71649 0.79681 0.66789 0.0
C450 C 0.68564 0.78051 0.66294 0.0
C451 C 0.67204 0.79542 0.65285 0.0
C452 C 0.69038 0.82677 0.64774 0.0
C453 C 0.72222 0.84291 0.65268 0.0
C454 C 0.73453 0.82678 0.66261 0.0
H455 H 0.67146 0.7564 0.66682 0.0
O456 O 0.69314 0.7763 0.72825 0.0
O457 O 0.73118 0.79064 0.70619 0.0
O458 O 0.69613 0.72471 0.71271 0.0
O459 O 0.70666 0.73947 0.68123 0.0
C460 C 0.74207 0.87449 0.64846 0.0
C461 C 0.77368 0.88942 0.65436 0.0
H462 H 0.8328 0.91045 0.66859 0.0
H463 H 0.84988 0.87829 0.68677 0.0
H464 H 0.64746 0.7828 0.64907 0.0
H465 H 0.67975 0.83825 0.64008 0.0
H466 H 0.73315 0.88761 0.64089 0.0
H467 H 0.78861 0.91379 0.65122 0.0
Mn468 Mn 0.22993 0.9732 0.71715 0.0
Mn469 Mn 0.20999 0.97976 0.67119 0.0
C470 C 0.19982 0.92976 0.69904 0.0
C471 C 0.21966 0.96428 0.75057 0.0
C472 C 0.27353 0.98825 0.68141 0.0
O473 O 0.24091 0.01873 0.71598 0.0
O474 O 0.22674 0.01929 0.68497 0.0
C475 C 0.15632 0.98879 0.68196 0.0
N476 N 0.16794 0.97291 0.67211 0.0
C477 C 0.11745 0.93943 0.65839 0.0
C478 C 0.10494 0.95553 0.6683 0.0
C479 C 0.12444 0.98023 0.68021 0.0
C480 C 0.14928 0.9488 0.66088 0.0
H481 H 0.17126 0.00783 0.69108 0.0
C482 C 0.23836 0.03271 0.70098 0.0
O483 O 0.24814 0.97648 0.74344 0.0
O484 O 0.19806 0.96141 0.73864 0.0
N485 N 0.19357 0.94363 0.65572 0.0
C486 C 0.20949 0.93094 0.64689 0.0
C487 C 0.19356 0.90624 0.63424 0.0
C488 C 0.16164 0.89532 0.63046 0.0
C489 C 0.14586 0.90906 0.63949 0.0
C490 C 0.16298 0.93361 0.65195 0.0
H491 H 0.23418 0.93961 0.64949 0.0
O492 O 0.21549 0.92872 0.71372 0.0
O493 O 0.20134 0.95611 0.69549 0.0
O494 O 0.26821 0.98447 0.6997 0.0
O495 O 0.25326 0.9864 0.66915 0.0
C496 C 0.11389 0.89957 0.63649 0.0
C497 C 0.09962 0.91454 0.64608 0.0
H498 H 0.08041 0.9491 0.6669 0.0
H499 H 0.11495 0.99271 0.68795 0.0
H500 H 0.20591 0.89584 0.62726 0.0
H501 H 0.14956 0.8765 0.62051 0.0
H502 H 0.10004 0.88074 0.62687 0.0
H503 H 0.07497 0.90686 0.64378 0.0
Mn504 Mn 0.03005 0.26455 0.74384 0.0
Mn505 Mn 0.03294 0.24864 0.69631 0.0
C506 C 0.07779 0.28417 0.72753 0.0
C507 C 0.03502 0.25705 0.77684 0.0
C508 C 0.01794 0.29741 0.71003 0.0
O509 O 0.98509 0.22882 0.73979 0.0
O510 O 0.99103 0.22092 0.70812 0.0
C511 C 0.02747 0.18746 0.70261 0.0
N512 N 0.04309 0.21637 0.69464 0.0
C513 C 0.08155 0.2062 0.6794 0.0
C514 C 0.06575 0.17623 0.68733 0.0
C515 C 0.03865 0.16687 0.69904 0.0
C516 C 0.06935 0.22572 0.68352 0.0
H517 H 0.00667 0.18022 0.71164 0.0
C518 C 0.97439 0.21489 0.72374 0.0
O519 O 0.0217 0.27265 0.77109 0.0
O520 O 0.04055 0.24191 0.76359 0.0
N521 N 0.07179 0.27345 0.68243 0.0
C522 C 0.08451 0.30326 0.67614 0.0
C523 C 0.11177 0.31625 0.66425 0.0
C524 C 0.12532 0.29831 0.65867 0.0
C525 C 0.1115 0.26753 0.66505 0.0
C526 C 0.08423 0.25579 0.67676 0.0
H527 H 0.07397 0.31704 0.6802 0.0
O528 O 0.07503 0.29684 0.74317 0.0
O529 O 0.0526 0.2597 0.72181 0.0
O530 O 0.01911 0.29293 0.72822 0.0
O531 O 0.0231 0.28244 0.69685 0.0
C532 C 0.12395 0.24817 0.66046 0.0
C533 C 0.10907 0.21757 0.66771 0.0
H534 H 0.07429 0.16027 0.6846 0.0
H535 H 0.02641 0.14382 0.70529 0.0
H536 H 0.12227 0.34 0.65936 0.0
H537 H 0.14638 0.30841 0.64953 0.0
H538 H 0.14514 0.25668 0.65154 0.0
H539 H 0.11905 0.203 0.66426 0.0
Mn540 Mn 0.95902 0.57021 0.61617 0.0
Mn541 Mn 0.93543 0.5565 0.66341 0.0
C542 C 0.97219 0.54076 0.63587 0.0
C543 C 0.95444 0.55564 0.58356 0.0
C544 C 0.98989 0.61689 0.64869 0.0
O545 O 0.92463 0.58268 0.61708 0.0
O546 O 0.911 0.57163 0.64888 0.0
C547 C 0.87176 0.50365 0.65728 0.0
N548 N 0.90029 0.51574 0.66586 0.0
C549 C 0.88503 0.46806 0.68297 0.0
C550 C 0.85538 0.45515 0.67444 0.0
C551 C 0.84877 0.473 0.66148 0.0
C552 C 0.90702 0.49869 0.67819 0.0
H553 H 0.86663 0.51728 0.64729 0.0
C554 C 0.90839 0.58159 0.6322 0.0
O555 O 0.97204 0.58416 0.58854 0.0
O556 O 0.93658 0.53665 0.59715 0.0
N557 N 0.95705 0.54169 0.67935 0.0
C558 C 0.98705 0.55737 0.68593 0.0
C559 C 0.99767 0.54257 0.69873 0.0
C560 C 0.9772 0.51204 0.70488 0.0
C561 C 0.94623 0.49662 0.69823 0.0
C562 C 0.93698 0.51253 0.68548 0.0
H563 H 0.0028 0.5809 0.68133 0.0
O564 O 0.98872 0.55425 0.62036 0.0
O565 O 0.94828 0.54469 0.63946 0.0
O566 O 0.98777 0.60941 0.63085 0.0
O567 O 0.97196 0.59868 0.66219 0.0
C568 C 0.92422 0.46603 0.70364 0.0
C569 C 0.89372 0.45167 0.69591 0.0
H570 H 0.83758 0.43152 0.67764 0.0
H571 H 0.82599 0.46315 0.65476 0.0
H572 H 0.02157 0.55468 0.70385 0.0
H573 H 0.98551 0.50066 0.71468 0.0
H574 H 0.93058 0.45324 0.71363 0.0
H575 H 0.87717 0.428 0.69997 0.0
Mn576 Mn 0.40457 0.37731 0.60697 0.0
Mn577 Mn 0.38275 0.42902 0.59303 0.0
C578 C 0.36578 0.38162 0.62397 0.0
C579 C 0.3967 0.32705 0.60831 0.0
C580 C 0.4411 0.44611 0.61623 0.0
O581 O 0.42446 0.38954 0.57942 0.0
O582 O 0.40763 0.42318 0.57236 0.0
C583 C 0.33919 0.39112 0.56237 0.0
N584 N 0.34475 0.4079 0.57882 0.0
C585 C 0.29227 0.40053 0.5792 0.0
C586 C 0.28605 0.38344 0.56214 0.0
C587 C 0.30956 0.37854 0.55376 0.0
C588 C 0.32208 0.41213 0.58724 0.0
H589 H 0.35721 0.38735 0.5559 0.0
C590 C 0.42272 0.40913 0.56807 0.0
O591 O 0.42342 0.35055 0.61304 0.0
O592 O 0.3765 0.33327 0.60044 0.0
N593 N 0.35843 0.43746 0.61142 0.0
C594 C 0.36813 0.45412 0.628 0.0
C595 C 0.34736 0.46094 0.63826 0.0
C596 C 0.31715 0.45121 0.63113 0.0
C597 C 0.30784 0.43444 0.61389 0.0
C598 C 0.32948 0.42818 0.60436 0.0
H599 H 0.39155 0.46219 0.63334 0.0
O600 O 0.3809 0.36951 0.63206 0.0
O601 O 0.3731 0.39034 0.60591 0.0
O602 O 0.43835 0.4193 0.61668 0.0
O603 O 0.42148 0.45218 0.60797 0.0
C604 C 0.27802 0.42386 0.6057 0.0
C605 C 0.27009 0.40658 0.58852 0.0
H606 H 0.2633 0.37388 0.55539 0.0
H607 H 0.3049 0.36523 0.54066 0.0
H608 H 0.35473 0.47395 0.65153 0.0
H609 H 0.30132 0.4568 0.63899 0.0
H610 H 0.2609 0.42868 0.61259 0.0
H611 H 0.24692 0.39816 0.58255 0.0
Mn612 Mn 0.62541 0.05277 0.60947 0.0
Mn613 Mn 0.62241 0.07269 0.65592 0.0
C614 C 0.57808 0.04059 0.62447 0.0
C615 C 0.62253 0.05832 0.57599 0.0
C616 C 0.62972 0.01811 0.6452 0.0
O617 O 0.67182 0.08499 0.61376 0.0
O618 O 0.66603 0.0945 0.6452 0.0
C619 C 0.63951 0.13739 0.6474 0.0
N620 N 0.6192 0.10932 0.65545 0.0
C621 C 0.58449 0.12741 0.66677 0.0
C622 C 0.6052 0.15661 0.65878 0.0
C623 C 0.63278 0.16158 0.64899 0.0
C624 C 0.59245 0.1042 0.66473 0.0
H625 H 0.66063 0.14127 0.63977 0.0
C626 C 0.68299 0.09826 0.62996 0.0
O627 O 0.63256 0.04058 0.58307 0.0
O628 O 0.61954 0.07647 0.58815 0.0
N629 N 0.58159 0.05346 0.66819 0.0
C630 C 0.56367 0.02375 0.6746 0.0
C631 C 0.53488 0.01475 0.68431 0.0
C632 C 0.52507 0.03649 0.68759 0.0
C633 C 0.54423 0.06707 0.68122 0.0
C634 C 0.57267 0.07469 0.67164 0.0
H635 H 0.57115 0.00698 0.67214 0.0
O636 O 0.57904 0.02473 0.61 0.0
O637 O 0.60483 0.06315 0.62998 0.0
O638 O 0.63132 0.02285 0.62688 0.0
O639 O 0.625 0.03446 0.65757 0.0
C640 C 0.53611 0.09025 0.68386 0.0
C641 C 0.55612 0.12035 0.67653 0.0
H642 H 0.60007 0.17531 0.65994 0.0
H643 H 0.64879 0.18399 0.64266 0.0
H644 H 0.52027 0.99112 0.68922 0.0
H645 H 0.50276 0.02942 0.69498 0.0
H646 H 0.5144 0.08513 0.69136 0.0
H647 H 0.54941 0.13786 0.67842 0.0
H648 H 0.42915 0.02812 0.05424 0.0
H649 H 0.4532 0.99904 0.0407 0.0
H650 H 0.51968 0.07959 0.00784 0.0
H651 H 0.49584 0.10853 0.02129 0.0
H652 H 0.45238 0.99058 1.00004 0.0
H653 H 0.57459 0.04419 0.02662 0.0
H654 H 0.54429 0.04899 0.0387 0.0
H655 H 0.56382 0.07123 0.01715 0.0
C656 C 0.44993 0.04001 0.04494 0.0
C657 C 0.46087 0.07071 0.03901 0.0
C658 C 0.46337 0.02327 0.03697 0.0
C659 C 0.48827 0.03711 0.02323 0.0
C660 C 0.50084 0.06848 0.01859 0.0
H661 H 0.58707 0.97016 0.9486 0.0
H662 H 0.56403 0.00099 0.9607 0.0
C663 C 0.48727 0.08508 0.02638 0.0
C664 C 0.49848 0.01816 0.01189 0.0
H665 H 0.56242 0.0108 0.99972 0.0
C666 C 0.47639 0.99483 1.00009 0.0
C667 C 0.52992 0.02408 0.01164 0.0
C668 C 0.55451 0.0483 0.02432 0.0
C669 C 0.48492 0.97746 0.98797 0.0
C670 C 0.5163 0.98312 0.98789 0.0
C671 C 0.53843 0.0066 0.9996 0.0
C672 C 0.52619 0.96343 0.97707 0.0
C673 C 0.46032 0.95358 0.97512 0.0
C674 C 0.5118 0.93179 0.98147 0.0
C675 C 0.5247 0.91419 0.9744 0.0
C676 C 0.55236 0.9278 0.96281 0.0
C677 C 0.5653 0.95886 0.95706 0.0
C678 C 0.55243 0.97659 0.96425 0.0
H679 H 0.44145 0.95913 0.97191 0.0
H680 H 0.47084 0.9516 0.96118 0.0
H681 H 0.44921 0.93085 0.98273 0.0
H682 H 0.49198 0.92113 0.99158 0.0
H683 H 0.51458 0.89048 0.97938 0.0
H684 H 0.95993 0.40502 0.04794 0.0
H685 H 0.99257 0.45755 0.03454 0.0
H686 H 0.91699 0.44406 0.99705 0.0
H687 H 0.88452 0.3922 0.01044 0.0
H688 H 0.01182 0.4708 0.99602 0.0
H689 H 0.9456 0.53004 0.01586 0.0
H690 H 0.93832 0.49464 0.02766 0.0
H691 H 0.92082 0.49382 0.00464 0.0
C692 C 0.94986 0.4138 0.03746 0.0
C693 C 0.91946 0.39454 0.03044 0.0
C694 C 0.96869 0.44369 0.0296 0.0
C695 C 0.95728 0.455 0.01481 0.0
C696 C 0.92627 0.43632 0.00866 0.0
H697 H 0.01634 0.59888 0.92866 0.0
H698 H 0.99211 0.55099 0.9478 0.0
C699 C 0.90764 0.40656 0.01638 0.0
C700 C 0.97823 0.48485 0.00438 0.0
H701 H 0.98144 0.55142 0.98845 0.0
C702 C 0.00548 0.48868 0.99464 0.0
C703 C 0.97005 0.50827 1.00248 0.0
C704 C 0.94228 0.50666 0.01338 0.0
C705 C 0.02378 0.51446 0.98238 0.0
C706 C 0.01479 0.53718 0.97988 0.0
C707 C 0.98818 0.53385 0.99014 0.0
C708 C 0.03195 0.56429 0.96639 0.0
C709 C 0.05184 0.51657 0.97157 0.0
C710 C 0.06303 0.5874 0.96989 0.0
C711 C 0.07714 0.61493 0.95882 0.0
C712 C 0.06036 0.61996 0.94409 0.0
C713 C 0.03008 0.59585 0.9398 0.0
C714 C 0.01603 0.56847 0.95086 0.0
H715 H 0.05199 0.4944 0.97201 0.0
H716 H 0.05218 0.52349 0.95615 0.0
H717 H 0.07373 0.53442 0.97831 0.0
H718 H 0.07574 0.58495 0.98191 0.0
H719 H 0.10029 0.63308 0.96274 0.0
H720 H 0.38514 0.49177 0.97894 0.0
H721 H 0.43664 0.51132 0.99362 0.0
H722 H 0.44291 0.43421 0.97094 0.0
H723 H 0.3914 0.41483 0.95599 0.0
H724 H 0.44311 0.47565 0.02232 0.0
H725 H 0.53345 0.50519 0.9639 0.0
H726 H 0.49563 0.50197 0.95942 0.0
H727 H 0.49905 0.4679 0.96186 0.0
C728 C 0.39828 0.47992 0.97617 0.0
C729 C 0.38444 0.45202 0.96604 0.0
C730 C 0.42755 0.49086 0.98482 0.0
C731 C 0.44366 0.47418 0.98354 0.0
C732 C 0.43121 0.44777 0.97195 0.0
H733 H 0.61082 0.49332 0.0388 0.0
H734 H 0.55921 0.47136 0.02388 0.0
C735 C 0.40188 0.43685 0.96317 0.0
C736 C 0.47097 0.48221 0.99632 0.0
H737 H 0.54889 0.50317 0.99613 0.0
C738 C 0.4663 0.4818 0.01658 0.0
C739 C 0.50112 0.48991 0.9889 0.0
C740 C 0.50783 0.49156 0.96733 0.0
C741 C 0.4908 0.48863 0.02958 0.0
C742 C 0.52108 0.49666 0.02216 0.0
C743 C 0.52568 0.49689 1.00189 0.0
C744 C 0.54868 0.50578 0.03494 0.0
C745 C 0.48381 0.48655 0.05113 0.0
C746 C 0.55927 0.53139 0.04716 0.0
C747 C 0.58856 0.54353 0.05614 0.0
C748 C 0.60795 0.53056 0.05281 0.0
C749 C 0.59613 0.50344 0.04195 0.0
C750 C 0.56681 0.49116 0.03314 0.0
H751 H 0.45835 0.47117 0.05444 0.0
H752 H 0.49745 0.47789 0.05921 0.0
H753 H 0.49037 0.50982 0.05651 0.0
H754 H 0.5461 0.54349 0.04854 0.0
H755 H 0.59744 0.56498 0.06389 0.0
H756 H 0.09479 0.35646 0.39215 0.0
H757 H 0.11847 0.3268 0.37905 0.0
H758 H 0.18957 0.40831 0.34904 0.0
H759 H 0.16629 0.43785 0.36221 0.0
H760 H 0.12043 0.31881 0.33956 0.0
H761 H 0.24126 0.37074 0.3678 0.0
H762 H 0.2113 0.37708 0.37891 0.0
H763 H 0.2327 0.39887 0.35759 0.0
C764 C 0.11644 0.36837 0.38362 0.0
C765 C 0.12889 0.39958 0.37841 0.0
C766 C 0.12969 0.3513 0.37587 0.0
C767 C 0.15587 0.36527 0.36302 0.0
C768 C 0.16977 0.39702 0.35913 0.0
H769 H 0.2551 0.30227 0.28577 0.0
H770 H 0.23135 0.33161 0.29935 0.0
C771 C 0.15648 0.41397 0.36676 0.0
C772 C 0.16628 0.34632 0.35178 0.0
H773 H 0.23065 0.33959 0.33965 0.0
C774 C 0.14447 0.32316 0.33975 0.0
C775 C 0.19774 0.35222 0.35175 0.0
C776 C 0.22203 0.37588 0.36484 0.0
C777 C 0.15334 0.30613 0.32753 0.0
C778 C 0.18481 0.3121 0.32746 0.0
C779 C 0.20661 0.33523 0.33949 0.0
C780 C 0.19522 0.29326 0.31613 0.0
C781 C 0.12905 0.2823 0.31451 0.0
C782 C 0.18206 0.26169 0.32038 0.0
C783 C 0.19545 0.24495 0.31254 0.0
C784 C 0.22226 0.25934 0.30025 0.0
C785 C 0.23397 0.29035 0.29477 0.0
C786 C 0.22069 0.30724 0.30278 0.0
H787 H 0.10932 0.28684 0.31191 0.0
H788 H 0.13967 0.28163 0.30028 0.0
H789 H 0.11913 0.25925 0.3216 0.0
H790 H 0.16281 0.25044 0.33085 0.0
H791 H 0.18631 0.22127 0.31733 0.0
H792 H 0.63753 0.73778 0.37918 0.0
H793 H 0.67032 0.79019 0.36563 0.0
H794 H 0.59416 0.7773 0.32887 0.0
H795 H 0.56153 0.72562 0.34244 0.0
H796 H 0.6891 0.80357 0.32719 0.0
H797 H 0.62361 0.86328 0.34758 0.0
H798 H 0.61617 0.82775 0.35927 0.0
H799 H 0.59843 0.82717 0.33639 0.0
C800 C 0.62739 0.74669 0.36884 0.0
C801 C 0.59676 0.72763 0.36208 0.0
C802 C 0.6463 0.7765 0.36088 0.0
C803 C 0.63475 0.78795 0.34625 0.0
C804 C 0.60356 0.76947 0.34036 0.0
H805 H 0.69185 0.93036 0.25967 0.0
H806 H 0.66896 0.88226 0.27855 0.0
C807 C 0.58484 0.73981 0.34818 0.0
C808 C 0.65567 0.81774 0.33575 0.0
H809 H 0.65875 0.88424 0.31979 0.0
C810 C 0.68277 0.82147 0.32585 0.0
C811 C 0.64755 0.84122 0.33392 0.0
C812 C 0.62004 0.83982 0.34503 0.0
C813 C 0.70093 0.84717 0.3135 0.0
C814 C 0.69189 0.86985 0.31102 0.0
C815 C 0.66549 0.86666 0.32145 0.0
C816 C 0.70874 0.89676 0.29736 0.0
C817 C 0.7289 0.8493 0.30257 0.0
C818 C 0.73945 0.92054 0.301 0.0
C819 C 0.7528 0.9482 0.29006 0.0
C820 C 0.73556 0.95266 0.27538 0.0
C821 C 0.7059 0.92777 0.27079 0.0
C822 C 0.69261 0.90027 0.28171 0.0
H823 H 0.72964 0.82745 0.30347 0.0
H824 H 0.72847 0.85525 0.28703 0.0
H825 H 0.75085 0.8679 0.30881 0.0
H826 H 0.7523 0.91855 0.3131 0.0
H827 H 0.77546 0.96694 0.29423 0.0
H828 H 0.06572 0.74853 0.28541 0.0
H829 H 0.1167 0.77076 0.30154 0.0
H830 H 0.10234 0.84326 0.32415 0.0
H831 H 0.05134 0.82086 0.3084 0.0
H832 H 0.17306 0.82907 0.30374 0.0
H833 H 0.10464 0.79723 0.37332 0.0
H834 H 0.08637 0.78377 0.35013 0.0
H835 H 0.09777 0.82221 0.35772 0.0
C836 C 0.07416 0.77004 0.29302 0.0
C837 C 0.05463 0.78306 0.29554 0.0
C838 C 0.1031 0.78249 0.3025 0.0
C839 C 0.11287 0.80813 0.31458 0.0
C840 C 0.09494 0.82302 0.31534 0.0
H841 H 0.26896 0.90497 0.39346 0.0
H842 H 0.21799 0.88386 0.37736 0.0
C843 C 0.06602 0.8105 0.30604 0.0
C844 C 0.14017 0.81773 0.32763 0.0
H845 H 0.16019 0.82497 0.3756 0.0
C846 C 0.17023 0.82808 0.31943 0.0
C847 C 0.13648 0.81637 0.34817 0.0
C848 C 0.10456 0.80404 0.35792 0.0
C849 C 0.19674 0.83767 0.33117 0.0
C850 C 0.19305 0.83629 0.3517 0.0
C851 C 0.16301 0.82601 0.35991 0.0
C852 C 0.22027 0.84543 0.36473 0.0
C853 C 0.22866 0.8498 0.32146 0.0
C854 C 0.23729 0.82961 0.36416 0.0
C855 C 0.26614 0.84144 0.37347 0.0
C856 C 0.27844 0.86917 0.38373 0.0
C857 C 0.25981 0.88324 0.38602 0.0
C858 C 0.2309 0.87143 0.37657 0.0
H859 H 0.22864 0.85648 0.30602 0.0
H860 H 0.24688 0.8701 0.32921 0.0
H861 H 0.23535 0.83156 0.32178 0.0
H862 H 0.22923 0.80912 0.3555 0.0
H863 H 0.28009 0.83026 0.37128 0.0
H864 H 0.85118 0.56033 0.64956 0.0
H865 H 0.82886 0.59189 0.66077 0.0
H866 H 0.90081 0.66985 0.62846 0.0
H867 H 0.92322 0.63811 0.61708 0.0
H868 H 0.86687 0.64391 0.68367 0.0
H869 H 0.82027 0.67601 0.61973 0.0
H870 H 0.82621 0.64305 0.61986 0.0
H871 H 0.85923 0.68121 0.61685 0.0
C872 C 0.86139 0.58381 0.6441 0.0
C873 C 0.8888 0.59665 0.63228 0.0
C874 C 0.84881 0.60194 0.65071 0.0
C875 C 0.86323 0.63331 0.64559 0.0
C876 C 0.88904 0.64561 0.63244 0.0
H877 H 0.82815 0.77973 0.68325 0.0
H878 H 0.85256 0.75096 0.67025 0.0
C879 C 0.90166 0.62737 0.62576 0.0
C880 C 0.85355 0.65356 0.65589 0.0
H881 H 0.82188 0.70041 0.64933 0.0
C882 C 0.85696 0.65624 0.67616 0.0
C883 C 0.84094 0.66985 0.64611 0.0
C884 C 0.83616 0.66734 0.62446 0.0
C885 C 0.8483 0.67488 0.68689 0.0
C886 C 0.83514 0.6908 0.67717 0.0
C887 C 0.83198 0.68828 0.65685 0.0
C888 C 0.82401 0.70986 0.68767 0.0
C889 C 0.85401 0.67781 0.70846 0.0
C890 C 0.80072 0.69697 0.7025 0.0
C891 C 0.78716 0.71374 0.7103 0.0
C892 C 0.79625 0.74349 0.70316 0.0
C893 C 0.82084 0.75696 0.68918 0.0
C894 C 0.83459 0.74039 0.68158 0.0
H895 H 0.87282 0.67255 0.71246 0.0
H896 H 0.86074 0.70133 0.71346 0.0
H897 H 0.83211 0.66108 0.71635 0.0
H898 H 0.79161 0.67329 0.70722 0.0
H899 H 0.76775 0.70244 0.72067 0.0
H900 H 0.42759 0.30819 0.63327 0.0
H901 H 0.40512 0.25886 0.65111 0.0
H902 H 0.31898 0.22578 0.61961 0.0
H903 H 0.34138 0.27447 0.60155 0.0
H904 H 0.35402 0.23476 0.67567 0.0
H905 H 0.33167 0.15237 0.61666 0.0
H906 H 0.35682 0.19339 0.61319 0.0
H907 H 0.31471 0.17628 0.61163 0.0
C908 C 0.40424 0.29004 0.62968 0.0
C909 C 0.38643 0.29532 0.61581 0.0
C910 C 0.39128 0.26191 0.64006 0.0
C911 C 0.36035 0.23835 0.63669 0.0
C912 C 0.34308 0.24319 0.62228 0.0
H913 H 0.21603 0.06695 0.68395 0.0
H914 H 0.24778 0.11936 0.67098 0.0
C915 C 0.35598 0.27119 0.61192 0.0
C916 C 0.34517 0.20961 0.64901 0.0
H917 H 0.30236 0.13106 0.64647 0.0
C918 C 0.34314 0.21206 0.66931 0.0
C919 C 0.33099 0.17988 0.64082 0.0
C920 C 0.33393 0.17528 0.61941 0.0
C921 C 0.32619 0.18577 0.6814 0.0
C922 C 0.3109 0.15624 0.67304 0.0
C923 C 0.31377 0.15374 0.65288 0.0
C924 C 0.29074 0.12749 0.68461 0.0
C925 C 0.32367 0.18968 0.70294 0.0
C926 C 0.30388 0.11509 0.69748 0.0
C927 C 0.28553 0.08501 0.70515 0.0
C928 C 0.25385 0.06685 0.69993 0.0
C929 C 0.24025 0.08043 0.68842 0.0
C930 C 0.25848 0.11032 0.68082 0.0
H931 H 0.33346 0.21424 0.70686 0.0
H932 H 0.29868 0.17655 0.70794 0.0
H933 H 0.33677 0.18026 0.71085 0.0
H934 H 0.32879 0.12777 0.70048 0.0
H935 H 0.29689 0.075 0.71358 0.0
H936 H 0.7154 0.15226 0.6487 0.0
H937 H 0.76601 0.17095 0.66436 0.0
H938 H 0.77763 0.10008 0.63643 0.0
H939 H 0.72693 0.08154 0.62045 0.0
H940 H 0.77446 0.13347 0.6905 0.0
H941 H 0.86639 0.17469 0.63206 0.0
H942 H 0.8277 0.16974 0.62821 0.0
H943 H 0.83343 0.13687 0.62858 0.0
C944 C 0.7294 0.14153 0.64519 0.0
C945 C 0.71735 0.11567 0.63313 0.0
C946 C 0.75819 0.15201 0.65435 0.0
C947 C 0.77566 0.13689 0.65171 0.0
C948 C 0.76485 0.11245 0.63852 0.0
H949 H 0.9461 0.16039 0.70507 0.0
H950 H 0.89488 0.13776 0.68961 0.0
C951 C 0.73598 0.10202 0.62921 0.0
C952 C 0.80306 0.14463 0.66437 0.0
H953 H 0.88212 0.17052 0.66379 0.0
C954 C 0.79804 0.14165 0.68465 0.0
C955 C 0.83376 0.15505 0.65679 0.0
C956 C 0.84085 0.15957 0.63523 0.0
C957 C 0.82275 0.14863 0.69751 0.0
C958 C 0.85356 0.15943 0.68996 0.0
C959 C 0.85852 0.16214 0.66965 0.0
C960 C 0.88129 0.16884 0.70267 0.0
C961 C 0.81545 0.1438 0.71904 0.0
C962 C 0.89014 0.19279 0.71608 0.0
C963 C 0.91927 0.20533 0.72533 0.0
C964 C 0.94022 0.19444 0.72109 0.0
C965 C 0.93024 0.16894 0.70886 0.0
C966 C 0.90112 0.15626 0.69979 0.0
H967 H 0.79025 0.12688 0.72202 0.0
H968 H 0.83013 0.13561 0.72635 0.0
H969 H 0.82045 0.166 0.72556 0.0
H970 H 0.87563 0.20334 0.71833 0.0
H971 H 0.92665 0.22552 0.7342 0.0
H972 H 0.35192 0.07071 0.12151 0.0
H973 H 0.33339 0.09077 0.14792 0.0
H974 H 0.40553 0.1833 0.13281 0.0
H975 H 0.42444 0.16347 0.10659 0.0
H976 H 0.39546 0.17319 0.17297 0.0
H977 H 0.2826 0.13368 0.13511 0.0
H978 H 0.2919 0.10383 0.14036 0.0
H979 H 0.31635 0.13445 0.12356 0.0
C980 C 0.36443 0.09525 0.12413 0.0
C981 C 0.38959 0.11546 0.1118 0.0
C982 C 0.35351 0.10675 0.13909 0.0
C983 C 0.36746 0.13865 0.14201 0.0
C984 C 0.39412 0.15863 0.13073 0.0
H985 H 0.33043 0.25803 0.21779 0.0
H986 H 0.3491 0.23821 0.19132 0.0
C987 C 0.40503 0.14719 0.11577 0.0
C988 C 0.35347 0.15141 0.15607 0.0
H989 H 0.28702 0.15588 0.166 0.0
C990 C 0.37178 0.16946 0.17142 0.0
C991 C 0.3226 0.14673 0.15401 0.0
C992 C 0.30225 0.12887 0.13729 0.0
C993 C 0.35988 0.18234 0.18497 0.0
C994 C 0.32899 0.17764 0.18291 0.0
C995 C 0.31069 0.15961 0.16755 0.0
C996 C 0.31495 0.19029 0.19702 0.0
C997 C 0.38024 0.20019 0.20169 0.0
C998 C 0.28818 0.17022 0.20819 0.0
C999 C 0.27717 0.18152 0.22318 0.0
C1000 C 0.29263 0.21321 0.22729 0.0
C1001 C 0.31791 0.23352 0.21507 0.0
C1002 C 0.32891 0.22216 0.20007 0.0
H1003 H 0.39987 0.19535 0.20386 0.0
H1004 H 0.39061 0.22523 0.19861 0.0
H1005 H 0.36614 0.19463 0.21542 0.0
H1006 H 0.27674 0.14558 0.206 0.0
H1007 H 0.25767 0.16517 0.23227 0.0
H1008 H 0.82322 0.26987 0.10554 0.0
H1009 H 0.8057 0.23099 0.13156 0.0
H1010 H 0.90178 0.25394 0.14102 0.0
H1011 H 0.91957 0.2931 0.11511 0.0
H1012 H 0.81564 0.18052 0.12875 0.0
H1013 H 0.86674 0.24423 0.19665 0.0
H1014 H 0.86291 0.26278 0.17505 0.0
H1015 H 0.89409 0.25372 0.17659 0.0
C1016 C 0.8408 0.2675 0.11359 0.0
C1017 C 0.87286 0.28471 0.10814 0.0
C1018 C 0.83068 0.24499 0.12839 0.0
C1019 C 0.85235 0.23935 0.13825 0.0
C1020 C 0.88458 0.25802 0.13383 0.0
H1021 H 0.81663 0.09574 0.2265 0.0
H1022 H 0.84316 0.13464 0.20042 0.0
C1023 C 0.89475 0.28055 0.11899 0.0
C1024 C 0.84088 0.21202 0.1516 0.0
H1025 H 0.84178 0.18982 0.19863 0.0
C1026 C 0.82139 0.18261 0.14404 0.0
C1027 C 0.84875 0.21457 0.17148 0.0
C1028 C 0.86907 0.2455 0.18054 0.0
C1029 C 0.80925 0.15583 0.15579 0.0
C1030 C 0.81624 0.15842 0.17581 0.0
C1031 C 0.83648 0.18774 0.18328 0.0
C1032 C 0.80035 0.13155 0.18958 0.0
C1033 C 0.78905 0.12497 0.1466 0.0
C1034 C 0.76746 0.1162 0.19184 0.0
C1035 C 0.75239 0.09402 0.20657 0.0
C1036 C 0.76977 0.08651 0.21945 0.0
C1037 C 0.80254 0.10046 0.21651 0.0
C1038 C 0.81774 0.123 0.20179 0.0
H1039 H 0.7946 0.12574 0.13082 0.0
H1040 H 0.79218 0.10664 0.15369 0.0
H1041 H 0.76394 0.11867 0.14816 0.0
H1042 H 0.75349 0.12267 0.18293 0.0
H1043 H 0.7272 0.0841 0.20864 0.0
H1044 H 0.94527 0.6726 0.21621 0.0
H1045 H 0.90381 0.65138 0.19202 0.0
H1046 H 0.88495 0.72596 0.20177 0.0
H1047 H 0.92659 0.74755 0.22561 0.0
H1048 H 0.84186 0.63046 0.20095 0.0
H1049 H 0.88037 0.72061 0.14339 0.0
H1050 H 0.907 0.72038 0.16122 0.0
H1051 H 0.88111 0.73523 0.16723 0.0
C1052 C 0.93317 0.68518 0.21267 0.0
C1053 C 0.93943 0.71189 0.22289 0.0
C1054 C 0.90916 0.67279 0.19896 0.0
C1055 C 0.89111 0.68699 0.195 0.0
C1056 C 0.89874 0.71475 0.20425 0.0
H1057 H 0.7212 0.63968 0.13058 0.0
H1058 H 0.76339 0.66032 0.15429 0.0
C1059 C 0.9227 0.72714 0.21793 0.0
C1060 C 0.86249 0.67135 0.18278 0.0
H1061 H 0.82619 0.68172 0.14361 0.0
C1062 C 0.83859 0.64159 0.1883 0.0
C1063 C 0.85794 0.68586 0.16635 0.0
C1064 C 0.88309 0.71716 0.15907 0.0
C1065 C 0.81021 0.62627 0.17814 0.0
C1066 C 0.8056 0.64086 0.1618 0.0
C1067 C 0.82951 0.67057 0.15623 0.0
C1068 C 0.77676 0.62546 0.14979 0.0
C1069 C 0.78509 0.59485 0.18526 0.0
C1070 C 0.76934 0.59831 0.13983 0.0
C1071 C 0.74506 0.58631 0.12634 0.0
C1072 C 0.7277 0.6013 0.12239 0.0
C1073 C 0.73379 0.62732 0.13334 0.0
C1074 C 0.75818 0.63937 0.14679 0.0
H1075 H 0.78835 0.5907 0.20073 0.0
H1076 H 0.76125 0.59208 0.18372 0.0
H1077 H 0.78636 0.57695 0.17646 0.0
H1078 H 0.78351 0.58732 0.14163 0.0
H1079 H 0.74129 0.56642 0.11808 0.0
H1080 H 0.66603 0.92448 0.88586 0.0
H1081 H 0.68569 0.90477 0.85997 0.0
H1082 H 0.61131 0.81233 0.87305 0.0
H1083 H 0.59176 0.83181 0.89913 0.0
H1084 H 0.66955 0.81677 0.87263 0.0
H1085 H 0.65641 0.87209 0.80598 0.0
H1086 H 0.67723 0.89884 0.82483 0.0
H1087 H 0.63648 0.87042 0.82862 0.0
C1088 C 0.65322 0.90007 0.88285 0.0
C1089 C 0.62722 0.87978 0.8946 0.0
C1090 C 0.66456 0.88878 0.86801 0.0
C1091 C 0.65 0.857 0.86446 0.0
C1092 C 0.62303 0.83692 0.87549 0.0
H1093 H 0.68995 0.74045 0.78897 0.0
H1094 H 0.67138 0.75998 0.81557 0.0
C1095 C 0.6117 0.84816 0.89033 0.0
C1096 C 0.66426 0.84445 0.85044 0.0
H1097 H 0.68771 0.84797 0.803 0.0
C1098 C 0.67334 0.82346 0.85737 0.0
C1099 C 0.66945 0.85326 0.83055 0.0
C1100 C 0.65913 0.87466 0.82197 0.0
C1101 C 0.68783 0.81148 0.84508 0.0
C1102 C 0.69303 0.82032 0.82519 0.0
C1103 C 0.68395 0.8413 0.81827 0.0
C1104 C 0.70718 0.80772 0.81112 0.0
C1105 C 0.69808 0.79002 0.85362 0.0
C1106 C 0.73399 0.82781 0.79998 0.0
C1107 C 0.7447 0.81667 0.78475 0.0
C1108 C 0.7287 0.78516 0.78018 0.0
C1109 C 0.70312 0.76478 0.79219 0.0
C1110 C 0.69238 0.77597 0.80742 0.0
H1111 H 0.7008 0.79255 0.86962 0.0
H1112 H 0.67995 0.76586 0.85074 0.0
H1113 H 0.72071 0.79423 0.84696 0.0
H1114 H 0.7459 0.85237 0.80254 0.0
H1115 H 0.76437 0.83309 0.77578 0.0
H1116 H 0.15618 0.76767 0.89395 0.0
H1117 H 0.18399 0.80725 0.86847 0.0
H1118 H 0.09643 0.77725 0.83922 0.0
H1119 H 0.06875 0.73796 0.86453 0.0
H1120 H 0.18173 0.80724 0.82159 0.0
H1121 H 0.13118 0.86964 0.86161 0.0
H1122 H 0.13628 0.83964 0.87289 0.0
H1123 H 0.10473 0.82978 0.85638 0.0
C1124 C 0.14323 0.76839 0.8815 0.0
C1125 C 0.11035 0.74941 0.88109 0.0
C1126 C 0.15906 0.79131 0.86709 0.0
C1127 C 0.14217 0.79547 0.85211 0.0
C1128 C 0.10989 0.77455 0.85069 0.0
H1129 H 0.16083 0.93029 0.76703 0.0
H1130 H 0.14488 0.89146 0.79296 0.0
C1131 C 0.09413 0.75183 0.86505 0.0
C1132 C 0.15694 0.82367 0.83949 0.0
H1133 H 0.15686 0.89134 0.83155 0.0
C1134 C 0.17665 0.82583 0.82384 0.0
C1135 C 0.15017 0.84783 0.84245 0.0
C1136 C 0.12961 0.84692 0.8593 0.0
C1137 C 0.18886 0.85105 0.81065 0.0
C1138 C 0.18171 0.87509 0.81345 0.0
C1139 C 0.16249 0.8731 0.82939 0.0
C1140 C 0.19219 0.90143 0.79935 0.0
C1141 C 0.20817 0.85102 0.79336 0.0
C1142 C 0.22425 0.92125 0.79493 0.0
C1143 C 0.2335 0.94367 0.78008 0.0
C1144 C 0.21087 0.94688 0.76942 0.0
C1145 C 0.17895 0.92858 0.77491 0.0
C1146 C 0.16974 0.90615 0.7897 0.0
H1147 H 0.20523 0.82779 0.79083 0.0
H1148 H 0.20158 0.85885 0.77997 0.0
H1149 H 0.23344 0.86707 0.79599 0.0
H1150 H 0.24211 0.91873 0.80253 0.0
H1151 H 0.25828 0.95732 0.77629 0.0
H1152 H 0.2455 0.41329 0.90184 0.0
H1153 H 0.20334 0.39012 0.87828 0.0
H1154 H 0.22765 0.31958 0.86697 0.0
H1155 H 0.26963 0.34235 0.89075 0.0
H1156 H 0.19852 0.37465 0.83924 0.0
H1157 H 0.13603 0.26945 0.88583 0.0
H1158 H 0.16935 0.30441 0.89414 0.0
H1159 H 0.17524 0.27888 0.87855 0.0
C1160 C 0.24248 0.39331 0.894 0.0
C1161 C 0.26091 0.3796 0.89837 0.0
C1162 C 0.21815 0.37993 0.88059 0.0
C1163 C 0.21162 0.35252 0.87127 0.0
C1164 C 0.23162 0.34023 0.87438 0.0
H1165 H 0.06872 0.23135 0.79148 0.0
H1166 H 0.10987 0.25383 0.81573 0.0
C1167 C 0.25597 0.35357 0.8878 0.0
C1168 C 0.18306 0.33616 0.85909 0.0
H1169 H 0.11343 0.26846 0.85542 0.0
C1170 C 0.17988 0.35148 0.84282 0.0
C1171 C 0.15856 0.30592 0.86379 0.0
C1172 C 0.1597 0.28874 0.88162 0.0
C1173 C 0.15335 0.33722 0.83092 0.0
C1174 C 0.12889 0.30697 0.8356 0.0
C1175 C 0.13205 0.29165 0.85187 0.0
C1176 C 0.10053 0.29055 0.82329 0.0
C1177 C 0.15214 0.35441 0.81312 0.0
C1178 C 0.08018 0.30248 0.82031 0.0
C1179 C 0.05636 0.28949 0.80652 0.0
C1180 C 0.05241 0.26428 0.79542 0.0
C1181 C 0.07102 0.25074 0.79972 0.0
C1182 C 0.09477 0.26372 0.81353 0.0
H1183 H 0.17569 0.37404 0.80907 0.0
H1184 H 0.14296 0.33882 0.80052 0.0
H1185 H 0.13612 0.36375 0.8161 0.0
H1186 H 0.08361 0.32271 0.82803 0.0
H1187 H 0.04257 0.30059 0.80362 0.0
H1188 H 0.01319 0.39906 0.45711 0.0
H1189 H 0.99476 0.4195 0.4834 0.0
H1190 H 0.07322 0.51041 0.47211 0.0
H1191 H 0.09166 0.49032 0.44579 0.0
H1192 H 0.02167 0.45393 0.51761 0.0
H1193 H 0.99625 0.52162 0.46374 0.0
H1194 H 0.0045 0.49151 0.45677 0.0
H1195 H 0.0361 0.52892 0.46294 0.0
C1196 C 0.02703 0.42325 0.46055 0.0
C1197 C 0.05384 0.44304 0.4492 0.0
C1198 C 0.0163 0.43496 0.47552 0.0
C1199 C 0.03208 0.46667 0.47939 0.0
C1200 C 0.06017 0.48601 0.46909 0.0
H1201 H -3e-05 0.58732 0.55549 0.0
H1202 H 0.01721 0.56518 0.52965 0.0
C1203 C 0.07089 0.47437 0.45416 0.0
C1204 C 0.01849 0.47978 0.49348 0.0
H1205 H 0.9902 0.53014 0.49697 0.0
C1206 C 0.01464 0.47047 0.51309 0.0
C1207 C 0.00925 0.50138 0.4876 0.0
C1208 C 0.01142 0.5113 0.46659 0.0
C1209 C 0.00261 0.4827 0.52703 0.0
C1210 C 0.99342 0.50436 0.52115 0.0
C1211 C 0.99715 0.51356 0.50151 0.0
C1212 C 0.98055 0.51814 0.53528 0.0
C1213 C 0.00072 0.47295 0.54804 0.0
C1214 C 0.95318 0.4994 0.5464 0.0
C1215 C 0.94318 0.51202 0.56114 0.0
C1216 C 0.96017 0.54377 0.56502 0.0
C1217 C 0.98621 0.56282 0.5529 0.0
C1218 C 0.99625 0.55014 0.53818 0.0
H1219 H 0.01607 0.46281 0.55085 0.0
H1220 H 0.00762 0.49277 0.55784 0.0
H1221 H 0.97614 0.4552 0.5518 0.0
H1222 H 0.94009 0.47478 0.54411 0.0
H1223 H 0.92299 0.49662 0.57013 0.0
H1224 H 0.50087 0.60152 0.43675 0.0
H1225 H 0.484 0.5625 0.46265 0.0
H1226 H 0.58066 0.58883 0.47322 0.0
H1227 H 0.59788 0.62788 0.44715 0.0
H1228 H 0.50439 0.51376 0.45922 0.0
H1229 H 0.53516 0.57748 0.52888 0.0
H1230 H 0.52688 0.59281 0.50726 0.0
H1231 H 0.56311 0.59219 0.50882 0.0
C1232 C 0.5187 0.59983 0.44497 0.0
C1233 C 0.55079 0.6179 0.43975 0.0
C1234 C 0.50894 0.57727 0.4597 0.0
C1235 C 0.53103 0.57257 0.46976 0.0
C1236 C 0.56321 0.59211 0.46568 0.0
H1237 H 0.48651 0.43666 0.56403 0.0
H1238 H 0.51768 0.47421 0.53824 0.0
C1239 C 0.57302 0.6146 0.45083 0.0
C1240 C 0.52011 0.54533 0.48302 0.0
H1241 H 0.51097 0.52346 0.53089 0.0
C1242 C 0.506 0.51586 0.4749 0.0
C1243 C 0.52273 0.54811 0.50341 0.0
C1244 C 0.53767 0.57927 0.51278 0.0
C1245 C 0.49379 0.48906 0.48664 0.0
C1246 C 0.49491 0.49167 0.50714 0.0
C1247 C 0.5101 0.52128 0.51521 0.0
C1248 C 0.47767 0.46433 0.52045 0.0
C1249 C 0.47981 0.45821 0.47689 0.0
C1250 C 0.44503 0.44515 0.51867 0.0
C1251 C 0.4274 0.42345 0.53321 0.0
C1252 C 0.44187 0.42045 0.54995 0.0
C1253 C 0.47483 0.43776 0.55103 0.0
C1254 C 0.49257 0.45964 0.53644 0.0
H1255 H 0.49114 0.46026 0.46243 0.0
H1256 H 0.48234 0.44102 0.48587 0.0
H1257 H 0.4544 0.44952 0.47454 0.0
H1258 H 0.43271 0.44861 0.50682 0.0
H1259 H 0.40199 0.41105 0.53221 0.0
H1260 H 0.59573 0.08899 0.55862 0.0
H1261 H 0.5538 0.06805 0.53482 0.0
H1262 H 0.5655 0.98848 0.5284 0.0
H1263 H 0.60775 0.00941 0.55207 0.0
H1264 H 0.55186 0.00837 0.49327 0.0
H1265 H 0.46743 0.99674 0.55198 0.0
H1266 H 0.49969 0.03519 0.54828 0.0
H1267 H 0.5071 0.00529 0.55681 0.0
C1268 C 0.59011 0.06747 0.55173 0.0
C1269 C 0.60505 0.05081 0.55744 0.0
C1270 C 0.56576 0.05531 0.53829 0.0
C1271 C 0.55572 0.02617 0.53029 0.0
C1272 C 0.57251 0.01081 0.53457 0.0
H1273 H 0.40337 0.90267 0.45537 0.0
H1274 H 0.44534 0.92413 0.47913 0.0
C1275 C 0.59693 0.02298 0.54801 0.0
C1276 C 0.52671 0.01099 0.51841 0.0
H1277 H 0.44723 0.98407 0.52022 0.0
C1278 C 0.52899 0.00298 0.49919 0.0
C1279 C 0.49674 0.00382 0.52613 0.0
C1280 C 0.49239 0.01041 0.54698 0.0
C1281 C 0.50236 0.98864 0.48737 0.0
C1282 C 0.47239 0.98145 0.49509 0.0
C1283 C 0.47011 0.98949 0.51431 0.0
C1284 C 0.44338 0.96606 0.48324 0.0
C1285 C 0.50669 0.98196 0.46654 0.0
C1286 C 0.42661 0.98135 0.47871 0.0
C1287 C 0.40218 0.9689 0.46528 0.0
C1288 C 0.39403 0.94086 0.45612 0.0
C1289 C 0.40901 0.92434 0.46205 0.0
C1290 C 0.43336 0.93678 0.47548 0.0
H1291 H 0.53165 0.9956 0.46153 0.0
H1292 H 0.49936 0.95718 0.46529 0.0
H1293 H 0.49197 0.98705 0.4567 0.0
H1294 H 0.43362 0.0038 0.48469 0.0
H1295 H 0.39133 0.98237 0.46104 0.0
H1296 H 0.32193 0.9948 0.05102 0.0
H1297 H 0.28296 0.94279 0.04128 0.0
H1298 H 0.29817 0.97266 0.98119 0.0
H1299 H 0.33732 0.02438 0.99063 0.0
H1300 H 0.22814 0.92481 0.02248 0.0
H1301 H 0.30464 0.8948 0.97883 0.0
H1302 H 0.3202 0.92686 0.99525 0.0
H1303 H 0.30872 0.93102 0.97115 0.0
C1304 C 0.31713 0.99028 0.03571 0.0
C1305 C 0.33288 0.0138 0.02161 0.0
C1306 C 0.29492 0.96053 0.03019 0.0
C1307 C 0.28821 0.95375 0.0105 0.0
C1308 C 0.30367 0.97718 0.99643 0.0
H1309 H 0.12457 0.82888 0.95231 0.0
H1310 H 0.16744 0.87043 0.96957 0.0
C1311 C 0.32589 0.00685 1.0019 0.0
C1312 C 0.26357 0.92279 0.00457 0.0
H1313 H 0.249 0.86587 0.97232 0.0
C1314 C 0.23278 0.91164 0.01177 0.0
C1315 C 0.26976 0.90532 0.9909 0.0
C1316 C 0.3027 0.91496 0.98375 0.0
C1317 C 0.20766 0.88445 0.00471 0.0
C1318 C 0.21349 0.86845 0.9898 0.0
C1319 C 0.24454 0.87847 0.98353 0.0
C1320 C 0.18752 0.84278 0.9795 0.0
C1321 C 0.17504 0.87344 0.01304 0.0
C1322 C 0.18524 0.81367 0.97878 0.0
C1323 C 0.16082 0.78975 0.9687 0.0
C1324 C 0.1384 0.79468 0.95909 0.0
C1325 C 0.1412 0.8241 0.95963 0.0
C1326 C 0.16558 0.84789 0.96964 0.0
H1327 H 0.17593 0.88169 0.02809 0.0
H1328 H 0.16294 0.88277 0.004 0.0
H1329 H 0.1608 0.84789 0.01317 0.0
H1330 H 0.20219 0.80941 0.98615 0.0
H1331 H 0.15941 0.76742 0.96857 0.0
H1332 H 0.96306 0.32694 0.98456 0.0
H1333 H 0.01611 0.33752 0.97537 0.0
H1334 H 0.02832 0.31163 0.03321 0.0
H1335 H 0.97592 0.30177 0.04263 0.0
H1336 H 0.07658 0.36701 0.02141 0.0
H1337 H 0.05029 0.27929 0.96474 0.0
H1338 H 0.03376 0.30388 0.96055 0.0
H1339 H 0.02044 0.27786 0.98114 0.0
C1340 C 0.97695 0.32317 0.99523 0.0
C1341 C 0.96544 0.31373 0.01435 0.0
C1342 C 0.00714 0.32907 0.98993 0.0
C1343 C 0.02594 0.32509 0.00358 0.0
C1344 C 0.01414 0.31487 0.02249 0.0
H1345 H 0.19661 0.31908 0.98196 0.0
H1346 H 0.14401 0.30891 0.99207 0.0
C1347 C 0.98421 0.3093 0.02784 0.0
C1348 C 0.0587 0.33338 0.99876 0.0
H1349 H 0.10401 0.31585 0.96926 0.0
C1350 C 0.08264 0.35584 0.01001 0.0
C1351 C 0.06633 0.31854 0.98399 0.0
C1352 C 0.04137 0.29335 0.972 0.0
C1353 C 0.11411 0.36366 0.00707 0.0
C1354 C 0.12191 0.34917 0.99214 0.0
C1355 C 0.09796 0.32693 0.98072 0.0
C1356 C 0.15466 0.35622 0.98826 0.0
C1357 C 0.13841 0.38626 0.02055 0.0
C1358 C 0.17819 0.38627 0.98312 0.0
C1359 C 0.20831 0.39213 0.97775 0.0
C1360 C 0.21518 0.368 0.97732 0.0
C1361 C 0.19182 0.33806 0.98259 0.0
C1362 C 0.16186 0.33227 0.98824 0.0
H1363 H 0.1276 0.38966 0.03394 0.0
H1364 H 0.15472 0.37797 0.0248 0.0
H1365 H 0.15218 0.40895 0.01305 0.0
H1366 H 0.17294 0.40492 0.98246 0.0
H1367 H 0.22578 0.41519 0.97303 0.0
H1368 H 0.69126 0.68021 0.05983 0.0
H1369 H 0.68343 0.72258 0.04888 0.0
H1370 H 0.65793 0.6819 0.99224 0.0
H1371 H 0.66644 0.63993 1.00284 0.0
H1372 H 0.70053 0.74266 0.98996 0.0
H1373 H 0.60183 0.72274 0.03991 0.0
H1374 H 0.63601 0.7271 0.05208 0.0
H1375 H 0.61441 0.6946 0.03666 0.0
C1376 C 0.68368 0.68011 0.0451 0.0
C1377 C 0.67943 0.65666 0.03221 0.0
C1378 C 0.67909 0.70428 0.0389 0.0
C1379 C 0.66972 0.70513 0.01984 0.0
C1380 C 0.66514 0.68162 0.00703 0.0
H1381 H 0.59496 0.81425 0.97125 0.0
H1382 H 0.60406 0.77401 0.98504 0.0
C1383 C 0.66999 0.65764 0.01313 0.0
C1384 C 0.66582 0.73109 0.01287 0.0
H1385 H 0.62438 0.76849 0.02069 0.0
C1386 C 0.68387 0.74835 0.99667 0.0
C1387 C 0.64387 0.73821 0.02157 0.0
C1388 C 0.62269 0.71953 0.0384 0.0
C1389 C 0.68044 0.77248 0.98883 0.0
C1390 C 0.65897 0.78001 0.99779 0.0
C1391 C 0.64103 0.76284 0.01402 0.0
C1392 C 0.65362 0.80465 0.98999 0.0
C1393 C 0.69911 0.78899 0.97069 0.0
C1394 C 0.67841 0.83519 0.98839 0.0
C1395 C 0.67323 0.85806 0.98043 0.0
C1396 C 0.64299 0.85084 0.97465 0.0
C1397 C 0.61824 0.82037 0.97622 0.0
C1398 C 0.62347 0.79745 0.98397 0.0
H1399 H 0.70796 0.77529 0.96289 0.0
H1400 H 0.68467 0.79403 0.96058 0.0
H1401 H 0.71977 0.81117 0.97476 0.0
H1402 H 0.70172 0.84129 0.99325 0.0
H1403 H 0.69267 0.88144 0.97902 0.0
H1404 H 0.67526 0.00088 0.95719 0.0
H1405 H 0.70992 0.05389 0.96695 0.0
H1406 H 0.71696 0.02164 0.02402 0.0
H1407 H 0.68109 0.96852 0.01459 0.0
H1408 H 0.70742 0.06885 0.02676 0.0
H1409 H 0.80303 0.09843 0.97231 0.0
H1410 H 0.76579 0.08593 0.96119 0.0
H1411 H 0.77146 0.05948 0.97626 0.0
C1412 C 0.68449 0.00504 0.97175 0.0
C1413 C 0.67568 0.98052 0.98509 0.0
C1414 C 0.70442 0.03537 0.97728 0.0
C1415 C 0.71659 0.04172 0.99608 0.0
C1416 C 0.70795 0.01725 0.0094 0.0
H1417 H 0.87374 0.21246 0.03248 0.0
H1418 H 0.83737 0.16007 0.02206 0.0
C1419 C 0.68753 0.98693 0.00399 0.0
C1420 C 0.73738 0.07394 1.00211 0.0
H1421 H 0.80504 0.14016 0.98996 0.0
C1422 C 0.72888 0.08441 0.01878 0.0
C1423 C 0.76549 0.09414 0.99177 0.0
C1424 C 0.77716 0.08384 0.97452 0.0
C1425 C 0.74774 0.11447 0.02546 0.0
C1426 C 0.7753 0.13494 0.01475 0.0
C1427 C 0.78371 0.12452 0.99803 0.0
C1428 C 0.79683 0.16671 0.02119 0.0
C1429 C 0.73843 0.12358 0.04422 0.0
C1430 C 0.78612 0.18782 0.02422 0.0
C1431 C 0.80688 0.21768 0.03035 0.0
C1432 C 0.83876 0.22703 0.03285 0.0
C1433 C 0.84935 0.20585 0.0301 0.0
C1434 C 0.82863 0.17601 0.02416 0.0
H1435 H 0.72219 0.1031 0.05324 0.0
H1436 H 0.75939 0.13849 0.05293 0.0
H1437 H 0.72605 0.13658 0.04087 0.0
H1438 H 0.76182 0.18133 0.02172 0.0
H1439 H 0.79809 0.23342 0.03315 0.0
H1440 H 0.79142 0.67721 0.04584 0.0
H1441 H 0.84423 0.69554 0.03217 0.0
H1442 H 0.82293 0.60131 0.02498 0.0
H1443 H 0.77159 0.58333 0.04089 0.0
H1444 H 0.87808 0.63156 0.03635 0.0
H1445 H 0.86846 0.70287 0.97764 0.0
H1446 H 0.86886 0.71845 1.00107 0.0
H1447 H 0.83666 0.68157 0.99469 0.0
C1448 C 0.79809 0.66053 0.04115 0.0
C1449 C 0.77697 0.62883 0.04322 0.0
C1450 C 0.82813 0.67098 0.0332 0.0
C1451 C 0.83718 0.64987 0.02668 0.0
C1452 C 0.81636 0.61813 0.0295 0.0
H1453 H 0.97886 0.67537 0.94305 0.0
H1454 H 0.93115 0.66398 0.96171 0.0
C1455 C 0.78679 0.60777 0.03816 0.0
C1456 C 0.86856 0.66056 0.01746 0.0
H1457 H 0.91826 0.70611 0.98108 0.0
C1458 C 0.8867 0.64774 0.02416 0.0
C1459 C 0.8802 0.68208 1.00171 0.0
C1460 C 0.86236 0.69679 0.99328 0.0
C1461 C 0.91548 0.65495 0.01518 0.0
C1462 C 0.92674 0.67617 0.99943 0.0
C1463 C 0.9093 0.68976 0.99312 0.0
C1464 C 0.95566 0.6833 0.98843 0.0
C1465 C 0.93307 0.63909 0.02218 0.0
C1466 C 0.98504 0.6981 0.99733 0.0
C1467 C 0.01219 0.70468 0.98667 0.0
C1468 C 0.01023 0.69731 0.96692 0.0
C1469 C 0.98084 0.68221 0.95811 0.0
C1470 C 0.95371 0.6755 0.96876 0.0
H1471 H 0.91809 0.61879 0.03169 0.0
H1472 H 0.94198 0.63142 0.0097 0.0
H1473 H 0.95362 0.65555 0.03066 0.0
H1474 H 0.98695 0.70459 0.01244 0.0
H1475 H 0.03474 0.71581 0.99374 0.0
H1476 H 0.29393 0.32961 0.02062 0.0
H1477 H 0.30394 0.28822 0.0308 0.0
H1478 H 0.335 0.28399 0.97248 0.0
H1479 H 0.32428 0.32457 0.96206 0.0
H1480 H 0.2952 0.22752 0.98731 0.0
H1481 H 0.38857 0.29491 0.0401 0.0
H1482 H 0.35211 0.29429 0.04502 0.0
H1483 H 0.37435 0.31276 0.02318 0.0
C1484 C 0.303 0.31993 0.00999 0.0
C1485 C 0.30833 0.33038 0.99054 0.0
C1486 C 0.30885 0.29641 0.01586 0.0
C1487 C 0.32065 0.28341 1.00245 0.0
C1488 C 0.32592 0.29377 0.98305 0.0
H1489 H 0.41095 0.17837 0.03267 0.0
H1490 H 0.39766 0.21686 0.02113 0.0
C1491 C 0.31977 0.31697 0.97713 0.0
C1492 C 0.32702 0.25855 0.00839 0.0
H1493 H 0.37058 0.2414 0.03898 0.0
C1494 C 0.3118 0.23053 0.99855 0.0
C1495 C 0.34883 0.26271 0.02294 0.0
C1496 C 0.36715 0.29288 0.03331 0.0
C1497 C 0.31794 0.20652 1.00273 0.0
C1498 C 0.33934 0.2104 0.01758 0.0
C1499 C 0.35428 0.2384 0.02755 0.0
C1500 C 0.34717 0.18616 0.0229 0.0
C1501 C 0.30179 0.17772 0.99081 0.0
C1502 C 0.32336 0.15605 0.02766 0.0
C1503 C 0.33109 0.13372 0.03326 0.0
C1504 C 0.36271 0.14129 0.03453 0.0
C1505 C 0.38647 0.17162 0.03062 0.0
C1506 C 0.37882 0.19371 0.02443 0.0
H1507 H 0.29655 0.18285 0.97602 0.0
H1508 H 0.31617 0.16632 0.98932 0.0
H1509 H 0.27904 0.1613 0.99801 0.0
H1510 H 0.29881 0.14992 0.02743 0.0
H1511 H 0.31238 0.11068 0.03698 0.0
H1512 H 0.97621 0.33314 0.38226 0.0
H1513 H 0.93704 0.28298 0.37009 0.0
H1514 H 0.9875 0.30365 0.31514 0.0
H1515 H 0.02624 0.3541 0.32695 0.0
H1516 H 0.92673 0.28284 0.31007 0.0
H1517 H 0.94039 0.2048 0.36164 0.0
H1518 H 0.93286 0.23227 0.37376 0.0
H1519 H 0.9686 0.24542 0.3596 0.0
C1520 C 0.97912 0.32692 0.36764 0.0
C1521 C 0.00432 0.34769 0.35556 0.0
C1522 C 0.95685 0.29811 0.36076 0.0
C1523 C 0.95966 0.28934 0.34183 0.0
C1524 C 0.98497 0.30989 0.32984 0.0
H1525 H 0.83761 0.10692 0.2933 0.0
H1526 H 0.88317 0.15264 0.30624 0.0
C1527 C 0.00704 0.33877 0.33661 0.0
C1528 C 0.93501 0.25979 0.33396 0.0
H1529 H 0.89373 0.18206 0.34253 0.0
C1530 C 0.91976 0.2608 0.31707 0.0
C1531 C 0.92624 0.23098 0.34294 0.0
C1532 C 0.94311 0.2282 0.36037 0.0
C1533 C 0.89532 0.23393 0.30925 0.0
C1534 C 0.88532 0.20535 0.31887 0.0
C1535 C 0.90122 0.2041 0.33536 0.0
C1536 C 0.85761 0.17684 0.31231 0.0
C1537 C 0.88046 0.23641 0.29073 0.0
C1538 C 0.82811 0.17506 0.31201 0.0
C1539 C 0.80223 0.14924 0.30457 0.0
C1540 C 0.80522 0.12443 0.29747 0.0
C1541 C 0.83454 0.12567 0.29859 0.0
C1542 C 0.86057 0.15172 0.30596 0.0
H1543 H 0.8965 0.25769 0.2823 0.0
H1544 H 0.87393 0.2162 0.28136 0.0
H1545 H 0.85877 0.23734 0.29441 0.0
H1546 H 0.8252 0.19391 0.31729 0.0
H1547 H 0.77994 0.14894 0.30422 0.0
H1548 H 0.86722 0.64471 0.3036 0.0
H1549 H 0.8145 0.63422 0.31379 0.0
H1550 H 0.84255 0.72995 0.3037 0.0
H1551 H 0.89546 0.7405 0.29406 0.0
H1552 H 0.81016 0.70866 0.33721 0.0
H1553 H 0.74669 0.62753 0.27819 0.0
H1554 H 0.76947 0.61576 0.29245 0.0
H1555 H 0.78901 0.65089 0.27822 0.0
C1556 C 0.86201 0.66343 0.30379 0.0
C1557 C 0.88525 0.69349 0.29868 0.0
C1558 C 0.83195 0.65742 0.30937 0.0
C1559 C 0.82455 0.68123 0.30917 0.0
C1560 C 0.84784 0.71128 0.30392 0.0
H1561 H 0.63662 0.65792 0.31503 0.0
H1562 H 0.68882 0.66763 0.30456 0.0
C1563 C 0.87798 0.71734 0.29859 0.0
C1564 C 0.79262 0.67496 0.31464 0.0
H1565 H 0.71506 0.63065 0.3038 0.0
C1566 C 0.78939 0.69168 0.3299 0.0
C1567 C 0.76564 0.65321 0.30475 0.0
C1568 C 0.76783 0.63605 0.28736 0.0
C1569 C 0.7598 0.68689 0.33584 0.0
C1570 C 0.7327 0.66414 0.32655 0.0
C1571 C 0.73592 0.64779 0.31103 0.0
C1572 C 0.70079 0.65713 0.33269 0.0
C1573 C 0.75798 0.70665 0.35175 0.0
C1574 C 0.6901 0.6473 0.35182 0.0
C1575 C 0.66055 0.64207 0.35789 0.0
C1576 C 0.64095 0.64607 0.34482 0.0
C1577 C 0.65122 0.65472 0.32544 0.0
C1578 C 0.68099 0.66028 0.31944 0.0
H1579 H 0.78067 0.72844 0.35322 0.0
H1580 H 0.73917 0.71245 0.34898 0.0
H1581 H 0.75258 0.69387 0.36582 0.0
H1582 H 0.70473 0.64388 0.36209 0.0
H1583 H 0.6531 0.63494 0.37284 0.0
H1584 H 0.36505 0.2136 0.3078 0.0
H1585 H 0.37465 0.17248 0.31951 0.0
H1586 H 0.27627 0.10613 0.31272 0.0
H1587 H 0.26662 0.14743 0.30173 0.0
H1588 H 0.29609 0.0968 0.34586 0.0
H1589 H 0.38121 0.1089 0.2879 0.0
H1590 H 0.39386 0.14403 0.30082 0.0
H1591 H 0.35861 0.12849 0.28676 0.0
C1592 C 0.34558 0.19021 0.30897 0.0
C1593 C 0.31502 0.18356 0.30445 0.0
C1594 C 0.35108 0.16673 0.31542 0.0
C1595 C 0.32628 0.13614 0.31665 0.0
C1596 C 0.29577 0.12955 0.31187 0.0
H1597 H 0.34766 0.97427 0.33074 0.0
H1598 H 0.33822 0.01488 0.3182 0.0
C1599 C 0.29021 0.15308 0.30573 0.0
C1600 C 0.33183 0.11103 0.3234 0.0
H1601 H 0.37655 0.07696 0.31519 0.0
C1602 C 0.31367 0.09249 0.33916 0.0
C1603 C 0.35424 0.10488 0.31429 0.0
C1604 C 0.37284 0.12241 0.29638 0.0
C1605 C 0.31772 0.06842 0.34639 0.0
C1606 C 0.34117 0.06325 0.33789 0.0
C1607 C 0.3589 0.0813 0.32184 0.0
C1608 C 0.34751 0.03907 0.34541 0.0
C1609 C 0.29643 0.04847 0.36282 0.0
C1610 C 0.3564 0.03958 0.36475 0.0
C1611 C 0.36149 0.0163 0.37201 0.0
C1612 C 0.35829 0.99231 0.35997 0.0
C1613 C 0.35026 0.99236 0.34042 0.0
C1614 C 0.34488 0.01554 0.33322 0.0
H1615 H 0.27429 0.04958 0.3637 0.0
H1616 H 0.2903 0.02404 0.36112 0.0
H1617 H 0.30869 0.05676 0.37679 0.0
H1618 H 0.35938 0.058 0.37424 0.0
H1619 H 0.36808 0.01723 0.38706 0.0
H1620 H 0.47401 0.56686 0.36569 0.0
H1621 H 0.43701 0.51488 0.35441 0.0
H1622 H 0.51199 0.4928 0.35334 0.0
H1623 H 0.54904 0.54507 0.36366 0.0
H1624 H 0.47849 0.47329 0.32149 0.0
H1625 H 0.39792 0.43649 0.38591 0.0
H1626 H 0.40174 0.47018 0.37385 0.0
H1627 H 0.43533 0.47166 0.38531 0.0
C1628 C 0.48251 0.55096 0.36263 0.0
C1629 C 0.5144 0.56006 0.3647 0.0
C1630 C 0.46134 0.52117 0.35657 0.0
C1631 C 0.4717 0.49986 0.35318 0.0
C1632 C 0.50352 0.5089 0.35573 0.0
H1633 H 0.35531 0.30183 0.34676 0.0
H1634 H 0.39166 0.35493 0.35594 0.0
C1635 C 0.52463 0.53867 0.36161 0.0
C1636 C 0.44974 0.46817 0.34679 0.0
H1637 H 0.38209 0.40224 0.35942 0.0
C1638 C 0.45741 0.45771 0.3298 0.0
C1639 C 0.42253 0.44777 0.3578 0.0
C1640 C 0.41401 0.45695 0.37683 0.0
C1641 C 0.43877 0.42737 0.32355 0.0
C1642 C 0.41103 0.40723 0.33424 0.0
C1643 C 0.40327 0.41774 0.35119 0.0
C1644 C 0.38991 0.37503 0.32831 0.0
C1645 C 0.44962 0.41702 0.30594 0.0
C1646 C 0.37682 0.36868 0.30975 0.0
C1647 C 0.35656 0.33835 0.30435 0.0
C1648 C 0.34838 0.31382 0.31758 0.0
C1649 C 0.36122 0.32023 0.33623 0.0
C1650 C 0.38192 0.35055 0.34151 0.0
H1651 H 0.47538 0.4316 0.30328 0.0
H1652 H 0.44397 0.39266 0.30756 0.0
H1653 H 0.4376 0.41906 0.29292 0.0
H1654 H 0.38186 0.38721 0.29953 0.0
H1655 H 0.34661 0.3342 0.28998 0.0
H1656 H 0.70376 0.02764 0.33451 0.0
H1657 H 0.65551 0.00778 0.35448 0.0
H1658 H 0.6003 0.98023 0.30242 0.0
H1659 H 0.64828 0.99768 0.2828 0.0
H1660 H 0.61618 0.02608 0.3569 0.0
H1661 H 0.54987 0.90555 0.33383 0.0
H1662 H 0.59074 0.93002 0.32709 0.0
H1663 H 0.56007 0.92998 0.31272 0.0
C1664 C 0.68117 0.01709 0.32749 0.0
C1665 C 0.67944 0.01531 0.30719 0.0
C1666 C 0.65371 0.00574 0.33883 0.0
C1667 C 0.62421 0.99224 0.32999 0.0
C1668 C 0.62263 0.98977 0.30967 0.0
H1669 H 0.46422 0.00109 0.3715 0.0
H1670 H 0.51538 0.01019 0.35938 0.0
C1671 C 0.65003 0.0005 0.29841 0.0
C1672 C 0.59529 0.98291 0.34178 0.0
H1673 H 0.51846 0.9272 0.34639 0.0
C1674 C 0.59491 0.00422 0.35481 0.0
C1675 C 0.56778 0.95402 0.33963 0.0
C1676 C 0.56732 0.92853 0.32773 0.0
C1677 C 0.56734 0.99818 0.36488 0.0
C1678 C 0.53897 0.97081 0.36097 0.0
C1679 C 0.53984 0.94867 0.34891 0.0
C1680 C 0.50798 0.96528 0.36837 0.0
C1681 C 0.56924 0.02115 0.37971 0.0
C1682 C 0.48601 0.93644 0.37643 0.0
C1683 C 0.45616 0.93075 0.3823 0.0
C1684 C 0.44808 0.9539 0.38035 0.0
C1685 C 0.47012 0.9829 0.37284 0.0
C1686 C 0.49949 0.98824 0.36629 0.0
H1687 H 0.59261 0.03251 0.38667 0.0
H1688 H 0.56651 0.03951 0.37232 0.0
H1689 H 0.55079 0.01014 0.39127 0.0
H1690 H 0.49189 0.91832 0.37816 0.0
H1691 H 0.43954 0.90846 0.38858 0.0
H1692 H 0.9902 0.67541 0.34623 0.0
H1693 H 0.00277 0.6363 0.35746 0.0
H1694 H 0.98282 0.59557 0.30069 0.0
H1695 H 0.971 0.635 0.28914 0.0
H1696 H 0.96672 0.57438 0.35961 0.0
H1697 H 0.06919 0.60663 0.31013 0.0
H1698 H 0.05173 0.63083 0.31335 0.0
H1699 H 0.03404 0.59828 0.29751 0.0
C1700 C 0.98854 0.65818 0.3361 0.0
C1701 C 0.97984 0.65848 0.31674 0.0
C1702 C 0.99575 0.63587 0.34255 0.0
C1703 C 0.9943 0.61343 0.3298 0.0
C1704 C 0.98491 0.6132 0.31061 0.0
H1705 H 0.98633 0.4425 0.36568 0.0
H1706 H 0.97458 0.48181 0.35323 0.0
C1707 C 0.97798 0.63566 0.30408 0.0
C1708 C 0.00199 0.58988 0.33673 0.0
H1709 H 0.04985 0.55953 0.32791 0.0
C1710 C 0.98497 0.57118 0.35273 0.0
C1711 C 0.02613 0.58609 0.32788 0.0
C1712 C 0.04655 0.60673 0.31139 0.0
C1713 C 0.99116 0.54846 0.36 0.0
C1714 C 0.01444 0.54385 0.35066 0.0
C1715 C 0.03174 0.56285 0.33484 0.0
C1716 C 0.02168 0.51988 0.35732 0.0
C1717 C 0.97319 0.53011 0.37786 0.0
C1718 C 0.05226 0.52819 0.36308 0.0
C1719 C 0.05907 0.50572 0.36978 0.0
C1720 C 0.03549 0.47468 0.37051 0.0
C1721 C 0.0049 0.46636 0.36488 0.0
C1722 C 0.99816 0.48875 0.35797 0.0
H1723 H 0.96319 0.54224 0.38633 0.0
H1724 H 0.95333 0.50767 0.37336 0.0
H1725 H 0.98848 0.52551 0.38751 0.0
H1726 H 0.07073 0.5521 0.36269 0.0
H1727 H 0.08257 0.51262 0.37469 0.0
H1728 H 0.48776 0.44364 0.63662 0.0
H1729 H 0.53115 0.48574 0.65369 0.0
H1730 H 0.49889 0.54796 0.63526 0.0
H1731 H 0.45537 0.50627 0.61844 0.0
H1732 H 0.57895 0.54139 0.6387 0.0
H1733 H 0.50754 0.561 0.69388 0.0
H1734 H 0.49174 0.52657 0.67952 0.0
H1735 H 0.49482 0.56143 0.6696 0.0
C1736 C 0.48982 0.46626 0.63623 0.0
C1737 C 0.46794 0.47149 0.62621 0.0
C1738 C 0.5146 0.49024 0.64602 0.0
C1739 C 0.51779 0.51973 0.64604 0.0
C1740 C 0.49635 0.52515 0.63581 0.0
H1741 H 0.67172 0.6998 0.65776 0.0
H1742 H 0.63119 0.64892 0.64788 0.0
C1743 C 0.47161 0.50128 0.62607 0.0
C1744 C 0.54417 0.54538 0.65606 0.0
H1745 H 0.56056 0.60237 0.68857 0.0
C1746 C 0.57502 0.55447 0.64982 0.0
C1747 C 0.53897 0.56201 0.67082 0.0
C1748 C 0.50648 0.55207 0.679 0.0
C1749 C 0.60075 0.58091 0.65717 0.0
C1750 C 0.59529 0.59888 0.67083 0.0
C1751 C 0.56462 0.58876 0.6779 0.0
C1752 C 0.62072 0.62925 0.67698 0.0
C1753 C 0.63347 0.58958 0.65006 0.0
C1754 C 0.62768 0.63528 0.69671 0.0
C1755 C 0.65073 0.66452 0.70249 0.0
C1756 C 0.66706 0.68828 0.68861 0.0
C1757 C 0.65984 0.68206 0.66885 0.0
C1758 C 0.63681 0.65289 0.66313 0.0
H1759 H 0.63457 0.56912 0.64483 0.0
H1760 H 0.64022 0.60618 0.63769 0.0
H1761 H 0.65095 0.60059 0.66168 0.0
H1762 H 0.61525 0.61736 0.70763 0.0
H1763 H 0.65565 0.66847 0.71782 0.0
H1764 H 0.52507 0.98788 0.63461 0.0
H1765 H 0.47322 0.98188 0.64244 0.0
H1766 H 0.51086 0.07971 0.63368 0.0
H1767 H 0.56284 0.08572 0.62628 0.0
H1768 H 0.47487 0.059 0.6661 0.0
H1769 H 0.41175 0.98389 0.60469 0.0
H1770 H 0.43108 0.96834 0.61908 0.0
H1771 H 0.45413 0.00427 0.60603 0.0
C1772 C 0.52213 0.00802 0.63453 0.0
C1773 C 0.54778 0.03733 0.63048 0.0
C1774 C 0.49259 0.00458 0.63877 0.0
C1775 C 0.48815 0.03028 0.63829 0.0
C1776 C 0.51382 0.05959 0.63406 0.0
H1777 H 0.29967 0.00919 0.6451 0.0
H1778 H 0.35256 0.02216 0.63376 0.0
C1779 C 0.54344 0.06305 0.63003 0.0
C1780 C 0.45689 0.02667 0.64277 0.0
H1781 H 0.37958 0.98607 0.63062 0.0
C1782 C 0.45409 0.04328 0.65826 0.0
C1783 C 0.42994 0.0067 0.63216 0.0
C1784 C 0.43189 0.99005 0.61443 0.0
C1785 C 0.42479 0.03947 0.66402 0.0
C1786 C 0.39755 0.0179 0.65428 0.0
C1787 C 0.40049 0.00227 0.63823 0.0
C1788 C 0.36571 0.01027 0.66105 0.0
C1789 C 0.42337 0.05861 0.68047 0.0
C1790 C 0.35551 0.99874 0.67997 0.0
C1791 C 0.32554 0.99154 0.68653 0.0
C1792 C 0.30498 0.99529 0.67416 0.0
C1793 C 0.31497 0.00611 0.655 0.0
C1794 C 0.34514 0.01356 0.6485 0.0
H1795 H 0.44615 0.08029 0.68197 0.0
H1796 H 0.40452 0.06455 0.67829 0.0
H1797 H 0.41838 0.04533 0.69431 0.0
H1798 H 0.37072 0.99518 0.68968 0.0
H1799 H 0.31847 0.98287 0.70128 0.0
H1800 H 0.02061 0.34449 0.7316 0.0
H1801 H 0.01227 0.38643 0.72041 0.0
H1802 H 0.99121 0.34732 0.66318 0.0
H1803 H 0.00034 0.30584 0.67405 0.0
H1804 H 0.03245 0.40791 0.66163 0.0
H1805 H 0.93094 0.38573 0.70955 0.0
H1806 H 0.96456 0.39047 0.72258 0.0
H1807 H 0.94439 0.35817 0.70678 0.0
C1808 C 0.01389 0.34464 0.71669 0.0
C1809 C 0.01111 0.32181 0.70372 0.0
C1810 C 0.00898 0.36855 0.71034 0.0
C1811 C 0.00069 0.36973 0.69104 0.0
C1812 C 0.99755 0.34679 0.67815 0.0
H1813 H 0.92816 0.48118 0.64208 0.0
H1814 H 0.93593 0.44018 0.65601 0.0
C1815 C 0.00276 0.32309 0.6844 0.0
C1816 C 0.99666 0.39556 0.68393 0.0
H1817 H 0.95443 0.43234 0.69108 0.0
C1818 C 0.01537 0.41328 0.66806 0.0
C1819 C 0.97412 0.40223 0.69222 0.0
C1820 C 0.95213 0.38298 0.7086 0.0
C1821 C 0.01217 0.43752 0.66021 0.0
C1822 C 0.99029 0.44481 0.66887 0.0
C1823 C 0.97151 0.42702 0.68469 0.0
C1824 C 0.98558 0.46996 0.66122 0.0
C1825 C 0.03154 0.4544 0.64235 0.0
C1826 C 0.01079 0.5003 0.65978 0.0
C1827 C 0.0064 0.52358 0.65167 0.0
C1828 C 0.97648 0.51701 0.64564 0.0
C1829 C 0.95122 0.48679 0.64722 0.0
C1830 C 0.95568 0.46344 0.65506 0.0
H1831 H 0.04015 0.44057 0.63447 0.0
H1832 H 0.01775 0.46022 0.63218 0.0
H1833 H 0.0524 0.47615 0.64678 0.0
H1834 H 0.03389 0.50594 0.66481 0.0
H1835 H 0.02622 0.54675 0.65029 0.0
H1836 H 0.21491 0.88934 0.68346 0.0
H1837 H 0.17867 0.83708 0.6727 0.0
H1838 H 0.10005 0.85147 0.68492 0.0
H1839 H 0.1366 0.90429 0.69488 0.0
H1840 H 0.13678 0.79269 0.69529 0.0
H1841 H 0.07349 0.80902 0.63399 0.0
H1842 H 0.1097 0.83972 0.64312 0.0
H1843 H 0.0731 0.82846 0.65576 0.0
C1844 C 0.18992 0.88154 0.68323 0.0
C1845 C 0.17845 0.90089 0.68941 0.0
C1846 C 0.16924 0.85171 0.67721 0.0
C1847 C 0.1366 0.84036 0.67779 0.0
C1848 C 0.12511 0.8599 0.68378 0.0
H1849 H 0.99851 0.64433 0.68417 0.0
H1850 H 0.03437 0.69818 0.69183 0.0
C1851 C 0.14594 0.89003 0.68949 0.0
C1852 C 0.11486 0.80729 0.67389 0.0
H1853 H 0.0535 0.7581 0.646 0.0
C1854 C 0.11867 0.78517 0.68444 0.0
C1855 C 0.09116 0.7974 0.65977 0.0
C1856 C 0.08665 0.81985 0.64738 0.0
C1857 C 0.0997 0.75355 0.68113 0.0
C1858 C 0.07581 0.74376 0.6672 0.0
C1859 C 0.07181 0.76576 0.65673 0.0
C1860 C 0.05507 0.71082 0.66289 0.0
C1861 C 0.10586 0.73097 0.69227 0.0
C1862 C 0.05467 0.70018 0.64404 0.0
C1863 C 0.03407 0.66948 0.63955 0.0
C1864 C 0.01336 0.64882 0.65384 0.0
C1865 C 0.01422 0.65951 0.67282 0.0
C1866 C 0.03479 0.69027 0.67727 0.0
H1867 H 0.12967 0.74238 0.69865 0.0
H1868 H 0.08829 0.72051 0.70434 0.0
H1869 H 0.10362 0.71215 0.68275 0.0
H1870 H 0.07015 0.71573 0.63273 0.0
H1871 H 0.03411 0.66212 0.62478 0.0
H1872 H 0.10706 0.25192 0.71746 0.0
H1873 H 0.15903 0.27248 0.70171 0.0
H1874 H 0.17202 0.36446 0.70469 0.0
H1875 H 0.11935 0.34355 0.71927 0.0
H1876 H 0.18504 0.355 0.67016 0.0
H1877 H 0.24627 0.31701 0.72086 0.0
H1878 H 0.21051 0.28495 0.71266 0.0
H1879 H 0.20897 0.31427 0.727 0.0
C1880 C 0.12103 0.27644 0.71446 0.0
C1881 C 0.10898 0.2961 0.71855 0.0
C1882 C 0.15094 0.28828 0.70593 0.0
C1883 C 0.16952 0.32007 0.70212 0.0
C1884 C 0.15801 0.33985 0.70735 0.0
H1885 H 0.36309 0.40018 0.66035 0.0
H1886 H 0.31559 0.389 0.6792 0.0
C1887 C 0.12801 0.32795 0.7156 0.0
C1888 C 0.19964 0.33252 0.69112 0.0
H1889 H 0.26969 0.33322 0.68898 0.0
C1890 C 0.2036 0.35033 0.67435 0.0
C1891 C 0.22414 0.32703 0.69682 0.0
C1892 C 0.2224 0.31005 0.71544 0.0
C1893 C 0.23102 0.3622 0.66284 0.0
C1894 C 0.25487 0.35544 0.66795 0.0
C1895 C 0.25125 0.33818 0.68496 0.0
C1896 C 0.28364 0.36566 0.65579 0.0
C1897 C 0.23454 0.38263 0.6457 0.0
C1898 C 0.28145 0.35671 0.6363 0.0
C1899 C 0.30857 0.36363 0.62547 0.0
C1900 C 0.33816 0.37938 0.63404 0.0
C1901 C 0.34043 0.38854 0.65343 0.0
C1902 C 0.31339 0.38205 0.66416 0.0
H1903 H 0.21816 0.392 0.64677 0.0
H1904 H 0.25892 0.40214 0.64472 0.0
H1905 H 0.22937 0.36925 0.63213 0.0
H1906 H 0.25873 0.34316 0.62972 0.0
H1907 H 0.30632 0.3554 0.61073 0.0
H1908 H 0.74503 0.8529 0.70519 0.0
H1909 H 0.72955 0.89025 0.69425 0.0
H1910 H 0.63211 0.81846 0.6953 0.0
H1911 H 0.64787 0.7809 0.70533 0.0
H1912 H 0.64576 0.85237 0.66308 0.0
H1913 H 0.69024 0.92943 0.72622 0.0
H1914 H 0.7206 0.925 0.71435 0.0
H1915 H 0.68774 0.89216 0.72593 0.0
C1916 C 0.72042 0.84515 0.70269 0.0
C1917 C 0.69768 0.81403 0.70526 0.0
C1918 C 0.71152 0.86652 0.69684 0.0
C1919 C 0.67962 0.85719 0.69419 0.0
C1920 C 0.65684 0.82612 0.69721 0.0
H1921 H 0.61304 0.98913 0.68086 0.0
H1922 H 0.62236 0.94806 0.69277 0.0
C1923 C 0.6658 0.80474 0.70289 0.0
C1924 C 0.67 0.8796 0.6878 0.0
H1925 H 0.67628 0.94899 0.69854 0.0
C1926 C 0.65224 0.87341 0.6709 0.0
C1927 C 0.67789 0.9067 0.69826 0.0
C1928 C 0.69487 0.91357 0.71731 0.0
C1929 C 0.64283 0.89395 0.66388 0.0
C1930 C 0.65228 0.92189 0.67372 0.0
C1931 C 0.66934 0.92771 0.6909 0.0
C1932 C 0.64539 0.94575 0.66623 0.0
C1933 C 0.62251 0.88524 0.64615 0.0
C1934 C 0.65545 0.95818 0.64745 0.0
C1935 C 0.64978 0.98126 0.64053 0.0
C1936 C 0.63454 0.99286 0.65243 0.0
C1937 C 0.62481 0.98065 0.67135 0.0
C1938 C 0.63012 0.95721 0.67816 0.0
H1939 H 0.60897 0.85984 0.64445 0.0
H1940 H 0.60569 0.8941 0.64688 0.0
H1941 H 0.63776 0.8952 0.63299 0.0
H1942 H 0.66816 0.95039 0.63822 0.0
H1943 H 0.65802 0.9905 0.626 0.0
loop_
_geom_bond_atom_site_label_1
_geom_bond_atom_site_label_2
_geom_bond_distance
_geom_bond_site_symmetry_2
_ccdc_geom_bond_type
Mn0 O5 2.095 . S
Mn0 O15 2.162 . S
Mn0 O16 2.297 . S
Mn0 O24 2.385 . S
Mn0 O25 2.209 . S
Mn0 O26 2.072 1_545 S
Mn1 O6 2.121 . S
Mn1 N8 2.257 1_554 S
Mn1 N17 2.282 1_554 S
Mn1 O25 2.215 . S
Mn1 O27 2.117 . S
C2 O24 1.234 . S
C2 O25 1.283 . S
C3 O15 1.281 . S
C3 O16 1.236 . S
C4 O26 1.255 . S
C4 O27 1.264 1_565 S
O5 Mn0 2.095 . S
O5 C14 1.250 . S
O6 Mn1 2.121 . S
O6 C14 1.258 . S
C7 N8 1.326 . S
C7 C11 1.460 . S
C7 H13 0.942 . S
N8 Mn1 2.257 1_556 S
N8 C7 1.326 . S
N8 C12 1.362 . S
C9 C10 1.258 . S
C9 C12 1.431 . S
C9 C29 1.449 . S
C10 C9 1.258 . S
C10 C11 1.477 . S
C10 H30 0.931 . S
C11 C7 1.460 . S
C11 C10 1.477 . S
C11 H31 0.930 . S
C12 N8 1.362 . S
C12 C9 1.431 . S
C12 C22 1.476 . S
H13 C7 0.942 . S
C14 O5 1.250 . S
C14 O6 1.258 . S
O15 Mn0 2.162 . S
O15 C3 1.281 . S
O16 Mn0 2.297 . S
O16 C3 1.236 . S
N17 Mn1 2.282 1_556 S
N17 C18 1.328 . S
N17 C22 1.318 . S
C18 N17 1.328 . S
C18 C19 1.457 . S
C18 H23 0.929 1_556 S
C19 C18 1.457 . S
C19 C20 1.291 . S
C19 H32 0.931 . S
C20 C19 1.291 . S
C20 C21 1.373 . S
C20 H33 0.929 . S
C21 C20 1.373 . S
C21 C22 1.396 . S
C21 C28 1.403 . S
C22 C12 1.476 . S
C22 N17 1.318 . S
C22 C21 1.396 . S
H23 C18 0.929 1_554 S
O24 Mn0 2.385 . S
O24 C2 1.234 . S
O25 Mn0 2.209 . S
O25 Mn1 2.215 . S
O25 C2 1.283 . S
O26 Mn0 2.072 1_565 S
O26 C4 1.255 . S
O27 Mn1 2.117 . S
O27 C4 1.264 1_545 S
C28 C21 1.403 . S
C28 C29 1.399 . S
C28 H34 0.929 . S
C29 C9 1.449 . S
C29 C28 1.399 . S
C29 H35 0.930 . S
H30 C10 0.931 . S
H31 C11 0.930 . S
H32 C19 0.931 . S
H33 C20 0.929 . S
H34 C28 0.929 . S
H35 C29 0.930 . S
Mn36 O41 2.095 . S
Mn36 O51 2.162 . S
Mn36 O52 2.297 . S
Mn36 O60 2.385 . S
Mn36 O61 2.209 . S
Mn36 O62 2.094 . S
Mn37 O42 2.121 . S
Mn37 N44 2.257 1_554 S
Mn37 N53 2.282 1_554 S
Mn37 O61 2.215 . S
Mn37 O63 2.117 . S
C38 O60 1.234 . S
C38 O61 1.283 . S
C39 O51 1.281 . S
C39 O52 1.236 . S
C40 O62 1.240 1_455 S
C40 O63 1.264 1_455 S
O41 Mn36 2.095 . S
O41 C50 1.250 . S
O42 Mn37 2.121 . S
O42 C50 1.258 . S
C43 N44 1.326 . S
C43 C47 1.460 . S
C43 H49 0.929 1_556 S
N44 Mn37 2.257 1_556 S
N44 C43 1.326 . S
N44 C48 1.362 . S
C45 C46 1.258 . S
C45 C48 1.431 . S
C45 C65 1.449 . S
C46 C45 1.258 . S
C46 C47 1.477 . S
C46 H66 0.931 . S
C47 C43 1.460 . S
C47 C46 1.477 . S
C47 H67 0.930 . S
C48 N44 1.362 . S
C48 C45 1.431 . S
C48 C58 1.476 . S
H49 C43 0.929 1_554 S
C50 O41 1.250 . S
C50 O42 1.258 . S
O51 Mn36 2.162 . S
O51 C39 1.281 . S
O52 Mn36 2.297 . S
O52 C39 1.236 . S
N53 Mn37 2.282 1_556 S
N53 C54 1.328 . S
N53 C58 1.318 . S
C54 N53 1.328 . S
C54 C55 1.457 . S
C54 H59 0.929 1_556 S
C55 C54 1.457 . S
C55 C56 1.291 . S
C55 H68 0.931 . S
C56 C55 1.291 . S
C56 C57 1.373 . S
C56 H69 0.929 . S
C57 C56 1.373 . S
C57 C58 1.396 . S
C57 C64 1.403 . S
C58 C48 1.476 . S
C58 N53 1.318 . S
C58 C57 1.396 . S
H59 C54 0.929 1_554 S
O60 Mn36 2.385 . S
O60 C38 1.234 . S
O61 Mn36 2.209 . S
O61 Mn37 2.215 . S
O61 C38 1.283 . S
O62 Mn36 2.094 . S
O62 C40 1.240 1_655 S
O63 Mn37 2.117 . S
O63 C40 1.264 1_655 S
C64 C57 1.403 . S
C64 C65 1.399 . S
C64 H70 0.929 . S
C65 C45 1.449 . S
C65 C64 1.399 . S
C65 H71 0.930 . S
H66 C46 0.931 . S
H67 C47 0.930 . S
H68 C55 0.931 . S
H69 C56 0.929 . S
H70 C64 0.929 . S
H71 C65 0.930 . S
Mn72 O77 2.095 . S
Mn72 O87 2.162 . S
Mn72 O88 2.297 . S
Mn72 O96 2.385 . S
Mn72 O97 2.209 . S
Mn72 O98 2.094 . S
Mn73 O78 2.121 . S
Mn73 N80 2.257 1_554 S
Mn73 N89 2.282 1_554 S
Mn73 O97 2.215 . S
Mn73 O99 2.117 . S
C74 O96 1.234 . S
C74 O97 1.283 . S
C75 O87 1.281 . S
C75 O88 1.236 . S
C76 O98 1.240 . S
C76 O99 1.264 . S
O77 Mn72 2.095 . S
O77 C86 1.250 . S
O78 Mn73 2.121 . S
O78 C86 1.258 . S
C79 N80 1.326 . S
C79 C83 1.460 . S
C79 H85 0.929 . S
N80 Mn73 2.257 1_556 S
N80 C79 1.326 . S
N80 C84 1.362 . S
C81 C82 1.258 . S
C81 C84 1.431 . S
C81 C101 1.449 . S
C82 C81 1.258 . S
C82 C83 1.477 . S
C82 H102 0.931 . S
C83 C79 1.460 . S
C83 C82 1.477 . S
C83 H103 0.930 . S
C84 N80 1.362 . S
C84 C81 1.431 . S
C84 C94 1.476 . S
H85 C79 0.929 . S
C86 O77 1.250 . S
C86 O78 1.258 . S
O87 Mn72 2.162 . S
O87 C75 1.281 . S
O88 Mn72 2.297 . S
O88 C75 1.236 . S
N89 Mn73 2.282 1_556 S
N89 C90 1.328 . S
N89 C94 1.318 . S
C90 N89 1.328 . S
C90 C91 1.457 . S
C90 H95 0.904 1_556 S
C91 C90 1.457 . S
C91 C92 1.291 . S
C91 H104 0.931 . S
C92 C91 1.291 . S
C92 C93 1.373 . S
C92 H105 0.929 . S
C93 C92 1.373 . S
C93 C94 1.396 . S
C93 C100 1.403 . S
C94 C84 1.476 . S
C94 N89 1.318 . S
C94 C93 1.396 . S
H95 C90 0.904 1_554 S
O96 Mn72 2.385 . S
O96 C74 1.234 . S
O97 Mn72 2.209 . S
O97 Mn73 2.215 . S
O97 C74 1.283 . S
O98 Mn72 2.094 . S
O98 C76 1.240 . S
O99 Mn73 2.117 . S
O99 C76 1.264 . S
C100 C93 1.403 . S
C100 C101 1.399 . S
C100 H106 0.929 . S
C101 C81 1.449 . S
C101 C100 1.399 . S
C101 H107 0.930 . S
H102 C82 0.931 . S
H103 C83 0.930 . S
H104 C91 0.931 . S
H105 C92 0.929 . S
H106 C100 0.929 . S
H107 C101 0.930 . S
Mn108 O113 2.095 . S
Mn108 O123 2.162 . S
Mn108 O124 2.297 . S
Mn108 O132 2.385 . S
Mn108 O133 2.209 . S
Mn108 O134 2.094 1_565 S
Mn109 O114 2.121 . S
Mn109 N116 2.257 1_556 S
Mn109 N125 2.282 1_556 S
Mn109 O133 2.215 . S
Mn109 O135 2.117 1_565 S
C110 O132 1.234 . S
C110 O133 1.283 . S
C111 O123 1.281 . S
C111 O124 1.236 . S
C112 O134 1.240 . S
C112 O135 1.264 . S
O113 Mn108 2.095 . S
O113 C122 1.250 . S
O114 Mn109 2.121 . S
O114 C122 1.258 . S
C115 N116 1.326 . S
C115 C119 1.460 . S
C115 H121 0.932 . S
N116 Mn109 2.257 1_554 S
N116 C115 1.326 . S
N116 C120 1.362 . S
C117 C118 1.258 . S
C117 C120 1.431 . S
C117 C137 1.449 . S
C118 C117 1.258 . S
C118 C119 1.477 . S
C118 H138 0.931 . S
C119 C115 1.460 . S
C119 C118 1.477 . S
C119 H139 0.930 . S
C120 N116 1.362 . S
C120 C117 1.431 . S
C120 C130 1.476 . S
H121 C115 0.932 . S
C122 O113 1.250 . S
C122 O114 1.258 . S
O123 Mn108 2.162 . S
O123 C111 1.281 . S
O124 Mn108 2.297 . S
O124 C111 1.236 . S
N125 Mn109 2.282 1_554 S
N125 C126 1.328 . S
N125 C130 1.318 . S
C126 N125 1.328 . S
C126 C127 1.457 . S
C126 H131 0.929 1_554 S
C127 C126 1.457 . S
C127 C128 1.291 . S
C127 H140 0.931 . S
C128 C127 1.291 . S
C128 C129 1.373 . S
C128 H141 0.929 . S
C129 C128 1.373 . S
C129 C130 1.396 . S
C129 C136 1.403 . S
C130 C120 1.476 . S
C130 N125 1.318 . S
C130 C129 1.396 . S
H131 C126 0.929 1_556 S
O132 Mn108 2.385 . S
O132 C110 1.234 . S
O133 Mn108 2.209 . S
O133 Mn109 2.215 . S
O133 C110 1.283 . S
O134 Mn108 2.094 1_545 S
O134 C112 1.240 . S
O135 Mn109 2.117 1_545 S
O135 C112 1.264 . S
C136 C129 1.403 . S
C136 C137 1.399 . S
C136 H142 0.929 . S
C137 C117 1.449 . S
C137 C136 1.399 . S
C137 H143 0.930 . S
H138 C118 0.931 . S
H139 C119 0.930 . S
H140 C127 0.931 . S
H141 C128 0.929 . S
H142 C136 0.929 . S
H143 C137 0.930 . S
Mn144 O149 2.095 . S
Mn144 O159 2.162 . S
Mn144 O160 2.297 . S
Mn144 O168 2.385 1_455 S
Mn144 O169 2.241 . S
Mn144 O170 2.094 . S
Mn145 O150 2.121 . S
Mn145 N152 2.257 1_455 S
Mn145 N161 2.263 1_455 S
Mn145 O169 2.216 . S
Mn145 O171 2.117 . S
C146 O168 1.234 . S
C146 O169 1.271 1_655 S
C147 O159 1.281 . S
C147 O160 1.236 . S
C148 O170 1.240 . S
C148 O171 1.264 . S
O149 Mn144 2.095 . S
O149 C158 1.250 . S
O150 Mn145 2.121 . S
O150 C158 1.258 . S
C151 N152 1.326 . S
C151 C155 1.460 . S
C151 H157 0.929 . S
N152 Mn145 2.257 1_655 S
N152 C151 1.326 . S
N152 C156 1.362 . S
C153 C154 1.258 . S
C153 C156 1.431 . S
C153 C173 1.449 . S
C154 C153 1.258 . S
C154 C155 1.477 . S
C154 H174 0.931 . S
C155 C151 1.460 . S
C155 C154 1.477 . S
C155 H175 0.930 . S
C156 N152 1.362 . S
C156 C153 1.431 . S
C156 C166 1.476 . S
H157 C151 0.929 . S
C158 O149 1.250 . S
C158 O150 1.258 . S
O159 Mn144 2.162 . S
O159 C147 1.281 . S
O160 Mn144 2.297 . S
O160 C147 1.236 . S
N161 Mn145 2.263 1_655 S
N161 C162 1.324 1_655 S
N161 C166 1.342 . S
C162 N161 1.324 1_455 S
C162 C163 1.457 1_455 S
C162 H167 0.929 . S
C163 C162 1.457 1_655 S
C163 C164 1.291 . S
C163 H176 0.931 1_556 S
C164 C163 1.291 . S
C164 C165 1.373 . S
C164 H177 0.929 . S
C165 C164 1.373 . S
C165 C166 1.396 . S
C165 C172 1.403 . S
C166 C156 1.476 . S
C166 N161 1.342 . S
C166 C165 1.396 . S
H167 C162 0.929 . S
O168 Mn144 2.385 1_655 S
O168 C146 1.234 . S
O169 Mn144 2.241 . S
O169 Mn145 2.216 . S
O169 C146 1.271 1_455 S
O170 Mn144 2.094 . S
O170 C148 1.240 . S
O171 Mn145 2.117 . S
O171 C148 1.264 . S
C172 C165 1.403 . S
C172 C173 1.399 . S
C172 H178 0.929 . S
C173 C153 1.449 . S
C173 C172 1.399 . S
C173 H179 0.930 . S
H174 C154 0.931 . S
H175 C155 0.930 . S
H176 C163 0.931 1_554 S
H177 C164 0.929 . S
H178 C172 0.929 . S
H179 C173 0.930 . S
Mn180 O185 2.095 . S
Mn180 O195 2.162 . S
Mn180 O196 2.297 . S
Mn180 O204 2.385 . S
Mn180 O205 2.209 . S
Mn180 O206 2.094 . S
Mn181 O186 2.121 . S
Mn181 N188 2.257 1_556 S
Mn181 N197 2.282 1_556 S
Mn181 O205 2.215 . S
Mn181 O207 2.117 . S
C182 O204 1.234 . S
C182 O205 1.283 . S
C183 O195 1.281 . S
C183 O196 1.236 . S
C184 O206 1.240 . S
C184 O207 1.264 . S
O185 Mn180 2.095 . S
O185 C194 1.250 . S
O186 Mn181 2.121 . S
O186 C194 1.258 . S
C187 N188 1.326 . S
C187 C191 1.460 . S
C187 H193 0.929 1_554 S
N188 Mn181 2.257 1_554 S
N188 C187 1.326 . S
N188 C192 1.362 . S
C189 C190 1.258 . S
C189 C192 1.431 . S
C189 C209 1.449 . S
C190 C189 1.258 . S
C190 C191 1.477 . S
C190 H210 0.931 . S
C191 C187 1.460 . S
C191 C190 1.477 . S
C191 H211 0.930 . S
C192 N188 1.362 . S
C192 C189 1.431 . S
C192 C202 1.476 . S
H193 C187 0.929 1_556 S
C194 O185 1.250 . S
C194 O186 1.258 . S
O195 Mn180 2.162 . S
O195 C183 1.281 . S
O196 Mn180 2.297 . S
O196 C183 1.236 . S
N197 Mn181 2.282 1_554 S
N197 C198 1.328 . S
N197 C202 1.318 . S
C198 N197 1.328 . S
C198 C199 1.457 . S
C198 H203 0.929 1_554 S
C199 C198 1.457 . S
C199 C200 1.291 . S
C199 H212 0.931 . S
C200 C199 1.291 . S
C200 C201 1.373 . S
C200 H213 0.929 . S
C201 C200 1.373 . S
C201 C202 1.396 . S
C201 C208 1.403 . S
C202 C192 1.476 . S
C202 N197 1.318 . S
C202 C201 1.396 . S
H203 C198 0.929 1_556 S
O204 Mn180 2.385 . S
O204 C182 1.234 . S
O205 Mn180 2.209 . S
O205 Mn181 2.215 . S
O205 C182 1.283 . S
O206 Mn180 2.094 . S
O206 C184 1.240 . S
O207 Mn181 2.117 . S
O207 C184 1.264 . S
C208 C201 1.403 . S
C208 C209 1.399 . S
C208 H214 0.929 . S
C209 C189 1.449 . S
C209 C208 1.399 . S
C209 H215 0.930 . S
H210 C190 0.931 . S
H211 C191 0.930 . S
H212 C199 0.931 . S
H213 C200 0.929 . S
H214 C208 0.929 . S
H215 C209 0.930 . S
Mn216 O221 2.095 1_655 S
Mn216 O231 2.162 . S
Mn216 O232 2.297 1_655 S
Mn216 O240 2.385 . S
Mn216 O241 2.209 1_655 S
Mn216 O242 2.094 . S
Mn217 O222 2.121 . S
Mn217 N224 2.257 . S
Mn217 N233 2.282 1_455 S
Mn217 O241 2.215 . S
Mn217 O243 2.117 1_455 S
C218 O240 1.234 . S
C218 O241 1.283 1_655 S
C219 O231 1.281 1_455 S
C219 O232 1.236 . S
C220 O242 1.240 . S
C220 O243 1.264 . S
O221 Mn216 2.095 1_455 S
O221 C230 1.250 . S
O222 Mn217 2.121 . S
O222 C230 1.258 . S
C223 N224 1.326 . S
C223 C227 1.460 . S
C223 H229 0.929 . S
N224 Mn217 2.257 . S
N224 C223 1.326 . S
N224 C228 1.362 . S
C225 C226 1.258 . S
C225 C228 1.431 . S
C225 C245 1.449 . S
C226 C225 1.258 . S
C226 C227 1.477 . S
C226 H246 0.931 . S
C227 C223 1.460 . S
C227 C226 1.477 . S
C227 H247 0.930 . S
C228 N224 1.362 . S
C228 C225 1.431 . S
C228 C238 1.476 1_455 S
H229 C223 0.929 . S
C230 O221 1.250 . S
C230 O222 1.258 . S
O231 Mn216 2.162 . S
O231 C219 1.281 1_655 S
O232 Mn216 2.297 1_455 S
O232 C219 1.236 . S
N233 Mn217 2.282 1_655 S
N233 C234 1.328 . S
N233 C238 1.318 . S
C234 N233 1.328 . S
C234 C235 1.457 . S
C234 H239 0.929 . S
C235 C234 1.457 . S
C235 C236 1.291 . S
C235 H248 0.931 . S
C236 C235 1.291 . S
C236 C237 1.373 . S
C236 H249 0.929 . S
C237 C236 1.373 . S
C237 C238 1.396 . S
C237 C244 1.403 . S
C238 C228 1.476 1_655 S
C238 N233 1.318 . S
C238 C237 1.396 . S
H239 C234 0.929 . S
O240 Mn216 2.385 . S
O240 C218 1.234 . S
O241 Mn216 2.209 1_455 S
O241 Mn217 2.215 . S
O241 C218 1.283 1_455 S
O242 Mn216 2.094 . S
O242 C220 1.240 . S
O243 Mn217 2.117 1_655 S
O243 C220 1.264 . S
C244 C237 1.403 . S
C244 C245 1.399 1_655 S
C244 H250 0.929 . S
C245 C225 1.449 . S
C245 C244 1.399 1_455 S
C245 H251 0.930 . S
H246 C226 0.931 . S
H247 C227 0.930 . S
H248 C235 0.931 . S
H249 C236 0.929 . S
H250 C244 0.929 . S
H251 C245 0.930 . S
Mn252 O257 2.095 . S
Mn252 O267 2.162 . S
Mn252 O268 2.297 . S
Mn252 O276 2.385 . S
Mn252 O277 2.209 . S
Mn252 O278 2.094 . S
Mn253 O258 2.121 . S
Mn253 N260 2.257 . S
Mn253 N269 2.282 . S
Mn253 O277 2.215 . S
Mn253 O279 2.117 . S
C254 O276 1.234 . S
C254 O277 1.283 . S
C255 O267 1.281 . S
C255 O268 1.236 . S
C256 O278 1.240 . S
C256 O279 1.264 . S
O257 Mn252 2.095 . S
O257 C266 1.250 . S
O258 Mn253 2.121 . S
O258 C266 1.258 . S
C259 N260 1.326 . S
C259 C263 1.460 . S
C259 H265 0.929 . S
N260 Mn253 2.257 . S
N260 C259 1.326 . S
N260 C264 1.362 . S
C261 C262 1.258 . S
C261 C264 1.431 . S
C261 C281 1.449 . S
C262 C261 1.258 . S
C262 C263 1.477 . S
C262 H282 0.931 . S
C263 C259 1.460 . S
C263 C262 1.477 . S
C263 H283 0.930 . S
C264 N260 1.362 . S
C264 C261 1.431 . S
C264 C274 1.476 . S
H265 C259 0.929 . S
C266 O257 1.250 . S
C266 O258 1.258 . S
O267 Mn252 2.162 . S
O267 C255 1.281 . S
O268 Mn252 2.297 . S
O268 C255 1.236 . S
N269 Mn253 2.282 . S
N269 C270 1.328 . S
N269 C274 1.318 . S
C270 N269 1.328 . S
C270 C271 1.457 . S
C270 H275 0.929 . S
C271 C270 1.457 . S
C271 C272 1.291 . S
C271 H284 0.931 . S
C272 C271 1.291 . S
C272 C273 1.373 . S
C272 H285 0.929 . S
C273 C272 1.373 . S
C273 C274 1.396 . S
C273 C280 1.403 . S
C274 C264 1.476 . S
C274 N269 1.318 . S
C274 C273 1.396 . S
H275 C270 0.929 . S
O276 Mn252 2.385 . S
O276 C254 1.234 . S
O277 Mn252 2.209 . S
O277 Mn253 2.215 . S
O277 C254 1.283 . S
O278 Mn252 2.094 . S
O278 C256 1.240 . S
O279 Mn253 2.117 . S
O279 C256 1.264 . S
C280 C273 1.403 . S
C280 C281 1.399 . S
C280 H286 0.929 . S
C281 C261 1.449 . S
C281 C280 1.399 . S
C281 H287 0.930 . S
H282 C262 0.931 . S
H283 C263 0.930 . S
H284 C271 0.931 . S
H285 C272 0.929 . S
H286 C280 0.929 . S
H287 C281 0.930 . S
Mn288 O293 2.095 1_545 S
Mn288 O303 2.162 . S
Mn288 O304 2.297 1_545 S
Mn288 O312 2.385 . S
Mn288 O313 2.209 1_545 S
Mn288 O314 2.094 . S
Mn289 O294 2.121 . S
Mn289 N296 2.257 . S
Mn289 N305 2.282 1_565 S
Mn289 O313 2.215 . S
Mn289 O315 2.117 1_565 S
C290 O312 1.234 . S
C290 O313 1.283 1_545 S
C291 O303 1.281 1_565 S
C291 O304 1.236 . S
C292 O314 1.240 . S
C292 O315 1.264 . S
O293 Mn288 2.095 1_565 S
O293 C302 1.250 . S
O294 Mn289 2.121 . S
O294 C302 1.258 . S
C295 N296 1.326 . S
C295 C299 1.460 . S
C295 H301 0.929 . S
N296 Mn289 2.257 . S
N296 C295 1.326 . S
N296 C300 1.362 . S
C297 C298 1.258 . S
C297 C300 1.431 . S
C297 C317 1.449 . S
C298 C297 1.258 . S
C298 C299 1.477 . S
C298 H318 0.931 . S
C299 C295 1.460 . S
C299 C298 1.477 . S
C299 H319 0.930 . S
C300 N296 1.362 . S
C300 C297 1.431 . S
C300 C310 1.476 1_565 S
H301 C295 0.929 . S
C302 O293 1.250 . S
C302 O294 1.258 . S
O303 Mn288 2.162 . S
O303 C291 1.281 1_545 S
O304 Mn288 2.297 1_565 S
O304 C291 1.236 . S
N305 Mn289 2.282 1_545 S
N305 C306 1.328 . S
N305 C310 1.318 . S
C306 N305 1.328 . S
C306 C307 1.457 . S
C306 H311 0.929 . S
C307 C306 1.457 . S
C307 C308 1.291 . S
C307 H320 0.931 . S
C308 C307 1.291 . S
C308 C309 1.373 . S
C308 H321 0.929 . S
C309 C308 1.373 . S
C309 C310 1.396 . S
C309 C316 1.403 . S
C310 C300 1.476 1_545 S
C310 N305 1.318 . S
C310 C309 1.396 . S
H311 C306 0.929 . S
O312 Mn288 2.385 . S
O312 C290 1.234 . S
O313 Mn288 2.209 1_565 S
O313 Mn289 2.215 . S
O313 C290 1.283 1_565 S
O314 Mn288 2.094 . S
O314 C292 1.240 . S
O315 Mn289 2.117 1_545 S
O315 C292 1.264 . S
C316 C309 1.403 . S
C316 C317 1.399 1_545 S
C316 H322 0.929 . S
C317 C297 1.449 . S
C317 C316 1.399 1_565 S
C317 H323 0.930 . S
H318 C298 0.931 . S
H319 C299 0.930 . S
H320 C307 0.931 . S
H321 C308 0.929 . S
H322 C316 0.929 . S
H323 C317 0.930 . S
Mn324 O329 2.095 . S
Mn324 O339 2.162 . S
Mn324 O340 2.297 . S
Mn324 O348 2.385 . S
Mn324 O349 2.209 . S
Mn324 O350 2.094 . S
Mn325 O330 2.121 . S
Mn325 N332 2.257 . S
Mn325 N341 2.282 . S
Mn325 O349 2.215 . S
Mn325 O351 2.117 . S
C326 O348 1.234 . S
C326 O349 1.283 . S
C327 O339 1.281 . S
C327 O340 1.236 . S
C328 O350 1.240 . S
C328 O351 1.264 . S
O329 Mn324 2.095 . S
O329 C338 1.250 . S
O330 Mn325 2.121 . S
O330 C338 1.258 . S
C331 N332 1.326 . S
C331 C335 1.460 . S
C331 H337 0.929 . S
N332 Mn325 2.257 . S
N332 C331 1.326 . S
N332 C336 1.362 . S
C333 C334 1.258 . S
C333 C336 1.431 . S
C333 C353 1.449 . S
C334 C333 1.258 . S
C334 C335 1.477 . S
C334 H354 0.931 . S
C335 C331 1.460 . S
C335 C334 1.477 . S
C335 H355 0.930 . S
C336 N332 1.362 . S
C336 C333 1.431 . S
C336 C346 1.476 . S
H337 C331 0.929 . S
C338 O329 1.250 . S
C338 O330 1.258 . S
O339 Mn324 2.162 . S
O339 C327 1.281 . S
O340 Mn324 2.297 . S
O340 C327 1.236 . S
N341 Mn325 2.282 . S
N341 C342 1.328 . S
N341 C346 1.318 . S
C342 N341 1.328 . S
C342 C343 1.457 . S
C342 H347 0.929 . S
C343 C342 1.457 . S
C343 C344 1.291 . S
C343 H356 0.931 . S
C344 C343 1.291 . S
C344 C345 1.373 . S
C344 H357 0.929 . S
C345 C344 1.373 . S
C345 C346 1.396 . S
C345 C352 1.403 . S
C346 C336 1.476 . S
C346 N341 1.318 . S
C346 C345 1.396 . S
H347 C342 0.929 . S
O348 Mn324 2.385 . S
O348 C326 1.234 . S
O349 Mn324 2.209 . S
O349 Mn325 2.215 . S
O349 C326 1.283 . S
O350 Mn324 2.094 . S
O350 C328 1.240 . S
O351 Mn325 2.117 . S
O351 C328 1.264 . S
C352 C345 1.403 . S
C352 C353 1.399 . S
C352 H358 0.929 . S
C353 C333 1.449 . S
C353 C352 1.399 . S
C353 H359 0.930 . S
H354 C334 0.931 . S
H355 C335 0.930 . S
H356 C343 0.931 . S
H357 C344 0.929 . S
H358 C352 0.929 . S
H359 C353 0.930 . S
Mn360 O365 2.095 . S
Mn360 O375 2.162 1_545 S
Mn360 O376 2.297 1_545 S
Mn360 O384 2.385 . S
Mn360 O385 2.209 . S
Mn360 O386 2.094 . S
Mn361 O366 2.121 . S
Mn361 N368 2.257 . S
Mn361 N377 2.282 . S
Mn361 O385 2.215 . S
Mn361 O387 2.117 . S
C362 O384 1.234 . S
C362 O385 1.283 . S
C363 O375 1.281 . S
C363 O376 1.236 . S
C364 O386 1.240 . S
C364 O387 1.264 . S
O365 Mn360 2.095 . S
O365 C374 1.250 . S
O366 Mn361 2.121 . S
O366 C374 1.258 . S
C367 N368 1.326 . S
C367 C371 1.460 . S
C367 H373 0.929 . S
N368 Mn361 2.257 . S
N368 C367 1.326 . S
N368 C372 1.362 . S
C369 C370 1.258 . S
C369 C372 1.431 . S
C369 C389 1.449 . S
C370 C369 1.258 . S
C370 C371 1.477 . S
C370 H390 0.931 . S
C371 C367 1.460 . S
C371 C370 1.477 . S
C371 H391 0.930 . S
C372 N368 1.362 . S
C372 C369 1.431 . S
C372 C382 1.476 . S
H373 C367 0.929 . S
C374 O365 1.250 . S
C374 O366 1.258 . S
O375 Mn360 2.162 1_565 S
O375 C363 1.281 . S
O376 Mn360 2.297 1_565 S
O376 C363 1.236 . S
N377 Mn361 2.282 . S
N377 C378 1.328 . S
N377 C382 1.318 . S
C378 N377 1.328 . S
C378 C379 1.457 . S
C378 H383 0.929 . S
C379 C378 1.457 . S
C379 C380 1.291 . S
C379 H392 0.931 . S
C380 C379 1.291 . S
C380 C381 1.373 . S
C380 H393 0.929 . S
C381 C380 1.373 . S
C381 C382 1.396 . S
C381 C388 1.403 . S
C382 C372 1.476 . S
C382 N377 1.318 . S
C382 C381 1.396 . S
H383 C378 0.929 . S
O384 Mn360 2.385 . S
O384 C362 1.234 . S
O385 Mn360 2.209 . S
O385 Mn361 2.215 . S
O385 C362 1.283 . S
O386 Mn360 2.094 . S
O386 C364 1.240 . S
O387 Mn361 2.117 . S
O387 C364 1.264 . S
C388 C381 1.403 . S
C388 C389 1.399 . S
C388 H394 0.929 . S
C389 C369 1.449 . S
C389 C388 1.399 . S
C389 H395 0.930 . S
H390 C370 0.931 . S
H391 C371 0.930 . S
H392 C379 0.931 . S
H393 C380 0.929 . S
H394 C388 0.929 . S
H395 C389 0.930 . S
Mn396 O401 2.064 1_655 S
Mn396 O411 2.162 . S
Mn396 O412 2.297 . S
Mn396 O420 2.385 . S
Mn396 O421 2.209 . S
Mn396 O422 2.094 . S
Mn397 O402 2.121 1_655 S
Mn397 N404 2.257 . S
Mn397 N413 2.282 . S
Mn397 O421 2.215 . S
Mn397 O423 2.117 . S
C398 O420 1.234 . S
C398 O421 1.283 . S
C399 O411 1.281 . S
C399 O412 1.236 . S
C400 O422 1.240 . S
C400 O423 1.264 . S
O401 Mn396 2.064 1_455 S
O401 C410 1.253 . S
O402 Mn397 2.121 1_455 S
O402 C410 1.258 . S
C403 N404 1.326 . S
C403 C407 1.460 . S
C403 H409 0.929 . S
N404 Mn397 2.257 . S
N404 C403 1.326 . S
N404 C408 1.362 . S
C405 C406 1.258 . S
C405 C408 1.431 . S
C405 C425 1.449 . S
C406 C405 1.258 . S
C406 C407 1.477 . S
C406 H426 0.931 . S
C407 C403 1.460 . S
C407 C406 1.477 . S
C407 H427 0.930 . S
C408 N404 1.362 . S
C408 C405 1.431 . S
C408 C418 1.476 . S
H409 C403 0.929 . S
C410 O401 1.253 . S
C410 O402 1.258 . S
O411 Mn396 2.162 . S
O411 C399 1.281 . S
O412 Mn396 2.297 . S
O412 C399 1.236 . S
N413 Mn397 2.282 . S
N413 C414 1.328 . S
N413 C418 1.318 . S
C414 N413 1.328 . S
C414 C415 1.457 . S
C414 H419 0.929 . S
C415 C414 1.457 . S
C415 C416 1.291 . S
C415 H428 0.931 . S
C416 C415 1.291 . S
C416 C417 1.373 . S
C416 H429 0.929 . S
C417 C416 1.373 . S
C417 C418 1.396 . S
C417 C424 1.403 . S
C418 C408 1.476 . S
C418 N413 1.318 . S
C418 C417 1.396 . S
H419 C414 0.929 . S
O420 Mn396 2.385 . S
O420 C398 1.234 . S
O421 Mn396 2.209 . S
O421 Mn397 2.215 . S
O421 C398 1.283 . S
O422 Mn396 2.094 . S
O422 C400 1.240 . S
O423 Mn397 2.117 . S
O423 C400 1.264 . S
C424 C417 1.403 . S
C424 C425 1.399 . S
C424 H430 0.929 . S
C425 C405 1.449 . S
C425 C424 1.399 . S
C425 H431 0.930 . S
H426 C406 0.931 . S
H427 C407 0.930 . S
H428 C415 0.931 . S
H429 C416 0.929 . S
H430 C424 0.929 . S
H431 C425 0.930 . S
Mn432 O437 2.095 . S
Mn432 O447 2.162 . S
Mn432 O448 2.297 . S
Mn432 O456 2.385 . S
Mn432 O457 2.209 . S
Mn432 O458 2.094 . S
Mn433 O438 2.121 . S
Mn433 N440 2.257 . S
Mn433 N449 2.282 . S
Mn433 O457 2.215 . S
Mn433 O459 2.117 . S
C434 O456 1.234 . S
C434 O457 1.283 . S
C435 O447 1.281 . S
C435 O448 1.236 . S
C436 O458 1.240 . S
C436 O459 1.264 . S
O437 Mn432 2.095 . S
O437 C446 1.250 . S
O438 Mn433 2.121 . S
O438 C446 1.258 . S
C439 N440 1.326 . S
C439 C443 1.460 . S
C439 H445 0.929 . S
N440 Mn433 2.257 . S
N440 C439 1.326 . S
N440 C444 1.362 . S
C441 C442 1.258 . S
C441 C444 1.431 . S
C441 C461 1.449 . S
C442 C441 1.258 . S
C442 C443 1.477 . S
C442 H462 0.931 . S
C443 C439 1.460 . S
C443 C442 1.477 . S
C443 H463 0.930 . S
C444 N440 1.362 . S
C444 C441 1.431 . S
C444 C454 1.476 . S
H445 C439 0.929 . S
C446 O437 1.250 . S
C446 O438 1.258 . S
O447 Mn432 2.162 . S
O447 C435 1.281 . S
O448 Mn432 2.297 . S
O448 C435 1.236 . S
N449 Mn433 2.282 . S
N449 C450 1.328 . S
N449 C454 1.318 . S
C450 N449 1.328 . S
C450 C451 1.457 . S
C450 H455 0.929 . S
C451 C450 1.457 . S
C451 C452 1.291 . S
C451 H464 0.931 . S
C452 C451 1.291 . S
C452 C453 1.373 . S
C452 H465 0.929 . S
C453 C452 1.373 . S
C453 C454 1.396 . S
C453 C460 1.403 . S
C454 C444 1.476 . S
C454 N449 1.318 . S
C454 C453 1.396 . S
H455 C450 0.929 . S
O456 Mn432 2.385 . S
O456 C434 1.234 . S
O457 Mn432 2.209 . S
O457 Mn433 2.215 . S
O457 C434 1.283 . S
O458 Mn432 2.094 . S
O458 C436 1.240 . S
O459 Mn433 2.117 . S
O459 C436 1.264 . S
C460 C453 1.403 . S
C460 C461 1.399 . S
C460 H466 0.929 . S
C461 C441 1.449 . S
C461 C460 1.399 . S
C461 H467 0.930 . S
H462 C442 0.931 . S
H463 C443 0.930 . S
H464 C451 0.931 . S
H465 C452 0.929 . S
H466 C460 0.929 . S
H467 C461 0.930 . S
Mn468 O473 2.095 . S
Mn468 O483 2.162 . S
Mn468 O484 2.297 . S
Mn468 O492 2.385 . S
Mn468 O493 2.209 . S
Mn468 O494 2.094 . S
Mn469 O474 2.121 . S
Mn469 N476 2.257 . S
Mn469 N485 2.282 . S
Mn469 O493 2.215 . S
Mn469 O495 2.117 . S
C470 O492 1.234 . S
C470 O493 1.283 . S
C471 O483 1.281 . S
C471 O484 1.236 . S
C472 O494 1.240 . S
C472 O495 1.264 . S
O473 Mn468 2.095 . S
O473 C482 1.250 1_565 S
O474 Mn469 2.121 . S
O474 C482 1.258 1_565 S
C475 N476 1.326 . S
C475 C479 1.460 . S
C475 H481 0.929 . S
N476 Mn469 2.257 . S
N476 C475 1.326 . S
N476 C480 1.362 . S
C477 C478 1.258 . S
C477 C480 1.431 . S
C477 C497 1.449 . S
C478 C477 1.258 . S
C478 C479 1.477 . S
C478 H498 0.931 . S
C479 C475 1.460 . S
C479 C478 1.477 . S
C479 H499 0.930 . S
C480 N476 1.362 . S
C480 C477 1.431 . S
C480 C490 1.476 . S
H481 C475 0.929 . S
C482 O473 1.250 1_545 S
C482 O474 1.258 1_545 S
O483 Mn468 2.162 . S
O483 C471 1.281 . S
O484 Mn468 2.297 . S
O484 C471 1.236 . S
N485 Mn469 2.282 . S
N485 C486 1.328 . S
N485 C490 1.318 . S
C486 N485 1.328 . S
C486 C487 1.457 . S
C486 H491 0.929 . S
C487 C486 1.457 . S
C487 C488 1.291 . S
C487 H500 0.931 . S
C488 C487 1.291 . S
C488 C489 1.373 . S
C488 H501 0.929 . S
C489 C488 1.373 . S
C489 C490 1.396 . S
C489 C496 1.403 . S
C490 C480 1.476 . S
C490 N485 1.318 . S
C490 C489 1.396 . S
H491 C486 0.929 . S
O492 Mn468 2.385 . S
O492 C470 1.234 . S
O493 Mn468 2.209 . S
O493 Mn469 2.215 . S
O493 C470 1.283 . S
O494 Mn468 2.094 . S
O494 C472 1.240 . S
O495 Mn469 2.117 . S
O495 C472 1.264 . S
C496 C489 1.403 . S
C496 C497 1.399 . S
C496 H502 0.929 . S
C497 C477 1.449 . S
C497 C496 1.399 . S
C497 H503 0.930 . S
H498 C478 0.931 . S
H499 C479 0.930 . S
H500 C487 0.931 . S
H501 C488 0.929 . S
H502 C496 0.929 . S
H503 C497 0.930 . S
Mn504 O509 2.095 1_455 S
Mn504 O519 2.162 . S
Mn504 O520 2.297 . S
Mn504 O528 2.385 . S
Mn504 O529 2.209 . S
Mn504 O530 2.094 . S
Mn505 O510 2.121 1_455 S
Mn505 N512 2.257 . S
Mn505 N521 2.282 . S
Mn505 O529 2.215 . S
Mn505 O531 2.117 . S
C506 O528 1.234 . S
C506 O529 1.283 . S
C507 O519 1.281 . S
C507 O520 1.236 . S
C508 O530 1.240 . S
C508 O531 1.264 . S
O509 Mn504 2.095 1_655 S
O509 C518 1.250 . S
O510 Mn505 2.121 1_655 S
O510 C518 1.258 . S
C511 N512 1.326 . S
C511 C515 1.460 . S
C511 H517 0.929 . S
N512 Mn505 2.257 . S
N512 C511 1.326 . S
N512 C516 1.362 . S
C513 C514 1.258 . S
C513 C516 1.431 . S
C513 C533 1.449 . S
C514 C513 1.258 . S
C514 C515 1.477 . S
C514 H534 0.931 . S
C515 C511 1.460 . S
C515 C514 1.477 . S
C515 H535 0.930 . S
C516 N512 1.362 . S
C516 C513 1.431 . S
C516 C526 1.476 . S
H517 C511 0.929 . S
C518 O509 1.250 . S
C518 O510 1.258 . S
O519 Mn504 2.162 . S
O519 C507 1.281 . S
O520 Mn504 2.297 . S
O520 C507 1.236 . S
N521 Mn505 2.282 . S
N521 C522 1.328 . S
N521 C526 1.318 . S
C522 N521 1.328 . S
C522 C523 1.457 . S
C522 H527 0.929 . S
C523 C522 1.457 . S
C523 C524 1.291 . S
C523 H536 0.931 . S
C524 C523 1.291 . S
C524 C525 1.373 . S
C524 H537 0.929 . S
C525 C524 1.373 . S
C525 C526 1.396 . S
C525 C532 1.403 . S
C526 C516 1.476 . S
C526 N521 1.318 . S
C526 C525 1.396 . S
H527 C522 0.929 . S
O528 Mn504 2.385 . S
O528 C506 1.234 . S
O529 Mn504 2.209 . S
O529 Mn505 2.215 . S
O529 C506 1.283 . S
O530 Mn504 2.094 . S
O530 C508 1.240 . S
O531 Mn505 2.117 . S
O531 C508 1.264 . S
C532 C525 1.403 . S
C532 C533 1.399 . S
C532 H538 0.929 . S
C533 C513 1.449 . S
C533 C532 1.399 . S
C533 H539 0.930 . S
H534 C514 0.931 . S
H535 C515 0.930 . S
H536 C523 0.931 . S
H537 C524 0.929 . S
H538 C532 0.929 . S
H539 C533 0.930 . S
Mn540 O545 2.095 1_455 S
Mn540 O555 2.162 . S
Mn540 O556 2.297 1_455 S
Mn540 O564 2.385 . S
Mn540 O565 2.209 1_455 S
Mn540 O566 2.094 . S
Mn541 O546 2.121 . S
Mn541 N548 2.257 . S
Mn541 N557 2.282 1_655 S
Mn541 O565 2.215 . S
Mn541 O567 2.117 1_655 S
C542 O564 1.234 . S
C542 O565 1.283 1_455 S
C543 O555 1.281 1_655 S
C543 O556 1.236 . S
C544 O566 1.240 . S
C544 O567 1.264 . S
O545 Mn540 2.095 1_655 S
O545 C554 1.250 . S
O546 Mn541 2.121 . S
O546 C554 1.258 . S
C547 N548 1.326 . S
C547 C551 1.460 . S
C547 H553 0.929 . S
N548 Mn541 2.257 . S
N548 C547 1.326 . S
N548 C552 1.362 . S
C549 C550 1.258 . S
C549 C552 1.431 . S
C549 C569 1.449 . S
C550 C549 1.258 . S
C550 C551 1.477 . S
C550 H570 0.931 . S
C551 C547 1.460 . S
C551 C550 1.477 . S
C551 H571 0.930 . S
C552 N548 1.362 . S
C552 C549 1.431 . S
C552 C562 1.476 1_655 S
H553 C547 0.929 . S
C554 O545 1.250 . S
C554 O546 1.258 . S
O555 Mn540 2.162 . S
O555 C543 1.281 1_455 S
O556 Mn540 2.297 1_655 S
O556 C543 1.236 . S
N557 Mn541 2.282 1_455 S
N557 C558 1.328 . S
N557 C562 1.318 . S
C558 N557 1.328 . S
C558 C559 1.457 . S
C558 H563 0.929 . S
C559 C558 1.457 . S
C559 C560 1.291 . S
C559 H572 0.931 . S
C560 C559 1.291 . S
C560 C561 1.373 . S
C560 H573 0.929 . S
C561 C560 1.373 . S
C561 C562 1.396 . S
C561 C568 1.403 . S
C562 C552 1.476 1_455 S
C562 N557 1.318 . S
C562 C561 1.396 . S
H563 C558 0.929 . S
O564 Mn540 2.385 . S
O564 C542 1.234 . S
O565 Mn540 2.209 1_655 S
O565 Mn541 2.215 . S
O565 C542 1.283 1_655 S
O566 Mn540 2.094 . S
O566 C544 1.240 . S
O567 Mn541 2.117 1_455 S
O567 C544 1.264 . S
C568 C561 1.403 . S
C568 C569 1.399 1_455 S
C568 H574 0.929 . S
C569 C549 1.449 . S
C569 C568 1.399 1_655 S
C569 H575 0.930 . S
H570 C550 0.931 . S
H571 C551 0.930 . S
H572 C559 0.931 . S
H573 C560 0.929 . S
H574 C568 0.929 . S
H575 C569 0.930 . S
Mn576 O581 2.095 . S
Mn576 O591 2.162 . S
Mn576 O592 2.297 . S
Mn576 O600 2.385 . S
Mn576 O601 2.209 . S
Mn576 O602 2.094 . S
Mn577 O582 2.121 . S
Mn577 N584 2.257 . S
Mn577 N593 2.282 . S
Mn577 O601 2.215 . S
Mn577 O603 2.117 . S
C578 O600 1.234 . S
C578 O601 1.283 . S
C579 O591 1.281 . S
C579 O592 1.236 . S
C580 O602 1.240 . S
C580 O603 1.264 . S
O581 Mn576 2.095 . S
O581 C590 1.250 . S
O582 Mn577 2.121 . S
O582 C590 1.258 . S
C583 N584 1.326 . S
C583 C587 1.460 . S
C583 H589 0.929 . S
N584 Mn577 2.257 . S
N584 C583 1.326 . S
N584 C588 1.362 . S
C585 C586 1.258 . S
C585 C588 1.431 . S
C585 C605 1.449 . S
C586 C585 1.258 . S
C586 C587 1.477 . S
C586 H606 0.931 . S
C587 C583 1.460 . S
C587 C586 1.477 . S
C587 H607 0.930 . S
C588 N584 1.362 . S
C588 C585 1.431 . S
C588 C598 1.476 . S
H589 C583 0.929 . S
C590 O581 1.250 . S
C590 O582 1.258 . S
O591 Mn576 2.162 . S
O591 C579 1.281 . S
O592 Mn576 2.297 . S
O592 C579 1.236 . S
N593 Mn577 2.282 . S
N593 C594 1.328 . S
N593 C598 1.318 . S
C594 N593 1.328 . S
C594 C595 1.457 . S
C594 H599 0.929 . S
C595 C594 1.457 . S
C595 C596 1.291 . S
C595 H608 0.931 . S
C596 C595 1.291 . S
C596 C597 1.373 . S
C596 H609 0.929 . S
C597 C596 1.373 . S
C597 C598 1.396 . S
C597 C604 1.403 . S
C598 C588 1.476 . S
C598 N593 1.318 . S
C598 C597 1.396 . S
H599 C594 0.929 . S
O600 Mn576 2.385 . S
O600 C578 1.234 . S
O601 Mn576 2.209 . S
O601 Mn577 2.215 . S
O601 C578 1.283 . S
O602 Mn576 2.094 . S
O602 C580 1.240 . S
O603 Mn577 2.117 . S
O603 C580 1.264 . S
C604 C597 1.403 . S
C604 C605 1.399 . S
C604 H610 0.929 . S
C605 C585 1.449 . S
C605 C604 1.399 . S
C605 H611 0.930 . S
H606 C586 0.931 . S
H607 C587 0.930 . S
H608 C595 0.931 . S
H609 C596 0.929 . S
H610 C604 0.929 . S
H611 C605 0.930 . S
Mn612 O617 2.095 1_565 S
Mn612 O627 2.162 . S
Mn612 O628 2.297 1_565 S
Mn612 O636 2.385 . S
Mn612 O637 2.209 1_565 S
Mn612 O638 2.094 . S
Mn613 O618 2.121 . S
Mn613 N620 2.257 . S
Mn613 N629 2.282 1_545 S
Mn613 O637 2.215 . S
Mn613 O639 2.117 1_545 S
C614 O636 1.234 . S
C614 O637 1.283 1_565 S
C615 O627 1.281 1_545 S
C615 O628 1.236 . S
C616 O638 1.240 . S
C616 O639 1.264 . S
O617 Mn612 2.095 1_545 S
O617 C626 1.250 . S
O618 Mn613 2.121 . S
O618 C626 1.258 . S
C619 N620 1.326 . S
C619 C623 1.460 . S
C619 H625 0.929 . S
N620 Mn613 2.257 . S
N620 C619 1.326 . S
N620 C624 1.362 . S
C621 C622 1.258 . S
C621 C624 1.431 . S
C621 C641 1.449 . S
C622 C621 1.258 . S
C622 C623 1.477 . S
C622 H642 0.931 . S
C623 C619 1.460 . S
C623 C622 1.477 . S
C623 H643 0.930 . S
C624 N620 1.362 . S
C624 C621 1.431 . S
C624 C634 1.476 1_545 S
H625 C619 0.929 . S
C626 O617 1.250 . S
C626 O618 1.258 . S
O627 Mn612 2.162 . S
O627 C615 1.281 1_565 S
O628 Mn612 2.297 1_545 S
O628 C615 1.236 . S
N629 Mn613 2.282 1_565 S
N629 C630 1.328 . S
N629 C634 1.318 . S
C630 N629 1.328 . S
C630 C631 1.457 . S
C630 H635 0.929 . S
C631 C630 1.457 . S
C631 C632 1.291 . S
C631 H644 0.931 . S
C632 C631 1.291 . S
C632 C633 1.373 . S
C632 H645 0.929 . S
C633 C632 1.373 . S
C633 C634 1.396 . S
C633 C640 1.403 . S
C634 C624 1.476 1_565 S
C634 N629 1.318 . S
C634 C633 1.396 . S
H635 C630 0.929 . S
O636 Mn612 2.385 . S
O636 C614 1.234 . S
O637 Mn612 2.209 1_545 S
O637 Mn613 2.215 . S
O637 C614 1.283 1_545 S
O638 Mn612 2.094 . S
O638 C616 1.240 . S
O639 Mn613 2.117 1_565 S
O639 C616 1.264 . S
C640 C633 1.403 . S
C640 C641 1.399 1_565 S
C640 H646 0.929 . S
C641 C621 1.449 . S
C641 C640 1.399 1_545 S
C641 H647 0.930 . S
H642 C622 0.931 . S
H643 C623 0.930 . S
H644 C631 0.931 . S
H645 C632 0.929 . S
H646 C640 0.929 . S
H647 C641 0.930 . S
H648 C656 0.929 . S
H649 C658 0.930 . S
H650 C660 0.930 . S
H651 C663 0.929 . S
H652 C666 0.930 . S
H653 C668 0.960 . S
H654 C668 0.960 . S
H655 C668 0.960 . S
C656 H648 0.929 . S
C656 C657 1.377 1_565 S
C656 C658 1.384 . S
C657 C656 1.377 1_545 S
C657 C663 1.390 . S
C658 H649 0.930 . S
C658 C656 1.384 . S
C658 C659 1.372 1_565 S
C659 C658 1.372 1_545 S
C659 C660 1.400 . S
C659 C664 1.490 . S
C660 H650 0.930 . S
C660 C659 1.400 . S
C660 C663 1.386 . S
H661 C677 0.930 . S
H662 C678 0.931 . S
C663 H651 0.929 . S
C663 C657 1.390 . S
C663 C660 1.386 . S
C664 C659 1.490 . S
C664 C666 1.395 1_544 S
C664 C667 1.403 . S
H665 C671 0.930 . S
C666 H652 0.930 . S
C666 C664 1.395 1_566 S
C666 C669 1.403 . S
C667 C664 1.403 . S
C667 C668 1.524 . S
C667 C671 1.400 . S
C668 H653 0.960 . S
C668 H654 0.960 . S
C668 H655 0.960 . S
C668 C667 1.524 . S
C669 C666 1.403 . S
C669 C670 1.392 . S
C669 C673 1.495 . S
C670 C669 1.392 . S
C670 C671 1.385 1_566 S
C670 C672 1.478 . S
C671 H665 0.930 . S
C671 C667 1.400 . S
C671 C670 1.385 1_544 S
C672 C670 1.478 . S
C672 C674 1.381 . S
C672 C678 1.383 1_565 S
C673 C669 1.495 . S
C673 H679 0.959 . S
C673 H680 0.961 . S
C673 H681 0.960 . S
C674 C672 1.381 . S
C674 C675 1.394 . S
C674 H682 0.930 . S
C675 C674 1.394 . S
C675 C676 1.383 . S
C675 H683 0.929 . S
C676 C675 1.383 . S
C676 C677 1.377 1_565 S
C677 H661 0.930 . S
C677 C676 1.377 1_545 S
C677 C678 1.379 . S
C678 H662 0.931 . S
C678 C672 1.383 1_545 S
C678 C677 1.379 . S
H679 C673 0.959 . S
H680 C673 0.961 . S
H681 C673 0.960 . S
H682 C674 0.930 . S
H683 C675 0.929 . S
H684 C692 0.929 1_455 S
H685 C694 0.930 . S
H686 C696 0.930 . S
H687 C699 0.929 . S
H688 C702 0.930 . S
H689 C704 0.960 . S
H690 C704 0.960 . S
H691 C704 0.960 . S
C692 H684 0.929 1_655 S
C692 C693 1.377 . S
C692 C694 1.384 1_655 S
C693 C692 1.377 . S
C693 C699 1.390 . S
C694 H685 0.930 . S
C694 C692 1.384 1_455 S
C694 C695 1.372 1_455 S
C695 C694 1.372 1_655 S
C695 C696 1.400 . S
C695 C700 1.490 . S
C696 H686 0.930 . S
C696 C695 1.400 . S
C696 C699 1.386 . S
H697 C713 0.930 . S
H698 C714 0.931 . S
C699 H687 0.929 . S
C699 C693 1.390 . S
C699 C696 1.386 . S
C700 C695 1.490 . S
C700 C702 1.395 1_654 S
C700 C703 1.403 . S
H701 C707 0.930 . S
C702 H688 0.930 . S
C702 C700 1.395 1_456 S
C702 C705 1.403 . S
C703 C700 1.403 . S
C703 C704 1.524 . S
C703 C707 1.400 . S
C704 H689 0.960 . S
C704 H690 0.960 . S
C704 H691 0.960 . S
C704 C703 1.524 . S
C705 C702 1.403 . S
C705 C706 1.412 . S
C705 C709 1.495 . S
C706 C705 1.412 . S
C706 C707 1.371 1_456 S
C706 C708 1.471 . S
C707 H701 0.930 . S
C707 C703 1.400 . S
C707 C706 1.371 1_654 S
C708 C706 1.471 . S
C708 C710 1.381 . S
C708 C714 1.383 1_455 S
C709 C705 1.495 . S
C709 H715 0.959 . S
C709 H716 0.961 . S
C709 H717 0.960 . S
C710 C708 1.381 . S
C710 C711 1.394 . S
C710 H718 0.930 . S
C711 C710 1.394 . S
C711 C712 1.383 . S
C711 H719 0.929 . S
C712 C711 1.383 . S
C712 C713 1.377 1_455 S
C713 H697 0.930 . S
C713 C712 1.377 1_655 S
C713 C714 1.379 . S
C714 H698 0.931 . S
C714 C708 1.383 1_655 S
C714 C713 1.379 . S
H715 C709 0.959 . S
H716 C709 0.961 . S
H717 C709 0.960 . S
H718 C710 0.930 . S
H719 C711 0.929 . S
H720 C728 0.929 . S
H721 C730 0.930 . S
H722 C732 0.930 . S
H723 C735 0.929 . S
H724 C738 0.929 . S
H725 C740 0.960 . S
H726 C740 0.960 . S
H727 C740 0.960 . S
C728 H720 0.929 . S
C728 C729 1.377 . S
C728 C730 1.384 . S
C729 C728 1.377 . S
C729 C735 1.390 . S
C730 H721 0.930 . S
C730 C728 1.384 . S
C730 C731 1.372 . S
C731 C730 1.372 . S
C731 C732 1.400 . S
C731 C736 1.490 . S
C732 H722 0.930 . S
C732 C731 1.400 . S
C732 C735 1.386 . S
H733 C749 0.930 . S
H734 C750 0.931 . S
C735 H723 0.929 . S
C735 C729 1.390 . S
C735 C732 1.386 . S
C736 C731 1.490 . S
C736 C738 1.424 . S
C736 C739 1.403 . S
H737 C743 0.930 . S
C738 H724 0.929 . S
C738 C736 1.424 . S
C738 C741 1.377 1_556 S
C739 C736 1.403 . S
C739 C740 1.524 . S
C739 C743 1.400 . S
C740 H725 0.960 . S
C740 H726 0.960 . S
C740 H727 0.960 . S
C740 C739 1.524 . S
C741 C738 1.377 1_554 S
C741 C742 1.392 . S
C741 C745 1.495 . S
C742 C741 1.392 . S
C742 C743 1.385 1_554 S
C742 C744 1.478 . S
C743 H737 0.930 . S
C743 C739 1.400 . S
C743 C742 1.385 1_556 S
C744 C742 1.478 . S
C744 C746 1.381 . S
C744 C750 1.383 . S
C745 C741 1.495 . S
C745 H751 0.959 . S
C745 H752 0.961 . S
C745 H753 0.960 . S
C746 C744 1.381 . S
C746 C747 1.394 . S
C746 H754 0.930 . S
C747 C746 1.394 . S
C747 C748 1.383 . S
C747 H755 0.929 . S
C748 C747 1.383 . S
C748 C749 1.377 . S
C749 H733 0.930 . S
C749 C748 1.377 . S
C749 C750 1.379 . S
C750 H734 0.931 . S
C750 C744 1.383 . S
C750 C749 1.379 . S
H751 C745 0.959 . S
H752 C745 0.961 . S
H753 C745 0.960 . S
H754 C746 0.930 . S
H755 C747 0.929 . S
H756 C764 0.929 . S
H757 C766 0.930 . S
H758 C768 0.930 . S
H759 C771 0.929 . S
H760 C774 0.930 . S
H761 C776 0.960 . S
H762 C776 0.960 . S
H763 C776 0.960 . S
C764 H756 0.929 . S
C764 C765 1.377 . S
C764 C766 1.384 . S
C765 C764 1.377 . S
C765 C771 1.390 . S
C766 H757 0.930 . S
C766 C764 1.384 . S
C766 C767 1.372 . S
C767 C766 1.372 . S
C767 C768 1.400 . S
C767 C772 1.490 . S
C768 H758 0.930 . S
C768 C767 1.400 . S
C768 C771 1.386 . S
H769 C785 0.930 . S
H770 C786 0.931 . S
C771 H759 0.929 . S
C771 C765 1.390 . S
C771 C768 1.386 . S
C772 C767 1.490 . S
C772 C774 1.395 . S
C772 C775 1.403 . S
H773 C779 0.930 . S
C774 H760 0.930 . S
C774 C772 1.395 . S
C774 C777 1.403 . S
C775 C772 1.403 . S
C775 C776 1.524 . S
C775 C779 1.400 . S
C776 H761 0.960 . S
C776 H762 0.960 . S
C776 H763 0.960 . S
C776 C775 1.524 . S
C777 C774 1.403 . S
C777 C778 1.392 . S
C777 C781 1.495 . S
C778 C777 1.392 . S
C778 C779 1.385 . S
C778 C780 1.478 . S
C779 H773 0.930 . S
C779 C775 1.400 . S
C779 C778 1.385 . S
C780 C778 1.478 . S
C780 C782 1.381 . S
C780 C786 1.383 . S
C781 C777 1.495 . S
C781 H787 0.959 . S
C781 H788 0.961 . S
C781 H789 0.960 . S
C782 C780 1.381 . S
C782 C783 1.394 . S
C782 H790 0.930 . S
C783 C782 1.394 . S
C783 C784 1.383 . S
C783 H791 0.929 . S
C784 C783 1.383 . S
C784 C785 1.377 . S
C785 H769 0.930 . S
C785 C784 1.377 . S
C785 C786 1.379 . S
C786 H770 0.931 . S
C786 C780 1.383 . S
C786 C785 1.379 . S
H787 C781 0.959 . S
H788 C781 0.961 . S
H789 C781 0.960 . S
H790 C782 0.930 . S
H791 C783 0.929 . S
H792 C800 0.929 . S
H793 C802 0.930 . S
H794 C804 0.930 . S
H795 C807 0.929 . S
H796 C810 0.930 . S
H797 C812 0.960 . S
H798 C812 0.960 . S
H799 C812 0.960 . S
C800 H792 0.929 . S
C800 C801 1.377 . S
C800 C802 1.384 . S
C801 C800 1.377 . S
C801 C807 1.390 . S
C802 H793 0.930 . S
C802 C800 1.384 . S
C802 C803 1.372 . S
C803 C802 1.372 . S
C803 C804 1.400 . S
C803 C808 1.490 . S
C804 H794 0.930 . S
C804 C803 1.400 . S
C804 C807 1.386 . S
H805 C821 0.930 . S
H806 C822 0.931 . S
C807 H795 0.929 . S
C807 C801 1.390 . S
C807 C804 1.386 . S
C808 C803 1.490 . S
C808 C810 1.395 . S
C808 C811 1.403 . S
H809 C815 0.930 . S
C810 H796 0.930 . S
C810 C808 1.395 . S
C810 C813 1.403 . S
C811 C808 1.403 . S
C811 C812 1.524 . S
C811 C815 1.400 . S
C812 H797 0.960 . S
C812 H798 0.960 . S
C812 H799 0.960 . S
C812 C811 1.524 . S
C813 C810 1.403 . S
C813 C814 1.392 . S
C813 C817 1.495 . S
C814 C813 1.392 . S
C814 C815 1.385 . S
C814 C816 1.478 . S
C815 H809 0.930 . S
C815 C811 1.400 . S
C815 C814 1.385 . S
C816 C814 1.478 . S
C816 C818 1.381 . S
C816 C822 1.383 . S
C817 C813 1.495 . S
C817 H823 0.959 . S
C817 H824 0.961 . S
C817 H825 0.960 . S
C818 C816 1.381 . S
C818 C819 1.394 . S
C818 H826 0.930 . S
C819 C818 1.394 . S
C819 C820 1.383 . S
C819 H827 0.929 . S
C820 C819 1.383 . S
C820 C821 1.377 . S
C821 H805 0.930 . S
C821 C820 1.377 . S
C821 C822 1.379 . S
C822 H806 0.931 . S
C822 C816 1.383 . S
C822 C821 1.379 . S
H823 C817 0.959 . S
H824 C817 0.961 . S
H825 C817 0.960 . S
H826 C818 0.930 . S
H827 C819 0.929 . S
H828 C836 0.929 . S
H829 C838 0.930 . S
H830 C840 0.930 . S
H831 C843 0.929 . S
H832 C846 0.930 . S
H833 C848 0.960 . S
H834 C848 0.960 . S
H835 C848 0.960 . S
C836 H828 0.929 . S
C836 C837 1.377 . S
C836 C838 1.384 . S
C837 C836 1.377 . S
C837 C843 1.390 . S
C838 H829 0.930 . S
C838 C836 1.384 . S
C838 C839 1.372 . S
C839 C838 1.372 . S
C839 C840 1.400 . S
C839 C844 1.490 . S
C840 H830 0.930 . S
C840 C839 1.400 . S
C840 C843 1.386 . S
H841 C857 0.930 . S
H842 C858 0.931 . S
C843 H831 0.929 . S
C843 C837 1.390 . S
C843 C840 1.386 . S
C844 C839 1.490 . S
C844 C846 1.395 . S
C844 C847 1.403 . S
H845 C851 0.930 . S
C846 H832 0.930 . S
C846 C844 1.395 . S
C846 C849 1.403 . S
C847 C844 1.403 . S
C847 C848 1.524 . S
C847 C851 1.400 . S
C848 H833 0.960 . S
C848 H834 0.960 . S
C848 H835 0.960 . S
C848 C847 1.524 . S
C849 C846 1.403 . S
C849 C850 1.392 . S
C849 C853 1.495 . S
C850 C849 1.392 . S
C850 C851 1.385 . S
C850 C852 1.478 . S
C851 H845 0.930 . S
C851 C847 1.400 . S
C851 C850 1.385 . S
C852 C850 1.478 . S
C852 C854 1.381 . S
C852 C858 1.383 . S
C853 C849 1.495 . S
C853 H859 0.959 . S
C853 H860 0.961 . S
C853 H861 0.960 . S
C854 C852 1.381 . S
C854 C855 1.394 . S
C854 H862 0.930 . S
C855 C854 1.394 . S
C855 C856 1.383 . S
C855 H863 0.929 . S
C856 C855 1.383 . S
C856 C857 1.377 . S
C857 H841 0.930 . S
C857 C856 1.377 . S
C857 C858 1.379 . S
C858 H842 0.931 . S
C858 C852 1.383 . S
C858 C857 1.379 . S
H859 C853 0.959 . S
H860 C853 0.961 . S
H861 C853 0.960 . S
H862 C854 0.930 . S
H863 C855 0.929 . S
H864 C872 0.929 . S
H865 C874 0.930 . S
H866 C876 0.930 . S
H867 C879 0.929 . S
H868 C882 0.930 . S
H869 C884 0.960 . S
H870 C884 0.960 . S
H871 C884 0.960 . S
C872 H864 0.929 . S
C872 C873 1.377 . S
C872 C874 1.384 . S
C873 C872 1.377 . S
C873 C879 1.390 . S
C874 H865 0.930 . S
C874 C872 1.384 . S
C874 C875 1.372 . S
C875 C874 1.372 . S
C875 C876 1.400 . S
C875 C880 1.490 . S
C876 H866 0.930 . S
C876 C875 1.400 . S
C876 C879 1.386 . S
H877 C893 0.930 . S
H878 C894 0.931 . S
C879 H867 0.929 . S
C879 C873 1.390 . S
C879 C876 1.386 . S
C880 C875 1.490 . S
C880 C882 1.395 . S
C880 C883 1.403 . S
H881 C887 0.930 . S
C882 H868 0.930 . S
C882 C880 1.395 . S
C882 C885 1.403 . S
C883 C880 1.403 . S
C883 C884 1.524 . S
C883 C887 1.400 . S
C884 H869 0.960 . S
C884 H870 0.960 . S
C884 H871 0.960 . S
C884 C883 1.524 . S
C885 C882 1.403 . S
C885 C886 1.392 . S
C885 C889 1.495 . S
C886 C885 1.392 . S
C886 C887 1.385 . S
C886 C888 1.478 . S
C887 H881 0.930 . S
C887 C883 1.400 . S
C887 C886 1.385 . S
C888 C886 1.478 . S
C888 C890 1.381 . S
C888 C894 1.383 . S
C889 C885 1.495 . S
C889 H895 0.959 . S
C889 H896 0.961 . S
C889 H897 0.960 . S
C890 C888 1.381 . S
C890 C891 1.394 . S
C890 H898 0.930 . S
C891 C890 1.394 . S
C891 C892 1.383 . S
C891 H899 0.929 . S
C892 C891 1.383 . S
C892 C893 1.377 . S
C893 H877 0.930 . S
C893 C892 1.377 . S
C893 C894 1.379 . S
C894 H878 0.931 . S
C894 C888 1.383 . S
C894 C893 1.379 . S
H895 C889 0.959 . S
H896 C889 0.961 . S
H897 C889 0.960 . S
H898 C890 0.930 . S
H899 C891 0.929 . S
H900 C908 0.929 . S
H901 C910 0.930 . S
H902 C912 0.930 . S
H903 C915 0.929 . S
H904 C918 0.930 . S
H905 C920 0.960 . S
H906 C920 0.960 . S
H907 C920 0.960 . S
C908 H900 0.929 . S
C908 C909 1.377 . S
C908 C910 1.384 . S
C909 C908 1.377 . S
C909 C915 1.390 . S
C910 H901 0.930 . S
C910 C908 1.384 . S
C910 C911 1.372 . S
C911 C910 1.372 . S
C911 C912 1.400 . S
C911 C916 1.490 . S
C912 H902 0.930 . S
C912 C911 1.400 . S
C912 C915 1.386 . S
H913 C929 0.930 . S
H914 C930 0.931 . S
C915 H903 0.929 . S
C915 C909 1.390 . S
C915 C912 1.386 . S
C916 C911 1.490 . S
C916 C918 1.395 . S
C916 C919 1.403 . S
H917 C923 0.930 . S
C918 H904 0.930 . S
C918 C916 1.395 . S
C918 C921 1.403 . S
C919 C916 1.403 . S
C919 C920 1.524 . S
C919 C923 1.400 . S
C920 H905 0.960 . S
C920 H906 0.960 . S
C920 H907 0.960 . S
C920 C919 1.524 . S
C921 C918 1.403 . S
C921 C922 1.392 . S
C921 C925 1.495 . S
C922 C921 1.392 . S
C922 C923 1.385 . S
C922 C924 1.478 . S
C923 H917 0.930 . S
C923 C919 1.400 . S
C923 C922 1.385 . S
C924 C922 1.478 . S
C924 C926 1.381 . S
C924 C930 1.383 . S
C925 C921 1.495 . S
C925 H931 0.959 . S
C925 H932 0.961 . S
C925 H933 0.960 . S
C926 C924 1.381 . S
C926 C927 1.394 . S
C926 H934 0.930 . S
C927 C926 1.394 . S
C927 C928 1.383 . S
C927 H935 0.929 . S
C928 C927 1.383 . S
C928 C929 1.377 . S
C929 H913 0.930 . S
C929 C928 1.377 . S
C929 C930 1.379 . S
C930 H914 0.931 . S
C930 C924 1.383 . S
C930 C929 1.379 . S
H931 C925 0.959 . S
H932 C925 0.961 . S
H933 C925 0.960 . S
H934 C926 0.930 . S
H935 C927 0.929 . S
H936 C944 0.929 . S
H937 C946 0.930 . S
H938 C948 0.930 . S
H939 C951 0.929 . S
H940 C954 0.930 . S
H941 C956 0.960 . S
H942 C956 0.960 . S
H943 C956 0.960 . S
C944 H936 0.929 . S
C944 C945 1.377 . S
C944 C946 1.384 . S
C945 C944 1.377 . S
C945 C951 1.390 . S
C946 H937 0.930 . S
C946 C944 1.384 . S
C946 C947 1.372 . S
C947 C946 1.372 . S
C947 C948 1.400 . S
C947 C952 1.490 . S
C948 H938 0.930 . S
C948 C947 1.400 . S
C948 C951 1.386 . S
H949 C965 0.930 . S
H950 C966 0.931 . S
C951 H939 0.929 . S
C951 C945 1.390 . S
C951 C948 1.386 . S
C952 C947 1.490 . S
C952 C954 1.395 . S
C952 C955 1.403 . S
H953 C959 0.930 . S
C954 H940 0.930 . S
C954 C952 1.395 . S
C954 C957 1.403 . S
C955 C952 1.403 . S
C955 C956 1.524 . S
C955 C959 1.400 . S
C956 H941 0.960 . S
C956 H942 0.960 . S
C956 H943 0.960 . S
C956 C955 1.524 . S
C957 C954 1.403 . S
C957 C958 1.392 . S
C957 C961 1.495 . S
C958 C957 1.392 . S
C958 C959 1.385 . S
C958 C960 1.478 . S
C959 H953 0.930 . S
C959 C955 1.400 . S
C959 C958 1.385 . S
C960 C958 1.478 . S
C960 C962 1.381 . S
C960 C966 1.383 . S
C961 C957 1.495 . S
C961 H967 0.959 . S
C961 H968 0.961 . S
C961 H969 0.960 . S
C962 C960 1.381 . S
C962 C963 1.394 . S
C962 H970 0.930 . S
C963 C962 1.394 . S
C963 C964 1.383 . S
C963 H971 0.929 . S
C964 C963 1.383 . S
C964 C965 1.377 . S
C965 H949 0.930 . S
C965 C964 1.377 . S
C965 C966 1.379 . S
C966 H950 0.931 . S
C966 C960 1.383 . S
C966 C965 1.379 . S
H967 C961 0.959 . S
H968 C961 0.961 . S
H969 C961 0.960 . S
H970 C962 0.930 . S
H971 C963 0.929 . S
H972 C980 0.929 . S
H973 C982 0.930 . S
H974 C984 0.930 . S
H975 C987 0.929 . S
H976 C990 0.930 . S
H977 C992 0.960 . S
H978 C992 0.960 . S
H979 C992 0.960 . S
C980 H972 0.929 . S
C980 C981 1.377 . S
C980 C982 1.384 . S
C981 C980 1.377 . S
C981 C987 1.390 . S
C982 H973 0.930 . S
C982 C980 1.384 . S
C982 C983 1.372 . S
C983 C982 1.372 . S
C983 C984 1.400 . S
C983 C988 1.490 . S
C984 H974 0.930 . S
C984 C983 1.400 . S
C984 C987 1.386 . S
H985 C1001 0.930 . S
H986 C1002 0.931 . S
C987 H975 0.929 . S
C987 C981 1.390 . S
C987 C984 1.386 . S
C988 C983 1.490 . S
C988 C990 1.395 . S
C988 C991 1.403 . S
H989 C995 0.930 . S
C990 H976 0.930 . S
C990 C988 1.395 . S
C990 C993 1.403 . S
C991 C988 1.403 . S
C991 C992 1.524 . S
C991 C995 1.400 . S
C992 H977 0.960 . S
C992 H978 0.960 . S
C992 H979 0.960 . S
C992 C991 1.524 . S
C993 C990 1.403 . S
C993 C994 1.392 . S
C993 C997 1.495 . S
C994 C993 1.392 . S
C994 C995 1.385 . S
C994 C996 1.478 . S
C995 H989 0.930 . S
C995 C991 1.400 . S
C995 C994 1.385 . S
C996 C994 1.478 . S
C996 C998 1.381 . S
C996 C1002 1.383 . S
C997 C993 1.495 . S
C997 H1003 0.959 . S
C997 H1004 0.961 . S
C997 H1005 0.960 . S
C998 C996 1.381 . S
C998 C999 1.394 . S
C998 H1006 0.930 . S
C999 C998 1.394 . S
C999 C1000 1.383 . S
C999 H1007 0.929 . S
C1000 C999 1.383 . S
C1000 C1001 1.377 . S
C1001 H985 0.930 . S
C1001 C1000 1.377 . S
C1001 C1002 1.379 . S
C1002 H986 0.931 . S
C1002 C996 1.383 . S
C1002 C1001 1.379 . S
H1003 C997 0.959 . S
H1004 C997 0.961 . S
H1005 C997 0.960 . S
H1006 C998 0.930 . S
H1007 C999 0.929 . S
H1008 C1016 0.929 . S
H1009 C1018 0.930 . S
H1010 C1020 0.930 . S
H1011 C1023 0.929 . S
H1012 C1026 0.930 . S
H1013 C1028 0.960 . S
H1014 C1028 0.960 . S
H1015 C1028 0.960 . S
C1016 H1008 0.929 . S
C1016 C1017 1.377 . S
C1016 C1018 1.384 . S
C1017 C1016 1.377 . S
C1017 C1023 1.390 . S
C1018 H1009 0.930 . S
C1018 C1016 1.384 . S
C1018 C1019 1.372 . S
C1019 C1018 1.372 . S
C1019 C1020 1.400 . S
C1019 C1024 1.490 . S
C1020 H1010 0.930 . S
C1020 C1019 1.400 . S
C1020 C1023 1.386 . S
H1021 C1037 0.930 . S
H1022 C1038 0.931 . S
C1023 H1011 0.929 . S
C1023 C1017 1.390 . S
C1023 C1020 1.386 . S
C1024 C1019 1.490 . S
C1024 C1026 1.395 . S
C1024 C1027 1.403 . S
H1025 C1031 0.930 . S
C1026 H1012 0.930 . S
C1026 C1024 1.395 . S
C1026 C1029 1.403 . S
C1027 C1024 1.403 . S
C1027 C1028 1.524 . S
C1027 C1031 1.400 . S
C1028 H1013 0.960 . S
C1028 H1014 0.960 . S
C1028 H1015 0.960 . S
C1028 C1027 1.524 . S
C1029 C1026 1.403 . S
C1029 C1030 1.392 . S
C1029 C1033 1.495 . S
C1030 C1029 1.392 . S
C1030 C1031 1.385 . S
C1030 C1032 1.478 . S
C1031 H1025 0.930 . S
C1031 C1027 1.400 . S
C1031 C1030 1.385 . S
C1032 C1030 1.478 . S
C1032 C1034 1.381 . S
C1032 C1038 1.383 . S
C1033 C1029 1.495 . S
C1033 H1039 0.959 . S
C1033 H1040 0.961 . S
C1033 H1041 0.960 . S
C1034 C1032 1.381 . S
C1034 C1035 1.394 . S
C1034 H1042 0.930 . S
C1035 C1034 1.394 . S
C1035 C1036 1.383 . S
C1035 H1043 0.929 . S
C1036 C1035 1.383 . S
C1036 C1037 1.377 . S
C1037 H1021 0.930 . S
C1037 C1036 1.377 . S
C1037 C1038 1.379 . S
C1038 H1022 0.931 . S
C1038 C1032 1.383 . S
C1038 C1037 1.379 . S
H1039 C1033 0.959 . S
H1040 C1033 0.961 . S
H1041 C1033 0.960 . S
H1042 C1034 0.930 . S
H1043 C1035 0.929 . S
H1044 C1052 0.929 . S
H1045 C1054 0.930 . S
H1046 C1056 0.930 . S
H1047 C1059 0.929 . S
H1048 C1062 0.930 . S
H1049 C1064 0.960 . S
H1050 C1064 0.960 . S
H1051 C1064 0.960 . S
C1052 H1044 0.929 . S
C1052 C1053 1.377 . S
C1052 C1054 1.384 . S
C1053 C1052 1.377 . S
C1053 C1059 1.390 . S
C1054 H1045 0.930 . S
C1054 C1052 1.384 . S
C1054 C1055 1.372 . S
C1055 C1054 1.372 . S
C1055 C1056 1.400 . S
C1055 C1060 1.490 . S
C1056 H1046 0.930 . S
C1056 C1055 1.400 . S
C1056 C1059 1.386 . S
H1057 C1073 0.930 . S
H1058 C1074 0.931 . S
C1059 H1047 0.929 . S
C1059 C1053 1.390 . S
C1059 C1056 1.386 . S
C1060 C1055 1.490 . S
C1060 C1062 1.395 . S
C1060 C1063 1.403 . S
H1061 C1067 0.930 . S
C1062 H1048 0.930 . S
C1062 C1060 1.395 . S
C1062 C1065 1.403 . S
C1063 C1060 1.403 . S
C1063 C1064 1.524 . S
C1063 C1067 1.400 . S
C1064 H1049 0.960 . S
C1064 H1050 0.960 . S
C1064 H1051 0.960 . S
C1064 C1063 1.524 . S
C1065 C1062 1.403 . S
C1065 C1066 1.392 . S
C1065 C1069 1.495 . S
C1066 C1065 1.392 . S
C1066 C1067 1.385 . S
C1066 C1068 1.478 . S
C1067 H1061 0.930 . S
C1067 C1063 1.400 . S
C1067 C1066 1.385 . S
C1068 C1066 1.478 . S
C1068 C1070 1.381 . S
C1068 C1074 1.383 . S
C1069 C1065 1.495 . S
C1069 H1075 0.959 . S
C1069 H1076 0.961 . S
C1069 H1077 0.960 . S
C1070 C1068 1.381 . S
C1070 C1071 1.394 . S
C1070 H1078 0.930 . S
C1071 C1070 1.394 . S
C1071 C1072 1.383 . S
C1071 H1079 0.929 . S
C1072 C1071 1.383 . S
C1072 C1073 1.377 . S
C1073 H1057 0.930 . S
C1073 C1072 1.377 . S
C1073 C1074 1.379 . S
C1074 H1058 0.931 . S
C1074 C1068 1.383 . S
C1074 C1073 1.379 . S
H1075 C1069 0.959 . S
H1076 C1069 0.961 . S
H1077 C1069 0.960 . S
H1078 C1070 0.930 . S
H1079 C1071 0.929 . S
H1080 C1088 0.929 . S
H1081 C1090 0.930 . S
H1082 C1092 0.930 . S
H1083 C1095 0.929 . S
H1084 C1098 0.930 . S
H1085 C1100 0.960 . S
H1086 C1100 0.960 . S
H1087 C1100 0.960 . S
C1088 H1080 0.929 . S
C1088 C1089 1.377 . S
C1088 C1090 1.384 . S
C1089 C1088 1.377 . S
C1089 C1095 1.390 . S
C1090 H1081 0.930 . S
C1090 C1088 1.384 . S
C1090 C1091 1.372 . S
C1091 C1090 1.372 . S
C1091 C1092 1.400 . S
C1091 C1096 1.490 . S
C1092 H1082 0.930 . S
C1092 C1091 1.400 . S
C1092 C1095 1.386 . S
H1093 C1109 0.930 . S
H1094 C1110 0.931 . S
C1095 H1083 0.929 . S
C1095 C1089 1.390 . S
C1095 C1092 1.386 . S
C1096 C1091 1.490 . S
C1096 C1098 1.395 . S
C1096 C1099 1.403 . S
H1097 C1103 0.930 . S
C1098 H1084 0.930 . S
C1098 C1096 1.395 . S
C1098 C1101 1.403 . S
C1099 C1096 1.403 . S
C1099 C1100 1.524 . S
C1099 C1103 1.400 . S
C1100 H1085 0.960 . S
C1100 H1086 0.960 . S
C1100 H1087 0.960 . S
C1100 C1099 1.524 . S
C1101 C1098 1.403 . S
C1101 C1102 1.392 . S
C1101 C1105 1.495 . S
C1102 C1101 1.392 . S
C1102 C1103 1.385 . S
C1102 C1104 1.478 . S
C1103 H1097 0.930 . S
C1103 C1099 1.400 . S
C1103 C1102 1.385 . S
C1104 C1102 1.478 . S
C1104 C1106 1.381 . S
C1104 C1110 1.383 . S
C1105 C1101 1.495 . S
C1105 H1111 0.959 . S
C1105 H1112 0.961 . S
C1105 H1113 0.960 . S
C1106 C1104 1.381 . S
C1106 C1107 1.394 . S
C1106 H1114 0.930 . S
C1107 C1106 1.394 . S
C1107 C1108 1.383 . S
C1107 H1115 0.929 . S
C1108 C1107 1.383 . S
C1108 C1109 1.377 . S
C1109 H1093 0.930 . S
C1109 C1108 1.377 . S
C1109 C1110 1.379 . S
C1110 H1094 0.931 . S
C1110 C1104 1.383 . S
C1110 C1109 1.379 . S
H1111 C1105 0.959 . S
H1112 C1105 0.961 . S
H1113 C1105 0.960 . S
H1114 C1106 0.930 . S
H1115 C1107 0.929 . S
H1116 C1124 0.929 . S
H1117 C1126 0.930 . S
H1118 C1128 0.930 . S
H1119 C1131 0.929 . S
H1120 C1134 0.930 . S
H1121 C1136 0.960 . S
H1122 C1136 0.960 . S
H1123 C1136 0.960 . S
C1124 H1116 0.929 . S
C1124 C1125 1.377 . S
C1124 C1126 1.384 . S
C1125 C1124 1.377 . S
C1125 C1131 1.390 . S
C1126 H1117 0.930 . S
C1126 C1124 1.384 . S
C1126 C1127 1.372 . S
C1127 C1126 1.372 . S
C1127 C1128 1.400 . S
C1127 C1132 1.490 . S
C1128 H1118 0.930 . S
C1128 C1127 1.400 . S
C1128 C1131 1.386 . S
H1129 C1145 0.930 . S
H1130 C1146 0.931 . S
C1131 H1119 0.929 . S
C1131 C1125 1.390 . S
C1131 C1128 1.386 . S
C1132 C1127 1.490 . S
C1132 C1134 1.395 . S
C1132 C1135 1.403 . S
H1133 C1139 0.930 . S
C1134 H1120 0.930 . S
C1134 C1132 1.395 . S
C1134 C1137 1.403 . S
C1135 C1132 1.403 . S
C1135 C1136 1.524 . S
C1135 C1139 1.400 . S
C1136 H1121 0.960 . S
C1136 H1122 0.960 . S
C1136 H1123 0.960 . S
C1136 C1135 1.524 . S
C1137 C1134 1.403 . S
C1137 C1138 1.392 . S
C1137 C1141 1.495 . S
C1138 C1137 1.392 . S
C1138 C1139 1.385 . S
C1138 C1140 1.478 . S
C1139 H1133 0.930 . S
C1139 C1135 1.400 . S
C1139 C1138 1.385 . S
C1140 C1138 1.478 . S
C1140 C1142 1.381 . S
C1140 C1146 1.383 . S
C1141 C1137 1.495 . S
C1141 H1147 0.959 . S
C1141 H1148 0.961 . S
C1141 H1149 0.960 . S
C1142 C1140 1.381 . S
C1142 C1143 1.394 . S
C1142 H1150 0.930 . S
C1143 C1142 1.394 . S
C1143 C1144 1.383 . S
C1143 H1151 0.929 . S
C1144 C1143 1.383 . S
C1144 C1145 1.377 . S
C1145 H1129 0.930 . S
C1145 C1144 1.377 . S
C1145 C1146 1.379 . S
C1146 H1130 0.931 . S
C1146 C1140 1.383 . S
C1146 C1145 1.379 . S
H1147 C1141 0.959 . S
H1148 C1141 0.961 . S
H1149 C1141 0.960 . S
H1150 C1142 0.930 . S
H1151 C1143 0.929 . S
H1152 C1160 0.929 . S
H1153 C1162 0.930 . S
H1154 C1164 0.930 . S
H1155 C1167 0.929 . S
H1156 C1170 0.930 . S
H1157 C1172 0.960 . S
H1158 C1172 0.960 . S
H1159 C1172 0.960 . S
C1160 H1152 0.929 . S
C1160 C1161 1.377 . S
C1160 C1162 1.384 . S
C1161 C1160 1.377 . S
C1161 C1167 1.390 . S
C1162 H1153 0.930 . S
C1162 C1160 1.384 . S
C1162 C1163 1.372 . S
C1163 C1162 1.372 . S
C1163 C1164 1.400 . S
C1163 C1168 1.490 . S
C1164 H1154 0.930 . S
C1164 C1163 1.400 . S
C1164 C1167 1.386 . S
H1165 C1181 0.930 . S
H1166 C1182 0.931 . S
C1167 H1155 0.929 . S
C1167 C1161 1.390 . S
C1167 C1164 1.386 . S
C1168 C1163 1.490 . S
C1168 C1170 1.395 . S
C1168 C1171 1.403 . S
H1169 C1175 0.930 . S
C1170 H1156 0.930 . S
C1170 C1168 1.395 . S
C1170 C1173 1.403 . S
C1171 C1168 1.403 . S
C1171 C1172 1.524 . S
C1171 C1175 1.400 . S
C1172 H1157 0.960 . S
C1172 H1158 0.960 . S
C1172 H1159 0.960 . S
C1172 C1171 1.524 . S
C1173 C1170 1.403 . S
C1173 C1174 1.392 . S
C1173 C1177 1.495 . S
C1174 C1173 1.392 . S
C1174 C1175 1.385 . S
C1174 C1176 1.478 . S
C1175 H1169 0.930 . S
C1175 C1171 1.400 . S
C1175 C1174 1.385 . S
C1176 C1174 1.478 . S
C1176 C1178 1.381 . S
C1176 C1182 1.383 . S
C1177 C1173 1.495 . S
C1177 H1183 0.959 . S
C1177 H1184 0.961 . S
C1177 H1185 0.960 . S
C1178 C1176 1.381 . S
C1178 C1179 1.394 . S
C1178 H1186 0.930 . S
C1179 C1178 1.394 . S
C1179 C1180 1.383 . S
C1179 H1187 0.929 . S
C1180 C1179 1.383 . S
C1180 C1181 1.377 . S
C1181 H1165 0.930 . S
C1181 C1180 1.377 . S
C1181 C1182 1.379 . S
C1182 H1166 0.931 . S
C1182 C1176 1.383 . S
C1182 C1181 1.379 . S
H1183 C1177 0.959 . S
H1184 C1177 0.961 . S
H1185 C1177 0.960 . S
H1186 C1178 0.930 . S
H1187 C1179 0.929 . S
H1188 C1196 0.929 . S
H1189 C1198 0.930 . S
H1190 C1200 0.930 . S
H1191 C1203 0.929 . S
H1192 C1206 0.930 . S
H1193 C1208 0.960 . S
H1194 C1208 0.960 . S
H1195 C1208 0.960 1_455 S
C1196 H1188 0.929 . S
C1196 C1197 1.377 1_655 S
C1196 C1198 1.384 . S
C1197 C1196 1.377 1_455 S
C1197 C1203 1.390 . S
C1198 H1189 0.930 . S
C1198 C1196 1.384 . S
C1198 C1199 1.372 1_655 S
C1199 C1198 1.372 1_455 S
C1199 C1200 1.400 . S
C1199 C1204 1.490 . S
C1200 H1190 0.930 . S
C1200 C1199 1.400 . S
C1200 C1203 1.386 . S
H1201 C1217 0.930 . S
H1202 C1218 0.931 . S
C1203 H1191 0.929 . S
C1203 C1197 1.390 . S
C1203 C1200 1.386 . S
C1204 C1199 1.490 . S
C1204 C1206 1.395 . S
C1204 C1207 1.403 1_455 S
H1205 C1211 0.930 . S
C1206 H1192 0.930 . S
C1206 C1204 1.395 . S
C1206 C1209 1.403 . S
C1207 C1204 1.403 1_655 S
C1207 C1208 1.524 . S
C1207 C1211 1.400 . S
C1208 H1193 0.960 . S
C1208 H1194 0.960 . S
C1208 H1195 0.960 1_655 S
C1208 C1207 1.524 . S
C1209 C1206 1.403 . S
C1209 C1210 1.392 1_455 S
C1209 C1213 1.495 . S
C1210 C1209 1.392 1_655 S
C1210 C1211 1.385 . S
C1210 C1212 1.478 . S
C1211 H1205 0.930 . S
C1211 C1207 1.400 . S
C1211 C1210 1.385 . S
C1212 C1210 1.478 . S
C1212 C1214 1.381 . S
C1212 C1218 1.383 1_655 S
C1213 C1209 1.495 . S
C1213 H1219 0.959 . S
C1213 H1220 0.961 . S
C1213 H1221 0.960 1_455 S
C1214 C1212 1.381 . S
C1214 C1215 1.394 . S
C1214 H1222 0.930 . S
C1215 C1214 1.394 . S
C1215 C1216 1.383 . S
C1215 H1223 0.929 . S
C1216 C1215 1.383 . S
C1216 C1217 1.377 1_655 S
C1217 H1201 0.930 . S
C1217 C1216 1.377 1_455 S
C1217 C1218 1.379 . S
C1218 H1202 0.931 . S
C1218 C1212 1.383 1_455 S
C1218 C1217 1.379 . S
H1219 C1213 0.959 . S
H1220 C1213 0.961 . S
H1221 C1213 0.960 1_655 S
H1222 C1214 0.930 . S
H1223 C1215 0.929 . S
H1224 C1232 0.929 . S
H1225 C1234 0.930 . S
H1226 C1236 0.930 . S
H1227 C1239 0.929 . S
H1228 C1242 0.930 . S
H1229 C1244 0.960 . S
H1230 C1244 0.960 . S
H1231 C1244 0.960 . S
C1232 H1224 0.929 . S
C1232 C1233 1.377 . S
C1232 C1234 1.384 . S
C1233 C1232 1.377 . S
C1233 C1239 1.390 . S
C1234 H1225 0.930 . S
C1234 C1232 1.384 . S
C1234 C1235 1.372 . S
C1235 C1234 1.372 . S
C1235 C1236 1.400 . S
C1235 C1240 1.490 . S
C1236 H1226 0.930 . S
C1236 C1235 1.400 . S
C1236 C1239 1.386 . S
H1237 C1253 0.930 . S
H1238 C1254 0.931 . S
C1239 H1227 0.929 . S
C1239 C1233 1.390 . S
C1239 C1236 1.386 . S
C1240 C1235 1.490 . S
C1240 C1242 1.395 . S
C1240 C1243 1.403 . S
H1241 C1247 0.930 . S
C1242 H1228 0.930 . S
C1242 C1240 1.395 . S
C1242 C1245 1.403 . S
C1243 C1240 1.403 . S
C1243 C1244 1.524 . S
C1243 C1247 1.400 . S
C1244 H1229 0.960 . S
C1244 H1230 0.960 . S
C1244 H1231 0.960 . S
C1244 C1243 1.524 . S
C1245 C1242 1.403 . S
C1245 C1246 1.392 . S
C1245 C1249 1.495 . S
C1246 C1245 1.392 . S
C1246 C1247 1.385 . S
C1246 C1248 1.478 . S
C1247 H1241 0.930 . S
C1247 C1243 1.400 . S
C1247 C1246 1.385 . S
C1248 C1246 1.478 . S
C1248 C1250 1.381 . S
C1248 C1254 1.383 . S
C1249 C1245 1.495 . S
C1249 H1255 0.959 . S
C1249 H1256 0.961 . S
C1249 H1257 0.960 . S
C1250 C1248 1.381 . S
C1250 C1251 1.394 . S
C1250 H1258 0.930 . S
C1251 C1250 1.394 . S
C1251 C1252 1.383 . S
C1251 H1259 0.929 . S
C1252 C1251 1.383 . S
C1252 C1253 1.377 . S
C1253 H1237 0.930 . S
C1253 C1252 1.377 . S
C1253 C1254 1.379 . S
C1254 H1238 0.931 . S
C1254 C1248 1.383 . S
C1254 C1253 1.379 . S
H1255 C1249 0.959 . S
H1256 C1249 0.961 . S
H1257 C1249 0.960 . S
H1258 C1250 0.930 . S
H1259 C1251 0.929 . S
H1260 C1268 0.929 . S
H1261 C1270 0.930 . S
H1262 C1272 0.930 . S
H1263 C1275 0.929 . S
H1264 C1278 0.930 . S
H1265 C1280 0.960 . S
H1266 C1280 0.960 1_545 S
H1267 C1280 0.960 . S
C1268 H1260 0.929 . S
C1268 C1269 1.377 . S
C1268 C1270 1.384 . S
C1269 C1268 1.377 . S
C1269 C1275 1.390 1_545 S
C1270 H1261 0.930 . S
C1270 C1268 1.384 . S
C1270 C1271 1.372 . S
C1271 C1270 1.372 . S
C1271 C1272 1.400 1_545 S
C1271 C1276 1.490 . S
C1272 H1262 0.930 . S
C1272 C1271 1.400 1_565 S
C1272 C1275 1.386 . S
H1273 C1289 0.930 . S
H1274 C1290 0.931 . S
C1275 H1263 0.929 . S
C1275 C1269 1.390 1_565 S
C1275 C1272 1.386 . S
C1276 C1271 1.490 . S
C1276 C1278 1.395 . S
C1276 C1279 1.403 1_545 S
H1277 C1283 0.930 . S
C1278 H1264 0.930 . S
C1278 C1276 1.395 . S
C1278 C1281 1.403 . S
C1279 C1276 1.403 1_565 S
C1279 C1280 1.524 . S
C1279 C1283 1.400 . S
C1280 H1265 0.960 . S
C1280 H1266 0.960 1_565 S
C1280 H1267 0.960 . S
C1280 C1279 1.524 . S
C1281 C1278 1.403 . S
C1281 C1282 1.401 1_545 S
C1281 C1285 1.495 . S
C1282 C1281 1.401 1_565 S
C1282 C1283 1.385 . S
C1282 C1284 1.470 . S
C1283 H1277 0.930 . S
C1283 C1279 1.400 . S
C1283 C1282 1.385 . S
C1284 C1282 1.470 . S
C1284 C1286 1.381 1_565 S
C1284 C1290 1.383 . S
C1285 C1281 1.495 . S
C1285 H1291 0.959 . S
C1285 H1292 0.961 1_545 S
C1285 H1293 0.960 . S
C1286 C1284 1.381 1_545 S
C1286 C1287 1.394 . S
C1286 H1294 0.930 . S
C1287 C1286 1.394 . S
C1287 C1288 1.383 1_545 S
C1287 H1295 0.929 . S
C1288 C1287 1.383 1_565 S
C1288 C1289 1.377 . S
C1289 H1273 0.930 . S
C1289 C1288 1.377 . S
C1289 C1290 1.379 . S
C1290 H1274 0.931 . S
C1290 C1284 1.383 . S
C1290 C1289 1.379 . S
H1291 C1285 0.959 . S
H1292 C1285 0.961 1_565 S
H1293 C1285 0.960 . S
H1294 C1286 0.930 . S
H1295 C1287 0.929 . S
H1296 C1304 0.929 . S
H1297 C1306 0.930 . S
H1298 C1308 0.930 . S
H1299 C1311 0.929 . S
H1300 C1314 0.930 . S
H1301 C1316 0.960 . S
H1302 C1316 0.960 . S
H1303 C1316 0.960 . S
C1304 H1296 0.929 . S
C1304 C1305 1.377 . S
C1304 C1306 1.384 . S
C1305 C1304 1.377 . S
C1305 C1311 1.390 . S
C1306 H1297 0.930 . S
C1306 C1304 1.384 . S
C1306 C1307 1.372 . S
C1307 C1306 1.372 . S
C1307 C1308 1.400 . S
C1307 C1312 1.490 . S
C1308 H1298 0.930 . S
C1308 C1307 1.400 . S
C1308 C1311 1.386 . S
H1309 C1325 0.930 . S
H1310 C1326 0.931 . S
C1311 H1299 0.929 . S
C1311 C1305 1.390 . S
C1311 C1308 1.386 . S
C1312 C1307 1.490 . S
C1312 C1314 1.395 . S
C1312 C1315 1.403 . S
H1313 C1319 0.930 . S
C1314 H1300 0.930 . S
C1314 C1312 1.395 . S
C1314 C1317 1.403 1_554 S
C1315 C1312 1.403 . S
C1315 C1316 1.524 . S
C1315 C1319 1.400 . S
C1316 H1301 0.960 . S
C1316 H1302 0.960 . S
C1316 H1303 0.960 . S
C1316 C1315 1.524 . S
C1317 C1314 1.403 1_556 S
C1317 C1318 1.392 . S
C1317 C1321 1.495 . S
C1318 C1317 1.392 . S
C1318 C1319 1.385 1_556 S
C1318 C1320 1.478 . S
C1319 H1313 0.930 . S
C1319 C1315 1.400 . S
C1319 C1318 1.385 1_554 S
C1320 C1318 1.478 . S
C1320 C1322 1.381 . S
C1320 C1326 1.383 . S
C1321 C1317 1.495 . S
C1321 H1327 0.959 . S
C1321 H1328 0.961 . S
C1321 H1329 0.960 . S
C1322 C1320 1.381 . S
C1322 C1323 1.394 . S
C1322 H1330 0.930 1_556 S
C1323 C1322 1.394 . S
C1323 C1324 1.383 . S
C1323 H1331 0.929 . S
C1324 C1323 1.383 . S
C1324 C1325 1.377 . S
C1325 H1309 0.930 . S
C1325 C1324 1.377 . S
C1325 C1326 1.379 . S
C1326 H1310 0.931 . S
C1326 C1320 1.383 . S
C1326 C1325 1.379 . S
H1327 C1321 0.959 . S
H1328 C1321 0.961 . S
H1329 C1321 0.960 . S
H1330 C1322 0.930 1_554 S
H1331 C1323 0.929 . S
H1332 C1340 0.929 . S
H1333 C1342 0.930 . S
H1334 C1344 0.930 . S
H1335 C1347 0.929 . S
H1336 C1350 0.930 . S
H1337 C1352 0.950 1_556 S
H1338 C1352 0.948 1_556 S
H1339 C1352 0.981 . S
C1340 H1332 0.929 . S
C1340 C1341 1.377 . S
C1340 C1342 1.384 . S
C1341 C1340 1.377 . S
C1341 C1347 1.390 . S
C1342 H1333 0.930 . S
C1342 C1340 1.384 . S
C1342 C1343 1.372 . S
C1343 C1342 1.372 . S
C1343 C1344 1.400 . S
C1343 C1348 1.490 . S
C1344 H1334 0.930 . S
C1344 C1343 1.400 . S
C1344 C1347 1.386 . S
H1345 C1361 0.930 . S
H1346 C1362 0.931 1_554 S
C1347 H1335 0.929 . S
C1347 C1341 1.390 . S
C1347 C1344 1.386 . S
C1348 C1343 1.490 . S
C1348 C1350 1.395 . S
C1348 C1351 1.403 . S
H1349 C1355 0.930 . S
C1350 H1336 0.930 . S
C1350 C1348 1.395 . S
C1350 C1353 1.405 1_554 S
C1351 C1348 1.403 . S
C1351 C1352 1.525 . S
C1351 C1355 1.400 1_554 S
C1352 H1337 0.950 1_554 S
C1352 H1338 0.948 1_554 S
C1352 H1339 0.981 . S
C1352 C1351 1.525 . S
C1353 C1350 1.405 1_556 S
C1353 C1354 1.391 . S
C1353 C1357 1.495 . S
C1354 C1353 1.391 . S
C1354 C1355 1.385 . S
C1354 C1356 1.478 . S
C1355 H1349 0.930 . S
C1355 C1351 1.400 1_556 S
C1355 C1354 1.385 . S
C1356 C1354 1.478 . S
C1356 C1358 1.381 . S
C1356 C1362 1.383 . S
C1357 C1353 1.495 . S
C1357 H1363 0.957 1_556 S
C1357 H1364 0.959 1_556 S
C1357 H1365 0.963 . S
C1358 C1356 1.381 . S
C1358 C1359 1.394 . S
C1358 H1366 0.930 . S
C1359 C1358 1.394 . S
C1359 C1360 1.383 . S
C1359 H1367 0.929 . S
C1360 C1359 1.383 . S
C1360 C1361 1.377 . S
C1361 H1345 0.930 . S
C1361 C1360 1.377 . S
C1361 C1362 1.379 . S
C1362 H1346 0.931 1_556 S
C1362 C1356 1.383 . S
C1362 C1361 1.379 . S
H1363 C1357 0.957 1_554 S
H1364 C1357 0.959 1_554 S
H1365 C1357 0.963 . S
H1366 C1358 0.930 . S
H1367 C1359 0.929 . S
H1368 C1376 0.929 . S
H1369 C1378 0.930 . S
H1370 C1380 0.927 1_556 S
H1371 C1383 0.929 . S
H1372 C1386 0.930 . S
H1373 C1388 0.960 . S
H1374 C1388 0.960 . S
H1375 C1388 0.960 . S
C1376 H1368 0.929 . S
C1376 C1377 1.377 . S
C1376 C1378 1.384 . S
C1377 C1376 1.377 . S
C1377 C1383 1.390 . S
C1378 H1369 0.930 . S
C1378 C1376 1.384 . S
C1378 C1379 1.372 . S
C1379 C1378 1.372 . S
C1379 C1380 1.400 . S
C1379 C1384 1.490 . S
C1380 H1370 0.927 1_554 S
C1380 C1379 1.400 . S
C1380 C1383 1.386 . S
H1381 C1397 0.930 . S
H1382 C1398 0.931 . S
C1383 H1371 0.929 . S
C1383 C1377 1.390 . S
C1383 C1380 1.386 . S
C1384 C1379 1.490 . S
C1384 C1386 1.395 . S
C1384 C1387 1.403 . S
H1385 C1391 0.930 . S
C1386 H1372 0.930 . S
C1386 C1384 1.395 . S
C1386 C1389 1.403 1_554 S
C1387 C1384 1.403 . S
C1387 C1388 1.524 . S
C1387 C1391 1.400 1_554 S
C1388 H1373 0.960 . S
C1388 H1374 0.960 . S
C1388 H1375 0.960 . S
C1388 C1387 1.524 . S
C1389 C1386 1.403 1_556 S
C1389 C1390 1.392 . S
C1389 C1393 1.495 . S
C1390 C1389 1.392 . S
C1390 C1391 1.385 . S
C1390 C1392 1.478 . S
C1391 H1385 0.930 . S
C1391 C1387 1.400 1_556 S
C1391 C1390 1.385 . S
C1392 C1390 1.478 . S
C1392 C1394 1.381 . S
C1392 C1398 1.383 . S
C1393 C1389 1.495 . S
C1393 H1399 0.959 . S
C1393 H1400 0.961 . S
C1393 H1401 0.960 . S
C1394 C1392 1.381 . S
C1394 C1395 1.394 . S
C1394 H1402 0.930 1_556 S
C1395 C1394 1.394 . S
C1395 C1396 1.383 . S
C1395 H1403 0.929 . S
C1396 C1395 1.383 . S
C1396 C1397 1.377 . S
C1397 H1381 0.930 . S
C1397 C1396 1.377 . S
C1397 C1398 1.379 . S
C1398 H1382 0.931 . S
C1398 C1392 1.383 . S
C1398 C1397 1.379 . S
H1399 C1393 0.959 . S
H1400 C1393 0.961 . S
H1401 C1393 0.960 . S
H1402 C1394 0.930 1_554 S
H1403 C1395 0.929 . S
H1404 C1412 0.929 . S
H1405 C1414 0.930 . S
H1406 C1416 0.873 1_554 S
H1407 C1419 0.929 . S
H1408 C1422 0.930 . S
H1409 C1424 0.960 1_554 S
H1410 C1424 0.960 . S
H1411 C1424 0.960 1_554 S
C1412 H1404 0.929 . S
C1412 C1413 1.377 . S
C1412 C1414 1.384 . S
C1413 C1412 1.377 . S
C1413 C1419 1.390 . S
C1414 H1405 0.930 . S
C1414 C1412 1.384 . S
C1414 C1415 1.372 . S
C1415 C1414 1.372 . S
C1415 C1416 1.400 . S
C1415 C1420 1.490 . S
C1416 H1406 0.873 1_556 S
C1416 C1415 1.400 . S
C1416 C1419 1.386 . S
H1417 C1433 0.930 . S
H1418 C1434 0.931 . S
C1419 H1407 0.929 . S
C1419 C1413 1.390 . S
C1419 C1416 1.386 . S
C1420 C1415 1.490 . S
C1420 C1422 1.395 . S
C1420 C1423 1.403 . S
H1421 C1427 0.930 . S
C1422 H1408 0.930 . S
C1422 C1420 1.395 . S
C1422 C1425 1.403 . S
C1423 C1420 1.403 . S
C1423 C1424 1.524 . S
C1423 C1427 1.400 1_556 S
C1424 H1409 0.960 1_556 S
C1424 H1410 0.960 . S
C1424 H1411 0.960 1_556 S
C1424 C1423 1.524 . S
C1425 C1422 1.403 . S
C1425 C1426 1.392 1_556 S
C1425 C1429 1.495 . S
C1426 C1425 1.392 1_554 S
C1426 C1427 1.385 . S
C1426 C1428 1.478 . S
C1427 H1421 0.930 . S
C1427 C1423 1.400 1_554 S
C1427 C1426 1.385 . S
C1428 C1426 1.478 . S
C1428 C1430 1.381 . S
C1428 C1434 1.383 . S
C1429 C1425 1.495 . S
C1429 H1435 0.959 . S
C1429 H1436 0.961 1_556 S
C1429 H1437 0.960 . S
C1430 C1428 1.381 . S
C1430 C1431 1.394 . S
C1430 H1438 0.930 1_554 S
C1431 C1430 1.394 . S
C1431 C1432 1.383 . S
C1431 H1439 0.929 . S
C1432 C1431 1.383 . S
C1432 C1433 1.377 . S
C1433 H1417 0.930 . S
C1433 C1432 1.377 . S
C1433 C1434 1.379 . S
C1434 H1418 0.931 . S
C1434 C1428 1.383 . S
C1434 C1433 1.379 . S
H1435 C1429 0.959 . S
H1436 C1429 0.961 1_554 S
H1437 C1429 0.960 . S
H1438 C1430 0.930 1_556 S
H1439 C1431 0.929 . S
H1440 C1448 0.929 . S
H1441 C1450 0.930 . S
H1442 C1452 0.930 1_556 S
H1443 C1455 0.929 . S
H1444 C1458 0.930 . S
H1445 C1460 0.960 . S
H1446 C1460 0.960 . S
H1447 C1460 0.960 . S
C1448 H1440 0.929 . S
C1448 C1449 1.377 . S
C1448 C1450 1.384 . S
C1449 C1448 1.377 . S
C1449 C1455 1.390 . S
C1450 H1441 0.930 . S
C1450 C1448 1.384 . S
C1450 C1451 1.372 . S
C1451 C1450 1.372 . S
C1451 C1452 1.400 . S
C1451 C1456 1.490 . S
C1452 H1442 0.930 1_554 S
C1452 C1451 1.400 . S
C1452 C1455 1.386 . S
H1453 C1469 0.930 . S
H1454 C1470 0.931 . S
C1455 H1443 0.929 . S
C1455 C1449 1.390 . S
C1455 C1452 1.386 . S
C1456 C1451 1.490 . S
C1456 C1458 1.395 . S
C1456 C1459 1.403 1_554 S
H1457 C1463 0.930 . S
C1458 H1444 0.930 . S
C1458 C1456 1.395 . S
C1458 C1461 1.403 . S
C1459 C1456 1.403 1_556 S
C1459 C1460 1.524 . S
C1459 C1463 1.400 . S
C1460 H1445 0.960 . S
C1460 H1446 0.960 . S
C1460 H1447 0.960 . S
C1460 C1459 1.524 . S
C1461 C1458 1.403 . S
C1461 C1462 1.392 1_554 S
C1461 C1465 1.495 . S
C1462 C1461 1.392 1_556 S
C1462 C1463 1.385 . S
C1462 C1464 1.478 . S
C1463 H1457 0.930 . S
C1463 C1459 1.400 . S
C1463 C1462 1.385 . S
C1464 C1462 1.478 . S
C1464 C1466 1.381 . S
C1464 C1470 1.383 . S
C1465 C1461 1.495 . S
C1465 H1471 0.959 . S
C1465 H1472 0.961 . S
C1465 H1473 0.960 . S
C1466 C1464 1.381 . S
C1466 C1467 1.394 . S
C1466 H1474 0.930 1_556 S
C1467 C1466 1.394 . S
C1467 C1468 1.383 . S
C1467 H1475 0.929 1_655 S
C1468 C1467 1.383 . S
C1468 C1469 1.377 . S
C1469 H1453 0.930 . S
C1469 C1468 1.377 . S
C1469 C1470 1.379 . S
C1470 H1454 0.931 . S
C1470 C1464 1.383 . S
C1470 C1469 1.379 . S
H1471 C1465 0.959 . S
H1472 C1465 0.961 . S
H1473 C1465 0.960 . S
H1474 C1466 0.930 1_554 S
H1475 C1467 0.929 1_455 S
H1476 C1484 0.929 . S
H1477 C1486 0.900 1_554 S
H1478 C1488 0.930 . S
H1479 C1491 0.929 . S
H1480 C1494 0.930 . S
H1481 C1496 0.960 . S
H1482 C1496 0.960 . S
H1483 C1496 0.960 . S
C1484 H1476 0.929 . S
C1484 C1485 1.377 . S
C1484 C1486 1.384 . S
C1485 C1484 1.377 . S
C1485 C1491 1.390 . S
C1486 H1477 0.900 1_556 S
C1486 C1484 1.384 . S
C1486 C1487 1.372 . S
C1487 C1486 1.372 . S
C1487 C1488 1.400 . S
C1487 C1492 1.490 . S
C1488 H1478 0.930 . S
C1488 C1487 1.400 . S
C1488 C1491 1.386 . S
H1489 C1505 0.930 . S
H1490 C1506 0.931 1_556 S
C1491 H1479 0.929 . S
C1491 C1485 1.390 . S
C1491 C1488 1.386 . S
C1492 C1487 1.490 . S
C1492 C1494 1.395 . S
C1492 C1495 1.403 . S
H1493 C1499 0.926 1_554 S
C1494 H1480 0.930 . S
C1494 C1492 1.395 . S
C1494 C1497 1.403 1_556 S
C1495 C1492 1.403 . S
C1495 C1496 1.524 . S
C1495 C1499 1.410 . S
C1496 H1481 0.960 . S
C1496 H1482 0.960 . S
C1496 H1483 0.960 . S
C1496 C1495 1.524 . S
C1497 C1494 1.403 1_554 S
C1497 C1498 1.392 . S
C1497 C1501 1.495 . S
C1498 C1497 1.392 . S
C1498 C1499 1.378 1_554 S
C1498 C1500 1.478 . S
C1499 H1493 0.926 1_556 S
C1499 C1495 1.410 . S
C1499 C1498 1.378 1_556 S
C1500 C1498 1.478 . S
C1500 C1502 1.381 . S
C1500 C1506 1.383 . S
C1501 C1497 1.495 . S
C1501 H1507 0.959 . S
C1501 H1508 0.961 . S
C1501 H1509 0.960 . S
C1502 C1500 1.381 . S
C1502 C1503 1.394 . S
C1502 H1510 0.930 . S
C1503 C1502 1.394 . S
C1503 C1504 1.383 . S
C1503 H1511 0.929 . S
C1504 C1503 1.383 . S
C1504 C1505 1.377 . S
C1505 H1489 0.930 . S
C1505 C1504 1.377 . S
C1505 C1506 1.379 . S
C1506 H1490 0.931 1_554 S
C1506 C1500 1.383 . S
C1506 C1505 1.379 . S
H1507 C1501 0.959 . S
H1508 C1501 0.961 . S
H1509 C1501 0.960 . S
H1510 C1502 0.930 . S
H1511 C1503 0.929 . S
H1512 C1520 0.929 . S
H1513 C1522 0.930 . S
H1514 C1524 0.930 . S
H1515 C1527 0.929 . S
H1516 C1530 0.930 . S
H1517 C1532 0.960 . S
H1518 C1532 0.960 . S
H1519 C1532 0.960 . S
C1520 H1512 0.929 . S
C1520 C1521 1.377 . S
C1520 C1522 1.384 . S
C1521 C1520 1.377 . S
C1521 C1527 1.390 . S
C1522 H1513 0.930 . S
C1522 C1520 1.384 . S
C1522 C1523 1.372 . S
C1523 C1522 1.372 . S
C1523 C1524 1.400 . S
C1523 C1528 1.490 . S
C1524 H1514 0.930 . S
C1524 C1523 1.400 . S
C1524 C1527 1.386 . S
H1525 C1541 0.930 . S
H1526 C1542 0.931 . S
C1527 H1515 0.929 . S
C1527 C1521 1.390 . S
C1527 C1524 1.386 . S
C1528 C1523 1.490 . S
C1528 C1530 1.395 . S
C1528 C1531 1.403 . S
H1529 C1535 0.930 . S
C1530 H1516 0.930 . S
C1530 C1528 1.395 . S
C1530 C1533 1.403 . S
C1531 C1528 1.403 . S
C1531 C1532 1.524 . S
C1531 C1535 1.400 . S
C1532 H1517 0.960 . S
C1532 H1518 0.960 . S
C1532 H1519 0.960 . S
C1532 C1531 1.524 . S
C1533 C1530 1.403 . S
C1533 C1534 1.392 . S
C1533 C1537 1.495 . S
C1534 C1533 1.392 . S
C1534 C1535 1.385 . S
C1534 C1536 1.478 . S
C1535 H1529 0.930 . S
C1535 C1531 1.400 . S
C1535 C1534 1.385 . S
C1536 C1534 1.478 . S
C1536 C1538 1.381 . S
C1536 C1542 1.383 . S
C1537 C1533 1.495 . S
C1537 H1543 0.959 . S
C1537 H1544 0.961 . S
C1537 H1545 0.960 . S
C1538 C1536 1.381 . S
C1538 C1539 1.394 . S
C1538 H1546 0.930 . S
C1539 C1538 1.394 . S
C1539 C1540 1.383 . S
C1539 H1547 0.929 . S
C1540 C1539 1.383 . S
C1540 C1541 1.377 . S
C1541 H1525 0.930 . S
C1541 C1540 1.377 . S
C1541 C1542 1.379 . S
C1542 H1526 0.931 . S
C1542 C1536 1.383 . S
C1542 C1541 1.379 . S
H1543 C1537 0.959 . S
H1544 C1537 0.961 . S
H1545 C1537 0.960 . S
H1546 C1538 0.930 . S
H1547 C1539 0.929 . S
H1548 C1556 0.929 . S
H1549 C1558 0.930 . S
H1550 C1560 0.930 . S
H1551 C1563 0.929 . S
H1552 C1566 0.930 . S
H1553 C1568 0.960 . S
H1554 C1568 0.960 . S
H1555 C1568 0.960 . S
C1556 H1548 0.929 . S
C1556 C1557 1.377 . S
C1556 C1558 1.384 . S
C1557 C1556 1.377 . S
C1557 C1563 1.390 . S
C1558 H1549 0.930 . S
C1558 C1556 1.384 . S
C1558 C1559 1.372 . S
C1559 C1558 1.372 . S
C1559 C1560 1.400 . S
C1559 C1564 1.490 . S
C1560 H1550 0.930 . S
C1560 C1559 1.400 . S
C1560 C1563 1.386 . S
H1561 C1577 0.930 . S
H1562 C1578 0.931 . S
C1563 H1551 0.929 . S
C1563 C1557 1.390 . S
C1563 C1560 1.386 . S
C1564 C1559 1.490 . S
C1564 C1566 1.395 . S
C1564 C1567 1.403 . S
H1565 C1571 0.930 . S
C1566 H1552 0.930 . S
C1566 C1564 1.395 . S
C1566 C1569 1.403 . S
C1567 C1564 1.403 . S
C1567 C1568 1.524 . S
C1567 C1571 1.400 . S
C1568 H1553 0.960 . S
C1568 H1554 0.960 . S
C1568 H1555 0.960 . S
C1568 C1567 1.524 . S
C1569 C1566 1.403 . S
C1569 C1570 1.392 . S
C1569 C1573 1.495 . S
C1570 C1569 1.392 . S
C1570 C1571 1.385 . S
C1570 C1572 1.478 . S
C1571 H1565 0.930 . S
C1571 C1567 1.400 . S
C1571 C1570 1.385 . S
C1572 C1570 1.478 . S
C1572 C1574 1.381 . S
C1572 C1578 1.383 . S
C1573 C1569 1.495 . S
C1573 H1579 0.959 . S
C1573 H1580 0.961 . S
C1573 H1581 0.960 . S
C1574 C1572 1.381 . S
C1574 C1575 1.394 . S
C1574 H1582 0.930 . S
C1575 C1574 1.394 . S
C1575 C1576 1.383 . S
C1575 H1583 0.929 . S
C1576 C1575 1.383 . S
C1576 C1577 1.377 . S
C1577 H1561 0.930 . S
C1577 C1576 1.377 . S
C1577 C1578 1.379 . S
C1578 H1562 0.931 . S
C1578 C1572 1.383 . S
C1578 C1577 1.379 . S
H1579 C1573 0.959 . S
H1580 C1573 0.961 . S
H1581 C1573 0.960 . S
H1582 C1574 0.930 . S
H1583 C1575 0.929 . S
H1584 C1592 0.929 . S
H1585 C1594 0.930 . S
H1586 C1596 0.930 . S
H1587 C1599 0.929 . S
H1588 C1602 0.930 . S
H1589 C1604 0.960 . S
H1590 C1604 0.960 . S
H1591 C1604 0.960 . S
C1592 H1584 0.929 . S
C1592 C1593 1.377 . S
C1592 C1594 1.384 . S
C1593 C1592 1.377 . S
C1593 C1599 1.390 . S
C1594 H1585 0.930 . S
C1594 C1592 1.384 . S
C1594 C1595 1.372 . S
C1595 C1594 1.372 . S
C1595 C1596 1.400 . S
C1595 C1600 1.490 . S
C1596 H1586 0.930 . S
C1596 C1595 1.400 . S
C1596 C1599 1.386 . S
H1597 C1613 0.930 . S
H1598 C1614 0.931 . S
C1599 H1587 0.929 . S
C1599 C1593 1.390 . S
C1599 C1596 1.386 . S
C1600 C1595 1.490 . S
C1600 C1602 1.395 . S
C1600 C1603 1.403 . S
H1601 C1607 0.930 . S
C1602 H1588 0.930 . S
C1602 C1600 1.395 . S
C1602 C1605 1.403 . S
C1603 C1600 1.403 . S
C1603 C1604 1.524 . S
C1603 C1607 1.400 . S
C1604 H1589 0.960 . S
C1604 H1590 0.960 . S
C1604 H1591 0.960 . S
C1604 C1603 1.524 . S
C1605 C1602 1.403 . S
C1605 C1606 1.392 . S
C1605 C1609 1.495 . S
C1606 C1605 1.392 . S
C1606 C1607 1.385 . S
C1606 C1608 1.478 . S
C1607 H1601 0.930 . S
C1607 C1603 1.400 . S
C1607 C1606 1.385 . S
C1608 C1606 1.478 . S
C1608 C1610 1.381 . S
C1608 C1614 1.383 . S
C1609 C1605 1.495 . S
C1609 H1615 0.959 . S
C1609 H1616 0.961 . S
C1609 H1617 0.960 . S
C1610 C1608 1.381 . S
C1610 C1611 1.394 . S
C1610 H1618 0.930 . S
C1611 C1610 1.394 . S
C1611 C1612 1.383 . S
C1611 H1619 0.929 . S
C1612 C1611 1.383 . S
C1612 C1613 1.377 . S
C1613 H1597 0.930 . S
C1613 C1612 1.377 . S
C1613 C1614 1.379 . S
C1614 H1598 0.931 . S
C1614 C1608 1.383 . S
C1614 C1613 1.379 . S
H1615 C1609 0.959 . S
H1616 C1609 0.961 . S
H1617 C1609 0.960 . S
H1618 C1610 0.930 . S
H1619 C1611 0.929 . S
H1620 C1628 0.929 . S
H1621 C1630 0.930 . S
H1622 C1632 0.930 . S
H1623 C1635 0.929 . S
H1624 C1638 0.930 . S
H1625 C1640 0.960 . S
H1626 C1640 0.960 . S
H1627 C1640 0.960 . S
C1628 H1620 0.929 . S
C1628 C1629 1.377 . S
C1628 C1630 1.384 . S
C1629 C1628 1.377 . S
C1629 C1635 1.390 . S
C1630 H1621 0.930 . S
C1630 C1628 1.384 . S
C1630 C1631 1.372 . S
C1631 C1630 1.372 . S
C1631 C1632 1.400 . S
C1631 C1636 1.490 . S
C1632 H1622 0.930 . S
C1632 C1631 1.400 . S
C1632 C1635 1.386 . S
H1633 C1649 0.930 . S
H1634 C1650 0.931 . S
C1635 H1623 0.929 . S
C1635 C1629 1.390 . S
C1635 C1632 1.386 . S
C1636 C1631 1.490 . S
C1636 C1638 1.395 . S
C1636 C1639 1.403 . S
H1637 C1643 0.930 . S
C1638 H1624 0.930 . S
C1638 C1636 1.395 . S
C1638 C1641 1.403 . S
C1639 C1636 1.403 . S
C1639 C1640 1.524 . S
C1639 C1643 1.400 . S
C1640 H1625 0.960 . S
C1640 H1626 0.960 . S
C1640 H1627 0.960 . S
C1640 C1639 1.524 . S
C1641 C1638 1.403 . S
C1641 C1642 1.392 . S
C1641 C1645 1.495 . S
C1642 C1641 1.392 . S
C1642 C1643 1.385 . S
C1642 C1644 1.478 . S
C1643 H1637 0.930 . S
C1643 C1639 1.400 . S
C1643 C1642 1.385 . S
C1644 C1642 1.478 . S
C1644 C1646 1.381 . S
C1644 C1650 1.383 . S
C1645 C1641 1.495 . S
C1645 H1651 0.959 . S
C1645 H1652 0.961 . S
C1645 H1653 0.960 . S
C1646 C1644 1.381 . S
C1646 C1647 1.394 . S
C1646 H1654 0.930 . S
C1647 C1646 1.394 . S
C1647 C1648 1.383 . S
C1647 H1655 0.929 . S
C1648 C1647 1.383 . S
C1648 C1649 1.377 . S
C1649 H1633 0.930 . S
C1649 C1648 1.377 . S
C1649 C1650 1.379 . S
C1650 H1634 0.931 . S
C1650 C1644 1.383 . S
C1650 C1649 1.379 . S
H1651 C1645 0.959 . S
H1652 C1645 0.961 . S
H1653 C1645 0.960 . S
H1654 C1646 0.930 . S
H1655 C1647 0.929 . S
H1656 C1664 0.929 1_565 S
H1657 C1666 0.930 1_565 S
H1658 C1668 0.930 . S
H1659 C1671 0.929 . S
H1660 C1674 0.930 . S
H1661 C1676 0.960 . S
H1662 C1676 0.960 . S
H1663 C1676 0.960 . S
C1664 H1656 0.929 1_545 S
C1664 C1665 1.377 . S
C1664 C1666 1.384 . S
C1665 C1664 1.377 . S
C1665 C1671 1.390 . S
C1666 H1657 0.930 1_545 S
C1666 C1664 1.384 . S
C1666 C1667 1.372 . S
C1667 C1666 1.372 . S
C1667 C1668 1.400 . S
C1667 C1672 1.490 . S
C1668 H1658 0.930 . S
C1668 C1667 1.400 . S
C1668 C1671 1.386 . S
H1669 C1685 0.930 . S
H1670 C1686 0.931 . S
C1671 H1659 0.929 . S
C1671 C1665 1.390 . S
C1671 C1668 1.386 . S
C1672 C1667 1.490 . S
C1672 C1674 1.395 . S
C1672 C1675 1.403 . S
H1673 C1679 0.930 . S
C1674 H1660 0.930 . S
C1674 C1672 1.395 . S
C1674 C1677 1.403 . S
C1675 C1672 1.403 . S
C1675 C1676 1.524 . S
C1675 C1679 1.400 . S
C1676 H1661 0.960 . S
C1676 H1662 0.960 . S
C1676 H1663 0.960 . S
C1676 C1675 1.524 . S
C1677 C1674 1.403 . S
C1677 C1678 1.392 . S
C1677 C1681 1.495 . S
C1678 C1677 1.392 . S
C1678 C1679 1.385 . S
C1678 C1680 1.478 . S
C1679 H1673 0.930 . S
C1679 C1675 1.400 . S
C1679 C1678 1.385 . S
C1680 C1678 1.478 . S
C1680 C1682 1.381 1_545 S
C1680 C1686 1.383 . S
C1681 C1677 1.495 . S
C1681 H1687 0.959 . S
C1681 H1688 0.961 . S
C1681 H1689 0.960 1_545 S
C1682 C1680 1.381 1_565 S
C1682 C1683 1.394 . S
C1682 H1690 0.930 . S
C1683 C1682 1.394 . S
C1683 C1684 1.383 1_565 S
C1683 H1691 0.929 . S
C1684 C1683 1.383 1_545 S
C1684 C1685 1.377 . S
C1685 H1669 0.930 . S
C1685 C1684 1.377 . S
C1685 C1686 1.379 . S
C1686 H1670 0.931 . S
C1686 C1680 1.383 . S
C1686 C1685 1.379 . S
H1687 C1681 0.959 . S
H1688 C1681 0.961 . S
H1689 C1681 0.960 1_565 S
H1690 C1682 0.930 . S
H1691 C1683 0.929 . S
H1692 C1700 0.929 1_455 S
H1693 C1702 0.930 1_455 S
H1694 C1704 0.930 . S
H1695 C1707 0.929 . S
H1696 C1710 0.930 . S
H1697 C1712 0.960 . S
H1698 C1712 0.960 . S
H1699 C1712 0.960 . S
C1700 H1692 0.929 1_655 S
C1700 C1701 1.377 . S
C1700 C1702 1.384 . S
C1701 C1700 1.377 . S
C1701 C1707 1.390 . S
C1702 H1693 0.930 1_655 S
C1702 C1700 1.384 . S
C1702 C1703 1.372 . S
C1703 C1702 1.372 . S
C1703 C1704 1.400 . S
C1703 C1708 1.490 . S
C1704 H1694 0.930 . S
C1704 C1703 1.400 . S
C1704 C1707 1.386 . S
H1705 C1721 0.930 . S
H1706 C1722 0.931 . S
C1707 H1695 0.929 . S
C1707 C1701 1.390 . S
C1707 C1704 1.386 . S
C1708 C1703 1.490 . S
C1708 C1710 1.395 1_655 S
C1708 C1711 1.403 . S
H1709 C1715 0.930 . S
C1710 H1696 0.930 . S
C1710 C1708 1.395 1_455 S
C1710 C1713 1.403 . S
C1711 C1708 1.403 . S
C1711 C1712 1.524 . S
C1711 C1715 1.400 . S
C1712 H1697 0.960 . S
C1712 H1698 0.960 . S
C1712 H1699 0.960 . S
C1712 C1711 1.524 . S
C1713 C1710 1.403 . S
C1713 C1714 1.392 1_455 S
C1713 C1717 1.495 . S
C1714 C1713 1.392 1_655 S
C1714 C1715 1.385 . S
C1714 C1716 1.478 . S
C1715 H1709 0.930 . S
C1715 C1711 1.400 . S
C1715 C1714 1.385 . S
C1716 C1714 1.478 . S
C1716 C1718 1.381 1_655 S
C1716 C1722 1.383 . S
C1717 C1713 1.495 . S
C1717 H1723 0.959 . S
C1717 H1724 0.961 . S
C1717 H1725 0.960 . S
C1718 C1716 1.381 1_455 S
C1718 C1719 1.394 . S
C1718 H1726 0.930 . S
C1719 C1718 1.394 . S
C1719 C1720 1.383 1_455 S
C1719 H1727 0.929 . S
C1720 C1719 1.383 1_655 S
C1720 C1721 1.377 . S
C1721 H1705 0.930 . S
C1721 C1720 1.377 . S
C1721 C1722 1.379 . S
C1722 H1706 0.931 . S
C1722 C1716 1.383 . S
C1722 C1721 1.379 . S
H1723 C1717 0.959 . S
H1724 C1717 0.961 . S
H1725 C1717 0.960 . S
H1726 C1718 0.930 . S
H1727 C1719 0.929 . S
H1728 C1736 0.929 . S
H1729 C1738 0.930 . S
H1730 C1740 0.930 . S
H1731 C1743 0.929 . S
H1732 C1746 0.930 . S
H1733 C1748 0.960 . S
H1734 C1748 0.960 . S
H1735 C1748 0.960 . S
C1736 H1728 0.929 . S
C1736 C1737 1.377 . S
C1736 C1738 1.384 . S
C1737 C1736 1.377 . S
C1737 C1743 1.390 . S
C1738 H1729 0.930 . S
C1738 C1736 1.384 . S
C1738 C1739 1.372 . S
C1739 C1738 1.372 . S
C1739 C1740 1.400 . S
C1739 C1744 1.490 . S
C1740 H1730 0.930 . S
C1740 C1739 1.400 . S
C1740 C1743 1.386 . S
H1741 C1757 0.930 . S
H1742 C1758 0.931 . S
C1743 H1731 0.929 . S
C1743 C1737 1.390 . S
C1743 C1740 1.386 . S
C1744 C1739 1.490 . S
C1744 C1746 1.395 . S
C1744 C1747 1.403 . S
H1745 C1751 0.930 . S
C1746 H1732 0.930 . S
C1746 C1744 1.395 . S
C1746 C1749 1.403 . S
C1747 C1744 1.403 . S
C1747 C1748 1.524 . S
C1747 C1751 1.400 . S
C1748 H1733 0.960 . S
C1748 H1734 0.960 . S
C1748 H1735 0.960 . S
C1748 C1747 1.524 . S
C1749 C1746 1.403 . S
C1749 C1750 1.392 . S
C1749 C1753 1.495 . S
C1750 C1749 1.392 . S
C1750 C1751 1.385 . S
C1750 C1752 1.478 . S
C1751 H1745 0.930 . S
C1751 C1747 1.400 . S
C1751 C1750 1.385 . S
C1752 C1750 1.478 . S
C1752 C1754 1.381 . S
C1752 C1758 1.383 . S
C1753 C1749 1.495 . S
C1753 H1759 0.959 . S
C1753 H1760 0.961 . S
C1753 H1761 0.960 . S
C1754 C1752 1.381 . S
C1754 C1755 1.394 . S
C1754 H1762 0.930 . S
C1755 C1754 1.394 . S
C1755 C1756 1.383 . S
C1755 H1763 0.929 . S
C1756 C1755 1.383 . S
C1756 C1757 1.377 . S
C1757 H1741 0.930 . S
C1757 C1756 1.377 . S
C1757 C1758 1.379 . S
C1758 H1742 0.931 . S
C1758 C1752 1.383 . S
C1758 C1757 1.379 . S
H1759 C1753 0.959 . S
H1760 C1753 0.961 . S
H1761 C1753 0.960 . S
H1762 C1754 0.930 . S
H1763 C1755 0.929 . S
H1764 C1772 0.929 . S
H1765 C1774 0.930 . S
H1766 C1776 0.930 . S
H1767 C1779 0.929 . S
H1768 C1782 0.930 . S
H1769 C1784 0.960 . S
H1770 C1784 0.960 . S
H1771 C1784 0.966 . S
C1772 H1764 0.929 . S
C1772 C1773 1.377 . S
C1772 C1774 1.384 . S
C1773 C1772 1.377 . S
C1773 C1779 1.390 1_565 S
C1774 H1765 0.930 . S
C1774 C1772 1.384 . S
C1774 C1775 1.372 . S
C1775 C1774 1.372 . S
C1775 C1776 1.400 1_565 S
C1775 C1780 1.490 . S
C1776 H1766 0.930 . S
C1776 C1775 1.400 1_545 S
C1776 C1779 1.386 . S
H1777 C1793 0.930 1_545 S
H1778 C1794 0.931 1_545 S
C1779 H1767 0.929 . S
C1779 C1773 1.390 1_545 S
C1779 C1776 1.386 . S
C1780 C1775 1.490 . S
C1780 C1782 1.395 . S
C1780 C1783 1.403 . S
H1781 C1787 0.930 . S
C1782 H1768 0.930 . S
C1782 C1780 1.395 . S
C1782 C1785 1.403 . S
C1783 C1780 1.403 . S
C1783 C1784 1.524 . S
C1783 C1787 1.400 . S
C1784 H1769 0.960 . S
C1784 H1770 0.960 . S
C1784 H1771 0.966 . S
C1784 C1783 1.524 . S
C1785 C1782 1.403 . S
C1785 C1786 1.392 . S
C1785 C1789 1.495 . S
C1786 C1785 1.392 . S
C1786 C1787 1.385 . S
C1786 C1788 1.478 . S
C1787 H1781 0.930 . S
C1787 C1783 1.400 . S
C1787 C1786 1.385 . S
C1788 C1786 1.478 . S
C1788 C1790 1.381 . S
C1788 C1794 1.383 . S
C1789 C1785 1.495 . S
C1789 H1795 0.959 . S
C1789 H1796 0.961 . S
C1789 H1797 0.960 . S
C1790 C1788 1.381 . S
C1790 C1791 1.394 . S
C1790 H1798 0.930 . S
C1791 C1790 1.394 . S
C1791 C1792 1.383 . S
C1791 H1799 0.929 . S
C1792 C1791 1.383 . S
C1792 C1793 1.377 . S
C1793 H1777 0.930 1_565 S
C1793 C1792 1.377 . S
C1793 C1794 1.379 . S
C1794 H1778 0.931 1_565 S
C1794 C1788 1.383 . S
C1794 C1793 1.379 . S
H1795 C1789 0.959 . S
H1796 C1789 0.961 . S
H1797 C1789 0.960 . S
H1798 C1790 0.930 . S
H1799 C1791 0.929 . S
H1800 C1808 0.929 . S
H1801 C1810 0.930 . S
H1802 C1812 0.929 1_655 S
H1803 C1815 0.929 . S
H1804 C1818 0.930 . S
H1805 C1820 0.960 . S
H1806 C1820 0.960 . S
H1807 C1820 0.960 . S
C1808 H1800 0.929 . S
C1808 C1809 1.377 . S
C1808 C1810 1.384 . S
C1809 C1808 1.377 . S
C1809 C1815 1.390 . S
C1810 H1801 0.930 . S
C1810 C1808 1.384 . S
C1810 C1811 1.372 . S
C1811 C1810 1.372 . S
C1811 C1812 1.400 . S
C1811 C1816 1.490 . S
C1812 H1802 0.929 1_455 S
C1812 C1811 1.400 . S
C1812 C1815 1.386 . S
H1813 C1829 0.927 1_655 S
H1814 C1830 0.931 1_655 S
C1815 H1803 0.929 . S
C1815 C1809 1.390 . S
C1815 C1812 1.386 . S
C1816 C1811 1.490 . S
C1816 C1818 1.395 . S
C1816 C1819 1.403 1_455 S
H1817 C1823 0.930 . S
C1818 H1804 0.930 . S
C1818 C1816 1.395 . S
C1818 C1821 1.403 . S
C1819 C1816 1.403 1_655 S
C1819 C1820 1.524 . S
C1819 C1823 1.400 . S
C1820 H1805 0.960 . S
C1820 H1806 0.960 . S
C1820 H1807 0.960 . S
C1820 C1819 1.524 . S
C1821 C1818 1.403 . S
C1821 C1822 1.392 . S
C1821 C1825 1.495 . S
C1822 C1821 1.392 . S
C1822 C1823 1.385 1_455 S
C1822 C1824 1.478 . S
C1823 H1817 0.930 . S
C1823 C1819 1.400 . S
C1823 C1822 1.385 1_655 S
C1824 C1822 1.478 . S
C1824 C1826 1.381 . S
C1824 C1830 1.383 . S
C1825 C1821 1.495 . S
C1825 H1831 0.959 . S
C1825 H1832 0.961 . S
C1825 H1833 0.960 . S
C1826 C1824 1.381 . S
C1826 C1827 1.394 . S
C1826 H1834 0.930 . S
C1827 C1826 1.394 . S
C1827 C1828 1.383 . S
C1827 H1835 0.929 . S
C1828 C1827 1.383 . S
C1828 C1829 1.376 . S
C1829 H1813 0.927 1_455 S
C1829 C1828 1.376 . S
C1829 C1830 1.382 . S
C1830 H1814 0.931 1_455 S
C1830 C1824 1.383 . S
C1830 C1829 1.382 . S
H1831 C1825 0.959 . S
H1832 C1825 0.961 . S
H1833 C1825 0.960 . S
H1834 C1826 0.930 . S
H1835 C1827 0.929 . S
H1836 C1844 0.929 . S
H1837 C1846 0.930 . S
H1838 C1848 0.930 . S
H1839 C1851 0.929 . S
H1840 C1854 0.930 . S
H1841 C1856 0.960 . S
H1842 C1856 0.960 . S
H1843 C1856 0.960 . S
C1844 H1836 0.929 . S
C1844 C1845 1.377 . S
C1844 C1846 1.384 . S
C1845 C1844 1.377 . S
C1845 C1851 1.390 . S
C1846 H1837 0.930 . S
C1846 C1844 1.384 . S
C1846 C1847 1.372 . S
C1847 C1846 1.372 . S
C1847 C1848 1.400 . S
C1847 C1852 1.490 . S
C1848 H1838 0.930 . S
C1848 C1847 1.400 . S
C1848 C1851 1.386 . S
H1849 C1865 0.930 . S
H1850 C1866 0.931 . S
C1851 H1839 0.929 . S
C1851 C1845 1.390 . S
C1851 C1848 1.386 . S
C1852 C1847 1.490 . S
C1852 C1854 1.395 . S
C1852 C1855 1.403 . S
H1853 C1859 0.930 . S
C1854 H1840 0.930 . S
C1854 C1852 1.395 . S
C1854 C1857 1.403 . S
C1855 C1852 1.403 . S
C1855 C1856 1.524 . S
C1855 C1859 1.400 . S
C1856 H1841 0.960 . S
C1856 H1842 0.960 . S
C1856 H1843 0.960 . S
C1856 C1855 1.524 . S
C1857 C1854 1.403 . S
C1857 C1858 1.392 . S
C1857 C1861 1.495 . S
C1858 C1857 1.392 . S
C1858 C1859 1.385 . S
C1858 C1860 1.478 . S
C1859 H1853 0.930 . S
C1859 C1855 1.400 . S
C1859 C1858 1.385 . S
C1860 C1858 1.478 . S
C1860 C1862 1.381 . S
C1860 C1866 1.383 . S
C1861 C1857 1.495 . S
C1861 H1867 0.959 . S
C1861 H1868 0.961 . S
C1861 H1869 0.960 . S
C1862 C1860 1.381 . S
C1862 C1863 1.394 . S
C1862 H1870 0.930 . S
C1863 C1862 1.394 . S
C1863 C1864 1.383 . S
C1863 H1871 0.929 . S
C1864 C1863 1.383 . S
C1864 C1865 1.377 . S
C1865 H1849 0.930 . S
C1865 C1864 1.377 . S
C1865 C1866 1.379 . S
C1866 H1850 0.931 . S
C1866 C1860 1.383 . S
C1866 C1865 1.379 . S
H1867 C1861 0.959 . S
H1868 C1861 0.961 . S
H1869 C1861 0.960 . S
H1870 C1862 0.930 . S
H1871 C1863 0.929 . S
H1872 C1880 0.929 . S
H1873 C1882 0.930 . S
H1874 C1884 0.930 . S
H1875 C1887 0.929 . S
H1876 C1890 0.930 . S
H1877 C1892 0.960 . S
H1878 C1892 0.960 . S
H1879 C1892 0.960 . S
C1880 H1872 0.929 . S
C1880 C1881 1.377 . S
C1880 C1882 1.384 . S
C1881 C1880 1.377 . S
C1881 C1887 1.390 . S
C1882 H1873 0.930 . S
C1882 C1880 1.384 . S
C1882 C1883 1.372 . S
C1883 C1882 1.372 . S
C1883 C1884 1.400 . S
C1883 C1888 1.490 . S
C1884 H1874 0.930 . S
C1884 C1883 1.400 . S
C1884 C1887 1.386 . S
H1885 C1901 0.930 . S
H1886 C1902 0.931 . S
C1887 H1875 0.929 . S
C1887 C1881 1.390 . S
C1887 C1884 1.386 . S
C1888 C1883 1.490 . S
C1888 C1890 1.395 . S
C1888 C1891 1.403 . S
H1889 C1895 0.930 . S
C1890 H1876 0.930 . S
C1890 C1888 1.395 . S
C1890 C1893 1.403 . S
C1891 C1888 1.403 . S
C1891 C1892 1.524 . S
C1891 C1895 1.400 . S
C1892 H1877 0.960 . S
C1892 H1878 0.960 . S
C1892 H1879 0.960 . S
C1892 C1891 1.524 . S
C1893 C1890 1.403 . S
C1893 C1894 1.392 . S
C1893 C1897 1.495 . S
C1894 C1893 1.392 . S
C1894 C1895 1.385 . S
C1894 C1896 1.478 . S
C1895 H1889 0.930 . S
C1895 C1891 1.400 . S
C1895 C1894 1.385 . S
C1896 C1894 1.478 . S
C1896 C1898 1.381 . S
C1896 C1902 1.383 . S
C1897 C1893 1.495 . S
C1897 H1903 0.959 . S
C1897 H1904 0.961 . S
C1897 H1905 0.960 . S
C1898 C1896 1.381 . S
C1898 C1899 1.394 . S
C1898 H1906 0.930 . S
C1899 C1898 1.394 . S
C1899 C1900 1.383 . S
C1899 H1907 0.929 . S
C1900 C1899 1.383 . S
C1900 C1901 1.377 . S
C1901 H1885 0.930 . S
C1901 C1900 1.377 . S
C1901 C1902 1.379 . S
C1902 H1886 0.931 . S
C1902 C1896 1.383 . S
C1902 C1901 1.379 . S
H1903 C1897 0.959 . S
H1904 C1897 0.961 . S
H1905 C1897 0.960 . S
H1906 C1898 0.930 . S
H1907 C1899 0.929 . S
H1908 C1916 0.929 . S
H1909 C1918 0.930 . S
H1910 C1920 0.930 . S
H1911 C1923 0.929 . S
H1912 C1926 0.930 . S
H1913 C1928 0.960 . S
H1914 C1928 0.960 . S
H1915 C1928 0.960 . S
C1916 H1908 0.929 . S
C1916 C1917 1.377 . S
C1916 C1918 1.384 . S
C1917 C1916 1.377 . S
C1917 C1923 1.390 . S
C1918 H1909 0.930 . S
C1918 C1916 1.384 . S
C1918 C1919 1.372 . S
C1919 C1918 1.372 . S
C1919 C1920 1.400 . S
C1919 C1924 1.490 . S
C1920 H1910 0.930 . S
C1920 C1919 1.400 . S
C1920 C1923 1.386 . S
H1921 C1937 0.930 . S
H1922 C1938 0.931 . S
C1923 H1911 0.929 . S
C1923 C1917 1.390 . S
C1923 C1920 1.386 . S
C1924 C1919 1.490 . S
C1924 C1926 1.395 . S
C1924 C1927 1.403 . S
H1925 C1931 0.930 . S
C1926 H1912 0.930 . S
C1926 C1924 1.395 . S
C1926 C1929 1.403 . S
C1927 C1924 1.403 . S
C1927 C1928 1.524 . S
C1927 C1931 1.400 . S
C1928 H1913 0.960 . S
C1928 H1914 0.960 . S
C1928 H1915 0.960 . S
C1928 C1927 1.524 . S
C1929 C1926 1.403 . S
C1929 C1930 1.392 . S
C1929 C1933 1.495 . S
C1930 C1929 1.392 . S
C1930 C1931 1.385 . S
C1930 C1932 1.478 . S
C1931 H1925 0.930 . S
C1931 C1927 1.400 . S
C1931 C1930 1.385 . S
C1932 C1930 1.478 . S
C1932 C1934 1.381 . S
C1932 C1938 1.383 . S
C1933 C1929 1.495 . S
C1933 H1939 0.959 . S
C1933 H1940 0.961 . S
C1933 H1941 0.960 . S
C1934 C1932 1.381 . S
C1934 C1935 1.394 . S
C1934 H1942 0.930 . S
C1935 C1934 1.394 . S
C1935 C1936 1.383 . S
C1935 H1943 0.929 . S
C1936 C1935 1.383 . S
C1936 C1937 1.377 . S
C1937 H1921 0.930 . S
C1937 C1936 1.377 . S
C1937 C1938 1.379 . S
C1938 H1922 0.931 . S
C1938 C1932 1.383 . S
C1938 C1937 1.379 . S
H1939 C1933 0.959 . S
H1940 C1933 0.961 . S
H1941 C1933 0.960 . S
H1942 C1934 0.930 . S
H1943 C1935 0.929 . S
C657 C14 1.895 . S
C676 C122 1.918 . S
C693 C50 1.982 . S
C712 C147 2.119 . S
C729 C194 2.036 . S
C748 C86 2.036 . S
C765 C230 1.876 . S
C784 C338 1.887 . S
C801 C266 1.975 . S
C820 C363 2.113 . S
C837 C410 1.993 . S
C856 C302 1.984 . S
C873 C554 1.876 . S
C892 C446 1.870 . S
C909 C579 2.111 . S
C928 C482 1.959 . S
C945 C626 2.003 . S
C964 C518 2.020 . S
C981 C3 1.621 . S
C1000 C327 1.603 . S
C1017 C39 1.688 . S
C1036 C374 1.571 . S
C1053 C399 1.732 . S
C1072 C75 1.734 . S
C1089 C111 1.618 . S
C1108 C435 1.634 . S
C1125 C158 1.529 . S
C1144 C471 1.668 . S
C1161 C183 1.726 . S
C1180 C507 1.735 . S
C1197 C219 1.643 . S
C1216 C543 1.624 . S
C1233 C255 1.691 . S
C1252 C590 1.543 . S
C1269 C615 1.711 . S
C1288 C291 1.686 . S
C1305 C4 0.307 . S
C1324 C148 0.213 . S
C1341 C40 0.293 . S
C1360 C182 0.342 . S
C1377 C76 0.326 . S
C1396 C110 0.259 . S
C1413 C112 0.273 . S
C1432 C38 0.272 . S
C1449 C74 0.215 . S
C1468 C146 0.225 . S
C1485 C184 0.279 . S
C1504 C2 0.205 . S
C1521 C220 0.327 . S
C1540 C364 0.253 . S
C1557 C398 0.279 . S
C1576 C256 0.382 . S
C1593 C326 0.313 . S
C1612 C292 0.398 . S
C1629 C254 0.215 . S
C1648 C328 0.298 . S
C1665 C362 0.302 . S
C1684 C290 0.193 . S
C1701 C400 0.298 . S
C1720 C218 0.260 . S
C1737 C580 0.242 . S
C1756 C436 0.345 . S
C1773 C614 0.286 . S
C1792 C472 0.386 . S
C1809 C508 0.311 . S
C1828 C542 0.238 . S
C1845 C470 0.211 . S
C1864 C544 0.207 . S
C1881 C506 0.233 . S
C1900 C578 0.379 . S
C1917 C434 0.278 . S
C1936 C616 0.316 . S
