# Generated by pormake.
# Topology vmm, (7)-cn, num edge types: 1
# Building blocks:
#     Node 0, Type 0, BuildingBlock: HICVOG_clean_sbu_0, # of connection points: 7
#     Node 1, Type 0, BuildingBlock: HICVOG_clean_sbu_0, # of connection points: 7
#     Node 2, Type 0, BuildingBlock: HICVOG_clean_sbu_0, # of connection points: 7
#     Node 3, Type 0, BuildingBlock: HICVOG_clean_sbu_0, # of connection points: 7
#     Edge 4, Type (0, 0), BuildingBlock: KIFKEQ_clean_linker_1, # of connection points: 2
#     Edge 5, Type (0, 0), BuildingBlock: KIFKEQ_clean_linker_1, # of connection points: 2
#     Edge 6, Type (0, 0), BuildingBlock: KIFKEQ_clean_linker_1, # of connection points: 2
#     Edge 7, Type (0, 0), BuildingBlock: KIFKEQ_clean_linker_1, # of connection points: 2
#     Edge 8, Type (0, 0), BuildingBlock: KIFKEQ_clean_linker_1, # of connection points: 2
#     Edge 9, Type (0, 0), BuildingBlock: KIFKEQ_clean_linker_1, # of connection points: 2
#     Edge 10, Type (0, 0), BuildingBlock: KIFKEQ_clean_linker_1, # of connection points: 2
#     Edge 11, Type (0, 0), BuildingBlock: KIFKEQ_clean_linker_1, # of connection points: 2
#     Edge 12, Type (0, 0), BuildingBlock: KIFKEQ_clean_linker_1, # of connection points: 2
#     Edge 13, Type (0, 0), BuildingBlock: KIFKEQ_clean_linker_1, # of connection points: 2
#     Edge 14, Type (0, 0), BuildingBlock: KIFKEQ_clean_linker_1, # of connection points: 2
#     Edge 15, Type (0, 0), BuildingBlock: KIFKEQ_clean_linker_1, # of connection points: 2
#     Edge 16, Type (0, 0), BuildingBlock: KIFKEQ_clean_linker_1, # of connection points: 2
#     Edge 17, Type (0, 0), BuildingBlock: KIFKEQ_clean_linker_1, # of connection points: 2
# Relax obj value: 0.084
# Max RMSD: 0.164
# Mean RMSD: 0.164
data_MOF--net-vmm--node1-HICVOG_clean_sbu_0--edge1-KIFKEQ_clean_linker_1
_symmetry_space_group_name_H-M    P1
_symmetry_Int_Tables_number       1
_symmetry_cell_setting            triclinic
loop_
_symmetry_equiv_pos_as_xyz
'x, y, z'
_cell_length_a     18.323568
_cell_length_b     45.578492
_cell_length_c     21.998968
_cell_angle_alpha  89.988769
_cell_angle_beta   81.428543
_cell_angle_gamma 90.013854
loop_
_atom_site_label
_atom_site_type_symbol
_atom_site_fract_x
_atom_site_fract_y
_atom_site_fract_z
_atom_type_partial_charge
Zn0 Zn 0.28823 0.10546 0.23559 0.0
C1 C 0.14256 0.06578 0.15404 0.0
N2 N 0.19126 0.04379 0.15248 0.0
C3 C 0.25289 0.05723 0.16365 0.0
N4 N 0.24145 0.08618 0.17356 0.0
N5 N 0.17296 0.0919 0.16497 0.0
C6 C -0.01196 0.12171 0.18649 0.0
O7 O 0.01328 0.11252 0.23603 0.0
O8 O 0.39869 0.10518 0.21455 0.0
Zn9 Zn 0.14199 0.13117 0.14616 0.0
N10 N 0.26414 0.08213 0.30936 0.0
C11 C 0.17205 0.05813 0.37946 0.0
C12 C 0.1921 0.07508 0.32698 0.0
C13 C 0.31735 0.07295 0.34216 0.0
N14 N 0.22494 0.04887 0.41215 0.0
C15 C 0.2976 0.05563 0.39522 0.0
O16 O 0.16066 0.16182 0.20925 0.0
C17 C 0.20415 0.16573 0.24872 0.0
O18 O 0.25141 0.14643 0.25833 0.0
H19 H 0.15067 0.08262 0.30036 0.0
H20 H 0.37383 0.07953 0.32729 0.0
C21 C 0.18696 0.16975 0.04192 0.0
C22 C 0.22789 0.17726 0.98449 0.0
C23 C 0.28196 0.12977 0.97854 0.0
C24 C 0.24131 0.12246 0.03503 0.0
N25 N 0.19508 0.14256 0.06603 0.0
N26 N 0.27454 0.15687 0.95482 0.0
H27 H 0.15026 0.1854 0.06777 0.0
C28 C 0.43759 0.1266 0.19141 0.0
O29 O 0.40487 0.15088 0.17789 0.0
O30 O 0.03341 0.13098 0.14124 0.0
H31 H 0.24689 0.10086 0.05388 0.0
H32 H 0.11489 0.05233 0.39416 0.0
H33 H 0.31928 0.11403 0.95366 0.0
Zn34 Zn 0.81308 0.62926 0.41786 0.0
C35 C 0.69108 0.55819 0.39515 0.0
N36 N 0.74336 0.5436 0.41927 0.0
C37 C 0.79629 0.56383 0.42091 0.0
N38 N 0.77711 0.59018 0.39954 0.0
N39 N 0.71208 0.58602 0.38162 0.0
C40 C 0.5179 0.62179 0.37875 0.0
O41 O 0.54778 0.63799 0.41787 0.0
O42 O 0.92163 0.62734 0.42384 0.0
Zn43 Zn 0.67017 0.60717 0.31974 0.0
N44 N 0.76103 0.64149 0.49799 0.0
C45 C 0.67188 0.62938 0.58449 0.0
C46 C 0.7119 0.62208 0.52782 0.0
C47 C 0.77235 0.66816 0.52338 0.0
N48 N 0.68245 0.65592 0.60945 0.0
C49 C 0.7317 0.67574 0.58094 0.0
O50 O 0.71049 0.64763 0.30146 0.0
C51 C 0.75821 0.66614 0.31366 0.0
O52 O 0.79926 0.66109 0.35457 0.0
H53 H 0.70357 0.60102 0.50786 0.0
H54 H 0.81116 0.68336 0.49843 0.0
C55 C 0.64365 0.576 0.21095 0.0
C56 C 0.66441 0.55925 0.15726 0.0
C57 C 0.78951 0.56197 0.17421 0.0
C58 C 0.7684 0.57828 0.22745 0.0
N59 N 0.6961 0.58497 0.24472 0.0
N60 N 0.73733 0.55289 0.1406 0.0
H61 H 0.58694 0.58228 0.22569 0.0
C62 C 0.96641 0.61437 0.38293 0.0
O63 O 0.94115 0.6019 0.33639 0.0
O64 O 0.55906 0.60786 0.33691 0.0
H65 H 0.80916 0.58558 0.25499 0.0
H66 H 0.63243 0.61411 0.60843 0.0
H67 H 0.8469 0.55649 0.15973 0.0
Zn68 Zn 0.66519 0.92704 0.82114 0.0
C69 C 0.79488 0.96839 0.92223 0.0
N70 N 0.74268 0.98904 0.92208 0.0
C71 C 0.6896 0.9752 0.89756 0.0
N72 N 0.70946 0.94743 0.88239 0.0
N73 N 0.77452 0.94249 0.89962 0.0
C74 C 0.96331 0.91836 0.87701 0.0
O75 O 0.93706 0.93203 0.83233 0.0
O76 O 0.5546 0.92789 0.8388 0.0
Zn77 Zn 0.81046 0.90293 0.91468 0.0
N78 N 0.69246 0.94847 0.74526 0.0
C79 C 0.78716 0.96791 0.67056 0.0
C80 C 0.76542 0.95247 0.7249 0.0
C81 C 0.64 0.95927 0.7135 0.0
N82 N 0.73498 0.97858 0.63863 0.0
C83 C 0.66147 0.97467 0.65812 0.0
O84 O 0.79244 0.87132 0.85196 0.0
C85 C 0.74746 0.86679 0.81387 0.0
O86 O 0.70034 0.88599 0.80391 0.0
H87 H 0.8062 0.94377 0.75091 0.0
H88 H 0.58252 0.95618 0.73198 0.0
C89 C 0.78151 0.86426 1.02118 0.0
C90 C 0.74884 0.85681 0.08149 0.0
C91 C 0.682 0.90164 0.08762 0.0
C92 C 0.71437 0.90884 1.02826 0.0
N93 N 0.7637 0.89023 0.99612 0.0
N94 N 0.70005 0.87599 0.11277 0.0
H95 H 0.82173 0.85003 0.99493 0.0
C96 C 0.51301 0.9136 0.87973 0.0
O97 O 0.54231 0.89642 0.91754 0.0
O98 O 0.91944 0.90447 0.91703 0.0
H99 H 0.701 0.92938 1.0084 0.0
H100 H 0.84506 0.97138 0.65377 0.0
H101 H 0.64303 0.9164 0.11371 0.0
Zn102 Zn 0.29323 0.42861 0.73349 0.0
C103 C 0.14401 0.46674 0.65285 0.0
N104 N 0.19201 0.48905 0.64958 0.0
C105 C 0.25431 0.47622 0.66096 0.0
N106 N 0.24398 0.44733 0.67248 0.0
N107 N 0.17545 0.441 0.66498 0.0
C108 C -0.00898 0.41105 0.69025 0.0
O109 O 0.01628 0.42112 0.73908 0.0
O110 O 0.40335 0.42973 0.71144 0.0
Zn111 Zn 0.145 0.40132 0.64852 0.0
N112 N 0.26869 0.45144 0.80784 0.0
C113 C 0.17547 0.47253 0.8815 0.0
C114 C 0.19603 0.45615 0.82831 0.0
C115 C 0.32203 0.46241 0.83846 0.0
N116 N 0.22846 0.48337 0.91232 0.0
C117 C 0.3017 0.47877 0.89278 0.0
O118 O 0.16626 0.37091 0.71155 0.0
C119 C 0.21277 0.36753 0.74873 0.0
O120 O 0.25975 0.38732 0.75605 0.0
H121 H 0.15454 0.44726 0.80327 0.0
H122 H 0.37923 0.45866 0.81993 0.0
C123 C 0.18178 0.3632 0.54255 0.0
C124 C 0.21575 0.35631 0.48237 0.0
C125 C 0.2744 0.40295 0.47581 0.0
C126 C 0.24048 0.40967 0.535 0.0
N127 N 0.19471 0.38981 0.56733 0.0
N128 N 0.26107 0.37664 0.45092 0.0
H129 H 0.14407 0.34804 0.56887 0.0
C130 C 0.44195 0.40798 0.68968 0.0
O131 O 0.40891 0.38345 0.6782 0.0
O132 O 0.03625 0.40114 0.64564 0.0
H133 H 0.24993 0.43081 0.55444 0.0
H134 H 0.11782 0.47657 0.89833 0.0
H135 H 0.31065 0.41862 0.44956 0.0
H136 H 0.53883 0.16887 0.1491 0.0
H137 H 0.52072 0.07961 0.2162 0.0
H138 H 0.6727 0.16645 0.14416 0.0
H139 H 0.65432 0.07717 0.21056 0.0
H140 H 0.87801 0.0995 0.27134 0.0
H141 H 0.74582 0.09962 0.26752 0.0
H142 H 0.78462 0.14204 0.09004 0.0
H143 H 0.91708 0.14223 0.09405 0.0
C144 C 0.5634 0.14866 0.16218 0.0
C145 C 0.51905 0.12455 0.18356 0.0
C146 C 0.64012 0.14723 0.15908 0.0
C147 C 0.67399 0.12169 0.17742 0.0
C148 C 0.62975 0.09731 0.19706 0.0
C149 C 0.55319 0.09869 0.2 0.0
C150 C 0.85845 0.10881 0.23143 0.0
C151 C 0.90802 0.12103 0.1832 0.0
C152 C 0.78271 0.10869 0.22905 0.0
C153 C 0.75479 0.12086 0.17848 0.0
C154 C 0.80442 0.1328 0.12991 0.0
C155 C 0.88029 0.13279 0.13214 0.0
H156 H 0.44048 0.60418 0.28897 0.0
H157 H 0.41229 0.63401 0.47729 0.0
H158 H 0.30763 0.60145 0.29314 0.0
H159 H 0.27858 0.62989 0.48282 0.0
H160 H 0.04345 0.65116 0.44796 0.0
H161 H 0.17607 0.652 0.44942 0.0
H162 H 0.20132 0.57558 0.33155 0.0
H163 H 0.06923 0.57585 0.32772 0.0
C164 C 0.40573 0.60984 0.33161 0.0
C165 C 0.43682 0.61952 0.38269 0.0
C166 C 0.32929 0.60803 0.33423 0.0
C167 C 0.28176 0.61534 0.38841 0.0
C168 C 0.31314 0.62457 0.43993 0.0
C169 C 0.38982 0.62683 0.43694 0.0
C170 C 0.07747 0.63451 0.42253 0.0
C171 C 0.04616 0.61366 0.38712 0.0
C172 C 0.15358 0.63483 0.42368 0.0
C173 C 0.20004 0.61399 0.39023 0.0
C174 C 0.1679 0.59248 0.35662 0.0
C175 C 0.09201 0.59249 0.35464 0.0
H176 H 0.04141 0.88049 0.93837 0.0
H177 H 0.06461 0.95847 0.8257 0.0
H178 H 0.17355 0.88061 0.94174 0.0
H179 H 0.19628 0.95963 0.83156 0.0
H180 H 0.43742 0.93302 0.79033 0.0
H181 H 0.30484 0.93518 0.79255 0.0
H182 H 0.27258 0.90318 0.9798 0.0
H183 H 0.40615 0.89964 0.97616 0.0
C184 C 0.07477 0.89789 0.91495 0.0
C185 C 0.04294 0.91928 0.88117 0.0
C186 C 0.15055 0.89812 0.91728 0.0
C187 C 0.1961 0.92006 0.88671 0.0
C188 C 0.16348 0.94198 0.85446 0.0
C189 C 0.0879 0.94143 0.85127 0.0
C190 C 0.40203 0.9265 0.83207 0.0
C191 C 0.43215 0.91596 0.88296 0.0
C192 C 0.32576 0.92797 0.83356 0.0
C193 C 0.27749 0.91941 0.8864 0.0
C194 C 0.30785 0.90944 0.93788 0.0
C195 C 0.3844 0.90753 0.936 0.0
H196 H 0.88078 0.43464 0.77305 0.0
H197 H 0.92084 0.38952 0.59843 0.0
H198 H 0.74886 0.43502 0.7677 0.0
H199 H 0.78887 0.39023 0.59288 0.0
H200 H 0.5422 0.36492 0.65093 0.0
H201 H 0.67584 0.36686 0.64752 0.0
H202 H 0.65938 0.45714 0.70773 0.0
H203 H 0.52587 0.45519 0.71183 0.0
C204 C 0.8615 0.42489 0.73345 0.0
C205 C 0.91121 0.41186 0.68642 0.0
C206 C 0.78597 0.42531 0.73016 0.0
C207 C 0.75853 0.41264 0.67987 0.0
C208 C 0.80833 0.39988 0.63252 0.0
C209 C 0.88391 0.39958 0.63565 0.0
C210 C 0.56715 0.38526 0.66291 0.0
C211 C 0.52336 0.4098 0.68215 0.0
C212 C 0.64373 0.3864 0.66071 0.0
C213 C 0.67799 0.41209 0.67783 0.0
C214 C 0.6344 0.4369 0.69523 0.0
C215 C 0.55795 0.43579 0.69725 0.0
H216 H 0.27221 0.03991 0.51603 0.0
H217 H 0.44784 0.04558 0.3615 0.0
H218 H 0.35915 0.02082 0.57956 0.0
H219 H 0.53451 0.02669 0.42547 0.0
H220 H 0.68177 0.02018 0.57679 0.0
H221 H 0.59534 0.04015 0.51356 0.0
H222 H 0.432 0.97662 0.58952 0.0
H223 H 0.51805 0.95642 0.65237 0.0
C224 C 0.32927 0.03716 0.49544 0.0
C225 C 0.35263 0.04474 0.43354 0.0
C226 C 0.37912 0.02609 0.53197 0.0
C227 C 0.45385 0.02223 0.5077 0.0
C228 C 0.47754 0.02985 0.44593 0.0
C229 C 0.42759 0.04086 0.40922 0.0
C230 C 0.62746 1.01039 0.58014 0.0
C231 C 0.60703 0.9869 0.62072 0.0
C232 C 0.57796 0.02182 0.54362 0.0
C233 C 0.50661 1.01008 0.5466 0.0
C234 C 0.48607 0.98656 0.58694 0.0
C235 C 0.53563 0.97504 0.62335 0.0
H236 H 0.4453 0.46041 0.89824 0.0
H237 H 0.2829 0.52493 0.97238 0.0
H238 H 0.53166 0.48063 0.96087 0.0
H239 H 0.36951 0.54483 0.03541 0.0
H240 H 0.51399 0.549 0.18945 0.0
H241 H 0.42836 0.53046 0.12434 0.0
H242 H 0.60537 0.52494 0.97154 0.0
H243 H 0.69144 0.54382 0.03622 0.0
C244 C 0.42807 0.47919 0.92684 0.0
C245 C 0.35684 0.4912 0.92929 0.0
C246 C 0.47781 0.49072 0.96313 0.0
C247 C 0.45755 0.51436 1.00317 0.0
C248 C 0.38659 0.52638 1.00565 0.0
C249 C 0.33699 0.51497 0.96924 0.0
C250 C 0.53491 0.54448 0.14178 0.0
C251 C 0.61006 0.54845 0.11816 0.0
C252 C 0.48552 0.53365 0.10441 0.0
C253 C 0.50993 0.52626 0.04266 0.0
C254 C 0.58487 0.53011 1.01908 0.0
C255 C 0.63419 0.54104 0.05628 0.0
H256 H 0.93465 0.98641 0.88281 0.0
H257 H 0.78045 0.96659 0.0451 0.0
H258 H 0.01105 1.01367 0.94504 0.0
H259 H 0.85256 0.99542 0.10695 0.0
H260 H 0.03714 0.02999 0.2071 0.0
H261 H 0.95587 1.00195 0.15203 0.0
H262 H 0.01021 0.05914 0.99471 0.0
H263 H 0.09575 0.086 0.04972 0.0
C264 C 0.91908 0.98671 0.93227 0.0
C265 C 0.85355 0.97325 0.95957 0.0
C266 C 0.96126 1.00326 0.9678 0.0
C267 C 0.93726 1.00751 1.0311 0.0
C268 C 0.87367 0.99255 0.05869 0.0
C269 C 0.83265 0.97551 1.02335 0.0
C270 C 0.02897 0.03734 0.16173 0.0
C271 C 0.07185 0.06027 0.13281 0.0
C272 C -0.01715 0.02105 0.12967 0.0
C273 C -0.02221 0.02761 0.06799 0.0
C274 C 0.01471 0.05274 0.04139 0.0
C275 C 0.06197 0.06879 0.07341 0.0
H276 H 0.0985 0.44616 0.54847 0.0
H277 H 0.03588 0.50111 0.70685 0.0
H278 H 0.01214 0.47254 0.49348 0.0
H279 H 0.9533 0.52858 0.65195 0.0
H280 H 0.77842 0.56341 0.54398 0.0
H281 H 0.85 0.53428 0.60574 0.0
H282 H 0.01254 0.5186 0.44519 0.0
H283 H 0.93696 0.54631 0.38286 0.0
C284 C 0.06363 0.46298 0.57239 0.0
C285 C 0.07276 0.47142 0.63201 0.0
C286 C 0.01583 0.47876 0.54041 0.0
C287 C -0.02255 0.50347 0.56737 0.0
C288 C -0.01847 0.50981 0.62933 0.0
C289 C 0.02835 0.49382 0.66129 0.0
C290 C 0.83128 0.55497 0.52257 0.0
C291 C 0.85373 0.55816 0.45912 0.0
C292 C 0.87199 0.53777 0.55784 0.0
C293 C 0.93672 0.5235 0.53053 0.0
C294 C 0.96192 0.52851 0.46765 0.0
C295 C 0.92014 0.54528 0.43215 0.0
H296 H 0.33799 0.20636 0.9131 0.0
H297 H 0.107 0.214 0.98777 0.0
H298 H 0.33164 0.25242 0.85827 0.0
H299 H 0.10094 0.26056 0.93292 0.0
H300 H 0.10984 0.32302 0.76136 0.0
H301 H 0.11068 0.27808 0.82232 0.0
H302 H 0.31472 0.30536 0.88105 0.0
H303 H 0.31436 0.34996 0.82038 0.0
C304 C 0.28587 0.21799 0.91822 0.0
C305 C 0.2232 0.20652 0.95528 0.0
C306 C 0.28237 0.24451 0.88698 0.0
C307 C 0.21584 0.26021 0.89129 0.0
C308 C 0.15294 0.24889 0.92845 0.0
C309 C 0.15666 0.2224 0.96046 0.0
C310 C 0.15487 0.31943 0.78727 0.0
C311 C 0.2122 0.34012 0.78559 0.0
C312 C 0.155 0.29379 0.82259 0.0
C313 C 0.21284 0.28813 0.85645 0.0
C314 C 0.26975 0.3089 0.85503 0.0
C315 C 0.26934 0.33456 0.82029 0.0
H316 H 0.62353 0.70517 0.65329 0.0
H317 H 0.85506 0.71132 0.57923 0.0
H318 H 0.63181 0.75079 0.70879 0.0
H319 H 0.86299 0.75765 0.6349 0.0
H320 H 0.85039 0.82204 0.80641 0.0
H321 H 0.85124 0.77636 0.747 0.0
H322 H 0.65092 0.80324 0.68153 0.0
H323 H 0.6495 0.84827 0.74029 0.0
C324 C 0.67628 0.71634 0.64855 0.0
C325 C 0.73842 0.70462 0.61125 0.0
C326 C 0.68089 0.74261 0.68025 0.0
C327 C 0.74796 0.75792 0.6761 0.0
C328 C 0.81058 0.74626 0.63916 0.0
C329 C 0.80578 0.71994 0.60667 0.0
C330 C 0.80657 0.81814 0.77936 0.0
C331 C 0.74966 0.83884 0.7786 0.0
C332 C 0.80741 0.79211 0.74497 0.0
C333 C 0.75096 0.78615 0.70978 0.0
C334 C 0.69473 0.80698 0.7087 0.0
C335 C 0.69414 0.83291 0.74243 0.0
H336 H 0.78263 0.80218 1.03004 0.0
H337 H 0.74929 0.84816 0.20368 0.0
H338 H 0.7953 0.75608 0.08427 0.0
H339 H 0.7607 0.80214 0.25766 0.0
H340 H 0.83585 0.71599 0.33506 0.0
H341 H 0.84523 0.76181 0.27616 0.0
H342 H 0.70837 0.72478 0.15199 0.0
H343 H 0.69931 0.67925 0.21003 0.0
C344 C 0.77942 0.80262 0.07957 0.0
C345 C 0.76501 0.82898 0.11242 0.0
C346 C 0.7859 0.77612 0.11075 0.0
C347 C 0.77869 0.77537 0.1754 0.0
C348 C 0.76724 0.8019 0.20791 0.0
C349 C 0.76012 0.82828 0.17688 0.0
C350 C 0.80814 0.71759 0.295 0.0
C351 C 0.76646 0.69392 0.27766 0.0
C352 C 0.81335 0.74387 0.26134 0.0
C353 C 0.7777 0.74696 0.2092 0.0
C354 C 0.73738 0.72307 0.1913 0.0
C355 C 0.73162 0.697 0.22511 0.0
H356 H 0.19149 0.30106 0.53358 0.0
H357 H 0.21459 0.34745 0.36049 0.0
H358 H 0.18167 0.25471 0.47928 0.0
H359 H 0.20582 0.30127 0.30651 0.0
H360 H 0.12495 0.21559 0.23269 0.0
H361 H 0.11942 0.261 0.29217 0.0
H362 H 0.26691 0.22374 0.40725 0.0
H363 H 0.27228 0.17834 0.34828 0.0
C364 C 0.19327 0.30149 0.48418 0.0
C365 C 0.20352 0.32806 0.45146 0.0
C366 C 0.18845 0.27487 0.45298 0.0
C367 C 0.19303 0.27428 0.38851 0.0
C368 C 0.20128 0.30094 0.35616 0.0
C369 C 0.20686 0.32741 0.38716 0.0
C370 C 0.15598 0.21701 0.27081 0.0
C371 C 0.19937 0.19329 0.28536 0.0
C372 C 0.15297 0.24309 0.3048 0.0
C373 C 0.1927 0.246 0.35451 0.0
C374 C 0.23496 0.22212 0.36974 0.0
C375 C 0.2385 0.19615 0.33549 0.0
H376 H 0.3773 0.08576 0.10967 0.0
H377 H 0.28601 0.9997 0.1524 0.0
H378 H 0.47959 0.06417 0.04211 0.0
H379 H 0.38063 0.9783 0.07801 0.0
H380 H 0.59206 0.94332 0.9727 0.0
H381 H 0.49236 0.96268 0.04435 0.0
H382 H 0.51297 0.04583 0.94747 0.0
H383 H 0.61958 0.02658 0.8796 0.0
C384 C 0.38063 0.06211 0.1065 0.0
C385 C 0.32473 0.0444 0.13793 0.0
C386 C 0.4377 0.04966 0.06531 0.0
C387 C 0.43826 0.01934 0.05236 0.0
C388 C 0.38391 1.00159 0.08645 0.0
C389 C 0.32905 1.0139 0.12955 0.0
C390 C 0.57355 0.96539 0.96531 0.0
C391 C 0.61291 0.98332 0.92012 0.0
C392 C 0.51602 0.97678 1.00704 0.0
C393 C 0.49453 1.00631 1.00349 0.0
C394 C 0.5294 0.02338 0.95389 0.0
C395 C 0.58911 1.01217 0.91348 0.0
H396 H 0.37902 0.44804 0.60684 0.0
H397 H 0.28556 0.53388 0.64788 0.0
H398 H 0.48062 0.46978 0.53861 0.0
H399 H 0.37982 0.55536 0.57301 0.0
H400 H 0.59342 0.59025 0.46987 0.0
H401 H 0.49257 0.57104 0.54065 0.0
H402 H 0.51273 0.48807 0.44327 0.0
H403 H 0.62006 0.5072 0.37596 0.0
C404 C 0.38175 0.47169 0.60318 0.0
C405 C 0.32555 0.4893 0.63443 0.0
C406 C 0.4384 0.48419 0.56164 0.0
C407 C 0.43829 0.51446 0.54821 0.0
C408 C 0.38351 0.53212 0.58191 0.0
C409 C 0.32894 0.51977 0.62527 0.0
C410 C 0.5745 0.5683 0.46204 0.0
C411 C 0.61395 0.55036 0.41692 0.0
C412 C 0.51637 0.55699 0.5033 0.0
C413 C 0.49456 0.52751 0.49943 0.0
C414 C 0.52944 0.51047 0.44984 0.0
C415 C 0.58959 0.52162 0.4098 0.0
loop_
_geom_bond_atom_site_label_1
_geom_bond_atom_site_label_2
_geom_bond_distance
_geom_bond_site_symmetry_2
_ccdc_geom_bond_type
Zn0 N4 2.020 . S
Zn0 O8 2.019 . S
Zn0 N10 2.119 . S
Zn0 O18 1.975 . S
C1 N2 1.334 . S
C1 N5 1.336 . S
N2 C1 1.334 . S
N2 C3 1.334 . S
C3 N2 1.334 . S
C3 N4 1.336 . S
N4 Zn0 2.020 . S
N4 C3 1.336 . S
N4 N5 1.354 . S
N5 C1 1.336 . S
N5 N4 1.354 . S
N5 Zn9 2.020 . S
C6 O7 1.244 1_655 S
C6 O30 1.257 1_655 S
O7 C6 1.244 1_455 S
O8 Zn0 2.019 . S
O8 C28 1.257 . S
Zn9 N5 2.020 . S
Zn9 O16 1.975 . S
Zn9 N25 2.119 . S
Zn9 O30 2.019 . S
N10 Zn0 2.119 . S
N10 C12 1.334 . S
N10 C13 1.328 . S
C11 C12 1.391 . S
C11 N14 1.329 . S
C11 H32 0.930 . S
C12 N10 1.334 . S
C12 C11 1.391 . S
C12 H19 0.930 . S
C13 N10 1.328 . S
C13 C15 1.392 . S
C13 H20 0.930 . S
N14 C11 1.329 . S
N14 C15 1.331 . S
C15 C13 1.392 . S
C15 N14 1.331 . S
O16 Zn9 1.975 . S
O16 C17 1.252 . S
C17 O16 1.252 . S
C17 O18 1.252 . S
O18 Zn0 1.975 . S
O18 C17 1.252 . S
H19 C12 0.930 . S
H20 C13 0.930 . S
C21 C22 1.392 . S
C21 N25 1.328 . S
C21 H27 0.930 . S
C22 C21 1.392 . S
C22 N26 1.331 . S
C23 C24 1.391 . S
C23 N26 1.329 . S
C23 H33 0.930 . S
C24 C23 1.391 . S
C24 N25 1.334 . S
C24 H31 0.930 . S
N25 Zn9 2.119 . S
N25 C21 1.328 . S
N25 C24 1.334 . S
N26 C22 1.331 . S
N26 C23 1.329 . S
H27 C21 0.930 . S
C28 O8 1.257 . S
C28 O29 1.244 . S
O29 C28 1.244 . S
O30 C6 1.257 1_455 S
O30 Zn9 2.019 . S
H31 C24 0.930 . S
H32 C11 0.930 . S
H33 C23 0.930 . S
Zn34 N38 2.020 . S
Zn34 O42 2.019 . S
Zn34 N44 2.119 . S
Zn34 O52 1.975 . S
C35 N36 1.334 . S
C35 N39 1.336 . S
N36 C35 1.334 . S
N36 C37 1.334 . S
C37 N36 1.334 . S
C37 N38 1.336 . S
N38 Zn34 2.020 . S
N38 C37 1.336 . S
N38 N39 1.354 . S
N39 C35 1.336 . S
N39 N38 1.354 . S
N39 Zn43 2.020 . S
C40 O41 1.244 . S
C40 O64 1.257 . S
O41 C40 1.244 . S
O42 Zn34 2.019 . S
O42 C62 1.257 1_655 S
Zn43 N39 2.020 . S
Zn43 O50 1.975 . S
Zn43 N59 2.119 . S
Zn43 O64 2.019 . S
N44 Zn34 2.119 . S
N44 C46 1.334 . S
N44 C47 1.328 . S
C45 C46 1.391 . S
C45 N48 1.329 . S
C45 H66 0.930 . S
C46 N44 1.334 . S
C46 C45 1.391 . S
C46 H53 0.930 . S
C47 N44 1.328 . S
C47 C49 1.392 . S
C47 H54 0.930 . S
N48 C45 1.329 . S
N48 C49 1.331 . S
C49 C47 1.392 . S
C49 N48 1.331 . S
O50 Zn43 1.975 . S
O50 C51 1.252 . S
C51 O50 1.252 . S
C51 O52 1.252 . S
O52 Zn34 1.975 . S
O52 C51 1.252 . S
H53 C46 0.930 . S
H54 C47 0.930 . S
C55 C56 1.392 . S
C55 N59 1.328 . S
C55 H61 0.930 . S
C56 C55 1.392 . S
C56 N60 1.331 . S
C57 C58 1.391 . S
C57 N60 1.329 . S
C57 H67 0.930 . S
C58 C57 1.391 . S
C58 N59 1.334 . S
C58 H65 0.930 . S
N59 Zn43 2.119 . S
N59 C55 1.328 . S
N59 C58 1.334 . S
N60 C56 1.331 . S
N60 C57 1.329 . S
H61 C55 0.930 . S
C62 O42 1.257 1_455 S
C62 O63 1.244 1_455 S
O63 C62 1.244 1_655 S
O64 C40 1.257 . S
O64 Zn43 2.019 . S
H65 C58 0.930 . S
H66 C45 0.930 . S
H67 C57 0.930 . S
Zn68 N72 2.020 . S
Zn68 O76 2.019 . S
Zn68 N78 2.119 . S
Zn68 O86 1.975 . S
C69 N70 1.334 . S
C69 N73 1.336 . S
N70 C69 1.334 . S
N70 C71 1.334 . S
C71 N70 1.334 . S
C71 N72 1.336 . S
N72 Zn68 2.020 . S
N72 C71 1.336 . S
N72 N73 1.354 . S
N73 C69 1.336 . S
N73 N72 1.354 . S
N73 Zn77 2.020 . S
C74 O75 1.244 1_455 S
C74 O98 1.257 1_455 S
O75 C74 1.244 1_655 S
O76 Zn68 2.019 . S
O76 C96 1.257 . S
Zn77 N73 2.020 . S
Zn77 O84 1.975 . S
Zn77 N93 2.119 . S
Zn77 O98 2.019 . S
N78 Zn68 2.119 . S
N78 C80 1.334 . S
N78 C81 1.328 . S
C79 C80 1.391 . S
C79 N82 1.329 . S
C79 H100 0.930 . S
C80 N78 1.334 . S
C80 C79 1.391 . S
C80 H87 0.930 . S
C81 N78 1.328 . S
C81 C83 1.392 . S
C81 H88 0.930 . S
N82 C79 1.329 . S
N82 C83 1.331 . S
C83 C81 1.392 . S
C83 N82 1.331 . S
O84 Zn77 1.975 . S
O84 C85 1.252 . S
C85 O84 1.252 . S
C85 O86 1.252 . S
O86 Zn68 1.975 . S
O86 C85 1.252 . S
H87 C80 0.930 . S
H88 C81 0.930 . S
C89 C90 1.392 . S
C89 N93 1.328 . S
C89 H95 0.930 . S
C90 C89 1.392 . S
C90 N94 1.331 . S
C91 C92 1.391 . S
C91 N94 1.329 . S
C91 H101 0.930 . S
C92 C91 1.391 . S
C92 N93 1.334 . S
C92 H99 0.930 . S
N93 Zn77 2.119 . S
N93 C89 1.328 . S
N93 C92 1.334 . S
N94 C90 1.331 . S
N94 C91 1.329 . S
H95 C89 0.930 . S
C96 O76 1.257 . S
C96 O97 1.244 . S
O97 C96 1.244 . S
O98 C74 1.257 1_655 S
O98 Zn77 2.019 . S
H99 C92 0.930 . S
H100 C79 0.930 . S
H101 C91 0.930 . S
Zn102 N106 2.020 . S
Zn102 O110 2.019 . S
Zn102 N112 2.119 . S
Zn102 O120 1.975 . S
C103 N104 1.334 . S
C103 N107 1.336 . S
N104 C103 1.334 . S
N104 C105 1.334 . S
C105 N104 1.334 . S
C105 N106 1.336 . S
N106 Zn102 2.020 . S
N106 C105 1.336 . S
N106 N107 1.354 . S
N107 C103 1.336 . S
N107 N106 1.354 . S
N107 Zn111 2.020 . S
C108 O109 1.244 1_655 S
C108 O132 1.257 1_655 S
O109 C108 1.244 1_455 S
O110 Zn102 2.019 . S
O110 C130 1.257 . S
Zn111 N107 2.020 . S
Zn111 O118 1.975 . S
Zn111 N127 2.119 . S
Zn111 O132 2.019 . S
N112 Zn102 2.119 . S
N112 C114 1.334 . S
N112 C115 1.328 . S
C113 C114 1.391 . S
C113 N116 1.329 . S
C113 H134 0.930 . S
C114 N112 1.334 . S
C114 C113 1.391 . S
C114 H121 0.930 . S
C115 N112 1.328 . S
C115 C117 1.392 . S
C115 H122 0.930 . S
N116 C113 1.329 . S
N116 C117 1.331 . S
C117 C115 1.392 . S
C117 N116 1.331 . S
O118 Zn111 1.975 . S
O118 C119 1.252 . S
C119 O118 1.252 . S
C119 O120 1.252 . S
O120 Zn102 1.975 . S
O120 C119 1.252 . S
H121 C114 0.930 . S
H122 C115 0.930 . S
C123 C124 1.392 . S
C123 N127 1.328 . S
C123 H129 0.930 . S
C124 C123 1.392 . S
C124 N128 1.331 . S
C125 C126 1.391 . S
C125 N128 1.329 . S
C125 H135 0.930 . S
C126 C125 1.391 . S
C126 N127 1.334 . S
C126 H133 0.930 . S
N127 Zn111 2.119 . S
N127 C123 1.328 . S
N127 C126 1.334 . S
N128 C124 1.331 . S
N128 C125 1.329 . S
H129 C123 0.930 . S
C130 O110 1.257 . S
C130 O131 1.244 . S
O131 C130 1.244 . S
O132 C108 1.257 1_455 S
O132 Zn111 2.019 . S
H133 C126 0.930 . S
H134 C113 0.930 . S
H135 C125 0.930 . S
H136 C144 0.950 . S
H137 C149 0.950 . S
H138 C146 0.950 . S
H139 C148 0.950 . S
H140 C150 0.950 . S
H141 C152 0.950 . S
H142 C154 0.950 . S
H143 C155 0.950 . S
C144 H136 0.950 . S
C144 C145 1.386 . S
C144 C146 1.391 . S
C145 C144 1.386 . S
C145 C149 1.393 . S
C146 H138 0.950 . S
C146 C144 1.391 . S
C146 C147 1.400 . S
C147 C146 1.400 . S
C147 C148 1.398 . S
C147 C153 1.491 . S
C148 H139 0.950 . S
C148 C147 1.398 . S
C148 C149 1.391 . S
C149 H137 0.950 . S
C149 C145 1.393 . S
C149 C148 1.391 . S
C150 H140 0.950 . S
C150 C151 1.386 . S
C150 C152 1.391 . S
C151 C150 1.386 . S
C151 C155 1.393 . S
C152 H141 0.950 . S
C152 C150 1.391 . S
C152 C153 1.400 . S
C153 C147 1.491 . S
C153 C152 1.400 . S
C153 C154 1.398 . S
C154 H142 0.950 . S
C154 C153 1.398 . S
C154 C155 1.391 . S
C155 H143 0.950 . S
C155 C151 1.393 . S
C155 C154 1.391 . S
H156 C164 0.950 . S
H157 C169 0.950 . S
H158 C166 0.950 . S
H159 C168 0.950 . S
H160 C170 0.950 . S
H161 C172 0.950 . S
H162 C174 0.950 . S
H163 C175 0.950 . S
C164 H156 0.950 . S
C164 C165 1.386 . S
C164 C166 1.391 . S
C165 C164 1.386 . S
C165 C169 1.393 . S
C166 H158 0.950 . S
C166 C164 1.391 . S
C166 C167 1.400 . S
C167 C166 1.400 . S
C167 C168 1.398 . S
C167 C173 1.491 . S
C168 H159 0.950 . S
C168 C167 1.398 . S
C168 C169 1.391 . S
C169 H157 0.950 . S
C169 C165 1.393 . S
C169 C168 1.391 . S
C170 H160 0.950 . S
C170 C171 1.386 . S
C170 C172 1.391 . S
C171 C170 1.386 . S
C171 C175 1.393 . S
C172 H161 0.950 . S
C172 C170 1.391 . S
C172 C173 1.400 . S
C173 C167 1.491 . S
C173 C172 1.400 . S
C173 C174 1.398 . S
C174 H162 0.950 . S
C174 C173 1.398 . S
C174 C175 1.391 . S
C175 H163 0.950 . S
C175 C171 1.393 . S
C175 C174 1.391 . S
H176 C184 0.950 . S
H177 C189 0.950 . S
H178 C186 0.950 . S
H179 C188 0.950 . S
H180 C190 0.950 . S
H181 C192 0.950 . S
H182 C194 0.950 . S
H183 C195 0.950 . S
C184 H176 0.950 . S
C184 C185 1.386 . S
C184 C186 1.391 . S
C185 C184 1.386 . S
C185 C189 1.393 . S
C186 H178 0.950 . S
C186 C184 1.391 . S
C186 C187 1.400 . S
C187 C186 1.400 . S
C187 C188 1.398 . S
C187 C193 1.491 . S
C188 H179 0.950 . S
C188 C187 1.398 . S
C188 C189 1.391 . S
C189 H177 0.950 . S
C189 C185 1.393 . S
C189 C188 1.391 . S
C190 H180 0.950 . S
C190 C191 1.386 . S
C190 C192 1.391 . S
C191 C190 1.386 . S
C191 C195 1.393 . S
C192 H181 0.950 . S
C192 C190 1.391 . S
C192 C193 1.400 . S
C193 C187 1.491 . S
C193 C192 1.400 . S
C193 C194 1.398 . S
C194 H182 0.950 . S
C194 C193 1.398 . S
C194 C195 1.391 . S
C195 H183 0.950 . S
C195 C191 1.393 . S
C195 C194 1.391 . S
H196 C204 0.950 . S
H197 C209 0.950 . S
H198 C206 0.950 . S
H199 C208 0.950 . S
H200 C210 0.950 . S
H201 C212 0.950 . S
H202 C214 0.950 . S
H203 C215 0.950 . S
C204 H196 0.950 . S
C204 C205 1.386 . S
C204 C206 1.391 . S
C205 C204 1.386 . S
C205 C209 1.393 . S
C206 H198 0.950 . S
C206 C204 1.391 . S
C206 C207 1.400 . S
C207 C206 1.400 . S
C207 C208 1.398 . S
C207 C213 1.491 . S
C208 H199 0.950 . S
C208 C207 1.398 . S
C208 C209 1.391 . S
C209 H197 0.950 . S
C209 C205 1.393 . S
C209 C208 1.391 . S
C210 H200 0.950 . S
C210 C211 1.386 . S
C210 C212 1.391 . S
C211 C210 1.386 . S
C211 C215 1.393 . S
C212 H201 0.950 . S
C212 C210 1.391 . S
C212 C213 1.400 . S
C213 C207 1.491 . S
C213 C212 1.400 . S
C213 C214 1.398 . S
C214 H202 0.950 . S
C214 C213 1.398 . S
C214 C215 1.391 . S
C215 H203 0.950 . S
C215 C211 1.393 . S
C215 C214 1.391 . S
H216 C224 0.947 1_565 S
H217 C229 0.950 . S
H218 C226 0.950 . S
H219 C228 0.950 . S
H220 C230 0.947 1_545 S
H221 C232 0.950 . S
H222 C234 0.950 . S
H223 C235 0.950 . S
C224 H216 0.947 1_545 S
C224 C225 1.391 . S
C224 C226 1.389 1_545 S
C225 C224 1.391 . S
C225 C229 1.393 . S
C226 H218 0.950 . S
C226 C224 1.389 1_565 S
C226 C227 1.400 1_565 S
C227 C226 1.400 1_545 S
C227 C228 1.398 . S
C227 C233 1.491 1_545 S
C228 H219 0.950 . S
C228 C227 1.398 . S
C228 C229 1.391 . S
C229 H217 0.950 . S
C229 C225 1.393 . S
C229 C228 1.391 . S
C230 H220 0.947 1_565 S
C230 C231 1.390 . S
C230 C232 1.389 1_565 S
C231 C230 1.390 . S
C231 C235 1.393 . S
C232 H221 0.950 . S
C232 C230 1.389 1_545 S
C232 C233 1.400 1_545 S
C233 C227 1.491 1_565 S
C233 C232 1.400 1_565 S
C233 C234 1.398 . S
C234 H222 0.950 . S
C234 C233 1.398 . S
C234 C235 1.391 . S
C235 H223 0.950 . S
C235 C231 1.393 . S
C235 C234 1.391 . S
H236 C244 0.950 . S
H237 C249 0.950 . S
H238 C246 0.950 . S
H239 C248 0.950 . S
H240 C250 0.950 . S
H241 C252 0.950 . S
H242 C254 0.950 . S
H243 C255 0.950 . S
C244 H236 0.950 . S
C244 C245 1.386 . S
C244 C246 1.391 . S
C245 C244 1.386 . S
C245 C249 1.393 . S
C246 H238 0.950 . S
C246 C244 1.391 . S
C246 C247 1.400 . S
C247 C246 1.400 . S
C247 C248 1.398 1_556 S
C247 C253 1.491 1_556 S
C248 H239 0.950 . S
C248 C247 1.398 1_554 S
C248 C249 1.391 1_554 S
C249 H237 0.950 . S
C249 C245 1.393 . S
C249 C248 1.391 1_556 S
C250 H240 0.950 . S
C250 C251 1.386 . S
C250 C252 1.391 . S
C251 C250 1.386 . S
C251 C255 1.393 . S
C252 H241 0.950 . S
C252 C250 1.391 . S
C252 C253 1.400 . S
C253 C247 1.491 1_554 S
C253 C252 1.400 . S
C253 C254 1.398 1_554 S
C254 H242 0.950 . S
C254 C253 1.398 1_556 S
C254 C255 1.391 1_556 S
C255 H243 0.950 . S
C255 C251 1.393 . S
C255 C254 1.391 1_554 S
H256 C264 0.950 . S
H257 C269 0.950 1_554 S
H258 C266 0.950 . S
H259 C268 0.950 . S
H260 C270 0.950 . S
H261 C272 0.950 . S
H262 C274 0.950 . S
H263 C275 0.950 1_556 S
C264 H256 0.950 . S
C264 C265 1.386 . S
C264 C266 1.391 1_655 S
C265 C264 1.386 . S
C265 C269 1.393 . S
C266 H258 0.950 . S
C266 C264 1.391 1_455 S
C266 C267 1.400 1_455 S
C267 C266 1.400 1_655 S
C267 C268 1.398 1_556 S
C267 C273 1.491 1_666 S
C268 H259 0.950 . S
C268 C267 1.398 1_554 S
C268 C269 1.391 1_554 S
C269 H257 0.950 1_556 S
C269 C265 1.393 . S
C269 C268 1.391 1_556 S
C270 H260 0.950 . S
C270 C271 1.386 . S
C270 C272 1.391 1_455 S
C271 C270 1.386 . S
C271 C275 1.393 . S
C272 H261 0.950 . S
C272 C270 1.391 1_655 S
C272 C273 1.400 1_655 S
C273 C267 1.491 1_444 S
C273 C272 1.400 1_455 S
C273 C274 1.398 1_554 S
C274 H262 0.950 . S
C274 C273 1.398 1_556 S
C274 C275 1.391 1_556 S
C275 H263 0.950 1_554 S
C275 C271 1.393 . S
C275 C274 1.391 1_554 S
H276 C284 0.950 . S
H277 C289 0.950 . S
H278 C286 0.950 . S
H279 C288 0.950 . S
H280 C290 0.950 . S
H281 C292 0.950 . S
H282 C294 0.950 . S
H283 C295 0.950 . S
C284 H276 0.950 . S
C284 C285 1.386 . S
C284 C286 1.391 . S
C285 C284 1.386 . S
C285 C289 1.393 . S
C286 H278 0.950 . S
C286 C284 1.391 . S
C286 C287 1.400 . S
C287 C286 1.400 . S
C287 C288 1.398 1_455 S
C287 C293 1.491 1_455 S
C288 H279 0.950 . S
C288 C287 1.398 1_655 S
C288 C289 1.391 1_655 S
C289 H277 0.950 . S
C289 C285 1.393 . S
C289 C288 1.391 1_455 S
C290 H280 0.950 . S
C290 C291 1.386 . S
C290 C292 1.391 . S
C291 C290 1.386 . S
C291 C295 1.393 . S
C292 H281 0.950 . S
C292 C290 1.391 . S
C292 C293 1.400 . S
C293 C287 1.491 1_655 S
C293 C292 1.400 . S
C293 C294 1.398 1_655 S
C294 H282 0.950 . S
C294 C293 1.398 1_455 S
C294 C295 1.391 1_455 S
C295 H283 0.950 . S
C295 C291 1.393 . S
C295 C294 1.391 1_655 S
H296 C304 0.950 . S
H297 C309 0.950 . S
H298 C306 0.950 . S
H299 C308 0.950 . S
H300 C310 0.950 . S
H301 C312 0.950 . S
H302 C314 0.950 . S
H303 C315 0.950 . S
C304 H296 0.950 . S
C304 C305 1.386 1_554 S
C304 C306 1.391 1_554 S
C305 C304 1.386 1_556 S
C305 C309 1.392 . S
C306 H298 0.950 . S
C306 C304 1.391 1_556 S
C306 C307 1.400 . S
C307 C306 1.400 . S
C307 C308 1.398 . S
C307 C313 1.491 . S
C308 H299 0.950 . S
C308 C307 1.398 . S
C308 C309 1.391 . S
C309 H297 0.950 . S
C309 C305 1.392 . S
C309 C308 1.391 . S
C310 H300 0.950 . S
C310 C311 1.386 . S
C310 C312 1.391 . S
C311 C310 1.386 . S
C311 C315 1.393 . S
C312 H301 0.950 . S
C312 C310 1.391 . S
C312 C313 1.400 . S
C313 C307 1.491 . S
C313 C312 1.400 . S
C313 C314 1.398 . S
C314 H302 0.950 . S
C314 C313 1.398 . S
C314 C315 1.391 . S
C315 H303 0.950 . S
C315 C311 1.393 . S
C315 C314 1.391 . S
H316 C324 0.950 . S
H317 C329 0.950 . S
H318 C326 0.950 . S
H319 C328 0.950 . S
H320 C330 0.950 . S
H321 C332 0.950 . S
H322 C334 0.950 . S
H323 C335 0.950 . S
C324 H316 0.950 . S
C324 C325 1.386 . S
C324 C326 1.391 . S
C325 C324 1.386 . S
C325 C329 1.393 . S
C326 H318 0.950 . S
C326 C324 1.391 . S
C326 C327 1.400 . S
C327 C326 1.400 . S
C327 C328 1.398 . S
C327 C333 1.491 . S
C328 H319 0.950 . S
C328 C327 1.398 . S
C328 C329 1.391 . S
C329 H317 0.950 . S
C329 C325 1.393 . S
C329 C328 1.391 . S
C330 H320 0.950 . S
C330 C331 1.386 . S
C330 C332 1.391 . S
C331 C330 1.386 . S
C331 C335 1.393 . S
C332 H321 0.950 . S
C332 C330 1.391 . S
C332 C333 1.400 . S
C333 C327 1.491 . S
C333 C332 1.400 . S
C333 C334 1.398 . S
C334 H322 0.950 . S
C334 C333 1.398 . S
C334 C335 1.391 . S
C335 H323 0.950 . S
C335 C331 1.393 . S
C335 C334 1.391 . S
H336 C344 0.950 . S
H337 C349 0.950 . S
H338 C346 0.950 . S
H339 C348 0.950 . S
H340 C350 0.950 . S
H341 C352 0.950 . S
H342 C354 0.950 . S
H343 C355 0.950 . S
C344 H336 0.950 . S
C344 C345 1.386 . S
C344 C346 1.391 1_556 S
C345 C344 1.386 . S
C345 C349 1.391 1_556 S
C346 H338 0.950 . S
C346 C344 1.391 1_554 S
C346 C347 1.400 . S
C347 C346 1.400 . S
C347 C348 1.398 . S
C347 C353 1.491 . S
C348 H339 0.950 . S
C348 C347 1.398 . S
C348 C349 1.391 . S
C349 H337 0.950 . S
C349 C345 1.391 1_554 S
C349 C348 1.391 . S
C350 H340 0.950 . S
C350 C351 1.386 . S
C350 C352 1.391 . S
C351 C350 1.386 . S
C351 C355 1.393 . S
C352 H341 0.950 . S
C352 C350 1.391 . S
C352 C353 1.400 . S
C353 C347 1.491 . S
C353 C352 1.400 . S
C353 C354 1.398 . S
C354 H342 0.950 . S
C354 C353 1.398 . S
C354 C355 1.391 . S
C355 H343 0.950 . S
C355 C351 1.393 . S
C355 C354 1.391 . S
H356 C364 0.950 . S
H357 C369 0.950 . S
H358 C366 0.950 . S
H359 C368 0.950 . S
H360 C370 0.950 . S
H361 C372 0.950 . S
H362 C374 0.950 . S
H363 C375 0.950 . S
C364 H356 0.950 . S
C364 C365 1.386 . S
C364 C366 1.391 . S
C365 C364 1.386 . S
C365 C369 1.393 . S
C366 H358 0.950 . S
C366 C364 1.391 . S
C366 C367 1.400 . S
C367 C366 1.400 . S
C367 C368 1.398 . S
C367 C373 1.491 . S
C368 H359 0.950 . S
C368 C367 1.398 . S
C368 C369 1.391 . S
C369 H357 0.950 . S
C369 C365 1.393 . S
C369 C368 1.391 . S
C370 H360 0.950 . S
C370 C371 1.386 . S
C370 C372 1.391 . S
C371 C370 1.386 . S
C371 C375 1.393 . S
C372 H361 0.950 . S
C372 C370 1.391 . S
C372 C373 1.400 . S
C373 C367 1.491 . S
C373 C372 1.400 . S
C373 C374 1.398 . S
C374 H362 0.950 . S
C374 C373 1.398 . S
C374 C375 1.391 . S
C375 H363 0.950 . S
C375 C371 1.393 . S
C375 C374 1.391 . S
H376 C384 0.950 . S
H377 C389 0.962 . S
H378 C386 0.950 1_556 S
H379 C388 0.950 . S
H380 C390 0.950 . S
H381 C392 0.950 1_554 S
H382 C394 0.950 . S
H383 C395 0.962 . S
C384 H376 0.950 . S
C384 C385 1.386 . S
C384 C386 1.391 . S
C385 C384 1.386 . S
C385 C389 1.393 . S
C386 H378 0.950 1_554 S
C386 C384 1.391 . S
C386 C387 1.400 . S
C387 C386 1.400 . S
C387 C388 1.398 1_545 S
C387 C393 1.491 1_544 S
C388 H379 0.950 . S
C388 C387 1.398 1_565 S
C388 C389 1.391 1_565 S
C389 H377 0.962 . S
C389 C385 1.393 . S
C389 C388 1.391 1_545 S
C390 H380 0.950 . S
C390 C391 1.386 . S
C390 C392 1.391 . S
C391 C390 1.386 . S
C391 C395 1.393 . S
C392 H381 0.950 1_556 S
C392 C390 1.391 . S
C392 C393 1.400 . S
C393 C387 1.491 1_566 S
C393 C392 1.400 . S
C393 C394 1.398 1_565 S
C394 H382 0.950 . S
C394 C393 1.398 1_545 S
C394 C395 1.391 1_545 S
C395 H383 0.962 . S
C395 C391 1.393 . S
C395 C394 1.391 1_565 S
H396 C404 0.950 . S
H397 C409 0.950 . S
H398 C406 0.950 . S
H399 C408 0.950 . S
H400 C410 0.950 . S
H401 C412 0.950 . S
H402 C414 0.950 . S
H403 C415 0.950 . S
C404 H396 0.950 . S
C404 C405 1.386 . S
C404 C406 1.391 . S
C405 C404 1.386 . S
C405 C409 1.393 . S
C406 H398 0.950 . S
C406 C404 1.391 . S
C406 C407 1.400 . S
C407 C406 1.400 . S
C407 C408 1.398 . S
C407 C413 1.491 . S
C408 H399 0.950 . S
C408 C407 1.398 . S
C408 C409 1.391 . S
C409 H397 0.950 . S
C409 C405 1.393 . S
C409 C408 1.391 . S
C410 H400 0.950 . S
C410 C411 1.386 . S
C410 C412 1.391 . S
C411 C410 1.386 . S
C411 C415 1.393 . S
C412 H401 0.950 . S
C412 C410 1.391 . S
C412 C413 1.400 . S
C413 C407 1.491 . S
C413 C412 1.400 . S
C413 C414 1.398 . S
C414 H402 0.950 . S
C414 C413 1.398 . S
C414 C415 1.391 . S
C415 H403 0.950 . S
C415 C411 1.393 . S
C415 C414 1.391 . S
C145 C28 1.064 . S
C151 C6 1.053 . S
C165 C40 1.071 . S
C171 C62 1.071 . S
C185 C74 1.071 . S
C191 C96 1.070 . S
C205 C108 1.053 . S
C211 C130 1.064 . S
C225 C15 1.824 . S
C231 C83 1.824 . S
C245 C117 1.821 . S
C251 C56 1.821 . S
C265 C69 1.948 . S
C271 C1 1.948 . S
C285 C103 1.972 . S
C291 C37 1.972 . S
C305 C22 1.567 1_556 S
C311 C119 1.770 . S
C325 C49 1.588 . S
C331 C85 1.773 . S
C345 C90 1.605 . S
C351 C51 1.776 . S
C365 C124 1.599 . S
C371 C17 1.775 . S
C385 C3 1.497 . S
C391 C71 1.497 . S
C405 C105 1.486 . S
C411 C35 1.486 . S
