# Generated by pormake.
# Topology wjh, (4)-cn, num edge types: 1
# Building blocks:
#     Node 0, Type 0, BuildingBlock: NAHDIM_clean_sbu_0, # of connection points: 4
#     Node 1, Type 0, BuildingBlock: NAHDIM_clean_sbu_0, # of connection points: 4
#     Node 2, Type 0, BuildingBlock: NAHDIM_clean_sbu_0, # of connection points: 4
#     Node 3, Type 0, BuildingBlock: NAHDIM_clean_sbu_0, # of connection points: 4
#     Node 4, Type 0, BuildingBlock: NAHDIM_clean_sbu_0, # of connection points: 4
#     Node 5, Type 0, BuildingBlock: NAHDIM_clean_sbu_0, # of connection points: 4
#     Node 6, Type 0, BuildingBlock: NAHDIM_clean_sbu_0, # of connection points: 4
#     Node 7, Type 0, BuildingBlock: NAHDIM_clean_sbu_0, # of connection points: 4
#     Node 8, Type 0, BuildingBlock: NAHDIM_clean_sbu_0, # of connection points: 4
#     Node 9, Type 0, BuildingBlock: NAHDIM_clean_sbu_0, # of connection points: 4
#     Node 10, Type 0, BuildingBlock: NAHDIM_clean_sbu_0, # of connection points: 4
#     Node 11, Type 0, BuildingBlock: NAHDIM_clean_sbu_0, # of connection points: 4
#     Edge 12, Type (0, 0), BuildingBlock: XIVTED_clean_linker_0, # of connection points: 2
#     Edge 13, Type (0, 0), BuildingBlock: XIVTED_clean_linker_0, # of connection points: 2
#     Edge 14, Type (0, 0), BuildingBlock: XIVTED_clean_linker_0, # of connection points: 2
#     Edge 15, Type (0, 0), BuildingBlock: XIVTED_clean_linker_0, # of connection points: 2
#     Edge 16, Type (0, 0), BuildingBlock: XIVTED_clean_linker_0, # of connection points: 2
#     Edge 17, Type (0, 0), BuildingBlock: XIVTED_clean_linker_0, # of connection points: 2
#     Edge 18, Type (0, 0), BuildingBlock: XIVTED_clean_linker_0, # of connection points: 2
#     Edge 19, Type (0, 0), BuildingBlock: XIVTED_clean_linker_0, # of connection points: 2
#     Edge 20, Type (0, 0), BuildingBlock: XIVTED_clean_linker_0, # of connection points: 2
#     Edge 21, Type (0, 0), BuildingBlock: XIVTED_clean_linker_0, # of connection points: 2
#     Edge 22, Type (0, 0), BuildingBlock: XIVTED_clean_linker_0, # of connection points: 2
#     Edge 23, Type (0, 0), BuildingBlock: XIVTED_clean_linker_0, # of connection points: 2
#     Edge 24, Type (0, 0), BuildingBlock: XIVTED_clean_linker_0, # of connection points: 2
#     Edge 25, Type (0, 0), BuildingBlock: XIVTED_clean_linker_0, # of connection points: 2
#     Edge 26, Type (0, 0), BuildingBlock: XIVTED_clean_linker_0, # of connection points: 2
#     Edge 27, Type (0, 0), BuildingBlock: XIVTED_clean_linker_0, # of connection points: 2
#     Edge 28, Type (0, 0), BuildingBlock: XIVTED_clean_linker_0, # of connection points: 2
#     Edge 29, Type (0, 0), BuildingBlock: XIVTED_clean_linker_0, # of connection points: 2
#     Edge 30, Type (0, 0), BuildingBlock: XIVTED_clean_linker_0, # of connection points: 2
#     Edge 31, Type (0, 0), BuildingBlock: XIVTED_clean_linker_0, # of connection points: 2
#     Edge 32, Type (0, 0), BuildingBlock: XIVTED_clean_linker_0, # of connection points: 2
#     Edge 33, Type (0, 0), BuildingBlock: XIVTED_clean_linker_0, # of connection points: 2
#     Edge 34, Type (0, 0), BuildingBlock: XIVTED_clean_linker_0, # of connection points: 2
#     Edge 35, Type (0, 0), BuildingBlock: XIVTED_clean_linker_0, # of connection points: 2
# Relax obj value: 0.145
# Max RMSD: 0.134
# Mean RMSD: 0.134
data_MOF--net-wjh--node1-NAHDIM_clean_sbu_0--edge1-XIVTED_clean_linker_0
_symmetry_space_group_name_H-M    P1
_symmetry_Int_Tables_number       1
_symmetry_cell_setting            triclinic
loop_
_symmetry_equiv_pos_as_xyz
'x, y, z'
_cell_length_a     63.705722
_cell_length_b     63.646879
_cell_length_c     24.080557
_cell_angle_alpha  89.987581
_cell_angle_beta   90.056552
_cell_angle_gamma 120.01667
loop_
_atom_site_label
_atom_site_type_symbol
_atom_site_fract_x
_atom_site_fract_y
_atom_site_fract_z
_atom_type_partial_charge
C0 C 0.49821 0.1742 0.11768 0.0
O1 O 0.51879 0.1742 0.11405 0.0
O2 O 0.49914 0.12789 0.02687 0.0
Zn3 Zn 0.48123 0.12484 0.09801 0.0
O4 O 0.50014 0.12239 0.16223 0.0
C5 C 0.43643 0.08543 0.05278 0.0
O6 O 0.44481 0.0965 0.00506 0.0
O7 O 0.47847 0.15442 0.11046 0.0
C8 C 0.49395 0.10247 0.18689 0.0
O9 O 0.47483 0.08249 0.16948 0.0
C10 C 0.50796 0.11415 0.01828 0.0
O11 O 0.50495 0.09794 0.05594 0.0
O12 O 0.44848 0.09486 0.0968 0.0
C13 C 0.32383 0.50628 0.26539 0.0
O14 O 0.34471 0.52661 0.26747 0.0
O15 O 0.37165 0.50295 0.17201 0.0
Zn16 Zn 0.35567 0.48832 0.24545 0.0
O17 O 0.37698 0.50881 0.30771 0.0
C18 C 0.34955 0.44091 0.21697 0.0
O19 O 0.34792 0.4467 0.1654 0.0
O20 O 0.32357 0.48667 0.25395 0.0
C21 C 0.39595 0.50821 0.32122 0.0
O22 O 0.40195 0.49433 0.29299 0.0
C23 C 0.38619 0.52567 0.16813 0.0
O24 O 0.39017 0.53945 0.21195 0.0
O25 O 0.35201 0.45544 0.25581 0.0
C26 C 0.81765 0.31887 0.46063 0.0
O27 O 0.81796 0.33945 0.45271 0.0
O28 O 0.86386 0.36538 0.37386 0.0
Zn29 Zn 0.86685 0.35127 0.44643 0.0
O30 O 0.86753 0.37237 0.50942 0.0
C31 C 0.91007 0.35107 0.40775 0.0
O32 O 0.90211 0.35192 0.35793 0.0
O33 O 0.83748 0.3187 0.45823 0.0
C34 C 0.88679 0.38664 0.53572 0.0
O35 O 0.90745 0.38845 0.52067 0.0
C36 C 0.8741 0.38823 0.36724 0.0
O37 O 0.88728 0.40261 0.40777 0.0
O38 O 0.89741 0.34954 0.44986 0.0
C39 C 0.48559 0.81325 0.55811 0.0
O40 O 0.46535 0.81387 0.5623 0.0
O41 O 0.4882 0.8635 0.45853 0.0
Zn42 Zn 0.50312 0.86267 0.53199 0.0
O43 O 0.48292 0.86422 0.59383 0.0
C44 C 0.54819 0.90683 0.50363 0.0
O45 O 0.53994 0.90228 0.45245 0.0
O46 O 0.50477 0.83225 0.54271 0.0
C47 C 0.48374 0.884 0.60637 0.0
O48 O 0.49757 0.9036 0.57724 0.0
C49 C 0.46537 0.85451 0.45457 0.0
O50 O 0.45171 0.84397 0.49812 0.0
O51 O 0.53606 0.89196 0.54189 0.0
C52 C 0.66315 0.48706 0.78282 0.0
O53 O 0.64221 0.46677 0.7821 0.0
O54 O 0.61474 0.48953 0.69465 0.0
Zn55 Zn 0.63139 0.50526 0.76701 0.0
O56 O 0.61085 0.48562 0.83097 0.0
C57 C 0.63698 0.55162 0.73314 0.0
O58 O 0.63855 0.54454 0.68284 0.0
O59 O 0.66359 0.50701 0.77483 0.0
C60 C 0.58932 0.48148 0.83722 0.0
O61 O 0.58019 0.49 0.80057 0.0
C62 C 0.5999 0.46684 0.69167 0.0
O63 O 0.59582 0.45334 0.73605 0.0
O64 O 0.63479 0.53818 0.77424 0.0
C65 C 0.1593 0.6817 0.90352 0.0
O66 O 0.15964 0.67091 0.85733 0.0
O67 O 0.11741 0.62083 0.85667 0.0
Zn68 Zn 0.11663 0.63532 0.93062 0.0
O69 O 0.12099 0.61634 0.99137 0.0
C70 C 0.07362 0.63913 0.9088 0.0
O71 O 0.0846 0.64991 0.86247 0.0
O72 O 0.14258 0.67015 0.93872 0.0
C73 C 0.10806 0.59336 0.99195 0.0
O74 O 0.09238 0.58234 0.9517 0.0
C75 C 0.13211 0.61311 0.84855 0.0
O76 O 0.1476 0.61587 0.88787 0.0
O77 O 0.08409 0.63201 0.94253 0.0
C78 C 0.80881 0.48009 0.91382 0.0
O79 O 0.80938 0.45979 0.91008 0.0
O80 O 0.85871 0.48295 0.01361 0.0
Zn81 Zn 0.85819 0.4978 0.93992 0.0
O82 O 0.86028 0.47783 0.87813 0.0
C83 C 0.89924 0.54408 0.97343 0.0
O84 O 0.89166 0.53644 0.02413 0.0
O85 O 0.82784 0.49935 0.92867 0.0
C86 C 0.88014 0.47868 0.86667 0.0
O87 O 0.89947 0.49249 0.89667 0.0
C88 C 0.85088 0.4603 0.01783 0.0
O89 O 0.8415 0.4464 0.97399 0.0
O90 O 0.88729 0.53097 0.93249 0.0
C91 C 0.30422 0.83548 0.02971 0.0
O92 O 0.30371 0.84894 0.07043 0.0
O93 O 0.36966 0.86468 0.09765 0.0
Zn94 Zn 0.35659 0.86945 0.02543 0.0
O95 O 0.37886 0.87192 0.96361 0.0
C96 C 0.35161 0.9092 0.07067 0.0
O97 O 0.3484 0.89797 0.11837 0.0
O98 O 0.32428 0.8409 0.00704 0.0
C99 C 0.39248 0.89146 0.93751 0.0
O100 O 0.3929 0.91156 0.95199 0.0
C101 C 0.39215 0.87818 0.10764 0.0
O102 O 0.40573 0.89489 0.07129 0.0
O103 O 0.35469 0.89993 0.02695 0.0
C104 C 0.49608 0.32357 0.24036 0.0
O105 O 0.51663 0.34425 0.24327 0.0
O106 O 0.49597 0.37019 0.33392 0.0
Zn107 Zn 0.47907 0.35579 0.26147 0.0
O108 O 0.49897 0.37764 0.19896 0.0
C109 C 0.43424 0.35338 0.30005 0.0
O110 O 0.44242 0.35389 0.35043 0.0
O111 O 0.47635 0.32348 0.24865 0.0
C112 C 0.48872 0.37873 0.15463 0.0
O113 O 0.46504 0.36549 0.15017 0.0
C114 C 0.50686 0.39307 0.34048 0.0
O115 O 0.50635 0.40672 0.30015 0.0
O116 O 0.44645 0.35326 0.25855 0.0
C117 C 0.17616 0.50734 0.40392 0.0
O118 O 0.17605 0.52788 0.40803 0.0
O119 O 0.12999 0.50781 0.49813 0.0
Zn120 Zn 0.12722 0.49047 0.42625 0.0
O121 O 0.12534 0.5102 0.36354 0.0
C122 C 0.08505 0.44559 0.46513 0.0
O123 O 0.09331 0.45357 0.5153 0.0
O124 O 0.1566 0.48755 0.41258 0.0
C125 C 0.11851 0.50028 0.31617 0.0
O126 O 0.11271 0.47749 0.31001 0.0
C127 C 0.11562 0.51592 0.5063 0.0
O128 O 0.09919 0.51206 0.46847 0.0
O129 O 0.09689 0.45797 0.4233 0.0
C130 C 0.66342 0.17012 0.57232 0.0
O131 O 0.64295 0.17016 0.56613 0.0
O132 O 0.61407 0.11877 0.66572 0.0
Zn133 Zn 0.63011 0.12046 0.5922 0.0
O134 O 0.60928 0.12101 0.53037 0.0
C135 C 0.63175 0.07627 0.61665 0.0
O136 O 0.62988 0.08101 0.66892 0.0
O137 O 0.66276 0.1505 0.58579 0.0
C138 C 0.58982 0.10192 0.51678 0.0
O139 O 0.58314 0.08175 0.54446 0.0
C140 C 0.60105 0.12864 0.67054 0.0
O141 O 0.59871 0.14013 0.6278 0.0
O142 O 0.63295 0.09088 0.57925 0.0
C143 C 0.48958 0.6695 0.71507 0.0
O144 O 0.46933 0.6488 0.72197 0.0
O145 O 0.49022 0.62449 0.81126 0.0
Zn146 Zn 0.5075 0.63836 0.73881 0.0
O147 O 0.48794 0.61603 0.67655 0.0
C148 C 0.55174 0.64127 0.7814 0.0
O149 O 0.54248 0.64068 0.8305 0.0
O150 O 0.50966 0.67022 0.72268 0.0
C151 C 0.49396 0.60233 0.65116 0.0
O152 O 0.5135 0.60189 0.66669 0.0
C153 C 0.48007 0.60175 0.81957 0.0
O154 O 0.48154 0.5879 0.78113 0.0
O155 O 0.54042 0.64148 0.73816 0.0
H156 H 0.48525 0.06334 0.25089 0.0
H157 H 0.59829 0.14073 0.45222 0.0
H158 H 0.53434 0.14036 0.23358 0.0
H159 H 0.54859 0.064 0.4726 0.0
H160 H 0.57493 0.14084 0.37206 0.0
H161 H 0.50822 0.06307 0.33192 0.0
C162 C 0.50087 0.08019 0.26405 0.0
C163 C 0.50788 0.10191 0.2354 0.0
C164 C 0.56909 0.12397 0.39407 0.0
C165 C 0.53422 0.10173 0.32816 0.0
C166 C 0.58242 0.12389 0.43991 0.0
C167 C 0.5754 0.1023 0.46914 0.0
C168 C 0.54858 0.1023 0.37718 0.0
C169 C 0.55467 0.08106 0.45129 0.0
C170 C 0.51396 0.08002 0.31038 0.0
C171 C 0.52827 0.12319 0.25438 0.0
N172 N 0.542 0.08158 0.40638 0.0
N173 N 0.54071 0.12256 0.29956 0.0
H174 H 0.38841 0.53856 0.38782 0.0
H175 H 0.50197 0.57185 0.58549 0.0
H176 H 0.43668 0.51006 0.36444 0.0
H177 H 0.45301 0.59962 0.60767 0.0
H178 H 0.4783 0.54885 0.50481 0.0
H179 H 0.41208 0.56109 0.46852 0.0
C180 C 0.40402 0.53707 0.39959 0.0
C181 C 0.41056 0.52238 0.36933 0.0
C182 C 0.47273 0.55996 0.52741 0.0
C183 C 0.43776 0.54813 0.46193 0.0
C184 C 0.48621 0.57307 0.57352 0.0
C185 C 0.47948 0.58771 0.60335 0.0
C186 C 0.45239 0.56151 0.51103 0.0
C187 C 0.4589 0.58859 0.58592 0.0
C188 C 0.41753 0.54993 0.44577 0.0
C189 C 0.43098 0.52117 0.38655 0.0
N190 N 0.44612 0.5757 0.54089 0.0
N191 N 0.44386 0.53387 0.43178 0.0
H192 H 0.92002 0.47781 0.82697 0.0
H193 H 0.84714 0.38715 0.57746 0.0
H194 H 0.84345 0.44818 0.79735 0.0
H195 H 0.92402 0.41757 0.60379 0.0
H196 H 0.84555 0.40933 0.65837 0.0
H197 H 0.92192 0.45558 0.74613 0.0
C198 C 0.90359 0.46659 0.80358 0.0
C199 C 0.88154 0.46488 0.81891 0.0
C200 C 0.86279 0.41119 0.64646 0.0
C201 C 0.8836 0.43946 0.72634 0.0
C202 C 0.86371 0.39854 0.60018 0.0
C203 C 0.88576 0.40049 0.58382 0.0
C204 C 0.88405 0.42592 0.67673 0.0
C205 C 0.90664 0.41553 0.6149 0.0
C206 C 0.9047 0.45394 0.75738 0.0
C207 C 0.86085 0.45008 0.78704 0.0
N208 N 0.90527 0.42765 0.65993 0.0
N209 N 0.8624 0.43797 0.74228 0.0
H210 H 0.45378 0.84681 0.67504 0.0
H211 H 0.42247 0.92935 0.86976 0.0
H212 H 0.48249 0.92347 0.64793 0.0
H213 H 0.39511 0.85287 0.89614 0.0
H214 H 0.44484 0.92787 0.78878 0.0
H215 H 0.43209 0.84891 0.75616 0.0
C216 C 0.45549 0.8641 0.68607 0.0
C217 C 0.46999 0.88501 0.65464 0.0
C218 C 0.43397 0.91144 0.81238 0.0
C219 C 0.4452 0.88755 0.74775 0.0
C220 C 0.42122 0.91227 0.85866 0.0
C221 C 0.40686 0.89119 0.88972 0.0
C222 C 0.43231 0.88936 0.79708 0.0
C223 C 0.40592 0.86957 0.87341 0.0
C224 C 0.44311 0.86529 0.73251 0.0
C225 C 0.4715 0.9069 0.67096 0.0
N226 N 0.41843 0.86921 0.82819 0.0
N227 N 0.45926 0.90761 0.71646 0.0
H228 H 0.47246 0.38939 0.05944 0.0
H229 H 0.60439 0.46563 0.92593 0.0
H230 H 0.53812 0.40386 0.14423 0.0
H231 H 0.54104 0.4641 0.85702 0.0
H232 H 0.57997 0.44117 0.0039 0.0
H233 H 0.49689 0.41495 0.98252 0.0
C234 C 0.49201 0.39795 0.06191 0.0
C235 C 0.50327 0.39446 0.10829 0.0
C236 C 0.57142 0.44624 0.97182 0.0
C237 C 0.5313 0.42364 0.02035 0.0
C238 C 0.58533 0.46016 0.92719 0.0
C239 C 0.57472 0.46691 0.88486 0.0
C240 C 0.54665 0.43882 0.974 0.0
C241 C 0.54996 0.45934 0.88878 0.0
C242 C 0.50594 0.41258 0.01804 0.0
C243 C 0.52868 0.40606 0.10931 0.0
N244 N 0.53673 0.4456 0.93249 0.0
N245 N 0.54183 0.42005 0.06587 0.0
H246 H 0.13444 0.54893 0.31103 0.0
H247 H 0.08654 0.54399 0.00175 0.0
H248 H 0.09985 0.48341 0.21276 0.0
H249 H 0.13408 0.61072 0.08801 0.0
H250 H 0.08928 0.52118 0.08039 0.0
H251 H 0.13237 0.57163 0.23148 0.0
C252 C 0.12639 0.5393 0.27274 0.0
C253 C 0.1173 0.51423 0.26851 0.0
C254 C 0.09917 0.54081 0.08199 0.0
C255 C 0.11485 0.5401 0.17736 0.0
C256 C 0.09759 0.55385 0.03716 0.0
C257 C 0.11008 0.5793 0.03835 0.0
C258 C 0.11318 0.55332 0.1285 0.0
C259 C 0.12416 0.59112 0.08528 0.0
C260 C 0.12528 0.55229 0.22729 0.0
C261 C 0.10712 0.50273 0.21783 0.0
N262 N 0.12524 0.57802 0.12858 0.0
N263 N 0.1061 0.51575 0.17426 0.0
H264 H 0.45678 0.27823 0.22442 0.0
H265 H 0.53719 0.21927 0.13631 0.0
H266 H 0.53502 0.31784 0.21877 0.0
H267 H 0.45891 0.17994 0.13592 0.0
H268 H 0.53666 0.25553 0.16692 0.0
H269 H 0.4571 0.24182 0.19351 0.0
C270 C 0.47403 0.27925 0.21691 0.0
C271 C 0.49592 0.30112 0.22415 0.0
C272 C 0.51959 0.23899 0.16003 0.0
C273 C 0.4964 0.25956 0.18853 0.0
C274 C 0.51988 0.21827 0.14245 0.0
C275 C 0.49806 0.19653 0.1336 0.0
C276 C 0.49732 0.23797 0.16896 0.0
C277 C 0.47617 0.19633 0.14223 0.0
C278 C 0.47419 0.25847 0.19912 0.0
C279 C 0.51772 0.30138 0.21372 0.0
N280 N 0.47636 0.21673 0.15957 0.0
N281 N 0.51739 0.28093 0.19638 0.0
H282 H 0.2782 0.4669 0.27723 0.0
H283 H 0.22081 0.54647 0.38318 0.0
H284 H 0.31833 0.54501 0.29138 0.0
H285 H 0.18154 0.46812 0.3807 0.0
H286 H 0.2564 0.54619 0.34705 0.0
H287 H 0.24203 0.46691 0.31109 0.0
C288 C 0.27937 0.48406 0.28707 0.0
C289 C 0.30134 0.50599 0.28163 0.0
C290 C 0.24003 0.52904 0.35451 0.0
C291 C 0.2601 0.50611 0.32071 0.0
C292 C 0.21969 0.52919 0.37528 0.0
C293 C 0.19816 0.50728 0.38501 0.0
C294 C 0.23884 0.50683 0.34321 0.0
C295 C 0.19779 0.48544 0.37391 0.0
C296 C 0.25874 0.48404 0.30661 0.0
C297 C 0.30181 0.52767 0.29507 0.0
N298 N 0.21782 0.48577 0.35346 0.0
N299 N 0.28152 0.52716 0.3141 0.0
H300 H 0.70896 0.17558 0.57145 0.0
H301 H 0.77244 0.31342 0.46775 0.0
H302 H 0.6708 0.21473 0.54278 0.0
H303 H 0.81088 0.27408 0.48845 0.0
H304 H 0.73516 0.27743 0.49676 0.0
H305 H 0.74677 0.2117 0.54404 0.0
C306 C 0.70855 0.1918 0.55971 0.0
C307 C 0.68668 0.19213 0.55928 0.0
C308 C 0.75172 0.27662 0.49489 0.0
C309 C 0.72979 0.23341 0.52762 0.0
C310 C 0.77303 0.29717 0.47822 0.0
C311 C 0.79482 0.29676 0.47568 0.0
C312 C 0.75215 0.25546 0.50929 0.0
C313 C 0.79448 0.27519 0.48975 0.0
C314 C 0.73012 0.21238 0.54389 0.0
C315 C 0.68721 0.21362 0.54363 0.0
N316 N 0.77347 0.25539 0.50608 0.0
N317 N 0.7084 0.23336 0.52833 0.0
H318 H 0.52537 0.80754 0.56758 0.0
H319 H 0.44973 0.67403 0.69624 0.0
H320 H 0.44786 0.76983 0.59252 0.0
H321 H 0.52784 0.71364 0.68466 0.0
H322 H 0.4487 0.70861 0.65571 0.0
H323 H 0.52657 0.77262 0.60618 0.0
C324 C 0.50858 0.79185 0.58076 0.0
C325 C 0.48648 0.79163 0.57696 0.0
C326 C 0.46609 0.70979 0.66216 0.0
C327 C 0.48777 0.75172 0.62151 0.0
C328 C 0.46669 0.69005 0.68543 0.0
C329 C 0.48891 0.69094 0.69386 0.0
C330 C 0.48785 0.73057 0.64697 0.0
C331 C 0.51031 0.71218 0.679 0.0
C332 C 0.5093 0.77198 0.60303 0.0
C333 C 0.46532 0.77084 0.59478 0.0
N334 N 0.50924 0.73114 0.6561 0.0
N335 N 0.4665 0.75176 0.6164 0.0
H336 H 0.7085 0.52577 0.80304 0.0
H337 H 0.76502 0.44213 0.88191 0.0
H338 H 0.66839 0.44745 0.79813 0.0
H339 H 0.80306 0.51986 0.90453 0.0
H340 H 0.72996 0.44398 0.84755 0.0
H341 H 0.74416 0.52427 0.83519 0.0
C342 C 0.70724 0.50827 0.80832 0.0
C343 C 0.68541 0.48669 0.79808 0.0
C344 C 0.74594 0.46063 0.86018 0.0
C345 C 0.72605 0.48486 0.83512 0.0
C346 C 0.76597 0.45958 0.87991 0.0
C347 C 0.78701 0.48087 0.89615 0.0
C348 C 0.74696 0.48314 0.8564 0.0
C349 C 0.78719 0.50298 0.89258 0.0
C350 C 0.72756 0.50743 0.82692 0.0
C351 C 0.6848 0.46454 0.80572 0.0
N352 N 0.76749 0.50355 0.87292 0.0
N353 N 0.7048 0.4642 0.82388 0.0
H354 H 0.20113 0.70947 0.8451 0.0
H355 H 0.25837 0.81497 0.07378 0.0
H356 H 0.16324 0.70973 0.99349 0.0
H357 H 0.29888 0.80758 0.93896 0.0
H358 H 0.22182 0.77899 0.03965 0.0
H359 H 0.23558 0.74836 0.87314 0.0
C360 C 0.19996 0.71779 0.88333 0.0
C361 C 0.17936 0.70622 0.91723 0.0
C362 C 0.23873 0.78533 0.01753 0.0
C363 C 0.21876 0.75068 0.94971 0.0
C364 C 0.25957 0.80585 0.03697 0.0
C365 C 0.28174 0.81419 0.00943 0.0
C366 C 0.24009 0.7732 0.97008 0.0
C367 C 0.28223 0.80171 0.96181 0.0
C368 C 0.21967 0.73996 0.89943 0.0
C369 C 0.17884 0.71791 0.96628 0.0
N370 N 0.26175 0.78185 0.94374 0.0
N371 N 0.19831 0.73944 0.98119 0.0
H372 H 0.59817 0.10282 0.76438 0.0
H373 H 0.51538 0.14383 0.92914 0.0
H374 H 0.57428 0.15005 0.69592 0.0
H375 H 0.53199 0.09004 0.99047 0.0
H376 H 0.53846 0.1477 0.84508 0.0
H377 H 0.57571 0.09936 0.84949 0.0
C378 C 0.58827 0.11251 0.76728 0.0
C379 C 0.58809 0.12673 0.72291 0.0
C380 C 0.53704 0.13503 0.8769 0.0
C381 C 0.56235 0.12284 0.82014 0.0
C382 C 0.52387 0.13283 0.92496 0.0
C383 C 0.52172 0.11657 0.96694 0.0
C384 C 0.54826 0.12096 0.87077 0.0
C385 C 0.53312 0.10277 0.95917 0.0
C386 C 0.5754 0.11049 0.81583 0.0
C387 C 0.57491 0.13885 0.72898 0.0
N388 N 0.54593 0.10531 0.91207 0.0
N389 N 0.56259 0.13664 0.77665 0.0
H390 H 0.47552 0.6251 0.91046 0.0
H391 H 0.38606 0.50231 0.07223 0.0
H392 H 0.45314 0.55359 0.84626 0.0
H393 H 0.41604 0.57372 0.14449 0.0
H394 H 0.40873 0.52078 0.98703 0.0
H395 H 0.45221 0.60659 0.9948 0.0
C396 C 0.46572 0.60551 0.91409 0.0
C397 C 0.46631 0.59088 0.87122 0.0
C398 C 0.41033 0.5324 0.02153 0.0
C399 C 0.4395 0.56956 0.9676 0.0
C400 C 0.39734 0.52187 0.07014 0.0
C401 C 0.39917 0.53648 0.11562 0.0
C402 C 0.42519 0.55773 0.01827 0.0
C403 C 0.41411 0.56172 0.11055 0.0
C404 C 0.45242 0.59495 0.96228 0.0
C405 C 0.45325 0.56559 0.87826 0.0
N406 N 0.42652 0.57153 0.0628 0.0
N407 N 0.44035 0.55574 0.92546 0.0
H408 H 0.87246 0.48421 0.11445 0.0
H409 H 0.84908 0.36388 0.27393 0.0
H410 H 0.83543 0.41268 0.04129 0.0
H411 H 0.89087 0.436 0.34238 0.0
H412 H 0.84277 0.38129 0.18946 0.0
H413 H 0.87797 0.4667 0.19973 0.0
C414 C 0.86539 0.46481 0.11637 0.0
C415 C 0.85349 0.4499 0.07058 0.0
C416 C 0.85334 0.39331 0.22293 0.0
C417 C 0.85982 0.42974 0.16807 0.0
C418 C 0.85697 0.38338 0.27119 0.0
C419 C 0.87055 0.3985 0.31533 0.0
C420 C 0.86331 0.41855 0.21875 0.0
C421 C 0.88031 0.42364 0.3094 0.0
C422 C 0.86861 0.45483 0.16505 0.0
C423 C 0.84475 0.42489 0.07548 0.0
N424 N 0.87648 0.43287 0.26207 0.0
N425 N 0.84811 0.41561 0.1233 0.0
H426 H 0.41717 0.83458 0.43025 0.0
H427 H 0.44012 0.90112 0.13632 0.0
H428 H 0.48838 0.88014 0.36074 0.0
H429 H 0.36921 0.84747 0.19502 0.0
H430 H 0.45804 0.89489 0.21992 0.0
H431 H 0.39923 0.84008 0.3458 0.0
C432 C 0.42905 0.84569 0.39716 0.0
C433 C 0.45434 0.85693 0.40263 0.0
C434 C 0.43856 0.88446 0.2145 0.0
C435 C 0.43387 0.86341 0.30585 0.0
C436 C 0.42829 0.88805 0.16682 0.0
C437 C 0.40311 0.87479 0.1586 0.0
C438 C 0.42355 0.86757 0.25452 0.0
C439 C 0.38872 0.85807 0.19957 0.0
C440 C 0.41877 0.84881 0.34892 0.0
C441 C 0.4688 0.87109 0.35832 0.0
N442 N 0.39914 0.85497 0.24579 0.0
N443 N 0.45836 0.874 0.3119 0.0
H444 H 0.56901 0.41879 0.67019 0.0
H445 H 0.53485 0.44143 0.36463 0.0
H446 H 0.60035 0.48966 0.59455 0.0
H447 H 0.51002 0.37026 0.43399 0.0
H448 H 0.55783 0.45955 0.44963 0.0
H449 H 0.54633 0.40083 0.58494 0.0
C450 C 0.57118 0.43059 0.63561 0.0
C451 C 0.58663 0.45578 0.63956 0.0
C452 C 0.54736 0.43997 0.44625 0.0
C453 C 0.56058 0.43529 0.54173 0.0
C454 C 0.53418 0.42959 0.39776 0.0
C455 C 0.52048 0.40427 0.39214 0.0
C456 C 0.54679 0.42493 0.48959 0.0
C457 C 0.52034 0.38987 0.43645 0.0
C458 C 0.55821 0.4203 0.58689 0.0
C459 C 0.58869 0.47014 0.59334 0.0
N460 N 0.53328 0.4004 0.48329 0.0
N461 N 0.57576 0.4597 0.54639 0.0
H462 H 0.08837 0.53649 0.53509 0.0
H463 H 0.16009 0.59339 0.81907 0.0
H464 H 0.14803 0.52809 0.59212 0.0
H465 H 0.10097 0.60241 0.7607 0.0
H466 H 0.15633 0.5699 0.73571 0.0
H467 H 0.09285 0.5608 0.61734 0.0
C468 C 0.1024 0.53971 0.56495 0.0
C469 C 0.11785 0.53022 0.55665 0.0
C470 C 0.14422 0.57707 0.74105 0.0
C471 C 0.12312 0.55815 0.651 0.0
C472 C 0.14638 0.59053 0.78863 0.0
C473 C 0.1308 0.59988 0.79697 0.0
C474 C 0.12632 0.57286 0.70147 0.0
C475 C 0.11337 0.59556 0.75606 0.0
C476 C 0.10497 0.55365 0.61191 0.0
C477 C 0.1357 0.53503 0.5968 0.0
N478 N 0.11157 0.58232 0.71018 0.0
N479 N 0.13785 0.54866 0.6422 0.0
H480 H 0.41136 0.05581 0.96532 0.0
H481 H 0.3545 0.93836 0.15765 0.0
H482 H 0.41466 0.05766 0.14448 0.0
H483 H 0.35755 0.93679 0.97867 0.0
H484 H 0.36784 0.98162 0.15323 0.0
H485 H 0.38302 0.01216 0.96944 0.0
C486 C 0.40579 0.04714 0.00555 0.0
C487 C 0.41581 0.06031 0.05458 0.0
C488 C 0.36523 0.97172 0.11489 0.0
C489 C 0.38357 0.01037 0.05959 0.0
C490 C 0.35758 0.947 0.11739 0.0
C491 C 0.35541 0.93407 0.06853 0.0
C492 C 0.3708 0.98354 0.06318 0.0
C493 C 0.35941 0.94615 0.01749 0.0
C494 C 0.38965 0.02219 0.00788 0.0
C495 C 0.40774 0.04815 0.10556 0.0
N496 N 0.36724 0.97028 0.01619 0.0
N497 N 0.39239 0.0238 0.10671 0.0
H498 H 0.4087 0.36328 0.37723 0.0
H499 H 0.35376 0.4102 0.14368 0.0
H500 H 0.41265 0.35257 0.20133 0.0
H501 H 0.35304 0.42406 0.31899 0.0
H502 H 0.36691 0.38105 0.16553 0.0
H503 H 0.38007 0.37736 0.35819 0.0
C504 C 0.40322 0.36346 0.33471 0.0
C505 C 0.41351 0.35727 0.29072 0.0
C506 C 0.3635 0.39019 0.19926 0.0
C507 C 0.38096 0.37356 0.26858 0.0
C508 C 0.35594 0.40681 0.18679 0.0
C509 C 0.35283 0.41999 0.22948 0.0
C510 C 0.36807 0.38686 0.25476 0.0
C511 C 0.35568 0.41465 0.28464 0.0
C512 C 0.38691 0.37156 0.32383 0.0
C513 C 0.40554 0.35762 0.23649 0.0
N514 N 0.3635 0.39879 0.29563 0.0
N515 N 0.39005 0.36602 0.22689 0.0
H516 H 0.06331 0.42399 0.36708 0.0
H517 H 0.9327 0.35257 0.50557 0.0
H518 H 0.05074 0.41928 0.54398 0.0
H519 H 0.94513 0.36236 0.3288 0.0
H520 H 0.97606 0.36914 0.51998 0.0
H521 H 0.02074 0.39396 0.35258 0.0
C522 C 0.05167 0.41639 0.40299 0.0
C523 C 0.0605 0.42452 0.45682 0.0
C524 C 0.96927 0.36733 0.47798 0.0
C525 C 0.01165 0.39022 0.44037 0.0
C526 C 0.94448 0.35782 0.46965 0.0
C527 C 0.93531 0.35652 0.41591 0.0
C528 C 0.98504 0.37572 0.43229 0.0
C529 C 0.95142 0.36333 0.371 0.0
C530 C 0.02734 0.39923 0.39463 0.0
C531 C 0.04465 0.41378 0.50173 0.0
N532 N 0.97556 0.37299 0.38027 0.0
N533 N 0.02089 0.39743 0.49244 0.0
H534 H 0.56847 0.92259 0.60632 0.0
H535 H 0.63426 0.06079 0.51221 0.0
H536 H 0.57431 0.94618 0.43605 0.0
H537 H 0.62108 0.03713 0.6831 0.0
H538 H 0.62116 0.01931 0.4835 0.0
H539 H 0.59635 0.96439 0.634 0.0
C540 C 0.57593 0.93649 0.57455 0.0
C541 C 0.56862 0.93095 0.51887 0.0
C542 C 0.62147 0.02324 0.52735 0.0
C543 C 0.60042 0.97889 0.5505 0.0
C544 C 0.62897 0.04695 0.54384 0.0
C545 C 0.62827 0.05236 0.60012 0.0
C546 C 0.61309 0.00475 0.56734 0.0
C547 C 0.62158 0.03373 0.63921 0.0
C548 C 0.59183 0.96038 0.59047 0.0
C549 C 0.57915 0.94967 0.47953 0.0
N550 N 0.61388 0.01067 0.622 0.0
N551 N 0.59423 0.97288 0.49623 0.0
H552 H 0.63413 0.5715 0.83155 0.0
H553 H 0.57527 0.64165 0.68613 0.0
H554 H 0.63157 0.57957 0.65406 0.0
H555 H 0.57526 0.63107 0.86324 0.0
H556 H 0.60377 0.62694 0.67508 0.0
H557 H 0.62072 0.60094 0.84488 0.0
C558 C 0.63111 0.57974 0.79533 0.0
C559 C 0.63346 0.57266 0.74154 0.0
C560 C 0.59784 0.62819 0.71647 0.0
C561 C 0.61789 0.60625 0.75659 0.0
C562 C 0.58157 0.63661 0.72286 0.0
C563 C 0.57246 0.6371 0.77562 0.0
C564 C 0.60493 0.62001 0.76312 0.0
C565 C 0.58153 0.63068 0.82171 0.0
C566 C 0.62344 0.59657 0.80301 0.0
C567 C 0.62966 0.58423 0.69625 0.0
N568 N 0.59696 0.622 0.81428 0.0
N569 N 0.62166 0.60016 0.70479 0.0
H570 H 0.04215 0.64392 0.83884 0.0
H571 H 0.91953 0.5654 0.87421 0.0
H572 H 0.04733 0.61984 0.00329 0.0
H573 H 0.93432 0.57099 0.05021 0.0
H574 H 0.96177 0.59499 0.85703 0.0
H575 H -0.00116 0.62796 0.85368 0.0
C576 C 0.0342 0.63538 0.87815 0.0
C577 C 0.04825 0.63266 0.91934 0.0
C578 C 0.95579 0.59047 0.89958 0.0
C579 C -0.00139 0.61373 0.93612 0.0
C580 C 0.93157 0.57332 0.90942 0.0
C581 C 0.92345 0.56541 0.9637 0.0
C582 C 0.97205 0.59974 0.94444 0.0
C583 C 0.93983 0.57638 0.00765 0.0
C584 C 0.00938 0.62602 0.88642 0.0
C585 C 0.0371 0.62187 0.96987 0.0
N586 N 0.96346 0.59264 0.99695 0.0
N587 N 0.01292 0.61259 0.97656 0.0
loop_
_geom_bond_atom_site_label_1
_geom_bond_atom_site_label_2
_geom_bond_distance
_geom_bond_site_symmetry_2
_ccdc_geom_bond_type
C0 O1 1.160 . S
C0 O7 1.185 . S
O1 C0 1.160 . S
O2 Zn3 1.899 . S
O2 C10 1.284 . S
Zn3 O2 1.899 . S
Zn3 O4 2.032 . S
Zn3 O7 2.086 . S
Zn3 O12 1.977 . S
O4 Zn3 2.032 . S
O4 C8 1.278 . S
C5 O6 1.203 . S
C5 O12 1.267 . S
O6 C5 1.203 . S
O7 C0 1.185 . S
O7 Zn3 2.086 . S
C8 O4 1.278 . S
C8 O9 1.211 . S
O9 C8 1.211 . S
C10 O2 1.284 . S
C10 O11 1.273 . S
O11 C10 1.273 . S
O12 Zn3 1.977 . S
O12 C5 1.267 . S
C13 O14 1.160 . S
C13 O20 1.185 . S
O14 C13 1.160 . S
O15 Zn16 1.899 . S
O15 C23 1.284 . S
Zn16 O15 1.899 . S
Zn16 O17 2.032 . S
Zn16 O20 2.086 . S
Zn16 O25 1.977 . S
O17 Zn16 2.032 . S
O17 C21 1.278 . S
C18 O19 1.203 . S
C18 O25 1.267 . S
O19 C18 1.203 . S
O20 C13 1.185 . S
O20 Zn16 2.086 . S
C21 O17 1.278 . S
C21 O22 1.211 . S
O22 C21 1.211 . S
C23 O15 1.284 . S
C23 O24 1.273 . S
O24 C23 1.273 . S
O25 Zn16 1.977 . S
O25 C18 1.267 . S
C26 O27 1.160 . S
C26 O33 1.185 . S
O27 C26 1.160 . S
O28 Zn29 1.899 . S
O28 C36 1.284 . S
Zn29 O28 1.899 . S
Zn29 O30 2.032 . S
Zn29 O33 2.086 . S
Zn29 O38 1.977 . S
O30 Zn29 2.032 . S
O30 C34 1.278 . S
C31 O32 1.203 . S
C31 O38 1.267 . S
O32 C31 1.203 . S
O33 C26 1.185 . S
O33 Zn29 2.086 . S
C34 O30 1.278 . S
C34 O35 1.211 . S
O35 C34 1.211 . S
C36 O28 1.284 . S
C36 O37 1.273 . S
O37 C36 1.273 . S
O38 Zn29 1.977 . S
O38 C31 1.267 . S
C39 O40 1.160 . S
C39 O46 1.185 . S
O40 C39 1.160 . S
O41 Zn42 1.899 . S
O41 C49 1.284 . S
Zn42 O41 1.899 . S
Zn42 O43 2.032 . S
Zn42 O46 2.086 . S
Zn42 O51 1.977 . S
O43 Zn42 2.032 . S
O43 C47 1.278 . S
C44 O45 1.203 . S
C44 O51 1.267 . S
O45 C44 1.203 . S
O46 C39 1.185 . S
O46 Zn42 2.086 . S
C47 O43 1.278 . S
C47 O48 1.211 . S
O48 C47 1.211 . S
C49 O41 1.284 . S
C49 O50 1.273 . S
O50 C49 1.273 . S
O51 Zn42 1.977 . S
O51 C44 1.267 . S
C52 O53 1.160 . S
C52 O59 1.185 . S
O53 C52 1.160 . S
O54 Zn55 1.899 . S
O54 C62 1.284 . S
Zn55 O54 1.899 . S
Zn55 O56 2.032 . S
Zn55 O59 2.086 . S
Zn55 O64 1.977 . S
O56 Zn55 2.032 . S
O56 C60 1.278 . S
C57 O58 1.203 . S
C57 O64 1.267 . S
O58 C57 1.203 . S
O59 C52 1.185 . S
O59 Zn55 2.086 . S
C60 O56 1.278 . S
C60 O61 1.211 . S
O61 C60 1.211 . S
C62 O54 1.284 . S
C62 O63 1.273 . S
O63 C62 1.273 . S
O64 Zn55 1.977 . S
O64 C57 1.267 . S
C65 O66 1.160 . S
C65 O72 1.185 . S
O66 C65 1.160 . S
O67 Zn68 1.899 . S
O67 C75 1.284 . S
Zn68 O67 1.899 . S
Zn68 O69 2.032 . S
Zn68 O72 2.086 . S
Zn68 O77 1.977 . S
O69 Zn68 2.032 . S
O69 C73 1.278 1_556 S
C70 O71 1.203 . S
C70 O77 1.267 . S
O71 C70 1.203 . S
O72 C65 1.185 . S
O72 Zn68 2.086 . S
C73 O69 1.278 1_554 S
C73 O74 1.212 . S
O74 C73 1.212 . S
C75 O67 1.284 . S
C75 O76 1.273 . S
O76 C75 1.273 . S
O77 Zn68 1.977 . S
O77 C70 1.267 . S
C78 O79 1.160 . S
C78 O85 1.185 . S
O79 C78 1.160 . S
O80 Zn81 1.899 . S
O80 C88 1.284 . S
Zn81 O80 1.899 . S
Zn81 O82 2.032 . S
Zn81 O85 2.086 . S
Zn81 O90 1.977 . S
O82 Zn81 2.032 . S
O82 C86 1.278 . S
C83 O84 1.203 . S
C83 O90 1.267 . S
O84 C83 1.203 . S
O85 C78 1.185 . S
O85 Zn81 2.086 . S
C86 O82 1.278 . S
C86 O87 1.211 . S
O87 C86 1.211 . S
C88 O80 1.284 . S
C88 O89 1.273 . S
O89 C88 1.273 . S
O90 Zn81 1.977 . S
O90 C83 1.267 . S
C91 O92 1.160 . S
C91 O98 1.185 . S
O92 C91 1.160 . S
O93 Zn94 1.899 . S
O93 C101 1.284 . S
Zn94 O93 1.899 . S
Zn94 O95 2.032 . S
Zn94 O98 2.086 . S
Zn94 O103 1.977 . S
O95 Zn94 2.032 . S
O95 C99 1.278 1_554 S
C96 O97 1.203 . S
C96 O103 1.267 . S
O97 C96 1.203 . S
O98 C91 1.185 . S
O98 Zn94 2.086 . S
C99 O95 1.278 1_556 S
C99 O100 1.211 . S
O100 C99 1.211 . S
C101 O93 1.284 . S
C101 O102 1.273 . S
O102 C101 1.273 . S
O103 Zn94 1.977 . S
O103 C96 1.267 . S
C104 O105 1.160 . S
C104 O111 1.185 . S
O105 C104 1.160 . S
O106 Zn107 1.899 . S
O106 C114 1.284 . S
Zn107 O106 1.899 . S
Zn107 O108 2.032 . S
Zn107 O111 2.086 . S
Zn107 O116 1.977 . S
O108 Zn107 2.032 . S
O108 C112 1.278 . S
C109 O110 1.203 . S
C109 O116 1.267 . S
O110 C109 1.203 . S
O111 C104 1.185 . S
O111 Zn107 2.086 . S
C112 O108 1.278 . S
C112 O113 1.211 . S
O113 C112 1.211 . S
C114 O106 1.284 . S
C114 O115 1.273 . S
O115 C114 1.273 . S
O116 Zn107 1.977 . S
O116 C109 1.267 . S
C117 O118 1.160 . S
C117 O124 1.185 . S
O118 C117 1.160 . S
O119 Zn120 1.899 . S
O119 C127 1.284 . S
Zn120 O119 1.899 . S
Zn120 O121 2.032 . S
Zn120 O124 2.086 . S
Zn120 O129 1.977 . S
O121 Zn120 2.032 . S
O121 C125 1.278 . S
C122 O123 1.203 . S
C122 O129 1.267 . S
O123 C122 1.203 . S
O124 C117 1.185 . S
O124 Zn120 2.086 . S
C125 O121 1.278 . S
C125 O126 1.211 . S
O126 C125 1.211 . S
C127 O119 1.284 . S
C127 O128 1.273 . S
O128 C127 1.273 . S
O129 Zn120 1.977 . S
O129 C122 1.267 . S
C130 O131 1.160 . S
C130 O137 1.185 . S
O131 C130 1.160 . S
O132 Zn133 1.899 . S
O132 C140 1.284 . S
Zn133 O132 1.899 . S
Zn133 O134 2.032 . S
Zn133 O137 2.086 . S
Zn133 O142 1.977 . S
O134 Zn133 2.032 . S
O134 C138 1.278 . S
C135 O136 1.203 . S
C135 O142 1.267 . S
O136 C135 1.203 . S
O137 C130 1.185 . S
O137 Zn133 2.086 . S
C138 O134 1.278 . S
C138 O139 1.211 . S
O139 C138 1.211 . S
C140 O132 1.284 . S
C140 O141 1.273 . S
O141 C140 1.273 . S
O142 Zn133 1.977 . S
O142 C135 1.267 . S
C143 O144 1.160 . S
C143 O150 1.185 . S
O144 C143 1.160 . S
O145 Zn146 1.899 . S
O145 C153 1.284 . S
Zn146 O145 1.899 . S
Zn146 O147 2.032 . S
Zn146 O150 2.086 . S
Zn146 O155 1.977 . S
O147 Zn146 2.032 . S
O147 C151 1.278 . S
C148 O149 1.203 . S
C148 O155 1.267 . S
O149 C148 1.203 . S
O150 C143 1.185 . S
O150 Zn146 2.086 . S
C151 O147 1.278 . S
C151 O152 1.211 . S
O152 C151 1.211 . S
C153 O145 1.284 . S
C153 O154 1.273 . S
O154 C153 1.273 . S
O155 Zn146 1.977 . S
O155 C148 1.267 . S
H156 C162 0.930 . S
H157 C166 0.930 . S
H158 C171 0.929 . S
H159 C169 0.929 . S
H160 C164 0.929 . S
H161 C170 0.929 . S
C162 H156 0.930 . S
C162 C163 1.367 . S
C162 C170 1.378 . S
C163 C162 1.367 . S
C163 C171 1.433 . S
C164 H160 0.929 . S
C164 C166 1.378 . S
C164 C168 1.350 . S
C165 C168 1.463 . S
C165 C170 1.350 . S
C165 N173 1.427 . S
C166 H157 0.930 . S
C166 C164 1.378 . S
C166 C167 1.367 . S
C167 C166 1.367 . S
C167 C169 1.433 . S
C168 C164 1.350 . S
C168 C165 1.463 . S
C168 N172 1.427 . S
C169 H159 0.929 . S
C169 C167 1.433 . S
C169 N172 1.384 . S
C170 H161 0.929 . S
C170 C162 1.378 . S
C170 C165 1.350 . S
C171 H158 0.929 . S
C171 C163 1.433 . S
C171 N173 1.384 . S
N172 C168 1.427 . S
N172 C169 1.384 . S
N173 C165 1.427 . S
N173 C171 1.384 . S
H174 C180 0.930 . S
H175 C184 0.930 . S
H176 C189 0.929 . S
H177 C187 0.929 . S
H178 C182 0.929 . S
H179 C188 0.929 . S
C180 H174 0.930 . S
C180 C181 1.367 . S
C180 C188 1.378 . S
C181 C180 1.367 . S
C181 C189 1.433 . S
C182 H178 0.929 . S
C182 C184 1.378 . S
C182 C186 1.350 . S
C183 C186 1.463 . S
C183 C188 1.350 . S
C183 N191 1.427 . S
C184 H175 0.930 . S
C184 C182 1.378 . S
C184 C185 1.367 . S
C185 C184 1.367 . S
C185 C187 1.433 . S
C186 C182 1.350 . S
C186 C183 1.463 . S
C186 N190 1.427 . S
C187 H177 0.929 . S
C187 C185 1.433 . S
C187 N190 1.384 . S
C188 H179 0.929 . S
C188 C180 1.378 . S
C188 C183 1.350 . S
C189 H176 0.929 . S
C189 C181 1.433 . S
C189 N191 1.384 . S
N190 C186 1.427 . S
N190 C187 1.384 . S
N191 C183 1.427 . S
N191 C189 1.384 . S
H192 C198 0.930 . S
H193 C202 0.930 . S
H194 C207 0.929 . S
H195 C205 0.929 . S
H196 C200 0.929 . S
H197 C206 0.929 . S
C198 H192 0.930 . S
C198 C199 1.367 . S
C198 C206 1.378 . S
C199 C198 1.367 . S
C199 C207 1.433 . S
C200 H196 0.929 . S
C200 C202 1.378 . S
C200 C204 1.350 . S
C201 C204 1.463 . S
C201 C206 1.350 . S
C201 N209 1.427 . S
C202 H193 0.930 . S
C202 C200 1.378 . S
C202 C203 1.367 . S
C203 C202 1.367 . S
C203 C205 1.433 . S
C204 C200 1.350 . S
C204 C201 1.463 . S
C204 N208 1.427 . S
C205 H195 0.929 . S
C205 C203 1.433 . S
C205 N208 1.384 . S
C206 H197 0.929 . S
C206 C198 1.378 . S
C206 C201 1.350 . S
C207 H194 0.929 . S
C207 C199 1.433 . S
C207 N209 1.384 . S
N208 C204 1.427 . S
N208 C205 1.384 . S
N209 C201 1.427 . S
N209 C207 1.384 . S
H210 C216 0.930 . S
H211 C220 0.930 . S
H212 C225 0.929 . S
H213 C223 0.929 . S
H214 C218 0.929 . S
H215 C224 0.929 . S
C216 H210 0.930 . S
C216 C217 1.367 . S
C216 C224 1.378 . S
C217 C216 1.367 . S
C217 C225 1.433 . S
C218 H214 0.929 . S
C218 C220 1.378 . S
C218 C222 1.350 . S
C219 C222 1.463 . S
C219 C224 1.350 . S
C219 N227 1.427 . S
C220 H211 0.930 . S
C220 C218 1.378 . S
C220 C221 1.367 . S
C221 C220 1.367 . S
C221 C223 1.433 . S
C222 C218 1.350 . S
C222 C219 1.463 . S
C222 N226 1.427 . S
C223 H213 0.929 . S
C223 C221 1.433 . S
C223 N226 1.384 . S
C224 H215 0.929 . S
C224 C216 1.378 . S
C224 C219 1.350 . S
C225 H212 0.929 . S
C225 C217 1.433 . S
C225 N227 1.384 . S
N226 C222 1.427 . S
N226 C223 1.384 . S
N227 C219 1.427 . S
N227 C225 1.384 . S
H228 C234 0.930 . S
H229 C238 0.930 . S
H230 C243 0.929 . S
H231 C241 0.929 . S
H232 C236 0.929 1_554 S
H233 C242 0.929 1_556 S
C234 H228 0.930 . S
C234 C235 1.367 . S
C234 C242 1.378 . S
C235 C234 1.367 . S
C235 C243 1.433 . S
C236 H232 0.929 1_556 S
C236 C238 1.378 . S
C236 C240 1.350 . S
C237 C240 1.463 1_554 S
C237 C242 1.350 . S
C237 N245 1.427 . S
C238 H229 0.930 . S
C238 C236 1.378 . S
C238 C239 1.367 . S
C239 C238 1.367 . S
C239 C241 1.433 . S
C240 C236 1.350 . S
C240 C237 1.463 1_556 S
C240 N244 1.427 . S
C241 H231 0.929 . S
C241 C239 1.433 . S
C241 N244 1.384 . S
C242 H233 0.929 1_554 S
C242 C234 1.378 . S
C242 C237 1.350 . S
C243 H230 0.929 . S
C243 C235 1.433 . S
C243 N245 1.384 . S
N244 C240 1.427 . S
N244 C241 1.384 . S
N245 C237 1.427 . S
N245 C243 1.384 . S
H246 C252 0.930 . S
H247 C256 0.930 . S
H248 C261 0.929 . S
H249 C259 0.929 . S
H250 C254 0.929 . S
H251 C260 0.929 . S
C252 H246 0.930 . S
C252 C253 1.367 . S
C252 C260 1.378 . S
C253 C252 1.367 . S
C253 C261 1.433 . S
C254 H250 0.929 . S
C254 C256 1.378 . S
C254 C258 1.350 . S
C255 C258 1.463 . S
C255 C260 1.350 . S
C255 N263 1.427 . S
C256 H247 0.930 . S
C256 C254 1.378 . S
C256 C257 1.367 . S
C257 C256 1.367 . S
C257 C259 1.433 . S
C258 C254 1.350 . S
C258 C255 1.463 . S
C258 N262 1.427 . S
C259 H249 0.929 . S
C259 C257 1.433 . S
C259 N262 1.384 . S
C260 H251 0.929 . S
C260 C252 1.378 . S
C260 C255 1.350 . S
C261 H248 0.929 . S
C261 C253 1.433 . S
C261 N263 1.384 . S
N262 C258 1.427 . S
N262 C259 1.384 . S
N263 C255 1.427 . S
N263 C261 1.384 . S
H264 C270 0.930 . S
H265 C274 0.930 . S
H266 C279 0.929 . S
H267 C277 0.929 . S
H268 C272 0.929 . S
H269 C278 0.929 . S
C270 H264 0.930 . S
C270 C271 1.367 . S
C270 C278 1.378 . S
C271 C270 1.367 . S
C271 C279 1.433 . S
C272 H268 0.929 . S
C272 C274 1.378 . S
C272 C276 1.350 . S
C273 C276 1.463 . S
C273 C278 1.350 . S
C273 N281 1.427 . S
C274 H265 0.930 . S
C274 C272 1.378 . S
C274 C275 1.367 . S
C275 C274 1.367 . S
C275 C277 1.433 . S
C276 C272 1.350 . S
C276 C273 1.463 . S
C276 N280 1.427 . S
C277 H267 0.929 . S
C277 C275 1.433 . S
C277 N280 1.384 . S
C278 H269 0.929 . S
C278 C270 1.378 . S
C278 C273 1.350 . S
C279 H266 0.929 . S
C279 C271 1.433 . S
C279 N281 1.384 . S
N280 C276 1.427 . S
N280 C277 1.384 . S
N281 C273 1.427 . S
N281 C279 1.384 . S
H282 C288 0.930 . S
H283 C292 0.930 . S
H284 C297 0.929 . S
H285 C295 0.929 . S
H286 C290 0.929 . S
H287 C296 0.929 . S
C288 H282 0.930 . S
C288 C289 1.367 . S
C288 C296 1.378 . S
C289 C288 1.367 . S
C289 C297 1.433 . S
C290 H286 0.929 . S
C290 C292 1.378 . S
C290 C294 1.350 . S
C291 C294 1.463 . S
C291 C296 1.350 . S
C291 N299 1.427 . S
C292 H283 0.930 . S
C292 C290 1.378 . S
C292 C293 1.367 . S
C293 C292 1.367 . S
C293 C295 1.433 . S
C294 C290 1.350 . S
C294 C291 1.463 . S
C294 N298 1.427 . S
C295 H285 0.929 . S
C295 C293 1.433 . S
C295 N298 1.384 . S
C296 H287 0.929 . S
C296 C288 1.378 . S
C296 C291 1.350 . S
C297 H284 0.929 . S
C297 C289 1.433 . S
C297 N299 1.384 . S
N298 C294 1.427 . S
N298 C295 1.384 . S
N299 C291 1.427 . S
N299 C297 1.384 . S
H300 C306 0.930 . S
H301 C310 0.930 . S
H302 C315 0.929 . S
H303 C313 0.929 . S
H304 C308 0.929 . S
H305 C314 0.929 . S
C306 H300 0.930 . S
C306 C307 1.367 . S
C306 C314 1.378 . S
C307 C306 1.367 . S
C307 C315 1.433 . S
C308 H304 0.929 . S
C308 C310 1.378 . S
C308 C312 1.350 . S
C309 C312 1.463 . S
C309 C314 1.350 . S
C309 N317 1.427 . S
C310 H301 0.930 . S
C310 C308 1.378 . S
C310 C311 1.367 . S
C311 C310 1.367 . S
C311 C313 1.433 . S
C312 C308 1.350 . S
C312 C309 1.463 . S
C312 N316 1.427 . S
C313 H303 0.929 . S
C313 C311 1.433 . S
C313 N316 1.384 . S
C314 H305 0.929 . S
C314 C306 1.378 . S
C314 C309 1.350 . S
C315 H302 0.929 . S
C315 C307 1.433 . S
C315 N317 1.384 . S
N316 C312 1.427 . S
N316 C313 1.384 . S
N317 C309 1.427 . S
N317 C315 1.384 . S
H318 C324 0.930 . S
H319 C328 0.930 . S
H320 C333 0.929 . S
H321 C331 0.929 . S
H322 C326 0.929 . S
H323 C332 0.929 . S
C324 H318 0.930 . S
C324 C325 1.367 . S
C324 C332 1.378 . S
C325 C324 1.367 . S
C325 C333 1.433 . S
C326 H322 0.929 . S
C326 C328 1.378 . S
C326 C330 1.350 . S
C327 C330 1.463 . S
C327 C332 1.350 . S
C327 N335 1.427 . S
C328 H319 0.930 . S
C328 C326 1.378 . S
C328 C329 1.367 . S
C329 C328 1.367 . S
C329 C331 1.433 . S
C330 C326 1.350 . S
C330 C327 1.463 . S
C330 N334 1.427 . S
C331 H321 0.929 . S
C331 C329 1.433 . S
C331 N334 1.384 . S
C332 H323 0.929 . S
C332 C324 1.378 . S
C332 C327 1.350 . S
C333 H320 0.929 . S
C333 C325 1.433 . S
C333 N335 1.384 . S
N334 C330 1.427 . S
N334 C331 1.384 . S
N335 C327 1.427 . S
N335 C333 1.384 . S
H336 C342 0.930 . S
H337 C346 0.930 . S
H338 C351 0.929 . S
H339 C349 0.929 . S
H340 C344 0.929 . S
H341 C350 0.929 . S
C342 H336 0.930 . S
C342 C343 1.367 . S
C342 C350 1.378 . S
C343 C342 1.367 . S
C343 C351 1.433 . S
C344 H340 0.929 . S
C344 C346 1.378 . S
C344 C348 1.350 . S
C345 C348 1.463 . S
C345 C350 1.350 . S
C345 N353 1.427 . S
C346 H337 0.930 . S
C346 C344 1.378 . S
C346 C347 1.367 . S
C347 C346 1.367 . S
C347 C349 1.433 . S
C348 C344 1.350 . S
C348 C345 1.463 . S
C348 N352 1.427 . S
C349 H339 0.929 . S
C349 C347 1.433 . S
C349 N352 1.384 . S
C350 H341 0.929 . S
C350 C342 1.378 . S
C350 C345 1.350 . S
C351 H338 0.929 . S
C351 C343 1.433 . S
C351 N353 1.384 . S
N352 C348 1.427 . S
N352 C349 1.384 . S
N353 C345 1.427 . S
N353 C351 1.384 . S
H354 C360 0.930 . S
H355 C364 0.930 . S
H356 C369 0.929 . S
H357 C367 0.929 . S
H358 C362 0.929 . S
H359 C368 0.929 . S
C360 H354 0.930 . S
C360 C361 1.367 . S
C360 C368 1.378 . S
C361 C360 1.367 . S
C361 C369 1.433 1_556 S
C362 H358 0.929 . S
C362 C364 1.378 . S
C362 C366 1.350 . S
C363 C366 1.463 1_556 S
C363 C368 1.350 . S
C363 N371 1.427 1_556 S
C364 H355 0.930 . S
C364 C362 1.378 . S
C364 C365 1.367 . S
C365 C364 1.367 . S
C365 C367 1.433 1_554 S
C366 C362 1.350 . S
C366 C363 1.463 1_554 S
C366 N370 1.427 1_554 S
C367 H357 0.929 . S
C367 C365 1.433 1_556 S
C367 N370 1.384 . S
C368 H359 0.929 . S
C368 C360 1.378 . S
C368 C363 1.350 . S
C369 H356 0.929 . S
C369 C361 1.433 1_554 S
C369 N371 1.384 . S
N370 C366 1.427 1_556 S
N370 C367 1.384 . S
N371 C363 1.427 1_554 S
N371 C369 1.384 . S
H372 C378 0.930 . S
H373 C382 0.930 . S
H374 C387 0.929 . S
H375 C385 0.929 . S
H376 C380 0.929 . S
H377 C386 0.929 . S
C378 H372 0.930 . S
C378 C379 1.367 . S
C378 C386 1.378 . S
C379 C378 1.367 . S
C379 C387 1.433 . S
C380 H376 0.929 . S
C380 C382 1.378 . S
C380 C384 1.350 . S
C381 C384 1.463 . S
C381 C386 1.350 . S
C381 N389 1.427 . S
C382 H373 0.930 . S
C382 C380 1.378 . S
C382 C383 1.367 . S
C383 C382 1.367 . S
C383 C385 1.433 . S
C384 C380 1.350 . S
C384 C381 1.463 . S
C384 N388 1.427 . S
C385 H375 0.929 . S
C385 C383 1.433 . S
C385 N388 1.384 . S
C386 H377 0.929 . S
C386 C378 1.378 . S
C386 C381 1.350 . S
C387 H374 0.929 . S
C387 C379 1.433 . S
C387 N389 1.384 . S
N388 C384 1.427 . S
N388 C385 1.384 . S
N389 C381 1.427 . S
N389 C387 1.384 . S
H390 C396 0.930 . S
H391 C400 0.930 . S
H392 C405 0.929 . S
H393 C403 0.929 . S
H394 C398 0.929 . S
H395 C404 0.929 . S
C396 H390 0.930 . S
C396 C397 1.367 . S
C396 C404 1.378 . S
C397 C396 1.367 . S
C397 C405 1.433 . S
C398 H394 0.929 . S
C398 C400 1.378 . S
C398 C402 1.350 . S
C399 C402 1.463 1_556 S
C399 C404 1.350 . S
C399 N407 1.427 . S
C400 H391 0.930 . S
C400 C398 1.378 . S
C400 C401 1.367 . S
C401 C400 1.367 . S
C401 C403 1.433 . S
C402 C398 1.350 . S
C402 C399 1.463 1_554 S
C402 N406 1.427 . S
C403 H393 0.929 . S
C403 C401 1.433 . S
C403 N406 1.384 . S
C404 H395 0.929 . S
C404 C396 1.378 . S
C404 C399 1.350 . S
C405 H392 0.929 . S
C405 C397 1.433 . S
C405 N407 1.384 . S
N406 C402 1.427 . S
N406 C403 1.384 . S
N407 C399 1.427 . S
N407 C405 1.384 . S
H408 C414 0.930 . S
H409 C418 0.930 . S
H410 C423 0.929 . S
H411 C421 0.929 . S
H412 C416 0.929 . S
H413 C422 0.929 . S
C414 H408 0.930 . S
C414 C415 1.367 . S
C414 C422 1.378 . S
C415 C414 1.367 . S
C415 C423 1.433 . S
C416 H412 0.929 . S
C416 C418 1.378 . S
C416 C420 1.350 . S
C417 C420 1.463 . S
C417 C422 1.350 . S
C417 N425 1.427 . S
C418 H409 0.930 . S
C418 C416 1.378 . S
C418 C419 1.367 . S
C419 C418 1.367 . S
C419 C421 1.433 . S
C420 C416 1.350 . S
C420 C417 1.463 . S
C420 N424 1.427 . S
C421 H411 0.929 . S
C421 C419 1.433 . S
C421 N424 1.384 . S
C422 H413 0.929 . S
C422 C414 1.378 . S
C422 C417 1.350 . S
C423 H410 0.929 . S
C423 C415 1.433 . S
C423 N425 1.384 . S
N424 C420 1.427 . S
N424 C421 1.384 . S
N425 C417 1.427 . S
N425 C423 1.384 . S
H426 C432 0.930 . S
H427 C436 0.930 . S
H428 C441 0.929 . S
H429 C439 0.929 . S
H430 C434 0.929 . S
H431 C440 0.929 . S
C432 H426 0.930 . S
C432 C433 1.367 . S
C432 C440 1.378 . S
C433 C432 1.367 . S
C433 C441 1.433 . S
C434 H430 0.929 . S
C434 C436 1.378 . S
C434 C438 1.350 . S
C435 C438 1.463 . S
C435 C440 1.350 . S
C435 N443 1.427 . S
C436 H427 0.930 . S
C436 C434 1.378 . S
C436 C437 1.367 . S
C437 C436 1.367 . S
C437 C439 1.433 . S
C438 C434 1.350 . S
C438 C435 1.463 . S
C438 N442 1.427 . S
C439 H429 0.929 . S
C439 C437 1.433 . S
C439 N442 1.384 . S
C440 H431 0.929 . S
C440 C432 1.378 . S
C440 C435 1.350 . S
C441 H428 0.929 . S
C441 C433 1.433 . S
C441 N443 1.384 . S
N442 C438 1.427 . S
N442 C439 1.384 . S
N443 C435 1.427 . S
N443 C441 1.384 . S
H444 C450 0.930 . S
H445 C454 0.930 . S
H446 C459 0.929 . S
H447 C457 0.929 . S
H448 C452 0.929 . S
H449 C458 0.929 . S
C450 H444 0.930 . S
C450 C451 1.367 . S
C450 C458 1.378 . S
C451 C450 1.367 . S
C451 C459 1.433 . S
C452 H448 0.929 . S
C452 C454 1.378 . S
C452 C456 1.350 . S
C453 C456 1.463 . S
C453 C458 1.350 . S
C453 N461 1.427 . S
C454 H445 0.930 . S
C454 C452 1.378 . S
C454 C455 1.367 . S
C455 C454 1.367 . S
C455 C457 1.433 . S
C456 C452 1.350 . S
C456 C453 1.463 . S
C456 N460 1.427 . S
C457 H447 0.929 . S
C457 C455 1.433 . S
C457 N460 1.384 . S
C458 H449 0.929 . S
C458 C450 1.378 . S
C458 C453 1.350 . S
C459 H446 0.929 . S
C459 C451 1.433 . S
C459 N461 1.384 . S
N460 C456 1.427 . S
N460 C457 1.384 . S
N461 C453 1.427 . S
N461 C459 1.384 . S
H462 C468 0.930 . S
H463 C472 0.930 . S
H464 C477 0.929 . S
H465 C475 0.929 . S
H466 C470 0.929 . S
H467 C476 0.929 . S
C468 H462 0.930 . S
C468 C469 1.367 . S
C468 C476 1.378 . S
C469 C468 1.367 . S
C469 C477 1.433 . S
C470 H466 0.929 . S
C470 C472 1.378 . S
C470 C474 1.350 . S
C471 C474 1.463 . S
C471 C476 1.350 . S
C471 N479 1.427 . S
C472 H463 0.930 . S
C472 C470 1.378 . S
C472 C473 1.367 . S
C473 C472 1.367 . S
C473 C475 1.433 . S
C474 C470 1.350 . S
C474 C471 1.463 . S
C474 N478 1.427 . S
C475 H465 0.929 . S
C475 C473 1.433 . S
C475 N478 1.384 . S
C476 H467 0.929 . S
C476 C468 1.378 . S
C476 C471 1.350 . S
C477 H464 0.929 . S
C477 C469 1.433 . S
C477 N479 1.384 . S
N478 C474 1.427 . S
N478 C475 1.384 . S
N479 C471 1.427 . S
N479 C477 1.384 . S
H480 C486 0.930 . S
H481 C490 0.930 . S
H482 C495 0.929 . S
H483 C493 0.929 . S
H484 C488 0.929 . S
H485 C494 0.929 . S
C486 H480 0.930 . S
C486 C487 1.367 . S
C486 C494 1.378 . S
C487 C486 1.367 . S
C487 C495 1.433 . S
C488 H484 0.929 . S
C488 C490 1.378 . S
C488 C492 1.350 . S
C489 C492 1.463 1_545 S
C489 C494 1.350 . S
C489 N497 1.427 . S
C490 H481 0.930 . S
C490 C488 1.378 . S
C490 C491 1.367 . S
C491 C490 1.367 . S
C491 C493 1.433 . S
C492 C488 1.350 . S
C492 C489 1.463 1_565 S
C492 N496 1.427 . S
C493 H483 0.929 . S
C493 C491 1.433 . S
C493 N496 1.384 . S
C494 H485 0.929 . S
C494 C486 1.378 . S
C494 C489 1.350 . S
C495 H482 0.929 . S
C495 C487 1.433 . S
C495 N497 1.384 . S
N496 C492 1.427 . S
N496 C493 1.384 . S
N497 C489 1.427 . S
N497 C495 1.384 . S
H498 C504 0.930 . S
H499 C508 0.930 . S
H500 C513 0.929 . S
H501 C511 0.929 . S
H502 C506 0.929 . S
H503 C512 0.929 . S
C504 H498 0.930 . S
C504 C505 1.367 . S
C504 C512 1.378 . S
C505 C504 1.367 . S
C505 C513 1.433 . S
C506 H502 0.929 . S
C506 C508 1.378 . S
C506 C510 1.350 . S
C507 C510 1.463 . S
C507 C512 1.350 . S
C507 N515 1.427 . S
C508 H499 0.930 . S
C508 C506 1.378 . S
C508 C509 1.367 . S
C509 C508 1.367 . S
C509 C511 1.433 . S
C510 C506 1.350 . S
C510 C507 1.463 . S
C510 N514 1.427 . S
C511 H501 0.929 . S
C511 C509 1.433 . S
C511 N514 1.384 . S
C512 H503 0.929 . S
C512 C504 1.378 . S
C512 C507 1.350 . S
C513 H500 0.929 . S
C513 C505 1.433 . S
C513 N515 1.384 . S
N514 C510 1.427 . S
N514 C511 1.384 . S
N515 C507 1.427 . S
N515 C513 1.384 . S
H516 C522 0.930 . S
H517 C526 0.930 . S
H518 C531 0.929 . S
H519 C529 0.929 . S
H520 C524 0.929 . S
H521 C530 0.929 . S
C522 H516 0.930 . S
C522 C523 1.367 . S
C522 C530 1.378 . S
C523 C522 1.367 . S
C523 C531 1.433 . S
C524 H520 0.929 . S
C524 C526 1.378 . S
C524 C528 1.350 . S
C525 C528 1.463 1_455 S
C525 C530 1.350 . S
C525 N533 1.427 . S
C526 H517 0.930 . S
C526 C524 1.378 . S
C526 C527 1.367 . S
C527 C526 1.367 . S
C527 C529 1.433 . S
C528 C524 1.350 . S
C528 C525 1.463 1_655 S
C528 N532 1.427 . S
C529 H519 0.929 . S
C529 C527 1.433 . S
C529 N532 1.384 . S
C530 H521 0.929 . S
C530 C522 1.378 . S
C530 C525 1.350 . S
C531 H518 0.929 . S
C531 C523 1.433 . S
C531 N533 1.384 . S
N532 C528 1.427 . S
N532 C529 1.384 . S
N533 C525 1.427 . S
N533 C531 1.384 . S
H534 C540 0.930 . S
H535 C544 0.930 . S
H536 C549 0.929 . S
H537 C547 0.929 . S
H538 C542 0.929 . S
H539 C548 0.929 . S
C540 H534 0.930 . S
C540 C541 1.367 . S
C540 C548 1.378 . S
C541 C540 1.367 . S
C541 C549 1.433 . S
C542 H538 0.929 . S
C542 C544 1.378 . S
C542 C546 1.350 . S
C543 C546 1.463 1_565 S
C543 C548 1.350 . S
C543 N551 1.427 . S
C544 H535 0.930 . S
C544 C542 1.378 . S
C544 C545 1.367 . S
C545 C544 1.367 . S
C545 C547 1.433 . S
C546 C542 1.350 . S
C546 C543 1.463 1_545 S
C546 N550 1.427 . S
C547 H537 0.929 . S
C547 C545 1.433 . S
C547 N550 1.384 . S
C548 H539 0.929 . S
C548 C540 1.378 . S
C548 C543 1.350 . S
C549 H536 0.929 . S
C549 C541 1.433 . S
C549 N551 1.384 . S
N550 C546 1.427 . S
N550 C547 1.384 . S
N551 C543 1.427 . S
N551 C549 1.384 . S
H552 C558 0.930 . S
H553 C562 0.930 . S
H554 C567 0.929 . S
H555 C565 0.929 . S
H556 C560 0.929 . S
H557 C566 0.929 . S
C558 H552 0.930 . S
C558 C559 1.367 . S
C558 C566 1.378 . S
C559 C558 1.367 . S
C559 C567 1.433 . S
C560 H556 0.929 . S
C560 C562 1.378 . S
C560 C564 1.350 . S
C561 C564 1.463 . S
C561 C566 1.350 . S
C561 N569 1.427 . S
C562 H553 0.930 . S
C562 C560 1.378 . S
C562 C563 1.367 . S
C563 C562 1.367 . S
C563 C565 1.433 . S
C564 C560 1.350 . S
C564 C561 1.463 . S
C564 N568 1.427 . S
C565 H555 0.929 . S
C565 C563 1.433 . S
C565 N568 1.384 . S
C566 H557 0.929 . S
C566 C558 1.378 . S
C566 C561 1.350 . S
C567 H554 0.929 . S
C567 C559 1.433 . S
C567 N569 1.384 . S
N568 C564 1.427 . S
N568 C565 1.384 . S
N569 C561 1.427 . S
N569 C567 1.384 . S
H570 C576 0.930 . S
H571 C580 0.930 . S
H572 C585 0.929 . S
H573 C583 0.929 . S
H574 C578 0.929 . S
H575 C584 0.929 . S
C576 H570 0.930 . S
C576 C577 1.367 . S
C576 C584 1.378 . S
C577 C576 1.367 . S
C577 C585 1.433 . S
C578 H574 0.929 . S
C578 C580 1.378 . S
C578 C582 1.350 . S
C579 C582 1.463 1_455 S
C579 C584 1.350 . S
C579 N587 1.427 . S
C580 H571 0.930 . S
C580 C578 1.378 . S
C580 C581 1.367 . S
C581 C580 1.367 . S
C581 C583 1.433 . S
C582 C578 1.350 . S
C582 C579 1.463 1_655 S
C582 N586 1.427 . S
C583 H573 0.929 . S
C583 C581 1.433 . S
C583 N586 1.384 . S
C584 H575 0.929 . S
C584 C576 1.378 . S
C584 C579 1.350 . S
C585 H572 0.929 . S
C585 C577 1.433 . S
C585 N587 1.384 . S
N586 C582 1.427 . S
N586 C583 1.384 . S
N587 C579 1.427 . S
N587 C585 1.384 . S
C163 C8 1.280 . S
C167 C138 1.293 . S
C181 C21 1.294 . S
C185 C151 1.279 . S
C199 C86 1.280 . S
C203 C34 1.293 . S
C217 C47 1.293 . S
C221 C99 1.279 . S
C235 C112 1.282 . S
C239 C60 1.290 . S
C253 C125 1.291 . S
C257 C73 1.283 . S
C271 C104 1.199 . S
C275 C0 1.187 . S
C289 C13 1.198 . S
C293 C117 1.187 . S
C307 C130 1.196 . S
C311 C26 1.187 . S
C325 C39 1.198 . S
C329 C143 1.187 . S
C343 C52 1.200 . S
C347 C78 1.189 . S
C361 C65 1.190 . S
C365 C91 1.192 . S
C379 C140 1.601 . S
C383 C10 1.603 1_556 S
C397 C153 1.603 . S
C401 C23 1.600 . S
C415 C88 1.605 1_554 S
C419 C36 1.605 . S
C433 C49 1.597 . S
C437 C101 1.595 . S
C451 C62 1.595 . S
C455 C114 1.595 . S
C469 C127 1.599 . S
C473 C75 1.596 . S
C487 C5 1.147 . S
C491 C96 1.139 . S
C505 C109 1.152 . S
C509 C18 1.137 . S
C523 C122 1.155 . S
C527 C31 1.141 . S
C541 C44 1.153 . S
C545 C135 1.144 . S
C559 C57 1.150 . S
C563 C148 1.147 . S
C577 C70 1.135 . S
C581 C83 1.157 . S
