# Generated by pormake.
# Topology smu, (6)-cn, num edge types: 1
# Building blocks:
#     Node 0, Type 0, BuildingBlock: VOLQOD_clean_sbu_1, # of connection points: 6
#     Node 1, Type 0, BuildingBlock: VOLQOD_clean_sbu_1, # of connection points: 6
#     Node 2, Type 0, BuildingBlock: VOLQOD_clean_sbu_1, # of connection points: 6
#     Node 3, Type 0, BuildingBlock: VOLQOD_clean_sbu_1, # of connection points: 6
#     Node 4, Type 0, BuildingBlock: VOLQOD_clean_sbu_1, # of connection points: 6
#     Node 5, Type 0, BuildingBlock: VOLQOD_clean_sbu_1, # of connection points: 6
#     Edge 6, Type (0, 0), BuildingBlock: KIFKEQ_clean_linker_1, # of connection points: 2
#     Edge 7, Type (0, 0), BuildingBlock: KIFKEQ_clean_linker_1, # of connection points: 2
#     Edge 8, Type (0, 0), BuildingBlock: KIFKEQ_clean_linker_1, # of connection points: 2
#     Edge 9, Type (0, 0), BuildingBlock: KIFKEQ_clean_linker_1, # of connection points: 2
#     Edge 10, Type (0, 0), BuildingBlock: KIFKEQ_clean_linker_1, # of connection points: 2
#     Edge 11, Type (0, 0), BuildingBlock: KIFKEQ_clean_linker_1, # of connection points: 2
#     Edge 12, Type (0, 0), BuildingBlock: KIFKEQ_clean_linker_1, # of connection points: 2
#     Edge 13, Type (0, 0), BuildingBlock: KIFKEQ_clean_linker_1, # of connection points: 2
#     Edge 14, Type (0, 0), BuildingBlock: KIFKEQ_clean_linker_1, # of connection points: 2
#     Edge 15, Type (0, 0), BuildingBlock: KIFKEQ_clean_linker_1, # of connection points: 2
#     Edge 16, Type (0, 0), BuildingBlock: KIFKEQ_clean_linker_1, # of connection points: 2
#     Edge 17, Type (0, 0), BuildingBlock: KIFKEQ_clean_linker_1, # of connection points: 2
#     Edge 18, Type (0, 0), BuildingBlock: KIFKEQ_clean_linker_1, # of connection points: 2
#     Edge 19, Type (0, 0), BuildingBlock: KIFKEQ_clean_linker_1, # of connection points: 2
#     Edge 20, Type (0, 0), BuildingBlock: KIFKEQ_clean_linker_1, # of connection points: 2
#     Edge 21, Type (0, 0), BuildingBlock: KIFKEQ_clean_linker_1, # of connection points: 2
#     Edge 22, Type (0, 0), BuildingBlock: KIFKEQ_clean_linker_1, # of connection points: 2
#     Edge 23, Type (0, 0), BuildingBlock: KIFKEQ_clean_linker_1, # of connection points: 2
# Relax obj value: 0.300
# Max RMSD: 0.244
# Mean RMSD: 0.244
data_MOF--net-smu--node1-VOLQOD_clean_sbu_1--edge1-KIFKEQ_clean_linker_1
_symmetry_space_group_name_H-M    P1
_symmetry_Int_Tables_number       1
_symmetry_cell_setting            triclinic
loop_
_symmetry_equiv_pos_as_xyz
'x, y, z'
_cell_length_a     31.432599
_cell_length_b     31.510544
_cell_length_c     33.603991
_cell_angle_alpha  90.063111
_cell_angle_beta   90.01819
_cell_angle_gamma 119.99175
loop_
_atom_site_label
_atom_site_type_symbol
_atom_site_fract_x
_atom_site_fract_y
_atom_site_fract_z
_atom_type_partial_charge
O0 O 0.38554 0.177 0.21525 0.0
Zn1 Zn 0.32707 0.11113 0.20443 0.0
O2 O 0.31867 0.06601 0.24702 0.0
Zn3 Zn 0.32068 0.00989 0.22547 0.0
Zn4 Zn 0.36872 0.09857 0.28679 0.0
Zn5 Zn 0.25735 0.0458 0.27305 0.0
O6 O 0.258 0.94668 0.23839 0.0
O7 O 0.21078 0.97788 0.2565 0.0
O8 O 0.32854 0.08426 0.14983 0.0
O9 O 0.32107 0.01263 0.16612 0.0
O10 O 0.38434 0.01242 0.24096 0.0
O11 O 0.41914 0.07915 0.27931 0.0
O12 O 0.34261 0.0782 0.34256 0.0
O13 O 0.27349 0.12783 0.20557 0.0
O14 O 0.26246 0.0417 0.33208 0.0
O15 O 0.23159 0.09108 0.26016 0.0
C16 C 0.40598 0.19682 0.24819 0.0
C17 C 0.21622 0.94182 0.24686 0.0
C18 C 0.42031 0.04399 0.26172 0.0
C19 C 0.32453 0.04331 0.13995 0.0
C20 C 0.29872 0.05522 0.35553 0.0
C21 C 0.2408 0.12052 0.23123 0.0
O22 O 0.40014 0.1715 0.27944 0.0
O23 O 0.77558 0.59642 0.2187 0.0
Zn24 Zn 0.76558 0.6532 0.20742 0.0
O25 O 0.72829 0.66113 0.24998 0.0
Zn26 Zn 0.66822 0.65552 0.22862 0.0
Zn27 Zn 0.71515 0.61385 0.2915 0.0
Zn28 Zn 0.76694 0.72414 0.27377 0.0
O29 O 0.66476 0.71747 0.23892 0.0
O30 O 0.74354 0.76783 0.25431 0.0
O31 O 0.7358 0.64889 0.15294 0.0
O32 O 0.6689 0.6518 0.16918 0.0
O33 O 0.60962 0.59167 0.24685 0.0
O34 O 0.64512 0.56205 0.28698 0.0
O35 O 0.7246 0.64293 0.34686 0.0
O36 O 0.83498 0.70836 0.20784 0.0
O37 O 0.75793 0.72187 0.33277 0.0
O38 O 0.8382 0.75158 0.2611 0.0
C39 C 0.77577 0.57635 0.25156 0.0
C40 C 0.70115 0.76036 0.24494 0.0
C41 C 0.60742 0.55797 0.26932 0.0
C42 C 0.69696 0.64954 0.14303 0.0
C43 C 0.74096 0.68711 0.35789 0.0
C44 C 0.85935 0.74237 0.23281 0.0
O45 O 0.75688 0.58246 0.28311 0.0
O46 O 0.80147 0.19997 0.20949 0.0
Zn47 Zn 0.86824 0.20914 0.19897 0.0
O48 O 0.91291 0.24604 0.24186 0.0
Zn49 Zn 0.96714 0.30658 0.22165 0.0
Zn50 Zn 0.87821 0.25807 0.28345 0.0
Zn51 Zn 0.93771 0.20751 0.26487 0.0
O52 O 0.03269 0.31077 0.23387 0.0
O53 O 0.00457 0.23106 0.24428 0.0
O54 O 0.89527 0.23899 0.14492 0.0
O55 O 0.96458 0.30593 0.16207 0.0
O56 O 0.95989 0.36428 0.23974 0.0
O57 O 0.89483 0.3276 0.27984 0.0
O58 O 0.89803 0.2483 0.33849 0.0
O59 O 0.85304 0.13943 0.19958 0.0
O60 O 0.94544 0.21693 0.32389 0.0
O61 O 0.8932 0.1362 0.25273 0.0
C62 C 0.78085 0.1979 0.24266 0.0
C63 C 0.03948 0.27423 0.2373 0.0
C64 C 0.9279 0.36563 0.26232 0.0
C65 C 0.93501 0.27777 0.13554 0.0
C66 C 0.92682 0.23294 0.34923 0.0
C67 C 0.8624 0.11502 0.22469 0.0
O68 O 0.80557 0.21543 0.27457 0.0
O69 O 0.17079 0.3887 0.77127 0.0
Zn70 Zn 0.10505 0.32952 0.78294 0.0
O71 O 0.05819 0.31882 0.74105 0.0
Zn72 Zn 0.00441 0.32529 0.76206 0.0
Zn73 Zn 0.09186 0.3643 0.69886 0.0
Zn74 Zn 0.03303 0.25524 0.71852 0.0
O75 O 0.93851 0.2638 0.75159 0.0
O76 O 0.96665 0.21241 0.7399 0.0
O77 O 0.07899 0.33219 0.8376 0.0
O78 O 0.00876 0.32855 0.82148 0.0
O79 O 0.01134 0.38972 0.74377 0.0
O80 O 0.07645 0.41803 0.70364 0.0
O81 O 0.06971 0.33426 0.64438 0.0
O82 O 0.12155 0.27588 0.78173 0.0
O83 O 0.02405 0.25558 0.6594 0.0
O84 O 0.07767 0.22885 0.73117 0.0
C85 C 0.19055 0.40316 0.73714 0.0
C86 C 0.93183 0.22056 0.74789 0.0
C87 C 0.04348 0.4231 0.72141 0.0
C88 C 0.03915 0.3308 0.84758 0.0
C89 C 0.04134 0.28998 0.63393 0.0
C90 C 0.11028 0.2403 0.75802 0.0
O91 O 0.16466 0.39232 0.70554 0.0
O92 O 0.20089 0.80427 0.77656 0.0
Zn93 Zn 0.20759 0.86979 0.78738 0.0
O94 O 0.24428 0.9151 0.74482 0.0
Zn95 Zn 0.30216 0.97156 0.76657 0.0
Zn96 Zn 0.26265 0.88314 0.70517 0.0
Zn97 Zn 0.20271 0.93462 0.71857 0.0
O98 O 0.30234 0.03442 0.7533 0.0
O99 O 0.22406 0.00279 0.73436 0.0
O100 O 0.23572 0.89677 0.84205 0.0
O101 O 0.29945 0.96886 0.82588 0.0
O102 O 0.36381 0.96979 0.75155 0.0
O103 O 0.33279 0.90349 0.71279 0.0
O104 O 0.25652 0.90298 0.64929 0.0
O105 O 0.13704 0.85242 0.78615 0.0
O106 O 0.21149 0.93797 0.65951 0.0
O107 O 0.13161 0.88921 0.73171 0.0
C108 C 0.20232 0.78471 0.74373 0.0
C109 C 0.26546 0.03904 0.74416 0.0
C110 C 0.36881 0.93872 0.73068 0.0
C111 C 0.27235 0.93798 0.852 0.0
C112 C 0.23475 0.92502 0.63617 0.0
C113 C 0.11148 0.85965 0.7606 0.0
O114 O 0.22197 0.81018 0.71258 0.0
O115 O 0.59421 0.78324 0.7817 0.0
Zn116 Zn 0.65096 0.77262 0.7924 0.0
O117 O 0.65865 0.73607 0.7494 0.0
Zn118 Zn 0.65073 0.67446 0.76855 0.0
Zn119 Zn 0.61337 0.72648 0.70752 0.0
Zn120 Zn 0.72237 0.77415 0.72709 0.0
O121 O 0.71258 0.67054 0.75727 0.0
O122 O 0.76487 0.75065 0.74942 0.0
O123 O 0.64662 0.74129 0.84595 0.0
O124 O 0.64698 0.67352 0.82825 0.0
O125 O 0.58581 0.61757 0.74826 0.0
O126 O 0.55941 0.65775 0.71038 0.0
O127 O 0.64347 0.7356 0.65282 0.0
O128 O 0.70638 0.84192 0.79264 0.0
O129 O 0.72164 0.76373 0.66813 0.0
O130 O 0.74889 0.84554 0.73877 0.0
C131 C 0.57691 0.78684 0.74835 0.0
C132 C 0.75618 0.70723 0.75569 0.0
C133 C 0.55303 0.61833 0.72621 0.0
C134 C 0.64604 0.70169 0.855 0.0
C135 C 0.68735 0.7489 0.6425 0.0
C136 C 0.73971 0.86652 0.76722 0.0
O137 O 0.58472 0.77017 0.71627 0.0
H138 H 0.34455 0.02457 0.88254 0.0
H139 H 0.22338 0.88381 0.91778 0.0
H140 H 0.35925 0.05029 0.95178 0.0
H141 H 0.23805 0.91005 0.98731 0.0
H142 H 0.31104 0.95709 0.10948 0.0
H143 H 0.30021 0.93133 0.04025 0.0
H144 H 0.31783 0.07087 0.00463 0.0
H145 H 0.3292 0.09714 0.07413 0.0
C146 C 0.32108 -0.00105 0.90503 0.0
C147 C 0.28265 0.95204 0.89452 0.0
C148 C 0.32939 0.01395 0.94473 0.0
C149 C 0.29966 0.98236 0.97495 0.0
C150 C 0.26183 0.93509 0.96465 0.0
C151 C 0.25333 0.9201 0.92482 0.0
C152 C 0.31293 0.98255 0.08697 0.0
C153 C 0.32096 0.02927 0.09745 0.0
C154 C 0.30635 0.96753 0.04728 0.0
C155 C 0.30786 -0.00109 0.01703 0.0
C156 C 0.31684 0.046 0.02731 0.0
C157 C 0.32323 0.061 0.06712 0.0
H158 H 0.63597 0.74699 0.57615 0.0
H159 H 0.7625 0.73785 0.61419 0.0
H160 H 0.65173 0.73372 0.50713 0.0
H161 H 0.77732 0.72345 0.54535 0.0
H162 H 0.7334 0.63254 0.42381 0.0
H163 H 0.72288 0.65005 0.49312 0.0
H164 H 0.72712 0.78315 0.45607 0.0
H165 H 0.73874 0.76656 0.38712 0.0
C166 C 0.66716 0.74232 0.56976 0.0
C167 C 0.6981 0.74366 0.60052 0.0
C168 C 0.67618 0.73481 0.53036 0.0
C169 C 0.71559 0.72741 0.52117 0.0
C170 C 0.74657 0.72882 0.55182 0.0
C171 C 0.73824 0.7374 0.59109 0.0
C172 C 0.73248 0.6657 0.43054 0.0
C173 C 0.73704 0.69822 0.40006 0.0
C174 C 0.7266 0.67574 0.47011 0.0
C175 C 0.72406 0.71783 0.47968 0.0
C176 C 0.72875 0.75036 0.44931 0.0
C177 C 0.73569 0.74093 0.40995 0.0
H178 H 0.02156 0.35105 0.10569 0.0
H179 H 0.88098 0.23002 0.0693 0.0
H180 H 0.04739 0.36696 0.03644 0.0
H181 H 0.90723 0.24599 -0.00011 0.0
H182 H 0.95373 0.31951 0.87838 0.0
H183 H 0.9285 0.30939 0.94773 0.0
H184 H 0.06791 0.32535 0.9829 0.0
H185 H 0.09361 0.33584 0.91327 0.0
C186 C -0.00403 0.32797 0.08295 0.0
C187 C 0.94911 0.28915 0.09313 0.0
C188 C 0.01102 0.33696 0.04327 0.0
C189 C 0.97947 0.30762 0.01277 0.0
C190 C 0.93223 0.26949 0.02277 0.0
C191 C 0.91725 0.26023 0.06254 0.0
C192 C 0.97931 0.32127 0.90082 0.0
C193 C 0.02575 0.32839 0.89016 0.0
C194 C 0.9646 0.31511 0.94057 0.0
C195 C -0.00395 0.31623 0.97071 0.0
C196 C 0.04299 0.32463 0.9603 0.0
C197 C 0.05765 0.3305 0.92041 0.0
H198 H 0.21021 0.00922 0.39375 0.0
H199 H 0.36534 0.06484 0.41259 0.0
H200 H 0.19314 0.97562 0.46077 0.0
H201 H 0.3481 0.03169 0.47999 0.0
H202 H 0.29288 0.91704 0.57928 0.0
H203 H 0.30805 0.94987 0.51177 0.0
H204 H 0.20583 0.00182 0.53048 0.0
H205 H 0.19005 0.96853 0.59759 0.0
C206 C 0.24078 0.01483 0.41233 0.0
C207 C 0.28918 0.0397 0.39772 0.0
C208 C 0.23094 -0.0044 0.45079 0.0
C209 C 0.26922 0.00065 0.47554 0.0
C210 C 0.31775 0.02652 0.46135 0.0
C211 C 0.32765 0.04596 0.42288 0.0
C212 C 0.27318 0.93492 0.56885 0.0
C213 C 0.24027 0.94016 0.5939 0.0
C214 C 0.28228 0.95418 0.53032 0.0
C215 C 0.25848 0.97883 0.51596 0.0
C216 C 0.22453 0.98279 0.54059 0.0
C217 C 0.21558 0.96374 0.57911 0.0
H218 H 0.6583 0.62774 0.88468 0.0
H219 H 0.63882 0.74854 0.92132 0.0
H220 H 0.66761 0.61131 0.95399 0.0
H221 H 0.64843 0.73205 0.99071 0.0
H222 H 0.62194 0.65936 0.11221 0.0
H223 H 0.60615 0.66846 0.0428 0.0
H224 H 0.73003 0.65332 0.00762 0.0
H225 H 0.74594 0.6439 0.07732 0.0
C226 C 0.6556 0.65059 0.90748 0.0
C227 C 0.64786 0.68957 0.89737 0.0
C228 C 0.6613 0.64132 0.94719 0.0
C229 C 0.65899 0.6705 0.97774 0.0
C230 C 0.65001 0.70867 0.96779 0.0
C231 C 0.64467 0.71823 0.92803 0.0
C232 C 0.64569 0.65754 0.08977 0.0
C233 C 0.6854 0.65107 0.10044 0.0
C234 C 0.63674 0.66308 0.04997 0.0
C235 C 0.66702 0.66195 0.01981 0.0
C236 C 0.70585 0.65403 0.03024 0.0
C237 C 0.71506 0.6488 0.07017 0.0
H238 H 0.878 0.23744 0.41516 0.0
H239 H 0.01021 0.23832 0.37839 0.0
H240 H 0.90592 0.24848 0.48452 0.0
H241 H 0.03831 0.25051 0.44745 0.0
H242 H 0.08918 0.34268 0.56779 0.0
H243 H 0.06051 0.32562 0.49869 0.0
H244 H 0.92836 0.19593 0.53651 0.0
H245 H 0.95733 0.21208 0.60545 0.0
C246 C 0.91283 0.2398 0.4219 0.0
C247 C 0.94184 0.2369 0.39139 0.0
C248 C 0.92867 0.24597 0.46148 0.0
C249 C 0.97425 0.25046 0.47105 0.0
C250 C 0.00313 0.24733 0.44067 0.0
C251 C 0.98685 0.24008 0.40126 0.0
C252 C 0.05423 0.31033 0.56129 0.0
C253 C 0.02558 0.27864 0.59196 0.0
C254 C 0.03794 0.30056 0.52185 0.0
C255 C -0.00775 0.25959 0.51254 0.0
C256 C 0.96362 0.22785 0.54309 0.0
C257 C 0.98038 0.23697 0.58241 0.0
H258 H 0.47998 0.05691 0.32414 0.0
H259 H 0.46821 0.03884 0.19668 0.0
H260 H 0.56772 0.08595 0.3204 0.0
H261 H 0.55638 0.07108 0.19219 0.0
H262 H 0.71817 0.1218 0.19563 0.0
H263 H 0.6295 0.07096 0.2026 0.0
H264 H 0.63333 0.16116 0.30133 0.0
H265 H 0.72218 0.2099 0.29564 0.0
C266 C 0.49618 0.05797 0.29543 0.0
C267 C 0.46776 0.04578 0.26071 0.0
C268 C 0.54652 0.07544 0.29311 0.0
C269 C 0.56957 0.08255 0.25587 0.0
C270 C 0.54011 0.0661 0.22142 0.0
C271 C 0.48945 0.04739 0.2239 0.0
C272 C 0.69986 0.1308 0.21867 0.0
C273 C 0.72687 0.16999 0.24494 0.0
C274 C 0.64902 0.10158 0.22274 0.0
C275 C 0.62402 0.11151 0.25273 0.0
C276 C 0.65127 0.15133 0.2786 0.0
C277 C 0.70218 0.17985 0.27503 0.0
H278 H 0.54969 0.50917 0.20639 0.0
H279 H 0.56815 0.49661 0.33222 0.0
H280 H 0.49604 0.42098 0.20191 0.0
H281 H 0.51169 0.40859 0.32868 0.0
H282 H 0.4805 0.25508 0.29875 0.0
H283 H 0.52009 0.34366 0.30584 0.0
H284 H 0.42517 0.34748 0.21427 0.0
H285 H 0.38807 0.2594 0.20564 0.0
C286 C 0.54024 0.48767 0.23345 0.0
C287 C 0.56314 0.50935 0.26957 0.0
C288 C 0.50956 0.43695 0.23095 0.0
C289 C 0.50048 0.40725 0.26478 0.0
C290 C 0.51931 0.42999 0.30174 0.0
C291 C 0.55093 0.48049 0.30399 0.0
C292 C 0.46857 0.27509 0.27996 0.0
C293 C 0.43186 0.25061 0.2513 0.0
C294 C 0.49065 0.32581 0.28437 0.0
C295 C 0.47557 0.35299 0.26089 0.0
C296 C 0.43837 0.32811 0.23245 0.0
C297 C 0.41713 0.27757 0.22744 0.0
H298 H 0.9353 0.42439 0.2007 0.0
H299 H 0.90645 0.40341 0.3267 0.0
H300 H 0.90245 0.47974 0.19893 0.0
H301 H 0.87671 0.46148 0.32593 0.0
H302 H 0.75872 0.50112 0.30131 0.0
H303 H 0.80482 0.4581 0.30565 0.0
H304 H 0.90312 0.55162 0.2135 0.0
H305 H 0.85484 0.59214 0.2076 0.0
C306 C 0.92398 0.43349 0.22836 0.0
C307 C 0.9231 0.40964 0.26378 0.0
C308 C 0.90495 0.46519 0.22744 0.0
C309 C 0.88567 0.47435 0.26217 0.0
C310 C 0.88948 0.45398 0.29832 0.0
C311 C 0.90731 0.42138 0.29899 0.0
C312 C 0.79001 0.51211 0.28188 0.0
C313 C 0.8028 0.54939 0.2538 0.0
C314 C 0.81699 0.48798 0.28467 0.0
C315 C 0.85819 0.50149 0.26011 0.0
C316 C 0.87125 0.53947 0.23242 0.0
C317 C 0.84356 0.56277 0.22902 0.0
H318 H 0.03405 0.47181 0.78412 0.0
H319 H 0.06861 0.4855 0.65891 0.0
H320 H 0.06885 0.55997 0.78897 0.0
H321 H 0.10046 0.57352 0.66276 0.0
H322 H 0.22089 0.7274 0.69409 0.0
H323 H 0.17291 0.63876 0.68673 0.0
H324 H 0.07118 0.63311 0.77624 0.0
H325 H 0.12116 0.72124 0.78521 0.0
C326 C 0.04704 0.49358 0.75725 0.0
C327 C 0.04906 0.47219 0.72123 0.0
C328 C 0.0672 0.54427 0.75996 0.0
C329 C 0.08876 0.57427 0.72643 0.0
C330 C 0.08591 0.55188 0.68951 0.0
C331 C 0.06691 0.50139 0.68707 0.0
C332 C 0.18852 0.70696 0.71238 0.0
C333 C 0.17511 0.73094 0.74056 0.0
C334 C 0.16048 0.65621 0.70781 0.0
C335 C 0.11766 0.62851 0.73061 0.0
C336 C 0.10421 0.65289 0.7586 0.0
C337 C 0.13292 0.70345 0.76381 0.0
H338 H 0.42092 0.94264 0.79601 0.0
H339 H 0.41725 0.92842 0.66826 0.0
H340 H 0.47756 0.91131 0.80021 0.0
H341 H 0.4767 0.90039 0.67176 0.0
H342 H 0.50772 0.77657 0.69452 0.0
H343 H 0.46748 0.82507 0.68935 0.0
H344 H 0.5513 0.91229 0.7903 0.0
H345 H 0.58928 0.86156 0.79668 0.0
C346 C 0.43435 0.93516 0.76871 0.0
C347 C 0.4148 0.93757 0.73185 0.0
C348 C 0.46672 0.91698 0.77102 0.0
C349 C 0.4807 0.90187 0.73635 0.0
C350 C 0.46529 0.90985 0.69917 0.0
C351 C 0.43198 0.92675 0.69701 0.0
C352 C 0.51723 0.80594 0.71569 0.0
C353 C 0.55108 0.81495 0.74623 0.0
C354 C 0.49476 0.83434 0.71245 0.0
C355 C 0.50652 0.87323 0.73912 0.0
C356 C 0.54082 0.88238 0.76953 0.0
C357 C 0.56253 0.85325 0.77326 0.0
H358 H 0.24533 0.41939 0.67 0.0
H359 H 0.25823 0.44511 0.79695 0.0
H360 H 0.33425 0.4598 0.6646 0.0
H361 H 0.34738 0.48725 0.79133 0.0
H362 H 0.50684 0.53987 0.77686 0.0
H363 H 0.41888 0.47981 0.7777 0.0
H364 H 0.4002 0.54124 0.66855 0.0
H365 H 0.48737 0.59941 0.66709 0.0
C366 C 0.26716 0.43412 0.69673 0.0
C367 C 0.2447 0.42961 0.73384 0.0
C368 C 0.31819 0.45717 0.69364 0.0
C369 C 0.34805 0.47682 0.72751 0.0
C370 C 0.32553 0.47177 0.76472 0.0
C371 C 0.27441 0.44821 0.76788 0.0
C372 C 0.48407 0.53928 0.75242 0.0
C373 C 0.5038 0.57466 0.72219 0.0
C374 C 0.43363 0.50539 0.75316 0.0
C375 C 0.40232 0.50631 0.72359 0.0
C376 C 0.42304 0.53917 0.69172 0.0
C377 C 0.47314 0.57281 0.69099 0.0
H378 H 0.25504 0.19059 0.17628 0.0
H379 H 0.17394 0.12021 0.28326 0.0
H380 H 0.22076 0.24505 0.17695 0.0
H381 H 0.13943 0.17409 0.28349 0.0
H382 H 0.08024 0.2657 0.16964 0.0
H383 H 0.13888 0.23645 0.16689 0.0
H384 H 0.1633 0.2606 0.29351 0.0
H385 H 0.10368 0.2888 0.29603 0.0
C386 C 0.22968 0.18647 0.19978 0.0
C387 C 0.21704 0.15083 0.22966 0.0
C388 C 0.21032 0.21787 0.20022 0.0
C389 C 0.17815 0.21443 0.23062 0.0
C390 C 0.1652 0.17854 0.26024 0.0
C391 C 0.1844 0.14711 0.25977 0.0
C392 C 0.10032 0.26729 0.19636 0.0
C393 C 0.08817 0.27982 0.23295 0.0
C394 C 0.13358 0.25019 0.19491 0.0
C395 C 0.1547 0.24514 0.23018 0.0
C396 C 0.14674 0.26321 0.26601 0.0
C397 C 0.1134 0.28017 0.26741 0.0
H398 H 0.92392 0.81734 0.28022 0.0
H399 H 0.91731 0.72334 0.18361 0.0
H400 H 0.01245 0.85291 0.28323 0.0
H401 H 0.00625 0.75867 0.1872 0.0
H402 H 0.16036 0.88653 0.30743 0.0
H403 H 0.07236 0.82872 0.30284 0.0
H404 H 0.08174 0.83804 0.17452 0.0
H405 H 0.17017 0.89462 0.17945 0.0
C406 C 0.94133 0.80433 0.25955 0.0
C407 C 0.91351 0.76751 0.23172 0.0
C408 C -0.00798 0.82422 0.26164 0.0
C409 C 0.01609 0.80769 0.23605 0.0
C410 C -0.01141 0.77186 0.20743 0.0
C411 C 0.93772 0.75188 0.2053 0.0
C412 C 0.14386 0.87399 0.27833 0.0
C413 C 0.1715 0.89434 0.24378 0.0
C414 C 0.09351 0.84167 0.27564 0.0
C415 C 0.07009 0.83013 0.23835 0.0
C416 C 0.09881 0.84632 0.20364 0.0
C417 C 0.14941 0.87836 0.20639 0.0
H418 H 0.78771 0.05715 0.17339 0.0
H419 H 0.868 0.05051 0.27551 0.0
H420 H 0.73225 0.96875 0.17759 0.0
H421 H 0.8131 0.96257 0.27925 0.0
H422 H 0.69557 0.81653 0.30261 0.0
H423 H 0.72675 0.90435 0.29598 0.0
H424 H 0.73593 0.89217 0.16856 0.0
H425 H 0.70342 0.80406 0.17545 0.0
C426 C 0.79388 0.03686 0.19647 0.0
C427 C 0.83236 0.06095 0.22416 0.0
C428 C 0.76191 0.9863 0.19894 0.0
C429 C 0.76765 0.95898 0.22925 0.0
C430 C 0.80683 0.98289 0.25625 0.0
C431 C 0.83879 0.03325 0.25375 0.0
C432 C 0.70156 0.83232 0.27309 0.0
C433 C 0.6968 0.80394 0.23949 0.0
C434 C 0.72023 0.88261 0.26929 0.0
C435 C 0.73511 0.90521 0.23187 0.0
C436 C 0.72484 0.87577 0.19776 0.0
C437 C 0.7058 0.8253 0.20161 0.0
H438 H 0.09734 0.16314 0.71241 0.0
H439 H 0.18991 0.2617 0.80495 0.0
H440 H 0.14972 0.12709 0.70908 0.0
H441 H 0.24293 0.22574 0.80104 0.0
H442 H 0.26225 0.09193 0.68286 0.0
H443 H 0.23304 0.15042 0.68712 0.0
H444 H 0.23863 0.14621 0.81549 0.0
H445 H 0.26953 0.08887 0.81085 0.0
C446 C 0.12879 0.17708 0.73211 0.0
C447 C 0.13941 0.21533 0.75888 0.0
C448 C 0.15924 0.15687 0.72982 0.0
C449 C 0.20109 0.17445 0.75417 0.0
C450 C 0.21109 0.21175 0.78177 0.0
C451 C 0.18057 0.2321 0.78406 0.0
C452 C 0.25966 0.10566 0.71182 0.0
C453 C 0.26822 0.08653 0.74652 0.0
C454 C 0.24225 0.13842 0.71434 0.0
C455 C 0.23222 0.15162 0.75165 0.0
C456 C 0.24599 0.13661 0.78636 0.0
C457 C 0.26398 0.10412 0.78376 0.0
H458 H 0.04464 0.85788 0.70768 0.0
H459 H 0.05574 0.79149 0.81688 0.0
H460 H 0.95608 0.80416 0.7081 0.0
H461 H 0.96682 0.73725 0.81692 0.0
H462 H 0.80462 0.68924 0.69803 0.0
H463 H 0.89247 0.71711 0.70037 0.0
H464 H 0.8942 0.74744 0.82599 0.0
H465 H 0.80637 0.71876 0.82343 0.0
C466 C 0.02825 0.83189 0.7318 0.0
C467 C 0.05733 0.82927 0.76235 0.0
C468 C 0.97751 0.80053 0.73171 0.0
C469 C 0.95461 0.76587 0.7622 0.0
C470 C 0.98352 0.76347 0.79298 0.0
C471 C 0.0344 0.79475 0.79301 0.0
C472 C 0.82338 0.69916 0.72649 0.0
C473 C 0.79909 0.70143 0.76066 0.0
C474 C 0.87372 0.71593 0.72775 0.0
C475 C 0.90033 0.73556 0.76316 0.0
C476 C 0.87471 0.73246 0.7983 0.0
C477 C 0.82437 0.71567 0.79698 0.0
H478 H 0.86741 0.16556 0.69108 0.0
H479 H 0.89266 0.17653 0.81767 0.0
H480 H 0.81076 0.07764 0.69755 0.0
H481 H 0.83702 0.08845 0.82437 0.0
H482 H 0.8074 0.93151 0.71504 0.0
H483 H 0.83963 0.01936 0.7118 0.0
H484 H 0.75649 0.012 0.81648 0.0
H485 H 0.72443 0.92378 0.82017 0.0
C486 C 0.85861 0.14946 0.72054 0.0
C487 C 0.88367 0.17741 0.75395 0.0
C488 C 0.82701 0.09911 0.72421 0.0
C489 C 0.82068 0.0761 0.7613 0.0
C490 C 0.84121 0.10515 0.79541 0.0
C491 C 0.87268 0.15562 0.7917 0.0
C492 C 0.79617 0.94852 0.73757 0.0
C493 C 0.76341 0.92055 0.76788 0.0
C494 C 0.81404 -0.00121 0.73535 0.0
C495 C 0.79964 0.02234 0.76338 0.0
C496 C 0.76791 -0.00527 0.79433 0.0
C497 C 0.74985 0.94428 0.79651 0.0
loop_
_geom_bond_atom_site_label_1
_geom_bond_atom_site_label_2
_geom_bond_distance
_geom_bond_site_symmetry_2
_ccdc_geom_bond_type
O0 Zn1 1.953 . S
O0 C16 1.225 . S
Zn1 O0 1.953 . S
Zn1 O2 1.949 . S
Zn1 O8 1.919 . S
Zn1 O13 1.924 . S
O2 Zn1 1.949 . S
O2 Zn3 1.923 . S
O2 Zn4 1.950 . S
O2 Zn5 1.945 . S
Zn3 O2 1.923 . S
Zn3 O6 1.933 1_545 S
Zn3 O9 1.941 . S
Zn3 O10 1.965 . S
Zn4 O2 1.950 . S
Zn4 O11 1.938 . S
Zn4 O12 1.906 . S
Zn4 O22 1.953 . S
Zn5 O2 1.945 . S
Zn5 O7 1.922 1_545 S
Zn5 O14 1.977 . S
Zn5 O15 1.910 . S
O6 Zn3 1.933 1_565 S
O6 C17 1.226 . S
O7 Zn5 1.922 1_565 S
O7 C17 1.317 . S
O8 Zn1 1.919 . S
O8 C19 1.253 . S
O9 Zn3 1.941 . S
O9 C19 1.283 . S
O10 Zn3 1.965 . S
O10 C18 1.303 . S
O11 Zn4 1.938 . S
O11 C18 1.247 . S
O12 Zn4 1.906 . S
O12 C20 1.304 . S
O13 Zn1 1.924 . S
O13 C21 1.311 . S
O14 Zn5 1.977 . S
O14 C20 1.272 . S
O15 Zn5 1.910 . S
O15 C21 1.231 . S
C16 O0 1.225 . S
C16 O22 1.298 . S
C17 O6 1.226 . S
C17 O7 1.317 . S
C18 O10 1.303 . S
C18 O11 1.247 . S
C19 O8 1.253 . S
C19 O9 1.283 . S
C20 O12 1.304 . S
C20 O14 1.272 . S
C21 O13 1.311 . S
C21 O15 1.231 . S
O22 Zn4 1.953 . S
O22 C16 1.298 . S
O23 Zn24 1.953 . S
O23 C39 1.225 . S
Zn24 O23 1.953 . S
Zn24 O25 1.949 . S
Zn24 O31 1.919 . S
Zn24 O36 1.924 . S
O25 Zn24 1.949 . S
O25 Zn26 1.923 . S
O25 Zn27 1.950 . S
O25 Zn28 1.945 . S
Zn26 O25 1.923 . S
Zn26 O29 1.933 . S
Zn26 O32 1.941 . S
Zn26 O33 1.965 . S
Zn27 O25 1.950 . S
Zn27 O34 1.938 . S
Zn27 O35 1.906 . S
Zn27 O45 1.953 . S
Zn28 O25 1.945 . S
Zn28 O30 1.932 . S
Zn28 O37 1.977 . S
Zn28 O38 1.910 . S
O29 Zn26 1.933 . S
O29 C40 1.226 . S
O30 Zn28 1.932 . S
O30 C40 1.307 . S
O31 Zn24 1.919 . S
O31 C42 1.253 . S
O32 Zn26 1.941 . S
O32 C42 1.283 . S
O33 Zn26 1.965 . S
O33 C41 1.303 . S
O34 Zn27 1.938 . S
O34 C41 1.247 . S
O35 Zn27 1.906 . S
O35 C43 1.304 . S
O36 Zn24 1.924 . S
O36 C44 1.311 . S
O37 Zn28 1.977 . S
O37 C43 1.272 . S
O38 Zn28 1.910 . S
O38 C44 1.231 . S
C39 O23 1.225 . S
C39 O45 1.298 . S
C40 O29 1.226 . S
C40 O30 1.307 . S
C41 O33 1.303 . S
C41 O34 1.247 . S
C42 O31 1.253 . S
C42 O32 1.283 . S
C43 O35 1.304 . S
C43 O37 1.272 . S
C44 O36 1.311 . S
C44 O38 1.231 . S
O45 Zn27 1.953 . S
O45 C39 1.298 . S
O46 Zn47 1.953 . S
O46 C62 1.225 . S
Zn47 O46 1.953 . S
Zn47 O48 1.949 . S
Zn47 O54 1.919 . S
Zn47 O59 1.924 . S
O48 Zn47 1.949 . S
O48 Zn49 1.923 . S
O48 Zn50 1.950 . S
O48 Zn51 1.945 . S
Zn49 O48 1.923 . S
Zn49 O52 1.933 1_655 S
Zn49 O55 1.941 . S
Zn49 O56 1.965 . S
Zn50 O48 1.950 . S
Zn50 O57 1.938 . S
Zn50 O58 1.906 . S
Zn50 O68 1.953 . S
Zn51 O48 1.945 . S
Zn51 O53 1.921 1_655 S
Zn51 O60 1.977 . S
Zn51 O61 1.910 . S
O52 Zn49 1.933 1_455 S
O52 C63 1.226 . S
O53 Zn51 1.921 1_455 S
O53 C63 1.310 . S
O54 Zn47 1.919 . S
O54 C65 1.253 . S
O55 Zn49 1.941 . S
O55 C65 1.283 . S
O56 Zn49 1.965 . S
O56 C64 1.303 . S
O57 Zn50 1.938 . S
O57 C64 1.247 . S
O58 Zn50 1.906 . S
O58 C66 1.304 . S
O59 Zn47 1.924 . S
O59 C67 1.311 . S
O60 Zn51 1.977 . S
O60 C66 1.272 . S
O61 Zn51 1.910 . S
O61 C67 1.231 . S
C62 O46 1.225 . S
C62 O68 1.298 . S
C63 O52 1.226 . S
C63 O53 1.310 . S
C64 O56 1.303 . S
C64 O57 1.247 . S
C65 O54 1.253 . S
C65 O55 1.283 . S
C66 O58 1.304 . S
C66 O60 1.272 . S
C67 O59 1.311 . S
C67 O61 1.231 . S
O68 Zn50 1.953 . S
O68 C62 1.298 . S
O69 Zn70 1.953 . S
O69 C85 1.225 . S
Zn70 O69 1.953 . S
Zn70 O71 1.949 . S
Zn70 O77 1.919 . S
Zn70 O82 1.924 . S
O71 Zn70 1.949 . S
O71 Zn72 1.923 . S
O71 Zn73 1.950 . S
O71 Zn74 1.945 . S
Zn72 O71 1.923 . S
Zn72 O75 1.933 1_455 S
Zn72 O78 1.941 . S
Zn72 O79 1.965 . S
Zn73 O71 1.950 . S
Zn73 O80 1.938 . S
Zn73 O81 1.906 . S
Zn73 O91 1.953 . S
Zn74 O71 1.945 . S
Zn74 O76 1.922 1_455 S
Zn74 O83 1.977 . S
Zn74 O84 1.910 . S
O75 Zn72 1.933 1_655 S
O75 C86 1.226 . S
O76 Zn74 1.922 1_655 S
O76 C86 1.317 . S
O77 Zn70 1.919 . S
O77 C88 1.253 . S
O78 Zn72 1.941 . S
O78 C88 1.283 . S
O79 Zn72 1.965 . S
O79 C87 1.303 . S
O80 Zn73 1.938 . S
O80 C87 1.247 . S
O81 Zn73 1.906 . S
O81 C89 1.304 . S
O82 Zn70 1.924 . S
O82 C90 1.311 . S
O83 Zn74 1.977 . S
O83 C89 1.272 . S
O84 Zn74 1.910 . S
O84 C90 1.231 . S
C85 O69 1.225 . S
C85 O91 1.298 . S
C86 O75 1.226 . S
C86 O76 1.317 . S
C87 O79 1.303 . S
C87 O80 1.247 . S
C88 O77 1.253 . S
C88 O78 1.283 . S
C89 O81 1.304 . S
C89 O83 1.272 . S
C90 O82 1.311 . S
C90 O84 1.231 . S
O91 Zn73 1.953 . S
O91 C85 1.298 . S
O92 Zn93 1.953 . S
O92 C108 1.225 . S
Zn93 O92 1.953 . S
Zn93 O94 1.949 . S
Zn93 O100 1.919 . S
Zn93 O105 1.924 . S
O94 Zn93 1.949 . S
O94 Zn95 1.923 . S
O94 Zn96 1.950 . S
O94 Zn97 1.945 . S
Zn95 O94 1.923 . S
Zn95 O98 1.933 1_565 S
Zn95 O101 1.941 . S
Zn95 O102 1.965 . S
Zn96 O94 1.950 . S
Zn96 O103 1.938 . S
Zn96 O104 1.906 . S
Zn96 O114 1.953 . S
Zn97 O94 1.945 . S
Zn97 O99 1.921 1_565 S
Zn97 O106 1.977 . S
Zn97 O107 1.910 . S
O98 Zn95 1.933 1_545 S
O98 C109 1.226 . S
O99 Zn97 1.921 1_545 S
O99 C109 1.310 . S
O100 Zn93 1.919 . S
O100 C111 1.253 . S
O101 Zn95 1.941 . S
O101 C111 1.283 . S
O102 Zn95 1.965 . S
O102 C110 1.303 . S
O103 Zn96 1.938 . S
O103 C110 1.247 . S
O104 Zn96 1.906 . S
O104 C112 1.304 . S
O105 Zn93 1.924 . S
O105 C113 1.311 . S
O106 Zn97 1.977 . S
O106 C112 1.272 . S
O107 Zn97 1.910 . S
O107 C113 1.231 . S
C108 O92 1.225 . S
C108 O114 1.298 . S
C109 O98 1.226 . S
C109 O99 1.310 . S
C110 O102 1.303 . S
C110 O103 1.247 . S
C111 O100 1.253 . S
C111 O101 1.283 . S
C112 O104 1.304 . S
C112 O106 1.272 . S
C113 O105 1.311 . S
C113 O107 1.231 . S
O114 Zn96 1.953 . S
O114 C108 1.298 . S
O115 Zn116 1.953 . S
O115 C131 1.225 . S
Zn116 O115 1.953 . S
Zn116 O117 1.949 . S
Zn116 O123 1.919 . S
Zn116 O128 1.924 . S
O117 Zn116 1.949 . S
O117 Zn118 1.923 . S
O117 Zn119 1.950 . S
O117 Zn120 1.945 . S
Zn118 O117 1.923 . S
Zn118 O121 1.933 . S
Zn118 O124 1.941 . S
Zn118 O125 1.965 . S
Zn119 O117 1.950 . S
Zn119 O126 1.938 . S
Zn119 O127 1.906 . S
Zn119 O137 1.953 . S
Zn120 O117 1.945 . S
Zn120 O122 1.932 . S
Zn120 O129 1.977 . S
Zn120 O130 1.910 . S
O121 Zn118 1.933 . S
O121 C132 1.226 . S
O122 Zn120 1.932 . S
O122 C132 1.307 . S
O123 Zn116 1.919 . S
O123 C134 1.253 . S
O124 Zn118 1.941 . S
O124 C134 1.283 . S
O125 Zn118 1.965 . S
O125 C133 1.303 . S
O126 Zn119 1.938 . S
O126 C133 1.247 . S
O127 Zn119 1.906 . S
O127 C135 1.304 . S
O128 Zn116 1.924 . S
O128 C136 1.311 . S
O129 Zn120 1.977 . S
O129 C135 1.272 . S
O130 Zn120 1.910 . S
O130 C136 1.231 . S
C131 O115 1.225 . S
C131 O137 1.298 . S
C132 O121 1.226 . S
C132 O122 1.307 . S
C133 O125 1.303 . S
C133 O126 1.247 . S
C134 O123 1.253 . S
C134 O124 1.283 . S
C135 O127 1.304 . S
C135 O129 1.272 . S
C136 O128 1.311 . S
C136 O130 1.231 . S
O137 Zn119 1.953 . S
O137 C131 1.298 . S
H138 C146 0.950 . S
H139 C151 0.950 . S
H140 C148 0.950 . S
H141 C150 0.950 . S
H142 C152 0.950 . S
H143 C154 0.950 . S
H144 C156 0.950 . S
H145 C157 0.950 . S
C146 H138 0.950 . S
C146 C147 1.386 . S
C146 C148 1.391 1_565 S
C147 C146 1.386 . S
C147 C151 1.393 . S
C148 H140 0.950 . S
C148 C146 1.391 1_545 S
C148 C149 1.400 1_545 S
C149 C148 1.400 1_565 S
C149 C150 1.398 . S
C149 C155 1.491 1_566 S
C150 H141 0.950 . S
C150 C149 1.398 . S
C150 C151 1.391 . S
C151 H139 0.950 . S
C151 C147 1.393 . S
C151 C150 1.391 . S
C152 H142 0.950 . S
C152 C153 1.386 . S
C152 C154 1.391 1_545 S
C153 C152 1.386 . S
C153 C157 1.393 . S
C154 H143 0.950 . S
C154 C152 1.391 1_565 S
C154 C155 1.400 1_565 S
C155 C149 1.491 1_544 S
C155 C154 1.400 1_545 S
C155 C156 1.398 . S
C156 H144 0.950 . S
C156 C155 1.398 . S
C156 C157 1.391 . S
C157 H145 0.950 . S
C157 C153 1.393 . S
C157 C156 1.391 . S
H158 C166 0.950 . S
H159 C171 0.950 . S
H160 C168 0.950 . S
H161 C170 0.950 . S
H162 C172 0.950 . S
H163 C174 0.950 . S
H164 C176 0.950 . S
H165 C177 0.950 . S
C166 H158 0.950 . S
C166 C167 1.386 . S
C166 C168 1.391 . S
C167 C166 1.386 . S
C167 C171 1.393 . S
C168 H160 0.950 . S
C168 C166 1.391 . S
C168 C169 1.400 . S
C169 C168 1.400 . S
C169 C170 1.398 . S
C169 C175 1.491 . S
C170 H161 0.950 . S
C170 C169 1.398 . S
C170 C171 1.391 . S
C171 H159 0.950 . S
C171 C167 1.393 . S
C171 C170 1.391 . S
C172 H162 0.950 . S
C172 C173 1.386 . S
C172 C174 1.391 . S
C173 C172 1.386 . S
C173 C177 1.393 . S
C174 H163 0.950 . S
C174 C172 1.391 . S
C174 C175 1.400 . S
C175 C169 1.491 . S
C175 C174 1.400 . S
C175 C176 1.398 . S
C176 H164 0.950 . S
C176 C175 1.398 . S
C176 C177 1.391 . S
C177 H165 0.950 . S
C177 C173 1.393 . S
C177 C176 1.391 . S
H178 C186 0.950 . S
H179 C191 0.950 . S
H180 C188 0.950 . S
H181 C190 0.950 . S
H182 C192 0.950 . S
H183 C194 0.950 . S
H184 C196 0.950 . S
H185 C197 0.950 . S
C186 H178 0.950 . S
C186 C187 1.386 . S
C186 C188 1.391 1_655 S
C187 C186 1.386 . S
C187 C191 1.393 . S
C188 H180 0.950 . S
C188 C186 1.391 1_455 S
C188 C189 1.400 1_455 S
C189 C188 1.400 1_655 S
C189 C190 1.398 . S
C189 C195 1.491 1_654 S
C190 H181 0.950 . S
C190 C189 1.398 . S
C190 C191 1.391 . S
C191 H179 0.950 . S
C191 C187 1.393 . S
C191 C190 1.391 . S
C192 H182 0.950 . S
C192 C193 1.386 . S
C192 C194 1.391 1_455 S
C193 C192 1.386 . S
C193 C197 1.393 . S
C194 H183 0.950 . S
C194 C192 1.391 1_655 S
C194 C195 1.400 1_655 S
C195 C189 1.491 1_456 S
C195 C194 1.400 1_455 S
C195 C196 1.398 . S
C196 H184 0.950 . S
C196 C195 1.398 . S
C196 C197 1.391 . S
C197 H185 0.950 . S
C197 C193 1.393 . S
C197 C196 1.391 . S
H198 C206 0.950 . S
H199 C211 0.950 . S
H200 C208 0.950 . S
H201 C210 0.950 . S
H202 C212 0.950 . S
H203 C214 0.950 . S
H204 C216 0.950 . S
H205 C217 0.950 . S
C206 H198 0.950 . S
C206 C207 1.386 . S
C206 C208 1.391 . S
C207 C206 1.386 . S
C207 C211 1.393 . S
C208 H200 0.950 . S
C208 C206 1.391 . S
C208 C209 1.400 . S
C209 C208 1.400 . S
C209 C210 1.398 1_545 S
C209 C215 1.491 1_545 S
C210 H201 0.950 . S
C210 C209 1.398 1_565 S
C210 C211 1.391 1_565 S
C211 H199 0.950 . S
C211 C207 1.393 . S
C211 C210 1.391 1_545 S
C212 H202 0.950 . S
C212 C213 1.386 . S
C212 C214 1.391 . S
C213 C212 1.386 . S
C213 C217 1.393 . S
C214 H203 0.950 . S
C214 C212 1.391 . S
C214 C215 1.400 . S
C215 C209 1.491 1_565 S
C215 C214 1.400 . S
C215 C216 1.398 1_565 S
C216 H204 0.950 . S
C216 C215 1.398 1_545 S
C216 C217 1.391 1_545 S
C217 H205 0.950 . S
C217 C213 1.393 . S
C217 C216 1.391 1_565 S
H218 C226 0.950 . S
H219 C231 0.950 . S
H220 C228 0.950 . S
H221 C230 0.950 . S
H222 C232 0.950 . S
H223 C234 0.950 . S
H224 C236 0.950 . S
H225 C237 0.950 . S
C226 H218 0.950 . S
C226 C227 1.386 . S
C226 C228 1.391 . S
C227 C226 1.386 . S
C227 C231 1.393 . S
C228 H220 0.950 . S
C228 C226 1.391 . S
C228 C229 1.400 . S
C229 C228 1.400 . S
C229 C230 1.398 . S
C229 C235 1.491 1_556 S
C230 H221 0.950 . S
C230 C229 1.398 . S
C230 C231 1.391 . S
C231 H219 0.950 . S
C231 C227 1.393 . S
C231 C230 1.391 . S
C232 H222 0.950 . S
C232 C233 1.386 . S
C232 C234 1.391 . S
C233 C232 1.386 . S
C233 C237 1.393 . S
C234 H223 0.950 . S
C234 C232 1.391 . S
C234 C235 1.400 . S
C235 C229 1.491 1_554 S
C235 C234 1.400 . S
C235 C236 1.398 . S
C236 H224 0.950 . S
C236 C235 1.398 . S
C236 C237 1.391 . S
C237 H225 0.950 . S
C237 C233 1.393 . S
C237 C236 1.391 . S
H238 C246 0.950 . S
H239 C251 0.950 1_455 S
H240 C248 0.950 . S
H241 C250 0.950 . S
H242 C252 0.950 . S
H243 C254 0.950 . S
H244 C256 0.950 . S
H245 C257 0.950 1_655 S
C246 H238 0.950 . S
C246 C247 1.386 . S
C246 C248 1.391 . S
C247 C246 1.386 . S
C247 C251 1.393 . S
C248 H240 0.950 . S
C248 C246 1.391 . S
C248 C249 1.400 . S
C249 C248 1.400 . S
C249 C250 1.398 1_655 S
C249 C255 1.491 1_655 S
C250 H241 0.950 . S
C250 C249 1.398 1_455 S
C250 C251 1.391 1_455 S
C251 H239 0.950 1_655 S
C251 C247 1.393 . S
C251 C250 1.391 1_655 S
C252 H242 0.950 . S
C252 C253 1.386 . S
C252 C254 1.391 . S
C253 C252 1.386 . S
C253 C257 1.393 . S
C254 H243 0.950 . S
C254 C252 1.391 . S
C254 C255 1.400 . S
C255 C249 1.491 1_455 S
C255 C254 1.400 . S
C255 C256 1.398 1_455 S
C256 H244 0.950 . S
C256 C255 1.398 1_655 S
C256 C257 1.391 1_655 S
C257 H245 0.950 1_455 S
C257 C253 1.393 . S
C257 C256 1.391 1_455 S
H258 C266 0.950 . S
H259 C271 0.950 . S
H260 C268 0.950 . S
H261 C270 0.950 . S
H262 C272 0.950 . S
H263 C274 0.950 . S
H264 C276 0.950 . S
H265 C277 0.950 . S
C266 H258 0.950 . S
C266 C267 1.386 . S
C266 C268 1.391 . S
C267 C266 1.386 . S
C267 C271 1.393 . S
C268 H260 0.950 . S
C268 C266 1.391 . S
C268 C269 1.400 . S
C269 C268 1.400 . S
C269 C270 1.398 . S
C269 C275 1.491 . S
C270 H261 0.950 . S
C270 C269 1.398 . S
C270 C271 1.391 . S
C271 H259 0.950 . S
C271 C267 1.393 . S
C271 C270 1.391 . S
C272 H262 0.950 . S
C272 C273 1.386 . S
C272 C274 1.391 . S
C273 C272 1.386 . S
C273 C277 1.393 . S
C274 H263 0.950 . S
C274 C272 1.391 . S
C274 C275 1.400 . S
C275 C269 1.491 . S
C275 C274 1.400 . S
C275 C276 1.398 . S
C276 H264 0.950 . S
C276 C275 1.398 . S
C276 C277 1.391 . S
C277 H265 0.950 . S
C277 C273 1.393 . S
C277 C276 1.391 . S
H278 C286 0.950 . S
H279 C291 0.950 . S
H280 C288 0.950 . S
H281 C290 0.950 . S
H282 C292 0.950 . S
H283 C294 0.950 . S
H284 C296 0.950 . S
H285 C297 0.950 . S
C286 H278 0.950 . S
C286 C287 1.386 . S
C286 C288 1.391 . S
C287 C286 1.386 . S
C287 C291 1.393 . S
C288 H280 0.950 . S
C288 C286 1.391 . S
C288 C289 1.400 . S
C289 C288 1.400 . S
C289 C290 1.398 . S
C289 C295 1.491 . S
C290 H281 0.950 . S
C290 C289 1.398 . S
C290 C291 1.391 . S
C291 H279 0.950 . S
C291 C287 1.393 . S
C291 C290 1.391 . S
C292 H282 0.950 . S
C292 C293 1.386 . S
C292 C294 1.391 . S
C293 C292 1.386 . S
C293 C297 1.393 . S
C294 H283 0.950 . S
C294 C292 1.391 . S
C294 C295 1.400 . S
C295 C289 1.491 . S
C295 C294 1.400 . S
C295 C296 1.398 . S
C296 H284 0.950 . S
C296 C295 1.398 . S
C296 C297 1.391 . S
C297 H285 0.950 . S
C297 C293 1.393 . S
C297 C296 1.391 . S
H298 C306 0.950 . S
H299 C311 0.950 . S
H300 C308 0.950 . S
H301 C310 0.950 . S
H302 C312 0.950 . S
H303 C314 0.950 . S
H304 C316 0.950 . S
H305 C317 0.950 . S
C306 H298 0.950 . S
C306 C307 1.386 . S
C306 C308 1.391 . S
C307 C306 1.386 . S
C307 C311 1.393 . S
C308 H300 0.950 . S
C308 C306 1.391 . S
C308 C309 1.400 . S
C309 C308 1.400 . S
C309 C310 1.398 . S
C309 C315 1.491 . S
C310 H301 0.950 . S
C310 C309 1.398 . S
C310 C311 1.391 . S
C311 H299 0.950 . S
C311 C307 1.393 . S
C311 C310 1.391 . S
C312 H302 0.950 . S
C312 C313 1.386 . S
C312 C314 1.391 . S
C313 C312 1.386 . S
C313 C317 1.393 . S
C314 H303 0.950 . S
C314 C312 1.391 . S
C314 C315 1.400 . S
C315 C309 1.491 . S
C315 C314 1.400 . S
C315 C316 1.398 . S
C316 H304 0.950 . S
C316 C315 1.398 . S
C316 C317 1.391 . S
C317 H305 0.950 . S
C317 C313 1.393 . S
C317 C316 1.391 . S
H318 C326 0.950 . S
H319 C331 0.950 . S
H320 C328 0.950 . S
H321 C330 0.950 . S
H322 C332 0.950 . S
H323 C334 0.950 . S
H324 C336 0.950 . S
H325 C337 0.950 . S
C326 H318 0.950 . S
C326 C327 1.386 . S
C326 C328 1.391 . S
C327 C326 1.386 . S
C327 C331 1.393 . S
C328 H320 0.950 . S
C328 C326 1.391 . S
C328 C329 1.400 . S
C329 C328 1.400 . S
C329 C330 1.398 . S
C329 C335 1.491 . S
C330 H321 0.950 . S
C330 C329 1.398 . S
C330 C331 1.391 . S
C331 H319 0.950 . S
C331 C327 1.393 . S
C331 C330 1.391 . S
C332 H322 0.950 . S
C332 C333 1.386 . S
C332 C334 1.391 . S
C333 C332 1.386 . S
C333 C337 1.393 . S
C334 H323 0.950 . S
C334 C332 1.391 . S
C334 C335 1.400 . S
C335 C329 1.491 . S
C335 C334 1.400 . S
C335 C336 1.398 . S
C336 H324 0.950 . S
C336 C335 1.398 . S
C336 C337 1.391 . S
C337 H325 0.950 . S
C337 C333 1.393 . S
C337 C336 1.391 . S
H338 C346 0.950 . S
H339 C351 0.950 . S
H340 C348 0.950 . S
H341 C350 0.950 . S
H342 C352 0.950 . S
H343 C354 0.950 . S
H344 C356 0.950 . S
H345 C357 0.950 . S
C346 H338 0.950 . S
C346 C347 1.386 . S
C346 C348 1.391 . S
C347 C346 1.386 . S
C347 C351 1.393 . S
C348 H340 0.950 . S
C348 C346 1.391 . S
C348 C349 1.400 . S
C349 C348 1.400 . S
C349 C350 1.398 . S
C349 C355 1.491 . S
C350 H341 0.950 . S
C350 C349 1.398 . S
C350 C351 1.391 . S
C351 H339 0.950 . S
C351 C347 1.393 . S
C351 C350 1.391 . S
C352 H342 0.950 . S
C352 C353 1.386 . S
C352 C354 1.391 . S
C353 C352 1.386 . S
C353 C357 1.393 . S
C354 H343 0.950 . S
C354 C352 1.391 . S
C354 C355 1.400 . S
C355 C349 1.491 . S
C355 C354 1.400 . S
C355 C356 1.398 . S
C356 H344 0.950 . S
C356 C355 1.398 . S
C356 C357 1.391 . S
C357 H345 0.950 . S
C357 C353 1.393 . S
C357 C356 1.391 . S
H358 C366 0.950 . S
H359 C371 0.950 . S
H360 C368 0.950 . S
H361 C370 0.950 . S
H362 C372 0.950 . S
H363 C374 0.950 . S
H364 C376 0.950 . S
H365 C377 0.950 . S
C366 H358 0.950 . S
C366 C367 1.386 . S
C366 C368 1.391 . S
C367 C366 1.386 . S
C367 C371 1.393 . S
C368 H360 0.950 . S
C368 C366 1.391 . S
C368 C369 1.400 . S
C369 C368 1.400 . S
C369 C370 1.398 . S
C369 C375 1.491 . S
C370 H361 0.950 . S
C370 C369 1.398 . S
C370 C371 1.391 . S
C371 H359 0.950 . S
C371 C367 1.393 . S
C371 C370 1.391 . S
C372 H362 0.950 . S
C372 C373 1.386 . S
C372 C374 1.391 . S
C373 C372 1.386 . S
C373 C377 1.393 . S
C374 H363 0.950 . S
C374 C372 1.391 . S
C374 C375 1.400 . S
C375 C369 1.491 . S
C375 C374 1.400 . S
C375 C376 1.398 . S
C376 H364 0.950 . S
C376 C375 1.398 . S
C376 C377 1.391 . S
C377 H365 0.950 . S
C377 C373 1.393 . S
C377 C376 1.391 . S
H378 C386 0.950 . S
H379 C391 0.950 . S
H380 C388 0.950 . S
H381 C390 0.950 . S
H382 C392 0.950 . S
H383 C394 0.950 . S
H384 C396 0.950 . S
H385 C397 0.950 . S
C386 H378 0.950 . S
C386 C387 1.386 . S
C386 C388 1.391 . S
C387 C386 1.386 . S
C387 C391 1.393 . S
C388 H380 0.950 . S
C388 C386 1.391 . S
C388 C389 1.400 . S
C389 C388 1.400 . S
C389 C390 1.398 . S
C389 C395 1.491 . S
C390 H381 0.950 . S
C390 C389 1.398 . S
C390 C391 1.391 . S
C391 H379 0.950 . S
C391 C387 1.393 . S
C391 C390 1.391 . S
C392 H382 0.950 . S
C392 C393 1.386 . S
C392 C394 1.391 . S
C393 C392 1.386 . S
C393 C397 1.393 . S
C394 H383 0.950 . S
C394 C392 1.391 . S
C394 C395 1.400 . S
C395 C389 1.491 . S
C395 C394 1.400 . S
C395 C396 1.398 . S
C396 H384 0.950 . S
C396 C395 1.398 . S
C396 C397 1.391 . S
C397 H385 0.950 . S
C397 C393 1.393 . S
C397 C396 1.391 . S
H398 C406 0.950 . S
H399 C411 0.950 . S
H400 C408 0.950 . S
H401 C410 0.950 . S
H402 C412 0.950 . S
H403 C414 0.950 . S
H404 C416 0.950 . S
H405 C417 0.950 . S
C406 H398 0.950 . S
C406 C407 1.386 . S
C406 C408 1.391 1_655 S
C407 C406 1.386 . S
C407 C411 1.393 . S
C408 H400 0.950 . S
C408 C406 1.391 1_455 S
C408 C409 1.400 . S
C409 C408 1.400 . S
C409 C410 1.398 . S
C409 C415 1.491 . S
C410 H401 0.950 . S
C410 C409 1.398 . S
C410 C411 1.391 1_455 S
C411 H399 0.950 . S
C411 C407 1.393 . S
C411 C410 1.391 1_655 S
C412 H402 0.950 . S
C412 C413 1.386 . S
C412 C414 1.391 . S
C413 C412 1.386 . S
C413 C417 1.393 . S
C414 H403 0.950 . S
C414 C412 1.391 . S
C414 C415 1.400 . S
C415 C409 1.491 . S
C415 C414 1.400 . S
C415 C416 1.398 . S
C416 H404 0.950 . S
C416 C415 1.398 . S
C416 C417 1.391 . S
C417 H405 0.950 . S
C417 C413 1.393 . S
C417 C416 1.391 . S
H418 C426 0.950 . S
H419 C431 0.950 . S
H420 C428 0.950 . S
H421 C430 0.950 . S
H422 C432 0.950 . S
H423 C434 0.950 . S
H424 C436 0.950 . S
H425 C437 0.950 . S
C426 H418 0.950 . S
C426 C427 1.386 . S
C426 C428 1.391 1_545 S
C427 C426 1.386 . S
C427 C431 1.393 . S
C428 H420 0.950 . S
C428 C426 1.391 1_565 S
C428 C429 1.400 . S
C429 C428 1.400 . S
C429 C430 1.398 . S
C429 C435 1.491 . S
C430 H421 0.950 . S
C430 C429 1.398 . S
C430 C431 1.391 1_565 S
C431 H419 0.950 . S
C431 C427 1.393 . S
C431 C430 1.391 1_545 S
C432 H422 0.950 . S
C432 C433 1.386 . S
C432 C434 1.391 . S
C433 C432 1.386 . S
C433 C437 1.393 . S
C434 H423 0.950 . S
C434 C432 1.391 . S
C434 C435 1.400 . S
C435 C429 1.491 . S
C435 C434 1.400 . S
C435 C436 1.398 . S
C436 H424 0.950 . S
C436 C435 1.398 . S
C436 C437 1.391 . S
C437 H425 0.950 . S
C437 C433 1.393 . S
C437 C436 1.391 . S
H438 C446 0.950 . S
H439 C451 0.950 . S
H440 C448 0.950 . S
H441 C450 0.950 . S
H442 C452 0.950 . S
H443 C454 0.950 . S
H444 C456 0.950 . S
H445 C457 0.950 . S
C446 H438 0.950 . S
C446 C447 1.386 . S
C446 C448 1.391 . S
C447 C446 1.386 . S
C447 C451 1.393 . S
C448 H440 0.950 . S
C448 C446 1.391 . S
C448 C449 1.400 . S
C449 C448 1.400 . S
C449 C450 1.398 . S
C449 C455 1.491 . S
C450 H441 0.950 . S
C450 C449 1.398 . S
C450 C451 1.391 . S
C451 H439 0.950 . S
C451 C447 1.393 . S
C451 C450 1.391 . S
C452 H442 0.950 . S
C452 C453 1.386 . S
C452 C454 1.391 . S
C453 C452 1.386 . S
C453 C457 1.393 . S
C454 H443 0.950 . S
C454 C452 1.391 . S
C454 C455 1.400 . S
C455 C449 1.491 . S
C455 C454 1.400 . S
C455 C456 1.398 . S
C456 H444 0.950 . S
C456 C455 1.398 . S
C456 C457 1.391 . S
C457 H445 0.950 . S
C457 C453 1.393 . S
C457 C456 1.391 . S
H458 C466 0.950 . S
H459 C471 0.950 . S
H460 C468 0.950 . S
H461 C470 0.950 . S
H462 C472 0.950 . S
H463 C474 0.950 . S
H464 C476 0.950 . S
H465 C477 0.950 . S
C466 H458 0.950 . S
C466 C467 1.386 . S
C466 C468 1.391 1_455 S
C467 C466 1.386 . S
C467 C471 1.393 . S
C468 H460 0.950 . S
C468 C466 1.391 1_655 S
C468 C469 1.400 . S
C469 C468 1.400 . S
C469 C470 1.398 . S
C469 C475 1.491 . S
C470 H461 0.950 . S
C470 C469 1.398 . S
C470 C471 1.391 1_655 S
C471 H459 0.950 . S
C471 C467 1.393 . S
C471 C470 1.391 1_455 S
C472 H462 0.950 . S
C472 C473 1.386 . S
C472 C474 1.391 . S
C473 C472 1.386 . S
C473 C477 1.393 . S
C474 H463 0.950 . S
C474 C472 1.391 . S
C474 C475 1.400 . S
C475 C469 1.491 . S
C475 C474 1.400 . S
C475 C476 1.398 . S
C476 H464 0.950 . S
C476 C475 1.398 . S
C476 C477 1.391 . S
C477 H465 0.950 . S
C477 C473 1.393 . S
C477 C476 1.391 . S
H478 C486 0.950 . S
H479 C491 0.950 . S
H480 C488 0.950 . S
H481 C490 0.950 . S
H482 C492 0.950 . S
H483 C494 0.950 . S
H484 C496 0.950 . S
H485 C497 0.950 . S
C486 H478 0.950 . S
C486 C487 1.386 . S
C486 C488 1.391 . S
C487 C486 1.386 . S
C487 C491 1.393 . S
C488 H480 0.950 . S
C488 C486 1.391 . S
C488 C489 1.400 . S
C489 C488 1.400 . S
C489 C490 1.398 . S
C489 C495 1.491 . S
C490 H481 0.950 . S
C490 C489 1.398 . S
C490 C491 1.391 . S
C491 H479 0.950 . S
C491 C487 1.393 . S
C491 C490 1.391 . S
C492 H482 0.950 . S
C492 C493 1.386 . S
C492 C494 1.391 1_565 S
C493 C492 1.386 . S
C493 C497 1.393 . S
C494 H483 0.950 . S
C494 C492 1.391 1_545 S
C494 C495 1.400 . S
C495 C489 1.491 . S
C495 C494 1.400 . S
C495 C496 1.398 . S
C496 H484 0.950 . S
C496 C495 1.398 . S
C496 C497 1.391 1_545 S
C497 H485 0.950 . S
C497 C493 1.393 . S
C497 C496 1.391 1_565 S
C147 C111 1.754 . S
C153 C19 1.748 . S
C167 C135 1.760 . S
C173 C43 1.763 . S
C187 C65 1.754 . S
C193 C88 1.748 . S
C207 C20 1.760 . S
C213 C112 1.762 . S
C227 C134 1.754 . S
C233 C42 1.746 . S
C247 C66 1.760 . S
C253 C89 1.763 . S
C267 C18 1.209 . S
C273 C62 1.225 . S
C287 C41 1.199 . S
C293 C16 1.220 . S
C307 C64 1.201 . S
C313 C39 1.221 . S
C327 C87 1.192 . S
C333 C108 1.220 . S
C347 C110 1.197 . S
C353 C131 1.220 . S
C367 C85 1.220 . S
C373 C133 1.193 . S
C387 C21 0.847 . S
C393 C63 0.852 . S
C407 C44 0.868 . S
C413 C17 0.843 . S
C427 C67 0.845 . S
C433 C40 0.871 . S
C447 C90 0.860 . S
C453 C109 0.857 . S
C467 C113 0.853 . S
C473 C132 0.865 . S
C487 C86 0.842 . S
C493 C136 0.853 . S
