# Generated by pormake.
# Topology rob, (6)-cn, num edge types: 1
# Building blocks:
#     Node 0, Type 0, BuildingBlock: BETDIP_clean_sbu_0, # of connection points: 6
#     Node 1, Type 0, BuildingBlock: BETDIP_clean_sbu_0, # of connection points: 6
#     Node 2, Type 0, BuildingBlock: BETDIP_clean_sbu_0, # of connection points: 6
#     Node 3, Type 0, BuildingBlock: BETDIP_clean_sbu_0, # of connection points: 6
#     Edge 4, Type (0, 0), BuildingBlock: TEMPAE_clean_linker_10, # of connection points: 2
#     Edge 5, Type (0, 0), BuildingBlock: TEMPAE_clean_linker_10, # of connection points: 2
#     Edge 6, Type (0, 0), BuildingBlock: TEMPAE_clean_linker_10, # of connection points: 2
#     Edge 7, Type (0, 0), BuildingBlock: TEMPAE_clean_linker_10, # of connection points: 2
#     Edge 8, Type (0, 0), BuildingBlock: TEMPAE_clean_linker_10, # of connection points: 2
#     Edge 9, Type (0, 0), BuildingBlock: TEMPAE_clean_linker_10, # of connection points: 2
#     Edge 10, Type (0, 0), BuildingBlock: TEMPAE_clean_linker_10, # of connection points: 2
#     Edge 11, Type (0, 0), BuildingBlock: TEMPAE_clean_linker_10, # of connection points: 2
#     Edge 12, Type (0, 0), BuildingBlock: TEMPAE_clean_linker_10, # of connection points: 2
#     Edge 13, Type (0, 0), BuildingBlock: TEMPAE_clean_linker_10, # of connection points: 2
#     Edge 14, Type (0, 0), BuildingBlock: TEMPAE_clean_linker_10, # of connection points: 2
#     Edge 15, Type (0, 0), BuildingBlock: TEMPAE_clean_linker_10, # of connection points: 2
# Relax obj value: 0.036
# Max RMSD: 0.140
# Mean RMSD: 0.140
data_MOF--net-rob--node1-BETDIP_clean_sbu_0--edge1-TEMPAE_clean_linker_10
_symmetry_space_group_name_H-M    P1
_symmetry_Int_Tables_number       1
_symmetry_cell_setting            triclinic
loop_
_symmetry_equiv_pos_as_xyz
'x, y, z'
_cell_length_a     15.000718
_cell_length_b     24.68524
_cell_length_c     36.933517
_cell_angle_alpha  94.674288
_cell_angle_beta   89.841791
_cell_angle_gamma 89.917789
loop_
_atom_site_label
_atom_site_type_symbol
_atom_site_fract_x
_atom_site_fract_y
_atom_site_fract_z
_atom_type_partial_charge
Tb0 Tb 0.1661 0.29344 0.04184 0.0
Tb1 Tb 0.34266 0.24991 1.01379 0.0
C2 C 0.02407 0.30435 0.07792 0.0
C3 C 1.00258 0.30015 0.11676 0.0
C4 C 0.01903 0.25213 0.13374 0.0
C5 C 1.0033 0.2501 0.17097 0.0
C6 C 0.97157 0.29611 0.19213 0.0
C7 C 0.95369 0.34375 0.17493 0.0
C8 C 0.96881 0.34566 0.13767 0.0
C9 C 0.28459 0.3676 0.02849 0.0
C10 C 0.31869 0.25857 0.09695 0.0
C11 C 0.48275 0.23792 0.97663 0.0
C12 C 0.49984 0.23775 0.93702 0.0
C13 C 0.55299 0.27854 0.92369 0.0
C14 C 0.56715 0.28014 0.88631 0.0
C15 C 0.5289 0.24074 0.8614 0.0
C16 C 0.47571 0.19993 0.87476 0.0
C17 C 0.46109 0.19851 0.91211 0.0
C18 C 0.22268 0.17591 0.02618 0.0
C19 C 0.1906 0.28583 0.95857 0.0
O20 O 0.04654 0.25937 0.05877 0.0
O21 O 0.07509 0.34517 0.0709 0.0
O22 O 0.29973 0.32347 0.04226 0.0
O23 O 0.19925 0.37404 0.02528 0.0
O24 O 0.23293 0.26596 0.09014 0.0
O25 O 0.37932 0.25741 0.0708 0.0
O26 O 0.458 0.28452 0.99306 0.0
O27 O 0.43681 0.19725 0.98763 0.0
O28 O 0.20911 0.22039 1.01265 0.0
O29 O 0.30758 0.16995 0.03127 0.0
O30 O 0.27561 0.27574 0.96516 0.0
O31 O 0.13011 0.28898 0.98479 0.0
H32 H 0.0456 0.21635 0.11849 0.0
H33 H 0.01823 0.21285 0.18334 0.0
H34 H 0.92759 0.3796 0.19026 0.0
H35 H 0.95521 0.38306 0.12523 0.0
H36 H 0.58331 0.30942 0.94223 0.0
H37 H 0.60912 0.31183 0.87691 0.0
H38 H 0.44436 0.16944 0.85626 0.0
H39 H 0.41885 0.16685 0.92134 0.0
Tb40 Tb 0.6641 0.79283 0.04191 0.0
Tb41 Tb 0.84222 0.75192 1.01367 0.0
C42 C 0.52198 0.80139 0.07807 0.0
C43 C 0.50136 0.79786 0.11706 0.0
C44 C 0.51726 0.74996 0.13426 0.0
C45 C 0.50208 0.74844 0.17155 0.0
C46 C 0.47136 0.79484 0.19257 0.0
C47 C 0.45412 0.84239 0.1752 0.0
C48 C 0.46868 0.8438 0.13786 0.0
C49 C 0.78008 0.86868 0.02912 0.0
C50 C 0.81823 0.75951 0.09684 0.0
C51 C 0.98255 0.74214 0.97648 0.0
C52 C 0.99842 0.7424 0.93695 0.0
C53 C 0.06905 0.77282 0.92413 0.0
C54 C 0.08292 0.77496 0.88676 0.0
C55 C 0.02656 0.74648 0.86147 0.0
C56 C 0.95547 0.71632 0.87437 0.0
C57 C 0.94122 0.71454 0.91171 0.0
C58 C 0.72468 0.67623 0.02548 0.0
C59 C 0.68854 0.7864 0.95877 0.0
O60 O 0.54714 0.75647 0.05947 0.0
O61 O 0.57005 0.84314 0.07034 0.0
O62 O 0.79668 0.8245 0.04258 0.0
O63 O 0.69455 0.87418 0.02591 0.0
O64 O 0.73225 0.76606 0.09009 0.0
O65 O 0.87881 0.7592 0.07069 0.0
O66 O 0.95599 0.78832 0.99292 0.0
O67 O 0.93808 0.70077 0.98729 0.0
O68 O 0.70971 0.72077 1.01227 0.0
O69 O 0.80974 0.67119 0.03059 0.0
O70 O 0.77409 0.77804 0.96535 0.0
O71 O 0.62794 0.7877 0.98491 0.0
H72 H 0.54291 0.71382 0.1191 0.0
H73 H 0.51658 0.71127 0.18409 0.0
H74 H 0.42885 0.87854 0.19045 0.0
H75 H 0.45544 0.88112 0.12528 0.0
H76 H 0.11337 0.79509 0.94306 0.0
H77 H 0.13858 0.79827 0.87762 0.0
H78 H 0.91014 0.69469 0.85556 0.0
H79 H 0.885 0.69165 0.92078 0.0
Tb80 Tb 0.17057 0.74877 0.5125 0.0
Tb81 Tb 0.34795 0.78843 0.54206 0.0
C82 C 0.02907 0.73689 0.47621 0.0
C83 C 0.00651 0.74197 0.43772 0.0
C84 C 0.04478 0.78268 0.4183 0.0
C85 C 0.02806 0.78457 0.3812 0.0
C86 C 0.97231 0.74586 0.36265 0.0
C87 C 0.93268 0.70573 0.38242 0.0
C88 C 0.94985 0.70377 0.41953 0.0
C89 C 0.28775 0.67256 0.52405 0.0
C90 C 0.32563 0.78506 0.45911 0.0
C91 C 0.48941 0.79381 0.57838 0.0
C92 C 0.50692 0.79672 0.61774 0.0
C93 C 0.5802 0.76891 0.63075 0.0
C94 C 0.59465 0.76844 0.66812 0.0
C95 C 0.53613 0.79597 0.69316 0.0
C96 C 0.4629 0.82401 0.68005 0.0
C97 C 0.44811 0.82413 0.64267 0.0
C98 C 0.23267 0.86547 0.53037 0.0
C99 C 0.19093 0.75558 0.5962 0.0
O100 O 0.0498 0.7817 0.49581 0.0
O101 O 0.08285 0.69687 0.48212 0.0
O102 O 0.30336 0.71735 0.51131 0.0
O103 O 0.20269 0.66788 0.52927 0.0
O104 O 0.23911 0.77998 0.46556 0.0
O105 O 0.38544 0.78182 0.48508 0.0
O106 O 0.4548 0.74805 0.56471 0.0
O107 O 0.45093 0.8362 0.56598 0.0
O108 O 0.21551 0.82044 0.54254 0.0
O109 O 0.31842 0.87128 0.52847 0.0
O110 O 0.27677 0.76423 0.59029 0.0
O111 O 0.13201 0.75357 0.56949 0.0
H112 H 0.08865 0.81265 0.43164 0.0
H113 H 0.06028 0.81576 0.36692 0.0
H114 H 0.88808 0.67586 0.36925 0.0
H115 H 0.91956 0.67199 0.43397 0.0
H116 H 0.62578 0.74708 0.61197 0.0
H117 H 0.65201 0.74685 0.67746 0.0
H118 H 0.41609 0.84494 0.69872 0.0
H119 H 0.39007 0.84504 0.6333 0.0
Tb120 Tb 0.67213 0.24851 0.51276 0.0
Tb121 Tb 0.84902 0.28994 0.5417 0.0
C122 C 0.53065 0.23621 0.47654 0.0
C123 C 0.50803 0.24084 0.43797 0.0
C124 C 0.54421 0.28228 0.4186 0.0
C125 C 0.52711 0.28405 0.38151 0.0
C126 C 0.47308 0.24448 0.36288 0.0
C127 C 0.43563 0.20353 0.38257 0.0
C128 C 0.45315 0.2017 0.41968 0.0
C129 C 0.79066 0.17344 0.52488 0.0
C130 C 0.82628 0.28467 0.45874 0.0
C131 C 0.99031 0.29696 0.57805 0.0
C132 C 0.00851 0.30003 0.61748 0.0
C133 C 0.07103 0.2645 0.63095 0.0
C134 C 0.08542 0.26434 0.66835 0.0
C135 C 0.03789 0.3 0.69304 0.0
C136 C 0.97588 0.33597 0.67949 0.0
C137 C 0.96087 0.33576 0.6421 0.0
C138 C 0.73176 0.36556 0.52946 0.0
C139 C 0.69332 0.25655 0.59646 0.0
O140 O 0.55139 0.28127 0.4959 0.0
O141 O 0.58431 0.19624 0.48272 0.0
O142 O 0.80541 0.21798 0.51165 0.0
O143 O 0.70569 0.16822 0.53016 0.0
O144 O 0.73998 0.27881 0.46534 0.0
O145 O 0.88639 0.2827 0.48472 0.0
O146 O 0.95731 0.25075 0.56428 0.0
O147 O 0.95075 0.33889 0.56549 0.0
O148 O 0.71597 0.32085 0.54228 0.0
O149 O 0.81731 0.37195 0.52697 0.0
O150 O 0.77869 0.26653 0.59037 0.0
O151 O 0.63421 0.25299 0.56981 0.0
H152 H 0.58672 0.31296 0.43199 0.0
H153 H 0.55768 0.31592 0.36732 0.0
H154 H 0.39238 0.17294 0.36935 0.0
H155 H 0.42444 0.16935 0.43406 0.0
H156 H 0.10807 0.23636 0.61252 0.0
H157 H 0.13424 0.23653 0.67797 0.0
H158 H 0.93753 0.36343 0.69788 0.0
H159 H 0.91109 0.36301 0.63255 0.0
C160 C 0.68198 0.58426 0.04335 0.0
C161 C 0.65885 0.63195 0.02744 0.0
C162 C 0.62138 0.54097 0.04422 0.0
C163 C 0.5358 0.54534 0.02857 0.0
C164 C 0.51198 0.59368 1.0127 0.0
C165 C 0.5737 0.63646 1.01244 0.0
C166 C 0.64914 0.4904 0.06171 0.0
C167 C 0.42166 0.59995 0.99558 0.0
C168 C 0.40945 0.41504 0.99992 0.0
C169 C 0.34898 0.4125 0.0286 0.0
C170 C 0.47082 0.458 0.99955 0.0
C171 C 0.47137 0.49928 0.02863 0.0
C172 C 0.40997 0.49661 0.05768 0.0
C173 C 0.34916 0.45327 0.05721 0.0
C174 C 0.53462 0.45939 0.96796 0.0
C175 C 0.40863 0.53949 0.08926 0.0
H176 H 0.74773 0.5807 0.05505 0.0
H177 H 0.55572 0.67317 0.99993 0.0
H178 H 0.60172 0.48232 0.08373 0.0
H179 H 0.64712 0.45476 0.04138 0.0
H180 H 0.71737 0.4938 0.07329 0.0
H181 H 0.41329 0.6402 0.98456 0.0
H182 H 0.41212 0.56774 0.97318 0.0
H183 H 0.36834 0.59492 1.0159 0.0
H184 H 0.40796 0.38377 0.97755 0.0
H185 H 0.3019 0.45106 0.07931 0.0
H186 H 0.60437 0.45982 0.97788 0.0
H187 H 0.52433 0.49722 0.9542 0.0
H188 H 0.52611 0.42397 0.9477 0.0
H189 H 0.47484 0.54174 0.10261 0.0
H190 H 0.35737 0.53122 0.10986 0.0
H191 H 0.3951 0.57995 0.07939 0.0
C192 C 0.44124 0.63437 0.51383 0.0
C193 C 0.35372 0.62827 0.52626 0.0
C194 C 0.50374 0.592 0.51469 0.0
C195 C 0.47804 0.54222 0.52821 0.0
C196 C 0.3898 0.53603 0.54102 0.0
C197 C 0.32872 0.57914 0.53989 0.0
C198 C 0.59707 0.60035 0.50081 0.0
C199 C 0.3597 0.4837 0.55566 0.0
C200 C 0.61258 0.41493 0.49907 0.0
C201 C 0.66694 0.41028 0.52931 0.0
C202 C 0.55061 0.4576 0.49833 0.0
C203 C 0.54323 0.49648 0.52865 0.0
C204 C 0.59846 0.4917 0.55933 0.0
C205 C 0.65994 0.44861 0.55924 0.0
C206 C 0.49344 0.46118 0.46503 0.0
C207 C 0.5926 0.53209 0.59222 0.0
H208 H 0.46073 0.67216 0.50304 0.0
H209 H 0.2611 0.57425 0.54951 0.0
H210 H 0.64624 0.59397 0.52244 0.0
H211 H 0.61174 0.57 0.47772 0.0
H212 H 0.60681 0.6417 0.49163 0.0
H213 H 0.2892 0.48558 0.56498 0.0
H214 H 0.36688 0.44959 0.53435 0.0
H215 H 0.40252 0.47425 0.57878 0.0
H216 H 0.61921 0.38542 0.47588 0.0
H217 H 0.70247 0.44474 0.58258 0.0
H218 H 0.50593 0.50025 0.45304 0.0
H219 H 0.42189 0.46046 0.47265 0.0
H220 H 0.50661 0.42731 0.44398 0.0
H221 H 0.60707 0.57359 0.58432 0.0
H222 H 0.63985 0.52249 0.61392 0.0
H223 H 0.52393 0.53269 0.60349 0.0
C224 C 0.07024 0.13782 1.01374 0.0
C225 C 0.15565 0.13233 0.02832 0.0
C226 C 0.00748 0.0956 1.01408 0.0
C227 C 0.03061 0.04679 0.0295 0.0
C228 C 0.11643 0.04145 0.04477 0.0
C229 C 0.17796 0.08424 0.04391 0.0
C230 C 0.91687 0.10294 0.99747 0.0
C231 C 0.14356 0.9903 0.0617 0.0
C232 C 0.84434 0.95434 0.05805 0.0
C233 C 0.84342 0.9141 0.0291 0.0
C234 C 0.90494 0.9978 0.05857 0.0
C235 C 0.96551 1.00104 0.02929 0.0
C236 C 0.96402 0.96039 0.99984 0.0
C237 C 0.90275 0.91738 1.00011 0.0
C238 C 0.90451 0.04007 0.09051 0.0
C239 C 0.027 0.96237 0.96803 0.0
H240 H 0.05288 0.17484 1.00147 0.0
H241 H 0.24389 0.07991 0.05528 0.0
H242 H 0.90646 0.0715 0.97465 0.0
H243 H 0.86391 0.09746 1.01787 0.0
H244 H 0.90877 0.14367 0.98712 0.0
H245 H 0.21199 0.99302 0.07313 0.0
H246 H 0.09629 0.98203 0.08373 0.0
H247 H 0.14071 0.95507 0.04107 0.0
H248 H 0.79795 0.95155 0.08039 0.0
H249 H 0.90068 0.88652 0.9775 0.0
H250 H 0.89185 0.08089 0.08105 0.0
H251 H 0.97078 0.04149 0.10382 0.0
H252 H 0.85311 0.03174 0.11104 0.0
H253 H 0.01658 1.00059 0.95473 0.0
H254 H 0.01777 0.92741 0.94746 0.0
H255 H 0.09701 0.96238 0.97763 0.0
C256 C 0.83558 0.08295 0.54475 0.0
C257 C 0.85741 0.12975 0.52757 0.0
C258 C 0.89713 0.04019 0.54634 0.0
C259 C 0.9822 0.04407 0.52997 0.0
C260 C 1.00475 0.09155 0.51285 0.0
C261 C 0.94226 0.13394 0.51205 0.0
C262 C 0.87085 0.99065 0.56528 0.0
C263 C 0.09432 0.09718 0.49481 0.0
C264 C 0.171 0.953 0.55813 0.0
C265 C 0.16886 0.91082 0.53044 0.0
C266 C 0.1102 0.99649 0.55851 0.0
C267 C 0.04691 0.99804 0.53017 0.0
C268 C 0.04554 0.95554 0.50192 0.0
C269 C 0.10645 0.91231 0.50253 0.0
C270 C 0.11333 0.04058 0.58931 0.0
C271 C 0.98021 0.95587 0.47092 0.0
H272 H 0.77014 0.07969 0.5569 0.0
H273 H 0.95928 0.17001 0.49863 0.0
H274 H 0.87148 0.95421 0.5456 0.0
H275 H 0.91988 0.98342 0.58681 0.0
H276 H 0.80348 0.99475 0.57778 0.0
H277 H 0.10179 0.13686 0.48293 0.0
H278 H 0.14852 0.09307 0.51477 0.0
H279 H 0.10329 0.06411 0.47288 0.0
H280 H 0.21973 0.95162 0.57968 0.0
H281 H 0.10634 0.88008 0.48085 0.0
H282 H 0.04795 0.04351 0.60346 0.0
H283 H 0.12607 0.08049 0.57851 0.0
H284 H 0.16588 0.03307 0.60945 0.0
H285 H 0.91096 0.95649 0.48156 0.0
H286 H 0.98818 0.91991 0.45103 0.0
H287 H 0.98934 0.99321 0.45652 0.0
C288 C 0.44295 0.29549 0.30784 0.0
C289 C 0.45616 0.24584 0.32313 0.0
C290 C 0.4257 0.29729 0.27058 0.0
C291 C 0.42065 0.24825 0.24794 0.0
C292 C 0.43502 0.19805 0.26303 0.0
C293 C 0.45293 0.19746 0.30034 0.0
C294 C 0.411 0.35169 0.25557 0.0
C295 C 0.42989 0.14485 0.23988 0.0
C296 C 0.28092 0.25015 0.16236 0.0
C297 C 0.34605 0.25382 0.13525 0.0
C298 C 0.30446 0.24781 0.19895 0.0
C299 C 0.3955 0.24935 0.20893 0.0
C300 C 0.46178 0.25259 0.18177 0.0
C301 C 0.43629 0.25461 0.14523 0.0
C302 C 0.23171 0.24419 0.22704 0.0
C303 C 0.55953 0.25477 0.19139 0.0
H304 H 0.4442 0.33308 0.32516 0.0
H305 H 0.46473 0.15895 0.31164 0.0
H306 H 0.45595 0.35606 0.23208 0.0
H307 H 0.34157 0.35436 0.24559 0.0
H308 H 0.42283 0.38621 0.27622 0.0
H309 H 0.44563 0.10942 0.25547 0.0
H310 H 0.36189 0.13945 0.22841 0.0
H311 H 0.47693 0.14512 0.21667 0.0
H312 H 0.21103 0.24934 0.15507 0.0
H313 H 0.48712 0.25764 0.12459 0.0
H314 H 0.23422 0.28021 0.24703 0.0
H315 H 0.24196 0.20773 0.24223 0.0
H316 H 0.16425 0.24198 0.21478 0.0
H317 H 0.57294 0.29109 0.2103 0.0
H318 H 0.60291 0.25643 0.16708 0.0
H319 H 0.57822 0.21858 0.20565 0.0
C320 C 0.41678 0.74897 0.24672 0.0
C321 C 0.45745 0.7938 0.23247 0.0
C322 C 0.40066 0.74827 0.28417 0.0
C323 C 0.42575 0.79348 0.30803 0.0
C324 C 0.46827 0.83844 0.29392 0.0
C325 C 0.48374 0.83801 0.25636 0.0
C326 C 0.35485 0.69963 0.29811 0.0
C327 C 0.49522 0.88763 0.31839 0.0
C328 C 0.29599 0.81249 0.39666 0.0
C329 C 0.35487 0.79119 0.42129 0.0
C330 C 0.31927 0.81494 0.36001 0.0
C331 C 0.40322 0.7948 0.34745 0.0
C332 C 0.46401 0.77445 0.37237 0.0
C333 C 0.43932 0.77324 0.4091 0.0
C334 C 0.25253 0.83758 0.33463 0.0
C335 C 0.55398 0.75243 0.36002 0.0
H336 H 0.39548 0.71489 0.22845 0.0
H337 H 0.51649 0.87244 0.24565 0.0
H338 H 0.39455 0.68375 0.32025 0.0
H339 H 0.28884 0.71196 0.30967 0.0
H340 H 0.34482 0.66633 0.27641 0.0
H341 H 0.53088 0.91832 0.3034 0.0
H342 H 0.43503 0.90696 0.33137 0.0
H343 H 0.53889 0.87529 0.34048 0.0
H344 H 0.23128 0.82727 0.406 0.0
H345 H 0.48501 0.75651 0.42798 0.0
H346 H 0.22009 0.80351 0.31821 0.0
H347 H 0.28555 0.86374 0.31558 0.0
H348 H 0.19981 0.86181 0.34967 0.0
H349 H 0.54497 0.71646 0.34033 0.0
H350 H 0.59513 0.74032 0.383 0.0
H351 H 0.59103 0.78331 0.3458 0.0
C352 C 0.57153 0.78746 0.91024 0.0
C353 C 0.66134 0.7914 0.92059 0.0
C354 C 0.54653 0.78894 0.87365 0.0
C355 C 0.61286 0.79498 0.84688 0.0
C356 C 0.70341 0.80005 0.8573 0.0
C357 C 0.72647 0.79806 0.89394 0.0
C358 C 0.44939 0.78288 0.86352 0.0
C359 C 0.77633 0.80675 0.8297 0.0
C360 C 0.57151 0.7466 0.748 0.0
C361 C 0.55175 0.79544 0.73282 0.0
C362 C 0.58923 0.74569 0.78526 0.0
C363 C 0.58821 0.79492 0.80782 0.0
C364 C 0.56716 0.84428 0.79271 0.0
C365 C 0.54861 0.84389 0.75542 0.0
C366 C 0.61018 0.69212 0.80039 0.0
C367 C 0.56663 0.8977 0.81574 0.0
H368 H 0.52085 0.78204 0.9306 0.0
H369 H 0.79604 0.8015 0.90163 0.0
H370 H 0.42714 0.8182 0.84912 0.0
H371 H 0.44022 0.74604 0.8446 0.0
H372 H 0.40582 0.77954 0.88761 0.0
H373 H 0.84253 0.81413 0.84259 0.0
H374 H 0.78097 0.76956 0.81079 0.0
H375 H 0.76058 0.84114 0.81323 0.0
H376 H 0.57278 0.70897 0.73067 0.0
H377 H 0.53401 0.88177 0.74372 0.0
H378 H 0.56488 0.68559 0.82343 0.0
H379 H 0.67926 0.69274 0.81106 0.0
H380 H 0.60364 0.65718 0.77963 0.0
H381 H 0.52064 0.89551 0.83914 0.0
H382 H 0.54606 0.93222 0.80012 0.0
H383 H 0.63424 0.90614 0.82693 0.0
C384 C 0.57488 0.24272 0.64338 0.0
C385 C 0.66439 0.25208 0.63468 0.0
C386 C 0.54763 0.23984 0.67971 0.0
C387 C 0.61134 0.24655 0.70799 0.0
C388 C 0.70181 0.25559 0.69933 0.0
C389 C 0.72712 0.2582 0.66291 0.0
C390 C 0.45063 0.22985 0.68785 0.0
C391 C 0.77203 0.26309 0.72858 0.0
C392 C 0.54125 0.29091 0.80508 0.0
C393 C 0.54541 0.24183 0.82168 0.0
C394 C 0.55997 0.29277 0.76789 0.0
C395 C 0.58397 0.24445 0.74675 0.0
C396 C 0.58653 0.1946 0.7632 0.0
C397 C 0.56704 0.19388 0.80041 0.0
C398 C 0.55576 0.34667 0.75136 0.0
C399 C 0.61237 0.14224 0.74173 0.0
H400 H 0.5259 0.23786 0.62186 0.0
H401 H 0.79651 0.26541 0.65668 0.0
H402 H 0.44385 0.19262 0.70255 0.0
H403 H 0.42355 0.26416 0.70588 0.0
H404 H 0.40948 0.22509 0.66283 0.0
H405 H 0.84017 0.26678 0.71721 0.0
H406 H 0.75728 0.30029 0.74653 0.0
H407 H 0.77124 0.22829 0.74578 0.0
H408 H 0.52317 0.32795 0.82123 0.0
H409 H 0.57115 0.15589 0.8131 0.0
H410 H 0.51111 0.34368 0.72739 0.0
H411 H 0.623 0.35761 0.74175 0.0
H412 H 0.53137 0.37996 0.77098 0.0
H413 H 0.56978 0.13553 0.71727 0.0
H414 H 0.60634 0.10648 0.75799 0.0
H415 H 0.68233 0.14489 0.7322 0.0
C416 C 0.93613 0.75487 0.14493 0.0
C417 C 0.8458 0.75496 0.13512 0.0
C418 C 0.96181 0.7529 0.18144 0.0
C419 C 0.89562 0.75072 0.20875 0.0
C420 C 0.80447 0.75018 0.19895 0.0
C421 C 0.78076 0.75234 0.16238 0.0
C422 C 0.05968 0.75391 0.19089 0.0
C423 C 0.7318 0.74777 0.2272 0.0
C424 C 0.95103 0.69874 0.30026 0.0
C425 C 0.95592 0.7472 0.32289 0.0
C426 C 0.93339 0.69932 0.26294 0.0
C427 C 0.92096 0.74958 0.24771 0.0
C428 C 0.92782 0.79868 0.27017 0.0
C429 C 0.94482 0.79691 0.30745 0.0
C430 C 0.92638 0.64605 0.23995 0.0
C431 C 0.91515 0.85314 0.25499 0.0
H432 H 0.98689 0.75707 0.12417 0.0
H433 H 0.71077 0.75226 0.15524 0.0
H434 H 0.07446 0.79017 0.20966 0.0
H435 H 0.07725 0.71761 0.20523 0.0
H436 H 0.10294 0.75486 0.16649 0.0
H437 H 0.66414 0.74692 0.21511 0.0
H438 H 0.74035 0.711 0.24224 0.0
H439 H 0.7363 0.78358 0.2473 0.0
H440 H 0.96125 0.66017 0.3117 0.0
H441 H 0.94743 0.83457 0.32466 0.0
H442 H 0.97317 0.64561 0.21661 0.0
H443 H 0.8581 0.64139 0.22865 0.0
H444 H 0.94116 0.61056 0.25561 0.0
H445 H 0.96012 0.85668 0.2314 0.0
H446 H 0.9284 0.88761 0.27551 0.0
H447 H 0.84577 0.85672 0.24511 0.0
C448 C 0.93998 0.27363 0.40866 0.0
C449 C 0.85496 0.29055 0.42082 0.0
C450 C 0.96446 0.27491 0.37192 0.0
C451 C 0.90289 0.29432 0.34693 0.0
C452 C 0.81823 0.31332 0.35942 0.0
C453 C 0.79517 0.31077 0.39608 0.0
C454 C 0.05518 0.25407 0.35963 0.0
C455 C 0.75056 0.33492 0.33399 0.0
C456 C 0.98216 0.33905 0.25605 0.0
C457 C 0.9575 0.29464 0.23201 0.0
C458 C 0.96652 0.33907 0.29358 0.0
C459 C 0.92561 0.29346 0.30753 0.0
C460 C 0.90222 0.24805 0.28353 0.0
C461 C 0.91836 0.2492 0.2461 0.0
C462 C 0.99145 0.38854 0.31819 0.0
C463 C 0.85816 0.19872 0.29729 0.0
H464 H 0.98637 0.25772 0.42761 0.0
H465 H 0.72994 0.32469 0.40537 0.0
H466 H 0.04746 0.21818 0.33976 0.0
H467 H 0.09132 0.28555 0.34563 0.0
H468 H 0.09657 0.24221 0.38261 0.0
H469 H 0.69778 0.35914 0.34899 0.0
H470 H 0.78259 0.36083 0.31452 0.0
H471 H 0.71833 0.30031 0.31804 0.0
H472 H 0.01377 0.37397 0.2455 0.0
H473 H 0.89827 0.21493 0.22774 0.0
H474 H 0.03549 0.37675 0.34032 0.0
H475 H 0.93046 0.40694 0.33111 0.0
H476 H 0.02596 0.41982 0.30333 0.0
H477 H 0.8982 0.18335 0.31952 0.0
H478 H 0.84967 0.16533 0.27553 0.0
H479 H 0.79156 0.21006 0.30868 0.0
C480 C 0.06543 0.34824 0.75444 0.0
C481 C 0.05307 0.29949 0.73278 0.0
C482 C 0.08388 0.3481 0.79172 0.0
C483 C 0.08926 0.29802 0.8078 0.0
C484 C 0.07445 0.24877 0.78623 0.0
C485 C 0.0569 0.25009 0.74897 0.0
C486 C 0.10005 0.40145 0.8137 0.0
C487 C 0.07864 0.19457 0.80237 0.0
C488 C 0.22893 0.28948 0.89282 0.0
C489 C 0.16378 0.29111 0.9203 0.0
C490 C 0.2056 0.29238 0.85627 0.0
C491 C 0.11469 0.29687 0.84674 0.0
C492 C 0.04853 0.29917 0.87431 0.0
C493 C 0.07386 0.29635 0.91078 0.0
C494 C 0.2784 0.28982 0.82781 0.0
C495 C 0.95091 0.30385 0.86519 0.0
H496 H 0.06311 0.3865 0.74199 0.0
H497 H 0.046 0.21237 0.73244 0.0
H498 H 0.05517 0.40531 0.83769 0.0
H499 H 0.16952 0.40269 0.82398 0.0
H500 H 0.08935 0.43695 0.79756 0.0
H501 H 0.06103 0.16024 0.78235 0.0
H502 H 0.14689 0.18767 0.81257 0.0
H503 H 0.03253 0.19438 0.8259 0.0
H504 H 0.29869 0.28555 0.89974 0.0
H505 H 0.02304 0.29758 0.93174 0.0
H506 H 0.27319 0.32502 0.81107 0.0
H507 H 0.27071 0.25246 0.80927 0.0
H508 H 0.34606 0.28965 0.83994 0.0
H509 H 0.9393 0.34059 0.85043 0.0
H510 H 0.90782 0.3062 0.88978 0.0
H511 H 0.93018 0.26823 0.8469 0.0
C512 C 0.22507 0.74628 0.66167 0.0
C513 C 0.16139 0.75133 0.63432 0.0
C514 C 0.19988 0.74484 0.69819 0.0
C515 C 0.10855 0.74878 0.70786 0.0
C516 C 0.04369 0.75335 0.68042 0.0
C517 C 0.07085 0.75433 0.64394 0.0
C518 C 0.27135 0.73966 0.72648 0.0
C519 C 0.94575 0.75813 0.68968 0.0
C520 C 0.04274 0.69904 0.7991 0.0
C521 C 0.04285 0.74749 0.82177 0.0
C522 C 0.06238 0.69895 0.76187 0.0
C523 C 0.08157 0.74861 0.74679 0.0
C524 C 0.0793 0.79784 0.76937 0.0
C525 C 0.06053 0.79664 0.80661 0.0
C526 C 0.06524 0.64552 0.73888 0.0
C527 C 0.09814 0.85172 0.75431 0.0
H528 H 0.2952 0.74359 0.65461 0.0
H529 H 0.0212 0.75849 0.62308 0.0
H530 H 0.27186 0.77657 0.74573 0.0
H531 H 0.25703 0.70451 0.74246 0.0
H532 H 0.33891 0.7343 0.71428 0.0
H533 H 0.90358 0.76082 0.66521 0.0
H534 H 0.92398 0.72254 0.70393 0.0
H535 H 0.93397 0.79485 0.70848 0.0
H536 H 0.02982 0.66089 0.81074 0.0
H537 H 0.05947 0.83427 0.82393 0.0
H538 H 0.13379 0.63798 0.72825 0.0
H539 H 0.02055 0.64704 0.7151 0.0
H540 H 0.04512 0.61076 0.75436 0.0
H541 H 0.16783 0.8524 0.74422 0.0
H542 H 0.08849 0.88656 0.77495 0.0
H543 H 0.05388 0.85728 0.73087 0.0
loop_
_geom_bond_atom_site_label_1
_geom_bond_atom_site_label_2
_geom_bond_distance
_geom_bond_site_symmetry_2
_ccdc_geom_bond_type
Tb0 C2 2.809 . S
Tb0 O20 2.484 . S
Tb0 O21 2.440 . S
Tb0 O22 2.658 1_554 S
Tb0 O23 2.409 . S
Tb0 O24 2.378 . S
Tb0 O28 2.325 . S
Tb0 O31 2.341 1_554 S
Tb1 C11 2.809 . S
Tb1 O22 2.325 . S
Tb1 O25 2.341 1_556 S
Tb1 O26 2.484 . S
Tb1 O27 2.440 . S
Tb1 O28 2.658 1_556 S
Tb1 O29 2.409 . S
Tb1 O30 2.378 . S
C2 Tb0 2.809 . S
C2 C3 1.514 . S
C2 O20 1.248 . S
C2 O21 1.266 . S
C3 C2 1.514 . S
C3 C4 1.359 . S
C3 C8 1.348 . S
C4 C3 1.359 . S
C4 C5 1.380 . S
C4 H32 0.929 . S
C5 C4 1.380 . S
C5 C6 1.347 . S
C5 H33 0.931 1_455 S
C6 C5 1.347 . S
C6 C7 1.369 . S
C7 C6 1.369 . S
C7 C8 1.408 . S
C7 H34 0.930 . S
C8 C3 1.348 . S
C8 C7 1.408 . S
C8 H35 0.930 . S
C9 O22 1.281 1_554 S
C9 O23 1.254 . S
C10 O24 1.236 . S
C10 O25 1.266 . S
C11 Tb1 2.809 . S
C11 C12 1.514 . S
C11 O26 1.248 . S
C11 O27 1.266 . S
C12 C11 1.514 . S
C12 C13 1.359 . S
C12 C17 1.348 . S
C13 C12 1.359 . S
C13 C14 1.380 . S
C13 H36 0.929 . S
C14 C13 1.380 . S
C14 C15 1.347 . S
C14 H37 0.931 . S
C15 C14 1.347 . S
C15 C16 1.369 . S
C16 C15 1.369 . S
C16 C17 1.408 . S
C16 H38 0.930 . S
C17 C12 1.348 . S
C17 C16 1.408 . S
C17 H39 0.930 . S
C18 O28 1.281 . S
C18 O29 1.254 1_554 S
C19 O30 1.236 . S
C19 O31 1.266 . S
O20 Tb0 2.484 . S
O20 C2 1.248 . S
O21 Tb0 2.440 . S
O21 C2 1.266 . S
O22 Tb0 2.658 1_556 S
O22 Tb1 2.325 . S
O22 C9 1.281 1_556 S
O23 Tb0 2.409 . S
O23 C9 1.254 . S
O24 Tb0 2.378 . S
O24 C10 1.236 . S
O25 Tb1 2.341 1_554 S
O25 C10 1.266 . S
O26 Tb1 2.484 . S
O26 C11 1.248 . S
O27 Tb1 2.440 . S
O27 C11 1.266 . S
O28 Tb0 2.325 . S
O28 Tb1 2.658 1_554 S
O28 C18 1.281 . S
O29 Tb1 2.409 . S
O29 C18 1.254 1_556 S
O30 Tb1 2.378 . S
O30 C19 1.236 . S
O31 Tb0 2.341 1_556 S
O31 C19 1.266 . S
H32 C4 0.929 . S
H33 C5 0.931 1_655 S
H34 C7 0.930 . S
H35 C8 0.930 . S
H36 C13 0.929 . S
H37 C14 0.931 . S
H38 C16 0.930 . S
H39 C17 0.930 . S
Tb40 C42 2.809 . S
Tb40 O60 2.484 . S
Tb40 O61 2.440 . S
Tb40 O62 2.658 1_554 S
Tb40 O63 2.409 . S
Tb40 O64 2.378 . S
Tb40 O68 2.325 . S
Tb40 O71 2.341 1_554 S
Tb41 C51 2.809 . S
Tb41 O62 2.325 . S
Tb41 O65 2.341 1_556 S
Tb41 O66 2.484 . S
Tb41 O67 2.440 . S
Tb41 O68 2.658 1_556 S
Tb41 O69 2.409 . S
Tb41 O70 2.378 . S
C42 Tb40 2.809 . S
C42 C43 1.514 . S
C42 O60 1.248 . S
C42 O61 1.266 . S
C43 C42 1.514 . S
C43 C44 1.359 . S
C43 C48 1.348 . S
C44 C43 1.359 . S
C44 C45 1.380 . S
C44 H72 0.929 . S
C45 C44 1.380 . S
C45 C46 1.347 . S
C45 H73 0.931 . S
C46 C45 1.347 . S
C46 C47 1.369 . S
C47 C46 1.369 . S
C47 C48 1.408 . S
C47 H74 0.930 . S
C48 C43 1.348 . S
C48 C47 1.408 . S
C48 H75 0.930 . S
C49 O62 1.281 1_554 S
C49 O63 1.254 . S
C50 O64 1.236 . S
C50 O65 1.266 . S
C51 Tb41 2.809 . S
C51 C52 1.514 . S
C51 O66 1.248 . S
C51 O67 1.266 . S
C52 C51 1.514 . S
C52 C53 1.359 . S
C52 C57 1.348 . S
C53 C52 1.359 . S
C53 C54 1.380 . S
C53 H76 0.929 . S
C54 C53 1.380 . S
C54 C55 1.347 . S
C54 H77 0.931 1_655 S
C55 C54 1.347 . S
C55 C56 1.369 . S
C56 C55 1.369 . S
C56 C57 1.408 . S
C56 H78 0.930 . S
C57 C52 1.348 . S
C57 C56 1.408 . S
C57 H79 0.930 . S
C58 O68 1.281 . S
C58 O69 1.254 1_554 S
C59 O70 1.236 . S
C59 O71 1.266 . S
O60 Tb40 2.484 . S
O60 C42 1.248 . S
O61 Tb40 2.440 . S
O61 C42 1.266 . S
O62 Tb40 2.658 1_556 S
O62 Tb41 2.325 . S
O62 C49 1.281 1_556 S
O63 Tb40 2.409 . S
O63 C49 1.254 . S
O64 Tb40 2.378 . S
O64 C50 1.236 . S
O65 Tb41 2.341 1_554 S
O65 C50 1.266 . S
O66 Tb41 2.484 . S
O66 C51 1.248 . S
O67 Tb41 2.440 . S
O67 C51 1.266 . S
O68 Tb40 2.325 . S
O68 Tb41 2.658 1_554 S
O68 C58 1.281 . S
O69 Tb41 2.409 . S
O69 C58 1.254 1_556 S
O70 Tb41 2.378 . S
O70 C59 1.236 . S
O71 Tb40 2.341 1_556 S
O71 C59 1.266 . S
H72 C44 0.929 . S
H73 C45 0.931 . S
H74 C47 0.930 . S
H75 C48 0.930 . S
H76 C53 0.929 . S
H77 C54 0.931 1_455 S
H78 C56 0.930 . S
H79 C57 0.930 . S
Tb80 C82 2.809 . S
Tb80 O100 2.484 . S
Tb80 O101 2.440 . S
Tb80 O102 2.658 . S
Tb80 O103 2.409 . S
Tb80 O104 2.378 . S
Tb80 O108 2.325 . S
Tb80 O111 2.341 . S
Tb81 C91 2.809 . S
Tb81 O102 2.325 . S
Tb81 O105 2.341 . S
Tb81 O106 2.484 . S
Tb81 O107 2.440 . S
Tb81 O108 2.658 . S
Tb81 O109 2.409 . S
Tb81 O110 2.378 . S
C82 Tb80 2.809 . S
C82 C83 1.514 . S
C82 O100 1.248 . S
C82 O101 1.266 . S
C83 C82 1.514 . S
C83 C84 1.359 . S
C83 C88 1.348 . S
C84 C83 1.359 . S
C84 C85 1.380 . S
C84 H112 0.929 . S
C85 C84 1.380 . S
C85 C86 1.347 . S
C85 H113 0.931 1_455 S
C86 C85 1.347 . S
C86 C87 1.369 . S
C87 C86 1.369 . S
C87 C88 1.408 . S
C87 H114 0.930 . S
C88 C83 1.348 . S
C88 C87 1.408 . S
C88 H115 0.930 . S
C89 O102 1.281 . S
C89 O103 1.254 . S
C90 O104 1.236 . S
C90 O105 1.266 . S
C91 Tb81 2.809 . S
C91 C92 1.514 . S
C91 O106 1.248 . S
C91 O107 1.266 . S
C92 C91 1.514 . S
C92 C93 1.359 . S
C92 C97 1.348 . S
C93 C92 1.359 . S
C93 C94 1.380 . S
C93 H116 0.929 . S
C94 C93 1.380 . S
C94 C95 1.347 . S
C94 H117 0.931 . S
C95 C94 1.347 . S
C95 C96 1.369 . S
C96 C95 1.369 . S
C96 C97 1.408 . S
C96 H118 0.930 . S
C97 C92 1.348 . S
C97 C96 1.408 . S
C97 H119 0.930 . S
C98 O108 1.281 . S
C98 O109 1.254 . S
C99 O110 1.236 . S
C99 O111 1.266 . S
O100 Tb80 2.484 . S
O100 C82 1.248 . S
O101 Tb80 2.440 . S
O101 C82 1.266 . S
O102 Tb80 2.658 . S
O102 Tb81 2.325 . S
O102 C89 1.281 . S
O103 Tb80 2.409 . S
O103 C89 1.254 . S
O104 Tb80 2.378 . S
O104 C90 1.236 . S
O105 Tb81 2.341 . S
O105 C90 1.266 . S
O106 Tb81 2.484 . S
O106 C91 1.248 . S
O107 Tb81 2.440 . S
O107 C91 1.266 . S
O108 Tb80 2.325 . S
O108 Tb81 2.658 . S
O108 C98 1.281 . S
O109 Tb81 2.409 . S
O109 C98 1.254 . S
O110 Tb81 2.378 . S
O110 C99 1.236 . S
O111 Tb80 2.341 . S
O111 C99 1.266 . S
H112 C84 0.929 . S
H113 C85 0.931 1_655 S
H114 C87 0.930 . S
H115 C88 0.930 . S
H116 C93 0.929 . S
H117 C94 0.931 . S
H118 C96 0.930 . S
H119 C97 0.930 . S
Tb120 C122 2.809 . S
Tb120 O140 2.484 . S
Tb120 O141 2.440 . S
Tb120 O142 2.658 . S
Tb120 O143 2.409 . S
Tb120 O144 2.378 . S
Tb120 O148 2.325 . S
Tb120 O151 2.341 . S
Tb121 C131 2.809 . S
Tb121 O142 2.325 . S
Tb121 O145 2.341 . S
Tb121 O146 2.484 . S
Tb121 O147 2.440 . S
Tb121 O148 2.658 . S
Tb121 O149 2.409 . S
Tb121 O150 2.378 . S
C122 Tb120 2.809 . S
C122 C123 1.514 . S
C122 O140 1.248 . S
C122 O141 1.266 . S
C123 C122 1.514 . S
C123 C124 1.359 . S
C123 C128 1.348 . S
C124 C123 1.359 . S
C124 C125 1.380 . S
C124 H152 0.929 . S
C125 C124 1.380 . S
C125 C126 1.347 . S
C125 H153 0.931 . S
C126 C125 1.347 . S
C126 C127 1.369 . S
C127 C126 1.369 . S
C127 C128 1.408 . S
C127 H154 0.930 . S
C128 C123 1.348 . S
C128 C127 1.408 . S
C128 H155 0.930 . S
C129 O142 1.281 . S
C129 O143 1.254 . S
C130 O144 1.236 . S
C130 O145 1.266 . S
C131 Tb121 2.809 . S
C131 C132 1.514 . S
C131 O146 1.248 . S
C131 O147 1.266 . S
C132 C131 1.514 . S
C132 C133 1.359 . S
C132 C137 1.348 . S
C133 C132 1.359 . S
C133 C134 1.380 . S
C133 H156 0.929 . S
C134 C133 1.380 . S
C134 C135 1.347 . S
C134 H157 0.931 1_655 S
C135 C134 1.347 . S
C135 C136 1.369 . S
C136 C135 1.369 . S
C136 C137 1.408 . S
C136 H158 0.930 . S
C137 C132 1.348 . S
C137 C136 1.408 . S
C137 H159 0.930 . S
C138 O148 1.281 . S
C138 O149 1.254 . S
C139 O150 1.236 . S
C139 O151 1.266 . S
O140 Tb120 2.484 . S
O140 C122 1.248 . S
O141 Tb120 2.440 . S
O141 C122 1.266 . S
O142 Tb120 2.658 . S
O142 Tb121 2.325 . S
O142 C129 1.281 . S
O143 Tb120 2.409 . S
O143 C129 1.254 . S
O144 Tb120 2.378 . S
O144 C130 1.236 . S
O145 Tb121 2.341 . S
O145 C130 1.266 . S
O146 Tb121 2.484 . S
O146 C131 1.248 . S
O147 Tb121 2.440 . S
O147 C131 1.266 . S
O148 Tb120 2.325 . S
O148 Tb121 2.658 . S
O148 C138 1.281 . S
O149 Tb121 2.409 . S
O149 C138 1.254 . S
O150 Tb121 2.378 . S
O150 C139 1.236 . S
O151 Tb120 2.341 . S
O151 C139 1.266 . S
H152 C124 0.929 . S
H153 C125 0.931 . S
H154 C127 0.930 . S
H155 C128 0.930 . S
H156 C133 0.929 . S
H157 C134 0.931 1_455 S
H158 C136 0.930 . S
H159 C137 0.930 . S
C160 C161 1.391 . S
C160 C162 1.394 . S
C160 H176 0.931 . S
C161 C160 1.391 . S
C161 C165 1.376 1_554 S
C162 C160 1.394 . S
C162 C163 1.369 . S
C162 C166 1.531 . S
C163 C162 1.369 . S
C163 C164 1.410 1_554 S
C163 C171 1.503 . S
C164 C163 1.410 1_556 S
C164 C165 1.392 . S
C164 C167 1.511 . S
C165 C161 1.376 1_556 S
C165 C164 1.392 . S
C165 H177 0.929 . S
C166 C162 1.531 . S
C166 H178 0.960 . S
C166 H179 0.962 . S
C166 H180 0.960 . S
C167 C164 1.511 . S
C167 H181 0.961 . S
C167 H182 0.961 . S
C167 H183 0.961 . S
C168 C169 1.370 1_556 S
C168 C170 1.363 . S
C168 H184 0.931 . S
C169 C168 1.370 1_554 S
C169 C173 1.408 . S
C170 C168 1.363 . S
C170 C171 1.370 1_556 S
C170 C174 1.524 . S
C171 C163 1.503 . S
C171 C170 1.370 1_554 S
C171 C172 1.403 . S
C172 C171 1.403 . S
C172 C173 1.404 . S
C172 C175 1.539 . S
C173 C169 1.408 . S
C173 C172 1.404 . S
C173 H185 0.930 . S
C174 C170 1.524 . S
C174 H186 0.956 . S
C174 H187 0.961 . S
C174 H188 0.961 . S
C175 C172 1.539 . S
C175 H189 0.958 . S
C175 H190 0.961 . S
C175 H191 0.960 . S
H176 C160 0.931 . S
H177 C165 0.929 . S
H178 C166 0.960 . S
H179 C166 0.962 . S
H180 C166 0.960 . S
H181 C167 0.961 . S
H182 C167 0.961 . S
H183 C167 0.961 . S
H184 C168 0.931 . S
H185 C173 0.930 . S
H186 C174 0.956 . S
H187 C174 0.961 . S
H188 C174 0.961 . S
H189 C175 0.958 . S
H190 C175 0.961 . S
H191 C175 0.960 . S
C192 C193 1.391 . S
C192 C194 1.394 . S
C192 H208 0.931 . S
C193 C192 1.391 . S
C193 C197 1.376 . S
C194 C192 1.394 . S
C194 C195 1.369 . S
C194 C198 1.531 . S
C195 C194 1.369 . S
C195 C196 1.410 . S
C195 C203 1.503 . S
C196 C195 1.410 . S
C196 C197 1.392 . S
C196 C199 1.511 . S
C197 C193 1.376 . S
C197 C196 1.392 . S
C197 H209 0.929 . S
C198 C194 1.531 . S
C198 H210 0.960 . S
C198 H211 0.962 . S
C198 H212 0.960 . S
C199 C196 1.511 . S
C199 H213 0.961 . S
C199 H214 0.961 . S
C199 H215 0.961 . S
C200 C201 1.370 . S
C200 C202 1.363 . S
C200 H216 0.931 . S
C201 C200 1.370 . S
C201 C205 1.408 . S
C202 C200 1.363 . S
C202 C203 1.370 . S
C202 C206 1.524 . S
C203 C195 1.503 . S
C203 C202 1.370 . S
C203 C204 1.403 . S
C204 C203 1.403 . S
C204 C205 1.404 . S
C204 C207 1.539 . S
C205 C201 1.408 . S
C205 C204 1.404 . S
C205 H217 0.930 . S
C206 C202 1.524 . S
C206 H218 0.956 . S
C206 H219 0.961 . S
C206 H220 0.961 . S
C207 C204 1.539 . S
C207 H221 0.958 . S
C207 H222 0.961 . S
C207 H223 0.960 . S
H208 C192 0.931 . S
H209 C197 0.929 . S
H210 C198 0.960 . S
H211 C198 0.962 . S
H212 C198 0.960 . S
H213 C199 0.961 . S
H214 C199 0.961 . S
H215 C199 0.961 . S
H216 C200 0.931 . S
H217 C205 0.930 . S
H218 C206 0.956 . S
H219 C206 0.961 . S
H220 C206 0.961 . S
H221 C207 0.958 . S
H222 C207 0.961 . S
H223 C207 0.960 . S
C224 C225 1.391 1_556 S
C224 C226 1.392 1_455 S
C224 H240 0.931 . S
C225 C224 1.391 1_554 S
C225 C229 1.376 . S
C226 C224 1.392 1_655 S
C226 C227 1.364 1_656 S
C226 C230 1.533 . S
C227 C226 1.364 1_454 S
C227 C228 1.413 . S
C227 C235 1.505 1_445 S
C228 C227 1.413 . S
C228 C229 1.392 . S
C228 C231 1.511 1_545 S
C229 C225 1.376 . S
C229 C228 1.392 . S
C229 H241 0.929 . S
C230 C226 1.533 . S
C230 H242 0.960 . S
C230 H243 0.962 . S
C230 H244 0.960 . S
C231 C228 1.511 1_565 S
C231 H245 0.961 . S
C231 H246 0.961 . S
C231 H247 0.961 . S
C232 C233 1.370 . S
C232 C234 1.363 . S
C232 H248 0.931 . S
C233 C232 1.370 . S
C233 C237 1.408 1_554 S
C234 C232 1.363 . S
C234 C235 1.370 . S
C234 C238 1.524 1_565 S
C235 C227 1.505 1_665 S
C235 C234 1.370 . S
C235 C236 1.403 1_554 S
C236 C235 1.403 1_556 S
C236 C237 1.404 . S
C236 C239 1.539 1_655 S
C237 C233 1.408 1_556 S
C237 C236 1.404 . S
C237 H249 0.930 . S
C238 C234 1.524 1_545 S
C238 H250 0.956 . S
C238 H251 0.961 . S
C238 H252 0.961 1_545 S
C239 C236 1.539 1_455 S
C239 H253 0.958 1_455 S
C239 H254 0.961 . S
C239 H255 0.960 . S
H240 C224 0.931 . S
H241 C229 0.929 . S
H242 C230 0.960 . S
H243 C230 0.962 . S
H244 C230 0.960 . S
H245 C231 0.961 . S
H246 C231 0.961 . S
H247 C231 0.961 . S
H248 C232 0.931 . S
H249 C237 0.930 . S
H250 C238 0.956 . S
H251 C238 0.961 . S
H252 C238 0.961 1_565 S
H253 C239 0.958 1_655 S
H254 C239 0.961 . S
H255 C239 0.960 . S
C256 C257 1.391 . S
C256 C258 1.394 . S
C256 H272 0.931 . S
C257 C256 1.391 . S
C257 C261 1.376 . S
C258 C256 1.394 . S
C258 C259 1.369 . S
C258 C262 1.531 1_545 S
C259 C258 1.369 . S
C259 C260 1.410 . S
C259 C267 1.503 1_645 S
C260 C259 1.410 . S
C260 C261 1.392 . S
C260 C263 1.511 1_655 S
C261 C257 1.376 . S
C261 C260 1.392 . S
C261 H273 0.929 . S
C262 C258 1.531 1_565 S
C262 H274 0.960 . S
C262 H275 0.962 . S
C262 H276 0.960 . S
C263 C260 1.511 1_455 S
C263 H277 0.961 . S
C263 H278 0.961 . S
C263 H279 0.961 . S
C264 C265 1.370 . S
C264 C266 1.363 . S
C264 H280 0.931 . S
C265 C264 1.370 . S
C265 C269 1.408 . S
C266 C264 1.363 . S
C266 C267 1.370 . S
C266 C270 1.524 1_565 S
C267 C259 1.503 1_465 S
C267 C266 1.370 . S
C267 C268 1.400 1_455 S
C268 C267 1.400 1_655 S
C268 C269 1.397 1_655 S
C268 C271 1.548 . S
C269 C265 1.408 . S
C269 C268 1.397 1_455 S
C269 H281 0.930 . S
C270 C266 1.524 1_545 S
C270 H282 0.956 . S
C270 H283 0.961 . S
C270 H284 0.961 . S
C271 C268 1.548 . S
C271 H285 0.958 . S
C271 H286 0.961 . S
C271 H287 0.960 . S
H272 C256 0.931 . S
H273 C261 0.929 . S
H274 C262 0.960 . S
H275 C262 0.962 . S
H276 C262 0.960 . S
H277 C263 0.961 . S
H278 C263 0.961 . S
H279 C263 0.961 . S
H280 C264 0.931 . S
H281 C269 0.930 . S
H282 C270 0.956 . S
H283 C270 0.961 . S
H284 C270 0.961 . S
H285 C271 0.958 . S
H286 C271 0.961 . S
H287 C271 0.960 . S
C288 C289 1.391 . S
C288 C290 1.394 . S
C288 H304 0.931 . S
C289 C288 1.391 . S
C289 C293 1.376 . S
C290 C288 1.394 . S
C290 C291 1.369 . S
C290 C294 1.531 . S
C291 C290 1.369 . S
C291 C292 1.410 . S
C291 C299 1.503 . S
C292 C291 1.410 . S
C292 C293 1.392 . S
C292 C295 1.511 . S
C293 C289 1.376 . S
C293 C292 1.392 . S
C293 H305 0.929 . S
C294 C290 1.531 . S
C294 H306 0.960 . S
C294 H307 0.962 . S
C294 H308 0.960 . S
C295 C292 1.511 . S
C295 H309 0.961 . S
C295 H310 0.961 . S
C295 H311 0.961 . S
C296 C297 1.370 . S
C296 C298 1.363 . S
C296 H312 0.931 . S
C297 C296 1.370 . S
C297 C301 1.408 . S
C298 C296 1.363 . S
C298 C299 1.370 . S
C298 C302 1.524 . S
C299 C291 1.503 . S
C299 C298 1.370 . S
C299 C300 1.403 . S
C300 C299 1.403 . S
C300 C301 1.404 . S
C300 C303 1.539 . S
C301 C297 1.408 . S
C301 C300 1.404 . S
C301 H313 0.930 . S
C302 C298 1.524 . S
C302 H314 0.956 . S
C302 H315 0.961 . S
C302 H316 0.961 . S
C303 C300 1.539 . S
C303 H317 0.958 . S
C303 H318 0.961 . S
C303 H319 0.960 . S
H304 C288 0.931 . S
H305 C293 0.929 . S
H306 C294 0.960 . S
H307 C294 0.962 . S
H308 C294 0.960 . S
H309 C295 0.961 . S
H310 C295 0.961 . S
H311 C295 0.961 . S
H312 C296 0.931 . S
H313 C301 0.930 . S
H314 C302 0.956 . S
H315 C302 0.961 . S
H316 C302 0.961 . S
H317 C303 0.958 . S
H318 C303 0.961 . S
H319 C303 0.960 . S
C320 C321 1.391 . S
C320 C322 1.394 . S
C320 H336 0.931 . S
C321 C320 1.391 . S
C321 C325 1.376 . S
C322 C320 1.394 . S
C322 C323 1.369 . S
C322 C326 1.531 . S
C323 C322 1.369 . S
C323 C324 1.410 . S
C323 C331 1.503 . S
C324 C323 1.410 . S
C324 C325 1.392 . S
C324 C327 1.511 . S
C325 C321 1.376 . S
C325 C324 1.392 . S
C325 H337 0.929 . S
C326 C322 1.531 . S
C326 H338 0.960 . S
C326 H339 0.962 . S
C326 H340 0.960 . S
C327 C324 1.511 . S
C327 H341 0.961 . S
C327 H342 0.961 . S
C327 H343 0.961 . S
C328 C329 1.370 . S
C328 C330 1.363 . S
C328 H344 0.931 . S
C329 C328 1.370 . S
C329 C333 1.408 . S
C330 C328 1.363 . S
C330 C331 1.370 . S
C330 C334 1.524 . S
C331 C323 1.503 . S
C331 C330 1.370 . S
C331 C332 1.403 . S
C332 C331 1.403 . S
C332 C333 1.404 . S
C332 C335 1.539 . S
C333 C329 1.408 . S
C333 C332 1.404 . S
C333 H345 0.930 . S
C334 C330 1.524 . S
C334 H346 0.956 . S
C334 H347 0.961 . S
C334 H348 0.961 . S
C335 C332 1.539 . S
C335 H349 0.958 . S
C335 H350 0.961 . S
C335 H351 0.960 . S
H336 C320 0.931 . S
H337 C325 0.929 . S
H338 C326 0.960 . S
H339 C326 0.962 . S
H340 C326 0.960 . S
H341 C327 0.961 . S
H342 C327 0.961 . S
H343 C327 0.961 . S
H344 C328 0.931 . S
H345 C333 0.930 . S
H346 C334 0.956 . S
H347 C334 0.961 . S
H348 C334 0.961 . S
H349 C335 0.958 . S
H350 C335 0.961 . S
H351 C335 0.960 . S
C352 C353 1.391 . S
C352 C354 1.394 . S
C352 H368 0.931 . S
C353 C352 1.391 . S
C353 C357 1.376 . S
C354 C352 1.394 . S
C354 C355 1.369 . S
C354 C358 1.531 . S
C355 C354 1.369 . S
C355 C356 1.410 . S
C355 C363 1.503 . S
C356 C355 1.410 . S
C356 C357 1.392 . S
C356 C359 1.511 . S
C357 C353 1.376 . S
C357 C356 1.392 . S
C357 H369 0.929 . S
C358 C354 1.531 . S
C358 H370 0.960 . S
C358 H371 0.962 . S
C358 H372 0.960 . S
C359 C356 1.511 . S
C359 H373 0.961 . S
C359 H374 0.961 . S
C359 H375 0.961 . S
C360 C361 1.370 . S
C360 C362 1.363 . S
C360 H376 0.931 . S
C361 C360 1.370 . S
C361 C365 1.408 . S
C362 C360 1.363 . S
C362 C363 1.370 . S
C362 C366 1.524 . S
C363 C355 1.503 . S
C363 C362 1.370 . S
C363 C364 1.403 . S
C364 C363 1.403 . S
C364 C365 1.404 . S
C364 C367 1.539 . S
C365 C361 1.408 . S
C365 C364 1.404 . S
C365 H377 0.930 . S
C366 C362 1.524 . S
C366 H378 0.956 . S
C366 H379 0.961 . S
C366 H380 0.961 . S
C367 C364 1.539 . S
C367 H381 0.958 . S
C367 H382 0.961 . S
C367 H383 0.960 . S
H368 C352 0.931 . S
H369 C357 0.929 . S
H370 C358 0.960 . S
H371 C358 0.962 . S
H372 C358 0.960 . S
H373 C359 0.961 . S
H374 C359 0.961 . S
H375 C359 0.961 . S
H376 C360 0.931 . S
H377 C365 0.930 . S
H378 C366 0.956 . S
H379 C366 0.961 . S
H380 C366 0.961 . S
H381 C367 0.958 . S
H382 C367 0.961 . S
H383 C367 0.960 . S
C384 C385 1.391 . S
C384 C386 1.394 . S
C384 H400 0.931 . S
C385 C384 1.391 . S
C385 C389 1.376 . S
C386 C384 1.394 . S
C386 C387 1.369 . S
C386 C390 1.531 . S
C387 C386 1.369 . S
C387 C388 1.410 . S
C387 C395 1.503 . S
C388 C387 1.410 . S
C388 C389 1.392 . S
C388 C391 1.511 . S
C389 C385 1.376 . S
C389 C388 1.392 . S
C389 H401 0.929 . S
C390 C386 1.531 . S
C390 H402 0.960 . S
C390 H403 0.962 . S
C390 H404 0.960 . S
C391 C388 1.511 . S
C391 H405 0.961 . S
C391 H406 0.961 . S
C391 H407 0.961 . S
C392 C393 1.370 . S
C392 C394 1.363 . S
C392 H408 0.931 . S
C393 C392 1.370 . S
C393 C397 1.408 . S
C394 C392 1.363 . S
C394 C395 1.370 . S
C394 C398 1.524 . S
C395 C387 1.503 . S
C395 C394 1.370 . S
C395 C396 1.403 . S
C396 C395 1.403 . S
C396 C397 1.404 . S
C396 C399 1.539 . S
C397 C393 1.408 . S
C397 C396 1.404 . S
C397 H409 0.930 . S
C398 C394 1.524 . S
C398 H410 0.956 . S
C398 H411 0.961 . S
C398 H412 0.961 . S
C399 C396 1.539 . S
C399 H413 0.958 . S
C399 H414 0.961 . S
C399 H415 0.960 . S
H400 C384 0.931 . S
H401 C389 0.929 . S
H402 C390 0.960 . S
H403 C390 0.962 . S
H404 C390 0.960 . S
H405 C391 0.961 . S
H406 C391 0.961 . S
H407 C391 0.961 . S
H408 C392 0.931 . S
H409 C397 0.930 . S
H410 C398 0.956 . S
H411 C398 0.961 . S
H412 C398 0.961 . S
H413 C399 0.958 . S
H414 C399 0.961 . S
H415 C399 0.960 . S
C416 C417 1.391 . S
C416 C418 1.394 . S
C416 H432 0.931 . S
C417 C416 1.391 . S
C417 C421 1.376 . S
C418 C416 1.394 . S
C418 C419 1.369 . S
C418 C422 1.531 1_655 S
C419 C418 1.369 . S
C419 C420 1.410 . S
C419 C427 1.503 . S
C420 C419 1.410 . S
C420 C421 1.392 . S
C420 C423 1.511 . S
C421 C417 1.376 . S
C421 C420 1.392 . S
C421 H433 0.929 . S
C422 C418 1.531 1_455 S
C422 H434 0.960 . S
C422 H435 0.962 . S
C422 H436 0.960 . S
C423 C420 1.511 . S
C423 H437 0.961 . S
C423 H438 0.961 . S
C423 H439 0.961 . S
C424 C425 1.370 . S
C424 C426 1.363 . S
C424 H440 0.931 1_655 S
C425 C424 1.370 . S
C425 C429 1.408 . S
C426 C424 1.363 . S
C426 C427 1.370 . S
C426 C430 1.524 . S
C427 C419 1.503 . S
C427 C426 1.370 . S
C427 C428 1.403 . S
C428 C427 1.403 . S
C428 C429 1.404 . S
C428 C431 1.539 . S
C429 C425 1.408 . S
C429 C428 1.404 . S
C429 H441 0.930 . S
C430 C426 1.524 . S
C430 H442 0.956 1_655 S
C430 H443 0.961 . S
C430 H444 0.961 1_655 S
C431 C428 1.539 . S
C431 H445 0.958 . S
C431 H446 0.961 . S
C431 H447 0.960 . S
H432 C416 0.931 . S
H433 C421 0.929 . S
H434 C422 0.960 . S
H435 C422 0.962 . S
H436 C422 0.960 . S
H437 C423 0.961 . S
H438 C423 0.961 . S
H439 C423 0.961 . S
H440 C424 0.931 1_455 S
H441 C429 0.930 . S
H442 C430 0.956 1_455 S
H443 C430 0.961 . S
H444 C430 0.961 1_455 S
H445 C431 0.958 . S
H446 C431 0.961 . S
H447 C431 0.960 . S
C448 C449 1.391 . S
C448 C450 1.394 . S
C448 H464 0.931 . S
C449 C448 1.391 . S
C449 C453 1.376 . S
C450 C448 1.394 . S
C450 C451 1.369 . S
C450 C454 1.531 . S
C451 C450 1.369 . S
C451 C452 1.410 . S
C451 C459 1.503 . S
C452 C451 1.410 . S
C452 C453 1.392 . S
C452 C455 1.511 . S
C453 C449 1.376 . S
C453 C452 1.392 . S
C453 H465 0.929 . S
C454 C450 1.531 . S
C454 H466 0.960 . S
C454 H467 0.962 1_655 S
C454 H468 0.960 . S
C455 C452 1.511 . S
C455 H469 0.961 . S
C455 H470 0.961 . S
C455 H471 0.961 . S
C456 C457 1.370 1_455 S
C456 C458 1.363 1_455 S
C456 H472 0.931 . S
C457 C456 1.370 1_655 S
C457 C461 1.408 . S
C458 C456 1.363 1_655 S
C458 C459 1.370 . S
C458 C462 1.524 1_655 S
C459 C451 1.503 . S
C459 C458 1.370 . S
C459 C460 1.403 . S
C460 C459 1.403 . S
C460 C461 1.404 . S
C460 C463 1.539 . S
C461 C457 1.408 . S
C461 C460 1.404 . S
C461 H473 0.930 . S
C462 C458 1.524 1_455 S
C462 H474 0.956 . S
C462 H475 0.961 . S
C462 H476 0.961 . S
C463 C460 1.539 . S
C463 H477 0.958 . S
C463 H478 0.961 . S
C463 H479 0.960 . S
H464 C448 0.931 . S
H465 C453 0.929 . S
H466 C454 0.960 . S
H467 C454 0.962 1_455 S
H468 C454 0.960 . S
H469 C455 0.961 . S
H470 C455 0.961 . S
H471 C455 0.961 . S
H472 C456 0.931 . S
H473 C461 0.930 . S
H474 C462 0.956 . S
H475 C462 0.961 . S
H476 C462 0.961 . S
H477 C463 0.958 . S
H478 C463 0.961 . S
H479 C463 0.960 . S
C480 C481 1.391 . S
C480 C482 1.394 . S
C480 H496 0.931 . S
C481 C480 1.391 . S
C481 C485 1.376 1_455 S
C482 C480 1.394 . S
C482 C483 1.369 . S
C482 C486 1.531 . S
C483 C482 1.369 . S
C483 C484 1.410 1_455 S
C483 C491 1.503 . S
C484 C483 1.410 1_655 S
C484 C485 1.392 . S
C484 C487 1.511 . S
C485 C481 1.376 1_655 S
C485 C484 1.392 . S
C485 H497 0.929 . S
C486 C482 1.531 . S
C486 H498 0.960 . S
C486 H499 0.962 . S
C486 H500 0.960 . S
C487 C484 1.511 . S
C487 H501 0.961 . S
C487 H502 0.961 . S
C487 H503 0.961 . S
C488 C489 1.370 . S
C488 C490 1.363 . S
C488 H504 0.931 . S
C489 C488 1.370 . S
C489 C493 1.408 . S
C490 C488 1.363 . S
C490 C491 1.370 . S
C490 C494 1.524 . S
C491 C483 1.503 . S
C491 C490 1.370 . S
C491 C492 1.403 . S
C492 C491 1.403 . S
C492 C493 1.404 . S
C492 C495 1.539 1_455 S
C493 C489 1.408 . S
C493 C492 1.404 . S
C493 H505 0.930 . S
C494 C490 1.524 . S
C494 H506 0.956 . S
C494 H507 0.961 . S
C494 H508 0.961 . S
C495 C492 1.539 1_655 S
C495 H509 0.958 1_655 S
C495 H510 0.961 . S
C495 H511 0.960 . S
H496 C480 0.931 . S
H497 C485 0.929 . S
H498 C486 0.960 . S
H499 C486 0.962 . S
H500 C486 0.960 . S
H501 C487 0.961 . S
H502 C487 0.961 . S
H503 C487 0.961 . S
H504 C488 0.931 . S
H505 C493 0.930 . S
H506 C494 0.956 . S
H507 C494 0.961 . S
H508 C494 0.961 . S
H509 C495 0.958 1_455 S
H510 C495 0.961 . S
H511 C495 0.960 . S
C512 C513 1.391 . S
C512 C514 1.394 . S
C512 H528 0.931 . S
C513 C512 1.391 . S
C513 C517 1.376 . S
C514 C512 1.394 . S
C514 C515 1.369 . S
C514 C518 1.531 . S
C515 C514 1.369 . S
C515 C516 1.410 . S
C515 C523 1.503 . S
C516 C515 1.410 . S
C516 C517 1.392 . S
C516 C519 1.511 1_455 S
C517 C513 1.376 . S
C517 C516 1.392 . S
C517 H529 0.929 . S
C518 C514 1.531 . S
C518 H530 0.960 . S
C518 H531 0.962 . S
C518 H532 0.960 . S
C519 C516 1.511 1_655 S
C519 H533 0.961 . S
C519 H534 0.961 . S
C519 H535 0.961 . S
C520 C521 1.370 . S
C520 C522 1.363 . S
C520 H536 0.931 . S
C521 C520 1.370 . S
C521 C525 1.408 1_455 S
C522 C520 1.363 . S
C522 C523 1.370 . S
C522 C526 1.524 . S
C523 C515 1.503 . S
C523 C522 1.370 . S
C523 C524 1.403 . S
C524 C523 1.403 . S
C524 C525 1.404 1_455 S
C524 C527 1.539 1_455 S
C525 C521 1.408 1_655 S
C525 C524 1.404 1_655 S
C525 H537 0.930 . S
C526 C522 1.524 . S
C526 H538 0.956 . S
C526 H539 0.961 . S
C526 H540 0.961 . S
C527 C524 1.539 1_655 S
C527 H541 0.958 1_655 S
C527 H542 0.961 . S
C527 H543 0.960 . S
H528 C512 0.931 . S
H529 C517 0.929 . S
H530 C518 0.960 . S
H531 C518 0.962 . S
H532 C518 0.960 . S
H533 C519 0.961 . S
H534 C519 0.961 . S
H535 C519 0.961 . S
H536 C520 0.931 . S
H537 C525 0.930 . S
H538 C526 0.956 . S
H539 C526 0.961 . S
H540 C526 0.961 . S
H541 C527 0.958 1_455 S
H542 C527 0.961 . S
H543 C527 0.960 . S
C161 C58 1.521 . S
C169 C9 1.497 . S
C193 C89 1.506 . S
C201 C138 1.504 . S
C225 C18 1.485 . S
C233 C49 1.513 . S
C257 C129 1.481 . S
C265 C98 1.513 . S
C289 C126 1.278 . S
C297 C10 1.295 . S
C321 C46 1.272 . S
C329 C90 1.288 . S
C353 C59 1.304 . S
C361 C95 1.298 . S
C385 C139 1.293 . S
C393 C15 1.296 . S
C417 C50 1.277 . S
C425 C86 1.289 1_655 S
C449 C130 1.281 . S
C457 C6 1.292 1_655 S
C481 C135 1.293 1_455 S
C489 C19 1.298 . S
C513 C99 1.278 . S
C521 C55 1.284 1_455 S
