# Generated by pormake.
# Topology umx, (4)-cn, num edge types: 1
# Building blocks:
#     Node 0, Type 0, BuildingBlock: NAWXER_clean_sbu_0, # of connection points: 4
#     Node 1, Type 0, BuildingBlock: NAWXER_clean_sbu_0, # of connection points: 4
#     Node 2, Type 0, BuildingBlock: NAWXER_clean_sbu_0, # of connection points: 4
#     Node 3, Type 0, BuildingBlock: NAWXER_clean_sbu_0, # of connection points: 4
#     Node 4, Type 0, BuildingBlock: NAWXER_clean_sbu_0, # of connection points: 4
#     Node 5, Type 0, BuildingBlock: NAWXER_clean_sbu_0, # of connection points: 4
#     Node 6, Type 0, BuildingBlock: NAWXER_clean_sbu_0, # of connection points: 4
#     Node 7, Type 0, BuildingBlock: NAWXER_clean_sbu_0, # of connection points: 4
#     Edge 8, Type (0, 0), BuildingBlock: UVAHIK_clean_linker_0, # of connection points: 2
#     Edge 9, Type (0, 0), BuildingBlock: UVAHIK_clean_linker_0, # of connection points: 2
#     Edge 10, Type (0, 0), BuildingBlock: UVAHIK_clean_linker_0, # of connection points: 2
#     Edge 11, Type (0, 0), BuildingBlock: UVAHIK_clean_linker_0, # of connection points: 2
#     Edge 12, Type (0, 0), BuildingBlock: UVAHIK_clean_linker_0, # of connection points: 2
#     Edge 13, Type (0, 0), BuildingBlock: UVAHIK_clean_linker_0, # of connection points: 2
#     Edge 14, Type (0, 0), BuildingBlock: UVAHIK_clean_linker_0, # of connection points: 2
#     Edge 15, Type (0, 0), BuildingBlock: UVAHIK_clean_linker_0, # of connection points: 2
#     Edge 16, Type (0, 0), BuildingBlock: UVAHIK_clean_linker_0, # of connection points: 2
#     Edge 17, Type (0, 0), BuildingBlock: UVAHIK_clean_linker_0, # of connection points: 2
#     Edge 18, Type (0, 0), BuildingBlock: UVAHIK_clean_linker_0, # of connection points: 2
#     Edge 19, Type (0, 0), BuildingBlock: UVAHIK_clean_linker_0, # of connection points: 2
#     Edge 20, Type (0, 0), BuildingBlock: UVAHIK_clean_linker_0, # of connection points: 2
#     Edge 21, Type (0, 0), BuildingBlock: UVAHIK_clean_linker_0, # of connection points: 2
#     Edge 22, Type (0, 0), BuildingBlock: UVAHIK_clean_linker_0, # of connection points: 2
#     Edge 23, Type (0, 0), BuildingBlock: UVAHIK_clean_linker_0, # of connection points: 2
# Relax obj value: 0.027
# Max RMSD: 0.221
# Mean RMSD: 0.220
data_MOF--net-umx--node1-NAWXER_clean_sbu_0--edge1-UVAHIK_clean_linker_0
_symmetry_space_group_name_H-M    P1
_symmetry_Int_Tables_number       1
_symmetry_cell_setting            triclinic
loop_
_symmetry_equiv_pos_as_xyz
'x, y, z'
_cell_length_a     50.325809
_cell_length_b     50.376021
_cell_length_c     38.334459
_cell_angle_alpha  95.785042
_cell_angle_beta   95.800601
_cell_angle_gamma 89.99185
loop_
_atom_site_label
_atom_site_type_symbol
_atom_site_fract_x
_atom_site_fract_y
_atom_site_fract_z
_atom_type_partial_charge
C0 C 0.22203 0.42021 0.00915 0.0
C1 C 0.13501 0.46065 0.01164 0.0
O2 O 0.19899 0.40947 0.00534 0.0
Zn3 Zn 0.17887 0.44121 0.01021 0.0
O4 O 0.22431 0.44573 0.01451 0.0
Zn5 Zn 0.1969 0.47897 0.01875 0.0
O6 O 0.20684 0.49587 0.06546 0.0
O7 O 0.18863 0.45599 0.06495 0.0
O8 O 0.15355 0.47857 0.01627 0.0
O9 O 0.14119 0.43625 0.00674 0.0
O10 O 0.1849 0.45931 0.96298 0.0
O11 O 0.20417 0.4984 0.97992 0.0
C12 C 0.19912 0.47724 0.08216 0.0
C13 C 0.19492 0.48114 0.95528 0.0
C14 C 0.51224 0.19495 0.45795 0.0
C15 C 0.5151 0.19801 0.58572 0.0
O16 O 0.49425 0.20249 0.47761 0.0
Zn17 Zn 0.51365 0.19602 0.52184 0.0
O18 O 0.53435 0.18608 0.47174 0.0
Zn19 Zn 0.55177 0.17941 0.52383 0.0
O20 O 0.55701 0.14179 0.521 0.0
O21 O 0.51456 0.15287 0.51901 0.0
O22 O 0.53654 0.18835 0.57428 0.0
O23 O 0.49636 0.20511 0.56398 0.0
O24 O 0.54673 0.22458 0.52721 0.0
O25 O 0.58334 0.20042 0.52904 0.0
C26 C 0.53264 0.13488 0.51905 0.0
C27 C 0.57234 0.2231 0.52972 0.0
C28 C 0.86027 0.53101 0.03906 0.0
C29 C 0.77364 0.57271 0.03324 0.0
O30 O 0.84152 0.51334 0.03275 0.0
Zn31 Zn 0.79812 0.5135 0.02745 0.0
O32 O 0.85431 0.55546 0.04404 0.0
Zn33 Zn 0.81654 0.55106 0.03721 0.0
O34 O 0.80718 0.5338 0.08368 0.0
O35 O 0.78913 0.4943 0.06575 0.0
O36 O 0.79681 0.58312 0.039 0.0
O37 O 0.77106 0.54719 0.02869 0.0
O38 O 0.78947 0.49666 0.98031 0.0
O39 O 0.80946 0.53583 0.98224 0.0
C40 C 0.79681 0.51196 0.09073 0.0
C41 C 0.79892 0.51487 0.96434 0.0
C42 C 0.47974 0.7947 0.46052 0.0
C43 C 0.48215 0.79908 0.58832 0.0
O44 O 0.45834 0.8047 0.47168 0.0
Zn45 Zn 0.44302 0.81436 0.52193 0.0
O46 O 0.49835 0.78769 0.4825 0.0
Zn47 Zn 0.48099 0.79741 0.52443 0.0
O48 O 0.44761 0.76918 0.51942 0.0
O49 O 0.41125 0.79371 0.51697 0.0
O50 O 0.50016 0.79118 0.56888 0.0
O51 O 0.46017 0.80803 0.57425 0.0
O52 O 0.43814 0.85199 0.52413 0.0
O53 O 0.4805 0.84055 0.52662 0.0
C54 C 0.42201 0.77094 0.51679 0.0
C55 C 0.46256 0.85868 0.52619 0.0
C56 C 0.1944 0.51203 0.45908 0.0
C57 C 0.19912 0.51644 0.5872 0.0
O58 O 0.18531 0.53405 0.47278 0.0
Zn59 Zn 0.17924 0.55205 0.52482 0.0
O60 O 0.20267 0.49437 0.4789 0.0
Zn61 Zn 0.19668 0.51431 0.52305 0.0
O62 O 0.15334 0.51456 0.52083 0.0
O63 O 0.14164 0.55682 0.52229 0.0
O64 O 0.20724 0.49811 0.56573 0.0
O65 O 0.18844 0.53731 0.5754 0.0
O66 O 0.19986 0.58386 0.52844 0.0
O67 O 0.22452 0.54765 0.52569 0.0
C68 C 0.13508 0.5324 0.52073 0.0
C69 C 0.22263 0.57318 0.52749 0.0
C70 C 0.42136 0.22079 0.00816 0.0
C71 C 0.46134 0.13361 0.01008 0.0
O72 O 0.44695 0.22291 0.01322 0.0
Zn73 Zn 0.48013 0.19518 0.01734 0.0
O74 O 0.41044 0.19786 0.00457 0.0
Zn75 Zn 0.44207 0.17764 0.00892 0.0
O76 O 0.45699 0.18734 0.06357 0.0
O77 O 0.49717 0.20498 0.06409 0.0
O78 O 0.43696 0.13991 0.0051 0.0
O79 O 0.47935 0.15203 0.01487 0.0
O80 O 0.49971 0.20186 0.97835 0.0
O81 O 0.45974 0.18436 0.96164 0.0
C82 C 0.47838 0.19758 0.08078 0.0
C83 C 0.48184 0.19373 0.95382 0.0
C84 C 0.80114 0.48275 0.58631 0.0
C85 C 0.79222 0.47761 0.45801 0.0
O86 O 0.79153 0.49994 0.56659 0.0
Zn87 Zn 0.79678 0.48004 0.52222 0.0
O88 O 0.81018 0.4608 0.57232 0.0
Zn89 Zn 0.81397 0.44221 0.51982 0.0
O90 O 0.85141 0.43714 0.51982 0.0
O91 O 0.84 0.47951 0.5226 0.0
O92 O 0.80268 0.45648 0.46933 0.0
O93 O 0.78565 0.49644 0.47994 0.0
O94 O 0.76886 0.44691 0.52084 0.0
O95 O 0.79333 0.41058 0.51819 0.0
C96 C 0.8581 0.46153 0.52148 0.0
C97 C 0.77066 0.4214 0.51959 0.0
C98 C 0.57348 0.77262 0.03436 0.0
C99 C 0.53229 0.85938 0.0386 0.0
O100 O 0.58402 0.79572 0.03975 0.0
Zn101 Zn 0.5521 0.81551 0.03763 0.0
O102 O 0.5479 0.77015 0.03005 0.0
Zn103 Zn 0.51429 0.79754 0.02896 0.0
O104 O 0.49666 0.78885 0.98226 0.0
O105 O 0.5366 0.80709 0.98291 0.0
O106 O 0.51447 0.84078 0.03325 0.0
O107 O 0.55674 0.85329 0.04309 0.0
O108 O 0.53525 0.8071 0.08477 0.0
O109 O 0.49545 0.7893 0.06792 0.0
C110 C 0.51518 0.79696 0.96565 0.0
C111 C 0.5134 0.79711 0.09247 0.0
C112 C 0.19829 0.45802 0.13982 0.0
C113 C 0.20121 0.4803 0.12114 0.0
C114 C 0.19899 0.46105 0.17656 0.0
C115 C 0.18489 0.50934 0.24927 0.0
H116 H 0.22822 0.46457 0.30853 0.0
C117 C 0.19375 0.52958 0.40035 0.0
C118 C 0.1957 0.50776 0.42054 0.0
C119 C 0.19518 0.52591 0.36402 0.0
C120 C 0.21567 0.47698 0.29239 0.0
H121 H 0.20742 0.52319 0.12637 0.0
H122 H 0.20816 0.52849 0.19056 0.0
H123 H 0.22959 0.4586 0.24473 0.0
H124 H 0.20052 0.4649 0.41841 0.0
H125 H 0.20202 0.45827 0.35469 0.0
H126 H 0.17022 0.52721 0.29636 0.0
C127 C 0.20544 0.5087 0.17669 0.0
C128 C 0.2166 0.47363 0.25586 0.0
C129 C 0.20516 0.50563 0.14 0.0
C130 C 0.19906 0.48213 0.40356 0.0
C131 C 0.2001 0.47838 0.36704 0.0
C132 C 0.18365 0.51244 0.28568 0.0
C133 C 0.2022 0.48647 0.19528 0.0
C134 C 0.20134 0.4899 0.234 0.0
C135 C 0.19817 0.50024 0.34676 0.0
C136 C 0.19915 0.49644 0.30782 0.0
H137 H 0.19529 0.43823 0.12604 0.0
H138 H 0.1963 0.44361 0.19025 0.0
H139 H 0.17259 0.52186 0.23294 0.0
H140 H 0.19147 0.54965 0.4127 0.0
H141 H 0.19424 0.54333 0.34956 0.0
C142 C 0.53476 0.19854 0.64837 0.0
C143 C 0.51222 0.20021 0.62393 0.0
C144 C 0.5321 0.1996 0.6844 0.0
C145 C 0.48428 0.21735 0.75114 0.0
H146 H 0.5301 0.17231 0.80711 0.0
C147 C 0.46425 0.19302 0.89033 0.0
C148 C 0.48606 0.19546 0.91647 0.0
C149 C 0.46798 0.19493 0.85505 0.0
C150 C 0.51735 0.18517 0.79185 0.0
H151 H 0.46918 0.20441 0.61809 0.0
H152 H 0.46435 0.20533 0.6808 0.0
H153 H 0.53528 0.17304 0.7447 0.0
H154 H 0.52893 0.20165 0.92604 0.0
H155 H 0.53549 0.20445 0.8641 0.0
H156 H 0.46581 0.22867 0.79834 0.0
C157 C 0.48423 0.20391 0.67235 0.0
C158 C 0.52035 0.18571 0.75609 0.0
C159 C 0.48695 0.20324 0.63631 0.0
C160 C 0.51173 0.19971 0.90652 0.0
C161 C 0.51551 0.20121 0.8711 0.0
C162 C 0.48106 0.21651 0.78681 0.0
C163 C 0.50677 0.20195 0.69689 0.0
C164 C 0.50384 0.20179 0.7352 0.0
C165 C 0.49364 0.19894 0.84507 0.0
C166 C 0.49753 0.20038 0.80749 0.0
H167 H 0.55455 0.19647 0.63968 0.0
H168 H 0.54998 0.19863 0.70246 0.0
H169 H 0.47153 0.23036 0.73617 0.0
H170 H 0.4442 0.18984 0.89714 0.0
H171 H 0.45081 0.19287 0.83547 0.0
C172 C 0.78538 0.50543 0.40725 0.0
C173 C 0.7889 0.48027 0.41973 0.0
C174 C 0.7841 0.50807 0.37115 0.0
C175 C 0.80192 0.47205 0.28724 0.0
H176 H 0.759 0.52683 0.24545 0.0
C177 C 0.78911 0.48186 0.13714 0.0
C178 C 0.79384 0.50757 0.12774 0.0
C179 C 0.78694 0.4778 0.17233 0.0
C180 C 0.77112 0.5115 0.25684 0.0
H181 H 0.79275 0.43798 0.40407 0.0
H182 H 0.7895 0.44239 0.34115 0.0
H183 H 0.75722 0.52073 0.30752 0.0
H184 H 0.79948 0.54925 0.14774 0.0
H185 H 0.79527 0.54217 0.20902 0.0
H186 H 0.81541 0.46263 0.23622 0.0
C187 C 0.78863 0.46027 0.35918 0.0
C188 C 0.77024 0.50806 0.29245 0.0
C189 C 0.7903 0.4577 0.39529 0.0
C190 C 0.79593 0.52918 0.15414 0.0
C191 C 0.79336 0.52518 0.18919 0.0
C192 C 0.80249 0.47526 0.25153 0.0
C193 C 0.78593 0.48554 0.34661 0.0
C194 C 0.78584 0.48846 0.30826 0.0
C195 C 0.78903 0.49944 0.19866 0.0
C196 C 0.78732 0.49519 0.23608 0.0
H197 H 0.78441 0.52323 0.42545 0.0
H198 H 0.78243 0.5279 0.36264 0.0
H199 H 0.81462 0.4571 0.29849 0.0
H200 H 0.78743 0.46481 0.11741 0.0
H201 H 0.78347 0.45777 0.17893 0.0
C202 C 0.5346 0.79769 0.90823 0.0
C203 C 0.51215 0.79515 0.9267 0.0
C204 C 0.53183 0.79668 0.87149 0.0
C205 C 0.48409 0.77718 0.79214 0.0
H206 H 0.5294 0.82333 0.74797 0.0
C207 C 0.46422 0.79974 0.64692 0.0
C208 C 0.48616 0.7977 0.62686 0.0
C209 C 0.4678 0.79828 0.68329 0.0
C210 C 0.51679 0.81017 0.75995 0.0
H211 H 0.46918 0.78956 0.92115 0.0
H212 H 0.46415 0.78873 0.85716 0.0
H213 H 0.53453 0.82318 0.81183 0.0
H214 H 0.52908 0.79267 0.62925 0.0
H215 H 0.53538 0.79065 0.69307 0.0
H216 H 0.4658 0.76494 0.74004 0.0
C217 C 0.48404 0.79078 0.87088 0.0
C218 C 0.51977 0.80997 0.79656 0.0
C219 C 0.48688 0.79141 0.90763 0.0
C220 C 0.51179 0.79428 0.64398 0.0
C221 C 0.51542 0.79323 0.68048 0.0
C222 C 0.48088 0.77768 0.75556 0.0
C223 C 0.50648 0.7935 0.8523 0.0
C224 C 0.50346 0.79346 0.81319 0.0
C225 C 0.49344 0.79513 0.70044 0.0
C226 C 0.49719 0.79419 0.73914 0.0
H227 H 0.5544 0.80033 0.92215 0.0
H228 H 0.54965 0.79825 0.85817 0.0
H229 H 0.47151 0.76383 0.80383 0.0
H230 H 0.4442 0.80229 0.6345 0.0
H231 H 0.45055 0.80002 0.69811 0.0
C232 C 0.8155 0.47036 0.64689 0.0
C233 C 0.80123 0.48739 0.62508 0.0
C234 C 0.81482 0.4739 0.68339 0.0
C235 C 0.79803 0.52312 0.75651 0.0
H236 H 0.79725 0.46023 0.80699 0.0
C237 C 0.81246 0.52988 0.90835 0.0
C238 C 0.79808 0.51202 0.92541 0.0
C239 C 0.81206 0.52714 0.87168 0.0
C240 C 0.79714 0.47803 0.79333 0.0
H241 H 0.77513 0.52163 0.62455 0.0
H242 H 0.77342 0.52747 0.68821 0.0
H243 H 0.79751 0.45515 0.74332 0.0
H244 H 0.77163 0.47749 0.91724 0.0
H245 H 0.77037 0.47308 0.85317 0.0
H246 H 0.79677 0.54599 0.80643 0.0
C247 C 0.78558 0.51165 0.67719 0.0
C248 C 0.79771 0.47512 0.75678 0.0
C249 C 0.78646 0.50825 0.64064 0.0
C250 C 0.78308 0.49148 0.90492 0.0
C251 C 0.78248 0.48888 0.86817 0.0
C252 C 0.79726 0.52603 0.79305 0.0
C253 C 0.79964 0.49442 0.69903 0.0
C254 C 0.79838 0.49762 0.7379 0.0
C255 C 0.79706 0.50661 0.85107 0.0
C256 C 0.797 0.50353 0.81199 0.0
H257 H 0.82725 0.45421 0.63578 0.0
H258 H 0.82636 0.46059 0.69937 0.0
H259 H 0.79878 0.54091 0.74295 0.0
H260 H 0.82437 0.54584 0.92336 0.0
H261 H 0.82392 0.54089 0.85956 0.0
C262 C 0.48371 0.79032 0.13967 0.0
C263 C 0.50935 0.79475 0.12973 0.0
C264 C 0.47996 0.78873 0.17506 0.0
C265 C 0.5143 0.77399 0.25969 0.0
H266 H 0.46004 0.81792 0.30099 0.0
C267 C 0.50802 0.78874 0.41012 0.0
C268 C 0.48272 0.79201 0.42234 0.0
C269 C 0.51084 0.78763 0.37407 0.0
C270 C 0.47497 0.80512 0.28984 0.0
H271 H 0.55121 0.80044 0.14901 0.0
H272 H 0.54465 0.79722 0.21068 0.0
H273 H 0.46535 0.81808 0.23857 0.0
H274 H 0.44043 0.7957 0.4063 0.0
H275 H 0.44516 0.79278 0.34353 0.0
H276 H 0.52369 0.76059 0.31063 0.0
C277 C 0.52748 0.79511 0.1911 0.0
C278 C 0.47805 0.80533 0.25406 0.0
C279 C 0.53119 0.79711 0.15583 0.0
C280 C 0.46024 0.79346 0.39774 0.0
C281 C 0.463 0.79197 0.3617 0.0
C282 C 0.51099 0.77347 0.2954 0.0
C283 C 0.50182 0.79109 0.20109 0.0
C284 C 0.49788 0.78995 0.23871 0.0
C285 C 0.48837 0.7894 0.34937 0.0
C286 C 0.4914 0.7892 0.31105 0.0
H287 H 0.46649 0.78845 0.12018 0.0
H288 H 0.45998 0.78546 0.18207 0.0
H289 H 0.52957 0.76172 0.24839 0.0
H290 H 0.52575 0.78772 0.42846 0.0
H291 H 0.53075 0.78605 0.36572 0.0
C292 C 0.21182 0.50652 0.90879 0.0
C293 C 0.19615 0.4857 0.91791 0.0
C294 C 0.21365 0.51012 0.87339 0.0
C295 C 0.20179 0.47465 0.78314 0.0
H296 H 0.2048 0.54609 0.75441 0.0
C297 C 0.21586 0.49284 0.63967 0.0
C298 C 0.2011 0.51359 0.62545 0.0
C299 C 0.217 0.48989 0.6757 0.0
C300 C 0.20376 0.52599 0.76189 0.0
H301 H 0.16967 0.45265 0.89702 0.0
H302 H 0.17217 0.45939 0.83551 0.0
H303 H 0.20229 0.54011 0.81615 0.0
H304 H 0.17596 0.54752 0.63793 0.0
H305 H 0.17733 0.54197 0.7003 0.0
H306 H 0.20206 0.46053 0.72869 0.0
C307 C 0.18369 0.47253 0.85556 0.0
C308 C 0.2027 0.52255 0.79746 0.0
C309 C 0.18208 0.46878 0.8909 0.0
C310 C 0.18767 0.53141 0.64805 0.0
C311 C 0.1886 0.52832 0.68395 0.0
C312 C 0.20262 0.4781 0.74754 0.0
C313 C 0.19964 0.49312 0.8463 0.0
C314 C 0.20153 0.49683 0.80854 0.0
C315 C 0.20321 0.50748 0.69827 0.0
C316 C 0.20345 0.50381 0.7364 0.0
H317 H 0.22306 0.5198 0.92898 0.0
H318 H 0.22641 0.52596 0.86731 0.0
H319 H 0.20136 0.45453 0.79071 0.0
H320 H 0.22657 0.47887 0.62299 0.0
H321 H 0.22881 0.47387 0.68585 0.0
C322 C 0.48231 0.20008 0.40262 0.0
C323 C 0.50803 0.19662 0.41947 0.0
C324 C 0.47848 0.2014 0.36618 0.0
C325 C 0.51263 0.21751 0.29094 0.0
H326 H 0.4587 0.17235 0.23465 0.0
C327 C 0.5065 0.20377 0.13889 0.0
C328 C 0.48125 0.19997 0.11977 0.0
C329 C 0.50928 0.2046 0.17565 0.0
C330 C 0.47354 0.18548 0.24993 0.0
H331 H 0.54993 0.19222 0.41138 0.0
H332 H 0.54323 0.19495 0.34789 0.0
H333 H 0.46407 0.17188 0.29846 0.0
H334 H 0.43898 0.19495 0.12426 0.0
H335 H 0.44364 0.19737 0.1883 0.0
H336 H 0.52186 0.23155 0.24272 0.0
C337 C 0.52606 0.19653 0.36288 0.0
C338 C 0.47666 0.18509 0.28652 0.0
C339 C 0.52985 0.1948 0.39918 0.0
C340 C 0.45876 0.19766 0.13822 0.0
C341 C 0.46147 0.19885 0.17499 0.0
C342 C 0.50929 0.21819 0.25439 0.0
C343 C 0.50034 0.19972 0.34599 0.0
C344 C 0.49637 0.20093 0.30734 0.0
C345 C 0.48681 0.20201 0.19421 0.0
C346 C 0.48983 0.20201 0.23332 0.0
H347 H 0.4651 0.20152 0.41752 0.0
H348 H 0.45846 0.20401 0.35381 0.0
H349 H 0.52779 0.23015 0.30645 0.0
H350 H 0.52424 0.20545 0.12541 0.0
H351 H 0.52916 0.20663 0.1894 0.0
C352 C 0.89555 0.49638 0.03116 0.0
C353 C 0.88859 0.52318 0.03892 0.0
C354 C 0.92225 0.48935 0.02901 0.0
C355 C 0.9915 0.51368 0.05469 0.0
H356 H 0.00822 0.46298 0.97717 0.0
C357 C 0.0996 0.49491 0.02105 0.0
C358 C 0.10672 0.46816 0.01315 0.0
C359 C 0.07293 0.50171 0.02395 0.0
C360 C 0.00386 0.47697 0.99915 0.0
H361 H 0.90427 0.56357 0.05114 0.0
H362 H 0.95068 0.55132 0.04711 0.0
H363 H 0.96177 0.47415 0.98402 0.0
H364 H 0.09134 0.42762 1.00167 0.0
H365 H 0.04495 0.43948 0.00693 0.0
H366 H 0.0336 0.51656 0.06974 0.0
C367 C 0.93558 0.53569 0.04303 0.0
C368 C 0.97725 0.48332 1.00312 0.0
C369 C 0.90893 0.54272 0.04516 0.0
C370 C 0.08656 0.44843 0.00773 0.0
C371 C 0.05993 0.45523 0.01056 0.0
C372 C 0.01811 0.50734 0.0507 0.0
C373 C 0.94253 0.50897 0.03462 0.0
C374 C 0.97077 0.50176 0.03092 0.0
C375 C 0.05283 0.48191 0.01893 0.0
C376 C 0.02458 0.48893 0.02287 0.0
H377 H 0.88037 0.48084 0.02629 0.0
H378 H 0.92702 0.46853 0.02295 0.0
H379 H 0.98714 0.52769 0.07665 0.0
H380 H 0.11464 0.51059 0.02532 0.0
H381 H 0.06802 0.52249 0.02999 0.0
C382 C 0.49706 0.89477 0.52758 0.0
C383 C 0.47016 0.88711 0.52701 0.0
C384 C 0.50402 0.92157 0.52702 0.0
C385 C 0.47889 0.99002 0.54442 0.0
H386 H 0.53176 0.00811 0.48356 0.0
C387 C 0.49843 0.09853 0.51753 0.0
C388 C 0.52528 0.10638 0.51806 0.0
C389 C 0.49167 0.07169 0.51812 0.0
C390 C 0.51715 0.00336 0.50095 0.0
H391 H 0.42949 0.90163 0.52579 0.0
H392 H 0.44163 0.94825 0.52457 0.0
H393 H 0.52041 0.9614 0.48668 0.0
H394 H 0.56604 0.09215 0.51917 0.0
H395 H 0.55423 0.04543 0.52044 0.0
H396 H 0.47562 0.03197 0.55869 0.0
C397 C 0.45737 0.93361 0.52581 0.0
C398 C 0.51069 0.97661 0.50278 0.0
C399 C 0.45041 0.90685 0.52632 0.0
C400 C 0.54516 0.08678 0.51867 0.0
C401 C 0.53839 0.05997 0.51922 0.0
C402 C 0.48535 0.01676 0.5426 0.0
C403 C 0.48423 0.94126 0.52596 0.0
C404 C 0.49146 0.96965 0.52451 0.0
C405 C 0.5116 0.05214 0.51919 0.0
C406 C 0.50454 0.02373 0.52082 0.0
H407 H 0.51276 0.88007 0.52818 0.0
H408 H 0.52492 0.9269 0.5276 0.0
H409 H 0.46427 0.98527 0.5618 0.0
H410 H 0.48263 0.11313 0.51697 0.0
H411 H 0.47081 0.06623 0.51758 0.0
C412 C 0.08681 0.54442 0.51977 0.0
C413 C 0.10661 0.52473 0.51949 0.0
C414 C 0.05996 0.53741 0.51944 0.0
C415 C 0.01628 0.48385 0.54027 0.0
H416 H 0.9619 0.51926 0.48313 0.0
C417 C 0.9062 0.44919 0.52083 0.0
C418 C 0.88653 0.46901 0.52174 0.0
C419 C 0.93303 0.45604 0.52061 0.0
C420 C 0.97683 0.50942 0.49953 0.0
H421 H 0.11369 0.48218 0.51828 0.0
H422 H 0.06668 0.46992 0.51737 0.0
H423 H 0.00884 0.53073 0.48182 0.0
H424 H 0.87968 0.51161 0.5233 0.0
H425 H 0.92666 0.5236 0.52317 0.0
H426 H 0.98427 0.46254 0.55798 0.0
C427 C 0.07203 0.49082 0.51828 0.0
C428 C 0.00371 0.51596 0.49875 0.0
C429 C 0.09893 0.49784 0.5186 0.0
C430 C 0.89433 0.49587 0.52253 0.0
C431 C 0.92121 0.50272 0.52225 0.0
C432 C 0.9894 0.4773 0.54103 0.0
C433 C 0.05227 0.51056 0.51881 0.0
C434 C 0.02373 0.50326 0.51914 0.0
C435 C 0.94085 0.48287 0.52125 0.0
C436 C 0.96938 0.49002 0.52068 0.0
H437 H 0.09203 0.56535 0.52055 0.0
H438 H 0.04527 0.55312 0.52033 0.0
H439 H 0.0312 0.47403 0.55672 0.0
H440 H 0.90088 0.42829 0.52011 0.0
H441 H 0.94763 0.44026 0.51937 0.0
C442 C 0.54422 0.90791 0.04349 0.0
C443 C 0.52457 0.88767 0.03799 0.0
C444 C 0.53724 0.9345 0.04097 0.0
C445 C 0.48052 0.98078 0.04294 0.0
H446 H 0.52475 0.02382 0.99284 0.0
C447 C 0.44899 0.08523 0.0065 0.0
C448 C 0.46878 0.10532 0.01158 0.0
C449 C 0.45579 0.05862 0.00936 0.0
C450 C 0.51236 0.01215 0.00722 0.0
H451 H 0.4821 0.87957 0.02614 0.0
H452 H 0.46994 0.92606 0.02154 0.0
H453 H 0.53648 0.97751 0.99943 0.0
H454 H 0.51131 0.11318 0.02326 0.0
H455 H 0.52316 0.06671 0.0285 0.0
H456 H 0.4564 0.01543 0.05074 0.0
C457 C 0.49073 0.92133 0.02809 0.0
C458 C 0.51908 0.98563 0.01102 0.0
C459 C 0.49771 0.89469 0.03059 0.0
C460 C 0.49558 0.09817 0.0191 0.0
C461 C 0.50239 0.07153 0.02196 0.0
C462 C 0.4738 0.00731 0.03915 0.0
C463 C 0.51046 0.94149 0.03291 0.0
C464 C 0.50326 0.96966 0.02896 0.0
C465 C 0.48254 0.05149 0.01736 0.0
C466 C 0.48965 0.02328 0.02126 0.0
H467 H 0.56509 0.90321 0.04939 0.0
H468 H 0.55285 0.94963 0.0454 0.0
H469 H 0.46813 0.96909 0.0573 0.0
H470 H 0.42815 0.09003 1.00053 0.0
H471 H 0.44009 0.04359 0.00513 0.0
C472 C 0.27179 0.41407 0.01493 0.0
C473 C 0.24587 0.40328 0.0067 0.0
C474 C 0.29414 0.39768 0.01241 0.0
C475 C 0.31473 0.33321 0.96975 0.0
H476 H 0.36903 0.33322 0.04913 0.0
C477 C 0.37708 0.24166 0.995 0.0
C478 C 0.40451 0.24469 0.00579 0.0
C479 C 0.36087 0.2639 0.99238 0.0
C480 C 0.35431 0.33334 0.02648 0.0
H481 H 0.2231 0.36691 0.98928 0.0
H482 H 0.26185 0.33857 0.98492 0.0
H483 H 0.33459 0.36757 0.04939 0.0
H484 H 0.43647 0.2735 0.02247 0.0
H485 H 0.40779 0.31265 0.01819 0.0
H486 H 0.33378 0.29856 0.94732 0.0
C487 C 0.26498 0.35966 0.99301 0.0
C488 C 0.33462 0.35296 0.02664 0.0
C489 C 0.24276 0.3759 0.9958 0.0
C490 C 0.41539 0.27055 0.01404 0.0
C491 C 0.39902 0.29292 0.01169 0.0
C492 C 0.33432 0.31368 0.96959 0.0
C493 C 0.29089 0.37035 1.00121 0.0
C494 C 0.31415 0.3525 0.99878 0.0
C495 C 0.37162 0.28975 1.00063 0.0
C496 C 0.35376 0.313 0.99847 0.0
H497 H 0.27481 0.4351 0.02345 0.0
H498 H 0.31391 0.4064 0.01886 0.0
H499 H 0.2995 0.33274 0.94759 0.0
H500 H 0.36802 0.22205 0.98845 0.0
H501 H 0.33973 0.26083 0.9844 0.0
C502 C 0.75013 0.37761 0.52709 0.0
C503 C 0.7469 0.40466 0.5218 0.0
C504 C 0.72819 0.36186 0.5313 0.0
C505 C 0.65671 0.35352 0.51079 0.0
H506 H 0.66477 0.30715 0.586 0.0
C507 C 0.57798 0.2726 0.52867 0.0
C508 C 0.58917 0.24743 0.53314 0.0
C509 C 0.59441 0.29528 0.53088 0.0
C510 C 0.66219 0.31999 0.5649 0.0
H511 H 0.71797 0.43625 0.51592 0.0
H512 H 0.67928 0.40827 0.52273 0.0
H513 H 0.69895 0.34073 0.58234 0.0
H514 H 0.62629 0.22639 0.54392 0.0
H515 H 0.65469 0.26563 0.54763 0.0
H516 H 0.62043 0.33189 0.49249 0.0
C517 C 0.69897 0.39952 0.52387 0.0
C518 C 0.68171 0.3392 0.56285 0.0
C519 C 0.72108 0.41548 0.52003 0.0
C520 C 0.61698 0.24545 0.54035 0.0
C521 C 0.63328 0.26801 0.54277 0.0
C522 C 0.63713 0.33413 0.51275 0.0
C523 C 0.70246 0.37268 0.53006 0.0
C524 C 0.67961 0.35552 0.53513 0.0
C525 C 0.62224 0.29315 0.53798 0.0
C526 C 0.6402 0.31659 0.53916 0.0
H527 H 0.76971 0.3686 0.52856 0.0
H528 H 0.73136 0.34108 0.53543 0.0
H529 H 0.65467 0.36588 0.48914 0.0
H530 H 0.5566 0.27474 0.52303 0.0
H531 H 0.58538 0.31444 0.52714 0.0
C532 C 0.75346 0.61782 0.03186 0.0
C533 C 0.75 0.59008 0.03094 0.0
C534 C 0.73145 0.63446 0.02873 0.0
C535 C 0.66093 0.6403 0.04178 0.0
H536 H 0.66458 0.69818 0.98285 0.0
C537 C 0.58007 0.72292 0.02823 0.0
C538 C 0.59081 0.74895 0.03202 0.0
C539 C 0.59685 0.70079 0.02512 0.0
C540 C 0.66327 0.68211 0.99939 0.0
H541 H 0.72063 0.55807 0.02657 0.0
H542 H 0.68189 0.58747 0.02136 0.0
H543 H 0.69886 0.66405 0.98261 0.0
H544 H 0.62757 0.77214 0.03594 0.0
H545 H 0.65654 0.73381 0.03056 0.0
H546 H 0.62562 0.65899 0.05927 0.0
C547 C 0.70179 0.59615 0.02442 0.0
C548 C 0.68286 0.66261 0.99926 0.0
C549 C 0.72393 0.57937 0.02729 0.0
C550 C 0.61858 0.7524 0.03293 0.0
C551 C 0.63521 0.73042 0.02959 0.0
C552 C 0.64122 0.65992 0.04191 0.0
C553 C 0.70541 0.62383 0.02474 0.0
C554 C 0.68239 0.642 0.02127 0.0
C555 C 0.62455 0.70442 0.02537 0.0
C556 C 0.64275 0.68146 0.02154 0.0
H557 H 0.77323 0.62677 0.03474 0.0
H558 H 0.73484 0.65577 0.02974 0.0
H559 H 0.66014 0.62462 0.05903 0.0
H560 H 0.55874 0.71963 0.0275 0.0
H561 H 0.58816 0.68092 0.02192 0.0
C562 C 0.41586 0.72152 0.51823 0.0
C563 C 0.40491 0.74681 0.51389 0.0
C564 C 0.39919 0.69906 0.51646 0.0
C565 C 0.33086 0.6752 0.48381 0.0
H566 H 0.339 0.62874 0.55889 0.0
C567 C 0.24322 0.61734 0.52198 0.0
C568 C 0.24642 0.59011 0.52619 0.0
C569 C 0.26514 0.63323 0.51816 0.0
C570 C 0.33678 0.64128 0.53746 0.0
H571 H 0.36795 0.76829 0.50391 0.0
H572 H 0.33914 0.72944 0.50101 0.0
H573 H 0.37336 0.66255 0.55519 0.0
H574 H 0.27532 0.55835 0.53075 0.0
H575 H 0.314 0.58658 0.52463 0.0
H576 H 0.29382 0.65481 0.46693 0.0
C577 C 0.36054 0.72678 0.50538 0.0
C578 C 0.35641 0.66056 0.53528 0.0
C579 C 0.37709 0.74913 0.50733 0.0
C580 C 0.27223 0.57927 0.52747 0.0
C581 C 0.29433 0.59536 0.52402 0.0
C582 C 0.31127 0.65612 0.48609 0.0
C583 C 0.37135 0.70152 0.50997 0.0
C584 C 0.35316 0.67828 0.5091 0.0
C585 C 0.29084 0.62237 0.51873 0.0
C586 C 0.31362 0.63957 0.51357 0.0
H587 H 0.43724 0.71912 0.52338 0.0
H588 H 0.40804 0.67979 0.52002 0.0
H589 H 0.32812 0.68817 0.46287 0.0
H590 H 0.22365 0.62637 0.52094 0.0
H591 H 0.26199 0.65413 0.51473 0.0
loop_
_geom_bond_atom_site_label_1
_geom_bond_atom_site_label_2
_geom_bond_distance
_geom_bond_site_symmetry_2
_ccdc_geom_bond_type
C0 O2 1.247 . S
C0 O4 1.258 . S
C1 O8 1.247 . S
C1 O9 1.258 . S
O2 C0 1.247 . S
O2 Zn3 2.028 . S
Zn3 O2 2.028 . S
Zn3 O7 2.035 . S
Zn3 O9 2.035 . S
Zn3 O10 2.028 1_554 S
O4 C0 1.258 . S
O4 Zn5 2.035 . S
Zn5 O4 2.035 . S
Zn5 O6 2.028 . S
Zn5 O8 2.028 . S
Zn5 O11 2.035 1_554 S
O6 Zn5 2.028 . S
O6 C12 1.247 . S
O7 Zn3 2.035 . S
O7 C12 1.258 . S
O8 C1 1.247 . S
O8 Zn5 2.028 . S
O9 C1 1.258 . S
O9 Zn3 2.035 . S
O10 Zn3 2.028 1_556 S
O10 C13 1.247 . S
O11 Zn5 2.035 1_556 S
O11 C13 1.258 . S
C12 O6 1.247 . S
C12 O7 1.258 . S
C13 O10 1.247 . S
C13 O11 1.258 . S
C14 O16 1.247 . S
C14 O18 1.258 . S
C15 O22 1.247 . S
C15 O23 1.258 . S
O16 C14 1.247 . S
O16 Zn17 2.028 . S
Zn17 O16 2.028 . S
Zn17 O21 2.035 . S
Zn17 O23 2.035 . S
Zn17 O24 2.028 . S
O18 C14 1.258 . S
O18 Zn19 2.035 . S
Zn19 O18 2.035 . S
Zn19 O20 2.028 . S
Zn19 O22 2.028 . S
Zn19 O25 2.035 . S
O20 Zn19 2.028 . S
O20 C26 1.247 . S
O21 Zn17 2.035 . S
O21 C26 1.258 . S
O22 C15 1.247 . S
O22 Zn19 2.028 . S
O23 C15 1.258 . S
O23 Zn17 2.035 . S
O24 Zn17 2.028 . S
O24 C27 1.247 . S
O25 Zn19 2.035 . S
O25 C27 1.258 . S
C26 O20 1.247 . S
C26 O21 1.258 . S
C27 O24 1.247 . S
C27 O25 1.258 . S
C28 O30 1.247 . S
C28 O32 1.258 . S
C29 O36 1.247 . S
C29 O37 1.258 . S
O30 C28 1.247 . S
O30 Zn31 2.028 . S
Zn31 O30 2.028 . S
Zn31 O35 2.035 . S
Zn31 O37 2.035 . S
Zn31 O38 2.028 1_554 S
O32 C28 1.258 . S
O32 Zn33 2.035 . S
Zn33 O32 2.035 . S
Zn33 O34 2.028 . S
Zn33 O36 2.028 . S
Zn33 O39 2.035 1_554 S
O34 Zn33 2.028 . S
O34 C40 1.247 . S
O35 Zn31 2.035 . S
O35 C40 1.258 . S
O36 C29 1.247 . S
O36 Zn33 2.028 . S
O37 C29 1.258 . S
O37 Zn31 2.035 . S
O38 Zn31 2.028 1_556 S
O38 C41 1.247 . S
O39 Zn33 2.035 1_556 S
O39 C41 1.258 . S
C40 O34 1.247 . S
C40 O35 1.258 . S
C41 O38 1.247 . S
C41 O39 1.258 . S
C42 O44 1.247 . S
C42 O46 1.258 . S
C43 O50 1.247 . S
C43 O51 1.258 . S
O44 C42 1.247 . S
O44 Zn45 2.028 . S
Zn45 O44 2.028 . S
Zn45 O49 2.035 . S
Zn45 O51 2.035 . S
Zn45 O52 2.028 . S
O46 C42 1.258 . S
O46 Zn47 2.035 . S
Zn47 O46 2.035 . S
Zn47 O48 2.028 . S
Zn47 O50 2.028 . S
Zn47 O53 2.035 . S
O48 Zn47 2.028 . S
O48 C54 1.247 . S
O49 Zn45 2.035 . S
O49 C54 1.258 . S
O50 C43 1.247 . S
O50 Zn47 2.028 . S
O51 C43 1.258 . S
O51 Zn45 2.035 . S
O52 Zn45 2.028 . S
O52 C55 1.247 . S
O53 Zn47 2.035 . S
O53 C55 1.258 . S
C54 O48 1.247 . S
C54 O49 1.258 . S
C55 O52 1.247 . S
C55 O53 1.258 . S
C56 O58 1.247 . S
C56 O60 1.258 . S
C57 O64 1.247 . S
C57 O65 1.258 . S
O58 C56 1.247 . S
O58 Zn59 2.028 . S
Zn59 O58 2.028 . S
Zn59 O63 2.035 . S
Zn59 O65 2.035 . S
Zn59 O66 2.028 . S
O60 C56 1.258 . S
O60 Zn61 2.035 . S
Zn61 O60 2.035 . S
Zn61 O62 2.028 . S
Zn61 O64 2.028 . S
Zn61 O67 2.035 . S
O62 Zn61 2.028 . S
O62 C68 1.247 . S
O63 Zn59 2.035 . S
O63 C68 1.258 . S
O64 C57 1.247 . S
O64 Zn61 2.028 . S
O65 C57 1.258 . S
O65 Zn59 2.035 . S
O66 Zn59 2.028 . S
O66 C69 1.247 . S
O67 Zn61 2.035 . S
O67 C69 1.258 . S
C68 O62 1.247 . S
C68 O63 1.258 . S
C69 O66 1.247 . S
C69 O67 1.258 . S
C70 O72 1.247 . S
C70 O74 1.258 . S
C71 O78 1.247 . S
C71 O79 1.258 . S
O72 C70 1.247 . S
O72 Zn73 2.028 . S
Zn73 O72 2.028 . S
Zn73 O77 2.035 . S
Zn73 O79 2.035 . S
Zn73 O80 2.028 1_554 S
O74 C70 1.258 . S
O74 Zn75 2.035 . S
Zn75 O74 2.035 . S
Zn75 O76 2.028 . S
Zn75 O78 2.028 . S
Zn75 O81 2.035 1_554 S
O76 Zn75 2.028 . S
O76 C82 1.247 . S
O77 Zn73 2.035 . S
O77 C82 1.258 . S
O78 C71 1.247 . S
O78 Zn75 2.028 . S
O79 C71 1.258 . S
O79 Zn73 2.035 . S
O80 Zn73 2.028 1_556 S
O80 C83 1.247 . S
O81 Zn75 2.035 1_556 S
O81 C83 1.258 . S
C82 O76 1.247 . S
C82 O77 1.258 . S
C83 O80 1.247 . S
C83 O81 1.258 . S
C84 O86 1.247 . S
C84 O88 1.258 . S
C85 O92 1.247 . S
C85 O93 1.258 . S
O86 C84 1.247 . S
O86 Zn87 2.028 . S
Zn87 O86 2.028 . S
Zn87 O91 2.035 . S
Zn87 O93 2.035 . S
Zn87 O94 2.028 . S
O88 C84 1.258 . S
O88 Zn89 2.035 . S
Zn89 O88 2.035 . S
Zn89 O90 2.028 . S
Zn89 O92 2.028 . S
Zn89 O95 2.035 . S
O90 Zn89 2.028 . S
O90 C96 1.247 . S
O91 Zn87 2.035 . S
O91 C96 1.258 . S
O92 C85 1.247 . S
O92 Zn89 2.028 . S
O93 C85 1.258 . S
O93 Zn87 2.035 . S
O94 Zn87 2.028 . S
O94 C97 1.247 . S
O95 Zn89 2.035 . S
O95 C97 1.258 . S
C96 O90 1.247 . S
C96 O91 1.258 . S
C97 O94 1.247 . S
C97 O95 1.258 . S
C98 O100 1.247 . S
C98 O102 1.258 . S
C99 O106 1.247 . S
C99 O107 1.258 . S
O100 C98 1.247 . S
O100 Zn101 2.028 . S
Zn101 O100 2.028 . S
Zn101 O105 2.035 1_554 S
Zn101 O107 2.035 . S
Zn101 O108 2.028 . S
O102 C98 1.258 . S
O102 Zn103 2.035 . S
Zn103 O102 2.035 . S
Zn103 O104 2.028 1_554 S
Zn103 O106 2.028 . S
Zn103 O109 2.035 . S
O104 Zn103 2.028 1_556 S
O104 C110 1.247 . S
O105 Zn101 2.035 1_556 S
O105 C110 1.258 . S
O106 C99 1.247 . S
O106 Zn103 2.028 . S
O107 C99 1.258 . S
O107 Zn101 2.035 . S
O108 Zn101 2.028 . S
O108 C111 1.247 . S
O109 Zn103 2.035 . S
O109 C111 1.258 . S
C110 O104 1.247 . S
C110 O105 1.258 . S
C111 O108 1.247 . S
C111 O109 1.258 . S
C112 C113 1.349 . S
C112 C114 1.327 . S
C112 H137 0.950 . S
C113 C112 1.349 . S
C113 C129 1.349 . S
C114 C112 1.327 . S
C114 C133 1.429 . S
C114 H138 0.950 . S
C115 C132 1.574 . S
C115 C134 1.368 . S
C115 H139 0.949 . S
H116 C120 0.949 . S
C117 C118 1.349 . S
C117 C119 1.327 . S
C117 H140 0.950 . S
C118 C117 1.349 . S
C118 C130 1.349 . S
C119 C117 1.327 . S
C119 C135 1.429 . S
C119 H141 0.950 . S
C120 H116 0.949 . S
C120 C128 1.574 . S
C120 C136 1.368 . S
H121 C129 0.950 . S
H122 C127 0.950 . S
H123 C128 0.949 . S
H124 C130 0.950 . S
H125 C131 0.950 . S
H126 C132 0.949 . S
C127 H122 0.950 . S
C127 C129 1.327 . S
C127 C133 1.429 . S
C128 C120 1.574 . S
C128 H123 0.949 . S
C128 C134 1.368 . S
C129 C113 1.349 . S
C129 H121 0.950 . S
C129 C127 1.327 . S
C130 C118 1.349 . S
C130 H124 0.950 . S
C130 C131 1.327 . S
C131 H125 0.950 . S
C131 C130 1.327 . S
C131 C135 1.429 . S
C132 C115 1.574 . S
C132 H126 0.949 . S
C132 C136 1.368 . S
C133 C114 1.429 . S
C133 C127 1.429 . S
C133 C134 1.523 . S
C134 C115 1.368 . S
C134 C128 1.368 . S
C134 C133 1.523 . S
C135 C119 1.429 . S
C135 C131 1.429 . S
C135 C136 1.523 . S
C136 C120 1.368 . S
C136 C132 1.368 . S
C136 C135 1.523 . S
H137 C112 0.950 . S
H138 C114 0.950 . S
H139 C115 0.949 . S
H140 C117 0.950 . S
H141 C119 0.950 . S
C142 C143 1.349 . S
C142 C144 1.327 . S
C142 H167 0.950 . S
C143 C142 1.349 . S
C143 C159 1.349 . S
C144 C142 1.327 . S
C144 C163 1.429 . S
C144 H168 0.950 . S
C145 C162 1.574 . S
C145 C164 1.368 . S
C145 H169 0.949 . S
H146 C150 0.949 . S
C147 C148 1.349 . S
C147 C149 1.327 . S
C147 H170 0.950 . S
C148 C147 1.349 . S
C148 C160 1.349 . S
C149 C147 1.327 . S
C149 C165 1.429 . S
C149 H171 0.950 . S
C150 H146 0.949 . S
C150 C158 1.574 . S
C150 C166 1.368 . S
H151 C159 0.950 . S
H152 C157 0.950 . S
H153 C158 0.949 . S
H154 C160 0.950 . S
H155 C161 0.950 . S
H156 C162 0.949 . S
C157 H152 0.950 . S
C157 C159 1.327 . S
C157 C163 1.429 . S
C158 C150 1.574 . S
C158 H153 0.949 . S
C158 C164 1.368 . S
C159 C143 1.349 . S
C159 H151 0.950 . S
C159 C157 1.327 . S
C160 C148 1.349 . S
C160 H154 0.950 . S
C160 C161 1.327 . S
C161 H155 0.950 . S
C161 C160 1.327 . S
C161 C165 1.429 . S
C162 C145 1.574 . S
C162 H156 0.949 . S
C162 C166 1.368 . S
C163 C144 1.429 . S
C163 C157 1.429 . S
C163 C164 1.523 . S
C164 C145 1.368 . S
C164 C158 1.368 . S
C164 C163 1.523 . S
C165 C149 1.429 . S
C165 C161 1.429 . S
C165 C166 1.523 . S
C166 C150 1.368 . S
C166 C162 1.368 . S
C166 C165 1.523 . S
H167 C142 0.950 . S
H168 C144 0.950 . S
H169 C145 0.949 . S
H170 C147 0.950 . S
H171 C149 0.950 . S
C172 C173 1.349 . S
C172 C174 1.327 . S
C172 H197 0.950 . S
C173 C172 1.349 . S
C173 C189 1.349 . S
C174 C172 1.327 . S
C174 C193 1.429 . S
C174 H198 0.950 . S
C175 C192 1.574 . S
C175 C194 1.368 . S
C175 H199 0.949 . S
H176 C180 0.949 . S
C177 C178 1.349 . S
C177 C179 1.327 . S
C177 H200 0.950 . S
C178 C177 1.349 . S
C178 C190 1.349 . S
C179 C177 1.327 . S
C179 C195 1.429 . S
C179 H201 0.950 . S
C180 H176 0.949 . S
C180 C188 1.574 . S
C180 C196 1.368 . S
H181 C189 0.950 . S
H182 C187 0.950 . S
H183 C188 0.949 . S
H184 C190 0.950 . S
H185 C191 0.950 . S
H186 C192 0.949 . S
C187 H182 0.950 . S
C187 C189 1.327 . S
C187 C193 1.429 . S
C188 C180 1.574 . S
C188 H183 0.949 . S
C188 C194 1.368 . S
C189 C173 1.349 . S
C189 H181 0.950 . S
C189 C187 1.327 . S
C190 C178 1.349 . S
C190 H184 0.950 . S
C190 C191 1.327 . S
C191 H185 0.950 . S
C191 C190 1.327 . S
C191 C195 1.429 . S
C192 C175 1.574 . S
C192 H186 0.949 . S
C192 C196 1.368 . S
C193 C174 1.429 . S
C193 C187 1.429 . S
C193 C194 1.523 . S
C194 C175 1.368 . S
C194 C188 1.368 . S
C194 C193 1.523 . S
C195 C179 1.429 . S
C195 C191 1.429 . S
C195 C196 1.523 . S
C196 C180 1.368 . S
C196 C192 1.368 . S
C196 C195 1.523 . S
H197 C172 0.950 . S
H198 C174 0.950 . S
H199 C175 0.949 . S
H200 C177 0.950 . S
H201 C179 0.950 . S
C202 C203 1.349 . S
C202 C204 1.327 . S
C202 H227 0.950 . S
C203 C202 1.349 . S
C203 C219 1.349 . S
C204 C202 1.327 . S
C204 C223 1.429 . S
C204 H228 0.950 . S
C205 C222 1.574 . S
C205 C224 1.368 . S
C205 H229 0.949 . S
H206 C210 0.949 . S
C207 C208 1.349 . S
C207 C209 1.327 . S
C207 H230 0.950 . S
C208 C207 1.349 . S
C208 C220 1.349 . S
C209 C207 1.327 . S
C209 C225 1.429 . S
C209 H231 0.950 . S
C210 H206 0.949 . S
C210 C218 1.574 . S
C210 C226 1.368 . S
H211 C219 0.950 . S
H212 C217 0.950 . S
H213 C218 0.949 . S
H214 C220 0.950 . S
H215 C221 0.950 . S
H216 C222 0.949 . S
C217 H212 0.950 . S
C217 C219 1.327 . S
C217 C223 1.429 . S
C218 C210 1.574 . S
C218 H213 0.949 . S
C218 C224 1.368 . S
C219 C203 1.349 . S
C219 H211 0.950 . S
C219 C217 1.327 . S
C220 C208 1.349 . S
C220 H214 0.950 . S
C220 C221 1.327 . S
C221 H215 0.950 . S
C221 C220 1.327 . S
C221 C225 1.429 . S
C222 C205 1.574 . S
C222 H216 0.949 . S
C222 C226 1.368 . S
C223 C204 1.429 . S
C223 C217 1.429 . S
C223 C224 1.523 . S
C224 C205 1.368 . S
C224 C218 1.368 . S
C224 C223 1.523 . S
C225 C209 1.429 . S
C225 C221 1.429 . S
C225 C226 1.523 . S
C226 C210 1.368 . S
C226 C222 1.368 . S
C226 C225 1.523 . S
H227 C202 0.950 . S
H228 C204 0.950 . S
H229 C205 0.949 . S
H230 C207 0.950 . S
H231 C209 0.950 . S
C232 C233 1.349 . S
C232 C234 1.327 . S
C232 H257 0.950 . S
C233 C232 1.349 . S
C233 C249 1.349 . S
C234 C232 1.327 . S
C234 C253 1.429 . S
C234 H258 0.950 . S
C235 C252 1.574 . S
C235 C254 1.368 . S
C235 H259 0.949 . S
H236 C240 0.949 . S
C237 C238 1.349 . S
C237 C239 1.327 . S
C237 H260 0.950 . S
C238 C237 1.349 . S
C238 C250 1.349 . S
C239 C237 1.327 . S
C239 C255 1.429 . S
C239 H261 0.950 . S
C240 H236 0.949 . S
C240 C248 1.574 . S
C240 C256 1.368 . S
H241 C249 0.950 . S
H242 C247 0.950 . S
H243 C248 0.949 . S
H244 C250 0.950 . S
H245 C251 0.950 . S
H246 C252 0.949 . S
C247 H242 0.950 . S
C247 C249 1.327 . S
C247 C253 1.429 . S
C248 C240 1.574 . S
C248 H243 0.949 . S
C248 C254 1.368 . S
C249 C233 1.349 . S
C249 H241 0.950 . S
C249 C247 1.327 . S
C250 C238 1.349 . S
C250 H244 0.950 . S
C250 C251 1.327 . S
C251 H245 0.950 . S
C251 C250 1.327 . S
C251 C255 1.429 . S
C252 C235 1.574 . S
C252 H246 0.949 . S
C252 C256 1.368 . S
C253 C234 1.429 . S
C253 C247 1.429 . S
C253 C254 1.523 . S
C254 C235 1.368 . S
C254 C248 1.368 . S
C254 C253 1.523 . S
C255 C239 1.429 . S
C255 C251 1.429 . S
C255 C256 1.523 . S
C256 C240 1.368 . S
C256 C252 1.368 . S
C256 C255 1.523 . S
H257 C232 0.950 . S
H258 C234 0.950 . S
H259 C235 0.949 . S
H260 C237 0.950 . S
H261 C239 0.950 . S
C262 C263 1.349 . S
C262 C264 1.327 . S
C262 H287 0.950 . S
C263 C262 1.349 . S
C263 C279 1.349 . S
C264 C262 1.327 . S
C264 C283 1.429 . S
C264 H288 0.950 . S
C265 C282 1.574 . S
C265 C284 1.368 . S
C265 H289 0.949 . S
H266 C270 0.949 . S
C267 C268 1.349 . S
C267 C269 1.327 . S
C267 H290 0.950 . S
C268 C267 1.349 . S
C268 C280 1.349 . S
C269 C267 1.327 . S
C269 C285 1.429 . S
C269 H291 0.950 . S
C270 H266 0.949 . S
C270 C278 1.574 . S
C270 C286 1.368 . S
H271 C279 0.950 . S
H272 C277 0.950 . S
H273 C278 0.949 . S
H274 C280 0.950 . S
H275 C281 0.950 . S
H276 C282 0.949 . S
C277 H272 0.950 . S
C277 C279 1.327 . S
C277 C283 1.429 . S
C278 C270 1.574 . S
C278 H273 0.949 . S
C278 C284 1.368 . S
C279 C263 1.349 . S
C279 H271 0.950 . S
C279 C277 1.327 . S
C280 C268 1.349 . S
C280 H274 0.950 . S
C280 C281 1.327 . S
C281 H275 0.950 . S
C281 C280 1.327 . S
C281 C285 1.429 . S
C282 C265 1.574 . S
C282 H276 0.949 . S
C282 C286 1.368 . S
C283 C264 1.429 . S
C283 C277 1.429 . S
C283 C284 1.523 . S
C284 C265 1.368 . S
C284 C278 1.368 . S
C284 C283 1.523 . S
C285 C269 1.429 . S
C285 C281 1.429 . S
C285 C286 1.523 . S
C286 C270 1.368 . S
C286 C282 1.368 . S
C286 C285 1.523 . S
H287 C262 0.950 . S
H288 C264 0.950 . S
H289 C265 0.949 . S
H290 C267 0.950 . S
H291 C269 0.950 . S
C292 C293 1.349 . S
C292 C294 1.327 . S
C292 H317 0.950 . S
C293 C292 1.349 . S
C293 C309 1.349 . S
C294 C292 1.327 . S
C294 C313 1.429 . S
C294 H318 0.950 . S
C295 C312 1.574 . S
C295 C314 1.368 . S
C295 H319 0.949 . S
H296 C300 0.949 . S
C297 C298 1.349 . S
C297 C299 1.327 . S
C297 H320 0.950 . S
C298 C297 1.349 . S
C298 C310 1.349 . S
C299 C297 1.327 . S
C299 C315 1.429 . S
C299 H321 0.950 . S
C300 H296 0.949 . S
C300 C308 1.574 . S
C300 C316 1.368 . S
H301 C309 0.950 . S
H302 C307 0.950 . S
H303 C308 0.949 . S
H304 C310 0.950 . S
H305 C311 0.950 . S
H306 C312 0.949 . S
C307 H302 0.950 . S
C307 C309 1.327 . S
C307 C313 1.429 . S
C308 C300 1.574 . S
C308 H303 0.949 . S
C308 C314 1.368 . S
C309 C293 1.349 . S
C309 H301 0.950 . S
C309 C307 1.327 . S
C310 C298 1.349 . S
C310 H304 0.950 . S
C310 C311 1.327 . S
C311 H305 0.950 . S
C311 C310 1.327 . S
C311 C315 1.429 . S
C312 C295 1.574 . S
C312 H306 0.949 . S
C312 C316 1.368 . S
C313 C294 1.429 . S
C313 C307 1.429 . S
C313 C314 1.523 . S
C314 C295 1.368 . S
C314 C308 1.368 . S
C314 C313 1.523 . S
C315 C299 1.429 . S
C315 C311 1.429 . S
C315 C316 1.523 . S
C316 C300 1.368 . S
C316 C312 1.368 . S
C316 C315 1.523 . S
H317 C292 0.950 . S
H318 C294 0.950 . S
H319 C295 0.949 . S
H320 C297 0.950 . S
H321 C299 0.950 . S
C322 C323 1.349 . S
C322 C324 1.327 . S
C322 H347 0.950 . S
C323 C322 1.349 . S
C323 C339 1.349 . S
C324 C322 1.327 . S
C324 C343 1.429 . S
C324 H348 0.950 . S
C325 C342 1.574 . S
C325 C344 1.368 . S
C325 H349 0.949 . S
H326 C330 0.949 . S
C327 C328 1.349 . S
C327 C329 1.327 . S
C327 H350 0.950 . S
C328 C327 1.349 . S
C328 C340 1.349 . S
C329 C327 1.327 . S
C329 C345 1.429 . S
C329 H351 0.950 . S
C330 H326 0.949 . S
C330 C338 1.574 . S
C330 C346 1.368 . S
H331 C339 0.950 . S
H332 C337 0.950 . S
H333 C338 0.949 . S
H334 C340 0.950 . S
H335 C341 0.950 . S
H336 C342 0.949 . S
C337 H332 0.950 . S
C337 C339 1.327 . S
C337 C343 1.429 . S
C338 C330 1.574 . S
C338 H333 0.949 . S
C338 C344 1.368 . S
C339 C323 1.349 . S
C339 H331 0.950 . S
C339 C337 1.327 . S
C340 C328 1.349 . S
C340 H334 0.950 . S
C340 C341 1.327 . S
C341 H335 0.950 . S
C341 C340 1.327 . S
C341 C345 1.429 . S
C342 C325 1.574 . S
C342 H336 0.949 . S
C342 C346 1.368 . S
C343 C324 1.429 . S
C343 C337 1.429 . S
C343 C344 1.523 . S
C344 C325 1.368 . S
C344 C338 1.368 . S
C344 C343 1.523 . S
C345 C329 1.429 . S
C345 C341 1.429 . S
C345 C346 1.523 . S
C346 C330 1.368 . S
C346 C342 1.368 . S
C346 C345 1.523 . S
H347 C322 0.950 . S
H348 C324 0.950 . S
H349 C325 0.949 . S
H350 C327 0.950 . S
H351 C329 0.950 . S
C352 C353 1.349 1_556 S
C352 C354 1.327 . S
C352 H377 0.950 . S
C353 C352 1.349 1_554 S
C353 C369 1.349 . S
C354 C352 1.327 . S
C354 C373 1.429 1_556 S
C354 H378 0.950 . S
C355 C372 1.574 1_655 S
C355 C374 1.368 . S
C355 H379 0.949 . S
H356 C360 0.949 . S
C357 C358 1.349 . S
C357 C359 1.327 . S
C357 H380 0.950 . S
C358 C357 1.349 . S
C358 C370 1.349 1_554 S
C359 C357 1.327 . S
C359 C375 1.429 . S
C359 H381 0.950 . S
C360 H356 0.949 . S
C360 C368 1.574 1_455 S
C360 C376 1.368 1_556 S
H361 C369 0.950 . S
H362 C367 0.950 . S
H363 C368 0.949 . S
H364 C370 0.950 . S
H365 C371 0.950 . S
H366 C372 0.949 . S
C367 H362 0.950 . S
C367 C369 1.327 . S
C367 C373 1.429 . S
C368 C360 1.574 1_655 S
C368 H363 0.949 . S
C368 C374 1.368 1_556 S
C369 C353 1.349 . S
C369 H361 0.950 . S
C369 C367 1.327 . S
C370 C358 1.349 1_556 S
C370 H364 0.950 . S
C370 C371 1.327 . S
C371 H365 0.950 . S
C371 C370 1.327 . S
C371 C375 1.429 1_556 S
C372 C355 1.574 1_455 S
C372 H366 0.949 . S
C372 C376 1.368 . S
C373 C354 1.429 1_554 S
C373 C367 1.429 . S
C373 C374 1.523 . S
C374 C355 1.368 . S
C374 C368 1.368 1_554 S
C374 C373 1.523 . S
C375 C359 1.429 . S
C375 C371 1.429 1_554 S
C375 C376 1.523 . S
C376 C360 1.368 1_554 S
C376 C372 1.368 . S
C376 C375 1.523 . S
H377 C352 0.950 . S
H378 C354 0.950 . S
H379 C355 0.949 . S
H380 C357 0.950 . S
H381 C359 0.950 . S
C382 C383 1.349 . S
C382 C384 1.327 . S
C382 H407 0.950 . S
C383 C382 1.349 . S
C383 C399 1.349 . S
C384 C382 1.327 . S
C384 C403 1.429 . S
C384 H408 0.950 . S
C385 C402 1.574 1_565 S
C385 C404 1.368 . S
C385 H409 0.949 . S
H386 C390 0.949 . S
C387 C388 1.349 . S
C387 C389 1.327 . S
C387 H410 0.950 . S
C388 C387 1.349 . S
C388 C400 1.349 . S
C389 C387 1.327 . S
C389 C405 1.429 . S
C389 H411 0.950 . S
C390 H386 0.949 . S
C390 C398 1.574 1_545 S
C390 C406 1.368 . S
H391 C399 0.950 . S
H392 C397 0.950 . S
H393 C398 0.949 . S
H394 C400 0.950 . S
H395 C401 0.950 . S
H396 C402 0.949 . S
C397 H392 0.950 . S
C397 C399 1.327 . S
C397 C403 1.429 . S
C398 C390 1.574 1_565 S
C398 H393 0.949 . S
C398 C404 1.368 . S
C399 C383 1.349 . S
C399 H391 0.950 . S
C399 C397 1.327 . S
C400 C388 1.349 . S
C400 H394 0.950 . S
C400 C401 1.327 . S
C401 H395 0.950 . S
C401 C400 1.327 . S
C401 C405 1.429 . S
C402 C385 1.574 1_545 S
C402 H396 0.949 . S
C402 C406 1.368 . S
C403 C384 1.429 . S
C403 C397 1.429 . S
C403 C404 1.523 . S
C404 C385 1.368 . S
C404 C398 1.368 . S
C404 C403 1.523 . S
C405 C389 1.429 . S
C405 C401 1.429 . S
C405 C406 1.523 . S
C406 C390 1.368 . S
C406 C402 1.368 . S
C406 C405 1.523 . S
H407 C382 0.950 . S
H408 C384 0.950 . S
H409 C385 0.949 . S
H410 C387 0.950 . S
H411 C389 0.950 . S
C412 C413 1.349 . S
C412 C414 1.327 . S
C412 H437 0.950 . S
C413 C412 1.349 . S
C413 C429 1.349 . S
C414 C412 1.327 . S
C414 C433 1.429 . S
C414 H438 0.950 . S
C415 C432 1.574 1_455 S
C415 C434 1.368 . S
C415 H439 0.949 . S
H416 C420 0.949 . S
C417 C418 1.349 . S
C417 C419 1.327 . S
C417 H440 0.950 . S
C418 C417 1.349 . S
C418 C430 1.349 . S
C419 C417 1.327 . S
C419 C435 1.429 . S
C419 H441 0.950 . S
C420 H416 0.949 . S
C420 C428 1.574 1_655 S
C420 C436 1.368 . S
H421 C429 0.950 . S
H422 C427 0.950 . S
H423 C428 0.949 . S
H424 C430 0.950 . S
H425 C431 0.950 . S
H426 C432 0.949 . S
C427 H422 0.950 . S
C427 C429 1.327 . S
C427 C433 1.429 . S
C428 C420 1.574 1_455 S
C428 H423 0.949 . S
C428 C434 1.368 . S
C429 C413 1.349 . S
C429 H421 0.950 . S
C429 C427 1.327 . S
C430 C418 1.349 . S
C430 H424 0.950 . S
C430 C431 1.327 . S
C431 H425 0.950 . S
C431 C430 1.327 . S
C431 C435 1.429 . S
C432 C415 1.574 1_655 S
C432 H426 0.949 . S
C432 C436 1.368 . S
C433 C414 1.429 . S
C433 C427 1.429 . S
C433 C434 1.523 . S
C434 C415 1.368 . S
C434 C428 1.368 . S
C434 C433 1.523 . S
C435 C419 1.429 . S
C435 C431 1.429 . S
C435 C436 1.523 . S
C436 C420 1.368 . S
C436 C432 1.368 . S
C436 C435 1.523 . S
H437 C412 0.950 . S
H438 C414 0.950 . S
H439 C415 0.949 . S
H440 C417 0.950 . S
H441 C419 0.950 . S
C442 C443 1.349 . S
C442 C444 1.327 . S
C442 H467 0.950 . S
C443 C442 1.349 . S
C443 C459 1.349 1_554 S
C444 C442 1.327 . S
C444 C463 1.429 . S
C444 H468 0.950 . S
C445 C462 1.574 1_565 S
C445 C464 1.368 1_556 S
C445 H469 0.949 . S
H446 C450 0.949 . S
C447 C448 1.349 1_556 S
C447 C449 1.327 . S
C447 H470 0.950 . S
C448 C447 1.349 1_554 S
C448 C460 1.349 . S
C449 C447 1.327 . S
C449 C465 1.429 1_556 S
C449 H471 0.950 . S
C450 H446 0.949 . S
C450 C458 1.574 1_545 S
C450 C466 1.368 . S
H451 C459 0.950 . S
H452 C457 0.950 . S
H453 C458 0.949 . S
H454 C460 0.950 . S
H455 C461 0.950 . S
H456 C462 0.949 . S
C457 H452 0.950 . S
C457 C459 1.327 . S
C457 C463 1.429 1_556 S
C458 C450 1.574 1_565 S
C458 H453 0.949 . S
C458 C464 1.368 . S
C459 C443 1.349 1_556 S
C459 H451 0.950 . S
C459 C457 1.327 . S
C460 C448 1.349 . S
C460 H454 0.950 . S
C460 C461 1.327 . S
C461 H455 0.950 . S
C461 C460 1.327 . S
C461 C465 1.429 . S
C462 C445 1.574 1_545 S
C462 H456 0.949 . S
C462 C466 1.368 1_556 S
C463 C444 1.429 . S
C463 C457 1.429 1_554 S
C463 C464 1.523 . S
C464 C445 1.368 1_554 S
C464 C458 1.368 . S
C464 C463 1.523 . S
C465 C449 1.429 1_554 S
C465 C461 1.429 . S
C465 C466 1.523 . S
C466 C450 1.368 . S
C466 C462 1.368 1_554 S
C466 C465 1.523 . S
H467 C442 0.950 . S
H468 C444 0.950 . S
H469 C445 0.949 . S
H470 C447 0.950 . S
H471 C449 0.950 . S
C472 C473 1.349 1_556 S
C472 C474 1.327 . S
C472 H497 0.950 . S
C473 C472 1.349 1_554 S
C473 C489 1.349 . S
C474 C472 1.327 . S
C474 C493 1.429 1_556 S
C474 H498 0.950 . S
C475 C492 1.574 . S
C475 C494 1.368 . S
C475 H499 0.949 . S
H476 C480 0.949 . S
C477 C478 1.349 . S
C477 C479 1.327 . S
C477 H500 0.950 . S
C478 C477 1.349 . S
C478 C490 1.349 1_554 S
C479 C477 1.327 . S
C479 C495 1.429 . S
C479 H501 0.950 . S
C480 H476 0.949 . S
C480 C488 1.574 . S
C480 C496 1.368 1_556 S
H481 C489 0.950 . S
H482 C487 0.950 . S
H483 C488 0.949 . S
H484 C490 0.950 . S
H485 C491 0.950 . S
H486 C492 0.949 . S
C487 H482 0.950 . S
C487 C489 1.327 . S
C487 C493 1.429 . S
C488 C480 1.574 . S
C488 H483 0.949 . S
C488 C494 1.368 1_556 S
C489 C473 1.349 . S
C489 H481 0.950 . S
C489 C487 1.327 . S
C490 C478 1.349 1_556 S
C490 H484 0.950 . S
C490 C491 1.327 . S
C491 H485 0.950 . S
C491 C490 1.327 . S
C491 C495 1.429 1_556 S
C492 C475 1.574 . S
C492 H486 0.949 . S
C492 C496 1.368 . S
C493 C474 1.429 1_554 S
C493 C487 1.429 . S
C493 C494 1.523 . S
C494 C475 1.368 . S
C494 C488 1.368 1_554 S
C494 C493 1.523 . S
C495 C479 1.429 . S
C495 C491 1.429 1_554 S
C495 C496 1.523 . S
C496 C480 1.368 1_554 S
C496 C492 1.368 . S
C496 C495 1.523 . S
H497 C472 0.950 . S
H498 C474 0.950 . S
H499 C475 0.949 . S
H500 C477 0.950 . S
H501 C479 0.950 . S
C502 C503 1.349 . S
C502 C504 1.327 . S
C502 H527 0.950 . S
C503 C502 1.349 . S
C503 C519 1.349 . S
C504 C502 1.327 . S
C504 C523 1.429 . S
C504 H528 0.950 . S
C505 C522 1.574 . S
C505 C524 1.368 . S
C505 H529 0.949 . S
H506 C510 0.949 . S
C507 C508 1.349 . S
C507 C509 1.327 . S
C507 H530 0.950 . S
C508 C507 1.349 . S
C508 C520 1.349 . S
C509 C507 1.327 . S
C509 C525 1.429 . S
C509 H531 0.950 . S
C510 H506 0.949 . S
C510 C518 1.574 . S
C510 C526 1.368 . S
H511 C519 0.950 . S
H512 C517 0.950 . S
H513 C518 0.949 . S
H514 C520 0.950 . S
H515 C521 0.950 . S
H516 C522 0.949 . S
C517 H512 0.950 . S
C517 C519 1.327 . S
C517 C523 1.429 . S
C518 C510 1.574 . S
C518 H513 0.949 . S
C518 C524 1.368 . S
C519 C503 1.349 . S
C519 H511 0.950 . S
C519 C517 1.327 . S
C520 C508 1.349 . S
C520 H514 0.950 . S
C520 C521 1.327 . S
C521 H515 0.950 . S
C521 C520 1.327 . S
C521 C525 1.429 . S
C522 C505 1.574 . S
C522 H516 0.949 . S
C522 C526 1.368 . S
C523 C504 1.429 . S
C523 C517 1.429 . S
C523 C524 1.523 . S
C524 C505 1.368 . S
C524 C518 1.368 . S
C524 C523 1.523 . S
C525 C509 1.429 . S
C525 C521 1.429 . S
C525 C526 1.523 . S
C526 C510 1.368 . S
C526 C522 1.368 . S
C526 C525 1.523 . S
H527 C502 0.950 . S
H528 C504 0.950 . S
H529 C505 0.949 . S
H530 C507 0.950 . S
H531 C509 0.950 . S
C532 C533 1.349 . S
C532 C534 1.327 . S
C532 H557 0.950 . S
C533 C532 1.349 . S
C533 C549 1.349 . S
C534 C532 1.327 . S
C534 C553 1.429 . S
C534 H558 0.950 . S
C535 C552 1.574 . S
C535 C554 1.368 . S
C535 H559 0.949 1_554 S
H536 C540 0.949 . S
C537 C538 1.349 . S
C537 C539 1.327 . S
C537 H560 0.950 1_554 S
C538 C537 1.349 . S
C538 C550 1.349 . S
C539 C537 1.327 . S
C539 C555 1.429 . S
C539 H561 0.950 1_554 S
C540 H536 0.949 . S
C540 C548 1.574 . S
C540 C556 1.368 . S
H541 C549 0.950 1_556 S
H542 C547 0.950 1_556 S
H543 C548 0.949 . S
H544 C550 0.950 . S
H545 C551 0.950 . S
H546 C552 0.949 1_556 S
C547 H542 0.950 1_554 S
C547 C549 1.327 . S
C547 C553 1.429 . S
C548 C540 1.574 . S
C548 H543 0.949 . S
C548 C554 1.368 . S
C549 C533 1.349 . S
C549 H541 0.950 1_554 S
C549 C547 1.327 . S
C550 C538 1.349 . S
C550 H544 0.950 . S
C550 C551 1.327 . S
C551 H545 0.950 . S
C551 C550 1.327 . S
C551 C555 1.429 . S
C552 C535 1.574 . S
C552 H546 0.949 1_554 S
C552 C556 1.368 . S
C553 C534 1.429 . S
C553 C547 1.429 . S
C553 C554 1.523 . S
C554 C535 1.368 . S
C554 C548 1.368 . S
C554 C553 1.523 . S
C555 C539 1.429 . S
C555 C551 1.429 . S
C555 C556 1.523 . S
C556 C540 1.368 . S
C556 C552 1.368 . S
C556 C555 1.523 . S
H557 C532 0.950 . S
H558 C534 0.950 . S
H559 C535 0.949 1_556 S
H560 C537 0.950 1_556 S
H561 C539 0.950 1_556 S
C562 C563 1.349 . S
C562 C564 1.327 . S
C562 H587 0.950 . S
C563 C562 1.349 . S
C563 C579 1.349 . S
C564 C562 1.327 . S
C564 C583 1.429 . S
C564 H588 0.950 . S
C565 C582 1.574 . S
C565 C584 1.368 . S
C565 H589 0.949 . S
H566 C570 0.949 . S
C567 C568 1.349 . S
C567 C569 1.327 . S
C567 H590 0.950 . S
C568 C567 1.349 . S
C568 C580 1.349 . S
C569 C567 1.327 . S
C569 C585 1.429 . S
C569 H591 0.950 . S
C570 H566 0.949 . S
C570 C578 1.574 . S
C570 C586 1.368 . S
H571 C579 0.950 . S
H572 C577 0.950 . S
H573 C578 0.949 . S
H574 C580 0.950 . S
H575 C581 0.950 . S
H576 C582 0.949 . S
C577 H572 0.950 . S
C577 C579 1.327 . S
C577 C583 1.429 . S
C578 C570 1.574 . S
C578 H573 0.949 . S
C578 C584 1.368 . S
C579 C563 1.349 . S
C579 H571 0.950 . S
C579 C577 1.327 . S
C580 C568 1.349 . S
C580 H574 0.950 . S
C580 C581 1.327 . S
C581 H575 0.950 . S
C581 C580 1.327 . S
C581 C585 1.429 . S
C582 C565 1.574 . S
C582 H576 0.949 . S
C582 C586 1.368 . S
C583 C564 1.429 . S
C583 C577 1.429 . S
C583 C584 1.523 . S
C584 C565 1.368 . S
C584 C578 1.368 . S
C584 C583 1.523 . S
C585 C569 1.429 . S
C585 C581 1.429 . S
C585 C586 1.523 . S
C586 C570 1.368 . S
C586 C582 1.368 . S
C586 C585 1.523 . S
H587 C562 0.950 . S
H588 C564 0.950 . S
H589 C565 0.949 . S
H590 C567 0.950 . S
H591 C569 0.950 . S
C113 C12 1.548 . S
C118 C56 1.545 . S
C143 C15 1.563 . S
C148 C83 1.555 . S
C173 C85 1.563 . S
C178 C40 1.556 . S
C203 C110 1.548 . S
C208 C43 1.544 . S
C233 C84 1.544 . S
C238 C41 1.548 . S
C263 C111 1.556 . S
C268 C42 1.563 . S
C293 C13 1.556 . S
C298 C57 1.563 . S
C323 C14 1.544 . S
C328 C82 1.549 . S
C353 C28 2.018 . S
C358 C1 2.018 . S
C383 C55 2.015 . S
C388 C26 2.015 . S
C413 C68 2.018 . S
C418 C96 2.015 . S
C443 C99 2.018 . S
C448 C71 2.015 . S
C473 C0 1.976 . S
C478 C70 1.978 . S
C503 C97 1.971 . S
C508 C27 1.971 . S
C533 C29 1.976 . S
C538 C98 1.976 . S
C563 C54 1.971 . S
C568 C69 1.969 . S
