# Generated by pormake.
# Topology umw, (4)-cn, num edge types: 1
# Building blocks:
#     Node 0, Type 0, BuildingBlock: GALJAG_clean_sbu_0, # of connection points: 4
#     Node 1, Type 0, BuildingBlock: GALJAG_clean_sbu_0, # of connection points: 4
#     Node 2, Type 0, BuildingBlock: GALJAG_clean_sbu_0, # of connection points: 4
#     Node 3, Type 0, BuildingBlock: GALJAG_clean_sbu_0, # of connection points: 4
#     Node 4, Type 0, BuildingBlock: GALJAG_clean_sbu_0, # of connection points: 4
#     Node 5, Type 0, BuildingBlock: GALJAG_clean_sbu_0, # of connection points: 4
#     Node 6, Type 0, BuildingBlock: GALJAG_clean_sbu_0, # of connection points: 4
#     Node 7, Type 0, BuildingBlock: GALJAG_clean_sbu_0, # of connection points: 4
#     Edge 8, Type (0, 0), BuildingBlock: AJUNOK_clean_linker_0, # of connection points: 2
#     Edge 9, Type (0, 0), BuildingBlock: AJUNOK_clean_linker_0, # of connection points: 2
#     Edge 10, Type (0, 0), BuildingBlock: AJUNOK_clean_linker_0, # of connection points: 2
#     Edge 11, Type (0, 0), BuildingBlock: AJUNOK_clean_linker_0, # of connection points: 2
#     Edge 12, Type (0, 0), BuildingBlock: AJUNOK_clean_linker_0, # of connection points: 2
#     Edge 13, Type (0, 0), BuildingBlock: AJUNOK_clean_linker_0, # of connection points: 2
#     Edge 14, Type (0, 0), BuildingBlock: AJUNOK_clean_linker_0, # of connection points: 2
#     Edge 15, Type (0, 0), BuildingBlock: AJUNOK_clean_linker_0, # of connection points: 2
#     Edge 16, Type (0, 0), BuildingBlock: AJUNOK_clean_linker_0, # of connection points: 2
#     Edge 17, Type (0, 0), BuildingBlock: AJUNOK_clean_linker_0, # of connection points: 2
#     Edge 18, Type (0, 0), BuildingBlock: AJUNOK_clean_linker_0, # of connection points: 2
#     Edge 19, Type (0, 0), BuildingBlock: AJUNOK_clean_linker_0, # of connection points: 2
#     Edge 20, Type (0, 0), BuildingBlock: AJUNOK_clean_linker_0, # of connection points: 2
#     Edge 21, Type (0, 0), BuildingBlock: AJUNOK_clean_linker_0, # of connection points: 2
#     Edge 22, Type (0, 0), BuildingBlock: AJUNOK_clean_linker_0, # of connection points: 2
#     Edge 23, Type (0, 0), BuildingBlock: AJUNOK_clean_linker_0, # of connection points: 2
# Relax obj value: 0.089
# Max RMSD: 0.077
# Mean RMSD: 0.077
data_MOF--net-umw--node1-GALJAG_clean_sbu_0--edge1-AJUNOK_clean_linker_0
_symmetry_space_group_name_H-M    P1
_symmetry_Int_Tables_number       1
_symmetry_cell_setting            triclinic
loop_
_symmetry_equiv_pos_as_xyz
'x, y, z'
_cell_length_a     29.654547
_cell_length_b     29.525266
_cell_length_c     20.223466
_cell_angle_alpha  90.077273
_cell_angle_beta   89.975927
_cell_angle_gamma 90.056956
loop_
_atom_site_label
_atom_site_type_symbol
_atom_site_fract_x
_atom_site_fract_y
_atom_site_fract_z
_atom_type_partial_charge
In0 In 0.41525 0.18226 0.33349 0.0
O1 O 0.34167 0.19786 0.36019 0.0
O2 O 0.3893 0.25156 0.36195 0.0
C3 C 0.41213 0.09151 0.32552 0.0
C4 C 0.45566 0.18442 0.45173 0.0
C5 C 0.45223 0.20337 0.21474 0.0
O6 O 0.37674 0.11518 0.31909 0.0
O7 O 0.44808 0.11402 0.33141 0.0
O8 O 0.47426 0.20307 0.26806 0.0
O9 O 0.41072 0.19462 0.22152 0.0
C10 C 0.34976 0.23868 0.37503 0.0
O11 O 0.46592 0.21256 0.40709 0.0
O12 O 0.42605 0.15585 0.43621 0.0
In13 In 0.80465 0.42093 0.58593 0.0
O14 O 0.78551 0.48129 0.65092 0.0
O15 O 0.81119 0.42173 0.69683 0.0
C16 C 0.7846 0.45487 0.465 0.0
C17 C 0.74488 0.3565 0.61989 0.0
C18 C 0.89542 0.41733 0.58391 0.0
O19 O 0.78239 0.47803 0.51738 0.0
O20 O 0.79563 0.41397 0.47378 0.0
O21 O 0.87165 0.38263 0.57217 0.0
O22 O 0.87321 0.453 0.59369 0.0
C23 C 0.79623 0.46134 0.70397 0.0
O24 O 0.78623 0.34783 0.61137 0.0
O25 O 0.73352 0.39637 0.60486 0.0
In26 In 0.57312 0.80822 0.82911 0.0
O27 O 0.64583 0.79238 0.85958 0.0
O28 O 0.59717 0.73971 0.86446 0.0
C29 C 0.58105 0.89825 0.81466 0.0
C30 C 0.52929 0.80975 0.94499 0.0
C31 C 0.53938 0.7843 0.70937 0.0
O32 O 0.6154 0.87276 0.81582 0.0
O33 O 0.5437 0.87775 0.81731 0.0
O34 O 0.51532 0.78819 0.76051 0.0
O35 O 0.58098 0.7909 0.71909 0.0
C36 C 0.63678 0.7524 0.87753 0.0
O37 O 0.52145 0.77941 0.90235 0.0
O38 O 0.55779 0.83908 0.92818 0.0
In39 In 0.18227 0.57308 0.08339 0.0
O40 O 0.19638 0.513 0.15163 0.0
O41 O 0.17642 0.57586 0.19435 0.0
C42 C 0.2035 0.536 0.96463 0.0
C43 C 0.24359 0.6365 0.11565 0.0
C44 C 0.09183 0.58024 0.07759 0.0
O45 O 0.20618 0.51459 0.01843 0.0
O46 O 0.19163 0.57691 0.97091 0.0
O47 O 0.11726 0.61397 0.06788 0.0
O48 O 0.11222 0.5435 0.08774 0.0
C49 C 0.18833 0.53547 0.20361 0.0
O50 O 0.20256 0.64609 0.10622 0.0
O51 O 0.254 0.59607 0.10214 0.0
In52 In 0.42098 0.80565 0.33004 0.0
O53 O 0.34828 0.78608 0.30255 0.0
O54 O 0.39974 0.7364 0.29497 0.0
C55 C 0.41312 0.89536 0.34816 0.0
C56 C 0.46255 0.80889 0.2126 0.0
C57 C 0.45741 0.78217 0.44798 0.0
O58 O 0.37859 0.87015 0.3438 0.0
O59 O 0.45037 0.87482 0.34531 0.0
O60 O 0.48006 0.78554 0.39541 0.0
O61 O 0.41556 0.78879 0.44064 0.0
C62 C 0.35936 0.74682 0.28333 0.0
O63 O 0.47267 0.77935 0.25521 0.0
O64 O 0.43296 0.83691 0.23016 0.0
In65 In 0.18141 0.41771 0.58442 0.0
O66 O 0.20318 0.47608 0.51755 0.0
O67 O 0.16582 0.42157 0.47552 0.0
C68 C 0.20475 0.45145 0.7044 0.0
C69 C 0.23844 0.35239 0.54439 0.0
C70 C 0.09113 0.41469 0.59689 0.0
O71 O 0.20428 0.47496 0.65236 0.0
O72 O 0.19533 0.4101 0.69553 0.0
O73 O 0.11476 0.37908 0.59882 0.0
O74 O 0.11323 0.45081 0.58992 0.0
C75 C 0.1859 0.45864 0.46632 0.0
O76 O 0.19793 0.344 0.55957 0.0
O77 O 0.25092 0.39246 0.55633 0.0
In78 In 0.56985 0.18437 0.83295 0.0
O79 O 0.51627 0.2114 0.76149 0.0
O80 O 0.55788 0.1563 0.73126 0.0
C81 C 0.53543 0.20477 0.95366 0.0
C82 C 0.63057 0.24426 0.7868 0.0
C83 C 0.57929 0.0942 0.8427 0.0
O84 O 0.51156 0.20152 0.90224 0.0
O85 O 0.57719 0.19934 0.94381 0.0
O86 O 0.61322 0.12035 0.84362 0.0
O87 O 0.54164 0.11405 0.84031 0.0
C88 C 0.52693 0.18355 0.71657 0.0
O89 O 0.64209 0.20496 0.80497 0.0
O90 O 0.59014 0.25422 0.79912 0.0
In91 In 0.80573 0.57654 0.08654 0.0
O92 O 0.78573 0.51852 0.01751 0.0
O93 O 0.81655 0.5773 0.97641 0.0
C94 C 0.78427 0.5393 0.20499 0.0
C95 C 0.74729 0.64177 0.05149 0.0
C96 C 0.89624 0.58186 0.09338 0.0
O97 O 0.78338 0.51752 0.15132 0.0
O98 O 0.79423 0.58073 0.19869 0.0
O99 O 0.87148 0.61609 0.10284 0.0
O100 O 0.87514 0.54549 0.08294 0.0
C101 C 0.7989 0.53914 0.9662 0.0
O102 O 0.78798 0.65028 0.06531 0.0
O103 O 0.73529 0.6015 0.06299 0.0
C104 C 0.48157 0.22508 0.55289 0.0
C105 C 0.47567 0.18439 0.51788 0.0
C106 C 0.49657 0.22466 0.61868 0.0
C107 C 0.507 0.1836 0.65027 0.0
H108 H 0.47356 0.25719 0.52987 0.0
H109 H 0.50102 0.25657 0.6444 0.0
S110 S 0.49807 0.06824 0.57876 0.0
N111 N 0.48128 0.1023 0.51898 0.0
N112 N 0.51089 0.10154 0.64168 0.0
C113 C 0.50172 0.14286 0.61529 0.0
C114 C 0.48564 0.14325 0.54918 0.0
C115 C 0.79226 0.45457 0.8263 0.0
C116 C 0.79308 0.48239 0.76982 0.0
C117 C 0.79265 0.47322 0.88992 0.0
C118 C 0.79475 0.52027 0.89912 0.0
H119 H 0.79177 0.41803 0.82136 0.0
H120 H 0.79273 0.45059 0.93205 0.0
S121 S 0.79484 0.6079 0.76763 0.0
N122 N 0.79369 0.5593 0.72715 0.0
N123 N 0.79521 0.59451 0.84688 0.0
C124 C 0.7944 0.54854 0.84313 0.0
C125 C 0.7933 0.52954 0.77836 0.0
C126 C 0.48847 0.76857 0.11135 0.0
C127 C 0.48106 0.8094 0.14542 0.0
C128 C 0.50223 0.76876 0.04501 0.0
C129 C 0.50985 0.80979 0.01167 0.0
H130 H 0.4827 0.73639 0.13565 0.0
H131 H 0.50805 0.73673 0.02027 0.0
S132 S 0.49546 0.9256 0.07959 0.0
N133 N 0.4818 0.89165 0.14126 0.0
N134 N 0.50902 0.89206 0.0173 0.0
C135 C 0.50275 0.85074 0.04547 0.0
C136 C 0.48797 0.85053 0.11229 0.0
C137 C 0.18139 0.45165 0.34397 0.0
C138 C 0.18919 0.47893 0.39999 0.0
C139 C 0.18274 0.46987 0.28018 0.0
C140 C 0.19107 0.51613 0.27042 0.0
H141 H 0.174 0.4159 0.34936 0.0
H142 H 0.17586 0.44786 0.23846 0.0
S143 S 0.21613 0.60158 0.40006 0.0
N144 N 0.2078 0.55404 0.44127 0.0
N145 N 0.20943 0.58858 0.32123 0.0
C146 C 0.19986 0.54365 0.32577 0.0
C147 C 0.1992 0.52495 0.39068 0.0
C148 C 0.33334 0.3105 0.43507 0.0
C149 C 0.31889 0.26719 0.41508 0.0
C150 C 0.30788 0.33678 0.47889 0.0
C151 C 0.26665 0.32108 0.50457 0.0
H152 H 0.36502 0.32423 0.4174 0.0
H153 H 0.32048 0.37008 0.49188 0.0
S154 S 0.21355 0.20984 0.46842 0.0
N155 N 0.26069 0.20946 0.42491 0.0
N156 N 0.21241 0.25921 0.50685 0.0
C157 C 0.25163 0.27781 0.48511 0.0
C158 C 0.27776 0.25086 0.4404 0.0
C159 C 0.73177 0.28786 0.69015 0.0
C160 C 0.7143 0.32588 0.65689 0.0
C161 C 0.70484 0.26212 0.7332 0.0
C162 C 0.65951 0.27359 0.74495 0.0
H163 H 0.76684 0.27846 0.68419 0.0
H164 H 0.71974 0.23313 0.75759 0.0
S165 S 0.59664 0.36822 0.66649 0.0
N166 N 0.64812 0.37229 0.63614 0.0
N167 N 0.59772 0.3244 0.71698 0.0
C168 C 0.64141 0.31104 0.71094 0.0
C169 C 0.6687 0.33698 0.66687 0.0
C170 C 0.67681 0.65735 0.98851 0.0
C171 C 0.71877 0.6728 0.01188 0.0
C172 C 0.6515 0.68275 0.94352 0.0
C173 C 0.6669 0.72484 0.91996 0.0
H174 H 0.66362 0.62482 0.00401 0.0
H175 H 0.61932 0.66924 0.92749 0.0
S176 S 0.77417 0.7813 0.96672 0.0
N177 N 0.77448 0.73334 0.00863 0.0
N178 N 0.72656 0.78136 0.92439 0.0
C179 C 0.70861 0.74105 0.94331 0.0
C180 C 0.73453 0.71505 0.98928 0.0
C181 C 0.25744 0.70463 0.18685 0.0
C182 C 0.27456 0.66676 0.15261 0.0
C183 C 0.28471 0.72988 0.23014 0.0
C184 C 0.33004 0.71807 0.2411 0.0
H185 H 0.22238 0.7142 0.18159 0.0
H186 H 0.27008 0.75872 0.25538 0.0
S187 S 0.39202 0.62381 0.15968 0.0
N188 N 0.34034 0.62022 0.12996 0.0
N189 N 0.39143 0.66721 0.21115 0.0
C190 C 0.34778 0.68082 0.20601 0.0
C191 C 0.32012 0.65537 0.16176 0.0
C192 C 0.37286 0.96856 0.32566 0.0
C193 C 0.41124 0.94543 0.34874 0.0
C194 C 0.37313 0.01593 0.3181 0.0
C195 C 0.41183 0.04159 0.33311 0.0
H196 H 0.34292 0.94989 0.3115 0.0
H197 H 0.34311 0.03241 0.29945 0.0
S198 S 0.51928 -0.0026 0.40224 0.0
N199 N 0.48756 0.95207 0.39152 0.0
N200 N 0.48832 0.04041 0.37707 0.0
C201 C 0.44982 0.01883 0.35839 0.0
C202 C 0.44944 0.97093 0.36631 0.0
C203 C 0.96953 0.37646 0.57666 0.0
C204 C 0.94525 0.41656 0.58889 0.0
C205 C 0.01679 0.37551 0.58141 0.0
C206 C 0.04131 0.41468 0.59827 0.0
H207 H 0.95198 0.34569 0.56278 0.0
H208 H 0.03426 0.34422 0.57022 0.0
S209 S 0.99371 0.52733 0.64027 0.0
N210 N 0.94943 0.49579 0.62228 0.0
N211 N 0.03777 0.49387 0.63094 0.0
C212 C 0.01737 0.45461 0.61224 0.0
C213 C 0.96947 0.4556 0.60758 0.0
C214 C 0.54242 0.9726 0.82139 0.0
C215 C 0.58311 0.9483 0.81849 0.0
C216 C 0.54196 0.01941 0.83065 0.0
C217 C 0.58219 0.04427 0.83717 0.0
H218 H 0.51029 0.95533 0.81725 0.0
H219 H 0.50951 0.03619 0.8323 0.0
S220 S 0.6981 -0.00286 0.83224 0.0
N221 N 0.66501 0.95257 0.82255 0.0
N222 N 0.66415 0.04122 0.83929 0.0
C223 C 0.62333 0.02065 0.83391 0.0
C224 C 0.62379 0.97255 0.82462 0.0
C225 C 0.97021 0.54267 0.08828 0.0
C226 C 0.94606 0.58357 0.09112 0.0
C227 C 0.01715 0.54229 0.08314 0.0
C228 C 0.04205 0.58278 0.08015 0.0
H229 H 0.95276 0.51043 0.09001 0.0
H230 H 0.03401 0.50976 0.08145 0.0
S231 S -0.0049 0.69918 0.08555 0.0
N232 N 0.95045 0.66585 0.09057 0.0
N233 N 0.03914 0.66513 0.08059 0.0
C234 C 0.01846 0.62407 0.08277 0.0
C235 C 0.97038 0.62446 0.08847 0.0
C236 C 0.468 0.20869 0.02822 0.0
C237 C 0.51523 0.20997 0.02061 0.0
C238 C 0.44788 0.20822 0.09107 0.0
C239 C 0.47409 0.20924 0.14902 0.0
H240 H 0.44628 0.20656 0.98527 0.0
H241 H 0.41148 0.2058 0.09413 0.0
S242 S 0.59911 0.21652 0.15646 0.0
N243 N 0.58757 0.21501 0.07665 0.0
N244 N 0.54992 0.21443 0.19457 0.0
C245 C 0.5213 0.21254 0.14215 0.0
C246 C 0.5418 0.21281 0.07807 0.0
C247 C 0.78003 0.54328 0.32872 0.0
C248 C 0.77864 0.51713 0.27052 0.0
C249 C 0.77998 0.52285 0.39137 0.0
C250 C 0.77901 0.4754 0.39844 0.0
H251 H 0.78238 0.57984 0.32598 0.0
H252 H 0.78239 0.54448 0.43454 0.0
S253 S 0.77114 0.39161 0.26203 0.0
N254 N 0.77297 0.44114 0.22432 0.0
N255 N 0.77348 0.40293 0.34192 0.0
C256 C 0.7758 0.44889 0.34082 0.0
C257 C 0.77543 0.4697 0.27697 0.0
C258 C 0.47228 0.77801 0.63461 0.0
C259 C 0.51947 0.77742 0.64258 0.0
C260 C 0.45241 0.77749 0.5716 0.0
C261 C 0.4789 0.77618 0.51389 0.0
H262 H 0.45037 0.78057 0.67732 0.0
H263 H 0.41603 0.77967 0.56819 0.0
S264 S 0.60396 0.76941 0.50762 0.0
N265 N 0.59208 0.77197 0.58729 0.0
N266 N 0.55492 0.77073 0.46908 0.0
C267 C 0.52608 0.7732 0.52121 0.0
C268 C 0.54631 0.77389 0.58543 0.0
C269 C 0.20727 0.53996 0.84093 0.0
C270 C 0.20965 0.51392 0.89904 0.0
C271 C 0.20791 0.51952 0.77823 0.0
C272 C 0.21048 0.47212 0.77096 0.0
H273 H 0.20368 0.57641 0.84377 0.0
H274 H 0.20459 0.54105 0.73518 0.0
S275 S 0.22137 0.38876 0.90713 0.0
N276 N 0.21797 0.43821 0.945 0.0
N277 N 0.21856 0.39993 0.82727 0.0
C278 C 0.21475 0.44579 0.8285 0.0
C279 C 0.21452 0.46663 0.89244 0.0
loop_
_geom_bond_atom_site_label_1
_geom_bond_atom_site_label_2
_geom_bond_distance
_geom_bond_site_symmetry_2
_ccdc_geom_bond_type
In0 O1 2.294 . S
In0 O2 2.326 . S
In0 O6 2.266 . S
In0 O7 2.326 . S
In0 O8 2.266 . S
In0 O9 2.326 . S
In0 O11 2.294 . S
In0 O12 2.326 . S
O1 In0 2.294 . S
O1 C10 1.240 . S
O2 In0 2.326 . S
O2 C10 1.252 . S
C3 O6 1.252 . S
C3 O7 1.260 . S
C4 O11 1.240 . S
C4 O12 1.252 . S
C5 O8 1.252 . S
C5 O9 1.260 . S
O6 In0 2.266 . S
O6 C3 1.252 . S
O7 In0 2.326 . S
O7 C3 1.260 . S
O8 In0 2.266 . S
O8 C5 1.252 . S
O9 In0 2.326 . S
O9 C5 1.260 . S
C10 O1 1.240 . S
C10 O2 1.252 . S
O11 In0 2.294 . S
O11 C4 1.240 . S
O12 In0 2.326 . S
O12 C4 1.252 . S
In13 O14 2.294 . S
In13 O15 2.326 . S
In13 O19 2.266 . S
In13 O20 2.326 . S
In13 O21 2.266 . S
In13 O22 2.326 . S
In13 O24 2.294 . S
In13 O25 2.326 . S
O14 In13 2.294 . S
O14 C23 1.240 . S
O15 In13 2.326 . S
O15 C23 1.252 . S
C16 O19 1.252 . S
C16 O20 1.260 . S
C17 O24 1.240 . S
C17 O25 1.252 . S
C18 O21 1.252 . S
C18 O22 1.260 . S
O19 In13 2.266 . S
O19 C16 1.252 . S
O20 In13 2.326 . S
O20 C16 1.260 . S
O21 In13 2.266 . S
O21 C18 1.252 . S
O22 In13 2.326 . S
O22 C18 1.260 . S
C23 O14 1.240 . S
C23 O15 1.252 . S
O24 In13 2.294 . S
O24 C17 1.240 . S
O25 In13 2.326 . S
O25 C17 1.252 . S
In26 O27 2.294 . S
In26 O28 2.326 . S
In26 O32 2.266 . S
In26 O33 2.326 . S
In26 O34 2.266 . S
In26 O35 2.326 . S
In26 O37 2.294 . S
In26 O38 2.326 . S
O27 In26 2.294 . S
O27 C36 1.240 . S
O28 In26 2.326 . S
O28 C36 1.252 . S
C29 O32 1.252 . S
C29 O33 1.260 . S
C30 O37 1.240 . S
C30 O38 1.252 . S
C31 O34 1.252 . S
C31 O35 1.260 . S
O32 In26 2.266 . S
O32 C29 1.252 . S
O33 In26 2.326 . S
O33 C29 1.260 . S
O34 In26 2.266 . S
O34 C31 1.252 . S
O35 In26 2.326 . S
O35 C31 1.260 . S
C36 O27 1.240 . S
C36 O28 1.252 . S
O37 In26 2.294 . S
O37 C30 1.240 . S
O38 In26 2.326 . S
O38 C30 1.252 . S
In39 O40 2.294 . S
In39 O41 2.326 . S
In39 O45 2.266 . S
In39 O46 2.326 1_554 S
In39 O47 2.266 . S
In39 O48 2.326 . S
In39 O50 2.294 . S
In39 O51 2.326 . S
O40 In39 2.294 . S
O40 C49 1.240 . S
O41 In39 2.326 . S
O41 C49 1.252 . S
C42 O45 1.252 1_556 S
C42 O46 1.260 . S
C43 O50 1.240 . S
C43 O51 1.252 . S
C44 O47 1.252 . S
C44 O48 1.260 . S
O45 In39 2.266 . S
O45 C42 1.252 1_554 S
O46 In39 2.326 1_556 S
O46 C42 1.260 . S
O47 In39 2.266 . S
O47 C44 1.252 . S
O48 In39 2.326 . S
O48 C44 1.260 . S
C49 O40 1.240 . S
C49 O41 1.252 . S
O50 In39 2.294 . S
O50 C43 1.240 . S
O51 In39 2.326 . S
O51 C43 1.252 . S
In52 O53 2.294 . S
In52 O54 2.326 . S
In52 O58 2.266 . S
In52 O59 2.326 . S
In52 O60 2.266 . S
In52 O61 2.326 . S
In52 O63 2.294 . S
In52 O64 2.326 . S
O53 In52 2.294 . S
O53 C62 1.240 . S
O54 In52 2.326 . S
O54 C62 1.252 . S
C55 O58 1.252 . S
C55 O59 1.260 . S
C56 O63 1.240 . S
C56 O64 1.252 . S
C57 O60 1.252 . S
C57 O61 1.260 . S
O58 In52 2.266 . S
O58 C55 1.252 . S
O59 In52 2.326 . S
O59 C55 1.260 . S
O60 In52 2.266 . S
O60 C57 1.252 . S
O61 In52 2.326 . S
O61 C57 1.260 . S
C62 O53 1.240 . S
C62 O54 1.252 . S
O63 In52 2.294 . S
O63 C56 1.240 . S
O64 In52 2.326 . S
O64 C56 1.252 . S
In65 O66 2.294 . S
In65 O67 2.326 . S
In65 O71 2.266 . S
In65 O72 2.326 . S
In65 O73 2.266 . S
In65 O74 2.326 . S
In65 O76 2.294 . S
In65 O77 2.326 . S
O66 In65 2.294 . S
O66 C75 1.240 . S
O67 In65 2.326 . S
O67 C75 1.252 . S
C68 O71 1.252 . S
C68 O72 1.260 . S
C69 O76 1.240 . S
C69 O77 1.252 . S
C70 O73 1.252 . S
C70 O74 1.260 . S
O71 In65 2.266 . S
O71 C68 1.252 . S
O72 In65 2.326 . S
O72 C68 1.260 . S
O73 In65 2.266 . S
O73 C70 1.252 . S
O74 In65 2.326 . S
O74 C70 1.260 . S
C75 O66 1.240 . S
C75 O67 1.252 . S
O76 In65 2.294 . S
O76 C69 1.240 . S
O77 In65 2.326 . S
O77 C69 1.252 . S
In78 O79 2.294 . S
In78 O80 2.326 . S
In78 O84 2.266 . S
In78 O85 2.326 . S
In78 O86 2.266 . S
In78 O87 2.326 . S
In78 O89 2.294 . S
In78 O90 2.326 . S
O79 In78 2.294 . S
O79 C88 1.240 . S
O80 In78 2.326 . S
O80 C88 1.252 . S
C81 O84 1.252 . S
C81 O85 1.260 . S
C82 O89 1.240 . S
C82 O90 1.252 . S
C83 O86 1.252 . S
C83 O87 1.260 . S
O84 In78 2.266 . S
O84 C81 1.252 . S
O85 In78 2.326 . S
O85 C81 1.260 . S
O86 In78 2.266 . S
O86 C83 1.252 . S
O87 In78 2.326 . S
O87 C83 1.260 . S
C88 O79 1.240 . S
C88 O80 1.252 . S
O89 In78 2.294 . S
O89 C82 1.240 . S
O90 In78 2.326 . S
O90 C82 1.252 . S
In91 O92 2.294 1_554 S
In91 O93 2.326 1_554 S
In91 O97 2.266 . S
In91 O98 2.326 . S
In91 O99 2.266 . S
In91 O100 2.326 . S
In91 O102 2.294 . S
In91 O103 2.326 . S
O92 In91 2.294 1_556 S
O92 C101 1.240 . S
O93 In91 2.326 1_556 S
O93 C101 1.252 . S
C94 O97 1.252 . S
C94 O98 1.260 . S
C95 O102 1.240 . S
C95 O103 1.252 . S
C96 O99 1.252 . S
C96 O100 1.260 . S
O97 In91 2.266 . S
O97 C94 1.252 . S
O98 In91 2.326 . S
O98 C94 1.260 . S
O99 In91 2.266 . S
O99 C96 1.252 . S
O100 In91 2.326 . S
O100 C96 1.260 . S
C101 O92 1.240 . S
C101 O93 1.252 . S
O102 In91 2.294 . S
O102 C95 1.240 . S
O103 In91 2.326 . S
O103 C95 1.252 . S
C104 C105 1.369 . S
C104 C106 1.419 . S
C104 H108 0.930 . S
C105 C104 1.369 . S
C105 C114 1.429 . S
C106 C104 1.419 . S
C106 C107 1.363 . S
C106 H109 0.929 . S
C107 C106 1.363 . S
C107 C113 1.428 . S
H108 C104 0.930 . S
H109 C106 0.929 . S
S110 N111 1.613 . S
S110 N112 1.610 . S
N111 S110 1.613 . S
N111 C114 1.350 . S
N112 S110 1.610 . S
N112 C113 1.351 . S
C113 C107 1.428 . S
C113 N112 1.351 . S
C113 C114 1.434 . S
C114 C105 1.429 . S
C114 N111 1.350 . S
C114 C113 1.434 . S
C115 C116 1.369 . S
C115 C117 1.419 . S
C115 H119 0.930 . S
C116 C115 1.369 . S
C116 C125 1.429 . S
C117 C115 1.419 . S
C117 C118 1.363 . S
C117 H120 0.929 . S
C118 C117 1.363 . S
C118 C124 1.428 . S
H119 C115 0.930 . S
H120 C117 0.929 . S
S121 N122 1.613 . S
S121 N123 1.610 . S
N122 S121 1.613 . S
N122 C125 1.350 . S
N123 S121 1.610 . S
N123 C124 1.351 . S
C124 C118 1.428 . S
C124 N123 1.351 . S
C124 C125 1.434 . S
C125 C116 1.429 . S
C125 N122 1.350 . S
C125 C124 1.434 . S
C126 C127 1.369 . S
C126 C128 1.419 . S
C126 H130 0.930 . S
C127 C126 1.369 . S
C127 C136 1.429 . S
C128 C126 1.419 . S
C128 C129 1.363 . S
C128 H131 0.929 . S
C129 C128 1.363 . S
C129 C135 1.428 . S
H130 C126 0.930 . S
H131 C128 0.929 . S
S132 N133 1.613 . S
S132 N134 1.610 . S
N133 S132 1.613 . S
N133 C136 1.350 . S
N134 S132 1.610 . S
N134 C135 1.351 . S
C135 C129 1.428 . S
C135 N134 1.351 . S
C135 C136 1.434 . S
C136 C127 1.429 . S
C136 N133 1.350 . S
C136 C135 1.434 . S
C137 C138 1.369 . S
C137 C139 1.419 . S
C137 H141 0.930 . S
C138 C137 1.369 . S
C138 C147 1.429 . S
C139 C137 1.419 . S
C139 C140 1.363 . S
C139 H142 0.929 . S
C140 C139 1.363 . S
C140 C146 1.428 . S
H141 C137 0.930 . S
H142 C139 0.929 . S
S143 N144 1.613 . S
S143 N145 1.610 . S
N144 S143 1.613 . S
N144 C147 1.350 . S
N145 S143 1.610 . S
N145 C146 1.351 . S
C146 C140 1.428 . S
C146 N145 1.351 . S
C146 C147 1.434 . S
C147 C138 1.429 . S
C147 N144 1.350 . S
C147 C146 1.434 . S
C148 C149 1.369 . S
C148 C150 1.419 . S
C148 H152 0.930 . S
C149 C148 1.369 . S
C149 C158 1.429 . S
C150 C148 1.419 . S
C150 C151 1.363 . S
C150 H153 0.929 . S
C151 C150 1.363 . S
C151 C157 1.428 . S
H152 C148 0.930 . S
H153 C150 0.929 . S
S154 N155 1.613 . S
S154 N156 1.610 . S
N155 S154 1.613 . S
N155 C158 1.350 . S
N156 S154 1.610 . S
N156 C157 1.351 . S
C157 C151 1.428 . S
C157 N156 1.351 . S
C157 C158 1.434 . S
C158 C149 1.429 . S
C158 N155 1.350 . S
C158 C157 1.434 . S
C159 C160 1.369 . S
C159 C161 1.419 . S
C159 H163 0.930 . S
C160 C159 1.369 . S
C160 C169 1.429 . S
C161 C159 1.419 . S
C161 C162 1.363 . S
C161 H164 0.929 . S
C162 C161 1.363 . S
C162 C168 1.428 . S
H163 C159 0.930 . S
H164 C161 0.929 . S
S165 N166 1.613 . S
S165 N167 1.610 . S
N166 S165 1.613 . S
N166 C169 1.350 . S
N167 S165 1.610 . S
N167 C168 1.351 . S
C168 C162 1.428 . S
C168 N167 1.351 . S
C168 C169 1.434 . S
C169 C160 1.429 . S
C169 N166 1.350 . S
C169 C168 1.434 . S
C170 C171 1.369 . S
C170 C172 1.419 . S
C170 H174 0.930 . S
C171 C170 1.369 . S
C171 C180 1.429 1_556 S
C172 C170 1.419 . S
C172 C173 1.363 . S
C172 H175 0.929 . S
C173 C172 1.363 . S
C173 C179 1.428 . S
H174 C170 0.930 . S
H175 C172 0.929 . S
S176 N177 1.613 . S
S176 N178 1.610 1_554 S
N177 S176 1.613 . S
N177 C180 1.350 . S
N178 S176 1.610 1_556 S
N178 C179 1.351 . S
C179 C173 1.428 . S
C179 N178 1.351 . S
C179 C180 1.434 1_556 S
C180 C171 1.429 1_554 S
C180 N177 1.350 . S
C180 C179 1.434 1_554 S
C181 C182 1.369 . S
C181 C183 1.419 . S
C181 H185 0.930 . S
C182 C181 1.369 . S
C182 C191 1.429 . S
C183 C181 1.419 . S
C183 C184 1.363 . S
C183 H186 0.929 . S
C184 C183 1.363 . S
C184 C190 1.428 . S
H185 C181 0.930 . S
H186 C183 0.929 . S
S187 N188 1.613 . S
S187 N189 1.610 . S
N188 S187 1.613 . S
N188 C191 1.350 . S
N189 S187 1.610 . S
N189 C190 1.351 . S
C190 C184 1.428 . S
C190 N189 1.351 . S
C190 C191 1.434 . S
C191 C182 1.429 . S
C191 N188 1.350 . S
C191 C190 1.434 . S
C192 C193 1.369 . S
C192 C194 1.419 1_565 S
C192 H196 0.930 . S
C193 C192 1.369 . S
C193 C202 1.429 . S
C194 C192 1.419 1_545 S
C194 C195 1.363 . S
C194 H197 0.929 . S
C195 C194 1.363 . S
C195 C201 1.428 . S
H196 C192 0.930 . S
H197 C194 0.929 . S
S198 N199 1.613 1_545 S
S198 N200 1.610 . S
N199 S198 1.613 1_565 S
N199 C202 1.350 . S
N200 S198 1.610 . S
N200 C201 1.351 . S
C201 C195 1.428 . S
C201 N200 1.351 . S
C201 C202 1.434 1_545 S
C202 C193 1.429 . S
C202 N199 1.350 . S
C202 C201 1.434 1_565 S
C203 C204 1.369 . S
C203 C205 1.419 1_655 S
C203 H207 0.930 . S
C204 C203 1.369 . S
C204 C213 1.429 . S
C205 C203 1.419 1_455 S
C205 C206 1.363 . S
C205 H208 0.929 . S
C206 C205 1.363 . S
C206 C212 1.428 . S
H207 C203 0.930 . S
H208 C205 0.929 . S
S209 N210 1.613 . S
S209 N211 1.610 1_655 S
N210 S209 1.613 . S
N210 C213 1.350 . S
N211 S209 1.610 1_455 S
N211 C212 1.351 . S
C212 C206 1.428 . S
C212 N211 1.351 . S
C212 C213 1.434 1_455 S
C213 C204 1.429 . S
C213 N210 1.350 . S
C213 C212 1.434 1_655 S
C214 C215 1.369 . S
C214 C216 1.419 1_565 S
C214 H218 0.930 . S
C215 C214 1.369 . S
C215 C224 1.429 . S
C216 C214 1.419 1_545 S
C216 C217 1.363 . S
C216 H219 0.929 . S
C217 C216 1.363 . S
C217 C223 1.428 . S
H218 C214 0.930 . S
H219 C216 0.929 . S
S220 N221 1.612 . S
S220 N222 1.611 1_565 S
N221 S220 1.612 . S
N221 C224 1.350 . S
N222 S220 1.611 1_545 S
N222 C223 1.351 . S
C223 C217 1.428 . S
C223 N222 1.351 . S
C223 C224 1.434 1_545 S
C224 C215 1.429 . S
C224 N221 1.350 . S
C224 C223 1.434 1_565 S
C225 C226 1.369 . S
C225 C227 1.419 1_655 S
C225 H229 0.930 . S
C226 C225 1.369 . S
C226 C235 1.429 . S
C227 C225 1.419 1_455 S
C227 C228 1.363 . S
C227 H230 0.929 . S
C228 C227 1.363 . S
C228 C234 1.428 . S
H229 C225 0.930 . S
H230 C227 0.929 . S
S231 N232 1.613 1_455 S
S231 N233 1.610 . S
N232 S231 1.613 1_655 S
N232 C235 1.350 . S
N233 S231 1.610 . S
N233 C234 1.351 . S
C234 C228 1.428 . S
C234 N233 1.351 . S
C234 C235 1.434 1_455 S
C235 C226 1.429 . S
C235 N232 1.350 . S
C235 C234 1.434 1_655 S
C236 C237 1.369 . S
C236 C238 1.419 . S
C236 H240 0.930 . S
C237 C236 1.369 . S
C237 C246 1.429 . S
C238 C236 1.419 . S
C238 C239 1.363 . S
C238 H241 0.929 . S
C239 C238 1.363 . S
C239 C245 1.428 . S
H240 C236 0.930 . S
H241 C238 0.929 . S
S242 N243 1.613 . S
S242 N244 1.610 . S
N243 S242 1.613 . S
N243 C246 1.350 . S
N244 S242 1.610 . S
N244 C245 1.351 . S
C245 C239 1.428 . S
C245 N244 1.351 . S
C245 C246 1.434 . S
C246 C237 1.429 . S
C246 N243 1.350 . S
C246 C245 1.434 . S
C247 C248 1.369 . S
C247 C249 1.419 . S
C247 H251 0.930 . S
C248 C247 1.369 . S
C248 C257 1.429 . S
C249 C247 1.419 . S
C249 C250 1.363 . S
C249 H252 0.929 . S
C250 C249 1.363 . S
C250 C256 1.428 . S
H251 C247 0.930 . S
H252 C249 0.929 . S
S253 N254 1.613 . S
S253 N255 1.610 . S
N254 S253 1.613 . S
N254 C257 1.350 . S
N255 S253 1.610 . S
N255 C256 1.351 . S
C256 C250 1.428 . S
C256 N255 1.351 . S
C256 C257 1.434 . S
C257 C248 1.429 . S
C257 N254 1.350 . S
C257 C256 1.434 . S
C258 C259 1.369 . S
C258 C260 1.419 . S
C258 H262 0.930 . S
C259 C258 1.369 . S
C259 C268 1.429 . S
C260 C258 1.419 . S
C260 C261 1.363 . S
C260 H263 0.929 . S
C261 C260 1.363 . S
C261 C267 1.428 . S
H262 C258 0.930 . S
H263 C260 0.929 . S
S264 N265 1.613 . S
S264 N266 1.610 . S
N265 S264 1.613 . S
N265 C268 1.350 . S
N266 S264 1.610 . S
N266 C267 1.351 . S
C267 C261 1.428 . S
C267 N266 1.351 . S
C267 C268 1.434 . S
C268 C259 1.429 . S
C268 N265 1.350 . S
C268 C267 1.434 . S
C269 C270 1.369 . S
C269 C271 1.419 . S
C269 H273 0.930 . S
C270 C269 1.369 . S
C270 C279 1.429 . S
C271 C269 1.419 . S
C271 C272 1.363 . S
C271 H274 0.929 . S
C272 C271 1.363 . S
C272 C278 1.428 . S
H273 C269 0.930 . S
H274 C271 0.929 . S
S275 N276 1.613 . S
S275 N277 1.610 . S
N276 S275 1.613 . S
N276 C279 1.350 . S
N277 S275 1.610 . S
N277 C278 1.351 . S
C278 C272 1.428 . S
C278 N277 1.351 . S
C278 C279 1.434 . S
C279 C270 1.429 . S
C279 N276 1.350 . S
C279 C278 1.434 . S
C105 C4 0.923 . S
C107 C88 0.922 . S
C116 C23 0.925 . S
C118 C101 0.921 . S
C127 C56 0.924 . S
C129 C30 0.922 1_554 S
C138 C75 0.928 . S
C140 C49 0.921 . S
C149 C10 1.560 . S
C151 C69 1.561 . S
C160 C17 1.563 . S
C162 C82 1.559 . S
C171 C95 1.564 1_556 S
C173 C36 1.559 . S
C182 C43 1.563 . S
C184 C62 1.558 . S
C193 C55 1.582 . S
C195 C3 1.579 . S
C204 C18 1.579 . S
C206 C70 1.581 . S
C215 C29 1.580 . S
C217 C83 1.581 . S
C226 C96 1.581 . S
C228 C44 1.581 . S
C237 C81 1.638 1_554 S
C239 C5 1.638 . S
C248 C94 1.640 . S
C250 C16 1.640 . S
C259 C31 1.638 . S
C261 C57 1.638 . S
C270 C42 1.640 . S
C272 C68 1.640 . S
