# Generated by pormake.
# Topology uoy, (4)-cn, num edge types: 1
# Building blocks:
#     Node 0, Type 0, BuildingBlock: ICAMEG_clean_sbu_1, # of connection points: 4
#     Node 1, Type 0, BuildingBlock: ICAMEG_clean_sbu_1, # of connection points: 4
#     Node 2, Type 0, BuildingBlock: ICAMEG_clean_sbu_1, # of connection points: 4
#     Node 3, Type 0, BuildingBlock: ICAMEG_clean_sbu_1, # of connection points: 4
#     Node 4, Type 0, BuildingBlock: ICAMEG_clean_sbu_1, # of connection points: 4
#     Node 5, Type 0, BuildingBlock: ICAMEG_clean_sbu_1, # of connection points: 4
#     Node 6, Type 0, BuildingBlock: ICAMEG_clean_sbu_1, # of connection points: 4
#     Node 7, Type 0, BuildingBlock: ICAMEG_clean_sbu_1, # of connection points: 4
#     Node 8, Type 0, BuildingBlock: ICAMEG_clean_sbu_1, # of connection points: 4
#     Node 9, Type 0, BuildingBlock: ICAMEG_clean_sbu_1, # of connection points: 4
#     Node 10, Type 0, BuildingBlock: ICAMEG_clean_sbu_1, # of connection points: 4
#     Node 11, Type 0, BuildingBlock: ICAMEG_clean_sbu_1, # of connection points: 4
#     Node 12, Type 0, BuildingBlock: ICAMEG_clean_sbu_1, # of connection points: 4
#     Node 13, Type 0, BuildingBlock: ICAMEG_clean_sbu_1, # of connection points: 4
#     Node 14, Type 0, BuildingBlock: ICAMEG_clean_sbu_1, # of connection points: 4
#     Node 15, Type 0, BuildingBlock: ICAMEG_clean_sbu_1, # of connection points: 4
#     Edge 16, Type (0, 0), BuildingBlock: OJICUG_clean_linker_0, # of connection points: 2
#     Edge 17, Type (0, 0), BuildingBlock: OJICUG_clean_linker_0, # of connection points: 2
#     Edge 18, Type (0, 0), BuildingBlock: OJICUG_clean_linker_0, # of connection points: 2
#     Edge 19, Type (0, 0), BuildingBlock: OJICUG_clean_linker_0, # of connection points: 2
#     Edge 20, Type (0, 0), BuildingBlock: OJICUG_clean_linker_0, # of connection points: 2
#     Edge 21, Type (0, 0), BuildingBlock: OJICUG_clean_linker_0, # of connection points: 2
#     Edge 22, Type (0, 0), BuildingBlock: OJICUG_clean_linker_0, # of connection points: 2
#     Edge 23, Type (0, 0), BuildingBlock: OJICUG_clean_linker_0, # of connection points: 2
#     Edge 24, Type (0, 0), BuildingBlock: OJICUG_clean_linker_0, # of connection points: 2
#     Edge 25, Type (0, 0), BuildingBlock: OJICUG_clean_linker_0, # of connection points: 2
#     Edge 26, Type (0, 0), BuildingBlock: OJICUG_clean_linker_0, # of connection points: 2
#     Edge 27, Type (0, 0), BuildingBlock: OJICUG_clean_linker_0, # of connection points: 2
#     Edge 28, Type (0, 0), BuildingBlock: OJICUG_clean_linker_0, # of connection points: 2
#     Edge 29, Type (0, 0), BuildingBlock: OJICUG_clean_linker_0, # of connection points: 2
#     Edge 30, Type (0, 0), BuildingBlock: OJICUG_clean_linker_0, # of connection points: 2
#     Edge 31, Type (0, 0), BuildingBlock: OJICUG_clean_linker_0, # of connection points: 2
#     Edge 32, Type (0, 0), BuildingBlock: OJICUG_clean_linker_0, # of connection points: 2
#     Edge 33, Type (0, 0), BuildingBlock: OJICUG_clean_linker_0, # of connection points: 2
#     Edge 34, Type (0, 0), BuildingBlock: OJICUG_clean_linker_0, # of connection points: 2
#     Edge 35, Type (0, 0), BuildingBlock: OJICUG_clean_linker_0, # of connection points: 2
#     Edge 36, Type (0, 0), BuildingBlock: OJICUG_clean_linker_0, # of connection points: 2
#     Edge 37, Type (0, 0), BuildingBlock: OJICUG_clean_linker_0, # of connection points: 2
#     Edge 38, Type (0, 0), BuildingBlock: OJICUG_clean_linker_0, # of connection points: 2
#     Edge 39, Type (0, 0), BuildingBlock: OJICUG_clean_linker_0, # of connection points: 2
#     Edge 40, Type (0, 0), BuildingBlock: OJICUG_clean_linker_0, # of connection points: 2
#     Edge 41, Type (0, 0), BuildingBlock: OJICUG_clean_linker_0, # of connection points: 2
#     Edge 42, Type (0, 0), BuildingBlock: OJICUG_clean_linker_0, # of connection points: 2
#     Edge 43, Type (0, 0), BuildingBlock: OJICUG_clean_linker_0, # of connection points: 2
#     Edge 44, Type (0, 0), BuildingBlock: OJICUG_clean_linker_0, # of connection points: 2
#     Edge 45, Type (0, 0), BuildingBlock: OJICUG_clean_linker_0, # of connection points: 2
#     Edge 46, Type (0, 0), BuildingBlock: OJICUG_clean_linker_0, # of connection points: 2
#     Edge 47, Type (0, 0), BuildingBlock: OJICUG_clean_linker_0, # of connection points: 2
# Relax obj value: 0.021
# Max RMSD: 0.071
# Mean RMSD: 0.071
data_MOF--net-uoy--node1-ICAMEG_clean_sbu_1--edge1-OJICUG_clean_linker_0
_symmetry_space_group_name_H-M    P1
_symmetry_Int_Tables_number       1
_symmetry_cell_setting            triclinic
loop_
_symmetry_equiv_pos_as_xyz
'x, y, z'
_cell_length_a     21.722947
_cell_length_b     21.721244
_cell_length_c     87.340044
_cell_angle_alpha  90.005845
_cell_angle_beta   90.002617
_cell_angle_gamma 90.002517
loop_
_atom_site_label
_atom_site_type_symbol
_atom_site_fract_x
_atom_site_fract_y
_atom_site_fract_z
_atom_type_partial_charge
Co0 Co 0.31661 0.17808 0.18918 0.0
Co1 Co 0.25595 0.04344 0.20232 0.0
O2 O 0.25069 0.11573 0.18868 0.0
C3 C 0.26822 0.1806 0.15646 0.0
O4 O 0.22549 0.13952 0.15934 0.0
C5 C 0.11934 0.06605 0.19764 0.0
O6 O 0.12963 0.11309 0.18859 0.0
O7 O 0.2574 0.09987 0.2202 0.0
O8 O 0.33071 0.16347 0.21168 0.0
H9 H 0.34176 0.92552 0.24705 0.0
H10 H 0.18925 0.21277 0.17883 0.0
O11 O 0.30628 0.19726 0.16676 0.0
H12 H 0.24108 0.35962 0.21975 0.0
H13 H 0.4213 0.37807 0.17573 0.0
H14 H 0.44082 0.18078 0.20323 0.0
H15 H 0.3151 0.27973 0.21206 0.0
H16 H 0.33606 0.3031 0.17563 0.0
O17 O 0.16361 0.0372 0.20395 0.0
H18 H 0.33435 0.01281 0.22911 0.0
H19 H 0.18789 0.92439 0.20552 0.0
H20 H 0.52691 0.25469 0.20374 0.0
H21 H 0.11439 0.29219 0.18599 0.0
H22 H 0.51747 0.35418 0.18992 0.0
H23 H 0.13988 0.36657 0.20663 0.0
O24 O 0.37689 0.11263 0.1837 0.0
H25 H 0.18624 0.96722 0.1505 0.0
H26 H 0.32977 0.93367 0.19339 0.0
H27 H 0.33305 0.86433 0.17113 0.0
H28 H 0.26069 0.88058 0.14949 0.0
H29 H 0.18509 0.03578 0.17282 0.0
H30 H 0.19342 0.83641 0.2233 0.0
H31 H 0.27094 0.83649 0.2442 0.0
O32 O 0.34803 0.04461 0.20149 0.0
C33 C 0.29833 0.14094 0.22252 0.0
C34 C 0.30787 0.9249 0.23796 0.0
C35 C 0.22456 0.87493 0.22465 0.0
N36 N 0.26096 0.97369 0.21621 0.0
C37 C 0.30352 0.97417 0.22774 0.0
C38 C 0.22151 0.92502 0.21465 0.0
C39 C 0.2681 0.87498 0.23637 0.0
C40 C 0.2015 0.24508 0.18761 0.0
N41 N 0.25737 0.24177 0.19474 0.0
C42 C 0.15852 0.28997 0.19172 0.0
C43 C 0.17277 0.3316 0.20331 0.0
C44 C 0.2295 0.32772 0.21067 0.0
C45 C 0.27129 0.28222 0.20625 0.0
C46 C 0.42594 0.3349 0.18181 0.0
C47 C 0.43619 0.22408 0.19725 0.0
C48 C 0.3779 0.29216 0.18175 0.0
N49 N 0.38327 0.23769 0.18949 0.0
C50 C 0.48517 0.26571 0.19755 0.0
C51 C 0.47987 0.32149 0.18978 0.0
C52 C 0.38654 0.06458 0.19169 0.0
C53 C 0.21765 0.9593 0.15992 0.0
C54 C 0.29789 0.94118 0.18407 0.0
C55 C 0.30006 0.90165 0.17147 0.0
C56 C 0.2595 0.91079 0.15934 0.0
N57 N 0.25622 0.9884 0.18467 0.0
C58 C 0.21687 0.99793 0.17271 0.0
Co59 Co 0.82729 0.81702 0.43915 0.0
Co60 Co 0.96176 0.75603 0.4523 0.0
O61 O 0.88948 0.75095 0.43865 0.0
C62 C 0.82471 0.76869 0.40642 0.0
O63 O 0.8657 0.72588 0.4093 0.0
C64 C 0.93885 0.61945 0.44763 0.0
O65 O 0.89187 0.6298 0.43856 0.0
O66 O 0.90531 0.75762 0.47017 0.0
O67 O 0.84189 0.83108 0.46165 0.0
H68 H 0.0798 0.84161 0.49704 0.0
H69 H 0.79234 0.68974 0.42878 0.0
O70 O 0.8081 0.80675 0.41672 0.0
H71 H 0.64554 0.74184 0.46968 0.0
H72 H 0.62758 0.92218 0.42567 0.0
H73 H 0.82485 0.94124 0.4532 0.0
H74 H 0.7256 0.81571 0.46201 0.0
H75 H 0.70233 0.83675 0.42558 0.0
O76 O 0.96777 0.66369 0.45393 0.0
H77 H 0.99252 0.83437 0.4791 0.0
H78 H 0.08064 0.6877 0.45552 0.0
H79 H 0.75115 0.02751 0.4537 0.0
H80 H 0.71274 0.61503 0.43592 0.0
H81 H 0.65167 0.0183 0.43987 0.0
H82 H 0.63839 0.64067 0.45655 0.0
O83 O 0.89287 0.87717 0.43368 0.0
H84 H 0.03788 0.68605 0.4005 0.0
H85 H 0.07171 0.8296 0.44337 0.0
H86 H 0.1411 0.83266 0.42112 0.0
H87 H 0.12472 0.76028 0.39949 0.0
H88 H 0.96928 0.68512 0.4228 0.0
H89 H 0.1686 0.69306 0.47331 0.0
H90 H 0.16867 0.77059 0.49421 0.0
O91 O 0.96082 0.84813 0.45146 0.0
C92 C 0.86434 0.79864 0.47249 0.0
C93 C 0.08036 0.80771 0.48795 0.0
C94 C 0.13015 0.72428 0.47465 0.0
N95 N 0.0315 0.76089 0.4662 0.0
C96 C 0.03109 0.80346 0.47773 0.0
C97 C 0.08008 0.72134 0.46464 0.0
C98 C 0.13019 0.76783 0.48637 0.0
C99 C 0.76004 0.70204 0.43755 0.0
N100 N 0.76346 0.75791 0.44469 0.0
C101 C 0.71505 0.65916 0.44165 0.0
C102 C 0.67344 0.67349 0.45325 0.0
C103 C 0.67743 0.7302 0.46061 0.0
C104 C 0.72303 0.7719 0.4562 0.0
C105 C 0.67074 0.92671 0.43176 0.0
C106 C 0.78155 0.93671 0.44721 0.0
C107 C 0.71336 0.87857 0.43171 0.0
N108 N 0.76783 0.88382 0.43945 0.0
C109 C 0.74005 0.98579 0.44751 0.0
C110 C 0.68427 0.98062 0.43973 0.0
C111 C 0.94092 0.88671 0.44167 0.0
C112 C 0.04586 0.71747 0.40991 0.0
C113 C 0.06415 0.79772 0.43406 0.0
C114 C 0.1037 0.79976 0.42146 0.0
C115 C 0.09448 0.75919 0.40933 0.0
N116 N 0.01682 0.75616 0.43466 0.0
C117 C 0.00721 0.71681 0.42269 0.0
Co118 Co 0.18895 0.32708 0.68919 0.0
Co119 Co 0.24958 0.46183 0.70229 0.0
O120 O 0.2548 0.3895 0.68866 0.0
C121 C 0.23701 0.32459 0.65643 0.0
O122 O 0.27969 0.36576 0.65928 0.0
C123 C 0.38618 0.43923 0.69761 0.0
O124 O 0.3759 0.39214 0.68857 0.0
O125 O 0.2482 0.40547 0.72018 0.0
O126 O 0.17496 0.34172 0.71169 0.0
H127 H 0.16384 0.57988 0.747 0.0
H128 H 0.31622 0.29251 0.67875 0.0
O129 O 0.19913 0.30785 0.66676 0.0
H130 H 0.26506 0.14578 0.71974 0.0
H131 H 0.08451 0.12686 0.67581 0.0
H132 H 0.06482 0.32424 0.70327 0.0
H133 H 0.19083 0.22551 0.71208 0.0
H134 H 0.16962 0.20198 0.67566 0.0
O135 O 0.34189 0.46808 0.70391 0.0
H136 H 0.17123 0.49253 0.72909 0.0
H137 H 0.31763 0.5809 0.70546 0.0
H138 H 0.97887 0.25018 0.70384 0.0
H139 H 0.39128 0.21323 0.68589 0.0
H140 H 0.9884 0.15064 0.69004 0.0
H141 H 0.36613 0.13892 0.70656 0.0
O142 O 0.12855 0.39243 0.68372 0.0
H143 H 0.3192 0.5379 0.65046 0.0
H144 H 0.17569 0.57152 0.69334 0.0
H145 H 0.17235 0.64079 0.67107 0.0
H146 H 0.2447 0.62451 0.64943 0.0
H147 H 0.32041 0.46943 0.67278 0.0
H148 H 0.3121 0.66894 0.72323 0.0
H149 H 0.23463 0.66892 0.74414 0.0
O150 O 0.1575 0.46063 0.70146 0.0
C151 C 0.20731 0.36438 0.72252 0.0
C152 C 0.19771 0.58048 0.73791 0.0
C153 C 0.28098 0.63042 0.72459 0.0
N154 N 0.24459 0.53162 0.71617 0.0
C155 C 0.20205 0.53117 0.7277 0.0
C156 C 0.28402 0.5803 0.71459 0.0
C157 C 0.23746 0.63041 0.73631 0.0
C158 C 0.30412 0.26023 0.68755 0.0
N159 N 0.24833 0.26348 0.69472 0.0
C160 C 0.34721 0.21542 0.69165 0.0
C161 C 0.33315 0.17382 0.70326 0.0
C162 C 0.27649 0.17765 0.71065 0.0
C163 C 0.23459 0.22307 0.70625 0.0
C164 C 0.07984 0.17005 0.68189 0.0
C165 C 0.06949 0.28092 0.6973 0.0
C166 C 0.1278 0.21288 0.6818 0.0
N167 N 0.12238 0.26737 0.68953 0.0
C168 C 0.02058 0.23921 0.69764 0.0
C169 C 0.02594 0.1834 0.68988 0.0
C170 C 0.11893 0.44054 0.6917 0.0
C171 C 0.28778 0.54584 0.65987 0.0
C172 C 0.20756 0.56401 0.68402 0.0
C173 C 0.20536 0.60349 0.67142 0.0
C174 C 0.24591 0.59433 0.65928 0.0
N175 N 0.24925 0.5168 0.68463 0.0
C176 C 0.2886 0.50726 0.67266 0.0
Co177 Co 0.67912 0.69002 0.93914 0.0
Co178 Co 0.54392 0.74972 0.95222 0.0
O179 O 0.61624 0.75541 0.9386 0.0
C180 C 0.68116 0.7379 0.90636 0.0
O181 O 0.63972 0.78033 0.9092 0.0
C182 C 0.56583 0.88646 0.94757 0.0
O183 O 0.61298 0.87643 0.93854 0.0
O184 O 0.6002 0.74864 0.97013 0.0
O185 O 0.66458 0.67596 0.96164 0.0
H186 H 0.42621 0.66318 0.99689 0.0
H187 H 0.71285 0.81743 0.92865 0.0
O188 O 0.69823 0.70025 0.91671 0.0
H189 H 0.85979 0.76765 0.9697 0.0
H190 H 0.88013 0.58711 0.9258 0.0
H191 H 0.6829 0.56593 0.95324 0.0
H192 H 0.78059 0.69279 0.96206 0.0
H193 H 0.80435 0.67162 0.92562 0.0
O194 O 0.53712 0.84202 0.95385 0.0
H195 H 0.51358 0.67112 0.979 0.0
H196 H 0.42445 0.81704 0.95537 0.0
H197 H 0.75764 0.48058 0.95383 0.0
H198 H 0.79159 0.89311 0.93576 0.0
H199 H 0.8571 0.49085 0.94004 0.0
H200 H 0.86601 0.86865 0.95646 0.0
O201 O 0.61423 0.62912 0.93368 0.0
H202 H 0.46756 0.81903 0.90039 0.0
H203 H 0.43477 0.67511 0.94323 0.0
H204 H 0.36562 0.67137 0.92094 0.0
H205 H 0.38148 0.74392 0.89932 0.0
H206 H 0.53594 0.82062 0.92273 0.0
H207 H 0.33638 0.81097 0.97311 0.0
H208 H 0.33678 0.73346 0.99401 0.0
O209 O 0.5457 0.65765 0.95139 0.0
C210 C 0.64155 0.70801 0.97247 0.0
C211 C 0.42545 0.69706 0.98781 0.0
C212 C 0.37508 0.78007 0.97448 0.0
N213 N 0.47411 0.74428 0.96608 0.0
C214 C 0.47477 0.70172 0.97761 0.0
C215 C 0.42521 0.78342 0.96449 0.0
C216 C 0.37531 0.73653 0.9862 0.0
C217 C 0.74518 0.80564 0.93746 0.0
N218 N 0.74228 0.74989 0.94466 0.0
C219 C 0.78968 0.84908 0.94154 0.0
C220 C 0.83133 0.8354 0.95317 0.0
C221 C 0.82786 0.77878 0.9606 0.0
C222 C 0.78275 0.73653 0.9562 0.0
C223 C 0.83698 0.58211 0.93187 0.0
C224 C 0.72618 0.57093 0.94727 0.0
C225 C 0.79378 0.62973 0.93177 0.0
N226 N 0.73933 0.6239 0.93949 0.0
C227 C 0.76828 0.52236 0.94762 0.0
C228 C 0.82405 0.52813 0.93987 0.0
C229 C 0.56613 0.6192 0.94163 0.0
C230 C 0.45981 0.78752 0.90979 0.0
C231 C 0.44211 0.70707 0.93392 0.0
C232 C 0.40269 0.70464 0.9213 0.0
C233 C 0.41161 0.74531 0.90918 0.0
N234 N 0.48902 0.74909 0.93455 0.0
C235 C 0.49833 0.78855 0.9226 0.0
Co236 Co 0.31576 0.32641 0.06805 0.0
Co237 Co 0.25596 0.46163 0.055 0.0
O238 O 0.25032 0.38926 0.06861 0.0
C239 C 0.26791 0.32415 0.10083 0.0
O240 O 0.22544 0.36556 0.09801 0.0
C241 C 0.11923 0.43968 0.05965 0.0
O242 O 0.12926 0.39253 0.06869 0.0
O243 O 0.25705 0.40541 0.03708 0.0
O244 O 0.32977 0.34105 0.04555 0.0
H245 H 0.34238 0.57954 0.01035 0.0
H246 H 0.18836 0.29259 0.07853 0.0
O247 O 0.30557 0.30718 0.09047 0.0
H248 H 0.23823 0.14579 0.03745 0.0
H249 H 0.41881 0.12539 0.08132 0.0
H250 H 0.43981 0.32277 0.05393 0.0
H251 H 0.31304 0.225 0.0451 0.0
H252 H 0.33426 0.20113 0.08153 0.0
O253 O 0.16367 0.46841 0.05338 0.0
H254 H 0.33451 0.49211 0.02822 0.0
H255 H 0.1886 0.5811 0.05189 0.0
H256 H 0.52521 0.24808 0.0533 0.0
H257 H 0.11273 0.21383 0.0714 0.0
H258 H 0.51502 0.14854 0.06707 0.0
H259 H 0.13723 0.13948 0.05068 0.0
O260 O 0.37662 0.39132 0.07351 0.0
H261 H 0.18673 0.53776 0.10686 0.0
H262 H 0.33052 0.5708 0.06401 0.0
H263 H 0.33426 0.63988 0.08632 0.0
H264 H 0.26177 0.62389 0.10794 0.0
H265 H 0.18513 0.46946 0.08451 0.0
H266 H 0.1946 0.66923 0.03416 0.0
H267 H 0.27207 0.66893 0.01325 0.0
O268 O 0.34804 0.4599 0.05582 0.0
C269 C 0.29769 0.36409 0.03472 0.0
C270 C 0.30851 0.58026 0.01944 0.0
C271 C 0.22551 0.63055 0.03279 0.0
N272 N 0.26136 0.5315 0.04116 0.0
C273 C 0.3039 0.5309 0.02962 0.0
C274 C 0.2222 0.58038 0.04276 0.0
C275 C 0.26903 0.63038 0.02106 0.0
C276 C 0.20017 0.26028 0.06971 0.0
N277 N 0.25592 0.26323 0.06251 0.0
C278 C 0.15676 0.21577 0.06562 0.0
C279 C 0.17046 0.17416 0.05398 0.0
C280 C 0.22708 0.17768 0.04656 0.0
C281 C 0.26931 0.2228 0.05096 0.0
C282 C 0.42377 0.16857 0.07526 0.0
C283 C 0.43486 0.27946 0.05989 0.0
C284 C 0.37613 0.21175 0.07538 0.0
N285 N 0.38191 0.26624 0.06767 0.0
C286 C 0.48345 0.23738 0.05952 0.0
C287 C 0.47773 0.18157 0.06726 0.0
C288 C 0.38651 0.43945 0.06557 0.0
C289 C 0.21821 0.54557 0.09746 0.0
C290 C 0.29858 0.56342 0.07332 0.0
C291 C 0.30102 0.60279 0.08595 0.0
C292 C 0.26038 0.59379 0.09807 0.0
N293 N 0.2566 0.51648 0.07269 0.0
C294 C 0.21717 0.50709 0.08464 0.0
Co295 Co 0.67849 0.81675 0.31805 0.0
Co296 Co 0.54382 0.75602 0.30494 0.0
O297 O 0.61613 0.75083 0.31858 0.0
C298 C 0.68099 0.76863 0.3508 0.0
O299 O 0.63987 0.72592 0.34794 0.0
C300 C 0.56647 0.61941 0.30963 0.0
O301 O 0.6135 0.62971 0.31869 0.0
O302 O 0.60021 0.75739 0.28706 0.0
O303 O 0.66387 0.83072 0.29555 0.0
H304 H 0.42584 0.84164 0.2602 0.0
H305 H 0.71315 0.68947 0.32847 0.0
O306 O 0.6977 0.80657 0.34048 0.0
H307 H 0.85995 0.7409 0.28752 0.0
H308 H 0.87852 0.92146 0.33146 0.0
H309 H 0.68121 0.94089 0.30397 0.0
H310 H 0.7801 0.81502 0.29517 0.0
H311 H 0.80353 0.83623 0.3316 0.0
O312 O 0.5376 0.66368 0.30333 0.0
H313 H 0.51315 0.83431 0.27813 0.0
H314 H 0.42478 0.68794 0.30176 0.0
H315 H 0.75515 0.02695 0.30342 0.0
H316 H 0.79254 0.61452 0.32134 0.0
H317 H 0.85464 0.01756 0.31724 0.0
H318 H 0.8669 0.63981 0.30069 0.0
O319 O 0.61308 0.87708 0.32352 0.0
H320 H 0.4677 0.68643 0.35677 0.0
H321 H 0.43409 0.82988 0.31388 0.0
H322 H 0.36479 0.83322 0.33614 0.0
H323 H 0.38106 0.7609 0.35778 0.0
H324 H 0.53621 0.68523 0.33445 0.0
H325 H 0.33678 0.69339 0.28399 0.0
H326 H 0.33682 0.77083 0.26307 0.0
O327 O 0.54498 0.84811 0.30576 0.0
C328 C 0.64129 0.7983 0.28472 0.0
C329 C 0.42523 0.80779 0.2693 0.0
C330 C 0.37529 0.72453 0.28263 0.0
N331 N 0.47405 0.76097 0.29105 0.0
C332 C 0.47452 0.80348 0.27951 0.0
C333 C 0.42539 0.72153 0.29263 0.0
C334 C 0.37532 0.76802 0.2709 0.0
C335 C 0.74545 0.70163 0.31968 0.0
N336 N 0.74215 0.75744 0.31252 0.0
C337 C 0.79032 0.6586 0.31559 0.0
C338 C 0.83194 0.67275 0.30398 0.0
C339 C 0.82806 0.72941 0.2966 0.0
C340 C 0.78258 0.77125 0.301 0.0
C341 C 0.83535 0.92607 0.32538 0.0
C342 C 0.72452 0.93627 0.30995 0.0
C343 C 0.79259 0.87804 0.32546 0.0
N344 N 0.73812 0.88339 0.31772 0.0
C345 C 0.76616 0.98524 0.30962 0.0
C346 C 0.82194 0.97997 0.31739 0.0
C347 C 0.565 0.88669 0.31554 0.0
C348 C 0.45977 0.71784 0.34735 0.0
C349 C 0.4416 0.79803 0.32319 0.0
C350 C 0.4021 0.80023 0.3358 0.0
C351 C 0.41126 0.75969 0.34793 0.0
N352 N 0.48882 0.75635 0.32259 0.0
C353 C 0.49837 0.71702 0.33456 0.0
Co354 Co 0.18859 0.1782 0.56809 0.0
Co355 Co 0.2495 0.04366 0.55495 0.0
O356 O 0.25462 0.11596 0.5686 0.0
C357 C 0.2369 0.18079 0.60083 0.0
O358 O 0.27969 0.13977 0.59795 0.0
C359 C 0.38608 0.06649 0.55963 0.0
O360 O 0.37575 0.11352 0.56869 0.0
O361 O 0.24797 0.10009 0.53708 0.0
O362 O 0.17455 0.16358 0.54559 0.0
H363 H 0.1639 0.92558 0.51022 0.0
H364 H 0.31588 0.21308 0.57847 0.0
O365 O 0.19885 0.1974 0.59052 0.0
H366 H 0.2639 0.35988 0.53756 0.0
H367 H 0.08355 0.37799 0.58156 0.0
H368 H 0.0644 0.18069 0.55404 0.0
H369 H 0.18998 0.27988 0.54523 0.0
H370 H 0.16892 0.30318 0.58166 0.0
O371 O 0.34183 0.03761 0.55332 0.0
H372 H 0.17117 0.0129 0.52815 0.0
H373 H 0.31778 0.92474 0.55174 0.0
H374 H 0.97818 0.25444 0.55352 0.0
H375 H 0.39064 0.29262 0.57132 0.0
H376 H 0.98743 0.35394 0.56736 0.0
H377 H 0.36507 0.36698 0.55068 0.0
O378 O 0.12841 0.11265 0.57356 0.0
H379 H 0.31937 0.96758 0.60676 0.0
H380 H 0.17588 0.93376 0.56388 0.0
H381 H 0.17274 0.86441 0.58614 0.0
H382 H 0.24508 0.88079 0.60778 0.0
H383 H 0.32039 0.03614 0.58446 0.0
H384 H 0.31238 0.83674 0.53396 0.0
H385 H 0.23485 0.83667 0.51306 0.0
O386 O 0.15742 0.04466 0.55578 0.0
C387 C 0.20699 0.14111 0.53475 0.0
C388 C 0.19779 0.92502 0.51931 0.0
C389 C 0.28118 0.87521 0.53262 0.0
N390 N 0.24462 0.9739 0.54106 0.0
C391 C 0.20206 0.97431 0.52953 0.0
C392 C 0.28415 0.9253 0.54262 0.0
C393 C 0.23764 0.87517 0.5209 0.0
C394 C 0.3036 0.24537 0.56969 0.0
N395 N 0.24774 0.24199 0.56255 0.0
C396 C 0.34652 0.29034 0.56558 0.0
C397 C 0.33222 0.33196 0.55399 0.0
C398 C 0.27551 0.32799 0.54663 0.0
C399 C 0.23378 0.28243 0.55104 0.0
C400 C 0.07899 0.33483 0.57547 0.0
C401 C 0.06895 0.22399 0.56002 0.0
C402 C 0.12711 0.29217 0.57553 0.0
N403 N 0.12183 0.2377 0.56778 0.0
C404 C 0.01989 0.26553 0.55972 0.0
C405 C 0.02509 0.32132 0.56749 0.0
C406 C 0.11885 0.06458 0.56557 0.0
C407 C 0.28797 0.9596 0.59735 0.0
C408 C 0.20775 0.94132 0.5732 0.0
C409 C 0.20566 0.90179 0.5858 0.0
C410 C 0.24621 0.91101 0.59793 0.0
N411 N 0.24933 0.98863 0.5726 0.0
C412 C 0.28867 0.99823 0.58456 0.0
Co413 Co 0.8272 0.68913 0.81799 0.0
Co414 Co 0.96184 0.74987 0.80488 0.0
O415 O 0.88947 0.75513 0.81849 0.0
C416 C 0.82448 0.73773 0.8507 0.0
O417 O 0.86549 0.78052 0.84781 0.0
C418 C 0.93907 0.88649 0.80949 0.0
O419 O 0.89198 0.87623 0.81853 0.0
O420 O 0.90551 0.74823 0.78698 0.0
O421 O 0.84193 0.6749 0.7955 0.0
H422 H 0.0801 0.66386 0.76023 0.0
H423 H 0.79231 0.81654 0.82829 0.0
O424 O 0.8079 0.69959 0.84041 0.0
H425 H 0.64576 0.76427 0.78734 0.0
H426 H 0.62727 0.58431 0.83143 0.0
H427 H 0.82469 0.56482 0.80399 0.0
H428 H 0.72567 0.69037 0.79509 0.0
H429 H 0.70214 0.66964 0.83152 0.0
O430 O 0.968 0.8422 0.80321 0.0
H431 H 0.99269 0.67132 0.77812 0.0
H432 H 0.08083 0.81802 0.80169 0.0
H433 H 0.75089 0.47864 0.8035 0.0
H434 H 0.71285 0.89128 0.82106 0.0
H435 H 0.65133 0.48806 0.81729 0.0
H436 H 0.63862 0.86555 0.80041 0.0
O437 O 0.89267 0.62895 0.82352 0.0
H438 H 0.03766 0.82005 0.85669 0.0
H439 H 0.07161 0.67621 0.81388 0.0
H440 H 0.14083 0.67319 0.83616 0.0
H441 H 0.12439 0.74571 0.85777 0.0
H442 H 0.96923 0.82094 0.83435 0.0
H443 H 0.16893 0.81244 0.78395 0.0
H444 H 0.16905 0.73478 0.76308 0.0
O445 O 0.96076 0.65778 0.80574 0.0
C446 C 0.8645 0.70722 0.78466 0.0
C447 C 0.08064 0.69781 0.7693 0.0
C448 C 0.13044 0.78126 0.7826 0.0
N449 N 0.03167 0.74483 0.79101 0.0
C450 C 0.03129 0.7022 0.7795 0.0
C451 C 0.0803 0.78433 0.79258 0.0
C452 C 0.13051 0.73764 0.77089 0.0
C453 C 0.76007 0.8042 0.8195 0.0
N454 N 0.76347 0.74828 0.8124 0.0
C455 C 0.71515 0.8471 0.81536 0.0
C456 C 0.67361 0.83272 0.80375 0.0
C457 C 0.67759 0.77594 0.79642 0.0
C458 C 0.72311 0.73423 0.80088 0.0
C459 C 0.67047 0.57968 0.82537 0.0
C460 C 0.78136 0.56944 0.80996 0.0
C461 C 0.71316 0.62777 0.82541 0.0
N462 N 0.76766 0.6224 0.81769 0.0
C463 C 0.73979 0.52041 0.80967 0.0
C464 C 0.68398 0.5257 0.81742 0.0
C465 C 0.94075 0.61929 0.81554 0.0
C466 C 0.04567 0.78857 0.84729 0.0
C467 C 0.06403 0.70816 0.82318 0.0
C468 C 0.10348 0.70613 0.83579 0.0
C469 C 0.09423 0.74678 0.8479 0.0
N470 N 0.01676 0.74977 0.82254 0.0
C471 C 0.00712 0.7892 0.83449 0.0
Co472 Co 0.81523 0.67896 0.68918 0.0
Co473 Co 0.75577 0.54353 0.7022 0.0
O474 O 0.74991 0.61601 0.68864 0.0
C475 C 0.76712 0.6811 0.65643 0.0
O476 O 0.72475 0.6396 0.65928 0.0
C477 C 0.61902 0.56559 0.69769 0.0
O478 O 0.62896 0.61296 0.68872 0.0
O479 O 0.757 0.59959 0.72016 0.0
O480 O 0.82946 0.66423 0.71166 0.0
H481 H 0.8428 0.42523 0.74672 0.0
H482 H 0.68775 0.71272 0.67874 0.0
O483 O 0.80481 0.69821 0.66677 0.0
H484 H 0.73759 0.85921 0.71989 0.0
H485 H 0.91774 0.88027 0.67592 0.0
H486 H 0.9394 0.6828 0.70324 0.0
H487 H 0.81248 0.78018 0.71217 0.0
H488 H 0.83337 0.80432 0.67572 0.0
O489 O 0.6635 0.53662 0.70386 0.0
H490 H 0.8346 0.51289 0.72892 0.0
H491 H 0.68863 0.42392 0.70526 0.0
H492 H 0.02462 0.75769 0.70385 0.0
H493 H 0.61204 0.79129 0.68593 0.0
H494 H 0.0141 0.85728 0.69013 0.0
H495 H 0.63652 0.86548 0.70669 0.0
O496 O 0.87618 0.61419 0.68366 0.0
H497 H 0.68585 0.4678 0.65036 0.0
H498 H 0.83045 0.43463 0.69304 0.0
H499 H 0.83402 0.36585 0.67068 0.0
H500 H 0.76112 0.3819 0.64914 0.0
H501 H 0.68446 0.53583 0.67278 0.0
H502 H 0.69498 0.33555 0.7229 0.0
H503 H 0.77265 0.33572 0.74377 0.0
O504 O 0.84782 0.5454 0.70133 0.0
C505 C 0.79757 0.64101 0.7225 0.0
C506 C 0.80885 0.42457 0.73765 0.0
C507 C 0.72583 0.37428 0.7243 0.0
N508 N 0.7614 0.47352 0.71599 0.0
C509 C 0.80404 0.47405 0.7275 0.0
C510 C 0.72232 0.42459 0.71437 0.0
C511 C 0.76945 0.37438 0.736 0.0
C512 C 0.69955 0.74495 0.68758 0.0
N513 N 0.75533 0.742 0.69476 0.0
C514 C 0.6561 0.78936 0.6917 0.0
C515 C 0.66979 0.83088 0.70336 0.0
C516 C 0.72644 0.82738 0.71077 0.0
C517 C 0.76871 0.78236 0.70633 0.0
C518 C 0.92284 0.83707 0.68196 0.0
C519 C 0.9343 0.72613 0.6973 0.0
C520 C 0.8753 0.79377 0.68185 0.0
N521 N 0.88127 0.73925 0.68954 0.0
C522 C 0.9828 0.76832 0.69766 0.0
C523 C 0.97689 0.82416 0.68994 0.0
C524 C 0.88619 0.56601 0.69158 0.0
C525 C 0.71752 0.45997 0.65973 0.0
C526 C 0.79836 0.44205 0.68377 0.0
C527 C 0.80068 0.40284 0.67111 0.0
C528 C 0.75982 0.41188 0.65903 0.0
N529 N 0.75627 0.48888 0.68448 0.0
C530 C 0.7166 0.49829 0.67257 0.0
Co531 Co 0.32716 0.31638 0.9392 0.0
Co532 Co 0.46189 0.25586 0.95232 0.0
O533 O 0.38959 0.25055 0.93869 0.0
C534 C 0.32478 0.2681 0.90647 0.0
O535 O 0.36593 0.22545 0.90935 0.0
C536 C 0.43934 0.11924 0.94765 0.0
O537 O 0.39226 0.12951 0.93861 0.0
O538 O 0.40551 0.25724 0.97021 0.0
O539 O 0.34177 0.33046 0.9617 0.0
H540 H 0.57983 0.34175 0.99704 0.0
H541 H 0.2926 0.18903 0.9288 0.0
O542 O 0.30799 0.30608 0.91677 0.0
H543 H 0.14581 0.24044 0.96976 0.0
H544 H 0.127 0.42077 0.92577 0.0
H545 H 0.32427 0.44057 0.95327 0.0
H546 H 0.22557 0.31462 0.96209 0.0
H547 H 0.20211 0.33565 0.92565 0.0
O548 O 0.46821 0.16353 0.95395 0.0
H549 H 0.49251 0.33427 0.97912 0.0
H550 H 0.581 0.18792 0.9555 0.0
H551 H 0.25022 0.52653 0.9538 0.0
H552 H 0.21329 0.11402 0.93595 0.0
H553 H 0.15074 0.51695 0.93998 0.0
H554 H 0.13894 0.1393 0.95661 0.0
O555 O 0.39251 0.37678 0.93373 0.0
H556 H 0.53809 0.18619 0.9005 0.0
H557 H 0.57153 0.32984 0.94337 0.0
H558 H 0.64081 0.3332 0.92111 0.0
H559 H 0.62462 0.26078 0.89947 0.0
H560 H 0.4696 0.18497 0.92282 0.0
H561 H 0.66901 0.19353 0.97328 0.0
H562 H 0.66891 0.27102 0.99418 0.0
O563 O 0.46063 0.34795 0.9515 0.0
C564 C 0.3644 0.29813 0.97254 0.0
C565 C 0.58046 0.30788 0.98795 0.0
C566 C 0.63047 0.22463 0.97463 0.0
N567 N 0.53166 0.26093 0.96621 0.0
C568 C 0.53117 0.30348 0.97774 0.0
C569 C 0.58037 0.22154 0.96463 0.0
C570 C 0.63041 0.26815 0.98635 0.0
C571 C 0.2603 0.20118 0.93759 0.0
N572 N 0.26356 0.25702 0.94474 0.0
C573 C 0.21548 0.15812 0.94169 0.0
C574 C 0.17386 0.17226 0.9533 0.0
C575 C 0.17769 0.22896 0.96068 0.0
C576 C 0.22313 0.27083 0.95626 0.0
C577 C 0.17016 0.42546 0.93185 0.0
C578 C 0.28098 0.43588 0.94728 0.0
C579 C 0.21299 0.3775 0.93178 0.0
N580 N 0.26745 0.38295 0.93952 0.0
C581 C 0.23927 0.48479 0.9476 0.0
C582 C 0.1835 0.4794 0.93983 0.0
C583 C 0.44057 0.38647 0.94171 0.0
C584 C 0.54598 0.21764 0.90992 0.0
C585 C 0.56405 0.29794 0.93406 0.0
C586 C 0.60354 0.30016 0.92146 0.0
C587 C 0.59443 0.25956 0.90933 0.0
N588 N 0.51688 0.2562 0.93467 0.0
C589 C 0.50739 0.21682 0.92271 0.0
Co590 Co 0.69017 0.82607 0.1892 0.0
Co591 Co 0.7498 0.96141 0.20223 0.0
O592 O 0.7555 0.88902 0.18864 0.0
C593 C 0.7379 0.82397 0.15641 0.0
O594 O 0.78029 0.86547 0.15923 0.0
C595 C 0.88653 0.93957 0.19758 0.0
O596 O 0.87653 0.89237 0.18856 0.0
O597 O 0.74879 0.90523 0.22017 0.0
O598 O 0.67618 0.8407 0.2117 0.0
H599 H 0.66329 0.07931 0.24689 0.0
H600 H 0.81755 0.79241 0.17868 0.0
O601 O 0.70033 0.80687 0.16678 0.0
H602 H 0.76813 0.64564 0.21979 0.0
H603 H 0.58746 0.62483 0.17595 0.0
H604 H 0.56615 0.82221 0.20334 0.0
H605 H 0.69315 0.72472 0.21215 0.0
H606 H 0.67186 0.70075 0.17572 0.0
O607 O 0.84209 0.9683 0.20385 0.0
H608 H 0.67124 0.99184 0.22902 0.0
H609 H 0.81702 0.08097 0.20534 0.0
H610 H 0.48091 0.74734 0.20398 0.0
H611 H 0.89334 0.71379 0.18579 0.0
H612 H 0.49126 0.64779 0.19022 0.0
H613 H 0.86906 0.63946 0.20653 0.0
O614 O 0.62918 0.89088 0.18375 0.0
H615 H 0.81893 0.03755 0.15037 0.0
H616 H 0.67508 0.07044 0.19322 0.0
H617 H 0.67122 0.13945 0.17091 0.0
H618 H 0.74373 0.12354 0.14928 0.0
H619 H 0.82064 0.9693 0.17274 0.0
H620 H 0.81092 0.16914 0.22305 0.0
H621 H 0.73348 0.16879 0.24396 0.0
O622 O 0.65772 0.95955 0.20142 0.0
C623 C 0.70821 0.86385 0.22253 0.0
C624 C 0.69714 0.08005 0.2378 0.0
C625 C 0.78006 0.13042 0.22443 0.0
N626 N 0.74433 0.0313 0.21608 0.0
C627 C 0.70181 0.03067 0.22761 0.0
C628 C 0.78343 0.08023 0.21447 0.0
C629 C 0.73656 0.13022 0.23616 0.0
C630 C 0.80584 0.76011 0.18751 0.0
N631 N 0.75012 0.763 0.19472 0.0
C632 C 0.84933 0.71568 0.19159 0.0
C633 C 0.83576 0.67408 0.20324 0.0
C634 C 0.77918 0.67753 0.21068 0.0
C635 C 0.73686 0.72258 0.20628 0.0
C636 C 0.58244 0.66801 0.18201 0.0
C637 C 0.57117 0.7789 0.19738 0.0
C638 C 0.62999 0.71129 0.18188 0.0
N639 N 0.62412 0.76578 0.18959 0.0
C640 C 0.52267 0.73672 0.19776 0.0
C641 C 0.52848 0.68091 0.19002 0.0
C642 C 0.61925 0.93901 0.19169 0.0
C643 C 0.78743 0.04532 0.15978 0.0
C644 C 0.70702 0.06308 0.18391 0.0
C645 C 0.70452 0.10242 0.17128 0.0
C646 C 0.74517 0.09347 0.15916 0.0
N647 N 0.74908 0.01622 0.18455 0.0
C648 C 0.78853 0.00687 0.17259 0.0
Co649 Co 0.17928 0.19055 0.43926 0.0
Co650 Co 0.04385 0.2499 0.45229 0.0
O651 O 0.11624 0.2558 0.4387 0.0
C652 C 0.18141 0.23853 0.40649 0.0
O653 O 0.13991 0.28091 0.40932 0.0
C654 C 0.06543 0.38669 0.44766 0.0
O655 O 0.11267 0.37678 0.43864 0.0
O656 O 0.10001 0.24892 0.47023 0.0
O657 O 0.16461 0.17641 0.46175 0.0
H658 H 0.92606 0.16303 0.49691 0.0
H659 H 0.2128 0.31808 0.4288 0.0
O660 O 0.1985 0.20088 0.41684 0.0
H661 H 0.35953 0.26852 0.46992 0.0
H662 H 0.38064 0.08818 0.426 0.0
H663 H 0.18326 0.06645 0.45335 0.0
H664 H 0.28057 0.1935 0.46222 0.0
H665 H 0.30463 0.17248 0.42579 0.0
O666 O 0.03679 0.34219 0.45392 0.0
H667 H 0.01351 0.17117 0.47905 0.0
H668 H 0.92419 0.31691 0.4554 0.0
H669 H 0.25822 0.98129 0.45397 0.0
H670 H 0.2913 0.39392 0.43597 0.0
H671 H 0.35776 0.99184 0.44022 0.0
H672 H 0.36561 0.36957 0.4567 0.0
O673 O 0.11456 0.12952 0.43376 0.0
H674 H 0.96768 0.31902 0.40043 0.0
H675 H 0.93494 0.17503 0.44325 0.0
H676 H 0.86597 0.17111 0.42093 0.0
H677 H 0.8818 0.24369 0.39932 0.0
H678 H 0.03589 0.32079 0.4228 0.0
H679 H 0.83603 0.31062 0.4731 0.0
H680 H 0.83649 0.2331 0.494 0.0
O681 O 0.04587 0.15783 0.45145 0.0
C682 C 0.14141 0.20835 0.47258 0.0
C683 C 0.92528 0.19691 0.48783 0.0
C684 C 0.87479 0.27981 0.47448 0.0
N685 N 0.97396 0.24426 0.46612 0.0
C686 C 0.97464 0.20169 0.47765 0.0
C687 C 0.92498 0.28329 0.46452 0.0
C688 C 0.87505 0.23627 0.4862 0.0
C689 C 0.24509 0.30634 0.43763 0.0
N690 N 0.24226 0.25056 0.44481 0.0
C691 C 0.28945 0.34987 0.44174 0.0
C692 C 0.33105 0.33625 0.45339 0.0
C693 C 0.32765 0.2796 0.4608 0.0
C694 C 0.28267 0.23725 0.45638 0.0
C695 C 0.33746 0.08306 0.43204 0.0
C696 C 0.22657 0.07156 0.44739 0.0
C697 C 0.29413 0.13056 0.43193 0.0
N698 N 0.23964 0.12458 0.43963 0.0
C699 C 0.2688 0.0231 0.44776 0.0
C700 C 0.32461 0.02903 0.44003 0.0
C701 C 0.06644 0.11947 0.44169 0.0
C702 C 0.95994 0.28749 0.40983 0.0
C703 C 0.94226 0.20701 0.43395 0.0
C704 C 0.90295 0.20447 0.42131 0.0
C705 C 0.91186 0.24516 0.4092 0.0
N706 N 0.98907 0.24914 0.4346 0.0
C707 C 0.99837 0.28863 0.42265 0.0
Co708 Co 0.81495 0.82628 0.56797 0.0
Co709 Co 0.75566 0.96183 0.55499 0.0
O710 O 0.74973 0.88933 0.56854 0.0
C711 C 0.76698 0.8241 0.60073 0.0
O712 O 0.72464 0.86564 0.59791 0.0
C713 C 0.61888 0.94005 0.55955 0.0
O714 O 0.62878 0.89269 0.56853 0.0
O715 O 0.75671 0.90581 0.53702 0.0
O716 O 0.82911 0.84106 0.54549 0.0
H717 H 0.84266 0.08006 0.51045 0.0
H718 H 0.68745 0.7927 0.57843 0.0
O719 O 0.8046 0.80697 0.59038 0.0
H720 H 0.7369 0.64623 0.53725 0.0
H721 H 0.91718 0.62477 0.58117 0.0
H722 H 0.93905 0.8223 0.55388 0.0
H723 H 0.81195 0.72512 0.54497 0.0
H724 H 0.83294 0.70085 0.5814 0.0
O725 O 0.66338 0.96888 0.55334 0.0
H726 H 0.83443 0.9924 0.52826 0.0
H727 H 0.68868 0.08153 0.55195 0.0
H728 H 0.02415 0.74727 0.55323 0.0
H729 H 0.61158 0.71426 0.57124 0.0
H730 H 0.01352 0.64765 0.56694 0.0
H731 H 0.63587 0.64008 0.55047 0.0
O732 O 0.87602 0.89094 0.57349 0.0
H733 H 0.68622 0.03756 0.60686 0.0
H734 H 0.83054 0.07062 0.56412 0.0
H735 H 0.83436 0.13936 0.58649 0.0
H736 H 0.76161 0.12336 0.60806 0.0
H737 H 0.68455 0.96957 0.58445 0.0
H738 H 0.69506 0.1699 0.53431 0.0
H739 H 0.77263 0.16964 0.51342 0.0
O740 O 0.84771 0.95981 0.55584 0.0
C741 C 0.79722 0.86436 0.53466 0.0
C742 C 0.80875 0.08076 0.51953 0.0
C743 C 0.72585 0.13113 0.53291 0.0
N744 N 0.76133 0.03185 0.5412 0.0
C745 C 0.80393 0.03127 0.52968 0.0
C746 C 0.72232 0.08083 0.54283 0.0
C747 C 0.76942 0.13099 0.5212 0.0
C748 C 0.69916 0.76047 0.56959 0.0
N749 N 0.75493 0.76335 0.5624 0.0
C750 C 0.65562 0.71614 0.56546 0.0
C751 C 0.6692 0.67462 0.5538 0.0
C752 C 0.72584 0.67805 0.54638 0.0
C753 C 0.7682 0.723 0.55082 0.0
C754 C 0.92234 0.66798 0.57513 0.0
C755 C 0.93391 0.77896 0.55982 0.0
C756 C 0.87487 0.71135 0.57527 0.0
N757 N 0.88089 0.76589 0.56759 0.0
C758 C 0.98233 0.73669 0.55944 0.0
C759 C 0.97636 0.68083 0.56714 0.0
C760 C 0.88607 0.93913 0.56558 0.0
C761 C 0.71782 0.04537 0.59748 0.0
C762 C 0.7985 0.06322 0.57341 0.0
C763 C 0.80098 0.10241 0.58607 0.0
C764 C 0.76019 0.09341 0.59816 0.0
N765 N 0.75634 0.01645 0.57271 0.0
C766 C 0.71675 0.00707 0.58464 0.0
Co767 Co 0.17917 0.31571 0.81803 0.0
Co768 Co 0.04391 0.25597 0.80499 0.0
O769 O 0.11632 0.25027 0.81858 0.0
C770 C 0.18148 0.26774 0.8508 0.0
O771 O 0.14009 0.22525 0.84796 0.0
C772 C 0.06575 0.1192 0.80962 0.0
O773 O 0.11293 0.12918 0.81866 0.0
O774 O 0.10009 0.25708 0.78706 0.0
O775 O 0.16447 0.3298 0.79554 0.0
H776 H 0.92598 0.34251 0.76035 0.0
H777 H 0.213 0.18825 0.82847 0.0
O778 O 0.19843 0.30545 0.84045 0.0
H779 H 0.35973 0.23836 0.7874 0.0
H780 H 0.38016 0.4188 0.83132 0.0
H781 H 0.18276 0.43982 0.80394 0.0
H782 H 0.28052 0.31312 0.79508 0.0
H783 H 0.30446 0.33421 0.83151 0.0
O784 O 0.03708 0.16368 0.80335 0.0
H785 H 0.01343 0.33459 0.77822 0.0
H786 H 0.92442 0.18866 0.80188 0.0
H787 H 0.25741 0.52526 0.80333 0.0
H788 H 0.29175 0.11266 0.82131 0.0
H789 H 0.35696 0.51506 0.8171 0.0
H790 H 0.36606 0.13729 0.80059 0.0
O791 O 0.11427 0.37655 0.82352 0.0
H792 H 0.96789 0.18667 0.85685 0.0
H793 H 0.93479 0.33054 0.81402 0.0
H794 H 0.86578 0.33427 0.83633 0.0
H795 H 0.8818 0.26174 0.85795 0.0
H796 H 0.03613 0.18509 0.83449 0.0
H797 H 0.83626 0.19472 0.78416 0.0
H798 H 0.83657 0.27223 0.76326 0.0
O799 O 0.04569 0.34805 0.80582 0.0
C800 C 0.14141 0.29773 0.78471 0.0
C801 C 0.92526 0.30863 0.76944 0.0
C802 C 0.87495 0.22563 0.78278 0.0
N803 N 0.97402 0.26143 0.79115 0.0
C804 C 0.97462 0.30399 0.77962 0.0
C805 C 0.92513 0.22228 0.79275 0.0
C806 C 0.87512 0.26916 0.77106 0.0
C807 C 0.24529 0.20011 0.81965 0.0
N808 N 0.24233 0.25591 0.81247 0.0
C809 C 0.28979 0.15673 0.81554 0.0
C810 C 0.33139 0.1705 0.80391 0.0
C811 C 0.32785 0.22715 0.7965 0.0
C812 C 0.28273 0.26936 0.80092 0.0
C813 C 0.33698 0.42376 0.82526 0.0
C814 C 0.22608 0.43486 0.80989 0.0
C815 C 0.29382 0.37609 0.82537 0.0
N816 N 0.23932 0.38188 0.81766 0.0
C817 C 0.26813 0.48348 0.80954 0.0
C818 C 0.32394 0.47775 0.81727 0.0
C819 C 0.06615 0.38648 0.81558 0.0
C820 C 0.96007 0.21817 0.84745 0.0
C821 C 0.94219 0.29859 0.82332 0.0
C822 C 0.90286 0.30102 0.83595 0.0
C823 C 0.91187 0.26036 0.84807 0.0
N824 N 0.98911 0.25659 0.82268 0.0
C825 C 0.99852 0.21714 0.83463 0.0
Co826 Co 0.68933 0.67842 0.06798 0.0
Co827 Co 0.74983 0.54368 0.05486 0.0
O828 O 0.75515 0.61598 0.06849 0.0
C829 C 0.7376 0.6808 0.10072 0.0
O830 O 0.78027 0.63966 0.09783 0.0
C831 C 0.88644 0.56618 0.05954 0.0
O832 O 0.87618 0.61326 0.06859 0.0
O833 O 0.74847 0.60008 0.03698 0.0
O834 O 0.67526 0.66382 0.04548 0.0
H835 H 0.66394 0.42578 0.01013 0.0
H836 H 0.81668 0.71297 0.07838 0.0
O837 O 0.69963 0.69759 0.09041 0.0
H838 H 0.76527 0.85979 0.03743 0.0
H839 H 0.58497 0.87861 0.08142 0.0
H840 H 0.56516 0.68132 0.05392 0.0
H841 H 0.69109 0.78003 0.0451 0.0
H842 H 0.67006 0.80348 0.08154 0.0
O843 O 0.84216 0.53734 0.05324 0.0
H844 H 0.67143 0.51309 0.02806 0.0
H845 H 0.81774 0.42455 0.05167 0.0
H846 H 0.47922 0.75539 0.05338 0.0
H847 H 0.89169 0.79228 0.07123 0.0
H848 H 0.48881 0.85488 0.0672 0.0
H849 H 0.86641 0.86664 0.05058 0.0
O850 O 0.62894 0.61307 0.07346 0.0
H851 H 0.81939 0.46746 0.10668 0.0
H852 H 0.67583 0.43404 0.0638 0.0
H853 H 0.67242 0.36475 0.08606 0.0
H854 H 0.74479 0.38093 0.1077 0.0
H855 H 0.82066 0.53596 0.08436 0.0
H856 H 0.81212 0.33654 0.0339 0.0
H857 H 0.73465 0.33667 0.01299 0.0
O858 O 0.65774 0.54496 0.05568 0.0
C859 C 0.70759 0.64119 0.03465 0.0
C860 C 0.69781 0.42513 0.01922 0.0
C861 C 0.78104 0.3751 0.03254 0.0
N862 N 0.74475 0.47391 0.04097 0.0
C863 C 0.70221 0.47442 0.02944 0.0
C864 C 0.78413 0.42519 0.04254 0.0
C865 C 0.73752 0.37517 0.02082 0.0
C866 C 0.80453 0.74527 0.06959 0.0
N867 N 0.74869 0.74203 0.06244 0.0
C868 C 0.84759 0.7901 0.06549 0.0
C869 C 0.83345 0.83172 0.05388 0.0
C870 C 0.77676 0.8279 0.04651 0.0
C871 C 0.73489 0.78247 0.05092 0.0
C872 C 0.58027 0.83545 0.07533 0.0
C873 C 0.56985 0.72462 0.0599 0.0
C874 C 0.62823 0.79261 0.0754 0.0
N875 N 0.62277 0.73814 0.06767 0.0
C876 C 0.52095 0.76634 0.05958 0.0
C877 C 0.52634 0.82212 0.06735 0.0
C878 C 0.61924 0.56501 0.06547 0.0
C879 C 0.78796 0.45957 0.09727 0.0
C880 C 0.70771 0.44151 0.07311 0.0
C881 C 0.70547 0.40202 0.08571 0.0
C882 C 0.74604 0.41112 0.09785 0.0
N883 N 0.74946 0.48868 0.07251 0.0
C884 C 0.78882 0.49816 0.08448 0.0
Co885 Co 0.32648 0.1903 0.31802 0.0
Co886 Co 0.46175 0.24987 0.30495 0.0
O887 O 0.3894 0.25566 0.31856 0.0
C888 C 0.32438 0.23838 0.35078 0.0
O889 O 0.36581 0.2808 0.34793 0.0
C890 C 0.43995 0.38663 0.30959 0.0
O891 O 0.39274 0.37663 0.31861 0.0
O892 O 0.40553 0.24876 0.28703 0.0
O893 O 0.34108 0.17614 0.29553 0.0
H894 H 0.57955 0.16311 0.26032 0.0
H895 H 0.29277 0.3178 0.32847 0.0
O896 O 0.30732 0.20065 0.34044 0.0
H897 H 0.14595 0.26783 0.2874 0.0
H898 H 0.12536 0.08755 0.33134 0.0
H899 H 0.32266 0.06616 0.30394 0.0
H900 H 0.22508 0.19299 0.29508 0.0
H901 H 0.20121 0.17201 0.33152 0.0
O902 O 0.46864 0.34217 0.30332 0.0
H903 H 0.49213 0.17116 0.27819 0.0
H904 H 0.58129 0.31709 0.30182 0.0
H905 H 0.24786 0.98085 0.30335 0.0
H906 H 0.21409 0.39346 0.32132 0.0
H907 H 0.14836 0.99123 0.31712 0.0
H908 H 0.13973 0.36891 0.3006 0.0
O909 O 0.39132 0.12938 0.3235 0.0
H910 H 0.53798 0.31921 0.3568 0.0
H911 H 0.57081 0.1752 0.31398 0.0
H912 H 0.63986 0.17143 0.33628 0.0
H913 H 0.62398 0.24403 0.35789 0.0
H914 H 0.4697 0.32083 0.33444 0.0
H915 H 0.66942 0.3109 0.2841 0.0
H916 H 0.66903 0.23333 0.26321 0.0
O917 O 0.45989 0.1578 0.30579 0.0
C918 C 0.36417 0.20813 0.28469 0.0
C919 C 0.58031 0.19702 0.2694 0.0
C920 C 0.6307 0.28002 0.28273 0.0
N921 N 0.53161 0.24434 0.29111 0.0
C922 C 0.53096 0.20174 0.27958 0.0
C923 C 0.58053 0.28344 0.2927 0.0
C924 C 0.63048 0.23646 0.27102 0.0
C925 C 0.26046 0.30597 0.31965 0.0
N926 N 0.26337 0.25017 0.31247 0.0
C927 C 0.216 0.3494 0.31555 0.0
C928 C 0.17438 0.33567 0.30391 0.0
C929 C 0.17785 0.27901 0.29651 0.0
C930 C 0.22293 0.23676 0.30092 0.0
C931 C 0.16853 0.08251 0.32528 0.0
C932 C 0.27937 0.0712 0.3099 0.0
C933 C 0.21177 0.1301 0.32538 0.0
N934 N 0.26624 0.12421 0.31767 0.0
C935 C 0.23723 0.02265 0.30955 0.0
C936 C 0.18144 0.02849 0.31729 0.0
C937 C 0.43942 0.1194 0.31555 0.0
C938 C 0.54574 0.28768 0.3474 0.0
C939 C 0.56347 0.20718 0.32328 0.0
C940 C 0.60283 0.20473 0.33591 0.0
C941 C 0.59389 0.24543 0.34802 0.0
N942 N 0.51659 0.24924 0.32263 0.0
C943 C 0.50727 0.28873 0.33458 0.0
C944 C 0.32334 0.27016 0.12195 0.0
C945 C 0.2676 0.28966 0.1154 0.0
H946 H 0.36705 0.22093 0.14026 0.0
C947 C 0.21185 0.27147 0.12219 0.0
H948 H 0.36691 0.28314 0.11685 0.0
C949 C 0.21192 0.23376 0.13521 0.0
C950 C 0.26774 0.21514 0.14189 0.0
H951 H 0.16826 0.28511 0.11721 0.0
H952 H 0.16839 0.22043 0.14028 0.0
C953 C 0.32341 0.23424 0.13524 0.0
C954 C 0.77091 0.82399 0.38524 0.0
C955 C 0.79015 0.76828 0.39185 0.0
H956 H 0.72186 0.86758 0.36688 0.0
C957 C 0.77163 0.71249 0.38513 0.0
H958 H 0.78414 0.86761 0.39028 0.0
C959 C 0.73389 0.71248 0.37212 0.0
C960 C 0.71555 0.76826 0.36537 0.0
H961 H 0.78506 0.66893 0.39017 0.0
H962 H 0.72033 0.66891 0.36711 0.0
C963 C 0.73496 0.82398 0.37195 0.0
C964 C 0.18163 0.2346 0.62201 0.0
C965 C 0.23732 0.21538 0.61539 0.0
H966 H 0.13806 0.28365 0.64037 0.0
C967 C 0.29312 0.23393 0.62209 0.0
H968 H 0.13801 0.22134 0.61697 0.0
C969 C 0.29314 0.2717 0.63511 0.0
C970 C 0.23737 0.29002 0.64187 0.0
H971 H 0.33667 0.22052 0.61706 0.0
H972 H 0.33671 0.28529 0.64011 0.0
C973 C 0.18165 0.27057 0.63529 0.0
C974 C 0.77096 0.68249 0.87193 0.0
C975 C 0.78997 0.73819 0.86527 0.0
H976 H 0.72221 0.63893 0.89033 0.0
C977 C 0.7713 0.794 0.87195 0.0
H978 H 0.78432 0.63887 0.86691 0.0
C979 C 0.73365 0.79402 0.88498 0.0
C980 C 0.71557 0.73825 0.89178 0.0
H981 H 0.78455 0.83755 0.86688 0.0
H982 H 0.71996 0.8376 0.88997 0.0
C983 C 0.73511 0.68253 0.88522 0.0
C984 C 0.82232 0.77046 0.62192 0.0
C985 C 0.7666 0.78972 0.61532 0.0
H986 H 0.86597 0.72157 0.64028 0.0
C987 C 0.71082 0.7714 0.62207 0.0
H988 H 0.86591 0.78355 0.61684 0.0
C989 C 0.71085 0.73382 0.63512 0.0
C990 C 0.76666 0.71547 0.64185 0.0
H991 H 0.66725 0.78487 0.61705 0.0
H992 H 0.66731 0.72039 0.64016 0.0
C993 C 0.82235 0.73468 0.63522 0.0
C994 C 0.27112 0.32328 0.88525 0.0
C995 C 0.2903 0.26761 0.89189 0.0
H996 H 0.22222 0.36677 0.86686 0.0
C997 C 0.27183 0.21178 0.88519 0.0
H998 H 0.28431 0.36692 0.89029 0.0
C999 C 0.23419 0.21169 0.87215 0.0
C1000 C 0.21592 0.26744 0.86538 0.0
H1001 H 0.28523 0.16825 0.89024 0.0
H1002 H 0.22066 0.1681 0.86715 0.0
C1003 C 0.23527 0.32319 0.87195 0.0
C1004 C 0.6824 0.73429 0.12196 0.0
C1005 C 0.73808 0.71525 0.1153 0.0
H1006 H 0.63889 0.78303 0.14038 0.0
C1007 C 0.7939 0.73384 0.12199 0.0
H1008 H 0.63877 0.721 0.11694 0.0
C1009 C 0.79396 0.77145 0.13503 0.0
C1010 C 0.73821 0.78957 0.14183 0.0
H1011 H 0.83743 0.72055 0.11692 0.0
H1012 H 0.83754 0.78508 0.14002 0.0
C1013 C 0.68247 0.7701 0.13527 0.0
C1014 C 0.23408 0.29468 0.38515 0.0
C1015 C 0.21578 0.2389 0.3919 0.0
H1016 H 0.28508 0.33819 0.36706 0.0
C1017 C 0.23503 0.18317 0.3853 0.0
H1018 H 0.22062 0.33825 0.39017 0.0
C1019 C 0.2708 0.18314 0.37199 0.0
C1020 C 0.29001 0.23883 0.36536 0.0
H1021 H 0.22196 0.13958 0.39038 0.0
H1022 H 0.28391 0.13951 0.36693 0.0
C1023 C 0.27166 0.29464 0.3721 0.0
C1024 C 0.28385 0.13206 0.251 0.0
C1025 C 0.31314 0.15987 0.23844 0.0
H1026 H 0.27694 0.1252 0.27532 0.0
C1027 C 0.35837 0.20502 0.24124 0.0
H1028 H 0.24905 0.09701 0.2493 0.0
C1029 C 0.37427 0.22151 0.2562 0.0
C1030 C 0.34558 0.19309 0.26876 0.0
H1031 H 0.38218 0.22735 0.23187 0.0
H1032 H 0.40973 0.2559 0.2579 0.0
C1033 C 0.29996 0.14835 0.26596 0.0
C1034 C 0.80041 0.8588 0.49121 0.0
C1035 C 0.84542 0.81345 0.48841 0.0
H1036 H 0.74964 0.91023 0.50788 0.0
C1037 C 0.87312 0.78402 0.50095 0.0
H1038 H 0.77816 0.88272 0.48185 0.0
C1039 C 0.85685 0.8001 0.51592 0.0
C1040 C 0.81224 0.84583 0.51873 0.0
H1041 H 0.90807 0.74912 0.49925 0.0
H1042 H 0.87992 0.77696 0.52528 0.0
C1043 C 0.78393 0.87468 0.50618 0.0
C1044 C 0.14738 0.30036 0.74126 0.0
C1045 C 0.19251 0.34558 0.73844 0.0
H1046 H 0.09607 0.24955 0.75794 0.0
C1047 C 0.22168 0.37361 0.75099 0.0
H1048 H 0.12366 0.27785 0.7319 0.0
C1049 C 0.20555 0.35746 0.76595 0.0
C1050 C 0.16002 0.31265 0.76877 0.0
H1051 H 0.2564 0.40873 0.74928 0.0
H1052 H 0.22847 0.38078 0.77531 0.0
C1053 C 0.13145 0.28401 0.75623 0.0
C1054 C 0.6476 0.70524 0.01592 0.0
C1055 C 0.69276 0.66005 0.01872 0.0
H1056 H 0.59622 0.75606 0.99925 0.0
C1057 C 0.72195 0.6321 0.00617 0.0
H1058 H 0.62387 0.72769 0.02528 0.0
C1059 C 0.70579 0.64829 0.99121 0.0
C1060 C 0.66021 0.69307 0.9884 0.0
H1061 H 0.75671 0.59701 0.00787 0.0
H1062 H 0.72872 0.62504 0.98184 0.0
C1063 C 0.63163 0.72164 1.00095 0.0
C1064 C 0.35739 0.29991 0.01597 0.0
C1065 C 0.31261 0.34547 0.01879 0.0
H1066 H 0.40866 0.24901 0.9993 0.0
C1067 C 0.28401 0.37405 0.00624 0.0
H1068 H 0.38068 0.27697 0.02533 0.0
C1069 C 0.30038 0.3581 0.99128 0.0
C1070 C 0.34557 0.31295 0.98846 0.0
H1071 H 0.24958 0.40946 0.00795 0.0
H1072 H 0.27791 0.38183 0.98192 0.0
C1073 C 0.37356 0.28376 1.00101 0.0
C1074 C 0.63233 0.78365 0.25626 0.0
C1075 C 0.66017 0.81302 0.2688 0.0
H1076 H 0.62537 0.77661 0.23193 0.0
C1077 C 0.7053 0.85824 0.26597 0.0
H1078 H 0.59729 0.74885 0.25797 0.0
C1079 C 0.72173 0.87407 0.251 0.0
C1080 C 0.69326 0.84531 0.23846 0.0
H1081 H 0.72767 0.8821 0.27533 0.0
H1082 H 0.7561 0.90954 0.24929 0.0
C1083 C 0.64855 0.79969 0.24129 0.0
C1084 C 0.20562 0.14866 0.49132 0.0
C1085 C 0.15993 0.19332 0.48851 0.0
H1086 H 0.25651 0.09735 0.50799 0.0
C1087 C 0.1311 0.22164 0.50106 0.0
H1088 H 0.22875 0.12558 0.48196 0.0
C1089 C 0.14694 0.20512 0.51603 0.0
C1090 C 0.19223 0.16006 0.51883 0.0
H1091 H 0.09559 0.25597 0.49936 0.0
H1092 H 0.12302 0.22738 0.52539 0.0
C1093 C 0.22165 0.13235 0.50629 0.0
C1094 C 0.85727 0.70532 0.74123 0.0
C1095 C 0.8126 0.65962 0.73843 0.0
H1096 H 0.90849 0.75639 0.75788 0.0
C1097 C 0.78419 0.63094 0.75099 0.0
H1098 H 0.88042 0.72833 0.73186 0.0
C1099 C 0.80061 0.64695 0.76595 0.0
C1100 C 0.84567 0.69227 0.76874 0.0
H1101 H 0.74985 0.59543 0.74929 0.0
H1102 H 0.77828 0.62315 0.77532 0.0
C1103 C 0.87349 0.72153 0.75618 0.0
C1104 C 0.03099 0.01859 0.21165 0.0
C1105 C 0.05834 0.03655 0.19779 0.0
H1106 H 0.95371 0.97449 0.22244 0.0
C1107 C 0.03 0.0204 0.18391 0.0
H1108 H 0.05264 0.0299 0.22247 0.0
C1109 C 0.97538 0.98629 0.18389 0.0
C1110 C 0.94742 0.96929 0.19775 0.0
H1111 H 0.05098 0.03277 0.17309 0.0
H1112 H 0.95415 0.97451 0.17305 0.0
C1113 C 0.97508 0.98646 0.21164 0.0
C1114 C 0.01821 0.47514 0.46168 0.0
C1115 C 0.03558 0.44752 0.4478 0.0
H1116 H 0.9746 0.55267 0.47248 0.0
C1117 C 0.01873 0.47549 0.43394 0.0
H1118 H 0.03007 0.45378 0.47249 0.0
C1119 C 0.98459 0.53009 0.43393 0.0
C1120 C 0.96826 0.5584 0.4478 0.0
H1121 H 0.03067 0.45429 0.4231 0.0
H1122 H 0.97236 0.55108 0.4231 0.0
C1123 C 0.98604 0.53104 0.46167 0.0
C1124 C 0.477 0.48248 0.68397 0.0
C1125 C 0.44727 0.4686 0.69782 0.0
H1126 H 0.55392 0.52663 0.67314 0.0
C1127 C 0.47333 0.48872 0.71166 0.0
H1128 H 0.45706 0.46843 0.67315 0.0
C1129 C 0.52925 0.52085 0.71167 0.0
C1130 C 0.55821 0.5358 0.69779 0.0
H1131 H 0.45065 0.47916 0.72245 0.0
H1132 H 0.54958 0.53454 0.72247 0.0
C1133 C 0.53163 0.51655 0.68395 0.0
C1134 C 0.48647 0.03072 0.96165 0.0
C1135 C 0.46886 0.05826 0.94779 0.0
H1136 H 0.53032 0.95328 0.97244 0.0
C1137 C 0.48538 0.03015 0.93391 0.0
H1138 H 0.47489 0.0522 0.97247 0.0
C1139 C 0.5195 0.97554 0.93389 0.0
C1140 C 0.53614 0.94736 0.94775 0.0
H1141 H 0.47327 0.05129 0.92309 0.0
H1142 H 0.53154 0.95447 0.92305 0.0
C1143 C 0.51862 0.97481 0.96164 0.0
C1144 C 0.03013 0.48604 0.07332 0.0
C1145 C 0.05832 0.46935 0.05947 0.0
H1146 H 0.95438 0.5323 0.08412 0.0
C1147 C 0.03088 0.48681 0.04558 0.0
H1148 H 0.05119 0.47404 0.08417 0.0
C1149 C 0.97497 0.51895 0.04555 0.0
C1150 C 0.94741 0.53662 0.05942 0.0
H1151 H 0.05241 0.47508 0.03478 0.0
H1152 H 0.9535 0.5305 0.03473 0.0
C1153 C 0.97552 0.52016 0.07329 0.0
C1154 C 0.5207 0.53007 0.32332 0.0
C1155 C 0.53701 0.55839 0.30946 0.0
H1156 H 0.47465 0.45424 0.33415 0.0
C1157 C 0.51922 0.53104 0.29558 0.0
H1158 H 0.53293 0.55105 0.33416 0.0
C1159 C 0.48707 0.47513 0.29557 0.0
C1160 C 0.46972 0.44749 0.30945 0.0
H1161 H 0.53066 0.55268 0.28477 0.0
H1162 H 0.47522 0.45376 0.28476 0.0
C1163 C 0.48657 0.47546 0.32332 0.0
C1164 C 0.53101 0.98827 0.57329 0.0
C1165 C 0.55808 0.96989 0.55944 0.0
H1166 H 0.45608 0.03574 0.58412 0.0
C1167 C 0.5296 0.98575 0.54556 0.0
H1168 H 0.55291 0.9775 0.58411 0.0
C1169 C 0.47369 0.01789 0.54557 0.0
C1170 C 0.44717 0.03714 0.55943 0.0
H1171 H 0.5503 0.97272 0.53475 0.0
H1172 H 0.45138 0.02814 0.53477 0.0
C1173 C 0.4764 0.02237 0.57328 0.0
C1174 C 0.01984 0.02981 0.82328 0.0
C1175 C 0.03603 0.0583 0.80943 0.0
H1176 H 0.97391 0.95385 0.83407 0.0
C1177 C 0.01801 0.03118 0.79554 0.0
H1178 H 0.03227 0.05062 0.83412 0.0
C1179 C 0.98581 0.97529 0.79551 0.0
C1180 C 0.96864 0.94746 0.80937 0.0
H1181 H 0.02935 0.05294 0.78474 0.0
H1182 H 0.97383 0.95407 0.78468 0.0
C1183 C 0.98567 0.97523 0.82325 0.0
C1184 C 0.53054 0.98505 0.17732 0.0
C1185 C 0.55862 0.96887 0.19123 0.0
H1186 H 0.45393 0.03063 0.16652 0.0
C1187 C 0.53053 0.98557 0.20508 0.0
H1188 H 0.55204 0.97319 0.16652 0.0
C1189 C 0.47485 0.01718 0.20508 0.0
C1190 C 0.44698 0.0343 0.19124 0.0
H1191 H 0.55155 0.97378 0.21594 0.0
H1192 H 0.45372 0.02875 0.21595 0.0
C1193 C 0.47523 0.01843 0.17732 0.0
C1194 C 0.98923 0.97457 0.45507 0.0
C1195 C 0.97134 0.9471 0.44123 0.0
H1196 H 0.03318 0.05099 0.46593 0.0
C1197 C 0.98645 0.9758 0.42732 0.0
H1198 H 0.97823 0.95314 0.46594 0.0
C1199 C 0.01981 0.03112 0.42731 0.0
C1200 C 0.03673 0.05878 0.44122 0.0
H1201 H 0.97364 0.95484 0.41652 0.0
H1202 H 0.03104 0.05298 0.41652 0.0
C1203 C 0.02082 0.03026 0.45507 0.0
C1204 C 0.02967 0.48549 0.67729 0.0
C1205 C 0.05853 0.47095 0.69122 0.0
H1206 H 0.95235 0.52964 0.66644 0.0
C1207 C 0.03125 0.48942 0.70503 0.0
H1208 H 0.05047 0.47223 0.66651 0.0
C1209 C 0.97558 0.52103 0.70499 0.0
C1210 C 0.94689 0.53637 0.69113 0.0
H1211 H 0.0528 0.47885 0.71592 0.0
H1212 H 0.95497 0.53382 0.71584 0.0
C1213 C 0.97435 0.51886 0.67724 0.0
C1214 C 0.48616 0.4754 0.92732 0.0
C1215 C 0.47086 0.44691 0.94124 0.0
H1216 H 0.53094 0.5524 0.91649 0.0
C1217 C 0.48855 0.47457 0.95507 0.0
H1218 H 0.47352 0.45428 0.91653 0.0
C1219 C 0.52016 0.53025 0.95505 0.0
C1220 C 0.53629 0.55857 0.94119 0.0
H1221 H 0.47741 0.45329 0.96595 0.0
H1222 H 0.53239 0.55112 0.96591 0.0
C1223 C 0.51954 0.53072 0.92729 0.0
C1224 C 0.53109 0.51709 0.05212 0.0
C1225 C 0.5588 0.53472 0.06594 0.0
H1226 H 0.4545 0.47331 0.04129 0.0
C1227 C 0.53036 0.51936 0.07987 0.0
H1228 H 0.55233 0.52828 0.04124 0.0
C1229 C 0.47505 0.48598 0.07991 0.0
C1230 C 0.44714 0.46929 0.06601 0.0
H1231 H 0.55152 0.53195 0.09066 0.0
H1232 H 0.45341 0.47452 0.09071 0.0
C1233 C 0.4754 0.48549 0.05215 0.0
C1234 C 0.48541 0.0304 0.30216 0.0
C1235 C 0.46922 0.05875 0.31601 0.0
H1236 H 0.52822 0.95342 0.29128 0.0
C1237 C 0.48591 0.03094 0.32992 0.0
H1238 H 0.47323 0.05124 0.2913 0.0
C1239 C 0.5193 0.97563 0.32991 0.0
C1240 C 0.53466 0.94711 0.31599 0.0
H1241 H 0.47446 0.05265 0.34072 0.0
H1242 H 0.5319 0.95454 0.3407 0.0
C1243 C 0.51703 0.97473 0.30215 0.0
C1244 C 0.97534 0.98457 0.5522 0.0
C1245 C 0.94679 0.96877 0.56605 0.0
H1246 H 0.05248 0.02708 0.54132 0.0
C1247 C 0.97441 0.9858 0.57996 0.0
H1248 H 0.95463 0.97214 0.54134 0.0
C1249 C 0.02974 0.01916 0.57994 0.0
C1250 C 0.05846 0.03416 0.56602 0.0
H1251 H 0.95253 0.97466 0.59075 0.0
H1252 H 0.05067 0.03205 0.59073 0.0
C1253 C 0.03103 0.01616 0.55219 0.0
C1254 C 0.98852 0.53112 0.80217 0.0
C1255 C 0.97102 0.55884 0.816 0.0
H1256 H 0.03217 0.4545 0.79132 0.0
C1257 C 0.98644 0.53038 0.82992 0.0
H1258 H 0.97728 0.55238 0.79129 0.0
C1259 C 0.01977 0.47504 0.82994 0.0
C1260 C 0.03633 0.44712 0.81603 0.0
H1261 H 0.97393 0.55155 0.84072 0.0
H1262 H 0.03128 0.45338 0.84074 0.0
C1263 C 0.02008 0.47541 0.80218 0.0
loop_
_geom_bond_atom_site_label_1
_geom_bond_atom_site_label_2
_geom_bond_distance
_geom_bond_site_symmetry_2
_ccdc_geom_bond_type
Co0 O2 2.143 . S
Co0 O8 2.074 . S
Co0 O11 2.093 . S
Co0 O24 2.097 . S
Co0 N41 2.151 . S
Co0 N49 2.214 . S
Co1 O2 2.160 . S
Co1 O7 2.058 . S
Co1 O17 2.057 . S
Co1 O32 2.037 . S
Co1 N36 2.145 1_545 S
Co1 N57 2.257 1_545 S
O2 Co0 2.143 . S
O2 Co1 2.160 . S
C3 O4 1.278 . S
C3 O11 1.224 . S
O4 C3 1.278 . S
C5 O6 1.245 . S
C5 O17 1.232 . S
O6 C5 1.245 . S
O7 Co1 2.058 . S
O7 C33 1.269 . S
O8 Co0 2.074 . S
O8 C33 1.257 . S
H9 C34 0.930 . S
H10 C40 0.930 . S
O11 Co0 2.093 . S
O11 C3 1.224 . S
H12 C44 0.929 . S
H13 C46 0.930 . S
H14 C47 0.930 . S
H15 C45 0.929 . S
H16 C48 0.928 . S
O17 Co1 2.057 . S
O17 C5 1.232 . S
H18 C37 0.929 . S
H19 C38 0.929 . S
H20 C50 0.931 . S
H21 C42 0.929 . S
H22 C51 0.930 . S
H23 C43 0.931 . S
O24 Co0 2.097 . S
O24 C52 1.214 . S
H25 C53 0.929 . S
H26 C54 0.929 . S
H27 C55 0.930 . S
H28 C56 0.929 . S
H29 C58 0.930 1_545 S
H30 C35 0.930 . S
H31 C39 0.930 . S
O32 Co1 2.037 . S
O32 C52 1.234 . S
C33 O7 1.269 . S
C33 O8 1.257 . S
C34 H9 0.930 . S
C34 C37 1.388 . S
C34 C39 1.418 . S
C35 H30 0.930 . S
C35 C38 1.404 . S
C35 C39 1.353 . S
N36 Co1 2.145 1_565 S
N36 C37 1.397 . S
N36 C38 1.334 . S
C37 H18 0.929 . S
C37 C34 1.388 . S
C37 N36 1.397 . S
C38 H19 0.929 . S
C38 C35 1.404 . S
C38 N36 1.334 . S
C39 H31 0.930 . S
C39 C34 1.418 . S
C39 C35 1.353 . S
C40 H10 0.930 . S
C40 N41 1.330 . S
C40 C42 1.446 . S
N41 Co0 2.151 . S
N41 C40 1.330 . S
N41 C45 1.418 . S
C42 H21 0.929 . S
C42 C40 1.446 . S
C42 C43 1.332 . S
C43 H23 0.931 . S
C43 C42 1.332 . S
C43 C44 1.267 . S
C44 H12 0.929 . S
C44 C43 1.267 . S
C44 C45 1.251 . S
C45 H15 0.929 . S
C45 N41 1.418 . S
C45 C44 1.251 . S
C46 H13 0.930 . S
C46 C48 1.406 . S
C46 C51 1.261 . S
C47 H14 0.930 . S
C47 N49 1.325 . S
C47 C50 1.357 . S
C48 H16 0.928 . S
C48 C46 1.406 . S
C48 N49 1.261 . S
N49 Co0 2.214 . S
N49 C47 1.325 . S
N49 C48 1.261 . S
C50 H20 0.931 . S
C50 C47 1.357 . S
C50 C51 1.312 . S
C51 H22 0.930 . S
C51 C46 1.261 . S
C51 C50 1.312 . S
C52 O24 1.214 . S
C52 O32 1.234 . S
C53 H25 0.929 . S
C53 C56 1.391 . S
C53 C58 1.391 . S
C54 H26 0.929 . S
C54 C55 1.390 . S
C54 N57 1.391 . S
C55 H27 0.930 . S
C55 C54 1.390 . S
C55 C56 1.392 . S
C56 H28 0.929 . S
C56 C53 1.391 . S
C56 C55 1.392 . S
N57 Co1 2.257 1_565 S
N57 C54 1.391 . S
N57 C58 1.388 . S
C58 H29 0.930 1_565 S
C58 C53 1.391 . S
C58 N57 1.388 . S
Co59 O61 2.143 . S
Co59 O67 2.074 . S
Co59 O70 2.093 . S
Co59 O83 2.097 . S
Co59 N100 2.151 . S
Co59 N108 2.214 . S
Co60 O61 2.160 . S
Co60 O66 2.058 . S
Co60 O76 2.057 . S
Co60 O91 2.037 . S
Co60 N95 2.145 1_655 S
Co60 N116 2.257 1_655 S
O61 Co59 2.143 . S
O61 Co60 2.160 . S
C62 O63 1.278 . S
C62 O70 1.224 . S
O63 C62 1.278 . S
C64 O65 1.245 . S
C64 O76 1.232 . S
O65 C64 1.245 . S
O66 Co60 2.058 . S
O66 C92 1.269 . S
O67 Co59 2.074 . S
O67 C92 1.257 . S
H68 C93 0.930 . S
H69 C99 0.930 . S
O70 Co59 2.093 . S
O70 C62 1.224 . S
H71 C103 0.929 . S
H72 C105 0.930 . S
H73 C106 0.930 . S
H74 C104 0.929 . S
H75 C107 0.928 . S
O76 Co60 2.057 . S
O76 C64 1.232 . S
H77 C96 0.929 . S
H78 C97 0.929 . S
H79 C109 0.931 1_545 S
H80 C101 0.929 . S
H81 C110 0.930 1_545 S
H82 C102 0.931 . S
O83 Co59 2.097 . S
O83 C111 1.214 . S
H84 C112 0.929 . S
H85 C113 0.929 . S
H86 C114 0.930 . S
H87 C115 0.929 . S
H88 C117 0.930 1_655 S
H89 C94 0.930 . S
H90 C98 0.930 . S
O91 Co60 2.037 . S
O91 C111 1.234 . S
C92 O66 1.269 . S
C92 O67 1.257 . S
C93 H68 0.930 . S
C93 C96 1.388 . S
C93 C98 1.418 . S
C94 H89 0.930 . S
C94 C97 1.404 . S
C94 C98 1.353 . S
N95 Co60 2.145 1_455 S
N95 C96 1.397 . S
N95 C97 1.334 . S
C96 H77 0.929 . S
C96 C93 1.388 . S
C96 N95 1.397 . S
C97 H78 0.929 . S
C97 C94 1.404 . S
C97 N95 1.334 . S
C98 H90 0.930 . S
C98 C93 1.418 . S
C98 C94 1.353 . S
C99 H69 0.930 . S
C99 N100 1.330 . S
C99 C101 1.446 . S
N100 Co59 2.151 . S
N100 C99 1.330 . S
N100 C104 1.418 . S
C101 H80 0.929 . S
C101 C99 1.446 . S
C101 C102 1.332 . S
C102 H82 0.931 . S
C102 C101 1.332 . S
C102 C103 1.267 . S
C103 H71 0.929 . S
C103 C102 1.267 . S
C103 C104 1.251 . S
C104 H74 0.929 . S
C104 N100 1.418 . S
C104 C103 1.251 . S
C105 H72 0.930 . S
C105 C107 1.406 . S
C105 C110 1.261 . S
C106 H73 0.930 . S
C106 N108 1.325 . S
C106 C109 1.357 . S
C107 H75 0.928 . S
C107 C105 1.406 . S
C107 N108 1.261 . S
N108 Co59 2.214 . S
N108 C106 1.325 . S
N108 C107 1.261 . S
C109 H79 0.931 1_565 S
C109 C106 1.357 . S
C109 C110 1.312 . S
C110 H81 0.930 1_565 S
C110 C105 1.261 . S
C110 C109 1.312 . S
C111 O83 1.214 . S
C111 O91 1.234 . S
C112 H84 0.929 . S
C112 C115 1.391 . S
C112 C117 1.391 . S
C113 H85 0.929 . S
C113 C114 1.390 . S
C113 N116 1.391 . S
C114 H86 0.930 . S
C114 C113 1.390 . S
C114 C115 1.392 . S
C115 H87 0.929 . S
C115 C112 1.391 . S
C115 C114 1.392 . S
N116 Co60 2.257 1_455 S
N116 C113 1.391 . S
N116 C117 1.388 . S
C117 H88 0.930 1_455 S
C117 C112 1.391 . S
C117 N116 1.388 . S
Co118 O120 2.143 . S
Co118 O126 2.074 . S
Co118 O129 2.093 . S
Co118 O142 2.097 . S
Co118 N159 2.151 . S
Co118 N167 2.214 . S
Co119 O120 2.160 . S
Co119 O125 2.058 . S
Co119 O135 2.057 . S
Co119 O150 2.037 . S
Co119 N154 2.145 . S
Co119 N175 2.257 . S
O120 Co118 2.143 . S
O120 Co119 2.160 . S
C121 O122 1.278 . S
C121 O129 1.224 . S
O122 C121 1.278 . S
C123 O124 1.245 . S
C123 O135 1.232 . S
O124 C123 1.245 . S
O125 Co119 2.058 . S
O125 C151 1.269 . S
O126 Co118 2.074 . S
O126 C151 1.257 . S
H127 C152 0.930 . S
H128 C158 0.930 . S
O129 Co118 2.093 . S
O129 C121 1.224 . S
H130 C162 0.929 . S
H131 C164 0.930 . S
H132 C165 0.930 . S
H133 C163 0.929 . S
H134 C166 0.928 . S
O135 Co119 2.057 . S
O135 C123 1.232 . S
H136 C155 0.929 . S
H137 C156 0.929 . S
H138 C168 0.931 1_655 S
H139 C160 0.929 . S
H140 C169 0.930 1_655 S
H141 C161 0.931 . S
O142 Co118 2.097 . S
O142 C170 1.214 . S
H143 C171 0.929 . S
H144 C172 0.929 . S
H145 C173 0.930 . S
H146 C174 0.929 . S
H147 C176 0.930 . S
H148 C153 0.930 . S
H149 C157 0.930 . S
O150 Co119 2.037 . S
O150 C170 1.234 . S
C151 O125 1.269 . S
C151 O126 1.257 . S
C152 H127 0.930 . S
C152 C155 1.388 . S
C152 C157 1.418 . S
C153 H148 0.930 . S
C153 C156 1.404 . S
C153 C157 1.353 . S
N154 Co119 2.145 . S
N154 C155 1.397 . S
N154 C156 1.334 . S
C155 H136 0.929 . S
C155 C152 1.388 . S
C155 N154 1.397 . S
C156 H137 0.929 . S
C156 C153 1.404 . S
C156 N154 1.334 . S
C157 H149 0.930 . S
C157 C152 1.418 . S
C157 C153 1.353 . S
C158 H128 0.930 . S
C158 N159 1.330 . S
C158 C160 1.446 . S
N159 Co118 2.151 . S
N159 C158 1.330 . S
N159 C163 1.418 . S
C160 H139 0.929 . S
C160 C158 1.446 . S
C160 C161 1.332 . S
C161 H141 0.931 . S
C161 C160 1.332 . S
C161 C162 1.267 . S
C162 H130 0.929 . S
C162 C161 1.267 . S
C162 C163 1.251 . S
C163 H133 0.929 . S
C163 N159 1.418 . S
C163 C162 1.251 . S
C164 H131 0.930 . S
C164 C166 1.406 . S
C164 C169 1.261 . S
C165 H132 0.930 . S
C165 N167 1.325 . S
C165 C168 1.357 . S
C166 H134 0.928 . S
C166 C164 1.406 . S
C166 N167 1.261 . S
N167 Co118 2.214 . S
N167 C165 1.325 . S
N167 C166 1.261 . S
C168 H138 0.931 1_455 S
C168 C165 1.357 . S
C168 C169 1.312 . S
C169 H140 0.930 1_455 S
C169 C164 1.261 . S
C169 C168 1.312 . S
C170 O142 1.214 . S
C170 O150 1.234 . S
C171 H143 0.929 . S
C171 C174 1.391 . S
C171 C176 1.391 . S
C172 H144 0.929 . S
C172 C173 1.390 . S
C172 N175 1.391 . S
C173 H145 0.930 . S
C173 C172 1.390 . S
C173 C174 1.392 . S
C174 H146 0.929 . S
C174 C171 1.391 . S
C174 C173 1.392 . S
N175 Co119 2.257 . S
N175 C172 1.391 . S
N175 C176 1.388 . S
C176 H147 0.930 . S
C176 C171 1.391 . S
C176 N175 1.388 . S
Co177 O179 2.143 . S
Co177 O185 2.074 . S
Co177 O188 2.093 . S
Co177 O201 2.097 . S
Co177 N218 2.151 . S
Co177 N226 2.214 . S
Co178 O179 2.160 . S
Co178 O184 2.058 . S
Co178 O194 2.057 . S
Co178 O209 2.037 . S
Co178 N213 2.145 . S
Co178 N234 2.257 . S
O179 Co177 2.143 . S
O179 Co178 2.160 . S
C180 O181 1.278 . S
C180 O188 1.224 . S
O181 C180 1.278 . S
C182 O183 1.245 . S
C182 O194 1.232 . S
O183 C182 1.245 . S
O184 Co178 2.058 . S
O184 C210 1.269 . S
O185 Co177 2.074 . S
O185 C210 1.257 . S
H186 C211 0.930 . S
H187 C217 0.930 . S
O188 Co177 2.093 . S
O188 C180 1.224 . S
H189 C221 0.929 . S
H190 C223 0.930 . S
H191 C224 0.930 . S
H192 C222 0.929 . S
H193 C225 0.928 . S
O194 Co178 2.057 . S
O194 C182 1.232 . S
H195 C214 0.929 . S
H196 C215 0.929 . S
H197 C227 0.931 . S
H198 C219 0.929 . S
H199 C228 0.930 . S
H200 C220 0.931 . S
O201 Co177 2.097 . S
O201 C229 1.214 . S
H202 C230 0.929 . S
H203 C231 0.929 . S
H204 C232 0.930 . S
H205 C233 0.929 . S
H206 C235 0.930 . S
H207 C212 0.930 . S
H208 C216 0.930 . S
O209 Co178 2.037 . S
O209 C229 1.234 . S
C210 O184 1.269 . S
C210 O185 1.257 . S
C211 H186 0.930 . S
C211 C214 1.388 . S
C211 C216 1.418 . S
C212 H207 0.930 . S
C212 C215 1.404 . S
C212 C216 1.353 . S
N213 Co178 2.145 . S
N213 C214 1.397 . S
N213 C215 1.334 . S
C214 H195 0.929 . S
C214 C211 1.388 . S
C214 N213 1.397 . S
C215 H196 0.929 . S
C215 C212 1.404 . S
C215 N213 1.334 . S
C216 H208 0.930 . S
C216 C211 1.418 . S
C216 C212 1.353 . S
C217 H187 0.930 . S
C217 N218 1.330 . S
C217 C219 1.446 . S
N218 Co177 2.151 . S
N218 C217 1.330 . S
N218 C222 1.418 . S
C219 H198 0.929 . S
C219 C217 1.446 . S
C219 C220 1.332 . S
C220 H200 0.931 . S
C220 C219 1.332 . S
C220 C221 1.267 . S
C221 H189 0.929 . S
C221 C220 1.267 . S
C221 C222 1.251 . S
C222 H192 0.929 . S
C222 N218 1.418 . S
C222 C221 1.251 . S
C223 H190 0.930 . S
C223 C225 1.406 . S
C223 C228 1.261 . S
C224 H191 0.930 . S
C224 N226 1.325 . S
C224 C227 1.357 . S
C225 H193 0.928 . S
C225 C223 1.406 . S
C225 N226 1.261 . S
N226 Co177 2.214 . S
N226 C224 1.325 . S
N226 C225 1.261 . S
C227 H197 0.931 . S
C227 C224 1.357 . S
C227 C228 1.312 . S
C228 H199 0.930 . S
C228 C223 1.261 . S
C228 C227 1.312 . S
C229 O201 1.214 . S
C229 O209 1.234 . S
C230 H202 0.929 . S
C230 C233 1.391 . S
C230 C235 1.391 . S
C231 H203 0.929 . S
C231 C232 1.390 . S
C231 N234 1.391 . S
C232 H204 0.930 . S
C232 C231 1.390 . S
C232 C233 1.392 . S
C233 H205 0.929 . S
C233 C230 1.391 . S
C233 C232 1.392 . S
N234 Co178 2.257 . S
N234 C231 1.391 . S
N234 C235 1.388 . S
C235 H206 0.930 . S
C235 C230 1.391 . S
C235 N234 1.388 . S
Co236 O238 2.143 . S
Co236 O244 2.074 . S
Co236 O247 2.093 . S
Co236 O260 2.097 . S
Co236 N277 2.151 . S
Co236 N285 2.214 . S
Co237 O238 2.160 . S
Co237 O243 2.058 . S
Co237 O253 2.057 . S
Co237 O268 2.037 . S
Co237 N272 2.145 . S
Co237 N293 2.257 . S
O238 Co236 2.143 . S
O238 Co237 2.160 . S
C239 O240 1.278 . S
C239 O247 1.224 . S
O240 C239 1.278 . S
C241 O242 1.245 . S
C241 O253 1.232 . S
O242 C241 1.245 . S
O243 Co237 2.058 . S
O243 C269 1.269 . S
O244 Co236 2.074 . S
O244 C269 1.257 . S
H245 C270 0.930 . S
H246 C276 0.930 . S
O247 Co236 2.093 . S
O247 C239 1.224 . S
H248 C280 0.929 . S
H249 C282 0.930 . S
H250 C283 0.930 . S
H251 C281 0.929 . S
H252 C284 0.928 . S
O253 Co237 2.057 . S
O253 C241 1.232 . S
H254 C273 0.929 . S
H255 C274 0.929 . S
H256 C286 0.931 . S
H257 C278 0.929 . S
H258 C287 0.930 . S
H259 C279 0.931 . S
O260 Co236 2.097 . S
O260 C288 1.214 . S
H261 C289 0.929 . S
H262 C290 0.929 . S
H263 C291 0.930 . S
H264 C292 0.929 . S
H265 C294 0.930 . S
H266 C271 0.930 . S
H267 C275 0.930 . S
O268 Co237 2.037 . S
O268 C288 1.234 . S
C269 O243 1.269 . S
C269 O244 1.257 . S
C270 H245 0.930 . S
C270 C273 1.388 . S
C270 C275 1.418 . S
C271 H266 0.930 . S
C271 C274 1.404 . S
C271 C275 1.353 . S
N272 Co237 2.145 . S
N272 C273 1.397 . S
N272 C274 1.334 . S
C273 H254 0.929 . S
C273 C270 1.388 . S
C273 N272 1.397 . S
C274 H255 0.929 . S
C274 C271 1.404 . S
C274 N272 1.334 . S
C275 H267 0.930 . S
C275 C270 1.418 . S
C275 C271 1.353 . S
C276 H246 0.930 . S
C276 N277 1.330 . S
C276 C278 1.446 . S
N277 Co236 2.151 . S
N277 C276 1.330 . S
N277 C281 1.418 . S
C278 H257 0.929 . S
C278 C276 1.446 . S
C278 C279 1.332 . S
C279 H259 0.931 . S
C279 C278 1.332 . S
C279 C280 1.267 . S
C280 H248 0.929 . S
C280 C279 1.267 . S
C280 C281 1.251 . S
C281 H251 0.929 . S
C281 N277 1.418 . S
C281 C280 1.251 . S
C282 H249 0.930 . S
C282 C284 1.406 . S
C282 C287 1.261 . S
C283 H250 0.930 . S
C283 N285 1.325 . S
C283 C286 1.357 . S
C284 H252 0.928 . S
C284 C282 1.406 . S
C284 N285 1.261 . S
N285 Co236 2.214 . S
N285 C283 1.325 . S
N285 C284 1.261 . S
C286 H256 0.931 . S
C286 C283 1.357 . S
C286 C287 1.312 . S
C287 H258 0.930 . S
C287 C282 1.261 . S
C287 C286 1.312 . S
C288 O260 1.214 . S
C288 O268 1.234 . S
C289 H261 0.929 . S
C289 C292 1.391 . S
C289 C294 1.391 . S
C290 H262 0.929 . S
C290 C291 1.390 . S
C290 N293 1.391 . S
C291 H263 0.930 . S
C291 C290 1.390 . S
C291 C292 1.392 . S
C292 H264 0.929 . S
C292 C289 1.391 . S
C292 C291 1.392 . S
N293 Co237 2.257 . S
N293 C290 1.391 . S
N293 C294 1.388 . S
C294 H265 0.930 . S
C294 C289 1.391 . S
C294 N293 1.388 . S
Co295 O297 2.143 . S
Co295 O303 2.074 . S
Co295 O306 2.093 . S
Co295 O319 2.097 . S
Co295 N336 2.151 . S
Co295 N344 2.214 . S
Co296 O297 2.160 . S
Co296 O302 2.058 . S
Co296 O312 2.057 . S
Co296 O327 2.037 . S
Co296 N331 2.145 . S
Co296 N352 2.257 . S
O297 Co295 2.143 . S
O297 Co296 2.160 . S
C298 O299 1.278 . S
C298 O306 1.224 . S
O299 C298 1.278 . S
C300 O301 1.245 . S
C300 O312 1.232 . S
O301 C300 1.245 . S
O302 Co296 2.058 . S
O302 C328 1.269 . S
O303 Co295 2.074 . S
O303 C328 1.257 . S
H304 C329 0.930 . S
H305 C335 0.930 . S
O306 Co295 2.093 . S
O306 C298 1.224 . S
H307 C339 0.929 . S
H308 C341 0.930 . S
H309 C342 0.930 . S
H310 C340 0.929 . S
H311 C343 0.928 . S
O312 Co296 2.057 . S
O312 C300 1.232 . S
H313 C332 0.929 . S
H314 C333 0.929 . S
H315 C345 0.931 1_545 S
H316 C337 0.929 . S
H317 C346 0.930 1_545 S
H318 C338 0.931 . S
O319 Co295 2.097 . S
O319 C347 1.214 . S
H320 C348 0.929 . S
H321 C349 0.929 . S
H322 C350 0.930 . S
H323 C351 0.929 . S
H324 C353 0.930 . S
H325 C330 0.930 . S
H326 C334 0.930 . S
O327 Co296 2.037 . S
O327 C347 1.234 . S
C328 O302 1.269 . S
C328 O303 1.257 . S
C329 H304 0.930 . S
C329 C332 1.388 . S
C329 C334 1.418 . S
C330 H325 0.930 . S
C330 C333 1.404 . S
C330 C334 1.353 . S
N331 Co296 2.145 . S
N331 C332 1.397 . S
N331 C333 1.334 . S
C332 H313 0.929 . S
C332 C329 1.388 . S
C332 N331 1.397 . S
C333 H314 0.929 . S
C333 C330 1.404 . S
C333 N331 1.334 . S
C334 H326 0.930 . S
C334 C329 1.418 . S
C334 C330 1.353 . S
C335 H305 0.930 . S
C335 N336 1.330 . S
C335 C337 1.446 . S
N336 Co295 2.151 . S
N336 C335 1.330 . S
N336 C340 1.418 . S
C337 H316 0.929 . S
C337 C335 1.446 . S
C337 C338 1.332 . S
C338 H318 0.931 . S
C338 C337 1.332 . S
C338 C339 1.267 . S
C339 H307 0.929 . S
C339 C338 1.267 . S
C339 C340 1.251 . S
C340 H310 0.929 . S
C340 N336 1.418 . S
C340 C339 1.251 . S
C341 H308 0.930 . S
C341 C343 1.406 . S
C341 C346 1.261 . S
C342 H309 0.930 . S
C342 N344 1.325 . S
C342 C345 1.357 . S
C343 H311 0.928 . S
C343 C341 1.406 . S
C343 N344 1.261 . S
N344 Co295 2.214 . S
N344 C342 1.325 . S
N344 C343 1.261 . S
C345 H315 0.931 1_565 S
C345 C342 1.357 . S
C345 C346 1.312 . S
C346 H317 0.930 1_565 S
C346 C341 1.261 . S
C346 C345 1.312 . S
C347 O319 1.214 . S
C347 O327 1.234 . S
C348 H320 0.929 . S
C348 C351 1.391 . S
C348 C353 1.391 . S
C349 H321 0.929 . S
C349 C350 1.390 . S
C349 N352 1.391 . S
C350 H322 0.930 . S
C350 C349 1.390 . S
C350 C351 1.392 . S
C351 H323 0.929 . S
C351 C348 1.391 . S
C351 C350 1.392 . S
N352 Co296 2.257 . S
N352 C349 1.391 . S
N352 C353 1.388 . S
C353 H324 0.930 . S
C353 C348 1.391 . S
C353 N352 1.388 . S
Co354 O356 2.143 . S
Co354 O362 2.074 . S
Co354 O365 2.093 . S
Co354 O378 2.097 . S
Co354 N395 2.151 . S
Co354 N403 2.214 . S
Co355 O356 2.160 . S
Co355 O361 2.058 . S
Co355 O371 2.057 . S
Co355 O386 2.037 . S
Co355 N390 2.145 1_545 S
Co355 N411 2.257 1_545 S
O356 Co354 2.143 . S
O356 Co355 2.160 . S
C357 O358 1.278 . S
C357 O365 1.224 . S
O358 C357 1.278 . S
C359 O360 1.245 . S
C359 O371 1.232 . S
O360 C359 1.245 . S
O361 Co355 2.058 . S
O361 C387 1.269 . S
O362 Co354 2.074 . S
O362 C387 1.257 . S
H363 C388 0.930 . S
H364 C394 0.930 . S
O365 Co354 2.093 . S
O365 C357 1.224 . S
H366 C398 0.929 . S
H367 C400 0.930 . S
H368 C401 0.930 . S
H369 C399 0.929 . S
H370 C402 0.928 . S
O371 Co355 2.057 . S
O371 C359 1.232 . S
H372 C391 0.929 . S
H373 C392 0.929 . S
H374 C404 0.931 1_655 S
H375 C396 0.929 . S
H376 C405 0.930 1_655 S
H377 C397 0.931 . S
O378 Co354 2.097 . S
O378 C406 1.214 . S
H379 C407 0.929 . S
H380 C408 0.929 . S
H381 C409 0.930 . S
H382 C410 0.929 . S
H383 C412 0.930 1_545 S
H384 C389 0.930 . S
H385 C393 0.930 . S
O386 Co355 2.037 . S
O386 C406 1.234 . S
C387 O361 1.269 . S
C387 O362 1.257 . S
C388 H363 0.930 . S
C388 C391 1.388 . S
C388 C393 1.418 . S
C389 H384 0.930 . S
C389 C392 1.404 . S
C389 C393 1.353 . S
N390 Co355 2.145 1_565 S
N390 C391 1.397 . S
N390 C392 1.334 . S
C391 H372 0.929 . S
C391 C388 1.388 . S
C391 N390 1.397 . S
C392 H373 0.929 . S
C392 C389 1.404 . S
C392 N390 1.334 . S
C393 H385 0.930 . S
C393 C388 1.418 . S
C393 C389 1.353 . S
C394 H364 0.930 . S
C394 N395 1.330 . S
C394 C396 1.446 . S
N395 Co354 2.151 . S
N395 C394 1.330 . S
N395 C399 1.418 . S
C396 H375 0.929 . S
C396 C394 1.446 . S
C396 C397 1.332 . S
C397 H377 0.931 . S
C397 C396 1.332 . S
C397 C398 1.267 . S
C398 H366 0.929 . S
C398 C397 1.267 . S
C398 C399 1.251 . S
C399 H369 0.929 . S
C399 N395 1.418 . S
C399 C398 1.251 . S
C400 H367 0.930 . S
C400 C402 1.406 . S
C400 C405 1.261 . S
C401 H368 0.930 . S
C401 N403 1.325 . S
C401 C404 1.357 . S
C402 H370 0.928 . S
C402 C400 1.406 . S
C402 N403 1.261 . S
N403 Co354 2.214 . S
N403 C401 1.325 . S
N403 C402 1.261 . S
C404 H374 0.931 1_455 S
C404 C401 1.357 . S
C404 C405 1.312 . S
C405 H376 0.930 1_455 S
C405 C400 1.261 . S
C405 C404 1.312 . S
C406 O378 1.214 . S
C406 O386 1.234 . S
C407 H379 0.929 . S
C407 C410 1.391 . S
C407 C412 1.391 . S
C408 H380 0.929 . S
C408 C409 1.390 . S
C408 N411 1.391 . S
C409 H381 0.930 . S
C409 C408 1.390 . S
C409 C410 1.392 . S
C410 H382 0.929 . S
C410 C407 1.391 . S
C410 C409 1.392 . S
N411 Co355 2.257 1_565 S
N411 C408 1.391 . S
N411 C412 1.388 . S
C412 H383 0.930 1_565 S
C412 C407 1.391 . S
C412 N411 1.388 . S
Co413 O415 2.143 . S
Co413 O421 2.074 . S
Co413 O424 2.093 . S
Co413 O437 2.097 . S
Co413 N454 2.151 . S
Co413 N462 2.214 . S
Co414 O415 2.160 . S
Co414 O420 2.058 . S
Co414 O430 2.057 . S
Co414 O445 2.037 . S
Co414 N449 2.145 1_655 S
Co414 N470 2.257 1_655 S
O415 Co413 2.143 . S
O415 Co414 2.160 . S
C416 O417 1.278 . S
C416 O424 1.224 . S
O417 C416 1.278 . S
C418 O419 1.245 . S
C418 O430 1.232 . S
O419 C418 1.245 . S
O420 Co414 2.058 . S
O420 C446 1.269 . S
O421 Co413 2.074 . S
O421 C446 1.257 . S
H422 C447 0.930 . S
H423 C453 0.930 . S
O424 Co413 2.093 . S
O424 C416 1.224 . S
H425 C457 0.929 . S
H426 C459 0.930 . S
H427 C460 0.930 . S
H428 C458 0.929 . S
H429 C461 0.928 . S
O430 Co414 2.057 . S
O430 C418 1.232 . S
H431 C450 0.929 . S
H432 C451 0.929 . S
H433 C463 0.931 . S
H434 C455 0.929 . S
H435 C464 0.930 . S
H436 C456 0.931 . S
O437 Co413 2.097 . S
O437 C465 1.214 . S
H438 C466 0.929 . S
H439 C467 0.929 . S
H440 C468 0.930 . S
H441 C469 0.929 . S
H442 C471 0.930 1_655 S
H443 C448 0.930 . S
H444 C452 0.930 . S
O445 Co414 2.037 . S
O445 C465 1.234 . S
C446 O420 1.269 . S
C446 O421 1.257 . S
C447 H422 0.930 . S
C447 C450 1.388 . S
C447 C452 1.418 . S
C448 H443 0.930 . S
C448 C451 1.404 . S
C448 C452 1.353 . S
N449 Co414 2.145 1_455 S
N449 C450 1.397 . S
N449 C451 1.334 . S
C450 H431 0.929 . S
C450 C447 1.388 . S
C450 N449 1.397 . S
C451 H432 0.929 . S
C451 C448 1.404 . S
C451 N449 1.334 . S
C452 H444 0.930 . S
C452 C447 1.418 . S
C452 C448 1.353 . S
C453 H423 0.930 . S
C453 N454 1.330 . S
C453 C455 1.446 . S
N454 Co413 2.151 . S
N454 C453 1.330 . S
N454 C458 1.418 . S
C455 H434 0.929 . S
C455 C453 1.446 . S
C455 C456 1.332 . S
C456 H436 0.931 . S
C456 C455 1.332 . S
C456 C457 1.267 . S
C457 H425 0.929 . S
C457 C456 1.267 . S
C457 C458 1.251 . S
C458 H428 0.929 . S
C458 N454 1.418 . S
C458 C457 1.251 . S
C459 H426 0.930 . S
C459 C461 1.406 . S
C459 C464 1.261 . S
C460 H427 0.930 . S
C460 N462 1.325 . S
C460 C463 1.357 . S
C461 H429 0.928 . S
C461 C459 1.406 . S
C461 N462 1.261 . S
N462 Co413 2.214 . S
N462 C460 1.325 . S
N462 C461 1.261 . S
C463 H433 0.931 . S
C463 C460 1.357 . S
C463 C464 1.312 . S
C464 H435 0.930 . S
C464 C459 1.261 . S
C464 C463 1.312 . S
C465 O437 1.214 . S
C465 O445 1.234 . S
C466 H438 0.929 . S
C466 C469 1.391 . S
C466 C471 1.391 . S
C467 H439 0.929 . S
C467 C468 1.390 . S
C467 N470 1.391 . S
C468 H440 0.930 . S
C468 C467 1.390 . S
C468 C469 1.392 . S
C469 H441 0.929 . S
C469 C466 1.391 . S
C469 C468 1.392 . S
N470 Co414 2.257 1_455 S
N470 C467 1.391 . S
N470 C471 1.388 . S
C471 H442 0.930 1_455 S
C471 C466 1.391 . S
C471 N470 1.388 . S
Co472 O474 2.143 . S
Co472 O480 2.074 . S
Co472 O483 2.093 . S
Co472 O496 2.097 . S
Co472 N513 2.151 . S
Co472 N521 2.214 . S
Co473 O474 2.160 . S
Co473 O479 2.058 . S
Co473 O489 2.057 . S
Co473 O504 2.037 . S
Co473 N508 2.145 . S
Co473 N529 2.257 . S
O474 Co472 2.143 . S
O474 Co473 2.160 . S
C475 O476 1.278 . S
C475 O483 1.224 . S
O476 C475 1.278 . S
C477 O478 1.245 . S
C477 O489 1.232 . S
O478 C477 1.245 . S
O479 Co473 2.058 . S
O479 C505 1.269 . S
O480 Co472 2.074 . S
O480 C505 1.257 . S
H481 C506 0.930 . S
H482 C512 0.930 . S
O483 Co472 2.093 . S
O483 C475 1.224 . S
H484 C516 0.929 . S
H485 C518 0.930 . S
H486 C519 0.930 . S
H487 C517 0.929 . S
H488 C520 0.928 . S
O489 Co473 2.057 . S
O489 C477 1.232 . S
H490 C509 0.929 . S
H491 C510 0.929 . S
H492 C522 0.931 1_455 S
H493 C514 0.929 . S
H494 C523 0.930 1_455 S
H495 C515 0.931 . S
O496 Co472 2.097 . S
O496 C524 1.214 . S
H497 C525 0.929 . S
H498 C526 0.929 . S
H499 C527 0.930 . S
H500 C528 0.929 . S
H501 C530 0.930 . S
H502 C507 0.930 . S
H503 C511 0.930 . S
O504 Co473 2.037 . S
O504 C524 1.234 . S
C505 O479 1.269 . S
C505 O480 1.257 . S
C506 H481 0.930 . S
C506 C509 1.388 . S
C506 C511 1.418 . S
C507 H502 0.930 . S
C507 C510 1.404 . S
C507 C511 1.353 . S
N508 Co473 2.145 . S
N508 C509 1.397 . S
N508 C510 1.334 . S
C509 H490 0.929 . S
C509 C506 1.388 . S
C509 N508 1.397 . S
C510 H491 0.929 . S
C510 C507 1.404 . S
C510 N508 1.334 . S
C511 H503 0.930 . S
C511 C506 1.418 . S
C511 C507 1.353 . S
C512 H482 0.930 . S
C512 N513 1.330 . S
C512 C514 1.446 . S
N513 Co472 2.151 . S
N513 C512 1.330 . S
N513 C517 1.418 . S
C514 H493 0.929 . S
C514 C512 1.446 . S
C514 C515 1.332 . S
C515 H495 0.931 . S
C515 C514 1.332 . S
C515 C516 1.267 . S
C516 H484 0.929 . S
C516 C515 1.267 . S
C516 C517 1.251 . S
C517 H487 0.929 . S
C517 N513 1.418 . S
C517 C516 1.251 . S
C518 H485 0.930 . S
C518 C520 1.406 . S
C518 C523 1.261 . S
C519 H486 0.930 . S
C519 N521 1.325 . S
C519 C522 1.357 . S
C520 H488 0.928 . S
C520 C518 1.406 . S
C520 N521 1.261 . S
N521 Co472 2.214 . S
N521 C519 1.325 . S
N521 C520 1.261 . S
C522 H492 0.931 1_655 S
C522 C519 1.357 . S
C522 C523 1.312 . S
C523 H494 0.930 1_655 S
C523 C518 1.261 . S
C523 C522 1.312 . S
C524 O496 1.214 . S
C524 O504 1.234 . S
C525 H497 0.929 . S
C525 C528 1.391 . S
C525 C530 1.391 . S
C526 H498 0.929 . S
C526 C527 1.390 . S
C526 N529 1.391 . S
C527 H499 0.930 . S
C527 C526 1.390 . S
C527 C528 1.392 . S
C528 H500 0.929 . S
C528 C525 1.391 . S
C528 C527 1.392 . S
N529 Co473 2.257 . S
N529 C526 1.391 . S
N529 C530 1.388 . S
C530 H501 0.930 . S
C530 C525 1.391 . S
C530 N529 1.388 . S
Co531 O533 2.143 . S
Co531 O539 2.074 . S
Co531 O542 2.093 . S
Co531 O555 2.097 . S
Co531 N572 2.151 . S
Co531 N580 2.214 . S
Co532 O533 2.160 . S
Co532 O538 2.058 . S
Co532 O548 2.057 . S
Co532 O563 2.037 . S
Co532 N567 2.145 . S
Co532 N588 2.257 . S
O533 Co531 2.143 . S
O533 Co532 2.160 . S
C534 O535 1.278 . S
C534 O542 1.224 . S
O535 C534 1.278 . S
C536 O537 1.245 . S
C536 O548 1.232 . S
O537 C536 1.245 . S
O538 Co532 2.058 . S
O538 C564 1.269 . S
O539 Co531 2.074 . S
O539 C564 1.257 . S
H540 C565 0.930 . S
H541 C571 0.930 . S
O542 Co531 2.093 . S
O542 C534 1.224 . S
H543 C575 0.929 . S
H544 C577 0.930 . S
H545 C578 0.930 . S
H546 C576 0.929 . S
H547 C579 0.928 . S
O548 Co532 2.057 . S
O548 C536 1.232 . S
H549 C568 0.929 . S
H550 C569 0.929 . S
H551 C581 0.931 . S
H552 C573 0.929 . S
H553 C582 0.930 . S
H554 C574 0.931 . S
O555 Co531 2.097 . S
O555 C583 1.214 . S
H556 C584 0.929 . S
H557 C585 0.929 . S
H558 C586 0.930 . S
H559 C587 0.929 . S
H560 C589 0.930 . S
H561 C566 0.930 . S
H562 C570 0.930 . S
O563 Co532 2.037 . S
O563 C583 1.234 . S
C564 O538 1.269 . S
C564 O539 1.257 . S
C565 H540 0.930 . S
C565 C568 1.388 . S
C565 C570 1.418 . S
C566 H561 0.930 . S
C566 C569 1.404 . S
C566 C570 1.353 . S
N567 Co532 2.145 . S
N567 C568 1.397 . S
N567 C569 1.334 . S
C568 H549 0.929 . S
C568 C565 1.388 . S
C568 N567 1.397 . S
C569 H550 0.929 . S
C569 C566 1.404 . S
C569 N567 1.334 . S
C570 H562 0.930 . S
C570 C565 1.418 . S
C570 C566 1.353 . S
C571 H541 0.930 . S
C571 N572 1.330 . S
C571 C573 1.446 . S
N572 Co531 2.151 . S
N572 C571 1.330 . S
N572 C576 1.418 . S
C573 H552 0.929 . S
C573 C571 1.446 . S
C573 C574 1.332 . S
C574 H554 0.931 . S
C574 C573 1.332 . S
C574 C575 1.267 . S
C575 H543 0.929 . S
C575 C574 1.267 . S
C575 C576 1.251 . S
C576 H546 0.929 . S
C576 N572 1.418 . S
C576 C575 1.251 . S
C577 H544 0.930 . S
C577 C579 1.406 . S
C577 C582 1.261 . S
C578 H545 0.930 . S
C578 N580 1.325 . S
C578 C581 1.357 . S
C579 H547 0.928 . S
C579 C577 1.406 . S
C579 N580 1.261 . S
N580 Co531 2.214 . S
N580 C578 1.325 . S
N580 C579 1.261 . S
C581 H551 0.931 . S
C581 C578 1.357 . S
C581 C582 1.312 . S
C582 H553 0.930 . S
C582 C577 1.261 . S
C582 C581 1.312 . S
C583 O555 1.214 . S
C583 O563 1.234 . S
C584 H556 0.929 . S
C584 C587 1.391 . S
C584 C589 1.391 . S
C585 H557 0.929 . S
C585 C586 1.390 . S
C585 N588 1.391 . S
C586 H558 0.930 . S
C586 C585 1.390 . S
C586 C587 1.392 . S
C587 H559 0.929 . S
C587 C584 1.391 . S
C587 C586 1.392 . S
N588 Co532 2.257 . S
N588 C585 1.391 . S
N588 C589 1.388 . S
C589 H560 0.930 . S
C589 C584 1.391 . S
C589 N588 1.388 . S
Co590 O592 2.143 . S
Co590 O598 2.074 . S
Co590 O601 2.093 . S
Co590 O614 2.097 . S
Co590 N631 2.151 . S
Co590 N639 2.214 . S
Co591 O592 2.160 . S
Co591 O597 2.058 . S
Co591 O607 2.057 . S
Co591 O622 2.037 . S
Co591 N626 2.145 1_565 S
Co591 N647 2.257 1_565 S
O592 Co590 2.143 . S
O592 Co591 2.160 . S
C593 O594 1.278 . S
C593 O601 1.224 . S
O594 C593 1.278 . S
C595 O596 1.245 . S
C595 O607 1.232 . S
O596 C595 1.245 . S
O597 Co591 2.058 . S
O597 C623 1.269 . S
O598 Co590 2.074 . S
O598 C623 1.257 . S
H599 C624 0.930 . S
H600 C630 0.930 . S
O601 Co590 2.093 . S
O601 C593 1.224 . S
H602 C634 0.929 . S
H603 C636 0.930 . S
H604 C637 0.930 . S
H605 C635 0.929 . S
H606 C638 0.928 . S
O607 Co591 2.057 . S
O607 C595 1.232 . S
H608 C627 0.929 . S
H609 C628 0.929 . S
H610 C640 0.931 . S
H611 C632 0.929 . S
H612 C641 0.930 . S
H613 C633 0.931 . S
O614 Co590 2.097 . S
O614 C642 1.214 . S
H615 C643 0.929 . S
H616 C644 0.929 . S
H617 C645 0.930 . S
H618 C646 0.929 . S
H619 C648 0.930 1_565 S
H620 C625 0.930 . S
H621 C629 0.930 . S
O622 Co591 2.037 . S
O622 C642 1.234 . S
C623 O597 1.269 . S
C623 O598 1.257 . S
C624 H599 0.930 . S
C624 C627 1.388 . S
C624 C629 1.418 . S
C625 H620 0.930 . S
C625 C628 1.404 . S
C625 C629 1.353 . S
N626 Co591 2.145 1_545 S
N626 C627 1.397 . S
N626 C628 1.334 . S
C627 H608 0.929 . S
C627 C624 1.388 . S
C627 N626 1.397 . S
C628 H609 0.929 . S
C628 C625 1.404 . S
C628 N626 1.334 . S
C629 H621 0.930 . S
C629 C624 1.418 . S
C629 C625 1.353 . S
C630 H600 0.930 . S
C630 N631 1.330 . S
C630 C632 1.446 . S
N631 Co590 2.151 . S
N631 C630 1.330 . S
N631 C635 1.418 . S
C632 H611 0.929 . S
C632 C630 1.446 . S
C632 C633 1.332 . S
C633 H613 0.931 . S
C633 C632 1.332 . S
C633 C634 1.267 . S
C634 H602 0.929 . S
C634 C633 1.267 . S
C634 C635 1.251 . S
C635 H605 0.929 . S
C635 N631 1.418 . S
C635 C634 1.251 . S
C636 H603 0.930 . S
C636 C638 1.406 . S
C636 C641 1.261 . S
C637 H604 0.930 . S
C637 N639 1.325 . S
C637 C640 1.357 . S
C638 H606 0.928 . S
C638 C636 1.406 . S
C638 N639 1.261 . S
N639 Co590 2.214 . S
N639 C637 1.325 . S
N639 C638 1.261 . S
C640 H610 0.931 . S
C640 C637 1.357 . S
C640 C641 1.312 . S
C641 H612 0.930 . S
C641 C636 1.261 . S
C641 C640 1.312 . S
C642 O614 1.214 . S
C642 O622 1.234 . S
C643 H615 0.929 . S
C643 C646 1.391 . S
C643 C648 1.391 . S
C644 H616 0.929 . S
C644 C645 1.390 . S
C644 N647 1.391 . S
C645 H617 0.930 . S
C645 C644 1.390 . S
C645 C646 1.392 . S
C646 H618 0.929 . S
C646 C643 1.391 . S
C646 C645 1.392 . S
N647 Co591 2.257 1_545 S
N647 C644 1.391 . S
N647 C648 1.388 . S
C648 H619 0.930 1_545 S
C648 C643 1.391 . S
C648 N647 1.388 . S
Co649 O651 2.143 . S
Co649 O657 2.074 . S
Co649 O660 2.093 . S
Co649 O673 2.097 . S
Co649 N690 2.151 . S
Co649 N698 2.214 . S
Co650 O651 2.160 . S
Co650 O656 2.058 . S
Co650 O666 2.057 . S
Co650 O681 2.037 . S
Co650 N685 2.145 1_455 S
Co650 N706 2.257 1_455 S
O651 Co649 2.143 . S
O651 Co650 2.160 . S
C652 O653 1.278 . S
C652 O660 1.224 . S
O653 C652 1.278 . S
C654 O655 1.245 . S
C654 O666 1.232 . S
O655 C654 1.245 . S
O656 Co650 2.058 . S
O656 C682 1.269 . S
O657 Co649 2.074 . S
O657 C682 1.257 . S
H658 C683 0.930 . S
H659 C689 0.930 . S
O660 Co649 2.093 . S
O660 C652 1.224 . S
H661 C693 0.929 . S
H662 C695 0.930 . S
H663 C696 0.930 . S
H664 C694 0.929 . S
H665 C697 0.928 . S
O666 Co650 2.057 . S
O666 C654 1.232 . S
H667 C686 0.929 . S
H668 C687 0.929 . S
H669 C699 0.931 1_565 S
H670 C691 0.929 . S
H671 C700 0.930 1_565 S
H672 C692 0.931 . S
O673 Co649 2.097 . S
O673 C701 1.214 . S
H674 C702 0.929 . S
H675 C703 0.929 . S
H676 C704 0.930 . S
H677 C705 0.929 . S
H678 C707 0.930 1_455 S
H679 C684 0.930 . S
H680 C688 0.930 . S
O681 Co650 2.037 . S
O681 C701 1.234 . S
C682 O656 1.269 . S
C682 O657 1.257 . S
C683 H658 0.930 . S
C683 C686 1.388 . S
C683 C688 1.418 . S
C684 H679 0.930 . S
C684 C687 1.404 . S
C684 C688 1.353 . S
N685 Co650 2.145 1_655 S
N685 C686 1.397 . S
N685 C687 1.334 . S
C686 H667 0.929 . S
C686 C683 1.388 . S
C686 N685 1.397 . S
C687 H668 0.929 . S
C687 C684 1.404 . S
C687 N685 1.334 . S
C688 H680 0.930 . S
C688 C683 1.418 . S
C688 C684 1.353 . S
C689 H659 0.930 . S
C689 N690 1.330 . S
C689 C691 1.446 . S
N690 Co649 2.151 . S
N690 C689 1.330 . S
N690 C694 1.418 . S
C691 H670 0.929 . S
C691 C689 1.446 . S
C691 C692 1.332 . S
C692 H672 0.931 . S
C692 C691 1.332 . S
C692 C693 1.267 . S
C693 H661 0.929 . S
C693 C692 1.267 . S
C693 C694 1.251 . S
C694 H664 0.929 . S
C694 N690 1.418 . S
C694 C693 1.251 . S
C695 H662 0.930 . S
C695 C697 1.406 . S
C695 C700 1.261 . S
C696 H663 0.930 . S
C696 N698 1.325 . S
C696 C699 1.357 . S
C697 H665 0.928 . S
C697 C695 1.406 . S
C697 N698 1.261 . S
N698 Co649 2.214 . S
N698 C696 1.325 . S
N698 C697 1.261 . S
C699 H669 0.931 1_545 S
C699 C696 1.357 . S
C699 C700 1.312 . S
C700 H671 0.930 1_545 S
C700 C695 1.261 . S
C700 C699 1.312 . S
C701 O673 1.214 . S
C701 O681 1.234 . S
C702 H674 0.929 . S
C702 C705 1.391 . S
C702 C707 1.391 . S
C703 H675 0.929 . S
C703 C704 1.390 . S
C703 N706 1.391 . S
C704 H676 0.930 . S
C704 C703 1.390 . S
C704 C705 1.392 . S
C705 H677 0.929 . S
C705 C702 1.391 . S
C705 C704 1.392 . S
N706 Co650 2.257 1_655 S
N706 C703 1.391 . S
N706 C707 1.388 . S
C707 H678 0.930 1_655 S
C707 C702 1.391 . S
C707 N706 1.388 . S
Co708 O710 2.143 . S
Co708 O716 2.074 . S
Co708 O719 2.093 . S
Co708 O732 2.097 . S
Co708 N749 2.151 . S
Co708 N757 2.214 . S
Co709 O710 2.160 . S
Co709 O715 2.058 . S
Co709 O725 2.057 . S
Co709 O740 2.037 . S
Co709 N744 2.145 1_565 S
Co709 N765 2.257 1_565 S
O710 Co708 2.143 . S
O710 Co709 2.160 . S
C711 O712 1.278 . S
C711 O719 1.224 . S
O712 C711 1.278 . S
C713 O714 1.245 . S
C713 O725 1.232 . S
O714 C713 1.245 . S
O715 Co709 2.058 . S
O715 C741 1.269 . S
O716 Co708 2.074 . S
O716 C741 1.257 . S
H717 C742 0.930 . S
H718 C748 0.930 . S
O719 Co708 2.093 . S
O719 C711 1.224 . S
H720 C752 0.929 . S
H721 C754 0.930 . S
H722 C755 0.930 . S
H723 C753 0.929 . S
H724 C756 0.928 . S
O725 Co709 2.057 . S
O725 C713 1.232 . S
H726 C745 0.929 . S
H727 C746 0.929 . S
H728 C758 0.931 1_455 S
H729 C750 0.929 . S
H730 C759 0.930 1_455 S
H731 C751 0.931 . S
O732 Co708 2.097 . S
O732 C760 1.214 . S
H733 C761 0.929 . S
H734 C762 0.929 . S
H735 C763 0.930 . S
H736 C764 0.929 . S
H737 C766 0.930 1_565 S
H738 C743 0.930 . S
H739 C747 0.930 . S
O740 Co709 2.037 . S
O740 C760 1.234 . S
C741 O715 1.269 . S
C741 O716 1.257 . S
C742 H717 0.930 . S
C742 C745 1.388 . S
C742 C747 1.418 . S
C743 H738 0.930 . S
C743 C746 1.404 . S
C743 C747 1.353 . S
N744 Co709 2.145 1_545 S
N744 C745 1.397 . S
N744 C746 1.334 . S
C745 H726 0.929 . S
C745 C742 1.388 . S
C745 N744 1.397 . S
C746 H727 0.929 . S
C746 C743 1.404 . S
C746 N744 1.334 . S
C747 H739 0.930 . S
C747 C742 1.418 . S
C747 C743 1.353 . S
C748 H718 0.930 . S
C748 N749 1.330 . S
C748 C750 1.446 . S
N749 Co708 2.151 . S
N749 C748 1.330 . S
N749 C753 1.418 . S
C750 H729 0.929 . S
C750 C748 1.446 . S
C750 C751 1.332 . S
C751 H731 0.931 . S
C751 C750 1.332 . S
C751 C752 1.267 . S
C752 H720 0.929 . S
C752 C751 1.267 . S
C752 C753 1.251 . S
C753 H723 0.929 . S
C753 N749 1.418 . S
C753 C752 1.251 . S
C754 H721 0.930 . S
C754 C756 1.406 . S
C754 C759 1.261 . S
C755 H722 0.930 . S
C755 N757 1.325 . S
C755 C758 1.357 . S
C756 H724 0.928 . S
C756 C754 1.406 . S
C756 N757 1.261 . S
N757 Co708 2.214 . S
N757 C755 1.325 . S
N757 C756 1.261 . S
C758 H728 0.931 1_655 S
C758 C755 1.357 . S
C758 C759 1.312 . S
C759 H730 0.930 1_655 S
C759 C754 1.261 . S
C759 C758 1.312 . S
C760 O732 1.214 . S
C760 O740 1.234 . S
C761 H733 0.929 . S
C761 C764 1.391 . S
C761 C766 1.391 . S
C762 H734 0.929 . S
C762 C763 1.390 . S
C762 N765 1.391 . S
C763 H735 0.930 . S
C763 C762 1.390 . S
C763 C764 1.392 . S
C764 H736 0.929 . S
C764 C761 1.391 . S
C764 C763 1.392 . S
N765 Co709 2.257 1_545 S
N765 C762 1.391 . S
N765 C766 1.388 . S
C766 H737 0.930 1_545 S
C766 C761 1.391 . S
C766 N765 1.388 . S
Co767 O769 2.143 . S
Co767 O775 2.074 . S
Co767 O778 2.093 . S
Co767 O791 2.097 . S
Co767 N808 2.151 . S
Co767 N816 2.214 . S
Co768 O769 2.160 . S
Co768 O774 2.058 . S
Co768 O784 2.057 . S
Co768 O799 2.037 . S
Co768 N803 2.145 1_455 S
Co768 N824 2.257 1_455 S
O769 Co767 2.143 . S
O769 Co768 2.160 . S
C770 O771 1.278 . S
C770 O778 1.224 . S
O771 C770 1.278 . S
C772 O773 1.245 . S
C772 O784 1.232 . S
O773 C772 1.245 . S
O774 Co768 2.058 . S
O774 C800 1.269 . S
O775 Co767 2.074 . S
O775 C800 1.257 . S
H776 C801 0.930 . S
H777 C807 0.930 . S
O778 Co767 2.093 . S
O778 C770 1.224 . S
H779 C811 0.929 . S
H780 C813 0.930 . S
H781 C814 0.930 . S
H782 C812 0.929 . S
H783 C815 0.928 . S
O784 Co768 2.057 . S
O784 C772 1.232 . S
H785 C804 0.929 . S
H786 C805 0.929 . S
H787 C817 0.931 . S
H788 C809 0.929 . S
H789 C818 0.930 . S
H790 C810 0.931 . S
O791 Co767 2.097 . S
O791 C819 1.214 . S
H792 C820 0.929 . S
H793 C821 0.929 . S
H794 C822 0.930 . S
H795 C823 0.929 . S
H796 C825 0.930 1_455 S
H797 C802 0.930 . S
H798 C806 0.930 . S
O799 Co768 2.037 . S
O799 C819 1.234 . S
C800 O774 1.269 . S
C800 O775 1.257 . S
C801 H776 0.930 . S
C801 C804 1.388 . S
C801 C806 1.418 . S
C802 H797 0.930 . S
C802 C805 1.404 . S
C802 C806 1.353 . S
N803 Co768 2.145 1_655 S
N803 C804 1.397 . S
N803 C805 1.334 . S
C804 H785 0.929 . S
C804 C801 1.388 . S
C804 N803 1.397 . S
C805 H786 0.929 . S
C805 C802 1.404 . S
C805 N803 1.334 . S
C806 H798 0.930 . S
C806 C801 1.418 . S
C806 C802 1.353 . S
C807 H777 0.930 . S
C807 N808 1.330 . S
C807 C809 1.446 . S
N808 Co767 2.151 . S
N808 C807 1.330 . S
N808 C812 1.418 . S
C809 H788 0.929 . S
C809 C807 1.446 . S
C809 C810 1.332 . S
C810 H790 0.931 . S
C810 C809 1.332 . S
C810 C811 1.267 . S
C811 H779 0.929 . S
C811 C810 1.267 . S
C811 C812 1.251 . S
C812 H782 0.929 . S
C812 N808 1.418 . S
C812 C811 1.251 . S
C813 H780 0.930 . S
C813 C815 1.406 . S
C813 C818 1.261 . S
C814 H781 0.930 . S
C814 N816 1.325 . S
C814 C817 1.357 . S
C815 H783 0.928 . S
C815 C813 1.406 . S
C815 N816 1.261 . S
N816 Co767 2.214 . S
N816 C814 1.325 . S
N816 C815 1.261 . S
C817 H787 0.931 . S
C817 C814 1.357 . S
C817 C818 1.312 . S
C818 H789 0.930 . S
C818 C813 1.261 . S
C818 C817 1.312 . S
C819 O791 1.214 . S
C819 O799 1.234 . S
C820 H792 0.929 . S
C820 C823 1.391 . S
C820 C825 1.391 . S
C821 H793 0.929 . S
C821 C822 1.390 . S
C821 N824 1.391 . S
C822 H794 0.930 . S
C822 C821 1.390 . S
C822 C823 1.392 . S
C823 H795 0.929 . S
C823 C820 1.391 . S
C823 C822 1.392 . S
N824 Co768 2.257 1_655 S
N824 C821 1.391 . S
N824 C825 1.388 . S
C825 H796 0.930 1_655 S
C825 C820 1.391 . S
C825 N824 1.388 . S
Co826 O828 2.143 . S
Co826 O834 2.074 . S
Co826 O837 2.093 . S
Co826 O850 2.097 . S
Co826 N867 2.151 . S
Co826 N875 2.214 . S
Co827 O828 2.160 . S
Co827 O833 2.058 . S
Co827 O843 2.057 . S
Co827 O858 2.037 . S
Co827 N862 2.145 . S
Co827 N883 2.257 . S
O828 Co826 2.143 . S
O828 Co827 2.160 . S
C829 O830 1.278 . S
C829 O837 1.224 . S
O830 C829 1.278 . S
C831 O832 1.245 . S
C831 O843 1.232 . S
O832 C831 1.245 . S
O833 Co827 2.058 . S
O833 C859 1.269 . S
O834 Co826 2.074 . S
O834 C859 1.257 . S
H835 C860 0.930 . S
H836 C866 0.930 . S
O837 Co826 2.093 . S
O837 C829 1.224 . S
H838 C870 0.929 . S
H839 C872 0.930 . S
H840 C873 0.930 . S
H841 C871 0.929 . S
H842 C874 0.928 . S
O843 Co827 2.057 . S
O843 C831 1.232 . S
H844 C863 0.929 . S
H845 C864 0.929 . S
H846 C876 0.931 . S
H847 C868 0.929 . S
H848 C877 0.930 . S
H849 C869 0.931 . S
O850 Co826 2.097 . S
O850 C878 1.214 . S
H851 C879 0.929 . S
H852 C880 0.929 . S
H853 C881 0.930 . S
H854 C882 0.929 . S
H855 C884 0.930 . S
H856 C861 0.930 . S
H857 C865 0.930 . S
O858 Co827 2.037 . S
O858 C878 1.234 . S
C859 O833 1.269 . S
C859 O834 1.257 . S
C860 H835 0.930 . S
C860 C863 1.388 . S
C860 C865 1.418 . S
C861 H856 0.930 . S
C861 C864 1.404 . S
C861 C865 1.353 . S
N862 Co827 2.145 . S
N862 C863 1.397 . S
N862 C864 1.334 . S
C863 H844 0.929 . S
C863 C860 1.388 . S
C863 N862 1.397 . S
C864 H845 0.929 . S
C864 C861 1.404 . S
C864 N862 1.334 . S
C865 H857 0.930 . S
C865 C860 1.418 . S
C865 C861 1.353 . S
C866 H836 0.930 . S
C866 N867 1.330 . S
C866 C868 1.446 . S
N867 Co826 2.151 . S
N867 C866 1.330 . S
N867 C871 1.418 . S
C868 H847 0.929 . S
C868 C866 1.446 . S
C868 C869 1.332 . S
C869 H849 0.931 . S
C869 C868 1.332 . S
C869 C870 1.267 . S
C870 H838 0.929 . S
C870 C869 1.267 . S
C870 C871 1.251 . S
C871 H841 0.929 . S
C871 N867 1.418 . S
C871 C870 1.251 . S
C872 H839 0.930 . S
C872 C874 1.406 . S
C872 C877 1.261 . S
C873 H840 0.930 . S
C873 N875 1.325 . S
C873 C876 1.357 . S
C874 H842 0.928 . S
C874 C872 1.406 . S
C874 N875 1.261 . S
N875 Co826 2.214 . S
N875 C873 1.325 . S
N875 C874 1.261 . S
C876 H846 0.931 . S
C876 C873 1.357 . S
C876 C877 1.312 . S
C877 H848 0.930 . S
C877 C872 1.261 . S
C877 C876 1.312 . S
C878 O850 1.214 . S
C878 O858 1.234 . S
C879 H851 0.929 . S
C879 C882 1.391 . S
C879 C884 1.391 . S
C880 H852 0.929 . S
C880 C881 1.390 . S
C880 N883 1.391 . S
C881 H853 0.930 . S
C881 C880 1.390 . S
C881 C882 1.392 . S
C882 H854 0.929 . S
C882 C879 1.391 . S
C882 C881 1.392 . S
N883 Co827 2.257 . S
N883 C880 1.391 . S
N883 C884 1.388 . S
C884 H855 0.930 . S
C884 C879 1.391 . S
C884 N883 1.388 . S
Co885 O887 2.143 . S
Co885 O893 2.074 . S
Co885 O896 2.093 . S
Co885 O909 2.097 . S
Co885 N926 2.151 . S
Co885 N934 2.214 . S
Co886 O887 2.160 . S
Co886 O892 2.058 . S
Co886 O902 2.057 . S
Co886 O917 2.037 . S
Co886 N921 2.145 . S
Co886 N942 2.257 . S
O887 Co885 2.143 . S
O887 Co886 2.160 . S
C888 O889 1.278 . S
C888 O896 1.224 . S
O889 C888 1.278 . S
C890 O891 1.245 . S
C890 O902 1.232 . S
O891 C890 1.245 . S
O892 Co886 2.058 . S
O892 C918 1.269 . S
O893 Co885 2.074 . S
O893 C918 1.257 . S
H894 C919 0.930 . S
H895 C925 0.930 . S
O896 Co885 2.093 . S
O896 C888 1.224 . S
H897 C929 0.929 . S
H898 C931 0.930 . S
H899 C932 0.930 . S
H900 C930 0.929 . S
H901 C933 0.928 . S
O902 Co886 2.057 . S
O902 C890 1.232 . S
H903 C922 0.929 . S
H904 C923 0.929 . S
H905 C935 0.931 1_565 S
H906 C927 0.929 . S
H907 C936 0.930 1_565 S
H908 C928 0.931 . S
O909 Co885 2.097 . S
O909 C937 1.214 . S
H910 C938 0.929 . S
H911 C939 0.929 . S
H912 C940 0.930 . S
H913 C941 0.929 . S
H914 C943 0.930 . S
H915 C920 0.930 . S
H916 C924 0.930 . S
O917 Co886 2.037 . S
O917 C937 1.234 . S
C918 O892 1.269 . S
C918 O893 1.257 . S
C919 H894 0.930 . S
C919 C922 1.388 . S
C919 C924 1.418 . S
C920 H915 0.930 . S
C920 C923 1.404 . S
C920 C924 1.353 . S
N921 Co886 2.145 . S
N921 C922 1.397 . S
N921 C923 1.334 . S
C922 H903 0.929 . S
C922 C919 1.388 . S
C922 N921 1.397 . S
C923 H904 0.929 . S
C923 C920 1.404 . S
C923 N921 1.334 . S
C924 H916 0.930 . S
C924 C919 1.418 . S
C924 C920 1.353 . S
C925 H895 0.930 . S
C925 N926 1.330 . S
C925 C927 1.446 . S
N926 Co885 2.151 . S
N926 C925 1.330 . S
N926 C930 1.418 . S
C927 H906 0.929 . S
C927 C925 1.446 . S
C927 C928 1.332 . S
C928 H908 0.931 . S
C928 C927 1.332 . S
C928 C929 1.267 . S
C929 H897 0.929 . S
C929 C928 1.267 . S
C929 C930 1.251 . S
C930 H900 0.929 . S
C930 N926 1.418 . S
C930 C929 1.251 . S
C931 H898 0.930 . S
C931 C933 1.406 . S
C931 C936 1.261 . S
C932 H899 0.930 . S
C932 N934 1.325 . S
C932 C935 1.357 . S
C933 H901 0.928 . S
C933 C931 1.406 . S
C933 N934 1.261 . S
N934 Co885 2.214 . S
N934 C932 1.325 . S
N934 C933 1.261 . S
C935 H905 0.931 1_545 S
C935 C932 1.357 . S
C935 C936 1.312 . S
C936 H907 0.930 1_545 S
C936 C931 1.261 . S
C936 C935 1.312 . S
C937 O909 1.214 . S
C937 O917 1.234 . S
C938 H910 0.929 . S
C938 C941 1.391 . S
C938 C943 1.391 . S
C939 H911 0.929 . S
C939 C940 1.390 . S
C939 N942 1.391 . S
C940 H912 0.930 . S
C940 C939 1.390 . S
C940 C941 1.392 . S
C941 H913 0.929 . S
C941 C938 1.391 . S
C941 C940 1.392 . S
N942 Co886 2.257 . S
N942 C939 1.391 . S
N942 C943 1.388 . S
C943 H914 0.930 . S
C943 C938 1.391 . S
C943 N942 1.388 . S
C944 C945 1.387 . S
C944 H948 0.950 . S
C944 C953 1.390 . S
C945 C944 1.387 . S
C945 C947 1.387 . S
H946 C953 0.950 . S
C947 C945 1.387 . S
C947 C949 1.390 . S
C947 H951 0.950 . S
H948 C944 0.950 . S
C949 C947 1.390 . S
C949 C950 1.387 . S
C949 H952 0.950 . S
C950 C949 1.387 . S
C950 C953 1.387 . S
H951 C947 0.950 . S
H952 C949 0.950 . S
C953 C944 1.390 . S
C953 H946 0.950 . S
C953 C950 1.387 . S
C954 C955 1.387 . S
C954 H958 0.950 . S
C954 C963 1.390 . S
C955 C954 1.387 . S
C955 C957 1.387 . S
H956 C963 0.950 . S
C957 C955 1.387 . S
C957 C959 1.390 . S
C957 H961 0.950 . S
H958 C954 0.950 . S
C959 C957 1.390 . S
C959 C960 1.387 . S
C959 H962 0.950 . S
C960 C959 1.387 . S
C960 C963 1.387 . S
H961 C957 0.950 . S
H962 C959 0.950 . S
C963 C954 1.390 . S
C963 H956 0.950 . S
C963 C960 1.387 . S
C964 C965 1.387 . S
C964 H968 0.950 . S
C964 C973 1.390 . S
C965 C964 1.387 . S
C965 C967 1.387 . S
H966 C973 0.950 . S
C967 C965 1.387 . S
C967 C969 1.390 . S
C967 H971 0.950 . S
H968 C964 0.950 . S
C969 C967 1.390 . S
C969 C970 1.387 . S
C969 H972 0.950 . S
C970 C969 1.387 . S
C970 C973 1.387 . S
H971 C967 0.950 . S
H972 C969 0.950 . S
C973 C964 1.390 . S
C973 H966 0.950 . S
C973 C970 1.387 . S
C974 C975 1.387 . S
C974 H978 0.950 . S
C974 C983 1.390 . S
C975 C974 1.387 . S
C975 C977 1.387 . S
H976 C983 0.950 . S
C977 C975 1.387 . S
C977 C979 1.390 . S
C977 H981 0.950 . S
H978 C974 0.950 . S
C979 C977 1.390 . S
C979 C980 1.387 . S
C979 H982 0.950 . S
C980 C979 1.387 . S
C980 C983 1.387 . S
H981 C977 0.950 . S
H982 C979 0.950 . S
C983 C974 1.390 . S
C983 H976 0.950 . S
C983 C980 1.387 . S
C984 C985 1.387 . S
C984 H988 0.950 . S
C984 C993 1.390 . S
C985 C984 1.387 . S
C985 C987 1.387 . S
H986 C993 0.950 . S
C987 C985 1.387 . S
C987 C989 1.390 . S
C987 H991 0.950 . S
H988 C984 0.950 . S
C989 C987 1.390 . S
C989 C990 1.387 . S
C989 H992 0.950 . S
C990 C989 1.387 . S
C990 C993 1.387 . S
H991 C987 0.950 . S
H992 C989 0.950 . S
C993 C984 1.390 . S
C993 H986 0.950 . S
C993 C990 1.387 . S
C994 C995 1.387 . S
C994 H998 0.950 . S
C994 C1003 1.390 . S
C995 C994 1.387 . S
C995 C997 1.387 . S
H996 C1003 0.950 . S
C997 C995 1.387 . S
C997 C999 1.390 . S
C997 H1001 0.950 . S
H998 C994 0.950 . S
C999 C997 1.390 . S
C999 C1000 1.387 . S
C999 H1002 0.950 . S
C1000 C999 1.387 . S
C1000 C1003 1.387 . S
H1001 C997 0.950 . S
H1002 C999 0.950 . S
C1003 C994 1.390 . S
C1003 H996 0.950 . S
C1003 C1000 1.387 . S
C1004 C1005 1.387 . S
C1004 H1008 0.950 . S
C1004 C1013 1.390 . S
C1005 C1004 1.387 . S
C1005 C1007 1.387 . S
H1006 C1013 0.950 . S
C1007 C1005 1.387 . S
C1007 C1009 1.390 . S
C1007 H1011 0.950 . S
H1008 C1004 0.950 . S
C1009 C1007 1.390 . S
C1009 C1010 1.387 . S
C1009 H1012 0.950 . S
C1010 C1009 1.387 . S
C1010 C1013 1.387 . S
H1011 C1007 0.950 . S
H1012 C1009 0.950 . S
C1013 C1004 1.390 . S
C1013 H1006 0.950 . S
C1013 C1010 1.387 . S
C1014 C1015 1.387 . S
C1014 H1018 0.950 . S
C1014 C1023 1.390 . S
C1015 C1014 1.387 . S
C1015 C1017 1.387 . S
H1016 C1023 0.950 . S
C1017 C1015 1.387 . S
C1017 C1019 1.390 . S
C1017 H1021 0.950 . S
H1018 C1014 0.950 . S
C1019 C1017 1.390 . S
C1019 C1020 1.387 . S
C1019 H1022 0.950 . S
C1020 C1019 1.387 . S
C1020 C1023 1.387 . S
H1021 C1017 0.950 . S
H1022 C1019 0.950 . S
C1023 C1014 1.390 . S
C1023 H1016 0.950 . S
C1023 C1020 1.387 . S
C1024 C1025 1.387 . S
C1024 H1028 0.950 . S
C1024 C1033 1.390 . S
C1025 C1024 1.387 . S
C1025 C1027 1.387 . S
H1026 C1033 0.950 . S
C1027 C1025 1.387 . S
C1027 C1029 1.390 . S
C1027 H1031 0.950 . S
H1028 C1024 0.950 . S
C1029 C1027 1.390 . S
C1029 C1030 1.387 . S
C1029 H1032 0.950 . S
C1030 C1029 1.387 . S
C1030 C1033 1.387 . S
H1031 C1027 0.950 . S
H1032 C1029 0.950 . S
C1033 C1024 1.390 . S
C1033 H1026 0.950 . S
C1033 C1030 1.387 . S
C1034 C1035 1.387 . S
C1034 H1038 0.950 . S
C1034 C1043 1.390 . S
C1035 C1034 1.387 . S
C1035 C1037 1.387 . S
H1036 C1043 0.950 . S
C1037 C1035 1.387 . S
C1037 C1039 1.390 . S
C1037 H1041 0.950 . S
H1038 C1034 0.950 . S
C1039 C1037 1.390 . S
C1039 C1040 1.387 . S
C1039 H1042 0.950 . S
C1040 C1039 1.387 . S
C1040 C1043 1.387 . S
H1041 C1037 0.950 . S
H1042 C1039 0.950 . S
C1043 C1034 1.390 . S
C1043 H1036 0.950 . S
C1043 C1040 1.387 . S
C1044 C1045 1.387 . S
C1044 H1048 0.950 . S
C1044 C1053 1.390 . S
C1045 C1044 1.387 . S
C1045 C1047 1.387 . S
H1046 C1053 0.950 . S
C1047 C1045 1.387 . S
C1047 C1049 1.390 . S
C1047 H1051 0.950 . S
H1048 C1044 0.950 . S
C1049 C1047 1.390 . S
C1049 C1050 1.387 . S
C1049 H1052 0.950 . S
C1050 C1049 1.387 . S
C1050 C1053 1.387 . S
H1051 C1047 0.950 . S
H1052 C1049 0.950 . S
C1053 C1044 1.390 . S
C1053 H1046 0.950 . S
C1053 C1050 1.387 . S
C1054 C1055 1.387 . S
C1054 H1058 0.950 . S
C1054 C1063 1.390 1_554 S
C1055 C1054 1.387 . S
C1055 C1057 1.387 . S
H1056 C1063 0.950 . S
C1057 C1055 1.387 . S
C1057 C1059 1.390 1_554 S
C1057 H1061 0.950 . S
H1058 C1054 0.950 . S
C1059 C1057 1.390 1_556 S
C1059 C1060 1.387 . S
C1059 H1062 0.950 . S
C1060 C1059 1.387 . S
C1060 C1063 1.387 . S
H1061 C1057 0.950 . S
H1062 C1059 0.950 . S
C1063 C1054 1.390 1_556 S
C1063 H1056 0.950 . S
C1063 C1060 1.387 . S
C1064 C1065 1.387 . S
C1064 H1068 0.950 . S
C1064 C1073 1.390 1_554 S
C1065 C1064 1.387 . S
C1065 C1067 1.387 . S
H1066 C1073 0.950 . S
C1067 C1065 1.387 . S
C1067 C1069 1.390 1_554 S
C1067 H1071 0.950 . S
H1068 C1064 0.950 . S
C1069 C1067 1.390 1_556 S
C1069 C1070 1.387 . S
C1069 H1072 0.950 . S
C1070 C1069 1.387 . S
C1070 C1073 1.387 . S
H1071 C1067 0.950 . S
H1072 C1069 0.950 . S
C1073 C1064 1.390 1_556 S
C1073 H1066 0.950 . S
C1073 C1070 1.387 . S
C1074 C1075 1.387 . S
C1074 H1078 0.950 . S
C1074 C1083 1.390 . S
C1075 C1074 1.387 . S
C1075 C1077 1.387 . S
H1076 C1083 0.950 . S
C1077 C1075 1.387 . S
C1077 C1079 1.390 . S
C1077 H1081 0.950 . S
H1078 C1074 0.950 . S
C1079 C1077 1.390 . S
C1079 C1080 1.387 . S
C1079 H1082 0.950 . S
C1080 C1079 1.387 . S
C1080 C1083 1.387 . S
H1081 C1077 0.950 . S
H1082 C1079 0.950 . S
C1083 C1074 1.390 . S
C1083 H1076 0.950 . S
C1083 C1080 1.387 . S
C1084 C1085 1.387 . S
C1084 H1088 0.950 . S
C1084 C1093 1.390 . S
C1085 C1084 1.387 . S
C1085 C1087 1.387 . S
H1086 C1093 0.950 . S
C1087 C1085 1.387 . S
C1087 C1089 1.390 . S
C1087 H1091 0.950 . S
H1088 C1084 0.950 . S
C1089 C1087 1.390 . S
C1089 C1090 1.387 . S
C1089 H1092 0.950 . S
C1090 C1089 1.387 . S
C1090 C1093 1.387 . S
H1091 C1087 0.950 . S
H1092 C1089 0.950 . S
C1093 C1084 1.390 . S
C1093 H1086 0.950 . S
C1093 C1090 1.387 . S
C1094 C1095 1.387 . S
C1094 H1098 0.950 . S
C1094 C1103 1.390 . S
C1095 C1094 1.387 . S
C1095 C1097 1.387 . S
H1096 C1103 0.950 . S
C1097 C1095 1.387 . S
C1097 C1099 1.390 . S
C1097 H1101 0.950 . S
H1098 C1094 0.950 . S
C1099 C1097 1.390 . S
C1099 C1100 1.387 . S
C1099 H1102 0.950 . S
C1100 C1099 1.387 . S
C1100 C1103 1.387 . S
H1101 C1097 0.950 . S
H1102 C1099 0.950 . S
C1103 C1094 1.390 . S
C1103 H1096 0.950 . S
C1103 C1100 1.387 . S
C1104 C1105 1.387 . S
C1104 H1108 0.950 . S
C1104 C1113 1.390 1_445 S
C1105 C1104 1.387 . S
C1105 C1107 1.387 . S
H1106 C1113 0.950 . S
C1107 C1105 1.387 . S
C1107 C1109 1.390 1_445 S
C1107 H1111 0.950 . S
H1108 C1104 0.950 . S
C1109 C1107 1.390 1_665 S
C1109 C1110 1.387 . S
C1109 H1112 0.950 . S
C1110 C1109 1.387 . S
C1110 C1113 1.387 . S
H1111 C1107 0.950 . S
H1112 C1109 0.950 . S
C1113 C1104 1.390 1_665 S
C1113 H1106 0.950 . S
C1113 C1110 1.387 . S
C1114 C1115 1.387 . S
C1114 H1118 0.950 . S
C1114 C1123 1.390 1_455 S
C1115 C1114 1.387 . S
C1115 C1117 1.387 . S
H1116 C1123 0.950 . S
C1117 C1115 1.387 . S
C1117 C1119 1.390 1_455 S
C1117 H1121 0.950 . S
H1118 C1114 0.950 . S
C1119 C1117 1.390 1_655 S
C1119 C1120 1.387 . S
C1119 H1122 0.950 . S
C1120 C1119 1.387 . S
C1120 C1123 1.387 . S
H1121 C1117 0.950 . S
H1122 C1119 0.950 . S
C1123 C1114 1.390 1_655 S
C1123 H1116 0.950 . S
C1123 C1120 1.387 . S
C1124 C1125 1.387 . S
C1124 H1128 0.950 . S
C1124 C1133 1.390 . S
C1125 C1124 1.387 . S
C1125 C1127 1.387 . S
H1126 C1133 0.950 . S
C1127 C1125 1.387 . S
C1127 C1129 1.390 . S
C1127 H1131 0.950 . S
H1128 C1124 0.950 . S
C1129 C1127 1.390 . S
C1129 C1130 1.387 . S
C1129 H1132 0.950 . S
C1130 C1129 1.387 . S
C1130 C1133 1.387 . S
H1131 C1127 0.950 . S
H1132 C1129 0.950 . S
C1133 C1124 1.390 . S
C1133 H1126 0.950 . S
C1133 C1130 1.387 . S
C1134 C1135 1.387 . S
C1134 H1138 0.950 . S
C1134 C1143 1.390 1_545 S
C1135 C1134 1.387 . S
C1135 C1137 1.387 . S
H1136 C1143 0.950 . S
C1137 C1135 1.387 . S
C1137 C1139 1.390 1_545 S
C1137 H1141 0.950 . S
H1138 C1134 0.950 . S
C1139 C1137 1.390 1_565 S
C1139 C1140 1.387 . S
C1139 H1142 0.950 . S
C1140 C1139 1.387 . S
C1140 C1143 1.387 . S
H1141 C1137 0.950 . S
H1142 C1139 0.950 . S
C1143 C1134 1.390 1_565 S
C1143 H1136 0.950 . S
C1143 C1140 1.387 . S
C1144 C1145 1.387 . S
C1144 H1148 0.950 . S
C1144 C1153 1.390 1_455 S
C1145 C1144 1.387 . S
C1145 C1147 1.387 . S
H1146 C1153 0.950 . S
C1147 C1145 1.387 . S
C1147 C1149 1.390 1_455 S
C1147 H1151 0.950 . S
H1148 C1144 0.950 . S
C1149 C1147 1.390 1_655 S
C1149 C1150 1.387 . S
C1149 H1152 0.950 . S
C1150 C1149 1.387 . S
C1150 C1153 1.387 . S
H1151 C1147 0.950 . S
H1152 C1149 0.950 . S
C1153 C1144 1.390 1_655 S
C1153 H1146 0.950 . S
C1153 C1150 1.387 . S
C1154 C1155 1.387 . S
C1154 H1158 0.950 . S
C1154 C1163 1.390 . S
C1155 C1154 1.387 . S
C1155 C1157 1.387 . S
H1156 C1163 0.950 . S
C1157 C1155 1.387 . S
C1157 C1159 1.390 . S
C1157 H1161 0.950 . S
H1158 C1154 0.950 . S
C1159 C1157 1.390 . S
C1159 C1160 1.387 . S
C1159 H1162 0.950 . S
C1160 C1159 1.387 . S
C1160 C1163 1.387 . S
H1161 C1157 0.950 . S
H1162 C1159 0.950 . S
C1163 C1154 1.390 . S
C1163 H1156 0.950 . S
C1163 C1160 1.387 . S
C1164 C1165 1.387 . S
C1164 H1168 0.950 . S
C1164 C1173 1.390 1_565 S
C1165 C1164 1.387 . S
C1165 C1167 1.387 . S
H1166 C1173 0.950 . S
C1167 C1165 1.387 . S
C1167 C1169 1.390 1_565 S
C1167 H1171 0.950 . S
H1168 C1164 0.950 . S
C1169 C1167 1.390 1_545 S
C1169 C1170 1.387 . S
C1169 H1172 0.950 . S
C1170 C1169 1.387 . S
C1170 C1173 1.387 . S
H1171 C1167 0.950 . S
H1172 C1169 0.950 . S
C1173 C1164 1.390 1_545 S
C1173 H1166 0.950 . S
C1173 C1170 1.387 . S
C1174 C1175 1.387 . S
C1174 H1178 0.950 . S
C1174 C1183 1.390 1_445 S
C1175 C1174 1.387 . S
C1175 C1177 1.387 . S
H1176 C1183 0.950 . S
C1177 C1175 1.387 . S
C1177 C1179 1.390 1_445 S
C1177 H1181 0.950 . S
H1178 C1174 0.950 . S
C1179 C1177 1.390 1_665 S
C1179 C1180 1.387 . S
C1179 H1182 0.950 . S
C1180 C1179 1.387 . S
C1180 C1183 1.387 . S
H1181 C1177 0.950 . S
H1182 C1179 0.950 . S
C1183 C1174 1.390 1_665 S
C1183 H1176 0.950 . S
C1183 C1180 1.387 . S
C1184 C1185 1.387 . S
C1184 H1188 0.950 . S
C1184 C1193 1.390 1_565 S
C1185 C1184 1.387 . S
C1185 C1187 1.387 . S
H1186 C1193 0.950 . S
C1187 C1185 1.387 . S
C1187 C1189 1.390 1_565 S
C1187 H1191 0.950 . S
H1188 C1184 0.950 . S
C1189 C1187 1.390 1_545 S
C1189 C1190 1.387 . S
C1189 H1192 0.950 . S
C1190 C1189 1.387 . S
C1190 C1193 1.387 . S
H1191 C1187 0.950 . S
H1192 C1189 0.950 . S
C1193 C1184 1.390 1_545 S
C1193 H1186 0.950 . S
C1193 C1190 1.387 . S
C1194 C1195 1.387 . S
C1194 H1198 0.950 . S
C1194 C1203 1.390 1_665 S
C1195 C1194 1.387 . S
C1195 C1197 1.387 . S
H1196 C1203 0.950 . S
C1197 C1195 1.387 . S
C1197 C1199 1.390 1_665 S
C1197 H1201 0.950 . S
H1198 C1194 0.950 . S
C1199 C1197 1.390 1_445 S
C1199 C1200 1.387 . S
C1199 H1202 0.950 . S
C1200 C1199 1.387 . S
C1200 C1203 1.387 . S
H1201 C1197 0.950 . S
H1202 C1199 0.950 . S
C1203 C1194 1.390 1_445 S
C1203 H1196 0.950 . S
C1203 C1200 1.387 . S
C1204 C1205 1.387 . S
C1204 H1208 0.950 . S
C1204 C1213 1.390 1_455 S
C1205 C1204 1.387 . S
C1205 C1207 1.387 . S
H1206 C1213 0.950 . S
C1207 C1205 1.387 . S
C1207 C1209 1.390 1_455 S
C1207 H1211 0.950 . S
H1208 C1204 0.950 . S
C1209 C1207 1.390 1_655 S
C1209 C1210 1.387 . S
C1209 H1212 0.950 . S
C1210 C1209 1.387 . S
C1210 C1213 1.387 . S
H1211 C1207 0.950 . S
H1212 C1209 0.950 . S
C1213 C1204 1.390 1_655 S
C1213 H1206 0.950 . S
C1213 C1210 1.387 . S
C1214 C1215 1.387 . S
C1214 H1218 0.950 . S
C1214 C1223 1.390 . S
C1215 C1214 1.387 . S
C1215 C1217 1.387 . S
H1216 C1223 0.950 . S
C1217 C1215 1.387 . S
C1217 C1219 1.390 . S
C1217 H1221 0.950 . S
H1218 C1214 0.950 . S
C1219 C1217 1.390 . S
C1219 C1220 1.387 . S
C1219 H1222 0.950 . S
C1220 C1219 1.387 . S
C1220 C1223 1.387 . S
H1221 C1217 0.950 . S
H1222 C1219 0.950 . S
C1223 C1214 1.390 . S
C1223 H1216 0.950 . S
C1223 C1220 1.387 . S
C1224 C1225 1.387 . S
C1224 H1228 0.950 . S
C1224 C1233 1.390 . S
C1225 C1224 1.387 . S
C1225 C1227 1.387 . S
H1226 C1233 0.950 . S
C1227 C1225 1.387 . S
C1227 C1229 1.390 . S
C1227 H1231 0.950 . S
H1228 C1224 0.950 . S
C1229 C1227 1.390 . S
C1229 C1230 1.387 . S
C1229 H1232 0.950 . S
C1230 C1229 1.387 . S
C1230 C1233 1.387 . S
H1231 C1227 0.950 . S
H1232 C1229 0.950 . S
C1233 C1224 1.390 . S
C1233 H1226 0.950 . S
C1233 C1230 1.387 . S
C1234 C1235 1.387 . S
C1234 H1238 0.950 . S
C1234 C1243 1.390 1_545 S
C1235 C1234 1.387 . S
C1235 C1237 1.387 . S
H1236 C1243 0.950 . S
C1237 C1235 1.387 . S
C1237 C1239 1.390 1_545 S
C1237 H1241 0.950 . S
H1238 C1234 0.950 . S
C1239 C1237 1.390 1_565 S
C1239 C1240 1.387 . S
C1239 H1242 0.950 . S
C1240 C1239 1.387 . S
C1240 C1243 1.387 . S
H1241 C1237 0.950 . S
H1242 C1239 0.950 . S
C1243 C1234 1.390 1_565 S
C1243 H1236 0.950 . S
C1243 C1240 1.387 . S
C1244 C1245 1.387 . S
C1244 H1248 0.950 . S
C1244 C1253 1.390 1_665 S
C1245 C1244 1.387 . S
C1245 C1247 1.387 . S
H1246 C1253 0.950 . S
C1247 C1245 1.387 . S
C1247 C1249 1.390 1_665 S
C1247 H1251 0.950 . S
H1248 C1244 0.950 . S
C1249 C1247 1.390 1_445 S
C1249 C1250 1.387 . S
C1249 H1252 0.950 . S
C1250 C1249 1.387 . S
C1250 C1253 1.387 . S
H1251 C1247 0.950 . S
H1252 C1249 0.950 . S
C1253 C1244 1.390 1_445 S
C1253 H1246 0.950 . S
C1253 C1250 1.387 . S
C1254 C1255 1.387 . S
C1254 H1258 0.950 . S
C1254 C1263 1.390 1_655 S
C1255 C1254 1.387 . S
C1255 C1257 1.387 . S
H1256 C1263 0.950 . S
C1257 C1255 1.387 . S
C1257 C1259 1.390 1_655 S
C1257 H1261 0.950 . S
H1258 C1254 0.950 . S
C1259 C1257 1.390 1_455 S
C1259 C1260 1.387 . S
C1259 H1262 0.950 . S
C1260 C1259 1.387 . S
C1260 C1263 1.387 . S
H1261 C1257 0.950 . S
H1262 C1259 0.950 . S
C1263 C1254 1.390 1_455 S
C1263 H1256 0.950 . S
C1263 C1260 1.387 . S
C945 C239 1.527 . S
C950 C3 1.527 . S
C955 C62 1.527 . S
C960 C298 1.527 . S
C965 C357 1.527 . S
C970 C121 1.527 . S
C975 C416 1.527 . S
C980 C180 1.527 . S
C985 C711 1.527 . S
C990 C475 1.527 . S
C995 C534 1.527 . S
C1000 C770 1.527 . S
C1005 C829 1.527 . S
C1010 C593 1.527 . S
C1015 C652 1.527 . S
C1020 C888 1.527 . S
C1025 C33 1.554 . S
C1030 C918 1.553 . S
C1035 C92 1.554 . S
C1040 C741 1.554 . S
C1045 C151 1.553 . S
C1050 C800 1.554 . S
C1055 C859 1.554 . S
C1060 C210 1.554 . S
C1065 C269 1.553 . S
C1070 C564 1.554 . S
C1075 C328 1.553 . S
C1080 C623 1.553 . S
C1085 C682 1.553 . S
C1090 C387 1.553 . S
C1095 C505 1.553 . S
C1100 C446 1.553 . S
C1105 C5 1.617 . S
C1110 C595 1.617 . S
C1115 C654 1.617 . S
C1120 C64 1.617 . S
C1125 C123 1.618 . S
C1130 C477 1.618 . S
C1135 C536 1.617 . S
C1140 C182 1.617 . S
C1145 C241 1.618 . S
C1150 C831 1.618 . S
C1155 C300 1.618 . S
C1160 C890 1.618 . S
C1165 C713 1.618 . S
C1170 C359 1.618 . S
C1175 C772 1.618 . S
C1180 C418 1.618 . S
C1185 C642 1.488 . S
C1190 C52 1.488 . S
C1195 C111 1.490 . S
C1200 C701 1.490 . S
C1205 C170 1.488 . S
C1210 C524 1.488 . S
C1215 C583 1.488 . S
C1220 C229 1.488 . S
C1225 C878 1.490 . S
C1230 C288 1.490 . S
C1235 C937 1.490 . S
C1240 C347 1.490 . S
C1245 C760 1.490 . S
C1250 C406 1.490 . S
C1255 C465 1.490 . S
C1260 C819 1.490 . S
