# Generated by pormake.
# Topology yfw, (5)-cn, num edge types: 1
# Building blocks:
#     Node 0, Type 0, BuildingBlock: XOMCOT_clean_sbu_1, # of connection points: 5
#     Node 1, Type 0, BuildingBlock: XOMCOT_clean_sbu_1, # of connection points: 5
#     Node 2, Type 0, BuildingBlock: XOMCOT_clean_sbu_1, # of connection points: 5
#     Node 3, Type 0, BuildingBlock: XOMCOT_clean_sbu_1, # of connection points: 5
#     Node 4, Type 0, BuildingBlock: XOMCOT_clean_sbu_1, # of connection points: 5
#     Node 5, Type 0, BuildingBlock: XOMCOT_clean_sbu_1, # of connection points: 5
#     Node 6, Type 0, BuildingBlock: XOMCOT_clean_sbu_1, # of connection points: 5
#     Node 7, Type 0, BuildingBlock: XOMCOT_clean_sbu_1, # of connection points: 5
#     Node 8, Type 0, BuildingBlock: XOMCOT_clean_sbu_1, # of connection points: 5
#     Node 9, Type 0, BuildingBlock: XOMCOT_clean_sbu_1, # of connection points: 5
#     Node 10, Type 0, BuildingBlock: XOMCOT_clean_sbu_1, # of connection points: 5
#     Node 11, Type 0, BuildingBlock: XOMCOT_clean_sbu_1, # of connection points: 5
#     Node 12, Type 0, BuildingBlock: XOMCOT_clean_sbu_1, # of connection points: 5
#     Node 13, Type 0, BuildingBlock: XOMCOT_clean_sbu_1, # of connection points: 5
#     Node 14, Type 0, BuildingBlock: XOMCOT_clean_sbu_1, # of connection points: 5
#     Node 15, Type 0, BuildingBlock: XOMCOT_clean_sbu_1, # of connection points: 5
#     Edge 16, Type (0, 0), BuildingBlock: OJICUG_clean_linker_0, # of connection points: 2
#     Edge 17, Type (0, 0), BuildingBlock: OJICUG_clean_linker_0, # of connection points: 2
#     Edge 18, Type (0, 0), BuildingBlock: OJICUG_clean_linker_0, # of connection points: 2
#     Edge 19, Type (0, 0), BuildingBlock: OJICUG_clean_linker_0, # of connection points: 2
#     Edge 20, Type (0, 0), BuildingBlock: OJICUG_clean_linker_0, # of connection points: 2
#     Edge 21, Type (0, 0), BuildingBlock: OJICUG_clean_linker_0, # of connection points: 2
#     Edge 22, Type (0, 0), BuildingBlock: OJICUG_clean_linker_0, # of connection points: 2
#     Edge 23, Type (0, 0), BuildingBlock: OJICUG_clean_linker_0, # of connection points: 2
#     Edge 24, Type (0, 0), BuildingBlock: OJICUG_clean_linker_0, # of connection points: 2
#     Edge 25, Type (0, 0), BuildingBlock: OJICUG_clean_linker_0, # of connection points: 2
#     Edge 26, Type (0, 0), BuildingBlock: OJICUG_clean_linker_0, # of connection points: 2
#     Edge 27, Type (0, 0), BuildingBlock: OJICUG_clean_linker_0, # of connection points: 2
#     Edge 28, Type (0, 0), BuildingBlock: OJICUG_clean_linker_0, # of connection points: 2
#     Edge 29, Type (0, 0), BuildingBlock: OJICUG_clean_linker_0, # of connection points: 2
#     Edge 30, Type (0, 0), BuildingBlock: OJICUG_clean_linker_0, # of connection points: 2
#     Edge 31, Type (0, 0), BuildingBlock: OJICUG_clean_linker_0, # of connection points: 2
#     Edge 32, Type (0, 0), BuildingBlock: OJICUG_clean_linker_0, # of connection points: 2
#     Edge 33, Type (0, 0), BuildingBlock: OJICUG_clean_linker_0, # of connection points: 2
#     Edge 34, Type (0, 0), BuildingBlock: OJICUG_clean_linker_0, # of connection points: 2
#     Edge 35, Type (0, 0), BuildingBlock: OJICUG_clean_linker_0, # of connection points: 2
#     Edge 36, Type (0, 0), BuildingBlock: OJICUG_clean_linker_0, # of connection points: 2
#     Edge 37, Type (0, 0), BuildingBlock: OJICUG_clean_linker_0, # of connection points: 2
#     Edge 38, Type (0, 0), BuildingBlock: OJICUG_clean_linker_0, # of connection points: 2
#     Edge 39, Type (0, 0), BuildingBlock: OJICUG_clean_linker_0, # of connection points: 2
#     Edge 40, Type (0, 0), BuildingBlock: OJICUG_clean_linker_0, # of connection points: 2
#     Edge 41, Type (0, 0), BuildingBlock: OJICUG_clean_linker_0, # of connection points: 2
#     Edge 42, Type (0, 0), BuildingBlock: OJICUG_clean_linker_0, # of connection points: 2
#     Edge 43, Type (0, 0), BuildingBlock: OJICUG_clean_linker_0, # of connection points: 2
#     Edge 44, Type (0, 0), BuildingBlock: OJICUG_clean_linker_0, # of connection points: 2
#     Edge 45, Type (0, 0), BuildingBlock: OJICUG_clean_linker_0, # of connection points: 2
#     Edge 46, Type (0, 0), BuildingBlock: OJICUG_clean_linker_0, # of connection points: 2
#     Edge 47, Type (0, 0), BuildingBlock: OJICUG_clean_linker_0, # of connection points: 2
#     Edge 48, Type (0, 0), BuildingBlock: OJICUG_clean_linker_0, # of connection points: 2
#     Edge 49, Type (0, 0), BuildingBlock: OJICUG_clean_linker_0, # of connection points: 2
#     Edge 50, Type (0, 0), BuildingBlock: OJICUG_clean_linker_0, # of connection points: 2
#     Edge 51, Type (0, 0), BuildingBlock: OJICUG_clean_linker_0, # of connection points: 2
#     Edge 52, Type (0, 0), BuildingBlock: OJICUG_clean_linker_0, # of connection points: 2
#     Edge 53, Type (0, 0), BuildingBlock: OJICUG_clean_linker_0, # of connection points: 2
#     Edge 54, Type (0, 0), BuildingBlock: OJICUG_clean_linker_0, # of connection points: 2
#     Edge 55, Type (0, 0), BuildingBlock: OJICUG_clean_linker_0, # of connection points: 2
# Relax obj value: 0.106
# Max RMSD: 0.154
# Mean RMSD: 0.154
data_MOF--net-yfw--node1-XOMCOT_clean_sbu_1--edge1-OJICUG_clean_linker_0
_symmetry_space_group_name_H-M    P1
_symmetry_Int_Tables_number       1
_symmetry_cell_setting            triclinic
loop_
_symmetry_equiv_pos_as_xyz
'x, y, z'
_cell_length_a     44.398526
_cell_length_b     44.344071
_cell_length_c     18.45267
_cell_angle_alpha  90.118569
_cell_angle_beta   90.244068
_cell_angle_gamma 90.20126
loop_
_atom_site_label
_atom_site_type_symbol
_atom_site_fract_x
_atom_site_fract_y
_atom_site_fract_z
_atom_type_partial_charge
C0 C 0.09269 0.08689 0.96287 0.0
C1 C 0.0655 0.07245 0.95572 0.0
N2 N 0.06779 0.04485 0.98573 0.0
N3 N 0.11214 0.06868 0.9977 0.0
C4 C 0.09647 0.04306 1.01056 0.0
H5 H 0.09824 0.10909 0.94262 0.0
Co6 Co 0.15218 0.07911 1.01279 0.0
C7 C 0.16282 0.0564 0.16585 0.0
O8 O 0.17069 0.08344 0.18756 0.0
N9 N 0.19346 0.09041 0.02541 0.0
C10 C 0.23499 0.11556 0.05844 0.0
C11 C 0.2055 0.10983 0.07459 0.0
C12 C 0.21668 0.08477 0.97975 0.0
N13 N 0.24197 0.09989 0.99871 0.0
O14 O 0.16345 0.04592 0.95046 0.0
H15 H 0.19337 0.12152 0.11652 0.0
H16 H 0.21471 0.07158 0.93063 0.0
O17 O 0.15457 0.05213 0.0997 0.0
C18 C 0.15913 0.05112 0.88297 0.0
O19 O 0.15062 0.07829 0.86355 0.0
N20 N 0.13925 0.11289 0.06633 0.0
C21 C 0.11619 0.16623 0.12428 0.0
C22 C 0.10801 0.13811 0.15324 0.0
C23 C 0.11946 0.11163 0.12274 0.0
C24 C 0.14618 0.13995 0.03537 0.0
C25 C 0.13553 0.1669 0.06452 0.0
H26 H 0.11177 0.09011 0.14306 0.0
H27 H 0.15998 0.14054 0.9872 0.0
H28 H 0.10598 0.02348 0.03687 0.0
H29 H 0.04584 0.08132 0.92833 0.0
H30 H 0.24974 0.13134 0.08615 0.0
H31 H 0.0926 0.13656 0.19842 0.0
H32 H 0.14151 0.18801 0.0388 0.0
C33 C 0.90438 0.57606 0.19257 0.0
C34 C 0.91856 0.54867 0.18813 0.0
N35 N 0.9458 0.55114 0.22023 0.0
N36 N 0.92244 0.59573 0.22773 0.0
C37 C 0.94763 0.58002 0.24358 0.0
H38 H 0.88247 0.58153 0.17049 0.0
Co39 Co 0.91326 0.6361 0.24192 0.0
C40 C 0.93405 0.64518 0.39655 0.0
O41 O 0.90713 0.65374 0.41657 0.0
N42 N 0.90363 0.67768 0.25447 0.0
C43 C 0.88265 0.72082 0.29047 0.0
C44 C 0.88463 0.69051 0.30279 0.0
C45 C 0.91245 0.70114 0.21249 0.0
N46 N 0.9001 0.72755 0.23353 0.0
O47 O 0.94756 0.64656 0.18367 0.0
H48 H 0.87128 0.67874 0.34243 0.0
H49 H 0.92717 0.699 0.16634 0.0
O50 O 0.93883 0.63734 0.3306 0.0
C51 C 0.94239 0.64224 0.11628 0.0
O52 O 0.91518 0.63379 0.09635 0.0
N53 N 0.8785 0.62425 0.2917 0.0
C54 C 0.82364 0.60557 0.34873 0.0
C55 C 0.85084 0.59511 0.37827 0.0
C56 C 0.87813 0.60436 0.34808 0.0
C57 C 0.85225 0.63278 0.25915 0.0
C58 C 0.82454 0.62438 0.28797 0.0
H59 H 0.89893 0.59532 0.36938 0.0
H60 H 0.85291 0.64654 0.21084 0.0
H61 H 0.96694 0.58966 0.2712 0.0
H62 H 0.90977 0.52875 0.16133 0.0
H63 H 0.8681 0.73641 0.31876 0.0
H64 H 0.85102 0.5799 0.42412 0.0
H65 H 0.80401 0.63195 0.26192 0.0
C66 C 0.41278 0.41722 0.45745 0.0
C67 C 0.43966 0.43235 0.45254 0.0
N68 N 0.43668 0.45944 0.48501 0.0
N69 N 0.39287 0.43448 0.49327 0.0
C70 C 0.40793 0.46025 0.509 0.0
H71 H 0.4078 0.39518 0.43511 0.0
Co72 Co 0.35306 0.42304 0.50668 0.0
C73 C 0.34199 0.44413 0.66061 0.0
O74 O 0.33389 0.41699 0.68066 0.0
N75 N 0.31201 0.41075 0.51784 0.0
C76 C 0.2712 0.38415 0.54857 0.0
C77 C 0.30066 0.39023 0.56497 0.0
C78 C 0.28838 0.41672 0.47319 0.0
N79 N 0.26351 0.40076 0.49091 0.0
O80 O 0.34114 0.45674 0.44698 0.0
H81 H 0.31324 0.37825 0.60579 0.0
H82 H 0.28974 0.43087 0.42569 0.0
O83 O 0.35032 0.44891 0.59503 0.0
C84 C 0.34583 0.45187 0.37962 0.0
O85 O 0.35445 0.42477 0.35979 0.0
N86 N 0.36672 0.38896 0.55778 0.0
C87 C 0.38981 0.33531 0.61385 0.0
C88 C 0.39725 0.36322 0.64554 0.0
C89 C 0.38589 0.38988 0.61583 0.0
C90 C 0.3607 0.36222 0.52392 0.0
C91 C 0.37143 0.3351 0.55191 0.0
H92 H 0.39299 0.41125 0.63848 0.0
H93 H 0.3474 0.36201 0.47466 0.0
H94 H 0.39797 0.4792 0.53694 0.0
H95 H 0.4596 0.42431 0.42518 0.0
H96 H 0.25691 0.36761 0.57466 0.0
H97 H 0.41187 0.3645 0.69257 0.0
H98 H 0.36605 0.31423 0.52406 0.0
C99 C 0.59722 0.92565 0.67558 0.0
C100 C 0.5838 0.95336 0.66605 0.0
N101 N 0.55863 0.95405 0.70641 0.0
N102 N 0.58031 0.90902 0.72111 0.0
C103 C 0.55699 0.92697 0.73916 0.0
H104 H 0.6171 0.91752 0.64818 0.0
Co105 Co 0.58454 0.86802 0.73884 0.0
C106 C 0.56685 0.86448 0.8944 0.0
O107 O 0.59278 0.85166 0.90954 0.0
N108 N 0.58756 0.82597 0.75361 0.0
C109 C 0.57676 0.77872 0.78567 0.0
C110 C 0.57021 0.80846 0.79681 0.0
C111 C 0.6028 0.8058 0.71264 0.0
N112 N 0.59724 0.77706 0.73269 0.0
O113 O 0.54888 0.86086 0.6824 0.0
H114 H 0.55182 0.81607 0.82998 0.0
H115 H 0.61642 0.81188 0.66642 0.0
O116 O 0.56074 0.87197 0.8288 0.0
C117 C 0.55494 0.86085 0.61485 0.0
O118 O 0.58321 0.86398 0.59525 0.0
N119 N 0.62139 0.87594 0.7886 0.0
C120 C 0.67782 0.89194 0.84583 0.0
C121 C 0.65156 0.90664 0.86864 0.0
C122 C 0.62372 0.8987 0.83852 0.0
C123 C 0.64686 0.86208 0.76443 0.0
C124 C 0.67516 0.86927 0.79325 0.0
H125 H 0.60402 0.91127 0.85456 0.0
H126 H 0.64581 0.84643 0.71998 0.0
H127 H 0.53806 0.91968 0.77154 0.0
H128 H 0.59136 0.97123 0.63054 0.0
H129 H 0.56548 0.75964 0.8103 0.0
H130 H 0.65252 0.92453 0.90866 0.0
H131 H 0.69493 0.85818 0.7719 0.0
C132 C 0.95079 0.09441 0.43859 0.0
C133 C 0.97939 0.08227 0.43813 0.0
N134 N 0.97792 0.05428 0.46641 0.0
N135 N 0.93163 0.07419 0.46764 0.0
C136 C 0.94875 0.05013 0.48392 0.0
H137 H 0.94426 0.11621 0.41768 0.0
Co138 Co 0.89011 0.0758 0.47775 0.0
C139 C 0.88177 0.05663 0.63056 0.0
O140 O 0.86468 0.08033 0.64187 0.0
N141 N 0.84765 0.07581 0.48621 0.0
C142 C 0.80168 0.05736 0.50691 0.0
C143 C 0.83185 0.05307 0.51711 0.0
C144 C 0.82618 0.09253 0.45287 0.0
N145 N 0.79811 0.08214 0.46637 0.0
O146 O 0.88649 0.04005 0.42091 0.0
H147 H 0.84147 0.03312 0.54124 0.0
H148 H 0.83079 0.11072 0.41573 0.0
O149 O 0.89321 0.05214 0.56779 0.0
C150 C 0.88865 0.04598 0.35361 0.0
O151 O 0.89291 0.07415 0.33399 0.0
N152 N 0.89449 0.11254 0.52836 0.0
C153 C 0.90404 0.16943 0.58941 0.0
C154 C 0.91793 0.14389 0.6189 0.0
C155 C 0.91344 0.11577 0.58656 0.0
C156 C 0.88275 0.13747 0.49594 0.0
C157 C 0.88666 0.16604 0.52632 0.0
H158 H 0.92572 0.09669 0.60758 0.0
H159 H 0.8713 0.13552 0.44467 0.0
H160 H 0.93972 0.02966 0.50718 0.0
H161 H 0.99938 0.09279 0.41615 0.0
H162 H 0.78382 0.04215 0.52318 0.0
H163 H 0.93263 0.14569 0.66572 0.0
H164 H 0.87611 0.18524 0.50058 0.0
C165 C 0.90254 0.43792 0.69027 0.0
C166 C 0.91668 0.4655 0.68729 0.0
N167 N 0.94399 0.46303 0.71903 0.0
N168 N 0.9207 0.41815 0.72416 0.0
C169 C 0.94585 0.43399 0.74078 0.0
H170 H 0.88066 0.43239 0.66781 0.0
Co171 Co 0.91266 0.37736 0.73607 0.0
C172 C 0.93237 0.36908 0.89228 0.0
O173 O 0.90548 0.36011 0.91192 0.0
N174 N 0.90451 0.33538 0.74695 0.0
C175 C 0.88596 0.29113 0.78337 0.0
C176 C 0.88624 0.32156 0.79537 0.0
C177 C 0.91464 0.31239 0.70521 0.0
N178 N 0.90383 0.28533 0.72661 0.0
O179 O 0.94794 0.36852 0.67929 0.0
H180 H 0.87235 0.33262 0.83506 0.0
H181 H 0.92936 0.31528 0.65927 0.0
O182 O 0.93732 0.37672 0.82631 0.0
C183 C 0.94319 0.37302 0.61181 0.0
O184 O 0.91599 0.38098 0.59116 0.0
N185 N 0.87677 0.38741 0.78389 0.0
C186 C 0.82036 0.40026 0.84214 0.0
C187 C 0.84667 0.41316 0.87182 0.0
C188 C 0.87467 0.40685 0.84104 0.0
C189 C 0.85132 0.37719 0.75008 0.0
C190 C 0.82297 0.38263 0.77933 0.0
H191 H 0.89467 0.41739 0.86328 0.0
H192 H 0.85318 0.36375 0.70131 0.0
H193 H 0.96523 0.42426 0.76754 0.0
H194 H 0.90786 0.48553 0.66153 0.0
H195 H 0.87238 0.27473 0.81193 0.0
H196 H 0.84567 0.42816 0.91812 0.0
H197 H 0.80342 0.37249 0.75369 0.0
C198 C 0.55461 0.41303 0.93761 0.0
C199 C 0.52632 0.42572 0.9332 0.0
N200 N 0.52753 0.45344 0.96338 0.0
N201 N 0.57336 0.43256 0.97119 0.0
C202 C 0.55629 0.4569 0.98588 0.0
H203 H 0.56124 0.39128 0.91653 0.0
Co204 Co 0.61469 0.42962 0.98745 0.0
C205 C 0.61757 0.44599 0.14397 0.0
O206 O 0.63229 0.42099 0.15799 0.0
N207 N 0.65703 0.42826 1.00159 0.0
C208 C 0.70368 0.442 0.03316 0.0
C209 C 0.67367 0.44631 0.04567 0.0
C210 C 0.67791 0.41479 0.95908 0.0
N211 N 0.70639 0.42222 0.97856 0.0
O212 O 0.62029 0.46579 0.93408 0.0
H213 H 0.66511 0.46381 0.08044 0.0
H214 H 0.67241 0.40111 0.91222 0.0
O215 O 0.60993 0.4522 0.07861 0.0
C216 C 0.61913 0.45963 0.86667 0.0
O217 O 0.61538 0.43135 0.84691 0.0
N218 N 0.60852 0.39227 0.03448 0.0
C219 C 0.5975 0.33506 0.09182 0.0
C220 C 0.581 0.36007 0.1155 0.0
C221 C 0.58647 0.38836 0.08524 0.0
C222 C 0.62334 0.36781 1.00773 0.0
C223 C 0.61861 0.33914 0.03645 0.0
H224 H 0.57282 0.40718 0.10247 0.0
H225 H 0.63838 0.37013 0.96259 0.0
H226 H 0.56503 0.47701 1.01187 0.0
H227 H 0.50672 0.41571 0.90759 0.0
H228 H 0.72207 0.45432 0.05832 0.0
H229 H 0.56372 0.35777 0.1564 0.0
H230 H 0.63159 0.32041 0.01567 0.0
C231 C 0.60077 0.06691 0.18854 0.0
C232 C 0.58708 0.03907 0.18444 0.0
N233 N 0.55986 0.04092 0.21631 0.0
N234 N 0.58241 0.08614 0.22351 0.0
C235 C 0.55765 0.06975 0.23946 0.0
H236 H 0.62239 0.07301 0.16598 0.0
Co237 Co 0.58866 0.1273 0.23697 0.0
C238 C 0.57048 0.13011 0.39594 0.0
O239 O 0.59817 0.13451 0.41852 0.0
N240 N 0.59435 0.16939 0.24955 0.0
C241 C 0.60745 0.21447 0.29319 0.0
C242 C 0.60768 0.18408 0.30555 0.0
C243 C 0.58658 0.19173 0.20323 0.0
N244 N 0.59413 0.21933 0.22883 0.0
O245 O 0.55259 0.13458 0.18139 0.0
H246 H 0.61893 0.17369 0.35065 0.0
H247 H 0.57585 0.18792 0.15133 0.0
O248 O 0.56482 0.12652 0.32812 0.0
C249 C 0.55757 0.13045 0.11392 0.0
O250 O 0.58523 0.12433 0.09363 0.0
N251 N 0.62565 0.11907 0.28347 0.0
C252 C 0.68299 0.10808 0.33998 0.0
C253 C 0.65806 0.09091 0.36241 0.0
C254 C 0.62966 0.09643 0.3326 0.0
C255 C 0.65006 0.13394 0.25623 0.0
C256 C 0.67874 0.12946 0.28508 0.0
H257 H 0.61073 0.08285 0.34986 0.0
H258 H 0.64722 0.14987 0.21245 0.0
H259 H 0.53815 0.07903 0.26638 0.0
H260 H 0.59604 0.01935 0.15755 0.0
H261 H 0.61776 0.23154 0.3273 0.0
H262 H 0.66044 0.07314 0.40215 0.0
H263 H 0.69727 0.14293 0.26495 0.0
C264 C 0.55678 0.58948 0.46073 0.0
C265 C 0.5279 0.57769 0.46184 0.0
N266 N 0.52918 0.5495 0.48912 0.0
N267 N 0.57597 0.56883 0.48772 0.0
C268 C 0.55851 0.54502 0.50494 0.0
H269 H 0.56353 0.611 0.43845 0.0
Co270 Co 0.61785 0.56772 0.4893 0.0
C271 C 0.63091 0.54797 0.63977 0.0
O272 O 0.65083 0.5698 0.64697 0.0
N273 N 0.66035 0.56455 0.48963 0.0
C274 C 0.70457 0.54119 0.49909 0.0
C275 C 0.67443 0.53933 0.51292 0.0
C276 C 0.68267 0.58077 0.45817 0.0
N277 N 0.70985 0.56721 0.46412 0.0
O278 O 0.61645 0.53167 0.43334 0.0
H279 H 0.66335 0.51978 0.53554 0.0
H280 H 0.67903 0.60089 0.42677 0.0
O281 O 0.6164 0.54477 0.58009 0.0
C282 C 0.61244 0.53736 0.36639 0.0
O283 O 0.60984 0.56565 0.34625 0.0
N284 N 0.61845 0.60481 0.53902 0.0
C285 C 0.61688 0.66239 0.60037 0.0
C286 C 0.60246 0.63799 0.63411 0.0
C287 C 0.60297 0.60956 0.60183 0.0
C288 C 0.63036 0.62872 0.50264 0.0
C289 C 0.63061 0.65754 0.53312 0.0
H290 H 0.59021 0.59155 0.62651 0.0
H291 H 0.63852 0.62582 0.44823 0.0
H292 H 0.56755 0.52417 0.52589 0.0
H293 H 0.50792 0.58836 0.44023 0.0
H294 H 0.72107 0.52414 0.51216 0.0
H295 H 0.58997 0.64096 0.68388 0.0
H296 H 0.64108 0.67585 0.50366 0.0
C297 C 0.43098 0.0745 0.67655 0.0
C298 C 0.44337 0.04627 0.66782 0.0
N299 N 0.46864 0.04495 0.70823 0.0
N300 N 0.44864 0.09082 0.7216 0.0
C301 C 0.47136 0.07217 0.74017 0.0
H302 H 0.41146 0.08324 0.64842 0.0
Co303 Co 0.44645 0.13214 0.73615 0.0
C304 C 0.46593 0.13882 0.89017 0.0
O305 O 0.44166 0.15486 0.90284 0.0
N306 N 0.44558 0.17472 0.74752 0.0
C307 C 0.46205 0.22144 0.76984 0.0
C308 C 0.46712 0.19137 0.78113 0.0
C309 C 0.42877 0.1956 0.71229 0.0
N310 N 0.4379 0.22419 0.72626 0.0
O311 O 0.48183 0.13657 0.67879 0.0
H312 H 0.48672 0.18249 0.80841 0.0
H313 H 0.41184 0.19011 0.67219 0.0
O314 O 0.47071 0.12849 0.82617 0.0
C315 C 0.47599 0.13684 0.61102 0.0
O316 O 0.44765 0.13638 0.59016 0.0
N317 N 0.40996 0.12647 0.78744 0.0
C318 C 0.35395 0.11496 0.8501 0.0
C319 C 0.37965 0.09975 0.87433 0.0
C320 C 0.40742 0.10558 0.84168 0.0
C321 C 0.38465 0.13954 0.75988 0.0
C322 C 0.35659 0.13483 0.79168 0.0
H323 H 0.42685 0.09294 0.85946 0.0
H324 H 0.3857 0.15266 0.71116 0.0
H325 H 0.49081 0.07909 0.77171 0.0
H326 H 0.43522 0.02854 0.6323 0.0
H327 H 0.47583 0.23977 0.79033 0.0
H328 H 0.37835 0.08372 0.91842 0.0
H329 H 0.33695 0.14601 0.76951 0.0
C330 C 0.9467 0.91592 0.94676 0.0
C331 C 0.97546 0.92792 0.94849 0.0
N332 N 0.97395 0.95622 0.97526 0.0
N333 N 0.9273 0.93652 0.97287 0.0
C334 C 0.94451 0.96065 0.98975 0.0
H335 H 0.94024 0.89401 0.92593 0.0
Co336 Co 0.88543 0.93558 0.97755 0.0
C337 C 0.87391 0.95678 0.12772 0.0
O338 O 0.85525 0.93409 0.13765 0.0
N339 N 0.84265 0.93637 0.98047 0.0
C340 C 0.79756 0.958 0.98997 0.0
C341 C 0.82766 0.96108 1.00362 0.0
C342 C 0.82074 0.91908 0.94956 0.0
N343 N 0.79307 0.93169 0.95531 0.0
O344 O 0.88409 0.97091 0.91922 0.0
H345 H 0.83804 0.98126 0.02526 0.0
H346 H 0.82496 0.89897 0.91829 0.0
O347 O 0.88716 0.95999 0.06665 0.0
C348 C 0.88818 0.96523 0.85232 0.0
O349 O 0.89243 0.9371 0.83238 0.0
N350 N 0.8878 0.89932 0.03028 0.0
C351 C 0.89609 0.84292 0.09413 0.0
C352 C 0.90908 0.86882 0.12483 0.0
C353 C 0.90522 0.89667 0.09124 0.0
C354 C 0.87677 0.87409 0.99717 0.0
C355 C 0.88007 0.84573 0.02887 0.0
H356 H 0.91713 0.91593 0.11318 0.0
H357 H 0.86658 0.87562 0.94428 0.0
H358 H 0.93532 0.98142 1.01084 0.0
H359 H 0.99562 0.91709 0.92867 0.0
H360 H 0.78045 0.97452 1.00238 0.0
H361 H 0.92283 0.8675 0.17333 0.0
H362 H 0.87028 0.82623 1.00221 0.0
C363 C 0.07499 0.43081 0.20432 0.0
C364 C 0.0628 0.45938 0.20224 0.0
N365 N 0.03431 0.45786 0.22714 0.0
N366 N 0.05433 0.41153 0.23102 0.0
C367 C 0.02993 0.42862 0.24442 0.0
H368 H 0.09708 0.42434 0.18545 0.0
Co369 Co 0.056 0.36985 0.2388 0.0
C370 C 0.03413 0.35894 0.38942 0.0
O371 O 0.05714 0.34099 0.40105 0.0
N372 N 0.05629 0.32713 0.24471 0.0
C373 C 0.0374 0.28083 0.25799 0.0
C374 C 0.03226 0.31099 0.26753 0.0
C375 C 0.07522 0.30588 0.21812 0.0
N376 N 0.06443 0.27747 0.22644 0.0
O377 O 0.02078 0.36699 0.17865 0.0
H378 H 0.01144 0.3205 0.28708 0.0
H379 H 0.09548 0.31095 0.18857 0.0
O380 O 0.0311 0.37181 0.32757 0.0
C381 C 0.02655 0.36962 0.11123 0.0
O382 O 0.05477 0.37292 0.09143 0.0
N383 N 0.09222 0.37385 0.29207 0.0
C384 C 0.14911 0.38504 0.35161 0.0
C385 C 0.12327 0.39681 0.38427 0.0
C386 C 0.09501 0.39128 0.35307 0.0
C387 C 0.11743 0.36429 0.25706 0.0
C388 C 0.146 0.36875 0.28698 0.0
H389 H 0.07557 0.40207 0.3765 0.0
H390 H 0.11563 0.35471 0.20356 0.0
H391 H 0.00902 0.41945 0.2648 0.0
H392 H 0.07363 0.47937 0.18093 0.0
H393 H 0.02188 0.2629 0.27172 0.0
H394 H 0.1249 0.41025 0.43322 0.0
H395 H 0.16561 0.36053 0.25842 0.0
C396 C 0.40712 0.58278 0.96167 0.0
C397 C 0.43496 0.56976 0.95298 0.0
N398 N 0.43364 0.54123 0.97803 0.0
N399 N 0.38844 0.5627 0.99291 0.0
C400 C 0.40513 0.53758 1.0019 0.0
H401 H 0.4006 0.60516 0.94456 0.0
Co402 Co 0.34742 0.5674 1.00821 0.0
C403 C 0.34164 0.54641 0.16187 0.0
O404 O 0.32875 0.57214 0.17848 0.0
N405 N 0.30527 0.57128 0.01983 0.0
C406 C 0.2572 0.56245 0.04765 0.0
C407 C 0.28645 0.55406 0.06 0.0
C408 C 0.28639 0.58838 0.97935 0.0
N409 N 0.25719 0.58408 0.99693 0.0
O410 O 0.3403 0.53283 0.94717 0.0
H411 H 0.29288 0.535 0.09264 0.0
H412 H 0.29374 0.60288 0.93575 0.0
O413 O 0.34992 0.54147 0.09621 0.0
C414 C 0.34227 0.53864 0.87953 0.0
O415 O 0.34684 0.56674 0.85977 0.0
N416 N 0.35564 0.60316 0.06316 0.0
C417 C 0.37472 0.65836 0.12372 0.0
C418 C 0.38771 0.63095 0.14546 0.0
C419 C 0.37805 0.60378 0.11433 0.0
C420 C 0.34318 0.62965 0.04059 0.0
C421 C 0.35181 0.65725 0.07115 0.0
H422 H 0.38963 0.58329 0.12918 0.0
H423 H 0.32761 0.63 0.99597 0.0
H424 H 0.39626 0.51683 0.02415 0.0
H425 H 0.45429 0.58014 0.9275 0.0
H426 H 0.23732 0.55212 0.07079 0.0
H427 H 0.4062 0.63044 0.18384 0.0
H428 H 0.34104 0.67761 0.05203 0.0
C429 C 0.42872 0.92194 0.19753 0.0
C430 C 0.44193 0.95005 0.19414 0.0
N431 N 0.47027 0.94799 0.22024 0.0
N432 N 0.44855 0.90236 0.22635 0.0
C433 C 0.47362 0.91881 0.2394 0.0
H434 H 0.40641 0.91595 0.17851 0.0
Co435 Co 0.44393 0.8609 0.2367 0.0
C436 C 0.46442 0.85086 0.38883 0.0
O437 O 0.43971 0.83533 0.40137 0.0
N438 N 0.44025 0.81822 0.24457 0.0
C439 C 0.45295 0.7704 0.26648 0.0
C440 C 0.46127 0.80003 0.27464 0.0
C441 C 0.42036 0.79859 0.21394 0.0
N442 N 0.42718 0.7695 0.22825 0.0
O443 O 0.47879 0.85535 0.17811 0.0
H444 H 0.48231 0.80754 0.29822 0.0
H445 H 0.40197 0.80507 0.17901 0.0
O446 O 0.46897 0.86208 0.32572 0.0
C447 C 0.47308 0.85905 0.11095 0.0
O448 O 0.44498 0.8635 0.09107 0.0
N449 N 0.40823 0.86791 0.28948 0.0
C450 C 0.3532 0.88427 0.35015 0.0
C451 C 0.38022 0.89536 0.37916 0.0
C452 C 0.40749 0.88725 0.3474 0.0
C453 C 0.38193 0.85877 0.25786 0.0
C454 C 0.35419 0.86588 0.28854 0.0
H455 H 0.42792 0.89752 0.36785 0.0
H456 H 0.38217 0.84752 0.20623 0.0
H457 H 0.49414 0.90932 0.26128 0.0
H458 H 0.43182 0.97013 0.17148 0.0
H459 H 0.46572 0.75093 0.28385 0.0
H460 H 0.38027 0.91028 0.42573 0.0
H461 H 0.33364 0.85804 0.26272 0.0
C462 C 0.09588 0.92382 0.45958 0.0
C463 C 0.06877 0.93804 0.45075 0.0
N464 N 0.07093 0.96587 0.47994 0.0
N465 N 0.11506 0.94243 0.49469 0.0
C466 C 0.09936 0.96802 0.50604 0.0
H467 H 0.10158 0.90153 0.44025 0.0
Co468 Co 0.15495 0.93277 0.51163 0.0
C469 C 0.16347 0.95593 0.66564 0.0
O470 O 0.17051 0.92891 0.68837 0.0
N471 N 0.19606 0.92219 0.52597 0.0
C472 C 0.23743 0.89756 0.56071 0.0
C473 C 0.20819 0.90403 0.5774 0.0
C474 C 0.21888 0.92621 0.4783 0.0
N475 N 0.24408 0.91148 0.49848 0.0
O476 O 0.16632 0.9661 0.44955 0.0
H477 H 0.19609 0.89296 0.62027 0.0
H478 H 0.2165 0.93752 0.42678 0.0
O479 O 0.15641 0.96006 0.59868 0.0
C480 C 0.16192 0.96091 0.38201 0.0
O481 O 0.15373 0.93358 0.36225 0.0
N482 N 0.14196 0.899 0.56491 0.0
C483 C 0.11856 0.84584 0.62288 0.0
C484 C 0.10954 0.87404 0.64968 0.0
C485 C 0.12114 0.9004 0.61909 0.0
C486 C 0.14987 0.87181 0.53608 0.0
C487 C 0.13902 0.84494 0.56534 0.0
H488 H 0.11279 0.92194 0.63756 0.0
H489 H 0.1645 0.87102 0.48938 0.0
H490 H 0.10872 0.98785 0.53208 0.0
H491 H 0.0493 0.9289 0.42277 0.0
H492 H 0.25197 0.8819 0.58898 0.0
H493 H 0.09333 0.87574 0.69316 0.0
H494 H 0.1457 0.8237 0.54131 0.0
C495 C 0.07479 0.58284 0.71177 0.0
C496 C 0.0622 0.55438 0.70834 0.0
N497 N 0.03345 0.55608 0.73138 0.0
N498 N 0.05413 0.60224 0.7375 0.0
C499 C 0.02931 0.58534 0.74894 0.0
H500 H 0.09717 0.58917 0.69443 0.0
Co501 Co 0.05642 0.64392 0.74543 0.0
C502 C 0.03355 0.65543 0.89444 0.0
O503 O 0.05694 0.673 0.9067 0.0
N504 N 0.05729 0.68654 0.75095 0.0
C505 C 0.03909 0.7331 0.76229 0.0
C506 C 0.03359 0.70311 0.77361 0.0
C507 C 0.07628 0.7073 0.72226 0.0
N508 N 0.06595 0.73583 0.72955 0.0
O509 O 0.02197 0.64699 0.68316 0.0
H510 H 0.01263 0.69402 0.79371 0.0
H511 H 0.09605 0.70175 0.69136 0.0
O512 O 0.0305 0.64247 0.83255 0.0
C513 C 0.02797 0.64414 0.61593 0.0
O514 O 0.05618 0.64036 0.59672 0.0
N515 N 0.09194 0.63973 0.8018 0.0
C516 C 0.14734 0.62669 0.86802 0.0
C517 C 0.12027 0.61527 0.8961 0.0
C518 C 0.09298 0.62162 0.86167 0.0
C519 C 0.11814 0.6497 0.77175 0.0
C520 C 0.14594 0.6442 0.80487 0.0
H521 H 0.07288 0.61061 0.88123 0.0
H522 H 0.1179 0.6603 0.7194 0.0
H523 H 0.0083 0.59465 0.76805 0.0
H524 H 0.07298 0.53435 0.68735 0.0
H525 H 0.02391 0.75133 0.77529 0.0
H526 H 0.12017 0.60029 0.94236 0.0
H527 H 0.16616 0.65294 0.77985 0.0
C528 C 0.0283 0.96952 0.98497 0.0
C529 C 0.99788 0.9783 0.981 0.0
H530 H 0.07451 0.9838 0.98967 0.0
C531 C 0.99115 0.00927 0.98152 0.0
H532 H 0.03433 0.94591 0.98541 0.0
C533 C 0.01402 0.03081 0.98498 0.0
C534 C 0.04441 0.02217 0.98739 0.0
H535 H 0.96819 0.01714 0.97759 0.0
H536 H 0.00779 0.05437 0.98537 0.0
C537 C 0.05133 0.99124 0.98826 0.0
C538 C 0.99914 0.53499 0.22998 0.0
C539 C 0.9683 0.52783 0.22548 0.0
H540 H 0.04437 0.51835 0.23451 0.0
C541 C 0.95967 0.49732 0.22381 0.0
H542 H 0.00659 0.55825 0.23086 0.0
C543 C 0.98123 0.47455 0.22501 0.0
C544 C 0.01212 0.48159 0.22831 0.0
H545 H 0.93615 0.49093 0.22139 0.0
H546 H 0.97354 0.45143 0.2217 0.0
C547 C 0.02082 0.51211 0.23126 0.0
C548 C 0.47493 0.53537 0.49385 0.0
C549 C 0.50549 0.52707 0.49139 0.0
H550 H 0.4289 0.52032 0.49391 0.0
C551 C 0.51268 0.49621 0.48949 0.0
H552 H 0.46859 0.5589 0.49585 0.0
C553 C 0.49014 0.47432 0.4893 0.0
C554 C 0.45963 0.48247 0.49031 0.0
H555 H 0.53577 0.48869 0.48633 0.0
H556 H 0.49673 0.45086 0.48795 0.0
C557 C 0.45221 0.51327 0.49351 0.0
C558 C 0.52483 0.98876 0.64158 0.0
C559 C 0.53601 0.97709 0.70698 0.0
H560 H 0.49374 0.01927 0.59104 0.0
C561 C 0.52439 0.98772 0.77285 0.0
H562 H 0.53336 0.98064 0.59026 0.0
C563 C 0.50234 0.0102 0.77331 0.0
C564 C 0.49088 0.02155 0.70787 0.0
H565 H 0.53277 0.97892 0.82376 0.0
H566 H 0.49393 0.01855 0.82455 0.0
C567 C 0.50213 0.01054 0.642 0.0
C568 C 0.01731 0.9798 0.47696 0.0
C569 C 0.04772 0.9885 0.47986 0.0
H570 H 0.97159 0.9935 0.4687 0.0
C571 C 0.05491 0.01941 0.4799 0.0
H572 H 0.01093 0.95623 0.47781 0.0
C573 C 0.03208 0.04109 0.47578 0.0
C574 C 0.00165 0.03225 0.47183 0.0
H575 H 0.07814 0.02685 0.48151 0.0
H576 H 0.03825 0.06472 0.47584 0.0
C577 C 0.99463 1.00132 0.47273 0.0
C578 C 0.95836 0.51688 0.72359 0.0
C579 C 0.96666 0.48634 0.72507 0.0
H580 H 0.97275 0.56275 0.72318 0.0
C581 C 0.99741 0.4791 0.73061 0.0
H582 H 0.93493 0.52335 0.72033 0.0
C583 C 0.0193 0.5019 0.73339 0.0
C584 C 0.01096 0.53245 0.73083 0.0
H585 H 0.00469 0.45584 0.73128 0.0
H586 H 0.04276 0.49556 0.73758 0.0
C587 C 0.98016 0.53959 0.72626 0.0
C588 C 0.51055 0.50645 0.97114 0.0
C589 C 0.50373 0.47548 0.96765 0.0
H590 H 0.49377 0.55147 0.97811 0.0
C591 C 0.47333 0.46649 0.96828 0.0
H592 H 0.53363 0.51431 0.96976 0.0
C593 C 0.45035 0.48796 0.97235 0.0
C594 C 0.45724 0.51894 0.9756 0.0
H595 H 0.46728 0.44285 0.96621 0.0
H596 H 0.42721 0.48025 0.97175 0.0
C597 C 0.48763 0.52787 0.97506 0.0
C598 C 0.48459 0.00199 0.22509 0.0
C599 C 0.4929 0.97145 0.22202 0.0
H600 H 0.4992 0.04799 0.22525 0.0
C601 C 0.52369 0.96423 0.21902 0.0
H602 H 0.46112 0.00836 0.22816 0.0
C603 C 0.54556 0.98696 0.21812 0.0
C604 C 0.53725 0.0175 0.22021 0.0
H605 H 0.53097 0.94102 0.21577 0.0
H606 H 0.56903 0.98054 0.21577 0.0
C607 C 0.50649 0.02474 0.22429 0.0
C608 C 0.15588 0.97889 0.25345 0.0
C609 C 0.16339 0.98517 0.32639 0.0
H610 H 0.14958 0.99617 0.14572 0.0
C611 C 0.1709 0.0149 0.34541 0.0
H612 H 0.14983 0.95624 0.23671 0.0
C613 C 0.17076 0.03775 0.29307 0.0
C614 C 0.16298 0.03157 0.22023 0.0
H615 H 0.17666 0.02061 0.40087 0.0
H616 H 0.1766 0.06041 0.31015 0.0
C617 C 0.15562 0.00179 0.20107 0.0
C618 C 0.97394 0.64998 0.57854 0.0
C619 C 0.00393 0.64411 0.55988 0.0
H620 H 0.92856 0.6549 0.54193 0.0
C621 C 0.01083 0.63804 0.4868 0.0
H622 H 0.96783 0.65466 0.63421 0.0
C623 C 0.98824 0.638 0.43354 0.0
C624 C 0.95828 0.64421 0.45218 0.0
H625 H 0.03374 0.63328 0.47055 0.0
H626 H 0.99429 0.63336 0.37783 0.0
C627 C 0.95142 0.65011 0.52537 0.0
C628 C 0.34807 0.49866 0.69735 0.0
C629 C 0.3422 0.46856 0.71607 0.0
H630 H 0.35242 0.54431 0.73396 0.0
C631 C 0.33613 0.46173 0.78924 0.0
H632 H 0.35282 0.50475 0.64172 0.0
C633 C 0.33599 0.48435 0.84229 0.0
C634 C 0.34172 0.51446 0.82356 0.0
H635 H 0.33155 0.43877 0.80592 0.0
H636 H 0.33139 0.47822 0.89796 0.0
C637 C 0.34774 0.52134 0.7504 0.0
C638 C 0.49052 0.86929 0.98456 0.0
C639 C 0.49737 0.86099 0.05636 0.0
H640 H 0.50701 0.8774 0.87745 0.0
C641 C 0.52748 0.85534 0.07516 0.0
H642 H 0.46756 0.87409 0.96831 0.0
C643 C 0.55014 0.85726 0.02285 0.0
C644 C 0.54319 0.86507 0.95075 0.0
H645 H 0.53353 0.84914 0.13006 0.0
H646 H 0.57308 0.85228 0.03886 0.0
C647 C 0.51317 0.87141 0.93243 0.0
C648 C 0.89714 0.00538 0.67303 0.0
C649 C 0.88534 0.03398 0.68859 0.0
H650 H 0.90713 0.96126 0.71256 0.0
C651 C 0.8757 0.0403 0.75956 0.0
H652 H 0.90477 0.9998 0.61896 0.0
C653 C 0.87724 0.01824 0.81349 0.0
C654 C 0.88814 0.98935 0.79722 0.0
H655 H 0.86663 0.0622 0.77335 0.0
H656 H 0.86925 0.02359 0.86737 0.0
C657 C 0.89837 0.98326 0.72667 0.0
C658 C 0.94967 0.36454 0.02131 0.0
C659 C 0.95657 0.37018 0.94804 0.0
H660 H 0.96614 0.35999 0.13011 0.0
C661 C 0.98662 0.37605 0.92929 0.0
H662 H 0.92674 0.36002 0.03794 0.0
C663 C 0.00926 0.37585 0.9824 0.0
C664 C 0.00235 0.36995 0.05553 0.0
H665 H 0.99272 0.38048 0.87352 0.0
H666 H 0.03223 0.38029 0.96596 0.0
C667 C 0.97226 0.36451 0.0744 0.0
C668 C 0.60296 0.51995 0.23963 0.0
C669 C 0.6115 0.51319 0.31125 0.0
H670 H 0.59779 0.50399 0.13081 0.0
C671 C 0.62015 0.48364 0.32839 0.0
H672 H 0.59592 0.54248 0.2248 0.0
C673 C 0.62134 0.46156 0.27426 0.0
C674 C 0.6137 0.46859 0.20215 0.0
H675 H 0.62677 0.47775 0.38312 0.0
H676 H 0.62879 0.43913 0.28878 0.0
C677 C 0.60393 0.49786 0.18571 0.0
C678 C 0.55319 0.13296 0.52476 0.0
C679 C 0.54602 0.13091 0.4504 0.0
H680 H 0.53692 0.13656 0.63354 0.0
C681 C 0.51559 0.13082 0.4295 0.0
H682 H 0.57641 0.13304 0.54301 0.0
C683 C 0.49292 0.13305 0.48175 0.0
C684 C 0.50017 0.13528 0.55602 0.0
H685 H 0.50928 0.12935 0.37282 0.0
H686 H 0.46967 0.13296 0.46376 0.0
C687 C 0.53056 0.13508 0.5769 0.0
C688 C 0.60986 0.47707 0.74058 0.0
C689 C 0.62086 0.48321 0.81063 0.0
H690 H 0.60401 0.49284 0.63208 0.0
C691 C 0.63409 0.51137 0.82512 0.0
H692 H 0.5993 0.45562 0.72796 0.0
C693 C 0.63713 0.53265 0.76966 0.0
C694 C 0.62651 0.52625 0.69929 0.0
H695 H 0.64274 0.51665 0.87865 0.0
H696 H 0.64793 0.55401 0.78181 0.0
C697 C 0.61243 0.49844 0.68566 0.0
C698 C 0.5393 0.12176 0.98724 0.0
C699 C 0.53339 0.13172 0.0583 0.0
H700 H 0.52275 0.1158 0.87899 0.0
C701 C 0.50465 0.14292 0.07433 0.0
H702 H 0.56114 0.11274 0.97302 0.0
C703 C 0.48258 0.14478 0.01992 0.0
C704 C 0.48873 0.13524 0.94856 0.0
H705 H 0.49935 0.15067 0.12848 0.0
H706 H 0.46077 0.15396 0.03374 0.0
C707 C 0.51724 0.12337 0.93317 0.0
C708 C 0.89622 0.02822 0.22673 0.0
C709 C 0.88626 0.02227 0.29753 0.0
H710 H 0.90045 0.01214 0.11788 0.0
C711 C 0.87318 0.99415 0.31281 0.0
H712 H 0.90659 0.04964 0.21336 0.0
C713 C 0.86934 0.97273 0.25767 0.0
C714 C 0.87892 0.97891 0.18659 0.0
H715 H 0.86527 0.98898 0.36684 0.0
H716 H 0.85874 0.9514 0.2707 0.0
C717 C 0.89279 0.00671 0.17198 0.0
C718 C 0.98417 0.37806 0.43231 0.0
C719 C 0.01144 0.36339 0.44735 0.0
H720 H 0.94144 0.3924 0.47211 0.0
C721 C 0.01652 0.35244 0.51802 0.0
H722 H 0.97948 0.38678 0.37865 0.0
C723 C 0.99469 0.35586 0.57217 0.0
C724 C 0.96719 0.37 0.55651 0.0
H725 H 0.03737 0.34112 0.53158 0.0
H726 H 0.99916 0.34704 0.62583 0.0
C727 C 0.9623 0.38118 0.48604 0.0
C728 C 0.35233 0.49301 0.19972 0.0
C729 C 0.34333 0.52236 0.21787 0.0
H730 H 0.3598 0.4479 0.23599 0.0
C731 C 0.3349 0.52839 0.29008 0.0
H732 H 0.35889 0.4875 0.1448 0.0
C733 C 0.3354 0.50562 0.34273 0.0
C734 C 0.34421 0.47622 0.32437 0.0
H735 H 0.32784 0.55077 0.30613 0.0
H736 H 0.32893 0.51107 0.39774 0.0
C737 C 0.35268 0.47024 0.25219 0.0
C738 C 0.51633 0.86463 0.43155 0.0
C739 C 0.48718 0.85436 0.44733 0.0
H740 H 0.56046 0.87447 0.47187 0.0
C741 C 0.48013 0.84681 0.51947 0.0
H742 H 0.52251 0.87064 0.3767 0.0
C743 C 0.50188 0.84928 0.57449 0.0
C744 C 0.53121 0.85893 0.55825 0.0
H745 H 0.45778 0.83896 0.53352 0.0
H746 H 0.49586 0.84319 0.62939 0.0
C747 C 0.53812 0.8667 0.48623 0.0
C748 C 0.15513 0.0104 0.70097 0.0
C749 C 0.16292 0.98082 0.72006 0.0
H750 H 0.14806 0.05574 0.73716 0.0
C751 C 0.17025 0.97477 0.79314 0.0
H752 H 0.14939 0.01591 0.64545 0.0
C753 C 0.1695 0.99753 0.8458 0.0
C754 C 0.16147 0.02704 0.82694 0.0
H755 H 0.17644 0.95227 0.8102 0.0
H756 H 0.17496 0.9919 0.90141 0.0
C757 C 0.15445 0.03323 0.75376 0.0
C758 C 0.96095 0.63463 0.98981 0.0
C759 C 0.96617 0.64545 0.06059 0.0
H760 H 0.97806 0.62896 0.88233 0.0
C761 C 0.994 0.65907 0.07666 0.0
H762 H 0.93982 0.62381 0.97559 0.0
C763 C 0.01592 0.66219 0.02272 0.0
C764 C 0.01058 0.65147 0.95183 0.0
H765 H 0.99872 0.66757 0.13061 0.0
H766 H 0.03707 0.67302 0.03667 0.0
C767 C 0.98292 0.63746 0.93622 0.0
C768 C 0.1087 0.24754 0.1873 0.0
C769 C 0.07768 0.2495 0.20187 0.0
H770 H 0.14524 0.21966 0.15209 0.0
C771 C 0.05972 0.22354 0.19195 0.0
H772 H 0.12337 0.2668 0.19525 0.0
C773 C 0.07234 0.19649 0.16817 0.0
C774 C 0.10321 0.19466 0.153 0.0
H775 H 0.0357 0.22406 0.2011 0.0
H776 H 0.05771 0.17718 0.15985 0.0
C777 C 0.12129 0.22047 0.16284 0.0
C778 C 0.77127 0.61689 0.3908 0.0
C779 C 0.79438 0.5959 0.37899 0.0
H780 H 0.7264 0.62435 0.42854 0.0
C781 C 0.78921 0.56543 0.39486 0.0
H782 H 0.77481 0.64059 0.37937 0.0
C783 C 0.76148 0.55607 0.42197 0.0
C784 C 0.73829 0.57701 0.43464 0.0
H785 H 0.80646 0.54871 0.385 0.0
H786 H 0.75822 0.53227 0.43192 0.0
C787 C 0.74353 0.60756 0.41867 0.0
C788 C 0.43226 0.30491 0.66579 0.0
C789 C 0.40209 0.30664 0.64314 0.0
H790 H 0.46749 0.2774 0.70798 0.0
C791 C 0.38394 0.28063 0.64739 0.0
H792 H 0.44702 0.32433 0.66187 0.0
C793 C 0.39568 0.25357 0.67411 0.0
C794 C 0.42586 0.25187 0.69706 0.0
H795 H 0.3605 0.2813 0.63098 0.0
H796 H 0.38097 0.23413 0.67793 0.0
C797 C 0.44401 0.27789 0.69225 0.0
C798 C 0.71435 0.93261 0.88061 0.0
C799 C 0.70793 0.90176 0.87284 0.0
H800 H 0.74642 0.96624 0.91054 0.0
C801 C 0.73056 0.88072 0.88987 0.0
H802 H 0.69779 0.94946 0.86606 0.0
C803 C 0.75874 0.89042 0.9158 0.0
C804 C 0.76481 0.92133 0.92506 0.0
H805 H 0.72628 0.85676 0.8845 0.0
H806 H 0.77549 0.87377 0.93015 0.0
C807 C 0.74236 0.94224 0.90618 0.0
C808 C 0.91103 0.254 0.61712 0.0
C809 C 0.90755 0.25639 0.69252 0.0
H810 H 0.9129 0.22453 0.52517 0.0
C811 C 0.90532 0.22994 0.73395 0.0
H812 H 0.91267 0.27399 0.5838 0.0
C813 C 0.90515 0.20172 0.70055 0.0
C814 C 0.9072 0.19931 0.62486 0.0
H815 H 0.90305 0.2311 0.79227 0.0
H816 H 0.90224 0.18186 0.73389 0.0
C817 C 0.91078 0.22571 0.58355 0.0
C818 C 0.78822 0.40612 0.95276 0.0
C819 C 0.79051 0.4049 0.87686 0.0
H820 H 0.75945 0.41219 0.04433 0.0
C821 C 0.76406 0.40778 0.83494 0.0
H822 H 0.80789 0.40323 0.98693 0.0
C823 C 0.73615 0.41228 0.86822 0.0
C824 C 0.73422 0.41436 0.94392 0.0
H825 H 0.76495 0.40731 0.77633 0.0
H826 H 0.71631 0.41529 0.83475 0.0
C827 C 0.76046 0.41097 0.98578 0.0
C828 C 0.59297 0.25025 0.11749 0.0
C829 C 0.59145 0.24806 0.1933 0.0
H830 H 0.59574 0.27956 0.02564 0.0
C831 C 0.58948 0.27461 0.23468 0.0
H832 H 0.5946 0.23022 0.08418 0.0
C833 C 0.59048 0.30278 0.20144 0.0
C834 C 0.5934 0.30508 0.12592 0.0
H835 H 0.5878 0.27361 0.29313 0.0
H836 H 0.59012 0.32276 0.23528 0.0
C837 C 0.59399 0.27851 0.0841 0.0
C838 C 0.71576 0.09671 0.44741 0.0
C839 C 0.71318 0.10348 0.37326 0.0
H840 H 0.74513 0.08491 0.53509 0.0
C841 C 0.7396 0.10547 0.33145 0.0
H842 H 0.69606 0.09576 0.48173 0.0
C843 C 0.76779 0.09995 0.36274 0.0
C844 C 0.77001 0.09196 0.43604 0.0
H845 H 0.7385 0.1103 0.27402 0.0
H846 H 0.78766 0.10053 0.32898 0.0
C847 C 0.74383 0.09081 0.47824 0.0
C848 C 0.61287 0.72426 0.74131 0.0
C849 C 0.60684 0.74967 0.69861 0.0
H850 H 0.62175 0.67699 0.74375 0.0
C851 C 0.60698 0.74695 0.62289 0.0
H852 H 0.61314 0.72603 0.79985 0.0
C853 C 0.61126 0.71875 0.59051 0.0
C854 C 0.6158 0.69292 0.63348 0.0
H855 H 0.60202 0.76623 0.58904 0.0
H856 H 0.6095 0.71701 0.53212 0.0
C857 C 0.61753 0.69623 0.70914 0.0
C858 C 0.30845 0.13584 0.9101 0.0
C859 C 0.32454 0.11062 0.88596 0.0
H860 H 0.2694 0.15198 0.96533 0.0
C861 C 0.31249 0.08161 0.89693 0.0
H862 H 0.31731 0.15841 0.9024 0.0
C863 C 0.28474 0.07799 0.93187 0.0
C864 C 0.26918 0.10327 0.95777 0.0
H865 H 0.32446 0.06184 0.87827 0.0
H866 H 0.27582 0.05554 0.94056 0.0
C867 C 0.28119 0.13218 0.94622 0.0
C868 C 0.89658 0.81097 0.20561 0.0
C869 C 0.89934 0.81321 0.13004 0.0
H870 H 0.89532 0.78197 0.29779 0.0
C871 C 0.90448 0.78687 0.08938 0.0
H872 H 0.89246 0.83079 0.23847 0.0
C873 C 0.90588 0.75877 0.12349 0.0
C874 C 0.90205 0.75651 0.19882 0.0
H875 H 0.90718 0.78792 0.03114 0.0
H876 H 0.9089 0.73878 0.09061 0.0
C877 C 0.89795 0.78297 0.23955 0.0
C878 C 0.22582 0.36867 0.43091 0.0
C879 C 0.236 0.39756 0.45055 0.0
H880 H 0.19041 0.34222 0.38346 0.0
C881 C 0.21797 0.42267 0.43529 0.0
H882 H 0.2395 0.34905 0.44229 0.0
C883 C 0.18957 0.41875 0.40308 0.0
C884 C 0.17927 0.38972 0.38426 0.0
H885 H 0.22546 0.44507 0.45059 0.0
H886 H 0.17565 0.43832 0.3929 0.0
C887 C 0.19787 0.3648 0.39738 0.0
C888 C 0.39969 0.74081 0.13354 0.0
C889 C 0.41193 0.74259 0.20363 0.0
H890 H 0.37936 0.71287 0.0524 0.0
C891 C 0.41051 0.71709 0.24852 0.0
H892 H 0.40083 0.76002 0.09753 0.0
C893 C 0.39763 0.69017 0.22352 0.0
C894 C 0.3863 0.68784 0.15234 0.0
H895 H 0.41945 0.71802 0.30317 0.0
H896 H 0.39674 0.67114 0.26011 0.0
C897 C 0.38726 0.7137 0.10793 0.0
C898 C 0.27718 0.87543 0.43788 0.0
C899 C 0.27003 0.90536 0.45525 0.0
H900 H 0.30913 0.84541 0.39009 0.0
C901 C 0.28956 0.92868 0.43489 0.0
H902 H 0.26223 0.85722 0.45333 0.0
C903 C 0.31666 0.92196 0.39998 0.0
C904 C 0.32408 0.89188 0.3838 0.0
H905 H 0.28431 0.95185 0.44838 0.0
H906 H 0.33188 0.94017 0.38601 0.0
C907 C 0.30385 0.86875 0.40181 0.0
C908 C 0.0742 0.81558 0.66411 0.0
C909 C 0.10529 0.81755 0.65155 0.0
H910 H 0.03725 0.78811 0.69654 0.0
C911 C 0.12333 0.79212 0.66461 0.0
H912 H 0.05962 0.83458 0.65311 0.0
C913 C 0.11051 0.76532 0.69017 0.0
C914 C 0.07934 0.76333 0.70275 0.0
H915 H 0.14742 0.79307 0.65582 0.0
H916 H 0.12507 0.74632 0.70088 0.0
C917 C 0.06138 0.78882 0.68912 0.0
C918 C 0.20583 0.60406 1.00823 0.0
C919 C 0.2309 0.59753 0.96496 0.0
H920 H 0.16035 0.61946 1.01229 0.0
C921 C 0.22916 0.60259 0.89005 0.0
H922 H 0.20683 0.60073 0.0663 0.0
C923 C 0.2023 0.61271 0.85857 0.0
C924 C 0.17678 0.61842 0.90164 0.0
H925 H 0.24812 0.59743 0.85551 0.0
H926 H 0.20129 0.6149 0.80021 0.0
C927 C 0.17919 0.61462 0.97711 0.0
loop_
_geom_bond_atom_site_label_1
_geom_bond_atom_site_label_2
_geom_bond_distance
_geom_bond_site_symmetry_2
_ccdc_geom_bond_type
C0 C1 1.351 . S
C0 N3 1.368 . S
C0 H5 0.931 . S
C1 C0 1.351 . S
C1 N2 1.373 1_556 S
C1 H29 0.930 . S
N2 C1 1.373 1_554 S
N2 C4 1.340 . S
N3 C0 1.368 . S
N3 C4 1.321 1_556 S
N3 Co6 2.135 . S
C4 N2 1.340 . S
C4 N3 1.321 1_554 S
C4 H28 0.930 . S
H5 C0 0.931 . S
Co6 N3 2.135 . S
Co6 N9 2.121 . S
Co6 O14 2.055 . S
Co6 O17 2.039 1_556 S
Co6 N20 2.140 1_556 S
C7 O8 1.227 . S
C7 O17 1.265 . S
O8 C7 1.227 . S
N9 Co6 2.121 . S
N9 C11 1.375 1_556 S
N9 C12 1.313 . S
C10 C11 1.338 . S
C10 N13 1.377 1_554 S
C10 H30 0.930 . S
C11 N9 1.375 1_554 S
C11 C10 1.338 . S
C11 H15 0.931 . S
C12 N9 1.313 . S
C12 N13 1.344 . S
C12 H16 0.930 . S
N13 C10 1.377 1_556 S
N13 C12 1.344 . S
O14 Co6 2.055 . S
O14 C18 1.253 . S
H15 C11 0.931 . S
H16 C12 0.930 . S
O17 Co6 2.039 1_554 S
O17 C7 1.265 . S
C18 O14 1.253 . S
C18 O19 1.227 . S
O19 C18 1.227 . S
N20 Co6 2.140 1_554 S
N20 C23 1.346 . S
N20 C24 1.345 1_554 S
C21 C22 1.387 . S
C21 C25 1.391 1_554 S
C22 C21 1.387 . S
C22 C23 1.369 . S
C22 H31 0.929 . S
C23 N20 1.346 . S
C23 C22 1.369 . S
C23 H26 0.928 . S
C24 N20 1.345 1_556 S
C24 C25 1.371 . S
C24 H27 0.931 . S
C25 C21 1.391 1_556 S
C25 C24 1.371 . S
C25 H32 0.930 . S
H26 C23 0.928 . S
H27 C24 0.931 . S
H28 C4 0.930 . S
H29 C1 0.930 . S
H30 C10 0.930 . S
H31 C22 0.929 . S
H32 C25 0.930 . S
C33 C34 1.351 . S
C33 N36 1.368 . S
C33 H38 0.931 . S
C34 C33 1.351 . S
C34 N35 1.373 . S
C34 H62 0.930 . S
N35 C34 1.373 . S
N35 C37 1.340 . S
N36 C33 1.368 . S
N36 C37 1.321 . S
N36 Co39 2.135 . S
C37 N35 1.340 . S
C37 N36 1.321 . S
C37 H61 0.930 . S
H38 C33 0.931 . S
Co39 N36 2.135 . S
Co39 N42 2.121 . S
Co39 O47 2.055 . S
Co39 O50 2.039 . S
Co39 N53 2.140 . S
C40 O41 1.227 . S
C40 O50 1.265 . S
O41 C40 1.227 . S
N42 Co39 2.121 . S
N42 C44 1.375 . S
N42 C45 1.313 . S
C43 C44 1.338 . S
C43 N46 1.377 . S
C43 H63 0.930 . S
C44 N42 1.375 . S
C44 C43 1.338 . S
C44 H48 0.931 . S
C45 N42 1.313 . S
C45 N46 1.344 . S
C45 H49 0.930 . S
N46 C43 1.377 . S
N46 C45 1.344 . S
O47 Co39 2.055 . S
O47 C51 1.253 . S
H48 C44 0.931 . S
H49 C45 0.930 . S
O50 Co39 2.039 . S
O50 C40 1.265 . S
C51 O47 1.253 . S
C51 O52 1.227 . S
O52 C51 1.227 . S
N53 Co39 2.140 . S
N53 C56 1.346 . S
N53 C57 1.345 . S
C54 C55 1.387 . S
C54 C58 1.391 . S
C55 C54 1.387 . S
C55 C56 1.369 . S
C55 H64 0.929 . S
C56 N53 1.346 . S
C56 C55 1.369 . S
C56 H59 0.928 . S
C57 N53 1.345 . S
C57 C58 1.371 . S
C57 H60 0.931 . S
C58 C54 1.391 . S
C58 C57 1.371 . S
C58 H65 0.930 . S
H59 C56 0.928 . S
H60 C57 0.931 . S
H61 C37 0.930 . S
H62 C34 0.930 . S
H63 C43 0.930 . S
H64 C55 0.929 . S
H65 C58 0.930 . S
C66 C67 1.351 . S
C66 N69 1.368 . S
C66 H71 0.931 . S
C67 C66 1.351 . S
C67 N68 1.373 . S
C67 H95 0.930 . S
N68 C67 1.373 . S
N68 C70 1.340 . S
N69 C66 1.368 . S
N69 C70 1.321 . S
N69 Co72 2.135 . S
C70 N68 1.340 . S
C70 N69 1.321 . S
C70 H94 0.930 . S
H71 C66 0.931 . S
Co72 N69 2.135 . S
Co72 N75 2.121 . S
Co72 O80 2.055 . S
Co72 O83 2.039 . S
Co72 N86 2.140 . S
C73 O74 1.227 . S
C73 O83 1.265 . S
O74 C73 1.227 . S
N75 Co72 2.121 . S
N75 C77 1.375 . S
N75 C78 1.313 . S
C76 C77 1.338 . S
C76 N79 1.377 . S
C76 H96 0.930 . S
C77 N75 1.375 . S
C77 C76 1.338 . S
C77 H81 0.931 . S
C78 N75 1.313 . S
C78 N79 1.344 . S
C78 H82 0.930 . S
N79 C76 1.377 . S
N79 C78 1.344 . S
O80 Co72 2.055 . S
O80 C84 1.253 . S
H81 C77 0.931 . S
H82 C78 0.930 . S
O83 Co72 2.039 . S
O83 C73 1.265 . S
C84 O80 1.253 . S
C84 O85 1.227 . S
O85 C84 1.227 . S
N86 Co72 2.140 . S
N86 C89 1.346 . S
N86 C90 1.345 . S
C87 C88 1.387 . S
C87 C91 1.391 . S
C88 C87 1.387 . S
C88 C89 1.369 . S
C88 H97 0.929 . S
C89 N86 1.346 . S
C89 C88 1.369 . S
C89 H92 0.928 . S
C90 N86 1.345 . S
C90 C91 1.371 . S
C90 H93 0.931 . S
C91 C87 1.391 . S
C91 C90 1.371 . S
C91 H98 0.930 . S
H92 C89 0.928 . S
H93 C90 0.931 . S
H94 C70 0.930 . S
H95 C67 0.930 . S
H96 C76 0.930 . S
H97 C88 0.929 . S
H98 C91 0.930 . S
C99 C100 1.351 . S
C99 N102 1.368 . S
C99 H104 0.931 . S
C100 C99 1.351 . S
C100 N101 1.373 . S
C100 H128 0.930 . S
N101 C100 1.373 . S
N101 C103 1.340 . S
N102 C99 1.368 . S
N102 C103 1.321 . S
N102 Co105 2.135 . S
C103 N101 1.340 . S
C103 N102 1.321 . S
C103 H127 0.930 . S
H104 C99 0.931 . S
Co105 N102 2.135 . S
Co105 N108 2.121 . S
Co105 O113 2.055 . S
Co105 O116 2.039 . S
Co105 N119 2.140 . S
C106 O107 1.227 . S
C106 O116 1.265 . S
O107 C106 1.227 . S
N108 Co105 2.121 . S
N108 C110 1.375 . S
N108 C111 1.313 . S
C109 C110 1.338 . S
C109 N112 1.377 . S
C109 H129 0.930 . S
C110 N108 1.375 . S
C110 C109 1.338 . S
C110 H114 0.931 . S
C111 N108 1.313 . S
C111 N112 1.344 . S
C111 H115 0.930 . S
N112 C109 1.377 . S
N112 C111 1.344 . S
O113 Co105 2.055 . S
O113 C117 1.253 . S
H114 C110 0.931 . S
H115 C111 0.930 . S
O116 Co105 2.039 . S
O116 C106 1.265 . S
C117 O113 1.253 . S
C117 O118 1.227 . S
O118 C117 1.227 . S
N119 Co105 2.140 . S
N119 C122 1.346 . S
N119 C123 1.345 . S
C120 C121 1.387 . S
C120 C124 1.391 . S
C121 C120 1.387 . S
C121 C122 1.369 . S
C121 H130 0.929 . S
C122 N119 1.346 . S
C122 C121 1.369 . S
C122 H125 0.928 . S
C123 N119 1.345 . S
C123 C124 1.371 . S
C123 H126 0.931 . S
C124 C120 1.391 . S
C124 C123 1.371 . S
C124 H131 0.930 . S
H125 C122 0.928 . S
H126 C123 0.931 . S
H127 C103 0.930 . S
H128 C100 0.930 . S
H129 C109 0.930 . S
H130 C121 0.929 . S
H131 C124 0.930 . S
C132 C133 1.351 . S
C132 N135 1.368 . S
C132 H137 0.931 . S
C133 C132 1.351 . S
C133 N134 1.373 . S
C133 H161 0.930 . S
N134 C133 1.373 . S
N134 C136 1.340 . S
N135 C132 1.368 . S
N135 C136 1.321 . S
N135 Co138 2.135 . S
C136 N134 1.340 . S
C136 N135 1.321 . S
C136 H160 0.930 . S
H137 C132 0.931 . S
Co138 N135 2.135 . S
Co138 N141 2.121 . S
Co138 O146 2.055 . S
Co138 O149 2.039 . S
Co138 N152 2.140 . S
C139 O140 1.227 . S
C139 O149 1.265 . S
O140 C139 1.227 . S
N141 Co138 2.121 . S
N141 C143 1.375 . S
N141 C144 1.313 . S
C142 C143 1.338 . S
C142 N145 1.377 . S
C142 H162 0.930 . S
C143 N141 1.375 . S
C143 C142 1.338 . S
C143 H147 0.931 . S
C144 N141 1.313 . S
C144 N145 1.344 . S
C144 H148 0.930 . S
N145 C142 1.377 . S
N145 C144 1.344 . S
O146 Co138 2.055 . S
O146 C150 1.253 . S
H147 C143 0.931 . S
H148 C144 0.930 . S
O149 Co138 2.039 . S
O149 C139 1.265 . S
C150 O146 1.253 . S
C150 O151 1.227 . S
O151 C150 1.227 . S
N152 Co138 2.140 . S
N152 C155 1.346 . S
N152 C156 1.345 . S
C153 C154 1.387 . S
C153 C157 1.391 . S
C154 C153 1.387 . S
C154 C155 1.369 . S
C154 H163 0.929 . S
C155 N152 1.346 . S
C155 C154 1.369 . S
C155 H158 0.928 . S
C156 N152 1.345 . S
C156 C157 1.371 . S
C156 H159 0.931 . S
C157 C153 1.391 . S
C157 C156 1.371 . S
C157 H164 0.930 . S
H158 C155 0.928 . S
H159 C156 0.931 . S
H160 C136 0.930 . S
H161 C133 0.930 . S
H162 C142 0.930 . S
H163 C154 0.929 . S
H164 C157 0.930 . S
C165 C166 1.351 . S
C165 N168 1.368 . S
C165 H170 0.931 . S
C166 C165 1.351 . S
C166 N167 1.373 . S
C166 H194 0.930 . S
N167 C166 1.373 . S
N167 C169 1.340 . S
N168 C165 1.368 . S
N168 C169 1.321 . S
N168 Co171 2.135 . S
C169 N167 1.340 . S
C169 N168 1.321 . S
C169 H193 0.930 . S
H170 C165 0.931 . S
Co171 N168 2.135 . S
Co171 N174 2.121 . S
Co171 O179 2.055 . S
Co171 O182 2.039 . S
Co171 N185 2.140 . S
C172 O173 1.227 . S
C172 O182 1.265 . S
O173 C172 1.227 . S
N174 Co171 2.121 . S
N174 C176 1.375 . S
N174 C177 1.313 . S
C175 C176 1.338 . S
C175 N178 1.377 . S
C175 H195 0.930 . S
C176 N174 1.375 . S
C176 C175 1.338 . S
C176 H180 0.931 . S
C177 N174 1.313 . S
C177 N178 1.344 . S
C177 H181 0.930 . S
N178 C175 1.377 . S
N178 C177 1.344 . S
O179 Co171 2.055 . S
O179 C183 1.253 . S
H180 C176 0.931 . S
H181 C177 0.930 . S
O182 Co171 2.039 . S
O182 C172 1.265 . S
C183 O179 1.253 . S
C183 O184 1.227 . S
O184 C183 1.227 . S
N185 Co171 2.140 . S
N185 C188 1.346 . S
N185 C189 1.345 . S
C186 C187 1.387 . S
C186 C190 1.391 . S
C187 C186 1.387 . S
C187 C188 1.369 . S
C187 H196 0.929 . S
C188 N185 1.346 . S
C188 C187 1.369 . S
C188 H191 0.928 . S
C189 N185 1.345 . S
C189 C190 1.371 . S
C189 H192 0.931 . S
C190 C186 1.391 . S
C190 C189 1.371 . S
C190 H197 0.930 . S
H191 C188 0.928 . S
H192 C189 0.931 . S
H193 C169 0.930 . S
H194 C166 0.930 . S
H195 C175 0.930 . S
H196 C187 0.929 . S
H197 C190 0.930 . S
C198 C199 1.351 . S
C198 N201 1.368 . S
C198 H203 0.931 . S
C199 C198 1.351 . S
C199 N200 1.373 1_556 S
C199 H227 0.930 . S
N200 C199 1.373 1_554 S
N200 C202 1.340 . S
N201 C198 1.368 . S
N201 C202 1.321 1_556 S
N201 Co204 2.135 . S
C202 N200 1.340 . S
C202 N201 1.321 1_554 S
C202 H226 0.930 . S
H203 C198 0.931 . S
Co204 N201 2.135 . S
Co204 N207 2.121 . S
Co204 O212 2.055 . S
Co204 O215 2.039 1_556 S
Co204 N218 2.140 1_556 S
C205 O206 1.227 . S
C205 O215 1.265 . S
O206 C205 1.227 . S
N207 Co204 2.121 . S
N207 C209 1.375 1_556 S
N207 C210 1.313 . S
C208 C209 1.338 . S
C208 N211 1.377 1_554 S
C208 H228 0.930 . S
C209 N207 1.375 1_554 S
C209 C208 1.338 . S
C209 H213 0.931 . S
C210 N207 1.313 . S
C210 N211 1.344 . S
C210 H214 0.930 . S
N211 C208 1.377 1_556 S
N211 C210 1.344 . S
O212 Co204 2.055 . S
O212 C216 1.253 . S
H213 C209 0.931 . S
H214 C210 0.930 . S
O215 Co204 2.039 1_554 S
O215 C205 1.265 . S
C216 O212 1.253 . S
C216 O217 1.227 . S
O217 C216 1.227 . S
N218 Co204 2.140 1_554 S
N218 C221 1.346 . S
N218 C222 1.345 1_554 S
C219 C220 1.387 . S
C219 C223 1.391 1_554 S
C220 C219 1.387 . S
C220 C221 1.369 . S
C220 H229 0.929 . S
C221 N218 1.346 . S
C221 C220 1.369 . S
C221 H224 0.928 . S
C222 N218 1.345 1_556 S
C222 C223 1.371 . S
C222 H225 0.931 . S
C223 C219 1.391 1_556 S
C223 C222 1.371 . S
C223 H230 0.930 . S
H224 C221 0.928 . S
H225 C222 0.931 . S
H226 C202 0.930 . S
H227 C199 0.930 . S
H228 C208 0.930 . S
H229 C220 0.929 . S
H230 C223 0.930 . S
C231 C232 1.351 . S
C231 N234 1.368 . S
C231 H236 0.931 . S
C232 C231 1.351 . S
C232 N233 1.373 . S
C232 H260 0.930 . S
N233 C232 1.373 . S
N233 C235 1.340 . S
N234 C231 1.368 . S
N234 C235 1.321 . S
N234 Co237 2.135 . S
C235 N233 1.340 . S
C235 N234 1.321 . S
C235 H259 0.930 . S
H236 C231 0.931 . S
Co237 N234 2.135 . S
Co237 N240 2.121 . S
Co237 O245 2.055 . S
Co237 O248 2.039 . S
Co237 N251 2.140 . S
C238 O239 1.227 . S
C238 O248 1.265 . S
O239 C238 1.227 . S
N240 Co237 2.121 . S
N240 C242 1.375 . S
N240 C243 1.313 . S
C241 C242 1.338 . S
C241 N244 1.377 . S
C241 H261 0.930 . S
C242 N240 1.375 . S
C242 C241 1.338 . S
C242 H246 0.931 . S
C243 N240 1.313 . S
C243 N244 1.344 . S
C243 H247 0.930 . S
N244 C241 1.377 . S
N244 C243 1.344 . S
O245 Co237 2.055 . S
O245 C249 1.253 . S
H246 C242 0.931 . S
H247 C243 0.930 . S
O248 Co237 2.039 . S
O248 C238 1.265 . S
C249 O245 1.253 . S
C249 O250 1.227 . S
O250 C249 1.227 . S
N251 Co237 2.140 . S
N251 C254 1.346 . S
N251 C255 1.345 . S
C252 C253 1.387 . S
C252 C256 1.391 . S
C253 C252 1.387 . S
C253 C254 1.369 . S
C253 H262 0.929 . S
C254 N251 1.346 . S
C254 C253 1.369 . S
C254 H257 0.928 . S
C255 N251 1.345 . S
C255 C256 1.371 . S
C255 H258 0.931 . S
C256 C252 1.391 . S
C256 C255 1.371 . S
C256 H263 0.930 . S
H257 C254 0.928 . S
H258 C255 0.931 . S
H259 C235 0.930 . S
H260 C232 0.930 . S
H261 C241 0.930 . S
H262 C253 0.929 . S
H263 C256 0.930 . S
C264 C265 1.351 . S
C264 N267 1.368 . S
C264 H269 0.931 . S
C265 C264 1.351 . S
C265 N266 1.373 . S
C265 H293 0.930 . S
N266 C265 1.373 . S
N266 C268 1.340 . S
N267 C264 1.368 . S
N267 C268 1.321 . S
N267 Co270 2.135 . S
C268 N266 1.340 . S
C268 N267 1.321 . S
C268 H292 0.930 . S
H269 C264 0.931 . S
Co270 N267 2.135 . S
Co270 N273 2.121 . S
Co270 O278 2.055 . S
Co270 O281 2.039 . S
Co270 N284 2.140 . S
C271 O272 1.227 . S
C271 O281 1.265 . S
O272 C271 1.227 . S
N273 Co270 2.121 . S
N273 C275 1.375 . S
N273 C276 1.313 . S
C274 C275 1.338 . S
C274 N277 1.377 . S
C274 H294 0.930 . S
C275 N273 1.375 . S
C275 C274 1.338 . S
C275 H279 0.931 . S
C276 N273 1.313 . S
C276 N277 1.344 . S
C276 H280 0.930 . S
N277 C274 1.377 . S
N277 C276 1.344 . S
O278 Co270 2.055 . S
O278 C282 1.253 . S
H279 C275 0.931 . S
H280 C276 0.930 . S
O281 Co270 2.039 . S
O281 C271 1.265 . S
C282 O278 1.253 . S
C282 O283 1.227 . S
O283 C282 1.227 . S
N284 Co270 2.140 . S
N284 C287 1.346 . S
N284 C288 1.345 . S
C285 C286 1.387 . S
C285 C289 1.391 . S
C286 C285 1.387 . S
C286 C287 1.369 . S
C286 H295 0.929 . S
C287 N284 1.346 . S
C287 C286 1.369 . S
C287 H290 0.928 . S
C288 N284 1.345 . S
C288 C289 1.371 . S
C288 H291 0.931 . S
C289 C285 1.391 . S
C289 C288 1.371 . S
C289 H296 0.930 . S
H290 C287 0.928 . S
H291 C288 0.931 . S
H292 C268 0.930 . S
H293 C265 0.930 . S
H294 C274 0.930 . S
H295 C286 0.929 . S
H296 C289 0.930 . S
C297 C298 1.351 . S
C297 N300 1.368 . S
C297 H302 0.931 . S
C298 C297 1.351 . S
C298 N299 1.373 . S
C298 H326 0.930 . S
N299 C298 1.373 . S
N299 C301 1.340 . S
N300 C297 1.368 . S
N300 C301 1.321 . S
N300 Co303 2.135 . S
C301 N299 1.340 . S
C301 N300 1.321 . S
C301 H325 0.930 . S
H302 C297 0.931 . S
Co303 N300 2.135 . S
Co303 N306 2.121 . S
Co303 O311 2.055 . S
Co303 O314 2.039 . S
Co303 N317 2.140 . S
C304 O305 1.227 . S
C304 O314 1.265 . S
O305 C304 1.227 . S
N306 Co303 2.121 . S
N306 C308 1.375 . S
N306 C309 1.313 . S
C307 C308 1.338 . S
C307 N310 1.377 . S
C307 H327 0.930 . S
C308 N306 1.375 . S
C308 C307 1.338 . S
C308 H312 0.931 . S
C309 N306 1.313 . S
C309 N310 1.344 . S
C309 H313 0.930 . S
N310 C307 1.377 . S
N310 C309 1.344 . S
O311 Co303 2.055 . S
O311 C315 1.253 . S
H312 C308 0.931 . S
H313 C309 0.930 . S
O314 Co303 2.039 . S
O314 C304 1.265 . S
C315 O311 1.253 . S
C315 O316 1.227 . S
O316 C315 1.227 . S
N317 Co303 2.140 . S
N317 C320 1.346 . S
N317 C321 1.345 . S
C318 C319 1.387 . S
C318 C322 1.391 . S
C319 C318 1.387 . S
C319 C320 1.369 . S
C319 H328 0.929 . S
C320 N317 1.346 . S
C320 C319 1.369 . S
C320 H323 0.928 . S
C321 N317 1.345 . S
C321 C322 1.371 . S
C321 H324 0.931 . S
C322 C318 1.391 . S
C322 C321 1.371 . S
C322 H329 0.930 . S
H323 C320 0.928 . S
H324 C321 0.931 . S
H325 C301 0.930 . S
H326 C298 0.930 . S
H327 C307 0.930 . S
H328 C319 0.929 . S
H329 C322 0.930 . S
C330 C331 1.351 . S
C330 N333 1.368 . S
C330 H335 0.931 . S
C331 C330 1.351 . S
C331 N332 1.373 1_556 S
C331 H359 0.930 . S
N332 C331 1.373 1_554 S
N332 C334 1.340 . S
N333 C330 1.368 . S
N333 C334 1.321 1_556 S
N333 Co336 2.135 . S
C334 N332 1.340 . S
C334 N333 1.321 1_554 S
C334 H358 0.930 . S
H335 C330 0.931 . S
Co336 N333 2.135 . S
Co336 N339 2.121 . S
Co336 O344 2.055 . S
Co336 O347 2.039 1_556 S
Co336 N350 2.140 1_556 S
C337 O338 1.227 . S
C337 O347 1.265 . S
O338 C337 1.227 . S
N339 Co336 2.121 . S
N339 C341 1.375 1_556 S
N339 C342 1.313 . S
C340 C341 1.338 . S
C340 N343 1.377 1_554 S
C340 H360 0.930 . S
C341 N339 1.375 1_554 S
C341 C340 1.338 . S
C341 H345 0.931 . S
C342 N339 1.313 . S
C342 N343 1.344 . S
C342 H346 0.930 . S
N343 C340 1.377 1_556 S
N343 C342 1.344 . S
O344 Co336 2.055 . S
O344 C348 1.253 . S
H345 C341 0.931 . S
H346 C342 0.930 . S
O347 Co336 2.039 1_554 S
O347 C337 1.265 . S
C348 O344 1.253 . S
C348 O349 1.227 . S
O349 C348 1.227 . S
N350 Co336 2.140 1_554 S
N350 C353 1.346 . S
N350 C354 1.345 1_554 S
C351 C352 1.387 . S
C351 C355 1.391 1_554 S
C352 C351 1.387 . S
C352 C353 1.369 . S
C352 H361 0.929 . S
C353 N350 1.346 . S
C353 C352 1.369 . S
C353 H356 0.928 . S
C354 N350 1.345 1_556 S
C354 C355 1.371 . S
C354 H357 0.931 . S
C355 C351 1.391 1_556 S
C355 C354 1.371 . S
C355 H362 0.930 . S
H356 C353 0.928 . S
H357 C354 0.931 . S
H358 C334 0.930 . S
H359 C331 0.930 . S
H360 C340 0.930 . S
H361 C352 0.929 . S
H362 C355 0.930 . S
C363 C364 1.351 . S
C363 N366 1.368 . S
C363 H368 0.931 . S
C364 C363 1.351 . S
C364 N365 1.373 . S
C364 H392 0.930 . S
N365 C364 1.373 . S
N365 C367 1.340 . S
N366 C363 1.368 . S
N366 C367 1.321 . S
N366 Co369 2.135 . S
C367 N365 1.340 . S
C367 N366 1.321 . S
C367 H391 0.930 . S
H368 C363 0.931 . S
Co369 N366 2.135 . S
Co369 N372 2.121 . S
Co369 O377 2.055 . S
Co369 O380 2.039 . S
Co369 N383 2.140 . S
C370 O371 1.227 . S
C370 O380 1.265 . S
O371 C370 1.227 . S
N372 Co369 2.121 . S
N372 C374 1.375 . S
N372 C375 1.313 . S
C373 C374 1.338 . S
C373 N376 1.377 . S
C373 H393 0.930 . S
C374 N372 1.375 . S
C374 C373 1.338 . S
C374 H378 0.931 . S
C375 N372 1.313 . S
C375 N376 1.344 . S
C375 H379 0.930 . S
N376 C373 1.377 . S
N376 C375 1.344 . S
O377 Co369 2.055 . S
O377 C381 1.253 . S
H378 C374 0.931 . S
H379 C375 0.930 . S
O380 Co369 2.039 . S
O380 C370 1.265 . S
C381 O377 1.253 . S
C381 O382 1.227 . S
O382 C381 1.227 . S
N383 Co369 2.140 . S
N383 C386 1.346 . S
N383 C387 1.345 . S
C384 C385 1.387 . S
C384 C388 1.391 . S
C385 C384 1.387 . S
C385 C386 1.369 . S
C385 H394 0.929 . S
C386 N383 1.346 . S
C386 C385 1.369 . S
C386 H389 0.928 . S
C387 N383 1.345 . S
C387 C388 1.371 . S
C387 H390 0.931 . S
C388 C384 1.391 . S
C388 C387 1.371 . S
C388 H395 0.930 . S
H389 C386 0.928 . S
H390 C387 0.931 . S
H391 C367 0.930 . S
H392 C364 0.930 . S
H393 C373 0.930 . S
H394 C385 0.929 . S
H395 C388 0.930 . S
C396 C397 1.351 . S
C396 N399 1.368 . S
C396 H401 0.931 . S
C397 C396 1.351 . S
C397 N398 1.373 1_556 S
C397 H425 0.930 . S
N398 C397 1.373 1_554 S
N398 C400 1.340 . S
N399 C396 1.368 . S
N399 C400 1.321 1_556 S
N399 Co402 2.135 . S
C400 N398 1.340 . S
C400 N399 1.321 1_554 S
C400 H424 0.930 . S
H401 C396 0.931 . S
Co402 N399 2.135 . S
Co402 N405 2.121 . S
Co402 O410 2.055 . S
Co402 O413 2.039 1_556 S
Co402 N416 2.140 1_556 S
C403 O404 1.227 . S
C403 O413 1.265 . S
O404 C403 1.227 . S
N405 Co402 2.121 . S
N405 C407 1.375 1_556 S
N405 C408 1.313 . S
C406 C407 1.338 . S
C406 N409 1.377 1_554 S
C406 H426 0.930 . S
C407 N405 1.375 1_554 S
C407 C406 1.338 . S
C407 H411 0.931 . S
C408 N405 1.313 . S
C408 N409 1.344 . S
C408 H412 0.930 . S
N409 C406 1.377 1_556 S
N409 C408 1.344 . S
O410 Co402 2.055 . S
O410 C414 1.253 . S
H411 C407 0.931 . S
H412 C408 0.930 . S
O413 Co402 2.039 1_554 S
O413 C403 1.265 . S
C414 O410 1.253 . S
C414 O415 1.227 . S
O415 C414 1.227 . S
N416 Co402 2.140 1_554 S
N416 C419 1.346 . S
N416 C420 1.345 1_554 S
C417 C418 1.387 . S
C417 C421 1.391 1_554 S
C418 C417 1.387 . S
C418 C419 1.369 . S
C418 H427 0.929 . S
C419 N416 1.346 . S
C419 C418 1.369 . S
C419 H422 0.928 . S
C420 N416 1.345 1_556 S
C420 C421 1.371 . S
C420 H423 0.931 . S
C421 C417 1.391 1_556 S
C421 C420 1.371 . S
C421 H428 0.930 . S
H422 C419 0.928 . S
H423 C420 0.931 . S
H424 C400 0.930 . S
H425 C397 0.930 . S
H426 C406 0.930 . S
H427 C418 0.929 . S
H428 C421 0.930 . S
C429 C430 1.351 . S
C429 N432 1.368 . S
C429 H434 0.931 . S
C430 C429 1.351 . S
C430 N431 1.373 . S
C430 H458 0.930 . S
N431 C430 1.373 . S
N431 C433 1.340 . S
N432 C429 1.368 . S
N432 C433 1.321 . S
N432 Co435 2.135 . S
C433 N431 1.340 . S
C433 N432 1.321 . S
C433 H457 0.930 . S
H434 C429 0.931 . S
Co435 N432 2.135 . S
Co435 N438 2.121 . S
Co435 O443 2.055 . S
Co435 O446 2.039 . S
Co435 N449 2.140 . S
C436 O437 1.227 . S
C436 O446 1.265 . S
O437 C436 1.227 . S
N438 Co435 2.121 . S
N438 C440 1.375 . S
N438 C441 1.313 . S
C439 C440 1.338 . S
C439 N442 1.377 . S
C439 H459 0.930 . S
C440 N438 1.375 . S
C440 C439 1.338 . S
C440 H444 0.931 . S
C441 N438 1.313 . S
C441 N442 1.344 . S
C441 H445 0.930 . S
N442 C439 1.377 . S
N442 C441 1.344 . S
O443 Co435 2.055 . S
O443 C447 1.253 . S
H444 C440 0.931 . S
H445 C441 0.930 . S
O446 Co435 2.039 . S
O446 C436 1.265 . S
C447 O443 1.253 . S
C447 O448 1.227 . S
O448 C447 1.227 . S
N449 Co435 2.140 . S
N449 C452 1.346 . S
N449 C453 1.345 . S
C450 C451 1.387 . S
C450 C454 1.391 . S
C451 C450 1.387 . S
C451 C452 1.369 . S
C451 H460 0.929 . S
C452 N449 1.346 . S
C452 C451 1.369 . S
C452 H455 0.928 . S
C453 N449 1.345 . S
C453 C454 1.371 . S
C453 H456 0.931 . S
C454 C450 1.391 . S
C454 C453 1.371 . S
C454 H461 0.930 . S
H455 C452 0.928 . S
H456 C453 0.931 . S
H457 C433 0.930 . S
H458 C430 0.930 . S
H459 C439 0.930 . S
H460 C451 0.929 . S
H461 C454 0.930 . S
C462 C463 1.351 . S
C462 N465 1.368 . S
C462 H467 0.931 . S
C463 C462 1.351 . S
C463 N464 1.373 . S
C463 H491 0.930 . S
N464 C463 1.373 . S
N464 C466 1.340 . S
N465 C462 1.368 . S
N465 C466 1.321 . S
N465 Co468 2.135 . S
C466 N464 1.340 . S
C466 N465 1.321 . S
C466 H490 0.930 . S
H467 C462 0.931 . S
Co468 N465 2.135 . S
Co468 N471 2.121 . S
Co468 O476 2.055 . S
Co468 O479 2.039 . S
Co468 N482 2.140 . S
C469 O470 1.227 . S
C469 O479 1.265 . S
O470 C469 1.227 . S
N471 Co468 2.121 . S
N471 C473 1.375 . S
N471 C474 1.313 . S
C472 C473 1.338 . S
C472 N475 1.377 . S
C472 H492 0.930 . S
C473 N471 1.375 . S
C473 C472 1.338 . S
C473 H477 0.931 . S
C474 N471 1.313 . S
C474 N475 1.344 . S
C474 H478 0.930 . S
N475 C472 1.377 . S
N475 C474 1.344 . S
O476 Co468 2.055 . S
O476 C480 1.253 . S
H477 C473 0.931 . S
H478 C474 0.930 . S
O479 Co468 2.039 . S
O479 C469 1.265 . S
C480 O476 1.253 . S
C480 O481 1.227 . S
O481 C480 1.227 . S
N482 Co468 2.140 . S
N482 C485 1.346 . S
N482 C486 1.345 . S
C483 C484 1.387 . S
C483 C487 1.391 . S
C484 C483 1.387 . S
C484 C485 1.369 . S
C484 H493 0.929 . S
C485 N482 1.346 . S
C485 C484 1.369 . S
C485 H488 0.928 . S
C486 N482 1.345 . S
C486 C487 1.371 . S
C486 H489 0.931 . S
C487 C483 1.391 . S
C487 C486 1.371 . S
C487 H494 0.930 . S
H488 C485 0.928 . S
H489 C486 0.931 . S
H490 C466 0.930 . S
H491 C463 0.930 . S
H492 C472 0.930 . S
H493 C484 0.929 . S
H494 C487 0.930 . S
C495 C496 1.351 . S
C495 N498 1.368 . S
C495 H500 0.931 . S
C496 C495 1.351 . S
C496 N497 1.373 . S
C496 H524 0.930 . S
N497 C496 1.373 . S
N497 C499 1.340 . S
N498 C495 1.368 . S
N498 C499 1.321 . S
N498 Co501 2.135 . S
C499 N497 1.340 . S
C499 N498 1.321 . S
C499 H523 0.930 . S
H500 C495 0.931 . S
Co501 N498 2.135 . S
Co501 N504 2.121 . S
Co501 O509 2.055 . S
Co501 O512 2.039 . S
Co501 N515 2.140 . S
C502 O503 1.227 . S
C502 O512 1.265 . S
O503 C502 1.227 . S
N504 Co501 2.121 . S
N504 C506 1.375 . S
N504 C507 1.313 . S
C505 C506 1.338 . S
C505 N508 1.377 . S
C505 H525 0.930 . S
C506 N504 1.375 . S
C506 C505 1.338 . S
C506 H510 0.931 . S
C507 N504 1.313 . S
C507 N508 1.344 . S
C507 H511 0.930 . S
N508 C505 1.377 . S
N508 C507 1.344 . S
O509 Co501 2.055 . S
O509 C513 1.253 . S
H510 C506 0.931 . S
H511 C507 0.930 . S
O512 Co501 2.039 . S
O512 C502 1.265 . S
C513 O509 1.253 . S
C513 O514 1.227 . S
O514 C513 1.227 . S
N515 Co501 2.140 . S
N515 C518 1.346 . S
N515 C519 1.345 . S
C516 C517 1.387 . S
C516 C520 1.391 . S
C517 C516 1.387 . S
C517 C518 1.369 . S
C517 H526 0.929 . S
C518 N515 1.346 . S
C518 C517 1.369 . S
C518 H521 0.928 . S
C519 N515 1.345 . S
C519 C520 1.371 . S
C519 H522 0.931 . S
C520 C516 1.391 . S
C520 C519 1.371 . S
C520 H527 0.930 . S
H521 C518 0.928 . S
H522 C519 0.931 . S
H523 C499 0.930 . S
H524 C496 0.930 . S
H525 C505 0.930 . S
H526 C517 0.929 . S
H527 C520 0.930 . S
C528 C529 1.387 1_556 S
C528 H532 0.950 . S
C528 C537 1.390 1_665 S
C529 C528 1.387 1_554 S
C529 C531 1.387 . S
H530 C537 0.950 . S
C531 C529 1.387 . S
C531 C533 1.390 1_665 S
C531 H535 0.950 . S
H532 C528 0.950 . S
C533 C531 1.390 1_445 S
C533 C534 1.387 . S
C533 H536 0.950 . S
C534 C533 1.387 . S
C534 C537 1.387 1_554 S
H535 C531 0.950 . S
H536 C533 0.950 . S
C537 C528 1.390 1_445 S
C537 H530 0.950 . S
C537 C534 1.387 1_556 S
C538 C539 1.387 . S
C538 H542 0.950 . S
C538 C547 1.390 1_655 S
C539 C538 1.387 . S
C539 C541 1.387 . S
H540 C547 0.950 . S
C541 C539 1.387 . S
C541 C543 1.390 1_655 S
C541 H545 0.950 . S
H542 C538 0.950 . S
C543 C541 1.390 1_455 S
C543 C544 1.387 . S
C543 H546 0.950 . S
C544 C543 1.387 . S
C544 C547 1.387 . S
H545 C541 0.950 . S
H546 C543 0.950 . S
C547 C538 1.390 1_455 S
C547 H540 0.950 . S
C547 C544 1.387 . S
C548 C549 1.387 . S
C548 H552 0.950 . S
C548 C557 1.390 . S
C549 C548 1.387 . S
C549 C551 1.387 . S
H550 C557 0.950 . S
C551 C549 1.387 . S
C551 C553 1.390 . S
C551 H555 0.950 . S
H552 C548 0.950 . S
C553 C551 1.390 . S
C553 C554 1.387 . S
C553 H556 0.950 . S
C554 C553 1.387 . S
C554 C557 1.387 . S
H555 C551 0.950 . S
H556 C553 0.950 . S
C557 C548 1.390 . S
C557 H550 0.950 . S
C557 C554 1.387 . S
C558 C559 1.387 . S
C558 H562 0.950 . S
C558 C567 1.390 1_565 S
C559 C558 1.387 . S
C559 C561 1.387 . S
H560 C567 0.950 . S
C561 C559 1.387 . S
C561 C563 1.390 1_565 S
C561 H565 0.950 . S
H562 C558 0.950 . S
C563 C561 1.390 1_545 S
C563 C564 1.387 . S
C563 H566 0.950 . S
C564 C563 1.387 . S
C564 C567 1.387 . S
H565 C561 0.950 . S
H566 C563 0.950 . S
C567 C558 1.390 1_545 S
C567 H560 0.950 . S
C567 C564 1.387 . S
C568 C569 1.387 . S
C568 H572 0.950 . S
C568 C577 1.390 1_465 S
C569 C568 1.387 . S
C569 C571 1.387 . S
H570 C577 0.950 . S
C571 C569 1.387 . S
C571 C573 1.390 1_465 S
C571 H575 0.950 . S
H572 C568 0.950 . S
C573 C571 1.390 1_645 S
C573 C574 1.387 . S
C573 H576 0.950 . S
C574 C573 1.387 . S
C574 C577 1.387 . S
H575 C571 0.950 . S
H576 C573 0.950 . S
C577 C568 1.390 1_645 S
C577 H570 0.950 . S
C577 C574 1.387 . S
C578 C579 1.387 . S
C578 H582 0.950 . S
C578 C587 1.390 1_655 S
C579 C578 1.387 . S
C579 C581 1.387 . S
H580 C587 0.950 . S
C581 C579 1.387 . S
C581 C583 1.390 1_655 S
C581 H585 0.950 . S
H582 C578 0.950 . S
C583 C581 1.390 1_455 S
C583 C584 1.387 . S
C583 H586 0.950 . S
C584 C583 1.387 . S
C584 C587 1.387 . S
H585 C581 0.950 . S
H586 C583 0.950 . S
C587 C578 1.390 1_455 S
C587 H580 0.950 . S
C587 C584 1.387 . S
C588 C589 1.387 . S
C588 H592 0.950 . S
C588 C597 1.390 . S
C589 C588 1.387 . S
C589 C591 1.387 1_554 S
H590 C597 0.950 . S
C591 C589 1.387 1_556 S
C591 C593 1.390 . S
C591 H595 0.950 . S
H592 C588 0.950 . S
C593 C591 1.390 . S
C593 C594 1.387 1_556 S
C593 H596 0.950 . S
C594 C593 1.387 1_554 S
C594 C597 1.387 . S
H595 C591 0.950 . S
H596 C593 0.950 . S
C597 C588 1.390 . S
C597 H590 0.950 . S
C597 C594 1.387 . S
C598 C599 1.387 . S
C598 H602 0.950 . S
C598 C607 1.390 1_565 S
C599 C598 1.387 . S
C599 C601 1.387 . S
H600 C607 0.950 . S
C601 C599 1.387 . S
C601 C603 1.390 1_565 S
C601 H605 0.950 . S
H602 C598 0.950 . S
C603 C601 1.390 1_545 S
C603 C604 1.387 . S
C603 H606 0.950 . S
C604 C603 1.387 . S
C604 C607 1.387 . S
H605 C601 0.950 . S
H606 C603 0.950 . S
C607 C598 1.390 1_545 S
C607 H600 0.950 . S
C607 C604 1.387 . S
C608 C609 1.387 . S
C608 H612 0.950 . S
C608 C617 1.390 . S
C609 C608 1.387 . S
C609 C611 1.387 . S
H610 C617 0.950 . S
C611 C609 1.387 . S
C611 C613 1.390 1_565 S
C611 H615 0.950 . S
H612 C608 0.950 . S
C613 C611 1.390 1_545 S
C613 C614 1.387 . S
C613 H616 0.950 . S
C614 C613 1.387 . S
C614 C617 1.387 1_545 S
H615 C611 0.950 . S
H616 C613 0.950 . S
C617 C608 1.390 . S
C617 H610 0.950 . S
C617 C614 1.387 1_565 S
C618 C619 1.387 . S
C618 H622 0.950 . S
C618 C627 1.390 1_455 S
C619 C618 1.387 . S
C619 C621 1.387 . S
H620 C627 0.950 . S
C621 C619 1.387 . S
C621 C623 1.390 . S
C621 H625 0.950 . S
H622 C618 0.950 . S
C623 C621 1.390 . S
C623 C624 1.387 1_455 S
C623 H626 0.950 1_455 S
C624 C623 1.387 1_655 S
C624 C627 1.387 . S
H625 C621 0.950 . S
H626 C623 0.950 1_655 S
C627 C618 1.390 1_655 S
C627 H620 0.950 . S
C627 C624 1.387 . S
C628 C629 1.387 . S
C628 H632 0.950 . S
C628 C637 1.390 . S
C629 C628 1.387 . S
C629 C631 1.387 . S
H630 C637 0.950 . S
C631 C629 1.387 . S
C631 C633 1.390 . S
C631 H635 0.950 . S
H632 C628 0.950 . S
C633 C631 1.390 . S
C633 C634 1.387 . S
C633 H636 0.950 . S
C634 C633 1.387 . S
C634 C637 1.387 . S
H635 C631 0.950 . S
H636 C633 0.950 . S
C637 C628 1.390 . S
C637 H630 0.950 . S
C637 C634 1.387 . S
C638 C639 1.387 . S
C638 H642 0.950 . S
C638 C647 1.390 1_554 S
C639 C638 1.387 . S
C639 C641 1.387 . S
H640 C647 0.950 . S
C641 C639 1.387 . S
C641 C643 1.390 1_554 S
C641 H645 0.950 . S
H642 C638 0.950 . S
C643 C641 1.390 1_556 S
C643 C644 1.387 . S
C643 H646 0.950 . S
C644 C643 1.387 . S
C644 C647 1.387 . S
H645 C641 0.950 . S
H646 C643 0.950 . S
C647 C638 1.390 1_556 S
C647 H640 0.950 . S
C647 C644 1.387 . S
C648 C649 1.387 1_565 S
C648 H652 0.950 . S
C648 C657 1.390 . S
C649 C648 1.387 1_545 S
C649 C651 1.387 . S
H650 C657 0.950 . S
C651 C649 1.387 . S
C651 C653 1.390 1_545 S
C651 H655 0.950 . S
H652 C648 0.950 . S
C653 C651 1.390 1_565 S
C653 C654 1.387 . S
C653 H656 0.950 . S
C654 C653 1.387 . S
C654 C657 1.387 . S
H655 C651 0.950 . S
H656 C653 0.950 . S
C657 C648 1.390 . S
C657 H650 0.950 . S
C657 C654 1.387 . S
C658 C659 1.387 . S
C658 H662 0.950 . S
C658 C667 1.390 1_656 S
C659 C658 1.387 . S
C659 C661 1.389 . S
H660 C667 0.950 . S
C661 C659 1.389 . S
C661 C663 1.387 1_656 S
C661 H665 0.951 . S
H662 C658 0.950 . S
C663 C661 1.387 1_454 S
C663 C664 1.387 . S
C663 H666 0.950 . S
C664 C663 1.387 . S
C664 C667 1.387 . S
H665 C661 0.951 . S
H666 C663 0.950 . S
C667 C658 1.390 1_454 S
C667 H660 0.950 . S
C667 C664 1.387 . S
C668 C669 1.387 . S
C668 H672 0.950 . S
C668 C677 1.390 . S
C669 C668 1.387 . S
C669 C671 1.387 . S
H670 C677 0.950 . S
C671 C669 1.387 . S
C671 C673 1.390 . S
C671 H675 0.950 . S
H672 C668 0.950 . S
C673 C671 1.390 . S
C673 C674 1.387 . S
C673 H676 0.950 . S
C674 C673 1.387 . S
C674 C677 1.387 . S
H675 C671 0.950 . S
H676 C673 0.950 . S
C677 C668 1.390 . S
C677 H670 0.950 . S
C677 C674 1.387 . S
C678 C679 1.387 . S
C678 H682 0.950 . S
C678 C687 1.390 . S
C679 C678 1.387 . S
C679 C681 1.387 . S
H680 C687 0.950 . S
C681 C679 1.387 . S
C681 C683 1.390 . S
C681 H685 0.950 . S
H682 C678 0.950 . S
C683 C681 1.390 . S
C683 C684 1.387 . S
C683 H686 0.950 . S
C684 C683 1.387 . S
C684 C687 1.387 . S
H685 C681 0.950 . S
H686 C683 0.950 . S
C687 C678 1.390 . S
C687 H680 0.950 . S
C687 C684 1.387 . S
C688 C689 1.387 . S
C688 H692 0.950 . S
C688 C697 1.390 . S
C689 C688 1.387 . S
C689 C691 1.387 . S
H690 C697 0.950 . S
C691 C689 1.387 . S
C691 C693 1.390 . S
C691 H695 0.950 . S
H692 C688 0.950 . S
C693 C691 1.390 . S
C693 C694 1.387 . S
C693 H696 0.950 . S
C694 C693 1.387 . S
C694 C697 1.387 . S
H695 C691 0.950 . S
H696 C693 0.950 . S
C697 C688 1.390 . S
C697 H690 0.950 . S
C697 C694 1.387 . S
C698 C699 1.387 . S
C698 H702 0.950 . S
C698 C707 1.390 1_554 S
C699 C698 1.387 . S
C699 C701 1.387 . S
H700 C707 0.950 . S
C701 C699 1.387 . S
C701 C703 1.390 1_554 S
C701 H705 0.950 . S
H702 C698 0.950 . S
C703 C701 1.390 1_556 S
C703 C704 1.387 . S
C703 H706 0.950 . S
C704 C703 1.387 . S
C704 C707 1.387 . S
H705 C701 0.950 . S
H706 C703 0.950 . S
C707 C698 1.390 1_556 S
C707 H700 0.950 . S
C707 C704 1.387 . S
C708 C709 1.387 . S
C708 H712 0.950 . S
C708 C717 1.390 . S
C709 C708 1.387 . S
C709 C711 1.387 . S
H710 C717 0.950 . S
C711 C709 1.387 . S
C711 C713 1.390 1_545 S
C711 H715 0.950 . S
H712 C708 0.950 . S
C713 C711 1.390 1_565 S
C713 C714 1.387 . S
C713 H716 0.950 . S
C714 C713 1.387 . S
C714 C717 1.387 1_565 S
H715 C711 0.950 . S
H716 C713 0.950 . S
C717 C708 1.390 . S
C717 H710 0.950 . S
C717 C714 1.387 1_545 S
C718 C719 1.381 1_655 S
C718 H722 0.945 1_655 S
C718 C727 1.402 . S
C719 C718 1.381 1_455 S
C719 C721 1.387 . S
H720 C727 0.950 . S
C721 C719 1.387 . S
C721 C723 1.390 1_455 S
C721 H725 0.950 . S
H722 C718 0.945 1_455 S
C723 C721 1.390 1_655 S
C723 C724 1.387 . S
C723 H726 0.950 . S
C724 C723 1.387 . S
C724 C727 1.387 . S
H725 C721 0.950 . S
H726 C723 0.950 . S
C727 C718 1.402 . S
C727 H720 0.950 . S
C727 C724 1.387 . S
C728 C729 1.387 . S
C728 H732 0.950 . S
C728 C737 1.390 . S
C729 C728 1.387 . S
C729 C731 1.387 . S
H730 C737 0.950 . S
C731 C729 1.387 . S
C731 C733 1.390 . S
C731 H735 0.950 . S
H732 C728 0.950 . S
C733 C731 1.390 . S
C733 C734 1.387 . S
C733 H736 0.950 . S
C734 C733 1.387 . S
C734 C737 1.387 . S
H735 C731 0.950 . S
H736 C733 0.950 . S
C737 C728 1.390 . S
C737 H730 0.950 . S
C737 C734 1.387 . S
C738 C739 1.387 . S
C738 H742 0.950 . S
C738 C747 1.390 . S
C739 C738 1.387 . S
C739 C741 1.387 . S
H740 C747 0.950 . S
C741 C739 1.387 . S
C741 C743 1.390 . S
C741 H745 0.950 . S
H742 C738 0.950 . S
C743 C741 1.390 . S
C743 C744 1.387 . S
C743 H746 0.950 . S
C744 C743 1.387 . S
C744 C747 1.387 . S
H745 C741 0.950 . S
H746 C743 0.950 . S
C747 C738 1.390 . S
C747 H740 0.950 . S
C747 C744 1.387 . S
C748 C749 1.387 1_545 S
C748 H752 0.950 . S
C748 C757 1.390 . S
C749 C748 1.387 1_565 S
C749 C751 1.387 . S
H750 C757 0.950 . S
C751 C749 1.387 . S
C751 C753 1.390 1_565 S
C751 H755 0.950 . S
H752 C748 0.950 . S
C753 C751 1.390 1_545 S
C753 C754 1.387 . S
C753 H756 0.950 . S
C754 C753 1.387 . S
C754 C757 1.387 . S
H755 C751 0.950 . S
H756 C753 0.950 . S
C757 C748 1.390 . S
C757 H750 0.950 . S
C757 C754 1.387 . S
C758 C759 1.387 . S
C758 H762 0.950 . S
C758 C767 1.390 1_654 S
C759 C758 1.387 . S
C759 C761 1.387 . S
H760 C767 0.950 . S
C761 C759 1.387 . S
C761 C763 1.387 1_654 S
C761 H765 0.950 . S
H762 C758 0.950 . S
C763 C761 1.387 1_456 S
C763 C764 1.389 . S
C763 H766 0.951 . S
C764 C763 1.389 . S
C764 C767 1.387 . S
H765 C761 0.950 . S
H766 C763 0.951 . S
C767 C758 1.390 1_456 S
C767 H760 0.950 . S
C767 C764 1.387 . S
C768 C769 1.387 . S
C768 H772 0.950 . S
C768 C777 1.390 . S
C769 C768 1.387 . S
C769 C771 1.387 . S
H770 C777 0.950 . S
C771 C769 1.387 . S
C771 C773 1.390 . S
C771 H775 0.950 . S
H772 C768 0.950 . S
C773 C771 1.390 . S
C773 C774 1.387 . S
C773 H776 0.950 . S
C774 C773 1.387 . S
C774 C777 1.387 . S
H775 C771 0.950 . S
H776 C773 0.950 . S
C777 C768 1.390 . S
C777 H770 0.950 . S
C777 C774 1.387 . S
C778 C779 1.387 . S
C778 H782 0.950 . S
C778 C787 1.390 . S
C779 C778 1.387 . S
C779 C781 1.387 . S
H780 C787 0.950 . S
C781 C779 1.387 . S
C781 C783 1.390 . S
C781 H785 0.950 . S
H782 C778 0.950 . S
C783 C781 1.390 . S
C783 C784 1.387 . S
C783 H786 0.950 . S
C784 C783 1.387 . S
C784 C787 1.387 . S
H785 C781 0.950 . S
H786 C783 0.950 . S
C787 C778 1.390 . S
C787 H780 0.950 . S
C787 C784 1.387 . S
C788 C789 1.387 . S
C788 H792 0.950 . S
C788 C797 1.390 . S
C789 C788 1.387 . S
C789 C791 1.387 . S
H790 C797 0.950 . S
C791 C789 1.387 . S
C791 C793 1.390 . S
C791 H795 0.950 . S
H792 C788 0.950 . S
C793 C791 1.390 . S
C793 C794 1.387 . S
C793 H796 0.950 . S
C794 C793 1.387 . S
C794 C797 1.387 . S
H795 C791 0.950 . S
H796 C793 0.950 . S
C797 C788 1.390 . S
C797 H790 0.950 . S
C797 C794 1.387 . S
C798 C799 1.387 . S
C798 H802 0.950 . S
C798 C807 1.390 . S
C799 C798 1.387 . S
C799 C801 1.387 . S
H800 C807 0.950 . S
C801 C799 1.387 . S
C801 C803 1.390 . S
C801 H805 0.950 . S
H802 C798 0.950 . S
C803 C801 1.390 . S
C803 C804 1.387 . S
C803 H806 0.950 . S
C804 C803 1.387 . S
C804 C807 1.387 . S
H805 C801 0.950 . S
H806 C803 0.950 . S
C807 C798 1.390 . S
C807 H800 0.950 . S
C807 C804 1.387 . S
C808 C809 1.387 . S
C808 H812 0.950 . S
C808 C817 1.390 . S
C809 C808 1.387 . S
C809 C811 1.387 . S
H810 C817 0.950 . S
C811 C809 1.387 . S
C811 C813 1.390 . S
C811 H815 0.950 . S
H812 C808 0.950 . S
C813 C811 1.390 . S
C813 C814 1.387 . S
C813 H816 0.950 . S
C814 C813 1.387 . S
C814 C817 1.387 . S
H815 C811 0.950 . S
H816 C813 0.950 . S
C817 C808 1.390 . S
C817 H810 0.950 . S
C817 C814 1.387 . S
C818 C819 1.387 . S
C818 H822 0.950 . S
C818 C827 1.390 . S
C819 C818 1.387 . S
C819 C821 1.387 . S
H820 C827 0.950 . S
C821 C819 1.387 . S
C821 C823 1.390 . S
C821 H825 0.950 . S
H822 C818 0.950 . S
C823 C821 1.390 . S
C823 C824 1.387 . S
C823 H826 0.950 . S
C824 C823 1.387 . S
C824 C827 1.387 . S
H825 C821 0.950 . S
H826 C823 0.950 . S
C827 C818 1.390 . S
C827 H820 0.950 . S
C827 C824 1.387 . S
C828 C829 1.387 . S
C828 H832 0.950 . S
C828 C837 1.390 . S
C829 C828 1.387 . S
C829 C831 1.387 . S
H830 C837 0.950 . S
C831 C829 1.387 . S
C831 C833 1.390 . S
C831 H835 0.950 . S
H832 C828 0.950 . S
C833 C831 1.390 . S
C833 C834 1.387 . S
C833 H836 0.950 . S
C834 C833 1.387 . S
C834 C837 1.387 . S
H835 C831 0.950 . S
H836 C833 0.950 . S
C837 C828 1.390 . S
C837 H830 0.950 . S
C837 C834 1.387 . S
C838 C839 1.387 . S
C838 H842 0.950 . S
C838 C847 1.390 . S
C839 C838 1.387 . S
C839 C841 1.387 . S
H840 C847 0.950 . S
C841 C839 1.387 . S
C841 C843 1.390 . S
C841 H845 0.950 . S
H842 C838 0.950 . S
C843 C841 1.390 . S
C843 C844 1.387 . S
C843 H846 0.950 . S
C844 C843 1.387 . S
C844 C847 1.387 . S
H845 C841 0.950 . S
H846 C843 0.950 . S
C847 C838 1.390 . S
C847 H840 0.950 . S
C847 C844 1.387 . S
C848 C849 1.387 . S
C848 H852 0.950 . S
C848 C857 1.390 . S
C849 C848 1.387 . S
C849 C851 1.387 . S
H850 C857 0.950 . S
C851 C849 1.387 . S
C851 C853 1.390 . S
C851 H855 0.950 . S
H852 C848 0.950 . S
C853 C851 1.390 . S
C853 C854 1.387 . S
C853 H856 0.950 . S
C854 C853 1.387 . S
C854 C857 1.387 . S
H855 C851 0.950 . S
H856 C853 0.950 . S
C857 C848 1.390 . S
C857 H850 0.950 . S
C857 C854 1.387 . S
C858 C859 1.387 . S
C858 H862 0.950 . S
C858 C867 1.390 . S
C859 C858 1.387 . S
C859 C861 1.387 . S
H860 C867 0.950 . S
C861 C859 1.387 . S
C861 C863 1.390 . S
C861 H865 0.950 . S
H862 C858 0.950 . S
C863 C861 1.390 . S
C863 C864 1.387 . S
C863 H866 0.950 . S
C864 C863 1.387 . S
C864 C867 1.387 . S
H865 C861 0.950 . S
H866 C863 0.950 . S
C867 C858 1.390 . S
C867 H860 0.950 . S
C867 C864 1.387 . S
C868 C869 1.387 . S
C868 H872 0.950 . S
C868 C877 1.390 . S
C869 C868 1.387 . S
C869 C871 1.387 . S
H870 C877 0.950 . S
C871 C869 1.387 . S
C871 C873 1.390 . S
C871 H875 0.950 . S
H872 C868 0.950 . S
C873 C871 1.390 . S
C873 C874 1.387 . S
C873 H876 0.950 . S
C874 C873 1.387 . S
C874 C877 1.387 . S
H875 C871 0.950 . S
H876 C873 0.950 . S
C877 C868 1.390 . S
C877 H870 0.950 . S
C877 C874 1.387 . S
C878 C879 1.387 . S
C878 H882 0.950 . S
C878 C887 1.390 . S
C879 C878 1.387 . S
C879 C881 1.387 . S
H880 C887 0.950 . S
C881 C879 1.387 . S
C881 C883 1.390 . S
C881 H885 0.950 . S
H882 C878 0.950 . S
C883 C881 1.390 . S
C883 C884 1.387 . S
C883 H886 0.950 . S
C884 C883 1.387 . S
C884 C887 1.387 . S
H885 C881 0.950 . S
H886 C883 0.950 . S
C887 C878 1.390 . S
C887 H880 0.950 . S
C887 C884 1.387 . S
C888 C889 1.387 . S
C888 H892 0.950 . S
C888 C897 1.390 . S
C889 C888 1.387 . S
C889 C891 1.387 . S
H890 C897 0.950 1_556 S
C891 C889 1.387 . S
C891 C893 1.390 . S
C891 H895 0.950 . S
H892 C888 0.950 . S
C893 C891 1.390 . S
C893 C894 1.387 . S
C893 H896 0.950 . S
C894 C893 1.387 . S
C894 C897 1.387 . S
H895 C891 0.950 . S
H896 C893 0.950 . S
C897 C888 1.390 . S
C897 H890 0.950 1_554 S
C897 C894 1.387 . S
C898 C899 1.387 . S
C898 H902 0.950 . S
C898 C907 1.390 . S
C899 C898 1.387 . S
C899 C901 1.387 . S
H900 C907 0.950 . S
C901 C899 1.387 . S
C901 C903 1.390 . S
C901 H905 0.950 . S
H902 C898 0.950 . S
C903 C901 1.390 . S
C903 C904 1.387 . S
C903 H906 0.950 . S
C904 C903 1.387 . S
C904 C907 1.387 . S
H905 C901 0.950 . S
H906 C903 0.950 . S
C907 C898 1.390 . S
C907 H900 0.950 . S
C907 C904 1.387 . S
C908 C909 1.387 . S
C908 H912 0.950 . S
C908 C917 1.390 . S
C909 C908 1.387 . S
C909 C911 1.387 . S
H910 C917 0.950 . S
C911 C909 1.387 . S
C911 C913 1.390 . S
C911 H915 0.950 . S
H912 C908 0.950 . S
C913 C911 1.390 . S
C913 C914 1.387 . S
C913 H916 0.950 . S
C914 C913 1.387 . S
C914 C917 1.387 . S
H915 C911 0.950 . S
H916 C913 0.950 . S
C917 C908 1.390 . S
C917 H910 0.950 . S
C917 C914 1.387 . S
C918 C919 1.387 . S
C918 H922 0.950 . S
C918 C927 1.390 . S
C919 C918 1.387 . S
C919 C921 1.387 . S
H920 C927 0.950 . S
C921 C919 1.387 . S
C921 C923 1.390 . S
C921 H925 0.950 . S
H922 C918 0.950 . S
C923 C921 1.390 . S
C923 C924 1.387 . S
C923 H926 0.950 . S
C924 C923 1.387 . S
C924 C927 1.387 . S
H925 C921 0.950 . S
H926 C923 0.950 . S
C927 C918 1.390 . S
C927 H920 0.950 . S
C927 C924 1.387 . S
C529 N332 1.410 . S
C534 N2 1.410 . S
C539 N35 1.410 . S
C544 N365 1.410 . S
C549 N266 1.410 . S
C554 N68 1.410 . S
C559 N101 1.410 . S
C564 N299 1.410 . S
C569 N464 1.410 . S
C574 N134 1.410 . S
C579 N167 1.410 . S
C584 N497 1.410 . S
C589 N200 1.410 . S
C594 N398 1.410 . S
C599 N431 1.409 . S
C604 N233 1.409 . S
C609 C480 1.145 . S
C614 C7 1.130 . S
C619 C513 1.144 . S
C624 C40 1.132 . S
C629 C73 1.131 . S
C634 C414 1.147 . S
C639 C447 1.145 . S
C644 C106 1.131 . S
C649 C139 1.133 . S
C654 C348 1.145 . S
C659 C172 1.131 . S
C664 C381 1.145 . S
C669 C282 1.144 . S
C674 C205 1.131 . S
C679 C238 1.131 . S
C684 C315 1.145 . S
C689 C216 1.145 . S
C694 C271 1.133 . S
C699 C249 1.145 . S
C704 C304 1.132 . S
C709 C150 1.144 . S
C714 C337 1.130 . S
C719 C370 1.131 . S
C724 C183 1.145 . S
C729 C403 1.132 . S
C734 C84 1.144 . S
C739 C436 1.132 . S
C744 C117 1.144 . S
C749 C469 1.132 . S
C754 C18 1.147 . S
C759 C51 1.144 . S
C764 C502 1.132 . S
C769 N376 1.769 . S
C774 C21 1.718 . S
C779 C54 1.719 . S
C784 N277 1.769 . S
C789 C87 1.721 . S
C794 N310 1.769 . S
C799 C120 1.722 . S
C804 N343 1.771 . S
C809 N178 1.769 . S
C814 C153 1.720 . S
C819 C186 1.721 . S
C824 N211 1.771 . S
C829 N244 1.769 . S
C834 C219 1.720 . S
C839 C252 1.721 . S
C844 N145 1.770 . S
C849 N112 1.769 . S
C854 C285 1.720 . S
C859 C318 1.719 . S
C864 N13 1.770 . S
C869 C351 1.721 . S
C874 N46 1.768 . S
C879 N79 1.769 . S
C884 C384 1.719 . S
C889 N442 1.769 . S
C894 C417 1.719 . S
C899 N475 1.770 . S
C904 C450 1.722 . S
C909 C483 1.719 . S
C914 N508 1.769 . S
C919 N409 1.770 . S
C924 C516 1.722 . S
