# Generated by pormake.
# Topology umd, (4)-cn, num edge types: 1
# Building blocks:
#     Node 0, Type 0, BuildingBlock: MUDLON_clean_sbu_0, # of connection points: 4
#     Node 1, Type 0, BuildingBlock: MUDLON_clean_sbu_0, # of connection points: 4
#     Node 2, Type 0, BuildingBlock: MUDLON_clean_sbu_0, # of connection points: 4
#     Node 3, Type 0, BuildingBlock: MUDLON_clean_sbu_0, # of connection points: 4
#     Node 4, Type 0, BuildingBlock: MUDLON_clean_sbu_0, # of connection points: 4
#     Node 5, Type 0, BuildingBlock: MUDLON_clean_sbu_0, # of connection points: 4
#     Node 6, Type 0, BuildingBlock: MUDLON_clean_sbu_0, # of connection points: 4
#     Node 7, Type 0, BuildingBlock: MUDLON_clean_sbu_0, # of connection points: 4
#     Node 8, Type 0, BuildingBlock: MUDLON_clean_sbu_0, # of connection points: 4
#     Node 9, Type 0, BuildingBlock: MUDLON_clean_sbu_0, # of connection points: 4
#     Node 10, Type 0, BuildingBlock: MUDLON_clean_sbu_0, # of connection points: 4
#     Node 11, Type 0, BuildingBlock: MUDLON_clean_sbu_0, # of connection points: 4
#     Node 12, Type 0, BuildingBlock: MUDLON_clean_sbu_0, # of connection points: 4
#     Node 13, Type 0, BuildingBlock: MUDLON_clean_sbu_0, # of connection points: 4
#     Node 14, Type 0, BuildingBlock: MUDLON_clean_sbu_0, # of connection points: 4
#     Node 15, Type 0, BuildingBlock: MUDLON_clean_sbu_0, # of connection points: 4
#     Edge 16, Type (0, 0), BuildingBlock: TEMPAE_clean_linker_10, # of connection points: 2
#     Edge 17, Type (0, 0), BuildingBlock: TEMPAE_clean_linker_10, # of connection points: 2
#     Edge 18, Type (0, 0), BuildingBlock: TEMPAE_clean_linker_10, # of connection points: 2
#     Edge 19, Type (0, 0), BuildingBlock: TEMPAE_clean_linker_10, # of connection points: 2
#     Edge 20, Type (0, 0), BuildingBlock: TEMPAE_clean_linker_10, # of connection points: 2
#     Edge 21, Type (0, 0), BuildingBlock: TEMPAE_clean_linker_10, # of connection points: 2
#     Edge 22, Type (0, 0), BuildingBlock: TEMPAE_clean_linker_10, # of connection points: 2
#     Edge 23, Type (0, 0), BuildingBlock: TEMPAE_clean_linker_10, # of connection points: 2
#     Edge 24, Type (0, 0), BuildingBlock: TEMPAE_clean_linker_10, # of connection points: 2
#     Edge 25, Type (0, 0), BuildingBlock: TEMPAE_clean_linker_10, # of connection points: 2
#     Edge 26, Type (0, 0), BuildingBlock: TEMPAE_clean_linker_10, # of connection points: 2
#     Edge 27, Type (0, 0), BuildingBlock: TEMPAE_clean_linker_10, # of connection points: 2
#     Edge 28, Type (0, 0), BuildingBlock: TEMPAE_clean_linker_10, # of connection points: 2
#     Edge 29, Type (0, 0), BuildingBlock: TEMPAE_clean_linker_10, # of connection points: 2
#     Edge 30, Type (0, 0), BuildingBlock: TEMPAE_clean_linker_10, # of connection points: 2
#     Edge 31, Type (0, 0), BuildingBlock: TEMPAE_clean_linker_10, # of connection points: 2
#     Edge 32, Type (0, 0), BuildingBlock: TEMPAE_clean_linker_10, # of connection points: 2
#     Edge 33, Type (0, 0), BuildingBlock: TEMPAE_clean_linker_10, # of connection points: 2
#     Edge 34, Type (0, 0), BuildingBlock: TEMPAE_clean_linker_10, # of connection points: 2
#     Edge 35, Type (0, 0), BuildingBlock: TEMPAE_clean_linker_10, # of connection points: 2
#     Edge 36, Type (0, 0), BuildingBlock: TEMPAE_clean_linker_10, # of connection points: 2
#     Edge 37, Type (0, 0), BuildingBlock: TEMPAE_clean_linker_10, # of connection points: 2
#     Edge 38, Type (0, 0), BuildingBlock: TEMPAE_clean_linker_10, # of connection points: 2
#     Edge 39, Type (0, 0), BuildingBlock: TEMPAE_clean_linker_10, # of connection points: 2
#     Edge 40, Type (0, 0), BuildingBlock: TEMPAE_clean_linker_10, # of connection points: 2
#     Edge 41, Type (0, 0), BuildingBlock: TEMPAE_clean_linker_10, # of connection points: 2
#     Edge 42, Type (0, 0), BuildingBlock: TEMPAE_clean_linker_10, # of connection points: 2
#     Edge 43, Type (0, 0), BuildingBlock: TEMPAE_clean_linker_10, # of connection points: 2
#     Edge 44, Type (0, 0), BuildingBlock: TEMPAE_clean_linker_10, # of connection points: 2
#     Edge 45, Type (0, 0), BuildingBlock: TEMPAE_clean_linker_10, # of connection points: 2
#     Edge 46, Type (0, 0), BuildingBlock: TEMPAE_clean_linker_10, # of connection points: 2
#     Edge 47, Type (0, 0), BuildingBlock: TEMPAE_clean_linker_10, # of connection points: 2
# Relax obj value: 0.014
# Max RMSD: 0.192
# Mean RMSD: 0.192
data_MOF--net-umd--node1-MUDLON_clean_sbu_0--edge1-TEMPAE_clean_linker_10
_symmetry_space_group_name_H-M    P1
_symmetry_Int_Tables_number       1
_symmetry_cell_setting            triclinic
loop_
_symmetry_equiv_pos_as_xyz
'x, y, z'
_cell_length_a     41.53005
_cell_length_b     41.504056
_cell_length_c     60.422323
_cell_angle_alpha  90.103164
_cell_angle_beta   90.016327
_cell_angle_gamma 89.938515
loop_
_atom_site_label
_atom_site_type_symbol
_atom_site_fract_x
_atom_site_fract_y
_atom_site_fract_z
_atom_type_partial_charge
Mg0 Mg 0.19283 0.45911 0.15192 0.0
C1 C 0.19568 0.49717 0.10943 0.0
O2 O 0.16795 0.50735 0.11724 0.0
C3 C 0.19143 0.50211 0.19289 0.0
O4 O 0.16549 0.51327 0.18308 0.0
C5 C 0.21781 0.39479 0.13575 0.0
O6 O 0.21348 0.40909 0.1166 0.0
O7 O 0.20919 0.40935 0.15332 0.0
O8 O 0.21306 0.47912 0.12155 0.0
O9 O 0.14087 0.46373 0.14876 0.0
C10 C 0.12063 0.45873 0.16414 0.0
O11 O 0.13081 0.4478 0.18331 0.0
O12 O 0.20851 0.48119 0.18291 0.0
Mg13 Mg 0.56228 0.19314 0.64436 0.0
C14 C 0.5514 0.22788 0.60061 0.0
O15 O 0.57532 0.24544 0.60813 0.0
C16 C 0.55257 0.19747 0.69185 0.0
O17 O 0.57824 0.17936 0.68909 0.0
C18 C 0.61241 0.2421 0.65219 0.0
O19 O 0.5857 0.256 0.65892 0.0
O20 O 0.6109 0.21328 0.645 0.0
O21 O 0.53941 0.20635 0.61311 0.0
O22 O 0.55948 0.14063 0.64521 0.0
C23 C 0.53306 0.12951 0.6527 0.0
O24 O 0.51094 0.14988 0.65952 0.0
O25 O 0.53887 0.209 0.67476 0.0
Mg26 Mg 0.82591 0.55982 0.15123 0.0
C27 C 0.82285 0.55829 0.10324 0.0
O28 O 0.84241 0.58201 0.10842 0.0
C29 C 0.82279 0.51955 0.19302 0.0
O30 O 0.85245 0.5132 0.18689 0.0
C31 C 0.77859 0.61111 0.15019 0.0
O32 O 0.76251 0.58419 0.14719 0.0
O33 O 0.80897 0.6094 0.15261 0.0
O34 O 0.81041 0.54206 0.11891 0.0
O35 O 0.87807 0.55406 0.15245 0.0
C36 C 0.88879 0.5277 0.14453 0.0
O37 O 0.86821 0.50729 0.13576 0.0
O38 O 0.80515 0.53668 0.18044 0.0
Mg39 Mg 0.44921 0.82932 0.6379 0.0
C40 C 0.48698 0.79816 0.59726 0.0
O41 O 0.49992 0.77696 0.61072 0.0
C42 C 0.45794 0.81744 0.68463 0.0
O43 O 0.43044 0.83284 0.68245 0.0
C44 C 0.39996 0.77917 0.63425 0.0
O45 O 0.42724 0.76443 0.62985 0.0
O46 O 0.40072 0.80921 0.63849 0.0
O47 O 0.46804 0.81956 0.60488 0.0
O48 O 0.45206 0.88163 0.6412 0.0
C49 C 0.47772 0.89245 0.65005 0.0
O50 O 0.49938 0.87186 0.65718 0.0
O51 O 0.47346 0.81015 0.66714 0.0
Mg52 Mg 0.18529 0.56494 0.40039 0.0
C53 C 0.19048 0.56203 0.44794 0.0
O54 O 0.17318 0.58759 0.44307 0.0
C55 C 0.21204 0.55909 0.35431 0.0
O56 O 0.21694 0.58977 0.35841 0.0
C57 C 0.23547 0.61318 0.4055 0.0
O58 O 0.24953 0.58525 0.40896 0.0
O59 O 0.20551 0.6134 0.40107 0.0
O60 O 0.20056 0.54451 0.43205 0.0
O61 O 0.13292 0.56243 0.40029 0.0
C62 C 0.12125 0.53676 0.40853 0.0
O63 O 0.14109 0.51517 0.41671 0.0
O64 O 0.20065 0.5414 0.36965 0.0
Mg65 Mg 0.44717 0.18651 0.89158 0.0
C66 C 0.48509 0.18679 0.9345 0.0
O67 O 0.49484 0.15901 0.92647 0.0
C68 C 0.45494 0.19442 0.84406 0.0
O69 O 0.42903 0.17662 0.84651 0.0
C70 C 0.38245 0.21195 0.90755 0.0
O71 O 0.39537 0.20553 0.9269 0.0
O72 O 0.39774 0.20413 0.8901 0.0
O73 O 0.46715 0.20458 0.92259 0.0
O74 O 0.45257 0.13403 0.89108 0.0
C75 C 0.47718 0.12292 0.88104 0.0
O76 O 0.49694 0.14321 0.87139 0.0
O77 O 0.46946 0.20423 0.86136 0.0
Mg78 Mg 0.82028 0.4551 0.3969 0.0
C79 C 0.81465 0.45636 0.44477 0.0
O80 O 0.83088 0.43012 0.43979 0.0
C81 C 0.78722 0.46517 0.35276 0.0
O82 O 0.77632 0.43636 0.35765 0.0
C83 C 0.77484 0.40122 0.40294 0.0
O84 O 0.75965 0.42604 0.41155 0.0
O85 O 0.80305 0.40549 0.39527 0.0
O86 O 0.80492 0.47414 0.42897 0.0
O87 O 0.87254 0.45949 0.3969 0.0
C88 C 0.8836 0.48483 0.40604 0.0
O89 O 0.86327 0.50541 0.4149 0.0
O90 O 0.80417 0.48011 0.36704 0.0
Mg91 Mg 0.56588 0.82272 0.88516 0.0
C92 C 0.55755 0.78663 0.92867 0.0
O93 O 0.58262 0.77092 0.92094 0.0
C94 C 0.55427 0.82141 0.83751 0.0
O95 O 0.57816 0.84174 0.84041 0.0
C96 C 0.61762 0.77586 0.87542 0.0
O97 O 0.59142 0.76173 0.86805 0.0
O98 O 0.61509 0.80394 0.88379 0.0
O99 O 0.54401 0.80756 0.91641 0.0
O100 O 0.56183 0.8752 0.88549 0.0
C101 C 0.53452 0.886 0.87935 0.0
O102 O 0.51229 0.86535 0.87318 0.0
O103 O 0.54245 0.80757 0.85446 0.0
Mg104 Mg 0.82453 0.55554 0.89582 0.0
C105 C 0.79025 0.54554 0.9395 0.0
O106 O 0.77184 0.56819 0.93109 0.0
C107 C 0.78283 0.5416 0.85493 0.0
O108 O 0.7662 0.56634 0.86228 0.0
C109 C 0.80572 0.62446 0.88081 0.0
O110 O 0.82154 0.61706 0.86267 0.0
O111 O 0.80519 0.60441 0.8967 0.0
O112 O 0.81255 0.53365 0.92757 0.0
O113 O 0.87664 0.55157 0.89281 0.0
C114 C 0.89475 0.55001 0.90976 0.0
O115 O 0.88216 0.55477 0.92945 0.0
O116 O 0.80617 0.53096 0.86647 0.0
Mg117 Mg 0.46107 0.81321 0.38968 0.0
C118 C 0.50093 0.80887 0.43178 0.0
O119 O 0.51273 0.83589 0.42391 0.0
C120 C 0.46326 0.79719 0.34189 0.0
O121 O 0.43287 0.8045 0.34531 0.0
C122 C 0.39507 0.79306 0.40675 0.0
O123 O 0.40793 0.80118 0.42583 0.0
O124 O 0.41116 0.79745 0.38912 0.0
O125 O 0.4811 0.79297 0.42001 0.0
O126 O 0.46605 0.86543 0.39187 0.0
C127 C 0.4814 0.88062 0.37695 0.0
O128 O 0.49244 0.86465 0.35977 0.0
O129 O 0.48239 0.79725 0.35838 0.0
Mg130 Mg 0.19255 0.45772 0.89835 0.0
C131 C 0.1985 0.45904 0.94648 0.0
O132 O 0.18433 0.43159 0.94174 0.0
C133 C 0.22414 0.4638 0.85348 0.0
O134 O 0.22564 0.43245 0.85615 0.0
C135 C 0.23832 0.40498 0.90294 0.0
O136 O 0.25469 0.43155 0.90663 0.0
O137 O 0.20841 0.40746 0.8986 0.0
O138 O 0.20662 0.47733 0.93054 0.0
O139 O 0.14112 0.46739 0.89564 0.0
C140 C 0.11781 0.4524 0.90453 0.0
O141 O 0.12354 0.42602 0.91586 0.0
O142 O 0.21313 0.48113 0.86918 0.0
Mg143 Mg 0.56696 0.18002 0.39104 0.0
C144 C 0.56221 0.18441 0.43869 0.0
O145 O 0.58564 0.16399 0.43445 0.0
C146 C 0.54761 0.17747 0.34435 0.0
O147 O 0.5673 0.15291 0.34673 0.0
C148 C 0.6237 0.21897 0.37534 0.0
O149 O 0.60279 0.22547 0.35966 0.0
O150 O 0.61605 0.19868 0.39019 0.0
O151 O 0.54721 0.19678 0.42242 0.0
O152 O 0.5631 0.12774 0.39174 0.0
C153 C 0.53434 0.11749 0.39001 0.0
O154 O 0.51092 0.13867 0.38838 0.0
O155 O 0.54175 0.19517 0.36111 0.0
Mg156 Mg 0.82112 0.46263 0.6526 0.0
C157 C 0.82312 0.49512 0.60751 0.0
O158 O 0.85243 0.50167 0.61427 0.0
C159 C 0.7831 0.47266 0.69507 0.0
O160 O 0.77153 0.44444 0.68928 0.0
C161 C 0.79411 0.39881 0.63702 0.0
O162 O 0.79623 0.41385 0.61796 0.0
O163 O 0.80512 0.41254 0.65428 0.0
O164 O 0.80381 0.48132 0.62082 0.0
O165 O 0.87332 0.46871 0.65383 0.0
C166 C 0.88309 0.49671 0.65927 0.0
O167 O 0.86156 0.51876 0.66432 0.0
O168 O 0.80251 0.48692 0.68206 0.0
Mg169 Mg 0.56541 0.82335 0.13998 0.0
C170 C 0.56243 0.82044 0.09225 0.0
O171 O 0.58436 0.84201 0.0974 0.0
C172 C 0.54347 0.82482 0.18633 0.0
O173 O 0.55829 0.85247 0.18357 0.0
C174 C 0.62897 0.7988 0.15884 0.0
O175 O 0.61318 0.80196 0.17755 0.0
O176 O 0.61569 0.80817 0.14099 0.0
O177 O 0.54769 0.80637 0.10798 0.0
O178 O 0.55727 0.87518 0.13973 0.0
C179 C 0.52759 0.88289 0.13977 0.0
O180 O 0.50603 0.85973 0.1394 0.0
O181 O 0.54171 0.80551 0.16994 0.0
Mg182 Mg 0.18788 0.56132 0.65506 0.0
C183 C 0.22285 0.54628 0.61155 0.0
O184 O 0.24554 0.56396 0.62061 0.0
C185 C 0.22602 0.54449 0.69655 0.0
O186 O 0.24189 0.57058 0.6909 0.0
C187 C 0.21142 0.62788 0.64009 0.0
O188 O 0.1954 0.62051 0.62202 0.0
O189 O 0.21075 0.60854 0.65638 0.0
O190 O 0.19789 0.53958 0.62284 0.0
O191 O 0.13568 0.56253 0.65855 0.0
C192 C 0.11732 0.55799 0.64198 0.0
O193 O 0.13011 0.55591 0.62214 0.0
O194 O 0.20407 0.53393 0.68375 0.0
Mg195 Mg 0.44562 0.18379 0.14466 0.0
C196 C 0.44933 0.18913 0.09734 0.0
O197 O 0.42248 0.17385 0.10204 0.0
C198 C 0.45165 0.19809 0.19217 0.0
O199 O 0.4213 0.18992 0.18966 0.0
C200 C 0.39846 0.23585 0.14608 0.0
O201 O 0.42662 0.25013 0.14749 0.0
O202 O 0.39778 0.20527 0.14479 0.0
O203 O 0.46698 0.19844 0.11334 0.0
O204 O 0.4464 0.13127 0.14337 0.0
C205 C 0.45925 0.11487 0.15881 0.0
O206 O 0.4694 0.12973 0.17669 0.0
O207 O 0.46953 0.19913 0.17507 0.0
C208 C 0.07668 0.48344 0.1414 0.0
C209 C 0.08644 0.4681 0.16099 0.0
C210 C 0.04481 0.49391 0.1385 0.0
C211 C 0.02201 0.48879 0.15553 0.0
C212 C 0.0316 0.4731 0.17528 0.0
C213 C 0.06371 0.46302 0.17779 0.0
C214 C 0.03557 0.51058 0.11722 0.0
C215 C 0.00791 0.46698 0.19374 0.0
C216 C 0.94558 0.53959 0.15638 0.0
C217 C 0.92317 0.51852 0.14676 0.0
C218 C 0.97789 0.53031 0.15926 0.0
C219 C 0.98796 0.4992 0.15246 0.0
C220 C 0.9655 0.47794 0.14263 0.0
C221 C 0.93346 0.48788 0.13985 0.0
C222 C 1.00123 0.55373 0.16967 0.0
C223 C 0.97523 0.44455 0.13521 0.0
H224 H 0.09405 0.48763 0.12834 0.0
H225 H 0.07101 0.45125 0.19298 0.0
H226 H 0.0163 0.49681 0.10871 0.0
H227 H 0.02578 0.5349 0.12087 0.0
H228 H 0.05627 0.51314 0.10572 0.0
H229 H 0.01918 0.45457 0.20806 0.0
H230 H 0.99748 0.49012 0.19955 0.0
H231 H 0.9877 0.45198 0.18757 0.0
H232 H 0.93785 0.56328 0.16177 0.0
H233 H 0.91636 0.47137 0.13243 0.0
H234 H 0.02164 0.55823 0.15824 0.0
H235 H 0.01143 0.54324 0.18503 0.0
H236 H 0.98971 0.57714 0.17381 0.0
H237 H 0.99479 0.44611 0.12276 0.0
H238 H 0.95483 0.43093 0.12787 0.0
H239 H 0.98478 0.43071 0.14948 0.0
C240 C 0.50843 0.9389 0.66565 0.0
C241 C 0.48449 0.92747 0.65125 0.0
C242 C 0.5167 0.97167 0.66629 0.0
C243 C 0.50104 0.99354 0.65192 0.0
C244 C 0.4767 0.9822 0.63742 0.0
C245 C 0.46851 0.94932 0.63739 0.0
C246 C 0.54228 0.98285 0.68233 0.0
C247 C 0.45968 1.00473 0.62169 0.0
C248 C 0.5012 0.08268 0.66639 0.0
C249 C 0.52621 0.09447 0.65307 0.0
C250 C 0.493 0.04989 0.66633 0.0
C251 C 0.50986 0.02835 0.65232 0.0
C252 C 0.53526 0.04005 0.63889 0.0
C253 C 0.54334 0.07296 0.63957 0.0
C254 C 0.46622 0.03833 0.68124 0.0
C255 C 0.55358 0.01788 0.62357 0.0
H256 H 0.52077 0.92218 0.6765 0.0
H257 H 0.45017 0.94059 0.62612 0.0
H258 H 0.5627 0.99365 0.67314 0.0
H259 H 0.53236 1.00185 0.69334 0.0
H260 H 0.55164 0.9629 0.69275 0.0
H261 H 0.44162 0.99208 0.61127 0.0
H262 H 0.4473 0.02408 0.63111 0.0
H263 H 0.4775 0.01654 0.6107 0.0
H264 H 0.48798 0.09913 0.67698 0.0
H265 H 0.56254 0.08197 0.62913 0.0
H266 H 0.47529 0.0191 0.69236 0.0
H267 H 0.44657 0.02772 0.67115 0.0
H268 H 0.45601 0.05804 0.69154 0.0
H269 H 0.5652 0.99834 0.6332 0.0
H270 H 0.57244 0.03077 0.61403 0.0
H271 H 0.5367 0.00631 0.61175 0.0
C272 C 0.0736 0.50544 0.42148 0.0
C273 C 0.08617 0.53024 0.40832 0.0
C274 C 0.04069 0.49789 0.42107 0.0
C275 C 0.01982 0.51527 0.40693 0.0
C276 C 0.03232 0.54037 0.39359 0.0
C277 C 0.06534 0.54773 0.39457 0.0
C278 C 0.02825 0.47133 0.43583 0.0
C279 C 0.01085 0.55923 0.37816 0.0
C280 C 0.9399 0.4757 0.39223 0.0
C281 C 0.91857 0.49191 0.40638 0.0
C282 C 0.97288 0.48338 0.39198 0.0
C283 C 0.98482 0.50747 0.40646 0.0
C284 C 0.96341 0.52362 0.42094 0.0
C285 C 0.93056 0.51581 0.42061 0.0
C286 C 0.99492 0.46585 0.37615 0.0
C287 C 0.97524 0.54904 0.43691 0.0
H288 H 0.08951 0.4919 0.43224 0.0
H289 H 0.07494 0.56679 0.38426 0.0
H290 H 0.00936 0.48094 0.44703 0.0
H291 H 0.01699 0.45213 0.42566 0.0
H292 H 0.04759 0.46036 0.44606 0.0
H293 H 0.02438 0.57762 0.3686 0.0
H294 H 0.99884 0.54262 0.36636 0.0
H295 H 0.99162 0.57153 0.38772 0.0
H296 H 0.93076 0.45736 0.38109 0.0
H297 H 0.91425 0.52835 0.43168 0.0
H298 H 0.01374 0.45267 0.38552 0.0
H299 H 0.00742 0.48343 0.36533 0.0
H300 H 0.98175 0.44838 0.36555 0.0
H301 H 0.99365 0.53857 0.44811 0.0
H302 H 0.95549 0.55928 0.44713 0.0
H303 H 0.98694 0.56893 0.4277 0.0
C304 C 0.50017 0.93243 0.86784 0.0
C305 C 0.52704 0.92096 0.87952 0.0
C306 C 0.49178 0.96519 0.86818 0.0
C307 C 0.51041 0.98707 0.88078 0.0
C308 C 0.53757 0.97567 0.89267 0.0
C309 C 0.54573 0.94277 0.89175 0.0
C310 C 0.46302 0.9764 0.85494 0.0
C311 C 0.55784 0.99821 0.90648 0.0
C312 C 0.50691 0.07578 0.86541 0.0
C313 C 0.48472 0.08799 0.88081 0.0
C314 C 0.51543 0.04305 0.86523 0.0
C315 C 0.50182 0.02198 0.88106 0.0
C316 C 0.47944 0.03415 0.89671 0.0
C317 C 0.47094 0.06698 0.89628 0.0
C318 C 0.53888 0.03099 0.84799 0.0
C319 C 0.46467 0.01251 0.91399 0.0
H320 H 0.48568 0.91578 0.85824 0.0
H321 H 0.56638 0.93403 0.90093 0.0
H322 H 0.44503 0.98775 0.86606 0.0
H323 H 0.47058 0.99496 0.84281 0.0
H324 H 0.4512 0.95636 0.84584 0.0
H325 H 0.57769 0.98547 0.91515 0.0
H326 H 0.56839 0.01721 0.89583 0.0
H327 H 0.54255 0.01046 0.91899 0.0
H328 H 0.51756 0.09183 0.85333 0.0
H329 H 0.45398 0.07631 0.90833 0.0
H330 H 0.52747 0.01179 0.83789 0.0
H331 H 0.56024 0.0202 0.85616 0.0
H332 H 0.54715 0.05045 0.83676 0.0
H333 H 0.45082 0.99296 0.90586 0.0
H334 H 0.44833 0.02583 0.92534 0.0
H335 H 0.48392 1.00093 0.92394 0.0
C336 C 0.9386 0.52253 0.88835 0.0
C337 C 0.92845 0.53846 0.90764 0.0
C338 C 0.96933 0.50844 0.88697 0.0
C339 C 0.99067 0.5108 0.90518 0.0
C340 C 0.98095 0.52775 0.92443 0.0
C341 C 0.94988 0.54113 0.9255 0.0
C342 C 0.97862 0.49028 0.86626 0.0
C343 C 1.00321 0.53137 0.94404 0.0
C344 C 0.05832 0.44948 0.9119 0.0
C345 C 0.08491 0.46648 0.90367 0.0
C346 C 0.02742 0.46341 0.91215 0.0
C347 C 0.02305 0.49524 0.90423 0.0
C348 C 0.04973 0.51238 0.89571 0.0
C349 C 0.08023 0.49776 0.89541 0.0
C350 C 0.99949 0.44417 0.92111 0.0
C351 C 0.04618 0.54646 0.8873 0.0
H352 H 0.92213 0.5201 0.87453 0.0
H353 H 0.94226 0.55347 0.94044 0.0
H354 H 1.00104 0.50046 0.85917 0.0
H355 H 0.9836 0.46471 0.87038 0.0
H356 H 0.95947 0.49108 0.85343 0.0
H357 H 0.99255 0.54647 0.95736 0.0
H358 H 0.00895 0.50731 0.95097 0.0
H359 H 0.02627 0.54241 0.93874 0.0
H360 H 0.06165 0.42531 0.91827 0.0
H361 H 0.1006 0.51121 0.88909 0.0
H362 H 0.98006 0.44271 0.90854 0.0
H363 H 0.98929 0.45644 0.93585 0.0
H364 H 0.00663 0.41933 0.92586 0.0
H365 H 0.02804 0.54733 0.87384 0.0
H366 H 0.06922 0.55636 0.88094 0.0
H367 H 0.03737 0.5623 0.90082 0.0
C368 C 0.55074 0.05938 0.39334 0.0
C369 C 0.52696 0.08256 0.38904 0.0
C370 C 0.54367 0.02628 0.39217 0.0
C371 C 0.51219 0.01619 0.38635 0.0
C372 C 0.48811 0.03949 0.38208 0.0
C373 C 0.49574 0.07233 0.38358 0.0
C374 C 0.56992 1.00211 0.39702 0.0
C375 C 0.45435 0.02975 0.37561 0.0
C376 C 0.50091 0.93285 0.36141 0.0
C377 C 0.48851 0.91544 0.37937 0.0
C378 C 0.5088 0.96559 0.3635 0.0
C379 C 0.50452 0.98128 0.38411 0.0
C380 C 0.49211 0.96384 0.40234 0.0
C381 C 0.48406 0.93116 0.39972 0.0
C382 C 0.52156 0.98344 0.34358 0.0
C383 C 0.48743 0.97968 0.42462 0.0
H384 H 0.57487 0.06709 0.39765 0.0
H385 H 0.4772 0.09004 0.38016 0.0
H386 H 0.56213 0.98562 0.41042 0.0
H387 H 0.57454 0.98711 0.38214 0.0
H388 H 0.59281 0.01384 0.40206 0.0
H389 H 0.4383 0.05086 0.37309 0.0
H390 H 0.45499 0.01547 0.36008 0.0
H391 H 0.44373 0.01418 0.38859 0.0
H392 H 0.50436 0.92092 0.34562 0.0
H393 H 0.47473 0.91782 0.41372 0.0
H394 H 0.54566 0.99358 0.34731 0.0
H395 H 0.50545 1.00396 0.33958 0.0
H396 H 0.52355 0.96771 0.32875 0.0
H397 H 0.51058 0.9899 0.43052 0.0
H398 H 0.47829 0.96258 0.43727 0.0
H399 H 0.47014 0.99995 0.42315 0.0
C400 C 0.94146 0.4821 0.65455 0.0
C401 C 0.91766 0.50557 0.65802 0.0
C402 C 0.97409 0.49074 0.65259 0.0
C403 C 0.98305 0.52363 0.65386 0.0
C404 C 0.95915 0.54736 0.65751 0.0
C405 C 0.92683 0.53804 0.65967 0.0
C406 C 0.99894 0.46469 0.64896 0.0
C407 C 0.96763 0.58271 0.65874 0.0
C408 C 0.07019 0.5454 0.66645 0.0
C409 C 0.08253 0.55127 0.6452 0.0
C410 C 0.03791 0.53632 0.66951 0.0
C411 C 0.01734 0.53337 0.65092 0.0
C412 C 0.02945 0.53996 0.6295 0.0
C413 C 0.06191 0.54867 0.62689 0.0
C414 C 0.02595 0.52934 0.69261 0.0
C415 C 0.00818 0.53754 0.60929 0.0
H416 H 0.9346 0.45697 0.65331 0.0
H417 H 0.90864 0.5564 0.66227 0.0
H418 H 0.01108 0.46835 0.6328 0.0
H419 H 0.01775 0.46607 0.66197 0.0
H420 H 0.98823 0.44018 0.64916 0.0
H421 H 0.94624 0.59813 0.66194 0.0
H422 H 0.9855 0.5869 0.67208 0.0
H423 H 0.97888 0.59044 0.64297 0.0
H424 H 0.08597 0.54716 0.68069 0.0
H425 H 0.07119 0.55319 0.61042 0.0
H426 H 0.01716 0.50414 0.69356 0.0
H427 H 1.00533 0.54529 0.69666 0.0
H428 H 0.04497 0.5328 0.70532 0.0
H429 H 0.99895 0.5126 0.60754 0.0
H430 H 0.0211 0.54413 0.59385 0.0
H431 H 0.987 0.55364 0.61116 0.0
C432 C 0.47598 0.06128 0.17376 0.0
C433 C 0.46631 0.08015 0.1557 0.0
C434 C 0.48537 0.02904 0.17089 0.0
C435 C 0.48553 0.01543 0.14938 0.0
C436 C 0.47536 0.0342 0.13111 0.0
C437 C 0.46565 0.06627 0.13451 0.0
C438 C 0.49551 0.00966 0.19085 0.0
C439 C 0.47541 0.0206 0.10791 0.0
C440 C 0.53934 0.94225 0.14035 0.0
C441 C 0.51705 0.91695 0.14145 0.0
C442 C 0.52935 0.97449 0.14252 0.0
C443 C 0.49635 0.98153 0.14608 0.0
C444 C 0.47375 0.9561 0.14704 0.0
C445 C 0.48434 0.92419 0.14463 0.0
C446 C 0.55413 1.001 0.14121 0.0
C447 C 0.43841 0.96257 0.151 0.0
H448 H 0.47645 0.07179 0.19019 0.0
H449 H 0.45845 0.08076 0.12044 0.0
H450 H 0.48068 0.98751 0.1921 0.0
H451 H 0.52095 1.00194 0.18903 0.0
H452 H 0.4931 0.0235 0.20652 0.0
H453 H 0.46649 0.03822 0.09552 0.0
H454 H 0.5002 0.01323 0.10327 0.0
H455 H 0.46011 0.99874 0.10713 0.0
H456 H 0.56463 0.93688 0.13784 0.0
H457 H 0.46691 0.90482 0.14556 0.0
H458 H 0.55493 0.01438 0.15711 0.0
H459 H 0.54732 0.0185 0.12815 0.0
H460 H 0.57862 0.99162 0.13756 0.0
H461 H 0.43514 0.97479 0.16719 0.0
H462 H 0.42384 0.94013 0.15093 0.0
H463 H 0.42887 0.97898 0.13809 0.0
C464 C 0.23084 0.56607 0.31534 0.0
C465 C 0.21523 0.54707 0.33125 0.0
C466 C 0.23015 0.55781 0.2928 0.0
C467 C 0.21324 0.52995 0.28592 0.0
C468 C 0.19878 0.50978 0.30201 0.0
C469 C 0.20006 0.51851 0.32451 0.0
C470 C 0.24621 0.57978 0.27626 0.0
C471 C 0.18053 0.47986 0.29535 0.0
C472 C 0.177 0.53056 0.22811 0.0
C473 C 0.19838 0.51079 0.21629 0.0
C474 C 0.18165 0.53697 0.25071 0.0
C475 C 0.20846 0.52344 0.26184 0.0
C476 C 0.23052 0.50398 0.24994 0.0
C477 C 0.22519 0.49783 0.22733 0.0
C478 C 0.15756 0.55789 0.26277 0.0
C479 C 0.25952 0.48935 0.26116 0.0
H480 H 0.24286 0.58805 0.3204 0.0
H481 H 0.18789 0.50372 0.33667 0.0
H482 H 0.26185 0.56568 0.26493 0.0
H483 H 0.2276 0.59176 0.26597 0.0
H484 H 0.261 0.59868 0.2844 0.0
H485 H 0.17308 0.46531 0.30988 0.0
H486 H 0.15864 0.48681 0.28595 0.0
H487 H 0.19546 0.4646 0.28429 0.0
H488 H 0.15617 0.54064 0.2198 0.0
H489 H 0.24185 0.4825 0.21837 0.0
H490 H 0.16987 0.57907 0.27011 0.0
H491 H 0.14656 0.54416 0.27657 0.0
H492 H 0.13803 0.56661 0.25173 0.0
H493 H 0.27437 0.50856 0.26885 0.0
H494 H 0.27482 0.47543 0.24948 0.0
H495 H 0.25162 0.47308 0.27465 0.0
C496 C 0.51454 0.22444 0.71852 0.0
C497 C 0.53902 0.20192 0.71435 0.0
C498 C 0.50091 0.22742 0.73975 0.0
C499 C 0.51163 0.207 0.75704 0.0
C500 C 0.53675 0.18471 0.75297 0.0
C501 C 0.55026 0.18263 0.73177 0.0
C502 C 0.47453 0.25184 0.74357 0.0
C503 C 0.54857 0.16211 0.7708 0.0
C504 C 0.49383 0.22135 0.81808 0.0
C505 C 0.46806 0.20015 0.82158 0.0
C506 C 0.50733 0.22512 0.79688 0.0
C507 C 0.49509 0.20686 0.77891 0.0
C508 C 0.46855 0.1861 0.78229 0.0
C509 C 0.45525 0.18319 0.8035 0.0
C510 C 0.53528 0.2479 0.79383 0.0
C511 C 0.45506 0.1658 0.76369 0.0
H512 H 0.50591 0.23958 0.70517 0.0
H513 H 0.56913 0.16511 0.72872 0.0
H514 H 0.4515 0.23925 0.7469 0.0
H515 H 0.4801 0.26677 0.75834 0.0
H516 H 0.47111 0.26798 0.72911 0.0
H517 H 0.56915 0.14706 0.76519 0.0
H518 H 0.55614 0.17596 0.78562 0.0
H519 H 0.52871 0.1459 0.77596 0.0
H520 H 0.5037 0.23471 0.83193 0.0
H521 H 0.43534 0.16674 0.80601 0.0
H522 H 0.53083 0.26404 0.77953 0.0
H523 H 0.55744 0.23394 0.79016 0.0
H524 H 0.53967 0.26287 0.80878 0.0
H525 H 0.44868 0.18121 0.74936 0.0
H526 H 0.43332 0.15212 0.76878 0.0
H527 H 0.47359 0.1484 0.75797 0.0
C528 C 0.83087 0.48969 0.22844 0.0
C529 C 0.81192 0.51044 0.21556 0.0
C530 C 0.8232 0.4834 0.25062 0.0
C531 C 0.79592 0.49832 0.2603 0.0
C532 C 0.77608 0.51853 0.24723 0.0
C533 C 0.78426 0.5243 0.22498 0.0
C534 C 0.84483 0.46139 0.26387 0.0
C535 C 0.74681 0.53484 0.25695 0.0
C536 C 0.76837 0.4588 0.31364 0.0
C537 C 0.7848 0.47707 0.32964 0.0
C538 C 0.77028 0.4665 0.29105 0.0
C539 C 0.789 0.49317 0.28425 0.0
C540 C 0.8039 0.51295 0.30042 0.0
C541 C 0.80163 0.50466 0.32292 0.0
C542 C 0.75388 0.44488 0.27439 0.0
C543 C 0.82385 0.54178 0.29388 0.0
H544 H 0.85219 0.47874 0.2213 0.0
H545 H 0.76954 0.54048 0.21519 0.0
H546 H 0.85585 0.47501 0.27775 0.0
H547 H 0.83053 0.44151 0.27118 0.0
H548 H 0.86442 0.45077 0.25368 0.0
H549 H 0.73273 0.54817 0.24427 0.0
H550 H 0.73088 0.51681 0.26489 0.0
H551 H 0.75439 0.55206 0.27001 0.0
H552 H 0.75508 0.43756 0.31863 0.0
H553 H 0.81427 0.51904 0.33513 0.0
H554 H 0.77232 0.43101 0.26511 0.0
H555 H 0.7402 0.45939 0.26218 0.0
H556 H 0.73716 0.42756 0.28238 0.0
H557 H 0.84608 0.5335 0.2854 0.0
H558 H 0.83088 0.55665 0.3084 0.0
H559 H 0.81039 0.55715 0.28206 0.0
C560 C 0.54885 0.83811 0.79806 0.0
C561 C 0.54093 0.8164 0.81498 0.0
C562 C 0.53589 0.83493 0.77674 0.0
C563 C 0.5148 0.80905 0.77199 0.0
C564 C 0.50742 0.78643 0.7888 0.0
C565 C 0.52033 0.79055 0.81018 0.0
C566 C 0.54396 0.85997 0.75948 0.0
C567 C 0.48545 0.75825 0.78427 0.0
C568 C 0.45578 0.82574 0.72551 0.0
C569 C 0.4714 0.81213 0.70712 0.0
C570 C 0.4691 0.82385 0.74679 0.0
C571 C 0.49865 0.80751 0.74995 0.0
C572 C 0.51388 0.7924 0.73167 0.0
C573 C 0.5002 0.7951 0.7104 0.0
C574 C 0.45225 0.84074 0.7657 0.0
C575 C 0.54514 0.77429 0.73445 0.0
H576 H 0.56467 0.85822 0.80159 0.0
H577 H 0.51432 0.77353 0.82312 0.0
H578 H 0.55397 0.84824 0.74448 0.0
H579 H 0.52172 0.87286 0.75443 0.0
H580 H 0.56163 0.87798 0.7656 0.0
H581 H 0.48442 0.74124 0.79843 0.0
H582 H 0.46073 0.76708 0.78085 0.0
H583 H 0.49367 0.74497 0.76935 0.0
H584 H 0.43349 0.83892 0.72323 0.0
H585 H 0.51233 0.78434 0.69633 0.0
H586 H 0.46755 0.8607 0.77192 0.0
H587 H 0.44844 0.82383 0.77965 0.0
H588 H 0.42855 0.85086 0.76074 0.0
H589 H 0.56473 0.79147 0.73849 0.0
H590 H 0.55195 0.76082 0.71925 0.0
H591 H 0.54332 0.75707 0.74842 0.0
C592 C 0.75436 0.54349 0.81828 0.0
C593 C 0.77773 0.52945 0.83204 0.0
C594 C 0.75183 0.53483 0.79583 0.0
C595 C 0.77323 0.51163 0.78689 0.0
C596 C 0.79609 0.49656 0.80087 0.0
C597 C 0.79802 0.50558 0.82324 0.0
C598 C 0.72696 0.55125 0.78152 0.0
C599 C 0.8193 0.47163 0.79202 0.0
C600 C 0.75675 0.46885 0.73231 0.0
C601 C 0.77743 0.48522 0.71779 0.0
C602 C 0.75416 0.47795 0.75466 0.0
C603 C 0.7728 0.50396 0.76275 0.0
C604 C 0.79268 0.52143 0.74798 0.0
C605 C 0.79469 0.51192 0.72569 0.0
C606 C 0.73245 0.45889 0.76979 0.0
C607 C 0.81291 0.54936 0.75593 0.0
H608 H 0.73854 0.56192 0.82488 0.0
H609 H 0.81613 0.49454 0.83369 0.0
H610 H 0.73917 0.56617 0.76883 0.0
H611 H 0.71228 0.53306 0.77262 0.0
H612 H 0.71063 0.567 0.7913 0.0
H613 H 0.83471 0.46119 0.80523 0.0
H614 H 0.8059 0.45181 0.78383 0.0
H615 H 0.8351 0.48272 0.77934 0.0
H616 H 0.74317 0.44829 0.72637 0.0
H617 H 0.81072 0.52475 0.71464 0.0
H618 H 0.71635 0.47531 0.77918 0.0
H619 H 0.74724 0.44561 0.78205 0.0
H620 H 0.71742 0.44125 0.76058 0.0
H621 H 0.79766 0.56721 0.76474 0.0
H622 H 0.82552 0.56172 0.74214 0.0
H623 H 0.83121 0.54059 0.76789 0.0
C624 C 0.45337 0.79529 0.30111 0.0
C625 C 0.47516 0.79335 0.31884 0.0
C626 C 0.46412 0.79624 0.27912 0.0
C627 C 0.49752 0.79499 0.27462 0.0
C628 C 0.51957 0.791 0.29233 0.0
C629 C 0.50814 0.79034 0.31426 0.0
C630 C 0.43976 0.80066 0.26079 0.0
C631 C 0.55536 0.7892 0.28821 0.0
C632 C 0.52398 0.78458 0.21448 0.0
C633 C 0.53065 0.81653 0.2085 0.0
C634 C 0.5136 0.77698 0.23605 0.0
C635 C 0.50939 0.80197 0.25183 0.0
C636 C 0.51569 0.83425 0.2457 0.0
C637 C 0.52637 0.84107 0.22422 0.0
C638 C 0.50741 0.74225 0.24205 0.0
C639 C 0.51104 0.86173 0.26184 0.0
H640 H 0.4278 0.79735 0.30441 0.0
H641 H 0.52515 0.78864 0.32781 0.0
H642 H 0.4423 0.82515 0.25367 0.0
H643 H 0.44412 0.78313 0.24725 0.0
H644 H 0.41463 0.79775 0.26675 0.0
H645 H 0.56888 0.78181 0.30324 0.0
H646 H 0.56071 0.77191 0.27467 0.0
H647 H 0.56428 0.81316 0.2829 0.0
H648 H 0.52748 0.76549 0.20246 0.0
H649 H 0.53129 0.86585 0.21972 0.0
H650 H 0.48206 0.73922 0.24743 0.0
H651 H 0.52293 0.73518 0.25618 0.0
H652 H 0.51213 0.72561 0.22799 0.0
H653 H 0.48571 0.86232 0.26765 0.0
H654 H 0.5169 0.88549 0.25443 0.0
H655 H 0.52654 0.85812 0.27659 0.0
C656 C 0.24734 0.45959 0.81539 0.0
C657 C 0.23067 0.47772 0.83133 0.0
C658 C 0.25008 0.47033 0.79344 0.0
C659 C 0.23538 0.49971 0.78716 0.0
C660 C 0.21962 0.51876 0.80337 0.0
C661 C 0.21767 0.50765 0.82531 0.0
C662 C 0.26763 0.4496 0.77678 0.0
C663 C 0.20343 0.55012 0.79733 0.0
C664 C 0.25599 0.54038 0.7325 0.0
C665 C 0.23033 0.53052 0.71897 0.0
C666 C 0.25847 0.5299 0.75456 0.0
C667 C 0.23448 0.50942 0.7634 0.0
C668 C 0.20895 0.49876 0.74967 0.0
C669 C 0.20732 0.50924 0.7276 0.0
C670 C 0.28637 0.5413 0.76854 0.0
C671 C 0.18275 0.47707 0.75847 0.0
H672 H 0.25766 0.43653 0.81995 0.0
H673 H 0.20463 0.52175 0.83749 0.0
H674 H 0.25018 0.4397 0.76465 0.0
H675 H 0.28531 0.46423 0.76741 0.0
H676 H 0.28048 0.42917 0.78472 0.0
H677 H 0.19388 0.56302 0.81206 0.0
H678 H 0.22058 0.56616 0.78863 0.0
H679 H 0.18317 0.54531 0.78581 0.0
H680 H 0.27394 0.55673 0.72596 0.0
H681 H 0.18732 0.50158 0.71734 0.0
H682 H 0.29886 0.52041 0.77612 0.0
H683 H 0.27734 0.55662 0.78226 0.0
H684 H 0.30413 0.5554 0.75881 0.0
H685 H 0.19341 0.45463 0.76522 0.0
H686 H 0.16487 0.4705 0.74556 0.0
H687 H 0.16996 0.4893 0.77226 0.0
C688 C 0.51972 0.21413 0.31731 0.0
C689 C 0.53316 0.18401 0.32238 0.0
C690 C 0.50686 0.22031 0.29618 0.0
C691 C 0.50698 0.19562 0.27994 0.0
C692 C 0.52039 0.16517 0.28508 0.0
C693 C 0.53349 0.15984 0.30613 0.0
C694 C 0.49315 0.2532 0.2912 0.0
C695 C 0.52051 0.13797 0.26841 0.0
C696 C 0.44608 0.19386 0.23321 0.0
C697 C 0.4652 0.20148 0.21479 0.0
C698 C 0.45908 0.19321 0.25462 0.0
C699 C 0.49196 0.20079 0.25783 0.0
C700 C 0.51101 0.21018 0.23948 0.0
C701 C 0.49746 0.2102 0.21813 0.0
C702 C 0.438 0.18267 0.27365 0.0
C703 C 0.54604 0.21892 0.24229 0.0
H704 H 0.51964 0.23297 0.32976 0.0
H705 H 0.5437 0.13645 0.30994 0.0
H706 H 0.50518 0.26352 0.27643 0.0
H707 H 0.46715 0.25115 0.28726 0.0
H708 H 0.49607 0.27018 0.30529 0.0
H709 H 0.532 0.11578 0.27499 0.0
H710 H 0.49546 0.13214 0.26345 0.0
H711 H 0.53359 0.14541 0.25325 0.0
H712 H 0.4211 0.18716 0.23085 0.0
H713 H 0.51235 0.21632 0.20402 0.0
H714 H 0.43941 0.20028 0.28744 0.0
H715 H 0.44669 0.15919 0.28009 0.0
H716 H 0.41238 0.17996 0.2687 0.0
H717 H 0.54898 0.23651 0.25599 0.0
H718 H 0.55647 0.22933 0.22696 0.0
H719 H 0.56003 0.19708 0.24673 0.0
C720 C 0.19094 0.44838 0.98673 0.0
C721 C 0.20312 0.4684 0.97002 0.0
C722 C 0.19341 0.45685 1.00912 0.0
C723 C 0.20871 0.48603 1.01516 0.0
C724 C 0.22179 0.50608 0.99846 0.0
C725 C 0.2187 0.49711 0.97604 0.0
C726 C 0.17894 0.43475 0.02631 0.0
C727 C 0.2386 0.53717 1.00428 0.0
C728 C 0.18021 0.51493 0.07132 0.0
C729 C 0.2029 0.5006 0.08545 0.0
C730 C 0.18311 0.5125 0.04822 0.0
C731 C 0.20953 0.4956 0.03897 0.0
C732 C 0.23398 0.48359 0.05308 0.0
C733 C 0.23032 0.48609 0.07617 0.0
C734 C 0.15641 0.52562 0.03385 0.0
C735 C 0.26281 0.4659 0.0439 0.0
H736 H 0.17889 0.42612 0.98234 0.0
H737 H 0.22829 0.51266 0.96325 0.0
H738 H 0.19763 0.42733 0.0384 0.0
H739 H 0.15988 0.4477 0.03564 0.0
H740 H 0.16824 0.41272 1.01889 0.0
H741 H 0.24941 0.54894 0.98955 0.0
H742 H 0.22122 0.55413 1.01196 0.0
H743 H 0.25786 0.53262 1.01662 0.0
H744 H 0.15906 0.52645 0.07827 0.0
H745 H 0.24816 0.47519 0.08691 0.0
H746 H 0.1421 0.5053 0.02707 0.0
H747 H 0.16643 0.53911 1.0196 0.0
H748 H 0.13995 0.54177 0.0432 0.0
H749 H 0.25536 0.44152 0.03837 0.0
H750 H 0.28218 0.46318 0.05646 0.0
H751 H 0.27272 0.47867 0.0293 0.0
C752 C 0.5305 0.21531 0.46738 0.0
C753 C 0.55485 0.19315 0.462 0.0
C754 C 0.52459 0.22406 0.48957 0.0
C755 C 0.54358 0.21044 0.50666 0.0
C756 C 0.56786 0.18778 0.50127 0.0
C757 C 0.5731 0.17941 0.4791 0.0
C758 C 0.49837 0.24812 0.49471 0.0
C759 C 0.58876 0.17266 0.51892 0.0
C760 C 0.56041 0.24887 0.56231 0.0
C761 C 0.54353 0.22833 0.57662 0.0
C762 C 0.55857 0.24504 0.53925 0.0
C763 C 0.53925 0.22016 0.53025 0.0
C764 C 0.5199 0.2013 0.54451 0.0
C765 C 0.52229 0.20557 0.56754 0.0
C766 C 0.5795 0.26582 0.52468 0.0
C767 C 0.49865 0.17479 0.5356 0.0
H768 H 0.51624 0.22599 0.45428 0.0
H769 H 0.59193 0.16222 0.47519 0.0
H770 H 0.48144 0.23798 0.50707 0.0
H771 H 0.50906 0.27011 0.50214 0.0
H772 H 0.48457 0.25515 0.47972 0.0
H773 H 0.60629 0.15512 0.51198 0.0
H774 H 0.60231 0.19167 0.52788 0.0
H775 H 0.57353 0.16004 0.53124 0.0
H776 H 0.57661 0.26681 0.56911 0.0
H777 H 0.50886 0.18978 0.57842 0.0
H778 H 0.5658 0.27448 0.51009 0.0
H779 H 0.60005 0.2513 0.51844 0.0
H780 H 0.58926 0.28698 0.53374 0.0
H781 H 0.48524 0.18308 0.52078 0.0
H782 H 0.48113 0.16624 0.54818 0.0
H783 H 0.51385 0.15408 0.53048 0.0
C784 C 0.8295 0.57095 0.06317 0.0
C785 C 0.81564 0.55153 0.07959 0.0
C786 C 0.823 0.56585 0.04068 0.0
C787 C 0.80212 0.54057 0.03426 0.0
C788 C 0.78822 0.52058 0.05067 0.0
C789 C 0.79511 0.52632 0.07319 0.0
C790 C 0.83833 0.58782 0.02378 0.0
C791 C 0.76596 0.49333 0.04444 0.0
C792 C 0.76704 0.55509 0.97721 0.0
C793 C 0.7892 0.53882 0.96365 0.0
C794 C 0.7695 0.55393 1.00038 0.0
C795 C 0.79467 0.53598 1.01029 0.0
C796 C 0.81554 0.51748 0.99675 0.0
C797 C 0.81258 0.51913 0.9736 0.0
C798 C 0.74666 0.57394 1.01416 0.0
C799 C 0.84252 0.4978 1.00662 0.0
H800 H 0.84543 0.59047 0.06786 0.0
H801 H 0.78434 0.51117 0.08576 0.0
H802 H 0.85277 0.57347 1.01187 0.0
H803 H 0.81937 0.60048 1.0142 0.0
H804 H 0.85426 0.60616 0.0315 0.0
H805 H 0.7579 0.47936 0.05909 0.0
H806 H 0.74444 0.503 0.03583 0.0
H807 H 0.77822 0.47672 0.03275 0.0
H808 H 0.74869 0.57014 0.96974 0.0
H809 H 0.82969 0.50626 0.96331 0.0
H810 H 0.7597 0.59506 0.021 0.0
H811 H 0.73743 0.55981 0.02837 0.0
H812 H 0.72587 0.58284 1.00433 0.0
H813 H 0.86169 0.51418 1.01271 0.0
H814 H 0.85332 0.481 0.99435 0.0
H815 H 0.8338 0.48368 0.02099 0.0
C816 C 0.5148 0.77476 0.56374 0.0
C817 C 0.49292 0.7968 0.57299 0.0
C818 C 0.51979 0.77333 0.54068 0.0
C819 C 0.50232 0.79426 0.52657 0.0
C820 C 0.48029 0.81654 0.53585 0.0
C821 C 0.47597 0.8176 0.55885 0.0
C822 C 0.54366 0.74944 0.5314 0.0
C823 C 0.46101 0.83923 0.52145 0.0
C824 C 0.52756 0.81811 0.46848 0.0
C825 C 0.50568 0.80059 0.45548 0.0
C826 C 0.52837 0.81457 0.49161 0.0
C827 C 0.50659 0.79319 0.50204 0.0
C828 C 0.48595 0.77389 0.48889 0.0
C829 C 0.48584 0.77771 0.46577 0.0
C830 C 0.55106 0.83531 0.50496 0.0
C831 C 0.46229 0.75086 0.4993 0.0
H832 H 0.52804 0.75861 0.57449 0.0
H833 H 0.45893 0.8347 0.56573 0.0
H834 H 0.53128 0.73258 0.51996 0.0
H835 H 0.56231 0.76223 0.52165 0.0
H836 H 0.55573 0.73522 0.54457 0.0
H837 H 0.44472 0.85499 0.53126 0.0
H838 H 0.47748 0.85473 0.51171 0.0
H839 H 0.44627 0.82525 0.50951 0.0
H840 H 0.5432 0.83563 0.46069 0.0
H841 H 0.46888 0.76398 0.45591 0.0
H842 H 0.5635 0.82074 0.51775 0.0
H843 H 0.53714 0.85432 0.51367 0.0
H844 H 0.56945 0.84715 0.4944 0.0
H845 H 0.47435 0.73581 0.51199 0.0
H846 H 0.45088 0.73477 0.48686 0.0
H847 H 0.44305 0.76477 0.50776 0.0
C848 C 0.2153 0.52733 0.47777 0.0
C849 C 0.19792 0.55487 0.47149 0.0
C850 C 0.22209 0.5211 0.50024 0.0
C851 C 0.21133 0.54298 0.51671 0.0
C852 C 0.19386 0.57077 0.51039 0.0
C853 C 0.18737 0.5763 0.48797 0.0
C854 C 0.2407 0.49118 0.50637 0.0
C855 C 0.18197 0.59483 0.52734 0.0
C856 C 0.19758 0.52334 0.57724 0.0
C857 C 0.2233 0.53964 0.58736 0.0
C858 C 0.19469 0.522 0.55408 0.0
C859 C 0.21802 0.53739 0.54067 0.0
C860 C 0.24527 0.55176 0.55075 0.0
C861 C 0.24761 0.55267 0.57395 0.0
C862 C 0.16539 0.50619 0.54405 0.0
C863 C 0.27074 0.56841 0.53712 0.0
H864 H 0.22353 0.51064 0.46516 0.0
H865 H 0.17398 0.59769 0.48337 0.0
H866 H 0.26303 0.49791 0.51531 0.0
H867 H 0.22619 0.47608 0.51774 0.0
H868 H 0.2473 0.47653 0.49164 0.0
H869 H 0.16884 0.6153 0.51967 0.0
H870 H 0.16564 0.58279 0.53926 0.0
H871 H 0.20259 0.6046 0.53691 0.0
H872 H 0.17879 0.51293 0.58741 0.0
H873 H 0.2677 0.56513 0.58155 0.0
H874 H 0.17227 0.49086 0.52976 0.0
H875 H 0.14874 0.52505 0.53783 0.0
H876 H 0.15222 0.49118 0.55626 0.0
H877 H 0.27789 0.55325 0.5228 0.0
H878 H 0.29255 0.57412 0.54702 0.0
H879 H 0.26083 0.59127 0.53045 0.0
C880 C 0.50405 0.17132 0.97234 0.0
C881 C 0.48919 0.19394 0.95843 0.0
C882 C 0.50229 0.17424 0.99546 0.0
C883 C 0.48545 0.20054 1.00494 0.0
C884 C 0.47296 0.22497 0.99102 0.0
C885 C 0.47488 0.22134 0.96792 0.0
C886 C 0.51599 0.14763 1.00965 0.0
C887 C 0.45524 0.25365 1.00043 0.0
C888 C 0.43879 0.18125 0.05712 0.0
C889 C 0.45866 0.19374 0.07384 0.0
C890 C 0.44716 0.18379 0.03475 0.0
C891 C 0.47612 0.19944 0.02875 0.0
C892 C 0.49607 0.21278 0.04545 0.0
C893 C 0.48716 0.20967 0.06786 0.0
C894 C 0.42515 0.16912 1.01754 0.0
C895 C 0.52695 0.2299 0.03965 0.0
H896 H 0.51547 0.15023 0.96521 0.0
H897 H 0.46361 0.23916 0.95735 0.0
H898 H 0.52944 0.15775 0.02391 0.0
H899 H 0.49599 0.1329 1.01639 0.0
H900 H 0.53231 0.13152 1.00013 0.0
H901 H 0.4522 0.27309 0.98799 0.0
H902 H 0.431 0.24599 1.00606 0.0
H903 H 0.46814 0.26356 1.01501 0.0
H904 H 0.41668 0.16896 0.06149 0.0
H905 H 0.5026 0.21947 0.08067 0.0
H906 H 0.43825 0.15024 1.00813 0.0
H907 H 0.41743 0.18778 1.00553 0.0
H908 H 0.4033 0.15812 0.02495 0.0
H909 H 0.54399 0.2127 0.03185 0.0
H910 H 0.53873 0.24072 0.0544 0.0
H911 H 0.52216 0.24921 0.0274 0.0
C912 C 0.79556 0.49452 0.47459 0.0
C913 C 0.80975 0.46516 0.46836 0.0
C914 C 0.79309 0.50337 0.49707 0.0
C915 C 0.80527 0.48245 0.5136 0.0
C916 C 0.81871 0.45242 0.50737 0.0
C917 C 0.82069 0.44417 0.48492 0.0
C918 C 0.77829 0.53542 0.50308 0.0
C919 C 0.83203 0.42932 0.5244 0.0
C920 C 0.83816 0.51024 0.56884 0.0
C921 C 0.81516 0.49798 0.58361 0.0
C922 C 0.83409 0.50747 0.54586 0.0
C923 C 0.80619 0.49228 0.53735 0.0
C924 C 0.78164 0.48229 0.5521 0.0
C925 C 0.78645 0.48515 0.57507 0.0
C926 C 0.86092 0.51845 0.53079 0.0
C927 C 0.7513 0.46645 0.5437 0.0
H928 H 0.78694 0.51085 0.46192 0.0
H929 H 0.83149 0.42132 0.48036 0.0
H930 H 0.75988 0.53227 0.51621 0.0
H931 H 0.79714 0.55163 0.50982 0.0
H932 H 0.76692 0.54735 0.48861 0.0
H933 H 0.84061 0.40642 0.51688 0.0
H934 H 0.85247 0.44072 0.53327 0.0
H935 H 0.81334 0.42356 0.53689 0.0
H936 H 0.86029 0.52052 0.57522 0.0
H937 H 0.7684 0.47581 0.58631 0.0
H938 H 0.85116 0.53272 0.51681 0.0
H939 H 0.87324 0.49708 0.52367 0.0
H940 H 0.87908 0.53325 0.53968 0.0
H941 H 0.74161 0.47958 0.52917 0.0
H942 H 0.73238 0.46531 0.55668 0.0
H943 H 0.75687 0.4415 0.53828 0.0
C944 C 0.53333 0.78981 0.06208 0.0
C945 C 0.55635 0.81271 0.06858 0.0
C946 C 0.52854 0.78232 0.03953 0.0
C947 C 0.54732 0.798 0.02319 0.0
C948 C 0.57029 0.82133 0.02971 0.0
C949 C 0.57443 0.82839 0.05221 0.0
C950 C 0.5037 0.75746 0.0332 0.0
C951 C 0.59094 0.83862 1.01291 0.0
C952 C 0.56727 0.76416 0.96654 0.0
C953 C 0.54959 0.78469 0.95264 0.0
C954 C 0.56483 0.76647 0.98968 0.0
C955 C 0.54412 0.78979 0.99921 0.0
C956 C 0.5242 0.80868 0.98529 0.0
C957 C 0.52719 0.80595 0.96217 0.0
C958 C 0.58644 0.74573 1.00385 0.0
C959 C 0.50153 0.83359 0.99474 0.0
H960 H 0.5192 0.77761 0.0746 0.0
H961 H 0.59226 0.84617 0.05695 0.0
H962 H 0.48649 0.76778 0.02108 0.0
H963 H 0.51564 0.73667 0.02506 0.0
H964 H 0.49001 0.74856 0.04775 0.0
H965 H 0.6074 0.85643 1.02069 0.0
H966 H 0.60566 0.82091 1.00355 0.0
H967 H 0.57547 0.8514 1.00079 0.0
H968 H 0.5844 0.74739 0.9594 0.0
H969 H 0.51318 0.82174 0.95162 0.0
H970 H 0.57281 0.73536 1.01792 0.0
H971 H 0.60601 0.76079 1.01088 0.0
H972 H 0.59755 0.72575 0.99425 0.0
H973 H 0.48805 0.82366 1.00903 0.0
H974 H 0.48403 0.84234 0.9822 0.0
H975 H 0.51562 0.85451 1.00083 0.0
C976 C 0.24427 0.35085 0.15769 0.0
C977 C 0.23751 0.36499 0.13712 0.0
C978 C 0.26714 0.32603 0.15961 0.0
C979 C 0.28376 0.31524 0.14052 0.0
C980 C 0.27544 0.32788 0.11953 0.0
C981 C 0.25235 0.35252 0.11808 0.0
C982 C 0.27503 0.31293 0.18226 0.0
C983 C 0.29256 0.31705 0.09876 0.0
C984 C 0.3707 0.28912 0.14729 0.0
C985 C 0.36861 0.25549 0.14544 0.0
C986 C 0.34322 0.30862 0.146 0.0
C987 C 0.31268 0.29422 0.14279 0.0
C988 C 0.31021 0.26025 0.14125 0.0
C989 C 0.33825 0.24124 0.14258 0.0
C990 C 0.34698 0.34475 0.14775 0.0
C991 C 0.27804 0.24408 0.13792 0.0
H992 H 0.23271 0.36008 0.17249 0.0
H993 H 0.24717 0.3631 0.10208 0.0
H994 H 0.27645 0.28624 0.18185 0.0
H995 H 0.29893 0.32204 0.18756 0.0
H996 H 0.25692 0.32025 0.19484 0.0
H997 H 0.28067 0.32622 0.08354 0.0
H998 H 0.31774 0.32598 0.09904 0.0
H999 H 0.29358 0.29038 0.0979 0.0
H1000 H 0.39399 0.30041 0.14958 0.0
H1001 H 0.33641 0.21527 0.14116 0.0
H1002 H 0.33208 0.35417 0.16156 0.0
H1003 H 0.33832 0.35636 0.13233 0.0
H1004 H 0.37237 0.35209 0.15059 0.0
H1005 H 0.26101 0.25165 0.15109 0.0
H1006 H 0.27999 0.21738 0.13806 0.0
H1007 H 0.26752 0.25166 0.12188 0.0
C1008 C 0.75602 0.35865 0.62065 0.0
C1009 C 0.77407 0.3693 0.63889 0.0
C1010 C 0.73276 0.33436 0.62291 0.0
C1011 C 0.72766 0.32 0.64385 0.0
C1012 C 0.74745 0.32894 0.66194 0.0
C1013 C 0.77028 0.35364 0.6593 0.0
C1014 C 0.71206 0.32578 0.6032 0.0
C1015 C 0.74319 0.31381 0.68445 0.0
C1016 C 0.64176 0.29426 0.65564 0.0
C1017 C 0.64268 0.26106 0.65126 0.0
C1018 C 0.66936 0.31343 0.65365 0.0
C1019 C 0.69893 0.29908 0.64739 0.0
C1020 C 0.70036 0.26541 0.64357 0.0
C1021 C 0.67213 0.24679 0.6454 0.0
C1022 C 0.66661 0.34928 0.65768 0.0
C1023 C 0.73156 0.24919 0.63721 0.0
H1024 H 0.75882 0.37043 0.60478 0.0
H1025 H 0.78429 0.36149 0.67345 0.0
H1026 H 0.71076 0.29927 0.60109 0.0
H1027 H 0.68715 0.33461 0.60602 0.0
H1028 H 0.72122 0.33656 0.58762 0.0
H1029 H 0.76351 0.31957 0.69574 0.0
H1030 H 0.7206 0.32281 0.69207 0.0
H1031 H 0.74109 0.28724 0.68297 0.0
H1032 H 0.61918 0.30559 0.66018 0.0
H1033 H 0.6731 0.22113 0.64208 0.0
H1034 H 0.67298 0.36257 0.64238 0.0
H1035 H 0.68379 0.35685 0.67074 0.0
H1036 H 0.64197 0.35658 0.66281 0.0
H1037 H 0.73948 0.2579 0.62075 0.0
H1038 H 0.72924 0.22254 0.63652 0.0
H1039 H 0.75075 0.25552 0.64923 0.0
C1040 C 0.72736 0.64239 0.14919 0.0
C1041 C 0.76102 0.64225 0.15111 0.0
C1042 C 0.70973 0.67111 0.15042 0.0
C1043 C 0.72607 0.70067 0.15357 0.0
C1044 C 0.7601 0.70089 0.15527 0.0
C1045 C 0.77722 0.67161 0.15407 0.0
C1046 C 0.67345 0.6697 0.14856 0.0
C1047 C 0.77832 0.73198 0.15852 0.0
C1048 C 0.67319 0.77139 0.13766 0.0
C1049 C 0.65866 0.77886 0.15801 0.0
C1050 C 0.69725 0.74765 0.13618 0.0
C1051 C 0.70693 0.73094 0.15549 0.0
C1052 C 0.69424 0.74024 0.1763 0.0
C1053 C 0.67032 0.76413 0.17731 0.0
C1054 C 0.71044 0.73875 0.11371 0.0
C1055 C 0.70395 0.72316 0.19731 0.0
H1056 H 0.71456 0.61989 0.14688 0.0
H1057 H 0.80323 0.67173 0.15552 0.0
H1058 H 0.66229 0.67948 0.16384 0.0
H1059 H 0.66519 0.68485 0.13455 0.0
H1060 H 0.66447 0.64477 0.14595 0.0
H1061 H 0.8048 0.72821 0.15877 0.0
H1062 H 0.77232 0.74915 0.14508 0.0
H1063 H 0.77099 0.74342 0.17435 0.0
H1064 H 0.66462 0.78286 0.12266 0.0
H1065 H 0.65953 0.76994 0.19316 0.0
H1066 H 0.69991 0.71545 0.10834 0.0
H1067 H 0.73695 0.73561 0.11441 0.0
H1068 H 0.70462 0.75722 0.10103 0.0
H1069 H 0.69333 0.69863 0.19742 0.0
H1070 H 0.69558 0.73617 0.21233 0.0
H1071 H 0.73048 0.72038 0.19819 0.0
C1072 C 0.23872 0.67422 0.6212 0.0
C1073 C 0.23391 0.65571 0.64033 0.0
C1074 C 0.26309 0.69766 0.62026 0.0
C1075 C 0.28315 0.70275 0.63891 0.0
C1076 C 0.2772 0.68545 0.65867 0.0
C1077 C 0.25269 0.66217 0.65914 0.0
C1078 C 0.26854 0.71565 0.5989 0.0
C1079 C 0.29794 0.69018 0.67895 0.0
C1080 C 0.36985 0.72769 0.62905 0.0
C1081 C 0.36949 0.76048 0.63477 0.0
C1082 C 0.34185 0.70892 0.63006 0.0
C1083 C 0.31255 0.72317 0.63699 0.0
C1084 C 0.3118 0.75637 0.6425 0.0
C1085 C 0.3403 0.77467 0.64132 0.0
C1086 C 0.34377 0.67364 0.62397 0.0
C1087 C 0.281 0.7724 0.64992 0.0
H1088 H 0.22428 0.66955 0.6066 0.0
H1089 H 0.24907 0.64818 0.67407 0.0
H1090 H 0.27107 0.74185 0.60212 0.0
H1091 H 0.2913 0.70727 0.59117 0.0
H1092 H 0.24861 0.7119 0.5869 0.0
H1093 H 0.28809 0.67754 0.69365 0.0
H1094 H 0.3225 0.68079 0.67565 0.0
H1095 H 0.30027 0.71618 0.6829 0.0
H1096 H 0.3922 0.71646 0.62388 0.0
H1097 H 0.33978 0.79997 0.64577 0.0
H1098 H 0.32646 0.66813 0.6105 0.0
H1099 H 0.33701 0.65866 0.63843 0.0
H1100 H 0.36825 0.66641 0.61845 0.0
H1101 H 0.26191 0.76886 0.63731 0.0
H1102 H 0.28412 0.79865 0.65282 0.0
H1103 H 0.27241 0.76112 0.66546 0.0
C1104 C 0.34862 0.76617 0.42567 0.0
C1105 C 0.3649 0.77394 0.40605 0.0
C1106 C 0.32342 0.74361 0.4257 0.0
C1107 C 0.31443 0.72833 0.40566 0.0
C1108 C 0.32917 0.73783 0.38558 0.0
C1109 C 0.35415 0.76058 0.386 0.0
C1110 C 0.30806 0.73444 0.44744 0.0
C1111 C 0.32031 0.72218 0.36384 0.0
C1112 C 0.2883 0.64104 0.40913 0.0
C1113 C 0.25491 0.64313 0.40595 0.0
C1114 C 0.3077 0.66861 0.40918 0.0
C1115 C 0.29343 0.69926 0.40611 0.0
C1116 C 0.25967 0.70172 0.40315 0.0
C1117 C 0.24076 0.67356 0.40303 0.0
C1118 C 0.34362 0.66483 0.41231 0.0
C1119 C 0.24363 0.73402 0.39999 0.0
H1120 H 0.35649 0.77659 0.44121 0.0
H1121 H 0.36635 0.76661 0.37071 0.0
H1122 H 0.2815 0.73307 0.44573 0.0
H1123 H 0.31671 0.71024 0.45248 0.0
H1124 H 0.31402 0.75183 0.46082 0.0
H1125 H 0.33072 0.73518 0.34947 0.0
H1126 H 0.32942 0.69703 0.3636 0.0
H1127 H 0.29378 0.72113 0.36185 0.0
H1128 H 0.29952 0.61769 0.4114 0.0
H1129 H 0.21496 0.67538 0.40061 0.0
H1130 H 0.35164 0.67878 0.42698 0.0
H1131 H 0.35654 0.67459 0.39772 0.0
H1132 H 0.35089 0.63928 0.41458 0.0
H1133 H 0.24942 0.75015 0.41409 0.0
H1134 H 0.21704 0.73194 0.39857 0.0
H1135 H 0.253 0.7457 0.3848 0.0
C1136 C 0.34408 0.24611 0.88566 0.0
C1137 C 0.3538 0.23336 0.90611 0.0
C1138 C 0.3211 0.27093 0.8845 0.0
C1139 C 0.30735 0.28321 0.90425 0.0
C1140 C 0.31516 0.26868 0.92475 0.0
C1141 C 0.33833 0.244 0.92545 0.0
C1142 C 0.31344 0.28566 0.86228 0.0
C1143 C 0.30085 0.28078 0.94618 0.0
C1144 C 0.28879 0.37269 0.9058 0.0
C1145 C 0.25522 0.37342 0.90322 0.0
C1146 C 0.30581 0.34354 0.90606 0.0
C1147 C 0.28894 0.3141 0.90383 0.0
C1148 C 0.25501 0.31451 0.90127 0.0
C1149 C 0.23851 0.34422 0.90092 0.0
C1150 C 0.342 0.34431 0.90872 0.0
C1151 C 0.2362 0.2836 0.89896 0.0
H1152 H 0.35569 0.23795 0.87059 0.0
H1153 H 0.34539 0.2341 0.94132 0.0
H1154 H 0.28711 0.28914 0.86035 0.0
H1155 H 0.3249 0.30974 0.86114 0.0
H1156 H 0.32236 0.27059 0.84836 0.0
H1157 H 0.30551 0.26402 0.96014 0.0
H1158 H 0.3115 0.30453 0.95036 0.0
H1159 H 0.27447 0.28424 0.94449 0.0
H1160 H 0.30201 0.39506 0.90752 0.0
H1161 H 0.21257 0.34456 0.89896 0.0
H1162 H 0.35367 0.33234 0.89438 0.0
H1163 H 0.34913 0.33083 0.92378 0.0
H1164 H 0.35151 0.36925 0.91006 0.0
H1165 H 0.24485 0.26987 0.88436 0.0
H1166 H 0.20994 0.28798 0.8971 0.0
H1167 H 0.24017 0.26821 0.91371 0.0
C1168 C 0.65912 0.26369 0.36232 0.0
C1169 C 0.65296 0.23919 0.37772 0.0
C1170 C 0.6831 0.2868 0.36615 0.0
C1171 C 0.70162 0.28529 0.3858 0.0
C1172 C 0.69725 0.25921 0.40057 0.0
C1173 C 0.67288 0.23649 0.3964 0.0
C1174 C 0.68694 0.31419 0.34993 0.0
C1175 C 0.71686 0.25644 0.42152 0.0
C1176 C 0.77199 0.34397 0.38918 0.0
C1177 C 0.75777 0.37005 0.40034 0.0
C1178 C 0.75452 0.31551 0.38509 0.0
C1179 C 0.72208 0.31328 0.39217 0.0
C1180 C 0.70808 0.3391 0.40412 0.0
C1181 C 0.7261 0.36703 0.40812 0.0
C1182 C 0.77038 0.28833 0.37255 0.0
C1183 C 0.67355 0.3378 0.41196 0.0
H1184 H 0.64413 0.26583 0.34771 0.0
H1185 H 0.66851 0.21749 0.40831 0.0
H1186 H 0.67818 0.33687 0.35762 0.0
H1187 H 0.71268 0.31771 0.34572 0.0
H1188 H 0.67323 0.31004 0.3344 0.0
H1189 H 0.71437 0.23234 0.4293 0.0
H1190 H 0.74271 0.26098 0.41811 0.0
H1191 H 0.70869 0.27491 0.43357 0.0
H1192 H 0.79649 0.34604 0.38319 0.0
H1193 H 0.71493 0.38691 0.41688 0.0
H1194 H 0.75935 0.28616 0.35589 0.0
H1195 H 0.76647 0.2651 0.3812 0.0
H1196 H 0.79668 0.29219 0.37052 0.0
H1197 H 0.65717 0.33625 0.39748 0.0
H1198 H 0.66675 0.35929 0.42191 0.0
H1199 H 0.66957 0.31596 0.42215 0.0
C1200 C 0.76351 0.65791 0.89959 0.0
C1201 C 0.78398 0.65293 0.8814 0.0
C1202 C 0.73923 0.68146 0.89905 0.0
C1203 C 0.73538 0.70075 0.87993 0.0
C1204 C 0.75732 0.69736 0.86212 0.0
C1205 C 0.78129 0.67343 0.86303 0.0
C1206 C 0.71636 0.68417 0.9184 0.0
C1207 C 0.7543 0.71771 0.84155 0.0
C1208 C 0.64953 0.72621 0.86738 0.0
C1209 C 0.64861 0.75794 0.87542 0.0
C1210 C 0.67776 0.70774 0.86838 0.0
C1211 C 0.70608 0.72129 0.87751 0.0
C1212 C 0.70569 0.75362 0.8851 0.0
C1213 C 0.6769 0.77157 0.88405 0.0
C1214 C 0.677 0.67333 0.86016 0.0
C1215 C 0.73548 0.769 0.89473 0.0
H1216 H 0.76546 0.6424 0.91394 0.0
H1217 H 0.7971 0.66998 0.84895 0.0
H1218 H 0.71358 0.70969 0.92352 0.0
H1219 H 0.69222 0.67532 0.91338 0.0
H1220 H 0.72459 0.66993 0.93289 0.0
H1221 H 0.77575 0.71548 0.83067 0.0
H1222 H 0.73278 0.71004 0.83202 0.0
H1223 H 0.75092 0.74345 0.84598 0.0
H1224 H 0.62789 0.71542 0.86062 0.0
H1225 H 0.67646 0.79608 0.89024 0.0
H1226 H 0.6824 0.65664 0.874 0.0
H1227 H 0.69578 0.66961 0.84735 0.0
H1228 H 0.65328 0.66668 0.85299 0.0
H1229 H 0.74224 0.75657 0.91029 0.0
H1230 H 0.73192 0.79501 0.89837 0.0
H1231 H 0.75601 0.76635 0.88312 0.0
loop_
_geom_bond_atom_site_label_1
_geom_bond_atom_site_label_2
_geom_bond_distance
_geom_bond_site_symmetry_2
_ccdc_geom_bond_type
Mg0 O7 2.141 . S
Mg0 O8 2.048 . S
Mg0 O9 2.048 . S
Mg0 O12 2.141 . S
C1 O2 1.313 . S
C1 O8 1.195 . S
O2 C1 1.313 . S
C3 O4 1.245 . S
C3 O12 1.289 . S
O4 C3 1.245 . S
C5 O6 1.245 . S
C5 O7 1.289 . S
O6 C5 1.245 . S
O7 Mg0 2.141 . S
O7 C5 1.289 . S
O8 Mg0 2.048 . S
O8 C1 1.195 . S
O9 Mg0 2.048 . S
O9 C10 1.195 . S
C10 O9 1.195 . S
C10 O11 1.313 . S
O11 C10 1.313 . S
O12 Mg0 2.141 . S
O12 C3 1.289 . S
Mg13 O20 2.141 . S
Mg13 O21 2.048 . S
Mg13 O22 2.048 . S
Mg13 O25 2.141 . S
C14 O15 1.313 . S
C14 O21 1.195 . S
O15 C14 1.313 . S
C16 O17 1.245 . S
C16 O25 1.289 . S
O17 C16 1.245 . S
C18 O19 1.245 . S
C18 O20 1.289 . S
O19 C18 1.245 . S
O20 Mg13 2.141 . S
O20 C18 1.289 . S
O21 Mg13 2.048 . S
O21 C14 1.195 . S
O22 Mg13 2.048 . S
O22 C23 1.195 . S
C23 O22 1.195 . S
C23 O24 1.313 . S
O24 C23 1.313 . S
O25 Mg13 2.141 . S
O25 C16 1.289 . S
Mg26 O33 2.141 . S
Mg26 O34 2.048 . S
Mg26 O35 2.048 . S
Mg26 O38 2.141 . S
C27 O28 1.313 . S
C27 O34 1.195 . S
O28 C27 1.313 . S
C29 O30 1.245 . S
C29 O38 1.289 . S
O30 C29 1.245 . S
C31 O32 1.245 . S
C31 O33 1.289 . S
O32 C31 1.245 . S
O33 Mg26 2.141 . S
O33 C31 1.289 . S
O34 Mg26 2.048 . S
O34 C27 1.195 . S
O35 Mg26 2.048 . S
O35 C36 1.195 . S
C36 O35 1.195 . S
C36 O37 1.313 . S
O37 C36 1.313 . S
O38 Mg26 2.141 . S
O38 C29 1.289 . S
Mg39 O46 2.141 . S
Mg39 O47 2.048 . S
Mg39 O48 2.048 . S
Mg39 O51 2.141 . S
C40 O41 1.313 . S
C40 O47 1.195 . S
O41 C40 1.313 . S
C42 O43 1.245 . S
C42 O51 1.289 . S
O43 C42 1.245 . S
C44 O45 1.245 . S
C44 O46 1.289 . S
O45 C44 1.245 . S
O46 Mg39 2.141 . S
O46 C44 1.289 . S
O47 Mg39 2.048 . S
O47 C40 1.195 . S
O48 Mg39 2.048 . S
O48 C49 1.195 . S
C49 O48 1.195 . S
C49 O50 1.313 . S
O50 C49 1.313 . S
O51 Mg39 2.141 . S
O51 C42 1.289 . S
Mg52 O59 2.141 . S
Mg52 O60 2.048 . S
Mg52 O61 2.048 . S
Mg52 O64 2.141 . S
C53 O54 1.313 . S
C53 O60 1.195 . S
O54 C53 1.313 . S
C55 O56 1.245 . S
C55 O64 1.289 . S
O56 C55 1.245 . S
C57 O58 1.245 . S
C57 O59 1.289 . S
O58 C57 1.245 . S
O59 Mg52 2.141 . S
O59 C57 1.289 . S
O60 Mg52 2.048 . S
O60 C53 1.195 . S
O61 Mg52 2.048 . S
O61 C62 1.195 . S
C62 O61 1.195 . S
C62 O63 1.313 . S
O63 C62 1.313 . S
O64 Mg52 2.141 . S
O64 C55 1.289 . S
Mg65 O72 2.141 . S
Mg65 O73 2.048 . S
Mg65 O74 2.048 . S
Mg65 O77 2.141 . S
C66 O67 1.313 . S
C66 O73 1.195 . S
O67 C66 1.313 . S
C68 O69 1.245 . S
C68 O77 1.289 . S
O69 C68 1.245 . S
C70 O71 1.245 . S
C70 O72 1.289 . S
O71 C70 1.245 . S
O72 Mg65 2.141 . S
O72 C70 1.289 . S
O73 Mg65 2.048 . S
O73 C66 1.195 . S
O74 Mg65 2.048 . S
O74 C75 1.195 . S
C75 O74 1.195 . S
C75 O76 1.313 . S
O76 C75 1.313 . S
O77 Mg65 2.141 . S
O77 C68 1.289 . S
Mg78 O85 2.141 . S
Mg78 O86 2.048 . S
Mg78 O87 2.048 . S
Mg78 O90 2.141 . S
C79 O80 1.313 . S
C79 O86 1.195 . S
O80 C79 1.313 . S
C81 O82 1.245 . S
C81 O90 1.289 . S
O82 C81 1.245 . S
C83 O84 1.245 . S
C83 O85 1.289 . S
O84 C83 1.245 . S
O85 Mg78 2.141 . S
O85 C83 1.289 . S
O86 Mg78 2.048 . S
O86 C79 1.195 . S
O87 Mg78 2.048 . S
O87 C88 1.195 . S
C88 O87 1.195 . S
C88 O89 1.313 . S
O89 C88 1.313 . S
O90 Mg78 2.141 . S
O90 C81 1.289 . S
Mg91 O98 2.141 . S
Mg91 O99 2.048 . S
Mg91 O100 2.048 . S
Mg91 O103 2.141 . S
C92 O93 1.313 . S
C92 O99 1.195 . S
O93 C92 1.313 . S
C94 O95 1.245 . S
C94 O103 1.289 . S
O95 C94 1.245 . S
C96 O97 1.245 . S
C96 O98 1.289 . S
O97 C96 1.245 . S
O98 Mg91 2.141 . S
O98 C96 1.289 . S
O99 Mg91 2.048 . S
O99 C92 1.195 . S
O100 Mg91 2.048 . S
O100 C101 1.195 . S
C101 O100 1.195 . S
C101 O102 1.313 . S
O102 C101 1.313 . S
O103 Mg91 2.141 . S
O103 C94 1.289 . S
Mg104 O111 2.141 . S
Mg104 O112 2.048 . S
Mg104 O113 2.048 . S
Mg104 O116 2.141 . S
C105 O106 1.313 . S
C105 O112 1.195 . S
O106 C105 1.313 . S
C107 O108 1.245 . S
C107 O116 1.289 . S
O108 C107 1.245 . S
C109 O110 1.245 . S
C109 O111 1.289 . S
O110 C109 1.245 . S
O111 Mg104 2.141 . S
O111 C109 1.289 . S
O112 Mg104 2.048 . S
O112 C105 1.195 . S
O113 Mg104 2.048 . S
O113 C114 1.195 . S
C114 O113 1.195 . S
C114 O115 1.313 . S
O115 C114 1.313 . S
O116 Mg104 2.141 . S
O116 C107 1.289 . S
Mg117 O124 2.141 . S
Mg117 O125 2.048 . S
Mg117 O126 2.048 . S
Mg117 O129 2.141 . S
C118 O119 1.313 . S
C118 O125 1.195 . S
O119 C118 1.313 . S
C120 O121 1.245 . S
C120 O129 1.289 . S
O121 C120 1.245 . S
C122 O123 1.245 . S
C122 O124 1.289 . S
O123 C122 1.245 . S
O124 Mg117 2.141 . S
O124 C122 1.289 . S
O125 Mg117 2.048 . S
O125 C118 1.195 . S
O126 Mg117 2.048 . S
O126 C127 1.195 . S
C127 O126 1.195 . S
C127 O128 1.313 . S
O128 C127 1.313 . S
O129 Mg117 2.141 . S
O129 C120 1.289 . S
Mg130 O137 2.141 . S
Mg130 O138 2.048 . S
Mg130 O139 2.048 . S
Mg130 O142 2.141 . S
C131 O132 1.313 . S
C131 O138 1.195 . S
O132 C131 1.313 . S
C133 O134 1.245 . S
C133 O142 1.289 . S
O134 C133 1.245 . S
C135 O136 1.245 . S
C135 O137 1.289 . S
O136 C135 1.245 . S
O137 Mg130 2.141 . S
O137 C135 1.289 . S
O138 Mg130 2.048 . S
O138 C131 1.195 . S
O139 Mg130 2.048 . S
O139 C140 1.195 . S
C140 O139 1.195 . S
C140 O141 1.313 . S
O141 C140 1.313 . S
O142 Mg130 2.141 . S
O142 C133 1.289 . S
Mg143 O150 2.141 . S
Mg143 O151 2.048 . S
Mg143 O152 2.048 . S
Mg143 O155 2.141 . S
C144 O145 1.313 . S
C144 O151 1.195 . S
O145 C144 1.313 . S
C146 O147 1.245 . S
C146 O155 1.289 . S
O147 C146 1.245 . S
C148 O149 1.245 . S
C148 O150 1.289 . S
O149 C148 1.245 . S
O150 Mg143 2.141 . S
O150 C148 1.289 . S
O151 Mg143 2.048 . S
O151 C144 1.195 . S
O152 Mg143 2.048 . S
O152 C153 1.195 . S
C153 O152 1.195 . S
C153 O154 1.313 . S
O154 C153 1.313 . S
O155 Mg143 2.141 . S
O155 C146 1.289 . S
Mg156 O163 2.141 . S
Mg156 O164 2.048 . S
Mg156 O165 2.048 . S
Mg156 O168 2.141 . S
C157 O158 1.313 . S
C157 O164 1.195 . S
O158 C157 1.313 . S
C159 O160 1.245 . S
C159 O168 1.289 . S
O160 C159 1.245 . S
C161 O162 1.245 . S
C161 O163 1.289 . S
O162 C161 1.245 . S
O163 Mg156 2.141 . S
O163 C161 1.289 . S
O164 Mg156 2.048 . S
O164 C157 1.195 . S
O165 Mg156 2.048 . S
O165 C166 1.195 . S
C166 O165 1.195 . S
C166 O167 1.313 . S
O167 C166 1.313 . S
O168 Mg156 2.141 . S
O168 C159 1.289 . S
Mg169 O176 2.141 . S
Mg169 O177 2.048 . S
Mg169 O178 2.048 . S
Mg169 O181 2.141 . S
C170 O171 1.313 . S
C170 O177 1.195 . S
O171 C170 1.313 . S
C172 O173 1.245 . S
C172 O181 1.289 . S
O173 C172 1.245 . S
C174 O175 1.245 . S
C174 O176 1.289 . S
O175 C174 1.245 . S
O176 Mg169 2.141 . S
O176 C174 1.289 . S
O177 Mg169 2.048 . S
O177 C170 1.195 . S
O178 Mg169 2.048 . S
O178 C179 1.195 . S
C179 O178 1.195 . S
C179 O180 1.313 . S
O180 C179 1.313 . S
O181 Mg169 2.141 . S
O181 C172 1.289 . S
Mg182 O189 2.141 . S
Mg182 O190 2.048 . S
Mg182 O191 2.048 . S
Mg182 O194 2.141 . S
C183 O184 1.313 . S
C183 O190 1.195 . S
O184 C183 1.313 . S
C185 O186 1.245 . S
C185 O194 1.289 . S
O186 C185 1.245 . S
C187 O188 1.245 . S
C187 O189 1.289 . S
O188 C187 1.245 . S
O189 Mg182 2.141 . S
O189 C187 1.289 . S
O190 Mg182 2.048 . S
O190 C183 1.195 . S
O191 Mg182 2.048 . S
O191 C192 1.195 . S
C192 O191 1.195 . S
C192 O193 1.313 . S
O193 C192 1.313 . S
O194 Mg182 2.141 . S
O194 C185 1.289 . S
Mg195 O202 2.141 . S
Mg195 O203 2.048 . S
Mg195 O204 2.048 . S
Mg195 O207 2.141 . S
C196 O197 1.313 . S
C196 O203 1.195 . S
O197 C196 1.313 . S
C198 O199 1.245 . S
C198 O207 1.289 . S
O199 C198 1.245 . S
C200 O201 1.245 . S
C200 O202 1.289 . S
O201 C200 1.245 . S
O202 Mg195 2.141 . S
O202 C200 1.289 . S
O203 Mg195 2.048 . S
O203 C196 1.195 . S
O204 Mg195 2.048 . S
O204 C205 1.195 . S
C205 O204 1.195 . S
C205 O206 1.313 . S
O206 C205 1.313 . S
O207 Mg195 2.141 . S
O207 C198 1.289 . S
C208 C209 1.391 . S
C208 C210 1.394 . S
C208 H224 0.931 . S
C209 C208 1.391 . S
C209 C213 1.376 . S
C210 C208 1.394 . S
C210 C211 1.369 . S
C210 C214 1.531 . S
C211 C210 1.369 . S
C211 C212 1.410 . S
C211 C219 1.503 1_455 S
C212 C211 1.410 . S
C212 C213 1.392 . S
C212 C215 1.511 . S
C213 C209 1.376 . S
C213 C212 1.392 . S
C213 H225 0.929 . S
C214 C210 1.531 . S
C214 H226 0.960 1_455 S
C214 H227 0.962 . S
C214 H228 0.960 . S
C215 C212 1.511 . S
C215 H229 0.961 . S
C215 H230 0.961 1_455 S
C215 H231 0.961 . S
C216 C217 1.370 . S
C216 C218 1.363 . S
C216 H232 0.931 . S
C217 C216 1.370 . S
C217 C221 1.408 . S
C218 C216 1.363 . S
C218 C219 1.370 . S
C218 C222 1.524 . S
C219 C211 1.503 1_655 S
C219 C218 1.370 . S
C219 C220 1.403 . S
C220 C219 1.403 . S
C220 C221 1.404 . S
C220 C223 1.539 . S
C221 C217 1.408 . S
C221 C220 1.404 . S
C221 H233 0.930 . S
C222 C218 1.524 . S
C222 H234 0.956 . S
C222 H235 0.950 1_655 S
C222 H236 0.961 . S
C223 C220 1.539 . S
C223 H237 0.958 . S
C223 H238 0.961 . S
C223 H239 0.960 1_655 S
H224 C208 0.931 . S
H225 C213 0.929 . S
H226 C214 0.960 1_655 S
H227 C214 0.962 . S
H228 C214 0.960 . S
H229 C215 0.961 . S
H230 C215 0.961 1_655 S
H231 C215 0.961 . S
H232 C216 0.931 . S
H233 C221 0.930 . S
H234 C222 0.956 . S
H235 C222 0.950 1_455 S
H236 C222 0.961 . S
H237 C223 0.958 . S
H238 C223 0.961 . S
H239 C223 0.960 1_455 S
C240 C241 1.391 . S
C240 C242 1.394 . S
C240 H256 0.931 . S
C241 C240 1.391 . S
C241 C245 1.376 . S
C242 C240 1.394 . S
C242 C243 1.369 . S
C242 C246 1.531 . S
C243 C242 1.369 . S
C243 C244 1.410 . S
C243 C251 1.503 1_565 S
C244 C243 1.410 . S
C244 C245 1.392 . S
C244 C247 1.511 . S
C245 C241 1.376 . S
C245 C244 1.392 . S
C245 H257 0.929 . S
C246 C242 1.531 . S
C246 H258 0.960 1_565 S
C246 H259 0.962 . S
C246 H260 0.960 . S
C247 C244 1.511 . S
C247 H261 0.961 . S
C247 H262 0.961 1_565 S
C247 H263 0.961 . S
C248 C249 1.370 . S
C248 C250 1.363 . S
C248 H264 0.931 . S
C249 C248 1.370 . S
C249 C253 1.408 . S
C250 C248 1.363 . S
C250 C251 1.370 . S
C250 C254 1.524 . S
C251 C243 1.503 1_545 S
C251 C250 1.370 . S
C251 C252 1.403 . S
C252 C251 1.403 . S
C252 C253 1.404 . S
C252 C255 1.539 . S
C253 C249 1.408 . S
C253 C252 1.404 . S
C253 H265 0.930 . S
C254 C250 1.524 . S
C254 H266 0.956 . S
C254 H267 0.961 1_545 S
C254 H268 0.961 . S
C255 C252 1.539 . S
C255 H269 0.958 . S
C255 H270 0.961 . S
C255 H271 0.960 . S
H256 C240 0.931 . S
H257 C245 0.929 . S
H258 C246 0.960 1_545 S
H259 C246 0.962 . S
H260 C246 0.960 . S
H261 C247 0.961 . S
H262 C247 0.961 1_545 S
H263 C247 0.961 . S
H264 C248 0.931 . S
H265 C253 0.930 . S
H266 C254 0.956 . S
H267 C254 0.961 1_565 S
H268 C254 0.961 . S
H269 C255 0.958 . S
H270 C255 0.961 . S
H271 C255 0.960 . S
C272 C273 1.391 . S
C272 C274 1.394 . S
C272 H288 0.931 . S
C273 C272 1.391 . S
C273 C277 1.376 . S
C274 C272 1.394 . S
C274 C275 1.369 . S
C274 C278 1.531 . S
C275 C274 1.369 . S
C275 C276 1.410 . S
C275 C283 1.503 1_455 S
C276 C275 1.410 . S
C276 C277 1.392 . S
C276 C279 1.511 . S
C277 C273 1.376 . S
C277 C276 1.392 . S
C277 H289 0.929 . S
C278 C274 1.531 . S
C278 H290 0.960 1_455 S
C278 H291 0.962 . S
C278 H292 0.960 . S
C279 C276 1.511 . S
C279 H293 0.961 . S
C279 H294 0.961 1_455 S
C279 H295 0.961 . S
C280 C281 1.370 . S
C280 C282 1.363 . S
C280 H296 0.931 . S
C281 C280 1.370 . S
C281 C285 1.408 . S
C282 C280 1.363 . S
C282 C283 1.370 . S
C282 C286 1.524 . S
C283 C275 1.503 1_655 S
C283 C282 1.370 . S
C283 C284 1.403 . S
C284 C283 1.403 . S
C284 C285 1.404 . S
C284 C287 1.539 . S
C285 C281 1.408 . S
C285 C284 1.404 . S
C285 H297 0.930 . S
C286 C282 1.524 . S
C286 H298 0.956 . S
C286 H299 0.961 1_655 S
C286 H300 0.961 . S
C287 C284 1.539 . S
C287 H301 0.958 . S
C287 H302 0.961 . S
C287 H303 0.961 . S
H288 C272 0.931 . S
H289 C277 0.929 . S
H290 C278 0.960 1_655 S
H291 C278 0.962 . S
H292 C278 0.960 . S
H293 C279 0.961 . S
H294 C279 0.961 1_655 S
H295 C279 0.961 . S
H296 C280 0.931 . S
H297 C285 0.930 . S
H298 C286 0.956 . S
H299 C286 0.961 1_455 S
H300 C286 0.961 . S
H301 C287 0.958 . S
H302 C287 0.961 . S
H303 C287 0.961 . S
C304 C305 1.391 . S
C304 C306 1.394 . S
C304 H320 0.931 . S
C305 C304 1.391 . S
C305 C309 1.376 . S
C306 C304 1.394 . S
C306 C307 1.369 . S
C306 C310 1.531 . S
C307 C306 1.369 . S
C307 C308 1.410 . S
C307 C315 1.503 1_565 S
C308 C307 1.410 . S
C308 C309 1.392 . S
C308 C311 1.511 . S
C309 C305 1.376 . S
C309 C308 1.392 . S
C309 H321 0.929 . S
C310 C306 1.531 . S
C310 H322 0.960 1_565 S
C310 H323 0.962 . S
C310 H324 0.960 . S
C311 C308 1.511 . S
C311 H325 0.961 . S
C311 H326 0.961 1_565 S
C311 H327 0.961 . S
C312 C313 1.370 . S
C312 C314 1.363 . S
C312 H328 0.931 . S
C313 C312 1.370 . S
C313 C317 1.408 . S
C314 C312 1.363 . S
C314 C315 1.370 . S
C314 C318 1.524 . S
C315 C307 1.503 1_545 S
C315 C314 1.370 . S
C315 C316 1.403 . S
C316 C315 1.403 . S
C316 C317 1.404 . S
C316 C319 1.539 . S
C317 C313 1.408 . S
C317 C316 1.404 . S
C317 H329 0.930 . S
C318 C314 1.524 . S
C318 H330 0.956 . S
C318 H331 0.961 1_545 S
C318 H332 0.961 . S
C319 C316 1.539 . S
C319 H333 0.958 . S
C319 H334 0.961 . S
C319 H335 0.958 . S
H320 C304 0.931 . S
H321 C309 0.929 . S
H322 C310 0.960 1_545 S
H323 C310 0.962 . S
H324 C310 0.960 . S
H325 C311 0.961 . S
H326 C311 0.961 1_545 S
H327 C311 0.961 . S
H328 C312 0.931 . S
H329 C317 0.930 . S
H330 C318 0.956 . S
H331 C318 0.961 1_565 S
H332 C318 0.961 . S
H333 C319 0.958 . S
H334 C319 0.961 . S
H335 C319 0.958 . S
C336 C337 1.391 . S
C336 C338 1.394 . S
C336 H352 0.931 . S
C337 C336 1.391 . S
C337 C341 1.376 . S
C338 C336 1.394 . S
C338 C339 1.369 . S
C338 C342 1.531 . S
C339 C338 1.369 . S
C339 C340 1.410 . S
C339 C347 1.503 1_655 S
C340 C339 1.410 . S
C340 C341 1.392 . S
C340 C343 1.511 . S
C341 C337 1.376 . S
C341 C340 1.392 . S
C341 H353 0.929 . S
C342 C338 1.531 . S
C342 H354 0.960 1_655 S
C342 H355 0.962 . S
C342 H356 0.960 . S
C343 C340 1.511 . S
C343 H357 0.961 . S
C343 H358 0.961 1_655 S
C343 H359 0.961 . S
C344 C345 1.370 . S
C344 C346 1.363 . S
C344 H360 0.931 . S
C345 C344 1.370 . S
C345 C349 1.408 . S
C346 C344 1.363 . S
C346 C347 1.370 . S
C346 C350 1.524 . S
C347 C339 1.503 1_455 S
C347 C346 1.370 . S
C347 C348 1.403 . S
C348 C347 1.403 . S
C348 C349 1.404 . S
C348 C351 1.539 . S
C349 C345 1.408 . S
C349 C348 1.404 . S
C349 H361 0.930 . S
C350 C346 1.524 . S
C350 H362 0.956 . S
C350 H363 0.961 1_455 S
C350 H364 0.961 . S
C351 C348 1.539 . S
C351 H365 0.958 . S
C351 H366 0.961 . S
C351 H367 0.947 1_455 S
H352 C336 0.931 . S
H353 C341 0.929 . S
H354 C342 0.960 1_455 S
H355 C342 0.962 . S
H356 C342 0.960 . S
H357 C343 0.961 . S
H358 C343 0.961 1_455 S
H359 C343 0.961 . S
H360 C344 0.931 . S
H361 C349 0.930 . S
H362 C350 0.956 . S
H363 C350 0.961 1_655 S
H364 C350 0.961 . S
H365 C351 0.958 . S
H366 C351 0.961 . S
H367 C351 0.947 1_655 S
C368 C369 1.391 . S
C368 C370 1.394 . S
C368 H384 0.931 . S
C369 C368 1.391 . S
C369 C373 1.376 . S
C370 C368 1.394 . S
C370 C371 1.369 . S
C370 C374 1.531 . S
C371 C370 1.369 . S
C371 C372 1.410 . S
C371 C379 1.503 1_545 S
C372 C371 1.410 . S
C372 C373 1.392 . S
C372 C375 1.511 . S
C373 C369 1.376 . S
C373 C372 1.392 . S
C373 H385 0.929 . S
C374 C370 1.531 . S
C374 H386 0.960 1_545 S
C374 H387 0.962 . S
C374 H388 0.960 . S
C375 C372 1.511 . S
C375 H389 0.961 . S
C375 H390 0.961 1_545 S
C375 H391 0.961 . S
C376 C377 1.370 . S
C376 C378 1.363 . S
C376 H392 0.931 . S
C377 C376 1.370 . S
C377 C381 1.408 . S
C378 C376 1.363 . S
C378 C379 1.370 . S
C378 C382 1.524 . S
C379 C371 1.503 1_565 S
C379 C378 1.370 . S
C379 C380 1.403 . S
C380 C379 1.403 . S
C380 C381 1.404 . S
C380 C383 1.539 . S
C381 C377 1.408 . S
C381 C380 1.404 . S
C381 H393 0.930 . S
C382 C378 1.524 . S
C382 H394 0.956 . S
C382 H395 0.944 1_565 S
C382 H396 0.961 . S
C383 C380 1.539 . S
C383 H397 0.958 . S
C383 H398 0.961 . S
C383 H399 0.960 1_565 S
H384 C368 0.931 . S
H385 C373 0.929 . S
H386 C374 0.960 1_565 S
H387 C374 0.962 . S
H388 C374 0.960 . S
H389 C375 0.961 . S
H390 C375 0.961 1_565 S
H391 C375 0.961 . S
H392 C376 0.931 . S
H393 C381 0.930 . S
H394 C382 0.956 . S
H395 C382 0.944 1_545 S
H396 C382 0.961 . S
H397 C383 0.958 . S
H398 C383 0.961 . S
H399 C383 0.960 1_545 S
C400 C401 1.391 . S
C400 C402 1.394 . S
C400 H416 0.931 . S
C401 C400 1.391 . S
C401 C405 1.376 . S
C402 C400 1.394 . S
C402 C403 1.369 . S
C402 C406 1.531 . S
C403 C402 1.369 . S
C403 C404 1.410 . S
C403 C411 1.503 1_655 S
C404 C403 1.410 . S
C404 C405 1.392 . S
C404 C407 1.511 . S
C405 C401 1.376 . S
C405 C404 1.392 . S
C405 H417 0.929 . S
C406 C402 1.531 . S
C406 H418 0.960 1_655 S
C406 H419 0.962 . S
C406 H420 0.960 . S
C407 C404 1.511 . S
C407 H421 0.961 . S
C407 H422 0.961 1_655 S
C407 H423 0.961 . S
C408 C409 1.370 . S
C408 C410 1.363 . S
C408 H424 0.931 . S
C409 C408 1.370 . S
C409 C413 1.408 . S
C410 C408 1.363 . S
C410 C411 1.370 . S
C410 C414 1.524 . S
C411 C403 1.503 1_455 S
C411 C410 1.370 . S
C411 C412 1.403 . S
C412 C411 1.403 . S
C412 C413 1.404 . S
C412 C415 1.539 . S
C413 C409 1.408 . S
C413 C412 1.404 . S
C413 H425 0.930 . S
C414 C410 1.524 . S
C414 H426 0.956 . S
C414 H427 0.961 1_455 S
C414 H428 0.961 . S
C415 C412 1.539 . S
C415 H429 0.958 . S
C415 H430 0.961 . S
C415 H431 0.968 . S
H416 C400 0.931 . S
H417 C405 0.929 . S
H418 C406 0.960 1_455 S
H419 C406 0.962 . S
H420 C406 0.960 . S
H421 C407 0.961 . S
H422 C407 0.961 1_455 S
H423 C407 0.961 . S
H424 C408 0.931 . S
H425 C413 0.930 . S
H426 C414 0.956 . S
H427 C414 0.961 1_655 S
H428 C414 0.961 . S
H429 C415 0.958 . S
H430 C415 0.961 . S
H431 C415 0.968 . S
C432 C433 1.391 . S
C432 C434 1.394 . S
C432 H448 0.931 . S
C433 C432 1.391 . S
C433 C437 1.376 . S
C434 C432 1.394 . S
C434 C435 1.369 . S
C434 C438 1.531 . S
C435 C434 1.369 . S
C435 C436 1.410 . S
C435 C443 1.503 1_545 S
C436 C435 1.410 . S
C436 C437 1.392 . S
C436 C439 1.511 . S
C437 C433 1.376 . S
C437 C436 1.392 . S
C437 H449 0.929 . S
C438 C434 1.531 . S
C438 H450 0.960 1_545 S
C438 H451 0.962 . S
C438 H452 0.960 . S
C439 C436 1.511 . S
C439 H453 0.961 . S
C439 H454 0.961 1_545 S
C439 H455 0.961 . S
C440 C441 1.370 . S
C440 C442 1.363 . S
C440 H456 0.931 . S
C441 C440 1.370 . S
C441 C445 1.408 . S
C442 C440 1.363 . S
C442 C443 1.370 . S
C442 C446 1.524 . S
C443 C435 1.503 1_565 S
C443 C442 1.370 . S
C443 C444 1.403 . S
C444 C443 1.403 . S
C444 C445 1.404 . S
C444 C447 1.539 . S
C445 C441 1.408 . S
C445 C444 1.404 . S
C445 H457 0.930 . S
C446 C442 1.524 . S
C446 H458 0.963 . S
C446 H459 0.961 1_565 S
C446 H460 0.961 . S
C447 C444 1.539 . S
C447 H461 0.958 . S
C447 H462 0.961 . S
C447 H463 0.960 . S
H448 C432 0.931 . S
H449 C437 0.929 . S
H450 C438 0.960 1_565 S
H451 C438 0.962 . S
H452 C438 0.960 . S
H453 C439 0.961 . S
H454 C439 0.961 1_565 S
H455 C439 0.961 . S
H456 C440 0.931 . S
H457 C445 0.930 . S
H458 C446 0.963 . S
H459 C446 0.961 1_545 S
H460 C446 0.961 . S
H461 C447 0.958 . S
H462 C447 0.961 . S
H463 C447 0.960 . S
C464 C465 1.391 . S
C464 C466 1.394 . S
C464 H480 0.931 . S
C465 C464 1.391 . S
C465 C469 1.376 . S
C466 C464 1.394 . S
C466 C467 1.369 . S
C466 C470 1.531 . S
C467 C466 1.369 . S
C467 C468 1.410 . S
C467 C475 1.503 . S
C468 C467 1.410 . S
C468 C469 1.392 . S
C468 C471 1.511 . S
C469 C465 1.376 . S
C469 C468 1.392 . S
C469 H481 0.929 . S
C470 C466 1.531 . S
C470 H482 0.960 . S
C470 H483 0.962 . S
C470 H484 0.960 . S
C471 C468 1.511 . S
C471 H485 0.961 . S
C471 H486 0.961 . S
C471 H487 0.961 . S
C472 C473 1.370 . S
C472 C474 1.363 . S
C472 H488 0.931 . S
C473 C472 1.370 . S
C473 C477 1.408 . S
C474 C472 1.363 . S
C474 C475 1.370 . S
C474 C478 1.524 . S
C475 C467 1.503 . S
C475 C474 1.370 . S
C475 C476 1.403 . S
C476 C475 1.403 . S
C476 C477 1.404 . S
C476 C479 1.539 . S
C477 C473 1.408 . S
C477 C476 1.404 . S
C477 H489 0.930 . S
C478 C474 1.524 . S
C478 H490 0.956 . S
C478 H491 0.961 . S
C478 H492 0.961 . S
C479 C476 1.539 . S
C479 H493 0.958 . S
C479 H494 0.961 . S
C479 H495 0.960 . S
H480 C464 0.931 . S
H481 C469 0.929 . S
H482 C470 0.960 . S
H483 C470 0.962 . S
H484 C470 0.960 . S
H485 C471 0.961 . S
H486 C471 0.961 . S
H487 C471 0.961 . S
H488 C472 0.931 . S
H489 C477 0.930 . S
H490 C478 0.956 . S
H491 C478 0.961 . S
H492 C478 0.961 . S
H493 C479 0.958 . S
H494 C479 0.961 . S
H495 C479 0.960 . S
C496 C497 1.391 . S
C496 C498 1.394 . S
C496 H512 0.931 . S
C497 C496 1.391 . S
C497 C501 1.376 . S
C498 C496 1.394 . S
C498 C499 1.369 . S
C498 C502 1.531 . S
C499 C498 1.369 . S
C499 C500 1.410 . S
C499 C507 1.503 . S
C500 C499 1.410 . S
C500 C501 1.392 . S
C500 C503 1.511 . S
C501 C497 1.376 . S
C501 C500 1.392 . S
C501 H513 0.929 . S
C502 C498 1.531 . S
C502 H514 0.960 . S
C502 H515 0.962 . S
C502 H516 0.960 . S
C503 C500 1.511 . S
C503 H517 0.961 . S
C503 H518 0.961 . S
C503 H519 0.961 . S
C504 C505 1.370 . S
C504 C506 1.363 . S
C504 H520 0.931 . S
C505 C504 1.370 . S
C505 C509 1.408 . S
C506 C504 1.363 . S
C506 C507 1.370 . S
C506 C510 1.524 . S
C507 C499 1.503 . S
C507 C506 1.370 . S
C507 C508 1.403 . S
C508 C507 1.403 . S
C508 C509 1.404 . S
C508 C511 1.539 . S
C509 C505 1.408 . S
C509 C508 1.404 . S
C509 H521 0.930 . S
C510 C506 1.524 . S
C510 H522 0.956 . S
C510 H523 0.961 . S
C510 H524 0.961 . S
C511 C508 1.539 . S
C511 H525 0.958 . S
C511 H526 0.961 . S
C511 H527 0.960 . S
H512 C496 0.931 . S
H513 C501 0.929 . S
H514 C502 0.960 . S
H515 C502 0.962 . S
H516 C502 0.960 . S
H517 C503 0.961 . S
H518 C503 0.961 . S
H519 C503 0.961 . S
H520 C504 0.931 . S
H521 C509 0.930 . S
H522 C510 0.956 . S
H523 C510 0.961 . S
H524 C510 0.961 . S
H525 C511 0.958 . S
H526 C511 0.961 . S
H527 C511 0.960 . S
C528 C529 1.391 . S
C528 C530 1.394 . S
C528 H544 0.931 . S
C529 C528 1.391 . S
C529 C533 1.376 . S
C530 C528 1.394 . S
C530 C531 1.369 . S
C530 C534 1.531 . S
C531 C530 1.369 . S
C531 C532 1.410 . S
C531 C539 1.503 . S
C532 C531 1.410 . S
C532 C533 1.392 . S
C532 C535 1.511 . S
C533 C529 1.376 . S
C533 C532 1.392 . S
C533 H545 0.929 . S
C534 C530 1.531 . S
C534 H546 0.960 . S
C534 H547 0.962 . S
C534 H548 0.960 . S
C535 C532 1.511 . S
C535 H549 0.961 . S
C535 H550 0.961 . S
C535 H551 0.961 . S
C536 C537 1.370 . S
C536 C538 1.363 . S
C536 H552 0.931 . S
C537 C536 1.370 . S
C537 C541 1.408 . S
C538 C536 1.363 . S
C538 C539 1.370 . S
C538 C542 1.524 . S
C539 C531 1.503 . S
C539 C538 1.370 . S
C539 C540 1.403 . S
C540 C539 1.403 . S
C540 C541 1.404 . S
C540 C543 1.539 . S
C541 C537 1.408 . S
C541 C540 1.404 . S
C541 H553 0.930 . S
C542 C538 1.524 . S
C542 H554 0.956 . S
C542 H555 0.961 . S
C542 H556 0.961 . S
C543 C540 1.539 . S
C543 H557 0.958 . S
C543 H558 0.961 . S
C543 H559 0.960 . S
H544 C528 0.931 . S
H545 C533 0.929 . S
H546 C534 0.960 . S
H547 C534 0.962 . S
H548 C534 0.960 . S
H549 C535 0.961 . S
H550 C535 0.961 . S
H551 C535 0.961 . S
H552 C536 0.931 . S
H553 C541 0.930 . S
H554 C542 0.956 . S
H555 C542 0.961 . S
H556 C542 0.961 . S
H557 C543 0.958 . S
H558 C543 0.961 . S
H559 C543 0.960 . S
C560 C561 1.391 . S
C560 C562 1.394 . S
C560 H576 0.931 . S
C561 C560 1.391 . S
C561 C565 1.376 . S
C562 C560 1.394 . S
C562 C563 1.369 . S
C562 C566 1.531 . S
C563 C562 1.369 . S
C563 C564 1.410 . S
C563 C571 1.503 . S
C564 C563 1.410 . S
C564 C565 1.392 . S
C564 C567 1.511 . S
C565 C561 1.376 . S
C565 C564 1.392 . S
C565 H577 0.929 . S
C566 C562 1.531 . S
C566 H578 0.960 . S
C566 H579 0.962 . S
C566 H580 0.960 . S
C567 C564 1.511 . S
C567 H581 0.961 . S
C567 H582 0.961 . S
C567 H583 0.961 . S
C568 C569 1.370 . S
C568 C570 1.363 . S
C568 H584 0.931 . S
C569 C568 1.370 . S
C569 C573 1.408 . S
C570 C568 1.363 . S
C570 C571 1.370 . S
C570 C574 1.524 . S
C571 C563 1.503 . S
C571 C570 1.370 . S
C571 C572 1.403 . S
C572 C571 1.403 . S
C572 C573 1.404 . S
C572 C575 1.539 . S
C573 C569 1.408 . S
C573 C572 1.404 . S
C573 H585 0.930 . S
C574 C570 1.524 . S
C574 H586 0.956 . S
C574 H587 0.961 . S
C574 H588 0.961 . S
C575 C572 1.539 . S
C575 H589 0.958 . S
C575 H590 0.961 . S
C575 H591 0.960 . S
H576 C560 0.931 . S
H577 C565 0.929 . S
H578 C566 0.960 . S
H579 C566 0.962 . S
H580 C566 0.960 . S
H581 C567 0.961 . S
H582 C567 0.961 . S
H583 C567 0.961 . S
H584 C568 0.931 . S
H585 C573 0.930 . S
H586 C574 0.956 . S
H587 C574 0.961 . S
H588 C574 0.961 . S
H589 C575 0.958 . S
H590 C575 0.961 . S
H591 C575 0.960 . S
C592 C593 1.391 . S
C592 C594 1.394 . S
C592 H608 0.931 . S
C593 C592 1.391 . S
C593 C597 1.376 . S
C594 C592 1.394 . S
C594 C595 1.369 . S
C594 C598 1.531 . S
C595 C594 1.369 . S
C595 C596 1.410 . S
C595 C603 1.503 . S
C596 C595 1.410 . S
C596 C597 1.392 . S
C596 C599 1.511 . S
C597 C593 1.376 . S
C597 C596 1.392 . S
C597 H609 0.929 . S
C598 C594 1.531 . S
C598 H610 0.960 . S
C598 H611 0.962 . S
C598 H612 0.960 . S
C599 C596 1.511 . S
C599 H613 0.961 . S
C599 H614 0.961 . S
C599 H615 0.961 . S
C600 C601 1.370 . S
C600 C602 1.363 . S
C600 H616 0.931 . S
C601 C600 1.370 . S
C601 C605 1.408 . S
C602 C600 1.363 . S
C602 C603 1.370 . S
C602 C606 1.524 . S
C603 C595 1.503 . S
C603 C602 1.370 . S
C603 C604 1.403 . S
C604 C603 1.403 . S
C604 C605 1.404 . S
C604 C607 1.539 . S
C605 C601 1.408 . S
C605 C604 1.404 . S
C605 H617 0.930 . S
C606 C602 1.524 . S
C606 H618 0.956 . S
C606 H619 0.961 . S
C606 H620 0.961 . S
C607 C604 1.539 . S
C607 H621 0.958 . S
C607 H622 0.961 . S
C607 H623 0.960 . S
H608 C592 0.931 . S
H609 C597 0.929 . S
H610 C598 0.960 . S
H611 C598 0.962 . S
H612 C598 0.960 . S
H613 C599 0.961 . S
H614 C599 0.961 . S
H615 C599 0.961 . S
H616 C600 0.931 . S
H617 C605 0.930 . S
H618 C606 0.956 . S
H619 C606 0.961 . S
H620 C606 0.961 . S
H621 C607 0.958 . S
H622 C607 0.961 . S
H623 C607 0.960 . S
C624 C625 1.391 . S
C624 C626 1.394 . S
C624 H640 0.931 . S
C625 C624 1.391 . S
C625 C629 1.376 . S
C626 C624 1.394 . S
C626 C627 1.369 . S
C626 C630 1.531 . S
C627 C626 1.369 . S
C627 C628 1.410 . S
C627 C635 1.503 . S
C628 C627 1.410 . S
C628 C629 1.392 . S
C628 C631 1.511 . S
C629 C625 1.376 . S
C629 C628 1.392 . S
C629 H641 0.929 . S
C630 C626 1.531 . S
C630 H642 0.960 . S
C630 H643 0.962 . S
C630 H644 0.960 . S
C631 C628 1.511 . S
C631 H645 0.961 . S
C631 H646 0.961 . S
C631 H647 0.961 . S
C632 C633 1.370 . S
C632 C634 1.363 . S
C632 H648 0.931 . S
C633 C632 1.370 . S
C633 C637 1.408 . S
C634 C632 1.363 . S
C634 C635 1.370 . S
C634 C638 1.524 . S
C635 C627 1.503 . S
C635 C634 1.370 . S
C635 C636 1.403 . S
C636 C635 1.403 . S
C636 C637 1.404 . S
C636 C639 1.539 . S
C637 C633 1.408 . S
C637 C636 1.404 . S
C637 H649 0.930 . S
C638 C634 1.524 . S
C638 H650 0.956 . S
C638 H651 0.961 . S
C638 H652 0.961 . S
C639 C636 1.539 . S
C639 H653 0.958 . S
C639 H654 0.961 . S
C639 H655 0.960 . S
H640 C624 0.931 . S
H641 C629 0.929 . S
H642 C630 0.960 . S
H643 C630 0.962 . S
H644 C630 0.960 . S
H645 C631 0.961 . S
H646 C631 0.961 . S
H647 C631 0.961 . S
H648 C632 0.931 . S
H649 C637 0.930 . S
H650 C638 0.956 . S
H651 C638 0.961 . S
H652 C638 0.961 . S
H653 C639 0.958 . S
H654 C639 0.961 . S
H655 C639 0.960 . S
C656 C657 1.391 . S
C656 C658 1.394 . S
C656 H672 0.931 . S
C657 C656 1.391 . S
C657 C661 1.376 . S
C658 C656 1.394 . S
C658 C659 1.369 . S
C658 C662 1.531 . S
C659 C658 1.369 . S
C659 C660 1.410 . S
C659 C667 1.503 . S
C660 C659 1.410 . S
C660 C661 1.392 . S
C660 C663 1.511 . S
C661 C657 1.376 . S
C661 C660 1.392 . S
C661 H673 0.929 . S
C662 C658 1.531 . S
C662 H674 0.960 . S
C662 H675 0.962 . S
C662 H676 0.960 . S
C663 C660 1.511 . S
C663 H677 0.961 . S
C663 H678 0.961 . S
C663 H679 0.961 . S
C664 C665 1.370 . S
C664 C666 1.363 . S
C664 H680 0.931 . S
C665 C664 1.370 . S
C665 C669 1.408 . S
C666 C664 1.363 . S
C666 C667 1.370 . S
C666 C670 1.524 . S
C667 C659 1.503 . S
C667 C666 1.370 . S
C667 C668 1.403 . S
C668 C667 1.403 . S
C668 C669 1.404 . S
C668 C671 1.539 . S
C669 C665 1.408 . S
C669 C668 1.404 . S
C669 H681 0.930 . S
C670 C666 1.524 . S
C670 H682 0.956 . S
C670 H683 0.961 . S
C670 H684 0.961 . S
C671 C668 1.539 . S
C671 H685 0.958 . S
C671 H686 0.961 . S
C671 H687 0.960 . S
H672 C656 0.931 . S
H673 C661 0.929 . S
H674 C662 0.960 . S
H675 C662 0.962 . S
H676 C662 0.960 . S
H677 C663 0.961 . S
H678 C663 0.961 . S
H679 C663 0.961 . S
H680 C664 0.931 . S
H681 C669 0.930 . S
H682 C670 0.956 . S
H683 C670 0.961 . S
H684 C670 0.961 . S
H685 C671 0.958 . S
H686 C671 0.961 . S
H687 C671 0.960 . S
C688 C689 1.391 . S
C688 C690 1.394 . S
C688 H704 0.931 . S
C689 C688 1.391 . S
C689 C693 1.376 . S
C690 C688 1.394 . S
C690 C691 1.369 . S
C690 C694 1.531 . S
C691 C690 1.369 . S
C691 C692 1.410 . S
C691 C699 1.503 . S
C692 C691 1.410 . S
C692 C693 1.392 . S
C692 C695 1.511 . S
C693 C689 1.376 . S
C693 C692 1.392 . S
C693 H705 0.929 . S
C694 C690 1.531 . S
C694 H706 0.960 . S
C694 H707 0.962 . S
C694 H708 0.960 . S
C695 C692 1.511 . S
C695 H709 0.961 . S
C695 H710 0.961 . S
C695 H711 0.961 . S
C696 C697 1.370 . S
C696 C698 1.363 . S
C696 H712 0.931 . S
C697 C696 1.370 . S
C697 C701 1.408 . S
C698 C696 1.363 . S
C698 C699 1.370 . S
C698 C702 1.524 . S
C699 C691 1.503 . S
C699 C698 1.370 . S
C699 C700 1.403 . S
C700 C699 1.403 . S
C700 C701 1.404 . S
C700 C703 1.539 . S
C701 C697 1.408 . S
C701 C700 1.404 . S
C701 H713 0.930 . S
C702 C698 1.524 . S
C702 H714 0.956 . S
C702 H715 0.961 . S
C702 H716 0.961 . S
C703 C700 1.539 . S
C703 H717 0.958 . S
C703 H718 0.961 . S
C703 H719 0.960 . S
H704 C688 0.931 . S
H705 C693 0.929 . S
H706 C694 0.960 . S
H707 C694 0.962 . S
H708 C694 0.960 . S
H709 C695 0.961 . S
H710 C695 0.961 . S
H711 C695 0.961 . S
H712 C696 0.931 . S
H713 C701 0.930 . S
H714 C702 0.956 . S
H715 C702 0.961 . S
H716 C702 0.961 . S
H717 C703 0.958 . S
H718 C703 0.961 . S
H719 C703 0.960 . S
C720 C721 1.391 . S
C720 C722 1.394 . S
C720 H736 0.931 . S
C721 C720 1.391 . S
C721 C725 1.376 . S
C722 C720 1.394 . S
C722 C723 1.369 . S
C722 C726 1.531 . S
C723 C722 1.369 . S
C723 C724 1.410 . S
C723 C731 1.503 1_556 S
C724 C723 1.410 . S
C724 C725 1.392 . S
C724 C727 1.511 . S
C725 C721 1.376 . S
C725 C724 1.392 . S
C725 H737 0.929 . S
C726 C722 1.531 . S
C726 H738 0.960 1_556 S
C726 H739 0.962 . S
C726 H740 0.960 . S
C727 C724 1.511 . S
C727 H741 0.961 . S
C727 H742 0.961 1_556 S
C727 H743 0.961 . S
C728 C729 1.370 . S
C728 C730 1.363 . S
C728 H744 0.931 . S
C729 C728 1.370 . S
C729 C733 1.408 . S
C730 C728 1.363 . S
C730 C731 1.370 . S
C730 C734 1.524 . S
C731 C723 1.503 1_554 S
C731 C730 1.370 . S
C731 C732 1.403 . S
C732 C731 1.403 . S
C732 C733 1.404 . S
C732 C735 1.539 . S
C733 C729 1.408 . S
C733 C732 1.404 . S
C733 H745 0.930 . S
C734 C730 1.524 . S
C734 H746 0.984 . S
C734 H747 0.961 1_554 S
C734 H748 0.961 . S
C735 C732 1.539 . S
C735 H749 0.958 . S
C735 H750 0.961 . S
C735 H751 0.970 . S
H736 C720 0.931 . S
H737 C725 0.929 . S
H738 C726 0.960 1_554 S
H739 C726 0.962 . S
H740 C726 0.960 . S
H741 C727 0.961 . S
H742 C727 0.961 1_554 S
H743 C727 0.961 . S
H744 C728 0.931 . S
H745 C733 0.930 . S
H746 C734 0.984 . S
H747 C734 0.961 1_556 S
H748 C734 0.961 . S
H749 C735 0.958 . S
H750 C735 0.961 . S
H751 C735 0.970 . S
C752 C753 1.391 . S
C752 C754 1.394 . S
C752 H768 0.931 . S
C753 C752 1.391 . S
C753 C757 1.376 . S
C754 C752 1.394 . S
C754 C755 1.369 . S
C754 C758 1.531 . S
C755 C754 1.369 . S
C755 C756 1.410 . S
C755 C763 1.503 . S
C756 C755 1.410 . S
C756 C757 1.392 . S
C756 C759 1.511 . S
C757 C753 1.376 . S
C757 C756 1.392 . S
C757 H769 0.929 . S
C758 C754 1.531 . S
C758 H770 0.960 . S
C758 H771 0.962 . S
C758 H772 0.960 . S
C759 C756 1.511 . S
C759 H773 0.961 . S
C759 H774 0.961 . S
C759 H775 0.961 . S
C760 C761 1.370 . S
C760 C762 1.363 . S
C760 H776 0.931 . S
C761 C760 1.370 . S
C761 C765 1.408 . S
C762 C760 1.363 . S
C762 C763 1.370 . S
C762 C766 1.524 . S
C763 C755 1.503 . S
C763 C762 1.370 . S
C763 C764 1.403 . S
C764 C763 1.403 . S
C764 C765 1.404 . S
C764 C767 1.539 . S
C765 C761 1.408 . S
C765 C764 1.404 . S
C765 H777 0.930 . S
C766 C762 1.524 . S
C766 H778 0.956 . S
C766 H779 0.961 . S
C766 H780 0.961 . S
C767 C764 1.539 . S
C767 H781 0.958 . S
C767 H782 0.961 . S
C767 H783 0.960 . S
H768 C752 0.931 . S
H769 C757 0.929 . S
H770 C758 0.960 . S
H771 C758 0.962 . S
H772 C758 0.960 . S
H773 C759 0.961 . S
H774 C759 0.961 . S
H775 C759 0.961 . S
H776 C760 0.931 . S
H777 C765 0.930 . S
H778 C766 0.956 . S
H779 C766 0.961 . S
H780 C766 0.961 . S
H781 C767 0.958 . S
H782 C767 0.961 . S
H783 C767 0.960 . S
C784 C785 1.391 . S
C784 C786 1.394 . S
C784 H800 0.931 . S
C785 C784 1.391 . S
C785 C789 1.376 . S
C786 C784 1.394 . S
C786 C787 1.369 . S
C786 C790 1.531 . S
C787 C786 1.369 . S
C787 C788 1.410 . S
C787 C795 1.503 1_554 S
C788 C787 1.410 . S
C788 C789 1.392 . S
C788 C791 1.511 . S
C789 C785 1.376 . S
C789 C788 1.392 . S
C789 H801 0.929 . S
C790 C786 1.531 . S
C790 H802 0.960 1_554 S
C790 H803 0.962 . S
C790 H804 0.960 . S
C791 C788 1.511 . S
C791 H805 0.961 . S
C791 H806 0.961 1_554 S
C791 H807 0.961 . S
C792 C793 1.370 . S
C792 C794 1.363 . S
C792 H808 0.931 . S
C793 C792 1.370 . S
C793 C797 1.408 . S
C794 C792 1.363 . S
C794 C795 1.370 . S
C794 C798 1.524 . S
C795 C787 1.503 1_556 S
C795 C794 1.370 . S
C795 C796 1.403 . S
C796 C795 1.403 . S
C796 C797 1.404 . S
C796 C799 1.539 . S
C797 C793 1.408 . S
C797 C796 1.404 . S
C797 H809 0.930 . S
C798 C794 1.524 . S
C798 H810 0.984 . S
C798 H811 0.961 1_556 S
C798 H812 0.961 . S
C799 C796 1.539 . S
C799 H813 0.958 . S
C799 H814 0.961 . S
C799 H815 0.970 . S
H800 C784 0.931 . S
H801 C789 0.929 . S
H802 C790 0.960 1_556 S
H803 C790 0.962 . S
H804 C790 0.960 . S
H805 C791 0.961 . S
H806 C791 0.961 1_556 S
H807 C791 0.961 . S
H808 C792 0.931 . S
H809 C797 0.930 . S
H810 C798 0.984 . S
H811 C798 0.961 1_554 S
H812 C798 0.961 . S
H813 C799 0.958 . S
H814 C799 0.961 . S
H815 C799 0.970 . S
C816 C817 1.391 . S
C816 C818 1.394 . S
C816 H832 0.931 . S
C817 C816 1.391 . S
C817 C821 1.376 . S
C818 C816 1.394 . S
C818 C819 1.369 . S
C818 C822 1.531 . S
C819 C818 1.369 . S
C819 C820 1.410 . S
C819 C827 1.503 . S
C820 C819 1.410 . S
C820 C821 1.392 . S
C820 C823 1.511 . S
C821 C817 1.376 . S
C821 C820 1.392 . S
C821 H833 0.929 . S
C822 C818 1.531 . S
C822 H834 0.960 . S
C822 H835 0.962 . S
C822 H836 0.960 . S
C823 C820 1.511 . S
C823 H837 0.961 . S
C823 H838 0.961 . S
C823 H839 0.961 . S
C824 C825 1.370 . S
C824 C826 1.363 . S
C824 H840 0.931 . S
C825 C824 1.370 . S
C825 C829 1.408 . S
C826 C824 1.363 . S
C826 C827 1.370 . S
C826 C830 1.524 . S
C827 C819 1.503 . S
C827 C826 1.370 . S
C827 C828 1.403 . S
C828 C827 1.403 . S
C828 C829 1.404 . S
C828 C831 1.539 . S
C829 C825 1.408 . S
C829 C828 1.404 . S
C829 H841 0.930 . S
C830 C826 1.524 . S
C830 H842 0.956 . S
C830 H843 0.961 . S
C830 H844 0.961 . S
C831 C828 1.539 . S
C831 H845 0.958 . S
C831 H846 0.961 . S
C831 H847 0.960 . S
H832 C816 0.931 . S
H833 C821 0.929 . S
H834 C822 0.960 . S
H835 C822 0.962 . S
H836 C822 0.960 . S
H837 C823 0.961 . S
H838 C823 0.961 . S
H839 C823 0.961 . S
H840 C824 0.931 . S
H841 C829 0.930 . S
H842 C830 0.956 . S
H843 C830 0.961 . S
H844 C830 0.961 . S
H845 C831 0.958 . S
H846 C831 0.961 . S
H847 C831 0.960 . S
C848 C849 1.391 . S
C848 C850 1.394 . S
C848 H864 0.931 . S
C849 C848 1.391 . S
C849 C853 1.376 . S
C850 C848 1.394 . S
C850 C851 1.369 . S
C850 C854 1.531 . S
C851 C850 1.369 . S
C851 C852 1.410 . S
C851 C859 1.503 . S
C852 C851 1.410 . S
C852 C853 1.392 . S
C852 C855 1.511 . S
C853 C849 1.376 . S
C853 C852 1.392 . S
C853 H865 0.929 . S
C854 C850 1.531 . S
C854 H866 0.960 . S
C854 H867 0.962 . S
C854 H868 0.960 . S
C855 C852 1.511 . S
C855 H869 0.961 . S
C855 H870 0.961 . S
C855 H871 0.961 . S
C856 C857 1.370 . S
C856 C858 1.363 . S
C856 H872 0.931 . S
C857 C856 1.370 . S
C857 C861 1.408 . S
C858 C856 1.363 . S
C858 C859 1.370 . S
C858 C862 1.524 . S
C859 C851 1.503 . S
C859 C858 1.370 . S
C859 C860 1.403 . S
C860 C859 1.403 . S
C860 C861 1.404 . S
C860 C863 1.539 . S
C861 C857 1.408 . S
C861 C860 1.404 . S
C861 H873 0.930 . S
C862 C858 1.524 . S
C862 H874 0.956 . S
C862 H875 0.961 . S
C862 H876 0.961 . S
C863 C860 1.539 . S
C863 H877 0.958 . S
C863 H878 0.961 . S
C863 H879 0.960 . S
H864 C848 0.931 . S
H865 C853 0.929 . S
H866 C854 0.960 . S
H867 C854 0.962 . S
H868 C854 0.960 . S
H869 C855 0.961 . S
H870 C855 0.961 . S
H871 C855 0.961 . S
H872 C856 0.931 . S
H873 C861 0.930 . S
H874 C862 0.956 . S
H875 C862 0.961 . S
H876 C862 0.961 . S
H877 C863 0.958 . S
H878 C863 0.961 . S
H879 C863 0.960 . S
C880 C881 1.391 . S
C880 C882 1.394 . S
C880 H896 0.931 . S
C881 C880 1.391 . S
C881 C885 1.376 . S
C882 C880 1.394 . S
C882 C883 1.369 . S
C882 C886 1.531 . S
C883 C882 1.369 . S
C883 C884 1.410 . S
C883 C891 1.503 1_556 S
C884 C883 1.410 . S
C884 C885 1.392 . S
C884 C887 1.511 . S
C885 C881 1.376 . S
C885 C884 1.392 . S
C885 H897 0.929 . S
C886 C882 1.531 . S
C886 H898 0.960 1_556 S
C886 H899 0.962 . S
C886 H900 0.960 . S
C887 C884 1.511 . S
C887 H901 0.961 . S
C887 H902 0.961 1_556 S
C887 H903 0.961 . S
C888 C889 1.370 . S
C888 C890 1.363 . S
C888 H904 0.931 . S
C889 C888 1.370 . S
C889 C893 1.408 . S
C890 C888 1.363 . S
C890 C891 1.370 . S
C890 C894 1.524 . S
C891 C883 1.503 1_554 S
C891 C890 1.370 . S
C891 C892 1.403 . S
C892 C891 1.403 . S
C892 C893 1.404 . S
C892 C895 1.539 . S
C893 C889 1.408 . S
C893 C892 1.404 . S
C893 H905 0.930 . S
C894 C890 1.524 . S
C894 H906 0.984 . S
C894 H907 0.961 1_554 S
C894 H908 0.961 . S
C895 C892 1.539 . S
C895 H909 0.958 . S
C895 H910 0.961 . S
C895 H911 0.970 . S
H896 C880 0.931 . S
H897 C885 0.929 . S
H898 C886 0.960 1_554 S
H899 C886 0.962 . S
H900 C886 0.960 . S
H901 C887 0.961 . S
H902 C887 0.961 1_554 S
H903 C887 0.961 . S
H904 C888 0.931 . S
H905 C893 0.930 . S
H906 C894 0.984 . S
H907 C894 0.961 1_556 S
H908 C894 0.961 . S
H909 C895 0.958 . S
H910 C895 0.961 . S
H911 C895 0.970 . S
C912 C913 1.391 . S
C912 C914 1.394 . S
C912 H928 0.931 . S
C913 C912 1.391 . S
C913 C917 1.376 . S
C914 C912 1.394 . S
C914 C915 1.369 . S
C914 C918 1.531 . S
C915 C914 1.369 . S
C915 C916 1.410 . S
C915 C923 1.503 . S
C916 C915 1.410 . S
C916 C917 1.392 . S
C916 C919 1.511 . S
C917 C913 1.376 . S
C917 C916 1.392 . S
C917 H929 0.929 . S
C918 C914 1.531 . S
C918 H930 0.960 . S
C918 H931 0.962 . S
C918 H932 0.960 . S
C919 C916 1.511 . S
C919 H933 0.961 . S
C919 H934 0.961 . S
C919 H935 0.961 . S
C920 C921 1.370 . S
C920 C922 1.363 . S
C920 H936 0.931 . S
C921 C920 1.370 . S
C921 C925 1.408 . S
C922 C920 1.363 . S
C922 C923 1.370 . S
C922 C926 1.524 . S
C923 C915 1.503 . S
C923 C922 1.370 . S
C923 C924 1.403 . S
C924 C923 1.403 . S
C924 C925 1.404 . S
C924 C927 1.539 . S
C925 C921 1.408 . S
C925 C924 1.404 . S
C925 H937 0.930 . S
C926 C922 1.524 . S
C926 H938 0.956 . S
C926 H939 0.961 . S
C926 H940 0.961 . S
C927 C924 1.539 . S
C927 H941 0.958 . S
C927 H942 0.961 . S
C927 H943 0.960 . S
H928 C912 0.931 . S
H929 C917 0.929 . S
H930 C918 0.960 . S
H931 C918 0.962 . S
H932 C918 0.960 . S
H933 C919 0.961 . S
H934 C919 0.961 . S
H935 C919 0.961 . S
H936 C920 0.931 . S
H937 C925 0.930 . S
H938 C926 0.956 . S
H939 C926 0.961 . S
H940 C926 0.961 . S
H941 C927 0.958 . S
H942 C927 0.961 . S
H943 C927 0.960 . S
C944 C945 1.391 . S
C944 C946 1.394 . S
C944 H960 0.931 . S
C945 C944 1.391 . S
C945 C949 1.376 . S
C946 C944 1.394 . S
C946 C947 1.369 . S
C946 C950 1.531 . S
C947 C946 1.369 . S
C947 C948 1.410 . S
C947 C955 1.503 1_554 S
C948 C947 1.410 . S
C948 C949 1.392 . S
C948 C951 1.511 . S
C949 C945 1.376 . S
C949 C948 1.392 . S
C949 H961 0.929 . S
C950 C946 1.531 . S
C950 H962 0.960 1_554 S
C950 H963 0.962 . S
C950 H964 0.960 . S
C951 C948 1.511 . S
C951 H965 0.961 . S
C951 H966 0.961 1_554 S
C951 H967 0.961 . S
C952 C953 1.370 . S
C952 C954 1.363 . S
C952 H968 0.931 . S
C953 C952 1.370 . S
C953 C957 1.408 . S
C954 C952 1.363 . S
C954 C955 1.370 . S
C954 C958 1.524 . S
C955 C947 1.503 1_556 S
C955 C954 1.370 . S
C955 C956 1.403 . S
C956 C955 1.403 . S
C956 C957 1.404 . S
C956 C959 1.539 . S
C957 C953 1.408 . S
C957 C956 1.404 . S
C957 H969 0.930 . S
C958 C954 1.524 . S
C958 H970 0.984 . S
C958 H971 0.961 1_556 S
C958 H972 0.961 . S
C959 C956 1.539 . S
C959 H973 0.958 . S
C959 H974 0.961 . S
C959 H975 0.970 . S
H960 C944 0.931 . S
H961 C949 0.929 . S
H962 C950 0.960 1_556 S
H963 C950 0.962 . S
H964 C950 0.960 . S
H965 C951 0.961 . S
H966 C951 0.961 1_556 S
H967 C951 0.961 . S
H968 C952 0.931 . S
H969 C957 0.930 . S
H970 C958 0.984 . S
H971 C958 0.961 1_554 S
H972 C958 0.961 . S
H973 C959 0.958 . S
H974 C959 0.961 . S
H975 C959 0.970 . S
C976 C977 1.391 . S
C976 C978 1.394 . S
C976 H992 0.931 . S
C977 C976 1.391 . S
C977 C981 1.376 . S
C978 C976 1.394 . S
C978 C979 1.369 . S
C978 C982 1.531 . S
C979 C978 1.369 . S
C979 C980 1.410 . S
C979 C987 1.503 . S
C980 C979 1.410 . S
C980 C981 1.392 . S
C980 C983 1.511 . S
C981 C977 1.376 . S
C981 C980 1.392 . S
C981 H993 0.929 . S
C982 C978 1.531 . S
C982 H994 0.960 . S
C982 H995 0.962 . S
C982 H996 0.960 . S
C983 C980 1.511 . S
C983 H997 0.961 . S
C983 H998 0.961 . S
C983 H999 0.961 . S
C984 C985 1.370 . S
C984 C986 1.363 . S
C984 H1000 0.931 . S
C985 C984 1.370 . S
C985 C989 1.408 . S
C986 C984 1.363 . S
C986 C987 1.370 . S
C986 C990 1.524 . S
C987 C979 1.503 . S
C987 C986 1.370 . S
C987 C988 1.403 . S
C988 C987 1.403 . S
C988 C989 1.404 . S
C988 C991 1.539 . S
C989 C985 1.408 . S
C989 C988 1.404 . S
C989 H1001 0.930 . S
C990 C986 1.524 . S
C990 H1002 0.956 . S
C990 H1003 0.961 . S
C990 H1004 0.961 . S
C991 C988 1.539 . S
C991 H1005 0.958 . S
C991 H1006 0.961 . S
C991 H1007 0.960 . S
H992 C976 0.931 . S
H993 C981 0.929 . S
H994 C982 0.960 . S
H995 C982 0.962 . S
H996 C982 0.960 . S
H997 C983 0.961 . S
H998 C983 0.961 . S
H999 C983 0.961 . S
H1000 C984 0.931 . S
H1001 C989 0.930 . S
H1002 C990 0.956 . S
H1003 C990 0.961 . S
H1004 C990 0.961 . S
H1005 C991 0.958 . S
H1006 C991 0.961 . S
H1007 C991 0.960 . S
C1008 C1009 1.391 . S
C1008 C1010 1.394 . S
C1008 H1024 0.931 . S
C1009 C1008 1.391 . S
C1009 C1013 1.376 . S
C1010 C1008 1.394 . S
C1010 C1011 1.369 . S
C1010 C1014 1.531 . S
C1011 C1010 1.369 . S
C1011 C1012 1.410 . S
C1011 C1019 1.503 . S
C1012 C1011 1.410 . S
C1012 C1013 1.392 . S
C1012 C1015 1.511 . S
C1013 C1009 1.376 . S
C1013 C1012 1.392 . S
C1013 H1025 0.929 . S
C1014 C1010 1.531 . S
C1014 H1026 0.960 . S
C1014 H1027 0.962 . S
C1014 H1028 0.960 . S
C1015 C1012 1.511 . S
C1015 H1029 0.961 . S
C1015 H1030 0.961 . S
C1015 H1031 0.961 . S
C1016 C1017 1.370 . S
C1016 C1018 1.363 . S
C1016 H1032 0.931 . S
C1017 C1016 1.370 . S
C1017 C1021 1.408 . S
C1018 C1016 1.363 . S
C1018 C1019 1.370 . S
C1018 C1022 1.524 . S
C1019 C1011 1.503 . S
C1019 C1018 1.370 . S
C1019 C1020 1.403 . S
C1020 C1019 1.403 . S
C1020 C1021 1.404 . S
C1020 C1023 1.539 . S
C1021 C1017 1.408 . S
C1021 C1020 1.404 . S
C1021 H1033 0.930 . S
C1022 C1018 1.524 . S
C1022 H1034 0.956 . S
C1022 H1035 0.961 . S
C1022 H1036 0.961 . S
C1023 C1020 1.539 . S
C1023 H1037 0.958 . S
C1023 H1038 0.961 . S
C1023 H1039 0.960 . S
H1024 C1008 0.931 . S
H1025 C1013 0.929 . S
H1026 C1014 0.960 . S
H1027 C1014 0.962 . S
H1028 C1014 0.960 . S
H1029 C1015 0.961 . S
H1030 C1015 0.961 . S
H1031 C1015 0.961 . S
H1032 C1016 0.931 . S
H1033 C1021 0.930 . S
H1034 C1022 0.956 . S
H1035 C1022 0.961 . S
H1036 C1022 0.961 . S
H1037 C1023 0.958 . S
H1038 C1023 0.961 . S
H1039 C1023 0.960 . S
C1040 C1041 1.391 . S
C1040 C1042 1.394 . S
C1040 H1056 0.931 . S
C1041 C1040 1.391 . S
C1041 C1045 1.376 . S
C1042 C1040 1.394 . S
C1042 C1043 1.369 . S
C1042 C1046 1.531 . S
C1043 C1042 1.369 . S
C1043 C1044 1.410 . S
C1043 C1051 1.503 . S
C1044 C1043 1.410 . S
C1044 C1045 1.392 . S
C1044 C1047 1.511 . S
C1045 C1041 1.376 . S
C1045 C1044 1.392 . S
C1045 H1057 0.929 . S
C1046 C1042 1.531 . S
C1046 H1058 0.960 . S
C1046 H1059 0.962 . S
C1046 H1060 0.960 . S
C1047 C1044 1.511 . S
C1047 H1061 0.961 . S
C1047 H1062 0.961 . S
C1047 H1063 0.961 . S
C1048 C1049 1.370 . S
C1048 C1050 1.363 . S
C1048 H1064 0.931 . S
C1049 C1048 1.370 . S
C1049 C1053 1.408 . S
C1050 C1048 1.363 . S
C1050 C1051 1.370 . S
C1050 C1054 1.524 . S
C1051 C1043 1.503 . S
C1051 C1050 1.370 . S
C1051 C1052 1.403 . S
C1052 C1051 1.403 . S
C1052 C1053 1.404 . S
C1052 C1055 1.539 . S
C1053 C1049 1.408 . S
C1053 C1052 1.404 . S
C1053 H1065 0.930 . S
C1054 C1050 1.524 . S
C1054 H1066 0.956 . S
C1054 H1067 0.961 . S
C1054 H1068 0.961 . S
C1055 C1052 1.539 . S
C1055 H1069 0.958 . S
C1055 H1070 0.961 . S
C1055 H1071 0.960 . S
H1056 C1040 0.931 . S
H1057 C1045 0.929 . S
H1058 C1046 0.960 . S
H1059 C1046 0.962 . S
H1060 C1046 0.960 . S
H1061 C1047 0.961 . S
H1062 C1047 0.961 . S
H1063 C1047 0.961 . S
H1064 C1048 0.931 . S
H1065 C1053 0.930 . S
H1066 C1054 0.956 . S
H1067 C1054 0.961 . S
H1068 C1054 0.961 . S
H1069 C1055 0.958 . S
H1070 C1055 0.961 . S
H1071 C1055 0.960 . S
C1072 C1073 1.391 . S
C1072 C1074 1.394 . S
C1072 H1088 0.931 . S
C1073 C1072 1.391 . S
C1073 C1077 1.376 . S
C1074 C1072 1.394 . S
C1074 C1075 1.369 . S
C1074 C1078 1.531 . S
C1075 C1074 1.369 . S
C1075 C1076 1.410 . S
C1075 C1083 1.503 . S
C1076 C1075 1.410 . S
C1076 C1077 1.392 . S
C1076 C1079 1.511 . S
C1077 C1073 1.376 . S
C1077 C1076 1.392 . S
C1077 H1089 0.929 . S
C1078 C1074 1.531 . S
C1078 H1090 0.960 . S
C1078 H1091 0.962 . S
C1078 H1092 0.960 . S
C1079 C1076 1.511 . S
C1079 H1093 0.961 . S
C1079 H1094 0.961 . S
C1079 H1095 0.961 . S
C1080 C1081 1.370 . S
C1080 C1082 1.363 . S
C1080 H1096 0.931 . S
C1081 C1080 1.370 . S
C1081 C1085 1.408 . S
C1082 C1080 1.363 . S
C1082 C1083 1.370 . S
C1082 C1086 1.524 . S
C1083 C1075 1.503 . S
C1083 C1082 1.370 . S
C1083 C1084 1.403 . S
C1084 C1083 1.403 . S
C1084 C1085 1.404 . S
C1084 C1087 1.539 . S
C1085 C1081 1.408 . S
C1085 C1084 1.404 . S
C1085 H1097 0.930 . S
C1086 C1082 1.524 . S
C1086 H1098 0.956 . S
C1086 H1099 0.961 . S
C1086 H1100 0.961 . S
C1087 C1084 1.539 . S
C1087 H1101 0.958 . S
C1087 H1102 0.961 . S
C1087 H1103 0.960 . S
H1088 C1072 0.931 . S
H1089 C1077 0.929 . S
H1090 C1078 0.960 . S
H1091 C1078 0.962 . S
H1092 C1078 0.960 . S
H1093 C1079 0.961 . S
H1094 C1079 0.961 . S
H1095 C1079 0.961 . S
H1096 C1080 0.931 . S
H1097 C1085 0.930 . S
H1098 C1086 0.956 . S
H1099 C1086 0.961 . S
H1100 C1086 0.961 . S
H1101 C1087 0.958 . S
H1102 C1087 0.961 . S
H1103 C1087 0.960 . S
C1104 C1105 1.391 . S
C1104 C1106 1.394 . S
C1104 H1120 0.931 . S
C1105 C1104 1.391 . S
C1105 C1109 1.376 . S
C1106 C1104 1.394 . S
C1106 C1107 1.369 . S
C1106 C1110 1.531 . S
C1107 C1106 1.369 . S
C1107 C1108 1.410 . S
C1107 C1115 1.503 . S
C1108 C1107 1.410 . S
C1108 C1109 1.392 . S
C1108 C1111 1.511 . S
C1109 C1105 1.376 . S
C1109 C1108 1.392 . S
C1109 H1121 0.929 . S
C1110 C1106 1.531 . S
C1110 H1122 0.960 . S
C1110 H1123 0.962 . S
C1110 H1124 0.960 . S
C1111 C1108 1.511 . S
C1111 H1125 0.961 . S
C1111 H1126 0.961 . S
C1111 H1127 0.961 . S
C1112 C1113 1.370 . S
C1112 C1114 1.363 . S
C1112 H1128 0.931 . S
C1113 C1112 1.370 . S
C1113 C1117 1.408 . S
C1114 C1112 1.363 . S
C1114 C1115 1.370 . S
C1114 C1118 1.524 . S
C1115 C1107 1.503 . S
C1115 C1114 1.370 . S
C1115 C1116 1.403 . S
C1116 C1115 1.403 . S
C1116 C1117 1.404 . S
C1116 C1119 1.539 . S
C1117 C1113 1.408 . S
C1117 C1116 1.404 . S
C1117 H1129 0.930 . S
C1118 C1114 1.524 . S
C1118 H1130 0.956 . S
C1118 H1131 0.961 . S
C1118 H1132 0.961 . S
C1119 C1116 1.539 . S
C1119 H1133 0.958 . S
C1119 H1134 0.961 . S
C1119 H1135 0.960 . S
H1120 C1104 0.931 . S
H1121 C1109 0.929 . S
H1122 C1110 0.960 . S
H1123 C1110 0.962 . S
H1124 C1110 0.960 . S
H1125 C1111 0.961 . S
H1126 C1111 0.961 . S
H1127 C1111 0.961 . S
H1128 C1112 0.931 . S
H1129 C1117 0.930 . S
H1130 C1118 0.956 . S
H1131 C1118 0.961 . S
H1132 C1118 0.961 . S
H1133 C1119 0.958 . S
H1134 C1119 0.961 . S
H1135 C1119 0.960 . S
C1136 C1137 1.391 . S
C1136 C1138 1.394 . S
C1136 H1152 0.931 . S
C1137 C1136 1.391 . S
C1137 C1141 1.376 . S
C1138 C1136 1.394 . S
C1138 C1139 1.369 . S
C1138 C1142 1.531 . S
C1139 C1138 1.369 . S
C1139 C1140 1.410 . S
C1139 C1147 1.503 . S
C1140 C1139 1.410 . S
C1140 C1141 1.392 . S
C1140 C1143 1.511 . S
C1141 C1137 1.376 . S
C1141 C1140 1.392 . S
C1141 H1153 0.929 . S
C1142 C1138 1.531 . S
C1142 H1154 0.960 . S
C1142 H1155 0.962 . S
C1142 H1156 0.960 . S
C1143 C1140 1.511 . S
C1143 H1157 0.961 . S
C1143 H1158 0.961 . S
C1143 H1159 0.961 . S
C1144 C1145 1.370 . S
C1144 C1146 1.363 . S
C1144 H1160 0.931 . S
C1145 C1144 1.370 . S
C1145 C1149 1.408 . S
C1146 C1144 1.363 . S
C1146 C1147 1.370 . S
C1146 C1150 1.524 . S
C1147 C1139 1.503 . S
C1147 C1146 1.370 . S
C1147 C1148 1.403 . S
C1148 C1147 1.403 . S
C1148 C1149 1.404 . S
C1148 C1151 1.539 . S
C1149 C1145 1.408 . S
C1149 C1148 1.404 . S
C1149 H1161 0.930 . S
C1150 C1146 1.524 . S
C1150 H1162 0.956 . S
C1150 H1163 0.961 . S
C1150 H1164 0.961 . S
C1151 C1148 1.539 . S
C1151 H1165 0.958 . S
C1151 H1166 0.961 . S
C1151 H1167 0.960 . S
H1152 C1136 0.931 . S
H1153 C1141 0.929 . S
H1154 C1142 0.960 . S
H1155 C1142 0.962 . S
H1156 C1142 0.960 . S
H1157 C1143 0.961 . S
H1158 C1143 0.961 . S
H1159 C1143 0.961 . S
H1160 C1144 0.931 . S
H1161 C1149 0.930 . S
H1162 C1150 0.956 . S
H1163 C1150 0.961 . S
H1164 C1150 0.961 . S
H1165 C1151 0.958 . S
H1166 C1151 0.961 . S
H1167 C1151 0.960 . S
C1168 C1169 1.391 . S
C1168 C1170 1.394 . S
C1168 H1184 0.931 . S
C1169 C1168 1.391 . S
C1169 C1173 1.376 . S
C1170 C1168 1.394 . S
C1170 C1171 1.369 . S
C1170 C1174 1.531 . S
C1171 C1170 1.369 . S
C1171 C1172 1.410 . S
C1171 C1179 1.503 . S
C1172 C1171 1.410 . S
C1172 C1173 1.392 . S
C1172 C1175 1.511 . S
C1173 C1169 1.376 . S
C1173 C1172 1.392 . S
C1173 H1185 0.929 . S
C1174 C1170 1.531 . S
C1174 H1186 0.960 . S
C1174 H1187 0.962 . S
C1174 H1188 0.960 . S
C1175 C1172 1.511 . S
C1175 H1189 0.961 . S
C1175 H1190 0.961 . S
C1175 H1191 0.961 . S
C1176 C1177 1.370 . S
C1176 C1178 1.363 . S
C1176 H1192 0.931 . S
C1177 C1176 1.370 . S
C1177 C1181 1.408 . S
C1178 C1176 1.363 . S
C1178 C1179 1.370 . S
C1178 C1182 1.524 . S
C1179 C1171 1.503 . S
C1179 C1178 1.370 . S
C1179 C1180 1.403 . S
C1180 C1179 1.403 . S
C1180 C1181 1.404 . S
C1180 C1183 1.539 . S
C1181 C1177 1.408 . S
C1181 C1180 1.404 . S
C1181 H1193 0.930 . S
C1182 C1178 1.524 . S
C1182 H1194 0.956 . S
C1182 H1195 0.961 . S
C1182 H1196 0.961 . S
C1183 C1180 1.539 . S
C1183 H1197 0.958 . S
C1183 H1198 0.961 . S
C1183 H1199 0.960 . S
H1184 C1168 0.931 . S
H1185 C1173 0.929 . S
H1186 C1174 0.960 . S
H1187 C1174 0.962 . S
H1188 C1174 0.960 . S
H1189 C1175 0.961 . S
H1190 C1175 0.961 . S
H1191 C1175 0.961 . S
H1192 C1176 0.931 . S
H1193 C1181 0.930 . S
H1194 C1182 0.956 . S
H1195 C1182 0.961 . S
H1196 C1182 0.961 . S
H1197 C1183 0.958 . S
H1198 C1183 0.961 . S
H1199 C1183 0.960 . S
C1200 C1201 1.391 . S
C1200 C1202 1.394 . S
C1200 H1216 0.931 . S
C1201 C1200 1.391 . S
C1201 C1205 1.376 . S
C1202 C1200 1.394 . S
C1202 C1203 1.369 . S
C1202 C1206 1.531 . S
C1203 C1202 1.369 . S
C1203 C1204 1.410 . S
C1203 C1211 1.503 . S
C1204 C1203 1.410 . S
C1204 C1205 1.392 . S
C1204 C1207 1.511 . S
C1205 C1201 1.376 . S
C1205 C1204 1.392 . S
C1205 H1217 0.929 . S
C1206 C1202 1.531 . S
C1206 H1218 0.960 . S
C1206 H1219 0.962 . S
C1206 H1220 0.960 . S
C1207 C1204 1.511 . S
C1207 H1221 0.961 . S
C1207 H1222 0.961 . S
C1207 H1223 0.961 . S
C1208 C1209 1.370 . S
C1208 C1210 1.363 . S
C1208 H1224 0.931 . S
C1209 C1208 1.370 . S
C1209 C1213 1.408 . S
C1210 C1208 1.363 . S
C1210 C1211 1.370 . S
C1210 C1214 1.524 . S
C1211 C1203 1.503 . S
C1211 C1210 1.370 . S
C1211 C1212 1.403 . S
C1212 C1211 1.403 . S
C1212 C1213 1.404 . S
C1212 C1215 1.539 . S
C1213 C1209 1.408 . S
C1213 C1212 1.404 . S
C1213 H1225 0.930 . S
C1214 C1210 1.524 . S
C1214 H1226 0.956 . S
C1214 H1227 0.961 . S
C1214 H1228 0.961 . S
C1215 C1212 1.539 . S
C1215 H1229 0.958 . S
C1215 H1230 0.961 . S
C1215 H1231 0.960 . S
H1216 C1200 0.931 . S
H1217 C1205 0.929 . S
H1218 C1206 0.960 . S
H1219 C1206 0.962 . S
H1220 C1206 0.960 . S
H1221 C1207 0.961 . S
H1222 C1207 0.961 . S
H1223 C1207 0.961 . S
H1224 C1208 0.931 . S
H1225 C1213 0.930 . S
H1226 C1214 0.956 . S
H1227 C1214 0.961 . S
H1228 C1214 0.961 . S
H1229 C1215 0.958 . S
H1230 C1215 0.961 . S
H1231 C1215 0.960 . S
C209 C10 1.906 . S
C217 C36 1.931 . S
C241 C49 1.926 . S
C249 C23 1.921 . S
C273 C62 1.917 . S
C281 C88 1.925 . S
C305 C101 1.917 . S
C313 C75 1.925 . S
C337 C114 1.826 . S
C345 C140 1.849 . S
C369 C153 1.808 . S
C377 C127 1.855 . S
C401 C166 1.829 . S
C409 C192 1.842 . S
C433 C205 1.850 . S
C441 C179 1.834 . S
C465 C55 1.509 . S
C473 C3 1.534 . S
C497 C16 1.502 . S
C505 C68 1.529 . S
C529 C29 1.513 . S
C537 C81 1.533 . S
C561 C94 1.534 . S
C569 C42 1.525 . S
C593 C107 1.545 . S
C601 C159 1.554 . S
C625 C120 1.546 . S
C633 C172 1.553 . S
C657 C133 1.545 . S
C665 C185 1.553 . S
C689 C146 1.552 . S
C697 C198 1.557 . S
C721 C131 1.537 . S
C729 C1 1.525 . S
C753 C144 1.524 . S
C761 C14 1.528 . S
C785 C27 1.505 . S
C793 C105 1.538 . S
C817 C40 1.528 . S
C825 C118 1.537 . S
C849 C53 1.536 . S
C857 C183 1.534 . S
C881 C66 1.505 . S
C889 C196 1.539 . S
C913 C79 1.504 . S
C921 C157 1.538 . S
C945 C170 1.525 . S
C953 C92 1.529 . S
C977 C5 1.836 . S
C985 C200 1.788 . S
C1009 C161 1.748 . S
C1017 C18 1.837 . S
C1041 C31 1.831 . S
C1049 C174 1.767 . S
C1073 C187 1.766 . S
C1081 C44 1.838 . S
C1105 C122 1.750 . S
C1113 C57 1.837 . S
C1137 C70 1.835 . S
C1145 C135 1.783 . S
C1169 C148 1.788 . S
C1177 C83 1.839 . S
C1201 C109 1.755 . S
C1209 C96 1.838 . S
