# Generated by pormake.
# Topology uog, (4)-cn, num edge types: 1
# Building blocks:
#     Node 0, Type 0, BuildingBlock: MUDLON_clean_sbu_0, # of connection points: 4
#     Node 1, Type 0, BuildingBlock: MUDLON_clean_sbu_0, # of connection points: 4
#     Node 2, Type 0, BuildingBlock: MUDLON_clean_sbu_0, # of connection points: 4
#     Node 3, Type 0, BuildingBlock: MUDLON_clean_sbu_0, # of connection points: 4
#     Node 4, Type 0, BuildingBlock: MUDLON_clean_sbu_0, # of connection points: 4
#     Node 5, Type 0, BuildingBlock: MUDLON_clean_sbu_0, # of connection points: 4
#     Edge 6, Type (0, 0), BuildingBlock: ZUJKAS_clean_linker_0, # of connection points: 2
#     Edge 7, Type (0, 0), BuildingBlock: ZUJKAS_clean_linker_0, # of connection points: 2
#     Edge 8, Type (0, 0), BuildingBlock: ZUJKAS_clean_linker_0, # of connection points: 2
#     Edge 9, Type (0, 0), BuildingBlock: ZUJKAS_clean_linker_0, # of connection points: 2
#     Edge 10, Type (0, 0), BuildingBlock: ZUJKAS_clean_linker_0, # of connection points: 2
#     Edge 11, Type (0, 0), BuildingBlock: ZUJKAS_clean_linker_0, # of connection points: 2
#     Edge 12, Type (0, 0), BuildingBlock: ZUJKAS_clean_linker_0, # of connection points: 2
#     Edge 13, Type (0, 0), BuildingBlock: ZUJKAS_clean_linker_0, # of connection points: 2
#     Edge 14, Type (0, 0), BuildingBlock: ZUJKAS_clean_linker_0, # of connection points: 2
#     Edge 15, Type (0, 0), BuildingBlock: ZUJKAS_clean_linker_0, # of connection points: 2
#     Edge 16, Type (0, 0), BuildingBlock: ZUJKAS_clean_linker_0, # of connection points: 2
#     Edge 17, Type (0, 0), BuildingBlock: ZUJKAS_clean_linker_0, # of connection points: 2
# Relax obj value: 0.035
# Max RMSD: 0.253
# Mean RMSD: 0.253
data_MOF--net-uog--node1-MUDLON_clean_sbu_0--edge1-ZUJKAS_clean_linker_0
_symmetry_space_group_name_H-M    P1
_symmetry_Int_Tables_number       1
_symmetry_cell_setting            triclinic
loop_
_symmetry_equiv_pos_as_xyz
'x, y, z'
_cell_length_a     38.357573
_cell_length_b     38.372376
_cell_length_c     57.616979
_cell_angle_alpha  89.730204
_cell_angle_beta   90.191684
_cell_angle_gamma 119.96576
loop_
_atom_site_label
_atom_site_type_symbol
_atom_site_fract_x
_atom_site_fract_y
_atom_site_fract_z
_atom_type_partial_charge
Mg0 Mg 0.59905 0.30786 0.18485 0.0
C1 C 0.60591 0.32724 0.13539 0.0
O2 O 0.56897 0.31767 0.14093 0.0
C3 C 0.64556 0.30406 0.22721 0.0
O4 O 0.63614 0.26873 0.2187 0.0
C5 C 0.58262 0.22581 0.17428 0.0
O6 O 0.61744 0.24894 0.16418 0.0
O7 O 0.56538 0.24235 0.18463 0.0
O8 O 0.62893 0.32704 0.15129 0.0
O9 O 0.56375 0.33774 0.1879 0.0
C10 C 0.58592 0.37568 0.18992 0.0
O11 O 0.62516 0.39103 0.19041 0.0
O12 O 0.63683 0.32706 0.21571 0.0
Mg13 Mg 0.3093 0.58615 0.52264 0.0
C14 C 0.35268 0.63403 0.47938 0.0
O15 O 0.3804 0.626 0.48665 0.0
C16 C 0.33096 0.6484 0.56318 0.0
O17 O 0.32548 0.67151 0.54848 0.0
C18 C 0.37719 0.57141 0.52771 0.0
O19 O 0.38986 0.60648 0.53764 0.0
O20 O 0.34175 0.55319 0.51925 0.0
O21 O 0.32204 0.62417 0.49205 0.0
O22 O 0.24388 0.5502 0.52336 0.0
C23 C 0.22749 0.57193 0.52471 0.0
O24 O 0.25089 0.61117 0.52555 0.0
O25 O 0.32685 0.61513 0.55635 0.0
Mg26 Mg 0.72228 0.3028 0.85315 0.0
C27 C 0.7147 0.34679 0.81059 0.0
O28 O 0.7471 0.37747 0.81935 0.0
C29 C 0.68209 0.32836 0.89198 0.0
O30 O 0.65667 0.32691 0.87615 0.0
C31 C 0.80424 0.37169 0.85813 0.0
O32 O 0.78122 0.38423 0.8674 0.0
O33 O 0.78771 0.33605 0.85013 0.0
O34 O 0.69708 0.314 0.82199 0.0
O35 O 0.694 0.23757 0.85491 0.0
C36 C 0.65651 0.22075 0.85924 0.0
O37 O 0.6405 0.2437 0.8623 0.0
O38 O 0.70951 0.32063 0.88638 0.0
Mg39 Mg 0.41777 0.71738 0.19026 0.0
C40 C 0.37063 0.71534 0.14675 0.0
O41 O 0.37705 0.75013 0.15461 0.0
C42 C 0.36201 0.67287 0.23262 0.0
O43 O 0.34777 0.63987 0.22025 0.0
C44 C 0.43588 0.80105 0.1956 0.0
O45 O 0.40065 0.77968 0.20562 0.0
O46 O 0.45284 0.78274 0.18703 0.0
O47 O 0.38101 0.69449 0.15911 0.0
O48 O 0.4524 0.68645 0.19129 0.0
C49 C 0.43146 0.6491 0.18671 0.0
O50 O 0.39325 0.63418 0.18154 0.0
O51 O 0.38782 0.70626 0.22374 0.0
Mg52 Mg 0.71776 0.40542 0.51884 0.0
C53 C 0.72664 0.38907 0.47002 0.0
O54 O 0.75819 0.4246 0.47386 0.0
C55 C 0.70703 0.35555 0.56313 0.0
O56 O 0.73583 0.35093 0.55409 0.0
C57 C 0.65572 0.42567 0.5071 0.0
O58 O 0.64047 0.38804 0.50062 0.0
O59 O 0.69126 0.44386 0.51539 0.0
O60 O 0.70234 0.37094 0.48664 0.0
O61 O 0.78327 0.43632 0.52219 0.0
C62 C 0.7994 0.41506 0.51768 0.0
O63 O 0.77612 0.37757 0.51118 0.0
O64 O 0.69248 0.37346 0.55138 0.0
Mg65 Mg 0.3116 0.71269 0.85574 0.0
C66 C 0.32598 0.71765 0.80637 0.0
O67 O 0.31255 0.7424 0.81093 0.0
C68 C 0.35326 0.70339 0.89916 0.0
O69 O 0.38596 0.73255 0.88962 0.0
C70 C 0.22987 0.64923 0.84542 0.0
O71 O 0.25288 0.6342 0.83986 0.0
O72 O 0.24656 0.68525 0.85282 0.0
O73 O 0.33009 0.69827 0.82314 0.0
O74 O 0.34576 0.77817 0.85819 0.0
C75 C 0.38228 0.79394 0.85172 0.0
O76 O 0.39532 0.77022 0.84421 0.0
O77 O 0.32027 0.68817 0.88799 0.0
H78 H 0.61319 0.18309 0.1536 0.0
H79 H 0.58823 0.11093 0.1561 0.0
H80 H 0.49008 0.0962 0.19924 0.0
H81 H 0.51468 0.16861 0.19666 0.0
H82 H 0.57845 0.06597 0.19626 0.0
H83 H 0.43369 0.00987 0.14922 0.0
H84 H 0.47354 0.06168 0.14775 0.0
H85 H 0.4411 0.04359 0.17266 0.0
C86 C 0.58606 0.16455 0.16348 0.0
C87 C 0.56585 0.18165 0.1749 0.0
C88 C 0.57191 0.12327 0.16491 0.0
C89 C 0.53712 0.09814 0.17765 0.0
C90 C 0.51662 0.11497 0.18896 0.0
H91 H 0.40745 0.84705 0.2142 0.0
H92 H 0.43416 0.91913 0.20961 0.0
C93 C 0.53078 0.15637 0.18754 0.0
C94 C 0.52331 0.05461 0.17976 0.0
H95 H 0.44418 0.96103 0.16845 0.0
C96 C 0.54919 0.04298 0.19007 0.0
C97 C 0.48518 0.02474 0.17161 0.0
C98 C 0.45685 0.03546 0.15949 0.0
C99 C 0.53753 1.00222 0.193 0.0
C100 C 0.49924 0.97235 0.18505 0.0
C101 C 0.47353 0.98401 0.17453 0.0
C102 C 0.48448 0.92878 0.18824 0.0
C103 C 0.56579 0.99148 0.20519 0.0
C104 C 0.50397 0.91017 0.17775 0.0
C105 C 0.4888 0.86872 0.1804 0.0
C106 C 0.45371 0.84523 0.19346 0.0
C107 C 0.43452 0.86415 0.20401 0.0
C108 C 0.44969 0.90541 0.20139 0.0
H109 H 0.58971 0.01742 0.2149 0.0
H110 H 0.54914 0.9661 0.21748 0.0
H111 H 0.58057 0.98201 0.19213 0.0
H112 H 0.5305 0.92755 0.16719 0.0
H113 H 0.50412 0.85501 0.17194 0.0
H114 H 0.36451 0.50277 0.50534 0.0
H115 H 0.41237 0.47829 0.50121 0.0
H116 H 0.50057 0.57969 0.54049 0.0
H117 H 0.45322 0.60398 0.54494 0.0
H118 H 0.4899 0.51866 0.48083 0.0
H119 H 0.49819 0.48404 0.57359 0.0
H120 H 0.45861 0.49173 0.56223 0.0
H121 H 0.50732 0.53411 0.56855 0.0
C122 C 0.39398 0.51962 0.51325 0.0
C123 C 0.40494 0.55521 0.52556 0.0
C124 C 0.4213 0.50567 0.51083 0.0
C125 C 0.45981 0.52689 0.52083 0.0
C126 C 0.47076 0.56241 0.53304 0.0
H127 H 0.67083 0.49734 0.5264 0.0
H128 H 0.62471 0.52422 0.52829 0.0
C129 C 0.44362 0.57634 0.53545 0.0
C130 C 0.48922 0.51281 0.51802 0.0
H131 H 0.54729 0.48409 0.54851 0.0
C132 C 0.50227 0.51083 0.49559 0.0
C133 C 0.50551 0.5029 0.53734 0.0
C134 C 0.49147 0.50291 0.56178 0.0
C135 C 0.53171 0.49983 0.49199 0.0
C136 C 0.54805 0.49001 0.51132 0.0
C137 C 0.53498 0.49198 0.53374 0.0
C138 C 0.57727 0.47566 0.50864 0.0
C139 C 0.54561 0.49954 0.46756 0.0
C140 C 0.56592 0.43961 0.49693 0.0
C141 C 0.59206 0.42425 0.49584 0.0
C142 C 0.63011 0.44451 0.50655 0.0
C143 C 0.64183 0.48112 0.51788 0.0
C144 C 0.61549 0.49643 0.51903 0.0
H145 H 0.53884 0.51828 0.45568 0.0
H146 H 0.57846 0.51067 0.46708 0.0
H147 H 0.52971 0.46825 0.46092 0.0
H148 H 0.53632 0.42269 0.48917 0.0
H149 H 0.582 0.39594 0.487 0.0
H150 H 0.86184 0.35834 0.83844 0.0
H151 H 0.93444 0.40597 0.83571 0.0
H152 H 0.91818 0.49567 0.871 0.0
H153 H 0.84625 0.44856 0.87406 0.0
H154 H 0.97378 0.48279 0.8143 0.0
H155 H 1.00794 0.49379 0.90851 0.0
H156 H 0.96171 0.45402 0.8964 0.0
H157 H 0.9677 0.50299 0.90122 0.0
C158 C 0.87381 0.38812 0.84575 0.0
C159 C 0.84825 0.39953 0.85658 0.0
C160 C 0.91524 0.4153 0.84414 0.0
C161 C 0.93175 0.45414 0.85348 0.0
C162 C 0.90623 0.4656 0.86412 0.0
H163 H 0.17189 0.66489 0.86197 0.0
H164 H 0.09882 0.6188 0.86256 0.0
C165 C 0.865 0.4386 0.86573 0.0
C166 C 0.97546 0.48328 0.85165 0.0
H167 H 0.0594 0.54192 0.88402 0.0
C168 C 0.99259 0.49555 0.82952 0.0
C169 C 0.99986 0.50005 0.87156 0.0
C170 C 0.98352 0.48682 0.89577 0.0
C171 C 0.03336 0.52468 0.82677 0.0
C172 C 0.05771 0.54151 0.84668 0.0
C173 C 0.04058 0.52923 0.86879 0.0
C174 C 0.10148 0.57046 0.84499 0.0
C175 C 0.04987 0.53772 0.80258 0.0
C176 C 0.12707 0.55854 0.83493 0.0
C177 C 0.1686 0.58465 0.8346 0.0
C178 C 0.18552 0.62325 0.84441 0.0
C179 C 0.15979 0.63545 0.85417 0.0
C180 C 0.1181 0.60914 0.85458 0.0
H181 H 0.02554 0.53059 0.78975 0.0
H182 H 0.07166 0.57052 0.80191 0.0
H183 H 0.06581 0.52157 0.79732 0.0
H184 H 0.11501 0.52859 0.82784 0.0
H185 H 0.1875 0.5742 0.82697 0.0
H186 H 0.16861 0.49279 0.51889 0.0
H187 H 0.09546 0.46561 0.51792 0.0
H188 H 0.11352 0.58419 0.53052 0.0
H189 H 0.18606 0.61155 0.53115 0.0
H190 H 0.04394 0.46727 0.55172 0.0
H191 H 0.04305 0.54981 0.47266 0.0
H192 H 0.08609 0.54548 0.48111 0.0
H193 H 0.07652 0.58189 0.49482 0.0
C194 C 0.15694 0.51302 0.52142 0.0
C195 C 0.1832 0.55438 0.52488 0.0
C196 C 0.11519 0.49748 0.52086 0.0
C197 C 0.09912 0.52305 0.52367 0.0
C198 C 0.12527 0.56409 0.52771 0.0
H199 H 0.85818 0.49249 0.52784 0.0
H200 H 0.93105 0.51874 0.53025 0.0
C201 C 0.1668 0.57962 0.52819 0.0
C202 C 0.05503 0.50704 0.52273 0.0
H203 H 0.98225 0.51732 0.49439 0.0
C204 C 0.03039 0.47798 0.5391 0.0
C205 C 0.03744 0.52121 0.50628 0.0
C206 C 0.06206 0.55103 0.48758 0.0
C207 C 0.98872 0.46327 0.53974 0.0
C208 C 0.97122 0.47764 0.52339 0.0
C209 C 0.99582 0.50662 0.50701 0.0
C210 C 0.92721 0.46182 0.52243 0.0
C211 C 0.96382 0.433 0.55818 0.0
C212 C 0.90109 0.42134 0.51697 0.0
C213 C 0.85969 0.40636 0.51552 0.0
C214 C 0.84346 0.43159 0.51944 0.0
C215 C 0.86971 0.47226 0.52481 0.0
C216 C 0.91129 0.48729 0.52618 0.0
H217 H 0.98272 0.43286 0.5728 0.0
H218 H 0.94057 0.43929 0.56515 0.0
H219 H 0.94825 0.40247 0.55046 0.0
H220 H 0.91281 0.40136 0.51358 0.0
H221 H 0.84042 0.37492 0.51126 0.0
H222 H 0.36684 0.85318 0.86615 0.0
H223 H 0.41442 0.92585 0.86771 0.0
H224 H 0.50863 0.90635 0.84182 0.0
H225 H 0.46157 0.83429 0.83989 0.0
H226 H 0.4871 0.96713 0.89256 0.0
H227 H 0.51395 0.99251 0.79783 0.0
H228 H 0.47232 0.94728 0.80971 0.0
H229 H 0.52193 0.95335 0.8091 0.0
C230 C 0.39763 0.86444 0.86067 0.0
C231 C 0.4103 0.83794 0.85276 0.0
C232 C 0.42478 0.90591 0.8616 0.0
C233 C 0.46489 0.92153 0.85451 0.0
C234 C 0.47763 0.89508 0.84687 0.0
H235 H 0.6759 0.1627 0.84832 0.0
H236 H 0.63065 0.08945 0.84834 0.0
C237 C 0.45064 0.85379 0.84592 0.0
C238 C 0.49388 0.96536 0.85558 0.0
H239 H 0.5575 0.04647 0.82244 0.0
C240 C 0.50234 0.98454 0.87722 0.0
C241 C 0.51392 0.98795 0.83555 0.0
C242 C 0.50487 0.96936 0.81169 0.0
C243 C 0.53071 0.02563 0.87943 0.0
C244 C 0.55069 0.0482 0.8594 0.0
C245 C 0.54236 0.029 0.83778 0.0
C246 C 0.57868 0.09222 0.86032 0.0
C247 C 0.53949 0.04445 0.90322 0.0
C248 C 0.56436 0.11791 0.8669 0.0
C249 C 0.58995 0.15951 0.86685 0.0
C250 C 0.63047 0.17642 0.86013 0.0
C251 C 0.64492 0.15062 0.85368 0.0
C252 C 0.61912 0.10883 0.85364 0.0
H253 H 0.53029 0.02144 0.91718 0.0
H254 H 0.57201 0.0666 0.90524 0.0
H255 H 0.5224 0.06049 0.90557 0.0
H256 H 0.53311 0.1058 0.87169 0.0
H257 H 0.57774 0.17843 0.87187 0.0
H258 H 0.39173 0.56803 0.18047 0.0
H259 H 0.41879 0.52261 0.18214 0.0
H260 H 0.53714 0.62285 0.19595 0.0
H261 H 0.51003 0.6688 0.19475 0.0
H262 H 0.47674 0.52159 0.15501 0.0
H263 H 0.5235 0.54396 0.2476 0.0
H264 H 0.49101 0.56092 0.23557 0.0
H265 H 0.54438 0.58937 0.23066 0.0
C266 C 0.42354 0.58058 0.18395 0.0
C267 C 0.44872 0.62211 0.18756 0.0
C268 C 0.43894 0.55447 0.18487 0.0
C269 C 0.47984 0.5692 0.18947 0.0
C270 C 0.50529 0.61071 0.19286 0.0
H271 H 0.62661 0.45683 0.1961 0.0
H272 H 0.59976 0.50255 0.19601 0.0
C273 C 0.48982 0.63696 0.19202 0.0
C274 C 0.4956 0.54088 0.19015 0.0
H275 H 0.54157 0.50378 0.22518 0.0
C276 C 0.49081 0.5176 0.17038 0.0
C277 C 0.51384 0.53565 0.21023 0.0
C278 C 0.51823 0.5585 0.23231 0.0
C279 C 0.50428 0.48966 0.17002 0.0
C280 C 0.52251 0.48444 0.1901 0.0
C281 C 0.52743 0.50777 0.20985 0.0
C282 C 0.53799 0.45594 0.19068 0.0
C283 C 0.49972 0.4666 0.14801 0.0
C284 C 0.51201 0.41435 0.18805 0.0
C285 C 0.52729 0.38794 0.18809 0.0
C286 C 0.56879 0.40275 0.1908 0.0
C287 C 0.5945 0.44435 0.19387 0.0
C288 C 0.57924 0.47061 0.19387 0.0
H289 H 0.49353 0.4805 0.13275 0.0
H290 H 0.52726 0.46486 0.14451 0.0
H291 H 0.47415 0.43545 0.14996 0.0
H292 H 0.47995 0.40235 0.18596 0.0
H293 H 0.5067 0.35607 0.18577 0.0
H294 H 0.62156 0.3362 0.91215 0.0
H295 H 0.61232 0.34344 0.9536 0.0
H296 H 0.72249 0.34369 0.9691 0.0
H297 H 0.73226 0.33701 0.92794 0.0
H298 H 0.60446 0.28861 0.98802 0.0
H299 H 0.73516 0.43919 1.00676 0.0
H300 H 0.71759 0.42226 0.97761 0.0
H301 H 0.74819 0.40581 0.99243 0.0
C302 C 0.64412 0.33842 0.92435 0.0
C303 C 0.67761 0.33598 0.9167 0.0
C304 C 0.63878 0.34251 0.94802 0.0
C305 C 0.667 0.34465 0.9644 0.0
C306 C 0.70079 0.34298 0.95675 0.0
H307 H 0.67384 0.3333 0.11542 0.0
H308 H 0.68995 0.33925 0.07382 0.0
C309 C 0.70612 0.33883 0.93317 0.0
C310 C 0.65966 0.34541 0.98961 0.0
H311 H 0.70008 0.39856 0.03948 0.0
C312 C 0.62517 0.31283 0.99924 0.0
C313 C 0.68699 0.37682 1.00424 0.0
C314 C 0.72389 0.4132 0.99474 0.0
C315 C 0.61753 0.31044 0.02315 0.0
C316 C 0.64476 0.34189 0.0378 0.0
C317 C 0.67932 0.37449 0.02821 0.0
C318 C 0.63709 0.34163 0.06302 0.0
C319 C 0.5808 0.27378 0.03262 0.0
C320 C 0.6028 0.34228 0.07069 0.0
C321 C 0.59351 0.33879 0.09428 0.0
C322 C 0.61853 0.33491 0.11076 0.0
C323 C 0.65394 0.33615 0.10315 0.0
C324 C 0.66316 0.33951 0.07942 0.0
H325 H 0.56913 0.24811 0.02035 0.0
H326 H 0.58755 0.26419 0.04945 0.0
H327 H 0.55662 0.28114 0.03555 0.0
H328 H 0.58275 0.34475 0.05836 0.0
H329 H 0.56626 0.33844 0.09954 0.0
H330 H 0.30844 0.60729 0.25816 0.0
H331 H 0.29948 0.60317 0.30034 0.0
H332 H 0.3874 0.72929 0.30611 0.0
H333 H 0.39553 0.73397 0.26414 0.0
H334 H 0.35477 0.61462 0.33144 0.0
H335 H 0.30322 0.72294 0.34943 0.0
H336 H 0.30361 0.70524 0.32052 0.0
H337 H 0.34887 0.74577 0.3329 0.0
C338 C 0.32522 0.63433 0.26837 0.0
C339 C 0.35271 0.67093 0.25773 0.0
C340 C 0.32013 0.63193 0.29249 0.0
C341 C 0.34239 0.66604 0.30644 0.0
C342 C 0.36906 0.70279 0.29576 0.0
H343 H 0.41419 0.66016 0.44808 0.0
H344 H 0.41107 0.67013 0.40636 0.0
C345 C 0.3739 0.70531 0.27169 0.0
C346 C 0.34082 0.66247 0.33218 0.0
H347 H 0.33103 0.70513 0.38188 0.0
C348 C 0.34911 0.63413 0.34244 0.0
C349 C 0.33305 0.68761 0.34661 0.0
C350 C 0.32126 0.71678 0.33678 0.0
C351 C 0.351 0.63101 0.36662 0.0
C352 C 0.34561 0.65776 0.38101 0.0
C353 C 0.33599 0.68521 0.37083 0.0
C354 C 0.34925 0.65702 0.40666 0.0
C355 C 0.35833 0.59871 0.3765 0.0
C356 C 0.3164 0.64888 0.4209 0.0
C357 C 0.31831 0.64378 0.44485 0.0
C358 C 0.3531 0.64664 0.45497 0.0
C359 C 0.3868 0.65731 0.44083 0.0
C360 C 0.38496 0.66271 0.41694 0.0
H361 H 0.35024 0.574 0.36388 0.0
H362 H 0.39076 0.61198 0.3807 0.0
H363 H 0.34075 0.58567 0.39265 0.0
H364 H 0.28868 0.64476 0.41337 0.0
H365 H 0.29182 0.63571 0.45523 0.0
H366 H 0.74193 0.41237 0.782 0.0
H367 H 0.73119 0.41264 0.74016 0.0
H368 H 0.65347 0.2838 0.74157 0.0
H369 H 0.66294 0.28347 0.78343 0.0
H370 H 0.75435 0.37835 0.70925 0.0
H371 H 0.59013 0.31452 0.69937 0.0
H372 H 0.61532 0.33158 0.72696 0.0
H373 H 0.6019 0.2824 0.71628 0.0
C374 C 0.72177 0.38422 0.7735 0.0
C375 C 0.70336 0.34792 0.78608 0.0
C376 C 0.71572 0.38439 0.74955 0.0
C377 C 0.69126 0.34829 0.73766 0.0
C378 C 0.67169 0.31219 0.75034 0.0
H379 H 0.72929 0.31439 0.59295 0.0
H380 H 0.72213 0.30983 0.63518 0.0
C381 C 0.67735 0.31204 0.77433 0.0
C382 C 0.68971 0.34791 0.71184 0.0
H383 H 0.62603 0.31499 0.66519 0.0
C384 C 0.72624 0.36478 0.69965 0.0
C385 C 0.65311 0.33052 0.69923 0.0
C386 C 0.61294 0.31412 0.71113 0.0
C387 C 0.72726 0.36421 0.67533 0.0
C388 C 0.69064 0.34509 0.66275 0.0
C389 C 0.65406 0.32896 0.67486 0.0
C390 C 0.69005 0.34282 0.63699 0.0
C391 C 0.76767 0.38484 0.66337 0.0
C392 C 0.67216 0.36061 0.62385 0.0
C393 C 0.67562 0.36267 0.59964 0.0
C394 C 0.69718 0.34709 0.58814 0.0
C395 C 0.7129 0.32709 0.60126 0.0
C396 C 0.70908 0.32472 0.62544 0.0
H397 H 0.79164 0.40732 0.67484 0.0
H398 H 0.77616 0.36207 0.65866 0.0
H399 H 0.76669 0.40031 0.64725 0.0
H400 H 0.65702 0.37446 0.63237 0.0
H401 H 0.66302 0.37818 0.59009 0.0
H402 H 0.41811 0.7237 0.92739 0.0
H403 H 0.41791 0.7162 0.96958 0.0
H404 H 0.2882 0.65646 0.96971 0.0
H405 H 0.28813 0.66237 0.92758 0.0
H406 H 0.39373 0.75022 0.99941 0.0
H407 H 0.30417 0.58617 1.01435 0.0
H408 H 0.32284 0.60744 0.98602 0.0
H409 H 0.27714 0.6037 0.99698 0.0
C410 C 0.38951 0.70807 0.93635 0.0
C411 C 0.35316 0.69363 0.9241 0.0
C412 C 0.38942 0.70389 0.96049 0.0
C413 C 0.35302 0.68542 0.97291 0.0
C414 C 0.31665 0.66986 0.96059 0.0
H415 H 0.33982 0.74803 0.11632 0.0
H416 H 0.33193 0.73788 0.07432 0.0
C417 C 0.31669 0.67351 0.93643 0.0
C418 C 0.35331 0.68616 0.99874 0.0
H419 H 0.3126 0.62807 0.04718 0.0
C420 C 0.37625 0.72339 1.00982 0.0
C421 C 0.33081 0.65117 1.01244 0.0
C422 C 0.30771 0.60984 1.00183 0.0
C423 C 0.37695 0.72678 0.03407 0.0
C424 C 0.35282 0.69216 0.04772 0.0
C425 C 0.33045 0.65474 0.03671 0.0
C426 C 0.35187 0.69413 0.07347 0.0
C427 C 0.40433 0.76737 0.04478 0.0
C428 C 0.36293 0.67086 0.08717 0.0
C429 C 0.36657 0.67593 0.11125 0.0
C430 C 0.35948 0.70462 0.12208 0.0
C431 C 0.34598 0.72606 0.10849 0.0
C432 C 0.3418 0.72054 0.08444 0.0
H433 H 0.42888 0.78737 0.03274 0.0
H434 H 0.38663 0.78226 0.04882 0.0
H435 H 0.41809 0.76439 0.06111 0.0
H436 H 0.37048 0.65001 0.07915 0.0
H437 H 0.37695 0.65882 0.12119 0.0
H438 H 0.7819 0.40151 0.43705 0.0
H439 H 0.76988 0.38306 0.3961 0.0
H440 H 0.64176 0.32395 0.40775 0.0
H441 H 0.65377 0.3408 0.44917 0.0
H442 H 0.65902 0.28298 0.37725 0.0
H443 H 0.73974 0.44351 0.35151 0.0
H444 H 0.7714 0.43016 0.36765 0.0
H445 H 0.72803 0.42766 0.38134 0.0
C446 C 0.75115 0.3841 0.43093 0.0
C447 C 0.71874 0.37289 0.44619 0.0
C448 C 0.74432 0.37389 0.40748 0.0
C449 C 0.70496 0.35334 0.39865 0.0
C450 C 0.67243 0.34021 0.41411 0.0
H451 H 0.64405 0.36098 0.25474 0.0
H452 H 0.65859 0.37146 0.29615 0.0
C453 C 0.67927 0.34972 0.43776 0.0
C454 C 0.69791 0.34687 0.37323 0.0
H455 H 0.72261 0.3961 0.32109 0.0
C456 C 0.67279 0.30771 0.36496 0.0
C457 C 0.71524 0.37926 0.35719 0.0
C458 C 0.73973 0.42252 0.36488 0.0
C459 C 0.66487 0.29998 0.34112 0.0
C460 C 0.68374 0.33215 0.32501 0.0
C461 C 0.7086 0.37132 0.33335 0.0
C462 C 0.67657 0.32639 0.29955 0.0
C463 C 0.63534 0.2576 0.3336 0.0
C464 C 0.68289 0.29836 0.28738 0.0
C465 C 0.67398 0.29186 0.26366 0.0
C466 C 0.65955 0.31399 0.25155 0.0
C467 C 0.65525 0.34348 0.26351 0.0
C468 C 0.66346 0.34944 0.28725 0.0
H469 H 0.61498 0.23967 0.34801 0.0
H470 H 0.61666 0.25744 0.3188 0.0
H471 H 0.65212 0.24243 0.32811 0.0
H472 H 0.69432 0.28118 0.29625 0.0
H473 H 0.67793 0.26916 0.25489 0.0
H474 H 0.34257 0.66097 0.78866 0.0
H475 H 0.35243 0.65068 0.74765 0.0
H476 H 0.33783 0.75137 0.72836 0.0
H477 H 0.32837 0.76202 0.76891 0.0
H478 H 0.29626 0.63435 0.71184 0.0
H479 H 0.43935 0.77429 0.69297 0.0
H480 H 0.42271 0.75662 0.72218 0.0
H481 H 0.40252 0.78328 0.70653 0.0
C482 C 0.34204 0.68121 0.77568 0.0
C483 C 0.33468 0.71229 0.78204 0.0
C484 C 0.34763 0.67529 0.75229 0.0
C485 C 0.34649 0.70068 0.73501 0.0
C486 C 0.33973 0.73199 0.74142 0.0
H487 H 0.33019 0.71064 0.58611 0.0
H488 H 0.33665 0.72321 0.62804 0.0
C489 C 0.33399 0.7378 0.76465 0.0
C490 C 0.34922 0.69296 0.71007 0.0
H491 H 0.39981 0.73769 0.66006 0.0
C492 C 0.31924 0.65665 0.70055 0.0
C493 C 0.37906 0.72229 0.69539 0.0
C494 C 0.41296 0.76116 0.7048 0.0
C495 C 0.31738 0.64945 0.67659 0.0
C496 C 0.34676 0.67911 0.66183 0.0
C497 C 0.37724 0.7151 0.67141 0.0
C498 C 0.34587 0.67335 0.63637 0.0
C499 C 0.2831 0.61079 0.66717 0.0
C500 C 0.35009 0.64192 0.62716 0.0
C501 C 0.34635 0.63463 0.60331 0.0
C502 C 0.33856 0.65882 0.58813 0.0
C503 C 0.33606 0.69139 0.59731 0.0
C504 C 0.33974 0.69861 0.62125 0.0
H505 H 0.25814 0.59577 0.67988 0.0
H506 H 0.271 0.6164 0.65092 0.0
H507 H 0.29421 0.58979 0.66313 0.0
H508 H 0.35568 0.62261 0.63847 0.0
H509 H 0.3489 0.60955 0.59683 0.0
loop_
_geom_bond_atom_site_label_1
_geom_bond_atom_site_label_2
_geom_bond_distance
_geom_bond_site_symmetry_2
_ccdc_geom_bond_type
Mg0 O7 2.141 . S
Mg0 O8 2.048 . S
Mg0 O9 2.048 . S
Mg0 O12 2.141 . S
C1 O2 1.313 . S
C1 O8 1.195 . S
O2 C1 1.313 . S
C3 O4 1.245 . S
C3 O12 1.289 . S
O4 C3 1.245 . S
C5 O6 1.245 . S
C5 O7 1.289 . S
O6 C5 1.245 . S
O7 Mg0 2.141 . S
O7 C5 1.289 . S
O8 Mg0 2.048 . S
O8 C1 1.195 . S
O9 Mg0 2.048 . S
O9 C10 1.195 . S
C10 O9 1.195 . S
C10 O11 1.313 . S
O11 C10 1.313 . S
O12 Mg0 2.141 . S
O12 C3 1.289 . S
Mg13 O20 2.141 . S
Mg13 O21 2.048 . S
Mg13 O22 2.048 . S
Mg13 O25 2.141 . S
C14 O15 1.313 . S
C14 O21 1.195 . S
O15 C14 1.313 . S
C16 O17 1.245 . S
C16 O25 1.289 . S
O17 C16 1.245 . S
C18 O19 1.245 . S
C18 O20 1.289 . S
O19 C18 1.245 . S
O20 Mg13 2.141 . S
O20 C18 1.289 . S
O21 Mg13 2.048 . S
O21 C14 1.195 . S
O22 Mg13 2.048 . S
O22 C23 1.195 . S
C23 O22 1.195 . S
C23 O24 1.313 . S
O24 C23 1.313 . S
O25 Mg13 2.141 . S
O25 C16 1.289 . S
Mg26 O33 2.141 . S
Mg26 O34 2.048 . S
Mg26 O35 2.048 . S
Mg26 O38 2.141 . S
C27 O28 1.313 . S
C27 O34 1.195 . S
O28 C27 1.313 . S
C29 O30 1.245 . S
C29 O38 1.289 . S
O30 C29 1.245 . S
C31 O32 1.245 . S
C31 O33 1.289 . S
O32 C31 1.245 . S
O33 Mg26 2.141 . S
O33 C31 1.289 . S
O34 Mg26 2.048 . S
O34 C27 1.195 . S
O35 Mg26 2.048 . S
O35 C36 1.195 . S
C36 O35 1.195 . S
C36 O37 1.313 . S
O37 C36 1.313 . S
O38 Mg26 2.141 . S
O38 C29 1.289 . S
Mg39 O46 2.141 . S
Mg39 O47 2.048 . S
Mg39 O48 2.048 . S
Mg39 O51 2.141 . S
C40 O41 1.313 . S
C40 O47 1.195 . S
O41 C40 1.313 . S
C42 O43 1.245 . S
C42 O51 1.289 . S
O43 C42 1.245 . S
C44 O45 1.245 . S
C44 O46 1.289 . S
O45 C44 1.245 . S
O46 Mg39 2.141 . S
O46 C44 1.289 . S
O47 Mg39 2.048 . S
O47 C40 1.195 . S
O48 Mg39 2.048 . S
O48 C49 1.195 . S
C49 O48 1.195 . S
C49 O50 1.313 . S
O50 C49 1.313 . S
O51 Mg39 2.141 . S
O51 C42 1.289 . S
Mg52 O59 2.141 . S
Mg52 O60 2.048 . S
Mg52 O61 2.048 . S
Mg52 O64 2.141 . S
C53 O54 1.313 . S
C53 O60 1.195 . S
O54 C53 1.313 . S
C55 O56 1.245 . S
C55 O64 1.289 . S
O56 C55 1.245 . S
C57 O58 1.245 . S
C57 O59 1.289 . S
O58 C57 1.245 . S
O59 Mg52 2.141 . S
O59 C57 1.289 . S
O60 Mg52 2.048 . S
O60 C53 1.195 . S
O61 Mg52 2.048 . S
O61 C62 1.195 . S
C62 O61 1.195 . S
C62 O63 1.313 . S
O63 C62 1.313 . S
O64 Mg52 2.141 . S
O64 C55 1.289 . S
Mg65 O72 2.141 . S
Mg65 O73 2.048 . S
Mg65 O74 2.048 . S
Mg65 O77 2.141 . S
C66 O67 1.313 . S
C66 O73 1.195 . S
O67 C66 1.313 . S
C68 O69 1.245 . S
C68 O77 1.289 . S
O69 C68 1.245 . S
C70 O71 1.245 . S
C70 O72 1.289 . S
O71 C70 1.245 . S
O72 Mg65 2.141 . S
O72 C70 1.289 . S
O73 Mg65 2.048 . S
O73 C66 1.195 . S
O74 Mg65 2.048 . S
O74 C75 1.195 . S
C75 O74 1.195 . S
C75 O76 1.313 . S
O76 C75 1.313 . S
O77 Mg65 2.141 . S
O77 C68 1.289 . S
H78 C86 0.929 . S
H79 C88 0.930 . S
H80 C90 0.930 . S
H81 C93 0.929 . S
H82 C96 0.930 . S
H83 C98 0.960 . S
H84 C98 0.960 . S
H85 C98 0.960 . S
C86 H78 0.929 . S
C86 C87 1.377 . S
C86 C88 1.384 . S
C87 C86 1.377 . S
C87 C93 1.390 . S
C88 H79 0.930 . S
C88 C86 1.384 . S
C88 C89 1.372 . S
C89 C88 1.372 . S
C89 C90 1.400 . S
C89 C94 1.490 . S
C90 H80 0.930 . S
C90 C89 1.400 . S
C90 C93 1.386 . S
H91 C107 0.930 . S
H92 C108 0.931 . S
C93 H81 0.929 . S
C93 C87 1.390 . S
C93 C90 1.386 . S
C94 C89 1.490 . S
C94 C96 1.395 . S
C94 C97 1.403 . S
H95 C101 0.930 . S
C96 H82 0.930 . S
C96 C94 1.395 . S
C96 C99 1.403 1_545 S
C97 C94 1.403 . S
C97 C98 1.524 . S
C97 C101 1.400 1_545 S
C98 H83 0.960 . S
C98 H84 0.960 . S
C98 H85 0.960 . S
C98 C97 1.524 . S
C99 C96 1.403 1_565 S
C99 C100 1.392 . S
C99 C103 1.495 . S
C100 C99 1.392 . S
C100 C101 1.385 . S
C100 C102 1.478 . S
C101 H95 0.930 . S
C101 C97 1.400 1_565 S
C101 C100 1.385 . S
C102 C100 1.478 . S
C102 C104 1.381 . S
C102 C108 1.383 . S
C103 C99 1.495 . S
C103 H109 0.959 . S
C103 H110 0.961 . S
C103 H111 0.960 . S
C104 C102 1.381 . S
C104 C105 1.394 . S
C104 H112 0.930 . S
C105 C104 1.394 . S
C105 C106 1.383 . S
C105 H113 0.929 . S
C106 C105 1.383 . S
C106 C107 1.377 . S
C107 H91 0.930 . S
C107 C106 1.377 . S
C107 C108 1.379 . S
C108 H92 0.931 . S
C108 C102 1.383 . S
C108 C107 1.379 . S
H109 C103 0.959 . S
H110 C103 0.961 . S
H111 C103 0.960 . S
H112 C104 0.930 . S
H113 C105 0.929 . S
H114 C122 0.929 . S
H115 C124 0.930 . S
H116 C126 0.930 . S
H117 C129 0.929 . S
H118 C132 0.930 . S
H119 C134 0.960 . S
H120 C134 0.960 . S
H121 C134 0.960 . S
C122 H114 0.929 . S
C122 C123 1.377 . S
C122 C124 1.384 . S
C123 C122 1.377 . S
C123 C129 1.390 . S
C124 H115 0.930 . S
C124 C122 1.384 . S
C124 C125 1.372 . S
C125 C124 1.372 . S
C125 C126 1.400 . S
C125 C130 1.490 . S
C126 H116 0.930 . S
C126 C125 1.400 . S
C126 C129 1.386 . S
H127 C143 0.930 . S
H128 C144 0.931 . S
C129 H117 0.929 . S
C129 C123 1.390 . S
C129 C126 1.386 . S
C130 C125 1.490 . S
C130 C132 1.395 . S
C130 C133 1.403 . S
H131 C137 0.930 . S
C132 H118 0.930 . S
C132 C130 1.395 . S
C132 C135 1.403 . S
C133 C130 1.403 . S
C133 C134 1.524 . S
C133 C137 1.400 . S
C134 H119 0.960 . S
C134 H120 0.960 . S
C134 H121 0.960 . S
C134 C133 1.524 . S
C135 C132 1.403 . S
C135 C136 1.392 . S
C135 C139 1.495 . S
C136 C135 1.392 . S
C136 C137 1.385 . S
C136 C138 1.478 . S
C137 H131 0.930 . S
C137 C133 1.400 . S
C137 C136 1.385 . S
C138 C136 1.478 . S
C138 C140 1.381 . S
C138 C144 1.383 . S
C139 C135 1.495 . S
C139 H145 0.959 . S
C139 H146 0.961 . S
C139 H147 0.960 . S
C140 C138 1.381 . S
C140 C141 1.394 . S
C140 H148 0.930 . S
C141 C140 1.394 . S
C141 C142 1.383 . S
C141 H149 0.929 . S
C142 C141 1.383 . S
C142 C143 1.377 . S
C143 H127 0.930 . S
C143 C142 1.377 . S
C143 C144 1.379 . S
C144 H128 0.931 . S
C144 C138 1.383 . S
C144 C143 1.379 . S
H145 C139 0.959 . S
H146 C139 0.961 . S
H147 C139 0.960 . S
H148 C140 0.930 . S
H149 C141 0.929 . S
H150 C158 0.929 . S
H151 C160 0.930 . S
H152 C162 0.930 . S
H153 C165 0.929 . S
H154 C168 0.930 . S
H155 C170 0.960 . S
H156 C170 0.960 . S
H157 C170 0.960 . S
C158 H150 0.929 . S
C158 C159 1.377 . S
C158 C160 1.384 . S
C159 C158 1.377 . S
C159 C165 1.390 . S
C160 H151 0.930 . S
C160 C158 1.384 . S
C160 C161 1.372 . S
C161 C160 1.372 . S
C161 C162 1.400 . S
C161 C166 1.490 . S
C162 H152 0.930 . S
C162 C161 1.400 . S
C162 C165 1.386 . S
H163 C179 0.930 . S
H164 C180 0.931 . S
C165 H153 0.929 . S
C165 C159 1.390 . S
C165 C162 1.386 . S
C166 C161 1.490 . S
C166 C168 1.395 . S
C166 C169 1.403 . S
H167 C173 0.930 . S
C168 H154 0.930 . S
C168 C166 1.395 . S
C168 C171 1.403 1_655 S
C169 C166 1.403 . S
C169 C170 1.524 . S
C169 C173 1.400 1_655 S
C170 H155 0.960 . S
C170 H156 0.960 . S
C170 H157 0.960 . S
C170 C169 1.524 . S
C171 C168 1.403 1_455 S
C171 C172 1.392 . S
C171 C175 1.495 . S
C172 C171 1.392 . S
C172 C173 1.385 . S
C172 C174 1.478 . S
C173 H167 0.930 . S
C173 C169 1.400 1_455 S
C173 C172 1.385 . S
C174 C172 1.478 . S
C174 C176 1.381 . S
C174 C180 1.383 . S
C175 C171 1.495 . S
C175 H181 0.959 . S
C175 H182 0.961 . S
C175 H183 0.960 . S
C176 C174 1.381 . S
C176 C177 1.394 . S
C176 H184 0.930 . S
C177 C176 1.394 . S
C177 C178 1.383 . S
C177 H185 0.929 . S
C178 C177 1.383 . S
C178 C179 1.377 . S
C179 H163 0.930 . S
C179 C178 1.377 . S
C179 C180 1.379 . S
C180 H164 0.931 . S
C180 C174 1.383 . S
C180 C179 1.379 . S
H181 C175 0.959 . S
H182 C175 0.961 . S
H183 C175 0.960 . S
H184 C176 0.930 . S
H185 C177 0.929 . S
H186 C194 0.929 . S
H187 C196 0.930 . S
H188 C198 0.930 . S
H189 C201 0.929 . S
H190 C204 0.930 . S
H191 C206 0.960 . S
H192 C206 0.960 . S
H193 C206 0.960 . S
C194 H186 0.929 . S
C194 C195 1.377 . S
C194 C196 1.384 . S
C195 C194 1.377 . S
C195 C201 1.390 . S
C196 H187 0.930 . S
C196 C194 1.384 . S
C196 C197 1.372 . S
C197 C196 1.372 . S
C197 C198 1.400 . S
C197 C202 1.490 . S
C198 H188 0.930 . S
C198 C197 1.400 . S
C198 C201 1.386 . S
H199 C215 0.930 . S
H200 C216 0.931 . S
C201 H189 0.929 . S
C201 C195 1.390 . S
C201 C198 1.386 . S
C202 C197 1.490 . S
C202 C204 1.395 . S
C202 C205 1.403 . S
H203 C209 0.930 . S
C204 H190 0.930 . S
C204 C202 1.395 . S
C204 C207 1.403 1_455 S
C205 C202 1.403 . S
C205 C206 1.524 . S
C205 C209 1.400 1_455 S
C206 H191 0.960 . S
C206 H192 0.960 . S
C206 H193 0.960 . S
C206 C205 1.524 . S
C207 C204 1.403 1_655 S
C207 C208 1.392 . S
C207 C211 1.495 . S
C208 C207 1.392 . S
C208 C209 1.385 . S
C208 C210 1.478 . S
C209 H203 0.930 . S
C209 C205 1.400 1_655 S
C209 C208 1.385 . S
C210 C208 1.478 . S
C210 C212 1.381 . S
C210 C216 1.383 . S
C211 C207 1.495 . S
C211 H217 0.959 . S
C211 H218 0.961 . S
C211 H219 0.960 . S
C212 C210 1.381 . S
C212 C213 1.394 . S
C212 H220 0.930 . S
C213 C212 1.394 . S
C213 C214 1.383 . S
C213 H221 0.929 . S
C214 C213 1.383 . S
C214 C215 1.377 . S
C215 H199 0.930 . S
C215 C214 1.377 . S
C215 C216 1.379 . S
C216 H200 0.931 . S
C216 C210 1.383 . S
C216 C215 1.379 . S
H217 C211 0.959 . S
H218 C211 0.961 . S
H219 C211 0.960 . S
H220 C212 0.930 . S
H221 C213 0.929 . S
H222 C230 0.929 . S
H223 C232 0.930 . S
H224 C234 0.930 . S
H225 C237 0.929 . S
H226 C240 0.930 . S
H227 C242 0.960 . S
H228 C242 0.960 . S
H229 C242 0.960 . S
C230 H222 0.929 . S
C230 C231 1.377 . S
C230 C232 1.384 . S
C231 C230 1.377 . S
C231 C237 1.390 . S
C232 H223 0.930 . S
C232 C230 1.384 . S
C232 C233 1.372 . S
C233 C232 1.372 . S
C233 C234 1.400 . S
C233 C238 1.490 . S
C234 H224 0.930 . S
C234 C233 1.400 . S
C234 C237 1.386 . S
H235 C251 0.930 . S
H236 C252 0.931 . S
C237 H225 0.929 . S
C237 C231 1.390 . S
C237 C234 1.386 . S
C238 C233 1.490 . S
C238 C240 1.395 . S
C238 C241 1.403 . S
H239 C245 0.930 . S
C240 H226 0.930 . S
C240 C238 1.395 . S
C240 C243 1.403 1_565 S
C241 C238 1.403 . S
C241 C242 1.524 . S
C241 C245 1.400 1_565 S
C242 H227 0.960 . S
C242 H228 0.960 . S
C242 H229 0.960 . S
C242 C241 1.524 . S
C243 C240 1.403 1_545 S
C243 C244 1.392 . S
C243 C247 1.495 . S
C244 C243 1.392 . S
C244 C245 1.385 . S
C244 C246 1.478 . S
C245 H239 0.930 . S
C245 C241 1.400 1_545 S
C245 C244 1.385 . S
C246 C244 1.478 . S
C246 C248 1.381 . S
C246 C252 1.383 . S
C247 C243 1.495 . S
C247 H253 0.959 . S
C247 H254 0.961 . S
C247 H255 0.960 . S
C248 C246 1.381 . S
C248 C249 1.394 . S
C248 H256 0.930 . S
C249 C248 1.394 . S
C249 C250 1.383 . S
C249 H257 0.929 . S
C250 C249 1.383 . S
C250 C251 1.377 . S
C251 H235 0.930 . S
C251 C250 1.377 . S
C251 C252 1.379 . S
C252 H236 0.931 . S
C252 C246 1.383 . S
C252 C251 1.379 . S
H253 C247 0.959 . S
H254 C247 0.961 . S
H255 C247 0.960 . S
H256 C248 0.930 . S
H257 C249 0.929 . S
H258 C266 0.929 . S
H259 C268 0.930 . S
H260 C270 0.930 . S
H261 C273 0.929 . S
H262 C276 0.930 . S
H263 C278 0.960 . S
H264 C278 0.960 . S
H265 C278 0.960 . S
C266 H258 0.929 . S
C266 C267 1.377 . S
C266 C268 1.384 . S
C267 C266 1.377 . S
C267 C273 1.390 . S
C268 H259 0.930 . S
C268 C266 1.384 . S
C268 C269 1.372 . S
C269 C268 1.372 . S
C269 C270 1.400 . S
C269 C274 1.490 . S
C270 H260 0.930 . S
C270 C269 1.400 . S
C270 C273 1.386 . S
H271 C287 0.930 . S
H272 C288 0.931 . S
C273 H261 0.929 . S
C273 C267 1.390 . S
C273 C270 1.386 . S
C274 C269 1.490 . S
C274 C276 1.395 . S
C274 C277 1.403 . S
H275 C281 0.930 . S
C276 H262 0.930 . S
C276 C274 1.395 . S
C276 C279 1.403 . S
C277 C274 1.403 . S
C277 C278 1.524 . S
C277 C281 1.400 . S
C278 H263 0.960 . S
C278 H264 0.960 . S
C278 H265 0.960 . S
C278 C277 1.524 . S
C279 C276 1.403 . S
C279 C280 1.392 . S
C279 C283 1.495 . S
C280 C279 1.392 . S
C280 C281 1.385 . S
C280 C282 1.478 . S
C281 H275 0.930 . S
C281 C277 1.400 . S
C281 C280 1.385 . S
C282 C280 1.478 . S
C282 C284 1.381 . S
C282 C288 1.383 . S
C283 C279 1.495 . S
C283 H289 0.959 . S
C283 H290 0.961 . S
C283 H291 0.960 . S
C284 C282 1.381 . S
C284 C285 1.394 . S
C284 H292 0.930 . S
C285 C284 1.394 . S
C285 C286 1.383 . S
C285 H293 0.929 . S
C286 C285 1.383 . S
C286 C287 1.377 . S
C287 H271 0.930 . S
C287 C286 1.377 . S
C287 C288 1.379 . S
C288 H272 0.931 . S
C288 C282 1.383 . S
C288 C287 1.379 . S
H289 C283 0.959 . S
H290 C283 0.961 . S
H291 C283 0.960 . S
H292 C284 0.930 . S
H293 C285 0.929 . S
H294 C302 0.929 . S
H295 C304 0.930 . S
H296 C306 0.930 . S
H297 C309 0.929 . S
H298 C312 0.930 . S
H299 C314 0.960 1_554 S
H300 C314 0.960 . S
H301 C314 0.960 . S
C302 H294 0.929 . S
C302 C303 1.377 . S
C302 C304 1.384 . S
C303 C302 1.377 . S
C303 C309 1.390 . S
C304 H295 0.930 . S
C304 C302 1.384 . S
C304 C305 1.372 . S
C305 C304 1.372 . S
C305 C306 1.400 . S
C305 C310 1.490 . S
C306 H296 0.930 . S
C306 C305 1.400 . S
C306 C309 1.386 . S
H307 C323 0.930 . S
H308 C324 0.931 . S
C309 H297 0.929 . S
C309 C303 1.390 . S
C309 C306 1.386 . S
C310 C305 1.490 . S
C310 C312 1.395 . S
C310 C313 1.403 . S
H311 C317 0.930 . S
C312 H298 0.930 . S
C312 C310 1.395 . S
C312 C315 1.403 1_556 S
C313 C310 1.403 . S
C313 C314 1.524 . S
C313 C317 1.400 1_556 S
C314 H299 0.960 1_556 S
C314 H300 0.960 . S
C314 H301 0.960 . S
C314 C313 1.524 . S
C315 C312 1.403 1_554 S
C315 C316 1.392 . S
C315 C319 1.495 . S
C316 C315 1.392 . S
C316 C317 1.385 . S
C316 C318 1.478 . S
C317 H311 0.930 . S
C317 C313 1.400 1_554 S
C317 C316 1.385 . S
C318 C316 1.478 . S
C318 C320 1.381 . S
C318 C324 1.383 . S
C319 C315 1.495 . S
C319 H325 0.959 1_554 S
C319 H326 0.961 . S
C319 H327 0.960 . S
C320 C318 1.381 . S
C320 C321 1.394 . S
C320 H328 0.930 . S
C321 C320 1.394 . S
C321 C322 1.383 . S
C321 H329 0.929 . S
C322 C321 1.383 . S
C322 C323 1.377 . S
C323 H307 0.930 . S
C323 C322 1.377 . S
C323 C324 1.379 . S
C324 H308 0.931 . S
C324 C318 1.383 . S
C324 C323 1.379 . S
H325 C319 0.959 1_556 S
H326 C319 0.961 . S
H327 C319 0.960 . S
H328 C320 0.930 . S
H329 C321 0.929 . S
H330 C338 0.929 . S
H331 C340 0.930 . S
H332 C342 0.930 . S
H333 C345 0.929 . S
H334 C348 0.930 . S
H335 C350 0.960 . S
H336 C350 0.960 . S
H337 C350 0.960 . S
C338 H330 0.929 . S
C338 C339 1.377 . S
C338 C340 1.384 . S
C339 C338 1.377 . S
C339 C345 1.390 . S
C340 H331 0.930 . S
C340 C338 1.384 . S
C340 C341 1.372 . S
C341 C340 1.372 . S
C341 C342 1.400 . S
C341 C346 1.490 . S
C342 H332 0.930 . S
C342 C341 1.400 . S
C342 C345 1.386 . S
H343 C359 0.930 . S
H344 C360 0.931 . S
C345 H333 0.929 . S
C345 C339 1.390 . S
C345 C342 1.386 . S
C346 C341 1.490 . S
C346 C348 1.395 . S
C346 C349 1.403 . S
H347 C353 0.930 . S
C348 H334 0.930 . S
C348 C346 1.395 . S
C348 C351 1.403 . S
C349 C346 1.403 . S
C349 C350 1.524 . S
C349 C353 1.400 . S
C350 H335 0.960 . S
C350 H336 0.960 . S
C350 H337 0.960 . S
C350 C349 1.524 . S
C351 C348 1.403 . S
C351 C352 1.392 . S
C351 C355 1.495 . S
C352 C351 1.392 . S
C352 C353 1.385 . S
C352 C354 1.478 . S
C353 H347 0.930 . S
C353 C349 1.400 . S
C353 C352 1.385 . S
C354 C352 1.478 . S
C354 C356 1.381 . S
C354 C360 1.383 . S
C355 C351 1.495 . S
C355 H361 0.959 . S
C355 H362 0.961 . S
C355 H363 0.960 . S
C356 C354 1.381 . S
C356 C357 1.394 . S
C356 H364 0.930 . S
C357 C356 1.394 . S
C357 C358 1.383 . S
C357 H365 0.929 . S
C358 C357 1.383 . S
C358 C359 1.377 . S
C359 H343 0.930 . S
C359 C358 1.377 . S
C359 C360 1.379 . S
C360 H344 0.931 . S
C360 C354 1.383 . S
C360 C359 1.379 . S
H361 C355 0.959 . S
H362 C355 0.961 . S
H363 C355 0.960 . S
H364 C356 0.930 . S
H365 C357 0.929 . S
H366 C374 0.929 . S
H367 C376 0.930 . S
H368 C378 0.930 . S
H369 C381 0.929 . S
H370 C384 0.930 . S
H371 C386 0.960 . S
H372 C386 0.960 . S
H373 C386 0.960 . S
C374 H366 0.929 . S
C374 C375 1.377 . S
C374 C376 1.384 . S
C375 C374 1.377 . S
C375 C381 1.390 . S
C376 H367 0.930 . S
C376 C374 1.384 . S
C376 C377 1.372 . S
C377 C376 1.372 . S
C377 C378 1.400 . S
C377 C382 1.490 . S
C378 H368 0.930 . S
C378 C377 1.400 . S
C378 C381 1.386 . S
H379 C395 0.930 . S
H380 C396 0.931 . S
C381 H369 0.929 . S
C381 C375 1.390 . S
C381 C378 1.386 . S
C382 C377 1.490 . S
C382 C384 1.395 . S
C382 C385 1.403 . S
H383 C389 0.930 . S
C384 H370 0.930 . S
C384 C382 1.395 . S
C384 C387 1.403 . S
C385 C382 1.403 . S
C385 C386 1.524 . S
C385 C389 1.400 . S
C386 H371 0.960 . S
C386 H372 0.960 . S
C386 H373 0.960 . S
C386 C385 1.524 . S
C387 C384 1.403 . S
C387 C388 1.392 . S
C387 C391 1.495 . S
C388 C387 1.392 . S
C388 C389 1.385 . S
C388 C390 1.478 . S
C389 H383 0.930 . S
C389 C385 1.400 . S
C389 C388 1.385 . S
C390 C388 1.478 . S
C390 C392 1.381 . S
C390 C396 1.383 . S
C391 C387 1.495 . S
C391 H397 0.959 . S
C391 H398 0.961 . S
C391 H399 0.960 . S
C392 C390 1.381 . S
C392 C393 1.394 . S
C392 H400 0.930 . S
C393 C392 1.394 . S
C393 C394 1.383 . S
C393 H401 0.929 . S
C394 C393 1.383 . S
C394 C395 1.377 . S
C395 H379 0.930 . S
C395 C394 1.377 . S
C395 C396 1.379 . S
C396 H380 0.931 . S
C396 C390 1.383 . S
C396 C395 1.379 . S
H397 C391 0.959 . S
H398 C391 0.961 . S
H399 C391 0.960 . S
H400 C392 0.930 . S
H401 C393 0.929 . S
H402 C410 0.929 . S
H403 C412 0.930 . S
H404 C414 0.930 . S
H405 C417 0.929 . S
H406 C420 0.930 . S
H407 C422 1.002 . S
H408 C422 0.960 . S
H409 C422 0.960 . S
C410 H402 0.929 . S
C410 C411 1.377 . S
C410 C412 1.384 . S
C411 C410 1.377 . S
C411 C417 1.390 . S
C412 H403 0.930 . S
C412 C410 1.384 . S
C412 C413 1.372 . S
C413 C412 1.372 . S
C413 C414 1.400 . S
C413 C418 1.490 . S
C414 H404 0.930 . S
C414 C413 1.400 . S
C414 C417 1.386 . S
H415 C431 0.930 . S
H416 C432 0.931 . S
C417 H405 0.929 . S
C417 C411 1.390 . S
C417 C414 1.386 . S
C418 C413 1.490 . S
C418 C420 1.395 . S
C418 C421 1.403 . S
H419 C425 0.930 . S
C420 H406 0.930 . S
C420 C418 1.395 . S
C420 C423 1.403 1_556 S
C421 C418 1.403 . S
C421 C422 1.524 . S
C421 C425 1.400 1_556 S
C422 H407 1.002 . S
C422 H408 0.960 . S
C422 H409 0.960 . S
C422 C421 1.524 . S
C423 C420 1.403 1_554 S
C423 C424 1.392 . S
C423 C427 1.495 . S
C424 C423 1.392 . S
C424 C425 1.385 . S
C424 C426 1.478 . S
C425 H419 0.930 . S
C425 C421 1.400 1_554 S
C425 C424 1.385 . S
C426 C424 1.478 . S
C426 C428 1.381 . S
C426 C432 1.383 . S
C427 C423 1.495 . S
C427 H433 0.959 . S
C427 H434 0.961 . S
C427 H435 0.960 . S
C428 C426 1.381 . S
C428 C429 1.394 . S
C428 H436 0.930 . S
C429 C428 1.394 . S
C429 C430 1.383 . S
C429 H437 0.929 . S
C430 C429 1.383 . S
C430 C431 1.377 . S
C431 H415 0.930 . S
C431 C430 1.377 . S
C431 C432 1.379 . S
C432 H416 0.931 . S
C432 C426 1.383 . S
C432 C431 1.379 . S
H433 C427 0.959 . S
H434 C427 0.961 . S
H435 C427 0.960 . S
H436 C428 0.930 . S
H437 C429 0.929 . S
H438 C446 0.929 . S
H439 C448 0.930 . S
H440 C450 0.930 . S
H441 C453 0.929 . S
H442 C456 0.930 . S
H443 C458 0.960 . S
H444 C458 0.960 . S
H445 C458 0.960 . S
C446 H438 0.929 . S
C446 C447 1.377 . S
C446 C448 1.384 . S
C447 C446 1.377 . S
C447 C453 1.390 . S
C448 H439 0.930 . S
C448 C446 1.384 . S
C448 C449 1.372 . S
C449 C448 1.372 . S
C449 C450 1.400 . S
C449 C454 1.490 . S
C450 H440 0.930 . S
C450 C449 1.400 . S
C450 C453 1.386 . S
H451 C467 0.930 . S
H452 C468 0.931 . S
C453 H441 0.929 . S
C453 C447 1.390 . S
C453 C450 1.386 . S
C454 C449 1.490 . S
C454 C456 1.395 . S
C454 C457 1.403 . S
H455 C461 0.930 . S
C456 H442 0.930 . S
C456 C454 1.395 . S
C456 C459 1.403 . S
C457 C454 1.403 . S
C457 C458 1.524 . S
C457 C461 1.400 . S
C458 H443 0.960 . S
C458 H444 0.960 . S
C458 H445 0.960 . S
C458 C457 1.524 . S
C459 C456 1.403 . S
C459 C460 1.392 . S
C459 C463 1.495 . S
C460 C459 1.392 . S
C460 C461 1.385 . S
C460 C462 1.478 . S
C461 H455 0.930 . S
C461 C457 1.400 . S
C461 C460 1.385 . S
C462 C460 1.478 . S
C462 C464 1.381 . S
C462 C468 1.383 . S
C463 C459 1.495 . S
C463 H469 0.959 . S
C463 H470 0.961 . S
C463 H471 0.960 . S
C464 C462 1.381 . S
C464 C465 1.394 . S
C464 H472 0.930 . S
C465 C464 1.394 . S
C465 C466 1.383 . S
C465 H473 0.929 . S
C466 C465 1.383 . S
C466 C467 1.377 . S
C467 H451 0.930 . S
C467 C466 1.377 . S
C467 C468 1.379 . S
C468 H452 0.931 . S
C468 C462 1.383 . S
C468 C467 1.379 . S
H469 C463 0.959 . S
H470 C463 0.961 . S
H471 C463 0.960 . S
H472 C464 0.930 . S
H473 C465 0.929 . S
H474 C482 0.929 . S
H475 C484 0.930 . S
H476 C486 0.930 . S
H477 C489 0.929 . S
H478 C492 0.930 . S
H479 C494 0.960 . S
H480 C494 0.960 . S
H481 C494 0.960 . S
C482 H474 0.929 . S
C482 C483 1.377 . S
C482 C484 1.384 . S
C483 C482 1.377 . S
C483 C489 1.390 . S
C484 H475 0.930 . S
C484 C482 1.384 . S
C484 C485 1.372 . S
C485 C484 1.372 . S
C485 C486 1.400 . S
C485 C490 1.490 . S
C486 H476 0.930 . S
C486 C485 1.400 . S
C486 C489 1.386 . S
H487 C503 0.930 . S
H488 C504 0.931 . S
C489 H477 0.929 . S
C489 C483 1.390 . S
C489 C486 1.386 . S
C490 C485 1.490 . S
C490 C492 1.395 . S
C490 C493 1.403 . S
H491 C497 0.930 . S
C492 H478 0.930 . S
C492 C490 1.395 . S
C492 C495 1.403 . S
C493 C490 1.403 . S
C493 C494 1.524 . S
C493 C497 1.400 . S
C494 H479 0.960 . S
C494 H480 0.960 . S
C494 H481 0.960 . S
C494 C493 1.524 . S
C495 C492 1.403 . S
C495 C496 1.392 . S
C495 C499 1.495 . S
C496 C495 1.392 . S
C496 C497 1.385 . S
C496 C498 1.478 . S
C497 H491 0.930 . S
C497 C493 1.400 . S
C497 C496 1.385 . S
C498 C496 1.478 . S
C498 C500 1.381 . S
C498 C504 1.383 . S
C499 C495 1.495 . S
C499 H505 0.959 . S
C499 H506 0.961 . S
C499 H507 0.960 . S
C500 C498 1.381 . S
C500 C501 1.394 . S
C500 H508 0.930 . S
C501 C500 1.394 . S
C501 C502 1.383 . S
C501 H509 0.929 . S
C502 C501 1.383 . S
C502 C503 1.377 . S
C503 H487 0.930 . S
C503 C502 1.377 . S
C503 C504 1.379 . S
C504 H488 0.931 . S
C504 C498 1.383 . S
C504 C503 1.379 . S
H505 C499 0.959 . S
H506 C499 0.961 . S
H507 C499 0.960 . S
H508 C500 0.930 . S
H509 C501 0.929 . S
C87 C5 1.949 . S
C106 C44 1.937 . S
C123 C18 1.946 . S
C142 C57 1.936 . S
C159 C31 1.946 . S
C178 C70 1.938 . S
C195 C23 2.044 . S
C214 C62 2.049 . S
C231 C75 2.040 . S
C250 C36 2.037 . S
C267 C49 2.042 . S
C286 C10 2.027 . S
C303 C29 1.640 . S
C322 C1 1.664 . S
C339 C42 1.635 . S
C358 C14 1.659 . S
C375 C27 1.648 . S
C394 C55 1.656 . S
C411 C68 1.636 . S
C430 C40 1.662 . S
C447 C53 1.654 . S
C466 C3 1.645 . S
C483 C66 1.647 . S
C502 C16 1.636 . S
