# Generated by pormake.
# Topology fee, (5)-cn, num edge types: 1
# Building blocks:
#     Node 0, Type 0, BuildingBlock: BEQFEK_clean_sbu_0, # of connection points: 5
#     Node 1, Type 0, BuildingBlock: BEQFEK_clean_sbu_0, # of connection points: 5
#     Node 2, Type 0, BuildingBlock: BEQFEK_clean_sbu_0, # of connection points: 5
#     Node 3, Type 0, BuildingBlock: BEQFEK_clean_sbu_0, # of connection points: 5
#     Edge 4, Type (0, 0), BuildingBlock: ZUJKAS_clean_linker_0, # of connection points: 2
#     Edge 5, Type (0, 0), BuildingBlock: ZUJKAS_clean_linker_0, # of connection points: 2
#     Edge 6, Type (0, 0), BuildingBlock: ZUJKAS_clean_linker_0, # of connection points: 2
#     Edge 7, Type (0, 0), BuildingBlock: ZUJKAS_clean_linker_0, # of connection points: 2
#     Edge 8, Type (0, 0), BuildingBlock: ZUJKAS_clean_linker_0, # of connection points: 2
#     Edge 9, Type (0, 0), BuildingBlock: ZUJKAS_clean_linker_0, # of connection points: 2
#     Edge 10, Type (0, 0), BuildingBlock: ZUJKAS_clean_linker_0, # of connection points: 2
#     Edge 11, Type (0, 0), BuildingBlock: ZUJKAS_clean_linker_0, # of connection points: 2
#     Edge 12, Type (0, 0), BuildingBlock: ZUJKAS_clean_linker_0, # of connection points: 2
#     Edge 13, Type (0, 0), BuildingBlock: ZUJKAS_clean_linker_0, # of connection points: 2
# Relax obj value: 0.040
# Max RMSD: 0.132
# Mean RMSD: 0.102
data_MOF--net-fee--node1-BEQFEK_clean_sbu_0--edge1-ZUJKAS_clean_linker_0
_symmetry_space_group_name_H-M    P1
_symmetry_Int_Tables_number       1
_symmetry_cell_setting            triclinic
loop_
_symmetry_equiv_pos_as_xyz
'x, y, z'
_cell_length_a     49.085151
_cell_length_b     48.947393
_cell_length_c     23.973462
_cell_angle_alpha  89.863792
_cell_angle_beta   88.05433
_cell_angle_gamma 96.02348
loop_
_atom_site_label
_atom_site_type_symbol
_atom_site_fract_x
_atom_site_fract_y
_atom_site_fract_z
_atom_type_partial_charge
Co0 Co 0.22165 0.49078 0.1518 0.0
Co1 Co 0.21915 0.49096 0.02144 0.0
C2 C 0.25366 0.5346 0.07867 0.0
O3 O 0.2462 0.52333 0.12547 0.0
O4 O 0.24473 0.52452 0.03296 0.0
C5 C 0.21357 0.51468 0.25942 0.0
O6 O 0.2082 0.53618 0.23043 0.0
C7 C 0.21551 0.50269 0.90042 0.0
C8 C 0.1919 0.46424 0.87379 0.0
C9 C 0.20392 0.48946 0.85441 0.0
N10 N 0.21038 0.48599 0.94504 0.0
N11 N 0.19648 0.46299 0.92864 0.0
C12 C 0.22968 0.53122 0.90296 0.0
H13 H 0.25207 0.53014 0.90543 0.0
H14 H 0.22266 0.54157 0.94115 0.0
H15 H 0.22568 0.54346 0.86567 0.0
C16 C 0.16124 0.49005 0.1419 0.0
N17 N 0.18691 0.49053 0.1198 0.0
N18 N 0.18612 0.49219 0.06508 0.0
C19 C 0.15999 0.49366 0.05077 0.0
C20 C 0.14332 0.49205 0.09886 0.0
C21 C 0.15386 0.48629 0.2027 0.0
H22 H 0.1681 0.47338 0.22258 0.0
H23 H 0.15549 0.50666 0.22318 0.0
H24 H 0.13251 0.47656 0.20901 0.0
O25 O 0.23852 0.45701 0.13289 0.0
O26 O 0.23765 0.4581 0.04058 0.0
H27 H 0.148 0.47885 0.97053 0.0
H28 H 0.13194 0.50852 0.99306 0.0
C29 C 0.15134 0.49872 0.99268 0.0
H30 H 0.16746 0.51227 0.9697 0.0
H31 H 0.1898 0.44655 0.9552 0.0
O32 O 0.21908 0.49307 0.23404 0.0
C33 C 0.24389 0.44676 0.08558 0.0
Co34 Co 0.46816 0.21227 0.13132 0.0
Co35 Co 0.47297 0.21479 0.99965 0.0
C36 C 0.4275 0.23852 0.0627 0.0
O37 O 0.43667 0.23156 0.10916 0.0
O38 O 0.43932 0.2331 0.01647 0.0
C39 C 0.44215 0.20296 0.24085 0.0
O40 O 0.41943 0.20516 0.21457 0.0
C41 C 0.46175 0.20608 0.87892 0.0
C42 C 0.5035 0.21641 0.84233 0.0
C43 C 0.47663 0.20884 0.82837 0.0
N44 N 0.47916 0.21181 0.92061 0.0
N45 N 0.50407 0.21774 0.89825 0.0
C46 C 0.4314 0.19977 0.88735 0.0
H47 H 0.42465 0.20546 0.92992 0.0
H48 H 0.42584 0.17739 0.88214 0.0
H49 H 0.42056 0.21074 0.85571 0.0
C50 C 0.47069 0.15323 0.10829 0.0
N51 N 0.46951 0.17921 0.09079 0.0
N52 N 0.47158 0.18006 0.03589 0.0
C53 C 0.47435 0.15459 0.0167 0.0
C54 C 0.47388 0.13674 0.06199 0.0
C55 C 0.46863 0.14458 0.16834 0.0
H56 H 0.48653 0.15459 0.19031 0.0
H57 H 0.44986 0.15159 0.18811 0.0
H58 H 0.46773 0.12197 0.17326 0.0
O59 O 0.50252 0.2369 0.11771 0.0
O60 O 0.50492 0.23892 0.02524 0.0
H61 H 0.49734 0.16261 0.93994 0.0
H62 H 0.4854 0.12686 0.95107 0.0
C63 C 0.48008 0.14816 0.95669 0.0
H64 H 0.46176 0.15104 0.93241 0.0
H65 H 0.52146 0.22323 0.9212 0.0
O66 O 0.46486 0.20486 0.21318 0.0
C67 C 0.51451 0.24589 0.07236 0.0
Co68 Co 0.77671 0.50183 0.02831 0.0
Co69 Co 0.77278 0.49714 0.15903 0.0
C70 C 0.75222 0.54418 0.10084 0.0
O71 O 0.75874 0.53422 0.05377 0.0
O72 O 0.75682 0.5323 0.14649 0.0
C73 C 0.7837 0.52714 0.91902 0.0
O74 O 0.77729 0.54929 0.945 0.0
C75 C 0.78021 0.507 0.27973 0.0
C76 C 0.77554 0.46423 0.31131 0.0
C77 C 0.78061 0.49129 0.32811 0.0
N78 N 0.77521 0.48986 0.23663 0.0
N79 N 0.77227 0.46438 0.25593 0.0
C80 C 0.78623 0.53745 0.2734 0.0
H81 H 0.79409 0.54279 0.23036 0.0
H82 H 0.8014 0.54568 0.30404 0.0
H83 H 0.76701 0.54716 0.28092 0.0
C84 C 0.83559 0.49977 0.04974 0.0
N85 N 0.80923 0.49942 0.06749 0.0
N86 N 0.80773 0.49744 0.12229 0.0
C87 C 0.83314 0.49626 0.14119 0.0
C88 C 0.85165 0.4978 0.09588 0.0
C89 C 0.8451 0.50363 0.98999 0.0
H90 H 0.83694 0.52207 0.97277 0.0
H91 H 0.86777 0.50623 0.98519 0.0
H92 H 0.83676 0.48562 0.96553 0.0
O93 O 0.75063 0.46829 0.03963 0.0
O94 O 0.74737 0.46647 0.13195 0.0
H95 H 0.86089 0.48828 0.20656 0.0
H96 H 0.8353 0.51101 0.22493 0.0
C97 C 0.83933 0.49234 0.20124 0.0
H98 H 0.82573 0.47473 0.21887 0.0
H99 H 0.76838 0.44703 0.23106 0.0
O100 O 0.78503 0.50517 0.94678 0.0
C101 C 0.7405 0.45695 0.08459 0.0
Co102 Co 0.52491 0.77757 0.14166 0.0
Co103 Co 0.52611 0.77443 0.01023 0.0
C104 C 0.5686 0.75095 0.07458 0.0
O105 O 0.55689 0.75791 0.11981 0.0
O106 O 0.55935 0.75637 0.02719 0.0
C107 C 0.55019 0.7905 0.24562 0.0
O108 O 0.57281 0.79187 0.21439 0.0
C109 C 0.53826 0.77992 0.88679 0.0
C110 C 0.49579 0.77716 0.85782 0.0
C111 C 0.52291 0.77985 0.83902 0.0
N112 N 0.52085 0.77746 0.93169 0.0
N113 N 0.49556 0.77594 0.9138 0.0
C114 C 0.56876 0.78106 0.88957 0.0
H115 H 0.57467 0.77207 0.92922 0.0
H116 H 0.57769 0.80284 0.88755 0.0
H117 H 0.57734 0.77005 0.8537 0.0
C118 C 0.52305 0.83653 0.11568 0.0
N119 N 0.52517 0.81044 0.09984 0.0
N120 N 0.52644 0.80932 0.04496 0.0
C121 C 0.52544 0.83477 0.02412 0.0
C122 C 0.52316 0.85287 0.0682 0.0
C123 C 0.51857 0.84497 0.17498 0.0
H124 H 0.50445 0.82909 0.19727 0.0
H125 H 0.53846 0.84669 0.19603 0.0
H126 H 0.5099 0.86498 0.17767 0.0
O127 O 0.49079 0.75323 0.1297 0.0
O128 O 0.49341 0.7503 0.03746 0.0
H129 H 0.50733 0.83386 0.94427 0.0
H130 H 0.53099 0.86406 0.95571 0.0
C131 C 0.52696 0.8416 0.96315 0.0
H132 H 0.54359 0.8313 0.94244 0.0
H133 H 0.47803 0.77379 0.93995 0.0
O134 O 0.52721 0.78524 0.22285 0.0
C135 C 0.48127 0.74378 0.08407 0.0
H136 H 0.16114 0.48597 0.78572 0.0
H137 H 0.16239 0.49535 0.68531 0.0
H138 H 0.24907 0.52122 0.68997 0.0
H139 H 0.24763 0.51274 0.79101 0.0
H140 H 0.2238 0.55272 0.6183 0.0
H141 H 0.19353 0.44238 0.57875 0.0
H142 H 0.16876 0.45768 0.62181 0.0
H143 H 0.20258 0.45513 0.64684 0.0
C144 C 0.18034 0.49408 0.76534 0.0
C145 C 0.20428 0.49868 0.79582 0.0
C146 C 0.18108 0.49926 0.70803 0.0
C147 C 0.20596 0.5083 0.67995 0.0
C148 C 0.22968 0.51413 0.71081 0.0
H149 H 0.23699 0.48073 0.3292 0.0
H150 H 0.23638 0.48141 0.43096 0.0
C151 C 0.22884 0.50939 0.76845 0.0
C152 C 0.20749 0.51014 0.61817 0.0
H153 H 0.19457 0.47237 0.50081 0.0
C154 C 0.2175 0.53516 0.59249 0.0
C155 C 0.19976 0.48704 0.58462 0.0
C156 C 0.19083 0.45898 0.60936 0.0
C157 C 0.21968 0.53781 0.53407 0.0
C158 C 0.21089 0.51497 0.50059 0.0
C159 C 0.20107 0.48994 0.52643 0.0
C160 C 0.21245 0.51603 0.43868 0.0
C161 C 0.23205 0.56478 0.50897 0.0
C162 C 0.19921 0.53528 0.40899 0.0
C163 C 0.19988 0.53519 0.35058 0.0
C164 C 0.21328 0.51544 0.321 0.0
C165 C 0.22637 0.49612 0.35082 0.0
C166 C 0.22607 0.49651 0.409 0.0
H167 H 0.24494 0.577 0.53913 0.0
H168 H 0.2448 0.56151 0.47091 0.0
H169 H 0.21535 0.57707 0.49726 0.0
H170 H 0.18791 0.55005 0.4309 0.0
H171 H 0.18942 0.55017 0.32867 0.0
H172 H 0.49516 0.24102 0.74035 0.0
H173 H 0.48219 0.23646 0.64314 0.0
H174 H 0.42429 0.16672 0.68723 0.0
H175 H 0.43748 0.17097 0.78499 0.0
H176 H 0.46115 0.15894 0.59324 0.0
H177 H 0.40989 0.25392 0.57241 0.0
H178 H 0.44276 0.25934 0.60365 0.0
H179 H 0.41515 0.23848 0.63921 0.0
C180 C 0.47946 0.22486 0.72952 0.0
C181 C 0.46701 0.20664 0.77051 0.0
C182 C 0.47196 0.22239 0.67402 0.0
C183 C 0.45197 0.20155 0.65819 0.0
C184 C 0.43951 0.18318 0.69884 0.0
H185 H 0.39762 0.20092 0.31332 0.0
H186 H 0.39707 0.1971 0.4152 0.0
C187 C 0.44686 0.1858 0.75473 0.0
C188 C 0.44544 0.19834 0.59852 0.0
H189 H 0.42438 0.23338 0.48737 0.0
C190 C 0.45271 0.17499 0.57015 0.0
C191 C 0.43416 0.21916 0.56867 0.0
C192 C 0.42477 0.24404 0.59757 0.0
C193 C 0.45029 0.17258 0.5121 0.0
C194 C 0.44065 0.19424 0.48172 0.0
C195 C 0.43204 0.21691 0.51059 0.0
C196 C 0.44066 0.19454 0.41982 0.0
C197 C 0.45836 0.14701 0.48374 0.0
C198 C 0.46537 0.19445 0.38861 0.0
C199 C 0.46578 0.19665 0.33043 0.0
C200 C 0.44148 0.19919 0.30228 0.0
C201 C 0.4167 0.19897 0.33363 0.0
C202 C 0.41633 0.19679 0.39187 0.0
H203 H 0.45719 0.12939 0.51334 0.0
H204 H 0.44504 0.14124 0.4482 0.0
H205 H 0.47985 0.15087 0.4674 0.0
H206 H 0.48449 0.19335 0.40935 0.0
H207 H 0.48523 0.19682 0.30764 0.0
H208 H 0.80231 0.48688 0.85379 0.0
H209 H 0.80543 0.48541 0.75193 0.0
H210 H 0.77627 0.56538 0.74325 0.0
H211 H 0.77358 0.56728 0.84519 0.0
H212 H 0.76197 0.4867 0.68393 0.0
H213 H 0.84107 0.57345 0.63186 0.0
H214 H 0.83597 0.55908 0.70133 0.0
H215 H 0.8132 0.58245 0.6762 0.0
C216 C 0.79688 0.50432 0.83026 0.0
C217 C 0.78763 0.52717 0.85757 0.0
C218 C 0.7987 0.50346 0.77206 0.0
C219 C 0.79136 0.5254 0.74002 0.0
C220 C 0.78261 0.54848 0.76713 0.0
H221 H 0.76434 0.5367 0.38265 0.0
H222 H 0.76819 0.54713 0.48223 0.0
C223 C 0.78093 0.54944 0.82543 0.0
C224 C 0.7908 0.52303 0.67846 0.0
H225 H 0.8171 0.55238 0.55598 0.0
C226 C 0.77411 0.50102 0.65601 0.0
C227 C 0.80646 0.54189 0.64213 0.0
C228 C 0.82538 0.56543 0.66397 0.0
C229 C 0.77268 0.49729 0.59825 0.0
C230 C 0.7886 0.51588 0.56196 0.0
C231 C 0.80495 0.53819 0.58413 0.0
C232 C 0.78911 0.51163 0.50095 0.0
C233 C 0.75402 0.47351 0.57638 0.0
C234 C 0.8003 0.4887 0.47856 0.0
C235 C 0.79832 0.48282 0.42189 0.0
C236 C 0.78534 0.49991 0.38639 0.0
C237 C 0.77505 0.52351 0.40852 0.0
C238 C 0.77703 0.52938 0.46547 0.0
H239 H 0.73861 0.46505 0.60863 0.0
H240 H 0.74312 0.47986 0.53944 0.0
H241 H 0.76648 0.45684 0.56332 0.0
H242 H 0.80993 0.47492 0.50529 0.0
H243 H 0.80652 0.46454 0.40601 0.0
H244 H 0.56652 0.81209 0.78946 0.0
H245 H 0.57816 0.81652 0.68913 0.0
H246 H 0.51038 0.75636 0.65413 0.0
H247 H 0.49884 0.75164 0.75386 0.0
H248 H 0.56346 0.75024 0.5944 0.0
H249 H 0.52717 0.85406 0.57878 0.0
H250 H 0.55089 0.84829 0.63223 0.0
H251 H 0.51682 0.83101 0.63637 0.0
C252 C 0.55453 0.79937 0.76047 0.0
C253 C 0.53195 0.78129 0.77949 0.0
C254 C 0.56101 0.80214 0.70321 0.0
C255 C 0.54502 0.78685 0.6644 0.0
C256 C 0.52296 0.76832 0.68348 0.0
H257 H 0.50754 0.79259 0.32139 0.0
H258 H 0.50954 0.7938 0.42319 0.0
C259 C 0.51637 0.76571 0.74041 0.0
C260 C 0.55031 0.79059 0.60359 0.0
H261 H 0.54093 0.83365 0.4952 0.0
C262 C 0.55898 0.76861 0.57264 0.0
C263 C 0.54408 0.81449 0.57559 0.0
C264 C 0.53407 0.83836 0.6071 0.0
C265 C 0.56102 0.76967 0.51411 0.0
C266 C 0.5543 0.79337 0.48602 0.0
C267 C 0.54619 0.81559 0.51703 0.0
C268 C 0.55366 0.79457 0.42439 0.0
C269 C 0.56922 0.74501 0.48255 0.0
C270 C 0.57788 0.79517 0.39146 0.0
C271 C 0.57683 0.79454 0.33323 0.0
C272 C 0.5515 0.79323 0.30701 0.0
C273 C 0.52735 0.79343 0.34023 0.0
C274 C 0.52845 0.7942 0.39839 0.0
H275 H 0.56968 0.72681 0.51014 0.0
H276 H 0.55482 0.73955 0.44862 0.0
H277 H 0.58998 0.75003 0.46306 0.0
H278 H 0.59755 0.79575 0.41084 0.0
H279 H 0.59581 0.7945 0.30888 0.0
H280 H 0.88314 0.46429 0.0379 0.0
H281 H 0.93295 0.46341 0.04102 0.0
H282 H 0.93729 0.52947 0.16031 0.0
H283 H 0.88757 0.53087 0.15598 0.0
H284 H 0.9772 0.53696 0.07515 0.0
H285 H 0.97405 0.43278 0.16854 0.0
H286 H 0.95518 0.4339 0.10587 0.0
H287 H 0.94428 0.45148 0.16713 0.0
C288 C 0.89483 0.47869 0.06447 0.0
C289 C 0.88169 0.49756 0.0969 0.0
C290 C 0.92316 0.47799 0.06669 0.0
C291 C 0.9387 0.49603 0.10171 0.0
C292 C 0.92562 0.51523 0.13339 0.0
H293 H 0.11353 0.52323 0.1669 0.0
H294 H 0.0636 0.5244 0.17027 0.0
C295 C 0.8973 0.51596 0.13106 0.0
C296 C 0.9687 0.49524 0.10455 0.0
H297 H 0.01767 0.45344 0.13552 0.0
C298 C 0.98607 0.51878 0.08872 0.0
C299 C 0.98016 0.47149 0.1224 0.0
C300 C 0.96248 0.44605 0.14247 0.0
C301 C 0.01468 0.51899 0.08887 0.0
C302 C 0.02612 0.49514 0.10604 0.0
C303 C 0.00877 0.47167 0.12234 0.0
C304 C 0.0561 0.49389 0.10584 0.0
C305 C 0.03246 0.54445 0.06924 0.0
C306 C 0.06821 0.47582 0.06965 0.0
C307 C 0.09656 0.47503 0.06797 0.0
C308 C 0.11323 0.49216 0.10269 0.0
C309 C 0.10105 0.50976 0.13989 0.0
C310 C 0.07265 0.51061 0.14147 0.0
H311 H 0.02062 0.55881 0.04648 0.0
H312 H 0.04141 0.55539 0.1059 0.0
H313 H 0.04962 0.53898 0.04149 0.0
H314 H 0.05573 0.46263 0.04213 0.0
H315 H 0.10549 0.46103 0.03946 0.0
H316 H 0.48559 0.87626 0.00826 0.0
H317 H 0.47799 0.92494 0.00454 0.0
H318 H 0.54284 0.94402 0.1197 0.0
H319 H 0.55088 0.89537 0.12251 0.0
H320 H 0.46392 0.958 0.09514 0.0
H321 H 0.56254 -0.00095 0.99063 0.0
H322 H 0.55021 0.96297 0.9908 0.0
H323 H 0.56585 0.97831 0.05147 0.0
C324 C 0.49846 0.89096 0.03209 0.0
C325 C 0.51897 0.88227 0.06527 0.0
C326 C 0.49401 0.91865 0.0302 0.0
C327 C 0.5101 0.93808 0.06124 0.0
C328 C 0.53054 0.9294 0.09464 0.0
H329 H 0.5126 0.11281 0.11731 0.0
H330 H 0.52061 0.06419 0.1172 0.0
C331 C 0.53498 0.90168 0.09657 0.0
C332 C 0.50482 0.96728 0.06012 0.0
H333 H 0.53406 0.03176 0.02595 0.0
C334 C 0.47917 0.97415 0.07975 0.0
C335 C 0.52482 0.98822 0.04009 0.0
C336 C 0.55233 0.98185 0.01657 0.0
C337 C 0.47314 0.00154 0.08093 0.0
C338 C 0.49316 0.02249 0.06099 0.0
C339 C 0.51878 0.01561 0.0412 0.0
C340 C 0.48805 0.05176 0.06103 0.0
C341 C 0.44567 0.00789 0.10479 0.0
C342 C 0.46729 0.06085 0.02902 0.0
C343 C 0.46261 0.08853 0.02934 0.0
C344 C 0.47872 0.10748 0.06145 0.0
C345 C 0.49971 0.09844 0.09283 0.0
C346 C 0.50437 0.07079 0.09255 0.0
H347 H 0.43546 0.99061 0.13052 0.0
H348 H 0.44788 0.02666 0.13088 0.0
H349 H 0.43211 0.0116 0.07008 0.0
H350 H 0.45481 0.04656 0.0036 0.0
H351 H 0.44637 0.09515 0.00474 0.0
H352 H 0.39759 0.25401 0.15327 0.0
H353 H 0.36209 0.28536 0.15511 0.0
H354 H 0.36845 0.2923 0.97571 0.0
H355 H 0.40394 0.2607 0.97319 0.0
H356 H 0.37189 0.33959 0.11397 0.0
H357 H 0.28483 0.28125 0.0095 0.0
H358 H 0.31251 0.26479 0.03836 0.0
H359 H 0.31743 0.28253 0.97255 0.0
C360 C 0.3912 0.26181 0.11402 0.0
C361 C 0.40378 0.25494 0.06306 0.0
C362 C 0.37087 0.27973 0.11522 0.0
C363 C 0.36253 0.29099 0.06558 0.0
C364 C 0.37429 0.28347 0.01444 0.0
H365 H 0.26259 0.4215 0.99208 0.0
H366 H 0.29029 0.3828 0.98779 0.0
C367 C 0.39468 0.26552 0.01314 0.0
C368 C 0.3435 0.31253 0.06801 0.0
H369 H 0.28086 0.32834 0.02813 0.0
C370 C 0.3519 0.33708 0.09553 0.0
C371 C 0.3176 0.30922 0.04344 0.0
C372 C 0.30736 0.28296 0.01463 0.0
C373 C 0.33524 0.35862 0.09862 0.0
C374 C 0.30919 0.35527 0.07455 0.0
C375 C 0.3008 0.33076 0.04676 0.0
C376 C 0.29066 0.37727 0.07729 0.0
C377 C 0.34599 0.38504 0.12642 0.0
C378 C 0.2811 0.38648 0.12901 0.0
C379 C 0.26541 0.40868 0.13171 0.0
C380 C 0.25876 0.42194 0.08262 0.0
C381 C 0.26743 0.41188 0.03073 0.0
C382 C 0.28322 0.38973 0.02814 0.0
H383 H 0.36863 0.38684 0.12969 0.0
H384 H 0.3404 0.40317 0.10312 0.0
H385 H 0.33682 0.38556 0.1693 0.0
H386 H 0.28616 0.37675 0.1674 0.0
H387 H 0.25886 0.4157 0.17233 0.0
H388 H 0.71726 0.43248 0.9921 0.0
H389 H 0.68036 0.39469 0.99017 0.0
H390 H 0.67968 0.38912 0.16971 0.0
H391 H 0.71624 0.42685 0.17232 0.0
H392 H 0.67754 0.33964 0.03496 0.0
H393 H 0.5999 0.40068 0.13378 0.0
H394 H 0.63208 0.41631 0.10393 0.0
H395 H 0.63084 0.40021 0.17154 0.0
C396 C 0.70936 0.42314 0.03117 0.0
C397 C 0.71954 0.4329 0.08239 0.0
C398 C 0.6883 0.40155 0.02996 0.0
C399 C 0.67704 0.38949 0.07986 0.0
C400 C 0.68776 0.39854 0.13083 0.0
H401 H 0.54089 0.26691 0.16441 0.0
H402 H 0.58161 0.30031 0.16619 0.0
C403 C 0.70875 0.42006 0.13214 0.0
C404 C 0.65373 0.36775 0.07895 0.0
H405 H 0.58668 0.35324 0.12138 0.0
C406 C 0.65763 0.34259 0.05364 0.0
C407 C 0.62784 0.37173 0.10349 0.0
C408 C 0.62222 0.39875 0.12933 0.0
C409 C 0.63637 0.32103 0.05307 0.0
C410 C 0.61047 0.32502 0.07762 0.0
C411 C 0.60661 0.35021 0.10289 0.0
C412 C 0.58681 0.30365 0.07636 0.0
C413 C 0.64195 0.29402 0.02716 0.0
C414 C 0.57621 0.29458 0.02527 0.0
C415 C 0.55299 0.27552 0.02406 0.0
C416 C 0.53977 0.26528 0.07401 0.0
C417 C 0.55056 0.27432 0.12519 0.0
C418 C 0.57382 0.2934 0.12631 0.0
H419 H 0.66425 0.29179 0.02426 0.0
H420 H 0.63141 0.27644 0.05153 0.0
H421 H 0.63413 0.293 0.98426 0.0
H422 H 0.58556 0.30268 0.98627 0.0
H423 H 0.54521 0.26913 0.98387 0.0
H424 H 0.59412 0.73708 0.16846 0.0
H425 H 0.63016 0.70671 0.17578 0.0
H426 H 0.63292 0.69731 0.99697 0.0
H427 H 0.59685 0.72793 0.98895 0.0
H428 H 0.62428 0.65203 0.1398 0.0
H429 H 0.7145 0.7114 0.03551 0.0
H430 H 0.6848 0.72722 0.06057 0.0
H431 H 0.68388 0.70866 0.99597 0.0
C432 C 0.60259 0.72891 0.13047 0.0
C433 C 0.59244 0.73485 0.07805 0.0
C434 C 0.62324 0.71156 0.13483 0.0
C435 C 0.63434 0.69995 0.08695 0.0
C436 C 0.62493 0.70645 0.03438 0.0
H437 H 0.73591 0.57232 0.01152 0.0
H438 H 0.70907 0.61143 0.01241 0.0
C439 C 0.60421 0.72384 0.02991 0.0
C440 C 0.65391 0.67915 0.09263 0.0
H441 H 0.71833 0.66421 0.05474 0.0
C442 C 0.64495 0.65478 0.12174 0.0
C443 C 0.68079 0.68283 0.06885 0.0
C444 C 0.69174 0.70903 0.03886 0.0
C445 C 0.66185 0.63354 0.1262 0.0
C446 C 0.68867 0.63705 0.10191 0.0
C447 C 0.6978 0.66164 0.07353 0.0
C448 C 0.70682 0.61471 0.10236 0.0
C449 C 0.65042 0.60711 0.15493 0.0
C450 C 0.71504 0.60396 0.15273 0.0
C451 C 0.73033 0.58137 0.15248 0.0
C452 C 0.73784 0.56934 0.10176 0.0
C453 C 0.73045 0.58095 0.0514 0.0
C454 C 0.71513 0.60339 0.05175 0.0
H455 H 0.62772 0.60543 0.15985 0.0
H456 H 0.65627 0.58902 0.13125 0.0
H457 H 0.65891 0.60636 0.19715 0.0
H458 H 0.70929 0.61277 0.19225 0.0
H459 H 0.73589 0.57311 0.19198 0.0
H460 H 0.44958 0.7237 0.17469 0.0
H461 H 0.40858 0.69059 0.17453 0.0
H462 H 0.41463 0.68694 0.99491 0.0
H463 H 0.45528 0.72022 0.99439 0.0
H464 H 0.36104 0.6908 0.03753 0.0
H465 H 0.41024 0.60834 0.14267 0.0
H466 H 0.41194 0.64038 0.1794 0.0
H467 H 0.42968 0.63854 0.11292 0.0
C468 C 0.44217 0.71592 0.13513 0.0
C469 C 0.45589 0.72447 0.0846 0.0
C470 C 0.4188 0.69692 0.13515 0.0
C471 C 0.40886 0.68603 0.08474 0.0
C472 C 0.42206 0.69502 0.03425 0.0
H473 H 0.27979 0.56148 0.9879 0.0
H474 H 0.31616 0.59976 0.98867 0.0
C475 C 0.44537 0.714 0.03413 0.0
C476 C 0.38494 0.66492 0.0844 0.0
H477 H 0.36294 0.59944 0.12647 0.0
C478 C 0.3614 0.6708 0.05693 0.0
C479 C 0.38559 0.63885 0.10952 0.0
C480 C 0.41078 0.63095 0.1374 0.0
C481 C 0.33827 0.65139 0.0547 0.0
C482 C 0.33895 0.62533 0.07987 0.0
C483 C 0.36248 0.61949 0.10735 0.0
C484 C 0.31551 0.60368 0.07861 0.0
C485 C 0.31316 0.65907 0.02635 0.0
C486 C 0.30322 0.59314 0.12887 0.0
C487 C 0.28264 0.57121 0.12862 0.0
C488 C 0.27399 0.55924 0.07803 0.0
C489 C 0.2859 0.57026 0.02756 0.0
C490 C 0.30659 0.59224 0.0279 0.0
H491 H 0.31343 0.68168 0.02163 0.0
H492 H 0.31244 0.6499 0.98407 0.0
H493 H 0.29417 0.65105 0.05012 0.0
H494 H 0.30986 0.60166 0.16844 0.0
H495 H 0.27388 0.56336 0.1683 0.0
loop_
_geom_bond_atom_site_label_1
_geom_bond_atom_site_label_2
_geom_bond_distance
_geom_bond_site_symmetry_2
_ccdc_geom_bond_type
Co0 O3 1.970 . S
Co0 N17 1.989 . S
Co0 O25 1.967 . S
Co0 O32 1.920 . S
Co1 O4 1.966 . S
Co1 N10 2.022 1_554 S
Co1 N18 1.993 . S
Co1 O26 1.941 . S
C2 O3 1.258 . S
C2 O4 1.263 . S
O3 Co0 1.970 . S
O3 C2 1.258 . S
O4 Co1 1.966 . S
O4 C2 1.263 . S
C5 O6 1.235 . S
C5 O32 1.289 . S
O6 C5 1.235 . S
C7 C9 1.400 . S
C7 N10 1.351 . S
C7 C12 1.501 . S
C8 C9 1.387 . S
C8 N11 1.341 . S
C9 C7 1.400 . S
C9 C8 1.387 . S
N10 Co1 2.022 1_556 S
N10 C7 1.351 . S
N10 N11 1.365 . S
N11 C8 1.341 . S
N11 N10 1.365 . S
N11 H31 0.862 . S
C12 C7 1.501 . S
C12 H13 0.961 . S
C12 H14 0.961 . S
C12 H15 0.960 . S
H13 C12 0.961 . S
H14 C12 0.961 . S
H15 C12 0.960 . S
C16 N17 1.342 . S
C16 C20 1.401 . S
C16 C21 1.499 . S
N17 Co0 1.989 . S
N17 C16 1.342 . S
N17 N18 1.388 . S
N18 Co1 1.993 . S
N18 N17 1.388 . S
N18 C19 1.346 . S
C19 N18 1.346 . S
C19 C20 1.396 . S
C19 C29 1.510 1_554 S
C20 C16 1.401 . S
C20 C19 1.396 . S
C21 C16 1.499 . S
C21 H22 0.959 . S
C21 H23 0.960 . S
C21 H24 0.961 . S
H22 C21 0.959 . S
H23 C21 0.960 . S
H24 C21 0.961 . S
O25 Co0 1.967 . S
O25 C33 1.258 . S
O26 Co1 1.941 . S
O26 C33 1.266 . S
H27 C29 0.959 . S
H28 C29 0.961 . S
C29 C19 1.510 1_556 S
C29 H27 0.959 . S
C29 H28 0.961 . S
C29 H30 0.960 . S
H30 C29 0.960 . S
H31 N11 0.862 . S
O32 Co0 1.920 . S
O32 C5 1.289 . S
C33 O25 1.258 . S
C33 O26 1.266 . S
Co34 O37 1.970 . S
Co34 N51 1.989 . S
Co34 O59 1.967 . S
Co34 O66 1.920 . S
Co35 O38 1.966 . S
Co35 N44 2.022 1_554 S
Co35 N52 1.993 . S
Co35 O60 1.941 . S
C36 O37 1.258 . S
C36 O38 1.263 . S
O37 Co34 1.970 . S
O37 C36 1.258 . S
O38 Co35 1.966 . S
O38 C36 1.263 . S
C39 O40 1.235 . S
C39 O66 1.289 . S
O40 C39 1.235 . S
C41 C43 1.400 . S
C41 N44 1.351 . S
C41 C46 1.501 . S
C42 C43 1.387 . S
C42 N45 1.341 . S
C43 C41 1.400 . S
C43 C42 1.387 . S
N44 Co35 2.022 1_556 S
N44 C41 1.351 . S
N44 N45 1.365 . S
N45 C42 1.341 . S
N45 N44 1.365 . S
N45 H65 0.862 . S
C46 C41 1.501 . S
C46 H47 0.961 . S
C46 H48 0.961 . S
C46 H49 0.960 . S
H47 C46 0.961 . S
H48 C46 0.961 . S
H49 C46 0.960 . S
C50 N51 1.342 . S
C50 C54 1.401 . S
C50 C55 1.499 . S
N51 Co34 1.989 . S
N51 C50 1.342 . S
N51 N52 1.388 . S
N52 Co35 1.993 . S
N52 N51 1.388 . S
N52 C53 1.346 . S
C53 N52 1.346 . S
C53 C54 1.396 . S
C53 C63 1.510 1_554 S
C54 C50 1.401 . S
C54 C53 1.396 . S
C55 C50 1.499 . S
C55 H56 0.959 . S
C55 H57 0.960 . S
C55 H58 0.961 . S
H56 C55 0.959 . S
H57 C55 0.960 . S
H58 C55 0.961 . S
O59 Co34 1.967 . S
O59 C67 1.258 . S
O60 Co35 1.941 . S
O60 C67 1.266 . S
H61 C63 0.959 . S
H62 C63 0.961 . S
C63 C53 1.510 1_556 S
C63 H61 0.959 . S
C63 H62 0.961 . S
C63 H64 0.960 . S
H64 C63 0.960 . S
H65 N45 0.862 . S
O66 Co34 1.920 . S
O66 C39 1.289 . S
C67 O59 1.258 . S
C67 O60 1.266 . S
Co68 O71 1.970 . S
Co68 N85 1.989 . S
Co68 O93 1.967 . S
Co68 O100 1.920 1_554 S
Co69 O72 1.966 . S
Co69 N78 2.022 . S
Co69 N86 1.993 . S
Co69 O94 1.941 . S
C70 O71 1.258 . S
C70 O72 1.263 . S
O71 Co68 1.970 . S
O71 C70 1.258 . S
O72 Co69 1.966 . S
O72 C70 1.263 . S
C73 O74 1.235 . S
C73 O100 1.289 . S
O74 C73 1.235 . S
C75 C77 1.400 . S
C75 N78 1.351 . S
C75 C80 1.501 . S
C76 C77 1.387 . S
C76 N79 1.341 . S
C77 C75 1.400 . S
C77 C76 1.387 . S
N78 Co69 2.022 . S
N78 C75 1.351 . S
N78 N79 1.365 . S
N79 C76 1.341 . S
N79 N78 1.365 . S
N79 H99 0.862 . S
C80 C75 1.501 . S
C80 H81 0.961 . S
C80 H82 0.961 . S
C80 H83 0.960 . S
H81 C80 0.961 . S
H82 C80 0.961 . S
H83 C80 0.960 . S
C84 N85 1.342 . S
C84 C88 1.401 . S
C84 C89 1.499 . S
N85 Co68 1.989 . S
N85 C84 1.342 . S
N85 N86 1.388 . S
N86 Co69 1.993 . S
N86 N85 1.388 . S
N86 C87 1.346 . S
C87 N86 1.346 . S
C87 C88 1.396 . S
C87 C97 1.510 . S
C88 C84 1.401 . S
C88 C87 1.396 . S
C89 C84 1.499 . S
C89 H90 0.959 1_554 S
C89 H91 0.960 1_554 S
C89 H92 0.961 1_554 S
H90 C89 0.959 1_556 S
H91 C89 0.960 1_556 S
H92 C89 0.961 1_556 S
O93 Co68 1.967 . S
O93 C101 1.258 . S
O94 Co69 1.941 . S
O94 C101 1.266 . S
H95 C97 0.959 . S
H96 C97 0.961 . S
C97 C87 1.510 . S
C97 H95 0.959 . S
C97 H96 0.961 . S
C97 H98 0.960 . S
H98 C97 0.960 . S
H99 N79 0.862 . S
O100 Co68 1.920 1_556 S
O100 C73 1.289 . S
C101 O93 1.258 . S
C101 O94 1.266 . S
Co102 O105 1.970 . S
Co102 N119 1.989 . S
Co102 O127 1.967 . S
Co102 O134 1.920 . S
Co103 O106 1.966 1_556 S
Co103 N112 2.022 . S
Co103 N120 1.993 1_556 S
Co103 O128 1.941 1_556 S
C104 O105 1.258 . S
C104 O106 1.263 . S
O105 Co102 1.970 . S
O105 C104 1.258 . S
O106 Co103 1.966 1_554 S
O106 C104 1.263 . S
C107 O108 1.235 . S
C107 O134 1.289 . S
O108 C107 1.235 . S
C109 C111 1.400 . S
C109 N112 1.351 . S
C109 C114 1.501 . S
C110 C111 1.387 . S
C110 N113 1.341 . S
C111 C109 1.400 . S
C111 C110 1.387 . S
N112 Co103 2.022 . S
N112 C109 1.351 . S
N112 N113 1.365 . S
N113 C110 1.341 . S
N113 N112 1.365 . S
N113 H133 0.862 . S
C114 C109 1.501 . S
C114 H115 0.961 . S
C114 H116 0.961 . S
C114 H117 0.960 . S
H115 C114 0.961 . S
H116 C114 0.961 . S
H117 C114 0.960 . S
C118 N119 1.342 . S
C118 C122 1.401 . S
C118 C123 1.499 . S
N119 Co102 1.989 . S
N119 C118 1.342 . S
N119 N120 1.388 . S
N120 Co103 1.993 1_554 S
N120 N119 1.388 . S
N120 C121 1.346 . S
C121 N120 1.346 . S
C121 C122 1.396 . S
C121 C131 1.510 1_554 S
C122 C118 1.401 . S
C122 C121 1.396 . S
C123 C118 1.499 . S
C123 H124 0.959 . S
C123 H125 0.960 . S
C123 H126 0.961 . S
H124 C123 0.959 . S
H125 C123 0.960 . S
H126 C123 0.961 . S
O127 Co102 1.967 . S
O127 C135 1.258 . S
O128 Co103 1.941 1_554 S
O128 C135 1.266 . S
H129 C131 0.959 . S
H130 C131 0.961 . S
C131 C121 1.510 1_556 S
C131 H129 0.959 . S
C131 H130 0.961 . S
C131 H132 0.960 . S
H132 C131 0.960 . S
H133 N113 0.862 . S
O134 Co102 1.920 . S
O134 C107 1.289 . S
C135 O127 1.258 . S
C135 O128 1.266 . S
H136 C144 0.929 . S
H137 C146 0.930 . S
H138 C148 0.930 . S
H139 C151 0.929 . S
H140 C154 0.930 . S
H141 C156 0.960 . S
H142 C156 0.960 . S
H143 C156 0.960 . S
C144 H136 0.929 . S
C144 C145 1.377 . S
C144 C146 1.384 . S
C145 C144 1.377 . S
C145 C151 1.390 . S
C146 H137 0.930 . S
C146 C144 1.384 . S
C146 C147 1.372 . S
C147 C146 1.372 . S
C147 C148 1.400 . S
C147 C152 1.490 . S
C148 H138 0.930 . S
C148 C147 1.400 . S
C148 C151 1.386 . S
H149 C165 0.930 . S
H150 C166 0.931 . S
C151 H139 0.929 . S
C151 C145 1.390 . S
C151 C148 1.386 . S
C152 C147 1.490 . S
C152 C154 1.395 . S
C152 C155 1.403 . S
H153 C159 0.930 . S
C154 H140 0.930 . S
C154 C152 1.395 . S
C154 C157 1.403 . S
C155 C152 1.403 . S
C155 C156 1.524 . S
C155 C159 1.400 . S
C156 H141 0.960 . S
C156 H142 0.960 . S
C156 H143 0.960 . S
C156 C155 1.524 . S
C157 C154 1.403 . S
C157 C158 1.392 . S
C157 C161 1.495 . S
C158 C157 1.392 . S
C158 C159 1.385 . S
C158 C160 1.478 . S
C159 H153 0.930 . S
C159 C155 1.400 . S
C159 C158 1.385 . S
C160 C158 1.478 . S
C160 C162 1.381 . S
C160 C166 1.383 . S
C161 C157 1.495 . S
C161 H167 0.959 . S
C161 H168 0.961 . S
C161 H169 0.960 . S
C162 C160 1.381 . S
C162 C163 1.394 . S
C162 H170 0.930 . S
C163 C162 1.394 . S
C163 C164 1.383 . S
C163 H171 0.929 . S
C164 C163 1.383 . S
C164 C165 1.377 . S
C165 H149 0.930 . S
C165 C164 1.377 . S
C165 C166 1.379 . S
C166 H150 0.931 . S
C166 C160 1.383 . S
C166 C165 1.379 . S
H167 C161 0.959 . S
H168 C161 0.961 . S
H169 C161 0.960 . S
H170 C162 0.930 . S
H171 C163 0.929 . S
H172 C180 0.929 . S
H173 C182 0.930 . S
H174 C184 0.930 . S
H175 C187 0.929 . S
H176 C190 0.930 . S
H177 C192 0.960 . S
H178 C192 0.960 . S
H179 C192 0.960 . S
C180 H172 0.929 . S
C180 C181 1.377 . S
C180 C182 1.384 . S
C181 C180 1.377 . S
C181 C187 1.390 . S
C182 H173 0.930 . S
C182 C180 1.384 . S
C182 C183 1.372 . S
C183 C182 1.372 . S
C183 C184 1.400 . S
C183 C188 1.490 . S
C184 H174 0.930 . S
C184 C183 1.400 . S
C184 C187 1.386 . S
H185 C201 0.930 . S
H186 C202 0.931 . S
C187 H175 0.929 . S
C187 C181 1.390 . S
C187 C184 1.386 . S
C188 C183 1.490 . S
C188 C190 1.395 . S
C188 C191 1.403 . S
H189 C195 0.930 . S
C190 H176 0.930 . S
C190 C188 1.395 . S
C190 C193 1.403 . S
C191 C188 1.403 . S
C191 C192 1.524 . S
C191 C195 1.400 . S
C192 H177 0.960 . S
C192 H178 0.960 . S
C192 H179 0.960 . S
C192 C191 1.524 . S
C193 C190 1.403 . S
C193 C194 1.392 . S
C193 C197 1.495 . S
C194 C193 1.392 . S
C194 C195 1.385 . S
C194 C196 1.478 . S
C195 H189 0.930 . S
C195 C191 1.400 . S
C195 C194 1.385 . S
C196 C194 1.478 . S
C196 C198 1.381 . S
C196 C202 1.383 . S
C197 C193 1.495 . S
C197 H203 0.959 . S
C197 H204 0.961 . S
C197 H205 0.960 . S
C198 C196 1.381 . S
C198 C199 1.394 . S
C198 H206 0.930 . S
C199 C198 1.394 . S
C199 C200 1.383 . S
C199 H207 0.929 . S
C200 C199 1.383 . S
C200 C201 1.377 . S
C201 H185 0.930 . S
C201 C200 1.377 . S
C201 C202 1.379 . S
C202 H186 0.931 . S
C202 C196 1.383 . S
C202 C201 1.379 . S
H203 C197 0.959 . S
H204 C197 0.961 . S
H205 C197 0.960 . S
H206 C198 0.930 . S
H207 C199 0.929 . S
H208 C216 0.929 . S
H209 C218 0.930 . S
H210 C220 0.930 . S
H211 C223 0.929 . S
H212 C226 0.930 . S
H213 C228 0.960 . S
H214 C228 0.960 . S
H215 C228 0.960 . S
C216 H208 0.929 . S
C216 C217 1.377 . S
C216 C218 1.384 . S
C217 C216 1.377 . S
C217 C223 1.390 . S
C218 H209 0.930 . S
C218 C216 1.384 . S
C218 C219 1.372 . S
C219 C218 1.372 . S
C219 C220 1.400 . S
C219 C224 1.490 . S
C220 H210 0.930 . S
C220 C219 1.400 . S
C220 C223 1.386 . S
H221 C237 0.930 . S
H222 C238 0.931 . S
C223 H211 0.929 . S
C223 C217 1.390 . S
C223 C220 1.386 . S
C224 C219 1.490 . S
C224 C226 1.395 . S
C224 C227 1.403 . S
H225 C231 0.930 . S
C226 H212 0.930 . S
C226 C224 1.395 . S
C226 C229 1.403 . S
C227 C224 1.403 . S
C227 C228 1.524 . S
C227 C231 1.400 . S
C228 H213 0.960 . S
C228 H214 0.960 . S
C228 H215 0.960 . S
C228 C227 1.524 . S
C229 C226 1.403 . S
C229 C230 1.392 . S
C229 C233 1.495 . S
C230 C229 1.392 . S
C230 C231 1.385 . S
C230 C232 1.478 . S
C231 H225 0.930 . S
C231 C227 1.400 . S
C231 C230 1.385 . S
C232 C230 1.478 . S
C232 C234 1.381 . S
C232 C238 1.383 . S
C233 C229 1.495 . S
C233 H239 0.959 . S
C233 H240 0.961 . S
C233 H241 0.960 . S
C234 C232 1.381 . S
C234 C235 1.394 . S
C234 H242 0.930 . S
C235 C234 1.394 . S
C235 C236 1.383 . S
C235 H243 0.929 . S
C236 C235 1.383 . S
C236 C237 1.377 . S
C237 H221 0.930 . S
C237 C236 1.377 . S
C237 C238 1.379 . S
C238 H222 0.931 . S
C238 C232 1.383 . S
C238 C237 1.379 . S
H239 C233 0.959 . S
H240 C233 0.961 . S
H241 C233 0.960 . S
H242 C234 0.930 . S
H243 C235 0.929 . S
H244 C252 0.929 . S
H245 C254 0.930 . S
H246 C256 0.930 . S
H247 C259 0.929 . S
H248 C262 0.930 . S
H249 C264 0.960 . S
H250 C264 0.960 . S
H251 C264 0.960 . S
C252 H244 0.929 . S
C252 C253 1.377 . S
C252 C254 1.384 . S
C253 C252 1.377 . S
C253 C259 1.390 . S
C254 H245 0.930 . S
C254 C252 1.384 . S
C254 C255 1.372 . S
C255 C254 1.372 . S
C255 C256 1.400 . S
C255 C260 1.490 . S
C256 H246 0.930 . S
C256 C255 1.400 . S
C256 C259 1.386 . S
H257 C273 0.930 . S
H258 C274 0.931 . S
C259 H247 0.929 . S
C259 C253 1.390 . S
C259 C256 1.386 . S
C260 C255 1.490 . S
C260 C262 1.395 . S
C260 C263 1.403 . S
H261 C267 0.930 . S
C262 H248 0.930 . S
C262 C260 1.395 . S
C262 C265 1.403 . S
C263 C260 1.403 . S
C263 C264 1.524 . S
C263 C267 1.400 . S
C264 H249 0.960 . S
C264 H250 0.960 . S
C264 H251 0.960 . S
C264 C263 1.524 . S
C265 C262 1.403 . S
C265 C266 1.392 . S
C265 C269 1.495 . S
C266 C265 1.392 . S
C266 C267 1.385 . S
C266 C268 1.478 . S
C267 H261 0.930 . S
C267 C263 1.400 . S
C267 C266 1.385 . S
C268 C266 1.478 . S
C268 C270 1.381 . S
C268 C274 1.383 . S
C269 C265 1.495 . S
C269 H275 0.959 . S
C269 H276 0.961 . S
C269 H277 0.960 . S
C270 C268 1.381 . S
C270 C271 1.394 . S
C270 H278 0.930 . S
C271 C270 1.394 . S
C271 C272 1.383 . S
C271 H279 0.929 . S
C272 C271 1.383 . S
C272 C273 1.377 . S
C273 H257 0.930 . S
C273 C272 1.377 . S
C273 C274 1.379 . S
C274 H258 0.931 . S
C274 C268 1.383 . S
C274 C273 1.379 . S
H275 C269 0.959 . S
H276 C269 0.961 . S
H277 C269 0.960 . S
H278 C270 0.930 . S
H279 C271 0.929 . S
H280 C288 0.929 . S
H281 C290 0.930 . S
H282 C292 0.930 . S
H283 C295 0.929 . S
H284 C298 0.930 . S
H285 C300 0.960 . S
H286 C300 0.960 . S
H287 C300 0.960 . S
C288 H280 0.929 . S
C288 C289 1.377 . S
C288 C290 1.384 . S
C289 C288 1.377 . S
C289 C295 1.390 . S
C290 H281 0.930 . S
C290 C288 1.384 . S
C290 C291 1.372 . S
C291 C290 1.372 . S
C291 C292 1.400 . S
C291 C296 1.490 . S
C292 H282 0.930 . S
C292 C291 1.400 . S
C292 C295 1.386 . S
H293 C309 0.930 . S
H294 C310 0.931 . S
C295 H283 0.929 . S
C295 C289 1.390 . S
C295 C292 1.386 . S
C296 C291 1.490 . S
C296 C298 1.395 . S
C296 C299 1.403 . S
H297 C303 0.930 . S
C298 H284 0.930 . S
C298 C296 1.395 . S
C298 C301 1.403 1_655 S
C299 C296 1.403 . S
C299 C300 1.524 . S
C299 C303 1.400 1_655 S
C300 H285 0.960 . S
C300 H286 0.960 . S
C300 H287 0.960 . S
C300 C299 1.524 . S
C301 C298 1.403 1_455 S
C301 C302 1.392 . S
C301 C305 1.495 . S
C302 C301 1.392 . S
C302 C303 1.385 . S
C302 C304 1.478 . S
C303 H297 0.930 . S
C303 C299 1.400 1_455 S
C303 C302 1.385 . S
C304 C302 1.478 . S
C304 C306 1.381 . S
C304 C310 1.383 . S
C305 C301 1.495 . S
C305 H311 0.959 . S
C305 H312 0.961 . S
C305 H313 0.960 1_554 S
C306 C304 1.381 . S
C306 C307 1.394 . S
C306 H314 0.930 . S
C307 C306 1.394 . S
C307 C308 1.383 . S
C307 H315 0.929 . S
C308 C307 1.383 . S
C308 C309 1.377 . S
C309 H293 0.930 . S
C309 C308 1.377 . S
C309 C310 1.379 . S
C310 H294 0.931 . S
C310 C304 1.383 . S
C310 C309 1.379 . S
H311 C305 0.959 . S
H312 C305 0.961 . S
H313 C305 0.960 1_556 S
H314 C306 0.930 . S
H315 C307 0.929 . S
H316 C324 0.929 . S
H317 C326 0.930 . S
H318 C328 0.930 . S
H319 C331 0.929 . S
H320 C334 0.930 . S
H321 C336 0.960 . S
H322 C336 0.960 . S
H323 C336 0.960 . S
C324 H316 0.929 . S
C324 C325 1.377 . S
C324 C326 1.384 . S
C325 C324 1.377 . S
C325 C331 1.390 . S
C326 H317 0.930 . S
C326 C324 1.384 . S
C326 C327 1.372 . S
C327 C326 1.372 . S
C327 C328 1.400 . S
C327 C332 1.490 . S
C328 H318 0.930 . S
C328 C327 1.400 . S
C328 C331 1.386 . S
H329 C345 0.930 . S
H330 C346 0.931 . S
C331 H319 0.929 . S
C331 C325 1.390 . S
C331 C328 1.386 . S
C332 C327 1.490 . S
C332 C334 1.395 . S
C332 C335 1.403 . S
H333 C339 0.929 . S
C334 H320 0.930 . S
C334 C332 1.395 . S
C334 C337 1.403 1_565 S
C335 C332 1.403 . S
C335 C336 1.524 1_554 S
C335 C339 1.400 1_565 S
C336 H321 0.960 . S
C336 H322 0.960 . S
C336 H323 0.960 . S
C336 C335 1.524 1_556 S
C337 C334 1.403 1_545 S
C337 C338 1.392 . S
C337 C341 1.495 . S
C338 C337 1.392 . S
C338 C339 1.385 . S
C338 C340 1.478 . S
C339 H333 0.929 . S
C339 C335 1.400 1_545 S
C339 C338 1.385 . S
C340 C338 1.478 . S
C340 C342 1.381 . S
C340 C346 1.383 . S
C341 C337 1.495 . S
C341 H347 0.959 1_545 S
C341 H348 0.961 . S
C341 H349 0.960 . S
C342 C340 1.381 . S
C342 C343 1.394 . S
C342 H350 0.930 . S
C343 C342 1.394 . S
C343 C344 1.383 . S
C343 H351 0.929 . S
C344 C343 1.383 . S
C344 C345 1.377 . S
C345 H329 0.930 . S
C345 C344 1.377 . S
C345 C346 1.379 . S
C346 H330 0.931 . S
C346 C340 1.383 . S
C346 C345 1.379 . S
H347 C341 0.959 1_565 S
H348 C341 0.961 . S
H349 C341 0.960 . S
H350 C342 0.930 . S
H351 C343 0.929 . S
H352 C360 0.929 . S
H353 C362 0.930 . S
H354 C364 0.930 . S
H355 C367 0.929 . S
H356 C370 0.930 . S
H357 C372 0.960 . S
H358 C372 0.960 . S
H359 C372 0.960 . S
C360 H352 0.929 . S
C360 C361 1.377 . S
C360 C362 1.384 . S
C361 C360 1.377 . S
C361 C367 1.390 . S
C362 H353 0.930 . S
C362 C360 1.384 . S
C362 C363 1.372 . S
C363 C362 1.372 . S
C363 C364 1.400 . S
C363 C368 1.490 . S
C364 H354 0.930 . S
C364 C363 1.400 . S
C364 C367 1.386 . S
H365 C381 0.930 . S
H366 C382 0.931 . S
C367 H355 0.929 . S
C367 C361 1.390 . S
C367 C364 1.386 . S
C368 C363 1.490 . S
C368 C370 1.395 . S
C368 C371 1.403 . S
H369 C375 0.930 . S
C370 H356 0.930 . S
C370 C368 1.395 . S
C370 C373 1.403 . S
C371 C368 1.403 . S
C371 C372 1.524 . S
C371 C375 1.400 . S
C372 H357 0.960 . S
C372 H358 0.960 . S
C372 H359 0.960 . S
C372 C371 1.524 . S
C373 C370 1.403 . S
C373 C374 1.392 . S
C373 C377 1.495 . S
C374 C373 1.392 . S
C374 C375 1.385 . S
C374 C376 1.478 . S
C375 H369 0.930 . S
C375 C371 1.400 . S
C375 C374 1.385 . S
C376 C374 1.478 . S
C376 C378 1.381 . S
C376 C382 1.383 . S
C377 C373 1.495 . S
C377 H383 0.959 . S
C377 H384 0.961 . S
C377 H385 0.960 . S
C378 C376 1.381 . S
C378 C379 1.394 . S
C378 H386 0.930 . S
C379 C378 1.394 . S
C379 C380 1.383 . S
C379 H387 0.929 . S
C380 C379 1.383 . S
C380 C381 1.377 . S
C381 H365 0.930 . S
C381 C380 1.377 . S
C381 C382 1.379 . S
C382 H366 0.931 . S
C382 C376 1.383 . S
C382 C381 1.379 . S
H383 C377 0.959 . S
H384 C377 0.961 . S
H385 C377 0.960 . S
H386 C378 0.930 . S
H387 C379 0.929 . S
H388 C396 0.929 . S
H389 C398 0.930 . S
H390 C400 0.930 . S
H391 C403 0.929 . S
H392 C406 0.930 . S
H393 C408 0.960 . S
H394 C408 0.960 . S
H395 C408 0.960 . S
C396 H388 0.929 . S
C396 C397 1.377 . S
C396 C398 1.384 . S
C397 C396 1.377 . S
C397 C403 1.390 . S
C398 H389 0.930 . S
C398 C396 1.384 . S
C398 C399 1.372 . S
C399 C398 1.372 . S
C399 C400 1.400 . S
C399 C404 1.490 . S
C400 H390 0.930 . S
C400 C399 1.400 . S
C400 C403 1.386 . S
H401 C417 0.930 . S
H402 C418 0.931 . S
C403 H391 0.929 . S
C403 C397 1.390 . S
C403 C400 1.386 . S
C404 C399 1.490 . S
C404 C406 1.395 . S
C404 C407 1.403 . S
H405 C411 0.930 . S
C406 H392 0.930 . S
C406 C404 1.395 . S
C406 C409 1.403 . S
C407 C404 1.403 . S
C407 C408 1.524 . S
C407 C411 1.400 . S
C408 H393 0.960 . S
C408 H394 0.960 . S
C408 H395 0.960 . S
C408 C407 1.524 . S
C409 C406 1.403 . S
C409 C410 1.392 . S
C409 C413 1.495 . S
C410 C409 1.392 . S
C410 C411 1.385 . S
C410 C412 1.478 . S
C411 H405 0.930 . S
C411 C407 1.400 . S
C411 C410 1.385 . S
C412 C410 1.478 . S
C412 C414 1.381 . S
C412 C418 1.383 . S
C413 C409 1.495 . S
C413 H419 0.959 . S
C413 H420 0.961 . S
C413 H421 0.960 1_554 S
C414 C412 1.381 . S
C414 C415 1.394 . S
C414 H422 0.930 1_554 S
C415 C414 1.394 . S
C415 C416 1.383 . S
C415 H423 0.929 1_554 S
C416 C415 1.383 . S
C416 C417 1.377 . S
C417 H401 0.930 . S
C417 C416 1.377 . S
C417 C418 1.379 . S
C418 H402 0.931 . S
C418 C412 1.383 . S
C418 C417 1.379 . S
H419 C413 0.959 . S
H420 C413 0.961 . S
H421 C413 0.960 1_556 S
H422 C414 0.930 1_556 S
H423 C415 0.929 1_556 S
H424 C432 0.929 . S
H425 C434 0.930 . S
H426 C436 0.930 . S
H427 C439 0.929 1_556 S
H428 C442 0.930 . S
H429 C444 0.960 . S
H430 C444 0.960 . S
H431 C444 0.960 . S
C432 H424 0.929 . S
C432 C433 1.377 . S
C432 C434 1.384 . S
C433 C432 1.377 . S
C433 C439 1.390 . S
C434 H425 0.930 . S
C434 C432 1.384 . S
C434 C435 1.372 . S
C435 C434 1.372 . S
C435 C436 1.400 . S
C435 C440 1.490 . S
C436 H426 0.930 . S
C436 C435 1.400 . S
C436 C439 1.386 . S
H437 C453 0.930 . S
H438 C454 0.931 . S
C439 H427 0.929 1_554 S
C439 C433 1.390 . S
C439 C436 1.386 . S
C440 C435 1.490 . S
C440 C442 1.395 . S
C440 C443 1.403 . S
H441 C447 0.930 . S
C442 H428 0.930 . S
C442 C440 1.395 . S
C442 C445 1.403 . S
C443 C440 1.403 . S
C443 C444 1.524 . S
C443 C447 1.400 . S
C444 H429 0.960 . S
C444 H430 0.960 . S
C444 H431 0.960 . S
C444 C443 1.524 . S
C445 C442 1.403 . S
C445 C446 1.392 . S
C445 C449 1.495 . S
C446 C445 1.392 . S
C446 C447 1.385 . S
C446 C448 1.478 . S
C447 H441 0.930 . S
C447 C443 1.400 . S
C447 C446 1.385 . S
C448 C446 1.478 . S
C448 C450 1.381 . S
C448 C454 1.383 . S
C449 C445 1.495 . S
C449 H455 0.959 . S
C449 H456 0.961 . S
C449 H457 0.960 . S
C450 C448 1.381 . S
C450 C451 1.394 . S
C450 H458 0.930 . S
C451 C450 1.394 . S
C451 C452 1.383 . S
C451 H459 0.929 . S
C452 C451 1.383 . S
C452 C453 1.377 . S
C453 H437 0.930 . S
C453 C452 1.377 . S
C453 C454 1.379 . S
C454 H438 0.931 . S
C454 C448 1.383 . S
C454 C453 1.379 . S
H455 C449 0.959 . S
H456 C449 0.961 . S
H457 C449 0.960 . S
H458 C450 0.930 . S
H459 C451 0.929 . S
H460 C468 0.929 . S
H461 C470 0.930 . S
H462 C472 0.930 . S
H463 C475 0.929 . S
H464 C478 0.930 . S
H465 C480 0.960 . S
H466 C480 0.960 . S
H467 C480 0.960 . S
C468 H460 0.929 . S
C468 C469 1.377 . S
C468 C470 1.384 . S
C469 C468 1.377 . S
C469 C475 1.390 . S
C470 H461 0.930 . S
C470 C468 1.384 . S
C470 C471 1.372 . S
C471 C470 1.372 . S
C471 C472 1.400 . S
C471 C476 1.490 . S
C472 H462 0.930 . S
C472 C471 1.400 . S
C472 C475 1.386 . S
H473 C489 0.930 . S
H474 C490 0.931 . S
C475 H463 0.929 . S
C475 C469 1.390 . S
C475 C472 1.386 . S
C476 C471 1.490 . S
C476 C478 1.395 . S
C476 C479 1.403 . S
H477 C483 0.930 . S
C478 H464 0.930 . S
C478 C476 1.395 . S
C478 C481 1.403 . S
C479 C476 1.403 . S
C479 C480 1.524 . S
C479 C483 1.400 . S
C480 H465 0.960 . S
C480 H466 0.960 . S
C480 H467 0.960 . S
C480 C479 1.524 . S
C481 C478 1.403 . S
C481 C482 1.392 . S
C481 C485 1.495 . S
C482 C481 1.392 . S
C482 C483 1.385 . S
C482 C484 1.478 . S
C483 H477 0.930 . S
C483 C479 1.400 . S
C483 C482 1.385 . S
C484 C482 1.478 . S
C484 C486 1.381 . S
C484 C490 1.383 . S
C485 C481 1.495 . S
C485 H491 0.959 1_554 S
C485 H492 0.961 1_554 S
C485 H493 0.960 . S
C486 C484 1.381 . S
C486 C487 1.394 . S
C486 H494 0.930 . S
C487 C486 1.394 . S
C487 C488 1.383 . S
C487 H495 0.929 . S
C488 C487 1.383 . S
C488 C489 1.377 . S
C489 H473 0.930 . S
C489 C488 1.377 . S
C489 C490 1.379 . S
C490 H474 0.931 . S
C490 C484 1.383 . S
C490 C489 1.379 . S
H491 C485 0.959 1_556 S
H492 C485 0.961 1_556 S
H493 C485 0.960 . S
H494 C486 0.930 . S
H495 C487 0.929 . S
C145 C9 1.390 . S
C164 C5 1.471 . S
C181 C43 1.397 . S
C200 C39 1.481 . S
C217 C73 1.477 . S
C236 C77 1.351 . S
C253 C111 1.393 . S
C272 C107 1.482 . S
C289 C88 1.455 . S
C308 C20 1.442 . S
C325 C122 1.455 . S
C344 C54 1.448 . S
C361 C36 1.439 . S
C380 C33 1.418 . S
C397 C101 1.449 . S
C416 C67 1.453 . S
C433 C104 1.476 . S
C452 C70 1.476 . S
C469 C135 1.495 . S
C488 C2 1.497 . S
