# Generated by pormake.
# Topology wld, (5)-cn, num edge types: 1
# Building blocks:
#     Node 0, Type 0, BuildingBlock: BEQFEK_clean_sbu_0, # of connection points: 5
#     Node 1, Type 0, BuildingBlock: BEQFEK_clean_sbu_0, # of connection points: 5
#     Node 2, Type 0, BuildingBlock: BEQFEK_clean_sbu_0, # of connection points: 5
#     Node 3, Type 0, BuildingBlock: BEQFEK_clean_sbu_0, # of connection points: 5
#     Node 4, Type 0, BuildingBlock: BEQFEK_clean_sbu_0, # of connection points: 5
#     Node 5, Type 0, BuildingBlock: BEQFEK_clean_sbu_0, # of connection points: 5
#     Node 6, Type 0, BuildingBlock: BEQFEK_clean_sbu_0, # of connection points: 5
#     Node 7, Type 0, BuildingBlock: BEQFEK_clean_sbu_0, # of connection points: 5
#     Node 8, Type 0, BuildingBlock: BEQFEK_clean_sbu_0, # of connection points: 5
#     Node 9, Type 0, BuildingBlock: BEQFEK_clean_sbu_0, # of connection points: 5
#     Node 10, Type 0, BuildingBlock: BEQFEK_clean_sbu_0, # of connection points: 5
#     Node 11, Type 0, BuildingBlock: BEQFEK_clean_sbu_0, # of connection points: 5
#     Edge 12, Type (0, 0), BuildingBlock: AJUNOK_clean_linker_0, # of connection points: 2
#     Edge 13, Type (0, 0), BuildingBlock: AJUNOK_clean_linker_0, # of connection points: 2
#     Edge 14, Type (0, 0), BuildingBlock: AJUNOK_clean_linker_0, # of connection points: 2
#     Edge 15, Type (0, 0), BuildingBlock: AJUNOK_clean_linker_0, # of connection points: 2
#     Edge 16, Type (0, 0), BuildingBlock: AJUNOK_clean_linker_0, # of connection points: 2
#     Edge 17, Type (0, 0), BuildingBlock: AJUNOK_clean_linker_0, # of connection points: 2
#     Edge 18, Type (0, 0), BuildingBlock: AJUNOK_clean_linker_0, # of connection points: 2
#     Edge 19, Type (0, 0), BuildingBlock: AJUNOK_clean_linker_0, # of connection points: 2
#     Edge 20, Type (0, 0), BuildingBlock: AJUNOK_clean_linker_0, # of connection points: 2
#     Edge 21, Type (0, 0), BuildingBlock: AJUNOK_clean_linker_0, # of connection points: 2
#     Edge 22, Type (0, 0), BuildingBlock: AJUNOK_clean_linker_0, # of connection points: 2
#     Edge 23, Type (0, 0), BuildingBlock: AJUNOK_clean_linker_0, # of connection points: 2
#     Edge 24, Type (0, 0), BuildingBlock: AJUNOK_clean_linker_0, # of connection points: 2
#     Edge 25, Type (0, 0), BuildingBlock: AJUNOK_clean_linker_0, # of connection points: 2
#     Edge 26, Type (0, 0), BuildingBlock: AJUNOK_clean_linker_0, # of connection points: 2
#     Edge 27, Type (0, 0), BuildingBlock: AJUNOK_clean_linker_0, # of connection points: 2
#     Edge 28, Type (0, 0), BuildingBlock: AJUNOK_clean_linker_0, # of connection points: 2
#     Edge 29, Type (0, 0), BuildingBlock: AJUNOK_clean_linker_0, # of connection points: 2
#     Edge 30, Type (0, 0), BuildingBlock: AJUNOK_clean_linker_0, # of connection points: 2
#     Edge 31, Type (0, 0), BuildingBlock: AJUNOK_clean_linker_0, # of connection points: 2
#     Edge 32, Type (0, 0), BuildingBlock: AJUNOK_clean_linker_0, # of connection points: 2
#     Edge 33, Type (0, 0), BuildingBlock: AJUNOK_clean_linker_0, # of connection points: 2
#     Edge 34, Type (0, 0), BuildingBlock: AJUNOK_clean_linker_0, # of connection points: 2
#     Edge 35, Type (0, 0), BuildingBlock: AJUNOK_clean_linker_0, # of connection points: 2
#     Edge 36, Type (0, 0), BuildingBlock: AJUNOK_clean_linker_0, # of connection points: 2
#     Edge 37, Type (0, 0), BuildingBlock: AJUNOK_clean_linker_0, # of connection points: 2
#     Edge 38, Type (0, 0), BuildingBlock: AJUNOK_clean_linker_0, # of connection points: 2
#     Edge 39, Type (0, 0), BuildingBlock: AJUNOK_clean_linker_0, # of connection points: 2
#     Edge 40, Type (0, 0), BuildingBlock: AJUNOK_clean_linker_0, # of connection points: 2
#     Edge 41, Type (0, 0), BuildingBlock: AJUNOK_clean_linker_0, # of connection points: 2
# Relax obj value: 0.319
# Max RMSD: 0.214
# Mean RMSD: 0.214
data_MOF--net-wld--node1-BEQFEK_clean_sbu_0--edge1-AJUNOK_clean_linker_0
_symmetry_space_group_name_H-M    P1
_symmetry_Int_Tables_number       1
_symmetry_cell_setting            triclinic
loop_
_symmetry_equiv_pos_as_xyz
'x, y, z'
_cell_length_a     30.630709
_cell_length_b     30.624237
_cell_length_c     32.112403
_cell_angle_alpha  89.937118
_cell_angle_beta   90.09229
_cell_angle_gamma 120.06164
loop_
_atom_site_label
_atom_site_type_symbol
_atom_site_fract_x
_atom_site_fract_y
_atom_site_fract_z
_atom_type_partial_charge
Co0 Co 0.38198 0.28549 0.10281 0.0
Co1 Co 0.41625 0.23177 0.16774 0.0
C2 C 0.4841 0.34027 0.13686 0.0
O3 O 0.45367 0.34096 0.11011 0.0
O4 O 0.47169 0.30135 0.15888 0.0
C5 C 0.35694 0.32345 0.02782 0.0
O6 O 0.39787 0.32804 0.0106 0.0
C7 C 0.48857 0.19836 0.16977 0.0
C8 C 0.47633 0.15734 0.22894 0.0
C9 C 0.50485 0.17116 0.19274 0.0
N10 N 0.4512 0.19981 0.19053 0.0
N11 N 0.44416 0.17543 0.22615 0.0
C12 C 0.50883 0.22298 0.12845 0.0
H13 H 0.48747 0.24045 0.11595 0.0
H14 H 0.50691 0.19479 0.10578 0.0
H15 H 0.54916 0.2522 0.13195 0.0
C16 C 0.35546 0.19045 0.05473 0.0
N17 N 0.37447 0.22149 0.08802 0.0
N18 N 0.38522 0.19812 0.1172 0.0
C19 C 0.37225 0.15138 0.10399 0.0
C20 C 0.35351 0.14508 0.06381 0.0
C21 C 0.33694 0.20265 0.0158 0.0
H22 H 0.31133 0.2171 0.02394 0.0
H23 H 0.36956 0.23244 -0.00155 0.0
H24 H 0.31655 0.16901 -0.0045 0.0
O25 O 0.34752 0.27772 0.15645 0.0
O26 O 0.3657 0.23662 0.20418 0.0
H27 H 0.37411 0.11822 0.16258 0.0
H28 H 0.35328 0.07469 0.11971 0.0
C29 C 0.37944 0.11409 0.129 0.0
H30 H 0.41797 0.12091 0.12366 0.0
H31 H 0.41728 0.17079 0.24833 0.0
O32 O 0.3448 0.30628 0.06451 0.0
C33 C 0.34184 0.25907 0.19284 0.0
Co34 Co 0.72182 0.10142 0.09097 0.0
Co35 Co 0.7849 0.18742 0.15504 0.0
C36 C 0.67169 0.1452 0.13815 0.0
O37 O 0.66804 0.11608 0.10831 0.0
O38 O 0.71346 0.17161 0.15703 0.0
C39 C 0.66708 1.00211 0.05804 0.0
O40 O 0.64369 0.99217 0.09404 0.0
C41 C 0.81468 0.29069 0.16881 0.0
C42 C 0.884 0.32207 0.20678 0.0
C43 C 0.85309 0.33517 0.18502 0.0
N44 N 0.82224 0.25273 0.18003 0.0
N45 N 0.86335 0.27148 0.20337 0.0
C46 C 0.77522 0.28535 0.13829 0.0
H47 H 0.76792 0.25566 0.1151 0.0
H48 H 0.7867 0.32141 0.12186 0.0
H49 H 0.73963 0.27408 0.15531 0.0
C50 C 0.80371 0.17253 0.03438 0.0
N51 N 0.78049 0.15951 0.07174 0.0
N52 N 0.80873 0.19372 0.09942 0.0
C53 C 0.85138 0.22898 0.08076 0.0
C54 C 0.84952 0.21684 0.03901 0.0
C55 C 0.78404 0.14134 -0.00419 0.0
H56 H 0.79434 0.11141 -0.00351 0.0
H57 H 0.74232 0.12305 -0.00538 0.0
H58 H 0.80073 0.16459 0.96748 0.0
O59 O 0.73836 0.07283 0.13957 0.0
O60 O 0.78742 0.13151 0.18515 0.0
H61 H 0.90181 0.26165 0.13244 0.0
H62 H 0.92823 0.29216 0.08336 0.0
C63 C 0.89341 0.27361 0.10235 0.0
H64 H 0.8818 0.30196 0.10818 0.0
H65 H 0.8789 0.25038 0.21491 0.0
O66 O 0.69904 0.0475 0.04881 0.0
C67 C 0.76345 0.08542 0.17336 0.0
Co68 Co 0.91774 0.62444 0.09381 0.0
Co69 Co 0.8295 0.59633 0.15779 0.0
C70 C 0.87373 0.52794 0.13711 0.0
O71 O 0.90378 0.55473 0.10814 0.0
O72 O 0.84711 0.54266 0.15614 0.0
C73 C 0.98354 0.64753 0.01899 0.0
O74 O 0.95184 0.60296 0.00358 0.0
C75 C 0.72517 0.52024 0.16376 0.0
C76 C 0.69229 0.54749 0.21098 0.0
C77 C 0.6801 0.50944 0.18205 0.0
N78 N 0.76258 0.56289 0.18057 0.0
N79 N 0.74283 0.57876 0.2093 0.0
C80 C 0.73093 0.49449 0.12622 0.0
H81 H 0.76872 0.51696 0.11202 0.0
H82 H 0.7017 0.48821 0.10273 0.0
H83 H 0.72498 0.45695 0.13524 0.0
C84 C 0.84515 0.63748 0.03913 0.0
N85 N 0.85906 0.62599 0.07559 0.0
N86 N 0.8248 0.61833 0.10378 0.0
C87 C 0.78893 0.62582 0.08643 0.0
C88 C 0.80034 0.63745 0.04487 0.0
C89 C 0.87601 0.65237 0.00045 0.0
H90 H 0.91426 0.6837 0.00806 0.0
H91 H 0.87886 0.61981 0.98893 0.0
H92 H 0.85934 0.66483 0.97568 0.0
O93 O 0.94374 0.66529 0.14516 0.0
O94 O 0.88409 0.65259 0.19083 0.0
H95 H 0.75483 0.63518 0.14156 0.0
H96 H 0.72974 0.64444 0.09375 0.0
C97 C 0.74438 0.62194 0.10906 0.0
H98 H 0.7134 0.58216 0.10897 0.0
H99 H 0.76332 0.61197 0.22631 0.0
O100 O 0.97495 0.66082 0.05406 0.0
C101 C 0.93049 0.67528 0.17982 0.0
Co102 Co 0.28635 0.39151 0.393 0.0
Co103 Co 0.23051 0.41912 0.32521 0.0
C104 C 0.34104 0.48837 0.3507 0.0
O105 O 0.34221 0.46165 0.38067 0.0
O106 O 0.30117 0.47372 0.32942 0.0
C107 C 0.35039 0.36648 0.43982 0.0
O108 O 0.38626 0.40059 0.4162 0.0
C109 C 0.20483 0.49599 0.31799 0.0
C110 C 0.14882 0.47328 0.26746 0.0
C111 C 0.17386 0.50977 0.29778 0.0
N112 N 0.19884 0.45331 0.30081 0.0
N113 N 0.16555 0.43998 0.27026 0.0
C114 C 0.23486 0.51993 0.35669 0.0
H115 H 0.243 0.49356 0.37401 0.0
H116 H 0.21422 0.53254 0.37728 0.0
H117 H 0.27109 0.55368 0.34812 0.0
C118 C 0.19485 0.37091 0.44176 0.0
N119 N 0.22411 0.38684 0.4074 0.0
N120 N 0.19956 0.39492 0.37763 0.0
C121 C 0.15375 0.38392 0.39171 0.0
C122 C 0.14923 0.36866 0.43292 0.0
C123 C 0.20889 0.35419 0.48081 0.0
H124 H 0.21412 0.32167 0.47363 0.0
H125 H 0.24545 0.38518 0.49256 0.0
H126 H 0.17952 0.34282 0.50518 0.0
O127 O 0.27654 0.35132 0.34224 0.0
O128 O 0.23283 0.36417 0.29315 0.0
H129 H 0.11562 0.37674 0.33384 0.0
H130 H 0.07693 0.36711 0.37883 0.0
C131 C 0.11556 0.38914 0.36622 0.0
H132 H 0.12542 0.42922 0.36601 0.0
H133 H 0.15294 0.40737 0.25233 0.0
O134 O 0.3057 0.35849 0.43617 0.0
C135 C 0.25603 0.34172 0.30636 0.0
Co136 Co 0.64032 0.9139 0.37863 0.0
Co137 Co 0.60467 0.82333 0.31618 0.0
C138 C 0.54098 0.87134 0.33881 0.0
O139 O 0.5695 0.9001 0.36772 0.0
O140 O 0.55305 0.84335 0.31872 0.0
C141 C 0.66447 0.97585 0.45394 0.0
O142 O 0.62317 0.93859 0.47005 0.0
C143 C 0.52366 0.72188 0.30718 0.0
C144 C 0.55328 0.68413 0.26718 0.0
C145 C 0.51259 0.67527 0.29198 0.0
N146 N 0.5691 0.75687 0.29277 0.0
N147 N 0.58622 0.73435 0.26796 0.0
C148 C 0.49542 0.73177 0.34046 0.0
H149 H 0.52217 0.76118 0.36219 0.0
H150 H 0.47038 0.6971 0.35838 0.0
H151 H 0.47186 0.74564 0.32568 0.0
C152 C 0.66246 0.84488 0.43078 0.0
N153 N 0.64383 0.85594 0.39662 0.0
N154 N 0.62873 0.81847 0.36992 0.0
C155 C 0.63639 0.78232 0.3865 0.0
C156 C 0.65791 0.79772 0.42556 0.0
C157 C 0.68874 0.88049 0.46594 0.0
H158 H 0.71263 0.91928 0.45383 0.0
H159 H 0.66007 0.87987 0.48729 0.0
H160 H 0.71273 0.86942 0.48381 0.0
O161 O 0.67793 0.93831 0.32586 0.0
O162 O 0.66019 0.87614 0.28127 0.0
H163 H 0.63918 0.74043 0.33426 0.0
H164 H 0.63409 0.70992 0.38344 0.0
C165 C 0.6222 0.73317 0.36572 0.0
H166 H 0.58071 0.71062 0.36313 0.0
H167 H 0.6217 0.75254 0.25394 0.0
O168 O 0.67702 0.97234 0.417 0.0
C169 C 0.68478 0.92296 0.29094 0.0
Co170 Co 0.10934 0.73561 0.38462 0.0
Co171 Co 0.1975 0.79301 0.32022 0.0
C172 C 0.15568 0.68245 0.34731 0.0
O173 O 0.1245 0.68004 0.37475 0.0
O174 O 0.18202 0.72262 0.32658 0.0
C175 C 0.04502 0.69703 0.45929 0.0
O176 O 0.07948 0.68899 0.47605 0.0
C177 C 0.30416 0.82798 0.31946 0.0
C178 C 0.3316 0.86511 0.25869 0.0
C179 C 0.34728 0.85321 0.29549 0.0
N180 N 0.26499 0.82578 0.29843 0.0
N181 N 0.28164 0.84816 0.26205 0.0
C182 C 0.29987 0.80405 0.36114 0.0
H183 H 0.32055 0.78289 0.36094 0.0
H184 H 0.25997 0.77854 0.36976 0.0
H185 H 0.31734 0.83372 0.38532 0.0
C186 C 0.18083 0.8255 0.43649 0.0
N187 N 0.16685 0.79789 0.40111 0.0
N188 N 0.20015 0.82366 0.37198 0.0
C189 C 0.23492 0.8689 0.38732 0.0
C190 C 0.22443 0.87101 0.42882 0.0
C191 C 0.15241 0.80991 0.4766 0.0
H192 H 0.11239 0.79831 0.47082 0.0
H193 H 0.15442 0.77747 0.48969 0.0
H194 H 0.16828 0.8411 0.49966 0.0
O195 O 0.08348 0.74614 0.33143 0.0
O196 O 0.14248 0.79 0.28426 0.0
H197 H 0.2684 0.90536 0.32909 0.0
H198 H 0.28501 0.94744 0.37286 0.0
C199 C 0.27741 0.90969 0.36279 0.0
H200 H 0.3124 0.90829 0.36836 0.0
H201 H 0.25893 0.85137 0.23935 0.0
O202 O 0.05138 0.71549 0.42295 0.0
C203 C 0.09619 0.76662 0.29565 0.0
Co204 Co 0.62038 0.71247 0.89425 0.0
Co205 Co 0.59945 0.77732 0.83056 0.0
C206 C 0.52906 0.663 0.84488 0.0
O207 O 0.55282 0.65847 0.8757 0.0
O208 O 0.54484 0.70547 0.82713 0.0
C209 C 0.66945 0.66205 0.92829 0.0
O210 O 0.6609 0.64096 0.89133 0.0
C211 C 0.53118 0.8158 0.82876 0.0
C212 C 0.55394 0.86745 0.77507 0.0
C213 C 0.52104 0.84967 0.80868 0.0
N214 N 0.5694 0.81468 0.80911 0.0
N215 N 0.58284 0.84556 0.77683 0.0
C216 C 0.5042 0.78415 0.86596 0.0
H217 H 0.50872 0.75055 0.86785 0.0
H218 H 0.5203 0.80654 0.89474 0.0
H219 H 0.46351 0.77226 0.86476 0.0
C220 C 0.62857 0.793 0.95153 0.0
N221 N 0.62 0.77029 0.914 0.0
N222 N 0.61868 0.8005 0.88564 0.0
C223 C 0.62938 0.84447 0.90363 0.0
C224 C 0.63488 0.84073 0.94599 0.0
C225 C 0.63374 0.77101 0.99151 0.0
H226 H 0.67438 0.7874 -0.00122 0.0
H227 H 0.61576 0.7294 0.98914 0.0
H228 H 0.61639 0.78104 0.01737 0.0
O229 O 0.66629 0.73084 0.84545 0.0
O230 O 0.65771 0.7809 0.79999 0.0
H231 H 0.64618 0.88883 0.84761 0.0
H232 H 0.66632 0.92522 0.89497 0.0
C233 C 0.63626 0.89006 0.88059 0.0
H234 H 0.60096 0.89159 0.88215 0.0
H235 H 0.61202 0.85223 0.75641 0.0
O236 O 0.65148 0.69037 0.93705 0.0
C237 C 0.67939 0.7565 0.81186 0.0
Co238 Co 0.28968 0.91448 0.88531 0.0
Co239 Co 0.24055 0.8286 0.81761 0.0
C240 C 0.34961 0.87448 0.84905 0.0
O241 O 0.34749 0.90158 0.87823 0.0
O242 O 0.31162 0.84837 0.82595 0.0
C243 C 0.32125 0.97472 0.96292 0.0
O244 O 0.32711 0.93901 0.97996 0.0
C245 C 0.21627 0.72505 0.8132 0.0
C246 C 0.16311 0.69167 0.76077 0.0
C247 C 0.18478 0.67965 0.79359 0.0
N248 N 0.21218 0.762 0.79402 0.0
N249 N 0.18094 0.74196 0.7622 0.0
C250 C 0.24938 0.73349 0.85027 0.0
H251 H 0.28939 0.75518 0.84034 0.0
H252 H 0.24335 0.75626 0.87395 0.0
H253 H 0.2428 0.6976 0.86427 0.0
C254 C 0.19534 0.83954 0.93143 0.0
N255 N 0.2271 0.85506 0.89846 0.0
N256 N 0.20584 0.8219 0.86828 0.0
C257 C 0.15977 0.78538 0.88052 0.0
C258 C 0.15182 0.79486 0.92112 0.0
C259 C 0.20462 0.86831 0.97108 0.0
H260 H 0.21711 0.90824 0.96382 0.0
H261 H 0.23477 0.86661 0.98886 0.0
H262 H 0.17014 0.85251 0.99059 0.0
O263 O 0.28129 0.94185 0.83148 0.0
O264 O 0.24173 0.8834 0.78274 0.0
H265 H 0.12551 0.75453 0.8214 0.0
H266 H 0.08522 0.72227 0.86502 0.0
C267 C 0.12453 0.74165 0.85382 0.0
H268 H 0.13655 0.71327 0.85423 0.0
H269 H 0.17003 0.7621 0.74256 0.0
O270 O 0.3065 0.97058 0.92541 0.0
C271 C 0.26288 0.9294 0.79486 0.0
Co272 Co 0.10887 0.38602 0.8879 0.0
Co273 Co 0.19065 0.41083 0.81921 0.0
C274 C 0.15163 0.48216 0.84379 0.0
O275 O 0.12453 0.45647 0.87451 0.0
O276 O 0.1754 0.46618 0.82214 0.0
C277 C 0.01098 0.34044 0.92379 0.0
O278 O 1.00012 0.35359 0.88799 0.0
C279 C 0.294 0.48458 0.8098 0.0
C280 C 0.32361 0.45861 0.75887 0.0
C281 C 0.33781 0.49554 0.78922 0.0
N282 N 0.25553 0.44261 0.79329 0.0
N283 N 0.2732 0.42739 0.76239 0.0
C284 C 0.28847 0.51365 0.84496 0.0
H285 H 0.27608 0.53931 0.83205 0.0
H286 H 0.25929 0.48781 0.86718 0.0
H287 H 0.32448 0.53696 0.86175 0.0
C288 C 0.18156 0.36857 0.93745 0.0
N289 N 0.16696 0.3823 0.90249 0.0
N290 N 0.19869 0.38879 0.87241 0.0
C291 C 0.23372 0.37824 0.88683 0.0
C292 C 0.22446 0.36561 0.92861 0.0
C293 C 0.15203 0.35364 0.97706 0.0
H294 H 0.11977 0.31477 0.97342 0.0
H295 H 0.13686 0.37917 0.98328 0.0
H296 H 0.17513 0.35395 0.00378 0.0
O297 O 0.07756 0.34337 0.83802 0.0
O298 O 0.13337 0.35434 0.78901 0.0
H299 H 0.26213 0.36799 0.8288 0.0
H300 H 0.29026 0.35692 0.8738 0.0
C301 C 0.27553 0.38055 0.861 0.0
H302 H 0.30729 0.41991 0.86035 0.0
H303 H 0.25142 0.39488 0.74488 0.0
O304 O 0.05669 0.35387 0.93185 0.0
C305 C 0.08803 0.33203 0.80271 0.0
Co306 Co 0.73895 0.64328 0.60407 0.0
Co307 Co 0.79149 0.60542 0.66704 0.0
C308 C 0.68191 0.54091 0.63777 0.0
O309 O 0.68189 0.57208 0.61143 0.0
O310 O 0.72104 0.55193 0.65903 0.0
C311 C 0.70281 0.67 0.52926 0.0
O312 O 0.69878 0.62915 0.51229 0.0
C313 C 0.82256 0.53094 0.66795 0.0
C314 C 0.86122 0.54069 0.72804 0.0
C315 C 0.84779 0.51269 0.69148 0.0
N316 N 0.8219 0.56865 0.68895 0.0
N317 N 0.84507 0.57434 0.72496 0.0
C318 C 0.79755 0.51133 0.62662 0.0
H319 H 0.7764 0.53003 0.61648 0.0
H320 H 0.82635 0.51832 0.60268 0.0
H321 H 0.77171 0.46993 0.62857 0.0
C322 C 0.83261 0.66754 0.55455 0.0
N323 N 0.80187 0.6487 0.58803 0.0
N324 N 0.82458 0.63584 0.61627 0.0
C325 C 0.87048 0.64695 0.60222 0.0
C326 C 0.87678 0.66642 0.56228 0.0
C327 C 0.82212 0.6901 0.51724 0.0
H328 H 0.80758 0.71504 0.52727 0.0
H329 H 0.79317 0.65947 0.49765 0.0
H330 H 0.85664 0.71234 0.49828 0.0
O331 O 0.74844 0.67725 0.65834 0.0
O332 O 0.78911 0.65651 0.70453 0.0
H333 H 0.90251 0.64178 0.66046 0.0
H334 H 0.94699 0.66634 0.61886 0.0
C335 C 0.9075 0.63866 0.62668 0.0
H336 H 0.90185 0.6008 0.61949 0.0
H337 H 0.84974 0.60101 0.74747 0.0
O338 O 0.71884 0.68169 0.56633 0.0
C339 C 0.76751 0.68159 0.69445 0.0
Co340 Co 0.39261 0.11579 0.59455 0.0
Co341 Co 0.42038 0.19998 0.66205 0.0
C342 C 0.4872 0.15472 0.63928 0.0
O343 O 0.46081 0.12708 0.60905 0.0
O344 O 0.47342 0.18135 0.65957 0.0
C345 C 0.3545 0.02223 0.54914 0.0
O346 O 0.37446 0.00916 0.5795 0.0
C347 C 0.49797 0.30284 0.66918 0.0
C348 C 0.47097 0.33792 0.71452 0.0
C349 C 0.50941 0.34866 0.68636 0.0
N350 N 0.45471 0.26638 0.68591 0.0
N351 N 0.43893 0.28745 0.71353 0.0
C352 C 0.52438 0.29524 0.63303 0.0
H353 H 0.49901 0.26018 0.61589 0.0
H354 H 0.53875 0.32772 0.61125 0.0
H355 H 0.55714 0.29273 0.64471 0.0
C356 C 0.38422 0.19224 0.54284 0.0
N357 N 0.3931 0.17561 0.57905 0.0
N358 N 0.39952 0.20789 0.60864 0.0
C359 C 0.39383 0.24536 0.59244 0.0
C360 C 0.38478 0.23707 0.55026 0.0
C361 C 0.3757 0.16622 0.50183 0.0
H362 H 0.3948 0.1436 0.50093 0.0
H363 H 0.38969 0.19408 0.47601 0.0
H364 H 0.33458 0.14092 0.49738 0.0
O365 O 0.35017 0.08579 0.64488 0.0
O366 O 0.36377 0.14329 0.69334 0.0
H367 H 0.3696 0.29978 0.60152 0.0
H368 H 0.4322 0.31918 0.61922 0.0
C369 C 0.39333 0.28659 0.61705 0.0
H370 H 0.37847 0.27302 0.64874 0.0
H371 H 0.40513 0.26799 0.72994 0.0
O372 O 0.36002 0.06614 0.54924 0.0
C373 C 0.34066 0.09746 0.68051 0.0
Co374 Co 0.90814 0.28272 0.60403 0.0
Co375 Co 0.81967 0.22587 0.66757 0.0
C376 C 0.86533 0.33763 0.64605 0.0
O377 O 0.89332 0.33854 0.61629 0.0
O378 O 0.8385 0.2973 0.66632 0.0
C379 C 0.9717 0.32271 0.5292 0.0
O380 O 0.9342 0.32419 0.51072 0.0
C381 C 0.7185 0.20381 0.68122 0.0
C382 C 0.68306 0.13423 0.71898 0.0
C383 C 0.67277 0.16701 0.69691 0.0
N384 N 0.75437 0.19326 0.69282 0.0
N385 N 0.73329 0.15227 0.71634 0.0
C386 C 0.72644 0.24306 0.64945 0.0
H387 H 0.75459 0.24656 0.62602 0.0
H388 H 0.69084 0.23388 0.63323 0.0
H389 H 0.74105 0.27997 0.6653 0.0
C390 C 0.83971 0.19131 0.55192 0.0
N391 N 0.85075 0.2209 0.58611 0.0
N392 N 0.81359 0.19816 0.61304 0.0
C393 C 0.77735 0.15445 0.59634 0.0
C394 C 0.79289 0.1483 0.55741 0.0
C395 C 0.87504 0.20126 0.51643 0.0
H396 H 0.91413 0.21736 0.5282 0.0
H397 H 0.87334 0.22864 0.49485 0.0
H398 H 0.86453 0.16615 0.49886 0.0
O399 O 0.93399 0.26948 0.6556 0.0
O400 O 0.87363 0.2233 0.70092 0.0
H401 H 0.73383 0.1067 0.64675 0.0
H402 H 0.70281 0.08692 0.59686 0.0
C403 C 0.72757 0.11996 0.61643 0.0
H404 H 0.70715 0.14068 0.62134 0.0
H405 H 0.75238 0.13468 0.72804 0.0
O406 O 0.96685 0.3066 0.56624 0.0
C407 C 0.9201 0.24659 0.69033 0.0
C408 C 0.63208 0.17934 0.18701 0.0
C409 C 0.62724 0.14887 0.15227 0.0
C410 C 0.59165 0.18469 0.20101 0.0
C411 C 0.54483 0.15999 0.18081 0.0
H412 H 0.66763 0.19985 0.20347 0.0
H413 H 0.5975 0.20948 0.22708 0.0
S414 S 0.51029 0.0736 0.09045 0.0
N415 N 0.57019 0.09192 0.09929 0.0
N416 N 0.49445 0.10215 0.12592 0.0
C417 C 0.53873 0.12852 0.14686 0.0
C418 C 0.57983 0.12289 0.13253 0.0
C419 C 0.90187 0.42048 0.15178 0.0
C420 C 0.86129 0.38612 0.17657 0.0
C421 C 0.90565 0.46616 0.13863 0.0
C422 C 0.86918 0.47908 0.15024 0.0
H423 H 0.92992 0.41125 0.14141 0.0
H424 H 0.93728 0.4914 0.11928 0.0
S425 S 0.7561 0.40108 0.21604 0.0
N426 N 0.78451 0.36752 0.21256 0.0
N427 N 0.79146 0.45303 0.18918 0.0
C428 C 0.82891 0.4449 0.17586 0.0
C429 C 0.825 0.39852 0.18868 0.0
C430 C 0.62033 0.4179 0.17144 0.0
C431 C 0.62951 0.46761 0.1705 0.0
C432 C 0.57367 0.37741 0.15918 0.0
C433 C 0.53449 0.38499 0.14472 0.0
H434 H 0.64928 0.41015 0.1823 0.0
H435 H 0.56814 0.33966 0.16137 0.0
S436 S 0.54045 0.50857 0.13495 0.0
N437 N 0.59648 0.52282 0.15336 0.0
N438 N 0.50858 0.44654 0.1296 0.0
C439 C 0.54358 0.43477 0.14279 0.0
C440 C 0.59107 0.47609 0.15602 0.0
C441 C 0.12281 0.54714 0.32463 0.0
C442 C 0.16828 0.55368 0.30828 0.0
C443 C 0.11922 0.5887 0.33895 0.0
C444 C 0.16088 0.63806 0.33688 0.0
H445 H 0.0902 0.50964 0.32707 0.0
H446 H 0.08339 0.58228 0.35083 0.0
S447 S 0.28864 0.67434 0.29727 0.0
N448 N 0.25569 0.61252 0.29134 0.0
N449 N 0.2493 0.69039 0.31779 0.0
C450 C 0.20655 0.64464 0.32068 0.0
C451 C 0.21015 0.60251 0.30648 0.0
C452 C 0.42067 0.61583 0.2991 0.0
C453 C 0.4702 0.62614 0.30552 0.0
C454 C 0.37956 0.57166 0.31459 0.0
C455 C 0.38627 0.53644 0.33803 0.0
H456 H 0.41366 0.64223 0.28197 0.0
H457 H 0.3421 0.56515 0.30797 0.0
S458 S 0.50928 0.54723 0.36445 0.0
N459 N 0.52445 0.59861 0.33706 0.0
N460 N 0.44702 0.51558 0.36701 0.0
C461 C 0.4359 0.54676 0.34514 0.0
C462 C 0.47788 0.59155 0.3286 0.0
C463 C 0.46784 0.88493 0.35476 0.0
C464 C 0.49317 0.86989 0.32683 0.0
C465 C 0.42108 0.88042 0.34422 0.0
C466 C 0.39824 0.86123 0.30524 0.0
H467 H 0.48361 0.89921 0.38529 0.0
H468 H 0.40276 0.89212 0.36678 0.0
S469 S 0.45025 0.81989 0.21977 0.0
N470 N 0.49259 0.83742 0.25732 0.0
N471 N 0.40531 0.82926 0.23811 0.0
C472 C 0.42392 0.84782 0.27657 0.0
C473 C 0.4711 0.85193 0.28725 0.0
C474 C 0.40251 0.8582 0.7994 0.0
C475 C 0.39645 0.87309 0.83962 0.0
C476 C 0.44408 0.85292 0.78927 0.0
C477 C 0.48099 0.86154 0.81905 0.0
H478 H 0.37451 0.84993 0.77541 0.0
H479 H 0.44636 0.84021 0.75829 0.0
S480 S 0.48599 0.90535 0.92761 0.0
N481 N 0.43318 0.89954 0.90858 0.0
N482 N 0.51136 0.88934 0.88949 0.0
C483 C 0.47667 0.87817 0.85891 0.0
C484 C 0.43445 0.8841 0.86919 0.0
C485 C 0.17519 0.5514 0.79172 0.0
C486 C 0.15658 0.53145 0.83171 0.0
C487 C 0.18287 0.59867 0.77934 0.0
C488 C 0.17309 0.62841 0.80661 0.0
H489 H 0.18426 0.53044 0.76961 0.0
H490 H 0.1978 0.6126 0.74854 0.0
S491 S 0.12118 0.59333 0.91362 0.0
N492 N 0.12632 0.54481 0.89775 0.0
N493 N 0.14121 0.63384 0.87454 0.0
C494 C 0.1533 0.60871 0.84624 0.0
C495 C 0.14494 0.56023 0.85877 0.0
C496 C 0.4549 0.57561 0.8538 0.0
C497 C 0.48241 0.61859 0.82872 0.0
C498 C 0.40907 0.53483 0.83999 0.0
C499 C 0.38934 0.53535 0.80051 0.0
H500 H 0.46799 0.57405 0.88483 0.0
H501 H 0.38815 0.50324 0.86083 0.0
S502 S 0.44836 0.63584 0.72107 0.0
N503 N 0.48781 0.65705 0.76088 0.0
N504 N 0.40169 0.58012 0.7355 0.0
C505 C 0.41732 0.57665 0.77435 0.0
C506 C 0.46378 0.61841 0.78836 0.0
C507 C 0.87565 0.46719 0.64258 0.0
C508 C 0.85532 0.46969 0.68125 0.0
C509 C 0.87984 0.42498 0.6315 0.0
C510 C 0.86345 0.38354 0.65861 0.0
H511 H 0.88861 0.49817 0.62073 0.0
H512 H 0.89515 0.42448 0.60124 0.0
S513 S 0.81006 0.37332 0.76468 0.0
N514 N 0.82077 0.42854 0.74727 0.0
N515 N 0.82836 0.34939 0.72711 0.0
C516 C 0.84429 0.38647 0.69793 0.0
C517 C 0.84046 0.42953 0.70913 0.0
C518 C 0.64244 0.45183 0.66198 0.0
C519 C 0.6362 0.49141 0.64635 0.0
C520 C 0.60124 0.40628 0.6753 0.0
C521 C 0.55206 0.39852 0.67416 0.0
H522 H 0.67972 0.45618 0.66431 0.0
H523 H 0.608 0.37698 0.68698 0.0
S524 S 0.5143 0.48866 0.63489 0.0
N525 N 0.57631 0.51896 0.6295 0.0
N526 N 0.49867 0.43301 0.65501 0.0
C527 C 0.54484 0.43723 0.65828 0.0
C528 C 0.58691 0.48366 0.64408 0.0
C529 C 0.61203 0.198 0.69412 0.0
C530 C 0.62305 0.15981 0.68508 0.0
C531 C 0.56829 0.19589 0.67878 0.0
C532 C 0.53411 0.1559 0.65308 0.0
H533 H 0.63792 0.23019 0.71274 0.0
H534 H 0.56158 0.22634 0.68693 0.0
S535 S 0.54672 0.04665 0.61997 0.0
N536 N 0.59714 0.08088 0.64903 0.0
N537 N 0.51465 0.07687 0.6196 0.0
C538 C 0.54483 0.11732 0.64379 0.0
C539 C 0.58929 0.11923 0.66002 0.0
C540 C 0.36934 0.10878 -0.00021 0.0
C541 C 0.34058 0.1018 0.03585 0.0
C542 C 0.36243 0.06736 0.9759 0.0
C543 C 0.32747 0.01774 0.98801 0.0
H544 H 0.39831 0.14635 0.99069 0.0
H545 H 0.38553 0.07408 0.94849 0.0
S546 S 0.23832 0.97991 0.07649 0.0
N547 N 0.2713 0.04212 0.07922 0.0
N548 N 0.26108 0.96415 0.03627 0.0
C549 C 0.29743 0.01043 0.02316 0.0
C550 C 0.30323 0.05257 0.04657 0.0
C551 C 0.88177 0.27032 0.97516 0.0
C552 C 0.88936 0.24421 0.00769 0.0
C553 C 0.9213 0.30125 0.94807 0.0
C554 C 0.96987 0.30747 0.95291 0.0
H555 H 0.84543 0.26779 0.97129 0.0
H556 H 0.91389 0.32109 0.92363 0.0
S557 S 1.00712 0.24325 0.03175 0.0
N558 N 0.94723 0.22341 0.04187 0.0
N559 N 0.02184 0.28196 0.99171 0.0
C560 C 0.97724 0.28025 0.98487 0.0
C561 C 0.93687 0.24844 0.01202 0.0
C562 C 0.74504 0.6107 0.98204 0.0
C563 C 0.7701 0.64617 0.01374 0.0
C564 C 0.71249 0.61608 0.9544 0.0
C565 C 0.70371 0.65688 0.95791 0.0
H566 H 0.74986 0.57812 0.97916 0.0
H567 H 0.69349 0.58766 0.93059 0.0
S568 S 0.76521 0.76267 0.03341 0.0
N569 N 0.78772 0.72523 0.04527 0.0
N570 N 0.72619 0.73536 -0.00601 0.0
C571 C 0.72997 0.69334 0.98893 0.0
C572 C 0.76336 0.68801 0.01666 0.0
C573 C 0.0138 0.30642 0.47001 0.0
C574 C 0.01749 0.33409 0.50594 0.0
C575 C 0.05712 0.31572 0.44802 0.0
C576 C 0.10529 0.35418 0.4604 0.0
H577 H 0.97725 0.27709 0.4591 0.0
H578 H 0.05281 0.29356 0.42043 0.0
S579 S 0.13478 0.43626 0.55307 0.0
N580 N 0.07283 0.39938 0.55439 0.0
N581 N 0.15413 0.41921 0.51137 0.0
C582 C 0.10946 0.38136 0.49678 0.0
C583 C 0.06549 0.37086 0.51988 0.0
C584 C 0.70415 0.75118 0.43979 0.0
C585 C 0.67314 0.7697 0.45428 0.0
C586 C 0.71316 0.71847 0.46412 0.0
C587 C 0.69309 0.70475 0.5044 0.0
H588 H 0.72032 0.76088 0.40885 0.0
H589 H 0.73623 0.70405 0.45143 0.0
S590 S 0.61284 0.74594 0.55813 0.0
N591 N 0.6237 0.77315 0.5119 0.0
N592 N 0.64336 0.71419 0.55875 0.0
C593 C 0.66436 0.72515 0.52018 0.0
C594 C 0.65392 0.75725 0.49491 0.0
C595 C 0.31522 0.93573 0.51785 0.0
C596 C 0.32226 0.98486 0.51712 0.0
C597 C 0.28295 0.89893 0.48939 0.0
C598 C 0.25672 0.90995 0.4592 0.0
H599 H 0.33449 0.92539 0.54069 0.0
H600 H 0.2787 0.86163 0.49081 0.0
S601 S 0.26076 0.03163 0.44365 0.0
N602 N 0.29958 0.04195 0.48294 0.0
N603 N 0.23864 0.97222 0.4301 0.0
C604 C 0.26314 0.95848 0.45786 0.0
C605 C 0.29605 0.99611 0.48664 0.0
C606 C 0.61412 0.91442 0.03037 0.0
C607 C 0.66008 0.96048 0.03043 0.0
C608 C 0.60672 0.87476 0.00397 0.0
C609 C 0.64532 0.87974 0.97743 0.0
H610 H 0.58327 0.90944 0.05006 0.0
H611 H 0.57022 0.84055 0.00348 0.0
S612 S 0.77439 0.9896 0.96937 0.0
N613 N 0.74597 0.00686 0.00383 0.0
N614 N 0.732 0.93186 0.95496 0.0
C615 C 0.692 0.92447 0.97848 0.0
C616 C 0.6994 0.96503 0.0048 0.0
C617 C 0.07588 0.70288 0.00691 0.0
C618 C 0.02596 0.6851 -0.00618 0.0
C619 C 0.11674 0.73995 0.984 0.0
C620 C 0.10873 0.76141 0.94813 0.0
H621 H 0.08334 0.68729 0.03452 0.0
H622 H 0.15476 0.75105 -0.00619 0.0
S623 S 0.98515 0.73308 0.90468 0.0
N624 N 0.97085 0.69347 0.94402 0.0
N625 N 0.04735 0.76697 0.90385 0.0
C626 C 0.05897 0.74626 0.93645 0.0
C627 C 0.01759 0.70696 0.95851 0.0
C628 C 0.26209 0.31211 0.94694 0.0
C629 C 0.25472 0.35274 0.95669 0.0
C630 C 0.296 0.3033 0.96975 0.0
C631 C 0.32245 0.334 0.00375 0.0
H632 H 0.2423 0.28766 0.92087 0.0
H633 H 0.30132 0.27214 0.96094 0.0
S634 S 0.31497 0.44362 0.04321 0.0
N635 N 0.27635 0.42358 0.00279 0.0
N636 N 0.33787 0.40507 0.04728 0.0
C637 C 0.314 0.37343 0.01489 0.0
C638 C 0.28049 0.38321 0.99101 0.0
C639 C 0.00988 0.71642 0.52184 0.0
C640 C 1.00175 0.69045 0.48405 0.0
C641 C 0.96917 0.71112 0.54568 0.0
C642 C 0.91904 0.67798 0.53343 0.0
H643 H 0.04794 0.7414 0.5328 0.0
H644 H 0.97704 0.73256 0.57423 0.0
S645 S 0.87821 0.6036 0.43572 0.0
N646 N 0.94048 0.63377 0.43365 0.0
N647 N 0.86376 0.62066 0.48004 0.0
C648 C 0.91058 0.65299 0.49504 0.0
C649 C 0.95205 0.65979 0.47007 0.0
C650 C 0.33102 0.25199 0.50067 0.0
C651 C 0.37771 0.26958 0.52045 0.0
C652 C 0.32238 0.28393 0.47498 0.0
C653 C 0.36053 0.33416 0.46766 0.0
H654 H 0.30069 0.21371 0.50586 0.0
H655 H 0.28568 0.26903 0.46046 0.0
S656 S 0.48966 0.39752 0.51221 0.0
N657 N 0.46248 0.33972 0.5314 0.0
N658 N 0.44686 0.39961 0.48221 0.0
C659 C 0.4077 0.35177 0.48682 0.0
C660 C 0.41611 0.31949 0.51353 0.0
C661 C 0.75251 0.1107 0.48877 0.0
C662 C 0.76546 0.10425 0.5294 0.0
C663 C 0.72035 0.06881 0.4641 0.0
C664 C 0.69927 0.01938 0.47977 0.0
H665 H 0.76598 0.14828 0.47652 0.0
H666 H 0.7106 0.07517 0.43312 0.0
S667 S 0.72745 0.98241 0.58182 0.0
N668 N 0.76036 0.04468 0.58193 0.0
N669 N 0.69737 0.96631 0.53677 0.0
C670 C 0.71359 0.01251 0.51965 0.0
C671 C 0.74753 0.05491 0.54411 0.0
C672 C 0.26277 0.31282 0.23495 0.0
C673 C 0.26663 0.30951 0.27824 0.0
C674 C 0.28416 0.29302 0.2077 0.0
C675 C 0.31054 0.26918 0.2225 0.0
H676 H 0.24603 0.33368 0.22189 0.0
H677 H 0.28221 0.29902 0.17466 0.0
S678 S 0.32209 0.24148 0.33314 0.0
N679 N 0.29158 0.27314 0.3347 0.0
N680 N 0.3325 0.23688 0.28335 0.0
C681 C 0.31046 0.26137 0.26561 0.0
C682 C 0.28839 0.28131 0.29346 0.0
C683 C 0.76481 0.05315 0.24471 0.0
C684 C 0.75684 0.04411 0.20177 0.0
C685 C 0.7453 0.01312 0.27323 0.0
C686 C 0.71682 0.96238 0.26003 0.0
H687 H 0.78278 0.09132 0.25671 0.0
H688 H 0.74973 0.0224 0.30608 0.0
S689 S 0.69631 0.91835 0.15039 0.0
N690 N 0.72734 0.9805 0.14697 0.0
N691 N 0.68971 0.90544 0.20069 0.0
C692 C 0.71373 0.95273 0.21705 0.0
C693 C 0.73393 0.99356 0.18791 0.0
C694 C 0.02221 0.73353 0.19492 0.0
C695 C 0.97162 0.70931 0.20884 0.0
C696 C 0.06288 0.75622 0.22281 0.0
C697 C 0.05471 0.75581 0.26582 0.0
H698 H 0.03074 0.73244 0.16234 0.0
H699 H 0.10071 0.77091 0.21076 0.0
S700 S 0.93031 0.70769 0.31764 0.0
N701 N 0.91625 0.69364 0.268 0.0
N702 N 0.99245 0.73694 0.3204 0.0
C703 C 1.00457 0.73658 0.27973 0.0
C704 C 0.96311 0.71323 0.25129 0.0
C705 C 0.7345 0.73927 0.71229 0.0
C706 C 0.7577 0.71171 0.72561 0.0
C707 C 0.71319 0.75799 0.74067 0.0
C708 C 0.71433 0.75017 0.78364 0.0
H709 H 0.72979 0.74383 0.67943 0.0
H710 H 0.69252 0.77539 0.72853 0.0
S711 S 0.78139 0.6918 0.83543 0.0
N712 N 0.78807 0.68543 0.78517 0.0
N713 N 0.74915 0.72165 0.83863 0.0
C714 C 0.74252 0.72794 0.79765 0.0
C715 C 0.76396 0.7085 0.76865 0.0
C716 C 0.29752 0.02147 0.78013 0.0
C717 C 0.27182 0.97108 0.76564 0.0
C718 C 0.31576 0.06256 0.75268 0.0
C719 C 0.30908 0.05518 0.70947 0.0
H720 H 0.30627 0.0296 0.81289 0.0
H721 H 0.33829 0.10021 0.76533 0.0
S722 S 0.23497 0.9315 0.65597 0.0
N723 N 0.2339 0.91665 0.70555 0.0
N724 N 0.2676 0.99371 0.65396 0.0
C725 C 0.27906 1.0052 0.69487 0.0
C726 C 0.2606 0.96325 0.72289 0.0
C727 C 0.05219 0.29807 0.73226 0.0
C728 C 0.04517 0.29755 0.77547 0.0
C729 C 0.01088 0.2768 0.70506 0.0
C730 C 0.96082 0.2544 0.71989 0.0
H731 H 0.08974 0.31818 0.71905 0.0
H732 H 0.01858 0.28115 0.67194 0.0
S733 S 0.92196 0.23213 0.83076 0.0
N734 N 0.98421 0.2637 0.83223 0.0
N735 N 0.90669 0.2251 0.7809 0.0
C736 C 0.95318 0.24846 0.7631 0.0
C737 C 0.99534 0.26979 0.79092 0.0
loop_
_geom_bond_atom_site_label_1
_geom_bond_atom_site_label_2
_geom_bond_distance
_geom_bond_site_symmetry_2
_ccdc_geom_bond_type
Co0 O3 1.970 . S
Co0 N17 1.989 . S
Co0 O25 1.967 . S
Co0 O32 1.920 . S
Co1 O4 1.966 . S
Co1 N10 2.022 . S
Co1 N18 1.993 . S
Co1 O26 1.941 . S
C2 O3 1.258 . S
C2 O4 1.263 . S
O3 Co0 1.970 . S
O3 C2 1.258 . S
O4 Co1 1.966 . S
O4 C2 1.263 . S
C5 O6 1.235 . S
C5 O32 1.289 . S
O6 C5 1.235 . S
C7 C9 1.400 . S
C7 N10 1.351 . S
C7 C12 1.501 . S
C8 C9 1.387 . S
C8 N11 1.341 . S
C9 C7 1.400 . S
C9 C8 1.387 . S
N10 Co1 2.022 . S
N10 C7 1.351 . S
N10 N11 1.365 . S
N11 C8 1.341 . S
N11 N10 1.365 . S
N11 H31 0.862 . S
C12 C7 1.501 . S
C12 H13 0.961 . S
C12 H14 0.961 . S
C12 H15 0.960 . S
H13 C12 0.961 . S
H14 C12 0.961 . S
H15 C12 0.960 . S
C16 N17 1.342 . S
C16 C20 1.401 . S
C16 C21 1.499 . S
N17 Co0 1.989 . S
N17 C16 1.342 . S
N17 N18 1.388 . S
N18 Co1 1.993 . S
N18 N17 1.388 . S
N18 C19 1.346 . S
C19 N18 1.346 . S
C19 C20 1.396 . S
C19 C29 1.510 . S
C20 C16 1.401 . S
C20 C19 1.396 . S
C21 C16 1.499 . S
C21 H22 0.959 . S
C21 H23 0.960 . S
C21 H24 0.961 . S
H22 C21 0.959 . S
H23 C21 0.960 . S
H24 C21 0.961 . S
O25 Co0 1.967 . S
O25 C33 1.258 . S
O26 Co1 1.941 . S
O26 C33 1.266 . S
H27 C29 0.959 . S
H28 C29 0.961 . S
C29 C19 1.510 . S
C29 H27 0.959 . S
C29 H28 0.961 . S
C29 H30 0.960 . S
H30 C29 0.960 . S
H31 N11 0.862 . S
O32 Co0 1.920 . S
O32 C5 1.289 . S
C33 O25 1.258 . S
C33 O26 1.266 . S
Co34 O37 1.970 . S
Co34 N51 1.989 . S
Co34 O59 1.967 . S
Co34 O66 1.920 . S
Co35 O38 1.966 . S
Co35 N44 2.022 . S
Co35 N52 1.993 . S
Co35 O60 1.941 . S
C36 O37 1.258 . S
C36 O38 1.263 . S
O37 Co34 1.970 . S
O37 C36 1.258 . S
O38 Co35 1.966 . S
O38 C36 1.263 . S
C39 O40 1.235 . S
C39 O66 1.289 . S
O40 C39 1.235 . S
C41 C43 1.400 . S
C41 N44 1.351 . S
C41 C46 1.501 . S
C42 C43 1.387 . S
C42 N45 1.341 . S
C43 C41 1.400 . S
C43 C42 1.387 . S
N44 Co35 2.022 . S
N44 C41 1.351 . S
N44 N45 1.365 . S
N45 C42 1.341 . S
N45 N44 1.365 . S
N45 H65 0.862 . S
C46 C41 1.501 . S
C46 H47 0.961 . S
C46 H48 0.961 . S
C46 H49 0.960 . S
H47 C46 0.961 . S
H48 C46 0.961 . S
H49 C46 0.960 . S
C50 N51 1.342 . S
C50 C54 1.401 . S
C50 C55 1.499 . S
N51 Co34 1.989 . S
N51 C50 1.342 . S
N51 N52 1.388 . S
N52 Co35 1.993 . S
N52 N51 1.388 . S
N52 C53 1.346 . S
C53 N52 1.346 . S
C53 C54 1.396 . S
C53 C63 1.510 . S
C54 C50 1.401 . S
C54 C53 1.396 . S
C55 C50 1.499 . S
C55 H56 0.959 . S
C55 H57 0.960 . S
C55 H58 0.961 . S
H56 C55 0.959 . S
H57 C55 0.960 . S
H58 C55 0.961 . S
O59 Co34 1.967 . S
O59 C67 1.258 . S
O60 Co35 1.941 . S
O60 C67 1.266 . S
H61 C63 0.959 . S
H62 C63 0.961 . S
C63 C53 1.510 . S
C63 H61 0.959 . S
C63 H62 0.961 . S
C63 H64 0.960 . S
H64 C63 0.960 . S
H65 N45 0.862 . S
O66 Co34 1.920 . S
O66 C39 1.289 . S
C67 O59 1.258 . S
C67 O60 1.266 . S
Co68 O71 1.970 . S
Co68 N85 1.989 . S
Co68 O93 1.967 . S
Co68 O100 1.920 . S
Co69 O72 1.966 . S
Co69 N78 2.022 . S
Co69 N86 1.993 . S
Co69 O94 1.941 . S
C70 O71 1.258 . S
C70 O72 1.263 . S
O71 Co68 1.970 . S
O71 C70 1.258 . S
O72 Co69 1.966 . S
O72 C70 1.263 . S
C73 O74 1.235 . S
C73 O100 1.289 . S
O74 C73 1.235 . S
C75 C77 1.400 . S
C75 N78 1.351 . S
C75 C80 1.501 . S
C76 C77 1.387 . S
C76 N79 1.341 . S
C77 C75 1.400 . S
C77 C76 1.387 . S
N78 Co69 2.022 . S
N78 C75 1.351 . S
N78 N79 1.365 . S
N79 C76 1.341 . S
N79 N78 1.365 . S
N79 H99 0.862 . S
C80 C75 1.501 . S
C80 H81 0.961 . S
C80 H82 0.961 . S
C80 H83 0.960 . S
H81 C80 0.961 . S
H82 C80 0.961 . S
H83 C80 0.960 . S
C84 N85 1.342 . S
C84 C88 1.401 . S
C84 C89 1.499 . S
N85 Co68 1.989 . S
N85 C84 1.342 . S
N85 N86 1.388 . S
N86 Co69 1.993 . S
N86 N85 1.388 . S
N86 C87 1.346 . S
C87 N86 1.346 . S
C87 C88 1.396 . S
C87 C97 1.510 . S
C88 C84 1.401 . S
C88 C87 1.396 . S
C89 C84 1.499 . S
C89 H90 0.959 . S
C89 H91 0.960 . S
C89 H92 0.961 . S
H90 C89 0.959 . S
H91 C89 0.960 . S
H92 C89 0.961 . S
O93 Co68 1.967 . S
O93 C101 1.258 . S
O94 Co69 1.941 . S
O94 C101 1.266 . S
H95 C97 0.959 . S
H96 C97 0.961 . S
C97 C87 1.510 . S
C97 H95 0.959 . S
C97 H96 0.961 . S
C97 H98 0.960 . S
H98 C97 0.960 . S
H99 N79 0.862 . S
O100 Co68 1.920 . S
O100 C73 1.289 . S
C101 O93 1.258 . S
C101 O94 1.266 . S
Co102 O105 1.970 . S
Co102 N119 1.989 . S
Co102 O127 1.967 . S
Co102 O134 1.920 . S
Co103 O106 1.966 . S
Co103 N112 2.022 . S
Co103 N120 1.993 . S
Co103 O128 1.941 . S
C104 O105 1.258 . S
C104 O106 1.263 . S
O105 Co102 1.970 . S
O105 C104 1.258 . S
O106 Co103 1.966 . S
O106 C104 1.263 . S
C107 O108 1.235 . S
C107 O134 1.289 . S
O108 C107 1.235 . S
C109 C111 1.400 . S
C109 N112 1.351 . S
C109 C114 1.501 . S
C110 C111 1.387 . S
C110 N113 1.341 . S
C111 C109 1.400 . S
C111 C110 1.387 . S
N112 Co103 2.022 . S
N112 C109 1.351 . S
N112 N113 1.365 . S
N113 C110 1.341 . S
N113 N112 1.365 . S
N113 H133 0.862 . S
C114 C109 1.501 . S
C114 H115 0.961 . S
C114 H116 0.961 . S
C114 H117 0.960 . S
H115 C114 0.961 . S
H116 C114 0.961 . S
H117 C114 0.960 . S
C118 N119 1.342 . S
C118 C122 1.401 . S
C118 C123 1.499 . S
N119 Co102 1.989 . S
N119 C118 1.342 . S
N119 N120 1.388 . S
N120 Co103 1.993 . S
N120 N119 1.388 . S
N120 C121 1.346 . S
C121 N120 1.346 . S
C121 C122 1.396 . S
C121 C131 1.510 . S
C122 C118 1.401 . S
C122 C121 1.396 . S
C123 C118 1.499 . S
C123 H124 0.959 . S
C123 H125 0.960 . S
C123 H126 0.961 . S
H124 C123 0.959 . S
H125 C123 0.960 . S
H126 C123 0.961 . S
O127 Co102 1.967 . S
O127 C135 1.258 . S
O128 Co103 1.941 . S
O128 C135 1.266 . S
H129 C131 0.959 . S
H130 C131 0.961 . S
C131 C121 1.510 . S
C131 H129 0.959 . S
C131 H130 0.961 . S
C131 H132 0.960 . S
H132 C131 0.960 . S
H133 N113 0.862 . S
O134 Co102 1.920 . S
O134 C107 1.289 . S
C135 O127 1.258 . S
C135 O128 1.266 . S
Co136 O139 1.970 . S
Co136 N153 1.989 . S
Co136 O161 1.967 . S
Co136 O168 1.920 . S
Co137 O140 1.966 . S
Co137 N146 2.022 . S
Co137 N154 1.993 . S
Co137 O162 1.941 . S
C138 O139 1.258 . S
C138 O140 1.263 . S
O139 Co136 1.970 . S
O139 C138 1.258 . S
O140 Co137 1.966 . S
O140 C138 1.263 . S
C141 O142 1.235 . S
C141 O168 1.289 . S
O142 C141 1.235 . S
C143 C145 1.400 . S
C143 N146 1.351 . S
C143 C148 1.501 . S
C144 C145 1.387 . S
C144 N147 1.341 . S
C145 C143 1.400 . S
C145 C144 1.387 . S
N146 Co137 2.022 . S
N146 C143 1.351 . S
N146 N147 1.365 . S
N147 C144 1.341 . S
N147 N146 1.365 . S
N147 H167 0.862 . S
C148 C143 1.501 . S
C148 H149 0.961 . S
C148 H150 0.961 . S
C148 H151 0.960 . S
H149 C148 0.961 . S
H150 C148 0.961 . S
H151 C148 0.960 . S
C152 N153 1.342 . S
C152 C156 1.401 . S
C152 C157 1.499 . S
N153 Co136 1.989 . S
N153 C152 1.342 . S
N153 N154 1.388 . S
N154 Co137 1.993 . S
N154 N153 1.388 . S
N154 C155 1.346 . S
C155 N154 1.346 . S
C155 C156 1.396 . S
C155 C165 1.510 . S
C156 C152 1.401 . S
C156 C155 1.396 . S
C157 C152 1.499 . S
C157 H158 0.959 . S
C157 H159 0.960 . S
C157 H160 0.961 . S
H158 C157 0.959 . S
H159 C157 0.960 . S
H160 C157 0.961 . S
O161 Co136 1.967 . S
O161 C169 1.258 . S
O162 Co137 1.941 . S
O162 C169 1.266 . S
H163 C165 0.959 . S
H164 C165 0.961 . S
C165 C155 1.510 . S
C165 H163 0.959 . S
C165 H164 0.961 . S
C165 H166 0.960 . S
H166 C165 0.960 . S
H167 N147 0.862 . S
O168 Co136 1.920 . S
O168 C141 1.289 . S
C169 O161 1.258 . S
C169 O162 1.266 . S
Co170 O173 1.970 . S
Co170 N187 1.989 . S
Co170 O195 1.967 . S
Co170 O202 1.920 . S
Co171 O174 1.966 . S
Co171 N180 2.022 . S
Co171 N188 1.993 . S
Co171 O196 1.941 . S
C172 O173 1.258 . S
C172 O174 1.263 . S
O173 Co170 1.970 . S
O173 C172 1.258 . S
O174 Co171 1.966 . S
O174 C172 1.263 . S
C175 O176 1.235 . S
C175 O202 1.289 . S
O176 C175 1.235 . S
C177 C179 1.400 . S
C177 N180 1.351 . S
C177 C182 1.501 . S
C178 C179 1.387 . S
C178 N181 1.341 . S
C179 C177 1.400 . S
C179 C178 1.387 . S
N180 Co171 2.022 . S
N180 C177 1.351 . S
N180 N181 1.365 . S
N181 C178 1.341 . S
N181 N180 1.365 . S
N181 H201 0.862 . S
C182 C177 1.501 . S
C182 H183 0.961 . S
C182 H184 0.961 . S
C182 H185 0.960 . S
H183 C182 0.961 . S
H184 C182 0.961 . S
H185 C182 0.960 . S
C186 N187 1.342 . S
C186 C190 1.401 . S
C186 C191 1.499 . S
N187 Co170 1.989 . S
N187 C186 1.342 . S
N187 N188 1.388 . S
N188 Co171 1.993 . S
N188 N187 1.388 . S
N188 C189 1.346 . S
C189 N188 1.346 . S
C189 C190 1.396 . S
C189 C199 1.510 . S
C190 C186 1.401 . S
C190 C189 1.396 . S
C191 C186 1.499 . S
C191 H192 0.959 . S
C191 H193 0.960 . S
C191 H194 0.961 . S
H192 C191 0.959 . S
H193 C191 0.960 . S
H194 C191 0.961 . S
O195 Co170 1.967 . S
O195 C203 1.258 . S
O196 Co171 1.941 . S
O196 C203 1.266 . S
H197 C199 0.959 . S
H198 C199 0.961 . S
C199 C189 1.510 . S
C199 H197 0.959 . S
C199 H198 0.961 . S
C199 H200 0.960 . S
H200 C199 0.960 . S
H201 N181 0.862 . S
O202 Co170 1.920 . S
O202 C175 1.289 . S
C203 O195 1.258 . S
C203 O196 1.266 . S
Co204 O207 1.970 . S
Co204 N221 1.989 . S
Co204 O229 1.967 . S
Co204 O236 1.920 . S
Co205 O208 1.966 . S
Co205 N214 2.022 . S
Co205 N222 1.993 . S
Co205 O230 1.941 . S
C206 O207 1.258 . S
C206 O208 1.263 . S
O207 Co204 1.970 . S
O207 C206 1.258 . S
O208 Co205 1.966 . S
O208 C206 1.263 . S
C209 O210 1.235 . S
C209 O236 1.289 . S
O210 C209 1.235 . S
C211 C213 1.400 . S
C211 N214 1.351 . S
C211 C216 1.501 . S
C212 C213 1.387 . S
C212 N215 1.341 . S
C213 C211 1.400 . S
C213 C212 1.387 . S
N214 Co205 2.022 . S
N214 C211 1.351 . S
N214 N215 1.365 . S
N215 C212 1.341 . S
N215 N214 1.365 . S
N215 H235 0.862 . S
C216 C211 1.501 . S
C216 H217 0.961 . S
C216 H218 0.961 . S
C216 H219 0.960 . S
H217 C216 0.961 . S
H218 C216 0.961 . S
H219 C216 0.960 . S
C220 N221 1.342 . S
C220 C224 1.401 . S
C220 C225 1.499 . S
N221 Co204 1.989 . S
N221 C220 1.342 . S
N221 N222 1.388 . S
N222 Co205 1.993 . S
N222 N221 1.388 . S
N222 C223 1.346 . S
C223 N222 1.346 . S
C223 C224 1.396 . S
C223 C233 1.510 . S
C224 C220 1.401 . S
C224 C223 1.396 . S
C225 C220 1.499 . S
C225 H226 0.959 . S
C225 H227 0.960 . S
C225 H228 0.961 . S
H226 C225 0.959 . S
H227 C225 0.960 . S
H228 C225 0.961 . S
O229 Co204 1.967 . S
O229 C237 1.258 . S
O230 Co205 1.941 . S
O230 C237 1.266 . S
H231 C233 0.959 . S
H232 C233 0.961 . S
C233 C223 1.510 . S
C233 H231 0.959 . S
C233 H232 0.961 . S
C233 H234 0.960 . S
H234 C233 0.960 . S
H235 N215 0.862 . S
O236 Co204 1.920 . S
O236 C209 1.289 . S
C237 O229 1.258 . S
C237 O230 1.266 . S
Co238 O241 1.970 . S
Co238 N255 1.989 . S
Co238 O263 1.967 . S
Co238 O270 1.920 . S
Co239 O242 1.966 . S
Co239 N248 2.022 . S
Co239 N256 1.993 . S
Co239 O264 1.941 . S
C240 O241 1.258 . S
C240 O242 1.263 . S
O241 Co238 1.970 . S
O241 C240 1.258 . S
O242 Co239 1.966 . S
O242 C240 1.263 . S
C243 O244 1.235 . S
C243 O270 1.289 . S
O244 C243 1.235 . S
C245 C247 1.400 . S
C245 N248 1.351 . S
C245 C250 1.501 . S
C246 C247 1.387 . S
C246 N249 1.341 . S
C247 C245 1.400 . S
C247 C246 1.387 . S
N248 Co239 2.022 . S
N248 C245 1.351 . S
N248 N249 1.365 . S
N249 C246 1.341 . S
N249 N248 1.365 . S
N249 H269 0.862 . S
C250 C245 1.501 . S
C250 H251 0.961 . S
C250 H252 0.961 . S
C250 H253 0.960 . S
H251 C250 0.961 . S
H252 C250 0.961 . S
H253 C250 0.960 . S
C254 N255 1.342 . S
C254 C258 1.401 . S
C254 C259 1.499 . S
N255 Co238 1.989 . S
N255 C254 1.342 . S
N255 N256 1.388 . S
N256 Co239 1.993 . S
N256 N255 1.388 . S
N256 C257 1.346 . S
C257 N256 1.346 . S
C257 C258 1.396 . S
C257 C267 1.510 . S
C258 C254 1.401 . S
C258 C257 1.396 . S
C259 C254 1.499 . S
C259 H260 0.959 . S
C259 H261 0.960 . S
C259 H262 0.961 . S
H260 C259 0.959 . S
H261 C259 0.960 . S
H262 C259 0.961 . S
O263 Co238 1.967 . S
O263 C271 1.258 . S
O264 Co239 1.941 . S
O264 C271 1.266 . S
H265 C267 0.959 . S
H266 C267 0.961 . S
C267 C257 1.510 . S
C267 H265 0.959 . S
C267 H266 0.961 . S
C267 H268 0.960 . S
H268 C267 0.960 . S
H269 N249 0.862 . S
O270 Co238 1.920 . S
O270 C243 1.289 . S
C271 O263 1.258 . S
C271 O264 1.266 . S
Co272 O275 1.970 . S
Co272 N289 1.989 . S
Co272 O297 1.967 . S
Co272 O304 1.920 . S
Co273 O276 1.966 . S
Co273 N282 2.022 . S
Co273 N290 1.993 . S
Co273 O298 1.941 . S
C274 O275 1.258 . S
C274 O276 1.263 . S
O275 Co272 1.970 . S
O275 C274 1.258 . S
O276 Co273 1.966 . S
O276 C274 1.263 . S
C277 O278 1.235 . S
C277 O304 1.289 . S
O278 C277 1.235 . S
C279 C281 1.400 . S
C279 N282 1.351 . S
C279 C284 1.501 . S
C280 C281 1.387 . S
C280 N283 1.341 . S
C281 C279 1.400 . S
C281 C280 1.387 . S
N282 Co273 2.022 . S
N282 C279 1.351 . S
N282 N283 1.365 . S
N283 C280 1.341 . S
N283 N282 1.365 . S
N283 H303 0.862 . S
C284 C279 1.501 . S
C284 H285 0.961 . S
C284 H286 0.961 . S
C284 H287 0.960 . S
H285 C284 0.961 . S
H286 C284 0.961 . S
H287 C284 0.960 . S
C288 N289 1.342 . S
C288 C292 1.401 . S
C288 C293 1.499 . S
N289 Co272 1.989 . S
N289 C288 1.342 . S
N289 N290 1.388 . S
N290 Co273 1.993 . S
N290 N289 1.388 . S
N290 C291 1.346 . S
C291 N290 1.346 . S
C291 C292 1.396 . S
C291 C301 1.510 . S
C292 C288 1.401 . S
C292 C291 1.396 . S
C293 C288 1.499 . S
C293 H294 0.959 . S
C293 H295 0.960 . S
C293 H296 0.961 . S
H294 C293 0.959 . S
H295 C293 0.960 . S
H296 C293 0.961 . S
O297 Co272 1.967 . S
O297 C305 1.258 . S
O298 Co273 1.941 . S
O298 C305 1.266 . S
H299 C301 0.959 . S
H300 C301 0.961 . S
C301 C291 1.510 . S
C301 H299 0.959 . S
C301 H300 0.961 . S
C301 H302 0.960 . S
H302 C301 0.960 . S
H303 N283 0.862 . S
O304 Co272 1.920 . S
O304 C277 1.289 . S
C305 O297 1.258 . S
C305 O298 1.266 . S
Co306 O309 1.970 . S
Co306 N323 1.989 . S
Co306 O331 1.967 . S
Co306 O338 1.920 . S
Co307 O310 1.966 . S
Co307 N316 2.022 . S
Co307 N324 1.993 . S
Co307 O332 1.941 . S
C308 O309 1.258 . S
C308 O310 1.263 . S
O309 Co306 1.970 . S
O309 C308 1.258 . S
O310 Co307 1.966 . S
O310 C308 1.263 . S
C311 O312 1.235 . S
C311 O338 1.289 . S
O312 C311 1.235 . S
C313 C315 1.400 . S
C313 N316 1.351 . S
C313 C318 1.501 . S
C314 C315 1.387 . S
C314 N317 1.341 . S
C315 C313 1.400 . S
C315 C314 1.387 . S
N316 Co307 2.022 . S
N316 C313 1.351 . S
N316 N317 1.365 . S
N317 C314 1.341 . S
N317 N316 1.365 . S
N317 H337 0.862 . S
C318 C313 1.501 . S
C318 H319 0.961 . S
C318 H320 0.961 . S
C318 H321 0.960 . S
H319 C318 0.961 . S
H320 C318 0.961 . S
H321 C318 0.960 . S
C322 N323 1.342 . S
C322 C326 1.401 . S
C322 C327 1.499 . S
N323 Co306 1.989 . S
N323 C322 1.342 . S
N323 N324 1.388 . S
N324 Co307 1.993 . S
N324 N323 1.388 . S
N324 C325 1.346 . S
C325 N324 1.346 . S
C325 C326 1.396 . S
C325 C335 1.510 . S
C326 C322 1.401 . S
C326 C325 1.396 . S
C327 C322 1.499 . S
C327 H328 0.959 . S
C327 H329 0.960 . S
C327 H330 0.961 . S
H328 C327 0.959 . S
H329 C327 0.960 . S
H330 C327 0.961 . S
O331 Co306 1.967 . S
O331 C339 1.258 . S
O332 Co307 1.941 . S
O332 C339 1.266 . S
H333 C335 0.959 . S
H334 C335 0.961 . S
C335 C325 1.510 . S
C335 H333 0.959 . S
C335 H334 0.961 . S
C335 H336 0.960 . S
H336 C335 0.960 . S
H337 N317 0.862 . S
O338 Co306 1.920 . S
O338 C311 1.289 . S
C339 O331 1.258 . S
C339 O332 1.266 . S
Co340 O343 1.970 . S
Co340 N357 1.989 . S
Co340 O365 1.967 . S
Co340 O372 1.920 . S
Co341 O344 1.966 . S
Co341 N350 2.022 . S
Co341 N358 1.993 . S
Co341 O366 1.941 . S
C342 O343 1.258 . S
C342 O344 1.263 . S
O343 Co340 1.970 . S
O343 C342 1.258 . S
O344 Co341 1.966 . S
O344 C342 1.263 . S
C345 O346 1.235 . S
C345 O372 1.289 . S
O346 C345 1.235 . S
C347 C349 1.400 . S
C347 N350 1.351 . S
C347 C352 1.501 . S
C348 C349 1.387 . S
C348 N351 1.341 . S
C349 C347 1.400 . S
C349 C348 1.387 . S
N350 Co341 2.022 . S
N350 C347 1.351 . S
N350 N351 1.365 . S
N351 C348 1.341 . S
N351 N350 1.365 . S
N351 H371 0.862 . S
C352 C347 1.501 . S
C352 H353 0.961 . S
C352 H354 0.961 . S
C352 H355 0.960 . S
H353 C352 0.961 . S
H354 C352 0.961 . S
H355 C352 0.960 . S
C356 N357 1.342 . S
C356 C360 1.401 . S
C356 C361 1.499 . S
N357 Co340 1.989 . S
N357 C356 1.342 . S
N357 N358 1.388 . S
N358 Co341 1.993 . S
N358 N357 1.388 . S
N358 C359 1.346 . S
C359 N358 1.346 . S
C359 C360 1.396 . S
C359 C369 1.510 . S
C360 C356 1.401 . S
C360 C359 1.396 . S
C361 C356 1.499 . S
C361 H362 0.959 . S
C361 H363 0.960 . S
C361 H364 0.961 . S
H362 C361 0.959 . S
H363 C361 0.960 . S
H364 C361 0.961 . S
O365 Co340 1.967 . S
O365 C373 1.258 . S
O366 Co341 1.941 . S
O366 C373 1.266 . S
H367 C369 0.959 . S
H368 C369 0.961 . S
C369 C359 1.510 . S
C369 H367 0.959 . S
C369 H368 0.961 . S
C369 H370 0.960 . S
H370 C369 0.960 . S
H371 N351 0.862 . S
O372 Co340 1.920 . S
O372 C345 1.289 . S
C373 O365 1.258 . S
C373 O366 1.266 . S
Co374 O377 1.970 . S
Co374 N391 1.989 . S
Co374 O399 1.967 . S
Co374 O406 1.920 . S
Co375 O378 1.966 . S
Co375 N384 2.022 . S
Co375 N392 1.993 . S
Co375 O400 1.941 . S
C376 O377 1.258 . S
C376 O378 1.263 . S
O377 Co374 1.970 . S
O377 C376 1.258 . S
O378 Co375 1.966 . S
O378 C376 1.263 . S
C379 O380 1.235 . S
C379 O406 1.289 . S
O380 C379 1.235 . S
C381 C383 1.400 . S
C381 N384 1.351 . S
C381 C386 1.501 . S
C382 C383 1.387 . S
C382 N385 1.341 . S
C383 C381 1.400 . S
C383 C382 1.387 . S
N384 Co375 2.022 . S
N384 C381 1.351 . S
N384 N385 1.365 . S
N385 C382 1.341 . S
N385 N384 1.365 . S
N385 H405 0.862 . S
C386 C381 1.501 . S
C386 H387 0.961 . S
C386 H388 0.961 . S
C386 H389 0.960 . S
H387 C386 0.961 . S
H388 C386 0.961 . S
H389 C386 0.960 . S
C390 N391 1.342 . S
C390 C394 1.401 . S
C390 C395 1.499 . S
N391 Co374 1.989 . S
N391 C390 1.342 . S
N391 N392 1.388 . S
N392 Co375 1.993 . S
N392 N391 1.388 . S
N392 C393 1.346 . S
C393 N392 1.346 . S
C393 C394 1.396 . S
C393 C403 1.510 . S
C394 C390 1.401 . S
C394 C393 1.396 . S
C395 C390 1.499 . S
C395 H396 0.959 . S
C395 H397 0.960 . S
C395 H398 0.961 . S
H396 C395 0.959 . S
H397 C395 0.960 . S
H398 C395 0.961 . S
O399 Co374 1.967 . S
O399 C407 1.258 . S
O400 Co375 1.941 . S
O400 C407 1.266 . S
H401 C403 0.959 . S
H402 C403 0.961 . S
C403 C393 1.510 . S
C403 H401 0.959 . S
C403 H402 0.961 . S
C403 H404 0.960 . S
H404 C403 0.960 . S
H405 N385 0.862 . S
O406 Co374 1.920 . S
O406 C379 1.289 . S
C407 O399 1.258 . S
C407 O400 1.266 . S
C408 C409 1.369 . S
C408 C410 1.419 . S
C408 H412 0.930 . S
C409 C408 1.369 . S
C409 C418 1.429 . S
C410 C408 1.419 . S
C410 C411 1.363 . S
C410 H413 0.929 . S
C411 C410 1.363 . S
C411 C417 1.428 . S
H412 C408 0.930 . S
H413 C410 0.929 . S
S414 N415 1.613 . S
S414 N416 1.610 . S
N415 S414 1.613 . S
N415 C418 1.350 . S
N416 S414 1.610 . S
N416 C417 1.351 . S
C417 C411 1.428 . S
C417 N416 1.351 . S
C417 C418 1.434 . S
C418 C409 1.429 . S
C418 N415 1.350 . S
C418 C417 1.434 . S
C419 C420 1.369 . S
C419 C421 1.419 . S
C419 H423 0.930 . S
C420 C419 1.369 . S
C420 C429 1.429 . S
C421 C419 1.419 . S
C421 C422 1.363 . S
C421 H424 0.929 . S
C422 C421 1.363 . S
C422 C428 1.428 . S
H423 C419 0.930 . S
H424 C421 0.929 . S
S425 N426 1.613 . S
S425 N427 1.610 . S
N426 S425 1.613 . S
N426 C429 1.350 . S
N427 S425 1.610 . S
N427 C428 1.351 . S
C428 C422 1.428 . S
C428 N427 1.351 . S
C428 C429 1.434 . S
C429 C420 1.429 . S
C429 N426 1.350 . S
C429 C428 1.434 . S
C430 C431 1.369 . S
C430 C432 1.419 . S
C430 H434 0.930 . S
C431 C430 1.369 . S
C431 C440 1.429 . S
C432 C430 1.419 . S
C432 C433 1.363 . S
C432 H435 0.929 . S
C433 C432 1.363 . S
C433 C439 1.428 . S
H434 C430 0.930 . S
H435 C432 0.929 . S
S436 N437 1.613 . S
S436 N438 1.610 . S
N437 S436 1.613 . S
N437 C440 1.350 . S
N438 S436 1.610 . S
N438 C439 1.351 . S
C439 C433 1.428 . S
C439 N438 1.351 . S
C439 C440 1.434 . S
C440 C431 1.429 . S
C440 N437 1.350 . S
C440 C439 1.434 . S
C441 C442 1.369 . S
C441 C443 1.419 . S
C441 H445 0.930 . S
C442 C441 1.369 . S
C442 C451 1.429 . S
C443 C441 1.419 . S
C443 C444 1.363 . S
C443 H446 0.929 . S
C444 C443 1.363 . S
C444 C450 1.428 . S
H445 C441 0.930 . S
H446 C443 0.929 . S
S447 N448 1.613 . S
S447 N449 1.610 . S
N448 S447 1.613 . S
N448 C451 1.350 . S
N449 S447 1.610 . S
N449 C450 1.351 . S
C450 C444 1.428 . S
C450 N449 1.351 . S
C450 C451 1.434 . S
C451 C442 1.429 . S
C451 N448 1.350 . S
C451 C450 1.434 . S
C452 C453 1.369 . S
C452 C454 1.419 . S
C452 H456 0.930 . S
C453 C452 1.369 . S
C453 C462 1.429 . S
C454 C452 1.419 . S
C454 C455 1.363 . S
C454 H457 0.929 . S
C455 C454 1.363 . S
C455 C461 1.428 . S
H456 C452 0.930 . S
H457 C454 0.929 . S
S458 N459 1.613 . S
S458 N460 1.610 . S
N459 S458 1.613 . S
N459 C462 1.350 . S
N460 S458 1.610 . S
N460 C461 1.351 . S
C461 C455 1.428 . S
C461 N460 1.351 . S
C461 C462 1.434 . S
C462 C453 1.429 . S
C462 N459 1.350 . S
C462 C461 1.434 . S
C463 C464 1.369 . S
C463 C465 1.419 . S
C463 H467 0.930 . S
C464 C463 1.369 . S
C464 C473 1.429 . S
C465 C463 1.419 . S
C465 C466 1.363 . S
C465 H468 0.929 . S
C466 C465 1.363 . S
C466 C472 1.428 . S
H467 C463 0.930 . S
H468 C465 0.929 . S
S469 N470 1.613 . S
S469 N471 1.610 . S
N470 S469 1.613 . S
N470 C473 1.350 . S
N471 S469 1.610 . S
N471 C472 1.351 . S
C472 C466 1.428 . S
C472 N471 1.351 . S
C472 C473 1.434 . S
C473 C464 1.429 . S
C473 N470 1.350 . S
C473 C472 1.434 . S
C474 C475 1.369 . S
C474 C476 1.419 . S
C474 H478 0.930 . S
C475 C474 1.369 . S
C475 C484 1.429 . S
C476 C474 1.419 . S
C476 C477 1.363 . S
C476 H479 0.929 . S
C477 C476 1.363 . S
C477 C483 1.428 . S
H478 C474 0.930 . S
H479 C476 0.929 . S
S480 N481 1.613 . S
S480 N482 1.610 . S
N481 S480 1.613 . S
N481 C484 1.350 . S
N482 S480 1.610 . S
N482 C483 1.351 . S
C483 C477 1.428 . S
C483 N482 1.351 . S
C483 C484 1.434 . S
C484 C475 1.429 . S
C484 N481 1.350 . S
C484 C483 1.434 . S
C485 C486 1.369 . S
C485 C487 1.419 . S
C485 H489 0.930 . S
C486 C485 1.369 . S
C486 C495 1.429 . S
C487 C485 1.419 . S
C487 C488 1.363 . S
C487 H490 0.929 . S
C488 C487 1.363 . S
C488 C494 1.428 . S
H489 C485 0.930 . S
H490 C487 0.929 . S
S491 N492 1.613 . S
S491 N493 1.610 . S
N492 S491 1.613 . S
N492 C495 1.350 . S
N493 S491 1.610 . S
N493 C494 1.351 . S
C494 C488 1.428 . S
C494 N493 1.351 . S
C494 C495 1.434 . S
C495 C486 1.429 . S
C495 N492 1.350 . S
C495 C494 1.434 . S
C496 C497 1.369 . S
C496 C498 1.419 . S
C496 H500 0.930 . S
C497 C496 1.369 . S
C497 C506 1.429 . S
C498 C496 1.419 . S
C498 C499 1.363 . S
C498 H501 0.929 . S
C499 C498 1.363 . S
C499 C505 1.428 . S
H500 C496 0.930 . S
H501 C498 0.929 . S
S502 N503 1.613 . S
S502 N504 1.610 . S
N503 S502 1.613 . S
N503 C506 1.350 . S
N504 S502 1.610 . S
N504 C505 1.351 . S
C505 C499 1.428 . S
C505 N504 1.351 . S
C505 C506 1.434 . S
C506 C497 1.429 . S
C506 N503 1.350 . S
C506 C505 1.434 . S
C507 C508 1.369 . S
C507 C509 1.419 . S
C507 H511 0.930 . S
C508 C507 1.369 . S
C508 C517 1.429 . S
C509 C507 1.419 . S
C509 C510 1.363 . S
C509 H512 0.929 . S
C510 C509 1.363 . S
C510 C516 1.428 . S
H511 C507 0.930 . S
H512 C509 0.929 . S
S513 N514 1.613 . S
S513 N515 1.610 . S
N514 S513 1.613 . S
N514 C517 1.350 . S
N515 S513 1.610 . S
N515 C516 1.351 . S
C516 C510 1.428 . S
C516 N515 1.351 . S
C516 C517 1.434 . S
C517 C508 1.429 . S
C517 N514 1.350 . S
C517 C516 1.434 . S
C518 C519 1.369 . S
C518 C520 1.419 . S
C518 H522 0.930 . S
C519 C518 1.369 . S
C519 C528 1.429 . S
C520 C518 1.419 . S
C520 C521 1.363 . S
C520 H523 0.929 . S
C521 C520 1.363 . S
C521 C527 1.428 . S
H522 C518 0.930 . S
H523 C520 0.929 . S
S524 N525 1.613 . S
S524 N526 1.610 . S
N525 S524 1.613 . S
N525 C528 1.350 . S
N526 S524 1.610 . S
N526 C527 1.351 . S
C527 C521 1.428 . S
C527 N526 1.351 . S
C527 C528 1.434 . S
C528 C519 1.429 . S
C528 N525 1.350 . S
C528 C527 1.434 . S
C529 C530 1.369 . S
C529 C531 1.419 . S
C529 H533 0.930 . S
C530 C529 1.369 . S
C530 C539 1.429 . S
C531 C529 1.419 . S
C531 C532 1.363 . S
C531 H534 0.929 . S
C532 C531 1.363 . S
C532 C538 1.428 . S
H533 C529 0.930 . S
H534 C531 0.929 . S
S535 N536 1.613 . S
S535 N537 1.610 . S
N536 S535 1.613 . S
N536 C539 1.350 . S
N537 S535 1.610 . S
N537 C538 1.351 . S
C538 C532 1.428 . S
C538 N537 1.351 . S
C538 C539 1.434 . S
C539 C530 1.429 . S
C539 N536 1.350 . S
C539 C538 1.434 . S
C540 C541 1.369 . S
C540 C542 1.419 1_554 S
C540 H544 0.930 . S
C541 C540 1.369 . S
C541 C550 1.429 . S
C542 C540 1.419 1_556 S
C542 C543 1.363 . S
C542 H545 0.929 . S
C543 C542 1.363 . S
C543 C549 1.428 1_545 S
H544 C540 0.930 . S
H545 C542 0.929 . S
S546 N547 1.613 1_565 S
S546 N548 1.610 1_554 S
N547 S546 1.613 1_545 S
N547 C550 1.350 . S
N548 S546 1.610 1_556 S
N548 C549 1.351 . S
C549 C543 1.428 1_565 S
C549 N548 1.351 . S
C549 C550 1.434 1_566 S
C550 C541 1.429 . S
C550 N547 1.350 . S
C550 C549 1.434 1_544 S
C551 C552 1.369 . S
C551 C553 1.419 1_554 S
C551 H555 0.930 . S
C552 C551 1.369 . S
C552 C561 1.429 . S
C553 C551 1.419 1_556 S
C553 C554 1.363 . S
C553 H556 0.929 . S
C554 C553 1.363 . S
C554 C560 1.428 . S
H555 C551 0.930 . S
H556 C553 0.929 . S
S557 N558 1.613 1_455 S
S557 N559 1.610 1_554 S
N558 S557 1.613 1_655 S
N558 C561 1.350 . S
N559 S557 1.610 1_556 S
N559 C560 1.351 1_455 S
C560 C554 1.428 . S
C560 N559 1.351 1_655 S
C560 C561 1.434 1_556 S
C561 C552 1.429 . S
C561 N558 1.350 . S
C561 C560 1.434 1_554 S
C562 C563 1.369 . S
C562 C564 1.419 1_554 S
C562 H566 0.930 . S
C563 C562 1.369 . S
C563 C572 1.429 . S
C564 C562 1.419 1_556 S
C564 C565 1.363 . S
C564 H567 0.929 . S
C565 C564 1.363 . S
C565 C571 1.428 1_556 S
H566 C562 0.930 . S
H567 C564 0.929 . S
S568 N569 1.613 . S
S568 N570 1.610 . S
N569 S568 1.613 . S
N569 C572 1.350 . S
N570 S568 1.610 . S
N570 C571 1.351 . S
C571 C565 1.428 1_554 S
C571 N570 1.351 . S
C571 C572 1.434 . S
C572 C563 1.429 . S
C572 N569 1.350 . S
C572 C571 1.434 . S
C573 C574 1.361 1_655 S
C573 C575 1.419 1_655 S
C573 H577 0.930 . S
C574 C573 1.361 1_455 S
C574 C583 1.451 . S
C575 C573 1.419 1_455 S
C575 C576 1.363 . S
C575 H578 0.929 1_455 S
C576 C575 1.363 . S
C576 C582 1.428 . S
H577 C573 0.930 . S
H578 C575 0.929 1_655 S
S579 N580 1.613 . S
S579 N581 1.610 . S
N580 S579 1.613 . S
N580 C583 1.350 . S
N581 S579 1.610 . S
N581 C582 1.351 . S
C582 C576 1.428 . S
C582 N581 1.351 . S
C582 C583 1.434 . S
C583 C574 1.451 . S
C583 N580 1.350 . S
C583 C582 1.434 . S
C584 C585 1.369 . S
C584 C586 1.419 . S
C584 H588 0.930 . S
C585 C584 1.369 . S
C585 C594 1.429 . S
C586 C584 1.419 . S
C586 C587 1.363 . S
C586 H589 0.929 . S
C587 C586 1.363 . S
C587 C593 1.428 . S
H588 C584 0.930 . S
H589 C586 0.929 . S
S590 N591 1.613 . S
S590 N592 1.610 . S
N591 S590 1.613 . S
N591 C594 1.350 . S
N592 S590 1.610 . S
N592 C593 1.351 . S
C593 C587 1.428 . S
C593 N592 1.351 . S
C593 C594 1.434 . S
C594 C585 1.429 . S
C594 N591 1.350 . S
C594 C593 1.434 . S
C595 C596 1.368 1_565 S
C595 C597 1.419 . S
C595 H599 0.930 . S
C596 C595 1.368 1_545 S
C596 C605 1.429 . S
C597 C595 1.419 . S
C597 C598 1.363 . S
C597 H600 0.929 . S
C598 C597 1.363 . S
C598 C604 1.428 . S
H599 C595 0.930 . S
H600 C597 0.929 . S
S601 N602 1.613 . S
S601 N603 1.610 . S
N602 S601 1.613 . S
N602 C605 1.350 . S
N603 S601 1.610 . S
N603 C604 1.351 1_545 S
C604 C598 1.428 . S
C604 N603 1.351 1_565 S
C604 C605 1.434 1_565 S
C605 C596 1.429 . S
C605 N602 1.350 . S
C605 C604 1.434 1_545 S
C606 C607 1.369 1_565 S
C606 C608 1.419 1_554 S
C606 H610 0.930 . S
C607 C606 1.369 1_545 S
C607 C616 1.429 . S
C608 C606 1.419 1_556 S
C608 C609 1.363 . S
C608 H611 0.929 . S
C609 C608 1.363 . S
C609 C615 1.428 . S
H610 C606 0.930 . S
H611 C608 0.929 . S
S612 N613 1.613 1_556 S
S612 N614 1.610 1_545 S
N613 S612 1.613 1_554 S
N613 C616 1.350 . S
N614 S612 1.610 1_565 S
N614 C615 1.351 . S
C615 C609 1.428 . S
C615 N614 1.351 . S
C615 C616 1.434 1_566 S
C616 C607 1.429 . S
C616 N613 1.350 . S
C616 C615 1.434 1_544 S
C617 C618 1.366 1_455 S
C617 C619 1.419 1_554 S
C617 H621 0.930 . S
C618 C617 1.366 1_655 S
C618 C627 1.430 1_554 S
C619 C617 1.419 1_556 S
C619 C620 1.363 . S
C619 H622 0.929 . S
C620 C619 1.363 . S
C620 C626 1.428 . S
H621 C617 0.930 . S
H622 C619 0.929 . S
S623 N624 1.613 . S
S623 N625 1.610 . S
N624 S623 1.613 . S
N624 C627 1.350 . S
N625 S623 1.610 . S
N625 C626 1.351 1_655 S
C626 C620 1.428 . S
C626 N625 1.351 1_455 S
C626 C627 1.434 1_455 S
C627 C618 1.430 1_556 S
C627 N624 1.350 . S
C627 C626 1.434 1_655 S
C628 C629 1.369 . S
C628 C630 1.419 . S
C628 H632 0.930 . S
C629 C628 1.369 . S
C629 C638 1.429 . S
C630 C628 1.419 . S
C630 C631 1.363 1_556 S
C630 H633 0.929 . S
C631 C630 1.363 1_554 S
C631 C637 1.428 . S
H632 C628 0.930 . S
H633 C630 0.929 . S
S634 N635 1.613 1_554 S
S634 N636 1.610 . S
N635 S634 1.613 1_556 S
N635 C638 1.350 . S
N636 S634 1.610 . S
N636 C637 1.351 . S
C637 C631 1.428 . S
C637 N636 1.351 . S
C637 C638 1.434 1_554 S
C638 C629 1.429 . S
C638 N635 1.350 . S
C638 C637 1.434 1_556 S
C639 C640 1.368 1_455 S
C639 C641 1.419 1_455 S
C639 H643 0.930 . S
C640 C639 1.368 1_655 S
C640 C649 1.443 . S
C641 C639 1.419 1_655 S
C641 C642 1.363 . S
C641 H644 0.929 1_655 S
C642 C641 1.363 . S
C642 C648 1.428 . S
H643 C639 0.930 . S
H644 C641 0.929 1_455 S
S645 N646 1.613 . S
S645 N647 1.610 . S
N646 S645 1.613 . S
N646 C649 1.350 . S
N647 S645 1.610 . S
N647 C648 1.351 . S
C648 C642 1.428 . S
C648 N647 1.351 . S
C648 C649 1.434 . S
C649 C640 1.443 . S
C649 N646 1.350 . S
C649 C648 1.434 . S
C650 C651 1.369 . S
C650 C652 1.419 . S
C650 H654 0.930 . S
C651 C650 1.369 . S
C651 C660 1.429 . S
C652 C650 1.419 . S
C652 C653 1.363 . S
C652 H655 0.929 . S
C653 C652 1.363 . S
C653 C659 1.428 . S
H654 C650 0.930 . S
H655 C652 0.929 . S
S656 N657 1.613 . S
S656 N658 1.610 . S
N657 S656 1.613 . S
N657 C660 1.350 . S
N658 S656 1.610 . S
N658 C659 1.351 . S
C659 C653 1.428 . S
C659 N658 1.351 . S
C659 C660 1.434 . S
C660 C651 1.429 . S
C660 N657 1.350 . S
C660 C659 1.434 . S
C661 C662 1.369 . S
C661 C663 1.419 . S
C661 H665 0.930 . S
C662 C661 1.369 . S
C662 C671 1.429 . S
C663 C661 1.419 . S
C663 C664 1.363 1_545 S
C663 H666 0.929 . S
C664 C663 1.363 1_565 S
C664 C670 1.428 . S
H665 C661 0.930 . S
H666 C663 0.929 . S
S667 N668 1.613 . S
S667 N669 1.610 . S
N668 S667 1.613 . S
N668 C671 1.350 1_565 S
N669 S667 1.610 . S
N669 C670 1.351 . S
C670 C664 1.428 . S
C670 N669 1.351 . S
C670 C671 1.434 1_565 S
C671 C662 1.429 . S
C671 N668 1.350 1_545 S
C671 C670 1.434 1_545 S
C672 C673 1.369 . S
C672 C674 1.419 . S
C672 H676 0.930 . S
C673 C672 1.369 . S
C673 C682 1.429 . S
C674 C672 1.419 . S
C674 C675 1.363 . S
C674 H677 0.929 . S
C675 C674 1.363 . S
C675 C681 1.428 . S
H676 C672 0.930 . S
H677 C674 0.929 . S
S678 N679 1.613 . S
S678 N680 1.610 . S
N679 S678 1.613 . S
N679 C682 1.350 . S
N680 S678 1.610 . S
N680 C681 1.351 . S
C681 C675 1.428 . S
C681 N680 1.351 . S
C681 C682 1.434 . S
C682 C673 1.429 . S
C682 N679 1.350 . S
C682 C681 1.434 . S
C683 C684 1.369 . S
C683 C685 1.419 1_545 S
C683 H687 0.930 . S
C684 C683 1.369 . S
C684 C693 1.429 . S
C685 C683 1.419 1_565 S
C685 C686 1.363 . S
C685 H688 0.929 . S
C686 C685 1.363 . S
C686 C692 1.428 . S
H687 C683 0.930 . S
H688 C685 0.929 . S
S689 N690 1.613 1_565 S
S689 N691 1.610 . S
N690 S689 1.613 1_545 S
N690 C693 1.350 . S
N691 S689 1.610 . S
N691 C692 1.351 . S
C692 C686 1.428 . S
C692 N691 1.351 . S
C692 C693 1.434 1_565 S
C693 C684 1.429 . S
C693 N690 1.350 . S
C693 C692 1.434 1_545 S
C694 C695 1.369 . S
C694 C696 1.419 1_655 S
C694 H698 0.930 . S
C695 C694 1.369 . S
C695 C704 1.429 . S
C696 C694 1.419 1_455 S
C696 C697 1.363 . S
C696 H699 0.929 . S
C697 C696 1.363 . S
C697 C703 1.428 . S
H698 C694 0.930 . S
H699 C696 0.929 . S
S700 N701 1.613 . S
S700 N702 1.610 1_655 S
N701 S700 1.613 . S
N701 C704 1.350 . S
N702 S700 1.610 1_455 S
N702 C703 1.351 . S
C703 C697 1.428 . S
C703 N702 1.351 . S
C703 C704 1.434 1_455 S
C704 C695 1.429 . S
C704 N701 1.350 . S
C704 C703 1.434 1_655 S
C705 C706 1.369 . S
C705 C707 1.419 . S
C705 H709 0.930 . S
C706 C705 1.369 . S
C706 C715 1.429 . S
C707 C705 1.419 . S
C707 C708 1.363 . S
C707 H710 0.929 . S
C708 C707 1.363 . S
C708 C714 1.428 . S
H709 C705 0.930 . S
H710 C707 0.929 . S
S711 N712 1.613 . S
S711 N713 1.610 . S
N712 S711 1.613 . S
N712 C715 1.350 . S
N713 S711 1.610 . S
N713 C714 1.351 . S
C714 C708 1.428 . S
C714 N713 1.351 . S
C714 C715 1.434 . S
C715 C706 1.429 . S
C715 N712 1.350 . S
C715 C714 1.434 . S
C716 C717 1.369 . S
C716 C718 1.419 1_565 S
C716 H720 0.930 . S
C717 C716 1.369 . S
C717 C726 1.429 . S
C718 C716 1.419 1_545 S
C718 C719 1.363 . S
C718 H721 0.929 . S
C719 C718 1.363 . S
C719 C725 1.428 . S
H720 C716 0.930 . S
H721 C718 0.929 . S
S722 N723 1.613 . S
S722 N724 1.610 1_565 S
N723 S722 1.613 . S
N723 C726 1.350 . S
N724 S722 1.610 1_545 S
N724 C725 1.351 . S
C725 C719 1.428 . S
C725 N724 1.351 . S
C725 C726 1.434 1_545 S
C726 C717 1.429 . S
C726 N723 1.350 . S
C726 C725 1.434 1_565 S
C727 C728 1.369 . S
C727 C729 1.419 1_455 S
C727 H731 0.930 . S
C728 C727 1.369 . S
C728 C737 1.429 . S
C729 C727 1.419 1_655 S
C729 C730 1.363 . S
C729 H732 0.929 . S
C730 C729 1.363 . S
C730 C736 1.428 . S
H731 C727 0.930 . S
H732 C729 0.929 . S
S733 N734 1.613 1_655 S
S733 N735 1.610 . S
N734 S733 1.613 1_455 S
N734 C737 1.350 . S
N735 S733 1.610 . S
N735 C736 1.351 . S
C736 C730 1.428 . S
C736 N735 1.351 . S
C736 C737 1.434 1_655 S
C737 C728 1.429 . S
C737 N734 1.350 . S
C737 C736 1.434 1_455 S
C409 C36 1.808 . S
C411 C9 1.812 . S
C420 C43 1.812 . S
C422 C70 1.806 . S
C431 C77 1.816 . S
C433 C2 1.804 . S
C442 C111 1.812 . S
C444 C172 1.806 . S
C453 C145 1.814 . S
C455 C104 1.806 . S
C464 C138 1.805 . S
C466 C179 1.815 . S
C475 C240 1.808 . S
C477 C213 1.812 . S
C486 C274 1.808 . S
C488 C247 1.812 . S
C497 C206 1.803 . S
C499 C281 1.815 . S
C508 C315 1.816 . S
C510 C376 1.804 . S
C519 C308 1.804 . S
C521 C349 1.815 . S
C530 C383 1.811 . S
C532 C342 1.808 . S
C541 C20 1.447 . S
C543 C243 1.432 1_545 S
C552 C54 1.446 . S
C554 C277 1.431 1_655 S
C563 C88 1.447 . S
C565 C209 1.428 . S
C574 C379 1.419 1_455 S
C576 C122 1.439 . S
C585 C156 1.443 . S
C587 C311 1.435 . S
C596 C345 1.429 . S
C598 C190 1.446 . S
C607 C39 1.429 . S
C609 C224 1.446 . S
C618 C73 1.429 . S
C620 C258 1.446 . S
C629 C292 1.438 . S
C631 C5 1.436 . S
C640 C175 1.419 1_655 S
C642 C326 1.439 . S
C651 C360 1.444 . S
C653 C107 1.430 . S
C662 C394 1.448 . S
C664 C141 1.428 . S
C673 C135 1.839 . S
C675 C33 1.841 . S
C684 C67 1.836 . S
C686 C169 1.845 . S
C695 C101 1.846 . S
C697 C203 1.838 . S
C706 C339 1.840 . S
C708 C237 1.840 . S
C717 C271 1.846 . S
C719 C373 1.840 . S
C728 C305 1.837 . S
C730 C407 1.843 . S
