# Generated by pormake.
# Topology unx, (4)-cn, num edge types: 1
# Building blocks:
#     Node 0, Type 0, BuildingBlock: GALJAG_clean_sbu_0, # of connection points: 4
#     Node 1, Type 0, BuildingBlock: GALJAG_clean_sbu_0, # of connection points: 4
#     Node 2, Type 0, BuildingBlock: GALJAG_clean_sbu_0, # of connection points: 4
#     Node 3, Type 0, BuildingBlock: GALJAG_clean_sbu_0, # of connection points: 4
#     Node 4, Type 0, BuildingBlock: GALJAG_clean_sbu_0, # of connection points: 4
#     Node 5, Type 0, BuildingBlock: GALJAG_clean_sbu_0, # of connection points: 4
#     Node 6, Type 0, BuildingBlock: GALJAG_clean_sbu_0, # of connection points: 4
#     Node 7, Type 0, BuildingBlock: GALJAG_clean_sbu_0, # of connection points: 4
#     Node 8, Type 0, BuildingBlock: GALJAG_clean_sbu_0, # of connection points: 4
#     Node 9, Type 0, BuildingBlock: GALJAG_clean_sbu_0, # of connection points: 4
#     Node 10, Type 0, BuildingBlock: GALJAG_clean_sbu_0, # of connection points: 4
#     Node 11, Type 0, BuildingBlock: GALJAG_clean_sbu_0, # of connection points: 4
#     Node 12, Type 0, BuildingBlock: GALJAG_clean_sbu_0, # of connection points: 4
#     Node 13, Type 0, BuildingBlock: GALJAG_clean_sbu_0, # of connection points: 4
#     Node 14, Type 0, BuildingBlock: GALJAG_clean_sbu_0, # of connection points: 4
#     Node 15, Type 0, BuildingBlock: GALJAG_clean_sbu_0, # of connection points: 4
#     Node 16, Type 0, BuildingBlock: GALJAG_clean_sbu_0, # of connection points: 4
#     Node 17, Type 0, BuildingBlock: GALJAG_clean_sbu_0, # of connection points: 4
#     Node 18, Type 0, BuildingBlock: GALJAG_clean_sbu_0, # of connection points: 4
#     Node 19, Type 0, BuildingBlock: GALJAG_clean_sbu_0, # of connection points: 4
#     Node 20, Type 0, BuildingBlock: GALJAG_clean_sbu_0, # of connection points: 4
#     Node 21, Type 0, BuildingBlock: GALJAG_clean_sbu_0, # of connection points: 4
#     Node 22, Type 0, BuildingBlock: GALJAG_clean_sbu_0, # of connection points: 4
#     Node 23, Type 0, BuildingBlock: GALJAG_clean_sbu_0, # of connection points: 4
#     Node 24, Type 0, BuildingBlock: GALJAG_clean_sbu_0, # of connection points: 4
#     Node 25, Type 0, BuildingBlock: GALJAG_clean_sbu_0, # of connection points: 4
#     Node 26, Type 0, BuildingBlock: GALJAG_clean_sbu_0, # of connection points: 4
#     Node 27, Type 0, BuildingBlock: GALJAG_clean_sbu_0, # of connection points: 4
#     Node 28, Type 0, BuildingBlock: GALJAG_clean_sbu_0, # of connection points: 4
#     Node 29, Type 0, BuildingBlock: GALJAG_clean_sbu_0, # of connection points: 4
#     Node 30, Type 0, BuildingBlock: GALJAG_clean_sbu_0, # of connection points: 4
#     Node 31, Type 0, BuildingBlock: GALJAG_clean_sbu_0, # of connection points: 4
#     Node 32, Type 0, BuildingBlock: GALJAG_clean_sbu_0, # of connection points: 4
#     Node 33, Type 0, BuildingBlock: GALJAG_clean_sbu_0, # of connection points: 4
#     Node 34, Type 0, BuildingBlock: GALJAG_clean_sbu_0, # of connection points: 4
#     Node 35, Type 0, BuildingBlock: GALJAG_clean_sbu_0, # of connection points: 4
#     Node 36, Type 0, BuildingBlock: GALJAG_clean_sbu_0, # of connection points: 4
#     Node 37, Type 0, BuildingBlock: GALJAG_clean_sbu_0, # of connection points: 4
#     Node 38, Type 0, BuildingBlock: GALJAG_clean_sbu_0, # of connection points: 4
#     Node 39, Type 0, BuildingBlock: GALJAG_clean_sbu_0, # of connection points: 4
#     Node 40, Type 0, BuildingBlock: GALJAG_clean_sbu_0, # of connection points: 4
#     Node 41, Type 0, BuildingBlock: GALJAG_clean_sbu_0, # of connection points: 4
#     Node 42, Type 0, BuildingBlock: GALJAG_clean_sbu_0, # of connection points: 4
#     Node 43, Type 0, BuildingBlock: GALJAG_clean_sbu_0, # of connection points: 4
#     Node 44, Type 0, BuildingBlock: GALJAG_clean_sbu_0, # of connection points: 4
#     Node 45, Type 0, BuildingBlock: GALJAG_clean_sbu_0, # of connection points: 4
#     Node 46, Type 0, BuildingBlock: GALJAG_clean_sbu_0, # of connection points: 4
#     Node 47, Type 0, BuildingBlock: GALJAG_clean_sbu_0, # of connection points: 4
#     Edge 48, Type (0, 0), BuildingBlock: UVAHIK_clean_linker_0, # of connection points: 2
#     Edge 49, Type (0, 0), BuildingBlock: UVAHIK_clean_linker_0, # of connection points: 2
#     Edge 50, Type (0, 0), BuildingBlock: UVAHIK_clean_linker_0, # of connection points: 2
#     Edge 51, Type (0, 0), BuildingBlock: UVAHIK_clean_linker_0, # of connection points: 2
#     Edge 52, Type (0, 0), BuildingBlock: UVAHIK_clean_linker_0, # of connection points: 2
#     Edge 53, Type (0, 0), BuildingBlock: UVAHIK_clean_linker_0, # of connection points: 2
#     Edge 54, Type (0, 0), BuildingBlock: UVAHIK_clean_linker_0, # of connection points: 2
#     Edge 55, Type (0, 0), BuildingBlock: UVAHIK_clean_linker_0, # of connection points: 2
#     Edge 56, Type (0, 0), BuildingBlock: UVAHIK_clean_linker_0, # of connection points: 2
#     Edge 57, Type (0, 0), BuildingBlock: UVAHIK_clean_linker_0, # of connection points: 2
#     Edge 58, Type (0, 0), BuildingBlock: UVAHIK_clean_linker_0, # of connection points: 2
#     Edge 59, Type (0, 0), BuildingBlock: UVAHIK_clean_linker_0, # of connection points: 2
#     Edge 60, Type (0, 0), BuildingBlock: UVAHIK_clean_linker_0, # of connection points: 2
#     Edge 61, Type (0, 0), BuildingBlock: UVAHIK_clean_linker_0, # of connection points: 2
#     Edge 62, Type (0, 0), BuildingBlock: UVAHIK_clean_linker_0, # of connection points: 2
#     Edge 63, Type (0, 0), BuildingBlock: UVAHIK_clean_linker_0, # of connection points: 2
#     Edge 64, Type (0, 0), BuildingBlock: UVAHIK_clean_linker_0, # of connection points: 2
#     Edge 65, Type (0, 0), BuildingBlock: UVAHIK_clean_linker_0, # of connection points: 2
#     Edge 66, Type (0, 0), BuildingBlock: UVAHIK_clean_linker_0, # of connection points: 2
#     Edge 67, Type (0, 0), BuildingBlock: UVAHIK_clean_linker_0, # of connection points: 2
#     Edge 68, Type (0, 0), BuildingBlock: UVAHIK_clean_linker_0, # of connection points: 2
#     Edge 69, Type (0, 0), BuildingBlock: UVAHIK_clean_linker_0, # of connection points: 2
#     Edge 70, Type (0, 0), BuildingBlock: UVAHIK_clean_linker_0, # of connection points: 2
#     Edge 71, Type (0, 0), BuildingBlock: UVAHIK_clean_linker_0, # of connection points: 2
#     Edge 72, Type (0, 0), BuildingBlock: UVAHIK_clean_linker_0, # of connection points: 2
#     Edge 73, Type (0, 0), BuildingBlock: UVAHIK_clean_linker_0, # of connection points: 2
#     Edge 74, Type (0, 0), BuildingBlock: UVAHIK_clean_linker_0, # of connection points: 2
#     Edge 75, Type (0, 0), BuildingBlock: UVAHIK_clean_linker_0, # of connection points: 2
#     Edge 76, Type (0, 0), BuildingBlock: UVAHIK_clean_linker_0, # of connection points: 2
#     Edge 77, Type (0, 0), BuildingBlock: UVAHIK_clean_linker_0, # of connection points: 2
#     Edge 78, Type (0, 0), BuildingBlock: UVAHIK_clean_linker_0, # of connection points: 2
#     Edge 79, Type (0, 0), BuildingBlock: UVAHIK_clean_linker_0, # of connection points: 2
#     Edge 80, Type (0, 0), BuildingBlock: UVAHIK_clean_linker_0, # of connection points: 2
#     Edge 81, Type (0, 0), BuildingBlock: UVAHIK_clean_linker_0, # of connection points: 2
#     Edge 82, Type (0, 0), BuildingBlock: UVAHIK_clean_linker_0, # of connection points: 2
#     Edge 83, Type (0, 0), BuildingBlock: UVAHIK_clean_linker_0, # of connection points: 2
#     Edge 84, Type (0, 0), BuildingBlock: UVAHIK_clean_linker_0, # of connection points: 2
#     Edge 85, Type (0, 0), BuildingBlock: UVAHIK_clean_linker_0, # of connection points: 2
#     Edge 86, Type (0, 0), BuildingBlock: UVAHIK_clean_linker_0, # of connection points: 2
#     Edge 87, Type (0, 0), BuildingBlock: UVAHIK_clean_linker_0, # of connection points: 2
#     Edge 88, Type (0, 0), BuildingBlock: UVAHIK_clean_linker_0, # of connection points: 2
#     Edge 89, Type (0, 0), BuildingBlock: UVAHIK_clean_linker_0, # of connection points: 2
#     Edge 90, Type (0, 0), BuildingBlock: UVAHIK_clean_linker_0, # of connection points: 2
#     Edge 91, Type (0, 0), BuildingBlock: UVAHIK_clean_linker_0, # of connection points: 2
#     Edge 92, Type (0, 0), BuildingBlock: UVAHIK_clean_linker_0, # of connection points: 2
#     Edge 93, Type (0, 0), BuildingBlock: UVAHIK_clean_linker_0, # of connection points: 2
#     Edge 94, Type (0, 0), BuildingBlock: UVAHIK_clean_linker_0, # of connection points: 2
#     Edge 95, Type (0, 0), BuildingBlock: UVAHIK_clean_linker_0, # of connection points: 2
#     Edge 96, Type (0, 0), BuildingBlock: UVAHIK_clean_linker_0, # of connection points: 2
#     Edge 97, Type (0, 0), BuildingBlock: UVAHIK_clean_linker_0, # of connection points: 2
#     Edge 98, Type (0, 0), BuildingBlock: UVAHIK_clean_linker_0, # of connection points: 2
#     Edge 99, Type (0, 0), BuildingBlock: UVAHIK_clean_linker_0, # of connection points: 2
#     Edge 100, Type (0, 0), BuildingBlock: UVAHIK_clean_linker_0, # of connection points: 2
#     Edge 101, Type (0, 0), BuildingBlock: UVAHIK_clean_linker_0, # of connection points: 2
#     Edge 102, Type (0, 0), BuildingBlock: UVAHIK_clean_linker_0, # of connection points: 2
#     Edge 103, Type (0, 0), BuildingBlock: UVAHIK_clean_linker_0, # of connection points: 2
#     Edge 104, Type (0, 0), BuildingBlock: UVAHIK_clean_linker_0, # of connection points: 2
#     Edge 105, Type (0, 0), BuildingBlock: UVAHIK_clean_linker_0, # of connection points: 2
#     Edge 106, Type (0, 0), BuildingBlock: UVAHIK_clean_linker_0, # of connection points: 2
#     Edge 107, Type (0, 0), BuildingBlock: UVAHIK_clean_linker_0, # of connection points: 2
#     Edge 108, Type (0, 0), BuildingBlock: UVAHIK_clean_linker_0, # of connection points: 2
#     Edge 109, Type (0, 0), BuildingBlock: UVAHIK_clean_linker_0, # of connection points: 2
#     Edge 110, Type (0, 0), BuildingBlock: UVAHIK_clean_linker_0, # of connection points: 2
#     Edge 111, Type (0, 0), BuildingBlock: UVAHIK_clean_linker_0, # of connection points: 2
#     Edge 112, Type (0, 0), BuildingBlock: UVAHIK_clean_linker_0, # of connection points: 2
#     Edge 113, Type (0, 0), BuildingBlock: UVAHIK_clean_linker_0, # of connection points: 2
#     Edge 114, Type (0, 0), BuildingBlock: UVAHIK_clean_linker_0, # of connection points: 2
#     Edge 115, Type (0, 0), BuildingBlock: UVAHIK_clean_linker_0, # of connection points: 2
#     Edge 116, Type (0, 0), BuildingBlock: UVAHIK_clean_linker_0, # of connection points: 2
#     Edge 117, Type (0, 0), BuildingBlock: UVAHIK_clean_linker_0, # of connection points: 2
#     Edge 118, Type (0, 0), BuildingBlock: UVAHIK_clean_linker_0, # of connection points: 2
#     Edge 119, Type (0, 0), BuildingBlock: UVAHIK_clean_linker_0, # of connection points: 2
#     Edge 120, Type (0, 0), BuildingBlock: UVAHIK_clean_linker_0, # of connection points: 2
#     Edge 121, Type (0, 0), BuildingBlock: UVAHIK_clean_linker_0, # of connection points: 2
#     Edge 122, Type (0, 0), BuildingBlock: UVAHIK_clean_linker_0, # of connection points: 2
#     Edge 123, Type (0, 0), BuildingBlock: UVAHIK_clean_linker_0, # of connection points: 2
#     Edge 124, Type (0, 0), BuildingBlock: UVAHIK_clean_linker_0, # of connection points: 2
#     Edge 125, Type (0, 0), BuildingBlock: UVAHIK_clean_linker_0, # of connection points: 2
#     Edge 126, Type (0, 0), BuildingBlock: UVAHIK_clean_linker_0, # of connection points: 2
#     Edge 127, Type (0, 0), BuildingBlock: UVAHIK_clean_linker_0, # of connection points: 2
#     Edge 128, Type (0, 0), BuildingBlock: UVAHIK_clean_linker_0, # of connection points: 2
#     Edge 129, Type (0, 0), BuildingBlock: UVAHIK_clean_linker_0, # of connection points: 2
#     Edge 130, Type (0, 0), BuildingBlock: UVAHIK_clean_linker_0, # of connection points: 2
#     Edge 131, Type (0, 0), BuildingBlock: UVAHIK_clean_linker_0, # of connection points: 2
#     Edge 132, Type (0, 0), BuildingBlock: UVAHIK_clean_linker_0, # of connection points: 2
#     Edge 133, Type (0, 0), BuildingBlock: UVAHIK_clean_linker_0, # of connection points: 2
#     Edge 134, Type (0, 0), BuildingBlock: UVAHIK_clean_linker_0, # of connection points: 2
#     Edge 135, Type (0, 0), BuildingBlock: UVAHIK_clean_linker_0, # of connection points: 2
#     Edge 136, Type (0, 0), BuildingBlock: UVAHIK_clean_linker_0, # of connection points: 2
#     Edge 137, Type (0, 0), BuildingBlock: UVAHIK_clean_linker_0, # of connection points: 2
#     Edge 138, Type (0, 0), BuildingBlock: UVAHIK_clean_linker_0, # of connection points: 2
#     Edge 139, Type (0, 0), BuildingBlock: UVAHIK_clean_linker_0, # of connection points: 2
#     Edge 140, Type (0, 0), BuildingBlock: UVAHIK_clean_linker_0, # of connection points: 2
#     Edge 141, Type (0, 0), BuildingBlock: UVAHIK_clean_linker_0, # of connection points: 2
#     Edge 142, Type (0, 0), BuildingBlock: UVAHIK_clean_linker_0, # of connection points: 2
#     Edge 143, Type (0, 0), BuildingBlock: UVAHIK_clean_linker_0, # of connection points: 2
# Relax obj value: 0.526
# Max RMSD: 0.259
# Mean RMSD: 0.214
data_MOF--net-unx--node1-GALJAG_clean_sbu_0--edge1-UVAHIK_clean_linker_0
_symmetry_space_group_name_H-M    P1
_symmetry_Int_Tables_number       1
_symmetry_cell_setting            triclinic
loop_
_symmetry_equiv_pos_as_xyz
'x, y, z'
_cell_length_a     70.424651
_cell_length_b     70.68222
_cell_length_c     69.768321
_cell_angle_alpha  89.90773
_cell_angle_beta   90.057452
_cell_angle_gamma 90.411147
loop_
_atom_site_label
_atom_site_type_symbol
_atom_site_fract_x
_atom_site_fract_y
_atom_site_fract_z
_atom_type_partial_charge
In0 In 0.1869 0.52511 0.2089 0.0
O1 O 0.21123 0.5466 0.2094 0.0
O2 O 0.2126 0.52298 0.22832 0.0
C3 C 0.16745 0.54948 0.18706 0.0
C4 C 0.20311 0.49886 0.18621 0.0
C5 C 0.16067 0.52012 0.23668 0.0
O6 O 0.1805 0.55474 0.19836 0.0
O7 O 0.16434 0.53185 0.18666 0.0
O8 O 0.16229 0.50861 0.22294 0.0
O9 O 0.17291 0.53317 0.23683 0.0
C10 C 0.22062 0.5377 0.2219 0.0
O11 O 0.20292 0.49734 0.20423 0.0
O12 O 0.19356 0.51248 0.17982 0.0
In13 In 0.69624 0.32614 0.47284 0.0
O14 O 0.66428 0.32485 0.4667 0.0
O15 O 0.68302 0.31029 0.448 0.0
C16 C 0.69912 0.35079 0.50189 0.0
C17 C 0.70642 0.29239 0.48705 0.0
C18 C 0.71199 0.34995 0.44737 0.0
O19 O 0.68325 0.34441 0.49621 0.0
O20 O 0.71343 0.34362 0.49384 0.0
O21 O 0.72022 0.33479 0.45218 0.0
O22 O 0.696 0.35254 0.45498 0.0
C23 C 0.66615 0.31457 0.45201 0.0
O24 O 0.71563 0.30048 0.47378 0.0
O25 O 0.69292 0.30192 0.49385 0.0
In26 In 0.93446 0.89793 0.68902 0.0
O27 O 0.91555 0.89116 0.71484 0.0
O28 O 0.91545 0.91914 0.7033 0.0
C29 C 0.95324 0.86694 0.67818 0.0
C30 C 0.9104 0.89649 0.65925 0.0
C31 C 0.96564 0.91719 0.69925 0.0
O32 O 0.94272 0.86687 0.69294 0.0
O33 O 0.95428 0.88255 0.66941 0.0
O34 O 0.95552 0.92228 0.68513 0.0
O35 O 0.95937 0.90312 0.70857 0.0
C36 C 0.90855 0.90762 0.71532 0.0
O37 O 0.92219 0.91003 0.66097 0.0
O38 O 0.91087 0.88433 0.67248 0.0
In39 In 0.32231 0.07203 0.91766 0.0
O40 O 0.35225 0.08542 0.919 0.0
O41 O 0.3352 0.08979 0.89422 0.0
C42 C 0.32194 0.04405 0.94361 0.0
C43 C 0.30127 0.09957 0.93332 0.0
C44 C 0.31728 0.049 0.88755 0.0
O45 O 0.337 0.053 0.93936 0.0
O46 O 0.30704 0.04998 0.93552 0.0
O47 O 0.30658 0.06308 0.89024 0.0
O48 O 0.32999 0.04665 0.90005 0.0
C49 C 0.35074 0.09292 0.90259 0.0
O50 O 0.2955 0.09022 0.91897 0.0
O51 O 0.31711 0.0945 0.93992 0.0
In52 In 0.07181 0.40772 0.81579 0.0
O53 O 0.06465 0.3762 0.81159 0.0
O54 O 0.05456 0.39031 0.83651 0.0
C55 C 0.09492 0.41791 0.78689 0.0
C56 C 0.03982 0.42702 0.80937 0.0
C57 C 0.09831 0.40959 0.84345 0.0
O58 O 0.0888 0.40112 0.78872 0.0
O59 O 0.08836 0.42954 0.79887 0.0
O60 O 0.08406 0.4204 0.84352 0.0
O61 O 0.09893 0.39814 0.82965 0.0
C62 C 0.05542 0.37513 0.82713 0.0
O63 O 0.05146 0.43164 0.82241 0.0
O64 O 0.04488 0.41328 0.79903 0.0
In65 In 0.8092 0.42769 0.08115 0.0
O66 O 0.79263 0.43498 0.10851 0.0
O67 O 0.81761 0.45086 0.10144 0.0
C68 C 0.79 0.40151 0.06109 0.0
C69 C 0.80922 0.45712 0.05702 0.0
C70 C 0.83555 0.40466 0.09616 0.0
O71 O 0.78296 0.40915 0.07585 0.0
O72 O 0.8061 0.40781 0.05618 0.0
O73 O 0.83987 0.4168 0.08349 0.0
O74 O 0.81829 0.40436 0.10089 0.0
C75 C 0.80411 0.44815 0.11296 0.0
O76 O 0.82404 0.44754 0.06023 0.0
O77 O 0.79434 0.45123 0.06535 0.0
In78 In 0.81056 0.02999 0.28813 0.0
O79 O 0.81876 0.05897 0.30036 0.0
O80 O 0.82861 0.03451 0.31483 0.0
C81 C 0.77864 0.04222 0.27105 0.0
C82 C 0.83682 0.02358 0.26071 0.0
C83 C 0.79605 0.00366 0.31217 0.0
O84 O 0.78756 0.05186 0.2834 0.0
O85 O 0.78623 0.02661 0.26679 0.0
O86 O 0.81324 0.00348 0.30702 0.0
O87 O 0.78629 0.01651 0.30459 0.0
C88 C 0.82814 0.05229 0.31418 0.0
O89 O 0.82753 0.01029 0.26846 0.0
O90 O 0.83234 0.03985 0.26632 0.0
In91 In 0.18407 0.17291 0.52042 0.0
O92 O 0.21006 0.16367 0.53803 0.0
O93 O 0.18497 0.1466 0.53836 0.0
C94 C 0.19536 0.2055 0.50409 0.0
C95 C 0.18137 0.14704 0.49245 0.0
C96 C 0.15643 0.18607 0.54344 0.0
O97 O 0.20462 0.19778 0.51747 0.0
O98 O 0.18102 0.19628 0.49845 0.0
O99 O 0.15289 0.17826 0.52754 0.0
O100 O 0.17381 0.18725 0.54758 0.0
C101 C 0.20187 0.14875 0.54391 0.0
O102 O 0.16703 0.15303 0.50142 0.0
O103 O 0.19686 0.15515 0.49669 0.0
In104 In 0.18565 0.92175 0.41573 0.0
O105 O 0.21254 0.90402 0.41856 0.0
O106 O 0.19262 0.90389 0.44154 0.0
C107 C 0.1875 0.93918 0.38155 0.0
C108 C 0.15644 0.8984 0.40728 0.0
C109 C 0.18776 0.95316 0.43698 0.0
O110 O 0.19881 0.92597 0.38579 0.0
O111 O 0.17584 0.94345 0.39448 0.0
O112 O 0.17285 0.9431 0.43608 0.0
O113 O 0.20189 0.94675 0.42794 0.0
C114 C 0.20788 0.89745 0.43479 0.0
O115 O 0.15469 0.91172 0.41922 0.0
O116 O 0.17272 0.897 0.39998 0.0
In117 In 0.31738 0.47131 0.70985 0.0
O118 O 0.29988 0.49661 0.69896 0.0
O119 O 0.31807 0.48272 0.67947 0.0
C120 C 0.34367 0.47988 0.7368 0.0
C121 C 0.28286 0.46105 0.72282 0.0
C122 C 0.33564 0.44364 0.69116 0.0
O123 O 0.34057 0.49042 0.72256 0.0
O124 O 0.33255 0.46594 0.73815 0.0
O125 O 0.3223 0.44014 0.7028 0.0
O126 O 0.33963 0.46094 0.68911 0.0
C127 C 0.30581 0.49531 0.68197 0.0
O128 O 0.29232 0.45086 0.7115 0.0
O129 O 0.29105 0.47619 0.72797 0.0
In130 In 0.81108 0.68213 0.97203 0.0
O131 O 0.84121 0.67819 0.96105 0.0
O132 O 0.82432 0.69969 0.94824 0.0
C133 C 0.81552 0.64892 0.99026 0.0
C134 C 0.81102 0.71261 0.99539 0.0
C135 C 0.78295 0.67041 0.94824 0.0
O136 O 0.82679 0.65463 0.97738 0.0
O137 O 0.80245 0.66034 0.99448 0.0
O138 O 0.7823 0.66784 0.96609 0.0
O139 O 0.79692 0.68015 0.94269 0.0
C140 C 0.84008 0.69131 0.94877 0.0
O141 O 0.79805 0.70972 0.98323 0.0
O142 O 0.82299 0.69954 0.99657 0.0
In143 In 0.56462 0.09659 0.18683 0.0
O144 O 0.58218 0.10199 0.21385 0.0
O145 O 0.5822 0.07437 0.20146 0.0
C146 C 0.54595 0.12778 0.17603 0.0
C147 C 0.59133 0.09849 0.15955 0.0
C148 C 0.53317 0.07638 0.19369 0.0
O149 O 0.55559 0.12751 0.19141 0.0
O150 O 0.54595 0.11256 0.16662 0.0
O151 O 0.54373 0.07317 0.17937 0.0
O152 O 0.53922 0.08898 0.20507 0.0
C153 C 0.58884 0.08537 0.2141 0.0
O154 O 0.5785 0.08581 0.15912 0.0
O155 O 0.59033 0.10985 0.17342 0.0
In156 In 0.53522 0.29142 0.01083 0.0
O157 O 0.56624 0.29347 0.00124 0.0
O158 O 0.54925 0.27017 0.99164 0.0
C159 C 0.53496 0.31545 0.04064 0.0
C160 C 0.51839 0.30468 0.97904 0.0
C161 C 0.52587 0.26195 0.03348 0.0
O162 O 0.55012 0.30838 0.03425 0.0
O163 O 0.52037 0.31196 0.0307 0.0
O164 O 0.51325 0.27231 0.02606 0.0
O165 O 0.54262 0.2659 0.02851 0.0
C166 C 0.5652 0.27846 0.99134 0.0
O167 O 0.51257 0.28991 0.98755 0.0
O168 O 0.53159 0.3135 0.98754 0.0
In169 In 0.99666 0.7809 0.27231 0.0
O170 O 0.97603 0.76516 0.29228 0.0
O171 O 0.00142 0.75139 0.28407 0.0
C172 C 0.97345 0.80732 0.2573 0.0
C173 C 0.01959 0.79739 0.29824 0.0
C174 C 0.01153 0.77188 0.23801 0.0
O175 O 0.97061 0.78986 0.25475 0.0
O176 O 0.98689 0.81116 0.26858 0.0
O177 O 0.01979 0.78311 0.24943 0.0
O178 O 0.99637 0.76458 0.24435 0.0
C179 C 0.98657 0.75087 0.29409 0.0
O180 O 0.02596 0.78796 0.28427 0.0
O181 O 0.00172 0.79864 0.2989 0.0
In182 In 0.39176 0.28639 0.52041 0.0
O183 O 0.36247 0.29902 0.51818 0.0
O184 O 0.36674 0.27306 0.50363 0.0
C185 C 0.40981 0.25997 0.54127 0.0
C186 C 0.40927 0.29365 0.48691 0.0
C187 C 0.39122 0.31045 0.55003 0.0
O188 O 0.39228 0.25878 0.53749 0.0
O189 O 0.41838 0.27331 0.53282 0.0
O190 O 0.40009 0.31445 0.53472 0.0
O191 O 0.38262 0.29472 0.54997 0.0
C192 C 0.35557 0.28641 0.50752 0.0
O193 O 0.40647 0.30639 0.49929 0.0
O194 O 0.40403 0.27724 0.49189 0.0
In195 In 0.99629 0.66124 0.77528 0.0
O196 O 0.99212 0.62932 0.76997 0.0
O197 O 0.96904 0.64798 0.76492 0.0
C198 C 0.02693 0.66474 0.79798 0.0
C199 C 0.0046 0.67261 0.73954 0.0
C200 C 0.97378 0.67635 0.8021 0.0
O201 O 0.01898 0.64892 0.79485 0.0
O202 O 0.02049 0.67831 0.78819 0.0
O203 O 0.97786 0.6853 0.78689 0.0
O204 O 0.98061 0.65994 0.80325 0.0
C205 C 0.97507 0.63124 0.76454 0.0
O206 O 0.9925 0.68091 0.74985 0.0
O207 O 0.01348 0.65943 0.74782 0.0
In208 In 0.08876 0.70888 0.02621 0.0
O209 O 0.08128 0.68024 0.04009 0.0
O210 O 0.09999 0.6991 0.05471 0.0
C211 C 0.07198 0.70741 0.9917 0.0
C212 C 0.07029 0.735 0.04685 0.0
C213 C 0.12463 0.70516 0.01379 0.0
O214 O 0.06992 0.69454 0.00416 0.0
O215 O 0.08154 0.72164 0.99717 0.0
O216 O 0.11924 0.72014 0.02205 0.0
O217 O 0.11196 0.69266 0.01174 0.0
C218 C 0.0915 0.68336 0.05469 0.0
O219 O 0.08734 0.73736 0.04159 0.0
O220 O 0.06233 0.7203 0.04032 0.0
In221 In 0.49801 0.82298 0.22628 0.0
O222 O 0.49294 0.85487 0.22948 0.0
O223 O 0.47031 0.83575 0.23583 0.0
C224 C 0.52944 0.81969 0.20496 0.0
C225 C 0.50649 0.81279 0.26232 0.0
C226 C 0.47707 0.80788 0.19805 0.0
O227 O 0.52215 0.83558 0.20877 0.0
O228 O 0.52191 0.80575 0.21352 0.0
O229 O 0.47851 0.79956 0.21409 0.0
O230 O 0.4856 0.82357 0.19681 0.0
C231 C 0.47591 0.85269 0.2349 0.0
O232 O 0.49449 0.8038 0.25229 0.0
O233 O 0.51506 0.82603 0.25367 0.0
In234 In 0.48976 0.23379 0.76526 0.0
O235 O 0.51431 0.21543 0.75375 0.0
O236 O 0.4855 0.20791 0.74757 0.0
C237 C 0.50549 0.26144 0.78667 0.0
C238 C 0.47585 0.24895 0.73297 0.0
C239 C 0.47034 0.21598 0.79332 0.0
O240 O 0.51443 0.24651 0.78259 0.0
O241 O 0.48943 0.2628 0.77882 0.0
O242 O 0.46295 0.22866 0.783 0.0
O243 O 0.4874 0.21234 0.78944 0.0
C244 C 0.50284 0.20434 0.74524 0.0
O245 O 0.4653 0.24252 0.74617 0.0
O246 O 0.49342 0.24915 0.73682 0.0
In247 In 0.50913 0.33388 0.27761 0.0
O248 O 0.48547 0.34734 0.29506 0.0
O249 O 0.48389 0.31772 0.28963 0.0
C250 C 0.53133 0.36316 0.26682 0.0
C251 C 0.52994 0.31956 0.30634 0.0
C252 C 0.50271 0.32124 0.24186 0.0
O253 O 0.51392 0.36542 0.27065 0.0
O254 O 0.53723 0.3465 0.26888 0.0
O255 O 0.51404 0.31312 0.25323 0.0
O256 O 0.49364 0.33485 0.24905 0.0
C257 C 0.47701 0.3318 0.29827 0.0
O258 O 0.52697 0.31028 0.2911 0.0
O259 O 0.52275 0.33585 0.30669 0.0
In260 In 0.19607 0.98926 0.71216 0.0
O261 O 0.19527 -5e-05 0.68145 0.0
O262 O 0.21537 0.0124 0.70068 0.0
C263 C 0.16253 0.9713 0.70851 0.0
C264 C 0.22621 0.96593 0.71389 0.0
C265 C 0.18255 0.01352 0.73855 0.0
O266 O 0.17008 0.98017 0.69472 0.0
O267 O 0.17241 0.9706 0.72358 0.0
O268 O 0.18587 0.99643 0.74254 0.0
O269 O 0.18736 0.01849 0.7219 0.0
C270 C 0.20858 0.01184 0.68391 0.0
O271 O 0.22404 0.97937 0.72558 0.0
O272 O 0.21251 0.96349 0.70253 0.0
In273 In 0.82371 0.93145 0.99596 0.0
O274 O 0.8463 0.91013 0.98751 0.0
O275 O 0.8401 0.91387 0.01715 0.0
C276 C 0.81231 0.94947 0.96408 0.0
C277 C 0.79514 0.90654 0.00011 0.0
C278 C 0.83355 0.96325 0.01435 0.0
O279 O 0.82849 0.94178 0.96503 0.0
O280 O 0.80215 0.9475 0.97883 0.0
O281 O 0.81896 0.95366 0.01885 0.0
O282 O 0.84388 0.9559 0.00161 0.0
C283 C 0.84861 0.90433 0.00455 0.0
O284 O 0.79767 0.91992 0.01195 0.0
O285 O 0.80649 0.90639 0.98613 0.0
In286 In 0.93929 0.52711 0.2892 0.0
O287 O 0.91987 0.52959 0.31504 0.0
O288 O 0.92303 0.55349 0.29654 0.0
C289 C 0.95656 0.49349 0.28916 0.0
C290 C 0.91325 0.52032 0.26199 0.0
C291 C 0.97235 0.54558 0.2923 0.0
O292 O 0.94703 0.49891 0.30354 0.0
O293 O 0.95656 0.50464 0.27503 0.0
O294 O 0.96251 0.54614 0.27708 0.0
O295 O 0.96454 0.53722 0.30629 0.0
C296 C 0.91438 0.54607 0.31057 0.0
O297 O 0.92741 0.53106 0.25885 0.0
O298 O 0.91272 0.51284 0.27841 0.0
In299 In 0.25218 0.67365 0.50767 0.0
O300 O 0.25775 0.69834 0.48744 0.0
O301 O 0.23535 0.70098 0.50773 0.0
C302 C 0.27221 0.65386 0.4818 0.0
C303 C 0.27489 0.68595 0.53634 0.0
C304 C 0.22248 0.64976 0.51309 0.0
O305 O 0.26026 0.66626 0.47704 0.0
O306 O 0.27402 0.65143 0.49963 0.0
O307 O 0.23635 0.65055 0.52451 0.0
O308 O 0.22315 0.66175 0.49977 0.0
C309 C 0.24491 0.7086 0.49445 0.0
O310 O 0.25773 0.69078 0.53502 0.0
O311 O 0.27999 0.67388 0.52417 0.0
In312 In 0.06008 0.98555 0.18524 0.0
O313 O 0.03697 0.99198 0.20685 0.0
O314 O 0.03282 0.0012 0.17808 0.0
C315 C 0.08336 0.98021 0.21526 0.0
C316 C 0.04535 0.95262 0.17234 0.0
C317 C 0.08488 0.00745 0.16561 0.0
O318 O 0.07089 0.99298 0.21505 0.0
O319 O 0.08363 0.96978 0.20059 0.0
O320 O 0.08269 0.99006 0.16209 0.0
O321 O 0.07319 0.01397 0.17749 0.0
C322 C 0.02614 -0.0002 0.19483 0.0
O323 O 0.04273 0.96807 0.16366 0.0
O324 O 0.05631 0.95369 0.18658 0.0
In325 In 0.75218 0.82695 0.49058 0.0
O326 O 0.73477 0.84871 0.47373 0.0
O327 O 0.72333 0.8382 0.49966 0.0
C328 C 0.77791 0.81908 0.46302 0.0
C329 C 0.77501 0.84288 0.51722 0.0
C330 C 0.74202 0.79158 0.50063 0.0
O331 O 0.7618 0.81123 0.46364 0.0
O332 O 0.78032 0.83196 0.47525 0.0
O333 O 0.74542 0.80428 0.51292 0.0
O334 O 0.74288 0.79699 0.48339 0.0
C335 C 0.7216 0.84957 0.48591 0.0
O336 O 0.77 0.8257 0.5178 0.0
O337 O 0.76829 0.85211 0.50333 0.0
In338 In 0.81129 0.49399 0.80085 0.0
O339 O 0.82621 0.49034 0.77189 0.0
O340 O 0.82009 0.51816 0.78123 0.0
C341 C 0.78038 0.47118 0.80065 0.0
C342 C 0.84396 0.47894 0.81349 0.0
C343 C 0.79716 0.5222 0.82221 0.0
O344 O 0.78447 0.48181 0.78667 0.0
O345 O 0.79234 0.47144 0.81407 0.0
O346 O 0.80656 0.50879 0.82948 0.0
O347 O 0.79511 0.5214 0.80425 0.0
C348 C 0.82807 0.50787 0.76896 0.0
O349 O 0.83845 0.4951 0.81871 0.0
O350 O 0.83244 0.47005 0.80289 0.0
In351 In 0.31962 0.57315 0.01713 0.0
O352 O 0.33331 0.56115 0.04448 0.0
O353 O 0.30375 0.5671 0.04466 0.0
C354 C 0.34417 0.59745 0.00064 0.0
C355 C 0.32127 0.53859 0.00135 0.0
C356 C 0.2909 0.59764 0.01361 0.0
O357 O 0.34386 0.5947 0.01857 0.0
O358 O 0.33339 0.58663 0.99116 0.0
O359 O 0.29164 0.58267 0.00365 0.0
O360 O 0.30425 0.59973 0.02554 0.0
C361 C 0.31782 0.56062 0.05359 0.0
O362 O 0.30605 0.54799 0.00173 0.0
O363 O 0.33567 0.54715 0.00786 0.0
In364 In 0.24892 0.32156 0.00463 0.0
O365 O 0.22349 0.32274 0.02467 0.0
O366 O 0.24341 0.30091 0.02939 0.0
C367 C 0.27845 0.34574 0.00966 0.0
C368 C 0.25651 0.28759 0.98928 0.0
C369 C 0.22661 0.34213 0.9813 0.0
O370 O 0.26672 0.34215 0.02285 0.0
O371 O 0.27592 0.33624 0.99465 0.0
O372 O 0.23825 0.33013 0.97503 0.0
O373 O 0.22609 0.34355 -0.0007 0.0
C374 C 0.22769 0.30803 0.03392 0.0
O375 O 0.24246 0.29738 0.98411 0.0
O376 O 0.26704 0.29522 0.00181 0.0
In377 In 0.30879 0.00354 0.19123 0.0
O378 O 0.28143 0.01003 0.2077 0.0
O379 O 0.28786 0.02602 0.18264 0.0
C380 C 0.3314 0.98356 0.21441 0.0
C381 C 0.29618 0.97738 0.16615 0.0
C382 C 0.3364 0.02938 0.18666 0.0
O383 O 0.31631 0.99092 0.22078 0.0
O384 O 0.33437 0.98575 0.19674 0.0
O385 O 0.33125 0.01835 0.17333 0.0
O386 O 0.3266 0.02828 0.2018 0.0
C387 C 0.27619 0.02256 0.19589 0.0
O388 O 0.30369 0.99278 0.16079 0.0
O389 O 0.29526 0.97515 0.18406 0.0
In390 In 0.70703 0.0601 0.51057 0.0
O391 O 0.70366 0.08263 0.48773 0.0
O392 O 0.68586 0.08422 0.51228 0.0
C393 C 0.72131 0.03814 0.48276 0.0
C394 C 0.73336 0.08088 0.52923 0.0
C395 C 0.68673 0.03254 0.52792 0.0
O396 O 0.70609 0.04731 0.48069 0.0
O397 O 0.7295 0.04039 0.49872 0.0
O398 O 0.70265 0.03814 0.53412 0.0
O399 O 0.68031 0.04219 0.5142 0.0
C400 C 0.69153 0.09198 0.49697 0.0
O401 O 0.71615 0.08055 0.5343 0.0
O402 O 0.73745 0.06929 0.51617 0.0
In403 In 0.56349 0.48759 0.79495 0.0
O404 O 0.58119 0.48722 0.76748 0.0
O405 O 0.58473 0.51033 0.78678 0.0
C406 C 0.53445 0.46381 0.78933 0.0
C407 C 0.5883 0.46935 0.81736 0.0
C408 C 0.53858 0.51588 0.79745 0.0
O409 O 0.5456 0.46868 0.77592 0.0
O410 O 0.5391 0.46965 0.80584 0.0
O411 O 0.54808 0.51082 0.81206 0.0
O412 O 0.54245 0.50731 0.78212 0.0
C413 C 0.58975 0.50256 0.77135 0.0
O414 O 0.58198 0.48549 0.82187 0.0
O415 O 0.58098 0.46217 0.80253 0.0
In416 In 0.50449 0.70726 0.73185 0.0
O417 O 0.52851 0.70543 0.75382 0.0
O418 O 0.50619 0.72487 0.759 0.0
C419 C 0.52856 0.68618 0.71065 0.0
C420 C 0.47629 0.68476 0.74515 0.0
C421 C 0.49383 0.73591 0.70854 0.0
O422 O 0.52848 0.704 0.71003 0.0
O423 O 0.51703 0.67904 0.72244 0.0
O424 O 0.48408 0.72095 0.71031 0.0
O425 O 0.50819 0.73673 0.71928 0.0
C426 C 0.52134 0.71747 0.76499 0.0
O427 O 0.48185 0.68424 0.72796 0.0
O428 O 0.48368 0.69784 0.75494 0.0
In429 In 0.03002 0.19987 0.98501 0.0
O430 O 0.00734 0.20605 0.00732 0.0
O431 O 0.02501 0.18195 0.01138 0.0
C432 C 0.02673 0.22554 0.95686 0.0
C433 C 0.0615 0.21302 0.00226 0.0
C434 C 0.0222 0.17189 0.96039 0.0
O435 O 0.01468 0.22464 0.97034 0.0
O436 O 0.04036 0.21416 0.95822 0.0
O437 O 0.03887 0.17509 0.96647 0.0
O438 O 0.00938 0.18144 0.96845 0.0
C439 C 0.01226 0.19252 0.01814 0.0
O440 O 0.06096 0.1967 0.99478 0.0
O441 O 0.04649 0.2225 0.00048 0.0
In442 In 0.9001 0.21188 0.47873 0.0
O443 O 0.90097 0.18019 0.47127 0.0
O444 O 0.89352 0.19999 0.44957 0.0
C445 C 0.91471 0.20414 0.51335 0.0
C446 C 0.92471 0.2338 0.45886 0.0
C447 C 0.86345 0.21945 0.48813 0.0
O448 O 0.91015 0.19124 0.50161 0.0
O449 O 0.91258 0.22086 0.50725 0.0
O450 O 0.86837 0.21333 0.472 0.0
O451 O 0.87716 0.22339 0.499 0.0
C452 C 0.89621 0.18294 0.454 0.0
O453 O 0.90793 0.23907 0.46228 0.0
O454 O 0.92924 0.2185 0.46684 0.0
In455 In 0.0089 0.16566 0.72384 0.0
O456 O 0.0263 0.1908 0.71203 0.0
O457 O 0.01999 0.16728 0.6938 0.0
C458 C 0.00024 0.17465 0.76014 0.0
C459 C 0.97668 0.16688 0.70345 0.0
C460 C 0.03357 0.13789 0.73216 0.0
O461 O 0.01193 0.1843 0.75034 0.0
O462 O 0.99214 0.16135 0.7512 0.0
O463 O 0.01631 0.13428 0.72852 0.0
O464 O 0.0381 0.15512 0.73114 0.0
C465 C 0.02761 0.18338 0.69555 0.0
O466 O 0.98574 0.15164 0.70597 0.0
O467 O 0.98309 0.18099 0.71261 0.0
In468 In 0.46834 0.79446 0.48744 0.0
O469 O 0.48463 0.76978 0.474 0.0
O470 O 0.45827 0.77816 0.46167 0.0
C471 C 0.48641 0.8011 0.52062 0.0
C472 C 0.47664 0.82138 0.4616 0.0
C473 C 0.43577 0.78354 0.5043 0.0
O474 O 0.49035 0.78711 0.51009 0.0
O475 O 0.47441 0.8124 0.51364 0.0
O476 O 0.43794 0.80011 0.49767 0.0
O477 O 0.44974 0.77272 0.50193 0.0
C478 C 0.47249 0.76747 0.46077 0.0
O479 O 0.45981 0.81802 0.46703 0.0
O480 O 0.48926 0.81269 0.47092 0.0
In481 In 0.59398 0.79183 0.97534 0.0
O482 O 0.57471 0.80467 0.99786 0.0
O483 O 0.58605 0.77729 0.00331 0.0
C484 C 0.59556 0.81786 0.94717 0.0
C485 C 0.62917 0.79737 0.98918 0.0
C486 C 0.57809 0.76446 0.95385 0.0
O487 O 0.58411 0.81944 0.96105 0.0
O488 O 0.60597 0.80345 0.9478 0.0
O489 O 0.59497 0.76338 0.95997 0.0
O490 O 0.56899 0.77863 0.95979 0.0
C491 C 0.57645 0.79104 0.00949 0.0
O492 O 0.62472 0.78233 0.98037 0.0
O493 O 0.61595 0.80916 0.99093 0.0
In494 In 0.6925 0.51303 0.28449 0.0
O495 O 0.67636 0.51086 0.25601 0.0
O496 O 0.68512 0.48547 0.26945 0.0
C497 C 0.7221 0.53708 0.27984 0.0
C498 C 0.65933 0.52755 0.29621 0.0
C499 C 0.70845 0.48954 0.31005 0.0
O500 O 0.71831 0.52415 0.26794 0.0
O501 O 0.71025 0.53857 0.29324 0.0
O502 O 0.69734 0.50265 0.31494 0.0
O503 O 0.71143 0.48827 0.29225 0.0
C504 C 0.6759 0.49302 0.25602 0.0
O505 O 0.66664 0.51318 0.30397 0.0
O506 O 0.66931 0.53519 0.28327 0.0
In507 In 0.20505 0.43775 0.48224 0.0
O508 O 0.20386 0.4621 0.46096 0.0
O509 O 0.17913 0.45619 0.47728 0.0
C510 C 0.22971 0.41776 0.46107 0.0
C511 C 0.21798 0.45689 0.51293 0.0
C512 C 0.18884 0.40532 0.49393 0.0
O513 O 0.21231 0.41891 0.45687 0.0
O514 O 0.23495 0.42822 0.47477 0.0
O515 O 0.20175 0.41364 0.50329 0.0
O516 O 0.18279 0.41435 0.47954 0.0
C517 C 0.18731 0.46711 0.46555 0.0
O518 O 0.20133 0.4502 0.512 0.0
O519 O 0.22828 0.45356 0.49851 0.0
In520 In 0.4383 0.99244 0.69519 0.0
O521 O 0.44948 0.01863 0.67897 0.0
O522 O 0.44888 0.01893 0.7095 0.0
C523 C 0.41364 0.97416 0.67219 0.0
C524 C 0.47237 0.97581 0.69672 0.0
C525 C 0.41319 0.99452 0.72403 0.0
O526 O 0.41646 0.99182 0.67095 0.0
O527 O 0.42478 0.96574 0.68344 0.0
O528 O 0.42657 0.98265 0.72407 0.0
O529 O 0.41287 0.00547 0.70972 0.0
C530 C 0.45335 0.02748 0.69428 0.0
O531 O 0.46109 0.97592 0.71081 0.0
O532 O 0.46584 0.98292 0.68148 0.0
In533 In 0.75158 0.17386 0.99478 0.0
O534 O 0.74148 0.16806 0.02524 0.0
O535 O 0.7284 0.15255 0.00269 0.0
C536 C 0.75882 0.2092 0.00714 0.0
C537 C 0.78128 0.15004 0.99101 0.0
C538 C 0.73003 0.18451 0.96462 0.0
O539 O 0.7451 0.19936 0.01335 0.0
O540 O 0.76927 0.20098 0.99503 0.0
O541 O 0.74557 0.1925 0.96867 0.0
O542 O 0.72616 0.1703 0.97485 0.0
C543 C 0.72927 0.1558 0.02043 0.0
O544 O 0.76898 0.15212 0.97806 0.0
O545 O 0.77912 0.16067 0.00526 0.0
In546 In 0.98806 0.27681 0.2336 0.0
O547 O 0.01142 0.29932 0.2381 0.0
O548 O 0.98464 0.30226 0.25217 0.0
C549 C 0.00062 0.24979 0.20981 0.0
C550 C 0.98408 0.25984 0.2677 0.0
C551 C 0.96345 0.29341 0.20947 0.0
O552 O 0.01075 0.26407 0.21404 0.0
O553 O 0.98496 0.24878 0.21851 0.0
O554 O 0.95788 0.28299 0.22315 0.0
O555 O 0.98121 0.29526 0.20809 0.0
C556 C 0.00107 0.30887 0.24934 0.0
O557 O 0.97008 0.26288 0.25674 0.0
O558 O 0.00015 0.26419 0.26082 0.0
In559 In 0.97018 0.70038 0.51495 0.0
O560 O 0.9891 0.72288 0.52953 0.0
O561 O 0.96293 0.71447 0.54263 0.0
C562 C 0.98623 0.69032 0.48176 0.0
C563 C 0.97451 0.67181 0.53964 0.0
C564 C 0.94046 0.7179 0.4988 0.0
O565 O 0.99288 0.70366 0.49193 0.0
O566 O 0.97244 0.68138 0.48911 0.0
O567 O 0.93907 0.70118 0.50526 0.0
O568 O 0.95655 0.72558 0.50093 0.0
C569 C 0.97791 0.72427 0.5437 0.0
O570 O 0.95829 0.67699 0.53383 0.0
O571 O 0.98838 0.67953 0.5311 0.0
In572 In 0.68806 0.96956 0.78767 0.0
O573 O 0.66727 0.98986 0.77308 0.0
O574 O 0.67174 0.96301 0.76041 0.0
C575 C 0.70515 0.99437 0.81174 0.0
C576 C 0.66595 0.94658 0.80891 0.0
C577 C 0.72042 0.95455 0.7742 0.0
O578 O 0.70759 0.99502 0.79386 0.0
O579 O 0.69324 0.98214 0.81717 0.0
O580 O 0.71096 0.94682 0.78749 0.0
O581 O 0.71314 0.96935 0.76732 0.0
C582 C 0.66281 0.97836 0.75997 0.0
O583 O 0.67924 0.94039 0.79853 0.0
O584 O 0.6639 0.96431 0.80854 0.0
In585 In 0.3206 0.81638 0.01904 0.0
O586 O 0.33713 0.84403 0.01562 0.0
O587 O 0.31391 0.83887 0.99675 0.0
C588 C 0.34803 0.80553 0.04331 0.0
C589 C 0.29154 0.82891 0.04078 0.0
C590 C 0.31973 0.78604 0.99552 0.0
O591 O 0.35112 0.8169 0.02963 0.0
O592 O 0.33111 0.79963 0.04467 0.0
O593 O 0.30719 0.78876 0.0081 0.0
O594 O 0.33189 0.7991 0.99418 0.0
C595 C 0.32679 0.85016 0.00221 0.0
O596 O 0.29077 0.82873 0.02271 0.0
O597 O 0.30623 0.82149 0.04769 0.0
In598 In 0.43081 0.59095 0.31411 0.0
O599 O 0.43815 0.62256 0.31111 0.0
O600 O 0.45015 0.60677 0.33417 0.0
C601 C 0.40817 0.5808 0.28499 0.0
C602 C 0.46194 0.5709 0.30659 0.0
C603 C 0.40346 0.59059 0.34089 0.0
O604 O 0.41489 0.59743 0.28636 0.0
O605 O 0.41378 0.56934 0.29767 0.0
O606 O 0.41728 0.57924 0.3418 0.0
O607 O 0.40377 0.60175 0.3268 0.0
C608 C 0.44874 0.62252 0.32581 0.0
O609 O 0.45111 0.56687 0.32053 0.0
O610 O 0.4565 0.58446 0.29614 0.0
In611 In 0.69314 0.57562 0.58593 0.0
O612 O 0.68265 0.55185 0.56634 0.0
O613 O 0.71096 0.55059 0.57708 0.0
C614 C 0.657 0.58686 0.59187 0.0
C615 C 0.70185 0.57041 0.6233 0.0
C616 C 0.71214 0.60171 0.56513 0.0
O617 O 0.6698 0.59764 0.58544 0.0
O618 O 0.66212 0.56997 0.59439 0.0
O619 O 0.71759 0.59678 0.58166 0.0
O620 O 0.69788 0.59275 0.55891 0.0
C621 C 0.69796 0.54266 0.56748 0.0
O622 O 0.69771 0.58645 0.6166 0.0
O623 O 0.70293 0.55754 0.61092 0.0
C624 C 0.3022 0.55742 0.08526 0.0
C625 C 0.31526 0.55055 0.07186 0.0
C626 C 0.29625 0.54606 0.1005 0.0
C627 C 0.28335 0.49864 0.1093 0.0
H628 H 0.2769 0.51536 0.16177 0.0
C629 C 0.23568 0.48611 0.18247 0.0
C630 C 0.21794 0.49019 0.17425 0.0
C631 C 0.25198 0.48576 0.17103 0.0
C632 C 0.27894 0.51014 0.14733 0.0
H633 H 0.3328 0.52675 0.064 0.0
H634 H 0.32174 0.50646 0.09046 0.0
H635 H 0.29914 0.53204 0.14081 0.0
H636 H 0.20286 0.49427 0.14753 0.0
H637 H 0.23114 0.49309 0.12753 0.0
H638 H 0.26181 0.47783 0.11533 0.0
C639 C 0.31656 0.52082 0.08939 0.0
C640 C 0.29159 0.51978 0.13534 0.0
C641 C 0.32296 0.53244 0.07441 0.0
C642 C 0.21637 0.49112 0.15421 0.0
C643 C 0.23261 0.49045 0.14276 0.0
C644 C 0.27041 0.48918 0.12122 0.0
C645 C 0.30284 0.52743 0.10229 0.0
C646 C 0.29339 0.51454 0.11606 0.0
C647 C 0.25068 0.48909 0.15121 0.0
C648 C 0.26758 0.4953 0.14015 0.0
H649 H 0.29593 0.57126 0.08341 0.0
H650 H 0.28549 0.55139 0.11014 0.0
H651 H 0.28438 0.49445 0.09441 0.0
H652 H 0.23734 0.48541 0.1979 0.0
H653 H 0.26573 0.48451 0.17787 0.0
C654 C 0.71417 0.38292 0.4356 0.0
C655 C 0.72024 0.36411 0.43427 0.0
C656 C 0.72045 0.39642 0.4225 0.0
C657 C 0.73328 0.40069 0.37305 0.0
H658 H 0.74289 0.4529 0.38739 0.0
C659 C 0.72809 0.46118 0.31783 0.0
C660 C 0.71669 0.47622 0.32401 0.0
C661 C 0.73474 0.44779 0.33095 0.0
C662 C 0.74031 0.43838 0.38313 0.0
H663 H 0.73812 0.34468 0.41866 0.0
H664 H 0.74878 0.36843 0.39508 0.0
H665 H 0.74412 0.42812 0.41176 0.0
H666 H 0.70389 0.48949 0.34877 0.0
H667 H 0.7152 0.46608 0.37159 0.0
H668 H 0.72824 0.41103 0.34469 0.0
C669 C 0.73931 0.37265 0.4065 0.0
C670 C 0.74112 0.42421 0.39705 0.0
C671 C 0.73326 0.35912 0.41994 0.0
C672 C 0.71263 0.47803 0.3436 0.0
C673 C 0.71927 0.46469 0.35669 0.0
C674 C 0.73239 0.41489 0.35912 0.0
C675 C 0.73276 0.39138 0.40758 0.0
C676 C 0.7368 0.40536 0.39229 0.0
C677 C 0.73015 0.44925 0.35049 0.0
C678 C 0.73508 0.43398 0.3642 0.0
H679 H 0.70425 0.38717 0.44662 0.0
H680 H 0.71493 0.41065 0.42354 0.0
H681 H 0.72975 0.3863 0.36902 0.0
H682 H 0.73154 0.4595 0.30281 0.0
H683 H 0.74321 0.43614 0.32577 0.0
C684 C 0.89522 0.90816 0.62871 0.0
C685 C 0.89737 0.89413 0.64284 0.0
C686 C 0.88295 0.9051 0.61312 0.0
C687 C 0.86181 0.86637 0.58545 0.0
H688 H 0.82023 0.90006 0.57343 0.0
C689 C 0.79636 0.8398 0.54553 0.0
C690 C 0.78876 0.85108 0.5309 0.0
C691 C 0.8104 0.84699 0.55765 0.0
C692 C 0.83195 0.89067 0.57642 0.0
H693 H 0.88827 0.86606 0.65185 0.0
H694 H 0.86728 0.86078 0.62485 0.0
H695 H 0.84428 0.90971 0.59703 0.0
H696 H 0.78949 0.87891 0.51775 0.0
H697 H 0.81417 0.89151 0.53905 0.0
H698 H 0.84948 0.84715 0.56533 0.0
C699 C 0.87504 0.87405 0.62566 0.0
C700 C 0.8457 0.89621 0.58986 0.0
C701 C 0.88701 0.87715 0.64119 0.0
C702 C 0.79512 0.86989 0.52894 0.0
C703 C 0.80919 0.87712 0.54113 0.0
C704 C 0.84818 0.86088 0.57207 0.0
C705 C 0.87299 0.88787 0.61139 0.0
C706 C 0.86038 0.88382 0.59491 0.0
C707 C 0.81719 0.86561 0.5554 0.0
C708 C 0.83277 0.87268 0.56786 0.0
H709 H 0.903 0.92139 0.62968 0.0
H710 H 0.88152 0.91598 0.60227 0.0
H711 H 0.87319 0.85669 0.58888 0.0
H712 H 0.79168 0.82529 0.54746 0.0
H713 H 0.816 0.8379 0.56879 0.0
C714 C 0.39888 0.98257 0.75461 0.0
C715 C 0.39898 0.99571 0.7395 0.0
C716 C 0.38575 0.98418 0.76951 0.0
C717 C 0.34132 0.0086 0.7843 0.0
H718 H 0.36309 0.00364 0.83505 0.0
C719 C 0.31344 0.04601 0.85213 0.0
C720 C 0.31724 0.0376 0.86994 0.0
C721 C 0.31885 0.03692 0.83519 0.0
C722 C 0.35655 0.00467 0.82104 0.0
H723 H 0.3851 0.02048 0.72781 0.0
H724 H 0.36257 0.02359 0.75401 0.0
H725 H 0.38183 0.99525 0.80735 0.0
H726 H 0.32741 0.01237 0.88415 0.0
H727 H 0.3361 0.99619 0.85467 0.0
H728 H 0.31624 0.01881 0.79819 0.0
C729 C 0.37235 0.01184 0.75424 0.0
C730 C 0.36736 -0.00014 0.80509 0.0
C731 C 0.3854 0.01017 0.73931 0.0
C732 C 0.32455 0.0192 0.87054 0.0
C733 C 0.32965 0.01002 0.85368 0.0
C734 C 0.33046 0.01347 0.80033 0.0
C735 C 0.37253 -0.00097 0.76966 0.0
C736 C 0.36004 0.00209 0.78651 0.0
C737 C 0.32792 0.01924 0.8359 0.0
C738 C 0.33809 0.01184 0.81887 0.0
H739 H 0.40905 0.97115 0.75501 0.0
H740 H 0.38609 0.97391 0.78104 0.0
H741 H 0.33517 0.01024 0.77016 0.0
H742 H 0.30791 0.06025 0.85135 0.0
H743 H 0.31733 0.04444 0.82175 0.0
C744 C 0.21643 0.35233 0.94862 0.0
C745 C 0.21456 0.35364 0.96859 0.0
C746 C 0.20491 0.36308 0.93658 0.0
C747 C 0.15872 0.38627 0.93494 0.0
H748 H 0.17866 0.40742 0.88769 0.0
C749 C 0.10966 0.41755 0.87661 0.0
C750 C 0.11296 0.40952 0.85853 0.0
C751 C 0.123 0.41539 0.89135 0.0
C752 C 0.1729 0.40167 0.90088 0.0
H753 H 0.19935 0.36736 0.99168 0.0
H754 H 0.17912 0.38613 0.97056 0.0
H755 H 0.20044 0.39436 0.91141 0.0
H756 H 0.13309 0.39388 0.84132 0.0
H757 H 0.15623 0.3902 0.86681 0.0
H758 H 0.13112 0.39291 0.92405 0.0
C759 C 0.18946 0.37673 0.96425 0.0
C760 C 0.18535 0.39415 0.91441 0.0
C761 C 0.20106 0.36603 0.97631 0.0
C762 C 0.13013 0.40014 0.85515 0.0
C763 C 0.14347 0.39818 0.86973 0.0
C764 C 0.14625 0.3938 0.92137 0.0
C765 C 0.19124 0.37532 0.94425 0.0
C766 C 0.17834 0.38581 0.93129 0.0
C767 C 0.13992 0.40544 0.88809 0.0
C768 C 0.15319 0.40099 0.90393 0.0
H769 H 0.22672 0.3429 0.94227 0.0
H770 H 0.20641 0.36144 0.92122 0.0
H771 H 0.15288 0.37984 0.94777 0.0
H772 H 0.09651 0.42485 0.87955 0.0
H773 H 0.11995 0.42119 0.90536 0.0
C774 C 0.80506 0.47776 0.13169 0.0
C775 C 0.80401 0.45798 0.13141 0.0
C776 C 0.81126 0.48721 0.14812 0.0
C777 C 0.82859 0.47943 0.19861 0.0
H778 H 0.863 0.52023 0.18469 0.0
C779 C 0.87983 0.51169 0.25424 0.0
C780 C 0.89809 0.51673 0.24787 0.0
C781 C 0.8655 0.50727 0.24113 0.0
C782 C 0.85362 0.50875 0.18886 0.0
H783 H 0.80756 0.43245 0.14805 0.0
H784 H 0.81926 0.44865 0.17647 0.0
H785 H 0.84188 0.50714 0.16079 0.0
H786 H 0.91573 0.52137 0.22292 0.0
H787 H 0.89108 0.51265 0.19993 0.0
H788 H 0.84159 0.47995 0.22624 0.0
C789 C 0.81466 0.45716 0.16444 0.0
C790 C 0.84109 0.50145 0.17518 0.0
C791 C 0.80791 0.44778 0.14815 0.0
C792 C 0.90172 0.5176 0.22815 0.0
C793 C 0.88749 0.51273 0.21501 0.0
C794 C 0.84142 0.48647 0.21219 0.0
C795 C 0.81731 0.47696 0.16432 0.0
C796 C 0.82862 0.48643 0.17973 0.0
C797 C 0.86921 0.50733 0.22132 0.0
C798 C 0.85438 0.50099 0.20739 0.0
H799 H 0.80221 0.48585 0.11879 0.0
H800 H 0.81241 0.50248 0.14766 0.0
H801 H 0.81901 0.46814 0.20284 0.0
H802 H 0.87661 0.51119 0.26941 0.0
H803 H 0.85155 0.5037 0.2466 0.0
C804 C 0.74653 0.01675 0.47013 0.0
C805 C 0.72903 0.02585 0.46761 0.0
C806 C 0.75426 0.00588 0.45539 0.0
C807 C 0.74306 0.98329 0.40855 0.0
H808 H 0.79447 0.99831 0.39549 0.0
C809 C 0.76921 0.993 0.33261 0.0
C810 C 0.78872 0.99271 0.32861 0.0
C811 C 0.76256 0.98809 0.35077 0.0
C812 C 0.78032 0.99339 0.39912 0.0
H813 H 0.70552 0.03011 0.44803 0.0
H814 H 0.71908 0.01139 0.42223 0.0
H815 H 0.78131 0.00752 0.42614 0.0
H816 H 0.81636 0.98482 0.33956 0.0
H817 H 0.80472 0.97604 0.37138 0.0
H818 H 0.74179 0.97001 0.381 0.0
C819 C 0.72676 0.01243 0.43565 0.0
C820 C 0.77273 0.99877 0.41673 0.0
C821 C 0.71908 0.02334 0.45035 0.0
C822 C 0.80124 0.98529 0.34232 0.0
C823 C 0.79459 0.9804 0.36058 0.0
C824 C 0.75068 0.97783 0.39093 0.0
C825 C 0.74458 0.00383 0.43788 0.0
C826 C 0.75374 0.99453 0.42126 0.0
C827 C 0.77533 0.98283 0.36531 0.0
C828 C 0.7691 0.98362 0.38564 0.0
H829 H 0.75445 0.01832 0.48336 0.0
H830 H 0.76795 -0.00067 0.45757 0.0
H831 H 0.7285 0.97947 0.41184 0.0
H832 H 0.75922 0.99852 0.32222 0.0
H833 H 0.74766 0.9902 0.35384 0.0
C834 C 0.22604 0.13901 0.56847 0.0
C835 C 0.21104 0.13441 0.55602 0.0
C836 C 0.23303 0.12539 0.58125 0.0
C837 C 0.23268 0.07386 0.59152 0.0
H838 H 0.22826 0.08867 0.64479 0.0
C839 C 0.20777 0.02309 0.65001 0.0
C840 C 0.21527 0.0246 0.66858 0.0
C841 C 0.21331 0.03582 0.63575 0.0
C842 C 0.23003 0.08434 0.63002 0.0
H843 H 0.19238 0.11189 0.54619 0.0
H844 H 0.20459 0.08828 0.56814 0.0
H845 H 0.22818 0.11286 0.61984 0.0
H846 H 0.23491 0.04022 0.68669 0.0
H847 H 0.24452 0.0626 0.66171 0.0
H848 H 0.2335 0.04528 0.60162 0.0
C849 C 0.211 0.10226 0.56821 0.0
C850 C 0.23004 0.09821 0.61574 0.0
C851 C 0.20386 0.11585 0.55577 0.0
C852 C 0.22882 0.03878 0.6725 0.0
C853 C 0.23431 0.0516 0.65823 0.0
C854 C 0.23269 0.06001 0.60578 0.0
C855 C 0.22537 0.10695 0.58136 0.0
C856 C 0.23049 0.09302 0.59632 0.0
C857 C 0.22644 0.05038 0.63977 0.0
C858 C 0.23051 0.06506 0.62511 0.0
H859 H 0.23179 0.15326 0.56887 0.0
H860 H 0.24411 0.12935 0.59128 0.0
H861 H 0.23334 0.06952 0.57665 0.0
H862 H 0.19732 0.01229 0.64657 0.0
H863 H 0.20674 0.0347 0.62174 0.0
C864 C 0.03021 0.18936 0.66077 0.0
C865 C 0.0375 0.19218 0.67925 0.0
C866 C 0.04096 0.19414 0.64473 0.0
C867 C 0.08585 0.21697 0.62783 0.0
H868 H 0.0841 0.17581 0.59114 0.0
C869 C 0.14632 0.19962 0.57482 0.0
C870 C 0.14145 0.19226 0.55676 0.0
C871 C 0.13224 0.20366 0.58827 0.0
C872 C 0.08454 0.18764 0.60098 0.0
H873 H 0.06111 0.20328 0.6957 0.0
H874 H 0.08046 0.21105 0.66752 0.0
H875 H 0.06189 0.17608 0.61755 0.0
H876 H 0.11803 0.1844 0.53816 0.0
H877 H 0.0934 0.19159 0.5616 0.0
H878 H 0.10917 0.22803 0.61141 0.0
C879 C 0.06624 0.20553 0.66538 0.0
C880 C 0.07175 0.18783 0.61618 0.0
C881 C 0.05522 0.20107 0.68152 0.0
C882 C 0.1222 0.1899 0.55204 0.0
C883 C 0.10812 0.19396 0.56548 0.0
C884 C 0.09876 0.21674 0.61257 0.0
C885 C 0.05949 0.20138 0.64682 0.0
C886 C 0.0723 0.20239 0.6299 0.0
C887 C 0.11301 0.20041 0.58391 0.0
C888 C 0.09834 0.20194 0.59909 0.0
H889 H 0.01642 0.18274 0.65872 0.0
H890 H 0.03508 0.19132 0.63066 0.0
H891 H 0.08656 0.22846 0.63806 0.0
H892 H 0.16105 0.20165 0.57884 0.0
H893 H 0.1365 0.20844 0.60238 0.0
C894 C 0.01434 0.25496 0.94104 0.0
C895 C 0.02518 0.23841 0.94028 0.0
C896 C 0.01443 0.26763 0.92556 0.0
C897 C 0.04483 0.281 0.8845 0.0
H898 H 0.00221 0.31258 0.87055 0.0
C899 C 0.05321 0.3397 0.82811 0.0
C900 C 0.04725 0.3574 0.8348 0.0
C901 C 0.04752 0.32313 0.83759 0.0
C902 C 0.0142 0.30378 0.87425 0.0
H903 H 0.04349 0.22138 0.92234 0.0
H904 H 0.04319 0.24304 0.8953 0.0
H905 H 0.99783 0.28729 0.89414 0.0
H906 H 0.02962 0.37165 0.85569 0.0
H907 H 0.01974 0.3429 0.87213 0.0
H908 H 0.06131 0.29769 0.86502 0.0
C909 C 0.03517 0.2467 0.90799 0.0
C910 C 0.01173 0.28938 0.88783 0.0
C911 C 0.03529 0.23425 0.92348 0.0
C912 C 0.03455 0.35818 0.85029 0.0
C913 C 0.02875 0.34168 0.85963 0.0
C914 C 0.04727 0.29529 0.87089 0.0
C915 C 0.02518 0.2638 0.90899 0.0
C916 C 0.02712 0.27805 0.89338 0.0
C917 C 0.03563 0.32402 0.85377 0.0
C918 C 0.0321 0.3071 0.8659 0.0
H919 H 0.00638 0.25843 0.95382 0.0
H920 H 0.00668 0.28073 0.92689 0.0
H921 H 0.05711 0.27281 0.88864 0.0
H922 H 0.06297 0.33871 0.81617 0.0
H923 H 0.0529 0.30967 0.83266 0.0
C924 C 0.84274 0.37821 0.11844 0.0
C925 C 0.84935 0.39198 0.10547 0.0
C926 C 0.85543 0.36684 0.12842 0.0
C927 C 0.90438 0.34913 0.12925 0.0
H928 H 0.89396 0.34236 0.18344 0.0
C929 C 0.95769 0.31518 0.18192 0.0
C930 C 0.95038 0.30328 0.19633 0.0
C931 C 0.94551 0.32526 0.16994 0.0
C932 C 0.89693 0.34387 0.16828 0.0
H933 H 0.87443 0.40429 0.09234 0.0
H934 H 0.89684 0.38434 0.11004 0.0
H935 H 0.87285 0.36159 0.16401 0.0
H936 H 0.92461 0.29219 0.2092 0.0
H937 H 0.90325 0.30967 0.1881 0.0
H938 H 0.92853 0.33137 0.1336 0.0
C939 C 0.88175 0.38234 0.11234 0.0
C940 C 0.88486 0.35493 0.15715 0.0
C941 C 0.86896 0.39379 0.10227 0.0
C942 C 0.93064 0.30134 0.19828 0.0
C943 C 0.91843 0.31143 0.18627 0.0
C944 C 0.91648 0.338 0.14041 0.0
C945 C 0.87507 0.36898 0.12576 0.0
C946 C 0.88837 0.35761 0.1375 0.0
C947 C 0.92574 0.32365 0.17209 0.0
C948 C 0.91283 0.33519 0.16005 0.0
H949 H 0.82769 0.37633 0.12109 0.0
H950 H 0.84982 0.35641 0.13835 0.0
H951 H 0.90734 0.35079 0.11411 0.0
H952 H 0.97287 0.31697 0.18008 0.0
H953 H 0.95161 0.33471 0.15934 0.0
C954 C 0.89443 0.1485 0.4452 0.0
C955 C 0.89328 0.16763 0.43992 0.0
C956 C 0.89048 0.13428 0.43177 0.0
C957 C 0.88494 0.12614 0.37936 0.0
H958 H 0.85113 0.08544 0.39501 0.0
C959 C 0.83907 0.08391 0.32603 0.0
C960 C 0.83782 0.06424 0.32855 0.0
C961 C 0.84821 0.09516 0.3397 0.0
C962 C 0.86079 0.09657 0.39048 0.0
H963 H 0.88756 0.18692 0.41641 0.0
H964 H 0.88046 0.16236 0.39326 0.0
H965 H 0.86358 0.10735 0.419 0.0
H966 H 0.84517 0.04086 0.34727 0.0
H967 H 0.86098 0.06059 0.37127 0.0
H968 H 0.88156 0.11574 0.35074 0.0
C969 C 0.88466 0.15818 0.40759 0.0
C970 C 0.86798 0.10908 0.40423 0.0
C971 C 0.88858 0.17229 0.42094 0.0
C972 C 0.84591 0.05601 0.34496 0.0
C973 C 0.8549 0.06728 0.35872 0.0
C974 C 0.87765 0.11372 0.36562 0.0
C975 C 0.88539 0.13901 0.41285 0.0
C976 C 0.8798 0.12426 0.39875 0.0
C977 C 0.85614 0.08696 0.35622 0.0
C978 C 0.8652 0.09905 0.371 0.0
H979 H 0.89807 0.14452 0.45974 0.0
H980 H 0.89131 0.11963 0.43621 0.0
H981 H 0.89432 0.13745 0.37472 0.0
H982 H 0.83297 0.09061 0.3135 0.0
H983 H 0.84876 0.11033 0.33752 0.0
C984 C 0.12185 0.88946 0.40669 0.0
C985 C 0.1407 0.88583 0.40133 0.0
C986 C 0.10698 0.87834 0.39937 0.0
C987 C 0.09689 0.83306 0.37406 0.0
H988 H 0.05464 0.86038 0.35191 0.0
C989 C 0.05171 0.80331 0.31237 0.0
C990 C 0.03203 0.80627 0.31275 0.0
C991 C 0.06347 0.8118 0.32606 0.0
C992 C 0.06617 0.85249 0.35829 0.0
H993 H 0.15885 0.86734 0.3848 0.0
H994 H 0.13313 0.84819 0.37202 0.0
H995 H 0.07778 0.87722 0.37169 0.0
H996 H 0.00916 0.82025 0.32782 0.0
H997 H 0.02977 0.83519 0.35168 0.0
H998 H 0.08565 0.80849 0.36006 0.0
C999 C 0.1297 0.85941 0.38196 0.0
C1000 C 0.0794 0.86212 0.36967 0.0
C1001 C 0.14447 0.87051 0.38917 0.0
C1002 C 0.0243 0.81777 0.32714 0.0
C1003 C 0.03608 0.82636 0.34077 0.0
C1004 C 0.08371 0.82346 0.36263 0.0
C1005 C 0.11077 0.86335 0.38671 0.0
C1006 C 0.09518 0.85261 0.37725 0.0
C1007 C 0.05579 0.82348 0.34034 0.0
C1008 C 0.06849 0.83317 0.35423 0.0
H1009 H 0.11856 0.90118 0.41608 0.0
H1010 H 0.09253 0.88162 0.40341 0.0
H1011 H 0.1087 0.82526 0.38001 0.0
H1012 H 0.05805 0.7945 0.30145 0.0
H1013 H 0.07864 0.80953 0.32519 0.0
C1014 C 0.39611 0.34214 0.56554 0.0
C1015 C 0.39016 0.32318 0.56669 0.0
C1016 C 0.3932 0.35438 0.58101 0.0
C1017 C 0.3608 0.35977 0.62153 0.0
H1018 H 0.39606 0.3986 0.63862 0.0
C1019 C 0.341 0.40967 0.68289 0.0
C1020 C 0.34514 0.42888 0.67985 0.0
C1021 C 0.34894 0.39591 0.67107 0.0
C1022 C 0.38603 0.38788 0.63392 0.0
H1023 H 0.37768 0.3018 0.58527 0.0
H1024 H 0.3728 0.32301 0.61216 0.0
H1025 H 0.40576 0.37629 0.61376 0.0
H1026 H 0.36135 0.44877 0.66257 0.0
H1027 H 0.3748 0.42486 0.64167 0.0
H1028 H 0.34087 0.37153 0.64109 0.0
C1029 C 0.37931 0.32858 0.59924 0.0
C1030 C 0.3916 0.37513 0.61971 0.0
C1031 C 0.38215 0.31643 0.58385 0.0
C1032 C 0.35788 0.43404 0.66524 0.0
C1033 C 0.36572 0.42032 0.65335 0.0
C1034 C 0.35522 0.37252 0.63561 0.0
C1035 C 0.38433 0.34778 0.59783 0.0
C1036 C 0.37899 0.361 0.61334 0.0
C1037 C 0.36107 0.40111 0.65589 0.0
C1038 C 0.3677 0.3868 0.64191 0.0
H1039 H 0.40238 0.34766 0.55249 0.0
H1040 H 0.39715 0.36915 0.57951 0.0
H1041 H 0.35064 0.34926 0.61665 0.0
H1042 H 0.33135 0.4053 0.69417 0.0
H1043 H 0.34535 0.3812 0.67363 0.0
C1044 C 0.9509 0.70026 0.81502 0.0
C1045 C 0.96223 0.68421 0.81773 0.0
C1046 C 0.93926 0.70672 0.82989 0.0
C1047 C 0.93154 0.70292 0.88228 0.0
H1048 H 0.87807 0.70701 0.86983 0.0
C1049 C 0.87269 0.6858 0.93609 0.0
C1050 C 0.85567 0.69596 0.93545 0.0
C1051 C 0.88694 0.6893 0.92263 0.0
C1052 C 0.89299 0.70636 0.87355 0.0
H1053 H 0.97098 0.66283 0.83821 0.0
H1054 H 0.95088 0.67405 0.86395 0.0
H1055 H 0.90134 0.7049 0.84409 0.0
H1056 H 0.84042 0.71825 0.92073 0.0
H1057 H 0.86539 0.72441 0.89722 0.0
H1058 H 0.92315 0.7036 0.91174 0.0
C1059 C 0.95092 0.68172 0.85049 0.0
C1060 C 0.90632 0.70517 0.85879 0.0
C1061 C 0.96229 0.67517 0.83566 0.0
C1062 C 0.85338 0.71012 0.92149 0.0
C1063 C 0.86764 0.71361 0.908 0.0
C1064 C 0.91824 0.70414 0.89703 0.0
C1065 C 0.9391 0.6974 0.84772 0.0
C1066 C 0.92563 0.70272 0.86304 0.0
C1067 C 0.88445 0.70305 0.90826 0.0
C1068 C 0.89876 0.70517 0.89282 0.0
H1069 H 0.95066 0.70749 0.80133 0.0
H1070 H 0.93027 0.71885 0.82741 0.0
H1071 H 0.9464 0.70134 0.88594 0.0
H1072 H 0.87484 0.67481 0.94669 0.0
H1073 H 0.89961 0.6807 0.92306 0.0
C1074 C 0.53674 0.23573 0.0543 0.0
C1075 C 0.5222 0.24813 0.04892 0.0
C1076 C 0.53531 0.22515 0.07108 0.0
C1077 C 0.50306 0.20589 0.10725 0.0
H1078 H 0.54981 0.2035 0.13661 0.0
C1079 C 0.52372 0.14268 0.15303 0.0
C1080 C 0.53659 0.14476 0.16827 0.0
C1081 C 0.5175 0.15841 0.14281 0.0
C1082 C 0.53645 0.20431 0.12896 0.0
H1083 H 0.49428 0.25849 0.05636 0.0
H1084 H 0.49166 0.23965 0.0859 0.0
H1085 H 0.54774 0.22466 0.10929 0.0
H1086 H 0.55176 0.16499 0.18595 0.0
H1087 H 0.54078 0.19273 0.16806 0.0
H1088 H 0.49192 0.18518 0.12676 0.0
C1089 C 0.5042 0.23826 0.07705 0.0
C1090 C 0.53538 0.21625 0.11307 0.0
C1091 C 0.50564 0.24893 0.06012 0.0
C1092 C 0.54192 0.16301 0.17417 0.0
C1093 C 0.53571 0.17884 0.16385 0.0
C1094 C 0.50411 0.19393 0.12323 0.0
C1095 C 0.51933 0.22674 0.08297 0.0
C1096 C 0.51899 0.21655 0.10157 0.0
C1097 C 0.52405 0.17662 0.14756 0.0
C1098 C 0.52111 0.19243 0.13379 0.0
H1099 H 0.54962 0.23471 0.04588 0.0
H1100 H 0.54696 0.21596 0.07495 0.0
H1101 H 0.49019 0.20596 0.09874 0.0
H1102 H 0.5192 0.12877 0.14829 0.0
H1103 H 0.50869 0.15606 0.1303 0.0
C1104 C 0.96186 0.81719 0.22511 0.0
C1105 C 0.96602 0.82192 0.24423 0.0
C1106 C 0.96219 0.83116 0.21088 0.0
C1107 C 0.98694 0.85806 0.18763 0.0
H1108 H 0.9754 0.91125 0.19367 0.0
C1109 C 0.03973 0.91804 0.17589 0.0
C1110 C 0.03353 0.93563 0.16908 0.0
C1111 C 0.02697 0.90296 0.17774 0.0
C1112 C 0.97842 0.89642 0.1914 0.0
H1113 H 0.97112 0.84507 0.26388 0.0
H1114 H 0.97126 0.86944 0.23925 0.0
H1115 H 0.95743 0.88762 0.21186 0.0
H1116 H 0.0095 0.95098 0.15766 0.0
H1117 H 0.987 0.9246 0.1613 0.0
H1118 H 0.00889 0.86696 0.16829 0.0
C1119 C 0.96796 0.85503 0.23508 0.0
C1120 C 0.9682 0.88291 0.20191 0.0
C1121 C 0.96791 0.84106 0.24924 0.0
C1122 C 0.01468 0.93748 0.16278 0.0
C1123 C 0.00178 0.92247 0.16499 0.0
C1124 C 0.99727 0.87157 0.17727 0.0
C1125 C 0.96635 0.85006 0.21564 0.0
C1126 C 0.97294 0.86367 0.20078 0.0
C1127 C 0.00768 0.90529 0.17314 0.0
C1128 C 0.99368 0.89092 0.17972 0.0
H1129 H 0.96042 0.80252 0.22083 0.0
H1130 H 0.96069 0.82697 0.19602 0.0
H1131 H 0.99108 0.84337 0.18654 0.0
H1132 H 0.05417 0.9163 0.18092 0.0
H1133 H 0.03191 0.88996 0.18423 0.0
C1134 C 0.32272 0.29861 0.5079 0.0
C1135 C 0.33723 0.28935 0.49794 0.0
C1136 C 0.30761 0.3067 0.49797 0.0
C1137 C 0.27504 0.32072 0.4729 0.0
H1138 H 0.29776 0.35829 0.43921 0.0
C1139 C 0.23283 0.38524 0.44774 0.0
C1140 C 0.24157 0.40197 0.45432 0.0
C1141 C 0.24314 0.36843 0.44666 0.0
C1142 C 0.29114 0.34769 0.44828 0.0
H1143 H 0.34683 0.28012 0.47004 0.0
H1144 H 0.32054 0.29482 0.4525 0.0
H1145 H 0.31664 0.33152 0.45026 0.0
H1146 H 0.26821 0.41467 0.46324 0.0
H1147 H 0.28636 0.38548 0.46077 0.0
H1148 H 0.24986 0.33749 0.47179 0.0
C1149 C 0.32072 0.29551 0.468 0.0
C1150 C 0.30187 0.33229 0.45449 0.0
C1151 C 0.33565 0.28699 0.47803 0.0
C1152 C 0.26115 0.402 0.45805 0.0
C1153 C 0.27153 0.38528 0.45662 0.0
C1154 C 0.26422 0.33597 0.46646 0.0
C1155 C 0.307 0.30607 0.47786 0.0
C1156 C 0.29417 0.31911 0.4675 0.0
C1157 C 0.26243 0.36818 0.45175 0.0
C1158 C 0.27242 0.35002 0.45473 0.0
H1159 H 0.32376 0.30072 0.52325 0.0
H1160 H 0.29735 0.31489 0.50593 0.0
H1161 H 0.26879 0.31077 0.48293 0.0
H1162 H 0.2177 0.38473 0.44494 0.0
H1163 H 0.23581 0.35545 0.44281 0.0
C1164 C 0.85876 0.50533 0.75146 0.0
C1165 C 0.84245 0.51582 0.75582 0.0
C1166 C 0.87514 0.51448 0.74473 0.0
C1167 C 0.89484 0.56019 0.7272 0.0
H1168 H 0.93428 0.55164 0.76503 0.0
C1169 C 0.94414 0.61922 0.7522 0.0
C1170 C 0.96279 0.61543 0.75813 0.0
C1171 C 0.93201 0.6046 0.74661 0.0
C1172 C 0.92373 0.55396 0.75399 0.0
H1173 H 0.8297 0.54358 0.75459 0.0
H1174 H 0.85802 0.55945 0.74236 0.0
H1175 H 0.90768 0.52961 0.76268 0.0
H1176 H 0.98356 0.59334 0.76238 0.0
H1177 H 0.96222 0.56755 0.75248 0.0
H1178 H 0.91052 0.58492 0.71897 0.0
C1179 C 0.85832 0.54424 0.74428 0.0
C1180 C 0.90845 0.54129 0.75263 0.0
C1181 C 0.84208 0.53517 0.75131 0.0
C1182 C 0.96921 0.59666 0.75797 0.0
C1183 C 0.95699 0.58192 0.75232 0.0
C1184 C 0.91021 0.57275 0.72842 0.0
C1185 C 0.8753 0.53417 0.74191 0.0
C1186 C 0.89345 0.54474 0.7398 0.0
C1187 C 0.93818 0.58574 0.7467 0.0
C1188 C 0.92436 0.57027 0.74245 0.0
H1189 H 0.85948 0.49041 0.75494 0.0
H1190 H 0.888 0.50637 0.74288 0.0
H1191 H 0.88359 0.56305 0.71703 0.0
H1192 H 0.93874 0.63353 0.75216 0.0
H1193 H 0.91753 0.6081 0.74282 0.0
C1194 C 0.26085 0.6093 0.99849 0.0
C1195 C 0.27597 0.61203 0.01133 0.0
C1196 C 0.24682 0.62309 0.9965 0.0
C1197 C 0.22518 0.66258 0.02275 0.0
H1198 H 0.20152 0.67309 0.97371 0.0
C1199 C 0.15964 0.7102 0.0181 0.0
C1200 C 0.14448 0.70124 0.0086 0.0
C1201 C 0.17817 0.70343 0.01591 0.0
C1202 C 0.20805 0.67036 0.98749 0.0
H1203 H 0.28856 0.63152 0.0318 0.0
H1204 H 0.26423 0.65556 0.02823 0.0
H1205 H 0.22913 0.65241 0.97516 0.0
H1206 H 0.13685 0.67936 0.9882 0.0
H1207 H 0.16894 0.66768 0.98435 0.0
H1208 H 0.20377 0.67997 0.03518 0.0
C1209 C 0.263 0.64269 0.01991 0.0
C1210 C 0.22379 0.65845 0.98833 0.0
C1211 C 0.27696 0.62891 0.02192 0.0
C1212 C 0.14829 0.68646 0.99578 0.0
C1213 C 0.16673 0.67985 0.99347 0.0
C1214 C 0.20947 0.67449 0.02191 0.0
C1215 C 0.24769 0.6399 0.00728 0.0
C1216 C 0.23224 0.65405 0.00604 0.0
C1217 C 0.18177 0.68778 0.00403 0.0
C1218 C 0.20042 0.67811 0.00434 0.0
H1219 H 0.25975 0.59645 0.99011 0.0
H1220 H 0.23507 0.62039 0.98684 0.0
H1221 H 0.23122 0.65935 0.03665 0.0
H1222 H 0.15705 0.72161 0.02808 0.0
H1223 H 0.18954 0.70995 0.02409 0.0
C1224 C 0.46902 0.88742 0.23683 0.0
C1225 C 0.46307 0.86857 0.23914 0.0
C1226 C 0.4562 0.90222 0.23951 0.0
C1227 C 0.40812 0.91368 0.25863 0.0
H1228 H 0.40842 0.95085 0.21777 0.0
C1229 C 0.34256 0.95671 0.23463 0.0
C1230 C 0.34582 0.97453 0.22641 0.0
C1231 C 0.35789 0.94599 0.24129 0.0
C1232 C 0.4083 0.94088 0.22958 0.0
H1233 H 0.43928 0.85042 0.24682 0.0
H1234 H 0.41693 0.87607 0.25114 0.0
H1235 H 0.43387 0.92807 0.2198 0.0
H1236 H 0.367 0.9959 0.21992 0.0
H1237 H 0.39362 0.97765 0.23222 0.0
H1238 H 0.38204 0.92619 0.26791 0.0
C1239 C 0.4315 0.87955 0.24753 0.0
C1240 C 0.42296 0.92778 0.23073 0.0
C1241 C 0.44429 0.86481 0.24487 0.0
C1242 C 0.36424 0.98215 0.2263 0.0
C1243 C 0.37946 0.97162 0.23315 0.0
C1244 C 0.39339 0.92683 0.25746 0.0
C1245 C 0.43718 0.89842 0.24455 0.0
C1246 C 0.42288 0.91377 0.24502 0.0
C1247 C 0.37661 0.95305 0.23982 0.0
C1248 C 0.39316 0.94039 0.24271 0.0
H1249 H 0.48345 0.89073 0.23255 0.0
H1250 H 0.46109 0.91663 0.23733 0.0
H1251 H 0.40777 0.90321 0.26998 0.0
H1252 H 0.32845 0.95051 0.23454 0.0
H1253 H 0.3552 0.93169 0.24623 0.0
C1254 C 0.44197 0.21209 0.81449 0.0
C1255 C 0.45968 0.20561 0.80823 0.0
C1256 C 0.4314 0.20158 0.82774 0.0
C1257 C 0.43364 0.16033 0.86138 0.0
H1258 H 0.37988 0.15721 0.84981 0.0
C1259 C 0.37965 0.1139 0.90465 0.0
C1260 C 0.36544 0.10499 0.8937 0.0
C1261 C 0.39214 0.12691 0.89603 0.0
C1262 C 0.39489 0.1578 0.85318 0.0
H1263 H 0.48054 0.1834 0.8113 0.0
H1264 H 0.46182 0.16467 0.83377 0.0
H1265 H 0.39982 0.17894 0.83193 0.0
H1266 H 0.35383 0.10171 0.8651 0.0
H1267 H 0.37578 0.12373 0.85006 0.0
H1268 H 0.42866 0.13833 0.88201 0.0
C1269 C 0.45622 0.17808 0.82891 0.0
C1270 C 0.40631 0.17055 0.84312 0.0
C1271 C 0.46691 0.18873 0.81588 0.0
C1272 C 0.36447 0.10859 0.87395 0.0
C1273 C 0.37697 0.12134 0.86536 0.0
C1274 C 0.42217 0.14741 0.87138 0.0
C1275 C 0.43817 0.1842 0.83476 0.0
C1276 C 0.42589 0.17181 0.84686 0.0
C1277 C 0.39062 0.13106 0.87634 0.0
C1278 C 0.40274 0.14574 0.86708 0.0
H1279 H 0.43619 0.22519 0.80901 0.0
H1280 H 0.41776 0.20697 0.83224 0.0
H1281 H 0.44861 0.16114 0.86485 0.0
H1282 H 0.38066 0.11136 0.91993 0.0
H1283 H 0.40251 0.13416 0.90488 0.0
C1284 C 0.5537 0.2972 0.32049 0.0
C1285 C 0.54115 0.3124 0.32262 0.0
C1286 C 0.56554 0.2919 0.3357 0.0
C1287 C 0.5732 0.2976 0.38802 0.0
H1288 H 0.62664 0.29728 0.37485 0.0
C1289 C 0.63221 0.31709 0.44168 0.0
C1290 C 0.65011 0.30873 0.43971 0.0
C1291 C 0.6177 0.31292 0.42863 0.0
C1292 C 0.61178 0.29687 0.37883 0.0
H1293 H 0.53029 0.33323 0.34252 0.0
H1294 H 0.55077 0.32399 0.3689 0.0
H1295 H 0.60295 0.29741 0.34949 0.0
H1296 H 0.66656 0.28856 0.42338 0.0
H1297 H 0.64117 0.28097 0.4009 0.0
H1298 H 0.58204 0.29762 0.41739 0.0
C1299 C 0.55155 0.31613 0.35561 0.0
C1300 C 0.5982 0.29694 0.36425 0.0
C1301 C 0.53995 0.32155 0.34042 0.0
C1302 C 0.65295 0.29541 0.42509 0.0
C1303 C 0.63843 0.29112 0.41216 0.0
C1304 C 0.58679 0.29742 0.40263 0.0
C1305 C 0.56476 0.30154 0.35331 0.0
C1306 C 0.5788 0.29789 0.36869 0.0
C1307 C 0.62078 0.30018 0.41346 0.0
C1308 C 0.60626 0.29762 0.39819 0.0
H1309 H 0.55485 0.28989 0.30692 0.0
H1310 H 0.57556 0.28054 0.33358 0.0
H1311 H 0.5583 0.29809 0.39184 0.0
H1312 H 0.62965 0.32741 0.45282 0.0
H1313 H 0.60437 0.32033 0.42994 0.0
C1314 C 0.71331 0.00412 0.84494 0.0
C1315 C 0.71828 0.00334 0.82549 0.0
C1316 C 0.72728 0.00666 0.85891 0.0
C1317 C 0.7751 0.99104 0.86544 0.0
H1318 H 0.76905 0.01322 0.9158 0.0
C1319 C 0.81697 0.96352 0.9312 0.0
C1320 C 0.80555 0.96048 0.94742 0.0
C1321 C 0.8101 0.97409 0.91566 0.0
C1322 C 0.77099 0.00695 0.90179 0.0
H1323 H 0.74139 0.00652 0.80521 0.0
H1324 H 0.7659 0.01072 0.82973 0.0
H1325 H 0.74964 0.02448 0.88916 0.0
H1326 H 0.77812 0.96629 0.96021 0.0
H1327 H 0.76611 0.98414 0.93325 0.0
H1328 H 0.79538 0.97254 0.87827 0.0
C1329 C 0.75121 0.00937 0.83414 0.0
C1330 C 0.75996 0.0135 0.88654 0.0
C1331 C 0.73716 0.00712 0.82012 0.0
C1332 C 0.78731 0.96836 0.94793 0.0
C1333 C 0.78049 0.97884 0.93251 0.0
C1334 C 0.78601 0.98437 0.88073 0.0
C1335 C 0.7465 0.00822 0.85368 0.0
C1336 C 0.76135 0.00507 0.8684 0.0
C1337 C 0.79173 0.98182 0.91615 0.0
C1338 C 0.78346 0.99167 0.89927 0.0
H1339 H 0.69885 0.00126 0.84944 0.0
H1340 H 0.72319 0.00562 0.87384 0.0
H1341 H 0.77636 0.98411 0.85167 0.0
H1342 H 0.83114 0.95771 0.93048 0.0
H1343 H 0.81914 0.97617 0.90328 0.0
C1344 C 0.37127 0.60079 0.35041 0.0
C1345 C 0.38824 0.59169 0.35531 0.0
C1346 C 0.35765 0.6045 0.3643 0.0
C1347 C 0.34148 0.59421 0.41353 0.0
H1348 H 0.32307 0.64573 0.41025 0.0
C1349 C 0.29844 0.63158 0.47356 0.0
C1350 C 0.28381 0.64369 0.46761 0.0
C1351 C 0.31035 0.62313 0.46008 0.0
C1352 C 0.32783 0.63122 0.41124 0.0
H1353 H 0.40387 0.57828 0.3783 0.0
H1354 H 0.37998 0.58512 0.40294 0.0
H1355 H 0.34533 0.63433 0.3865 0.0
H1356 H 0.26958 0.65573 0.44293 0.0
H1357 H 0.29016 0.64083 0.41942 0.0
H1358 H 0.32395 0.59131 0.43853 0.0
C1359 C 0.37722 0.58923 0.38825 0.0
C1360 C 0.34062 0.62468 0.39763 0.0
C1361 C 0.39088 0.58535 0.3742 0.0
C1362 C 0.28085 0.64662 0.44795 0.0
C1363 C 0.29269 0.63815 0.43449 0.0
C1364 C 0.3286 0.6008 0.42724 0.0
C1365 C 0.36075 0.59939 0.38349 0.0
C1366 C 0.34745 0.60606 0.39846 0.0
C1367 C 0.30782 0.62664 0.44041 0.0
C1368 C 0.32152 0.61934 0.42611 0.0
H1369 H 0.36872 0.60556 0.33587 0.0
H1370 H 0.34488 0.61189 0.36008 0.0
H1371 H 0.34649 0.57979 0.4145 0.0
H1372 H 0.30101 0.62904 0.48866 0.0
H1373 H 0.32194 0.61443 0.46509 0.0
C1374 C 0.1098 0.96285 0.23134 0.0
C1375 C 0.09705 0.97805 0.23112 0.0
C1376 C 0.12286 0.96091 0.24629 0.0
C1377 C 0.13013 0.97518 0.29647 0.0
H1378 H 0.18108 0.95611 0.28871 0.0
C1379 C 0.17817 0.96576 0.36058 0.0
C1380 C 0.18583 0.94758 0.36235 0.0
C1381 C 0.17143 0.97212 0.34296 0.0
C1382 C 0.1669 0.96146 0.29105 0.0
H1383 H 0.0883 0.00341 0.24602 0.0
H1384 H 0.11124 0.0002 0.27197 0.0
H1385 H 0.16055 0.96199 0.261 0.0
H1386 H 0.19406 0.92238 0.34696 0.0
H1387 H 0.18186 0.93333 0.31601 0.0
H1388 H 0.13616 0.97435 0.32639 0.0
C1389 C 0.11093 0.98956 0.26082 0.0
C1390 C 0.15512 0.96476 0.27523 0.0
C1391 C 0.0978 0.99143 0.24594 0.0
C1392 C 0.18829 0.93651 0.34588 0.0
C1393 C 0.18128 0.94278 0.32819 0.0
C1394 C 0.14186 0.97197 0.31219 0.0
C1395 C 0.1235 0.97418 0.26127 0.0
C1396 C 0.13654 0.97153 0.2778 0.0
C1397 C 0.17191 0.96026 0.32683 0.0
C1398 C 0.16034 0.96498 0.30971 0.0
H1399 H 0.10956 0.95235 0.22006 0.0
H1400 H 0.13215 0.94876 0.24633 0.0
H1401 H 0.11579 0.97998 0.29903 0.0
H1402 H 0.17632 0.97463 0.37309 0.0
H1403 H 0.16475 0.98586 0.34223 0.0
C1404 C 0.78293 0.55435 0.82464 0.0
C1405 C 0.78937 0.53783 0.8337 0.0
C1406 C 0.77631 0.56953 0.83548 0.0
C1407 C 0.7575 0.58339 0.88236 0.0
H1408 H 0.78459 0.63051 0.8736 0.0
C1409 C 0.76631 0.6404 0.94005 0.0
C1410 C 0.77202 0.6587 0.93462 0.0
C1411 C 0.76219 0.6268 0.92611 0.0
C1412 C 0.77636 0.61774 0.876 0.0
H1413 H 0.79331 0.52391 0.86111 0.0
H1414 H 0.78148 0.55043 0.88008 0.0
H1415 H 0.78962 0.60404 0.85225 0.0
H1416 H 0.77539 0.67794 0.91069 0.0
H1417 H 0.76686 0.65465 0.88639 0.0
H1418 H 0.74421 0.59701 0.90614 0.0
C1419 C 0.78161 0.55161 0.8646 0.0
C1420 C 0.77942 0.60248 0.86377 0.0
C1421 C 0.78852 0.53652 0.85377 0.0
C1422 C 0.7712 0.66385 0.91522 0.0
C1423 C 0.76659 0.65038 0.90129 0.0
C1424 C 0.75413 0.59881 0.89443 0.0
C1425 C 0.77571 0.56835 0.85556 0.0
C1426 C 0.77043 0.58503 0.86714 0.0
C1427 C 0.76331 0.63136 0.90648 0.0
C1428 C 0.76397 0.61604 0.89178 0.0
H1429 H 0.78339 0.55573 0.80918 0.0
H1430 H 0.77182 0.58229 0.82819 0.0
H1431 H 0.75023 0.5701 0.88509 0.0
H1432 H 0.76693 0.63602 0.95492 0.0
H1433 H 0.75978 0.61238 0.93081 0.0
C1434 C 0.7943 0.79068 0.45049 0.0
C1435 C 0.79427 0.81033 0.45343 0.0
C1436 C 0.81145 0.78105 0.44853 0.0
C1437 C 0.86017 0.78826 0.46587 0.0
H1438 H 0.86779 0.73792 0.44541 0.0
C1439 C 0.92755 0.74659 0.48281 0.0
C1440 C 0.92472 0.72796 0.48932 0.0
C1441 C 0.91277 0.75655 0.47426 0.0
C1442 C 0.86581 0.75198 0.4512 0.0
H1443 H 0.8117 0.83567 0.45374 0.0
H1444 H 0.84156 0.81907 0.4491 0.0
H1445 H 0.84028 0.75632 0.43508 0.0
H1446 H 0.90435 0.70492 0.49144 0.0
H1447 H 0.87829 0.7225 0.47658 0.0
H1448 H 0.88542 0.78387 0.48218 0.0
C1449 C 0.82849 0.81091 0.44932 0.0
C1450 C 0.85009 0.76254 0.44529 0.0
C1451 C 0.81137 0.82048 0.45171 0.0
C1452 C 0.9069 0.71929 0.48665 0.0
C1453 C 0.89206 0.72929 0.478 0.0
C1454 C 0.87588 0.77782 0.47161 0.0
C1455 C 0.82884 0.79099 0.44913 0.0
C1456 C 0.84689 0.78071 0.45282 0.0
C1457 C 0.8948 0.74812 0.47198 0.0
C1458 C 0.87873 0.75946 0.4646 0.0
H1459 H 0.7813 0.78248 0.45181 0.0
H1460 H 0.81107 0.76574 0.44838 0.0
H1461 H 0.85801 0.80193 0.47247 0.0
H1462 H 0.94117 0.75361 0.4845 0.0
H1463 H 0.91537 0.77095 0.46957 0.0
C1464 C 0.09579 0.21155 0.01218 0.0
C1465 C 0.07819 0.22076 0.01248 0.0
C1466 C 0.11166 0.21982 0.02105 0.0
C1467 C 0.12948 0.26688 0.0336 0.0
H1468 H 0.16923 0.23995 0.06048 0.0
C1469 C 0.19672 0.30662 0.05094 0.0
C1470 C 0.21305 0.29735 0.04451 0.0
C1471 C 0.18007 0.29637 0.0545 0.0
C1472 C 0.15823 0.24768 0.05303 0.0
H1473 H 0.06308 0.24521 0.02319 0.0
H1474 H 0.09056 0.25945 0.0387 0.0
H1475 H 0.14016 0.22315 0.051 0.0
H1476 H 0.22556 0.26997 0.03902 0.0
H1477 H 0.19646 0.25216 0.04447 0.0
H1478 H 0.14755 0.29107 0.03457 0.0
C1479 C 0.09228 0.24608 0.03134 0.0
C1480 C 0.14163 0.23804 0.04758 0.0
C1481 C 0.07653 0.23791 0.02245 0.0
C1482 C 0.21314 0.27748 0.04396 0.0
C1483 C 0.19638 0.26725 0.04711 0.0
C1484 C 0.146 0.27643 0.03891 0.0
C1485 C 0.11011 0.23739 0.03037 0.0
C1486 C 0.1272 0.24752 0.03758 0.0
C1487 C 0.17935 0.27673 0.05118 0.0
C1488 C 0.16075 0.26694 0.04845 0.0
H1489 H 0.09742 0.19826 0.00467 0.0
H1490 H 0.12526 0.21285 0.01995 0.0
H1491 H 0.11881 0.27453 0.02559 0.0
H1492 H 0.19636 0.32192 0.05169 0.0
H1493 H 0.16738 0.30404 0.05833 0.0
C1494 C 0.82938 0.21174 0.48247 0.0
C1495 C 0.844 0.21631 0.49539 0.0
C1496 C 0.81329 0.20189 0.48878 0.0
C1497 C 0.78948 0.17987 0.53141 0.0
H1498 H 0.78581 0.1369 0.49708 0.0
C1499 C 0.73874 0.11422 0.53987 0.0
C1500 C 0.74623 0.09681 0.53387 0.0
C1501 C 0.74959 0.13084 0.53832 0.0
C1502 C 0.78674 0.14875 0.50689 0.0
H1503 H 0.85212 0.21652 0.52537 0.0
H1504 H 0.82431 0.19898 0.5363 0.0
H1505 H 0.80386 0.16456 0.48742 0.0
H1506 H 0.77149 0.08277 0.52361 0.0
H1507 H 0.79055 0.1116 0.52141 0.0
H1508 H 0.77263 0.16343 0.55111 0.0
C1509 C 0.82511 0.20302 0.52135 0.0
C1510 C 0.79679 0.16481 0.50119 0.0
C1511 C 0.8411 0.21311 0.51506 0.0
C1512 C 0.76532 0.096 0.52823 0.0
C1513 C 0.77615 0.11254 0.52679 0.0
C1514 C 0.77924 0.16371 0.5371 0.0
C1515 C 0.8117 0.19619 0.50805 0.0
C1516 C 0.79856 0.18049 0.51345 0.0
C1517 C 0.76809 0.13023 0.53084 0.0
C1518 C 0.77817 0.14783 0.52503 0.0
H1519 H 0.83113 0.21425 0.46725 0.0
H1520 H 0.80289 0.19735 0.47827 0.0
H1521 H 0.79055 0.19174 0.54116 0.0
H1522 H 0.724 0.1153 0.54414 0.0
H1523 H 0.74302 0.14427 0.54158 0.0
C1524 C 0.47053 0.66499 0.77404 0.0
C1525 C 0.46739 0.66812 0.7544 0.0
C1526 C 0.46947 0.6467 0.78158 0.0
C1527 C 0.47799 0.59939 0.762 0.0
H1528 H 0.4785 0.58521 0.81573 0.0
C1529 C 0.50902 0.52901 0.7839 0.0
C1530 C 0.52355 0.53028 0.79764 0.0
C1531 C 0.49618 0.54369 0.78153 0.0
C1532 C 0.47833 0.58898 0.80068 0.0
H1533 H 0.45733 0.65535 0.72807 0.0
H1534 H 0.45413 0.62365 0.7415 0.0
H1535 H 0.46363 0.61491 0.80589 0.0
H1536 H 0.53524 0.54717 0.82071 0.0
H1537 H 0.51289 0.5734 0.81621 0.0
H1538 H 0.49296 0.57383 0.75678 0.0
C1539 C 0.45863 0.63504 0.75086 0.0
C1540 C 0.46983 0.60598 0.795 0.0
C1541 C 0.46018 0.65326 0.74318 0.0
C1542 C 0.52419 0.54594 0.80997 0.0
C1543 C 0.51136 0.56085 0.80744 0.0
C1544 C 0.4862 0.58241 0.76763 0.0
C1545 C 0.46483 0.63128 0.7697 0.0
C1546 C 0.47003 0.61167 0.77561 0.0
C1547 C 0.4977 0.56013 0.79268 0.0
C1548 C 0.48688 0.5772 0.78704 0.0
H1549 H 0.47596 0.67621 0.78313 0.0
H1550 H 0.47423 0.64456 0.79618 0.0
H1551 H 0.47902 0.60331 0.74704 0.0
H1552 H 0.50796 0.51687 0.77447 0.0
H1553 H 0.48557 0.54254 0.77033 0.0
C1554 C 0.44921 0.7905 0.18391 0.0
C1555 C 0.46638 0.80043 0.18159 0.0
C1556 C 0.43759 0.78688 0.16796 0.0
C1557 C 0.4283 0.80874 0.1214 0.0
H1558 H 0.39672 0.76477 0.11116 0.0
C1559 C 0.38163 0.80645 0.05465 0.0
C1560 C 0.36279 0.80048 0.05739 0.0
C1561 C 0.39524 0.80327 0.0688 0.0
C1562 C 0.40542 0.77716 0.11392 0.0
H1563 H 0.48591 0.81262 0.16093 0.0
H1564 H 0.46608 0.80584 0.13322 0.0
H1565 H 0.419 0.76432 0.13822 0.0
H1566 H 0.34354 0.78574 0.07663 0.0
H1567 H 0.36727 0.78055 0.10159 0.0
H1568 H 0.41463 0.82185 0.09763 0.0
C1569 C 0.46115 0.80143 0.14725 0.0
C1570 C 0.41814 0.77689 0.12938 0.0
C1571 C 0.47253 0.80524 0.16309 0.0
C1572 C 0.35798 0.79054 0.07417 0.0
C1573 C 0.37159 0.78746 0.08841 0.0
C1574 C 0.41566 0.80903 0.10608 0.0
C1575 C 0.44318 0.79301 0.14958 0.0
C1576 C 0.42977 0.79268 0.13319 0.0
C1577 C 0.39027 0.7942 0.08607 0.0
C1578 C 0.4041 0.79326 0.10209 0.0
H1579 H 0.44422 0.78666 0.19808 0.0
H1580 H 0.42381 0.78035 0.17017 0.0
H1581 H 0.43667 0.82135 0.12426 0.0
H1582 H 0.38578 0.81396 0.04175 0.0
H1583 H 0.40961 0.80829 0.06639 0.0
C1584 C 0.40323 0.78931 0.5178 0.0
C1585 C 0.41851 0.77708 0.51445 0.0
C1586 C 0.38699 0.78277 0.52741 0.0
C1587 C 0.3689 0.74245 0.55713 0.0
H1588 H 0.32082 0.75357 0.5327 0.0
C1589 C 0.28531 0.71598 0.55188 0.0
C1590 C 0.28905 0.69704 0.54722 0.0
C1591 C 0.3003 0.72851 0.55574 0.0
C1592 C 0.33402 0.75068 0.5401 0.0
H1593 H 0.4289 0.74856 0.51875 0.0
H1594 H 0.40065 0.73712 0.53496 0.0
H1595 H 0.34912 0.77108 0.52326 0.0
H1596 H 0.31093 0.67575 0.54537 0.0
H1597 H 0.33698 0.69743 0.55241 0.0
H1598 H 0.3539 0.72108 0.57299 0.0
C1599 C 0.40122 0.75184 0.53063 0.0
C1600 C 0.35029 0.76072 0.53464 0.0
C1601 C 0.41737 0.75835 0.5211 0.0
C1602 C 0.30768 0.6903 0.54886 0.0
C1603 C 0.32261 0.70275 0.55293 0.0
C1604 C 0.35264 0.73231 0.56249 0.0
C1605 C 0.38578 0.7639 0.53385 0.0
C1606 C 0.36806 0.75616 0.5425 0.0
C1607 C 0.31917 0.72218 0.55526 0.0
C1608 C 0.33518 0.73582 0.55347 0.0
H1609 H 0.40379 0.80386 0.51294 0.0
H1610 H 0.37537 0.79245 0.52973 0.0
H1611 H 0.3823 0.73893 0.56382 0.0
H1612 H 0.27107 0.72157 0.55071 0.0
H1613 H 0.29724 0.74338 0.55771 0.0
C1614 C 0.78177 0.87501 0.9916 0.0
C1615 C 0.78053 0.89168 0.00243 0.0
C1616 C 0.76785 0.86098 0.9931 0.0
C1617 C 0.7267 0.84474 0.02236 0.0
H1618 H 0.70953 0.82388 0.97391 0.0
C1619 C 0.65143 0.81693 0.00851 0.0
C1620 C 0.64858 0.80194 0.99562 0.0
C1621 C 0.66967 0.82369 0.01234 0.0
C1622 C 0.71441 0.82919 0.98763 0.0
H1623 H 0.76409 0.90658 0.02376 0.0
H1624 H 0.73925 0.8823 0.02595 0.0
H1625 H 0.73726 0.84444 0.97463 0.0
H1626 H 0.66256 0.7814 0.97757 0.0
H1627 H 0.69468 0.79338 0.98416 0.0
H1628 H 0.70314 0.8301 0.03513 0.0
C1629 C 0.75122 0.87988 0.01655 0.0
C1630 C 0.73031 0.84104 0.98806 0.0
C1631 C 0.76533 0.89387 0.0152 0.0
C1632 C 0.6644 0.793 0.98755 0.0
C1633 C 0.68272 0.79991 0.99124 0.0
C1634 C 0.71069 0.83293 0.0219 0.0
C1635 C 0.7522 0.86338 0.00531 0.0
C1636 C 0.73642 0.8493 0.00536 0.0
C1637 C 0.68545 0.81569 0.00324 0.0
C1638 C 0.70414 0.82539 0.00445 0.0
H1639 H 0.79353 0.87278 0.98188 0.0
H1640 H 0.76928 0.84829 0.98455 0.0
H1641 H 0.73125 0.85056 0.03597 0.0
H1642 H 0.63947 0.82401 0.01503 0.0
H1643 H 0.67126 0.83595 0.02151 0.0
C1644 C 0.70104 0.54695 0.64986 0.0
C1645 C 0.70066 0.56593 0.64394 0.0
C1646 C 0.6941 0.54175 0.66784 0.0
C1647 C 0.65838 0.55943 0.70159 0.0
H1648 H 0.669 0.51207 0.72747 0.0
C1649 C 0.61108 0.52941 0.76221 0.0
C1650 C 0.60485 0.51071 0.75918 0.0
C1651 C 0.62553 0.5372 0.75094 0.0
C1652 C 0.66594 0.52535 0.72039 0.0
H1653 H 0.69513 0.59466 0.65306 0.0
H1654 H 0.68376 0.58569 0.68485 0.0
H1655 H 0.69184 0.52484 0.70442 0.0
H1656 H 0.60904 0.48539 0.74228 0.0
H1657 H 0.63453 0.49901 0.72265 0.0
H1658 H 0.63245 0.55982 0.71755 0.0
C1659 C 0.68865 0.57469 0.67531 0.0
C1660 C 0.67898 0.53268 0.70717 0.0
C1661 C 0.69538 0.57988 0.65717 0.0
C1662 C 0.6135 0.49987 0.74484 0.0
C1663 C 0.62818 0.50759 0.73375 0.0
C1664 C 0.64553 0.55225 0.71501 0.0
C1665 C 0.68686 0.55547 0.68041 0.0
C1666 C 0.67509 0.54952 0.69713 0.0
C1667 C 0.63423 0.52636 0.73664 0.0
C1668 C 0.64893 0.53489 0.72411 0.0
H1669 H 0.70514 0.53587 0.64001 0.0
H1670 H 0.69297 0.52681 0.67111 0.0
H1671 H 0.65462 0.57221 0.69396 0.0
H1672 H 0.60469 0.53808 0.7732 0.0
H1673 H 0.62997 0.5517 0.75346 0.0
C1674 C 0.28561 0.9444 0.15891 0.0
C1675 C 0.28911 0.96296 0.1526 0.0
C1676 C 0.27955 0.9305 0.14603 0.0
C1677 C 0.27937 0.92003 0.09404 0.0
H1678 H 0.25005 0.87634 0.11067 0.0
C1679 C 0.27072 0.857 0.04436 0.0
C1680 C 0.27937 0.8411 0.05262 0.0
C1681 C 0.26492 0.87203 0.05592 0.0
C1682 C 0.25805 0.88858 0.10578 0.0
H1683 H 0.28824 0.98182 0.12813 0.0
H1684 H 0.27697 0.95778 0.10572 0.0
H1685 H 0.25378 0.90344 0.13209 0.0
H1686 H 0.28659 0.82734 0.07939 0.0
H1687 H 0.27605 0.85334 0.09958 0.0
H1688 H 0.28383 0.90505 0.06787 0.0
C1689 C 0.27948 0.95371 0.12047 0.0
C1690 C 0.26038 0.90403 0.11809 0.0
C1691 C 0.28587 0.96754 0.13331 0.0
C1692 C 0.27999 0.83946 0.07267 0.0
C1693 C 0.27393 0.85435 0.08423 0.0
C1694 C 0.27678 0.90474 0.08167 0.0
C1695 C 0.27653 0.93492 0.12659 0.0
C1696 C 0.27161 0.91971 0.11261 0.0
C1697 C 0.26738 0.8712 0.0759 0.0
C1698 C 0.26658 0.88863 0.08761 0.0
H1699 H 0.28804 0.94047 0.17372 0.0
H1700 H 0.27785 0.91617 0.15128 0.0
H1701 H 0.28836 0.93162 0.08933 0.0
H1702 H 0.27012 0.85866 0.02893 0.0
H1703 H 0.25974 0.88481 0.04917 0.0
C1704 C 0.30541 0.50415 0.64752 0.0
C1705 C 0.2965 0.50448 0.6655 0.0
C1706 C 0.29494 0.50721 0.63085 0.0
C1707 C 0.24759 0.49597 0.61492 0.0
H1708 H 0.2661 0.51476 0.56611 0.0
C1709 C 0.21226 0.47303 0.54424 0.0
C1710 C 0.22485 0.4678 0.52961 0.0
C1711 C 0.21884 0.48289 0.5603 0.0
C1712 C 0.26073 0.50941 0.57963 0.0
H1713 H 0.27017 0.51021 0.68038 0.0
H1714 H 0.25176 0.51551 0.65112 0.0
H1715 H 0.28176 0.52467 0.59575 0.0
H1716 H 0.2541 0.46916 0.52005 0.0
H1717 H 0.26573 0.48582 0.54829 0.0
H1718 H 0.22737 0.47981 0.59894 0.0
C1719 C 0.26683 0.51276 0.64994 0.0
C1720 C 0.26962 0.5152 0.59659 0.0
C1721 C 0.27739 0.50988 0.66668 0.0
C1722 C 0.24407 0.47298 0.53113 0.0
C1723 C 0.25069 0.48272 0.54724 0.0
C1724 C 0.23879 0.4901 0.59799 0.0
C1725 C 0.27531 0.51048 0.63184 0.0
C1726 C 0.26352 0.50805 0.61437 0.0
C1727 C 0.23819 0.48762 0.56214 0.0
C1728 C 0.24565 0.49625 0.5801 0.0
H1729 H 0.32017 0.50008 0.64625 0.0
H1730 H 0.3019 0.50528 0.61716 0.0
H1731 H 0.24272 0.48995 0.62834 0.0
H1732 H 0.19731 0.4694 0.54335 0.0
H1733 H 0.20878 0.48667 0.57135 0.0
C1734 C 0.62196 0.11237 0.14892 0.0
C1735 C 0.60634 0.10057 0.14496 0.0
C1736 C 0.6355 0.11612 0.13492 0.0
C1737 C 0.6551 0.10097 0.08859 0.0
H1738 H 0.6703 0.15378 0.08581 0.0
C1739 C 0.70241 0.13372 0.0283 0.0
C1740 C 0.7163 0.14679 0.03436 0.0
C1741 C 0.68921 0.12634 0.04134 0.0
C1742 C 0.66636 0.13895 0.08652 0.0
H1743 H 0.59303 0.08272 0.12353 0.0
H1744 H 0.61681 0.08957 0.09865 0.0
H1745 H 0.64662 0.14388 0.10909 0.0
H1746 H 0.72777 0.16182 0.05889 0.0
H1747 H 0.70482 0.14893 0.08162 0.0
H1748 H 0.67494 0.09621 0.06577 0.0
C1749 C 0.61854 0.09579 0.11273 0.0
C1750 C 0.65278 0.13326 0.09985 0.0
C1751 C 0.60494 0.09191 0.12691 0.0
C1752 C 0.71715 0.15187 0.05378 0.0
C1753 C 0.70396 0.14456 0.06677 0.0
C1754 C 0.66873 0.1067 0.07511 0.0
C1755 C 0.6337 0.10833 0.11651 0.0
C1756 C 0.64724 0.11418 0.1013 0.0
C1757 C 0.68964 0.132 0.06063 0.0
C1758 C 0.6747 0.12572 0.0742 0.0
H1759 H 0.6236 0.11901 0.16282 0.0
H1760 H 0.64729 0.12542 0.13845 0.0
H1761 H 0.65112 0.08616 0.08941 0.0
H1762 H 0.70146 0.12952 0.0134 0.0
H1763 H 0.67829 0.11674 0.03621 0.0
C1764 C 0.59943 0.27915 0.9813 0.0
C1765 C 0.58139 0.27057 0.98064 0.0
C1766 C 0.61491 0.2706 0.97227 0.0
C1767 C 0.63106 0.22352 0.96012 0.0
H1768 H 0.67169 0.24941 0.93306 0.0
C1769 C 0.69898 0.18384 0.94754 0.0
C1770 C 0.71521 0.19396 0.95326 0.0
C1771 C 0.68229 0.19341 0.94295 0.0
C1772 C 0.66048 0.24196 0.94061 0.0
H1773 H 0.56516 0.24694 0.96917 0.0
H1774 H 0.5921 0.23208 0.9536 0.0
H1775 H 0.64284 0.26661 0.94149 0.0
H1776 H 0.72748 0.22198 0.95654 0.0
H1777 H 0.69835 0.23862 0.94947 0.0
H1778 H 0.64877 0.19932 0.96059 0.0
C1779 C 0.59435 0.24527 0.96119 0.0
C1780 C 0.64397 0.25182 0.9454 0.0
C1781 C 0.57893 0.25379 0.97013 0.0
C1782 C 0.71514 0.2138 0.95218 0.0
C1783 C 0.69834 0.22337 0.94807 0.0
C1784 C 0.64756 0.21377 0.9556 0.0
C1785 C 0.61257 0.25334 0.96252 0.0
C1786 C 0.62926 0.24275 0.95551 0.0
C1787 C 0.6814 0.21325 0.94459 0.0
C1788 C 0.6627 0.22291 0.94613 0.0
H1789 H 0.6017 0.29213 0.98923 0.0
H1790 H 0.62884 0.27705 0.97366 0.0
H1791 H 0.62008 0.21622 0.96817 0.0
H1792 H 0.69875 0.16852 0.94804 0.0
H1793 H 0.66972 0.18515 0.93956 0.0
C1794 C 0.53737 0.3968 0.25644 0.0
C1795 C 0.54405 0.37843 0.25995 0.0
C1796 C 0.54978 0.41091 0.24969 0.0
C1797 C 0.5823 0.43984 0.24868 0.0
H1798 H 0.62427 0.42631 0.21553 0.0
C1799 C 0.66341 0.46222 0.24408 0.0
C1800 C 0.66193 0.482 0.24483 0.0
C1801 C 0.64775 0.45114 0.2389 0.0
C1802 C 0.61253 0.43036 0.22462 0.0
H1803 H 0.56886 0.36043 0.25909 0.0
H1804 H 0.59036 0.38488 0.24782 0.0
H1805 H 0.59816 0.40393 0.22044 0.0
H1806 H 0.64349 0.5058 0.23916 0.0
H1807 H 0.61602 0.48636 0.23027 0.0
H1808 H 0.59702 0.46602 0.25335 0.0
C1809 C 0.57556 0.38843 0.2498 0.0
C1810 C 0.59763 0.41753 0.22754 0.0
C1811 C 0.56324 0.37443 0.25649 0.0
C1812 C 0.64507 0.49057 0.2386 0.0
C1813 C 0.62928 0.47946 0.23369 0.0
C1814 C 0.59714 0.45274 0.24563 0.0
C1815 C 0.56903 0.40685 0.24629 0.0
C1816 C 0.58275 0.42181 0.24025 0.0
C1817 C 0.63026 0.45963 0.23461 0.0
C1818 C 0.61275 0.44783 0.23415 0.0
H1819 H 0.52261 0.40025 0.25889 0.0
H1820 H 0.54429 0.42496 0.24707 0.0
H1821 H 0.57116 0.44357 0.25863 0.0
H1822 H 0.67623 0.45526 0.24885 0.0
H1823 H 0.64893 0.43589 0.23985 0.0
C1824 C 0.49641 0.18303 0.71806 0.0
C1825 C 0.50847 0.18827 0.73317 0.0
C1826 C 0.49861 0.16578 0.70884 0.0
C1827 C 0.51374 0.11853 0.72184 0.0
H1828 H 0.49084 0.1077 0.67244 0.0
C1829 C 0.46458 0.05565 0.71228 0.0
C1830 C 0.46367 0.04571 0.69491 0.0
C1831 C 0.47567 0.07194 0.71393 0.0
C1832 C 0.49764 0.11031 0.68612 0.0
H1833 H 0.5334 0.18053 0.74943 0.0
H1834 H 0.5374 0.14996 0.73322 0.0
H1835 H 0.50331 0.13925 0.67898 0.0
H1836 H 0.47354 0.04509 0.66552 0.0
H1837 H 0.49316 0.0738 0.66839 0.0
H1838 H 0.50792 0.08969 0.72905 0.0
C1839 C 0.52607 0.1592 0.72863 0.0
C1840 C 0.50466 0.12847 0.68995 0.0
C1841 C 0.5239 0.1767 0.73784 0.0
C1842 C 0.47387 0.0526 0.67904 0.0
C1843 C 0.48515 0.06896 0.68073 0.0
C1844 C 0.50699 0.10034 0.71791 0.0
C1845 C 0.51292 0.15321 0.71458 0.0
C1846 C 0.51164 0.13311 0.70829 0.0
C1847 C 0.48635 0.07868 0.6983 0.0
C1848 C 0.49776 0.09635 0.70046 0.0
H1849 H 0.4845 0.19185 0.71406 0.0
H1850 H 0.48805 0.16173 0.69831 0.0
H1851 H 0.51908 0.12145 0.73609 0.0
H1852 H 0.45678 0.05076 0.72475 0.0
H1853 H 0.47569 0.07936 0.7275 0.0
C1854 C 0.96377 0.46087 0.30139 0.0
C1855 C 0.9675 0.47579 0.28863 0.0
C1856 C 0.97352 0.44375 0.2996 0.0
C1857 C 0.99836 0.41618 0.26269 0.0
H1858 H 0.00966 0.38277 0.30523 0.0
C1859 C 0.01903 0.3396 0.24831 0.0
C1860 C 0.00671 0.32709 0.25787 0.0
C1861 C 0.02068 0.35841 0.25445 0.0
C1862 C 0.00674 0.39203 0.29321 0.0
H1863 H 0.98517 0.48509 0.26492 0.0
H1864 H 0.0024 0.45559 0.26213 0.0
H1865 H -0.00059 0.41514 0.31155 0.0
H1866 H 0.98802 0.32364 0.2823 0.0
H1867 H 0.9909 0.35617 0.29298 0.0
H1868 H 0.00492 0.39298 0.24436 0.0
C1869 C 0.9916 0.45675 0.2731 0.0
C1870 C 0.00075 0.41051 0.29683 0.0
C1871 C 0.98173 0.47368 0.27473 0.0
C1872 C 0.99749 0.3331 0.27458 0.0
C1873 C -0.00072 0.35173 0.28081 0.0
C1874 C 0.00439 0.39778 0.25909 0.0
C1875 C 0.98729 0.44139 0.28517 0.0
C1876 C 0.99597 0.42262 0.2816 0.0
C1877 C 0.01021 0.36481 0.27034 0.0
C1878 C 0.00807 0.3853 0.2743 0.0
H1879 H 0.95291 0.46219 0.31228 0.0
H1880 H 0.96971 0.43214 0.30903 0.0
H1881 H 0.99457 0.42499 0.25058 0.0
H1882 H 0.02629 0.33525 0.23538 0.0
H1883 H 0.02937 0.36816 0.24621 0.0
C1884 C 0.1705 0.04513 0.74773 0.0
C1885 C 0.16973 0.02541 0.74992 0.0
C1886 C 0.15515 0.05624 0.75324 0.0
C1887 C 0.10453 0.05245 0.75204 0.0
H1888 H 0.10624 0.10323 0.77285 0.0
C1889 C 0.04208 0.1049 0.74251 0.0
C1890 C 0.04758 0.12347 0.73783 0.0
C1891 C 0.05564 0.09178 0.7487 0.0
C1892 C 0.10551 0.08909 0.76693 0.0
H1893 H 0.15297 0.00189 0.76074 0.0
H1894 H 0.12588 0.02136 0.77007 0.0
H1895 H 0.13339 0.08239 0.77715 0.0
H1896 H 0.07153 0.14283 0.73566 0.0
H1897 H 0.09504 0.12005 0.74574 0.0
H1898 H 0.07727 0.0595 0.74064 0.0
C1899 C 0.13845 0.0282 0.7643 0.0
C1900 C 0.121 0.07713 0.76956 0.0
C1901 C 0.15402 0.01712 0.75916 0.0
C1902 C 0.06681 0.12864 0.73927 0.0
C1903 C 0.0803 0.1156 0.74529 0.0
C1904 C 0.08911 0.0645 0.7492 0.0
C1905 C 0.13861 0.04777 0.76067 0.0
C1906 C 0.1209 0.05891 0.76163 0.0
C1907 C 0.07492 0.09704 0.75023 0.0
C1908 C 0.08971 0.0832 0.75602 0.0
H1909 H 0.1824 0.05181 0.7405 0.0
H1910 H 0.15561 0.07126 0.75015 0.0
H1911 H 0.10416 0.03853 0.74558 0.0
H1912 H 0.02732 0.10058 0.74164 0.0
H1913 H 0.051 0.07762 0.75245 0.0
C1914 C 0.64029 0.94189 0.83326 0.0
C1915 C 0.65407 0.93415 0.82106 0.0
C1916 C 0.6297 0.93023 0.84548 0.0
C1917 C 0.61579 0.8803 0.85404 0.0
H1918 H 0.61293 0.89549 0.90735 0.0
C1919 C 0.60818 0.82721 0.91528 0.0
C1920 C 0.59719 0.83171 0.9314 0.0
C1921 C 0.61096 0.8404 0.90069 0.0
C1922 C 0.61322 0.8912 0.89246 0.0
H1923 H 0.66725 0.90813 0.81173 0.0
H1924 H 0.64888 0.88778 0.83313 0.0
H1925 H 0.62573 0.91747 0.88359 0.0
H1926 H 0.58004 0.85335 0.94471 0.0
H1927 H 0.58508 0.87669 0.91907 0.0
H1928 H 0.60388 0.8538 0.86301 0.0
C1929 C 0.6461 0.90283 0.83314 0.0
C1930 C 0.62059 0.90378 0.87884 0.0
C1931 C 0.65673 0.91449 0.82097 0.0
C1932 C 0.58861 0.84955 0.93243 0.0
C1933 C 0.59154 0.86289 0.91782 0.0
C1934 C 0.60842 0.86774 0.86763 0.0
C1935 C 0.63261 0.91059 0.84567 0.0
C1936 C 0.62246 0.89825 0.85958 0.0
C1937 C 0.6029 0.85847 0.90188 0.0
C1938 C 0.6076 0.87285 0.88708 0.0
H1939 H 0.63788 0.95701 0.83358 0.0
H1940 H 0.61929 0.9366 0.85484 0.0
H1941 H 0.61668 0.87578 0.83924 0.0
H1942 H 0.61494 0.81355 0.91404 0.0
H1943 H 0.62003 0.83664 0.88878 0.0
C1944 C 0.4492 0.65741 0.33177 0.0
C1945 C 0.4576 0.63961 0.334 0.0
C1946 C 0.45546 0.67274 0.34286 0.0
C1947 C 0.47838 0.68059 0.38965 0.0
H1948 H 0.4747 0.73346 0.37545 0.0
C1949 C 0.48929 0.74042 0.44495 0.0
C1950 C 0.47478 0.75394 0.44486 0.0
C1951 C 0.49093 0.72756 0.4298 0.0
C1952 C 0.47583 0.71873 0.37959 0.0
H1953 H 0.48019 0.62417 0.348 0.0
H1954 H 0.49158 0.65097 0.36671 0.0
H1955 H 0.47138 0.7091 0.35082 0.0
H1956 H 0.45104 0.76505 0.4286 0.0
H1957 H 0.45384 0.74268 0.40238 0.0
H1958 H 0.48236 0.69015 0.41843 0.0
C1959 C 0.47974 0.65305 0.35704 0.0
C1960 C 0.47388 0.7048 0.3655 0.0
C1961 C 0.47331 0.63773 0.34623 0.0
C1962 C 0.46229 0.75469 0.42916 0.0
C1963 C 0.46402 0.74201 0.41401 0.0
C1964 C 0.48043 0.6945 0.40367 0.0
C1965 C 0.47036 0.67051 0.35615 0.0
C1966 C 0.47473 0.68553 0.37044 0.0
C1967 C 0.47822 0.72818 0.41423 0.0
C1968 C 0.47873 0.7137 0.39888 0.0
H1969 H 0.43701 0.65917 0.32246 0.0
H1970 H 0.44783 0.68595 0.34185 0.0
H1971 H 0.47876 0.66591 0.39409 0.0
H1972 H 0.49919 0.73962 0.45682 0.0
H1973 H 0.50208 0.71709 0.43029 0.0
C1974 C 0.63456 0.61354 0.59656 0.0
C1975 C 0.63876 0.59428 0.59893 0.0
C1976 C 0.61947 0.62165 0.60646 0.0
C1977 C 0.59331 0.61479 0.65127 0.0
H1978 H 0.56398 0.65727 0.63267 0.0
C1979 C 0.53963 0.65473 0.69889 0.0
C1980 C 0.54024 0.67457 0.6977 0.0
C1981 C 0.54982 0.6437 0.68592 0.0
C1982 C 0.57215 0.64547 0.63808 0.0
H1983 H 0.62964 0.56809 0.61237 0.0
H1984 H 0.60302 0.58223 0.62948 0.0
H1985 H 0.58367 0.63946 0.61039 0.0
H1986 H 0.55206 0.69844 0.6821 0.0
H1987 H 0.57 0.6792 0.65956 0.0
H1988 H 0.58206 0.62101 0.67902 0.0
C1989 C 0.61163 0.59112 0.62025 0.0
C1990 C 0.58338 0.63525 0.62532 0.0
C1991 C 0.62676 0.58299 0.61031 0.0
C1992 C 0.55134 0.68318 0.68339 0.0
C1993 C 0.56147 0.67216 0.67037 0.0
C1994 C 0.58203 0.62497 0.66401 0.0
C1995 C 0.60823 0.61068 0.61893 0.0
C1996 C 0.59438 0.62001 0.63183 0.0
C1997 C 0.56075 0.6523 0.67143 0.0
C1998 C 0.57161 0.64065 0.65763 0.0
H1999 H 0.64356 0.6226 0.58786 0.0
H2000 H 0.61737 0.63677 0.6052 0.0
H2001 H 0.60184 0.60334 0.65686 0.0
H2002 H 0.5311 0.6477 0.70972 0.0
H2003 H 0.54888 0.62844 0.68702 0.0
C2004 C 0.99206 0.75285 0.55981 0.0
C2005 C 0.98181 0.7358 0.56084 0.0
C2006 C 0.99327 0.76465 0.57591 0.0
C2007 C 0.96584 0.77455 0.61959 0.0
H2008 H 0.0077 0.80843 0.63149 0.0
C2009 C 0.95713 0.83172 0.67683 0.0
C2010 C 0.96227 0.84985 0.67033 0.0
C2011 C 0.96334 0.81566 0.667 0.0
C2012 C 0.99592 0.799 0.62837 0.0
H2013 H 0.96637 0.71675 0.5797 0.0
H2014 H 0.969 0.73691 0.60778 0.0
H2015 H 0.01168 0.78409 0.60696 0.0
H2016 H 0.97908 0.86539 0.64946 0.0
H2017 H 0.98966 0.83756 0.63231 0.0
H2018 H 0.94983 0.78973 0.64038 0.0
C2019 C 0.97545 0.74165 0.59451 0.0
C2020 C 0.99818 0.78512 0.61428 0.0
C2021 C 0.97399 0.73008 0.57844 0.0
C2022 C 0.97476 0.85159 0.65473 0.0
C2023 C 0.98098 0.8356 0.64497 0.0
C2024 C 0.96359 0.78836 0.63363 0.0
C2025 C 0.98447 0.75939 0.59329 0.0
C2026 C 0.98303 0.77296 0.60949 0.0
C2027 C 0.97482 0.81748 0.65057 0.0
C2028 C 0.97845 0.80102 0.63791 0.0
H2029 H 0.99825 0.75748 0.54638 0.0
H2030 H 0.00026 0.77827 0.57446 0.0
H2031 H 0.95373 0.76569 0.61605 0.0
H2032 H 0.94759 0.82997 0.68888 0.0
H2033 H 0.95857 0.80185 0.67183 0.0
C2034 C 0.10414 0.67522 0.08685 0.0
C2035 C 0.09457 0.66949 0.07016 0.0
C2036 C 0.10944 0.662 0.10061 0.0
C2037 C 0.1026 0.6133 0.11821 0.0
H2038 H 0.15513 0.61926 0.13403 0.0
C2039 C 0.1441 0.5564 0.16096 0.0
C2040 C 0.15691 0.56292 0.17496 0.0
C2041 C 0.13481 0.5692 0.14894 0.0
C2042 C 0.14035 0.61752 0.13002 0.0
H2043 H 0.08205 0.6456 0.05523 0.0
H2044 H 0.09158 0.62224 0.07939 0.0
H2045 H 0.14134 0.64188 0.11193 0.0
H2046 H 0.16949 0.5879 0.18792 0.0
H2047 H 0.15309 0.61022 0.16722 0.0
H2048 H 0.10173 0.58881 0.13638 0.0
C2049 C 0.09486 0.63704 0.0818 0.0
C2050 C 0.13246 0.63048 0.11732 0.0
C2051 C 0.08946 0.65037 0.06797 0.0
C2052 C 0.15985 0.58246 0.17711 0.0
C2053 C 0.15051 0.59523 0.16519 0.0
C2054 C 0.11052 0.6003 0.13104 0.0
C2055 C 0.1054 0.6427 0.09796 0.0
C2056 C 0.11348 0.62861 0.11137 0.0
C2057 C 0.13813 0.58875 0.15076 0.0
C2058 C 0.12947 0.60236 0.13716 0.0
H2059 H 0.10804 0.68991 0.08906 0.0
H2060 H 0.11718 0.66683 0.11313 0.0
H2061 H 0.08791 0.61157 0.11389 0.0
H2062 H 0.14155 0.5414 0.15902 0.0
H2063 H 0.12549 0.56375 0.13786 0.0
C2064 C 0.24815 0.56034 0.22135 0.0
C2065 C 0.24012 0.54311 0.22744 0.0
C2066 C 0.26704 0.56481 0.2258 0.0
C2067 C 0.30594 0.55112 0.25885 0.0
H2068 H 0.33828 0.5768 0.22191 0.0
C2069 C 0.3853 0.55718 0.27188 0.0
C2070 C 0.39236 0.57582 0.272 0.0
C2071 C 0.36775 0.55307 0.26358 0.0
C2072 C 0.32935 0.56966 0.23233 0.0
H2073 H 0.24553 0.51695 0.2427 0.0
H2074 H 0.27842 0.52446 0.25004 0.0
H2075 H 0.305 0.5702 0.21391 0.0
H2076 H 0.38745 0.60443 0.26199 0.0
H2077 H 0.35667 0.59713 0.24727 0.0
H2078 H 0.33028 0.5503 0.27712 0.0
C2079 C 0.27012 0.53481 0.2423 0.0
C2080 C 0.31029 0.56598 0.22784 0.0
C2081 C 0.25125 0.53045 0.23804 0.0
C2082 C 0.38234 0.58994 0.26212 0.0
C2083 C 0.36473 0.58578 0.25371 0.0
C2084 C 0.32495 0.55458 0.26321 0.0
C2085 C 0.27827 0.55205 0.23628 0.0
C2086 C 0.29839 0.55656 0.24103 0.0
C2087 C 0.35694 0.56747 0.25515 0.0
C2088 C 0.33688 0.56377 0.24998 0.0
H2089 H 0.23987 0.57033 0.21311 0.0
H2090 H 0.27277 0.57831 0.22116 0.0
H2091 H 0.29712 0.5443 0.26956 0.0
H2092 H 0.39278 0.54596 0.27922 0.0
H2093 H 0.36219 0.53876 0.26455 0.0
C2094 C 0.68501 0.37465 0.52408 0.0
C2095 C 0.70071 0.3679 0.51387 0.0
C2096 C 0.68549 0.39268 0.53232 0.0
C2097 C 0.71793 0.43405 0.54219 0.0
H2098 H 0.67077 0.46179 0.53954 0.0
C2099 C 0.71295 0.51095 0.56899 0.0
C2100 C 0.69975 0.52311 0.56043 0.0
C2101 C 0.71338 0.49183 0.56409 0.0
C2102 C 0.68416 0.45441 0.54009 0.0
H2103 H 0.72948 0.37437 0.50488 0.0
H2104 H 0.73011 0.40588 0.51832 0.0
H2105 H 0.67113 0.42873 0.53068 0.0
H2106 H 0.67716 0.5251 0.5395 0.0
H2107 H 0.67867 0.49197 0.52991 0.0
H2108 H 0.73126 0.46005 0.55017 0.0
C2109 C 0.71756 0.39725 0.52066 0.0
C2110 C 0.68429 0.4352 0.53542 0.0
C2111 C 0.71721 0.3791 0.51283 0.0
C2112 C 0.68743 0.51598 0.54634 0.0
C2113 C 0.68818 0.49691 0.54107 0.0
C2114 C 0.7179 0.45336 0.5464 0.0
C2115 C 0.70154 0.40452 0.5301 0.0
C2116 C 0.70119 0.42472 0.53634 0.0
C2117 C 0.70093 0.48446 0.55013 0.0
C2118 C 0.70101 0.46386 0.54541 0.0
H2119 H 0.67211 0.36625 0.52515 0.0
H2120 H 0.67307 0.39749 0.53996 0.0
H2121 H 0.7312 0.42651 0.54343 0.0
H2122 H 0.72245 0.51603 0.58011 0.0
H2123 H 0.72314 0.48278 0.57174 0.0
C2124 C 0.88391 0.93067 0.72521 0.0
C2125 C 0.89152 0.9124 0.72663 0.0
C2126 C 0.86586 0.93448 0.73234 0.0
C2127 C 0.82737 0.919 0.76387 0.0
H2128 H 0.79526 0.94139 0.72485 0.0
C2129 C 0.74675 0.93089 0.77549 0.0
C2130 C 0.73933 0.94787 0.76828 0.0
C2131 C 0.76523 0.92538 0.77082 0.0
C2132 C 0.80404 0.93537 0.73602 0.0
H2133 H 0.88683 0.88417 0.73795 0.0
H2134 H 0.85517 0.89098 0.75073 0.0
H2135 H 0.82834 0.93486 0.7177 0.0
H2136 H 0.74538 0.97241 0.75057 0.0
H2137 H 0.77757 0.96314 0.74281 0.0
H2138 H 0.80316 0.91999 0.78239 0.0
C2139 C 0.86322 0.90225 0.74394 0.0
C2140 C 0.82299 0.93159 0.73189 0.0
C2141 C 0.88131 0.89838 0.73665 0.0
C2142 C 0.75062 0.95914 0.75619 0.0
C2143 C 0.76909 0.95375 0.75167 0.0
C2144 C 0.80839 0.92303 0.76812 0.0
C2145 C 0.85508 0.92015 0.74117 0.0
C2146 C 0.83489 0.92357 0.74581 0.0
C2147 C 0.77668 0.93683 0.75895 0.0
C2148 C 0.79655 0.93146 0.75429 0.0
H2149 H 0.89147 0.94183 0.7177 0.0
H2150 H 0.86002 0.94848 0.73032 0.0
H2151 H 0.83629 0.9128 0.77482 0.0
H2152 H 0.73834 0.92193 0.78487 0.0
H2153 H 0.77051 0.91215 0.77647 0.0
C2154 C 0.33919 0.01904 0.96203 0.0
C2155 C 0.32217 0.02604 0.95435 0.0
C2156 C 0.34011 0.00045 0.96888 0.0
C2157 C 0.31884 0.95474 0.95912 0.0
H2158 H 0.34104 0.93818 0.00709 0.0
C2159 C 0.3133 0.87744 0.98424 0.0
C2160 C 0.32819 0.86977 0.99506 0.0
C2161 C 0.31342 0.89658 0.97931 0.0
C2162 C 0.3351 0.94253 0.99348 0.0
H2163 H 0.2925 0.01951 0.9489 0.0
H2164 H 0.2942 0.98708 0.96069 0.0
H2165 H 0.33927 0.97198 -0.00013 0.0
H2166 H 0.35522 0.87588 0.00864 0.0
H2167 H 0.35585 0.9092 -0.00063 0.0
H2168 H 0.31511 0.92553 0.95231 0.0
C2169 C 0.30681 0.99592 0.96131 0.0
C2170 C 0.33398 0.96189 0.98945 0.0
C2171 C 0.30583 0.01451 0.95469 0.0
C2172 C 0.34353 0.88145 0.00031 0.0
C2173 C 0.34378 0.90058 0.99516 0.0
C2174 C 0.32021 0.93544 0.96299 0.0
C2175 C 0.32408 0.98855 0.96793 0.0
C2176 C 0.32561 0.96814 0.97234 0.0
C2177 C 0.32857 0.90847 0.98485 0.0
C2178 C 0.32814 0.92905 0.98032 0.0
H2179 H 0.352 0.02761 0.96194 0.0
H2180 H 0.35359 0.99507 0.97393 0.0
H2181 H 0.31267 0.95922 0.94564 0.0
H2182 H 0.30117 0.86883 0.98018 0.0
H2183 H 0.30129 0.90215 0.97167 0.0
C2184 C 0.12164 0.40892 0.7651 0.0
C2185 C 0.11108 0.423 0.77437 0.0
C2186 C 0.13931 0.41329 0.75697 0.0
C2187 C 0.17831 0.44647 0.76501 0.0
H2188 H 0.19874 0.42768 0.71717 0.0
C2189 C 0.25206 0.46962 0.7381 0.0
C2190 C 0.26327 0.45622 0.72864 0.0
C2191 C 0.23319 0.4655 0.7427 0.0
C2192 C 0.19333 0.43283 0.7307 0.0
H2193 H 0.10995 0.45295 0.78097 0.0
H2194 H 0.14062 0.46055 0.76669 0.0
H2195 H 0.16567 0.42087 0.72559 0.0
H2196 H 0.26365 0.42788 0.71683 0.0
H2197 H 0.23085 0.42041 0.72542 0.0
H2198 H 0.20588 0.45799 0.77051 0.0
C2199 C 0.13544 0.4461 0.76601 0.0
C2200 C 0.17437 0.429 0.73544 0.0
C2201 C 0.11782 0.44176 0.77406 0.0
C2202 C 0.25532 0.4385 0.7241 0.0
C2203 C 0.23647 0.43429 0.72887 0.0
C2204 C 0.19725 0.45013 0.76038 0.0
C2205 C 0.14669 0.43179 0.75804 0.0
C2206 C 0.16665 0.43592 0.75258 0.0
C2207 C 0.22513 0.44778 0.73815 0.0
C2208 C 0.205 0.44348 0.74312 0.0
H2209 H 0.11683 0.39433 0.76516 0.0
H2210 H 0.14769 0.40198 0.75092 0.0
H2211 H 0.17289 0.45161 0.77854 0.0
H2212 H 0.25775 0.48347 0.74161 0.0
H2213 H 0.22482 0.47636 0.74954 0.0
C2214 C 0.82653 0.48184 0.03796 0.0
C2215 C 0.80966 0.47522 0.04642 0.0
C2216 C 0.82753 0.50009 0.03024 0.0
C2217 C 0.79777 0.54104 0.01545 0.0
H2218 H 0.84346 0.56999 0.02655 0.0
C2219 C 0.80089 0.62215 0.00855 0.0
C2220 C 0.81634 0.62957 0.9982 0.0
C2221 C 0.80063 0.60316 0.01412 0.0
C2222 C 0.83068 0.56202 0.02323 0.0
H2223 H 0.78042 0.48222 0.05284 0.0
H2224 H 0.78223 0.51405 0.03979 0.0
H2225 H 0.84173 0.53664 0.03551 0.0
H2226 H 0.84392 0.62318 0.98615 0.0
H2227 H 0.8436 0.59002 0.99621 0.0
H2228 H 0.78659 0.56663 0.00365 0.0
C2229 C 0.79463 0.50515 0.03876 0.0
C2230 C 0.82971 0.54289 0.02824 0.0
C2231 C 0.79361 0.48689 0.04633 0.0
C2232 C 0.83184 0.61784 0.99414 0.0
C2233 C 0.83167 0.59889 -8e-05 0.0
C2234 C 0.79869 0.5602 0.01063 0.0
C2235 C 0.81171 0.51213 0.03094 0.0
C2236 C 0.81318 0.53217 0.02452 0.0
C2237 C 0.8159 0.59129 0.00963 0.0
C2238 C 0.8151 0.57091 0.01458 0.0
H2239 H 0.83911 0.47312 0.03778 0.0
H2240 H 0.84079 0.50487 0.02399 0.0
H2241 H 0.78496 0.53317 0.01204 0.0
H2242 H 0.78872 0.63085 0.01183 0.0
H2243 H 0.78839 0.59771 0.0218 0.0
C2244 C 0.74835 0.03474 0.25389 0.0
C2245 C 0.75965 0.04771 0.26409 0.0
C2246 C 0.72953 0.03905 0.24936 0.0
C2247 C 0.69016 0.07029 0.26432 0.0
H2248 H 0.66766 0.05348 0.21652 0.0
C2249 C 0.61648 0.09388 0.23511 0.0
C2250 C 0.60565 0.08005 0.22553 0.0
C2251 C 0.63465 0.08961 0.24199 0.0
C2252 C 0.67368 0.05807 0.23004 0.0
H2253 H 0.76042 0.07563 0.27689 0.0
H2254 H 0.72777 0.0834 0.26848 0.0
H2255 H 0.70108 0.04754 0.22271 0.0
H2256 H 0.60462 0.05053 0.21712 0.0
H2257 H 0.63613 0.04308 0.22924 0.0
H2258 H 0.66267 0.08117 0.27137 0.0
C2259 C 0.73324 0.0697 0.26441 0.0
C2260 C 0.69285 0.05467 0.23359 0.0
C2261 C 0.75201 0.06533 0.26906 0.0
C2262 C 0.61268 0.06154 0.2243 0.0
C2263 C 0.63079 0.0573 0.2311 0.0
C2264 C 0.67096 0.07384 0.26068 0.0
C2265 C 0.72166 0.05648 0.25479 0.0
C2266 C 0.70134 0.06064 0.25081 0.0
C2267 C 0.64224 0.07145 0.23934 0.0
C2268 C 0.66251 0.06763 0.24356 0.0
H2269 H 0.7538 0.02099 0.25 0.0
H2270 H 0.721 0.02843 0.24214 0.0
H2271 H 0.69614 0.07484 0.27787 0.0
H2272 H 0.61145 0.10829 0.23622 0.0
H2273 H 0.64316 0.1008 0.2483 0.0
C2274 C 0.19762 0.12148 0.47424 0.0
C2275 C 0.18074 0.12939 0.4812 0.0
C2276 C 0.19787 0.1028 0.46773 0.0
C2277 C 0.17266 0.05828 0.47648 0.0
H2278 H 0.20272 0.03952 0.43416 0.0
C2279 C 0.17087 0.98026 0.45207 0.0
C2280 C 0.18782 0.97234 0.44531 0.0
C2281 C 0.17013 -0.0006 0.45689 0.0
C2282 C 0.19447 0.04453 0.44619 0.0
H2283 H 0.15058 0.12452 0.48533 0.0
H2284 H 0.15097 0.092 0.47371 0.0
H2285 H 0.20034 0.07355 0.43939 0.0
H2286 H 0.21755 0.97793 0.43934 0.0
H2287 H 0.21637 0.01127 0.44818 0.0
H2288 H 0.16697 0.02932 0.48347 0.0
C2289 C 0.16408 0.10011 0.47366 0.0
C2290 C 0.19302 0.06402 0.4491 0.0
C2291 C 0.16383 0.11879 0.48013 0.0
C2292 C 0.20426 0.98367 0.44444 0.0
C2293 C 0.20353 0.00281 0.44931 0.0
C2294 C 0.17416 0.03881 0.47362 0.0
C2295 C 0.18123 0.09171 0.46808 0.0
C2296 C 0.18209 0.0711 0.46427 0.0
C2297 C 0.18634 0.011 0.45511 0.0
C2298 C 0.1851 0.0317 0.45846 0.0
H2299 H 0.21089 0.1293 0.47492 0.0
H2300 H 0.21131 0.09672 0.46354 0.0
H2301 H 0.16446 0.0633 0.48855 0.0
H2302 H 0.15795 0.97188 0.45281 0.0
H2303 H 0.15663 0.00528 0.4612 0.0
C2304 C 0.18791 0.23299 0.48308 0.0
C2305 C 0.19884 0.22516 0.4979 0.0
C2306 C 0.18789 0.2525 0.48002 0.0
C2307 C 0.21132 0.29782 0.49388 0.0
H2308 H 0.16022 0.31758 0.48926 0.0
C2309 C 0.1949 0.37502 0.51093 0.0
C2310 C 0.18507 0.38495 0.4966 0.0
C2311 C 0.19579 0.35533 0.51043 0.0
C2312 C 0.17457 0.31226 0.49039 0.0
H2313 H 0.21948 0.23132 0.52014 0.0
H2314 H 0.21927 0.26539 0.51503 0.0
H2315 H 0.16535 0.28357 0.48741 0.0
H2316 H 0.16717 0.38202 0.47145 0.0
H2317 H 0.16842 0.34749 0.47084 0.0
H2318 H 0.22041 0.32657 0.49737 0.0
C2319 C 0.21081 0.25652 0.50564 0.0
C2320 C 0.17757 0.2928 0.48918 0.0
C2321 C 0.21092 0.23698 0.5086 0.0
C2322 C 0.17479 0.37474 0.48273 0.0
C2323 C 0.17559 0.355 0.48231 0.0
C2324 C 0.2083 0.31727 0.49521 0.0
C2325 C 0.19871 0.26455 0.49182 0.0
C2326 C 0.19595 0.28533 0.49114 0.0
C2327 C 0.18673 0.3452 0.4957 0.0
C2328 C 0.18986 0.32463 0.49375 0.0
H2329 H 0.1786 0.22416 0.47448 0.0
H2330 H 0.17879 0.25822 0.46895 0.0
H2331 H 0.22567 0.29256 0.49516 0.0
H2332 H 0.20292 0.38249 0.52184 0.0
H2333 H 0.20413 0.34806 0.52118 0.0
C2334 C 0.00702 0.42692 0.79589 0.0
C2335 C 0.02063 0.43517 0.80808 0.0
C2336 C 0.98805 0.43239 0.79689 0.0
C2337 C 0.95565 0.4694 0.81327 0.0
H2338 H 0.91954 0.42794 0.81783 0.0
C2339 C 0.87636 0.48302 0.82771 0.0
C2340 C 0.86348 0.47223 0.81684 0.0
C2341 C 0.89558 0.4782 0.8283 0.0
C2342 C 0.92938 0.43969 0.81638 0.0
H2343 H 0.02531 0.45635 0.83006 0.0
H2344 H 0.9921 0.46612 0.83158 0.0
H2345 H 0.95317 0.42121 0.81385 0.0
H2346 H 0.86042 0.44755 0.79863 0.0
H2347 H 0.89383 0.43935 0.79934 0.0
H2348 H 0.93186 0.48791 0.81533 0.0
C2349 C 0.99613 0.45536 0.82136 0.0
C2350 C 0.94865 0.43582 0.8141 0.0
C2351 C 0.01512 0.44976 0.82049 0.0
C2352 C 0.86999 0.45608 0.80725 0.0
C2353 C 0.88918 0.45135 0.80771 0.0
C2354 C 0.93633 0.47329 0.81537 0.0
C2355 C 0.98235 0.44633 0.80996 0.0
C2356 C 0.96195 0.45063 0.8124 0.0
C2357 C 0.90229 0.46257 0.81791 0.0
C2358 C 0.92294 0.45847 0.81684 0.0
H2359 H 0.01085 0.41566 0.78615 0.0
H2360 H 0.97775 0.42543 0.78771 0.0
H2361 H 0.96562 0.48107 0.8119 0.0
H2362 H 0.87172 0.49554 0.83527 0.0
H2363 H 0.90522 0.48693 0.8366 0.0
C2364 C 0.76759 0.37382 0.06115 0.0
C2365 C 0.78183 0.38448 0.05195 0.0
C2366 C 0.76296 0.35564 0.05461 0.0
C2367 C 0.78636 0.31661 0.03013 0.0
H2368 H 0.73635 0.29344 0.02849 0.0
C2369 C 0.77492 0.24054 0.00294 0.0
C2370 C 0.76148 0.22923 0.0125 0.0
C2371 C 0.77655 0.2598 0.00711 0.0
C2372 C 0.75043 0.29966 0.0291 0.0
H2373 H 0.80116 0.38526 0.02777 0.0
H2374 H 0.79291 0.35376 0.01627 0.0
H2375 H 0.73955 0.3271 0.03601 0.0
H2376 H 0.73939 0.22907 0.03413 0.0
H2377 H 0.74257 0.2626 0.0418 0.0
H2378 H 0.79737 0.28928 0.0237 0.0
C2379 C 0.78564 0.3592 0.02876 0.0
C2380 C 0.75223 0.31894 0.03332 0.0
C2381 C 0.79026 0.37728 0.03527 0.0
C2382 C 0.74988 0.23747 0.02652 0.0
C2383 C 0.75158 0.25671 0.03078 0.0
C2384 C 0.78459 0.29738 0.02604 0.0
C2385 C 0.77251 0.3479 0.03879 0.0
C2386 C 0.77023 0.32762 0.03381 0.0
C2387 C 0.76486 0.26814 0.02104 0.0
C2388 C 0.76661 0.28865 0.02544 0.0
H2389 H 0.76089 0.379 0.07406 0.0
H2390 H 0.75279 0.34724 0.06263 0.0
H2391 H 0.80047 0.32279 0.03084 0.0
H2392 H 0.78394 0.2346 0.99194 0.0
H2393 H 0.78675 0.26822 0.99915 0.0
C2394 C 0.86395 0.03606 0.24149 0.0
C2395 C 0.85328 0.02048 0.24805 0.0
C2396 C 0.88131 0.03339 0.2323 0.0
C2397 C 0.9198 0.9988 0.23103 0.0
H2398 H 0.9408 0.03304 0.19294 0.0
C2399 C 0.99332 0.00888 0.18488 0.0
C2400 C 0.00638 0.00476 0.19951 0.0
C2401 C 0.97405 0.01101 0.1891 0.0
C2402 C 0.9351 0.02324 0.20344 0.0
H2403 H 0.8517 0.98987 0.24894 0.0
H2404 H 0.88192 0.98514 0.23249 0.0
H2405 H 0.90723 0.03497 0.2013 0.0
H2406 H 0.00975 0.00059 0.23011 0.0
H2407 H 0.97627 0.00483 0.23756 0.0
H2408 H 0.94752 0.98691 0.23304 0.0
C2409 C 0.87706 -0.00055 0.23486 0.0
C2410 C 0.9159 0.02444 0.20835 0.0
C2411 C 0.85969 0.00213 0.24414 0.0
C2412 C -2e-05 0.00364 0.21852 0.0
C2413 C 0.98077 0.00588 0.22275 0.0
C2414 C 0.93893 0.99755 0.22608 0.0
C2415 C 0.88835 0.01506 0.22939 0.0
C2416 C 0.9081 0.01243 0.22243 0.0
C2417 C 0.96751 0.00914 0.20805 0.0
C2418 C 0.94691 0.00998 0.2125 0.0
H2419 H 0.85936 0.05039 0.24427 0.0
H2420 H 0.88966 0.04574 0.22847 0.0
H2421 H 0.91437 0.98948 0.2421 0.0
H2422 H 0.99786 0.00972 0.17007 0.0
H2423 H 0.96421 0.01341 0.17742 0.0
C2424 C 0.21147 0.87489 0.46192 0.0
C2425 C 0.21747 0.88122 0.4438 0.0
C2426 C 0.21708 0.85728 0.4688 0.0
C2427 C 0.24955 0.8171 0.46209 0.0
H2428 H 0.20577 0.78762 0.4784 0.0
C2429 C 0.2523 0.73597 0.47289 0.0
C2430 C 0.24216 0.72841 0.48848 0.0
C2431 C 0.25036 0.75501 0.46787 0.0
C2432 C 0.21822 0.79568 0.47419 0.0
H2433 H 0.2353 0.87482 0.41938 0.0
H2434 H 0.24514 0.84388 0.43147 0.0
H2435 H 0.20195 0.82075 0.4701 0.0
H2436 H 0.22216 0.73478 0.51112 0.0
H2437 H 0.219 0.76801 0.50262 0.0
H2438 H 0.26583 0.79195 0.46626 0.0
C2439 C 0.23609 0.85259 0.44031 0.0
C2440 C 0.21602 0.81469 0.46943 0.0
C2441 C 0.23046 0.87029 0.4334 0.0
C2442 C 0.23001 0.74018 0.49891 0.0
C2443 C 0.22816 0.75922 0.49399 0.0
C2444 C 0.25179 0.79805 0.46702 0.0
C2445 C 0.22879 0.84561 0.45771 0.0
C2446 C 0.23164 0.82562 0.46336 0.0
C2447 C 0.23831 0.76688 0.47841 0.0
C2448 C 0.23612 0.78712 0.47312 0.0
H2449 H 0.2016 0.8831 0.47035 0.0
H2450 H 0.21157 0.85241 0.48245 0.0
H2451 H 0.26183 0.82523 0.45749 0.0
H2452 H 0.26179 0.7272 0.4646 0.0
H2453 H 0.25816 0.76037 0.45562 0.0
C2454 C 0.37727 0.49043 0.74033 0.0
C2455 C 0.36146 0.48078 0.74792 0.0
C2456 C 0.39542 0.48696 0.74752 0.0
C2457 C 0.42545 0.47285 0.78527 0.0
H2458 H 0.4538 0.44361 0.74809 0.0
C2459 C 0.50259 0.45295 0.80066 0.0
C2460 C 0.51512 0.4566 0.78543 0.0
C2461 C 0.48303 0.45182 0.79739 0.0
C2462 C 0.44617 0.45186 0.7586 0.0
H2463 H 0.35196 0.4614 0.77011 0.0
H2464 H 0.3838 0.45591 0.78314 0.0
H2465 H 0.42124 0.45298 0.741 0.0
H2466 H 0.51723 0.46013 0.75464 0.0
H2467 H 0.48334 0.45863 0.74895 0.0
H2468 H 0.45056 0.47282 0.80246 0.0
C2469 C 0.38206 0.46583 0.77142 0.0
C2470 C 0.42755 0.45714 0.75454 0.0
C2471 C 0.36391 0.46903 0.76401 0.0
C2472 C 0.50793 0.45727 0.76668 0.0
C2473 C 0.4884 0.45639 0.76343 0.0
C2474 C 0.44424 0.46787 0.78922 0.0
C2475 C 0.39795 0.47416 0.76267 0.0
C2476 C 0.4172 0.4679 0.76771 0.0
C2477 C 0.47564 0.45453 0.77885 0.0
C2478 C 0.45496 0.45757 0.77578 0.0
H2479 H 0.37584 0.49947 0.72787 0.0
H2480 H 0.40758 0.49354 0.74066 0.0
H2481 H 0.41761 0.48114 0.79559 0.0
H2482 H 0.50776 0.45223 0.81527 0.0
H2483 H 0.47366 0.4498 0.80954 0.0
C2484 C 0.83137 0.73434 0.01472 0.0
C2485 C 0.81444 0.73119 0.00446 0.0
C2486 C 0.83715 0.75269 0.01938 0.0
C2487 C 0.82234 0.80217 0.02369 0.0
H2488 H 0.87225 0.81406 0.0031 0.0
C2489 C 0.85906 0.87239 0.9937 0.0
C2490 C 0.85486 0.88484 0.00878 0.0
C2491 C 0.85812 0.85282 0.99659 0.0
C2492 C 0.85841 0.81087 0.0091 0.0
H2493 H 0.7895 0.74462 0.9925 0.0
H2494 H 0.79945 0.77675 0.00106 0.0
H2495 H 0.86069 0.7813 0.00294 0.0
H2496 H 0.84874 0.88659 0.03921 0.0
H2497 H 0.84697 0.85248 0.04413 0.0
H2498 H 0.81987 0.83179 0.02942 0.0
C2499 C 0.80831 0.76499 0.00529 0.0
C2500 C 0.85182 0.79218 0.0091 0.0
C2501 C 0.8026 0.74661 0.00042 0.0
C2502 C 0.85191 0.87738 0.02725 0.0
C2503 C 0.85073 0.85786 0.03007 0.0
C2504 C 0.82906 0.82081 0.02398 0.0
C2505 C 0.82599 0.76822 0.01412 0.0
C2506 C 0.83359 0.78771 0.01609 0.0
C2507 C 0.85287 0.84546 0.01456 0.0
C2508 C 0.84702 0.82538 0.0164 0.0
H2509 H 0.84077 0.72274 0.01811 0.0
H2510 H 0.85071 0.75481 0.02642 0.0
H2511 H 0.80826 0.79909 0.02914 0.0
H2512 H 0.86138 0.8777 0.97931 0.0
H2513 H 0.85988 0.84353 0.9844 0.0
C2514 C 0.36674 0.03764 0.17018 0.0
C2515 C 0.35473 0.03961 0.18608 0.0
C2516 C 0.38571 0.04341 0.17123 0.0
C2517 C 0.42319 0.04998 0.20735 0.0
H2518 H 0.45204 0.0691 0.16409 0.0
C2519 C 0.50227 0.07329 0.21095 0.0
C2520 C 0.51374 0.0686 0.19521 0.0
C2521 C 0.48283 0.06923 0.2107 0.0
C2522 C 0.44418 0.06357 0.17623 0.0
H2523 H 0.3527 0.05051 0.21504 0.0
H2524 H 0.38573 0.06103 0.21672 0.0
H2525 H 0.41765 0.06588 0.16149 0.0
H2526 H 0.51413 0.05493 0.16741 0.0
H2527 H 0.48018 0.04776 0.16702 0.0
H2528 H 0.4498 0.04779 0.22208 0.0
C2529 C 0.38062 0.05458 0.2036 0.0
C2530 C 0.42448 0.06179 0.17477 0.0
C2531 C 0.36165 0.04876 0.20256 0.0
C2532 C 0.50564 0.05874 0.17974 0.0
C2533 C 0.48619 0.05481 0.17942 0.0
C2534 C 0.4429 0.05188 0.20885 0.0
C2535 C 0.39303 0.05135 0.18819 0.0
C2536 C 0.41376 0.05479 0.19024 0.0
C2537 C 0.47451 0.06053 0.19464 0.0
C2538 C 0.4536 0.05849 0.19322 0.0
H2539 H 0.36183 0.03058 0.1573 0.0
H2540 H 0.39487 0.04061 0.15913 0.0
H2541 H 0.41541 0.04422 0.21943 0.0
H2542 H 0.50813 0.0809 0.22308 0.0
H2543 H 0.47417 0.07381 0.22262 0.0
C2544 C 0.54773 0.31829 0.07385 0.0
C2545 C 0.53333 0.32238 0.06054 0.0
C2546 C 0.54417 0.31951 0.09351 0.0
C2547 C 0.51276 0.33816 0.13069 0.0
H2548 H 0.52284 0.29069 0.15665 0.0
C2549 C 0.4897 0.32672 0.20898 0.0
C2550 C 0.50278 0.31763 0.22102 0.0
C2551 C 0.49207 0.32646 0.18909 0.0
C2552 C 0.52014 0.30414 0.14975 0.0
H2553 H 0.50457 0.33265 0.05731 0.0
H2554 H 0.4986 0.33536 0.09171 0.0
H2555 H 0.53138 0.29445 0.12303 0.0
H2556 H 0.52807 0.30035 0.22165 0.0
H2557 H 0.53253 0.30025 0.18715 0.0
H2558 H 0.50204 0.34813 0.15745 0.0
C2559 C 0.51249 0.33093 0.08691 0.0
C2560 C 0.52505 0.30627 0.13047 0.0
C2561 C 0.51594 0.32944 0.06723 0.0
C2562 C 0.51766 0.30738 0.21274 0.0
C2563 C 0.5202 0.30732 0.19289 0.0
C2564 C 0.50811 0.33614 0.15008 0.0
C2565 C 0.52629 0.32516 0.1002 0.0
C2566 C 0.52148 0.32332 0.12079 0.0
C2567 C 0.50774 0.31731 0.18081 0.0
C2568 C 0.51178 0.31911 0.1599 0.0
H2569 H 0.56125 0.31275 0.06916 0.0
H2570 H 0.55513 0.31524 0.10349 0.0
H2571 H 0.50987 0.35144 0.12353 0.0
H2572 H 0.47803 0.33467 0.21497 0.0
H2573 H 0.48189 0.33387 0.18025 0.0
C2574 C 0.00656 0.75852 0.20532 0.0
C2575 C 0.01797 0.76888 0.21811 0.0
C2576 C 0.01166 0.75688 0.18608 0.0
C2577 C 0.04178 0.77893 0.14845 0.0
H2578 H 0.03251 0.73127 0.12255 0.0
C2579 C 0.07315 0.75734 0.07452 0.0
C2580 C 0.06175 0.74576 0.06277 0.0
C2581 C 0.06657 0.76316 0.09249 0.0
C2582 C 0.03492 0.74479 0.12948 0.0
H2583 H 0.04383 0.78546 0.22086 0.0
H2584 H 0.05309 0.78215 0.18727 0.0
H2585 H 0.02457 0.73434 0.15624 0.0
H2586 H 0.03388 0.7329 0.0597 0.0
H2587 H 0.02233 0.74328 0.09083 0.0
H2588 H 0.05264 0.78912 0.12157 0.0
C2589 C 0.03997 0.7756 0.19205 0.0
C2590 C 0.03038 0.74654 0.14884 0.0
C2591 C 0.03478 0.77734 0.21133 0.0
C2592 C 0.04306 0.74167 0.0685 0.0
C2593 C 0.03649 0.74748 0.0864 0.0
C2594 C 0.04646 0.77712 0.12903 0.0
C2595 C 0.0284 0.76544 0.17916 0.0
C2596 C 0.03366 0.76364 0.15858 0.0
C2597 C 0.04849 0.7575 0.09896 0.0
C2598 C 0.04297 0.76004 0.11933 0.0
H2599 H 0.9934 0.75201 0.21006 0.0
H2600 H 0.00223 0.74921 0.17654 0.0
H2601 H 0.04428 0.79239 0.15545 0.0
H2602 H 0.08764 0.76069 0.07051 0.0
H2603 H 0.07613 0.7709 0.10184 0.0
C2604 C 0.46015 0.34427 0.3271 0.0
C2605 C 0.46336 0.32938 0.3142 0.0
C2606 C 0.4515 0.34076 0.3448 0.0
C2607 C 0.44738 0.30177 0.37915 0.0
H2608 H 0.4143 0.33565 0.40694 0.0
C2609 C 0.41769 0.28319 0.45386 0.0
C2610 C 0.41635 0.29779 0.46741 0.0
C2611 C 0.42263 0.28718 0.43489 0.0
C2612 C 0.42372 0.32615 0.39943 0.0
H2613 H 0.4584 0.29953 0.30894 0.0
H2614 H 0.44301 0.29349 0.33964 0.0
H2615 H 0.42226 0.34245 0.37352 0.0
H2616 H 0.41952 0.32799 0.47184 0.0
H2617 H 0.42853 0.33496 0.43874 0.0
H2618 H 0.44918 0.28565 0.40503 0.0
C2619 C 0.4476 0.30777 0.3363 0.0
C2620 C 0.42819 0.33001 0.38026 0.0
C2621 C 0.45625 0.31128 0.31862 0.0
C2622 C 0.42047 0.31644 0.46171 0.0
C2623 C 0.42543 0.32045 0.44271 0.0
C2624 C 0.44298 0.29795 0.39828 0.0
C2625 C 0.44588 0.3223 0.34991 0.0
C2626 C 0.44008 0.31785 0.36991 0.0
C2627 C 0.42638 0.30588 0.42903 0.0
C2628 C 0.43112 0.3101 0.40868 0.0
H2629 H 0.46551 0.35838 0.32411 0.0
H2630 H 0.4504 0.35227 0.35497 0.0
H2631 H 0.45696 0.29234 0.37175 0.0
H2632 H 0.41449 0.26868 0.45778 0.0
H2633 H 0.42301 0.27565 0.42471 0.0
C2634 C 0.99551 0.65865 0.56512 0.0
C2635 C 0.97715 0.66328 0.55877 0.0
C2636 C -0.00057 0.65724 0.58473 0.0
C2637 C 0.98568 0.68133 0.62703 0.0
H2638 H 0.01003 0.64205 0.65681 0.0
C2639 C 0.9908 0.68489 0.70914 0.0
C2640 C 0.00552 0.67538 0.71859 0.0
C2641 C 0.98911 0.68395 0.68923 0.0
C2642 C 0.0036 0.65335 0.64864 0.0
H2643 H 0.94815 0.66815 0.56788 0.0
H2644 H 0.95512 0.66596 0.60205 0.0
H2645 H 0.0028 0.63655 0.62299 0.0
H2646 H 0.03092 0.65873 0.71459 0.0
H2647 H 0.02857 0.65788 0.67971 0.0
H2648 H 0.98699 0.69848 0.65215 0.0
C2649 C 0.96642 0.66346 0.59185 0.0
C2650 C -0.00072 0.65006 0.62934 0.0
C2651 C 0.96242 0.66451 0.57228 0.0
C2652 C 0.01935 0.66612 0.70766 0.0
C2653 C 0.01784 0.66542 0.68769 0.0
C2654 C 0.99031 0.68478 0.64616 0.0
C2655 C 0.9851 0.66068 0.5982 0.0
C2656 C 0.98998 0.6639 0.61852 0.0
C2657 C 0.0023 0.67374 0.67826 0.0
C2658 C -0.00096 0.67073 0.65736 0.0
H2659 H 0.00715 0.65767 0.55503 0.0
H2660 H 0.01394 0.65504 0.58935 0.0
H2661 H 0.97887 0.69239 0.61878 0.0
H2662 H 0.97983 0.69203 0.71719 0.0
H2663 H 0.97682 0.69038 0.68263 0.0
C2664 C 0.04044 0.65418 0.82927 0.0
C2665 C 0.03901 0.66812 0.81499 0.0
C2666 C 0.04709 0.65885 0.84756 0.0
C2667 C 0.04941 0.70055 0.87914 0.0
H2668 H 0.07424 0.6657 0.91384 0.0
C2669 C 0.06985 0.71884 0.95777 0.0
C2670 C 0.06629 0.70468 0.9715 0.0
C2671 C 0.06725 0.71514 0.93825 0.0
C2672 C 0.06718 0.67553 0.90432 0.0
H2673 H 0.04518 0.69744 0.80807 0.0
H2674 H 0.05739 0.70544 0.83977 0.0
H2675 H 0.0712 0.65761 0.87999 0.0
H2676 H 0.05647 0.6758 0.9756 0.0
H2677 H 0.05187 0.66939 0.94157 0.0
H2678 H 0.04542 0.71845 0.90356 0.0
C2679 C 0.05278 0.69104 0.83707 0.0
C2680 C 0.06546 0.67091 0.88492 0.0
C2681 C 0.04601 0.6864 0.81882 0.0
C2682 C 0.05933 0.68701 0.96538 0.0
C2683 C 0.05689 0.68327 0.94588 0.0
C2684 C 0.05127 0.70523 0.89852 0.0
C2685 C 0.0526 0.67754 0.8519 0.0
C2686 C 0.0563 0.68324 0.87212 0.0
C2687 C 0.0612 0.69715 0.93209 0.0
C2688 C 0.0599 0.69263 0.91136 0.0
H2689 H 0.03509 0.63998 0.82679 0.0
H2690 H 0.04665 0.64807 0.85859 0.0
H2691 H 0.04194 0.71025 0.86982 0.0
H2692 H 0.07529 0.73257 0.96206 0.0
H2693 H 0.07069 0.7261 0.92794 0.0
C2694 C 0.46626 0.82973 0.42862 0.0
C2695 C 0.48081 0.82921 0.44242 0.0
C2696 C 0.47071 0.83013 0.40913 0.0
C2697 C 0.50417 0.83947 0.37159 0.0
H2698 H 0.48946 0.79058 0.3509 0.0
C2699 C 0.52208 0.81999 0.29366 0.0
C2700 C 0.5077 0.81066 0.28332 0.0
C2701 C 0.521 0.82144 0.31362 0.0
C2702 C 0.49347 0.80439 0.35629 0.0
H2703 H 0.51126 0.83108 0.44674 0.0
H2704 H 0.51894 0.83257 0.41254 0.0
H2705 H 0.48204 0.79825 0.38408 0.0
H2706 H 0.48144 0.79469 0.28575 0.0
H2707 H 0.47916 0.79768 0.32029 0.0
H2708 H 0.51482 0.84611 0.3437 0.0
C2709 C 0.50418 0.83224 0.41689 0.0
C2710 C 0.48926 0.80872 0.37531 0.0
C2711 C 0.49976 0.83148 0.43643 0.0
C2712 C 0.49282 0.80184 0.29336 0.0
C2713 C 0.49156 0.80355 0.31325 0.0
C2714 C 0.50805 0.83531 0.35239 0.0
C2715 C 0.48972 0.83053 0.40317 0.0
C2716 C 0.49442 0.82633 0.38304 0.0
C2717 C 0.50534 0.81386 0.32361 0.0
C2718 C 0.5026 0.81775 0.34443 0.0
H2719 H 0.45153 0.82793 0.43274 0.0
H2720 H 0.45936 0.82893 0.39869 0.0
H2721 H 0.50833 0.85311 0.37737 0.0
H2722 H 0.53378 0.82684 0.28627 0.0
H2723 H 0.53217 0.82901 0.32111 0.0
C2724 C 0.52402 0.3222 0.94844 0.0
C2725 C 0.51334 0.30885 0.95891 0.0
C2726 C 0.52274 0.3229 0.92845 0.0
C2727 C 0.49503 0.30636 0.88647 0.0
H2728 H 0.5443 0.30199 0.86207 0.0
C2729 C 0.5 0.29017 0.80651 0.0
C2730 C 0.51116 0.27427 0.80242 0.0
C2731 C 0.5018 0.2995 0.82405 0.0
C2732 C 0.53045 0.30333 0.86865 0.0
H2733 H 0.49179 0.28691 0.95682 0.0
H2734 H 0.48936 0.2883 0.92199 0.0
H2735 H 0.54241 0.30915 0.89626 0.0
H2736 H 0.53415 0.25677 0.81273 0.0
H2737 H 0.53732 0.27305 0.8434 0.0
H2738 H 0.48305 0.29969 0.85913 0.0
C2739 C 0.49879 0.29816 0.92918 0.0
C2740 C 0.52935 0.30761 0.88818 0.0
C2741 C 0.50018 0.29735 0.94916 0.0
C2742 C 0.52538 0.26899 0.81546 0.0
C2743 C 0.52718 0.27834 0.83305 0.0
C2744 C 0.49613 0.30223 0.86693 0.0
C2745 C 0.51061 0.31042 0.91858 0.0
C2746 C 0.51162 0.30871 0.89739 0.0
C2747 C 0.5148 0.29314 0.83786 0.0
C2748 C 0.51386 0.30022 0.85789 0.0
H2749 H 0.53427 0.33128 0.95554 0.0
H2750 H 0.5318 0.33268 0.92067 0.0
H2751 H 0.48118 0.30723 0.89315 0.0
H2752 H 0.48901 0.29469 0.79667 0.0
H2753 H 0.49234 0.31111 0.82718 0.0
C2754 C 0.39143 0.94661 0.67214 0.0
C2755 C 0.39548 0.96527 0.66633 0.0
C2756 C 0.37265 0.94026 0.67345 0.0
C2757 C 0.32234 0.9519 0.66338 0.0
H2758 H 0.31438 0.93667 0.71627 0.0
C2759 C 0.24729 0.94522 0.69452 0.0
C2760 C 0.24474 0.95679 0.71068 0.0
C2761 C 0.26553 0.94055 0.68835 0.0
C2762 C 0.31638 0.94069 0.70142 0.0
H2763 H 0.38328 0.99097 0.65484 0.0
H2764 H 0.35053 0.9798 0.65686 0.0
H2765 H 0.34659 0.93888 0.70358 0.0
H2766 H 0.25916 0.97108 0.73404 0.0
H2767 H 0.29102 0.96267 0.72345 0.0
H2768 H 0.29213 0.95456 0.66152 0.0
C2769 C 0.36182 0.97014 0.66063 0.0
C2770 C 0.3348 0.9418 0.69407 0.0
C2771 C 0.38061 0.97655 0.65943 0.0
C2772 C 0.26068 0.96214 0.72155 0.0
C2773 C 0.27892 0.95732 0.71547 0.0
C2774 C 0.30389 0.95059 0.67067 0.0
C2775 C 0.35763 0.95237 0.66875 0.0
C2776 C 0.338 0.94792 0.67513 0.0
C2777 C 0.28154 0.94716 0.69836 0.0
C2778 C 0.30077 0.94549 0.68992 0.0
H2779 H 0.4026 0.93749 0.67739 0.0
H2780 H 0.36982 0.92636 0.67939 0.0
H2781 H 0.32439 0.95665 0.64875 0.0
H2782 H 0.23527 0.9408 0.68586 0.0
H2783 H 0.26714 0.93248 0.67527 0.0
C2784 C 0.80691 0.13162 0.00707 0.0
C2785 C 0.79459 0.13401 0.99139 0.0
C2786 C 0.81595 0.11433 0.0101 0.0
C2787 C 0.80471 0.06518 0.00251 0.0
H2788 H 0.85573 0.05448 0.02034 0.0
C2789 C 0.84969 0.99462 0.01094 0.0
C2790 C 0.83566 0.98334 0.01976 0.0
C2791 C 0.84811 0.01433 0.01088 0.0
C2792 C 0.84142 0.05736 0.01547 0.0
H2793 H 0.78353 0.12089 0.96559 0.0
H2794 H 0.79928 0.09069 0.97091 0.0
H2795 H 0.84742 0.08682 0.01042 0.0
H2796 H 0.81043 0.98384 0.03754 0.0
H2797 H 0.80777 0.01822 0.03752 0.0
H2798 H 0.79854 0.03599 0.00748 0.0
C2799 C 0.80177 0.10212 0.98096 0.0
C2800 C 0.8367 0.07577 0.00978 0.0
C2801 C 0.79284 0.11943 0.97786 0.0
C2802 C 0.82135 0.99215 0.03045 0.0
C2803 C 0.81975 0.01182 0.03034 0.0
C2804 C 0.80931 0.04697 0.00842 0.0
C2805 C 0.81269 0.09915 0.99755 0.0
C2806 C 0.81833 0.07975 0.00306 0.0
C2807 C 0.83249 0.02299 0.01963 0.0
C2808 C 0.8277 0.04283 0.01493 0.0
H2809 H 0.8086 0.14267 0.01769 0.0
H2810 H 0.8243 0.11241 0.023 0.0
H2811 H 0.79035 0.06791 0.99771 0.0
H2812 H 0.86096 0.98823 0.00268 0.0
H2813 H 0.85815 0.02261 0.00256 0.0
C2814 C 0.8835 0.54166 0.32743 0.0
C2815 C 0.89576 0.55336 0.31676 0.0
C2816 C 0.86393 0.54466 0.32695 0.0
C2817 C 0.82802 0.54191 0.30378 0.0
H2818 H 0.79824 0.58783 0.30201 0.0
C2819 C 0.75549 0.54076 0.26847 0.0
C2820 C 0.7408 0.54663 0.28062 0.0
C2821 C 0.7743 0.54564 0.27259 0.0
C2822 C 0.80644 0.57494 0.30244 0.0
H2823 H 0.8975 0.57904 0.29975 0.0
H2824 H 0.86337 0.58424 0.29894 0.0
H2825 H 0.83102 0.58896 0.31417 0.0
H2826 H 0.73399 0.5639 0.30533 0.0
H2827 H 0.76688 0.57246 0.31244 0.0
H2828 H 0.8038 0.52786 0.29196 0.0
C2829 C 0.86879 0.57266 0.30748 0.0
C2830 C 0.82512 0.57557 0.30942 0.0
C2831 C 0.88838 0.56965 0.30795 0.0
C2832 C 0.74506 0.55907 0.29577 0.0
C2833 C 0.76389 0.56402 0.29984 0.0
C2834 C 0.80957 0.54133 0.29665 0.0
C2835 C 0.85634 0.55945 0.31588 0.0
C2836 C 0.83605 0.55902 0.31021 0.0
C2837 C 0.77873 0.55654 0.28886 0.0
C2838 C 0.7986 0.55781 0.29579 0.0
H2839 H 0.88877 0.52911 0.33453 0.0
H2840 H 0.85463 0.53452 0.33394 0.0
H2841 H 0.83619 0.52899 0.30379 0.0
H2842 H 0.75264 0.53127 0.25663 0.0
H2843 H 0.78549 0.53999 0.26367 0.0
C2844 C 0.16602 0.49393 0.47374 0.0
C2845 C 0.18081 0.48668 0.46243 0.0
C2846 C 0.16464 0.51342 0.47684 0.0
C2847 C 0.16592 0.55745 0.47983 0.0
H2848 H 0.21686 0.57073 0.49658 0.0
C2849 C 0.1954 0.63249 0.49788 0.0
C2850 C 0.20915 0.63356 0.51248 0.0
C2851 C 0.18681 0.61518 0.49333 0.0
C2852 C 0.20251 0.56718 0.49216 0.0
H2853 H 0.20369 0.49417 0.44302 0.0
H2854 H 0.20114 0.52812 0.44829 0.0
H2855 H 0.2111 0.54036 0.4814 0.0
H2856 H 0.22293 0.61798 0.53531 0.0
H2857 H 0.20793 0.58777 0.52736 0.0
H2858 H 0.15753 0.58465 0.49059 0.0
C2859 C 0.19094 0.51876 0.45512 0.0
C2860 C 0.19928 0.54993 0.48314 0.0
C2861 C 0.19233 0.49932 0.45203 0.0
C2862 C 0.21252 0.61755 0.52388 0.0
C2863 C 0.204 0.60025 0.51927 0.0
C2864 C 0.16924 0.575 0.48865 0.0
C2865 C 0.17798 0.52582 0.46859 0.0
C2866 C 0.181 0.54488 0.47683 0.0
C2867 C 0.19192 0.59872 0.50328 0.0
C2868 C 0.18758 0.57991 0.49502 0.0
H2869 H 0.15682 0.48453 0.48183 0.0
H2870 H 0.15445 0.51852 0.4872 0.0
H2871 H 0.15167 0.55377 0.47525 0.0
H2872 H 0.19241 0.64466 0.48894 0.0
H2873 H 0.17753 0.6144 0.48096 0.0
C2874 C 0.11758 0.00826 0.15185 0.0
C2875 C 0.10268 0.01769 0.16108 0.0
C2876 C 0.13617 0.01522 0.15317 0.0
C2877 C 0.16452 0.03984 0.1886 0.0
H2878 H 0.20476 0.03488 0.15114 0.0
C2879 C 0.25175 0.04312 0.18084 0.0
C2880 C 0.25671 0.03014 0.19526 0.0
C2881 C 0.23272 0.04702 0.17702 0.0
C2882 C 0.19367 0.03666 0.16172 0.0
H2883 H 0.0952 0.04294 0.17697 0.0
H2884 H 0.12763 0.05503 0.17921 0.0
H2885 H 0.17168 0.0324 0.14087 0.0
H2886 H 0.24575 0.01235 0.21808 0.0
H2887 H 0.21243 0.01924 0.21148 0.0
H2888 H 0.18653 0.04329 0.20958 0.0
C2889 C 0.12499 0.04213 0.17125 0.0
C2890 C 0.17476 0.0351 0.15584 0.0
C2891 C 0.1064 0.03526 0.16981 0.0
C2892 C 0.24235 0.0224 0.20689 0.0
C2893 C 0.22328 0.02637 0.2031 0.0
C2894 C 0.18344 0.04121 0.19452 0.0
C2895 C 0.14015 0.03168 0.16378 0.0
C2896 C 0.16 0.03629 0.16928 0.0
C2897 C 0.21827 0.03811 0.18761 0.0
C2898 C 0.19822 0.03925 0.1812 0.0
H2899 H 0.11517 0.99471 0.14501 0.0
H2900 H 0.14757 0.00684 0.14726 0.0
H2901 H 0.15346 0.04057 0.19934 0.0
H2902 H 0.26252 0.04944 0.17172 0.0
H2903 H 0.22928 0.05637 0.16522 0.0
C2904 C 0.69035 0.00107 0.54346 0.0
C2905 C 0.67959 0.01321 0.53185 0.0
C2906 C 0.68875 0.9815 0.54126 0.0
C2907 C 0.66438 0.94156 0.51742 0.0
H2908 H 0.71558 0.92833 0.5022 0.0
C2909 C 0.69486 0.86648 0.50172 0.0
C2910 C 0.70808 0.86542 0.48666 0.0
C2911 C 0.68616 0.88365 0.50613 0.0
C2912 C 0.70119 0.93185 0.50626 0.0
H2913 H 0.65657 0.01444 0.5112 0.0
H2914 H 0.65379 0.98023 0.50746 0.0
H2915 H 0.70964 0.95912 0.51629 0.0
H2916 H 0.72085 0.88087 0.46304 0.0
H2917 H 0.70576 0.91086 0.47084 0.0
H2918 H 0.65614 0.91389 0.50743 0.0
C2919 C 0.66358 0.98582 0.51805 0.0
C2920 C 0.69783 0.94935 0.51463 0.0
C2921 C 0.6652 0.00543 0.52021 0.0
C2922 C 0.71083 0.88127 0.4748 0.0
C2923 C 0.70226 0.89845 0.4793 0.0
C2924 C 0.66783 0.92375 0.50932 0.0
C2925 C 0.67629 0.97381 0.52755 0.0
C2926 C 0.67944 0.95442 0.52028 0.0
C2927 C 0.69067 0.9 0.49561 0.0
C2928 C 0.68627 0.91888 0.50348 0.0
H2929 H 0.70139 0.00662 0.55274 0.0
H2930 H 0.69849 0.97246 0.549 0.0
H2931 H 0.65005 0.94526 0.52151 0.0
H2932 H 0.69238 0.85444 0.51105 0.0
H2933 H 0.67727 0.88449 0.51876 0.0
C2934 C 0.74729 0.46469 0.78929 0.0
C2935 C 0.76175 0.46171 0.80279 0.0
C2936 C 0.72864 0.45904 0.79329 0.0
C2937 C 0.69778 0.45304 0.83481 0.0
H2938 H 0.6612 0.43696 0.79654 0.0
C2939 C 0.61178 0.44337 0.81981 0.0
C2940 C 0.60599 0.46153 0.82537 0.0
C2941 C 0.63078 0.43809 0.82146 0.0
C2942 C 0.67123 0.44107 0.80758 0.0
H2943 H 0.76838 0.44914 0.83037 0.0
H2944 H 0.73587 0.43919 0.83727 0.0
H2945 H 0.69493 0.43651 0.78899 0.0
H2946 H 0.615 0.48757 0.83907 0.0
H2947 H 0.64818 0.47845 0.8419 0.0
H2948 H 0.674 0.4582 0.85318 0.0
C2949 C 0.73886 0.44615 0.82375 0.0
C2950 C 0.69055 0.44102 0.80314 0.0
C2951 C 0.75749 0.45175 0.81973 0.0
C2952 C 0.61905 0.47348 0.83469 0.0
C2953 C 0.6381 0.46823 0.83627 0.0
C2954 C 0.67842 0.45316 0.83923 0.0
C2955 C 0.72414 0.45032 0.81087 0.0
C2956 C 0.704 0.44749 0.81651 0.0
C2957 C 0.64433 0.45091 0.82866 0.0
C2958 C 0.6649 0.44765 0.82549 0.0
H2959 H 0.75014 0.47233 0.77612 0.0
H2960 H 0.71759 0.46256 0.78311 0.0
H2961 H 0.70777 0.45826 0.84539 0.0
H2962 H 0.60196 0.43378 0.81275 0.0
H2963 H 0.63507 0.42448 0.8159 0.0
C2964 C 0.29063 0.37529 0.0252 0.0
C2965 C 0.29129 0.36233 0.00998 0.0
C2966 C 0.29899 0.39319 0.0233 0.0
C2967 C 0.32261 0.42922 0.01665 0.0
H2968 H 0.30554 0.45325 0.96967 0.0
C2969 C 0.33806 0.50768 0.00085 0.0
C2970 C 0.32169 0.51822 0.99678 0.0
C2971 C 0.33754 0.48795 0.00018 0.0
C2972 C 0.31051 0.44669 0.98277 0.0
H2973 H 0.30272 0.35723 0.9816 0.0
H2974 H 0.31729 0.38845 0.97834 0.0
H2975 H 0.30022 0.41939 0.9744 0.0
H2976 H 0.29232 0.51649 0.9876 0.0
H2977 H 0.2915 0.48195 0.98612 0.0
H2978 H 0.33236 0.45669 0.02526 0.0
C2979 C 0.3101 0.38488 0.99159 0.0
C2980 C 0.30763 0.4273 0.98543 0.0
C2981 C 0.30185 0.36698 0.99353 0.0
C2982 C 0.30515 0.50873 0.99078 0.0
C2983 C 0.30469 0.48897 0.98992 0.0
C2984 C 0.32568 0.44859 0.01389 0.0
C2985 C 0.30807 0.39842 0.00613 0.0
C2986 C 0.31334 0.41844 0.00254 0.0
C2987 C 0.32071 0.4784 0.99521 0.0
C2988 C 0.31933 0.45757 0.99709 0.0
H2989 H 0.28258 0.37209 0.03804 0.0
H2990 H 0.29718 0.40337 0.03473 0.0
H2991 H 0.32716 0.42274 0.02994 0.0
H2992 H 0.35104 0.5146 0.0055 0.0
H2993 H 0.35014 0.48012 0.00409 0.0
C2994 C 0.34743 0.61952 0.97297 0.0
C2995 C 0.35177 0.61509 0.99213 0.0
C2996 C 0.34835 0.63823 0.96655 0.0
C2997 C 0.36256 0.68727 0.97943 0.0
H2998 H 0.31204 0.69995 0.96145 0.0
C2999 C 0.30988 0.75249 0.98966 0.0
C3000 C 0.32226 0.76768 0.98582 0.0
C3001 C 0.31464 0.73416 0.98405 0.0
C3002 C 0.32627 0.69663 0.96623 0.0
H3003 H 0.36285 0.62629 0.01882 0.0
H3004 H 0.36466 0.65889 0.00758 0.0
H3005 H 0.32148 0.66687 0.96342 0.0
H3006 H 0.3485 0.77588 0.97169 0.0
H3007 H 0.3568 0.74384 0.96199 0.0
H3008 H 0.36696 0.717 0.98323 0.0
C3009 C 0.36037 0.64799 0.99754 0.0
C3010 C 0.33177 0.67771 0.96719 0.0
C3011 C 0.35934 0.62928 0.00401 0.0
C3012 C 0.33872 0.76443 0.97496 0.0
C3013 C 0.34355 0.74609 0.96949 0.0
C3014 C 0.35712 0.70621 0.9783 0.0
C3015 C 0.35382 0.65277 0.97912 0.0
C3016 C 0.34975 0.6728 0.9744 0.0
C3017 C 0.3319 0.7307 0.97459 0.0
C3018 C 0.3387 0.71103 0.9723 0.0
H3019 H 0.3417 0.60886 0.9634 0.0
H3020 H 0.34354 0.64149 0.95217 0.0
H3021 H 0.37651 0.68389 0.98498 0.0
H3022 H 0.2971 0.75458 0.998 0.0
H3023 H 0.30542 0.72255 0.98828 0.0
C3024 C 0.70953 0.62624 0.53968 0.0
C3025 C 0.71969 0.61858 0.55514 0.0
C3026 C 0.7144 0.64393 0.53223 0.0
C3027 C 0.73938 0.68804 0.5465 0.0
H3028 H 0.72697 0.70235 0.49436 0.0
C3029 C 0.73403 0.76638 0.52454 0.0
C3030 C 0.7393 0.77154 0.50586 0.0
C3031 C 0.73279 0.7473 0.52973 0.0
C3032 C 0.73083 0.69865 0.50891 0.0
H3033 H 0.74376 0.62277 0.57407 0.0
H3034 H 0.75291 0.65334 0.56041 0.0
H3035 H 0.72524 0.66938 0.50373 0.0
H3036 H 0.74764 0.76094 0.47799 0.0
H3037 H 0.7463 0.72779 0.4872 0.0
H3038 H 0.74584 0.71718 0.55145 0.0
C3039 C 0.7407 0.64603 0.5545 0.0
C3040 C 0.72954 0.67967 0.51438 0.0
C3041 C 0.7356 0.62841 0.56219 0.0
C3042 C 0.74325 0.75733 0.49245 0.0
C3043 C 0.74242 0.73828 0.49773 0.0
C3044 C 0.74104 0.70697 0.54093 0.0
C3045 C 0.72978 0.6543 0.53981 0.0
C3046 C 0.73338 0.67414 0.53337 0.0
C3047 C 0.73722 0.73297 0.51648 0.0
C3048 C 0.73642 0.71262 0.52215 0.0
H3049 H 0.69713 0.61907 0.53399 0.0
H3050 H 0.70542 0.64983 0.52115 0.0
H3051 H 0.74226 0.68447 0.56131 0.0
H3052 H 0.73089 0.77708 0.53512 0.0
H3053 H 0.72828 0.74384 0.54416 0.0
C3054 C 0.27327 0.25665 0.9911 0.0
C3055 C 0.25944 0.26807 0.98248 0.0
C3056 C 0.27502 0.2377 0.98586 0.0
C3057 C 0.26514 0.20383 0.94742 0.0
H3058 H 0.27132 0.16671 0.98792 0.0
C3059 C 0.27638 0.12467 0.93064 0.0
C3060 C 0.29152 0.11647 0.94071 0.0
C3061 C 0.26916 0.1422 0.93632 0.0
C3062 C 0.26966 0.1769 0.97644 0.0
H3063 H 0.23689 0.26879 0.9613 0.0
H3064 H 0.24014 0.23562 0.95196 0.0
H3065 H 0.26599 0.19976 0.99613 0.0
H3066 H 0.31034 0.11965 0.96514 0.0
H3067 H 0.29794 0.15006 0.97493 0.0
H3068 H 0.26946 0.18109 0.92772 0.0
C3069 C 0.24957 0.24136 0.9628 0.0
C3070 C 0.26664 0.19582 0.98114 0.0
C3071 C 0.2477 0.26031 0.96816 0.0
C3072 C 0.29866 0.12561 0.95708 0.0
C3073 C 0.29146 0.14303 0.96276 0.0
C3074 C 0.26829 0.18489 0.9427 0.0
C3075 C 0.26307 0.2298 0.9718 0.0
C3076 C 0.26474 0.20953 0.9667 0.0
C3077 C 0.27691 0.15175 0.95223 0.0
C3078 C 0.271 0.17128 0.95717 0.0
H3079 H 0.2825 0.26224 0.00219 0.0
H3080 H 0.28576 0.22919 0.99282 0.0
H3081 H 0.2638 0.21412 0.936 0.0
H3082 H 0.27061 0.11792 0.91796 0.0
H3083 H 0.25779 0.14845 0.92805 0.0
C3084 C 0.69752 0.26383 0.5061 0.0
C3085 C 0.70868 0.27216 0.49167 0.0
C3086 C 0.69626 0.24417 0.50772 0.0
C3087 C 0.71711 0.19894 0.49117 0.0
H3088 H 0.66545 0.18037 0.49718 0.0
C3089 C 0.69831 0.1211 0.47796 0.0
C3090 C 0.68829 0.1122 0.49291 0.0
C3091 C 0.69964 0.14079 0.47714 0.0
C3092 C 0.67994 0.18534 0.4956 0.0
H3093 H 0.72834 0.26657 0.4685 0.0
H3094 H 0.72602 0.23226 0.47119 0.0
H3095 H 0.67194 0.21424 0.49901 0.0
H3096 H 0.67051 0.11692 0.51778 0.0
H3097 H 0.67261 0.15135 0.51617 0.0
H3098 H 0.72504 0.17 0.48755 0.0
C3099 C 0.71831 0.24085 0.48135 0.0
C3100 C 0.68371 0.20473 0.49678 0.0
C3101 C 0.71965 0.26053 0.4798 0.0
C3102 C 0.67828 0.12338 0.50605 0.0
C3103 C 0.67954 0.1431 0.50517 0.0
C3104 C 0.71332 0.17956 0.4899 0.0
C3105 C 0.70605 0.23247 0.49487 0.0
C3106 C 0.70234 0.21176 0.49456 0.0
C3107 C 0.69087 0.15195 0.49117 0.0
C3108 C 0.69468 0.17258 0.49203 0.0
H3109 H 0.68901 0.27246 0.51555 0.0
H3110 H 0.68706 0.23815 0.5186 0.0
H3111 H 0.73162 0.20386 0.48962 0.0
H3112 H 0.70615 0.11287 0.46759 0.0
H3113 H 0.70814 0.14727 0.46595 0.0
C3114 C 0.55263 0.75586 0.93055 0.0
C3115 C 0.5708 0.75251 0.93808 0.0
C3116 C 0.54719 0.748 0.91303 0.0
C3117 C 0.56917 0.73215 0.86823 0.0
H3118 H 0.51709 0.72032 0.85442 0.0
C3119 C 0.54522 0.71194 0.79104 0.0
C3120 C 0.52866 0.7209 0.78453 0.0
C3121 C 0.55092 0.71366 0.81018 0.0
C3122 C 0.53169 0.72365 0.85807 0.0
H3123 H 0.59695 0.73706 0.93396 0.0
H3124 H 0.58729 0.72297 0.90349 0.0
H3125 H 0.52543 0.72499 0.88803 0.0
H3126 H 0.50535 0.73903 0.79281 0.0
H3127 H 0.51533 0.74207 0.82612 0.0
H3128 H 0.57533 0.731 0.83818 0.0
C3129 C 0.57741 0.73204 0.91093 0.0
C3130 C 0.53648 0.7263 0.87732 0.0
C3131 C 0.58287 0.73994 0.92849 0.0
C3132 C 0.51819 0.73196 0.79739 0.0
C3133 C 0.52379 0.73355 0.81651 0.0
C3134 C 0.56439 0.72936 0.84898 0.0
C3135 C 0.55978 0.73654 0.90266 0.0
C3136 C 0.55519 0.73102 0.8826 0.0
C3137 C 0.54006 0.72422 0.82318 0.0
C3138 C 0.54552 0.72553 0.84367 0.0
H3139 H 0.543 0.7655 0.9376 0.0
H3140 H 0.53356 0.75192 0.90708 0.0
H3141 H 0.58366 0.73604 0.87172 0.0
H3142 H 0.55353 0.70326 0.78145 0.0
H3143 H 0.56352 0.7063 0.81494 0.0
C3144 C 0.01417 0.18365 0.7917 0.0
C3145 C 0.99886 0.1762 0.78117 0.0
C3146 C 0.01496 0.18123 0.81156 0.0
C3147 C 0.98897 0.17378 0.85513 0.0
H3148 H 0.03192 0.14395 0.87199 0.0
C3149 C -3e-05 0.16003 0.93517 0.0
C3150 C 0.01867 0.16276 0.94169 0.0
C3151 C 0.99627 0.1575 0.91564 0.0
C3152 C 0.01993 0.15245 0.86763 0.0
H3153 H 0.97175 0.16161 0.78317 0.0
H3154 H 0.97279 0.15815 0.81814 0.0
H3155 H 0.02778 0.15086 0.83799 0.0
H3156 H 0.04825 0.16319 0.93315 0.0
H3157 H 0.0419 0.15939 0.89929 0.0
H3158 H 0.9816 0.17645 0.88466 0.0
C3159 C 0.98429 0.16549 0.81092 0.0
C3160 C 0.01757 0.15634 0.84814 0.0
C3161 C 0.98369 0.16752 0.79098 0.0
C3162 C 0.03368 0.16104 0.9286 0.0
C3163 C 0.02998 0.15886 0.90906 0.0
C3164 C 0.99153 0.17025 0.87469 0.0
C3165 C 0.00024 0.17173 0.82123 0.0
C3166 C 0.00221 0.16721 0.84179 0.0
C3167 C 0.01117 0.15797 0.90221 0.0
C3168 C 0.00721 0.15973 0.88126 0.0
H3169 H 0.02612 0.19025 0.78449 0.0
H3170 H 0.02733 0.18626 0.81932 0.0
H3171 H 0.97701 0.18219 0.85048 0.0
H3172 H 0.98812 0.16117 0.94497 0.0
H3173 H 0.98164 0.1562 0.91101 0.0
C3174 C 0.54486 0.83198 0.17523 0.0
C3175 C 0.54192 0.81701 0.18817 0.0
C3176 C 0.5517 0.82847 0.15679 0.0
C3177 C 0.5518 0.78951 0.12173 0.0
H3178 H 0.57965 0.82577 0.0907 0.0
C3179 C 0.57294 0.77697 0.04224 0.0
C3180 C 0.57042 0.79235 0.02972 0.0
C3181 C 0.5701 0.77914 0.06196 0.0
C3182 C 0.57175 0.81558 0.09919 0.0
H3183 H 0.54569 0.78691 0.19265 0.0
H3184 H 0.55829 0.78087 0.16072 0.0
H3185 H 0.57652 0.83106 0.12509 0.0
H3186 H 0.56226 0.82182 0.0279 0.0
H3187 H 0.55732 0.82558 0.0623 0.0
H3188 H 0.54711 0.77403 0.09574 0.0
C3189 C 0.55468 0.79524 0.16455 0.0
C3190 C 0.56997 0.81858 0.1189 0.0
C3191 C 0.54769 0.79874 0.18295 0.0
C3192 C 0.56428 0.8097 0.03718 0.0
C3193 C 0.56164 0.81191 0.05689 0.0
C3194 C 0.55374 0.78642 0.10205 0.0
C3195 C 0.55593 0.80992 0.15096 0.0
C3196 C 0.55972 0.80574 0.13039 0.0
C3197 C 0.56491 0.79677 0.06952 0.0
C3198 C 0.56346 0.79958 0.09053 0.0
H3199 H 0.54049 0.84622 0.17878 0.0
H3200 H 0.55238 0.84015 0.14675 0.0
H3201 H 0.54348 0.77949 0.13001 0.0
H3202 H 0.57772 0.76344 0.0369 0.0
H3203 H 0.57273 0.76723 0.07136 0.0
C3204 C 0.95334 0.23279 0.43805 0.0
C3205 C 0.93639 0.24187 0.44322 0.0
C3206 C 0.96172 0.23632 0.42029 0.0
C3207 C 0.96498 0.26704 0.37852 0.0
H3208 H 0.96487 0.22046 0.34903 0.0
C3209 C 0.99541 0.26038 0.30154 0.0
C3210 C 0.98157 0.25488 0.28808 0.0
C3211 C 0.9918 0.25876 0.32117 0.0
C3212 C 0.96508 0.23351 0.35716 0.0
H3213 H 0.91608 0.2632 0.4347 0.0
H3214 H 0.93117 0.26976 0.40372 0.0
H3215 H 0.95622 0.21971 0.38302 0.0
H3216 H 0.95353 0.24259 0.28449 0.0
H3217 H 0.94757 0.23895 0.31893 0.0
H3218 H 0.97396 0.28079 0.35256 0.0
C3219 C 0.93771 0.25972 0.41339 0.0
C3220 C 0.96024 0.2331 0.37655 0.0
C3221 C 0.92912 0.256 0.43112 0.0
C3222 C 0.96445 0.24684 0.29457 0.0
C3223 C 0.96104 0.2448 0.31421 0.0
C3224 C 0.97025 0.26739 0.35918 0.0
C3225 C 0.95354 0.24923 0.4075 0.0
C3226 C 0.95997 0.24987 0.38734 0.0
C3227 C 0.97449 0.25119 0.32763 0.0
C3228 C 0.9701 0.25065 0.34832 0.0
H3229 H 0.95937 0.2219 0.44709 0.0
H3230 H 0.97405 0.22822 0.41611 0.0
H3231 H 0.96479 0.28013 0.38657 0.0
H3232 H 0.00865 0.26681 0.29694 0.0
H3233 H 0.00239 0.26367 0.33131 0.0
C3234 C 0.95957 0.15435 0.67467 0.0
C3235 C 0.96293 0.16922 0.68762 0.0
C3236 C 0.95093 0.15788 0.65697 0.0
C3237 C 0.94831 0.19661 0.62263 0.0
H3238 H 0.91404 0.16357 0.59461 0.0
C3239 C 0.92238 0.21494 0.54653 0.0
C3240 C 0.92039 0.2001 0.53332 0.0
C3241 C 0.92621 0.21116 0.5658 0.0
C3242 C 0.9238 0.17283 0.60218 0.0
H3243 H 0.95821 0.19904 0.69299 0.0
H3244 H 0.943 0.20512 0.66222 0.0
H3245 H 0.92119 0.15684 0.62823 0.0
H3246 H 0.92119 0.16965 0.52981 0.0
H3247 H 0.92843 0.16303 0.56338 0.0
H3248 H 0.95145 0.21229 0.59662 0.0
C3249 C 0.94737 0.19083 0.66558 0.0
C3250 C 0.92778 0.16903 0.62146 0.0
C3251 C 0.95593 0.1873 0.68327 0.0
C3252 C 0.92266 0.18139 0.53968 0.0
C3253 C 0.92661 0.17759 0.55895 0.0
C3254 C 0.94445 0.20033 0.60338 0.0
C3255 C 0.94554 0.17634 0.65192 0.0
C3256 C 0.94011 0.18087 0.63187 0.0
C3257 C 0.92828 0.19243 0.57229 0.0
C3258 C 0.93219 0.18847 0.59287 0.0
H3259 H 0.96481 0.14027 0.67761 0.0
H3260 H 0.94972 0.14643 0.64674 0.0
H3261 H 0.95821 0.20577 0.63014 0.0
H3262 H 0.92055 0.22951 0.5421 0.0
H3263 H 0.92714 0.22293 0.57567 0.0
C3264 C 0.40648 0.2422 0.57204 0.0
C3265 C 0.4183 0.25067 0.5582 0.0
C3266 C 0.4132 0.23906 0.59064 0.0
C3267 C 0.45598 0.23896 0.6218 0.0
H3268 H 0.42204 0.26147 0.65896 0.0
C3269 C 0.48113 0.25676 0.69838 0.0
C3270 C 0.46858 0.25226 0.71338 0.0
C3271 C 0.47493 0.25632 0.67933 0.0
C3272 C 0.43161 0.25491 0.64886 0.0
H3273 H 0.44694 0.26052 0.55236 0.0
H3274 H 0.4587 0.2548 0.58469 0.0
H3275 H 0.41173 0.25779 0.62588 0.0
H3276 H 0.43951 0.24455 0.72023 0.0
H3277 H 0.42875 0.24364 0.68712 0.0
H3278 H 0.47588 0.2361 0.6448 0.0
C3279 C 0.44423 0.25075 0.58128 0.0
C3280 C 0.42566 0.25272 0.62989 0.0
C3281 C 0.43748 0.254 0.56273 0.0
C3282 C 0.44951 0.24823 0.70901 0.0
C3283 C 0.44333 0.2477 0.68998 0.0
C3284 C 0.4619 0.24103 0.64083 0.0
C3285 C 0.43189 0.24416 0.59567 0.0
C3286 C 0.4378 0.24481 0.61611 0.0
C3287 C 0.45607 0.2513 0.67487 0.0
C3288 C 0.44983 0.24916 0.65458 0.0
H3289 H 0.39163 0.23945 0.569 0.0
H3290 H 0.40347 0.23359 0.60135 0.0
H3291 H 0.46561 0.23274 0.61152 0.0
H3292 H 0.49593 0.25991 0.70129 0.0
H3293 H 0.48502 0.25958 0.66808 0.0
C3294 C 0.50384 0.76466 0.69028 0.0
C3295 C 0.49081 0.74973 0.69295 0.0
C3296 C 0.50356 0.77542 0.67348 0.0
C3297 C 0.47561 0.78675 0.63004 0.0
H3298 H 0.52485 0.78868 0.60514 0.0
C3299 C 0.50396 0.78803 0.54877 0.0
C3300 C 0.49218 0.80202 0.54096 0.0
C3301 C 0.50576 0.78613 0.56863 0.0
C3302 C 0.51105 0.78838 0.61197 0.0
H3303 H 0.46639 0.73527 0.68079 0.0
H3304 H 0.46582 0.75414 0.65145 0.0
H3305 H 0.52236 0.77722 0.63807 0.0
H3306 H 0.4743 0.82597 0.54774 0.0
H3307 H 0.47749 0.82262 0.58242 0.0
H3308 H 0.4642 0.79717 0.60365 0.0
C3309 C 0.47626 0.75753 0.66234 0.0
C3310 C 0.50962 0.78198 0.63087 0.0
C3311 C 0.4766 0.74669 0.67913 0.0
C3312 C 0.48344 0.81499 0.55333 0.0
C3313 C 0.48513 0.813 0.57319 0.0
C3314 C 0.47706 0.79331 0.61118 0.0
C3315 C 0.49017 0.77155 0.65906 0.0
C3316 C 0.49183 0.78069 0.63996 0.0
C3317 C 0.49575 0.79813 0.58103 0.0
C3318 C 0.49474 0.79378 0.60181 0.0
H3319 H 0.51492 0.76742 0.70072 0.0
H3320 H 0.51426 0.78633 0.67146 0.0
H3321 H 0.46175 0.78601 0.63671 0.0
H3322 H 0.51086 0.77782 0.53959 0.0
H3323 H 0.51399 0.77447 0.57424 0.0
C3324 C 0.48779 0.54928 0.31754 0.0
C3325 C 0.48075 0.56221 0.30404 0.0
C3326 C 0.5067 0.54342 0.31668 0.0
C3327 C 0.54937 0.54322 0.28531 0.0
H3328 H 0.57687 0.54396 0.33352 0.0
C3329 C 0.63067 0.54635 0.28784 0.0
C3330 C 0.63953 0.53313 0.29986 0.0
C3331 C 0.61115 0.54936 0.28913 0.0
C3332 C 0.56933 0.54354 0.31998 0.0
H3333 H 0.48761 0.57842 0.27851 0.0
H3334 H 0.52049 0.56843 0.27713 0.0
H3335 H 0.54253 0.54843 0.33342 0.0
H3336 H 0.63515 0.51339 0.32331 0.0
H3337 H 0.60101 0.51888 0.32572 0.0
H3338 H 0.57626 0.5388 0.27186 0.0
C3339 C 0.51149 0.56261 0.28828 0.0
C3340 C 0.54966 0.54598 0.31991 0.0
C3341 C 0.49263 0.56842 0.28912 0.0
C3342 C 0.62869 0.5237 0.31388 0.0
C3343 C 0.60917 0.52683 0.31527 0.0
C3344 C 0.56903 0.54092 0.28538 0.0
C3345 C 0.51888 0.5504 0.30231 0.0
C3346 C 0.53948 0.54607 0.30254 0.0
C3347 C 0.60015 0.53932 0.30255 0.0
C3348 C 0.57923 0.54129 0.30269 0.0
H3349 H 0.47893 0.54423 0.32918 0.0
H3350 H 0.51188 0.53375 0.32751 0.0
H3351 H 0.54192 0.54287 0.27172 0.0
H3352 H 0.63866 0.55381 0.27689 0.0
H3353 H 0.60459 0.55931 0.27937 0.0
C3354 C 0.50575 0.97657 0.6847 0.0
C3355 C 0.49268 0.97137 0.69902 0.0
C3356 C 0.52524 0.9766 0.68855 0.0
C3357 C 0.5669 0.96996 0.69914 0.0
H3358 H 0.57884 0.99052 0.74926 0.0
C3359 C 0.64096 0.96664 0.73442 0.0
C3360 C 0.64631 0.98106 0.74722 0.0
C3361 C 0.62327 0.96701 0.72539 0.0
C3362 C 0.5758 0.98505 0.73509 0.0
H3363 H 0.48975 0.96051 0.72795 0.0
H3364 H 0.52375 0.96009 0.73449 0.0
H3365 H 0.54591 0.98602 0.73999 0.0
H3366 H 0.63812 0.00803 0.75927 0.0
H3367 H 0.60731 0.00889 0.74321 0.0
H3368 H 0.59693 0.96921 0.69425 0.0
C3369 C 0.51894 0.96468 0.72049 0.0
C3370 C 0.55689 0.98212 0.72991 0.0
C3371 C 0.49949 0.96473 0.71668 0.0
C3372 C 0.63431 0.99665 0.74959 0.0
C3373 C 0.61661 0.99705 0.74051 0.0
C3374 C 0.58589 0.97289 0.70435 0.0
C3375 C 0.53197 0.97136 0.70675 0.0
C3376 C 0.55221 0.97433 0.71198 0.0
C3377 C 0.61059 0.98185 0.72895 0.0
C3378 C 0.59055 0.98034 0.72245 0.0
H3379 H 0.50091 0.98179 0.67095 0.0
H3380 H 0.5349 0.98183 0.67766 0.0
H3381 H 0.56373 0.96397 0.68521 0.0
H3382 H 0.64996 0.95446 0.73225 0.0
H3383 H 0.61908 0.95504 0.71665 0.0
C3384 C 0.1285 0.50831 0.24658 0.0
C3385 C 0.14397 0.52065 0.24943 0.0
C3386 C 0.11119 0.51162 0.25579 0.0
C3387 C 0.08372 0.55154 0.27212 0.0
H3388 H 0.04996 0.51386 0.29419 0.0
C3389 C 0.00418 0.54344 0.30768 0.0
C3390 C 0.99291 0.5498 0.29234 0.0
C3391 C 0.02385 0.54223 0.30571 0.0
C3392 C 0.05934 0.52458 0.28828 0.0
H3393 H 0.15394 0.54518 0.2653 0.0
H3394 H 0.12375 0.55094 0.28121 0.0
H3395 H 0.08234 0.50507 0.28534 0.0
H3396 H 0.99354 0.56164 0.26367 0.0
H3397 H 0.02804 0.56 0.26043 0.0
H3398 H 0.06047 0.57085 0.27432 0.0
C3399 C 0.12494 0.53888 0.27174 0.0
C3400 C 0.07777 0.51951 0.2831 0.0
C3401 C 0.14224 0.53548 0.2627 0.0
C3402 C 0.00185 0.55669 0.27573 0.0
C3403 C 0.02159 0.55571 0.27386 0.0
C3404 C 0.0652 0.55654 0.27702 0.0
C3405 C 0.10909 0.52738 0.26787 0.0
C3406 C 0.09008 0.53291 0.27483 0.0
C3407 C 0.03264 0.54768 0.28851 0.0
C3408 C 0.0528 0.54306 0.28499 0.0
H3409 H 0.12942 0.49679 0.23641 0.0
H3410 H 0.09915 0.50255 0.25254 0.0
H3411 H 0.09286 0.5621 0.26555 0.0
H3412 H 0.99772 0.53805 0.3207 0.0
H3413 H 0.03211 0.53623 0.31729 0.0
C3414 C 0.13349 0.96063 0.69073 0.0
C3415 C 0.14268 0.96463 0.7081 0.0
C3416 C 0.11418 0.95584 0.6905 0.0
C3417 C 0.0741 0.94194 0.72304 0.0
H3418 H 0.0438 0.95603 0.67897 0.0
C3419 C 0.99777 0.91458 0.71365 0.0
C3420 C 0.98468 0.92515 0.70302 0.0
C3421 C 0.01662 0.9205 0.71521 0.0
C3422 C 0.05191 0.9523 0.69159 0.0
H3423 H 0.13897 0.96713 0.73879 0.0
H3424 H 0.10532 0.95986 0.73845 0.0
H3425 H 0.0773 0.96406 0.67967 0.0
H3426 H 0.98072 0.95073 0.68645 0.0
H3427 H 0.01345 0.96183 0.69008 0.0
H3428 H 0.04855 0.93129 0.73551 0.0
C3429 C 0.11295 0.95948 0.72498 0.0
C3430 C 0.07132 0.95654 0.69181 0.0
C3431 C 0.13231 0.96375 0.72524 0.0
C3432 C 0.99056 0.94229 0.69467 0.0
C3433 C 0.00939 0.94849 0.6966 0.0
C3434 C 0.05463 0.93814 0.72303 0.0
C3435 C 0.10355 0.95549 0.70763 0.0
C3436 C 0.08276 0.95122 0.70744 0.0
C3437 C 0.0228 0.93745 0.70653 0.0
C3438 C 0.04328 0.94297 0.70718 0.0
H3439 H 0.14124 0.96124 0.67729 0.0
H3440 H 0.10765 0.95245 0.67689 0.0
H3441 H 0.08233 0.93732 0.73525 0.0
H3442 H 0.99369 0.90115 0.72008 0.0
H3443 H 0.02644 0.91134 0.72262 0.0
C3444 C 0.99464 0.2052 0.04641 0.0
C3445 C 0.0067 0.19151 0.03854 0.0
C3446 C 0.99292 0.20699 0.06629 0.0
C3447 C 0.02156 0.19984 0.10918 0.0
H3448 H 0.9754 0.21311 0.13603 0.0
C3449 C 0.99236 0.22207 0.18935 0.0
C3450 C 0.00482 0.23712 0.19354 0.0
C3451 C 0.99342 0.21266 0.17181 0.0
C3452 C 0.9884 0.20917 0.12882 0.0
H3453 H 0.0253 0.16807 0.04528 0.0
H3454 H 0.02224 0.17122 0.07994 0.0
H3455 H 0.97372 0.20326 0.10257 0.0
H3456 H 0.02911 0.25318 0.18329 0.0
H3457 H 0.03104 0.23666 0.1526 0.0
H3458 H 0.03629 0.20624 0.13532 0.0
C3459 C 0.01432 0.18069 0.07076 0.0
C3460 C 0.98743 0.20369 0.10962 0.0
C3461 C 0.01592 0.1788 0.0509 0.0
C3462 C 0.01934 0.2416 0.18047 0.0
C3463 C 0.02043 0.23214 0.1629 0.0
C3464 C 0.02255 0.20548 0.12836 0.0
C3465 C 0.00332 0.19521 0.07865 0.0
C3466 C 0.00402 0.19919 0.09952 0.0
C3467 C 0.00701 0.21807 0.15811 0.0
C3468 C 0.006 0.21042 0.13832 0.0
H3469 H 0.9874 0.21522 0.03726 0.0
H3470 H 0.98438 0.21837 0.07196 0.0
H3471 H 0.03463 0.19667 0.10171 0.0
H3472 H 0.98109 0.21819 0.19919 0.0
H3473 H 0.98313 0.20164 0.16867 0.0
C3474 C 0.96992 0.73889 0.3234 0.0
C3475 C 0.98382 0.73647 0.30923 0.0
C3476 C 0.97018 0.72782 0.34003 0.0
C3477 C 0.00508 0.7039 0.37005 0.0
H3478 H 0.96083 0.68953 0.39982 0.0
C3479 C 0.98142 0.67463 0.45011 0.0
C3480 C 0.99132 0.68791 0.46138 0.0
C3481 C 0.98243 0.67543 0.43013 0.0
C3482 C 0.97339 0.69311 0.39158 0.0
H3483 H 0.00784 0.71947 0.30052 0.0
H3484 H 0.00813 0.70004 0.32942 0.0
H3485 H 0.95692 0.69974 0.36666 0.0
H3486 H 0.01137 0.7113 0.46065 0.0
H3487 H 0.01318 0.71269 0.42581 0.0
H3488 H 0.02149 0.6978 0.39515 0.0
C3489 C 0.99728 0.71072 0.32788 0.0
C3490 C 0.9711 0.69915 0.37264 0.0
C3491 C 0.99702 0.72177 0.31128 0.0
C3492 C 0.00358 0.70088 0.45235 0.0
C3493 C 0.00462 0.70165 0.43236 0.0
C3494 C 0.00736 0.69793 0.38901 0.0
C3495 C 0.98434 0.71412 0.34277 0.0
C3496 C 0.98687 0.70505 0.36181 0.0
C3497 C 0.99342 0.68946 0.42104 0.0
C3498 C 0.99149 0.69292 0.40013 0.0
H3499 H 0.9596 0.75013 0.32224 0.0
H3500 H 0.96006 0.73088 0.35127 0.0
H3501 H 0.01752 0.70852 0.36217 0.0
H3502 H 0.97194 0.66436 0.45666 0.0
H3503 H 0.97391 0.66562 0.42179 0.0
loop_
_geom_bond_atom_site_label_1
_geom_bond_atom_site_label_2
_geom_bond_distance
_geom_bond_site_symmetry_2
_ccdc_geom_bond_type
In0 O1 2.294 . S
In0 O2 2.326 . S
In0 O6 2.266 . S
In0 O7 2.326 . S
In0 O8 2.266 . S
In0 O9 2.326 . S
In0 O11 2.294 . S
In0 O12 2.326 . S
O1 In0 2.294 . S
O1 C10 1.240 . S
O2 In0 2.326 . S
O2 C10 1.252 . S
C3 O6 1.252 . S
C3 O7 1.260 . S
C4 O11 1.240 . S
C4 O12 1.252 . S
C5 O8 1.252 . S
C5 O9 1.260 . S
O6 In0 2.266 . S
O6 C3 1.252 . S
O7 In0 2.326 . S
O7 C3 1.260 . S
O8 In0 2.266 . S
O8 C5 1.252 . S
O9 In0 2.326 . S
O9 C5 1.260 . S
C10 O1 1.240 . S
C10 O2 1.252 . S
O11 In0 2.294 . S
O11 C4 1.240 . S
O12 In0 2.326 . S
O12 C4 1.252 . S
In13 O14 2.294 . S
In13 O15 2.326 . S
In13 O19 2.266 . S
In13 O20 2.326 . S
In13 O21 2.266 . S
In13 O22 2.326 . S
In13 O24 2.294 . S
In13 O25 2.326 . S
O14 In13 2.294 . S
O14 C23 1.240 . S
O15 In13 2.326 . S
O15 C23 1.252 . S
C16 O19 1.252 . S
C16 O20 1.260 . S
C17 O24 1.240 . S
C17 O25 1.252 . S
C18 O21 1.252 . S
C18 O22 1.260 . S
O19 In13 2.266 . S
O19 C16 1.252 . S
O20 In13 2.326 . S
O20 C16 1.260 . S
O21 In13 2.266 . S
O21 C18 1.252 . S
O22 In13 2.326 . S
O22 C18 1.260 . S
C23 O14 1.240 . S
C23 O15 1.252 . S
O24 In13 2.294 . S
O24 C17 1.240 . S
O25 In13 2.326 . S
O25 C17 1.252 . S
In26 O27 2.294 . S
In26 O28 2.326 . S
In26 O32 2.266 . S
In26 O33 2.326 . S
In26 O34 2.266 . S
In26 O35 2.326 . S
In26 O37 2.294 . S
In26 O38 2.326 . S
O27 In26 2.294 . S
O27 C36 1.240 . S
O28 In26 2.326 . S
O28 C36 1.252 . S
C29 O32 1.252 . S
C29 O33 1.260 . S
C30 O37 1.240 . S
C30 O38 1.252 . S
C31 O34 1.252 . S
C31 O35 1.260 . S
O32 In26 2.266 . S
O32 C29 1.252 . S
O33 In26 2.326 . S
O33 C29 1.260 . S
O34 In26 2.266 . S
O34 C31 1.252 . S
O35 In26 2.326 . S
O35 C31 1.260 . S
C36 O27 1.240 . S
C36 O28 1.252 . S
O37 In26 2.294 . S
O37 C30 1.240 . S
O38 In26 2.326 . S
O38 C30 1.252 . S
In39 O40 2.294 . S
In39 O41 2.326 . S
In39 O45 2.266 . S
In39 O46 2.326 . S
In39 O47 2.266 . S
In39 O48 2.326 . S
In39 O50 2.294 . S
In39 O51 2.326 . S
O40 In39 2.294 . S
O40 C49 1.240 . S
O41 In39 2.326 . S
O41 C49 1.252 . S
C42 O45 1.252 . S
C42 O46 1.260 . S
C43 O50 1.240 . S
C43 O51 1.252 . S
C44 O47 1.252 . S
C44 O48 1.260 . S
O45 In39 2.266 . S
O45 C42 1.252 . S
O46 In39 2.326 . S
O46 C42 1.260 . S
O47 In39 2.266 . S
O47 C44 1.252 . S
O48 In39 2.326 . S
O48 C44 1.260 . S
C49 O40 1.240 . S
C49 O41 1.252 . S
O50 In39 2.294 . S
O50 C43 1.240 . S
O51 In39 2.326 . S
O51 C43 1.252 . S
In52 O53 2.294 . S
In52 O54 2.326 . S
In52 O58 2.266 . S
In52 O59 2.326 . S
In52 O60 2.266 . S
In52 O61 2.326 . S
In52 O63 2.294 . S
In52 O64 2.326 . S
O53 In52 2.294 . S
O53 C62 1.240 . S
O54 In52 2.326 . S
O54 C62 1.252 . S
C55 O58 1.252 . S
C55 O59 1.260 . S
C56 O63 1.240 . S
C56 O64 1.252 . S
C57 O60 1.252 . S
C57 O61 1.260 . S
O58 In52 2.266 . S
O58 C55 1.252 . S
O59 In52 2.326 . S
O59 C55 1.260 . S
O60 In52 2.266 . S
O60 C57 1.252 . S
O61 In52 2.326 . S
O61 C57 1.260 . S
C62 O53 1.240 . S
C62 O54 1.252 . S
O63 In52 2.294 . S
O63 C56 1.240 . S
O64 In52 2.326 . S
O64 C56 1.252 . S
In65 O66 2.294 . S
In65 O67 2.326 . S
In65 O71 2.266 . S
In65 O72 2.326 . S
In65 O73 2.266 . S
In65 O74 2.326 . S
In65 O76 2.294 . S
In65 O77 2.326 . S
O66 In65 2.294 . S
O66 C75 1.240 . S
O67 In65 2.326 . S
O67 C75 1.252 . S
C68 O71 1.252 . S
C68 O72 1.260 . S
C69 O76 1.240 . S
C69 O77 1.252 . S
C70 O73 1.252 . S
C70 O74 1.260 . S
O71 In65 2.266 . S
O71 C68 1.252 . S
O72 In65 2.326 . S
O72 C68 1.260 . S
O73 In65 2.266 . S
O73 C70 1.252 . S
O74 In65 2.326 . S
O74 C70 1.260 . S
C75 O66 1.240 . S
C75 O67 1.252 . S
O76 In65 2.294 . S
O76 C69 1.240 . S
O77 In65 2.326 . S
O77 C69 1.252 . S
In78 O79 2.294 . S
In78 O80 2.326 . S
In78 O84 2.266 . S
In78 O85 2.326 . S
In78 O86 2.266 . S
In78 O87 2.326 . S
In78 O89 2.294 . S
In78 O90 2.326 . S
O79 In78 2.294 . S
O79 C88 1.240 . S
O80 In78 2.326 . S
O80 C88 1.252 . S
C81 O84 1.252 . S
C81 O85 1.260 . S
C82 O89 1.240 . S
C82 O90 1.252 . S
C83 O86 1.252 . S
C83 O87 1.260 . S
O84 In78 2.266 . S
O84 C81 1.252 . S
O85 In78 2.326 . S
O85 C81 1.260 . S
O86 In78 2.266 . S
O86 C83 1.252 . S
O87 In78 2.326 . S
O87 C83 1.260 . S
C88 O79 1.240 . S
C88 O80 1.252 . S
O89 In78 2.294 . S
O89 C82 1.240 . S
O90 In78 2.326 . S
O90 C82 1.252 . S
In91 O92 2.294 . S
In91 O93 2.326 . S
In91 O97 2.266 . S
In91 O98 2.326 . S
In91 O99 2.266 . S
In91 O100 2.326 . S
In91 O102 2.294 . S
In91 O103 2.326 . S
O92 In91 2.294 . S
O92 C101 1.240 . S
O93 In91 2.326 . S
O93 C101 1.252 . S
C94 O97 1.252 . S
C94 O98 1.260 . S
C95 O102 1.240 . S
C95 O103 1.252 . S
C96 O99 1.252 . S
C96 O100 1.260 . S
O97 In91 2.266 . S
O97 C94 1.252 . S
O98 In91 2.326 . S
O98 C94 1.260 . S
O99 In91 2.266 . S
O99 C96 1.252 . S
O100 In91 2.326 . S
O100 C96 1.260 . S
C101 O92 1.240 . S
C101 O93 1.252 . S
O102 In91 2.294 . S
O102 C95 1.240 . S
O103 In91 2.326 . S
O103 C95 1.252 . S
In104 O105 2.294 . S
In104 O106 2.326 . S
In104 O110 2.266 . S
In104 O111 2.326 . S
In104 O112 2.266 . S
In104 O113 2.326 . S
In104 O115 2.294 . S
In104 O116 2.326 . S
O105 In104 2.294 . S
O105 C114 1.240 . S
O106 In104 2.326 . S
O106 C114 1.252 . S
C107 O110 1.252 . S
C107 O111 1.260 . S
C108 O115 1.240 . S
C108 O116 1.252 . S
C109 O112 1.252 . S
C109 O113 1.260 . S
O110 In104 2.266 . S
O110 C107 1.252 . S
O111 In104 2.326 . S
O111 C107 1.260 . S
O112 In104 2.266 . S
O112 C109 1.252 . S
O113 In104 2.326 . S
O113 C109 1.260 . S
C114 O105 1.240 . S
C114 O106 1.252 . S
O115 In104 2.294 . S
O115 C108 1.240 . S
O116 In104 2.326 . S
O116 C108 1.252 . S
In117 O118 2.294 . S
In117 O119 2.326 . S
In117 O123 2.266 . S
In117 O124 2.326 . S
In117 O125 2.266 . S
In117 O126 2.326 . S
In117 O128 2.294 . S
In117 O129 2.326 . S
O118 In117 2.294 . S
O118 C127 1.240 . S
O119 In117 2.326 . S
O119 C127 1.252 . S
C120 O123 1.252 . S
C120 O124 1.260 . S
C121 O128 1.240 . S
C121 O129 1.252 . S
C122 O125 1.252 . S
C122 O126 1.260 . S
O123 In117 2.266 . S
O123 C120 1.252 . S
O124 In117 2.326 . S
O124 C120 1.260 . S
O125 In117 2.266 . S
O125 C122 1.252 . S
O126 In117 2.326 . S
O126 C122 1.260 . S
C127 O118 1.240 . S
C127 O119 1.252 . S
O128 In117 2.294 . S
O128 C121 1.240 . S
O129 In117 2.326 . S
O129 C121 1.252 . S
In130 O131 2.294 . S
In130 O132 2.326 . S
In130 O136 2.266 . S
In130 O137 2.326 . S
In130 O138 2.266 . S
In130 O139 2.326 . S
In130 O141 2.294 . S
In130 O142 2.326 . S
O131 In130 2.294 . S
O131 C140 1.240 . S
O132 In130 2.326 . S
O132 C140 1.252 . S
C133 O136 1.252 . S
C133 O137 1.260 . S
C134 O141 1.240 . S
C134 O142 1.252 . S
C135 O138 1.252 . S
C135 O139 1.260 . S
O136 In130 2.266 . S
O136 C133 1.252 . S
O137 In130 2.326 . S
O137 C133 1.260 . S
O138 In130 2.266 . S
O138 C135 1.252 . S
O139 In130 2.326 . S
O139 C135 1.260 . S
C140 O131 1.240 . S
C140 O132 1.252 . S
O141 In130 2.294 . S
O141 C134 1.240 . S
O142 In130 2.326 . S
O142 C134 1.252 . S
In143 O144 2.294 . S
In143 O145 2.326 . S
In143 O149 2.266 . S
In143 O150 2.326 . S
In143 O151 2.266 . S
In143 O152 2.326 . S
In143 O154 2.294 . S
In143 O155 2.326 . S
O144 In143 2.294 . S
O144 C153 1.240 . S
O145 In143 2.326 . S
O145 C153 1.252 . S
C146 O149 1.252 . S
C146 O150 1.260 . S
C147 O154 1.240 . S
C147 O155 1.252 . S
C148 O151 1.252 . S
C148 O152 1.260 . S
O149 In143 2.266 . S
O149 C146 1.252 . S
O150 In143 2.326 . S
O150 C146 1.260 . S
O151 In143 2.266 . S
O151 C148 1.252 . S
O152 In143 2.326 . S
O152 C148 1.260 . S
C153 O144 1.240 . S
C153 O145 1.252 . S
O154 In143 2.294 . S
O154 C147 1.240 . S
O155 In143 2.326 . S
O155 C147 1.252 . S
In156 O157 2.294 . S
In156 O158 2.326 . S
In156 O162 2.266 . S
In156 O163 2.326 . S
In156 O164 2.266 . S
In156 O165 2.326 . S
In156 O167 2.294 . S
In156 O168 2.326 . S
O157 In156 2.294 . S
O157 C166 1.240 . S
O158 In156 2.326 . S
O158 C166 1.252 . S
C159 O162 1.252 . S
C159 O163 1.260 . S
C160 O167 1.240 . S
C160 O168 1.252 . S
C161 O164 1.252 . S
C161 O165 1.260 . S
O162 In156 2.266 . S
O162 C159 1.252 . S
O163 In156 2.326 . S
O163 C159 1.260 . S
O164 In156 2.266 . S
O164 C161 1.252 . S
O165 In156 2.326 . S
O165 C161 1.260 . S
C166 O157 1.240 . S
C166 O158 1.252 . S
O167 In156 2.294 . S
O167 C160 1.240 . S
O168 In156 2.326 . S
O168 C160 1.252 . S
In169 O170 2.293 1_455 S
In169 O171 2.326 1_455 S
In169 O175 2.266 1_455 S
In169 O176 2.326 . S
In169 O177 2.267 . S
In169 O178 2.325 1_455 S
In169 O180 2.295 . S
In169 O181 2.326 . S
O170 In169 2.293 1_655 S
O170 C179 1.240 . S
O171 In169 2.326 1_655 S
O171 C179 1.254 . S
C172 O175 1.252 . S
C172 O176 1.260 1_655 S
C173 O180 1.240 . S
C173 O181 1.252 . S
C174 O177 1.252 . S
C174 O178 1.260 1_455 S
O175 In169 2.266 1_655 S
O175 C172 1.252 . S
O176 In169 2.326 . S
O176 C172 1.260 1_455 S
O177 In169 2.267 . S
O177 C174 1.252 . S
O178 In169 2.325 1_655 S
O178 C174 1.260 1_655 S
C179 O170 1.240 . S
C179 O171 1.254 . S
O180 In169 2.295 . S
O180 C173 1.240 . S
O181 In169 2.326 . S
O181 C173 1.252 . S
In182 O183 2.294 . S
In182 O184 2.326 . S
In182 O188 2.266 . S
In182 O189 2.326 . S
In182 O190 2.266 . S
In182 O191 2.326 . S
In182 O193 2.294 . S
In182 O194 2.326 . S
O183 In182 2.294 . S
O183 C192 1.240 . S
O184 In182 2.326 . S
O184 C192 1.252 . S
C185 O188 1.252 . S
C185 O189 1.260 . S
C186 O193 1.240 . S
C186 O194 1.252 . S
C187 O190 1.252 . S
C187 O191 1.260 . S
O188 In182 2.266 . S
O188 C185 1.252 . S
O189 In182 2.326 . S
O189 C185 1.260 . S
O190 In182 2.266 . S
O190 C187 1.252 . S
O191 In182 2.326 . S
O191 C187 1.260 . S
C192 O183 1.240 . S
C192 O184 1.252 . S
O193 In182 2.294 . S
O193 C186 1.240 . S
O194 In182 2.326 . S
O194 C186 1.252 . S
In195 O196 2.294 . S
In195 O197 2.326 . S
In195 O201 2.266 1_655 S
In195 O202 2.326 1_655 S
In195 O203 2.266 . S
In195 O204 2.326 . S
In195 O206 2.294 . S
In195 O207 2.326 1_655 S
O196 In195 2.294 . S
O196 C205 1.240 . S
O197 In195 2.326 . S
O197 C205 1.252 . S
C198 O201 1.252 . S
C198 O202 1.260 . S
C199 O206 1.240 1_455 S
C199 O207 1.252 . S
C200 O203 1.252 . S
C200 O204 1.260 . S
O201 In195 2.266 1_455 S
O201 C198 1.252 . S
O202 In195 2.326 1_455 S
O202 C198 1.260 . S
O203 In195 2.266 . S
O203 C200 1.252 . S
O204 In195 2.326 . S
O204 C200 1.260 . S
C205 O196 1.240 . S
C205 O197 1.252 . S
O206 In195 2.294 . S
O206 C199 1.240 1_655 S
O207 In195 2.326 1_455 S
O207 C199 1.252 . S
In208 O209 2.294 . S
In208 O210 2.326 . S
In208 O214 2.266 . S
In208 O215 2.326 . S
In208 O216 2.266 . S
In208 O217 2.326 . S
In208 O219 2.294 . S
In208 O220 2.326 . S
O209 In208 2.294 . S
O209 C218 1.240 . S
O210 In208 2.326 . S
O210 C218 1.252 . S
C211 O214 1.252 . S
C211 O215 1.260 . S
C212 O219 1.240 . S
C212 O220 1.252 . S
C213 O216 1.252 . S
C213 O217 1.260 . S
O214 In208 2.266 . S
O214 C211 1.252 . S
O215 In208 2.326 . S
O215 C211 1.260 . S
O216 In208 2.266 . S
O216 C213 1.252 . S
O217 In208 2.326 . S
O217 C213 1.260 . S
C218 O209 1.240 . S
C218 O210 1.252 . S
O219 In208 2.294 . S
O219 C212 1.240 . S
O220 In208 2.326 . S
O220 C212 1.252 . S
In221 O222 2.294 . S
In221 O223 2.326 . S
In221 O227 2.266 . S
In221 O228 2.326 . S
In221 O229 2.266 . S
In221 O230 2.326 . S
In221 O232 2.294 . S
In221 O233 2.326 . S
O222 In221 2.294 . S
O222 C231 1.240 . S
O223 In221 2.326 . S
O223 C231 1.252 . S
C224 O227 1.252 . S
C224 O228 1.260 . S
C225 O232 1.240 . S
C225 O233 1.252 . S
C226 O229 1.252 . S
C226 O230 1.260 . S
O227 In221 2.266 . S
O227 C224 1.252 . S
O228 In221 2.326 . S
O228 C224 1.260 . S
O229 In221 2.266 . S
O229 C226 1.252 . S
O230 In221 2.326 . S
O230 C226 1.260 . S
C231 O222 1.240 . S
C231 O223 1.252 . S
O232 In221 2.294 . S
O232 C225 1.240 . S
O233 In221 2.326 . S
O233 C225 1.252 . S
In234 O235 2.294 . S
In234 O236 2.326 . S
In234 O240 2.266 . S
In234 O241 2.326 . S
In234 O242 2.266 . S
In234 O243 2.326 . S
In234 O245 2.294 . S
In234 O246 2.326 . S
O235 In234 2.294 . S
O235 C244 1.240 . S
O236 In234 2.326 . S
O236 C244 1.252 . S
C237 O240 1.252 . S
C237 O241 1.260 . S
C238 O245 1.240 . S
C238 O246 1.252 . S
C239 O242 1.252 . S
C239 O243 1.260 . S
O240 In234 2.266 . S
O240 C237 1.252 . S
O241 In234 2.326 . S
O241 C237 1.260 . S
O242 In234 2.266 . S
O242 C239 1.252 . S
O243 In234 2.326 . S
O243 C239 1.260 . S
C244 O235 1.240 . S
C244 O236 1.252 . S
O245 In234 2.294 . S
O245 C238 1.240 . S
O246 In234 2.326 . S
O246 C238 1.252 . S
In247 O248 2.294 . S
In247 O249 2.326 . S
In247 O253 2.266 . S
In247 O254 2.326 . S
In247 O255 2.266 . S
In247 O256 2.326 . S
In247 O258 2.294 . S
In247 O259 2.326 . S
O248 In247 2.294 . S
O248 C257 1.240 . S
O249 In247 2.326 . S
O249 C257 1.252 . S
C250 O253 1.252 . S
C250 O254 1.260 . S
C251 O258 1.240 . S
C251 O259 1.252 . S
C252 O255 1.252 . S
C252 O256 1.260 . S
O253 In247 2.266 . S
O253 C250 1.252 . S
O254 In247 2.326 . S
O254 C250 1.260 . S
O255 In247 2.266 . S
O255 C252 1.252 . S
O256 In247 2.326 . S
O256 C252 1.260 . S
C257 O248 1.240 . S
C257 O249 1.252 . S
O258 In247 2.294 . S
O258 C251 1.240 . S
O259 In247 2.326 . S
O259 C251 1.252 . S
In260 O261 2.294 . S
In260 O262 2.327 . S
In260 O266 2.266 1_545 S
In260 O267 2.325 1_545 S
In260 O268 2.266 . S
In260 O269 2.326 . S
In260 O271 2.294 1_545 S
In260 O272 2.326 1_545 S
O261 In260 2.294 . S
O261 C270 1.240 . S
O262 In260 2.327 . S
O262 C270 1.252 . S
C263 O266 1.252 . S
C263 O267 1.260 . S
C264 O271 1.237 . S
C264 O272 1.252 . S
C265 O268 1.252 . S
C265 O269 1.260 . S
O266 In260 2.266 1_565 S
O266 C263 1.252 . S
O267 In260 2.325 1_565 S
O267 C263 1.260 . S
O268 In260 2.266 . S
O268 C265 1.252 . S
O269 In260 2.326 . S
O269 C265 1.260 . S
C270 O261 1.240 . S
C270 O262 1.252 . S
O271 In260 2.294 1_565 S
O271 C264 1.237 . S
O272 In260 2.326 1_565 S
O272 C264 1.252 . S
In273 O274 2.294 . S
In273 O275 2.327 1_556 S
In273 O279 2.265 . S
In273 O280 2.325 . S
In273 O281 2.267 1_556 S
In273 O282 2.326 1_556 S
In273 O284 2.295 1_556 S
In273 O285 2.326 . S
O274 In273 2.294 . S
O274 C283 1.240 1_556 S
O275 In273 2.327 1_554 S
O275 C283 1.252 . S
C276 O279 1.252 . S
C276 O280 1.260 . S
C277 O284 1.240 . S
C277 O285 1.252 1_554 S
C278 O281 1.252 . S
C278 O282 1.260 . S
O279 In273 2.265 . S
O279 C276 1.252 . S
O280 In273 2.325 . S
O280 C276 1.260 . S
O281 In273 2.267 1_554 S
O281 C278 1.252 . S
O282 In273 2.326 1_554 S
O282 C278 1.260 . S
C283 O274 1.240 1_554 S
C283 O275 1.252 . S
O284 In273 2.295 1_554 S
O284 C277 1.240 . S
O285 In273 2.326 . S
O285 C277 1.252 1_556 S
In286 O287 2.294 . S
In286 O288 2.326 . S
In286 O292 2.266 . S
In286 O293 2.326 . S
In286 O294 2.266 . S
In286 O295 2.326 . S
In286 O297 2.294 . S
In286 O298 2.326 . S
O287 In286 2.294 . S
O287 C296 1.240 . S
O288 In286 2.326 . S
O288 C296 1.252 . S
C289 O292 1.252 . S
C289 O293 1.260 . S
C290 O297 1.240 . S
C290 O298 1.252 . S
C291 O294 1.252 . S
C291 O295 1.260 . S
O292 In286 2.266 . S
O292 C289 1.252 . S
O293 In286 2.326 . S
O293 C289 1.260 . S
O294 In286 2.266 . S
O294 C291 1.252 . S
O295 In286 2.326 . S
O295 C291 1.260 . S
C296 O287 1.240 . S
C296 O288 1.252 . S
O297 In286 2.294 . S
O297 C290 1.240 . S
O298 In286 2.326 . S
O298 C290 1.252 . S
In299 O300 2.294 . S
In299 O301 2.326 . S
In299 O305 2.266 . S
In299 O306 2.326 . S
In299 O307 2.266 . S
In299 O308 2.326 . S
In299 O310 2.294 . S
In299 O311 2.326 . S
O300 In299 2.294 . S
O300 C309 1.240 . S
O301 In299 2.326 . S
O301 C309 1.252 . S
C302 O305 1.252 . S
C302 O306 1.260 . S
C303 O310 1.240 . S
C303 O311 1.252 . S
C304 O307 1.252 . S
C304 O308 1.260 . S
O305 In299 2.266 . S
O305 C302 1.252 . S
O306 In299 2.326 . S
O306 C302 1.260 . S
O307 In299 2.266 . S
O307 C304 1.252 . S
O308 In299 2.326 . S
O308 C304 1.260 . S
C309 O300 1.240 . S
C309 O301 1.252 . S
O310 In299 2.294 . S
O310 C303 1.240 . S
O311 In299 2.326 . S
O311 C303 1.252 . S
In312 O313 2.293 1_565 S
In312 O314 2.326 1_565 S
In312 O318 2.266 1_565 S
In312 O319 2.326 . S
In312 O320 2.266 1_565 S
In312 O321 2.325 1_565 S
In312 O323 2.295 . S
In312 O324 2.327 . S
O313 In312 2.293 1_545 S
O313 C322 1.240 . S
O314 In312 2.326 1_545 S
O314 C322 1.252 . S
C315 O318 1.252 1_565 S
C315 O319 1.260 . S
C316 O323 1.240 . S
C316 O324 1.252 . S
C317 O320 1.252 . S
C317 O321 1.260 . S
O318 In312 2.266 1_545 S
O318 C315 1.252 1_545 S
O319 In312 2.326 . S
O319 C315 1.260 . S
O320 In312 2.266 1_545 S
O320 C317 1.252 . S
O321 In312 2.325 1_545 S
O321 C317 1.260 . S
C322 O313 1.240 . S
C322 O314 1.252 . S
O323 In312 2.295 . S
O323 C316 1.240 . S
O324 In312 2.327 . S
O324 C316 1.252 . S
In325 O326 2.294 . S
In325 O327 2.326 . S
In325 O331 2.266 . S
In325 O332 2.326 . S
In325 O333 2.266 . S
In325 O334 2.326 . S
In325 O336 2.294 . S
In325 O337 2.326 . S
O326 In325 2.294 . S
O326 C335 1.240 . S
O327 In325 2.326 . S
O327 C335 1.252 . S
C328 O331 1.252 . S
C328 O332 1.260 . S
C329 O336 1.240 . S
C329 O337 1.252 . S
C330 O333 1.252 . S
C330 O334 1.260 . S
O331 In325 2.266 . S
O331 C328 1.252 . S
O332 In325 2.326 . S
O332 C328 1.260 . S
O333 In325 2.266 . S
O333 C330 1.252 . S
O334 In325 2.326 . S
O334 C330 1.260 . S
C335 O326 1.240 . S
C335 O327 1.252 . S
O336 In325 2.294 . S
O336 C329 1.240 . S
O337 In325 2.326 . S
O337 C329 1.252 . S
In338 O339 2.294 . S
In338 O340 2.326 . S
In338 O344 2.266 . S
In338 O345 2.326 . S
In338 O346 2.266 . S
In338 O347 2.326 . S
In338 O349 2.294 . S
In338 O350 2.326 . S
O339 In338 2.294 . S
O339 C348 1.240 . S
O340 In338 2.326 . S
O340 C348 1.252 . S
C341 O344 1.252 . S
C341 O345 1.260 . S
C342 O349 1.240 . S
C342 O350 1.252 . S
C343 O346 1.252 . S
C343 O347 1.260 . S
O344 In338 2.266 . S
O344 C341 1.252 . S
O345 In338 2.326 . S
O345 C341 1.260 . S
O346 In338 2.266 . S
O346 C343 1.252 . S
O347 In338 2.326 . S
O347 C343 1.260 . S
C348 O339 1.240 . S
C348 O340 1.252 . S
O349 In338 2.294 . S
O349 C342 1.240 . S
O350 In338 2.326 . S
O350 C342 1.252 . S
In351 O352 2.295 . S
In351 O353 2.327 . S
In351 O357 2.266 . S
In351 O358 2.324 1_554 S
In351 O359 2.265 1_554 S
In351 O360 2.326 . S
In351 O362 2.293 1_554 S
In351 O363 2.326 1_554 S
O352 In351 2.295 . S
O352 C361 1.240 . S
O353 In351 2.327 . S
O353 C361 1.252 . S
C354 O357 1.252 1_556 S
C354 O358 1.260 . S
C355 O362 1.240 . S
C355 O363 1.252 . S
C356 O359 1.252 . S
C356 O360 1.260 1_556 S
O357 In351 2.266 . S
O357 C354 1.252 1_554 S
O358 In351 2.324 1_556 S
O358 C354 1.260 . S
O359 In351 2.265 1_556 S
O359 C356 1.252 . S
O360 In351 2.326 . S
O360 C356 1.260 1_554 S
C361 O352 1.240 . S
C361 O353 1.252 . S
O362 In351 2.293 1_556 S
O362 C355 1.240 . S
O363 In351 2.326 1_556 S
O363 C355 1.252 . S
In364 O365 2.295 1_556 S
In364 O366 2.326 . S
In364 O370 2.267 1_556 S
In364 O371 2.325 . S
In364 O372 2.265 . S
In364 O373 2.325 . S
In364 O375 2.293 . S
In364 O376 2.327 1_556 S
O365 In364 2.295 1_554 S
O365 C374 1.240 . S
O366 In364 2.326 . S
O366 C374 1.252 1_556 S
C367 O370 1.252 . S
C367 O371 1.260 1_554 S
C368 O375 1.275 . S
C368 O376 1.216 1_556 S
C369 O372 1.252 . S
C369 O373 1.260 . S
O370 In364 2.267 1_554 S
O370 C367 1.252 . S
O371 In364 2.325 . S
O371 C367 1.260 1_556 S
O372 In364 2.265 . S
O372 C369 1.252 . S
O373 In364 2.325 . S
O373 C369 1.260 . S
C374 O365 1.240 . S
C374 O366 1.252 1_554 S
O375 In364 2.293 . S
O375 C368 1.275 . S
O376 In364 2.327 1_554 S
O376 C368 1.216 1_554 S
In377 O378 2.294 . S
In377 O379 2.326 1_565 S
In377 O383 2.266 . S
In377 O384 2.326 . S
In377 O385 2.266 1_565 S
In377 O386 2.325 1_565 S
In377 O388 2.294 . S
In377 O389 2.327 . S
O378 In377 2.294 . S
O378 C387 1.237 1_565 S
O379 In377 2.326 1_545 S
O379 C387 1.252 . S
C380 O383 1.252 . S
C380 O384 1.260 . S
C381 O388 1.240 . S
C381 O389 1.252 . S
C382 O385 1.252 . S
C382 O386 1.260 . S
O383 In377 2.266 . S
O383 C380 1.252 . S
O384 In377 2.326 . S
O384 C380 1.260 . S
O385 In377 2.266 1_545 S
O385 C382 1.252 . S
O386 In377 2.325 1_545 S
O386 C382 1.260 . S
C387 O378 1.237 1_545 S
C387 O379 1.252 . S
O388 In377 2.294 . S
O388 C381 1.240 . S
O389 In377 2.327 . S
O389 C381 1.252 . S
In390 O391 2.294 . S
In390 O392 2.326 . S
In390 O396 2.266 . S
In390 O397 2.326 . S
In390 O398 2.266 . S
In390 O399 2.326 . S
In390 O401 2.294 . S
In390 O402 2.326 . S
O391 In390 2.294 . S
O391 C400 1.240 . S
O392 In390 2.326 . S
O392 C400 1.252 . S
C393 O396 1.252 . S
C393 O397 1.260 . S
C394 O401 1.240 . S
C394 O402 1.252 . S
C395 O398 1.252 . S
C395 O399 1.260 . S
O396 In390 2.266 . S
O396 C393 1.252 . S
O397 In390 2.326 . S
O397 C393 1.260 . S
O398 In390 2.266 . S
O398 C395 1.252 . S
O399 In390 2.326 . S
O399 C395 1.260 . S
C400 O391 1.240 . S
C400 O392 1.252 . S
O401 In390 2.294 . S
O401 C394 1.240 . S
O402 In390 2.326 . S
O402 C394 1.252 . S
In403 O404 2.294 . S
In403 O405 2.326 . S
In403 O409 2.266 . S
In403 O410 2.326 . S
In403 O411 2.266 . S
In403 O412 2.326 . S
In403 O414 2.294 . S
In403 O415 2.326 . S
O404 In403 2.294 . S
O404 C413 1.240 . S
O405 In403 2.326 . S
O405 C413 1.252 . S
C406 O409 1.252 . S
C406 O410 1.260 . S
C407 O414 1.240 . S
C407 O415 1.252 . S
C408 O411 1.252 . S
C408 O412 1.260 . S
O409 In403 2.266 . S
O409 C406 1.252 . S
O410 In403 2.326 . S
O410 C406 1.260 . S
O411 In403 2.266 . S
O411 C408 1.252 . S
O412 In403 2.326 . S
O412 C408 1.260 . S
C413 O404 1.240 . S
C413 O405 1.252 . S
O414 In403 2.294 . S
O414 C407 1.240 . S
O415 In403 2.326 . S
O415 C407 1.252 . S
In416 O417 2.294 . S
In416 O418 2.326 . S
In416 O422 2.266 . S
In416 O423 2.326 . S
In416 O424 2.266 . S
In416 O425 2.326 . S
In416 O427 2.294 . S
In416 O428 2.326 . S
O417 In416 2.294 . S
O417 C426 1.240 . S
O418 In416 2.326 . S
O418 C426 1.252 . S
C419 O422 1.252 . S
C419 O423 1.260 . S
C420 O427 1.240 . S
C420 O428 1.252 . S
C421 O424 1.252 . S
C421 O425 1.260 . S
O422 In416 2.266 . S
O422 C419 1.252 . S
O423 In416 2.326 . S
O423 C419 1.260 . S
O424 In416 2.266 . S
O424 C421 1.252 . S
O425 In416 2.326 . S
O425 C421 1.260 . S
C426 O417 1.240 . S
C426 O418 1.252 . S
O427 In416 2.294 . S
O427 C420 1.240 . S
O428 In416 2.326 . S
O428 C420 1.252 . S
In429 O430 2.309 . S
In429 O431 2.326 . S
In429 O435 2.266 . S
In429 O436 2.326 . S
In429 O437 2.266 . S
In429 O438 2.326 1_455 S
In429 O440 2.294 . S
In429 O441 2.326 . S
O430 In429 2.309 . S
O430 C439 1.244 . S
O431 In429 2.326 . S
O431 C439 1.252 . S
C432 O435 1.252 . S
C432 O436 1.260 . S
C433 O440 1.240 . S
C433 O441 1.252 . S
C434 O437 1.252 . S
C434 O438 1.260 1_455 S
O435 In429 2.266 . S
O435 C432 1.252 . S
O436 In429 2.326 . S
O436 C432 1.260 . S
O437 In429 2.266 . S
O437 C434 1.252 . S
O438 In429 2.326 1_655 S
O438 C434 1.260 1_655 S
C439 O430 1.244 . S
C439 O431 1.252 . S
O440 In429 2.294 . S
O440 C433 1.240 . S
O441 In429 2.326 . S
O441 C433 1.252 . S
In442 O443 2.294 . S
In442 O444 2.326 . S
In442 O448 2.266 . S
In442 O449 2.326 . S
In442 O450 2.266 . S
In442 O451 2.326 . S
In442 O453 2.294 . S
In442 O454 2.326 . S
O443 In442 2.294 . S
O443 C452 1.240 . S
O444 In442 2.326 . S
O444 C452 1.252 . S
C445 O448 1.252 . S
C445 O449 1.260 . S
C446 O453 1.240 . S
C446 O454 1.252 . S
C447 O450 1.252 . S
C447 O451 1.260 . S
O448 In442 2.266 . S
O448 C445 1.252 . S
O449 In442 2.326 . S
O449 C445 1.260 . S
O450 In442 2.266 . S
O450 C447 1.252 . S
O451 In442 2.326 . S
O451 C447 1.260 . S
C452 O443 1.240 . S
C452 O444 1.252 . S
O453 In442 2.294 . S
O453 C446 1.240 . S
O454 In442 2.326 . S
O454 C446 1.252 . S
In455 O456 2.294 . S
In455 O457 2.326 . S
In455 O461 2.266 . S
In455 O462 2.326 1_455 S
In455 O463 2.266 . S
In455 O464 2.326 . S
In455 O466 2.294 1_455 S
In455 O467 2.326 1_455 S
O456 In455 2.294 . S
O456 C465 1.240 . S
O457 In455 2.326 . S
O457 C465 1.252 . S
C458 O461 1.252 . S
C458 O462 1.260 1_455 S
C459 O466 1.240 . S
C459 O467 1.252 . S
C460 O463 1.252 . S
C460 O464 1.260 . S
O461 In455 2.266 . S
O461 C458 1.252 . S
O462 In455 2.326 1_655 S
O462 C458 1.260 1_655 S
O463 In455 2.266 . S
O463 C460 1.252 . S
O464 In455 2.326 . S
O464 C460 1.260 . S
C465 O456 1.240 . S
C465 O457 1.252 . S
O466 In455 2.294 1_655 S
O466 C459 1.240 . S
O467 In455 2.326 1_655 S
O467 C459 1.252 . S
In468 O469 2.294 . S
In468 O470 2.326 . S
In468 O474 2.266 . S
In468 O475 2.326 . S
In468 O476 2.266 . S
In468 O477 2.326 . S
In468 O479 2.294 . S
In468 O480 2.326 . S
O469 In468 2.294 . S
O469 C478 1.240 . S
O470 In468 2.326 . S
O470 C478 1.252 . S
C471 O474 1.252 . S
C471 O475 1.260 . S
C472 O479 1.240 . S
C472 O480 1.252 . S
C473 O476 1.252 . S
C473 O477 1.260 . S
O474 In468 2.266 . S
O474 C471 1.252 . S
O475 In468 2.326 . S
O475 C471 1.260 . S
O476 In468 2.266 . S
O476 C473 1.252 . S
O477 In468 2.326 . S
O477 C473 1.260 . S
C478 O469 1.240 . S
C478 O470 1.252 . S
O479 In468 2.294 . S
O479 C472 1.240 . S
O480 In468 2.326 . S
O480 C472 1.252 . S
In481 O482 2.294 . S
In481 O483 2.326 . S
In481 O487 2.266 . S
In481 O488 2.326 . S
In481 O489 2.266 . S
In481 O490 2.326 . S
In481 O492 2.294 . S
In481 O493 2.326 . S
O482 In481 2.294 . S
O482 C491 1.240 . S
O483 In481 2.326 . S
O483 C491 1.252 . S
C484 O487 1.252 . S
C484 O488 1.260 . S
C485 O492 1.240 . S
C485 O493 1.252 . S
C486 O489 1.252 . S
C486 O490 1.260 . S
O487 In481 2.266 . S
O487 C484 1.252 . S
O488 In481 2.326 . S
O488 C484 1.260 . S
O489 In481 2.266 . S
O489 C486 1.252 . S
O490 In481 2.326 . S
O490 C486 1.260 . S
C491 O482 1.240 . S
C491 O483 1.252 . S
O492 In481 2.294 . S
O492 C485 1.240 . S
O493 In481 2.326 . S
O493 C485 1.252 . S
In494 O495 2.294 . S
In494 O496 2.326 . S
In494 O500 2.266 . S
In494 O501 2.326 . S
In494 O502 2.266 . S
In494 O503 2.326 . S
In494 O505 2.294 . S
In494 O506 2.326 . S
O495 In494 2.294 . S
O495 C504 1.240 . S
O496 In494 2.326 . S
O496 C504 1.252 . S
C497 O500 1.252 . S
C497 O501 1.260 . S
C498 O505 1.240 . S
C498 O506 1.252 . S
C499 O502 1.252 . S
C499 O503 1.260 . S
O500 In494 2.266 . S
O500 C497 1.252 . S
O501 In494 2.326 . S
O501 C497 1.260 . S
O502 In494 2.266 . S
O502 C499 1.252 . S
O503 In494 2.326 . S
O503 C499 1.260 . S
C504 O495 1.240 . S
C504 O496 1.252 . S
O505 In494 2.294 . S
O505 C498 1.240 . S
O506 In494 2.326 . S
O506 C498 1.252 . S
In507 O508 2.294 . S
In507 O509 2.326 . S
In507 O513 2.266 . S
In507 O514 2.326 . S
In507 O515 2.266 . S
In507 O516 2.326 . S
In507 O518 2.294 . S
In507 O519 2.326 . S
O508 In507 2.294 . S
O508 C517 1.240 . S
O509 In507 2.326 . S
O509 C517 1.252 . S
C510 O513 1.252 . S
C510 O514 1.260 . S
C511 O518 1.240 . S
C511 O519 1.252 . S
C512 O515 1.252 . S
C512 O516 1.260 . S
O513 In507 2.266 . S
O513 C510 1.252 . S
O514 In507 2.326 . S
O514 C510 1.260 . S
O515 In507 2.266 . S
O515 C512 1.252 . S
O516 In507 2.326 . S
O516 C512 1.260 . S
C517 O508 1.240 . S
C517 O509 1.252 . S
O518 In507 2.294 . S
O518 C511 1.240 . S
O519 In507 2.326 . S
O519 C511 1.252 . S
In520 O521 2.295 . S
In520 O522 2.327 . S
In520 O526 2.266 1_545 S
In520 O527 2.325 1_545 S
In520 O528 2.266 1_545 S
In520 O529 2.326 . S
In520 O531 2.293 1_545 S
In520 O532 2.326 1_545 S
O521 In520 2.295 . S
O521 C530 1.240 . S
O522 In520 2.327 . S
O522 C530 1.252 . S
C523 O526 1.252 . S
C523 O527 1.260 . S
C524 O531 1.240 . S
C524 O532 1.252 . S
C525 O528 1.252 1_545 S
C525 O529 1.260 . S
O526 In520 2.266 1_565 S
O526 C523 1.252 . S
O527 In520 2.325 1_565 S
O527 C523 1.260 . S
O528 In520 2.266 1_565 S
O528 C525 1.252 1_565 S
O529 In520 2.326 . S
O529 C525 1.260 . S
C530 O521 1.240 . S
C530 O522 1.252 . S
O531 In520 2.293 1_565 S
O531 C524 1.240 . S
O532 In520 2.326 1_565 S
O532 C524 1.252 . S
In533 O534 2.295 . S
In533 O535 2.327 . S
In533 O539 2.267 . S
In533 O540 2.325 1_554 S
In533 O541 2.265 1_554 S
In533 O542 2.326 . S
In533 O544 2.293 1_554 S
In533 O545 2.326 . S
O534 In533 2.295 . S
O534 C543 1.240 . S
O535 In533 2.327 . S
O535 C543 1.252 . S
C536 O539 1.293 . S
C536 O540 1.217 1_554 S
C537 O544 1.240 . S
C537 O545 1.252 1_556 S
C538 O541 1.252 . S
C538 O542 1.260 1_556 S
O539 In533 2.267 . S
O539 C536 1.293 . S
O540 In533 2.325 1_556 S
O540 C536 1.217 1_556 S
O541 In533 2.265 1_556 S
O541 C538 1.252 . S
O542 In533 2.326 . S
O542 C538 1.260 1_554 S
C543 O534 1.240 . S
C543 O535 1.252 . S
O544 In533 2.293 1_556 S
O544 C537 1.240 . S
O545 In533 2.326 . S
O545 C537 1.252 1_554 S
In546 O547 2.294 1_655 S
In546 O548 2.326 . S
In546 O552 2.267 1_655 S
In546 O553 2.326 1_655 S
In546 O554 2.266 . S
In546 O555 2.325 . S
In546 O557 2.294 . S
In546 O558 2.327 1_655 S
O547 In546 2.294 1_455 S
O547 C556 1.240 . S
O548 In546 2.326 . S
O548 C556 1.252 1_655 S
C549 O552 1.252 . S
C549 O553 1.262 . S
C550 O557 1.240 . S
C550 O558 1.252 1_655 S
C551 O554 1.252 . S
C551 O555 1.260 . S
O552 In546 2.267 1_455 S
O552 C549 1.252 . S
O553 In546 2.326 1_455 S
O553 C549 1.262 . S
O554 In546 2.266 . S
O554 C551 1.252 . S
O555 In546 2.325 . S
O555 C551 1.260 . S
C556 O547 1.240 . S
C556 O548 1.252 1_455 S
O557 In546 2.294 . S
O557 C550 1.240 . S
O558 In546 2.327 1_455 S
O558 C550 1.252 1_455 S
In559 O560 2.273 1_655 S
In559 O561 2.326 . S
In559 O565 2.266 1_655 S
In559 O566 2.326 . S
In559 O567 2.266 . S
In559 O568 2.326 . S
In559 O570 2.294 . S
In559 O571 2.326 1_655 S
O560 In559 2.273 1_455 S
O560 C569 1.209 1_455 S
O561 In559 2.326 . S
O561 C569 1.252 . S
C562 O565 1.252 . S
C562 O566 1.260 1_455 S
C563 O570 1.240 1_455 S
C563 O571 1.252 . S
C564 O567 1.252 . S
C564 O568 1.260 . S
O565 In559 2.266 1_455 S
O565 C562 1.252 . S
O566 In559 2.326 . S
O566 C562 1.260 1_655 S
O567 In559 2.266 . S
O567 C564 1.252 . S
O568 In559 2.326 . S
O568 C564 1.260 . S
C569 O560 1.209 1_655 S
C569 O561 1.252 . S
O570 In559 2.294 . S
O570 C563 1.240 1_655 S
O571 In559 2.326 1_455 S
O571 C563 1.252 . S
In572 O573 2.294 . S
In572 O574 2.326 . S
In572 O578 2.266 . S
In572 O579 2.326 . S
In572 O580 2.266 . S
In572 O581 2.326 . S
In572 O583 2.294 . S
In572 O584 2.326 . S
O573 In572 2.294 . S
O573 C582 1.240 . S
O574 In572 2.326 . S
O574 C582 1.252 . S
C575 O578 1.252 . S
C575 O579 1.260 . S
C576 O583 1.240 . S
C576 O584 1.252 . S
C577 O580 1.252 . S
C577 O581 1.260 . S
O578 In572 2.266 . S
O578 C575 1.252 . S
O579 In572 2.326 . S
O579 C575 1.260 . S
O580 In572 2.266 . S
O580 C577 1.252 . S
O581 In572 2.326 . S
O581 C577 1.260 . S
C582 O573 1.240 . S
C582 O574 1.252 . S
O583 In572 2.294 . S
O583 C576 1.240 . S
O584 In572 2.326 . S
O584 C576 1.252 . S
In585 O586 2.294 . S
In585 O587 2.326 . S
In585 O591 2.266 . S
In585 O592 2.326 . S
In585 O593 2.266 . S
In585 O594 2.326 . S
In585 O596 2.294 . S
In585 O597 2.326 . S
O586 In585 2.294 . S
O586 C595 1.240 . S
O587 In585 2.326 . S
O587 C595 1.252 . S
C588 O591 1.252 . S
C588 O592 1.260 . S
C589 O596 1.240 . S
C589 O597 1.252 . S
C590 O593 1.252 . S
C590 O594 1.260 . S
O591 In585 2.266 . S
O591 C588 1.252 . S
O592 In585 2.326 . S
O592 C588 1.260 . S
O593 In585 2.266 . S
O593 C590 1.252 . S
O594 In585 2.326 . S
O594 C590 1.260 . S
C595 O586 1.240 . S
C595 O587 1.252 . S
O596 In585 2.294 . S
O596 C589 1.240 . S
O597 In585 2.326 . S
O597 C589 1.252 . S
In598 O599 2.294 . S
In598 O600 2.326 . S
In598 O604 2.266 . S
In598 O605 2.326 . S
In598 O606 2.266 . S
In598 O607 2.326 . S
In598 O609 2.294 . S
In598 O610 2.326 . S
O599 In598 2.294 . S
O599 C608 1.240 . S
O600 In598 2.326 . S
O600 C608 1.252 . S
C601 O604 1.252 . S
C601 O605 1.260 . S
C602 O609 1.240 . S
C602 O610 1.252 . S
C603 O606 1.252 . S
C603 O607 1.260 . S
O604 In598 2.266 . S
O604 C601 1.252 . S
O605 In598 2.326 . S
O605 C601 1.260 . S
O606 In598 2.266 . S
O606 C603 1.252 . S
O607 In598 2.326 . S
O607 C603 1.260 . S
C608 O599 1.240 . S
C608 O600 1.252 . S
O609 In598 2.294 . S
O609 C602 1.240 . S
O610 In598 2.326 . S
O610 C602 1.252 . S
In611 O612 2.294 . S
In611 O613 2.326 . S
In611 O617 2.266 . S
In611 O618 2.326 . S
In611 O619 2.266 . S
In611 O620 2.326 . S
In611 O622 2.294 . S
In611 O623 2.326 . S
O612 In611 2.294 . S
O612 C621 1.240 . S
O613 In611 2.326 . S
O613 C621 1.252 . S
C614 O617 1.252 . S
C614 O618 1.260 . S
C615 O622 1.240 . S
C615 O623 1.252 . S
C616 O619 1.252 . S
C616 O620 1.260 . S
O617 In611 2.266 . S
O617 C614 1.252 . S
O618 In611 2.326 . S
O618 C614 1.260 . S
O619 In611 2.266 . S
O619 C616 1.252 . S
O620 In611 2.326 . S
O620 C616 1.260 . S
C621 O612 1.240 . S
C621 O613 1.252 . S
O622 In611 2.294 . S
O622 C615 1.240 . S
O623 In611 2.326 . S
O623 C615 1.252 . S
C624 C625 1.349 . S
C624 C626 1.327 . S
C624 H649 0.950 . S
C625 C624 1.349 . S
C625 C641 1.349 . S
C626 C624 1.327 . S
C626 C645 1.429 . S
C626 H650 0.950 . S
C627 C644 1.574 . S
C627 C646 1.368 . S
C627 H651 0.949 . S
H628 C632 0.949 . S
C629 C630 1.349 . S
C629 C631 1.327 . S
C629 H652 0.950 . S
C630 C629 1.349 . S
C630 C642 1.349 . S
C631 C629 1.327 . S
C631 C647 1.429 . S
C631 H653 0.950 . S
C632 H628 0.949 . S
C632 C640 1.574 . S
C632 C648 1.368 . S
H633 C641 0.950 . S
H634 C639 0.950 . S
H635 C640 0.949 . S
H636 C642 0.950 . S
H637 C643 0.950 . S
H638 C644 0.949 . S
C639 H634 0.950 . S
C639 C641 1.327 . S
C639 C645 1.429 . S
C640 C632 1.574 . S
C640 H635 0.949 . S
C640 C646 1.368 . S
C641 C625 1.349 . S
C641 H633 0.950 . S
C641 C639 1.327 . S
C642 C630 1.349 . S
C642 H636 0.950 . S
C642 C643 1.327 . S
C643 H637 0.950 . S
C643 C642 1.327 . S
C643 C647 1.429 . S
C644 C627 1.574 . S
C644 H638 0.949 . S
C644 C648 1.368 . S
C645 C626 1.429 . S
C645 C639 1.429 . S
C645 C646 1.523 . S
C646 C627 1.368 . S
C646 C640 1.368 . S
C646 C645 1.523 . S
C647 C631 1.429 . S
C647 C643 1.429 . S
C647 C648 1.523 . S
C648 C632 1.368 . S
C648 C644 1.368 . S
C648 C647 1.523 . S
H649 C624 0.950 . S
H650 C626 0.950 . S
H651 C627 0.949 . S
H652 C629 0.950 . S
H653 C631 0.950 . S
C654 C655 1.349 . S
C654 C656 1.327 . S
C654 H679 0.950 . S
C655 C654 1.349 . S
C655 C671 1.349 . S
C656 C654 1.327 . S
C656 C675 1.429 . S
C656 H680 0.950 . S
C657 C674 1.574 . S
C657 C676 1.368 . S
C657 H681 0.949 . S
H658 C662 0.949 . S
C659 C660 1.349 . S
C659 C661 1.327 . S
C659 H682 0.950 . S
C660 C659 1.349 . S
C660 C672 1.349 . S
C661 C659 1.327 . S
C661 C677 1.429 . S
C661 H683 0.950 . S
C662 H658 0.949 . S
C662 C670 1.574 . S
C662 C678 1.368 . S
H663 C671 0.950 . S
H664 C669 0.950 . S
H665 C670 0.949 . S
H666 C672 0.950 . S
H667 C673 0.950 . S
H668 C674 0.949 . S
C669 H664 0.950 . S
C669 C671 1.327 . S
C669 C675 1.429 . S
C670 C662 1.574 . S
C670 H665 0.949 . S
C670 C676 1.368 . S
C671 C655 1.349 . S
C671 H663 0.950 . S
C671 C669 1.327 . S
C672 C660 1.349 . S
C672 H666 0.950 . S
C672 C673 1.327 . S
C673 H667 0.950 . S
C673 C672 1.327 . S
C673 C677 1.429 . S
C674 C657 1.574 . S
C674 H668 0.949 . S
C674 C678 1.368 . S
C675 C656 1.429 . S
C675 C669 1.429 . S
C675 C676 1.523 . S
C676 C657 1.368 . S
C676 C670 1.368 . S
C676 C675 1.523 . S
C677 C661 1.429 . S
C677 C673 1.429 . S
C677 C678 1.523 . S
C678 C662 1.368 . S
C678 C674 1.368 . S
C678 C677 1.523 . S
H679 C654 0.950 . S
H680 C656 0.950 . S
H681 C657 0.949 . S
H682 C659 0.950 . S
H683 C661 0.950 . S
C684 C685 1.349 . S
C684 C686 1.327 . S
C684 H709 0.950 . S
C685 C684 1.349 . S
C685 C701 1.349 . S
C686 C684 1.327 . S
C686 C705 1.429 . S
C686 H710 0.950 . S
C687 C704 1.574 . S
C687 C706 1.368 . S
C687 H711 0.949 . S
H688 C692 0.949 . S
C689 C690 1.349 . S
C689 C691 1.327 . S
C689 H712 0.950 . S
C690 C689 1.349 . S
C690 C702 1.349 . S
C691 C689 1.327 . S
C691 C707 1.429 . S
C691 H713 0.950 . S
C692 H688 0.949 . S
C692 C700 1.574 . S
C692 C708 1.368 . S
H693 C701 0.950 . S
H694 C699 0.950 . S
H695 C700 0.949 . S
H696 C702 0.950 . S
H697 C703 0.950 . S
H698 C704 0.949 . S
C699 H694 0.950 . S
C699 C701 1.327 . S
C699 C705 1.429 . S
C700 C692 1.574 . S
C700 H695 0.949 . S
C700 C706 1.368 . S
C701 C685 1.349 . S
C701 H693 0.950 . S
C701 C699 1.327 . S
C702 C690 1.349 . S
C702 H696 0.950 . S
C702 C703 1.327 . S
C703 H697 0.950 . S
C703 C702 1.327 . S
C703 C707 1.429 . S
C704 C687 1.574 . S
C704 H698 0.949 . S
C704 C708 1.368 . S
C705 C686 1.429 . S
C705 C699 1.429 . S
C705 C706 1.523 . S
C706 C687 1.368 . S
C706 C700 1.368 . S
C706 C705 1.523 . S
C707 C691 1.429 . S
C707 C703 1.429 . S
C707 C708 1.523 . S
C708 C692 1.368 . S
C708 C704 1.368 . S
C708 C707 1.523 . S
H709 C684 0.950 . S
H710 C686 0.950 . S
H711 C687 0.949 . S
H712 C689 0.950 . S
H713 C691 0.950 . S
C714 C715 1.349 1_565 S
C714 C716 1.327 1_565 S
C714 H739 0.950 . S
C715 C714 1.349 1_545 S
C715 C731 1.349 . S
C716 C714 1.327 1_545 S
C716 C735 1.429 . S
C716 H740 0.950 1_545 S
C717 C734 1.574 . S
C717 C736 1.368 . S
C717 H741 0.949 . S
H718 C722 0.949 . S
C719 C720 1.349 . S
C719 C721 1.327 . S
C719 H742 0.950 . S
C720 C719 1.349 . S
C720 C732 1.349 . S
C721 C719 1.327 . S
C721 C737 1.429 . S
C721 H743 0.950 . S
C722 H718 0.949 . S
C722 C730 1.574 . S
C722 C738 1.368 . S
H723 C731 0.950 . S
H724 C729 0.950 . S
H725 C730 0.949 . S
H726 C732 0.950 . S
H727 C733 0.950 . S
H728 C734 0.949 . S
C729 H724 0.950 . S
C729 C731 1.327 . S
C729 C735 1.429 . S
C730 C722 1.574 . S
C730 H725 0.949 . S
C730 C736 1.368 . S
C731 C715 1.349 . S
C731 H723 0.950 . S
C731 C729 1.327 . S
C732 C720 1.349 . S
C732 H726 0.950 . S
C732 C733 1.327 . S
C733 H727 0.950 . S
C733 C732 1.327 . S
C733 C737 1.429 . S
C734 C717 1.574 . S
C734 H728 0.949 . S
C734 C738 1.368 . S
C735 C716 1.429 . S
C735 C729 1.429 . S
C735 C736 1.523 . S
C736 C717 1.368 . S
C736 C730 1.368 . S
C736 C735 1.523 . S
C737 C721 1.429 . S
C737 C733 1.429 . S
C737 C738 1.523 . S
C738 C722 1.368 . S
C738 C734 1.368 . S
C738 C737 1.523 . S
H739 C714 0.950 . S
H740 C716 0.950 1_565 S
H741 C717 0.949 . S
H742 C719 0.950 . S
H743 C721 0.950 . S
C744 C745 1.349 . S
C744 C746 1.327 . S
C744 H769 0.950 . S
C745 C744 1.349 . S
C745 C761 1.349 . S
C746 C744 1.327 . S
C746 C765 1.429 . S
C746 H770 0.950 . S
C747 C764 1.574 . S
C747 C766 1.368 . S
C747 H771 0.949 . S
H748 C752 0.949 . S
C749 C750 1.349 . S
C749 C751 1.327 . S
C749 H772 0.950 . S
C750 C749 1.349 . S
C750 C762 1.349 . S
C751 C749 1.327 . S
C751 C767 1.429 . S
C751 H773 0.950 . S
C752 H748 0.949 . S
C752 C760 1.574 . S
C752 C768 1.368 . S
H753 C761 0.950 . S
H754 C759 0.950 . S
H755 C760 0.949 . S
H756 C762 0.950 . S
H757 C763 0.950 . S
H758 C764 0.949 . S
C759 H754 0.950 . S
C759 C761 1.327 . S
C759 C765 1.429 . S
C760 C752 1.574 . S
C760 H755 0.949 . S
C760 C766 1.368 . S
C761 C745 1.349 . S
C761 H753 0.950 . S
C761 C759 1.327 . S
C762 C750 1.349 . S
C762 H756 0.950 . S
C762 C763 1.327 . S
C763 H757 0.950 . S
C763 C762 1.327 . S
C763 C767 1.429 . S
C764 C747 1.574 . S
C764 H758 0.949 . S
C764 C768 1.368 . S
C765 C746 1.429 . S
C765 C759 1.429 . S
C765 C766 1.523 . S
C766 C747 1.368 . S
C766 C760 1.368 . S
C766 C765 1.523 . S
C767 C751 1.429 . S
C767 C763 1.429 . S
C767 C768 1.523 . S
C768 C752 1.368 . S
C768 C764 1.368 . S
C768 C767 1.523 . S
H769 C744 0.950 . S
H770 C746 0.950 . S
H771 C747 0.949 . S
H772 C749 0.950 . S
H773 C751 0.950 . S
C774 C775 1.349 . S
C774 C776 1.327 . S
C774 H799 0.950 . S
C775 C774 1.349 . S
C775 C791 1.349 . S
C776 C774 1.327 . S
C776 C795 1.429 . S
C776 H800 0.950 . S
C777 C794 1.574 . S
C777 C796 1.368 . S
C777 H801 0.949 . S
H778 C782 0.949 . S
C779 C780 1.349 . S
C779 C781 1.327 . S
C779 H802 0.950 . S
C780 C779 1.349 . S
C780 C792 1.349 . S
C781 C779 1.327 . S
C781 C797 1.429 . S
C781 H803 0.950 . S
C782 H778 0.949 . S
C782 C790 1.574 . S
C782 C798 1.368 . S
H783 C791 0.950 . S
H784 C789 0.950 . S
H785 C790 0.949 . S
H786 C792 0.950 . S
H787 C793 0.950 . S
H788 C794 0.949 . S
C789 H784 0.950 . S
C789 C791 1.327 . S
C789 C795 1.429 . S
C790 C782 1.574 . S
C790 H785 0.949 . S
C790 C796 1.368 . S
C791 C775 1.349 . S
C791 H783 0.950 . S
C791 C789 1.327 . S
C792 C780 1.349 . S
C792 H786 0.950 . S
C792 C793 1.327 . S
C793 H787 0.950 . S
C793 C792 1.327 . S
C793 C797 1.429 . S
C794 C777 1.574 . S
C794 H788 0.949 . S
C794 C798 1.368 . S
C795 C776 1.429 . S
C795 C789 1.429 . S
C795 C796 1.523 . S
C796 C777 1.368 . S
C796 C790 1.368 . S
C796 C795 1.523 . S
C797 C781 1.429 . S
C797 C793 1.429 . S
C797 C798 1.523 . S
C798 C782 1.368 . S
C798 C794 1.368 . S
C798 C797 1.523 . S
H799 C774 0.950 . S
H800 C776 0.950 . S
H801 C777 0.949 . S
H802 C779 0.950 . S
H803 C781 0.950 . S
C804 C805 1.349 . S
C804 C806 1.327 . S
C804 H829 0.950 . S
C805 C804 1.349 . S
C805 C821 1.349 . S
C806 C804 1.327 . S
C806 C825 1.429 . S
C806 H830 0.950 . S
C807 C824 1.574 . S
C807 C826 1.368 . S
C807 H831 0.949 . S
H808 C812 0.949 . S
C809 C810 1.349 . S
C809 C811 1.327 . S
C809 H832 0.950 1_545 S
C810 C809 1.349 . S
C810 C822 1.349 . S
C811 C809 1.327 . S
C811 C827 1.429 . S
C811 H833 0.950 . S
C812 H808 0.949 . S
C812 C820 1.574 . S
C812 C828 1.368 . S
H813 C821 0.950 . S
H814 C819 0.950 . S
H815 C820 0.949 . S
H816 C822 0.950 . S
H817 C823 0.950 . S
H818 C824 0.949 . S
C819 H814 0.950 . S
C819 C821 1.327 . S
C819 C825 1.429 . S
C820 C812 1.574 . S
C820 H815 0.949 . S
C820 C826 1.368 . S
C821 C805 1.349 . S
C821 H813 0.950 . S
C821 C819 1.327 . S
C822 C810 1.349 . S
C822 H816 0.950 . S
C822 C823 1.327 . S
C823 H817 0.950 . S
C823 C822 1.327 . S
C823 C827 1.429 . S
C824 C807 1.574 . S
C824 H818 0.949 . S
C824 C828 1.368 . S
C825 C806 1.429 . S
C825 C819 1.429 . S
C825 C826 1.523 . S
C826 C807 1.368 . S
C826 C820 1.368 . S
C826 C825 1.523 . S
C827 C811 1.429 . S
C827 C823 1.429 . S
C827 C828 1.523 . S
C828 C812 1.368 . S
C828 C824 1.368 . S
C828 C827 1.523 . S
H829 C804 0.950 . S
H830 C806 0.950 . S
H831 C807 0.949 . S
H832 C809 0.950 1_565 S
H833 C811 0.950 . S
C834 C835 1.349 . S
C834 C836 1.327 . S
C834 H859 0.950 . S
C835 C834 1.349 . S
C835 C851 1.349 . S
C836 C834 1.327 . S
C836 C855 1.429 . S
C836 H860 0.950 . S
C837 C854 1.574 . S
C837 C856 1.368 . S
C837 H861 0.949 . S
H838 C842 0.949 . S
C839 C840 1.349 . S
C839 C841 1.327 . S
C839 H862 0.950 . S
C840 C839 1.349 . S
C840 C852 1.349 . S
C841 C839 1.327 . S
C841 C857 1.429 . S
C841 H863 0.950 . S
C842 H838 0.949 . S
C842 C850 1.574 . S
C842 C858 1.368 . S
H843 C851 0.950 . S
H844 C849 0.950 . S
H845 C850 0.949 . S
H846 C852 0.950 . S
H847 C853 0.950 . S
H848 C854 0.949 . S
C849 H844 0.950 . S
C849 C851 1.327 . S
C849 C855 1.429 . S
C850 C842 1.574 . S
C850 H845 0.949 . S
C850 C856 1.368 . S
C851 C835 1.349 . S
C851 H843 0.950 . S
C851 C849 1.327 . S
C852 C840 1.349 . S
C852 H846 0.950 . S
C852 C853 1.327 . S
C853 H847 0.950 . S
C853 C852 1.327 . S
C853 C857 1.429 . S
C854 C837 1.574 . S
C854 H848 0.949 . S
C854 C858 1.368 . S
C855 C836 1.429 . S
C855 C849 1.429 . S
C855 C856 1.523 . S
C856 C837 1.368 . S
C856 C850 1.368 . S
C856 C855 1.523 . S
C857 C841 1.429 . S
C857 C853 1.429 . S
C857 C858 1.523 . S
C858 C842 1.368 . S
C858 C854 1.368 . S
C858 C857 1.523 . S
H859 C834 0.950 . S
H860 C836 0.950 . S
H861 C837 0.949 . S
H862 C839 0.950 . S
H863 C841 0.950 . S
C864 C865 1.349 . S
C864 C866 1.327 . S
C864 H889 0.950 . S
C865 C864 1.349 . S
C865 C881 1.349 . S
C866 C864 1.327 . S
C866 C885 1.429 . S
C866 H890 0.950 . S
C867 C884 1.574 . S
C867 C886 1.368 . S
C867 H891 0.949 . S
H868 C872 0.949 . S
C869 C870 1.349 . S
C869 C871 1.327 . S
C869 H892 0.950 . S
C870 C869 1.349 . S
C870 C882 1.349 . S
C871 C869 1.327 . S
C871 C887 1.429 . S
C871 H893 0.950 . S
C872 H868 0.949 . S
C872 C880 1.574 . S
C872 C888 1.368 . S
H873 C881 0.950 . S
H874 C879 0.950 . S
H875 C880 0.949 . S
H876 C882 0.950 . S
H877 C883 0.950 . S
H878 C884 0.949 . S
C879 H874 0.950 . S
C879 C881 1.327 . S
C879 C885 1.429 . S
C880 C872 1.574 . S
C880 H875 0.949 . S
C880 C886 1.368 . S
C881 C865 1.349 . S
C881 H873 0.950 . S
C881 C879 1.327 . S
C882 C870 1.349 . S
C882 H876 0.950 . S
C882 C883 1.327 . S
C883 H877 0.950 . S
C883 C882 1.327 . S
C883 C887 1.429 . S
C884 C867 1.574 . S
C884 H878 0.949 . S
C884 C888 1.368 . S
C885 C866 1.429 . S
C885 C879 1.429 . S
C885 C886 1.523 . S
C886 C867 1.368 . S
C886 C880 1.368 . S
C886 C885 1.523 . S
C887 C871 1.429 . S
C887 C883 1.429 . S
C887 C888 1.523 . S
C888 C872 1.368 . S
C888 C884 1.368 . S
C888 C887 1.523 . S
H889 C864 0.950 . S
H890 C866 0.950 . S
H891 C867 0.949 . S
H892 C869 0.950 . S
H893 C871 0.950 . S
C894 C895 1.349 . S
C894 C896 1.327 . S
C894 H919 0.950 . S
C895 C894 1.349 . S
C895 C911 1.349 . S
C896 C894 1.327 . S
C896 C915 1.429 . S
C896 H920 0.950 . S
C897 C914 1.574 . S
C897 C916 1.368 . S
C897 H921 0.949 . S
H898 C902 0.949 . S
C899 C900 1.349 . S
C899 C901 1.327 . S
C899 H922 0.950 . S
C900 C899 1.349 . S
C900 C912 1.349 . S
C901 C899 1.327 . S
C901 C917 1.429 . S
C901 H923 0.950 . S
C902 H898 0.949 . S
C902 C910 1.574 . S
C902 C918 1.368 . S
H903 C911 0.950 . S
H904 C909 0.950 . S
H905 C910 0.949 . S
H906 C912 0.950 . S
H907 C913 0.950 . S
H908 C914 0.949 . S
C909 H904 0.950 . S
C909 C911 1.327 . S
C909 C915 1.429 . S
C910 C902 1.574 . S
C910 H905 0.949 . S
C910 C916 1.368 . S
C911 C895 1.349 . S
C911 H903 0.950 . S
C911 C909 1.327 . S
C912 C900 1.349 . S
C912 H906 0.950 . S
C912 C913 1.327 . S
C913 H907 0.950 . S
C913 C912 1.327 . S
C913 C917 1.429 . S
C914 C897 1.574 . S
C914 H908 0.949 . S
C914 C918 1.368 . S
C915 C896 1.429 . S
C915 C909 1.429 . S
C915 C916 1.523 . S
C916 C897 1.368 . S
C916 C910 1.368 . S
C916 C915 1.523 . S
C917 C901 1.429 . S
C917 C913 1.429 . S
C917 C918 1.523 . S
C918 C902 1.368 . S
C918 C914 1.368 . S
C918 C917 1.523 . S
H919 C894 0.950 . S
H920 C896 0.950 . S
H921 C897 0.949 . S
H922 C899 0.950 . S
H923 C901 0.950 . S
C924 C925 1.349 . S
C924 C926 1.327 . S
C924 H949 0.950 . S
C925 C924 1.349 . S
C925 C941 1.349 . S
C926 C924 1.327 . S
C926 C945 1.429 . S
C926 H950 0.950 . S
C927 C944 1.574 . S
C927 C946 1.368 . S
C927 H951 0.949 . S
H928 C932 0.949 . S
C929 C930 1.349 . S
C929 C931 1.327 . S
C929 H952 0.950 . S
C930 C929 1.349 . S
C930 C942 1.349 . S
C931 C929 1.327 . S
C931 C947 1.429 . S
C931 H953 0.950 . S
C932 H928 0.949 . S
C932 C940 1.574 . S
C932 C948 1.368 . S
H933 C941 0.950 . S
H934 C939 0.950 . S
H935 C940 0.949 . S
H936 C942 0.950 . S
H937 C943 0.950 . S
H938 C944 0.949 . S
C939 H934 0.950 . S
C939 C941 1.327 . S
C939 C945 1.429 . S
C940 C932 1.574 . S
C940 H935 0.949 . S
C940 C946 1.368 . S
C941 C925 1.349 . S
C941 H933 0.950 . S
C941 C939 1.327 . S
C942 C930 1.349 . S
C942 H936 0.950 . S
C942 C943 1.327 . S
C943 H937 0.950 . S
C943 C942 1.327 . S
C943 C947 1.429 . S
C944 C927 1.574 . S
C944 H938 0.949 . S
C944 C948 1.368 . S
C945 C926 1.429 . S
C945 C939 1.429 . S
C945 C946 1.523 . S
C946 C927 1.368 . S
C946 C940 1.368 . S
C946 C945 1.523 . S
C947 C931 1.429 . S
C947 C943 1.429 . S
C947 C948 1.523 . S
C948 C932 1.368 . S
C948 C944 1.368 . S
C948 C947 1.523 . S
H949 C924 0.950 . S
H950 C926 0.950 . S
H951 C927 0.949 . S
H952 C929 0.950 . S
H953 C931 0.950 . S
C954 C955 1.349 . S
C954 C956 1.327 . S
C954 H979 0.950 . S
C955 C954 1.349 . S
C955 C971 1.349 . S
C956 C954 1.327 . S
C956 C975 1.429 . S
C956 H980 0.950 . S
C957 C974 1.574 . S
C957 C976 1.368 . S
C957 H981 0.949 . S
H958 C962 0.949 . S
C959 C960 1.349 . S
C959 C961 1.327 . S
C959 H982 0.950 . S
C960 C959 1.349 . S
C960 C972 1.349 . S
C961 C959 1.327 . S
C961 C977 1.429 . S
C961 H983 0.950 . S
C962 H958 0.949 . S
C962 C970 1.574 . S
C962 C978 1.368 . S
H963 C971 0.950 . S
H964 C969 0.950 . S
H965 C970 0.949 . S
H966 C972 0.950 . S
H967 C973 0.950 . S
H968 C974 0.949 . S
C969 H964 0.950 . S
C969 C971 1.327 . S
C969 C975 1.429 . S
C970 C962 1.574 . S
C970 H965 0.949 . S
C970 C976 1.368 . S
C971 C955 1.349 . S
C971 H963 0.950 . S
C971 C969 1.327 . S
C972 C960 1.349 . S
C972 H966 0.950 . S
C972 C973 1.327 . S
C973 H967 0.950 . S
C973 C972 1.327 . S
C973 C977 1.429 . S
C974 C957 1.574 . S
C974 H968 0.949 . S
C974 C978 1.368 . S
C975 C956 1.429 . S
C975 C969 1.429 . S
C975 C976 1.523 . S
C976 C957 1.368 . S
C976 C970 1.368 . S
C976 C975 1.523 . S
C977 C961 1.429 . S
C977 C973 1.429 . S
C977 C978 1.523 . S
C978 C962 1.368 . S
C978 C974 1.368 . S
C978 C977 1.523 . S
H979 C954 0.950 . S
H980 C956 0.950 . S
H981 C957 0.949 . S
H982 C959 0.950 . S
H983 C961 0.950 . S
C984 C985 1.349 . S
C984 C986 1.327 . S
C984 H1009 0.950 . S
C985 C984 1.349 . S
C985 C1001 1.349 . S
C986 C984 1.327 . S
C986 C1005 1.429 . S
C986 H1010 0.950 . S
C987 C1004 1.574 . S
C987 C1006 1.368 . S
C987 H1011 0.949 . S
H988 C992 0.949 . S
C989 C990 1.349 . S
C989 C991 1.327 . S
C989 H1012 0.950 . S
C990 C989 1.349 . S
C990 C1002 1.349 . S
C991 C989 1.327 . S
C991 C1007 1.429 . S
C991 H1013 0.950 . S
C992 H988 0.949 . S
C992 C1000 1.574 . S
C992 C1008 1.368 . S
H993 C1001 0.950 . S
H994 C999 0.950 . S
H995 C1000 0.949 . S
H996 C1002 0.950 . S
H997 C1003 0.950 . S
H998 C1004 0.949 . S
C999 H994 0.950 . S
C999 C1001 1.327 . S
C999 C1005 1.429 . S
C1000 C992 1.574 . S
C1000 H995 0.949 . S
C1000 C1006 1.368 . S
C1001 C985 1.349 . S
C1001 H993 0.950 . S
C1001 C999 1.327 . S
C1002 C990 1.349 . S
C1002 H996 0.950 . S
C1002 C1003 1.327 . S
C1003 H997 0.950 . S
C1003 C1002 1.327 . S
C1003 C1007 1.429 . S
C1004 C987 1.574 . S
C1004 H998 0.949 . S
C1004 C1008 1.368 . S
C1005 C986 1.429 . S
C1005 C999 1.429 . S
C1005 C1006 1.523 . S
C1006 C987 1.368 . S
C1006 C1000 1.368 . S
C1006 C1005 1.523 . S
C1007 C991 1.429 . S
C1007 C1003 1.429 . S
C1007 C1008 1.523 . S
C1008 C992 1.368 . S
C1008 C1004 1.368 . S
C1008 C1007 1.523 . S
H1009 C984 0.950 . S
H1010 C986 0.950 . S
H1011 C987 0.949 . S
H1012 C989 0.950 . S
H1013 C991 0.950 . S
C1014 C1015 1.349 . S
C1014 C1016 1.327 . S
C1014 H1039 0.950 . S
C1015 C1014 1.349 . S
C1015 C1031 1.349 . S
C1016 C1014 1.327 . S
C1016 C1035 1.429 . S
C1016 H1040 0.950 . S
C1017 C1034 1.574 . S
C1017 C1036 1.368 . S
C1017 H1041 0.949 . S
H1018 C1022 0.949 . S
C1019 C1020 1.349 . S
C1019 C1021 1.327 . S
C1019 H1042 0.950 . S
C1020 C1019 1.349 . S
C1020 C1032 1.349 . S
C1021 C1019 1.327 . S
C1021 C1037 1.429 . S
C1021 H1043 0.950 . S
C1022 H1018 0.949 . S
C1022 C1030 1.574 . S
C1022 C1038 1.368 . S
H1023 C1031 0.950 . S
H1024 C1029 0.950 . S
H1025 C1030 0.949 . S
H1026 C1032 0.950 . S
H1027 C1033 0.950 . S
H1028 C1034 0.949 . S
C1029 H1024 0.950 . S
C1029 C1031 1.327 . S
C1029 C1035 1.429 . S
C1030 C1022 1.574 . S
C1030 H1025 0.949 . S
C1030 C1036 1.368 . S
C1031 C1015 1.349 . S
C1031 H1023 0.950 . S
C1031 C1029 1.327 . S
C1032 C1020 1.349 . S
C1032 H1026 0.950 . S
C1032 C1033 1.327 . S
C1033 H1027 0.950 . S
C1033 C1032 1.327 . S
C1033 C1037 1.429 . S
C1034 C1017 1.574 . S
C1034 H1028 0.949 . S
C1034 C1038 1.368 . S
C1035 C1016 1.429 . S
C1035 C1029 1.429 . S
C1035 C1036 1.523 . S
C1036 C1017 1.368 . S
C1036 C1030 1.368 . S
C1036 C1035 1.523 . S
C1037 C1021 1.429 . S
C1037 C1033 1.429 . S
C1037 C1038 1.523 . S
C1038 C1022 1.368 . S
C1038 C1034 1.368 . S
C1038 C1037 1.523 . S
H1039 C1014 0.950 . S
H1040 C1016 0.950 . S
H1041 C1017 0.949 . S
H1042 C1019 0.950 . S
H1043 C1021 0.950 . S
C1044 C1045 1.349 . S
C1044 C1046 1.327 . S
C1044 H1069 0.950 . S
C1045 C1044 1.349 . S
C1045 C1061 1.349 . S
C1046 C1044 1.327 . S
C1046 C1065 1.429 . S
C1046 H1070 0.950 . S
C1047 C1064 1.574 . S
C1047 C1066 1.368 . S
C1047 H1071 0.949 . S
H1048 C1052 0.949 . S
C1049 C1050 1.349 . S
C1049 C1051 1.327 . S
C1049 H1072 0.950 . S
C1050 C1049 1.349 . S
C1050 C1062 1.349 . S
C1051 C1049 1.327 . S
C1051 C1067 1.429 . S
C1051 H1073 0.950 . S
C1052 H1048 0.949 . S
C1052 C1060 1.574 . S
C1052 C1068 1.368 . S
H1053 C1061 0.950 . S
H1054 C1059 0.950 . S
H1055 C1060 0.949 . S
H1056 C1062 0.950 . S
H1057 C1063 0.950 . S
H1058 C1064 0.949 . S
C1059 H1054 0.950 . S
C1059 C1061 1.327 . S
C1059 C1065 1.429 . S
C1060 C1052 1.574 . S
C1060 H1055 0.949 . S
C1060 C1066 1.368 . S
C1061 C1045 1.349 . S
C1061 H1053 0.950 . S
C1061 C1059 1.327 . S
C1062 C1050 1.349 . S
C1062 H1056 0.950 . S
C1062 C1063 1.327 . S
C1063 H1057 0.950 . S
C1063 C1062 1.327 . S
C1063 C1067 1.429 . S
C1064 C1047 1.574 . S
C1064 H1058 0.949 . S
C1064 C1068 1.368 . S
C1065 C1046 1.429 . S
C1065 C1059 1.429 . S
C1065 C1066 1.523 . S
C1066 C1047 1.368 . S
C1066 C1060 1.368 . S
C1066 C1065 1.523 . S
C1067 C1051 1.429 . S
C1067 C1063 1.429 . S
C1067 C1068 1.523 . S
C1068 C1052 1.368 . S
C1068 C1064 1.368 . S
C1068 C1067 1.523 . S
H1069 C1044 0.950 . S
H1070 C1046 0.950 . S
H1071 C1047 0.949 . S
H1072 C1049 0.950 . S
H1073 C1051 0.950 . S
C1074 C1075 1.349 . S
C1074 C1076 1.327 . S
C1074 H1099 0.950 . S
C1075 C1074 1.349 . S
C1075 C1091 1.349 . S
C1076 C1074 1.327 . S
C1076 C1095 1.429 . S
C1076 H1100 0.950 . S
C1077 C1094 1.574 . S
C1077 C1096 1.368 . S
C1077 H1101 0.949 . S
H1078 C1082 0.949 . S
C1079 C1080 1.349 . S
C1079 C1081 1.327 . S
C1079 H1102 0.950 . S
C1080 C1079 1.349 . S
C1080 C1092 1.349 . S
C1081 C1079 1.327 . S
C1081 C1097 1.429 . S
C1081 H1103 0.950 . S
C1082 H1078 0.949 . S
C1082 C1090 1.574 . S
C1082 C1098 1.368 . S
H1083 C1091 0.950 . S
H1084 C1089 0.950 . S
H1085 C1090 0.949 . S
H1086 C1092 0.950 . S
H1087 C1093 0.950 . S
H1088 C1094 0.949 . S
C1089 H1084 0.950 . S
C1089 C1091 1.327 . S
C1089 C1095 1.429 . S
C1090 C1082 1.574 . S
C1090 H1085 0.949 . S
C1090 C1096 1.368 . S
C1091 C1075 1.349 . S
C1091 H1083 0.950 . S
C1091 C1089 1.327 . S
C1092 C1080 1.349 . S
C1092 H1086 0.950 . S
C1092 C1093 1.327 . S
C1093 H1087 0.950 . S
C1093 C1092 1.327 . S
C1093 C1097 1.429 . S
C1094 C1077 1.574 . S
C1094 H1088 0.949 . S
C1094 C1098 1.368 . S
C1095 C1076 1.429 . S
C1095 C1089 1.429 . S
C1095 C1096 1.523 . S
C1096 C1077 1.368 . S
C1096 C1090 1.368 . S
C1096 C1095 1.523 . S
C1097 C1081 1.429 . S
C1097 C1093 1.429 . S
C1097 C1098 1.523 . S
C1098 C1082 1.368 . S
C1098 C1094 1.368 . S
C1098 C1097 1.523 . S
H1099 C1074 0.950 . S
H1100 C1076 0.950 . S
H1101 C1077 0.949 . S
H1102 C1079 0.950 . S
H1103 C1081 0.950 . S
C1104 C1105 1.349 . S
C1104 C1106 1.327 . S
C1104 H1129 0.950 . S
C1105 C1104 1.349 . S
C1105 C1121 1.349 1_655 S
C1106 C1104 1.327 . S
C1106 C1125 1.429 1_655 S
C1106 H1130 0.950 . S
C1107 C1124 1.574 . S
C1107 C1126 1.368 . S
C1107 H1131 0.949 . S
H1108 C1112 0.970 . S
C1109 C1110 1.349 . S
C1109 C1111 1.327 . S
C1109 H1132 0.950 . S
C1110 C1109 1.349 . S
C1110 C1122 1.349 . S
C1111 C1109 1.327 . S
C1111 C1127 1.429 . S
C1111 H1133 0.950 . S
C1112 H1108 0.970 . S
C1112 C1120 1.574 1_455 S
C1112 C1128 1.368 . S
H1113 C1121 0.950 . S
H1114 C1119 0.950 . S
H1115 C1120 0.949 . S
H1116 C1122 0.950 . S
H1117 C1123 0.950 . S
H1118 C1124 0.949 . S
C1119 H1114 0.950 . S
C1119 C1121 1.327 . S
C1119 C1125 1.429 . S
C1120 C1112 1.574 1_655 S
C1120 H1115 0.949 . S
C1120 C1126 1.368 1_655 S
C1121 C1105 1.349 1_455 S
C1121 H1113 0.950 . S
C1121 C1119 1.327 . S
C1122 C1110 1.349 . S
C1122 H1116 0.950 . S
C1122 C1123 1.327 . S
C1123 H1117 0.950 . S
C1123 C1122 1.327 . S
C1123 C1127 1.429 . S
C1124 C1107 1.574 . S
C1124 H1118 0.949 . S
C1124 C1128 1.368 . S
C1125 C1106 1.429 1_455 S
C1125 C1119 1.429 . S
C1125 C1126 1.523 . S
C1126 C1107 1.368 . S
C1126 C1120 1.368 1_455 S
C1126 C1125 1.523 . S
C1127 C1111 1.429 . S
C1127 C1123 1.429 . S
C1127 C1128 1.523 . S
C1128 C1112 1.368 . S
C1128 C1124 1.368 . S
C1128 C1127 1.523 . S
H1129 C1104 0.950 . S
H1130 C1106 0.950 . S
H1131 C1107 0.949 . S
H1132 C1109 0.950 . S
H1133 C1111 0.950 . S
C1134 C1135 1.349 . S
C1134 C1136 1.327 . S
C1134 H1159 0.950 . S
C1135 C1134 1.349 . S
C1135 C1151 1.349 . S
C1136 C1134 1.327 . S
C1136 C1155 1.429 . S
C1136 H1160 0.950 . S
C1137 C1154 1.574 . S
C1137 C1156 1.368 . S
C1137 H1161 0.949 . S
H1138 C1142 0.949 . S
C1139 C1140 1.349 . S
C1139 C1141 1.327 . S
C1139 H1162 0.950 . S
C1140 C1139 1.349 . S
C1140 C1152 1.349 . S
C1141 C1139 1.327 . S
C1141 C1157 1.429 . S
C1141 H1163 0.950 . S
C1142 H1138 0.949 . S
C1142 C1150 1.574 . S
C1142 C1158 1.368 . S
H1143 C1151 0.950 . S
H1144 C1149 0.950 . S
H1145 C1150 0.949 . S
H1146 C1152 0.950 . S
H1147 C1153 0.950 . S
H1148 C1154 0.949 . S
C1149 H1144 0.950 . S
C1149 C1151 1.327 . S
C1149 C1155 1.429 . S
C1150 C1142 1.574 . S
C1150 H1145 0.949 . S
C1150 C1156 1.368 . S
C1151 C1135 1.349 . S
C1151 H1143 0.950 . S
C1151 C1149 1.327 . S
C1152 C1140 1.349 . S
C1152 H1146 0.950 . S
C1152 C1153 1.327 . S
C1153 H1147 0.950 . S
C1153 C1152 1.327 . S
C1153 C1157 1.429 . S
C1154 C1137 1.574 . S
C1154 H1148 0.949 . S
C1154 C1158 1.368 . S
C1155 C1136 1.429 . S
C1155 C1149 1.429 . S
C1155 C1156 1.523 . S
C1156 C1137 1.368 . S
C1156 C1150 1.368 . S
C1156 C1155 1.523 . S
C1157 C1141 1.429 . S
C1157 C1153 1.429 . S
C1157 C1158 1.523 . S
C1158 C1142 1.368 . S
C1158 C1154 1.368 . S
C1158 C1157 1.523 . S
H1159 C1134 0.950 . S
H1160 C1136 0.950 . S
H1161 C1137 0.949 . S
H1162 C1139 0.950 . S
H1163 C1141 0.950 . S
C1164 C1165 1.349 . S
C1164 C1166 1.327 . S
C1164 H1189 0.950 . S
C1165 C1164 1.349 . S
C1165 C1181 1.349 . S
C1166 C1164 1.327 . S
C1166 C1185 1.429 . S
C1166 H1190 0.950 . S
C1167 C1184 1.574 . S
C1167 C1186 1.368 . S
C1167 H1191 0.949 . S
H1168 C1172 0.949 . S
C1169 C1170 1.349 . S
C1169 C1171 1.327 . S
C1169 H1192 0.950 . S
C1170 C1169 1.349 . S
C1170 C1182 1.349 . S
C1171 C1169 1.327 . S
C1171 C1187 1.429 . S
C1171 H1193 0.950 . S
C1172 H1168 0.949 . S
C1172 C1180 1.574 . S
C1172 C1188 1.368 . S
H1173 C1181 0.950 . S
H1174 C1179 0.950 . S
H1175 C1180 0.949 . S
H1176 C1182 0.950 . S
H1177 C1183 0.950 . S
H1178 C1184 0.949 . S
C1179 H1174 0.950 . S
C1179 C1181 1.327 . S
C1179 C1185 1.429 . S
C1180 C1172 1.574 . S
C1180 H1175 0.949 . S
C1180 C1186 1.368 . S
C1181 C1165 1.349 . S
C1181 H1173 0.950 . S
C1181 C1179 1.327 . S
C1182 C1170 1.349 . S
C1182 H1176 0.950 . S
C1182 C1183 1.327 . S
C1183 H1177 0.950 . S
C1183 C1182 1.327 . S
C1183 C1187 1.429 . S
C1184 C1167 1.574 . S
C1184 H1178 0.949 . S
C1184 C1188 1.368 . S
C1185 C1166 1.429 . S
C1185 C1179 1.429 . S
C1185 C1186 1.523 . S
C1186 C1167 1.368 . S
C1186 C1180 1.368 . S
C1186 C1185 1.523 . S
C1187 C1171 1.429 . S
C1187 C1183 1.429 . S
C1187 C1188 1.523 . S
C1188 C1172 1.368 . S
C1188 C1184 1.368 . S
C1188 C1187 1.523 . S
H1189 C1164 0.950 . S
H1190 C1166 0.950 . S
H1191 C1167 0.949 . S
H1192 C1169 0.950 . S
H1193 C1171 0.950 . S
C1194 C1195 1.349 . S
C1194 C1196 1.327 . S
C1194 H1219 0.950 . S
C1195 C1194 1.349 . S
C1195 C1211 1.349 1_556 S
C1196 C1194 1.327 . S
C1196 C1215 1.421 1_556 S
C1196 H1220 0.950 . S
C1197 C1214 1.574 . S
C1197 C1216 1.368 . S
C1197 H1221 0.949 . S
H1198 C1202 0.949 . S
C1199 C1200 1.349 . S
C1199 C1201 1.327 . S
C1199 H1222 0.950 . S
C1200 C1199 1.349 . S
C1200 C1212 1.349 . S
C1201 C1199 1.327 . S
C1201 C1217 1.429 . S
C1201 H1223 0.950 . S
C1202 H1198 0.949 . S
C1202 C1210 1.574 . S
C1202 C1218 1.368 1_556 S
H1203 C1211 0.950 . S
H1204 C1209 0.950 . S
H1205 C1210 0.949 . S
H1206 C1212 0.950 . S
H1207 C1213 0.950 1_556 S
H1208 C1214 0.949 . S
C1209 H1204 0.950 . S
C1209 C1211 1.327 . S
C1209 C1215 1.434 . S
C1210 C1202 1.574 . S
C1210 H1205 0.949 . S
C1210 C1216 1.368 1_556 S
C1211 C1195 1.349 1_554 S
C1211 H1203 0.950 . S
C1211 C1209 1.327 . S
C1212 C1200 1.349 . S
C1212 H1206 0.950 . S
C1212 C1213 1.327 . S
C1213 H1207 0.950 1_554 S
C1213 C1212 1.327 . S
C1213 C1217 1.429 . S
C1214 C1197 1.574 . S
C1214 H1208 0.949 . S
C1214 C1218 1.368 . S
C1215 C1196 1.421 1_554 S
C1215 C1209 1.434 . S
C1215 C1216 1.525 . S
C1216 C1197 1.368 . S
C1216 C1210 1.368 1_554 S
C1216 C1215 1.525 . S
C1217 C1201 1.429 . S
C1217 C1213 1.429 . S
C1217 C1218 1.523 . S
C1218 C1202 1.368 1_554 S
C1218 C1214 1.368 . S
C1218 C1217 1.523 . S
H1219 C1194 0.950 . S
H1220 C1196 0.950 . S
H1221 C1197 0.949 . S
H1222 C1199 0.950 . S
H1223 C1201 0.950 . S
C1224 C1225 1.349 . S
C1224 C1226 1.327 . S
C1224 H1249 0.950 . S
C1225 C1224 1.349 . S
C1225 C1241 1.349 . S
C1226 C1224 1.327 . S
C1226 C1245 1.429 . S
C1226 H1250 0.950 . S
C1227 C1244 1.574 . S
C1227 C1246 1.368 . S
C1227 H1251 0.949 . S
H1228 C1232 0.949 . S
C1229 C1230 1.349 . S
C1229 C1231 1.327 . S
C1229 H1252 0.950 . S
C1230 C1229 1.349 . S
C1230 C1242 1.349 . S
C1231 C1229 1.327 . S
C1231 C1247 1.429 . S
C1231 H1253 0.950 . S
C1232 H1228 0.949 . S
C1232 C1240 1.574 . S
C1232 C1248 1.368 . S
H1233 C1241 0.950 . S
H1234 C1239 0.950 . S
H1235 C1240 0.949 . S
H1236 C1242 0.950 . S
H1237 C1243 0.950 . S
H1238 C1244 0.949 . S
C1239 H1234 0.950 . S
C1239 C1241 1.327 . S
C1239 C1245 1.429 . S
C1240 C1232 1.574 . S
C1240 H1235 0.949 . S
C1240 C1246 1.368 . S
C1241 C1225 1.349 . S
C1241 H1233 0.950 . S
C1241 C1239 1.327 . S
C1242 C1230 1.349 . S
C1242 H1236 0.950 . S
C1242 C1243 1.327 . S
C1243 H1237 0.950 . S
C1243 C1242 1.327 . S
C1243 C1247 1.429 . S
C1244 C1227 1.574 . S
C1244 H1238 0.949 . S
C1244 C1248 1.368 . S
C1245 C1226 1.429 . S
C1245 C1239 1.429 . S
C1245 C1246 1.523 . S
C1246 C1227 1.368 . S
C1246 C1240 1.368 . S
C1246 C1245 1.523 . S
C1247 C1231 1.429 . S
C1247 C1243 1.429 . S
C1247 C1248 1.523 . S
C1248 C1232 1.368 . S
C1248 C1244 1.368 . S
C1248 C1247 1.523 . S
H1249 C1224 0.950 . S
H1250 C1226 0.950 . S
H1251 C1227 0.949 . S
H1252 C1229 0.950 . S
H1253 C1231 0.950 . S
C1254 C1255 1.349 . S
C1254 C1256 1.327 . S
C1254 H1279 0.950 . S
C1255 C1254 1.349 . S
C1255 C1271 1.349 . S
C1256 C1254 1.327 . S
C1256 C1275 1.429 . S
C1256 H1280 0.950 . S
C1257 C1274 1.574 . S
C1257 C1276 1.368 . S
C1257 H1281 0.949 . S
H1258 C1262 0.949 . S
C1259 C1260 1.349 . S
C1259 C1261 1.327 . S
C1259 H1282 0.950 . S
C1260 C1259 1.349 . S
C1260 C1272 1.349 . S
C1261 C1259 1.327 . S
C1261 C1277 1.429 . S
C1261 H1283 0.950 . S
C1262 H1258 0.949 . S
C1262 C1270 1.574 . S
C1262 C1278 1.368 . S
H1263 C1271 0.950 . S
H1264 C1269 0.950 . S
H1265 C1270 0.949 . S
H1266 C1272 0.950 . S
H1267 C1273 0.950 . S
H1268 C1274 0.949 . S
C1269 H1264 0.950 . S
C1269 C1271 1.327 . S
C1269 C1275 1.429 . S
C1270 C1262 1.574 . S
C1270 H1265 0.949 . S
C1270 C1276 1.368 . S
C1271 C1255 1.349 . S
C1271 H1263 0.950 . S
C1271 C1269 1.327 . S
C1272 C1260 1.349 . S
C1272 H1266 0.950 . S
C1272 C1273 1.327 . S
C1273 H1267 0.950 . S
C1273 C1272 1.327 . S
C1273 C1277 1.429 . S
C1274 C1257 1.574 . S
C1274 H1268 0.949 . S
C1274 C1278 1.368 . S
C1275 C1256 1.429 . S
C1275 C1269 1.429 . S
C1275 C1276 1.523 . S
C1276 C1257 1.368 . S
C1276 C1270 1.368 . S
C1276 C1275 1.523 . S
C1277 C1261 1.429 . S
C1277 C1273 1.429 . S
C1277 C1278 1.523 . S
C1278 C1262 1.368 . S
C1278 C1274 1.368 . S
C1278 C1277 1.523 . S
H1279 C1254 0.950 . S
H1280 C1256 0.950 . S
H1281 C1257 0.949 . S
H1282 C1259 0.950 . S
H1283 C1261 0.950 . S
C1284 C1285 1.349 . S
C1284 C1286 1.327 . S
C1284 H1309 0.950 . S
C1285 C1284 1.349 . S
C1285 C1301 1.349 . S
C1286 C1284 1.327 . S
C1286 C1305 1.429 . S
C1286 H1310 0.950 . S
C1287 C1304 1.574 . S
C1287 C1306 1.368 . S
C1287 H1311 0.949 . S
H1288 C1292 0.949 . S
C1289 C1290 1.349 . S
C1289 C1291 1.327 . S
C1289 H1312 0.950 . S
C1290 C1289 1.349 . S
C1290 C1302 1.349 . S
C1291 C1289 1.327 . S
C1291 C1307 1.429 . S
C1291 H1313 0.950 . S
C1292 H1288 0.949 . S
C1292 C1300 1.574 . S
C1292 C1308 1.368 . S
H1293 C1301 0.950 . S
H1294 C1299 0.950 . S
H1295 C1300 0.949 . S
H1296 C1302 0.950 . S
H1297 C1303 0.950 . S
H1298 C1304 0.949 . S
C1299 H1294 0.950 . S
C1299 C1301 1.327 . S
C1299 C1305 1.429 . S
C1300 C1292 1.574 . S
C1300 H1295 0.949 . S
C1300 C1306 1.368 . S
C1301 C1285 1.349 . S
C1301 H1293 0.950 . S
C1301 C1299 1.327 . S
C1302 C1290 1.349 . S
C1302 H1296 0.950 . S
C1302 C1303 1.327 . S
C1303 H1297 0.950 . S
C1303 C1302 1.327 . S
C1303 C1307 1.429 . S
C1304 C1287 1.574 . S
C1304 H1298 0.949 . S
C1304 C1308 1.368 . S
C1305 C1286 1.429 . S
C1305 C1299 1.429 . S
C1305 C1306 1.523 . S
C1306 C1287 1.368 . S
C1306 C1300 1.368 . S
C1306 C1305 1.523 . S
C1307 C1291 1.429 . S
C1307 C1303 1.429 . S
C1307 C1308 1.523 . S
C1308 C1292 1.368 . S
C1308 C1304 1.368 . S
C1308 C1307 1.523 . S
H1309 C1284 0.950 . S
H1310 C1286 0.950 . S
H1311 C1287 0.949 . S
H1312 C1289 0.950 . S
H1313 C1291 0.950 . S
C1314 C1315 1.349 . S
C1314 C1316 1.327 . S
C1314 H1339 0.950 1_565 S
C1315 C1314 1.349 . S
C1315 C1331 1.349 . S
C1316 C1314 1.327 . S
C1316 C1335 1.429 . S
C1316 H1340 0.943 1_565 S
C1317 C1334 1.574 . S
C1317 C1336 1.368 . S
C1317 H1341 0.949 . S
H1318 C1322 0.949 . S
C1319 C1320 1.349 . S
C1319 C1321 1.327 . S
C1319 H1342 0.950 . S
C1320 C1319 1.349 . S
C1320 C1332 1.349 . S
C1321 C1319 1.327 . S
C1321 C1337 1.429 . S
C1321 H1343 0.950 . S
C1322 H1318 0.949 . S
C1322 C1330 1.574 . S
C1322 C1338 1.368 . S
H1323 C1331 0.950 . S
H1324 C1329 0.950 . S
H1325 C1330 0.949 . S
H1326 C1332 0.950 . S
H1327 C1333 0.950 . S
H1328 C1334 0.949 . S
C1329 H1324 0.950 . S
C1329 C1331 1.327 . S
C1329 C1335 1.429 . S
C1330 C1322 1.574 . S
C1330 H1325 0.949 . S
C1330 C1336 1.368 . S
C1331 C1315 1.349 . S
C1331 H1323 0.950 . S
C1331 C1329 1.327 . S
C1332 C1320 1.349 . S
C1332 H1326 0.950 . S
C1332 C1333 1.327 . S
C1333 H1327 0.950 . S
C1333 C1332 1.327 . S
C1333 C1337 1.429 . S
C1334 C1317 1.574 . S
C1334 H1328 0.949 . S
C1334 C1338 1.368 . S
C1335 C1316 1.429 . S
C1335 C1329 1.429 . S
C1335 C1336 1.523 . S
C1336 C1317 1.368 . S
C1336 C1330 1.368 . S
C1336 C1335 1.523 . S
C1337 C1321 1.429 . S
C1337 C1333 1.429 . S
C1337 C1338 1.523 . S
C1338 C1322 1.368 . S
C1338 C1334 1.368 . S
C1338 C1337 1.523 . S
H1339 C1314 0.950 1_545 S
H1340 C1316 0.943 1_545 S
H1341 C1317 0.949 . S
H1342 C1319 0.950 . S
H1343 C1321 0.950 . S
C1344 C1345 1.349 . S
C1344 C1346 1.327 . S
C1344 H1369 0.950 . S
C1345 C1344 1.349 . S
C1345 C1361 1.349 . S
C1346 C1344 1.327 . S
C1346 C1365 1.429 . S
C1346 H1370 0.950 . S
C1347 C1364 1.574 . S
C1347 C1366 1.368 . S
C1347 H1371 0.949 . S
H1348 C1352 0.949 . S
C1349 C1350 1.349 . S
C1349 C1351 1.327 . S
C1349 H1372 0.950 . S
C1350 C1349 1.349 . S
C1350 C1362 1.349 . S
C1351 C1349 1.327 . S
C1351 C1367 1.429 . S
C1351 H1373 0.950 . S
C1352 H1348 0.949 . S
C1352 C1360 1.574 . S
C1352 C1368 1.368 . S
H1353 C1361 0.950 . S
H1354 C1359 0.950 . S
H1355 C1360 0.949 . S
H1356 C1362 0.950 . S
H1357 C1363 0.950 . S
H1358 C1364 0.949 . S
C1359 H1354 0.950 . S
C1359 C1361 1.327 . S
C1359 C1365 1.429 . S
C1360 C1352 1.574 . S
C1360 H1355 0.949 . S
C1360 C1366 1.368 . S
C1361 C1345 1.349 . S
C1361 H1353 0.950 . S
C1361 C1359 1.327 . S
C1362 C1350 1.349 . S
C1362 H1356 0.950 . S
C1362 C1363 1.327 . S
C1363 H1357 0.950 . S
C1363 C1362 1.327 . S
C1363 C1367 1.429 . S
C1364 C1347 1.574 . S
C1364 H1358 0.949 . S
C1364 C1368 1.368 . S
C1365 C1346 1.429 . S
C1365 C1359 1.429 . S
C1365 C1366 1.523 . S
C1366 C1347 1.368 . S
C1366 C1360 1.368 . S
C1366 C1365 1.523 . S
C1367 C1351 1.429 . S
C1367 C1363 1.429 . S
C1367 C1368 1.523 . S
C1368 C1352 1.368 . S
C1368 C1364 1.368 . S
C1368 C1367 1.523 . S
H1369 C1344 0.950 . S
H1370 C1346 0.950 . S
H1371 C1347 0.949 . S
H1372 C1349 0.950 . S
H1373 C1351 0.950 . S
C1374 C1375 1.349 . S
C1374 C1376 1.327 . S
C1374 H1399 0.950 . S
C1375 C1374 1.349 . S
C1375 C1391 1.349 1_565 S
C1376 C1374 1.327 . S
C1376 C1395 1.429 . S
C1376 H1400 0.950 . S
C1377 C1394 1.574 . S
C1377 C1396 1.368 . S
C1377 H1401 0.949 . S
H1378 C1382 0.949 . S
C1379 C1380 1.349 . S
C1379 C1381 1.327 . S
C1379 H1402 0.950 . S
C1380 C1379 1.349 . S
C1380 C1392 1.349 . S
C1381 C1379 1.327 . S
C1381 C1397 1.429 . S
C1381 H1403 0.950 . S
C1382 H1378 0.949 . S
C1382 C1390 1.574 . S
C1382 C1398 1.368 . S
H1383 C1391 0.950 . S
H1384 C1389 0.955 . S
H1385 C1390 0.949 . S
H1386 C1392 0.950 . S
H1387 C1393 0.950 . S
H1388 C1394 0.949 . S
C1389 H1384 0.955 . S
C1389 C1391 1.327 1_565 S
C1389 C1395 1.429 . S
C1390 C1382 1.574 . S
C1390 H1385 0.949 . S
C1390 C1396 1.368 . S
C1391 C1375 1.349 1_545 S
C1391 H1383 0.950 . S
C1391 C1389 1.327 1_545 S
C1392 C1380 1.349 . S
C1392 H1386 0.950 . S
C1392 C1393 1.327 . S
C1393 H1387 0.950 . S
C1393 C1392 1.327 . S
C1393 C1397 1.429 . S
C1394 C1377 1.574 . S
C1394 H1388 0.949 . S
C1394 C1398 1.368 . S
C1395 C1376 1.429 . S
C1395 C1389 1.429 . S
C1395 C1396 1.523 . S
C1396 C1377 1.368 . S
C1396 C1390 1.368 . S
C1396 C1395 1.523 . S
C1397 C1381 1.429 . S
C1397 C1393 1.429 . S
C1397 C1398 1.523 . S
C1398 C1382 1.368 . S
C1398 C1394 1.368 . S
C1398 C1397 1.523 . S
H1399 C1374 0.950 . S
H1400 C1376 0.950 . S
H1401 C1377 0.949 . S
H1402 C1379 0.950 . S
H1403 C1381 0.950 . S
C1404 C1405 1.349 . S
C1404 C1406 1.327 . S
C1404 H1429 0.950 . S
C1405 C1404 1.349 . S
C1405 C1421 1.349 . S
C1406 C1404 1.327 . S
C1406 C1425 1.429 . S
C1406 H1430 0.950 . S
C1407 C1424 1.574 . S
C1407 C1426 1.368 . S
C1407 H1431 0.949 . S
H1408 C1412 0.949 . S
C1409 C1410 1.349 . S
C1409 C1411 1.327 . S
C1409 H1432 0.950 . S
C1410 C1409 1.349 . S
C1410 C1422 1.349 . S
C1411 C1409 1.327 . S
C1411 C1427 1.429 . S
C1411 H1433 0.950 . S
C1412 H1408 0.949 . S
C1412 C1420 1.574 . S
C1412 C1428 1.368 . S
H1413 C1421 0.950 . S
H1414 C1419 0.950 . S
H1415 C1420 0.949 . S
H1416 C1422 0.950 . S
H1417 C1423 0.950 . S
H1418 C1424 0.949 . S
C1419 H1414 0.950 . S
C1419 C1421 1.327 . S
C1419 C1425 1.429 . S
C1420 C1412 1.574 . S
C1420 H1415 0.949 . S
C1420 C1426 1.368 . S
C1421 C1405 1.349 . S
C1421 H1413 0.950 . S
C1421 C1419 1.327 . S
C1422 C1410 1.349 . S
C1422 H1416 0.950 . S
C1422 C1423 1.327 . S
C1423 H1417 0.950 . S
C1423 C1422 1.327 . S
C1423 C1427 1.429 . S
C1424 C1407 1.574 . S
C1424 H1418 0.949 . S
C1424 C1428 1.368 . S
C1425 C1406 1.429 . S
C1425 C1419 1.429 . S
C1425 C1426 1.523 . S
C1426 C1407 1.368 . S
C1426 C1420 1.368 . S
C1426 C1425 1.523 . S
C1427 C1411 1.429 . S
C1427 C1423 1.429 . S
C1427 C1428 1.523 . S
C1428 C1412 1.368 . S
C1428 C1424 1.368 . S
C1428 C1427 1.523 . S
H1429 C1404 0.950 . S
H1430 C1406 0.950 . S
H1431 C1407 0.949 . S
H1432 C1409 0.950 . S
H1433 C1411 0.950 . S
C1434 C1435 1.349 . S
C1434 C1436 1.327 . S
C1434 H1459 0.950 . S
C1435 C1434 1.349 . S
C1435 C1451 1.349 . S
C1436 C1434 1.327 . S
C1436 C1455 1.429 . S
C1436 H1460 0.950 . S
C1437 C1454 1.574 . S
C1437 C1456 1.368 . S
C1437 H1461 0.949 . S
H1438 C1442 0.949 . S
C1439 C1440 1.349 . S
C1439 C1441 1.327 . S
C1439 H1462 0.950 . S
C1440 C1439 1.349 . S
C1440 C1452 1.349 . S
C1441 C1439 1.327 . S
C1441 C1457 1.429 . S
C1441 H1463 0.950 . S
C1442 H1438 0.949 . S
C1442 C1450 1.574 . S
C1442 C1458 1.368 . S
H1443 C1451 0.950 . S
H1444 C1449 0.950 . S
H1445 C1450 0.949 . S
H1446 C1452 0.950 . S
H1447 C1453 0.950 . S
H1448 C1454 0.949 . S
C1449 H1444 0.950 . S
C1449 C1451 1.327 . S
C1449 C1455 1.429 . S
C1450 C1442 1.574 . S
C1450 H1445 0.949 . S
C1450 C1456 1.368 . S
C1451 C1435 1.349 . S
C1451 H1443 0.950 . S
C1451 C1449 1.327 . S
C1452 C1440 1.349 . S
C1452 H1446 0.950 . S
C1452 C1453 1.327 . S
C1453 H1447 0.950 . S
C1453 C1452 1.327 . S
C1453 C1457 1.429 . S
C1454 C1437 1.574 . S
C1454 H1448 0.949 . S
C1454 C1458 1.368 . S
C1455 C1436 1.429 . S
C1455 C1449 1.429 . S
C1455 C1456 1.523 . S
C1456 C1437 1.368 . S
C1456 C1450 1.368 . S
C1456 C1455 1.523 . S
C1457 C1441 1.429 . S
C1457 C1453 1.429 . S
C1457 C1458 1.523 . S
C1458 C1442 1.368 . S
C1458 C1454 1.368 . S
C1458 C1457 1.523 . S
H1459 C1434 0.950 . S
H1460 C1436 0.950 . S
H1461 C1437 0.949 . S
H1462 C1439 0.950 . S
H1463 C1441 0.950 . S
C1464 C1465 1.349 . S
C1464 C1466 1.327 . S
C1464 H1489 0.950 . S
C1465 C1464 1.349 . S
C1465 C1481 1.349 . S
C1466 C1464 1.327 . S
C1466 C1485 1.429 . S
C1466 H1490 0.950 . S
C1467 C1484 1.574 . S
C1467 C1486 1.368 . S
C1467 H1491 0.949 . S
H1468 C1472 0.949 . S
C1469 C1470 1.349 . S
C1469 C1471 1.327 . S
C1469 H1492 0.950 . S
C1470 C1469 1.349 . S
C1470 C1482 1.349 . S
C1471 C1469 1.327 . S
C1471 C1487 1.429 . S
C1471 H1493 0.954 . S
C1472 H1468 0.949 . S
C1472 C1480 1.574 . S
C1472 C1488 1.368 . S
H1473 C1481 0.950 . S
H1474 C1479 0.950 . S
H1475 C1480 0.949 . S
H1476 C1482 0.950 . S
H1477 C1483 0.950 . S
H1478 C1484 0.949 . S
C1479 H1474 0.950 . S
C1479 C1481 1.327 . S
C1479 C1485 1.429 . S
C1480 C1472 1.574 . S
C1480 H1475 0.949 . S
C1480 C1486 1.368 1_554 S
C1481 C1465 1.349 . S
C1481 H1473 0.950 . S
C1481 C1479 1.327 . S
C1482 C1470 1.349 . S
C1482 H1476 0.950 . S
C1482 C1483 1.327 . S
C1483 H1477 0.950 . S
C1483 C1482 1.327 . S
C1483 C1487 1.429 . S
C1484 C1467 1.574 . S
C1484 H1478 0.949 . S
C1484 C1488 1.368 1_556 S
C1485 C1466 1.429 . S
C1485 C1479 1.429 . S
C1485 C1486 1.523 . S
C1486 C1467 1.368 . S
C1486 C1480 1.368 1_556 S
C1486 C1485 1.523 . S
C1487 C1471 1.429 . S
C1487 C1483 1.429 . S
C1487 C1488 1.523 . S
C1488 C1472 1.368 . S
C1488 C1484 1.368 1_554 S
C1488 C1487 1.523 . S
H1489 C1464 0.950 . S
H1490 C1466 0.950 . S
H1491 C1467 0.949 . S
H1492 C1469 0.950 . S
H1493 C1471 0.954 . S
C1494 C1495 1.349 . S
C1494 C1496 1.327 . S
C1494 H1519 0.950 . S
C1495 C1494 1.349 . S
C1495 C1511 1.349 . S
C1496 C1494 1.327 . S
C1496 C1515 1.429 . S
C1496 H1520 0.950 . S
C1497 C1514 1.574 . S
C1497 C1516 1.368 . S
C1497 H1521 0.949 . S
H1498 C1502 0.949 . S
C1499 C1500 1.349 . S
C1499 C1501 1.327 . S
C1499 H1522 0.950 . S
C1500 C1499 1.349 . S
C1500 C1512 1.349 . S
C1501 C1499 1.327 . S
C1501 C1517 1.429 . S
C1501 H1523 0.950 . S
C1502 H1498 0.949 . S
C1502 C1510 1.574 . S
C1502 C1518 1.368 . S
H1503 C1511 0.950 . S
H1504 C1509 0.950 . S
H1505 C1510 0.949 . S
H1506 C1512 0.950 . S
H1507 C1513 0.950 . S
H1508 C1514 0.949 . S
C1509 H1504 0.950 . S
C1509 C1511 1.327 . S
C1509 C1515 1.429 . S
C1510 C1502 1.574 . S
C1510 H1505 0.949 . S
C1510 C1516 1.368 . S
C1511 C1495 1.349 . S
C1511 H1503 0.950 . S
C1511 C1509 1.327 . S
C1512 C1500 1.349 . S
C1512 H1506 0.950 . S
C1512 C1513 1.327 . S
C1513 H1507 0.950 . S
C1513 C1512 1.327 . S
C1513 C1517 1.429 . S
C1514 C1497 1.574 . S
C1514 H1508 0.949 . S
C1514 C1518 1.368 . S
C1515 C1496 1.429 . S
C1515 C1509 1.429 . S
C1515 C1516 1.523 . S
C1516 C1497 1.368 . S
C1516 C1510 1.368 . S
C1516 C1515 1.523 . S
C1517 C1501 1.429 . S
C1517 C1513 1.429 . S
C1517 C1518 1.523 . S
C1518 C1502 1.368 . S
C1518 C1514 1.368 . S
C1518 C1517 1.523 . S
H1519 C1494 0.950 . S
H1520 C1496 0.950 . S
H1521 C1497 0.949 . S
H1522 C1499 0.950 . S
H1523 C1501 0.950 . S
C1524 C1525 1.349 . S
C1524 C1526 1.327 . S
C1524 H1549 0.950 . S
C1525 C1524 1.349 . S
C1525 C1541 1.349 . S
C1526 C1524 1.327 . S
C1526 C1545 1.429 . S
C1526 H1550 0.950 . S
C1527 C1544 1.574 . S
C1527 C1546 1.368 . S
C1527 H1551 0.949 . S
H1528 C1532 0.949 . S
C1529 C1530 1.349 . S
C1529 C1531 1.327 . S
C1529 H1552 0.950 . S
C1530 C1529 1.349 . S
C1530 C1542 1.349 . S
C1531 C1529 1.327 . S
C1531 C1547 1.429 . S
C1531 H1553 0.950 . S
C1532 H1528 0.949 . S
C1532 C1540 1.574 . S
C1532 C1548 1.368 . S
H1533 C1541 0.950 . S
H1534 C1539 0.950 . S
H1535 C1540 0.949 . S
H1536 C1542 0.950 . S
H1537 C1543 0.950 . S
H1538 C1544 0.949 . S
C1539 H1534 0.950 . S
C1539 C1541 1.327 . S
C1539 C1545 1.429 . S
C1540 C1532 1.574 . S
C1540 H1535 0.949 . S
C1540 C1546 1.368 . S
C1541 C1525 1.349 . S
C1541 H1533 0.950 . S
C1541 C1539 1.327 . S
C1542 C1530 1.349 . S
C1542 H1536 0.950 . S
C1542 C1543 1.327 . S
C1543 H1537 0.950 . S
C1543 C1542 1.327 . S
C1543 C1547 1.429 . S
C1544 C1527 1.574 . S
C1544 H1538 0.949 . S
C1544 C1548 1.368 . S
C1545 C1526 1.429 . S
C1545 C1539 1.429 . S
C1545 C1546 1.523 . S
C1546 C1527 1.368 . S
C1546 C1540 1.368 . S
C1546 C1545 1.523 . S
C1547 C1531 1.429 . S
C1547 C1543 1.429 . S
C1547 C1548 1.523 . S
C1548 C1532 1.368 . S
C1548 C1544 1.368 . S
C1548 C1547 1.523 . S
H1549 C1524 0.950 . S
H1550 C1526 0.950 . S
H1551 C1527 0.949 . S
H1552 C1529 0.950 . S
H1553 C1531 0.950 . S
C1554 C1555 1.349 . S
C1554 C1556 1.327 . S
C1554 H1579 0.950 . S
C1555 C1554 1.349 . S
C1555 C1571 1.349 . S
C1556 C1554 1.327 . S
C1556 C1575 1.429 . S
C1556 H1580 0.950 . S
C1557 C1574 1.574 . S
C1557 C1576 1.368 . S
C1557 H1581 0.949 . S
H1558 C1562 0.949 . S
C1559 C1560 1.349 . S
C1559 C1561 1.327 . S
C1559 H1582 0.950 . S
C1560 C1559 1.349 . S
C1560 C1572 1.349 . S
C1561 C1559 1.327 . S
C1561 C1577 1.429 . S
C1561 H1583 0.950 . S
C1562 H1558 0.949 . S
C1562 C1570 1.574 . S
C1562 C1578 1.368 . S
H1563 C1571 0.950 . S
H1564 C1569 0.950 . S
H1565 C1570 0.949 . S
H1566 C1572 0.950 . S
H1567 C1573 0.950 . S
H1568 C1574 0.949 . S
C1569 H1564 0.950 . S
C1569 C1571 1.327 . S
C1569 C1575 1.429 . S
C1570 C1562 1.574 . S
C1570 H1565 0.949 . S
C1570 C1576 1.368 . S
C1571 C1555 1.349 . S
C1571 H1563 0.950 . S
C1571 C1569 1.327 . S
C1572 C1560 1.349 . S
C1572 H1566 0.950 . S
C1572 C1573 1.327 . S
C1573 H1567 0.950 . S
C1573 C1572 1.327 . S
C1573 C1577 1.429 . S
C1574 C1557 1.574 . S
C1574 H1568 0.949 . S
C1574 C1578 1.368 . S
C1575 C1556 1.429 . S
C1575 C1569 1.429 . S
C1575 C1576 1.523 . S
C1576 C1557 1.368 . S
C1576 C1570 1.368 . S
C1576 C1575 1.523 . S
C1577 C1561 1.429 . S
C1577 C1573 1.429 . S
C1577 C1578 1.523 . S
C1578 C1562 1.368 . S
C1578 C1574 1.368 . S
C1578 C1577 1.523 . S
H1579 C1554 0.950 . S
H1580 C1556 0.950 . S
H1581 C1557 0.949 . S
H1582 C1559 0.950 . S
H1583 C1561 0.950 . S
C1584 C1585 1.349 . S
C1584 C1586 1.327 . S
C1584 H1609 0.950 . S
C1585 C1584 1.349 . S
C1585 C1601 1.349 . S
C1586 C1584 1.327 . S
C1586 C1605 1.429 . S
C1586 H1610 0.950 . S
C1587 C1604 1.574 . S
C1587 C1606 1.368 . S
C1587 H1611 0.949 . S
H1588 C1592 0.949 . S
C1589 C1590 1.349 . S
C1589 C1591 1.327 . S
C1589 H1612 0.950 . S
C1590 C1589 1.349 . S
C1590 C1602 1.349 . S
C1591 C1589 1.327 . S
C1591 C1607 1.429 . S
C1591 H1613 0.950 . S
C1592 H1588 0.949 . S
C1592 C1600 1.574 . S
C1592 C1608 1.368 . S
H1593 C1601 0.950 . S
H1594 C1599 0.950 . S
H1595 C1600 0.949 . S
H1596 C1602 0.950 . S
H1597 C1603 0.950 . S
H1598 C1604 0.949 . S
C1599 H1594 0.950 . S
C1599 C1601 1.327 . S
C1599 C1605 1.429 . S
C1600 C1592 1.574 . S
C1600 H1595 0.949 . S
C1600 C1606 1.368 . S
C1601 C1585 1.349 . S
C1601 H1593 0.950 . S
C1601 C1599 1.327 . S
C1602 C1590 1.349 . S
C1602 H1596 0.950 . S
C1602 C1603 1.327 . S
C1603 H1597 0.950 . S
C1603 C1602 1.327 . S
C1603 C1607 1.429 . S
C1604 C1587 1.574 . S
C1604 H1598 0.949 . S
C1604 C1608 1.368 . S
C1605 C1586 1.429 . S
C1605 C1599 1.429 . S
C1605 C1606 1.523 . S
C1606 C1587 1.368 . S
C1606 C1600 1.368 . S
C1606 C1605 1.523 . S
C1607 C1591 1.429 . S
C1607 C1603 1.429 . S
C1607 C1608 1.523 . S
C1608 C1592 1.368 . S
C1608 C1604 1.368 . S
C1608 C1607 1.523 . S
H1609 C1584 0.950 . S
H1610 C1586 0.950 . S
H1611 C1587 0.949 . S
H1612 C1589 0.950 . S
H1613 C1591 0.950 . S
C1614 C1615 1.349 1_556 S
C1614 C1616 1.327 . S
C1614 H1639 0.950 . S
C1615 C1614 1.349 1_554 S
C1615 C1631 1.349 . S
C1616 C1614 1.327 . S
C1616 C1635 1.432 1_556 S
C1616 H1640 0.950 . S
C1617 C1634 1.574 . S
C1617 C1636 1.368 1_554 S
C1617 H1641 0.949 . S
H1618 C1622 0.949 . S
C1619 C1620 1.349 . S
C1619 C1621 1.327 . S
C1619 H1642 0.950 1_556 S
C1620 C1619 1.349 . S
C1620 C1632 1.349 . S
C1621 C1619 1.327 . S
C1621 C1637 1.429 . S
C1621 H1643 0.950 1_556 S
C1622 H1618 0.949 . S
C1622 C1630 1.574 . S
C1622 C1638 1.368 . S
H1623 C1631 0.950 . S
H1624 C1629 0.950 . S
H1625 C1630 0.949 . S
H1626 C1632 0.950 . S
H1627 C1633 0.950 . S
H1628 C1634 0.949 . S
C1629 H1624 0.950 . S
C1629 C1631 1.327 . S
C1629 C1635 1.423 . S
C1630 C1622 1.574 . S
C1630 H1625 0.949 . S
C1630 C1636 1.368 . S
C1631 C1615 1.349 . S
C1631 H1623 0.950 . S
C1631 C1629 1.327 . S
C1632 C1620 1.349 . S
C1632 H1626 0.950 . S
C1632 C1633 1.327 . S
C1633 H1627 0.950 . S
C1633 C1632 1.327 . S
C1633 C1637 1.429 . S
C1634 C1617 1.574 . S
C1634 H1628 0.949 . S
C1634 C1638 1.368 1_554 S
C1635 C1616 1.432 1_554 S
C1635 C1629 1.423 . S
C1635 C1636 1.524 1_554 S
C1636 C1617 1.368 1_556 S
C1636 C1630 1.368 . S
C1636 C1635 1.524 1_556 S
C1637 C1621 1.429 . S
C1637 C1633 1.429 . S
C1637 C1638 1.523 . S
C1638 C1622 1.368 . S
C1638 C1634 1.368 1_556 S
C1638 C1637 1.523 . S
H1639 C1614 0.950 . S
H1640 C1616 0.950 . S
H1641 C1617 0.949 . S
H1642 C1619 0.950 1_554 S
H1643 C1621 0.950 1_554 S
C1644 C1645 1.349 . S
C1644 C1646 1.327 . S
C1644 H1669 0.950 . S
C1645 C1644 1.349 . S
C1645 C1661 1.349 . S
C1646 C1644 1.327 . S
C1646 C1665 1.429 . S
C1646 H1670 0.950 . S
C1647 C1664 1.574 . S
C1647 C1666 1.368 . S
C1647 H1671 0.949 . S
H1648 C1652 0.949 . S
C1649 C1650 1.349 . S
C1649 C1651 1.327 . S
C1649 H1672 0.950 . S
C1650 C1649 1.349 . S
C1650 C1662 1.349 . S
C1651 C1649 1.327 . S
C1651 C1667 1.429 . S
C1651 H1673 0.950 . S
C1652 H1648 0.949 . S
C1652 C1660 1.574 . S
C1652 C1668 1.368 . S
H1653 C1661 0.950 . S
H1654 C1659 0.950 . S
H1655 C1660 0.949 . S
H1656 C1662 0.950 . S
H1657 C1663 0.950 . S
H1658 C1664 0.949 . S
C1659 H1654 0.950 . S
C1659 C1661 1.327 . S
C1659 C1665 1.429 . S
C1660 C1652 1.574 . S
C1660 H1655 0.949 . S
C1660 C1666 1.368 . S
C1661 C1645 1.349 . S
C1661 H1653 0.950 . S
C1661 C1659 1.327 . S
C1662 C1650 1.349 . S
C1662 H1656 0.950 . S
C1662 C1663 1.327 . S
C1663 H1657 0.950 . S
C1663 C1662 1.327 . S
C1663 C1667 1.429 . S
C1664 C1647 1.574 . S
C1664 H1658 0.949 . S
C1664 C1668 1.368 . S
C1665 C1646 1.429 . S
C1665 C1659 1.429 . S
C1665 C1666 1.523 . S
C1666 C1647 1.368 . S
C1666 C1660 1.368 . S
C1666 C1665 1.523 . S
C1667 C1651 1.429 . S
C1667 C1663 1.429 . S
C1667 C1668 1.523 . S
C1668 C1652 1.368 . S
C1668 C1664 1.368 . S
C1668 C1667 1.523 . S
H1669 C1644 0.950 . S
H1670 C1646 0.950 . S
H1671 C1647 0.949 . S
H1672 C1649 0.950 . S
H1673 C1651 0.950 . S
C1674 C1675 1.349 . S
C1674 C1676 1.327 . S
C1674 H1699 0.950 . S
C1675 C1674 1.349 . S
C1675 C1691 1.349 . S
C1676 C1674 1.327 . S
C1676 C1695 1.429 . S
C1676 H1700 0.950 . S
C1677 C1694 1.574 . S
C1677 C1696 1.368 . S
C1677 H1701 0.949 . S
H1678 C1682 0.949 . S
C1679 C1680 1.349 . S
C1679 C1681 1.327 . S
C1679 H1702 0.950 . S
C1680 C1679 1.349 . S
C1680 C1692 1.349 . S
C1681 C1679 1.327 . S
C1681 C1697 1.429 . S
C1681 H1703 0.950 . S
C1682 H1678 0.949 . S
C1682 C1690 1.574 . S
C1682 C1698 1.368 . S
H1683 C1691 0.950 . S
H1684 C1689 0.950 . S
H1685 C1690 0.949 . S
H1686 C1692 0.950 . S
H1687 C1693 0.950 . S
H1688 C1694 0.949 . S
C1689 H1684 0.950 . S
C1689 C1691 1.327 . S
C1689 C1695 1.429 . S
C1690 C1682 1.574 . S
C1690 H1685 0.949 . S
C1690 C1696 1.368 . S
C1691 C1675 1.349 . S
C1691 H1683 0.950 . S
C1691 C1689 1.327 . S
C1692 C1680 1.349 . S
C1692 H1686 0.950 . S
C1692 C1693 1.327 . S
C1693 H1687 0.950 . S
C1693 C1692 1.327 . S
C1693 C1697 1.429 . S
C1694 C1677 1.574 . S
C1694 H1688 0.949 . S
C1694 C1698 1.368 . S
C1695 C1676 1.429 . S
C1695 C1689 1.429 . S
C1695 C1696 1.523 . S
C1696 C1677 1.368 . S
C1696 C1690 1.368 . S
C1696 C1695 1.523 . S
C1697 C1681 1.429 . S
C1697 C1693 1.429 . S
C1697 C1698 1.523 . S
C1698 C1682 1.368 . S
C1698 C1694 1.368 . S
C1698 C1697 1.523 . S
H1699 C1674 0.950 . S
H1700 C1676 0.950 . S
H1701 C1677 0.949 . S
H1702 C1679 0.950 . S
H1703 C1681 0.950 . S
C1704 C1705 1.349 . S
C1704 C1706 1.327 . S
C1704 H1729 0.950 . S
C1705 C1704 1.349 . S
C1705 C1721 1.349 . S
C1706 C1704 1.327 . S
C1706 C1725 1.429 . S
C1706 H1730 0.950 . S
C1707 C1724 1.574 . S
C1707 C1726 1.368 . S
C1707 H1731 0.949 . S
H1708 C1712 0.949 . S
C1709 C1710 1.349 . S
C1709 C1711 1.327 . S
C1709 H1732 0.950 . S
C1710 C1709 1.349 . S
C1710 C1722 1.349 . S
C1711 C1709 1.327 . S
C1711 C1727 1.429 . S
C1711 H1733 0.950 . S
C1712 H1708 0.949 . S
C1712 C1720 1.574 . S
C1712 C1728 1.368 . S
H1713 C1721 0.950 . S
H1714 C1719 0.950 . S
H1715 C1720 0.949 . S
H1716 C1722 0.950 . S
H1717 C1723 0.950 . S
H1718 C1724 0.949 . S
C1719 H1714 0.950 . S
C1719 C1721 1.327 . S
C1719 C1725 1.429 . S
C1720 C1712 1.574 . S
C1720 H1715 0.949 . S
C1720 C1726 1.368 . S
C1721 C1705 1.349 . S
C1721 H1713 0.950 . S
C1721 C1719 1.327 . S
C1722 C1710 1.349 . S
C1722 H1716 0.950 . S
C1722 C1723 1.327 . S
C1723 H1717 0.950 . S
C1723 C1722 1.327 . S
C1723 C1727 1.429 . S
C1724 C1707 1.574 . S
C1724 H1718 0.949 . S
C1724 C1728 1.368 . S
C1725 C1706 1.429 . S
C1725 C1719 1.429 . S
C1725 C1726 1.523 . S
C1726 C1707 1.368 . S
C1726 C1720 1.368 . S
C1726 C1725 1.523 . S
C1727 C1711 1.429 . S
C1727 C1723 1.429 . S
C1727 C1728 1.523 . S
C1728 C1712 1.368 . S
C1728 C1724 1.368 . S
C1728 C1727 1.523 . S
H1729 C1704 0.950 . S
H1730 C1706 0.950 . S
H1731 C1707 0.949 . S
H1732 C1709 0.950 . S
H1733 C1711 0.950 . S
C1734 C1735 1.349 . S
C1734 C1736 1.327 . S
C1734 H1759 0.950 . S
C1735 C1734 1.349 . S
C1735 C1751 1.349 . S
C1736 C1734 1.327 . S
C1736 C1755 1.429 . S
C1736 H1760 0.950 . S
C1737 C1754 1.574 . S
C1737 C1756 1.368 . S
C1737 H1761 0.949 . S
H1738 C1742 0.949 . S
C1739 C1740 1.349 . S
C1739 C1741 1.327 . S
C1739 H1762 0.950 . S
C1740 C1739 1.349 . S
C1740 C1752 1.349 . S
C1741 C1739 1.327 . S
C1741 C1757 1.429 . S
C1741 H1763 0.950 . S
C1742 H1738 0.949 . S
C1742 C1750 1.574 . S
C1742 C1758 1.368 . S
H1743 C1751 0.950 . S
H1744 C1749 0.950 . S
H1745 C1750 0.949 . S
H1746 C1752 0.950 . S
H1747 C1753 0.950 . S
H1748 C1754 0.949 . S
C1749 H1744 0.950 . S
C1749 C1751 1.327 . S
C1749 C1755 1.429 . S
C1750 C1742 1.574 . S
C1750 H1745 0.949 . S
C1750 C1756 1.368 . S
C1751 C1735 1.349 . S
C1751 H1743 0.950 . S
C1751 C1749 1.327 . S
C1752 C1740 1.349 . S
C1752 H1746 0.950 . S
C1752 C1753 1.327 . S
C1753 H1747 0.950 . S
C1753 C1752 1.327 . S
C1753 C1757 1.429 . S
C1754 C1737 1.574 . S
C1754 H1748 0.949 . S
C1754 C1758 1.368 . S
C1755 C1736 1.429 . S
C1755 C1749 1.429 . S
C1755 C1756 1.523 . S
C1756 C1737 1.368 . S
C1756 C1750 1.368 . S
C1756 C1755 1.523 . S
C1757 C1741 1.429 . S
C1757 C1753 1.429 . S
C1757 C1758 1.523 . S
C1758 C1742 1.368 . S
C1758 C1754 1.368 . S
C1758 C1757 1.523 . S
H1759 C1734 0.950 . S
H1760 C1736 0.950 . S
H1761 C1737 0.949 . S
H1762 C1739 0.950 . S
H1763 C1741 0.950 . S
C1764 C1765 1.349 . S
C1764 C1766 1.327 . S
C1764 H1789 0.950 . S
C1765 C1764 1.349 . S
C1765 C1781 1.349 . S
C1766 C1764 1.327 . S
C1766 C1785 1.429 . S
C1766 H1790 0.950 1_554 S
C1767 C1784 1.574 . S
C1767 C1786 1.368 . S
C1767 H1791 0.949 . S
H1768 C1772 0.949 . S
C1769 C1770 1.349 . S
C1769 C1771 1.332 . S
C1769 H1792 0.944 1_556 S
C1770 C1769 1.349 . S
C1770 C1782 1.349 . S
C1771 C1769 1.332 . S
C1771 C1787 1.435 . S
C1771 H1793 0.939 1_556 S
C1772 H1768 0.949 . S
C1772 C1780 1.574 . S
C1772 C1788 1.368 . S
H1773 C1781 0.950 . S
H1774 C1779 0.950 . S
H1775 C1780 0.949 . S
H1776 C1782 0.950 . S
H1777 C1783 0.950 . S
H1778 C1784 0.949 . S
C1779 H1774 0.950 . S
C1779 C1781 1.327 . S
C1779 C1785 1.429 . S
C1780 C1772 1.574 . S
C1780 H1775 0.949 . S
C1780 C1786 1.368 1_556 S
C1781 C1765 1.349 . S
C1781 H1773 0.950 . S
C1781 C1779 1.327 . S
C1782 C1770 1.349 . S
C1782 H1776 0.950 . S
C1782 C1783 1.327 . S
C1783 H1777 0.950 . S
C1783 C1782 1.327 . S
C1783 C1787 1.429 . S
C1784 C1767 1.574 . S
C1784 H1778 0.949 . S
C1784 C1788 1.368 1_554 S
C1785 C1766 1.429 . S
C1785 C1779 1.429 . S
C1785 C1786 1.523 . S
C1786 C1767 1.368 . S
C1786 C1780 1.368 1_554 S
C1786 C1785 1.523 . S
C1787 C1771 1.435 . S
C1787 C1783 1.429 . S
C1787 C1788 1.523 . S
C1788 C1772 1.368 . S
C1788 C1784 1.368 1_556 S
C1788 C1787 1.523 . S
H1789 C1764 0.950 . S
H1790 C1766 0.950 1_556 S
H1791 C1767 0.949 . S
H1792 C1769 0.944 1_554 S
H1793 C1771 0.939 1_554 S
C1794 C1795 1.349 . S
C1794 C1796 1.327 . S
C1794 H1819 0.950 . S
C1795 C1794 1.349 . S
C1795 C1811 1.349 . S
C1796 C1794 1.327 . S
C1796 C1815 1.429 . S
C1796 H1820 0.950 . S
C1797 C1814 1.574 . S
C1797 C1816 1.368 . S
C1797 H1821 0.949 . S
H1798 C1802 0.949 . S
C1799 C1800 1.349 . S
C1799 C1801 1.327 . S
C1799 H1822 0.950 . S
C1800 C1799 1.349 . S
C1800 C1812 1.349 . S
C1801 C1799 1.327 . S
C1801 C1817 1.429 . S
C1801 H1823 0.950 . S
C1802 H1798 0.949 . S
C1802 C1810 1.574 . S
C1802 C1818 1.368 . S
H1803 C1811 0.950 . S
H1804 C1809 0.950 . S
H1805 C1810 0.949 . S
H1806 C1812 0.950 . S
H1807 C1813 0.950 . S
H1808 C1814 0.949 . S
C1809 H1804 0.950 . S
C1809 C1811 1.327 . S
C1809 C1815 1.429 . S
C1810 C1802 1.574 . S
C1810 H1805 0.949 . S
C1810 C1816 1.368 . S
C1811 C1795 1.349 . S
C1811 H1803 0.950 . S
C1811 C1809 1.327 . S
C1812 C1800 1.349 . S
C1812 H1806 0.950 . S
C1812 C1813 1.327 . S
C1813 H1807 0.950 . S
C1813 C1812 1.327 . S
C1813 C1817 1.429 . S
C1814 C1797 1.574 . S
C1814 H1808 0.949 . S
C1814 C1818 1.368 . S
C1815 C1796 1.429 . S
C1815 C1809 1.429 . S
C1815 C1816 1.523 . S
C1816 C1797 1.368 . S
C1816 C1810 1.368 . S
C1816 C1815 1.523 . S
C1817 C1801 1.429 . S
C1817 C1813 1.429 . S
C1817 C1818 1.523 . S
C1818 C1802 1.368 . S
C1818 C1814 1.368 . S
C1818 C1817 1.523 . S
H1819 C1794 0.950 . S
H1820 C1796 0.950 . S
H1821 C1797 0.949 . S
H1822 C1799 0.950 . S
H1823 C1801 0.950 . S
C1824 C1825 1.349 . S
C1824 C1826 1.327 . S
C1824 H1849 0.950 . S
C1825 C1824 1.349 . S
C1825 C1841 1.349 . S
C1826 C1824 1.327 . S
C1826 C1845 1.429 . S
C1826 H1850 0.950 . S
C1827 C1844 1.574 . S
C1827 C1846 1.368 . S
C1827 H1851 0.949 . S
H1828 C1832 0.949 . S
C1829 C1830 1.349 . S
C1829 C1831 1.327 . S
C1829 H1852 0.950 . S
C1830 C1829 1.349 . S
C1830 C1842 1.349 . S
C1831 C1829 1.327 . S
C1831 C1847 1.429 . S
C1831 H1853 0.950 . S
C1832 H1828 0.949 . S
C1832 C1840 1.574 . S
C1832 C1848 1.368 . S
H1833 C1841 0.950 . S
H1834 C1839 0.950 . S
H1835 C1840 0.949 . S
H1836 C1842 0.950 . S
H1837 C1843 0.950 . S
H1838 C1844 0.949 . S
C1839 H1834 0.950 . S
C1839 C1841 1.327 . S
C1839 C1845 1.429 . S
C1840 C1832 1.574 . S
C1840 H1835 0.949 . S
C1840 C1846 1.368 . S
C1841 C1825 1.349 . S
C1841 H1833 0.950 . S
C1841 C1839 1.327 . S
C1842 C1830 1.349 . S
C1842 H1836 0.950 . S
C1842 C1843 1.327 . S
C1843 H1837 0.950 . S
C1843 C1842 1.327 . S
C1843 C1847 1.429 . S
C1844 C1827 1.574 . S
C1844 H1838 0.949 . S
C1844 C1848 1.368 . S
C1845 C1826 1.429 . S
C1845 C1839 1.429 . S
C1845 C1846 1.523 . S
C1846 C1827 1.368 . S
C1846 C1840 1.368 . S
C1846 C1845 1.523 . S
C1847 C1831 1.429 . S
C1847 C1843 1.429 . S
C1847 C1848 1.523 . S
C1848 C1832 1.368 . S
C1848 C1844 1.368 . S
C1848 C1847 1.523 . S
H1849 C1824 0.950 . S
H1850 C1826 0.950 . S
H1851 C1827 0.949 . S
H1852 C1829 0.950 . S
H1853 C1831 0.950 . S
C1854 C1855 1.349 . S
C1854 C1856 1.327 . S
C1854 H1879 0.950 . S
C1855 C1854 1.349 . S
C1855 C1871 1.349 . S
C1856 C1854 1.327 . S
C1856 C1875 1.429 . S
C1856 H1880 0.950 . S
C1857 C1874 1.574 . S
C1857 C1876 1.368 . S
C1857 H1881 0.949 . S
H1858 C1862 0.949 . S
C1859 C1860 1.349 . S
C1859 C1861 1.327 . S
C1859 H1882 0.950 . S
C1860 C1859 1.349 . S
C1860 C1872 1.349 . S
C1861 C1859 1.327 . S
C1861 C1877 1.429 1_455 S
C1861 H1883 0.950 . S
C1862 H1858 0.949 . S
C1862 C1870 1.574 . S
C1862 C1878 1.368 . S
H1863 C1871 0.950 . S
H1864 C1869 0.950 . S
H1865 C1870 0.949 . S
H1866 C1872 0.951 . S
H1867 C1873 0.950 . S
H1868 C1874 0.952 1_455 S
C1869 H1864 0.950 . S
C1869 C1871 1.327 . S
C1869 C1875 1.429 . S
C1870 C1862 1.574 . S
C1870 H1865 0.949 . S
C1870 C1876 1.368 . S
C1871 C1855 1.349 . S
C1871 H1863 0.950 . S
C1871 C1869 1.327 . S
C1872 C1860 1.349 . S
C1872 H1866 0.951 . S
C1872 C1873 1.327 1_455 S
C1873 H1867 0.950 . S
C1873 C1872 1.327 1_655 S
C1873 C1877 1.429 . S
C1874 C1857 1.574 . S
C1874 H1868 0.952 1_655 S
C1874 C1878 1.368 . S
C1875 C1856 1.429 . S
C1875 C1869 1.429 . S
C1875 C1876 1.523 . S
C1876 C1857 1.368 . S
C1876 C1870 1.368 . S
C1876 C1875 1.523 . S
C1877 C1861 1.429 1_655 S
C1877 C1873 1.429 . S
C1877 C1878 1.523 . S
C1878 C1862 1.368 . S
C1878 C1874 1.368 . S
C1878 C1877 1.523 . S
H1879 C1854 0.950 . S
H1880 C1856 0.950 . S
H1881 C1857 0.949 . S
H1882 C1859 0.950 . S
H1883 C1861 0.950 . S
C1884 C1885 1.349 . S
C1884 C1886 1.327 . S
C1884 H1909 0.950 . S
C1885 C1884 1.349 . S
C1885 C1901 1.349 . S
C1886 C1884 1.327 . S
C1886 C1905 1.429 . S
C1886 H1910 0.950 . S
C1887 C1904 1.574 . S
C1887 C1906 1.368 . S
C1887 H1911 0.949 . S
H1888 C1892 0.949 . S
C1889 C1890 1.349 . S
C1889 C1891 1.327 . S
C1889 H1912 0.950 . S
C1890 C1889 1.349 . S
C1890 C1902 1.349 . S
C1891 C1889 1.327 . S
C1891 C1907 1.429 . S
C1891 H1913 0.950 . S
C1892 H1888 0.949 . S
C1892 C1900 1.574 . S
C1892 C1908 1.368 . S
H1893 C1901 0.950 . S
H1894 C1899 0.950 . S
H1895 C1900 0.949 . S
H1896 C1902 0.950 . S
H1897 C1903 0.950 . S
H1898 C1904 0.949 . S
C1899 H1894 0.950 . S
C1899 C1901 1.327 . S
C1899 C1905 1.429 . S
C1900 C1892 1.574 . S
C1900 H1895 0.949 . S
C1900 C1906 1.368 . S
C1901 C1885 1.349 . S
C1901 H1893 0.950 . S
C1901 C1899 1.327 . S
C1902 C1890 1.349 . S
C1902 H1896 0.950 . S
C1902 C1903 1.327 . S
C1903 H1897 0.950 . S
C1903 C1902 1.327 . S
C1903 C1907 1.429 . S
C1904 C1887 1.574 . S
C1904 H1898 0.949 . S
C1904 C1908 1.368 . S
C1905 C1886 1.429 . S
C1905 C1899 1.429 . S
C1905 C1906 1.523 . S
C1906 C1887 1.368 . S
C1906 C1900 1.368 . S
C1906 C1905 1.523 . S
C1907 C1891 1.429 . S
C1907 C1903 1.429 . S
C1907 C1908 1.523 . S
C1908 C1892 1.368 . S
C1908 C1904 1.368 . S
C1908 C1907 1.523 . S
H1909 C1884 0.950 . S
H1910 C1886 0.950 . S
H1911 C1887 0.949 . S
H1912 C1889 0.950 . S
H1913 C1891 0.950 . S
C1914 C1915 1.349 . S
C1914 C1916 1.327 . S
C1914 H1939 0.950 . S
C1915 C1914 1.349 . S
C1915 C1931 1.349 . S
C1916 C1914 1.327 . S
C1916 C1935 1.429 . S
C1916 H1940 0.950 . S
C1917 C1934 1.574 . S
C1917 C1936 1.368 . S
C1917 H1941 0.949 . S
H1918 C1922 0.949 . S
C1919 C1920 1.349 . S
C1919 C1921 1.327 . S
C1919 H1942 0.950 . S
C1920 C1919 1.349 . S
C1920 C1932 1.349 . S
C1921 C1919 1.327 . S
C1921 C1937 1.429 . S
C1921 H1943 0.950 . S
C1922 H1918 0.949 . S
C1922 C1930 1.574 . S
C1922 C1938 1.368 . S
H1923 C1931 0.950 . S
H1924 C1929 0.950 . S
H1925 C1930 0.949 . S
H1926 C1932 0.950 . S
H1927 C1933 0.950 . S
H1928 C1934 0.949 . S
C1929 H1924 0.950 . S
C1929 C1931 1.327 . S
C1929 C1935 1.429 . S
C1930 C1922 1.574 . S
C1930 H1925 0.949 . S
C1930 C1936 1.368 . S
C1931 C1915 1.349 . S
C1931 H1923 0.950 . S
C1931 C1929 1.327 . S
C1932 C1920 1.349 . S
C1932 H1926 0.950 . S
C1932 C1933 1.327 . S
C1933 H1927 0.950 . S
C1933 C1932 1.327 . S
C1933 C1937 1.429 . S
C1934 C1917 1.574 . S
C1934 H1928 0.949 . S
C1934 C1938 1.368 . S
C1935 C1916 1.429 . S
C1935 C1929 1.429 . S
C1935 C1936 1.523 . S
C1936 C1917 1.368 . S
C1936 C1930 1.368 . S
C1936 C1935 1.523 . S
C1937 C1921 1.429 . S
C1937 C1933 1.429 . S
C1937 C1938 1.523 . S
C1938 C1922 1.368 . S
C1938 C1934 1.368 . S
C1938 C1937 1.523 . S
H1939 C1914 0.950 . S
H1940 C1916 0.950 . S
H1941 C1917 0.949 . S
H1942 C1919 0.950 . S
H1943 C1921 0.950 . S
C1944 C1945 1.349 . S
C1944 C1946 1.327 . S
C1944 H1969 0.950 . S
C1945 C1944 1.349 . S
C1945 C1961 1.349 . S
C1946 C1944 1.327 . S
C1946 C1965 1.429 . S
C1946 H1970 0.950 . S
C1947 C1964 1.574 . S
C1947 C1966 1.368 . S
C1947 H1971 0.949 . S
H1948 C1952 0.949 . S
C1949 C1950 1.349 . S
C1949 C1951 1.327 . S
C1949 H1972 0.950 . S
C1950 C1949 1.349 . S
C1950 C1962 1.349 . S
C1951 C1949 1.327 . S
C1951 C1967 1.429 . S
C1951 H1973 0.950 . S
C1952 H1948 0.949 . S
C1952 C1960 1.574 . S
C1952 C1968 1.368 . S
H1953 C1961 0.950 . S
H1954 C1959 0.950 . S
H1955 C1960 0.949 . S
H1956 C1962 0.950 . S
H1957 C1963 0.950 . S
H1958 C1964 0.949 . S
C1959 H1954 0.950 . S
C1959 C1961 1.327 . S
C1959 C1965 1.429 . S
C1960 C1952 1.574 . S
C1960 H1955 0.949 . S
C1960 C1966 1.368 . S
C1961 C1945 1.349 . S
C1961 H1953 0.950 . S
C1961 C1959 1.327 . S
C1962 C1950 1.349 . S
C1962 H1956 0.950 . S
C1962 C1963 1.327 . S
C1963 H1957 0.950 . S
C1963 C1962 1.327 . S
C1963 C1967 1.429 . S
C1964 C1947 1.574 . S
C1964 H1958 0.949 . S
C1964 C1968 1.368 . S
C1965 C1946 1.429 . S
C1965 C1959 1.429 . S
C1965 C1966 1.523 . S
C1966 C1947 1.368 . S
C1966 C1960 1.368 . S
C1966 C1965 1.523 . S
C1967 C1951 1.429 . S
C1967 C1963 1.429 . S
C1967 C1968 1.523 . S
C1968 C1952 1.368 . S
C1968 C1964 1.368 . S
C1968 C1967 1.523 . S
H1969 C1944 0.950 . S
H1970 C1946 0.950 . S
H1971 C1947 0.949 . S
H1972 C1949 0.950 . S
H1973 C1951 0.950 . S
C1974 C1975 1.349 . S
C1974 C1976 1.327 . S
C1974 H1999 0.950 . S
C1975 C1974 1.349 . S
C1975 C1991 1.349 . S
C1976 C1974 1.327 . S
C1976 C1995 1.429 . S
C1976 H2000 0.950 . S
C1977 C1994 1.574 . S
C1977 C1996 1.368 . S
C1977 H2001 0.949 . S
H1978 C1982 0.949 . S
C1979 C1980 1.349 . S
C1979 C1981 1.327 . S
C1979 H2002 0.950 . S
C1980 C1979 1.349 . S
C1980 C1992 1.349 . S
C1981 C1979 1.327 . S
C1981 C1997 1.429 . S
C1981 H2003 0.950 . S
C1982 H1978 0.949 . S
C1982 C1990 1.574 . S
C1982 C1998 1.368 . S
H1983 C1991 0.950 . S
H1984 C1989 0.950 . S
H1985 C1990 0.949 . S
H1986 C1992 0.950 . S
H1987 C1993 0.950 . S
H1988 C1994 0.949 . S
C1989 H1984 0.950 . S
C1989 C1991 1.327 . S
C1989 C1995 1.429 . S
C1990 C1982 1.574 . S
C1990 H1985 0.949 . S
C1990 C1996 1.368 . S
C1991 C1975 1.349 . S
C1991 H1983 0.950 . S
C1991 C1989 1.327 . S
C1992 C1980 1.349 . S
C1992 H1986 0.950 . S
C1992 C1993 1.327 . S
C1993 H1987 0.950 . S
C1993 C1992 1.327 . S
C1993 C1997 1.429 . S
C1994 C1977 1.574 . S
C1994 H1988 0.949 . S
C1994 C1998 1.368 . S
C1995 C1976 1.429 . S
C1995 C1989 1.429 . S
C1995 C1996 1.523 . S
C1996 C1977 1.368 . S
C1996 C1990 1.368 . S
C1996 C1995 1.523 . S
C1997 C1981 1.429 . S
C1997 C1993 1.429 . S
C1997 C1998 1.523 . S
C1998 C1982 1.368 . S
C1998 C1994 1.368 . S
C1998 C1997 1.523 . S
H1999 C1974 0.950 . S
H2000 C1976 0.950 . S
H2001 C1977 0.949 . S
H2002 C1979 0.950 . S
H2003 C1981 0.950 . S
C2004 C2005 1.323 1_455 S
C2004 C2006 1.313 1_455 S
C2004 H2029 0.993 . S
C2005 C2004 1.323 1_655 S
C2005 C2021 1.349 . S
C2006 C2004 1.313 1_655 S
C2006 C2025 1.429 . S
C2006 H2030 0.950 1_655 S
C2007 C2024 1.574 . S
C2007 C2026 1.368 . S
C2007 H2031 0.949 . S
H2008 C2012 0.949 . S
C2009 C2010 1.349 . S
C2009 C2011 1.327 . S
C2009 H2032 0.950 . S
C2010 C2009 1.349 . S
C2010 C2022 1.349 . S
C2011 C2009 1.327 . S
C2011 C2027 1.429 . S
C2011 H2033 0.950 . S
C2012 H2008 0.949 . S
C2012 C2020 1.574 . S
C2012 C2028 1.368 . S
H2013 C2021 0.950 . S
H2014 C2019 0.950 . S
H2015 C2020 0.949 . S
H2016 C2022 0.950 . S
H2017 C2023 0.950 . S
H2018 C2024 0.949 . S
C2019 H2014 0.950 . S
C2019 C2021 1.327 . S
C2019 C2025 1.429 . S
C2020 C2012 1.574 . S
C2020 H2015 0.949 . S
C2020 C2026 1.368 . S
C2021 C2005 1.349 . S
C2021 H2013 0.950 . S
C2021 C2019 1.327 . S
C2022 C2010 1.349 . S
C2022 H2016 0.950 . S
C2022 C2023 1.327 . S
C2023 H2017 0.950 . S
C2023 C2022 1.327 . S
C2023 C2027 1.429 . S
C2024 C2007 1.574 . S
C2024 H2018 0.949 . S
C2024 C2028 1.368 . S
C2025 C2006 1.429 . S
C2025 C2019 1.429 . S
C2025 C2026 1.523 . S
C2026 C2007 1.368 . S
C2026 C2020 1.368 . S
C2026 C2025 1.523 . S
C2027 C2011 1.429 . S
C2027 C2023 1.429 . S
C2027 C2028 1.523 . S
C2028 C2012 1.368 . S
C2028 C2024 1.368 . S
C2028 C2027 1.523 . S
H2029 C2004 0.993 . S
H2030 C2006 0.950 1_455 S
H2031 C2007 0.949 . S
H2032 C2009 0.950 . S
H2033 C2011 0.950 . S
C2034 C2035 1.349 . S
C2034 C2036 1.327 . S
C2034 H2059 0.950 . S
C2035 C2034 1.349 . S
C2035 C2051 1.349 . S
C2036 C2034 1.327 . S
C2036 C2055 1.429 . S
C2036 H2060 0.950 . S
C2037 C2054 1.574 . S
C2037 C2056 1.368 . S
C2037 H2061 0.949 . S
H2038 C2042 0.949 . S
C2039 C2040 1.349 . S
C2039 C2041 1.327 . S
C2039 H2062 0.950 . S
C2040 C2039 1.349 . S
C2040 C2052 1.349 . S
C2041 C2039 1.327 . S
C2041 C2057 1.429 . S
C2041 H2063 0.950 . S
C2042 H2038 0.949 . S
C2042 C2050 1.574 . S
C2042 C2058 1.368 . S
H2043 C2051 0.950 . S
H2044 C2049 0.950 . S
H2045 C2050 0.949 . S
H2046 C2052 0.950 . S
H2047 C2053 0.950 . S
H2048 C2054 0.949 . S
C2049 H2044 0.950 . S
C2049 C2051 1.327 . S
C2049 C2055 1.429 . S
C2050 C2042 1.574 . S
C2050 H2045 0.949 . S
C2050 C2056 1.368 . S
C2051 C2035 1.349 . S
C2051 H2043 0.950 . S
C2051 C2049 1.327 . S
C2052 C2040 1.349 . S
C2052 H2046 0.950 . S
C2052 C2053 1.327 . S
C2053 H2047 0.950 . S
C2053 C2052 1.327 . S
C2053 C2057 1.429 . S
C2054 C2037 1.574 . S
C2054 H2048 0.949 . S
C2054 C2058 1.368 . S
C2055 C2036 1.429 . S
C2055 C2049 1.429 . S
C2055 C2056 1.523 . S
C2056 C2037 1.368 . S
C2056 C2050 1.368 . S
C2056 C2055 1.523 . S
C2057 C2041 1.429 . S
C2057 C2053 1.429 . S
C2057 C2058 1.523 . S
C2058 C2042 1.368 . S
C2058 C2054 1.368 . S
C2058 C2057 1.523 . S
H2059 C2034 0.950 . S
H2060 C2036 0.950 . S
H2061 C2037 0.949 . S
H2062 C2039 0.950 . S
H2063 C2041 0.950 . S
C2064 C2065 1.349 . S
C2064 C2066 1.327 . S
C2064 H2089 0.950 . S
C2065 C2064 1.349 . S
C2065 C2081 1.349 . S
C2066 C2064 1.327 . S
C2066 C2085 1.429 . S
C2066 H2090 0.950 . S
C2067 C2084 1.574 . S
C2067 C2086 1.368 . S
C2067 H2091 0.949 . S
H2068 C2072 0.949 . S
C2069 C2070 1.349 . S
C2069 C2071 1.327 . S
C2069 H2092 0.950 . S
C2070 C2069 1.349 . S
C2070 C2082 1.349 . S
C2071 C2069 1.327 . S
C2071 C2087 1.429 . S
C2071 H2093 0.950 . S
C2072 H2068 0.949 . S
C2072 C2080 1.574 . S
C2072 C2088 1.368 . S
H2073 C2081 0.950 . S
H2074 C2079 0.950 . S
H2075 C2080 0.949 . S
H2076 C2082 0.950 . S
H2077 C2083 0.950 . S
H2078 C2084 0.949 . S
C2079 H2074 0.950 . S
C2079 C2081 1.327 . S
C2079 C2085 1.429 . S
C2080 C2072 1.574 . S
C2080 H2075 0.949 . S
C2080 C2086 1.368 . S
C2081 C2065 1.349 . S
C2081 H2073 0.950 . S
C2081 C2079 1.327 . S
C2082 C2070 1.349 . S
C2082 H2076 0.950 . S
C2082 C2083 1.327 . S
C2083 H2077 0.950 . S
C2083 C2082 1.327 . S
C2083 C2087 1.429 . S
C2084 C2067 1.574 . S
C2084 H2078 0.949 . S
C2084 C2088 1.368 . S
C2085 C2066 1.429 . S
C2085 C2079 1.429 . S
C2085 C2086 1.523 . S
C2086 C2067 1.368 . S
C2086 C2080 1.368 . S
C2086 C2085 1.523 . S
C2087 C2071 1.429 . S
C2087 C2083 1.429 . S
C2087 C2088 1.523 . S
C2088 C2072 1.368 . S
C2088 C2084 1.368 . S
C2088 C2087 1.523 . S
H2089 C2064 0.950 . S
H2090 C2066 0.950 . S
H2091 C2067 0.949 . S
H2092 C2069 0.950 . S
H2093 C2071 0.950 . S
C2094 C2095 1.349 . S
C2094 C2096 1.327 . S
C2094 H2119 0.950 . S
C2095 C2094 1.349 . S
C2095 C2111 1.349 . S
C2096 C2094 1.327 . S
C2096 C2115 1.429 . S
C2096 H2120 0.950 . S
C2097 C2114 1.574 . S
C2097 C2116 1.368 . S
C2097 H2121 0.949 . S
H2098 C2102 0.949 . S
C2099 C2100 1.349 . S
C2099 C2101 1.327 . S
C2099 H2122 0.950 . S
C2100 C2099 1.349 . S
C2100 C2112 1.349 . S
C2101 C2099 1.327 . S
C2101 C2117 1.429 . S
C2101 H2123 0.950 . S
C2102 H2098 0.949 . S
C2102 C2110 1.574 . S
C2102 C2118 1.368 . S
H2103 C2111 0.950 . S
H2104 C2109 0.950 . S
H2105 C2110 0.949 . S
H2106 C2112 0.950 . S
H2107 C2113 0.950 . S
H2108 C2114 0.949 . S
C2109 H2104 0.950 . S
C2109 C2111 1.327 . S
C2109 C2115 1.429 . S
C2110 C2102 1.574 . S
C2110 H2105 0.949 . S
C2110 C2116 1.368 . S
C2111 C2095 1.349 . S
C2111 H2103 0.950 . S
C2111 C2109 1.327 . S
C2112 C2100 1.349 . S
C2112 H2106 0.950 . S
C2112 C2113 1.327 . S
C2113 H2107 0.950 . S
C2113 C2112 1.327 . S
C2113 C2117 1.429 . S
C2114 C2097 1.574 . S
C2114 H2108 0.949 . S
C2114 C2118 1.368 . S
C2115 C2096 1.429 . S
C2115 C2109 1.429 . S
C2115 C2116 1.523 . S
C2116 C2097 1.368 . S
C2116 C2110 1.368 . S
C2116 C2115 1.523 . S
C2117 C2101 1.429 . S
C2117 C2113 1.429 . S
C2117 C2118 1.523 . S
C2118 C2102 1.368 . S
C2118 C2114 1.368 . S
C2118 C2117 1.523 . S
H2119 C2094 0.950 . S
H2120 C2096 0.950 . S
H2121 C2097 0.949 . S
H2122 C2099 0.950 . S
H2123 C2101 0.950 . S
C2124 C2125 1.349 . S
C2124 C2126 1.327 . S
C2124 H2149 0.950 . S
C2125 C2124 1.349 . S
C2125 C2141 1.349 . S
C2126 C2124 1.327 . S
C2126 C2145 1.429 . S
C2126 H2150 0.950 . S
C2127 C2144 1.574 . S
C2127 C2146 1.368 . S
C2127 H2151 0.949 . S
H2128 C2132 0.949 . S
C2129 C2130 1.349 . S
C2129 C2131 1.327 . S
C2129 H2152 0.950 . S
C2130 C2129 1.349 . S
C2130 C2142 1.349 . S
C2131 C2129 1.327 . S
C2131 C2147 1.429 . S
C2131 H2153 0.950 . S
C2132 H2128 0.949 . S
C2132 C2140 1.574 . S
C2132 C2148 1.368 . S
H2133 C2141 0.950 . S
H2134 C2139 0.950 . S
H2135 C2140 0.949 . S
H2136 C2142 0.950 . S
H2137 C2143 0.950 . S
H2138 C2144 0.949 . S
C2139 H2134 0.950 . S
C2139 C2141 1.327 . S
C2139 C2145 1.429 . S
C2140 C2132 1.574 . S
C2140 H2135 0.949 . S
C2140 C2146 1.368 . S
C2141 C2125 1.349 . S
C2141 H2133 0.950 . S
C2141 C2139 1.327 . S
C2142 C2130 1.349 . S
C2142 H2136 0.950 . S
C2142 C2143 1.327 . S
C2143 H2137 0.950 . S
C2143 C2142 1.327 . S
C2143 C2147 1.429 . S
C2144 C2127 1.574 . S
C2144 H2138 0.949 . S
C2144 C2148 1.368 . S
C2145 C2126 1.429 . S
C2145 C2139 1.429 . S
C2145 C2146 1.523 . S
C2146 C2127 1.368 . S
C2146 C2140 1.368 . S
C2146 C2145 1.523 . S
C2147 C2131 1.429 . S
C2147 C2143 1.429 . S
C2147 C2148 1.523 . S
C2148 C2132 1.368 . S
C2148 C2144 1.368 . S
C2148 C2147 1.523 . S
H2149 C2124 0.950 . S
H2150 C2126 0.950 . S
H2151 C2127 0.949 . S
H2152 C2129 0.950 . S
H2153 C2131 0.950 . S
C2154 C2155 1.349 . S
C2154 C2156 1.327 . S
C2154 H2179 0.950 . S
C2155 C2154 1.349 . S
C2155 C2171 1.349 . S
C2156 C2154 1.327 . S
C2156 C2175 1.429 1_545 S
C2156 H2180 0.950 . S
C2157 C2174 1.574 . S
C2157 C2176 1.368 . S
C2157 H2181 0.949 . S
H2158 C2162 0.949 . S
C2159 C2160 1.349 . S
C2159 C2161 1.327 . S
C2159 H2182 0.950 . S
C2160 C2159 1.349 . S
C2160 C2172 1.349 1_556 S
C2161 C2159 1.327 . S
C2161 C2177 1.429 . S
C2161 H2183 0.950 . S
C2162 H2158 0.949 . S
C2162 C2170 1.574 . S
C2162 C2178 1.368 . S
H2163 C2171 0.950 . S
H2164 C2169 0.950 1_565 S
H2165 C2170 0.949 . S
H2166 C2172 0.950 . S
H2167 C2173 0.950 1_554 S
H2168 C2174 0.949 . S
C2169 H2164 0.950 1_545 S
C2169 C2171 1.327 . S
C2169 C2175 1.429 1_545 S
C2170 C2162 1.574 . S
C2170 H2165 0.949 . S
C2170 C2176 1.368 . S
C2171 C2155 1.349 . S
C2171 H2163 0.950 . S
C2171 C2169 1.327 . S
C2172 C2160 1.349 1_554 S
C2172 H2166 0.950 . S
C2172 C2173 1.327 1_554 S
C2173 H2167 0.950 1_556 S
C2173 C2172 1.327 1_556 S
C2173 C2177 1.429 . S
C2174 C2157 1.574 . S
C2174 H2168 0.949 . S
C2174 C2178 1.368 . S
C2175 C2156 1.429 1_565 S
C2175 C2169 1.429 1_565 S
C2175 C2176 1.523 . S
C2176 C2157 1.368 . S
C2176 C2170 1.368 . S
C2176 C2175 1.523 . S
C2177 C2161 1.429 . S
C2177 C2173 1.429 . S
C2177 C2178 1.523 . S
C2178 C2162 1.368 . S
C2178 C2174 1.368 . S
C2178 C2177 1.523 . S
H2179 C2154 0.950 . S
H2180 C2156 0.950 . S
H2181 C2157 0.949 . S
H2182 C2159 0.950 . S
H2183 C2161 0.950 . S
C2184 C2185 1.349 . S
C2184 C2186 1.327 . S
C2184 H2209 0.950 . S
C2185 C2184 1.349 . S
C2185 C2201 1.349 . S
C2186 C2184 1.327 . S
C2186 C2205 1.429 . S
C2186 H2210 0.950 . S
C2187 C2204 1.574 . S
C2187 C2206 1.368 . S
C2187 H2211 0.949 . S
H2188 C2192 0.949 . S
C2189 C2190 1.349 . S
C2189 C2191 1.327 . S
C2189 H2212 0.950 . S
C2190 C2189 1.349 . S
C2190 C2202 1.349 . S
C2191 C2189 1.327 . S
C2191 C2207 1.429 . S
C2191 H2213 0.950 . S
C2192 H2188 0.949 . S
C2192 C2200 1.574 . S
C2192 C2208 1.368 . S
H2193 C2201 0.950 . S
H2194 C2199 0.950 . S
H2195 C2200 0.949 . S
H2196 C2202 0.950 . S
H2197 C2203 0.950 . S
H2198 C2204 0.949 . S
C2199 H2194 0.950 . S
C2199 C2201 1.327 . S
C2199 C2205 1.429 . S
C2200 C2192 1.574 . S
C2200 H2195 0.949 . S
C2200 C2206 1.368 . S
C2201 C2185 1.349 . S
C2201 H2193 0.950 . S
C2201 C2199 1.327 . S
C2202 C2190 1.349 . S
C2202 H2196 0.950 . S
C2202 C2203 1.327 . S
C2203 H2197 0.950 . S
C2203 C2202 1.327 . S
C2203 C2207 1.429 . S
C2204 C2187 1.574 . S
C2204 H2198 0.949 . S
C2204 C2208 1.368 . S
C2205 C2186 1.429 . S
C2205 C2199 1.429 . S
C2205 C2206 1.523 . S
C2206 C2187 1.368 . S
C2206 C2200 1.368 . S
C2206 C2205 1.523 . S
C2207 C2191 1.429 . S
C2207 C2203 1.429 . S
C2207 C2208 1.523 . S
C2208 C2192 1.368 . S
C2208 C2204 1.368 . S
C2208 C2207 1.523 . S
H2209 C2184 0.950 . S
H2210 C2186 0.950 . S
H2211 C2187 0.949 . S
H2212 C2189 0.950 . S
H2213 C2191 0.950 . S
C2214 C2215 1.349 . S
C2214 C2216 1.327 . S
C2214 H2239 0.950 . S
C2215 C2214 1.349 . S
C2215 C2231 1.349 . S
C2216 C2214 1.327 . S
C2216 C2235 1.429 . S
C2216 H2240 0.950 . S
C2217 C2234 1.574 . S
C2217 C2236 1.368 . S
C2217 H2241 0.949 . S
H2218 C2222 0.949 . S
C2219 C2220 1.349 1_556 S
C2219 C2221 1.320 1_556 S
C2219 H2242 0.950 . S
C2220 C2219 1.349 1_554 S
C2220 C2232 1.349 . S
C2221 C2219 1.320 1_554 S
C2221 C2237 1.446 . S
C2221 H2243 0.939 1_554 S
C2222 H2218 0.949 . S
C2222 C2230 1.574 . S
C2222 C2238 1.368 . S
H2223 C2231 0.950 . S
H2224 C2229 0.950 . S
H2225 C2230 0.949 . S
H2226 C2232 0.950 . S
H2227 C2233 0.950 . S
H2228 C2234 0.949 . S
C2229 H2224 0.950 . S
C2229 C2231 1.327 . S
C2229 C2235 1.429 . S
C2230 C2222 1.574 . S
C2230 H2225 0.949 . S
C2230 C2236 1.368 . S
C2231 C2215 1.349 . S
C2231 H2223 0.950 . S
C2231 C2229 1.327 . S
C2232 C2220 1.349 . S
C2232 H2226 0.950 . S
C2232 C2233 1.327 . S
C2233 H2227 0.950 . S
C2233 C2232 1.327 . S
C2233 C2237 1.429 . S
C2234 C2217 1.574 . S
C2234 H2228 0.949 . S
C2234 C2238 1.368 . S
C2235 C2216 1.429 . S
C2235 C2229 1.429 . S
C2235 C2236 1.523 . S
C2236 C2217 1.368 . S
C2236 C2230 1.368 . S
C2236 C2235 1.523 . S
C2237 C2221 1.446 . S
C2237 C2233 1.429 . S
C2237 C2238 1.523 . S
C2238 C2222 1.368 . S
C2238 C2234 1.368 . S
C2238 C2237 1.523 . S
H2239 C2214 0.950 . S
H2240 C2216 0.950 . S
H2241 C2217 0.949 . S
H2242 C2219 0.950 . S
H2243 C2221 0.939 1_556 S
C2244 C2245 1.349 . S
C2244 C2246 1.327 . S
C2244 H2269 0.950 . S
C2245 C2244 1.349 . S
C2245 C2261 1.349 . S
C2246 C2244 1.327 . S
C2246 C2265 1.429 . S
C2246 H2270 0.950 . S
C2247 C2264 1.574 . S
C2247 C2266 1.368 . S
C2247 H2271 0.949 . S
H2248 C2252 0.949 . S
C2249 C2250 1.349 . S
C2249 C2251 1.327 . S
C2249 H2272 0.950 . S
C2250 C2249 1.349 . S
C2250 C2262 1.349 . S
C2251 C2249 1.327 . S
C2251 C2267 1.429 . S
C2251 H2273 0.950 . S
C2252 H2248 0.949 . S
C2252 C2260 1.574 . S
C2252 C2268 1.368 . S
H2253 C2261 0.950 . S
H2254 C2259 0.950 . S
H2255 C2260 0.949 . S
H2256 C2262 0.950 . S
H2257 C2263 0.950 . S
H2258 C2264 0.949 . S
C2259 H2254 0.950 . S
C2259 C2261 1.327 . S
C2259 C2265 1.429 . S
C2260 C2252 1.574 . S
C2260 H2255 0.949 . S
C2260 C2266 1.368 . S
C2261 C2245 1.349 . S
C2261 H2253 0.950 . S
C2261 C2259 1.327 . S
C2262 C2250 1.349 . S
C2262 H2256 0.950 . S
C2262 C2263 1.327 . S
C2263 H2257 0.950 . S
C2263 C2262 1.327 . S
C2263 C2267 1.429 . S
C2264 C2247 1.574 . S
C2264 H2258 0.949 . S
C2264 C2268 1.368 . S
C2265 C2246 1.429 . S
C2265 C2259 1.429 . S
C2265 C2266 1.523 . S
C2266 C2247 1.368 . S
C2266 C2260 1.368 . S
C2266 C2265 1.523 . S
C2267 C2251 1.429 . S
C2267 C2263 1.429 . S
C2267 C2268 1.523 . S
C2268 C2252 1.368 . S
C2268 C2264 1.368 . S
C2268 C2267 1.523 . S
H2269 C2244 0.950 . S
H2270 C2246 0.950 . S
H2271 C2247 0.949 . S
H2272 C2249 0.950 . S
H2273 C2251 0.950 . S
C2274 C2275 1.349 . S
C2274 C2276 1.327 . S
C2274 H2299 0.950 . S
C2275 C2274 1.349 . S
C2275 C2291 1.349 . S
C2276 C2274 1.327 . S
C2276 C2295 1.429 . S
C2276 H2300 0.950 . S
C2277 C2294 1.574 . S
C2277 C2296 1.368 . S
C2277 H2301 0.949 . S
H2278 C2282 0.949 . S
C2279 C2280 1.349 . S
C2279 C2281 1.327 . S
C2279 H2302 0.950 . S
C2280 C2279 1.349 . S
C2280 C2292 1.349 . S
C2281 C2279 1.327 . S
C2281 C2297 1.427 1_565 S
C2281 H2303 0.950 . S
C2282 H2278 0.949 . S
C2282 C2290 1.574 . S
C2282 C2298 1.368 . S
H2283 C2291 0.950 . S
H2284 C2289 0.950 . S
H2285 C2290 0.949 . S
H2286 C2292 0.950 . S
H2287 C2293 0.950 1_545 S
H2288 C2294 0.949 . S
C2289 H2284 0.950 . S
C2289 C2291 1.327 . S
C2289 C2295 1.429 . S
C2290 C2282 1.574 . S
C2290 H2285 0.949 . S
C2290 C2296 1.368 . S
C2291 C2275 1.349 . S
C2291 H2283 0.950 . S
C2291 C2289 1.327 . S
C2292 C2280 1.349 . S
C2292 H2286 0.950 . S
C2292 C2293 1.327 . S
C2293 H2287 0.950 1_565 S
C2293 C2292 1.327 . S
C2293 C2297 1.428 1_565 S
C2294 C2277 1.574 . S
C2294 H2288 0.949 . S
C2294 C2298 1.368 . S
C2295 C2276 1.429 . S
C2295 C2289 1.429 . S
C2295 C2296 1.523 . S
C2296 C2277 1.368 . S
C2296 C2290 1.368 . S
C2296 C2295 1.523 . S
C2297 C2281 1.427 1_545 S
C2297 C2293 1.428 1_545 S
C2297 C2298 1.525 . S
C2298 C2282 1.368 . S
C2298 C2294 1.368 . S
C2298 C2297 1.525 . S
H2299 C2274 0.950 . S
H2300 C2276 0.950 . S
H2301 C2277 0.949 . S
H2302 C2279 0.950 . S
H2303 C2281 0.950 . S
C2304 C2305 1.349 . S
C2304 C2306 1.327 . S
C2304 H2329 0.950 . S
C2305 C2304 1.349 . S
C2305 C2321 1.349 . S
C2306 C2304 1.327 . S
C2306 C2325 1.429 . S
C2306 H2330 0.950 . S
C2307 C2324 1.574 . S
C2307 C2326 1.368 . S
C2307 H2331 0.949 . S
H2308 C2312 0.949 . S
C2309 C2310 1.349 . S
C2309 C2311 1.327 . S
C2309 H2332 0.950 . S
C2310 C2309 1.349 . S
C2310 C2322 1.349 . S
C2311 C2309 1.327 . S
C2311 C2327 1.429 . S
C2311 H2333 0.950 . S
C2312 H2308 0.949 . S
C2312 C2320 1.574 . S
C2312 C2328 1.368 . S
H2313 C2321 0.950 . S
H2314 C2319 0.950 . S
H2315 C2320 0.949 . S
H2316 C2322 0.950 . S
H2317 C2323 0.950 . S
H2318 C2324 0.949 . S
C2319 H2314 0.950 . S
C2319 C2321 1.327 . S
C2319 C2325 1.429 . S
C2320 C2312 1.574 . S
C2320 H2315 0.949 . S
C2320 C2326 1.368 . S
C2321 C2305 1.349 . S
C2321 H2313 0.950 . S
C2321 C2319 1.327 . S
C2322 C2310 1.349 . S
C2322 H2316 0.950 . S
C2322 C2323 1.327 . S
C2323 H2317 0.950 . S
C2323 C2322 1.327 . S
C2323 C2327 1.429 . S
C2324 C2307 1.574 . S
C2324 H2318 0.949 . S
C2324 C2328 1.368 . S
C2325 C2306 1.429 . S
C2325 C2319 1.429 . S
C2325 C2326 1.523 . S
C2326 C2307 1.368 . S
C2326 C2320 1.368 . S
C2326 C2325 1.523 . S
C2327 C2311 1.429 . S
C2327 C2323 1.429 . S
C2327 C2328 1.523 . S
C2328 C2312 1.368 . S
C2328 C2324 1.368 . S
C2328 C2327 1.523 . S
H2329 C2304 0.950 . S
H2330 C2306 0.950 . S
H2331 C2307 0.949 . S
H2332 C2309 0.950 . S
H2333 C2311 0.950 . S
C2334 C2335 1.349 . S
C2334 C2336 1.327 . S
C2334 H2359 0.950 . S
C2335 C2334 1.349 . S
C2335 C2351 1.349 . S
C2336 C2334 1.327 . S
C2336 C2355 1.429 1_455 S
C2336 H2360 0.952 1_455 S
C2337 C2354 1.574 . S
C2337 C2356 1.368 . S
C2337 H2361 0.949 . S
H2338 C2342 0.949 . S
C2339 C2340 1.349 . S
C2339 C2341 1.327 . S
C2339 H2362 0.950 . S
C2340 C2339 1.349 . S
C2340 C2352 1.349 . S
C2341 C2339 1.327 . S
C2341 C2357 1.429 . S
C2341 H2363 0.950 . S
C2342 H2338 0.949 . S
C2342 C2350 1.574 . S
C2342 C2358 1.368 . S
H2343 C2351 0.950 . S
H2344 C2349 0.950 . S
H2345 C2350 0.949 . S
H2346 C2352 0.950 . S
H2347 C2353 0.950 . S
H2348 C2354 0.949 . S
C2349 H2344 0.950 . S
C2349 C2351 1.327 . S
C2349 C2355 1.429 1_455 S
C2350 C2342 1.574 . S
C2350 H2345 0.949 . S
C2350 C2356 1.368 . S
C2351 C2335 1.349 . S
C2351 H2343 0.950 . S
C2351 C2349 1.327 . S
C2352 C2340 1.349 . S
C2352 H2346 0.950 . S
C2352 C2353 1.327 . S
C2353 H2347 0.950 . S
C2353 C2352 1.327 . S
C2353 C2357 1.429 . S
C2354 C2337 1.574 . S
C2354 H2348 0.949 . S
C2354 C2358 1.368 . S
C2355 C2336 1.429 1_655 S
C2355 C2349 1.429 1_655 S
C2355 C2356 1.523 . S
C2356 C2337 1.368 . S
C2356 C2350 1.368 . S
C2356 C2355 1.523 . S
C2357 C2341 1.429 . S
C2357 C2353 1.429 . S
C2357 C2358 1.523 . S
C2358 C2342 1.368 . S
C2358 C2354 1.368 . S
C2358 C2357 1.523 . S
H2359 C2334 0.950 . S
H2360 C2336 0.952 1_655 S
H2361 C2337 0.949 . S
H2362 C2339 0.950 . S
H2363 C2341 0.950 . S
C2364 C2365 1.349 . S
C2364 C2366 1.327 . S
C2364 H2389 0.950 . S
C2365 C2364 1.349 . S
C2365 C2381 1.349 . S
C2366 C2364 1.327 . S
C2366 C2385 1.429 . S
C2366 H2390 0.950 . S
C2367 C2384 1.574 . S
C2367 C2386 1.368 . S
C2367 H2391 0.949 . S
H2368 C2372 0.949 . S
C2369 C2370 1.349 1_556 S
C2369 C2371 1.327 1_556 S
C2369 H2392 0.950 . S
C2370 C2369 1.349 1_554 S
C2370 C2382 1.349 . S
C2371 C2369 1.327 1_554 S
C2371 C2387 1.429 . S
C2371 H2393 0.950 1_554 S
C2372 H2368 0.949 . S
C2372 C2380 1.574 . S
C2372 C2388 1.368 . S
H2373 C2381 0.950 . S
H2374 C2379 0.950 . S
H2375 C2380 0.949 . S
H2376 C2382 0.950 . S
H2377 C2383 0.950 . S
H2378 C2384 0.949 . S
C2379 H2374 0.950 . S
C2379 C2381 1.327 . S
C2379 C2385 1.429 . S
C2380 C2372 1.574 . S
C2380 H2375 0.949 . S
C2380 C2386 1.368 . S
C2381 C2365 1.349 . S
C2381 H2373 0.950 . S
C2381 C2379 1.327 . S
C2382 C2370 1.349 . S
C2382 H2376 0.950 . S
C2382 C2383 1.327 . S
C2383 H2377 0.950 . S
C2383 C2382 1.327 . S
C2383 C2387 1.429 . S
C2384 C2367 1.574 . S
C2384 H2378 0.949 . S
C2384 C2388 1.368 . S
C2385 C2366 1.429 . S
C2385 C2379 1.429 . S
C2385 C2386 1.523 . S
C2386 C2367 1.368 . S
C2386 C2380 1.368 . S
C2386 C2385 1.523 . S
C2387 C2371 1.429 . S
C2387 C2383 1.429 . S
C2387 C2388 1.523 . S
C2388 C2372 1.368 . S
C2388 C2384 1.368 . S
C2388 C2387 1.523 . S
H2389 C2364 0.950 . S
H2390 C2366 0.950 . S
H2391 C2367 0.949 . S
H2392 C2369 0.950 . S
H2393 C2371 0.950 1_556 S
C2394 C2395 1.349 . S
C2394 C2396 1.327 . S
C2394 H2419 0.950 . S
C2395 C2394 1.349 . S
C2395 C2411 1.349 1_545 S
C2396 C2394 1.327 . S
C2396 C2415 1.429 . S
C2396 H2420 0.950 . S
C2397 C2414 1.574 . S
C2397 C2416 1.368 1_565 S
C2397 H2421 0.949 . S
H2398 C2402 0.949 . S
C2399 C2400 1.349 . S
C2399 C2401 1.327 1_455 S
C2399 H2422 0.950 1_545 S
C2400 C2399 1.349 . S
C2400 C2412 1.349 . S
C2401 C2399 1.327 1_655 S
C2401 C2417 1.429 . S
C2401 H2423 0.950 1_545 S
C2402 H2398 0.949 . S
C2402 C2410 1.574 . S
C2402 C2418 1.368 . S
H2403 C2411 0.950 . S
H2404 C2409 0.950 . S
H2405 C2410 0.949 . S
H2406 C2412 0.950 . S
H2407 C2413 0.950 . S
H2408 C2414 0.948 . S
C2409 H2404 0.950 . S
C2409 C2411 1.327 . S
C2409 C2415 1.429 1_565 S
C2410 C2402 1.574 . S
C2410 H2405 0.949 . S
C2410 C2416 1.368 . S
C2411 C2395 1.349 1_565 S
C2411 H2403 0.950 . S
C2411 C2409 1.327 . S
C2412 C2400 1.349 . S
C2412 H2406 0.950 . S
C2412 C2413 1.327 1_455 S
C2413 H2407 0.950 . S
C2413 C2412 1.327 1_655 S
C2413 C2417 1.429 . S
C2414 C2397 1.574 . S
C2414 H2408 0.948 . S
C2414 C2418 1.370 1_565 S
C2415 C2396 1.429 . S
C2415 C2409 1.429 1_545 S
C2415 C2416 1.523 . S
C2416 C2397 1.368 1_545 S
C2416 C2410 1.368 . S
C2416 C2415 1.523 . S
C2417 C2401 1.429 . S
C2417 C2413 1.429 . S
C2417 C2418 1.523 . S
C2418 C2402 1.368 . S
C2418 C2414 1.370 1_545 S
C2418 C2417 1.523 . S
H2419 C2394 0.950 . S
H2420 C2396 0.950 . S
H2421 C2397 0.949 . S
H2422 C2399 0.950 1_565 S
H2423 C2401 0.950 1_565 S
C2424 C2425 1.349 . S
C2424 C2426 1.327 . S
C2424 H2449 0.950 . S
C2425 C2424 1.349 . S
C2425 C2441 1.349 . S
C2426 C2424 1.327 . S
C2426 C2445 1.429 . S
C2426 H2450 0.950 . S
C2427 C2444 1.574 . S
C2427 C2446 1.368 . S
C2427 H2451 0.949 . S
H2428 C2432 0.949 . S
C2429 C2430 1.349 . S
C2429 C2431 1.327 . S
C2429 H2452 0.950 . S
C2430 C2429 1.349 . S
C2430 C2442 1.349 . S
C2431 C2429 1.327 . S
C2431 C2447 1.429 . S
C2431 H2453 0.950 . S
C2432 H2428 0.949 . S
C2432 C2440 1.574 . S
C2432 C2448 1.368 . S
H2433 C2441 0.950 . S
H2434 C2439 0.950 . S
H2435 C2440 0.949 . S
H2436 C2442 0.950 . S
H2437 C2443 0.950 . S
H2438 C2444 0.949 . S
C2439 H2434 0.950 . S
C2439 C2441 1.327 . S
C2439 C2445 1.429 . S
C2440 C2432 1.574 . S
C2440 H2435 0.949 . S
C2440 C2446 1.368 . S
C2441 C2425 1.349 . S
C2441 H2433 0.950 . S
C2441 C2439 1.327 . S
C2442 C2430 1.349 . S
C2442 H2436 0.950 . S
C2442 C2443 1.327 . S
C2443 H2437 0.950 . S
C2443 C2442 1.327 . S
C2443 C2447 1.429 . S
C2444 C2427 1.574 . S
C2444 H2438 0.949 . S
C2444 C2448 1.368 . S
C2445 C2426 1.429 . S
C2445 C2439 1.429 . S
C2445 C2446 1.523 . S
C2446 C2427 1.368 . S
C2446 C2440 1.368 . S
C2446 C2445 1.523 . S
C2447 C2431 1.429 . S
C2447 C2443 1.429 . S
C2447 C2448 1.523 . S
C2448 C2432 1.368 . S
C2448 C2444 1.368 . S
C2448 C2447 1.523 . S
H2449 C2424 0.950 . S
H2450 C2426 0.950 . S
H2451 C2427 0.949 . S
H2452 C2429 0.950 . S
H2453 C2431 0.950 . S
C2454 C2455 1.349 . S
C2454 C2456 1.327 . S
C2454 H2479 0.950 . S
C2455 C2454 1.349 . S
C2455 C2471 1.349 . S
C2456 C2454 1.327 . S
C2456 C2475 1.429 . S
C2456 H2480 0.950 . S
C2457 C2474 1.574 . S
C2457 C2476 1.368 . S
C2457 H2481 0.949 . S
H2458 C2462 0.949 . S
C2459 C2460 1.349 . S
C2459 C2461 1.327 . S
C2459 H2482 0.950 . S
C2460 C2459 1.349 . S
C2460 C2472 1.349 . S
C2461 C2459 1.327 . S
C2461 C2477 1.429 . S
C2461 H2483 0.950 . S
C2462 H2458 0.949 . S
C2462 C2470 1.574 . S
C2462 C2478 1.368 . S
H2463 C2471 0.950 . S
H2464 C2469 0.950 . S
H2465 C2470 0.949 . S
H2466 C2472 0.950 . S
H2467 C2473 0.950 . S
H2468 C2474 0.949 . S
C2469 H2464 0.950 . S
C2469 C2471 1.327 . S
C2469 C2475 1.429 . S
C2470 C2462 1.574 . S
C2470 H2465 0.949 . S
C2470 C2476 1.368 . S
C2471 C2455 1.349 . S
C2471 H2463 0.950 . S
C2471 C2469 1.327 . S
C2472 C2460 1.349 . S
C2472 H2466 0.950 . S
C2472 C2473 1.327 . S
C2473 H2467 0.950 . S
C2473 C2472 1.327 . S
C2473 C2477 1.429 . S
C2474 C2457 1.574 . S
C2474 H2468 0.949 . S
C2474 C2478 1.368 . S
C2475 C2456 1.429 . S
C2475 C2469 1.429 . S
C2475 C2476 1.523 . S
C2476 C2457 1.368 . S
C2476 C2470 1.368 . S
C2476 C2475 1.523 . S
C2477 C2461 1.429 . S
C2477 C2473 1.429 . S
C2477 C2478 1.523 . S
C2478 C2462 1.368 . S
C2478 C2474 1.368 . S
C2478 C2477 1.523 . S
H2479 C2454 0.950 . S
H2480 C2456 0.950 . S
H2481 C2457 0.949 . S
H2482 C2459 0.950 . S
H2483 C2461 0.950 . S
C2484 C2485 1.349 . S
C2484 C2486 1.327 1_556 S
C2484 H2509 0.950 1_556 S
C2485 C2484 1.349 . S
C2485 C2501 1.349 . S
C2486 C2484 1.327 1_554 S
C2486 C2505 1.429 1_554 S
C2486 H2510 0.950 . S
C2487 C2504 1.574 . S
C2487 C2506 1.368 . S
C2487 H2511 0.949 . S
H2488 C2492 0.949 . S
C2489 C2490 1.349 1_556 S
C2489 C2491 1.327 . S
C2489 H2512 0.950 . S
C2490 C2489 1.349 1_554 S
C2490 C2502 1.349 . S
C2491 C2489 1.327 . S
C2491 C2507 1.429 1_556 S
C2491 H2513 0.950 . S
C2492 H2488 0.949 . S
C2492 C2500 1.574 . S
C2492 C2508 1.408 . S
H2493 C2501 0.950 . S
H2494 C2499 0.950 . S
H2495 C2500 0.949 . S
H2496 C2502 0.950 . S
H2497 C2503 0.950 . S
H2498 C2504 0.949 . S
C2499 H2494 0.950 . S
C2499 C2501 1.327 . S
C2499 C2505 1.429 . S
C2500 C2492 1.574 . S
C2500 H2495 0.949 . S
C2500 C2506 1.368 1_554 S
C2501 C2485 1.349 . S
C2501 H2493 0.950 . S
C2501 C2499 1.327 . S
C2502 C2490 1.349 . S
C2502 H2496 0.950 . S
C2502 C2503 1.327 . S
C2503 H2497 0.950 . S
C2503 C2502 1.327 . S
C2503 C2507 1.429 . S
C2504 C2487 1.574 . S
C2504 H2498 0.949 . S
C2504 C2508 1.321 1_556 S
C2505 C2486 1.429 1_556 S
C2505 C2499 1.429 . S
C2505 C2506 1.523 . S
C2506 C2487 1.368 . S
C2506 C2500 1.368 1_556 S
C2506 C2505 1.523 . S
C2507 C2491 1.429 1_554 S
C2507 C2503 1.429 . S
C2507 C2508 1.535 . S
C2508 C2492 1.408 . S
C2508 C2504 1.321 1_554 S
C2508 C2507 1.535 . S
H2509 C2484 0.950 1_554 S
H2510 C2486 0.950 . S
H2511 C2487 0.949 . S
H2512 C2489 0.950 . S
H2513 C2491 0.950 . S
C2514 C2515 1.349 . S
C2514 C2516 1.327 . S
C2514 H2539 0.950 . S
C2515 C2514 1.349 . S
C2515 C2531 1.349 . S
C2516 C2514 1.327 . S
C2516 C2535 1.429 . S
C2516 H2540 0.950 . S
C2517 C2534 1.574 . S
C2517 C2536 1.368 . S
C2517 H2541 0.949 . S
H2518 C2522 0.949 . S
C2519 C2520 1.349 . S
C2519 C2521 1.327 . S
C2519 H2542 0.950 . S
C2520 C2519 1.349 . S
C2520 C2532 1.349 . S
C2521 C2519 1.327 . S
C2521 C2537 1.429 . S
C2521 H2543 0.950 . S
C2522 H2518 0.949 . S
C2522 C2530 1.574 . S
C2522 C2538 1.368 . S
H2523 C2531 0.950 . S
H2524 C2529 0.950 . S
H2525 C2530 0.949 . S
H2526 C2532 0.950 . S
H2527 C2533 0.950 . S
H2528 C2534 0.949 . S
C2529 H2524 0.950 . S
C2529 C2531 1.327 . S
C2529 C2535 1.429 . S
C2530 C2522 1.574 . S
C2530 H2525 0.949 . S
C2530 C2536 1.368 . S
C2531 C2515 1.349 . S
C2531 H2523 0.950 . S
C2531 C2529 1.327 . S
C2532 C2520 1.349 . S
C2532 H2526 0.950 . S
C2532 C2533 1.327 . S
C2533 H2527 0.950 . S
C2533 C2532 1.327 . S
C2533 C2537 1.429 . S
C2534 C2517 1.574 . S
C2534 H2528 0.949 . S
C2534 C2538 1.368 . S
C2535 C2516 1.429 . S
C2535 C2529 1.429 . S
C2535 C2536 1.523 . S
C2536 C2517 1.368 . S
C2536 C2530 1.368 . S
C2536 C2535 1.523 . S
C2537 C2521 1.429 . S
C2537 C2533 1.429 . S
C2537 C2538 1.523 . S
C2538 C2522 1.368 . S
C2538 C2534 1.368 . S
C2538 C2537 1.523 . S
H2539 C2514 0.950 . S
H2540 C2516 0.950 . S
H2541 C2517 0.949 . S
H2542 C2519 0.950 . S
H2543 C2521 0.950 . S
C2544 C2545 1.349 . S
C2544 C2546 1.327 . S
C2544 H2569 0.950 . S
C2545 C2544 1.349 . S
C2545 C2561 1.349 . S
C2546 C2544 1.327 . S
C2546 C2565 1.429 . S
C2546 H2570 0.950 . S
C2547 C2564 1.574 . S
C2547 C2566 1.368 . S
C2547 H2571 0.949 . S
H2548 C2552 0.949 . S
C2549 C2550 1.349 . S
C2549 C2551 1.327 . S
C2549 H2572 0.950 . S
C2550 C2549 1.349 . S
C2550 C2562 1.349 . S
C2551 C2549 1.327 . S
C2551 C2567 1.429 . S
C2551 H2573 0.950 . S
C2552 H2548 0.949 . S
C2552 C2560 1.574 . S
C2552 C2568 1.368 . S
H2553 C2561 0.950 . S
H2554 C2559 0.950 . S
H2555 C2560 0.949 . S
H2556 C2562 0.950 . S
H2557 C2563 0.950 . S
H2558 C2564 0.949 . S
C2559 H2554 0.950 . S
C2559 C2561 1.327 . S
C2559 C2565 1.429 . S
C2560 C2552 1.574 . S
C2560 H2555 0.949 . S
C2560 C2566 1.368 . S
C2561 C2545 1.349 . S
C2561 H2553 0.950 . S
C2561 C2559 1.327 . S
C2562 C2550 1.349 . S
C2562 H2556 0.950 . S
C2562 C2563 1.327 . S
C2563 H2557 0.950 . S
C2563 C2562 1.327 . S
C2563 C2567 1.429 . S
C2564 C2547 1.574 . S
C2564 H2558 0.949 . S
C2564 C2568 1.368 . S
C2565 C2546 1.429 . S
C2565 C2559 1.429 . S
C2565 C2566 1.523 . S
C2566 C2547 1.368 . S
C2566 C2560 1.368 . S
C2566 C2565 1.523 . S
C2567 C2551 1.429 . S
C2567 C2563 1.429 . S
C2567 C2568 1.523 . S
C2568 C2552 1.368 . S
C2568 C2564 1.368 . S
C2568 C2567 1.523 . S
H2569 C2544 0.950 . S
H2570 C2546 0.950 . S
H2571 C2547 0.949 . S
H2572 C2549 0.950 . S
H2573 C2551 0.950 . S
C2574 C2575 1.349 1_655 S
C2574 C2576 1.327 1_655 S
C2574 H2599 0.950 . S
C2575 C2574 1.349 1_455 S
C2575 C2591 1.349 . S
C2576 C2574 1.327 1_455 S
C2576 C2595 1.429 . S
C2576 H2600 0.950 1_455 S
C2577 C2594 1.574 . S
C2577 C2596 1.368 . S
C2577 H2601 0.949 . S
H2578 C2582 0.949 . S
C2579 C2580 1.349 . S
C2579 C2581 1.327 . S
C2579 H2602 0.950 . S
C2580 C2579 1.349 . S
C2580 C2592 1.349 . S
C2581 C2579 1.327 . S
C2581 C2597 1.429 . S
C2581 H2603 0.950 . S
C2582 H2578 0.949 . S
C2582 C2590 1.574 . S
C2582 C2598 1.368 . S
H2583 C2591 0.950 . S
H2584 C2589 0.950 . S
H2585 C2590 0.949 . S
H2586 C2592 0.950 . S
H2587 C2593 0.950 . S
H2588 C2594 0.949 . S
C2589 H2584 0.950 . S
C2589 C2591 1.327 . S
C2589 C2595 1.429 . S
C2590 C2582 1.574 . S
C2590 H2585 0.949 . S
C2590 C2596 1.368 . S
C2591 C2575 1.349 . S
C2591 H2583 0.950 . S
C2591 C2589 1.327 . S
C2592 C2580 1.349 . S
C2592 H2586 0.950 . S
C2592 C2593 1.327 . S
C2593 H2587 0.950 . S
C2593 C2592 1.327 . S
C2593 C2597 1.429 . S
C2594 C2577 1.574 . S
C2594 H2588 0.949 . S
C2594 C2598 1.368 . S
C2595 C2576 1.429 . S
C2595 C2589 1.429 . S
C2595 C2596 1.523 . S
C2596 C2577 1.368 . S
C2596 C2590 1.368 . S
C2596 C2595 1.523 . S
C2597 C2581 1.429 . S
C2597 C2593 1.429 . S
C2597 C2598 1.523 . S
C2598 C2582 1.368 . S
C2598 C2594 1.368 . S
C2598 C2597 1.523 . S
H2599 C2574 0.950 . S
H2600 C2576 0.950 1_655 S
H2601 C2577 0.949 . S
H2602 C2579 0.950 . S
H2603 C2581 0.950 . S
C2604 C2605 1.349 . S
C2604 C2606 1.327 . S
C2604 H2629 0.950 . S
C2605 C2604 1.349 . S
C2605 C2621 1.349 . S
C2606 C2604 1.327 . S
C2606 C2625 1.429 . S
C2606 H2630 0.950 . S
C2607 C2624 1.574 . S
C2607 C2626 1.368 . S
C2607 H2631 0.949 . S
H2608 C2612 0.949 . S
C2609 C2610 1.349 . S
C2609 C2611 1.327 . S
C2609 H2632 0.950 . S
C2610 C2609 1.349 . S
C2610 C2622 1.349 . S
C2611 C2609 1.327 . S
C2611 C2627 1.429 . S
C2611 H2633 0.950 . S
C2612 H2608 0.949 . S
C2612 C2620 1.574 . S
C2612 C2628 1.368 . S
H2613 C2621 0.950 . S
H2614 C2619 0.950 . S
H2615 C2620 0.949 . S
H2616 C2622 0.950 . S
H2617 C2623 0.950 . S
H2618 C2624 0.949 . S
C2619 H2614 0.950 . S
C2619 C2621 1.327 . S
C2619 C2625 1.429 . S
C2620 C2612 1.574 . S
C2620 H2615 0.949 . S
C2620 C2626 1.368 . S
C2621 C2605 1.349 . S
C2621 H2613 0.950 . S
C2621 C2619 1.327 . S
C2622 C2610 1.349 . S
C2622 H2616 0.950 . S
C2622 C2623 1.327 . S
C2623 H2617 0.950 . S
C2623 C2622 1.327 . S
C2623 C2627 1.429 . S
C2624 C2607 1.574 . S
C2624 H2618 0.949 . S
C2624 C2628 1.368 . S
C2625 C2606 1.429 . S
C2625 C2619 1.429 . S
C2625 C2626 1.523 . S
C2626 C2607 1.368 . S
C2626 C2620 1.368 . S
C2626 C2625 1.523 . S
C2627 C2611 1.429 . S
C2627 C2623 1.429 . S
C2627 C2628 1.523 . S
C2628 C2612 1.368 . S
C2628 C2624 1.368 . S
C2628 C2627 1.523 . S
H2629 C2604 0.950 . S
H2630 C2606 0.950 . S
H2631 C2607 0.949 . S
H2632 C2609 0.950 . S
H2633 C2611 0.950 . S
C2634 C2635 1.349 . S
C2634 C2636 1.327 . S
C2634 H2659 0.950 . S
C2635 C2634 1.349 . S
C2635 C2651 1.349 1_455 S
C2636 C2634 1.327 . S
C2636 C2655 1.429 . S
C2636 H2660 0.950 . S
C2637 C2654 1.574 . S
C2637 C2656 1.368 1_655 S
C2637 H2661 0.949 . S
H2638 C2642 0.949 . S
C2639 C2640 1.349 1_655 S
C2639 C2641 1.327 . S
C2639 H2662 0.950 . S
C2640 C2639 1.349 1_455 S
C2640 C2652 1.349 . S
C2641 C2639 1.327 . S
C2641 C2657 1.429 1_655 S
C2641 H2663 0.950 . S
C2642 H2638 0.949 . S
C2642 C2650 1.574 . S
C2642 C2658 1.368 . S
H2643 C2651 0.950 . S
H2644 C2649 0.950 . S
H2645 C2650 0.949 . S
H2646 C2652 0.950 . S
H2647 C2653 0.950 . S
H2648 C2654 0.949 . S
C2649 H2644 0.950 . S
C2649 C2651 1.327 . S
C2649 C2655 1.429 1_655 S
C2650 C2642 1.574 . S
C2650 H2645 0.949 . S
C2650 C2656 1.368 . S
C2651 C2635 1.349 1_655 S
C2651 H2643 0.950 . S
C2651 C2649 1.327 . S
C2652 C2640 1.349 . S
C2652 H2646 0.950 . S
C2652 C2653 1.327 . S
C2653 H2647 0.950 . S
C2653 C2652 1.327 . S
C2653 C2657 1.429 . S
C2654 C2637 1.574 . S
C2654 H2648 0.949 . S
C2654 C2658 1.368 1_655 S
C2655 C2636 1.429 . S
C2655 C2649 1.429 1_455 S
C2655 C2656 1.523 . S
C2656 C2637 1.368 1_455 S
C2656 C2650 1.368 . S
C2656 C2655 1.523 . S
C2657 C2641 1.429 1_455 S
C2657 C2653 1.429 . S
C2657 C2658 1.523 . S
C2658 C2642 1.368 . S
C2658 C2654 1.368 1_455 S
C2658 C2657 1.523 . S
H2659 C2634 0.950 . S
H2660 C2636 0.950 . S
H2661 C2637 0.949 . S
H2662 C2639 0.950 . S
H2663 C2641 0.950 . S
C2664 C2665 1.349 . S
C2664 C2666 1.327 . S
C2664 H2689 0.950 . S
C2665 C2664 1.349 . S
C2665 C2681 1.349 . S
C2666 C2664 1.327 . S
C2666 C2685 1.429 . S
C2666 H2690 0.950 . S
C2667 C2684 1.574 . S
C2667 C2686 1.368 . S
C2667 H2691 0.949 . S
H2668 C2672 0.949 . S
C2669 C2670 1.366 . S
C2669 C2671 1.327 . S
C2669 H2692 0.952 . S
C2670 C2669 1.366 . S
C2670 C2682 1.374 . S
C2671 C2669 1.327 . S
C2671 C2687 1.429 . S
C2671 H2693 0.950 . S
C2672 H2668 0.949 . S
C2672 C2680 1.574 . S
C2672 C2688 1.368 . S
H2673 C2681 0.950 . S
H2674 C2679 0.950 . S
H2675 C2680 0.949 . S
H2676 C2682 0.950 . S
H2677 C2683 0.950 . S
H2678 C2684 0.949 . S
C2679 H2674 0.950 . S
C2679 C2681 1.327 . S
C2679 C2685 1.429 . S
C2680 C2672 1.574 . S
C2680 H2675 0.949 . S
C2680 C2686 1.368 . S
C2681 C2665 1.349 . S
C2681 H2673 0.950 . S
C2681 C2679 1.327 . S
C2682 C2670 1.374 . S
C2682 H2676 0.950 . S
C2682 C2683 1.327 . S
C2683 H2677 0.950 . S
C2683 C2682 1.327 . S
C2683 C2687 1.429 . S
C2684 C2667 1.574 . S
C2684 H2678 0.949 . S
C2684 C2688 1.368 . S
C2685 C2666 1.429 . S
C2685 C2679 1.429 . S
C2685 C2686 1.523 . S
C2686 C2667 1.368 . S
C2686 C2680 1.368 . S
C2686 C2685 1.523 . S
C2687 C2671 1.429 . S
C2687 C2683 1.429 . S
C2687 C2688 1.523 . S
C2688 C2672 1.368 . S
C2688 C2684 1.368 . S
C2688 C2687 1.523 . S
H2689 C2664 0.950 . S
H2690 C2666 0.950 . S
H2691 C2667 0.949 . S
H2692 C2669 0.952 . S
H2693 C2671 0.950 . S
C2694 C2695 1.349 . S
C2694 C2696 1.327 . S
C2694 H2719 0.950 . S
C2695 C2694 1.349 . S
C2695 C2711 1.349 . S
C2696 C2694 1.327 . S
C2696 C2715 1.429 . S
C2696 H2720 0.950 . S
C2697 C2714 1.574 . S
C2697 C2716 1.368 . S
C2697 H2721 0.949 . S
H2698 C2702 0.949 . S
C2699 C2700 1.349 . S
C2699 C2701 1.327 . S
C2699 H2722 0.950 . S
C2700 C2699 1.349 . S
C2700 C2712 1.349 . S
C2701 C2699 1.327 . S
C2701 C2717 1.429 . S
C2701 H2723 0.950 . S
C2702 H2698 0.949 . S
C2702 C2710 1.574 . S
C2702 C2718 1.368 . S
H2703 C2711 0.950 . S
H2704 C2709 0.950 . S
H2705 C2710 0.949 . S
H2706 C2712 0.950 . S
H2707 C2713 0.950 . S
H2708 C2714 0.949 . S
C2709 H2704 0.950 . S
C2709 C2711 1.327 . S
C2709 C2715 1.429 . S
C2710 C2702 1.574 . S
C2710 H2705 0.949 . S
C2710 C2716 1.368 . S
C2711 C2695 1.349 . S
C2711 H2703 0.950 . S
C2711 C2709 1.327 . S
C2712 C2700 1.349 . S
C2712 H2706 0.950 . S
C2712 C2713 1.327 . S
C2713 H2707 0.950 . S
C2713 C2712 1.327 . S
C2713 C2717 1.429 . S
C2714 C2697 1.574 . S
C2714 H2708 0.949 . S
C2714 C2718 1.368 . S
C2715 C2696 1.429 . S
C2715 C2709 1.429 . S
C2715 C2716 1.523 . S
C2716 C2697 1.368 . S
C2716 C2710 1.368 . S
C2716 C2715 1.523 . S
C2717 C2701 1.429 . S
C2717 C2713 1.429 . S
C2717 C2718 1.523 . S
C2718 C2702 1.368 . S
C2718 C2714 1.368 . S
C2718 C2717 1.523 . S
H2719 C2694 0.950 . S
H2720 C2696 0.950 . S
H2721 C2697 0.949 . S
H2722 C2699 0.950 . S
H2723 C2701 0.950 . S
C2724 C2725 1.349 . S
C2724 C2726 1.327 . S
C2724 H2749 0.950 . S
C2725 C2724 1.349 . S
C2725 C2741 1.349 . S
C2726 C2724 1.327 . S
C2726 C2745 1.429 . S
C2726 H2750 0.950 . S
C2727 C2744 1.574 . S
C2727 C2746 1.368 . S
C2727 H2751 0.949 . S
H2728 C2732 0.949 . S
C2729 C2730 1.349 . S
C2729 C2731 1.327 . S
C2729 H2752 0.950 . S
C2730 C2729 1.349 . S
C2730 C2742 1.349 . S
C2731 C2729 1.327 . S
C2731 C2747 1.429 . S
C2731 H2753 0.950 . S
C2732 H2728 0.949 . S
C2732 C2740 1.574 . S
C2732 C2748 1.368 . S
H2733 C2741 0.950 . S
H2734 C2739 0.950 . S
H2735 C2740 0.949 . S
H2736 C2742 0.950 . S
H2737 C2743 0.950 . S
H2738 C2744 0.949 . S
C2739 H2734 0.950 . S
C2739 C2741 1.327 . S
C2739 C2745 1.429 . S
C2740 C2732 1.574 . S
C2740 H2735 0.949 . S
C2740 C2746 1.368 . S
C2741 C2725 1.349 . S
C2741 H2733 0.950 . S
C2741 C2739 1.327 . S
C2742 C2730 1.349 . S
C2742 H2736 0.950 . S
C2742 C2743 1.327 . S
C2743 H2737 0.950 . S
C2743 C2742 1.327 . S
C2743 C2747 1.429 . S
C2744 C2727 1.574 . S
C2744 H2738 0.949 . S
C2744 C2748 1.368 . S
C2745 C2726 1.429 . S
C2745 C2739 1.429 . S
C2745 C2746 1.523 . S
C2746 C2727 1.368 . S
C2746 C2740 1.368 . S
C2746 C2745 1.523 . S
C2747 C2731 1.429 . S
C2747 C2743 1.429 . S
C2747 C2748 1.523 . S
C2748 C2732 1.368 . S
C2748 C2744 1.368 . S
C2748 C2747 1.523 . S
H2749 C2724 0.950 . S
H2750 C2726 0.950 . S
H2751 C2727 0.949 . S
H2752 C2729 0.950 . S
H2753 C2731 0.950 . S
C2754 C2755 1.349 . S
C2754 C2756 1.327 . S
C2754 H2779 0.950 . S
C2755 C2754 1.349 . S
C2755 C2771 1.349 . S
C2756 C2754 1.327 . S
C2756 C2775 1.429 . S
C2756 H2780 0.950 . S
C2757 C2774 1.574 . S
C2757 C2776 1.368 . S
C2757 H2781 0.949 . S
H2758 C2762 0.949 . S
C2759 C2760 1.349 . S
C2759 C2761 1.327 . S
C2759 H2782 0.950 . S
C2760 C2759 1.349 . S
C2760 C2772 1.349 . S
C2761 C2759 1.327 . S
C2761 C2777 1.429 . S
C2761 H2783 0.950 . S
C2762 H2758 0.949 . S
C2762 C2770 1.574 . S
C2762 C2778 1.368 . S
H2763 C2771 0.950 . S
H2764 C2769 0.950 . S
H2765 C2770 0.949 . S
H2766 C2772 0.950 . S
H2767 C2773 0.950 . S
H2768 C2774 0.949 . S
C2769 H2764 0.950 . S
C2769 C2771 1.327 . S
C2769 C2775 1.429 . S
C2770 C2762 1.574 . S
C2770 H2765 0.949 . S
C2770 C2776 1.368 . S
C2771 C2755 1.349 . S
C2771 H2763 0.950 . S
C2771 C2769 1.327 . S
C2772 C2760 1.349 . S
C2772 H2766 0.950 . S
C2772 C2773 1.327 . S
C2773 H2767 0.950 . S
C2773 C2772 1.327 . S
C2773 C2777 1.429 . S
C2774 C2757 1.574 . S
C2774 H2768 0.949 . S
C2774 C2778 1.368 . S
C2775 C2756 1.429 . S
C2775 C2769 1.429 . S
C2775 C2776 1.523 . S
C2776 C2757 1.368 . S
C2776 C2770 1.368 . S
C2776 C2775 1.523 . S
C2777 C2761 1.429 . S
C2777 C2773 1.429 . S
C2777 C2778 1.523 . S
C2778 C2762 1.368 . S
C2778 C2774 1.368 . S
C2778 C2777 1.523 . S
H2779 C2754 0.950 . S
H2780 C2756 0.950 . S
H2781 C2757 0.949 . S
H2782 C2759 0.950 . S
H2783 C2761 0.950 . S
C2784 C2785 1.349 1_554 S
C2784 C2786 1.327 . S
C2784 H2809 0.950 . S
C2785 C2784 1.349 1_556 S
C2785 C2801 1.349 . S
C2786 C2784 1.327 . S
C2786 C2805 1.429 1_554 S
C2786 H2810 0.950 . S
C2787 C2804 1.574 . S
C2787 C2806 1.368 . S
C2787 H2811 0.949 . S
H2788 C2792 0.949 . S
C2789 C2790 1.349 1_556 S
C2789 C2791 1.327 . S
C2789 H2812 0.950 . S
C2790 C2789 1.349 1_554 S
C2790 C2802 1.349 . S
C2791 C2789 1.327 . S
C2791 C2807 1.429 1_566 S
C2791 H2813 0.940 1_565 S
C2792 H2788 0.949 . S
C2792 C2800 1.574 . S
C2792 C2808 1.368 . S
H2793 C2801 0.950 . S
H2794 C2799 0.950 . S
H2795 C2800 0.949 . S
H2796 C2802 0.950 . S
H2797 C2803 0.950 . S
H2798 C2804 0.949 . S
C2799 H2794 0.950 . S
C2799 C2801 1.327 . S
C2799 C2805 1.429 . S
C2800 C2792 1.574 . S
C2800 H2795 0.949 . S
C2800 C2806 1.368 1_554 S
C2801 C2785 1.349 . S
C2801 H2793 0.950 . S
C2801 C2799 1.327 . S
C2802 C2790 1.349 . S
C2802 H2796 0.950 . S
C2802 C2803 1.327 1_565 S
C2803 H2797 0.950 . S
C2803 C2802 1.327 1_545 S
C2803 C2807 1.429 . S
C2804 C2787 1.574 . S
C2804 H2798 0.949 . S
C2804 C2808 1.368 1_556 S
C2805 C2786 1.429 1_556 S
C2805 C2799 1.429 . S
C2805 C2806 1.523 . S
C2806 C2787 1.368 . S
C2806 C2800 1.368 1_556 S
C2806 C2805 1.523 . S
C2807 C2791 1.429 1_544 S
C2807 C2803 1.429 . S
C2807 C2808 1.523 . S
C2808 C2792 1.368 . S
C2808 C2804 1.368 1_554 S
C2808 C2807 1.523 . S
H2809 C2784 0.950 . S
H2810 C2786 0.950 . S
H2811 C2787 0.949 . S
H2812 C2789 0.950 . S
H2813 C2791 0.940 1_545 S
C2814 C2815 1.349 . S
C2814 C2816 1.327 . S
C2814 H2839 0.950 . S
C2815 C2814 1.349 . S
C2815 C2831 1.349 . S
C2816 C2814 1.327 . S
C2816 C2835 1.429 . S
C2816 H2840 0.950 . S
C2817 C2834 1.574 . S
C2817 C2836 1.368 . S
C2817 H2841 0.949 . S
H2818 C2822 0.949 . S
C2819 C2820 1.349 . S
C2819 C2821 1.327 . S
C2819 H2842 0.950 . S
C2820 C2819 1.349 . S
C2820 C2832 1.349 . S
C2821 C2819 1.327 . S
C2821 C2837 1.429 . S
C2821 H2843 0.950 . S
C2822 H2818 0.949 . S
C2822 C2830 1.574 . S
C2822 C2838 1.368 . S
H2823 C2831 0.950 . S
H2824 C2829 0.950 . S
H2825 C2830 0.949 . S
H2826 C2832 0.950 . S
H2827 C2833 0.950 . S
H2828 C2834 0.949 . S
C2829 H2824 0.950 . S
C2829 C2831 1.327 . S
C2829 C2835 1.429 . S
C2830 C2822 1.574 . S
C2830 H2825 0.949 . S
C2830 C2836 1.368 . S
C2831 C2815 1.349 . S
C2831 H2823 0.950 . S
C2831 C2829 1.327 . S
C2832 C2820 1.349 . S
C2832 H2826 0.950 . S
C2832 C2833 1.327 . S
C2833 H2827 0.950 . S
C2833 C2832 1.327 . S
C2833 C2837 1.429 . S
C2834 C2817 1.574 . S
C2834 H2828 0.949 . S
C2834 C2838 1.368 . S
C2835 C2816 1.429 . S
C2835 C2829 1.429 . S
C2835 C2836 1.523 . S
C2836 C2817 1.368 . S
C2836 C2830 1.368 . S
C2836 C2835 1.523 . S
C2837 C2821 1.429 . S
C2837 C2833 1.429 . S
C2837 C2838 1.523 . S
C2838 C2822 1.368 . S
C2838 C2834 1.368 . S
C2838 C2837 1.523 . S
H2839 C2814 0.950 . S
H2840 C2816 0.950 . S
H2841 C2817 0.949 . S
H2842 C2819 0.950 . S
H2843 C2821 0.950 . S
C2844 C2845 1.349 . S
C2844 C2846 1.327 . S
C2844 H2869 0.950 . S
C2845 C2844 1.349 . S
C2845 C2861 1.349 . S
C2846 C2844 1.327 . S
C2846 C2865 1.429 . S
C2846 H2870 0.950 . S
C2847 C2864 1.574 . S
C2847 C2866 1.368 . S
C2847 H2871 0.949 . S
H2848 C2852 0.949 . S
C2849 C2850 1.349 . S
C2849 C2851 1.327 . S
C2849 H2872 0.950 . S
C2850 C2849 1.349 . S
C2850 C2862 1.349 . S
C2851 C2849 1.327 . S
C2851 C2867 1.429 . S
C2851 H2873 0.950 . S
C2852 H2848 0.949 . S
C2852 C2860 1.574 . S
C2852 C2868 1.368 . S
H2853 C2861 0.950 . S
H2854 C2859 0.950 . S
H2855 C2860 0.949 . S
H2856 C2862 0.950 . S
H2857 C2863 0.950 . S
H2858 C2864 0.949 . S
C2859 H2854 0.950 . S
C2859 C2861 1.327 . S
C2859 C2865 1.429 . S
C2860 C2852 1.574 . S
C2860 H2855 0.949 . S
C2860 C2866 1.368 . S
C2861 C2845 1.349 . S
C2861 H2853 0.950 . S
C2861 C2859 1.327 . S
C2862 C2850 1.349 . S
C2862 H2856 0.950 . S
C2862 C2863 1.327 . S
C2863 H2857 0.950 . S
C2863 C2862 1.327 . S
C2863 C2867 1.429 . S
C2864 C2847 1.574 . S
C2864 H2858 0.949 . S
C2864 C2868 1.368 . S
C2865 C2846 1.429 . S
C2865 C2859 1.429 . S
C2865 C2866 1.523 . S
C2866 C2847 1.368 . S
C2866 C2860 1.368 . S
C2866 C2865 1.523 . S
C2867 C2851 1.429 . S
C2867 C2863 1.429 . S
C2867 C2868 1.523 . S
C2868 C2852 1.368 . S
C2868 C2864 1.368 . S
C2868 C2867 1.523 . S
H2869 C2844 0.950 . S
H2870 C2846 0.950 . S
H2871 C2847 0.949 . S
H2872 C2849 0.950 . S
H2873 C2851 0.950 . S
C2874 C2875 1.349 . S
C2874 C2876 1.327 . S
C2874 H2899 0.950 1_545 S
C2875 C2874 1.349 . S
C2875 C2891 1.349 . S
C2876 C2874 1.327 . S
C2876 C2895 1.429 . S
C2876 H2900 0.950 1_545 S
C2877 C2894 1.574 . S
C2877 C2896 1.368 . S
C2877 H2901 0.949 . S
H2878 C2882 0.949 1_565 S
C2879 C2880 1.349 . S
C2879 C2881 1.327 . S
C2879 H2902 0.950 . S
C2880 C2879 1.349 . S
C2880 C2892 1.349 . S
C2881 C2879 1.327 . S
C2881 C2897 1.429 . S
C2881 H2903 0.950 . S
C2882 H2878 0.949 1_545 S
C2882 C2890 1.574 . S
C2882 C2898 1.368 . S
H2883 C2891 0.950 . S
H2884 C2889 0.950 . S
H2885 C2890 0.949 1_565 S
H2886 C2892 0.950 1_565 S
H2887 C2893 0.950 1_565 S
H2888 C2894 0.949 . S
C2889 H2884 0.950 . S
C2889 C2891 1.327 . S
C2889 C2895 1.429 . S
C2890 C2882 1.574 . S
C2890 H2885 0.949 1_545 S
C2890 C2896 1.368 . S
C2891 C2875 1.349 . S
C2891 H2883 0.950 . S
C2891 C2889 1.327 . S
C2892 C2880 1.349 . S
C2892 H2886 0.950 1_545 S
C2892 C2893 1.327 . S
C2893 H2887 0.950 1_545 S
C2893 C2892 1.327 . S
C2893 C2897 1.429 . S
C2894 C2877 1.574 . S
C2894 H2888 0.949 . S
C2894 C2898 1.368 . S
C2895 C2876 1.429 . S
C2895 C2889 1.429 . S
C2895 C2896 1.523 . S
C2896 C2877 1.368 . S
C2896 C2890 1.368 . S
C2896 C2895 1.523 . S
C2897 C2881 1.429 . S
C2897 C2893 1.429 . S
C2897 C2898 1.523 . S
C2898 C2882 1.368 . S
C2898 C2894 1.368 . S
C2898 C2897 1.523 . S
H2899 C2874 0.950 1_565 S
H2900 C2876 0.950 1_565 S
H2901 C2877 0.949 . S
H2902 C2879 0.950 . S
H2903 C2881 0.950 . S
C2904 C2905 1.349 . S
C2904 C2906 1.327 . S
C2904 H2929 0.950 . S
C2905 C2904 1.349 . S
C2905 C2921 1.349 . S
C2906 C2904 1.327 . S
C2906 C2925 1.429 1_545 S
C2906 H2930 0.946 1_545 S
C2907 C2924 1.574 . S
C2907 C2926 1.368 . S
C2907 H2931 0.949 . S
H2908 C2912 0.949 . S
C2909 C2910 1.349 . S
C2909 C2911 1.327 . S
C2909 H2932 0.950 . S
C2910 C2909 1.349 . S
C2910 C2922 1.349 . S
C2911 C2909 1.327 . S
C2911 C2927 1.429 . S
C2911 H2933 0.950 . S
C2912 H2908 0.949 . S
C2912 C2920 1.574 . S
C2912 C2928 1.368 . S
H2913 C2921 0.950 . S
H2914 C2919 0.950 . S
H2915 C2920 0.949 . S
H2916 C2922 0.950 . S
H2917 C2923 0.950 . S
H2918 C2924 0.949 . S
C2919 H2914 0.950 . S
C2919 C2921 1.327 1_565 S
C2919 C2925 1.429 . S
C2920 C2912 1.574 . S
C2920 H2915 0.949 . S
C2920 C2926 1.368 . S
C2921 C2905 1.349 . S
C2921 H2913 0.950 . S
C2921 C2919 1.327 1_545 S
C2922 C2910 1.349 . S
C2922 H2916 0.950 . S
C2922 C2923 1.327 . S
C2923 H2917 0.950 . S
C2923 C2922 1.327 . S
C2923 C2927 1.429 . S
C2924 C2907 1.574 . S
C2924 H2918 0.949 . S
C2924 C2928 1.368 . S
C2925 C2906 1.429 1_565 S
C2925 C2919 1.429 . S
C2925 C2926 1.523 . S
C2926 C2907 1.368 . S
C2926 C2920 1.368 . S
C2926 C2925 1.523 . S
C2927 C2911 1.429 . S
C2927 C2923 1.429 . S
C2927 C2928 1.523 . S
C2928 C2912 1.368 . S
C2928 C2924 1.368 . S
C2928 C2927 1.523 . S
H2929 C2904 0.950 . S
H2930 C2906 0.946 1_565 S
H2931 C2907 0.949 . S
H2932 C2909 0.950 . S
H2933 C2911 0.950 . S
C2934 C2935 1.349 . S
C2934 C2936 1.327 . S
C2934 H2959 0.950 . S
C2935 C2934 1.349 . S
C2935 C2951 1.349 . S
C2936 C2934 1.327 . S
C2936 C2955 1.429 . S
C2936 H2960 0.950 . S
C2937 C2954 1.574 . S
C2937 C2956 1.368 . S
C2937 H2961 0.949 . S
H2938 C2942 0.949 . S
C2939 C2940 1.349 . S
C2939 C2941 1.327 . S
C2939 H2962 0.950 . S
C2940 C2939 1.349 . S
C2940 C2952 1.349 . S
C2941 C2939 1.327 . S
C2941 C2957 1.429 . S
C2941 H2963 0.950 . S
C2942 H2938 0.949 . S
C2942 C2950 1.574 . S
C2942 C2958 1.368 . S
H2943 C2951 0.950 . S
H2944 C2949 0.950 . S
H2945 C2950 0.949 . S
H2946 C2952 0.950 . S
H2947 C2953 0.950 . S
H2948 C2954 0.949 . S
C2949 H2944 0.950 . S
C2949 C2951 1.327 . S
C2949 C2955 1.429 . S
C2950 C2942 1.574 . S
C2950 H2945 0.949 . S
C2950 C2956 1.368 . S
C2951 C2935 1.349 . S
C2951 H2943 0.950 . S
C2951 C2949 1.327 . S
C2952 C2940 1.349 . S
C2952 H2946 0.950 . S
C2952 C2953 1.327 . S
C2953 H2947 0.950 . S
C2953 C2952 1.327 . S
C2953 C2957 1.429 . S
C2954 C2937 1.574 . S
C2954 H2948 0.949 . S
C2954 C2958 1.368 . S
C2955 C2936 1.429 . S
C2955 C2949 1.429 . S
C2955 C2956 1.523 . S
C2956 C2937 1.368 . S
C2956 C2950 1.368 . S
C2956 C2955 1.523 . S
C2957 C2941 1.429 . S
C2957 C2953 1.429 . S
C2957 C2958 1.523 . S
C2958 C2942 1.368 . S
C2958 C2954 1.368 . S
C2958 C2957 1.523 . S
H2959 C2934 0.950 . S
H2960 C2936 0.950 . S
H2961 C2937 0.949 . S
H2962 C2939 0.950 . S
H2963 C2941 0.950 . S
C2964 C2965 1.349 . S
C2964 C2966 1.318 1_554 S
C2964 H2989 0.950 1_554 S
C2965 C2964 1.349 . S
C2965 C2981 1.349 . S
C2966 C2964 1.318 1_556 S
C2966 C2985 1.412 1_556 S
C2966 H2990 0.979 . S
C2967 C2984 1.574 . S
C2967 C2986 1.368 . S
C2967 H2991 0.949 . S
H2968 C2972 0.949 . S
C2969 C2970 1.349 . S
C2969 C2971 1.327 . S
C2969 H2992 0.950 . S
C2970 C2969 1.349 . S
C2970 C2982 1.349 . S
C2971 C2969 1.327 . S
C2971 C2987 1.429 . S
C2971 H2993 0.950 1_556 S
C2972 H2968 0.949 . S
C2972 C2980 1.574 . S
C2972 C2988 1.368 . S
H2973 C2981 0.950 . S
H2974 C2979 0.950 . S
H2975 C2980 0.949 . S
H2976 C2982 0.950 . S
H2977 C2983 0.950 . S
H2978 C2984 0.949 . S
C2979 H2974 0.950 . S
C2979 C2981 1.327 . S
C2979 C2985 1.429 . S
C2980 C2972 1.574 . S
C2980 H2975 0.949 . S
C2980 C2986 1.368 1_556 S
C2981 C2965 1.349 . S
C2981 H2973 0.950 . S
C2981 C2979 1.327 . S
C2982 C2970 1.349 . S
C2982 H2976 0.950 . S
C2982 C2983 1.327 . S
C2983 H2977 0.950 . S
C2983 C2982 1.327 . S
C2983 C2987 1.429 . S
C2984 C2967 1.574 . S
C2984 H2978 0.949 . S
C2984 C2988 1.368 1_554 S
C2985 C2966 1.412 1_554 S
C2985 C2979 1.429 . S
C2985 C2986 1.523 . S
C2986 C2967 1.368 . S
C2986 C2980 1.368 1_554 S
C2986 C2985 1.523 . S
C2987 C2971 1.429 . S
C2987 C2983 1.429 . S
C2987 C2988 1.523 . S
C2988 C2972 1.368 . S
C2988 C2984 1.368 1_556 S
C2988 C2987 1.523 . S
H2989 C2964 0.950 1_556 S
H2990 C2966 0.979 . S
H2991 C2967 0.949 . S
H2992 C2969 0.950 . S
H2993 C2971 0.950 1_554 S
C2994 C2995 1.349 . S
C2994 C2996 1.327 . S
C2994 H3019 0.950 . S
C2995 C2994 1.349 . S
C2995 C3011 1.381 . S
C2996 C2994 1.327 . S
C2996 C3015 1.429 . S
C2996 H3020 0.950 . S
C2997 C3014 1.574 . S
C2997 C3016 1.368 1_554 S
C2997 H3021 0.949 . S
H2998 C3002 0.949 . S
C2999 C3000 1.349 . S
C2999 C3001 1.327 . S
C2999 H3022 0.950 . S
C3000 C2999 1.349 . S
C3000 C3012 1.320 1_554 S
C3001 C2999 1.327 . S
C3001 C3017 1.429 . S
C3001 H3023 0.950 . S
C3002 H2998 0.949 . S
C3002 C3010 1.574 . S
C3002 C3018 1.368 1_556 S
H3003 C3011 0.927 1_554 S
H3004 C3009 0.950 . S
H3005 C3010 0.949 . S
H3006 C3012 0.973 . S
H3007 C3013 0.950 . S
H3008 C3014 0.949 . S
C3009 H3004 0.950 . S
C3009 C3011 1.320 1_554 S
C3009 C3015 1.429 1_554 S
C3010 C3002 1.574 . S
C3010 H3005 0.949 . S
C3010 C3016 1.368 . S
C3011 C2995 1.381 . S
C3011 H3003 0.927 1_556 S
C3011 C3009 1.320 1_556 S
C3012 C3000 1.320 1_556 S
C3012 H3006 0.973 . S
C3012 C3013 1.336 . S
C3013 H3007 0.950 . S
C3013 C3012 1.336 . S
C3013 C3017 1.429 1_556 S
C3014 C2997 1.574 . S
C3014 H3008 0.949 . S
C3014 C3018 1.368 . S
C3015 C2996 1.429 . S
C3015 C3009 1.429 1_556 S
C3015 C3016 1.523 . S
C3016 C2997 1.368 1_556 S
C3016 C3010 1.368 . S
C3016 C3015 1.523 . S
C3017 C3001 1.429 . S
C3017 C3013 1.429 1_554 S
C3017 C3018 1.523 . S
C3018 C3002 1.368 1_554 S
C3018 C3014 1.368 . S
C3018 C3017 1.523 . S
H3019 C2994 0.950 . S
H3020 C2996 0.950 . S
H3021 C2997 0.949 . S
H3022 C2999 0.950 . S
H3023 C3001 0.950 . S
C3024 C3025 1.349 . S
C3024 C3026 1.327 . S
C3024 H3049 0.950 . S
C3025 C3024 1.349 . S
C3025 C3041 1.349 . S
C3026 C3024 1.327 . S
C3026 C3045 1.429 . S
C3026 H3050 0.950 . S
C3027 C3044 1.574 . S
C3027 C3046 1.368 . S
C3027 H3051 0.949 . S
H3028 C3032 0.949 . S
C3029 C3030 1.349 . S
C3029 C3031 1.327 . S
C3029 H3052 0.950 . S
C3030 C3029 1.349 . S
C3030 C3042 1.349 . S
C3031 C3029 1.327 . S
C3031 C3047 1.429 . S
C3031 H3053 0.950 . S
C3032 H3028 0.949 . S
C3032 C3040 1.574 . S
C3032 C3048 1.368 . S
H3033 C3041 0.950 . S
H3034 C3039 0.950 . S
H3035 C3040 0.949 . S
H3036 C3042 0.950 . S
H3037 C3043 0.950 . S
H3038 C3044 0.949 . S
C3039 H3034 0.950 . S
C3039 C3041 1.327 . S
C3039 C3045 1.429 . S
C3040 C3032 1.574 . S
C3040 H3035 0.949 . S
C3040 C3046 1.368 . S
C3041 C3025 1.349 . S
C3041 H3033 0.950 . S
C3041 C3039 1.327 . S
C3042 C3030 1.349 . S
C3042 H3036 0.950 . S
C3042 C3043 1.327 . S
C3043 H3037 0.950 . S
C3043 C3042 1.327 . S
C3043 C3047 1.429 . S
C3044 C3027 1.574 . S
C3044 H3038 0.949 . S
C3044 C3048 1.368 . S
C3045 C3026 1.429 . S
C3045 C3039 1.429 . S
C3045 C3046 1.523 . S
C3046 C3027 1.368 . S
C3046 C3040 1.368 . S
C3046 C3045 1.523 . S
C3047 C3031 1.429 . S
C3047 C3043 1.429 . S
C3047 C3048 1.523 . S
C3048 C3032 1.368 . S
C3048 C3044 1.368 . S
C3048 C3047 1.523 . S
H3049 C3024 0.950 . S
H3050 C3026 0.950 . S
H3051 C3027 0.949 . S
H3052 C3029 0.950 . S
H3053 C3031 0.950 . S
C3054 C3055 1.349 1_554 S
C3054 C3056 1.327 1_554 S
C3054 H3079 0.950 . S
C3055 C3054 1.349 1_556 S
C3055 C3071 1.349 . S
C3056 C3054 1.327 1_556 S
C3056 C3075 1.429 . S
C3056 H3080 0.951 1_556 S
C3057 C3074 1.574 . S
C3057 C3076 1.368 . S
C3057 H3081 0.949 . S
H3058 C3062 0.949 . S
C3059 C3060 1.349 . S
C3059 C3061 1.327 . S
C3059 H3082 0.950 . S
C3060 C3059 1.349 . S
C3060 C3072 1.349 . S
C3061 C3059 1.327 . S
C3061 C3077 1.429 . S
C3061 H3083 0.950 . S
C3062 H3058 0.949 . S
C3062 C3070 1.574 . S
C3062 C3078 1.368 . S
H3063 C3071 0.950 . S
H3064 C3069 0.950 . S
H3065 C3070 0.949 . S
H3066 C3072 0.950 . S
H3067 C3073 0.950 . S
H3068 C3074 0.949 . S
C3069 H3064 0.950 . S
C3069 C3071 1.327 . S
C3069 C3075 1.429 . S
C3070 C3062 1.574 . S
C3070 H3065 0.949 . S
C3070 C3076 1.368 . S
C3071 C3055 1.349 . S
C3071 H3063 0.950 . S
C3071 C3069 1.327 . S
C3072 C3060 1.349 . S
C3072 H3066 0.950 . S
C3072 C3073 1.327 . S
C3073 H3067 0.950 . S
C3073 C3072 1.327 . S
C3073 C3077 1.429 . S
C3074 C3057 1.574 . S
C3074 H3068 0.949 . S
C3074 C3078 1.368 . S
C3075 C3056 1.429 . S
C3075 C3069 1.429 . S
C3075 C3076 1.523 . S
C3076 C3057 1.368 . S
C3076 C3070 1.368 . S
C3076 C3075 1.523 . S
C3077 C3061 1.429 . S
C3077 C3073 1.429 . S
C3077 C3078 1.523 . S
C3078 C3062 1.368 . S
C3078 C3074 1.368 . S
C3078 C3077 1.523 . S
H3079 C3054 0.950 . S
H3080 C3056 0.951 1_554 S
H3081 C3057 0.949 . S
H3082 C3059 0.950 . S
H3083 C3061 0.950 . S
C3084 C3085 1.349 . S
C3084 C3086 1.327 . S
C3084 H3109 0.950 . S
C3085 C3084 1.349 . S
C3085 C3101 1.349 . S
C3086 C3084 1.327 . S
C3086 C3105 1.429 . S
C3086 H3110 0.950 . S
C3087 C3104 1.574 . S
C3087 C3106 1.368 . S
C3087 H3111 0.949 . S
H3088 C3092 0.949 . S
C3089 C3090 1.349 . S
C3089 C3091 1.327 . S
C3089 H3112 0.950 . S
C3090 C3089 1.349 . S
C3090 C3102 1.349 . S
C3091 C3089 1.327 . S
C3091 C3107 1.429 . S
C3091 H3113 0.950 . S
C3092 H3088 0.949 . S
C3092 C3100 1.574 . S
C3092 C3108 1.368 . S
H3093 C3101 0.950 . S
H3094 C3099 0.950 . S
H3095 C3100 0.949 . S
H3096 C3102 0.950 . S
H3097 C3103 0.950 . S
H3098 C3104 0.949 . S
C3099 H3094 0.950 . S
C3099 C3101 1.327 . S
C3099 C3105 1.429 . S
C3100 C3092 1.574 . S
C3100 H3095 0.949 . S
C3100 C3106 1.368 . S
C3101 C3085 1.349 . S
C3101 H3093 0.950 . S
C3101 C3099 1.327 . S
C3102 C3090 1.349 . S
C3102 H3096 0.950 . S
C3102 C3103 1.327 . S
C3103 H3097 0.950 . S
C3103 C3102 1.327 . S
C3103 C3107 1.429 . S
C3104 C3087 1.574 . S
C3104 H3098 0.949 . S
C3104 C3108 1.368 . S
C3105 C3086 1.429 . S
C3105 C3099 1.429 . S
C3105 C3106 1.523 . S
C3106 C3087 1.368 . S
C3106 C3100 1.368 . S
C3106 C3105 1.523 . S
C3107 C3091 1.429 . S
C3107 C3103 1.429 . S
C3107 C3108 1.523 . S
C3108 C3092 1.368 . S
C3108 C3104 1.368 . S
C3108 C3107 1.523 . S
H3109 C3084 0.950 . S
H3110 C3086 0.950 . S
H3111 C3087 0.949 . S
H3112 C3089 0.950 . S
H3113 C3091 0.950 . S
C3114 C3115 1.349 . S
C3114 C3116 1.327 . S
C3114 H3139 0.950 . S
C3115 C3114 1.349 . S
C3115 C3131 1.349 . S
C3116 C3114 1.327 . S
C3116 C3135 1.429 . S
C3116 H3140 0.950 . S
C3117 C3134 1.574 . S
C3117 C3136 1.368 . S
C3117 H3141 0.949 . S
H3118 C3122 0.949 . S
C3119 C3120 1.349 . S
C3119 C3121 1.327 . S
C3119 H3142 0.950 . S
C3120 C3119 1.349 . S
C3120 C3132 1.349 . S
C3121 C3119 1.327 . S
C3121 C3137 1.429 . S
C3121 H3143 0.950 . S
C3122 H3118 0.949 . S
C3122 C3130 1.574 . S
C3122 C3138 1.368 . S
H3123 C3131 0.950 . S
H3124 C3129 0.950 . S
H3125 C3130 0.949 . S
H3126 C3132 0.950 . S
H3127 C3133 0.950 . S
H3128 C3134 0.949 . S
C3129 H3124 0.950 . S
C3129 C3131 1.327 . S
C3129 C3135 1.429 . S
C3130 C3122 1.574 . S
C3130 H3125 0.949 . S
C3130 C3136 1.368 . S
C3131 C3115 1.349 . S
C3131 H3123 0.950 . S
C3131 C3129 1.327 . S
C3132 C3120 1.349 . S
C3132 H3126 0.950 . S
C3132 C3133 1.327 . S
C3133 H3127 0.950 . S
C3133 C3132 1.327 . S
C3133 C3137 1.429 . S
C3134 C3117 1.574 . S
C3134 H3128 0.949 . S
C3134 C3138 1.368 . S
C3135 C3116 1.429 . S
C3135 C3129 1.429 . S
C3135 C3136 1.523 . S
C3136 C3117 1.368 . S
C3136 C3130 1.368 . S
C3136 C3135 1.523 . S
C3137 C3121 1.429 . S
C3137 C3133 1.429 . S
C3137 C3138 1.523 . S
C3138 C3122 1.368 . S
C3138 C3134 1.368 . S
C3138 C3137 1.523 . S
H3139 C3114 0.950 . S
H3140 C3116 0.950 . S
H3141 C3117 0.949 . S
H3142 C3119 0.950 . S
H3143 C3121 0.950 . S
C3144 C3145 1.345 1_455 S
C3144 C3146 1.327 . S
C3144 H3169 0.950 . S
C3145 C3144 1.345 1_655 S
C3145 C3161 1.353 . S
C3146 C3144 1.327 . S
C3146 C3165 1.403 1_455 S
C3146 H3170 0.950 . S
C3147 C3164 1.574 . S
C3147 C3166 1.368 . S
C3147 H3171 0.949 . S
H3148 C3152 0.949 . S
C3149 C3150 1.349 . S
C3149 C3151 1.327 . S
C3149 H3172 0.950 . S
C3150 C3149 1.349 . S
C3150 C3162 1.349 1_655 S
C3151 C3149 1.327 . S
C3151 C3167 1.429 . S
C3151 H3173 0.950 . S
C3152 H3148 0.949 . S
C3152 C3160 1.574 . S
C3152 C3168 1.368 1_455 S
H3153 C3161 0.950 . S
H3154 C3159 0.950 . S
H3155 C3160 0.949 . S
H3156 C3162 0.950 . S
H3157 C3163 0.950 . S
H3158 C3164 0.949 . S
C3159 H3154 0.950 . S
C3159 C3161 1.327 . S
C3159 C3165 1.454 . S
C3160 C3152 1.574 . S
C3160 H3155 0.949 . S
C3160 C3166 1.368 1_455 S
C3161 C3145 1.353 . S
C3161 H3153 0.950 . S
C3161 C3159 1.327 . S
C3162 C3150 1.349 1_455 S
C3162 H3156 0.950 . S
C3162 C3163 1.327 . S
C3163 H3157 0.950 . S
C3163 C3162 1.327 . S
C3163 C3167 1.429 1_455 S
C3164 C3147 1.574 . S
C3164 H3158 0.949 . S
C3164 C3168 1.368 . S
C3165 C3146 1.403 1_655 S
C3165 C3159 1.454 . S
C3165 C3166 1.524 . S
C3166 C3147 1.368 . S
C3166 C3160 1.368 1_655 S
C3166 C3165 1.524 . S
C3167 C3151 1.429 . S
C3167 C3163 1.429 1_655 S
C3167 C3168 1.523 . S
C3168 C3152 1.368 1_655 S
C3168 C3164 1.368 . S
C3168 C3167 1.523 . S
H3169 C3144 0.950 . S
H3170 C3146 0.950 . S
H3171 C3147 0.949 . S
H3172 C3149 0.950 . S
H3173 C3151 0.950 . S
C3174 C3175 1.349 . S
C3174 C3176 1.327 . S
C3174 H3199 0.950 . S
C3175 C3174 1.349 . S
C3175 C3191 1.349 . S
C3176 C3174 1.327 . S
C3176 C3195 1.429 . S
C3176 H3200 0.950 . S
C3177 C3194 1.574 . S
C3177 C3196 1.368 . S
C3177 H3201 0.949 . S
H3178 C3182 0.949 . S
C3179 C3180 1.349 . S
C3179 C3181 1.327 . S
C3179 H3202 0.983 . S
C3180 C3179 1.349 . S
C3180 C3192 1.349 . S
C3181 C3179 1.327 . S
C3181 C3197 1.429 . S
C3181 H3203 0.950 . S
C3182 H3178 0.949 . S
C3182 C3190 1.574 . S
C3182 C3198 1.368 . S
H3183 C3191 0.950 . S
H3184 C3189 0.950 . S
H3185 C3190 0.949 . S
H3186 C3192 0.950 . S
H3187 C3193 0.950 . S
H3188 C3194 0.949 . S
C3189 H3184 0.950 . S
C3189 C3191 1.327 . S
C3189 C3195 1.429 . S
C3190 C3182 1.574 . S
C3190 H3185 0.949 . S
C3190 C3196 1.368 . S
C3191 C3175 1.349 . S
C3191 H3183 0.950 . S
C3191 C3189 1.327 . S
C3192 C3180 1.349 . S
C3192 H3186 0.950 . S
C3192 C3193 1.327 . S
C3193 H3187 0.950 . S
C3193 C3192 1.327 . S
C3193 C3197 1.429 . S
C3194 C3177 1.574 . S
C3194 H3188 0.949 . S
C3194 C3198 1.368 . S
C3195 C3176 1.429 . S
C3195 C3189 1.429 . S
C3195 C3196 1.523 . S
C3196 C3177 1.368 . S
C3196 C3190 1.368 . S
C3196 C3195 1.523 . S
C3197 C3181 1.429 . S
C3197 C3193 1.429 . S
C3197 C3198 1.523 . S
C3198 C3182 1.368 . S
C3198 C3194 1.368 . S
C3198 C3197 1.523 . S
H3199 C3174 0.950 . S
H3200 C3176 0.950 . S
H3201 C3177 0.949 . S
H3202 C3179 0.983 . S
H3203 C3181 0.950 . S
C3204 C3205 1.349 . S
C3204 C3206 1.327 . S
C3204 H3229 0.950 . S
C3205 C3204 1.349 . S
C3205 C3221 1.349 . S
C3206 C3204 1.327 . S
C3206 C3225 1.429 . S
C3206 H3230 0.950 . S
C3207 C3224 1.574 . S
C3207 C3226 1.368 . S
C3207 H3231 0.949 . S
H3208 C3212 0.949 . S
C3209 C3210 1.349 . S
C3209 C3211 1.327 . S
C3209 H3232 0.950 . S
C3210 C3209 1.349 . S
C3210 C3222 1.349 . S
C3211 C3209 1.327 . S
C3211 C3227 1.429 . S
C3211 H3233 0.950 . S
C3212 H3208 0.949 . S
C3212 C3220 1.574 . S
C3212 C3228 1.368 . S
H3213 C3221 0.950 . S
H3214 C3219 0.950 . S
H3215 C3220 0.949 . S
H3216 C3222 0.950 . S
H3217 C3223 0.950 . S
H3218 C3224 0.949 . S
C3219 H3214 0.950 . S
C3219 C3221 1.327 . S
C3219 C3225 1.429 . S
C3220 C3212 1.574 . S
C3220 H3215 0.949 . S
C3220 C3226 1.368 . S
C3221 C3205 1.349 . S
C3221 H3213 0.950 . S
C3221 C3219 1.327 . S
C3222 C3210 1.349 . S
C3222 H3216 0.950 . S
C3222 C3223 1.327 . S
C3223 H3217 0.950 . S
C3223 C3222 1.327 . S
C3223 C3227 1.429 . S
C3224 C3207 1.574 . S
C3224 H3218 0.949 . S
C3224 C3228 1.368 . S
C3225 C3206 1.429 . S
C3225 C3219 1.429 . S
C3225 C3226 1.523 . S
C3226 C3207 1.368 . S
C3226 C3220 1.368 . S
C3226 C3225 1.523 . S
C3227 C3211 1.429 . S
C3227 C3223 1.429 . S
C3227 C3228 1.523 . S
C3228 C3212 1.368 . S
C3228 C3224 1.368 . S
C3228 C3227 1.523 . S
H3229 C3204 0.950 . S
H3230 C3206 0.950 . S
H3231 C3207 0.949 . S
H3232 C3209 0.950 . S
H3233 C3211 0.950 . S
C3234 C3235 1.349 . S
C3234 C3236 1.327 . S
C3234 H3259 0.950 . S
C3235 C3234 1.349 . S
C3235 C3251 1.349 . S
C3236 C3234 1.327 . S
C3236 C3255 1.429 . S
C3236 H3260 0.950 . S
C3237 C3254 1.574 . S
C3237 C3256 1.368 . S
C3237 H3261 0.949 . S
H3238 C3242 0.949 . S
C3239 C3240 1.349 . S
C3239 C3241 1.327 . S
C3239 H3262 0.950 . S
C3240 C3239 1.349 . S
C3240 C3252 1.349 . S
C3241 C3239 1.327 . S
C3241 C3257 1.429 . S
C3241 H3263 0.950 . S
C3242 H3238 0.949 . S
C3242 C3250 1.574 . S
C3242 C3258 1.368 . S
H3243 C3251 0.950 . S
H3244 C3249 0.950 . S
H3245 C3250 0.949 . S
H3246 C3252 0.950 . S
H3247 C3253 0.950 . S
H3248 C3254 0.949 . S
C3249 H3244 0.950 . S
C3249 C3251 1.327 . S
C3249 C3255 1.429 . S
C3250 C3242 1.574 . S
C3250 H3245 0.949 . S
C3250 C3256 1.368 . S
C3251 C3235 1.349 . S
C3251 H3243 0.950 . S
C3251 C3249 1.327 . S
C3252 C3240 1.349 . S
C3252 H3246 0.950 . S
C3252 C3253 1.327 . S
C3253 H3247 0.950 . S
C3253 C3252 1.327 . S
C3253 C3257 1.429 . S
C3254 C3237 1.574 . S
C3254 H3248 0.949 . S
C3254 C3258 1.368 . S
C3255 C3236 1.429 . S
C3255 C3249 1.429 . S
C3255 C3256 1.523 . S
C3256 C3237 1.368 . S
C3256 C3250 1.368 . S
C3256 C3255 1.523 . S
C3257 C3241 1.429 . S
C3257 C3253 1.429 . S
C3257 C3258 1.523 . S
C3258 C3242 1.368 . S
C3258 C3254 1.368 . S
C3258 C3257 1.523 . S
H3259 C3234 0.950 . S
H3260 C3236 0.950 . S
H3261 C3237 0.949 . S
H3262 C3239 0.950 . S
H3263 C3241 0.950 . S
C3264 C3265 1.349 . S
C3264 C3266 1.327 . S
C3264 H3289 0.950 . S
C3265 C3264 1.349 . S
C3265 C3281 1.349 . S
C3266 C3264 1.327 . S
C3266 C3285 1.429 . S
C3266 H3290 0.950 . S
C3267 C3284 1.574 . S
C3267 C3286 1.368 . S
C3267 H3291 0.949 . S
H3268 C3272 0.949 . S
C3269 C3270 1.349 . S
C3269 C3271 1.327 . S
C3269 H3292 0.950 . S
C3270 C3269 1.349 . S
C3270 C3282 1.349 . S
C3271 C3269 1.327 . S
C3271 C3287 1.429 . S
C3271 H3293 0.950 . S
C3272 H3268 0.949 . S
C3272 C3280 1.574 . S
C3272 C3288 1.368 . S
H3273 C3281 0.950 . S
H3274 C3279 0.950 . S
H3275 C3280 0.949 . S
H3276 C3282 0.950 . S
H3277 C3283 0.950 . S
H3278 C3284 0.949 . S
C3279 H3274 0.950 . S
C3279 C3281 1.327 . S
C3279 C3285 1.429 . S
C3280 C3272 1.574 . S
C3280 H3275 0.949 . S
C3280 C3286 1.368 . S
C3281 C3265 1.349 . S
C3281 H3273 0.950 . S
C3281 C3279 1.327 . S
C3282 C3270 1.349 . S
C3282 H3276 0.950 . S
C3282 C3283 1.327 . S
C3283 H3277 0.950 . S
C3283 C3282 1.327 . S
C3283 C3287 1.429 . S
C3284 C3267 1.574 . S
C3284 H3278 0.949 . S
C3284 C3288 1.368 . S
C3285 C3266 1.429 . S
C3285 C3279 1.429 . S
C3285 C3286 1.523 . S
C3286 C3267 1.368 . S
C3286 C3280 1.368 . S
C3286 C3285 1.523 . S
C3287 C3271 1.429 . S
C3287 C3283 1.429 . S
C3287 C3288 1.523 . S
C3288 C3272 1.368 . S
C3288 C3284 1.368 . S
C3288 C3287 1.523 . S
H3289 C3264 0.950 . S
H3290 C3266 0.950 . S
H3291 C3267 0.949 . S
H3292 C3269 0.950 . S
H3293 C3271 0.950 . S
C3294 C3295 1.349 . S
C3294 C3296 1.327 . S
C3294 H3319 0.950 . S
C3295 C3294 1.349 . S
C3295 C3311 1.349 . S
C3296 C3294 1.327 . S
C3296 C3315 1.429 . S
C3296 H3320 0.950 . S
C3297 C3314 1.574 . S
C3297 C3316 1.368 . S
C3297 H3321 0.949 . S
H3298 C3302 0.949 . S
C3299 C3300 1.349 . S
C3299 C3301 1.327 . S
C3299 H3322 0.950 . S
C3300 C3299 1.349 . S
C3300 C3312 1.349 . S
C3301 C3299 1.327 . S
C3301 C3317 1.429 . S
C3301 H3323 0.950 . S
C3302 H3298 0.949 . S
C3302 C3310 1.574 . S
C3302 C3318 1.368 . S
H3303 C3311 0.950 . S
H3304 C3309 0.950 . S
H3305 C3310 0.949 . S
H3306 C3312 0.950 . S
H3307 C3313 0.950 . S
H3308 C3314 0.949 . S
C3309 H3304 0.950 . S
C3309 C3311 1.327 . S
C3309 C3315 1.429 . S
C3310 C3302 1.574 . S
C3310 H3305 0.949 . S
C3310 C3316 1.368 . S
C3311 C3295 1.349 . S
C3311 H3303 0.950 . S
C3311 C3309 1.327 . S
C3312 C3300 1.349 . S
C3312 H3306 0.950 . S
C3312 C3313 1.327 . S
C3313 H3307 0.950 . S
C3313 C3312 1.327 . S
C3313 C3317 1.429 . S
C3314 C3297 1.574 . S
C3314 H3308 0.949 . S
C3314 C3318 1.368 . S
C3315 C3296 1.429 . S
C3315 C3309 1.429 . S
C3315 C3316 1.523 . S
C3316 C3297 1.368 . S
C3316 C3310 1.368 . S
C3316 C3315 1.523 . S
C3317 C3301 1.429 . S
C3317 C3313 1.429 . S
C3317 C3318 1.523 . S
C3318 C3302 1.368 . S
C3318 C3314 1.368 . S
C3318 C3317 1.523 . S
H3319 C3294 0.950 . S
H3320 C3296 0.950 . S
H3321 C3297 0.949 . S
H3322 C3299 0.950 . S
H3323 C3301 0.950 . S
C3324 C3325 1.349 . S
C3324 C3326 1.327 . S
C3324 H3349 0.950 . S
C3325 C3324 1.349 . S
C3325 C3341 1.349 . S
C3326 C3324 1.327 . S
C3326 C3345 1.429 . S
C3326 H3350 0.950 . S
C3327 C3344 1.574 . S
C3327 C3346 1.368 . S
C3327 H3351 0.949 . S
H3328 C3332 0.949 . S
C3329 C3330 1.349 . S
C3329 C3331 1.327 . S
C3329 H3352 0.950 . S
C3330 C3329 1.349 . S
C3330 C3342 1.349 . S
C3331 C3329 1.327 . S
C3331 C3347 1.429 . S
C3331 H3353 0.950 . S
C3332 H3328 0.949 . S
C3332 C3340 1.574 . S
C3332 C3348 1.368 . S
H3333 C3341 0.950 . S
H3334 C3339 0.950 . S
H3335 C3340 0.949 . S
H3336 C3342 0.950 . S
H3337 C3343 0.950 . S
H3338 C3344 0.949 . S
C3339 H3334 0.950 . S
C3339 C3341 1.327 . S
C3339 C3345 1.429 . S
C3340 C3332 1.574 . S
C3340 H3335 0.949 . S
C3340 C3346 1.368 . S
C3341 C3325 1.349 . S
C3341 H3333 0.950 . S
C3341 C3339 1.327 . S
C3342 C3330 1.349 . S
C3342 H3336 0.950 . S
C3342 C3343 1.327 . S
C3343 H3337 0.950 . S
C3343 C3342 1.327 . S
C3343 C3347 1.429 . S
C3344 C3327 1.574 . S
C3344 H3338 0.949 . S
C3344 C3348 1.368 . S
C3345 C3326 1.429 . S
C3345 C3339 1.429 . S
C3345 C3346 1.523 . S
C3346 C3327 1.368 . S
C3346 C3340 1.368 . S
C3346 C3345 1.523 . S
C3347 C3331 1.429 . S
C3347 C3343 1.429 . S
C3347 C3348 1.523 . S
C3348 C3332 1.368 . S
C3348 C3344 1.368 . S
C3348 C3347 1.523 . S
H3349 C3324 0.950 . S
H3350 C3326 0.950 . S
H3351 C3327 0.949 . S
H3352 C3329 0.950 . S
H3353 C3331 0.950 . S
C3354 C3355 1.349 . S
C3354 C3356 1.327 . S
C3354 H3379 0.950 1_565 S
C3355 C3354 1.349 . S
C3355 C3371 1.349 . S
C3356 C3354 1.327 . S
C3356 C3375 1.429 . S
C3356 H3380 0.950 1_565 S
C3357 C3374 1.574 . S
C3357 C3376 1.368 . S
C3357 H3381 0.949 . S
H3358 C3362 0.949 . S
C3359 C3360 1.349 . S
C3359 C3361 1.327 . S
C3359 H3382 0.950 . S
C3360 C3359 1.349 . S
C3360 C3372 1.349 1_565 S
C3361 C3359 1.327 . S
C3361 C3377 1.429 . S
C3361 H3383 0.950 . S
C3362 H3358 0.949 . S
C3362 C3370 1.572 1_545 S
C3362 C3378 1.368 1_545 S
H3363 C3371 0.950 . S
H3364 C3369 0.950 . S
H3365 C3370 0.938 1_545 S
H3366 C3372 0.950 . S
H3367 C3373 0.950 . S
H3368 C3374 0.949 . S
C3369 H3364 0.950 . S
C3369 C3371 1.327 . S
C3369 C3375 1.429 . S
C3370 C3362 1.572 1_565 S
C3370 H3365 0.938 1_565 S
C3370 C3376 1.383 . S
C3371 C3355 1.349 . S
C3371 H3363 0.950 . S
C3371 C3369 1.327 . S
C3372 C3360 1.349 1_545 S
C3372 H3366 0.950 . S
C3372 C3373 1.327 . S
C3373 H3367 0.950 . S
C3373 C3372 1.327 . S
C3373 C3377 1.429 1_545 S
C3374 C3357 1.574 . S
C3374 H3368 0.949 . S
C3374 C3378 1.368 . S
C3375 C3356 1.429 . S
C3375 C3369 1.429 . S
C3375 C3376 1.523 . S
C3376 C3357 1.368 . S
C3376 C3370 1.383 . S
C3376 C3375 1.523 . S
C3377 C3361 1.429 . S
C3377 C3373 1.429 1_565 S
C3377 C3378 1.523 . S
C3378 C3362 1.368 1_565 S
C3378 C3374 1.368 . S
C3378 C3377 1.523 . S
H3379 C3354 0.950 1_545 S
H3380 C3356 0.950 1_545 S
H3381 C3357 0.949 . S
H3382 C3359 0.950 . S
H3383 C3361 0.950 . S
C3384 C3385 1.349 . S
C3384 C3386 1.327 . S
C3384 H3409 0.950 . S
C3385 C3384 1.349 . S
C3385 C3401 1.349 . S
C3386 C3384 1.327 . S
C3386 C3405 1.429 . S
C3386 H3410 0.950 . S
C3387 C3404 1.574 . S
C3387 C3406 1.368 . S
C3387 H3411 0.949 . S
H3388 C3392 0.949 . S
C3389 C3390 1.349 . S
C3389 C3391 1.327 1_655 S
C3389 H3412 0.950 . S
C3390 C3389 1.349 . S
C3390 C3402 1.349 . S
C3391 C3389 1.327 1_455 S
C3391 C3407 1.429 . S
C3391 H3413 0.950 . S
C3392 H3388 0.949 . S
C3392 C3400 1.574 . S
C3392 C3408 1.368 . S
H3393 C3401 0.950 . S
H3394 C3399 0.950 . S
H3395 C3400 0.949 . S
H3396 C3402 0.950 . S
H3397 C3403 0.950 . S
H3398 C3404 0.949 . S
C3399 H3394 0.950 . S
C3399 C3401 1.327 . S
C3399 C3405 1.429 . S
C3400 C3392 1.574 . S
C3400 H3395 0.949 . S
C3400 C3406 1.368 . S
C3401 C3385 1.349 . S
C3401 H3393 0.950 . S
C3401 C3399 1.327 . S
C3402 C3390 1.349 . S
C3402 H3396 0.950 . S
C3402 C3403 1.327 1_655 S
C3403 H3397 0.950 . S
C3403 C3402 1.327 1_455 S
C3403 C3407 1.429 . S
C3404 C3387 1.574 . S
C3404 H3398 0.949 . S
C3404 C3408 1.368 . S
C3405 C3386 1.429 . S
C3405 C3399 1.429 . S
C3405 C3406 1.523 . S
C3406 C3387 1.368 . S
C3406 C3400 1.368 . S
C3406 C3405 1.523 . S
C3407 C3391 1.429 . S
C3407 C3403 1.429 . S
C3407 C3408 1.523 . S
C3408 C3392 1.368 . S
C3408 C3404 1.368 . S
C3408 C3407 1.523 . S
H3409 C3384 0.950 . S
H3410 C3386 0.950 . S
H3411 C3387 0.949 . S
H3412 C3389 0.950 . S
H3413 C3391 0.950 . S
C3414 C3415 1.349 . S
C3414 C3416 1.327 . S
C3414 H3439 0.950 . S
C3415 C3414 1.349 . S
C3415 C3431 1.349 . S
C3416 C3414 1.327 . S
C3416 C3435 1.429 . S
C3416 H3440 0.950 . S
C3417 C3434 1.574 . S
C3417 C3436 1.368 . S
C3417 H3441 0.949 . S
H3418 C3422 0.949 . S
C3419 C3420 1.349 . S
C3419 C3421 1.327 . S
C3419 H3442 0.950 . S
C3420 C3419 1.349 . S
C3420 C3432 1.349 . S
C3421 C3419 1.327 . S
C3421 C3437 1.429 1_655 S
C3421 H3443 0.950 . S
C3422 H3418 0.949 . S
C3422 C3430 1.574 . S
C3422 C3438 1.368 . S
H3423 C3431 0.950 . S
H3424 C3429 0.950 . S
H3425 C3430 0.949 . S
H3426 C3432 0.950 . S
H3427 C3433 0.968 . S
H3428 C3434 0.949 . S
C3429 H3424 0.950 . S
C3429 C3431 1.327 . S
C3429 C3435 1.429 . S
C3430 C3422 1.574 . S
C3430 H3425 0.949 . S
C3430 C3436 1.368 . S
C3431 C3415 1.349 . S
C3431 H3423 0.950 . S
C3431 C3429 1.327 . S
C3432 C3420 1.349 . S
C3432 H3426 0.950 . S
C3432 C3433 1.296 1_655 S
C3433 H3427 0.968 . S
C3433 C3432 1.296 1_455 S
C3433 C3437 1.442 . S
C3434 C3417 1.574 . S
C3434 H3428 0.949 . S
C3434 C3438 1.368 . S
C3435 C3416 1.429 . S
C3435 C3429 1.429 . S
C3435 C3436 1.523 . S
C3436 C3417 1.368 . S
C3436 C3430 1.368 . S
C3436 C3435 1.523 . S
C3437 C3421 1.429 1_455 S
C3437 C3433 1.442 . S
C3437 C3438 1.523 . S
C3438 C3422 1.368 . S
C3438 C3434 1.368 . S
C3438 C3437 1.523 . S
H3439 C3414 0.950 . S
H3440 C3416 0.950 . S
H3441 C3417 0.949 . S
H3442 C3419 0.950 . S
H3443 C3421 0.950 . S
C3444 C3445 1.355 . S
C3444 C3446 1.327 . S
C3444 H3469 0.950 . S
C3445 C3444 1.355 . S
C3445 C3461 1.341 1_655 S
C3446 C3444 1.327 . S
C3446 C3465 1.429 1_655 S
C3446 H3470 0.950 . S
C3447 C3464 1.574 . S
C3447 C3466 1.368 . S
C3447 H3471 0.949 . S
H3448 C3452 0.949 1_655 S
C3449 C3450 1.349 . S
C3449 C3451 1.327 . S
C3449 H3472 0.950 . S
C3450 C3449 1.349 . S
C3450 C3462 1.349 . S
C3451 C3449 1.327 . S
C3451 C3467 1.429 . S
C3451 H3473 0.950 . S
C3452 H3448 0.949 1_455 S
C3452 C3460 1.574 1_455 S
C3452 C3468 1.368 . S
H3453 C3461 0.950 . S
H3454 C3459 0.950 . S
H3455 C3460 0.949 . S
H3456 C3462 0.950 . S
H3457 C3463 0.928 1_655 S
H3458 C3464 0.949 . S
C3459 H3454 0.950 . S
C3459 C3461 1.327 . S
C3459 C3465 1.429 . S
C3460 C3452 1.574 1_655 S
C3460 H3455 0.949 . S
C3460 C3466 1.368 1_655 S
C3461 C3445 1.341 1_455 S
C3461 H3453 0.950 . S
C3461 C3459 1.327 . S
C3462 C3450 1.349 . S
C3462 H3456 0.950 . S
C3462 C3463 1.327 . S
C3463 H3457 0.928 1_455 S
C3463 C3462 1.327 . S
C3463 C3467 1.429 . S
C3464 C3447 1.574 . S
C3464 H3458 0.949 . S
C3464 C3468 1.368 . S
C3465 C3446 1.429 1_455 S
C3465 C3459 1.429 . S
C3465 C3466 1.523 . S
C3466 C3447 1.368 . S
C3466 C3460 1.368 1_455 S
C3466 C3465 1.523 . S
C3467 C3451 1.429 . S
C3467 C3463 1.429 . S
C3467 C3468 1.523 . S
C3468 C3452 1.368 . S
C3468 C3464 1.368 . S
C3468 C3467 1.523 . S
H3469 C3444 0.950 . S
H3470 C3446 0.950 . S
H3471 C3447 0.949 . S
H3472 C3449 0.950 . S
H3473 C3451 0.950 . S
C3474 C3475 1.349 . S
C3474 C3476 1.327 . S
C3474 H3499 0.950 . S
C3475 C3474 1.349 . S
C3475 C3491 1.349 . S
C3476 C3474 1.327 . S
C3476 C3495 1.429 . S
C3476 H3500 0.950 . S
C3477 C3494 1.574 . S
C3477 C3496 1.368 1_455 S
C3477 H3501 0.949 . S
H3478 C3482 0.949 . S
C3479 C3480 1.349 . S
C3479 C3481 1.327 . S
C3479 H3502 0.950 . S
C3480 C3479 1.349 . S
C3480 C3492 1.349 1_455 S
C3481 C3479 1.327 . S
C3481 C3497 1.404 1_455 S
C3481 H3503 0.950 . S
C3482 H3478 0.949 . S
C3482 C3490 1.574 . S
C3482 C3498 1.368 . S
H3483 C3491 0.925 1_455 S
H3484 C3489 0.950 1_455 S
H3485 C3490 0.949 . S
H3486 C3492 0.950 . S
H3487 C3493 0.950 . S
H3488 C3494 0.949 . S
C3489 H3484 0.950 1_655 S
C3489 C3491 1.327 . S
C3489 C3495 1.429 . S
C3490 C3482 1.574 . S
C3490 H3485 0.949 . S
C3490 C3496 1.368 . S
C3491 C3475 1.349 . S
C3491 H3483 0.925 1_655 S
C3491 C3489 1.327 . S
C3492 C3480 1.349 1_655 S
C3492 H3486 0.950 . S
C3492 C3493 1.327 . S
C3493 H3487 0.950 . S
C3493 C3492 1.327 . S
C3493 C3497 1.447 . S
C3494 C3477 1.574 . S
C3494 H3488 0.949 . S
C3494 C3498 1.368 1_455 S
C3495 C3476 1.429 . S
C3495 C3489 1.429 . S
C3495 C3496 1.523 . S
C3496 C3477 1.368 1_655 S
C3496 C3490 1.368 . S
C3496 C3495 1.523 . S
C3497 C3481 1.404 1_655 S
C3497 C3493 1.447 . S
C3497 C3498 1.529 . S
C3498 C3482 1.368 . S
C3498 C3494 1.368 1_655 S
C3498 C3497 1.529 . S
H3499 C3474 0.950 . S
H3500 C3476 0.950 . S
H3501 C3477 0.949 . S
H3502 C3479 0.950 . S
H3503 C3481 0.950 . S
C625 C361 0.636 . S
C630 C4 0.653 . S
C655 C18 0.763 . S
C660 C499 0.765 . S
C685 C30 0.539 . S
C690 C329 0.523 . S
C715 C525 0.334 . S
C720 C44 0.446 . S
C745 C369 0.580 . S
C750 C57 0.585 . S
C775 C75 0.473 . S
C780 C290 0.396 . S
C805 C393 0.660 . S
C810 C83 0.677 . S
C835 C101 0.695 . S
C840 C270 0.686 . S
C865 C465 0.738 . S
C870 C96 0.737 . S
C895 C432 0.419 . S
C900 C62 0.463 . S
C925 C70 0.572 . S
C930 C551 0.557 . S
C955 C452 0.675 . S
C960 C88 0.675 . S
C985 C108 0.564 . S
C990 C173 0.549 . S
C1015 C187 0.612 . S
C1020 C122 0.612 . S
C1045 C200 0.677 . S
C1050 C140 0.674 . S
C1075 C161 0.513 . S
C1080 C146 0.543 . S
C1105 C172 0.760 . S
C1110 C316 0.753 . S
C1135 C192 0.585 . S
C1140 C510 0.558 . S
C1165 C348 0.799 . S
C1170 C205 0.803 . S
C1195 C356 0.534 . S
C1200 C213 0.575 . S
C1225 C231 0.803 . S
C1230 C380 0.794 . S
C1255 C239 0.577 . S
C1260 C49 0.584 . S
C1285 C251 0.698 . S
C1290 C23 0.697 . S
C1315 C575 0.630 . S
C1320 C276 0.594 . S
C1345 C603 0.544 . S
C1350 C302 0.527 . S
C1375 C315 0.328 . S
C1380 C107 0.450 . S
C1405 C343 0.783 . S
C1410 C135 0.780 . S
C1435 C328 0.911 . S
C1440 C564 0.931 . S
C1465 C433 0.900 . S
C1470 C374 0.888 . S
C1495 C447 0.550 . S
C1500 C394 0.497 . S
C1525 C420 0.851 . S
C1530 C408 0.861 . S
C1555 C226 0.724 . S
C1560 C588 0.723 . S
C1585 C473 0.949 . S
C1590 C303 0.932 . S
C1615 C277 0.480 . S
C1620 C485 0.530 . S
C1645 C615 0.452 . S
C1650 C413 0.358 . S
C1675 C381 0.693 . S
C1680 C589 0.694 . S
C1705 C127 0.678 . S
C1710 C511 0.661 . S
C1735 C147 0.594 . S
C1740 C543 0.580 . S
C1765 C166 0.884 . S
C1770 C538 0.870 . S
C1795 C250 0.795 . S
C1800 C504 0.793 . S
C1825 C244 0.742 . S
C1830 C530 0.734 . S
C1855 C289 0.843 . S
C1860 C556 0.836 . S
C1885 C265 0.815 . S
C1890 C460 0.813 . S
C1915 C576 0.710 . S
C1920 C484 0.710 . S
C1945 C608 0.445 . S
C1950 C478 0.393 . S
C1975 C614 0.584 . S
C1980 C419 0.575 . S
C2005 C569 0.493 . S
C2010 C29 0.529 . S
C2035 C218 0.624 . S
C2040 C3 0.626 . S
C2065 C10 1.451 . S
C2070 C601 1.465 . S
C2095 C16 1.368 . S
C2100 C621 1.395 . S
C2125 C36 1.466 . S
C2130 C577 1.467 . S
C2155 C42 1.455 . S
C2160 C595 1.408 1_556 S
C2185 C55 1.487 . S
C2190 C121 1.476 . S
C2215 C69 1.356 . S
C2220 C133 1.328 1_554 S
C2245 C81 1.492 . S
C2250 C153 1.490 . S
C2275 C95 1.421 . S
C2280 C109 1.463 . S
C2305 C94 1.728 . S
C2310 C512 1.569 . S
C2335 C56 1.374 . S
C2340 C342 1.304 . S
C2365 C68 1.632 . S
C2370 C536 1.615 . S
C2395 C82 1.876 . S
C2400 C322 1.770 . S
C2425 C114 1.599 . S
C2430 C309 1.560 . S
C2455 C120 1.884 . S
C2460 C406 1.790 . S
C2485 C134 1.771 . S
C2490 C283 1.597 . S
C2515 C382 1.316 . S
C2520 C148 1.387 . S
C2545 C159 1.343 . S
C2550 C252 1.453 . S
C2575 C174 1.479 . S
C2580 C212 1.473 . S
C2605 C257 1.194 . S
C2610 C186 1.243 . S
C2635 C563 1.324 . S
C2640 C199 1.431 . S
C2665 C198 1.263 . S
C2670 C211 1.273 1_556 S
C2695 C472 1.426 . S
C2700 C225 1.554 . S
C2725 C160 1.627 1_556 S
C2730 C237 1.656 . S
C2755 C523 1.733 . S
C2760 C264 1.834 . S
C2785 C537 1.927 . S
C2790 C278 1.854 . S
C2815 C296 1.658 . S
C2820 C497 1.797 . S
C2845 C517 1.881 . S
C2850 C304 1.979 . S
C2875 C317 1.747 . S
C2880 C387 1.855 . S
C2905 C395 1.889 . S
C2910 C335 1.964 . S
C2935 C341 1.839 . S
C2940 C407 1.694 . S
C2965 C367 1.897 . S
C2970 C355 1.803 . S
C2995 C354 1.552 . S
C3000 C590 1.694 . S
C3025 C616 1.641 . S
C3030 C330 1.613 . S
C3055 C368 1.528 . S
C3060 C43 1.552 . S
C3085 C17 1.794 . S
C3090 C400 1.612 . S
C3115 C486 1.489 . S
C3120 C426 1.479 . S
C3145 C458 1.554 1_655 S
C3150 C434 1.429 1_655 S
C3175 C224 1.251 . S
C3180 C491 1.297 1_554 S
C3205 C446 1.496 . S
C3210 C550 1.490 . S
C3235 C459 1.198 . S
C3240 C445 1.254 . S
C3265 C185 1.528 . S
C3270 C238 1.515 . S
C3295 C421 1.697 . S
C3300 C471 1.665 . S
C3325 C602 1.389 . S
C3330 C498 1.318 . S
C3355 C524 1.715 . S
C3360 C582 1.820 . S
C3385 C5 1.841 . S
C3390 C291 1.751 . S
C3415 C263 1.310 . S
C3420 C31 1.380 . S
C3445 C439 1.685 1_654 S
C3450 C549 1.735 . S
C3475 C179 1.617 . S
C3480 C562 1.611 . S
