# Generated by pormake.
# Topology smm, (6)-cn, num edge types: 1
# Building blocks:
#     Node 0, Type 0, BuildingBlock: CUKXOW_clean_sbu_0, # of connection points: 6
#     Node 1, Type 0, BuildingBlock: CUKXOW_clean_sbu_0, # of connection points: 6
#     Node 2, Type 0, BuildingBlock: CUKXOW_clean_sbu_0, # of connection points: 6
#     Node 3, Type 0, BuildingBlock: CUKXOW_clean_sbu_0, # of connection points: 6
#     Node 4, Type 0, BuildingBlock: CUKXOW_clean_sbu_0, # of connection points: 6
#     Node 5, Type 0, BuildingBlock: CUKXOW_clean_sbu_0, # of connection points: 6
#     Node 6, Type 0, BuildingBlock: CUKXOW_clean_sbu_0, # of connection points: 6
#     Node 7, Type 0, BuildingBlock: CUKXOW_clean_sbu_0, # of connection points: 6
#     Node 8, Type 0, BuildingBlock: CUKXOW_clean_sbu_0, # of connection points: 6
#     Edge 9, Type (0, 0), BuildingBlock: EZIPEK_clean_linker_0, # of connection points: 2
#     Edge 10, Type (0, 0), BuildingBlock: EZIPEK_clean_linker_0, # of connection points: 2
#     Edge 11, Type (0, 0), BuildingBlock: EZIPEK_clean_linker_0, # of connection points: 2
#     Edge 12, Type (0, 0), BuildingBlock: EZIPEK_clean_linker_0, # of connection points: 2
#     Edge 13, Type (0, 0), BuildingBlock: EZIPEK_clean_linker_0, # of connection points: 2
#     Edge 14, Type (0, 0), BuildingBlock: EZIPEK_clean_linker_0, # of connection points: 2
#     Edge 15, Type (0, 0), BuildingBlock: EZIPEK_clean_linker_0, # of connection points: 2
#     Edge 16, Type (0, 0), BuildingBlock: EZIPEK_clean_linker_0, # of connection points: 2
#     Edge 17, Type (0, 0), BuildingBlock: EZIPEK_clean_linker_0, # of connection points: 2
#     Edge 18, Type (0, 0), BuildingBlock: EZIPEK_clean_linker_0, # of connection points: 2
#     Edge 19, Type (0, 0), BuildingBlock: EZIPEK_clean_linker_0, # of connection points: 2
#     Edge 20, Type (0, 0), BuildingBlock: EZIPEK_clean_linker_0, # of connection points: 2
#     Edge 21, Type (0, 0), BuildingBlock: EZIPEK_clean_linker_0, # of connection points: 2
#     Edge 22, Type (0, 0), BuildingBlock: EZIPEK_clean_linker_0, # of connection points: 2
#     Edge 23, Type (0, 0), BuildingBlock: EZIPEK_clean_linker_0, # of connection points: 2
#     Edge 24, Type (0, 0), BuildingBlock: EZIPEK_clean_linker_0, # of connection points: 2
#     Edge 25, Type (0, 0), BuildingBlock: EZIPEK_clean_linker_0, # of connection points: 2
#     Edge 26, Type (0, 0), BuildingBlock: EZIPEK_clean_linker_0, # of connection points: 2
#     Edge 27, Type (0, 0), BuildingBlock: EZIPEK_clean_linker_0, # of connection points: 2
#     Edge 28, Type (0, 0), BuildingBlock: EZIPEK_clean_linker_0, # of connection points: 2
#     Edge 29, Type (0, 0), BuildingBlock: EZIPEK_clean_linker_0, # of connection points: 2
#     Edge 30, Type (0, 0), BuildingBlock: EZIPEK_clean_linker_0, # of connection points: 2
#     Edge 31, Type (0, 0), BuildingBlock: EZIPEK_clean_linker_0, # of connection points: 2
#     Edge 32, Type (0, 0), BuildingBlock: EZIPEK_clean_linker_0, # of connection points: 2
#     Edge 33, Type (0, 0), BuildingBlock: EZIPEK_clean_linker_0, # of connection points: 2
#     Edge 34, Type (0, 0), BuildingBlock: EZIPEK_clean_linker_0, # of connection points: 2
#     Edge 35, Type (0, 0), BuildingBlock: EZIPEK_clean_linker_0, # of connection points: 2
# Relax obj value: 0.095
# Max RMSD: 0.193
# Mean RMSD: 0.155
data_MOF--net-smm--node1-CUKXOW_clean_sbu_0--edge1-EZIPEK_clean_linker_0
_symmetry_space_group_name_H-M    P1
_symmetry_Int_Tables_number       1
_symmetry_cell_setting            triclinic
loop_
_symmetry_equiv_pos_as_xyz
'x, y, z'
_cell_length_a     43.981534
_cell_length_b     37.253147
_cell_length_c     11.133109
_cell_angle_alpha  92.486463
_cell_angle_beta   91.528904
_cell_angle_gamma 121.57393
loop_
_atom_site_label
_atom_site_type_symbol
_atom_site_fract_x
_atom_site_fract_y
_atom_site_fract_z
_atom_type_partial_charge
Tb0 Tb 1.03096 0.26188 0.94449 0.0
C1 C 0.06632 0.24839 0.178 0.0
Tb2 Tb 0.09221 0.24011 0.92196 0.0
O3 O 0.98587 0.19706 0.96111 0.0
O4 O 1.03654 0.20903 0.94151 0.0
O5 O 0.04687 0.26216 0.12957 0.0
C6 C 0.13178 0.20481 0.91367 0.0
O7 O 0.08529 0.23662 0.11546 0.0
C8 C 0.11212 0.31907 0.87814 0.0
C9 C 0.05116 0.24544 0.68864 0.0
O10 O 0.13866 0.23734 -0.01626 0.0
O11 O 0.10235 0.19176 0.8488 0.0
O12 O 0.1307 0.30192 0.85462 0.0
O13 O 0.08751 0.29383 0.94258 0.0
O14 O 0.06862 0.22873 0.73821 0.0
O15 O 1.03684 0.26347 0.75196 0.0
C16 C 0.99944 0.30219 0.02702 0.0
O17 O 0.985 0.2701 0.94781 0.0
O18 O 1.03225 0.31318 0.05206 0.0
C19 C 1.00491 0.17977 0.95702 0.0
Tb20 Tb 0.84635 0.93136 0.01204 0.0
C21 C 0.8747 0.91589 0.77387 0.0
Tb22 Tb 0.90914 0.92388 0.02487 0.0
O23 O 0.87718 0.99992 0.05006 0.0
O24 O 0.9001 0.97057 0.96169 0.0
O25 O 0.84603 0.90722 0.83024 0.0
C26 C 0.97442 0.93635 0.03921 0.0
O27 O 0.90532 0.92894 0.83328 0.0
C28 C 0.84785 0.84997 0.0434 0.0
C29 C 0.88002 0.93698 0.26638 0.0
O30 O 0.94584 0.90189 -0.00274 0.0
O31 O 0.96613 0.96335 0.0769 0.0
O32 O 0.87502 0.85495 -0.01316 0.0
O33 O 0.85616 0.88612 0.08387 0.0
O34 O 0.9092 0.94505 0.21168 0.0
O35 O 0.8493 0.92383 0.20425 0.0
C36 C 0.78143 0.91018 0.92756 0.0
O37 O 0.7978 0.93485 0.02427 0.0
O38 O 0.80125 0.89774 0.88231 0.0
C39 C 0.90675 1.00521 0.01121 0.0
Tb40 Tb 0.2697 0.10971 0.91322 0.0
C41 C 0.23023 0.07552 0.15086 0.0
Tb42 Tb 0.1889 0.043 0.89802 0.0
O43 O 0.25956 0.15942 0.86215 0.0
O44 O 0.22199 0.10791 0.95022 0.0
O45 O 0.26091 0.09237 0.09841 0.0
C46 C 0.11965 0.99945 0.92823 0.0
O47 O 0.19897 0.05815 0.09017 0.0
C48 C 0.23077 1.01431 0.83973 0.0
C49 C 0.22719 0.0816 0.6659 0.0
O50 O 0.14231 0.99036 0.97149 0.0
O51 O 0.13565 1.03216 0.86433 0.0
O52 O 0.19727 0.99577 0.80392 0.0
O53 O 0.23704 0.04368 0.91607 0.0
O54 O 0.19794 0.07013 0.72441 0.0
O55 O 0.25819 0.09231 0.72165 0.0
C56 C 0.33914 0.14535 -0.0201 0.0
O57 O 0.31879 0.15975 0.00786 0.0
O58 O 0.32031 0.11223 0.90593 0.0
C59 C 0.22712 0.13992 0.8988 0.0
Tb60 Tb 0.72228 0.62849 0.40363 0.0
C61 C 0.7001 0.57547 0.15072 0.0
Tb62 Tb 0.66848 0.53302 0.39324 0.0
O63 O 0.76521 0.6208 0.47783 0.0
O64 O 0.7237 0.57291 0.36811 0.0
O65 O 0.71908 0.61245 0.21236 0.0
C66 C 0.63799 0.44895 0.38251 0.0
O67 O 0.67696 0.54062 0.2021 0.0
C68 C 0.64054 0.57964 0.44789 0.0
C69 C 0.69904 0.58452 0.63942 0.0
O70 O 0.62498 0.46908 0.33032 0.0
O71 O 0.66822 0.47626 0.43936 0.0
O72 O 0.62729 0.54096 0.47563 0.0
O73 O 0.66558 0.58832 0.37862 0.0
O74 O 0.69115 0.54955 0.57612 0.0
O75 O 0.70551 0.61922 0.58765 0.0
C76 C 0.75824 0.70856 0.33665 0.0
O77 O 0.76967 0.69293 0.41528 0.0
O78 O 0.72527 0.68011 0.30528 0.0
C79 C 0.75083 0.58208 0.43436 0.0
Tb80 Tb 0.50692 0.18654 0.40063 0.0
C81 C 0.54897 0.19068 0.17234 0.0
Tb82 Tb 0.58367 0.20357 0.4344 0.0
O83 O 0.52656 0.24823 0.33094 0.0
O84 O 0.55905 0.23976 0.44744 0.0
O85 O 0.51777 0.1792 0.21628 0.0
C86 C 0.65555 0.24706 0.4347 0.0
O87 O 0.57807 0.20149 0.2396 0.0
C88 C 0.53182 0.12448 0.46191 0.0
C89 C 0.53989 0.19609 0.66265 0.0
O90 O 0.63568 0.26305 0.44388 0.0
O91 O 0.63498 0.20608 0.42742 0.0
O92 O 0.56494 0.1413 0.50269 0.0
O93 O 0.53134 0.15043 0.39244 0.0
O94 O 0.57202 0.21018 0.61994 0.0
O95 O 0.51039 0.1833 0.59396 0.0
C96 C 0.43711 0.15553 0.34902 0.0
O97 O 0.45986 0.19209 0.40334 0.0
O98 O 0.45389 0.1358 0.33242 0.0
C99 C 0.55885 0.26562 0.37779 0.0
Tb100 Tb 0.8823 0.38111 0.42313 0.0
C101 C 0.86588 0.41792 0.19488 0.0
Tb102 Tb 0.85974 0.44996 0.45226 0.0
O103 O 0.82786 0.32447 0.42628 0.0
O104 O 0.83578 0.38381 0.43175 0.0
O105 O 0.88359 0.40209 0.24388 0.0
C106 C 0.82515 0.49125 0.45566 0.0
O107 O 0.85032 0.43416 0.25827 0.0
C108 C 0.92918 0.47916 0.48589 0.0
C109 C 0.87321 0.40964 0.6825 0.0
O110 O 0.8509 0.49859 0.38666 0.0
O111 O 0.81896 0.46087 0.52324 0.0
O112 O 0.91428 0.50016 0.51788 0.0
O113 O 0.90565 0.44725 0.42141 0.0
O114 O 0.85926 0.43069 0.63583 0.0
O115 O 0.88706 0.39099 0.61868 0.0
C116 C 0.91952 0.34895 0.33437 0.0
O117 O 0.93007 0.37605 0.42759 0.0
O118 O 0.88751 0.33835 0.29774 0.0
C119 C 0.81141 0.34516 0.42875 0.0
Tb120 Tb 0.34165 0.89815 0.60971 0.0
C121 C 0.37211 0.87989 0.84259 0.0
Tb122 Tb 0.39546 0.86549 0.58603 0.0
O123 O 0.29271 0.83612 0.63215 0.0
O124 O 0.34057 0.84063 0.61082 0.0
O125 O 0.35731 0.89944 0.79508 0.0
C126 C 0.42812 0.82225 0.57196 0.0
O127 O 0.38651 0.86213 0.77868 0.0
C128 C 0.42945 0.94879 0.56414 0.0
C129 C 0.35669 0.87448 0.35273 0.0
O130 O 0.4336 0.85006 0.6576 0.0
O131 O 0.40325 0.81757 0.49532 0.0
O132 O 0.44447 0.92682 0.56019 0.0
O133 O 0.39688 0.92314 0.58283 0.0
O134 O 0.37359 0.85702 0.40127 0.0
O135 O 0.34515 0.89541 0.41676 0.0
C136 C 0.31751 0.94908 0.66544 0.0
O137 O 0.3013 0.9155 0.59158 0.0
O138 O 0.3484 0.95545 0.70139 0.0
C139 C 0.30803 0.81428 0.62766 0.0
Tb140 Tb 0.147 0.55704 0.65786 0.0
C141 C 0.17937 0.54403 0.42116 0.0
Tb142 Tb 0.22049 0.56374 0.67711 0.0
O143 O 0.1735 0.6254 0.70494 0.0
O144 O 0.20087 0.60164 0.61773 0.0
O145 O 0.15003 0.53557 0.47525 0.0
C146 C 0.28823 0.58677 0.6538 0.0
O147 O 0.21043 0.56062 0.48327 0.0
C148 C 0.16933 0.48591 0.721 0.0
C149 C 0.187 0.57436 0.91476 0.0
O150 O 0.26055 0.55195 0.60858 0.0
O151 O 0.27799 0.60903 0.71432 0.0
O152 O 0.20305 0.49923 0.7211 0.0
O153 O 0.16604 0.51659 0.69495 0.0
O154 O 0.21666 0.58272 0.86175 0.0
O155 O 0.15612 0.55983 0.85208 0.0
C156 C 0.07774 0.53187 0.61678 0.0
O157 O 0.08978 0.51563 0.69126 0.0
O158 O 0.10461 0.56244 0.56686 0.0
C159 C 0.20448 0.63498 0.66702 0.0
Tb160 Tb 0.58256 0.75421 0.57639 0.0
C161 C 0.54412 0.70723 0.80336 0.0
Tb162 Tb 0.50393 0.67471 0.5493 0.0
O163 O 0.56173 0.7935 0.51929 0.0
O164 O 0.53004 0.73923 0.60797 0.0
O165 O 0.57477 0.72734 0.75061 0.0
C166 C 0.43281 0.63601 0.54692 0.0
O167 O 0.51267 0.68825 0.74299 0.0
C168 C 0.55197 0.65239 0.51788 0.0
C169 C 0.54544 0.71972 0.32169 0.0
O170 O 0.45294 0.63224 0.62664 0.0
O171 O 0.45266 0.65903 0.46345 0.0
O172 O 0.51748 0.62558 0.51254 0.0
O173 O 0.55646 0.68824 0.54294 0.0
O174 O 0.51413 0.70038 0.37225 0.0
O175 O 0.57689 0.73926 0.38413 0.0
C176 C 0.64752 0.81432 0.6636 0.0
O177 O 0.64101 0.7833 0.58674 0.0
O178 O 0.61793 0.81187 0.68717 0.0
C179 C 0.53001 0.76858 0.55648 0.0
C180 C 0.11587 0.39025 0.89884 0.0
C181 C 0.11849 0.3594 0.8268 0.0
C182 C 0.14258 0.40965 0.66541 0.0
C183 C 0.14197 0.44075 0.74075 0.0
N184 N 0.11785 0.4569 0.90998 0.0
N185 N 0.13383 0.33992 0.63716 0.0
C186 C 0.12513 0.42965 0.85114 0.0
C187 C 0.13138 0.3691 0.70824 0.0
N188 N 0.10807 0.38396 0.01688 0.0
N189 N 0.15347 0.41933 0.55096 0.0
H190 H 0.12165 0.3083 0.6547 0.0
H191 H 0.14744 0.34629 0.5585 0.0
H192 H 0.15976 0.44799 0.517 0.0
H193 H 0.15442 0.39896 0.48664 0.0
H194 H 0.10969 0.40701 0.0777 0.0
H195 H 0.10319 0.35707 0.05803 0.0
H196 H 0.10313 0.45001 -0.01357 0.0
H197 H 0.12289 0.48442 0.8724 0.0
C198 C 0.74379 0.90163 0.74601 0.0
C199 C 0.74597 0.89662 0.87115 0.0
C200 C 0.68367 0.83866 0.86006 0.0
C201 C 0.68157 0.84284 0.73401 0.0
N202 N 0.70665 0.88279 0.56075 0.0
N203 N 0.71648 0.86911 0.05318 0.0
C204 C 0.71077 0.87579 0.67796 0.0
C205 C 0.71522 0.86826 0.93028 0.0
N206 N 0.77382 0.93054 0.69238 0.0
N207 N 0.65643 0.80475 0.91124 0.0
H208 H 0.73941 0.89043 0.10627 0.0
H209 H 0.69412 0.85182 0.10276 0.0
H210 H 0.63356 0.78133 0.86217 0.0
H211 H 0.65773 0.79751 -0.00024 0.0
H212 H 0.77585 0.93237 0.59966 0.0
H213 H 0.79735 0.9524 0.74225 0.0
H214 H 0.72573 0.90871 0.51744 0.0
H215 H 0.68293 0.8639 0.50816 0.0
C216 C 0.28011 0.99878 0.87866 0.0
C217 C 0.25682 1.00265 0.79577 0.0
C218 C 0.28265 0.98345 0.62887 0.0
C219 C 0.30079 0.97255 0.71193 0.0
N220 N 0.3135 0.96514 0.91911 0.0
N221 N 0.23397 0.99377 0.58864 0.0
C222 C 0.29926 0.97966 0.83775 0.0
C223 C 0.25758 0.99362 0.67007 0.0
N224 N 0.28337 1.01197 -0.00264 0.0
N225 N 0.29021 0.98542 0.51008 0.0
H226 H 0.21623 1.00282 0.6114 0.0
H227 H 0.23023 0.98198 0.49936 0.0
H228 H 0.30918 0.97929 0.47736 0.0
H229 H 0.28082 0.99772 0.44691 0.0
H230 H 0.30374 1.01573 0.0566 0.0
H231 H 0.26741 1.02168 0.03619 0.0
H232 H 0.30934 0.96472 0.01083 0.0
H233 H 0.32681 0.94988 0.89511 0.0
C234 C 0.39729 0.17923 0.26626 0.0
C235 C 0.40617 0.1478 0.26877 0.0
C236 C 0.37816 0.12058 0.0655 0.0
C237 C 0.36934 0.15215 0.0625 0.0
N238 N 0.38167 0.2198 0.14288 0.0
N239 N 0.3918 0.07893 0.19154 0.0
C240 C 0.38208 0.18388 0.15829 0.0
C241 C 0.39269 0.11553 0.1744 0.0
N242 N 0.40132 0.20282 0.36951 0.0
N243 N 0.37499 0.09731 0.96248 0.0
H244 H 0.39856 0.07253 0.27506 0.0
H245 H 0.37966 0.05288 0.12929 0.0
H246 H 0.36901 0.10405 0.8783 0.0
H247 H 0.38341 0.07586 0.95785 0.0
H248 H 0.39249 0.22385 0.37626 0.0
H249 H 0.40903 0.19701 0.4523 0.0
H250 H 0.39325 0.24567 0.20562 0.0
H251 H 0.37398 0.22583 0.0604 0.0
C252 C 0.94938 0.35353 0.14158 0.0
C253 C 0.94274 0.33982 0.2608 0.0
C254 C 0.9745 0.30262 0.22799 0.0
C255 C 0.97902 0.31417 0.10618 0.0
N256 N 0.96667 0.34531 0.94174 0.0
N257 N 0.94699 0.29989 0.4171 0.0
C258 C 0.96516 0.33798 0.06142 0.0
C259 C 0.95522 0.31444 0.30454 0.0
N260 N 0.94225 0.38321 0.10686 0.0
N261 N 0.98794 0.27941 0.26957 0.0
H262 H 0.93365 0.30877 0.47598 0.0
H263 H 0.9517 0.27757 0.45111 0.0
H264 H 0.99703 0.26459 0.21276 0.0
H265 H 0.99051 0.27505 0.36009 0.0
H266 H 0.9498 0.39791 0.02631 0.0
H267 H 0.93212 0.39659 0.16436 0.0
H268 H 0.95329 0.35806 0.90011 0.0
H269 H 0.97917 0.33567 0.88138 0.0
C270 C 0.78991 0.80277 0.14199 0.0
C271 C 0.82461 0.81201 0.11342 0.0
C272 C 0.81359 0.75009 0.21975 0.0
C273 C 0.78152 0.74496 0.26328 0.0
N274 N 0.74198 0.77127 0.27922 0.0
N275 N 0.87279 0.79986 0.16213 0.0
C276 C 0.77049 0.77273 0.22818 0.0
C277 C 0.83748 0.78727 0.16234 0.0
N278 N 0.77485 0.82166 0.08373 0.0
N279 N 0.82087 0.71878 0.22723 0.0
H280 H 0.89275 0.82839 0.1326 0.0
H281 H 0.8832 0.7844 0.20768 0.0
H282 H 0.80354 0.68972 0.26113 0.0
H283 H 0.84215 0.71967 0.18524 0.0
H284 H 0.74845 0.81338 0.09193 0.0
H285 H 0.78765 0.84227 0.01699 0.0
H286 H 0.73497 0.79362 0.26642 0.0
H287 H 0.72744 0.75014 0.34358 0.0
C288 C 1.02177 0.53242 0.65729 0.0
C289 C 1.03934 0.51673 0.5877 0.0
C290 C 0.98677 0.48023 0.44504 0.0
C291 C 0.96711 0.49145 0.52175 0.0
N292 N 0.9656 0.52278 0.71608 0.0
N293 N 1.03609 0.469 0.42797 0.0
C294 C 0.98459 0.51624 0.6319 0.0
C295 C 1.02096 0.48839 0.48597 0.0
N296 N 0.04071 0.56319 0.74736 0.0
N297 N 0.97444 0.46491 0.32914 0.0
H298 H 0.06122 0.47457 0.45446 0.0
H299 H 1.02228 0.44457 0.36128 0.0
H300 H 0.95118 0.46144 0.29133 0.0
H301 H 0.98956 0.46063 0.26615 0.0
H302 H 1.03084 0.57991 0.79137 0.0
H303 H 0.06746 0.57448 0.77163 0.0
H304 H 0.97639 0.53755 0.80124 0.0
H305 H 0.93796 0.50841 0.70966 0.0
C306 C 0.59144 0.63801 0.38664 0.0
C307 C 0.57984 0.64092 0.5028 0.0
C308 C 0.61317 0.61022 0.58519 0.0
C309 C 0.62164 0.60328 0.46672 0.0
N310 N 0.61282 0.60419 0.25204 0.0
N311 N 0.57846 0.62832 0.71286 0.0
C312 C 0.60957 0.61597 0.36681 0.0
C313 C 0.59066 0.62688 0.60216 0.0
N314 N 0.58534 0.65668 0.29451 0.0
N315 N 0.62722 0.60162 0.68252 0.0
H316 H 0.56435 0.64317 0.73019 0.0
H317 H 0.58077 0.61328 0.78607 0.0
H318 H 0.64201 0.58743 0.67437 0.0
H319 H 0.62629 0.61091 0.77117 0.0
H320 H 0.59659 0.6604 0.21138 0.0
H321 H 0.57167 0.67207 0.30614 0.0
H322 H 0.60069 0.60799 0.17613 0.0
H323 H 0.62451 0.5867 0.23201 0.0
C324 C 0.47413 0.05255 0.40311 0.0
C325 C 0.50101 0.08114 0.49229 0.0
C326 C 0.47282 1.02457 0.63623 0.0
C327 C 0.44924 0.99521 0.54312 0.0
N328 N 0.43549 0.97949 0.33009 0.0
N329 N 0.52717 0.09079 0.69527 0.0
C330 C 0.45182 1.00882 0.42477 0.0
C331 C 0.50061 0.06608 0.60921 0.0
N332 N 0.46994 0.06617 0.29574 0.0
N333 N 0.46879 1.01257 0.75178 0.0
H334 H 0.54499 0.12297 0.69073 0.0
H335 H 0.53184 0.07913 0.77239 0.0
H336 H 0.44985 0.98208 0.77323 0.0
H337 H 0.48218 1.03333 0.82676 0.0
H338 H 0.44826 0.04749 0.2345 0.0
H339 H 0.48582 0.09692 0.27185 0.0
H340 H 0.44059 0.98681 0.24077 0.0
H341 H 0.4201 0.94728 0.34134 0.0
C342 C 0.1945 0.17079 0.79539 0.0
C343 C 0.20273 0.15683 0.90168 0.0
C344 C 0.16024 0.16886 0.00941 0.0
C345 C 0.15483 0.18654 0.907 0.0
N346 N 0.1706 0.21014 0.70739 0.0
N347 N 0.19897 0.15185 0.11731 0.0
C348 C 0.1729 0.18897 0.80111 0.0
C349 C 0.18693 0.15814 0.01065 0.0
N350 N 0.20616 0.16533 0.68765 0.0
N351 N 0.13921 0.16129 0.10489 0.0
H352 H 0.22 0.14677 0.12412 0.0
H353 H 0.19102 0.15656 0.20082 0.0
H354 H 0.11941 0.16872 0.10732 0.0
H355 H 0.13905 0.14403 0.17629 0.0
H356 H 0.19745 0.16992 0.60509 0.0
H357 H 0.22236 0.15286 0.67936 0.0
H358 H 0.18648 0.21747 0.63376 0.0
H359 H 0.15486 0.2235 0.70743 0.0
C360 C 0.96022 0.0621 0.90105 0.0
C361 C 0.94029 0.04793 0.00641 0.0
C362 C 0.97202 0.12104 0.09369 0.0
C363 C 0.99073 0.13526 -0.01297 0.0
N364 N 1.01189 0.11849 0.8099 0.0
N365 N 0.9385 0.06244 0.21828 0.0
C366 C 0.98814 0.10538 0.89822 0.0
C367 C 0.94994 0.07702 0.10773 0.0
N368 N 0.9512 1.03563 0.80031 0.0
N369 N 0.97429 0.1496 0.18033 0.0
H370 H 0.92351 1.0303 0.23239 0.0
H371 H 0.94729 0.08185 0.29759 0.0
H372 H 0.99181 0.18206 0.17743 0.0
H373 H 0.95774 0.14117 0.25235 0.0
H374 H 0.96161 0.04586 0.71703 0.0
H375 H 0.93155 1.00395 0.79653 0.0
H376 H 1.01362 0.09787 0.74827 0.0
H377 H 1.03237 0.14992 0.80703 0.0
C378 C 1.02007 0.95076 0.88967 0.0
C379 C 1.01084 0.94807 0.01172 0.0
C380 C 0.07332 0.97883 0.08027 0.0
C381 C 0.08207 0.97891 0.95822 0.0
N382 N 0.06322 0.95654 0.7491 0.0
N383 N 1.02666 0.95197 0.22262 0.0
C384 C 0.05524 0.96222 0.86358 0.0
C385 C 1.03687 0.95969 0.10699 0.0
N386 N 0.99601 0.94491 0.79885 0.0
N387 N 0.09977 0.99919 0.16985 0.0
H388 H 1.00009 0.93827 0.24494 0.0
H389 H 0.04391 0.95569 0.29458 0.0
H390 H 0.1269 1.0145 0.15455 0.0
H391 H 0.09501 1.00412 0.25836 0.0
H392 H 1.00277 0.95138 0.71006 0.0
H393 H 0.97006 0.93738 0.81302 0.0
H394 H 0.04389 0.94036 0.67882 0.0
H395 H 0.08879 0.96433 0.72686 0.0
C396 C 0.77208 0.53716 0.33422 0.0
C397 C 0.76848 0.55703 0.44049 0.0
C398 C 0.80387 0.53521 0.55676 0.0
C399 C 0.80461 0.51256 0.45242 0.0
N400 N 0.78217 0.48358 0.24927 0.0
N401 N 0.77583 0.56832 0.65757 0.0
C402 C 0.78647 0.51095 0.34348 0.0
C403 C 0.78293 0.55415 0.55316 0.0
N404 N 0.76425 0.54552 0.2233 0.0
N405 N 0.82437 0.54022 0.65803 0.0
H406 H 0.76099 0.58271 0.65959 0.0
H407 H 0.78195 0.56254 0.74282 0.0
H408 H 0.84003 0.52684 0.66442 0.0
H409 H 0.82827 0.56054 0.73208 0.0
H410 H 0.76981 0.53522 0.14306 0.0
H411 H 0.75634 0.56694 0.21103 0.0
H412 H 0.76574 0.47772 0.1725 0.0
H413 H 0.792 0.46351 0.25279 0.0
C414 C 0.60733 0.37766 0.26789 0.0
C415 C 0.62099 0.40214 0.37887 0.0
C416 C 0.60584 0.33782 0.47958 0.0
C417 C 0.58559 0.31232 0.37426 0.0
N418 N 0.56726 0.30954 0.16471 0.0
N419 N 0.6276 0.40398 0.59554 0.0
C420 C 0.58649 0.33277 0.26744 0.0
C421 C 0.619 0.38189 0.48599 0.0
N422 N 0.61561 0.39713 0.16199 0.0
N423 N 0.6134 0.32086 0.57326 0.0
H424 H 0.63571 0.43577 0.60592 0.0
H425 H 0.62281 0.38958 0.67689 0.0
H426 H 0.60587 0.28947 0.57266 0.0
H427 H 0.63109 0.33921 0.64582 0.0
H428 H 0.60985 0.38086 0.0779 0.0
H429 H 0.63166 0.42976 0.15827 0.0
H430 H 0.56264 0.32272 0.09104 0.0
H431 H 0.55478 0.27687 0.15376 0.0
C432 C 0.71245 0.26683 0.3316 0.0
C433 C 0.69534 0.27247 0.43067 0.0
C434 C 0.75308 0.33343 0.50954 0.0
C435 C 0.77121 0.32434 0.42074 0.0
N436 N 0.76756 0.28184 0.24424 0.0
N437 N 0.70024 0.30737 0.62395 0.0
C438 C 0.75063 0.29073 0.33119 0.0
C439 C 0.71586 0.30497 0.52174 0.0
N440 N 0.69218 0.24038 0.23449 0.0
N441 N 0.77115 0.36952 0.5821 0.0
H442 H 0.67334 0.28653 0.63851 0.0
H443 H 0.71463 0.32722 0.69966 0.0
H444 H 0.79831 0.38997 0.57832 0.0
H445 H 0.75884 0.38068 0.63811 0.0
H446 H 0.70269 0.2384 0.15353 0.0
H447 H 0.66432 0.2229 0.23041 0.0
H448 H 0.75496 0.2543 0.18783 0.0
H449 H 0.79466 0.3015 0.23028 0.0
C450 C 0.49253 0.79188 0.45066 0.0
C451 C 0.50077 0.77777 0.55639 0.0
C452 C 0.45397 0.78264 0.65813 0.0
C453 C 0.45004 0.80289 0.55966 0.0
N454 N 0.4693 0.83227 0.36715 0.0
N455 N 0.49242 0.76625 0.76911 0.0
C456 C 0.47004 0.80867 0.45661 0.0
C457 C 0.48211 0.77447 0.66222 0.0
N458 N 0.50531 0.78817 0.34332 0.0
N459 N 0.43015 0.77013 0.74665 0.0
H460 H 0.51357 0.76161 0.77941 0.0
H461 H 0.48231 0.76836 0.85092 0.0
H462 H 0.40881 0.77495 0.74526 0.0
H463 H 0.42923 0.75101 0.81381 0.0
H464 H 0.49699 0.7936 0.26123 0.0
H465 H 0.52137 0.77551 0.33425 0.0
H466 H 0.48668 0.84173 0.29737 0.0
H467 H 0.45363 0.84566 0.36766 0.0
C468 C 0.24425 0.70901 0.76447 0.0
C469 C 0.23637 0.67976 0.66444 0.0
C470 C 0.28691 0.7376 0.5645 0.0
C471 C 0.28915 0.76792 0.65172 0.0
N472 N 0.26926 0.78181 0.83832 0.0
N473 N 0.24856 0.66917 0.45896 0.0
C474 C 0.26762 0.75331 0.75278 0.0
C475 C 0.25766 0.69461 0.56229 0.0
N476 N 0.23056 0.69444 0.87291 0.0
N477 N 0.31246 0.74978 0.48271 0.0
H478 H 0.22606 0.63891 0.44816 0.0
H479 H 0.26112 0.67984 0.37884 0.0
H480 H 0.33413 0.78065 0.48381 0.0
H481 H 0.31421 0.72855 0.42361 0.0
H482 H 0.2382 0.71376 0.95216 0.0
H483 H 0.2147 0.6624 0.88685 0.0
H484 H 0.25086 0.7736 0.9046 0.0
H485 H 0.28842 0.81402 0.84083 0.0
C486 C 0.38204 0.65001 0.54188 0.0
C487 C 0.39474 0.62238 0.56276 0.0
C488 C 0.33873 0.57401 0.65546 0.0
C489 C 0.32535 0.60013 0.62712 0.0
N490 N 0.33059 0.65714 0.51625 0.0
N491 N 0.38106 0.55307 0.61066 0.0
C492 C 0.3459 0.63641 0.56231 0.0
C493 C 0.37186 0.5829 0.61135 0.0
N494 N 0.40459 0.69011 0.50885 0.0
N495 N 0.32029 0.54136 0.72761 0.0
H496 H 0.40423 0.55756 0.57347 0.0
H497 H 0.36391 0.52228 0.63429 0.0
H498 H 0.29609 0.53412 0.76271 0.0
H499 H 0.33058 0.52402 0.7618 0.0
H500 H 0.39726 0.71248 0.50492 0.0
H501 H 0.43152 0.70284 0.49607 0.0
H502 H 0.34289 0.68052 0.45555 0.0
H503 H 0.30422 0.64831 0.52896 0.0
C504 C 0.04206 0.20706 0.48847 0.0
C505 C 0.0493 0.2445 0.55455 0.0
C506 C 0.07246 0.28446 0.37619 0.0
C507 C 0.06602 0.24749 0.31058 0.0
N508 N 0.04742 0.17388 0.30415 0.0
N509 N 0.05878 0.3148 0.54569 0.0
C510 C 0.0517 0.20879 0.36672 0.0
C511 C 0.06046 0.28195 0.49397 0.0
N512 N 1.0231 0.16934 0.54019 0.0
N513 N 0.09174 0.32263 0.3269 0.0
H514 H 0.05026 0.31561 0.63107 0.0
H515 H 0.06244 0.34017 0.49844 0.0
H516 H 0.103 0.32587 0.24374 0.0
H517 H 0.09991 0.35143 0.37301 0.0
H518 H 1.01426 0.14003 0.4964 0.0
H519 H 1.01267 0.16711 0.62451 0.0
H520 H 0.04063 0.14588 0.34276 0.0
H521 H 0.05249 0.17324 0.21357 0.0
C522 C 0.87005 0.9521 0.59776 0.0
C523 C 0.87438 0.91991 0.64374 0.0
C524 C 0.88459 0.90068 0.44345 0.0
C525 C 0.87901 0.93192 0.39651 0.0
N526 N 0.86142 0.98304 0.42321 0.0
N527 N 0.87997 0.8594 0.61254 0.0
C528 C 0.87007 0.9562 0.47194 0.0
C529 C 0.88025 0.89317 0.5673 0.0
N530 N 0.86773 0.98015 0.67467 0.0
N531 N 0.89372 0.87789 0.36973 0.0
H532 H 0.87679 0.85304 0.70324 0.0
H533 H 0.87997 0.83567 0.55973 0.0
H534 H 0.89355 0.87873 0.2766 0.0
H535 H 0.90301 0.85921 0.40086 0.0
H536 H 0.86932 1.00748 0.64793 0.0
H537 H 0.86688 0.97816 0.7676 0.0
H538 H 0.84991 0.99716 0.47091 0.0
H539 H 0.86365 0.98939 0.33249 0.0
C540 C 0.25269 0.11788 0.47758 0.0
C541 C 0.22552 0.08227 0.53348 0.0
C542 C 0.20549 1.04168 0.3396 0.0
C543 C 0.23047 0.07796 0.28261 0.0
N544 N 0.27247 0.15363 0.29403 0.0
N545 N 0.16916 1.01417 0.50822 0.0
C546 C 0.25276 0.11697 0.35034 0.0
C547 C 0.19942 0.0457 0.46171 0.0
N548 N 0.27825 0.15295 0.54529 0.0
N549 N 0.18905 1.0027 0.27924 0.0
H550 H 0.16359 1.01259 0.59846 0.0
H551 H 0.14791 0.99021 0.4537 0.0
H552 H 0.19446 0.99788 0.19133 0.0
H553 H 0.17338 0.9747 0.32111 0.0
H554 H 0.30161 0.17663 0.51045 0.0
H555 H 0.277 0.15793 0.63723 0.0
H556 H 0.28564 0.18343 0.33935 0.0
H557 H 0.27316 0.15522 0.20103 0.0
C558 C 0.67436 0.54587 0.82383 0.0
C559 C 0.70073 0.58316 0.77165 0.0
C560 C 0.73395 0.60954 0.96759 0.0
C561 C 0.70544 0.57404 0.01942 0.0
N562 N 0.66438 0.49916 -0.01962 0.0
N563 N 0.75712 0.65028 0.79314 0.0
C564 C 0.68015 0.53923 0.94333 0.0
C565 C 0.73098 0.61509 0.84326 0.0
N566 N 0.64298 0.5172 0.76158 0.0
N567 N 0.76555 0.63467 0.03353 0.0
H568 H 0.75932 0.65333 0.70092 0.0
H569 H 0.77636 0.67746 0.84343 0.0
H570 H 0.77055 0.62724 0.11794 0.0
H571 H 0.78851 0.65931 -5e-05 0.0
H572 H 0.62192 0.49194 0.80161 0.0
H573 H 0.63621 0.52096 0.67502 0.0
H574 H 0.64745 0.47241 0.92385 0.0
H575 H 0.67337 0.49234 0.0586 0.0
C576 C 0.56383 0.2324 0.86451 0.0
C577 C 0.53799 0.19568 0.79474 0.0
C578 C 0.52366 0.15453 0.97161 0.0
C579 C 0.55021 0.19101 0.04057 0.0
N580 N 0.60106 0.26278 0.04821 0.0
N581 N 0.48533 0.12513 0.79011 0.0
C582 C 0.57212 0.2294 -0.01417 0.0
C583 C 0.51529 0.1577 0.85049 0.0
N584 N 0.57784 0.27078 0.81697 0.0
N585 N 0.5084 0.11621 0.02038 0.0
H586 H 0.47807 0.12513 0.70061 0.0
H587 H 0.46581 0.09903 0.8318 0.0
H588 H 0.51718 0.11278 0.10457 0.0
H589 H 0.49065 0.08758 0.97302 0.0
H590 H 0.59447 0.29954 0.86565 0.0
H591 H 0.56857 0.27373 0.73303 0.0
H592 H 0.6202 0.2895 0.00771 0.0
H593 H 0.60763 0.26303 0.13876 0.0
C594 C 0.83769 0.38269 0.86484 0.0
C595 C 0.87152 0.40612 0.81449 0.0
C596 C 0.89907 0.44236 0.01021 0.0
C597 C 0.86572 0.4184 0.06238 0.0
N598 N 0.80361 0.36295 0.04479 0.0
N599 N 0.9355 0.44624 0.84666 0.0
C600 C 0.83493 0.38784 -0.009 0.0
C601 C 0.90261 0.43231 0.88942 0.0
N602 N 0.80859 0.35465 0.7917 0.0
N603 N 0.92707 0.47589 0.07531 0.0
H604 H 0.93883 0.43809 0.75936 0.0
H605 H 0.95908 0.46218 0.90112 0.0
H606 H 0.92442 0.48559 0.16171 0.0
H607 H 0.9513 0.49666 0.03889 0.0
H608 H 0.78234 0.33971 0.81722 0.0
H609 H 0.81109 0.34629 0.70349 0.0
H610 H 0.7809 0.3373 0.00117 0.0
H611 H 0.80058 0.36725 0.13591 0.0
C612 C 0.36422 0.91024 0.15891 0.0
C613 C 0.35348 0.87282 0.21868 0.0
C614 C 0.35328 0.83736 0.02644 0.0
C615 C 0.37032 0.87712 -0.02544 0.0
N616 N 0.39923 0.95289 0.00144 0.0
N617 N 0.33275 0.79874 0.2063 0.0
C618 C 0.3781 0.91396 0.04436 0.0
C619 C 0.34675 0.8358 0.15127 0.0
N620 N 0.36008 0.9417 0.20718 0.0
N621 N 0.3414 0.80094 0.95603 0.0
H622 H 0.32158 0.79496 0.28965 0.0
H623 H 0.33226 0.77217 0.17025 0.0
H624 H 0.34524 0.80017 0.86446 0.0
H625 H 0.32525 0.77084 -0.01421 0.0
H626 H 0.36531 0.96784 0.16049 0.0
H627 H 0.34656 0.93947 0.28411 0.0
H628 H 0.4081 0.98108 0.05262 0.0
H629 H 0.411 0.95697 0.91931 0.0
C630 C 0.15386 0.55768 0.10743 0.0
C631 C 0.18668 0.5739 0.05031 0.0
C632 C 0.21228 0.56044 0.22859 0.0
C633 C 0.17947 0.54417 0.28559 0.0
N634 N 0.11554 0.50949 0.25032 0.0
N635 N 0.25063 0.60887 0.08636 0.0
C636 C 0.14914 0.53766 0.21695 0.0
C637 C 0.21701 0.58047 0.11913 0.0
N638 N 0.12828 0.56469 0.06344 0.0
N639 N 0.23798 0.55377 0.27335 0.0
H640 H 0.2552 0.62917 0.01814 0.0
H641 H 0.27359 0.61702 0.13898 0.0
H642 H 0.23333 0.53378 0.34254 0.0
H643 H 0.26135 0.56242 0.22989 0.0
H644 H 0.10497 0.55606 0.10715 0.0
H645 H 0.13306 0.58507 -0.00474 0.0
H646 H 0.09253 0.50143 0.19813 0.0
H647 H 0.11103 0.48929 0.31872 0.0
C648 C 0.52618 0.67608 0.12503 0.0
C649 C 0.54502 0.71661 0.18886 0.0
C650 C 0.56144 0.75076 -0.00143 0.0
C651 C 0.545 0.71034 0.9358 0.0
N652 N 0.51592 0.63474 0.93767 0.0
N653 N 0.5836 0.79252 0.18802 0.0
C654 C 0.52827 0.67304 -0.00154 0.0
C655 C 0.5638 0.7539 0.12616 0.0
N656 N 0.50649 0.64024 0.18486 0.0
N657 N 0.57273 0.78612 0.93647 0.0
H658 H 0.58294 0.79736 0.28047 0.0
H659 H 0.60224 0.81976 0.1483 0.0
H660 H 0.5711 0.78554 0.84303 0.0
H661 H 0.58077 0.8157 -0.023 0.0
H662 H 0.4878 0.61107 0.14189 0.0
H663 H 0.50754 0.63937 0.27803 0.0
H664 H 0.50787 0.60696 -0.02024 0.0
H665 H 0.51621 0.63097 0.84452 0.0
loop_
_geom_bond_atom_site_label_1
_geom_bond_atom_site_label_2
_geom_bond_distance
_geom_bond_site_symmetry_2
_ccdc_geom_bond_type
Tb0 O3 2.453 . S
Tb0 O4 2.596 1_655 S
Tb0 O5 2.374 . S
Tb0 O13 2.343 1_655 S
Tb0 O15 2.353 1_554 S
Tb0 O17 2.427 1_554 S
Tb0 O18 2.513 . S
C1 O5 1.251 1_455 S
C1 O7 1.263 . S
Tb2 O4 2.343 . S
Tb2 O7 2.353 . S
Tb2 O10 2.427 . S
Tb2 O11 2.513 1_554 S
Tb2 O12 2.453 . S
Tb2 O13 2.596 . S
Tb2 O14 2.374 1_554 S
O3 Tb0 2.453 . S
O3 C19 1.245 . S
O4 Tb0 2.596 1_455 S
O4 Tb2 2.343 . S
O4 C19 1.259 1_455 S
O5 Tb0 2.374 . S
O5 C1 1.251 1_655 S
C6 O10 1.275 . S
C6 O11 1.246 1_554 S
O7 C1 1.263 . S
O7 Tb2 2.353 . S
C8 O12 1.245 . S
C8 O13 1.259 . S
C9 O14 1.250 . S
C9 O15 1.263 1_455 S
O10 Tb2 2.427 . S
O10 C6 1.275 . S
O11 Tb2 2.513 1_556 S
O11 C6 1.246 1_556 S
O12 Tb2 2.453 . S
O12 C8 1.245 . S
O13 Tb0 2.343 1_455 S
O13 Tb2 2.596 . S
O13 C8 1.259 . S
O14 Tb2 2.374 1_556 S
O14 C9 1.250 . S
O15 Tb0 2.353 1_556 S
O15 C9 1.263 1_655 S
C16 O17 1.275 1_554 S
C16 O18 1.246 . S
O17 Tb0 2.427 1_556 S
O17 C16 1.275 1_556 S
O18 Tb0 2.513 . S
O18 C16 1.246 . S
C19 O3 1.245 . S
C19 O4 1.259 1_655 S
Tb20 O23 2.453 . S
Tb20 O24 2.596 . S
Tb20 O25 2.374 1_554 S
Tb20 O33 2.343 . S
Tb20 O35 2.353 . S
Tb20 O37 2.427 . S
Tb20 O38 2.513 1_554 S
C21 O25 1.251 . S
C21 O27 1.263 . S
Tb22 O24 2.343 . S
Tb22 O27 2.353 1_554 S
Tb22 O30 2.427 . S
Tb22 O31 2.513 . S
Tb22 O32 2.453 . S
Tb22 O33 2.596 . S
Tb22 O34 2.374 . S
O23 Tb20 2.453 . S
O23 C39 1.245 . S
O24 Tb20 2.596 . S
O24 Tb22 2.343 . S
O24 C39 1.259 . S
O25 Tb20 2.374 1_556 S
O25 C21 1.251 . S
C26 O30 1.275 . S
C26 O31 1.246 . S
O27 C21 1.263 . S
O27 Tb22 2.353 1_556 S
C28 O32 1.245 . S
C28 O33 1.259 . S
C29 O34 1.250 . S
C29 O35 1.263 . S
O30 Tb22 2.427 . S
O30 C26 1.275 . S
O31 Tb22 2.513 . S
O31 C26 1.246 . S
O32 Tb22 2.453 . S
O32 C28 1.245 . S
O33 Tb20 2.343 . S
O33 Tb22 2.596 . S
O33 C28 1.259 . S
O34 Tb22 2.374 . S
O34 C29 1.250 . S
O35 Tb20 2.353 . S
O35 C29 1.263 . S
C36 O37 1.275 . S
C36 O38 1.246 1_554 S
O37 Tb20 2.427 . S
O37 C36 1.275 . S
O38 Tb20 2.513 1_556 S
O38 C36 1.246 1_556 S
C39 O23 1.245 . S
C39 O24 1.259 . S
Tb40 O43 2.453 . S
Tb40 O44 2.596 . S
Tb40 O45 2.374 . S
Tb40 O53 2.343 1_554 S
Tb40 O55 2.353 1_554 S
Tb40 O57 2.427 1_554 S
Tb40 O58 2.513 . S
C41 O45 1.251 . S
C41 O47 1.263 1_545 S
Tb42 O44 2.343 1_566 S
Tb42 O47 2.353 1_556 S
Tb42 O50 2.427 1_556 S
Tb42 O51 2.513 . S
Tb42 O52 2.453 . S
Tb42 O53 2.596 1_565 S
Tb42 O54 2.374 . S
O43 Tb40 2.453 . S
O43 C59 1.245 . S
O44 Tb40 2.596 . S
O44 Tb42 2.343 1_544 S
O44 C59 1.259 . S
O45 Tb40 2.374 . S
O45 C41 1.251 . S
C46 O50 1.275 1_556 S
C46 O51 1.246 . S
O47 C41 1.263 1_565 S
O47 Tb42 2.353 1_554 S
C48 O52 1.245 . S
C48 O53 1.259 1_565 S
C49 O54 1.250 1_545 S
C49 O55 1.263 . S
O50 Tb42 2.427 1_554 S
O50 C46 1.275 1_554 S
O51 Tb42 2.513 . S
O51 C46 1.246 . S
O52 Tb42 2.453 . S
O52 C48 1.245 . S
O53 Tb40 2.343 1_556 S
O53 Tb42 2.596 1_545 S
O53 C48 1.259 1_545 S
O54 Tb42 2.374 . S
O54 C49 1.250 1_565 S
O55 Tb40 2.353 1_556 S
O55 C49 1.263 . S
C56 O57 1.275 1_554 S
C56 O58 1.246 . S
O57 Tb40 2.427 1_556 S
O57 C56 1.275 1_556 S
O58 Tb40 2.513 . S
O58 C56 1.246 . S
C59 O43 1.245 . S
C59 O44 1.259 . S
Tb60 O63 2.453 . S
Tb60 O64 2.596 . S
Tb60 O65 2.374 . S
Tb60 O73 2.343 . S
Tb60 O75 2.353 . S
Tb60 O77 2.427 . S
Tb60 O78 2.513 . S
C61 O65 1.251 . S
C61 O67 1.263 . S
Tb62 O64 2.343 . S
Tb62 O67 2.353 . S
Tb62 O70 2.427 . S
Tb62 O71 2.513 . S
Tb62 O72 2.453 . S
Tb62 O73 2.596 . S
Tb62 O74 2.374 . S
O63 Tb60 2.453 . S
O63 C79 1.245 . S
O64 Tb60 2.596 . S
O64 Tb62 2.343 . S
O64 C79 1.259 . S
O65 Tb60 2.374 . S
O65 C61 1.251 . S
C66 O70 1.275 . S
C66 O71 1.246 . S
O67 C61 1.263 . S
O67 Tb62 2.353 . S
C68 O72 1.245 . S
C68 O73 1.259 . S
C69 O74 1.250 . S
C69 O75 1.263 . S
O70 Tb62 2.427 . S
O70 C66 1.275 . S
O71 Tb62 2.513 . S
O71 C66 1.246 . S
O72 Tb62 2.453 . S
O72 C68 1.245 . S
O73 Tb60 2.343 . S
O73 Tb62 2.596 . S
O73 C68 1.259 . S
O74 Tb62 2.374 . S
O74 C69 1.250 . S
O75 Tb60 2.353 . S
O75 C69 1.263 . S
C76 O77 1.275 . S
C76 O78 1.246 . S
O77 Tb60 2.427 . S
O77 C76 1.275 . S
O78 Tb60 2.513 . S
O78 C76 1.246 . S
C79 O63 1.245 . S
C79 O64 1.259 . S
Tb80 O83 2.453 . S
Tb80 O84 2.596 . S
Tb80 O85 2.374 . S
Tb80 O93 2.343 . S
Tb80 O95 2.353 . S
Tb80 O97 2.427 . S
Tb80 O98 2.513 . S
C81 O85 1.250 1_556 S
C81 O87 1.262 1_556 S
Tb82 O84 2.343 . S
Tb82 O87 2.353 . S
Tb82 O90 2.427 . S
Tb82 O91 2.513 . S
Tb82 O92 2.453 . S
Tb82 O93 2.596 . S
Tb82 O94 2.374 . S
O83 Tb80 2.453 . S
O83 C99 1.245 . S
O84 Tb80 2.596 . S
O84 Tb82 2.343 . S
O84 C99 1.259 . S
O85 Tb80 2.374 . S
O85 C81 1.250 1_554 S
C86 O90 1.275 . S
C86 O91 1.246 . S
O87 C81 1.262 1_554 S
O87 Tb82 2.353 . S
C88 O92 1.245 . S
C88 O93 1.259 . S
C89 O94 1.250 . S
C89 O95 1.263 . S
O90 Tb82 2.427 . S
O90 C86 1.275 . S
O91 Tb82 2.513 . S
O91 C86 1.246 . S
O92 Tb82 2.453 . S
O92 C88 1.245 . S
O93 Tb80 2.343 . S
O93 Tb82 2.596 . S
O93 C88 1.259 . S
O94 Tb82 2.374 . S
O94 C89 1.250 . S
O95 Tb80 2.353 . S
O95 C89 1.263 . S
C96 O97 1.275 . S
C96 O98 1.246 . S
O97 Tb80 2.427 . S
O97 C96 1.275 . S
O98 Tb80 2.513 . S
O98 C96 1.246 . S
C99 O83 1.245 . S
C99 O84 1.259 . S
Tb100 O103 2.453 . S
Tb100 O104 2.596 . S
Tb100 O105 2.374 . S
Tb100 O113 2.343 . S
Tb100 O115 2.353 . S
Tb100 O117 2.427 . S
Tb100 O118 2.513 . S
C101 O105 1.251 . S
C101 O107 1.263 . S
Tb102 O104 2.343 . S
Tb102 O107 2.353 . S
Tb102 O110 2.427 . S
Tb102 O111 2.513 . S
Tb102 O112 2.453 . S
Tb102 O113 2.596 . S
Tb102 O114 2.374 . S
O103 Tb100 2.453 . S
O103 C119 1.245 . S
O104 Tb100 2.596 . S
O104 Tb102 2.343 . S
O104 C119 1.259 . S
O105 Tb100 2.374 . S
O105 C101 1.251 . S
C106 O110 1.275 . S
C106 O111 1.246 . S
O107 C101 1.263 . S
O107 Tb102 2.353 . S
C108 O112 1.245 . S
C108 O113 1.259 . S
C109 O114 1.250 . S
C109 O115 1.263 . S
O110 Tb102 2.427 . S
O110 C106 1.275 . S
O111 Tb102 2.513 . S
O111 C106 1.246 . S
O112 Tb102 2.453 . S
O112 C108 1.245 . S
O113 Tb100 2.343 . S
O113 Tb102 2.596 . S
O113 C108 1.259 . S
O114 Tb102 2.374 . S
O114 C109 1.250 . S
O115 Tb100 2.353 . S
O115 C109 1.263 . S
C116 O117 1.275 . S
C116 O118 1.246 . S
O117 Tb100 2.427 . S
O117 C116 1.275 . S
O118 Tb100 2.513 . S
O118 C116 1.246 . S
C119 O103 1.245 . S
C119 O104 1.259 . S
Tb120 O123 2.453 . S
Tb120 O124 2.596 . S
Tb120 O125 2.374 . S
Tb120 O133 2.343 . S
Tb120 O135 2.353 . S
Tb120 O137 2.427 . S
Tb120 O138 2.513 . S
C121 O125 1.251 . S
C121 O127 1.263 . S
Tb122 O124 2.343 . S
Tb122 O127 2.353 . S
Tb122 O130 2.427 . S
Tb122 O131 2.513 . S
Tb122 O132 2.453 . S
Tb122 O133 2.596 . S
Tb122 O134 2.374 . S
O123 Tb120 2.453 . S
O123 C139 1.245 . S
O124 Tb120 2.596 . S
O124 Tb122 2.343 . S
O124 C139 1.259 . S
O125 Tb120 2.374 . S
O125 C121 1.251 . S
C126 O130 1.275 . S
C126 O131 1.246 . S
O127 C121 1.263 . S
O127 Tb122 2.353 . S
C128 O132 1.245 . S
C128 O133 1.259 . S
C129 O134 1.250 . S
C129 O135 1.263 . S
O130 Tb122 2.427 . S
O130 C126 1.275 . S
O131 Tb122 2.513 . S
O131 C126 1.246 . S
O132 Tb122 2.453 . S
O132 C128 1.245 . S
O133 Tb120 2.343 . S
O133 Tb122 2.596 . S
O133 C128 1.259 . S
O134 Tb122 2.374 . S
O134 C129 1.250 . S
O135 Tb120 2.353 . S
O135 C129 1.263 . S
C136 O137 1.275 . S
C136 O138 1.246 . S
O137 Tb120 2.427 . S
O137 C136 1.275 . S
O138 Tb120 2.513 . S
O138 C136 1.246 . S
C139 O123 1.245 . S
C139 O124 1.259 . S
Tb140 O143 2.453 . S
Tb140 O144 2.596 . S
Tb140 O145 2.374 . S
Tb140 O153 2.343 . S
Tb140 O155 2.353 . S
Tb140 O157 2.427 . S
Tb140 O158 2.513 . S
C141 O145 1.251 . S
C141 O147 1.263 . S
Tb142 O144 2.343 . S
Tb142 O147 2.353 . S
Tb142 O150 2.427 . S
Tb142 O151 2.513 . S
Tb142 O152 2.453 . S
Tb142 O153 2.596 . S
Tb142 O154 2.374 . S
O143 Tb140 2.453 . S
O143 C159 1.245 . S
O144 Tb140 2.596 . S
O144 Tb142 2.343 . S
O144 C159 1.259 . S
O145 Tb140 2.374 . S
O145 C141 1.251 . S
C146 O150 1.275 . S
C146 O151 1.246 . S
O147 C141 1.263 . S
O147 Tb142 2.353 . S
C148 O152 1.245 . S
C148 O153 1.259 . S
C149 O154 1.250 . S
C149 O155 1.263 . S
O150 Tb142 2.427 . S
O150 C146 1.275 . S
O151 Tb142 2.513 . S
O151 C146 1.246 . S
O152 Tb142 2.453 . S
O152 C148 1.245 . S
O153 Tb140 2.343 . S
O153 Tb142 2.596 . S
O153 C148 1.259 . S
O154 Tb142 2.374 . S
O154 C149 1.250 . S
O155 Tb140 2.353 . S
O155 C149 1.263 . S
C156 O157 1.275 . S
C156 O158 1.246 . S
O157 Tb140 2.427 . S
O157 C156 1.275 . S
O158 Tb140 2.513 . S
O158 C156 1.246 . S
C159 O143 1.245 . S
C159 O144 1.259 . S
Tb160 O163 2.453 . S
Tb160 O164 2.596 . S
Tb160 O165 2.374 . S
Tb160 O173 2.343 . S
Tb160 O175 2.353 . S
Tb160 O177 2.427 . S
Tb160 O178 2.513 . S
C161 O165 1.251 . S
C161 O167 1.263 . S
Tb162 O164 2.343 . S
Tb162 O167 2.353 . S
Tb162 O170 2.427 . S
Tb162 O171 2.513 . S
Tb162 O172 2.453 . S
Tb162 O173 2.596 . S
Tb162 O174 2.374 . S
O163 Tb160 2.453 . S
O163 C179 1.245 . S
O164 Tb160 2.596 . S
O164 Tb162 2.343 . S
O164 C179 1.259 . S
O165 Tb160 2.374 . S
O165 C161 1.251 . S
C166 O170 1.275 . S
C166 O171 1.246 . S
O167 C161 1.263 . S
O167 Tb162 2.353 . S
C168 O172 1.245 . S
C168 O173 1.259 . S
C169 O174 1.250 . S
C169 O175 1.263 . S
O170 Tb162 2.427 . S
O170 C166 1.275 . S
O171 Tb162 2.513 . S
O171 C166 1.246 . S
O172 Tb162 2.453 . S
O172 C168 1.245 . S
O173 Tb160 2.343 . S
O173 Tb162 2.596 . S
O173 C168 1.259 . S
O174 Tb162 2.374 . S
O174 C169 1.250 . S
O175 Tb160 2.353 . S
O175 C169 1.263 . S
C176 O177 1.275 . S
C176 O178 1.246 . S
O177 Tb160 2.427 . S
O177 C176 1.275 . S
O178 Tb160 2.513 . S
O178 C176 1.246 . S
C179 O163 1.245 . S
C179 O164 1.259 . S
C180 C181 1.363 1_554 S
C180 C186 1.379 1_554 S
C180 N188 1.356 . S
C181 C180 1.363 1_556 S
C181 C187 1.363 . S
C182 C183 1.363 . S
C182 C187 1.379 . S
C182 N189 1.356 . S
C183 C182 1.363 . S
C183 C186 1.363 . S
N184 C186 1.356 1_554 S
N184 H196 0.984 . S
N184 H197 0.985 1_554 S
N185 C187 1.356 . S
N185 H190 0.984 . S
N185 H191 0.985 . S
C186 C180 1.379 1_556 S
C186 C183 1.363 . S
C186 N184 1.356 1_556 S
C187 C181 1.363 . S
C187 C182 1.379 . S
C187 N185 1.356 . S
N188 C180 1.356 . S
N188 H194 0.984 . S
N188 H195 0.984 . S
N189 C182 1.356 . S
N189 H192 0.984 . S
N189 H193 0.985 . S
H190 N185 0.984 . S
H191 N185 0.985 . S
H192 N189 0.984 . S
H193 N189 0.985 . S
H194 N188 0.984 . S
H195 N188 0.984 . S
H196 N184 0.984 . S
H197 N184 0.985 1_556 S
C198 C199 1.363 . S
C198 C204 1.379 . S
C198 N206 1.356 . S
C199 C198 1.363 . S
C199 C205 1.363 . S
C200 C201 1.363 . S
C200 C205 1.379 . S
C200 N207 1.356 . S
C201 C200 1.363 . S
C201 C204 1.363 . S
N202 C204 1.356 . S
N202 H214 0.984 . S
N202 H215 0.985 . S
N203 C205 1.356 1_554 S
N203 H208 0.984 . S
N203 H209 0.985 . S
C204 C198 1.379 . S
C204 C201 1.363 . S
C204 N202 1.356 . S
C205 C199 1.363 . S
C205 C200 1.379 . S
C205 N203 1.356 1_556 S
N206 C198 1.356 . S
N206 H212 0.984 . S
N206 H213 0.984 1_556 S
N207 C200 1.356 . S
N207 H210 0.984 . S
N207 H211 0.985 . S
H208 N203 0.984 . S
H209 N203 0.985 . S
H210 N207 0.984 . S
H211 N207 0.985 . S
H212 N206 0.984 . S
H213 N206 0.984 1_554 S
H214 N202 0.984 . S
H215 N202 0.985 . S
C216 C217 1.363 . S
C216 C222 1.379 . S
C216 N224 1.356 1_556 S
C217 C216 1.363 . S
C217 C223 1.363 . S
C218 C219 1.363 . S
C218 C223 1.379 . S
C218 N225 1.356 . S
C219 C218 1.363 . S
C219 C222 1.363 . S
N220 C222 1.356 . S
N220 H232 0.984 . S
N220 H233 0.985 . S
N221 C223 1.356 1_545 S
N221 H226 0.984 . S
N221 H227 0.985 . S
C222 C216 1.379 . S
C222 C219 1.363 . S
C222 N220 1.356 . S
C223 C217 1.363 . S
C223 C218 1.379 . S
C223 N221 1.356 1_565 S
N224 C216 1.356 1_554 S
N224 H230 0.984 . S
N224 H231 0.984 . S
N225 C218 1.356 . S
N225 H228 0.984 . S
N225 H229 0.985 1_565 S
H226 N221 0.984 . S
H227 N221 0.985 . S
H228 N225 0.984 . S
H229 N225 0.985 1_545 S
H230 N224 0.984 . S
H231 N224 0.984 . S
H232 N220 0.984 . S
H233 N220 0.985 . S
C234 C235 1.363 . S
C234 C240 1.379 . S
C234 N242 1.356 . S
C235 C234 1.363 . S
C235 C241 1.363 . S
C236 C237 1.363 . S
C236 C241 1.379 . S
C236 N243 1.356 1_554 S
C237 C236 1.363 . S
C237 C240 1.363 . S
N238 C240 1.356 . S
N238 H250 0.984 . S
N238 H251 0.985 . S
N239 C241 1.356 . S
N239 H244 0.984 . S
N239 H245 0.985 . S
C240 C234 1.379 . S
C240 C237 1.363 . S
C240 N238 1.356 . S
C241 C235 1.363 . S
C241 C236 1.379 . S
C241 N239 1.356 . S
N242 C234 1.356 . S
N242 H248 0.984 . S
N242 H249 0.984 . S
N243 C236 1.356 1_556 S
N243 H246 0.984 . S
N243 H247 0.985 . S
H244 N239 0.984 . S
H245 N239 0.985 . S
H246 N243 0.984 . S
H247 N243 0.985 . S
H248 N242 0.984 . S
H249 N242 0.984 . S
H250 N238 0.984 . S
H251 N238 0.985 . S
C252 C253 1.363 . S
C252 C258 1.379 . S
C252 N260 1.356 . S
C253 C252 1.363 . S
C253 C259 1.363 . S
C254 C255 1.363 . S
C254 C259 1.379 . S
C254 N261 1.356 . S
C255 C254 1.363 . S
C255 C258 1.363 . S
N256 C258 1.356 1_556 S
N256 H268 0.984 . S
N256 H269 0.985 . S
N257 C259 1.356 . S
N257 H262 0.984 . S
N257 H263 0.985 . S
C258 C252 1.379 . S
C258 C255 1.363 . S
C258 N256 1.356 1_554 S
C259 C253 1.363 . S
C259 C254 1.379 . S
C259 N257 1.356 . S
N260 C252 1.356 . S
N260 H266 0.984 . S
N260 H267 0.984 . S
N261 C254 1.356 . S
N261 H264 0.984 . S
N261 H265 0.985 . S
H262 N257 0.984 . S
H263 N257 0.985 . S
H264 N261 0.984 . S
H265 N261 0.985 . S
H266 N260 0.984 . S
H267 N260 0.984 . S
H268 N256 0.984 . S
H269 N256 0.985 . S
C270 C271 1.363 . S
C270 C276 1.379 . S
C270 N278 1.356 . S
C271 C270 1.363 . S
C271 C277 1.363 . S
C272 C273 1.363 . S
C272 C277 1.379 . S
C272 N279 1.356 . S
C273 C272 1.363 . S
C273 C276 1.363 . S
N274 C276 1.356 . S
N274 H286 0.984 . S
N274 H287 0.985 . S
N275 C277 1.356 . S
N275 H280 0.984 . S
N275 H281 0.985 . S
C276 C270 1.379 . S
C276 C273 1.363 . S
C276 N274 1.356 . S
C277 C271 1.363 . S
C277 C272 1.379 . S
C277 N275 1.356 . S
N278 C270 1.356 . S
N278 H284 0.984 . S
N278 H285 0.984 . S
N279 C272 1.356 . S
N279 H282 0.984 . S
N279 H283 0.985 . S
H280 N275 0.984 . S
H281 N275 0.985 . S
H282 N279 0.984 . S
H283 N279 0.985 . S
H284 N278 0.984 . S
H285 N278 0.984 . S
H286 N274 0.984 . S
H287 N274 0.985 . S
C288 C289 1.363 . S
C288 C294 1.379 . S
C288 N296 1.356 1_655 S
C289 C288 1.363 . S
C289 C295 1.363 . S
C290 C291 1.363 . S
C290 C295 1.379 . S
C290 N297 1.356 . S
C291 C290 1.363 . S
C291 C294 1.363 . S
N292 C294 1.356 . S
N292 H304 0.984 . S
N292 H305 0.985 . S
N293 C295 1.331 1_455 S
N293 H298 1.002 . S
N293 H299 0.993 1_455 S
C294 C288 1.379 . S
C294 C291 1.363 . S
C294 N292 1.356 . S
C295 C289 1.363 . S
C295 C290 1.379 . S
C295 N293 1.331 1_655 S
N296 C288 1.356 1_455 S
N296 H302 0.984 . S
N296 H303 0.984 . S
N297 C290 1.356 . S
N297 H300 0.984 . S
N297 H301 0.985 . S
H298 N293 1.002 . S
H299 N293 0.993 1_655 S
H300 N297 0.984 . S
H301 N297 0.985 . S
H302 N296 0.984 . S
H303 N296 0.984 . S
H304 N292 0.984 . S
H305 N292 0.985 . S
C306 C307 1.363 . S
C306 C312 1.379 . S
C306 N314 1.356 . S
C307 C306 1.363 . S
C307 C313 1.363 . S
C308 C309 1.363 . S
C308 C313 1.379 . S
C308 N315 1.356 . S
C309 C308 1.363 . S
C309 C312 1.363 . S
N310 C312 1.356 . S
N310 H322 0.984 . S
N310 H323 0.985 . S
N311 C313 1.356 . S
N311 H316 0.984 . S
N311 H317 0.985 . S
C312 C306 1.379 . S
C312 C309 1.363 . S
C312 N310 1.356 . S
C313 C307 1.363 . S
C313 C308 1.379 . S
C313 N311 1.356 . S
N314 C306 1.356 . S
N314 H320 0.984 . S
N314 H321 0.984 . S
N315 C308 1.356 . S
N315 H318 0.984 . S
N315 H319 0.985 . S
H316 N311 0.984 . S
H317 N311 0.985 . S
H318 N315 0.984 . S
H319 N315 0.985 . S
H320 N314 0.984 . S
H321 N314 0.984 . S
H322 N310 0.984 . S
H323 N310 0.985 . S
C324 C325 1.363 . S
C324 C330 1.379 1_545 S
C324 N332 1.356 . S
C325 C324 1.363 . S
C325 C331 1.363 . S
C326 C327 1.363 1_545 S
C326 C331 1.379 . S
C326 N333 1.356 . S
C327 C326 1.363 1_565 S
C327 C330 1.363 . S
N328 C330 1.356 . S
N328 H340 0.984 . S
N328 H341 0.985 . S
N329 C331 1.356 . S
N329 H334 0.984 . S
N329 H335 0.985 . S
C330 C324 1.379 1_565 S
C330 C327 1.363 . S
C330 N328 1.356 . S
C331 C325 1.363 . S
C331 C326 1.379 . S
C331 N329 1.356 . S
N332 C324 1.356 . S
N332 H338 0.984 1_545 S
N332 H339 0.984 . S
N333 C326 1.356 . S
N333 H336 0.984 1_545 S
N333 H337 0.985 . S
H334 N329 0.984 . S
H335 N329 0.985 . S
H336 N333 0.984 1_565 S
H337 N333 0.985 . S
H338 N332 0.984 1_565 S
H339 N332 0.984 . S
H340 N328 0.984 . S
H341 N328 0.985 . S
C342 C343 1.363 1_556 S
C342 C348 1.379 . S
C342 N350 1.356 . S
C343 C342 1.363 1_554 S
C343 C349 1.363 . S
C344 C345 1.363 . S
C344 C349 1.379 . S
C344 N351 1.356 . S
C345 C344 1.363 . S
C345 C348 1.363 1_554 S
N346 C348 1.356 . S
N346 H358 0.984 . S
N346 H359 0.985 . S
N347 C349 1.356 . S
N347 H352 0.984 . S
N347 H353 0.985 . S
C348 C342 1.379 . S
C348 C345 1.363 1_556 S
C348 N346 1.356 . S
C349 C343 1.363 . S
C349 C344 1.379 . S
C349 N347 1.356 . S
N350 C342 1.356 . S
N350 H356 0.984 . S
N350 H357 0.984 . S
N351 C344 1.356 . S
N351 H354 0.984 . S
N351 H355 0.985 . S
H352 N347 0.984 . S
H353 N347 0.985 . S
H354 N351 0.984 . S
H355 N351 0.985 . S
H356 N350 0.984 . S
H357 N350 0.984 . S
H358 N346 0.984 . S
H359 N346 0.985 . S
C360 C361 1.363 1_546 S
C360 C366 1.379 1_556 S
C360 N368 1.356 1_545 S
C361 C360 1.363 1_564 S
C361 C367 1.363 1_565 S
C362 C363 1.363 . S
C362 C367 1.379 . S
C362 N369 1.356 . S
C363 C362 1.363 . S
C363 C366 1.363 . S
N364 C366 1.356 1_556 S
N364 H376 0.975 1_655 S
N364 H377 0.985 1_655 S
N365 C367 1.356 1_565 S
N365 H370 0.984 . S
N365 H371 0.985 1_565 S
C366 C360 1.379 1_554 S
C366 C363 1.363 . S
C366 N364 1.356 1_554 S
C367 C361 1.363 1_545 S
C367 C362 1.379 . S
C367 N365 1.356 1_545 S
N368 C360 1.356 1_565 S
N368 H374 0.984 . S
N368 H375 0.984 . S
N369 C362 1.356 . S
N369 H372 0.984 . S
N369 H373 0.985 . S
H370 N365 0.984 . S
H371 N365 0.985 1_545 S
H372 N369 0.984 . S
H373 N369 0.985 . S
H374 N368 0.984 . S
H375 N368 0.984 . S
H376 N364 0.975 1_455 S
H377 N364 0.985 1_455 S
C378 C379 1.363 1_556 S
C378 C384 1.379 1_655 S
C378 N386 1.356 . S
C379 C378 1.363 1_554 S
C379 C385 1.363 1_655 S
C380 C381 1.356 1_554 S
C380 C385 1.379 . S
C380 N387 1.356 . S
C381 C380 1.356 1_556 S
C381 C384 1.367 . S
N382 C384 1.356 . S
N382 H394 0.984 . S
N382 H395 0.985 . S
N383 C385 1.356 1_655 S
N383 H388 0.984 . S
N383 H389 0.985 1_655 S
C384 C378 1.379 1_455 S
C384 C381 1.367 . S
C384 N382 1.356 . S
C385 C379 1.363 1_455 S
C385 C380 1.379 . S
C385 N383 1.356 1_455 S
N386 C378 1.356 . S
N386 H392 0.984 . S
N386 H393 0.984 . S
N387 C380 1.356 . S
N387 H390 0.984 . S
N387 H391 0.985 . S
H388 N383 0.984 . S
H389 N383 0.985 1_455 S
H390 N387 0.984 . S
H391 N387 0.985 . S
H392 N386 0.984 . S
H393 N386 0.984 . S
H394 N382 0.984 . S
H395 N382 0.985 . S
C396 C397 1.363 . S
C396 C402 1.379 . S
C396 N404 1.356 . S
C397 C396 1.363 . S
C397 C403 1.363 . S
C398 C399 1.363 . S
C398 C403 1.379 . S
C398 N405 1.356 . S
C399 C398 1.363 . S
C399 C402 1.363 . S
N400 C402 1.356 . S
N400 H412 0.984 . S
N400 H413 0.985 . S
N401 C403 1.356 . S
N401 H406 0.984 . S
N401 H407 0.985 . S
C402 C396 1.379 . S
C402 C399 1.363 . S
C402 N400 1.356 . S
C403 C397 1.363 . S
C403 C398 1.379 . S
C403 N401 1.356 . S
N404 C396 1.356 . S
N404 H410 0.984 . S
N404 H411 0.984 . S
N405 C398 1.356 . S
N405 H408 0.984 . S
N405 H409 0.985 . S
H406 N401 0.984 . S
H407 N401 0.985 . S
H408 N405 0.984 . S
H409 N405 0.985 . S
H410 N404 0.984 . S
H411 N404 0.984 . S
H412 N400 0.984 . S
H413 N400 0.985 . S
C414 C415 1.363 . S
C414 C420 1.379 . S
C414 N422 1.356 . S
C415 C414 1.363 . S
C415 C421 1.363 . S
C416 C417 1.363 . S
C416 C421 1.379 . S
C416 N423 1.356 . S
C417 C416 1.363 . S
C417 C420 1.363 . S
N418 C420 1.356 . S
N418 H430 0.984 1_554 S
N418 H431 0.985 . S
N419 C421 1.356 . S
N419 H424 0.984 . S
N419 H425 0.985 . S
C420 C414 1.379 . S
C420 C417 1.363 . S
C420 N418 1.356 . S
C421 C415 1.363 . S
C421 C416 1.379 . S
C421 N419 1.356 . S
N422 C414 1.356 . S
N422 H428 0.984 . S
N422 H429 0.984 . S
N423 C416 1.356 . S
N423 H426 0.984 . S
N423 H427 0.985 . S
H424 N419 0.984 . S
H425 N419 0.985 . S
H426 N423 0.984 . S
H427 N423 0.985 . S
H428 N422 0.984 . S
H429 N422 0.984 . S
H430 N418 0.984 1_556 S
H431 N418 0.985 . S
C432 C433 1.363 . S
C432 C438 1.379 . S
C432 N440 1.356 . S
C433 C432 1.363 . S
C433 C439 1.363 . S
C434 C435 1.363 . S
C434 C439 1.379 . S
C434 N441 1.356 . S
C435 C434 1.363 . S
C435 C438 1.363 . S
N436 C438 1.356 . S
N436 H448 0.984 . S
N436 H449 0.985 . S
N437 C439 1.356 . S
N437 H442 0.984 . S
N437 H443 0.985 . S
C438 C432 1.379 . S
C438 C435 1.363 . S
C438 N436 1.356 . S
C439 C433 1.363 . S
C439 C434 1.379 . S
C439 N437 1.356 . S
N440 C432 1.356 . S
N440 H446 0.984 . S
N440 H447 0.984 . S
N441 C434 1.356 . S
N441 H444 0.984 . S
N441 H445 0.985 . S
H442 N437 0.984 . S
H443 N437 0.985 . S
H444 N441 0.984 . S
H445 N441 0.985 . S
H446 N440 0.984 . S
H447 N440 0.984 . S
H448 N436 0.984 . S
H449 N436 0.985 . S
C450 C451 1.363 . S
C450 C456 1.379 . S
C450 N458 1.356 . S
C451 C450 1.363 . S
C451 C457 1.363 . S
C452 C453 1.363 . S
C452 C457 1.379 . S
C452 N459 1.356 . S
C453 C452 1.363 . S
C453 C456 1.363 . S
N454 C456 1.356 . S
N454 H466 0.984 . S
N454 H467 0.985 . S
N455 C457 1.356 . S
N455 H460 0.984 . S
N455 H461 0.985 1_556 S
C456 C450 1.379 . S
C456 C453 1.363 . S
C456 N454 1.356 . S
C457 C451 1.363 . S
C457 C452 1.379 . S
C457 N455 1.356 . S
N458 C450 1.356 . S
N458 H464 0.984 . S
N458 H465 0.984 . S
N459 C452 1.356 . S
N459 H462 0.984 . S
N459 H463 0.985 . S
H460 N455 0.984 . S
H461 N455 0.985 1_554 S
H462 N459 0.984 . S
H463 N459 0.985 . S
H464 N458 0.984 . S
H465 N458 0.984 . S
H466 N454 0.984 . S
H467 N454 0.985 . S
C468 C469 1.363 . S
C468 C474 1.379 . S
C468 N476 1.356 . S
C469 C468 1.363 . S
C469 C475 1.363 . S
C470 C471 1.363 . S
C470 C475 1.379 . S
C470 N477 1.356 . S
C471 C470 1.363 . S
C471 C474 1.363 . S
N472 C474 1.356 . S
N472 H484 0.984 . S
N472 H485 0.985 . S
N473 C475 1.356 . S
N473 H478 0.984 . S
N473 H479 0.985 . S
C474 C468 1.379 . S
C474 C471 1.363 . S
C474 N472 1.356 . S
C475 C469 1.363 . S
C475 C470 1.379 . S
C475 N473 1.356 . S
N476 C468 1.356 . S
N476 H482 0.984 . S
N476 H483 0.984 . S
N477 C470 1.356 . S
N477 H480 0.984 . S
N477 H481 0.985 . S
H478 N473 0.984 . S
H479 N473 0.985 . S
H480 N477 0.984 . S
H481 N477 0.985 . S
H482 N476 0.984 . S
H483 N476 0.984 . S
H484 N472 0.984 . S
H485 N472 0.985 . S
C486 C487 1.363 . S
C486 C492 1.379 . S
C486 N494 1.356 . S
C487 C486 1.363 . S
C487 C493 1.363 . S
C488 C489 1.363 . S
C488 C493 1.379 . S
C488 N495 1.356 . S
C489 C488 1.363 . S
C489 C492 1.363 . S
N490 C492 1.356 . S
N490 H502 0.984 . S
N490 H503 0.985 . S
N491 C493 1.356 . S
N491 H496 0.984 . S
N491 H497 0.985 . S
C492 C486 1.379 . S
C492 C489 1.363 . S
C492 N490 1.356 . S
C493 C487 1.363 . S
C493 C488 1.379 . S
C493 N491 1.356 . S
N494 C486 1.356 . S
N494 H500 0.984 . S
N494 H501 0.984 . S
N495 C488 1.356 . S
N495 H498 0.984 . S
N495 H499 0.985 . S
H496 N491 0.984 . S
H497 N491 0.985 . S
H498 N495 0.984 . S
H499 N495 0.985 . S
H500 N494 0.984 . S
H501 N494 0.984 . S
H502 N490 0.984 . S
H503 N490 0.985 . S
C504 C505 1.363 . S
C504 C510 1.379 . S
C504 N512 1.356 . S
C505 C504 1.363 . S
C505 C511 1.363 . S
C506 C507 1.363 . S
C506 C511 1.379 . S
C506 N513 1.356 . S
C507 C506 1.363 . S
C507 C510 1.363 . S
N508 C510 1.356 . S
N508 H520 0.984 . S
N508 H521 0.985 . S
N509 C511 1.356 . S
N509 H514 0.984 . S
N509 H515 0.985 . S
C510 C504 1.379 . S
C510 C507 1.363 . S
C510 N508 1.356 . S
C511 C505 1.363 . S
C511 C506 1.379 . S
C511 N509 1.356 . S
N512 C504 1.356 . S
N512 H518 0.984 . S
N512 H519 0.984 . S
N513 C506 1.356 . S
N513 H516 0.984 . S
N513 H517 0.985 . S
H514 N509 0.984 . S
H515 N509 0.985 . S
H516 N513 0.984 . S
H517 N513 0.985 . S
H518 N512 0.984 . S
H519 N512 0.984 . S
H520 N508 0.984 . S
H521 N508 0.985 . S
C522 C523 1.363 . S
C522 C528 1.379 . S
C522 N530 1.356 . S
C523 C522 1.363 . S
C523 C529 1.363 . S
C524 C525 1.363 . S
C524 C529 1.379 . S
C524 N531 1.356 . S
C525 C524 1.363 . S
C525 C528 1.363 . S
N526 C528 1.356 . S
N526 H538 0.984 . S
N526 H539 0.985 . S
N527 C529 1.356 . S
N527 H532 0.984 . S
N527 H533 0.985 . S
C528 C522 1.379 . S
C528 C525 1.363 . S
C528 N526 1.356 . S
C529 C523 1.363 . S
C529 C524 1.379 . S
C529 N527 1.356 . S
N530 C522 1.356 . S
N530 H536 0.984 . S
N530 H537 0.984 . S
N531 C524 1.356 . S
N531 H534 0.984 . S
N531 H535 0.985 . S
H532 N527 0.984 . S
H533 N527 0.985 . S
H534 N531 0.984 . S
H535 N531 0.985 . S
H536 N530 0.984 . S
H537 N530 0.984 . S
H538 N526 0.984 . S
H539 N526 0.985 . S
C540 C541 1.363 . S
C540 C546 1.379 . S
C540 N548 1.356 . S
C541 C540 1.363 . S
C541 C547 1.363 1_545 S
C542 C543 1.363 1_565 S
C542 C547 1.379 . S
C542 N549 1.356 . S
C543 C542 1.363 1_545 S
C543 C546 1.363 . S
N544 C546 1.356 . S
N544 H556 0.984 . S
N544 H557 0.985 . S
N545 C547 1.356 . S
N545 H550 0.984 . S
N545 H551 0.985 . S
C546 C540 1.379 . S
C546 C543 1.363 . S
C546 N544 1.356 . S
C547 C541 1.363 1_565 S
C547 C542 1.379 . S
C547 N545 1.356 . S
N548 C540 1.356 . S
N548 H554 0.984 . S
N548 H555 0.984 . S
N549 C542 1.356 . S
N549 H552 0.984 . S
N549 H553 0.985 . S
H550 N545 0.984 . S
H551 N545 0.985 . S
H552 N549 0.984 . S
H553 N549 0.985 . S
H554 N548 0.984 . S
H555 N548 0.984 . S
H556 N544 0.984 . S
H557 N544 0.985 . S
C558 C559 1.363 . S
C558 C564 1.379 . S
C558 N566 1.356 . S
C559 C558 1.363 . S
C559 C565 1.363 . S
C560 C561 1.363 . S
C560 C565 1.379 . S
C560 N567 1.356 1_556 S
C561 C560 1.363 . S
C561 C564 1.363 . S
N562 C564 1.356 . S
N562 H574 0.984 . S
N562 H575 0.985 1_556 S
N563 C565 1.356 . S
N563 H568 0.984 . S
N563 H569 0.985 . S
C564 C558 1.379 . S
C564 C561 1.363 . S
C564 N562 1.356 . S
C565 C559 1.363 . S
C565 C560 1.379 . S
C565 N563 1.356 . S
N566 C558 1.356 . S
N566 H572 0.984 . S
N566 H573 0.984 . S
N567 C560 1.356 1_554 S
N567 H570 0.984 . S
N567 H571 0.985 . S
H568 N563 0.984 . S
H569 N563 0.985 . S
H570 N567 0.984 . S
H571 N567 0.985 . S
H572 N566 0.984 . S
H573 N566 0.984 . S
H574 N562 0.984 . S
H575 N562 0.985 1_554 S
C576 C577 1.363 . S
C576 C582 1.379 . S
C576 N584 1.356 . S
C577 C576 1.363 . S
C577 C583 1.363 . S
C578 C579 1.363 . S
C578 C583 1.379 . S
C578 N585 1.356 . S
C579 C578 1.363 . S
C579 C582 1.363 . S
N580 C582 1.356 . S
N580 H592 0.984 . S
N580 H593 0.985 1_556 S
N581 C583 1.356 . S
N581 H586 0.984 . S
N581 H587 0.985 . S
C582 C576 1.379 . S
C582 C579 1.363 . S
C582 N580 1.356 . S
C583 C577 1.363 . S
C583 C578 1.379 . S
C583 N581 1.356 . S
N584 C576 1.356 . S
N584 H590 0.984 . S
N584 H591 0.984 . S
N585 C578 1.356 . S
N585 H588 0.984 1_556 S
N585 H589 0.985 . S
H586 N581 0.984 . S
H587 N581 0.985 . S
H588 N585 0.984 1_554 S
H589 N585 0.985 . S
H590 N584 0.984 . S
H591 N584 0.984 . S
H592 N580 0.984 . S
H593 N580 0.985 1_554 S
C594 C595 1.363 . S
C594 C600 1.379 . S
C594 N602 1.356 . S
C595 C594 1.363 . S
C595 C601 1.363 . S
C596 C597 1.363 . S
C596 C601 1.379 . S
C596 N603 1.356 1_556 S
C597 C596 1.363 . S
C597 C600 1.363 . S
N598 C600 1.356 . S
N598 H610 0.984 . S
N598 H611 0.985 1_556 S
N599 C601 1.356 . S
N599 H604 0.984 . S
N599 H605 0.985 . S
C600 C594 1.379 . S
C600 C597 1.363 . S
C600 N598 1.356 . S
C601 C595 1.363 . S
C601 C596 1.379 . S
C601 N599 1.356 . S
N602 C594 1.356 . S
N602 H608 0.984 . S
N602 H609 0.984 . S
N603 C596 1.356 1_554 S
N603 H606 0.984 . S
N603 H607 0.985 . S
H604 N599 0.984 . S
H605 N599 0.985 . S
H606 N603 0.984 . S
H607 N603 0.985 . S
H608 N602 0.984 . S
H609 N602 0.984 . S
H610 N598 0.984 . S
H611 N598 0.985 1_554 S
C612 C613 1.363 . S
C612 C618 1.379 . S
C612 N620 1.356 . S
C613 C612 1.363 . S
C613 C619 1.363 . S
C614 C615 1.363 . S
C614 C619 1.379 . S
C614 N621 1.356 . S
C615 C614 1.363 . S
C615 C618 1.363 . S
N616 C618 1.356 1_556 S
N616 H628 0.984 1_556 S
N616 H629 0.985 . S
N617 C619 1.356 . S
N617 H622 0.984 . S
N617 H623 0.985 . S
C618 C612 1.379 . S
C618 C615 1.363 . S
C618 N616 1.356 1_554 S
C619 C613 1.363 . S
C619 C614 1.379 . S
C619 N617 1.356 . S
N620 C612 1.356 . S
N620 H626 0.984 . S
N620 H627 0.984 . S
N621 C614 1.356 . S
N621 H624 0.984 1_554 S
N621 H625 0.985 . S
H622 N617 0.984 . S
H623 N617 0.985 . S
H624 N621 0.984 1_556 S
H625 N621 0.985 . S
H626 N620 0.984 . S
H627 N620 0.984 . S
H628 N616 0.984 1_554 S
H629 N616 0.985 . S
C630 C631 1.363 . S
C630 C636 1.379 . S
C630 N638 1.356 . S
C631 C630 1.363 . S
C631 C637 1.363 . S
C632 C633 1.363 . S
C632 C637 1.379 . S
C632 N639 1.356 . S
C633 C632 1.363 . S
C633 C636 1.363 . S
N634 C636 1.356 . S
N634 H646 0.984 . S
N634 H647 0.985 . S
N635 C637 1.356 . S
N635 H640 0.984 1_554 S
N635 H641 0.985 . S
C636 C630 1.379 . S
C636 C633 1.363 . S
C636 N634 1.356 . S
C637 C631 1.363 . S
C637 C632 1.379 . S
C637 N635 1.356 . S
N638 C630 1.356 . S
N638 H644 0.984 . S
N638 H645 0.984 1_554 S
N639 C632 1.356 . S
N639 H642 0.984 . S
N639 H643 0.985 . S
H640 N635 0.984 1_556 S
H641 N635 0.985 . S
H642 N639 0.984 . S
H643 N639 0.985 . S
H644 N638 0.984 . S
H645 N638 0.984 1_556 S
H646 N634 0.984 . S
H647 N634 0.985 . S
C648 C649 1.363 . S
C648 C654 1.379 . S
C648 N656 1.356 . S
C649 C648 1.363 . S
C649 C655 1.363 . S
C650 C651 1.363 . S
C650 C655 1.379 . S
C650 N657 1.356 . S
C651 C650 1.363 . S
C651 C654 1.363 . S
N652 C654 1.356 . S
N652 H664 0.984 . S
N652 H665 0.985 1_554 S
N653 C655 1.356 . S
N653 H658 0.984 . S
N653 H659 0.985 . S
C654 C648 1.379 . S
C654 C651 1.363 . S
C654 N652 1.356 . S
C655 C649 1.363 . S
C655 C650 1.379 . S
C655 N653 1.356 . S
N656 C648 1.356 . S
N656 H662 0.984 . S
N656 H663 0.984 . S
N657 C650 1.356 . S
N657 H660 0.984 1_554 S
N657 H661 0.985 . S
H658 N653 0.984 . S
H659 N653 0.985 . S
H660 N657 0.984 1_556 S
H661 N657 0.985 . S
H662 N656 0.984 . S
H663 N656 0.984 . S
H664 N652 0.984 . S
H665 N652 0.985 1_556 S
C181 C8 2.110 1_556 S
C183 C148 2.028 . S
C199 C36 1.625 1_556 S
C201 C176 1.574 . S
C217 C48 1.934 . S
C219 C136 1.769 . S
C235 C96 1.271 . S
C237 C56 1.349 . S
C253 C116 1.523 . S
C255 C16 1.452 . S
C271 C28 1.817 . S
C273 C76 1.640 . S
C289 C156 1.968 1_655 S
C291 C108 2.107 . S
C307 C168 2.207 . S
C309 C68 2.125 . S
C325 C88 2.421 . S
C327 C128 2.324 . S
C343 C59 1.579 . S
C345 C6 1.578 . S
C361 C39 1.734 . S
C363 C19 1.636 . S
C379 C26 1.287 . S
C381 C46 1.344 . S
C397 C79 1.524 . S
C399 C106 1.640 . S
C415 C66 1.650 . S
C417 C99 1.505 . S
C433 C86 1.710 . S
C435 C119 1.559 . S
C451 C179 1.644 . S
C453 C126 1.674 . S
C469 C159 2.017 . S
C471 C139 1.929 . S
C487 C166 1.538 . S
C489 C146 1.479 . S
C505 C9 1.195 . S
C507 C1 1.195 . S
C523 C21 1.178 . S
C525 C29 1.178 . S
C541 C49 1.176 . S
C543 C41 1.176 . S
C559 C69 1.208 . S
C561 C61 1.208 1_556 S
C577 C89 1.178 . S
C579 C81 1.180 . S
C595 C109 1.206 . S
C597 C101 1.206 1_556 S
C613 C129 1.191 . S
C615 C121 1.191 1_554 S
C631 C149 1.184 1_554 S
C633 C141 1.184 . S
C649 C169 1.186 . S
C651 C161 1.186 1_554 S
