# Generated by pormake.
# Topology uop, (4)-cn, num edge types: 1
# Building blocks:
#     Node 0, Type 0, BuildingBlock: CEKHIL_clean_sbu_0, # of connection points: 4
#     Node 1, Type 0, BuildingBlock: CEKHIL_clean_sbu_0, # of connection points: 4
#     Node 2, Type 0, BuildingBlock: CEKHIL_clean_sbu_0, # of connection points: 4
#     Node 3, Type 0, BuildingBlock: CEKHIL_clean_sbu_0, # of connection points: 4
#     Node 4, Type 0, BuildingBlock: CEKHIL_clean_sbu_0, # of connection points: 4
#     Node 5, Type 0, BuildingBlock: CEKHIL_clean_sbu_0, # of connection points: 4
#     Node 6, Type 0, BuildingBlock: CEKHIL_clean_sbu_0, # of connection points: 4
#     Node 7, Type 0, BuildingBlock: CEKHIL_clean_sbu_0, # of connection points: 4
#     Node 8, Type 0, BuildingBlock: CEKHIL_clean_sbu_0, # of connection points: 4
#     Node 9, Type 0, BuildingBlock: CEKHIL_clean_sbu_0, # of connection points: 4
#     Node 10, Type 0, BuildingBlock: CEKHIL_clean_sbu_0, # of connection points: 4
#     Node 11, Type 0, BuildingBlock: CEKHIL_clean_sbu_0, # of connection points: 4
#     Edge 12, Type (0, 0), BuildingBlock: EYOCIG_clean_linker_4, # of connection points: 2
#     Edge 13, Type (0, 0), BuildingBlock: EYOCIG_clean_linker_4, # of connection points: 2
#     Edge 14, Type (0, 0), BuildingBlock: EYOCIG_clean_linker_4, # of connection points: 2
#     Edge 15, Type (0, 0), BuildingBlock: EYOCIG_clean_linker_4, # of connection points: 2
#     Edge 16, Type (0, 0), BuildingBlock: EYOCIG_clean_linker_4, # of connection points: 2
#     Edge 17, Type (0, 0), BuildingBlock: EYOCIG_clean_linker_4, # of connection points: 2
#     Edge 18, Type (0, 0), BuildingBlock: EYOCIG_clean_linker_4, # of connection points: 2
#     Edge 19, Type (0, 0), BuildingBlock: EYOCIG_clean_linker_4, # of connection points: 2
#     Edge 20, Type (0, 0), BuildingBlock: EYOCIG_clean_linker_4, # of connection points: 2
#     Edge 21, Type (0, 0), BuildingBlock: EYOCIG_clean_linker_4, # of connection points: 2
#     Edge 22, Type (0, 0), BuildingBlock: EYOCIG_clean_linker_4, # of connection points: 2
#     Edge 23, Type (0, 0), BuildingBlock: EYOCIG_clean_linker_4, # of connection points: 2
#     Edge 24, Type (0, 0), BuildingBlock: EYOCIG_clean_linker_4, # of connection points: 2
#     Edge 25, Type (0, 0), BuildingBlock: EYOCIG_clean_linker_4, # of connection points: 2
#     Edge 26, Type (0, 0), BuildingBlock: EYOCIG_clean_linker_4, # of connection points: 2
#     Edge 27, Type (0, 0), BuildingBlock: EYOCIG_clean_linker_4, # of connection points: 2
#     Edge 28, Type (0, 0), BuildingBlock: EYOCIG_clean_linker_4, # of connection points: 2
#     Edge 29, Type (0, 0), BuildingBlock: EYOCIG_clean_linker_4, # of connection points: 2
#     Edge 30, Type (0, 0), BuildingBlock: EYOCIG_clean_linker_4, # of connection points: 2
#     Edge 31, Type (0, 0), BuildingBlock: EYOCIG_clean_linker_4, # of connection points: 2
#     Edge 32, Type (0, 0), BuildingBlock: EYOCIG_clean_linker_4, # of connection points: 2
#     Edge 33, Type (0, 0), BuildingBlock: EYOCIG_clean_linker_4, # of connection points: 2
#     Edge 34, Type (0, 0), BuildingBlock: EYOCIG_clean_linker_4, # of connection points: 2
#     Edge 35, Type (0, 0), BuildingBlock: EYOCIG_clean_linker_4, # of connection points: 2
# Relax obj value: 0.153
# Max RMSD: 0.167
# Mean RMSD: 0.161
data_MOF--net-uop--node1-CEKHIL_clean_sbu_0--edge1-EYOCIG_clean_linker_4
_symmetry_space_group_name_H-M    P1
_symmetry_Int_Tables_number       1
_symmetry_cell_setting            triclinic
loop_
_symmetry_equiv_pos_as_xyz
'x, y, z'
_cell_length_a     25.919373
_cell_length_b     25.331893
_cell_length_c     33.834051
_cell_angle_alpha  89.961735
_cell_angle_beta   90.012865
_cell_angle_gamma 120.83177
loop_
_atom_site_label
_atom_site_type_symbol
_atom_site_fract_x
_atom_site_fract_y
_atom_site_fract_z
_atom_type_partial_charge
Co0 Co 0.23931 0.36929 0.20061 0.0
O1 O 0.15856 0.32837 0.21933 0.0
O2 O 0.18581 0.32466 0.15743 0.0
C3 C 0.27312 0.33925 0.25197 0.0
O4 O 0.31843 0.40416 0.17085 0.0
Co5 Co 0.34051 0.47332 0.25078 0.0
O6 O 0.39394 0.46921 0.21085 0.0
C7 C 0.25884 0.49813 0.20444 0.0
C8 C 0.14357 0.3075 0.18372 0.0
C9 C 0.37438 0.44047 0.17837 0.0
O10 O 0.23506 0.44495 0.18798 0.0
O11 O 0.29821 0.51636 0.23188 0.0
O12 O 0.24913 0.30318 0.22178 0.0
O13 O 0.27303 0.39005 0.25133 0.0
Co14 Co 0.85515 0.23899 0.55519 0.0
O15 O 0.92626 0.2483 0.58015 0.0
O16 O 0.86454 0.27494 0.60681 0.0
C17 C 0.82044 0.14232 0.5355 0.0
O18 O 0.77649 0.23435 0.53975 0.0
Co19 Co 0.83376 0.21708 0.46547 0.0
O20 O 0.75407 0.20746 0.47592 0.0
C21 C 0.91695 0.34175 0.49478 0.0
C22 C 0.91168 0.26978 0.61014 0.0
C23 C 0.74175 0.22071 0.50951 0.0
O24 O 0.90297 0.32268 0.5305 0.0
O25 O 0.8979 0.30664 0.46453 0.0
O26 O 0.81064 0.15368 0.57114 0.0
O27 O 0.85425 0.18923 0.51331 0.0
Co28 Co 0.61991 0.85729 0.87673 0.0
O29 O 0.65944 0.81635 0.89592 0.0
O30 O 0.66483 0.84909 0.8341 0.0
C31 C 0.6483 0.92148 0.92862 0.0
O32 O 0.58697 0.90298 0.84642 0.0
Co33 Co 0.51788 0.85563 0.92569 0.0
O34 O 0.52346 0.91495 0.88554 0.0
C35 C 0.49334 0.74647 0.87925 0.0
C36 C 0.68134 0.82358 0.86066 0.0
C37 C 0.55192 0.92369 0.8533 0.0
O38 O 0.54593 0.77577 0.86346 0.0
O39 O 0.47539 0.7686 0.90626 0.0
O40 O 0.68412 0.93462 0.89866 0.0
O41 O 0.59837 0.86972 0.92723 0.0
Co42 Co 0.75838 0.6188 0.20078 0.0
O43 O 0.83893 0.6602 0.21991 0.0
O44 O 0.81231 0.66391 0.15784 0.0
C45 C 0.72343 0.64817 0.25182 0.0
O46 O 0.67951 0.58343 0.17066 0.0
Co47 Co 0.65721 0.51409 0.2507 0.0
O48 O 0.60394 0.51798 0.21053 0.0
C49 C 0.73969 0.49023 0.20463 0.0
C50 C 0.85428 0.68125 0.18436 0.0
C51 C 0.62357 0.54679 0.17806 0.0
O52 O 0.76344 0.54355 0.18831 0.0
O53 O 0.70001 0.47158 0.23189 0.0
O54 O 0.74766 0.68442 0.22172 0.0
O55 O 0.72409 0.59766 0.25134 0.0
Co56 Co 0.14227 0.74849 0.55572 0.0
O57 O 0.07126 0.73971 0.58046 0.0
O58 O 0.13199 0.71176 0.60719 0.0
C59 C 0.17818 0.84554 0.53642 0.0
O60 O 0.22069 0.75246 0.54053 0.0
Co61 Co 0.16454 0.7712 0.46613 0.0
O62 O 0.24403 0.78045 0.4769 0.0
C63 C 0.07953 0.6467 0.49487 0.0
C64 C 0.08519 0.71753 0.61041 0.0
C65 C 0.25583 0.76654 0.51046 0.0
O66 O 0.0939 0.66522 0.53065 0.0
O67 O 0.09899 0.68219 0.46478 0.0
O68 O 0.18739 0.83355 0.57206 0.0
O69 O 0.14418 0.79905 0.51402 0.0
Co70 Co 0.37829 0.13127 0.87674 0.0
O71 O 0.33849 0.17217 0.89546 0.0
O72 O 0.334 0.1396 0.83371 0.0
C73 C 0.34925 0.06702 0.92869 0.0
O74 O 0.41167 0.08573 0.8468 0.0
Co75 Co 0.47969 0.13276 0.92636 0.0
O76 O 0.47519 0.07409 0.88615 0.0
C77 C 0.50466 0.2422 0.87998 0.0
C78 C 0.31719 0.16512 0.86003 0.0
C79 C 0.44695 0.06534 0.8538 0.0
O80 O 0.4524 0.21285 0.86376 0.0
O81 O 0.52222 0.21999 0.90721 0.0
O82 O 0.31381 0.05389 0.89851 0.0
O83 O 0.39921 0.11876 0.92743 0.0
Co84 Co 0.61055 0.74925 0.4743 0.0
O85 O 0.67243 0.74025 0.44922 0.0
O86 O 0.5838 0.71319 0.42273 0.0
C87 C 0.67241 0.84597 0.49397 0.0
O88 O 0.53637 0.75351 0.48983 0.0
Co89 Co 0.6112 0.7711 0.56402 0.0
O90 O 0.54096 0.78048 0.55365 0.0
C91 C 0.5705 0.64667 0.53471 0.0
C92 C 0.63619 0.71857 0.4193 0.0
C93 C 0.51528 0.76711 0.52007 0.0
O94 O 0.57504 0.66564 0.49901 0.0
O95 O 0.58668 0.68182 0.56495 0.0
O96 O 0.65112 0.83453 0.45835 0.0
O97 O 0.6595 0.79913 0.51615 0.0
Co98 Co 0.86376 0.61915 0.82929 0.0
O99 O 0.82463 0.6609 0.8109 0.0
O100 O 0.85594 0.66416 0.87266 0.0
C101 C 0.92726 0.64856 0.77777 0.0
O102 O 0.90753 0.58346 0.85868 0.0
Co103 Co 0.85911 0.51457 0.77873 0.0
O104 O 0.91716 0.51846 0.8182 0.0
C105 C 0.75333 0.49087 0.82554 0.0
C106 C 0.8311 0.68184 0.84653 0.0
C107 C 0.92682 0.54703 0.85078 0.0
O108 O 0.78338 0.54397 0.84206 0.0
O109 O 0.7739 0.47236 0.79792 0.0
O110 O 0.93996 0.68473 0.80796 0.0
O111 O 0.87595 0.59814 0.77849 0.0
Co112 Co 0.24145 0.85658 0.15348 0.0
O113 O 0.16077 0.81567 0.13457 0.0
O114 O 0.18854 0.84751 0.19647 0.0
C115 C 0.27685 0.92155 0.10188 0.0
O116 O 0.32019 0.90195 0.18367 0.0
Co117 Co 0.34197 0.85638 0.10384 0.0
O118 O 0.39581 0.91438 0.1445 0.0
C119 C 0.25774 0.7463 0.14987 0.0
C120 C 0.14631 0.82228 0.17003 0.0
C121 C 0.37597 0.92253 0.17687 0.0
O122 O 0.23423 0.77505 0.16604 0.0
O123 O 0.29778 0.76905 0.1228 0.0
O124 O 0.25428 0.93412 0.13214 0.0
O125 O 0.27523 0.86992 0.10284 0.0
Co126 Co 0.38676 0.23881 0.47449 0.0
O127 O 0.32426 0.24749 0.45003 0.0
O128 O 0.41243 0.27464 0.42274 0.0
C129 C 0.32558 0.14214 0.49454 0.0
O130 O 0.46133 0.23479 0.48928 0.0
Co131 Co 0.38782 0.21737 0.56419 0.0
O132 O 0.45774 0.20782 0.55304 0.0
C133 C 0.42792 0.34166 0.53475 0.0
C134 C 0.3599 0.26906 0.4198 0.0
C135 C 0.48287 0.22116 0.51928 0.0
O136 O 0.4226 0.32253 0.49904 0.0
O137 O 0.41242 0.30665 0.56507 0.0
O138 O 0.34608 0.15347 0.45872 0.0
O139 O 0.33873 0.18904 0.51668 0.0
Co140 Co 0.13446 0.36972 0.82841 0.0
O141 O 0.17362 0.32824 0.80963 0.0
O142 O 0.14315 0.32495 0.87161 0.0
C143 C 0.07016 0.33995 0.77732 0.0
O144 O 0.09086 0.4052 0.85818 0.0
Co145 Co 0.13815 0.47402 0.77801 0.0
O146 O 0.08059 0.47006 0.81789 0.0
C147 C 0.24457 0.49826 0.82424 0.0
C148 C 0.16778 0.30741 0.84526 0.0
C149 C 0.07138 0.44155 0.85048 0.0
O150 O 0.21487 0.44512 0.84078 0.0
O151 O 0.22358 0.51666 0.79681 0.0
O152 O 0.05806 0.30389 0.80753 0.0
O153 O 0.1214 0.39047 0.77772 0.0
Co154 Co 0.7561 0.13149 0.15342 0.0
O155 O 0.8366 0.17303 0.13415 0.0
O156 O 0.80952 0.14054 0.19606 0.0
C157 C 0.72052 0.06697 0.10169 0.0
O158 O 0.67765 0.08532 0.18389 0.0
Co159 Co 0.65477 0.13147 0.10463 0.0
O160 O 0.60151 0.07217 0.14499 0.0
C161 C 0.73945 0.24154 0.15039 0.0
C162 C 0.85147 0.16624 0.16946 0.0
C163 C 0.62172 0.06396 0.1772 0.0
O164 O 0.76299 0.2127 0.16643 0.0
O165 O 0.69923 0.21885 0.12344 0.0
O166 O 0.74357 0.05435 0.13167 0.0
O167 O 0.72181 0.11842 0.10297 0.0
C168 C 0.2338 0.63659 0.17256 0.0
C169 C 0.24158 0.68642 0.16417 0.0
C170 C 0.23452 0.58261 0.18182 0.0
C171 C 0.24294 0.54141 0.19039 0.0
C172 C 0.64087 0.22332 0.51394 0.0
C173 C 0.6872 0.22259 0.51303 0.0
C174 C 0.58615 0.22348 0.51414 0.0
C175 C 0.53919 0.22293 0.51526 0.0
C176 C 0.40823 0.63671 0.85609 0.0
C177 C 0.4501 0.6866 0.86466 0.0
C178 C 0.35357 0.58261 0.84678 0.0
C179 C 0.30385 0.54142 0.83828 0.0
C180 C 0.76408 0.40586 0.18204 0.0
C181 C 0.75579 0.44716 0.19053 0.0
C182 C 0.7643 0.35159 0.17288 0.0
C183 C 0.75608 0.30158 0.16456 0.0
C184 C 0.41171 0.76435 0.51555 0.0
C185 C 0.45881 0.76516 0.51653 0.0
C186 C 0.35681 0.76416 0.51528 0.0
C187 C 0.31041 0.76475 0.51422 0.0
C188 C 0.58981 0.35231 0.85732 0.0
C189 C 0.54799 0.30224 0.86566 0.0
C190 C 0.64441 0.4066 0.84822 0.0
C191 C 0.69411 0.44787 0.83974 0.0
C192 C 0.53047 0.51016 0.13352 0.0
C193 C 0.57958 0.53366 0.14817 0.0
C194 C 0.46738 0.47672 0.13371 0.0
C195 C 0.4184 0.45347 0.14853 0.0
C196 C 0.01394 0.52668 0.4859 0.0
C197 C 0.04391 0.58179 0.48843 0.0
C198 C 0.9811 0.46194 0.48598 0.0
C199 C 0.95178 0.40679 0.48857 0.0
C200 C 0.483 0.00954 0.8078 0.0
C201 C 0.45985 0.03488 0.82326 0.0
C202 C 0.51654 0.98029 0.80755 0.0
C203 C 0.53955 0.9546 0.82276 0.0
C204 C 0.51526 0.52654 0.5434 0.0
C205 C 0.54075 0.58167 0.54093 0.0
C206 C 0.48335 0.46181 0.54336 0.0
C207 C 0.45782 0.40668 0.54085 0.0
C208 C 0.9843 0.5108 0.89475 0.0
C209 C 0.95827 0.53392 0.88024 0.0
C210 C 0.01432 0.4778 0.89474 0.0
C211 C 0.04023 0.45463 0.88015 0.0
C212 C 0.46745 0.9777 0.22328 0.0
C213 C 0.41904 0.95254 0.20766 0.0
C214 C 0.53029 0.0071 0.22341 0.0
C215 C 0.57882 0.03301 0.20795 0.0
C216 C 0.3068 0.30768 0.31685 0.0
C217 C 0.291 0.3204 0.28668 0.0
C218 C 0.32474 0.29429 0.35296 0.0
C219 C 0.34047 0.28267 0.38358 0.0
C220 C 0.97191 0.29559 0.67707 0.0
C221 C 0.94445 0.28378 0.64648 0.0
C222 C 0.00371 0.30897 0.71299 0.0
C223 C 0.0328 0.32148 0.7429 0.0
C224 C 0.67923 0.98089 0.99623 0.0
C225 C 0.66743 0.95563 0.96464 0.0
C226 C 0.69242 0.00744 0.03413 0.0
C227 C 0.70573 0.03274 0.0657 0.0
C228 C 0.6702 0.69261 0.35228 0.0
C229 C 0.65479 0.7045 0.38292 0.0
C230 C 0.68831 0.67912 0.31629 0.0
C231 C 0.70475 0.66661 0.28633 0.0
C232 C 0.02464 0.69191 0.67719 0.0
C233 C 0.05224 0.70364 0.64667 0.0
C234 C 0.99297 0.67883 0.71314 0.0
C235 C 0.96421 0.66663 0.74318 0.0
C236 C 0.30463 0.98139 0.03439 0.0
C237 C 0.29147 0.95608 0.06599 0.0
C238 C 0.31777 0.0078 0.99642 0.0
C239 C 0.32972 0.03288 0.96474 0.0
C240 C 0.96551 0.20529 0.17754 0.0
C241 C 0.9125 0.18568 0.17755 0.0
C242 C 0.02817 0.2353 0.1745 0.0
C243 C 0.08181 0.26733 0.17473 0.0
C244 C 0.77504 0.02626 0.51711 0.0
C245 C 0.79755 0.08044 0.52294 0.0
C246 C 0.74299 0.96209 0.51236 0.0
C247 C 0.71136 0.90789 0.50652 0.0
C248 C 0.78934 0.75513 0.85593 0.0
C249 C 0.81038 0.72262 0.85571 0.0
C250 C 0.7569 0.78531 0.85276 0.0
C251 C 0.72329 0.80465 0.8526 0.0
C252 C 0.96977 0.75377 0.17556 0.0
C253 C 0.91613 0.7216 0.17563 0.0
C254 C 0.03244 0.78372 0.1786 0.0
C255 C 0.08542 0.80311 0.17845 0.0
C256 C 0.22438 0.96189 0.51835 0.0
C257 C 0.20159 0.90765 0.52414 0.0
C258 C 0.25623 0.02603 0.51349 0.0
C259 C 0.28734 0.08024 0.50741 0.0
C260 C 0.21002 0.23443 0.85437 0.0
C261 C 0.18887 0.26684 0.85419 0.0
C262 C 0.2423 0.20408 0.85134 0.0
C263 C 0.27564 0.18442 0.85149 0.0
loop_
_geom_bond_atom_site_label_1
_geom_bond_atom_site_label_2
_geom_bond_distance
_geom_bond_site_symmetry_2
_ccdc_geom_bond_type
Co0 O1 2.216 . S
Co0 O2 2.091 . S
Co0 O4 2.004 . S
Co0 O10 2.021 . S
Co0 O12 2.137 . S
Co0 O13 2.244 . S
O1 Co0 2.216 . S
O1 C8 1.247 . S
O2 Co0 2.091 . S
O2 C8 1.261 . S
C3 O12 1.247 . S
C3 O13 1.272 . S
O4 Co0 2.004 . S
O4 C9 1.259 . S
Co5 O6 2.061 . S
Co5 O11 2.052 . S
Co5 O13 2.135 . S
O6 Co5 2.061 . S
O6 C9 1.235 . S
C7 O10 1.238 . S
C7 O11 1.241 . S
C8 O1 1.247 . S
C8 O2 1.261 . S
C9 O4 1.259 . S
C9 O6 1.235 . S
O10 Co0 2.021 . S
O10 C7 1.238 . S
O11 Co5 2.052 . S
O11 C7 1.241 . S
O12 Co0 2.137 . S
O12 C3 1.247 . S
O13 Co0 2.244 . S
O13 C3 1.272 . S
O13 Co5 2.135 . S
Co14 O15 2.216 . S
Co14 O16 2.091 . S
Co14 O18 2.004 . S
Co14 O24 2.021 . S
Co14 O26 2.137 . S
Co14 O27 2.244 . S
O15 Co14 2.216 . S
O15 C22 1.247 . S
O16 Co14 2.091 . S
O16 C22 1.261 . S
C17 O26 1.247 . S
C17 O27 1.272 . S
O18 Co14 2.004 . S
O18 C23 1.259 . S
Co19 O20 2.061 . S
Co19 O25 2.052 . S
Co19 O27 2.135 . S
O20 Co19 2.061 . S
O20 C23 1.235 . S
C21 O24 1.238 . S
C21 O25 1.241 . S
C22 O15 1.247 . S
C22 O16 1.261 . S
C23 O18 1.259 . S
C23 O20 1.235 . S
O24 Co14 2.021 . S
O24 C21 1.238 . S
O25 Co19 2.052 . S
O25 C21 1.241 . S
O26 Co14 2.137 . S
O26 C17 1.247 . S
O27 Co14 2.244 . S
O27 C17 1.272 . S
O27 Co19 2.135 . S
Co28 O29 2.216 . S
Co28 O30 2.091 . S
Co28 O32 2.004 . S
Co28 O38 2.021 . S
Co28 O40 2.137 . S
Co28 O41 2.244 . S
O29 Co28 2.216 . S
O29 C36 1.247 . S
O30 Co28 2.091 . S
O30 C36 1.261 . S
C31 O40 1.247 . S
C31 O41 1.272 . S
O32 Co28 2.004 . S
O32 C37 1.259 . S
Co33 O34 2.061 . S
Co33 O39 2.052 . S
Co33 O41 2.135 . S
O34 Co33 2.061 . S
O34 C37 1.235 . S
C35 O38 1.238 . S
C35 O39 1.241 . S
C36 O29 1.247 . S
C36 O30 1.261 . S
C37 O32 1.259 . S
C37 O34 1.235 . S
O38 Co28 2.021 . S
O38 C35 1.238 . S
O39 Co33 2.052 . S
O39 C35 1.241 . S
O40 Co28 2.137 . S
O40 C31 1.247 . S
O41 Co28 2.244 . S
O41 C31 1.272 . S
O41 Co33 2.135 . S
Co42 O43 2.216 . S
Co42 O44 2.091 . S
Co42 O46 2.004 . S
Co42 O52 2.021 . S
Co42 O54 2.137 . S
Co42 O55 2.244 . S
O43 Co42 2.216 . S
O43 C50 1.247 . S
O44 Co42 2.091 . S
O44 C50 1.261 . S
C45 O54 1.247 . S
C45 O55 1.272 . S
O46 Co42 2.004 . S
O46 C51 1.259 . S
Co47 O48 2.061 . S
Co47 O53 2.052 . S
Co47 O55 2.135 . S
O48 Co47 2.061 . S
O48 C51 1.235 . S
C49 O52 1.238 . S
C49 O53 1.241 . S
C50 O43 1.247 . S
C50 O44 1.261 . S
C51 O46 1.259 . S
C51 O48 1.235 . S
O52 Co42 2.021 . S
O52 C49 1.238 . S
O53 Co47 2.052 . S
O53 C49 1.241 . S
O54 Co42 2.137 . S
O54 C45 1.247 . S
O55 Co42 2.244 . S
O55 C45 1.272 . S
O55 Co47 2.135 . S
Co56 O57 2.216 . S
Co56 O58 2.091 . S
Co56 O60 2.004 . S
Co56 O66 2.021 . S
Co56 O68 2.137 . S
Co56 O69 2.244 . S
O57 Co56 2.216 . S
O57 C64 1.247 . S
O58 Co56 2.091 . S
O58 C64 1.261 . S
C59 O68 1.247 . S
C59 O69 1.272 . S
O60 Co56 2.004 . S
O60 C65 1.259 . S
Co61 O62 2.061 . S
Co61 O67 2.052 . S
Co61 O69 2.135 . S
O62 Co61 2.061 . S
O62 C65 1.235 . S
C63 O66 1.238 . S
C63 O67 1.241 . S
C64 O57 1.247 . S
C64 O58 1.261 . S
C65 O60 1.259 . S
C65 O62 1.235 . S
O66 Co56 2.021 . S
O66 C63 1.238 . S
O67 Co61 2.052 . S
O67 C63 1.241 . S
O68 Co56 2.137 . S
O68 C59 1.247 . S
O69 Co56 2.244 . S
O69 C59 1.272 . S
O69 Co61 2.135 . S
Co70 O71 2.216 . S
Co70 O72 2.091 . S
Co70 O74 2.004 . S
Co70 O80 2.021 . S
Co70 O82 2.137 . S
Co70 O83 2.244 . S
O71 Co70 2.216 . S
O71 C78 1.247 . S
O72 Co70 2.091 . S
O72 C78 1.261 . S
C73 O82 1.247 . S
C73 O83 1.272 . S
O74 Co70 2.004 . S
O74 C79 1.259 . S
Co75 O76 2.061 . S
Co75 O81 2.052 . S
Co75 O83 2.135 . S
O76 Co75 2.061 . S
O76 C79 1.235 . S
C77 O80 1.238 . S
C77 O81 1.241 . S
C78 O71 1.247 . S
C78 O72 1.261 . S
C79 O74 1.259 . S
C79 O76 1.235 . S
O80 Co70 2.021 . S
O80 C77 1.238 . S
O81 Co75 2.052 . S
O81 C77 1.241 . S
O82 Co70 2.137 . S
O82 C73 1.247 . S
O83 Co70 2.244 . S
O83 C73 1.272 . S
O83 Co75 2.135 . S
Co84 O85 2.216 . S
Co84 O86 2.091 . S
Co84 O88 2.004 . S
Co84 O94 2.021 . S
Co84 O96 2.137 . S
Co84 O97 2.244 . S
O85 Co84 2.216 . S
O85 C92 1.247 . S
O86 Co84 2.091 . S
O86 C92 1.261 . S
C87 O96 1.247 . S
C87 O97 1.272 . S
O88 Co84 2.004 . S
O88 C93 1.259 . S
Co89 O90 2.061 . S
Co89 O95 2.052 . S
Co89 O97 2.135 . S
O90 Co89 2.061 . S
O90 C93 1.235 . S
C91 O94 1.238 . S
C91 O95 1.241 . S
C92 O85 1.247 . S
C92 O86 1.261 . S
C93 O88 1.259 . S
C93 O90 1.235 . S
O94 Co84 2.021 . S
O94 C91 1.238 . S
O95 Co89 2.052 . S
O95 C91 1.241 . S
O96 Co84 2.137 . S
O96 C87 1.247 . S
O97 Co84 2.244 . S
O97 C87 1.272 . S
O97 Co89 2.135 . S
Co98 O99 2.216 . S
Co98 O100 2.091 . S
Co98 O102 2.004 . S
Co98 O108 2.021 . S
Co98 O110 2.137 . S
Co98 O111 2.244 . S
O99 Co98 2.216 . S
O99 C106 1.247 . S
O100 Co98 2.091 . S
O100 C106 1.261 . S
C101 O110 1.247 . S
C101 O111 1.272 . S
O102 Co98 2.004 . S
O102 C107 1.259 . S
Co103 O104 2.061 . S
Co103 O109 2.052 . S
Co103 O111 2.135 . S
O104 Co103 2.061 . S
O104 C107 1.235 . S
C105 O108 1.238 . S
C105 O109 1.241 . S
C106 O99 1.247 . S
C106 O100 1.261 . S
C107 O102 1.259 . S
C107 O104 1.235 . S
O108 Co98 2.021 . S
O108 C105 1.238 . S
O109 Co103 2.052 . S
O109 C105 1.241 . S
O110 Co98 2.137 . S
O110 C101 1.247 . S
O111 Co98 2.244 . S
O111 C101 1.272 . S
O111 Co103 2.135 . S
Co112 O113 2.216 . S
Co112 O114 2.091 . S
Co112 O116 2.004 . S
Co112 O122 2.021 . S
Co112 O124 2.137 . S
Co112 O125 2.244 . S
O113 Co112 2.216 . S
O113 C120 1.247 . S
O114 Co112 2.091 . S
O114 C120 1.261 . S
C115 O124 1.247 . S
C115 O125 1.272 . S
O116 Co112 2.004 . S
O116 C121 1.259 . S
Co117 O118 2.061 . S
Co117 O123 2.052 . S
Co117 O125 2.135 . S
O118 Co117 2.061 . S
O118 C121 1.235 . S
C119 O122 1.238 . S
C119 O123 1.241 . S
C120 O113 1.247 . S
C120 O114 1.261 . S
C121 O116 1.259 . S
C121 O118 1.235 . S
O122 Co112 2.021 . S
O122 C119 1.238 . S
O123 Co117 2.052 . S
O123 C119 1.241 . S
O124 Co112 2.137 . S
O124 C115 1.247 . S
O125 Co112 2.244 . S
O125 C115 1.272 . S
O125 Co117 2.135 . S
Co126 O127 2.216 . S
Co126 O128 2.091 . S
Co126 O130 2.004 . S
Co126 O136 2.021 . S
Co126 O138 2.137 . S
Co126 O139 2.244 . S
O127 Co126 2.216 . S
O127 C134 1.247 . S
O128 Co126 2.091 . S
O128 C134 1.261 . S
C129 O138 1.247 . S
C129 O139 1.272 . S
O130 Co126 2.004 . S
O130 C135 1.259 . S
Co131 O132 2.061 . S
Co131 O137 2.052 . S
Co131 O139 2.135 . S
O132 Co131 2.061 . S
O132 C135 1.235 . S
C133 O136 1.238 . S
C133 O137 1.241 . S
C134 O127 1.247 . S
C134 O128 1.261 . S
C135 O130 1.259 . S
C135 O132 1.235 . S
O136 Co126 2.021 . S
O136 C133 1.238 . S
O137 Co131 2.052 . S
O137 C133 1.241 . S
O138 Co126 2.137 . S
O138 C129 1.247 . S
O139 Co126 2.244 . S
O139 C129 1.272 . S
O139 Co131 2.135 . S
Co140 O141 2.216 . S
Co140 O142 2.091 . S
Co140 O144 2.004 . S
Co140 O150 2.021 . S
Co140 O152 2.137 . S
Co140 O153 2.244 . S
O141 Co140 2.216 . S
O141 C148 1.247 . S
O142 Co140 2.091 . S
O142 C148 1.261 . S
C143 O152 1.247 . S
C143 O153 1.272 . S
O144 Co140 2.004 . S
O144 C149 1.259 . S
Co145 O146 2.061 . S
Co145 O151 2.052 . S
Co145 O153 2.135 . S
O146 Co145 2.061 . S
O146 C149 1.235 . S
C147 O150 1.238 . S
C147 O151 1.241 . S
C148 O141 1.247 . S
C148 O142 1.261 . S
C149 O144 1.259 . S
C149 O146 1.235 . S
O150 Co140 2.021 . S
O150 C147 1.238 . S
O151 Co145 2.052 . S
O151 C147 1.241 . S
O152 Co140 2.137 . S
O152 C143 1.247 . S
O153 Co140 2.244 . S
O153 C143 1.272 . S
O153 Co145 2.135 . S
Co154 O155 2.216 . S
Co154 O156 2.091 . S
Co154 O158 2.004 . S
Co154 O164 2.021 . S
Co154 O166 2.137 . S
Co154 O167 2.244 . S
O155 Co154 2.216 . S
O155 C162 1.247 . S
O156 Co154 2.091 . S
O156 C162 1.261 . S
C157 O166 1.247 . S
C157 O167 1.272 . S
O158 Co154 2.004 . S
O158 C163 1.259 . S
Co159 O160 2.061 . S
Co159 O165 2.052 . S
Co159 O167 2.135 . S
O160 Co159 2.061 . S
O160 C163 1.235 . S
C161 O164 1.238 . S
C161 O165 1.241 . S
C162 O155 1.247 . S
C162 O156 1.261 . S
C163 O158 1.259 . S
C163 O160 1.235 . S
O164 Co154 2.021 . S
O164 C161 1.238 . S
O165 Co159 2.052 . S
O165 C161 1.241 . S
O166 Co154 2.137 . S
O166 C157 1.247 . S
O167 Co154 2.244 . S
O167 C157 1.272 . S
O167 Co159 2.135 . S
C168 C169 1.170 . S
C168 C170 1.380 . S
C169 C168 1.170 . S
C170 C168 1.380 . S
C170 C171 1.170 . S
C171 C170 1.170 . S
C172 C173 1.170 . S
C172 C174 1.380 . S
C173 C172 1.170 . S
C174 C172 1.380 . S
C174 C175 1.170 . S
C175 C174 1.170 . S
C176 C177 1.170 . S
C176 C178 1.380 . S
C177 C176 1.170 . S
C178 C176 1.380 . S
C178 C179 1.170 . S
C179 C178 1.170 . S
C180 C181 1.170 . S
C180 C182 1.380 . S
C181 C180 1.170 . S
C182 C180 1.380 . S
C182 C183 1.170 . S
C183 C182 1.170 . S
C184 C185 1.170 . S
C184 C186 1.380 . S
C185 C184 1.170 . S
C186 C184 1.380 . S
C186 C187 1.170 . S
C187 C186 1.170 . S
C188 C189 1.170 . S
C188 C190 1.380 . S
C189 C188 1.170 . S
C190 C188 1.380 . S
C190 C191 1.170 . S
C191 C190 1.170 . S
C192 C193 1.170 . S
C192 C194 1.380 . S
C193 C192 1.170 . S
C194 C192 1.380 . S
C194 C195 1.170 . S
C195 C194 1.170 . S
C196 C197 1.170 . S
C196 C198 1.380 1_455 S
C197 C196 1.170 . S
C198 C196 1.380 1_655 S
C198 C199 1.170 . S
C199 C198 1.170 . S
C200 C201 1.170 . S
C200 C202 1.380 1_545 S
C201 C200 1.170 . S
C202 C200 1.380 1_565 S
C202 C203 1.170 . S
C203 C202 1.170 . S
C204 C205 1.170 . S
C204 C206 1.380 . S
C205 C204 1.170 . S
C206 C204 1.380 . S
C206 C207 1.170 . S
C207 C206 1.170 . S
C208 C209 1.170 . S
C208 C210 1.380 1_655 S
C209 C208 1.170 . S
C210 C208 1.380 1_455 S
C210 C211 1.170 . S
C211 C210 1.170 . S
C212 C213 1.170 . S
C212 C214 1.380 1_565 S
C213 C212 1.170 . S
C214 C212 1.380 1_545 S
C214 C215 1.170 . S
C215 C214 1.170 . S
C216 C217 1.170 . S
C216 C218 1.380 . S
C217 C216 1.170 . S
C218 C216 1.380 . S
C218 C219 1.170 . S
C219 C218 1.170 . S
C220 C221 1.170 . S
C220 C222 1.380 1_655 S
C221 C220 1.170 . S
C222 C220 1.380 1_455 S
C222 C223 1.170 . S
C223 C222 1.170 . S
C224 C225 1.170 . S
C224 C226 1.380 1_566 S
C225 C224 1.170 . S
C226 C224 1.380 1_544 S
C226 C227 1.170 . S
C227 C226 1.170 . S
C228 C229 1.170 . S
C228 C230 1.380 . S
C229 C228 1.170 . S
C230 C228 1.380 . S
C230 C231 1.170 . S
C231 C230 1.170 . S
C232 C233 1.170 . S
C232 C234 1.380 1_455 S
C233 C232 1.170 . S
C234 C232 1.380 1_655 S
C234 C235 1.170 . S
C235 C234 1.170 . S
C236 C237 1.170 . S
C236 C238 1.380 1_564 S
C237 C236 1.170 . S
C238 C236 1.380 1_546 S
C238 C239 1.170 . S
C239 C238 1.170 . S
C240 C241 1.170 . S
C240 C242 1.380 1_655 S
C241 C240 1.170 . S
C242 C240 1.380 1_455 S
C242 C243 1.170 . S
C243 C242 1.170 . S
C244 C245 1.170 . S
C244 C246 1.380 1_545 S
C245 C244 1.170 . S
C246 C244 1.380 1_565 S
C246 C247 1.170 . S
C247 C246 1.170 . S
C248 C249 1.170 . S
C248 C250 1.380 . S
C249 C248 1.170 . S
C250 C248 1.380 . S
C250 C251 1.170 . S
C251 C250 1.170 . S
C252 C253 1.170 . S
C252 C254 1.380 1_655 S
C253 C252 1.170 . S
C254 C252 1.380 1_455 S
C254 C255 1.170 . S
C255 C254 1.170 . S
C256 C257 1.170 . S
C256 C258 1.380 1_565 S
C257 C256 1.170 . S
C258 C256 1.380 1_545 S
C258 C259 1.170 . S
C259 C258 1.170 . S
C260 C261 1.170 . S
C260 C262 1.380 . S
C261 C260 1.170 . S
C262 C260 1.380 . S
C262 C263 1.170 . S
C263 C262 1.170 . S
C169 C119 1.668 . S
C171 C7 1.707 . S
C173 C23 1.775 . S
C175 C135 1.780 . S
C177 C35 1.701 . S
C179 C147 1.683 . S
C181 C49 1.710 . S
C183 C161 1.673 . S
C185 C93 1.777 . S
C187 C65 1.779 . S
C189 C77 1.694 . S
C191 C105 1.699 . S
C193 C51 1.161 . S
C195 C9 1.178 . S
C197 C63 1.269 . S
C199 C21 1.232 . S
C201 C79 1.007 . S
C203 C37 1.030 . S
C205 C91 1.253 . S
C207 C133 1.244 . S
C209 C107 1.145 . S
C211 C149 1.118 . S
C213 C121 1.025 . S
C215 C163 1.080 . S
C217 C3 1.569 . S
C219 C134 1.567 . S
C221 C22 1.553 . S
C223 C143 1.565 . S
C225 C31 1.550 . S
C227 C157 1.556 . S
C229 C92 1.557 . S
C231 C45 1.562 . S
C233 C64 1.553 . S
C235 C101 1.565 . S
C237 C115 1.553 . S
C239 C73 1.555 . S
C241 C162 1.351 . S
C243 C8 1.326 . S
C245 C17 1.395 . S
C247 C87 1.395 . S
C249 C106 1.358 . S
C251 C36 1.322 . S
C253 C50 1.316 . S
C255 C120 1.361 . S
C257 C59 1.369 . S
C259 C129 1.416 . S
C261 C148 1.322 . S
C263 C78 1.356 . S
