# Generated by pormake.
# Topology uma, (4)-cn, num edge types: 1
# Building blocks:
#     Node 0, Type 0, BuildingBlock: CEKHIL_clean_sbu_0, # of connection points: 4
#     Node 1, Type 0, BuildingBlock: CEKHIL_clean_sbu_0, # of connection points: 4
#     Node 2, Type 0, BuildingBlock: CEKHIL_clean_sbu_0, # of connection points: 4
#     Node 3, Type 0, BuildingBlock: CEKHIL_clean_sbu_0, # of connection points: 4
#     Node 4, Type 0, BuildingBlock: CEKHIL_clean_sbu_0, # of connection points: 4
#     Node 5, Type 0, BuildingBlock: CEKHIL_clean_sbu_0, # of connection points: 4
#     Node 6, Type 0, BuildingBlock: CEKHIL_clean_sbu_0, # of connection points: 4
#     Node 7, Type 0, BuildingBlock: CEKHIL_clean_sbu_0, # of connection points: 4
#     Node 8, Type 0, BuildingBlock: CEKHIL_clean_sbu_0, # of connection points: 4
#     Node 9, Type 0, BuildingBlock: CEKHIL_clean_sbu_0, # of connection points: 4
#     Node 10, Type 0, BuildingBlock: CEKHIL_clean_sbu_0, # of connection points: 4
#     Node 11, Type 0, BuildingBlock: CEKHIL_clean_sbu_0, # of connection points: 4
#     Node 12, Type 0, BuildingBlock: CEKHIL_clean_sbu_0, # of connection points: 4
#     Node 13, Type 0, BuildingBlock: CEKHIL_clean_sbu_0, # of connection points: 4
#     Node 14, Type 0, BuildingBlock: CEKHIL_clean_sbu_0, # of connection points: 4
#     Node 15, Type 0, BuildingBlock: CEKHIL_clean_sbu_0, # of connection points: 4
#     Node 16, Type 0, BuildingBlock: CEKHIL_clean_sbu_0, # of connection points: 4
#     Node 17, Type 0, BuildingBlock: CEKHIL_clean_sbu_0, # of connection points: 4
#     Node 18, Type 0, BuildingBlock: CEKHIL_clean_sbu_0, # of connection points: 4
#     Node 19, Type 0, BuildingBlock: CEKHIL_clean_sbu_0, # of connection points: 4
#     Node 20, Type 0, BuildingBlock: CEKHIL_clean_sbu_0, # of connection points: 4
#     Node 21, Type 0, BuildingBlock: CEKHIL_clean_sbu_0, # of connection points: 4
#     Node 22, Type 0, BuildingBlock: CEKHIL_clean_sbu_0, # of connection points: 4
#     Node 23, Type 0, BuildingBlock: CEKHIL_clean_sbu_0, # of connection points: 4
#     Node 24, Type 0, BuildingBlock: CEKHIL_clean_sbu_0, # of connection points: 4
#     Node 25, Type 0, BuildingBlock: CEKHIL_clean_sbu_0, # of connection points: 4
#     Node 26, Type 0, BuildingBlock: CEKHIL_clean_sbu_0, # of connection points: 4
#     Node 27, Type 0, BuildingBlock: CEKHIL_clean_sbu_0, # of connection points: 4
#     Node 28, Type 0, BuildingBlock: CEKHIL_clean_sbu_0, # of connection points: 4
#     Node 29, Type 0, BuildingBlock: CEKHIL_clean_sbu_0, # of connection points: 4
#     Node 30, Type 0, BuildingBlock: CEKHIL_clean_sbu_0, # of connection points: 4
#     Node 31, Type 0, BuildingBlock: CEKHIL_clean_sbu_0, # of connection points: 4
#     Node 32, Type 0, BuildingBlock: CEKHIL_clean_sbu_0, # of connection points: 4
#     Node 33, Type 0, BuildingBlock: CEKHIL_clean_sbu_0, # of connection points: 4
#     Node 34, Type 0, BuildingBlock: CEKHIL_clean_sbu_0, # of connection points: 4
#     Node 35, Type 0, BuildingBlock: CEKHIL_clean_sbu_0, # of connection points: 4
#     Edge 36, Type (0, 0), BuildingBlock: UVAHIK_clean_linker_0, # of connection points: 2
#     Edge 37, Type (0, 0), BuildingBlock: UVAHIK_clean_linker_0, # of connection points: 2
#     Edge 38, Type (0, 0), BuildingBlock: UVAHIK_clean_linker_0, # of connection points: 2
#     Edge 39, Type (0, 0), BuildingBlock: UVAHIK_clean_linker_0, # of connection points: 2
#     Edge 40, Type (0, 0), BuildingBlock: UVAHIK_clean_linker_0, # of connection points: 2
#     Edge 41, Type (0, 0), BuildingBlock: UVAHIK_clean_linker_0, # of connection points: 2
#     Edge 42, Type (0, 0), BuildingBlock: UVAHIK_clean_linker_0, # of connection points: 2
#     Edge 43, Type (0, 0), BuildingBlock: UVAHIK_clean_linker_0, # of connection points: 2
#     Edge 44, Type (0, 0), BuildingBlock: UVAHIK_clean_linker_0, # of connection points: 2
#     Edge 45, Type (0, 0), BuildingBlock: UVAHIK_clean_linker_0, # of connection points: 2
#     Edge 46, Type (0, 0), BuildingBlock: UVAHIK_clean_linker_0, # of connection points: 2
#     Edge 47, Type (0, 0), BuildingBlock: UVAHIK_clean_linker_0, # of connection points: 2
#     Edge 48, Type (0, 0), BuildingBlock: UVAHIK_clean_linker_0, # of connection points: 2
#     Edge 49, Type (0, 0), BuildingBlock: UVAHIK_clean_linker_0, # of connection points: 2
#     Edge 50, Type (0, 0), BuildingBlock: UVAHIK_clean_linker_0, # of connection points: 2
#     Edge 51, Type (0, 0), BuildingBlock: UVAHIK_clean_linker_0, # of connection points: 2
#     Edge 52, Type (0, 0), BuildingBlock: UVAHIK_clean_linker_0, # of connection points: 2
#     Edge 53, Type (0, 0), BuildingBlock: UVAHIK_clean_linker_0, # of connection points: 2
#     Edge 54, Type (0, 0), BuildingBlock: UVAHIK_clean_linker_0, # of connection points: 2
#     Edge 55, Type (0, 0), BuildingBlock: UVAHIK_clean_linker_0, # of connection points: 2
#     Edge 56, Type (0, 0), BuildingBlock: UVAHIK_clean_linker_0, # of connection points: 2
#     Edge 57, Type (0, 0), BuildingBlock: UVAHIK_clean_linker_0, # of connection points: 2
#     Edge 58, Type (0, 0), BuildingBlock: UVAHIK_clean_linker_0, # of connection points: 2
#     Edge 59, Type (0, 0), BuildingBlock: UVAHIK_clean_linker_0, # of connection points: 2
#     Edge 60, Type (0, 0), BuildingBlock: UVAHIK_clean_linker_0, # of connection points: 2
#     Edge 61, Type (0, 0), BuildingBlock: UVAHIK_clean_linker_0, # of connection points: 2
#     Edge 62, Type (0, 0), BuildingBlock: UVAHIK_clean_linker_0, # of connection points: 2
#     Edge 63, Type (0, 0), BuildingBlock: UVAHIK_clean_linker_0, # of connection points: 2
#     Edge 64, Type (0, 0), BuildingBlock: UVAHIK_clean_linker_0, # of connection points: 2
#     Edge 65, Type (0, 0), BuildingBlock: UVAHIK_clean_linker_0, # of connection points: 2
#     Edge 66, Type (0, 0), BuildingBlock: UVAHIK_clean_linker_0, # of connection points: 2
#     Edge 67, Type (0, 0), BuildingBlock: UVAHIK_clean_linker_0, # of connection points: 2
#     Edge 68, Type (0, 0), BuildingBlock: UVAHIK_clean_linker_0, # of connection points: 2
#     Edge 69, Type (0, 0), BuildingBlock: UVAHIK_clean_linker_0, # of connection points: 2
#     Edge 70, Type (0, 0), BuildingBlock: UVAHIK_clean_linker_0, # of connection points: 2
#     Edge 71, Type (0, 0), BuildingBlock: UVAHIK_clean_linker_0, # of connection points: 2
#     Edge 72, Type (0, 0), BuildingBlock: UVAHIK_clean_linker_0, # of connection points: 2
#     Edge 73, Type (0, 0), BuildingBlock: UVAHIK_clean_linker_0, # of connection points: 2
#     Edge 74, Type (0, 0), BuildingBlock: UVAHIK_clean_linker_0, # of connection points: 2
#     Edge 75, Type (0, 0), BuildingBlock: UVAHIK_clean_linker_0, # of connection points: 2
#     Edge 76, Type (0, 0), BuildingBlock: UVAHIK_clean_linker_0, # of connection points: 2
#     Edge 77, Type (0, 0), BuildingBlock: UVAHIK_clean_linker_0, # of connection points: 2
#     Edge 78, Type (0, 0), BuildingBlock: UVAHIK_clean_linker_0, # of connection points: 2
#     Edge 79, Type (0, 0), BuildingBlock: UVAHIK_clean_linker_0, # of connection points: 2
#     Edge 80, Type (0, 0), BuildingBlock: UVAHIK_clean_linker_0, # of connection points: 2
#     Edge 81, Type (0, 0), BuildingBlock: UVAHIK_clean_linker_0, # of connection points: 2
#     Edge 82, Type (0, 0), BuildingBlock: UVAHIK_clean_linker_0, # of connection points: 2
#     Edge 83, Type (0, 0), BuildingBlock: UVAHIK_clean_linker_0, # of connection points: 2
#     Edge 84, Type (0, 0), BuildingBlock: UVAHIK_clean_linker_0, # of connection points: 2
#     Edge 85, Type (0, 0), BuildingBlock: UVAHIK_clean_linker_0, # of connection points: 2
#     Edge 86, Type (0, 0), BuildingBlock: UVAHIK_clean_linker_0, # of connection points: 2
#     Edge 87, Type (0, 0), BuildingBlock: UVAHIK_clean_linker_0, # of connection points: 2
#     Edge 88, Type (0, 0), BuildingBlock: UVAHIK_clean_linker_0, # of connection points: 2
#     Edge 89, Type (0, 0), BuildingBlock: UVAHIK_clean_linker_0, # of connection points: 2
#     Edge 90, Type (0, 0), BuildingBlock: UVAHIK_clean_linker_0, # of connection points: 2
#     Edge 91, Type (0, 0), BuildingBlock: UVAHIK_clean_linker_0, # of connection points: 2
#     Edge 92, Type (0, 0), BuildingBlock: UVAHIK_clean_linker_0, # of connection points: 2
#     Edge 93, Type (0, 0), BuildingBlock: UVAHIK_clean_linker_0, # of connection points: 2
#     Edge 94, Type (0, 0), BuildingBlock: UVAHIK_clean_linker_0, # of connection points: 2
#     Edge 95, Type (0, 0), BuildingBlock: UVAHIK_clean_linker_0, # of connection points: 2
#     Edge 96, Type (0, 0), BuildingBlock: UVAHIK_clean_linker_0, # of connection points: 2
#     Edge 97, Type (0, 0), BuildingBlock: UVAHIK_clean_linker_0, # of connection points: 2
#     Edge 98, Type (0, 0), BuildingBlock: UVAHIK_clean_linker_0, # of connection points: 2
#     Edge 99, Type (0, 0), BuildingBlock: UVAHIK_clean_linker_0, # of connection points: 2
#     Edge 100, Type (0, 0), BuildingBlock: UVAHIK_clean_linker_0, # of connection points: 2
#     Edge 101, Type (0, 0), BuildingBlock: UVAHIK_clean_linker_0, # of connection points: 2
#     Edge 102, Type (0, 0), BuildingBlock: UVAHIK_clean_linker_0, # of connection points: 2
#     Edge 103, Type (0, 0), BuildingBlock: UVAHIK_clean_linker_0, # of connection points: 2
#     Edge 104, Type (0, 0), BuildingBlock: UVAHIK_clean_linker_0, # of connection points: 2
#     Edge 105, Type (0, 0), BuildingBlock: UVAHIK_clean_linker_0, # of connection points: 2
#     Edge 106, Type (0, 0), BuildingBlock: UVAHIK_clean_linker_0, # of connection points: 2
#     Edge 107, Type (0, 0), BuildingBlock: UVAHIK_clean_linker_0, # of connection points: 2
# Relax obj value: 0.191
# Max RMSD: 0.425
# Mean RMSD: 0.421
data_MOF--net-uma--node1-CEKHIL_clean_sbu_0--edge1-UVAHIK_clean_linker_0
_symmetry_space_group_name_H-M    P1
_symmetry_Int_Tables_number       1
_symmetry_cell_setting            triclinic
loop_
_symmetry_equiv_pos_as_xyz
'x, y, z'
_cell_length_a     97.9866
_cell_length_b     97.951686
_cell_length_c     47.678017
_cell_angle_alpha  89.996207
_cell_angle_beta   90.003991
_cell_angle_gamma 119.95569
loop_
_atom_site_label
_atom_site_type_symbol
_atom_site_fract_x
_atom_site_fract_y
_atom_site_fract_z
_atom_type_partial_charge
Co0 Co 0.09685 0.38634 0.99792 0.0
O1 O 0.11721 0.40056 0.9819 0.0
O2 O 0.1063 0.37455 0.98447 0.0
C3 C 0.09948 0.40008 0.03719 0.0
O4 O 0.07684 0.36775 0.01305 0.0
Co5 Co 0.07131 0.39553 0.00746 0.0
O6 O 0.06005 0.37536 0.02834 0.0
C7 C 0.07484 0.38504 0.95131 0.0
C8 C 0.11815 0.388 0.9769 0.0
C9 C 0.06393 0.36484 0.02507 0.0
O10 O 0.08635 0.38362 0.96067 0.0
O11 O 0.06744 0.39009 0.96631 0.0
O12 O 0.10581 0.3912 0.03535 0.0
O13 O 0.09317 0.40166 0.01445 0.0
Co14 Co 0.61064 0.71547 0.99968 0.0
O15 O 0.59697 0.7224 0.98416 0.0
O16 O 0.6231 0.73638 0.98511 0.0
C17 C 0.5974 0.70546 0.03989 0.0
O18 O 0.62875 0.71293 0.01385 0.0
Co19 Co 0.59962 0.68043 0.01039 0.0
O20 O 0.6199 0.68859 0.03067 0.0
C21 C 0.61055 0.69367 0.95384 0.0
C22 C 0.60983 0.73539 0.97803 0.0
C23 C 0.63103 0.70259 0.02621 0.0
O24 O 0.61217 0.70681 0.96251 0.0
O25 O 0.60532 0.68142 0.96943 0.0
O26 O 0.607 0.72051 0.03731 0.0
O27 O 0.59485 0.69715 0.01732 0.0
Co28 Co 0.28295 0.89403 0.00307 0.0
O29 O 0.27759 0.87395 0.98686 0.0
O30 O 0.26158 0.88378 0.98993 0.0
C31 C 0.29456 0.8918 0.04208 0.0
O32 O 0.28381 0.91382 0.01825 0.0
Co33 Co 0.3175 0.92024 0.01237 0.0
O34 O 0.30799 0.93052 0.03451 0.0
C35 C 0.303 0.91659 0.95654 0.0
C36 C 0.26379 0.87233 0.9821 0.0
C37 C 0.29363 0.92665 0.03073 0.0
O38 O 0.29031 0.90471 0.96581 0.0
O39 O 0.31545 0.92419 0.97145 0.0
O40 O 0.27932 0.88506 0.04051 0.0
O41 O 0.3022 0.89829 0.01923 0.0
Co42 Co 0.38622 0.10226 0.0022 0.0
O43 O 0.40082 0.12166 0.02058 0.0
O44 O 0.37523 0.11268 0.01522 0.0
C45 C 0.40101 0.10517 0.9642 0.0
O46 O 0.36749 0.0833 0.98454 0.0
Co47 Co 0.39382 0.0756 0.99181 0.0
O48 O 0.37512 0.06696 0.96684 0.0
C49 C 0.38127 0.07788 0.0469 0.0
C50 C 0.38878 0.12363 0.02454 0.0
C51 C 0.36476 0.07102 0.97039 0.0
O52 O 0.38139 0.09039 0.03844 0.0
O53 O 0.38625 0.07041 0.03187 0.0
O54 O 0.39288 0.11231 0.96577 0.0
O55 O 0.40128 0.09787 0.98668 0.0
Co56 Co 0.8956 0.28556 0.00264 0.0
O57 O 0.87657 0.28147 0.02169 0.0
O58 O 0.88521 0.26453 0.01738 0.0
C59 C 0.89214 0.29656 0.9638 0.0
O60 O 0.91401 0.28489 0.98453 0.0
Co61 Co 0.92236 0.31912 0.98787 0.0
O62 O 0.93067 0.30808 0.96472 0.0
C63 C 0.92152 0.30571 0.04401 0.0
C64 C 0.87447 0.26749 0.02655 0.0
C65 C 0.92626 0.29369 0.9697 0.0
O66 O 0.90823 0.2935 0.03812 0.0
O67 O 0.92896 0.31728 0.02709 0.0
O68 O 0.88496 0.28134 0.96664 0.0
O69 O 0.8999 0.30464 0.98551 0.0
Co70 Co 0.71772 0.60971 0.00385 0.0
O71 O 0.72369 0.59546 0.0202 0.0
O72 O 0.73879 0.62148 0.0181 0.0
C73 C 0.70706 0.59614 0.96415 0.0
O74 O 0.71623 0.62825 0.98856 0.0
Co75 Co 0.68307 0.60029 0.99291 0.0
O76 O 0.6924 0.61967 0.96955 0.0
C77 C 0.69675 0.61169 0.04912 0.0
C78 C 0.73709 0.60798 0.02577 0.0
C79 C 0.70647 0.63057 0.97428 0.0
O80 O 0.70955 0.6124 0.04075 0.0
O81 O 0.68454 0.60677 0.03352 0.0
O82 O 0.72223 0.60509 0.9665 0.0
O83 O 0.69899 0.59434 0.98674 0.0
Co84 Co 0.89849 0.6098 0.00326 0.0
O85 O 0.87866 0.59522 0.02062 0.0
O86 O 0.88868 0.6211 0.01729 0.0
C87 C 0.89566 0.59581 0.96423 0.0
O88 O 0.9178 0.62866 0.98682 0.0
Co89 Co 0.9248 0.60185 0.99228 0.0
O90 O 0.93491 0.62174 0.97043 0.0
C91 C 0.92179 0.61253 0.04855 0.0
C92 C 0.87734 0.60756 0.02577 0.0
C93 C 0.93057 0.63191 0.97391 0.0
O94 O 0.90982 0.61334 0.03984 0.0
O95 O 0.92931 0.60778 0.03316 0.0
O96 O 0.88883 0.60422 0.9664 0.0
O97 O 0.90261 0.5948 0.98662 0.0
Co98 Co 0.38622 0.28277 0.00079 0.0
O99 O 0.40105 0.27728 0.01595 0.0
O100 O 0.37514 0.26149 0.01448 0.0
C101 C 0.39932 0.29394 0.96091 0.0
O102 O 0.36721 0.28383 0.9868 0.0
Co103 Co 0.39484 0.31734 0.9913 0.0
O104 O 0.37486 0.3079 0.96977 0.0
C105 C 0.38473 0.30326 0.0476 0.0
C106 C 0.38889 0.26361 0.02146 0.0
C107 C 0.36426 0.29365 0.97416 0.0
O108 O 0.38377 0.2905 0.03835 0.0
O109 O 0.38933 0.3156 0.03245 0.0
O110 O 0.39061 0.27872 0.96293 0.0
O111 O 0.40113 0.30179 0.98379 0.0
Co112 Co 0.71564 0.10677 0.00084 0.0
O113 O 0.72043 0.12626 0.01885 0.0
O114 O 0.73712 0.11738 0.01344 0.0
C115 C 0.70341 0.10932 0.96297 0.0
O116 O 0.71541 0.08773 0.98337 0.0
Co117 Co 0.68137 0.07997 0.99148 0.0
O118 O 0.6914 0.07161 0.96581 0.0
C119 C 0.69639 0.08294 0.04654 0.0
C120 C 0.73448 0.12833 0.02266 0.0
C121 C 0.70581 0.07557 0.96907 0.0
O122 O 0.70885 0.09516 0.03745 0.0
O123 O 0.68384 0.07539 0.03185 0.0
O124 O 0.71869 0.11655 0.96415 0.0
O125 O 0.69608 0.10218 0.98569 0.0
Co126 Co 0.61111 0.89679 0.99657 0.0
O127 O 0.59742 0.87631 0.98066 0.0
O128 O 0.6235 0.88803 0.98295 0.0
C129 C 0.59737 0.89376 0.03606 0.0
O130 O 0.62918 0.91723 0.01162 0.0
Co131 Co 0.60048 0.92122 0.00581 0.0
O132 O 0.61974 0.93205 0.02926 0.0
C133 C 0.6118 0.91853 0.94994 0.0
C134 C 0.61023 0.87592 0.97534 0.0
C135 C 0.63102 0.92934 0.02525 0.0
O136 O 0.61337 0.90709 0.95926 0.0
O137 O 0.60651 0.92573 0.96492 0.0
O138 O 0.60672 0.88797 0.03408 0.0
O139 O 0.59528 0.89965 0.01321 0.0
Co140 Co 0.10057 0.71437 0.99526 0.0
O141 O 0.12042 0.7192 0.97873 0.0
O142 O 0.11113 0.73567 0.98169 0.0
C143 C 0.1027 0.70294 0.03461 0.0
O144 O 0.08119 0.71413 0.0109 0.0
Co145 Co 0.07401 0.68012 0.00534 0.0
O146 O 0.06414 0.69009 0.02737 0.0
C147 C 0.07722 0.69452 0.94954 0.0
C148 C 0.12238 0.73313 0.97391 0.0
C149 C 0.06839 0.70457 0.02372 0.0
O150 O 0.08955 0.70697 0.9583 0.0
O151 O 0.0695 0.68219 0.96473 0.0
O152 O 0.10971 0.71818 0.03248 0.0
O153 O 0.09609 0.69512 0.01193 0.0
Co154 Co 0.27924 0.38602 0.00132 0.0
O155 O 0.27313 0.40002 0.98424 0.0
O156 O 0.25786 0.37413 0.98871 0.0
C157 C 0.29089 0.40067 0.03957 0.0
O158 O 0.28075 0.36773 0.01784 0.0
Co159 Co 0.31397 0.39514 0.01017 0.0
O160 O 0.30499 0.37638 0.03503 0.0
C161 C 0.29926 0.3833 0.95485 0.0
C162 C 0.25953 0.38746 0.98011 0.0
C163 C 0.29073 0.36556 0.03174 0.0
O164 O 0.28651 0.3823 0.96427 0.0
O165 O 0.31186 0.38858 0.96951 0.0
O166 O 0.27566 0.39186 0.03838 0.0
O167 O 0.29846 0.40162 0.01671 0.0
Co168 Co 0.76611 0.71911 0.32521 0.0
O169 O 0.78661 0.73414 0.3109 0.0
O170 O 0.77672 0.70826 0.31238 0.0
C171 C 0.76721 0.73197 0.36498 0.0
O172 O 0.74599 0.6999 0.3385 0.0
Co173 Co 0.7397 0.72737 0.33291 0.0
O174 O 0.72886 0.70714 0.35366 0.0
C175 C 0.74474 0.71756 0.27713 0.0
C176 C 0.78839 0.72207 0.30592 0.0
C177 C 0.7329 0.69675 0.3501 0.0
O178 O 0.7564 0.71659 0.28715 0.0
O179 O 0.73676 0.72213 0.29165 0.0
O180 O 0.77407 0.72357 0.36339 0.0
O181 O 0.76139 0.73373 0.34176 0.0
Co182 Co 0.27814 0.04516 0.32347 0.0
O183 O 0.26277 0.05052 0.31049 0.0
O184 O 0.28869 0.06612 0.30837 0.0
C185 C 0.26682 0.0349 0.36506 0.0
O186 O 0.29769 0.04434 0.33465 0.0
Co187 Co 0.27001 0.01082 0.3345 0.0
O188 O 0.29112 0.02064 0.35234 0.0
C189 C 0.27741 0.02351 0.27679 0.0
C190 C 0.27474 0.06405 0.30348 0.0
C191 C 0.30134 0.03484 0.34656 0.0
O192 O 0.27885 0.03654 0.28571 0.0
O193 O 0.27348 0.01156 0.29268 0.0
O194 O 0.27545 0.05005 0.36184 0.0
O195 O 0.26401 0.02653 0.34252 0.0
Co196 Co 0.9515 0.2313 0.3217 0.0
O197 O 0.94596 0.21089 0.30682 0.0
O198 O 0.93026 0.22114 0.30774 0.0
C199 C 0.96237 0.22936 0.36204 0.0
O200 O 0.95259 0.25142 0.33567 0.0
Co201 Co 0.98618 0.25702 0.33216 0.0
O202 O 0.97659 0.26753 0.35341 0.0
C203 C 0.97256 0.25315 0.27535 0.0
C204 C 0.93226 0.20936 0.30136 0.0
C205 C 0.96238 0.26398 0.34887 0.0
O206 O 0.95955 0.24148 0.28412 0.0
O207 O 0.98475 0.26065 0.29093 0.0
O208 O 0.94719 0.22286 0.3596 0.0
O209 O 0.97036 0.2353 0.33927 0.0
Co210 Co 0.05908 0.43818 0.35004 0.0
O211 O 0.07381 0.45793 0.36736 0.0
O212 O 0.04808 0.44852 0.36335 0.0
C213 C 0.07314 0.44063 0.31121 0.0
O214 O 0.0402 0.41892 0.33338 0.0
Co215 Co 0.06705 0.4117 0.33995 0.0
O216 O 0.04748 0.402 0.3172 0.0
C217 C 0.05591 0.41486 0.39573 0.0
C218 C 0.06171 0.45975 0.37176 0.0
C219 C 0.03723 0.40626 0.32027 0.0
O220 O 0.05513 0.42682 0.38676 0.0
O221 O 0.06093 0.40744 0.38071 0.0
O222 O 0.06498 0.44774 0.31309 0.0
O223 O 0.07398 0.43379 0.33385 0.0
Co224 Co 0.56171 0.62225 0.34779 0.0
O225 O 0.54257 0.61638 0.36835 0.0
O226 O 0.55266 0.6009 0.36028 0.0
C227 C 0.55705 0.63382 0.31111 0.0
O228 O 0.58034 0.62328 0.32722 0.0
Co229 Co 0.58715 0.65672 0.33548 0.0
O230 O 0.59584 0.64731 0.30921 0.0
C231 C 0.58791 0.64186 0.38908 0.0
C232 C 0.54147 0.60265 0.3711 0.0
C233 C 0.59209 0.63293 0.31212 0.0
O234 O 0.57472 0.62958 0.38297 0.0
O235 O 0.59484 0.65395 0.37312 0.0
O236 O 0.55049 0.61859 0.31259 0.0
O237 O 0.56482 0.64151 0.33316 0.0
Co238 Co 0.37708 0.93573 0.35135 0.0
O239 O 0.38085 0.92066 0.37087 0.0
O240 O 0.39843 0.94589 0.3644 0.0
C241 C 0.36463 0.92075 0.31381 0.0
O242 O 0.37812 0.95477 0.33238 0.0
Co243 Co 0.3436 0.93014 0.33972 0.0
O244 O 0.35464 0.94833 0.31377 0.0
C245 C 0.35858 0.94292 0.39464 0.0
C246 C 0.39514 0.93226 0.37446 0.0
C247 C 0.36925 0.958 0.31728 0.0
O248 O 0.37055 0.94178 0.38695 0.0
O249 O 0.34631 0.93836 0.37932 0.0
O250 O 0.37989 0.92804 0.31546 0.0
O251 O 0.35735 0.92131 0.33606 0.0
Co252 Co 0.55746 0.93787 0.34804 0.0
O253 O 0.53757 0.92216 0.36353 0.0
O254 O 0.54633 0.94786 0.36252 0.0
C255 C 0.55609 0.92531 0.30773 0.0
O256 O 0.57677 0.95762 0.334 0.0
Co257 Co 0.58474 0.93128 0.3368 0.0
O258 O 0.59448 0.95174 0.31664 0.0
C259 C 0.58089 0.94129 0.3934 0.0
C260 C 0.53526 0.93381 0.36944 0.0
C261 C 0.58984 0.96156 0.3215 0.0
O262 O 0.56821 0.9409 0.38517 0.0
O263 O 0.58898 0.93739 0.37763 0.0
O264 O 0.54875 0.9332 0.31035 0.0
O265 O 0.56259 0.92385 0.33032 0.0
Co266 Co 0.05654 0.61802 0.34512 0.0
O267 O 0.0715 0.613 0.36128 0.0
O268 O 0.04571 0.59672 0.35883 0.0
C269 C 0.06987 0.62934 0.30555 0.0
O270 O 0.03749 0.61862 0.32984 0.0
Co271 Co 0.06485 0.65257 0.33539 0.0
O272 O 0.045 0.64282 0.31341 0.0
C273 C 0.05389 0.63824 0.39126 0.0
C274 C 0.0595 0.59915 0.3664 0.0
C275 C 0.03457 0.62842 0.317 0.0
O276 O 0.05329 0.62559 0.38224 0.0
O277 O 0.05873 0.65065 0.3762 0.0
O278 O 0.06157 0.6141 0.30766 0.0
O279 O 0.07134 0.63714 0.32835 0.0
Co280 Co 0.37823 0.43984 0.34511 0.0
O281 O 0.38537 0.46003 0.36271 0.0
O282 O 0.40002 0.44896 0.35503 0.0
C283 C 0.3654 0.44301 0.30884 0.0
O284 O 0.37559 0.4198 0.32746 0.0
Co285 Co 0.34286 0.41495 0.34033 0.0
O286 O 0.35041 0.40413 0.31481 0.0
C287 C 0.35985 0.41703 0.39268 0.0
C288 C 0.39897 0.46079 0.36474 0.0
C289 C 0.36471 0.40735 0.3155 0.0
O290 O 0.37224 0.42881 0.38232 0.0
O291 O 0.34664 0.41004 0.37972 0.0
O292 O 0.38061 0.44925 0.30829 0.0
O293 O 0.35864 0.43663 0.33241 0.0
Co294 Co 0.27712 0.22677 0.32627 0.0
O295 O 0.26244 0.20672 0.31008 0.0
O296 O 0.28822 0.21634 0.31367 0.0
C297 C 0.26324 0.22479 0.36516 0.0
O298 O 0.29587 0.24655 0.34185 0.0
Co299 Co 0.26858 0.2529 0.33432 0.0
O300 O 0.2871 0.26192 0.35975 0.0
C301 C 0.28053 0.24957 0.2794 0.0
C302 C 0.27455 0.20493 0.30576 0.0
C303 C 0.29798 0.25858 0.35611 0.0
O304 O 0.28082 0.23744 0.28888 0.0
O305 O 0.27559 0.25726 0.29388 0.0
O306 O 0.27164 0.21794 0.36376 0.0
O307 O 0.26202 0.23104 0.34202 0.0
Co308 Co 0.76887 0.04789 0.32523 0.0
O309 O 0.78928 0.05347 0.31026 0.0
O310 O 0.77929 0.06937 0.31255 0.0
C311 C 0.77039 0.03611 0.36465 0.0
O312 O 0.74882 0.04683 0.33937 0.0
Co313 Co 0.74257 0.01336 0.33335 0.0
O314 O 0.73276 0.02281 0.35706 0.0
C315 C 0.74689 0.02832 0.27774 0.0
C316 C 0.79095 0.0673 0.30558 0.0
C317 C 0.73644 0.03709 0.35301 0.0
O318 O 0.75887 0.04078 0.28743 0.0
O319 O 0.73891 0.01582 0.2924 0.0
O320 O 0.77711 0.05135 0.36314 0.0
O321 O 0.76443 0.02854 0.34146 0.0
Co322 Co 0.95005 0.72019 0.32353 0.0
O323 O 0.94423 0.73478 0.30828 0.0
O324 O 0.92854 0.70888 0.31089 0.0
C325 C 0.96173 0.73372 0.3628 0.0
O326 O 0.95146 0.70145 0.3381 0.0
Co327 Co 0.98499 0.72946 0.33144 0.0
O328 O 0.97602 0.70957 0.35327 0.0
C329 C 0.97004 0.71843 0.276 0.0
C330 C 0.93045 0.72255 0.30378 0.0
C331 C 0.96168 0.69886 0.35022 0.0
O332 O 0.95728 0.71724 0.28581 0.0
O333 O 0.98271 0.72367 0.29044 0.0
O334 O 0.9465 0.72504 0.36139 0.0
O335 O 0.96925 0.73536 0.33957 0.0
Co336 Co 0.43732 0.06145 0.65287 0.0
O337 O 0.45718 0.07567 0.63515 0.0
O338 O 0.44706 0.04985 0.63993 0.0
C339 C 0.44016 0.07598 0.69119 0.0
O340 O 0.41799 0.04296 0.67014 0.0
Co341 Co 0.41123 0.06993 0.66243 0.0
O342 O 0.40122 0.05055 0.68571 0.0
C343 C 0.41402 0.05819 0.60705 0.0
C344 C 0.45847 0.06323 0.63099 0.0
C345 C 0.40539 0.0402 0.68318 0.0
O346 O 0.4259 0.05733 0.6162 0.0
O347 O 0.40671 0.06343 0.62184 0.0
O348 O 0.44704 0.06759 0.68965 0.0
O349 O 0.43333 0.07675 0.66847 0.0
Co350 Co 0.93763 0.38001 0.65274 0.0
O351 O 0.92225 0.38397 0.63508 0.0
O352 O 0.94785 0.40104 0.6379 0.0
C353 C 0.92407 0.36893 0.69226 0.0
O354 O 0.95706 0.3807 0.66916 0.0
Co355 Co 0.93123 0.34641 0.66612 0.0
O356 O 0.95063 0.35756 0.68929 0.0
C357 C 0.94219 0.35976 0.60943 0.0
C358 C 0.93396 0.39795 0.62959 0.0
C359 C 0.96053 0.37193 0.68405 0.0
O360 O 0.94166 0.37213 0.61667 0.0
O361 O 0.93803 0.34793 0.62574 0.0
O362 O 0.93191 0.38416 0.6895 0.0
O363 O 0.92332 0.36091 0.67016 0.0
Co364 Co 0.62118 0.56085 0.65547 0.0
O365 O 0.61522 0.54094 0.63763 0.0
O366 O 0.59987 0.55146 0.64263 0.0
C367 C 0.63271 0.55767 0.69381 0.0
O368 O 0.62235 0.58027 0.67298 0.0
Co369 Co 0.65579 0.58651 0.66551 0.0
O370 O 0.64662 0.59651 0.68937 0.0
C371 C 0.64136 0.58427 0.61006 0.0
C372 C 0.6016 0.53992 0.63358 0.0
C373 C 0.63219 0.59262 0.68658 0.0
O374 O 0.62857 0.57231 0.61876 0.0
O375 O 0.6538 0.59142 0.62514 0.0
O376 O 0.61747 0.55109 0.69223 0.0
O377 O 0.64036 0.56442 0.67108 0.0
Co378 Co 0.71765 0.76462 0.67696 0.0
O379 O 0.73275 0.78481 0.69239 0.0
O380 O 0.70696 0.77536 0.68982 0.0
C381 C 0.73096 0.76605 0.63761 0.0
O382 O 0.69842 0.74496 0.6624 0.0
Co383 Co 0.72526 0.73781 0.66845 0.0
O384 O 0.70531 0.72765 0.64681 0.0
C385 C 0.71512 0.7424 0.72427 0.0
C386 C 0.72076 0.78678 0.69704 0.0
C387 C 0.69513 0.73198 0.65021 0.0
O388 O 0.71442 0.75428 0.71459 0.0
O389 O 0.7197 0.73448 0.70958 0.0
O390 O 0.7228 0.77316 0.63919 0.0
O391 O 0.73222 0.75976 0.66065 0.0
Co392 Co 0.23075 0.94985 0.67639 0.0
O393 O 0.21018 0.94419 0.69046 0.0
O394 O 0.22025 0.92833 0.68899 0.0
C395 C 0.22966 0.96164 0.63668 0.0
O396 O 0.25105 0.9511 0.66317 0.0
Co397 Co 0.25674 0.98468 0.66934 0.0
O398 O 0.26766 0.97558 0.64789 0.0
C399 C 0.25181 0.96956 0.72483 0.0
C400 C 0.20849 0.93037 0.69536 0.0
C401 C 0.26395 0.96123 0.65128 0.0
O402 O 0.24027 0.95694 0.71456 0.0
O403 O 0.2597 0.98222 0.71055 0.0
O404 O 0.22301 0.9464 0.6381 0.0
O405 O 0.2352 0.96914 0.66006 0.0
Co406 Co 0.04613 0.27955 0.67498 0.0
O407 O 0.05107 0.26412 0.68931 0.0
O408 O 0.06723 0.28998 0.68942 0.0
C409 C 0.03523 0.26738 0.63426 0.0
O410 O 0.04579 0.29912 0.66221 0.0
Co411 Co 0.01192 0.27198 0.66435 0.0
O412 O 0.022 0.29278 0.64528 0.0
C413 C 0.02542 0.28093 0.72136 0.0
C414 C 0.06481 0.27601 0.6955 0.0
C415 C 0.03636 0.30285 0.65024 0.0
O416 O 0.03811 0.28157 0.71253 0.0
O417 O 0.01333 0.27681 0.70574 0.0
O418 O 0.05043 0.27571 0.63689 0.0
O419 O 0.02718 0.26532 0.65696 0.0
Co420 Co 0.22683 0.2779 0.67243 0.0
O421 O 0.20665 0.26312 0.688 0.0
O422 O 0.21634 0.28895 0.685 0.0
C423 C 0.22518 0.2643 0.63334 0.0
O424 O 0.24676 0.29675 0.65753 0.0
Co425 Co 0.25293 0.26929 0.66501 0.0
O426 O 0.26224 0.28802 0.64006 0.0
C427 C 0.24901 0.28067 0.72004 0.0
C428 C 0.20487 0.27522 0.69256 0.0
C429 C 0.25891 0.29892 0.64363 0.0
O430 O 0.23712 0.28124 0.71012 0.0
O431 O 0.25681 0.27579 0.70574 0.0
O432 O 0.21836 0.27275 0.63464 0.0
O433 O 0.23118 0.26288 0.65662 0.0
Co434 Co 0.71877 0.94801 0.67325 0.0
O435 O 0.73353 0.94222 0.68771 0.0
O436 O 0.7076 0.92657 0.68624 0.0
C437 C 0.73179 0.95951 0.63343 0.0
O438 O 0.69985 0.94943 0.65987 0.0
Co439 Co 0.72784 0.98286 0.66507 0.0
O440 O 0.70777 0.97378 0.6438 0.0
C441 C 0.71703 0.96799 0.72074 0.0
C442 C 0.72133 0.9285 0.6928 0.0
C443 C 0.69706 0.95953 0.64784 0.0
O444 O 0.71632 0.95538 0.71118 0.0
O445 O 0.72183 0.98052 0.70602 0.0
O446 O 0.72306 0.94429 0.63508 0.0
O447 O 0.73375 0.96715 0.65664 0.0
Co448 Co 0.04612 0.76794 0.67457 0.0
O449 O 0.05217 0.78878 0.68793 0.0
O450 O 0.0672 0.77778 0.68909 0.0
C451 C 0.03574 0.76951 0.63344 0.0
O452 O 0.04452 0.74729 0.66279 0.0
Co453 Co 0.01139 0.74258 0.66423 0.0
O454 O 0.02049 0.7308 0.64566 0.0
C455 C 0.02459 0.7472 0.72149 0.0
C456 C 0.06559 0.78991 0.69438 0.0
C457 C 0.03461 0.73429 0.65094 0.0
O458 O 0.03767 0.75862 0.7124 0.0
O459 O 0.01244 0.73952 0.70588 0.0
O460 O 0.05087 0.7756 0.63625 0.0
O461 O 0.02752 0.7641 0.65616 0.0
Co462 Co 0.93569 0.55759 0.65143 0.0
O463 O 0.92063 0.53847 0.6327 0.0
O464 O 0.9461 0.54677 0.63758 0.0
C465 C 0.92128 0.55494 0.68987 0.0
O466 O 0.95479 0.57603 0.66936 0.0
Co467 Co 0.92935 0.58497 0.66355 0.0
O468 O 0.94787 0.59254 0.68879 0.0
C469 C 0.94102 0.58255 0.60768 0.0
C470 C 0.93241 0.53614 0.62824 0.0
C471 C 0.95785 0.58804 0.68461 0.0
O472 O 0.94065 0.56981 0.61552 0.0
O473 O 0.93653 0.59019 0.62336 0.0
O474 O 0.92892 0.54731 0.6877 0.0
O475 O 0.92118 0.5625 0.66767 0.0
Co476 Co 0.43929 0.37902 0.65205 0.0
O477 O 0.45935 0.38532 0.63473 0.0
O478 O 0.44833 0.40027 0.6388 0.0
C479 C 0.44265 0.36796 0.6908 0.0
O480 O 0.41942 0.3772 0.66889 0.0
Co481 Co 0.41442 0.34409 0.66183 0.0
O482 O 0.40472 0.35303 0.68699 0.0
C483 C 0.4162 0.35841 0.60654 0.0
C484 C 0.46012 0.39878 0.63027 0.0
C485 C 0.40763 0.36713 0.68342 0.0
O486 O 0.4281 0.37124 0.6153 0.0
O487 O 0.40913 0.34594 0.62159 0.0
O488 O 0.44886 0.38315 0.68898 0.0
O489 O 0.43623 0.36012 0.66806 0.0
Co490 Co 0.61836 0.05954 0.6538 0.0
O491 O 0.61288 0.07386 0.63598 0.0
O492 O 0.59697 0.0481 0.64108 0.0
C493 C 0.63027 0.07431 0.69182 0.0
O494 O 0.61913 0.041 0.67109 0.0
Co495 Co 0.65277 0.06761 0.66353 0.0
O496 O 0.64316 0.04896 0.68868 0.0
C497 C 0.63795 0.05536 0.60838 0.0
C498 C 0.59908 0.06153 0.63202 0.0
C499 C 0.62878 0.0385 0.68536 0.0
O500 O 0.62544 0.05511 0.61718 0.0
O501 O 0.65043 0.06038 0.62328 0.0
O502 O 0.61501 0.06596 0.69054 0.0
O503 O 0.63776 0.0748 0.6691 0.0
C504 C 0.93688 0.2758 0.98055 0.0
C505 C 0.93775 0.28833 0.96464 0.0
C506 C 0.95035 0.27461 0.9849 0.0
C507 C 0.98148 0.28952 0.01526 0.0
H508 H 0.01863 0.30811 0.96813 0.0
C509 C 0.03746 0.34455 0.04281 0.0
C510 C 0.0517 0.34818 0.02966 0.0
C511 C 0.02413 0.32974 0.03923 0.0
C512 C 0.00843 0.30251 0.98173 0.0
H513 H 0.95257 0.30752 0.93663 0.0
H514 H 0.97593 0.30549 0.94416 0.0
H515 H 0.99271 0.29376 0.94666 0.0
H516 H 0.0637 0.33837 0.00584 0.0
H517 H 0.04038 0.31256 0.99955 0.0
H518 H 0.99716 0.29922 0.05019 0.0
C519 C 0.96501 0.2967 0.95371 0.0
C520 C 0.99354 0.29438 0.96933 0.0
C521 C 0.95159 0.29795 0.94948 0.0
C522 C 0.05285 0.33605 0.01596 0.0
C523 C 0.03947 0.32125 0.01222 0.0
C524 C 0.99636 0.29763 0.02765 0.0
C525 C 0.96482 0.2858 0.97318 0.0
C526 C 0.97991 0.28876 0.98586 0.0
C527 C 0.02478 0.31828 0.02237 0.0
C528 C 0.00993 0.30513 0.01088 0.0
H529 H 0.92632 0.26798 0.99217 0.0
H530 H 0.94977 0.26585 0.99949 0.0
H531 H 0.97125 0.28535 0.02871 0.0
H532 H 0.03623 0.35354 0.05384 0.0
H533 H 0.01302 0.32789 0.04736 0.0
C534 C 0.71752 0.65798 0.99123 0.0
C535 C 0.71009 0.64691 0.9697 0.0
C536 C 0.71587 0.67131 0.99274 0.0
C537 C 0.68464 0.6793 0.97145 0.0
H538 H 0.70617 0.7143 0.02317 0.0
C539 C 0.65925 0.71716 0.01155 0.0
C540 C 0.64739 0.70572 0.02886 0.0
C541 C 0.67271 0.71625 0.00528 0.0
C542 C 0.7002 0.7047 0.00841 0.0
H543 H 0.69753 0.6423 0.93038 0.0
H544 H 0.69574 0.66624 0.93168 0.0
H545 H 0.72037 0.7019 0.0028 0.0
H546 H 0.64159 0.6861 0.05683 0.0
H547 H 0.66516 0.68465 0.04598 0.0
H548 H 0.66446 0.6819 0.97753 0.0
C549 C 0.70194 0.66419 0.94845 0.0
C550 C 0.70823 0.69753 0.99682 0.0
C551 C 0.70312 0.65055 0.94745 0.0
C552 C 0.65039 0.69494 0.04314 0.0
C553 C 0.66391 0.69415 0.03707 0.0
C554 C 0.67677 0.68652 0.98271 0.0
C555 C 0.70705 0.67397 0.97236 0.0
C556 C 0.70033 0.6843 0.97905 0.0
C557 C 0.67459 0.70413 0.01674 0.0
C558 C 0.68428 0.69884 0.002 0.0
H559 H 0.723 0.65546 0.00869 0.0
H560 H 0.72007 0.6785 0.01145 0.0
H561 H 0.67791 0.66903 0.95841 0.0
H562 H 0.65737 0.72569 0.0003 0.0
H563 H 0.68076 0.72394 0.98934 0.0
C564 C 0.34464 0.04757 0.94415 0.0
C565 C 0.34824 0.05888 0.96517 0.0
C566 C 0.33099 0.03285 0.94611 0.0
C567 C 0.2974 0.00725 0.99497 0.0
H568 H 0.31445 0.97944 0.98394 0.0
C569 C 0.29972 0.95304 0.04848 0.0
C570 C 0.28954 0.93922 0.0337 0.0
C571 C 0.30035 0.96722 0.04179 0.0
C572 C 0.30945 0.98703 0.98686 0.0
H573 H 0.33937 0.06459 0.00237 0.0
H574 H 0.31618 0.03882 0.0067 0.0
H575 H 0.32728 0.00509 0.9621 0.0
H576 H 0.27017 0.9289 0.00395 0.0
H577 H 0.27161 0.95379 0.992 0.0
H578 H 0.28012 0.989 0.02161 0.0
C579 C 0.32353 0.04118 0.98835 0.0
C580 C 0.31665 0.00171 0.97399 0.0
C581 C 0.33693 0.05606 0.98589 0.0
C582 C 0.27825 0.93936 0.01558 0.0
C583 C 0.279 0.9536 0.00872 0.0
C584 C 0.29019 0.99243 0.00807 0.0
C585 C 0.3211 0.02902 0.96974 0.0
C586 C 0.31104 0.01226 0.97843 0.0
C587 C 0.29079 0.96772 0.02038 0.0
C588 C 0.29652 0.98249 0.00462 0.0
H589 H 0.35306 0.04956 0.92768 0.0
H590 H 0.32909 0.02397 0.93065 0.0
H591 H 0.29267 0.01498 0.99865 0.0
H592 H 0.30842 0.95328 0.06282 0.0
H593 H 0.30958 0.97804 0.05093 0.0
C594 C 0.04271 0.69951 0.04353 0.0
C595 C 0.05648 0.70941 0.02845 0.0
C596 C 0.02918 0.70063 0.03978 0.0
C597 C 0.01196 0.70815 0.97968 0.0
H598 H 0.97549 0.68921 0.02843 0.0
C599 C 0.95629 0.65265 0.95425 0.0
C600 C 0.94223 0.64866 0.96847 0.0
C601 C 0.96939 0.66768 0.9571 0.0
C602 C 0.98548 0.69492 0.0144 0.0
H603 H 0.0676 0.72985 0.0011 0.0
H604 H 0.04393 0.73172 0.99454 0.0
H605 H 0.00168 0.70363 0.04878 0.0
H606 H 0.93019 0.65803 0.99333 0.0
H607 H 0.95312 0.68424 0.99835 0.0
H608 H 0.9958 0.69849 0.94538 0.0
C609 C 0.04352 0.72293 0.00885 0.0
C610 C 0.00053 0.70308 0.02615 0.0
C611 C 0.05711 0.72188 0.01275 0.0
C612 C 0.94092 0.66063 0.98242 0.0
C613 C 0.95408 0.67566 0.98542 0.0
C614 C 0.99691 0.70002 0.96792 0.0
C615 C 0.02916 0.71163 0.0208 0.0
C616 C 0.01393 0.70877 0.00899 0.0
C617 C 0.9687 0.679 0.97429 0.0
C618 C 0.98359 0.69235 0.98525 0.0
H619 H 0.04192 0.68994 0.05614 0.0
H620 H 0.01835 0.69172 0.04941 0.0
H621 H 0.022 0.71242 0.96576 0.0
H622 H 0.95762 0.64378 0.94298 0.0
H623 H 0.98045 0.66981 0.94819 0.0
C624 C 0.34405 0.29989 0.95655 0.0
C625 C 0.34766 0.28975 0.97156 0.0
C626 C 0.3306 0.30069 0.96325 0.0
C627 C 0.32035 0.31071 0.0172 0.0
H628 H 0.27534 0.29305 0.00811 0.0
C629 C 0.29514 0.34627 0.05858 0.0
C630 C 0.28699 0.34927 0.03753 0.0
C631 C 0.29635 0.33267 0.05743 0.0
C632 C 0.28789 0.29803 0.01105 0.0
H633 H 0.33865 0.2706 0.00179 0.0
H634 H 0.31538 0.27234 0.01379 0.0
H635 H 0.28861 0.28021 0.98554 0.0
H636 H 0.27184 0.33946 0.00121 0.0
H637 H 0.27468 0.31634 0.99822 0.0
H638 H 0.32032 0.329 0.04085 0.0
C639 C 0.3229 0.27956 0.99687 0.0
C640 C 0.29541 0.29066 0.99816 0.0
C641 C 0.3363 0.27865 0.99 0.0
C642 C 0.2783 0.33749 0.01765 0.0
C643 C 0.2799 0.32413 0.01599 0.0
C644 C 0.31296 0.31804 0.02989 0.0
C645 C 0.32063 0.29134 0.98493 0.0
C646 C 0.31176 0.29731 0.00057 0.0
C647 C 0.28997 0.32222 0.03457 0.0
C648 C 0.2967 0.31212 0.02638 0.0
H649 H 0.35245 0.30842 0.94194 0.0
H650 H 0.32903 0.30989 0.95388 0.0
H651 H 0.33301 0.31594 0.01937 0.0
H652 H 0.30171 0.35505 0.07444 0.0
H653 H 0.30363 0.3312 0.07285 0.0
C654 C 0.65953 0.94416 0.01262 0.0
C655 C 0.6472 0.94248 0.0301 0.0
C656 C 0.67275 0.95902 0.00834 0.0
C657 C 0.69923 0.99536 0.00437 0.0
H658 H 0.67534 0.01449 0.9771 0.0
C659 C 0.71931 0.06082 0.98265 0.0
C660 C 0.71006 0.06338 0.9631 0.0
C661 C 0.7174 0.04576 0.9858 0.0
C662 C 0.68221 0.00924 0.98414 0.0
H663 H 0.64041 0.95428 0.06088 0.0
H664 H 0.66349 0.98014 0.05349 0.0
H665 H 0.66178 0.98919 0.00031 0.0
H666 H 0.69426 0.05337 0.92771 0.0
H667 H 0.69129 0.02726 0.93269 0.0
H668 H 0.71982 0.01599 0.98863 0.0
C669 C 0.66279 0.97007 0.04269 0.0
C670 C 0.67446 0.99489 0.99795 0.0
C671 C 0.64956 0.95528 0.04683 0.0
C672 C 0.70129 0.05161 0.9433 0.0
C673 C 0.69958 0.03666 0.94619 0.0
C674 C 0.70713 0.01007 0.99086 0.0
C675 C 0.67377 0.97224 0.02172 0.0
C676 C 0.68285 0.98787 0.00843 0.0
C677 C 0.70639 0.03329 0.96917 0.0
C678 C 0.69861 0.01707 0.98053 0.0
H679 H 0.65816 0.93447 0.99964 0.0
H680 H 0.6811 0.96043 0.99212 0.0
H681 H 0.70586 0.98999 0.012 0.0
H682 H 0.7263 0.06972 0.99806 0.0
H683 H 0.7229 0.04351 0.00354 0.0
C684 C 0.70708 0.67623 0.36942 0.0
C685 C 0.72052 0.68008 0.35333 0.0
C686 C 0.69316 0.66203 0.36497 0.0
C687 C 0.66389 0.63148 0.3508 0.0
H688 H 0.65699 0.63392 0.27129 0.0
C689 C 0.603 0.6147 0.3149 0.0
C690 C 0.60367 0.62824 0.30332 0.0
C691 C 0.61637 0.61306 0.31502 0.0
C692 C 0.65871 0.63279 0.29343 0.0
H693 H 0.73056 0.67117 0.32275 0.0
H694 H 0.70617 0.64641 0.31486 0.0
H695 H 0.68374 0.64562 0.28923 0.0
H696 H 0.61801 0.64929 0.27874 0.0
H697 H 0.64122 0.64651 0.27908 0.0
H698 H 0.63894 0.62011 0.35545 0.0
C699 C 0.70637 0.65443 0.3307 0.0
C700 C 0.67406 0.63937 0.30374 0.0
C701 C 0.72037 0.66859 0.33538 0.0
C702 C 0.61718 0.63887 0.28831 0.0
C703 C 0.63051 0.63719 0.28834 0.0
C704 C 0.64855 0.62491 0.34051 0.0
C705 C 0.69241 0.65147 0.34419 0.0
C706 C 0.6768 0.6397 0.33278 0.0
C707 C 0.63057 0.62486 0.30338 0.0
C708 C 0.64586 0.62644 0.31197 0.0
H709 H 0.7069 0.68478 0.38361 0.0
H710 H 0.68263 0.66016 0.37573 0.0
H711 H 0.66565 0.63137 0.37322 0.0
H712 H 0.59268 0.60612 0.32625 0.0
H713 H 0.61598 0.60326 0.32627 0.0
C714 C 0.38174 0.9858 0.33198 0.0
C715 C 0.37483 0.97461 0.31055 0.0
C716 C 0.38201 0.00014 0.33027 0.0
C717 C 0.35792 0.01446 0.29378 0.0
H718 H 0.37512 0.04504 0.35409 0.0
C719 C 0.32824 0.04883 0.32592 0.0
C720 C 0.31808 0.03915 0.34727 0.0
C721 C 0.34205 0.04856 0.31982 0.0
C722 C 0.37049 0.03682 0.33675 0.0
H723 H 0.36508 0.97039 0.26871 0.0
H724 H 0.3672 0.99614 0.2641 0.0
H725 H 0.3886 0.03085 0.34003 0.0
H726 H 0.31548 0.02346 0.38145 0.0
H727 H 0.33993 0.02345 0.37131 0.0
H728 H 0.33997 0.0207 0.2905 0.0
C729 C 0.37121 0.9935 0.28339 0.0
C730 C 0.37801 0.02843 0.32889 0.0
C731 C 0.37026 0.97881 0.28568 0.0
C732 C 0.32306 0.03096 0.36483 0.0
C733 C 0.33707 0.03103 0.35914 0.0
C734 C 0.35083 0.02325 0.30091 0.0
C735 C 0.37578 0.00382 0.30663 0.0
C736 C 0.3712 0.01629 0.30861 0.0
C737 C 0.34611 0.03904 0.33556 0.0
C738 C 0.35655 0.03383 0.3234 0.0
H739 H 0.38529 0.9828 0.35149 0.0
H740 H 0.38571 0.00748 0.34879 0.0
H741 H 0.35199 0.00533 0.27825 0.0
H742 H 0.32471 0.05522 0.31192 0.0
H743 H 0.34878 0.05466 0.30135 0.0
C744 C 0.94655 0.27688 0.33744 0.0
C745 C 0.95817 0.27633 0.35393 0.0
C746 C 0.94599 0.29084 0.33538 0.0
C747 C 0.96166 0.32406 0.31243 0.0
H748 H 0.97888 0.35733 0.36802 0.0
C749 C 0.01723 0.38147 0.29694 0.0
C750 C 0.02066 0.3946 0.31364 0.0
C751 C 0.0023 0.36808 0.29777 0.0
C752 C 0.97367 0.34825 0.35212 0.0
H753 H 0.97672 0.28912 0.38431 0.0
H754 H 0.97581 0.31332 0.38075 0.0
H755 H 0.96407 0.33003 0.38313 0.0
H756 H 0.01055 0.40481 0.34135 0.0
H757 H 0.98448 0.38136 0.34282 0.0
H758 H 0.97213 0.34226 0.28149 0.0
C759 C 0.96716 0.30314 0.3692 0.0
C760 C 0.96529 0.33256 0.36085 0.0
C761 C 0.96779 0.28926 0.3711 0.0
C762 C 0.00833 0.39481 0.32842 0.0
C763 C 0.9934 0.38134 0.3294 0.0
C764 C 0.97 0.33976 0.30369 0.0
C765 C 0.95694 0.30439 0.34998 0.0
C766 C 0.9602 0.3203 0.34117 0.0
C767 C 0.99052 0.36753 0.31541 0.0
C768 C 0.97705 0.35195 0.32351 0.0
H769 H 0.93886 0.26706 0.3241 0.0
H770 H 0.93781 0.29137 0.32075 0.0
H771 H 0.95787 0.31494 0.29663 0.0
H772 H 0.02642 0.38102 0.28504 0.0
H773 H 0.00057 0.35767 0.28673 0.0
C774 C 0.61466 0.98354 0.30143 0.0
C775 C 0.60165 0.97848 0.3194 0.0
C776 C 0.6284 0.99788 0.30629 0.0
C777 C 0.65027 0.01314 0.36402 0.0
H778 H 0.67944 0.05054 0.32287 0.0
C779 C 0.71495 0.03651 0.38196 0.0
C780 C 0.72403 0.04109 0.35744 0.0
C781 C 0.70054 0.03621 0.38273 0.0
C782 C 0.67155 0.04007 0.33458 0.0
H783 H 0.5922 0.98528 0.3545 0.0
H784 H 0.61647 0.00996 0.36358 0.0
H785 H 0.65176 0.03599 0.30902 0.0
H786 H 0.72595 0.05008 0.31532 0.0
H787 H 0.70056 0.04834 0.31552 0.0
H788 H 0.66972 0.01551 0.38722 0.0
C789 C 0.61587 0.00301 0.34545 0.0
C790 C 0.65564 0.03193 0.32682 0.0
C791 C 0.60199 0.98886 0.34018 0.0
C792 C 0.71916 0.0466 0.33458 0.0
C793 C 0.70447 0.04563 0.33485 0.0
C794 C 0.66617 0.02086 0.37111 0.0
C795 C 0.62938 0.00719 0.32943 0.0
C796 C 0.64504 0.01815 0.34099 0.0
C797 C 0.69449 0.03955 0.3584 0.0
C798 C 0.67726 0.03407 0.35569 0.0
H799 H 0.6147 0.97579 0.28524 0.0
H800 H 0.63878 0.00083 0.29389 0.0
H801 H 0.64225 0.0024 0.37505 0.0
H802 H 0.71861 0.03238 0.39996 0.0
H803 H 0.69373 0.0323 0.40187 0.0
C804 C 0.96771 0.67931 0.37193 0.0
C805 C 0.95765 0.68239 0.35558 0.0
C806 C 0.96709 0.66479 0.37002 0.0
C807 C 0.96024 0.63757 0.31394 0.0
H808 H 0.97811 0.62171 0.36865 0.0
C809 C 0.01455 0.63363 0.29484 0.0
C810 C 0.01798 0.6239 0.31147 0.0
C811 C -0.00012 0.63265 0.2967 0.0
C812 C 0.97271 0.62553 0.35303 0.0
H813 H 0.93766 0.67199 0.32717 0.0
H814 H 0.93664 0.64665 0.32379 0.0
H815 H 0.96407 0.63489 0.38448 0.0
H816 H 0.00801 0.60405 0.3402 0.0
H817 H 0.98238 0.60238 0.34345 0.0
H818 H 0.96974 0.62908 0.28248 0.0
C819 C 0.94514 0.65552 0.33781 0.0
C820 C 0.96478 0.63324 0.36217 0.0
C821 C 0.94568 0.67003 0.33991 0.0
C822 C 0.0058 0.61184 0.32728 0.0
C823 C 0.99112 0.61092 0.32929 0.0
C824 C 0.96813 0.62982 0.3048 0.0
C825 C 0.95643 0.65309 0.35159 0.0
C826 C 0.95942 0.64028 0.34272 0.0
C827 C 0.98836 0.62195 0.31532 0.0
C828 C 0.97539 0.62469 0.32424 0.0
H829 H 0.97694 0.68853 0.38445 0.0
H830 H 0.97601 0.66339 0.38091 0.0
H831 H 0.95623 0.6428 0.29832 0.0
H832 H 0.02363 0.64291 0.28218 0.0
H833 H 0.99822 0.64137 0.28563 0.0
C834 C 0.35666 0.38136 0.29348 0.0
C835 C 0.36783 0.39442 0.30884 0.0
C836 C 0.35563 0.36674 0.29671 0.0
C837 C 0.36881 0.34135 0.32532 0.0
H838 H 0.32903 0.32263 0.36529 0.0
C839 C 0.32563 0.27545 0.3407 0.0
C840 C 0.31418 0.27127 0.36177 0.0
C841 C 0.33828 0.29087 0.33916 0.0
C842 C 0.34034 0.32772 0.35486 0.0
H843 H 0.38837 0.403 0.33582 0.0
H844 H 0.38636 0.3773 0.34164 0.0
H845 H 0.33988 0.34883 0.34604 0.0
H846 H 0.30848 0.27874 0.40057 0.0
H847 H 0.33103 0.30539 0.39882 0.0
H848 H 0.36889 0.31978 0.33347 0.0
C849 C 0.37844 0.37843 0.32719 0.0
C850 C 0.3464 0.34265 0.34339 0.0
C851 C 0.37953 0.39313 0.32385 0.0
C852 C 0.31703 0.28179 0.3839 0.0
C853 C 0.32989 0.29707 0.38273 0.0
C854 C 0.36262 0.32615 0.33666 0.0
C855 C 0.36579 0.365 0.31526 0.0
C856 C 0.36044 0.34944 0.328 0.0
C857 C 0.33972 0.30215 0.35896 0.0
C858 C 0.34817 0.3191 0.35123 0.0
H859 H 0.34764 0.38204 0.28141 0.0
H860 H 0.34582 0.35647 0.28722 0.0
H861 H 0.37979 0.34653 0.31376 0.0
H862 H 0.32372 0.26753 0.32338 0.0
H863 H 0.3457 0.29434 0.32069 0.0
C864 C 0.27713 0.94593 0.66439 0.0
C865 C 0.27647 0.9572 0.64702 0.0
C866 C 0.29129 0.94587 0.66768 0.0
C867 C 0.32415 0.96321 0.69233 0.0
H868 H 0.35816 0.98 0.6382 0.0
C869 C 0.38029 0.02037 0.70604 0.0
C870 C 0.39381 0.02371 0.69058 0.0
C871 C 0.36719 0.00524 0.70586 0.0
C872 C 0.34888 0.97494 0.65377 0.0
H873 H 0.28929 0.97556 0.61636 0.0
H874 H 0.31382 0.97542 0.62187 0.0
H875 H 0.33114 0.96405 0.62214 0.0
H876 H 0.40495 0.0133 0.666 0.0
H877 H 0.38199 0.98689 0.66561 0.0
H878 H 0.34182 0.97504 0.72375 0.0
C879 C 0.30358 0.9667 0.63322 0.0
C880 C 0.33336 0.96588 0.64447 0.0
C881 C 0.28951 0.96688 0.63016 0.0
C882 C 0.39464 0.01118 0.67786 0.0
C883 C 0.38147 0.99603 0.67752 0.0
C884 C 0.33967 0.97225 0.70164 0.0
C885 C 0.3049 0.95693 0.65338 0.0
C886 C 0.3208 0.96089 0.66345 0.0
C887 C 0.36732 0.99314 0.69013 0.0
C888 C 0.3521 0.97913 0.68224 0.0
H889 H 0.26724 0.93824 0.67758 0.0
H890 H 0.2919 0.93806 0.68306 0.0
H891 H 0.31476 0.95952 0.70759 0.0
H892 H 0.37935 0.02971 0.71641 0.0
H893 H 0.35648 0.00348 0.71579 0.0
C894 C 0.98242 0.37329 0.71304 0.0
C895 C 0.97727 0.37711 0.68844 0.0
C896 C 0.99711 0.37416 0.71377 0.0
C897 C 0.03035 0.37969 0.66486 0.0
H898 H 0.02484 0.34336 0.70661 0.0
C899 C 0.03288 0.32464 0.63105 0.0
C900 C 0.04103 0.31968 0.64874 0.0
C901 C 0.03321 0.33884 0.63628 0.0
C902 C 0.0268 0.35376 0.69521 0.0
H903 H 0.98373 0.38601 0.64611 0.0
H904 H 0.00835 0.38623 0.64625 0.0
H905 H 0.00953 0.3554 0.71919 0.0
H906 H 0.05733 0.3265 0.68374 0.0
H907 H 0.05725 0.3509 0.69352 0.0
H908 H 0.04622 0.37623 0.63856 0.0
C909 C 0.00181 0.38325 0.66568 0.0
C910 C 0.01803 0.36086 0.70251 0.0
C911 C 0.9875 0.38307 0.66545 0.0
C912 C 0.05096 0.33002 0.66965 0.0
C913 C 0.05096 0.34401 0.67531 0.0
C914 C 0.03868 0.37213 0.65689 0.0
C915 C 0.00647 0.3779 0.68932 0.0
C916 C 0.01902 0.37347 0.68658 0.0
C917 C 0.04144 0.34807 0.65955 0.0
C918 C 0.03649 0.35878 0.67147 0.0
H919 H 0.97475 0.36885 0.73117 0.0
H920 H 0.00052 0.37081 0.733 0.0
H921 H 0.03216 0.3898 0.65278 0.0
H922 H 0.02518 0.31693 0.61476 0.0
H923 H 0.02565 0.3417 0.62406 0.0
C924 C 0.66678 0.72008 0.66321 0.0
C925 C 0.6784 0.71999 0.64598 0.0
C926 C 0.65235 0.70627 0.66717 0.0
C927 C 0.63677 0.67395 0.69395 0.0
H928 H 0.61812 0.63887 0.64205 0.0
C929 C 0.63792 0.61801 0.70899 0.0
C930 C 0.62743 0.60428 0.69436 0.0
C931 C 0.63583 0.63109 0.70885 0.0
C932 C 0.62273 0.64846 0.65703 0.0
H933 H 0.68311 0.70624 0.61599 0.0
H934 H 0.65804 0.68231 0.62264 0.0
H935 H 0.62916 0.66559 0.62437 0.0
H936 H 0.60524 0.59272 0.67167 0.0
H937 H 0.6017 0.61563 0.67133 0.0
H938 H 0.63143 0.65687 0.72634 0.0
C939 C 0.66 0.69287 0.63341 0.0
C940 C 0.62917 0.66381 0.6468 0.0
C941 C 0.67446 0.70659 0.62969 0.0
C942 C 0.61371 0.60321 0.68276 0.0
C943 C 0.61167 0.61635 0.68249 0.0
C944 C 0.63033 0.6586 0.70419 0.0
C945 C 0.64926 0.69227 0.65366 0.0
C946 C 0.63726 0.67672 0.6649 0.0
C947 C 0.62322 0.63071 0.69402 0.0
C948 C 0.62428 0.64579 0.68556 0.0
H949 H 0.6694 0.73027 0.67593 0.0
H950 H 0.6442 0.70621 0.68259 0.0
H951 H 0.64289 0.68362 0.70854 0.0
H952 H 0.64847 0.61914 0.71854 0.0
H953 H 0.645 0.64196 0.71796 0.0
C954 C 0.38291 0.3606 0.70882 0.0
C955 C 0.39496 0.37057 0.69036 0.0
C956 C 0.36815 0.35942 0.7072 0.0
C957 C 0.34187 0.37104 0.6737 0.0
H958 H 0.32048 0.32762 0.64819 0.0
C959 C 0.27514 0.32684 0.65851 0.0
C960 C 0.27164 0.31515 0.63814 0.0
C961 C 0.29048 0.33957 0.66095 0.0
C962 C 0.32633 0.33983 0.65484 0.0
H963 H 0.4019 0.38909 0.6593 0.0
H964 H 0.37597 0.38673 0.65617 0.0
H965 H 0.34666 0.33895 0.66785 0.0
H966 H 0.28033 0.30911 0.60117 0.0
H967 H 0.30694 0.33155 0.60496 0.0
H968 H 0.32098 0.37153 0.66107 0.0
C969 C 0.37794 0.37988 0.67183 0.0
C970 C 0.34121 0.34622 0.66659 0.0
C971 C 0.39278 0.38116 0.67359 0.0
C972 C 0.28282 0.31784 0.61731 0.0
C973 C 0.29804 0.33067 0.6195 0.0
C974 C 0.32664 0.36447 0.66229 0.0
C975 C 0.36526 0.36813 0.68703 0.0
C976 C 0.34909 0.36181 0.67631 0.0
C977 C 0.30231 0.34076 0.64283 0.0
C978 C 0.31884 0.34881 0.65256 0.0
H979 H 0.38434 0.35252 0.72237 0.0
H980 H 0.35853 0.3504 0.71937 0.0
H981 H 0.34788 0.38317 0.68077 0.0
H982 H 0.26671 0.32508 0.6748 0.0
H983 H 0.29346 0.34723 0.67905 0.0
C984 C 0.67689 0.96544 0.62878 0.0
C985 C 0.68056 0.95591 0.64552 0.0
C986 C 0.66349 0.96653 0.63451 0.0
C987 C 0.65245 0.97691 0.68972 0.0
H988 H 0.61046 0.96532 0.66451 0.0
C989 C 0.63085 0.01864 0.71504 0.0
C990 C 0.62436 0.02211 0.6918 0.0
C991 C 0.63093 0.00443 0.71618 0.0
C992 C 0.62218 0.96873 0.67183 0.0
H993 H 0.67197 0.9384 0.67875 0.0
H994 H 0.64888 0.94079 0.68923 0.0
H995 H 0.62302 0.95063 0.64746 0.0
H996 H 0.61143 0.01292 0.65305 0.0
H997 H 0.61256 0.98888 0.65383 0.0
H998 H 0.65278 0.99587 0.71159 0.0
C999 C 0.65621 0.94717 0.67148 0.0
C1000 C 0.62925 0.96019 0.66222 0.0
C1001 C 0.66947 0.94586 0.66544 0.0
C1002 C 0.61651 0.01051 0.67126 0.0
C1003 C 0.61713 0.99659 0.67183 0.0
C1004 C 0.64562 0.98562 0.69879 0.0
C1005 C 0.65369 0.95818 0.65711 0.0
C1006 C 0.64459 0.96458 0.67057 0.0
C1007 C 0.62528 0.99383 0.69338 0.0
C1008 C 0.6306 0.98207 0.6892 0.0
H1009 H 0.68516 0.97325 0.6132 0.0
H1010 H 0.66179 0.97522 0.6234 0.0
H1011 H 0.66438 0.98051 0.69621 0.0
H1012 H 0.63677 0.02734 0.73135 0.0
H1013 H 0.6366 0.0024 0.7339 0.0
C1014 C 0.0484 0.72079 0.67015 0.0
C1015 C 0.03835 0.72144 0.64974 0.0
C1016 C 0.0477 0.7065 0.67625 0.0
C1017 C 0.03563 0.66646 0.66242 0.0
H1018 H 0.00274 0.65348 0.71828 0.0
C1019 C 0.98559 0.60362 0.6695 0.0
C1020 C 0.97441 0.59943 0.69095 0.0
C1021 C -0.00033 0.61797 0.67055 0.0
C1022 C 0.01227 0.65675 0.70357 0.0
H1023 H 0.02148 0.70831 0.61703 0.0
H1024 H 0.02065 0.68346 0.62724 0.0
H1025 H 0.01764 0.68074 0.70467 0.0
H1026 H 0.97007 0.60548 0.73231 0.0
H1027 H 0.99536 0.62975 0.7357 0.0
H1028 H 0.03041 0.64253 0.66117 0.0
C1029 C 0.02887 0.69395 0.63866 0.0
C1030 C 0.02074 0.6725 0.6956 0.0
C1031 C 0.02928 0.70813 0.63294 0.0
C1032 C 0.97846 0.60862 0.71532 0.0
C1033 C 0.99287 0.62269 0.71693 0.0
C1034 C 0.02748 0.65068 0.67104 0.0
C1035 C 0.03735 0.69286 0.66143 0.0
C1036 C 0.03191 0.6773 0.6741 0.0
C1037 C 0.00305 0.62825 0.69352 0.0
C1038 C 0.01498 0.64539 0.69054 0.0
H1039 H 0.05548 0.73082 0.68355 0.0
H1040 H 0.05416 0.70581 0.69413 0.0
H1041 H 0.0443 0.67003 0.64582 0.0
H1042 H 0.98272 0.59673 0.6504 0.0
H1043 H 0.00698 0.62152 0.652 0.0
C1044 C 0.24606 0.4025 0.96692 0.0
C1045 C 0.24622 0.38825 0.96755 0.0
C1046 C 0.23245 0.40269 0.95875 0.0
C1047 C 0.18991 0.37572 0.95909 0.0
H1048 H 0.18812 0.41055 0.92413 0.0
C1049 C 0.13174 0.37508 0.95461 0.0
C1050 C 0.13234 0.38884 0.96464 0.0
C1051 C 0.1455 0.37523 0.94674 0.0
C1052 C 0.18847 0.40074 0.93389 0.0
H1053 H 0.23292 0.36332 0.95775 0.0
H1054 H 0.20936 0.36371 0.94279 0.0
H1055 H 0.21302 0.41034 0.92479 0.0
H1056 H 0.14759 0.41379 0.97249 0.0
H1057 H 0.17179 0.41396 0.9595 0.0
H1058 H 0.16567 0.36634 0.96912 0.0
C1059 C 0.21951 0.37465 0.94945 0.0
C1060 C 0.20269 0.40062 0.93428 0.0
C1061 C 0.233 0.37443 0.95794 0.0
C1062 C 0.14682 0.403 0.96492 0.0
C1063 C 0.16066 0.40311 0.95731 0.0
C1064 C 0.17577 0.37583 0.95866 0.0
C1065 C 0.21886 0.38865 0.95082 0.0
C1066 C 0.2036 0.3882 0.94728 0.0
C1067 C 0.16018 0.38909 0.9491 0.0
C1068 C 0.17491 0.38842 0.94643 0.0
H1069 H 0.25613 0.41333 0.97415 0.0
H1070 H 0.23232 0.41365 0.96022 0.0
H1071 H 0.19023 0.36616 0.9699 0.0
H1072 H 0.12068 0.36406 0.95371 0.0
H1073 H 0.14471 0.36431 0.93987 0.0
C1074 C 0.59553 0.74945 0.96392 0.0
C1075 C 0.60948 0.74873 0.96456 0.0
C1076 C 0.59574 0.76305 0.95448 0.0
C1077 C 0.62361 0.80521 0.9519 0.0
H1078 H 0.58866 0.80727 0.91822 0.0
C1079 C 0.62372 0.86321 0.95183 0.0
C1080 C 0.60981 0.86211 0.96227 0.0
C1081 C 0.62383 0.84976 0.9426 0.0
C1082 C 0.59853 0.80686 0.92757 0.0
H1083 H 0.63425 0.76098 0.95347 0.0
H1084 H 0.63457 0.78458 0.93646 0.0
H1085 H 0.58857 0.78224 0.91877 0.0
H1086 H 0.5849 0.84637 0.96952 0.0
H1087 H 0.58518 0.82275 0.95437 0.0
H1088 H 0.63327 0.82948 0.96194 0.0
C1089 C 0.62356 0.77486 0.94399 0.0
C1090 C 0.59848 0.79256 0.92788 0.0
C1091 C 0.62338 0.76135 0.95371 0.0
C1092 C 0.5958 0.84752 0.9617 0.0
C1093 C 0.59595 0.83401 0.95278 0.0
C1094 C 0.62366 0.81943 0.9516 0.0
C1095 C 0.60989 0.7761 0.94528 0.0
C1096 C 0.61085 0.79152 0.94069 0.0
C1097 C 0.61009 0.83492 0.94403 0.0
C1098 C 0.61095 0.82036 0.94008 0.0
H1099 H 0.58462 0.73984 0.97204 0.0
H1100 H 0.58504 0.76367 0.95596 0.0
H1101 H 0.63319 0.8048 0.96245 0.0
H1102 H 0.63463 0.87439 0.95155 0.0
H1103 H 0.63483 0.8509 0.93538 0.0
C1104 C 0.13907 0.7609 0.95782 0.0
C1105 C 0.13713 0.74583 0.96181 0.0
C1106 C 0.15365 0.77346 0.94983 0.0
C1107 C 0.19519 0.78613 0.95798 0.0
H1108 H 0.20064 0.82221 0.91524 0.0
C1109 C 0.25313 0.84506 0.96306 0.0
C1110 C 0.25097 0.85786 0.96941 0.0
C1111 C 0.2405 0.83085 0.95359 0.0
C1112 C 0.19932 0.81219 0.92712 0.0
H1113 H 0.14859 0.73183 0.95866 0.0
H1114 H 0.1741 0.75382 0.94455 0.0
H1115 H 0.17556 0.79749 0.91319 0.0
H1116 H 0.23416 0.86614 0.96939 0.0
H1117 H 0.21212 0.84135 0.95334 0.0
H1118 H 0.21861 0.80096 0.97299 0.0
C1119 C 0.16439 0.75594 0.948 0.0
C1120 C 0.18498 0.79806 0.92595 0.0
C1121 C 0.14979 0.74336 0.95601 0.0
C1122 C 0.23617 0.85645 0.96481 0.0
C1123 C 0.22357 0.84228 0.95533 0.0
C1124 C 0.20951 0.80024 0.95914 0.0
C1125 C 0.16659 0.77122 0.94562 0.0
C1126 C 0.18258 0.78506 0.94218 0.0
C1127 C 0.2255 0.82921 0.95024 0.0
C1128 C 0.21153 0.81358 0.94453 0.0
H1129 H 0.1295 0.76316 0.96198 0.0
H1130 H 0.15497 0.7851 0.9485 0.0
H1131 H 0.19369 0.77641 0.97099 0.0
H1132 H 0.26445 0.84585 0.96618 0.0
H1133 H 0.24238 0.82103 0.94955 0.0
C1134 C 0.37736 0.23594 0.03848 0.0
C1135 C 0.39064 0.25084 0.03414 0.0
C1136 C 0.37909 0.22341 0.04791 0.0
C1137 C 0.40765 0.21004 0.04429 0.0
H1138 H 0.37622 0.17521 0.08832 0.0
C1139 C 0.40549 0.15061 0.04458 0.0
C1140 C 0.39052 0.13806 0.03756 0.0
C1141 C 0.40725 0.16499 0.05354 0.0
C1142 C 0.38515 0.18489 0.07614 0.0
H1143 H 0.41607 0.2646 0.03792 0.0
H1144 H 0.41909 0.24268 0.05453 0.0
H1145 H 0.37622 0.20015 0.08723 0.0
H1146 H 0.36557 0.13032 0.03623 0.0
H1147 H 0.36865 0.15539 0.05141 0.0
H1148 H 0.4161 0.19463 0.03204 0.0
C1149 C 0.40736 0.24065 0.05026 0.0
C1150 C 0.38514 0.19914 0.07549 0.0
C1151 C 0.40563 0.25319 0.04079 0.0
C1152 C 0.37727 0.13982 0.0413 0.0
C1153 C 0.37903 0.15416 0.05029 0.0
C1154 C 0.40766 0.19582 0.04495 0.0
C1155 C 0.39414 0.22553 0.05325 0.0
C1156 C 0.39602 0.21166 0.05869 0.0
C1157 C 0.39408 0.16704 0.05571 0.0
C1158 C 0.39604 0.1829 0.06002 0.0
H1159 H 0.36564 0.23379 0.03367 0.0
H1160 H 0.36867 0.21188 0.04962 0.0
H1161 H 0.41609 0.21938 0.0309 0.0
H1162 H 0.4159 0.14954 0.04213 0.0
H1163 H 0.41898 0.17466 0.05788 0.0
C1164 C 0.85813 0.24008 0.04449 0.0
C1165 C 0.85999 0.25507 0.03993 0.0
C1166 C 0.8437 0.22764 0.05338 0.0
C1167 C 0.80207 0.2148 0.04662 0.0
H1168 H 0.79738 0.1791 0.08962 0.0
C1169 C 0.74465 0.15536 0.04249 0.0
C1170 C 0.74712 0.1428 0.03567 0.0
C1171 C 0.75714 0.16966 0.05199 0.0
C1172 C 0.79848 0.18902 0.0777 0.0
H1173 H 0.84858 0.26912 0.04302 0.0
H1174 H 0.82329 0.24734 0.0587 0.0
H1175 H 0.8223 0.20399 0.09104 0.0
H1176 H 0.76432 0.13503 0.03498 0.0
H1177 H 0.78609 0.15996 0.05118 0.0
H1178 H 0.77858 0.19968 0.03219 0.0
C1179 C 0.83296 0.24517 0.05503 0.0
C1180 C 0.81273 0.20325 0.07851 0.0
C1181 C 0.84744 0.25765 0.04614 0.0
C1182 C 0.76207 0.14452 0.03992 0.0
C1183 C 0.77453 0.15878 0.04948 0.0
C1184 C 0.78783 0.2006 0.04586 0.0
C1185 C 0.83081 0.22993 0.05793 0.0
C1186 C 0.81487 0.2161 0.0621 0.0
C1187 C 0.77229 0.17163 0.05495 0.0
C1188 C 0.7861 0.18738 0.06052 0.0
H1189 H 0.86762 0.23775 0.04003 0.0
H1190 H 0.84241 0.21603 0.05507 0.0
H1191 H 0.80336 0.2244 0.03348 0.0
H1192 H 0.73321 0.15433 0.03961 0.0
H1193 H 0.75504 0.17932 0.0563 0.0
C1194 C 0.84884 0.59227 0.03876 0.0
C1195 C 0.86334 0.60639 0.03944 0.0
C1196 C 0.83511 0.59201 0.04764 0.0
C1197 C 0.82039 0.61959 0.05073 0.0
H1198 H 0.78275 0.58399 0.0812 0.0
C1199 C 0.76298 0.62055 0.05026 0.0
C1200 C 0.75014 0.60699 0.03899 0.0
C1201 C 0.7763 0.62019 0.05948 0.0
C1202 C 0.79319 0.59403 0.07271 0.0
H1203 H 0.87523 0.63084 0.05253 0.0
H1204 H 0.85141 0.63031 0.06874 0.0
H1205 H 0.80762 0.58375 0.0813 0.0
H1206 H 0.74063 0.58215 0.03023 0.0
H1207 H 0.76415 0.58164 0.04531 0.0
H1208 H 0.80607 0.62962 0.04091 0.0
C1209 C 0.85049 0.61957 0.0605 0.0
C1210 C 0.8074 0.59389 0.07278 0.0
C1211 C 0.86413 0.61988 0.05127 0.0
C1212 C 0.75042 0.5928 0.03872 0.0
C1213 C 0.76386 0.59249 0.04758 0.0
C1214 C 0.80626 0.61972 0.05063 0.0
C1215 C 0.83574 0.60584 0.05762 0.0
C1216 C 0.82109 0.60657 0.06129 0.0
C1217 C 0.77715 0.60633 0.05714 0.0
C1218 C 0.79242 0.60683 0.0611 0.0
H1219 H 0.84795 0.58169 0.02981 0.0
H1220 H 0.82393 0.58126 0.04501 0.0
H1221 H 0.83058 0.6294 0.04111 0.0
H1222 H 0.76293 0.63158 0.05121 0.0
H1223 H 0.78619 0.63096 0.06739 0.0
C1224 C 0.80485 0.71065 0.29011 0.0
C1225 C 0.80327 0.72395 0.29471 0.0
C1226 C 0.81933 0.71237 0.28222 0.0
C1227 C 0.86128 0.74033 0.29015 0.0
H1228 H 0.86553 0.71005 0.24403 0.0
C1229 C 0.91922 0.73918 0.28755 0.0
C1230 C 0.91729 0.72419 0.29266 0.0
C1231 C 0.90632 0.7408 0.28009 0.0
C1232 C 0.86453 0.71863 0.2569 0.0
H1233 H 0.81537 0.74948 0.29315 0.0
H1234 H 0.84073 0.7525 0.27922 0.0
H1235 H 0.84062 0.71008 0.24447 0.0
H1236 H 0.90056 0.6991 0.29243 0.0
H1237 H 0.87803 0.70193 0.27976 0.0
H1238 H 0.88492 0.74848 0.30347 0.0
C1239 C 0.83079 0.74074 0.28208 0.0
C1240 C 0.85028 0.71864 0.25716 0.0
C1241 C 0.81627 0.73901 0.28997 0.0
C1242 C 0.9024 0.71081 0.28875 0.0
C1243 C 0.88951 0.71243 0.28125 0.0
C1244 C 0.87551 0.74033 0.28986 0.0
C1245 C 0.83256 0.72744 0.27874 0.0
C1246 C 0.84835 0.72917 0.27449 0.0
C1247 C 0.89125 0.72746 0.27753 0.0
C1248 C 0.87713 0.72915 0.27392 0.0
H1249 H 0.79502 0.69888 0.29348 0.0
H1250 H 0.82032 0.70189 0.28019 0.0
H1251 H 0.86014 0.74848 0.30399 0.0
H1252 H 0.93059 0.7497 0.29019 0.0
H1253 H 0.90805 0.75252 0.27702 0.0
C1254 C 0.286 0.18856 0.2894 0.0
C1255 C 0.27274 0.19025 0.29368 0.0
C1256 C 0.28419 0.17413 0.2808 0.0
C1257 C 0.25598 0.13239 0.28756 0.0
H1258 H 0.28594 0.12786 0.24104 0.0
C1259 C 0.25751 0.07468 0.28754 0.0
C1260 C 0.27264 0.07683 0.2918 0.0
C1261 C 0.25562 0.08734 0.27936 0.0
C1262 C 0.27745 0.12893 0.25403 0.0
H1263 H 0.24727 0.17849 0.29071 0.0
H1264 H 0.24412 0.15324 0.27573 0.0
H1265 H 0.28614 0.15291 0.24167 0.0
H1266 H 0.29767 0.09365 0.28933 0.0
H1267 H 0.2944 0.11573 0.27572 0.0
H1268 H 0.24782 0.1088 0.30114 0.0
C1269 C 0.25588 0.16304 0.27929 0.0
C1270 C 0.27756 0.14325 0.25435 0.0
C1271 C 0.2577 0.17749 0.28782 0.0
C1272 C 0.28584 0.09164 0.28634 0.0
C1273 C 0.28396 0.10428 0.27826 0.0
C1274 C 0.25591 0.11812 0.28732 0.0
C1275 C 0.26909 0.16111 0.27636 0.0
C1276 C 0.26716 0.14527 0.27184 0.0
C1277 C 0.26883 0.10238 0.27535 0.0
C1278 C 0.267 0.1164 0.2713 0.0
H1279 H 0.29775 0.19822 0.2936 0.0
H1280 H 0.29459 0.17298 0.27903 0.0
H1281 H 0.24793 0.13363 0.30149 0.0
H1282 H 0.24711 0.06335 0.29132 0.0
H1283 H 0.24381 0.08545 0.27691 0.0
C1284 C 0.81875 0.07836 0.28906 0.0
C1285 C 0.80571 0.08034 0.29412 0.0
C1286 C 0.83318 0.09119 0.28096 0.0
C1287 C 0.85233 0.13265 0.25573 0.0
H1288 H 0.88723 0.13785 0.30176 0.0
C1289 C 0.9043 0.19287 0.28602 0.0
C1290 C 0.91922 0.19449 0.2902 0.0
C1291 C 0.89147 0.17829 0.27873 0.0
C1292 C 0.87775 0.13648 0.28821 0.0
H1293 H 0.79731 0.09705 0.29323 0.0
H1294 H 0.82247 0.11941 0.2795 0.0
H1295 H 0.86254 0.113 0.30269 0.0
H1296 H 0.93265 0.18238 0.28837 0.0
H1297 H 0.91022 0.1569 0.27547 0.0
H1298 H 0.86741 0.15642 0.24219 0.0
C1299 C 0.82157 0.10797 0.28149 0.0
C1300 C 0.86357 0.1222 0.28875 0.0
C1301 C 0.80716 0.09517 0.28961 0.0
C1302 C 0.92125 0.18146 0.28551 0.0
C1303 C 0.90841 0.16686 0.27821 0.0
C1304 C 0.86653 0.14694 0.25519 0.0
C1305 C 0.83483 0.1062 0.2777 0.0
C1306 C 0.85055 0.1203 0.2732 0.0
C1307 C 0.8933 0.16503 0.27545 0.0
C1308 C 0.87923 0.14917 0.2721 0.0
H1309 H 0.81794 0.06703 0.29216 0.0
H1310 H 0.84315 0.08943 0.27787 0.0
H1311 H 0.84257 0.13142 0.24314 0.0
H1312 H 0.90237 0.20272 0.2894 0.0
H1313 H 0.87997 0.17726 0.27709 0.0
C1314 C 0.05005 0.47583 0.38841 0.0
C1315 C 0.06342 0.47434 0.3841 0.0
C1316 C 0.05165 0.49022 0.39665 0.0
C1317 C 0.07954 0.53206 0.3888 0.0
H1318 H 0.04834 0.53621 0.43224 0.0
C1319 C 0.07663 0.58905 0.38518 0.0
C1320 C 0.06152 0.58652 0.37901 0.0
C1321 C 0.07864 0.57662 0.39433 0.0
C1322 C 0.05719 0.53525 0.42016 0.0
H1323 H 0.0889 0.4864 0.38686 0.0
H1324 H 0.09171 0.51161 0.40139 0.0
H1325 H 0.04887 0.51155 0.43376 0.0
H1326 H 0.03659 0.56923 0.37909 0.0
H1327 H 0.04008 0.54751 0.39463 0.0
H1328 H 0.0874 0.55543 0.37416 0.0
C1329 C 0.08 0.50168 0.39803 0.0
C1330 C 0.05749 0.52115 0.42103 0.0
C1331 C 0.07839 0.48725 0.38979 0.0
C1332 C 0.04839 0.57153 0.38354 0.0
C1333 C 0.05039 0.55911 0.39271 0.0
C1334 C 0.07924 0.54614 0.38795 0.0
C1335 C 0.06666 0.50343 0.40078 0.0
C1336 C 0.06831 0.51922 0.40455 0.0
C1337 C 0.06556 0.56143 0.39754 0.0
C1338 C 0.0677 0.54769 0.40283 0.0
H1339 H 0.03834 0.46606 0.38435 0.0
H1340 H 0.04114 0.49118 0.39825 0.0
H1341 H 0.08791 0.53092 0.3756 0.0
H1342 H 0.08697 0.60053 0.38211 0.0
H1343 H 0.09045 0.5788 0.3982 0.0
C1344 C 0.51319 0.589 0.38581 0.0
C1345 C 0.52754 0.58911 0.38359 0.0
C1346 C 0.49936 0.57506 0.39253 0.0
C1347 C 0.48369 0.53287 0.38326 0.0
H1348 H 0.44723 0.52852 0.42308 0.0
C1349 C 0.42648 0.47402 0.38282 0.0
C1350 C 0.41287 0.47473 0.3764 0.0
C1351 C 0.44027 0.48757 0.39085 0.0
C1352 C 0.45733 0.52959 0.41186 0.0
H1353 H 0.53902 0.57528 0.38939 0.0
H1354 H 0.51502 0.55111 0.40173 0.0
H1355 H 0.47221 0.5535 0.42522 0.0
H1356 H 0.40269 0.48993 0.37484 0.0
H1357 H 0.42696 0.51377 0.38808 0.0
H1358 H 0.46892 0.50935 0.36897 0.0
C1359 C 0.51432 0.56161 0.39747 0.0
C1360 C 0.4716 0.54386 0.41312 0.0
C1361 C 0.52807 0.57546 0.3905 0.0
C1362 C 0.41305 0.48907 0.37959 0.0
C1363 C 0.42692 0.5027 0.38736 0.0
C1364 C 0.46951 0.5187 0.38197 0.0
C1365 C 0.49971 0.56107 0.39733 0.0
C1366 C 0.4849 0.54567 0.39859 0.0
C1367 C 0.44081 0.50217 0.39228 0.0
C1368 C 0.45611 0.51691 0.396 0.0
H1369 H 0.51247 0.59939 0.38063 0.0
H1370 H 0.48828 0.57501 0.39215 0.0
H1371 H 0.49357 0.53397 0.37121 0.0
H1372 H 0.42661 0.46306 0.38098 0.0
H1373 H 0.45066 0.4867 0.39514 0.0
C1374 C 0.42242 0.94301 0.39279 0.0
C1375 C 0.40746 0.92996 0.38766 0.0
C1376 C 0.43478 0.94088 0.40166 0.0
C1377 C 0.44792 0.91251 0.39314 0.0
H1378 H 0.48295 0.9426 0.43848 0.0
C1379 C 0.50802 0.91587 0.38748 0.0
C1380 C 0.52047 0.93121 0.38238 0.0
C1381 C 0.49349 0.91345 0.39711 0.0
C1382 C 0.47323 0.93404 0.42588 0.0
H1383 H 0.3934 0.90448 0.38961 0.0
H1384 H 0.41512 0.90074 0.40508 0.0
H1385 H 0.45788 0.94228 0.4401 0.0
H1386 H 0.52781 0.95605 0.38484 0.0
H1387 H 0.50251 0.95185 0.40114 0.0
H1388 H 0.46344 0.90483 0.37771 0.0
C1389 C 0.41727 0.91261 0.40199 0.0
C1390 C 0.45889 0.93385 0.42684 0.0
C1391 C 0.40485 0.91475 0.39322 0.0
C1392 C 0.5184 0.94408 0.38842 0.0
C1393 C 0.50393 0.94167 0.39806 0.0
C1394 C 0.46226 0.91271 0.39216 0.0
C1395 C 0.43247 0.92564 0.40554 0.0
C1396 C 0.4463 0.92351 0.4096 0.0
C1397 C 0.49119 0.92633 0.40188 0.0
C1398 C 0.47525 0.92391 0.40764 0.0
H1399 H 0.42476 0.95488 0.38888 0.0
H1400 H 0.44637 0.95117 0.40387 0.0
H1401 H 0.43851 0.90449 0.3794 0.0
H1402 H 0.50931 0.90572 0.38323 0.0
H1403 H 0.48395 0.9015 0.40013 0.0
C1404 C 0.58606 0.07702 0.61893 0.0
C1405 C 0.58599 0.06266 0.61926 0.0
C1406 C 0.57256 0.07747 0.61087 0.0
C1407 C 0.52994 0.05084 0.61125 0.0
H1408 H 0.52839 0.086 0.57726 0.0
C1409 C 0.47193 0.05043 0.60792 0.0
C1410 C 0.47257 0.06416 0.61817 0.0
C1411 C 0.48565 0.0506 0.59969 0.0
C1412 C 0.52867 0.0761 0.58675 0.0
H1413 H 0.57245 0.03782 0.60893 0.0
H1414 H 0.54911 0.03866 0.59411 0.0
H1415 H 0.5532 0.08562 0.57754 0.0
H1416 H 0.48783 0.0891 0.62601 0.0
H1417 H 0.51199 0.08932 0.61247 0.0
H1418 H 0.50575 0.04153 0.62143 0.0
C1419 C 0.55933 0.04949 0.60096 0.0
C1420 C 0.54285 0.07588 0.58692 0.0
C1421 C 0.5727 0.04901 0.60937 0.0
C1422 C 0.48704 0.07834 0.61826 0.0
C1423 C 0.50085 0.07847 0.61035 0.0
C1424 C 0.51586 0.05105 0.61105 0.0
C1425 C 0.55886 0.06358 0.60274 0.0
C1426 C 0.54367 0.06332 0.59953 0.0
C1427 C 0.50035 0.06445 0.60198 0.0
C1428 C 0.51507 0.06375 0.59915 0.0
H1429 H 0.59619 0.08773 0.6264 0.0
H1430 H 0.57258 0.0885 0.61263 0.0
H1431 H 0.5302 0.04117 0.62178 0.0
H1432 H 0.46087 0.0394 0.60714 0.0
H1433 H 0.48483 0.0397 0.59265 0.0
C1434 C 0.94451 0.42508 0.61049 0.0
C1435 C 0.93156 0.4101 0.61592 0.0
C1436 C 0.94222 0.43721 0.60071 0.0
C1437 C 0.9131 0.44972 0.60613 0.0
H1438 H 0.94339 0.48456 0.56067 0.0
C1439 C 0.91515 0.50916 0.60845 0.0
C1440 C 0.93028 0.52168 0.61465 0.0
C1441 C 0.91314 0.49476 0.59894 0.0
C1442 C 0.93477 0.47487 0.57325 0.0
H1443 H 0.90612 0.39574 0.61359 0.0
H1444 H 0.90211 0.41698 0.59643 0.0
H1445 H 0.9437 0.45977 0.56104 0.0
H1446 H 0.95523 0.52935 0.61392 0.0
H1447 H 0.95174 0.5043 0.59775 0.0
H1448 H 0.90471 0.465 0.61955 0.0
C1449 C 0.91402 0.41938 0.60007 0.0
C1450 C 0.93494 0.4607 0.57347 0.0
C1451 C 0.91632 0.40722 0.60984 0.0
C1452 C 0.94341 0.51988 0.60952 0.0
C1453 C 0.94141 0.50554 0.59995 0.0
C1454 C 0.91292 0.46387 0.6059 0.0
C1455 C 0.92692 0.43462 0.59615 0.0
C1456 C 0.92454 0.4482 0.59083 0.0
C1457 C 0.92624 0.49268 0.59533 0.0
C1458 C 0.92418 0.47681 0.59038 0.0
H1459 H 0.95641 0.42764 0.61481 0.0
H1460 H 0.95241 0.44884 0.59826 0.0
H1461 H 0.90502 0.44039 0.61994 0.0
H1462 H 0.90483 0.51025 0.612 0.0
H1463 H 0.90132 0.4851 0.59527 0.0
C1464 C 0.57519 0.52678 0.61108 0.0
C1465 C 0.58831 0.52597 0.62063 0.0
C1466 C 0.56164 0.51319 0.60242 0.0
C1467 C 0.54436 0.47052 0.58641 0.0
H1468 H 0.50771 0.46798 0.6225 0.0
C1469 C 0.48855 0.41239 0.61682 0.0
C1470 C 0.47413 0.41218 0.6177 0.0
C1471 C 0.50232 0.4261 0.609 0.0
C1472 C 0.51769 0.46854 0.61165 0.0
H1473 H 0.59801 0.51058 0.62692 0.0
H1474 H 0.57408 0.48665 0.61262 0.0
H1475 H 0.53241 0.49253 0.62336 0.0
H1476 H 0.46243 0.4255 0.60852 0.0
H1477 H 0.48635 0.44927 0.59419 0.0
H1478 H 0.52953 0.44616 0.57571 0.0
C1479 C 0.57434 0.49782 0.61136 0.0
C1480 C 0.53191 0.48267 0.61216 0.0
C1481 C 0.58802 0.5115 0.61972 0.0
C1482 C 0.47346 0.42544 0.60853 0.0
C1483 C 0.48716 0.43906 0.60039 0.0
C1484 C 0.53004 0.45629 0.58589 0.0
C1485 C 0.56083 0.49847 0.60354 0.0
C1486 C 0.54548 0.4838 0.59993 0.0
C1487 C 0.50183 0.43976 0.60167 0.0
C1488 C 0.51661 0.4551 0.5989 0.0
H1489 H 0.57521 0.53785 0.61111 0.0
H1490 H 0.55155 0.51413 0.59588 0.0
H1491 H 0.5546 0.47107 0.57661 0.0
H1492 H 0.48937 0.40228 0.62369 0.0
H1493 H 0.51343 0.42626 0.61036 0.0
C1494 C 0.73808 0.91754 0.70971 0.0
C1495 C 0.72306 0.91548 0.70437 0.0
C1496 C 0.73976 0.90478 0.71806 0.0
C1497 C 0.71769 0.86341 0.74356 0.0
H1498 H 0.74756 0.8583 0.69783 0.0
C1499 C 0.7095 0.80336 0.71288 0.0
C1500 C 0.72274 0.80166 0.70846 0.0
C1501 C 0.71131 0.81791 0.72052 0.0
C1502 C 0.73942 0.85966 0.71133 0.0
H1503 H 0.698 0.89869 0.705 0.0
H1504 H 0.70093 0.87642 0.71915 0.0
H1505 H 0.74754 0.88307 0.69665 0.0
H1506 H 0.74824 0.81359 0.7103 0.0
H1507 H 0.75143 0.83909 0.7238 0.0
H1508 H 0.70915 0.8397 0.75729 0.0
C1509 C 0.71141 0.88789 0.7172 0.0
C1510 C 0.7394 0.87388 0.71063 0.0
C1511 C 0.70973 0.90062 0.70883 0.0
C1512 C 0.73782 0.81459 0.71333 0.0
C1513 C 0.73965 0.82919 0.72097 0.0
C1514 C 0.71772 0.84917 0.74429 0.0
C1515 C 0.72645 0.88975 0.72128 0.0
C1516 C 0.7282 0.87573 0.72602 0.0
C1517 C 0.72642 0.83109 0.72394 0.0
C1518 C 0.72825 0.84697 0.72745 0.0
H1519 H 0.74857 0.92889 0.70667 0.0
H1520 H 0.75149 0.90661 0.72137 0.0
H1521 H 0.7091 0.86461 0.75603 0.0
H1522 H 0.69771 0.79358 0.70943 0.0
H1523 H 0.70088 0.819 0.72229 0.0
C1524 C 0.09342 0.80578 0.7107 0.0
C1525 C 0.07874 0.8046 0.70579 0.0
C1526 C 0.10637 0.82014 0.71854 0.0
C1527 C 0.12115 0.86223 0.70978 0.0
H1528 H 0.15554 0.86599 0.7557 0.0
C1529 C 0.18069 0.91956 0.71147 0.0
C1530 C 0.19358 0.91736 0.7064 0.0
C1531 C 0.1661 0.90683 0.71912 0.0
C1532 C 0.14601 0.86513 0.74289 0.0
H1533 H 0.06583 0.81726 0.70693 0.0
H1534 H 0.08847 0.84236 0.72088 0.0
H1535 H 0.13034 0.84135 0.75574 0.0
H1536 H 0.20158 0.90032 0.70684 0.0
H1537 H 0.17611 0.87809 0.71978 0.0
H1538 H 0.13692 0.88572 0.69606 0.0
C1539 C 0.09001 0.83223 0.71821 0.0
C1540 C 0.1316 0.85104 0.7429 0.0
C1541 C 0.07705 0.81785 0.7103 0.0
C1542 C 0.19183 0.90237 0.71048 0.0
C1543 C 0.17726 0.88965 0.71814 0.0
C1544 C 0.13552 0.8763 0.70982 0.0
C1545 C 0.1049 0.83362 0.72171 0.0
C1546 C 0.11918 0.84928 0.72566 0.0
C1547 C 0.16415 0.89167 0.72188 0.0
C1548 C 0.14826 0.87774 0.7257 0.0
H1549 H 0.09507 0.79576 0.7075 0.0
H1550 H 0.1177 0.82083 0.72072 0.0
H1551 H 0.11192 0.86122 0.69598 0.0
H1552 H 0.18172 0.93102 0.70873 0.0
H1553 H 0.15625 0.90878 0.7222 0.0
C1554 C 0.18853 0.2866 0.70937 0.0
C1555 C 0.19022 0.27337 0.70478 0.0
C1556 C 0.17415 0.28476 0.71834 0.0
C1557 C 0.1324 0.2565 0.71226 0.0
H1558 H 0.12821 0.28663 0.75892 0.0
C1559 C 0.07505 0.2586 0.71233 0.0
C1560 C 0.07742 0.2738 0.70759 0.0
C1561 C 0.08757 0.25656 0.72079 0.0
C1562 C 0.12918 0.27808 0.74593 0.0
H1563 H 0.1785 0.24787 0.70755 0.0
H1564 H 0.15334 0.24467 0.72318 0.0
H1565 H 0.15318 0.2867 0.75797 0.0
H1566 H 0.09448 0.29877 0.70963 0.0
H1567 H 0.11632 0.29524 0.72379 0.0
H1568 H 0.10878 0.24842 0.699 0.0
C1569 C 0.16309 0.25645 0.71957 0.0
C1570 C 0.14345 0.27812 0.74541 0.0
C1571 C 0.1775 0.2583 0.71066 0.0
C1572 C 0.0923 0.28691 0.71295 0.0
C1573 C 0.1048 0.28488 0.72136 0.0
C1574 C 0.11816 0.25649 0.71272 0.0
C1575 C 0.16117 0.26964 0.72286 0.0
C1576 C 0.14537 0.2677 0.72779 0.0
C1577 C 0.10268 0.26968 0.72465 0.0
C1578 C 0.11658 0.26766 0.72876 0.0
H1579 H 0.19816 0.29838 0.70517 0.0
H1580 H 0.173 0.29516 0.72035 0.0
H1581 H 0.13354 0.24842 0.69825 0.0
H1582 H 0.06365 0.24827 0.70863 0.0
H1583 H 0.08553 0.24471 0.72352 0.0
C1584 C 0.08143 0.42586 0.2792 0.0
C1585 C 0.07892 0.4386 0.28386 0.0
C1586 C 0.08505 0.42291 0.25233 0.0
C1587 C 0.10269 0.43934 0.1861 0.0
H1588 H 0.0705 0.40064 0.15163 0.0
C1589 C 0.10935 0.40916 0.08565 0.0
C1590 C 0.09851 0.40678 0.06427 0.0
C1591 C 0.10797 0.4146 0.11198 0.0
C1592 C 0.07954 0.41148 0.16106 0.0
H1593 H 0.07908 0.45873 0.26459 0.0
H1594 H 0.08603 0.45386 0.21775 0.0
H1595 H 0.06695 0.40704 0.19986 0.0
H1596 H 0.07786 0.40836 0.05342 0.0
H1597 H 0.07508 0.41729 0.10004 0.0
H1598 H 0.1155 0.44351 0.1475 0.0
C1599 C 0.08489 0.44606 0.23482 0.0
C1600 C 0.07756 0.41507 0.18855 0.0
C1601 C 0.08089 0.44879 0.26153 0.0
C1602 C 0.08639 0.41014 0.06952 0.0
C1603 C 0.08478 0.4152 0.0961 0.0
C1604 C 0.10485 0.43555 0.15879 0.0
C1605 C 0.08664 0.4329 0.22995 0.0
C1606 C 0.08909 0.42903 0.20121 0.0
C1607 C 0.09551 0.41737 0.11751 0.0
C1608 C 0.09323 0.42164 0.14607 0.0
H1609 H 0.08001 0.41783 0.29601 0.0
H1610 H 0.0864 0.41271 0.24891 0.0
H1611 H 0.11168 0.45018 0.19557 0.0
H1612 H 0.11884 0.40671 0.08208 0.0
H1613 H 0.11631 0.41614 0.12831 0.0
C1614 C 0.54992 0.63266 0.2606 0.0
C1615 C 0.55796 0.64171 0.28419 0.0
C1616 C 0.55212 0.63971 0.2343 0.0
C1617 C 0.56735 0.67775 0.19728 0.0
H1618 H 0.57565 0.65594 0.13765 0.0
C1619 C 0.59579 0.70745 0.09189 0.0
C1620 C 0.5909 0.69823 0.06743 0.0
C1621 C 0.59024 0.70056 0.11815 0.0
C1622 C 0.57309 0.66207 0.15387 0.0
H1623 H 0.57396 0.66537 0.29902 0.0
H1624 H 0.57791 0.6777 0.25291 0.0
H1625 H 0.56838 0.64407 0.18393 0.0
H1626 H 0.57602 0.67467 0.05113 0.0
H1627 H 0.56605 0.66266 0.09691 0.0
H1628 H 0.57217 0.69582 0.16714 0.0
C1629 C 0.56986 0.66516 0.25482 0.0
C1630 C 0.56894 0.65527 0.18046 0.0
C1631 C 0.56765 0.65808 0.2812 0.0
C1632 C 0.58007 0.68205 0.06965 0.0
C1633 C 0.57444 0.67517 0.0959 0.0
C1634 C 0.57143 0.68454 0.17057 0.0
C1635 C 0.56241 0.65597 0.23098 0.0
C1636 C 0.56611 0.66305 0.20251 0.0
C1637 C 0.5796 0.68431 0.12052 0.0
C1638 C 0.57446 0.67683 0.14859 0.0
H1639 H 0.54224 0.62003 0.26227 0.0
H1640 H 0.54598 0.63237 0.21643 0.0
H1641 H 0.56509 0.68395 0.2138 0.0
H1642 H 0.60416 0.71996 0.09086 0.0
H1643 H 0.59464 0.70793 0.13664 0.0
C1644 C 0.29439 0.88242 0.09075 0.0
C1645 C 0.30253 0.89308 0.06897 0.0
C1646 C 0.30154 0.88407 0.11684 0.0
C1647 C 0.32786 0.9132 0.16441 0.0
H1648 H 0.33384 0.88088 0.19988 0.0
C1649 C 0.34144 0.91267 0.28223 0.0
C1650 C 0.35652 0.9147 0.28675 0.0
C1651 C 0.33463 0.90883 0.25557 0.0
C1652 C 0.33217 0.88993 0.19013 0.0
H1653 H 0.32456 0.91369 0.05717 0.0
H1654 H 0.33684 0.91693 0.10332 0.0
H1655 H 0.32272 0.8766 0.15225 0.0
H1656 H 0.37588 0.91341 0.26744 0.0
H1657 H 0.36362 0.90609 0.22096 0.0
H1658 H 0.33682 0.92632 0.20252 0.0
C1659 C 0.32504 0.90718 0.0999 0.0
C1660 C 0.32585 0.88751 0.16307 0.0
C1661 C 0.31803 0.9053 0.07358 0.0
C1662 C 0.36428 0.91199 0.2645 0.0
C1663 C 0.35729 0.90778 0.238 0.0
C1664 C 0.33381 0.91546 0.19166 0.0
C1665 C 0.3168 0.89662 0.12172 0.0
C1666 C 0.32375 0.89917 0.15001 0.0
C1667 C 0.3426 0.90654 0.23324 0.0
C1668 C 0.33603 0.90387 0.20466 0.0
H1669 H 0.28244 0.87285 0.08769 0.0
H1670 H 0.29497 0.87585 0.13348 0.0
H1671 H 0.32621 0.92228 0.15473 0.0
H1672 H 0.33515 0.91462 0.29897 0.0
H1673 H 0.32324 0.90787 0.25226 0.0
C1674 C 0.41053 0.09147 0.93212 0.0
C1675 C 0.40789 0.10407 0.93739 0.0
C1676 C 0.41551 0.08964 0.90561 0.0
C1677 C 0.43642 0.10934 0.84285 0.0
H1678 H 0.40699 0.07165 0.80222 0.0
C1679 C 0.44862 0.08424 0.7406 0.0
C1680 C 0.43836 0.08214 0.71832 0.0
C1681 C 0.44609 0.0886 0.76715 0.0
C1682 C 0.41527 0.08221 0.81339 0.0
H1683 H 0.40912 0.12506 0.91973 0.0
H1684 H 0.41841 0.12214 0.87364 0.0
H1685 H 0.40092 0.07569 0.85037 0.0
H1686 H 0.41768 0.08336 0.70609 0.0
H1687 H 0.41291 0.09037 0.75293 0.0
H1688 H 0.45097 0.11561 0.80602 0.0
C1689 C 0.41636 0.11358 0.88989 0.0
C1690 C 0.41187 0.08446 0.84085 0.0
C1691 C 0.41101 0.1152 0.91615 0.0
C1692 C 0.42577 0.08488 0.72286 0.0
C1693 C 0.42302 0.08886 0.74959 0.0
C1694 C 0.44001 0.10689 0.81557 0.0
C1695 C 0.41833 0.10062 0.88428 0.0
C1696 C 0.42237 0.09807 0.85571 0.0
C1697 C 0.43307 0.09057 0.77194 0.0
C1698 C 0.42938 0.09337 0.80061 0.0
H1699 H 0.40822 0.08272 0.9481 0.0
H1700 H 0.417 0.07957 0.90164 0.0
H1701 H 0.44465 0.11993 0.85402 0.0
H1702 H 0.45846 0.08226 0.73762 0.0
H1703 H 0.45394 0.08982 0.78419 0.0
C1704 C 0.90155 0.32045 0.93339 0.0
C1705 C 0.89308 0.30399 0.93637 0.0
C1706 C 0.90323 0.32737 0.90701 0.0
C1707 C 0.90337 0.31861 0.83237 0.0
H1708 H 0.89997 0.35596 0.8205 0.0
C1709 C 0.90951 0.34489 0.72211 0.0
C1710 C 0.91834 0.36137 0.71985 0.0
C1711 C 0.90495 0.33771 0.7484 0.0
C1712 C 0.9011 0.34561 0.82352 0.0
H1713 H 0.87933 0.28186 0.91427 0.0
H1714 H 0.88227 0.29393 0.8683 0.0
H1715 H 0.89483 0.34388 0.86698 0.0
H1716 H 0.92909 0.38328 0.74325 0.0
H1717 H 0.92147 0.37077 0.78914 0.0
H1718 H 0.91003 0.32048 0.78928 0.0
C1719 C 0.88774 0.30148 0.88627 0.0
C1720 C 0.89813 0.33869 0.85013 0.0
C1721 C 0.886 0.29459 0.91262 0.0
C1722 C 0.92224 0.37054 0.74433 0.0
C1723 C 0.91779 0.36336 0.77064 0.0
C1724 C 0.90645 0.32557 0.80587 0.0
C1725 C 0.89654 0.31793 0.88312 0.0
C1726 C 0.89926 0.32513 0.85482 0.0
C1727 C 0.90924 0.34684 0.77303 0.0
C1728 C 0.90539 0.33918 0.80109 0.0
H1729 H 0.90713 0.328 0.95133 0.0
H1730 H 0.91018 0.34007 0.90518 0.0
H1731 H 0.9046 0.30832 0.83545 0.0
H1732 H 0.90624 0.33752 0.70358 0.0
H1733 H 0.89812 0.32497 0.74942 0.0
C1734 C 0.70861 0.59443 0.91203 0.0
C1735 C 0.6995 0.59007 0.93664 0.0
C1736 C 0.70142 0.5895 0.88581 0.0
C1737 C 0.6631 0.57558 0.85075 0.0
H1738 H 0.68252 0.56494 0.79011 0.0
C1739 C 0.63168 0.55241 0.74521 0.0
C1740 C 0.64066 0.55928 0.72096 0.0
C1741 C 0.63895 0.55493 0.77137 0.0
C1742 C 0.67702 0.56798 0.80681 0.0
H1743 H 0.67579 0.57675 0.95317 0.0
H1744 H 0.66324 0.56786 0.90745 0.0
H1745 H 0.69489 0.57135 0.83639 0.0
H1746 H 0.66437 0.57376 0.70495 0.0
H1747 H 0.67711 0.57825 0.7508 0.0
H1748 H 0.64527 0.57226 0.82123 0.0
C1749 C 0.67591 0.57536 0.90833 0.0
C1750 C 0.6841 0.57167 0.83332 0.0
C1751 C 0.6831 0.58037 0.93456 0.0
C1752 C 0.65714 0.56831 0.72328 0.0
C1753 C 0.66443 0.57083 0.74951 0.0
C1754 C 0.656 0.57183 0.82434 0.0
C1755 C 0.68497 0.58004 0.8836 0.0
C1756 C 0.67724 0.57556 0.8556 0.0
C1757 C 0.65538 0.56438 0.7739 0.0
C1758 C 0.66289 0.56802 0.80205 0.0
H1759 H 0.72128 0.60194 0.91295 0.0
H1760 H 0.70875 0.59349 0.86723 0.0
H1761 H 0.65766 0.57884 0.8672 0.0
H1762 H 0.61897 0.54529 0.74411 0.0
H1763 H 0.63168 0.54958 0.7897 0.0
C1764 C 0.88539 0.58623 0.91611 0.0
C1765 C 0.89656 0.58909 0.93712 0.0
C1766 C 0.88669 0.58076 0.88976 0.0
C1767 C 0.91508 0.58432 0.83992 0.0
H1768 H 0.88314 0.54519 0.80629 0.0
C1769 C 0.91306 0.56969 0.72207 0.0
C1770 C 0.9155 0.55692 0.71729 0.0
C1771 C 0.90949 0.57264 0.74897 0.0
C1772 C 0.89208 0.55615 0.81551 0.0
H1773 H 0.91772 0.5883 0.94727 0.0
H1774 H 0.92033 0.5793 0.90063 0.0
H1775 H 0.87948 0.552 0.85435 0.0
H1776 H 0.91519 0.53667 0.73641 0.0
H1777 H 0.90833 0.54155 0.78333 0.0
H1778 H 0.92746 0.58873 0.80089 0.0
C1779 C 0.91045 0.58106 0.90487 0.0
C1780 C 0.89001 0.56002 0.84282 0.0
C1781 C 0.90894 0.58616 0.93147 0.0
C1782 C 0.91345 0.54665 0.73955 0.0
C1783 C 0.9095 0.54939 0.76631 0.0
C1784 C 0.91697 0.58064 0.81244 0.0
C1785 C 0.89939 0.57841 0.88382 0.0
C1786 C 0.90155 0.57408 0.85523 0.0
C1787 C 0.90787 0.56261 0.7713 0.0
C1788 C 0.90552 0.56652 0.80009 0.0
H1789 H 0.87571 0.58835 0.91999 0.0
H1790 H 0.87808 0.57885 0.87371 0.0
H1791 H 0.92406 0.59527 0.8491 0.0
H1792 H 0.9145 0.57777 0.70533 0.0
H1793 H 0.90821 0.58288 0.75246 0.0
C1794 C 0.40203 0.2927 0.90901 0.0
C1795 C 0.40567 0.30171 0.93366 0.0
C1796 C 0.40754 0.29999 0.88304 0.0
C1797 C 0.42192 0.33824 0.84754 0.0
H1798 H 0.43483 0.31921 0.78965 0.0
C1799 C 0.44709 0.3694 0.7425 0.0
C1800 C 0.44084 0.36021 0.71823 0.0
C1801 C 0.44421 0.36231 0.76887 0.0
C1802 C 0.43117 0.3246 0.80557 0.0
H1803 H 0.4182 0.3254 0.95056 0.0
H1804 H 0.42805 0.33817 0.90524 0.0
H1805 H 0.42736 0.30692 0.8359 0.0
H1806 H 0.42715 0.33635 0.70243 0.0
H1807 H 0.42204 0.32392 0.74865 0.0
H1808 H 0.42568 0.35587 0.81724 0.0
C1809 C 0.42071 0.32547 0.9059 0.0
C1810 C 0.42687 0.31756 0.83205 0.0
C1811 C 0.41514 0.31816 0.93189 0.0
C1812 C 0.43212 0.34373 0.72077 0.0
C1813 C 0.42925 0.33662 0.74722 0.0
C1814 C 0.42628 0.34529 0.82115 0.0
C1815 C 0.41686 0.31648 0.88113 0.0
C1816 C 0.4221 0.32426 0.85331 0.0
C1817 C 0.43502 0.34587 0.77158 0.0
C1818 C 0.43089 0.33852 0.79983 0.0
H1819 H 0.39472 0.27999 0.90969 0.0
H1820 H 0.40416 0.29272 0.86438 0.0
H1821 H 0.41803 0.34356 0.86321 0.0
H1822 H 0.45396 0.38213 0.74122 0.0
H1823 H 0.44904 0.36974 0.7872 0.0
C1824 C 0.70266 0.11927 0.91521 0.0
C1825 C 0.69515 0.10799 0.93637 0.0
C1826 C 0.69538 0.11756 0.88923 0.0
C1827 C 0.65697 0.09355 0.85137 0.0
H1828 H 0.68415 0.10853 0.78617 0.0
C1829 C 0.65364 0.08358 0.72334 0.0
C1830 C 0.6384 0.08099 0.71862 0.0
C1831 C 0.66066 0.08838 0.74972 0.0
C1832 C 0.67632 0.10405 0.80404 0.0
H1833 H 0.67408 0.08619 0.9472 0.0
H1834 H 0.66179 0.08258 0.90149 0.0
H1835 H 0.6957 0.11314 0.83242 0.0
H1836 H 0.61888 0.08224 0.73712 0.0
H1837 H 0.63144 0.09161 0.78254 0.0
H1838 H 0.63762 0.08333 0.82291 0.0
C1839 C 0.67302 0.09313 0.90503 0.0
C1840 C 0.68299 0.10701 0.83082 0.0
C1841 C 0.68012 0.09509 0.93128 0.0
C1842 C 0.63059 0.08398 0.74033 0.0
C1843 C 0.63776 0.0892 0.76649 0.0
C1844 C 0.65031 0.09025 0.82457 0.0
C1845 C 0.6806 0.10427 0.88348 0.0
C1846 C 0.67343 0.10173 0.85493 0.0
C1847 C 0.65277 0.09113 0.77181 0.0
C1848 C 0.65988 0.09536 0.80045 0.0
H1849 H 0.71419 0.12944 0.91874 0.0
H1850 H 0.70145 0.12667 0.87366 0.0
H1851 H 0.64914 0.08956 0.86926 0.0
H1852 H 0.65993 0.08132 0.70701 0.0
H1853 H 0.67207 0.08942 0.7529 0.0
C1854 C 0.59436 0.88902 0.08767 0.0
C1855 C 0.59106 0.89503 0.06346 0.0
C1856 C 0.58932 0.891 0.11395 0.0
C1857 C 0.56145 0.90008 0.14982 0.0
H1858 H 0.59215 0.91381 0.20999 0.0
C1859 C 0.55294 0.92372 0.25561 0.0
C1860 C 0.55843 0.92002 0.28005 0.0
C1861 C 0.55591 0.91954 0.22924 0.0
C1862 C 0.58333 0.90974 0.19358 0.0
H1863 H 0.57954 0.90747 0.04767 0.0
H1864 H 0.57076 0.911 0.09377 0.0
H1865 H 0.59903 0.90858 0.16378 0.0
H1866 H 0.57094 0.90865 0.29615 0.0
H1867 H 0.57591 0.90109 0.25016 0.0
H1868 H 0.54576 0.90127 0.17969 0.0
C1869 C 0.57718 0.90467 0.09234 0.0
C1870 C 0.5873 0.90677 0.16705 0.0
C1871 C 0.58226 0.90271 0.06598 0.0
C1872 C 0.56664 0.91173 0.27767 0.0
C1873 C 0.56957 0.9075 0.2513 0.0
C1874 C 0.55745 0.90299 0.17644 0.0
C1875 C 0.58086 0.89902 0.11665 0.0
C1876 C 0.57642 0.90194 0.14486 0.0
C1877 C 0.56441 0.91152 0.22674 0.0
C1878 C 0.56837 0.9079 0.19862 0.0
H1879 H 0.60103 0.88295 0.08642 0.0
H1880 H 0.59212 0.88629 0.13222 0.0
H1881 H 0.55277 0.8962 0.1332 0.0
H1882 H 0.5466 0.93013 0.25676 0.0
H1883 H 0.55194 0.923 0.21079 0.0
C1884 C 0.07155 0.62804 0.25346 0.0
C1885 C 0.07544 0.63712 0.27806 0.0
C1886 C 0.07587 0.63531 0.22723 0.0
C1887 C 0.08665 0.67296 0.19223 0.0
H1888 H 0.09885 0.65513 0.13112 0.0
C1889 C 0.10764 0.70446 0.08611 0.0
C1890 C 0.1011 0.69522 0.06198 0.0
C1891 C 0.10552 0.69739 0.11236 0.0
C1892 C 0.09535 0.66017 0.14795 0.0
H1893 H 0.08733 0.6609 0.29461 0.0
H1894 H 0.09518 0.67363 0.24879 0.0
H1895 H 0.09384 0.64304 0.17756 0.0
H1896 H 0.08751 0.67133 0.0463 0.0
H1897 H 0.08378 0.65892 0.09238 0.0
H1898 H 0.08819 0.69008 0.16265 0.0
C1899 C 0.0885 0.66089 0.24972 0.0
C1900 C 0.09247 0.65325 0.17454 0.0
C1901 C 0.0841 0.65361 0.27598 0.0
C1902 C 0.09268 0.67874 0.06454 0.0
C1903 C 0.09061 0.67164 0.09088 0.0
C1904 C 0.08961 0.67991 0.16572 0.0
C1905 C 0.08426 0.65182 0.225 0.0
C1906 C 0.08801 0.65952 0.19698 0.0
C1907 C 0.09685 0.68093 0.1151 0.0
C1908 C 0.09394 0.67357 0.14327 0.0
H1909 H 0.06484 0.6153 0.25437 0.0
H1910 H 0.07222 0.62796 0.20866 0.0
H1911 H 0.08293 0.67792 0.20883 0.0
H1912 H 0.11426 0.7172 0.08482 0.0
H1913 H 0.11066 0.70484 0.13058 0.0
C1914 C 0.36379 0.45218 0.26089 0.0
C1915 C 0.35652 0.44144 0.28291 0.0
C1916 C 0.3562 0.44988 0.23509 0.0
C1917 C 0.31759 0.42462 0.19836 0.0
H1918 H 0.34462 0.43762 0.1329 0.0
C1919 C 0.29098 0.41123 0.08716 0.0
C1920 C 0.29892 0.40788 0.06619 0.0
C1921 C 0.29812 0.41719 0.1131 0.0
C1922 C 0.33682 0.43368 0.15086 0.0
H1923 H 0.33541 0.42016 0.29561 0.0
H1924 H 0.32256 0.41548 0.25024 0.0
H1925 H 0.35627 0.44384 0.17906 0.0
H1926 H 0.32058 0.40824 0.05567 0.0
H1927 H 0.33269 0.41762 0.10132 0.0
H1928 H 0.29818 0.41327 0.17021 0.0
C1929 C 0.33388 0.42604 0.2529 0.0
C1930 C 0.34355 0.43758 0.17757 0.0
C1931 C 0.3413 0.42863 0.27899 0.0
C1932 C 0.31421 0.41079 0.07144 0.0
C1933 C 0.32121 0.41632 0.09766 0.0
C1934 C 0.31087 0.42035 0.17166 0.0
C1935 C 0.34134 0.4365 0.23036 0.0
C1936 C 0.33406 0.43304 0.20179 0.0
C1937 C 0.31323 0.41952 0.119 0.0
C1938 C 0.32039 0.42472 0.14746 0.0
H1939 H 0.37547 0.46229 0.26352 0.0
H1940 H 0.36217 0.45853 0.21876 0.0
H1941 H 0.3098 0.42115 0.21629 0.0
H1942 H 0.27921 0.40925 0.08351 0.0
H1943 H 0.29171 0.4199 0.1285 0.0
C1944 C 0.73938 0.77439 0.58824 0.0
C1945 C 0.7369 0.76397 0.61045 0.0
C1946 C 0.74402 0.77195 0.56188 0.0
C1947 C 0.73878 0.74176 0.51474 0.0
H1948 H 0.77771 0.77185 0.47807 0.0
C1949 C 0.75228 0.74038 0.39644 0.0
C1950 C 0.76493 0.73768 0.39222 0.0
C1951 C 0.74941 0.74441 0.42306 0.0
C1952 C 0.76679 0.76343 0.48812 0.0
H1953 H 0.73749 0.74295 0.62268 0.0
H1954 H 0.74502 0.73835 0.57608 0.0
H1955 H 0.77192 0.77726 0.52567 0.0
H1956 H 0.78488 0.73774 0.41203 0.0
H1957 H 0.78018 0.74543 0.45834 0.0
H1958 H 0.73342 0.72814 0.47694 0.0
C1959 C 0.7436 0.74852 0.57937 0.0
C1960 C 0.7635 0.7665 0.51518 0.0
C1961 C 0.73935 0.75118 0.60595 0.0
C1962 C 0.77501 0.7397 0.41476 0.0
C1963 C 0.77237 0.74412 0.44117 0.0
C1964 C 0.74188 0.73888 0.48744 0.0
C1965 C 0.74589 0.75885 0.55715 0.0
C1966 C 0.74953 0.75562 0.52873 0.0
C1967 C 0.7594 0.74624 0.4456 0.0
C1968 C 0.75594 0.74965 0.47401 0.0
H1969 H 0.73762 0.78437 0.59119 0.0
H1970 H 0.74568 0.78002 0.54495 0.0
H1971 H 0.72788 0.73329 0.5248 0.0
H1972 H 0.74432 0.73887 0.37945 0.0
H1973 H 0.73935 0.74602 0.42611 0.0
C1974 C 0.25294 0.01128 0.39629 0.0
C1975 C 0.26168 0.02772 0.3931 0.0
C1976 C 0.24854 0.00456 0.42299 0.0
C1977 C 0.25986 0.01309 0.49727 0.0
H1978 H 0.21846 0.9771 0.51102 0.0
C1979 C 0.24015 0.9863 0.60794 0.0
C1980 C 0.23207 0.96978 0.6095 0.0
C1981 C 0.24297 0.99386 0.58193 0.0
C1982 C 0.23011 0.98707 0.50747 0.0
H1983 H 0.27246 0.05003 0.4153 0.0
H1984 H 0.26473 0.03832 0.46181 0.0
H1985 H 0.22488 0.98924 0.46464 0.0
H1986 H 0.22042 0.94821 0.58515 0.0
H1987 H 0.2255 0.96134 0.53992 0.0
H1988 H 0.26521 0.01079 0.53991 0.0
C1989 C 0.26142 0.03061 0.44374 0.0
C1990 C 0.23378 0.99402 0.4809 0.0
C1991 C 0.26578 0.03731 0.41708 0.0
C1992 C 0.22666 0.96097 0.58465 0.0
C1993 C 0.22948 0.9685 0.5587 0.0
C1994 C 0.25621 0.00612 0.52382 0.0
C1995 C 0.25285 0.01416 0.44702 0.0
C1996 C 0.24873 0.00704 0.47546 0.0
C1997 C 0.23776 0.98504 0.55699 0.0
C1998 C 0.24133 0.99295 0.52918 0.0
H1999 H 0.24963 0.00359 0.37819 0.0
H2000 H 0.24207 0.99184 0.42484 0.0
H2001 H 0.27155 0.02298 0.49365 0.0
H2002 H 0.24443 0.9934 0.62676 0.0
H2003 H 0.24922 0.00662 0.58136 0.0
C2004 C 0.01119 0.25317 0.60419 0.0
C2005 C 0.02766 0.26194 0.60657 0.0
C2006 C 0.00406 0.24857 0.57785 0.0
C2007 C 0.01203 0.24352 0.50356 0.0
H2008 H 0.97496 0.24708 0.48943 0.0
C2009 C 0.98644 0.23988 0.39237 0.0
C2010 C 0.96996 0.23158 0.38975 0.0
C2011 C 0.9935 0.24271 0.41886 0.0
C2012 C 0.98519 0.24584 0.49312 0.0
H2013 H 0.04961 0.27263 0.58329 0.0
H2014 H 0.03719 0.26483 0.53734 0.0
H2015 H 0.98714 0.25353 0.53563 0.0
H2016 H 0.94795 0.21937 0.41272 0.0
H2017 H 0.96024 0.22421 0.45881 0.0
H2018 H 0.01015 0.23603 0.46081 0.0
C2019 C 0.02975 0.26128 0.5558 0.0
C2020 C 0.99217 0.24951 0.51964 0.0
C2021 C 0.03687 0.26584 0.58214 0.0
C2022 C 0.96068 0.22588 0.41405 0.0
C2023 C 0.96772 0.22873 0.44048 0.0
C2024 C 0.00507 0.23989 0.47697 0.0
C2025 C 0.01326 0.25269 0.55331 0.0
C2026 C 0.00568 0.24842 0.5252 0.0
C2027 C 0.98419 0.23732 0.44322 0.0
C2028 C 0.99157 0.24101 0.47147 0.0
H2029 H 0.00378 0.24993 0.62267 0.0
H2030 H 0.99133 0.24176 0.57672 0.0
H2031 H 0.02231 0.24235 0.50723 0.0
H2032 H 0.9939 0.24443 0.37401 0.0
H2033 H 0.00622 0.24947 0.4203 0.0
C2034 C 0.26037 0.22116 0.41706 0.0
C2035 C 0.2574 0.22707 0.39236 0.0
C2036 C 0.25586 0.22409 0.44311 0.0
C2037 C 0.22955 0.23568 0.4777 0.0
H2038 H 0.2603 0.24917 0.53776 0.0
C2039 C 0.22237 0.26199 0.58123 0.0
C2040 C 0.22752 0.25842 0.60623 0.0
C2041 C 0.22522 0.25721 0.55536 0.0
C2042 C 0.25147 0.24518 0.52139 0.0
H2043 H 0.24702 0.24036 0.37551 0.0
H2044 H 0.23909 0.2455 0.42119 0.0
H2045 H 0.26656 0.2426 0.49209 0.0
H2046 H 0.2394 0.24675 0.62382 0.0
H2047 H 0.24414 0.23811 0.57863 0.0
H2048 H 0.21443 0.23822 0.50702 0.0
C2049 C 0.24487 0.23853 0.42032 0.0
C2050 C 0.25508 0.24145 0.49517 0.0
C2051 C 0.24945 0.23565 0.39418 0.0
C2052 C 0.23533 0.24971 0.60489 0.0
C2053 C 0.23814 0.24486 0.57897 0.0
C2054 C 0.2259 0.23933 0.504 0.0
C2055 C 0.24822 0.23296 0.44509 0.0
C2056 C 0.24419 0.23671 0.473 0.0
C2057 C 0.23324 0.24867 0.55386 0.0
C2058 C 0.23684 0.2442 0.52615 0.0
H2059 H 0.26641 0.21444 0.41636 0.0
H2060 H 0.25839 0.21943 0.46176 0.0
H2061 H 0.22085 0.23187 0.46113 0.0
H2062 H 0.21636 0.26875 0.58155 0.0
H2063 H 0.22149 0.26057 0.53648 0.0
C2064 C 0.73375 0.9587 0.58129 0.0
C2065 C 0.7376 0.96753 0.60619 0.0
C2066 C 0.73853 0.96621 0.55531 0.0
C2067 C 0.75083 0.00441 0.52113 0.0
H2068 H 0.76362 0.98674 0.46066 0.0
C2069 C 0.77422 0.03699 0.41648 0.0
C2070 C 0.7682 0.02806 0.39187 0.0
C2071 C 0.77146 0.02961 0.44255 0.0
C2072 C 0.75996 0.99174 0.47729 0.0
H2073 H 0.74982 0.99114 0.62348 0.0
H2074 H 0.75842 0.00429 0.57812 0.0
H2075 H 0.7574 0.97408 0.50666 0.0
H2076 H 0.75489 0.00436 0.3752 0.0
H2077 H 0.75 0.9914 0.42094 0.0
H2078 H 0.75336 0.02205 0.49181 0.0
C2079 C 0.75145 0.99155 0.57863 0.0
C2080 C 0.75639 0.98449 0.50364 0.0
C2081 C 0.74661 0.98403 0.60463 0.0
C2082 C 0.75968 0.01155 0.39381 0.0
C2083 C 0.75694 0.00414 0.41997 0.0
C2084 C 0.75445 0.01168 0.49486 0.0
C2085 C 0.74733 0.98273 0.55363 0.0
C2086 C 0.75172 0.99071 0.52586 0.0
C2087 C 0.76264 0.01311 0.44466 0.0
C2088 C 0.75902 0.00541 0.47262 0.0
H2089 H 0.72678 0.94596 0.58179 0.0
H2090 H 0.73497 0.95905 0.53651 0.0
H2091 H 0.74698 0.00935 0.53757 0.0
H2092 H 0.78092 0.04974 0.41568 0.0
H2093 H 0.77622 0.03684 0.46112 0.0
C2094 C 0.03789 0.77313 0.58148 0.0
C2095 C 0.02842 0.76771 0.6056 0.0
C2096 C 0.03106 0.77092 0.55496 0.0
C2097 C 0.99441 0.76235 0.51838 0.0
H2098 H 0.01073 0.74733 0.45916 0.0
C2099 C 0.96107 0.73648 0.41475 0.0
C2100 C 0.96986 0.73968 0.3899 0.0
C2101 C 0.96863 0.74127 0.44066 0.0
C2102 C 0.00619 0.75177 0.47531 0.0
H2103 H 0.00439 0.75594 0.62096 0.0
H2104 H 0.99241 0.75196 0.57453 0.0
H2105 H 0.02304 0.75307 0.50527 0.0
H2106 H 0.99345 0.75077 0.37259 0.0
H2107 H 0.0067 0.75934 0.41789 0.0
H2108 H 0.97748 0.76094 0.48843 0.0
C2109 C 0.00513 0.75806 0.57617 0.0
C2110 C 0.01323 0.75503 0.50177 0.0
C2111 C 0.01198 0.76025 0.60273 0.0
C2112 C 0.98637 0.74808 0.39141 0.0
C2113 C 0.99395 0.7529 0.41737 0.0
C2114 C 0.98739 0.75912 0.49187 0.0
C2115 C 0.0146 0.76324 0.55197 0.0
C2116 C 0.00736 0.76026 0.52366 0.0
C2117 C 0.98516 0.74941 0.44232 0.0
C2118 C 0.99312 0.75368 0.47008 0.0
H2119 H 0.0506 0.779 0.58302 0.0
H2120 H 0.03867 0.77524 0.53677 0.0
H2121 H 0.98977 0.76658 0.53471 0.0
H2122 H 0.94832 0.73 0.41427 0.0
H2123 H 0.9615 0.7382 0.45946 0.0
C2124 C 0.05292 0.37293 0.916 0.0
C2125 C 0.06877 0.37845 0.92314 0.0
C2126 C 0.04632 0.36341 0.89228 0.0
C2127 C 0.05668 0.34888 0.82783 0.0
H2128 H 0.01682 0.31063 0.84088 0.0
C2129 C 0.03961 0.29324 0.76595 0.0
C2130 C 0.02608 0.28801 0.74921 0.0
C2131 C 0.04263 0.3038 0.78786 0.0
C2132 C 0.02787 0.32133 0.83694 0.0
H2133 H 0.09038 0.37938 0.90977 0.0
H2134 H 0.07896 0.36287 0.86894 0.0
H2135 H 0.02674 0.33201 0.87541 0.0
H2136 H 0.00427 0.28849 0.74445 0.0
H2137 H 0.00949 0.30674 0.78345 0.0
H2138 H 0.05818 0.33784 0.79014 0.0
C2139 C 0.07156 0.36583 0.88136 0.0
C2140 C 0.03352 0.33362 0.85652 0.0
C2141 C 0.07812 0.37527 0.90496 0.0
C2142 C 0.01484 0.29231 0.75683 0.0
C2143 C 0.01782 0.30279 0.77906 0.0
C2144 C 0.05117 0.33654 0.80858 0.0
C2145 C 0.05546 0.35935 0.8752 0.0
C2146 C 0.0482 0.34739 0.85252 0.0
C2147 C 0.03209 0.30916 0.79381 0.0
C2148 C 0.03692 0.32253 0.81329 0.0
H2149 H 0.04538 0.37512 0.92961 0.0
H2150 H 0.03394 0.35881 0.88787 0.0
H2151 H 0.06784 0.35943 0.82372 0.0
H2152 H 0.04846 0.29006 0.761 0.0
H2153 H 0.0536 0.30837 0.79933 0.0
C2154 C 0.62231 0.70692 0.90838 0.0
C2155 C 0.61763 0.69389 0.92625 0.0
C2156 C 0.63292 0.70984 0.88665 0.0
C2157 C 0.65154 0.69534 0.83964 0.0
H2158 H 0.68857 0.73643 0.85088 0.0
C2159 C 0.70315 0.72088 0.76043 0.0
C2160 C 0.70824 0.73652 0.75241 0.0
C2161 C 0.69361 0.71437 0.78414 0.0
C2162 C 0.67832 0.72496 0.84731 0.0
H2163 H 0.61925 0.67285 0.93336 0.0
H2164 H 0.63763 0.67786 0.89461 0.0
H2165 H 0.66704 0.72657 0.88459 0.0
H2166 H 0.70822 0.75791 0.76424 0.0
H2167 H 0.69162 0.74665 0.80502 0.0
H2168 H 0.66244 0.69407 0.80153 0.0
C2169 C 0.63316 0.68586 0.89795 0.0
C2170 C 0.66602 0.71932 0.86666 0.0
C2171 C 0.62258 0.68297 0.92 0.0
C2172 C 0.70449 0.74581 0.76969 0.0
C2173 C 0.69499 0.73933 0.79328 0.0
C2174 C 0.6638 0.7011 0.81995 0.0
C2175 C 0.63895 0.69971 0.88202 0.0
C2176 C 0.65238 0.70465 0.86265 0.0
C2177 C 0.68903 0.72341 0.80036 0.0
C2178 C 0.67716 0.71618 0.82321 0.0
H2179 H 0.61861 0.71548 0.91233 0.0
H2180 H 0.63704 0.72046 0.87427 0.0
H2181 H 0.64113 0.68397 0.83623 0.0
H2182 H 0.7058 0.71337 0.74757 0.0
H2183 H 0.68943 0.70214 0.78927 0.0
C2184 C 0.31273 0.93857 0.92128 0.0
C2185 C 0.30219 0.92281 0.92863 0.0
C2186 C 0.30985 0.94533 0.89774 0.0
C2187 C 0.28476 0.93532 0.83368 0.0
H2188 H 0.2884 0.97623 0.84535 0.0
C2189 C 0.24881 0.95452 0.76885 0.0
C2190 C 0.25764 0.96827 0.75286 0.0
C2191 C 0.25571 0.95098 0.79114 0.0
C2192 C 0.28746 0.96487 0.84179 0.0
H2193 H 0.28097 0.90153 0.91587 0.0
H2194 H 0.27591 0.91322 0.87538 0.0
H2195 H 0.299 0.96572 0.88046 0.0
H2196 H 0.28023 0.98985 0.74971 0.0
H2197 H 0.29217 0.98371 0.78934 0.0
H2198 H 0.27259 0.93416 0.79572 0.0
C2199 C 0.28646 0.92042 0.8875 0.0
C2200 C 0.29362 0.95888 0.86172 0.0
C2201 C 0.28933 0.91371 0.91091 0.0
C2202 C 0.27308 0.97915 0.76153 0.0
C2203 C 0.27996 0.97563 0.78412 0.0
C2204 C 0.27845 0.94119 0.81407 0.0
C2205 C 0.29643 0.93643 0.88103 0.0
C2206 C 0.292 0.94385 0.85819 0.0
C2207 C 0.27153 0.96117 0.7982 0.0
C2208 C 0.27942 0.95584 0.81825 0.0
H2209 H 0.32272 0.94595 0.93452 0.0
H2210 H 0.31789 0.95762 0.89309 0.0
H2211 H 0.28364 0.9239 0.82991 0.0
H2212 H 0.23683 0.94595 0.76307 0.0
H2213 H 0.24889 0.93989 0.80209 0.0
C2214 C 0.36835 0.05506 0.08058 0.0
C2215 C 0.37273 0.07067 0.07338 0.0
C2216 C 0.35725 0.04717 0.10183 0.0
C2217 C 0.32291 0.04639 0.13108 0.0
H2218 H 0.32785 0.02648 0.19754 0.0
C2219 C 0.28576 0.03573 0.2294 0.0
C2220 C 0.28295 0.02342 0.2479 0.0
C2221 C 0.29458 0.03817 0.20507 0.0
C2222 C 0.32609 0.03163 0.17875 0.0
H2223 H 0.36983 0.09059 0.08464 0.0
H2224 H 0.3505 0.07678 0.12119 0.0
H2225 H 0.34891 0.03771 0.16249 0.0
H2226 H 0.2861 0.00322 0.25406 0.0
H2227 H 0.30126 0.00731 0.21111 0.0
H2228 H 0.30024 0.04047 0.147 0.0
C2229 C 0.3555 0.07062 0.11017 0.0
C2230 C 0.33821 0.03814 0.15883 0.0
C2231 C 0.36665 0.07854 0.08929 0.0
C2232 C 0.28805 0.01282 0.24028 0.0
C2233 C 0.29692 0.01528 0.21584 0.0
C2234 C 0.31075 0.03972 0.1507 0.0
C2235 C 0.3503 0.05473 0.11595 0.0
C2236 C 0.3369 0.04603 0.13534 0.0
C2237 C 0.30077 0.02833 0.19849 0.0
C2238 C 0.31239 0.03274 0.17528 0.0
H2239 H 0.37278 0.04864 0.06879 0.0
H2240 H 0.35346 0.03492 0.10612 0.0
H2241 H 0.32153 0.05216 0.1128 0.0
H2242 H 0.28196 0.04409 0.23453 0.0
H2243 H 0.29738 0.04842 0.19242 0.0
C2244 C 0.98178 0.27591 0.24243 0.0
C2245 C 0.97251 0.25962 0.24733 0.0
C2246 C 0.97912 0.28272 0.21881 0.0
C2247 C 0.9621 0.27606 0.14885 0.0
H2248 H 0.94832 0.30566 0.16923 0.0
C2249 C 0.94587 0.31028 0.0686 0.0
C2250 C 0.92965 0.30505 0.0696 0.0
C2251 C 0.9531 0.30667 0.09036 0.0
C2252 C 0.95231 0.29755 0.1633 0.0
H2253 H 0.95405 0.23755 0.23024 0.0
H2254 H 0.94985 0.24945 0.18838 0.0
H2255 H 0.95845 0.29526 0.20551 0.0
H2256 H 0.90845 0.29266 0.09462 0.0
H2257 H 0.92136 0.28706 0.13346 0.0
H2258 H 0.95593 0.27837 0.10661 0.0
C2259 C 0.95898 0.25692 0.20309 0.0
C2260 C 0.95814 0.29167 0.18392 0.0
C2261 C 0.96139 0.25013 0.22701 0.0
C2262 C 0.92099 0.29695 0.09348 0.0
C2263 C 0.92833 0.29372 0.11559 0.0
C2264 C 0.95662 0.28224 0.12811 0.0
C2265 C 0.96742 0.27333 0.19936 0.0
C2266 C 0.96285 0.28069 0.17693 0.0
C2267 C 0.94432 0.29815 0.11377 0.0
C2268 C 0.95145 0.29283 0.1353 0.0
H2269 H 0.99034 0.28357 0.25778 0.0
H2270 H 0.98581 0.2954 0.21626 0.0
H2271 H 0.96561 0.26756 0.14304 0.0
H2272 H 0.95276 0.31628 0.05021 0.0
H2273 H 0.96544 0.31014 0.08858 0.0
C2274 C 0.74858 0.70735 0.23159 0.0
C2275 C 0.73911 0.71088 0.24878 0.0
C2276 C 0.7423 0.69785 0.20794 0.0
C2277 C 0.70433 0.66622 0.18127 0.0
H2278 H 0.73002 0.66958 0.11694 0.0
C2279 C 0.68629 0.6241 0.08274 0.0
C2280 C 0.69738 0.6194 0.07626 0.0
C2281 C 0.68925 0.63493 0.10438 0.0
C2282 C 0.72271 0.66852 0.1348 0.0
H2283 H 0.71582 0.70811 0.25334 0.0
H2284 H 0.70491 0.69175 0.21153 0.0
H2285 H 0.73957 0.69123 0.15038 0.0
H2286 H 0.71947 0.62123 0.0894 0.0
H2287 H 0.72457 0.64011 0.12669 0.0
H2288 H 0.68744 0.6434 0.16522 0.0
C2289 C 0.71715 0.69609 0.21679 0.0
C2290 C 0.72818 0.68089 0.15398 0.0
C2291 C 0.72347 0.70564 0.24055 0.0
C2292 C 0.71075 0.6247 0.09347 0.0
C2293 C 0.71375 0.63558 0.11478 0.0
C2294 C 0.69875 0.65389 0.16175 0.0
C2295 C 0.72636 0.69168 0.20071 0.0
C2296 C 0.71931 0.67971 0.17797 0.0
C2297 C 0.70336 0.64126 0.11967 0.0
C2298 C 0.70814 0.65477 0.13886 0.0
H2299 H 0.76069 0.71121 0.23722 0.0
H2300 H 0.74975 0.69462 0.19632 0.0
H2301 H 0.69723 0.66483 0.19961 0.0
H2302 H 0.67588 0.62027 0.06993 0.0
H2303 H 0.68103 0.63911 0.10794 0.0
C2304 C 0.98089 0.70769 0.23977 0.0
C2305 C 0.96902 0.71088 0.24849 0.0
C2306 C 0.97807 0.69706 0.21785 0.0
C2307 C 0.94546 0.66156 0.19065 0.0
H2308 H 0.96908 0.66741 0.12219 0.0
C2309 C 0.9186 0.62195 0.0953 0.0
C2310 C 0.92814 0.61945 0.07642 0.0
C2311 C 0.92515 0.6316 0.11865 0.0
C2312 C 0.96256 0.66544 0.14153 0.0
H2313 H 0.94551 0.7066 0.239 0.0
H2314 H 0.94067 0.68807 0.20122 0.0
H2315 H 0.97837 0.68889 0.15642 0.0
H2316 H 0.95193 0.62427 0.06838 0.0
H2317 H 0.96338 0.64099 0.10969 0.0
H2318 H 0.92966 0.63823 0.17622 0.0
C2319 C 0.95202 0.69361 0.21161 0.0
C2320 C 0.96784 0.67779 0.16095 0.0
C2321 C 0.95486 0.7043 0.23319 0.0
C2322 C 0.94424 0.62592 0.08257 0.0
C2323 C 0.95084 0.63566 0.10604 0.0
C2324 C 0.94032 0.64919 0.17154 0.0
C2325 C 0.96334 0.68943 0.20453 0.0
C2326 C 0.95902 0.67608 0.18521 0.0
C2327 C 0.94143 0.639 0.12385 0.0
C2328 C 0.94849 0.65113 0.14629 0.0
H2329 H 0.99195 0.71255 0.25101 0.0
H2330 H 0.987 0.69405 0.21257 0.0
H2331 H 0.93865 0.65987 0.20956 0.0
H2332 H 0.90614 0.61711 0.09124 0.0
H2333 H 0.91752 0.634 0.13167 0.0
C2334 C 0.29444 0.24793 0.23671 0.0
C2335 C 0.28857 0.25612 0.25221 0.0
C2336 C 0.30522 0.25537 0.21507 0.0
C2337 C 0.32196 0.28716 0.16442 0.0
H2338 H 0.35996 0.28482 0.17568 0.0
C2339 C 0.37499 0.2901 0.09397 0.0
C2340 C 0.37812 0.30265 0.07585 0.0
C2341 C 0.36571 0.28728 0.1178 0.0
C2342 C 0.34942 0.28555 0.17209 0.0
H2343 H 0.28844 0.27818 0.25526 0.0
H2344 H 0.30709 0.29104 0.21667 0.0
H2345 H 0.33893 0.2734 0.21036 0.0
H2346 H 0.37474 0.32272 0.06967 0.0
H2347 H 0.35873 0.31794 0.11177 0.0
H2348 H 0.33211 0.29863 0.12544 0.0
C2349 C 0.30344 0.27892 0.22183 0.0
C2350 C 0.3374 0.27903 0.19199 0.0
C2351 C 0.29272 0.27151 0.24382 0.0
C2352 C 0.37261 0.31297 0.08321 0.0
C2353 C 0.36326 0.31012 0.10715 0.0
C2354 C 0.33395 0.29354 0.14422 0.0
C2355 C 0.31025 0.27109 0.2081 0.0
C2356 C 0.32341 0.27943 0.18803 0.0
C2357 C 0.35932 0.29696 0.12428 0.0
C2358 C 0.34767 0.29244 0.1475 0.0
H2359 H 0.29143 0.23603 0.24227 0.0
H2360 H 0.31009 0.24899 0.20439 0.0
H2361 H 0.31128 0.28764 0.16098 0.0
H2362 H 0.37905 0.28193 0.08901 0.0
H2363 H 0.36283 0.27693 0.13023 0.0
C2364 C 0.74985 0.04319 0.23351 0.0
C2365 C 0.74085 0.02966 0.24994 0.0
C2366 C 0.743 0.04686 0.21131 0.0
C2367 C 0.71105 0.03348 0.16127 0.0
H2368 H 0.71639 0.07514 0.17211 0.0
C2369 C 0.68674 0.06075 0.08149 0.0
C2370 C 0.69751 0.07644 0.074 0.0
C2371 C 0.68958 0.05384 0.10487 0.0
C2372 C 0.71485 0.06353 0.16861 0.0
H2373 H 0.71791 0.0086 0.25403 0.0
H2374 H 0.70603 0.01495 0.21453 0.0
H2375 H 0.72695 0.06453 0.20659 0.0
H2376 H 0.71921 0.09738 0.08624 0.0
H2377 H 0.72418 0.08541 0.12639 0.0
H2378 H 0.69957 0.03275 0.12258 0.0
C2379 C 0.71835 0.02275 0.21934 0.0
C2380 C 0.72087 0.05746 0.18841 0.0
C2381 C 0.7252 0.01911 0.24186 0.0
C2382 C 0.71066 0.08527 0.0913 0.0
C2383 C 0.71347 0.0784 0.11453 0.0
C2384 C 0.70517 0.03966 0.14115 0.0
C2385 C 0.72704 0.03701 0.20476 0.0
C2386 C 0.71935 0.04255 0.18462 0.0
C2387 C 0.70318 0.06249 0.12129 0.0
C2388 C 0.70735 0.05494 0.14428 0.0
H2389 H 0.76199 0.0515 0.23883 0.0
H2390 H 0.75 0.05779 0.2 0.0
H2391 H 0.70969 0.02192 0.15801 0.0
H2392 H 0.67652 0.05358 0.0686 0.0
H2393 H 0.6813 0.04163 0.10971 0.0
C2394 C 0.70328 0.95279 0.7638 0.0
C2395 C 0.70939 0.96684 0.74822 0.0
C2396 C 0.69253 0.94968 0.78539 0.0
C2397 C 0.67593 0.96503 0.83566 0.0
H2398 H 0.63725 0.92563 0.82222 0.0
C2399 C 0.62441 0.94066 0.91505 0.0
C2400 C 0.61846 0.9247 0.92182 0.0
C2401 C 0.634 0.94723 0.8914 0.0
C2402 C 0.64797 0.93663 0.8264 0.0
H2403 H 0.71007 0.9893 0.74515 0.0
H2404 H 0.69148 0.98392 0.78363 0.0
H2405 H 0.65873 0.93497 0.78848 0.0
H2406 H 0.61693 0.90288 0.90793 0.0
H2407 H 0.63354 0.91422 0.86719 0.0
H2408 H 0.66549 0.96631 0.87434 0.0
C2409 C 0.69492 0.97527 0.77857 0.0
C2410 C 0.66025 0.94197 0.80705 0.0
C2411 C 0.70561 0.97835 0.75663 0.0
C2412 C 0.62134 0.91523 0.90338 0.0
C2413 C 0.63085 0.92176 0.87984 0.0
C2414 C 0.66368 0.95956 0.85533 0.0
C2415 C 0.68779 0.96063 0.79224 0.0
C2416 C 0.67447 0.956 0.81182 0.0
C2417 C 0.63772 0.93794 0.87399 0.0
C2418 C 0.6497 0.94507 0.85126 0.0
H2419 H 0.70601 0.9437 0.75821 0.0
H2420 H 0.68739 0.93841 0.79602 0.0
H2421 H 0.68679 0.97592 0.83969 0.0
H2422 H 0.62248 0.94829 0.92892 0.0
H2423 H 0.63892 0.95969 0.88726 0.0
C2424 C 0.03721 0.7504 0.76833 0.0
C2425 C 0.02462 0.7413 0.7501 0.0
C2426 C 0.03965 0.74369 0.79222 0.0
C2427 C 0.03215 0.70508 0.81746 0.0
H2428 H 0.05367 0.72956 0.88339 0.0
C2429 C 0.05462 0.68495 0.9155 0.0
C2430 C 0.07039 0.69576 0.92252 0.0
C2431 C 0.04704 0.68842 0.89405 0.0
C2432 C 0.04763 0.72259 0.8651 0.0
H2433 H 0.00395 0.71828 0.74399 0.0
H2434 H 0.00804 0.70663 0.78618 0.0
H2435 H 0.04232 0.73993 0.84996 0.0
H2436 H 0.09092 0.71792 0.91054 0.0
H2437 H 0.07764 0.72391 0.87359 0.0
H2438 H 0.03759 0.68773 0.83301 0.0
C2439 C 0.01623 0.7189 0.78157 0.0
C2440 C 0.04116 0.72852 0.84592 0.0
C2441 C 0.01377 0.72564 0.75757 0.0
C2442 C 0.07873 0.7094 0.90604 0.0
C2443 C 0.07113 0.71291 0.88494 0.0
C2444 C 0.03847 0.69903 0.83696 0.0
C2445 C 0.02952 0.7277 0.79862 0.0
C2446 C 0.03381 0.72011 0.82136 0.0
C2447 C 0.05508 0.70277 0.87951 0.0
C2448 C 0.0467 0.708 0.86043 0.0
H2449 H 0.04576 0.76251 0.76331 0.0
H2450 H 0.05009 0.75084 0.80464 0.0
H2451 H 0.02671 0.69833 0.79867 0.0
H2452 H 0.04783 0.67434 0.92773 0.0
H2453 H 0.03466 0.68039 0.89005 0.0
C2454 C 0.27061 0.29286 0.75621 0.0
C2455 C 0.25513 0.28825 0.74771 0.0
C2456 C 0.27754 0.30326 0.7788 0.0
C2457 C 0.27578 0.33588 0.81035 0.0
H2458 H 0.29621 0.33107 0.87618 0.0
C2459 C 0.28554 0.37243 0.90929 0.0
C2460 C 0.29846 0.37626 0.92692 0.0
C2461 C 0.28289 0.36315 0.88551 0.0
C2462 C 0.29086 0.33277 0.85762 0.0
H2463 H 0.23437 0.28984 0.75805 0.0
H2464 H 0.24649 0.30795 0.79701 0.0
H2465 H 0.28601 0.31059 0.83991 0.0
H2466 H 0.31924 0.37403 0.93241 0.0
H2467 H 0.31474 0.358 0.89036 0.0
H2468 H 0.28056 0.35796 0.82756 0.0
C2469 C 0.25332 0.30371 0.78596 0.0
C2470 C 0.28495 0.32098 0.837 0.0
C2471 C 0.24637 0.29327 0.76369 0.0
C2472 C 0.30919 0.37134 0.91924 0.0
C2473 C 0.30651 0.36199 0.89533 0.0
C2474 C 0.28184 0.3477 0.83065 0.0
C2475 C 0.26913 0.30927 0.79304 0.0
C2476 C 0.27694 0.32225 0.81363 0.0
C2477 C 0.29311 0.35748 0.87855 0.0
C2478 C 0.28901 0.34609 0.855 0.0
H2479 H 0.27771 0.28924 0.7444 0.0
H2480 H 0.28974 0.30734 0.78401 0.0
H2481 H 0.26995 0.33728 0.79218 0.0
H2482 H 0.27702 0.37602 0.91448 0.0
H2483 H 0.27233 0.35979 0.87338 0.0
C2484 C 0.04315 0.3923 0.42969 0.0
C2485 C 0.04848 0.40819 0.42318 0.0
C2486 C 0.03287 0.38505 0.45226 0.0
C2487 C 0.01512 0.39342 0.51458 0.0
H2488 H 0.97817 0.35341 0.49612 0.0
C2489 C 0.95609 0.37406 0.56584 0.0
C2490 C 0.95066 0.36068 0.58308 0.0
C2491 C 0.96776 0.37751 0.54587 0.0
C2492 C 0.9885 0.36449 0.50159 0.0
H2493 H 0.04828 0.42924 0.43673 0.0
H2494 H 0.03042 0.4167 0.47555 0.0
H2495 H 0.00108 0.3645 0.46486 0.0
H2496 H 0.95207 0.33954 0.59058 0.0
H2497 H 0.97228 0.34549 0.55488 0.0
H2498 H 0.00215 0.3938 0.55041 0.0
C2499 C 0.03412 0.40975 0.46348 0.0
C2500 C 0.00167 0.3708 0.48389 0.0
C2501 C 0.04434 0.41696 0.44102 0.0
C2502 C 0.956 0.34996 0.57775 0.0
C2503 C 0.9676 0.35337 0.55744 0.0
C2504 C 0.00192 0.38723 0.53194 0.0
C2505 C 0.02782 0.39358 0.46881 0.0
C2506 C 0.01498 0.38557 0.4898 0.0
C2507 C 0.97405 0.36754 0.54235 0.0
C2508 C 0.98839 0.37294 0.52522 0.0
H2509 H 0.0461 0.38519 0.41638 0.0
H2510 H 0.02845 0.37264 0.45611 0.0
H2511 H 0.02527 0.40461 0.52015 0.0
H2512 H 0.95215 0.3825 0.56904 0.0
H2513 H 0.97243 0.3884 0.53409 0.0
C2514 C 0.65022 0.60757 0.57833 0.0
C2515 C 0.64074 0.59126 0.58286 0.0
C2516 C 0.64725 0.61478 0.55566 0.0
C2517 C 0.62791 0.60836 0.48725 0.0
H2518 H 0.6186 0.64092 0.50989 0.0
C2519 C 0.61221 0.64402 0.40958 0.0
C2520 C 0.59661 0.64067 0.41329 0.0
C2521 C 0.61959 0.6398 0.43013 0.0
C2522 C 0.62131 0.63195 0.50332 0.0
H2523 H 0.62151 0.5696 0.56599 0.0
H2524 H 0.6167 0.58218 0.52594 0.0
H2525 H 0.62881 0.6297 0.54445 0.0
H2526 H 0.5767 0.63092 0.44163 0.0
H2527 H 0.59002 0.62437 0.47849 0.0
H2528 H 0.62035 0.61061 0.44611 0.0
C2529 C 0.62626 0.58937 0.54014 0.0
C2530 C 0.62721 0.62561 0.52295 0.0
C2531 C 0.62902 0.58218 0.56308 0.0
C2532 C 0.5888 0.63379 0.4385 0.0
C2533 C 0.59637 0.63001 0.45945 0.0
C2534 C 0.62235 0.61496 0.46747 0.0
C2535 C 0.63499 0.6058 0.53678 0.0
C2536 C 0.63033 0.61358 0.5152 0.0
C2537 C 0.61165 0.63258 0.45504 0.0
C2538 C 0.61877 0.62662 0.47548 0.0
H2539 H 0.65926 0.61492 0.59326 0.0
H2540 H 0.65421 0.62746 0.55337 0.0
H2541 H 0.63019 0.59908 0.48079 0.0
H2542 H 0.61834 0.64898 0.39002 0.0
H2543 H 0.63135 0.6418 0.4263 0.0
C2544 C 0.4163 0.04672 0.56179 0.0
C2545 C 0.40739 0.05067 0.57964 0.0
C2546 C 0.40921 0.03649 0.53928 0.0
C2547 C 0.37054 0.00371 0.51862 0.0
H2548 H 0.39376 0.00477 0.45204 0.0
C2549 C 0.34937 0.95712 0.42672 0.0
C2550 C 0.36036 0.9523 0.42024 0.0
C2551 C 0.35302 0.96903 0.44653 0.0
C2552 C 0.38714 0.00436 0.47053 0.0
H2553 H 0.38426 0.04791 0.58649 0.0
H2554 H 0.37191 0.03023 0.54667 0.0
H2555 H 0.40424 0.02779 0.48252 0.0
H2556 H 0.38319 0.95526 0.43152 0.0
H2557 H 0.38948 0.97603 0.46558 0.0
H2558 H 0.35343 0.98013 0.50624 0.0
C2559 C 0.38434 0.03482 0.55053 0.0
C2560 C 0.39313 0.01751 0.48802 0.0
C2561 C 0.39147 0.04511 0.57314 0.0
C2562 C 0.37448 0.95875 0.43564 0.0
C2563 C 0.37817 0.97072 0.45508 0.0
C2564 C 0.36442 0.99058 0.50081 0.0
C2565 C 0.39303 0.02999 0.53392 0.0
C2566 C 0.3852 0.01717 0.51281 0.0
C2567 C 0.36774 0.97636 0.45992 0.0
C2568 C 0.37296 0.99066 0.47715 0.0
H2569 H 0.42861 0.05083 0.56608 0.0
H2570 H 0.41629 0.03296 0.52719 0.0
H2571 H 0.36417 0.00296 0.53765 0.0
H2572 H 0.33837 0.95241 0.41532 0.0
H2573 H 0.34477 0.97316 0.45011 0.0
C2574 C 0.60373 0.95484 0.42672 0.0
C2575 C 0.58779 0.94943 0.42033 0.0
C2576 C 0.61143 0.96628 0.44752 0.0
C2577 C 0.61072 0.00013 0.47329 0.0
H2578 H 0.63301 -0.00046 0.54001 0.0
C2579 C 0.62374 0.04302 0.56382 0.0
C2580 C 0.63682 0.04739 0.58133 0.0
C2581 C 0.62051 0.03251 0.54174 0.0
C2582 C 0.62716 6e-05 0.52111 0.0
H2583 H 0.56709 0.95059 0.43301 0.0
H2584 H 0.58059 0.97057 0.46884 0.0
H2585 H 0.62152 0.97673 0.50847 0.0
H2586 H 0.65743 0.04499 0.58797 0.0
H2587 H 0.65196 0.02687 0.54882 0.0
H2588 H 0.61631 0.02334 0.48538 0.0
C2589 C 0.58712 0.9661 0.4575 0.0
C2590 C 0.62049 0.98694 0.50325 0.0
C2591 C 0.5794 0.95459 0.43704 0.0
C2592 C 0.64725 0.04188 0.5749 0.0
C2593 C 0.64401 0.03133 0.55268 0.0
C2594 C 0.61755 0.01328 0.49081 0.0
C2595 C 0.60332 0.97251 0.46207 0.0
C2596 C 0.61182 0.98673 0.47969 0.0
C2597 C 0.63032 0.02614 0.53639 0.0
C2598 C 0.62542 0.01324 0.51544 0.0
H2599 H 0.61057 0.95114 0.41433 0.0
H2600 H 0.62394 0.97104 0.45085 0.0
H2601 H 0.60434 0.00033 0.45488 0.0
H2602 H 0.61546 0.04705 0.56805 0.0
H2603 H 0.60977 0.02871 0.52992 0.0
C2604 C 0.95512 0.60577 0.57535 0.0
C2605 C 0.94907 0.58964 0.58082 0.0
C2606 C 0.96566 0.61313 0.55316 0.0
C2607 C 0.99673 0.62693 0.52105 0.0
H2608 H 0.99502 0.60451 0.45293 0.0
C2609 C 0.04124 0.64816 0.42537 0.0
C2610 C 0.04602 0.63719 0.41839 0.0
C2611 C 0.03005 0.64474 0.44653 0.0
C2612 C 0.99561 0.61091 0.47186 0.0
H2613 H 0.94845 0.56839 0.56594 0.0
H2614 H 0.96678 0.58113 0.52782 0.0
H2615 H 0.97219 0.59383 0.48386 0.0
H2616 H 0.04407 0.61488 0.43037 0.0
H2617 H 0.02453 0.60897 0.46681 0.0
H2618 H 0.02028 0.64407 0.50852 0.0
C2619 C 0.9634 0.58817 0.54038 0.0
C2620 C 0.98258 0.60479 0.48962 0.0
C2621 C 0.95291 0.58084 0.56244 0.0
C2622 C 0.04053 0.62351 0.43484 0.0
C2623 C 0.02929 0.62006 0.45567 0.0
C2624 C 0.00974 0.63319 0.50296 0.0
C2625 C 0.97029 0.60449 0.53594 0.0
C2626 C 0.98313 0.61243 0.51491 0.0
C2627 C 0.02348 0.63031 0.46083 0.0
C2628 C 0.00941 0.62494 0.4787 0.0
H2629 H 0.95243 0.61291 0.58911 0.0
H2630 H 0.97055 0.62567 0.55003 0.0
H2631 H 0.99764 0.63308 0.54045 0.0
H2632 H 0.04522 0.65881 0.41318 0.0
H2633 H 0.02574 0.65283 0.45033 0.0
C2634 C 0.35062 0.39448 0.42684 0.0
C2635 C 0.36192 0.40988 0.41865 0.0
C2636 C 0.35433 0.38641 0.44699 0.0
C2637 C 0.3884 0.3844 0.46977 0.0
H2638 H 0.3662 0.3646 0.53849 0.0
C2639 C 0.41812 0.37163 0.56081 0.0
C2640 C 0.40926 0.35911 0.57933 0.0
C2641 C 0.41088 0.37473 0.53849 0.0
C2642 C 0.37234 0.36973 0.51904 0.0
H2643 H 0.38546 0.42931 0.42724 0.0
H2644 H 0.39184 0.4152 0.46194 0.0
H2645 H 0.35552 0.37662 0.50671 0.0
H2646 H 0.38596 0.33933 0.58768 0.0
H2647 H 0.37332 0.3446 0.5482 0.0
H2648 H 0.40521 0.37765 0.48172 0.0
C2649 C 0.38023 0.40932 0.45249 0.0
C2650 C 0.36626 0.3767 0.501 0.0
C2651 C 0.3765 0.41742 0.43269 0.0
C2652 C 0.39315 0.34905 0.57376 0.0
C2653 C 0.38586 0.35218 0.55135 0.0
C2654 C 0.39435 0.37729 0.48751 0.0
C2655 C 0.36942 0.39358 0.45904 0.0
C2656 C 0.37454 0.38453 0.4767 0.0
C2657 C 0.39457 0.36537 0.53399 0.0
C2658 C 0.38671 0.37034 0.51286 0.0
H2659 H 0.33928 0.3883 0.41648 0.0
H2660 H 0.34578 0.37428 0.45188 0.0
H2661 H 0.39482 0.39009 0.4508 0.0
H2662 H 0.43056 0.3796 0.56443 0.0
H2663 H 0.41798 0.38508 0.52582 0.0
loop_
_geom_bond_atom_site_label_1
_geom_bond_atom_site_label_2
_geom_bond_distance
_geom_bond_site_symmetry_2
_ccdc_geom_bond_type
Co0 O1 2.222 . S
Co0 O2 2.091 . S
Co0 O4 2.004 . S
Co0 O10 2.021 1_554 S
Co0 O12 2.137 . S
Co0 O13 2.244 . S
O1 Co0 2.222 . S
O1 C8 1.260 . S
O2 Co0 2.091 . S
O2 C8 1.261 . S
C3 O12 1.247 . S
C3 O13 1.272 . S
O4 Co0 2.004 . S
O4 C9 1.259 . S
Co5 O6 2.061 . S
Co5 O11 2.052 . S
Co5 O13 2.135 1_556 S
O6 Co5 2.061 . S
O6 C9 1.235 1_556 S
C7 O10 1.238 . S
C7 O11 1.241 . S
C8 O1 1.260 . S
C8 O2 1.261 . S
C9 O4 1.259 . S
C9 O6 1.235 1_554 S
O10 Co0 2.021 1_556 S
O10 C7 1.238 . S
O11 Co5 2.052 . S
O11 C7 1.241 . S
O12 Co0 2.137 . S
O12 C3 1.247 . S
O13 Co0 2.244 . S
O13 C3 1.272 . S
O13 Co5 2.135 1_554 S
Co14 O15 2.222 . S
Co14 O16 2.091 . S
Co14 O18 2.004 . S
Co14 O24 2.021 1_554 S
Co14 O26 2.137 . S
Co14 O27 2.244 . S
O15 Co14 2.222 . S
O15 C22 1.260 . S
O16 Co14 2.091 . S
O16 C22 1.261 . S
C17 O26 1.247 . S
C17 O27 1.272 . S
O18 Co14 2.004 . S
O18 C23 1.259 . S
Co19 O20 2.061 . S
Co19 O25 2.052 . S
Co19 O27 2.135 1_556 S
O20 Co19 2.061 . S
O20 C23 1.235 1_556 S
C21 O24 1.238 . S
C21 O25 1.241 . S
C22 O15 1.260 . S
C22 O16 1.261 . S
C23 O18 1.259 . S
C23 O20 1.235 1_554 S
O24 Co14 2.021 1_556 S
O24 C21 1.238 . S
O25 Co19 2.052 . S
O25 C21 1.241 . S
O26 Co14 2.137 . S
O26 C17 1.247 . S
O27 Co14 2.244 . S
O27 C17 1.272 . S
O27 Co19 2.135 1_554 S
Co28 O29 2.222 . S
Co28 O30 2.091 . S
Co28 O32 2.004 . S
Co28 O38 2.021 1_554 S
Co28 O40 2.137 . S
Co28 O41 2.244 . S
O29 Co28 2.222 . S
O29 C36 1.260 . S
O30 Co28 2.091 . S
O30 C36 1.261 . S
C31 O40 1.247 . S
C31 O41 1.272 . S
O32 Co28 2.004 . S
O32 C37 1.259 . S
Co33 O34 2.061 . S
Co33 O39 2.052 . S
Co33 O41 2.135 1_556 S
O34 Co33 2.061 . S
O34 C37 1.235 1_556 S
C35 O38 1.238 . S
C35 O39 1.241 . S
C36 O29 1.260 . S
C36 O30 1.261 . S
C37 O32 1.259 . S
C37 O34 1.235 1_554 S
O38 Co28 2.021 1_556 S
O38 C35 1.238 . S
O39 Co33 2.052 . S
O39 C35 1.241 . S
O40 Co28 2.137 . S
O40 C31 1.247 . S
O41 Co28 2.244 . S
O41 C31 1.272 . S
O41 Co33 2.135 1_554 S
Co42 O43 2.222 . S
Co42 O44 2.091 . S
Co42 O46 2.004 . S
Co42 O52 2.021 1_556 S
Co42 O54 2.137 . S
Co42 O55 2.244 . S
O43 Co42 2.222 . S
O43 C50 1.260 . S
O44 Co42 2.091 . S
O44 C50 1.261 . S
C45 O54 1.247 . S
C45 O55 1.272 . S
O46 Co42 2.004 . S
O46 C51 1.259 . S
Co47 O48 2.061 . S
Co47 O53 2.052 . S
Co47 O55 2.135 1_554 S
O48 Co47 2.061 . S
O48 C51 1.235 1_554 S
C49 O52 1.238 . S
C49 O53 1.241 . S
C50 O43 1.260 . S
C50 O44 1.261 . S
C51 O46 1.259 . S
C51 O48 1.235 1_556 S
O52 Co42 2.021 1_554 S
O52 C49 1.238 . S
O53 Co47 2.052 . S
O53 C49 1.241 . S
O54 Co42 2.137 . S
O54 C45 1.247 . S
O55 Co42 2.244 . S
O55 C45 1.272 . S
O55 Co47 2.135 1_556 S
Co56 O57 2.222 . S
Co56 O58 2.091 . S
Co56 O60 2.004 . S
Co56 O66 2.021 1_556 S
Co56 O68 2.137 . S
Co56 O69 2.244 . S
O57 Co56 2.222 . S
O57 C64 1.260 . S
O58 Co56 2.091 . S
O58 C64 1.261 . S
C59 O68 1.247 . S
C59 O69 1.272 . S
O60 Co56 2.004 . S
O60 C65 1.259 . S
Co61 O62 2.061 . S
Co61 O67 2.052 . S
Co61 O69 2.135 1_554 S
O62 Co61 2.061 . S
O62 C65 1.235 1_554 S
C63 O66 1.238 . S
C63 O67 1.241 . S
C64 O57 1.260 . S
C64 O58 1.261 . S
C65 O60 1.259 . S
C65 O62 1.235 1_556 S
O66 Co56 2.021 1_554 S
O66 C63 1.238 . S
O67 Co61 2.052 . S
O67 C63 1.241 . S
O68 Co56 2.137 . S
O68 C59 1.247 . S
O69 Co56 2.244 . S
O69 C59 1.272 . S
O69 Co61 2.135 1_556 S
Co70 O71 2.222 . S
Co70 O72 2.091 . S
Co70 O74 2.004 . S
Co70 O80 2.021 1_556 S
Co70 O82 2.137 . S
Co70 O83 2.244 . S
O71 Co70 2.222 . S
O71 C78 1.260 . S
O72 Co70 2.091 . S
O72 C78 1.261 . S
C73 O82 1.247 . S
C73 O83 1.272 . S
O74 Co70 2.004 . S
O74 C79 1.259 . S
Co75 O76 2.061 . S
Co75 O81 2.052 . S
Co75 O83 2.135 1_554 S
O76 Co75 2.061 . S
O76 C79 1.235 1_554 S
C77 O80 1.238 . S
C77 O81 1.241 . S
C78 O71 1.260 . S
C78 O72 1.261 . S
C79 O74 1.259 . S
C79 O76 1.235 1_556 S
O80 Co70 2.021 1_554 S
O80 C77 1.238 . S
O81 Co75 2.052 . S
O81 C77 1.241 . S
O82 Co70 2.137 . S
O82 C73 1.247 . S
O83 Co70 2.244 . S
O83 C73 1.272 . S
O83 Co75 2.135 1_556 S
Co84 O85 2.222 . S
Co84 O86 2.091 . S
Co84 O88 2.004 . S
Co84 O94 2.021 1_556 S
Co84 O96 2.137 . S
Co84 O97 2.244 . S
O85 Co84 2.222 . S
O85 C92 1.260 . S
O86 Co84 2.091 . S
O86 C92 1.261 . S
C87 O96 1.247 . S
C87 O97 1.272 . S
O88 Co84 2.004 . S
O88 C93 1.259 . S
Co89 O90 2.061 . S
Co89 O95 2.052 . S
Co89 O97 2.135 1_554 S
O90 Co89 2.061 . S
O90 C93 1.235 1_554 S
C91 O94 1.238 . S
C91 O95 1.241 . S
C92 O85 1.260 . S
C92 O86 1.261 . S
C93 O88 1.259 . S
C93 O90 1.235 1_556 S
O94 Co84 2.021 1_554 S
O94 C91 1.238 . S
O95 Co89 2.052 . S
O95 C91 1.241 . S
O96 Co84 2.137 . S
O96 C87 1.247 . S
O97 Co84 2.244 . S
O97 C87 1.272 . S
O97 Co89 2.135 1_556 S
Co98 O99 2.222 . S
Co98 O100 2.091 . S
Co98 O102 2.004 . S
Co98 O108 2.021 1_556 S
Co98 O110 2.137 . S
Co98 O111 2.244 . S
O99 Co98 2.222 . S
O99 C106 1.260 . S
O100 Co98 2.091 . S
O100 C106 1.261 . S
C101 O110 1.247 . S
C101 O111 1.272 . S
O102 Co98 2.004 . S
O102 C107 1.259 . S
Co103 O104 2.061 . S
Co103 O109 2.052 . S
Co103 O111 2.135 1_554 S
O104 Co103 2.061 . S
O104 C107 1.235 1_554 S
C105 O108 1.238 . S
C105 O109 1.241 . S
C106 O99 1.260 . S
C106 O100 1.261 . S
C107 O102 1.259 . S
C107 O104 1.235 1_556 S
O108 Co98 2.021 1_554 S
O108 C105 1.238 . S
O109 Co103 2.052 . S
O109 C105 1.241 . S
O110 Co98 2.137 . S
O110 C101 1.247 . S
O111 Co98 2.244 . S
O111 C101 1.272 . S
O111 Co103 2.135 1_556 S
Co112 O113 2.222 . S
Co112 O114 2.091 . S
Co112 O116 2.004 . S
Co112 O122 2.021 1_556 S
Co112 O124 2.137 . S
Co112 O125 2.244 . S
O113 Co112 2.222 . S
O113 C120 1.260 . S
O114 Co112 2.091 . S
O114 C120 1.261 . S
C115 O124 1.247 . S
C115 O125 1.272 . S
O116 Co112 2.004 . S
O116 C121 1.259 . S
Co117 O118 2.061 . S
Co117 O123 2.052 . S
Co117 O125 2.135 1_554 S
O118 Co117 2.061 . S
O118 C121 1.235 1_554 S
C119 O122 1.238 . S
C119 O123 1.241 . S
C120 O113 1.260 . S
C120 O114 1.261 . S
C121 O116 1.259 . S
C121 O118 1.235 1_556 S
O122 Co112 2.021 1_554 S
O122 C119 1.238 . S
O123 Co117 2.052 . S
O123 C119 1.241 . S
O124 Co112 2.137 . S
O124 C115 1.247 . S
O125 Co112 2.244 . S
O125 C115 1.272 . S
O125 Co117 2.135 1_556 S
Co126 O127 2.222 . S
Co126 O128 2.091 . S
Co126 O130 2.004 . S
Co126 O136 2.021 1_554 S
Co126 O138 2.137 . S
Co126 O139 2.244 . S
O127 Co126 2.222 . S
O127 C134 1.260 . S
O128 Co126 2.091 . S
O128 C134 1.261 . S
C129 O138 1.247 . S
C129 O139 1.272 . S
O130 Co126 2.004 . S
O130 C135 1.259 . S
Co131 O132 2.061 . S
Co131 O137 2.052 . S
Co131 O139 2.135 1_556 S
O132 Co131 2.061 . S
O132 C135 1.235 1_556 S
C133 O136 1.238 . S
C133 O137 1.241 . S
C134 O127 1.260 . S
C134 O128 1.261 . S
C135 O130 1.259 . S
C135 O132 1.235 1_554 S
O136 Co126 2.021 1_556 S
O136 C133 1.238 . S
O137 Co131 2.052 . S
O137 C133 1.241 . S
O138 Co126 2.137 . S
O138 C129 1.247 . S
O139 Co126 2.244 . S
O139 C129 1.272 . S
O139 Co131 2.135 1_554 S
Co140 O141 2.222 . S
Co140 O142 2.091 . S
Co140 O144 2.004 . S
Co140 O150 2.021 1_554 S
Co140 O152 2.137 . S
Co140 O153 2.244 . S
O141 Co140 2.222 . S
O141 C148 1.260 . S
O142 Co140 2.091 . S
O142 C148 1.261 . S
C143 O152 1.247 . S
C143 O153 1.272 . S
O144 Co140 2.004 . S
O144 C149 1.259 . S
Co145 O146 2.061 . S
Co145 O151 2.052 . S
Co145 O153 2.135 1_556 S
O146 Co145 2.061 . S
O146 C149 1.235 1_556 S
C147 O150 1.238 . S
C147 O151 1.241 . S
C148 O141 1.260 . S
C148 O142 1.261 . S
C149 O144 1.259 . S
C149 O146 1.235 1_554 S
O150 Co140 2.021 1_556 S
O150 C147 1.238 . S
O151 Co145 2.052 . S
O151 C147 1.241 . S
O152 Co140 2.137 . S
O152 C143 1.247 . S
O153 Co140 2.244 . S
O153 C143 1.272 . S
O153 Co145 2.135 1_554 S
Co154 O155 2.222 . S
Co154 O156 2.091 . S
Co154 O158 2.004 . S
Co154 O164 2.021 1_554 S
Co154 O166 2.137 . S
Co154 O167 2.244 . S
O155 Co154 2.222 . S
O155 C162 1.260 . S
O156 Co154 2.091 . S
O156 C162 1.261 . S
C157 O166 1.247 . S
C157 O167 1.272 . S
O158 Co154 2.004 . S
O158 C163 1.259 . S
Co159 O160 2.061 . S
Co159 O165 2.052 . S
Co159 O167 2.135 1_556 S
O160 Co159 2.061 . S
O160 C163 1.235 1_556 S
C161 O164 1.238 . S
C161 O165 1.241 . S
C162 O155 1.260 . S
C162 O156 1.261 . S
C163 O158 1.259 . S
C163 O160 1.235 1_554 S
O164 Co154 2.021 1_556 S
O164 C161 1.238 . S
O165 Co159 2.052 . S
O165 C161 1.241 . S
O166 Co154 2.137 . S
O166 C157 1.247 . S
O167 Co154 2.244 . S
O167 C157 1.272 . S
O167 Co159 2.135 1_554 S
Co168 O169 2.216 . S
Co168 O170 2.091 . S
Co168 O172 2.004 . S
Co168 O178 2.021 . S
Co168 O180 2.137 . S
Co168 O181 2.244 . S
O169 Co168 2.216 . S
O169 C176 1.247 . S
O170 Co168 2.091 . S
O170 C176 1.261 . S
C171 O180 1.247 . S
C171 O181 1.272 . S
O172 Co168 2.004 . S
O172 C177 1.259 . S
Co173 O174 2.061 . S
Co173 O179 2.052 . S
Co173 O181 2.135 . S
O174 Co173 2.061 . S
O174 C177 1.235 . S
C175 O178 1.238 . S
C175 O179 1.241 . S
C176 O169 1.247 . S
C176 O170 1.261 . S
C177 O172 1.259 . S
C177 O174 1.235 . S
O178 Co168 2.021 . S
O178 C175 1.238 . S
O179 Co173 2.052 . S
O179 C175 1.241 . S
O180 Co168 2.137 . S
O180 C171 1.247 . S
O181 Co168 2.244 . S
O181 C171 1.272 . S
O181 Co173 2.135 . S
Co182 O183 2.216 . S
Co182 O184 2.091 . S
Co182 O186 2.004 . S
Co182 O192 2.021 . S
Co182 O194 2.137 . S
Co182 O195 2.244 . S
O183 Co182 2.216 . S
O183 C190 1.247 . S
O184 Co182 2.091 . S
O184 C190 1.261 . S
C185 O194 1.247 . S
C185 O195 1.272 . S
O186 Co182 2.004 . S
O186 C191 1.259 . S
Co187 O188 2.061 1_565 S
Co187 O193 2.052 1_565 S
Co187 O195 2.135 1_565 S
O188 Co187 2.061 1_545 S
O188 C191 1.235 . S
C189 O192 1.238 . S
C189 O193 1.241 . S
C190 O183 1.247 . S
C190 O184 1.261 . S
C191 O186 1.259 . S
C191 O188 1.235 . S
O192 Co182 2.021 . S
O192 C189 1.238 . S
O193 Co187 2.052 1_545 S
O193 C189 1.241 . S
O194 Co182 2.137 . S
O194 C185 1.247 . S
O195 Co182 2.244 . S
O195 C185 1.272 . S
O195 Co187 2.135 1_545 S
Co196 O197 2.216 . S
Co196 O198 2.091 . S
Co196 O200 2.004 . S
Co196 O206 2.021 . S
Co196 O208 2.137 . S
Co196 O209 2.244 . S
O197 Co196 2.216 . S
O197 C204 1.247 . S
O198 Co196 2.091 . S
O198 C204 1.261 . S
C199 O208 1.247 . S
C199 O209 1.272 . S
O200 Co196 2.004 . S
O200 C205 1.259 . S
Co201 O202 2.061 1_455 S
Co201 O207 2.052 1_455 S
Co201 O209 2.135 1_455 S
O202 Co201 2.061 1_655 S
O202 C205 1.235 . S
C203 O206 1.238 . S
C203 O207 1.241 . S
C204 O197 1.247 . S
C204 O198 1.261 . S
C205 O200 1.259 . S
C205 O202 1.235 . S
O206 Co196 2.021 . S
O206 C203 1.238 . S
O207 Co201 2.052 1_655 S
O207 C203 1.241 . S
O208 Co196 2.137 . S
O208 C199 1.247 . S
O209 Co196 2.244 . S
O209 C199 1.272 . S
O209 Co201 2.135 1_655 S
Co210 O211 2.216 . S
Co210 O212 2.091 . S
Co210 O214 2.004 . S
Co210 O220 2.021 . S
Co210 O222 2.137 . S
Co210 O223 2.244 . S
O211 Co210 2.216 . S
O211 C218 1.247 . S
O212 Co210 2.091 . S
O212 C218 1.261 . S
C213 O222 1.247 . S
C213 O223 1.272 . S
O214 Co210 2.004 . S
O214 C219 1.259 . S
Co215 O216 2.061 . S
Co215 O221 2.052 . S
Co215 O223 2.135 . S
O216 Co215 2.061 . S
O216 C219 1.235 . S
C217 O220 1.238 . S
C217 O221 1.241 . S
C218 O211 1.247 . S
C218 O212 1.261 . S
C219 O214 1.259 . S
C219 O216 1.235 . S
O220 Co210 2.021 . S
O220 C217 1.238 . S
O221 Co215 2.052 . S
O221 C217 1.241 . S
O222 Co210 2.137 . S
O222 C213 1.247 . S
O223 Co210 2.244 . S
O223 C213 1.272 . S
O223 Co215 2.135 . S
Co224 O225 2.216 . S
Co224 O226 2.091 . S
Co224 O228 2.004 . S
Co224 O234 2.021 . S
Co224 O236 2.137 . S
Co224 O237 2.244 . S
O225 Co224 2.216 . S
O225 C232 1.247 . S
O226 Co224 2.091 . S
O226 C232 1.261 . S
C227 O236 1.247 . S
C227 O237 1.272 . S
O228 Co224 2.004 . S
O228 C233 1.259 . S
Co229 O230 2.061 . S
Co229 O235 2.052 . S
Co229 O237 2.135 . S
O230 Co229 2.061 . S
O230 C233 1.235 . S
C231 O234 1.238 . S
C231 O235 1.241 . S
C232 O225 1.247 . S
C232 O226 1.261 . S
C233 O228 1.259 . S
C233 O230 1.235 . S
O234 Co224 2.021 . S
O234 C231 1.238 . S
O235 Co229 2.052 . S
O235 C231 1.241 . S
O236 Co224 2.137 . S
O236 C227 1.247 . S
O237 Co224 2.244 . S
O237 C227 1.272 . S
O237 Co229 2.135 . S
Co238 O239 2.216 . S
Co238 O240 2.091 . S
Co238 O242 2.004 . S
Co238 O248 2.021 . S
Co238 O250 2.137 . S
Co238 O251 2.244 . S
O239 Co238 2.216 . S
O239 C246 1.247 . S
O240 Co238 2.091 . S
O240 C246 1.261 . S
C241 O250 1.247 . S
C241 O251 1.272 . S
O242 Co238 2.004 . S
O242 C247 1.259 . S
Co243 O244 2.061 . S
Co243 O249 2.052 . S
Co243 O251 2.135 . S
O244 Co243 2.061 . S
O244 C247 1.235 . S
C245 O248 1.238 . S
C245 O249 1.241 . S
C246 O239 1.247 . S
C246 O240 1.261 . S
C247 O242 1.259 . S
C247 O244 1.235 . S
O248 Co238 2.021 . S
O248 C245 1.238 . S
O249 Co243 2.052 . S
O249 C245 1.241 . S
O250 Co238 2.137 . S
O250 C241 1.247 . S
O251 Co238 2.244 . S
O251 C241 1.272 . S
O251 Co243 2.135 . S
Co252 O253 2.216 . S
Co252 O254 2.091 . S
Co252 O256 2.004 . S
Co252 O262 2.021 . S
Co252 O264 2.137 . S
Co252 O265 2.244 . S
O253 Co252 2.216 . S
O253 C260 1.247 . S
O254 Co252 2.091 . S
O254 C260 1.261 . S
C255 O264 1.247 . S
C255 O265 1.272 . S
O256 Co252 2.004 . S
O256 C261 1.259 . S
Co257 O258 2.061 . S
Co257 O263 2.052 . S
Co257 O265 2.135 . S
O258 Co257 2.061 . S
O258 C261 1.235 . S
C259 O262 1.238 . S
C259 O263 1.241 . S
C260 O253 1.247 . S
C260 O254 1.261 . S
C261 O256 1.259 . S
C261 O258 1.235 . S
O262 Co252 2.021 . S
O262 C259 1.238 . S
O263 Co257 2.052 . S
O263 C259 1.241 . S
O264 Co252 2.137 . S
O264 C255 1.247 . S
O265 Co252 2.244 . S
O265 C255 1.272 . S
O265 Co257 2.135 . S
Co266 O267 2.216 . S
Co266 O268 2.091 . S
Co266 O270 2.004 . S
Co266 O276 2.021 . S
Co266 O278 2.137 . S
Co266 O279 2.244 . S
O267 Co266 2.216 . S
O267 C274 1.247 . S
O268 Co266 2.091 . S
O268 C274 1.261 . S
C269 O278 1.247 . S
C269 O279 1.272 . S
O270 Co266 2.004 . S
O270 C275 1.259 . S
Co271 O272 2.061 . S
Co271 O277 2.052 . S
Co271 O279 2.135 . S
O272 Co271 2.061 . S
O272 C275 1.235 . S
C273 O276 1.238 . S
C273 O277 1.241 . S
C274 O267 1.247 . S
C274 O268 1.261 . S
C275 O270 1.259 . S
C275 O272 1.235 . S
O276 Co266 2.021 . S
O276 C273 1.238 . S
O277 Co271 2.052 . S
O277 C273 1.241 . S
O278 Co266 2.137 . S
O278 C269 1.247 . S
O279 Co266 2.244 . S
O279 C269 1.272 . S
O279 Co271 2.135 . S
Co280 O281 2.216 . S
Co280 O282 2.091 . S
Co280 O284 2.004 . S
Co280 O290 2.021 . S
Co280 O292 2.137 . S
Co280 O293 2.244 . S
O281 Co280 2.216 . S
O281 C288 1.247 . S
O282 Co280 2.091 . S
O282 C288 1.261 . S
C283 O292 1.247 . S
C283 O293 1.272 . S
O284 Co280 2.004 . S
O284 C289 1.259 . S
Co285 O286 2.061 . S
Co285 O291 2.052 . S
Co285 O293 2.135 . S
O286 Co285 2.061 . S
O286 C289 1.235 . S
C287 O290 1.238 . S
C287 O291 1.241 . S
C288 O281 1.247 . S
C288 O282 1.261 . S
C289 O284 1.259 . S
C289 O286 1.235 . S
O290 Co280 2.021 . S
O290 C287 1.238 . S
O291 Co285 2.052 . S
O291 C287 1.241 . S
O292 Co280 2.137 . S
O292 C283 1.247 . S
O293 Co280 2.244 . S
O293 C283 1.272 . S
O293 Co285 2.135 . S
Co294 O295 2.216 . S
Co294 O296 2.091 . S
Co294 O298 2.004 . S
Co294 O304 2.021 . S
Co294 O306 2.137 . S
Co294 O307 2.244 . S
O295 Co294 2.216 . S
O295 C302 1.247 . S
O296 Co294 2.091 . S
O296 C302 1.261 . S
C297 O306 1.247 . S
C297 O307 1.272 . S
O298 Co294 2.004 . S
O298 C303 1.259 . S
Co299 O300 2.061 . S
Co299 O305 2.052 . S
Co299 O307 2.135 . S
O300 Co299 2.061 . S
O300 C303 1.235 . S
C301 O304 1.238 . S
C301 O305 1.241 . S
C302 O295 1.247 . S
C302 O296 1.261 . S
C303 O298 1.259 . S
C303 O300 1.235 . S
O304 Co294 2.021 . S
O304 C301 1.238 . S
O305 Co299 2.052 . S
O305 C301 1.241 . S
O306 Co294 2.137 . S
O306 C297 1.247 . S
O307 Co294 2.244 . S
O307 C297 1.272 . S
O307 Co299 2.135 . S
Co308 O309 2.216 . S
Co308 O310 2.091 . S
Co308 O312 2.004 . S
Co308 O318 2.021 . S
Co308 O320 2.137 . S
Co308 O321 2.244 . S
O309 Co308 2.216 . S
O309 C316 1.247 . S
O310 Co308 2.091 . S
O310 C316 1.261 . S
C311 O320 1.247 . S
C311 O321 1.272 . S
O312 Co308 2.004 . S
O312 C317 1.259 . S
Co313 O314 2.061 1_565 S
Co313 O319 2.052 1_565 S
Co313 O321 2.135 1_565 S
O314 Co313 2.061 1_545 S
O314 C317 1.235 . S
C315 O318 1.238 . S
C315 O319 1.241 . S
C316 O309 1.247 . S
C316 O310 1.261 . S
C317 O312 1.259 . S
C317 O314 1.235 . S
O318 Co308 2.021 . S
O318 C315 1.238 . S
O319 Co313 2.052 1_545 S
O319 C315 1.241 . S
O320 Co308 2.137 . S
O320 C311 1.247 . S
O321 Co308 2.244 . S
O321 C311 1.272 . S
O321 Co313 2.135 1_545 S
Co322 O323 2.216 . S
Co322 O324 2.091 . S
Co322 O326 2.004 . S
Co322 O332 2.021 . S
Co322 O334 2.137 . S
Co322 O335 2.244 . S
O323 Co322 2.216 . S
O323 C330 1.247 . S
O324 Co322 2.091 . S
O324 C330 1.261 . S
C325 O334 1.247 . S
C325 O335 1.272 . S
O326 Co322 2.004 . S
O326 C331 1.259 . S
Co327 O328 2.061 1_455 S
Co327 O333 2.052 1_455 S
Co327 O335 2.135 1_455 S
O328 Co327 2.061 1_655 S
O328 C331 1.235 . S
C329 O332 1.238 . S
C329 O333 1.241 . S
C330 O323 1.247 . S
C330 O324 1.261 . S
C331 O326 1.259 . S
C331 O328 1.235 . S
O332 Co322 2.021 . S
O332 C329 1.238 . S
O333 Co327 2.052 1_655 S
O333 C329 1.241 . S
O334 Co322 2.137 . S
O334 C325 1.247 . S
O335 Co322 2.244 . S
O335 C325 1.272 . S
O335 Co327 2.135 1_655 S
Co336 O337 2.216 . S
Co336 O338 2.091 . S
Co336 O340 2.004 . S
Co336 O346 2.021 . S
Co336 O348 2.137 . S
Co336 O349 2.244 . S
O337 Co336 2.216 . S
O337 C344 1.247 . S
O338 Co336 2.091 . S
O338 C344 1.261 . S
C339 O348 1.247 . S
C339 O349 1.272 . S
O340 Co336 2.004 . S
O340 C345 1.259 . S
Co341 O342 2.061 . S
Co341 O347 2.052 . S
Co341 O349 2.135 . S
O342 Co341 2.061 . S
O342 C345 1.235 . S
C343 O346 1.238 . S
C343 O347 1.241 . S
C344 O337 1.247 . S
C344 O338 1.261 . S
C345 O340 1.259 . S
C345 O342 1.235 . S
O346 Co336 2.021 . S
O346 C343 1.238 . S
O347 Co341 2.052 . S
O347 C343 1.241 . S
O348 Co336 2.137 . S
O348 C339 1.247 . S
O349 Co336 2.244 . S
O349 C339 1.272 . S
O349 Co341 2.135 . S
Co350 O351 2.216 . S
Co350 O352 2.091 . S
Co350 O354 2.004 . S
Co350 O360 2.021 . S
Co350 O362 2.137 . S
Co350 O363 2.244 . S
O351 Co350 2.216 . S
O351 C358 1.247 . S
O352 Co350 2.091 . S
O352 C358 1.261 . S
C353 O362 1.247 . S
C353 O363 1.272 . S
O354 Co350 2.004 . S
O354 C359 1.259 . S
Co355 O356 2.061 . S
Co355 O361 2.052 . S
Co355 O363 2.135 . S
O356 Co355 2.061 . S
O356 C359 1.235 . S
C357 O360 1.238 . S
C357 O361 1.241 . S
C358 O351 1.247 . S
C358 O352 1.261 . S
C359 O354 1.259 . S
C359 O356 1.235 . S
O360 Co350 2.021 . S
O360 C357 1.238 . S
O361 Co355 2.052 . S
O361 C357 1.241 . S
O362 Co350 2.137 . S
O362 C353 1.247 . S
O363 Co350 2.244 . S
O363 C353 1.272 . S
O363 Co355 2.135 . S
Co364 O365 2.216 . S
Co364 O366 2.091 . S
Co364 O368 2.004 . S
Co364 O374 2.021 . S
Co364 O376 2.137 . S
Co364 O377 2.244 . S
O365 Co364 2.216 . S
O365 C372 1.247 . S
O366 Co364 2.091 . S
O366 C372 1.261 . S
C367 O376 1.247 . S
C367 O377 1.272 . S
O368 Co364 2.004 . S
O368 C373 1.259 . S
Co369 O370 2.061 . S
Co369 O375 2.052 . S
Co369 O377 2.135 . S
O370 Co369 2.061 . S
O370 C373 1.235 . S
C371 O374 1.238 . S
C371 O375 1.241 . S
C372 O365 1.247 . S
C372 O366 1.261 . S
C373 O368 1.259 . S
C373 O370 1.235 . S
O374 Co364 2.021 . S
O374 C371 1.238 . S
O375 Co369 2.052 . S
O375 C371 1.241 . S
O376 Co364 2.137 . S
O376 C367 1.247 . S
O377 Co364 2.244 . S
O377 C367 1.272 . S
O377 Co369 2.135 . S
Co378 O379 2.216 . S
Co378 O380 2.091 . S
Co378 O382 2.004 . S
Co378 O388 2.021 . S
Co378 O390 2.137 . S
Co378 O391 2.244 . S
O379 Co378 2.216 . S
O379 C386 1.247 . S
O380 Co378 2.091 . S
O380 C386 1.261 . S
C381 O390 1.247 . S
C381 O391 1.272 . S
O382 Co378 2.004 . S
O382 C387 1.259 . S
Co383 O384 2.061 . S
Co383 O389 2.052 . S
Co383 O391 2.135 . S
O384 Co383 2.061 . S
O384 C387 1.235 . S
C385 O388 1.238 . S
C385 O389 1.241 . S
C386 O379 1.247 . S
C386 O380 1.261 . S
C387 O382 1.259 . S
C387 O384 1.235 . S
O388 Co378 2.021 . S
O388 C385 1.238 . S
O389 Co383 2.052 . S
O389 C385 1.241 . S
O390 Co378 2.137 . S
O390 C381 1.247 . S
O391 Co378 2.244 . S
O391 C381 1.272 . S
O391 Co383 2.135 . S
Co392 O393 2.216 . S
Co392 O394 2.091 . S
Co392 O396 2.004 . S
Co392 O402 2.021 . S
Co392 O404 2.137 . S
Co392 O405 2.244 . S
O393 Co392 2.216 . S
O393 C400 1.247 . S
O394 Co392 2.091 . S
O394 C400 1.261 . S
C395 O404 1.247 . S
C395 O405 1.272 . S
O396 Co392 2.004 . S
O396 C401 1.259 . S
Co397 O398 2.061 1_545 S
Co397 O403 2.052 1_545 S
Co397 O405 2.135 1_545 S
O398 Co397 2.061 1_565 S
O398 C401 1.235 . S
C399 O402 1.238 . S
C399 O403 1.241 . S
C400 O393 1.247 . S
C400 O394 1.261 . S
C401 O396 1.259 . S
C401 O398 1.235 . S
O402 Co392 2.021 . S
O402 C399 1.238 . S
O403 Co397 2.052 1_565 S
O403 C399 1.241 . S
O404 Co392 2.137 . S
O404 C395 1.247 . S
O405 Co392 2.244 . S
O405 C395 1.272 . S
O405 Co397 2.135 1_565 S
Co406 O407 2.216 . S
Co406 O408 2.091 . S
Co406 O410 2.004 . S
Co406 O416 2.021 . S
Co406 O418 2.137 . S
Co406 O419 2.244 . S
O407 Co406 2.216 . S
O407 C414 1.247 . S
O408 Co406 2.091 . S
O408 C414 1.261 . S
C409 O418 1.247 . S
C409 O419 1.272 . S
O410 Co406 2.004 . S
O410 C415 1.259 . S
Co411 O412 2.061 1_655 S
Co411 O417 2.052 1_655 S
Co411 O419 2.135 1_655 S
O412 Co411 2.061 1_455 S
O412 C415 1.235 . S
C413 O416 1.238 . S
C413 O417 1.241 . S
C414 O407 1.247 . S
C414 O408 1.261 . S
C415 O410 1.259 . S
C415 O412 1.235 . S
O416 Co406 2.021 . S
O416 C413 1.238 . S
O417 Co411 2.052 1_455 S
O417 C413 1.241 . S
O418 Co406 2.137 . S
O418 C409 1.247 . S
O419 Co406 2.244 . S
O419 C409 1.272 . S
O419 Co411 2.135 1_455 S
Co420 O421 2.216 . S
Co420 O422 2.091 . S
Co420 O424 2.004 . S
Co420 O430 2.021 . S
Co420 O432 2.137 . S
Co420 O433 2.244 . S
O421 Co420 2.216 . S
O421 C428 1.247 . S
O422 Co420 2.091 . S
O422 C428 1.261 . S
C423 O432 1.247 . S
C423 O433 1.272 . S
O424 Co420 2.004 . S
O424 C429 1.259 . S
Co425 O426 2.061 . S
Co425 O431 2.052 . S
Co425 O433 2.135 . S
O426 Co425 2.061 . S
O426 C429 1.235 . S
C427 O430 1.238 . S
C427 O431 1.241 . S
C428 O421 1.247 . S
C428 O422 1.261 . S
C429 O424 1.259 . S
C429 O426 1.235 . S
O430 Co420 2.021 . S
O430 C427 1.238 . S
O431 Co425 2.052 . S
O431 C427 1.241 . S
O432 Co420 2.137 . S
O432 C423 1.247 . S
O433 Co420 2.244 . S
O433 C423 1.272 . S
O433 Co425 2.135 . S
Co434 O435 2.216 . S
Co434 O436 2.091 . S
Co434 O438 2.004 . S
Co434 O444 2.021 . S
Co434 O446 2.137 . S
Co434 O447 2.244 . S
O435 Co434 2.216 . S
O435 C442 1.247 . S
O436 Co434 2.091 . S
O436 C442 1.261 . S
C437 O446 1.247 . S
C437 O447 1.272 . S
O438 Co434 2.004 . S
O438 C443 1.259 . S
Co439 O440 2.061 1_545 S
Co439 O445 2.052 1_545 S
Co439 O447 2.135 1_545 S
O440 Co439 2.061 1_565 S
O440 C443 1.235 . S
C441 O444 1.238 . S
C441 O445 1.241 . S
C442 O435 1.247 . S
C442 O436 1.261 . S
C443 O438 1.259 . S
C443 O440 1.235 . S
O444 Co434 2.021 . S
O444 C441 1.238 . S
O445 Co439 2.052 1_565 S
O445 C441 1.241 . S
O446 Co434 2.137 . S
O446 C437 1.247 . S
O447 Co434 2.244 . S
O447 C437 1.272 . S
O447 Co439 2.135 1_565 S
Co448 O449 2.216 . S
Co448 O450 2.091 . S
Co448 O452 2.004 . S
Co448 O458 2.021 . S
Co448 O460 2.137 . S
Co448 O461 2.244 . S
O449 Co448 2.216 . S
O449 C456 1.247 . S
O450 Co448 2.091 . S
O450 C456 1.261 . S
C451 O460 1.247 . S
C451 O461 1.272 . S
O452 Co448 2.004 . S
O452 C457 1.259 . S
Co453 O454 2.061 1_655 S
Co453 O459 2.052 1_655 S
Co453 O461 2.135 1_655 S
O454 Co453 2.061 1_455 S
O454 C457 1.235 . S
C455 O458 1.238 . S
C455 O459 1.241 . S
C456 O449 1.247 . S
C456 O450 1.261 . S
C457 O452 1.259 . S
C457 O454 1.235 . S
O458 Co448 2.021 . S
O458 C455 1.238 . S
O459 Co453 2.052 1_455 S
O459 C455 1.241 . S
O460 Co448 2.137 . S
O460 C451 1.247 . S
O461 Co448 2.244 . S
O461 C451 1.272 . S
O461 Co453 2.135 1_455 S
Co462 O463 2.216 . S
Co462 O464 2.091 . S
Co462 O466 2.004 . S
Co462 O472 2.021 . S
Co462 O474 2.137 . S
Co462 O475 2.244 . S
O463 Co462 2.216 . S
O463 C470 1.247 . S
O464 Co462 2.091 . S
O464 C470 1.261 . S
C465 O474 1.247 . S
C465 O475 1.272 . S
O466 Co462 2.004 . S
O466 C471 1.259 . S
Co467 O468 2.061 . S
Co467 O473 2.052 . S
Co467 O475 2.135 . S
O468 Co467 2.061 . S
O468 C471 1.235 . S
C469 O472 1.238 . S
C469 O473 1.241 . S
C470 O463 1.247 . S
C470 O464 1.261 . S
C471 O466 1.259 . S
C471 O468 1.235 . S
O472 Co462 2.021 . S
O472 C469 1.238 . S
O473 Co467 2.052 . S
O473 C469 1.241 . S
O474 Co462 2.137 . S
O474 C465 1.247 . S
O475 Co462 2.244 . S
O475 C465 1.272 . S
O475 Co467 2.135 . S
Co476 O477 2.216 . S
Co476 O478 2.091 . S
Co476 O480 2.004 . S
Co476 O486 2.021 . S
Co476 O488 2.137 . S
Co476 O489 2.244 . S
O477 Co476 2.216 . S
O477 C484 1.247 . S
O478 Co476 2.091 . S
O478 C484 1.261 . S
C479 O488 1.247 . S
C479 O489 1.272 . S
O480 Co476 2.004 . S
O480 C485 1.259 . S
Co481 O482 2.061 . S
Co481 O487 2.052 . S
Co481 O489 2.135 . S
O482 Co481 2.061 . S
O482 C485 1.235 . S
C483 O486 1.238 . S
C483 O487 1.241 . S
C484 O477 1.247 . S
C484 O478 1.261 . S
C485 O480 1.259 . S
C485 O482 1.235 . S
O486 Co476 2.021 . S
O486 C483 1.238 . S
O487 Co481 2.052 . S
O487 C483 1.241 . S
O488 Co476 2.137 . S
O488 C479 1.247 . S
O489 Co476 2.244 . S
O489 C479 1.272 . S
O489 Co481 2.135 . S
Co490 O491 2.216 . S
Co490 O492 2.091 . S
Co490 O494 2.004 . S
Co490 O500 2.021 . S
Co490 O502 2.137 . S
Co490 O503 2.244 . S
O491 Co490 2.216 . S
O491 C498 1.247 . S
O492 Co490 2.091 . S
O492 C498 1.261 . S
C493 O502 1.247 . S
C493 O503 1.272 . S
O494 Co490 2.004 . S
O494 C499 1.259 . S
Co495 O496 2.061 . S
Co495 O501 2.052 . S
Co495 O503 2.135 . S
O496 Co495 2.061 . S
O496 C499 1.235 . S
C497 O500 1.238 . S
C497 O501 1.241 . S
C498 O491 1.247 . S
C498 O492 1.261 . S
C499 O494 1.259 . S
C499 O496 1.235 . S
O500 Co490 2.021 . S
O500 C497 1.238 . S
O501 Co495 2.052 . S
O501 C497 1.241 . S
O502 Co490 2.137 . S
O502 C493 1.247 . S
O503 Co490 2.244 . S
O503 C493 1.272 . S
O503 Co495 2.135 . S
C504 C505 1.349 . S
C504 C506 1.327 1_556 S
C504 H529 0.950 1_556 S
C505 C504 1.349 . S
C505 C521 1.349 . S
C506 C504 1.327 1_554 S
C506 C525 1.429 1_554 S
C506 H530 0.950 . S
C507 C524 1.574 1_655 S
C507 C526 1.368 . S
C507 H531 0.949 . S
H508 C512 0.949 . S
C509 C510 1.349 . S
C509 C511 1.327 1_554 S
C509 H532 0.950 1_554 S
C510 C509 1.349 . S
C510 C522 1.349 . S
C511 C509 1.327 1_556 S
C511 C527 1.429 1_556 S
C511 H533 0.950 . S
C512 H508 0.949 . S
C512 C520 1.574 1_455 S
C512 C528 1.368 . S
H513 C521 0.950 . S
H514 C519 0.950 . S
H515 C520 0.949 . S
H516 C522 0.950 . S
H517 C523 0.950 . S
H518 C524 0.949 . S
C519 H514 0.950 . S
C519 C521 1.327 . S
C519 C525 1.429 . S
C520 C512 1.574 1_655 S
C520 H515 0.949 . S
C520 C526 1.368 1_554 S
C521 C505 1.349 . S
C521 H513 0.950 . S
C521 C519 1.327 . S
C522 C510 1.349 . S
C522 H516 0.950 . S
C522 C523 1.327 . S
C523 H517 0.950 . S
C523 C522 1.327 . S
C523 C527 1.429 . S
C524 C507 1.574 1_455 S
C524 H518 0.949 . S
C524 C528 1.368 1_556 S
C525 C506 1.429 1_556 S
C525 C519 1.429 . S
C525 C526 1.523 . S
C526 C507 1.368 . S
C526 C520 1.368 1_556 S
C526 C525 1.523 . S
C527 C511 1.429 1_554 S
C527 C523 1.429 . S
C527 C528 1.523 . S
C528 C512 1.368 . S
C528 C524 1.368 1_554 S
C528 C527 1.523 . S
H529 C504 0.950 1_554 S
H530 C506 0.950 . S
H531 C507 0.949 . S
H532 C509 0.950 1_556 S
H533 C511 0.950 . S
C534 C535 1.349 1_554 S
C534 C536 1.327 . S
C534 H559 0.950 . S
C535 C534 1.349 1_556 S
C535 C551 1.349 . S
C536 C534 1.327 . S
C536 C555 1.429 1_554 S
C536 H560 0.950 . S
C537 C554 1.574 . S
C537 C556 1.368 . S
C537 H561 0.949 . S
H538 C542 0.949 . S
C539 C540 1.349 1_556 S
C539 C541 1.327 . S
C539 H562 0.950 . S
C540 C539 1.349 1_554 S
C540 C552 1.349 . S
C541 C539 1.327 . S
C541 C557 1.429 1_556 S
C541 H563 0.950 . S
C542 H538 0.949 . S
C542 C550 1.574 . S
C542 C558 1.368 . S
H543 C551 0.950 . S
H544 C549 0.950 . S
H545 C550 0.949 . S
H546 C552 0.950 . S
H547 C553 0.950 . S
H548 C554 0.949 . S
C549 H544 0.950 . S
C549 C551 1.327 . S
C549 C555 1.429 . S
C550 C542 1.574 . S
C550 H545 0.949 . S
C550 C556 1.368 1_554 S
C551 C535 1.349 . S
C551 H543 0.950 . S
C551 C549 1.327 . S
C552 C540 1.349 . S
C552 H546 0.950 . S
C552 C553 1.327 . S
C553 H547 0.950 . S
C553 C552 1.327 . S
C553 C557 1.429 . S
C554 C537 1.574 . S
C554 H548 0.949 . S
C554 C558 1.368 1_556 S
C555 C536 1.429 1_556 S
C555 C549 1.429 . S
C555 C556 1.523 . S
C556 C537 1.368 . S
C556 C550 1.368 1_556 S
C556 C555 1.523 . S
C557 C541 1.429 1_554 S
C557 C553 1.429 . S
C557 C558 1.523 . S
C558 C542 1.368 . S
C558 C554 1.368 1_554 S
C558 C557 1.523 . S
H559 C534 0.950 . S
H560 C536 0.950 . S
H561 C537 0.949 . S
H562 C539 0.950 . S
H563 C541 0.950 . S
C564 C565 1.349 . S
C564 C566 1.327 . S
C564 H589 0.950 . S
C565 C564 1.349 . S
C565 C581 1.349 1_556 S
C566 C564 1.327 . S
C566 C585 1.429 . S
C566 H590 0.950 . S
C567 C584 1.574 1_545 S
C567 C586 1.368 1_554 S
C567 H591 0.949 . S
H568 C572 0.949 . S
C569 C570 1.349 . S
C569 C571 1.327 . S
C569 H592 0.950 . S
C570 C569 1.349 . S
C570 C582 1.349 1_554 S
C571 C569 1.327 . S
C571 C587 1.429 . S
C571 H593 0.950 . S
C572 H568 0.949 . S
C572 C580 1.574 1_565 S
C572 C588 1.368 1_556 S
H573 C581 0.950 . S
H574 C579 0.950 . S
H575 C580 0.949 . S
H576 C582 0.950 . S
H577 C583 0.950 . S
H578 C584 0.949 . S
C579 H574 0.950 . S
C579 C581 1.327 . S
C579 C585 1.429 1_554 S
C580 C572 1.574 1_545 S
C580 H575 0.949 . S
C580 C586 1.368 . S
C581 C565 1.349 1_554 S
C581 H573 0.950 . S
C581 C579 1.327 . S
C582 C570 1.349 1_556 S
C582 H576 0.950 . S
C582 C583 1.327 . S
C583 H577 0.950 . S
C583 C582 1.327 . S
C583 C587 1.429 1_556 S
C584 C567 1.574 1_565 S
C584 H578 0.949 . S
C584 C588 1.368 . S
C585 C566 1.429 . S
C585 C579 1.429 1_556 S
C585 C586 1.523 . S
C586 C567 1.368 1_556 S
C586 C580 1.368 . S
C586 C585 1.523 . S
C587 C571 1.429 . S
C587 C583 1.429 1_554 S
C587 C588 1.523 . S
C588 C572 1.368 1_554 S
C588 C584 1.368 . S
C588 C587 1.523 . S
H589 C564 0.950 . S
H590 C566 0.950 . S
H591 C567 0.949 . S
H592 C569 0.950 . S
H593 C571 0.950 . S
C594 C595 1.349 . S
C594 C596 1.327 . S
C594 H619 0.950 . S
C595 C594 1.349 . S
C595 C611 1.349 1_554 S
C596 C594 1.327 . S
C596 C615 1.429 . S
C596 H620 0.950 . S
C597 C614 1.574 1_455 S
C597 C616 1.368 1_556 S
C597 H621 0.949 . S
H598 C602 0.949 . S
C599 C600 1.349 . S
C599 C601 1.327 . S
C599 H622 0.950 . S
C600 C599 1.349 . S
C600 C612 1.349 1_556 S
C601 C599 1.327 . S
C601 C617 1.429 . S
C601 H623 0.950 . S
C602 H598 0.949 . S
C602 C610 1.574 1_655 S
C602 C618 1.368 1_554 S
H603 C611 0.950 . S
H604 C609 0.950 . S
H605 C610 0.949 . S
H606 C612 0.950 . S
H607 C613 0.950 . S
H608 C614 0.949 . S
C609 H604 0.950 . S
C609 C611 1.327 . S
C609 C615 1.429 1_556 S
C610 C602 1.574 1_455 S
C610 H605 0.949 . S
C610 C616 1.368 . S
C611 C595 1.349 1_556 S
C611 H603 0.950 . S
C611 C609 1.327 . S
C612 C600 1.349 1_554 S
C612 H606 0.950 . S
C612 C613 1.327 . S
C613 H607 0.950 . S
C613 C612 1.327 . S
C613 C617 1.429 1_554 S
C614 C597 1.574 1_655 S
C614 H608 0.949 . S
C614 C618 1.368 . S
C615 C596 1.429 . S
C615 C609 1.429 1_554 S
C615 C616 1.523 . S
C616 C597 1.368 1_554 S
C616 C610 1.368 . S
C616 C615 1.523 . S
C617 C601 1.429 . S
C617 C613 1.429 1_556 S
C617 C618 1.523 . S
C618 C602 1.368 1_556 S
C618 C614 1.368 . S
C618 C617 1.523 . S
H619 C594 0.950 . S
H620 C596 0.950 . S
H621 C597 0.949 . S
H622 C599 0.950 . S
H623 C601 0.950 . S
C624 C625 1.349 . S
C624 C626 1.327 . S
C624 H649 0.950 . S
C625 C624 1.349 . S
C625 C641 1.349 1_556 S
C626 C624 1.327 . S
C626 C645 1.429 . S
C626 H650 0.950 . S
C627 C644 1.574 . S
C627 C646 1.368 1_554 S
C627 H651 0.949 . S
H628 C632 0.949 . S
C629 C630 1.349 . S
C629 C631 1.327 . S
C629 H652 0.950 . S
C630 C629 1.349 . S
C630 C642 1.349 1_554 S
C631 C629 1.327 . S
C631 C647 1.429 . S
C631 H653 0.950 . S
C632 H628 0.949 . S
C632 C640 1.574 . S
C632 C648 1.368 1_556 S
H633 C641 0.950 . S
H634 C639 0.950 . S
H635 C640 0.949 . S
H636 C642 0.950 . S
H637 C643 0.950 . S
H638 C644 0.949 . S
C639 H634 0.950 . S
C639 C641 1.327 . S
C639 C645 1.429 1_554 S
C640 C632 1.574 . S
C640 H635 0.949 . S
C640 C646 1.368 . S
C641 C625 1.349 1_554 S
C641 H633 0.950 . S
C641 C639 1.327 . S
C642 C630 1.349 1_556 S
C642 H636 0.950 . S
C642 C643 1.327 . S
C643 H637 0.950 . S
C643 C642 1.327 . S
C643 C647 1.429 1_556 S
C644 C627 1.574 . S
C644 H638 0.949 . S
C644 C648 1.368 . S
C645 C626 1.429 . S
C645 C639 1.429 1_556 S
C645 C646 1.523 . S
C646 C627 1.368 1_556 S
C646 C640 1.368 . S
C646 C645 1.523 . S
C647 C631 1.429 . S
C647 C643 1.429 1_554 S
C647 C648 1.523 . S
C648 C632 1.368 1_554 S
C648 C644 1.368 . S
C648 C647 1.523 . S
H649 C624 0.950 . S
H650 C626 0.950 . S
H651 C627 0.949 . S
H652 C629 0.950 . S
H653 C631 0.950 . S
C654 C655 1.349 1_556 S
C654 C656 1.327 . S
C654 H679 0.950 . S
C655 C654 1.349 1_554 S
C655 C671 1.349 . S
C656 C654 1.327 . S
C656 C675 1.429 1_556 S
C656 H680 0.950 . S
C657 C674 1.574 1_565 S
C657 C676 1.368 . S
C657 H681 0.949 . S
H658 C662 0.949 . S
C659 C660 1.349 1_554 S
C659 C661 1.327 . S
C659 H682 0.950 . S
C660 C659 1.349 1_556 S
C660 C672 1.349 . S
C661 C659 1.327 . S
C661 C677 1.429 1_554 S
C661 H683 0.950 . S
C662 H658 0.949 . S
C662 C670 1.574 1_545 S
C662 C678 1.368 . S
H663 C671 0.950 . S
H664 C669 0.950 . S
H665 C670 0.949 . S
H666 C672 0.950 . S
H667 C673 0.950 . S
H668 C674 0.949 . S
C669 H664 0.950 . S
C669 C671 1.327 . S
C669 C675 1.429 . S
C670 C662 1.574 1_565 S
C670 H665 0.949 . S
C670 C676 1.368 1_556 S
C671 C655 1.349 . S
C671 H663 0.950 . S
C671 C669 1.327 . S
C672 C660 1.349 . S
C672 H666 0.950 . S
C672 C673 1.327 . S
C673 H667 0.950 . S
C673 C672 1.327 . S
C673 C677 1.429 . S
C674 C657 1.574 1_545 S
C674 H668 0.949 . S
C674 C678 1.368 1_554 S
C675 C656 1.429 1_554 S
C675 C669 1.429 . S
C675 C676 1.523 . S
C676 C657 1.368 . S
C676 C670 1.368 1_554 S
C676 C675 1.523 . S
C677 C661 1.429 1_556 S
C677 C673 1.429 . S
C677 C678 1.523 . S
C678 C662 1.368 . S
C678 C674 1.368 1_556 S
C678 C677 1.523 . S
H679 C654 0.950 . S
H680 C656 0.950 . S
H681 C657 0.949 . S
H682 C659 0.950 . S
H683 C661 0.950 . S
C684 C685 1.349 . S
C684 C686 1.327 . S
C684 H709 0.950 . S
C685 C684 1.349 . S
C685 C701 1.349 . S
C686 C684 1.327 . S
C686 C705 1.429 . S
C686 H710 0.950 . S
C687 C704 1.574 . S
C687 C706 1.368 . S
C687 H711 0.949 . S
H688 C692 0.949 . S
C689 C690 1.349 . S
C689 C691 1.327 . S
C689 H712 0.950 . S
C690 C689 1.349 . S
C690 C702 1.349 . S
C691 C689 1.327 . S
C691 C707 1.429 . S
C691 H713 0.950 . S
C692 H688 0.949 . S
C692 C700 1.574 . S
C692 C708 1.368 . S
H693 C701 0.950 . S
H694 C699 0.950 . S
H695 C700 0.949 . S
H696 C702 0.950 . S
H697 C703 0.950 . S
H698 C704 0.949 . S
C699 H694 0.950 . S
C699 C701 1.327 . S
C699 C705 1.429 . S
C700 C692 1.574 . S
C700 H695 0.949 . S
C700 C706 1.368 . S
C701 C685 1.349 . S
C701 H693 0.950 . S
C701 C699 1.327 . S
C702 C690 1.349 . S
C702 H696 0.950 . S
C702 C703 1.327 . S
C703 H697 0.950 . S
C703 C702 1.327 . S
C703 C707 1.429 . S
C704 C687 1.574 . S
C704 H698 0.949 . S
C704 C708 1.368 . S
C705 C686 1.429 . S
C705 C699 1.429 . S
C705 C706 1.523 . S
C706 C687 1.368 . S
C706 C700 1.368 . S
C706 C705 1.523 . S
C707 C691 1.429 . S
C707 C703 1.429 . S
C707 C708 1.523 . S
C708 C692 1.368 . S
C708 C704 1.368 . S
C708 C707 1.523 . S
H709 C684 0.950 . S
H710 C686 0.950 . S
H711 C687 0.949 . S
H712 C689 0.950 . S
H713 C691 0.950 . S
C714 C715 1.349 . S
C714 C716 1.327 . S
C714 H739 0.950 . S
C715 C714 1.349 . S
C715 C731 1.349 . S
C716 C714 1.327 . S
C716 C735 1.429 . S
C716 H740 0.950 . S
C717 C734 1.574 . S
C717 C736 1.368 . S
C717 H741 0.949 . S
H718 C722 0.949 1_545 S
C719 C720 1.349 . S
C719 C721 1.327 1_545 S
C719 H742 0.950 . S
C720 C719 1.349 . S
C720 C732 1.349 . S
C721 C719 1.327 1_565 S
C721 C737 1.429 1_565 S
C721 H743 0.950 . S
C722 H718 0.949 1_565 S
C722 C730 1.574 . S
C722 C738 1.368 . S
H723 C731 0.950 . S
H724 C729 0.950 . S
H725 C730 0.949 . S
H726 C732 0.950 . S
H727 C733 0.950 . S
H728 C734 0.949 . S
C729 H724 0.950 . S
C729 C731 1.327 . S
C729 C735 1.429 . S
C730 C722 1.574 . S
C730 H725 0.949 . S
C730 C736 1.368 . S
C731 C715 1.349 . S
C731 H723 0.950 . S
C731 C729 1.327 . S
C732 C720 1.349 . S
C732 H726 0.950 . S
C732 C733 1.327 . S
C733 H727 0.950 . S
C733 C732 1.327 . S
C733 C737 1.429 . S
C734 C717 1.574 . S
C734 H728 0.949 . S
C734 C738 1.368 . S
C735 C716 1.429 . S
C735 C729 1.429 . S
C735 C736 1.523 . S
C736 C717 1.368 . S
C736 C730 1.368 . S
C736 C735 1.523 . S
C737 C721 1.429 1_545 S
C737 C733 1.429 . S
C737 C738 1.523 1_545 S
C738 C722 1.368 . S
C738 C734 1.368 . S
C738 C737 1.523 1_565 S
H739 C714 0.950 . S
H740 C716 0.950 . S
H741 C717 0.949 . S
H742 C719 0.950 . S
H743 C721 0.950 . S
C744 C745 1.349 . S
C744 C746 1.327 . S
C744 H769 0.950 . S
C745 C744 1.349 . S
C745 C761 1.349 . S
C746 C744 1.327 . S
C746 C765 1.429 . S
C746 H770 0.950 . S
C747 C764 1.574 . S
C747 C766 1.368 . S
C747 H771 0.949 . S
H748 C752 0.949 . S
C749 C750 1.349 . S
C749 C751 1.327 . S
C749 H772 0.950 . S
C750 C749 1.349 . S
C750 C762 1.349 . S
C751 C749 1.327 . S
C751 C767 1.429 . S
C751 H773 0.950 . S
C752 H748 0.949 . S
C752 C760 1.574 . S
C752 C768 1.368 . S
H753 C761 0.950 . S
H754 C759 0.950 . S
H755 C760 0.949 1_655 S
H756 C762 0.950 . S
H757 C763 0.950 . S
H758 C764 0.949 . S
C759 H754 0.950 . S
C759 C761 1.327 1_455 S
C759 C765 1.429 1_455 S
C760 C752 1.574 . S
C760 H755 0.949 1_455 S
C760 C766 1.368 . S
C761 C745 1.349 . S
C761 H753 0.950 . S
C761 C759 1.327 1_655 S
C762 C750 1.349 . S
C762 H756 0.950 . S
C762 C763 1.327 . S
C763 H757 0.950 . S
C763 C762 1.327 . S
C763 C767 1.429 . S
C764 C747 1.574 . S
C764 H758 0.949 . S
C764 C768 1.368 . S
C765 C746 1.429 . S
C765 C759 1.429 1_655 S
C765 C766 1.523 1_655 S
C766 C747 1.368 . S
C766 C760 1.368 . S
C766 C765 1.523 1_455 S
C767 C751 1.429 . S
C767 C763 1.429 . S
C767 C768 1.523 . S
C768 C752 1.368 . S
C768 C764 1.368 . S
C768 C767 1.523 . S
H769 C744 0.950 . S
H770 C746 0.950 . S
H771 C747 0.949 . S
H772 C749 0.950 . S
H773 C751 0.950 . S
C774 C775 1.349 . S
C774 C776 1.327 . S
C774 H799 0.950 . S
C775 C774 1.349 . S
C775 C791 1.349 . S
C776 C774 1.327 . S
C776 C795 1.429 . S
C776 H800 0.950 . S
C777 C794 1.574 . S
C777 C796 1.368 . S
C777 H801 0.949 . S
H778 C782 0.949 1_545 S
C779 C780 1.349 . S
C779 C781 1.328 . S
C779 H802 0.950 . S
C780 C779 1.349 . S
C780 C792 1.349 . S
C781 C779 1.328 . S
C781 C797 1.440 . S
C781 H803 0.937 1_545 S
C782 H778 0.949 1_565 S
C782 C790 1.574 . S
C782 C798 1.368 . S
H783 C791 0.950 . S
H784 C789 0.950 . S
H785 C790 0.949 . S
H786 C792 0.950 . S
H787 C793 0.950 . S
H788 C794 0.949 . S
C789 H784 0.950 . S
C789 C791 1.327 . S
C789 C795 1.429 . S
C790 C782 1.574 . S
C790 H785 0.949 . S
C790 C796 1.368 . S
C791 C775 1.349 . S
C791 H783 0.950 . S
C791 C789 1.327 . S
C792 C780 1.349 . S
C792 H786 0.950 . S
C792 C793 1.327 . S
C793 H787 0.950 . S
C793 C792 1.327 . S
C793 C797 1.429 . S
C794 C777 1.574 . S
C794 H788 0.949 . S
C794 C798 1.368 . S
C795 C776 1.429 . S
C795 C789 1.429 . S
C795 C796 1.523 . S
C796 C777 1.368 . S
C796 C790 1.368 . S
C796 C795 1.523 . S
C797 C781 1.440 . S
C797 C793 1.429 . S
C797 C798 1.523 1_545 S
C798 C782 1.368 . S
C798 C794 1.368 . S
C798 C797 1.523 1_565 S
H799 C774 0.950 . S
H800 C776 0.950 . S
H801 C777 0.949 . S
H802 C779 0.950 . S
H803 C781 0.937 1_565 S
C804 C805 1.349 . S
C804 C806 1.327 . S
C804 H829 0.950 . S
C805 C804 1.349 . S
C805 C821 1.349 . S
C806 C804 1.327 . S
C806 C825 1.429 . S
C806 H830 0.950 . S
C807 C824 1.574 . S
C807 C826 1.368 . S
C807 H831 0.949 . S
H808 C812 0.949 . S
C809 C810 1.349 . S
C809 C811 1.327 . S
C809 H832 0.950 . S
C810 C809 1.349 . S
C810 C822 1.349 . S
C811 C809 1.327 . S
C811 C827 1.429 . S
C811 H833 0.950 . S
C812 H808 0.949 . S
C812 C820 1.574 . S
C812 C828 1.368 . S
H813 C821 0.950 . S
H814 C819 0.950 . S
H815 C820 0.949 . S
H816 C822 0.950 . S
H817 C823 0.950 . S
H818 C824 0.949 . S
C819 H814 0.950 . S
C819 C821 1.327 . S
C819 C825 1.429 . S
C820 C812 1.574 . S
C820 H815 0.949 . S
C820 C826 1.368 . S
C821 C805 1.349 . S
C821 H813 0.950 . S
C821 C819 1.327 . S
C822 C810 1.349 . S
C822 H816 0.950 . S
C822 C823 1.327 . S
C823 H817 0.950 . S
C823 C822 1.327 . S
C823 C827 1.429 . S
C824 C807 1.574 . S
C824 H818 0.949 . S
C824 C828 1.368 . S
C825 C806 1.429 . S
C825 C819 1.429 . S
C825 C826 1.523 1_655 S
C826 C807 1.368 . S
C826 C820 1.368 . S
C826 C825 1.523 1_455 S
C827 C811 1.429 . S
C827 C823 1.429 . S
C827 C828 1.523 . S
C828 C812 1.368 . S
C828 C824 1.368 . S
C828 C827 1.523 . S
H829 C804 0.950 . S
H830 C806 0.950 . S
H831 C807 0.949 . S
H832 C809 0.950 . S
H833 C811 0.950 . S
C834 C835 1.349 . S
C834 C836 1.327 . S
C834 H859 0.950 . S
C835 C834 1.349 . S
C835 C851 1.349 . S
C836 C834 1.327 . S
C836 C855 1.429 . S
C836 H860 0.950 . S
C837 C854 1.574 . S
C837 C856 1.368 . S
C837 H861 0.949 . S
H838 C842 0.949 . S
C839 C840 1.349 . S
C839 C841 1.327 . S
C839 H862 0.950 . S
C840 C839 1.349 . S
C840 C852 1.349 . S
C841 C839 1.327 . S
C841 C857 1.429 . S
C841 H863 0.950 . S
C842 H838 0.949 . S
C842 C850 1.574 . S
C842 C858 1.368 . S
H843 C851 0.950 . S
H844 C849 0.950 . S
H845 C850 0.949 . S
H846 C852 0.950 . S
H847 C853 0.950 . S
H848 C854 0.949 . S
C849 H844 0.950 . S
C849 C851 1.327 . S
C849 C855 1.429 . S
C850 C842 1.574 . S
C850 H845 0.949 . S
C850 C856 1.368 . S
C851 C835 1.349 . S
C851 H843 0.950 . S
C851 C849 1.327 . S
C852 C840 1.349 . S
C852 H846 0.950 . S
C852 C853 1.327 . S
C853 H847 0.950 . S
C853 C852 1.327 . S
C853 C857 1.429 . S
C854 C837 1.574 . S
C854 H848 0.949 . S
C854 C858 1.368 . S
C855 C836 1.429 . S
C855 C849 1.429 . S
C855 C856 1.523 . S
C856 C837 1.368 . S
C856 C850 1.368 . S
C856 C855 1.523 . S
C857 C841 1.429 . S
C857 C853 1.429 . S
C857 C858 1.523 . S
C858 C842 1.368 . S
C858 C854 1.368 . S
C858 C857 1.523 . S
H859 C834 0.950 . S
H860 C836 0.950 . S
H861 C837 0.949 . S
H862 C839 0.950 . S
H863 C841 0.950 . S
C864 C865 1.349 . S
C864 C866 1.327 . S
C864 H889 0.950 . S
C865 C864 1.349 . S
C865 C881 1.349 . S
C866 C864 1.327 . S
C866 C885 1.429 . S
C866 H890 0.950 . S
C867 C884 1.574 . S
C867 C886 1.368 . S
C867 H891 0.949 . S
H868 C872 0.949 . S
C869 C870 1.349 . S
C869 C871 1.327 . S
C869 H892 0.950 . S
C870 C869 1.349 . S
C870 C882 1.349 . S
C871 C869 1.327 . S
C871 C887 1.429 . S
C871 H893 0.950 . S
C872 H868 0.949 . S
C872 C880 1.574 . S
C872 C888 1.368 . S
H873 C881 0.950 . S
H874 C879 0.950 . S
H875 C880 0.949 1_565 S
H876 C882 0.950 . S
H877 C883 0.950 . S
H878 C884 0.949 . S
C879 H874 0.950 . S
C879 C881 1.327 1_545 S
C879 C885 1.429 1_545 S
C880 C872 1.574 . S
C880 H875 0.949 1_545 S
C880 C886 1.368 . S
C881 C865 1.349 . S
C881 H873 0.950 . S
C881 C879 1.327 1_565 S
C882 C870 1.349 . S
C882 H876 0.950 . S
C882 C883 1.327 . S
C883 H877 0.950 . S
C883 C882 1.327 . S
C883 C887 1.429 . S
C884 C867 1.574 . S
C884 H878 0.949 . S
C884 C888 1.368 . S
C885 C866 1.429 . S
C885 C879 1.429 1_565 S
C885 C886 1.523 1_565 S
C886 C867 1.368 . S
C886 C880 1.368 . S
C886 C885 1.523 1_545 S
C887 C871 1.429 . S
C887 C883 1.429 . S
C887 C888 1.523 . S
C888 C872 1.368 . S
C888 C884 1.368 . S
C888 C887 1.523 . S
H889 C864 0.950 . S
H890 C866 0.950 . S
H891 C867 0.949 . S
H892 C869 0.950 . S
H893 C871 0.950 . S
C894 C895 1.349 . S
C894 C896 1.327 . S
C894 H919 0.950 . S
C895 C894 1.349 . S
C895 C911 1.349 . S
C896 C894 1.327 . S
C896 C915 1.429 . S
C896 H920 0.950 . S
C897 C914 1.574 . S
C897 C916 1.368 . S
C897 H921 0.949 . S
H898 C902 0.949 . S
C899 C900 1.349 . S
C899 C901 1.327 . S
C899 H922 0.950 . S
C900 C899 1.349 . S
C900 C912 1.349 . S
C901 C899 1.327 . S
C901 C917 1.429 . S
C901 H923 0.950 . S
C902 H898 0.949 . S
C902 C910 1.574 . S
C902 C918 1.368 . S
H903 C911 0.950 . S
H904 C909 0.950 . S
H905 C910 0.949 . S
H906 C912 0.950 . S
H907 C913 1.004 . S
H908 C914 0.949 1_455 S
C909 H904 0.950 . S
C909 C911 1.327 . S
C909 C915 1.429 . S
C910 C902 1.574 . S
C910 H905 0.949 . S
C910 C916 1.368 . S
C911 C895 1.349 . S
C911 H903 0.950 . S
C911 C909 1.327 . S
C912 C900 1.349 . S
C912 H906 0.950 . S
C912 C913 1.260 1_455 S
C913 H907 1.004 . S
C913 C912 1.260 1_655 S
C913 C917 1.447 1_655 S
C914 C897 1.574 . S
C914 H908 0.949 1_655 S
C914 C918 1.368 . S
C915 C896 1.429 . S
C915 C909 1.429 . S
C915 C916 1.523 . S
C916 C897 1.368 . S
C916 C910 1.368 . S
C916 C915 1.523 . S
C917 C901 1.429 . S
C917 C913 1.447 1_455 S
C917 C918 1.523 1_455 S
C918 C902 1.368 . S
C918 C914 1.368 . S
C918 C917 1.523 1_655 S
H919 C894 0.950 . S
H920 C896 0.950 . S
H921 C897 0.949 . S
H922 C899 0.950 . S
H923 C901 0.950 . S
C924 C925 1.349 . S
C924 C926 1.327 . S
C924 H949 0.950 . S
C925 C924 1.349 . S
C925 C941 1.349 . S
C926 C924 1.327 . S
C926 C945 1.429 . S
C926 H950 0.950 . S
C927 C944 1.574 . S
C927 C946 1.368 . S
C927 H951 0.949 . S
H928 C932 0.949 . S
C929 C930 1.349 . S
C929 C931 1.327 . S
C929 H952 0.950 . S
C930 C929 1.349 . S
C930 C942 1.349 . S
C931 C929 1.327 . S
C931 C947 1.429 . S
C931 H953 0.950 . S
C932 H928 0.949 . S
C932 C940 1.574 . S
C932 C948 1.368 . S
H933 C941 0.950 . S
H934 C939 0.950 . S
H935 C940 0.949 . S
H936 C942 0.950 . S
H937 C943 0.950 . S
H938 C944 0.949 . S
C939 H934 0.950 . S
C939 C941 1.327 . S
C939 C945 1.429 . S
C940 C932 1.574 . S
C940 H935 0.949 . S
C940 C946 1.368 . S
C941 C925 1.349 . S
C941 H933 0.950 . S
C941 C939 1.327 . S
C942 C930 1.349 . S
C942 H936 0.950 . S
C942 C943 1.327 . S
C943 H937 0.950 . S
C943 C942 1.327 . S
C943 C947 1.429 . S
C944 C927 1.574 . S
C944 H938 0.949 . S
C944 C948 1.368 . S
C945 C926 1.429 . S
C945 C939 1.429 . S
C945 C946 1.523 . S
C946 C927 1.368 . S
C946 C940 1.368 . S
C946 C945 1.523 . S
C947 C931 1.429 . S
C947 C943 1.429 . S
C947 C948 1.523 . S
C948 C932 1.368 . S
C948 C944 1.368 . S
C948 C947 1.523 . S
H949 C924 0.950 . S
H950 C926 0.950 . S
H951 C927 0.949 . S
H952 C929 0.950 . S
H953 C931 0.950 . S
C954 C955 1.349 . S
C954 C956 1.327 . S
C954 H979 0.950 . S
C955 C954 1.349 . S
C955 C971 1.349 . S
C956 C954 1.327 . S
C956 C975 1.429 . S
C956 H980 0.950 . S
C957 C974 1.574 . S
C957 C976 1.368 . S
C957 H981 0.949 . S
H958 C962 0.949 . S
C959 C960 1.349 . S
C959 C961 1.327 . S
C959 H982 0.950 . S
C960 C959 1.349 . S
C960 C972 1.349 . S
C961 C959 1.327 . S
C961 C977 1.429 . S
C961 H983 0.950 . S
C962 H958 0.949 . S
C962 C970 1.574 . S
C962 C978 1.368 . S
H963 C971 0.950 . S
H964 C969 0.950 . S
H965 C970 0.949 . S
H966 C972 0.950 . S
H967 C973 0.950 . S
H968 C974 0.949 . S
C969 H964 0.950 . S
C969 C971 1.327 . S
C969 C975 1.429 . S
C970 C962 1.574 . S
C970 H965 0.949 . S
C970 C976 1.368 . S
C971 C955 1.349 . S
C971 H963 0.950 . S
C971 C969 1.327 . S
C972 C960 1.349 . S
C972 H966 0.950 . S
C972 C973 1.327 . S
C973 H967 0.950 . S
C973 C972 1.327 . S
C973 C977 1.429 . S
C974 C957 1.574 . S
C974 H968 0.949 . S
C974 C978 1.368 . S
C975 C956 1.429 . S
C975 C969 1.429 . S
C975 C976 1.523 . S
C976 C957 1.368 . S
C976 C970 1.368 . S
C976 C975 1.523 . S
C977 C961 1.429 . S
C977 C973 1.429 . S
C977 C978 1.523 . S
C978 C962 1.368 . S
C978 C974 1.368 . S
C978 C977 1.523 . S
H979 C954 0.950 . S
H980 C956 0.950 . S
H981 C957 0.949 . S
H982 C959 0.950 . S
H983 C961 0.950 . S
C984 C985 1.349 . S
C984 C986 1.327 . S
C984 H1009 0.950 . S
C985 C984 1.349 . S
C985 C1001 1.349 . S
C986 C984 1.327 . S
C986 C1005 1.429 . S
C986 H1010 0.950 . S
C987 C1004 1.574 . S
C987 C1006 1.368 . S
C987 H1011 0.949 . S
H988 C992 0.949 . S
C989 C990 1.349 . S
C989 C991 1.327 . S
C989 H1012 0.950 . S
C990 C989 1.349 . S
C990 C1002 1.349 . S
C991 C989 1.327 . S
C991 C1007 1.429 . S
C991 H1013 0.950 . S
C992 H988 0.949 . S
C992 C1000 1.574 . S
C992 C1008 1.368 . S
H993 C1001 0.950 . S
H994 C999 0.950 . S
H995 C1000 0.949 1_565 S
H996 C1002 0.950 . S
H997 C1003 0.950 . S
H998 C1004 0.949 . S
C999 H994 0.950 . S
C999 C1001 1.327 1_545 S
C999 C1005 1.429 1_545 S
C1000 C992 1.574 . S
C1000 H995 0.949 1_545 S
C1000 C1006 1.368 . S
C1001 C985 1.349 . S
C1001 H993 0.950 . S
C1001 C999 1.327 1_565 S
C1002 C990 1.349 . S
C1002 H996 0.950 . S
C1002 C1003 1.327 . S
C1003 H997 0.950 . S
C1003 C1002 1.327 . S
C1003 C1007 1.429 . S
C1004 C987 1.574 . S
C1004 H998 0.949 . S
C1004 C1008 1.368 . S
C1005 C986 1.429 . S
C1005 C999 1.429 1_565 S
C1005 C1006 1.523 1_565 S
C1006 C987 1.368 . S
C1006 C1000 1.368 . S
C1006 C1005 1.523 1_545 S
C1007 C991 1.429 . S
C1007 C1003 1.429 . S
C1007 C1008 1.523 . S
C1008 C992 1.368 . S
C1008 C1004 1.368 . S
C1008 C1007 1.523 . S
H1009 C984 0.950 . S
H1010 C986 0.950 . S
H1011 C987 0.949 . S
H1012 C989 0.950 . S
H1013 C991 0.950 . S
C1014 C1015 1.349 . S
C1014 C1016 1.327 1_455 S
C1014 H1039 0.950 . S
C1015 C1014 1.349 . S
C1015 C1031 1.349 . S
C1016 C1014 1.327 1_655 S
C1016 C1035 1.429 1_655 S
C1016 H1040 0.950 . S
C1017 C1034 1.574 . S
C1017 C1036 1.368 . S
C1017 H1041 0.949 1_655 S
H1018 C1022 0.949 . S
C1019 C1020 1.349 . S
C1019 C1021 1.327 . S
C1019 H1042 0.950 . S
C1020 C1019 1.349 . S
C1020 C1032 1.349 . S
C1021 C1019 1.327 . S
C1021 C1037 1.429 . S
C1021 H1043 0.950 . S
C1022 H1018 0.949 . S
C1022 C1030 1.574 . S
C1022 C1038 1.368 . S
H1023 C1031 0.950 . S
H1024 C1029 0.950 . S
H1025 C1030 0.949 . S
H1026 C1032 0.950 . S
H1027 C1033 0.950 . S
H1028 C1034 0.949 . S
C1029 H1024 0.950 . S
C1029 C1031 1.327 . S
C1029 C1035 1.429 . S
C1030 C1022 1.574 . S
C1030 H1025 0.949 . S
C1030 C1036 1.368 . S
C1031 C1015 1.349 . S
C1031 H1023 0.950 . S
C1031 C1029 1.327 . S
C1032 C1020 1.349 . S
C1032 H1026 0.950 . S
C1032 C1033 1.327 . S
C1033 H1027 0.950 . S
C1033 C1032 1.327 . S
C1033 C1037 1.429 . S
C1034 C1017 1.574 . S
C1034 H1028 0.949 . S
C1034 C1038 1.368 . S
C1035 C1016 1.429 1_455 S
C1035 C1029 1.429 . S
C1035 C1036 1.523 1_455 S
C1036 C1017 1.368 . S
C1036 C1030 1.368 . S
C1036 C1035 1.523 1_655 S
C1037 C1021 1.429 . S
C1037 C1033 1.429 . S
C1037 C1038 1.523 . S
C1038 C1022 1.368 . S
C1038 C1034 1.368 . S
C1038 C1037 1.523 . S
H1039 C1014 0.950 . S
H1040 C1016 0.950 . S
H1041 C1017 0.949 1_455 S
H1042 C1019 0.950 . S
H1043 C1021 0.950 . S
C1044 C1045 1.349 1_556 S
C1044 C1046 1.327 . S
C1044 H1069 0.950 . S
C1045 C1044 1.349 1_554 S
C1045 C1061 1.349 . S
C1046 C1044 1.327 . S
C1046 C1065 1.429 1_556 S
C1046 H1070 0.950 . S
C1047 C1064 1.574 . S
C1047 C1066 1.368 . S
C1047 H1071 0.949 . S
H1048 C1052 0.949 . S
C1049 C1050 1.349 . S
C1049 C1051 1.327 . S
C1049 H1072 0.950 . S
C1050 C1049 1.349 . S
C1050 C1062 1.349 1_554 S
C1051 C1049 1.327 . S
C1051 C1067 1.429 . S
C1051 H1073 0.950 . S
C1052 H1048 0.949 . S
C1052 C1060 1.574 . S
C1052 C1068 1.368 1_556 S
H1053 C1061 0.950 . S
H1054 C1059 0.950 . S
H1055 C1060 0.949 . S
H1056 C1062 0.950 . S
H1057 C1063 0.950 . S
H1058 C1064 0.949 . S
C1059 H1054 0.950 . S
C1059 C1061 1.327 . S
C1059 C1065 1.429 . S
C1060 C1052 1.574 . S
C1060 H1055 0.949 . S
C1060 C1066 1.368 1_556 S
C1061 C1045 1.349 . S
C1061 H1053 0.950 . S
C1061 C1059 1.327 . S
C1062 C1050 1.349 1_556 S
C1062 H1056 0.950 . S
C1062 C1063 1.327 . S
C1063 H1057 0.950 . S
C1063 C1062 1.327 . S
C1063 C1067 1.429 1_556 S
C1064 C1047 1.574 . S
C1064 H1058 0.949 . S
C1064 C1068 1.368 . S
C1065 C1046 1.429 1_554 S
C1065 C1059 1.429 . S
C1065 C1066 1.523 . S
C1066 C1047 1.368 . S
C1066 C1060 1.368 1_554 S
C1066 C1065 1.523 . S
C1067 C1051 1.429 . S
C1067 C1063 1.429 1_554 S
C1067 C1068 1.523 . S
C1068 C1052 1.368 1_554 S
C1068 C1064 1.368 . S
C1068 C1067 1.523 . S
H1069 C1044 0.950 . S
H1070 C1046 0.950 . S
H1071 C1047 0.949 . S
H1072 C1049 0.950 . S
H1073 C1051 0.950 . S
C1074 C1075 1.349 1_556 S
C1074 C1076 1.327 . S
C1074 H1099 0.950 . S
C1075 C1074 1.349 1_554 S
C1075 C1091 1.349 . S
C1076 C1074 1.327 . S
C1076 C1095 1.429 1_556 S
C1076 H1100 0.950 . S
C1077 C1094 1.574 . S
C1077 C1096 1.368 . S
C1077 H1101 0.949 . S
H1078 C1082 0.949 . S
C1079 C1080 1.349 . S
C1079 C1081 1.327 . S
C1079 H1102 0.950 . S
C1080 C1079 1.349 . S
C1080 C1092 1.349 1_554 S
C1081 C1079 1.327 . S
C1081 C1097 1.429 . S
C1081 H1103 0.950 . S
C1082 H1078 0.949 . S
C1082 C1090 1.574 . S
C1082 C1098 1.368 1_556 S
H1083 C1091 0.950 . S
H1084 C1089 0.950 . S
H1085 C1090 0.949 . S
H1086 C1092 0.950 . S
H1087 C1093 0.950 . S
H1088 C1094 0.949 . S
C1089 H1084 0.950 . S
C1089 C1091 1.327 . S
C1089 C1095 1.429 . S
C1090 C1082 1.574 . S
C1090 H1085 0.949 . S
C1090 C1096 1.368 1_556 S
C1091 C1075 1.349 . S
C1091 H1083 0.950 . S
C1091 C1089 1.327 . S
C1092 C1080 1.349 1_556 S
C1092 H1086 0.950 . S
C1092 C1093 1.327 . S
C1093 H1087 0.950 . S
C1093 C1092 1.327 . S
C1093 C1097 1.429 1_556 S
C1094 C1077 1.574 . S
C1094 H1088 0.949 . S
C1094 C1098 1.368 . S
C1095 C1076 1.429 1_554 S
C1095 C1089 1.429 . S
C1095 C1096 1.523 . S
C1096 C1077 1.368 . S
C1096 C1090 1.368 1_554 S
C1096 C1095 1.523 . S
C1097 C1081 1.429 . S
C1097 C1093 1.429 1_554 S
C1097 C1098 1.523 . S
C1098 C1082 1.368 1_554 S
C1098 C1094 1.368 . S
C1098 C1097 1.523 . S
H1099 C1074 0.950 . S
H1100 C1076 0.950 . S
H1101 C1077 0.949 . S
H1102 C1079 0.950 . S
H1103 C1081 0.950 . S
C1104 C1105 1.349 1_556 S
C1104 C1106 1.327 . S
C1104 H1129 0.950 . S
C1105 C1104 1.349 1_554 S
C1105 C1121 1.349 . S
C1106 C1104 1.327 . S
C1106 C1125 1.429 1_556 S
C1106 H1130 0.950 . S
C1107 C1124 1.574 . S
C1107 C1126 1.368 . S
C1107 H1131 0.949 . S
H1108 C1112 0.949 . S
C1109 C1110 1.349 . S
C1109 C1111 1.327 . S
C1109 H1132 0.950 . S
C1110 C1109 1.349 . S
C1110 C1122 1.349 1_554 S
C1111 C1109 1.327 . S
C1111 C1127 1.429 . S
C1111 H1133 0.950 . S
C1112 H1108 0.949 . S
C1112 C1120 1.574 . S
C1112 C1128 1.368 1_556 S
H1113 C1121 0.950 . S
H1114 C1119 0.950 . S
H1115 C1120 0.949 . S
H1116 C1122 0.950 . S
H1117 C1123 0.950 . S
H1118 C1124 0.949 . S
C1119 H1114 0.950 . S
C1119 C1121 1.327 . S
C1119 C1125 1.429 . S
C1120 C1112 1.574 . S
C1120 H1115 0.949 . S
C1120 C1126 1.368 1_556 S
C1121 C1105 1.349 . S
C1121 H1113 0.950 . S
C1121 C1119 1.327 . S
C1122 C1110 1.349 1_556 S
C1122 H1116 0.950 . S
C1122 C1123 1.327 . S
C1123 H1117 0.950 . S
C1123 C1122 1.327 . S
C1123 C1127 1.429 1_556 S
C1124 C1107 1.574 . S
C1124 H1118 0.949 . S
C1124 C1128 1.368 . S
C1125 C1106 1.429 1_554 S
C1125 C1119 1.429 . S
C1125 C1126 1.523 . S
C1126 C1107 1.368 . S
C1126 C1120 1.368 1_554 S
C1126 C1125 1.523 . S
C1127 C1111 1.429 . S
C1127 C1123 1.429 1_554 S
C1127 C1128 1.523 . S
C1128 C1112 1.368 1_554 S
C1128 C1124 1.368 . S
C1128 C1127 1.523 . S
H1129 C1104 0.950 . S
H1130 C1106 0.950 . S
H1131 C1107 0.949 . S
H1132 C1109 0.950 . S
H1133 C1111 0.950 . S
C1134 C1135 1.349 1_554 S
C1134 C1136 1.327 . S
C1134 H1159 0.950 . S
C1135 C1134 1.349 1_556 S
C1135 C1151 1.349 . S
C1136 C1134 1.327 . S
C1136 C1155 1.429 1_554 S
C1136 H1160 0.950 . S
C1137 C1154 1.574 . S
C1137 C1156 1.368 . S
C1137 H1161 0.949 . S
H1138 C1142 0.949 . S
C1139 C1140 1.349 . S
C1139 C1141 1.327 . S
C1139 H1162 0.950 . S
C1140 C1139 1.349 . S
C1140 C1152 1.349 1_556 S
C1141 C1139 1.327 . S
C1141 C1157 1.429 . S
C1141 H1163 0.950 . S
C1142 H1138 0.949 . S
C1142 C1150 1.574 . S
C1142 C1158 1.368 1_554 S
H1143 C1151 0.950 . S
H1144 C1149 0.950 . S
H1145 C1150 0.949 . S
H1146 C1152 0.950 . S
H1147 C1153 0.950 . S
H1148 C1154 0.949 . S
C1149 H1144 0.950 . S
C1149 C1151 1.327 . S
C1149 C1155 1.429 . S
C1150 C1142 1.574 . S
C1150 H1145 0.949 . S
C1150 C1156 1.368 1_554 S
C1151 C1135 1.349 . S
C1151 H1143 0.950 . S
C1151 C1149 1.327 . S
C1152 C1140 1.349 1_554 S
C1152 H1146 0.950 . S
C1152 C1153 1.327 . S
C1153 H1147 0.950 . S
C1153 C1152 1.327 . S
C1153 C1157 1.429 1_554 S
C1154 C1137 1.574 . S
C1154 H1148 0.949 . S
C1154 C1158 1.368 . S
C1155 C1136 1.429 1_556 S
C1155 C1149 1.429 . S
C1155 C1156 1.523 . S
C1156 C1137 1.368 . S
C1156 C1150 1.368 1_556 S
C1156 C1155 1.523 . S
C1157 C1141 1.429 . S
C1157 C1153 1.429 1_556 S
C1157 C1158 1.523 . S
C1158 C1142 1.368 1_556 S
C1158 C1154 1.368 . S
C1158 C1157 1.523 . S
H1159 C1134 0.950 . S
H1160 C1136 0.950 . S
H1161 C1137 0.949 . S
H1162 C1139 0.950 . S
H1163 C1141 0.950 . S
C1164 C1165 1.349 . S
C1164 C1166 1.327 . S
C1164 H1189 0.950 . S
C1165 C1164 1.349 . S
C1165 C1181 1.349 1_556 S
C1166 C1164 1.327 . S
C1166 C1185 1.429 . S
C1166 H1190 0.950 . S
C1167 C1184 1.574 . S
C1167 C1186 1.368 1_554 S
C1167 H1191 0.949 . S
H1168 C1172 0.949 . S
C1169 C1170 1.349 1_554 S
C1169 C1171 1.327 . S
C1169 H1192 0.950 . S
C1170 C1169 1.349 1_556 S
C1170 C1182 1.349 . S
C1171 C1169 1.327 . S
C1171 C1187 1.429 1_554 S
C1171 H1193 0.950 . S
C1172 H1168 0.949 . S
C1172 C1180 1.574 . S
C1172 C1188 1.368 . S
H1173 C1181 0.950 . S
H1174 C1179 0.950 . S
H1175 C1180 0.949 . S
H1176 C1182 0.950 . S
H1177 C1183 0.950 . S
H1178 C1184 0.949 . S
C1179 H1174 0.950 . S
C1179 C1181 1.327 . S
C1179 C1185 1.429 1_554 S
C1180 C1172 1.574 . S
C1180 H1175 0.949 . S
C1180 C1186 1.368 . S
C1181 C1165 1.349 1_554 S
C1181 H1173 0.950 . S
C1181 C1179 1.327 . S
C1182 C1170 1.349 . S
C1182 H1176 0.950 . S
C1182 C1183 1.327 . S
C1183 H1177 0.950 . S
C1183 C1182 1.327 . S
C1183 C1187 1.429 . S
C1184 C1167 1.574 . S
C1184 H1178 0.949 . S
C1184 C1188 1.368 1_554 S
C1185 C1166 1.429 . S
C1185 C1179 1.429 1_556 S
C1185 C1186 1.523 . S
C1186 C1167 1.368 1_556 S
C1186 C1180 1.368 . S
C1186 C1185 1.523 . S
C1187 C1171 1.429 1_556 S
C1187 C1183 1.429 . S
C1187 C1188 1.523 . S
C1188 C1172 1.368 . S
C1188 C1184 1.368 1_556 S
C1188 C1187 1.523 . S
H1189 C1164 0.950 . S
H1190 C1166 0.950 . S
H1191 C1167 0.949 . S
H1192 C1169 0.950 . S
H1193 C1171 0.950 . S
C1194 C1195 1.349 . S
C1194 C1196 1.327 . S
C1194 H1219 0.953 . S
C1195 C1194 1.349 . S
C1195 C1211 1.349 . S
C1196 C1194 1.327 . S
C1196 C1215 1.429 . S
C1196 H1220 0.950 . S
C1197 C1214 1.574 . S
C1197 C1216 1.368 . S
C1197 H1221 0.949 . S
H1198 C1202 0.949 . S
C1199 C1200 1.349 . S
C1199 C1201 1.327 . S
C1199 H1222 0.950 . S
C1200 C1199 1.349 . S
C1200 C1212 1.349 . S
C1201 C1199 1.327 . S
C1201 C1217 1.429 . S
C1201 H1223 0.950 . S
C1202 H1198 0.949 . S
C1202 C1210 1.574 . S
C1202 C1218 1.368 . S
H1203 C1211 0.950 . S
H1204 C1209 0.950 . S
H1205 C1210 0.949 . S
H1206 C1212 0.953 . S
H1207 C1213 0.950 . S
H1208 C1214 0.949 . S
C1209 H1204 0.950 . S
C1209 C1211 1.327 . S
C1209 C1215 1.429 . S
C1210 C1202 1.574 . S
C1210 H1205 0.949 . S
C1210 C1216 1.368 . S
C1211 C1195 1.349 . S
C1211 H1203 0.950 . S
C1211 C1209 1.327 . S
C1212 C1200 1.349 . S
C1212 H1206 0.953 . S
C1212 C1213 1.327 . S
C1213 H1207 0.950 . S
C1213 C1212 1.327 . S
C1213 C1217 1.429 . S
C1214 C1197 1.574 . S
C1214 H1208 0.949 . S
C1214 C1218 1.368 . S
C1215 C1196 1.429 . S
C1215 C1209 1.429 . S
C1215 C1216 1.523 . S
C1216 C1197 1.368 . S
C1216 C1210 1.368 . S
C1216 C1215 1.523 . S
C1217 C1201 1.429 . S
C1217 C1213 1.429 . S
C1217 C1218 1.523 . S
C1218 C1202 1.368 . S
C1218 C1214 1.368 . S
C1218 C1217 1.523 . S
H1219 C1194 0.953 . S
H1220 C1196 0.950 . S
H1221 C1197 0.949 . S
H1222 C1199 0.950 . S
H1223 C1201 0.950 . S
C1224 C1225 1.349 . S
C1224 C1226 1.327 . S
C1224 H1249 0.950 . S
C1225 C1224 1.349 . S
C1225 C1241 1.349 . S
C1226 C1224 1.327 . S
C1226 C1245 1.429 . S
C1226 H1250 0.950 . S
C1227 C1244 1.574 . S
C1227 C1246 1.368 . S
C1227 H1251 0.949 . S
H1228 C1232 0.949 . S
C1229 C1230 1.349 . S
C1229 C1231 1.327 . S
C1229 H1252 0.950 . S
C1230 C1229 1.349 . S
C1230 C1242 1.349 . S
C1231 C1229 1.327 . S
C1231 C1247 1.429 . S
C1231 H1253 0.950 . S
C1232 H1228 0.949 . S
C1232 C1240 1.574 . S
C1232 C1248 1.368 . S
H1233 C1241 0.950 . S
H1234 C1239 0.950 . S
H1235 C1240 0.949 . S
H1236 C1242 0.950 . S
H1237 C1243 0.950 . S
H1238 C1244 0.949 . S
C1239 H1234 0.950 . S
C1239 C1241 1.327 . S
C1239 C1245 1.429 . S
C1240 C1232 1.574 . S
C1240 H1235 0.949 . S
C1240 C1246 1.368 . S
C1241 C1225 1.349 . S
C1241 H1233 0.950 . S
C1241 C1239 1.327 . S
C1242 C1230 1.349 . S
C1242 H1236 0.950 . S
C1242 C1243 1.327 . S
C1243 H1237 0.950 . S
C1243 C1242 1.327 . S
C1243 C1247 1.429 . S
C1244 C1227 1.574 . S
C1244 H1238 0.949 . S
C1244 C1248 1.368 . S
C1245 C1226 1.429 . S
C1245 C1239 1.429 . S
C1245 C1246 1.523 . S
C1246 C1227 1.368 . S
C1246 C1240 1.368 . S
C1246 C1245 1.523 . S
C1247 C1231 1.429 . S
C1247 C1243 1.429 . S
C1247 C1248 1.523 . S
C1248 C1232 1.368 . S
C1248 C1244 1.368 . S
C1248 C1247 1.523 . S
H1249 C1224 0.950 . S
H1250 C1226 0.950 . S
H1251 C1227 0.949 . S
H1252 C1229 0.950 . S
H1253 C1231 0.950 . S
C1254 C1255 1.349 . S
C1254 C1256 1.327 . S
C1254 H1279 0.950 . S
C1255 C1254 1.349 . S
C1255 C1271 1.349 . S
C1256 C1254 1.327 . S
C1256 C1275 1.429 . S
C1256 H1280 0.950 . S
C1257 C1274 1.574 . S
C1257 C1276 1.368 . S
C1257 H1281 0.949 . S
H1258 C1262 0.949 . S
C1259 C1260 1.349 . S
C1259 C1261 1.327 . S
C1259 H1282 0.950 . S
C1260 C1259 1.349 . S
C1260 C1272 1.349 . S
C1261 C1259 1.327 . S
C1261 C1277 1.429 . S
C1261 H1283 0.950 . S
C1262 H1258 0.949 . S
C1262 C1270 1.574 . S
C1262 C1278 1.368 . S
H1263 C1271 0.950 . S
H1264 C1269 0.950 . S
H1265 C1270 0.949 . S
H1266 C1272 0.950 . S
H1267 C1273 0.950 . S
H1268 C1274 0.949 . S
C1269 H1264 0.950 . S
C1269 C1271 1.327 . S
C1269 C1275 1.429 . S
C1270 C1262 1.574 . S
C1270 H1265 0.949 . S
C1270 C1276 1.368 . S
C1271 C1255 1.349 . S
C1271 H1263 0.950 . S
C1271 C1269 1.327 . S
C1272 C1260 1.349 . S
C1272 H1266 0.950 . S
C1272 C1273 1.327 . S
C1273 H1267 0.950 . S
C1273 C1272 1.327 . S
C1273 C1277 1.429 . S
C1274 C1257 1.574 . S
C1274 H1268 0.949 . S
C1274 C1278 1.368 . S
C1275 C1256 1.429 . S
C1275 C1269 1.429 . S
C1275 C1276 1.523 . S
C1276 C1257 1.368 . S
C1276 C1270 1.368 . S
C1276 C1275 1.523 . S
C1277 C1261 1.429 . S
C1277 C1273 1.429 . S
C1277 C1278 1.523 . S
C1278 C1262 1.368 . S
C1278 C1274 1.368 . S
C1278 C1277 1.523 . S
H1279 C1254 0.950 . S
H1280 C1256 0.950 . S
H1281 C1257 0.949 . S
H1282 C1259 0.950 . S
H1283 C1261 0.950 . S
C1284 C1285 1.349 . S
C1284 C1286 1.327 . S
C1284 H1309 0.950 . S
C1285 C1284 1.349 . S
C1285 C1301 1.349 . S
C1286 C1284 1.327 . S
C1286 C1305 1.429 . S
C1286 H1310 0.950 . S
C1287 C1304 1.574 . S
C1287 C1306 1.368 . S
C1287 H1311 0.949 . S
H1288 C1292 0.949 . S
C1289 C1290 1.349 . S
C1289 C1291 1.327 . S
C1289 H1312 0.950 . S
C1290 C1289 1.349 . S
C1290 C1302 1.349 . S
C1291 C1289 1.327 . S
C1291 C1307 1.429 . S
C1291 H1313 0.950 . S
C1292 H1288 0.949 . S
C1292 C1300 1.574 . S
C1292 C1308 1.368 . S
H1293 C1301 0.950 . S
H1294 C1299 0.950 . S
H1295 C1300 0.949 . S
H1296 C1302 0.950 . S
H1297 C1303 0.950 . S
H1298 C1304 0.949 . S
C1299 H1294 0.950 . S
C1299 C1301 1.327 . S
C1299 C1305 1.429 . S
C1300 C1292 1.574 . S
C1300 H1295 0.949 . S
C1300 C1306 1.368 . S
C1301 C1285 1.349 . S
C1301 H1293 0.950 . S
C1301 C1299 1.327 . S
C1302 C1290 1.349 . S
C1302 H1296 0.950 . S
C1302 C1303 1.327 . S
C1303 H1297 0.950 . S
C1303 C1302 1.327 . S
C1303 C1307 1.429 . S
C1304 C1287 1.574 . S
C1304 H1298 0.949 . S
C1304 C1308 1.368 . S
C1305 C1286 1.429 . S
C1305 C1299 1.429 . S
C1305 C1306 1.523 . S
C1306 C1287 1.368 . S
C1306 C1300 1.368 . S
C1306 C1305 1.523 . S
C1307 C1291 1.429 . S
C1307 C1303 1.429 . S
C1307 C1308 1.523 . S
C1308 C1292 1.368 . S
C1308 C1304 1.368 . S
C1308 C1307 1.523 . S
H1309 C1284 0.950 . S
H1310 C1286 0.950 . S
H1311 C1287 0.949 . S
H1312 C1289 0.950 . S
H1313 C1291 0.950 . S
C1314 C1315 1.349 . S
C1314 C1316 1.327 . S
C1314 H1339 0.950 . S
C1315 C1314 1.349 . S
C1315 C1331 1.349 . S
C1316 C1314 1.327 . S
C1316 C1335 1.429 . S
C1316 H1340 0.950 . S
C1317 C1334 1.574 . S
C1317 C1336 1.368 . S
C1317 H1341 0.949 . S
H1318 C1322 0.949 . S
C1319 C1320 1.349 . S
C1319 C1321 1.327 . S
C1319 H1342 0.950 . S
C1320 C1319 1.349 . S
C1320 C1332 1.349 . S
C1321 C1319 1.327 . S
C1321 C1337 1.429 . S
C1321 H1343 0.950 . S
C1322 H1318 0.949 . S
C1322 C1330 1.574 . S
C1322 C1338 1.368 . S
H1323 C1331 0.950 . S
H1324 C1329 0.950 . S
H1325 C1330 0.949 . S
H1326 C1332 0.950 . S
H1327 C1333 0.950 . S
H1328 C1334 0.949 . S
C1329 H1324 0.950 . S
C1329 C1331 1.327 . S
C1329 C1335 1.429 . S
C1330 C1322 1.574 . S
C1330 H1325 0.949 . S
C1330 C1336 1.368 . S
C1331 C1315 1.349 . S
C1331 H1323 0.950 . S
C1331 C1329 1.327 . S
C1332 C1320 1.349 . S
C1332 H1326 0.950 . S
C1332 C1333 1.327 . S
C1333 H1327 0.950 . S
C1333 C1332 1.327 . S
C1333 C1337 1.429 . S
C1334 C1317 1.574 . S
C1334 H1328 0.949 . S
C1334 C1338 1.368 . S
C1335 C1316 1.429 . S
C1335 C1329 1.429 . S
C1335 C1336 1.523 . S
C1336 C1317 1.368 . S
C1336 C1330 1.368 . S
C1336 C1335 1.523 . S
C1337 C1321 1.429 . S
C1337 C1333 1.429 . S
C1337 C1338 1.523 . S
C1338 C1322 1.368 . S
C1338 C1334 1.368 . S
C1338 C1337 1.523 . S
H1339 C1314 0.950 . S
H1340 C1316 0.950 . S
H1341 C1317 0.949 . S
H1342 C1319 0.950 . S
H1343 C1321 0.950 . S
C1344 C1345 1.349 . S
C1344 C1346 1.327 . S
C1344 H1369 0.950 . S
C1345 C1344 1.349 . S
C1345 C1361 1.349 . S
C1346 C1344 1.327 . S
C1346 C1365 1.429 . S
C1346 H1370 0.950 . S
C1347 C1364 1.574 . S
C1347 C1366 1.368 . S
C1347 H1371 0.949 . S
H1348 C1352 0.949 . S
C1349 C1350 1.349 . S
C1349 C1351 1.327 . S
C1349 H1372 0.950 . S
C1350 C1349 1.349 . S
C1350 C1362 1.349 . S
C1351 C1349 1.327 . S
C1351 C1367 1.429 . S
C1351 H1373 0.950 . S
C1352 H1348 0.949 . S
C1352 C1360 1.574 . S
C1352 C1368 1.368 . S
H1353 C1361 0.950 . S
H1354 C1359 0.950 . S
H1355 C1360 0.949 . S
H1356 C1362 0.950 . S
H1357 C1363 0.950 . S
H1358 C1364 0.949 . S
C1359 H1354 0.950 . S
C1359 C1361 1.327 . S
C1359 C1365 1.429 . S
C1360 C1352 1.574 . S
C1360 H1355 0.949 . S
C1360 C1366 1.368 . S
C1361 C1345 1.349 . S
C1361 H1353 0.950 . S
C1361 C1359 1.327 . S
C1362 C1350 1.349 . S
C1362 H1356 0.950 . S
C1362 C1363 1.327 . S
C1363 H1357 0.950 . S
C1363 C1362 1.327 . S
C1363 C1367 1.429 . S
C1364 C1347 1.574 . S
C1364 H1358 0.949 . S
C1364 C1368 1.368 . S
C1365 C1346 1.429 . S
C1365 C1359 1.429 . S
C1365 C1366 1.523 . S
C1366 C1347 1.368 . S
C1366 C1360 1.368 . S
C1366 C1365 1.523 . S
C1367 C1351 1.429 . S
C1367 C1363 1.429 . S
C1367 C1368 1.523 . S
C1368 C1352 1.368 . S
C1368 C1364 1.368 . S
C1368 C1367 1.523 . S
H1369 C1344 0.950 . S
H1370 C1346 0.950 . S
H1371 C1347 0.949 . S
H1372 C1349 0.950 . S
H1373 C1351 0.950 . S
C1374 C1375 1.349 . S
C1374 C1376 1.327 . S
C1374 H1399 0.950 . S
C1375 C1374 1.349 . S
C1375 C1391 1.349 . S
C1376 C1374 1.327 . S
C1376 C1395 1.429 . S
C1376 H1400 0.950 . S
C1377 C1394 1.574 . S
C1377 C1396 1.368 . S
C1377 H1401 0.949 . S
H1378 C1382 0.949 . S
C1379 C1380 1.349 . S
C1379 C1381 1.327 . S
C1379 H1402 0.950 . S
C1380 C1379 1.349 . S
C1380 C1392 1.349 . S
C1381 C1379 1.327 . S
C1381 C1397 1.429 . S
C1381 H1403 0.950 . S
C1382 H1378 0.949 . S
C1382 C1390 1.574 . S
C1382 C1398 1.368 . S
H1383 C1391 0.950 . S
H1384 C1389 0.950 . S
H1385 C1390 0.949 . S
H1386 C1392 0.950 . S
H1387 C1393 0.950 . S
H1388 C1394 0.949 . S
C1389 H1384 0.950 . S
C1389 C1391 1.327 . S
C1389 C1395 1.429 . S
C1390 C1382 1.574 . S
C1390 H1385 0.949 . S
C1390 C1396 1.368 . S
C1391 C1375 1.349 . S
C1391 H1383 0.950 . S
C1391 C1389 1.327 . S
C1392 C1380 1.349 . S
C1392 H1386 0.950 . S
C1392 C1393 1.327 . S
C1393 H1387 0.950 . S
C1393 C1392 1.327 . S
C1393 C1397 1.429 . S
C1394 C1377 1.574 . S
C1394 H1388 0.949 . S
C1394 C1398 1.368 . S
C1395 C1376 1.429 . S
C1395 C1389 1.429 . S
C1395 C1396 1.523 . S
C1396 C1377 1.368 . S
C1396 C1390 1.368 . S
C1396 C1395 1.523 . S
C1397 C1381 1.429 . S
C1397 C1393 1.429 . S
C1397 C1398 1.523 . S
C1398 C1382 1.368 . S
C1398 C1394 1.368 . S
C1398 C1397 1.523 . S
H1399 C1374 0.950 . S
H1400 C1376 0.950 . S
H1401 C1377 0.949 . S
H1402 C1379 0.950 . S
H1403 C1381 0.950 . S
C1404 C1405 1.349 . S
C1404 C1406 1.327 . S
C1404 H1429 0.950 . S
C1405 C1404 1.349 . S
C1405 C1421 1.349 . S
C1406 C1404 1.327 . S
C1406 C1425 1.429 . S
C1406 H1430 0.950 . S
C1407 C1424 1.574 . S
C1407 C1426 1.368 . S
C1407 H1431 0.949 . S
H1408 C1412 0.949 . S
C1409 C1410 1.349 . S
C1409 C1411 1.327 . S
C1409 H1432 0.950 . S
C1410 C1409 1.349 . S
C1410 C1422 1.349 . S
C1411 C1409 1.327 . S
C1411 C1427 1.429 . S
C1411 H1433 0.950 . S
C1412 H1408 0.949 . S
C1412 C1420 1.574 . S
C1412 C1428 1.368 . S
H1413 C1421 0.950 . S
H1414 C1419 0.950 . S
H1415 C1420 0.949 . S
H1416 C1422 0.950 . S
H1417 C1423 0.950 . S
H1418 C1424 0.949 . S
C1419 H1414 0.950 . S
C1419 C1421 1.327 . S
C1419 C1425 1.429 . S
C1420 C1412 1.574 . S
C1420 H1415 0.949 . S
C1420 C1426 1.368 . S
C1421 C1405 1.349 . S
C1421 H1413 0.950 . S
C1421 C1419 1.327 . S
C1422 C1410 1.349 . S
C1422 H1416 0.950 . S
C1422 C1423 1.327 . S
C1423 H1417 0.950 . S
C1423 C1422 1.327 . S
C1423 C1427 1.429 . S
C1424 C1407 1.574 . S
C1424 H1418 0.949 . S
C1424 C1428 1.368 . S
C1425 C1406 1.429 . S
C1425 C1419 1.429 . S
C1425 C1426 1.523 . S
C1426 C1407 1.368 . S
C1426 C1420 1.368 . S
C1426 C1425 1.523 . S
C1427 C1411 1.429 . S
C1427 C1423 1.429 . S
C1427 C1428 1.523 . S
C1428 C1412 1.368 . S
C1428 C1424 1.368 . S
C1428 C1427 1.523 . S
H1429 C1404 0.950 . S
H1430 C1406 0.950 . S
H1431 C1407 0.949 . S
H1432 C1409 0.950 . S
H1433 C1411 0.950 . S
C1434 C1435 1.349 . S
C1434 C1436 1.327 . S
C1434 H1459 0.950 . S
C1435 C1434 1.349 . S
C1435 C1451 1.349 . S
C1436 C1434 1.327 . S
C1436 C1455 1.429 . S
C1436 H1460 0.950 . S
C1437 C1454 1.574 . S
C1437 C1456 1.368 . S
C1437 H1461 0.949 . S
H1438 C1442 0.949 . S
C1439 C1440 1.349 . S
C1439 C1441 1.327 . S
C1439 H1462 0.950 . S
C1440 C1439 1.349 . S
C1440 C1452 1.349 . S
C1441 C1439 1.327 . S
C1441 C1457 1.429 . S
C1441 H1463 0.950 . S
C1442 H1438 0.949 . S
C1442 C1450 1.574 . S
C1442 C1458 1.368 . S
H1443 C1451 0.950 . S
H1444 C1449 0.950 . S
H1445 C1450 0.949 . S
H1446 C1452 0.950 . S
H1447 C1453 0.950 . S
H1448 C1454 0.949 . S
C1449 H1444 0.950 . S
C1449 C1451 1.327 . S
C1449 C1455 1.429 . S
C1450 C1442 1.574 . S
C1450 H1445 0.949 . S
C1450 C1456 1.368 . S
C1451 C1435 1.349 . S
C1451 H1443 0.950 . S
C1451 C1449 1.327 . S
C1452 C1440 1.349 . S
C1452 H1446 0.950 . S
C1452 C1453 1.327 . S
C1453 H1447 0.950 . S
C1453 C1452 1.327 . S
C1453 C1457 1.429 . S
C1454 C1437 1.574 . S
C1454 H1448 0.949 . S
C1454 C1458 1.368 . S
C1455 C1436 1.429 . S
C1455 C1449 1.429 . S
C1455 C1456 1.523 . S
C1456 C1437 1.368 . S
C1456 C1450 1.368 . S
C1456 C1455 1.523 . S
C1457 C1441 1.429 . S
C1457 C1453 1.429 . S
C1457 C1458 1.523 . S
C1458 C1442 1.368 . S
C1458 C1454 1.368 . S
C1458 C1457 1.523 . S
H1459 C1434 0.950 . S
H1460 C1436 0.950 . S
H1461 C1437 0.949 . S
H1462 C1439 0.950 . S
H1463 C1441 0.950 . S
C1464 C1465 1.349 . S
C1464 C1466 1.327 . S
C1464 H1489 0.950 . S
C1465 C1464 1.349 . S
C1465 C1481 1.349 . S
C1466 C1464 1.327 . S
C1466 C1485 1.429 . S
C1466 H1490 0.950 . S
C1467 C1484 1.574 . S
C1467 C1486 1.368 . S
C1467 H1491 0.949 . S
H1468 C1472 0.949 . S
C1469 C1470 1.349 . S
C1469 C1471 1.327 . S
C1469 H1492 0.950 . S
C1470 C1469 1.349 . S
C1470 C1482 1.349 . S
C1471 C1469 1.327 . S
C1471 C1487 1.429 . S
C1471 H1493 0.950 . S
C1472 H1468 0.949 . S
C1472 C1480 1.574 . S
C1472 C1488 1.368 . S
H1473 C1481 0.950 . S
H1474 C1479 0.950 . S
H1475 C1480 0.949 . S
H1476 C1482 0.950 . S
H1477 C1483 0.950 . S
H1478 C1484 0.949 . S
C1479 H1474 0.950 . S
C1479 C1481 1.327 . S
C1479 C1485 1.429 . S
C1480 C1472 1.574 . S
C1480 H1475 0.949 . S
C1480 C1486 1.368 . S
C1481 C1465 1.349 . S
C1481 H1473 0.950 . S
C1481 C1479 1.327 . S
C1482 C1470 1.349 . S
C1482 H1476 0.950 . S
C1482 C1483 1.327 . S
C1483 H1477 0.950 . S
C1483 C1482 1.327 . S
C1483 C1487 1.429 . S
C1484 C1467 1.574 . S
C1484 H1478 0.949 . S
C1484 C1488 1.368 . S
C1485 C1466 1.429 . S
C1485 C1479 1.429 . S
C1485 C1486 1.523 . S
C1486 C1467 1.368 . S
C1486 C1480 1.368 . S
C1486 C1485 1.523 . S
C1487 C1471 1.429 . S
C1487 C1483 1.429 . S
C1487 C1488 1.523 . S
C1488 C1472 1.368 . S
C1488 C1484 1.368 . S
C1488 C1487 1.523 . S
H1489 C1464 0.950 . S
H1490 C1466 0.950 . S
H1491 C1467 0.949 . S
H1492 C1469 0.950 . S
H1493 C1471 0.950 . S
C1494 C1495 1.349 . S
C1494 C1496 1.327 . S
C1494 H1519 0.950 . S
C1495 C1494 1.349 . S
C1495 C1511 1.349 . S
C1496 C1494 1.327 . S
C1496 C1515 1.429 . S
C1496 H1520 0.950 . S
C1497 C1514 1.574 . S
C1497 C1516 1.368 . S
C1497 H1521 0.949 . S
H1498 C1502 0.949 . S
C1499 C1500 1.349 . S
C1499 C1501 1.327 . S
C1499 H1522 0.950 . S
C1500 C1499 1.349 . S
C1500 C1512 1.349 . S
C1501 C1499 1.327 . S
C1501 C1517 1.429 . S
C1501 H1523 0.950 . S
C1502 H1498 0.949 . S
C1502 C1510 1.574 . S
C1502 C1518 1.368 . S
H1503 C1511 0.950 . S
H1504 C1509 0.950 . S
H1505 C1510 0.949 . S
H1506 C1512 0.950 . S
H1507 C1513 0.950 . S
H1508 C1514 0.949 . S
C1509 H1504 0.950 . S
C1509 C1511 1.327 . S
C1509 C1515 1.429 . S
C1510 C1502 1.574 . S
C1510 H1505 0.949 . S
C1510 C1516 1.368 . S
C1511 C1495 1.349 . S
C1511 H1503 0.950 . S
C1511 C1509 1.327 . S
C1512 C1500 1.349 . S
C1512 H1506 0.950 . S
C1512 C1513 1.327 . S
C1513 H1507 0.950 . S
C1513 C1512 1.327 . S
C1513 C1517 1.429 . S
C1514 C1497 1.574 . S
C1514 H1508 0.949 . S
C1514 C1518 1.368 . S
C1515 C1496 1.429 . S
C1515 C1509 1.429 . S
C1515 C1516 1.523 . S
C1516 C1497 1.368 . S
C1516 C1510 1.368 . S
C1516 C1515 1.523 . S
C1517 C1501 1.429 . S
C1517 C1513 1.429 . S
C1517 C1518 1.523 . S
C1518 C1502 1.368 . S
C1518 C1514 1.368 . S
C1518 C1517 1.523 . S
H1519 C1494 0.950 . S
H1520 C1496 0.950 . S
H1521 C1497 0.949 . S
H1522 C1499 0.950 . S
H1523 C1501 0.950 . S
C1524 C1525 1.349 . S
C1524 C1526 1.327 . S
C1524 H1549 0.950 . S
C1525 C1524 1.349 . S
C1525 C1541 1.349 . S
C1526 C1524 1.327 . S
C1526 C1545 1.429 . S
C1526 H1550 0.950 . S
C1527 C1544 1.574 . S
C1527 C1546 1.368 . S
C1527 H1551 0.949 . S
H1528 C1532 0.949 . S
C1529 C1530 1.349 . S
C1529 C1531 1.327 . S
C1529 H1552 0.950 . S
C1530 C1529 1.349 . S
C1530 C1542 1.349 . S
C1531 C1529 1.327 . S
C1531 C1547 1.429 . S
C1531 H1553 0.950 . S
C1532 H1528 0.949 . S
C1532 C1540 1.574 . S
C1532 C1548 1.368 . S
H1533 C1541 0.950 . S
H1534 C1539 0.950 . S
H1535 C1540 0.949 . S
H1536 C1542 0.950 . S
H1537 C1543 0.950 . S
H1538 C1544 0.949 . S
C1539 H1534 0.950 . S
C1539 C1541 1.327 . S
C1539 C1545 1.429 . S
C1540 C1532 1.574 . S
C1540 H1535 0.949 . S
C1540 C1546 1.368 . S
C1541 C1525 1.349 . S
C1541 H1533 0.950 . S
C1541 C1539 1.327 . S
C1542 C1530 1.349 . S
C1542 H1536 0.950 . S
C1542 C1543 1.327 . S
C1543 H1537 0.950 . S
C1543 C1542 1.327 . S
C1543 C1547 1.429 . S
C1544 C1527 1.574 . S
C1544 H1538 0.949 . S
C1544 C1548 1.368 . S
C1545 C1526 1.429 . S
C1545 C1539 1.429 . S
C1545 C1546 1.523 . S
C1546 C1527 1.368 . S
C1546 C1540 1.368 . S
C1546 C1545 1.523 . S
C1547 C1531 1.429 . S
C1547 C1543 1.429 . S
C1547 C1548 1.523 . S
C1548 C1532 1.368 . S
C1548 C1544 1.368 . S
C1548 C1547 1.523 . S
H1549 C1524 0.950 . S
H1550 C1526 0.950 . S
H1551 C1527 0.949 . S
H1552 C1529 0.950 . S
H1553 C1531 0.950 . S
C1554 C1555 1.349 . S
C1554 C1556 1.327 . S
C1554 H1579 0.950 . S
C1555 C1554 1.349 . S
C1555 C1571 1.349 . S
C1556 C1554 1.327 . S
C1556 C1575 1.429 . S
C1556 H1580 0.950 . S
C1557 C1574 1.574 . S
C1557 C1576 1.368 . S
C1557 H1581 0.949 . S
H1558 C1562 0.949 . S
C1559 C1560 1.349 . S
C1559 C1561 1.327 . S
C1559 H1582 0.950 . S
C1560 C1559 1.349 . S
C1560 C1572 1.349 . S
C1561 C1559 1.327 . S
C1561 C1577 1.429 . S
C1561 H1583 0.950 . S
C1562 H1558 0.949 . S
C1562 C1570 1.574 . S
C1562 C1578 1.368 . S
H1563 C1571 0.950 . S
H1564 C1569 0.950 . S
H1565 C1570 0.949 . S
H1566 C1572 0.950 . S
H1567 C1573 0.950 . S
H1568 C1574 0.949 . S
C1569 H1564 0.950 . S
C1569 C1571 1.327 . S
C1569 C1575 1.429 . S
C1570 C1562 1.574 . S
C1570 H1565 0.949 . S
C1570 C1576 1.368 . S
C1571 C1555 1.349 . S
C1571 H1563 0.950 . S
C1571 C1569 1.327 . S
C1572 C1560 1.349 . S
C1572 H1566 0.950 . S
C1572 C1573 1.327 . S
C1573 H1567 0.950 . S
C1573 C1572 1.327 . S
C1573 C1577 1.429 . S
C1574 C1557 1.574 . S
C1574 H1568 0.949 . S
C1574 C1578 1.368 . S
C1575 C1556 1.429 . S
C1575 C1569 1.429 . S
C1575 C1576 1.523 . S
C1576 C1557 1.368 . S
C1576 C1570 1.368 . S
C1576 C1575 1.523 . S
C1577 C1561 1.429 . S
C1577 C1573 1.429 . S
C1577 C1578 1.523 . S
C1578 C1562 1.368 . S
C1578 C1574 1.368 . S
C1578 C1577 1.523 . S
H1579 C1554 0.950 . S
H1580 C1556 0.950 . S
H1581 C1557 0.949 . S
H1582 C1559 0.950 . S
H1583 C1561 0.950 . S
C1584 C1585 1.349 . S
C1584 C1586 1.327 . S
C1584 H1609 0.950 . S
C1585 C1584 1.349 . S
C1585 C1601 1.349 . S
C1586 C1584 1.327 . S
C1586 C1605 1.429 . S
C1586 H1610 0.950 . S
C1587 C1604 1.574 . S
C1587 C1606 1.368 . S
C1587 H1611 0.949 . S
H1588 C1592 0.949 . S
C1589 C1590 1.349 . S
C1589 C1591 1.327 . S
C1589 H1612 0.950 . S
C1590 C1589 1.349 . S
C1590 C1602 1.349 . S
C1591 C1589 1.327 . S
C1591 C1607 1.429 . S
C1591 H1613 0.950 . S
C1592 H1588 0.949 . S
C1592 C1600 1.574 . S
C1592 C1608 1.368 . S
H1593 C1601 0.950 . S
H1594 C1599 0.950 . S
H1595 C1600 0.949 . S
H1596 C1602 0.950 . S
H1597 C1603 0.950 . S
H1598 C1604 0.949 . S
C1599 H1594 0.950 . S
C1599 C1601 1.327 . S
C1599 C1605 1.429 . S
C1600 C1592 1.574 . S
C1600 H1595 0.949 . S
C1600 C1606 1.368 . S
C1601 C1585 1.349 . S
C1601 H1593 0.950 . S
C1601 C1599 1.327 . S
C1602 C1590 1.349 . S
C1602 H1596 0.950 . S
C1602 C1603 1.327 . S
C1603 H1597 0.950 . S
C1603 C1602 1.327 . S
C1603 C1607 1.429 . S
C1604 C1587 1.574 . S
C1604 H1598 0.949 . S
C1604 C1608 1.368 . S
C1605 C1586 1.429 . S
C1605 C1599 1.429 . S
C1605 C1606 1.523 . S
C1606 C1587 1.368 . S
C1606 C1600 1.368 . S
C1606 C1605 1.523 . S
C1607 C1591 1.429 . S
C1607 C1603 1.429 . S
C1607 C1608 1.523 . S
C1608 C1592 1.368 . S
C1608 C1604 1.368 . S
C1608 C1607 1.523 . S
H1609 C1584 0.950 . S
H1610 C1586 0.950 . S
H1611 C1587 0.949 . S
H1612 C1589 0.950 . S
H1613 C1591 0.950 . S
C1614 C1615 1.349 . S
C1614 C1616 1.327 . S
C1614 H1639 0.950 . S
C1615 C1614 1.349 . S
C1615 C1631 1.349 . S
C1616 C1614 1.327 . S
C1616 C1635 1.429 . S
C1616 H1640 0.950 . S
C1617 C1634 1.574 . S
C1617 C1636 1.368 . S
C1617 H1641 0.949 . S
H1618 C1622 0.949 . S
C1619 C1620 1.349 . S
C1619 C1621 1.327 . S
C1619 H1642 0.950 . S
C1620 C1619 1.349 . S
C1620 C1632 1.349 . S
C1621 C1619 1.327 . S
C1621 C1637 1.429 . S
C1621 H1643 0.950 . S
C1622 H1618 0.949 . S
C1622 C1630 1.574 . S
C1622 C1638 1.368 . S
H1623 C1631 0.950 . S
H1624 C1629 0.950 . S
H1625 C1630 0.949 . S
H1626 C1632 0.950 . S
H1627 C1633 0.950 . S
H1628 C1634 0.949 . S
C1629 H1624 0.950 . S
C1629 C1631 1.327 . S
C1629 C1635 1.429 . S
C1630 C1622 1.574 . S
C1630 H1625 0.949 . S
C1630 C1636 1.368 . S
C1631 C1615 1.349 . S
C1631 H1623 0.950 . S
C1631 C1629 1.327 . S
C1632 C1620 1.349 . S
C1632 H1626 0.950 . S
C1632 C1633 1.327 . S
C1633 H1627 0.950 . S
C1633 C1632 1.327 . S
C1633 C1637 1.429 . S
C1634 C1617 1.574 . S
C1634 H1628 0.949 . S
C1634 C1638 1.368 . S
C1635 C1616 1.429 . S
C1635 C1629 1.429 . S
C1635 C1636 1.523 . S
C1636 C1617 1.368 . S
C1636 C1630 1.368 . S
C1636 C1635 1.523 . S
C1637 C1621 1.429 . S
C1637 C1633 1.429 . S
C1637 C1638 1.523 . S
C1638 C1622 1.368 . S
C1638 C1634 1.368 . S
C1638 C1637 1.523 . S
H1639 C1614 0.950 . S
H1640 C1616 0.950 . S
H1641 C1617 0.949 . S
H1642 C1619 0.950 . S
H1643 C1621 0.950 . S
C1644 C1645 1.349 . S
C1644 C1646 1.327 . S
C1644 H1669 0.950 . S
C1645 C1644 1.349 . S
C1645 C1661 1.349 . S
C1646 C1644 1.327 . S
C1646 C1665 1.429 . S
C1646 H1670 0.950 . S
C1647 C1664 1.574 . S
C1647 C1666 1.368 . S
C1647 H1671 0.949 . S
H1648 C1652 0.949 . S
C1649 C1650 1.349 . S
C1649 C1651 1.327 . S
C1649 H1672 0.950 . S
C1650 C1649 1.349 . S
C1650 C1662 1.349 . S
C1651 C1649 1.327 . S
C1651 C1667 1.429 . S
C1651 H1673 0.950 . S
C1652 H1648 0.949 . S
C1652 C1660 1.574 . S
C1652 C1668 1.368 . S
H1653 C1661 0.950 . S
H1654 C1659 0.950 . S
H1655 C1660 0.949 . S
H1656 C1662 0.950 . S
H1657 C1663 0.950 . S
H1658 C1664 0.949 . S
C1659 H1654 0.950 . S
C1659 C1661 1.327 . S
C1659 C1665 1.429 . S
C1660 C1652 1.574 . S
C1660 H1655 0.949 . S
C1660 C1666 1.368 . S
C1661 C1645 1.349 . S
C1661 H1653 0.950 . S
C1661 C1659 1.327 . S
C1662 C1650 1.349 . S
C1662 H1656 0.950 . S
C1662 C1663 1.327 . S
C1663 H1657 0.950 . S
C1663 C1662 1.327 . S
C1663 C1667 1.429 . S
C1664 C1647 1.574 . S
C1664 H1658 0.949 . S
C1664 C1668 1.368 . S
C1665 C1646 1.429 . S
C1665 C1659 1.429 . S
C1665 C1666 1.523 . S
C1666 C1647 1.368 . S
C1666 C1660 1.368 . S
C1666 C1665 1.523 . S
C1667 C1651 1.429 . S
C1667 C1663 1.429 . S
C1667 C1668 1.523 . S
C1668 C1652 1.368 . S
C1668 C1664 1.368 . S
C1668 C1667 1.523 . S
H1669 C1644 0.950 . S
H1670 C1646 0.950 . S
H1671 C1647 0.949 . S
H1672 C1649 0.950 . S
H1673 C1651 0.950 . S
C1674 C1675 1.349 . S
C1674 C1676 1.327 . S
C1674 H1699 0.950 . S
C1675 C1674 1.349 . S
C1675 C1691 1.349 . S
C1676 C1674 1.327 . S
C1676 C1695 1.429 . S
C1676 H1700 0.950 . S
C1677 C1694 1.574 . S
C1677 C1696 1.368 . S
C1677 H1701 0.949 . S
H1678 C1682 0.949 . S
C1679 C1680 1.349 . S
C1679 C1681 1.327 . S
C1679 H1702 0.950 . S
C1680 C1679 1.349 . S
C1680 C1692 1.349 . S
C1681 C1679 1.327 . S
C1681 C1697 1.429 . S
C1681 H1703 0.950 . S
C1682 H1678 0.949 . S
C1682 C1690 1.574 . S
C1682 C1698 1.368 . S
H1683 C1691 0.950 . S
H1684 C1689 0.950 . S
H1685 C1690 0.949 . S
H1686 C1692 0.950 . S
H1687 C1693 0.950 . S
H1688 C1694 0.949 . S
C1689 H1684 0.950 . S
C1689 C1691 1.327 . S
C1689 C1695 1.429 . S
C1690 C1682 1.574 . S
C1690 H1685 0.949 . S
C1690 C1696 1.368 . S
C1691 C1675 1.349 . S
C1691 H1683 0.950 . S
C1691 C1689 1.327 . S
C1692 C1680 1.349 . S
C1692 H1686 0.950 . S
C1692 C1693 1.327 . S
C1693 H1687 0.950 . S
C1693 C1692 1.327 . S
C1693 C1697 1.429 . S
C1694 C1677 1.574 . S
C1694 H1688 0.949 . S
C1694 C1698 1.368 . S
C1695 C1676 1.429 . S
C1695 C1689 1.429 . S
C1695 C1696 1.523 . S
C1696 C1677 1.368 . S
C1696 C1690 1.368 . S
C1696 C1695 1.523 . S
C1697 C1681 1.429 . S
C1697 C1693 1.429 . S
C1697 C1698 1.523 . S
C1698 C1682 1.368 . S
C1698 C1694 1.368 . S
C1698 C1697 1.523 . S
H1699 C1674 0.950 . S
H1700 C1676 0.950 . S
H1701 C1677 0.949 . S
H1702 C1679 0.950 . S
H1703 C1681 0.950 . S
C1704 C1705 1.349 . S
C1704 C1706 1.327 . S
C1704 H1729 0.950 . S
C1705 C1704 1.349 . S
C1705 C1721 1.349 . S
C1706 C1704 1.327 . S
C1706 C1725 1.429 . S
C1706 H1730 0.950 . S
C1707 C1724 1.574 . S
C1707 C1726 1.368 . S
C1707 H1731 0.949 . S
H1708 C1712 0.949 . S
C1709 C1710 1.349 . S
C1709 C1711 1.327 . S
C1709 H1732 0.950 . S
C1710 C1709 1.349 . S
C1710 C1722 1.349 . S
C1711 C1709 1.327 . S
C1711 C1727 1.429 . S
C1711 H1733 0.950 . S
C1712 H1708 0.949 . S
C1712 C1720 1.574 . S
C1712 C1728 1.368 . S
H1713 C1721 0.950 . S
H1714 C1719 0.950 . S
H1715 C1720 0.949 . S
H1716 C1722 0.950 . S
H1717 C1723 0.950 . S
H1718 C1724 0.949 . S
C1719 H1714 0.950 . S
C1719 C1721 1.327 . S
C1719 C1725 1.429 . S
C1720 C1712 1.574 . S
C1720 H1715 0.949 . S
C1720 C1726 1.368 . S
C1721 C1705 1.349 . S
C1721 H1713 0.950 . S
C1721 C1719 1.327 . S
C1722 C1710 1.349 . S
C1722 H1716 0.950 . S
C1722 C1723 1.327 . S
C1723 H1717 0.950 . S
C1723 C1722 1.327 . S
C1723 C1727 1.429 . S
C1724 C1707 1.574 . S
C1724 H1718 0.949 . S
C1724 C1728 1.368 . S
C1725 C1706 1.429 . S
C1725 C1719 1.429 . S
C1725 C1726 1.523 . S
C1726 C1707 1.368 . S
C1726 C1720 1.368 . S
C1726 C1725 1.523 . S
C1727 C1711 1.429 . S
C1727 C1723 1.429 . S
C1727 C1728 1.523 . S
C1728 C1712 1.368 . S
C1728 C1724 1.368 . S
C1728 C1727 1.523 . S
H1729 C1704 0.950 . S
H1730 C1706 0.950 . S
H1731 C1707 0.949 . S
H1732 C1709 0.950 . S
H1733 C1711 0.950 . S
C1734 C1735 1.349 . S
C1734 C1736 1.327 . S
C1734 H1759 0.950 . S
C1735 C1734 1.349 . S
C1735 C1751 1.349 . S
C1736 C1734 1.327 . S
C1736 C1755 1.429 . S
C1736 H1760 0.950 . S
C1737 C1754 1.574 . S
C1737 C1756 1.368 . S
C1737 H1761 0.949 . S
H1738 C1742 0.949 . S
C1739 C1740 1.349 . S
C1739 C1741 1.327 . S
C1739 H1762 0.950 . S
C1740 C1739 1.349 . S
C1740 C1752 1.349 . S
C1741 C1739 1.327 . S
C1741 C1757 1.429 . S
C1741 H1763 0.950 . S
C1742 H1738 0.949 . S
C1742 C1750 1.574 . S
C1742 C1758 1.368 . S
H1743 C1751 0.950 . S
H1744 C1749 0.950 . S
H1745 C1750 0.949 . S
H1746 C1752 0.950 . S
H1747 C1753 0.950 . S
H1748 C1754 0.949 . S
C1749 H1744 0.950 . S
C1749 C1751 1.327 . S
C1749 C1755 1.429 . S
C1750 C1742 1.574 . S
C1750 H1745 0.949 . S
C1750 C1756 1.368 . S
C1751 C1735 1.349 . S
C1751 H1743 0.950 . S
C1751 C1749 1.327 . S
C1752 C1740 1.349 . S
C1752 H1746 0.950 . S
C1752 C1753 1.327 . S
C1753 H1747 0.950 . S
C1753 C1752 1.327 . S
C1753 C1757 1.429 . S
C1754 C1737 1.574 . S
C1754 H1748 0.949 . S
C1754 C1758 1.368 . S
C1755 C1736 1.429 . S
C1755 C1749 1.429 . S
C1755 C1756 1.523 . S
C1756 C1737 1.368 . S
C1756 C1750 1.368 . S
C1756 C1755 1.523 . S
C1757 C1741 1.429 . S
C1757 C1753 1.429 . S
C1757 C1758 1.523 . S
C1758 C1742 1.368 . S
C1758 C1754 1.368 . S
C1758 C1757 1.523 . S
H1759 C1734 0.950 . S
H1760 C1736 0.950 . S
H1761 C1737 0.949 . S
H1762 C1739 0.950 . S
H1763 C1741 0.950 . S
C1764 C1765 1.349 . S
C1764 C1766 1.327 . S
C1764 H1789 0.950 . S
C1765 C1764 1.349 . S
C1765 C1781 1.349 . S
C1766 C1764 1.327 . S
C1766 C1785 1.429 . S
C1766 H1790 0.950 . S
C1767 C1784 1.574 . S
C1767 C1786 1.368 . S
C1767 H1791 0.949 . S
H1768 C1772 0.949 . S
C1769 C1770 1.349 . S
C1769 C1771 1.327 . S
C1769 H1792 0.950 . S
C1770 C1769 1.349 . S
C1770 C1782 1.349 . S
C1771 C1769 1.327 . S
C1771 C1787 1.429 . S
C1771 H1793 0.950 . S
C1772 H1768 0.949 . S
C1772 C1780 1.574 . S
C1772 C1788 1.368 . S
H1773 C1781 0.950 . S
H1774 C1779 0.950 . S
H1775 C1780 0.949 . S
H1776 C1782 0.950 . S
H1777 C1783 0.950 . S
H1778 C1784 0.949 . S
C1779 H1774 0.950 . S
C1779 C1781 1.327 . S
C1779 C1785 1.429 . S
C1780 C1772 1.574 . S
C1780 H1775 0.949 . S
C1780 C1786 1.368 . S
C1781 C1765 1.349 . S
C1781 H1773 0.950 . S
C1781 C1779 1.327 . S
C1782 C1770 1.349 . S
C1782 H1776 0.950 . S
C1782 C1783 1.327 . S
C1783 H1777 0.950 . S
C1783 C1782 1.327 . S
C1783 C1787 1.429 . S
C1784 C1767 1.574 . S
C1784 H1778 0.949 . S
C1784 C1788 1.368 . S
C1785 C1766 1.429 . S
C1785 C1779 1.429 . S
C1785 C1786 1.523 . S
C1786 C1767 1.368 . S
C1786 C1780 1.368 . S
C1786 C1785 1.523 . S
C1787 C1771 1.429 . S
C1787 C1783 1.429 . S
C1787 C1788 1.523 . S
C1788 C1772 1.368 . S
C1788 C1784 1.368 . S
C1788 C1787 1.523 . S
H1789 C1764 0.950 . S
H1790 C1766 0.950 . S
H1791 C1767 0.949 . S
H1792 C1769 0.950 . S
H1793 C1771 0.950 . S
C1794 C1795 1.349 . S
C1794 C1796 1.327 . S
C1794 H1819 0.950 . S
C1795 C1794 1.349 . S
C1795 C1811 1.349 . S
C1796 C1794 1.327 . S
C1796 C1815 1.429 . S
C1796 H1820 0.950 . S
C1797 C1814 1.574 . S
C1797 C1816 1.368 . S
C1797 H1821 0.949 . S
H1798 C1802 0.949 . S
C1799 C1800 1.349 . S
C1799 C1801 1.327 . S
C1799 H1822 0.950 . S
C1800 C1799 1.349 . S
C1800 C1812 1.349 . S
C1801 C1799 1.327 . S
C1801 C1817 1.429 . S
C1801 H1823 0.950 . S
C1802 H1798 0.949 . S
C1802 C1810 1.574 . S
C1802 C1818 1.368 . S
H1803 C1811 0.950 . S
H1804 C1809 0.950 . S
H1805 C1810 0.949 . S
H1806 C1812 0.950 . S
H1807 C1813 0.950 . S
H1808 C1814 0.949 . S
C1809 H1804 0.950 . S
C1809 C1811 1.327 . S
C1809 C1815 1.429 . S
C1810 C1802 1.574 . S
C1810 H1805 0.949 . S
C1810 C1816 1.368 . S
C1811 C1795 1.349 . S
C1811 H1803 0.950 . S
C1811 C1809 1.327 . S
C1812 C1800 1.349 . S
C1812 H1806 0.950 . S
C1812 C1813 1.327 . S
C1813 H1807 0.950 . S
C1813 C1812 1.327 . S
C1813 C1817 1.429 . S
C1814 C1797 1.574 . S
C1814 H1808 0.949 . S
C1814 C1818 1.368 . S
C1815 C1796 1.429 . S
C1815 C1809 1.429 . S
C1815 C1816 1.523 . S
C1816 C1797 1.368 . S
C1816 C1810 1.368 . S
C1816 C1815 1.523 . S
C1817 C1801 1.429 . S
C1817 C1813 1.429 . S
C1817 C1818 1.523 . S
C1818 C1802 1.368 . S
C1818 C1814 1.368 . S
C1818 C1817 1.523 . S
H1819 C1794 0.950 . S
H1820 C1796 0.950 . S
H1821 C1797 0.949 . S
H1822 C1799 0.950 . S
H1823 C1801 0.950 . S
C1824 C1825 1.349 . S
C1824 C1826 1.327 . S
C1824 H1849 0.950 . S
C1825 C1824 1.349 . S
C1825 C1841 1.349 . S
C1826 C1824 1.327 . S
C1826 C1845 1.429 . S
C1826 H1850 0.950 . S
C1827 C1844 1.574 . S
C1827 C1846 1.368 . S
C1827 H1851 0.949 . S
H1828 C1832 0.949 . S
C1829 C1830 1.349 . S
C1829 C1831 1.327 . S
C1829 H1852 0.950 . S
C1830 C1829 1.349 . S
C1830 C1842 1.349 . S
C1831 C1829 1.327 . S
C1831 C1847 1.429 . S
C1831 H1853 0.950 . S
C1832 H1828 0.949 . S
C1832 C1840 1.574 . S
C1832 C1848 1.368 . S
H1833 C1841 0.950 . S
H1834 C1839 0.950 . S
H1835 C1840 0.949 . S
H1836 C1842 0.950 . S
H1837 C1843 0.950 . S
H1838 C1844 0.949 . S
C1839 H1834 0.950 . S
C1839 C1841 1.327 . S
C1839 C1845 1.429 . S
C1840 C1832 1.574 . S
C1840 H1835 0.949 . S
C1840 C1846 1.368 . S
C1841 C1825 1.349 . S
C1841 H1833 0.950 . S
C1841 C1839 1.327 . S
C1842 C1830 1.349 . S
C1842 H1836 0.950 . S
C1842 C1843 1.327 . S
C1843 H1837 0.950 . S
C1843 C1842 1.327 . S
C1843 C1847 1.429 . S
C1844 C1827 1.574 . S
C1844 H1838 0.949 . S
C1844 C1848 1.368 . S
C1845 C1826 1.429 . S
C1845 C1839 1.429 . S
C1845 C1846 1.523 . S
C1846 C1827 1.368 . S
C1846 C1840 1.368 . S
C1846 C1845 1.523 . S
C1847 C1831 1.429 . S
C1847 C1843 1.429 . S
C1847 C1848 1.523 . S
C1848 C1832 1.368 . S
C1848 C1844 1.368 . S
C1848 C1847 1.523 . S
H1849 C1824 0.950 . S
H1850 C1826 0.950 . S
H1851 C1827 0.949 . S
H1852 C1829 0.950 . S
H1853 C1831 0.950 . S
C1854 C1855 1.349 . S
C1854 C1856 1.327 . S
C1854 H1879 0.950 . S
C1855 C1854 1.349 . S
C1855 C1871 1.349 . S
C1856 C1854 1.327 . S
C1856 C1875 1.429 . S
C1856 H1880 0.950 . S
C1857 C1874 1.574 . S
C1857 C1876 1.368 . S
C1857 H1881 0.949 . S
H1858 C1862 0.949 . S
C1859 C1860 1.349 . S
C1859 C1861 1.327 . S
C1859 H1882 0.950 . S
C1860 C1859 1.349 . S
C1860 C1872 1.349 . S
C1861 C1859 1.327 . S
C1861 C1877 1.429 . S
C1861 H1883 0.950 . S
C1862 H1858 0.949 . S
C1862 C1870 1.574 . S
C1862 C1878 1.368 . S
H1863 C1871 0.950 . S
H1864 C1869 0.950 . S
H1865 C1870 0.949 . S
H1866 C1872 0.950 . S
H1867 C1873 0.950 . S
H1868 C1874 0.949 . S
C1869 H1864 0.950 . S
C1869 C1871 1.327 . S
C1869 C1875 1.429 . S
C1870 C1862 1.574 . S
C1870 H1865 0.949 . S
C1870 C1876 1.368 . S
C1871 C1855 1.349 . S
C1871 H1863 0.950 . S
C1871 C1869 1.327 . S
C1872 C1860 1.349 . S
C1872 H1866 0.950 . S
C1872 C1873 1.327 . S
C1873 H1867 0.950 . S
C1873 C1872 1.327 . S
C1873 C1877 1.429 . S
C1874 C1857 1.574 . S
C1874 H1868 0.949 . S
C1874 C1878 1.368 . S
C1875 C1856 1.429 . S
C1875 C1869 1.429 . S
C1875 C1876 1.523 . S
C1876 C1857 1.368 . S
C1876 C1870 1.368 . S
C1876 C1875 1.523 . S
C1877 C1861 1.429 . S
C1877 C1873 1.429 . S
C1877 C1878 1.523 . S
C1878 C1862 1.368 . S
C1878 C1874 1.368 . S
C1878 C1877 1.523 . S
H1879 C1854 0.950 . S
H1880 C1856 0.950 . S
H1881 C1857 0.949 . S
H1882 C1859 0.950 . S
H1883 C1861 0.950 . S
C1884 C1885 1.349 . S
C1884 C1886 1.327 . S
C1884 H1909 0.950 . S
C1885 C1884 1.349 . S
C1885 C1901 1.349 . S
C1886 C1884 1.327 . S
C1886 C1905 1.429 . S
C1886 H1910 0.950 . S
C1887 C1904 1.574 . S
C1887 C1906 1.368 . S
C1887 H1911 0.949 . S
H1888 C1892 0.949 . S
C1889 C1890 1.349 . S
C1889 C1891 1.327 . S
C1889 H1912 0.950 . S
C1890 C1889 1.349 . S
C1890 C1902 1.349 . S
C1891 C1889 1.327 . S
C1891 C1907 1.429 . S
C1891 H1913 0.950 . S
C1892 H1888 0.949 . S
C1892 C1900 1.574 . S
C1892 C1908 1.368 . S
H1893 C1901 0.950 . S
H1894 C1899 0.950 . S
H1895 C1900 0.949 . S
H1896 C1902 0.950 . S
H1897 C1903 0.950 . S
H1898 C1904 0.949 . S
C1899 H1894 0.950 . S
C1899 C1901 1.327 . S
C1899 C1905 1.429 . S
C1900 C1892 1.574 . S
C1900 H1895 0.949 . S
C1900 C1906 1.368 . S
C1901 C1885 1.349 . S
C1901 H1893 0.950 . S
C1901 C1899 1.327 . S
C1902 C1890 1.349 . S
C1902 H1896 0.950 . S
C1902 C1903 1.327 . S
C1903 H1897 0.950 . S
C1903 C1902 1.327 . S
C1903 C1907 1.429 . S
C1904 C1887 1.574 . S
C1904 H1898 0.949 . S
C1904 C1908 1.368 . S
C1905 C1886 1.429 . S
C1905 C1899 1.429 . S
C1905 C1906 1.523 . S
C1906 C1887 1.368 . S
C1906 C1900 1.368 . S
C1906 C1905 1.523 . S
C1907 C1891 1.429 . S
C1907 C1903 1.429 . S
C1907 C1908 1.523 . S
C1908 C1892 1.368 . S
C1908 C1904 1.368 . S
C1908 C1907 1.523 . S
H1909 C1884 0.950 . S
H1910 C1886 0.950 . S
H1911 C1887 0.949 . S
H1912 C1889 0.950 . S
H1913 C1891 0.950 . S
C1914 C1915 1.349 . S
C1914 C1916 1.327 . S
C1914 H1939 0.950 . S
C1915 C1914 1.349 . S
C1915 C1931 1.349 . S
C1916 C1914 1.327 . S
C1916 C1935 1.429 . S
C1916 H1940 0.950 . S
C1917 C1934 1.574 . S
C1917 C1936 1.368 . S
C1917 H1941 0.949 . S
H1918 C1922 0.949 . S
C1919 C1920 1.349 . S
C1919 C1921 1.327 . S
C1919 H1942 0.950 . S
C1920 C1919 1.349 . S
C1920 C1932 1.349 . S
C1921 C1919 1.327 . S
C1921 C1937 1.429 . S
C1921 H1943 0.950 . S
C1922 H1918 0.949 . S
C1922 C1930 1.574 . S
C1922 C1938 1.368 . S
H1923 C1931 0.950 . S
H1924 C1929 0.950 . S
H1925 C1930 0.949 . S
H1926 C1932 0.950 . S
H1927 C1933 0.950 . S
H1928 C1934 0.949 . S
C1929 H1924 0.950 . S
C1929 C1931 1.327 . S
C1929 C1935 1.429 . S
C1930 C1922 1.574 . S
C1930 H1925 0.949 . S
C1930 C1936 1.368 . S
C1931 C1915 1.349 . S
C1931 H1923 0.950 . S
C1931 C1929 1.327 . S
C1932 C1920 1.349 . S
C1932 H1926 0.950 . S
C1932 C1933 1.327 . S
C1933 H1927 0.950 . S
C1933 C1932 1.327 . S
C1933 C1937 1.429 . S
C1934 C1917 1.574 . S
C1934 H1928 0.949 . S
C1934 C1938 1.368 . S
C1935 C1916 1.429 . S
C1935 C1929 1.429 . S
C1935 C1936 1.523 . S
C1936 C1917 1.368 . S
C1936 C1930 1.368 . S
C1936 C1935 1.523 . S
C1937 C1921 1.429 . S
C1937 C1933 1.429 . S
C1937 C1938 1.523 . S
C1938 C1922 1.368 . S
C1938 C1934 1.368 . S
C1938 C1937 1.523 . S
H1939 C1914 0.950 . S
H1940 C1916 0.950 . S
H1941 C1917 0.949 . S
H1942 C1919 0.950 . S
H1943 C1921 0.950 . S
C1944 C1945 1.349 . S
C1944 C1946 1.327 . S
C1944 H1969 0.950 . S
C1945 C1944 1.349 . S
C1945 C1961 1.349 . S
C1946 C1944 1.327 . S
C1946 C1965 1.429 . S
C1946 H1970 0.950 . S
C1947 C1964 1.574 . S
C1947 C1966 1.368 . S
C1947 H1971 0.949 . S
H1948 C1952 0.949 . S
C1949 C1950 1.349 . S
C1949 C1951 1.327 . S
C1949 H1972 0.950 . S
C1950 C1949 1.349 . S
C1950 C1962 1.349 . S
C1951 C1949 1.327 . S
C1951 C1967 1.429 . S
C1951 H1973 0.950 . S
C1952 H1948 0.949 . S
C1952 C1960 1.574 . S
C1952 C1968 1.368 . S
H1953 C1961 0.950 . S
H1954 C1959 0.950 . S
H1955 C1960 0.949 . S
H1956 C1962 0.950 . S
H1957 C1963 0.950 . S
H1958 C1964 0.949 . S
C1959 H1954 0.950 . S
C1959 C1961 1.327 . S
C1959 C1965 1.429 . S
C1960 C1952 1.574 . S
C1960 H1955 0.949 . S
C1960 C1966 1.368 . S
C1961 C1945 1.349 . S
C1961 H1953 0.950 . S
C1961 C1959 1.327 . S
C1962 C1950 1.349 . S
C1962 H1956 0.950 . S
C1962 C1963 1.327 . S
C1963 H1957 0.950 . S
C1963 C1962 1.327 . S
C1963 C1967 1.429 . S
C1964 C1947 1.574 . S
C1964 H1958 0.949 . S
C1964 C1968 1.368 . S
C1965 C1946 1.429 . S
C1965 C1959 1.429 . S
C1965 C1966 1.523 . S
C1966 C1947 1.368 . S
C1966 C1960 1.368 . S
C1966 C1965 1.523 . S
C1967 C1951 1.429 . S
C1967 C1963 1.429 . S
C1967 C1968 1.523 . S
C1968 C1952 1.368 . S
C1968 C1964 1.368 . S
C1968 C1967 1.523 . S
H1969 C1944 0.950 . S
H1970 C1946 0.950 . S
H1971 C1947 0.949 . S
H1972 C1949 0.950 . S
H1973 C1951 0.950 . S
C1974 C1975 1.371 . S
C1974 C1976 1.324 1_545 S
C1974 H1999 0.931 1_545 S
C1975 C1974 1.371 . S
C1975 C1991 1.349 . S
C1976 C1974 1.324 1_565 S
C1976 C1995 1.429 1_565 S
C1976 H2000 0.950 . S
C1977 C1994 1.574 . S
C1977 C1996 1.368 . S
C1977 H2001 0.949 . S
H1978 C1982 0.949 . S
C1979 C1980 1.371 . S
C1979 C1981 1.324 1_565 S
C1979 H2002 0.931 1_565 S
C1980 C1979 1.371 . S
C1980 C1992 1.349 . S
C1981 C1979 1.324 1_545 S
C1981 C1997 1.429 1_545 S
C1981 H2003 0.950 . S
C1982 H1978 0.949 . S
C1982 C1990 1.574 . S
C1982 C1998 1.368 . S
H1983 C1991 0.950 . S
H1984 C1989 0.950 . S
H1985 C1990 0.949 . S
H1986 C1992 0.950 . S
H1987 C1993 0.950 . S
H1988 C1994 0.949 . S
C1989 H1984 0.950 . S
C1989 C1991 1.327 . S
C1989 C1995 1.429 . S
C1990 C1982 1.574 . S
C1990 H1985 0.949 . S
C1990 C1996 1.368 1_565 S
C1991 C1975 1.349 . S
C1991 H1983 0.950 . S
C1991 C1989 1.327 . S
C1992 C1980 1.349 . S
C1992 H1986 0.950 . S
C1992 C1993 1.327 . S
C1993 H1987 0.950 . S
C1993 C1992 1.327 . S
C1993 C1997 1.429 . S
C1994 C1977 1.574 . S
C1994 H1988 0.949 . S
C1994 C1998 1.368 1_545 S
C1995 C1976 1.429 1_545 S
C1995 C1989 1.429 . S
C1995 C1996 1.523 . S
C1996 C1977 1.368 . S
C1996 C1990 1.368 1_545 S
C1996 C1995 1.523 . S
C1997 C1981 1.429 1_565 S
C1997 C1993 1.429 . S
C1997 C1998 1.523 . S
C1998 C1982 1.368 . S
C1998 C1994 1.368 1_565 S
C1998 C1997 1.523 . S
H1999 C1974 0.931 1_565 S
H2000 C1976 0.950 . S
H2001 C1977 0.949 . S
H2002 C1979 0.931 1_545 S
H2003 C1981 0.950 . S
C2004 C2005 1.349 1_655 S
C2004 C2006 1.327 . S
C2004 H2029 0.950 . S
C2005 C2004 1.349 1_455 S
C2005 C2021 1.349 . S
C2006 C2004 1.327 . S
C2006 C2025 1.429 1_655 S
C2006 H2030 0.950 . S
C2007 C2024 1.574 . S
C2007 C2026 1.368 . S
C2007 H2031 0.949 . S
H2008 C2012 0.949 . S
C2009 C2010 1.349 1_455 S
C2009 C2011 1.327 . S
C2009 H2032 0.950 . S
C2010 C2009 1.349 1_655 S
C2010 C2022 1.349 . S
C2011 C2009 1.327 . S
C2011 C2027 1.429 1_455 S
C2011 H2033 0.950 . S
C2012 H2008 0.949 . S
C2012 C2020 1.574 . S
C2012 C2028 1.368 . S
H2013 C2021 0.950 . S
H2014 C2019 0.950 . S
H2015 C2020 0.949 . S
H2016 C2022 0.950 . S
H2017 C2023 0.950 . S
H2018 C2024 0.949 . S
C2019 H2014 0.950 . S
C2019 C2021 1.327 . S
C2019 C2025 1.429 . S
C2020 C2012 1.574 . S
C2020 H2015 0.949 . S
C2020 C2026 1.368 1_655 S
C2021 C2005 1.349 . S
C2021 H2013 0.950 . S
C2021 C2019 1.327 . S
C2022 C2010 1.349 . S
C2022 H2016 0.950 . S
C2022 C2023 1.327 . S
C2023 H2017 0.950 . S
C2023 C2022 1.327 . S
C2023 C2027 1.429 . S
C2024 C2007 1.574 . S
C2024 H2018 0.949 . S
C2024 C2028 1.368 1_455 S
C2025 C2006 1.429 1_455 S
C2025 C2019 1.429 . S
C2025 C2026 1.523 . S
C2026 C2007 1.368 . S
C2026 C2020 1.368 1_455 S
C2026 C2025 1.523 . S
C2027 C2011 1.429 1_655 S
C2027 C2023 1.429 . S
C2027 C2028 1.523 . S
C2028 C2012 1.368 . S
C2028 C2024 1.368 1_655 S
C2028 C2027 1.523 . S
H2029 C2004 0.950 . S
H2030 C2006 0.950 . S
H2031 C2007 0.949 . S
H2032 C2009 0.950 . S
H2033 C2011 0.950 . S
C2034 C2035 1.349 . S
C2034 C2036 1.327 . S
C2034 H2059 0.950 . S
C2035 C2034 1.349 . S
C2035 C2051 1.349 . S
C2036 C2034 1.327 . S
C2036 C2055 1.429 . S
C2036 H2060 0.950 . S
C2037 C2054 1.574 . S
C2037 C2056 1.368 . S
C2037 H2061 0.949 . S
H2038 C2042 0.949 . S
C2039 C2040 1.349 . S
C2039 C2041 1.327 . S
C2039 H2062 0.950 . S
C2040 C2039 1.349 . S
C2040 C2052 1.349 . S
C2041 C2039 1.327 . S
C2041 C2057 1.429 . S
C2041 H2063 0.950 . S
C2042 H2038 0.949 . S
C2042 C2050 1.574 . S
C2042 C2058 1.368 . S
H2043 C2051 0.950 . S
H2044 C2049 0.950 . S
H2045 C2050 0.949 . S
H2046 C2052 0.950 . S
H2047 C2053 0.950 . S
H2048 C2054 0.949 . S
C2049 H2044 0.950 . S
C2049 C2051 1.327 . S
C2049 C2055 1.429 . S
C2050 C2042 1.574 . S
C2050 H2045 0.949 . S
C2050 C2056 1.368 . S
C2051 C2035 1.349 . S
C2051 H2043 0.950 . S
C2051 C2049 1.327 . S
C2052 C2040 1.349 . S
C2052 H2046 0.950 . S
C2052 C2053 1.327 . S
C2053 H2047 0.950 . S
C2053 C2052 1.327 . S
C2053 C2057 1.429 . S
C2054 C2037 1.574 . S
C2054 H2048 0.949 . S
C2054 C2058 1.368 . S
C2055 C2036 1.429 . S
C2055 C2049 1.429 . S
C2055 C2056 1.523 . S
C2056 C2037 1.368 . S
C2056 C2050 1.368 . S
C2056 C2055 1.523 . S
C2057 C2041 1.429 . S
C2057 C2053 1.429 . S
C2057 C2058 1.523 . S
C2058 C2042 1.368 . S
C2058 C2054 1.368 . S
C2058 C2057 1.523 . S
H2059 C2034 0.950 . S
H2060 C2036 0.950 . S
H2061 C2037 0.949 . S
H2062 C2039 0.950 . S
H2063 C2041 0.950 . S
C2064 C2065 1.349 . S
C2064 C2066 1.327 . S
C2064 H2089 0.950 . S
C2065 C2064 1.349 . S
C2065 C2081 1.349 1_565 S
C2066 C2064 1.327 . S
C2066 C2085 1.429 . S
C2066 H2090 0.950 . S
C2067 C2084 1.574 . S
C2067 C2086 1.368 1_545 S
C2067 H2091 0.949 . S
H2068 C2072 0.949 . S
C2069 C2070 1.349 . S
C2069 C2071 1.327 . S
C2069 H2092 0.950 . S
C2070 C2069 1.349 . S
C2070 C2082 1.349 1_545 S
C2071 C2069 1.327 . S
C2071 C2087 1.429 . S
C2071 H2093 0.950 . S
C2072 H2068 0.949 . S
C2072 C2080 1.574 . S
C2072 C2088 1.368 1_565 S
H2073 C2081 0.950 . S
H2074 C2079 0.950 . S
H2075 C2080 0.949 . S
H2076 C2082 0.950 . S
H2077 C2083 0.950 . S
H2078 C2084 0.949 . S
C2079 H2074 0.950 . S
C2079 C2081 1.327 . S
C2079 C2085 1.429 1_545 S
C2080 C2072 1.574 . S
C2080 H2075 0.949 . S
C2080 C2086 1.368 . S
C2081 C2065 1.349 1_545 S
C2081 H2073 0.950 . S
C2081 C2079 1.327 . S
C2082 C2070 1.349 1_565 S
C2082 H2076 0.950 . S
C2082 C2083 1.327 . S
C2083 H2077 0.950 . S
C2083 C2082 1.327 . S
C2083 C2087 1.429 1_565 S
C2084 C2067 1.574 . S
C2084 H2078 0.949 . S
C2084 C2088 1.368 . S
C2085 C2066 1.429 . S
C2085 C2079 1.429 1_565 S
C2085 C2086 1.523 . S
C2086 C2067 1.368 1_565 S
C2086 C2080 1.368 . S
C2086 C2085 1.523 . S
C2087 C2071 1.429 . S
C2087 C2083 1.429 1_545 S
C2087 C2088 1.523 . S
C2088 C2072 1.368 1_545 S
C2088 C2084 1.368 . S
C2088 C2087 1.523 . S
H2089 C2064 0.950 . S
H2090 C2066 0.950 . S
H2091 C2067 0.949 . S
H2092 C2069 0.950 . S
H2093 C2071 0.950 . S
C2094 C2095 1.349 . S
C2094 C2096 1.327 . S
C2094 H2119 0.950 . S
C2095 C2094 1.349 . S
C2095 C2111 1.349 1_455 S
C2096 C2094 1.327 . S
C2096 C2115 1.429 . S
C2096 H2120 0.950 . S
C2097 C2114 1.574 . S
C2097 C2116 1.368 1_655 S
C2097 H2121 0.949 . S
H2098 C2102 0.949 . S
C2099 C2100 1.349 . S
C2099 C2101 1.327 . S
C2099 H2122 0.950 . S
C2100 C2099 1.349 . S
C2100 C2112 1.349 1_655 S
C2101 C2099 1.327 . S
C2101 C2117 1.429 . S
C2101 H2123 0.950 . S
C2102 H2098 0.949 . S
C2102 C2110 1.574 . S
C2102 C2118 1.368 1_455 S
H2103 C2111 0.950 . S
H2104 C2109 0.950 . S
H2105 C2110 0.949 . S
H2106 C2112 0.950 . S
H2107 C2113 0.950 . S
H2108 C2114 0.949 . S
C2109 H2104 0.950 . S
C2109 C2111 1.327 . S
C2109 C2115 1.429 1_655 S
C2110 C2102 1.574 . S
C2110 H2105 0.949 . S
C2110 C2116 1.368 . S
C2111 C2095 1.349 1_655 S
C2111 H2103 0.950 . S
C2111 C2109 1.327 . S
C2112 C2100 1.349 1_455 S
C2112 H2106 0.950 . S
C2112 C2113 1.327 . S
C2113 H2107 0.950 . S
C2113 C2112 1.327 . S
C2113 C2117 1.429 1_455 S
C2114 C2097 1.574 . S
C2114 H2108 0.949 . S
C2114 C2118 1.368 . S
C2115 C2096 1.429 . S
C2115 C2109 1.429 1_455 S
C2115 C2116 1.523 . S
C2116 C2097 1.368 1_455 S
C2116 C2110 1.368 . S
C2116 C2115 1.523 . S
C2117 C2101 1.429 . S
C2117 C2113 1.429 1_655 S
C2117 C2118 1.523 . S
C2118 C2102 1.368 1_655 S
C2118 C2114 1.368 . S
C2118 C2117 1.523 . S
H2119 C2094 0.950 . S
H2120 C2096 0.950 . S
H2121 C2097 0.949 . S
H2122 C2099 0.950 . S
H2123 C2101 0.950 . S
C2124 C2125 1.349 . S
C2124 C2126 1.327 . S
C2124 H2149 0.950 . S
C2125 C2124 1.349 . S
C2125 C2141 1.349 . S
C2126 C2124 1.327 . S
C2126 C2145 1.429 . S
C2126 H2150 0.950 . S
C2127 C2144 1.574 . S
C2127 C2146 1.368 . S
C2127 H2151 0.949 . S
H2128 C2132 0.949 . S
C2129 C2130 1.349 . S
C2129 C2131 1.327 . S
C2129 H2152 0.950 . S
C2130 C2129 1.349 . S
C2130 C2142 1.349 . S
C2131 C2129 1.327 . S
C2131 C2147 1.429 . S
C2131 H2153 0.950 . S
C2132 H2128 0.949 . S
C2132 C2140 1.574 . S
C2132 C2148 1.368 . S
H2133 C2141 0.950 . S
H2134 C2139 0.950 . S
H2135 C2140 0.949 . S
H2136 C2142 0.950 . S
H2137 C2143 0.950 . S
H2138 C2144 0.949 . S
C2139 H2134 0.950 . S
C2139 C2141 1.327 . S
C2139 C2145 1.429 . S
C2140 C2132 1.574 . S
C2140 H2135 0.949 . S
C2140 C2146 1.368 . S
C2141 C2125 1.349 . S
C2141 H2133 0.950 . S
C2141 C2139 1.327 . S
C2142 C2130 1.349 . S
C2142 H2136 0.950 . S
C2142 C2143 1.327 . S
C2143 H2137 0.950 . S
C2143 C2142 1.327 . S
C2143 C2147 1.429 . S
C2144 C2127 1.574 . S
C2144 H2138 0.949 . S
C2144 C2148 1.368 . S
C2145 C2126 1.429 . S
C2145 C2139 1.429 . S
C2145 C2146 1.523 . S
C2146 C2127 1.368 . S
C2146 C2140 1.368 . S
C2146 C2145 1.523 . S
C2147 C2131 1.429 . S
C2147 C2143 1.429 . S
C2147 C2148 1.523 . S
C2148 C2132 1.368 . S
C2148 C2144 1.368 . S
C2148 C2147 1.523 . S
H2149 C2124 0.950 . S
H2150 C2126 0.950 . S
H2151 C2127 0.949 . S
H2152 C2129 0.950 . S
H2153 C2131 0.950 . S
C2154 C2155 1.349 . S
C2154 C2156 1.327 . S
C2154 H2179 0.950 . S
C2155 C2154 1.349 . S
C2155 C2171 1.349 . S
C2156 C2154 1.327 . S
C2156 C2175 1.429 . S
C2156 H2180 0.950 . S
C2157 C2174 1.574 . S
C2157 C2176 1.368 . S
C2157 H2181 0.949 . S
H2158 C2162 0.949 . S
C2159 C2160 1.349 . S
C2159 C2161 1.327 . S
C2159 H2182 0.950 . S
C2160 C2159 1.349 . S
C2160 C2172 1.349 . S
C2161 C2159 1.327 . S
C2161 C2177 1.429 . S
C2161 H2183 0.950 . S
C2162 H2158 0.949 . S
C2162 C2170 1.574 . S
C2162 C2178 1.368 . S
H2163 C2171 0.950 . S
H2164 C2169 0.950 . S
H2165 C2170 0.949 . S
H2166 C2172 0.950 . S
H2167 C2173 0.950 . S
H2168 C2174 0.949 . S
C2169 H2164 0.950 . S
C2169 C2171 1.327 . S
C2169 C2175 1.429 . S
C2170 C2162 1.574 . S
C2170 H2165 0.949 . S
C2170 C2176 1.368 . S
C2171 C2155 1.349 . S
C2171 H2163 0.950 . S
C2171 C2169 1.327 . S
C2172 C2160 1.349 . S
C2172 H2166 0.950 . S
C2172 C2173 1.327 . S
C2173 H2167 0.950 . S
C2173 C2172 1.327 . S
C2173 C2177 1.429 . S
C2174 C2157 1.574 . S
C2174 H2168 0.949 . S
C2174 C2178 1.368 . S
C2175 C2156 1.429 . S
C2175 C2169 1.429 . S
C2175 C2176 1.523 . S
C2176 C2157 1.368 . S
C2176 C2170 1.368 . S
C2176 C2175 1.523 . S
C2177 C2161 1.429 . S
C2177 C2173 1.429 . S
C2177 C2178 1.523 . S
C2178 C2162 1.368 . S
C2178 C2174 1.368 . S
C2178 C2177 1.523 . S
H2179 C2154 0.950 . S
H2180 C2156 0.950 . S
H2181 C2157 0.949 . S
H2182 C2159 0.950 . S
H2183 C2161 0.950 . S
C2184 C2185 1.349 . S
C2184 C2186 1.327 . S
C2184 H2209 0.950 . S
C2185 C2184 1.349 . S
C2185 C2201 1.349 . S
C2186 C2184 1.327 . S
C2186 C2205 1.429 . S
C2186 H2210 0.950 . S
C2187 C2204 1.574 . S
C2187 C2206 1.368 . S
C2187 H2211 0.949 . S
H2188 C2192 0.949 . S
C2189 C2190 1.349 . S
C2189 C2191 1.327 . S
C2189 H2212 0.950 . S
C2190 C2189 1.349 . S
C2190 C2202 1.349 . S
C2191 C2189 1.327 . S
C2191 C2207 1.429 . S
C2191 H2213 0.950 . S
C2192 H2188 0.949 . S
C2192 C2200 1.574 . S
C2192 C2208 1.368 . S
H2193 C2201 0.950 . S
H2194 C2199 0.950 . S
H2195 C2200 0.949 . S
H2196 C2202 0.950 . S
H2197 C2203 0.950 . S
H2198 C2204 0.949 . S
C2199 H2194 0.950 . S
C2199 C2201 1.327 . S
C2199 C2205 1.429 . S
C2200 C2192 1.574 . S
C2200 H2195 0.949 . S
C2200 C2206 1.368 . S
C2201 C2185 1.349 . S
C2201 H2193 0.950 . S
C2201 C2199 1.327 . S
C2202 C2190 1.349 . S
C2202 H2196 0.950 . S
C2202 C2203 1.327 . S
C2203 H2197 0.950 . S
C2203 C2202 1.327 . S
C2203 C2207 1.429 . S
C2204 C2187 1.574 . S
C2204 H2198 0.949 . S
C2204 C2208 1.368 . S
C2205 C2186 1.429 . S
C2205 C2199 1.429 . S
C2205 C2206 1.523 . S
C2206 C2187 1.368 . S
C2206 C2200 1.368 . S
C2206 C2205 1.523 . S
C2207 C2191 1.429 . S
C2207 C2203 1.429 . S
C2207 C2208 1.523 . S
C2208 C2192 1.368 . S
C2208 C2204 1.368 . S
C2208 C2207 1.523 . S
H2209 C2184 0.950 . S
H2210 C2186 0.950 . S
H2211 C2187 0.949 . S
H2212 C2189 0.950 . S
H2213 C2191 0.950 . S
C2214 C2215 1.349 . S
C2214 C2216 1.327 . S
C2214 H2239 0.950 . S
C2215 C2214 1.349 . S
C2215 C2231 1.349 . S
C2216 C2214 1.327 . S
C2216 C2235 1.429 . S
C2216 H2240 0.950 . S
C2217 C2234 1.574 . S
C2217 C2236 1.368 . S
C2217 H2241 0.949 . S
H2218 C2222 0.949 . S
C2219 C2220 1.349 . S
C2219 C2221 1.327 . S
C2219 H2242 0.950 . S
C2220 C2219 1.349 . S
C2220 C2232 1.349 . S
C2221 C2219 1.327 . S
C2221 C2237 1.429 . S
C2221 H2243 0.950 . S
C2222 H2218 0.949 . S
C2222 C2230 1.574 . S
C2222 C2238 1.368 . S
H2223 C2231 0.950 . S
H2224 C2229 0.950 . S
H2225 C2230 0.949 . S
H2226 C2232 0.950 . S
H2227 C2233 0.950 . S
H2228 C2234 0.949 . S
C2229 H2224 0.950 . S
C2229 C2231 1.327 . S
C2229 C2235 1.429 . S
C2230 C2222 1.574 . S
C2230 H2225 0.949 . S
C2230 C2236 1.368 . S
C2231 C2215 1.349 . S
C2231 H2223 0.950 . S
C2231 C2229 1.327 . S
C2232 C2220 1.349 . S
C2232 H2226 0.950 . S
C2232 C2233 1.327 . S
C2233 H2227 0.950 . S
C2233 C2232 1.327 . S
C2233 C2237 1.429 . S
C2234 C2217 1.574 . S
C2234 H2228 0.949 . S
C2234 C2238 1.368 . S
C2235 C2216 1.429 . S
C2235 C2229 1.429 . S
C2235 C2236 1.523 . S
C2236 C2217 1.368 . S
C2236 C2230 1.368 . S
C2236 C2235 1.523 . S
C2237 C2221 1.429 . S
C2237 C2233 1.429 . S
C2237 C2238 1.523 . S
C2238 C2222 1.368 . S
C2238 C2234 1.368 . S
C2238 C2237 1.523 . S
H2239 C2214 0.950 . S
H2240 C2216 0.950 . S
H2241 C2217 0.949 . S
H2242 C2219 0.950 . S
H2243 C2221 0.950 . S
C2244 C2245 1.349 . S
C2244 C2246 1.327 . S
C2244 H2269 0.950 . S
C2245 C2244 1.349 . S
C2245 C2261 1.349 . S
C2246 C2244 1.327 . S
C2246 C2265 1.429 . S
C2246 H2270 0.950 . S
C2247 C2264 1.574 . S
C2247 C2266 1.368 . S
C2247 H2271 0.949 . S
H2248 C2252 0.949 . S
C2249 C2250 1.349 . S
C2249 C2251 1.327 . S
C2249 H2272 0.950 . S
C2250 C2249 1.349 . S
C2250 C2262 1.349 . S
C2251 C2249 1.327 . S
C2251 C2267 1.429 . S
C2251 H2273 0.950 . S
C2252 H2248 0.949 . S
C2252 C2260 1.574 . S
C2252 C2268 1.368 . S
H2253 C2261 0.950 . S
H2254 C2259 0.950 . S
H2255 C2260 0.949 . S
H2256 C2262 0.950 . S
H2257 C2263 0.950 . S
H2258 C2264 0.949 . S
C2259 H2254 0.950 . S
C2259 C2261 1.327 . S
C2259 C2265 1.429 . S
C2260 C2252 1.574 . S
C2260 H2255 0.949 . S
C2260 C2266 1.368 . S
C2261 C2245 1.349 . S
C2261 H2253 0.950 . S
C2261 C2259 1.327 . S
C2262 C2250 1.349 . S
C2262 H2256 0.950 . S
C2262 C2263 1.327 . S
C2263 H2257 0.950 . S
C2263 C2262 1.327 . S
C2263 C2267 1.429 . S
C2264 C2247 1.574 . S
C2264 H2258 0.949 . S
C2264 C2268 1.368 . S
C2265 C2246 1.429 . S
C2265 C2259 1.429 . S
C2265 C2266 1.523 . S
C2266 C2247 1.368 . S
C2266 C2260 1.368 . S
C2266 C2265 1.523 . S
C2267 C2251 1.429 . S
C2267 C2263 1.429 . S
C2267 C2268 1.523 . S
C2268 C2252 1.368 . S
C2268 C2264 1.368 . S
C2268 C2267 1.523 . S
H2269 C2244 0.950 . S
H2270 C2246 0.950 . S
H2271 C2247 0.949 . S
H2272 C2249 0.950 . S
H2273 C2251 0.950 . S
C2274 C2275 1.349 . S
C2274 C2276 1.327 . S
C2274 H2299 0.950 . S
C2275 C2274 1.349 . S
C2275 C2291 1.349 . S
C2276 C2274 1.327 . S
C2276 C2295 1.429 . S
C2276 H2300 0.950 . S
C2277 C2294 1.574 . S
C2277 C2296 1.368 . S
C2277 H2301 0.949 . S
H2278 C2282 0.949 . S
C2279 C2280 1.349 . S
C2279 C2281 1.327 . S
C2279 H2302 0.950 . S
C2280 C2279 1.349 . S
C2280 C2292 1.349 . S
C2281 C2279 1.327 . S
C2281 C2297 1.429 . S
C2281 H2303 0.950 . S
C2282 H2278 0.949 . S
C2282 C2290 1.574 . S
C2282 C2298 1.368 . S
H2283 C2291 0.950 . S
H2284 C2289 0.950 . S
H2285 C2290 0.949 . S
H2286 C2292 0.950 . S
H2287 C2293 0.950 . S
H2288 C2294 0.949 . S
C2289 H2284 0.950 . S
C2289 C2291 1.327 . S
C2289 C2295 1.429 . S
C2290 C2282 1.574 . S
C2290 H2285 0.949 . S
C2290 C2296 1.368 . S
C2291 C2275 1.349 . S
C2291 H2283 0.950 . S
C2291 C2289 1.327 . S
C2292 C2280 1.349 . S
C2292 H2286 0.950 . S
C2292 C2293 1.327 . S
C2293 H2287 0.950 . S
C2293 C2292 1.327 . S
C2293 C2297 1.429 . S
C2294 C2277 1.574 . S
C2294 H2288 0.949 . S
C2294 C2298 1.368 . S
C2295 C2276 1.429 . S
C2295 C2289 1.429 . S
C2295 C2296 1.523 . S
C2296 C2277 1.368 . S
C2296 C2290 1.368 . S
C2296 C2295 1.523 . S
C2297 C2281 1.429 . S
C2297 C2293 1.429 . S
C2297 C2298 1.523 . S
C2298 C2282 1.368 . S
C2298 C2294 1.368 . S
C2298 C2297 1.523 . S
H2299 C2274 0.950 . S
H2300 C2276 0.950 . S
H2301 C2277 0.949 . S
H2302 C2279 0.950 . S
H2303 C2281 0.950 . S
C2304 C2305 1.349 . S
C2304 C2306 1.327 . S
C2304 H2329 0.950 . S
C2305 C2304 1.349 . S
C2305 C2321 1.349 . S
C2306 C2304 1.327 . S
C2306 C2325 1.429 . S
C2306 H2330 0.950 . S
C2307 C2324 1.574 . S
C2307 C2326 1.368 . S
C2307 H2331 0.949 . S
H2308 C2312 0.949 . S
C2309 C2310 1.349 . S
C2309 C2311 1.327 . S
C2309 H2332 0.950 . S
C2310 C2309 1.349 . S
C2310 C2322 1.349 . S
C2311 C2309 1.327 . S
C2311 C2327 1.429 . S
C2311 H2333 0.950 . S
C2312 H2308 0.949 . S
C2312 C2320 1.574 . S
C2312 C2328 1.368 . S
H2313 C2321 0.950 . S
H2314 C2319 0.950 . S
H2315 C2320 0.949 . S
H2316 C2322 0.950 . S
H2317 C2323 0.950 . S
H2318 C2324 0.949 . S
C2319 H2314 0.950 . S
C2319 C2321 1.327 . S
C2319 C2325 1.429 . S
C2320 C2312 1.574 . S
C2320 H2315 0.949 . S
C2320 C2326 1.368 . S
C2321 C2305 1.349 . S
C2321 H2313 0.950 . S
C2321 C2319 1.327 . S
C2322 C2310 1.349 . S
C2322 H2316 0.950 . S
C2322 C2323 1.327 . S
C2323 H2317 0.950 . S
C2323 C2322 1.327 . S
C2323 C2327 1.429 . S
C2324 C2307 1.574 . S
C2324 H2318 0.949 . S
C2324 C2328 1.368 . S
C2325 C2306 1.429 . S
C2325 C2319 1.429 . S
C2325 C2326 1.523 . S
C2326 C2307 1.368 . S
C2326 C2320 1.368 . S
C2326 C2325 1.523 . S
C2327 C2311 1.429 . S
C2327 C2323 1.429 . S
C2327 C2328 1.523 . S
C2328 C2312 1.368 . S
C2328 C2324 1.368 . S
C2328 C2327 1.523 . S
H2329 C2304 0.950 . S
H2330 C2306 0.950 . S
H2331 C2307 0.949 . S
H2332 C2309 0.950 . S
H2333 C2311 0.950 . S
C2334 C2335 1.349 . S
C2334 C2336 1.327 . S
C2334 H2359 0.950 . S
C2335 C2334 1.349 . S
C2335 C2351 1.349 . S
C2336 C2334 1.327 . S
C2336 C2355 1.429 . S
C2336 H2360 0.950 . S
C2337 C2354 1.574 . S
C2337 C2356 1.368 . S
C2337 H2361 0.949 . S
H2338 C2342 0.949 . S
C2339 C2340 1.349 . S
C2339 C2341 1.327 . S
C2339 H2362 0.950 . S
C2340 C2339 1.349 . S
C2340 C2352 1.349 . S
C2341 C2339 1.327 . S
C2341 C2357 1.429 . S
C2341 H2363 0.950 . S
C2342 H2338 0.949 . S
C2342 C2350 1.574 . S
C2342 C2358 1.368 . S
H2343 C2351 0.950 . S
H2344 C2349 0.950 . S
H2345 C2350 0.949 . S
H2346 C2352 0.950 . S
H2347 C2353 0.950 . S
H2348 C2354 0.949 . S
C2349 H2344 0.950 . S
C2349 C2351 1.327 . S
C2349 C2355 1.429 . S
C2350 C2342 1.574 . S
C2350 H2345 0.949 . S
C2350 C2356 1.368 . S
C2351 C2335 1.349 . S
C2351 H2343 0.950 . S
C2351 C2349 1.327 . S
C2352 C2340 1.349 . S
C2352 H2346 0.950 . S
C2352 C2353 1.327 . S
C2353 H2347 0.950 . S
C2353 C2352 1.327 . S
C2353 C2357 1.429 . S
C2354 C2337 1.574 . S
C2354 H2348 0.949 . S
C2354 C2358 1.368 . S
C2355 C2336 1.429 . S
C2355 C2349 1.429 . S
C2355 C2356 1.523 . S
C2356 C2337 1.368 . S
C2356 C2350 1.368 . S
C2356 C2355 1.523 . S
C2357 C2341 1.429 . S
C2357 C2353 1.429 . S
C2357 C2358 1.523 . S
C2358 C2342 1.368 . S
C2358 C2354 1.368 . S
C2358 C2357 1.523 . S
H2359 C2334 0.950 . S
H2360 C2336 0.950 . S
H2361 C2337 0.949 . S
H2362 C2339 0.950 . S
H2363 C2341 0.950 . S
C2364 C2365 1.349 . S
C2364 C2366 1.327 . S
C2364 H2389 0.950 . S
C2365 C2364 1.349 . S
C2365 C2381 1.349 . S
C2366 C2364 1.327 . S
C2366 C2385 1.429 . S
C2366 H2390 0.950 . S
C2367 C2384 1.574 . S
C2367 C2386 1.368 . S
C2367 H2391 0.949 . S
H2368 C2372 0.949 . S
C2369 C2370 1.349 . S
C2369 C2371 1.327 . S
C2369 H2392 0.950 . S
C2370 C2369 1.349 . S
C2370 C2382 1.349 . S
C2371 C2369 1.327 . S
C2371 C2387 1.429 . S
C2371 H2393 0.950 . S
C2372 H2368 0.949 . S
C2372 C2380 1.574 . S
C2372 C2388 1.368 . S
H2373 C2381 0.950 . S
H2374 C2379 0.950 . S
H2375 C2380 0.949 . S
H2376 C2382 0.950 . S
H2377 C2383 0.950 . S
H2378 C2384 0.949 . S
C2379 H2374 0.950 . S
C2379 C2381 1.327 . S
C2379 C2385 1.429 . S
C2380 C2372 1.574 . S
C2380 H2375 0.949 . S
C2380 C2386 1.368 . S
C2381 C2365 1.349 . S
C2381 H2373 0.950 . S
C2381 C2379 1.327 . S
C2382 C2370 1.349 . S
C2382 H2376 0.950 . S
C2382 C2383 1.327 . S
C2383 H2377 0.950 . S
C2383 C2382 1.327 . S
C2383 C2387 1.429 . S
C2384 C2367 1.574 . S
C2384 H2378 0.949 . S
C2384 C2388 1.368 . S
C2385 C2366 1.429 . S
C2385 C2379 1.429 . S
C2385 C2386 1.523 . S
C2386 C2367 1.368 . S
C2386 C2380 1.368 . S
C2386 C2385 1.523 . S
C2387 C2371 1.429 . S
C2387 C2383 1.429 . S
C2387 C2388 1.523 . S
C2388 C2372 1.368 . S
C2388 C2384 1.368 . S
C2388 C2387 1.523 . S
H2389 C2364 0.950 . S
H2390 C2366 0.950 . S
H2391 C2367 0.949 . S
H2392 C2369 0.950 . S
H2393 C2371 0.950 . S
C2394 C2395 1.349 . S
C2394 C2396 1.327 . S
C2394 H2419 0.950 . S
C2395 C2394 1.349 . S
C2395 C2411 1.349 . S
C2396 C2394 1.327 . S
C2396 C2415 1.429 . S
C2396 H2420 0.950 . S
C2397 C2414 1.574 . S
C2397 C2416 1.368 . S
C2397 H2421 0.949 . S
H2398 C2402 0.949 . S
C2399 C2400 1.349 . S
C2399 C2401 1.327 . S
C2399 H2422 0.950 . S
C2400 C2399 1.349 . S
C2400 C2412 1.349 . S
C2401 C2399 1.327 . S
C2401 C2417 1.429 . S
C2401 H2423 0.950 . S
C2402 H2398 0.949 . S
C2402 C2410 1.574 . S
C2402 C2418 1.368 . S
H2403 C2411 0.950 . S
H2404 C2409 0.950 . S
H2405 C2410 0.949 . S
H2406 C2412 0.950 . S
H2407 C2413 0.950 . S
H2408 C2414 0.949 . S
C2409 H2404 0.950 . S
C2409 C2411 1.327 . S
C2409 C2415 1.429 . S
C2410 C2402 1.574 . S
C2410 H2405 0.949 . S
C2410 C2416 1.368 . S
C2411 C2395 1.349 . S
C2411 H2403 0.950 . S
C2411 C2409 1.327 . S
C2412 C2400 1.349 . S
C2412 H2406 0.950 . S
C2412 C2413 1.327 . S
C2413 H2407 0.950 . S
C2413 C2412 1.327 . S
C2413 C2417 1.429 . S
C2414 C2397 1.574 . S
C2414 H2408 0.949 . S
C2414 C2418 1.368 . S
C2415 C2396 1.429 . S
C2415 C2409 1.429 . S
C2415 C2416 1.523 . S
C2416 C2397 1.368 . S
C2416 C2410 1.368 . S
C2416 C2415 1.523 . S
C2417 C2401 1.429 . S
C2417 C2413 1.429 . S
C2417 C2418 1.523 . S
C2418 C2402 1.368 . S
C2418 C2414 1.368 . S
C2418 C2417 1.523 . S
H2419 C2394 0.950 . S
H2420 C2396 0.950 . S
H2421 C2397 0.949 . S
H2422 C2399 0.950 . S
H2423 C2401 0.950 . S
C2424 C2425 1.349 . S
C2424 C2426 1.327 . S
C2424 H2449 0.950 . S
C2425 C2424 1.349 . S
C2425 C2441 1.349 . S
C2426 C2424 1.327 . S
C2426 C2445 1.429 . S
C2426 H2450 0.950 . S
C2427 C2444 1.574 . S
C2427 C2446 1.368 . S
C2427 H2451 0.949 . S
H2428 C2432 0.949 . S
C2429 C2430 1.349 . S
C2429 C2431 1.327 . S
C2429 H2452 0.950 . S
C2430 C2429 1.349 . S
C2430 C2442 1.349 . S
C2431 C2429 1.327 . S
C2431 C2447 1.429 . S
C2431 H2453 0.950 . S
C2432 H2428 0.949 . S
C2432 C2440 1.574 . S
C2432 C2448 1.368 . S
H2433 C2441 0.950 . S
H2434 C2439 0.950 . S
H2435 C2440 0.949 . S
H2436 C2442 0.950 . S
H2437 C2443 0.950 . S
H2438 C2444 0.949 . S
C2439 H2434 0.950 . S
C2439 C2441 1.327 . S
C2439 C2445 1.429 . S
C2440 C2432 1.574 . S
C2440 H2435 0.949 . S
C2440 C2446 1.368 . S
C2441 C2425 1.349 . S
C2441 H2433 0.950 . S
C2441 C2439 1.327 . S
C2442 C2430 1.349 . S
C2442 H2436 0.950 . S
C2442 C2443 1.327 . S
C2443 H2437 0.950 . S
C2443 C2442 1.327 . S
C2443 C2447 1.429 . S
C2444 C2427 1.574 . S
C2444 H2438 0.949 . S
C2444 C2448 1.368 . S
C2445 C2426 1.429 . S
C2445 C2439 1.429 . S
C2445 C2446 1.523 . S
C2446 C2427 1.368 . S
C2446 C2440 1.368 . S
C2446 C2445 1.523 . S
C2447 C2431 1.429 . S
C2447 C2443 1.429 . S
C2447 C2448 1.523 . S
C2448 C2432 1.368 . S
C2448 C2444 1.368 . S
C2448 C2447 1.523 . S
H2449 C2424 0.950 . S
H2450 C2426 0.950 . S
H2451 C2427 0.949 . S
H2452 C2429 0.950 . S
H2453 C2431 0.950 . S
C2454 C2455 1.349 . S
C2454 C2456 1.327 . S
C2454 H2479 0.950 . S
C2455 C2454 1.349 . S
C2455 C2471 1.349 . S
C2456 C2454 1.327 . S
C2456 C2475 1.429 . S
C2456 H2480 0.950 . S
C2457 C2474 1.574 . S
C2457 C2476 1.368 . S
C2457 H2481 0.949 . S
H2458 C2462 0.949 . S
C2459 C2460 1.349 . S
C2459 C2461 1.327 . S
C2459 H2482 0.950 . S
C2460 C2459 1.349 . S
C2460 C2472 1.349 . S
C2461 C2459 1.327 . S
C2461 C2477 1.429 . S
C2461 H2483 0.950 . S
C2462 H2458 0.949 . S
C2462 C2470 1.574 . S
C2462 C2478 1.368 . S
H2463 C2471 0.950 . S
H2464 C2469 0.950 . S
H2465 C2470 0.949 . S
H2466 C2472 0.950 . S
H2467 C2473 0.950 . S
H2468 C2474 0.949 . S
C2469 H2464 0.950 . S
C2469 C2471 1.327 . S
C2469 C2475 1.429 . S
C2470 C2462 1.574 . S
C2470 H2465 0.949 . S
C2470 C2476 1.368 . S
C2471 C2455 1.349 . S
C2471 H2463 0.950 . S
C2471 C2469 1.327 . S
C2472 C2460 1.349 . S
C2472 H2466 0.950 . S
C2472 C2473 1.327 . S
C2473 H2467 0.950 . S
C2473 C2472 1.327 . S
C2473 C2477 1.429 . S
C2474 C2457 1.574 . S
C2474 H2468 0.949 . S
C2474 C2478 1.368 . S
C2475 C2456 1.429 . S
C2475 C2469 1.429 . S
C2475 C2476 1.523 . S
C2476 C2457 1.368 . S
C2476 C2470 1.368 . S
C2476 C2475 1.523 . S
C2477 C2461 1.429 . S
C2477 C2473 1.429 . S
C2477 C2478 1.523 . S
C2478 C2462 1.368 . S
C2478 C2474 1.368 . S
C2478 C2477 1.523 . S
H2479 C2454 0.950 . S
H2480 C2456 0.950 . S
H2481 C2457 0.949 . S
H2482 C2459 0.950 . S
H2483 C2461 0.950 . S
C2484 C2485 1.349 . S
C2484 C2486 1.327 . S
C2484 H2509 0.950 . S
C2485 C2484 1.349 . S
C2485 C2501 1.349 . S
C2486 C2484 1.327 . S
C2486 C2505 1.429 . S
C2486 H2510 0.950 . S
C2487 C2504 1.574 1_455 S
C2487 C2506 1.368 . S
C2487 H2511 0.949 . S
H2488 C2492 0.949 . S
C2489 C2490 1.349 . S
C2489 C2491 1.327 . S
C2489 H2512 0.950 . S
C2490 C2489 1.349 . S
C2490 C2502 1.349 . S
C2491 C2489 1.327 . S
C2491 C2507 1.429 . S
C2491 H2513 0.950 . S
C2492 H2488 0.949 . S
C2492 C2500 1.574 1_655 S
C2492 C2508 1.368 . S
H2493 C2501 0.950 . S
H2494 C2499 0.950 . S
H2495 C2500 0.949 . S
H2496 C2502 0.950 . S
H2497 C2503 0.950 . S
H2498 C2504 0.949 . S
C2499 H2494 0.950 . S
C2499 C2501 1.327 . S
C2499 C2505 1.429 . S
C2500 C2492 1.574 1_455 S
C2500 H2495 0.949 . S
C2500 C2506 1.368 . S
C2501 C2485 1.349 . S
C2501 H2493 0.950 . S
C2501 C2499 1.327 . S
C2502 C2490 1.349 . S
C2502 H2496 0.950 . S
C2502 C2503 1.327 . S
C2503 H2497 0.950 . S
C2503 C2502 1.327 . S
C2503 C2507 1.429 . S
C2504 C2487 1.574 1_655 S
C2504 H2498 0.949 . S
C2504 C2508 1.368 . S
C2505 C2486 1.429 . S
C2505 C2499 1.429 . S
C2505 C2506 1.523 . S
C2506 C2487 1.368 . S
C2506 C2500 1.368 . S
C2506 C2505 1.523 . S
C2507 C2491 1.429 . S
C2507 C2503 1.429 . S
C2507 C2508 1.523 . S
C2508 C2492 1.368 . S
C2508 C2504 1.368 . S
C2508 C2507 1.523 . S
H2509 C2484 0.950 . S
H2510 C2486 0.950 . S
H2511 C2487 0.949 . S
H2512 C2489 0.950 . S
H2513 C2491 0.950 . S
C2514 C2515 1.349 . S
C2514 C2516 1.327 . S
C2514 H2539 0.950 . S
C2515 C2514 1.349 . S
C2515 C2531 1.349 . S
C2516 C2514 1.327 . S
C2516 C2535 1.429 . S
C2516 H2540 0.950 . S
C2517 C2534 1.574 . S
C2517 C2536 1.368 . S
C2517 H2541 0.949 . S
H2518 C2522 0.949 . S
C2519 C2520 1.349 . S
C2519 C2521 1.327 . S
C2519 H2542 0.950 . S
C2520 C2519 1.349 . S
C2520 C2532 1.349 . S
C2521 C2519 1.327 . S
C2521 C2537 1.429 . S
C2521 H2543 0.950 . S
C2522 H2518 0.949 . S
C2522 C2530 1.574 . S
C2522 C2538 1.368 . S
H2523 C2531 0.950 . S
H2524 C2529 0.950 . S
H2525 C2530 0.949 . S
H2526 C2532 0.950 . S
H2527 C2533 0.950 . S
H2528 C2534 0.949 . S
C2529 H2524 0.950 . S
C2529 C2531 1.327 . S
C2529 C2535 1.429 . S
C2530 C2522 1.574 . S
C2530 H2525 0.949 . S
C2530 C2536 1.368 . S
C2531 C2515 1.349 . S
C2531 H2523 0.950 . S
C2531 C2529 1.327 . S
C2532 C2520 1.349 . S
C2532 H2526 0.950 . S
C2532 C2533 1.327 . S
C2533 H2527 0.950 . S
C2533 C2532 1.327 . S
C2533 C2537 1.429 . S
C2534 C2517 1.574 . S
C2534 H2528 0.949 . S
C2534 C2538 1.368 . S
C2535 C2516 1.429 . S
C2535 C2529 1.429 . S
C2535 C2536 1.523 . S
C2536 C2517 1.368 . S
C2536 C2530 1.368 . S
C2536 C2535 1.523 . S
C2537 C2521 1.429 . S
C2537 C2533 1.429 . S
C2537 C2538 1.523 . S
C2538 C2522 1.368 . S
C2538 C2534 1.368 . S
C2538 C2537 1.523 . S
H2539 C2514 0.950 . S
H2540 C2516 0.950 . S
H2541 C2517 0.949 . S
H2542 C2519 0.950 . S
H2543 C2521 0.950 . S
C2544 C2545 1.349 . S
C2544 C2546 1.327 . S
C2544 H2569 0.950 . S
C2545 C2544 1.349 . S
C2545 C2561 1.349 . S
C2546 C2544 1.327 . S
C2546 C2565 1.429 . S
C2546 H2570 0.950 . S
C2547 C2564 1.574 1_545 S
C2547 C2566 1.368 . S
C2547 H2571 0.949 . S
H2548 C2552 0.949 . S
C2549 C2550 1.349 . S
C2549 C2551 1.327 . S
C2549 H2572 0.950 . S
C2550 C2549 1.349 . S
C2550 C2562 1.349 . S
C2551 C2549 1.327 . S
C2551 C2567 1.429 . S
C2551 H2573 0.950 . S
C2552 H2548 0.949 . S
C2552 C2560 1.574 1_565 S
C2552 C2568 1.368 . S
H2553 C2561 0.950 . S
H2554 C2559 0.950 . S
H2555 C2560 0.949 . S
H2556 C2562 0.950 . S
H2557 C2563 0.950 . S
H2558 C2564 0.949 . S
C2559 H2554 0.950 . S
C2559 C2561 1.327 . S
C2559 C2565 1.429 . S
C2560 C2552 1.574 1_545 S
C2560 H2555 0.949 . S
C2560 C2566 1.368 . S
C2561 C2545 1.349 . S
C2561 H2553 0.950 . S
C2561 C2559 1.327 . S
C2562 C2550 1.349 . S
C2562 H2556 0.950 . S
C2562 C2563 1.327 . S
C2563 H2557 0.950 . S
C2563 C2562 1.327 . S
C2563 C2567 1.429 . S
C2564 C2547 1.574 1_565 S
C2564 H2558 0.949 . S
C2564 C2568 1.368 . S
C2565 C2546 1.429 . S
C2565 C2559 1.429 . S
C2565 C2566 1.523 . S
C2566 C2547 1.368 . S
C2566 C2560 1.368 . S
C2566 C2565 1.523 . S
C2567 C2551 1.429 . S
C2567 C2563 1.429 . S
C2567 C2568 1.523 . S
C2568 C2552 1.368 . S
C2568 C2564 1.368 . S
C2568 C2567 1.523 . S
H2569 C2544 0.950 . S
H2570 C2546 0.950 . S
H2571 C2547 0.949 . S
H2572 C2549 0.950 . S
H2573 C2551 0.950 . S
C2574 C2575 1.349 . S
C2574 C2576 1.327 . S
C2574 H2599 0.950 . S
C2575 C2574 1.349 . S
C2575 C2591 1.349 . S
C2576 C2574 1.327 . S
C2576 C2595 1.429 . S
C2576 H2600 0.950 . S
C2577 C2594 1.574 1_565 S
C2577 C2596 1.368 . S
C2577 H2601 0.949 . S
H2578 C2582 0.949 . S
C2579 C2580 1.349 . S
C2579 C2581 1.327 . S
C2579 H2602 0.950 . S
C2580 C2579 1.349 . S
C2580 C2592 1.349 . S
C2581 C2579 1.327 . S
C2581 C2597 1.429 . S
C2581 H2603 0.950 . S
C2582 H2578 0.949 . S
C2582 C2590 1.574 1_545 S
C2582 C2598 1.368 . S
H2583 C2591 0.950 . S
H2584 C2589 0.950 . S
H2585 C2590 0.949 . S
H2586 C2592 0.950 . S
H2587 C2593 0.950 . S
H2588 C2594 0.949 . S
C2589 H2584 0.950 . S
C2589 C2591 1.327 . S
C2589 C2595 1.429 . S
C2590 C2582 1.574 1_565 S
C2590 H2585 0.949 . S
C2590 C2596 1.368 . S
C2591 C2575 1.349 . S
C2591 H2583 0.950 . S
C2591 C2589 1.327 . S
C2592 C2580 1.349 . S
C2592 H2586 0.950 . S
C2592 C2593 1.327 . S
C2593 H2587 0.950 . S
C2593 C2592 1.327 . S
C2593 C2597 1.429 . S
C2594 C2577 1.574 1_545 S
C2594 H2588 0.949 . S
C2594 C2598 1.368 . S
C2595 C2576 1.429 . S
C2595 C2589 1.429 . S
C2595 C2596 1.523 . S
C2596 C2577 1.368 . S
C2596 C2590 1.368 . S
C2596 C2595 1.523 . S
C2597 C2581 1.429 . S
C2597 C2593 1.429 . S
C2597 C2598 1.523 . S
C2598 C2582 1.368 . S
C2598 C2594 1.368 . S
C2598 C2597 1.523 . S
H2599 C2574 0.950 . S
H2600 C2576 0.950 . S
H2601 C2577 0.949 . S
H2602 C2579 0.950 . S
H2603 C2581 0.950 . S
C2604 C2605 1.349 . S
C2604 C2606 1.327 . S
C2604 H2629 0.950 . S
C2605 C2604 1.349 . S
C2605 C2621 1.349 . S
C2606 C2604 1.327 . S
C2606 C2625 1.429 . S
C2606 H2630 0.950 . S
C2607 C2624 1.519 1_655 S
C2607 C2626 1.414 . S
C2607 H2631 0.962 . S
H2608 C2612 0.962 . S
C2609 C2610 1.349 . S
C2609 C2611 1.327 . S
C2609 H2632 0.950 . S
C2610 C2609 1.349 . S
C2610 C2622 1.349 . S
C2611 C2609 1.327 . S
C2611 C2627 1.429 . S
C2611 H2633 0.950 . S
C2612 H2608 0.962 . S
C2612 C2620 1.518 1_455 S
C2612 C2628 1.415 . S
H2613 C2621 0.950 . S
H2614 C2619 0.950 . S
H2615 C2620 0.949 . S
H2616 C2622 0.950 . S
H2617 C2623 0.950 . S
H2618 C2624 0.949 . S
C2619 H2614 0.950 . S
C2619 C2621 1.327 . S
C2619 C2625 1.429 . S
C2620 C2612 1.518 1_655 S
C2620 H2615 0.949 . S
C2620 C2626 1.368 . S
C2621 C2605 1.349 . S
C2621 H2613 0.950 . S
C2621 C2619 1.327 . S
C2622 C2610 1.349 . S
C2622 H2616 0.950 . S
C2622 C2623 1.327 . S
C2623 H2617 0.950 . S
C2623 C2622 1.327 . S
C2623 C2627 1.429 . S
C2624 C2607 1.519 1_455 S
C2624 H2618 0.949 . S
C2624 C2628 1.368 . S
C2625 C2606 1.429 . S
C2625 C2619 1.429 . S
C2625 C2626 1.523 . S
C2626 C2607 1.414 . S
C2626 C2620 1.368 . S
C2626 C2625 1.523 . S
C2627 C2611 1.429 . S
C2627 C2623 1.429 . S
C2627 C2628 1.523 . S
C2628 C2612 1.415 . S
C2628 C2624 1.368 . S
C2628 C2627 1.523 . S
H2629 C2604 0.950 . S
H2630 C2606 0.950 . S
H2631 C2607 0.962 . S
H2632 C2609 0.950 . S
H2633 C2611 0.950 . S
C2634 C2635 1.349 . S
C2634 C2636 1.327 . S
C2634 H2659 0.950 . S
C2635 C2634 1.349 . S
C2635 C2651 1.349 . S
C2636 C2634 1.327 . S
C2636 C2655 1.429 . S
C2636 H2660 0.950 . S
C2637 C2654 1.574 . S
C2637 C2656 1.368 . S
C2637 H2661 0.949 . S
H2638 C2642 0.949 . S
C2639 C2640 1.349 . S
C2639 C2641 1.327 . S
C2639 H2662 0.950 . S
C2640 C2639 1.349 . S
C2640 C2652 1.349 . S
C2641 C2639 1.327 . S
C2641 C2657 1.429 . S
C2641 H2663 0.950 . S
C2642 H2638 0.949 . S
C2642 C2650 1.574 . S
C2642 C2658 1.368 . S
H2643 C2651 0.950 . S
H2644 C2649 0.950 . S
H2645 C2650 0.949 . S
H2646 C2652 0.950 . S
H2647 C2653 0.950 . S
H2648 C2654 0.949 . S
C2649 H2644 0.950 . S
C2649 C2651 1.327 . S
C2649 C2655 1.429 . S
C2650 C2642 1.574 . S
C2650 H2645 0.949 . S
C2650 C2656 1.368 . S
C2651 C2635 1.349 . S
C2651 H2643 0.950 . S
C2651 C2649 1.327 . S
C2652 C2640 1.349 . S
C2652 H2646 0.950 . S
C2652 C2653 1.327 . S
C2653 H2647 0.950 . S
C2653 C2652 1.327 . S
C2653 C2657 1.429 . S
C2654 C2637 1.574 . S
C2654 H2648 0.949 . S
C2654 C2658 1.368 . S
C2655 C2636 1.429 . S
C2655 C2649 1.429 . S
C2655 C2656 1.523 . S
C2656 C2637 1.368 . S
C2656 C2650 1.368 . S
C2656 C2655 1.523 . S
C2657 C2641 1.429 . S
C2657 C2653 1.429 . S
C2657 C2658 1.523 . S
C2658 C2642 1.368 . S
C2658 C2654 1.368 . S
C2658 C2657 1.523 . S
H2659 C2634 0.950 . S
H2660 C2636 0.950 . S
H2661 C2637 0.949 . S
H2662 C2639 0.950 . S
H2663 C2641 0.950 . S
C505 C65 0.564 . S
C510 C9 0.560 . S
C535 C79 0.564 . S
C540 C23 0.560 . S
C565 C51 0.564 . S
C570 C37 0.560 . S
C595 C149 0.564 . S
C600 C93 0.560 . S
C625 C107 0.564 . S
C630 C163 0.561 . S
C655 C135 0.564 . S
C660 C121 0.560 . S
C685 C177 0.543 . S
C690 C233 0.542 . S
C715 C247 0.542 . S
C720 C191 0.543 . S
C745 C205 0.543 . S
C750 C219 0.542 . S
C775 C261 0.542 . S
C780 C317 0.543 . S
C805 C331 0.543 . S
C810 C275 0.541 . S
C835 C289 0.542 . S
C840 C303 0.543 . S
C865 C401 0.543 . S
C870 C345 0.542 . S
C895 C359 0.542 . S
C900 C415 0.543 . S
C925 C387 0.543 . S
C930 C373 0.542 . S
C955 C485 0.542 . S
C960 C429 0.543 . S
C985 C443 0.543 . S
C990 C499 0.542 . S
C1015 C457 0.543 . S
C1020 C471 0.542 . S
C1045 C162 1.361 . S
C1050 C8 1.361 . S
C1075 C22 1.361 . S
C1080 C134 1.361 . S
C1105 C148 1.361 . S
C1110 C36 1.361 . S
C1135 C106 1.361 . S
C1140 C50 1.361 . S
C1165 C64 1.361 . S
C1170 C120 1.361 . S
C1195 C92 1.361 . S
C1200 C78 1.361 . S
C1225 C176 1.419 . S
C1230 C330 1.419 . S
C1255 C302 1.419 . S
C1260 C190 1.419 . S
C1285 C316 1.419 . S
C1290 C204 1.419 . S
C1315 C218 1.393 . S
C1320 C274 1.393 . S
C1345 C232 1.393 . S
C1350 C288 1.393 . S
C1375 C246 1.393 . S
C1380 C260 1.393 . S
C1405 C498 1.393 . S
C1410 C344 1.393 . S
C1435 C358 1.393 . S
C1440 C470 1.393 . S
C1465 C372 1.393 . S
C1470 C484 1.393 . S
C1495 C442 1.419 . S
C1500 C386 1.419 . S
C1525 C456 1.419 . S
C1530 C400 1.419 . S
C1555 C428 1.419 . S
C1560 C414 1.419 . S
C1585 C213 1.545 . S
C1590 C3 1.561 . S
C1615 C227 1.545 . S
C1620 C17 1.562 . S
C1645 C31 1.566 . S
C1650 C241 1.541 . S
C1675 C45 1.566 . S
C1680 C339 1.541 . S
C1705 C59 1.566 . S
C1710 C353 1.541 . S
C1735 C73 1.566 . S
C1740 C367 1.541 . S
C1765 C87 1.566 . S
C1770 C465 1.541 . S
C1795 C101 1.566 . S
C1800 C479 1.541 . S
C1825 C115 1.566 . S
C1830 C493 1.541 . S
C1855 C129 1.566 . S
C1860 C255 1.541 . S
C1885 C269 1.545 . S
C1890 C143 1.562 . S
C1915 C283 1.545 . S
C1920 C157 1.562 . S
C1945 C381 1.949 . S
C1950 C171 1.949 . S
C1975 C185 1.949 . S
C1980 C395 1.949 . S
C2005 C409 1.949 . S
C2010 C199 1.949 . S
C2035 C297 1.949 . S
C2040 C423 1.949 . S
C2065 C437 1.949 . S
C2070 C311 1.949 . S
C2095 C451 1.949 . S
C2100 C325 1.949 . S
C2125 C7 2.286 . S
C2130 C413 2.302 . S
C2155 C21 2.286 . S
C2160 C385 2.302 . S
C2185 C35 2.286 . S
C2190 C399 2.302 . S
C2215 C49 2.286 . S
C2220 C189 2.302 . S
C2245 C203 2.299 . S
C2250 C63 2.290 . S
C2275 C175 2.298 . S
C2280 C77 2.289 . S
C2305 C329 2.298 . S
C2310 C91 2.289 . S
C2335 C301 2.299 . S
C2340 C105 2.290 . S
C2365 C315 2.299 . S
C2370 C119 2.290 . S
C2395 C441 2.298 . S
C2400 C133 2.289 . S
C2425 C455 2.299 . S
C2430 C147 2.290 . S
C2455 C427 2.299 . S
C2460 C161 2.290 . S
C2485 C217 1.944 . S
C2490 C357 1.944 . S
C2515 C371 1.944 . S
C2520 C231 1.944 . S
C2545 C343 1.944 . S
C2550 C245 1.944 . S
C2575 C259 1.944 . S
C2580 C497 1.944 . S
C2605 C469 1.944 . S
C2610 C273 1.944 . S
C2635 C287 1.944 . S
C2640 C483 1.944 . S
