# Generated by pormake.
# Topology fcu, (12)-cn, num edge types: 1
# Building blocks:
#     Node 0, Type 0, BuildingBlock: FANWIC_clean_sbu_0, # of connection points: 12
#     Node 1, Type 0, BuildingBlock: FANWIC_clean_sbu_0, # of connection points: 12
#     Node 2, Type 0, BuildingBlock: FANWIC_clean_sbu_0, # of connection points: 12
#     Node 3, Type 0, BuildingBlock: FANWIC_clean_sbu_0, # of connection points: 12
#     Edge 4, Type (0, 0), BuildingBlock: AJUNOK_clean_linker_0, # of connection points: 2
#     Edge 5, Type (0, 0), BuildingBlock: AJUNOK_clean_linker_0, # of connection points: 2
#     Edge 6, Type (0, 0), BuildingBlock: AJUNOK_clean_linker_0, # of connection points: 2
#     Edge 7, Type (0, 0), BuildingBlock: AJUNOK_clean_linker_0, # of connection points: 2
#     Edge 8, Type (0, 0), BuildingBlock: AJUNOK_clean_linker_0, # of connection points: 2
#     Edge 9, Type (0, 0), BuildingBlock: AJUNOK_clean_linker_0, # of connection points: 2
#     Edge 10, Type (0, 0), BuildingBlock: AJUNOK_clean_linker_0, # of connection points: 2
#     Edge 11, Type (0, 0), BuildingBlock: AJUNOK_clean_linker_0, # of connection points: 2
#     Edge 12, Type (0, 0), BuildingBlock: AJUNOK_clean_linker_0, # of connection points: 2
#     Edge 13, Type (0, 0), BuildingBlock: AJUNOK_clean_linker_0, # of connection points: 2
#     Edge 14, Type (0, 0), BuildingBlock: AJUNOK_clean_linker_0, # of connection points: 2
#     Edge 15, Type (0, 0), BuildingBlock: AJUNOK_clean_linker_0, # of connection points: 2
#     Edge 16, Type (0, 0), BuildingBlock: AJUNOK_clean_linker_0, # of connection points: 2
#     Edge 17, Type (0, 0), BuildingBlock: AJUNOK_clean_linker_0, # of connection points: 2
#     Edge 18, Type (0, 0), BuildingBlock: AJUNOK_clean_linker_0, # of connection points: 2
#     Edge 19, Type (0, 0), BuildingBlock: AJUNOK_clean_linker_0, # of connection points: 2
#     Edge 20, Type (0, 0), BuildingBlock: AJUNOK_clean_linker_0, # of connection points: 2
#     Edge 21, Type (0, 0), BuildingBlock: AJUNOK_clean_linker_0, # of connection points: 2
#     Edge 22, Type (0, 0), BuildingBlock: AJUNOK_clean_linker_0, # of connection points: 2
#     Edge 23, Type (0, 0), BuildingBlock: AJUNOK_clean_linker_0, # of connection points: 2
#     Edge 24, Type (0, 0), BuildingBlock: AJUNOK_clean_linker_0, # of connection points: 2
#     Edge 25, Type (0, 0), BuildingBlock: AJUNOK_clean_linker_0, # of connection points: 2
#     Edge 26, Type (0, 0), BuildingBlock: AJUNOK_clean_linker_0, # of connection points: 2
#     Edge 27, Type (0, 0), BuildingBlock: AJUNOK_clean_linker_0, # of connection points: 2
# Relax obj value: 0.219
# Max RMSD: 0.293
# Mean RMSD: 0.293
data_MOF--net-fcu--node1-FANWIC_clean_sbu_0--edge1-AJUNOK_clean_linker_0
_symmetry_space_group_name_H-M    P1
_symmetry_Int_Tables_number       1
_symmetry_cell_setting            triclinic
loop_
_symmetry_equiv_pos_as_xyz
'x, y, z'
_cell_length_a     18.62047
_cell_length_b     19.824068
_cell_length_c     19.455256
_cell_angle_alpha  93.4306
_cell_angle_beta   89.219385
_cell_angle_gamma 89.687895
loop_
_atom_site_label
_atom_site_type_symbol
_atom_site_fract_x
_atom_site_fract_y
_atom_site_fract_z
_atom_type_partial_charge
Zn0 Zn 0.94689 0.00966 0.91551 0.0
Zn1 Zn 0.89491 0.95893 0.06794 0.0
Zn2 Zn 0.97903 0.12459 0.01663 0.0
Zn3 Zn 0.82396 0.06796 0.01432 0.0
O4 O 0.92525 0.03607 0.01435 0.0
C5 C 0.00787 0.1242 0.16603 0.0
O6 O 0.98955 0.0604 0.16482 0.0
N7 N 0.02044 0.93698 0.90707 0.0
N8 N 0.0706 0.91845 0.95066 0.0
N9 N 0.07708 0.84821 0.85722 0.0
C10 C 0.02545 0.8948 0.85085 0.0
C11 C 0.10517 0.86414 0.91951 0.0
N12 N 0.96918 0.9101 0.1073 0.0
C13 C 0.06259 0.87747 0.15889 0.0
N14 N 0.01071 0.83228 0.17257 0.0
C15 C 0.95297 0.85493 0.14036 0.0
N16 N 0.03681 0.92582 0.11964 0.0
H17 H 0.87336 0.78328 0.1756 0.0
C18 C 0.87699 0.83381 0.15454 0.0
H19 H 0.84358 0.83515 0.10849 0.0
H20 H 0.85276 0.87109 0.19261 0.0
N21 N 0.07404 0.1093 0.97265 0.0
C22 C 0.13208 0.14892 0.97906 0.0
C23 C 0.16063 0.06644 0.90853 0.0
N24 N 0.09205 0.05795 0.92894 0.0
N25 N 0.18772 0.12271 0.94078 0.0
C26 C 0.13159 0.21788 0.01514 0.0
H27 H 0.08282 0.22679 0.04747 0.0
H28 H 0.1807 0.22473 0.0463 0.0
H29 H 0.13301 0.25648 0.97624 0.0
O30 O 0.77389 0.04244 0.92284 0.0
O31 O 0.85746 -0.01918 0.86581 0.0
C32 C 0.79368 0.004 0.87085 0.0
O33 O 0.84385 0.89364 0.00197 0.0
O34 O 0.82961 0.16534 0.03862 0.0
O35 O 0.91368 0.19461 0.96831 0.0
O36 O 0.97993 0.09279 0.86574 0.0
O37 O 0.75753 0.04673 0.09277 0.0
O38 O 0.83251 -0.01224 0.1508 0.0
O39 O 0.00079 0.15796 0.1131 0.0
C40 C 0.87744 0.84327 0.97304 0.0
O41 O 0.9462 0.83583 0.98392 0.0
C42 C 0.85003 0.20287 -0.00739 0.0
C43 C 0.96815 0.10456 0.80344 0.0
O44 O 0.92491 0.06521 0.76692 0.0
C45 C 0.77453 0.02088 0.14827 0.0
H46 H 0.96593 0.95116 0.78134 0.0
H47 H 0.92666 0.87168 0.80134 0.0
H48 H 0.0022 0.87359 0.74286 0.0
C49 C 0.97749 0.89796 0.79025 0.0
Zn50 Zn 0.93981 0.49117 0.40655 0.0
Zn51 Zn 0.91431 0.45077 0.57294 0.0
Zn52 Zn 0.97554 0.60469 0.51608 0.0
Zn53 Zn 0.81985 0.53516 0.51153 0.0
O54 O 0.92386 0.51833 0.50517 0.0
C55 C 0.02489 0.68875 0.62048 0.0
O56 O 0.04115 0.71991 0.56461 0.0
N57 N 0.01875 0.42595 0.39878 0.0
N58 N 0.0645 0.40955 0.44715 0.0
N59 N 0.06915 0.32884 0.36233 0.0
C60 C 0.02306 0.37793 0.34748 0.0
C61 C 0.09558 0.35034 0.42415 0.0
N62 N 0.99653 0.39932 0.59521 0.0
C63 C 0.09289 0.37954 0.64937 0.0
N64 N 0.05467 0.32165 0.65056 0.0
C65 C 0.99364 0.33669 0.61802 0.0
N66 N 0.05747 0.42686 0.61594 0.0
H67 H 0.91623 0.26431 0.57998 0.0
C68 C 0.92427 0.29899 0.62601 0.0
H69 H 0.87855 0.33472 0.63279 0.0
H70 H 0.92387 0.26809 0.6716 0.0
N71 N 0.07283 0.58652 0.47249 0.0
C72 C 0.13891 0.59018 0.5006 0.0
C73 C 0.1545 0.55905 0.39602 0.0
N74 N 0.08337 0.5654 0.40728 0.0
N75 N 0.19169 0.57833 0.45298 0.0
C76 C 0.15352 0.59561 0.57618 0.0
H77 H 0.16437 0.64895 0.59274 0.0
H78 H 0.10835 0.57523 0.6059 0.0
H79 H 0.20219 0.56588 0.58724 0.0
O80 O 0.76509 0.49595 0.42695 0.0
O81 O 0.85201 0.4539 0.35861 0.0
C82 C 0.78563 0.46494 0.37054 0.0
O83 O 0.83939 0.39291 0.53429 0.0
O84 O 0.80438 0.63193 0.50832 0.0
O85 O 0.90725 0.68172 0.48251 0.0
O86 O 0.96042 0.57566 0.35821 0.0
O87 O 0.77522 0.51365 0.60551 0.0
O88 O 0.87429 0.49026 0.66008 0.0
O89 O 0.9913 0.63312 0.61455 0.0
C90 C 0.85129 0.34688 0.4879 0.0
O91 O 0.91705 0.33456 0.46539 0.0
C92 C 0.83881 0.68399 0.49308 0.0
C93 C 0.94787 0.58585 0.29587 0.0
O94 O 0.91274 0.54033 0.25808 0.0
C95 C 0.80798 0.50463 0.66163 0.0
H96 H 0.92628 0.34678 0.29876 0.0
H97 H 0.00275 0.34779 0.24139 0.0
H98 H 0.96124 0.42643 0.27265 0.0
C99 C 0.97561 0.37489 0.28617 0.0
Zn100 Zn 0.43553 0.97549 0.39655 0.0
Zn101 Zn 0.41007 0.92074 0.56015 0.0
Zn102 Zn 0.44656 0.08771 0.53176 0.0
Zn103 Zn 0.3052 0.00346 0.50143 0.0
O104 O 0.41146 -0.00379 0.49853 0.0
C105 C 0.54522 0.09745 0.64812 0.0
O106 O 0.59322 0.07411 0.60255 0.0
N107 N 0.51643 0.90988 0.38616 0.0
N108 N 0.57177 0.90346 0.4279 0.0
N109 N 0.57913 0.81941 0.34636 0.0
C110 C 0.52137 0.85906 0.33723 0.0
C111 C 0.61042 0.84903 0.40266 0.0
N112 N 0.49585 0.89737 0.60462 0.0
C113 C 0.58668 0.90103 0.6712 0.0
N114 N 0.55314 0.84245 0.68259 0.0
C115 C 0.49548 0.84308 0.64237 0.0
N116 N 0.55107 0.93549 0.62415 0.0
H117 H 0.4416 0.74751 0.63092 0.0
C118 C 0.43071 0.79948 0.65288 0.0
H119 H 0.38196 0.81993 0.62992 0.0
H120 H 0.41958 0.79588 0.70868 0.0
N121 N 0.5296 0.10629 0.47582 0.0
C122 C 0.5626 0.16575 0.48192 0.0
C123 C 0.61666 0.106 0.402 0.0
N124 N 0.56379 0.06788 0.42754 0.0
N125 N 0.61822 0.16759 0.43651 0.0
C126 C 0.5405 0.2196 0.53607 0.0
H127 H 0.50535 0.19937 0.57573 0.0
H128 H 0.5878 0.24391 0.5609 0.0
H129 H 0.50671 0.25797 0.51279 0.0
O130 O 0.25911 0.95885 0.41884 0.0
O131 O 0.34914 0.9405 0.34418 0.0
C132 C 0.28248 0.93973 0.35898 0.0
O133 O 0.3677 0.8401 0.50808 0.0
O134 O 0.27742 0.09698 0.49567 0.0
O135 O 0.36862 0.16389 0.52129 0.0
O136 O 0.45354 0.06381 0.3497 0.0
O137 O 0.2547 -0.0156 0.59205 0.0
O138 O 0.34963 0.94588 0.64203 0.0
O139 O 0.47889 0.09483 0.63224 0.0
C140 C 0.40018 0.78518 0.48997 0.0
O141 O 0.46905 0.77848 0.50151 0.0
C142 C 0.30239 0.15572 0.50636 0.0
C143 C 0.4835 0.06939 0.29112 0.0
O144 O 0.50483 0.01444 0.2554 0.0
C145 C 0.2859 0.96772 0.64617 0.0
H146 H 0.44804 0.89499 0.26366 0.0
H147 H 0.42131 0.81905 0.30372 0.0
H148 H 0.4903 0.81518 0.23771 0.0
C149 C 0.46732 0.84641 0.28197 0.0
Zn150 Zn 0.45449 0.49665 0.88882 0.0
Zn151 Zn 0.41081 0.43474 0.04622 0.0
Zn152 Zn 0.46976 0.60539 0.0242 0.0
Zn153 Zn 0.3294 0.53449 0.98451 0.0
O154 O 0.43283 0.51356 -0.00838 0.0
C155 C 0.5628 0.60654 0.14599 0.0
O156 O 0.61326 0.58289 0.10322 0.0
N157 N 0.5328 0.4296 0.86745 0.0
N158 N 0.58601 0.41341 0.90838 0.0
N159 N 0.58748 0.33826 0.81807 0.0
C160 C 0.53543 0.38491 0.81226 0.0
C161 C 0.61968 0.35874 0.87738 0.0
N162 N 0.48481 0.3952 0.0987 0.0
C163 C 0.56999 0.37858 0.16899 0.0
N164 N 0.52422 0.32637 0.17539 0.0
C165 C 0.47113 0.33924 0.13216 0.0
N166 N 0.54539 0.42146 0.1229 0.0
H167 H 0.40458 0.25074 0.12838 0.0
C168 C 0.3988 0.30632 0.13527 0.0
H169 H 0.36125 0.32506 0.09733 0.0
H170 H 0.37502 0.31738 0.18738 0.0
N171 N 0.55873 0.61248 0.97308 0.0
C172 C 0.60761 0.66183 0.97759 0.0
C173 C 0.65206 0.58185 0.91223 0.0
N174 N 0.58632 0.56242 0.93253 0.0
N175 N 0.6668 0.64396 0.94022 0.0
C176 C 0.59773 0.72699 0.01961 0.0
H177 H 0.60672 0.76984 0.98648 0.0
H178 H 0.54323 0.73044 0.04346 0.0
H179 H 0.63893 0.73101 0.06006 0.0
O180 O 0.27818 0.47383 0.9159 0.0
O181 O 0.36658 0.46288 0.8388 0.0
C182 C 0.30148 0.45457 0.85613 0.0
O183 O 0.36845 0.36505 0.98152 0.0
O184 O 0.31457 0.62308 0.94842 0.0
O185 O 0.39293 0.68331 0.00993 0.0
O186 O 0.47788 0.58807 0.85395 0.0
O187 O 0.27695 0.5402 0.07723 0.0
O188 O 0.34065 0.46005 0.12041 0.0
O189 O 0.4986 0.61285 0.12484 0.0
C190 C 0.40435 0.31439 0.95712 0.0
O191 O 0.4728 0.30971 0.97103 0.0
C192 C 0.3348 0.67931 0.97524 0.0
C193 C 0.4817 0.60235 0.79148 0.0
O194 O 0.46427 0.55655 0.74318 0.0
C195 C 0.29138 0.5041 0.12704 0.0
H196 H 0.45405 0.43222 0.75229 0.0
H197 H 0.4611 0.34105 0.73976 0.0
H198 H 0.52741 0.39303 0.70401 0.0
C199 C 0.49097 0.38867 0.74914 0.0
C200 C 0.9897 0.17187 0.28539 0.0
C201 C 0.03572 0.15891 0.22856 0.0
C202 C 0.00594 0.22302 0.33536 0.0
C203 C 0.06841 0.26214 0.32965 0.0
H204 H 0.93795 0.14727 0.28769 0.0
H205 H 0.96613 0.23686 0.37477 0.0
S206 S 0.21314 0.23688 0.19912 0.0
N207 N 0.15189 0.18021 0.17578 0.0
N208 N 0.18133 0.27734 0.26991 0.0
C209 C 0.11847 0.24408 0.27776 0.0
C210 C 0.10217 0.19215 0.22683 0.0
C211 C 0.71151 -0.00502 0.25945 0.0
C212 C 0.73449 0.04179 0.21254 0.0
C213 C 0.67439 0.01636 0.32076 0.0
C214 C 0.6593 0.08526 0.33774 0.0
H215 H 0.72144 0.94162 0.24807 0.0
H216 H 0.65773 0.97864 0.3553 0.0
S217 S 0.71248 0.22742 0.23173 0.0
N218 N 0.74382 0.15962 0.18813 0.0
N219 N 0.67029 0.19975 0.29935 0.0
C220 C 0.68242 0.13223 0.29036 0.0
C221 C 0.72083 0.11046 0.22885 0.0
C222 C 0.99364 0.71073 0.16337 0.0
C223 C 0.01443 0.76844 0.20338 0.0
C224 C 0.97372 0.65153 0.1936 0.0
C225 C 0.97508 0.6474 0.26532 0.0
H226 H 0.98613 0.71384 0.10863 0.0
H227 H 0.95475 0.60968 0.1605 0.0
S228 S 0.03614 0.78154 0.39263 0.0
N229 N 0.04027 0.81656 0.31784 0.0
N230 N 0.00899 0.70335 0.37507 0.0
C231 C 0.00225 0.70282 0.30562 0.0
C232 C 0.02054 0.76394 0.2746 0.0
C233 C 0.15933 0.94979 0.31343 0.0
C234 C 0.22962 0.92412 0.30416 0.0
C235 C 0.10683 0.93576 0.2644 0.0
C236 C 0.12157 0.89309 0.20585 0.0
H237 H 0.1445 -0.01864 0.35884 0.0
H238 H 0.05331 0.95653 0.27357 0.0
S239 S 0.29713 0.81827 0.15241 0.0
N240 N 0.31257 0.86008 0.22673 0.0
N241 N 0.21097 0.82955 0.1371 0.0
C242 C 0.19149 0.8691 0.19377 0.0
C243 C 0.24633 0.8858 0.24239 0.0
C244 C 0.12792 0.79581 0.75187 0.0
C245 C 0.08634 0.78957 0.81165 0.0
C246 C 0.11019 0.75974 0.69046 0.0
C247 C 0.05115 0.71554 0.68769 0.0
H248 H 0.16826 0.83492 0.7506 0.0
H249 H 0.14003 0.76992 0.64406 0.0
S250 S 0.9329 0.67506 0.8335 0.0
N251 N 0.98956 0.73131 0.86674 0.0
N252 N 0.95736 0.6613 0.75204 0.0
C253 C 0.01487 0.70298 0.74914 0.0
C254 C 0.03266 0.74023 0.81127 0.0
C255 C 0.14955 0.02366 0.78564 0.0
C256 C 0.19166 0.03116 0.84508 0.0
C257 C 0.1793 0.00062 0.72179 0.0
C258 C 0.25217 -0.01797 0.71533 0.0
H259 H 0.09377 0.03834 0.78769 0.0
H260 H 0.14535 -0.00087 0.67696 0.0
S261 S 0.38164 0.97721 0.859 0.0
N262 N 0.30686 0.00779 0.89542 0.0
N263 N 0.36328 0.96337 0.77669 0.0
C264 C 0.29333 -0.01655 0.77584 0.0
C265 C 0.26306 0.0083 0.84037 0.0
C266 C 0.05528 0.20036 0.66297 0.0
C267 C 0.0612 0.26586 0.694 0.0
C268 C 0.02813 0.14743 0.69983 0.0
C269 C 0.0083 0.15779 0.76965 0.0
H270 H 0.06373 0.19208 0.60795 0.0
H271 H 0.01925 0.09899 0.67257 0.0
S272 S 0.02678 0.3167 0.87792 0.0
N273 N 0.05232 0.33639 0.80015 0.0
N274 N 0.00819 0.23527 0.87111 0.0
C275 C 0.02298 0.22068 0.8034 0.0
C276 C 0.04808 0.27526 0.76519 0.0
C277 C 0.61717 0.96466 0.78096 0.0
C278 C 0.6398 0.93281 0.71784 0.0
C279 C 0.66711 -0.01041 0.82941 0.0
C280 C 0.74148 -0.01593 0.81595 0.0
H281 H 0.56042 0.96902 0.79355 0.0
H282 H 0.64724 0.01143 0.87843 0.0
S283 S 0.82618 0.91432 0.65204 0.0
N284 N 0.73926 0.90347 0.6405 0.0
N285 N 0.83382 0.95142 0.72985 0.0
C286 C 0.76398 0.95661 0.75029 0.0
C287 C 0.71292 0.93088 0.70147 0.0
C288 C 0.30324 0.26296 0.89333 0.0
C289 C 0.36367 0.25442 0.93419 0.0
C290 C 0.25003 0.21387 0.88744 0.0
C291 C 0.25282 0.15745 0.92723 0.0
H292 H 0.29351 0.31073 0.87164 0.0
H293 H 0.20216 0.22398 0.8586 0.0
S294 S 0.39815 0.11242 0.04451 0.0
N295 N 0.42645 0.18191 0.01026 0.0
N296 N 0.31878 0.09626 0.01062 0.0
C297 C 0.31339 0.1474 0.96747 0.0
C298 C 0.37085 0.19438 0.96822 0.0
C299 C 0.29322 0.79889 0.95398 0.0
C300 C 0.27942 0.73421 0.97679 0.0
C301 C 0.23628 0.84329 0.94003 0.0
C302 C 0.164 0.8251 0.94978 0.0
H303 H 0.34743 0.81369 0.94267 0.0
H304 H 0.24861 0.89046 0.91779 0.0
S305 S 0.09944 0.66513 0.01645 0.0
N306 N 0.18765 0.65719 0.01456 0.0
N307 N 0.08223 0.74081 0.98937 0.0
C308 C 0.14989 0.76291 0.9773 0.0
C309 C 0.2072 0.71764 0.9908 0.0
C310 C 0.75012 0.34333 0.9054 0.0
C311 C 0.67843 0.32106 0.90851 0.0
C312 C 0.80683 0.30463 0.93076 0.0
C313 C 0.79301 0.24289 0.96038 0.0
H314 H 0.76243 0.39039 0.88247 0.0
H315 H 0.86117 0.32359 0.92827 0.0
S316 S 0.61384 0.16139 0.97592 0.0
N317 N 0.59724 0.23303 0.94024 0.0
N318 N 0.70125 0.16057 0.98794 0.0
C319 C 0.721 0.2203 0.96251 0.0
C320 C 0.66433 0.25931 0.93659 0.0
C321 C 0.83172 0.73139 -0.00093 0.0
C322 C 0.83577 0.78339 0.95323 0.0
C323 C 0.77883 0.68207 -0.00827 0.0
C324 C 0.73126 0.68188 0.93665 0.0
H325 H 0.86612 0.7315 0.04346 0.0
H326 H 0.77216 0.64621 0.03117 0.0
S327 S 0.73446 0.79411 0.79258 0.0
N328 N 0.79682 0.8249 0.84505 0.0
N329 N 0.69999 0.7282 0.82887 0.0
C330 C 0.74047 0.72833 0.88623 0.0
C331 C 0.79242 0.78027 0.89504 0.0
C332 C 0.65645 0.53437 0.79137 0.0
C333 C 0.69223 0.54833 0.85343 0.0
C334 C 0.69402 0.5188 0.72983 0.0
C335 C 0.76919 0.51314 0.72871 0.0
H336 H 0.59916 0.53801 0.78959 0.0
H337 H 0.6638 0.51241 0.68272 0.0
S338 S 0.88493 0.51655 0.88327 0.0
N339 N 0.8044 0.53841 0.91386 0.0
N340 N 0.87622 0.50459 0.79899 0.0
C341 C 0.80495 0.51739 0.79244 0.0
C342 C 0.76628 0.53592 0.85477 0.0
C343 C 0.13754 0.45417 0.74523 0.0
C344 C 0.14951 0.39847 0.6983 0.0
C345 C 0.18618 0.47009 0.79758 0.0
C346 C 0.25002 0.43285 0.80267 0.0
H347 H 0.08877 0.48405 0.74318 0.0
H348 H 0.17436 0.51274 0.83352 0.0
S349 S 0.30834 0.28551 0.6884 0.0
N350 N 0.22872 0.30617 0.65938 0.0
N351 N 0.32491 0.34098 0.7529 0.0
C352 C 0.26424 0.37917 0.75362 0.0
C353 C 0.21264 0.36062 0.70263 0.0
C354 C 0.15397 0.55877 0.26663 0.0
C355 C 0.18789 0.5413 0.32731 0.0
C356 C 0.18732 0.54693 0.20173 0.0
C357 C 0.25524 0.51561 0.19521 0.0
H358 H 0.10239 0.58367 0.26948 0.0
H359 H 0.15974 0.5624 0.15653 0.0
S360 S 0.36578 0.45792 0.33843 0.0
N361 N 0.29235 0.48964 0.3764 0.0
N362 N 0.355 0.46677 0.25551 0.0
C363 C 0.28902 0.49659 0.2556 0.0
C364 C 0.25538 0.50947 0.32132 0.0
C365 C 0.60599 0.43209 0.28216 0.0
C366 C 0.62587 0.39852 0.21914 0.0
C367 C 0.65801 0.45534 0.32937 0.0
C368 C 0.73182 0.44293 0.31715 0.0
H369 H 0.54981 0.44199 0.29431 0.0
H370 H 0.64 0.48381 0.3756 0.0
S371 S 0.81081 0.36865 0.15236 0.0
N372 N 0.72322 0.36414 0.14101 0.0
N373 N 0.8213 0.40294 0.23104 0.0
C374 C 0.75201 0.41233 0.25206 0.0
C375 C 0.69891 0.39119 0.20292 0.0
C376 C 0.36225 0.66619 0.50503 0.0
C377 C 0.3565 0.7261 0.46998 0.0
C378 C 0.31073 0.61495 0.49604 0.0
C379 C 0.25273 0.62247 0.45164 0.0
H380 H 0.40436 0.66044 0.5421 0.0
H381 H 0.31446 0.57073 0.52586 0.0
S382 S 0.22034 0.76512 0.34195 0.0
N383 N 0.29377 0.78636 0.38423 0.0
N384 N 0.19639 0.69136 0.36851 0.0
C385 C 0.24975 0.68017 0.41332 0.0
C386 C 0.30173 0.73177 0.42235 0.0
C387 C 0.12544 0.24263 0.47504 0.0
C388 C 0.14471 0.30922 0.46423 0.0
C389 C 0.17662 0.19527 0.49234 0.0
C390 C 0.24981 0.21231 0.50047 0.0
H391 H 0.07086 0.22587 0.46654 0.0
H392 H 0.15835 0.14388 0.49652 0.0
S393 S 0.32094 0.38678 0.50462 0.0
N394 N 0.2366 0.39491 0.4806 0.0
N395 N 0.33386 0.30543 0.51492 0.0
C396 C 0.26768 0.28113 0.49949 0.0
C397 C 0.21477 0.32978 0.48125 0.0
C398 C 0.72706 0.75086 0.51936 0.0
C399 C 0.79255 0.74372 0.48173 0.0
C400 C 0.66966 0.78946 0.49635 0.0
C401 C 0.67574 0.82261 0.435 0.0
H402 H 0.71818 0.72214 0.56432 0.0
H403 H 0.61888 0.78954 0.52418 0.0
S404 S 0.8406 0.8355 0.32834 0.0
N405 N 0.86331 0.78328 0.38731 0.0
N406 N 0.75617 0.8574 0.34489 0.0
C407 C 0.7431 0.82243 0.40145 0.0
C408 C 0.80155 0.7829 0.42484 0.0
C409 C 0.74796 0.18943 0.44081 0.0
C410 C 0.67691 0.21395 0.44035 0.0
C411 C 0.80527 0.2336 0.45178 0.0
C412 C 0.79232 0.30254 0.46755 0.0
H413 H 0.7591 0.13576 0.43445 0.0
H414 H 0.85927 0.21307 0.45242 0.0
S415 S 0.61552 0.39002 0.47509 0.0
N416 N 0.59853 0.31222 0.44583 0.0
N417 N 0.70283 0.39183 0.48804 0.0
C418 C 0.72145 0.32708 0.46856 0.0
C419 C 0.6646 0.28355 0.44915 0.0
C420 C 0.52589 0.23011 0.79454 0.0
C421 C 0.58631 0.27108 0.78543 0.0
C422 C 0.51625 0.17007 0.75417 0.0
C423 C 0.5668 0.14861 0.70298 0.0
H424 H 0.48387 0.24681 0.83069 0.0
H425 H 0.46668 0.14252 0.76026 0.0
S426 S 0.73857 0.23501 0.66491 0.0
N427 N 0.70022 0.28402 0.72674 0.0
N428 N 0.68374 0.17058 0.65065 0.0
C429 C 0.63061 0.18656 0.69749 0.0
C430 C 0.63987 0.24813 0.73862 0.0
C431 C 0.58425 0.72503 0.68712 0.0
C432 C 0.57029 0.78719 0.72345 0.0
C433 C 0.55748 0.66482 0.71076 0.0
C434 C 0.51859 0.66458 0.7731 0.0
H435 H 0.60617 0.7244 0.63529 0.0
H436 H 0.56382 0.61892 0.67808 0.0
S437 S 0.48893 0.8115 0.89719 0.0
N438 N 0.52921 0.84334 0.83056 0.0
N439 N 0.48226 0.72946 0.87808 0.0
C440 C 0.51491 0.72474 0.81515 0.0
C441 C 0.54087 0.78628 0.78992 0.0
C442 C 0.63886 0.69336 0.20744 0.0
C443 C 0.583 0.6458 0.20951 0.0
C444 C 0.64245 0.74772 0.25707 0.0
C445 C 0.59239 0.75415 0.31172 0.0
H446 H 0.67564 0.69249 0.16385 0.0
H447 H 0.68021 0.78787 0.24912 0.0
S448 S 0.44866 0.63262 0.349 0.0
N449 N 0.48503 0.60188 0.27592 0.0
N450 N 0.49417 0.70168 0.37134 0.0
C451 C 0.54288 0.70169 0.31896 0.0
C452 C 0.53775 0.64784 0.26742 0.0
C453 C 0.53372 0.1422 0.20106 0.0
C454 C 0.49903 0.13725 0.26538 0.0
C455 C 0.54786 0.20519 0.17476 0.0
C456 C 0.52937 0.2658 0.21199 0.0
H457 H 0.54894 0.09714 0.16992 0.0
H458 H 0.57089 0.20687 0.12353 0.0
S459 S 0.43377 0.28218 0.37945 0.0
N460 N 0.44393 0.19987 0.36421 0.0
N461 N 0.47208 0.31771 0.31391 0.0
C462 C 0.49564 0.262 0.27623 0.0
C463 C 0.48015 0.19796 0.30308 0.0
loop_
_geom_bond_atom_site_label_1
_geom_bond_atom_site_label_2
_geom_bond_distance
_geom_bond_site_symmetry_2
_ccdc_geom_bond_type
Zn0 O4 1.994 . S
Zn0 N7 2.004 1_545 S
Zn0 O31 2.064 1_545 S
Zn0 O36 1.963 . S
Zn1 O4 1.969 1_564 S
Zn1 N12 2.004 . S
Zn1 O33 1.963 1_554 S
Zn1 O38 2.064 . S
Zn2 O4 1.970 1_554 S
Zn2 N21 2.003 1_655 S
Zn2 O35 2.064 . S
Zn2 O39 1.963 . S
Zn3 O4 1.913 . S
Zn3 O30 1.941 . S
Zn3 O34 1.941 1_556 S
Zn3 O37 1.941 1_556 S
O4 Zn0 1.994 . S
O4 Zn1 1.969 1_546 S
O4 Zn2 1.970 1_556 S
O4 Zn3 1.913 . S
C5 O6 1.237 1_655 S
C5 O39 1.268 . S
O6 C5 1.237 1_455 S
N7 Zn0 2.004 1_565 S
N7 N8 1.383 1_655 S
N7 C10 1.306 1_655 S
N8 N7 1.383 1_455 S
N8 C11 1.302 . S
N9 C10 1.368 . S
N9 C11 1.379 . S
C10 N7 1.306 1_455 S
C10 N9 1.368 . S
C10 C49 1.481 1_455 S
C11 N8 1.302 . S
C11 N9 1.379 . S
N12 Zn1 2.004 . S
N12 C15 1.306 1_655 S
N12 N16 1.383 1_655 S
C13 N14 1.379 . S
C13 N16 1.302 . S
N14 C13 1.379 . S
N14 C15 1.368 . S
C15 N12 1.306 1_455 S
C15 N14 1.368 . S
C15 C18 1.481 1_455 S
N16 N12 1.383 1_455 S
N16 C13 1.302 . S
H17 C18 0.969 . S
C18 C15 1.481 1_655 S
C18 H17 0.969 . S
C18 H19 0.970 . S
C18 H20 0.971 . S
H19 C18 0.970 . S
H20 C18 0.971 . S
N21 Zn2 2.003 1_455 S
N21 C22 1.306 . S
N21 N24 1.384 1_554 S
C22 N21 1.306 . S
C22 N25 1.368 1_554 S
C22 C26 1.481 . S
C23 N24 1.302 . S
C23 N25 1.379 . S
N24 N21 1.384 1_556 S
N24 C23 1.302 . S
N25 C22 1.368 1_556 S
N25 C23 1.379 . S
C26 C22 1.481 . S
C26 H27 0.971 . S
C26 H28 0.970 . S
C26 H29 0.969 . S
H27 C26 0.971 . S
H28 C26 0.970 . S
H29 C26 0.969 . S
O30 Zn3 1.941 . S
O30 C32 1.277 1_545 S
O31 Zn0 2.064 1_565 S
O31 C32 1.233 . S
C32 O30 1.277 1_565 S
C32 O31 1.233 . S
O33 Zn1 1.963 1_556 S
O33 C40 1.268 . S
O34 Zn3 1.941 1_554 S
O34 C42 1.277 1_554 S
O35 Zn2 2.064 . S
O35 C42 1.230 1_554 S
O36 Zn0 1.963 . S
O36 C43 1.268 . S
O37 Zn3 1.941 1_554 S
O37 C45 1.277 1_545 S
O38 Zn1 2.064 . S
O38 C45 1.233 . S
O39 Zn2 1.963 . S
O39 C5 1.268 . S
C40 O33 1.268 . S
C40 O41 1.237 1_556 S
O41 C40 1.237 1_554 S
C42 O34 1.277 1_556 S
C42 O35 1.230 1_556 S
C43 O36 1.268 . S
C43 O44 1.237 . S
O44 C43 1.237 . S
C45 O37 1.277 1_565 S
C45 O38 1.233 . S
H46 C49 0.970 . S
H47 C49 0.971 . S
H48 C49 0.969 1_455 S
C49 C10 1.481 1_655 S
C49 H46 0.970 . S
C49 H47 0.971 . S
C49 H48 0.969 1_655 S
Zn50 O54 1.978 . S
Zn50 N57 2.004 . S
Zn50 O81 2.064 . S
Zn50 O86 1.963 . S
Zn51 O54 1.978 . S
Zn51 N62 2.004 . S
Zn51 O83 1.963 . S
Zn51 O88 2.064 . S
Zn52 O54 1.978 . S
Zn52 N71 2.004 1_655 S
Zn52 O85 2.064 . S
Zn52 O89 1.963 . S
Zn53 O54 1.913 . S
Zn53 O80 1.941 . S
Zn53 O84 1.941 . S
Zn53 O87 1.941 . S
O54 Zn50 1.978 . S
O54 Zn51 1.978 . S
O54 Zn52 1.978 . S
O54 Zn53 1.913 . S
C55 O56 1.237 1_655 S
C55 O89 1.268 . S
O56 C55 1.237 1_455 S
N57 Zn50 2.004 . S
N57 N58 1.383 1_655 S
N57 C60 1.306 1_655 S
N58 N57 1.383 1_455 S
N58 C61 1.302 . S
N59 C60 1.368 . S
N59 C61 1.379 . S
C60 N57 1.306 1_455 S
C60 N59 1.368 . S
C60 C99 1.481 1_455 S
C61 N58 1.302 . S
C61 N59 1.379 . S
N62 Zn51 2.004 . S
N62 C65 1.306 1_655 S
N62 N66 1.383 1_655 S
C63 N64 1.379 . S
C63 N66 1.302 . S
N64 C63 1.379 . S
N64 C65 1.368 . S
C65 N62 1.306 1_455 S
C65 N64 1.368 . S
C65 C68 1.481 1_455 S
N66 N62 1.383 1_455 S
N66 C63 1.302 . S
H67 C68 0.969 . S
C68 C65 1.481 1_655 S
C68 H67 0.969 . S
C68 H69 0.970 . S
C68 H70 0.971 . S
H69 C68 0.970 . S
H70 C68 0.971 . S
N71 Zn52 2.004 1_455 S
N71 C72 1.306 . S
N71 N74 1.383 . S
C72 N71 1.306 . S
C72 N75 1.368 . S
C72 C76 1.481 . S
C73 N74 1.302 . S
C73 N75 1.379 . S
N74 N71 1.383 . S
N74 C73 1.302 . S
N75 C72 1.368 . S
N75 C73 1.379 . S
C76 C72 1.481 . S
C76 H77 0.971 . S
C76 H78 0.970 . S
C76 H79 0.969 . S
H77 C76 0.971 . S
H78 C76 0.970 . S
H79 C76 0.969 . S
O80 Zn53 1.941 . S
O80 C82 1.277 . S
O81 Zn50 2.064 . S
O81 C82 1.233 . S
C82 O80 1.277 . S
C82 O81 1.233 . S
O83 Zn51 1.963 . S
O83 C90 1.268 . S
O84 Zn53 1.941 . S
O84 C92 1.277 . S
O85 Zn52 2.064 . S
O85 C92 1.233 . S
O86 Zn50 1.963 . S
O86 C93 1.268 . S
O87 Zn53 1.941 . S
O87 C95 1.277 . S
O88 Zn51 2.064 . S
O88 C95 1.233 . S
O89 Zn52 1.963 . S
O89 C55 1.268 . S
C90 O83 1.268 . S
C90 O91 1.237 . S
O91 C90 1.237 . S
C92 O84 1.277 . S
C92 O85 1.233 . S
C93 O86 1.268 . S
C93 O94 1.237 . S
O94 C93 1.237 . S
C95 O87 1.277 . S
C95 O88 1.233 . S
H96 C99 0.970 . S
H97 C99 0.971 . S
H98 C99 0.969 1_455 S
C99 C60 1.481 1_655 S
C99 H96 0.970 . S
C99 H97 0.971 . S
C99 H98 0.969 1_655 S
Zn100 O104 1.978 . S
Zn100 N107 2.004 1_545 S
Zn100 O131 2.064 1_545 S
Zn100 O136 1.963 . S
Zn101 O104 1.978 1_565 S
Zn101 N112 2.004 . S
Zn101 O133 1.963 . S
Zn101 O138 2.064 . S
Zn102 O104 1.978 . S
Zn102 N121 2.004 . S
Zn102 O135 2.064 . S
Zn102 O139 1.963 . S
Zn103 O104 1.913 . S
Zn103 O130 1.941 . S
Zn103 O134 1.941 . S
Zn103 O137 1.941 . S
O104 Zn100 1.978 . S
O104 Zn101 1.978 1_545 S
O104 Zn102 1.978 . S
O104 Zn103 1.913 . S
C105 O106 1.237 . S
C105 O139 1.268 . S
O106 C105 1.237 . S
N107 Zn100 2.004 1_565 S
N107 N108 1.383 . S
N107 C110 1.306 . S
N108 N107 1.383 . S
N108 C111 1.302 . S
N109 C110 1.368 . S
N109 C111 1.379 . S
C110 N107 1.306 . S
C110 N109 1.368 . S
C110 C149 1.481 . S
C111 N108 1.302 . S
C111 N109 1.379 . S
N112 Zn101 2.004 . S
N112 C115 1.306 . S
N112 N116 1.383 . S
C113 N114 1.379 . S
C113 N116 1.302 . S
N114 C113 1.379 . S
N114 C115 1.368 . S
C115 N112 1.306 . S
C115 N114 1.368 . S
C115 C118 1.481 . S
N116 N112 1.383 . S
N116 C113 1.302 . S
H117 C118 0.969 . S
C118 C115 1.481 . S
C118 H117 0.969 . S
C118 H119 0.970 . S
C118 H120 0.971 . S
H119 C118 0.970 . S
H120 C118 0.971 . S
N121 Zn102 2.004 . S
N121 C122 1.306 . S
N121 N124 1.383 . S
C122 N121 1.306 . S
C122 N125 1.368 . S
C122 C126 1.481 . S
C123 N124 1.302 . S
C123 N125 1.379 . S
N124 N121 1.383 . S
N124 C123 1.302 . S
N125 C122 1.368 . S
N125 C123 1.379 . S
C126 C122 1.481 . S
C126 H127 0.971 . S
C126 H128 0.970 . S
C126 H129 0.969 . S
H127 C126 0.971 . S
H128 C126 0.970 . S
H129 C126 0.969 . S
O130 Zn103 1.941 . S
O130 C132 1.277 1_545 S
O131 Zn100 2.064 1_565 S
O131 C132 1.233 . S
C132 O130 1.277 1_565 S
C132 O131 1.233 . S
O133 Zn101 1.963 . S
O133 C140 1.268 . S
O134 Zn103 1.941 . S
O134 C142 1.277 . S
O135 Zn102 2.064 . S
O135 C142 1.233 . S
O136 Zn100 1.963 . S
O136 C143 1.268 . S
O137 Zn103 1.941 . S
O137 C145 1.277 1_545 S
O138 Zn101 2.064 . S
O138 C145 1.233 . S
O139 Zn102 1.963 . S
O139 C105 1.268 . S
C140 O133 1.268 . S
C140 O141 1.237 . S
O141 C140 1.237 . S
C142 O134 1.277 . S
C142 O135 1.233 . S
C143 O136 1.268 . S
C143 O144 1.237 . S
O144 C143 1.237 . S
C145 O137 1.277 1_565 S
C145 O138 1.233 . S
H146 C149 0.970 . S
H147 C149 0.971 . S
H148 C149 0.969 . S
C149 C110 1.481 . S
C149 H146 0.970 . S
C149 H147 0.971 . S
C149 H148 0.969 . S
Zn150 O154 1.994 . S
Zn150 N157 2.004 . S
Zn150 O181 2.064 . S
Zn150 O186 1.963 . S
Zn151 O154 1.969 1_554 S
Zn151 N162 2.004 . S
Zn151 O183 1.963 1_554 S
Zn151 O188 2.064 . S
Zn152 O154 1.970 1_554 S
Zn152 N171 2.003 . S
Zn152 O185 2.064 . S
Zn152 O189 1.963 . S
Zn153 O154 1.913 . S
Zn153 O180 1.941 . S
Zn153 O184 1.941 1_556 S
Zn153 O187 1.941 1_556 S
O154 Zn150 1.994 . S
O154 Zn151 1.969 1_556 S
O154 Zn152 1.970 1_556 S
O154 Zn153 1.913 . S
C155 O156 1.237 . S
C155 O189 1.268 . S
O156 C155 1.237 . S
N157 Zn150 2.004 . S
N157 N158 1.383 . S
N157 C160 1.306 . S
N158 N157 1.383 . S
N158 C161 1.302 . S
N159 C160 1.368 . S
N159 C161 1.379 . S
C160 N157 1.306 . S
C160 N159 1.368 . S
C160 C199 1.481 . S
C161 N158 1.302 . S
C161 N159 1.379 . S
N162 Zn151 2.004 . S
N162 C165 1.306 . S
N162 N166 1.383 . S
C163 N164 1.379 . S
C163 N166 1.302 . S
N164 C163 1.379 . S
N164 C165 1.368 . S
C165 N162 1.306 . S
C165 N164 1.368 . S
C165 C168 1.481 . S
N166 N162 1.383 . S
N166 C163 1.302 . S
H167 C168 0.969 . S
C168 C165 1.481 . S
C168 H167 0.969 . S
C168 H169 0.970 . S
C168 H170 0.971 . S
H169 C168 0.970 . S
H170 C168 0.971 . S
N171 Zn152 2.003 . S
N171 C172 1.306 . S
N171 N174 1.384 1_554 S
C172 N171 1.306 . S
C172 N175 1.368 1_554 S
C172 C176 1.481 . S
C173 N174 1.302 . S
C173 N175 1.379 . S
N174 N171 1.384 1_556 S
N174 C173 1.302 . S
N175 C172 1.368 1_556 S
N175 C173 1.379 . S
C176 C172 1.481 . S
C176 H177 0.971 . S
C176 H178 0.970 . S
C176 H179 0.969 . S
H177 C176 0.971 . S
H178 C176 0.970 . S
H179 C176 0.969 . S
O180 Zn153 1.941 . S
O180 C182 1.277 . S
O181 Zn150 2.064 . S
O181 C182 1.233 . S
C182 O180 1.277 . S
C182 O181 1.233 . S
O183 Zn151 1.963 1_556 S
O183 C190 1.268 . S
O184 Zn153 1.941 1_554 S
O184 C192 1.277 1_554 S
O185 Zn152 2.064 . S
O185 C192 1.230 1_554 S
O186 Zn150 1.963 . S
O186 C193 1.268 . S
O187 Zn153 1.941 1_554 S
O187 C195 1.277 . S
O188 Zn151 2.064 . S
O188 C195 1.233 . S
O189 Zn152 1.963 . S
O189 C155 1.268 . S
C190 O183 1.268 . S
C190 O191 1.237 1_556 S
O191 C190 1.237 1_554 S
C192 O184 1.277 1_556 S
C192 O185 1.230 1_556 S
C193 O186 1.268 . S
C193 O194 1.237 . S
O194 C193 1.237 . S
C195 O187 1.277 . S
C195 O188 1.233 . S
H196 C199 0.970 . S
H197 C199 0.971 . S
H198 C199 0.969 . S
C199 C160 1.481 . S
C199 H196 0.970 . S
C199 H197 0.971 . S
C199 H198 0.969 . S
C200 C201 1.369 . S
C200 C202 1.419 . S
C200 H204 0.930 . S
C201 C200 1.369 . S
C201 C210 1.429 1_455 S
C202 C200 1.419 . S
C202 C203 1.363 . S
C202 H205 0.929 . S
C203 C202 1.363 . S
C203 C209 1.428 . S
H204 C200 0.930 . S
H205 C202 0.929 . S
S206 N207 1.613 . S
S206 N208 1.610 . S
N207 S206 1.613 . S
N207 C210 1.350 . S
N208 S206 1.610 . S
N208 C209 1.351 1_655 S
C209 C203 1.428 . S
C209 N208 1.351 1_455 S
C209 C210 1.434 1_455 S
C210 C201 1.429 1_655 S
C210 N207 1.350 . S
C210 C209 1.434 1_655 S
C211 C212 1.369 1_565 S
C211 C213 1.419 . S
C211 H215 0.930 . S
C212 C211 1.369 1_545 S
C212 C221 1.429 . S
C213 C211 1.419 . S
C213 C214 1.363 1_565 S
C213 H216 0.929 . S
C214 C213 1.363 1_545 S
C214 C220 1.428 . S
H215 C211 0.930 . S
H216 C213 0.929 . S
S217 N218 1.613 . S
S217 N219 1.610 . S
N218 S217 1.613 . S
N218 C221 1.350 . S
N219 S217 1.610 . S
N219 C220 1.351 . S
C220 C214 1.428 . S
C220 N219 1.351 . S
C220 C221 1.434 . S
C221 C212 1.429 . S
C221 N218 1.350 . S
C221 C220 1.434 . S
C222 C223 1.369 . S
C222 C224 1.419 . S
C222 H226 0.930 . S
C223 C222 1.369 . S
C223 C232 1.429 . S
C224 C222 1.419 . S
C224 C225 1.363 . S
C224 H227 0.929 . S
C225 C224 1.363 . S
C225 C231 1.428 . S
H226 C222 0.930 . S
H227 C224 0.929 . S
S228 N229 1.613 1_655 S
S228 N230 1.610 . S
N229 S228 1.613 1_455 S
N229 C232 1.350 . S
N230 S228 1.610 . S
N230 C231 1.351 1_655 S
C231 C225 1.428 . S
C231 N230 1.351 1_455 S
C231 C232 1.434 . S
C232 C223 1.429 . S
C232 N229 1.350 . S
C232 C231 1.434 . S
C233 C234 1.369 1_545 S
C233 C235 1.419 . S
C233 H237 0.930 . S
C234 C233 1.369 1_565 S
C234 C243 1.429 . S
C235 C233 1.419 . S
C235 C236 1.363 1_545 S
C235 H238 0.929 . S
C236 C235 1.363 1_565 S
C236 C242 1.428 . S
H237 C233 0.930 . S
H238 C235 0.929 . S
S239 N240 1.613 . S
S239 N241 1.610 . S
N240 S239 1.613 . S
N240 C243 1.350 . S
N241 S239 1.610 . S
N241 C242 1.351 . S
C242 C236 1.428 . S
C242 N241 1.351 . S
C242 C243 1.434 . S
C243 C234 1.429 . S
C243 N240 1.350 . S
C243 C242 1.434 . S
C244 C245 1.369 . S
C244 C246 1.419 . S
C244 H248 0.930 . S
C245 C244 1.369 . S
C245 C254 1.429 1_455 S
C246 C244 1.419 . S
C246 C247 1.363 . S
C246 H249 0.929 . S
C247 C246 1.363 . S
C247 C253 1.428 1_455 S
H248 C244 0.930 . S
H249 C246 0.929 . S
S250 N251 1.613 . S
S250 N252 1.610 . S
N251 S250 1.613 . S
N251 C254 1.350 . S
N252 S250 1.610 . S
N252 C253 1.351 . S
C253 C247 1.428 1_655 S
C253 N252 1.351 . S
C253 C254 1.434 . S
C254 C245 1.429 1_655 S
C254 N251 1.350 . S
C254 C253 1.434 . S
C255 C256 1.369 . S
C255 C257 1.419 1_545 S
C255 H259 0.930 1_545 S
C256 C255 1.369 . S
C256 C265 1.429 . S
C257 C255 1.419 1_565 S
C257 C258 1.363 1_565 S
C257 H260 0.929 . S
C258 C257 1.363 1_545 S
C258 C264 1.428 . S
H259 C255 0.930 1_565 S
H260 C257 0.929 . S
S261 N262 1.613 . S
S261 N263 1.610 . S
N262 S261 1.613 . S
N262 C265 1.350 . S
N263 S261 1.610 . S
N263 C264 1.351 . S
C264 C258 1.428 . S
C264 N263 1.351 . S
C264 C265 1.434 . S
C265 C256 1.429 . S
C265 N262 1.350 . S
C265 C264 1.434 . S
C266 C267 1.369 . S
C266 C268 1.419 . S
C266 H270 0.930 . S
C267 C266 1.369 . S
C267 C276 1.429 . S
C268 C266 1.419 . S
C268 C269 1.363 . S
C268 H271 0.929 . S
C269 C268 1.363 . S
C269 C275 1.428 1_455 S
H270 C266 0.930 . S
H271 C268 0.929 . S
S272 N273 1.613 . S
S272 N274 1.610 . S
N273 S272 1.613 . S
N273 C276 1.350 1_655 S
N274 S272 1.610 . S
N274 C275 1.351 . S
C275 C269 1.428 1_655 S
C275 N274 1.351 . S
C275 C276 1.434 1_655 S
C276 C267 1.429 . S
C276 N273 1.350 1_455 S
C276 C275 1.434 1_455 S
C277 C278 1.369 . S
C277 C279 1.419 . S
C277 H281 0.930 1_565 S
C278 C277 1.369 . S
C278 C287 1.429 . S
C279 C277 1.419 . S
C279 C280 1.363 . S
C279 H282 0.929 . S
C280 C279 1.363 . S
C280 C286 1.428 . S
H281 C277 0.930 1_545 S
H282 C279 0.929 . S
S283 N284 1.613 . S
S283 N285 1.610 . S
N284 S283 1.613 . S
N284 C287 1.350 . S
N285 S283 1.610 . S
N285 C286 1.351 . S
C286 C280 1.428 . S
C286 N285 1.351 . S
C286 C287 1.434 . S
C287 C278 1.429 . S
C287 N284 1.350 . S
C287 C286 1.434 . S
C288 C289 1.369 . S
C288 C290 1.419 . S
C288 H292 0.930 . S
C289 C288 1.369 . S
C289 C298 1.429 1_556 S
C290 C288 1.419 . S
C290 C291 1.363 . S
C290 H293 0.929 . S
C291 C290 1.363 . S
C291 C297 1.428 1_556 S
H292 C288 0.930 . S
H293 C290 0.929 . S
S294 N295 1.613 . S
S294 N296 1.610 . S
N295 S294 1.613 . S
N295 C298 1.350 . S
N296 S294 1.610 . S
N296 C297 1.351 . S
C297 C291 1.428 1_554 S
C297 N296 1.351 . S
C297 C298 1.434 . S
C298 C289 1.429 1_554 S
C298 N295 1.350 . S
C298 C297 1.434 . S
C299 C300 1.369 1_554 S
C299 C301 1.419 . S
C299 H303 0.930 . S
C300 C299 1.369 1_556 S
C300 C309 1.429 . S
C301 C299 1.419 . S
C301 C302 1.363 1_554 S
C301 H304 0.929 . S
C302 C301 1.363 1_556 S
C302 C308 1.428 . S
H303 C299 0.930 . S
H304 C301 0.929 . S
S305 N306 1.613 . S
S305 N307 1.610 . S
N306 S305 1.613 . S
N306 C309 1.350 . S
N307 S305 1.610 . S
N307 C308 1.351 . S
C308 C302 1.428 . S
C308 N307 1.351 . S
C308 C309 1.434 . S
C309 C300 1.429 . S
C309 N306 1.350 . S
C309 C308 1.434 . S
C310 C311 1.369 . S
C310 C312 1.419 . S
C310 H314 0.930 . S
C311 C310 1.369 . S
C311 C320 1.429 . S
C312 C310 1.419 . S
C312 C313 1.363 . S
C312 H315 0.929 . S
C313 C312 1.363 . S
C313 C319 1.428 . S
H314 C310 0.930 . S
H315 C312 0.929 . S
S316 N317 1.613 . S
S316 N318 1.610 . S
N317 S316 1.613 . S
N317 C320 1.350 . S
N318 S316 1.610 . S
N318 C319 1.351 . S
C319 C313 1.428 . S
C319 N318 1.351 . S
C319 C320 1.434 . S
C320 C311 1.429 . S
C320 N317 1.350 . S
C320 C319 1.434 . S
C321 C322 1.369 1_554 S
C321 C323 1.419 . S
C321 H325 0.930 . S
C322 C321 1.369 1_556 S
C322 C331 1.429 . S
C323 C321 1.419 . S
C323 C324 1.363 1_554 S
C323 H326 0.929 . S
C324 C323 1.363 1_556 S
C324 C330 1.428 . S
H325 C321 0.930 . S
H326 C323 0.929 . S
S327 N328 1.613 . S
S327 N329 1.610 . S
N328 S327 1.613 . S
N328 C331 1.350 . S
N329 S327 1.610 . S
N329 C330 1.351 . S
C330 C324 1.428 . S
C330 N329 1.351 . S
C330 C331 1.434 . S
C331 C322 1.429 . S
C331 N328 1.350 . S
C331 C330 1.434 . S
C332 C333 1.369 . S
C332 C334 1.419 . S
C332 H336 0.930 . S
C333 C332 1.369 . S
C333 C342 1.429 . S
C334 C332 1.419 . S
C334 C335 1.363 . S
C334 H337 0.929 . S
C335 C334 1.363 . S
C335 C341 1.428 . S
H336 C332 0.930 . S
H337 C334 0.929 . S
S338 N339 1.613 . S
S338 N340 1.610 . S
N339 S338 1.613 . S
N339 C342 1.350 . S
N340 S338 1.610 . S
N340 C341 1.351 . S
C341 C335 1.428 . S
C341 N340 1.351 . S
C341 C342 1.434 . S
C342 C333 1.429 . S
C342 N339 1.350 . S
C342 C341 1.434 . S
C343 C344 1.369 . S
C343 C345 1.419 . S
C343 H347 0.930 . S
C344 C343 1.369 . S
C344 C353 1.429 . S
C345 C343 1.419 . S
C345 C346 1.363 . S
C345 H348 0.929 . S
C346 C345 1.363 . S
C346 C352 1.428 . S
H347 C343 0.930 . S
H348 C345 0.929 . S
S349 N350 1.613 . S
S349 N351 1.610 . S
N350 S349 1.613 . S
N350 C353 1.350 . S
N351 S349 1.610 . S
N351 C352 1.351 . S
C352 C346 1.428 . S
C352 N351 1.351 . S
C352 C353 1.434 . S
C353 C344 1.429 . S
C353 N350 1.350 . S
C353 C352 1.434 . S
C354 C355 1.369 . S
C354 C356 1.419 . S
C354 H358 0.930 . S
C355 C354 1.369 . S
C355 C364 1.429 . S
C356 C354 1.419 . S
C356 C357 1.363 . S
C356 H359 0.929 . S
C357 C356 1.363 . S
C357 C363 1.428 . S
H358 C354 0.930 . S
H359 C356 0.929 . S
S360 N361 1.613 . S
S360 N362 1.610 . S
N361 S360 1.613 . S
N361 C364 1.350 . S
N362 S360 1.610 . S
N362 C363 1.351 . S
C363 C357 1.428 . S
C363 N362 1.351 . S
C363 C364 1.434 . S
C364 C355 1.429 . S
C364 N361 1.350 . S
C364 C363 1.434 . S
C365 C366 1.369 . S
C365 C367 1.419 . S
C365 H369 0.930 . S
C366 C365 1.369 . S
C366 C375 1.429 . S
C367 C365 1.419 . S
C367 C368 1.363 . S
C367 H370 0.929 . S
C368 C367 1.363 . S
C368 C374 1.428 . S
H369 C365 0.930 . S
H370 C367 0.929 . S
S371 N372 1.613 . S
S371 N373 1.610 . S
N372 S371 1.613 . S
N372 C375 1.350 . S
N373 S371 1.610 . S
N373 C374 1.351 . S
C374 C368 1.428 . S
C374 N373 1.351 . S
C374 C375 1.434 . S
C375 C366 1.429 . S
C375 N372 1.350 . S
C375 C374 1.434 . S
C376 C377 1.369 . S
C376 C378 1.419 . S
C376 H380 0.930 . S
C377 C376 1.369 . S
C377 C386 1.429 . S
C378 C376 1.419 . S
C378 C379 1.363 . S
C378 H381 0.929 . S
C379 C378 1.363 . S
C379 C385 1.428 . S
H380 C376 0.930 . S
H381 C378 0.929 . S
S382 N383 1.613 . S
S382 N384 1.610 . S
N383 S382 1.613 . S
N383 C386 1.350 . S
N384 S382 1.610 . S
N384 C385 1.351 . S
C385 C379 1.428 . S
C385 N384 1.351 . S
C385 C386 1.434 . S
C386 C377 1.429 . S
C386 N383 1.350 . S
C386 C385 1.434 . S
C387 C388 1.369 . S
C387 C389 1.419 . S
C387 H391 0.930 . S
C388 C387 1.369 . S
C388 C397 1.429 . S
C389 C387 1.419 . S
C389 C390 1.363 . S
C389 H392 0.929 . S
C390 C389 1.363 . S
C390 C396 1.428 . S
H391 C387 0.930 . S
H392 C389 0.929 . S
S393 N394 1.613 . S
S393 N395 1.610 . S
N394 S393 1.613 . S
N394 C397 1.350 . S
N395 S393 1.610 . S
N395 C396 1.351 . S
C396 C390 1.428 . S
C396 N395 1.351 . S
C396 C397 1.434 . S
C397 C388 1.429 . S
C397 N394 1.350 . S
C397 C396 1.434 . S
C398 C399 1.369 . S
C398 C400 1.419 . S
C398 H402 0.930 . S
C399 C398 1.369 . S
C399 C408 1.429 . S
C400 C398 1.419 . S
C400 C401 1.363 . S
C400 H403 0.929 . S
C401 C400 1.363 . S
C401 C407 1.428 . S
H402 C398 0.930 . S
H403 C400 0.929 . S
S404 N405 1.613 . S
S404 N406 1.610 . S
N405 S404 1.613 . S
N405 C408 1.350 . S
N406 S404 1.610 . S
N406 C407 1.351 . S
C407 C401 1.428 . S
C407 N406 1.351 . S
C407 C408 1.434 . S
C408 C399 1.429 . S
C408 N405 1.350 . S
C408 C407 1.434 . S
C409 C410 1.369 . S
C409 C411 1.419 . S
C409 H413 0.930 . S
C410 C409 1.369 . S
C410 C419 1.429 . S
C411 C409 1.419 . S
C411 C412 1.363 . S
C411 H414 0.929 . S
C412 C411 1.363 . S
C412 C418 1.428 . S
H413 C409 0.930 . S
H414 C411 0.929 . S
S415 N416 1.613 . S
S415 N417 1.610 . S
N416 S415 1.613 . S
N416 C419 1.350 . S
N417 S415 1.610 . S
N417 C418 1.351 . S
C418 C412 1.428 . S
C418 N417 1.351 . S
C418 C419 1.434 . S
C419 C410 1.429 . S
C419 N416 1.350 . S
C419 C418 1.434 . S
C420 C421 1.369 . S
C420 C422 1.419 . S
C420 H424 0.930 . S
C421 C420 1.369 . S
C421 C430 1.429 . S
C422 C420 1.419 . S
C422 C423 1.363 . S
C422 H425 0.929 . S
C423 C422 1.363 . S
C423 C429 1.428 . S
H424 C420 0.930 . S
H425 C422 0.929 . S
S426 N427 1.613 . S
S426 N428 1.610 . S
N427 S426 1.613 . S
N427 C430 1.350 . S
N428 S426 1.610 . S
N428 C429 1.351 . S
C429 C423 1.428 . S
C429 N428 1.351 . S
C429 C430 1.434 . S
C430 C421 1.429 . S
C430 N427 1.350 . S
C430 C429 1.434 . S
C431 C432 1.369 . S
C431 C433 1.419 . S
C431 H435 0.930 . S
C432 C431 1.369 . S
C432 C441 1.429 . S
C433 C431 1.419 . S
C433 C434 1.363 . S
C433 H436 0.929 . S
C434 C433 1.363 . S
C434 C440 1.428 . S
H435 C431 0.930 . S
H436 C433 0.929 . S
S437 N438 1.613 . S
S437 N439 1.610 . S
N438 S437 1.613 . S
N438 C441 1.350 . S
N439 S437 1.610 . S
N439 C440 1.351 . S
C440 C434 1.428 . S
C440 N439 1.351 . S
C440 C441 1.434 . S
C441 C432 1.429 . S
C441 N438 1.350 . S
C441 C440 1.434 . S
C442 C443 1.369 . S
C442 C444 1.419 . S
C442 H446 0.930 . S
C443 C442 1.369 . S
C443 C452 1.429 . S
C444 C442 1.419 . S
C444 C445 1.363 . S
C444 H447 0.929 . S
C445 C444 1.363 . S
C445 C451 1.428 . S
H446 C442 0.930 . S
H447 C444 0.929 . S
S448 N449 1.613 . S
S448 N450 1.610 . S
N449 S448 1.613 . S
N449 C452 1.350 . S
N450 S448 1.610 . S
N450 C451 1.351 . S
C451 C445 1.428 . S
C451 N450 1.351 . S
C451 C452 1.434 . S
C452 C443 1.429 . S
C452 N449 1.350 . S
C452 C451 1.434 . S
C453 C454 1.369 . S
C453 C455 1.419 . S
C453 H457 0.930 . S
C454 C453 1.369 . S
C454 C463 1.429 . S
C455 C453 1.419 . S
C455 C456 1.363 . S
C455 H458 0.929 . S
C456 C455 1.363 . S
C456 C462 1.428 . S
H457 C453 0.930 . S
H458 C455 0.929 . S
S459 N460 1.613 . S
S459 N461 1.610 . S
N460 S459 1.613 . S
N460 C463 1.350 . S
N461 S459 1.610 . S
N461 C462 1.351 . S
C462 C456 1.428 . S
C462 N461 1.351 . S
C462 C463 1.434 . S
C463 C454 1.429 . S
C463 N460 1.350 . S
C463 C462 1.434 . S
C201 C5 1.177 1_455 S
C203 N59 1.405 . S
C212 C45 1.819 1_545 S
C214 C123 1.775 . S
C223 N14 1.657 . S
C225 C93 1.922 1_455 S
C234 C132 1.393 . S
C236 C13 1.260 . S
C245 N9 1.403 . S
C247 C55 1.193 1_455 S
C256 C23 1.777 . S
C258 C145 1.820 1_545 S
C267 N64 1.654 . S
C269 C43 1.920 1_455 S
C278 C113 1.270 . S
C280 C32 1.390 . S
C289 C190 0.994 . S
C291 N25 1.037 . S
C300 C192 1.944 . S
C302 C11 2.026 . S
C311 C161 2.033 . S
C313 C42 1.940 . S
C322 C40 1.001 . S
C324 N175 1.042 . S
C333 C173 1.781 . S
C335 C95 1.822 . S
C344 C63 1.258 . S
C346 C182 1.394 . S
C355 C73 1.781 . S
C357 C195 1.816 . S
C366 C163 1.266 . S
C368 C82 1.390 . S
C377 C140 0.987 . S
C379 N75 1.034 . S
C388 C61 2.023 . S
C390 C142 1.944 . S
C399 C92 1.948 . S
C401 C111 2.028 . S
C410 N125 1.041 . S
C412 C90 0.999 . S
C421 N159 1.409 . S
C423 C105 1.180 . S
C432 N114 1.657 . S
C434 C193 1.924 . S
C443 C155 1.182 . S
C445 N109 1.406 . S
C454 C143 1.921 . S
C456 N164 1.656 . S
