# Generated by pormake.
# Topology gis, (4)-cn, num edge types: 1
# Building blocks:
#     Node 0, Type 0, BuildingBlock: ICAMEG_clean_sbu_1, # of connection points: 4
#     Node 1, Type 0, BuildingBlock: ICAMEG_clean_sbu_1, # of connection points: 4
#     Node 2, Type 0, BuildingBlock: ICAMEG_clean_sbu_1, # of connection points: 4
#     Node 3, Type 0, BuildingBlock: ICAMEG_clean_sbu_1, # of connection points: 4
#     Node 4, Type 0, BuildingBlock: ICAMEG_clean_sbu_1, # of connection points: 4
#     Node 5, Type 0, BuildingBlock: ICAMEG_clean_sbu_1, # of connection points: 4
#     Node 6, Type 0, BuildingBlock: ICAMEG_clean_sbu_1, # of connection points: 4
#     Node 7, Type 0, BuildingBlock: ICAMEG_clean_sbu_1, # of connection points: 4
#     Node 8, Type 0, BuildingBlock: ICAMEG_clean_sbu_1, # of connection points: 4
#     Node 9, Type 0, BuildingBlock: ICAMEG_clean_sbu_1, # of connection points: 4
#     Node 10, Type 0, BuildingBlock: ICAMEG_clean_sbu_1, # of connection points: 4
#     Node 11, Type 0, BuildingBlock: ICAMEG_clean_sbu_1, # of connection points: 4
#     Node 12, Type 0, BuildingBlock: ICAMEG_clean_sbu_1, # of connection points: 4
#     Node 13, Type 0, BuildingBlock: ICAMEG_clean_sbu_1, # of connection points: 4
#     Node 14, Type 0, BuildingBlock: ICAMEG_clean_sbu_1, # of connection points: 4
#     Node 15, Type 0, BuildingBlock: ICAMEG_clean_sbu_1, # of connection points: 4
#     Edge 16, Type (0, 0), BuildingBlock: XIVTED_clean_linker_0, # of connection points: 2
#     Edge 17, Type (0, 0), BuildingBlock: XIVTED_clean_linker_0, # of connection points: 2
#     Edge 18, Type (0, 0), BuildingBlock: XIVTED_clean_linker_0, # of connection points: 2
#     Edge 19, Type (0, 0), BuildingBlock: XIVTED_clean_linker_0, # of connection points: 2
#     Edge 20, Type (0, 0), BuildingBlock: XIVTED_clean_linker_0, # of connection points: 2
#     Edge 21, Type (0, 0), BuildingBlock: XIVTED_clean_linker_0, # of connection points: 2
#     Edge 22, Type (0, 0), BuildingBlock: XIVTED_clean_linker_0, # of connection points: 2
#     Edge 23, Type (0, 0), BuildingBlock: XIVTED_clean_linker_0, # of connection points: 2
#     Edge 24, Type (0, 0), BuildingBlock: XIVTED_clean_linker_0, # of connection points: 2
#     Edge 25, Type (0, 0), BuildingBlock: XIVTED_clean_linker_0, # of connection points: 2
#     Edge 26, Type (0, 0), BuildingBlock: XIVTED_clean_linker_0, # of connection points: 2
#     Edge 27, Type (0, 0), BuildingBlock: XIVTED_clean_linker_0, # of connection points: 2
#     Edge 28, Type (0, 0), BuildingBlock: XIVTED_clean_linker_0, # of connection points: 2
#     Edge 29, Type (0, 0), BuildingBlock: XIVTED_clean_linker_0, # of connection points: 2
#     Edge 30, Type (0, 0), BuildingBlock: XIVTED_clean_linker_0, # of connection points: 2
#     Edge 31, Type (0, 0), BuildingBlock: XIVTED_clean_linker_0, # of connection points: 2
#     Edge 32, Type (0, 0), BuildingBlock: XIVTED_clean_linker_0, # of connection points: 2
#     Edge 33, Type (0, 0), BuildingBlock: XIVTED_clean_linker_0, # of connection points: 2
#     Edge 34, Type (0, 0), BuildingBlock: XIVTED_clean_linker_0, # of connection points: 2
#     Edge 35, Type (0, 0), BuildingBlock: XIVTED_clean_linker_0, # of connection points: 2
#     Edge 36, Type (0, 0), BuildingBlock: XIVTED_clean_linker_0, # of connection points: 2
#     Edge 37, Type (0, 0), BuildingBlock: XIVTED_clean_linker_0, # of connection points: 2
#     Edge 38, Type (0, 0), BuildingBlock: XIVTED_clean_linker_0, # of connection points: 2
#     Edge 39, Type (0, 0), BuildingBlock: XIVTED_clean_linker_0, # of connection points: 2
#     Edge 40, Type (0, 0), BuildingBlock: XIVTED_clean_linker_0, # of connection points: 2
#     Edge 41, Type (0, 0), BuildingBlock: XIVTED_clean_linker_0, # of connection points: 2
#     Edge 42, Type (0, 0), BuildingBlock: XIVTED_clean_linker_0, # of connection points: 2
#     Edge 43, Type (0, 0), BuildingBlock: XIVTED_clean_linker_0, # of connection points: 2
#     Edge 44, Type (0, 0), BuildingBlock: XIVTED_clean_linker_0, # of connection points: 2
#     Edge 45, Type (0, 0), BuildingBlock: XIVTED_clean_linker_0, # of connection points: 2
#     Edge 46, Type (0, 0), BuildingBlock: XIVTED_clean_linker_0, # of connection points: 2
#     Edge 47, Type (0, 0), BuildingBlock: XIVTED_clean_linker_0, # of connection points: 2
# Relax obj value: 0.027
# Max RMSD: 0.089
# Mean RMSD: 0.088
data_MOF--net-gis--node1-ICAMEG_clean_sbu_1--edge1-XIVTED_clean_linker_0
_symmetry_space_group_name_H-M    P1
_symmetry_Int_Tables_number       1
_symmetry_cell_setting            triclinic
loop_
_symmetry_equiv_pos_as_xyz
'x, y, z'
_cell_length_a     58.579552
_cell_length_b     58.554968
_cell_length_c     35.823713
_cell_angle_alpha  90.084866
_cell_angle_beta   90.049336
_cell_angle_gamma 90.00249
loop_
_atom_site_label
_atom_site_type_symbol
_atom_site_fract_x
_atom_site_fract_y
_atom_site_fract_z
_atom_type_partial_charge
Co0 Co 0.12674 0.61956 0.07727 0.0
Co1 Co 0.12361 0.61617 0.17363 0.0
O2 O 0.13618 0.60692 0.12536 0.0
C3 C 0.11826 0.5702 0.07022 0.0
O4 O 0.10954 0.57106 0.10392 0.0
C5 C 0.1729 0.62487 0.18042 0.0
O6 O 0.17196 0.63366 0.14677 0.0
O7 O 0.12663 0.64916 0.16102 0.0
O8 O 0.1269 0.65105 0.09836 0.0
H9 H 0.07222 0.66075 0.25909 0.0
H10 H 0.16691 0.58889 0.08112 0.0
O11 O 0.12624 0.58818 0.05512 0.0
H12 H 0.19624 0.66181 0.0319 0.0
H13 H 0.1282 0.62557 0.93712 0.0
H14 H 0.09376 0.65502 0.05317 0.0
H15 H 0.15535 0.65724 0.0464 0.0
H16 H 0.13989 0.61022 0.99833 0.0
O17 O 0.15501 0.61675 0.19555 0.0
H18 H 0.08809 0.64894 0.19828 0.0
H19 H 0.13318 0.60281 0.25238 0.0
H20 H 0.0817 0.67099 0.99259 0.0
H21 H 0.20791 0.59265 0.0667 0.0
H22 H 0.09898 0.65624 0.93401 0.0
H23 H 0.22283 0.62935 0.04203 0.0
O24 O 0.09381 0.61636 0.09013 0.0
H25 H 0.1509 0.53505 0.18323 0.0
H26 H 0.08616 0.58728 0.20453 0.0
H27 H 0.08181 0.5463 0.21866 0.0
H28 H 0.11434 0.51988 0.20802 0.0
H29 H 0.15444 0.57613 0.16919 0.0
H30 H 0.11794 0.61425 0.3138 0.0
H31 H 0.08717 0.64336 0.3174 0.0
O32 O 0.0921 0.61592 0.15279 0.0
C33 C 0.12713 0.66038 0.13054 0.0
C34 C 0.08557 0.648 0.25788 0.0
C35 C 0.11126 0.62193 0.28859 0.0
N36 N 0.1114 0.62508 0.22178 0.0
C37 C 0.09458 0.6412 0.22353 0.0
C38 C 0.11985 0.61555 0.25374 0.0
C39 C 0.09399 0.63825 0.29059 0.0
C40 C 0.17324 0.60483 0.07003 0.0
N41 N 0.15874 0.62278 0.06445 0.0
C42 C 0.19649 0.6069 0.06207 0.0
C43 C 0.20485 0.6275 0.04828 0.0
C44 C 0.18995 0.64573 0.04261 0.0
C45 C 0.16681 0.64305 0.05095 0.0
C46 C 0.12058 0.63216 0.96245 0.0
C47 C 0.10145 0.64862 0.02781 0.0
C48 C 0.1271 0.62351 0.99717 0.0
N49 N 0.11763 0.63185 0.02928 0.0
C50 C 0.09451 0.65768 0.99358 0.0
C51 C 0.10419 0.64938 0.96073 0.0
C52 C 0.08269 0.61574 0.1207 0.0
C53 C 0.13662 0.5464 0.18808 0.0
C54 C 0.10038 0.57589 0.19977 0.0
C55 C 0.09783 0.55271 0.20789 0.0
C56 C 0.11609 0.5379 0.20194 0.0
N57 N 0.12057 0.5841 0.18619 0.0
C58 C 0.13856 0.56969 0.18034 0.0
Co59 Co 0.62727 0.87391 0.42264 0.0
Co60 Co 0.62467 0.87757 0.32624 0.0
O61 O 0.63704 0.88661 0.37479 0.0
C62 C 0.61887 0.92324 0.42979 0.0
O63 O 0.61037 0.92244 0.39591 0.0
C64 C 0.67395 0.86847 0.32033 0.0
O65 O 0.67273 0.85968 0.35394 0.0
O66 O 0.62731 0.84452 0.33871 0.0
O67 O 0.62741 0.8425 0.40136 0.0
H68 H 0.57331 0.83369 0.23962 0.0
H69 H 0.66759 0.90444 0.41971 0.0
O70 O 0.62676 0.90524 0.44495 0.0
H71 H 0.69634 0.83127 0.46893 0.0
H72 H 0.62795 0.86759 0.56277 0.0
H73 H 0.59402 0.83852 0.44595 0.0
H74 H 0.65555 0.83605 0.45376 0.0
H75 H 0.64002 0.88303 0.50186 0.0
O76 O 0.6562 0.87674 0.30488 0.0
H77 H 0.58897 0.84519 0.30077 0.0
H78 H 0.63482 0.89099 0.24775 0.0
H79 H 0.58159 0.82245 0.50622 0.0
H80 H 0.70849 0.90047 0.43479 0.0
H81 H 0.5986 0.837 0.56518 0.0
H82 H 0.72312 0.86364 0.45947 0.0
O83 O 0.59443 0.87726 0.40921 0.0
H84 H 0.65276 0.95845 0.31766 0.0
H85 H 0.58766 0.90687 0.29485 0.0
H86 H 0.58377 0.94792 0.28092 0.0
H87 H 0.61649 0.97401 0.29232 0.0
H88 H 0.65585 0.91731 0.33148 0.0
H89 H 0.6198 0.87985 0.18599 0.0
H90 H 0.58874 0.85107 0.18168 0.0
O91 O 0.59304 0.87805 0.34653 0.0
C92 C 0.62763 0.83323 0.36913 0.0
C93 C 0.58679 0.8463 0.24114 0.0
C94 C 0.6129 0.87218 0.21104 0.0
N95 N 0.61265 0.86887 0.27782 0.0
C96 C 0.59567 0.85292 0.27569 0.0
C97 C 0.62137 0.87839 0.24607 0.0
C98 C 0.59547 0.85604 0.20864 0.0
C99 C 0.67379 0.88844 0.43079 0.0
N100 N 0.65918 0.87054 0.43601 0.0
C101 C 0.69698 0.88626 0.43913 0.0
C102 C 0.70519 0.86558 0.45293 0.0
C103 C 0.69017 0.84741 0.45822 0.0
C104 C 0.6671 0.8502 0.44951 0.0
C105 C 0.62044 0.86108 0.53727 0.0
C106 C 0.60159 0.84484 0.47148 0.0
C107 C 0.62717 0.86979 0.50271 0.0
N108 N 0.61785 0.86156 0.47039 0.0
C109 C 0.59444 0.83572 0.50553 0.0
C110 C 0.60398 0.84391 0.5386 0.0
C111 C 0.58346 0.87811 0.37847 0.0
C112 C 0.63841 0.94724 0.31248 0.0
C113 C 0.60196 0.91812 0.29994 0.0
C114 C 0.59967 0.94134 0.29193 0.0
C115 C 0.61804 0.95597 0.29831 0.0
N116 N 0.622 0.90969 0.31382 0.0
C117 C 0.64009 0.92392 0.32009 0.0
Co118 Co 0.37052 0.37689 0.67727 0.0
Co119 Co 0.36749 0.3741 0.58081 0.0
O120 O 0.35798 0.38643 0.62913 0.0
C121 C 0.32127 0.3679 0.68357 0.0
O122 O 0.32231 0.35936 0.64973 0.0
C123 C 0.37581 0.42354 0.57463 0.0
O124 O 0.3844 0.42265 0.60845 0.0
O125 O 0.4004 0.37734 0.59392 0.0
O126 O 0.40204 0.37743 0.65661 0.0
H127 H 0.41278 0.32331 0.49535 0.0
H128 H 0.33952 0.41682 0.67356 0.0
O129 O 0.33911 0.37602 0.69899 0.0
H130 H 0.41196 0.44662 0.72422 0.0
H131 H 0.37604 0.37786 0.81751 0.0
H132 H 0.40619 0.34414 0.70135 0.0
H133 H 0.40781 0.40573 0.70908 0.0
H134 H 0.36079 0.38965 0.75627 0.0
O135 O 0.36792 0.40558 0.55926 0.0
H136 H 0.40063 0.3389 0.55619 0.0
H137 H 0.35436 0.38381 0.50199 0.0
H138 H 0.42207 0.332 0.76197 0.0
H139 H 0.34286 0.45782 0.6886 0.0
H140 H 0.40697 0.34891 0.8206 0.0
H141 H 0.37932 0.47297 0.714 0.0
O142 O 0.36765 0.34396 0.66391 0.0
H143 H 0.28625 0.40083 0.57049 0.0
H144 H 0.33901 0.33653 0.54899 0.0
H145 H 0.29814 0.33193 0.53425 0.0
H146 H 0.27145 0.36424 0.54498 0.0
H147 H 0.32723 0.40463 0.58513 0.0
H148 H 0.36614 0.36885 0.44055 0.0
H149 H 0.39549 0.3383 0.43698 0.0
O150 O 0.36739 0.34251 0.60123 0.0
C151 C 0.4115 0.37786 0.62457 0.0
C152 C 0.39993 0.33656 0.49655 0.0
C153 C 0.37377 0.36214 0.46578 0.0
N154 N 0.37668 0.36211 0.53263 0.0
C155 C 0.39293 0.34541 0.53091 0.0
C156 C 0.3672 0.37059 0.50064 0.0
C157 C 0.39024 0.345 0.46381 0.0
C158 C 0.35536 0.42326 0.68496 0.0
N159 N 0.37341 0.40889 0.69059 0.0
C160 C 0.35719 0.4465 0.69327 0.0
C161 C 0.37766 0.45499 0.70747 0.0
C162 C 0.39598 0.44022 0.71318 0.0
C163 C 0.39355 0.41709 0.70449 0.0
C164 C 0.38279 0.3704 0.79216 0.0
C165 C 0.39963 0.35167 0.72674 0.0
C166 C 0.37419 0.37697 0.75741 0.0
N167 N 0.38272 0.36771 0.72528 0.0
C168 C 0.40864 0.34468 0.76098 0.0
C169 C 0.40015 0.35416 0.79387 0.0
C170 C 0.36717 0.33295 0.63317 0.0
C171 C 0.29772 0.38665 0.56559 0.0
C172 C 0.3275 0.35065 0.5538 0.0
C173 C 0.30438 0.34796 0.54533 0.0
C174 C 0.28942 0.3661 0.55133 0.0
N175 N 0.33551 0.37086 0.56776 0.0
C176 C 0.32095 0.38873 0.57368 0.0
Co177 Co 0.86973 0.11826 0.8261 0.0
Co178 Co 0.86738 0.1207 0.92262 0.0
O179 O 0.85754 0.1085 0.87435 0.0
C180 C 0.82035 0.12695 0.82046 0.0
O181 O 0.82151 0.13544 0.85433 0.0
C182 C 0.87568 0.07124 0.92862 0.0
O183 O 0.88413 0.07208 0.89473 0.0
O184 O 0.9002 0.1174 0.90903 0.0
O185 O 0.9014 0.11782 0.84632 0.0
H186 H 0.91331 0.1712 0.00775 0.0
H187 H 0.83898 0.07813 0.82993 0.0
O188 O 0.83816 0.119 0.80479 0.0
H189 H 0.91125 0.04892 0.77796 0.0
H190 H 0.87441 0.11773 0.68579 0.0
H191 H 0.90507 0.15128 0.8018 0.0
H192 H 0.90698 0.08973 0.79353 0.0
H193 H 0.85959 0.10568 0.74713 0.0
O194 O 0.86785 0.0892 0.94401 0.0
H195 H 0.90075 0.15575 0.947 0.0
H196 H 0.85467 0.11086 0.00157 0.0
H197 H 0.92052 0.16368 0.74108 0.0
H198 H 0.84245 0.03721 0.81445 0.0
H199 H 0.90516 0.14686 0.68252 0.0
H200 H 0.87882 0.02235 0.78839 0.0
O201 O 0.86676 0.15114 0.83976 0.0
H202 H 0.78613 0.09414 0.9338 0.0
H203 H 0.83917 0.15825 0.95509 0.0
H204 H 0.79839 0.16291 0.97036 0.0
H205 H 0.77156 0.1307 0.95973 0.0
H206 H 0.82702 0.09028 0.91863 0.0
H207 H 0.86687 0.12568 0.06293 0.0
H208 H 0.89632 0.15614 0.06627 0.0
O209 O 0.86722 0.15232 0.90244 0.0
C210 C 0.91108 0.11714 0.8782 0.0
C211 C 0.90041 0.15797 0.00666 0.0
C212 C 0.87437 0.13241 0.03763 0.0
N213 N 0.87688 0.13256 0.97075 0.0
C214 C 0.89319 0.14921 0.97234 0.0
C215 C 0.86757 0.12405 0.00281 0.0
C216 C 0.89089 0.1495 0.03948 0.0
C217 C 0.85478 0.07183 0.81825 0.0
N218 N 0.87272 0.08632 0.81249 0.0
C219 C 0.85668 0.04863 0.80969 0.0
C220 C 0.8771 0.0403 0.79512 0.0
C221 C 0.89531 0.05519 0.78928 0.0
C222 C 0.89281 0.07828 0.79823 0.0
C223 C 0.88126 0.12515 0.71111 0.0
C224 C 0.8984 0.14379 0.77644 0.0
C225 C 0.87291 0.11844 0.74591 0.0
N226 N 0.88158 0.12766 0.778 0.0
C227 C 0.90717 0.15093 0.74214 0.0
C228 C 0.89853 0.1415 0.70929 0.0
C229 C 0.86663 0.16201 0.87064 0.0
C230 C 0.79766 0.10828 0.93865 0.0
C231 C 0.8276 0.14417 0.95032 0.0
C232 C 0.80453 0.14689 0.95909 0.0
C233 C 0.78949 0.12881 0.95315 0.0
N234 N 0.83548 0.12398 0.93611 0.0
C235 C 0.82084 0.10616 0.93027 0.0
Co236 Co 0.12561 0.37242 0.92374 0.0
Co237 Co 0.1233 0.37562 0.8273 0.0
O238 O 0.13556 0.38488 0.87581 0.0
C239 C 0.11765 0.42189 0.93047 0.0
O240 O 0.10914 0.42111 0.8966 0.0
C241 C 0.17263 0.36676 0.82145 0.0
O242 O 0.17153 0.35799 0.8551 0.0
O243 O 0.12611 0.34264 0.84011 0.0
O244 O 0.12558 0.3409 0.90278 0.0
H245 H 0.0723 0.33114 0.74093 0.0
H246 H 0.16617 0.40261 0.9207 0.0
O247 O 0.12531 0.40383 0.94577 0.0
H248 H 0.19425 0.32945 0.97093 0.0
H249 H 0.12594 0.36659 0.06393 0.0
H250 H 0.09204 0.33737 0.9472 0.0
H251 H 0.15353 0.33447 0.95544 0.0
H252 H 0.13826 0.38172 0.00295 0.0
O253 O 0.15483 0.3749 0.80605 0.0
H254 H 0.08782 0.34295 0.80202 0.0
H255 H 0.13346 0.38883 0.7487 0.0
H256 H 0.07935 0.32162 0.00756 0.0
H257 H 0.207 0.3984 0.9361 0.0
H258 H 0.09635 0.33625 0.06648 0.0
H259 H 0.22129 0.36158 0.96129 0.0
O260 O 0.09281 0.37598 0.91011 0.0
H261 H 0.151 0.45661 0.81805 0.0
H262 H 0.08621 0.40462 0.79542 0.0
H263 H 0.08214 0.4456 0.78105 0.0
H264 H 0.1147 0.4719 0.79236 0.0
H265 H 0.15426 0.41554 0.83231 0.0
H266 H 0.11858 0.37737 0.68701 0.0
H267 H 0.08771 0.3484 0.68288 0.0
O268 O 0.09165 0.37604 0.84741 0.0
C269 C 0.12615 0.33148 0.87068 0.0
C270 C 0.0857 0.34383 0.74237 0.0
C271 C 0.1117 0.36976 0.71211 0.0
N272 N 0.11139 0.36669 0.77892 0.0
C273 C 0.09451 0.35063 0.77688 0.0
C274 C 0.12009 0.37614 0.7471 0.0
C275 C 0.09437 0.3535 0.70981 0.0
C276 C 0.17222 0.38662 0.932 0.0
N277 N 0.15747 0.36885 0.93732 0.0
C278 C 0.19538 0.3843 0.94052 0.0
C279 C 0.20339 0.36362 0.9546 0.0
C280 C 0.18823 0.34558 0.95999 0.0
C281 C 0.1652 0.34851 0.95109 0.0
C282 C 0.11844 0.36005 0.03845 0.0
C283 C 0.09961 0.34372 0.97272 0.0
C284 C 0.12531 0.36858 0.00385 0.0
N285 N 0.11599 0.36031 0.97156 0.0
C286 C 0.09231 0.33478 0.00681 0.0
C287 C 0.10184 0.34302 0.03986 0.0
C288 C 0.08196 0.37651 0.87924 0.0
C289 C 0.13671 0.44531 0.81291 0.0
C290 C 0.10043 0.41596 0.80048 0.0
C291 C 0.09805 0.43914 0.79222 0.0
C292 C 0.11633 0.45389 0.79855 0.0
N293 N 0.12048 0.40768 0.81455 0.0
C294 C 0.13849 0.42203 0.82078 0.0
Co295 Co 0.86878 0.87437 0.07691 0.0
Co296 Co 0.8706 0.87782 0.17338 0.0
O297 O 0.85862 0.887 0.12467 0.0
C298 C 0.87693 0.92378 0.06995 0.0
O299 O 0.88526 0.92318 0.10395 0.0
C300 C 0.82124 0.86893 0.17848 0.0
O301 O 0.82257 0.86017 0.1448 0.0
O302 O 0.86785 0.84479 0.16058 0.0
O303 O 0.86863 0.84295 0.09794 0.0
H304 H 0.92111 0.8335 0.26054 0.0
H305 H 0.82829 0.90468 0.07935 0.0
O306 O 0.86926 0.90567 0.05476 0.0
H307 H 0.80024 0.83144 0.029 0.0
H308 H 0.86912 0.86809 0.93674 0.0
H309 H 0.9024 0.8392 0.05402 0.0
H310 H 0.8409 0.8364 0.04495 0.0
H311 H 0.85651 0.88342 0.9975 0.0
O312 O 0.83894 0.87713 0.19419 0.0
H313 H 0.90594 0.84519 0.19921 0.0
H314 H 0.86001 0.89119 0.25182 0.0
H315 H 0.91538 0.82324 0.9939 0.0
H316 H 0.78751 0.90052 0.06348 0.0
H317 H 0.89869 0.83771 0.9347 0.0
H318 H 0.77324 0.86366 0.03824 0.0
O319 O 0.90151 0.87789 0.09099 0.0
H320 H 0.84289 0.95883 0.18225 0.0
H321 H 0.90755 0.90686 0.20575 0.0
H322 H 0.91156 0.94786 0.2202 0.0
H323 H 0.87906 0.97415 0.20846 0.0
H324 H 0.83969 0.91773 0.16793 0.0
H325 H 0.87455 0.87986 0.31374 0.0
H326 H 0.90539 0.85089 0.31835 0.0
O327 O 0.90237 0.87817 0.15371 0.0
C328 C 0.86792 0.83359 0.13002 0.0
C329 C 0.90772 0.84619 0.25889 0.0
C330 C 0.88156 0.87219 0.28875 0.0
N331 N 0.88224 0.86898 0.22195 0.0
C332 C 0.89911 0.85293 0.22424 0.0
C333 C 0.87337 0.8785 0.25362 0.0
C334 C 0.89888 0.85594 0.29132 0.0
C335 C 0.82224 0.88866 0.06802 0.0
N336 N 0.83698 0.87084 0.06293 0.0
C337 C 0.79912 0.88638 0.05924 0.0
C338 C 0.79112 0.86568 0.04513 0.0
C339 C 0.80625 0.84759 0.03996 0.0
C340 C 0.82926 0.85048 0.04912 0.0
C341 C 0.87649 0.86162 0.96234 0.0
C342 C 0.89497 0.84548 0.02838 0.0
C343 C 0.86946 0.87027 0.99682 0.0
N344 N 0.8786 0.86208 0.02926 0.0
C345 C 0.90243 0.83643 0.99442 0.0
C346 C 0.89308 0.84457 0.96122 0.0
C347 C 0.91222 0.87849 0.122 0.0
C348 C 0.85715 0.94754 0.18758 0.0
C349 C 0.89335 0.9182 0.20049 0.0
C350 C 0.8957 0.94139 0.2088 0.0
C351 C 0.87746 0.95613 0.20224 0.0
N352 N 0.87337 0.9099 0.18615 0.0
C353 C 0.8554 0.92424 0.17968 0.0
Co354 Co 0.37048 0.61601 0.32629 0.0
Co355 Co 0.36754 0.61893 0.42272 0.0
O356 O 0.35795 0.60656 0.37445 0.0
C357 C 0.32119 0.62486 0.31976 0.0
O358 O 0.32215 0.63351 0.35354 0.0
C359 C 0.37575 0.56949 0.42909 0.0
O360 O 0.38437 0.57036 0.39531 0.0
O361 O 0.40043 0.61556 0.40968 0.0
O362 O 0.402 0.61555 0.347 0.0
H363 H 0.41307 0.66966 0.50807 0.0
H364 H 0.33952 0.57605 0.33015 0.0
O365 O 0.33906 0.61678 0.30448 0.0
H366 H 0.41197 0.54624 0.27976 0.0
H367 H 0.37597 0.61477 0.18606 0.0
H368 H 0.40608 0.64878 0.30211 0.0
H369 H 0.40778 0.58716 0.29468 0.0
H370 H 0.36076 0.60307 0.24732 0.0
O371 O 0.36787 0.58747 0.44439 0.0
H372 H 0.40082 0.65403 0.44728 0.0
H373 H 0.3544 0.60938 0.50156 0.0
H374 H 0.42192 0.66084 0.24146 0.0
H375 H 0.3429 0.53503 0.31532 0.0
H376 H 0.40684 0.64378 0.18289 0.0
H377 H 0.37936 0.51988 0.29005 0.0
O378 O 0.36758 0.64896 0.33949 0.0
H379 H 0.28621 0.5925 0.43307 0.0
H380 H 0.33921 0.65665 0.45429 0.0
H381 H 0.29836 0.66143 0.46895 0.0
H382 H 0.27155 0.62919 0.45835 0.0
H383 H 0.32717 0.58853 0.41851 0.0
H384 H 0.36627 0.62439 0.56296 0.0
H385 H 0.39574 0.65482 0.56647 0.0
O386 O 0.36756 0.65049 0.40218 0.0
C387 C 0.41149 0.61509 0.37903 0.0
C388 C 0.40016 0.65646 0.5069 0.0
C389 C 0.37391 0.63102 0.53772 0.0
N390 N 0.37679 0.63095 0.47088 0.0
C391 C 0.39312 0.64759 0.47256 0.0
C392 C 0.3673 0.62256 0.50288 0.0
C393 C 0.39045 0.6481 0.53966 0.0
C394 C 0.35537 0.56961 0.31881 0.0
N395 N 0.3734 0.58399 0.31314 0.0
C396 C 0.35721 0.54636 0.31062 0.0
C397 C 0.37768 0.53786 0.29649 0.0
C398 C 0.39599 0.55264 0.29073 0.0
C399 C 0.39354 0.57579 0.29931 0.0
C400 C 0.38271 0.6223 0.21139 0.0
C401 C 0.39953 0.64119 0.27674 0.0
C402 C 0.37413 0.61578 0.24615 0.0
N403 N 0.38265 0.62512 0.27825 0.0
C404 C 0.40852 0.64813 0.24249 0.0
C405 C 0.40004 0.63857 0.20963 0.0
C406 C 0.36727 0.66001 0.3702 0.0
C407 C 0.29773 0.60665 0.4379 0.0
C408 C 0.32765 0.64256 0.44954 0.0
C409 C 0.30454 0.64535 0.45797 0.0
C410 C 0.28951 0.62725 0.45204 0.0
N411 N 0.33558 0.6223 0.43571 0.0
C412 C 0.32095 0.60447 0.42987 0.0
Co413 Co 0.62371 0.11843 0.67241 0.0
Co414 Co 0.62583 0.1209 0.57591 0.0
O415 O 0.63577 0.10868 0.62404 0.0
C416 C 0.67313 0.12695 0.67788 0.0
O417 O 0.67194 0.13548 0.64408 0.0
C418 C 0.6176 0.07142 0.5698 0.0
O419 O 0.60914 0.07231 0.60368 0.0
O420 O 0.59303 0.11761 0.58966 0.0
O421 O 0.592 0.11815 0.65237 0.0
H422 H 0.57977 0.17147 0.49131 0.0
H423 H 0.65429 0.07819 0.66813 0.0
O424 O 0.65532 0.11903 0.69356 0.0
H425 H 0.58198 0.04919 0.72012 0.0
H426 H 0.61931 0.11777 0.81275 0.0
H427 H 0.58857 0.15158 0.69715 0.0
H428 H 0.58641 0.09001 0.70493 0.0
H429 H 0.63394 0.10571 0.75123 0.0
O430 O 0.62533 0.0894 0.55438 0.0
H431 H 0.59243 0.15599 0.5519 0.0
H432 H 0.63833 0.11106 0.49684 0.0
H433 H 0.57331 0.164 0.75806 0.0
H434 H 0.65066 0.03725 0.6832 0.0
H435 H 0.5887 0.14704 0.8164 0.0
H436 H 0.61427 0.0225 0.70927 0.0
O437 O 0.62678 0.1513 0.65897 0.0
H438 H 0.70704 0.09434 0.56398 0.0
H439 H 0.65395 0.15847 0.5435 0.0
H440 H 0.69468 0.16314 0.52792 0.0
H441 H 0.72153 0.13091 0.53813 0.0
H442 H 0.6662 0.09049 0.57946 0.0
H443 H 0.62603 0.1259 0.43562 0.0
H444 H 0.59661 0.1564 0.43262 0.0
O445 O 0.62602 0.15252 0.59629 0.0
C446 C 0.58223 0.11747 0.62057 0.0
C447 C 0.59265 0.15823 0.49226 0.0
C448 C 0.61859 0.13263 0.461 0.0
N449 N 0.61622 0.13278 0.5279 0.0
C450 C 0.59993 0.14945 0.52649 0.0
C451 C 0.62545 0.12426 0.49573 0.0
C452 C 0.60209 0.14975 0.45934 0.0
C453 C 0.63848 0.07193 0.67982 0.0
N454 N 0.62062 0.08649 0.68579 0.0
C455 C 0.63649 0.04872 0.68815 0.0
C456 C 0.61606 0.04045 0.70273 0.0
C457 C 0.59793 0.05541 0.70879 0.0
C458 C 0.60052 0.07851 0.70007 0.0
C459 C 0.61243 0.12525 0.78752 0.0
C460 C 0.59525 0.14404 0.72242 0.0
C461 C 0.62068 0.11853 0.75262 0.0
N462 N 0.61199 0.12782 0.72065 0.0
C463 C 0.58659 0.15118 0.75682 0.0
C464 C 0.59526 0.14167 0.78955 0.0
C465 C 0.62677 0.1622 0.62817 0.0
C466 C 0.6955 0.10849 0.55931 0.0
C467 C 0.66553 0.14439 0.5481 0.0
C468 C 0.68857 0.14711 0.53915 0.0
C469 C 0.70363 0.12902 0.54486 0.0
N470 N 0.65769 0.12419 0.56225 0.0
C471 C 0.67234 0.10637 0.56787 0.0
Co472 Co 0.86662 0.37436 0.92365 0.0
Co473 Co 0.86965 0.37751 0.82726 0.0
O474 O 0.85719 0.3869 0.8755 0.0
C475 C 0.87556 0.42362 0.92989 0.0
O476 O 0.8842 0.42241 0.89616 0.0
C477 C 0.82034 0.36883 0.82101 0.0
O478 O 0.82142 0.3602 0.85475 0.0
O479 O 0.86666 0.34456 0.84017 0.0
O480 O 0.86616 0.34281 0.90285 0.0
H481 H 0.92086 0.33267 0.74187 0.0
H482 H 0.8267 0.40536 0.91973 0.0
O483 O 0.86745 0.40583 0.94541 0.0
H484 H 0.79686 0.33287 0.96977 0.0
H485 H 0.8654 0.36893 0.06387 0.0
H486 H 0.89932 0.33869 0.94795 0.0
H487 H 0.83776 0.33704 0.95502 0.0
H488 H 0.85373 0.38414 0.00256 0.0
O489 O 0.83819 0.37685 0.80557 0.0
H490 H 0.90513 0.34466 0.80267 0.0
H491 H 0.85989 0.39061 0.74847 0.0
H492 H 0.91135 0.32285 0.00864 0.0
H493 H 0.7857 0.40199 0.93438 0.0
H494 H 0.89434 0.33799 0.06715 0.0
H495 H 0.77053 0.36551 0.95947 0.0
O496 O 0.89955 0.37721 0.9106 0.0
H497 H 0.84236 0.45861 0.81727 0.0
H498 H 0.90703 0.40629 0.79591 0.0
H499 H 0.91137 0.44724 0.78151 0.0
H500 H 0.87888 0.4737 0.79219 0.0
H501 H 0.83883 0.41756 0.83157 0.0
H502 H 0.875 0.37898 0.68705 0.0
H503 H 0.90578 0.34988 0.6835 0.0
O504 O 0.90121 0.37781 0.84793 0.0
C505 C 0.86602 0.33341 0.87071 0.0
C506 C 0.9075 0.34542 0.74305 0.0
C507 C 0.88174 0.37139 0.71228 0.0
N508 N 0.88175 0.36844 0.77911 0.0
C509 C 0.89858 0.35232 0.7774 0.0
C510 C 0.87322 0.37787 0.74713 0.0
C511 C 0.89901 0.35506 0.71032 0.0
C512 C 0.82026 0.38951 0.931 0.0
N513 N 0.83462 0.37146 0.93668 0.0
C514 C 0.79701 0.38767 0.93909 0.0
C515 C 0.78851 0.36718 0.95311 0.0
C516 C 0.80327 0.34886 0.95888 0.0
C517 C 0.82641 0.35131 0.9504 0.0
C518 C 0.8729 0.36216 0.03856 0.0
C519 C 0.89175 0.34526 0.97328 0.0
C520 C 0.8664 0.37074 0.00378 0.0
N521 N 0.87572 0.36218 0.97172 0.0
C522 C 0.89867 0.33627 0.00757 0.0
C523 C 0.88914 0.3448 0.04038 0.0
C524 C 0.91065 0.37786 0.88001 0.0
C525 C 0.85662 0.44724 0.8124 0.0
C526 C 0.89283 0.4177 0.80068 0.0
C527 C 0.89537 0.44087 0.7924 0.0
C528 C 0.87713 0.4557 0.79838 0.0
N529 N 0.87266 0.40953 0.81441 0.0
C530 C 0.85469 0.42397 0.82029 0.0
Co531 Co 0.36664 0.12038 0.57678 0.0
Co532 Co 0.37001 0.11764 0.67319 0.0
O533 O 0.35738 0.10799 0.62513 0.0
C534 C 0.37528 0.07101 0.57037 0.0
O535 O 0.3841 0.07206 0.60402 0.0
C536 C 0.32061 0.12592 0.6802 0.0
O537 O 0.32134 0.13456 0.64644 0.0
O538 O 0.36667 0.15053 0.66006 0.0
O539 O 0.36645 0.15197 0.59737 0.0
H540 H 0.42127 0.16318 0.75766 0.0
H541 H 0.32658 0.08961 0.58132 0.0
O542 O 0.36717 0.08888 0.5551 0.0
H543 H 0.29687 0.16214 0.53112 0.0
H544 H 0.36472 0.12561 0.43656 0.0
H545 H 0.39944 0.15581 0.55197 0.0
H546 H 0.33783 0.15778 0.54547 0.0
H547 H 0.35328 0.11055 0.49805 0.0
O548 O 0.33866 0.11806 0.69529 0.0
H549 H 0.40532 0.15087 0.69713 0.0
H550 H 0.36079 0.10467 0.7522 0.0
H551 H 0.41123 0.17149 0.49109 0.0
H552 H 0.28552 0.09315 0.56706 0.0
H553 H 0.39382 0.15637 0.43283 0.0
H554 H 0.27042 0.12966 0.54189 0.0
O555 O 0.39963 0.11735 0.58953 0.0
H556 H 0.34345 0.03635 0.68423 0.0
H557 H 0.4078 0.08927 0.70436 0.0
H558 H 0.41255 0.04842 0.71912 0.0
H559 H 0.38021 0.02165 0.70908 0.0
H560 H 0.33951 0.07731 0.66955 0.0
H561 H 0.37612 0.11661 0.81336 0.0
H562 H 0.40665 0.146 0.81632 0.0
O563 O 0.40147 0.11754 0.6522 0.0
C564 C 0.36615 0.16153 0.62936 0.0
C565 C 0.40802 0.15031 0.75672 0.0
C566 C 0.38266 0.12419 0.78799 0.0
N567 N 0.38228 0.12695 0.72114 0.0
C568 C 0.39897 0.14322 0.72253 0.0
C569 C 0.37401 0.11754 0.75329 0.0
C570 C 0.39979 0.14068 0.78963 0.0
C571 C 0.32016 0.10546 0.57002 0.0
N572 N 0.33459 0.12342 0.56408 0.0
C573 C 0.29689 0.10741 0.56215 0.0
C574 C 0.28842 0.1279 0.54808 0.0
C575 C 0.30325 0.14614 0.54205 0.0
C576 C 0.32642 0.14359 0.5503 0.0
C577 C 0.3724 0.13236 0.46175 0.0
C578 C 0.39169 0.14924 0.52675 0.0
C579 C 0.36603 0.12387 0.49663 0.0
N580 N 0.37557 0.13242 0.52856 0.0
C581 C 0.39848 0.15814 0.49236 0.0
C582 C 0.38872 0.14963 0.45968 0.0
C583 C 0.41083 0.1171 0.62008 0.0
C584 C 0.35764 0.04785 0.68882 0.0
C585 C 0.39367 0.07773 0.69985 0.0
C586 C 0.39644 0.05462 0.70833 0.0
C587 C 0.37828 0.03961 0.70271 0.0
N588 N 0.37336 0.08568 0.68625 0.0
C589 C 0.35548 0.07108 0.68072 0.0
Co590 Co 0.62384 0.61802 0.32388 0.0
Co591 Co 0.62656 0.62047 0.42037 0.0
O592 O 0.63636 0.60844 0.37202 0.0
C593 C 0.67295 0.62775 0.31821 0.0
O594 O 0.67159 0.63623 0.35207 0.0
C595 C 0.61899 0.57088 0.42635 0.0
O596 O 0.61048 0.5716 0.39246 0.0
O597 O 0.59374 0.61673 0.40701 0.0
O598 O 0.59228 0.61696 0.3443 0.0
H599 H 0.58023 0.67023 0.50597 0.0
H600 H 0.65539 0.57851 0.32739 0.0
O601 O 0.65532 0.61942 0.30247 0.0
H602 H 0.58356 0.54795 0.27565 0.0
H603 H 0.61876 0.61755 0.18359 0.0
H604 H 0.58774 0.65032 0.29985 0.0
H605 H 0.58706 0.58881 0.29142 0.0
H606 H 0.63402 0.60577 0.24481 0.0
O607 O 0.62659 0.58896 0.44171 0.0
H608 H 0.59277 0.65501 0.44509 0.0
H609 H 0.63973 0.61078 0.49919 0.0
H610 H 0.57183 0.66244 0.23925 0.0
H611 H 0.6527 0.53756 0.3117 0.0
H612 H 0.58736 0.64601 0.18056 0.0
H613 H 0.61655 0.52203 0.28575 0.0
O614 O 0.62621 0.65095 0.33758 0.0
H615 H 0.70823 0.59508 0.4307 0.0
H616 H 0.65436 0.6584 0.45266 0.0
H617 H 0.69515 0.66365 0.46747 0.0
H618 H 0.72239 0.63184 0.45649 0.0
H619 H 0.66732 0.59062 0.41601 0.0
H620 H 0.62757 0.62537 0.56068 0.0
H621 H 0.59768 0.65538 0.56431 0.0
O622 O 0.62619 0.6521 0.40026 0.0
C623 C 0.58274 0.61621 0.37626 0.0
C624 C 0.59332 0.6572 0.50474 0.0
C625 C 0.61986 0.632 0.53545 0.0
N626 N 0.61708 0.63216 0.4686 0.0
C627 C 0.60053 0.64857 0.47035 0.0
C628 C 0.62664 0.62377 0.50057 0.0
C629 C 0.6031 0.64885 0.53747 0.0
C630 C 0.63968 0.57191 0.31577 0.0
N631 N 0.62144 0.58605 0.31018 0.0
C632 C 0.63822 0.5487 0.30708 0.0
C633 C 0.61793 0.53999 0.29257 0.0
C634 C 0.5994 0.55452 0.28693 0.0
C635 C 0.60147 0.57763 0.29599 0.0
C636 C 0.61182 0.6248 0.20896 0.0
C637 C 0.59449 0.64301 0.27444 0.0
C638 C 0.62043 0.61824 0.2437 0.0
N639 N 0.61166 0.62724 0.27586 0.0
C640 C 0.58546 0.64998 0.2402 0.0
C641 C 0.5942 0.64076 0.20729 0.0
C642 C 0.62639 0.66182 0.36847 0.0
C643 C 0.69651 0.60904 0.43571 0.0
C644 C 0.66611 0.64449 0.44776 0.0
C645 C 0.68918 0.64755 0.45627 0.0
C646 C 0.70446 0.62968 0.45013 0.0
N647 N 0.65846 0.62418 0.43362 0.0
C648 C 0.67332 0.60658 0.4276 0.0
Co649 Co 0.12425 0.87544 0.17643 0.0
Co650 Co 0.12776 0.87341 0.07998 0.0
O651 O 0.13708 0.88532 0.1287 0.0
C652 C 0.17347 0.86633 0.18343 0.0
O653 O 0.1726 0.85796 0.14945 0.0
C654 C 0.11971 0.92294 0.0745 0.0
O655 O 0.11099 0.9219 0.10819 0.0
O656 O 0.09481 0.87675 0.09259 0.0
O657 O 0.09283 0.87622 0.15524 0.0
H658 H 0.08263 0.82352 0.99277 0.0
H659 H 0.15536 0.91533 0.17408 0.0
O660 O 0.15556 0.87435 0.19868 0.0
H661 H 0.08275 0.9449 0.22418 0.0
H662 H 0.118 0.87535 0.31658 0.0
H663 H 0.08837 0.8426 0.19924 0.0
H664 H 0.08686 0.90412 0.2082 0.0
H665 H 0.13359 0.88757 0.25585 0.0
O666 O 0.12762 0.90504 0.059 0.0
H667 H 0.09455 0.8386 0.0541 0.0
H668 H 0.14141 0.88359 0.00158 0.0
H669 H 0.07214 0.83003 0.25934 0.0
H670 H 0.15206 0.9562 0.18999 0.0
H671 H 0.08698 0.84645 0.31856 0.0
H672 H 0.11551 0.97124 0.21512 0.0
O673 O 0.12711 0.8426 0.16245 0.0
H674 H 0.20922 0.89973 0.07168 0.0
H675 H 0.15621 0.83591 0.04795 0.0
H676 H 0.19715 0.83116 0.03391 0.0
H677 H 0.22396 0.86323 0.04578 0.0
H678 H 0.16817 0.90367 0.0856 0.0
H679 H 0.12988 0.86913 0.93966 0.0
H680 H 0.10035 0.8388 0.935 0.0
O681 O 0.12757 0.84167 0.09976 0.0
C682 C 0.08355 0.87701 0.12305 0.0
C683 C 0.09557 0.83668 0.99444 0.0
C684 C 0.12206 0.8623 0.96463 0.0
N685 N 0.11878 0.86182 0.03141 0.0
C686 C 0.10242 0.84524 0.02909 0.0
C687 C 0.12849 0.87045 0.99976 0.0
C688 C 0.1055 0.84528 0.96204 0.0
C689 C 0.13948 0.92171 0.18535 0.0
N690 N 0.12137 0.90734 0.19036 0.0
C691 C 0.13768 0.94488 0.19416 0.0
C692 C 0.11716 0.95331 0.20821 0.0
C693 C 0.09876 0.93854 0.21327 0.0
C694 C 0.10118 0.91548 0.2041 0.0
C695 C 0.11136 0.8681 0.29097 0.0
C696 C 0.09481 0.84991 0.22489 0.0
C697 C 0.12016 0.87491 0.25651 0.0
N698 N 0.11177 0.86592 0.22405 0.0
C699 C 0.08561 0.84269 0.25883 0.0
C700 C 0.09395 0.85189 0.29205 0.0
C701 C 0.12762 0.83184 0.13148 0.0
C702 C 0.1977 0.88565 0.06629 0.0
C703 C 0.16777 0.84992 0.05325 0.0
C704 C 0.19093 0.84715 0.04517 0.0
C705 C 0.20596 0.86516 0.05181 0.0
N706 N 0.1598 0.87008 0.06743 0.0
C707 C 0.17443 0.88782 0.07396 0.0
Co708 Co 0.86786 0.62076 0.07641 0.0
Co709 Co 0.86991 0.61846 0.17293 0.0
O710 O 0.85777 0.60879 0.12457 0.0
C711 C 0.87595 0.57127 0.07132 0.0
O712 O 0.88426 0.57247 0.1053 0.0
C713 C 0.82065 0.62783 0.17774 0.0
O714 O 0.82208 0.63618 0.14385 0.0
O715 O 0.86746 0.65133 0.15918 0.0
O716 O 0.86774 0.65247 0.09647 0.0
H717 H 0.92095 0.66338 0.25865 0.0
H718 H 0.82737 0.59048 0.07993 0.0
O719 O 0.86833 0.58912 0.05533 0.0
H720 H 0.79926 0.66303 0.02738 0.0
H721 H 0.86802 0.62507 0.93606 0.0
H722 H 0.90139 0.65566 0.05227 0.0
H723 H 0.83995 0.65828 0.04337 0.0
H724 H 0.85553 0.61055 0.99736 0.0
O725 O 0.83828 0.61971 0.19375 0.0
H726 H 0.9056 0.65105 0.19771 0.0
H727 H 0.85925 0.60621 0.25176 0.0
H728 H 0.91424 0.67081 0.99159 0.0
H729 H 0.78657 0.59442 0.06405 0.0
H730 H 0.89751 0.65549 0.93294 0.0
H731 H 0.77227 0.63094 0.0377 0.0
O732 O 0.9006 0.61743 0.09044 0.0
H733 H 0.84146 0.53783 0.18414 0.0
H734 H 0.90661 0.58948 0.20603 0.0
H735 H 0.91026 0.54863 0.22158 0.0
H736 H 0.87752 0.5225 0.21064 0.0
H737 H 0.83861 0.57877 0.16871 0.0
H738 H 0.87396 0.61819 0.3133 0.0
H739 H 0.9051 0.6469 0.31699 0.0
O740 O 0.90164 0.61756 0.15316 0.0
C741 C 0.86733 0.66219 0.12833 0.0
C742 C 0.90743 0.6508 0.2574 0.0
C743 C 0.88103 0.62546 0.28808 0.0
N744 N 0.88169 0.6278 0.22119 0.0
C745 C 0.89872 0.64371 0.22298 0.0
C746 C 0.87274 0.61878 0.25316 0.0
C747 C 0.89851 0.64157 0.29012 0.0
C748 C 0.82131 0.60634 0.06812 0.0
N749 N 0.83604 0.62409 0.06242 0.0
C750 C 0.79818 0.60851 0.05933 0.0
C751 C 0.79016 0.62901 0.0446 0.0
C752 C 0.80529 0.64703 0.03882 0.0
C753 C 0.8283 0.64426 0.048 0.0
C754 C 0.87541 0.63191 0.96143 0.0
C755 C 0.89394 0.64901 0.02686 0.0
C756 C 0.86844 0.62372 0.9962 0.0
N757 N 0.87761 0.63238 0.02834 0.0
C758 C 0.90133 0.65761 0.99259 0.0
C759 C 0.89195 0.64898 0.95969 0.0
C760 C 0.91139 0.61697 0.12138 0.0
C761 C 0.85582 0.54905 0.18912 0.0
C762 C 0.8923 0.57822 0.20113 0.0
C763 C 0.89446 0.55511 0.21006 0.0
C764 C 0.87607 0.54046 0.20394 0.0
N765 N 0.87238 0.58652 0.18662 0.0
C766 C 0.85427 0.57227 0.1806 0.0
Co767 Co 0.12648 0.11873 0.92374 0.0
Co768 Co 0.1234 0.11621 0.82728 0.0
O769 O 0.13598 0.10653 0.87532 0.0
C770 C 0.11839 0.06924 0.92982 0.0
O771 O 0.10966 0.07014 0.8961 0.0
C772 C 0.17274 0.12487 0.82058 0.0
O773 O 0.1719 0.13344 0.85442 0.0
O774 O 0.12651 0.14911 0.84077 0.0
O775 O 0.12638 0.15036 0.90347 0.0
H776 H 0.07201 0.16159 0.74299 0.0
H777 H 0.16689 0.08841 0.91912 0.0
O778 O 0.12626 0.08721 0.94517 0.0
H779 H 0.1957 0.16118 0.97014 0.0
H780 H 0.12805 0.12377 0.06402 0.0
H781 H 0.09321 0.15371 0.94867 0.0
H782 H 0.15482 0.15639 0.95557 0.0
H783 H 0.13981 0.10897 0.00246 0.0
O784 O 0.15478 0.11689 0.80535 0.0
H785 H 0.08793 0.14927 0.80348 0.0
H786 H 0.13286 0.10348 0.74817 0.0
H787 H 0.08107 0.16914 0.00962 0.0
H788 H 0.20788 0.0924 0.9336 0.0
H789 H 0.09854 0.15415 0.06785 0.0
H790 H 0.22253 0.12903 0.95917 0.0
O791 O 0.09356 0.11537 0.91075 0.0
H792 H 0.1505 0.03513 0.81545 0.0
H793 H 0.08585 0.08767 0.79559 0.0
H794 H 0.0814 0.04683 0.78031 0.0
H795 H 0.11389 0.02025 0.79022 0.0
H796 H 0.15414 0.07608 0.83064 0.0
H797 H 0.11757 0.11544 0.68706 0.0
H798 H 0.08685 0.14462 0.68423 0.0
O799 O 0.09189 0.11587 0.84808 0.0
C800 C 0.12677 0.16002 0.87161 0.0
C801 C 0.08534 0.14881 0.74387 0.0
C802 C 0.11094 0.12292 0.71247 0.0
N803 N 0.11117 0.12555 0.77935 0.0
C804 C 0.09437 0.14172 0.77804 0.0
C805 C 0.11956 0.11626 0.74715 0.0
C806 C 0.09369 0.1393 0.71091 0.0
C807 C 0.17311 0.10432 0.93061 0.0
N808 N 0.15847 0.12211 0.93665 0.0
C809 C 0.19635 0.10651 0.9386 0.0
C810 C 0.20456 0.12708 0.95289 0.0
C811 C 0.18952 0.14514 0.95903 0.0
C812 C 0.1664 0.14234 0.95065 0.0
C813 C 0.12034 0.13047 0.03884 0.0
C814 C 0.10098 0.1472 0.97388 0.0
C815 C 0.1269 0.12212 0.00392 0.0
N816 N 0.11732 0.13059 0.97201 0.0
C817 C 0.09399 0.15596 0.00831 0.0
C818 C 0.10379 0.14752 0.04097 0.0
C819 C 0.08245 0.1152 0.88012 0.0
C820 C 0.13624 0.04655 0.81092 0.0
C821 C 0.10005 0.07621 0.80005 0.0
C822 C 0.09744 0.05311 0.79127 0.0
C823 C 0.11569 0.03821 0.79681 0.0
N824 N 0.12027 0.08426 0.81385 0.0
C825 C 0.13824 0.06977 0.81931 0.0
Co826 Co 0.62408 0.3779 0.67213 0.0
Co827 Co 0.62651 0.37428 0.57572 0.0
O828 O 0.63633 0.38702 0.62361 0.0
C829 C 0.67338 0.36907 0.67799 0.0
O830 O 0.67216 0.36022 0.64438 0.0
C831 C 0.61832 0.42366 0.56837 0.0
O832 O 0.6098 0.42311 0.60223 0.0
O833 O 0.59368 0.37776 0.58915 0.0
O834 O 0.59243 0.37818 0.65185 0.0
H835 H 0.58053 0.32292 0.49203 0.0
H836 H 0.65497 0.41786 0.66708 0.0
O837 O 0.65562 0.37729 0.69346 0.0
H838 H 0.58277 0.44794 0.71798 0.0
H839 H 0.61938 0.38011 0.8124 0.0
H840 H 0.58864 0.34527 0.69746 0.0
H841 H 0.58691 0.40693 0.7037 0.0
H842 H 0.63423 0.39139 0.75069 0.0
O843 O 0.6261 0.40554 0.5534 0.0
H844 H 0.59309 0.33901 0.55234 0.0
H845 H 0.63927 0.3832 0.49652 0.0
H846 H 0.57316 0.33363 0.75856 0.0
H847 H 0.65164 0.45897 0.68125 0.0
H848 H 0.58856 0.3511 0.81658 0.0
H849 H 0.6153 0.47426 0.70678 0.0
O850 O 0.62694 0.34486 0.65954 0.0
H851 H 0.7078 0.40058 0.56385 0.0
H852 H 0.65467 0.33631 0.54452 0.0
H853 H 0.69546 0.3314 0.52947 0.0
H854 H 0.72233 0.3637 0.53912 0.0
H855 H 0.66691 0.40468 0.57881 0.0
H856 H 0.62708 0.36773 0.43558 0.0
H857 H 0.59758 0.3373 0.4331 0.0
O858 O 0.62659 0.34289 0.5969 0.0
C859 C 0.58278 0.37842 0.61994 0.0
C860 C 0.59345 0.33613 0.49275 0.0
C861 C 0.61956 0.3613 0.46107 0.0
N862 N 0.61701 0.36189 0.52794 0.0
C863 C 0.60067 0.34525 0.52682 0.0
C864 C 0.62636 0.37002 0.49564 0.0
C865 C 0.60301 0.34422 0.4597 0.0
C866 C 0.63919 0.42436 0.67853 0.0
N867 N 0.6212 0.41 0.68471 0.0
C868 C 0.63736 0.44766 0.68635 0.0
C869 C 0.61696 0.45623 0.70062 0.0
C870 C 0.5987 0.44148 0.70689 0.0
C871 C 0.60112 0.41828 0.69867 0.0
C872 C 0.61251 0.37241 0.78732 0.0
C873 C 0.59532 0.35305 0.72258 0.0
C874 C 0.62088 0.37869 0.75231 0.0
N875 N 0.61218 0.36912 0.72052 0.0
C876 C 0.58654 0.34634 0.7571 0.0
C877 C 0.5952 0.35613 0.78964 0.0
C878 C 0.62708 0.3336 0.62904 0.0
C879 C 0.69625 0.3864 0.55942 0.0
C880 C 0.66626 0.35042 0.54885 0.0
C881 C 0.68933 0.34756 0.54021 0.0
C882 C 0.7044 0.36569 0.5456 0.0
N883 N 0.65841 0.3708 0.56238 0.0
C884 C 0.67307 0.38866 0.56769 0.0
Co885 Co 0.36833 0.8727 0.42586 0.0
Co886 Co 0.37101 0.87535 0.32941 0.0
O887 O 0.35855 0.88487 0.37762 0.0
C888 C 0.37619 0.92222 0.43202 0.0
O889 O 0.3848 0.9213 0.39823 0.0
C890 C 0.32171 0.86631 0.32306 0.0
O891 O 0.32272 0.85774 0.35685 0.0
O892 O 0.36822 0.84243 0.3427 0.0
O893 O 0.36848 0.84107 0.40539 0.0
H894 H 0.42243 0.83049 0.24438 0.0
H895 H 0.32775 0.90281 0.42183 0.0
O896 O 0.3685 0.90422 0.44744 0.0
H897 H 0.29957 0.82989 0.47278 0.0
H898 H 0.36749 0.86764 0.56613 0.0
H899 H 0.40186 0.83784 0.45027 0.0
H900 H 0.34034 0.83488 0.45778 0.0
H901 H 0.35536 0.88241 0.50477 0.0
O902 O 0.33955 0.87442 0.30776 0.0
H903 H 0.40666 0.84263 0.30509 0.0
H904 H 0.3611 0.88807 0.25047 0.0
H905 H 0.41436 0.82245 0.51102 0.0
H906 H 0.28686 0.89862 0.43674 0.0
H907 H 0.39712 0.83737 0.5695 0.0
H908 H 0.27252 0.86192 0.46229 0.0
O909 O 0.40117 0.87624 0.4126 0.0
H910 H 0.34315 0.95621 0.31848 0.0
H911 H 0.40815 0.90425 0.29753 0.0
H912 H 0.41217 0.94515 0.28253 0.0
H913 H 0.3795 0.97143 0.29299 0.0
H914 H 0.33994 0.91522 0.33338 0.0
H915 H 0.37623 0.87628 0.18915 0.0
H916 H 0.40719 0.84736 0.18586 0.0
O917 O 0.40259 0.87597 0.34992 0.0
C918 C 0.36806 0.83146 0.37344 0.0
C919 C 0.40899 0.84316 0.24546 0.0
C920 C 0.38304 0.86883 0.21445 0.0
N921 N 0.38311 0.86616 0.28132 0.0
C922 C 0.40004 0.85014 0.27975 0.0
C923 C 0.3745 0.8754 0.24924 0.0
C924 C 0.40041 0.85261 0.21263 0.0
C925 C 0.32167 0.88687 0.43329 0.0
N926 N 0.33643 0.86915 0.43908 0.0
C927 C 0.29848 0.88456 0.44153 0.0
C928 C 0.29045 0.86395 0.45581 0.0
C929 C 0.30561 0.84597 0.46169 0.0
C930 C 0.32867 0.84888 0.45306 0.0
C931 C 0.3751 0.86098 0.54085 0.0
C932 C 0.3942 0.84432 0.47559 0.0
C933 C 0.36834 0.8693 0.50603 0.0
N934 N 0.37778 0.86087 0.47398 0.0
C935 C 0.40138 0.83559 0.50991 0.0
C936 C 0.39172 0.84399 0.54271 0.0
C937 C 0.41216 0.87663 0.38188 0.0
C938 C 0.35748 0.94492 0.31371 0.0
C939 C 0.39388 0.91559 0.30223 0.0
C940 C 0.39624 0.93872 0.29361 0.0
C941 C 0.37789 0.95345 0.29946 0.0
N942 N 0.3738 0.90735 0.31618 0.0
C943 C 0.35573 0.92168 0.32194 0.0
H944 H 0.12983 0.8029 0.07164 0.0
H945 H 0.12673 0.68818 0.19266 0.0
H946 H 0.12689 0.80297 0.19218 0.0
H947 H 0.12933 0.69034 0.07215 0.0
H948 H 0.12749 0.72999 0.19388 0.0
H949 H 0.13041 0.76147 0.07222 0.0
C950 C 0.12936 0.79424 0.09832 0.0
C951 C 0.12832 0.80656 0.13195 0.0
C952 C 0.12794 0.72126 0.16723 0.0
C953 C 0.12891 0.75877 0.13273 0.0
C954 C 0.12753 0.69738 0.16648 0.0
C955 C 0.12797 0.68564 0.13224 0.0
C956 C 0.12881 0.73345 0.13352 0.0
C957 C 0.12896 0.69853 0.09925 0.0
C958 C 0.12968 0.77049 0.09861 0.0
C959 C 0.12772 0.79423 0.16557 0.0
N960 N 0.12932 0.72167 0.10076 0.0
N961 N 0.12798 0.77099 0.16511 0.0
H962 H 0.4405 0.87666 0.44332 0.0
H963 H 0.55402 0.88139 0.31942 0.0
H964 H 0.44153 0.87932 0.32277 0.0
H965 H 0.55516 0.87694 0.43983 0.0
H966 H 0.51261 0.882 0.32109 0.0
H967 H 0.48228 0.87799 0.44348 0.0
C968 C 0.44944 0.8776 0.41692 0.0
C969 C 0.4374 0.87787 0.38298 0.0
C970 C 0.52186 0.88093 0.34721 0.0
C971 C 0.48517 0.87938 0.38304 0.0
C972 C 0.5456 0.8806 0.3463 0.0
C973 C 0.55821 0.87909 0.37956 0.0
C974 C 0.51046 0.87969 0.38159 0.0
C975 C 0.54619 0.87812 0.41347 0.0
C976 C 0.4733 0.87834 0.41705 0.0
C977 C 0.44997 0.87906 0.34966 0.0
N978 N 0.52296 0.87839 0.41361 0.0
N979 N 0.47309 0.87974 0.35058 0.0
H980 H 0.3674 0.30464 0.69457 0.0
H981 H 0.36356 0.19099 0.57036 0.0
H982 H 0.36495 0.30349 0.574 0.0
H983 H 0.36694 0.18986 0.69086 0.0
H984 H 0.36305 0.23241 0.57212 0.0
H985 H 0.36636 0.26282 0.69465 0.0
C986 C 0.36659 0.29566 0.66815 0.0
C987 C 0.36626 0.30768 0.63422 0.0
C988 C 0.36387 0.22316 0.59824 0.0
C989 C 0.36508 0.25988 0.63419 0.0
C990 C 0.36414 0.19941 0.59728 0.0
C991 C 0.3653 0.1868 0.63054 0.0
C992 C 0.36481 0.23457 0.63269 0.0
C993 C 0.36602 0.19884 0.66451 0.0
C994 C 0.366 0.27179 0.66824 0.0
C995 C 0.36523 0.29507 0.60088 0.0
N996 N 0.36581 0.22207 0.66471 0.0
N997 N 0.3647 0.27194 0.60176 0.0
H998 H 0.05437 0.11526 0.94181 0.0
H999 H 0.94027 0.11503 0.81876 0.0
H1000 H 0.05276 0.11343 0.82122 0.0
H1001 H 0.93964 0.11665 0.93938 0.0
H1002 H 0.98166 0.11361 0.82004 0.0
H1003 H 0.01256 0.11493 0.94231 0.0
C1004 C 0.04529 0.1147 0.91547 0.0
C1005 C 0.05719 0.11438 0.88142 0.0
C1006 C 0.97253 0.11423 0.84629 0.0
C1007 C 0.00939 0.11406 0.88187 0.0
C1008 C 0.94879 0.11504 0.84561 0.0
C1009 C 0.93633 0.11595 0.87904 0.0
C1010 C 0.98408 0.11441 0.88064 0.0
C1011 C 0.9485 0.11594 0.91289 0.0
C1012 C 0.02142 0.11454 0.9158 0.0
C1013 C 0.04445 0.1137 0.84819 0.0
N1014 N 0.97172 0.11522 0.91282 0.0
N1015 N 0.02132 0.1136 0.8493 0.0
H1016 H 0.12649 0.30346 0.80879 0.0
H1017 H 0.12845 0.18924 0.93114 0.0
H1018 H 0.12744 0.30172 0.92939 0.0
H1019 H 0.12658 0.18861 0.81053 0.0
H1020 H 0.12893 0.23065 0.93007 0.0
H1021 H 0.12728 0.26164 0.808 0.0
C1022 C 0.12692 0.29435 0.83508 0.0
C1023 C 0.12692 0.30621 0.86922 0.0
C1024 C 0.12845 0.22152 0.90378 0.0
C1025 C 0.1278 0.2584 0.86843 0.0
C1026 C 0.1282 0.19777 0.90434 0.0
C1027 C 0.12748 0.1853 0.87084 0.0
C1028 C 0.12796 0.23309 0.8695 0.0
C1029 C 0.12716 0.19748 0.83706 0.0
C1030 C 0.12736 0.27047 0.83458 0.0
C1031 C 0.12744 0.29344 0.90236 0.0
N1032 N 0.12736 0.22073 0.83725 0.0
N1033 N 0.12785 0.27031 0.90108 0.0
H1034 H 0.94109 0.88129 0.18186 0.0
H1035 H 0.05582 0.87741 0.0609 0.0
H1036 H 0.94112 0.87778 0.06134 0.0
H1037 H 0.05359 0.87931 0.18145 0.0
H1038 H 0.01404 0.87874 0.05966 0.0
H1039 H 0.98251 0.8819 0.1813 0.0
C1040 C 0.94976 0.88071 0.15518 0.0
C1041 C 0.93748 0.87947 0.12156 0.0
C1042 C 0.02276 0.87892 0.08632 0.0
C1043 C 0.98525 0.88006 0.12081 0.0
C1044 C 0.04661 0.87818 0.08708 0.0
C1045 C 0.05832 0.87824 0.12134 0.0
C1046 C 0.01056 0.87975 0.12004 0.0
C1047 C 0.04543 0.87922 0.15434 0.0
C1048 C 0.97351 0.88104 0.15491 0.0
C1049 C 0.94983 0.87876 0.08795 0.0
N1050 N 0.02231 0.87991 0.15282 0.0
N1051 N 0.97306 0.87901 0.08843 0.0
H1052 H 0.36756 0.68825 0.30871 0.0
H1053 H 0.36651 0.80208 0.43263 0.0
H1054 H 0.36564 0.68957 0.42929 0.0
H1055 H 0.36799 0.80305 0.31202 0.0
H1056 H 0.36566 0.76067 0.43101 0.0
H1057 H 0.36719 0.73008 0.30851 0.0
C1058 C 0.36699 0.69727 0.33511 0.0
C1059 C 0.36662 0.68529 0.36907 0.0
C1060 C 0.36614 0.76988 0.40484 0.0
C1061 C 0.36625 0.73311 0.36897 0.0
C1062 C 0.36661 0.79363 0.40571 0.0
C1063 C 0.3673 0.80619 0.37238 0.0
C1064 C 0.3664 0.75842 0.3704 0.0
C1065 C 0.36744 0.79411 0.33843 0.0
C1066 C 0.3668 0.72115 0.33495 0.0
C1067 C 0.36594 0.69795 0.40239 0.0
N1068 N 0.36702 0.77087 0.33831 0.0
N1069 N 0.3658 0.72109 0.40144 0.0
H1070 H 0.55319 0.11564 0.68022 0.0
H1071 H 0.43872 0.1171 0.55815 0.0
H1072 H 0.55348 0.11729 0.55961 0.0
H1073 H 0.4407 0.11542 0.67872 0.0
H1074 H 0.48052 0.11647 0.55729 0.0
H1075 H 0.51179 0.1148 0.67928 0.0
C1076 C 0.54459 0.11577 0.65344 0.0
C1077 C 0.55696 0.11653 0.61991 0.0
C1078 C 0.47174 0.11618 0.58387 0.0
C1079 C 0.50919 0.11564 0.61871 0.0
C1080 C 0.44788 0.11653 0.58442 0.0
C1081 C 0.43609 0.1163 0.61857 0.0
C1082 C 0.48388 0.11561 0.6177 0.0
C1083 C 0.44892 0.1156 0.65168 0.0
C1084 C 0.52085 0.1153 0.65296 0.0
C1085 C 0.54469 0.11669 0.58616 0.0
N1086 N 0.47205 0.11531 0.65037 0.0
N1087 N 0.52146 0.11629 0.58642 0.0
H1088 H 0.86468 0.19107 0.93032 0.0
H1089 H 0.86656 0.30552 0.80872 0.0
H1090 H 0.86659 0.19073 0.80971 0.0
H1091 H 0.86365 0.30356 0.92922 0.0
H1092 H 0.86598 0.26372 0.80767 0.0
H1093 H 0.8637 0.23247 0.9295 0.0
C1094 C 0.86484 0.19966 0.90357 0.0
C1095 C 0.8657 0.18728 0.87 0.0
C1096 C 0.86541 0.2725 0.83428 0.0
C1097 C 0.86466 0.23505 0.86895 0.0
C1098 C 0.86572 0.29637 0.83493 0.0
C1099 C 0.86516 0.30816 0.86912 0.0
C1100 C 0.86454 0.26036 0.86804 0.0
C1101 C 0.86412 0.29532 0.90216 0.0
C1102 C 0.86429 0.2234 0.90315 0.0
C1103 C 0.86591 0.19953 0.83629 0.0
N1104 N 0.86388 0.27219 0.90075 0.0
N1105 N 0.86543 0.22277 0.83662 0.0
H1106 H 0.62772 0.69086 0.4282 0.0
H1107 H 0.62713 0.80548 0.30692 0.0
H1108 H 0.62646 0.69057 0.30756 0.0
H1109 H 0.62925 0.80323 0.42746 0.0
H1110 H 0.62726 0.76365 0.30568 0.0
H1111 H 0.62862 0.73224 0.42746 0.0
C1112 C 0.62767 0.69946 0.40145 0.0
C1113 C 0.62704 0.68709 0.36786 0.0
C1114 C 0.62775 0.77238 0.33233 0.0
C1115 C 0.62802 0.73486 0.36689 0.0
C1116 C 0.6277 0.79625 0.33309 0.0
C1117 C 0.62819 0.80797 0.36736 0.0
C1118 C 0.62829 0.76017 0.36605 0.0
C1119 C 0.62887 0.79507 0.40035 0.0
C1120 C 0.62818 0.7232 0.40108 0.0
C1121 C 0.62696 0.69936 0.33416 0.0
N1122 N 0.62887 0.77194 0.39882 0.0
N1123 N 0.62742 0.7226 0.33453 0.0
H1124 H 0.86596 0.69138 0.06888 0.0
H1125 H 0.86733 0.8056 0.19182 0.0
H1126 H 0.86732 0.69077 0.18951 0.0
H1127 H 0.86685 0.80383 0.0712 0.0
H1128 H 0.86657 0.76377 0.1924 0.0
H1129 H 0.86545 0.73279 0.07014 0.0
C1130 C 0.86611 0.69991 0.09572 0.0
C1131 C 0.86668 0.68746 0.12917 0.0
C1132 C 0.86659 0.7726 0.16587 0.0
C1133 C 0.86617 0.73523 0.13075 0.0
C1134 C 0.867 0.79648 0.16549 0.0
C1135 C 0.86714 0.80833 0.13141 0.0
C1136 C 0.86629 0.76053 0.13195 0.0
C1137 C 0.86674 0.79556 0.0982 0.0
C1138 C 0.86583 0.72366 0.0964 0.0
C1139 C 0.86687 0.69964 0.16302 0.0
N1140 N 0.86636 0.77243 0.09936 0.0
N1141 N 0.86665 0.72287 0.16295 0.0
H1142 H 0.62726 0.30575 0.69103 0.0
H1143 H 0.62839 0.19132 0.56869 0.0
H1144 H 0.62856 0.3037 0.57044 0.0
H1145 H 0.62707 0.19085 0.68932 0.0
H1146 H 0.62923 0.23271 0.56981 0.0
H1147 H 0.6279 0.26391 0.69189 0.0
C1148 C 0.62774 0.29657 0.66477 0.0
C1149 C 0.62786 0.30834 0.63061 0.0
C1150 C 0.62879 0.22362 0.59611 0.0
C1151 C 0.62856 0.26054 0.63148 0.0
C1152 C 0.62833 0.19988 0.59551 0.0
C1153 C 0.62767 0.18746 0.62899 0.0
C1154 C 0.62854 0.23523 0.6304 0.0
C1155 C 0.62759 0.19968 0.66281 0.0
C1156 C 0.62809 0.27269 0.66531 0.0
C1157 C 0.62845 0.29549 0.59749 0.0
N1158 N 0.62798 0.22292 0.66265 0.0
N1159 N 0.62876 0.27236 0.59881 0.0
H1160 H 0.05288 0.37941 0.81971 0.0
H1161 H 0.93863 0.37696 0.94183 0.0
H1162 H 0.05331 0.37616 0.94023 0.0
H1163 H 0.9404 0.38043 0.82137 0.0
H1164 H 0.98042 0.37745 0.94265 0.0
H1165 H 0.01149 0.38063 0.82072 0.0
C1166 C 0.04431 0.37901 0.84648 0.0
C1167 C 0.05671 0.37768 0.87997 0.0
C1168 C 0.9716 0.37817 0.9161 0.0
C1169 C 0.00898 0.379 0.88124 0.0
C1170 C 0.94774 0.3779 0.91558 0.0
C1171 C 0.9359 0.37865 0.88147 0.0
C1172 C 0.98368 0.37918 0.88228 0.0
C1173 C 0.94867 0.37982 0.84837 0.0
C1174 C 0.02058 0.3797 0.84701 0.0
C1175 C 0.0445 0.3772 0.91372 0.0
N1176 N 0.9718 0.38002 0.84965 0.0
N1177 N 0.02128 0.37781 0.91349 0.0
H1178 H 0.5534 0.61297 0.31711 0.0
H1179 H 0.4397 0.61548 0.44064 0.0
H1180 H 0.55441 0.61636 0.43763 0.0
H1181 H 0.441 0.61248 0.3201 0.0
H1182 H 0.4815 0.6147 0.44101 0.0
H1183 H 0.51203 0.61159 0.31867 0.0
C1184 C 0.54496 0.61336 0.34399 0.0
C1185 C 0.55752 0.6148 0.37732 0.0
C1186 C 0.47257 0.61414 0.41455 0.0
C1187 C 0.5098 0.61332 0.37923 0.0
C1188 C 0.44871 0.61457 0.41429 0.0
C1189 C 0.43673 0.61406 0.38028 0.0
C1190 C 0.48451 0.6132 0.38058 0.0
C1191 C 0.44937 0.61292 0.34704 0.0
C1192 C 0.52124 0.61258 0.34484 0.0
C1193 C 0.54547 0.61525 0.41123 0.0
N1194 N 0.4725 0.61256 0.34807 0.0
N1195 N 0.52225 0.61457 0.41132 0.0
H1196 H 0.55429 0.37782 0.55869 0.0
H1197 H 0.44109 0.38065 0.68346 0.0
H1198 H 0.55353 0.3811 0.67922 0.0
H1199 H 0.43961 0.37746 0.56294 0.0
H1200 H 0.48247 0.38173 0.68149 0.0
H1201 H 0.51249 0.37855 0.55882 0.0
C1202 C 0.5454 0.37878 0.58515 0.0
C1203 C 0.55753 0.37939 0.619 0.0
C1204 C 0.47315 0.38084 0.65541 0.0
C1205 C 0.50975 0.38019 0.61927 0.0
C1206 C 0.44943 0.38023 0.65649 0.0
C1207 C 0.43674 0.37896 0.62329 0.0
C1208 C 0.48446 0.38011 0.6209 0.0
C1209 C 0.44866 0.37846 0.58925 0.0
C1210 C 0.52154 0.37918 0.58517 0.0
C1211 C 0.54504 0.38059 0.6524 0.0
N1212 N 0.47188 0.37899 0.58894 0.0
N1213 N 0.5219 0.38091 0.65164 0.0
H1214 H 0.0547 0.61643 0.05886 0.0
H1215 H 0.94043 0.61411 0.181 0.0
H1216 H 0.05295 0.6132 0.17935 0.0
H1217 H 0.94006 0.61714 0.06046 0.0
H1218 H 0.98184 0.61287 0.18002 0.0
H1219 H 0.01291 0.61584 0.05807 0.0
C1220 C 0.0456 0.61551 0.08512 0.0
C1221 C 0.05744 0.61487 0.11923 0.0
C1222 C 0.97275 0.61376 0.15373 0.0
C1223 C 0.00966 0.61424 0.11844 0.0
C1224 C 0.94902 0.61446 0.15424 0.0
C1225 C 0.93663 0.61574 0.12073 0.0
C1226 C 0.98437 0.6144 0.11949 0.0
C1227 C 0.94886 0.61615 0.08699 0.0
C1228 C 0.02174 0.6152 0.08462 0.0
C1229 C 0.04467 0.61373 0.15234 0.0
N1230 N 0.97208 0.61553 0.08723 0.0
N1231 N 0.02155 0.61349 0.15107 0.0
H1232 H 0.12508 0.56399 0.99545 0.0
H1233 H 0.12409 0.42804 0.00535 0.0
H1234 H 0.11215 0.52697 0.09742 0.0
H1235 H 0.11229 0.4652 0.90311 0.0
H1236 H 0.12445 0.46418 0.03959 0.0
H1237 H 0.12514 0.52785 0.96117 0.0
C1238 C 0.12232 0.54825 0.01065 0.0
C1239 C 0.11855 0.54846 0.04934 0.0
C1240 C 0.12175 0.4644 0.00968 0.0
C1241 C 0.11873 0.50712 0.0103 0.0
C1242 C 0.12163 0.44381 0.99008 0.0
C1243 C 0.1181 0.44364 0.95132 0.0
C1244 C 0.11864 0.48498 0.99033 0.0
C1245 C 0.11494 0.46456 0.93301 0.0
C1246 C 0.12225 0.52766 0.99103 0.0
C1247 C 0.11499 0.52758 0.06757 0.0
N1248 N 0.11539 0.48443 0.95267 0.0
N1249 N 0.11527 0.50771 0.0479 0.0
H1250 H 0.71689 0.86211 0.34861 0.0
H1251 H 0.77832 0.86255 0.14995 0.0
H1252 H 0.68075 0.87493 0.24566 0.0
H1253 H 0.81431 0.8752 0.25317 0.0
H1254 H 0.74227 0.86241 0.18457 0.0
H1255 H 0.7529 0.8622 0.31391 0.0
C1256 C 0.71654 0.8649 0.31872 0.0
C1257 C 0.69583 0.86855 0.29997 0.0
C1258 C 0.75808 0.86526 0.19956 0.0
C1259 C 0.73684 0.86851 0.2602 0.0
C1260 C 0.77864 0.86526 0.17987 0.0
C1261 C 0.79931 0.86892 0.19872 0.0
C1262 C 0.75827 0.8686 0.23839 0.0
C1263 C 0.79874 0.87242 0.2375 0.0
C1264 C 0.73707 0.86504 0.29899 0.0
C1265 C 0.69635 0.87216 0.26124 0.0
N1266 N 0.77856 0.87205 0.25609 0.0
N1267 N 0.71652 0.87192 0.24259 0.0
H1268 H 0.38181 0.46681 0.60204 0.0
H1269 H 0.38179 0.52623 0.40174 0.0
H1270 H 0.36952 0.42967 0.49976 0.0
H1271 H 0.36942 0.56339 0.50394 0.0
H1272 H 0.38174 0.49054 0.43732 0.0
H1273 H 0.38172 0.50252 0.56648 0.0
C1274 C 0.37913 0.46617 0.57213 0.0
C1275 C 0.37565 0.44527 0.55381 0.0
C1276 C 0.37899 0.50652 0.45188 0.0
C1277 C 0.37569 0.48592 0.51307 0.0
C1278 C 0.3791 0.52688 0.43164 0.0
C1279 C 0.37559 0.54778 0.44993 0.0
C1280 C 0.37567 0.50714 0.4907 0.0
C1281 C 0.37209 0.54763 0.4887 0.0
C1282 C 0.379 0.48653 0.5519 0.0
C1283 C 0.37217 0.44542 0.51503 0.0
N1284 N 0.37235 0.52763 0.50784 0.0
N1285 N 0.3724 0.46542 0.4959 0.0
H1286 H 0.71612 0.133 0.64961 0.0
H1287 H 0.77736 0.13303 0.84868 0.0
H1288 H 0.67994 0.12074 0.75262 0.0
H1289 H 0.81358 0.12077 0.74566 0.0
H1290 H 0.74136 0.133 0.81384 0.0
H1291 H 0.75213 0.13298 0.68442 0.0
C1292 C 0.71575 0.13034 0.67953 0.0
C1293 C 0.69503 0.12685 0.69826 0.0
C1294 C 0.75721 0.13028 0.79893 0.0
C1295 C 0.73604 0.12697 0.73816 0.0
C1296 C 0.77774 0.13038 0.81875 0.0
C1297 C 0.79846 0.12688 0.80003 0.0
C1298 C 0.75747 0.12698 0.76009 0.0
C1299 C 0.79797 0.12343 0.76123 0.0
C1300 C 0.73629 0.13025 0.69932 0.0
C1301 C 0.69555 0.1234 0.73704 0.0
N1302 N 0.7778 0.12369 0.7425 0.0
N1303 N 0.71572 0.12367 0.75574 0.0
H1304 H 0.88202 0.46648 0.90155 0.0
H1305 H 0.88141 0.52833 0.1001 0.0
H1306 H 0.86898 0.43059 0.00456 0.0
H1307 H 0.87007 0.56425 0.99655 0.0
H1308 H 0.88123 0.49218 0.06562 0.0
H1309 H 0.88204 0.50257 0.93614 0.0
C1310 C 0.8792 0.46619 0.93143 0.0
C1311 C 0.87548 0.44554 0.95023 0.0
C1312 C 0.87873 0.50799 0.05052 0.0
C1313 C 0.87563 0.48664 0.98988 0.0
C1314 C 0.87892 0.52861 0.07013 0.0
C1315 C 0.87574 0.54929 0.05114 0.0
C1316 C 0.87566 0.50813 0.01163 0.0
C1317 C 0.87249 0.54868 0.01232 0.0
C1318 C 0.87913 0.48678 0.9511 0.0
C1319 C 0.87182 0.44615 0.98895 0.0
N1320 N 0.87266 0.52843 0.99381 0.0
N1321 N 0.87211 0.46637 0.00755 0.0
H1322 H 0.17878 0.11847 0.74568 0.0
H1323 H 0.31467 0.11929 0.75504 0.0
H1324 H 0.21604 0.13097 0.84774 0.0
H1325 H 0.27725 0.13161 0.65315 0.0
H1326 H 0.27866 0.11893 0.78945 0.0
H1327 H 0.2148 0.11864 0.71129 0.0
C1328 C 0.19455 0.12119 0.76088 0.0
C1329 C 0.19443 0.12475 0.79964 0.0
C1330 C 0.27835 0.12175 0.75958 0.0
C1331 C 0.23565 0.12483 0.76044 0.0
C1332 C 0.29887 0.12186 0.73988 0.0
C1333 C 0.29893 0.12552 0.70116 0.0
C1334 C 0.25773 0.125 0.74038 0.0
C1335 C 0.27797 0.12884 0.683 0.0
C1336 C 0.21507 0.12138 0.74119 0.0
C1337 C 0.21535 0.12827 0.81785 0.0
N1338 N 0.25817 0.12839 0.70276 0.0
N1339 N 0.23516 0.12811 0.7981 0.0
H1340 H 0.62547 0.56513 0.50122 0.0
H1341 H 0.6248 0.42918 0.49343 0.0
H1342 H 0.61316 0.52742 0.3995 0.0
H1343 H 0.61267 0.46718 0.59487 0.0
H1344 H 0.62511 0.46501 0.45852 0.0
H1345 H 0.62542 0.52926 0.53594 0.0
C1346 C 0.62282 0.54929 0.48615 0.0
C1347 C 0.61927 0.54923 0.44739 0.0
C1348 C 0.62234 0.46548 0.48839 0.0
C1349 C 0.6193 0.50818 0.487 0.0
C1350 C 0.62226 0.44507 0.50838 0.0
C1351 C 0.61867 0.44523 0.54712 0.0
C1352 C 0.61914 0.48621 0.50734 0.0
C1353 C 0.61538 0.46629 0.56501 0.0
C1354 C 0.62269 0.52886 0.50604 0.0
C1355 C 0.61585 0.52822 0.42938 0.0
N1356 N 0.61581 0.48598 0.54498 0.0
N1357 N 0.61605 0.5085 0.44933 0.0
H1358 H 0.31541 0.87271 0.24827 0.0
H1359 H 0.17961 0.87237 0.25841 0.0
H1360 H 0.27852 0.86003 0.35046 0.0
H1361 H 0.2167 0.86033 0.15615 0.0
H1362 H 0.21571 0.87224 0.29271 0.0
H1363 H 0.27929 0.8726 0.21412 0.0
C1364 C 0.2997 0.86995 0.26355 0.0
C1365 C 0.29995 0.86634 0.30228 0.0
C1366 C 0.21592 0.86958 0.26279 0.0
C1367 C 0.2586 0.86633 0.26335 0.0
C1368 C 0.19535 0.86974 0.24316 0.0
C1369 C 0.19517 0.86632 0.20436 0.0
C1370 C 0.23647 0.8663 0.24343 0.0
C1371 C 0.21606 0.86292 0.18607 0.0
C1372 C 0.27912 0.86979 0.244 0.0
C1373 C 0.2791 0.86277 0.32059 0.0
N1374 N 0.23591 0.86312 0.20575 0.0
N1375 N 0.25922 0.86297 0.30098 0.0
H1376 H 0.62403 0.06523 0.49501 0.0
H1377 H 0.62525 0.92933 0.50473 0.0
H1378 H 0.61208 0.02811 0.5972 0.0
H1379 H 0.61277 0.96649 0.40271 0.0
H1380 H 0.62499 0.96541 0.53917 0.0
H1381 H 0.62447 0.02912 0.46081 0.0
C1382 C 0.62155 0.04947 0.51028 0.0
C1383 C 0.61797 0.04965 0.54902 0.0
C1384 C 0.62227 0.96564 0.50927 0.0
C1385 C 0.61858 0.00831 0.51003 0.0
C1386 C 0.62252 0.94509 0.48955 0.0
C1387 C 0.61899 0.94493 0.45079 0.0
C1388 C 0.61879 0.98619 0.49002 0.0
C1389 C 0.61545 0.96583 0.4326 0.0
C1390 C 0.6217 0.02889 0.4907 0.0
C1391 C 0.61477 0.02873 0.56732 0.0
N1392 N 0.61555 0.98565 0.45236 0.0
N1393 N 0.61526 0.00886 0.54767 0.0
H1394 H 0.31486 0.37408 0.75843 0.0
H1395 H 0.17912 0.37344 0.74682 0.0
H1396 H 0.27818 0.36167 0.65579 0.0
H1397 H 0.21576 0.36066 0.84932 0.0
H1398 H 0.21535 0.37369 0.71308 0.0
H1399 H 0.27865 0.37373 0.79232 0.0
C1400 C 0.29918 0.37134 0.74301 0.0
C1401 C 0.2995 0.36787 0.70423 0.0
C1402 C 0.21544 0.37079 0.74293 0.0
C1403 C 0.2581 0.36758 0.74282 0.0
C1404 C 0.1948 0.37074 0.76225 0.0
C1405 C 0.19446 0.36699 0.80094 0.0
C1406 C 0.23591 0.3674 0.7625 0.0
C1407 C 0.21527 0.3635 0.81947 0.0
C1408 C 0.27856 0.37104 0.7624 0.0
C1409 C 0.2787 0.3643 0.6857 0.0
N1410 N 0.2352 0.36391 0.80008 0.0
N1411 N 0.2588 0.36437 0.70516 0.0
H1412 H 0.86937 0.06533 0.00348 0.0
H1413 H 0.87074 0.92942 0.99496 0.0
H1414 H 0.88192 0.02788 0.90163 0.0
H1415 H 0.88241 0.96726 0.09675 0.0
H1416 H 0.87043 0.96532 0.96024 0.0
H1417 H 0.8697 0.02942 0.03806 0.0
C1418 C 0.87214 0.04954 0.98836 0.0
C1419 C 0.87566 0.04957 0.9496 0.0
C1420 C 0.8731 0.96574 0.99015 0.0
C1421 C 0.87593 0.00846 0.98903 0.0
C1422 C 0.87319 0.94529 0.01003 0.0
C1423 C 0.87663 0.94538 0.04881 0.0
C1424 C 0.87616 0.98645 0.00925 0.0
C1425 C 0.8798 0.96642 0.06686 0.0
C1426 C 0.87242 0.02908 0.00816 0.0
C1427 C 0.87924 0.02862 0.93151 0.0
N1428 N 0.87937 0.98615 0.04693 0.0
N1429 N 0.87918 0.00886 0.95137 0.0
H1430 H 0.17915 0.61815 0.25517 0.0
H1431 H 0.31494 0.61846 0.24493 0.0
H1432 H 0.21609 0.63106 0.1531 0.0
H1433 H 0.27798 0.63084 0.34722 0.0
H1434 H 0.2788 0.61842 0.21078 0.0
H1435 H 0.21528 0.61813 0.28935 0.0
C1436 C 0.19487 0.62093 0.23993 0.0
C1437 C 0.19464 0.62466 0.20123 0.0
C1438 C 0.27863 0.62119 0.24067 0.0
C1439 C 0.23597 0.62451 0.24017 0.0
C1440 C 0.29921 0.62112 0.26022 0.0
C1441 C 0.29944 0.6247 0.29897 0.0
C1442 C 0.2581 0.62453 0.26007 0.0
C1443 C 0.27857 0.62814 0.31733 0.0
C1444 C 0.21545 0.62101 0.2595 0.0
C1445 C 0.2155 0.62824 0.18295 0.0
N1446 N 0.2587 0.62784 0.29772 0.0
N1447 N 0.23536 0.62796 0.20257 0.0
H1448 H 0.36838 0.0645 0.49567 0.0
H1449 H 0.3697 0.92863 0.5068 0.0
H1450 H 0.38159 0.0279 0.59798 0.0
H1451 H 0.38152 0.96544 0.40427 0.0
H1452 H 0.36928 0.96488 0.5407 0.0
H1453 H 0.36842 0.02825 0.46174 0.0
C1454 C 0.37123 0.04883 0.51102 0.0
C1455 C 0.37504 0.04919 0.54971 0.0
C1456 C 0.372 0.965 0.51081 0.0
C1457 C 0.37496 0.00772 0.51105 0.0
C1458 C 0.37215 0.94435 0.4914 0.0
C1459 C 0.3757 0.94404 0.45265 0.0
C1460 C 0.3751 0.98552 0.49128 0.0
C1461 C 0.37885 0.96491 0.43416 0.0
C1462 C 0.37134 0.02818 0.49159 0.0
C1463 C 0.37871 0.02839 0.56813 0.0
N1464 N 0.37837 0.98484 0.45364 0.0
N1465 N 0.37847 0.00845 0.54864 0.0
H1466 H 0.77786 0.63409 0.14874 0.0
H1467 H 0.71573 0.6345 0.3469 0.0
H1468 H 0.8135 0.62211 0.25244 0.0
H1469 H 0.68001 0.62166 0.24349 0.0
H1470 H 0.75183 0.63479 0.31252 0.0
H1471 H 0.74168 0.63434 0.183 0.0
C1472 C 0.77807 0.63157 0.1787 0.0
C1473 C 0.79867 0.62804 0.19779 0.0
C1474 C 0.73607 0.63188 0.29743 0.0
C1475 C 0.7575 0.62847 0.23703 0.0
C1476 C 0.71548 0.6318 0.31698 0.0
C1477 C 0.69487 0.62801 0.29801 0.0
C1478 C 0.73599 0.62848 0.25861 0.0
C1479 C 0.69553 0.62453 0.25923 0.0
C1480 C 0.75744 0.63163 0.19817 0.0
C1481 C 0.79798 0.62478 0.23659 0.0
N1482 N 0.71576 0.62495 0.24077 0.0
N1483 N 0.77772 0.62518 0.25497 0.0
H1484 H 0.1135 0.96611 0.10219 0.0
H1485 H 0.11264 0.02597 0.90226 0.0
H1486 H 0.12606 0.92931 0.99972 0.0
H1487 H 0.12494 0.06302 0.00461 0.0
H1488 H 0.11314 0.9902 0.93764 0.0
H1489 H 0.1133 0.00191 0.06685 0.0
C1490 C 0.11619 0.96557 0.07229 0.0
C1491 C 0.11982 0.94474 0.05386 0.0
C1492 C 0.11578 0.00618 0.95228 0.0
C1493 C 0.11944 0.98548 0.01335 0.0
C1494 C 0.11541 0.02658 0.93215 0.0
C1495 C 0.11878 0.04747 0.95053 0.0
C1496 C 0.1192 0.00674 0.99109 0.0
C1497 C 0.12238 0.04728 0.9893 0.0
C1498 C 0.11616 0.98597 0.05219 0.0
C1499 C 0.1233 0.94501 0.01508 0.0
N1500 N 0.12236 0.02724 0.00833 0.0
N1501 N 0.12289 0.96505 0.99607 0.0
H1502 H 0.71634 0.36261 0.6499 0.0
H1503 H 0.77732 0.36287 0.84905 0.0
H1504 H 0.68013 0.37567 0.75267 0.0
H1505 H 0.81372 0.37504 0.74623 0.0
H1506 H 0.74138 0.36299 0.81409 0.0
H1507 H 0.75232 0.3626 0.68482 0.0
C1508 C 0.71596 0.36544 0.67979 0.0
C1509 C 0.69525 0.36917 0.69843 0.0
C1510 C 0.75725 0.36568 0.79925 0.0
C1511 C 0.7362 0.36901 0.73844 0.0
C1512 C 0.77775 0.36552 0.81914 0.0
C1513 C 0.7985 0.36897 0.80049 0.0
C1514 C 0.75758 0.36896 0.76043 0.0
C1515 C 0.79808 0.37242 0.76172 0.0
C1516 C 0.73647 0.36552 0.69965 0.0
C1517 C 0.69573 0.37283 0.73717 0.0
N1518 N 0.77794 0.3722 0.74292 0.0
N1519 N 0.71588 0.37253 0.75594 0.0
loop_
_geom_bond_atom_site_label_1
_geom_bond_atom_site_label_2
_geom_bond_distance
_geom_bond_site_symmetry_2
_ccdc_geom_bond_type
Co0 O2 2.143 . S
Co0 O8 2.074 . S
Co0 O11 2.093 . S
Co0 O24 2.097 . S
Co0 N41 2.151 . S
Co0 N49 2.214 . S
Co1 O2 2.160 . S
Co1 O7 2.058 . S
Co1 O17 2.057 . S
Co1 O32 2.037 . S
Co1 N36 2.145 . S
Co1 N57 2.257 . S
O2 Co0 2.143 . S
O2 Co1 2.160 . S
C3 O4 1.278 . S
C3 O11 1.224 . S
O4 C3 1.278 . S
C5 O6 1.245 . S
C5 O17 1.232 . S
O6 C5 1.245 . S
O7 Co1 2.058 . S
O7 C33 1.269 . S
O8 Co0 2.074 . S
O8 C33 1.257 . S
H9 C34 0.930 . S
H10 C40 0.930 . S
O11 Co0 2.093 . S
O11 C3 1.224 . S
H12 C44 0.944 . S
H13 C46 0.930 . S
H14 C47 0.930 . S
H15 C45 0.929 . S
H16 C48 0.928 . S
O17 Co1 2.057 . S
O17 C5 1.232 . S
H18 C37 0.929 . S
H19 C38 0.929 . S
H20 C50 0.931 . S
H21 C42 0.929 . S
H22 C51 0.930 . S
H23 C43 0.931 . S
O24 Co0 2.097 . S
O24 C52 1.214 . S
H25 C53 0.929 . S
H26 C54 0.929 . S
H27 C55 0.930 . S
H28 C56 0.929 . S
H29 C58 0.930 . S
H30 C35 0.930 . S
H31 C39 0.930 . S
O32 Co1 2.037 . S
O32 C52 1.234 . S
C33 O7 1.269 . S
C33 O8 1.257 . S
C34 H9 0.930 . S
C34 C37 1.388 . S
C34 C39 1.418 . S
C35 H30 0.930 . S
C35 C38 1.404 . S
C35 C39 1.353 . S
N36 Co1 2.145 . S
N36 C37 1.397 . S
N36 C38 1.334 . S
C37 H18 0.929 . S
C37 C34 1.388 . S
C37 N36 1.397 . S
C38 H19 0.929 . S
C38 C35 1.404 . S
C38 N36 1.334 . S
C39 H31 0.930 . S
C39 C34 1.418 . S
C39 C35 1.353 . S
C40 H10 0.930 . S
C40 N41 1.330 . S
C40 C42 1.446 . S
N41 Co0 2.151 . S
N41 C40 1.330 . S
N41 C45 1.418 . S
C42 H21 0.929 . S
C42 C40 1.446 . S
C42 C43 1.332 1_554 S
C43 H23 0.931 . S
C43 C42 1.332 1_556 S
C43 C44 1.272 . S
C44 H12 0.944 . S
C44 C43 1.272 . S
C44 C45 1.233 1_556 S
C45 H15 0.929 . S
C45 N41 1.418 . S
C45 C44 1.233 1_554 S
C46 H13 0.930 . S
C46 C48 1.406 . S
C46 C51 1.261 . S
C47 H14 0.930 . S
C47 N49 1.325 . S
C47 C50 1.357 . S
C48 H16 0.928 . S
C48 C46 1.406 . S
C48 N49 1.261 1_556 S
N49 Co0 2.214 . S
N49 C47 1.325 . S
N49 C48 1.261 1_554 S
C50 H20 0.931 . S
C50 C47 1.357 . S
C50 C51 1.312 1_554 S
C51 H22 0.930 . S
C51 C46 1.261 . S
C51 C50 1.312 1_556 S
C52 O24 1.214 . S
C52 O32 1.234 . S
C53 H25 0.929 . S
C53 C56 1.391 . S
C53 C58 1.391 . S
C54 H26 0.929 . S
C54 C55 1.390 . S
C54 N57 1.391 . S
C55 H27 0.930 . S
C55 C54 1.390 . S
C55 C56 1.392 . S
C56 H28 0.929 . S
C56 C53 1.391 . S
C56 C55 1.392 . S
N57 Co1 2.257 . S
N57 C54 1.391 . S
N57 C58 1.388 . S
C58 H29 0.930 . S
C58 C53 1.391 . S
C58 N57 1.388 . S
Co59 O61 2.143 . S
Co59 O67 2.074 . S
Co59 O70 2.093 . S
Co59 O83 2.097 . S
Co59 N100 2.151 . S
Co59 N108 2.214 . S
Co60 O61 2.160 . S
Co60 O66 2.058 . S
Co60 O76 2.057 . S
Co60 O91 2.037 . S
Co60 N95 2.145 . S
Co60 N116 2.257 . S
O61 Co59 2.143 . S
O61 Co60 2.160 . S
C62 O63 1.278 . S
C62 O70 1.224 . S
O63 C62 1.278 . S
C64 O65 1.245 . S
C64 O76 1.232 . S
O65 C64 1.245 . S
O66 Co60 2.058 . S
O66 C92 1.269 . S
O67 Co59 2.074 . S
O67 C92 1.257 . S
H68 C93 0.930 . S
H69 C99 0.930 . S
O70 Co59 2.093 . S
O70 C62 1.224 . S
H71 C103 0.929 . S
H72 C105 0.930 . S
H73 C106 0.930 . S
H74 C104 0.929 . S
H75 C107 0.928 . S
O76 Co60 2.057 . S
O76 C64 1.232 . S
H77 C96 0.929 . S
H78 C97 0.929 . S
H79 C109 0.931 . S
H80 C101 0.929 . S
H81 C110 0.930 . S
H82 C102 0.931 . S
O83 Co59 2.097 . S
O83 C111 1.214 . S
H84 C112 0.929 . S
H85 C113 0.929 . S
H86 C114 0.930 . S
H87 C115 0.929 . S
H88 C117 0.930 . S
H89 C94 0.930 . S
H90 C98 0.930 . S
O91 Co60 2.037 . S
O91 C111 1.234 . S
C92 O66 1.269 . S
C92 O67 1.257 . S
C93 H68 0.930 . S
C93 C96 1.388 . S
C93 C98 1.418 . S
C94 H89 0.930 . S
C94 C97 1.404 . S
C94 C98 1.353 . S
N95 Co60 2.145 . S
N95 C96 1.397 . S
N95 C97 1.334 . S
C96 H77 0.929 . S
C96 C93 1.388 . S
C96 N95 1.397 . S
C97 H78 0.929 . S
C97 C94 1.404 . S
C97 N95 1.334 . S
C98 H90 0.930 . S
C98 C93 1.418 . S
C98 C94 1.353 . S
C99 H69 0.930 . S
C99 N100 1.330 . S
C99 C101 1.446 . S
N100 Co59 2.151 . S
N100 C99 1.330 . S
N100 C104 1.418 . S
C101 H80 0.929 . S
C101 C99 1.446 . S
C101 C102 1.332 . S
C102 H82 0.931 . S
C102 C101 1.332 . S
C102 C103 1.267 . S
C103 H71 0.929 . S
C103 C102 1.267 . S
C103 C104 1.251 . S
C104 H74 0.929 . S
C104 N100 1.418 . S
C104 C103 1.251 . S
C105 H72 0.930 . S
C105 C107 1.406 . S
C105 C110 1.261 . S
C106 H73 0.930 . S
C106 N108 1.325 . S
C106 C109 1.357 . S
C107 H75 0.928 . S
C107 C105 1.406 . S
C107 N108 1.261 . S
N108 Co59 2.214 . S
N108 C106 1.325 . S
N108 C107 1.261 . S
C109 H79 0.931 . S
C109 C106 1.357 . S
C109 C110 1.312 . S
C110 H81 0.930 . S
C110 C105 1.261 . S
C110 C109 1.312 . S
C111 O83 1.214 . S
C111 O91 1.234 . S
C112 H84 0.929 . S
C112 C115 1.391 . S
C112 C117 1.391 . S
C113 H85 0.929 . S
C113 C114 1.390 . S
C113 N116 1.391 . S
C114 H86 0.930 . S
C114 C113 1.390 . S
C114 C115 1.392 . S
C115 H87 0.929 . S
C115 C112 1.391 . S
C115 C114 1.392 . S
N116 Co60 2.257 . S
N116 C113 1.391 . S
N116 C117 1.388 . S
C117 H88 0.930 . S
C117 C112 1.391 . S
C117 N116 1.388 . S
Co118 O120 2.143 . S
Co118 O126 2.074 . S
Co118 O129 2.093 . S
Co118 O142 2.097 . S
Co118 N159 2.151 . S
Co118 N167 2.214 . S
Co119 O120 2.160 . S
Co119 O125 2.058 . S
Co119 O135 2.057 . S
Co119 O150 2.037 . S
Co119 N154 2.145 . S
Co119 N175 2.257 . S
O120 Co118 2.143 . S
O120 Co119 2.160 . S
C121 O122 1.278 . S
C121 O129 1.224 . S
O122 C121 1.278 . S
C123 O124 1.245 . S
C123 O135 1.232 . S
O124 C123 1.245 . S
O125 Co119 2.058 . S
O125 C151 1.269 . S
O126 Co118 2.074 . S
O126 C151 1.257 . S
H127 C152 0.930 . S
H128 C158 0.930 . S
O129 Co118 2.093 . S
O129 C121 1.224 . S
H130 C162 0.929 . S
H131 C164 0.930 . S
H132 C165 0.930 . S
H133 C163 0.929 . S
H134 C166 0.928 . S
O135 Co119 2.057 . S
O135 C123 1.232 . S
H136 C155 0.929 . S
H137 C156 0.929 . S
H138 C168 0.931 . S
H139 C160 0.929 . S
H140 C169 0.930 . S
H141 C161 0.931 . S
O142 Co118 2.097 . S
O142 C170 1.214 . S
H143 C171 0.929 . S
H144 C172 0.929 . S
H145 C173 0.930 . S
H146 C174 0.929 . S
H147 C176 0.930 . S
H148 C153 0.930 . S
H149 C157 0.930 . S
O150 Co119 2.037 . S
O150 C170 1.234 . S
C151 O125 1.269 . S
C151 O126 1.257 . S
C152 H127 0.930 . S
C152 C155 1.388 . S
C152 C157 1.418 . S
C153 H148 0.930 . S
C153 C156 1.404 . S
C153 C157 1.353 . S
N154 Co119 2.145 . S
N154 C155 1.397 . S
N154 C156 1.334 . S
C155 H136 0.929 . S
C155 C152 1.388 . S
C155 N154 1.397 . S
C156 H137 0.929 . S
C156 C153 1.404 . S
C156 N154 1.334 . S
C157 H149 0.930 . S
C157 C152 1.418 . S
C157 C153 1.353 . S
C158 H128 0.930 . S
C158 N159 1.330 . S
C158 C160 1.446 . S
N159 Co118 2.151 . S
N159 C158 1.330 . S
N159 C163 1.418 . S
C160 H139 0.929 . S
C160 C158 1.446 . S
C160 C161 1.332 . S
C161 H141 0.931 . S
C161 C160 1.332 . S
C161 C162 1.267 . S
C162 H130 0.929 . S
C162 C161 1.267 . S
C162 C163 1.251 . S
C163 H133 0.929 . S
C163 N159 1.418 . S
C163 C162 1.251 . S
C164 H131 0.930 . S
C164 C166 1.406 . S
C164 C169 1.261 . S
C165 H132 0.930 . S
C165 N167 1.325 . S
C165 C168 1.357 . S
C166 H134 0.928 . S
C166 C164 1.406 . S
C166 N167 1.261 . S
N167 Co118 2.214 . S
N167 C165 1.325 . S
N167 C166 1.261 . S
C168 H138 0.931 . S
C168 C165 1.357 . S
C168 C169 1.312 . S
C169 H140 0.930 . S
C169 C164 1.261 . S
C169 C168 1.312 . S
C170 O142 1.214 . S
C170 O150 1.234 . S
C171 H143 0.929 . S
C171 C174 1.391 . S
C171 C176 1.391 . S
C172 H144 0.929 . S
C172 C173 1.390 . S
C172 N175 1.391 . S
C173 H145 0.930 . S
C173 C172 1.390 . S
C173 C174 1.392 . S
C174 H146 0.929 . S
C174 C171 1.391 . S
C174 C173 1.392 . S
N175 Co119 2.257 . S
N175 C172 1.391 . S
N175 C176 1.388 . S
C176 H147 0.930 . S
C176 C171 1.391 . S
C176 N175 1.388 . S
Co177 O179 2.143 . S
Co177 O185 2.074 . S
Co177 O188 2.093 . S
Co177 O201 2.097 . S
Co177 N218 2.151 . S
Co177 N226 2.214 . S
Co178 O179 2.160 . S
Co178 O184 2.058 . S
Co178 O194 2.057 . S
Co178 O209 2.037 . S
Co178 N213 2.145 . S
Co178 N234 2.257 . S
O179 Co177 2.143 . S
O179 Co178 2.160 . S
C180 O181 1.278 . S
C180 O188 1.224 . S
O181 C180 1.278 . S
C182 O183 1.245 . S
C182 O194 1.232 . S
O183 C182 1.245 . S
O184 Co178 2.058 . S
O184 C210 1.269 . S
O185 Co177 2.074 . S
O185 C210 1.257 . S
H186 C211 0.930 . S
H187 C217 0.930 . S
O188 Co177 2.093 . S
O188 C180 1.224 . S
H189 C221 0.929 . S
H190 C223 0.930 . S
H191 C224 0.930 . S
H192 C222 0.929 . S
H193 C225 0.928 . S
O194 Co178 2.057 . S
O194 C182 1.232 . S
H195 C214 0.929 . S
H196 C215 0.929 . S
H197 C227 0.931 . S
H198 C219 0.929 . S
H199 C228 0.930 . S
H200 C220 0.931 . S
O201 Co177 2.097 . S
O201 C229 1.214 . S
H202 C230 0.929 . S
H203 C231 0.929 . S
H204 C232 0.930 . S
H205 C233 0.929 . S
H206 C235 0.930 . S
H207 C212 0.930 . S
H208 C216 0.930 . S
O209 Co178 2.037 . S
O209 C229 1.234 . S
C210 O184 1.269 . S
C210 O185 1.257 . S
C211 H186 0.930 . S
C211 C214 1.388 1_554 S
C211 C216 1.418 . S
C212 H207 0.930 . S
C212 C215 1.404 . S
C212 C216 1.353 . S
N213 Co178 2.145 . S
N213 C214 1.397 . S
N213 C215 1.334 1_556 S
C214 H195 0.929 . S
C214 C211 1.388 1_556 S
C214 N213 1.397 . S
C215 H196 0.929 . S
C215 C212 1.404 . S
C215 N213 1.334 1_554 S
C216 H208 0.930 . S
C216 C211 1.418 . S
C216 C212 1.353 . S
C217 H187 0.930 . S
C217 N218 1.330 . S
C217 C219 1.446 . S
N218 Co177 2.151 . S
N218 C217 1.330 . S
N218 C222 1.418 . S
C219 H198 0.929 . S
C219 C217 1.446 . S
C219 C220 1.332 . S
C220 H200 0.931 . S
C220 C219 1.332 . S
C220 C221 1.267 . S
C221 H189 0.929 . S
C221 C220 1.267 . S
C221 C222 1.251 . S
C222 H192 0.929 . S
C222 N218 1.418 . S
C222 C221 1.251 . S
C223 H190 0.930 . S
C223 C225 1.406 . S
C223 C228 1.261 . S
C224 H191 0.930 . S
C224 N226 1.325 . S
C224 C227 1.357 . S
C225 H193 0.928 . S
C225 C223 1.406 . S
C225 N226 1.261 . S
N226 Co177 2.214 . S
N226 C224 1.325 . S
N226 C225 1.261 . S
C227 H197 0.931 . S
C227 C224 1.357 . S
C227 C228 1.312 . S
C228 H199 0.930 . S
C228 C223 1.261 . S
C228 C227 1.312 . S
C229 O201 1.214 . S
C229 O209 1.234 . S
C230 H202 0.929 . S
C230 C233 1.391 . S
C230 C235 1.391 . S
C231 H203 0.929 . S
C231 C232 1.390 . S
C231 N234 1.391 . S
C232 H204 0.930 . S
C232 C231 1.390 . S
C232 C233 1.392 . S
C233 H205 0.929 . S
C233 C230 1.391 . S
C233 C232 1.392 . S
N234 Co178 2.257 . S
N234 C231 1.391 . S
N234 C235 1.388 . S
C235 H206 0.930 . S
C235 C230 1.391 . S
C235 N234 1.388 . S
Co236 O238 2.143 . S
Co236 O244 2.074 . S
Co236 O247 2.093 . S
Co236 O260 2.097 . S
Co236 N277 2.151 . S
Co236 N285 2.214 . S
Co237 O238 2.160 . S
Co237 O243 2.058 . S
Co237 O253 2.057 . S
Co237 O268 2.037 . S
Co237 N272 2.145 . S
Co237 N293 2.257 . S
O238 Co236 2.143 . S
O238 Co237 2.160 . S
C239 O240 1.278 . S
C239 O247 1.224 . S
O240 C239 1.278 . S
C241 O242 1.245 . S
C241 O253 1.232 . S
O242 C241 1.245 . S
O243 Co237 2.058 . S
O243 C269 1.269 . S
O244 Co236 2.074 . S
O244 C269 1.257 . S
H245 C270 0.930 . S
H246 C276 0.930 . S
O247 Co236 2.093 . S
O247 C239 1.224 . S
H248 C280 0.929 . S
H249 C282 0.930 . S
H250 C283 0.930 . S
H251 C281 0.929 . S
H252 C284 0.928 . S
O253 Co237 2.057 . S
O253 C241 1.232 . S
H254 C273 0.929 . S
H255 C274 0.929 . S
H256 C286 0.931 . S
H257 C278 0.929 . S
H258 C287 0.930 . S
H259 C279 0.931 . S
O260 Co236 2.097 . S
O260 C288 1.214 . S
H261 C289 0.929 . S
H262 C290 0.929 . S
H263 C291 0.930 . S
H264 C292 0.929 . S
H265 C294 0.930 . S
H266 C271 0.930 . S
H267 C275 0.930 . S
O268 Co237 2.037 . S
O268 C288 1.234 . S
C269 O243 1.269 . S
C269 O244 1.257 . S
C270 H245 0.930 . S
C270 C273 1.388 . S
C270 C275 1.418 . S
C271 H266 0.930 . S
C271 C274 1.404 . S
C271 C275 1.353 . S
N272 Co237 2.145 . S
N272 C273 1.397 . S
N272 C274 1.334 . S
C273 H254 0.929 . S
C273 C270 1.388 . S
C273 N272 1.397 . S
C274 H255 0.929 . S
C274 C271 1.404 . S
C274 N272 1.334 . S
C275 H267 0.930 . S
C275 C270 1.418 . S
C275 C271 1.353 . S
C276 H246 0.930 . S
C276 N277 1.330 . S
C276 C278 1.446 . S
N277 Co236 2.151 . S
N277 C276 1.330 . S
N277 C281 1.418 . S
C278 H257 0.929 . S
C278 C276 1.446 . S
C278 C279 1.332 1_556 S
C279 H259 0.931 . S
C279 C278 1.332 1_554 S
C279 C280 1.267 . S
C280 H248 0.929 . S
C280 C279 1.267 . S
C280 C281 1.251 1_554 S
C281 H251 0.929 . S
C281 N277 1.418 . S
C281 C280 1.251 1_556 S
C282 H249 0.930 . S
C282 C284 1.406 . S
C282 C287 1.261 . S
C283 H250 0.930 . S
C283 N285 1.325 . S
C283 C286 1.357 . S
C284 H252 0.928 . S
C284 C282 1.406 . S
C284 N285 1.261 1_554 S
N285 Co236 2.214 . S
N285 C283 1.325 . S
N285 C284 1.261 1_556 S
C286 H256 0.931 . S
C286 C283 1.357 . S
C286 C287 1.312 1_556 S
C287 H258 0.930 . S
C287 C282 1.261 . S
C287 C286 1.312 1_554 S
C288 O260 1.214 . S
C288 O268 1.234 . S
C289 H261 0.929 . S
C289 C292 1.391 . S
C289 C294 1.391 . S
C290 H262 0.929 . S
C290 C291 1.390 . S
C290 N293 1.391 . S
C291 H263 0.930 . S
C291 C290 1.390 . S
C291 C292 1.392 . S
C292 H264 0.929 . S
C292 C289 1.391 . S
C292 C291 1.392 . S
N293 Co237 2.257 . S
N293 C290 1.391 . S
N293 C294 1.388 . S
C294 H265 0.930 . S
C294 C289 1.391 . S
C294 N293 1.388 . S
Co295 O297 2.143 . S
Co295 O303 2.074 . S
Co295 O306 2.093 . S
Co295 O319 2.097 . S
Co295 N336 2.151 . S
Co295 N344 2.214 . S
Co296 O297 2.160 . S
Co296 O302 2.058 . S
Co296 O312 2.057 . S
Co296 O327 2.037 . S
Co296 N331 2.145 . S
Co296 N352 2.257 . S
O297 Co295 2.143 . S
O297 Co296 2.160 . S
C298 O299 1.278 . S
C298 O306 1.224 . S
O299 C298 1.278 . S
C300 O301 1.245 . S
C300 O312 1.232 . S
O301 C300 1.245 . S
O302 Co296 2.058 . S
O302 C328 1.269 . S
O303 Co295 2.074 . S
O303 C328 1.257 . S
H304 C329 0.930 . S
H305 C335 0.930 . S
O306 Co295 2.093 . S
O306 C298 1.224 . S
H307 C339 0.929 . S
H308 C341 0.930 . S
H309 C342 0.930 . S
H310 C340 0.929 . S
H311 C343 0.928 . S
O312 Co296 2.057 . S
O312 C300 1.232 . S
H313 C332 0.929 . S
H314 C333 0.929 . S
H315 C345 0.931 . S
H316 C337 0.929 . S
H317 C346 0.930 . S
H318 C338 0.931 . S
O319 Co295 2.097 . S
O319 C347 1.214 . S
H320 C348 0.929 . S
H321 C349 0.929 . S
H322 C350 0.930 . S
H323 C351 0.929 . S
H324 C353 0.930 . S
H325 C330 0.930 . S
H326 C334 0.930 . S
O327 Co296 2.037 . S
O327 C347 1.234 . S
C328 O302 1.269 . S
C328 O303 1.257 . S
C329 H304 0.930 . S
C329 C332 1.388 . S
C329 C334 1.418 . S
C330 H325 0.930 . S
C330 C333 1.404 . S
C330 C334 1.353 . S
N331 Co296 2.145 . S
N331 C332 1.397 . S
N331 C333 1.334 . S
C332 H313 0.929 . S
C332 C329 1.388 . S
C332 N331 1.397 . S
C333 H314 0.929 . S
C333 C330 1.404 . S
C333 N331 1.334 . S
C334 H326 0.930 . S
C334 C329 1.418 . S
C334 C330 1.353 . S
C335 H305 0.930 . S
C335 N336 1.330 . S
C335 C337 1.446 . S
N336 Co295 2.151 . S
N336 C335 1.330 . S
N336 C340 1.418 . S
C337 H316 0.929 . S
C337 C335 1.446 . S
C337 C338 1.332 1_554 S
C338 H318 0.931 . S
C338 C337 1.332 1_556 S
C338 C339 1.267 . S
C339 H307 0.929 . S
C339 C338 1.267 . S
C339 C340 1.251 1_556 S
C340 H310 0.929 . S
C340 N336 1.418 . S
C340 C339 1.251 1_554 S
C341 H308 0.930 . S
C341 C343 1.406 . S
C341 C346 1.261 . S
C342 H309 0.930 . S
C342 N344 1.325 . S
C342 C345 1.357 . S
C343 H311 0.928 . S
C343 C341 1.406 . S
C343 N344 1.261 1_556 S
N344 Co295 2.214 . S
N344 C342 1.325 . S
N344 C343 1.261 1_554 S
C345 H315 0.931 . S
C345 C342 1.357 . S
C345 C346 1.312 1_554 S
C346 H317 0.930 . S
C346 C341 1.261 . S
C346 C345 1.312 1_556 S
C347 O319 1.214 . S
C347 O327 1.234 . S
C348 H320 0.929 . S
C348 C351 1.391 . S
C348 C353 1.391 . S
C349 H321 0.929 . S
C349 C350 1.390 . S
C349 N352 1.391 . S
C350 H322 0.930 . S
C350 C349 1.390 . S
C350 C351 1.392 . S
C351 H323 0.929 . S
C351 C348 1.391 . S
C351 C350 1.392 . S
N352 Co296 2.257 . S
N352 C349 1.391 . S
N352 C353 1.388 . S
C353 H324 0.930 . S
C353 C348 1.391 . S
C353 N352 1.388 . S
Co354 O356 2.143 . S
Co354 O362 2.074 . S
Co354 O365 2.093 . S
Co354 O378 2.097 . S
Co354 N395 2.151 . S
Co354 N403 2.214 . S
Co355 O356 2.160 . S
Co355 O361 2.058 . S
Co355 O371 2.057 . S
Co355 O386 2.037 . S
Co355 N390 2.145 . S
Co355 N411 2.257 . S
O356 Co354 2.143 . S
O356 Co355 2.160 . S
C357 O358 1.278 . S
C357 O365 1.224 . S
O358 C357 1.278 . S
C359 O360 1.245 . S
C359 O371 1.232 . S
O360 C359 1.245 . S
O361 Co355 2.058 . S
O361 C387 1.269 . S
O362 Co354 2.074 . S
O362 C387 1.257 . S
H363 C388 0.930 . S
H364 C394 0.930 . S
O365 Co354 2.093 . S
O365 C357 1.224 . S
H366 C398 0.929 . S
H367 C400 0.930 . S
H368 C401 0.930 . S
H369 C399 0.929 . S
H370 C402 0.928 . S
O371 Co355 2.057 . S
O371 C359 1.232 . S
H372 C391 0.929 . S
H373 C392 0.929 . S
H374 C404 0.931 . S
H375 C396 0.929 . S
H376 C405 0.930 . S
H377 C397 0.931 . S
O378 Co354 2.097 . S
O378 C406 1.214 . S
H379 C407 0.929 . S
H380 C408 0.929 . S
H381 C409 0.930 . S
H382 C410 0.929 . S
H383 C412 0.930 . S
H384 C389 0.930 . S
H385 C393 0.930 . S
O386 Co355 2.037 . S
O386 C406 1.234 . S
C387 O361 1.269 . S
C387 O362 1.257 . S
C388 H363 0.930 . S
C388 C391 1.388 . S
C388 C393 1.418 . S
C389 H384 0.930 . S
C389 C392 1.404 . S
C389 C393 1.353 . S
N390 Co355 2.145 . S
N390 C391 1.397 . S
N390 C392 1.334 . S
C391 H372 0.929 . S
C391 C388 1.388 . S
C391 N390 1.397 . S
C392 H373 0.929 . S
C392 C389 1.404 . S
C392 N390 1.334 . S
C393 H385 0.930 . S
C393 C388 1.418 . S
C393 C389 1.353 . S
C394 H364 0.930 . S
C394 N395 1.330 . S
C394 C396 1.446 . S
N395 Co354 2.151 . S
N395 C394 1.330 . S
N395 C399 1.418 . S
C396 H375 0.929 . S
C396 C394 1.446 . S
C396 C397 1.332 . S
C397 H377 0.931 . S
C397 C396 1.332 . S
C397 C398 1.267 . S
C398 H366 0.929 . S
C398 C397 1.267 . S
C398 C399 1.251 . S
C399 H369 0.929 . S
C399 N395 1.418 . S
C399 C398 1.251 . S
C400 H367 0.930 . S
C400 C402 1.406 . S
C400 C405 1.261 . S
C401 H368 0.930 . S
C401 N403 1.325 . S
C401 C404 1.357 . S
C402 H370 0.928 . S
C402 C400 1.406 . S
C402 N403 1.261 . S
N403 Co354 2.214 . S
N403 C401 1.325 . S
N403 C402 1.261 . S
C404 H374 0.931 . S
C404 C401 1.357 . S
C404 C405 1.312 . S
C405 H376 0.930 . S
C405 C400 1.261 . S
C405 C404 1.312 . S
C406 O378 1.214 . S
C406 O386 1.234 . S
C407 H379 0.929 . S
C407 C410 1.391 . S
C407 C412 1.391 . S
C408 H380 0.929 . S
C408 C409 1.390 . S
C408 N411 1.391 . S
C409 H381 0.930 . S
C409 C408 1.390 . S
C409 C410 1.392 . S
C410 H382 0.929 . S
C410 C407 1.391 . S
C410 C409 1.392 . S
N411 Co355 2.257 . S
N411 C408 1.391 . S
N411 C412 1.388 . S
C412 H383 0.930 . S
C412 C407 1.391 . S
C412 N411 1.388 . S
Co413 O415 2.143 . S
Co413 O421 2.074 . S
Co413 O424 2.093 . S
Co413 O437 2.097 . S
Co413 N454 2.151 . S
Co413 N462 2.214 . S
Co414 O415 2.160 . S
Co414 O420 2.058 . S
Co414 O430 2.057 . S
Co414 O445 2.037 . S
Co414 N449 2.145 . S
Co414 N470 2.257 . S
O415 Co413 2.143 . S
O415 Co414 2.160 . S
C416 O417 1.278 . S
C416 O424 1.224 . S
O417 C416 1.278 . S
C418 O419 1.245 . S
C418 O430 1.232 . S
O419 C418 1.245 . S
O420 Co414 2.058 . S
O420 C446 1.269 . S
O421 Co413 2.074 . S
O421 C446 1.257 . S
H422 C447 0.930 . S
H423 C453 0.930 . S
O424 Co413 2.093 . S
O424 C416 1.224 . S
H425 C457 0.929 . S
H426 C459 0.930 . S
H427 C460 0.930 . S
H428 C458 0.929 . S
H429 C461 0.928 . S
O430 Co414 2.057 . S
O430 C418 1.232 . S
H431 C450 0.929 . S
H432 C451 0.929 . S
H433 C463 0.931 . S
H434 C455 0.929 . S
H435 C464 0.930 . S
H436 C456 0.931 . S
O437 Co413 2.097 . S
O437 C465 1.214 . S
H438 C466 0.929 . S
H439 C467 0.929 . S
H440 C468 0.930 . S
H441 C469 0.929 . S
H442 C471 0.930 . S
H443 C448 0.930 . S
H444 C452 0.930 . S
O445 Co414 2.037 . S
O445 C465 1.234 . S
C446 O420 1.269 . S
C446 O421 1.257 . S
C447 H422 0.930 . S
C447 C450 1.388 . S
C447 C452 1.418 . S
C448 H443 0.930 . S
C448 C451 1.404 . S
C448 C452 1.353 . S
N449 Co414 2.145 . S
N449 C450 1.397 . S
N449 C451 1.334 . S
C450 H431 0.929 . S
C450 C447 1.388 . S
C450 N449 1.397 . S
C451 H432 0.929 . S
C451 C448 1.404 . S
C451 N449 1.334 . S
C452 H444 0.930 . S
C452 C447 1.418 . S
C452 C448 1.353 . S
C453 H423 0.930 . S
C453 N454 1.330 . S
C453 C455 1.446 . S
N454 Co413 2.151 . S
N454 C453 1.330 . S
N454 C458 1.418 . S
C455 H434 0.929 . S
C455 C453 1.446 . S
C455 C456 1.332 . S
C456 H436 0.931 . S
C456 C455 1.332 . S
C456 C457 1.267 . S
C457 H425 0.929 . S
C457 C456 1.267 . S
C457 C458 1.251 . S
C458 H428 0.929 . S
C458 N454 1.418 . S
C458 C457 1.251 . S
C459 H426 0.930 . S
C459 C461 1.406 . S
C459 C464 1.261 . S
C460 H427 0.930 . S
C460 N462 1.325 . S
C460 C463 1.357 . S
C461 H429 0.928 . S
C461 C459 1.406 . S
C461 N462 1.261 . S
N462 Co413 2.214 . S
N462 C460 1.325 . S
N462 C461 1.261 . S
C463 H433 0.931 . S
C463 C460 1.357 . S
C463 C464 1.312 . S
C464 H435 0.930 . S
C464 C459 1.261 . S
C464 C463 1.312 . S
C465 O437 1.214 . S
C465 O445 1.234 . S
C466 H438 0.929 . S
C466 C469 1.391 . S
C466 C471 1.391 . S
C467 H439 0.929 . S
C467 C468 1.390 . S
C467 N470 1.391 . S
C468 H440 0.930 . S
C468 C467 1.390 . S
C468 C469 1.392 . S
C469 H441 0.929 . S
C469 C466 1.391 . S
C469 C468 1.392 . S
N470 Co414 2.257 . S
N470 C467 1.391 . S
N470 C471 1.388 . S
C471 H442 0.930 . S
C471 C466 1.391 . S
C471 N470 1.388 . S
Co472 O474 2.143 . S
Co472 O480 2.074 . S
Co472 O483 2.093 . S
Co472 O496 2.097 . S
Co472 N513 2.151 . S
Co472 N521 2.214 . S
Co473 O474 2.160 . S
Co473 O479 2.058 . S
Co473 O489 2.057 . S
Co473 O504 2.037 . S
Co473 N508 2.145 . S
Co473 N529 2.257 . S
O474 Co472 2.143 . S
O474 Co473 2.160 . S
C475 O476 1.278 . S
C475 O483 1.224 . S
O476 C475 1.278 . S
C477 O478 1.245 . S
C477 O489 1.232 . S
O478 C477 1.245 . S
O479 Co473 2.058 . S
O479 C505 1.269 . S
O480 Co472 2.074 . S
O480 C505 1.257 . S
H481 C506 0.930 . S
H482 C512 0.930 . S
O483 Co472 2.093 . S
O483 C475 1.224 . S
H484 C516 0.943 . S
H485 C518 0.930 . S
H486 C519 0.930 . S
H487 C517 0.929 . S
H488 C520 0.928 . S
O489 Co473 2.057 . S
O489 C477 1.232 . S
H490 C509 0.929 . S
H491 C510 0.929 . S
H492 C522 0.931 . S
H493 C514 0.929 . S
H494 C523 0.930 . S
H495 C515 0.931 . S
O496 Co472 2.097 . S
O496 C524 1.214 . S
H497 C525 0.929 . S
H498 C526 0.929 . S
H499 C527 0.930 . S
H500 C528 0.929 . S
H501 C530 0.930 . S
H502 C507 0.930 . S
H503 C511 0.930 . S
O504 Co473 2.037 . S
O504 C524 1.234 . S
C505 O479 1.269 . S
C505 O480 1.257 . S
C506 H481 0.930 . S
C506 C509 1.388 . S
C506 C511 1.418 . S
C507 H502 0.930 . S
C507 C510 1.404 . S
C507 C511 1.353 . S
N508 Co473 2.145 . S
N508 C509 1.397 . S
N508 C510 1.334 . S
C509 H490 0.929 . S
C509 C506 1.388 . S
C509 N508 1.397 . S
C510 H491 0.929 . S
C510 C507 1.404 . S
C510 N508 1.334 . S
C511 H503 0.930 . S
C511 C506 1.418 . S
C511 C507 1.353 . S
C512 H482 0.930 . S
C512 N513 1.330 . S
C512 C514 1.446 . S
N513 Co472 2.151 . S
N513 C512 1.330 . S
N513 C517 1.418 . S
C514 H493 0.929 . S
C514 C512 1.446 . S
C514 C515 1.332 1_556 S
C515 H495 0.931 . S
C515 C514 1.332 1_554 S
C515 C516 1.271 . S
C516 H484 0.943 . S
C516 C515 1.271 . S
C516 C517 1.235 1_554 S
C517 H487 0.929 . S
C517 N513 1.418 . S
C517 C516 1.235 1_556 S
C518 H485 0.930 . S
C518 C520 1.406 . S
C518 C523 1.261 . S
C519 H486 0.930 . S
C519 N521 1.325 . S
C519 C522 1.357 . S
C520 H488 0.928 . S
C520 C518 1.406 . S
C520 N521 1.261 1_554 S
N521 Co472 2.214 . S
N521 C519 1.325 . S
N521 C520 1.261 1_556 S
C522 H492 0.931 . S
C522 C519 1.357 . S
C522 C523 1.312 1_556 S
C523 H494 0.930 . S
C523 C518 1.261 . S
C523 C522 1.312 1_554 S
C524 O496 1.214 . S
C524 O504 1.234 . S
C525 H497 0.929 . S
C525 C528 1.391 . S
C525 C530 1.391 . S
C526 H498 0.929 . S
C526 C527 1.390 . S
C526 N529 1.391 . S
C527 H499 0.930 . S
C527 C526 1.390 . S
C527 C528 1.392 . S
C528 H500 0.929 . S
C528 C525 1.391 . S
C528 C527 1.392 . S
N529 Co473 2.257 . S
N529 C526 1.391 . S
N529 C530 1.388 . S
C530 H501 0.930 . S
C530 C525 1.391 . S
C530 N529 1.388 . S
Co531 O533 2.143 . S
Co531 O539 2.074 . S
Co531 O542 2.093 . S
Co531 O555 2.097 . S
Co531 N572 2.151 . S
Co531 N580 2.214 . S
Co532 O533 2.160 . S
Co532 O538 2.058 . S
Co532 O548 2.057 . S
Co532 O563 2.037 . S
Co532 N567 2.145 . S
Co532 N588 2.257 . S
O533 Co531 2.143 . S
O533 Co532 2.160 . S
C534 O535 1.278 . S
C534 O542 1.224 . S
O535 C534 1.278 . S
C536 O537 1.245 . S
C536 O548 1.232 . S
O537 C536 1.245 . S
O538 Co532 2.058 . S
O538 C564 1.269 . S
O539 Co531 2.074 . S
O539 C564 1.257 . S
H540 C565 0.930 . S
H541 C571 0.930 . S
O542 Co531 2.093 . S
O542 C534 1.224 . S
H543 C575 0.929 . S
H544 C577 0.930 . S
H545 C578 0.930 . S
H546 C576 0.929 . S
H547 C579 0.928 . S
O548 Co532 2.057 . S
O548 C536 1.232 . S
H549 C568 0.929 . S
H550 C569 0.929 . S
H551 C581 0.931 . S
H552 C573 0.929 . S
H553 C582 0.930 . S
H554 C574 0.931 . S
O555 Co531 2.097 . S
O555 C583 1.214 . S
H556 C584 0.929 . S
H557 C585 0.929 . S
H558 C586 0.930 . S
H559 C587 0.929 . S
H560 C589 0.930 . S
H561 C566 0.930 . S
H562 C570 0.930 . S
O563 Co532 2.037 . S
O563 C583 1.234 . S
C564 O538 1.269 . S
C564 O539 1.257 . S
C565 H540 0.930 . S
C565 C568 1.388 . S
C565 C570 1.418 . S
C566 H561 0.930 . S
C566 C569 1.404 . S
C566 C570 1.353 . S
N567 Co532 2.145 . S
N567 C568 1.397 . S
N567 C569 1.334 . S
C568 H549 0.929 . S
C568 C565 1.388 . S
C568 N567 1.397 . S
C569 H550 0.929 . S
C569 C566 1.404 . S
C569 N567 1.334 . S
C570 H562 0.930 . S
C570 C565 1.418 . S
C570 C566 1.353 . S
C571 H541 0.930 . S
C571 N572 1.330 . S
C571 C573 1.446 . S
N572 Co531 2.151 . S
N572 C571 1.330 . S
N572 C576 1.418 . S
C573 H552 0.929 . S
C573 C571 1.446 . S
C573 C574 1.332 . S
C574 H554 0.931 . S
C574 C573 1.332 . S
C574 C575 1.267 . S
C575 H543 0.929 . S
C575 C574 1.267 . S
C575 C576 1.251 . S
C576 H546 0.929 . S
C576 N572 1.418 . S
C576 C575 1.251 . S
C577 H544 0.930 . S
C577 C579 1.406 . S
C577 C582 1.261 . S
C578 H545 0.930 . S
C578 N580 1.325 . S
C578 C581 1.357 . S
C579 H547 0.928 . S
C579 C577 1.406 . S
C579 N580 1.261 . S
N580 Co531 2.214 . S
N580 C578 1.325 . S
N580 C579 1.261 . S
C581 H551 0.931 . S
C581 C578 1.357 . S
C581 C582 1.312 . S
C582 H553 0.930 . S
C582 C577 1.261 . S
C582 C581 1.312 . S
C583 O555 1.214 . S
C583 O563 1.234 . S
C584 H556 0.929 . S
C584 C587 1.391 . S
C584 C589 1.391 . S
C585 H557 0.929 . S
C585 C586 1.390 . S
C585 N588 1.391 . S
C586 H558 0.930 . S
C586 C585 1.390 . S
C586 C587 1.392 . S
C587 H559 0.929 . S
C587 C584 1.391 . S
C587 C586 1.392 . S
N588 Co532 2.257 . S
N588 C585 1.391 . S
N588 C589 1.388 . S
C589 H560 0.930 . S
C589 C584 1.391 . S
C589 N588 1.388 . S
Co590 O592 2.143 . S
Co590 O598 2.074 . S
Co590 O601 2.093 . S
Co590 O614 2.097 . S
Co590 N631 2.151 . S
Co590 N639 2.214 . S
Co591 O592 2.160 . S
Co591 O597 2.058 . S
Co591 O607 2.057 . S
Co591 O622 2.037 . S
Co591 N626 2.145 . S
Co591 N647 2.257 . S
O592 Co590 2.143 . S
O592 Co591 2.160 . S
C593 O594 1.278 . S
C593 O601 1.224 . S
O594 C593 1.278 . S
C595 O596 1.245 . S
C595 O607 1.232 . S
O596 C595 1.245 . S
O597 Co591 2.058 . S
O597 C623 1.269 . S
O598 Co590 2.074 . S
O598 C623 1.257 . S
H599 C624 0.930 . S
H600 C630 0.930 . S
O601 Co590 2.093 . S
O601 C593 1.224 . S
H602 C634 0.929 . S
H603 C636 0.930 . S
H604 C637 0.930 . S
H605 C635 0.929 . S
H606 C638 0.928 . S
O607 Co591 2.057 . S
O607 C595 1.232 . S
H608 C627 0.929 . S
H609 C628 0.929 . S
H610 C640 0.931 . S
H611 C632 0.929 . S
H612 C641 0.930 . S
H613 C633 0.931 . S
O614 Co590 2.097 . S
O614 C642 1.214 . S
H615 C643 0.929 . S
H616 C644 0.929 . S
H617 C645 0.930 . S
H618 C646 0.929 . S
H619 C648 0.930 . S
H620 C625 0.930 . S
H621 C629 0.930 . S
O622 Co591 2.037 . S
O622 C642 1.234 . S
C623 O597 1.269 . S
C623 O598 1.257 . S
C624 H599 0.930 . S
C624 C627 1.388 . S
C624 C629 1.418 . S
C625 H620 0.930 . S
C625 C628 1.404 . S
C625 C629 1.353 . S
N626 Co591 2.145 . S
N626 C627 1.397 . S
N626 C628 1.334 . S
C627 H608 0.929 . S
C627 C624 1.388 . S
C627 N626 1.397 . S
C628 H609 0.929 . S
C628 C625 1.404 . S
C628 N626 1.334 . S
C629 H621 0.930 . S
C629 C624 1.418 . S
C629 C625 1.353 . S
C630 H600 0.930 . S
C630 N631 1.330 . S
C630 C632 1.446 . S
N631 Co590 2.151 . S
N631 C630 1.330 . S
N631 C635 1.418 . S
C632 H611 0.929 . S
C632 C630 1.446 . S
C632 C633 1.332 . S
C633 H613 0.931 . S
C633 C632 1.332 . S
C633 C634 1.267 . S
C634 H602 0.929 . S
C634 C633 1.267 . S
C634 C635 1.251 . S
C635 H605 0.929 . S
C635 N631 1.418 . S
C635 C634 1.251 . S
C636 H603 0.930 . S
C636 C638 1.406 . S
C636 C641 1.261 . S
C637 H604 0.930 . S
C637 N639 1.325 . S
C637 C640 1.357 . S
C638 H606 0.928 . S
C638 C636 1.406 . S
C638 N639 1.261 . S
N639 Co590 2.214 . S
N639 C637 1.325 . S
N639 C638 1.261 . S
C640 H610 0.931 . S
C640 C637 1.357 . S
C640 C641 1.312 . S
C641 H612 0.930 . S
C641 C636 1.261 . S
C641 C640 1.312 . S
C642 O614 1.214 . S
C642 O622 1.234 . S
C643 H615 0.929 . S
C643 C646 1.391 . S
C643 C648 1.391 . S
C644 H616 0.929 . S
C644 C645 1.390 . S
C644 N647 1.391 . S
C645 H617 0.930 . S
C645 C644 1.390 . S
C645 C646 1.392 . S
C646 H618 0.929 . S
C646 C643 1.391 . S
C646 C645 1.392 . S
N647 Co591 2.257 . S
N647 C644 1.391 . S
N647 C648 1.388 . S
C648 H619 0.930 . S
C648 C643 1.391 . S
C648 N647 1.388 . S
Co649 O651 2.143 . S
Co649 O657 2.074 . S
Co649 O660 2.093 . S
Co649 O673 2.097 . S
Co649 N690 2.151 . S
Co649 N698 2.214 . S
Co650 O651 2.160 . S
Co650 O656 2.058 . S
Co650 O666 2.057 . S
Co650 O681 2.037 . S
Co650 N685 2.145 . S
Co650 N706 2.257 . S
O651 Co649 2.143 . S
O651 Co650 2.160 . S
C652 O653 1.278 . S
C652 O660 1.224 . S
O653 C652 1.278 . S
C654 O655 1.245 . S
C654 O666 1.232 . S
O655 C654 1.245 . S
O656 Co650 2.058 . S
O656 C682 1.269 . S
O657 Co649 2.074 . S
O657 C682 1.257 . S
H658 C683 0.930 . S
H659 C689 0.930 . S
O660 Co649 2.093 . S
O660 C652 1.224 . S
H661 C693 0.929 . S
H662 C695 0.930 . S
H663 C696 0.930 . S
H664 C694 0.929 . S
H665 C697 0.928 . S
O666 Co650 2.057 . S
O666 C654 1.232 . S
H667 C686 0.929 . S
H668 C687 0.929 . S
H669 C699 0.931 . S
H670 C691 0.929 . S
H671 C700 0.930 . S
H672 C692 0.931 . S
O673 Co649 2.097 . S
O673 C701 1.214 . S
H674 C702 0.929 . S
H675 C703 0.929 . S
H676 C704 0.930 . S
H677 C705 0.929 . S
H678 C707 0.930 . S
H679 C684 0.930 . S
H680 C688 0.930 . S
O681 Co650 2.037 . S
O681 C701 1.234 . S
C682 O656 1.269 . S
C682 O657 1.257 . S
C683 H658 0.930 . S
C683 C686 1.388 1_556 S
C683 C688 1.418 . S
C684 H679 0.930 . S
C684 C687 1.404 . S
C684 C688 1.353 . S
N685 Co650 2.145 . S
N685 C686 1.397 . S
N685 C687 1.334 1_554 S
C686 H667 0.929 . S
C686 C683 1.388 1_554 S
C686 N685 1.397 . S
C687 H668 0.929 . S
C687 C684 1.404 . S
C687 N685 1.334 1_556 S
C688 H680 0.930 . S
C688 C683 1.418 . S
C688 C684 1.353 . S
C689 H659 0.930 . S
C689 N690 1.330 . S
C689 C691 1.446 . S
N690 Co649 2.151 . S
N690 C689 1.330 . S
N690 C694 1.418 . S
C691 H670 0.929 . S
C691 C689 1.446 . S
C691 C692 1.332 . S
C692 H672 0.931 . S
C692 C691 1.332 . S
C692 C693 1.267 . S
C693 H661 0.929 . S
C693 C692 1.267 . S
C693 C694 1.251 . S
C694 H664 0.929 . S
C694 N690 1.418 . S
C694 C693 1.251 . S
C695 H662 0.930 . S
C695 C697 1.406 . S
C695 C700 1.261 . S
C696 H663 0.930 . S
C696 N698 1.325 . S
C696 C699 1.357 . S
C697 H665 0.928 . S
C697 C695 1.406 . S
C697 N698 1.261 . S
N698 Co649 2.214 . S
N698 C696 1.325 . S
N698 C697 1.261 . S
C699 H669 0.931 . S
C699 C696 1.357 . S
C699 C700 1.312 . S
C700 H671 0.930 . S
C700 C695 1.261 . S
C700 C699 1.312 . S
C701 O673 1.214 . S
C701 O681 1.234 . S
C702 H674 0.929 . S
C702 C705 1.391 . S
C702 C707 1.391 . S
C703 H675 0.929 . S
C703 C704 1.390 . S
C703 N706 1.391 . S
C704 H676 0.930 . S
C704 C703 1.390 . S
C704 C705 1.392 . S
C705 H677 0.929 . S
C705 C702 1.391 . S
C705 C704 1.392 . S
N706 Co650 2.257 . S
N706 C703 1.391 . S
N706 C707 1.388 . S
C707 H678 0.930 . S
C707 C702 1.391 . S
C707 N706 1.388 . S
Co708 O710 2.143 . S
Co708 O716 2.074 . S
Co708 O719 2.093 . S
Co708 O732 2.097 . S
Co708 N749 2.151 . S
Co708 N757 2.214 . S
Co709 O710 2.160 . S
Co709 O715 2.058 . S
Co709 O725 2.057 . S
Co709 O740 2.037 . S
Co709 N744 2.145 . S
Co709 N765 2.257 . S
O710 Co708 2.143 . S
O710 Co709 2.160 . S
C711 O712 1.278 . S
C711 O719 1.224 . S
O712 C711 1.278 . S
C713 O714 1.245 . S
C713 O725 1.232 . S
O714 C713 1.245 . S
O715 Co709 2.058 . S
O715 C741 1.269 . S
O716 Co708 2.074 . S
O716 C741 1.257 . S
H717 C742 0.930 . S
H718 C748 0.930 . S
O719 Co708 2.093 . S
O719 C711 1.224 . S
H720 C752 0.929 . S
H721 C754 0.930 . S
H722 C755 0.930 . S
H723 C753 0.929 . S
H724 C756 0.928 . S
O725 Co709 2.057 . S
O725 C713 1.232 . S
H726 C745 0.929 . S
H727 C746 0.929 . S
H728 C758 0.931 . S
H729 C750 0.929 . S
H730 C759 0.930 . S
H731 C751 0.931 . S
O732 Co708 2.097 . S
O732 C760 1.214 . S
H733 C761 0.929 . S
H734 C762 0.929 . S
H735 C763 0.930 . S
H736 C764 0.929 . S
H737 C766 0.930 . S
H738 C743 0.930 . S
H739 C747 0.930 . S
O740 Co709 2.037 . S
O740 C760 1.234 . S
C741 O715 1.269 . S
C741 O716 1.257 . S
C742 H717 0.930 . S
C742 C745 1.388 . S
C742 C747 1.418 . S
C743 H738 0.930 . S
C743 C746 1.404 . S
C743 C747 1.353 . S
N744 Co709 2.145 . S
N744 C745 1.397 . S
N744 C746 1.334 . S
C745 H726 0.929 . S
C745 C742 1.388 . S
C745 N744 1.397 . S
C746 H727 0.929 . S
C746 C743 1.404 . S
C746 N744 1.334 . S
C747 H739 0.930 . S
C747 C742 1.418 . S
C747 C743 1.353 . S
C748 H718 0.930 . S
C748 N749 1.330 . S
C748 C750 1.446 . S
N749 Co708 2.151 . S
N749 C748 1.330 . S
N749 C753 1.418 . S
C750 H729 0.929 . S
C750 C748 1.446 . S
C750 C751 1.332 1_554 S
C751 H731 0.931 . S
C751 C750 1.332 1_556 S
C751 C752 1.267 . S
C752 H720 0.929 . S
C752 C751 1.267 . S
C752 C753 1.251 1_556 S
C753 H723 0.929 . S
C753 N749 1.418 . S
C753 C752 1.251 1_554 S
C754 H721 0.930 . S
C754 C756 1.406 . S
C754 C759 1.261 . S
C755 H722 0.930 . S
C755 N757 1.325 . S
C755 C758 1.357 . S
C756 H724 0.928 . S
C756 C754 1.406 . S
C756 N757 1.261 1_556 S
N757 Co708 2.214 . S
N757 C755 1.325 . S
N757 C756 1.261 1_554 S
C758 H728 0.931 . S
C758 C755 1.357 . S
C758 C759 1.312 1_554 S
C759 H730 0.930 . S
C759 C754 1.261 . S
C759 C758 1.312 1_556 S
C760 O732 1.214 . S
C760 O740 1.234 . S
C761 H733 0.929 . S
C761 C764 1.391 . S
C761 C766 1.391 . S
C762 H734 0.929 . S
C762 C763 1.390 . S
C762 N765 1.391 . S
C763 H735 0.930 . S
C763 C762 1.390 . S
C763 C764 1.392 . S
C764 H736 0.929 . S
C764 C761 1.391 . S
C764 C763 1.392 . S
N765 Co709 2.257 . S
N765 C762 1.391 . S
N765 C766 1.388 . S
C766 H737 0.930 . S
C766 C761 1.391 . S
C766 N765 1.388 . S
Co767 O769 2.143 . S
Co767 O775 2.074 . S
Co767 O778 2.093 . S
Co767 O791 2.097 . S
Co767 N808 2.151 . S
Co767 N816 2.214 . S
Co768 O769 2.160 . S
Co768 O774 2.058 . S
Co768 O784 2.057 . S
Co768 O799 2.037 . S
Co768 N803 2.145 . S
Co768 N824 2.257 . S
O769 Co767 2.143 . S
O769 Co768 2.160 . S
C770 O771 1.278 . S
C770 O778 1.224 . S
O771 C770 1.278 . S
C772 O773 1.245 . S
C772 O784 1.232 . S
O773 C772 1.245 . S
O774 Co768 2.058 . S
O774 C800 1.269 . S
O775 Co767 2.074 . S
O775 C800 1.257 . S
H776 C801 0.930 . S
H777 C807 0.930 . S
O778 Co767 2.093 . S
O778 C770 1.224 . S
H779 C811 0.943 . S
H780 C813 0.930 . S
H781 C814 0.930 . S
H782 C812 0.929 . S
H783 C815 0.928 . S
O784 Co768 2.057 . S
O784 C772 1.232 . S
H785 C804 0.929 . S
H786 C805 0.929 . S
H787 C817 0.931 . S
H788 C809 0.929 . S
H789 C818 0.930 . S
H790 C810 0.931 . S
O791 Co767 2.097 . S
O791 C819 1.214 . S
H792 C820 0.929 . S
H793 C821 0.929 . S
H794 C822 0.930 . S
H795 C823 0.929 . S
H796 C825 0.930 . S
H797 C802 0.930 . S
H798 C806 0.930 . S
O799 Co768 2.037 . S
O799 C819 1.234 . S
C800 O774 1.269 . S
C800 O775 1.257 . S
C801 H776 0.930 . S
C801 C804 1.388 . S
C801 C806 1.418 . S
C802 H797 0.930 . S
C802 C805 1.404 . S
C802 C806 1.353 . S
N803 Co768 2.145 . S
N803 C804 1.397 . S
N803 C805 1.334 . S
C804 H785 0.929 . S
C804 C801 1.388 . S
C804 N803 1.397 . S
C805 H786 0.929 . S
C805 C802 1.404 . S
C805 N803 1.334 . S
C806 H798 0.930 . S
C806 C801 1.418 . S
C806 C802 1.353 . S
C807 H777 0.930 . S
C807 N808 1.330 . S
C807 C809 1.446 . S
N808 Co767 2.151 . S
N808 C807 1.330 . S
N808 C812 1.418 . S
C809 H788 0.929 . S
C809 C807 1.446 . S
C809 C810 1.332 1_556 S
C810 H790 0.931 . S
C810 C809 1.332 1_554 S
C810 C811 1.271 . S
C811 H779 0.943 . S
C811 C810 1.271 . S
C811 C812 1.235 1_554 S
C812 H782 0.929 . S
C812 N808 1.418 . S
C812 C811 1.235 1_556 S
C813 H780 0.930 . S
C813 C815 1.406 . S
C813 C818 1.261 . S
C814 H781 0.930 . S
C814 N816 1.325 . S
C814 C817 1.357 . S
C815 H783 0.928 . S
C815 C813 1.406 . S
C815 N816 1.261 1_554 S
N816 Co767 2.214 . S
N816 C814 1.325 . S
N816 C815 1.261 1_556 S
C817 H787 0.931 . S
C817 C814 1.357 . S
C817 C818 1.312 1_556 S
C818 H789 0.930 . S
C818 C813 1.261 . S
C818 C817 1.312 1_554 S
C819 O791 1.214 . S
C819 O799 1.234 . S
C820 H792 0.929 . S
C820 C823 1.391 . S
C820 C825 1.391 . S
C821 H793 0.929 . S
C821 C822 1.390 . S
C821 N824 1.391 . S
C822 H794 0.930 . S
C822 C821 1.390 . S
C822 C823 1.392 . S
C823 H795 0.929 . S
C823 C820 1.391 . S
C823 C822 1.392 . S
N824 Co768 2.257 . S
N824 C821 1.391 . S
N824 C825 1.388 . S
C825 H796 0.930 . S
C825 C820 1.391 . S
C825 N824 1.388 . S
Co826 O828 2.143 . S
Co826 O834 2.074 . S
Co826 O837 2.093 . S
Co826 O850 2.097 . S
Co826 N867 2.151 . S
Co826 N875 2.214 . S
Co827 O828 2.160 . S
Co827 O833 2.058 . S
Co827 O843 2.057 . S
Co827 O858 2.037 . S
Co827 N862 2.145 . S
Co827 N883 2.257 . S
O828 Co826 2.143 . S
O828 Co827 2.160 . S
C829 O830 1.278 . S
C829 O837 1.224 . S
O830 C829 1.278 . S
C831 O832 1.245 . S
C831 O843 1.232 . S
O832 C831 1.245 . S
O833 Co827 2.058 . S
O833 C859 1.269 . S
O834 Co826 2.074 . S
O834 C859 1.257 . S
H835 C860 0.930 . S
H836 C866 0.930 . S
O837 Co826 2.093 . S
O837 C829 1.224 . S
H838 C870 0.929 . S
H839 C872 0.930 . S
H840 C873 0.930 . S
H841 C871 0.929 . S
H842 C874 0.928 . S
O843 Co827 2.057 . S
O843 C831 1.232 . S
H844 C863 0.929 . S
H845 C864 0.929 . S
H846 C876 0.931 . S
H847 C868 0.929 . S
H848 C877 0.930 . S
H849 C869 0.931 . S
O850 Co826 2.097 . S
O850 C878 1.214 . S
H851 C879 0.929 . S
H852 C880 0.929 . S
H853 C881 0.930 . S
H854 C882 0.929 . S
H855 C884 0.930 . S
H856 C861 0.930 . S
H857 C865 0.930 . S
O858 Co827 2.037 . S
O858 C878 1.234 . S
C859 O833 1.269 . S
C859 O834 1.257 . S
C860 H835 0.930 . S
C860 C863 1.388 . S
C860 C865 1.418 . S
C861 H856 0.930 . S
C861 C864 1.404 . S
C861 C865 1.353 . S
N862 Co827 2.145 . S
N862 C863 1.397 . S
N862 C864 1.334 . S
C863 H844 0.929 . S
C863 C860 1.388 . S
C863 N862 1.397 . S
C864 H845 0.929 . S
C864 C861 1.404 . S
C864 N862 1.334 . S
C865 H857 0.930 . S
C865 C860 1.418 . S
C865 C861 1.353 . S
C866 H836 0.930 . S
C866 N867 1.330 . S
C866 C868 1.446 . S
N867 Co826 2.151 . S
N867 C866 1.330 . S
N867 C871 1.418 . S
C868 H847 0.929 . S
C868 C866 1.446 . S
C868 C869 1.332 . S
C869 H849 0.931 . S
C869 C868 1.332 . S
C869 C870 1.267 . S
C870 H838 0.929 . S
C870 C869 1.267 . S
C870 C871 1.251 . S
C871 H841 0.929 . S
C871 N867 1.418 . S
C871 C870 1.251 . S
C872 H839 0.930 . S
C872 C874 1.406 . S
C872 C877 1.261 . S
C873 H840 0.930 . S
C873 N875 1.325 . S
C873 C876 1.357 . S
C874 H842 0.928 . S
C874 C872 1.406 . S
C874 N875 1.261 . S
N875 Co826 2.214 . S
N875 C873 1.325 . S
N875 C874 1.261 . S
C876 H846 0.931 . S
C876 C873 1.357 . S
C876 C877 1.312 . S
C877 H848 0.930 . S
C877 C872 1.261 . S
C877 C876 1.312 . S
C878 O850 1.214 . S
C878 O858 1.234 . S
C879 H851 0.929 . S
C879 C882 1.391 . S
C879 C884 1.391 . S
C880 H852 0.929 . S
C880 C881 1.390 . S
C880 N883 1.391 . S
C881 H853 0.930 . S
C881 C880 1.390 . S
C881 C882 1.392 . S
C882 H854 0.929 . S
C882 C879 1.391 . S
C882 C881 1.392 . S
N883 Co827 2.257 . S
N883 C880 1.391 . S
N883 C884 1.388 . S
C884 H855 0.930 . S
C884 C879 1.391 . S
C884 N883 1.388 . S
Co885 O887 2.143 . S
Co885 O893 2.074 . S
Co885 O896 2.093 . S
Co885 O909 2.097 . S
Co885 N926 2.151 . S
Co885 N934 2.214 . S
Co886 O887 2.160 . S
Co886 O892 2.058 . S
Co886 O902 2.057 . S
Co886 O917 2.037 . S
Co886 N921 2.145 . S
Co886 N942 2.257 . S
O887 Co885 2.143 . S
O887 Co886 2.160 . S
C888 O889 1.278 . S
C888 O896 1.224 . S
O889 C888 1.278 . S
C890 O891 1.245 . S
C890 O902 1.232 . S
O891 C890 1.245 . S
O892 Co886 2.058 . S
O892 C918 1.269 . S
O893 Co885 2.074 . S
O893 C918 1.257 . S
H894 C919 0.930 . S
H895 C925 0.930 . S
O896 Co885 2.093 . S
O896 C888 1.224 . S
H897 C929 0.929 . S
H898 C931 0.930 . S
H899 C932 0.930 . S
H900 C930 0.929 . S
H901 C933 0.928 . S
O902 Co886 2.057 . S
O902 C890 1.232 . S
H903 C922 0.929 . S
H904 C923 0.929 . S
H905 C935 0.931 . S
H906 C927 0.929 . S
H907 C936 0.930 . S
H908 C928 0.931 . S
O909 Co885 2.097 . S
O909 C937 1.214 . S
H910 C938 0.929 . S
H911 C939 0.929 . S
H912 C940 0.930 . S
H913 C941 0.929 . S
H914 C943 0.930 . S
H915 C920 0.930 . S
H916 C924 0.930 . S
O917 Co886 2.037 . S
O917 C937 1.234 . S
C918 O892 1.269 . S
C918 O893 1.257 . S
C919 H894 0.930 . S
C919 C922 1.388 . S
C919 C924 1.418 . S
C920 H915 0.930 . S
C920 C923 1.404 . S
C920 C924 1.353 . S
N921 Co886 2.145 . S
N921 C922 1.397 . S
N921 C923 1.334 . S
C922 H903 0.929 . S
C922 C919 1.388 . S
C922 N921 1.397 . S
C923 H904 0.929 . S
C923 C920 1.404 . S
C923 N921 1.334 . S
C924 H916 0.930 . S
C924 C919 1.418 . S
C924 C920 1.353 . S
C925 H895 0.930 . S
C925 N926 1.330 . S
C925 C927 1.446 . S
N926 Co885 2.151 . S
N926 C925 1.330 . S
N926 C930 1.418 . S
C927 H906 0.929 . S
C927 C925 1.446 . S
C927 C928 1.332 . S
C928 H908 0.931 . S
C928 C927 1.332 . S
C928 C929 1.267 . S
C929 H897 0.929 . S
C929 C928 1.267 . S
C929 C930 1.251 . S
C930 H900 0.929 . S
C930 N926 1.418 . S
C930 C929 1.251 . S
C931 H898 0.930 . S
C931 C933 1.406 . S
C931 C936 1.261 . S
C932 H899 0.930 . S
C932 N934 1.325 . S
C932 C935 1.357 . S
C933 H901 0.928 . S
C933 C931 1.406 . S
C933 N934 1.261 . S
N934 Co885 2.214 . S
N934 C932 1.325 . S
N934 C933 1.261 . S
C935 H905 0.931 . S
C935 C932 1.357 . S
C935 C936 1.312 . S
C936 H907 0.930 . S
C936 C931 1.261 . S
C936 C935 1.312 . S
C937 O909 1.214 . S
C937 O917 1.234 . S
C938 H910 0.929 . S
C938 C941 1.391 . S
C938 C943 1.391 . S
C939 H911 0.929 . S
C939 C940 1.390 . S
C939 N942 1.391 . S
C940 H912 0.930 . S
C940 C939 1.390 . S
C940 C941 1.392 . S
C941 H913 0.929 . S
C941 C938 1.391 . S
C941 C940 1.392 . S
N942 Co886 2.257 . S
N942 C939 1.391 . S
N942 C943 1.388 . S
C943 H914 0.930 . S
C943 C938 1.391 . S
C943 N942 1.388 . S
H944 C950 0.930 . S
H945 C954 0.930 . S
H946 C959 0.929 . S
H947 C957 0.929 . S
H948 C952 0.929 . S
H949 C958 0.929 . S
C950 H944 0.930 . S
C950 C951 1.367 . S
C950 C958 1.378 . S
C951 C950 1.367 . S
C951 C959 1.433 . S
C952 H948 0.929 . S
C952 C954 1.378 . S
C952 C956 1.350 . S
C953 C956 1.463 . S
C953 C958 1.350 . S
C953 N961 1.427 . S
C954 H945 0.930 . S
C954 C952 1.378 . S
C954 C955 1.367 . S
C955 C954 1.367 . S
C955 C957 1.433 . S
C956 C952 1.350 . S
C956 C953 1.463 . S
C956 N960 1.427 . S
C957 H947 0.929 . S
C957 C955 1.433 . S
C957 N960 1.384 . S
C958 H949 0.929 . S
C958 C950 1.378 . S
C958 C953 1.350 . S
C959 H946 0.929 . S
C959 C951 1.433 . S
C959 N961 1.384 . S
N960 C956 1.427 . S
N960 C957 1.384 . S
N961 C953 1.427 . S
N961 C959 1.384 . S
H962 C968 0.930 . S
H963 C972 0.930 . S
H964 C977 0.929 . S
H965 C975 0.929 . S
H966 C970 0.929 . S
H967 C976 0.929 . S
C968 H962 0.930 . S
C968 C969 1.367 . S
C968 C976 1.378 . S
C969 C968 1.367 . S
C969 C977 1.433 . S
C970 H966 0.929 . S
C970 C972 1.378 . S
C970 C974 1.350 . S
C971 C974 1.463 . S
C971 C976 1.350 . S
C971 N979 1.427 . S
C972 H963 0.930 . S
C972 C970 1.378 . S
C972 C973 1.367 . S
C973 C972 1.367 . S
C973 C975 1.433 . S
C974 C970 1.350 . S
C974 C971 1.463 . S
C974 N978 1.427 . S
C975 H965 0.929 . S
C975 C973 1.433 . S
C975 N978 1.384 . S
C976 H967 0.929 . S
C976 C968 1.378 . S
C976 C971 1.350 . S
C977 H964 0.929 . S
C977 C969 1.433 . S
C977 N979 1.384 . S
N978 C974 1.427 . S
N978 C975 1.384 . S
N979 C971 1.427 . S
N979 C977 1.384 . S
H980 C986 0.930 . S
H981 C990 0.930 . S
H982 C995 0.929 . S
H983 C993 0.929 . S
H984 C988 0.929 . S
H985 C994 0.929 . S
C986 H980 0.930 . S
C986 C987 1.367 . S
C986 C994 1.378 . S
C987 C986 1.367 . S
C987 C995 1.433 . S
C988 H984 0.929 . S
C988 C990 1.378 . S
C988 C992 1.350 . S
C989 C992 1.463 . S
C989 C994 1.350 . S
C989 N997 1.427 . S
C990 H981 0.930 . S
C990 C988 1.378 . S
C990 C991 1.367 . S
C991 C990 1.367 . S
C991 C993 1.433 . S
C992 C988 1.350 . S
C992 C989 1.463 . S
C992 N996 1.427 . S
C993 H983 0.929 . S
C993 C991 1.433 . S
C993 N996 1.384 . S
C994 H985 0.929 . S
C994 C986 1.378 . S
C994 C989 1.350 . S
C995 H982 0.929 . S
C995 C987 1.433 . S
C995 N997 1.384 . S
N996 C992 1.427 . S
N996 C993 1.384 . S
N997 C989 1.427 . S
N997 C995 1.384 . S
H998 C1004 0.930 . S
H999 C1008 0.930 . S
H1000 C1013 0.929 . S
H1001 C1011 0.929 . S
H1002 C1006 0.929 . S
H1003 C1012 0.929 . S
C1004 H998 0.930 . S
C1004 C1005 1.367 . S
C1004 C1012 1.378 . S
C1005 C1004 1.367 . S
C1005 C1013 1.433 . S
C1006 H1002 0.929 . S
C1006 C1008 1.378 . S
C1006 C1010 1.350 . S
C1007 C1010 1.463 1_455 S
C1007 C1012 1.350 . S
C1007 N1015 1.427 . S
C1008 H999 0.930 . S
C1008 C1006 1.378 . S
C1008 C1009 1.367 . S
C1009 C1008 1.367 . S
C1009 C1011 1.433 . S
C1010 C1006 1.350 . S
C1010 C1007 1.463 1_655 S
C1010 N1014 1.427 . S
C1011 H1001 0.929 . S
C1011 C1009 1.433 . S
C1011 N1014 1.384 . S
C1012 H1003 0.929 . S
C1012 C1004 1.378 . S
C1012 C1007 1.350 . S
C1013 H1000 0.929 . S
C1013 C1005 1.433 . S
C1013 N1015 1.384 . S
N1014 C1010 1.427 . S
N1014 C1011 1.384 . S
N1015 C1007 1.427 . S
N1015 C1013 1.384 . S
H1016 C1022 0.930 . S
H1017 C1026 0.930 . S
H1018 C1031 0.929 . S
H1019 C1029 0.929 . S
H1020 C1024 0.929 . S
H1021 C1030 0.929 . S
C1022 H1016 0.930 . S
C1022 C1023 1.367 . S
C1022 C1030 1.378 . S
C1023 C1022 1.367 . S
C1023 C1031 1.433 . S
C1024 H1020 0.929 . S
C1024 C1026 1.378 . S
C1024 C1028 1.350 . S
C1025 C1028 1.463 . S
C1025 C1030 1.350 . S
C1025 N1033 1.427 . S
C1026 H1017 0.930 . S
C1026 C1024 1.378 . S
C1026 C1027 1.367 . S
C1027 C1026 1.367 . S
C1027 C1029 1.433 . S
C1028 C1024 1.350 . S
C1028 C1025 1.463 . S
C1028 N1032 1.427 . S
C1029 H1019 0.929 . S
C1029 C1027 1.433 . S
C1029 N1032 1.384 . S
C1030 H1021 0.929 . S
C1030 C1022 1.378 . S
C1030 C1025 1.350 . S
C1031 H1018 0.929 . S
C1031 C1023 1.433 . S
C1031 N1033 1.384 . S
N1032 C1028 1.427 . S
N1032 C1029 1.384 . S
N1033 C1025 1.427 . S
N1033 C1031 1.384 . S
H1034 C1040 0.930 . S
H1035 C1044 0.930 . S
H1036 C1049 0.929 . S
H1037 C1047 0.929 . S
H1038 C1042 0.929 . S
H1039 C1048 0.929 . S
C1040 H1034 0.930 . S
C1040 C1041 1.367 . S
C1040 C1048 1.378 . S
C1041 C1040 1.367 . S
C1041 C1049 1.433 . S
C1042 H1038 0.929 . S
C1042 C1044 1.378 . S
C1042 C1046 1.350 . S
C1043 C1046 1.463 1_655 S
C1043 C1048 1.350 . S
C1043 N1051 1.427 . S
C1044 H1035 0.930 . S
C1044 C1042 1.378 . S
C1044 C1045 1.367 . S
C1045 C1044 1.367 . S
C1045 C1047 1.433 . S
C1046 C1042 1.350 . S
C1046 C1043 1.463 1_455 S
C1046 N1050 1.427 . S
C1047 H1037 0.929 . S
C1047 C1045 1.433 . S
C1047 N1050 1.384 . S
C1048 H1039 0.929 . S
C1048 C1040 1.378 . S
C1048 C1043 1.350 . S
C1049 H1036 0.929 . S
C1049 C1041 1.433 . S
C1049 N1051 1.384 . S
N1050 C1046 1.427 . S
N1050 C1047 1.384 . S
N1051 C1043 1.427 . S
N1051 C1049 1.384 . S
H1052 C1058 0.930 . S
H1053 C1062 0.930 . S
H1054 C1067 0.929 . S
H1055 C1065 0.929 . S
H1056 C1060 0.929 . S
H1057 C1066 0.929 . S
C1058 H1052 0.930 . S
C1058 C1059 1.367 . S
C1058 C1066 1.378 . S
C1059 C1058 1.367 . S
C1059 C1067 1.433 . S
C1060 H1056 0.929 . S
C1060 C1062 1.378 . S
C1060 C1064 1.350 . S
C1061 C1064 1.463 . S
C1061 C1066 1.350 . S
C1061 N1069 1.427 . S
C1062 H1053 0.930 . S
C1062 C1060 1.378 . S
C1062 C1063 1.367 . S
C1063 C1062 1.367 . S
C1063 C1065 1.433 . S
C1064 C1060 1.350 . S
C1064 C1061 1.463 . S
C1064 N1068 1.427 . S
C1065 H1055 0.929 . S
C1065 C1063 1.433 . S
C1065 N1068 1.384 . S
C1066 H1057 0.929 . S
C1066 C1058 1.378 . S
C1066 C1061 1.350 . S
C1067 H1054 0.929 . S
C1067 C1059 1.433 . S
C1067 N1069 1.384 . S
N1068 C1064 1.427 . S
N1068 C1065 1.384 . S
N1069 C1061 1.427 . S
N1069 C1067 1.384 . S
H1070 C1076 0.930 . S
H1071 C1080 0.930 . S
H1072 C1085 0.929 . S
H1073 C1083 0.929 . S
H1074 C1078 0.929 . S
H1075 C1084 0.929 . S
C1076 H1070 0.930 . S
C1076 C1077 1.367 . S
C1076 C1084 1.378 . S
C1077 C1076 1.367 . S
C1077 C1085 1.433 . S
C1078 H1074 0.929 . S
C1078 C1080 1.378 . S
C1078 C1082 1.350 . S
C1079 C1082 1.463 . S
C1079 C1084 1.350 . S
C1079 N1087 1.427 . S
C1080 H1071 0.930 . S
C1080 C1078 1.378 . S
C1080 C1081 1.367 . S
C1081 C1080 1.367 . S
C1081 C1083 1.433 . S
C1082 C1078 1.350 . S
C1082 C1079 1.463 . S
C1082 N1086 1.427 . S
C1083 H1073 0.929 . S
C1083 C1081 1.433 . S
C1083 N1086 1.384 . S
C1084 H1075 0.929 . S
C1084 C1076 1.378 . S
C1084 C1079 1.350 . S
C1085 H1072 0.929 . S
C1085 C1077 1.433 . S
C1085 N1087 1.384 . S
N1086 C1082 1.427 . S
N1086 C1083 1.384 . S
N1087 C1079 1.427 . S
N1087 C1085 1.384 . S
H1088 C1094 0.930 . S
H1089 C1098 0.930 . S
H1090 C1103 0.929 . S
H1091 C1101 0.929 . S
H1092 C1096 0.929 . S
H1093 C1102 0.929 . S
C1094 H1088 0.930 . S
C1094 C1095 1.367 . S
C1094 C1102 1.378 . S
C1095 C1094 1.367 . S
C1095 C1103 1.433 . S
C1096 H1092 0.929 . S
C1096 C1098 1.378 . S
C1096 C1100 1.350 . S
C1097 C1100 1.463 . S
C1097 C1102 1.350 . S
C1097 N1105 1.427 . S
C1098 H1089 0.930 . S
C1098 C1096 1.378 . S
C1098 C1099 1.367 . S
C1099 C1098 1.367 . S
C1099 C1101 1.433 . S
C1100 C1096 1.350 . S
C1100 C1097 1.463 . S
C1100 N1104 1.427 . S
C1101 H1091 0.929 . S
C1101 C1099 1.433 . S
C1101 N1104 1.384 . S
C1102 H1093 0.929 . S
C1102 C1094 1.378 . S
C1102 C1097 1.350 . S
C1103 H1090 0.929 . S
C1103 C1095 1.433 . S
C1103 N1105 1.384 . S
N1104 C1100 1.427 . S
N1104 C1101 1.384 . S
N1105 C1097 1.427 . S
N1105 C1103 1.384 . S
H1106 C1112 0.930 . S
H1107 C1116 0.930 . S
H1108 C1121 0.929 . S
H1109 C1119 0.929 . S
H1110 C1114 0.929 . S
H1111 C1120 0.929 . S
C1112 H1106 0.930 . S
C1112 C1113 1.367 . S
C1112 C1120 1.378 . S
C1113 C1112 1.367 . S
C1113 C1121 1.433 . S
C1114 H1110 0.929 . S
C1114 C1116 1.378 . S
C1114 C1118 1.350 . S
C1115 C1118 1.463 . S
C1115 C1120 1.350 . S
C1115 N1123 1.427 . S
C1116 H1107 0.930 . S
C1116 C1114 1.378 . S
C1116 C1117 1.367 . S
C1117 C1116 1.367 . S
C1117 C1119 1.433 . S
C1118 C1114 1.350 . S
C1118 C1115 1.463 . S
C1118 N1122 1.427 . S
C1119 H1109 0.929 . S
C1119 C1117 1.433 . S
C1119 N1122 1.384 . S
C1120 H1111 0.929 . S
C1120 C1112 1.378 . S
C1120 C1115 1.350 . S
C1121 H1108 0.929 . S
C1121 C1113 1.433 . S
C1121 N1123 1.384 . S
N1122 C1118 1.427 . S
N1122 C1119 1.384 . S
N1123 C1115 1.427 . S
N1123 C1121 1.384 . S
H1124 C1130 0.930 . S
H1125 C1134 0.930 . S
H1126 C1139 0.929 . S
H1127 C1137 0.929 . S
H1128 C1132 0.929 . S
H1129 C1138 0.929 . S
C1130 H1124 0.930 . S
C1130 C1131 1.367 . S
C1130 C1138 1.378 . S
C1131 C1130 1.367 . S
C1131 C1139 1.433 . S
C1132 H1128 0.929 . S
C1132 C1134 1.378 . S
C1132 C1136 1.350 . S
C1133 C1136 1.463 . S
C1133 C1138 1.350 . S
C1133 N1141 1.427 . S
C1134 H1125 0.930 . S
C1134 C1132 1.378 . S
C1134 C1135 1.367 . S
C1135 C1134 1.367 . S
C1135 C1137 1.433 . S
C1136 C1132 1.350 . S
C1136 C1133 1.463 . S
C1136 N1140 1.427 . S
C1137 H1127 0.929 . S
C1137 C1135 1.433 . S
C1137 N1140 1.384 . S
C1138 H1129 0.929 . S
C1138 C1130 1.378 . S
C1138 C1133 1.350 . S
C1139 H1126 0.929 . S
C1139 C1131 1.433 . S
C1139 N1141 1.384 . S
N1140 C1136 1.427 . S
N1140 C1137 1.384 . S
N1141 C1133 1.427 . S
N1141 C1139 1.384 . S
H1142 C1148 0.930 . S
H1143 C1152 0.930 . S
H1144 C1157 0.929 . S
H1145 C1155 0.929 . S
H1146 C1150 0.929 . S
H1147 C1156 0.929 . S
C1148 H1142 0.930 . S
C1148 C1149 1.367 . S
C1148 C1156 1.378 . S
C1149 C1148 1.367 . S
C1149 C1157 1.433 . S
C1150 H1146 0.929 . S
C1150 C1152 1.378 . S
C1150 C1154 1.350 . S
C1151 C1154 1.463 . S
C1151 C1156 1.350 . S
C1151 N1159 1.427 . S
C1152 H1143 0.930 . S
C1152 C1150 1.378 . S
C1152 C1153 1.367 . S
C1153 C1152 1.367 . S
C1153 C1155 1.433 . S
C1154 C1150 1.350 . S
C1154 C1151 1.463 . S
C1154 N1158 1.427 . S
C1155 H1145 0.929 . S
C1155 C1153 1.433 . S
C1155 N1158 1.384 . S
C1156 H1147 0.929 . S
C1156 C1148 1.378 . S
C1156 C1151 1.350 . S
C1157 H1144 0.929 . S
C1157 C1149 1.433 . S
C1157 N1159 1.384 . S
N1158 C1154 1.427 . S
N1158 C1155 1.384 . S
N1159 C1151 1.427 . S
N1159 C1157 1.384 . S
H1160 C1166 0.930 . S
H1161 C1170 0.930 . S
H1162 C1175 0.929 . S
H1163 C1173 0.929 . S
H1164 C1168 0.929 . S
H1165 C1174 0.929 . S
C1166 H1160 0.930 . S
C1166 C1167 1.367 . S
C1166 C1174 1.378 . S
C1167 C1166 1.367 . S
C1167 C1175 1.433 . S
C1168 H1164 0.929 . S
C1168 C1170 1.378 . S
C1168 C1172 1.350 . S
C1169 C1172 1.463 1_455 S
C1169 C1174 1.350 . S
C1169 N1177 1.427 . S
C1170 H1161 0.930 . S
C1170 C1168 1.378 . S
C1170 C1171 1.367 . S
C1171 C1170 1.367 . S
C1171 C1173 1.433 . S
C1172 C1168 1.350 . S
C1172 C1169 1.463 1_655 S
C1172 N1176 1.427 . S
C1173 H1163 0.929 . S
C1173 C1171 1.433 . S
C1173 N1176 1.384 . S
C1174 H1165 0.929 . S
C1174 C1166 1.378 . S
C1174 C1169 1.350 . S
C1175 H1162 0.929 . S
C1175 C1167 1.433 . S
C1175 N1177 1.384 . S
N1176 C1172 1.427 . S
N1176 C1173 1.384 . S
N1177 C1169 1.427 . S
N1177 C1175 1.384 . S
H1178 C1184 0.930 . S
H1179 C1188 0.930 . S
H1180 C1193 0.929 . S
H1181 C1191 0.929 . S
H1182 C1186 0.929 . S
H1183 C1192 0.929 . S
C1184 H1178 0.930 . S
C1184 C1185 1.367 . S
C1184 C1192 1.378 . S
C1185 C1184 1.367 . S
C1185 C1193 1.433 . S
C1186 H1182 0.929 . S
C1186 C1188 1.378 . S
C1186 C1190 1.350 . S
C1187 C1190 1.463 . S
C1187 C1192 1.350 . S
C1187 N1195 1.427 . S
C1188 H1179 0.930 . S
C1188 C1186 1.378 . S
C1188 C1189 1.367 . S
C1189 C1188 1.367 . S
C1189 C1191 1.433 . S
C1190 C1186 1.350 . S
C1190 C1187 1.463 . S
C1190 N1194 1.427 . S
C1191 H1181 0.929 . S
C1191 C1189 1.433 . S
C1191 N1194 1.384 . S
C1192 H1183 0.929 . S
C1192 C1184 1.378 . S
C1192 C1187 1.350 . S
C1193 H1180 0.929 . S
C1193 C1185 1.433 . S
C1193 N1195 1.384 . S
N1194 C1190 1.427 . S
N1194 C1191 1.384 . S
N1195 C1187 1.427 . S
N1195 C1193 1.384 . S
H1196 C1202 0.930 . S
H1197 C1206 0.930 . S
H1198 C1211 0.929 . S
H1199 C1209 0.929 . S
H1200 C1204 0.929 . S
H1201 C1210 0.929 . S
C1202 H1196 0.930 . S
C1202 C1203 1.367 . S
C1202 C1210 1.378 . S
C1203 C1202 1.367 . S
C1203 C1211 1.433 . S
C1204 H1200 0.929 . S
C1204 C1206 1.378 . S
C1204 C1208 1.350 . S
C1205 C1208 1.463 . S
C1205 C1210 1.350 . S
C1205 N1213 1.427 . S
C1206 H1197 0.930 . S
C1206 C1204 1.378 . S
C1206 C1207 1.367 . S
C1207 C1206 1.367 . S
C1207 C1209 1.433 . S
C1208 C1204 1.350 . S
C1208 C1205 1.463 . S
C1208 N1212 1.427 . S
C1209 H1199 0.929 . S
C1209 C1207 1.433 . S
C1209 N1212 1.384 . S
C1210 H1201 0.929 . S
C1210 C1202 1.378 . S
C1210 C1205 1.350 . S
C1211 H1198 0.929 . S
C1211 C1203 1.433 . S
C1211 N1213 1.384 . S
N1212 C1208 1.427 . S
N1212 C1209 1.384 . S
N1213 C1205 1.427 . S
N1213 C1211 1.384 . S
H1214 C1220 0.930 . S
H1215 C1224 0.930 . S
H1216 C1229 0.929 . S
H1217 C1227 0.929 . S
H1218 C1222 0.929 . S
H1219 C1228 0.929 . S
C1220 H1214 0.930 . S
C1220 C1221 1.367 . S
C1220 C1228 1.378 . S
C1221 C1220 1.367 . S
C1221 C1229 1.433 . S
C1222 H1218 0.929 . S
C1222 C1224 1.378 . S
C1222 C1226 1.350 . S
C1223 C1226 1.463 1_455 S
C1223 C1228 1.350 . S
C1223 N1231 1.427 . S
C1224 H1215 0.930 . S
C1224 C1222 1.378 . S
C1224 C1225 1.367 . S
C1225 C1224 1.367 . S
C1225 C1227 1.433 . S
C1226 C1222 1.350 . S
C1226 C1223 1.463 1_655 S
C1226 N1230 1.427 . S
C1227 H1217 0.929 . S
C1227 C1225 1.433 . S
C1227 N1230 1.384 . S
C1228 H1219 0.929 . S
C1228 C1220 1.378 . S
C1228 C1223 1.350 . S
C1229 H1216 0.929 . S
C1229 C1221 1.433 . S
C1229 N1231 1.384 . S
N1230 C1226 1.427 . S
N1230 C1227 1.384 . S
N1231 C1223 1.427 . S
N1231 C1229 1.384 . S
H1232 C1238 0.930 . S
H1233 C1242 0.930 . S
H1234 C1247 0.929 . S
H1235 C1245 0.929 . S
H1236 C1240 0.929 . S
H1237 C1246 0.929 . S
C1238 H1232 0.930 . S
C1238 C1239 1.367 . S
C1238 C1246 1.378 1_554 S
C1239 C1238 1.367 . S
C1239 C1247 1.433 . S
C1240 H1236 0.929 . S
C1240 C1242 1.378 1_554 S
C1240 C1244 1.350 1_554 S
C1241 C1244 1.463 1_554 S
C1241 C1246 1.350 1_554 S
C1241 N1249 1.427 . S
C1242 H1233 0.930 . S
C1242 C1240 1.378 1_556 S
C1242 C1243 1.367 . S
C1243 C1242 1.367 . S
C1243 C1245 1.433 . S
C1244 C1240 1.350 1_556 S
C1244 C1241 1.463 1_556 S
C1244 N1248 1.427 . S
C1245 H1235 0.929 . S
C1245 C1243 1.433 . S
C1245 N1248 1.384 . S
C1246 H1237 0.929 . S
C1246 C1238 1.378 1_556 S
C1246 C1241 1.350 1_556 S
C1247 H1234 0.929 . S
C1247 C1239 1.433 . S
C1247 N1249 1.384 . S
N1248 C1244 1.427 . S
N1248 C1245 1.384 . S
N1249 C1241 1.427 . S
N1249 C1247 1.384 . S
H1250 C1256 0.930 . S
H1251 C1260 0.930 . S
H1252 C1265 0.929 . S
H1253 C1263 0.929 . S
H1254 C1258 0.929 . S
H1255 C1264 0.929 . S
C1256 H1250 0.930 . S
C1256 C1257 1.367 . S
C1256 C1264 1.378 . S
C1257 C1256 1.367 . S
C1257 C1265 1.433 . S
C1258 H1254 0.929 . S
C1258 C1260 1.378 . S
C1258 C1262 1.350 . S
C1259 C1262 1.463 . S
C1259 C1264 1.350 . S
C1259 N1267 1.427 . S
C1260 H1251 0.930 . S
C1260 C1258 1.378 . S
C1260 C1261 1.367 . S
C1261 C1260 1.367 . S
C1261 C1263 1.433 . S
C1262 C1258 1.350 . S
C1262 C1259 1.463 . S
C1262 N1266 1.427 . S
C1263 H1253 0.929 . S
C1263 C1261 1.433 . S
C1263 N1266 1.384 . S
C1264 H1255 0.929 . S
C1264 C1256 1.378 . S
C1264 C1259 1.350 . S
C1265 H1252 0.929 . S
C1265 C1257 1.433 . S
C1265 N1267 1.384 . S
N1266 C1262 1.427 . S
N1266 C1263 1.384 . S
N1267 C1259 1.427 . S
N1267 C1265 1.384 . S
H1268 C1274 0.930 . S
H1269 C1278 0.930 . S
H1270 C1283 0.929 . S
H1271 C1281 0.929 . S
H1272 C1276 0.929 . S
H1273 C1282 0.929 . S
C1274 H1268 0.930 . S
C1274 C1275 1.367 . S
C1274 C1282 1.378 . S
C1275 C1274 1.367 . S
C1275 C1283 1.433 . S
C1276 H1272 0.929 . S
C1276 C1278 1.378 . S
C1276 C1280 1.350 . S
C1277 C1280 1.463 . S
C1277 C1282 1.350 . S
C1277 N1285 1.427 . S
C1278 H1269 0.930 . S
C1278 C1276 1.378 . S
C1278 C1279 1.367 . S
C1279 C1278 1.367 . S
C1279 C1281 1.433 . S
C1280 C1276 1.350 . S
C1280 C1277 1.463 . S
C1280 N1284 1.427 . S
C1281 H1271 0.929 . S
C1281 C1279 1.433 . S
C1281 N1284 1.384 . S
C1282 H1273 0.929 . S
C1282 C1274 1.378 . S
C1282 C1277 1.350 . S
C1283 H1270 0.929 . S
C1283 C1275 1.433 . S
C1283 N1285 1.384 . S
N1284 C1280 1.427 . S
N1284 C1281 1.384 . S
N1285 C1277 1.427 . S
N1285 C1283 1.384 . S
H1286 C1292 0.930 . S
H1287 C1296 0.930 . S
H1288 C1301 0.929 . S
H1289 C1299 0.929 . S
H1290 C1294 0.929 . S
H1291 C1300 0.929 . S
C1292 H1286 0.930 . S
C1292 C1293 1.367 . S
C1292 C1300 1.378 . S
C1293 C1292 1.367 . S
C1293 C1301 1.433 . S
C1294 H1290 0.929 . S
C1294 C1296 1.378 . S
C1294 C1298 1.350 . S
C1295 C1298 1.463 . S
C1295 C1300 1.350 . S
C1295 N1303 1.427 . S
C1296 H1287 0.930 . S
C1296 C1294 1.378 . S
C1296 C1297 1.367 . S
C1297 C1296 1.367 . S
C1297 C1299 1.433 . S
C1298 C1294 1.350 . S
C1298 C1295 1.463 . S
C1298 N1302 1.427 . S
C1299 H1289 0.929 . S
C1299 C1297 1.433 . S
C1299 N1302 1.384 . S
C1300 H1291 0.929 . S
C1300 C1292 1.378 . S
C1300 C1295 1.350 . S
C1301 H1288 0.929 . S
C1301 C1293 1.433 . S
C1301 N1303 1.384 . S
N1302 C1298 1.427 . S
N1302 C1299 1.384 . S
N1303 C1295 1.427 . S
N1303 C1301 1.384 . S
H1304 C1310 0.930 . S
H1305 C1314 0.930 . S
H1306 C1319 0.929 . S
H1307 C1317 0.929 . S
H1308 C1312 0.929 . S
H1309 C1318 0.929 . S
C1310 H1304 0.930 . S
C1310 C1311 1.367 . S
C1310 C1318 1.378 . S
C1311 C1310 1.367 . S
C1311 C1319 1.433 . S
C1312 H1308 0.929 . S
C1312 C1314 1.378 . S
C1312 C1316 1.350 . S
C1313 C1316 1.463 1_556 S
C1313 C1318 1.350 . S
C1313 N1321 1.428 . S
C1314 H1305 0.930 . S
C1314 C1312 1.378 . S
C1314 C1315 1.367 . S
C1315 C1314 1.367 . S
C1315 C1317 1.433 . S
C1316 C1312 1.350 . S
C1316 C1313 1.463 1_554 S
C1316 N1320 1.428 1_554 S
C1317 H1307 0.929 . S
C1317 C1315 1.433 . S
C1317 N1320 1.385 1_554 S
C1318 H1309 0.929 . S
C1318 C1310 1.378 . S
C1318 C1313 1.350 . S
C1319 H1306 0.929 . S
C1319 C1311 1.433 . S
C1319 N1321 1.384 . S
N1320 C1316 1.428 1_556 S
N1320 C1317 1.385 1_556 S
N1321 C1313 1.428 . S
N1321 C1319 1.384 . S
H1322 C1328 0.930 . S
H1323 C1332 0.930 . S
H1324 C1337 0.929 . S
H1325 C1335 0.929 . S
H1326 C1330 0.929 . S
H1327 C1336 0.929 . S
C1328 H1322 0.930 . S
C1328 C1329 1.367 . S
C1328 C1336 1.378 . S
C1329 C1328 1.367 . S
C1329 C1337 1.433 . S
C1330 H1326 0.929 . S
C1330 C1332 1.378 . S
C1330 C1334 1.350 . S
C1331 C1334 1.463 . S
C1331 C1336 1.350 . S
C1331 N1339 1.427 . S
C1332 H1323 0.930 . S
C1332 C1330 1.378 . S
C1332 C1333 1.367 . S
C1333 C1332 1.367 . S
C1333 C1335 1.433 . S
C1334 C1330 1.350 . S
C1334 C1331 1.463 . S
C1334 N1338 1.427 . S
C1335 H1325 0.929 . S
C1335 C1333 1.433 . S
C1335 N1338 1.384 . S
C1336 H1327 0.929 . S
C1336 C1328 1.378 . S
C1336 C1331 1.350 . S
C1337 H1324 0.929 . S
C1337 C1329 1.433 . S
C1337 N1339 1.384 . S
N1338 C1334 1.427 . S
N1338 C1335 1.384 . S
N1339 C1331 1.427 . S
N1339 C1337 1.384 . S
H1340 C1346 0.930 . S
H1341 C1350 0.930 . S
H1342 C1355 0.929 . S
H1343 C1353 0.929 . S
H1344 C1348 0.929 . S
H1345 C1354 0.929 . S
C1346 H1340 0.930 . S
C1346 C1347 1.367 . S
C1346 C1354 1.378 . S
C1347 C1346 1.367 . S
C1347 C1355 1.433 . S
C1348 H1344 0.929 . S
C1348 C1350 1.378 . S
C1348 C1352 1.350 . S
C1349 C1352 1.463 . S
C1349 C1354 1.350 . S
C1349 N1357 1.427 . S
C1350 H1341 0.930 . S
C1350 C1348 1.378 . S
C1350 C1351 1.367 . S
C1351 C1350 1.367 . S
C1351 C1353 1.433 . S
C1352 C1348 1.350 . S
C1352 C1349 1.463 . S
C1352 N1356 1.427 . S
C1353 H1343 0.929 . S
C1353 C1351 1.433 . S
C1353 N1356 1.384 . S
C1354 H1345 0.929 . S
C1354 C1346 1.378 . S
C1354 C1349 1.350 . S
C1355 H1342 0.929 . S
C1355 C1347 1.433 . S
C1355 N1357 1.384 . S
N1356 C1352 1.427 . S
N1356 C1353 1.384 . S
N1357 C1349 1.427 . S
N1357 C1355 1.384 . S
H1358 C1364 0.930 . S
H1359 C1368 0.930 . S
H1360 C1373 0.929 . S
H1361 C1371 0.929 . S
H1362 C1366 0.929 . S
H1363 C1372 0.929 . S
C1364 H1358 0.930 . S
C1364 C1365 1.367 . S
C1364 C1372 1.378 . S
C1365 C1364 1.367 . S
C1365 C1373 1.433 . S
C1366 H1362 0.929 . S
C1366 C1368 1.378 . S
C1366 C1370 1.350 . S
C1367 C1370 1.463 . S
C1367 C1372 1.350 . S
C1367 N1375 1.427 . S
C1368 H1359 0.930 . S
C1368 C1366 1.378 . S
C1368 C1369 1.367 . S
C1369 C1368 1.367 . S
C1369 C1371 1.433 . S
C1370 C1366 1.350 . S
C1370 C1367 1.463 . S
C1370 N1374 1.427 . S
C1371 H1361 0.929 . S
C1371 C1369 1.433 . S
C1371 N1374 1.384 . S
C1372 H1363 0.929 . S
C1372 C1364 1.378 . S
C1372 C1367 1.350 . S
C1373 H1360 0.929 . S
C1373 C1365 1.433 . S
C1373 N1375 1.384 . S
N1374 C1370 1.427 . S
N1374 C1371 1.384 . S
N1375 C1367 1.427 . S
N1375 C1373 1.384 . S
H1376 C1382 0.930 . S
H1377 C1386 0.930 . S
H1378 C1391 0.929 . S
H1379 C1389 0.929 . S
H1380 C1384 0.929 . S
H1381 C1390 0.929 . S
C1382 H1376 0.930 . S
C1382 C1383 1.367 . S
C1382 C1390 1.378 . S
C1383 C1382 1.367 . S
C1383 C1391 1.433 . S
C1384 H1380 0.929 . S
C1384 C1386 1.378 . S
C1384 C1388 1.350 . S
C1385 C1388 1.463 1_545 S
C1385 C1390 1.350 . S
C1385 N1393 1.427 . S
C1386 H1377 0.930 . S
C1386 C1384 1.378 . S
C1386 C1387 1.367 . S
C1387 C1386 1.367 . S
C1387 C1389 1.433 . S
C1388 C1384 1.350 . S
C1388 C1385 1.463 1_565 S
C1388 N1392 1.427 . S
C1389 H1379 0.929 . S
C1389 C1387 1.433 . S
C1389 N1392 1.384 . S
C1390 H1381 0.929 . S
C1390 C1382 1.378 . S
C1390 C1385 1.350 . S
C1391 H1378 0.929 . S
C1391 C1383 1.433 . S
C1391 N1393 1.384 . S
N1392 C1388 1.427 . S
N1392 C1389 1.384 . S
N1393 C1385 1.427 . S
N1393 C1391 1.384 . S
H1394 C1400 0.930 . S
H1395 C1404 0.930 . S
H1396 C1409 0.929 . S
H1397 C1407 0.929 . S
H1398 C1402 0.929 . S
H1399 C1408 0.929 . S
C1400 H1394 0.930 . S
C1400 C1401 1.367 . S
C1400 C1408 1.378 . S
C1401 C1400 1.367 . S
C1401 C1409 1.433 . S
C1402 H1398 0.929 . S
C1402 C1404 1.378 . S
C1402 C1406 1.350 . S
C1403 C1406 1.463 . S
C1403 C1408 1.350 . S
C1403 N1411 1.427 . S
C1404 H1395 0.930 . S
C1404 C1402 1.378 . S
C1404 C1405 1.367 . S
C1405 C1404 1.367 . S
C1405 C1407 1.433 . S
C1406 C1402 1.350 . S
C1406 C1403 1.463 . S
C1406 N1410 1.427 . S
C1407 H1397 0.929 . S
C1407 C1405 1.433 . S
C1407 N1410 1.384 . S
C1408 H1399 0.929 . S
C1408 C1400 1.378 . S
C1408 C1403 1.350 . S
C1409 H1396 0.929 . S
C1409 C1401 1.433 . S
C1409 N1411 1.384 . S
N1410 C1406 1.427 . S
N1410 C1407 1.384 . S
N1411 C1403 1.427 . S
N1411 C1409 1.384 . S
H1412 C1418 0.930 . S
H1413 C1422 0.930 . S
H1414 C1427 0.929 . S
H1415 C1425 0.929 . S
H1416 C1420 0.929 . S
H1417 C1426 0.929 . S
C1418 H1412 0.930 . S
C1418 C1419 1.367 . S
C1418 C1426 1.378 1_556 S
C1419 C1418 1.367 . S
C1419 C1427 1.433 . S
C1420 H1416 0.929 . S
C1420 C1422 1.378 1_556 S
C1420 C1424 1.350 1_556 S
C1421 C1424 1.463 1_546 S
C1421 C1426 1.350 1_556 S
C1421 N1429 1.427 . S
C1422 H1413 0.930 . S
C1422 C1420 1.378 1_554 S
C1422 C1423 1.367 . S
C1423 C1422 1.367 . S
C1423 C1425 1.433 . S
C1424 C1420 1.350 1_554 S
C1424 C1421 1.463 1_564 S
C1424 N1428 1.427 . S
C1425 H1415 0.929 . S
C1425 C1423 1.433 . S
C1425 N1428 1.384 . S
C1426 H1417 0.929 . S
C1426 C1418 1.378 1_554 S
C1426 C1421 1.350 1_554 S
C1427 H1414 0.929 . S
C1427 C1419 1.433 . S
C1427 N1429 1.384 . S
N1428 C1424 1.427 . S
N1428 C1425 1.384 . S
N1429 C1421 1.427 . S
N1429 C1427 1.384 . S
H1430 C1436 0.930 . S
H1431 C1440 0.930 . S
H1432 C1445 0.929 . S
H1433 C1443 0.929 . S
H1434 C1438 0.929 . S
H1435 C1444 0.929 . S
C1436 H1430 0.930 . S
C1436 C1437 1.367 . S
C1436 C1444 1.378 . S
C1437 C1436 1.367 . S
C1437 C1445 1.433 . S
C1438 H1434 0.929 . S
C1438 C1440 1.378 . S
C1438 C1442 1.350 . S
C1439 C1442 1.463 . S
C1439 C1444 1.350 . S
C1439 N1447 1.427 . S
C1440 H1431 0.930 . S
C1440 C1438 1.378 . S
C1440 C1441 1.367 . S
C1441 C1440 1.367 . S
C1441 C1443 1.433 . S
C1442 C1438 1.350 . S
C1442 C1439 1.463 . S
C1442 N1446 1.427 . S
C1443 H1433 0.929 . S
C1443 C1441 1.433 . S
C1443 N1446 1.384 . S
C1444 H1435 0.929 . S
C1444 C1436 1.378 . S
C1444 C1439 1.350 . S
C1445 H1432 0.929 . S
C1445 C1437 1.433 . S
C1445 N1447 1.384 . S
N1446 C1442 1.427 . S
N1446 C1443 1.384 . S
N1447 C1439 1.427 . S
N1447 C1445 1.384 . S
H1448 C1454 0.930 . S
H1449 C1458 0.930 . S
H1450 C1463 0.929 . S
H1451 C1461 0.929 . S
H1452 C1456 0.929 . S
H1453 C1462 0.929 . S
C1454 H1448 0.930 . S
C1454 C1455 1.367 . S
C1454 C1462 1.378 . S
C1455 C1454 1.367 . S
C1455 C1463 1.433 . S
C1456 H1452 0.929 . S
C1456 C1458 1.378 . S
C1456 C1460 1.350 . S
C1457 C1460 1.463 1_545 S
C1457 C1462 1.350 . S
C1457 N1465 1.427 . S
C1458 H1449 0.930 . S
C1458 C1456 1.378 . S
C1458 C1459 1.367 . S
C1459 C1458 1.367 . S
C1459 C1461 1.433 . S
C1460 C1456 1.350 . S
C1460 C1457 1.463 1_565 S
C1460 N1464 1.427 . S
C1461 H1451 0.929 . S
C1461 C1459 1.433 . S
C1461 N1464 1.384 . S
C1462 H1453 0.929 . S
C1462 C1454 1.378 . S
C1462 C1457 1.350 . S
C1463 H1450 0.929 . S
C1463 C1455 1.433 . S
C1463 N1465 1.384 . S
N1464 C1460 1.427 . S
N1464 C1461 1.384 . S
N1465 C1457 1.427 . S
N1465 C1463 1.384 . S
H1466 C1472 0.930 . S
H1467 C1476 0.930 . S
H1468 C1481 0.929 . S
H1469 C1479 0.929 . S
H1470 C1474 0.929 . S
H1471 C1480 0.929 . S
C1472 H1466 0.930 . S
C1472 C1473 1.367 . S
C1472 C1480 1.378 . S
C1473 C1472 1.367 . S
C1473 C1481 1.433 . S
C1474 H1470 0.929 . S
C1474 C1476 1.378 . S
C1474 C1478 1.350 . S
C1475 C1478 1.463 . S
C1475 C1480 1.350 . S
C1475 N1483 1.427 . S
C1476 H1467 0.930 . S
C1476 C1474 1.378 . S
C1476 C1477 1.367 . S
C1477 C1476 1.367 . S
C1477 C1479 1.433 . S
C1478 C1474 1.350 . S
C1478 C1475 1.463 . S
C1478 N1482 1.427 . S
C1479 H1469 0.929 . S
C1479 C1477 1.433 . S
C1479 N1482 1.384 . S
C1480 H1471 0.929 . S
C1480 C1472 1.378 . S
C1480 C1475 1.350 . S
C1481 H1468 0.929 . S
C1481 C1473 1.433 . S
C1481 N1483 1.384 . S
N1482 C1478 1.427 . S
N1482 C1479 1.384 . S
N1483 C1475 1.427 . S
N1483 C1481 1.384 . S
H1484 C1490 0.930 . S
H1485 C1494 0.930 . S
H1486 C1499 0.929 . S
H1487 C1497 0.929 . S
H1488 C1492 0.929 . S
H1489 C1498 0.929 . S
C1490 H1484 0.930 . S
C1490 C1491 1.367 . S
C1490 C1498 1.378 . S
C1491 C1490 1.367 . S
C1491 C1499 1.433 . S
C1492 H1488 0.929 . S
C1492 C1494 1.378 . S
C1492 C1496 1.350 . S
C1493 C1496 1.463 1_564 S
C1493 C1498 1.350 . S
C1493 N1501 1.427 . S
C1494 H1485 0.930 . S
C1494 C1492 1.378 . S
C1494 C1495 1.367 . S
C1495 C1494 1.367 . S
C1495 C1497 1.433 . S
C1496 C1492 1.350 . S
C1496 C1493 1.463 1_546 S
C1496 N1500 1.427 . S
C1497 H1487 0.929 . S
C1497 C1495 1.433 . S
C1497 N1500 1.384 . S
C1498 H1489 0.929 . S
C1498 C1490 1.378 . S
C1498 C1493 1.350 . S
C1499 H1486 0.929 . S
C1499 C1491 1.433 . S
C1499 N1501 1.384 . S
N1500 C1496 1.427 . S
N1500 C1497 1.384 . S
N1501 C1493 1.427 . S
N1501 C1499 1.384 . S
H1502 C1508 0.930 . S
H1503 C1512 0.930 . S
H1504 C1517 0.929 . S
H1505 C1515 0.929 . S
H1506 C1510 0.929 . S
H1507 C1516 0.929 . S
C1508 H1502 0.930 . S
C1508 C1509 1.367 . S
C1508 C1516 1.378 . S
C1509 C1508 1.367 . S
C1509 C1517 1.433 . S
C1510 H1506 0.929 . S
C1510 C1512 1.378 . S
C1510 C1514 1.350 . S
C1511 C1514 1.463 . S
C1511 C1516 1.350 . S
C1511 N1519 1.427 . S
C1512 H1503 0.930 . S
C1512 C1510 1.378 . S
C1512 C1513 1.367 . S
C1513 C1512 1.367 . S
C1513 C1515 1.433 . S
C1514 C1510 1.350 . S
C1514 C1511 1.463 . S
C1514 N1518 1.427 . S
C1515 H1505 0.929 . S
C1515 C1513 1.433 . S
C1515 N1518 1.384 . S
C1516 H1507 0.929 . S
C1516 C1508 1.378 . S
C1516 C1511 1.350 . S
C1517 H1504 0.929 . S
C1517 C1509 1.433 . S
C1517 N1519 1.384 . S
N1518 C1514 1.427 . S
N1518 C1515 1.384 . S
N1519 C1511 1.427 . S
N1519 C1517 1.384 . S
C951 C701 1.416 . S
C955 C33 1.414 . S
C969 C937 1.411 . S
C973 C111 1.415 . S
C987 C170 1.413 . S
C991 C564 1.416 . S
C1005 C819 1.411 . S
C1009 C210 1.415 . S
C1023 C269 1.414 . S
C1027 C800 1.414 . S
C1041 C347 1.413 . S
C1045 C682 1.412 . S
C1059 C406 1.411 . S
C1063 C918 1.415 . S
C1077 C446 1.415 . S
C1081 C583 1.411 . S
C1095 C229 1.416 . S
C1099 C505 1.413 . S
C1113 C642 1.412 . S
C1117 C92 1.411 . S
C1131 C741 1.416 . S
C1135 C328 1.412 . S
C1149 C878 1.412 . S
C1153 C465 1.414 . S
C1167 C288 1.415 . S
C1171 C524 1.414 . S
C1185 C623 1.414 . S
C1189 C387 1.412 . S
C1203 C859 1.412 . S
C1207 C151 1.413 . S
C1221 C52 1.413 . S
C1225 C760 1.416 . S
C1239 C3 1.398 . S
C1243 C239 1.392 . S
C1257 C64 1.399 . S
C1261 C300 1.395 . S
C1275 C123 1.400 . S
C1279 C359 1.404 . S
C1293 C416 1.401 . S
C1297 C180 1.392 . S
C1311 C475 1.397 . S
C1315 C711 1.390 . S
C1329 C772 1.401 . S
C1333 C536 1.402 . S
C1347 C595 1.405 . S
C1351 C831 1.400 . S
C1365 C890 1.402 . S
C1369 C652 1.398 . S
C1383 C418 1.402 . S
C1387 C62 1.386 . S
C1401 C121 1.401 . S
C1405 C241 1.405 . S
C1419 C182 1.407 . S
C1423 C298 1.393 . S
C1437 C5 1.404 . S
C1441 C357 1.393 . S
C1455 C534 1.394 . S
C1459 C888 1.399 . S
C1473 C713 1.404 . S
C1477 C593 1.401 . S
C1491 C654 1.405 . S
C1495 C770 1.389 . S
C1509 C829 1.385 . S
C1513 C477 1.400 . S
