# Generated by pormake.
# Topology mmt, (4)-cn, num edge types: 1
# Building blocks:
#     Node 0, Type 0, BuildingBlock: GALJAG_clean_sbu_0, # of connection points: 4
#     Node 1, Type 0, BuildingBlock: GALJAG_clean_sbu_0, # of connection points: 4
#     Node 2, Type 0, BuildingBlock: GALJAG_clean_sbu_0, # of connection points: 4
#     Node 3, Type 0, BuildingBlock: GALJAG_clean_sbu_0, # of connection points: 4
#     Node 4, Type 0, BuildingBlock: GALJAG_clean_sbu_0, # of connection points: 4
#     Node 5, Type 0, BuildingBlock: GALJAG_clean_sbu_0, # of connection points: 4
#     Node 6, Type 0, BuildingBlock: GALJAG_clean_sbu_0, # of connection points: 4
#     Node 7, Type 0, BuildingBlock: GALJAG_clean_sbu_0, # of connection points: 4
#     Edge 8, Type (0, 0), BuildingBlock: AJUNOK_clean_linker_0, # of connection points: 2
#     Edge 9, Type (0, 0), BuildingBlock: AJUNOK_clean_linker_0, # of connection points: 2
#     Edge 10, Type (0, 0), BuildingBlock: AJUNOK_clean_linker_0, # of connection points: 2
#     Edge 11, Type (0, 0), BuildingBlock: AJUNOK_clean_linker_0, # of connection points: 2
#     Edge 12, Type (0, 0), BuildingBlock: AJUNOK_clean_linker_0, # of connection points: 2
#     Edge 13, Type (0, 0), BuildingBlock: AJUNOK_clean_linker_0, # of connection points: 2
#     Edge 14, Type (0, 0), BuildingBlock: AJUNOK_clean_linker_0, # of connection points: 2
#     Edge 15, Type (0, 0), BuildingBlock: AJUNOK_clean_linker_0, # of connection points: 2
#     Edge 16, Type (0, 0), BuildingBlock: AJUNOK_clean_linker_0, # of connection points: 2
#     Edge 17, Type (0, 0), BuildingBlock: AJUNOK_clean_linker_0, # of connection points: 2
#     Edge 18, Type (0, 0), BuildingBlock: AJUNOK_clean_linker_0, # of connection points: 2
#     Edge 19, Type (0, 0), BuildingBlock: AJUNOK_clean_linker_0, # of connection points: 2
#     Edge 20, Type (0, 0), BuildingBlock: AJUNOK_clean_linker_0, # of connection points: 2
#     Edge 21, Type (0, 0), BuildingBlock: AJUNOK_clean_linker_0, # of connection points: 2
#     Edge 22, Type (0, 0), BuildingBlock: AJUNOK_clean_linker_0, # of connection points: 2
#     Edge 23, Type (0, 0), BuildingBlock: AJUNOK_clean_linker_0, # of connection points: 2
# Relax obj value: 0.016
# Max RMSD: 0.061
# Mean RMSD: 0.061
data_MOF--net-mmt--node1-GALJAG_clean_sbu_0--edge1-AJUNOK_clean_linker_0
_symmetry_space_group_name_H-M    P1
_symmetry_Int_Tables_number       1
_symmetry_cell_setting            triclinic
loop_
_symmetry_equiv_pos_as_xyz
'x, y, z'
_cell_length_a     18.172897
_cell_length_b     27.186685
_cell_length_c     30.353393
_cell_angle_alpha  89.850247
_cell_angle_beta   90.007614
_cell_angle_gamma 89.970196
loop_
_atom_site_label
_atom_site_type_symbol
_atom_site_fract_x
_atom_site_fract_y
_atom_site_fract_z
_atom_type_partial_charge
In0 In 0.13764 0.56197 0.34083 0.0
O1 O 0.23371 0.50844 0.33299 0.0
O2 O 0.21154 0.55831 0.28052 0.0
C3 C 0.08746 0.53311 0.42062 0.0
C4 C 0.19431 0.65232 0.35521 0.0
C5 C 0.0207 0.5357 0.29096 0.0
O6 O 0.13796 0.51066 0.40044 0.0
O7 O 0.06454 0.57129 0.40132 0.0
O8 O 0.04182 0.57983 0.29384 0.0
O9 O 0.05997 0.50543 0.31186 0.0
C10 C 0.25207 0.52443 0.29547 0.0
O11 O 0.13207 0.64605 0.33754 0.0
O12 O 0.22625 0.61328 0.36705 0.0
In13 In 0.37662 0.93938 0.34418 0.0
O14 O 0.27685 0.9903 0.33665 0.0
O15 O 0.30484 0.94396 0.28296 0.0
C16 C 0.42233 0.96642 0.42535 0.0
C17 C 0.32635 0.84686 0.35668 0.0
C18 C 0.49447 0.96947 0.29663 0.0
O19 O 0.37236 0.98895 0.40463 0.0
O20 O 0.44721 0.92908 0.40577 0.0
O21 O 0.47276 0.92535 0.2965 0.0
O22 O 0.45538 0.99804 0.31934 0.0
C23 C 0.26095 0.97546 0.29843 0.0
O24 O 0.38808 0.85577 0.33927 0.0
O25 O 0.29118 0.88448 0.36877 0.0
In26 In 0.63719 0.44466 0.15317 0.0
O27 O 0.63074 0.36061 0.15418 0.0
O28 O 0.72723 0.39373 0.12791 0.0
C29 C 0.51948 0.46738 0.20373 0.0
C30 C 0.75205 0.47979 0.19964 0.0
C31 C 0.58717 0.47555 0.07387 0.0
O32 O 0.54347 0.42398 0.20038 0.0
O33 O 0.556 0.49902 0.18265 0.0
O34 O 0.63477 0.49902 0.09559 0.0
O35 O 0.56748 0.43551 0.09131 0.0
C36 C 0.69434 0.35455 0.1383 0.0
O37 O 0.73533 0.49668 0.16214 0.0
O38 O 0.70897 0.44721 0.21419 0.0
In39 In 0.87679 0.06811 0.16024 0.0
O40 O 0.77842 0.01621 0.16876 0.0
O41 O 0.80322 0.06566 0.22074 0.0
C42 C 0.92591 0.04007 0.08019 0.0
C43 C 0.82722 0.16033 0.1447 0.0
C44 C 0.99361 0.03818 0.20864 0.0
O45 O 0.872 0.01961 0.099 0.0
O46 O 0.953 0.07577 0.10109 0.0
O47 O 0.9721 0.08238 0.2084 0.0
O48 O 0.95455 0.00944 0.18607 0.0
C49 C 0.76089 0.03273 0.20617 0.0
O50 O 0.88705 0.15186 0.16453 0.0
O51 O 0.79355 0.1224 0.13194 0.0
In52 In 0.88743 0.43639 0.65885 0.0
O53 O 0.87644 0.35657 0.68 0.0
O54 O 0.81997 0.37863 0.62187 0.0
C55 C 1.00473 0.4631 0.70737 0.0
C56 C 0.77002 0.47528 0.70068 0.0
C57 C 0.94506 0.46182 0.58033 0.0
O58 O 0.98581 0.4187 0.70318 0.0
O59 O 0.96404 0.49366 0.68772 0.0
O60 O 0.89319 0.48563 0.59809 0.0
O61 O 0.96569 0.42425 0.60156 0.0
C62 C 0.83372 0.34467 0.64907 0.0
O63 O 0.78521 0.48636 0.6613 0.0
O64 O 0.81504 0.44638 0.71869 0.0
In65 In 0.61823 0.06863 0.66331 0.0
O66 O 0.71511 0.01398 0.66431 0.0
O67 O 0.6992 0.06143 0.71908 0.0
C68 C 0.55818 0.03755 0.58695 0.0
C69 C 0.67808 0.1586 0.65224 0.0
C70 C 0.50208 0.05192 0.71674 0.0
O71 O 0.60655 0.01291 0.60726 0.0
O72 O 0.5421 0.07805 0.60467 0.0
O73 O 0.51014 0.09148 0.69557 0.0
O74 O 0.55289 0.02096 0.71129 0.0
C75 C 0.73761 0.0282 0.7016 0.0
O76 O 0.64135 0.1466 0.68579 0.0
O77 O 0.68295 0.12568 0.62315 0.0
In78 In 0.38639 0.57096 0.83542 0.0
O79 O 0.28594 0.51993 0.83522 0.0
O80 O 0.31312 0.55797 0.77624 0.0
C81 C 0.44251 0.54792 0.91512 0.0
C82 C 0.32949 0.66248 0.84009 0.0
C83 C 0.50443 0.54164 0.78864 0.0
O84 O 0.39142 0.52357 0.89728 0.0
O85 O 0.46291 0.58529 0.89356 0.0
O86 O 0.48764 0.58649 0.79246 0.0
O87 O 0.46069 0.51215 0.8071 0.0
C88 C 0.26972 0.52899 0.79559 0.0
O89 O 0.37587 0.64991 0.81131 0.0
O90 O 0.31467 0.62956 0.86812 0.0
In91 In 0.12187 0.94267 0.84112 0.0
O92 O 0.24218 0.96694 0.84686 0.0
O93 O 0.18008 0.99322 0.79254 0.0
C94 C 0.06484 0.96815 0.91992 0.0
C95 C 0.17419 0.8497 0.83875 0.0
C96 C 1.00381 0.96511 0.79131 0.0
O97 O 0.12011 0.9896 0.90348 0.0
O98 O 0.04071 0.93273 0.8974 0.0
O99 O 0.02847 0.92166 0.79354 0.0
O100 O 0.03935 0.99627 0.81341 0.0
C101 C 0.24137 0.99194 0.81182 0.0
O102 O 0.15972 0.87412 0.80442 0.0
O103 O 0.15868 0.87128 0.8743 0.0
C104 C 0.35191 0.53904 0.24086 0.0
C105 C 0.31905 0.50784 0.27216 0.0
C106 C 0.4172 0.52576 0.21952 0.0
C107 C 0.45163 0.48037 0.22806 0.0
H108 H 0.32772 0.57449 0.23324 0.0
H109 H 0.44043 0.55121 0.19578 0.0
S110 S 0.38685 0.38485 0.30649 0.0
N111 N 0.32537 0.42938 0.3106 0.0
N112 N 0.44748 0.40381 0.26964 0.0
C113 C 0.41895 0.44848 0.25893 0.0
C114 C 0.35287 0.46239 0.28123 0.0
C115 C 0.09347 0.05061 0.26464 0.0
C116 C 0.06135 0.02158 0.23149 0.0
C117 C 0.1581 0.03552 0.28621 0.0
C118 C 0.19377 0.99141 0.27472 0.0
H119 H 0.06818 0.08503 0.27428 0.0
H120 H 0.18056 0.05875 0.31185 0.0
S121 S 0.13256 0.90238 0.18977 0.0
N122 N 0.07027 0.94655 0.18825 0.0
N123 N 0.19202 0.91881 0.2281 0.0
C124 C 0.16255 0.9623 0.24138 0.0
C125 C 0.09625 0.9772 0.21997 0.0
C126 C 0.8517 0.54052 0.21692 0.0
C127 C 0.82004 0.49384 0.22319 0.0
C128 C 0.91673 0.55391 0.23889 0.0
C129 C 0.95316 0.52067 0.2671 0.0
H130 H 0.82558 0.56708 0.19533 0.0
H131 H 0.93869 0.59049 0.23361 0.0
S132 S 0.89469 0.39269 0.2923 0.0
N133 N 0.83102 0.41377 0.2584 0.0
N134 N 0.95345 0.43834 0.29894 0.0
C135 C 0.9226 0.4735 0.27287 0.0
C136 C 0.85597 0.46024 0.25113 0.0
C137 C 0.6594 0.97197 0.21938 0.0
C138 C 0.69386 0.01674 0.23002 0.0
C139 C 0.59505 0.95673 0.24115 0.0
C140 C 0.56205 0.9862 0.27369 0.0
H141 H 0.68256 0.94832 0.19428 0.0
H142 H 0.57068 0.92182 0.23212 0.0
S143 S 0.62996 0.1072 0.31306 0.0
N144 N 0.69 0.09046 0.27517 0.0
N145 N 0.56884 0.0624 0.3154 0.0
C146 C 0.59577 0.03123 0.28436 0.0
C147 C 0.66174 0.04633 0.26273 0.0
C148 C 0.60236 0.55161 0.73123 0.0
C149 C 0.57205 0.52472 0.76645 0.0
C150 C 0.6663 0.53532 0.7097 0.0
C151 C 0.70294 0.49237 0.72355 0.0
H152 H 0.5759 0.58501 0.71981 0.0
H153 H 0.68753 0.55671 0.68236 0.0
S154 S 0.64692 0.40994 0.81534 0.0
N155 N 0.58379 0.45358 0.81462 0.0
N156 N 0.70449 0.42364 0.7751 0.0
C157 C 0.67361 0.46567 0.75921 0.0
C158 C 0.60797 0.48167 0.78043 0.0
C159 C 0.83766 0.03881 0.75624 0.0
C160 C 0.80552 0.01007 0.72298 0.0
C161 C 0.90197 0.02387 0.77753 0.0
C162 C 0.93648 0.97915 0.76699 0.0
H163 H 0.81333 0.07358 0.7658 0.0
H164 H 0.9243 0.04752 0.80291 0.0
S165 S 0.87461 0.89007 0.68238 0.0
N166 N 0.81314 0.93481 0.68008 0.0
N167 N 0.93401 0.90603 0.72101 0.0
C168 C 0.905 0.94973 0.73392 0.0
C169 C 0.83962 0.96541 0.71163 0.0
C170 C 0.17341 0.53647 0.73792 0.0
C171 C 0.20266 0.51032 0.77391 0.0
C172 C 0.10874 0.52113 0.71716 0.0
C173 C 0.07177 0.47843 0.73094 0.0
H174 H 0.20004 0.56959 0.72601 0.0
H175 H 0.08814 0.54258 0.68965 0.0
S176 S 0.12565 0.39658 0.82336 0.0
N177 N 0.18944 0.43986 0.8228 0.0
N178 N 0.06866 0.41005 0.78266 0.0
C179 C 0.10062 0.45154 0.76657 0.0
C180 C 0.16584 0.46779 0.78841 0.0
C181 C 0.37705 0.99046 0.80014 0.0
C182 C 0.30854 0.01261 0.79172 0.0
C183 C 0.43988 0.00423 0.77637 0.0
C184 C 0.43668 0.04134 0.74404 0.0
H185 H 0.38155 0.96067 0.82376 0.0
H186 H 0.49104 0.98504 0.78282 0.0
S187 S 0.27161 0.11361 0.71237 0.0
N188 N 0.24181 0.07518 0.75062 0.0
N189 N 0.3603 0.10201 0.70672 0.0
C190 C 0.36927 0.06548 0.7369 0.0
C191 C 0.30504 0.05083 0.76054 0.0
C192 C 0.99581 0.5408 0.48161 0.0
C193 C 0.05386 0.51455 0.46194 0.0
C194 C 0.96044 0.52313 0.51949 0.0
C195 C 0.98166 0.47846 0.53927 0.0
H196 H 0.97709 0.57527 0.46755 0.0
H197 H 0.91629 0.54487 0.53345 0.0
S198 S 0.13038 0.39536 0.50062 0.0
N199 N 0.13087 0.44138 0.46505 0.0
N200 N 0.06451 0.40819 0.53622 0.0
C201 C 0.03967 0.45178 0.51997 0.0
C202 C 0.07575 0.46982 0.48137 0.0
C203 C 0.51067 0.95795 0.48821 0.0
C204 C 0.45334 0.98421 0.46761 0.0
C205 C 0.54416 0.9754 0.52676 0.0
C206 C 0.52185 0.0199 0.54617 0.0
H207 H 0.53049 0.9238 0.47424 0.0
H208 H 0.58823 0.95393 0.54124 0.0
S209 S 0.37296 0.10221 0.50586 0.0
N210 N 0.3748 0.05665 0.47005 0.0
N211 N 0.43768 0.08947 0.5423 0.0
C212 C 0.46404 0.04631 0.52618 0.0
C213 C 0.42979 0.02845 0.48701 0.0
C214 C 0.49638 0.46778 0.01247 0.0
C215 C 0.55283 0.49477 0.03296 0.0
C216 C 0.46027 0.48576 0.97496 0.0
C217 C 0.47919 0.53144 0.95626 0.0
H218 H 0.47948 0.43246 0.0256 0.0
H219 H 0.41755 0.46334 0.96033 0.0
S220 S 0.62281 0.61687 0.99741 0.0
N221 N 0.62563 0.56985 0.0319 0.0
N222 N 0.55798 0.60354 0.96126 0.0
C223 C 0.53548 0.55893 0.9764 0.0
C224 C 0.57225 0.54062 0.01473 0.0
C225 C 0.059 0.02439 0.98488 0.0
C226 C 0.02863 0.98512 0.96093 0.0
C227 C 0.02468 0.04234 0.02293 0.0
C228 C 0.95856 0.02177 0.03859 0.0
H229 H 0.10977 0.04154 0.9742 0.0
H230 H 0.05069 0.07237 0.0404 0.0
S231 S 0.85514 0.91909 0.98728 0.0
N232 N 0.9276 0.92671 0.9552 0.0
N233 N 0.86327 0.96043 0.02671 0.0
C234 C 0.92726 0.98267 0.01482 0.0
C235 C 0.96225 0.96434 0.97605 0.0
C236 C 0.18575 0.74385 0.36103 0.0
C237 C 0.22936 0.70124 0.3588 0.0
C238 C 0.21788 0.79075 0.36193 0.0
C239 C 0.29474 0.79677 0.35954 0.0
H240 H 0.1263 0.74097 0.36187 0.0
H241 H 0.18203 0.82256 0.36316 0.0
S242 S 0.4333 0.69681 0.35339 0.0
N243 N 0.35345 0.66791 0.35503 0.0
N244 N 0.41365 0.75607 0.35547 0.0
C245 C 0.33899 0.75443 0.35764 0.0
C246 C 0.30635 0.70665 0.35764 0.0
C247 C 0.7196 0.21618 0.13332 0.0
C248 C 0.79588 0.21034 0.13967 0.0
C249 C 0.6872 0.26301 0.13212 0.0
C250 C 0.73011 0.30574 0.13611 0.0
H251 H 0.68419 0.18428 0.13066 0.0
H252 H 0.62804 0.26575 0.1284 0.0
S253 S 0.93248 0.31073 0.15195 0.0
N254 N 0.91357 0.2514 0.14934 0.0
N255 N 0.85298 0.33941 0.14592 0.0
C256 C 0.80669 0.30052 0.14118 0.0
C257 C 0.83949 0.25282 0.1433 0.0
C258 C 0.74345 0.22752 0.6887 0.0
C259 C 0.71774 0.20584 0.64964 0.0
C260 C 0.7829 0.27167 0.68783 0.0
C261 C 0.79649 0.29646 0.64796 0.0
H262 H 0.73384 0.20991 0.72025 0.0
H263 H 0.80137 0.28707 0.71881 0.0
S264 S 0.74044 0.25527 0.53655 0.0
N265 N 0.70941 0.21185 0.56991 0.0
N266 N 0.78129 0.29622 0.56839 0.0
C267 C 0.77077 0.27539 0.60862 0.0
C268 C 0.73207 0.22965 0.60943 0.0
C269 C 0.25283 0.72717 0.8765 0.0
C270 C 0.29136 0.71063 0.83918 0.0
C271 C 0.21439 0.77194 0.87594 0.0
C272 C 0.21188 0.80139 0.83776 0.0
H273 H 0.25274 0.70555 0.90653 0.0
H274 H 0.18634 0.78349 0.90565 0.0
S275 S 0.30222 0.77407 0.73089 0.0
N276 N 0.32404 0.72702 0.7628 0.0
N277 N 0.25095 0.81062 0.76153 0.0
C278 C 0.24946 0.78498 0.80004 0.0
C279 C 0.28949 0.73979 0.80082 0.0
loop_
_geom_bond_atom_site_label_1
_geom_bond_atom_site_label_2
_geom_bond_distance
_geom_bond_site_symmetry_2
_ccdc_geom_bond_type
In0 O1 2.294 . S
In0 O2 2.326 . S
In0 O6 2.266 . S
In0 O7 2.326 . S
In0 O8 2.266 . S
In0 O9 2.326 . S
In0 O11 2.294 . S
In0 O12 2.326 . S
O1 In0 2.294 . S
O1 C10 1.240 . S
O2 In0 2.326 . S
O2 C10 1.252 . S
C3 O6 1.252 . S
C3 O7 1.260 . S
C4 O11 1.240 . S
C4 O12 1.252 . S
C5 O8 1.252 . S
C5 O9 1.260 . S
O6 In0 2.266 . S
O6 C3 1.252 . S
O7 In0 2.326 . S
O7 C3 1.260 . S
O8 In0 2.266 . S
O8 C5 1.252 . S
O9 In0 2.326 . S
O9 C5 1.260 . S
C10 O1 1.240 . S
C10 O2 1.252 . S
O11 In0 2.294 . S
O11 C4 1.240 . S
O12 In0 2.326 . S
O12 C4 1.252 . S
In13 O14 2.294 . S
In13 O15 2.326 . S
In13 O19 2.266 . S
In13 O20 2.326 . S
In13 O21 2.266 . S
In13 O22 2.326 1_565 S
In13 O24 2.294 . S
In13 O25 2.326 . S
O14 In13 2.294 . S
O14 C23 1.240 . S
O15 In13 2.326 . S
O15 C23 1.252 . S
C16 O19 1.252 . S
C16 O20 1.260 . S
C17 O24 1.240 . S
C17 O25 1.252 . S
C18 O21 1.252 . S
C18 O22 1.260 1_565 S
O19 In13 2.266 . S
O19 C16 1.252 . S
O20 In13 2.326 . S
O20 C16 1.260 . S
O21 In13 2.266 . S
O21 C18 1.252 . S
O22 In13 2.326 1_545 S
O22 C18 1.260 1_545 S
C23 O14 1.240 . S
C23 O15 1.252 . S
O24 In13 2.294 . S
O24 C17 1.240 . S
O25 In13 2.326 . S
O25 C17 1.252 . S
In26 O27 2.294 . S
In26 O28 2.326 . S
In26 O32 2.266 . S
In26 O33 2.326 . S
In26 O34 2.266 . S
In26 O35 2.326 . S
In26 O37 2.294 . S
In26 O38 2.326 . S
O27 In26 2.294 . S
O27 C36 1.240 . S
O28 In26 2.326 . S
O28 C36 1.252 . S
C29 O32 1.252 . S
C29 O33 1.260 . S
C30 O37 1.240 . S
C30 O38 1.252 . S
C31 O34 1.252 . S
C31 O35 1.260 . S
O32 In26 2.266 . S
O32 C29 1.252 . S
O33 In26 2.326 . S
O33 C29 1.260 . S
O34 In26 2.266 . S
O34 C31 1.252 . S
O35 In26 2.326 . S
O35 C31 1.260 . S
C36 O27 1.240 . S
C36 O28 1.252 . S
O37 In26 2.294 . S
O37 C30 1.240 . S
O38 In26 2.326 . S
O38 C30 1.252 . S
In39 O40 2.294 . S
In39 O41 2.326 . S
In39 O45 2.266 . S
In39 O46 2.326 . S
In39 O47 2.266 . S
In39 O48 2.326 1_545 S
In39 O50 2.294 . S
In39 O51 2.326 . S
O40 In39 2.294 . S
O40 C49 1.240 . S
O41 In39 2.326 . S
O41 C49 1.252 . S
C42 O45 1.252 . S
C42 O46 1.260 . S
C43 O50 1.240 . S
C43 O51 1.252 . S
C44 O47 1.252 . S
C44 O48 1.260 1_545 S
O45 In39 2.266 . S
O45 C42 1.252 . S
O46 In39 2.326 . S
O46 C42 1.260 . S
O47 In39 2.266 . S
O47 C44 1.252 . S
O48 In39 2.326 1_565 S
O48 C44 1.260 1_565 S
C49 O40 1.240 . S
C49 O41 1.252 . S
O50 In39 2.294 . S
O50 C43 1.240 . S
O51 In39 2.326 . S
O51 C43 1.252 . S
In52 O53 2.294 . S
In52 O54 2.326 . S
In52 O58 2.266 . S
In52 O59 2.326 . S
In52 O60 2.266 . S
In52 O61 2.326 . S
In52 O63 2.294 . S
In52 O64 2.326 . S
O53 In52 2.294 . S
O53 C62 1.240 . S
O54 In52 2.326 . S
O54 C62 1.252 . S
C55 O58 1.252 . S
C55 O59 1.260 . S
C56 O63 1.240 . S
C56 O64 1.252 . S
C57 O60 1.252 . S
C57 O61 1.260 . S
O58 In52 2.266 . S
O58 C55 1.252 . S
O59 In52 2.326 . S
O59 C55 1.260 . S
O60 In52 2.266 . S
O60 C57 1.252 . S
O61 In52 2.326 . S
O61 C57 1.260 . S
C62 O53 1.240 . S
C62 O54 1.252 . S
O63 In52 2.294 . S
O63 C56 1.240 . S
O64 In52 2.326 . S
O64 C56 1.252 . S
In65 O66 2.294 . S
In65 O67 2.326 . S
In65 O71 2.266 . S
In65 O72 2.326 . S
In65 O73 2.266 . S
In65 O74 2.326 1_545 S
In65 O76 2.294 . S
In65 O77 2.326 . S
O66 In65 2.294 . S
O66 C75 1.240 . S
O67 In65 2.326 . S
O67 C75 1.252 . S
C68 O71 1.252 . S
C68 O72 1.260 . S
C69 O76 1.240 . S
C69 O77 1.252 . S
C70 O73 1.252 . S
C70 O74 1.260 1_545 S
O71 In65 2.266 . S
O71 C68 1.252 . S
O72 In65 2.326 . S
O72 C68 1.260 . S
O73 In65 2.266 . S
O73 C70 1.252 . S
O74 In65 2.326 1_565 S
O74 C70 1.260 1_565 S
C75 O66 1.240 . S
C75 O67 1.252 . S
O76 In65 2.294 . S
O76 C69 1.240 . S
O77 In65 2.326 . S
O77 C69 1.252 . S
In78 O79 2.294 . S
In78 O80 2.326 . S
In78 O84 2.266 . S
In78 O85 2.326 . S
In78 O86 2.266 . S
In78 O87 2.326 . S
In78 O89 2.294 . S
In78 O90 2.326 . S
O79 In78 2.294 . S
O79 C88 1.240 . S
O80 In78 2.326 . S
O80 C88 1.252 . S
C81 O84 1.252 . S
C81 O85 1.260 . S
C82 O89 1.240 . S
C82 O90 1.252 . S
C83 O86 1.252 . S
C83 O87 1.260 . S
O84 In78 2.266 . S
O84 C81 1.252 . S
O85 In78 2.326 . S
O85 C81 1.260 . S
O86 In78 2.266 . S
O86 C83 1.252 . S
O87 In78 2.326 . S
O87 C83 1.260 . S
C88 O79 1.240 . S
C88 O80 1.252 . S
O89 In78 2.294 . S
O89 C82 1.240 . S
O90 In78 2.326 . S
O90 C82 1.252 . S
In91 O92 2.294 . S
In91 O93 2.326 . S
In91 O97 2.266 . S
In91 O98 2.326 . S
In91 O99 2.266 . S
In91 O100 2.326 1_565 S
In91 O102 2.294 . S
In91 O103 2.326 . S
O92 In91 2.294 . S
O92 C101 1.240 . S
O93 In91 2.326 . S
O93 C101 1.252 . S
C94 O97 1.252 . S
C94 O98 1.260 . S
C95 O102 1.240 . S
C95 O103 1.252 . S
C96 O99 1.252 . S
C96 O100 1.260 1_565 S
O97 In91 2.266 . S
O97 C94 1.252 . S
O98 In91 2.326 . S
O98 C94 1.260 . S
O99 In91 2.266 . S
O99 C96 1.252 . S
O100 In91 2.326 1_545 S
O100 C96 1.260 1_545 S
C101 O92 1.240 . S
C101 O93 1.252 . S
O102 In91 2.294 . S
O102 C95 1.240 . S
O103 In91 2.326 . S
O103 C95 1.252 . S
C104 C105 1.369 . S
C104 C106 1.419 . S
C104 H108 0.930 . S
C105 C104 1.369 . S
C105 C114 1.429 . S
C106 C104 1.419 . S
C106 C107 1.363 . S
C106 H109 0.929 . S
C107 C106 1.363 . S
C107 C113 1.428 . S
H108 C104 0.930 . S
H109 C106 0.929 . S
S110 N111 1.613 . S
S110 N112 1.610 . S
N111 S110 1.613 . S
N111 C114 1.350 . S
N112 S110 1.610 . S
N112 C113 1.351 . S
C113 C107 1.428 . S
C113 N112 1.351 . S
C113 C114 1.434 . S
C114 C105 1.429 . S
C114 N111 1.350 . S
C114 C113 1.434 . S
C115 C116 1.369 . S
C115 C117 1.419 . S
C115 H119 0.930 . S
C116 C115 1.369 . S
C116 C125 1.429 1_545 S
C117 C115 1.419 . S
C117 C118 1.363 1_545 S
C117 H120 0.929 . S
C118 C117 1.363 1_565 S
C118 C124 1.428 . S
H119 C115 0.930 . S
H120 C117 0.929 . S
S121 N122 1.613 . S
S121 N123 1.610 . S
N122 S121 1.613 . S
N122 C125 1.350 . S
N123 S121 1.610 . S
N123 C124 1.351 . S
C124 C118 1.428 . S
C124 N123 1.351 . S
C124 C125 1.434 . S
C125 C116 1.429 1_565 S
C125 N122 1.350 . S
C125 C124 1.434 . S
C126 C127 1.369 . S
C126 C128 1.419 . S
C126 H130 0.930 . S
C127 C126 1.369 . S
C127 C136 1.429 . S
C128 C126 1.419 . S
C128 C129 1.363 . S
C128 H131 0.929 . S
C129 C128 1.363 . S
C129 C135 1.428 . S
H130 C126 0.930 . S
H131 C128 0.929 . S
S132 N133 1.613 . S
S132 N134 1.610 . S
N133 S132 1.613 . S
N133 C136 1.350 . S
N134 S132 1.610 . S
N134 C135 1.351 . S
C135 C129 1.428 . S
C135 N134 1.351 . S
C135 C136 1.434 . S
C136 C127 1.429 . S
C136 N133 1.350 . S
C136 C135 1.434 . S
C137 C138 1.369 1_565 S
C137 C139 1.419 . S
C137 H141 0.930 . S
C138 C137 1.369 1_545 S
C138 C147 1.429 . S
C139 C137 1.419 . S
C139 C140 1.363 . S
C139 H142 0.929 . S
C140 C139 1.363 . S
C140 C146 1.428 1_565 S
H141 C137 0.930 . S
H142 C139 0.929 . S
S143 N144 1.613 . S
S143 N145 1.610 . S
N144 S143 1.613 . S
N144 C147 1.350 . S
N145 S143 1.610 . S
N145 C146 1.351 . S
C146 C140 1.428 1_545 S
C146 N145 1.351 . S
C146 C147 1.434 . S
C147 C138 1.429 . S
C147 N144 1.350 . S
C147 C146 1.434 . S
C148 C149 1.369 . S
C148 C150 1.419 . S
C148 H152 0.930 . S
C149 C148 1.369 . S
C149 C158 1.429 . S
C150 C148 1.419 . S
C150 C151 1.363 . S
C150 H153 0.929 . S
C151 C150 1.363 . S
C151 C157 1.428 . S
H152 C148 0.930 . S
H153 C150 0.929 . S
S154 N155 1.613 . S
S154 N156 1.610 . S
N155 S154 1.613 . S
N155 C158 1.350 . S
N156 S154 1.610 . S
N156 C157 1.351 . S
C157 C151 1.428 . S
C157 N156 1.351 . S
C157 C158 1.434 . S
C158 C149 1.429 . S
C158 N155 1.350 . S
C158 C157 1.434 . S
C159 C160 1.369 . S
C159 C161 1.419 . S
C159 H163 0.930 . S
C160 C159 1.369 . S
C160 C169 1.429 1_545 S
C161 C159 1.419 . S
C161 C162 1.363 1_545 S
C161 H164 0.929 . S
C162 C161 1.363 1_565 S
C162 C168 1.428 . S
H163 C159 0.930 . S
H164 C161 0.929 . S
S165 N166 1.613 . S
S165 N167 1.610 . S
N166 S165 1.613 . S
N166 C169 1.350 . S
N167 S165 1.610 . S
N167 C168 1.351 . S
C168 C162 1.428 . S
C168 N167 1.351 . S
C168 C169 1.434 . S
C169 C160 1.429 1_565 S
C169 N166 1.350 . S
C169 C168 1.434 . S
C170 C171 1.369 . S
C170 C172 1.419 . S
C170 H174 0.930 . S
C171 C170 1.369 . S
C171 C180 1.429 . S
C172 C170 1.419 . S
C172 C173 1.363 . S
C172 H175 0.929 . S
C173 C172 1.363 . S
C173 C179 1.428 . S
H174 C170 0.930 . S
H175 C172 0.929 . S
S176 N177 1.613 . S
S176 N178 1.610 . S
N177 S176 1.613 . S
N177 C180 1.350 . S
N178 S176 1.610 . S
N178 C179 1.351 . S
C179 C173 1.428 . S
C179 N178 1.351 . S
C179 C180 1.434 . S
C180 C171 1.429 . S
C180 N177 1.350 . S
C180 C179 1.434 . S
C181 C182 1.369 . S
C181 C183 1.419 . S
C181 H185 0.930 . S
C182 C181 1.369 . S
C182 C191 1.429 1_565 S
C183 C181 1.419 . S
C183 C184 1.363 1_565 S
C183 H186 0.929 . S
C184 C183 1.363 1_545 S
C184 C190 1.428 . S
H185 C181 0.930 . S
H186 C183 0.929 . S
S187 N188 1.613 . S
S187 N189 1.610 . S
N188 S187 1.613 . S
N188 C191 1.350 . S
N189 S187 1.610 . S
N189 C190 1.351 . S
C190 C184 1.428 . S
C190 N189 1.351 . S
C190 C191 1.434 . S
C191 C182 1.429 1_545 S
C191 N188 1.350 . S
C191 C190 1.434 . S
C192 C193 1.369 1_655 S
C192 C194 1.419 . S
C192 H196 0.930 . S
C193 C192 1.369 1_455 S
C193 C202 1.429 . S
C194 C192 1.419 . S
C194 C195 1.363 . S
C194 H197 0.929 . S
C195 C194 1.363 . S
C195 C201 1.428 1_655 S
H196 C192 0.930 . S
H197 C194 0.929 . S
S198 N199 1.613 . S
S198 N200 1.610 . S
N199 S198 1.613 . S
N199 C202 1.350 . S
N200 S198 1.610 . S
N200 C201 1.351 . S
C201 C195 1.428 1_455 S
C201 N200 1.351 . S
C201 C202 1.434 . S
C202 C193 1.429 . S
C202 N199 1.350 . S
C202 C201 1.434 . S
C203 C204 1.369 . S
C203 C205 1.419 . S
C203 H207 0.930 . S
C204 C203 1.369 . S
C204 C213 1.429 1_565 S
C205 C203 1.419 . S
C205 C206 1.363 1_565 S
C205 H208 0.929 . S
C206 C205 1.363 1_545 S
C206 C212 1.428 . S
H207 C203 0.930 . S
H208 C205 0.929 . S
S209 N210 1.613 . S
S209 N211 1.610 . S
N210 S209 1.613 . S
N210 C213 1.350 . S
N211 S209 1.610 . S
N211 C212 1.351 . S
C212 C206 1.428 . S
C212 N211 1.351 . S
C212 C213 1.434 . S
C213 C204 1.429 1_545 S
C213 N210 1.350 . S
C213 C212 1.434 . S
C214 C215 1.369 . S
C214 C216 1.419 1_554 S
C214 H218 0.930 . S
C215 C214 1.369 . S
C215 C224 1.429 . S
C216 C214 1.419 1_556 S
C216 C217 1.363 . S
C216 H219 0.929 . S
C217 C216 1.363 . S
C217 C223 1.428 . S
H218 C214 0.930 . S
H219 C216 0.929 . S
S220 N221 1.613 . S
S220 N222 1.610 1_554 S
N221 S220 1.613 . S
N221 C224 1.350 . S
N222 S220 1.610 1_556 S
N222 C223 1.351 . S
C223 C217 1.428 . S
C223 N222 1.351 . S
C223 C224 1.434 1_556 S
C224 C215 1.429 . S
C224 N221 1.350 . S
C224 C223 1.434 1_554 S
C225 C226 1.349 1_554 S
C225 C227 1.437 . S
C225 H229 0.932 . S
C226 C225 1.349 1_556 S
C226 C235 1.429 1_465 S
C227 C225 1.437 . S
C227 C228 1.363 1_465 S
C227 H230 0.929 . S
C228 C227 1.363 1_645 S
C228 C234 1.428 1_554 S
H229 C225 0.932 . S
H230 C227 0.929 . S
S231 N232 1.613 . S
S231 N233 1.610 . S
N232 S231 1.613 . S
N232 C235 1.350 . S
N233 S231 1.610 . S
N233 C234 1.351 . S
C234 C228 1.428 1_556 S
C234 N233 1.351 . S
C234 C235 1.434 . S
C235 C226 1.429 1_645 S
C235 N232 1.350 . S
C235 C234 1.434 . S
C236 C237 1.369 . S
C236 C238 1.419 . S
C236 H240 0.930 . S
C237 C236 1.369 . S
C237 C246 1.429 . S
C238 C236 1.419 . S
C238 C239 1.363 . S
C238 H241 0.929 . S
C239 C238 1.363 . S
C239 C245 1.428 . S
H240 C236 0.930 . S
H241 C238 0.929 . S
S242 N243 1.613 . S
S242 N244 1.610 . S
N243 S242 1.613 . S
N243 C246 1.350 . S
N244 S242 1.610 . S
N244 C245 1.351 . S
C245 C239 1.428 . S
C245 N244 1.351 . S
C245 C246 1.434 . S
C246 C237 1.429 . S
C246 N243 1.350 . S
C246 C245 1.434 . S
C247 C248 1.369 . S
C247 C249 1.419 . S
C247 H251 0.930 . S
C248 C247 1.369 . S
C248 C257 1.429 . S
C249 C247 1.419 . S
C249 C250 1.363 . S
C249 H252 0.929 . S
C250 C249 1.363 . S
C250 C256 1.428 . S
H251 C247 0.930 . S
H252 C249 0.929 . S
S253 N254 1.613 . S
S253 N255 1.610 . S
N254 S253 1.613 . S
N254 C257 1.350 . S
N255 S253 1.610 . S
N255 C256 1.351 . S
C256 C250 1.428 . S
C256 N255 1.351 . S
C256 C257 1.434 . S
C257 C248 1.429 . S
C257 N254 1.350 . S
C257 C256 1.434 . S
C258 C259 1.369 . S
C258 C260 1.419 . S
C258 H262 0.930 . S
C259 C258 1.369 . S
C259 C268 1.429 . S
C260 C258 1.419 . S
C260 C261 1.363 . S
C260 H263 0.929 . S
C261 C260 1.363 . S
C261 C267 1.428 . S
H262 C258 0.930 . S
H263 C260 0.929 . S
S264 N265 1.613 . S
S264 N266 1.610 . S
N265 S264 1.613 . S
N265 C268 1.350 . S
N266 S264 1.610 . S
N266 C267 1.351 . S
C267 C261 1.428 . S
C267 N266 1.351 . S
C267 C268 1.434 . S
C268 C259 1.429 . S
C268 N265 1.350 . S
C268 C267 1.434 . S
C269 C270 1.369 . S
C269 C271 1.419 . S
C269 H273 0.930 . S
C270 C269 1.369 . S
C270 C279 1.429 . S
C271 C269 1.419 . S
C271 C272 1.363 . S
C271 H274 0.929 . S
C272 C271 1.363 . S
C272 C278 1.428 . S
H273 C269 0.930 . S
H274 C271 0.929 . S
S275 N276 1.613 . S
S275 N277 1.610 . S
N276 S275 1.613 . S
N276 C279 1.350 . S
N277 S275 1.610 . S
N277 C278 1.351 . S
C278 C272 1.428 . S
C278 N277 1.351 . S
C278 C279 1.434 . S
C279 C270 1.429 . S
C279 N276 1.350 . S
C279 C278 1.434 . S
C105 C10 1.544 . S
C107 C29 1.544 . S
C116 C44 1.545 1_455 S
C118 C23 1.543 . S
C127 C30 1.543 . S
C129 C5 1.545 1_655 S
C138 C49 1.543 . S
C140 C18 1.545 . S
C149 C83 1.545 . S
C151 C56 1.544 . S
C160 C75 1.544 . S
C162 C96 1.544 1_655 S
C171 C88 1.544 . S
C173 C55 1.544 1_455 S
C182 C101 1.544 . S
C184 C70 1.544 . S
C193 C3 1.517 . S
C195 C57 1.520 . S
C204 C16 1.517 . S
C206 C68 1.520 . S
C215 C31 1.517 . S
C217 C81 1.520 . S
C226 C94 1.518 . S
C228 C42 1.519 . S
C237 C4 1.520 . S
C239 C17 1.520 . S
C248 C43 1.520 . S
C250 C36 1.521 . S
C259 C69 1.522 . S
C261 C62 1.521 . S
C270 C82 1.519 . S
C272 C95 1.520 . S
