# Generated by pormake.
# Topology tzs, (4)-cn, num edge types: 1
# Building blocks:
#     Node 0, Type 0, BuildingBlock: TATPOV_clean_sbu_0, # of connection points: 4
#     Node 1, Type 0, BuildingBlock: TATPOV_clean_sbu_0, # of connection points: 4
#     Node 2, Type 0, BuildingBlock: TATPOV_clean_sbu_0, # of connection points: 4
#     Node 3, Type 0, BuildingBlock: TATPOV_clean_sbu_0, # of connection points: 4
#     Node 4, Type 0, BuildingBlock: TATPOV_clean_sbu_0, # of connection points: 4
#     Node 5, Type 0, BuildingBlock: TATPOV_clean_sbu_0, # of connection points: 4
#     Node 6, Type 0, BuildingBlock: TATPOV_clean_sbu_0, # of connection points: 4
#     Node 7, Type 0, BuildingBlock: TATPOV_clean_sbu_0, # of connection points: 4
#     Node 8, Type 0, BuildingBlock: TATPOV_clean_sbu_0, # of connection points: 4
#     Node 9, Type 0, BuildingBlock: TATPOV_clean_sbu_0, # of connection points: 4
#     Node 10, Type 0, BuildingBlock: TATPOV_clean_sbu_0, # of connection points: 4
#     Node 11, Type 0, BuildingBlock: TATPOV_clean_sbu_0, # of connection points: 4
#     Node 12, Type 0, BuildingBlock: TATPOV_clean_sbu_0, # of connection points: 4
#     Node 13, Type 0, BuildingBlock: TATPOV_clean_sbu_0, # of connection points: 4
#     Node 14, Type 0, BuildingBlock: TATPOV_clean_sbu_0, # of connection points: 4
#     Node 15, Type 0, BuildingBlock: TATPOV_clean_sbu_0, # of connection points: 4
#     Edge 16, Type (0, 0), BuildingBlock: TEMPAE_clean_linker_10, # of connection points: 2
#     Edge 17, Type (0, 0), BuildingBlock: TEMPAE_clean_linker_10, # of connection points: 2
#     Edge 18, Type (0, 0), BuildingBlock: TEMPAE_clean_linker_10, # of connection points: 2
#     Edge 19, Type (0, 0), BuildingBlock: TEMPAE_clean_linker_10, # of connection points: 2
#     Edge 20, Type (0, 0), BuildingBlock: TEMPAE_clean_linker_10, # of connection points: 2
#     Edge 21, Type (0, 0), BuildingBlock: TEMPAE_clean_linker_10, # of connection points: 2
#     Edge 22, Type (0, 0), BuildingBlock: TEMPAE_clean_linker_10, # of connection points: 2
#     Edge 23, Type (0, 0), BuildingBlock: TEMPAE_clean_linker_10, # of connection points: 2
#     Edge 24, Type (0, 0), BuildingBlock: TEMPAE_clean_linker_10, # of connection points: 2
#     Edge 25, Type (0, 0), BuildingBlock: TEMPAE_clean_linker_10, # of connection points: 2
#     Edge 26, Type (0, 0), BuildingBlock: TEMPAE_clean_linker_10, # of connection points: 2
#     Edge 27, Type (0, 0), BuildingBlock: TEMPAE_clean_linker_10, # of connection points: 2
#     Edge 28, Type (0, 0), BuildingBlock: TEMPAE_clean_linker_10, # of connection points: 2
#     Edge 29, Type (0, 0), BuildingBlock: TEMPAE_clean_linker_10, # of connection points: 2
#     Edge 30, Type (0, 0), BuildingBlock: TEMPAE_clean_linker_10, # of connection points: 2
#     Edge 31, Type (0, 0), BuildingBlock: TEMPAE_clean_linker_10, # of connection points: 2
#     Edge 32, Type (0, 0), BuildingBlock: TEMPAE_clean_linker_10, # of connection points: 2
#     Edge 33, Type (0, 0), BuildingBlock: TEMPAE_clean_linker_10, # of connection points: 2
#     Edge 34, Type (0, 0), BuildingBlock: TEMPAE_clean_linker_10, # of connection points: 2
#     Edge 35, Type (0, 0), BuildingBlock: TEMPAE_clean_linker_10, # of connection points: 2
#     Edge 36, Type (0, 0), BuildingBlock: TEMPAE_clean_linker_10, # of connection points: 2
#     Edge 37, Type (0, 0), BuildingBlock: TEMPAE_clean_linker_10, # of connection points: 2
#     Edge 38, Type (0, 0), BuildingBlock: TEMPAE_clean_linker_10, # of connection points: 2
#     Edge 39, Type (0, 0), BuildingBlock: TEMPAE_clean_linker_10, # of connection points: 2
#     Edge 40, Type (0, 0), BuildingBlock: TEMPAE_clean_linker_10, # of connection points: 2
#     Edge 41, Type (0, 0), BuildingBlock: TEMPAE_clean_linker_10, # of connection points: 2
#     Edge 42, Type (0, 0), BuildingBlock: TEMPAE_clean_linker_10, # of connection points: 2
#     Edge 43, Type (0, 0), BuildingBlock: TEMPAE_clean_linker_10, # of connection points: 2
#     Edge 44, Type (0, 0), BuildingBlock: TEMPAE_clean_linker_10, # of connection points: 2
#     Edge 45, Type (0, 0), BuildingBlock: TEMPAE_clean_linker_10, # of connection points: 2
#     Edge 46, Type (0, 0), BuildingBlock: TEMPAE_clean_linker_10, # of connection points: 2
#     Edge 47, Type (0, 0), BuildingBlock: TEMPAE_clean_linker_10, # of connection points: 2
# Relax obj value: 0.049
# Max RMSD: 0.075
# Mean RMSD: 0.075
data_MOF--net-tzs--node1-TATPOV_clean_sbu_0--edge1-TEMPAE_clean_linker_10
_symmetry_space_group_name_H-M    P1
_symmetry_Int_Tables_number       1
_symmetry_cell_setting            triclinic
loop_
_symmetry_equiv_pos_as_xyz
'x, y, z'
_cell_length_a     48.197911
_cell_length_b     48.210976
_cell_length_c     42.231068
_cell_angle_alpha  90.007743
_cell_angle_beta   90.063693
_cell_angle_gamma 89.977551
loop_
_atom_site_label
_atom_site_type_symbol
_atom_site_fract_x
_atom_site_fract_y
_atom_site_fract_z
_atom_type_partial_charge
Zn0 Zn 0.10519 0.3627 0.12096 0.0
Zn1 Zn 0.14329 0.33013 0.14581 0.0
O2 O 0.10642 0.31639 0.16671 0.0
O3 O 0.0754 0.34467 0.14621 0.0
O4 O 0.17301 0.30504 0.16345 0.0
O5 O 0.11381 0.34895 0.0775 0.0
O6 O 0.14799 0.32429 0.09755 0.0
C7 C 0.08135 0.32484 0.1646 0.0
C8 C 0.14607 0.39316 0.15586 0.0
O9 O 0.15575 0.36894 0.16093 0.0
O10 O 0.1246 0.39622 0.13891 0.0
C11 C 0.173 0.29597 0.1917 0.0
O12 O 0.15254 0.30281 0.2107 0.0
C13 C 0.13419 0.33277 0.07368 0.0
Zn14 Zn 0.6222 0.10484 0.14055 0.0
Zn15 Zn 0.65569 0.13551 0.17403 0.0
O16 O 0.66961 0.09537 0.18178 0.0
O17 O 0.64421 0.07032 0.14936 0.0
O18 O 0.68338 0.1583 0.19842 0.0
O19 O 0.62893 0.12797 0.1022 0.0
O20 O 0.6612 0.15058 0.12858 0.0
C21 C 0.66342 0.07189 0.16972 0.0
C22 C 0.59364 0.1329 0.19024 0.0
O23 O 0.61731 0.14416 0.19473 0.0
O24 O 0.59074 0.11461 0.16902 0.0
C25 C 0.68169 0.18458 0.19975 0.0
O26 O 0.66049 0.19705 0.18629 0.0
C27 C 0.64783 0.14613 0.10307 0.0
Zn28 Zn 0.88544 0.57868 0.15713 0.0
Zn29 Zn 0.86006 0.61365 0.19483 0.0
O30 O 0.90103 0.62176 0.2053 0.0
O31 O 0.92224 0.59374 0.17208 0.0
O32 O 0.83881 0.64244 0.21943 0.0
O33 O 0.86734 0.59331 0.11822 0.0
O34 O 0.84835 0.62453 0.14926 0.0
C35 C 0.92339 0.61194 0.19368 0.0
C36 C 0.85303 0.55068 0.20376 0.0
O37 O 0.84736 0.57538 0.21264 0.0
O38 O 0.86856 0.54678 0.18004 0.0
C39 C 0.81293 0.64464 0.21411 0.0
O40 O 0.80095 0.6265 0.19531 0.0
C41 C 0.85222 0.61451 0.12172 0.0
Zn42 Zn 0.41401 0.86081 0.13076 0.0
Zn43 Zn 0.38028 0.83063 0.16549 0.0
O44 O 0.36775 0.87013 0.17772 0.0
O45 O 0.39462 0.89517 0.14681 0.0
O46 O 0.35426 0.805 0.18882 0.0
O47 O 0.4021 0.84294 0.09044 0.0
O48 O 0.3715 0.8203 0.11895 0.0
C49 C 0.37565 0.89374 0.1675 0.0
C50 C 0.44369 0.8292 0.17639 0.0
O51 O 0.41934 0.82079 0.18343 0.0
O52 O 0.44695 0.84642 0.1541 0.0
C53 C 0.32986 0.80166 0.17795 0.0
O54 O 0.3219 0.81639 0.15339 0.0
C55 C 0.38195 0.82623 0.09212 0.0
Zn56 Zn 0.14694 0.58262 0.33726 0.0
Zn57 Zn 0.17047 0.61807 0.29871 0.0
O58 O 0.12931 0.62489 0.28852 0.0
O59 O 0.10947 0.59604 0.3219 0.0
O60 O 0.19069 0.64683 0.27293 0.0
O61 O 0.16433 0.59905 0.37567 0.0
O62 O 0.18146 0.63074 0.34389 0.0
C63 C 0.10746 0.61419 0.30031 0.0
C64 C 0.17934 0.55481 0.29116 0.0
O65 O 0.18363 0.5796 0.28168 0.0
O66 O 0.16473 0.5506 0.31556 0.0
C67 C 0.21442 0.64296 0.26061 0.0
O68 O 0.22604 0.61837 0.26255 0.0
C69 C 0.17801 0.62114 0.37171 0.0
Zn70 Zn 0.38426 0.09996 0.34103 0.0
Zn71 Zn 0.35493 0.12955 0.30193 0.0
O72 O 0.34867 0.08924 0.28561 0.0
O73 O 0.376 0.06529 0.31711 0.0
O74 O 0.32996 0.15275 0.27427 0.0
O75 O 0.36072 0.11009 0.37789 0.0
O76 O 0.33933 0.1394 0.34634 0.0
C77 C 0.35935 0.06612 0.29396 0.0
C78 C 0.41768 0.13906 0.30728 0.0
O79 O 0.39476 0.14382 0.29308 0.0
O80 O 0.41837 0.12203 0.33009 0.0
C81 C 0.32901 0.1788 0.27886 0.0
O82 O 0.34574 0.18988 0.29995 0.0
C83 C 0.34294 0.12903 0.37377 0.0
Zn84 Zn 0.91216 0.34895 0.37106 0.0
Zn85 Zn 0.87405 0.32012 0.34063 0.0
O86 O 0.91116 0.30612 0.32076 0.0
O87 O 0.94242 0.32978 0.34742 0.0
O88 O 0.84426 0.29734 0.31976 0.0
O89 O 0.89951 0.33433 0.41289 0.0
O90 O 0.86629 0.31209 0.38786 0.0
C91 C 0.93652 0.31223 0.32619 0.0
C92 C 0.87493 0.38336 0.33485 0.0
O93 O 0.86411 0.36007 0.32768 0.0
O94 O 0.89575 0.38429 0.35316 0.0
C95 C 0.84074 0.29585 0.28999 0.0
O96 O 0.85778 0.30924 0.27115 0.0
C97 C 0.87828 0.31893 0.41359 0.0
Zn98 Zn 0.63804 0.88232 0.3514 0.0
Zn99 Zn 0.66953 0.84687 0.32224 0.0
O100 O 0.68175 0.88408 0.30095 0.0
O101 O 0.65364 0.91288 0.32548 0.0
O102 O 0.69369 0.81682 0.30407 0.0
O103 O 0.65452 0.87444 0.3935 0.0
O104 O 0.6787 0.8418 0.36989 0.0
C105 C 0.67245 0.90864 0.3052 0.0
C106 C 0.60595 0.84303 0.31706 0.0
O107 O 0.63003 0.83471 0.30889 0.0
O108 O 0.60356 0.8629 0.33647 0.0
C109 C 0.70448 0.81529 0.2767 0.0
O110 O 0.70032 0.83543 0.25628 0.0
C111 C 0.67177 0.85474 0.39495 0.0
Zn112 Zn 0.89501 0.64187 0.86268 0.0
Zn113 Zn 0.85628 0.67361 0.8379 0.0
O114 O 0.84333 0.63462 0.82403 0.0
O115 O 0.8749 0.60806 0.84639 0.0
O116 O 0.82748 0.69952 0.82007 0.0
O117 O 0.88751 0.65691 0.90584 0.0
O118 O 0.85247 0.68049 0.88605 0.0
C119 C 0.85318 0.61058 0.82971 0.0
C120 C 0.91775 0.67832 0.8171 0.0
O121 O 0.89259 0.68652 0.81558 0.0
O122 O 0.92434 0.65903 0.83595 0.0
C123 C 0.81653 0.69598 0.79299 0.0
O124 O 0.82413 0.6746 0.77577 0.0
C125 C 0.867 0.67292 0.90973 0.0
Zn126 Zn 0.36009 0.90843 0.8516 0.0
Zn127 Zn 0.33121 0.874 0.81629 0.0
O128 O 0.37123 0.86384 0.804 0.0
O129 O 0.39552 0.89146 0.83489 0.0
O130 O 0.30813 0.84691 0.79143 0.0
O131 O 0.34263 0.89413 0.89113 0.0
O132 O 0.32138 0.86274 0.86218 0.0
C133 C 0.3946 0.87264 0.81397 0.0
C134 C 0.32643 0.93758 0.80754 0.0
O135 O 0.31905 0.91302 0.79992 0.0
O136 O 0.34388 0.94115 0.82956 0.0
C137 C 0.30102 0.85001 0.76266 0.0
O138 O 0.30893 0.87235 0.74731 0.0
C139 C 0.32703 0.87312 0.88916 0.0
Zn140 Zn 0.11763 0.42246 0.82753 0.0
Zn141 Zn 0.14365 0.3892 0.789 0.0
O142 O 0.1531 0.42847 0.77102 0.0
O143 O 0.13065 0.45569 0.80401 0.0
O144 O 0.1671 0.3626 0.76345 0.0
O145 O 0.13801 0.4099 0.86586 0.0
O146 O 0.15714 0.37915 0.83433 0.0
C147 C 0.14583 0.45277 0.77983 0.0
C148 C 0.08055 0.38635 0.79315 0.0
O149 O 0.10292 0.37813 0.78001 0.0
O150 O 0.08155 0.4045 0.81483 0.0
C151 C 0.16754 0.33743 0.7725 0.0
O152 O 0.15115 0.32984 0.79579 0.0
C153 C 0.15382 0.38928 0.86192 0.0
Zn154 Zn 0.60213 0.12081 0.84123 0.0
Zn155 Zn 0.63523 0.1533 0.80982 0.0
O156 O 0.59609 0.16934 0.79974 0.0
O157 O 0.56927 0.14459 0.83091 0.0
O158 O 0.66184 0.17987 0.78853 0.0
O159 O 0.62275 0.12526 0.88164 0.0
O160 O 0.64829 0.15599 0.85662 0.0
C161 C 0.57206 0.16385 0.81081 0.0
C162 C 0.63043 0.09176 0.79202 0.0
O163 O 0.64248 0.11511 0.78815 0.0
O164 O 0.61175 0.08924 0.81284 0.0
C165 C 0.6675 0.20244 0.8028 0.0
O166 O 0.65479 0.20809 0.82954 0.0
C167 C 0.64205 0.14299 0.88186 0.0
Zn168 Zn 0.85822 0.4178 0.65141 0.0
Zn169 Zn 0.83284 0.38359 0.68892 0.0
O170 O 0.82052 0.42294 0.70428 0.0
O171 O 0.84143 0.45117 0.67119 0.0
O172 O 0.80826 0.35789 0.71396 0.0
O173 O 0.84182 0.40199 0.61222 0.0
O174 O 0.8236 0.37038 0.64331 0.0
C175 C 0.82584 0.44755 0.69487 0.0
C176 C 0.89564 0.38512 0.69046 0.0
O177 O 0.8733 0.37498 0.70177 0.0
O178 O 0.89447 0.40311 0.66861 0.0
C179 C 0.8146 0.33295 0.72054 0.0
O180 O 0.83929 0.32355 0.7129 0.0
C181 C 0.82795 0.37996 0.61564 0.0
Zn182 Zn 0.59787 0.88092 0.63784 0.0
Zn183 Zn 0.62901 0.85368 0.67814 0.0
O184 O 0.58922 0.8457 0.69476 0.0
O185 O 0.56385 0.87031 0.66178 0.0
O186 O 0.65408 0.83121 0.70633 0.0
O187 O 0.6102 0.85751 0.60168 0.0
O188 O 0.63966 0.83765 0.63435 0.0
C189 C 0.56555 0.85456 0.68567 0.0
C190 C 0.63497 0.91678 0.67151 0.0
O191 O 0.64112 0.89424 0.68571 0.0
O192 O 0.61767 0.91648 0.64891 0.0
C193 C 0.67999 0.83273 0.70099 0.0
O194 O 0.68885 0.84987 0.67902 0.0
C195 C 0.62971 0.84051 0.60661 0.0
Zn196 Zn 0.08752 0.65442 0.6092 0.0
Zn197 Zn 0.12379 0.68393 0.64184 0.0
O198 O 0.13452 0.64439 0.65561 0.0
O199 O 0.10458 0.61971 0.62805 0.0
O200 O 0.15013 0.70886 0.66534 0.0
O201 O 0.10183 0.66984 0.56841 0.0
O202 O 0.13394 0.69208 0.59529 0.0
C203 C 0.12454 0.62092 0.64757 0.0
C204 C 0.06028 0.68983 0.65249 0.0
O205 O 0.08532 0.69639 0.6589 0.0
O206 O 0.05533 0.6722 0.63103 0.0
C207 C 0.17604 0.70803 0.6599 0.0
O208 O 0.18564 0.68985 0.63947 0.0
C209 C 0.12304 0.68529 0.56893 0.0
Zn210 Zn 0.37855 0.13042 0.63288 0.0
Zn211 Zn 0.34414 0.16305 0.66192 0.0
O212 O 0.38245 0.17415 0.68184 0.0
O213 O 0.41024 0.14452 0.65815 0.0
O214 O 0.31553 0.1887 0.68121 0.0
O215 O 0.37087 0.14707 0.59085 0.0
O216 O 0.3385 0.17189 0.61414 0.0
C217 C 0.40667 0.16391 0.67788 0.0
C218 C 0.33873 0.09954 0.66768 0.0
O219 O 0.33104 0.12384 0.67591 0.0
O220 O 0.35827 0.09665 0.64795 0.0
C221 C 0.31996 0.20774 0.70142 0.0
O222 O 0.34516 0.21136 0.71256 0.0
C223 C 0.3514 0.16456 0.58918 0.0
C224 C 0.30714 0.22485 0.26762 0.0
C225 C 0.30758 0.19603 0.26308 0.0
C226 C 0.28579 0.24124 0.25488 0.0
C227 C 0.26426 0.22849 0.23732 0.0
C228 C 0.2649 0.1995 0.23203 0.0
C229 C 0.2866 0.18362 0.24488 0.0
C230 C 0.28598 0.27214 0.26079 0.0
C231 C 0.24227 0.18515 0.21348 0.0
C232 C 0.19508 0.26623 0.23334 0.0
C233 C 0.19613 0.27832 0.20316 0.0
C234 C 0.217 0.24976 0.24461 0.0
C235 C 0.24063 0.24541 0.22532 0.0
C236 C 0.2418 0.25748 0.19481 0.0
C237 C 0.21951 0.27371 0.18406 0.0
C238 C 0.21493 0.23709 0.27722 0.0
C239 C 0.26671 0.25345 0.17364 0.0
H240 H 0.32331 0.23464 0.28155 0.0
H241 H 0.28673 0.16136 0.24128 0.0
H242 H 0.28476 0.28352 0.238 0.0
H243 H 0.26749 0.27807 0.27489 0.0
H244 H 0.30487 0.27901 0.27368 0.0
H245 H 0.24632 0.16261 0.21051 0.0
H246 H 0.2221 0.1878 0.22577 0.0
H247 H 0.24016 0.1947 0.1897 0.0
H248 H 0.17709 0.2696 0.24822 0.0
H249 H 0.22055 0.28302 0.16072 0.0
H250 H 0.23212 0.24477 0.29235 0.0
H251 H 0.21706 0.21422 0.27566 0.0
H252 H 0.19493 0.24203 0.28901 0.0
H253 H 0.28558 0.26162 0.18547 0.0
H254 H 0.26428 0.26405 0.15044 0.0
H255 H 0.27019 0.23102 0.16933 0.0
C256 C 0.81445 0.27574 0.24418 0.0
C257 C 0.81722 0.27966 0.27693 0.0
C258 C 0.79218 0.26047 0.23164 0.0
C259 C 0.77212 0.24902 0.25235 0.0
C260 C 0.77471 0.25306 0.2854 0.0
C261 C 0.79726 0.26823 0.2973 0.0
C262 C 0.79019 0.25645 0.19625 0.0
C263 C 0.75365 0.24133 0.30823 0.0
C264 C 0.70171 0.22977 0.21814 0.0
C265 C 0.70435 0.20098 0.21435 0.0
C266 C 0.72352 0.24565 0.23073 0.0
C267 C 0.74863 0.23246 0.23947 0.0
C268 C 0.75136 0.20339 0.23591 0.0
C269 C 0.72915 0.18799 0.22353 0.0
C270 C 0.71974 0.27657 0.2345 0.0
C271 C 0.77786 0.18859 0.24482 0.0
H272 H 0.82977 0.28447 0.22828 0.0
H273 H 0.79915 0.27125 0.32264 0.0
H274 H 0.79051 0.23398 0.19053 0.0
H275 H 0.77023 0.26489 0.18737 0.0
H276 H 0.80744 0.26675 0.18338 0.0
H277 H 0.75839 0.24676 0.33322 0.0
H278 H 0.73265 0.24923 0.30231 0.0
H279 H 0.75297 0.21841 0.30607 0.0
H280 H 0.6826 0.23995 0.21118 0.0
H281 H 0.73143 0.16578 0.22059 0.0
H282 H 0.7354 0.28775 0.22011 0.0
H283 H 0.72312 0.2826 0.25957 0.0
H284 H 0.69874 0.28358 0.22715 0.0
H285 H 0.79543 0.19706 0.23089 0.0
H286 H 0.77663 0.16588 0.24062 0.0
H287 H 0.78266 0.19219 0.27019 0.0
C288 C 0.81085 0.69111 0.24065 0.0
C289 C 0.79715 0.66897 0.22577 0.0
C290 C 0.79642 0.71524 0.24941 0.0
C291 C 0.76759 0.71719 0.24332 0.0
C292 C 0.75355 0.69469 0.22894 0.0
C293 C 0.7685 0.67089 0.22029 0.0
C294 C 0.81211 0.73882 0.2647 0.0
C295 C 0.72276 0.69589 0.22235 0.0
C296 C 0.72453 0.76887 0.29001 0.0
C297 C 0.72117 0.79056 0.26813 0.0
C298 C 0.73976 0.74501 0.28233 0.0
C299 C 0.75204 0.74275 0.25204 0.0
C300 C 0.749 0.76464 0.22992 0.0
C301 C 0.73357 0.78828 0.23821 0.0
C302 C 0.74246 0.7221 0.30654 0.0
C303 C 0.76188 0.76296 0.1974 0.0
H304 H 0.833 0.68986 0.24488 0.0
H305 H 0.75773 0.65388 0.20886 0.0
H306 H 0.81045 0.75769 0.24977 0.0
H307 H 0.80283 0.74387 0.28803 0.0
H308 H 0.83442 0.73389 0.26819 0.0
H309 H 0.71485 0.67641 0.21156 0.0
H310 H 0.71124 0.69979 0.24464 0.0
H311 H 0.71814 0.71335 0.20607 0.0
H312 H 0.71506 0.77039 0.31321 0.0
H313 H 0.73113 0.80493 0.22119 0.0
H314 H 0.76468 0.71786 0.31141 0.0
H315 H 0.73327 0.70269 0.2971 0.0
H316 H 0.73203 0.72729 0.32923 0.0
H317 H 0.7846 0.75969 0.19949 0.0
H318 H 0.75813 0.782 0.18321 0.0
H319 H 0.75328 0.74493 0.18436 0.0
C320 C 0.31752 0.76702 0.21984 0.0
C321 C 0.31155 0.77973 0.19076 0.0
C322 C 0.30102 0.74524 0.23134 0.0
C323 C 0.27829 0.73568 0.21306 0.0
C324 C 0.27203 0.74859 0.18382 0.0
C325 C 0.2886 0.7706 0.17315 0.0
C326 C 0.30804 0.7323 0.2629 0.0
C327 C 0.24819 0.73876 0.16347 0.0
C328 C 0.25357 0.66206 0.22842 0.0
C329 C 0.22989 0.66663 0.24695 0.0
C330 C 0.26925 0.68438 0.21678 0.0
C331 C 0.26131 0.71188 0.22431 0.0
C332 C 0.23731 0.71663 0.24281 0.0
C333 C 0.22175 0.69395 0.25368 0.0
C334 C 0.29445 0.67851 0.19664 0.0
C335 C 0.22838 0.74564 0.25166 0.0
H336 H 0.33516 0.77405 0.23362 0.0
H337 H 0.28395 0.78019 0.15054 0.0
H338 H 0.28973 0.73308 0.27879 0.0
H339 H 0.31348 0.71013 0.25958 0.0
H340 H 0.32569 0.74287 0.27479 0.0
H341 H 0.24593 0.75118 0.14146 0.0
H342 H 0.25138 0.71671 0.15686 0.0
H343 H 0.22848 0.73992 0.17695 0.0
H344 H 0.2599 0.64101 0.22303 0.0
H345 H 0.20359 0.69766 0.26819 0.0
H346 H 0.31335 0.68644 0.20861 0.0
H347 H 0.29267 0.68951 0.17365 0.0
H348 H 0.29723 0.65601 0.19196 0.0
H349 H 0.24509 0.75599 0.26535 0.0
H350 H 0.2091 0.7458 0.26606 0.0
H351 H 0.22482 0.75817 0.23 0.0
C352 C 0.69008 0.7929 0.7374 0.0
C353 C 0.69971 0.81386 0.71716 0.0
C354 C 0.7085 0.77371 0.75101 0.0
C355 C 0.73721 0.77561 0.74429 0.0
C356 C 0.74712 0.79711 0.7245 0.0
C357 C 0.72826 0.81594 0.71114 0.0
C358 C 0.69718 0.75104 0.77201 0.0
C359 C 0.77761 0.79991 0.71693 0.0
C360 C 0.7892 0.73993 0.79832 0.0
C361 C 0.79573 0.71601 0.78089 0.0
C362 C 0.76997 0.75937 0.78686 0.0
C363 C 0.75689 0.75474 0.75732 0.0
C364 C 0.76312 0.73049 0.73979 0.0
C365 C 0.78251 0.71144 0.75176 0.0
C366 C 0.76393 0.78503 0.80617 0.0
C367 C 0.74949 0.72479 0.70823 0.0
H368 H 0.66806 0.79112 0.74216 0.0
H369 H 0.7359 0.8321 0.6956 0.0
H370 H 0.70153 0.73049 0.76127 0.0
H371 H 0.70765 0.75151 0.7954 0.0
H372 H 0.67444 0.75297 0.77572 0.0
H373 H 0.78206 0.81835 0.70201 0.0
H374 H 0.78983 0.80155 0.73913 0.0
H375 H 0.78493 0.78112 0.70427 0.0
H376 H 0.7993 0.74364 0.82087 0.0
H377 H 0.78735 0.69299 0.73818 0.0
H378 H 0.74138 0.78646 0.81118 0.0
H379 H 0.76973 0.80381 0.79252 0.0
H380 H 0.77538 0.78523 0.82902 0.0
H381 H 0.72659 0.72474 0.7109 0.0
H382 H 0.75602 0.7046 0.69797 0.0
H383 H 0.75478 0.74151 0.69123 0.0
C384 C 0.18426 0.74928 0.69465 0.0
C385 C 0.19495 0.72819 0.67528 0.0
C386 C 0.20178 0.76905 0.70859 0.0
C387 C 0.23072 0.76764 0.70317 0.0
C388 C 0.2417 0.74629 0.68387 0.0
C389 C 0.22367 0.72685 0.67009 0.0
C390 C 0.1893 0.79155 0.729 0.0
C391 C 0.27247 0.74402 0.67774 0.0
C392 C 0.27296 0.83319 0.71649 0.0
C393 C 0.28364 0.8287 0.74697 0.0
C394 C 0.25589 0.81338 0.70181 0.0
C395 C 0.24949 0.78844 0.71794 0.0
C396 C 0.26052 0.78362 0.74851 0.0
C397 C 0.27739 0.80382 0.76268 0.0
C398 C 0.2444 0.81928 0.66922 0.0
C399 C 0.2543 0.75721 0.76638 0.0
H400 H 0.1621 0.75053 0.69875 0.0
H401 H 0.23211 0.71062 0.65518 0.0
H402 H 0.19818 0.79055 0.75322 0.0
H403 H 0.19455 0.81223 0.71916 0.0
H404 H 0.16637 0.78983 0.73073 0.0
H405 H 0.27771 0.7261 0.66231 0.0
H406 H 0.28011 0.76327 0.66629 0.0
H407 H 0.2838 0.74177 0.70048 0.0
H408 H 0.27767 0.85235 0.70419 0.0
H409 H 0.28564 0.8001 0.78618 0.0
H410 H 0.22139 0.8196 0.67007 0.0
H411 H 0.25052 0.80256 0.65259 0.0
H412 H 0.25175 0.83944 0.65964 0.0
H413 H 0.23165 0.75547 0.77056 0.0
H414 H 0.26514 0.7563 0.78959 0.0
H415 H 0.2606 0.73895 0.7521 0.0
C416 C 0.19112 0.29121 0.7732 0.0
C417 C 0.18824 0.31764 0.75962 0.0
C418 C 0.21204 0.27295 0.76322 0.0
C419 C 0.23045 0.28118 0.73889 0.0
C420 C 0.22722 0.30752 0.72448 0.0
C421 C 0.2062 0.32547 0.73508 0.0
C422 C 0.21483 0.24507 0.77924 0.0
C423 C 0.2463 0.31693 0.69827 0.0
C424 C 0.30109 0.24613 0.7352 0.0
C425 C 0.29701 0.22635 0.71128 0.0
C426 C 0.27962 0.26413 0.74436 0.0
C427 C 0.25348 0.26245 0.72911 0.0
C428 C 0.24925 0.2426 0.70489 0.0
C429 C 0.27101 0.22474 0.69635 0.0
C430 C 0.28487 0.28489 0.77047 0.0
C431 C 0.22173 0.24024 0.68798 0.0
H432 H 0.1774 0.28495 0.79221 0.0
H433 H 0.2041 0.34582 0.72442 0.0
H434 H 0.21383 0.22821 0.7614 0.0
H435 H 0.23534 0.24358 0.79107 0.0
H436 H 0.19839 0.24151 0.7972 0.0
H437 H 0.24031 0.33751 0.68861 0.0
H438 H 0.2679 0.3182 0.70726 0.0
H439 H 0.24617 0.30159 0.67868 0.0
H440 H 0.32107 0.24752 0.74688 0.0
H441 H 0.26766 0.20961 0.67775 0.0
H442 H 0.27012 0.28137 0.79021 0.0
H443 H 0.28127 0.30624 0.76156 0.0
H444 H 0.30635 0.28359 0.77991 0.0
H445 H 0.2051 0.23527 0.70521 0.0
H446 H 0.22192 0.22399 0.66933 0.0
H447 H 0.21628 0.26038 0.67687 0.0
C448 C 0.69904 0.21903 0.75955 0.0
C449 C 0.68912 0.22147 0.79063 0.0
C450 C 0.71967 0.23699 0.74807 0.0
C451 C 0.73094 0.25755 0.76833 0.0
C452 C 0.72121 0.25988 0.79981 0.0
C453 C 0.70028 0.24197 0.81049 0.0
C454 C 0.72925 0.23415 0.71419 0.0
C455 C 0.73296 0.28125 0.82228 0.0
C456 C 0.80112 0.28845 0.74705 0.0
C457 C 0.79341 0.31405 0.73393 0.0
C458 C 0.78102 0.26994 0.75862 0.0
C459 C 0.75255 0.27699 0.75647 0.0
C460 C 0.74467 0.30279 0.74322 0.0
C461 C 0.76519 0.3211 0.73239 0.0
C462 C 0.79025 0.24284 0.77314 0.0
C463 C 0.71452 0.31092 0.74013 0.0
H464 H 0.69047 0.20327 0.74407 0.0
H465 H 0.69291 0.24384 0.83464 0.0
H466 H 0.72565 0.25389 0.70131 0.0
H467 H 0.75187 0.22996 0.71352 0.0
H468 H 0.71832 0.2172 0.70146 0.0
H469 H 0.72372 0.27981 0.84631 0.0
H470 H 0.75576 0.2786 0.82433 0.0
H471 H 0.72916 0.3024 0.81289 0.0
H472 H 0.82288 0.28292 0.74838 0.0
H473 H 0.75905 0.34074 0.72203 0.0
H474 H 0.78148 0.22521 0.75955 0.0
H475 H 0.78229 0.24118 0.79771 0.0
H476 H 0.8132 0.24073 0.77366 0.0
H477 H 0.70327 0.29522 0.72581 0.0
H478 H 0.71184 0.33154 0.7288 0.0
H479 H 0.70463 0.31144 0.76382 0.0
C480 C 0.16752 0.39019 0.91842 0.0
C481 C 0.16505 0.37521 0.89018 0.0
C482 C 0.16989 0.37655 0.9475 0.0
C483 C 0.16968 0.34716 0.94825 0.0
C484 C 0.17106 0.33206 0.91954 0.0
C485 C 0.16864 0.34633 0.89062 0.0
C486 C 0.16914 0.39363 0.97749 0.0
C487 C 0.17217 0.30081 0.91926 0.0
C488 C 0.17173 0.32489 0.03378 0.0
C489 C 0.14343 0.32697 0.04107 0.0
C490 C 0.18091 0.32798 0.00236 0.0
C491 C 0.16126 0.33338 0.97819 0.0
C492 C 0.13254 0.33169 0.98507 0.0
C493 C 0.12401 0.32854 0.01648 0.0
C494 C 0.21165 0.32831 -0.00422 0.0
C495 C 0.11073 0.3366 0.95995 0.0
H496 H 0.16547 0.41259 0.91802 0.0
H497 H 0.16716 0.33466 0.86873 0.0
H498 H 0.14857 0.39129 0.98899 0.0
H499 H 0.1851 0.38634 -0.00554 0.0
H500 H 0.17265 0.41603 0.9728 0.0
H501 H 0.18214 0.29303 0.89727 0.0
H502 H 0.18365 0.29266 0.94007 0.0
H503 H 0.15075 0.29245 0.92008 0.0
H504 H 0.18683 0.3233 0.05274 0.0
H505 H 0.10207 0.32947 0.02207 0.0
H506 H 0.21951 0.34985 -0.00198 0.0
H507 H 0.21628 0.32093 0.97146 0.0
H508 H 0.22307 0.31522 0.01308 0.0
H509 H 0.11095 0.35878 0.95287 0.0
H510 H 0.08955 0.3314 0.96845 0.0
H511 H 0.11516 0.32405 0.93857 0.0
C512 C 0.65757 0.12828 0.93498 0.0
C513 C 0.65582 0.14921 0.91217 0.0
C514 C 0.66416 0.13448 0.96639 0.0
C515 C 0.66885 0.16246 0.97522 0.0
C516 C 0.67034 0.18322 0.95155 0.0
C517 C 0.66376 0.17632 0.92005 0.0
C518 C 0.66303 0.11141 0.99061 0.0
C519 C 0.67632 0.21307 0.95969 0.0
C520 C 0.63333 0.16801 0.05307 0.0
C521 C 0.6549 0.1604 0.07345 0.0
C522 C 0.63841 0.17305 0.02102 0.0
C523 C 0.6657 0.16983 0.00916 0.0
C524 C 0.68806 0.16615 0.03054 0.0
C525 C 0.68237 0.16139 0.06275 0.0
C526 C 0.61396 0.17791 -0.0007 0.0
C527 C 0.71756 0.16394 0.019 0.0
H528 H 0.6521 0.10717 0.92864 0.0
H529 H 0.66277 0.19251 0.90226 0.0
H530 H 0.68146 0.11215 0.00631 0.0
H531 H 0.64433 0.114 0.00565 0.0
H532 H 0.66211 0.09059 0.97939 0.0
H533 H 0.6866 0.2238 0.9396 0.0
H534 H 0.65649 0.22397 0.96451 0.0
H535 H 0.68964 0.21486 0.98104 0.0
H536 H 0.61213 0.16777 0.06167 0.0
H537 H 0.6991 0.15579 0.0787 0.0
H538 H 0.60943 0.15861 0.98592 0.0
H539 H 0.6187 0.19444 0.98189 0.0
H540 H 0.59501 0.1839 0.01261 0.0
H541 H 0.72189 0.14218 0.01199 0.0
H542 H 0.73249 0.16974 0.03793 0.0
H543 H 0.72109 0.17734 -0.00197 0.0
C544 C 0.83028 0.67989 0.95067 0.0
C545 C 0.85844 0.67934 0.94238 0.0
C546 C 0.82219 0.67661 0.98243 0.0
C547 C 0.84281 0.67261 0.0059 0.0
C548 C 0.87113 0.67622 -0.00199 0.0
C549 C 0.87859 0.67945 0.96626 0.0
C550 C 0.79175 0.67428 0.99017 0.0
C551 C 0.89386 0.67297 0.0224 0.0
C552 C 0.83692 0.6576 0.09342 0.0
C553 C 0.84185 0.62891 0.09323 0.0
C554 C 0.83396 0.67228 0.06483 0.0
C555 C 0.83615 0.6578 0.03577 0.0
C556 C 0.83778 0.62845 0.03581 0.0
C557 C 0.84061 0.61441 0.06456 0.0
C558 C 0.83105 0.7034 0.0659 0.0
C559 C 0.83957 0.61198 0.00541 0.0
H560 H 0.8146 0.6802 0.93224 0.0
H561 H 0.90038 0.67973 0.95986 0.0
H562 H 0.78547 0.65216 0.98931 0.0
H563 H 0.7873 0.68221 0.01431 0.0
H564 H 0.7789 0.68584 0.97276 0.0
H565 H 0.9143 0.68002 0.0133 0.0
H566 H 0.88889 0.68492 0.04409 0.0
H567 H 0.89568 0.65079 0.02916 0.0
H568 H 0.83743 0.66889 0.11562 0.0
H569 H 0.84369 0.59212 0.06442 0.0
H570 H 0.81967 0.71143 0.04496 0.0
H571 H 0.85197 0.71297 0.06615 0.0
H572 H 0.82008 0.71008 0.08775 0.0
H573 H 0.82284 0.61822 0.98885 0.0
H574 H 0.83796 0.58929 0.00959 0.0
H575 H 0.85972 0.61621 -0.00636 0.0
C576 C 0.33969 0.81211 0.06163 0.0
C577 C 0.3683 0.81747 0.06247 0.0
C578 C 0.32515 0.81272 0.03276 0.0
C579 C 0.33966 0.81909 0.00457 0.0
C580 C 0.36904 0.8204 0.005 0.0
C581 C 0.38299 0.81953 0.03401 0.0
C582 C 0.29404 0.80945 0.0331 0.0
C583 C 0.3856 0.82634 0.9754 0.0
C584 C 0.31836 0.82966 0.91986 0.0
C585 C 0.31942 0.85872 0.91868 0.0
C586 C 0.32098 0.81569 0.94894 0.0
C587 C 0.325 0.83132 0.97695 0.0
C588 C 0.32173 0.86053 0.97615 0.0
C589 C 0.31896 0.87386 0.94694 0.0
C590 C 0.32255 0.78447 0.94906 0.0
C591 C 0.32494 0.8781 0.00556 0.0
H592 H 0.32825 0.80992 0.08358 0.0
H593 H 0.40524 0.82283 0.03457 0.0
H594 H 0.28427 0.82985 0.03794 0.0
H595 H 0.2861 0.80172 0.01006 0.0
H596 H 0.28753 0.79497 0.05216 0.0
H597 H 0.40827 0.82389 0.9793 0.0
H598 H 0.37924 0.81229 0.95594 0.0
H599 H 0.38162 0.84796 0.96753 0.0
H600 H 0.3182 0.81781 0.89803 0.0
H601 H 0.319 0.89634 0.94605 0.0
H602 H 0.31568 0.77573 0.97205 0.0
H603 H 0.34431 0.77791 0.94493 0.0
H604 H 0.30962 0.77556 0.92978 0.0
H605 H 0.31219 0.86969 0.02514 0.0
H606 H 0.31878 0.90002 0.00142 0.0
H607 H 0.34695 0.87781 0.01336 0.0
C608 C 0.12257 0.68773 0.51035 0.0
C609 C 0.1372 0.69131 0.53871 0.0
C610 C 0.13659 0.68405 0.48171 0.0
C611 C 0.166 0.68422 0.48148 0.0
C612 C 0.18063 0.69213 0.50913 0.0
C613 C 0.16601 0.69542 0.53768 0.0
C614 C 0.11993 0.67646 0.45263 0.0
C615 C 0.21183 0.69435 0.50947 0.0
C616 C 0.1855 0.62472 0.4296 0.0
C617 C 0.1855 0.63764 0.39992 0.0
C618 C 0.18282 0.64028 0.45736 0.0
C619 C 0.18032 0.66951 0.45526 0.0
C620 C 0.18487 0.68284 0.42586 0.0
C621 C 0.18722 0.66667 0.39828 0.0
C622 C 0.17894 0.62508 0.48833 0.0
C623 C 0.18428 0.714 0.42292 0.0
H624 H 0.1002 0.68539 0.51094 0.0
H625 H 0.17744 0.69879 0.55947 0.0
H626 H 0.12672 0.68892 0.432 0.0
H627 H 0.12336 0.65426 0.4468 0.0
H628 H 0.09733 0.67978 0.4561 0.0
H629 H 0.21875 0.71009 0.527 0.0
H630 H 0.22087 0.67412 0.51656 0.0
H631 H 0.22013 0.69992 0.48581 0.0
H632 H 0.18506 0.60226 0.43099 0.0
H633 H 0.18786 0.67684 0.3754 0.0
H634 H 0.15697 0.62682 0.49598 0.0
H635 H 0.19204 0.63441 0.50709 0.0
H636 H 0.18424 0.60271 0.48637 0.0
H637 H 0.16277 0.72089 0.41782 0.0
H638 H 0.19763 0.72101 0.40304 0.0
H639 H 0.19126 0.72422 0.44509 0.0
C640 C 0.36283 0.17568 0.53372 0.0
C641 C 0.34276 0.1741 0.55755 0.0
C642 C 0.35518 0.17602 0.50182 0.0
C643 C 0.32669 0.17464 0.49365 0.0
C644 C 0.30633 0.17714 0.51765 0.0
C645 C 0.31464 0.17673 0.54961 0.0
C646 C 0.37777 0.17418 0.4771 0.0
C647 C 0.2758 0.17736 0.50992 0.0
C648 C 0.32428 0.16904 0.40493 0.0
C649 C 0.32891 0.14046 0.40185 0.0
C650 C 0.31938 0.18076 0.43492 0.0
C651 C 0.31945 0.16338 0.46196 0.0
C652 C 0.31998 0.13419 0.45804 0.0
C653 C 0.32479 0.12312 0.42798 0.0
C654 C 0.31719 0.21184 0.43789 0.0
C655 C 0.31924 0.11467 0.48602 0.0
H656 H 0.38462 0.17438 0.53999 0.0
H657 H 0.29907 0.17595 0.56809 0.0
H658 H 0.37801 0.15303 0.46671 0.0
H659 H 0.37384 0.1891 0.45765 0.0
H660 H 0.39864 0.17848 0.48717 0.0
H661 H 0.26406 0.18953 0.52778 0.0
H662 H 0.27177 0.18614 0.48606 0.0
H663 H 0.26775 0.15581 0.51041 0.0
H664 H 0.32698 0.18249 0.38458 0.0
H665 H 0.3276 0.10091 0.42536 0.0
H666 H 0.33827 0.2208 0.44049 0.0
H667 H 0.30478 0.21792 0.45889 0.0
H668 H 0.30765 0.221 0.41633 0.0
H669 H 0.3389 0.11646 0.49958 0.0
H670 H 0.31668 0.0927 0.47862 0.0
H671 H 0.30198 0.12014 0.50217 0.0
C672 C 0.8368 0.30841 0.44722 0.0
C673 C 0.86548 0.31286 0.44459 0.0
C674 C 0.82342 0.31128 0.47661 0.0
C675 C 0.83915 0.31906 0.5035 0.0
C676 C 0.86849 0.31968 0.50158 0.0
C677 C 0.88129 0.31647 0.47212 0.0
C678 C 0.79226 0.30878 0.47804 0.0
C679 C 0.88629 0.32719 0.5298 0.0
C680 C 0.82026 0.37727 0.55777 0.0
C681 C 0.82088 0.36376 0.5871 0.0
C682 C 0.82274 0.36232 0.52956 0.0
C683 C 0.82576 0.3331 0.53082 0.0
C684 C 0.82222 0.31911 0.56001 0.0
C685 C 0.81995 0.33469 0.58805 0.0
C686 C 0.82567 0.3782 0.49889 0.0
C687 C 0.82369 0.28793 0.56217 0.0
H688 H 0.82448 0.30505 0.42608 0.0
H689 H 0.90357 0.31911 0.47029 0.0
H690 H 0.7852 0.30198 0.5018 0.0
H691 H 0.78277 0.32927 0.47295 0.0
H692 H 0.78455 0.29389 0.45999 0.0
H693 H 0.90873 0.32395 0.5251 0.0
H694 H 0.88304 0.34935 0.53591 0.0
H695 H 0.88038 0.31464 0.55071 0.0
H696 H 0.8202 0.39975 0.55697 0.0
H697 H 0.81993 0.32409 0.61069 0.0
H698 H 0.81239 0.36896 0.48024 0.0
H699 H 0.8475 0.37707 0.49064 0.0
H700 H 0.81996 0.4004 0.50158 0.0
H701 H 0.8162 0.27792 0.54009 0.0
H702 H 0.81124 0.28019 0.58245 0.0
H703 H 0.84553 0.28151 0.56609 0.0
C704 C 0.67135 0.82288 0.57759 0.0
C705 C 0.64256 0.82689 0.57908 0.0
C706 C 0.68446 0.81872 0.54824 0.0
C707 C 0.66828 0.81896 0.52024 0.0
C708 C 0.63894 0.81864 0.52246 0.0
C709 C 0.62646 0.82267 0.55194 0.0
C710 C 0.71568 0.8172 0.54708 0.0
C711 C 0.62066 0.81794 0.49337 0.0
C712 C 0.68171 0.86485 0.45111 0.0
C713 C 0.68109 0.8455 0.42644 0.0
C714 C 0.68154 0.85622 0.48266 0.0
C715 C 0.68065 0.82746 0.48957 0.0
C716 C 0.68441 0.80796 0.46487 0.0
C717 C 0.68444 0.81724 0.43329 0.0
C718 C 0.6785 0.87794 0.50824 0.0
C719 C 0.68541 0.77723 0.47134 0.0
H720 H 0.68386 0.82556 0.59874 0.0
H721 H 0.6041 0.82493 0.55331 0.0
H722 H 0.723 0.80594 0.52574 0.0
H723 H 0.72434 0.83851 0.54647 0.0
H724 H 0.72397 0.80678 0.56856 0.0
H725 H 0.59845 0.81483 0.49942 0.0
H726 H 0.62262 0.83783 0.48032 0.0
H727 H 0.62719 0.80104 0.47723 0.0
H728 H 0.67997 0.88678 0.44571 0.0
H729 H 0.68453 0.80222 0.41418 0.0
H730 H 0.69308 0.87381 0.52798 0.0
H731 H 0.65711 0.87729 0.51795 0.0
H732 H 0.68245 0.89922 0.49919 0.0
H733 H 0.69328 0.77273 0.49551 0.0
H734 H 0.69879 0.76655 0.45374 0.0
H735 H 0.66423 0.76844 0.46916 0.0
C736 C 0.19647 0.53377 0.24026 0.0
C737 C 0.18719 0.53053 0.27153 0.0
C738 C 0.19691 0.51106 0.21931 0.0
C739 C 0.1873 0.48485 0.22981 0.0
C740 C 0.1807 0.48098 0.26214 0.0
C741 C 0.1811 0.50378 0.28264 0.0
C742 C 0.20543 0.51566 0.18537 0.0
C743 C 0.17027 0.45347 0.27445 0.0
C744 C 0.14197 0.44139 0.17624 0.0
C745 C 0.15835 0.41771 0.17159 0.0
C746 C 0.15175 0.46391 0.19392 0.0
C747 C 0.17895 0.46314 0.20663 0.0
C748 C 0.19632 0.44011 0.20022 0.0
C749 C 0.18562 0.41737 0.18323 0.0
C750 C 0.13227 0.48779 0.2006 0.0
C751 C 0.22577 0.43892 0.21228 0.0
H752 H 0.20168 0.55427 0.23156 0.0
H753 H 0.17449 0.50089 0.30695 0.0
H754 H 0.21724 0.49759 0.17622 0.0
H755 H 0.18664 0.51811 0.17044 0.0
H756 H 0.2183 0.53464 0.18278 0.0
H757 H 0.16859 0.45319 0.30069 0.0
H758 H 0.14944 0.44919 0.26432 0.0
H759 H 0.18421 0.43639 0.26703 0.0
H760 H 0.12087 0.44182 0.16732 0.0
H761 H 0.19851 0.39926 0.17934 0.0
H762 H 0.14186 0.50767 0.19327 0.0
H763 H 0.12819 0.48909 0.22642 0.0
H764 H 0.11209 0.48557 0.18811 0.0
H765 H 0.23579 0.45961 0.21105 0.0
H766 H 0.23844 0.42385 0.19862 0.0
H767 H 0.22576 0.43227 0.23742 0.0
C768 C 0.54721 0.12112 0.21164 0.0
C769 C 0.56922 0.14007 0.20988 0.0
C770 C 0.52338 0.12692 0.22923 0.0
C771 C 0.52113 0.15258 0.24531 0.0
C772 C 0.54315 0.17201 0.24359 0.0
C773 C 0.56716 0.16541 0.22605 0.0
C774 C 0.50068 0.1053 0.2308 0.0
C775 C 0.54121 0.19975 0.25997 0.0
C776 C 0.44556 0.16301 0.26514 0.0
C777 C 0.44428 0.15006 0.29484 0.0
C778 C 0.47118 0.16715 0.24995 0.0
C779 C 0.49591 0.15787 0.26472 0.0
C780 C 0.49491 0.1477 0.29612 0.0
C781 C 0.46913 0.14405 0.31085 0.0
C782 C 0.47142 0.17879 0.21679 0.0
C783 C 0.52069 0.13758 0.31288 0.0
H784 H 0.54871 0.10139 0.19944 0.0
H785 H 0.58403 0.18021 0.22454 0.0
H786 H 0.49693 0.09925 0.25579 0.0
H787 H 0.48102 0.11396 0.22136 0.0
H788 H 0.50584 0.08631 0.21711 0.0
H789 H 0.56033 0.21232 0.25687 0.0
H790 H 0.52332 0.21157 0.25038 0.0
H791 H 0.53744 0.19682 0.28565 0.0
H792 H 0.42652 0.16816 0.25277 0.0
H793 H 0.46844 0.13458 0.33411 0.0
H794 H 0.47308 0.1615 0.19955 0.0
H795 H 0.48955 0.1926 0.2132 0.0
H796 H 0.45214 0.19056 0.21152 0.0
H797 H 0.52668 0.11705 0.30312 0.0
H798 H 0.51732 0.13525 0.33876 0.0
H799 H 0.53833 0.15193 0.309 0.0
C800 C 0.85169 0.49959 0.21179 0.0
C801 C 0.84496 0.5262 0.22293 0.0
C802 C 0.85082 0.47648 0.23177 0.0
C803 C 0.84233 0.47983 0.26358 0.0
C804 C 0.83257 0.50601 0.27405 0.0
C805 C 0.83425 0.52905 0.25364 0.0
C806 C 0.86157 0.44903 0.21954 0.0
C807 C 0.82225 0.51013 0.30742 0.0
C808 C 0.83815 0.41075 0.30646 0.0
C809 C 0.86465 0.40929 0.32016 0.0
C810 C 0.8295 0.43466 0.2901 0.0
C811 C 0.84814 0.45714 0.28653 0.0
C812 C 0.87443 0.45617 0.30152 0.0
C813 C 0.88219 0.43243 0.31845 0.0
C814 C 0.80092 0.43532 0.2755 0.0
C815 C 0.8952 0.47944 0.29792 0.0
H816 H 0.85946 0.49701 0.18789 0.0
H817 H 0.82865 0.54945 0.26235 0.0
H818 H 0.88141 0.44393 0.23156 0.0
H819 H 0.84671 0.43214 0.2249 0.0
H820 H 0.86528 0.44937 0.19358 0.0
H821 H 0.80965 0.52934 0.30961 0.0
H822 H 0.80958 0.49217 0.3152 0.0
H823 H 0.84021 0.51185 0.32374 0.0
H824 H 0.82434 0.39307 0.3081 0.0
H825 H 0.90268 0.43149 0.32902 0.0
H826 H 0.80247 0.43096 0.24978 0.0
H827 H 0.79133 0.45611 0.27826 0.0
H828 H 0.78702 0.41954 0.28624 0.0
H829 H 0.90147 0.48122 0.27271 0.0
H830 H 0.91414 0.47609 0.31243 0.0
H831 H 0.88575 0.49949 0.3049 0.0
C832 C 0.55542 0.84601 0.30496 0.0
C833 C 0.58073 0.83196 0.30139 0.0
C834 C 0.53243 0.83941 0.28613 0.0
C835 C 0.53453 0.81778 0.2636 0.0
C836 C 0.55911 0.80173 0.26202 0.0
C837 C 0.58212 0.80925 0.28067 0.0
C838 C 0.50674 0.85729 0.28846 0.0
C839 C 0.56176 0.77781 0.23919 0.0
C840 C 0.46574 0.80414 0.2224 0.0
C841 C 0.46812 0.82165 0.196 0.0
C842 C 0.4881 0.80068 0.24353 0.0
C843 C 0.51302 0.8156 0.23844 0.0
C844 C 0.51604 0.83186 0.21076 0.0
C845 C 0.49373 0.83438 0.18978 0.0
C846 C 0.48447 0.78233 0.27215 0.0
C847 C 0.54211 0.84839 0.20444 0.0
H848 H 0.55398 0.86343 0.32111 0.0
H849 H 0.60145 0.79797 0.27813 0.0
H850 H 0.50454 0.86979 0.26652 0.0
H851 H 0.48793 0.84422 0.29063 0.0
H852 H 0.50753 0.87168 0.30899 0.0
H853 H 0.57916 0.76381 0.24576 0.0
H854 H 0.54227 0.76559 0.2383 0.0
H855 H 0.56575 0.78591 0.21504 0.0
H856 H 0.44616 0.79393 0.22722 0.0
H857 H 0.49599 0.84771 0.16927 0.0
H858 H 0.47975 0.79533 0.29313 0.0
H859 H 0.50378 0.77062 0.2773 0.0
H860 H 0.46715 0.7674 0.26887 0.0
H861 H 0.54462 0.86453 0.22298 0.0
H862 H 0.5417 0.85878 0.18096 0.0
H863 H 0.56062 0.83476 0.20548 0.0
C864 C 0.85702 0.56132 0.81261 0.0
C865 C 0.84111 0.58561 0.81456 0.0
C866 C 0.84804 0.53857 0.79476 0.0
C867 C 0.8221 0.53977 0.77903 0.0
C868 C 0.8049 0.56336 0.78293 0.0
C869 C 0.81482 0.58626 0.80024 0.0
C870 C 0.86731 0.51404 0.79094 0.0
C871 C 0.77666 0.56503 0.76762 0.0
C872 C 0.82564 0.49863 0.70342 0.0
C873 C 0.81768 0.47215 0.71383 0.0
C874 C 0.82496 0.52151 0.72379 0.0
C875 C 0.81539 0.51804 0.75519 0.0
C876 C 0.80417 0.49218 0.76467 0.0
C877 C 0.80573 0.46936 0.74395 0.0
C878 C 0.83723 0.54864 0.7126 0.0
C879 C 0.79253 0.48805 0.79746 0.0
H880 H 0.87731 0.56055 0.82366 0.0
H881 H 0.80223 0.60484 0.802 0.0
H882 H 0.85647 0.49454 0.79725 0.0
H883 H 0.87385 0.5123 0.76582 0.0
H884 H 0.8862 0.51584 0.80589 0.0
H885 H 0.76328 0.58063 0.77952 0.0
H886 H 0.77898 0.57125 0.74249 0.0
H887 H 0.76606 0.54461 0.76813 0.0
H888 H 0.83438 0.5012 0.67996 0.0
H889 H 0.79908 0.44909 0.75206 0.0
H890 H 0.85702 0.55255 0.72531 0.0
H891 H 0.82306 0.56611 0.718 0.0
H892 H 0.84149 0.54861 0.68676 0.0
H893 H 0.80981 0.48503 0.81449 0.0
H894 H 0.77886 0.46952 0.7986 0.0
H895 H 0.78059 0.50654 0.80516 0.0
C896 C 0.51506 0.86161 0.69503 0.0
C897 C 0.54003 0.8489 0.70416 0.0
C898 C 0.49148 0.86036 0.71423 0.0
C899 C 0.4926 0.84556 0.74312 0.0
C900 C 0.51703 0.8309 0.75142 0.0
C901 C 0.54064 0.83296 0.73196 0.0
C902 C 0.46596 0.87652 0.70452 0.0
C903 C 0.5187 0.8142 0.78157 0.0
C904 C 0.44531 0.87778 0.80405 0.0
C905 C 0.42075 0.86268 0.79952 0.0
C906 C 0.46948 0.87121 0.78729 0.0
C907 C 0.46931 0.8486 0.7659 0.0
C908 C 0.44527 0.83189 0.7631 0.0
C909 C 0.42111 0.83933 0.77968 0.0
C910 C 0.49453 0.88982 0.79071 0.0
C911 C 0.44458 0.8071 0.74129 0.0
H912 H 0.51419 0.87374 0.67346 0.0
H913 H 0.55974 0.82283 0.73904 0.0
H914 H 0.4474 0.86295 0.7048 0.0
H915 H 0.46226 0.89356 0.72169 0.0
H916 H 0.46797 0.88571 0.68051 0.0
H917 H 0.53674 0.79984 0.78152 0.0
H918 H 0.52086 0.82843 0.80206 0.0
H919 H 0.49944 0.80198 0.78512 0.0
H920 H 0.4453 0.89576 0.81946 0.0
H921 H 0.40233 0.82729 0.77643 0.0
H922 H 0.49786 0.90138 0.7683 0.0
H923 H 0.51344 0.87733 0.79522 0.0
H924 H 0.49211 0.90506 0.81024 0.0
H925 H 0.44278 0.81426 0.71641 0.0
H926 H 0.42671 0.79328 0.74648 0.0
H927 H 0.46406 0.79494 0.74328 0.0
C928 C 0.16533 0.47573 0.73099 0.0
C929 C 0.15213 0.47771 0.7605 0.0
C930 C 0.1669 0.49887 0.7107 0.0
C931 C 0.15449 0.52426 0.71998 0.0
C932 C 0.14282 0.52677 0.75056 0.0
C933 C 0.14209 0.50362 0.7705 0.0
C934 C 0.18041 0.49569 0.67871 0.0
C935 C 0.12908 0.55331 0.76142 0.0
C936 C 0.15973 0.59434 0.67948 0.0
C937 C 0.13464 0.59502 0.66259 0.0
C938 C 0.16781 0.57044 0.69624 0.0
C939 C 0.15 0.54707 0.69679 0.0
C940 C 0.12537 0.54724 0.67849 0.0
C941 C 0.11818 0.57106 0.66138 0.0
C942 C 0.1947 0.5707 0.71456 0.0
C943 C 0.10552 0.52298 0.67875 0.0
H944 H 0.17342 0.4559 0.72317 0.0
H945 H 0.13219 0.50559 0.79342 0.0
H946 H 0.16414 0.49337 0.6603 0.0
H947 H 0.19281 0.51435 0.67271 0.0
H948 H 0.19407 0.47714 0.67777 0.0
H949 H 0.12252 0.55237 0.78661 0.0
H950 H 0.14335 0.57114 0.75847 0.0
H951 H 0.11047 0.55742 0.74664 0.0
H952 H 0.17278 0.61264 0.68012 0.0
H953 H 0.09881 0.57134 0.6483 0.0
H954 H 0.20578 0.55065 0.71187 0.0
H955 H 0.19027 0.57357 0.74012 0.0
H956 H 0.20859 0.58776 0.70675 0.0
H957 H 0.11663 0.50346 0.6731 0.0
H958 H 0.08827 0.52562 0.66154 0.0
H959 H 0.0965 0.52064 0.70277 0.0
C960 C 0.4297 0.19587 0.71751 0.0
C961 C 0.43072 0.17267 0.69747 0.0
C962 C 0.45232 0.20251 0.73732 0.0
C963 C 0.47601 0.18504 0.73768 0.0
C964 C 0.47733 0.16212 0.71679 0.0
C965 C 0.45492 0.15648 0.69682 0.0
C966 C 0.45034 0.22763 0.75849 0.0
C967 C 0.50191 0.14257 0.71652 0.0
C968 C 0.54812 0.19411 0.77061 0.0
C969 C 0.54669 0.17662 0.79711 0.0
C970 C 0.52413 0.20035 0.75296 0.0
C971 C 0.49846 0.18827 0.76165 0.0
C972 C 0.49645 0.17338 0.79042 0.0
C973 C 0.52054 0.16798 0.80794 0.0
C974 C 0.52676 0.21764 0.72336 0.0
C975 C 0.46951 0.16026 0.8008 0.0
H976 H 0.41119 0.20865 0.71799 0.0
H977 H 0.45607 0.13853 0.68142 0.0
H978 H 0.44194 0.22133 0.78184 0.0
H979 H 0.47097 0.23726 0.76241 0.0
H980 H 0.4361 0.24343 0.74834 0.0
H981 H 0.49969 0.1258 0.69865 0.0
H982 H 0.52124 0.15416 0.71134 0.0
H983 H 0.50438 0.13284 0.74018 0.0
H984 H 0.56812 0.20145 0.76242 0.0
H985 H 0.51905 0.15504 0.82885 0.0
H986 H 0.50834 0.2312 0.72029 0.0
H987 H 0.52801 0.20379 0.70243 0.0
H988 H 0.54573 0.23072 0.72389 0.0
H989 H 0.45222 0.17534 0.79906 0.0
H990 H 0.47058 0.15241 0.82551 0.0
H991 H 0.46456 0.14258 0.78493 0.0
C992 C 0.61934 0.04435 0.77271 0.0
C993 C 0.63721 0.06731 0.77217 0.0
C994 C 0.62453 0.02083 0.75432 0.0
C995 C 0.64844 0.01993 0.73495 0.0
C996 C 0.66693 0.04278 0.73453 0.0
C997 C 0.66097 0.0664 0.75301 0.0
C998 C 0.60402 0.9971 0.7553 0.0
C999 C 0.6928 0.04232 0.71447 0.0
C1000 C 0.66065 0.94538 0.71167 0.0
C1001 C 0.64497 0.94386 0.68372 0.0
C1002 C 0.66481 0.97089 0.72707 0.0
C1003 C 0.65275 0.99527 0.71434 0.0
C1004 C 0.63944 0.99422 0.68448 0.0
C1005 C 0.63584 0.96855 0.66947 0.0
C1006 C 0.67975 0.97125 0.75848 0.0
C1007 C 0.62624 0.01964 0.66999 0.0
H1008 H 0.60085 0.04483 0.7873 0.0
H1009 H 0.67494 0.084 0.7526 0.0
H1010 H 0.59541 0.99339 0.7313 0.0
H1011 H 0.6146 0.97778 0.7629 0.0
H1012 H 0.5865 0.00112 0.77175 0.0
H1013 H 0.70623 0.06066 0.71883 0.0
H1014 H 0.70495 0.02322 0.71928 0.0
H1015 H 0.68704 0.04195 0.68904 0.0
H1016 H 0.66822 0.92649 0.72261 0.0
H1017 H 0.62414 0.96771 0.64755 0.0
H1018 H 0.66428 0.97179 0.77791 0.0
H1019 H 0.69294 0.99 0.76072 0.0
H1020 H 0.69291 0.95253 0.76167 0.0
H1021 H 0.60674 0.02448 0.68283 0.0
H1022 H 0.62114 0.0165 0.64458 0.0
H1023 H 0.64007 0.03791 0.67219 0.0
C1024 C 0.96442 0.67485 0.79236 0.0
C1025 C 0.93906 0.68897 0.79492 0.0
C1026 C 0.98359 0.68155 0.76876 0.0
C1027 C 0.97769 0.70346 0.7475 0.0
C1028 C 0.95311 0.71925 0.75137 0.0
C1029 C 0.93382 0.71154 0.7748 0.0
C1030 C 0.00933 0.66384 0.76535 0.0
C1031 C 0.94653 0.74341 0.72996 0.0
C1032 C 0.04175 0.71733 0.69849 0.0
C1033 C 0.03709 0.69943 0.67282 0.0
C1034 C 0.02115 0.72153 0.72157 0.0
C1035 C 0.99572 0.70696 0.71922 0.0
C1036 C 0.99002 0.69102 0.69184 0.0
C1037 C 0.01065 0.68773 0.66883 0.0
C1038 C 0.02746 0.73978 0.74968 0.0
C1039 C 0.96326 0.67499 0.68833 0.0
H1040 H 0.96882 0.65747 0.80786 0.0
H1041 H 0.91442 0.72278 0.77683 0.0
H1042 H 0.00883 0.65281 0.74228 0.0
H1043 H 0.02817 0.67702 0.76561 0.0
H1044 H 0.01126 0.64817 0.78451 0.0
H1045 H 0.93138 0.75778 0.74109 0.0
H1046 H 0.96558 0.75517 0.72383 0.0
H1047 H 0.93731 0.73561 0.7076 0.0
H1048 H 0.06193 0.72691 0.70149 0.0
H1049 H 0.00661 0.67423 0.64882 0.0
H1050 H 0.03368 0.72667 0.77008 0.0
H1051 H 0.00883 0.75179 0.75682 0.0
H1052 H 0.04467 0.75443 0.74458 0.0
H1053 H 0.96285 0.65784 0.70586 0.0
H1054 H 0.96087 0.66594 0.66428 0.0
H1055 H 0.94517 0.68854 0.69316 0.0
C1056 C 0.3045 0.07603 0.7039 0.0
C1057 C 0.32751 0.07453 0.68364 0.0
C1058 C 0.29674 0.05312 0.72256 0.0
C1059 C 0.31293 0.02859 0.72161 0.0
C1060 C 0.33498 0.02643 0.69964 0.0
C1061 C 0.34172 0.04924 0.68068 0.0
C1062 C 0.27228 0.05578 0.74461 0.0
C1063 C 0.3531 0.00086 0.69803 0.0
C1064 C 0.32926 0.98805 0.79558 0.0
C1065 C 0.31766 0.96204 0.78865 0.0
C1066 C 0.32619 0.01049 0.7749 0.0
C1067 C 0.31044 0.00719 0.74686 0.0
C1068 C 0.29632 0.98187 0.74125 0.0
C1069 C 0.3004 0.95938 0.76203 0.0
C1070 C 0.34191 0.03696 0.78179 0.0
C1071 C 0.27834 0.97794 0.71235 0.0
H1072 H 0.29311 0.09534 0.70596 0.0
H1073 H 0.35939 0.04771 0.66492 0.0
H1074 H 0.2605 0.03603 0.74587 0.0
H1075 H 0.27976 0.06069 0.76881 0.0
H1076 H 0.25803 0.07263 0.73701 0.0
H1077 H 0.36822 0.00178 0.67822 0.0
H1078 H 0.36481 0.99862 0.72054 0.0
H1079 H 0.34021 0.982 0.6951 0.0
H1080 H 0.3423 0.99054 0.81631 0.0
H1081 H 0.29101 0.9395 0.75669 0.0
H1082 H 0.32786 0.05511 0.78044 0.0
H1083 H 0.35837 0.0399 0.76373 0.0
H1084 H 0.35182 0.03674 0.80555 0.0
H1085 H 0.26661 0.99715 0.70678 0.0
H1086 H 0.26343 0.9606 0.71561 0.0
H1087 H 0.29161 0.973 0.69167 0.0
C1088 C 0.02889 0.3892 0.79403 0.0
C1089 C 0.053 0.3772 0.78137 0.0
C1090 C 0.00291 0.38493 0.78 0.0
C1091 C 0.00079 0.36781 0.7529 0.0
C1092 C 0.02458 0.35361 0.74169 0.0
C1093 C 0.05052 0.35867 0.75589 0.0
C1094 C 0.97817 0.40068 0.79266 0.0
C1095 C 0.02297 0.3345 0.71346 0.0
C1096 C 0.92621 0.35642 0.72622 0.0
C1097 C 0.92313 0.37782 0.70396 0.0
C1098 C 0.95198 0.35147 0.74092 0.0
C1099 C 0.97489 0.36876 0.73369 0.0
C1100 C 0.97212 0.38956 0.71027 0.0
C1101 C 0.94642 0.39363 0.69554 0.0
C1102 C 0.95436 0.32855 0.76509 0.0
C1103 C 0.99586 0.40874 0.70204 0.0
H1104 H 0.03043 0.40327 0.81397 0.0
H1105 H 0.06895 0.34898 0.7462 0.0
H1106 H 0.97189 0.41679 0.7753 0.0
H1107 H 0.96025 0.38658 0.79596 0.0
H1108 H 0.98271 0.41101 0.8156 0.0
H1109 H 0.0415 0.32086 0.7118 0.0
H1110 H 0.00409 0.32137 0.71464 0.0
H1111 H 0.02166 0.347 0.69146 0.0
H1112 H 0.9084 0.34389 0.7326 0.0
H1113 H 0.94438 0.41014 0.67828 0.0
H1114 H 0.95464 0.33763 0.78922 0.0
H1115 H 0.97403 0.31691 0.76193 0.0
H1116 H 0.9367 0.31381 0.76357 0.0
H1117 H 0.0014 0.42145 0.72302 0.0
H1118 H 0.99068 0.42295 0.68219 0.0
H1119 H 0.01449 0.39656 0.6954 0.0
C1120 C 0.3351 0.03933 0.25073 0.0
C1121 C 0.35434 0.04033 0.27567 0.0
C1122 C 0.33249 0.01539 0.23183 0.0
C1123 C 0.34996 0.9923 0.23768 0.0
C1124 C 0.36859 0.99288 0.26359 0.0
C1125 C 0.37033 0.01671 0.28236 0.0
C1126 C 0.31187 0.01523 0.20494 0.0
C1127 C 0.38788 0.96889 0.27052 0.0
C1128 C 0.34419 0.91933 0.205 0.0
C1129 C 0.36487 0.91977 0.18164 0.0
C1130 C 0.33708 0.94358 0.22166 0.0
C1131 C 0.35138 0.9686 0.21517 0.0
C1132 C 0.37079 0.96954 0.19009 0.0
C1133 C 0.37712 0.94521 0.1735 0.0
C1134 C 0.31564 0.94197 0.24759 0.0
C1135 C 0.38672 0.9957 0.1825 0.0
H1136 H 0.32247 0.05739 0.24557 0.0
H1137 H 0.38519 0.01712 0.30163 0.0
H1138 H 0.323 0.01775 0.18215 0.0
H1139 H 0.30064 0.99516 0.20398 0.0
H1140 H 0.2965 0.0323 0.20713 0.0
H1141 H 0.40032 0.97221 0.29236 0.0
H1142 H 0.37589 0.94942 0.27326 0.0
H1143 H 0.40236 0.96593 0.25038 0.0
H1144 H 0.33429 0.89988 0.21113 0.0
H1145 H 0.39289 0.94591 0.15524 0.0
H1146 H 0.30197 0.96049 0.24718 0.0
H1147 H 0.32619 0.94151 0.27095 0.0
H1148 H 0.30263 0.92304 0.24547 0.0
H1149 H 0.37242 0.0136 0.18019 0.0
H1150 H 0.39888 0.99378 0.16027 0.0
H1151 H 0.40129 1.00038 0.20216 0.0
C1152 C 0.95368 0.28595 0.27842 0.0
C1153 C 0.95917 0.30214 0.30532 0.0
C1154 C 0.97428 0.28163 0.25531 0.0
C1155 C 1.00056 0.29446 0.25888 0.0
C1156 C 0.00692 0.30852 0.28737 0.0
C1157 C 0.98629 0.31185 0.31036 0.0
C1158 C 0.96724 0.26517 0.22602 0.0
C1159 C 0.03458 0.32265 0.29228 0.0
C1160 C 0.0632 0.29007 0.20425 0.0
C1161 C 0.05929 0.31389 0.18567 0.0
C1162 C 0.04307 0.28187 0.22655 0.0
C1163 C 0.01909 0.29846 0.23106 0.0
C1164 C 0.01457 0.32175 0.21131 0.0
C1165 C 0.03446 0.32888 0.18867 0.0
C1166 C 0.04819 0.25622 0.24616 0.0
C1167 C 0.98962 0.34044 0.21553 0.0
H1168 H 0.93296 0.27787 0.27456 0.0
H1169 H 0.99102 0.3239 0.33136 0.0
H1170 H 0.96189 0.27957 0.20646 0.0
H1171 H 0.98527 0.25255 0.21827 0.0
H1172 H 0.94923 0.25124 0.23007 0.0
H1173 H 0.03707 0.33068 0.31678 0.0
H1174 H 0.05183 0.30812 0.28726 0.0
H1175 H 0.03648 0.34033 0.27558 0.0
H1176 H 0.08216 0.27816 0.20183 0.0
H1177 H 0.03109 0.34726 0.17439 0.0
H1178 H 0.02846 0.2456 0.25219 0.0
H1179 H 0.0586 0.26214 0.2686 0.0
H1180 H 0.06193 0.24138 0.23355 0.0
H1181 H 0.97019 0.32824 0.21383 0.0
H1182 H 0.98881 0.35727 0.19759 0.0
H1183 H 0.99019 0.35007 0.2394 0.0
C1184 C 0.69998 0.92919 0.25995 0.0
C1185 C 0.68123 0.93233 0.28511 0.0
C1186 C 0.70497 0.95121 0.23874 0.0
C1187 C 0.69026 0.97649 0.24238 0.0
C1188 C 0.67256 0.98015 0.26876 0.0
C1189 C 0.66863 0.95825 0.28991 0.0
C1190 C 0.72492 0.94682 0.21172 0.0
C1191 C 0.65614 0.00657 0.27359 0.0
C1192 C 0.69788 0.04665 0.20397 0.0
C1193 C 0.67565 0.04597 0.18251 0.0
C1194 C 0.70556 0.02278 0.221 0.0
C1195 C 0.69002 0.99807 0.21718 0.0
C1196 C 0.66947 0.99662 0.19327 0.0
C1197 C 0.66278 0.02049 0.17598 0.0
C1198 C 0.72872 0.02465 0.24495 0.0
C1199 C 0.65232 0.97075 0.18833 0.0
H1200 H 0.71009 0.90937 0.25624 0.0
H1201 H 0.65443 0.96117 0.30951 0.0
H1202 H 0.7134 0.93897 0.19081 0.0
H1203 H 0.73537 0.96644 0.20489 0.0
H1204 H 0.74096 0.93118 0.21795 0.0
H1205 H 0.6436 0.00616 0.29565 0.0
H1206 H 0.67027 0.02467 0.27471 0.0
H1207 H 0.64188 0.00984 0.25327 0.0
H1208 H 0.70842 0.0661 0.20863 0.0
H1209 H 0.64587 0.01958 0.15907 0.0
H1210 H 0.74087 0.00509 0.24558 0.0
H1211 H 0.71984 0.02799 0.26887 0.0
H1212 H 0.74292 0.04218 0.23966 0.0
H1213 H 0.66589 0.95227 0.1864 0.0
H1214 H 0.63922 0.97203 0.16671 0.0
H1215 H 0.63853 0.96761 0.20906 0.0
C1216 C 0.07646 0.64123 0.26364 0.0
C1217 C 0.07971 0.62101 0.28727 0.0
C1218 C 0.0507 0.64526 0.24866 0.0
C1219 C 0.02788 0.62836 0.2572 0.0
C1220 C 0.03069 0.60899 0.28218 0.0
C1221 C 0.05647 0.60571 0.29702 0.0
C1222 C 0.0483 0.66658 0.22264 0.0
C1223 C 0.00695 0.5904 0.29191 0.0
C1224 C 0.95306 0.63911 0.23166 0.0
C1225 C 0.95078 0.61966 0.20706 0.0
C1226 C 0.97858 0.64368 0.24698 0.0
C1227 C 0.00215 0.62813 0.23774 0.0
C1228 C 1.00027 0.60964 0.2118 0.0
C1229 C 0.97471 0.60579 0.19668 0.0
C1230 C 0.97996 0.66406 0.27406 0.0
C1231 C 0.02485 0.59249 0.20127 0.0
H1232 H 0.09422 0.65337 0.25619 0.0
H1233 H 0.05866 0.59016 0.3154 0.0
H1234 H 0.0474 0.65595 0.19937 0.0
H1235 H 0.02889 0.67875 0.22524 0.0
H1236 H 0.06622 0.68106 0.22249 0.0
H1237 H 0.01192 0.57791 0.31328 0.0
H1238 H 0.98811 0.60289 0.29681 0.0
H1239 H 0.00187 0.576 0.27223 0.0
H1240 H 0.93475 0.65014 0.23965 0.0
H1241 H 0.97328 0.59089 0.17753 0.0
H1242 H 0.99884 0.67712 0.27223 0.0
H1243 H 0.98121 0.65259 0.29678 0.0
H1244 H 0.96143 0.67776 0.2748 0.0
H1245 H 0.04309 0.60599 0.19698 0.0
H1246 H 0.02047 0.58055 0.17933 0.0
H1247 H 0.0306 0.57765 0.22027 0.0
loop_
_geom_bond_atom_site_label_1
_geom_bond_atom_site_label_2
_geom_bond_distance
_geom_bond_site_symmetry_2
_ccdc_geom_bond_type
Zn0 O3 2.031 . S
Zn0 O5 2.049 . S
Zn0 O10 2.067 . S
Zn1 O2 1.962 . S
Zn1 O4 1.986 . S
Zn1 O6 1.996 . S
Zn1 O9 1.943 . S
O2 Zn1 1.962 . S
O2 C7 1.254 . S
O3 Zn0 2.031 . S
O3 C7 1.269 . S
O4 Zn1 1.986 . S
O4 C11 1.262 . S
O5 Zn0 2.049 . S
O5 C13 1.260 . S
O6 Zn1 1.996 . S
O6 C13 1.257 . S
C7 O2 1.254 . S
C7 O3 1.269 . S
C8 O9 1.249 . S
C8 O10 1.270 . S
O9 Zn1 1.943 . S
O9 C8 1.249 . S
O10 Zn0 2.067 . S
O10 C8 1.270 . S
C11 O4 1.262 . S
C11 O12 1.232 . S
O12 C11 1.232 . S
C13 O5 1.260 . S
C13 O6 1.257 . S
Zn14 O17 2.031 . S
Zn14 O19 2.049 . S
Zn14 O24 2.067 . S
Zn15 O16 1.962 . S
Zn15 O18 1.986 . S
Zn15 O20 1.996 . S
Zn15 O23 1.943 . S
O16 Zn15 1.962 . S
O16 C21 1.254 . S
O17 Zn14 2.031 . S
O17 C21 1.269 . S
O18 Zn15 1.986 . S
O18 C25 1.262 . S
O19 Zn14 2.049 . S
O19 C27 1.260 . S
O20 Zn15 1.996 . S
O20 C27 1.257 . S
C21 O16 1.254 . S
C21 O17 1.269 . S
C22 O23 1.249 . S
C22 O24 1.270 . S
O23 Zn15 1.943 . S
O23 C22 1.249 . S
O24 Zn14 2.067 . S
O24 C22 1.270 . S
C25 O18 1.262 . S
C25 O26 1.232 . S
O26 C25 1.232 . S
C27 O19 1.260 . S
C27 O20 1.257 . S
Zn28 O31 2.031 . S
Zn28 O33 2.049 . S
Zn28 O38 2.067 . S
Zn29 O30 1.962 . S
Zn29 O32 1.986 . S
Zn29 O34 1.996 . S
Zn29 O37 1.943 . S
O30 Zn29 1.962 . S
O30 C35 1.254 . S
O31 Zn28 2.031 . S
O31 C35 1.269 . S
O32 Zn29 1.986 . S
O32 C39 1.262 . S
O33 Zn28 2.049 . S
O33 C41 1.260 . S
O34 Zn29 1.996 . S
O34 C41 1.257 . S
C35 O30 1.254 . S
C35 O31 1.269 . S
C36 O37 1.249 . S
C36 O38 1.270 . S
O37 Zn29 1.943 . S
O37 C36 1.249 . S
O38 Zn28 2.067 . S
O38 C36 1.270 . S
C39 O32 1.262 . S
C39 O40 1.232 . S
O40 C39 1.232 . S
C41 O33 1.260 . S
C41 O34 1.257 . S
Zn42 O45 2.031 . S
Zn42 O47 2.049 . S
Zn42 O52 2.067 . S
Zn43 O44 1.962 . S
Zn43 O46 1.986 . S
Zn43 O48 1.996 . S
Zn43 O51 1.943 . S
O44 Zn43 1.962 . S
O44 C49 1.254 . S
O45 Zn42 2.031 . S
O45 C49 1.269 . S
O46 Zn43 1.986 . S
O46 C53 1.262 . S
O47 Zn42 2.049 . S
O47 C55 1.260 . S
O48 Zn43 1.996 . S
O48 C55 1.257 . S
C49 O44 1.254 . S
C49 O45 1.269 . S
C50 O51 1.249 . S
C50 O52 1.270 . S
O51 Zn43 1.943 . S
O51 C50 1.249 . S
O52 Zn42 2.067 . S
O52 C50 1.270 . S
C53 O46 1.262 . S
C53 O54 1.232 . S
O54 C53 1.232 . S
C55 O47 1.260 . S
C55 O48 1.257 . S
Zn56 O59 2.031 . S
Zn56 O61 2.049 . S
Zn56 O66 2.067 . S
Zn57 O58 1.962 . S
Zn57 O60 1.986 . S
Zn57 O62 1.996 . S
Zn57 O65 1.943 . S
O58 Zn57 1.962 . S
O58 C63 1.254 . S
O59 Zn56 2.031 . S
O59 C63 1.269 . S
O60 Zn57 1.986 . S
O60 C67 1.262 . S
O61 Zn56 2.049 . S
O61 C69 1.260 . S
O62 Zn57 1.996 . S
O62 C69 1.257 . S
C63 O58 1.254 . S
C63 O59 1.269 . S
C64 O65 1.249 . S
C64 O66 1.270 . S
O65 Zn57 1.943 . S
O65 C64 1.249 . S
O66 Zn56 2.067 . S
O66 C64 1.270 . S
C67 O60 1.262 . S
C67 O68 1.232 . S
O68 C67 1.232 . S
C69 O61 1.260 . S
C69 O62 1.257 . S
Zn70 O73 2.031 . S
Zn70 O75 2.049 . S
Zn70 O80 2.067 . S
Zn71 O72 1.962 . S
Zn71 O74 1.986 . S
Zn71 O76 1.996 . S
Zn71 O79 1.943 . S
O72 Zn71 1.962 . S
O72 C77 1.254 . S
O73 Zn70 2.031 . S
O73 C77 1.269 . S
O74 Zn71 1.986 . S
O74 C81 1.262 . S
O75 Zn70 2.049 . S
O75 C83 1.260 . S
O76 Zn71 1.996 . S
O76 C83 1.257 . S
C77 O72 1.254 . S
C77 O73 1.269 . S
C78 O79 1.249 . S
C78 O80 1.270 . S
O79 Zn71 1.943 . S
O79 C78 1.249 . S
O80 Zn70 2.067 . S
O80 C78 1.270 . S
C81 O74 1.262 . S
C81 O82 1.232 . S
O82 C81 1.232 . S
C83 O75 1.260 . S
C83 O76 1.257 . S
Zn84 O87 2.031 . S
Zn84 O89 2.049 . S
Zn84 O94 2.067 . S
Zn85 O86 1.962 . S
Zn85 O88 1.986 . S
Zn85 O90 1.996 . S
Zn85 O93 1.943 . S
O86 Zn85 1.962 . S
O86 C91 1.254 . S
O87 Zn84 2.031 . S
O87 C91 1.269 . S
O88 Zn85 1.986 . S
O88 C95 1.262 . S
O89 Zn84 2.049 . S
O89 C97 1.260 . S
O90 Zn85 1.996 . S
O90 C97 1.257 . S
C91 O86 1.254 . S
C91 O87 1.269 . S
C92 O93 1.249 . S
C92 O94 1.270 . S
O93 Zn85 1.943 . S
O93 C92 1.249 . S
O94 Zn84 2.067 . S
O94 C92 1.270 . S
C95 O88 1.262 . S
C95 O96 1.232 . S
O96 C95 1.232 . S
C97 O89 1.260 . S
C97 O90 1.257 . S
Zn98 O101 2.031 . S
Zn98 O103 2.049 . S
Zn98 O108 2.067 . S
Zn99 O100 1.962 . S
Zn99 O102 1.986 . S
Zn99 O104 1.996 . S
Zn99 O107 1.943 . S
O100 Zn99 1.962 . S
O100 C105 1.254 . S
O101 Zn98 2.031 . S
O101 C105 1.269 . S
O102 Zn99 1.986 . S
O102 C109 1.262 . S
O103 Zn98 2.049 . S
O103 C111 1.260 . S
O104 Zn99 1.996 . S
O104 C111 1.257 . S
C105 O100 1.254 . S
C105 O101 1.269 . S
C106 O107 1.249 . S
C106 O108 1.270 . S
O107 Zn99 1.943 . S
O107 C106 1.249 . S
O108 Zn98 2.067 . S
O108 C106 1.270 . S
C109 O102 1.262 . S
C109 O110 1.232 . S
O110 C109 1.232 . S
C111 O103 1.260 . S
C111 O104 1.257 . S
Zn112 O115 2.031 . S
Zn112 O117 2.049 . S
Zn112 O122 2.067 . S
Zn113 O114 1.962 . S
Zn113 O116 1.986 . S
Zn113 O118 1.996 . S
Zn113 O121 1.943 . S
O114 Zn113 1.962 . S
O114 C119 1.254 . S
O115 Zn112 2.031 . S
O115 C119 1.269 . S
O116 Zn113 1.986 . S
O116 C123 1.262 . S
O117 Zn112 2.049 . S
O117 C125 1.260 . S
O118 Zn113 1.996 . S
O118 C125 1.257 . S
C119 O114 1.254 . S
C119 O115 1.269 . S
C120 O121 1.249 . S
C120 O122 1.270 . S
O121 Zn113 1.943 . S
O121 C120 1.249 . S
O122 Zn112 2.067 . S
O122 C120 1.270 . S
C123 O116 1.262 . S
C123 O124 1.232 . S
O124 C123 1.232 . S
C125 O117 1.260 . S
C125 O118 1.257 . S
Zn126 O129 2.031 . S
Zn126 O131 2.049 . S
Zn126 O136 2.067 . S
Zn127 O128 1.962 . S
Zn127 O130 1.986 . S
Zn127 O132 1.996 . S
Zn127 O135 1.943 . S
O128 Zn127 1.962 . S
O128 C133 1.254 . S
O129 Zn126 2.031 . S
O129 C133 1.269 . S
O130 Zn127 1.986 . S
O130 C137 1.262 . S
O131 Zn126 2.049 . S
O131 C139 1.260 . S
O132 Zn127 1.996 . S
O132 C139 1.257 . S
C133 O128 1.254 . S
C133 O129 1.269 . S
C134 O135 1.249 . S
C134 O136 1.270 . S
O135 Zn127 1.943 . S
O135 C134 1.249 . S
O136 Zn126 2.067 . S
O136 C134 1.270 . S
C137 O130 1.262 . S
C137 O138 1.232 . S
O138 C137 1.232 . S
C139 O131 1.260 . S
C139 O132 1.257 . S
Zn140 O143 2.031 . S
Zn140 O145 2.049 . S
Zn140 O150 2.067 . S
Zn141 O142 1.962 . S
Zn141 O144 1.986 . S
Zn141 O146 1.996 . S
Zn141 O149 1.943 . S
O142 Zn141 1.962 . S
O142 C147 1.254 . S
O143 Zn140 2.031 . S
O143 C147 1.269 . S
O144 Zn141 1.986 . S
O144 C151 1.262 . S
O145 Zn140 2.049 . S
O145 C153 1.260 . S
O146 Zn141 1.996 . S
O146 C153 1.257 . S
C147 O142 1.254 . S
C147 O143 1.269 . S
C148 O149 1.249 . S
C148 O150 1.270 . S
O149 Zn141 1.943 . S
O149 C148 1.249 . S
O150 Zn140 2.067 . S
O150 C148 1.270 . S
C151 O144 1.262 . S
C151 O152 1.232 . S
O152 C151 1.232 . S
C153 O145 1.260 . S
C153 O146 1.257 . S
Zn154 O157 2.031 . S
Zn154 O159 2.049 . S
Zn154 O164 2.067 . S
Zn155 O156 1.962 . S
Zn155 O158 1.986 . S
Zn155 O160 1.996 . S
Zn155 O163 1.943 . S
O156 Zn155 1.962 . S
O156 C161 1.254 . S
O157 Zn154 2.031 . S
O157 C161 1.269 . S
O158 Zn155 1.986 . S
O158 C165 1.262 . S
O159 Zn154 2.049 . S
O159 C167 1.260 . S
O160 Zn155 1.996 . S
O160 C167 1.257 . S
C161 O156 1.254 . S
C161 O157 1.269 . S
C162 O163 1.249 . S
C162 O164 1.270 . S
O163 Zn155 1.943 . S
O163 C162 1.249 . S
O164 Zn154 2.067 . S
O164 C162 1.270 . S
C165 O158 1.262 . S
C165 O166 1.232 . S
O166 C165 1.232 . S
C167 O159 1.260 . S
C167 O160 1.257 . S
Zn168 O171 2.031 . S
Zn168 O173 2.049 . S
Zn168 O178 2.067 . S
Zn169 O170 1.962 . S
Zn169 O172 1.986 . S
Zn169 O174 1.996 . S
Zn169 O177 1.943 . S
O170 Zn169 1.962 . S
O170 C175 1.254 . S
O171 Zn168 2.031 . S
O171 C175 1.269 . S
O172 Zn169 1.986 . S
O172 C179 1.262 . S
O173 Zn168 2.049 . S
O173 C181 1.260 . S
O174 Zn169 1.996 . S
O174 C181 1.257 . S
C175 O170 1.254 . S
C175 O171 1.269 . S
C176 O177 1.249 . S
C176 O178 1.270 . S
O177 Zn169 1.943 . S
O177 C176 1.249 . S
O178 Zn168 2.067 . S
O178 C176 1.270 . S
C179 O172 1.262 . S
C179 O180 1.232 . S
O180 C179 1.232 . S
C181 O173 1.260 . S
C181 O174 1.257 . S
Zn182 O185 2.031 . S
Zn182 O187 2.049 . S
Zn182 O192 2.067 . S
Zn183 O184 1.962 . S
Zn183 O186 1.986 . S
Zn183 O188 1.996 . S
Zn183 O191 1.943 . S
O184 Zn183 1.962 . S
O184 C189 1.254 . S
O185 Zn182 2.031 . S
O185 C189 1.269 . S
O186 Zn183 1.986 . S
O186 C193 1.262 . S
O187 Zn182 2.049 . S
O187 C195 1.260 . S
O188 Zn183 1.996 . S
O188 C195 1.257 . S
C189 O184 1.254 . S
C189 O185 1.269 . S
C190 O191 1.249 . S
C190 O192 1.270 . S
O191 Zn183 1.943 . S
O191 C190 1.249 . S
O192 Zn182 2.067 . S
O192 C190 1.270 . S
C193 O186 1.262 . S
C193 O194 1.232 . S
O194 C193 1.232 . S
C195 O187 1.260 . S
C195 O188 1.257 . S
Zn196 O199 2.031 . S
Zn196 O201 2.049 . S
Zn196 O206 2.067 . S
Zn197 O198 1.962 . S
Zn197 O200 1.986 . S
Zn197 O202 1.996 . S
Zn197 O205 1.943 . S
O198 Zn197 1.962 . S
O198 C203 1.254 . S
O199 Zn196 2.031 . S
O199 C203 1.269 . S
O200 Zn197 1.986 . S
O200 C207 1.262 . S
O201 Zn196 2.049 . S
O201 C209 1.260 . S
O202 Zn197 1.996 . S
O202 C209 1.257 . S
C203 O198 1.254 . S
C203 O199 1.269 . S
C204 O205 1.249 . S
C204 O206 1.270 . S
O205 Zn197 1.943 . S
O205 C204 1.249 . S
O206 Zn196 2.067 . S
O206 C204 1.270 . S
C207 O200 1.262 . S
C207 O208 1.232 . S
O208 C207 1.232 . S
C209 O201 1.260 . S
C209 O202 1.257 . S
Zn210 O213 2.031 . S
Zn210 O215 2.049 . S
Zn210 O220 2.067 . S
Zn211 O212 1.962 . S
Zn211 O214 1.986 . S
Zn211 O216 1.996 . S
Zn211 O219 1.943 . S
O212 Zn211 1.962 . S
O212 C217 1.254 . S
O213 Zn210 2.031 . S
O213 C217 1.269 . S
O214 Zn211 1.986 . S
O214 C221 1.262 . S
O215 Zn210 2.049 . S
O215 C223 1.260 . S
O216 Zn211 1.996 . S
O216 C223 1.257 . S
C217 O212 1.254 . S
C217 O213 1.269 . S
C218 O219 1.249 . S
C218 O220 1.270 . S
O219 Zn211 1.943 . S
O219 C218 1.249 . S
O220 Zn210 2.067 . S
O220 C218 1.270 . S
C221 O214 1.262 . S
C221 O222 1.232 . S
O222 C221 1.232 . S
C223 O215 1.260 . S
C223 O216 1.257 . S
C224 C225 1.391 . S
C224 C226 1.394 . S
C224 H240 0.931 . S
C225 C224 1.391 . S
C225 C229 1.376 . S
C226 C224 1.394 . S
C226 C227 1.369 . S
C226 C230 1.531 . S
C227 C226 1.369 . S
C227 C228 1.410 . S
C227 C235 1.503 . S
C228 C227 1.410 . S
C228 C229 1.392 . S
C228 C231 1.511 . S
C229 C225 1.376 . S
C229 C228 1.392 . S
C229 H241 0.929 . S
C230 C226 1.531 . S
C230 H242 0.960 . S
C230 H243 0.962 . S
C230 H244 0.960 . S
C231 C228 1.511 . S
C231 H245 0.961 . S
C231 H246 0.961 . S
C231 H247 0.961 . S
C232 C233 1.370 . S
C232 C234 1.363 . S
C232 H248 0.931 . S
C233 C232 1.370 . S
C233 C237 1.408 . S
C234 C232 1.363 . S
C234 C235 1.370 . S
C234 C238 1.524 . S
C235 C227 1.503 . S
C235 C234 1.370 . S
C235 C236 1.403 . S
C236 C235 1.403 . S
C236 C237 1.404 . S
C236 C239 1.539 . S
C237 C233 1.408 . S
C237 C236 1.404 . S
C237 H249 0.930 . S
C238 C234 1.524 . S
C238 H250 0.956 . S
C238 H251 0.961 . S
C238 H252 0.961 . S
C239 C236 1.539 . S
C239 H253 0.958 . S
C239 H254 0.961 . S
C239 H255 0.960 . S
H240 C224 0.931 . S
H241 C229 0.929 . S
H242 C230 0.960 . S
H243 C230 0.962 . S
H244 C230 0.960 . S
H245 C231 0.961 . S
H246 C231 0.961 . S
H247 C231 0.961 . S
H248 C232 0.931 . S
H249 C237 0.930 . S
H250 C238 0.956 . S
H251 C238 0.961 . S
H252 C238 0.961 . S
H253 C239 0.958 . S
H254 C239 0.961 . S
H255 C239 0.960 . S
C256 C257 1.391 . S
C256 C258 1.394 . S
C256 H272 0.931 . S
C257 C256 1.391 . S
C257 C261 1.376 . S
C258 C256 1.394 . S
C258 C259 1.369 . S
C258 C262 1.531 . S
C259 C258 1.369 . S
C259 C260 1.410 . S
C259 C267 1.503 . S
C260 C259 1.410 . S
C260 C261 1.392 . S
C260 C263 1.511 . S
C261 C257 1.376 . S
C261 C260 1.392 . S
C261 H273 0.929 . S
C262 C258 1.531 . S
C262 H274 0.960 . S
C262 H275 0.962 . S
C262 H276 0.960 . S
C263 C260 1.511 . S
C263 H277 0.961 . S
C263 H278 0.961 . S
C263 H279 0.961 . S
C264 C265 1.370 . S
C264 C266 1.363 . S
C264 H280 0.931 . S
C265 C264 1.370 . S
C265 C269 1.408 . S
C266 C264 1.363 . S
C266 C267 1.370 . S
C266 C270 1.524 . S
C267 C259 1.503 . S
C267 C266 1.370 . S
C267 C268 1.403 . S
C268 C267 1.403 . S
C268 C269 1.404 . S
C268 C271 1.539 . S
C269 C265 1.408 . S
C269 C268 1.404 . S
C269 H281 0.930 . S
C270 C266 1.524 . S
C270 H282 0.956 . S
C270 H283 0.961 . S
C270 H284 0.961 . S
C271 C268 1.539 . S
C271 H285 0.958 . S
C271 H286 0.961 . S
C271 H287 0.960 . S
H272 C256 0.931 . S
H273 C261 0.929 . S
H274 C262 0.960 . S
H275 C262 0.962 . S
H276 C262 0.960 . S
H277 C263 0.961 . S
H278 C263 0.961 . S
H279 C263 0.961 . S
H280 C264 0.931 . S
H281 C269 0.930 . S
H282 C270 0.956 . S
H283 C270 0.961 . S
H284 C270 0.961 . S
H285 C271 0.958 . S
H286 C271 0.961 . S
H287 C271 0.960 . S
C288 C289 1.391 . S
C288 C290 1.394 . S
C288 H304 0.931 . S
C289 C288 1.391 . S
C289 C293 1.376 . S
C290 C288 1.394 . S
C290 C291 1.369 . S
C290 C294 1.531 . S
C291 C290 1.369 . S
C291 C292 1.410 . S
C291 C299 1.503 . S
C292 C291 1.410 . S
C292 C293 1.392 . S
C292 C295 1.511 . S
C293 C289 1.376 . S
C293 C292 1.392 . S
C293 H305 0.929 . S
C294 C290 1.531 . S
C294 H306 0.960 . S
C294 H307 0.962 . S
C294 H308 0.960 . S
C295 C292 1.511 . S
C295 H309 0.961 . S
C295 H310 0.961 . S
C295 H311 0.961 . S
C296 C297 1.370 . S
C296 C298 1.363 . S
C296 H312 0.931 . S
C297 C296 1.370 . S
C297 C301 1.408 . S
C298 C296 1.363 . S
C298 C299 1.370 . S
C298 C302 1.524 . S
C299 C291 1.503 . S
C299 C298 1.370 . S
C299 C300 1.403 . S
C300 C299 1.403 . S
C300 C301 1.404 . S
C300 C303 1.539 . S
C301 C297 1.408 . S
C301 C300 1.404 . S
C301 H313 0.930 . S
C302 C298 1.524 . S
C302 H314 0.956 . S
C302 H315 0.961 . S
C302 H316 0.961 . S
C303 C300 1.539 . S
C303 H317 0.958 . S
C303 H318 0.961 . S
C303 H319 0.960 . S
H304 C288 0.931 . S
H305 C293 0.929 . S
H306 C294 0.960 . S
H307 C294 0.962 . S
H308 C294 0.960 . S
H309 C295 0.961 . S
H310 C295 0.961 . S
H311 C295 0.961 . S
H312 C296 0.931 . S
H313 C301 0.930 . S
H314 C302 0.956 . S
H315 C302 0.961 . S
H316 C302 0.961 . S
H317 C303 0.958 . S
H318 C303 0.961 . S
H319 C303 0.960 . S
C320 C321 1.391 . S
C320 C322 1.394 . S
C320 H336 0.931 . S
C321 C320 1.391 . S
C321 C325 1.376 . S
C322 C320 1.394 . S
C322 C323 1.369 . S
C322 C326 1.531 . S
C323 C322 1.369 . S
C323 C324 1.410 . S
C323 C331 1.503 . S
C324 C323 1.410 . S
C324 C325 1.392 . S
C324 C327 1.511 . S
C325 C321 1.376 . S
C325 C324 1.392 . S
C325 H337 0.929 . S
C326 C322 1.531 . S
C326 H338 0.960 . S
C326 H339 0.962 . S
C326 H340 0.960 . S
C327 C324 1.511 . S
C327 H341 0.961 . S
C327 H342 0.961 . S
C327 H343 0.961 . S
C328 C329 1.370 . S
C328 C330 1.363 . S
C328 H344 0.931 . S
C329 C328 1.370 . S
C329 C333 1.408 . S
C330 C328 1.363 . S
C330 C331 1.370 . S
C330 C334 1.524 . S
C331 C323 1.503 . S
C331 C330 1.370 . S
C331 C332 1.403 . S
C332 C331 1.403 . S
C332 C333 1.404 . S
C332 C335 1.539 . S
C333 C329 1.408 . S
C333 C332 1.404 . S
C333 H345 0.930 . S
C334 C330 1.524 . S
C334 H346 0.956 . S
C334 H347 0.961 . S
C334 H348 0.961 . S
C335 C332 1.539 . S
C335 H349 0.958 . S
C335 H350 0.961 . S
C335 H351 0.960 . S
H336 C320 0.931 . S
H337 C325 0.929 . S
H338 C326 0.960 . S
H339 C326 0.962 . S
H340 C326 0.960 . S
H341 C327 0.961 . S
H342 C327 0.961 . S
H343 C327 0.961 . S
H344 C328 0.931 . S
H345 C333 0.930 . S
H346 C334 0.956 . S
H347 C334 0.961 . S
H348 C334 0.961 . S
H349 C335 0.958 . S
H350 C335 0.961 . S
H351 C335 0.960 . S
C352 C353 1.391 . S
C352 C354 1.394 . S
C352 H368 0.931 . S
C353 C352 1.391 . S
C353 C357 1.376 . S
C354 C352 1.394 . S
C354 C355 1.369 . S
C354 C358 1.531 . S
C355 C354 1.369 . S
C355 C356 1.410 . S
C355 C363 1.503 . S
C356 C355 1.410 . S
C356 C357 1.392 . S
C356 C359 1.511 . S
C357 C353 1.376 . S
C357 C356 1.392 . S
C357 H369 0.929 . S
C358 C354 1.531 . S
C358 H370 0.960 . S
C358 H371 0.962 . S
C358 H372 0.960 . S
C359 C356 1.511 . S
C359 H373 0.961 . S
C359 H374 0.961 . S
C359 H375 0.961 . S
C360 C361 1.370 . S
C360 C362 1.363 . S
C360 H376 0.931 . S
C361 C360 1.370 . S
C361 C365 1.408 . S
C362 C360 1.363 . S
C362 C363 1.370 . S
C362 C366 1.524 . S
C363 C355 1.503 . S
C363 C362 1.370 . S
C363 C364 1.403 . S
C364 C363 1.403 . S
C364 C365 1.404 . S
C364 C367 1.539 . S
C365 C361 1.408 . S
C365 C364 1.404 . S
C365 H377 0.930 . S
C366 C362 1.524 . S
C366 H378 0.956 . S
C366 H379 0.961 . S
C366 H380 0.961 . S
C367 C364 1.539 . S
C367 H381 0.958 . S
C367 H382 0.961 . S
C367 H383 0.960 . S
H368 C352 0.931 . S
H369 C357 0.929 . S
H370 C358 0.960 . S
H371 C358 0.962 . S
H372 C358 0.960 . S
H373 C359 0.961 . S
H374 C359 0.961 . S
H375 C359 0.961 . S
H376 C360 0.931 . S
H377 C365 0.930 . S
H378 C366 0.956 . S
H379 C366 0.961 . S
H380 C366 0.961 . S
H381 C367 0.958 . S
H382 C367 0.961 . S
H383 C367 0.960 . S
C384 C385 1.391 . S
C384 C386 1.394 . S
C384 H400 0.931 . S
C385 C384 1.391 . S
C385 C389 1.376 . S
C386 C384 1.394 . S
C386 C387 1.369 . S
C386 C390 1.531 . S
C387 C386 1.369 . S
C387 C388 1.410 . S
C387 C395 1.503 . S
C388 C387 1.410 . S
C388 C389 1.392 . S
C388 C391 1.511 . S
C389 C385 1.376 . S
C389 C388 1.392 . S
C389 H401 0.929 . S
C390 C386 1.531 . S
C390 H402 0.960 . S
C390 H403 0.962 . S
C390 H404 0.960 . S
C391 C388 1.511 . S
C391 H405 0.961 . S
C391 H406 0.961 . S
C391 H407 0.961 . S
C392 C393 1.370 . S
C392 C394 1.363 . S
C392 H408 0.931 . S
C393 C392 1.370 . S
C393 C397 1.408 . S
C394 C392 1.363 . S
C394 C395 1.370 . S
C394 C398 1.524 . S
C395 C387 1.503 . S
C395 C394 1.370 . S
C395 C396 1.403 . S
C396 C395 1.403 . S
C396 C397 1.404 . S
C396 C399 1.539 . S
C397 C393 1.408 . S
C397 C396 1.404 . S
C397 H409 0.930 . S
C398 C394 1.524 . S
C398 H410 0.956 . S
C398 H411 0.961 . S
C398 H412 0.961 . S
C399 C396 1.539 . S
C399 H413 0.958 . S
C399 H414 0.961 . S
C399 H415 0.960 . S
H400 C384 0.931 . S
H401 C389 0.929 . S
H402 C390 0.960 . S
H403 C390 0.962 . S
H404 C390 0.960 . S
H405 C391 0.961 . S
H406 C391 0.961 . S
H407 C391 0.961 . S
H408 C392 0.931 . S
H409 C397 0.930 . S
H410 C398 0.956 . S
H411 C398 0.961 . S
H412 C398 0.961 . S
H413 C399 0.958 . S
H414 C399 0.961 . S
H415 C399 0.960 . S
C416 C417 1.391 . S
C416 C418 1.394 . S
C416 H432 0.931 . S
C417 C416 1.391 . S
C417 C421 1.376 . S
C418 C416 1.394 . S
C418 C419 1.369 . S
C418 C422 1.531 . S
C419 C418 1.369 . S
C419 C420 1.410 . S
C419 C427 1.503 . S
C420 C419 1.410 . S
C420 C421 1.392 . S
C420 C423 1.511 . S
C421 C417 1.376 . S
C421 C420 1.392 . S
C421 H433 0.929 . S
C422 C418 1.531 . S
C422 H434 0.960 . S
C422 H435 0.962 . S
C422 H436 0.960 . S
C423 C420 1.511 . S
C423 H437 0.961 . S
C423 H438 0.961 . S
C423 H439 0.961 . S
C424 C425 1.370 . S
C424 C426 1.363 . S
C424 H440 0.931 . S
C425 C424 1.370 . S
C425 C429 1.408 . S
C426 C424 1.363 . S
C426 C427 1.370 . S
C426 C430 1.524 . S
C427 C419 1.503 . S
C427 C426 1.370 . S
C427 C428 1.403 . S
C428 C427 1.403 . S
C428 C429 1.404 . S
C428 C431 1.539 . S
C429 C425 1.408 . S
C429 C428 1.404 . S
C429 H441 0.930 . S
C430 C426 1.524 . S
C430 H442 0.956 . S
C430 H443 0.961 . S
C430 H444 0.961 . S
C431 C428 1.539 . S
C431 H445 0.958 . S
C431 H446 0.961 . S
C431 H447 0.960 . S
H432 C416 0.931 . S
H433 C421 0.929 . S
H434 C422 0.960 . S
H435 C422 0.962 . S
H436 C422 0.960 . S
H437 C423 0.961 . S
H438 C423 0.961 . S
H439 C423 0.961 . S
H440 C424 0.931 . S
H441 C429 0.930 . S
H442 C430 0.956 . S
H443 C430 0.961 . S
H444 C430 0.961 . S
H445 C431 0.958 . S
H446 C431 0.961 . S
H447 C431 0.960 . S
C448 C449 1.391 . S
C448 C450 1.394 . S
C448 H464 0.931 . S
C449 C448 1.391 . S
C449 C453 1.376 . S
C450 C448 1.394 . S
C450 C451 1.369 . S
C450 C454 1.531 . S
C451 C450 1.369 . S
C451 C452 1.410 . S
C451 C459 1.503 . S
C452 C451 1.410 . S
C452 C453 1.392 . S
C452 C455 1.511 . S
C453 C449 1.376 . S
C453 C452 1.392 . S
C453 H465 0.929 . S
C454 C450 1.531 . S
C454 H466 0.960 . S
C454 H467 0.962 . S
C454 H468 0.960 . S
C455 C452 1.511 . S
C455 H469 0.961 . S
C455 H470 0.961 . S
C455 H471 0.961 . S
C456 C457 1.370 . S
C456 C458 1.363 . S
C456 H472 0.931 . S
C457 C456 1.370 . S
C457 C461 1.408 . S
C458 C456 1.363 . S
C458 C459 1.370 . S
C458 C462 1.524 . S
C459 C451 1.503 . S
C459 C458 1.370 . S
C459 C460 1.403 . S
C460 C459 1.403 . S
C460 C461 1.404 . S
C460 C463 1.539 . S
C461 C457 1.408 . S
C461 C460 1.404 . S
C461 H473 0.930 . S
C462 C458 1.524 . S
C462 H474 0.956 . S
C462 H475 0.961 . S
C462 H476 0.961 . S
C463 C460 1.539 . S
C463 H477 0.958 . S
C463 H478 0.961 . S
C463 H479 0.960 . S
H464 C448 0.931 . S
H465 C453 0.929 . S
H466 C454 0.960 . S
H467 C454 0.962 . S
H468 C454 0.960 . S
H469 C455 0.961 . S
H470 C455 0.961 . S
H471 C455 0.961 . S
H472 C456 0.931 . S
H473 C461 0.930 . S
H474 C462 0.956 . S
H475 C462 0.961 . S
H476 C462 0.961 . S
H477 C463 0.958 . S
H478 C463 0.961 . S
H479 C463 0.960 . S
C480 C481 1.391 . S
C480 C482 1.394 . S
C480 H496 0.931 . S
C481 C480 1.391 . S
C481 C485 1.376 . S
C482 C480 1.394 . S
C482 C483 1.369 . S
C482 C486 1.531 . S
C483 C482 1.369 . S
C483 C484 1.410 . S
C483 C491 1.503 1_556 S
C484 C483 1.410 . S
C484 C485 1.392 . S
C484 C487 1.511 . S
C485 C481 1.376 . S
C485 C484 1.392 . S
C485 H497 0.929 . S
C486 C482 1.531 . S
C486 H498 0.947 1_556 S
C486 H499 0.962 . S
C486 H500 0.960 . S
C487 C484 1.511 . S
C487 H501 0.961 . S
C487 H502 0.961 1_556 S
C487 H503 0.961 . S
C488 C489 1.370 . S
C488 C490 1.363 . S
C488 H504 0.931 . S
C489 C488 1.370 . S
C489 C493 1.408 . S
C490 C488 1.363 . S
C490 C491 1.370 . S
C490 C494 1.524 . S
C491 C483 1.503 1_554 S
C491 C490 1.370 . S
C491 C492 1.403 . S
C492 C491 1.403 . S
C492 C493 1.404 . S
C492 C495 1.539 . S
C493 C489 1.408 . S
C493 C492 1.404 . S
C493 H505 0.930 . S
C494 C490 1.524 . S
C494 H506 0.976 . S
C494 H507 0.942 1_554 S
C494 H508 0.961 . S
C495 C492 1.539 . S
C495 H509 0.958 . S
C495 H510 0.961 . S
C495 H511 0.975 . S
H496 C480 0.931 . S
H497 C485 0.929 . S
H498 C486 0.947 1_554 S
H499 C486 0.962 . S
H500 C486 0.960 . S
H501 C487 0.961 . S
H502 C487 0.961 1_554 S
H503 C487 0.961 . S
H504 C488 0.931 . S
H505 C493 0.930 . S
H506 C494 0.976 . S
H507 C494 0.942 1_556 S
H508 C494 0.961 . S
H509 C495 0.958 . S
H510 C495 0.961 . S
H511 C495 0.975 . S
C512 C513 1.391 . S
C512 C514 1.394 . S
C512 H528 0.931 . S
C513 C512 1.391 . S
C513 C517 1.376 . S
C514 C512 1.394 . S
C514 C515 1.369 . S
C514 C518 1.531 . S
C515 C514 1.369 . S
C515 C516 1.410 . S
C515 C523 1.503 1_556 S
C516 C515 1.410 . S
C516 C517 1.392 . S
C516 C519 1.511 . S
C517 C513 1.376 . S
C517 C516 1.392 . S
C517 H529 0.929 . S
C518 C514 1.531 . S
C518 H530 0.960 1_556 S
C518 H531 0.962 . S
C518 H532 0.960 . S
C519 C516 1.511 . S
C519 H533 0.961 . S
C519 H534 0.961 1_556 S
C519 H535 0.961 . S
C520 C521 1.370 . S
C520 C522 1.363 . S
C520 H536 0.931 . S
C521 C520 1.370 . S
C521 C525 1.408 . S
C522 C520 1.363 . S
C522 C523 1.370 . S
C522 C526 1.524 . S
C523 C515 1.503 1_554 S
C523 C522 1.370 . S
C523 C524 1.403 . S
C524 C523 1.403 . S
C524 C525 1.404 . S
C524 C527 1.539 . S
C525 C521 1.408 . S
C525 C524 1.404 . S
C525 H537 0.930 . S
C526 C522 1.524 . S
C526 H538 0.939 1_554 S
C526 H539 0.961 1_554 S
C526 H540 0.961 . S
C527 C524 1.539 . S
C527 H541 0.958 . S
C527 H542 0.961 . S
C527 H543 0.960 . S
H528 C512 0.931 . S
H529 C517 0.929 . S
H530 C518 0.960 1_554 S
H531 C518 0.962 . S
H532 C518 0.960 . S
H533 C519 0.961 . S
H534 C519 0.961 1_554 S
H535 C519 0.961 . S
H536 C520 0.931 . S
H537 C525 0.930 . S
H538 C526 0.939 1_556 S
H539 C526 0.961 1_556 S
H540 C526 0.961 . S
H541 C527 0.958 . S
H542 C527 0.961 . S
H543 C527 0.960 . S
C544 C545 1.391 . S
C544 C546 1.394 . S
C544 H560 0.931 . S
C545 C544 1.391 . S
C545 C549 1.376 . S
C546 C544 1.394 . S
C546 C547 1.369 . S
C546 C550 1.531 . S
C547 C546 1.369 . S
C547 C548 1.410 . S
C547 C555 1.503 1_556 S
C548 C547 1.410 . S
C548 C549 1.392 . S
C548 C551 1.511 . S
C549 C545 1.376 . S
C549 C548 1.392 . S
C549 H561 0.929 . S
C550 C546 1.531 . S
C550 H562 0.949 1_556 S
C550 H563 0.962 . S
C550 H564 0.960 . S
C551 C548 1.511 . S
C551 H565 0.961 . S
C551 H566 0.961 1_556 S
C551 H567 0.961 . S
C552 C553 1.370 . S
C552 C554 1.363 . S
C552 H568 0.931 . S
C553 C552 1.370 . S
C553 C557 1.408 . S
C554 C552 1.363 . S
C554 C555 1.370 . S
C554 C558 1.524 . S
C555 C547 1.503 1_554 S
C555 C554 1.370 . S
C555 C556 1.403 . S
C556 C555 1.403 . S
C556 C557 1.404 . S
C556 C559 1.539 . S
C557 C553 1.408 . S
C557 C556 1.404 . S
C557 H569 0.930 . S
C558 C554 1.524 . S
C558 H570 0.956 . S
C558 H571 0.949 1_554 S
C558 H572 0.961 . S
C559 C556 1.539 . S
C559 H573 0.958 . S
C559 H574 0.961 . S
C559 H575 0.961 . S
H560 C544 0.931 . S
H561 C549 0.929 . S
H562 C550 0.949 1_554 S
H563 C550 0.962 . S
H564 C550 0.960 . S
H565 C551 0.961 . S
H566 C551 0.961 1_554 S
H567 C551 0.961 . S
H568 C552 0.931 . S
H569 C557 0.930 . S
H570 C558 0.956 . S
H571 C558 0.949 1_556 S
H572 C558 0.961 . S
H573 C559 0.958 . S
H574 C559 0.961 . S
H575 C559 0.961 . S
C576 C577 1.391 . S
C576 C578 1.394 . S
C576 H592 0.931 . S
C577 C576 1.391 . S
C577 C581 1.376 . S
C578 C576 1.394 . S
C578 C579 1.369 . S
C578 C582 1.531 . S
C579 C578 1.369 . S
C579 C580 1.410 . S
C579 C587 1.503 1_554 S
C580 C579 1.410 . S
C580 C581 1.392 . S
C580 C583 1.511 . S
C581 C577 1.376 . S
C581 C580 1.392 . S
C581 H593 0.929 . S
C582 C578 1.531 . S
C582 H594 0.948 1_554 S
C582 H595 0.962 . S
C582 H596 0.960 . S
C583 C580 1.511 . S
C583 H597 0.961 . S
C583 H598 0.961 1_554 S
C583 H599 0.961 . S
C584 C585 1.370 . S
C584 C586 1.363 . S
C584 H600 0.931 . S
C585 C584 1.370 . S
C585 C589 1.408 . S
C586 C584 1.363 . S
C586 C587 1.370 . S
C586 C590 1.524 . S
C587 C579 1.503 1_556 S
C587 C586 1.370 . S
C587 C588 1.403 . S
C588 C587 1.403 . S
C588 C589 1.404 . S
C588 C591 1.539 . S
C589 C585 1.408 . S
C589 C588 1.404 . S
C589 H601 0.930 . S
C590 C586 1.524 . S
C590 H602 0.956 . S
C590 H603 0.946 1_556 S
C590 H604 0.961 . S
C591 C588 1.539 . S
C591 H605 0.958 . S
C591 H606 0.961 . S
C591 H607 0.968 . S
H592 C576 0.931 . S
H593 C581 0.929 . S
H594 C582 0.948 1_556 S
H595 C582 0.962 . S
H596 C582 0.960 . S
H597 C583 0.961 . S
H598 C583 0.961 1_556 S
H599 C583 0.961 . S
H600 C584 0.931 . S
H601 C589 0.930 . S
H602 C590 0.956 . S
H603 C590 0.946 1_554 S
H604 C590 0.961 . S
H605 C591 0.958 . S
H606 C591 0.961 . S
H607 C591 0.968 . S
C608 C609 1.391 . S
C608 C610 1.394 . S
C608 H624 0.931 . S
C609 C608 1.391 . S
C609 C613 1.376 . S
C610 C608 1.394 . S
C610 C611 1.369 . S
C610 C614 1.531 . S
C611 C610 1.369 . S
C611 C612 1.410 . S
C611 C619 1.503 . S
C612 C611 1.410 . S
C612 C613 1.392 . S
C612 C615 1.511 . S
C613 C609 1.376 . S
C613 C612 1.392 . S
C613 H625 0.929 . S
C614 C610 1.531 . S
C614 H626 0.960 . S
C614 H627 0.962 . S
C614 H628 0.960 . S
C615 C612 1.511 . S
C615 H629 0.961 . S
C615 H630 0.961 . S
C615 H631 0.961 . S
C616 C617 1.370 . S
C616 C618 1.363 . S
C616 H632 0.931 . S
C617 C616 1.370 . S
C617 C621 1.408 . S
C618 C616 1.363 . S
C618 C619 1.370 . S
C618 C622 1.524 . S
C619 C611 1.503 . S
C619 C618 1.370 . S
C619 C620 1.403 . S
C620 C619 1.403 . S
C620 C621 1.404 . S
C620 C623 1.539 . S
C621 C617 1.408 . S
C621 C620 1.404 . S
C621 H633 0.930 . S
C622 C618 1.524 . S
C622 H634 0.956 . S
C622 H635 0.961 . S
C622 H636 0.961 . S
C623 C620 1.539 . S
C623 H637 0.958 . S
C623 H638 0.961 . S
C623 H639 0.960 . S
H624 C608 0.931 . S
H625 C613 0.929 . S
H626 C614 0.960 . S
H627 C614 0.962 . S
H628 C614 0.960 . S
H629 C615 0.961 . S
H630 C615 0.961 . S
H631 C615 0.961 . S
H632 C616 0.931 . S
H633 C621 0.930 . S
H634 C622 0.956 . S
H635 C622 0.961 . S
H636 C622 0.961 . S
H637 C623 0.958 . S
H638 C623 0.961 . S
H639 C623 0.960 . S
C640 C641 1.391 . S
C640 C642 1.394 . S
C640 H656 0.931 . S
C641 C640 1.391 . S
C641 C645 1.376 . S
C642 C640 1.394 . S
C642 C643 1.369 . S
C642 C646 1.531 . S
C643 C642 1.369 . S
C643 C644 1.410 . S
C643 C651 1.503 . S
C644 C643 1.410 . S
C644 C645 1.392 . S
C644 C647 1.511 . S
C645 C641 1.376 . S
C645 C644 1.392 . S
C645 H657 0.929 . S
C646 C642 1.531 . S
C646 H658 0.960 . S
C646 H659 0.962 . S
C646 H660 0.960 . S
C647 C644 1.511 . S
C647 H661 0.961 . S
C647 H662 0.961 . S
C647 H663 0.961 . S
C648 C649 1.370 . S
C648 C650 1.363 . S
C648 H664 0.931 . S
C649 C648 1.370 . S
C649 C653 1.408 . S
C650 C648 1.363 . S
C650 C651 1.370 . S
C650 C654 1.524 . S
C651 C643 1.503 . S
C651 C650 1.370 . S
C651 C652 1.403 . S
C652 C651 1.403 . S
C652 C653 1.404 . S
C652 C655 1.539 . S
C653 C649 1.408 . S
C653 C652 1.404 . S
C653 H665 0.930 . S
C654 C650 1.524 . S
C654 H666 0.956 . S
C654 H667 0.961 . S
C654 H668 0.961 . S
C655 C652 1.539 . S
C655 H669 0.958 . S
C655 H670 0.961 . S
C655 H671 0.960 . S
H656 C640 0.931 . S
H657 C645 0.929 . S
H658 C646 0.960 . S
H659 C646 0.962 . S
H660 C646 0.960 . S
H661 C647 0.961 . S
H662 C647 0.961 . S
H663 C647 0.961 . S
H664 C648 0.931 . S
H665 C653 0.930 . S
H666 C654 0.956 . S
H667 C654 0.961 . S
H668 C654 0.961 . S
H669 C655 0.958 . S
H670 C655 0.961 . S
H671 C655 0.960 . S
C672 C673 1.391 . S
C672 C674 1.394 . S
C672 H688 0.931 . S
C673 C672 1.391 . S
C673 C677 1.376 . S
C674 C672 1.394 . S
C674 C675 1.369 . S
C674 C678 1.531 . S
C675 C674 1.369 . S
C675 C676 1.410 . S
C675 C683 1.503 . S
C676 C675 1.410 . S
C676 C677 1.392 . S
C676 C679 1.511 . S
C677 C673 1.376 . S
C677 C676 1.392 . S
C677 H689 0.929 . S
C678 C674 1.531 . S
C678 H690 0.960 . S
C678 H691 0.962 . S
C678 H692 0.960 . S
C679 C676 1.511 . S
C679 H693 0.961 . S
C679 H694 0.961 . S
C679 H695 0.961 . S
C680 C681 1.370 . S
C680 C682 1.363 . S
C680 H696 0.931 . S
C681 C680 1.370 . S
C681 C685 1.408 . S
C682 C680 1.363 . S
C682 C683 1.370 . S
C682 C686 1.524 . S
C683 C675 1.503 . S
C683 C682 1.370 . S
C683 C684 1.403 . S
C684 C683 1.403 . S
C684 C685 1.404 . S
C684 C687 1.539 . S
C685 C681 1.408 . S
C685 C684 1.404 . S
C685 H697 0.930 . S
C686 C682 1.524 . S
C686 H698 0.956 . S
C686 H699 0.961 . S
C686 H700 0.961 . S
C687 C684 1.539 . S
C687 H701 0.958 . S
C687 H702 0.961 . S
C687 H703 0.960 . S
H688 C672 0.931 . S
H689 C677 0.929 . S
H690 C678 0.960 . S
H691 C678 0.962 . S
H692 C678 0.960 . S
H693 C679 0.961 . S
H694 C679 0.961 . S
H695 C679 0.961 . S
H696 C680 0.931 . S
H697 C685 0.930 . S
H698 C686 0.956 . S
H699 C686 0.961 . S
H700 C686 0.961 . S
H701 C687 0.958 . S
H702 C687 0.961 . S
H703 C687 0.960 . S
C704 C705 1.391 . S
C704 C706 1.394 . S
C704 H720 0.931 . S
C705 C704 1.391 . S
C705 C709 1.376 . S
C706 C704 1.394 . S
C706 C707 1.369 . S
C706 C710 1.531 . S
C707 C706 1.369 . S
C707 C708 1.410 . S
C707 C715 1.503 . S
C708 C707 1.410 . S
C708 C709 1.392 . S
C708 C711 1.511 . S
C709 C705 1.376 . S
C709 C708 1.392 . S
C709 H721 0.929 . S
C710 C706 1.531 . S
C710 H722 0.960 . S
C710 H723 0.962 . S
C710 H724 0.960 . S
C711 C708 1.511 . S
C711 H725 0.961 . S
C711 H726 0.961 . S
C711 H727 0.961 . S
C712 C713 1.370 . S
C712 C714 1.363 . S
C712 H728 0.931 . S
C713 C712 1.370 . S
C713 C717 1.408 . S
C714 C712 1.363 . S
C714 C715 1.370 . S
C714 C718 1.524 . S
C715 C707 1.503 . S
C715 C714 1.370 . S
C715 C716 1.403 . S
C716 C715 1.403 . S
C716 C717 1.404 . S
C716 C719 1.539 . S
C717 C713 1.408 . S
C717 C716 1.404 . S
C717 H729 0.930 . S
C718 C714 1.524 . S
C718 H730 0.956 . S
C718 H731 0.961 . S
C718 H732 0.961 . S
C719 C716 1.539 . S
C719 H733 0.958 . S
C719 H734 0.961 . S
C719 H735 0.960 . S
H720 C704 0.931 . S
H721 C709 0.929 . S
H722 C710 0.960 . S
H723 C710 0.962 . S
H724 C710 0.960 . S
H725 C711 0.961 . S
H726 C711 0.961 . S
H727 C711 0.961 . S
H728 C712 0.931 . S
H729 C717 0.930 . S
H730 C718 0.956 . S
H731 C718 0.961 . S
H732 C718 0.961 . S
H733 C719 0.958 . S
H734 C719 0.961 . S
H735 C719 0.960 . S
C736 C737 1.391 . S
C736 C738 1.394 . S
C736 H752 0.931 . S
C737 C736 1.391 . S
C737 C741 1.376 . S
C738 C736 1.394 . S
C738 C739 1.369 . S
C738 C742 1.531 . S
C739 C738 1.369 . S
C739 C740 1.410 . S
C739 C747 1.503 . S
C740 C739 1.410 . S
C740 C741 1.392 . S
C740 C743 1.511 . S
C741 C737 1.376 . S
C741 C740 1.392 . S
C741 H753 0.929 . S
C742 C738 1.531 . S
C742 H754 0.960 . S
C742 H755 0.962 . S
C742 H756 0.960 . S
C743 C740 1.511 . S
C743 H757 0.961 . S
C743 H758 0.961 . S
C743 H759 0.961 . S
C744 C745 1.370 . S
C744 C746 1.363 . S
C744 H760 0.931 . S
C745 C744 1.370 . S
C745 C749 1.408 . S
C746 C744 1.363 . S
C746 C747 1.370 . S
C746 C750 1.524 . S
C747 C739 1.503 . S
C747 C746 1.370 . S
C747 C748 1.403 . S
C748 C747 1.403 . S
C748 C749 1.404 . S
C748 C751 1.539 . S
C749 C745 1.408 . S
C749 C748 1.404 . S
C749 H761 0.930 . S
C750 C746 1.524 . S
C750 H762 0.956 . S
C750 H763 0.961 . S
C750 H764 0.961 . S
C751 C748 1.539 . S
C751 H765 0.958 . S
C751 H766 0.961 . S
C751 H767 0.960 . S
H752 C736 0.931 . S
H753 C741 0.929 . S
H754 C742 0.960 . S
H755 C742 0.962 . S
H756 C742 0.960 . S
H757 C743 0.961 . S
H758 C743 0.961 . S
H759 C743 0.961 . S
H760 C744 0.931 . S
H761 C749 0.930 . S
H762 C750 0.956 . S
H763 C750 0.961 . S
H764 C750 0.961 . S
H765 C751 0.958 . S
H766 C751 0.961 . S
H767 C751 0.960 . S
C768 C769 1.391 . S
C768 C770 1.394 . S
C768 H784 0.931 . S
C769 C768 1.391 . S
C769 C773 1.376 . S
C770 C768 1.394 . S
C770 C771 1.369 . S
C770 C774 1.531 . S
C771 C770 1.369 . S
C771 C772 1.410 . S
C771 C779 1.503 . S
C772 C771 1.410 . S
C772 C773 1.392 . S
C772 C775 1.511 . S
C773 C769 1.376 . S
C773 C772 1.392 . S
C773 H785 0.929 . S
C774 C770 1.531 . S
C774 H786 0.960 . S
C774 H787 0.962 . S
C774 H788 0.960 . S
C775 C772 1.511 . S
C775 H789 0.961 . S
C775 H790 0.961 . S
C775 H791 0.961 . S
C776 C777 1.370 . S
C776 C778 1.363 . S
C776 H792 0.931 . S
C777 C776 1.370 . S
C777 C781 1.408 . S
C778 C776 1.363 . S
C778 C779 1.370 . S
C778 C782 1.524 . S
C779 C771 1.503 . S
C779 C778 1.370 . S
C779 C780 1.403 . S
C780 C779 1.403 . S
C780 C781 1.404 . S
C780 C783 1.539 . S
C781 C777 1.408 . S
C781 C780 1.404 . S
C781 H793 0.930 . S
C782 C778 1.524 . S
C782 H794 0.956 . S
C782 H795 0.961 . S
C782 H796 0.961 . S
C783 C780 1.539 . S
C783 H797 0.958 . S
C783 H798 0.961 . S
C783 H799 0.960 . S
H784 C768 0.931 . S
H785 C773 0.929 . S
H786 C774 0.960 . S
H787 C774 0.962 . S
H788 C774 0.960 . S
H789 C775 0.961 . S
H790 C775 0.961 . S
H791 C775 0.961 . S
H792 C776 0.931 . S
H793 C781 0.930 . S
H794 C782 0.956 . S
H795 C782 0.961 . S
H796 C782 0.961 . S
H797 C783 0.958 . S
H798 C783 0.961 . S
H799 C783 0.960 . S
C800 C801 1.391 . S
C800 C802 1.394 . S
C800 H816 0.931 . S
C801 C800 1.391 . S
C801 C805 1.376 . S
C802 C800 1.394 . S
C802 C803 1.369 . S
C802 C806 1.531 . S
C803 C802 1.369 . S
C803 C804 1.410 . S
C803 C811 1.503 . S
C804 C803 1.410 . S
C804 C805 1.392 . S
C804 C807 1.511 . S
C805 C801 1.376 . S
C805 C804 1.392 . S
C805 H817 0.929 . S
C806 C802 1.531 . S
C806 H818 0.960 . S
C806 H819 0.962 . S
C806 H820 0.960 . S
C807 C804 1.511 . S
C807 H821 0.961 . S
C807 H822 0.961 . S
C807 H823 0.961 . S
C808 C809 1.370 . S
C808 C810 1.363 . S
C808 H824 0.931 . S
C809 C808 1.370 . S
C809 C813 1.408 . S
C810 C808 1.363 . S
C810 C811 1.370 . S
C810 C814 1.524 . S
C811 C803 1.503 . S
C811 C810 1.370 . S
C811 C812 1.403 . S
C812 C811 1.403 . S
C812 C813 1.404 . S
C812 C815 1.539 . S
C813 C809 1.408 . S
C813 C812 1.404 . S
C813 H825 0.930 . S
C814 C810 1.524 . S
C814 H826 0.956 . S
C814 H827 0.961 . S
C814 H828 0.961 . S
C815 C812 1.539 . S
C815 H829 0.958 . S
C815 H830 0.961 . S
C815 H831 0.960 . S
H816 C800 0.931 . S
H817 C805 0.929 . S
H818 C806 0.960 . S
H819 C806 0.962 . S
H820 C806 0.960 . S
H821 C807 0.961 . S
H822 C807 0.961 . S
H823 C807 0.961 . S
H824 C808 0.931 . S
H825 C813 0.930 . S
H826 C814 0.956 . S
H827 C814 0.961 . S
H828 C814 0.961 . S
H829 C815 0.958 . S
H830 C815 0.961 . S
H831 C815 0.960 . S
C832 C833 1.391 . S
C832 C834 1.394 . S
C832 H848 0.931 . S
C833 C832 1.391 . S
C833 C837 1.376 . S
C834 C832 1.394 . S
C834 C835 1.369 . S
C834 C838 1.531 . S
C835 C834 1.369 . S
C835 C836 1.410 . S
C835 C843 1.503 . S
C836 C835 1.410 . S
C836 C837 1.392 . S
C836 C839 1.511 . S
C837 C833 1.376 . S
C837 C836 1.392 . S
C837 H849 0.929 . S
C838 C834 1.531 . S
C838 H850 0.960 . S
C838 H851 0.962 . S
C838 H852 0.960 . S
C839 C836 1.511 . S
C839 H853 0.961 . S
C839 H854 0.961 . S
C839 H855 0.961 . S
C840 C841 1.370 . S
C840 C842 1.363 . S
C840 H856 0.931 . S
C841 C840 1.370 . S
C841 C845 1.408 . S
C842 C840 1.363 . S
C842 C843 1.370 . S
C842 C846 1.524 . S
C843 C835 1.503 . S
C843 C842 1.370 . S
C843 C844 1.403 . S
C844 C843 1.403 . S
C844 C845 1.404 . S
C844 C847 1.539 . S
C845 C841 1.408 . S
C845 C844 1.404 . S
C845 H857 0.930 . S
C846 C842 1.524 . S
C846 H858 0.956 . S
C846 H859 0.961 . S
C846 H860 0.961 . S
C847 C844 1.539 . S
C847 H861 0.958 . S
C847 H862 0.961 . S
C847 H863 0.960 . S
H848 C832 0.931 . S
H849 C837 0.929 . S
H850 C838 0.960 . S
H851 C838 0.962 . S
H852 C838 0.960 . S
H853 C839 0.961 . S
H854 C839 0.961 . S
H855 C839 0.961 . S
H856 C840 0.931 . S
H857 C845 0.930 . S
H858 C846 0.956 . S
H859 C846 0.961 . S
H860 C846 0.961 . S
H861 C847 0.958 . S
H862 C847 0.961 . S
H863 C847 0.960 . S
C864 C865 1.391 . S
C864 C866 1.394 . S
C864 H880 0.931 . S
C865 C864 1.391 . S
C865 C869 1.376 . S
C866 C864 1.394 . S
C866 C867 1.369 . S
C866 C870 1.531 . S
C867 C866 1.369 . S
C867 C868 1.410 . S
C867 C875 1.503 . S
C868 C867 1.410 . S
C868 C869 1.392 . S
C868 C871 1.511 . S
C869 C865 1.376 . S
C869 C868 1.392 . S
C869 H881 0.929 . S
C870 C866 1.531 . S
C870 H882 0.960 . S
C870 H883 0.962 . S
C870 H884 0.960 . S
C871 C868 1.511 . S
C871 H885 0.961 . S
C871 H886 0.961 . S
C871 H887 0.961 . S
C872 C873 1.370 . S
C872 C874 1.363 . S
C872 H888 0.931 . S
C873 C872 1.370 . S
C873 C877 1.408 . S
C874 C872 1.363 . S
C874 C875 1.370 . S
C874 C878 1.524 . S
C875 C867 1.503 . S
C875 C874 1.370 . S
C875 C876 1.403 . S
C876 C875 1.403 . S
C876 C877 1.404 . S
C876 C879 1.539 . S
C877 C873 1.408 . S
C877 C876 1.404 . S
C877 H889 0.930 . S
C878 C874 1.524 . S
C878 H890 0.956 . S
C878 H891 0.961 . S
C878 H892 0.961 . S
C879 C876 1.539 . S
C879 H893 0.958 . S
C879 H894 0.961 . S
C879 H895 0.960 . S
H880 C864 0.931 . S
H881 C869 0.929 . S
H882 C870 0.960 . S
H883 C870 0.962 . S
H884 C870 0.960 . S
H885 C871 0.961 . S
H886 C871 0.961 . S
H887 C871 0.961 . S
H888 C872 0.931 . S
H889 C877 0.930 . S
H890 C878 0.956 . S
H891 C878 0.961 . S
H892 C878 0.961 . S
H893 C879 0.958 . S
H894 C879 0.961 . S
H895 C879 0.960 . S
C896 C897 1.391 . S
C896 C898 1.394 . S
C896 H912 0.931 . S
C897 C896 1.391 . S
C897 C901 1.376 . S
C898 C896 1.394 . S
C898 C899 1.369 . S
C898 C902 1.531 . S
C899 C898 1.369 . S
C899 C900 1.410 . S
C899 C907 1.503 . S
C900 C899 1.410 . S
C900 C901 1.392 . S
C900 C903 1.511 . S
C901 C897 1.376 . S
C901 C900 1.392 . S
C901 H913 0.929 . S
C902 C898 1.531 . S
C902 H914 0.960 . S
C902 H915 0.962 . S
C902 H916 0.960 . S
C903 C900 1.511 . S
C903 H917 0.961 . S
C903 H918 0.961 . S
C903 H919 0.961 . S
C904 C905 1.370 . S
C904 C906 1.363 . S
C904 H920 0.931 . S
C905 C904 1.370 . S
C905 C909 1.408 . S
C906 C904 1.363 . S
C906 C907 1.370 . S
C906 C910 1.524 . S
C907 C899 1.503 . S
C907 C906 1.370 . S
C907 C908 1.403 . S
C908 C907 1.403 . S
C908 C909 1.404 . S
C908 C911 1.539 . S
C909 C905 1.408 . S
C909 C908 1.404 . S
C909 H921 0.930 . S
C910 C906 1.524 . S
C910 H922 0.956 . S
C910 H923 0.961 . S
C910 H924 0.961 . S
C911 C908 1.539 . S
C911 H925 0.958 . S
C911 H926 0.961 . S
C911 H927 0.960 . S
H912 C896 0.931 . S
H913 C901 0.929 . S
H914 C902 0.960 . S
H915 C902 0.962 . S
H916 C902 0.960 . S
H917 C903 0.961 . S
H918 C903 0.961 . S
H919 C903 0.961 . S
H920 C904 0.931 . S
H921 C909 0.930 . S
H922 C910 0.956 . S
H923 C910 0.961 . S
H924 C910 0.961 . S
H925 C911 0.958 . S
H926 C911 0.961 . S
H927 C911 0.960 . S
C928 C929 1.391 . S
C928 C930 1.394 . S
C928 H944 0.931 . S
C929 C928 1.391 . S
C929 C933 1.376 . S
C930 C928 1.394 . S
C930 C931 1.369 . S
C930 C934 1.531 . S
C931 C930 1.369 . S
C931 C932 1.410 . S
C931 C939 1.503 . S
C932 C931 1.410 . S
C932 C933 1.392 . S
C932 C935 1.511 . S
C933 C929 1.376 . S
C933 C932 1.392 . S
C933 H945 0.929 . S
C934 C930 1.531 . S
C934 H946 0.960 . S
C934 H947 0.962 . S
C934 H948 0.960 . S
C935 C932 1.511 . S
C935 H949 0.961 . S
C935 H950 0.961 . S
C935 H951 0.961 . S
C936 C937 1.370 . S
C936 C938 1.363 . S
C936 H952 0.931 . S
C937 C936 1.370 . S
C937 C941 1.408 . S
C938 C936 1.363 . S
C938 C939 1.370 . S
C938 C942 1.524 . S
C939 C931 1.503 . S
C939 C938 1.370 . S
C939 C940 1.403 . S
C940 C939 1.403 . S
C940 C941 1.404 . S
C940 C943 1.539 . S
C941 C937 1.408 . S
C941 C940 1.404 . S
C941 H953 0.930 . S
C942 C938 1.524 . S
C942 H954 0.956 . S
C942 H955 0.961 . S
C942 H956 0.961 . S
C943 C940 1.539 . S
C943 H957 0.958 . S
C943 H958 0.961 . S
C943 H959 0.960 . S
H944 C928 0.931 . S
H945 C933 0.929 . S
H946 C934 0.960 . S
H947 C934 0.962 . S
H948 C934 0.960 . S
H949 C935 0.961 . S
H950 C935 0.961 . S
H951 C935 0.961 . S
H952 C936 0.931 . S
H953 C941 0.930 . S
H954 C942 0.956 . S
H955 C942 0.961 . S
H956 C942 0.961 . S
H957 C943 0.958 . S
H958 C943 0.961 . S
H959 C943 0.960 . S
C960 C961 1.391 . S
C960 C962 1.394 . S
C960 H976 0.931 . S
C961 C960 1.391 . S
C961 C965 1.376 . S
C962 C960 1.394 . S
C962 C963 1.369 . S
C962 C966 1.531 . S
C963 C962 1.369 . S
C963 C964 1.410 . S
C963 C971 1.503 . S
C964 C963 1.410 . S
C964 C965 1.392 . S
C964 C967 1.511 . S
C965 C961 1.376 . S
C965 C964 1.392 . S
C965 H977 0.929 . S
C966 C962 1.531 . S
C966 H978 0.960 . S
C966 H979 0.962 . S
C966 H980 0.960 . S
C967 C964 1.511 . S
C967 H981 0.961 . S
C967 H982 0.961 . S
C967 H983 0.961 . S
C968 C969 1.370 . S
C968 C970 1.363 . S
C968 H984 0.931 . S
C969 C968 1.370 . S
C969 C973 1.408 . S
C970 C968 1.363 . S
C970 C971 1.370 . S
C970 C974 1.524 . S
C971 C963 1.503 . S
C971 C970 1.370 . S
C971 C972 1.403 . S
C972 C971 1.403 . S
C972 C973 1.404 . S
C972 C975 1.539 . S
C973 C969 1.408 . S
C973 C972 1.404 . S
C973 H985 0.930 . S
C974 C970 1.524 . S
C974 H986 0.956 . S
C974 H987 0.961 . S
C974 H988 0.961 . S
C975 C972 1.539 . S
C975 H989 0.958 . S
C975 H990 0.961 . S
C975 H991 0.960 . S
H976 C960 0.931 . S
H977 C965 0.929 . S
H978 C966 0.960 . S
H979 C966 0.962 . S
H980 C966 0.960 . S
H981 C967 0.961 . S
H982 C967 0.961 . S
H983 C967 0.961 . S
H984 C968 0.931 . S
H985 C973 0.930 . S
H986 C974 0.956 . S
H987 C974 0.961 . S
H988 C974 0.961 . S
H989 C975 0.958 . S
H990 C975 0.961 . S
H991 C975 0.960 . S
C992 C993 1.391 . S
C992 C994 1.394 . S
C992 H1008 0.931 . S
C993 C992 1.391 . S
C993 C997 1.376 . S
C994 C992 1.394 . S
C994 C995 1.369 . S
C994 C998 1.531 . S
C995 C994 1.369 . S
C995 C996 1.410 . S
C995 C1003 1.503 1_545 S
C996 C995 1.410 . S
C996 C997 1.392 . S
C996 C999 1.511 . S
C997 C993 1.376 . S
C997 C996 1.392 . S
C997 H1009 0.929 . S
C998 C994 1.531 . S
C998 H1010 0.960 . S
C998 H1011 0.962 . S
C998 H1012 0.960 . S
C999 C996 1.511 . S
C999 H1013 0.961 . S
C999 H1014 0.961 1_545 S
C999 H1015 0.961 . S
C1000 C1001 1.370 . S
C1000 C1002 1.363 . S
C1000 H1016 0.931 . S
C1001 C1000 1.370 . S
C1001 C1005 1.408 . S
C1002 C1000 1.363 . S
C1002 C1003 1.370 . S
C1002 C1006 1.524 . S
C1003 C995 1.503 1_565 S
C1003 C1002 1.370 . S
C1003 C1004 1.403 . S
C1004 C1003 1.403 . S
C1004 C1005 1.404 . S
C1004 C1007 1.539 1_565 S
C1005 C1001 1.408 . S
C1005 C1004 1.404 . S
C1005 H1017 0.930 . S
C1006 C1002 1.524 . S
C1006 H1018 0.956 . S
C1006 H1019 0.961 . S
C1006 H1020 0.961 . S
C1007 C1004 1.539 1_545 S
C1007 H1021 0.958 . S
C1007 H1022 0.961 1_545 S
C1007 H1023 0.960 . S
H1008 C992 0.931 . S
H1009 C997 0.929 . S
H1010 C998 0.960 . S
H1011 C998 0.962 . S
H1012 C998 0.960 . S
H1013 C999 0.961 . S
H1014 C999 0.961 1_565 S
H1015 C999 0.961 . S
H1016 C1000 0.931 . S
H1017 C1005 0.930 . S
H1018 C1006 0.956 . S
H1019 C1006 0.961 . S
H1020 C1006 0.961 . S
H1021 C1007 0.958 . S
H1022 C1007 0.961 1_565 S
H1023 C1007 0.960 . S
C1024 C1025 1.391 . S
C1024 C1026 1.394 . S
C1024 H1040 0.931 . S
C1025 C1024 1.391 . S
C1025 C1029 1.376 . S
C1026 C1024 1.394 . S
C1026 C1027 1.369 . S
C1026 C1030 1.531 . S
C1027 C1026 1.369 . S
C1027 C1028 1.410 . S
C1027 C1035 1.503 1_655 S
C1028 C1027 1.410 . S
C1028 C1029 1.392 . S
C1028 C1031 1.511 . S
C1029 C1025 1.376 . S
C1029 C1028 1.392 . S
C1029 H1041 0.929 . S
C1030 C1026 1.531 . S
C1030 H1042 0.960 . S
C1030 H1043 0.962 . S
C1030 H1044 0.960 . S
C1031 C1028 1.511 . S
C1031 H1045 0.961 . S
C1031 H1046 0.961 1_655 S
C1031 H1047 0.961 . S
C1032 C1033 1.370 . S
C1032 C1034 1.363 . S
C1032 H1048 0.931 . S
C1033 C1032 1.370 . S
C1033 C1037 1.408 . S
C1034 C1032 1.363 . S
C1034 C1035 1.370 . S
C1034 C1038 1.524 . S
C1035 C1027 1.503 1_455 S
C1035 C1034 1.370 . S
C1035 C1036 1.403 . S
C1036 C1035 1.403 . S
C1036 C1037 1.404 . S
C1036 C1039 1.536 1_455 S
C1037 C1033 1.408 . S
C1037 C1036 1.404 . S
C1037 H1049 0.930 . S
C1038 C1034 1.524 . S
C1038 H1050 0.956 . S
C1038 H1051 0.961 . S
C1038 H1052 0.961 . S
C1039 C1036 1.536 1_655 S
C1039 H1053 0.961 . S
C1039 H1054 0.959 1_655 S
C1039 H1055 0.963 . S
H1040 C1024 0.931 . S
H1041 C1029 0.929 . S
H1042 C1030 0.960 . S
H1043 C1030 0.962 . S
H1044 C1030 0.960 . S
H1045 C1031 0.961 . S
H1046 C1031 0.961 1_455 S
H1047 C1031 0.961 . S
H1048 C1032 0.931 . S
H1049 C1037 0.930 . S
H1050 C1038 0.956 . S
H1051 C1038 0.961 . S
H1052 C1038 0.961 . S
H1053 C1039 0.961 . S
H1054 C1039 0.959 1_455 S
H1055 C1039 0.963 . S
C1056 C1057 1.391 . S
C1056 C1058 1.394 . S
C1056 H1072 0.931 . S
C1057 C1056 1.391 . S
C1057 C1061 1.376 . S
C1058 C1056 1.394 . S
C1058 C1059 1.369 . S
C1058 C1062 1.531 . S
C1059 C1058 1.369 . S
C1059 C1060 1.410 . S
C1059 C1067 1.503 1_545 S
C1060 C1059 1.410 . S
C1060 C1061 1.392 . S
C1060 C1063 1.511 . S
C1061 C1057 1.376 . S
C1061 C1060 1.392 . S
C1061 H1073 0.929 . S
C1062 C1058 1.531 . S
C1062 H1074 0.960 1_545 S
C1062 H1075 0.962 . S
C1062 H1076 0.960 . S
C1063 C1060 1.511 . S
C1063 H1077 0.961 . S
C1063 H1078 0.961 . S
C1063 H1079 0.961 . S
C1064 C1065 1.370 . S
C1064 C1066 1.363 . S
C1064 H1080 0.931 . S
C1065 C1064 1.370 . S
C1065 C1069 1.408 . S
C1066 C1064 1.363 . S
C1066 C1067 1.370 . S
C1066 C1070 1.524 1_565 S
C1067 C1059 1.503 1_565 S
C1067 C1066 1.370 . S
C1067 C1068 1.403 . S
C1068 C1067 1.403 . S
C1068 C1069 1.404 . S
C1068 C1071 1.539 . S
C1069 C1065 1.408 . S
C1069 C1068 1.404 . S
C1069 H1081 0.930 . S
C1070 C1066 1.524 1_545 S
C1070 H1082 0.956 . S
C1070 H1083 0.961 . S
C1070 H1084 0.961 . S
C1071 C1068 1.539 . S
C1071 H1085 0.958 . S
C1071 H1086 0.961 . S
C1071 H1087 0.960 . S
H1072 C1056 0.931 . S
H1073 C1061 0.929 . S
H1074 C1062 0.960 1_565 S
H1075 C1062 0.962 . S
H1076 C1062 0.960 . S
H1077 C1063 0.961 . S
H1078 C1063 0.961 . S
H1079 C1063 0.961 . S
H1080 C1064 0.931 . S
H1081 C1069 0.930 . S
H1082 C1070 0.956 . S
H1083 C1070 0.961 . S
H1084 C1070 0.961 . S
H1085 C1071 0.958 . S
H1086 C1071 0.961 . S
H1087 C1071 0.960 . S
C1088 C1089 1.391 . S
C1088 C1090 1.394 . S
C1088 H1104 0.931 . S
C1089 C1088 1.391 . S
C1089 C1093 1.376 . S
C1090 C1088 1.394 . S
C1090 C1091 1.369 . S
C1090 C1094 1.531 1_455 S
C1091 C1090 1.369 . S
C1091 C1092 1.410 . S
C1091 C1099 1.503 1_455 S
C1092 C1091 1.410 . S
C1092 C1093 1.392 . S
C1092 C1095 1.511 . S
C1093 C1089 1.376 . S
C1093 C1092 1.392 . S
C1093 H1105 0.929 . S
C1094 C1090 1.531 1_655 S
C1094 H1106 0.960 . S
C1094 H1107 0.962 . S
C1094 H1108 0.960 1_655 S
C1095 C1092 1.511 . S
C1095 H1109 0.961 . S
C1095 H1110 0.961 . S
C1095 H1111 0.961 . S
C1096 C1097 1.370 . S
C1096 C1098 1.363 . S
C1096 H1112 0.931 . S
C1097 C1096 1.370 . S
C1097 C1101 1.408 . S
C1098 C1096 1.363 . S
C1098 C1099 1.370 . S
C1098 C1102 1.524 . S
C1099 C1091 1.503 1_655 S
C1099 C1098 1.370 . S
C1099 C1100 1.403 . S
C1100 C1099 1.403 . S
C1100 C1101 1.404 . S
C1100 C1103 1.539 . S
C1101 C1097 1.408 . S
C1101 C1100 1.404 . S
C1101 H1113 0.930 . S
C1102 C1098 1.524 . S
C1102 H1114 0.956 . S
C1102 H1115 0.966 . S
C1102 H1116 0.961 . S
C1103 C1100 1.539 . S
C1103 H1117 0.958 . S
C1103 H1118 0.961 . S
C1103 H1119 0.960 1_655 S
H1104 C1088 0.931 . S
H1105 C1093 0.929 . S
H1106 C1094 0.960 . S
H1107 C1094 0.962 . S
H1108 C1094 0.960 1_455 S
H1109 C1095 0.961 . S
H1110 C1095 0.961 . S
H1111 C1095 0.961 . S
H1112 C1096 0.931 . S
H1113 C1101 0.930 . S
H1114 C1102 0.956 . S
H1115 C1102 0.966 . S
H1116 C1102 0.961 . S
H1117 C1103 0.958 . S
H1118 C1103 0.961 . S
H1119 C1103 0.960 1_455 S
C1120 C1121 1.391 . S
C1120 C1122 1.394 . S
C1120 H1136 0.931 . S
C1121 C1120 1.391 . S
C1121 C1125 1.376 . S
C1122 C1120 1.394 . S
C1122 C1123 1.369 . S
C1122 C1126 1.531 . S
C1123 C1122 1.369 . S
C1123 C1124 1.410 . S
C1123 C1131 1.503 1_545 S
C1124 C1123 1.410 . S
C1124 C1125 1.392 . S
C1124 C1127 1.511 . S
C1125 C1121 1.376 . S
C1125 C1124 1.392 . S
C1125 H1137 0.929 . S
C1126 C1122 1.531 . S
C1126 H1138 0.960 1_545 S
C1126 H1139 0.962 1_545 S
C1126 H1140 0.960 . S
C1127 C1124 1.511 . S
C1127 H1141 0.961 . S
C1127 H1142 0.961 . S
C1127 H1143 0.961 . S
C1128 C1129 1.370 . S
C1128 C1130 1.363 . S
C1128 H1144 0.931 . S
C1129 C1128 1.370 . S
C1129 C1133 1.408 . S
C1130 C1128 1.363 . S
C1130 C1131 1.370 . S
C1130 C1134 1.524 . S
C1131 C1123 1.503 1_565 S
C1131 C1130 1.370 . S
C1131 C1132 1.403 . S
C1132 C1131 1.403 . S
C1132 C1133 1.404 . S
C1132 C1135 1.539 . S
C1133 C1129 1.408 . S
C1133 C1132 1.404 . S
C1133 H1145 0.930 . S
C1134 C1130 1.524 . S
C1134 H1146 0.956 . S
C1134 H1147 0.961 . S
C1134 H1148 0.961 . S
C1135 C1132 1.539 . S
C1135 H1149 0.958 . S
C1135 H1150 0.961 . S
C1135 H1151 0.960 1_565 S
H1136 C1120 0.931 . S
H1137 C1125 0.929 . S
H1138 C1126 0.960 1_565 S
H1139 C1126 0.962 1_565 S
H1140 C1126 0.960 . S
H1141 C1127 0.961 . S
H1142 C1127 0.961 . S
H1143 C1127 0.961 . S
H1144 C1128 0.931 . S
H1145 C1133 0.930 . S
H1146 C1134 0.956 . S
H1147 C1134 0.961 . S
H1148 C1134 0.961 . S
H1149 C1135 0.958 . S
H1150 C1135 0.961 . S
H1151 C1135 0.960 1_545 S
C1152 C1153 1.391 . S
C1152 C1154 1.394 . S
C1152 H1168 0.931 . S
C1153 C1152 1.391 . S
C1153 C1157 1.376 . S
C1154 C1152 1.394 . S
C1154 C1155 1.369 . S
C1154 C1158 1.531 . S
C1155 C1154 1.369 . S
C1155 C1156 1.410 . S
C1155 C1163 1.503 1_655 S
C1156 C1155 1.410 . S
C1156 C1157 1.392 . S
C1156 C1159 1.511 1_655 S
C1157 C1153 1.376 . S
C1157 C1156 1.392 . S
C1157 H1169 0.929 . S
C1158 C1154 1.531 . S
C1158 H1170 0.960 . S
C1158 H1171 0.962 . S
C1158 H1172 0.960 . S
C1159 C1156 1.511 1_455 S
C1159 H1173 0.961 1_455 S
C1159 H1174 0.961 . S
C1159 H1175 0.961 . S
C1160 C1161 1.370 . S
C1160 C1162 1.363 . S
C1160 H1176 0.931 . S
C1161 C1160 1.370 . S
C1161 C1165 1.408 . S
C1162 C1160 1.363 . S
C1162 C1163 1.370 . S
C1162 C1166 1.524 . S
C1163 C1155 1.503 1_455 S
C1163 C1162 1.370 . S
C1163 C1164 1.403 . S
C1164 C1163 1.403 . S
C1164 C1165 1.404 . S
C1164 C1167 1.539 . S
C1165 C1161 1.408 . S
C1165 C1164 1.404 . S
C1165 H1177 0.930 . S
C1166 C1162 1.524 . S
C1166 H1178 0.965 . S
C1166 H1179 0.961 . S
C1166 H1180 0.961 . S
C1167 C1164 1.539 . S
C1167 H1181 0.958 . S
C1167 H1182 0.961 . S
C1167 H1183 0.960 1_455 S
H1168 C1152 0.931 . S
H1169 C1157 0.929 . S
H1170 C1158 0.960 . S
H1171 C1158 0.962 . S
H1172 C1158 0.960 . S
H1173 C1159 0.961 1_655 S
H1174 C1159 0.961 . S
H1175 C1159 0.961 . S
H1176 C1160 0.931 . S
H1177 C1165 0.930 . S
H1178 C1166 0.965 . S
H1179 C1166 0.961 . S
H1180 C1166 0.961 . S
H1181 C1167 0.958 . S
H1182 C1167 0.961 . S
H1183 C1167 0.960 1_655 S
C1184 C1185 1.391 . S
C1184 C1186 1.394 . S
C1184 H1200 0.931 . S
C1185 C1184 1.391 . S
C1185 C1189 1.376 . S
C1186 C1184 1.394 . S
C1186 C1187 1.369 . S
C1186 C1190 1.531 . S
C1187 C1186 1.369 . S
C1187 C1188 1.410 . S
C1187 C1195 1.503 1_565 S
C1188 C1187 1.410 . S
C1188 C1189 1.392 . S
C1188 C1191 1.511 . S
C1189 C1185 1.376 . S
C1189 C1188 1.392 . S
C1189 H1201 0.929 . S
C1190 C1186 1.531 . S
C1190 H1202 0.960 . S
C1190 H1203 0.962 . S
C1190 H1204 0.960 . S
C1191 C1188 1.511 . S
C1191 H1205 0.961 . S
C1191 H1206 0.961 1_565 S
C1191 H1207 0.961 . S
C1192 C1193 1.370 . S
C1192 C1194 1.363 . S
C1192 H1208 0.931 . S
C1193 C1192 1.370 . S
C1193 C1197 1.408 . S
C1194 C1192 1.363 . S
C1194 C1195 1.370 . S
C1194 C1198 1.524 . S
C1195 C1187 1.503 1_545 S
C1195 C1194 1.370 . S
C1195 C1196 1.403 . S
C1196 C1195 1.403 . S
C1196 C1197 1.404 . S
C1196 C1199 1.539 . S
C1197 C1193 1.408 . S
C1197 C1196 1.404 . S
C1197 H1209 0.930 . S
C1198 C1194 1.524 . S
C1198 H1210 0.956 . S
C1198 H1211 0.961 . S
C1198 H1212 0.961 . S
C1199 C1196 1.539 . S
C1199 H1213 0.958 1_545 S
C1199 H1214 0.961 . S
C1199 H1215 0.960 1_545 S
H1200 C1184 0.931 . S
H1201 C1189 0.929 . S
H1202 C1190 0.960 . S
H1203 C1190 0.962 . S
H1204 C1190 0.960 . S
H1205 C1191 0.961 . S
H1206 C1191 0.961 1_545 S
H1207 C1191 0.961 . S
H1208 C1192 0.931 . S
H1209 C1197 0.930 . S
H1210 C1198 0.956 . S
H1211 C1198 0.961 . S
H1212 C1198 0.961 . S
H1213 C1199 0.958 1_565 S
H1214 C1199 0.961 . S
H1215 C1199 0.960 1_565 S
C1216 C1217 1.391 . S
C1216 C1218 1.394 . S
C1216 H1232 0.931 . S
C1217 C1216 1.391 . S
C1217 C1221 1.376 . S
C1218 C1216 1.394 . S
C1218 C1219 1.369 . S
C1218 C1222 1.531 . S
C1219 C1218 1.369 . S
C1219 C1220 1.410 . S
C1219 C1227 1.503 1_455 S
C1220 C1219 1.410 . S
C1220 C1221 1.392 . S
C1220 C1223 1.511 1_455 S
C1221 C1217 1.376 . S
C1221 C1220 1.392 . S
C1221 H1233 0.929 . S
C1222 C1218 1.531 . S
C1222 H1234 0.960 . S
C1222 H1235 0.962 . S
C1222 H1236 0.960 . S
C1223 C1220 1.511 1_655 S
C1223 H1237 0.961 1_655 S
C1223 H1238 0.961 . S
C1223 H1239 0.961 . S
C1224 C1225 1.370 . S
C1224 C1226 1.363 . S
C1224 H1240 0.931 . S
C1225 C1224 1.370 . S
C1225 C1229 1.408 . S
C1226 C1224 1.363 . S
C1226 C1227 1.370 . S
C1226 C1230 1.524 . S
C1227 C1219 1.503 1_655 S
C1227 C1226 1.370 . S
C1227 C1228 1.403 . S
C1228 C1227 1.403 . S
C1228 C1229 1.404 . S
C1228 C1231 1.539 . S
C1229 C1225 1.408 . S
C1229 C1228 1.404 . S
C1229 H1241 0.930 . S
C1230 C1226 1.524 . S
C1230 H1242 0.956 1_655 S
C1230 H1243 0.961 . S
C1230 H1244 0.961 . S
C1231 C1228 1.539 . S
C1231 H1245 0.958 . S
C1231 H1246 0.961 . S
C1231 H1247 0.960 . S
H1232 C1216 0.931 . S
H1233 C1221 0.929 . S
H1234 C1222 0.960 . S
H1235 C1222 0.962 . S
H1236 C1222 0.960 . S
H1237 C1223 0.961 1_455 S
H1238 C1223 0.961 . S
H1239 C1223 0.961 . S
H1240 C1224 0.931 . S
H1241 C1229 0.930 . S
H1242 C1230 0.956 1_455 S
H1243 C1230 0.961 . S
H1244 C1230 0.961 . S
H1245 C1231 0.958 . S
H1246 C1231 0.961 . S
H1247 C1231 0.960 . S
C225 C81 1.299 . S
C233 C11 1.312 . S
C257 C95 1.298 . S
C265 C25 1.311 . S
C289 C39 1.317 . S
C297 C109 1.311 . S
C321 C53 1.299 . S
C329 C67 1.312 . S
C353 C193 1.316 . S
C361 C123 1.310 . S
C385 C207 1.304 . S
C393 C137 1.314 . S
C417 C151 1.298 . S
C425 C221 1.311 . S
C449 C165 1.305 . S
C457 C179 1.314 . S
C481 C153 1.345 . S
C489 C13 1.376 . S
C513 C167 1.395 . S
C521 C27 1.387 . S
C545 C125 1.345 . S
C553 C41 1.377 . S
C577 C55 1.345 . S
C585 C139 1.376 . S
C609 C209 1.435 . S
C617 C69 1.412 . S
C641 C223 1.411 . S
C649 C83 1.394 . S
C673 C97 1.386 . S
C681 C181 1.400 . S
C705 C195 1.409 . S
C713 C111 1.408 . S
C737 C64 1.553 . S
C745 C8 1.581 . S
C769 C22 1.573 . S
C777 C78 1.570 . S
C801 C36 1.555 . S
C809 C92 1.577 . S
C833 C106 1.566 . S
C841 C50 1.572 . S
C865 C119 1.217 . S
C873 C175 1.228 . S
C897 C189 1.239 . S
C905 C133 1.217 . S
C929 C147 1.195 . S
C937 C203 1.213 . S
C961 C217 1.204 . S
C969 C161 1.209 . S
C993 C162 1.596 . S
C1001 C190 1.574 . S
C1025 C120 1.598 . S
C1033 C204 1.579 . S
C1057 C218 1.553 . S
C1065 C134 1.583 . S
C1089 C148 1.571 . S
C1097 C176 1.571 . S
C1121 C77 1.239 . S
C1129 C49 1.216 . S
C1153 C91 1.202 . S
C1161 C7 1.210 . S
C1185 C105 1.216 . S
C1193 C21 1.207 . S
C1217 C63 1.200 . S
C1225 C35 1.211 . S
