# Generated by pormake.
# Topology qtz-a, (4)-cn, num edge types: 1
# Building blocks:
#     Node 0, Type 0, BuildingBlock: NAHDIM_clean_sbu_0, # of connection points: 4
#     Node 1, Type 0, BuildingBlock: NAHDIM_clean_sbu_0, # of connection points: 4
#     Node 2, Type 0, BuildingBlock: NAHDIM_clean_sbu_0, # of connection points: 4
#     Node 3, Type 0, BuildingBlock: NAHDIM_clean_sbu_0, # of connection points: 4
#     Node 4, Type 0, BuildingBlock: NAHDIM_clean_sbu_0, # of connection points: 4
#     Node 5, Type 0, BuildingBlock: NAHDIM_clean_sbu_0, # of connection points: 4
#     Node 6, Type 0, BuildingBlock: NAHDIM_clean_sbu_0, # of connection points: 4
#     Node 7, Type 0, BuildingBlock: NAHDIM_clean_sbu_0, # of connection points: 4
#     Node 8, Type 0, BuildingBlock: NAHDIM_clean_sbu_0, # of connection points: 4
#     Node 9, Type 0, BuildingBlock: NAHDIM_clean_sbu_0, # of connection points: 4
#     Node 10, Type 0, BuildingBlock: NAHDIM_clean_sbu_0, # of connection points: 4
#     Node 11, Type 0, BuildingBlock: NAHDIM_clean_sbu_0, # of connection points: 4
#     Edge 12, Type (0, 0), BuildingBlock: AJUNOK_clean_linker_0, # of connection points: 2
#     Edge 13, Type (0, 0), BuildingBlock: AJUNOK_clean_linker_0, # of connection points: 2
#     Edge 14, Type (0, 0), BuildingBlock: AJUNOK_clean_linker_0, # of connection points: 2
#     Edge 15, Type (0, 0), BuildingBlock: AJUNOK_clean_linker_0, # of connection points: 2
#     Edge 16, Type (0, 0), BuildingBlock: AJUNOK_clean_linker_0, # of connection points: 2
#     Edge 17, Type (0, 0), BuildingBlock: AJUNOK_clean_linker_0, # of connection points: 2
#     Edge 18, Type (0, 0), BuildingBlock: AJUNOK_clean_linker_0, # of connection points: 2
#     Edge 19, Type (0, 0), BuildingBlock: AJUNOK_clean_linker_0, # of connection points: 2
#     Edge 20, Type (0, 0), BuildingBlock: AJUNOK_clean_linker_0, # of connection points: 2
#     Edge 21, Type (0, 0), BuildingBlock: AJUNOK_clean_linker_0, # of connection points: 2
#     Edge 22, Type (0, 0), BuildingBlock: AJUNOK_clean_linker_0, # of connection points: 2
#     Edge 23, Type (0, 0), BuildingBlock: AJUNOK_clean_linker_0, # of connection points: 2
#     Edge 24, Type (0, 0), BuildingBlock: AJUNOK_clean_linker_0, # of connection points: 2
#     Edge 25, Type (0, 0), BuildingBlock: AJUNOK_clean_linker_0, # of connection points: 2
#     Edge 26, Type (0, 0), BuildingBlock: AJUNOK_clean_linker_0, # of connection points: 2
#     Edge 27, Type (0, 0), BuildingBlock: AJUNOK_clean_linker_0, # of connection points: 2
#     Edge 28, Type (0, 0), BuildingBlock: AJUNOK_clean_linker_0, # of connection points: 2
#     Edge 29, Type (0, 0), BuildingBlock: AJUNOK_clean_linker_0, # of connection points: 2
#     Edge 30, Type (0, 0), BuildingBlock: AJUNOK_clean_linker_0, # of connection points: 2
#     Edge 31, Type (0, 0), BuildingBlock: AJUNOK_clean_linker_0, # of connection points: 2
#     Edge 32, Type (0, 0), BuildingBlock: AJUNOK_clean_linker_0, # of connection points: 2
#     Edge 33, Type (0, 0), BuildingBlock: AJUNOK_clean_linker_0, # of connection points: 2
#     Edge 34, Type (0, 0), BuildingBlock: AJUNOK_clean_linker_0, # of connection points: 2
#     Edge 35, Type (0, 0), BuildingBlock: AJUNOK_clean_linker_0, # of connection points: 2
# Relax obj value: 0.786
# Max RMSD: 0.419
# Mean RMSD: 0.342
data_MOF--net-qtz-a--node1-NAHDIM_clean_sbu_0--edge1-AJUNOK_clean_linker_0
_symmetry_space_group_name_H-M    P1
_symmetry_Int_Tables_number       1
_symmetry_cell_setting            triclinic
loop_
_symmetry_equiv_pos_as_xyz
'x, y, z'
_cell_length_a     34.183433
_cell_length_b     34.089002
_cell_length_c     30.347399
_cell_angle_alpha  90.047965
_cell_angle_beta   89.881073
_cell_angle_gamma 110.50668
loop_
_atom_site_label
_atom_site_type_symbol
_atom_site_fract_x
_atom_site_fract_y
_atom_site_fract_z
_atom_type_partial_charge
C0 C 0.37495 0.13038 0.1246 0.0
O1 O 0.37559 0.10598 0.15787 0.0
O2 O 0.40079 0.03827 0.1095 0.0
Zn3 Zn 0.35888 0.05461 0.07405 0.0
O4 O 0.37971 0.05081 0.01279 0.0
C5 C 0.28138 0.98437 0.06059 0.0
O6 O 0.24169 0.96258 0.06692 0.0
O7 O 0.36597 0.11438 0.08652 0.0
C8 C 0.40245 0.08309 0.992 0.0
O9 O 0.40184 0.11996 0.00373 0.0
C10 C 0.43796 0.06381 0.10417 0.0
O11 O 0.44344 0.09937 0.0839 0.0
O12 O 0.29905 0.01692 0.08357 0.0
C13 C 0.28757 0.4388 0.4327 0.0
O14 O 0.31117 0.41558 0.43271 0.0
O15 O 0.38312 0.47209 0.48592 0.0
Zn16 Zn 0.36718 0.50258 0.43661 0.0
O17 O 0.38846 0.56442 0.45072 0.0
C18 C 0.40757 0.45948 0.38129 0.0
O19 O 0.4026 0.43638 0.41682 0.0
O20 O 0.30481 0.47843 0.43273 0.0
C21 C 0.39866 0.5965 0.42586 0.0
O22 O 0.41381 0.63366 0.44428 0.0
C23 C 0.41221 0.4882 0.51344 0.0
O24 O 0.42819 0.52921 0.51665 0.0
O25 O 0.39415 0.48996 0.38114 0.0
C26 C 0.85048 0.34224 0.90977 0.0
O27 O 0.85045 0.38023 0.90279 0.0
O28 O 0.98135 0.41072 0.91912 0.0
Zn29 Zn 0.93591 0.37487 0.87947 0.0
O30 O 0.92149 0.41649 0.84298 0.0
C31 C 0.99077 0.35644 0.81658 0.0
O32 O 0.01814 0.3917 0.8311 0.0
O33 O 0.88446 0.33508 0.90725 0.0
C34 C 0.89897 0.4069 0.80873 0.0
O35 O 0.88107 0.36723 0.79813 0.0
C36 C 0.97336 0.44158 0.93519 0.0
O37 O 0.93408 0.43876 0.93716 0.0
O38 O 0.95537 0.34197 0.83522 0.0
C39 C 0.56721 0.88164 0.17422 0.0
O40 O 0.55299 0.91122 0.18598 0.0
O41 O 0.5839 0.98012 0.13358 0.0
Zn42 Zn 0.61897 0.94565 0.11558 0.0
O43 O 0.60665 0.93393 0.05095 0.0
C44 C 0.70755 0.00184 0.10636 0.0
O45 O 0.74595 0.01848 0.12104 0.0
O46 O 0.59716 0.89008 0.14677 0.0
C47 C 0.57024 0.90827 0.04249 0.0
O48 O 0.54621 0.889 0.0754 0.0
C49 C 0.57703 0.00442 0.10532 0.0
O50 O 0.59655 0.01 0.0673 0.0
O51 O 0.68048 0.97419 0.12929 0.0
C52 C 0.65283 0.45803 0.46528 0.0
O53 O 0.62406 0.43611 0.49315 0.0
O54 O 0.54923 0.43142 0.45926 0.0
Zn55 Zn 0.58424 0.42521 0.40851 0.0
O56 O 0.57398 0.36341 0.40018 0.0
C57 C 0.55924 0.48719 0.36786 0.0
O58 O 0.5634 0.50003 0.40897 0.0
O59 O 0.64401 0.45681 0.42455 0.0
C60 C 0.57262 0.33991 0.36718 0.0
O61 O 0.56396 0.29976 0.3744 0.0
C62 C 0.52164 0.40441 0.48216 0.0
O63 O 0.51298 0.36435 0.47438 0.0
O64 O 0.56733 0.45454 0.3578 0.0
C65 C 0.19616 0.70045 0.78872 0.0
O66 O 0.18575 0.68445 0.74922 0.0
O67 O 0.0808 0.62127 0.86125 0.0
Zn68 Zn 0.11112 0.65158 0.80752 0.0
O69 O 0.10932 0.6066 0.76453 0.0
C70 C 0.04111 0.67507 0.78017 0.0
O71 O 0.02203 0.65192 0.81378 0.0
O72 O 0.16936 0.68976 0.81961 0.0
C73 C 0.13315 0.58602 0.75696 0.0
O74 O 0.16762 0.5939 0.77989 0.0
C75 C 0.09579 0.59695 0.88119 0.0
O76 O 0.13322 0.59772 0.87008 0.0
O77 O 0.07995 0.68275 0.77517 0.0
C78 C 0.81906 0.5497 0.53089 0.0
O79 O 0.85143 0.55417 0.50536 0.0
O80 O 0.91912 0.54831 0.5653 0.0
Zn81 Zn 0.87894 0.56567 0.60238 0.0
O82 O 0.86749 0.52613 0.6537 0.0
C83 C 0.9427 0.64419 0.62482 0.0
O84 O 0.96273 0.63474 0.59183 0.0
O85 O 0.82463 0.55573 0.57203 0.0
C86 C 0.89828 0.53151 0.67931 0.0
O87 O 0.93363 0.56193 0.6709 0.0
C88 C 0.90742 0.50925 0.55721 0.0
O89 O 0.86946 0.48546 0.56877 0.0
O90 O 0.90419 0.62286 0.6298 0.0
C91 C 0.35619 0.83366 0.80989 0.0
O92 O 0.39176 0.82769 0.80397 0.0
O93 O 0.43554 0.9573 0.79811 0.0
Zn94 Zn 0.40387 0.91719 0.84492 0.0
O95 O 0.44473 0.89777 0.8777 0.0
C96 C 0.37038 0.92744 0.92709 0.0
O97 O 0.37846 0.89299 0.93382 0.0
O98 O 0.35595 0.86878 0.82338 0.0
C99 C 0.4793 0.92517 0.88901 0.0
O100 O 0.48792 0.96404 0.87596 0.0
C101 C 0.46326 0.94819 0.77679 0.0
O102 O 0.46257 0.90944 0.77828 0.0
O103 O 0.37914 0.94553 0.88981 0.0
C104 C 0.46082 0.30965 0.1338 0.0
O105 O 0.45066 0.33559 0.10822 0.0
O106 O 0.50586 0.41563 0.11714 0.0
Zn107 Zn 0.52547 0.38498 0.16364 0.0
O108 O 0.58841 0.40102 0.15874 0.0
C109 C 0.47672 0.41403 0.22255 0.0
O110 O 0.45599 0.41289 0.18595 0.0
O111 O 0.49279 0.32335 0.15843 0.0
C112 C 0.61457 0.4031 0.18924 0.0
O113 O 0.65468 0.41894 0.18038 0.0
C114 C 0.52701 0.45243 0.10447 0.0
O115 O 0.56671 0.46811 0.11507 0.0
O116 O 0.50888 0.40336 0.22187 0.0
C117 C 0.11778 0.38642 0.49173 0.0
O118 O 0.09011 0.40099 0.47523 0.0
O119 O 0.02666 0.39775 0.54622 0.0
Zn120 Zn 0.07397 0.38404 0.5745 0.0
O121 O 0.10391 0.43473 0.61152 0.0
C122 C 0.01752 0.32683 0.63492 0.0
O123 O 0.98856 0.33262 0.61012 0.0
O124 O 0.11505 0.37535 0.5319 0.0
C125 C 0.07928 0.44515 0.63646 0.0
O126 O 0.0393 0.42255 0.6362 0.0
C127 C 0.03475 0.43546 0.53377 0.0
O128 O 0.07391 0.46077 0.53315 0.0
O129 O 0.05477 0.33893 0.62053 0.0
C130 C 0.69289 0.20337 0.90488 0.0
O131 O 0.66816 0.19684 0.9394 0.0
O132 O 0.62823 0.08251 0.83363 0.0
Zn133 Zn 0.6402 0.12081 0.88588 0.0
O134 O 0.58534 0.12573 0.90293 0.0
C135 C 0.66245 0.06022 0.94113 0.0
O136 O 0.65435 0.03556 0.90647 0.0
O137 O 0.68486 0.1758 0.87476 0.0
C138 C 0.55777 0.08992 0.90989 0.0
O139 O 0.56778 0.05645 0.90394 0.0
C140 C 0.60704 0.09049 0.80281 0.0
O141 O 0.60312 0.12749 0.80224 0.0
O142 O 0.6587 0.09589 0.93835 0.0
C143 C 0.46387 0.7072 0.1951 0.0
O144 O 0.42343 0.69699 0.18931 0.0
O145 O 0.45789 0.59471 0.14577 0.0
Zn146 Zn 0.44461 0.61733 0.20247 0.0
O147 O 0.38231 0.60486 0.20748 0.0
C148 C 0.4984 0.5803 0.24167 0.0
O149 O 0.51841 0.59378 0.20457 0.0
O150 O 0.47888 0.6786 0.20197 0.0
C151 C 0.35759 0.59427 0.24038 0.0
O152 O 0.31734 0.58425 0.23341 0.0
C153 C 0.436 0.5591 0.13071 0.0
O154 O 0.39899 0.5398 0.14811 0.0
O155 O 0.4653 0.588 0.24992 0.0
C156 C 0.46086 0.1147 0.9387 0.0
C157 C 0.43836 0.08092 0.96598 0.0
C158 C 0.49914 0.11711 0.91983 0.0
C159 C 0.51619 0.08573 0.92747 0.0
H160 H 0.44945 0.14016 0.93295 0.0
H161 H 0.51577 0.14403 0.89968 0.0
S162 S 0.47093 0.99151 0.99768 0.0
N163 N 0.43679 0.01569 0.00022 0.0
N164 N 0.50825 0.02022 0.96458 0.0
C165 C 0.49368 0.05133 0.95384 0.0
C166 C 0.45484 0.04887 0.9731 0.0
C167 C 0.34845 0.56053 0.31443 0.0
C168 C 0.37242 0.59246 0.2859 0.0
C169 C 0.35825 0.56087 0.35933 0.0
C170 C 0.39231 0.59315 0.37749 0.0
H171 H 0.32111 0.5357 0.30222 0.0
H172 H 0.3377 0.53685 0.38021 0.0
S173 S 0.46517 0.68395 0.31686 0.0
N174 N 0.43143 0.65732 0.2793 0.0
N175 N 0.45097 0.65718 0.36306 0.0
C176 C 0.41725 0.62458 0.34905 0.0
C177 C 0.40707 0.62437 0.30343 0.0
C178 C 0.86727 0.46042 0.71285 0.0
C179 C 0.89605 0.50162 0.7152 0.0
C180 C 0.86771 0.43022 0.74392 0.0
C181 C 0.8966 0.44025 0.77879 0.0
H182 H 0.84521 0.45097 0.68588 0.0
H183 H 0.84572 0.3986 0.74005 0.0
S184 S 0.97644 0.54491 0.80157 0.0
N185 N 0.95259 0.5517 0.75654 0.0
N186 N 0.95343 0.49521 0.81508 0.0
C187 C 0.92447 0.4819 0.78253 0.0
C188 C 0.92421 0.5125 0.75067 0.0
C189 C 0.56748 0.94168 0.96994 0.0
C190 C 0.55156 0.9072 0.9984 0.0
C191 C 0.5452 0.94571 0.93262 0.0
C192 C 0.50603 0.91555 0.92253 0.0
H193 H 0.59591 0.96715 0.978 0.0
H194 H 0.55783 0.97379 0.91286 0.0
S195 S 0.45401 0.81589 0.98262 0.0
N196 N 0.49704 0.83964 0.01089 0.0
N197 N 0.45482 0.84733 0.94104 0.0
C198 C 0.49144 0.87919 0.94867 0.0
C199 C 0.51423 0.87507 0.98663 0.0
C200 C 0.60712 0.39807 0.31378 0.0
C201 C 0.58087 0.35649 0.32159 0.0
C202 C 0.61706 0.41338 0.27071 0.0
C203 C 0.60088 0.38771 0.23402 0.0
H204 H 0.62142 0.41848 0.34103 0.0
H205 H 0.63806 0.44534 0.26607 0.0
S206 S 0.53608 0.27516 0.23611 0.0
N207 N 0.54159 0.28908 0.28849 0.0
N208 N 0.56137 0.31795 0.20791 0.0
C209 C 0.57549 0.346 0.24119 0.0
C210 C 0.56531 0.33033 0.2849 0.0
C211 C 0.13311 0.4941 0.68566 0.0
C212 C 0.09433 0.48282 0.66427 0.0
C213 C 0.14585 0.52795 0.71518 0.0
C214 C 0.12043 0.55191 0.72377 0.0
H215 H 0.15311 0.47587 0.68064 0.0
H216 H 0.17551 0.53492 0.73183 0.0
S217 S 0.01791 0.53736 0.67139 0.0
N218 N 0.03204 0.4996 0.6507 0.0
N219 N 0.05574 0.56339 0.70534 0.0
C220 C 0.08222 0.54173 0.70089 0.0
C221 C 0.06923 0.50711 0.67137 0.0
C222 C 0.30037 0.97814 0.98237 0.0
C223 C 0.30506 0.97086 0.02722 0.0
C224 C 0.32263 0.9651 0.95008 0.0
C225 C 0.34918 0.9432 0.96169 0.0
H226 H 0.27963 -0.00571 0.97226 0.0
H227 H 0.31821 0.9713 0.9158 0.0
S228 S 0.3721 0.91711 0.07524 0.0
N229 N 0.33884 0.94199 0.08204 0.0
N230 N 0.37899 0.91527 0.0215 0.0
C231 C 0.35375 0.93556 0.00663 0.0
C232 C 0.3321 0.95 0.03942 0.0
C233 C 0.43971 0.45477 0.26222 0.0
C234 C 0.46171 0.42681 0.26383 0.0
C235 C 0.42306 0.46589 0.30045 0.0
C236 C 0.42726 0.44894 0.34164 0.0
H237 H 0.43539 0.46832 0.23112 0.0
H238 H 0.40629 0.48748 0.29752 0.0
S239 S 0.48162 0.37363 0.36322 0.0
N240 N 0.4869 0.38235 0.30967 0.0
N241 N 0.4554 0.40277 0.38166 0.0
C242 C 0.44952 0.4211 0.34369 0.0
C243 C 0.46687 0.4102 0.30477 0.0
C244 C 0.04472 0.34374 0.71154 0.0
C245 C 0.01097 0.32343 0.68329 0.0
C246 C 0.03811 0.3518 0.75565 0.0
C247 C -0.00237 0.33922 0.77352 0.0
H248 H 0.0763 0.35654 0.69881 0.0
H249 H 0.06479 0.37 0.77521 0.0
S250 S 0.89945 0.27804 0.71556 0.0
N251 N 0.93625 0.28612 0.67776 0.0
N252 N 0.92371 0.30019 0.76102 0.0
C253 C 0.964 0.31517 0.74684 0.0
C254 C 0.97072 0.30756 0.70165 0.0
C255 C 0.69221 0.99358 0.02608 0.0
C256 C 0.69605 0.01699 0.06488 0.0
C257 C 0.68186 0.00804 0.98605 0.0
C258 C 0.67488 0.04635 0.98359 0.0
H259 H 0.69714 0.96388 0.02672 0.0
H260 H 0.67893 0.98878 0.95697 0.0
S261 S 0.68216 0.11928 0.07703 0.0
N262 N 0.69339 0.08023 0.09902 0.0
N263 N 0.6733 0.10757 0.02432 0.0
C264 C 0.67939 0.07028 0.02249 0.0
C265 C 0.69023 0.05557 0.06302 0.0
C266 C 0.50412 0.55553 0.31799 0.0
C267 C 0.51406 0.55608 0.27299 0.0
C268 C 0.51909 0.53325 0.34832 0.0
C269 C 0.54388 0.51003 0.33469 0.0
H270 H 0.48491 0.57272 0.32997 0.0
H271 H 0.51064 0.53378 0.38269 0.0
S272 S 0.57811 0.50063 0.22044 0.0
N273 N 0.54998 0.53114 0.21612 0.0
N274 N 0.57752 0.48879 0.27323 0.0
C275 C 0.55362 0.50988 0.28975 0.0
C276 C 0.53892 0.53309 0.25889 0.0
C277 C 0.97236 0.66422 0.74435 0.0
C278 C 0.01624 0.68067 0.74212 0.0
C279 C 0.94804 0.65711 0.70607 0.0
C280 C 0.96672 0.6657 0.66401 0.0
H281 H 0.95666 0.65358 0.77547 0.0
H282 H 0.91467 0.64112 0.70948 0.0
S283 S 0.07942 0.72012 0.6411 0.0
N284 N 0.0767 0.71403 0.69511 0.0
N285 N 0.0309 0.69977 0.62318 0.0
C286 C 0.01004 0.68723 0.66179 0.0
C287 C 0.03485 0.69492 0.70085 0.0
C288 C 0.54615 0.05897 0.09018 0.0
C289 C 0.54347 0.02178 0.11188 0.0
C290 C 0.51257 0.07339 0.09023 0.0
C291 C 0.47454 0.05076 0.11127 0.0
H292 H 0.57407 0.07654 0.07191 0.0
H293 H 0.51599 0.10154 0.07169 0.0
S294 S 0.45214 0.95212 0.17439 0.0
N295 N 0.50055 0.96336 0.15667 0.0
N296 N 0.43697 0.99015 0.15619 0.0
C297 C 0.47191 0.0142 0.13443 0.0
C298 C 0.50649 -0.00019 0.1349 0.0
C299 C 0.50837 0.46144 0.52308 0.0
C300 C 0.49351 0.41954 0.50862 0.0
C301 C 0.48082 0.48264 0.53188 0.0
C302 C 0.43759 0.46261 0.52604 0.0
H303 H 0.54159 0.47925 0.52315 0.0
H304 H 0.49395 0.51603 0.53797 0.0
S305 S 0.3827 0.34961 0.50343 0.0
N306 N 0.4328 0.35612 0.49973 0.0
N307 N 0.38083 0.39587 0.51685 0.0
C308 C 0.42224 0.41892 0.51939 0.0
C309 C 0.45035 0.39733 0.51033 0.0
C310 C 0.07819 0.52503 0.91253 0.0
C311 C 0.06766 0.56112 0.90694 0.0
C312 C 0.04832 0.48699 0.92603 0.0
C313 C 0.0068 0.48361 0.93478 0.0
H314 H 0.10885 0.52515 0.90323 0.0
H315 H 0.05718 0.45944 0.92655 0.0
S316 S 0.96609 0.57146 0.93524 0.0
N317 N 0.01496 0.5929 0.91854 0.0
N318 N 0.95888 0.52171 0.94451 0.0
C319 C -0.00275 0.52066 0.93436 0.0
C320 C 0.02764 0.55933 0.92021 0.0
C321 C 0.9805 0.51501 0.53825 0.0
C322 C 0.93814 0.48996 0.54281 0.0
C323 C 0.01124 0.49705 0.53229 0.0
C324 C 0.00096 0.45327 0.53088 0.0
H325 H 0.9904 0.54875 0.54138 0.0
H326 H 0.04354 0.5178 0.5312 0.0
S327 S 0.89402 0.37386 0.53432 0.0
N328 N 0.88701 0.41909 0.54015 0.0
N329 N 0.94493 0.38548 0.5294 0.0
C330 C 0.95849 0.42794 0.53224 0.0
C331 C 0.92707 0.44624 0.53809 0.0
C332 C 0.5018 0.02339 0.76039 0.0
C333 C 0.5027 0.98285 0.76666 0.0
C334 C 0.53766 0.0588 0.76669 0.0
C335 C 0.57549 0.05485 0.78019 0.0
H336 H 0.47242 0.02789 0.75437 0.0
H337 H 0.5344 0.08926 0.76529 0.0
S338 S 0.59672 0.95578 0.79048 0.0
N339 N 0.54652 0.94081 0.77857 0.0
N340 N 0.61372 0.00746 0.79103 0.0
C341 C 0.57808 0.0146 0.78083 0.0
C342 C 0.54166 0.9785 0.77389 0.0
C343 C 0.45985 0.46477 0.09421 0.0
C344 C 0.50388 0.48065 0.0932 0.0
C345 C 0.43708 0.49127 0.10109 0.0
C346 C 0.45751 0.53461 0.10654 0.0
H347 H 0.4429 0.43131 0.0942 0.0
H348 H 0.4037 0.47712 0.10628 0.0
S349 S 0.57079 0.59293 0.08984 0.0
N350 N 0.56597 0.54313 0.08631 0.0
N351 N 0.52311 0.59316 0.09795 0.0
C352 C 0.50074 0.55141 0.0977 0.0
C353 C 0.524 0.52432 0.09128 0.0
C354 C 0.42012 0.24504 0.09302 0.0
C355 C 0.43577 0.26468 0.13312 0.0
C356 C 0.39885 0.20177 0.09097 0.0
C357 C 0.39219 0.17658 0.12907 0.0
H358 H 0.42563 0.26299 0.06273 0.0
H359 H 0.38879 0.18791 0.05895 0.0
S360 S 0.42053 0.21482 0.24336 0.0
N361 N 0.43858 0.25728 0.2125 0.0
N362 N 0.39882 0.17571 0.20894 0.0
C363 C 0.40552 0.19644 0.16984 0.0
C364 C 0.42733 0.24056 0.17179 0.0
C365 C 0.17431 0.42885 0.44155 0.0
C366 C 0.15743 0.39323 0.46832 0.0
C367 C 0.21608 0.44216 0.42795 0.0
C368 C 0.24209 0.41982 0.43989 0.0
H369 H 0.15615 0.44835 0.43371 0.0
H370 H 0.22858 0.47116 0.40959 0.0
S371 S 0.21067 0.32073 0.50373 0.0
N372 N 0.16822 0.33329 0.50219 0.0
N373 N 0.24656 0.35765 0.47574 0.0
C374 C 0.22449 0.3821 0.46334 0.0
C375 C 0.18216 0.36898 0.47783 0.0
C376 C 0.73703 0.27548 0.92908 0.0
C377 C 0.73271 0.23923 0.90436 0.0
C378 C 0.77532 0.30892 0.93089 0.0
C379 C 0.81073 0.30656 0.90916 0.0
H380 H 0.71062 0.27813 0.94698 0.0
H381 H 0.77736 0.33654 0.94979 0.0
S382 S 0.81583 0.21909 0.83918 0.0
N383 N 0.76706 0.20357 0.85678 0.0
N384 N 0.83893 0.26586 0.86098 0.0
C385 C 0.80681 0.27058 0.88425 0.0
C386 C 0.76779 0.23704 0.88162 0.0
C387 C 0.47499 0.78348 0.19871 0.0
C388 C 0.49173 0.75153 0.19347 0.0
C389 C 0.50023 0.8257 0.19484 0.0
C390 C 0.54304 0.8375 0.18491 0.0
H391 H 0.442 0.77588 0.20529 0.0
H392 H 0.4856 0.8491 0.19785 0.0
S393 S 0.60279 0.7661 0.17076 0.0
N394 N 0.55438 0.73468 0.18025 0.0
N395 N 0.60162 0.81408 0.17235 0.0
C396 C 0.56049 0.80597 0.181 0.0
C397 C 0.5349 0.76297 0.18546 0.0
C398 C 0.76958 0.51738 0.46928 0.0
C399 C 0.77603 0.53094 0.51341 0.0
C400 C 0.72947 0.49466 0.45354 0.0
C401 C 0.69446 0.48433 0.48147 0.0
H402 H 0.79577 0.52323 0.44696 0.0
H403 H 0.72609 0.48398 0.41965 0.0
S404 S 0.69344 0.51682 0.59809 0.0
N405 N 0.7431 0.53571 0.58357 0.0
N406 N 0.66808 0.49264 0.55402 0.0
C407 C 0.70014 0.49926 0.52502 0.0
C408 C 0.74081 0.52272 0.54096 0.0
C409 C 0.271 0.73645 0.76751 0.0
C410 C 0.23749 0.73302 0.79617 0.0
C411 C 0.3099 0.76851 0.77266 0.0
C412 C 0.31612 0.79869 0.80594 0.0
H413 H 0.26714 0.71429 0.74082 0.0
H414 H 0.33484 0.77033 0.74977 0.0
S415 S 0.23927 0.80277 0.89081 0.0
N416 N 0.21386 0.76175 0.86019 0.0
N417 N 0.28653 0.82222 0.86928 0.0
C418 C 0.28316 0.79523 0.83525 0.0
C419 C 0.24393 0.7623 0.83054 0.0
loop_
_geom_bond_atom_site_label_1
_geom_bond_atom_site_label_2
_geom_bond_distance
_geom_bond_site_symmetry_2
_ccdc_geom_bond_type
C0 O1 1.160 . S
C0 O7 1.185 . S
O1 C0 1.160 . S
O2 Zn3 1.899 . S
O2 C10 1.284 . S
Zn3 O2 1.899 . S
Zn3 O4 2.032 . S
Zn3 O7 2.086 . S
Zn3 O12 1.977 . S
O4 Zn3 2.032 . S
O4 C8 1.278 . S
C5 O6 1.193 1_545 S
C5 O12 1.267 . S
O6 C5 1.193 1_565 S
O7 C0 1.185 . S
O7 Zn3 2.086 . S
C8 O4 1.278 . S
C8 O9 1.211 1_554 S
O9 C8 1.211 1_556 S
C10 O2 1.284 . S
C10 O11 1.273 . S
O11 C10 1.273 . S
O12 Zn3 1.977 . S
O12 C5 1.267 . S
C13 O14 1.160 . S
C13 O20 1.185 . S
O14 C13 1.160 . S
O15 Zn16 1.899 . S
O15 C23 1.284 . S
Zn16 O15 1.899 . S
Zn16 O17 2.032 . S
Zn16 O20 2.086 . S
Zn16 O25 1.977 . S
O17 Zn16 2.032 . S
O17 C21 1.278 . S
C18 O19 1.203 . S
C18 O25 1.267 . S
O19 C18 1.203 . S
O20 C13 1.185 . S
O20 Zn16 2.086 . S
C21 O17 1.278 . S
C21 O22 1.211 . S
O22 C21 1.211 . S
C23 O15 1.284 . S
C23 O24 1.273 . S
O24 C23 1.273 . S
O25 Zn16 1.977 . S
O25 C18 1.267 . S
C26 O27 1.160 . S
C26 O33 1.185 . S
O27 C26 1.160 . S
O28 Zn29 1.899 . S
O28 C36 1.284 . S
Zn29 O28 1.899 . S
Zn29 O30 2.032 . S
Zn29 O33 2.086 . S
Zn29 O38 1.977 . S
O30 Zn29 2.032 . S
O30 C34 1.278 . S
C31 O32 1.203 . S
C31 O38 1.267 . S
O32 C31 1.203 . S
O33 C26 1.185 . S
O33 Zn29 2.086 . S
C34 O30 1.278 . S
C34 O35 1.211 . S
O35 C34 1.211 . S
C36 O28 1.284 . S
C36 O37 1.273 . S
O37 C36 1.273 . S
O38 Zn29 1.977 . S
O38 C31 1.267 . S
C39 O40 1.160 . S
C39 O46 1.185 . S
O40 C39 1.160 . S
O41 Zn42 1.899 . S
O41 C49 1.284 . S
Zn42 O41 1.899 . S
Zn42 O43 2.032 . S
Zn42 O46 2.086 . S
Zn42 O51 1.977 . S
O43 Zn42 2.032 . S
O43 C47 1.278 . S
C44 O45 1.193 1_565 S
C44 O51 1.267 . S
O45 C44 1.193 1_545 S
O46 C39 1.185 . S
O46 Zn42 2.086 . S
C47 O43 1.278 . S
C47 O48 1.211 1_554 S
O48 C47 1.211 1_556 S
C49 O41 1.284 . S
C49 O50 1.273 . S
O50 C49 1.273 . S
O51 Zn42 1.977 . S
O51 C44 1.267 . S
C52 O53 1.160 . S
C52 O59 1.185 . S
O53 C52 1.160 . S
O54 Zn55 1.899 . S
O54 C62 1.284 . S
Zn55 O54 1.899 . S
Zn55 O56 2.032 . S
Zn55 O59 2.086 . S
Zn55 O64 1.977 . S
O56 Zn55 2.032 . S
O56 C60 1.278 . S
C57 O58 1.203 . S
C57 O64 1.267 . S
O58 C57 1.203 . S
O59 C52 1.185 . S
O59 Zn55 2.086 . S
C60 O56 1.278 . S
C60 O61 1.211 . S
O61 C60 1.211 . S
C62 O54 1.284 . S
C62 O63 1.273 . S
O63 C62 1.273 . S
O64 Zn55 1.977 . S
O64 C57 1.267 . S
C65 O66 1.160 . S
C65 O72 1.185 . S
O66 C65 1.160 . S
O67 Zn68 1.899 . S
O67 C75 1.284 . S
Zn68 O67 1.899 . S
Zn68 O69 2.032 . S
Zn68 O72 2.086 . S
Zn68 O77 1.977 . S
O69 Zn68 2.032 . S
O69 C73 1.278 . S
C70 O71 1.203 . S
C70 O77 1.267 . S
O71 C70 1.203 . S
O72 C65 1.185 . S
O72 Zn68 2.086 . S
C73 O69 1.278 . S
C73 O74 1.211 . S
O74 C73 1.211 . S
C75 O67 1.284 . S
C75 O76 1.273 . S
O76 C75 1.273 . S
O77 Zn68 1.977 . S
O77 C70 1.267 . S
C78 O79 1.160 . S
C78 O85 1.185 . S
O79 C78 1.160 . S
O80 Zn81 1.899 . S
O80 C88 1.284 . S
Zn81 O80 1.899 . S
Zn81 O82 2.032 . S
Zn81 O85 2.086 . S
Zn81 O90 1.977 . S
O82 Zn81 2.032 . S
O82 C86 1.278 . S
C83 O84 1.210 . S
C83 O90 1.267 . S
O84 C83 1.210 . S
O85 C78 1.185 . S
O85 Zn81 2.086 . S
C86 O82 1.278 . S
C86 O87 1.211 . S
O87 C86 1.211 . S
C88 O80 1.284 . S
C88 O89 1.273 . S
O89 C88 1.273 . S
O90 Zn81 1.977 . S
O90 C83 1.267 . S
C91 O92 1.160 . S
C91 O98 1.185 . S
O92 C91 1.160 . S
O93 Zn94 1.899 . S
O93 C101 1.284 . S
Zn94 O93 1.899 . S
Zn94 O95 2.032 . S
Zn94 O98 2.086 . S
Zn94 O103 1.977 . S
O95 Zn94 2.032 . S
O95 C99 1.278 . S
C96 O97 1.203 . S
C96 O103 1.267 . S
O97 C96 1.203 . S
O98 C91 1.185 . S
O98 Zn94 2.086 . S
C99 O95 1.278 . S
C99 O100 1.211 . S
O100 C99 1.211 . S
C101 O93 1.284 . S
C101 O102 1.273 . S
O102 C101 1.273 . S
O103 Zn94 1.977 . S
O103 C96 1.267 . S
C104 O105 1.160 . S
C104 O111 1.185 . S
O105 C104 1.160 . S
O106 Zn107 1.899 . S
O106 C114 1.284 . S
Zn107 O106 1.899 . S
Zn107 O108 2.032 . S
Zn107 O111 2.086 . S
Zn107 O116 1.977 . S
O108 Zn107 2.032 . S
O108 C112 1.278 . S
C109 O110 1.203 . S
C109 O116 1.267 . S
O110 C109 1.203 . S
O111 C104 1.185 . S
O111 Zn107 2.086 . S
C112 O108 1.278 . S
C112 O113 1.211 . S
O113 C112 1.211 . S
C114 O106 1.284 . S
C114 O115 1.273 . S
O115 C114 1.273 . S
O116 Zn107 1.977 . S
O116 C109 1.267 . S
C117 O118 1.160 . S
C117 O124 1.185 . S
O118 C117 1.160 . S
O119 Zn120 1.899 . S
O119 C127 1.284 . S
Zn120 O119 1.899 . S
Zn120 O121 2.032 . S
Zn120 O124 2.086 . S
Zn120 O129 1.977 . S
O121 Zn120 2.032 . S
O121 C125 1.278 . S
C122 O123 1.210 . S
C122 O129 1.267 . S
O123 C122 1.210 . S
O124 C117 1.185 . S
O124 Zn120 2.086 . S
C125 O121 1.278 . S
C125 O126 1.211 . S
O126 C125 1.211 . S
C127 O119 1.284 . S
C127 O128 1.273 . S
O128 C127 1.273 . S
O129 Zn120 1.977 . S
O129 C122 1.267 . S
C130 O131 1.160 . S
C130 O137 1.185 . S
O131 C130 1.160 . S
O132 Zn133 1.899 . S
O132 C140 1.284 . S
Zn133 O132 1.899 . S
Zn133 O134 2.032 . S
Zn133 O137 2.086 . S
Zn133 O142 1.977 . S
O134 Zn133 2.032 . S
O134 C138 1.278 . S
C135 O136 1.203 . S
C135 O142 1.267 . S
O136 C135 1.203 . S
O137 C130 1.185 . S
O137 Zn133 2.086 . S
C138 O134 1.278 . S
C138 O139 1.211 . S
O139 C138 1.211 . S
C140 O132 1.284 . S
C140 O141 1.273 . S
O141 C140 1.273 . S
O142 Zn133 1.977 . S
O142 C135 1.267 . S
C143 O144 1.160 . S
C143 O150 1.185 . S
O144 C143 1.160 . S
O145 Zn146 1.899 . S
O145 C153 1.284 . S
Zn146 O145 1.899 . S
Zn146 O147 2.032 . S
Zn146 O150 2.086 . S
Zn146 O155 1.977 . S
O147 Zn146 2.032 . S
O147 C151 1.278 . S
C148 O149 1.203 . S
C148 O155 1.267 . S
O149 C148 1.203 . S
O150 C143 1.185 . S
O150 Zn146 2.086 . S
C151 O147 1.278 . S
C151 O152 1.211 . S
O152 C151 1.211 . S
C153 O145 1.284 . S
C153 O154 1.273 . S
O154 C153 1.273 . S
O155 Zn146 1.977 . S
O155 C148 1.267 . S
C156 C157 1.369 . S
C156 C158 1.419 . S
C156 H160 0.930 . S
C157 C156 1.369 . S
C157 C166 1.429 . S
C158 C156 1.419 . S
C158 C159 1.363 . S
C158 H161 0.929 . S
C159 C158 1.363 . S
C159 C165 1.428 . S
H160 C156 0.930 . S
H161 C158 0.929 . S
S162 N163 1.613 . S
S162 N164 1.610 . S
N163 S162 1.613 . S
N163 C166 1.350 . S
N164 S162 1.610 . S
N164 C165 1.351 . S
C165 C159 1.428 . S
C165 N164 1.351 . S
C165 C166 1.434 . S
C166 C157 1.429 . S
C166 N163 1.350 . S
C166 C165 1.434 . S
C167 C168 1.369 . S
C167 C169 1.419 . S
C167 H171 0.930 . S
C168 C167 1.369 . S
C168 C177 1.429 . S
C169 C167 1.419 . S
C169 C170 1.363 . S
C169 H172 0.929 . S
C170 C169 1.363 . S
C170 C176 1.428 . S
H171 C167 0.930 . S
H172 C169 0.929 . S
S173 N174 1.613 . S
S173 N175 1.610 . S
N174 S173 1.613 . S
N174 C177 1.350 . S
N175 S173 1.610 . S
N175 C176 1.351 . S
C176 C170 1.428 . S
C176 N175 1.351 . S
C176 C177 1.434 . S
C177 C168 1.429 . S
C177 N174 1.350 . S
C177 C176 1.434 . S
C178 C179 1.369 . S
C178 C180 1.419 . S
C178 H182 0.930 . S
C179 C178 1.369 . S
C179 C188 1.429 . S
C180 C178 1.419 . S
C180 C181 1.363 . S
C180 H183 0.929 . S
C181 C180 1.363 . S
C181 C187 1.428 . S
H182 C178 0.930 . S
H183 C180 0.929 . S
S184 N185 1.613 . S
S184 N186 1.610 . S
N185 S184 1.613 . S
N185 C188 1.350 . S
N186 S184 1.610 . S
N186 C187 1.351 . S
C187 C181 1.428 . S
C187 N186 1.351 . S
C187 C188 1.434 . S
C188 C179 1.429 . S
C188 N185 1.350 . S
C188 C187 1.434 . S
C189 C190 1.369 . S
C189 C191 1.419 . S
C189 H193 0.930 . S
C190 C189 1.369 . S
C190 C199 1.429 . S
C191 C189 1.419 . S
C191 C192 1.363 . S
C191 H194 0.929 . S
C192 C191 1.363 . S
C192 C198 1.428 . S
H193 C189 0.930 . S
H194 C191 0.929 . S
S195 N196 1.613 . S
S195 N197 1.610 1_554 S
N196 S195 1.613 . S
N196 C199 1.350 1_554 S
N197 S195 1.610 1_556 S
N197 C198 1.351 . S
C198 C192 1.428 . S
C198 N197 1.351 . S
C198 C199 1.434 . S
C199 C190 1.429 . S
C199 N196 1.350 1_556 S
C199 C198 1.434 . S
C200 C201 1.369 . S
C200 C202 1.419 . S
C200 H204 0.930 . S
C201 C200 1.369 . S
C201 C210 1.429 . S
C202 C200 1.419 . S
C202 C203 1.363 . S
C202 H205 0.929 . S
C203 C202 1.363 . S
C203 C209 1.428 . S
H204 C200 0.930 . S
H205 C202 0.929 . S
S206 N207 1.613 . S
S206 N208 1.610 . S
N207 S206 1.613 . S
N207 C210 1.350 . S
N208 S206 1.610 . S
N208 C209 1.351 . S
C209 C203 1.428 . S
C209 N208 1.351 . S
C209 C210 1.434 . S
C210 C201 1.429 . S
C210 N207 1.350 . S
C210 C209 1.434 . S
C211 C212 1.369 . S
C211 C213 1.419 . S
C211 H215 0.930 . S
C212 C211 1.369 . S
C212 C221 1.429 . S
C213 C211 1.419 . S
C213 C214 1.363 . S
C213 H216 0.929 . S
C214 C213 1.363 . S
C214 C220 1.428 . S
H215 C211 0.930 . S
H216 C213 0.929 . S
S217 N218 1.613 . S
S217 N219 1.610 . S
N218 S217 1.613 . S
N218 C221 1.350 . S
N219 S217 1.610 . S
N219 C220 1.351 . S
C220 C214 1.428 . S
C220 N219 1.351 . S
C220 C221 1.434 . S
C221 C212 1.429 . S
C221 N218 1.350 . S
C221 C220 1.434 . S
C222 C223 1.369 1_566 S
C222 C224 1.419 . S
C222 H226 0.930 . S
C223 C222 1.369 1_544 S
C223 C232 1.429 . S
C224 C222 1.419 . S
C224 C225 1.363 . S
C224 H227 0.929 . S
C225 C224 1.363 . S
C225 C231 1.428 . S
H226 C222 0.930 . S
H227 C224 0.929 . S
S228 N229 1.613 . S
S228 N230 1.610 1_544 S
N229 S228 1.613 . S
N229 C232 1.350 . S
N230 S228 1.610 1_566 S
N230 C231 1.351 . S
C231 C225 1.428 . S
C231 N230 1.351 . S
C231 C232 1.434 1_566 S
C232 C223 1.429 . S
C232 N229 1.350 . S
C232 C231 1.434 1_544 S
C233 C234 1.369 . S
C233 C235 1.419 . S
C233 H237 0.930 . S
C234 C233 1.369 . S
C234 C243 1.429 . S
C235 C233 1.419 . S
C235 C236 1.363 . S
C235 H238 0.929 . S
C236 C235 1.363 . S
C236 C242 1.428 . S
H237 C233 0.930 . S
H238 C235 0.929 . S
S239 N240 1.613 . S
S239 N241 1.610 . S
N240 S239 1.613 . S
N240 C243 1.350 . S
N241 S239 1.610 . S
N241 C242 1.351 . S
C242 C236 1.428 . S
C242 N241 1.351 . S
C242 C243 1.434 . S
C243 C234 1.429 . S
C243 N240 1.350 . S
C243 C242 1.434 . S
C244 C245 1.369 . S
C244 C246 1.419 . S
C244 H248 0.930 . S
C245 C244 1.369 . S
C245 C254 1.429 1_455 S
C246 C244 1.419 . S
C246 C247 1.363 1_455 S
C246 H249 0.929 . S
C247 C246 1.363 1_655 S
C247 C253 1.428 . S
H248 C244 0.930 . S
H249 C246 0.929 . S
S250 N251 1.613 . S
S250 N252 1.610 . S
N251 S250 1.613 . S
N251 C254 1.350 . S
N252 S250 1.610 . S
N252 C253 1.351 . S
C253 C247 1.428 . S
C253 N252 1.351 . S
C253 C254 1.434 . S
C254 C245 1.429 1_655 S
C254 N251 1.350 . S
C254 C253 1.434 . S
C255 C256 1.369 1_556 S
C255 C257 1.419 . S
C255 H259 0.930 1_556 S
C256 C255 1.369 1_554 S
C256 C265 1.429 1_564 S
C257 C255 1.419 . S
C257 C258 1.363 1_565 S
C257 H260 0.929 . S
C258 C257 1.363 1_545 S
C258 C264 1.428 . S
H259 C255 0.930 1_554 S
H260 C257 0.929 . S
S261 N262 1.613 . S
S261 N263 1.610 . S
N262 S261 1.613 . S
N262 C265 1.350 . S
N263 S261 1.610 . S
N263 C264 1.351 . S
C264 C258 1.428 . S
C264 N263 1.351 . S
C264 C265 1.434 . S
C265 C256 1.429 1_546 S
C265 N262 1.350 . S
C265 C264 1.434 . S
C266 C267 1.369 . S
C266 C268 1.419 . S
C266 H270 0.930 . S
C267 C266 1.369 . S
C267 C276 1.429 . S
C268 C266 1.419 . S
C268 C269 1.363 . S
C268 H271 0.929 . S
C269 C268 1.363 . S
C269 C275 1.428 . S
H270 C266 0.930 . S
H271 C268 0.929 . S
S272 N273 1.613 . S
S272 N274 1.610 . S
N273 S272 1.613 . S
N273 C276 1.350 . S
N274 S272 1.610 . S
N274 C275 1.351 . S
C275 C269 1.428 . S
C275 N274 1.351 . S
C275 C276 1.434 . S
C276 C267 1.429 . S
C276 N273 1.350 . S
C276 C275 1.434 . S
C277 C278 1.369 1_655 S
C277 C279 1.419 . S
C277 H281 0.930 . S
C278 C277 1.369 1_455 S
C278 C287 1.429 . S
C279 C277 1.419 . S
C279 C280 1.363 . S
C279 H282 0.929 . S
C280 C279 1.363 . S
C280 C286 1.428 1_655 S
H281 C277 0.930 . S
H282 C279 0.929 . S
S283 N284 1.613 . S
S283 N285 1.610 . S
N284 S283 1.613 . S
N284 C287 1.350 . S
N285 S283 1.610 . S
N285 C286 1.351 . S
C286 C280 1.428 1_455 S
C286 N285 1.351 . S
C286 C287 1.434 . S
C287 C278 1.429 . S
C287 N284 1.350 . S
C287 C286 1.434 . S
C288 C289 1.369 1_545 S
C288 C290 1.419 . S
C288 H292 0.930 . S
C289 C288 1.369 1_565 S
C289 C298 1.429 . S
C290 C288 1.419 . S
C290 C291 1.363 . S
C290 H293 0.929 . S
C291 C290 1.363 . S
C291 C297 1.428 1_545 S
H292 C288 0.930 . S
H293 C290 0.929 . S
S294 N295 1.613 . S
S294 N296 1.610 . S
N295 S294 1.613 . S
N295 C298 1.350 . S
N296 S294 1.610 . S
N296 C297 1.351 . S
C297 C291 1.428 1_565 S
C297 N296 1.351 . S
C297 C298 1.434 . S
C298 C289 1.429 . S
C298 N295 1.350 . S
C298 C297 1.434 . S
C299 C300 1.369 . S
C299 C301 1.419 . S
C299 H303 0.930 . S
C300 C299 1.369 . S
C300 C309 1.429 . S
C301 C299 1.419 . S
C301 C302 1.363 . S
C301 H304 0.929 . S
C302 C301 1.363 . S
C302 C308 1.428 . S
H303 C299 0.930 . S
H304 C301 0.929 . S
S305 N306 1.613 . S
S305 N307 1.610 . S
N306 S305 1.613 . S
N306 C309 1.350 . S
N307 S305 1.610 . S
N307 C308 1.351 . S
C308 C302 1.428 . S
C308 N307 1.351 . S
C308 C309 1.434 . S
C309 C300 1.429 . S
C309 N306 1.350 . S
C309 C308 1.434 . S
C310 C311 1.369 . S
C310 C312 1.419 1_455 S
C310 H314 0.930 . S
C311 C310 1.369 . S
C311 C320 1.429 . S
C312 C310 1.419 1_655 S
C312 C313 1.363 . S
C312 H315 0.929 . S
C313 C312 1.363 . S
C313 C319 1.428 . S
H314 C310 0.930 . S
H315 C312 0.929 . S
S316 N317 1.613 1_655 S
S316 N318 1.610 . S
N317 S316 1.613 1_455 S
N317 C320 1.350 . S
N318 S316 1.610 . S
N318 C319 1.351 . S
C319 C313 1.428 . S
C319 N318 1.351 . S
C319 C320 1.434 1_655 S
C320 C311 1.429 . S
C320 N317 1.350 . S
C320 C319 1.434 1_455 S
C321 C322 1.369 . S
C321 C323 1.419 1_655 S
C321 H325 0.930 . S
C322 C321 1.369 . S
C322 C331 1.429 . S
C323 C321 1.419 1_455 S
C323 C324 1.363 . S
C323 H326 0.929 . S
C324 C323 1.363 . S
C324 C330 1.428 . S
H325 C321 0.930 . S
H326 C323 0.929 . S
S327 N328 1.613 . S
S327 N329 1.610 1_655 S
N328 S327 1.613 . S
N328 C331 1.350 . S
N329 S327 1.610 1_455 S
N329 C330 1.351 . S
C330 C324 1.428 . S
C330 N329 1.351 . S
C330 C331 1.434 1_455 S
C331 C322 1.429 . S
C331 N328 1.350 . S
C331 C330 1.434 1_655 S
C332 C333 1.369 . S
C332 C334 1.419 1_565 S
C332 H336 0.930 . S
C333 C332 1.369 . S
C333 C342 1.429 . S
C334 C332 1.419 1_545 S
C334 C335 1.363 . S
C334 H337 0.929 . S
C335 C334 1.363 . S
C335 C341 1.428 . S
H336 C332 0.930 . S
H337 C334 0.929 . S
S338 N339 1.613 . S
S338 N340 1.610 1_565 S
N339 S338 1.613 . S
N339 C342 1.350 . S
N340 S338 1.610 1_545 S
N340 C341 1.351 . S
C341 C335 1.428 . S
C341 N340 1.351 . S
C341 C342 1.434 1_545 S
C342 C333 1.429 . S
C342 N339 1.350 . S
C342 C341 1.434 1_565 S
C343 C344 1.369 . S
C343 C345 1.419 . S
C343 H347 0.930 . S
C344 C343 1.369 . S
C344 C353 1.429 . S
C345 C343 1.419 . S
C345 C346 1.363 . S
C345 H348 0.929 . S
C346 C345 1.363 . S
C346 C352 1.428 . S
H347 C343 0.930 . S
H348 C345 0.929 . S
S349 N350 1.613 . S
S349 N351 1.610 . S
N350 S349 1.613 . S
N350 C353 1.350 . S
N351 S349 1.610 . S
N351 C352 1.351 . S
C352 C346 1.428 . S
C352 N351 1.351 . S
C352 C353 1.434 . S
C353 C344 1.429 . S
C353 N350 1.350 . S
C353 C352 1.434 . S
C354 C355 1.369 . S
C354 C356 1.419 . S
C354 H358 0.930 . S
C355 C354 1.369 . S
C355 C364 1.429 . S
C356 C354 1.419 . S
C356 C357 1.363 . S
C356 H359 0.929 . S
C357 C356 1.363 . S
C357 C363 1.428 . S
H358 C354 0.930 . S
H359 C356 0.929 . S
S360 N361 1.613 . S
S360 N362 1.610 . S
N361 S360 1.613 . S
N361 C364 1.350 . S
N362 S360 1.610 . S
N362 C363 1.351 . S
C363 C357 1.428 . S
C363 N362 1.351 . S
C363 C364 1.434 . S
C364 C355 1.429 . S
C364 N361 1.350 . S
C364 C363 1.434 . S
C365 C366 1.369 . S
C365 C367 1.419 . S
C365 H369 0.930 . S
C366 C365 1.369 . S
C366 C375 1.429 . S
C367 C365 1.419 . S
C367 C368 1.363 . S
C367 H370 0.929 . S
C368 C367 1.363 . S
C368 C374 1.428 . S
H369 C365 0.930 . S
H370 C367 0.929 . S
S371 N372 1.613 . S
S371 N373 1.610 . S
N372 S371 1.613 . S
N372 C375 1.350 . S
N373 S371 1.610 . S
N373 C374 1.351 . S
C374 C368 1.428 . S
C374 N373 1.351 . S
C374 C375 1.434 . S
C375 C366 1.429 . S
C375 N372 1.350 . S
C375 C374 1.434 . S
C376 C377 1.369 . S
C376 C378 1.419 . S
C376 H380 0.930 . S
C377 C376 1.369 . S
C377 C386 1.429 . S
C378 C376 1.419 . S
C378 C379 1.363 . S
C378 H381 0.929 . S
C379 C378 1.363 . S
C379 C385 1.428 . S
H380 C376 0.930 . S
H381 C378 0.929 . S
S382 N383 1.613 . S
S382 N384 1.610 . S
N383 S382 1.613 . S
N383 C386 1.350 . S
N384 S382 1.610 . S
N384 C385 1.351 . S
C385 C379 1.428 . S
C385 N384 1.351 . S
C385 C386 1.434 . S
C386 C377 1.429 . S
C386 N383 1.350 . S
C386 C385 1.434 . S
C387 C388 1.369 . S
C387 C389 1.419 . S
C387 H391 0.930 . S
C388 C387 1.369 . S
C388 C397 1.429 . S
C389 C387 1.419 . S
C389 C390 1.363 . S
C389 H392 0.929 . S
C390 C389 1.363 . S
C390 C396 1.428 . S
H391 C387 0.930 . S
H392 C389 0.929 . S
S393 N394 1.613 . S
S393 N395 1.610 . S
N394 S393 1.613 . S
N394 C397 1.350 . S
N395 S393 1.610 . S
N395 C396 1.351 . S
C396 C390 1.428 . S
C396 N395 1.351 . S
C396 C397 1.434 . S
C397 C388 1.429 . S
C397 N394 1.350 . S
C397 C396 1.434 . S
C398 C399 1.369 . S
C398 C400 1.419 . S
C398 H402 0.930 . S
C399 C398 1.369 . S
C399 C408 1.429 . S
C400 C398 1.419 . S
C400 C401 1.363 . S
C400 H403 0.929 . S
C401 C400 1.363 . S
C401 C407 1.428 . S
H402 C398 0.930 . S
H403 C400 0.929 . S
S404 N405 1.613 . S
S404 N406 1.610 . S
N405 S404 1.613 . S
N405 C408 1.350 . S
N406 S404 1.610 . S
N406 C407 1.351 . S
C407 C401 1.428 . S
C407 N406 1.351 . S
C407 C408 1.434 . S
C408 C399 1.429 . S
C408 N405 1.350 . S
C408 C407 1.434 . S
C409 C410 1.369 . S
C409 C411 1.419 . S
C409 H413 0.930 . S
C410 C409 1.369 . S
C410 C419 1.429 . S
C411 C409 1.419 . S
C411 C412 1.363 . S
C411 H414 0.929 . S
C412 C411 1.363 . S
C412 C418 1.428 . S
H413 C409 0.930 . S
H414 C411 0.929 . S
S415 N416 1.613 . S
S415 N417 1.610 . S
N416 S415 1.613 . S
N416 C419 1.350 . S
N417 S415 1.610 . S
N417 C418 1.351 . S
C418 C412 1.428 . S
C418 N417 1.351 . S
C418 C419 1.434 . S
C419 C410 1.429 . S
C419 N416 1.350 . S
C419 C418 1.434 . S
C157 C8 0.770 1_556 S
C159 C138 0.751 . S
C168 C151 1.123 . S
C170 C21 1.134 . S
C179 C86 0.764 . S
C181 C34 0.761 . S
C190 C47 0.779 1_556 S
C192 C99 0.757 . S
C201 C60 1.136 . S
C203 C112 1.139 . S
C212 C125 0.779 . S
C214 C73 0.758 . S
C223 C5 1.033 . S
C225 C96 1.489 . S
C234 C109 1.075 . S
C236 C18 1.071 . S
C245 C122 1.048 . S
C247 C31 1.463 . S
C256 C44 1.054 . S
C258 C135 1.491 . S
C267 C148 1.063 . S
C269 C57 1.067 . S
C278 C70 1.463 . S
C280 C83 1.046 . S
C289 C49 0.974 . S
C291 C10 0.981 . S
C300 C62 1.511 . S
C302 C23 1.502 . S
C311 C75 0.896 . S
C313 C36 0.891 . S
C322 C88 0.990 . S
C324 C127 0.990 . S
C333 C101 0.895 . S
C335 C140 0.897 . S
C344 C114 1.502 . S
C346 C153 1.495 . S
C355 C104 1.717 . S
C357 C0 1.578 . S
C366 C117 1.584 . S
C368 C13 1.705 . S
C377 C130 1.667 . S
C379 C26 1.672 . S
C388 C143 1.711 . S
C390 C39 1.584 . S
C399 C78 1.571 . S
C401 C52 1.711 . S
C410 C65 1.668 . S
C412 C91 1.671 . S
