# Generated by pormake.
# Topology wkf, (6)-cn, num edge types: 1
# Building blocks:
#     Node 0, Type 0, BuildingBlock: KUMJIN_clean_sbu_1, # of connection points: 6
#     Node 1, Type 0, BuildingBlock: KUMJIN_clean_sbu_1, # of connection points: 6
#     Node 2, Type 0, BuildingBlock: KUMJIN_clean_sbu_1, # of connection points: 6
#     Node 3, Type 0, BuildingBlock: KUMJIN_clean_sbu_1, # of connection points: 6
#     Node 4, Type 0, BuildingBlock: KUMJIN_clean_sbu_1, # of connection points: 6
#     Node 5, Type 0, BuildingBlock: KUMJIN_clean_sbu_1, # of connection points: 6
#     Node 6, Type 0, BuildingBlock: KUMJIN_clean_sbu_1, # of connection points: 6
#     Node 7, Type 0, BuildingBlock: KUMJIN_clean_sbu_1, # of connection points: 6
#     Node 8, Type 0, BuildingBlock: KUMJIN_clean_sbu_1, # of connection points: 6
#     Node 9, Type 0, BuildingBlock: KUMJIN_clean_sbu_1, # of connection points: 6
#     Node 10, Type 0, BuildingBlock: KUMJIN_clean_sbu_1, # of connection points: 6
#     Node 11, Type 0, BuildingBlock: KUMJIN_clean_sbu_1, # of connection points: 6
#     Edge 12, Type (0, 0), BuildingBlock: OJICUG_clean_linker_0, # of connection points: 2
#     Edge 13, Type (0, 0), BuildingBlock: OJICUG_clean_linker_0, # of connection points: 2
#     Edge 14, Type (0, 0), BuildingBlock: OJICUG_clean_linker_0, # of connection points: 2
#     Edge 15, Type (0, 0), BuildingBlock: OJICUG_clean_linker_0, # of connection points: 2
#     Edge 16, Type (0, 0), BuildingBlock: OJICUG_clean_linker_0, # of connection points: 2
#     Edge 17, Type (0, 0), BuildingBlock: OJICUG_clean_linker_0, # of connection points: 2
#     Edge 18, Type (0, 0), BuildingBlock: OJICUG_clean_linker_0, # of connection points: 2
#     Edge 19, Type (0, 0), BuildingBlock: OJICUG_clean_linker_0, # of connection points: 2
#     Edge 20, Type (0, 0), BuildingBlock: OJICUG_clean_linker_0, # of connection points: 2
#     Edge 21, Type (0, 0), BuildingBlock: OJICUG_clean_linker_0, # of connection points: 2
#     Edge 22, Type (0, 0), BuildingBlock: OJICUG_clean_linker_0, # of connection points: 2
#     Edge 23, Type (0, 0), BuildingBlock: OJICUG_clean_linker_0, # of connection points: 2
#     Edge 24, Type (0, 0), BuildingBlock: OJICUG_clean_linker_0, # of connection points: 2
#     Edge 25, Type (0, 0), BuildingBlock: OJICUG_clean_linker_0, # of connection points: 2
#     Edge 26, Type (0, 0), BuildingBlock: OJICUG_clean_linker_0, # of connection points: 2
#     Edge 27, Type (0, 0), BuildingBlock: OJICUG_clean_linker_0, # of connection points: 2
#     Edge 28, Type (0, 0), BuildingBlock: OJICUG_clean_linker_0, # of connection points: 2
#     Edge 29, Type (0, 0), BuildingBlock: OJICUG_clean_linker_0, # of connection points: 2
#     Edge 30, Type (0, 0), BuildingBlock: OJICUG_clean_linker_0, # of connection points: 2
#     Edge 31, Type (0, 0), BuildingBlock: OJICUG_clean_linker_0, # of connection points: 2
#     Edge 32, Type (0, 0), BuildingBlock: OJICUG_clean_linker_0, # of connection points: 2
#     Edge 33, Type (0, 0), BuildingBlock: OJICUG_clean_linker_0, # of connection points: 2
#     Edge 34, Type (0, 0), BuildingBlock: OJICUG_clean_linker_0, # of connection points: 2
#     Edge 35, Type (0, 0), BuildingBlock: OJICUG_clean_linker_0, # of connection points: 2
#     Edge 36, Type (0, 0), BuildingBlock: OJICUG_clean_linker_0, # of connection points: 2
#     Edge 37, Type (0, 0), BuildingBlock: OJICUG_clean_linker_0, # of connection points: 2
#     Edge 38, Type (0, 0), BuildingBlock: OJICUG_clean_linker_0, # of connection points: 2
#     Edge 39, Type (0, 0), BuildingBlock: OJICUG_clean_linker_0, # of connection points: 2
#     Edge 40, Type (0, 0), BuildingBlock: OJICUG_clean_linker_0, # of connection points: 2
#     Edge 41, Type (0, 0), BuildingBlock: OJICUG_clean_linker_0, # of connection points: 2
#     Edge 42, Type (0, 0), BuildingBlock: OJICUG_clean_linker_0, # of connection points: 2
#     Edge 43, Type (0, 0), BuildingBlock: OJICUG_clean_linker_0, # of connection points: 2
#     Edge 44, Type (0, 0), BuildingBlock: OJICUG_clean_linker_0, # of connection points: 2
#     Edge 45, Type (0, 0), BuildingBlock: OJICUG_clean_linker_0, # of connection points: 2
#     Edge 46, Type (0, 0), BuildingBlock: OJICUG_clean_linker_0, # of connection points: 2
#     Edge 47, Type (0, 0), BuildingBlock: OJICUG_clean_linker_0, # of connection points: 2
# Relax obj value: 0.331
# Max RMSD: 0.291
# Mean RMSD: 0.280
data_MOF--net-wkf--node1-KUMJIN_clean_sbu_1--edge1-OJICUG_clean_linker_0
_symmetry_space_group_name_H-M    P1
_symmetry_Int_Tables_number       1
_symmetry_cell_setting            triclinic
loop_
_symmetry_equiv_pos_as_xyz
'x, y, z'
_cell_length_a     22.661877
_cell_length_b     22.646248
_cell_length_c     69.317249
_cell_angle_alpha  89.866611
_cell_angle_beta   90.038715
_cell_angle_gamma 119.25627
loop_
_atom_site_label
_atom_site_type_symbol
_atom_site_fract_x
_atom_site_fract_y
_atom_site_fract_z
_atom_type_partial_charge
Eu0 Eu 0.43119 0.91862 0.35702 0.0
C1 C 0.72439 0.98972 0.35521 0.0
N2 N 0.70028 0.97593 0.37349 0.0
C3 C 0.79336 0.9596 0.38296 0.0
C4 C 0.78571 0.99153 0.35023 0.0
C5 C 0.73228 0.95805 0.38715 0.0
C6 C 0.82093 0.97777 0.36451 0.0
C7 C 0.70538 1.00425 0.32163 0.0
C8 C 0.6846 0.99579 0.34116 0.0
C9 C 0.76835 1.01058 0.31677 0.0
C10 C 0.80843 1.00409 0.33106 0.0
Eu11 Eu 0.60079 0.98209 0.38041 0.0
N12 N 0.62281 0.9867 0.3463 0.0
C13 C 0.66086 1.00257 0.30744 0.0
C14 C 0.5774 0.97869 0.33219 0.0
C15 C 0.59591 0.98805 0.31272 0.0
H16 H 0.71111 0.94258 0.40139 0.0
H17 H 0.55949 0.98262 0.30178 0.0
H18 H 0.44689 0.99546 0.31364 0.0
H19 H 0.23516 0.86572 0.41143 0.0
H20 H 0.5259 0.96252 0.33561 0.0
H21 H 0.67493 1.00894 0.29233 0.0
H22 H 0.31354 0.84173 0.39273 0.0
H23 H 0.81896 0.94649 0.39395 0.0
H24 H 0.78522 1.01768 0.3019 0.0
H25 H 0.8557 1.00638 0.32702 0.0
H26 H 0.4107 0.07168 0.29866 0.0
H27 H 0.86815 0.97876 0.36125 0.0
H28 H 0.22039 0.96364 0.40281 0.0
N29 N 0.40553 0.99609 0.3412 0.0
C30 C 0.36582 1.01433 0.35155 0.0
C31 C 0.39871 0.05674 0.31361 0.0
C32 C 0.34629 0.05974 0.34368 0.0
C33 C 0.41872 1.01334 0.32209 0.0
C34 C 0.36443 0.08184 0.32464 0.0
N35 N 0.34618 0.92792 0.37444 0.0
C36 C 0.30788 0.88488 0.38891 0.0
C37 C 0.29036 0.9942 0.37878 0.0
C38 C 0.33625 0.98008 0.36875 0.0
C39 C 0.25568 0.95401 0.3947 0.0
C40 C 0.26351 0.89838 0.39955 0.0
H41 H 0.34894 0.11525 0.31795 0.0
H42 H 0.29039 0.11315 0.34876 0.0
H43 H 0.24301 0.05727 0.37967 0.0
O44 O 0.32836 0.83753 0.35094 0.0
O45 O 0.44099 0.96382 0.38803 0.0
O46 O 0.55226 1.04302 0.38947 0.0
O47 O 0.39839 0.8775 0.32742 0.0
O48 O 0.41727 0.84196 0.38043 0.0
O49 O 0.51288 0.90091 0.39905 0.0
O50 O 0.68975 0.06011 0.39557 0.0
O51 O 0.57016 0.87367 0.37184 0.0
O52 O 0.48627 0.85164 0.34948 0.0
O53 O 0.62002 0.96748 0.41023 0.0
O54 O 0.60683 0.08009 0.36651 0.0
O55 O 0.50469 1.0385 0.35044 0.0
C56 C 0.49077 1.01963 0.3956 0.0
C57 C 0.27962 0.8369 0.32028 0.0
C58 C 0.19527 0.7942 0.29356 0.0
C59 C 0.17171 0.83785 0.30002 0.0
C60 C 0.24978 0.87489 0.3267 0.0
C61 C 0.19818 0.877 0.31645 0.0
C62 C 0.25138 0.79549 0.30355 0.0
C63 C 0.45033 0.8502 0.39673 0.0
C64 C 0.33541 0.83709 0.33229 0.0
C65 C 0.30469 0.07734 0.35441 0.0
C66 C 0.27738 1.04518 0.372 0.0
C67 C 0.53141 0.836 0.35763 0.0
C68 C 0.6576 0.06815 0.42789 0.0
C69 C 0.68518 0.17581 0.44288 0.0
C70 C 0.63817 0.14167 0.45757 0.0
C71 C 0.60972 1.03451 0.4426 0.0
C72 C 0.69439 0.1389 0.42806 0.0
C73 C 0.59981 0.0712 0.45722 0.0
C74 C 0.56513 0.09126 0.35529 0.0
C75 C 0.66802 1.02979 0.41222 0.0
H76 H 0.1315 0.84115 0.29251 0.0
H77 H 0.26492 0.90197 0.34004 0.0
H78 H 0.1774 0.90819 0.32156 0.0
H79 H 0.27113 0.763 0.29884 0.0
H80 H 0.63214 0.16939 0.4694 0.0
H81 H 0.5801 0.97988 0.44292 0.0
H82 H 0.73258 0.16539 0.41711 0.0
H83 H 0.56318 1.04483 0.46851 0.0
Eu84 Eu 0.58196 0.40909 0.52353 0.0
C85 C 0.80766 0.70367 0.53042 0.0
N86 N 0.79027 0.67102 0.54758 0.0
C87 C 0.89594 0.75398 0.56121 0.0
C88 C 0.8694 0.76435 0.52808 0.0
C89 C 0.83465 0.69353 0.56269 0.0
C90 C 0.91271 0.79038 0.54394 0.0
C91 C 0.78556 0.70232 0.49628 0.0
C92 C 0.76608 0.67328 0.51485 0.0
C93 C 0.84511 0.76456 0.49399 0.0
C94 C 0.88693 0.79566 0.5099 0.0
Eu95 Eu 0.68115 0.57506 0.55031 0.0
N96 N 0.70991 0.61225 0.51757 0.0
C97 C 0.74637 0.66642 0.48045 0.0
C98 C 0.6751 0.57514 0.50196 0.0
C99 C 0.6917 0.60186 0.48327 0.0
H100 H 0.82263 0.66542 0.57605 0.0
H101 H 0.66325 0.57226 0.47099 0.0
H102 H 0.5743 0.46244 0.47832 0.0
H103 H 0.38185 0.20511 0.56611 0.0
H104 H 0.6364 0.52397 0.50382 0.0
H105 H 0.75974 0.68666 0.46595 0.0
H106 H 0.49942 0.28908 0.55787 0.0
H107 H 0.9302 0.77239 0.57337 0.0
H108 H 0.86042 0.78787 0.47988 0.0
H109 H 0.93376 0.84262 0.50785 0.0
H110 H 0.48747 0.44231 0.45387 0.0
H111 H 0.96006 0.83732 0.54285 0.0
H112 H 0.28818 0.19096 0.54493 0.0
N113 N 0.50341 0.40137 0.49977 0.0
C114 C 0.4376 0.35517 0.50367 0.0
C115 C 0.47274 0.41828 0.46788 0.0
C116 C 0.38671 0.3405 0.48976 0.0
C117 C 0.52173 0.43065 0.48189 0.0
C118 C 0.4049 0.37347 0.47188 0.0
N119 N 0.47183 0.32743 0.53337 0.0
C120 C 0.45853 0.28513 0.54892 0.0
C121 C 0.35375 0.26904 0.52485 0.0
C122 C 0.42132 0.31906 0.52109 0.0
C123 C 0.33944 0.22957 0.54158 0.0
C124 C 0.39215 0.23719 0.55355 0.0
H125 H 0.36713 0.36333 0.46088 0.0
H126 H 0.28059 0.27838 0.483 0.0
H127 H 0.2513 0.21779 0.51387 0.0
O128 O 0.56609 0.30568 0.52132 0.0
O129 O 0.5403 0.41436 0.55403 0.0
O130 O 0.57149 0.5258 0.55758 0.0
O131 O 0.59251 0.36556 0.49571 0.0
O132 O 0.62799 0.38653 0.5501 0.0
O133 O 0.67538 0.48514 0.56811 0.0
O134 O 0.69322 0.66539 0.56527 0.0
O135 O 0.757 0.53984 0.54205 0.0
O136 O 0.70265 0.47055 0.51618 0.0
O137 O 0.69952 0.58645 0.5812 0.0
O138 O 0.59075 0.58196 0.53493 0.0
O139 O 0.53197 0.48113 0.51808 0.0
C140 C 0.53246 0.46291 0.56219 0.0
C141 C 0.51666 0.24401 0.49206 0.0
C142 C 0.47168 0.15932 0.46522 0.0
C143 C 0.40811 0.12996 0.47439 0.0
C144 C 0.45377 0.20643 0.50123 0.0
C145 C 0.39984 0.1523 0.49225 0.0
C146 C 0.52595 0.21901 0.47391 0.0
C147 C 0.65676 0.42003 0.56608 0.0
C148 C 0.57173 0.30495 0.50263 0.0
C149 C 0.31975 0.29138 0.49371 0.0
C150 C 0.30314 0.25654 0.51127 0.0
C151 C 0.76036 0.50934 0.5262 0.0
C152 C 0.63856 0.63329 0.59594 0.0
C153 C 0.552 0.66261 0.60503 0.0
C154 C 0.53321 0.61728 0.62061 0.0
C155 C 0.61846 0.58745 0.61151 0.0
C156 C 0.60519 0.67066 0.59291 0.0
C157 C 0.56604 0.57955 0.62371 0.0
C158 C 0.53882 0.54149 0.52341 0.0
C159 C 0.69143 0.63941 0.58228 0.0
H160 H 0.36399 0.08809 0.46798 0.0
H161 H 0.44575 0.21773 0.51567 0.0
H162 H 0.35125 0.12641 0.49945 0.0
H163 H 0.57513 0.2443 0.46706 0.0
H164 H 0.49352 0.61126 0.63041 0.0
H165 H 0.64292 0.5574 0.6142 0.0
H166 H 0.62185 0.70742 0.5813 0.0
H167 H 0.55091 0.54419 0.63564 0.0
Eu168 Eu 0.22104 0.53751 0.69071 0.0
C169 C 0.16128 0.76195 0.6829 0.0
N170 N 0.1735 0.75418 0.70158 0.0
C171 C 0.19617 0.8672 0.70855 0.0
C172 C 0.16451 0.82257 0.67635 0.0
C173 C 0.19335 0.80665 0.71428 0.0
C174 C 0.18085 0.87492 0.68955 0.0
C175 C 0.14428 0.72051 0.65013 0.0
C176 C 0.15099 0.71136 0.67005 0.0
C177 C 0.14335 0.77887 0.64368 0.0
C178 C 0.1535 0.82988 0.65678 0.0
Eu179 Eu 0.15521 0.64609 0.7113 0.0
N180 N 0.15434 0.65653 0.67674 0.0
C181 C 0.1424 0.67257 0.63716 0.0
C182 C 0.1594 0.61391 0.66381 0.0
C183 C 0.15189 0.62002 0.64401 0.0
H184 H 0.20645 0.80177 0.72895 0.0
H185 H 0.15517 0.58517 0.63399 0.0
H186 H 0.14263 0.47759 0.64757 0.0
H187 H 0.28115 0.40104 0.74602 0.0
H188 H 0.17285 0.57738 0.66844 0.0
H189 H 0.13762 0.67785 0.62178 0.0
H190 H 0.29778 0.50173 0.72796 0.0
H191 H 0.20999 0.90775 0.71882 0.0
H192 H 0.13748 0.78622 0.62849 0.0
H193 H 0.15504 0.87573 0.65153 0.0
H194 H 1.07461 0.36663 0.63191 0.0
H195 H 0.18344 0.922 0.68508 0.0
H196 H 0.19341 0.28729 0.73573 0.0
N197 N 0.14916 0.43543 0.67447 0.0
C198 C 0.13638 0.37818 0.68436 0.0
C199 C 0.09095 0.36922 0.64671 0.0
C200 C 0.09616 0.31378 0.67602 0.0
C201 C 0.12949 0.43191 0.65562 0.0
C202 C 1.07296 0.30993 0.65708 0.0
N203 N 0.21715 0.44607 0.70827 0.0
C204 C 0.25865 0.45257 0.72345 0.0
C205 C 0.16067 0.32468 0.7115 0.0
C206 C 0.17006 0.38367 0.70184 0.0
C207 C 0.19959 0.33144 0.7279 0.0
C208 C 0.24943 0.39555 0.73372 0.0
H209 H 1.04317 0.26151 0.65009 0.0
H210 H 1.05251 0.2056 0.6802 0.0
H211 H 0.10716 0.21507 0.71138 0.0
O212 O 0.30587 0.51914 0.68525 0.0
O213 O 0.16727 0.49592 0.72056 0.0
O214 O 0.09831 0.54311 0.72451 0.0
O215 O 0.2622 0.54349 0.66112 0.0
O216 O 0.29332 0.59997 0.71453 0.0
O217 O 0.2316 0.63759 0.73204 0.0
O218 O 1.07874 0.67187 0.72068 0.0
O219 O 0.26631 0.71966 0.7054 0.0
O220 O 0.28668 0.65856 0.68249 0.0
O221 O 0.15641 0.68122 0.7406 0.0
O222 O 1.0577 0.55281 0.69837 0.0
O223 O 0.09994 0.48675 0.68555 0.0
C224 C 0.11685 0.49898 0.72946 0.0
C225 C 0.31046 0.46975 0.6551 0.0
C226 C 0.35593 0.42956 0.6284 0.0
C227 C 0.31874 0.3637 0.63604 0.0
C228 C 0.28039 0.40402 0.66275 0.0
C229 C 0.2824 0.35146 0.65307 0.0
C230 C 0.34928 0.48263 0.63774 0.0
C231 C 0.28242 0.62442 0.73051 0.0
C232 C 0.30556 0.52419 0.66649 0.0
C233 C 0.08393 0.25535 0.68626 0.0
C234 C 0.11542 0.26077 0.70403 0.0
C235 C 0.30386 0.71885 0.69106 0.0
C236 C 1.04802 0.64171 0.75341 0.0
C237 C 0.93119 0.56174 0.76187 0.0
C238 C 0.94851 0.57664 0.78155 0.0
C239 C 1.0639 0.65657 0.77295 0.0
C240 C 0.98336 0.59077 0.74814 0.0
C241 C 1.01472 0.62248 0.78698 0.0
C242 C 1.04674 0.49597 0.68942 0.0
C243 C 0.09884 0.68006 0.73861 0.0
H244 H 0.31847 0.32088 0.62904 0.0
H245 H 0.25647 0.39295 0.6766 0.0
H246 H 0.25681 0.30086 0.65911 0.0
H247 H 0.3756 0.53357 0.63203 0.0
H248 H 0.91092 0.55656 0.79285 0.0
H249 H 0.11414 0.69471 0.77733 0.0
H250 H 0.97313 0.57662 0.73312 0.0
H251 H 1.02705 0.63421 0.80207 0.0
Eu252 Eu 0.71821 0.18937 0.85498 0.0
C253 C 0.42997 0.12824 0.86142 0.0
N254 N 0.46 0.14198 0.87895 0.0
C255 C 0.37276 0.16169 0.89171 0.0
C256 C 0.36857 0.12865 0.85844 0.0
C257 C 0.43408 0.16163 0.89384 0.0
C258 C 0.33901 0.14353 0.87404 0.0
C259 C 0.43686 0.11064 0.8273 0.0
C260 C 0.46334 0.11859 0.84617 0.0
C261 C 0.37413 0.10764 0.82436 0.0
C262 C 0.33983 0.11628 0.83993 0.0
Eu263 Eu 0.55599 0.12758 0.88276 0.0
N264 N 0.52439 0.12287 0.84955 0.0
C265 C 0.47555 0.10893 0.81186 0.0
C266 C 0.5639 0.12613 0.83434 0.0
C267 C 0.5401 0.11837 0.81537 0.0
H268 H 0.45997 0.17609 0.90753 0.0
H269 H 0.57193 0.12075 0.80343 0.0
H270 H 0.65952 0.09549 0.81377 0.0
H271 H 0.95208 0.25944 0.89479 0.0
H272 H 0.61463 0.13719 0.83668 0.0
H273 H 0.45731 0.10337 0.79717 0.0
H274 H 0.85231 0.26878 0.88551 0.0
H275 H 0.35154 0.17565 0.9037 0.0
H276 H 0.35274 0.10074 0.81001 0.0
H277 H 0.29229 0.1155 0.83739 0.0
H278 H 0.68894 1.02496 0.79327 0.0
H279 H 0.29133 0.14326 0.87245 0.0
H280 H 0.97732 0.17788 0.87826 0.0
N281 N 0.73511 0.11443 0.8348 0.0
C282 C 0.79017 0.10796 0.83952 0.0
C283 C 0.71734 1.0474 0.80631 0.0
C284 C 0.80784 0.06688 0.82829 0.0
C285 C 0.70103 0.08771 0.81791 0.0
C286 C 0.77013 1.03588 0.81171 0.0
N287 N 0.8189 0.19078 0.86435 0.0
C288 C 0.86188 0.23222 0.87828 0.0
C289 C 0.88988 0.14031 0.85951 0.0
C290 C 0.83204 0.1458 0.85483 0.0
C291 C 0.93264 0.18091 0.87425 0.0
C292 C 0.91878 0.22727 0.88357 0.0
H293 H 0.7825 1.00441 0.8027 0.0
H294 H 0.8778 1.02822 0.82503 0.0
H295 H 0.94855 0.09111 0.85255 0.0
O296 O 0.81593 0.2596 0.84071 0.0
O297 O 0.72301 0.14803 0.88564 0.0
O298 O 0.61118 0.07168 0.89059 0.0
O299 O 0.72178 0.24167 0.82804 0.0
O300 O 0.74353 0.2612 0.88092 0.0
O301 O 0.64673 0.21061 0.89985 0.0
O302 O 0.46463 1.05006 0.897 0.0
O303 O 0.58799 0.23777 0.87571 0.0
O304 O 0.66091 0.25565 0.85048 0.0
O305 O 0.54145 0.13211 0.91365 0.0
O306 O 0.54472 1.02916 0.86767 0.0
O307 O 0.64708 0.06826 0.85196 0.0
C308 C 0.67463 0.0947 0.89481 0.0
C309 C 0.81284 0.26773 0.80556 0.0
C310 C 0.9004 0.30903 0.77944 0.0
C311 C 0.85167 0.26008 0.76717 0.0
C312 C 0.7662 0.223 0.79204 0.0
C313 C 0.7857 0.2182 0.77336 0.0
C314 C 0.88045 0.3125 0.79892 0.0
C315 C 0.71118 0.25685 0.89726 0.0
C316 C 0.78751 0.27023 0.82568 0.0
C317 C 0.86408 0.06001 0.83341 0.0
C318 C 0.90457 0.0961 0.84905 0.0
C319 C 0.62092 0.27373 0.86047 0.0
C320 C 0.49313 1.02354 0.92763 0.0
C321 C 0.45946 0.90668 0.93625 0.0
C322 C 0.50539 0.93004 0.95169 0.0
C323 C 0.53955 1.04602 0.94302 0.0
C324 C 0.45319 0.95393 0.92449 0.0
C325 C 0.54545 0.99939 0.95496 0.0
C326 C 0.58632 1.01644 0.85695 0.0
C327 C 0.48864 0.07208 0.91422 0.0
H328 H 0.86354 0.25609 0.75225 0.0
H329 H 0.71343 0.19211 0.79568 0.0
H330 H 0.74864 0.18274 0.76336 0.0
H331 H 0.91666 0.34996 0.80868 0.0
H332 H 0.50999 0.89478 0.96127 0.0
H333 H 0.57154 0.09953 0.94579 0.0
H334 H 0.41594 0.93648 0.91303 0.0
H335 H 0.58119 1.01705 0.96678 0.0
Eu336 Eu 0.58631 0.70787 0.02468 0.0
C337 C 0.3725 0.41519 0.0251 0.0
N338 N 0.38247 0.44158 0.04306 0.0
C339 C 0.27699 0.34818 0.05348 0.0
C340 C 0.31521 0.35249 0.02076 0.0
C341 C 0.33413 0.41083 0.05698 0.0
C342 C 0.26843 0.318 0.03542 0.0
C343 C 0.40453 0.43056 0.99144 0.0
C344 C 0.41686 0.45361 1.01073 0.0
C345 C 0.34986 0.36643 0.9872 0.0
C346 C 0.30528 0.32737 1.00185 0.0
Eu347 Eu 0.48716 0.53983 0.04927 0.0
N348 N 0.4682 0.51605 1.01534 0.0
C349 C 0.44551 0.47385 0.97687 0.0
C350 C 0.50394 0.56013 1.00086 0.0
C351 C 0.49437 0.53957 0.98158 0.0
H352 H 0.33999 0.4338 0.07098 0.0
H353 H 0.52399 0.5749 0.97033 0.0
H354 H 0.6431 0.68744 0.9811 0.0
H355 H 0.72887 0.90721 0.07786 0.0
H356 H 0.53836 0.61201 1.00385 0.0
H357 H 0.43762 0.45823 0.9619 0.0
H358 H 0.62679 0.8263 0.06027 0.0
H359 H 0.23982 0.32309 0.06472 0.0
H360 H 0.34021 0.34768 0.97252 0.0
H361 H 0.26195 0.27901 0.99829 0.0
H362 H 0.75292 0.72695 0.96474 0.0
H363 H 0.22475 0.26902 0.0328 0.0
H364 H 0.84103 0.92527 0.06782 0.0
N365 N 0.6873 0.73408 1.00791 0.0
C366 C 0.74537 0.77642 1.01752 0.0
C367 C 0.75145 0.74047 0.97963 0.0
C368 C 0.80906 0.79785 1.00885 0.0
C369 C 0.68944 0.71842 0.98891 0.0
C370 C 0.81146 0.77855 0.98982 0.0
N371 N 0.67987 0.79408 0.04143 0.0
C372 C 0.67524 0.8327 0.05593 0.0
C373 C 0.8013 0.85363 0.04425 0.0
C374 C 0.74148 0.80564 0.03496 0.0
C375 C 0.7962 0.88839 0.06028 0.0
C376 C 0.73303 0.87878 0.06591 0.0
H377 H 0.85939 0.79512 0.98259 0.0
H378 H 0.91751 0.85811 1.01254 0.0
H379 H 0.9108 0.90515 0.04366 0.0
O380 O 0.60177 0.8097 1.01888 0.0
O381 O 0.62757 0.70024 0.05498 0.0
O382 O 0.59576 0.58826 0.05788 0.0
O383 O 0.57957 0.7427 0.99499 0.0
O384 O 0.52606 0.72212 0.04904 0.0
O385 O 0.49695 0.62876 0.06831 0.0
O386 O 0.47553 0.44834 0.06348 0.0
O387 O 0.40836 0.57139 0.04172 0.0
O388 O 0.46444 0.64985 1.01771 0.0
O389 O 0.45832 0.52027 0.07952 0.0
O390 O 0.5778 0.53285 0.03475 0.0
O391 O 0.63621 0.6352 1.01863 0.0
C392 C 0.63491 0.65083 0.06279 0.0
C393 C 0.65458 0.86346 0.98903 0.0
C394 C 0.69968 0.9492 0.96234 0.0
C395 C 0.76399 0.97605 0.97092 0.0
C396 C 0.71891 0.89767 0.99751 0.0
C397 C 0.77309 0.95123 0.98833 0.0
C398 C 0.64495 0.89021 0.97122 0.0
C399 C 0.5068 0.69107 0.06588 0.0
C400 C 0.59845 0.80494 1.00013 0.0
C401 C 0.86831 0.84185 1.01884 0.0
C402 C 0.86446 0.86899 0.03658 0.0
C403 C 0.40583 0.60655 0.02684 0.0
C404 C 0.52152 0.47712 0.09514 0.0
C405 C 0.6092 0.45112 0.10558 0.0
C406 C 0.62549 0.49679 0.12094 0.0
C407 C 0.53906 0.52338 0.11048 0.0
C408 C 0.55652 0.44103 0.09297 0.0
C409 C 0.59075 0.53302 0.12326 0.0
C410 C 0.62995 0.57457 0.02358 0.0
C411 C 0.47068 0.46995 0.08057 0.0
H412 H 0.80809 1.01765 0.96436 0.0
H413 H 0.72761 0.88442 1.01163 0.0
H414 H 0.82252 0.9749 0.99506 0.0
H415 H 0.59525 0.86666 0.96476 0.0
H416 H 0.66487 0.5044 0.13109 0.0
H417 H 0.51336 0.55256 0.11252 0.0
H418 H 0.54187 0.40401 0.08151 0.0
H419 H 0.60399 0.56876 0.13499 0.0
Eu420 Eu 0.94344 0.57079 0.19086 0.0
C421 C 1.00552 0.34642 0.18789 0.0
N422 N 0.99636 0.35942 0.20637 0.0
C423 C 0.97299 0.24806 0.2159 0.0
C424 C 1.00052 0.28384 0.18274 0.0
C425 C 0.97828 0.31072 0.22027 0.0
C426 C 0.98525 0.23496 0.1971 0.0
C427 C 1.01851 0.37912 0.15425 0.0
C428 C 1.01446 0.39361 0.17389 0.0
C429 C 1.01765 0.31871 0.14917 0.0
C430 C 1.00852 0.27106 0.1634 0.0
Eu431 Eu 1.01359 0.46882 0.21344 0.0
N432 N 1.01254 0.45041 0.17927 0.0
C433 C 1.01967 0.42398 0.14021 0.0
C434 C 1.00685 0.49016 0.16538 0.0
C435 C 1.01208 0.47887 0.1458 0.0
H436 H 0.96799 0.32007 0.23482 0.0
H437 H 1.00833 0.5115 0.135 0.0
H438 H 1.01807 0.62619 0.14699 0.0
H439 H 0.88709 0.71491 0.24436 0.0
H440 H 0.99424 0.52817 0.16909 0.0
H441 H 1.02251 0.4146 0.125 0.0
H442 H 0.86738 0.61204 0.22697 0.0
H443 H 0.95938 0.20992 0.22701 0.0
H444 H 1.02133 0.3072 0.1342 0.0
H445 H 1.00549 0.22358 0.15921 0.0
H446 H 0.08627 0.7356 0.13035 0.0
H447 H 0.98112 0.18644 0.19369 0.0
H448 H 0.97813 0.82684 0.23378 0.0
N449 N 1.01537 0.67122 0.1737 0.0
C450 C 1.0302 0.72963 0.18319 0.0
C451 C 1.07151 0.73457 0.14525 0.0
C452 C 1.0708 0.79312 0.17432 0.0
C453 C 1.03285 0.67278 0.1547 0.0
C454 C 0.09196 0.79496 0.15524 0.0
N455 N 0.94974 0.66481 0.20752 0.0
C456 C 0.90778 0.66054 0.22234 0.0
C457 C 1.00931 0.78638 0.21002 0.0
C458 C 0.99812 0.72623 0.20079 0.0
C459 C 0.97061 0.78175 0.22628 0.0
C460 C 0.91883 0.7187 0.23223 0.0
H461 H 0.12221 0.84272 0.14787 0.0
H462 H 0.11721 0.90178 0.17775 0.0
H463 H 1.06507 0.89594 0.20913 0.0
O464 O 0.85696 0.58685 0.18574 0.0
O465 O 0.99148 0.6103 0.2211 0.0
O466 O 1.07102 0.57652 0.22333 0.0
O467 O 0.89998 0.56282 0.16151 0.0
O468 O 0.87222 0.51008 0.21541 0.0
O469 O 0.93634 0.47738 0.23383 0.0
O470 O 0.09448 0.45084 0.22401 0.0
O471 O 0.90243 0.39232 0.20754 0.0
O472 O 0.88041 0.44943 0.18359 0.0
O473 O 1.0165 0.44227 0.24352 0.0
O474 O 0.10886 0.55915 0.19857 0.0
O475 O 1.06491 0.62279 0.18506 0.0
C476 C 1.04774 0.61626 0.22863 0.0
C477 C 0.85236 0.6372 0.15578 0.0
C478 C 0.80845 0.67947 0.12919 0.0
C479 C 0.8462 0.74497 0.13694 0.0
C480 C 0.88286 0.7026 0.1636 0.0
C481 C 0.88194 0.75602 0.15403 0.0
C482 C 0.81395 0.62549 0.13842 0.0
C483 C 0.88419 0.48839 0.23186 0.0
C484 C 0.85677 0.58206 0.167 0.0
C485 C 0.08535 0.85271 0.18421 0.0
C486 C 1.05538 0.84936 0.2021 0.0
C487 C 0.86427 0.39058 0.19291 0.0
C488 C 0.12872 0.50261 0.25475 0.0
C489 C 0.24686 0.58798 0.26012 0.0
C490 C 0.22669 0.61352 0.27572 0.0
C491 C 0.10974 0.52874 0.27052 0.0
C492 C 0.19732 0.53164 0.24999 0.0
C493 C 0.15857 0.58361 0.28095 0.0
C494 C 0.11882 0.61444 0.18884 0.0
C495 C 1.07726 0.45039 0.24201 0.0
H496 H 0.84735 0.78839 0.13 0.0
H497 H 0.90627 0.71276 0.17749 0.0
H498 H 0.90791 0.80632 0.16018 0.0
H499 H 0.78701 0.57476 0.13263 0.0
H500 H 0.26334 0.65661 0.28387 0.0
H501 H 1.05711 0.50781 0.27457 0.0
H502 H 0.21192 0.50955 0.23837 0.0
H503 H 0.14344 0.60382 0.29292 0.0
Eu504 Eu 0.2271 0.70842 0.50487 0.0
C505 C 0.17201 0.4263 0.50892 0.0
N506 N 0.18591 0.45004 0.49062 0.0
C507 C 0.20999 0.36162 0.48191 0.0
C508 C 0.17495 0.36776 0.51438 0.0
C509 C 0.20754 0.42044 0.47731 0.0
C510 C 0.19229 0.33434 0.50045 0.0
C511 C 0.15144 0.44377 0.54206 0.0
C512 C 0.15962 0.46349 0.52244 0.0
C513 C 0.15068 0.38357 0.54745 0.0
C514 C 0.16227 0.3455 0.53361 0.0
Eu515 Eu 0.16392 0.53865 0.48234 0.0
N516 N 0.16222 0.52223 0.51672 0.0
C517 C 0.1478 0.48683 0.55581 0.0
C518 C 0.16557 0.56694 0.53043 0.0
C519 C 0.15688 0.5496 0.55 0.0
H520 H 0.22147 0.44129 0.46295 0.0
H521 H 0.15883 0.58535 0.56066 0.0
H522 H 0.1491 0.68301 0.54852 0.0
H523 H 0.2793 0.90944 0.45212 0.0
H524 H 0.1787 0.61738 0.52662 0.0
H525 H 0.14194 0.47382 0.571 0.0
H526 H 0.29924 0.82416 0.46847 0.0
H527 H 0.22496 0.33722 0.47108 0.0
H528 H 0.14363 0.36735 0.5624 0.0
H529 H 0.16365 0.30026 0.53804 0.0
H530 H 1.07951 0.72248 0.56568 0.0
H531 H 0.19349 0.2884 0.504 0.0
H532 H 0.19009 0.93294 0.46394 0.0
N533 N 0.15354 0.73487 0.52241 0.0
C534 C 0.13895 0.77996 0.51344 0.0
C535 C 0.09519 0.73828 0.55095 0.0
C536 C 0.0979 0.80236 0.52268 0.0
C537 C 0.13455 0.71601 0.54119 0.0
C538 C 1.07561 0.78044 0.54153 0.0
N539 N 0.21878 0.79597 0.48863 0.0
C540 C 0.2594 0.83307 0.47361 0.0
C541 C 0.15969 0.86001 0.48727 0.0
C542 C 0.17093 0.80981 0.49593 0.0
C543 C 0.19763 0.89437 0.47099 0.0
C544 C 0.24832 0.88155 0.46432 0.0
H545 H 1.04528 0.79766 0.5492 0.0
H546 H 1.05175 0.86619 0.52018 0.0
H547 H 0.10424 0.91518 0.48909 0.0
O548 O 0.31209 0.80992 0.51031 0.0
O549 O 0.17274 0.69982 0.47523 0.0
O550 O 0.10531 0.58556 0.47029 0.0
O551 O 0.26842 0.74348 0.53446 0.0
O552 O 0.29923 0.72129 0.48029 0.0
O553 O 0.23906 0.62479 0.46202 0.0
O554 O 0.08831 0.43793 0.47275 0.0
O555 O 0.27588 0.57653 0.4878 0.0
O556 O 0.29198 0.65004 0.51254 0.0
O557 O 0.16308 0.50703 0.4526 0.0
O558 O 1.06588 0.53295 0.49592 0.0
O559 O 0.10598 0.63832 0.50992 0.0
C560 C 0.12291 0.64804 0.46596 0.0
C561 C 0.31523 0.86484 0.54026 0.0
C562 C 0.35683 0.94988 0.56709 0.0
C563 C 0.32046 0.97896 0.55865 0.0
C564 C 0.28659 0.90144 0.5319 0.0
C565 C 0.28692 0.95575 0.54122 0.0
C566 C 0.35157 0.89015 0.55806 0.0
C567 C 0.28884 0.68812 0.46392 0.0
C568 C 0.31139 0.80528 0.52909 0.0
C569 C 0.08372 0.84913 0.51339 0.0
C570 C 0.11391 0.87729 0.49567 0.0
C571 C 0.31121 0.60969 0.503 0.0
C572 C 1.05398 0.43791 0.44036 0.0
C573 C 0.93553 0.39944 0.43257 0.0
C574 C 0.95241 0.40472 0.41278 0.0
C575 C 1.06931 0.442 0.42067 0.0
C576 C 0.98821 0.42077 0.44614 0.0
C577 C 1.019 0.42718 0.40696 0.0
C578 C 1.05366 0.57695 0.50556 0.0
C579 C 0.10668 0.45068 0.45472 0.0
H580 H 0.31858 1.02115 0.56533 0.0
H581 H 0.26507 0.88951 0.51776 0.0
H582 H 0.26219 0.98124 0.5346 0.0
H583 H 0.37695 0.86494 0.56437 0.0
H584 H 0.91427 0.38825 0.40164 0.0
H585 H 0.1201 0.45633 0.4159 0.0
H586 H 0.97784 0.42144 0.46134 0.0
H587 H 1.03103 0.43013 0.39176 0.0
Eu588 Eu 0.5758 0.18347 0.67467 0.0
C589 C 0.80234 0.12102 0.66963 0.0
N590 N 0.78596 0.1326 0.65176 0.0
C591 C 0.89381 0.15352 0.63972 0.0
C592 C 0.86493 0.12363 0.67317 0.0
C593 C 0.83172 0.15149 0.63702 0.0
C594 C 0.90992 0.13816 0.65779 0.0
C595 C 0.77702 0.10603 0.70375 0.0
C596 C 0.75864 0.11177 0.68463 0.0
C597 C 0.83776 0.1054 0.70727 0.0
C598 C 0.88158 0.114 0.69199 0.0
Eu599 Eu 0.6765 0.11946 0.64739 0.0
N600 N 0.70113 0.11435 0.68074 0.0
C601 C 0.73542 0.10429 0.71886 0.0
C602 C 0.66341 0.11736 0.69558 0.0
C603 C 0.67907 0.11144 0.71476 0.0
H604 H 0.82044 0.16463 0.62305 0.0
H605 H 0.64843 0.11372 0.72639 0.0
H606 H 0.53352 0.079 0.71425 0.0
H607 H 0.42118 0.26524 0.63399 0.0
H608 H 0.62294 0.12706 0.69272 0.0
H609 H 0.74797 0.1005 0.73374 0.0
H610 H 0.52684 0.26824 0.64367 0.0
H611 H 0.92926 0.16713 0.62788 0.0
H612 H 0.85229 0.10047 0.72183 0.0
H613 H 0.9292 0.1154 0.69496 0.0
H614 H 0.43227 1.00977 0.7339 0.0
H615 H 0.95792 0.13954 0.65982 0.0
H616 H 0.31395 0.18775 0.65028 0.0
N617 N 0.48177 0.10708 0.69366 0.0
C618 C 0.42243 0.1053 0.68892 0.0
C619 C 0.42864 1.03569 0.72119 0.0
C620 C 0.36312 0.06542 0.69978 0.0
C621 C 0.48592 0.07503 0.71001 0.0
C622 C 0.36687 1.03026 0.71595 0.0
N623 N 0.47966 0.18979 0.66465 0.0
C624 C 0.4804 0.23308 0.65074 0.0
C625 C 0.35984 0.14501 0.66909 0.0
C626 C 0.4211 0.14632 0.6739 0.0
C627 C 0.36006 0.18769 0.65442 0.0
C628 C 0.42056 0.23187 0.64525 0.0
H629 H 0.32275 1.00014 0.72477 0.0
H630 H 0.2565 1.03306 0.70287 0.0
H631 H 0.2532 0.10106 0.67576 0.0
O632 O 0.5511 0.25752 0.68827 0.0
O633 O 0.53056 0.14338 0.64402 0.0
O634 O 0.56754 0.06695 0.63845 0.0
O635 O 0.61324 0.22507 0.70352 0.0
O636 O 0.62603 0.25773 0.64946 0.0
O637 O 0.66882 0.20364 0.63028 0.0
O638 O 0.69026 1.04082 0.6332 0.0
O639 O 0.75538 0.22804 0.65524 0.0
O640 O 0.69823 0.25043 0.67911 0.0
O641 O 0.69899 0.12577 0.6167 0.0
O642 O 0.58975 1.02064 0.66208 0.0
O643 O 0.52491 0.0614 0.67636 0.0
C644 C 0.52681 0.09065 0.63454 0.0
C645 C 0.54432 0.25574 0.72337 0.0
C646 C 0.49284 0.2995 0.74732 0.0
C647 C 0.47355 0.24103 0.7584 0.0
C648 C 0.53084 0.20305 0.73642 0.0
C649 C 0.49341 0.19407 0.75317 0.0
C650 C 0.52752 0.30624 0.72942 0.0
C651 C 0.6526 0.25199 0.63302 0.0
C652 C 0.58088 0.25976 0.70462 0.0
C653 C 0.30232 0.06358 0.69471 0.0
C654 C 0.30052 0.1026 0.67931 0.0
C655 C 0.75686 0.26596 0.66987 0.0
C656 C 0.63791 1.01855 0.6023 0.0
C657 C 0.55168 0.90403 0.59356 0.0
C658 C 0.53205 0.93034 0.578 0.0
C659 C 0.61697 1.04407 0.58677 0.0
C660 C 0.60525 0.9486 0.60544 0.0
C661 C 0.56436 1.00008 0.57473 0.0
C662 C 0.53407 1.00862 0.67188 0.0
C663 C 0.69022 0.06458 0.61601 0.0
H664 H 0.44793 0.23447 0.77209 0.0
H665 H 0.55094 0.16931 0.73409 0.0
H666 H 0.48227 0.15179 0.76263 0.0
H667 H 0.54321 0.35122 0.7207 0.0
H668 H 0.49208 0.89708 0.56837 0.0
H669 H 0.64079 0.09797 0.58401 0.0
H670 H 0.6226 0.92869 0.61703 0.0
H671 H 0.54852 1.0201 0.56283 0.0
Eu672 Eu 0.4243 0.54352 0.83786 0.0
C673 C 0.71554 0.76076 0.84222 0.0
N674 N 0.69304 0.75368 0.82382 0.0
C675 C 0.78628 0.86305 0.81584 0.0
C676 C 0.77615 0.8183 0.84799 0.0
C677 C 0.72594 0.80526 0.81085 0.0
C678 C 0.8123 0.869 0.8344 0.0
C679 C 0.69329 0.72263 0.87535 0.0
C680 C 0.6745 0.71369 0.85565 0.0
C681 C 0.75583 0.77699 0.88095 0.0
C682 C 0.79717 0.82492 0.86729 0.0
Eu683 Eu 0.59567 0.64994 0.8154 0.0
N684 N 0.61324 0.66331 0.84978 0.0
C685 C 0.64719 0.67893 0.88897 0.0
C686 C 0.56629 0.62526 0.86339 0.0
C687 C 0.58272 0.63109 0.88298 0.0
H688 H 0.7061 0.80251 0.79655 0.0
H689 H 0.54508 0.59951 0.89349 0.0
H690 H 0.44135 0.48212 0.88109 0.0
H691 H 0.22883 0.40769 0.78316 0.0
H692 H 0.51522 0.59173 0.85947 0.0
H693 H 0.65955 0.68414 0.9042 0.0
H694 H 0.31059 0.50799 0.80129 0.0
H695 H 0.81252 0.90309 0.80539 0.0
H696 H 0.77129 0.78405 0.89595 0.0
H697 H 0.84396 0.86825 0.87192 0.0
H698 H 0.40209 0.37056 0.89642 0.0
H699 H 0.85889 0.91394 0.83828 0.0
H700 H 0.20803 0.29395 0.79273 0.0
N701 N 0.39666 0.44085 0.85386 0.0
C702 C 0.35506 0.38386 0.84372 0.0
C703 C 0.38933 0.37367 0.88154 0.0
C704 C 0.33322 0.31923 0.85187 0.0
C705 C 0.41112 0.43665 0.87285 0.0
C706 C 0.35192 0.31485 0.87085 0.0
N707 N 0.33934 0.45216 0.8202 0.0
C708 C 0.30279 0.45883 0.80544 0.0
C709 C 0.27858 0.3309 0.81663 0.0
C710 C 0.32648 0.38968 0.82635 0.0
C711 C 0.24493 0.33793 0.80057 0.0
C712 C 0.25625 0.40204 0.79517 0.0
H713 H 0.3348 0.26631 0.87774 0.0
H714 H 0.27272 0.21115 0.84743 0.0
H715 H 0.22649 0.22128 0.81641 0.0
O716 O 0.32163 0.52512 0.84358 0.0
O717 O 0.43589 0.50072 0.80788 0.0
O718 O 0.55023 0.54358 0.80534 0.0
O719 O 0.38947 0.54948 0.86751 0.0
O720 O 0.41248 0.60756 0.81455 0.0
O721 O 0.5069 0.63764 0.79587 0.0
O722 O 0.68666 0.66169 0.80073 0.0
O723 O 0.56067 0.72541 0.82267 0.0
O724 O 0.47844 0.66509 0.84536 0.0
O725 O 0.61995 0.69059 0.78635 0.0
O726 O 0.60159 0.55709 0.82897 0.0
O727 O 0.49839 0.49673 0.84455 0.0
C728 C 0.48909 0.50016 0.79998 0.0
C729 C 0.26953 0.47423 0.87369 0.0
C730 C 0.18494 0.43147 0.90048 0.0
C731 C 0.15914 0.366 0.89274 0.0
C732 C 0.23657 0.40872 0.86595 0.0
C733 C 0.184 0.35513 0.87562 0.0
C734 C 0.24267 0.48571 0.89112 0.0
C735 C 0.44471 0.62808 0.79804 0.0
C736 C 0.32706 0.5297 0.86232 0.0
C737 C 0.28924 0.26103 0.84148 0.0
C738 C 0.26257 0.26684 0.82383 0.0
C739 C 0.52259 0.7251 0.837 0.0
C740 C 0.66148 0.63299 0.76745 0.0
C741 C 0.68904 0.55399 0.75141 0.0
C742 C 0.64302 0.5447 0.73665 0.0
C743 C 0.61535 0.62319 0.7525 0.0
C744 C 0.69859 0.59868 0.76661 0.0
C745 C 0.60604 0.57905 0.73729 0.0
C746 C 0.55929 0.50407 0.83984 0.0
C747 C 0.66852 0.67618 0.78425 0.0
H748 H 0.11834 0.3224 0.89975 0.0
H749 H 0.25004 0.3986 0.85205 0.0
H750 H 0.16117 0.30477 0.86951 0.0
H751 H 0.26503 0.53645 0.89687 0.0
H752 H 0.6362 0.5114 0.72465 0.0
H753 H 0.58622 0.64939 0.75255 0.0
H754 H 0.73551 0.60711 0.77775 0.0
H755 H 0.5704 0.57183 0.72592 0.0
Eu756 Eu 0.938 0.40519 1.00583 0.0
C757 C 1.00474 0.69665 1.00358 0.0
N758 N 0.99 0.66872 0.98578 0.0
C759 C 0.97145 0.75844 0.97438 0.0
C760 C 1.00563 0.7583 1.00735 0.0
C761 C 0.97032 0.69687 0.97145 0.0
C762 C 0.9908 0.79015 0.99229 0.0
C763 C 1.02305 0.68535 0.03742 0.0
C764 C 1.01375 0.66078 1.01831 0.0
C765 C 1.02773 0.74847 0.04113 0.0
C766 C 1.01912 0.78497 0.0261 0.0
Eu767 Eu 1.0026 0.5723 0.98055 0.0
N768 N 1.00719 0.59915 1.01423 0.0
C769 C 1.02417 0.6444 0.05236 0.0
C770 C 1.00231 0.55713 0.02904 0.0
C771 C 1.01209 0.57931 0.04817 0.0
H772 H 0.95478 0.67258 0.95757 0.0
H773 H 1.009 0.54564 0.05972 0.0
H774 H 1.01436 0.43631 0.04977 0.0
H775 H 0.89307 0.20034 0.95555 0.0
H776 H 0.98808 0.50547 0.0264 0.0
H777 H 1.03093 0.66121 0.06722 0.0
H778 H 0.86911 0.28469 0.97072 0.0
H779 H 0.95761 0.78148 0.96281 0.0
H780 H 1.03562 0.76837 0.05568 0.0
H781 H 1.02062 0.83254 0.02925 0.0
H782 H 0.08541 0.401 0.06814 0.0
H783 H 0.9924 0.83821 0.99444 0.0
H784 H 0.98536 0.18274 0.96807 0.0
N785 N 1.01329 0.38337 0.02428 0.0
C786 C 1.03009 0.33889 1.01602 0.0
C787 C 1.07081 0.38382 0.05346 0.0
C788 C 1.07173 0.31869 0.02598 0.0
C789 C 1.03065 0.4037 0.04303 0.0
C790 C 0.09258 0.34229 0.04477 0.0
N791 N 0.95069 0.31843 0.99075 0.0
C792 C 0.91024 0.27821 0.97615 0.0
C793 C 1.01328 0.25783 0.99062 0.0
C794 C 0.99984 0.30751 0.99854 0.0
C795 C 0.97616 0.221 0.97455 0.0
C796 C 0.92366 0.2304 0.96751 0.0
H797 H 0.1239 0.32718 0.0529 0.0
H798 H 0.11989 0.25658 0.02487 0.0
H799 H 1.0708 0.20512 0.99375 0.0
O800 O 0.85315 0.3035 1.01133 0.0
O801 O 0.98541 0.41099 0.9754 0.0
O802 O 1.06303 0.52279 0.97217 0.0
O803 O 0.89554 0.36997 0.03536 0.0
O804 O 0.86463 0.38855 0.98097 0.0
O805 O 0.92374 0.48339 0.96187 0.0
O806 O 0.08022 0.66448 0.96659 0.0
O807 O 0.89237 0.53901 0.98791 0.0
O808 O 0.87471 0.46479 1.01287 0.0
O809 O 0.99534 0.59071 0.95006 0.0
O810 O 0.10009 0.58019 0.99545 0.0
O811 O 1.05919 0.47725 1.01118 0.0
C812 C 1.04063 0.46011 0.96731 0.0
C813 C 0.85077 0.24879 0.04133 0.0
C814 C 0.81011 0.16324 0.06815 0.0
C815 C 0.84661 0.13462 0.0596 0.0
C816 C 0.8799 0.21281 0.03291 0.0
C817 C 0.88009 0.15851 0.04217 0.0
C818 C 0.81494 0.22305 0.0592 0.0
C819 C 0.87381 0.42048 0.96432 0.0
C820 C 0.85346 0.30795 0.03008 0.0
C821 C 0.08799 0.27239 1.01743 0.0
C822 C 1.05964 0.24277 0.99972 0.0
C823 C 0.8569 0.50604 1.00322 0.0
C824 C 0.10213 0.63706 0.93522 0.0
C825 C 0.21702 0.66777 0.92538 0.0
C826 C 0.19099 0.62193 0.90999 0.0
C827 C 1.07686 0.59072 0.91983 0.0
C828 C 0.17213 0.67552 0.93773 0.0
C829 C 0.12116 0.58336 0.90732 0.0
C830 C 0.11189 0.53819 1.00639 0.0
C831 C 1.0561 0.64237 0.94937 0.0
H832 H 0.8486 0.09226 0.06619 0.0
H833 H 0.90135 0.22516 1.01876 0.0
H834 H 0.90508 0.13347 0.03548 0.0
H835 H 0.78968 0.24803 0.06566 0.0
H836 H 0.2245 0.61601 0.90005 0.0
H837 H 1.02294 0.55977 0.91752 0.0
H838 H 0.19177 0.7126 0.94922 0.0
H839 H 0.10132 0.54755 0.89555 0.0
Eu840 Eu 0.59029 0.92531 0.17554 0.0
C841 C 0.36518 0.99117 0.16871 0.0
N842 N 0.38318 0.97938 0.15113 0.0
C843 C 0.27648 0.95816 0.13807 0.0
C844 C 0.30239 0.98881 0.17157 0.0
C845 C 0.33885 0.96029 0.13603 0.0
C846 C 0.25871 0.97382 0.15583 0.0
C847 C 0.38723 1.00614 0.20297 0.0
C848 C 0.40726 1.00004 0.18412 0.0
C849 C 0.32657 1.00759 0.2058 0.0
C850 C 0.28421 0.99899 0.19011 0.0
Eu851 Eu 0.49267 0.9919 0.14788 0.0
N852 N 0.46452 0.99631 0.18089 0.0
C853 C 0.42697 1.00714 0.21851 0.0
C854 C 0.49993 0.99176 0.19615 0.0
C855 C 0.48273 0.9983 0.2151 0.0
H856 H 0.35163 0.9471 0.1223 0.0
H857 H 0.51157 0.99511 0.22711 0.0
H858 H 0.62186 1.01468 0.21739 0.0
H859 H 0.75373 0.85142 0.13628 0.0
H860 H 0.53962 0.98034 0.19381 0.0
H861 H 0.41321 1.01133 0.23321 0.0
H862 H 0.64561 0.84499 0.14495 0.0
H863 H 0.2421 0.94428 0.12596 0.0
H864 H 0.31081 1.01289 0.22016 0.0
H865 H 0.23648 0.99793 0.19257 0.0
H866 H 0.71881 0.08069 0.23884 0.0
H867 H 0.21045 0.97228 0.15734 0.0
H868 H 0.8581 0.92908 0.15373 0.0
N869 N 0.67968 0.99697 0.19635 0.0
C870 C 0.74061 1.00176 0.19199 0.0
C871 C 0.72581 0.05953 0.22562 0.0
C872 C 0.7976 1.03995 0.20383 0.0
C873 C 0.67092 1.02198 0.21345 0.0
C874 C 0.78969 0.06974 0.22059 0.0
N875 N 0.68857 0.92124 0.16659 0.0
C876 C 0.69075 0.88003 0.15255 0.0
C877 C 0.80802 0.96781 0.1723 0.0
C878 C 0.74543 0.96434 0.17656 0.0
C879 C 0.81091 0.92754 0.15744 0.0
C880 C 0.75201 0.8833 0.14761 0.0
H881 H 0.83218 0.09898 0.23006 0.0
H882 H 0.90412 0.07408 0.20807 0.0
H883 H 0.91375 1.01275 0.18021 0.0
O884 O 0.61801 0.85497 0.19052 0.0
O885 O 0.63607 0.96574 0.14486 0.0
O886 O 0.60268 1.0451 0.1403 0.0
O887 O 0.53878 0.87164 0.20185 0.0
O888 O 0.54532 0.85459 0.14938 0.0
O889 O 0.49739 0.90594 0.13094 0.0
O890 O 0.47973 0.07119 0.13366 0.0
O891 O 0.41244 0.88326 0.15529 0.0
O892 O 0.46761 0.85897 0.17935 0.0
O893 O 0.47564 0.98889 0.11692 0.0
O894 O 0.58044 0.0892 0.16302 0.0
O895 O 0.64134 1.04688 0.17903 0.0
C896 C 0.64163 1.02003 0.13579 0.0
C897 C 0.60221 0.84745 0.22562 0.0
C898 C 0.65043 0.81053 0.25274 0.0
C899 C 0.6381 0.85278 0.26504 0.0
C900 C 0.59001 0.88673 0.23905 0.0
C901 C 0.60856 0.89005 0.25828 0.0
C902 C 0.63194 0.80817 0.23272 0.0
C903 C 0.51583 0.85896 0.1333 0.0
C904 C 0.57725 0.8442 0.20505 0.0
C905 C 0.86001 1.04474 0.19916 0.0
C906 C 0.86538 1.00944 0.18335 0.0
C907 C 0.40966 0.84442 0.16988 0.0
C908 C 0.53545 0.09764 0.1032 0.0
C909 C 0.61872 0.214 0.09493 0.0
C910 C 0.64024 0.19 0.07928 0.0
C911 C 0.55835 0.07457 0.0876 0.0
C912 C 0.56571 0.16728 0.10665 0.0
C913 C 0.61041 0.12063 0.07573 0.0
C914 C 0.63389 0.10025 0.17389 0.0
C915 C 0.48258 1.04941 0.11643 0.0
H916 H 0.6483 0.85514 0.28035 0.0
H917 H 0.56447 0.91449 0.23487 0.0
H918 H 0.59807 0.92055 0.26822 0.0
H919 H 0.63963 0.7756 0.22284 0.0
H920 H 0.67958 0.22479 0.06972 0.0
H921 H 0.53629 1.02101 0.08458 0.0
H922 H 0.54658 0.18519 0.11826 0.0
H923 H 0.62765 0.10251 0.06373 0.0
Eu924 Eu 0.72407 0.56271 0.34071 0.0
C925 C 0.43365 0.34383 0.33345 0.0
N926 N 0.46565 0.35572 0.31625 0.0
C927 C 0.37837 0.24887 0.30443 0.0
C928 C 0.37116 0.2847 0.33666 0.0
C929 C 0.44075 0.30757 0.30212 0.0
C930 C 0.34256 0.23815 0.32162 0.0
C931 C 0.43854 0.3734 0.36709 0.0
C932 C 0.46659 0.38794 0.34833 0.0
C933 C 0.37445 0.31695 0.37015 0.0
C934 C 0.34065 0.27272 0.35492 0.0
Eu935 Eu 0.56267 0.46343 0.31161 0.0
N936 N 0.5291 0.44111 0.34486 0.0
C937 C 0.47723 0.41383 0.38237 0.0
C938 C 0.56858 0.47668 0.36002 0.0
C939 C 0.54331 0.46452 0.37889 0.0
H940 H 0.46824 0.31446 0.28885 0.0
H941 H 0.57513 0.49343 0.3908 0.0
H942 H 0.66144 0.6014 0.38067 0.0
H943 H 0.96014 0.71908 0.30148 0.0
H944 H 0.62011 0.51296 0.35775 0.0
H945 H 0.4579 0.40409 0.39701 0.0
H946 H 0.85963 0.61287 0.31062 0.0
H947 H 0.35807 0.21185 0.29296 0.0
H948 H 0.35182 0.30562 0.38439 0.0
H949 H 0.29231 0.22805 0.3576 0.0
H950 H 0.68969 0.70167 0.40063 0.0
H951 H 0.2943 0.19255 0.3234 0.0
H952 H 0.98577 0.82575 0.31779 0.0
N953 N 0.74013 0.65491 0.36033 0.0
C954 C 0.79611 0.71472 0.35577 0.0
C955 C 0.71961 0.70617 0.38799 0.0
C956 C 0.81328 0.77355 0.36672 0.0
C957 C 0.70387 0.64939 0.37669 0.0
C958 C 0.77384 0.76873 0.38281 0.0
N959 N 0.82588 0.65881 0.33149 0.0
C960 C 0.8692 0.65887 0.31777 0.0
C961 C 0.89741 0.77869 0.33625 0.0
C962 C 0.83901 0.71697 0.34084 0.0
C963 C 0.94069 0.77929 0.32175 0.0
C964 C 0.92663 0.71913 0.31256 0.0
H965 H 0.78575 0.81272 0.39157 0.0
H966 H 0.88397 0.88042 0.36997 0.0
H967 H 0.95648 0.88534 0.34308 0.0
O968 O 0.82061 0.587 0.35551 0.0
O969 O 0.73027 0.61723 0.31139 0.0
O970 O 0.61879 0.57086 0.30147 0.0
O971 O 0.72507 0.519 0.36885 0.0
O972 O 0.75133 0.51553 0.31538 0.0
O973 O 0.65685 0.47415 0.29564 0.0
O974 O 0.47401 0.45189 0.29571 0.0
O975 O 0.59514 0.38583 0.31954 0.0
O976 O 0.66741 0.43996 0.34485 0.0
O977 O 0.54794 0.43322 0.28148 0.0
O978 O 0.552 0.55347 0.32522 0.0
O979 O 0.65189 0.61271 0.34234 0.0
C980 C 0.6825 0.61689 0.30007 0.0
C981 C 0.81763 0.58295 0.3908 0.0
C982 C 0.90634 0.62921 0.41656 0.0
C983 C 0.85896 0.63391 0.42864 0.0
C984 C 0.77227 0.5855 0.40417 0.0
C985 C 0.79305 0.61207 0.42255 0.0
C986 C 0.88512 0.60362 0.39735 0.0
C987 C 0.72088 0.49078 0.2987 0.0
C988 C 0.79097 0.55249 0.37106 0.0
C989 C 0.87046 0.83493 0.36176 0.0
C990 C 0.91198 0.83763 0.34649 0.0
C991 C 0.62763 0.38253 0.33489 0.0
C992 C 0.49992 0.48497 0.26263 0.0
C993 C 0.47657 0.57 0.24825 0.0
C994 C 0.51006 0.56864 0.23134 0.0
C995 C 0.53286 0.48399 0.24554 0.0
C996 C 0.47179 0.52772 0.26378 0.0
C997 C 0.5383 0.52605 0.23008 0.0
C998 C 0.59281 0.60644 0.33625 0.0
C999 C 0.49592 0.44215 0.27924 0.0
H1000 H 0.87165 0.65144 0.44337 0.0
H1001 H 0.71946 0.56531 0.40069 0.0
H1002 H 0.75697 0.61389 0.43243 0.0
H1003 H 0.92024 0.59888 0.38775 0.0
H1004 H 0.51434 0.60032 0.2191 0.0
H1005 H 0.55494 0.45121 0.2442 0.0
H1006 H 0.44382 0.52603 0.27662 0.0
H1007 H 0.56413 0.52532 0.21702 0.0
C1008 C 1.05166 0.67987 0.25897 0.0
C1009 C 0.08562 0.66542 0.24444 0.0
H1010 H 1.05837 0.7274 0.2861 0.0
C1011 C 0.15639 0.69265 0.24628 0.0
H1012 H 0.99724 0.65854 0.25835 0.0
C1013 C 0.19221 0.73366 0.26212 0.0
C1014 C 0.15818 0.74758 0.27685 0.0
H1015 H 0.18427 0.68196 0.23544 0.0
H1016 H 0.24654 0.75455 0.26277 0.0
C1017 C 0.08715 0.71944 0.27498 0.0
C1018 C 0.4362 1.05335 0.44466 0.0
C1019 C 0.47788 0.12441 0.44712 0.0
H1020 H 0.40511 0.96564 0.42664 0.0
C1021 C 0.52237 0.16005 0.4319 0.0
H1022 H 0.40304 1.02233 0.4561 0.0
C1023 C 0.5247 0.12615 0.41506 0.0
C1024 C 0.48165 0.05569 0.41257 0.0
H1025 H 0.55544 0.21417 0.43294 0.0
H1026 H 0.56076 0.15534 0.4039 0.0
C1027 C 0.43717 1.02 0.42763 0.0
C1028 C 0.41298 0.48675 0.59647 0.0
C1029 C 0.40171 0.43962 0.61123 0.0
H1030 H 0.46225 0.53046 0.56952 0.0
C1031 C 0.43294 0.3988 0.60912 0.0
H1032 H 0.39047 0.51924 0.59731 0.0
C1033 C 0.47172 0.40311 0.59278 0.0
C1034 C 0.48294 0.4502 0.57817 0.0
H1035 H 0.42848 0.36372 0.62035 0.0
H1036 H 0.49534 0.37156 0.59202 0.0
C1037 C 0.45355 0.49245 0.58034 0.0
C1038 C 1.04774 0.47368 0.76001 0.0
C1039 C 1.07495 0.45069 0.74532 0.0
H1040 H 0.97322 0.44849 0.78239 0.0
C1041 C 1.05192 0.38082 0.74447 0.0
H1042 H 1.06477 0.52717 0.76136 0.0
C1043 C 0.99955 0.33536 0.75682 0.0
C1044 C 0.96825 0.35809 0.77044 0.0
H1045 H 1.07074 0.36074 0.73339 0.0
H1046 H 0.98071 0.28164 0.75491 0.0
C1047 C 0.99551 0.42843 0.77234 0.0
C1048 C 0.64473 0.98676 0.91303 0.0
C1049 C 0.68757 0.05745 0.91082 0.0
H1050 H 0.61469 0.89732 0.93034 0.0
C1051 C 0.73317 0.09186 0.92575 0.0
H1052 H 0.60768 0.9585 0.90201 0.0
C1053 C 0.73523 0.05698 0.94241 0.0
C1054 C 0.69313 0.98582 0.94463 0.0
H1055 H 0.76498 0.14632 0.92502 0.0
H1056 H 0.76937 0.0868 0.95382 0.0
C1057 C 0.64789 0.95149 0.9295 0.0
C1058 C 0.7332 0.71249 0.10985 0.0
C1059 C 0.76335 0.67068 0.11199 0.0
H1060 H 0.6722 0.74136 0.09266 0.0
C1061 C 0.75178 0.62371 0.09723 0.0
H1062 H 0.73802 0.74765 0.12107 0.0
C1063 C 0.7119 0.61905 0.08105 0.0
C1064 C 0.68352 0.66216 0.07886 0.0
H1065 H 0.77357 0.59059 0.0981 0.0
H1066 H 0.70296 0.58121 0.0702 0.0
C1067 C 0.69507 0.70913 0.09347 0.0
C1068 C 0.44932 0.98376 0.61621 0.0
C1069 C 0.4771 1.05458 0.61854 0.0
H1070 H 0.38988 0.89525 0.59884 0.0
C1071 C 0.46599 0.09022 0.60375 0.0
H1072 H 0.45808 0.95454 0.62711 0.0
C1073 C 0.42917 0.05644 0.5871 0.0
C1074 C 0.4 0.98515 0.58477 0.0
H1075 H 0.48856 0.14478 0.60458 0.0
H1076 H 0.42498 0.08725 0.57582 0.0
C1077 C 0.41087 0.94956 0.59977 0.0
C1078 C 0.42671 0.35162 0.76332 0.0
C1079 C 0.48875 0.35663 0.75721 0.0
H1080 H 0.37682 0.39294 0.78104 0.0
C1081 C 0.54816 0.4086 0.76508 0.0
H1082 H 0.37942 0.31028 0.75818 0.0
C1083 C 0.54651 0.45331 0.77871 0.0
C1084 C 0.48528 0.44972 0.78492 0.0
H1085 H 0.59618 0.41178 0.76162 0.0
H1086 H 0.59435 0.48975 0.7849 0.0
C1087 C 0.42503 0.39832 0.77673 0.0
C1088 C 0.14812 0.49211 0.94872 0.0
C1089 C 1.07782 0.44842 0.95117 0.0
H1090 H 0.23707 0.52119 0.93139 0.0
C1091 C 1.04337 0.40072 0.93672 0.0
H1092 H 0.17631 0.53049 0.95943 0.0
C1093 C 1.07787 0.3973 0.92025 0.0
C1094 C 0.14866 0.43993 0.91782 0.0
H1095 H 0.98915 0.36791 0.93772 0.0
H1096 H 1.04816 0.36147 0.90918 0.0
C1097 C 0.18308 0.4875 0.93245 0.0
C1098 C 0.71962 0.12751 0.11763 0.0
C1099 C 0.69107 0.05643 0.1197 0.0
H1100 H 0.77911 0.21681 0.10044 0.0
C1101 C 0.701 1.02129 0.10457 0.0
H1102 H 0.71181 0.15644 0.12879 0.0
C1103 C 0.73742 0.05582 0.08791 0.0
C1104 C 0.76726 0.1273 0.08585 0.0
H1105 H 0.67782 0.96663 0.10518 0.0
H1106 H 0.74086 1.02559 0.07637 0.0
C1107 C 0.75756 0.16238 0.10115 0.0
C1108 C 0.66194 0.65274 0.26752 0.0
C1109 C 0.69553 0.67149 0.2855 0.0
H1110 H 0.62328 0.6811 0.24292 0.0
C1111 C 0.72541 0.74001 0.29068 0.0
H1112 H 0.63884 0.60055 0.26295 0.0
C1113 C 0.7164 0.78653 0.27906 0.0
C1114 C 0.67613 0.766 0.26203 0.0
H1115 H 0.75122 0.75667 0.3044 0.0
H1116 H 0.73826 0.83819 0.2841 0.0
C1117 C 0.65277 0.69907 0.25596 0.0
C1118 C 1.05882 0.70414 0.45123 0.0
C1119 C 0.08071 0.65592 0.45032 0.0
H1120 H 0.98873 0.73525 0.4409 0.0
C1121 C 1.05239 0.60614 0.43571 0.0
H1122 H 1.07866 0.74292 0.46221 0.0
C1123 C 1.0001 0.60089 0.42355 0.0
C1124 C 0.97394 0.64545 0.42551 0.0
H1125 H 1.06853 0.56865 0.43429 0.0
H1126 H 0.97699 0.55887 0.41358 0.0
C1127 C 1.00645 0.69905 0.439 0.0
C1128 C 0.5119 0.66192 0.33644 0.0
C1129 C 0.57466 0.66433 0.34107 0.0
H1130 H 0.44837 0.70993 0.33724 0.0
C1131 C 0.62186 0.7257 0.35011 0.0
H1132 H 0.47314 0.61751 0.32923 0.0
C1133 C 0.60723 0.77881 0.35497 0.0
C1134 C 0.54452 0.77653 0.35076 0.0
H1135 H 0.67177 0.73372 0.35332 0.0
H1136 H 0.64669 0.82307 0.36207 0.0
C1137 C 0.49743 0.71618 0.34104 0.0
C1138 C 0.89285 0.58451 0.52628 0.0
C1139 C 0.83415 0.52514 0.51968 0.0
H1140 H 1.00151 0.64739 0.52703 0.0
C1141 C 0.84993 0.48293 0.50796 0.0
H1142 H 0.88631 0.62013 0.53517 0.0
C1143 C 0.91895 0.4986 0.50367 0.0
C1144 C 0.97757 0.55817 0.51048 0.0
H1145 H 0.80876 0.43655 0.50229 0.0
H1146 H 0.92617 0.4634 0.49478 0.0
C1147 C 0.96109 0.6006 0.52167 0.0
C1148 C 0.41288 0.91835 0.68429 0.0
C1149 C 0.47613 0.93298 0.67618 0.0
H1150 H 0.31445 0.84607 0.69506 0.0
C1151 C 0.48034 0.87326 0.67177 0.0
H1152 H 0.4033 0.9596 0.68728 0.0
C1153 C 0.42603 0.80485 0.67569 0.0
C1154 C 0.36365 0.79107 0.68454 0.0
H1155 H 0.52625 0.87916 0.66521 0.0
H1156 H 0.43392 0.76272 0.67211 0.0
C1157 C 0.35986 0.85094 0.68856 0.0
C1158 C 0.54868 0.40218 0.86101 0.0
C1159 C 0.57803 0.44693 0.84516 0.0
H1160 H 0.53755 0.31716 0.87796 0.0
C1161 C 0.62406 0.43388 0.83425 0.0
H1162 H 0.5151 0.40943 0.87042 0.0
C1163 C 0.63847 0.37957 0.83878 0.0
C1164 C 0.60819 0.33451 0.85467 0.0
H1165 H 0.6487 0.46534 0.8218 0.0
H1166 H 0.67353 0.37293 0.82966 0.0
C1167 C 0.5629 0.3484 0.86554 0.0
C1168 C 0.20493 0.51563 0.02276 0.0
C1169 C 0.1881 0.55762 1.01145 0.0
H1170 H 0.27996 0.49629 0.03618 0.0
C1171 C 0.2466 0.61719 1.00447 0.0
H1172 H 0.16468 0.46889 0.02823 0.0
C1173 C 0.31579 0.63328 1.00874 0.0
C1174 C 0.33193 0.59134 0.02054 0.0
H1175 H 0.23912 0.65204 0.99544 0.0
H1176 H 0.35678 0.67956 1.00291 0.0
C1177 C 0.2733 0.53192 0.02727 0.0
C1178 C 0.80401 0.25746 0.19345 0.0
C1179 C 0.80436 0.31761 0.18698 0.0
H1180 H 0.75692 0.14827 0.19431 0.0
C1181 C 0.74608 0.30396 0.1758 0.0
H1182 H 0.84621 0.26218 0.2019 0.0
C1183 C 0.69174 0.2357 0.17185 0.0
C1184 C 0.69173 0.17571 0.17855 0.0
H1185 H 0.74158 0.34627 0.17022 0.0
H1186 H 0.6493 0.23014 0.16332 0.0
C1187 C 0.75085 0.18995 0.18921 0.0
C1188 C 0.37781 0.54195 0.50002 0.0
C1189 C 0.37089 0.59493 0.50913 0.0
H1190 H 0.43015 0.48409 0.49687 0.0
C1191 C 0.42218 0.63075 0.52319 0.0
H1192 H 0.34171 0.51172 0.48907 0.0
C1193 C 0.47581 0.61483 0.52749 0.0
C1194 C 0.48196 0.56134 0.51829 0.0
H1195 H 0.42153 0.67191 0.53092 0.0
H1196 H 0.51259 0.64466 0.53837 0.0
C1197 C 0.43024 0.52554 0.50451 0.0
C1198 C 0.84312 0.38564 0.68626 0.0
C1199 C 0.8296 0.32573 0.67596 0.0
H1200 H 0.91678 0.48365 0.69813 0.0
C1201 C 0.88965 0.32423 0.67057 0.0
H1202 H 0.80079 0.39155 0.69098 0.0
C1203 C 0.95699 0.3773 0.67499 0.0
C1204 C 0.97131 0.43803 0.68472 0.0
H1205 H 0.88494 0.2806 0.66287 0.0
H1206 H 0.99849 0.37002 0.67073 0.0
C1207 C 0.91131 0.43986 0.69035 0.0
C1208 C 0.61382 0.92445 0.84308 0.0
C1209 C 0.56762 0.94059 0.85228 0.0
H1210 H 0.63729 0.85014 0.83145 0.0
C1211 C 0.50514 0.88212 0.85752 0.0
H1212 H 0.66336 0.96488 0.83931 0.0
C1213 C 0.48998 0.81318 0.8534 0.0
C1214 C 0.53612 0.79784 0.84356 0.0
H1215 H 0.46717 0.88943 0.86493 0.0
H1216 H 0.4412 0.77194 0.85766 0.0
C1217 C 0.59852 0.85649 0.83871 0.0
C1218 C 0.69089 0.49912 0.02693 0.0
C1219 C 0.68712 0.55513 1.01849 0.0
H1220 H 0.74297 0.43969 0.0297 0.0
C1221 C 0.74123 0.59334 1.00559 0.0
H1222 H 0.65223 0.46721 0.03715 0.0
C1223 C 0.79374 0.57712 1.00113 0.0
C1224 C 0.79791 0.52139 1.0094 0.0
H1225 H 0.74328 0.6366 0.99863 0.0
H1226 H 0.83219 0.60972 0.99096 0.0
C1227 C 0.74434 0.48305 0.02265 0.0
C1228 C 0.3223 0.72579 0.18666 0.0
C1229 C 0.33641 0.78457 0.1756 0.0
H1230 H 0.24798 0.62881 0.19898 0.0
C1231 C 0.27661 0.78492 0.16922 0.0
H1232 H 0.36432 0.72076 0.19218 0.0
C1233 C 0.20897 0.73181 0.17345 0.0
C1234 C 0.19421 0.67236 0.18403 0.0
H1235 H 0.28175 0.82762 0.16086 0.0
H1236 H 0.16763 0.73793 0.16832 0.0
C1237 C 0.25393 0.67167 0.19057 0.0
C1238 C 0.57071 0.25132 0.32947 0.0
C1239 C 0.61481 0.30918 0.34068 0.0
H1240 H 0.52387 0.14374 0.32423 0.0
C1241 C 0.64358 0.29314 0.3568 0.0
H1242 H 0.54662 0.25817 0.31683 0.0
C1243 C 0.62881 0.22456 0.36126 0.0
C1244 C 0.58386 0.16682 0.35004 0.0
H1245 H 0.67769 0.33372 0.36617 0.0
H1246 H 0.65234 0.21678 0.37389 0.0
C1247 C 0.55619 0.18346 0.33393 0.0
C1248 C 0.31259 0.70465 0.42747 0.0
C1249 C 0.3332 0.72585 0.44664 0.0
H1250 H 0.33186 0.72601 0.39708 0.0
C1251 C 0.39493 0.78677 0.44902 0.0
H1252 H 0.26539 0.65877 0.42479 0.0
C1253 C 0.43379 0.82514 0.43302 0.0
C1254 C 0.41232 0.80502 0.41386 0.0
H1255 H 0.41306 0.80566 0.46339 0.0
H1256 H 0.47986 0.87203 0.43574 0.0
C1257 C 0.35099 0.74365 0.41145 0.0
C1258 C 0.66148 0.40079 0.60257 0.0
C1259 C 0.66131 0.38005 0.58331 0.0
H1260 H 0.65794 0.37783 0.63297 0.0
C1261 C 0.66034 0.31764 0.58082 0.0
H1262 H 0.66108 0.44763 0.60535 0.0
C1263 C 0.65985 0.27799 0.59677 0.0
C1264 C 0.65861 0.29793 0.61602 0.0
H1265 H 0.65952 0.2989 0.56641 0.0
H1266 H 0.65841 0.23029 0.59393 0.0
C1267 C 0.65935 0.36028 0.61855 0.0
C1268 C 0.42797 0.63338 0.76171 0.0
C1269 C 0.40673 0.63455 0.78076 0.0
H1270 H 0.40687 0.62951 0.73133 0.0
C1271 C 0.34577 0.63677 0.78298 0.0
H1272 H 0.4738 0.63091 0.75918 0.0
C1273 C 0.30706 0.63636 0.76685 0.0
C1274 C 0.3273 0.63296 0.74781 0.0
H1275 H 0.32702 0.63749 0.79729 0.0
H1276 H 0.25991 0.6364 0.76936 0.0
C1277 C 0.38902 0.63229 0.74561 0.0
C1278 C 0.8138 0.3613 0.91184 0.0
C1279 C 0.75093 0.30164 0.9143 0.0
H1280 H 0.90019 0.44538 0.92509 0.0
C1281 C 0.7283 0.28317 0.93353 0.0
H1282 H 0.83394 0.37765 0.89746 0.0
C1283 C 0.76716 0.32168 0.94952 0.0
C1284 C 0.82991 0.38142 0.94707 0.0
H1285 H 0.68099 0.23748 0.93633 0.0
H1286 H 0.74796 0.30416 0.96391 0.0
C1287 C 0.85202 0.40063 0.92784 0.0
C1288 C 0.49967 0.82961 0.09718 0.0
C1289 C 0.50875 0.81297 0.11624 0.0
H1290 H 0.49237 0.80612 0.06681 0.0
C1291 C 0.51451 0.75386 0.11846 0.0
H1292 H 0.4958 0.87474 0.09453 0.0
C1293 C 0.51133 0.71343 0.1024 0.0
C1294 C 0.50355 0.73086 0.08331 0.0
H1295 H 0.522 0.73882 0.13269 0.0
H1296 H 0.5171 0.66933 0.10494 0.0
C1297 C 0.49778 0.78993 0.0811 0.0
C1298 C 0.73732 0.47806 0.26273 0.0
C1299 C 0.76136 0.48511 0.28188 0.0
H1300 H 0.75577 0.47368 0.23244 0.0
C1301 C 0.82556 0.48993 0.28437 0.0
H1302 H 0.68879 0.47475 0.2599 0.0
C1303 C 0.86404 0.48826 0.2684 0.0
C1304 C 0.84045 0.4828 0.24924 0.0
H1305 H 0.84659 0.49564 0.29871 0.0
H1306 H 0.91345 0.49344 0.27106 0.0
C1307 C 0.77614 0.47751 0.24681 0.0
C1308 C 0.81006 0.34823 0.42628 0.0
C1309 C 0.86338 0.36008 0.43898 0.0
H1310 H 0.70882 0.27772 0.41752 0.0
C1311 C 0.84718 0.32229 0.4563 0.0
H1312 H 0.81879 0.37851 0.41341 0.0
C1313 C 0.78306 0.26725 0.45911 0.0
C1314 C 0.73465 0.248 0.44452 0.0
H1315 H 0.8851 0.32893 0.46682 0.0
H1316 H 0.77473 0.23439 0.4714 0.0
C1317 C 0.7464 0.29145 0.4288 0.0
C1318 C 0.51619 0.78878 0.58065 0.0
C1319 C 0.52296 0.83027 0.59645 0.0
H1320 H 0.51652 0.69927 0.57117 0.0
C1321 C 0.51667 0.80405 0.61523 0.0
H1322 H 0.51939 0.80676 0.566 0.0
C1323 C 0.51752 0.74357 0.61818 0.0
C1324 C 0.52295 0.70806 0.60234 0.0
H1325 H 0.51882 0.83389 0.62768 0.0
H1326 H 0.52178 0.7292 0.63282 0.0
C1327 C 0.51533 0.72748 0.58362 0.0
C1328 C 0.74458 0.4938 0.76631 0.0
C1329 C 0.73443 0.52509 0.75013 0.0
H1330 H 0.81407 0.47413 0.78198 0.0
C1331 C 0.78083 0.54621 0.73498 0.0
H1332 H 0.70824 0.47557 0.77802 0.0
C1333 C 0.84299 0.54919 0.73764 0.0
C1334 C 0.85902 0.52993 0.75548 0.0
H1335 H 0.77338 0.56962 0.72223 0.0
H1336 H 0.88025 0.57501 0.72653 0.0
C1337 C 0.80604 0.49451 0.76872 0.0
C1338 C 0.37808 0.79244 0.94922 0.0
C1339 C 0.41219 0.83366 0.93335 0.0
H1340 H 0.28943 0.70405 0.95897 0.0
C1341 C 0.3911 0.80827 0.91461 0.0
H1342 H 0.39357 0.8098 0.96385 0.0
C1343 C 0.33013 0.74876 0.91183 0.0
C1344 C 0.2905 0.71333 0.92779 0.0
H1345 H 0.41815 0.8378 0.90208 0.0
H1346 H 0.31101 0.73485 0.89727 0.0
C1347 C 0.31794 0.73216 0.94643 0.0
C1348 C 0.65252 0.3294 0.08214 0.0
C1349 C 0.64459 0.28734 0.09797 0.0
H1350 H 0.65126 0.4183 0.07238 0.0
C1351 C 0.64774 0.31243 0.11673 0.0
H1352 H 0.65174 0.31251 0.0675 0.0
C1353 C 0.64493 0.37198 0.11949 0.0
C1354 C 0.64073 0.40772 0.10348 0.0
H1355 H 0.64493 0.28244 0.12925 0.0
H1356 H 0.63827 0.38538 0.134 0.0
C1357 C 0.65157 0.38982 0.08493 0.0
C1358 C 0.42667 0.62899 0.26704 0.0
C1359 C 0.43744 0.60664 0.24914 0.0
H1360 H 0.3554 0.63821 0.28499 0.0
C1361 C 0.39682 0.60327 0.23343 0.0
H1362 H 0.45959 0.63594 0.27918 0.0
C1363 C 0.33867 0.60822 0.23654 0.0
C1364 C 0.31939 0.614 0.25544 0.0
H1365 H 0.4047 0.58842 0.21925 0.0
H1366 H 0.30494 0.59927 0.22449 0.0
C1367 C 0.36707 0.63111 0.27033 0.0
loop_
_geom_bond_atom_site_label_1
_geom_bond_atom_site_label_2
_geom_bond_distance
_geom_bond_site_symmetry_2
_ccdc_geom_bond_type
Eu0 N29 2.600 1_565 S
Eu0 N35 2.562 . S
Eu0 O44 2.462 . S
Eu0 O45 2.373 1_565 S
Eu0 O47 2.432 . S
Eu0 O48 2.291 . S
Eu0 O52 2.335 . S
Eu0 O55 2.372 1_565 S
Eu0 C64 2.787 . S
C1 N2 1.365 . S
C1 C4 1.405 . S
C1 C8 1.448 . S
N2 C1 1.365 . S
N2 C5 1.319 . S
N2 Eu11 2.600 1_565 S
C3 C5 1.397 . S
C3 C6 1.367 . S
C3 H23 0.931 . S
C4 C1 1.405 . S
C4 C6 1.403 . S
C4 C10 1.439 . S
C5 N2 1.319 . S
C5 C3 1.397 . S
C5 H16 0.930 . S
C6 C3 1.367 . S
C6 C4 1.403 . S
C6 H27 0.929 . S
C7 C8 1.430 . S
C7 C9 1.387 . S
C7 C13 1.404 1_565 S
C8 C1 1.448 . S
C8 C7 1.430 . S
C8 N12 1.351 1_565 S
C9 C7 1.387 . S
C9 C10 1.374 . S
C9 H24 0.931 . S
C10 C4 1.439 . S
C10 C9 1.374 . S
C10 H25 0.931 . S
Eu11 N2 2.600 1_545 S
Eu11 N12 2.562 . S
Eu11 O46 2.335 . S
Eu11 O49 2.372 1_545 S
Eu11 O50 2.462 . S
Eu11 O51 2.373 1_545 S
Eu11 O53 2.432 . S
Eu11 O54 2.291 . S
Eu11 C75 2.787 . S
N12 C8 1.351 1_545 S
N12 Eu11 2.562 . S
N12 C14 1.325 . S
C13 C7 1.404 1_545 S
C13 C15 1.366 . S
C13 H21 0.930 . S
C14 N12 1.325 . S
C14 C15 1.416 . S
C14 H20 0.929 . S
C15 C13 1.366 . S
C15 C14 1.416 . S
C15 H17 0.930 . S
H16 C5 0.930 . S
H17 C15 0.930 . S
H18 C33 0.930 . S
H19 C40 0.930 . S
H20 C14 0.929 . S
H21 C13 0.930 . S
H22 C36 0.929 . S
H23 C3 0.931 . S
H24 C9 0.931 . S
H25 C10 0.931 . S
H26 C31 0.931 . S
H27 C6 0.929 . S
H28 C39 0.930 . S
N29 Eu0 2.600 1_545 S
N29 C30 1.365 . S
N29 C33 1.319 . S
C30 N29 1.365 . S
C30 C32 1.405 . S
C30 C38 1.448 . S
C31 H26 0.931 . S
C31 C33 1.397 . S
C31 C34 1.367 . S
C32 C30 1.405 . S
C32 C34 1.403 . S
C32 C65 1.439 . S
C33 H18 0.930 . S
C33 N29 1.319 . S
C33 C31 1.397 . S
C34 C31 1.367 . S
C34 C32 1.403 . S
C34 H41 0.929 . S
N35 Eu0 2.562 . S
N35 C36 1.325 . S
N35 C38 1.351 1_565 S
C36 H22 0.929 . S
C36 N35 1.325 . S
C36 C40 1.416 . S
C37 C38 1.430 . S
C37 C39 1.404 1_545 S
C37 C66 1.387 . S
C38 C30 1.448 . S
C38 N35 1.351 1_545 S
C38 C37 1.430 . S
C39 H28 0.930 . S
C39 C37 1.404 1_565 S
C39 C40 1.366 . S
C40 H19 0.930 . S
C40 C36 1.416 . S
C40 C39 1.366 . S
H41 C34 0.929 . S
H42 C65 0.931 . S
H43 C66 0.931 . S
O44 Eu0 2.462 . S
O44 C64 1.252 . S
O45 Eu0 2.373 1_545 S
O45 C56 1.249 . S
O46 Eu11 2.335 . S
O46 C56 1.264 . S
O47 Eu0 2.432 . S
O47 C64 1.268 . S
O48 Eu0 2.291 . S
O48 C63 1.255 . S
O49 Eu11 2.372 1_565 S
O49 C63 1.257 . S
O50 Eu11 2.462 . S
O50 C75 1.252 . S
O51 Eu11 2.373 1_565 S
O51 C67 1.249 . S
O52 Eu0 2.335 . S
O52 C67 1.264 . S
O53 Eu11 2.432 . S
O53 C75 1.268 . S
O54 Eu11 2.291 . S
O54 C74 1.255 . S
O55 Eu0 2.372 1_545 S
O55 C74 1.257 . S
C56 O45 1.249 . S
C56 O46 1.264 . S
C57 C60 1.382 . S
C57 C62 1.390 . S
C57 C64 1.506 . S
C58 C59 1.398 . S
C58 C62 1.392 . S
C59 C58 1.398 . S
C59 C61 1.372 . S
C59 H76 0.931 . S
C60 C57 1.382 . S
C60 C61 1.390 . S
C60 H77 0.931 . S
C61 C59 1.372 . S
C61 C60 1.390 . S
C61 H78 0.929 . S
C62 C57 1.390 . S
C62 C58 1.392 . S
C62 H79 0.930 . S
C63 O48 1.255 . S
C63 O49 1.257 . S
C64 Eu0 2.787 . S
C64 O44 1.252 . S
C64 O47 1.268 . S
C64 C57 1.506 . S
C65 C32 1.439 . S
C65 H42 0.931 . S
C65 C66 1.374 . S
C66 C37 1.387 . S
C66 H43 0.931 . S
C66 C65 1.374 . S
C67 O51 1.249 . S
C67 O52 1.264 . S
C68 C71 1.382 . S
C68 C72 1.390 . S
C68 C75 1.506 . S
C69 C70 1.398 . S
C69 C72 1.392 . S
C70 C69 1.398 . S
C70 C73 1.372 . S
C70 H80 0.931 . S
C71 C68 1.382 . S
C71 C73 1.390 . S
C71 H81 0.931 . S
C72 C68 1.390 . S
C72 C69 1.392 . S
C72 H82 0.930 . S
C73 C70 1.372 . S
C73 C71 1.390 . S
C73 H83 0.929 . S
C74 O54 1.255 . S
C74 O55 1.257 . S
C75 Eu11 2.787 . S
C75 O50 1.252 . S
C75 O53 1.268 . S
C75 C68 1.506 . S
H76 C59 0.931 . S
H77 C60 0.931 . S
H78 C61 0.929 . S
H79 C62 0.930 . S
H80 C70 0.931 . S
H81 C71 0.931 . S
H82 C72 0.930 . S
H83 C73 0.929 . S
Eu84 N113 2.600 . S
Eu84 N119 2.562 . S
Eu84 O128 2.462 . S
Eu84 O129 2.373 . S
Eu84 O131 2.432 . S
Eu84 O132 2.291 . S
Eu84 O136 2.335 . S
Eu84 O139 2.372 . S
Eu84 C148 2.787 . S
C85 N86 1.365 . S
C85 C88 1.405 . S
C85 C92 1.448 . S
N86 C85 1.365 . S
N86 C89 1.319 . S
N86 Eu95 2.600 . S
C87 C89 1.397 . S
C87 C90 1.367 . S
C87 H107 0.931 . S
C88 C85 1.405 . S
C88 C90 1.403 . S
C88 C94 1.439 . S
C89 N86 1.319 . S
C89 C87 1.397 . S
C89 H100 0.930 . S
C90 C87 1.367 . S
C90 C88 1.403 . S
C90 H111 0.929 . S
C91 C92 1.430 . S
C91 C93 1.387 . S
C91 C97 1.404 . S
C92 C85 1.448 . S
C92 C91 1.430 . S
C92 N96 1.351 . S
C93 C91 1.387 . S
C93 C94 1.374 . S
C93 H108 0.931 . S
C94 C88 1.439 . S
C94 C93 1.374 . S
C94 H109 0.931 . S
Eu95 N86 2.600 . S
Eu95 N96 2.562 . S
Eu95 O130 2.335 . S
Eu95 O133 2.372 . S
Eu95 O134 2.462 . S
Eu95 O135 2.373 . S
Eu95 O137 2.432 . S
Eu95 O138 2.291 . S
Eu95 C159 2.787 . S
N96 C92 1.351 . S
N96 Eu95 2.562 . S
N96 C98 1.325 . S
C97 C91 1.404 . S
C97 C99 1.366 . S
C97 H105 0.930 . S
C98 N96 1.325 . S
C98 C99 1.416 . S
C98 H104 0.929 . S
C99 C97 1.366 . S
C99 C98 1.416 . S
C99 H101 0.930 . S
H100 C89 0.930 . S
H101 C99 0.930 . S
H102 C117 0.930 . S
H103 C124 0.930 . S
H104 C98 0.929 . S
H105 C97 0.930 . S
H106 C120 0.929 . S
H107 C87 0.931 . S
H108 C93 0.931 . S
H109 C94 0.931 . S
H110 C115 0.931 . S
H111 C90 0.929 . S
H112 C123 0.930 . S
N113 Eu84 2.600 . S
N113 C114 1.365 . S
N113 C117 1.319 . S
C114 N113 1.365 . S
C114 C116 1.405 . S
C114 C122 1.448 . S
C115 H110 0.931 . S
C115 C117 1.397 . S
C115 C118 1.367 . S
C116 C114 1.405 . S
C116 C118 1.403 . S
C116 C149 1.439 . S
C117 H102 0.930 . S
C117 N113 1.319 . S
C117 C115 1.397 . S
C118 C115 1.367 . S
C118 C116 1.403 . S
C118 H125 0.929 . S
N119 Eu84 2.562 . S
N119 C120 1.325 . S
N119 C122 1.351 . S
C120 H106 0.929 . S
C120 N119 1.325 . S
C120 C124 1.416 . S
C121 C122 1.430 . S
C121 C123 1.404 . S
C121 C150 1.387 . S
C122 C114 1.448 . S
C122 N119 1.351 . S
C122 C121 1.430 . S
C123 H112 0.930 . S
C123 C121 1.404 . S
C123 C124 1.366 . S
C124 H103 0.930 . S
C124 C120 1.416 . S
C124 C123 1.366 . S
H125 C118 0.929 . S
H126 C149 0.931 . S
H127 C150 0.931 . S
O128 Eu84 2.462 . S
O128 C148 1.252 . S
O129 Eu84 2.373 . S
O129 C140 1.249 . S
O130 Eu95 2.335 . S
O130 C140 1.264 . S
O131 Eu84 2.432 . S
O131 C148 1.268 . S
O132 Eu84 2.291 . S
O132 C147 1.255 . S
O133 Eu95 2.372 . S
O133 C147 1.257 . S
O134 Eu95 2.462 . S
O134 C159 1.252 . S
O135 Eu95 2.373 . S
O135 C151 1.249 . S
O136 Eu84 2.335 . S
O136 C151 1.264 . S
O137 Eu95 2.432 . S
O137 C159 1.268 . S
O138 Eu95 2.291 . S
O138 C158 1.255 . S
O139 Eu84 2.372 . S
O139 C158 1.257 . S
C140 O129 1.249 . S
C140 O130 1.264 . S
C141 C144 1.382 . S
C141 C146 1.390 . S
C141 C148 1.506 . S
C142 C143 1.398 . S
C142 C146 1.392 . S
C143 C142 1.398 . S
C143 C145 1.372 . S
C143 H160 0.931 . S
C144 C141 1.382 . S
C144 C145 1.390 . S
C144 H161 0.931 . S
C145 C143 1.372 . S
C145 C144 1.390 . S
C145 H162 0.929 . S
C146 C141 1.390 . S
C146 C142 1.392 . S
C146 H163 0.930 . S
C147 O132 1.255 . S
C147 O133 1.257 . S
C148 Eu84 2.787 . S
C148 O128 1.252 . S
C148 O131 1.268 . S
C148 C141 1.506 . S
C149 C116 1.439 . S
C149 H126 0.931 . S
C149 C150 1.374 . S
C150 C121 1.387 . S
C150 H127 0.931 . S
C150 C149 1.374 . S
C151 O135 1.249 . S
C151 O136 1.264 . S
C152 C155 1.382 . S
C152 C156 1.390 . S
C152 C159 1.506 . S
C153 C154 1.398 . S
C153 C156 1.392 . S
C154 C153 1.398 . S
C154 C157 1.372 . S
C154 H164 0.931 . S
C155 C152 1.382 . S
C155 C157 1.390 . S
C155 H165 0.931 . S
C156 C152 1.390 . S
C156 C153 1.392 . S
C156 H166 0.930 . S
C157 C154 1.372 . S
C157 C155 1.390 . S
C157 H167 0.929 . S
C158 O138 1.255 . S
C158 O139 1.257 . S
C159 Eu95 2.787 . S
C159 O134 1.252 . S
C159 O137 1.268 . S
C159 C152 1.506 . S
H160 C143 0.931 . S
H161 C144 0.931 . S
H162 C145 0.929 . S
H163 C146 0.930 . S
H164 C154 0.931 . S
H165 C155 0.931 . S
H166 C156 0.930 . S
H167 C157 0.929 . S
Eu168 N197 2.600 1_455 S
Eu168 N203 2.562 . S
Eu168 O212 2.462 . S
Eu168 O213 2.373 1_455 S
Eu168 O215 2.432 . S
Eu168 O216 2.291 . S
Eu168 O220 2.335 . S
Eu168 O223 2.372 1_455 S
Eu168 C232 2.787 . S
C169 N170 1.365 . S
C169 C172 1.405 . S
C169 C176 1.448 . S
N170 C169 1.365 . S
N170 C173 1.319 . S
N170 Eu179 2.600 1_455 S
C171 C173 1.397 . S
C171 C174 1.367 . S
C171 H191 0.931 . S
C172 C169 1.405 . S
C172 C174 1.403 . S
C172 C178 1.439 . S
C173 N170 1.319 . S
C173 C171 1.397 . S
C173 H184 0.930 . S
C174 C171 1.367 . S
C174 C172 1.403 . S
C174 H195 0.929 . S
C175 C176 1.430 . S
C175 C177 1.387 . S
C175 C181 1.404 1_455 S
C176 C169 1.448 . S
C176 C175 1.430 . S
C176 N180 1.351 1_455 S
C177 C175 1.387 . S
C177 C178 1.374 . S
C177 H192 0.931 . S
C178 C172 1.439 . S
C178 C177 1.374 . S
C178 H193 0.931 . S
Eu179 N170 2.600 1_655 S
Eu179 N180 2.562 . S
Eu179 O214 2.335 . S
Eu179 O217 2.372 1_655 S
Eu179 O218 2.462 . S
Eu179 O219 2.373 1_655 S
Eu179 O221 2.432 . S
Eu179 O222 2.291 . S
Eu179 C243 2.787 . S
N180 C176 1.351 1_655 S
N180 Eu179 2.562 . S
N180 C182 1.325 . S
C181 C175 1.404 1_655 S
C181 C183 1.366 . S
C181 H189 0.930 . S
C182 N180 1.325 . S
C182 C183 1.416 . S
C182 H188 0.929 . S
C183 C181 1.366 . S
C183 C182 1.416 . S
C183 H185 0.930 . S
H184 C173 0.930 . S
H185 C183 0.930 . S
H186 C201 0.930 . S
H187 C208 0.930 . S
H188 C182 0.929 . S
H189 C181 0.930 . S
H190 C204 0.929 . S
H191 C171 0.931 . S
H192 C177 0.931 . S
H193 C178 0.931 . S
H194 C199 0.931 . S
H195 C174 0.929 . S
H196 C207 0.930 . S
N197 Eu168 2.600 1_655 S
N197 C198 1.365 . S
N197 C201 1.319 . S
C198 N197 1.365 . S
C198 C200 1.405 . S
C198 C206 1.448 . S
C199 H194 0.931 . S
C199 C201 1.397 . S
C199 C202 1.367 . S
C200 C198 1.405 . S
C200 C202 1.403 . S
C200 C233 1.439 . S
C201 H186 0.930 . S
C201 N197 1.319 . S
C201 C199 1.397 . S
C202 C199 1.367 . S
C202 C200 1.403 . S
C202 H209 0.929 . S
N203 Eu168 2.562 . S
N203 C204 1.325 . S
N203 C206 1.351 1_455 S
C204 H190 0.929 . S
C204 N203 1.325 . S
C204 C208 1.416 . S
C205 C206 1.430 . S
C205 C207 1.404 1_655 S
C205 C234 1.387 . S
C206 C198 1.448 . S
C206 N203 1.351 1_655 S
C206 C205 1.430 . S
C207 H196 0.930 . S
C207 C205 1.404 1_455 S
C207 C208 1.366 . S
C208 H187 0.930 . S
C208 C204 1.416 . S
C208 C207 1.366 . S
H209 C202 0.929 . S
H210 C233 0.931 . S
H211 C234 0.931 . S
O212 Eu168 2.462 . S
O212 C232 1.252 . S
O213 Eu168 2.373 1_655 S
O213 C224 1.249 . S
O214 Eu179 2.335 . S
O214 C224 1.264 . S
O215 Eu168 2.432 . S
O215 C232 1.268 . S
O216 Eu168 2.291 . S
O216 C231 1.255 . S
O217 Eu179 2.372 1_455 S
O217 C231 1.257 . S
O218 Eu179 2.462 . S
O218 C243 1.252 . S
O219 Eu179 2.373 1_455 S
O219 C235 1.249 . S
O220 Eu168 2.335 . S
O220 C235 1.264 . S
O221 Eu179 2.432 . S
O221 C243 1.268 . S
O222 Eu179 2.291 . S
O222 C242 1.255 . S
O223 Eu168 2.372 1_655 S
O223 C242 1.257 . S
C224 O213 1.249 . S
C224 O214 1.264 . S
C225 C228 1.382 . S
C225 C230 1.390 . S
C225 C232 1.506 . S
C226 C227 1.398 . S
C226 C230 1.392 . S
C227 C226 1.398 . S
C227 C229 1.372 . S
C227 H244 0.931 . S
C228 C225 1.382 . S
C228 C229 1.390 . S
C228 H245 0.931 . S
C229 C227 1.372 . S
C229 C228 1.390 . S
C229 H246 0.929 . S
C230 C225 1.390 . S
C230 C226 1.392 . S
C230 H247 0.930 . S
C231 O216 1.255 . S
C231 O217 1.257 . S
C232 Eu168 2.787 . S
C232 O212 1.252 . S
C232 O215 1.268 . S
C232 C225 1.506 . S
C233 C200 1.439 . S
C233 H210 0.931 . S
C233 C234 1.374 . S
C234 C205 1.387 . S
C234 H211 0.931 . S
C234 C233 1.374 . S
C235 O219 1.249 . S
C235 O220 1.264 . S
C236 C239 1.382 . S
C236 C240 1.390 . S
C236 C243 1.506 . S
C237 C238 1.398 . S
C237 C240 1.392 . S
C238 C237 1.398 . S
C238 C241 1.372 . S
C238 H248 0.931 . S
C239 C236 1.382 . S
C239 C241 1.390 . S
C239 H249 0.931 . S
C240 C236 1.390 . S
C240 C237 1.392 . S
C240 H250 0.930 . S
C241 C238 1.372 . S
C241 C239 1.390 . S
C241 H251 0.929 . S
C242 O222 1.255 . S
C242 O223 1.257 . S
C243 Eu179 2.787 . S
C243 O218 1.252 . S
C243 O221 1.268 . S
C243 C236 1.506 . S
H244 C227 0.931 . S
H245 C228 0.931 . S
H246 C229 0.929 . S
H247 C230 0.930 . S
H248 C238 0.931 . S
H249 C239 0.931 . S
H250 C240 0.930 . S
H251 C241 0.929 . S
Eu252 N281 2.600 1_545 S
Eu252 N287 2.562 . S
Eu252 O296 2.462 . S
Eu252 O297 2.373 1_545 S
Eu252 O299 2.432 . S
Eu252 O300 2.291 . S
Eu252 O304 2.335 . S
Eu252 O307 2.372 1_545 S
Eu252 C316 2.787 . S
C253 N254 1.365 . S
C253 C256 1.405 . S
C253 C260 1.448 . S
N254 C253 1.365 . S
N254 C257 1.319 . S
N254 Eu263 2.600 1_545 S
C255 C257 1.397 . S
C255 C258 1.367 . S
C255 H275 0.931 . S
C256 C253 1.405 . S
C256 C258 1.403 . S
C256 C262 1.439 . S
C257 N254 1.319 . S
C257 C255 1.397 . S
C257 H268 0.930 . S
C258 C255 1.367 . S
C258 C256 1.403 . S
C258 H279 0.929 . S
C259 C260 1.430 . S
C259 C261 1.387 . S
C259 C265 1.404 1_545 S
C260 C253 1.448 . S
C260 C259 1.430 . S
C260 N264 1.351 1_545 S
C261 C259 1.387 . S
C261 C262 1.374 . S
C261 H276 0.931 . S
C262 C256 1.439 . S
C262 C261 1.374 . S
C262 H277 0.931 . S
Eu263 N254 2.600 1_565 S
Eu263 N264 2.562 . S
Eu263 O298 2.335 . S
Eu263 O301 2.372 1_565 S
Eu263 O302 2.462 . S
Eu263 O303 2.373 1_565 S
Eu263 O305 2.432 . S
Eu263 O306 2.291 . S
Eu263 C327 2.787 . S
N264 C260 1.351 1_565 S
N264 Eu263 2.562 . S
N264 C266 1.325 . S
C265 C259 1.404 1_565 S
C265 C267 1.366 . S
C265 H273 0.930 . S
C266 N264 1.325 . S
C266 C267 1.416 . S
C266 H272 0.929 . S
C267 C265 1.366 . S
C267 C266 1.416 . S
C267 H269 0.930 . S
H268 C257 0.930 . S
H269 C267 0.930 . S
H270 C285 0.930 . S
H271 C292 0.930 . S
H272 C266 0.929 . S
H273 C265 0.930 . S
H274 C288 0.929 . S
H275 C255 0.931 . S
H276 C261 0.931 . S
H277 C262 0.931 . S
H278 C283 0.931 . S
H279 C258 0.929 . S
H280 C291 0.930 . S
N281 Eu252 2.600 1_565 S
N281 C282 1.365 . S
N281 C285 1.319 . S
C282 N281 1.365 . S
C282 C284 1.405 . S
C282 C290 1.448 . S
C283 H278 0.931 . S
C283 C285 1.397 . S
C283 C286 1.367 . S
C284 C282 1.405 . S
C284 C286 1.403 . S
C284 C317 1.439 . S
C285 H270 0.930 . S
C285 N281 1.319 . S
C285 C283 1.397 . S
C286 C283 1.367 . S
C286 C284 1.403 . S
C286 H293 0.929 . S
N287 Eu252 2.562 . S
N287 C288 1.325 . S
N287 C290 1.351 1_545 S
C288 H274 0.929 . S
C288 N287 1.325 . S
C288 C292 1.416 . S
C289 C290 1.430 . S
C289 C291 1.404 1_565 S
C289 C318 1.387 . S
C290 C282 1.448 . S
C290 N287 1.351 1_565 S
C290 C289 1.430 . S
C291 H280 0.930 . S
C291 C289 1.404 1_545 S
C291 C292 1.366 . S
C292 H271 0.930 . S
C292 C288 1.416 . S
C292 C291 1.366 . S
H293 C286 0.929 . S
H294 C317 0.931 . S
H295 C318 0.931 . S
O296 Eu252 2.462 . S
O296 C316 1.252 . S
O297 Eu252 2.373 1_565 S
O297 C308 1.249 . S
O298 Eu263 2.335 . S
O298 C308 1.264 . S
O299 Eu252 2.432 . S
O299 C316 1.268 . S
O300 Eu252 2.291 . S
O300 C315 1.255 . S
O301 Eu263 2.372 1_545 S
O301 C315 1.257 . S
O302 Eu263 2.462 . S
O302 C327 1.252 . S
O303 Eu263 2.373 1_545 S
O303 C319 1.249 . S
O304 Eu252 2.335 . S
O304 C319 1.264 . S
O305 Eu263 2.432 . S
O305 C327 1.268 . S
O306 Eu263 2.291 . S
O306 C326 1.255 . S
O307 Eu252 2.372 1_565 S
O307 C326 1.257 . S
C308 O297 1.249 . S
C308 O298 1.264 . S
C309 C312 1.382 . S
C309 C314 1.390 . S
C309 C316 1.506 . S
C310 C311 1.398 . S
C310 C314 1.392 . S
C311 C310 1.398 . S
C311 C313 1.372 . S
C311 H328 0.931 . S
C312 C309 1.382 . S
C312 C313 1.390 . S
C312 H329 0.931 . S
C313 C311 1.372 . S
C313 C312 1.390 . S
C313 H330 0.929 . S
C314 C309 1.390 . S
C314 C310 1.392 . S
C314 H331 0.930 . S
C315 O300 1.255 . S
C315 O301 1.257 . S
C316 Eu252 2.787 . S
C316 O296 1.252 . S
C316 O299 1.268 . S
C316 C309 1.506 . S
C317 C284 1.439 . S
C317 H294 0.931 . S
C317 C318 1.374 . S
C318 C289 1.387 . S
C318 H295 0.931 . S
C318 C317 1.374 . S
C319 O303 1.249 . S
C319 O304 1.264 . S
C320 C323 1.382 . S
C320 C324 1.390 . S
C320 C327 1.506 . S
C321 C322 1.398 . S
C321 C324 1.392 . S
C322 C321 1.398 . S
C322 C325 1.372 . S
C322 H332 0.931 . S
C323 C320 1.382 . S
C323 C325 1.390 . S
C323 H333 0.931 . S
C324 C320 1.390 . S
C324 C321 1.392 . S
C324 H334 0.930 . S
C325 C322 1.372 . S
C325 C323 1.390 . S
C325 H335 0.929 . S
C326 O306 1.255 . S
C326 O307 1.257 . S
C327 Eu263 2.787 . S
C327 O302 1.252 . S
C327 O305 1.268 . S
C327 C320 1.506 . S
H328 C311 0.931 . S
H329 C312 0.931 . S
H330 C313 0.929 . S
H331 C314 0.930 . S
H332 C322 0.931 . S
H333 C323 0.931 . S
H334 C324 0.930 . S
H335 C325 0.929 . S
Eu336 N365 2.600 1_554 S
Eu336 N371 2.562 . S
Eu336 O380 2.472 . S
Eu336 O381 2.373 . S
Eu336 O383 2.432 1_554 S
Eu336 O384 2.291 . S
Eu336 O388 2.335 . S
Eu336 O391 2.372 1_554 S
Eu336 C400 2.787 1_554 S
C337 N338 1.365 . S
C337 C340 1.405 . S
C337 C344 1.448 . S
N338 C337 1.365 . S
N338 C341 1.319 . S
N338 Eu347 2.600 . S
C339 C341 1.397 . S
C339 C342 1.367 . S
C339 H359 0.931 . S
C340 C337 1.405 . S
C340 C342 1.403 . S
C340 C346 1.439 . S
C341 N338 1.319 . S
C341 C339 1.397 . S
C341 H352 0.930 . S
C342 C339 1.367 . S
C342 C340 1.403 . S
C342 H363 0.929 . S
C343 C344 1.430 . S
C343 C345 1.387 . S
C343 C349 1.404 . S
C344 C337 1.448 . S
C344 C343 1.430 . S
C344 N348 1.351 . S
C345 C343 1.387 . S
C345 C346 1.374 . S
C345 H360 0.931 . S
C346 C340 1.439 . S
C346 C345 1.374 . S
C346 H361 0.931 . S
Eu347 N338 2.600 . S
Eu347 N348 2.562 . S
Eu347 O382 2.335 . S
Eu347 O385 2.372 . S
Eu347 O386 2.462 . S
Eu347 O387 2.373 . S
Eu347 O389 2.432 . S
Eu347 O390 2.291 . S
Eu347 C411 2.787 . S
N348 C344 1.351 . S
N348 Eu347 2.562 . S
N348 C350 1.325 . S
C349 C343 1.404 . S
C349 C351 1.366 . S
C349 H357 0.930 . S
C350 N348 1.325 . S
C350 C351 1.416 . S
C350 H356 0.929 . S
C351 C349 1.366 . S
C351 C350 1.416 . S
C351 H353 0.930 . S
H352 C341 0.930 . S
H353 C351 0.930 . S
H354 C369 0.930 . S
H355 C376 0.930 . S
H356 C350 0.929 . S
H357 C349 0.930 . S
H358 C372 0.929 . S
H359 C339 0.931 . S
H360 C345 0.931 . S
H361 C346 0.931 . S
H362 C367 0.931 . S
H363 C342 0.929 . S
H364 C375 0.930 . S
N365 Eu336 2.600 1_556 S
N365 C366 1.365 1_556 S
N365 C369 1.319 . S
C366 N365 1.365 1_554 S
C366 C368 1.412 . S
C366 C374 1.448 . S
C367 H362 0.931 . S
C367 C369 1.397 . S
C367 C370 1.367 . S
C368 C366 1.412 . S
C368 C370 1.385 1_554 S
C368 C401 1.451 . S
C369 H354 0.930 . S
C369 N365 1.319 . S
C369 C367 1.397 . S
C370 C367 1.367 . S
C370 C368 1.385 1_556 S
C370 H377 0.929 . S
N371 Eu336 2.562 . S
N371 C372 1.325 . S
N371 C374 1.351 . S
C372 H358 0.929 . S
C372 N371 1.325 . S
C372 C376 1.416 . S
C373 C374 1.430 . S
C373 C375 1.404 . S
C373 C402 1.387 . S
C374 C366 1.448 . S
C374 N371 1.351 . S
C374 C373 1.430 . S
C375 H364 0.930 . S
C375 C373 1.404 . S
C375 C376 1.366 . S
C376 H355 0.930 . S
C376 C372 1.416 . S
C376 C375 1.366 . S
H377 C370 0.929 . S
H378 C401 0.931 . S
H379 C402 0.931 . S
O380 Eu336 2.472 . S
O380 C400 1.220 1_554 S
O381 Eu336 2.373 . S
O381 C392 1.249 . S
O382 Eu347 2.335 . S
O382 C392 1.264 . S
O383 Eu336 2.432 1_556 S
O383 C400 1.268 . S
O384 Eu336 2.291 . S
O384 C399 1.255 . S
O385 Eu347 2.372 . S
O385 C399 1.257 . S
O386 Eu347 2.462 . S
O386 C411 1.252 . S
O387 Eu347 2.373 . S
O387 C403 1.249 . S
O388 Eu336 2.335 . S
O388 C403 1.264 . S
O389 Eu347 2.432 . S
O389 C411 1.268 . S
O390 Eu347 2.291 . S
O390 C410 1.255 . S
O391 Eu336 2.372 1_556 S
O391 C410 1.257 1_556 S
C392 O381 1.249 . S
C392 O382 1.264 . S
C393 C396 1.382 . S
C393 C398 1.390 . S
C393 C400 1.506 . S
C394 C395 1.398 . S
C394 C398 1.392 . S
C395 C394 1.398 . S
C395 C397 1.372 . S
C395 H412 0.931 . S
C396 C393 1.382 . S
C396 C397 1.390 . S
C396 H413 0.931 . S
C397 C395 1.372 . S
C397 C396 1.390 . S
C397 H414 0.929 . S
C398 C393 1.390 . S
C398 C394 1.392 . S
C398 H415 0.930 . S
C399 O384 1.255 . S
C399 O385 1.257 . S
C400 Eu336 2.787 1_556 S
C400 O380 1.220 1_556 S
C400 O383 1.268 . S
C400 C393 1.506 . S
C401 C368 1.451 . S
C401 H378 0.931 . S
C401 C402 1.374 . S
C402 C373 1.387 . S
C402 H379 0.931 . S
C402 C401 1.374 . S
C403 O387 1.249 . S
C403 O388 1.264 . S
C404 C407 1.382 . S
C404 C408 1.390 . S
C404 C411 1.506 . S
C405 C406 1.398 . S
C405 C408 1.392 . S
C406 C405 1.398 . S
C406 C409 1.372 . S
C406 H416 0.931 . S
C407 C404 1.382 . S
C407 C409 1.390 . S
C407 H417 0.931 . S
C408 C404 1.390 . S
C408 C405 1.392 . S
C408 H418 0.930 . S
C409 C406 1.372 . S
C409 C407 1.390 . S
C409 H419 0.929 . S
C410 O390 1.255 . S
C410 O391 1.257 1_554 S
C411 Eu347 2.787 . S
C411 O386 1.252 . S
C411 O389 1.268 . S
C411 C404 1.506 . S
H412 C395 0.931 . S
H413 C396 0.931 . S
H414 C397 0.929 . S
H415 C398 0.930 . S
H416 C406 0.931 . S
H417 C407 0.931 . S
H418 C408 0.930 . S
H419 C409 0.929 . S
Eu420 N449 2.600 1_655 S
Eu420 N455 2.562 . S
Eu420 O464 2.462 . S
Eu420 O465 2.373 1_655 S
Eu420 O467 2.432 . S
Eu420 O468 2.291 . S
Eu420 O472 2.335 . S
Eu420 O475 2.372 1_655 S
Eu420 C484 2.787 . S
C421 N422 1.365 . S
C421 C424 1.405 . S
C421 C428 1.448 . S
N422 C421 1.365 . S
N422 C425 1.319 . S
N422 Eu431 2.600 1_655 S
C423 C425 1.397 . S
C423 C426 1.367 . S
C423 H443 0.931 . S
C424 C421 1.405 . S
C424 C426 1.403 . S
C424 C430 1.439 . S
C425 N422 1.319 . S
C425 C423 1.397 . S
C425 H436 0.930 . S
C426 C423 1.367 . S
C426 C424 1.403 . S
C426 H447 0.929 . S
C427 C428 1.430 . S
C427 C429 1.387 . S
C427 C433 1.404 1_655 S
C428 C421 1.448 . S
C428 C427 1.430 . S
C428 N432 1.351 1_655 S
C429 C427 1.387 . S
C429 C430 1.374 . S
C429 H444 0.931 . S
C430 C424 1.439 . S
C430 C429 1.374 . S
C430 H445 0.931 . S
Eu431 N422 2.600 1_455 S
Eu431 N432 2.562 . S
Eu431 O466 2.335 . S
Eu431 O469 2.372 1_455 S
Eu431 O470 2.462 . S
Eu431 O471 2.373 1_455 S
Eu431 O473 2.432 . S
Eu431 O474 2.291 . S
Eu431 C495 2.787 . S
N432 C428 1.351 1_455 S
N432 Eu431 2.562 . S
N432 C434 1.325 . S
C433 C427 1.404 1_455 S
C433 C435 1.366 . S
C433 H441 0.930 . S
C434 N432 1.325 . S
C434 C435 1.416 . S
C434 H440 0.929 . S
C435 C433 1.366 . S
C435 C434 1.416 . S
C435 H437 0.930 . S
H436 C425 0.930 . S
H437 C435 0.930 . S
H438 C453 0.930 . S
H439 C460 0.930 . S
H440 C434 0.929 . S
H441 C433 0.930 . S
H442 C456 0.929 . S
H443 C423 0.931 . S
H444 C429 0.931 . S
H445 C430 0.931 . S
H446 C451 0.931 . S
H447 C426 0.929 . S
H448 C459 0.930 . S
N449 Eu420 2.600 1_455 S
N449 C450 1.365 . S
N449 C453 1.319 . S
C450 N449 1.365 . S
C450 C452 1.405 . S
C450 C458 1.448 . S
C451 H446 0.931 . S
C451 C453 1.397 . S
C451 C454 1.367 . S
C452 C450 1.405 . S
C452 C454 1.403 . S
C452 C485 1.439 . S
C453 H438 0.930 . S
C453 N449 1.319 . S
C453 C451 1.397 . S
C454 C451 1.367 . S
C454 C452 1.403 . S
C454 H461 0.929 . S
N455 Eu420 2.562 . S
N455 C456 1.325 . S
N455 C458 1.351 1_655 S
C456 H442 0.929 . S
C456 N455 1.325 . S
C456 C460 1.416 . S
C457 C458 1.430 . S
C457 C459 1.404 1_455 S
C457 C486 1.387 . S
C458 C450 1.448 . S
C458 N455 1.351 1_455 S
C458 C457 1.430 . S
C459 H448 0.930 . S
C459 C457 1.404 1_655 S
C459 C460 1.366 . S
C460 H439 0.930 . S
C460 C456 1.416 . S
C460 C459 1.366 . S
H461 C454 0.929 . S
H462 C485 0.931 . S
H463 C486 0.931 . S
O464 Eu420 2.462 . S
O464 C484 1.252 . S
O465 Eu420 2.373 1_455 S
O465 C476 1.249 . S
O466 Eu431 2.335 . S
O466 C476 1.264 . S
O467 Eu420 2.432 . S
O467 C484 1.268 . S
O468 Eu420 2.291 . S
O468 C483 1.255 . S
O469 Eu431 2.372 1_655 S
O469 C483 1.257 . S
O470 Eu431 2.462 . S
O470 C495 1.252 . S
O471 Eu431 2.373 1_655 S
O471 C487 1.249 . S
O472 Eu420 2.335 . S
O472 C487 1.264 . S
O473 Eu431 2.432 . S
O473 C495 1.268 . S
O474 Eu431 2.291 . S
O474 C494 1.255 . S
O475 Eu420 2.372 1_455 S
O475 C494 1.257 . S
C476 O465 1.249 . S
C476 O466 1.264 . S
C477 C480 1.382 . S
C477 C482 1.390 . S
C477 C484 1.506 . S
C478 C479 1.398 . S
C478 C482 1.392 . S
C479 C478 1.398 . S
C479 C481 1.372 . S
C479 H496 0.931 . S
C480 C477 1.382 . S
C480 C481 1.390 . S
C480 H497 0.931 . S
C481 C479 1.372 . S
C481 C480 1.390 . S
C481 H498 0.929 . S
C482 C477 1.390 . S
C482 C478 1.392 . S
C482 H499 0.930 . S
C483 O468 1.255 . S
C483 O469 1.257 . S
C484 Eu420 2.787 . S
C484 O464 1.252 . S
C484 O467 1.268 . S
C484 C477 1.506 . S
C485 C452 1.439 . S
C485 H462 0.931 . S
C485 C486 1.374 . S
C486 C457 1.387 . S
C486 H463 0.931 . S
C486 C485 1.374 . S
C487 O471 1.249 . S
C487 O472 1.264 . S
C488 C491 1.382 . S
C488 C492 1.390 . S
C488 C495 1.506 . S
C489 C490 1.398 . S
C489 C492 1.392 . S
C490 C489 1.398 . S
C490 C493 1.372 . S
C490 H500 0.931 . S
C491 C488 1.382 . S
C491 C493 1.390 . S
C491 H501 0.931 . S
C492 C488 1.390 . S
C492 C489 1.392 . S
C492 H502 0.930 . S
C493 C490 1.372 . S
C493 C491 1.390 . S
C493 H503 0.929 . S
C494 O474 1.255 . S
C494 O475 1.257 . S
C495 Eu431 2.787 . S
C495 O470 1.252 . S
C495 O473 1.268 . S
C495 C488 1.506 . S
H496 C479 0.931 . S
H497 C480 0.931 . S
H498 C481 0.929 . S
H499 C482 0.930 . S
H500 C490 0.931 . S
H501 C491 0.931 . S
H502 C492 0.930 . S
H503 C493 0.929 . S
Eu504 N533 2.600 1_455 S
Eu504 N539 2.562 . S
Eu504 O548 2.462 . S
Eu504 O549 2.373 1_455 S
Eu504 O551 2.432 . S
Eu504 O552 2.291 . S
Eu504 O556 2.335 . S
Eu504 O559 2.372 1_455 S
Eu504 C568 2.787 . S
C505 N506 1.365 . S
C505 C508 1.405 . S
C505 C512 1.448 . S
N506 C505 1.365 . S
N506 C509 1.319 . S
N506 Eu515 2.600 1_455 S
C507 C509 1.397 . S
C507 C510 1.367 . S
C507 H527 0.931 . S
C508 C505 1.405 . S
C508 C510 1.403 . S
C508 C514 1.439 . S
C509 N506 1.319 . S
C509 C507 1.397 . S
C509 H520 0.930 . S
C510 C507 1.367 . S
C510 C508 1.403 . S
C510 H531 0.929 . S
C511 C512 1.430 . S
C511 C513 1.387 . S
C511 C517 1.404 1_455 S
C512 C505 1.448 . S
C512 C511 1.430 . S
C512 N516 1.351 1_455 S
C513 C511 1.387 . S
C513 C514 1.374 . S
C513 H528 0.931 . S
C514 C508 1.439 . S
C514 C513 1.374 . S
C514 H529 0.931 . S
Eu515 N506 2.600 1_655 S
Eu515 N516 2.562 . S
Eu515 O550 2.335 . S
Eu515 O553 2.372 1_655 S
Eu515 O554 2.462 . S
Eu515 O555 2.373 1_655 S
Eu515 O557 2.432 . S
Eu515 O558 2.291 . S
Eu515 C579 2.787 . S
N516 C512 1.351 1_655 S
N516 Eu515 2.562 . S
N516 C518 1.325 . S
C517 C511 1.404 1_655 S
C517 C519 1.366 . S
C517 H525 0.930 . S
C518 N516 1.325 . S
C518 C519 1.416 . S
C518 H524 0.929 . S
C519 C517 1.366 . S
C519 C518 1.416 . S
C519 H521 0.930 . S
H520 C509 0.930 . S
H521 C519 0.930 . S
H522 C537 0.930 . S
H523 C544 0.930 . S
H524 C518 0.929 . S
H525 C517 0.930 . S
H526 C540 0.929 . S
H527 C507 0.931 . S
H528 C513 0.931 . S
H529 C514 0.931 . S
H530 C535 0.931 . S
H531 C510 0.929 . S
H532 C543 0.930 . S
N533 Eu504 2.600 1_655 S
N533 C534 1.365 . S
N533 C537 1.319 . S
C534 N533 1.365 . S
C534 C536 1.405 . S
C534 C542 1.448 . S
C535 H530 0.931 . S
C535 C537 1.397 . S
C535 C538 1.367 . S
C536 C534 1.405 . S
C536 C538 1.403 . S
C536 C569 1.439 . S
C537 H522 0.930 . S
C537 N533 1.319 . S
C537 C535 1.397 . S
C538 C535 1.367 . S
C538 C536 1.403 . S
C538 H545 0.929 . S
N539 Eu504 2.562 . S
N539 C540 1.325 . S
N539 C542 1.351 1_455 S
C540 H526 0.929 . S
C540 N539 1.325 . S
C540 C544 1.416 . S
C541 C542 1.430 . S
C541 C543 1.404 1_655 S
C541 C570 1.387 . S
C542 C534 1.448 . S
C542 N539 1.351 1_655 S
C542 C541 1.430 . S
C543 H532 0.930 . S
C543 C541 1.404 1_455 S
C543 C544 1.366 . S
C544 H523 0.930 . S
C544 C540 1.416 . S
C544 C543 1.366 . S
H545 C538 0.929 . S
H546 C569 0.931 . S
H547 C570 0.931 . S
O548 Eu504 2.462 . S
O548 C568 1.252 . S
O549 Eu504 2.373 1_655 S
O549 C560 1.249 . S
O550 Eu515 2.335 . S
O550 C560 1.264 . S
O551 Eu504 2.432 . S
O551 C568 1.268 . S
O552 Eu504 2.291 . S
O552 C567 1.255 . S
O553 Eu515 2.372 1_455 S
O553 C567 1.257 . S
O554 Eu515 2.462 . S
O554 C579 1.252 . S
O555 Eu515 2.373 1_455 S
O555 C571 1.249 . S
O556 Eu504 2.335 . S
O556 C571 1.264 . S
O557 Eu515 2.432 . S
O557 C579 1.268 . S
O558 Eu515 2.291 . S
O558 C578 1.255 . S
O559 Eu504 2.372 1_655 S
O559 C578 1.257 . S
C560 O549 1.249 . S
C560 O550 1.264 . S
C561 C564 1.382 . S
C561 C566 1.390 . S
C561 C568 1.506 . S
C562 C563 1.398 . S
C562 C566 1.392 . S
C563 C562 1.398 . S
C563 C565 1.372 . S
C563 H580 0.931 . S
C564 C561 1.382 . S
C564 C565 1.390 . S
C564 H581 0.931 . S
C565 C563 1.372 . S
C565 C564 1.390 . S
C565 H582 0.929 . S
C566 C561 1.390 . S
C566 C562 1.392 . S
C566 H583 0.930 . S
C567 O552 1.255 . S
C567 O553 1.257 . S
C568 Eu504 2.787 . S
C568 O548 1.252 . S
C568 O551 1.268 . S
C568 C561 1.506 . S
C569 C536 1.439 . S
C569 H546 0.931 . S
C569 C570 1.374 . S
C570 C541 1.387 . S
C570 H547 0.931 . S
C570 C569 1.374 . S
C571 O555 1.249 . S
C571 O556 1.264 . S
C572 C575 1.382 . S
C572 C576 1.390 . S
C572 C579 1.506 . S
C573 C574 1.398 . S
C573 C576 1.392 . S
C574 C573 1.398 . S
C574 C577 1.372 . S
C574 H584 0.931 . S
C575 C572 1.382 . S
C575 C577 1.390 . S
C575 H585 0.931 . S
C576 C572 1.390 . S
C576 C573 1.392 . S
C576 H586 0.930 . S
C577 C574 1.372 . S
C577 C575 1.390 . S
C577 H587 0.929 . S
C578 O558 1.255 . S
C578 O559 1.257 . S
C579 Eu515 2.787 . S
C579 O554 1.252 . S
C579 O557 1.268 . S
C579 C572 1.506 . S
H580 C563 0.931 . S
H581 C564 0.931 . S
H582 C565 0.929 . S
H583 C566 0.930 . S
H584 C574 0.931 . S
H585 C575 0.931 . S
H586 C576 0.930 . S
H587 C577 0.929 . S
Eu588 N617 2.600 1_545 S
Eu588 N623 2.562 . S
Eu588 O632 2.462 . S
Eu588 O633 2.373 1_545 S
Eu588 O635 2.432 . S
Eu588 O636 2.291 . S
Eu588 O640 2.335 . S
Eu588 O643 2.372 1_545 S
Eu588 C652 2.787 . S
C589 N590 1.365 . S
C589 C592 1.405 . S
C589 C596 1.448 . S
N590 C589 1.365 . S
N590 C593 1.319 . S
N590 Eu599 2.600 1_545 S
C591 C593 1.397 . S
C591 C594 1.367 . S
C591 H611 0.931 . S
C592 C589 1.405 . S
C592 C594 1.403 . S
C592 C598 1.439 . S
C593 N590 1.319 . S
C593 C591 1.397 . S
C593 H604 0.930 . S
C594 C591 1.367 . S
C594 C592 1.403 . S
C594 H615 0.929 . S
C595 C596 1.430 . S
C595 C597 1.387 . S
C595 C601 1.404 1_545 S
C596 C589 1.448 . S
C596 C595 1.430 . S
C596 N600 1.351 1_545 S
C597 C595 1.387 . S
C597 C598 1.374 . S
C597 H612 0.931 . S
C598 C592 1.439 . S
C598 C597 1.374 . S
C598 H613 0.931 . S
Eu599 N590 2.600 1_565 S
Eu599 N600 2.562 . S
Eu599 O634 2.335 . S
Eu599 O637 2.372 1_565 S
Eu599 O638 2.462 . S
Eu599 O639 2.373 1_565 S
Eu599 O641 2.432 . S
Eu599 O642 2.291 . S
Eu599 C663 2.787 . S
N600 C596 1.351 1_565 S
N600 Eu599 2.562 . S
N600 C602 1.325 . S
C601 C595 1.404 1_565 S
C601 C603 1.366 . S
C601 H609 0.930 . S
C602 N600 1.325 . S
C602 C603 1.416 . S
C602 H608 0.929 . S
C603 C601 1.366 . S
C603 C602 1.416 . S
C603 H605 0.930 . S
H604 C593 0.930 . S
H605 C603 0.930 . S
H606 C621 0.930 . S
H607 C628 0.930 . S
H608 C602 0.929 . S
H609 C601 0.930 . S
H610 C624 0.929 . S
H611 C591 0.931 . S
H612 C597 0.931 . S
H613 C598 0.931 . S
H614 C619 0.931 . S
H615 C594 0.929 . S
H616 C627 0.930 . S
N617 Eu588 2.600 1_565 S
N617 C618 1.365 . S
N617 C621 1.319 . S
C618 N617 1.365 . S
C618 C620 1.405 . S
C618 C626 1.448 . S
C619 H614 0.931 . S
C619 C621 1.397 . S
C619 C622 1.367 . S
C620 C618 1.405 . S
C620 C622 1.403 . S
C620 C653 1.439 . S
C621 H606 0.930 . S
C621 N617 1.319 . S
C621 C619 1.397 . S
C622 C619 1.367 . S
C622 C620 1.403 . S
C622 H629 0.929 . S
N623 Eu588 2.562 . S
N623 C624 1.325 . S
N623 C626 1.351 1_545 S
C624 H610 0.929 . S
C624 N623 1.325 . S
C624 C628 1.416 . S
C625 C626 1.430 . S
C625 C627 1.404 1_565 S
C625 C654 1.387 . S
C626 C618 1.448 . S
C626 N623 1.351 1_565 S
C626 C625 1.430 . S
C627 H616 0.930 . S
C627 C625 1.404 1_545 S
C627 C628 1.366 . S
C628 H607 0.930 . S
C628 C624 1.416 . S
C628 C627 1.366 . S
H629 C622 0.929 . S
H630 C653 0.931 . S
H631 C654 0.931 . S
O632 Eu588 2.462 . S
O632 C652 1.252 . S
O633 Eu588 2.373 1_565 S
O633 C644 1.249 . S
O634 Eu599 2.335 . S
O634 C644 1.264 . S
O635 Eu588 2.432 . S
O635 C652 1.268 . S
O636 Eu588 2.291 . S
O636 C651 1.255 . S
O637 Eu599 2.372 1_545 S
O637 C651 1.257 . S
O638 Eu599 2.462 . S
O638 C663 1.252 . S
O639 Eu599 2.373 1_545 S
O639 C655 1.249 . S
O640 Eu588 2.335 . S
O640 C655 1.264 . S
O641 Eu599 2.432 . S
O641 C663 1.268 . S
O642 Eu599 2.291 . S
O642 C662 1.255 . S
O643 Eu588 2.372 1_565 S
O643 C662 1.257 . S
C644 O633 1.249 . S
C644 O634 1.264 . S
C645 C648 1.382 . S
C645 C650 1.390 . S
C645 C652 1.506 . S
C646 C647 1.398 . S
C646 C650 1.392 . S
C647 C646 1.398 . S
C647 C649 1.372 . S
C647 H664 0.931 . S
C648 C645 1.382 . S
C648 C649 1.390 . S
C648 H665 0.931 . S
C649 C647 1.372 . S
C649 C648 1.390 . S
C649 H666 0.929 . S
C650 C645 1.390 . S
C650 C646 1.392 . S
C650 H667 0.930 . S
C651 O636 1.255 . S
C651 O637 1.257 . S
C652 Eu588 2.787 . S
C652 O632 1.252 . S
C652 O635 1.268 . S
C652 C645 1.506 . S
C653 C620 1.439 . S
C653 H630 0.931 . S
C653 C654 1.374 . S
C654 C625 1.387 . S
C654 H631 0.931 . S
C654 C653 1.374 . S
C655 O639 1.249 . S
C655 O640 1.264 . S
C656 C659 1.382 . S
C656 C660 1.390 . S
C656 C663 1.506 . S
C657 C658 1.398 . S
C657 C660 1.392 . S
C658 C657 1.398 . S
C658 C661 1.372 . S
C658 H668 0.931 . S
C659 C656 1.382 . S
C659 C661 1.390 . S
C659 H669 0.931 . S
C660 C656 1.390 . S
C660 C657 1.392 . S
C660 H670 0.930 . S
C661 C658 1.372 . S
C661 C659 1.390 . S
C661 H671 0.929 . S
C662 O642 1.255 . S
C662 O643 1.257 . S
C663 Eu599 2.787 . S
C663 O638 1.252 . S
C663 O641 1.268 . S
C663 C656 1.506 . S
H664 C647 0.931 . S
H665 C648 0.931 . S
H666 C649 0.929 . S
H667 C650 0.930 . S
H668 C658 0.931 . S
H669 C659 0.931 . S
H670 C660 0.930 . S
H671 C661 0.929 . S
Eu672 N701 2.600 . S
Eu672 N707 2.562 . S
Eu672 O716 2.462 . S
Eu672 O717 2.373 . S
Eu672 O719 2.432 . S
Eu672 O720 2.291 . S
Eu672 O724 2.335 . S
Eu672 O727 2.372 . S
Eu672 C736 2.787 . S
C673 N674 1.365 . S
C673 C676 1.405 . S
C673 C680 1.448 . S
N674 C673 1.365 . S
N674 C677 1.319 . S
N674 Eu683 2.600 . S
C675 C677 1.397 . S
C675 C678 1.367 . S
C675 H695 0.931 . S
C676 C673 1.405 . S
C676 C678 1.403 . S
C676 C682 1.439 . S
C677 N674 1.319 . S
C677 C675 1.397 . S
C677 H688 0.930 . S
C678 C675 1.367 . S
C678 C676 1.403 . S
C678 H699 0.929 . S
C679 C680 1.430 . S
C679 C681 1.387 . S
C679 C685 1.404 . S
C680 C673 1.448 . S
C680 C679 1.430 . S
C680 N684 1.351 . S
C681 C679 1.387 . S
C681 C682 1.374 . S
C681 H696 0.931 . S
C682 C676 1.439 . S
C682 C681 1.374 . S
C682 H697 0.931 . S
Eu683 N674 2.600 . S
Eu683 N684 2.562 . S
Eu683 O718 2.335 . S
Eu683 O721 2.372 . S
Eu683 O722 2.462 . S
Eu683 O723 2.373 . S
Eu683 O725 2.432 . S
Eu683 O726 2.291 . S
Eu683 C747 2.787 . S
N684 C680 1.351 . S
N684 Eu683 2.562 . S
N684 C686 1.325 . S
C685 C679 1.404 . S
C685 C687 1.366 . S
C685 H693 0.930 . S
C686 N684 1.325 . S
C686 C687 1.416 . S
C686 H692 0.929 . S
C687 C685 1.366 . S
C687 C686 1.416 . S
C687 H689 0.930 . S
H688 C677 0.930 . S
H689 C687 0.930 . S
H690 C705 0.930 . S
H691 C712 0.930 . S
H692 C686 0.929 . S
H693 C685 0.930 . S
H694 C708 0.929 . S
H695 C675 0.931 . S
H696 C681 0.931 . S
H697 C682 0.931 . S
H698 C703 0.931 . S
H699 C678 0.929 . S
H700 C711 0.930 . S
N701 Eu672 2.600 . S
N701 C702 1.365 . S
N701 C705 1.319 . S
C702 N701 1.365 . S
C702 C704 1.405 . S
C702 C710 1.448 . S
C703 H698 0.931 . S
C703 C705 1.397 . S
C703 C706 1.367 . S
C704 C702 1.405 . S
C704 C706 1.403 . S
C704 C737 1.439 . S
C705 H690 0.930 . S
C705 N701 1.319 . S
C705 C703 1.397 . S
C706 C703 1.367 . S
C706 C704 1.403 . S
C706 H713 0.929 . S
N707 Eu672 2.562 . S
N707 C708 1.325 . S
N707 C710 1.351 . S
C708 H694 0.929 . S
C708 N707 1.325 . S
C708 C712 1.416 . S
C709 C710 1.430 . S
C709 C711 1.404 . S
C709 C738 1.387 . S
C710 C702 1.448 . S
C710 N707 1.351 . S
C710 C709 1.430 . S
C711 H700 0.930 . S
C711 C709 1.404 . S
C711 C712 1.366 . S
C712 H691 0.930 . S
C712 C708 1.416 . S
C712 C711 1.366 . S
H713 C706 0.929 . S
H714 C737 0.931 . S
H715 C738 0.931 . S
O716 Eu672 2.462 . S
O716 C736 1.252 . S
O717 Eu672 2.373 . S
O717 C728 1.249 . S
O718 Eu683 2.335 . S
O718 C728 1.264 . S
O719 Eu672 2.432 . S
O719 C736 1.268 . S
O720 Eu672 2.291 . S
O720 C735 1.255 . S
O721 Eu683 2.372 . S
O721 C735 1.257 . S
O722 Eu683 2.462 . S
O722 C747 1.252 . S
O723 Eu683 2.373 . S
O723 C739 1.249 . S
O724 Eu672 2.335 . S
O724 C739 1.264 . S
O725 Eu683 2.432 . S
O725 C747 1.268 . S
O726 Eu683 2.291 . S
O726 C746 1.255 . S
O727 Eu672 2.372 . S
O727 C746 1.257 . S
C728 O717 1.249 . S
C728 O718 1.264 . S
C729 C732 1.382 . S
C729 C734 1.390 . S
C729 C736 1.506 . S
C730 C731 1.398 . S
C730 C734 1.392 . S
C731 C730 1.398 . S
C731 C733 1.372 . S
C731 H748 0.931 . S
C732 C729 1.382 . S
C732 C733 1.390 . S
C732 H749 0.931 . S
C733 C731 1.372 . S
C733 C732 1.390 . S
C733 H750 0.929 . S
C734 C729 1.390 . S
C734 C730 1.392 . S
C734 H751 0.930 . S
C735 O720 1.255 . S
C735 O721 1.257 . S
C736 Eu672 2.787 . S
C736 O716 1.252 . S
C736 O719 1.268 . S
C736 C729 1.506 . S
C737 C704 1.439 . S
C737 H714 0.931 . S
C737 C738 1.374 . S
C738 C709 1.387 . S
C738 H715 0.931 . S
C738 C737 1.374 . S
C739 O723 1.249 . S
C739 O724 1.264 . S
C740 C743 1.382 . S
C740 C744 1.390 . S
C740 C747 1.506 . S
C741 C742 1.398 . S
C741 C744 1.392 . S
C742 C741 1.398 . S
C742 C745 1.372 . S
C742 H752 0.931 . S
C743 C740 1.382 . S
C743 C745 1.390 . S
C743 H753 0.931 . S
C744 C740 1.390 . S
C744 C741 1.392 . S
C744 H754 0.930 . S
C745 C742 1.372 . S
C745 C743 1.390 . S
C745 H755 0.929 . S
C746 O726 1.255 . S
C746 O727 1.257 . S
C747 Eu683 2.787 . S
C747 O722 1.252 . S
C747 O725 1.268 . S
C747 C740 1.506 . S
H748 C731 0.931 . S
H749 C732 0.931 . S
H750 C733 0.929 . S
H751 C734 0.930 . S
H752 C742 0.931 . S
H753 C743 0.931 . S
H754 C744 0.930 . S
H755 C745 0.929 . S
Eu756 N785 2.600 1_656 S
Eu756 N791 2.562 . S
Eu756 O800 2.458 1_556 S
Eu756 O801 2.373 1_655 S
Eu756 O803 2.432 1_556 S
Eu756 O804 2.291 . S
Eu756 O808 2.350 . S
Eu756 O811 2.372 1_656 S
Eu756 C820 2.787 1_556 S
C757 N758 1.365 . S
C757 C760 1.405 . S
C757 C764 1.448 . S
N758 C757 1.365 . S
N758 C761 1.319 . S
N758 Eu767 2.600 1_655 S
C759 C761 1.397 . S
C759 C762 1.367 . S
C759 H779 0.931 . S
C760 C757 1.405 . S
C760 C762 1.403 . S
C760 C766 1.439 . S
C761 N758 1.319 . S
C761 C759 1.397 . S
C761 H772 0.930 . S
C762 C759 1.367 . S
C762 C760 1.403 . S
C762 H783 0.929 . S
C763 C764 1.430 . S
C763 C765 1.387 . S
C763 C769 1.404 1_655 S
C764 C757 1.448 . S
C764 C763 1.430 . S
C764 N768 1.351 1_655 S
C765 C763 1.387 . S
C765 C766 1.374 . S
C765 H780 0.931 . S
C766 C760 1.439 . S
C766 C765 1.374 . S
C766 H781 0.931 . S
Eu767 N758 2.600 1_455 S
Eu767 N768 2.562 . S
Eu767 O802 2.335 . S
Eu767 O805 2.372 1_455 S
Eu767 O806 2.462 . S
Eu767 O807 2.373 1_455 S
Eu767 O809 2.432 . S
Eu767 O810 2.291 . S
Eu767 C831 2.787 . S
N768 C764 1.351 1_455 S
N768 Eu767 2.562 . S
N768 C770 1.325 . S
C769 C763 1.404 1_455 S
C769 C771 1.366 . S
C769 H777 0.930 . S
C770 N768 1.325 . S
C770 C771 1.416 . S
C770 H776 0.929 . S
C771 C769 1.366 . S
C771 C770 1.416 . S
C771 H773 0.930 . S
H772 C761 0.930 . S
H773 C771 0.930 . S
H774 C789 0.930 . S
H775 C796 0.930 . S
H776 C770 0.929 . S
H777 C769 0.930 . S
H778 C792 0.929 . S
H779 C759 0.931 . S
H780 C765 0.931 . S
H781 C766 0.931 . S
H782 C787 0.931 . S
H783 C762 0.929 . S
H784 C795 0.930 . S
N785 Eu756 2.600 1_454 S
N785 C786 1.365 1_554 S
N785 C789 1.319 . S
C786 N785 1.365 1_556 S
C786 C788 1.414 . S
C786 C794 1.448 . S
C787 H782 0.931 . S
C787 C789 1.397 . S
C787 C790 1.367 . S
C788 C786 1.414 . S
C788 C790 1.379 1_556 S
C788 C821 1.456 . S
C789 H774 0.930 . S
C789 N785 1.319 . S
C789 C787 1.397 . S
C790 C787 1.367 . S
C790 C788 1.379 1_554 S
C790 H797 0.929 . S
N791 Eu756 2.562 . S
N791 C792 1.325 . S
N791 C794 1.351 1_655 S
C792 H778 0.929 . S
C792 N791 1.325 . S
C792 C796 1.416 . S
C793 C794 1.430 . S
C793 C795 1.404 1_455 S
C793 C822 1.387 . S
C794 C786 1.448 . S
C794 N791 1.351 1_455 S
C794 C793 1.430 . S
C795 H784 0.930 . S
C795 C793 1.404 1_655 S
C795 C796 1.366 . S
C796 H775 0.930 . S
C796 C792 1.416 . S
C796 C795 1.366 . S
H797 C790 0.929 . S
H798 C821 0.931 . S
H799 C822 0.931 . S
O800 Eu756 2.458 1_554 S
O800 C820 1.265 . S
O801 Eu756 2.373 1_455 S
O801 C812 1.249 . S
O802 Eu767 2.335 . S
O802 C812 1.264 . S
O803 Eu756 2.432 1_554 S
O803 C820 1.268 . S
O804 Eu756 2.291 . S
O804 C819 1.255 . S
O805 Eu767 2.372 1_655 S
O805 C819 1.257 . S
O806 Eu767 2.462 . S
O806 C831 1.252 . S
O807 Eu767 2.373 1_655 S
O807 C823 1.249 . S
O808 Eu756 2.350 . S
O808 C823 1.279 . S
O809 Eu767 2.432 . S
O809 C831 1.268 . S
O810 Eu767 2.291 . S
O810 C830 1.255 . S
O811 Eu756 2.372 1_454 S
O811 C830 1.257 1_554 S
C812 O801 1.249 . S
C812 O802 1.264 . S
C813 C816 1.382 . S
C813 C818 1.390 . S
C813 C820 1.506 . S
C814 C815 1.398 . S
C814 C818 1.392 . S
C815 C814 1.398 . S
C815 C817 1.372 . S
C815 H832 0.931 . S
C816 C813 1.382 . S
C816 C817 1.390 . S
C816 H833 0.931 . S
C817 C815 1.372 . S
C817 C816 1.390 . S
C817 H834 0.929 . S
C818 C813 1.390 . S
C818 C814 1.392 . S
C818 H835 0.930 . S
C819 O804 1.255 . S
C819 O805 1.257 . S
C820 Eu756 2.787 1_554 S
C820 O800 1.265 . S
C820 O803 1.268 . S
C820 C813 1.506 . S
C821 C788 1.456 . S
C821 H798 0.931 . S
C821 C822 1.374 . S
C822 C793 1.387 . S
C822 H799 0.931 . S
C822 C821 1.374 . S
C823 O807 1.249 . S
C823 O808 1.279 . S
C824 C827 1.382 . S
C824 C828 1.390 . S
C824 C831 1.506 . S
C825 C826 1.398 . S
C825 C828 1.392 . S
C826 C825 1.398 . S
C826 C829 1.372 . S
C826 H836 0.931 . S
C827 C824 1.382 . S
C827 C829 1.390 . S
C827 H837 0.931 . S
C828 C824 1.390 . S
C828 C825 1.392 . S
C828 H838 0.930 . S
C829 C826 1.372 . S
C829 C827 1.390 . S
C829 H839 0.929 . S
C830 O810 1.255 . S
C830 O811 1.257 1_556 S
C831 Eu767 2.787 . S
C831 O806 1.252 . S
C831 O809 1.268 . S
C831 C824 1.506 . S
H832 C815 0.931 . S
H833 C816 0.931 . S
H834 C817 0.929 . S
H835 C818 0.930 . S
H836 C826 0.931 . S
H837 C827 0.931 . S
H838 C828 0.930 . S
H839 C829 0.929 . S
Eu840 N869 2.600 1_565 S
Eu840 N875 2.562 . S
Eu840 O884 2.462 . S
Eu840 O885 2.373 1_565 S
Eu840 O887 2.432 . S
Eu840 O888 2.291 . S
Eu840 O892 2.335 . S
Eu840 O895 2.372 1_565 S
Eu840 C904 2.787 . S
C841 N842 1.365 . S
C841 C844 1.405 . S
C841 C848 1.448 . S
N842 C841 1.365 . S
N842 C845 1.319 . S
N842 Eu851 2.600 1_565 S
C843 C845 1.397 . S
C843 C846 1.367 . S
C843 H863 0.931 . S
C844 C841 1.405 . S
C844 C846 1.403 . S
C844 C850 1.439 . S
C845 N842 1.319 . S
C845 C843 1.397 . S
C845 H856 0.930 . S
C846 C843 1.367 . S
C846 C844 1.403 . S
C846 H867 0.929 . S
C847 C848 1.430 . S
C847 C849 1.387 . S
C847 C853 1.404 1_565 S
C848 C841 1.448 . S
C848 C847 1.430 . S
C848 N852 1.351 1_565 S
C849 C847 1.387 . S
C849 C850 1.374 . S
C849 H864 0.931 . S
C850 C844 1.439 . S
C850 C849 1.374 . S
C850 H865 0.931 . S
Eu851 N842 2.600 1_545 S
Eu851 N852 2.562 . S
Eu851 O886 2.335 . S
Eu851 O889 2.372 1_545 S
Eu851 O890 2.462 . S
Eu851 O891 2.373 1_545 S
Eu851 O893 2.432 . S
Eu851 O894 2.291 . S
Eu851 C915 2.787 . S
N852 C848 1.351 1_545 S
N852 Eu851 2.562 . S
N852 C854 1.325 . S
C853 C847 1.404 1_545 S
C853 C855 1.366 . S
C853 H861 0.930 . S
C854 N852 1.325 . S
C854 C855 1.416 . S
C854 H860 0.929 . S
C855 C853 1.366 . S
C855 C854 1.416 . S
C855 H857 0.930 . S
H856 C845 0.930 . S
H857 C855 0.930 . S
H858 C873 0.930 . S
H859 C880 0.930 . S
H860 C854 0.929 . S
H861 C853 0.930 . S
H862 C876 0.929 . S
H863 C843 0.931 . S
H864 C849 0.931 . S
H865 C850 0.931 . S
H866 C871 0.931 . S
H867 C846 0.929 . S
H868 C879 0.930 . S
N869 Eu840 2.600 1_545 S
N869 C870 1.365 . S
N869 C873 1.319 . S
C870 N869 1.365 . S
C870 C872 1.405 . S
C870 C878 1.448 . S
C871 H866 0.931 . S
C871 C873 1.397 . S
C871 C874 1.367 . S
C872 C870 1.405 . S
C872 C874 1.403 . S
C872 C905 1.439 . S
C873 H858 0.930 . S
C873 N869 1.319 . S
C873 C871 1.397 . S
C874 C871 1.367 . S
C874 C872 1.403 . S
C874 H881 0.929 . S
N875 Eu840 2.562 . S
N875 C876 1.325 . S
N875 C878 1.351 1_565 S
C876 H862 0.929 . S
C876 N875 1.325 . S
C876 C880 1.416 . S
C877 C878 1.430 . S
C877 C879 1.404 1_545 S
C877 C906 1.387 . S
C878 C870 1.448 . S
C878 N875 1.351 1_545 S
C878 C877 1.430 . S
C879 H868 0.930 . S
C879 C877 1.404 1_565 S
C879 C880 1.366 . S
C880 H859 0.930 . S
C880 C876 1.416 . S
C880 C879 1.366 . S
H881 C874 0.929 . S
H882 C905 0.931 . S
H883 C906 0.931 . S
O884 Eu840 2.462 . S
O884 C904 1.252 . S
O885 Eu840 2.373 1_545 S
O885 C896 1.249 . S
O886 Eu851 2.335 . S
O886 C896 1.264 . S
O887 Eu840 2.432 . S
O887 C904 1.268 . S
O888 Eu840 2.291 . S
O888 C903 1.255 . S
O889 Eu851 2.372 1_565 S
O889 C903 1.257 . S
O890 Eu851 2.462 . S
O890 C915 1.252 . S
O891 Eu851 2.373 1_565 S
O891 C907 1.249 . S
O892 Eu840 2.335 . S
O892 C907 1.264 . S
O893 Eu851 2.432 . S
O893 C915 1.268 . S
O894 Eu851 2.291 . S
O894 C914 1.255 . S
O895 Eu840 2.372 1_545 S
O895 C914 1.257 . S
C896 O885 1.249 . S
C896 O886 1.264 . S
C897 C900 1.382 . S
C897 C902 1.390 . S
C897 C904 1.506 . S
C898 C899 1.398 . S
C898 C902 1.392 . S
C899 C898 1.398 . S
C899 C901 1.372 . S
C899 H916 0.931 . S
C900 C897 1.382 . S
C900 C901 1.390 . S
C900 H917 0.931 . S
C901 C899 1.372 . S
C901 C900 1.390 . S
C901 H918 0.929 . S
C902 C897 1.390 . S
C902 C898 1.392 . S
C902 H919 0.930 . S
C903 O888 1.255 . S
C903 O889 1.257 . S
C904 Eu840 2.787 . S
C904 O884 1.252 . S
C904 O887 1.268 . S
C904 C897 1.506 . S
C905 C872 1.439 . S
C905 H882 0.931 . S
C905 C906 1.374 . S
C906 C877 1.387 . S
C906 H883 0.931 . S
C906 C905 1.374 . S
C907 O891 1.249 . S
C907 O892 1.264 . S
C908 C911 1.382 . S
C908 C912 1.390 . S
C908 C915 1.506 . S
C909 C910 1.398 . S
C909 C912 1.392 . S
C910 C909 1.398 . S
C910 C913 1.372 . S
C910 H920 0.931 . S
C911 C908 1.382 . S
C911 C913 1.390 . S
C911 H921 0.931 . S
C912 C908 1.390 . S
C912 C909 1.392 . S
C912 H922 0.930 . S
C913 C910 1.372 . S
C913 C911 1.390 . S
C913 H923 0.929 . S
C914 O894 1.255 . S
C914 O895 1.257 . S
C915 Eu851 2.787 . S
C915 O890 1.252 . S
C915 O893 1.268 . S
C915 C908 1.506 . S
H916 C899 0.931 . S
H917 C900 0.931 . S
H918 C901 0.929 . S
H919 C902 0.930 . S
H920 C910 0.931 . S
H921 C911 0.931 . S
H922 C912 0.930 . S
H923 C913 0.929 . S
Eu924 N953 2.600 . S
Eu924 N959 2.562 . S
Eu924 O968 2.462 . S
Eu924 O969 2.373 . S
Eu924 O971 2.432 . S
Eu924 O972 2.291 . S
Eu924 O976 2.335 . S
Eu924 O979 2.372 . S
Eu924 C988 2.787 . S
C925 N926 1.365 . S
C925 C928 1.405 . S
C925 C932 1.448 . S
N926 C925 1.365 . S
N926 C929 1.319 . S
N926 Eu935 2.600 . S
C927 C929 1.397 . S
C927 C930 1.367 . S
C927 H947 0.931 . S
C928 C925 1.405 . S
C928 C930 1.403 . S
C928 C934 1.439 . S
C929 N926 1.319 . S
C929 C927 1.397 . S
C929 H940 0.930 . S
C930 C927 1.367 . S
C930 C928 1.403 . S
C930 H951 0.929 . S
C931 C932 1.430 . S
C931 C933 1.387 . S
C931 C937 1.404 . S
C932 C925 1.448 . S
C932 C931 1.430 . S
C932 N936 1.351 . S
C933 C931 1.387 . S
C933 C934 1.374 . S
C933 H948 0.931 . S
C934 C928 1.439 . S
C934 C933 1.374 . S
C934 H949 0.931 . S
Eu935 N926 2.600 . S
Eu935 N936 2.562 . S
Eu935 O970 2.335 . S
Eu935 O973 2.372 . S
Eu935 O974 2.462 . S
Eu935 O975 2.373 . S
Eu935 O977 2.432 . S
Eu935 O978 2.291 . S
Eu935 C999 2.787 . S
N936 C932 1.351 . S
N936 Eu935 2.562 . S
N936 C938 1.325 . S
C937 C931 1.404 . S
C937 C939 1.366 . S
C937 H945 0.930 . S
C938 N936 1.325 . S
C938 C939 1.416 . S
C938 H944 0.929 . S
C939 C937 1.366 . S
C939 C938 1.416 . S
C939 H941 0.930 . S
H940 C929 0.930 . S
H941 C939 0.930 . S
H942 C957 0.930 . S
H943 C964 0.930 . S
H944 C938 0.929 . S
H945 C937 0.930 . S
H946 C960 0.929 . S
H947 C927 0.931 . S
H948 C933 0.931 . S
H949 C934 0.931 . S
H950 C955 0.931 . S
H951 C930 0.929 . S
H952 C963 0.930 . S
N953 Eu924 2.600 . S
N953 C954 1.365 . S
N953 C957 1.319 . S
C954 N953 1.365 . S
C954 C956 1.405 . S
C954 C962 1.448 . S
C955 H950 0.931 . S
C955 C957 1.397 . S
C955 C958 1.367 . S
C956 C954 1.405 . S
C956 C958 1.403 . S
C956 C989 1.439 . S
C957 H942 0.930 . S
C957 N953 1.319 . S
C957 C955 1.397 . S
C958 C955 1.367 . S
C958 C956 1.403 . S
C958 H965 0.929 . S
N959 Eu924 2.562 . S
N959 C960 1.325 . S
N959 C962 1.351 . S
C960 H946 0.929 . S
C960 N959 1.325 . S
C960 C964 1.416 . S
C961 C962 1.430 . S
C961 C963 1.404 . S
C961 C990 1.387 . S
C962 C954 1.448 . S
C962 N959 1.351 . S
C962 C961 1.430 . S
C963 H952 0.930 . S
C963 C961 1.404 . S
C963 C964 1.366 . S
C964 H943 0.930 . S
C964 C960 1.416 . S
C964 C963 1.366 . S
H965 C958 0.929 . S
H966 C989 0.931 . S
H967 C990 0.931 . S
O968 Eu924 2.462 . S
O968 C988 1.252 . S
O969 Eu924 2.373 . S
O969 C980 1.249 . S
O970 Eu935 2.335 . S
O970 C980 1.264 . S
O971 Eu924 2.432 . S
O971 C988 1.268 . S
O972 Eu924 2.291 . S
O972 C987 1.255 . S
O973 Eu935 2.372 . S
O973 C987 1.257 . S
O974 Eu935 2.462 . S
O974 C999 1.252 . S
O975 Eu935 2.373 . S
O975 C991 1.249 . S
O976 Eu924 2.335 . S
O976 C991 1.264 . S
O977 Eu935 2.432 . S
O977 C999 1.268 . S
O978 Eu935 2.291 . S
O978 C998 1.255 . S
O979 Eu924 2.372 . S
O979 C998 1.257 . S
C980 O969 1.249 . S
C980 O970 1.264 . S
C981 C984 1.382 . S
C981 C986 1.390 . S
C981 C988 1.506 . S
C982 C983 1.398 . S
C982 C986 1.392 . S
C983 C982 1.398 . S
C983 C985 1.372 . S
C983 H1000 0.931 . S
C984 C981 1.382 . S
C984 C985 1.390 . S
C984 H1001 0.931 . S
C985 C983 1.372 . S
C985 C984 1.390 . S
C985 H1002 0.929 . S
C986 C981 1.390 . S
C986 C982 1.392 . S
C986 H1003 0.930 . S
C987 O972 1.255 . S
C987 O973 1.257 . S
C988 Eu924 2.787 . S
C988 O968 1.252 . S
C988 O971 1.268 . S
C988 C981 1.506 . S
C989 C956 1.439 . S
C989 H966 0.931 . S
C989 C990 1.374 . S
C990 C961 1.387 . S
C990 H967 0.931 . S
C990 C989 1.374 . S
C991 O975 1.249 . S
C991 O976 1.264 . S
C992 C995 1.382 . S
C992 C996 1.390 . S
C992 C999 1.506 . S
C993 C994 1.398 . S
C993 C996 1.392 . S
C994 C993 1.398 . S
C994 C997 1.372 . S
C994 H1004 0.931 . S
C995 C992 1.382 . S
C995 C997 1.390 . S
C995 H1005 0.931 . S
C996 C992 1.390 . S
C996 C993 1.392 . S
C996 H1006 0.930 . S
C997 C994 1.372 . S
C997 C995 1.390 . S
C997 H1007 0.929 . S
C998 O978 1.255 . S
C998 O979 1.257 . S
C999 Eu935 2.787 . S
C999 O974 1.252 . S
C999 O977 1.268 . S
C999 C992 1.506 . S
H1000 C983 0.931 . S
H1001 C984 0.931 . S
H1002 C985 0.929 . S
H1003 C986 0.930 . S
H1004 C994 0.931 . S
H1005 C995 0.931 . S
H1006 C996 0.930 . S
H1007 C997 0.929 . S
C1008 C1009 1.387 . S
C1008 H1012 0.950 . S
C1008 C1017 1.390 . S
C1009 C1008 1.387 . S
C1009 C1011 1.387 . S
H1010 C1017 0.950 . S
C1011 C1009 1.387 . S
C1011 C1013 1.390 . S
C1011 H1015 0.950 . S
H1012 C1008 0.950 . S
C1013 C1011 1.390 . S
C1013 C1014 1.387 . S
C1013 H1016 0.950 . S
C1014 C1013 1.387 . S
C1014 C1017 1.387 . S
H1015 C1011 0.950 . S
H1016 C1013 0.950 . S
C1017 C1008 1.390 . S
C1017 H1010 0.950 . S
C1017 C1014 1.387 . S
C1018 C1019 1.387 . S
C1018 H1022 0.950 1_545 S
C1018 C1027 1.390 . S
C1019 C1018 1.387 . S
C1019 C1021 1.387 . S
H1020 C1027 0.950 1_565 S
C1021 C1019 1.387 . S
C1021 C1023 1.390 . S
C1021 H1025 0.950 . S
H1022 C1018 0.950 1_565 S
C1023 C1021 1.390 . S
C1023 C1024 1.387 . S
C1023 H1026 0.950 . S
C1024 C1023 1.387 . S
C1024 C1027 1.387 . S
H1025 C1021 0.950 . S
H1026 C1023 0.950 . S
C1027 C1018 1.390 . S
C1027 H1020 0.950 1_545 S
C1027 C1024 1.387 . S
C1028 C1029 1.387 . S
C1028 H1032 0.950 . S
C1028 C1037 1.390 . S
C1029 C1028 1.387 . S
C1029 C1031 1.387 . S
H1030 C1037 0.950 . S
C1031 C1029 1.387 . S
C1031 C1033 1.390 . S
C1031 H1035 0.950 . S
H1032 C1028 0.950 . S
C1033 C1031 1.390 . S
C1033 C1034 1.387 . S
C1033 H1036 0.950 . S
C1034 C1033 1.387 . S
C1034 C1037 1.387 . S
H1035 C1031 0.950 . S
H1036 C1033 0.950 . S
C1037 C1028 1.390 . S
C1037 H1030 0.950 . S
C1037 C1034 1.387 . S
C1038 C1039 1.387 . S
C1038 H1042 0.950 . S
C1038 C1047 1.390 . S
C1039 C1038 1.387 . S
C1039 C1041 1.387 . S
H1040 C1047 0.950 . S
C1041 C1039 1.387 . S
C1041 C1043 1.390 . S
C1041 H1045 0.950 . S
H1042 C1038 0.950 . S
C1043 C1041 1.390 . S
C1043 C1044 1.387 . S
C1043 H1046 0.950 . S
C1044 C1043 1.387 . S
C1044 C1047 1.387 . S
H1045 C1041 0.950 . S
H1046 C1043 0.950 . S
C1047 C1038 1.390 . S
C1047 H1040 0.950 . S
C1047 C1044 1.387 . S
C1048 C1049 1.387 . S
C1048 H1052 0.950 . S
C1048 C1057 1.390 . S
C1049 C1048 1.387 . S
C1049 C1051 1.387 . S
H1050 C1057 0.950 . S
C1051 C1049 1.387 . S
C1051 C1053 1.390 . S
C1051 H1055 0.950 1_565 S
H1052 C1048 0.950 . S
C1053 C1051 1.390 . S
C1053 C1054 1.387 . S
C1053 H1056 0.950 1_565 S
C1054 C1053 1.387 . S
C1054 C1057 1.387 . S
H1055 C1051 0.950 1_545 S
H1056 C1053 0.950 1_545 S
C1057 C1048 1.390 . S
C1057 H1050 0.950 . S
C1057 C1054 1.387 . S
C1058 C1059 1.387 . S
C1058 H1062 0.950 . S
C1058 C1067 1.390 . S
C1059 C1058 1.387 . S
C1059 C1061 1.387 . S
H1060 C1067 0.950 . S
C1061 C1059 1.387 . S
C1061 C1063 1.390 . S
C1061 H1065 0.950 . S
H1062 C1058 0.950 . S
C1063 C1061 1.390 . S
C1063 C1064 1.387 . S
C1063 H1066 0.950 . S
C1064 C1063 1.387 . S
C1064 C1067 1.387 . S
H1065 C1061 0.950 . S
H1066 C1063 0.950 . S
C1067 C1058 1.390 . S
C1067 H1060 0.950 . S
C1067 C1064 1.387 . S
C1068 C1069 1.387 . S
C1068 H1072 0.950 . S
C1068 C1077 1.390 . S
C1069 C1068 1.387 . S
C1069 C1071 1.387 . S
H1070 C1077 0.950 . S
C1071 C1069 1.387 . S
C1071 C1073 1.390 . S
C1071 H1075 0.950 . S
H1072 C1068 0.950 . S
C1073 C1071 1.390 . S
C1073 C1074 1.387 . S
C1073 H1076 0.950 . S
C1074 C1073 1.387 . S
C1074 C1077 1.387 . S
H1075 C1071 0.950 . S
H1076 C1073 0.950 . S
C1077 C1068 1.390 . S
C1077 H1070 0.950 . S
C1077 C1074 1.387 . S
C1078 C1079 1.387 . S
C1078 H1082 0.950 . S
C1078 C1087 1.390 . S
C1079 C1078 1.387 . S
C1079 C1081 1.387 . S
H1080 C1087 0.950 . S
C1081 C1079 1.387 . S
C1081 C1083 1.390 . S
C1081 H1085 0.950 . S
H1082 C1078 0.950 . S
C1083 C1081 1.390 . S
C1083 C1084 1.387 . S
C1083 H1086 0.950 . S
C1084 C1083 1.387 . S
C1084 C1087 1.387 . S
H1085 C1081 0.950 . S
H1086 C1083 0.950 . S
C1087 C1078 1.390 . S
C1087 H1080 0.950 . S
C1087 C1084 1.387 . S
C1088 C1089 1.387 . S
C1088 H1092 0.950 . S
C1088 C1097 1.390 . S
C1089 C1088 1.387 . S
C1089 C1091 1.387 . S
H1090 C1097 0.950 . S
C1091 C1089 1.387 . S
C1091 C1093 1.390 . S
C1091 H1095 0.950 . S
H1092 C1088 0.950 . S
C1093 C1091 1.390 . S
C1093 C1094 1.387 . S
C1093 H1096 0.950 . S
C1094 C1093 1.387 . S
C1094 C1097 1.387 . S
H1095 C1091 0.950 . S
H1096 C1093 0.950 . S
C1097 C1088 1.390 . S
C1097 H1090 0.950 . S
C1097 C1094 1.387 . S
C1098 C1099 1.387 . S
C1098 H1102 0.950 . S
C1098 C1107 1.390 . S
C1099 C1098 1.387 . S
C1099 C1101 1.387 . S
H1100 C1107 0.950 . S
C1101 C1099 1.387 . S
C1101 C1103 1.390 . S
C1101 H1105 0.967 . S
H1102 C1098 0.950 . S
C1103 C1101 1.390 . S
C1103 C1104 1.387 . S
C1103 H1106 0.950 . S
C1104 C1103 1.387 . S
C1104 C1107 1.387 . S
H1105 C1101 0.967 . S
H1106 C1103 0.950 . S
C1107 C1098 1.390 . S
C1107 H1100 0.950 . S
C1107 C1104 1.387 . S
C1108 C1109 1.387 . S
C1108 H1112 0.950 . S
C1108 C1117 1.390 . S
C1109 C1108 1.387 . S
C1109 C1111 1.387 . S
H1110 C1117 0.950 . S
C1111 C1109 1.387 . S
C1111 C1113 1.390 . S
C1111 H1115 0.950 . S
H1112 C1108 0.950 . S
C1113 C1111 1.390 . S
C1113 C1114 1.387 . S
C1113 H1116 0.950 . S
C1114 C1113 1.387 . S
C1114 C1117 1.387 . S
H1115 C1111 0.950 . S
H1116 C1113 0.950 . S
C1117 C1108 1.390 . S
C1117 H1110 0.950 . S
C1117 C1114 1.387 . S
C1118 C1119 1.387 . S
C1118 H1122 0.950 . S
C1118 C1127 1.390 . S
C1119 C1118 1.387 . S
C1119 C1121 1.387 . S
H1120 C1127 0.950 . S
C1121 C1119 1.387 . S
C1121 C1123 1.390 . S
C1121 H1125 0.950 . S
H1122 C1118 0.950 . S
C1123 C1121 1.390 . S
C1123 C1124 1.387 . S
C1123 H1126 0.950 . S
C1124 C1123 1.387 . S
C1124 C1127 1.387 . S
H1125 C1121 0.950 . S
H1126 C1123 0.950 . S
C1127 C1118 1.390 . S
C1127 H1120 0.950 . S
C1127 C1124 1.387 . S
C1128 C1129 1.387 . S
C1128 H1132 0.950 . S
C1128 C1137 1.390 . S
C1129 C1128 1.387 . S
C1129 C1131 1.387 . S
H1130 C1137 0.950 . S
C1131 C1129 1.387 . S
C1131 C1133 1.390 . S
C1131 H1135 0.950 . S
H1132 C1128 0.950 . S
C1133 C1131 1.390 . S
C1133 C1134 1.387 . S
C1133 H1136 0.950 . S
C1134 C1133 1.387 . S
C1134 C1137 1.387 . S
H1135 C1131 0.950 . S
H1136 C1133 0.950 . S
C1137 C1128 1.390 . S
C1137 H1130 0.950 . S
C1137 C1134 1.387 . S
C1138 C1139 1.387 . S
C1138 H1142 0.950 . S
C1138 C1147 1.390 . S
C1139 C1138 1.387 . S
C1139 C1141 1.387 . S
H1140 C1147 0.950 . S
C1141 C1139 1.387 . S
C1141 C1143 1.390 . S
C1141 H1145 0.950 . S
H1142 C1138 0.950 . S
C1143 C1141 1.390 . S
C1143 C1144 1.387 . S
C1143 H1146 0.950 . S
C1144 C1143 1.387 . S
C1144 C1147 1.387 . S
H1145 C1141 0.950 . S
H1146 C1143 0.950 . S
C1147 C1138 1.390 . S
C1147 H1140 0.950 . S
C1147 C1144 1.387 . S
C1148 C1149 1.387 . S
C1148 H1152 0.950 . S
C1148 C1157 1.390 . S
C1149 C1148 1.387 . S
C1149 C1151 1.387 . S
H1150 C1157 0.950 . S
C1151 C1149 1.387 . S
C1151 C1153 1.390 . S
C1151 H1155 0.950 . S
H1152 C1148 0.950 . S
C1153 C1151 1.390 . S
C1153 C1154 1.387 . S
C1153 H1156 0.950 . S
C1154 C1153 1.387 . S
C1154 C1157 1.387 . S
H1155 C1151 0.950 . S
H1156 C1153 0.950 . S
C1157 C1148 1.390 . S
C1157 H1150 0.950 . S
C1157 C1154 1.387 . S
C1158 C1159 1.387 . S
C1158 H1162 0.950 . S
C1158 C1167 1.390 . S
C1159 C1158 1.387 . S
C1159 C1161 1.387 . S
H1160 C1167 0.950 . S
C1161 C1159 1.387 . S
C1161 C1163 1.390 . S
C1161 H1165 0.950 . S
H1162 C1158 0.950 . S
C1163 C1161 1.390 . S
C1163 C1164 1.387 . S
C1163 H1166 0.950 . S
C1164 C1163 1.387 . S
C1164 C1167 1.387 . S
H1165 C1161 0.950 . S
H1166 C1163 0.950 . S
C1167 C1158 1.390 . S
C1167 H1160 0.950 . S
C1167 C1164 1.387 . S
C1168 C1169 1.387 1_554 S
C1168 H1172 0.950 . S
C1168 C1177 1.390 . S
C1169 C1168 1.387 1_556 S
C1169 C1171 1.387 . S
H1170 C1177 0.950 . S
C1171 C1169 1.387 . S
C1171 C1173 1.390 . S
C1171 H1175 0.950 . S
H1172 C1168 0.950 . S
C1173 C1171 1.390 . S
C1173 C1174 1.387 . S
C1173 H1176 0.950 . S
C1174 C1173 1.387 . S
C1174 C1177 1.387 1_556 S
H1175 C1171 0.950 . S
H1176 C1173 0.950 . S
C1177 C1168 1.390 . S
C1177 H1170 0.950 . S
C1177 C1174 1.387 1_554 S
C1178 C1179 1.387 . S
C1178 H1182 0.950 . S
C1178 C1187 1.390 . S
C1179 C1178 1.387 . S
C1179 C1181 1.387 . S
H1180 C1187 0.950 . S
C1181 C1179 1.387 . S
C1181 C1183 1.390 . S
C1181 H1185 0.950 . S
H1182 C1178 0.950 . S
C1183 C1181 1.390 . S
C1183 C1184 1.387 . S
C1183 H1186 0.950 . S
C1184 C1183 1.387 . S
C1184 C1187 1.387 . S
H1185 C1181 0.950 . S
H1186 C1183 0.950 . S
C1187 C1178 1.390 . S
C1187 H1180 0.950 . S
C1187 C1184 1.387 . S
C1188 C1189 1.387 . S
C1188 H1192 0.950 . S
C1188 C1197 1.390 . S
C1189 C1188 1.387 . S
C1189 C1191 1.387 . S
H1190 C1197 0.950 . S
C1191 C1189 1.387 . S
C1191 C1193 1.390 . S
C1191 H1195 0.950 . S
H1192 C1188 0.950 . S
C1193 C1191 1.390 . S
C1193 C1194 1.387 . S
C1193 H1196 0.950 . S
C1194 C1193 1.387 . S
C1194 C1197 1.387 . S
H1195 C1191 0.950 . S
H1196 C1193 0.950 . S
C1197 C1188 1.390 . S
C1197 H1190 0.950 . S
C1197 C1194 1.387 . S
C1198 C1199 1.387 . S
C1198 H1202 0.950 . S
C1198 C1207 1.390 . S
C1199 C1198 1.387 . S
C1199 C1201 1.387 . S
H1200 C1207 0.950 . S
C1201 C1199 1.387 . S
C1201 C1203 1.390 . S
C1201 H1205 0.950 . S
H1202 C1198 0.950 . S
C1203 C1201 1.390 . S
C1203 C1204 1.387 . S
C1203 H1206 0.950 . S
C1204 C1203 1.387 . S
C1204 C1207 1.387 . S
H1205 C1201 0.950 . S
H1206 C1203 0.950 . S
C1207 C1198 1.390 . S
C1207 H1200 0.950 . S
C1207 C1204 1.387 . S
C1208 C1209 1.387 . S
C1208 H1212 0.950 . S
C1208 C1217 1.390 . S
C1209 C1208 1.387 . S
C1209 C1211 1.387 . S
H1210 C1217 0.950 . S
C1211 C1209 1.387 . S
C1211 C1213 1.390 . S
C1211 H1215 0.950 . S
H1212 C1208 0.950 . S
C1213 C1211 1.390 . S
C1213 C1214 1.387 . S
C1213 H1216 0.950 . S
C1214 C1213 1.387 . S
C1214 C1217 1.387 . S
H1215 C1211 0.950 . S
H1216 C1213 0.950 . S
C1217 C1208 1.390 . S
C1217 H1210 0.950 . S
C1217 C1214 1.387 . S
C1218 C1219 1.387 . S
C1218 H1222 0.950 . S
C1218 C1227 1.390 . S
C1219 C1218 1.387 . S
C1219 C1221 1.387 1_554 S
H1220 C1227 0.950 . S
C1221 C1219 1.387 1_556 S
C1221 C1223 1.390 . S
C1221 H1225 0.950 . S
H1222 C1218 0.950 . S
C1223 C1221 1.390 . S
C1223 C1224 1.387 1_556 S
C1223 H1226 0.950 . S
C1224 C1223 1.387 1_554 S
C1224 C1227 1.387 . S
H1225 C1221 0.950 . S
H1226 C1223 0.950 . S
C1227 C1218 1.390 . S
C1227 H1220 0.950 . S
C1227 C1224 1.387 . S
C1228 C1229 1.387 . S
C1228 H1232 0.950 . S
C1228 C1237 1.390 . S
C1229 C1228 1.387 . S
C1229 C1231 1.387 . S
H1230 C1237 0.950 . S
C1231 C1229 1.387 . S
C1231 C1233 1.390 . S
C1231 H1235 0.950 . S
H1232 C1228 0.950 . S
C1233 C1231 1.390 . S
C1233 C1234 1.387 . S
C1233 H1236 0.950 . S
C1234 C1233 1.387 . S
C1234 C1237 1.387 . S
H1235 C1231 0.950 . S
H1236 C1233 0.950 . S
C1237 C1228 1.390 . S
C1237 H1230 0.950 . S
C1237 C1234 1.387 . S
C1238 C1239 1.387 . S
C1238 H1242 0.950 . S
C1238 C1247 1.390 . S
C1239 C1238 1.387 . S
C1239 C1241 1.387 . S
H1240 C1247 0.950 . S
C1241 C1239 1.387 . S
C1241 C1243 1.390 . S
C1241 H1245 0.950 . S
H1242 C1238 0.950 . S
C1243 C1241 1.390 . S
C1243 C1244 1.387 . S
C1243 H1246 0.950 . S
C1244 C1243 1.387 . S
C1244 C1247 1.387 . S
H1245 C1241 0.950 . S
H1246 C1243 0.950 . S
C1247 C1238 1.390 . S
C1247 H1240 0.950 . S
C1247 C1244 1.387 . S
C1248 C1249 1.387 . S
C1248 H1252 0.950 . S
C1248 C1257 1.390 . S
C1249 C1248 1.387 . S
C1249 C1251 1.387 . S
H1250 C1257 0.950 . S
C1251 C1249 1.387 . S
C1251 C1253 1.390 . S
C1251 H1255 0.950 . S
H1252 C1248 0.950 . S
C1253 C1251 1.390 . S
C1253 C1254 1.387 . S
C1253 H1256 0.950 . S
C1254 C1253 1.387 . S
C1254 C1257 1.387 . S
H1255 C1251 0.950 . S
H1256 C1253 0.950 . S
C1257 C1248 1.390 . S
C1257 H1250 0.950 . S
C1257 C1254 1.387 . S
C1258 C1259 1.387 . S
C1258 H1262 0.950 . S
C1258 C1267 1.390 . S
C1259 C1258 1.387 . S
C1259 C1261 1.387 . S
H1260 C1267 0.950 . S
C1261 C1259 1.387 . S
C1261 C1263 1.390 . S
C1261 H1265 0.950 . S
H1262 C1258 0.950 . S
C1263 C1261 1.390 . S
C1263 C1264 1.387 . S
C1263 H1266 0.950 . S
C1264 C1263 1.387 . S
C1264 C1267 1.387 . S
H1265 C1261 0.950 . S
H1266 C1263 0.950 . S
C1267 C1258 1.390 . S
C1267 H1260 0.950 . S
C1267 C1264 1.387 . S
C1268 C1269 1.387 . S
C1268 H1272 0.950 . S
C1268 C1277 1.390 . S
C1269 C1268 1.387 . S
C1269 C1271 1.387 . S
H1270 C1277 0.950 . S
C1271 C1269 1.387 . S
C1271 C1273 1.390 . S
C1271 H1275 0.950 . S
H1272 C1268 0.950 . S
C1273 C1271 1.390 . S
C1273 C1274 1.387 . S
C1273 H1276 0.950 . S
C1274 C1273 1.387 . S
C1274 C1277 1.387 . S
H1275 C1271 0.950 . S
H1276 C1273 0.950 . S
C1277 C1268 1.390 . S
C1277 H1270 0.950 . S
C1277 C1274 1.387 . S
C1278 C1279 1.387 . S
C1278 H1282 0.950 . S
C1278 C1287 1.390 . S
C1279 C1278 1.387 . S
C1279 C1281 1.387 . S
H1280 C1287 0.950 . S
C1281 C1279 1.387 . S
C1281 C1283 1.390 . S
C1281 H1285 0.950 . S
H1282 C1278 0.950 . S
C1283 C1281 1.390 . S
C1283 C1284 1.387 . S
C1283 H1286 0.950 . S
C1284 C1283 1.387 . S
C1284 C1287 1.387 . S
H1285 C1281 0.950 . S
H1286 C1283 0.950 . S
C1287 C1278 1.390 . S
C1287 H1280 0.950 . S
C1287 C1284 1.387 . S
C1288 C1289 1.387 . S
C1288 H1292 0.950 . S
C1288 C1297 1.390 . S
C1289 C1288 1.387 . S
C1289 C1291 1.387 . S
H1290 C1297 0.950 . S
C1291 C1289 1.387 . S
C1291 C1293 1.390 . S
C1291 H1295 0.950 . S
H1292 C1288 0.950 . S
C1293 C1291 1.390 . S
C1293 C1294 1.387 . S
C1293 H1296 0.950 . S
C1294 C1293 1.387 . S
C1294 C1297 1.387 . S
H1295 C1291 0.950 . S
H1296 C1293 0.950 . S
C1297 C1288 1.390 . S
C1297 H1290 0.950 . S
C1297 C1294 1.387 . S
C1298 C1299 1.387 . S
C1298 H1302 0.950 . S
C1298 C1307 1.390 . S
C1299 C1298 1.387 . S
C1299 C1301 1.387 . S
H1300 C1307 0.950 . S
C1301 C1299 1.387 . S
C1301 C1303 1.390 . S
C1301 H1305 0.950 . S
H1302 C1298 0.950 . S
C1303 C1301 1.390 . S
C1303 C1304 1.387 . S
C1303 H1306 0.950 . S
C1304 C1303 1.387 . S
C1304 C1307 1.387 . S
H1305 C1301 0.950 . S
H1306 C1303 0.950 . S
C1307 C1298 1.390 . S
C1307 H1300 0.950 . S
C1307 C1304 1.387 . S
C1308 C1309 1.387 . S
C1308 H1312 0.950 . S
C1308 C1317 1.390 . S
C1309 C1308 1.387 . S
C1309 C1311 1.387 . S
H1310 C1317 0.950 . S
C1311 C1309 1.387 . S
C1311 C1313 1.390 . S
C1311 H1315 0.950 . S
H1312 C1308 0.950 . S
C1313 C1311 1.390 . S
C1313 C1314 1.387 . S
C1313 H1316 0.950 . S
C1314 C1313 1.387 . S
C1314 C1317 1.387 . S
H1315 C1311 0.950 . S
H1316 C1313 0.950 . S
C1317 C1308 1.390 . S
C1317 H1310 0.950 . S
C1317 C1314 1.387 . S
C1318 C1319 1.387 . S
C1318 H1322 0.950 . S
C1318 C1327 1.390 . S
C1319 C1318 1.387 . S
C1319 C1321 1.387 . S
H1320 C1327 0.950 . S
C1321 C1319 1.387 . S
C1321 C1323 1.390 . S
C1321 H1325 0.950 . S
H1322 C1318 0.950 . S
C1323 C1321 1.390 . S
C1323 C1324 1.387 . S
C1323 H1326 0.950 . S
C1324 C1323 1.387 . S
C1324 C1327 1.387 . S
H1325 C1321 0.950 . S
H1326 C1323 0.950 . S
C1327 C1318 1.390 . S
C1327 H1320 0.950 . S
C1327 C1324 1.387 . S
C1328 C1329 1.387 . S
C1328 H1332 0.950 . S
C1328 C1337 1.390 . S
C1329 C1328 1.387 . S
C1329 C1331 1.387 . S
H1330 C1337 0.950 . S
C1331 C1329 1.387 . S
C1331 C1333 1.390 . S
C1331 H1335 0.950 . S
H1332 C1328 0.950 . S
C1333 C1331 1.390 . S
C1333 C1334 1.387 . S
C1333 H1336 0.950 . S
C1334 C1333 1.387 . S
C1334 C1337 1.387 . S
H1335 C1331 0.950 . S
H1336 C1333 0.950 . S
C1337 C1328 1.390 . S
C1337 H1330 0.950 . S
C1337 C1334 1.387 . S
C1338 C1339 1.387 . S
C1338 H1342 0.950 . S
C1338 C1347 1.390 . S
C1339 C1338 1.387 . S
C1339 C1341 1.387 . S
H1340 C1347 0.950 . S
C1341 C1339 1.387 . S
C1341 C1343 1.390 . S
C1341 H1345 0.950 . S
H1342 C1338 0.950 . S
C1343 C1341 1.390 . S
C1343 C1344 1.387 . S
C1343 H1346 0.950 . S
C1344 C1343 1.387 . S
C1344 C1347 1.387 . S
H1345 C1341 0.950 . S
H1346 C1343 0.950 . S
C1347 C1338 1.390 . S
C1347 H1340 0.950 . S
C1347 C1344 1.387 . S
C1348 C1349 1.387 . S
C1348 H1352 0.950 . S
C1348 C1357 1.390 . S
C1349 C1348 1.387 . S
C1349 C1351 1.387 . S
H1350 C1357 0.950 . S
C1351 C1349 1.387 . S
C1351 C1353 1.390 . S
C1351 H1355 0.950 . S
H1352 C1348 0.950 . S
C1353 C1351 1.390 . S
C1353 C1354 1.387 . S
C1353 H1356 0.950 . S
C1354 C1353 1.387 . S
C1354 C1357 1.387 . S
H1355 C1351 0.950 . S
H1356 C1353 0.950 . S
C1357 C1348 1.390 . S
C1357 H1350 0.950 . S
C1357 C1354 1.387 . S
C1358 C1359 1.387 . S
C1358 H1362 0.950 . S
C1358 C1367 1.390 . S
C1359 C1358 1.387 . S
C1359 C1361 1.387 . S
H1360 C1367 0.950 . S
C1361 C1359 1.387 . S
C1361 C1363 1.390 . S
C1361 H1365 0.950 . S
H1362 C1358 0.950 . S
C1363 C1361 1.390 . S
C1363 C1364 1.387 . S
C1363 H1366 0.950 . S
C1364 C1363 1.387 . S
C1364 C1367 1.387 . S
H1365 C1361 0.950 . S
H1366 C1363 0.950 . S
C1367 C1358 1.390 . S
C1367 H1360 0.950 . S
C1367 C1364 1.387 . S
C1009 C476 1.737 . S
C1014 C58 1.252 . S
C1019 C142 1.430 . S
C1024 C56 2.055 . S
C1029 C226 1.367 . S
C1034 C140 1.868 . S
C1039 C224 1.736 . S
C1044 C310 1.250 . S
C1049 C308 2.052 . S
C1054 C394 1.425 . S
C1059 C478 1.371 . S
C1064 C392 1.871 . S
C1069 C644 1.735 . S
C1074 C562 1.249 . S
C1079 C646 1.371 . S
C1084 C728 1.869 . S
C1089 C812 2.052 . S
C1094 C730 1.424 . S
C1099 C896 1.735 . S
C1104 C814 1.249 . S
C1109 C980 1.870 . S
C1114 C898 1.371 . S
C1119 C560 2.055 . S
C1124 C982 1.430 . S
C1129 C998 3.701 . S
C1134 C67 3.605 . S
C1139 C151 3.014 . S
C1144 C578 3.106 . S
C1149 C662 3.429 . S
C1154 C235 3.317 . S
C1159 C746 3.702 . S
C1164 C319 3.606 . S
C1169 C830 3.109 . S
C1174 C403 3.011 1_556 S
C1179 C487 3.318 . S
C1184 C914 3.427 . S
C1189 C571 3.603 . S
C1194 C158 3.704 . S
C1199 C655 3.317 . S
C1204 C242 3.426 . S
C1209 C326 3.108 . S
C1214 C739 3.011 . S
C1219 C410 3.701 . S
C1224 C823 3.604 1_554 S
C1229 C907 3.317 . S
C1234 C494 3.426 . S
C1239 C991 3.013 . S
C1244 C74 3.106 . S
C1249 C567 2.838 . S
C1254 C63 2.839 . S
C1259 C147 1.961 . S
C1264 C651 1.993 . S
C1269 C735 1.958 . S
C1274 C231 1.991 . S
C1279 C315 2.838 . S
C1284 C819 2.841 . S
C1289 C903 1.991 . S
C1294 C399 1.961 . S
C1299 C987 1.958 . S
C1304 C483 1.991 . S
C1309 C573 0.562 . S
C1314 C69 0.565 . S
C1319 C657 0.541 . S
C1324 C153 0.534 . S
C1329 C741 0.533 . S
C1334 C237 0.545 . S
C1339 C321 0.561 . S
C1344 C825 0.561 . S
C1349 C909 0.542 . S
C1354 C405 0.534 . S
C1359 C993 0.534 . S
C1364 C489 0.540 . S
