# Generated by pormake.
# Topology lhb, (8)-cn, num edge types: 1
# Building blocks:
#     Node 0, Type 0, BuildingBlock: OLANAS_clean_sbu_2, # of connection points: 8
#     Node 1, Type 0, BuildingBlock: OLANAS_clean_sbu_2, # of connection points: 8
#     Node 2, Type 0, BuildingBlock: OLANAS_clean_sbu_2, # of connection points: 8
#     Node 3, Type 0, BuildingBlock: OLANAS_clean_sbu_2, # of connection points: 8
#     Node 4, Type 0, BuildingBlock: OLANAS_clean_sbu_2, # of connection points: 8
#     Node 5, Type 0, BuildingBlock: OLANAS_clean_sbu_2, # of connection points: 8
#     Node 6, Type 0, BuildingBlock: OLANAS_clean_sbu_2, # of connection points: 8
#     Node 7, Type 0, BuildingBlock: OLANAS_clean_sbu_2, # of connection points: 8
#     Edge 8, Type (0, 0), BuildingBlock: XUDNAN_clean_linker_2, # of connection points: 2
#     Edge 9, Type (0, 0), BuildingBlock: XUDNAN_clean_linker_2, # of connection points: 2
#     Edge 10, Type (0, 0), BuildingBlock: XUDNAN_clean_linker_2, # of connection points: 2
#     Edge 11, Type (0, 0), BuildingBlock: XUDNAN_clean_linker_2, # of connection points: 2
#     Edge 12, Type (0, 0), BuildingBlock: XUDNAN_clean_linker_2, # of connection points: 2
#     Edge 13, Type (0, 0), BuildingBlock: XUDNAN_clean_linker_2, # of connection points: 2
#     Edge 14, Type (0, 0), BuildingBlock: XUDNAN_clean_linker_2, # of connection points: 2
#     Edge 15, Type (0, 0), BuildingBlock: XUDNAN_clean_linker_2, # of connection points: 2
#     Edge 16, Type (0, 0), BuildingBlock: XUDNAN_clean_linker_2, # of connection points: 2
#     Edge 17, Type (0, 0), BuildingBlock: XUDNAN_clean_linker_2, # of connection points: 2
#     Edge 18, Type (0, 0), BuildingBlock: XUDNAN_clean_linker_2, # of connection points: 2
#     Edge 19, Type (0, 0), BuildingBlock: XUDNAN_clean_linker_2, # of connection points: 2
#     Edge 20, Type (0, 0), BuildingBlock: XUDNAN_clean_linker_2, # of connection points: 2
#     Edge 21, Type (0, 0), BuildingBlock: XUDNAN_clean_linker_2, # of connection points: 2
#     Edge 22, Type (0, 0), BuildingBlock: XUDNAN_clean_linker_2, # of connection points: 2
#     Edge 23, Type (0, 0), BuildingBlock: XUDNAN_clean_linker_2, # of connection points: 2
#     Edge 24, Type (0, 0), BuildingBlock: XUDNAN_clean_linker_2, # of connection points: 2
#     Edge 25, Type (0, 0), BuildingBlock: XUDNAN_clean_linker_2, # of connection points: 2
#     Edge 26, Type (0, 0), BuildingBlock: XUDNAN_clean_linker_2, # of connection points: 2
#     Edge 27, Type (0, 0), BuildingBlock: XUDNAN_clean_linker_2, # of connection points: 2
#     Edge 28, Type (0, 0), BuildingBlock: XUDNAN_clean_linker_2, # of connection points: 2
#     Edge 29, Type (0, 0), BuildingBlock: XUDNAN_clean_linker_2, # of connection points: 2
#     Edge 30, Type (0, 0), BuildingBlock: XUDNAN_clean_linker_2, # of connection points: 2
#     Edge 31, Type (0, 0), BuildingBlock: XUDNAN_clean_linker_2, # of connection points: 2
#     Edge 32, Type (0, 0), BuildingBlock: XUDNAN_clean_linker_2, # of connection points: 2
#     Edge 33, Type (0, 0), BuildingBlock: XUDNAN_clean_linker_2, # of connection points: 2
#     Edge 34, Type (0, 0), BuildingBlock: XUDNAN_clean_linker_2, # of connection points: 2
#     Edge 35, Type (0, 0), BuildingBlock: XUDNAN_clean_linker_2, # of connection points: 2
#     Edge 36, Type (0, 0), BuildingBlock: XUDNAN_clean_linker_2, # of connection points: 2
#     Edge 37, Type (0, 0), BuildingBlock: XUDNAN_clean_linker_2, # of connection points: 2
#     Edge 38, Type (0, 0), BuildingBlock: XUDNAN_clean_linker_2, # of connection points: 2
#     Edge 39, Type (0, 0), BuildingBlock: XUDNAN_clean_linker_2, # of connection points: 2
# Relax obj value: 0.220
# Max RMSD: 0.285
# Mean RMSD: 0.285
data_MOF--net-lhb--node1-OLANAS_clean_sbu_2--edge1-XUDNAN_clean_linker_2
_symmetry_space_group_name_H-M    P1
_symmetry_Int_Tables_number       1
_symmetry_cell_setting            triclinic
loop_
_symmetry_equiv_pos_as_xyz
'x, y, z'
_cell_length_a     30.714552
_cell_length_b     19.190022
_cell_length_c     64.786575
_cell_angle_alpha  90.013346
_cell_angle_beta   90.018456
_cell_angle_gamma 90.068473
loop_
_atom_site_label
_atom_site_type_symbol
_atom_site_fract_x
_atom_site_fract_y
_atom_site_fract_z
_atom_type_partial_charge
C0 C 0.04118 0.93906 0.00784 0.0
O1 O 0.05139 0.89159 0.02164 0.0
C2 C 0.07429 0.97319 -0.0051 0.0
C3 C 0.11942 0.96329 -0.00535 0.0
C4 C 0.14428 1.00253 0.98037 0.0
C5 C 0.12388 0.04989 0.96669 0.0
C6 C 0.07858 0.05673 0.9678 0.0
N7 N 0.05712 0.01915 0.98183 0.0
N8 N 0.99851 0.10377 0.00311 0.0
Co9 Co 0.99775 0.02945 0.98253 0.0
N10 N 0.93836 0.04 0.98285 0.0
C11 C 0.87781 0.10377 -0.00574 0.0
C12 C 0.85182 0.06318 0.98077 0.0
C13 C 0.87085 1.01159 0.96804 0.0
C14 C 0.9159 1.00171 0.96937 0.0
C15 C 0.92261 0.09061 -0.00524 0.0
N16 N 0.98745 0.95599 0.96216 0.0
N17 N 0.99898 0.95929 0.00433 0.0
N18 N 0.00634 0.09906 0.96079 0.0
C19 C 0.95684 0.1267 0.00651 0.0
O20 O 0.94788 0.17614 0.0199 0.0
C21 C 0.04964 0.10256 0.95578 0.0
O22 O 0.06469 0.14671 0.942 0.0
C23 C 0.9751 0.15019 0.95393 0.0
C24 C 0.95168 0.27122 0.94971 0.0
C25 C 0.98192 0.22222 0.95728 0.0
C26 C 0.93929 0.12862 0.94221 0.0
C27 C 0.90722 0.17591 0.93575 0.0
C28 C 0.91309 0.24653 0.94058 0.0
C29 C 0.94387 0.95419 0.95741 0.0
O30 O 0.9275 0.90852 0.9444 0.0
C31 C 0.01513 0.89637 0.95857 0.0
C32 C 0.05397 0.9038 0.94743 0.0
C33 C 0.0788 0.84517 0.9416 0.0
C34 C 0.064 0.77862 0.94752 0.0
C35 C 0.02475 0.77004 0.95814 0.0
C36 C 0.0008 0.82894 0.96392 0.0
C37 C 0.96332 0.93723 0.01713 0.0
C38 C 0.92693 0.904 0.00848 0.0
C39 C 0.89118 0.88582 0.02075 0.0
C40 C 0.89351 0.89712 0.04209 0.0
C41 C 0.93152 0.9235 0.05137 0.0
C42 C 0.96594 0.94502 0.03864 0.0
C43 C 0.03382 0.12023 0.01682 0.0
C44 C 0.10378 0.14442 0.0435 0.0
C45 C 0.0638 0.12215 0.05149 0.0
C46 C 0.02897 0.10967 0.03815 0.0
C47 C 0.07314 0.14713 0.00916 0.0
C48 C 0.1091 0.1566 0.02229 0.0
H49 H 0.13495 0.92677 0.00503 0.0
H50 H 0.17926 0.99617 0.97988 0.0
H51 H 0.14283 0.07991 0.95577 0.0
H52 H 0.86345 0.14418 0.0037 0.0
H53 H 0.8171 0.07231 0.98 0.0
H54 H 0.85117 0.98146 0.95743 0.0
H55 H 0.01139 0.23965 0.96488 0.0
H56 H 0.93749 0.07492 0.93759 0.0
H57 H 0.88921 0.2841 0.93551 0.0
H58 H 0.06313 0.955 0.9422 0.0
H59 H 0.08004 0.73225 0.94179 0.0
H60 H 0.96952 0.82182 0.97129 0.0
H61 H 0.92641 0.89134 -0.00765 0.0
H62 H 0.86585 0.88305 0.05157 0.0
H63 H 0.99538 0.96602 0.04539 0.0
H64 H 0.13039 0.15459 0.05409 0.0
H65 H 0.99824 0.09144 0.0443 0.0
H66 H 0.07568 0.16065 -0.00693 0.0
C67 C 0.2116 0.21305 0.25834 0.0
O68 O 0.20497 0.16192 0.27149 0.0
C69 C 0.17571 0.24525 0.24672 0.0
C70 C 0.13144 0.22799 0.24664 0.0
C71 C 0.1037 0.26494 0.23304 0.0
C72 C 0.12054 0.31702 0.21977 0.0
C73 C 0.16524 0.33089 0.22061 0.0
N74 N 0.18933 0.29591 0.23425 0.0
N75 N 0.24815 0.38208 0.25495 0.0
Co76 Co 0.24816 0.31162 0.23338 0.0
N77 N 0.30694 0.32761 0.23178 0.0
C78 C 0.36612 0.39839 0.2411 0.0
C79 C 0.39041 0.36562 0.22527 0.0
C80 C 0.37109 0.31431 0.21249 0.0
C81 C 0.32754 0.29679 0.21613 0.0
C82 C 0.32282 0.37772 0.24389 0.0
N83 N 0.25735 0.24292 0.21168 0.0
N84 N 0.25247 0.23848 0.25414 0.0
N85 N 0.23451 0.38322 0.213 0.0
C86 C 0.28953 0.40743 0.25763 0.0
O87 O 0.29869 0.45588 0.27132 0.0
C88 C 0.19092 0.38168 0.20862 0.0
O89 O 0.17252 0.42794 0.19647 0.0
C90 C 0.26162 0.44226 0.20812 0.0
C91 C 0.28558 0.56171 0.2148 0.0
C92 C 0.25699 0.50594 0.2188 0.0
C93 C 0.29226 0.43683 0.19222 0.0
C94 C 0.32087 0.4923 0.18773 0.0
C95 C 0.31845 0.55275 0.19999 0.0
C96 C 0.29948 0.24739 0.20483 0.0
O97 O 0.31528 0.20396 0.19104 0.0
C98 C 0.23145 0.18123 0.20829 0.0
C99 C 0.1974 0.18287 0.194 0.0
C100 C 0.17563 0.12128 0.18849 0.0
C101 C 0.18776 0.05797 0.19772 0.0
C102 C 0.22155 0.05448 0.21239 0.0
C103 C 0.24301 0.11734 0.21762 0.0
C104 C 0.29012 0.21945 0.26607 0.0
C105 C 0.32713 0.19119 0.25652 0.0
C106 C 0.36216 0.16775 0.26846 0.0
C107 C 0.3606 0.17437 0.28997 0.0
C108 C 0.32331 0.20003 0.29991 0.0
C109 C 0.28823 0.22247 0.28773 0.0
C110 C 0.21321 0.39752 0.26888 0.0
C111 C 0.14569 0.4273 0.29645 0.0
C112 C 0.18424 0.39731 0.30374 0.0
C113 C 0.21787 0.38245 0.28992 0.0
C114 C 0.17479 0.42875 0.26174 0.0
C115 C 0.14026 0.44214 0.27537 0.0
H116 H 0.11876 0.18721 0.25649 0.0
H117 H 0.0693 0.25276 0.23265 0.0
H118 H 0.09946 0.3448 0.20922 0.0
H119 H 0.38042 0.43921 0.25044 0.0
H120 H 0.42391 0.38076 0.22269 0.0
H121 H 0.38935 0.29022 0.20012 0.0
H122 H 0.23174 0.5116 0.23033 0.0
H123 H 0.29245 0.38956 0.18315 0.0
H124 H 0.34103 0.59511 0.19744 0.0
H125 H 0.18974 0.23144 0.18629 0.0
H126 H 0.17174 1.0109 0.19256 0.0
H127 H 0.26921 0.11702 0.22869 0.0
H128 H 0.32791 0.18343 0.24006 0.0
H129 H 0.38867 0.15837 0.29891 0.0
H130 H 0.2586 0.2401 0.29504 0.0
H131 H 0.11965 0.4382 0.30727 0.0
H132 H 0.2478 0.35965 0.2955 0.0
H133 H 0.17172 0.44247 0.24567 0.0
C134 C 0.70542 0.69569 0.26114 0.0
O135 O 0.69643 0.64692 0.27475 0.0
C136 C 0.67156 0.7274 0.24815 0.0
C137 C 0.62711 0.7118 0.24703 0.0
C138 C 0.60167 0.74793 0.23227 0.0
C139 C 0.62093 0.79758 0.21892 0.0
C140 C 0.66565 0.80991 0.22088 0.0
N141 N 0.68752 0.77575 0.2355 0.0
N142 N 0.74414 0.86366 0.25692 0.0
Co143 Co 0.74662 0.78987 0.23631 0.0
N144 N 0.80578 0.80405 0.23663 0.0
C145 C 0.86385 0.87632 0.24657 0.0
C146 C 0.89011 0.84075 0.23205 0.0
C147 C 0.87242 0.78715 0.21958 0.0
C148 C 0.82856 0.7698 0.22234 0.0
C149 C 0.82018 0.85632 0.24835 0.0
N150 N 0.75845 0.71864 0.21578 0.0
N151 N 0.74703 0.71941 0.25789 0.0
N152 N 0.7367 0.85805 0.21465 0.0
C153 C 0.7852 0.88921 0.2604 0.0
O154 O 0.79266 0.94121 0.27315 0.0
C155 C 0.69373 0.85741 0.20895 0.0
O156 O 0.67787 0.9015 0.19537 0.0
C157 C 0.76537 0.91445 0.20945 0.0
C158 C 0.78283 0.03801 0.21025 0.0
C159 C 0.75711 0.98193 0.21682 0.0
C160 C 0.79997 0.90307 0.19585 0.0
C161 C 0.82672 0.95843 0.18929 0.0
C162 C 0.81755 0.02579 0.19667 0.0
C163 C 0.80171 0.71979 0.21066 0.0
O164 O 0.81874 0.67503 0.1976 0.0
C165 C 0.73059 0.66083 0.21087 0.0
C166 C 0.69577 0.67004 0.19722 0.0
C167 C 0.67009 0.61314 0.19087 0.0
C168 C 0.68051 0.54656 0.19843 0.0
C169 C 0.71559 0.53643 0.21193 0.0
C170 C 0.74017 0.59393 0.21841 0.0
C171 C 0.78275 0.6996 0.27089 0.0
C172 C 0.81929 0.66529 0.26277 0.0
C173 C 0.85225 0.64088 0.27593 0.0
C174 C 0.84784 0.64968 0.29731 0.0
C175 C 0.81148 0.68367 0.30555 0.0
C176 C 0.77929 0.70906 0.29227 0.0
C177 C 0.70704 0.88462 0.26886 0.0
C178 C 0.63504 0.92458 0.2924 0.0
C179 C 0.67294 0.9016 0.30245 0.0
C180 C 0.70843 0.87986 0.29045 0.0
C181 C 0.67054 0.91419 0.25929 0.0
C182 C 0.63373 0.93198 0.27087 0.0
H183 H 0.6126 0.67287 0.25697 0.0
H184 H 0.5672 0.73697 0.23105 0.0
H185 H 0.60165 0.82463 0.20747 0.0
H186 H 0.87696 0.91887 0.25562 0.0
H187 H 0.92388 0.85555 0.23018 0.0
H188 H 0.89216 0.76111 0.2081 0.0
H189 H 0.72961 0.99104 0.22692 0.0
H190 H 0.80493 0.85095 0.19009 0.0
H191 H 0.836 0.0701 0.19115 0.0
H192 H 0.68994 0.72139 0.19104 0.0
H193 H 0.66302 0.50116 0.19294 0.0
H194 H 0.76794 0.58628 0.22845 0.0
H195 H 0.82159 0.65517 0.24645 0.0
H196 H 0.87358 0.63225 0.30755 0.0
H197 H 0.75088 0.73482 0.29857 0.0
H198 H 0.60672 0.93907 0.30138 0.0
H199 H 0.7379 0.86136 0.29778 0.0
H200 H 0.67082 0.92445 0.24296 0.0
C201 C 0.03963 0.42715 0.50323 0.0
O202 O 0.04866 0.37704 0.5164 0.0
C203 C 0.07339 0.45905 0.49019 0.0
C204 C 0.11731 0.44094 0.48823 0.0
C205 C 0.1424 0.47608 0.47312 0.0
C206 C 0.12324 0.52702 0.4602 0.0
C207 C 0.07899 0.54165 0.46293 0.0
N208 N 0.05762 0.50895 0.47804 0.0
N209 N 0.00053 0.59528 0.49994 0.0
Co210 Co 0.99857 0.52278 0.47891 0.0
N211 N 0.93947 0.53644 0.47896 0.0
C212 C 0.8809 0.60706 0.48909 0.0
C213 C 0.85507 0.57211 0.47422 0.0
C214 C 0.87321 0.51956 0.46153 0.0
C215 C 0.91723 0.50323 0.46422 0.0
C216 C 0.92461 0.58756 0.49096 0.0
N217 N 0.98733 0.45157 0.45808 0.0
N218 N 0.998 0.45144 0.50032 0.0
N219 N 0.00856 0.59304 0.4576 0.0
C220 C 0.95924 0.61998 0.50339 0.0
O221 O 0.95128 0.67099 0.51641 0.0
C222 C 0.05119 0.59084 0.45146 0.0
O223 O 0.06748 0.63648 0.43844 0.0
C224 C 0.98209 0.65443 0.4551 0.0
C225 C 0.96426 0.77471 0.46447 0.0
C226 C 0.99341 0.71795 0.46474 0.0
C227 C 0.94445 0.65108 0.44301 0.0
C228 C 0.91463 0.70689 0.44266 0.0
C229 C 0.92301 0.76414 0.45563 0.0
C230 C 0.94427 0.4533 0.45261 0.0
O231 O 0.92717 0.40715 0.43998 0.0
C232 C 0.01373 0.39026 0.45525 0.0
C233 C 0.04903 0.39199 0.44161 0.0
C234 C 0.07734 0.33438 0.43972 0.0
C235 C 0.07016 0.27619 0.45253 0.0
C236 C 0.03275 0.27107 0.46477 0.0
C237 C 0.00437 0.32827 0.46604 0.0
C238 C 0.96306 0.43473 0.51427 0.0
C239 C 0.92345 0.40686 0.50702 0.0
C240 C 0.8911 0.38536 0.52101 0.0
C241 C 0.89897 0.39124 0.54224 0.0
C242 C 0.93847 0.41772 0.54955 0.0
C243 C 0.97015 0.44011 0.53564 0.0
C244 C 0.03688 0.61308 0.51288 0.0
C245 C 0.10723 0.6468 0.53836 0.0
C246 C 0.06755 0.62657 0.54737 0.0
C247 C 0.03285 0.60808 0.53441 0.0
C248 C 0.07556 0.63907 0.50431 0.0
C249 C 0.11141 0.65434 0.51692 0.0
H250 H 0.13159 0.40049 0.49768 0.0
H251 H 0.17642 0.46307 0.47121 0.0
H252 H 0.14217 0.55302 0.4484 0.0
H253 H 0.86744 0.64878 0.49833 0.0
H254 H 0.82125 0.58644 0.47232 0.0
H255 H 0.85372 0.49375 0.44989 0.0
H256 H 0.02475 0.72275 0.47219 0.0
H257 H 0.93965 0.60498 0.43373 0.0
H258 H 0.89838 0.80359 0.45775 0.0
H259 H 0.05295 0.43783 0.4321 0.0
H260 H 0.09204 0.23206 0.45208 0.0
H261 H 0.97544 0.3248 0.47552 0.0
H262 H 0.91848 0.39839 0.49074 0.0
H263 H 0.87439 0.37451 0.55321 0.0
H264 H 0.00083 0.46 0.54141 0.0
H265 H 0.13487 0.6589 0.54811 0.0
H266 H 0.00213 0.59151 0.54097 0.0
H267 H 0.07771 0.64852 0.48797 0.0
C268 C 0.21029 0.62574 0.75782 0.0
O269 O 0.20346 0.57356 0.77056 0.0
C270 C 0.17477 0.65936 0.74628 0.0
C271 C 0.13105 0.63942 0.74475 0.0
C272 C 0.10408 0.67656 0.73086 0.0
C273 C 0.12112 0.73172 0.71881 0.0
C274 C 0.16504 0.74919 0.72136 0.0
N275 N 0.18853 0.71309 0.73497 0.0
N276 N 0.24696 0.79634 0.75695 0.0
Co277 Co 0.24752 0.72833 0.73449 0.0
N278 N 0.30651 0.74304 0.73373 0.0
C279 C 0.36748 0.80099 0.74722 0.0
C280 C 0.39328 0.76458 0.73267 0.0
C281 C 0.37403 0.71728 0.71858 0.0
C282 C 0.3289 0.70773 0.71952 0.0
C283 C 0.32258 0.78846 0.74728 0.0
N284 N 0.25772 0.66167 0.71212 0.0
N285 N 0.25101 0.65233 0.7543 0.0
N286 N 0.2348 0.80244 0.71473 0.0
C287 C 0.28871 0.819 0.76055 0.0
O288 O 0.29782 0.86647 0.77454 0.0
C289 C 0.19129 0.80074 0.70992 0.0
O290 O 0.17355 0.84543 0.69704 0.0
C291 C 0.26178 0.86231 0.71034 0.0
C292 C 0.27142 0.98869 0.70931 0.0
C293 C 0.24766 0.92993 0.7156 0.0
C294 C 0.29959 0.85462 0.69847 0.0
C295 C 0.32408 0.91295 0.69215 0.0
C296 C 0.31005 0.97963 0.69821 0.0
C297 C 0.301 0.66147 0.70704 0.0
O298 O 0.317 0.6195 0.69291 0.0
C299 C 0.22744 0.61023 0.70454 0.0
C300 C 0.19266 0.63164 0.69214 0.0
C301 C 0.16119 0.58414 0.68518 0.0
C302 C 0.16667 0.51357 0.69007 0.0
C303 C 0.20453 0.48905 0.69987 0.0
C304 C 0.23415 0.53822 0.70797 0.0
C305 C 0.28856 0.63245 0.76608 0.0
C306 C 0.32469 0.60197 0.75636 0.0
C307 C 0.36301 0.58948 0.76749 0.0
C308 C 0.36319 0.60127 0.78883 0.0
C309 C 0.32585 0.62484 0.79915 0.0
C310 C 0.28893 0.64246 0.78754 0.0
C311 C 0.21065 0.81811 0.76948 0.0
C312 C 0.14368 0.87023 0.79442 0.0
C313 C 0.1803 0.83997 0.80375 0.0
C314 C 0.21318 0.81234 0.79111 0.0
C315 C 0.17498 0.85293 0.76064 0.0
C316 C 0.14119 0.87855 0.77302 0.0
H317 H 0.1184 0.59586 0.7535 0.0
H318 H 0.07027 0.66175 0.72915 0.0
H319 H 0.10085 0.75888 0.70777 0.0
H320 H 0.38214 0.83728 0.75796 0.0
H321 H 0.42811 0.773 0.73232 0.0
H322 H 0.39371 0.68935 0.70747 0.0
H323 H 0.21681 0.93712 0.72336 0.0
H324 H 0.30815 0.80343 0.693 0.0
H325 H 0.32608 0.02566 0.69217 0.0
H326 H 0.19092 0.68548 0.68757 0.0
H327 H 0.14315 0.47599 0.68455 0.0
H328 H 0.26303 0.52098 0.71608 0.0
H329 H 0.32318 0.58848 0.74023 0.0
H330 H 0.39252 0.59043 0.79755 0.0
H331 H 0.26011 0.66252 0.7951 0.0
H332 H 0.11682 0.88817 0.80387 0.0
H333 H 0.24172 0.78893 0.79801 0.0
H334 H 0.17427 0.86369 0.74438 0.0
C335 C 0.71144 0.13986 0.75264 0.0
O336 O 0.70158 0.09042 0.7659 0.0
C337 C 0.67853 0.17149 0.73909 0.0
C338 C 0.63462 0.1537 0.73668 0.0
C339 C 0.61052 0.18826 0.72113 0.0
C340 C 0.63052 0.23874 0.70831 0.0
C341 C 0.67466 0.25319 0.71151 0.0
N342 N 0.69523 0.22047 0.72684 0.0
N343 N 0.75192 0.30716 0.74872 0.0
Co344 Co 0.75437 0.23337 0.72815 0.0
N345 N 0.81352 0.24647 0.72871 0.0
C346 C 0.87278 0.31271 0.7405 0.0
C347 C 0.8995 0.27456 0.72674 0.0
C348 C 0.88141 0.22309 0.71362 0.0
C349 C 0.83653 0.2112 0.71472 0.0
C350 C 0.8283 0.29692 0.74098 0.0
N351 N 0.76628 0.16089 0.70783 0.0
N352 N 0.7533 0.1634 0.74998 0.0
N353 N 0.74598 0.30183 0.70634 0.0
C354 C 0.79326 0.33094 0.75268 0.0
O355 O 0.80105 0.38156 0.76587 0.0
C356 C 0.70344 0.30081 0.7 0.0
O357 O 0.68827 0.34542 0.68638 0.0
C358 C 0.77395 0.36084 0.70284 0.0
C359 C 0.79178 0.48391 0.70839 0.0
C360 C 0.76406 0.42632 0.71156 0.0
C361 C 0.81036 0.35399 0.69003 0.0
C362 C 0.83832 0.41079 0.68674 0.0
C363 C 0.83018 0.47371 0.69701 0.0
C364 C 0.80966 0.16149 0.70291 0.0
O365 O 0.82707 0.11402 0.69084 0.0
C366 C 0.7396 0.09993 0.705 0.0
C367 C 0.7038 0.10242 0.69171 0.0
C368 C 0.67541 0.04487 0.6897 0.0
C369 C 0.68369 0.98519 0.70172 0.0
C370 C 0.72166 0.97972 0.71353 0.0
C371 C 0.74953 0.03731 0.71526 0.0
C372 C 0.78814 0.14552 0.76381 0.0
C373 C 0.82736 0.11851 0.7562 0.0
C374 C 0.86193 0.10326 0.76955 0.0
C375 C 0.85563 0.11098 0.79086 0.0
C376 C 0.8152 0.13178 0.79895 0.0
C377 C 0.78202 0.15104 0.78523 0.0
C378 C 0.71532 0.32619 0.76129 0.0
C379 C 0.64761 0.3734 0.78662 0.0
C380 C 0.68477 0.3438 0.79545 0.0
C381 C 0.71836 0.31989 0.78282 0.0
C382 C 0.67805 0.35659 0.7525 0.0
C383 C 0.64397 0.37999 0.76514 0.0
H384 H 0.61967 0.11382 0.74613 0.0
H385 H 0.57655 0.17539 0.71884 0.0
H386 H 0.61231 0.26445 0.69621 0.0
H387 H 0.88635 0.3533 0.75016 0.0
H388 H 0.93403 0.28547 0.72606 0.0
H389 H 0.9017 0.19447 0.70292 0.0
H390 H 0.7343 0.43238 0.72028 0.0
H391 H 0.8156 0.30531 0.68195 0.0
H392 H 0.85298 0.51633 0.69507 0.0
H393 H 0.69963 0.14882 0.68248 0.0
H394 H 0.6623 0.94041 0.70095 0.0
H395 H 0.77897 0.03313 0.72434 0.0
H396 H 0.83087 0.1081 0.74 0.0
H397 H 0.88211 0.09849 0.80125 0.0
H398 H 0.75088 0.16836 0.79113 0.0
H399 H 0.6215 0.39158 0.79653 0.0
H400 H 0.74733 0.29777 0.78974 0.0
H401 H 0.67623 0.36515 0.73608 0.0
C402 C 0.53406 0.94966 0.51146 0.0
O403 O 0.54267 0.8986 0.52436 0.0
C404 C 0.56857 0.98551 0.49987 0.0
C405 C 0.61359 0.97456 0.50039 0.0
C406 C 0.64011 0.01633 0.48748 0.0
C407 C 0.62142 0.06723 0.4744 0.0
C408 C 0.57612 0.07494 0.47471 0.0
N409 N 0.55301 0.03462 0.48738 0.0
N410 N 0.49409 0.11701 0.50875 0.0
Co411 Co 0.49372 0.04666 0.48716 0.0
N412 N 0.43449 0.05908 0.48673 0.0
C413 C 0.37454 0.12546 0.49753 0.0
C414 C 0.34931 0.09027 0.48248 0.0
C415 C 0.36843 0.03977 0.46939 0.0
C416 C 0.41268 0.02502 0.47205 0.0
C417 C 0.41868 0.10837 0.49913 0.0
N418 N 0.4839 0.97803 0.46542 0.0
N419 N 0.49237 0.97214 0.50772 0.0
N420 N 0.50484 0.11991 0.46683 0.0
C421 C 0.45256 0.14042 0.5121 0.0
O422 O 0.44355 0.18773 0.52615 0.0
C423 C 0.54866 0.12321 0.4628 0.0
O424 O 0.56541 0.16962 0.45015 0.0
C425 C 0.47582 0.17593 0.46132 0.0
C426 C 0.46115 0.30062 0.45876 0.0
C427 C 0.48617 0.24541 0.46653 0.0
C428 C 0.44045 0.16283 0.44823 0.0
C429 C 0.41407 0.21736 0.44091 0.0
C430 C 0.42434 0.28593 0.44677 0.0
C431 C 0.4408 0.97814 0.45993 0.0
O432 O 0.42512 0.93605 0.44574 0.0
C433 C 0.51362 0.92399 0.45919 0.0
C434 C 0.55094 0.94186 0.44798 0.0
C435 C 0.58017 0.89073 0.44116 0.0
C436 C 0.57083 0.82075 0.44552 0.0
C437 C 0.53144 0.80085 0.45477 0.0
C438 C 0.50349 0.85288 0.46237 0.0
C439 C 0.45572 0.94704 0.51942 0.0
C440 C 0.42069 0.91339 0.50965 0.0
C441 C 0.38651 0.88528 0.52133 0.0
C442 C 0.38779 0.89054 0.54289 0.0
C443 C 0.42385 0.91969 0.55306 0.0
C444 C 0.45743 0.9485 0.5411 0.0
C445 C 0.52973 0.1339 0.52213 0.0
C446 C 0.59918 0.16326 0.54869 0.0
C447 C 0.56212 0.12906 0.55622 0.0
C448 C 0.52767 0.11428 0.54287 0.0
C449 C 0.56631 0.17028 0.5148 0.0
C450 C 0.60207 0.18306 0.52784 0.0
H451 H 0.62781 0.93542 0.51034 0.0
H452 H 0.67505 1.00917 0.48758 0.0
H453 H 0.64162 0.09908 0.46448 0.0
H454 H 0.36022 0.16534 0.50719 0.0
H455 H 0.31518 0.10287 0.48075 0.0
H456 H 0.34942 1.01394 0.45758 0.0
H457 H 0.5155 0.2566 0.47522 0.0
H458 H 0.43529 0.11049 0.44274 0.0
H459 H 0.40706 0.32934 0.4399 0.0
H460 H 0.55586 0.99548 0.44366 0.0
H461 H 0.59195 0.78026 0.4396 0.0
H462 H 0.47301 0.83841 0.4696 0.0
H463 H 0.42094 0.90541 0.4932 0.0
H464 H 0.36034 0.87118 0.55169 0.0
H465 H 0.48599 0.96963 0.54855 0.0
H466 H 0.62602 0.17367 0.55913 0.0
H467 H 0.49898 0.08795 0.54863 0.0
H468 H 0.56711 0.18793 0.499 0.0
C469 C 0.54889 0.38605 0.01054 0.0
O470 O 0.55492 0.33846 0.02485 0.0
C471 C 0.58505 0.41466 -0.00172 0.0
C472 C 0.62882 0.39456 -0.00203 0.0
C473 C 0.65669 0.42711 0.98346 0.0
C474 C 0.64043 0.47764 0.96954 0.0
C475 C 0.59622 0.49463 0.9707 0.0
N476 N 0.57204 0.46396 0.98519 0.0
N477 N 0.51463 0.55621 0.0044 0.0
Co478 Co 0.51335 0.48112 0.98416 0.0
N479 N 0.45457 0.49771 0.98267 0.0
C480 C 0.39622 0.57133 0.99101 0.0
C481 C 0.37091 0.53475 0.97629 0.0
C482 C 0.38918 0.47962 0.96464 0.0
C483 C 0.43265 0.46194 0.96837 0.0
C484 C 0.43957 0.55096 -0.00624 0.0
N485 N 0.50276 0.40909 0.96371 0.0
N486 N 0.50848 0.41214 0.00599 0.0
N487 N 0.52742 0.54736 0.96247 0.0
C488 C 0.47359 0.58357 0.0065 0.0
O489 O 0.46544 0.63722 0.01852 0.0
C490 C 0.57086 0.5432 0.95783 0.0
O491 O 0.58945 0.58515 0.94441 0.0
C492 C 0.50124 0.60616 0.95668 0.0
C493 C 0.48791 0.73116 0.95712 0.0
C494 C 0.5116 0.67321 0.96392 0.0
C495 C 0.46656 0.59727 0.94293 0.0
C496 C 0.44184 0.65464 0.93616 0.0
C497 C 0.45312 0.72137 0.94341 0.0
C498 C 0.46001 0.41016 0.95776 0.0
O499 O 0.44402 0.36535 0.9444 0.0
C500 C 0.53197 0.35392 0.95817 0.0
C501 C 0.5634 0.36533 0.94289 0.0
C502 C 0.59004 0.31062 0.93608 0.0
C503 C 0.5849 0.24437 0.94483 0.0
C504 C 0.55208 0.2312 0.95935 0.0
C505 C 0.52619 0.28665 0.96636 0.0
C506 C 0.47086 0.3971 0.01833 0.0
C507 C 0.43511 0.36106 0.01001 0.0
C508 C 0.39962 0.34316 0.02263 0.0
C509 C 0.40044 0.36105 0.04362 0.0
C510 C 0.43582 0.39752 0.05199 0.0
C511 C 0.47101 0.41499 0.03929 0.0
C512 C 0.55057 0.57838 0.01703 0.0
C513 C 0.61695 0.63116 0.04215 0.0
C514 C 0.57869 0.60581 0.05134 0.0
C515 C 0.54587 0.57878 0.0386 0.0
C516 C 0.58806 0.60784 0.00815 0.0
C517 C 0.62122 0.63475 0.02068 0.0
H518 H 0.64095 0.35462 0.00825 0.0
H519 H 0.69068 0.41255 0.98283 0.0
H520 H 0.66154 0.50186 0.95826 0.0
H521 H 0.38263 0.61467 -0.00047 0.0
H522 H 0.33741 0.54977 0.97368 0.0
H523 H 0.37016 0.45258 0.95308 0.0
H524 H 0.53899 0.68056 0.97418 0.0
H525 H 0.45978 0.5455 0.93725 0.0
H526 H 0.43612 0.7669 0.93774 0.0
H527 H 0.56533 0.41586 0.93552 0.0
H528 H 0.60507 0.20167 0.93947 0.0
H529 H 0.50016 0.27707 0.97729 0.0
H530 H 0.4353 0.34528 -0.006 0.0
H531 H 0.37254 0.34929 0.05328 0.0
H532 H 0.49883 0.44196 0.04573 0.0
H533 H 0.6436 0.64965 0.05165 0.0
H534 H 0.51569 0.56064 0.0453 0.0
H535 H 0.59054 0.61401 0.99169 0.0
H536 H 0.10545 0.02838 0.07533 0.0
H537 H 0.01544 0.20124 0.07774 0.0
H538 H 0.02526 0.20854 0.11566 0.0
H539 H 0.07779 0.95319 0.1288 0.0
H540 H 0.13409 0.9303 0.13274 0.0
H541 H 0.11098 0.92752 0.10716 0.0
H542 H 0.1721 1.00976 0.09421 0.0
H543 H 0.19497 1.01417 0.11966 0.0
H544 H 0.17961 0.09321 0.10652 0.0
H545 H 0.05893 0.21489 0.15112 0.0
H546 H 0.1073 0.2112 0.18177 0.0
H547 H 0.17428 0.03298 0.15575 0.0
C548 C 0.08626 0.06532 0.08409 0.0
C549 C 0.05942 0.11372 0.07395 0.0
C550 C 0.03555 0.16302 0.08551 0.0
C551 C 0.04107 0.16757 0.10698 0.0
C552 C 0.06993 0.12154 0.11651 0.0
C553 C 0.09125 0.07006 0.10546 0.0
C554 C 0.12446 0.03269 0.1186 0.0
C555 C 0.11101 0.9564 0.12203 0.0
C556 C 0.17046 0.03786 0.10919 0.0
C557 C 0.12085 0.07429 0.13831 0.0
C558 C 0.08878 0.12458 0.13703 0.0
C559 C 0.08316 0.17429 0.15255 0.0
C560 C 0.11097 0.1723 0.16978 0.0
C561 C 0.14394 0.12106 0.17124 0.0
C562 C 0.1484 0.07124 0.15538 0.0
H563 H 0.89644 0.83256 0.07924 0.0
H564 H 0.97343 0.02216 0.07562 0.0
H565 H 0.96936 0.03387 0.11347 0.0
H566 H 0.8206 0.90415 0.10996 0.0
H567 H 0.80819 0.82588 0.12419 0.0
H568 H 0.8294 0.81971 0.0985 0.0
H569 H 0.8927 0.74252 0.11199 0.0
H570 H 0.8717 0.74938 0.13791 0.0
H571 H 0.92714 0.77422 0.13249 0.0
H572 H 0.94718 0.03433 0.15107 0.0
H573 H 0.90253 0.03446 0.18256 0.0
H574 H 0.82848 0.85904 0.15844 0.0
C575 C 0.91283 0.87649 0.08628 0.0
C576 C 0.93479 0.92683 0.07427 0.0
C577 C 0.95673 0.98227 0.08438 0.0
C578 C 0.95461 0.98934 0.10594 0.0
C579 C 0.9302 0.94088 0.11712 0.0
C580 C 0.90945 0.88579 0.10751 0.0
C581 C 0.87812 0.84911 0.12183 0.0
C582 C 0.83136 0.84987 0.11311 0.0
C583 C 0.89335 0.77438 0.12632 0.0
C584 C 0.88246 0.89462 0.14071 0.0
C585 C 0.91412 0.94509 0.13811 0.0
C586 C 0.92224 0.99509 0.1532 0.0
C587 C 0.89605 0.99534 0.17093 0.0
C588 C 0.86063 0.94807 0.17301 0.0
C589 C 0.85523 0.89555 0.15791 0.0
H590 H 0.11956 0.44355 0.41964 0.0
H591 H 0.10901 0.2172 0.41982 0.0
H592 H 0.15371 0.21168 0.38902 0.0
H593 H 0.094 0.45678 0.36963 0.0
H594 H 0.12848 0.53002 0.36353 0.0
H595 H 0.10961 0.51776 0.38949 0.0
H596 H 0.18923 0.51818 0.40276 0.0
H597 H 0.20843 0.53083 0.37671 0.0
H598 H 0.22821 0.45856 0.39179 0.0
H599 H 0.18449 0.22791 0.35462 0.0
H600 H 0.19422 0.26645 0.31856 0.0
H601 H 0.17758 0.48109 0.33756 0.0
C602 C 0.12708 0.39253 0.41356 0.0
C603 C 0.11063 0.33105 0.42283 0.0
C604 C 0.12204 0.26567 0.414 0.0
C605 C 0.14751 0.26166 0.39618 0.0
C606 C 0.161 0.32325 0.38691 0.0
C607 C 0.15107 0.38762 0.39524 0.0
C608 C 0.16159 0.4457 0.38019 0.0
C609 C 0.121 0.49009 0.37543 0.0
C610 C 0.19911 0.49099 0.38835 0.0
C611 C 0.17578 0.40344 0.36162 0.0
C612 C 0.17699 0.33305 0.36614 0.0
C613 C 0.18475 0.28295 0.35099 0.0
C614 C 0.19027 0.30515 0.33059 0.0
C615 C 0.18732 0.37656 0.32556 0.0
C616 C 0.18095 0.42634 0.34128 0.0
H617 H 0.82207 0.58813 0.33637 0.0
H618 H 0.7972 0.8069 0.32489 0.0
H619 H 0.80304 0.83103 0.36214 0.0
H620 H 0.76893 0.58111 0.39034 0.0
H621 H 0.81067 0.52276 0.39945 0.0
H622 H 0.79298 0.51883 0.37292 0.0
H623 H 0.87268 0.53573 0.36078 0.0
H624 H 0.8905 0.53978 0.38713 0.0
H625 H 0.90301 0.61037 0.36974 0.0
H626 H 0.82846 0.83636 0.39742 0.0
H627 H 0.87316 0.82546 0.42778 0.0
H628 H 0.87607 0.59979 0.4196 0.0
C629 C 0.81629 0.64055 0.34192 0.0
C630 C 0.80849 0.69563 0.32797 0.0
C631 C 0.80215 0.76393 0.33548 0.0
C632 C 0.80532 0.77797 0.35659 0.0
C633 C 0.81404 0.72288 0.36998 0.0
C634 C 0.81901 0.65526 0.36302 0.0
C635 C 0.83495 0.60778 0.38013 0.0
C636 C 0.79977 0.55447 0.38606 0.0
C637 C 0.87782 0.57136 0.37408 0.0
C638 C 0.84181 0.66051 0.39723 0.0
C639 C 0.82832 0.72604 0.39117 0.0
C640 C 0.83765 0.78498 0.40275 0.0
C641 C 0.86324 0.77761 0.4204 0.0
C642 C 0.87903 0.7112 0.42679 0.0
C643 C 0.86571 0.65166 0.41545 0.0
H644 H 0.10551 0.71585 0.57503 0.0
H645 H 0.01964 0.53624 0.57179 0.0
H646 H 0.01948 0.52947 0.6097 0.0
H647 H 0.17379 0.63928 0.60844 0.0
H648 H 0.18891 0.7177 0.62202 0.0
H649 H 0.17059 0.72286 0.59582 0.0
H650 H 0.11056 0.81022 0.60707 0.0
H651 H 0.12848 0.80383 0.63352 0.0
H652 H 0.07251 0.78597 0.62701 0.0
H653 H 0.03565 0.53347 0.64773 0.0
H654 H 0.07882 0.52726 0.67964 0.0
H655 H 0.16515 0.68765 0.65573 0.0
C656 C 0.08608 0.67547 0.58218 0.0
C657 C 0.06267 0.62654 0.57024 0.0
C658 C 0.0372 0.5754 0.58045 0.0
C659 C 0.03669 0.57141 0.60208 0.0
C660 C 0.06175 0.61887 0.61331 0.0
C661 C 0.08653 0.66928 0.60359 0.0
C662 C 0.1183 0.70338 0.61829 0.0
C663 C 0.16564 0.6952 0.6107 0.0
C664 C 0.10675 0.78043 0.62167 0.0
C665 C 0.10961 0.66113 0.63753 0.0
C666 C 0.0752 0.6156 0.63473 0.0
C667 C 0.06281 0.56866 0.65001 0.0
C668 C 0.08805 0.5649 0.668 0.0
C669 C 0.12682 0.60484 0.67003 0.0
C670 C 0.13592 0.65638 0.65504 0.0
H671 H 0.8533 0.5105 0.65799 0.0
H672 H 0.89578 0.30511 0.67709 0.0
H673 H 0.94212 0.29736 0.64597 0.0
H674 H 0.83698 0.47226 0.60888 0.0
H675 H 0.85481 0.55413 0.59814 0.0
H676 H 0.83483 0.55088 0.6241 0.0
H677 H 0.90606 0.60692 0.6368 0.0
H678 H 0.92841 0.60822 0.61105 0.0
H679 H 0.95747 0.5656 0.63166 0.0
H680 H 0.97109 0.30221 0.61014 0.0
H681 H 0.97612 0.31588 0.57223 0.0
H682 H 0.91461 0.51781 0.57655 0.0
C683 C 0.87396 0.46523 0.65619 0.0
C684 C 0.87157 0.40888 0.67016 0.0
C685 C 0.89742 0.34908 0.66668 0.0
C686 C 0.92413 0.34461 0.64914 0.0
C687 C 0.92474 0.40054 0.63536 0.0
C688 C 0.90038 0.45995 0.63879 0.0
C689 C 0.90066 0.50782 0.62025 0.0
C690 C 0.85409 0.52198 0.61239 0.0
C691 C 0.9246 0.57618 0.62522 0.0
C692 C 0.92631 0.46384 0.60523 0.0
C693 C 0.94125 0.4032 0.61442 0.0
C694 C 0.9608 0.35032 0.60293 0.0
C695 C 0.96355 0.35839 0.58147 0.0
C696 C 0.94647 0.41844 0.57186 0.0
C697 C 0.92903 0.47263 0.58386 0.0
H698 H 0.1534 0.94192 0.83026 0.0
H699 H 0.21348 0.73753 0.82917 0.0
H700 H 0.2117 0.73453 0.86728 0.0
H701 H 0.19239 1.00467 0.88205 0.0
H702 H 0.1397 0.04113 0.88776 0.0
H703 H 0.15905 0.03874 0.86149 0.0
H704 H 0.08945 0.97183 0.85026 0.0
H705 H 0.06985 0.97526 0.87628 0.0
H706 H 0.07505 0.89232 0.86344 0.0
H707 H 0.19429 0.74713 0.9051 0.0
H708 H 0.15071 0.75949 0.93673 0.0
H709 H 0.08876 0.94308 0.91067 0.0
C710 C 0.16688 0.89678 0.83796 0.0
C711 C 0.18408 0.84021 0.82665 0.0
C712 C 0.20149 0.78251 0.83746 0.0
C713 C 0.2005 0.78038 0.85914 0.0
C714 C 0.18155 0.83598 0.86974 0.0
C715 C 0.16444 0.89264 0.85939 0.0
C716 C 0.13724 0.93793 0.87346 0.0
C717 C 0.15838 1.00988 0.87636 0.0
C718 C 0.09015 0.94461 0.86539 0.0
C719 C 0.1395 0.89574 0.89312 0.0
C720 C 0.16707 0.83931 0.89102 0.0
C721 C 0.17247 0.79098 0.90683 0.0
C722 C 0.14705 0.7981 0.92468 0.0
C723 C 0.11483 0.85095 0.92615 0.0
C724 C 0.11298 0.90232 0.91051 0.0
H725 H 0.84828 0.0396 0.82687 0.0
H726 H 0.76697 0.22391 0.82264 0.0
H727 H 0.76529 0.23113 0.86061 0.0
H728 H 0.8126 0.97332 0.8793 0.0
H729 H 0.86813 0.95272 0.8859 0.0
H730 H 0.85 0.94562 0.8595 0.0
H731 H 0.91211 0.02865 0.84776 0.0
H732 H 0.93056 0.03453 0.8739 0.0
H733 H 0.91729 0.11285 0.85988 0.0
H734 H 0.78129 0.22815 0.89875 0.0
H735 H 0.82515 0.23492 0.93041 0.0
H736 H 0.90809 0.0692 0.90709 0.0
C737 C 0.82947 0.08102 0.83385 0.0
C738 C 0.80808 0.13143 0.82167 0.0
C739 C 0.78319 0.18389 0.83155 0.0
C740 C 0.78186 0.18817 0.85318 0.0
C741 C 0.8055 0.13963 0.8647 0.0
C742 C 0.82931 0.08754 0.85524 0.0
C743 C 0.8603 0.05266 0.87011 0.0
C744 C 0.84693 0.97656 0.87393 0.0
C745 C 0.90782 0.0576 0.86247 0.0
C746 C 0.85264 0.09661 0.8891 0.0
C747 C 0.81906 0.14344 0.88611 0.0
C748 C 0.80787 0.19204 0.90113 0.0
C749 C 0.83361 0.19615 0.91897 0.0
C750 C 0.87186 0.15503 0.92105 0.0
C751 C 0.87948 0.10173 0.90641 0.0
H752 H 0.63215 0.15649 0.67175 0.0
H753 H 0.64178 0.93038 0.66895 0.0
H754 H 0.5953 0.92973 0.63864 0.0
H755 H 0.52232 0.17692 0.64515 0.0
H756 H 0.54219 0.25118 0.63095 0.0
H757 H 0.56201 0.23427 0.65668 0.0
H758 H 0.64118 0.23518 0.64291 0.0
H759 H 0.62177 0.25133 0.61724 0.0
H760 H 0.65596 0.17691 0.62223 0.0
H761 H 0.56275 0.95167 0.60479 0.0
H762 H 0.55233 0.99584 0.56935 0.0
H763 H 0.57179 0.20706 0.59103 0.0
C764 C 0.624 0.10646 0.66518 0.0
C765 C 0.64087 0.04367 0.67338 0.0
C766 C 0.6286 0.9797 0.66392 0.0
C767 C 0.60207 0.97853 0.64639 0.0
C768 C 0.58836 0.04159 0.6381 0.0
C769 C 0.59904 0.10454 0.64716 0.0
C770 C 0.58855 0.16501 0.63299 0.0
C771 C 0.55155 0.20947 0.64198 0.0
C772 C 0.62929 0.20963 0.62858 0.0
C773 C 0.5736 0.12578 0.614 0.0
C774 C 0.57179 0.0548 0.61761 0.0
C775 C 0.56303 1.00719 0.60188 0.0
C776 C 0.5572 0.03258 0.58183 0.0
C777 C 0.56095 0.10461 0.57772 0.0
C778 C 0.56821 0.15183 0.59403 0.0
H779 H 0.39112 0.82 0.57923 0.0
H780 H 0.46124 0.01674 0.5793 0.0
H781 H 0.45922 0.01779 0.61729 0.0
H782 H 0.31518 0.87546 0.61334 0.0
H783 H 0.30703 0.79213 0.62561 0.0
H784 H 0.3259 0.79587 0.59945 0.0
H785 H 0.39295 0.72114 0.60962 0.0
H786 H 0.37441 0.71841 0.63602 0.0
H787 H 0.42828 0.75004 0.63014 0.0
H788 H 0.4404 1.00607 0.65494 0.0
H789 H 0.39738 0.995 0.68686 0.0
H790 H 0.3289 0.81816 0.66029 0.0
C791 C 0.40641 0.86334 0.5871 0.0
C792 C 0.42644 0.91821 0.57605 0.0
C793 C 0.44658 0.97304 0.58724 0.0
C794 C 0.44554 0.97414 0.60891 0.0
C795 C 0.42384 0.92051 0.6192 0.0
C796 C 0.40418 0.86656 0.60856 0.0
C797 C 0.37568 0.82286 0.62251 0.0
C798 C 0.32817 0.82161 0.61478 0.0
C799 C 0.39395 0.74871 0.6247 0.0
C800 C 0.38027 0.86302 0.64246 0.0
C801 C 0.40976 0.91709 0.64054 0.0
C802 C 0.41728 0.96383 0.6566 0.0
C803 C 0.39229 0.95745 0.67462 0.0
C804 C 0.35879 0.90662 0.67611 0.0
C805 C 0.35443 0.85697 0.6601 0.0
H806 H 0.59667 0.22446 0.90293 0.0
H807 H 0.64591 0.41911 0.92767 0.0
H808 H 0.68738 0.43856 0.89544 0.0
H809 H 0.69508 0.17572 0.87276 0.0
H810 H 0.66365 0.14228 0.85142 0.0
H811 H 0.6429 0.13603 0.8774 0.0
H812 H 0.5726 0.20078 0.86754 0.0
H813 H 0.59104 0.20538 0.84129 0.0
H814 H 0.5761 0.28403 0.85475 0.0
H815 H 0.71414 0.44474 0.85898 0.0
H816 H 0.72081 0.44005 0.82088 0.0
H817 H 0.65396 0.24154 0.82019 0.0
C818 C 0.61753 0.26987 0.90191 0.0
C819 C 0.61877 0.31974 0.91793 0.0
C820 C 0.64484 0.38007 0.91563 0.0
C821 C 0.66873 0.39118 0.89746 0.0
C822 C 0.66621 0.34132 0.88182 0.0
C823 C 0.64126 0.28176 0.88392 0.0
C824 C 0.63927 0.24062 0.86403 0.0
C825 C 0.66157 0.16946 0.86654 0.0
C826 C 0.59197 0.2323 0.85647 0.0
C827 C 0.6652 0.28806 0.85005 0.0
C828 C 0.68139 0.34508 0.86069 0.0
C829 C 0.70257 0.3996 0.8506 0.0
C830 C 0.7062 0.39666 0.82904 0.0
C831 C 0.68841 0.33996 0.81799 0.0
C832 C 0.66865 0.28439 0.82858 0.0
H833 H 0.43765 0.55696 0.90496 0.0
H834 H 0.36781 0.73473 0.93011 0.0
H835 H 0.32229 0.73819 0.8989 0.0
H836 H 0.4444 0.6045 0.8565 0.0
H837 H 0.43375 0.52124 0.84465 0.0
H838 H 0.45604 0.52488 0.87022 0.0
H839 H 0.39219 0.45061 0.88435 0.0
H840 H 0.36999 0.44501 0.85863 0.0
H841 H 0.33688 0.47735 0.8795 0.0
H842 H 0.29887 0.74028 0.86154 0.0
H843 H 0.29068 0.72746 0.82376 0.0
H844 H 0.3642 0.53486 0.82616 0.0
C845 C 0.41161 0.59477 0.90462 0.0
C846 C 0.40756 0.64676 0.91996 0.0
C847 C 0.37313 0.69586 0.91828 0.0
C848 C 0.34651 0.69772 0.90071 0.0
C849 C 0.35323 0.64806 0.88539 0.0
C850 C 0.38378 0.59576 0.88761 0.0
C851 C 0.38645 0.55089 0.86849 0.0
C852 C 0.43289 0.55045 0.85945 0.0
C853 C 0.3704 0.47656 0.87302 0.0
C854 C 0.35506 0.5893 0.85464 0.0
C855 C 0.33605 0.6452 0.86458 0.0
C856 C 0.31173 0.69473 0.85382 0.0
C857 C 0.30706 0.68697 0.83237 0.0
C858 C 0.3262 0.62973 0.82202 0.0
C859 C 0.34914 0.57932 0.83356 0.0
H860 H 0.60979 0.70682 0.07732 0.0
H861 H 0.53581 0.51382 0.07721 0.0
H862 H 0.53496 0.5152 0.11524 0.0
H863 H 0.68233 0.649 0.11188 0.0
H864 H 0.69208 0.73183 0.1242 0.0
H865 H 0.67383 0.72918 0.09795 0.0
H866 H 0.60817 0.80764 0.10764 0.0
H867 H 0.62616 0.8096 0.13414 0.0
H868 H 0.57175 0.78106 0.128 0.0
H869 H 0.55247 0.5271 0.15294 0.0
H870 H 0.59484 0.53576 0.18506 0.0
H871 H 0.66918 0.70662 0.15858 0.0
C872 C 0.59298 0.66494 0.08517 0.0
C873 C 0.57305 0.61004 0.07413 0.0
C874 C 0.55067 0.5573 0.0852 0.0
C875 C 0.55003 0.55766 0.10687 0.0
C876 C 0.57224 0.61068 0.11723 0.0
C877 C 0.59366 0.663 0.10664 0.0
C878 C 0.62284 0.70514 0.1207 0.0
C879 C 0.67055 0.70358 0.11325 0.0
C880 C 0.60621 0.78032 0.12274 0.0
C881 C 0.61682 0.66549 0.14063 0.0
C882 C 0.58584 0.61361 0.13862 0.0
C883 C 0.57678 0.56757 0.15465 0.0
C884 C 0.60158 0.57236 0.17276 0.0
C885 C 0.63656 0.6206 0.17433 0.0
C886 C 0.64262 0.66966 0.15831 0.0
H887 H 0.35576 0.3765 0.16759 0.0
H888 H 0.3518 0.60328 0.16458 0.0
H889 H 0.39583 0.60047 0.13348 0.0
H890 H 0.46246 0.34811 0.14131 0.0
H891 H 0.44144 0.27538 0.12677 0.0
H892 H 0.42041 0.29375 0.15219 0.0
H893 H 0.34217 0.29944 0.13729 0.0
H894 H 0.3629 0.28115 0.11193 0.0
H895 H 0.3307 0.35824 0.11627 0.0
H896 H 0.43142 0.57594 0.10031 0.0
H897 H 0.44662 0.53033 0.06544 0.0
H898 H 0.41875 0.32077 0.08667 0.0
C899 C 0.36429 0.42593 0.16069 0.0
C900 C 0.3507 0.4901 0.16941 0.0
C901 C 0.36309 0.553 0.15934 0.0
C902 C 0.38809 0.55223 0.14133 0.0
C903 C 0.39982 0.4883 0.13301 0.0
C904 C 0.38776 0.42618 0.14216 0.0
C905 C 0.39754 0.36495 0.12813 0.0
C906 C 0.43256 0.31776 0.13767 0.0
C907 C 0.35585 0.32357 0.12311 0.0
C908 C 0.41485 0.40291 0.10933 0.0
C909 C 0.41753 0.47382 0.11283 0.0
C910 C 0.43004 0.52043 0.09743 0.0
C911 C 0.4387 0.49414 0.07771 0.0
C912 C 0.43402 0.42222 0.07354 0.0
C913 C 0.42288 0.37593 0.08963 0.0
H914 H 0.57906 0.99041 0.41074 0.0
H915 H 0.66012 0.82666 0.43642 0.0
H916 H 0.70211 0.82308 0.40409 0.0
H917 H 0.56543 0.93268 0.36525 0.0
H918 H 0.57081 1.01163 0.3504 0.0
H919 H 0.55453 0.01622 0.37692 0.0
H920 H 0.61881 0.09829 0.38564 0.0
H921 H 0.6346 0.09683 0.35883 0.0
H922 H 0.67345 0.07387 0.37855 0.0
H923 H 0.71523 0.80899 0.36631 0.0
H924 H 0.71418 0.80839 0.32825 0.0
H925 H 0.63572 0.99634 0.32879 0.0
C926 C 0.60722 0.95673 0.41027 0.0
C927 C 0.61516 0.90719 0.42597 0.0
C928 C 0.65223 0.86344 0.42431 0.0
C929 C 0.67661 0.86139 0.40606 0.0
C930 C 0.66504 0.9062 0.39009 0.0
C931 C 0.63276 0.95576 0.39244 0.0
C932 C 0.6241 0.99376 0.37239 0.0
C933 C 0.5759 0.98813 0.36588 0.0
C934 C 0.63863 0.07023 0.37395 0.0
C935 C 0.65336 0.95312 0.35804 0.0
C936 C 0.67686 0.90295 0.36849 0.0
C937 C 0.69944 0.85084 0.35801 0.0
C938 C 0.6986 0.85084 0.33635 0.0
C939 C 0.67565 0.90301 0.32538 0.0
C940 C 0.65368 0.95555 0.33655 0.0
H941 H 0.41685 0.12034 0.40955 0.0
H942 H 0.33775 0.28937 0.43365 0.0
H943 H 0.2975 0.29345 0.40079 0.0
H944 H 0.43217 0.17576 0.36289 0.0
H945 H 0.42621 0.09489 0.34901 0.0
H946 H 0.44259 0.0938 0.37558 0.0
H947 H 0.37782 1.01367 0.38512 0.0
H948 H 0.36182 1.01222 0.35833 0.0
H949 H 0.32331 0.03828 0.37785 0.0
H950 H 0.28251 0.30159 0.36282 0.0
H951 H 0.28262 0.29657 0.32484 0.0
H952 H 0.36047 0.108 0.32731 0.0
C953 C 0.3896 0.15577 0.40858 0.0
C954 C 0.38141 0.20566 0.42418 0.0
C955 C 0.34576 0.25195 0.42173 0.0
C956 C 0.32233 0.25428 0.40318 0.0
C957 C 0.33354 0.20775 0.38758 0.0
C958 C 0.36502 0.15724 0.39045 0.0
C959 C 0.37318 0.11668 0.3708 0.0
C960 C 0.42137 0.12061 0.36421 0.0
C961 C 0.35811 0.04071 0.37317 0.0
C962 C 0.34414 0.15616 0.35605 0.0
C963 C 0.32137 0.20836 0.36598 0.0
C964 C 0.29831 0.25869 0.35498 0.0
C965 C 0.29843 0.25528 0.33335 0.0
C966 C 0.32088 0.2013 0.32288 0.0
C967 C 0.34301 0.15028 0.33461 0.0
H968 H 0.03714 0.65464 0.98341 0.0
H969 H 0.96736 0.72969 0.92965 0.0
H970 H 0.94259 0.61024 0.92207 0.0
H971 H 0.07292 0.49514 0.96317 0.0
H972 H 0.06358 0.44289 0.98586 0.0
H973 H 0.07436 0.5348 0.9884 0.0
H974 H 0.0025 0.55144 0.00865 0.0
H975 H 0.99188 0.45928 0.00655 0.0
H976 H 0.95204 0.52118 -0.00242 0.0
H977 H 0.93683 0.48517 0.91668 0.0
H978 H 0.93237 0.35854 0.91788 0.0
H979 H 0.99501 0.35831 0.97812 0.0
C980 C 0.01554 0.64569 0.97046 0.0
C981 C 0.0036 0.70101 0.95715 0.0
C982 C 0.97612 0.6879 0.94011 0.0
C983 C 0.96227 0.62029 0.9356 0.0
C984 C 0.97547 0.5665 0.94857 0.0
C985 C 0.00018 0.57814 0.96604 0.0
C986 C 0.00875 0.50977 0.97733 0.0
C987 C 0.05783 0.4948 0.97877 0.0
C988 C 0.98752 0.51046 -0.0012 0.0
C989 C 0.98612 0.45815 0.96303 0.0
C990 C 0.968 0.49273 0.94642 0.0
C991 C 0.94896 0.45759 0.93006 0.0
C992 C 0.94631 0.38524 0.93104 0.0
C993 C 0.96083 0.34787 0.9487 0.0
C994 C 0.98235 0.38502 0.96469 0.0
H995 H 0.21113 0.64086 0.21683 0.0
H996 H 0.34828 0.64361 0.23247 0.0
H997 H 0.3445 0.77043 0.23847 0.0
H998 H 0.2095 0.788 0.18864 0.0
H999 H 0.15759 0.82127 0.19705 0.0
H1000 H 0.16819 0.72927 0.1981 0.0
H1001 H 0.15033 0.72726 0.23713 0.0
H1002 H 0.13873 0.8193 0.23617 0.0
H1003 H 0.17813 0.78631 0.25432 0.0
H1004 H 0.32985 0.89858 0.23496 0.0
H1005 H 0.30398 0.01545 0.22595 0.0
H1006 H 0.17366 0.93148 0.21677 0.0
C1007 C 0.23978 0.66764 0.22251 0.0
C1008 C 0.28 0.63222 0.2242 0.0
C1009 C 0.31714 0.66962 0.23106 0.0
C1010 C 0.3153 0.74177 0.23451 0.0
C1011 C 0.2758 0.77596 0.23151 0.0
C1012 C 0.23836 0.73989 0.22622 0.0
C1013 C 0.20101 0.78994 0.22228 0.0
C1014 C 0.18305 0.7816 0.20021 0.0
C1015 C 0.16491 0.78012 0.23844 0.0
C1016 C 0.22392 0.85956 0.22501 0.0
C1017 C 0.26696 0.8504 0.23044 0.0
C1018 C 0.2958 0.90654 0.23137 0.0
C1019 C 0.2805 0.97346 0.2263 0.0
C1020 C 0.23639 0.9846 0.2205 0.0
C1021 C 0.20772 0.92629 0.22065 0.0
H1022 H 0.77004 0.14483 0.18368 0.0
H1023 H 0.76941 0.09434 0.24885 0.0
H1024 H 0.75459 0.2187 0.25716 0.0
H1025 H 0.82285 0.30964 0.18747 0.0
H1026 H 0.79054 0.34893 0.16738 0.0
H1027 H 0.80084 0.25659 0.167 0.0
H1028 H 0.7178 0.23199 0.16585 0.0
H1029 H 0.70725 0.32423 0.16605 0.0
H1030 H 0.68304 0.26899 0.1854 0.0
H1031 H 0.74233 0.35209 0.25771 0.0
H1032 H 0.72653 0.47686 0.25028 0.0
H1033 H 0.73445 0.43419 0.18473 0.0
C1034 C 0.76693 0.16 0.19972 0.0
C1035 C 0.77136 0.11063 0.21567 0.0
C1036 C 0.76617 0.13184 0.23645 0.0
C1037 C 0.75801 0.20221 0.24127 0.0
C1038 C 0.75475 0.25004 0.22508 0.0
C1039 C 0.75854 0.22929 0.20472 0.0
C1040 C 0.7527 0.28945 0.19 0.0
C1041 C 0.79421 0.30187 0.17722 0.0
C1042 C 0.71282 0.27797 0.17601 0.0
C1043 C 0.74512 0.34779 0.20517 0.0
C1044 C 0.74672 0.32472 0.22537 0.0
C1045 C 0.7408 0.37045 0.24193 0.0
C1046 C 0.7321 0.44105 0.23763 0.0
C1047 C 0.72897 0.46443 0.21697 0.0
C1048 C 0.73627 0.41729 0.20067 0.0
H1049 H 0.93531 0.89858 0.44825 0.0
H1050 H 0.02423 0.81742 0.49456 0.0
H1051 H 0.04708 0.93833 0.50261 0.0
H1052 H 0.99915 0.03099 0.42967 0.0
H1053 H 0.95495 0.09146 0.42604 0.0
H1054 H 0.94474 0.99932 0.425 0.0
H1055 H 0.88636 1.01169 0.45366 0.0
H1056 H 0.89642 0.10416 0.45481 0.0
H1057 H 0.90072 0.05203 0.47786 0.0
H1058 H 0.06496 0.07045 0.50263 0.0
H1059 H 0.07475 0.19635 0.49491 0.0
H1060 H 0.96784 0.18729 0.45154 0.0
C1061 C 0.95837 0.90517 0.46072 0.0
C1062 C 0.97714 0.84717 0.47098 0.0
C1063 C 0.00913 0.86014 0.48634 0.0
C1064 C 0.02208 0.92894 0.49116 0.0
C1065 C 0.00231 0.98444 0.48076 0.0
C1066 C 0.97073 0.97281 0.46601 0.0
C1067 C 0.95525 0.04005 0.45628 0.0
C1068 C 0.96408 0.04044 0.43287 0.0
C1069 C 0.90681 0.05271 0.46094 0.0
C1070 C 0.98375 0.092 0.46745 0.0
C1071 C 0.01083 0.05933 0.48154 0.0
C1072 C 0.04307 0.0965 0.49207 0.0
C1073 C 0.04828 0.16798 0.4877 0.0
C1074 C 0.021 0.2017 0.47319 0.0
C1075 C 0.98782 0.16335 0.46335 0.0
H1076 H 0.28199 0.1031 0.73529 0.0
H1077 H 0.21688 0.03062 0.67989 0.0
H1078 H 0.19457 0.15082 0.67187 0.0
H1079 H 0.19708 0.23963 0.7475 0.0
H1080 H 0.2368 0.30012 0.75748 0.0
H1081 H 0.24576 0.20762 0.7598 0.0
H1082 H 0.32002 0.22181 0.74141 0.0
H1083 H 0.3109 0.31405 0.7386 0.0
H1084 H 0.32199 0.26136 0.71618 0.0
H1085 H 0.19167 0.27588 0.6663 0.0
H1086 H 0.18865 0.40265 0.66746 0.0
H1087 H 0.24421 0.40106 0.72923 0.0
C1088 C 0.26177 0.11275 0.7219 0.0
C1089 C 0.25055 0.05789 0.70825 0.0
C1090 C 0.225 0.07201 0.69062 0.0
C1091 C 0.2126 0.14007 0.68586 0.0
C1092 C 0.22522 0.19337 0.69914 0.0
C1093 C 0.24779 0.18086 0.7172 0.0
C1094 C 0.25613 0.24899 0.7287 0.0
C1095 C 0.23253 0.24909 0.74962 0.0
C1096 C 0.30519 0.2623 0.73138 0.0
C1097 C 0.2359 0.30141 0.71388 0.0
C1098 C 0.21919 0.26738 0.69682 0.0
C1099 C 0.20263 0.30309 0.67998 0.0
C1100 C 0.20082 0.37549 0.68093 0.0
C1101 C 0.21362 0.41241 0.69897 0.0
C1102 C 0.23287 0.37468 0.71547 0.0
H1103 H 0.80799 0.60573 0.68769 0.0
H1104 H 0.74623 0.52701 0.74332 0.0
H1105 H 0.72558 0.64786 0.7527 0.0
H1106 H 0.85393 0.76177 0.71107 0.0
H1107 H 0.84571 0.81247 0.68798 0.0
H1108 H 0.85557 0.72014 0.68613 0.0
H1109 H 0.78412 0.70469 0.66529 0.0
H1110 H 0.77414 0.7968 0.66698 0.0
H1111 H 0.73361 0.73601 0.67598 0.0
H1112 H 0.70747 0.77974 0.75421 0.0
H1113 H 0.69474 0.90591 0.74761 0.0
H1114 H 0.77553 0.89435 0.69307 0.0
C1115 C 0.7913 0.61324 0.70223 0.0
C1116 C 0.77952 0.55616 0.7149 0.0
C1117 C 0.75567 0.56943 0.73325 0.0
C1118 C 0.74411 0.63808 0.7388 0.0
C1119 C 0.75709 0.69296 0.726 0.0
C1120 C 0.78047 0.68084 0.70816 0.0
C1121 C 0.78994 0.74751 0.69659 0.0
C1122 C 0.83922 0.76126 0.69538 0.0
C1123 C 0.7692 0.74614 0.67494 0.0
C1124 C 0.7677 0.7996 0.71047 0.0
C1125 C 0.7487 0.76761 0.72738 0.0
C1126 C 0.72312 0.8053 0.7413 0.0
C1127 C 0.71624 0.87681 0.73756 0.0
C1128 C 0.73545 0.90964 0.72026 0.0
C1129 C 0.76196 0.87071 0.70683 0.0
H1130 H 0.49744 0.70877 0.48441 0.0
H1131 H 0.53375 0.72535 0.41978 0.0
H1132 H 0.52454 0.59953 0.41555 0.0
H1133 H 0.54649 0.54411 0.49496 0.0
H1134 H 0.50267 0.50947 0.51036 0.0
H1135 H 0.51146 0.60226 0.50915 0.0
H1136 H 0.43209 0.62094 0.49688 0.0
H1137 H 0.4228 0.52835 0.49846 0.0
H1138 H 0.41242 0.57395 0.47465 0.0
H1139 H 0.51965 0.4741 0.41831 0.0
H1140 H 0.50138 0.35187 0.42576 0.0
H1141 H 0.45975 0.40954 0.48742 0.0
C1142 C 0.50277 0.68575 0.46937 0.0
C1143 C 0.51785 0.72667 0.45259 0.0
C1144 C 0.52371 0.69485 0.43303 0.0
C1145 C 0.51855 0.62332 0.43043 0.0
C1146 C 0.50612 0.58388 0.44737 0.0
C1147 C 0.49672 0.61351 0.46629 0.0
C1148 C 0.48163 0.5576 0.48142 0.0
C1149 C 0.5124 0.55313 0.50008 0.0
C1150 C 0.43443 0.57101 0.48825 0.0
C1151 C 0.48493 0.4925 0.46799 0.0
C1152 C 0.49999 0.50963 0.44855 0.0
C1153 C 0.50728 0.45984 0.43336 0.0
C1154 C 0.49722 0.3906 0.43778 0.0
C1155 C 0.47944 0.37165 0.4571 0.0
C1156 C 0.47377 0.42291 0.4726 0.0
H1157 H 0.50435 0.83731 0.93074 0.0
H1158 H 0.50118 0.78668 -0.00412 0.0
H1159 H 0.51697 0.91066 0.0044 0.0
H1160 H 0.59217 0.96274 0.93349 0.0
H1161 H 0.56855 0.01757 0.91388 0.0
H1162 H 0.55863 0.92509 0.91354 0.0
H1163 H 0.47539 0.94798 0.91372 0.0
H1164 H 0.48506 0.04048 0.91425 0.0
H1165 H 0.45203 1.00046 0.93396 0.0
H1166 H 0.5287 0.04476 0.0051 0.0
H1167 H 0.5421 0.17045 -0.00221 0.0
H1168 H 0.53783 0.127 0.93219 0.0
C1169 C 0.50712 0.85228 0.94681 0.0
C1170 C 0.50116 0.80302 0.96268 0.0
C1171 C 0.50569 0.82404 0.98352 0.0
C1172 C 0.5144 0.89422 0.98846 0.0
C1173 C 0.51896 0.94206 0.97234 0.0
C1174 C 0.51602 0.92136 0.95193 0.0
C1175 C 0.52216 0.9817 0.93729 0.0
C1176 C 0.56279 0.97113 0.92376 0.0
C1177 C 0.48122 0.99332 0.92403 0.0
C1178 C 0.52863 0.04013 0.95256 0.0
C1179 C 0.52655 0.01697 0.97273 0.0
C1180 C 0.53078 0.06311 0.98934 0.0
C1181 C 0.53813 0.13426 0.9851 0.0
C1182 C 0.54154 0.15786 0.96447 0.0
C1183 C 0.53612 0.11009 0.94813 0.0
H1184 H 0.36015 0.22454 0.03619 0.0
H1185 H 0.34882 0.38954 0.99108 0.0
H1186 H 0.27533 0.34759 0.9816 0.0
H1187 H 0.29396 0.08976 0.00668 0.0
H1188 H 0.27049 0.05736 0.0303 0.0
H1189 H 0.32516 0.09175 0.03025 0.0
H1190 H 0.30382 0.17807 0.05932 0.0
H1191 H 0.24916 0.14473 0.0593 0.0
H1192 H 0.25863 0.23648 0.05536 0.0
H1193 H 0.19825 0.30199 0.98232 0.0
H1194 H 0.12645 0.25366 0.99187 0.0
H1195 H 0.18954 0.11338 0.03506 0.0
C1196 C 0.34272 0.25002 0.02377 0.0
C1197 C 0.36018 0.30957 0.01407 0.0
C1198 C 0.33632 0.34284 -0.00176 0.0
C1199 C 0.29449 0.31948 -0.00713 0.0
C1200 C 0.27741 0.262 0.00328 0.0
C1201 C 0.30121 0.22685 0.01813 0.0
C1202 C 0.27414 0.1711 0.02853 0.0
C1203 C 0.29201 0.09817 0.02364 0.0
C1204 C 0.27127 0.18339 0.052 0.0
C1205 C 0.23075 0.18301 0.01809 0.0
C1206 C 0.23325 0.23496 0.00338 0.0
C1207 C 0.19613 0.25992 -0.00661 0.0
C1208 C 0.15542 0.232 -0.00111 0.0
C1209 C 0.15219 0.17987 0.01431 0.0
C1210 C 0.1907 0.15372 0.02339 0.0
H1211 H 0.80627 0.91478 0.02938 0.0
H1212 H 0.88776 0.77791 -0.00718 0.0
H1213 H 0.82295 0.70796 0.98345 0.0
H1214 H 0.74762 0.78675 0.05204 0.0
H1215 H 0.69652 0.83276 0.0528 0.0
H1216 H 0.74676 0.88067 0.05253 0.0
H1217 H 0.72153 0.94807 0.01995 0.0
H1218 H 0.67088 0.90048 0.02018 0.0
H1219 H 0.70446 0.9004 -0.00263 0.0
H1220 H 0.75135 0.64126 0.98335 0.0
H1221 H 0.68112 0.58564 -0.00722 0.0
H1222 H 0.64802 0.76539 0.02991 0.0
C1223 C 0.81031 0.87109 0.01897 0.0
C1224 C 0.85198 0.8517 0.01185 0.0
C1225 C 0.85602 0.79424 -0.00175 0.0
C1226 C 0.81937 0.75413 -0.00711 0.0
C1227 C 0.77895 0.77273 0.00105 0.0
C1228 C 0.77429 0.83049 0.01364 0.0
C1229 C 0.72893 0.83497 0.02259 0.0
C1230 C 0.73006 0.83366 0.04638 0.0
C1231 C 0.70504 0.89983 0.01453 0.0
C1232 C 0.70928 0.76899 0.0139 0.0
C1233 C 0.73813 0.73428 0.00115 0.0
C1234 C 0.72819 0.66884 -0.00708 0.0
C1235 C 0.68826 0.63763 -0.00174 0.0
C1236 C 0.65931 0.67159 0.0119 0.0
C1237 C 0.66956 0.73876 0.01928 0.0
H1238 H 0.05879 0.40226 0.2873 0.0
H1239 H 0.12647 0.54653 0.24692 0.0
H1240 H 0.05615 0.60138 0.23788 0.0
H1241 H 0.95555 0.389 0.25737 0.0
H1242 H 0.92334 0.38718 0.28062 0.0
H1243 H 0.97746 0.35089 0.28058 0.0
H1244 H 0.99863 0.43074 0.3113 0.0
H1245 H 0.94478 0.46713 0.31144 0.0
H1246 H 0.99141 0.52363 0.30899 0.0
H1247 H 0.98008 0.65115 0.23741 0.0
H1248 H 0.90654 0.6934 0.24656 0.0
H1249 H 0.88967 0.51867 0.28797 0.0
C1250 C 0.05884 0.44482 0.27633 0.0
C1251 C 0.09812 0.47033 0.26789 0.0
C1252 C 0.09671 0.52561 0.25342 0.0
C1253 C 0.05691 0.55708 0.24821 0.0
C1254 C 0.01891 0.53216 0.25745 0.0
C1255 C 0.01965 0.47699 0.27116 0.0
C1256 C 0.97551 0.46494 0.28087 0.0
C1257 C 0.95687 0.39378 0.27447 0.0
C1258 C 0.97774 0.47208 0.30454 0.0
C1259 C 0.95012 0.52391 0.27121 0.0
C1260 C 0.97533 0.56119 0.25738 0.0
C1261 C 0.95979 0.62137 0.24784 0.0
C1262 C 0.91792 0.64485 0.25299 0.0
C1263 C 0.89241 0.60878 0.26768 0.0
C1264 C 0.9084 0.54668 0.27648 0.0
H1265 H 0.35655 0.75585 0.53058 0.0
H1266 H 0.33161 0.93364 0.49135 0.0
H1267 H 0.26194 0.88074 0.48019 0.0
H1268 H 0.29991 0.62017 0.49737 0.0
H1269 H 0.27957 0.57622 0.51999 0.0
H1270 H 0.33142 0.62034 0.52085 0.0
H1271 H 0.30493 0.69262 0.55227 0.0
H1272 H 0.25313 0.64934 0.55142 0.0
H1273 H 0.25566 0.74306 0.55006 0.0
H1274 H 0.18918 0.81975 0.47904 0.0
H1275 H 0.12121 0.75732 0.48784 0.0
H1276 H 0.19439 0.61773 0.52736 0.0
C1277 C 0.33705 0.78232 0.51907 0.0
C1278 C 0.34949 0.84838 0.51156 0.0
C1279 C 0.32302 0.88234 0.49684 0.0
C1280 C 0.28335 0.85265 0.49052 0.0
C1281 C 0.27108 0.78851 0.49888 0.0
C1282 C 0.29756 0.75333 0.51265 0.0
C1283 C 0.27497 0.6899 0.52146 0.0
C1284 C 0.29783 0.62267 0.5145 0.0
C1285 C 0.27199 0.69406 0.54519 0.0
C1286 C 0.2307 0.69701 0.51147 0.0
C1287 C 0.22921 0.75329 0.49816 0.0
C1288 C 0.19028 0.77448 0.48898 0.0
C1289 C 0.15182 0.73858 0.49402 0.0
C1290 C 0.15258 0.68265 0.50827 0.0
C1291 C 0.19286 0.66025 0.5164 0.0
H1292 H 0.85463 0.26261 0.53298 0.0
H1293 H 0.83206 0.44294 0.49439 0.0
H1294 H 0.75645 0.40302 0.48797 0.0
H1295 H 0.78299 0.13825 0.50363 0.0
H1296 H 0.76543 0.09672 0.52715 0.0
H1297 H 0.81937 0.1334 0.52542 0.0
H1298 H 0.80391 0.20824 0.55792 0.0
H1299 H 0.74991 0.17261 0.55962 0.0
H1300 H 0.75748 0.26563 0.55813 0.0
H1301 H 0.67988 0.35191 0.49053 0.0
H1302 H 0.61134 0.2933 0.50079 0.0
H1303 H 0.68557 0.14535 0.53714 0.0
C1304 C 0.83409 0.29251 0.52268 0.0
C1305 C 0.84909 0.35551 0.51398 0.0
C1306 C 0.82131 0.39388 0.50081 0.0
C1307 C 0.7783 0.37168 0.4972 0.0
C1308 C 0.76393 0.31047 0.50668 0.0
C1309 C 0.79136 0.27089 0.51889 0.0
C1310 C 0.76742 0.21062 0.52878 0.0
C1311 C 0.78484 0.1406 0.52076 0.0
C1312 C 0.76982 0.21458 0.55251 0.0
C1313 C 0.72176 0.22414 0.52105 0.0
C1314 C 0.72029 0.28129 0.50809 0.0
C1315 C 0.68086 0.30632 0.50034 0.0
C1316 C 0.64206 0.27265 0.50623 0.0
C1317 C 0.64299 0.21502 0.5199 0.0
C1318 C 0.68361 0.1898 0.52689 0.0
H1319 H 0.94391 0.13685 0.78271 0.0
H1320 H 0.87487 1.0047 0.73929 0.0
H1321 H 0.94383 0.94548 0.73062 0.0
H1322 H 0.05096 0.14381 0.75485 0.0
H1323 H 0.08069 0.13908 0.7788 0.0
H1324 H 0.02829 0.18127 0.77799 0.0
H1325 H 0.0008 0.10013 0.80724 0.0
H1326 H 0.05282 0.05763 0.80808 0.0
H1327 H 0.00414 1.00702 0.80391 0.0
H1328 H 0.01743 0.88726 0.7313 0.0
H1329 H 0.08773 0.83533 0.74178 0.0
H1330 H 0.10784 1.00339 0.78526 0.0
C1331 C 0.94341 0.09641 0.77105 0.0
C1332 C 0.90396 0.07543 0.7617 0.0
C1333 C 0.90474 0.02248 0.74646 0.0
C1334 C 0.9438 0.98839 0.74147 0.0
C1335 C 0.9818 1.00827 0.75172 0.0
C1336 C 0.98188 0.06153 0.76609 0.0
C1337 C 0.02539 0.06734 0.77691 0.0
C1338 C 0.04765 0.13702 0.77182 0.0
C1339 C 0.02047 0.0574 0.80041 0.0
C1340 C 0.04922 1.00693 0.76711 0.0
C1341 C 0.02401 0.97433 0.75228 0.0
C1342 C 0.03783 0.91342 0.74251 0.0
C1343 C 0.07788 0.88434 0.74844 0.0
C1344 C 0.10327 0.91564 0.76411 0.0
C1345 C 0.08918 0.97872 0.77308 0.0
H1346 H 0.61157 0.5083 0.77368 0.0
H1347 H 0.58627 0.32188 0.73813 0.0
H1348 H 0.51343 0.36712 0.72873 0.0
H1349 H 0.5135 0.51904 0.79622 0.0
H1350 H 0.50868 0.61263 0.79592 0.0
H1351 H 0.56158 0.57305 0.79578 0.0
H1352 H 0.58129 0.64 0.76228 0.0
H1353 H 0.52826 0.68023 0.76237 0.0
H1354 H 0.54646 0.63275 0.73998 0.0
H1355 H 0.43863 0.42195 0.72946 0.0
H1356 H 0.37048 0.48124 0.73982 0.0
H1357 H 0.44594 0.63473 0.77348 0.0
C1358 C 0.59117 0.47839 0.76329 0.0
C1359 C 0.60443 0.41217 0.75633 0.0
C1360 C 0.57687 0.37342 0.74315 0.0
C1361 C 0.53546 0.39873 0.73781 0.0
C1362 C 0.52259 0.46343 0.74554 0.0
C1363 C 0.55006 0.50324 0.75773 0.0
C1364 C 0.52712 0.56692 0.7661 0.0
C1365 C 0.52775 0.56788 0.7899 0.0
C1366 C 0.54697 0.63394 0.75714 0.0
C1367 C 0.48174 0.55464 0.75781 0.0
C1368 C 0.47974 0.49544 0.74567 0.0
C1369 C 0.44004 0.46943 0.73846 0.0
C1370 C 0.40147 0.50349 0.74436 0.0
C1371 C 0.40303 0.56239 0.75749 0.0
C1372 C 0.44383 0.58971 0.76344 0.0
H1373 H 0.54941 0.89635 0.27812 0.0
H1374 H 0.62957 0.03732 0.24227 0.0
H1375 H 0.56366 0.10186 0.23151 0.0
H1376 H 0.44852 0.90354 0.2442 0.0
H1377 H 0.41375 0.90161 0.26659 0.0
H1378 H 0.46526 0.85659 0.26695 0.0
H1379 H 0.48754 0.92492 0.29987 0.0
H1380 H 0.43646 0.97014 0.29958 0.0
H1381 H 0.48667 0.01886 0.29945 0.0
H1382 H 0.49131 0.16458 0.23069 0.0
H1383 H 0.42063 0.21837 0.24019 0.0
H1384 H 0.38883 0.0371 0.27694 0.0
C1385 C 0.55287 0.93954 0.26748 0.0
C1386 C 0.59441 0.96195 0.26101 0.0
C1387 C 0.59791 0.0188 0.24719 0.0
C1388 C 0.56062 0.05575 0.24102 0.0
C1389 C 0.52018 0.03443 0.24857 0.0
C1390 C 0.51614 0.97689 0.26131 0.0
C1391 C 0.47046 0.96998 0.26974 0.0
C1392 C 0.44819 0.90401 0.26136 0.0
C1393 C 0.47032 0.97111 0.29355 0.0
C1394 C 0.45004 0.03494 0.26085 0.0
C1395 C 0.47869 0.07072 0.24822 0.0
C1396 C 0.46825 0.13608 0.24009 0.0
C1397 C 0.42813 0.16626 0.2455 0.0
C1398 C 0.39957 0.13134 0.25911 0.0
C1399 C 0.41011 0.06414 0.26626 0.0
loop_
_geom_bond_atom_site_label_1
_geom_bond_atom_site_label_2
_geom_bond_distance
_geom_bond_site_symmetry_2
_ccdc_geom_bond_type
C0 O1 1.201 . S
C0 C2 1.493 . S
C0 N17 1.318 1_455 S
O1 C0 1.201 . S
C2 C0 1.493 . S
C2 C3 1.381 . S
C2 N7 1.335 1_554 S
C3 C2 1.381 . S
C3 C4 1.411 1_554 S
C3 H49 0.931 . S
C4 C3 1.411 1_556 S
C4 C5 1.384 . S
C4 H50 0.930 . S
C5 C4 1.384 . S
C5 C6 1.376 . S
C5 H51 0.929 . S
C6 C5 1.376 . S
C6 N7 1.330 . S
C6 C21 1.484 1_565 S
N7 C2 1.335 1_556 S
N7 C6 1.330 . S
N7 Co9 1.859 1_565 S
N8 Co9 1.962 1_554 S
N8 C19 1.318 1_455 S
N8 C43 1.421 . S
Co9 N7 1.859 1_545 S
Co9 N8 1.962 1_556 S
Co9 N10 1.859 1_455 S
Co9 N16 1.958 1_445 S
Co9 N17 1.962 1_446 S
Co9 N18 1.958 . S
N10 Co9 1.859 1_655 S
N10 C14 1.330 . S
N10 C15 1.335 1_556 S
C11 C12 1.411 1_554 S
C11 C15 1.381 . S
C11 H52 0.931 . S
C12 C11 1.411 1_556 S
C12 C13 1.384 . S
C12 H53 0.930 . S
C13 C12 1.384 . S
C13 C14 1.376 . S
C13 H54 0.929 . S
C14 N10 1.330 . S
C14 C13 1.376 . S
C14 C29 1.484 1_545 S
C15 N10 1.335 1_554 S
C15 C11 1.381 . S
C15 C19 1.493 . S
N16 Co9 1.958 1_665 S
N16 C29 1.344 . S
N16 C31 1.433 . S
N17 C0 1.318 1_655 S
N17 Co9 1.962 1_664 S
N17 C37 1.421 . S
N18 Co9 1.958 . S
N18 C21 1.344 . S
N18 C23 1.436 . S
C19 N8 1.318 1_655 S
C19 C15 1.493 . S
C19 O20 1.201 . S
O20 C19 1.201 . S
C21 C6 1.484 1_545 S
C21 N18 1.344 . S
C21 O22 1.268 . S
O22 C21 1.268 . S
C23 N18 1.436 . S
C23 C25 1.395 . S
C23 C26 1.352 1_455 S
C24 C25 1.382 1_655 S
C24 C28 1.386 . S
C25 C23 1.395 . S
C25 C24 1.382 1_455 S
C25 H55 0.928 . S
C26 C23 1.352 1_655 S
C26 C27 1.367 . S
C26 H56 0.930 . S
C27 C26 1.367 . S
C27 C28 1.369 . S
C28 C24 1.386 . S
C28 C27 1.369 . S
C28 H57 0.930 . S
C29 C14 1.484 1_565 S
C29 N16 1.344 . S
C29 O30 1.268 . S
O30 C29 1.268 . S
C31 N16 1.433 . S
C31 C32 1.357 1_655 S
C31 C36 1.394 . S
C32 C31 1.357 1_455 S
C32 C33 1.367 . S
C32 H58 0.930 . S
C33 C32 1.367 . S
C33 C34 1.369 . S
C34 C33 1.369 . S
C34 C35 1.386 . S
C34 H59 0.930 . S
C35 C34 1.386 . S
C35 C36 1.382 1_455 S
C36 C31 1.394 . S
C36 C35 1.382 1_655 S
C36 H60 0.928 . S
C37 N17 1.421 . S
C37 C38 1.371 . S
C37 C42 1.385 . S
C38 C37 1.371 . S
C38 C39 1.367 . S
C38 H61 0.931 . S
C39 C38 1.367 . S
C39 C40 1.401 . S
C40 C39 1.401 . S
C40 C41 1.385 . S
C40 H62 0.930 . S
C41 C40 1.385 . S
C41 C42 1.402 . S
C42 C37 1.385 . S
C42 C41 1.402 . S
C42 H63 0.929 . S
C43 N8 1.421 . S
C43 C46 1.385 . S
C43 C47 1.371 . S
C44 C45 1.385 . S
C44 C48 1.401 . S
C44 H64 0.930 . S
C45 C44 1.385 . S
C45 C46 1.402 . S
C46 C43 1.385 . S
C46 C45 1.402 . S
C46 H65 0.929 . S
C47 C43 1.371 . S
C47 C48 1.367 . S
C47 H66 0.931 . S
C48 C44 1.401 . S
C48 C47 1.367 . S
H49 C3 0.931 . S
H50 C4 0.930 . S
H51 C5 0.929 . S
H52 C11 0.931 . S
H53 C12 0.930 . S
H54 C13 0.929 . S
H55 C25 0.928 . S
H56 C26 0.930 . S
H57 C28 0.930 . S
H58 C32 0.930 . S
H59 C34 0.930 . S
H60 C36 0.928 . S
H61 C38 0.931 . S
H62 C40 0.930 . S
H63 C42 0.929 . S
H64 C44 0.930 . S
H65 C46 0.929 . S
H66 C47 0.931 . S
C67 O68 1.201 . S
C67 C69 1.493 . S
C67 N84 1.318 . S
O68 C67 1.201 . S
C69 C67 1.493 . S
C69 C70 1.381 . S
C69 N74 1.335 . S
C70 C69 1.381 . S
C70 C71 1.411 . S
C70 H116 0.931 . S
C71 C70 1.411 . S
C71 C72 1.384 . S
C71 H117 0.930 . S
C72 C71 1.384 . S
C72 C73 1.376 . S
C72 H118 0.929 . S
C73 C72 1.376 . S
C73 N74 1.330 . S
C73 C88 1.484 . S
N74 C69 1.335 . S
N74 C73 1.330 . S
N74 Co76 1.859 . S
N75 Co76 1.962 . S
N75 C86 1.318 . S
N75 C110 1.421 . S
Co76 N74 1.859 . S
Co76 N75 1.962 . S
Co76 N77 1.859 . S
Co76 N83 1.958 . S
Co76 N84 1.962 . S
Co76 N85 1.958 . S
N77 Co76 1.859 . S
N77 C81 1.330 . S
N77 C82 1.335 . S
C78 C79 1.411 . S
C78 C82 1.381 . S
C78 H119 0.931 . S
C79 C78 1.411 . S
C79 C80 1.384 . S
C79 H120 0.930 . S
C80 C79 1.384 . S
C80 C81 1.376 . S
C80 H121 0.929 . S
C81 N77 1.330 . S
C81 C80 1.376 . S
C81 C96 1.484 . S
C82 N77 1.335 . S
C82 C78 1.381 . S
C82 C86 1.493 . S
N83 Co76 1.958 . S
N83 C96 1.344 . S
N83 C98 1.425 . S
N84 C67 1.318 . S
N84 Co76 1.962 . S
N84 C104 1.421 . S
N85 Co76 1.958 . S
N85 C88 1.344 . S
N85 C90 1.425 . S
C86 N75 1.318 . S
C86 C82 1.493 . S
C86 O87 1.201 . S
O87 C86 1.201 . S
C88 C73 1.484 . S
C88 N85 1.344 . S
C88 O89 1.268 . S
O89 C88 1.268 . S
C90 N85 1.425 . S
C90 C92 1.392 . S
C90 C93 1.368 . S
C91 C92 1.382 . S
C91 C95 1.386 . S
C92 C90 1.392 . S
C92 C91 1.382 . S
C92 H122 0.928 . S
C93 C90 1.368 . S
C93 C94 1.367 . S
C93 H123 0.930 . S
C94 C93 1.367 . S
C94 C95 1.369 . S
C95 C91 1.386 . S
C95 C94 1.369 . S
C95 H124 0.930 . S
C96 C81 1.484 . S
C96 N83 1.344 . S
C96 O97 1.268 . S
O97 C96 1.268 . S
C98 N83 1.425 . S
C98 C99 1.368 . S
C98 C103 1.392 . S
C99 C98 1.368 . S
C99 C100 1.367 . S
C99 H125 0.930 . S
C100 C99 1.367 . S
C100 C101 1.369 . S
C101 C100 1.369 . S
C101 C102 1.386 . S
C101 H126 0.930 1_545 S
C102 C101 1.386 . S
C102 C103 1.382 . S
C103 C98 1.392 . S
C103 C102 1.382 . S
C103 H127 0.928 . S
C104 N84 1.421 . S
C104 C105 1.371 . S
C104 C109 1.385 . S
C105 C104 1.371 . S
C105 C106 1.367 . S
C105 H128 0.931 . S
C106 C105 1.367 . S
C106 C107 1.401 . S
C107 C106 1.401 . S
C107 C108 1.385 . S
C107 H129 0.930 . S
C108 C107 1.385 . S
C108 C109 1.402 . S
C109 C104 1.385 . S
C109 C108 1.402 . S
C109 H130 0.929 . S
C110 N75 1.421 . S
C110 C113 1.385 . S
C110 C114 1.371 . S
C111 C112 1.385 . S
C111 C115 1.401 . S
C111 H131 0.930 . S
C112 C111 1.385 . S
C112 C113 1.402 . S
C113 C110 1.385 . S
C113 C112 1.402 . S
C113 H132 0.929 . S
C114 C110 1.371 . S
C114 C115 1.367 . S
C114 H133 0.931 . S
C115 C111 1.401 . S
C115 C114 1.367 . S
H116 C70 0.931 . S
H117 C71 0.930 . S
H118 C72 0.929 . S
H119 C78 0.931 . S
H120 C79 0.930 . S
H121 C80 0.929 . S
H122 C92 0.928 . S
H123 C93 0.930 . S
H124 C95 0.930 . S
H125 C99 0.930 . S
H126 C101 0.930 1_565 S
H127 C103 0.928 . S
H128 C105 0.931 . S
H129 C107 0.930 . S
H130 C109 0.929 . S
H131 C111 0.930 . S
H132 C113 0.929 . S
H133 C114 0.931 . S
C134 O135 1.201 . S
C134 C136 1.493 . S
C134 N151 1.318 . S
O135 C134 1.201 . S
C136 C134 1.493 . S
C136 C137 1.381 . S
C136 N141 1.335 . S
C137 C136 1.381 . S
C137 C138 1.411 . S
C137 H183 0.931 . S
C138 C137 1.411 . S
C138 C139 1.384 . S
C138 H184 0.930 . S
C139 C138 1.384 . S
C139 C140 1.376 . S
C139 H185 0.929 . S
C140 C139 1.376 . S
C140 N141 1.330 . S
C140 C155 1.484 . S
N141 C136 1.335 . S
N141 C140 1.330 . S
N141 Co143 1.859 . S
N142 Co143 1.962 . S
N142 C153 1.318 . S
N142 C177 1.421 . S
Co143 N141 1.859 . S
Co143 N142 1.962 . S
Co143 N144 1.859 . S
Co143 N150 1.958 . S
Co143 N151 1.962 . S
Co143 N152 1.958 . S
N144 Co143 1.859 . S
N144 C148 1.330 . S
N144 C149 1.335 . S
C145 C146 1.411 . S
C145 C149 1.381 . S
C145 H186 0.931 . S
C146 C145 1.411 . S
C146 C147 1.384 . S
C146 H187 0.930 . S
C147 C146 1.384 . S
C147 C148 1.376 . S
C147 H188 0.929 . S
C148 N144 1.330 . S
C148 C147 1.376 . S
C148 C163 1.484 . S
C149 N144 1.335 . S
C149 C145 1.381 . S
C149 C153 1.493 . S
N150 Co143 1.958 . S
N150 C163 1.344 . S
N150 C165 1.425 . S
N151 C134 1.318 . S
N151 Co143 1.962 . S
N151 C171 1.421 . S
N152 Co143 1.958 . S
N152 C155 1.344 . S
N152 C157 1.425 . S
C153 N142 1.318 . S
C153 C149 1.493 . S
C153 O154 1.201 . S
O154 C153 1.201 . S
C155 C140 1.484 . S
C155 N152 1.344 . S
C155 O156 1.268 . S
O156 C155 1.268 . S
C157 N152 1.425 . S
C157 C159 1.392 . S
C157 C160 1.368 . S
C158 C159 1.382 . S
C158 C162 1.386 . S
C159 C157 1.392 . S
C159 C158 1.382 . S
C159 H189 0.928 . S
C160 C157 1.368 . S
C160 C161 1.367 . S
C160 H190 0.930 . S
C161 C160 1.367 . S
C161 C162 1.369 . S
C162 C158 1.386 . S
C162 C161 1.369 . S
C162 H191 0.930 1_565 S
C163 C148 1.484 . S
C163 N150 1.344 . S
C163 O164 1.268 . S
O164 C163 1.268 . S
C165 N150 1.425 . S
C165 C166 1.368 . S
C165 C170 1.392 . S
C166 C165 1.368 . S
C166 C167 1.367 . S
C166 H192 0.930 . S
C167 C166 1.367 . S
C167 C168 1.369 . S
C168 C167 1.369 . S
C168 C169 1.386 . S
C168 H193 0.930 . S
C169 C168 1.386 . S
C169 C170 1.382 . S
C170 C165 1.392 . S
C170 C169 1.382 . S
C170 H194 0.928 . S
C171 N151 1.421 . S
C171 C172 1.371 . S
C171 C176 1.385 . S
C172 C171 1.371 . S
C172 C173 1.367 . S
C172 H195 0.931 . S
C173 C172 1.367 . S
C173 C174 1.401 . S
C174 C173 1.401 . S
C174 C175 1.385 . S
C174 H196 0.930 . S
C175 C174 1.385 . S
C175 C176 1.402 . S
C176 C171 1.385 . S
C176 C175 1.402 . S
C176 H197 0.929 . S
C177 N142 1.421 . S
C177 C180 1.385 . S
C177 C181 1.371 . S
C178 C179 1.385 . S
C178 C182 1.401 . S
C178 H198 0.930 . S
C179 C178 1.385 . S
C179 C180 1.402 . S
C180 C177 1.385 . S
C180 C179 1.402 . S
C180 H199 0.929 . S
C181 C177 1.371 . S
C181 C182 1.367 . S
C181 H200 0.931 . S
C182 C178 1.401 . S
C182 C181 1.367 . S
H183 C137 0.931 . S
H184 C138 0.930 . S
H185 C139 0.929 . S
H186 C145 0.931 . S
H187 C146 0.930 . S
H188 C147 0.929 . S
H189 C159 0.928 . S
H190 C160 0.930 . S
H191 C162 0.930 1_545 S
H192 C166 0.930 . S
H193 C168 0.930 . S
H194 C170 0.928 . S
H195 C172 0.931 . S
H196 C174 0.930 . S
H197 C176 0.929 . S
H198 C178 0.930 . S
H199 C180 0.929 . S
H200 C181 0.931 . S
C201 O202 1.201 . S
C201 C203 1.493 . S
C201 N218 1.318 1_455 S
O202 C201 1.201 . S
C203 C201 1.493 . S
C203 C204 1.381 . S
C203 N208 1.335 . S
C204 C203 1.381 . S
C204 C205 1.411 . S
C204 H250 0.931 . S
C205 C204 1.411 . S
C205 C206 1.384 . S
C205 H251 0.930 . S
C206 C205 1.384 . S
C206 C207 1.376 . S
C206 H252 0.929 . S
C207 C206 1.376 . S
C207 N208 1.330 . S
C207 C222 1.484 . S
N208 C203 1.335 . S
N208 C207 1.330 . S
N208 Co210 1.859 . S
N209 Co210 1.962 . S
N209 C220 1.318 1_455 S
N209 C244 1.421 . S
Co210 N208 1.859 . S
Co210 N209 1.962 . S
Co210 N211 1.859 1_455 S
Co210 N217 1.958 1_455 S
Co210 N218 1.962 1_455 S
Co210 N219 1.958 . S
N211 Co210 1.859 1_655 S
N211 C215 1.330 . S
N211 C216 1.335 . S
C212 C213 1.411 . S
C212 C216 1.381 . S
C212 H253 0.931 . S
C213 C212 1.411 . S
C213 C214 1.384 . S
C213 H254 0.930 . S
C214 C213 1.384 . S
C214 C215 1.376 . S
C214 H255 0.929 . S
C215 N211 1.330 . S
C215 C214 1.376 . S
C215 C230 1.484 . S
C216 N211 1.335 . S
C216 C212 1.381 . S
C216 C220 1.493 . S
N217 Co210 1.958 1_655 S
N217 C230 1.344 . S
N217 C232 1.433 . S
N218 C201 1.318 1_655 S
N218 Co210 1.962 1_655 S
N218 C238 1.421 . S
N219 Co210 1.958 . S
N219 C222 1.344 . S
N219 C224 1.436 . S
C220 N209 1.318 1_655 S
C220 C216 1.493 . S
C220 O221 1.201 . S
O221 C220 1.201 . S
C222 C207 1.484 . S
C222 N219 1.344 . S
C222 O223 1.268 . S
O223 C222 1.268 . S
C224 N219 1.436 . S
C224 C226 1.395 . S
C224 C227 1.352 1_455 S
C225 C226 1.382 1_655 S
C225 C229 1.386 . S
C226 C224 1.395 . S
C226 C225 1.382 1_455 S
C226 H256 0.928 . S
C227 C224 1.352 1_655 S
C227 C228 1.367 . S
C227 H257 0.930 . S
C228 C227 1.367 . S
C228 C229 1.369 . S
C229 C225 1.386 . S
C229 C228 1.369 . S
C229 H258 0.930 . S
C230 C215 1.484 . S
C230 N217 1.344 . S
C230 O231 1.268 . S
O231 C230 1.268 . S
C232 N217 1.433 . S
C232 C233 1.357 1_655 S
C232 C237 1.394 . S
C233 C232 1.357 1_455 S
C233 C234 1.367 . S
C233 H259 0.930 . S
C234 C233 1.367 . S
C234 C235 1.369 . S
C235 C234 1.369 . S
C235 C236 1.386 . S
C235 H260 0.930 . S
C236 C235 1.386 . S
C236 C237 1.382 1_455 S
C237 C232 1.394 . S
C237 C236 1.382 1_655 S
C237 H261 0.928 . S
C238 N218 1.421 . S
C238 C239 1.371 . S
C238 C243 1.385 . S
C239 C238 1.371 . S
C239 C240 1.367 . S
C239 H262 0.931 . S
C240 C239 1.367 . S
C240 C241 1.401 . S
C241 C240 1.401 . S
C241 C242 1.385 . S
C241 H263 0.930 . S
C242 C241 1.385 . S
C242 C243 1.402 . S
C243 C238 1.385 . S
C243 C242 1.402 . S
C243 H264 0.929 . S
C244 N209 1.421 . S
C244 C247 1.385 . S
C244 C248 1.371 . S
C245 C246 1.385 . S
C245 C249 1.401 . S
C245 H265 0.930 . S
C246 C245 1.385 . S
C246 C247 1.402 . S
C247 C244 1.385 . S
C247 C246 1.402 . S
C247 H266 0.929 . S
C248 C244 1.371 . S
C248 C249 1.367 . S
C248 H267 0.931 . S
C249 C245 1.401 . S
C249 C248 1.367 . S
H250 C204 0.931 . S
H251 C205 0.930 . S
H252 C206 0.929 . S
H253 C212 0.931 . S
H254 C213 0.930 . S
H255 C214 0.929 . S
H256 C226 0.928 . S
H257 C227 0.930 . S
H258 C229 0.930 . S
H259 C233 0.930 . S
H260 C235 0.930 . S
H261 C237 0.928 . S
H262 C239 0.931 . S
H263 C241 0.930 . S
H264 C243 0.929 . S
H265 C245 0.930 . S
H266 C247 0.929 . S
H267 C248 0.931 . S
C268 O269 1.201 . S
C268 C270 1.493 . S
C268 N285 1.318 . S
O269 C268 1.201 . S
C270 C268 1.493 . S
C270 C271 1.381 . S
C270 N275 1.335 . S
C271 C270 1.381 . S
C271 C272 1.411 . S
C271 H317 0.931 . S
C272 C271 1.411 . S
C272 C273 1.384 . S
C272 H318 0.930 . S
C273 C272 1.384 . S
C273 C274 1.376 . S
C273 H319 0.929 . S
C274 C273 1.376 . S
C274 N275 1.330 . S
C274 C289 1.484 . S
N275 C270 1.335 . S
N275 C274 1.330 . S
N275 Co277 1.859 . S
N276 Co277 1.962 . S
N276 C287 1.318 . S
N276 C311 1.421 . S
Co277 N275 1.859 . S
Co277 N276 1.962 . S
Co277 N278 1.859 . S
Co277 N284 1.958 . S
Co277 N285 1.962 . S
Co277 N286 1.958 . S
N278 Co277 1.859 . S
N278 C282 1.330 . S
N278 C283 1.335 . S
C279 C280 1.411 . S
C279 C283 1.381 . S
C279 H320 0.931 . S
C280 C279 1.411 . S
C280 C281 1.384 . S
C280 H321 0.930 . S
C281 C280 1.384 . S
C281 C282 1.376 . S
C281 H322 0.929 . S
C282 N278 1.330 . S
C282 C281 1.376 . S
C282 C297 1.484 . S
C283 N278 1.335 . S
C283 C279 1.381 . S
C283 C287 1.493 . S
N284 Co277 1.958 . S
N284 C297 1.344 . S
N284 C299 1.425 . S
N285 C268 1.318 . S
N285 Co277 1.962 . S
N285 C305 1.421 . S
N286 Co277 1.958 . S
N286 C289 1.344 . S
N286 C291 1.425 . S
C287 N276 1.318 . S
C287 C283 1.493 . S
C287 O288 1.201 . S
O288 C287 1.201 . S
C289 C274 1.484 . S
C289 N286 1.344 . S
C289 O290 1.268 . S
O290 C289 1.268 . S
C291 N286 1.425 . S
C291 C293 1.392 . S
C291 C294 1.368 . S
C292 C293 1.382 . S
C292 C296 1.386 . S
C293 C291 1.392 . S
C293 C292 1.382 . S
C293 H323 0.928 . S
C294 C291 1.368 . S
C294 C295 1.367 . S
C294 H324 0.930 . S
C295 C294 1.367 . S
C295 C296 1.369 . S
C296 C292 1.386 . S
C296 C295 1.369 . S
C296 H325 0.930 1_565 S
C297 C282 1.484 . S
C297 N284 1.344 . S
C297 O298 1.268 . S
O298 C297 1.268 . S
C299 N284 1.425 . S
C299 C300 1.368 . S
C299 C304 1.392 . S
C300 C299 1.368 . S
C300 C301 1.367 . S
C300 H326 0.930 . S
C301 C300 1.367 . S
C301 C302 1.369 . S
C302 C301 1.369 . S
C302 C303 1.386 . S
C302 H327 0.930 . S
C303 C302 1.386 . S
C303 C304 1.382 . S
C304 C299 1.392 . S
C304 C303 1.382 . S
C304 H328 0.928 . S
C305 N285 1.421 . S
C305 C306 1.371 . S
C305 C310 1.385 . S
C306 C305 1.371 . S
C306 C307 1.367 . S
C306 H329 0.931 . S
C307 C306 1.367 . S
C307 C308 1.401 . S
C308 C307 1.401 . S
C308 C309 1.385 . S
C308 H330 0.930 . S
C309 C308 1.385 . S
C309 C310 1.402 . S
C310 C305 1.385 . S
C310 C309 1.402 . S
C310 H331 0.929 . S
C311 N276 1.421 . S
C311 C314 1.385 . S
C311 C315 1.371 . S
C312 C313 1.385 . S
C312 C316 1.401 . S
C312 H332 0.930 . S
C313 C312 1.385 . S
C313 C314 1.402 . S
C314 C311 1.385 . S
C314 C313 1.402 . S
C314 H333 0.929 . S
C315 C311 1.371 . S
C315 C316 1.367 . S
C315 H334 0.931 . S
C316 C312 1.401 . S
C316 C315 1.367 . S
H317 C271 0.931 . S
H318 C272 0.930 . S
H319 C273 0.929 . S
H320 C279 0.931 . S
H321 C280 0.930 . S
H322 C281 0.929 . S
H323 C293 0.928 . S
H324 C294 0.930 . S
H325 C296 0.930 1_545 S
H326 C300 0.930 . S
H327 C302 0.930 . S
H328 C304 0.928 . S
H329 C306 0.931 . S
H330 C308 0.930 . S
H331 C310 0.929 . S
H332 C312 0.930 . S
H333 C314 0.929 . S
H334 C315 0.931 . S
C335 O336 1.201 . S
C335 C337 1.493 . S
C335 N352 1.318 . S
O336 C335 1.201 . S
C337 C335 1.493 . S
C337 C338 1.381 . S
C337 N342 1.335 . S
C338 C337 1.381 . S
C338 C339 1.411 . S
C338 H384 0.931 . S
C339 C338 1.411 . S
C339 C340 1.384 . S
C339 H385 0.930 . S
C340 C339 1.384 . S
C340 C341 1.376 . S
C340 H386 0.929 . S
C341 C340 1.376 . S
C341 N342 1.330 . S
C341 C356 1.484 . S
N342 C337 1.335 . S
N342 C341 1.330 . S
N342 Co344 1.859 . S
N343 Co344 1.962 . S
N343 C354 1.318 . S
N343 C378 1.421 . S
Co344 N342 1.859 . S
Co344 N343 1.962 . S
Co344 N345 1.859 . S
Co344 N351 1.958 . S
Co344 N352 1.962 . S
Co344 N353 1.958 . S
N345 Co344 1.859 . S
N345 C349 1.330 . S
N345 C350 1.335 . S
C346 C347 1.411 . S
C346 C350 1.381 . S
C346 H387 0.931 . S
C347 C346 1.411 . S
C347 C348 1.384 . S
C347 H388 0.930 . S
C348 C347 1.384 . S
C348 C349 1.376 . S
C348 H389 0.929 . S
C349 N345 1.330 . S
C349 C348 1.376 . S
C349 C364 1.484 . S
C350 N345 1.335 . S
C350 C346 1.381 . S
C350 C354 1.493 . S
N351 Co344 1.958 . S
N351 C364 1.344 . S
N351 C366 1.425 . S
N352 C335 1.318 . S
N352 Co344 1.962 . S
N352 C372 1.421 . S
N353 Co344 1.958 . S
N353 C356 1.344 . S
N353 C358 1.425 . S
C354 N343 1.318 . S
C354 C350 1.493 . S
C354 O355 1.201 . S
O355 C354 1.201 . S
C356 C341 1.484 . S
C356 N353 1.344 . S
C356 O357 1.268 . S
O357 C356 1.268 . S
C358 N353 1.425 . S
C358 C360 1.392 . S
C358 C361 1.368 . S
C359 C360 1.382 . S
C359 C363 1.386 . S
C360 C358 1.392 . S
C360 C359 1.382 . S
C360 H390 0.928 . S
C361 C358 1.368 . S
C361 C362 1.367 . S
C361 H391 0.930 . S
C362 C361 1.367 . S
C362 C363 1.369 . S
C363 C359 1.386 . S
C363 C362 1.369 . S
C363 H392 0.930 . S
C364 C349 1.484 . S
C364 N351 1.344 . S
C364 O365 1.268 . S
O365 C364 1.268 . S
C366 N351 1.425 . S
C366 C367 1.368 . S
C366 C371 1.392 . S
C367 C366 1.368 . S
C367 C368 1.367 . S
C367 H393 0.930 . S
C368 C367 1.367 . S
C368 C369 1.369 . S
C369 C368 1.369 . S
C369 C370 1.386 . S
C369 H394 0.930 1_545 S
C370 C369 1.386 . S
C370 C371 1.382 . S
C371 C366 1.392 . S
C371 C370 1.382 . S
C371 H395 0.928 . S
C372 N352 1.421 . S
C372 C373 1.371 . S
C372 C377 1.385 . S
C373 C372 1.371 . S
C373 C374 1.367 . S
C373 H396 0.931 . S
C374 C373 1.367 . S
C374 C375 1.401 . S
C375 C374 1.401 . S
C375 C376 1.385 . S
C375 H397 0.930 . S
C376 C375 1.385 . S
C376 C377 1.402 . S
C377 C372 1.385 . S
C377 C376 1.402 . S
C377 H398 0.929 . S
C378 N343 1.421 . S
C378 C381 1.385 . S
C378 C382 1.371 . S
C379 C380 1.385 . S
C379 C383 1.401 . S
C379 H399 0.930 . S
C380 C379 1.385 . S
C380 C381 1.402 . S
C381 C378 1.385 . S
C381 C380 1.402 . S
C381 H400 0.929 . S
C382 C378 1.371 . S
C382 C383 1.367 . S
C382 H401 0.931 . S
C383 C379 1.401 . S
C383 C382 1.367 . S
H384 C338 0.931 . S
H385 C339 0.930 . S
H386 C340 0.929 . S
H387 C346 0.931 . S
H388 C347 0.930 . S
H389 C348 0.929 . S
H390 C360 0.928 . S
H391 C361 0.930 . S
H392 C363 0.930 . S
H393 C367 0.930 . S
H394 C369 0.930 1_565 S
H395 C371 0.928 . S
H396 C373 0.931 . S
H397 C375 0.930 . S
H398 C377 0.929 . S
H399 C379 0.930 . S
H400 C381 0.929 . S
H401 C382 0.931 . S
C402 O403 1.201 . S
C402 C404 1.493 . S
C402 N419 1.318 . S
O403 C402 1.201 . S
C404 C402 1.493 . S
C404 C405 1.381 . S
C404 N409 1.335 . S
C405 C404 1.381 . S
C405 C406 1.411 . S
C405 H451 0.931 . S
C406 C405 1.411 . S
C406 C407 1.384 . S
C406 H452 0.930 . S
C407 C406 1.384 . S
C407 C408 1.376 . S
C407 H453 0.929 . S
C408 C407 1.376 . S
C408 N409 1.330 . S
C408 C423 1.484 1_565 S
N409 C404 1.335 . S
N409 C408 1.330 . S
N409 Co411 1.859 1_565 S
N410 Co411 1.962 . S
N410 C421 1.318 . S
N410 C445 1.421 . S
Co411 N409 1.859 1_545 S
Co411 N410 1.962 . S
Co411 N412 1.859 . S
Co411 N418 1.958 1_545 S
Co411 N419 1.962 1_545 S
Co411 N420 1.958 . S
N412 Co411 1.859 . S
N412 C416 1.330 . S
N412 C417 1.335 . S
C413 C414 1.411 . S
C413 C417 1.381 . S
C413 H454 0.931 . S
C414 C413 1.411 . S
C414 C415 1.384 . S
C414 H455 0.930 . S
C415 C414 1.384 . S
C415 C416 1.376 . S
C415 H456 0.929 . S
C416 N412 1.330 . S
C416 C415 1.376 . S
C416 C431 1.484 1_545 S
C417 N412 1.335 . S
C417 C413 1.381 . S
C417 C421 1.493 . S
N418 Co411 1.958 1_565 S
N418 C431 1.344 . S
N418 C433 1.425 . S
N419 C402 1.318 . S
N419 Co411 1.962 1_565 S
N419 C439 1.421 . S
N420 Co411 1.958 . S
N420 C423 1.344 . S
N420 C425 1.425 . S
C421 N410 1.318 . S
C421 C417 1.493 . S
C421 O422 1.201 . S
O422 C421 1.201 . S
C423 C408 1.484 1_545 S
C423 N420 1.344 . S
C423 O424 1.268 . S
O424 C423 1.268 . S
C425 N420 1.425 . S
C425 C427 1.392 . S
C425 C428 1.368 . S
C426 C427 1.382 . S
C426 C430 1.386 . S
C427 C425 1.392 . S
C427 C426 1.382 . S
C427 H457 0.928 . S
C428 C425 1.368 . S
C428 C429 1.367 . S
C428 H458 0.930 . S
C429 C428 1.367 . S
C429 C430 1.369 . S
C430 C426 1.386 . S
C430 C429 1.369 . S
C430 H459 0.930 . S
C431 C416 1.484 1_565 S
C431 N418 1.344 . S
C431 O432 1.268 . S
O432 C431 1.268 . S
C433 N418 1.425 . S
C433 C434 1.368 . S
C433 C438 1.392 . S
C434 C433 1.368 . S
C434 C435 1.367 . S
C434 H460 0.930 . S
C435 C434 1.367 . S
C435 C436 1.369 . S
C436 C435 1.369 . S
C436 C437 1.386 . S
C436 H461 0.930 . S
C437 C436 1.386 . S
C437 C438 1.382 . S
C438 C433 1.392 . S
C438 C437 1.382 . S
C438 H462 0.928 . S
C439 N419 1.421 . S
C439 C440 1.371 . S
C439 C444 1.385 . S
C440 C439 1.371 . S
C440 C441 1.367 . S
C440 H463 0.931 . S
C441 C440 1.367 . S
C441 C442 1.401 . S
C442 C441 1.401 . S
C442 C443 1.385 . S
C442 H464 0.930 . S
C443 C442 1.385 . S
C443 C444 1.402 . S
C444 C439 1.385 . S
C444 C443 1.402 . S
C444 H465 0.929 . S
C445 N410 1.421 . S
C445 C448 1.385 . S
C445 C449 1.371 . S
C446 C447 1.385 . S
C446 C450 1.401 . S
C446 H466 0.930 . S
C447 C446 1.385 . S
C447 C448 1.402 . S
C448 C445 1.385 . S
C448 C447 1.402 . S
C448 H467 0.929 . S
C449 C445 1.371 . S
C449 C450 1.367 . S
C449 H468 0.931 . S
C450 C446 1.401 . S
C450 C449 1.367 . S
H451 C405 0.931 . S
H452 C406 0.930 . S
H453 C407 0.929 . S
H454 C413 0.931 . S
H455 C414 0.930 . S
H456 C415 0.929 . S
H457 C427 0.928 . S
H458 C428 0.930 . S
H459 C430 0.930 . S
H460 C434 0.930 . S
H461 C436 0.930 . S
H462 C438 0.928 . S
H463 C440 0.931 . S
H464 C442 0.930 . S
H465 C444 0.929 . S
H466 C446 0.930 . S
H467 C448 0.929 . S
H468 C449 0.931 . S
C469 O470 1.201 . S
C469 C471 1.493 . S
C469 N486 1.318 . S
O470 C469 1.201 . S
C471 C469 1.493 . S
C471 C472 1.381 . S
C471 N476 1.335 1_554 S
C472 C471 1.381 . S
C472 C473 1.411 1_554 S
C472 H518 0.931 . S
C473 C472 1.411 1_556 S
C473 C474 1.384 . S
C473 H519 0.930 . S
C474 C473 1.384 . S
C474 C475 1.376 . S
C474 H520 0.929 . S
C475 C474 1.376 . S
C475 N476 1.330 . S
C475 C490 1.484 . S
N476 C471 1.335 1_556 S
N476 C475 1.330 . S
N476 Co478 1.859 . S
N477 Co478 1.962 1_554 S
N477 C488 1.318 . S
N477 C512 1.421 . S
Co478 N476 1.859 . S
Co478 N477 1.962 1_556 S
Co478 N479 1.859 . S
Co478 N485 1.958 . S
Co478 N486 1.962 1_556 S
Co478 N487 1.958 . S
N479 Co478 1.859 . S
N479 C483 1.330 . S
N479 C484 1.335 1_556 S
C480 C481 1.411 1_554 S
C480 C484 1.381 . S
C480 H521 0.931 . S
C481 C480 1.411 1_556 S
C481 C482 1.384 . S
C481 H522 0.930 . S
C482 C481 1.384 . S
C482 C483 1.376 . S
C482 H523 0.929 . S
C483 N479 1.330 . S
C483 C482 1.376 . S
C483 C498 1.484 . S
C484 N479 1.335 1_554 S
C484 C480 1.381 . S
C484 C488 1.493 . S
N485 Co478 1.958 . S
N485 C498 1.344 . S
N485 C500 1.425 . S
N486 C469 1.318 . S
N486 Co478 1.962 1_554 S
N486 C506 1.421 . S
N487 Co478 1.958 . S
N487 C490 1.344 . S
N487 C492 1.425 . S
C488 N477 1.318 . S
C488 C484 1.493 . S
C488 O489 1.201 . S
O489 C488 1.201 . S
C490 C475 1.484 . S
C490 N487 1.344 . S
C490 O491 1.268 . S
O491 C490 1.268 . S
C492 N487 1.425 . S
C492 C494 1.392 . S
C492 C495 1.368 . S
C493 C494 1.382 . S
C493 C497 1.386 . S
C494 C492 1.392 . S
C494 C493 1.382 . S
C494 H524 0.928 . S
C495 C492 1.368 . S
C495 C496 1.367 . S
C495 H525 0.930 . S
C496 C495 1.367 . S
C496 C497 1.369 . S
C497 C493 1.386 . S
C497 C496 1.369 . S
C497 H526 0.930 . S
C498 C483 1.484 . S
C498 N485 1.344 . S
C498 O499 1.268 . S
O499 C498 1.268 . S
C500 N485 1.425 . S
C500 C501 1.368 . S
C500 C505 1.392 . S
C501 C500 1.368 . S
C501 C502 1.367 . S
C501 H527 0.930 . S
C502 C501 1.367 . S
C502 C503 1.369 . S
C503 C502 1.369 . S
C503 C504 1.386 . S
C503 H528 0.930 . S
C504 C503 1.386 . S
C504 C505 1.382 . S
C505 C500 1.392 . S
C505 C504 1.382 . S
C505 H529 0.928 . S
C506 N486 1.421 . S
C506 C507 1.371 . S
C506 C511 1.385 . S
C507 C506 1.371 . S
C507 C508 1.367 . S
C507 H530 0.931 . S
C508 C507 1.367 . S
C508 C509 1.401 . S
C509 C508 1.401 . S
C509 C510 1.385 . S
C509 H531 0.930 . S
C510 C509 1.385 . S
C510 C511 1.402 . S
C511 C506 1.385 . S
C511 C510 1.402 . S
C511 H532 0.929 . S
C512 N477 1.421 . S
C512 C515 1.385 . S
C512 C516 1.371 . S
C513 C514 1.385 . S
C513 C517 1.401 . S
C513 H533 0.930 . S
C514 C513 1.385 . S
C514 C515 1.402 . S
C515 C512 1.385 . S
C515 C514 1.402 . S
C515 H534 0.929 . S
C516 C512 1.371 . S
C516 C517 1.367 . S
C516 H535 0.931 . S
C517 C513 1.401 . S
C517 C516 1.367 . S
H518 C472 0.931 . S
H519 C473 0.930 . S
H520 C474 0.929 . S
H521 C480 0.931 . S
H522 C481 0.930 . S
H523 C482 0.929 . S
H524 C494 0.928 . S
H525 C495 0.930 . S
H526 C497 0.930 . S
H527 C501 0.930 . S
H528 C503 0.930 . S
H529 C505 0.928 . S
H530 C507 0.931 . S
H531 C509 0.930 . S
H532 C511 0.929 . S
H533 C513 0.930 . S
H534 C515 0.929 . S
H535 C516 0.931 . S
H536 C548 0.930 . S
H537 C550 0.930 . S
H538 C551 0.930 . S
H539 C555 0.959 . S
H540 C555 0.959 . S
H541 C555 0.961 . S
H542 C556 0.960 . S
H543 C556 0.961 . S
H544 C556 0.959 . S
H545 C559 0.929 . S
H546 C560 0.931 . S
H547 C562 0.930 . S
C548 H536 0.930 . S
C548 C549 1.399 . S
C548 C553 1.399 . S
C549 C548 1.399 . S
C549 C550 1.376 . S
C550 H537 0.930 . S
C550 C549 1.376 . S
C550 C551 1.388 . S
C551 H538 0.930 . S
C551 C550 1.388 . S
C551 C552 1.390 . S
C552 C551 1.390 . S
C552 C553 1.394 . S
C552 C558 1.465 . S
C553 C548 1.399 . S
C553 C552 1.394 . S
C553 C554 1.516 . S
C554 C553 1.516 . S
C554 C555 1.502 . S
C554 C556 1.561 . S
C554 C557 1.526 . S
C555 H539 0.959 . S
C555 H540 0.959 . S
C555 H541 0.961 . S
C555 C554 1.502 . S
C556 H542 0.960 . S
C556 H543 0.961 . S
C556 H544 0.959 . S
C556 C554 1.561 . S
C557 C554 1.526 . S
C557 C558 1.396 . S
C557 C562 1.390 . S
C558 C552 1.465 . S
C558 C557 1.396 . S
C558 C559 1.399 . S
C559 H545 0.929 . S
C559 C558 1.399 . S
C559 C560 1.385 . S
C560 H546 0.931 . S
C560 C559 1.385 . S
C560 C561 1.389 . S
C561 C560 1.389 . S
C561 C562 1.387 . S
C562 H547 0.930 . S
C562 C557 1.390 . S
C562 C561 1.387 . S
H563 C575 0.930 . S
H564 C577 0.930 1_545 S
H565 C578 0.930 . S
H566 C582 0.959 . S
H567 C582 0.959 . S
H568 C582 0.961 . S
H569 C583 0.960 . S
H570 C583 0.961 . S
H571 C583 0.959 . S
H572 C586 0.929 1_545 S
H573 C587 0.931 1_545 S
H574 C589 0.930 . S
C575 H563 0.930 . S
C575 C576 1.399 . S
C575 C580 1.399 . S
C576 C575 1.399 . S
C576 C577 1.376 . S
C577 H564 0.930 1_565 S
C577 C576 1.376 . S
C577 C578 1.388 1_565 S
C578 H565 0.930 . S
C578 C577 1.388 1_545 S
C578 C579 1.390 1_545 S
C579 C578 1.390 1_565 S
C579 C580 1.394 . S
C579 C585 1.465 . S
C580 C575 1.399 . S
C580 C579 1.394 . S
C580 C581 1.516 . S
C581 C580 1.516 . S
C581 C582 1.502 . S
C581 C583 1.561 . S
C581 C584 1.526 . S
C582 H566 0.959 . S
C582 H567 0.959 . S
C582 H568 0.961 . S
C582 C581 1.502 . S
C583 H569 0.960 . S
C583 H570 0.961 . S
C583 H571 0.959 . S
C583 C581 1.561 . S
C584 C581 1.526 . S
C584 C585 1.396 . S
C584 C589 1.390 . S
C585 C579 1.465 . S
C585 C584 1.396 . S
C585 C586 1.399 . S
C586 H572 0.929 1_565 S
C586 C585 1.399 . S
C586 C587 1.385 . S
C587 H573 0.931 1_565 S
C587 C586 1.385 . S
C587 C588 1.389 . S
C588 C587 1.389 . S
C588 C589 1.387 . S
C589 H574 0.930 . S
C589 C584 1.390 . S
C589 C588 1.387 . S
H590 C602 0.930 . S
H591 C604 0.930 . S
H592 C605 0.930 . S
H593 C609 0.959 . S
H594 C609 0.959 . S
H595 C609 0.961 . S
H596 C610 0.960 . S
H597 C610 0.961 . S
H598 C610 0.959 . S
H599 C613 0.929 . S
H600 C614 0.931 . S
H601 C616 0.930 . S
C602 H590 0.930 . S
C602 C603 1.399 . S
C602 C607 1.399 . S
C603 C602 1.399 . S
C603 C604 1.376 . S
C604 H591 0.930 . S
C604 C603 1.376 . S
C604 C605 1.388 . S
C605 H592 0.930 . S
C605 C604 1.388 . S
C605 C606 1.390 . S
C606 C605 1.390 . S
C606 C607 1.394 . S
C606 C612 1.465 . S
C607 C602 1.399 . S
C607 C606 1.394 . S
C607 C608 1.516 . S
C608 C607 1.516 . S
C608 C609 1.502 . S
C608 C610 1.561 . S
C608 C611 1.526 . S
C609 H593 0.959 . S
C609 H594 0.959 . S
C609 H595 0.961 . S
C609 C608 1.502 . S
C610 H596 0.960 . S
C610 H597 0.961 . S
C610 H598 0.959 . S
C610 C608 1.561 . S
C611 C608 1.526 . S
C611 C612 1.396 . S
C611 C616 1.390 . S
C612 C606 1.465 . S
C612 C611 1.396 . S
C612 C613 1.399 . S
C613 H599 0.929 . S
C613 C612 1.399 . S
C613 C614 1.385 . S
C614 H600 0.931 . S
C614 C613 1.385 . S
C614 C615 1.389 . S
C615 C614 1.389 . S
C615 C616 1.387 . S
C616 H601 0.930 . S
C616 C611 1.390 . S
C616 C615 1.387 . S
H617 C629 0.930 . S
H618 C631 0.930 . S
H619 C632 0.930 . S
H620 C636 0.959 . S
H621 C636 0.959 . S
H622 C636 0.961 . S
H623 C637 0.960 . S
H624 C637 0.961 . S
H625 C637 0.959 . S
H626 C640 0.929 . S
H627 C641 0.931 . S
H628 C643 0.930 . S
C629 H617 0.930 . S
C629 C630 1.399 . S
C629 C634 1.399 . S
C630 C629 1.399 . S
C630 C631 1.376 . S
C631 H618 0.930 . S
C631 C630 1.376 . S
C631 C632 1.388 . S
C632 H619 0.930 . S
C632 C631 1.388 . S
C632 C633 1.390 . S
C633 C632 1.390 . S
C633 C634 1.394 . S
C633 C639 1.465 . S
C634 C629 1.399 . S
C634 C633 1.394 . S
C634 C635 1.516 . S
C635 C634 1.516 . S
C635 C636 1.502 . S
C635 C637 1.561 . S
C635 C638 1.526 . S
C636 H620 0.959 . S
C636 H621 0.959 . S
C636 H622 0.961 . S
C636 C635 1.502 . S
C637 H623 0.960 . S
C637 H624 0.961 . S
C637 H625 0.959 . S
C637 C635 1.561 . S
C638 C635 1.526 . S
C638 C639 1.396 . S
C638 C643 1.390 . S
C639 C633 1.465 . S
C639 C638 1.396 . S
C639 C640 1.399 . S
C640 H626 0.929 . S
C640 C639 1.399 . S
C640 C641 1.385 . S
C641 H627 0.931 . S
C641 C640 1.385 . S
C641 C642 1.389 . S
C642 C641 1.389 . S
C642 C643 1.387 . S
C643 H628 0.930 . S
C643 C638 1.390 . S
C643 C642 1.387 . S
H644 C656 0.930 . S
H645 C658 0.930 . S
H646 C659 0.930 . S
H647 C663 0.959 . S
H648 C663 0.959 . S
H649 C663 0.961 . S
H650 C664 0.960 . S
H651 C664 0.961 . S
H652 C664 0.959 . S
H653 C667 0.929 . S
H654 C668 0.931 . S
H655 C670 0.930 . S
C656 H644 0.930 . S
C656 C657 1.399 . S
C656 C661 1.399 . S
C657 C656 1.399 . S
C657 C658 1.376 . S
C658 H645 0.930 . S
C658 C657 1.376 . S
C658 C659 1.388 . S
C659 H646 0.930 . S
C659 C658 1.388 . S
C659 C660 1.390 . S
C660 C659 1.390 . S
C660 C661 1.394 . S
C660 C666 1.465 . S
C661 C656 1.399 . S
C661 C660 1.394 . S
C661 C662 1.516 . S
C662 C661 1.516 . S
C662 C663 1.502 . S
C662 C664 1.561 . S
C662 C665 1.526 . S
C663 H647 0.959 . S
C663 H648 0.959 . S
C663 H649 0.961 . S
C663 C662 1.502 . S
C664 H650 0.960 . S
C664 H651 0.961 . S
C664 H652 0.959 . S
C664 C662 1.561 . S
C665 C662 1.526 . S
C665 C666 1.396 . S
C665 C670 1.390 . S
C666 C660 1.465 . S
C666 C665 1.396 . S
C666 C667 1.399 . S
C667 H653 0.929 . S
C667 C666 1.399 . S
C667 C668 1.385 . S
C668 H654 0.931 . S
C668 C667 1.385 . S
C668 C669 1.389 . S
C669 C668 1.389 . S
C669 C670 1.387 . S
C670 H655 0.930 . S
C670 C665 1.390 . S
C670 C669 1.387 . S
H671 C683 0.930 . S
H672 C685 0.930 . S
H673 C686 0.930 . S
H674 C690 0.959 . S
H675 C690 0.959 . S
H676 C690 0.961 . S
H677 C691 0.960 . S
H678 C691 0.961 . S
H679 C691 0.959 . S
H680 C694 0.929 . S
H681 C695 0.931 . S
H682 C697 0.930 . S
C683 H671 0.930 . S
C683 C684 1.399 . S
C683 C688 1.399 . S
C684 C683 1.399 . S
C684 C685 1.376 . S
C685 H672 0.930 . S
C685 C684 1.376 . S
C685 C686 1.388 . S
C686 H673 0.930 . S
C686 C685 1.388 . S
C686 C687 1.390 . S
C687 C686 1.390 . S
C687 C688 1.394 . S
C687 C693 1.465 . S
C688 C683 1.399 . S
C688 C687 1.394 . S
C688 C689 1.516 . S
C689 C688 1.516 . S
C689 C690 1.502 . S
C689 C691 1.561 . S
C689 C692 1.526 . S
C690 H674 0.959 . S
C690 H675 0.959 . S
C690 H676 0.961 . S
C690 C689 1.502 . S
C691 H677 0.960 . S
C691 H678 0.961 . S
C691 H679 0.959 . S
C691 C689 1.561 . S
C692 C689 1.526 . S
C692 C693 1.396 . S
C692 C697 1.390 . S
C693 C687 1.465 . S
C693 C692 1.396 . S
C693 C694 1.399 . S
C694 H680 0.929 . S
C694 C693 1.399 . S
C694 C695 1.385 . S
C695 H681 0.931 . S
C695 C694 1.385 . S
C695 C696 1.389 . S
C696 C695 1.389 . S
C696 C697 1.387 . S
C697 H682 0.930 . S
C697 C692 1.390 . S
C697 C696 1.387 . S
H698 C710 0.930 . S
H699 C712 0.930 . S
H700 C713 0.930 . S
H701 C717 0.959 . S
H702 C717 0.959 . S
H703 C717 0.961 . S
H704 C718 0.960 . S
H705 C718 0.961 1_545 S
H706 C718 0.959 . S
H707 C721 0.929 . S
H708 C722 0.931 . S
H709 C724 0.930 . S
C710 H698 0.930 . S
C710 C711 1.399 . S
C710 C715 1.399 . S
C711 C710 1.399 . S
C711 C712 1.376 . S
C712 H699 0.930 . S
C712 C711 1.376 . S
C712 C713 1.388 . S
C713 H700 0.930 . S
C713 C712 1.388 . S
C713 C714 1.390 . S
C714 C713 1.390 . S
C714 C715 1.394 . S
C714 C720 1.465 . S
C715 C710 1.399 . S
C715 C714 1.394 . S
C715 C716 1.516 . S
C716 C715 1.516 . S
C716 C717 1.502 . S
C716 C718 1.561 . S
C716 C719 1.526 . S
C717 H701 0.959 . S
C717 H702 0.959 . S
C717 H703 0.961 . S
C717 C716 1.502 . S
C718 H704 0.960 . S
C718 H705 0.961 1_565 S
C718 H706 0.959 . S
C718 C716 1.561 . S
C719 C716 1.526 . S
C719 C720 1.396 . S
C719 C724 1.390 . S
C720 C714 1.465 . S
C720 C719 1.396 . S
C720 C721 1.399 . S
C721 H707 0.929 . S
C721 C720 1.399 . S
C721 C722 1.385 . S
C722 H708 0.931 . S
C722 C721 1.385 . S
C722 C723 1.389 . S
C723 C722 1.389 . S
C723 C724 1.387 . S
C724 H709 0.930 . S
C724 C719 1.390 . S
C724 C723 1.387 . S
H725 C737 0.930 . S
H726 C739 0.930 . S
H727 C740 0.930 . S
H728 C744 0.959 . S
H729 C744 0.959 . S
H730 C744 0.961 . S
H731 C745 0.960 . S
H732 C745 0.961 1_565 S
H733 C745 0.959 . S
H734 C748 0.929 . S
H735 C749 0.931 . S
H736 C751 0.930 . S
C737 H725 0.930 . S
C737 C738 1.399 . S
C737 C742 1.399 . S
C738 C737 1.399 . S
C738 C739 1.376 . S
C739 H726 0.930 . S
C739 C738 1.376 . S
C739 C740 1.388 . S
C740 H727 0.930 . S
C740 C739 1.388 . S
C740 C741 1.390 . S
C741 C740 1.390 . S
C741 C742 1.394 . S
C741 C747 1.465 . S
C742 C737 1.399 . S
C742 C741 1.394 . S
C742 C743 1.516 . S
C743 C742 1.516 . S
C743 C744 1.502 . S
C743 C745 1.561 . S
C743 C746 1.526 . S
C744 H728 0.959 . S
C744 H729 0.959 . S
C744 H730 0.961 . S
C744 C743 1.502 . S
C745 H731 0.960 . S
C745 H732 0.961 1_545 S
C745 H733 0.959 . S
C745 C743 1.561 . S
C746 C743 1.526 . S
C746 C747 1.396 . S
C746 C751 1.390 . S
C747 C741 1.465 . S
C747 C746 1.396 . S
C747 C748 1.399 . S
C748 H734 0.929 . S
C748 C747 1.399 . S
C748 C749 1.385 . S
C749 H735 0.931 . S
C749 C748 1.385 . S
C749 C750 1.389 . S
C750 C749 1.389 . S
C750 C751 1.387 . S
C751 H736 0.930 . S
C751 C746 1.390 . S
C751 C750 1.387 . S
H752 C764 0.930 . S
H753 C766 0.930 . S
H754 C767 0.930 1_565 S
H755 C771 0.959 . S
H756 C771 0.959 . S
H757 C771 0.961 . S
H758 C772 0.960 . S
H759 C772 0.961 . S
H760 C772 0.959 . S
H761 C775 0.929 1_565 S
H762 C776 0.931 1_565 S
H763 C778 0.930 . S
C764 H752 0.930 . S
C764 C765 1.399 . S
C764 C769 1.399 . S
C765 C764 1.399 . S
C765 C766 1.376 . S
C766 H753 0.930 . S
C766 C765 1.376 . S
C766 C767 1.388 . S
C767 H754 0.930 1_545 S
C767 C766 1.388 . S
C767 C768 1.390 . S
C768 C767 1.390 . S
C768 C769 1.394 . S
C768 C774 1.465 . S
C769 C764 1.399 . S
C769 C768 1.394 . S
C769 C770 1.516 . S
C770 C769 1.516 . S
C770 C771 1.502 . S
C770 C772 1.561 . S
C770 C773 1.526 . S
C771 H755 0.959 . S
C771 H756 0.959 . S
C771 H757 0.961 . S
C771 C770 1.502 . S
C772 H758 0.960 . S
C772 H759 0.961 . S
C772 H760 0.959 . S
C772 C770 1.561 . S
C773 C770 1.526 . S
C773 C774 1.396 . S
C773 C778 1.390 . S
C774 C768 1.465 . S
C774 C773 1.396 . S
C774 C775 1.399 . S
C775 H761 0.929 1_545 S
C775 C774 1.399 . S
C775 C776 1.385 . S
C776 H762 0.931 1_545 S
C776 C775 1.385 . S
C776 C777 1.389 . S
C777 C776 1.389 . S
C777 C778 1.387 . S
C778 H763 0.930 . S
C778 C773 1.390 . S
C778 C777 1.387 . S
H779 C791 0.930 . S
H780 C793 0.930 1_545 S
H781 C794 0.942 . S
H782 C798 0.959 . S
H783 C798 0.959 . S
H784 C798 0.961 . S
H785 C799 0.960 . S
H786 C799 0.961 . S
H787 C799 0.959 . S
H788 C802 0.929 1_545 S
H789 C803 0.926 1_545 S
H790 C805 0.930 . S
C791 H779 0.930 . S
C791 C792 1.399 . S
C791 C796 1.399 . S
C792 C791 1.399 . S
C792 C793 1.376 . S
C793 H780 0.930 1_565 S
C793 C792 1.376 . S
C793 C794 1.387 1_565 S
C794 H781 0.942 . S
C794 C793 1.387 1_545 S
C794 C795 1.379 1_545 S
C795 C794 1.379 1_565 S
C795 C796 1.394 . S
C795 C801 1.465 . S
C796 C791 1.399 . S
C796 C795 1.394 . S
C796 C797 1.516 . S
C797 C796 1.516 . S
C797 C798 1.502 . S
C797 C799 1.561 . S
C797 C800 1.526 . S
C798 H782 0.959 . S
C798 H783 0.959 . S
C798 H784 0.961 . S
C798 C797 1.502 . S
C799 H785 0.960 . S
C799 H786 0.961 . S
C799 H787 0.959 . S
C799 C797 1.561 . S
C800 C797 1.526 . S
C800 C801 1.396 . S
C800 C805 1.390 . S
C801 C795 1.465 . S
C801 C800 1.396 . S
C801 C802 1.399 . S
C802 H788 0.929 1_565 S
C802 C801 1.399 . S
C802 C803 1.385 . S
C803 H789 0.926 1_565 S
C803 C802 1.385 . S
C803 C804 1.389 . S
C804 C803 1.389 . S
C804 C805 1.387 . S
C805 H790 0.930 . S
C805 C800 1.390 . S
C805 C804 1.387 . S
H806 C818 0.930 . S
H807 C820 0.930 . S
H808 C821 0.930 . S
H809 C825 0.959 . S
H810 C825 0.959 . S
H811 C825 0.961 . S
H812 C826 0.960 . S
H813 C826 0.961 . S
H814 C826 0.959 . S
H815 C829 0.929 . S
H816 C830 0.931 . S
H817 C832 0.930 . S
C818 H806 0.930 . S
C818 C819 1.399 . S
C818 C823 1.399 . S
C819 C818 1.399 . S
C819 C820 1.376 . S
C820 H807 0.930 . S
C820 C819 1.376 . S
C820 C821 1.388 . S
C821 H808 0.930 . S
C821 C820 1.388 . S
C821 C822 1.390 . S
C822 C821 1.390 . S
C822 C823 1.394 . S
C822 C828 1.465 . S
C823 C818 1.399 . S
C823 C822 1.394 . S
C823 C824 1.516 . S
C824 C823 1.516 . S
C824 C825 1.502 . S
C824 C826 1.561 . S
C824 C827 1.526 . S
C825 H809 0.959 . S
C825 H810 0.959 . S
C825 H811 0.961 . S
C825 C824 1.502 . S
C826 H812 0.960 . S
C826 H813 0.961 . S
C826 H814 0.959 . S
C826 C824 1.561 . S
C827 C824 1.526 . S
C827 C828 1.396 . S
C827 C832 1.390 . S
C828 C822 1.465 . S
C828 C827 1.396 . S
C828 C829 1.399 . S
C829 H815 0.929 . S
C829 C828 1.399 . S
C829 C830 1.385 . S
C830 H816 0.931 . S
C830 C829 1.385 . S
C830 C831 1.389 . S
C831 C830 1.389 . S
C831 C832 1.387 . S
C832 H817 0.930 . S
C832 C827 1.390 . S
C832 C831 1.387 . S
H833 C845 0.930 . S
H834 C847 0.930 . S
H835 C848 0.930 . S
H836 C852 0.959 . S
H837 C852 0.959 . S
H838 C852 0.961 . S
H839 C853 0.960 . S
H840 C853 0.961 . S
H841 C853 0.959 . S
H842 C856 0.929 . S
H843 C857 0.931 . S
H844 C859 0.930 . S
C845 H833 0.930 . S
C845 C846 1.399 . S
C845 C850 1.399 . S
C846 C845 1.399 . S
C846 C847 1.376 . S
C847 H834 0.930 . S
C847 C846 1.376 . S
C847 C848 1.388 . S
C848 H835 0.930 . S
C848 C847 1.388 . S
C848 C849 1.390 . S
C849 C848 1.390 . S
C849 C850 1.394 . S
C849 C855 1.465 . S
C850 C845 1.399 . S
C850 C849 1.394 . S
C850 C851 1.516 . S
C851 C850 1.516 . S
C851 C852 1.502 . S
C851 C853 1.561 . S
C851 C854 1.526 . S
C852 H836 0.959 . S
C852 H837 0.959 . S
C852 H838 0.961 . S
C852 C851 1.502 . S
C853 H839 0.960 . S
C853 H840 0.961 . S
C853 H841 0.959 . S
C853 C851 1.561 . S
C854 C851 1.526 . S
C854 C855 1.396 . S
C854 C859 1.390 . S
C855 C849 1.465 . S
C855 C854 1.396 . S
C855 C856 1.399 . S
C856 H842 0.929 . S
C856 C855 1.399 . S
C856 C857 1.385 . S
C857 H843 0.931 . S
C857 C856 1.385 . S
C857 C858 1.389 . S
C858 C857 1.389 . S
C858 C859 1.387 . S
C859 H844 0.930 . S
C859 C854 1.390 . S
C859 C858 1.387 . S
H860 C872 0.930 . S
H861 C874 0.930 . S
H862 C875 0.930 . S
H863 C879 0.959 . S
H864 C879 0.959 . S
H865 C879 0.961 . S
H866 C880 0.960 . S
H867 C880 0.961 . S
H868 C880 0.959 . S
H869 C883 0.929 . S
H870 C884 0.931 . S
H871 C886 0.930 . S
C872 H860 0.930 . S
C872 C873 1.399 . S
C872 C877 1.399 . S
C873 C872 1.399 . S
C873 C874 1.376 . S
C874 H861 0.930 . S
C874 C873 1.376 . S
C874 C875 1.388 . S
C875 H862 0.930 . S
C875 C874 1.388 . S
C875 C876 1.390 . S
C876 C875 1.390 . S
C876 C877 1.394 . S
C876 C882 1.465 . S
C877 C872 1.399 . S
C877 C876 1.394 . S
C877 C878 1.516 . S
C878 C877 1.516 . S
C878 C879 1.502 . S
C878 C880 1.561 . S
C878 C881 1.526 . S
C879 H863 0.959 . S
C879 H864 0.959 . S
C879 H865 0.961 . S
C879 C878 1.502 . S
C880 H866 0.960 . S
C880 H867 0.961 . S
C880 H868 0.959 . S
C880 C878 1.561 . S
C881 C878 1.526 . S
C881 C882 1.396 . S
C881 C886 1.390 . S
C882 C876 1.465 . S
C882 C881 1.396 . S
C882 C883 1.399 . S
C883 H869 0.929 . S
C883 C882 1.399 . S
C883 C884 1.385 . S
C884 H870 0.931 . S
C884 C883 1.385 . S
C884 C885 1.389 . S
C885 C884 1.389 . S
C885 C886 1.387 . S
C886 H871 0.930 . S
C886 C881 1.390 . S
C886 C885 1.387 . S
H887 C899 0.930 . S
H888 C901 0.930 . S
H889 C902 0.930 . S
H890 C906 0.959 . S
H891 C906 0.959 . S
H892 C906 0.961 . S
H893 C907 0.960 . S
H894 C907 0.961 . S
H895 C907 0.959 . S
H896 C910 0.929 . S
H897 C911 0.931 . S
H898 C913 0.930 . S
C899 H887 0.930 . S
C899 C900 1.399 . S
C899 C904 1.399 . S
C900 C899 1.399 . S
C900 C901 1.376 . S
C901 H888 0.930 . S
C901 C900 1.376 . S
C901 C902 1.388 . S
C902 H889 0.930 . S
C902 C901 1.388 . S
C902 C903 1.390 . S
C903 C902 1.390 . S
C903 C904 1.394 . S
C903 C909 1.465 . S
C904 C899 1.399 . S
C904 C903 1.394 . S
C904 C905 1.516 . S
C905 C904 1.516 . S
C905 C906 1.502 . S
C905 C907 1.561 . S
C905 C908 1.526 . S
C906 H890 0.959 . S
C906 H891 0.959 . S
C906 H892 0.961 . S
C906 C905 1.502 . S
C907 H893 0.960 . S
C907 H894 0.961 . S
C907 H895 0.959 . S
C907 C905 1.561 . S
C908 C905 1.526 . S
C908 C909 1.396 . S
C908 C913 1.390 . S
C909 C903 1.465 . S
C909 C908 1.396 . S
C909 C910 1.399 . S
C910 H896 0.929 . S
C910 C909 1.399 . S
C910 C911 1.385 . S
C911 H897 0.931 . S
C911 C910 1.385 . S
C911 C912 1.389 . S
C912 C911 1.389 . S
C912 C913 1.387 . S
C913 H898 0.930 . S
C913 C908 1.390 . S
C913 C912 1.387 . S
H914 C926 0.930 . S
H915 C928 0.930 . S
H916 C929 0.930 . S
H917 C933 0.959 . S
H918 C933 0.959 . S
H919 C933 0.961 . S
H920 C934 0.968 . S
H921 C934 0.961 . S
H922 C934 0.959 . S
H923 C937 0.929 . S
H924 C938 0.931 . S
H925 C940 0.930 . S
C926 H914 0.930 . S
C926 C927 1.399 . S
C926 C931 1.399 . S
C927 C926 1.399 . S
C927 C928 1.376 . S
C928 H915 0.930 . S
C928 C927 1.376 . S
C928 C929 1.388 . S
C929 H916 0.930 . S
C929 C928 1.388 . S
C929 C930 1.390 . S
C930 C929 1.390 . S
C930 C931 1.394 . S
C930 C936 1.465 . S
C931 C926 1.399 . S
C931 C930 1.394 . S
C931 C932 1.516 . S
C932 C931 1.516 . S
C932 C933 1.502 . S
C932 C934 1.561 . S
C932 C935 1.526 . S
C933 H917 0.959 . S
C933 H918 0.959 . S
C933 H919 0.961 . S
C933 C932 1.502 . S
C934 H920 0.968 . S
C934 H921 0.961 . S
C934 H922 0.959 . S
C934 C932 1.561 . S
C935 C932 1.526 . S
C935 C936 1.396 . S
C935 C940 1.390 . S
C936 C930 1.465 . S
C936 C935 1.396 . S
C936 C937 1.399 . S
C937 H923 0.929 . S
C937 C936 1.399 . S
C937 C938 1.385 . S
C938 H924 0.931 . S
C938 C937 1.385 . S
C938 C939 1.389 . S
C939 C938 1.389 . S
C939 C940 1.387 . S
C940 H925 0.930 . S
C940 C935 1.390 . S
C940 C939 1.387 . S
H941 C953 0.930 . S
H942 C955 0.930 . S
H943 C956 0.930 . S
H944 C960 0.959 . S
H945 C960 0.959 . S
H946 C960 0.961 . S
H947 C961 0.960 1_565 S
H948 C961 0.952 1_565 S
H949 C961 0.959 . S
H950 C964 0.929 . S
H951 C965 0.931 . S
H952 C967 0.930 . S
C953 H941 0.930 . S
C953 C954 1.399 . S
C953 C958 1.399 . S
C954 C953 1.399 . S
C954 C955 1.376 . S
C955 H942 0.930 . S
C955 C954 1.376 . S
C955 C956 1.388 . S
C956 H943 0.930 . S
C956 C955 1.388 . S
C956 C957 1.390 . S
C957 C956 1.390 . S
C957 C958 1.394 . S
C957 C963 1.465 . S
C958 C953 1.399 . S
C958 C957 1.394 . S
C958 C959 1.516 . S
C959 C958 1.516 . S
C959 C960 1.502 . S
C959 C961 1.561 . S
C959 C962 1.526 . S
C960 H944 0.959 . S
C960 H945 0.959 . S
C960 H946 0.961 . S
C960 C959 1.502 . S
C961 H947 0.960 1_545 S
C961 H948 0.952 1_545 S
C961 H949 0.959 . S
C961 C959 1.561 . S
C962 C959 1.526 . S
C962 C963 1.396 . S
C962 C967 1.390 . S
C963 C957 1.465 . S
C963 C962 1.396 . S
C963 C964 1.399 . S
C964 H950 0.929 . S
C964 C963 1.399 . S
C964 C965 1.385 . S
C965 H951 0.931 . S
C965 C964 1.385 . S
C965 C966 1.389 . S
C966 C965 1.389 . S
C966 C967 1.387 . S
C967 H952 0.930 . S
C967 C962 1.390 . S
C967 C966 1.387 . S
H968 C980 0.930 . S
H969 C982 0.930 . S
H970 C983 0.930 . S
H971 C987 0.959 1_556 S
H972 C987 0.959 . S
H973 C987 0.961 . S
H974 C988 0.960 . S
H975 C988 0.961 . S
H976 C988 0.959 . S
H977 C991 0.929 . S
H978 C992 0.931 . S
H979 C994 0.930 1_455 S
C980 H968 0.930 . S
C980 C981 1.399 . S
C980 C985 1.399 . S
C981 C980 1.399 . S
C981 C982 1.376 1_455 S
C982 H969 0.930 . S
C982 C981 1.376 1_655 S
C982 C983 1.388 . S
C983 H970 0.930 . S
C983 C982 1.388 . S
C983 C984 1.390 . S
C984 C983 1.390 . S
C984 C985 1.394 1_655 S
C984 C990 1.465 . S
C985 C980 1.399 . S
C985 C984 1.394 1_455 S
C985 C986 1.516 . S
C986 C985 1.516 . S
C986 C987 1.502 1_556 S
C986 C988 1.561 1_456 S
C986 C989 1.526 1_455 S
C987 H971 0.959 1_554 S
C987 H972 0.959 . S
C987 H973 0.961 . S
C987 C986 1.502 1_554 S
C988 H974 0.960 . S
C988 H975 0.961 . S
C988 H976 0.959 . S
C988 C986 1.561 1_654 S
C989 C986 1.526 1_655 S
C989 C990 1.396 . S
C989 C994 1.390 . S
C990 C984 1.465 . S
C990 C989 1.396 . S
C990 C991 1.399 . S
C991 H977 0.929 . S
C991 C990 1.399 . S
C991 C992 1.385 . S
C992 H978 0.931 . S
C992 C991 1.385 . S
C992 C993 1.389 . S
C993 C992 1.389 . S
C993 C994 1.387 . S
C994 H979 0.930 1_655 S
C994 C989 1.390 . S
C994 C993 1.387 . S
H995 C1007 0.930 . S
H996 C1009 0.930 . S
H997 C1010 0.930 . S
H998 C1014 0.959 . S
H999 C1014 0.959 . S
H1000 C1014 0.961 . S
H1001 C1015 0.960 . S
H1002 C1015 0.961 . S
H1003 C1015 0.959 . S
H1004 C1018 0.929 . S
H1005 C1019 0.931 . S
H1006 C1021 0.930 . S
C1007 H995 0.930 . S
C1007 C1008 1.399 . S
C1007 C1012 1.399 . S
C1008 C1007 1.399 . S
C1008 C1009 1.376 . S
C1009 H996 0.930 . S
C1009 C1008 1.376 . S
C1009 C1010 1.388 . S
C1010 H997 0.930 . S
C1010 C1009 1.388 . S
C1010 C1011 1.390 . S
C1011 C1010 1.390 . S
C1011 C1012 1.394 . S
C1011 C1017 1.465 . S
C1012 C1007 1.399 . S
C1012 C1011 1.394 . S
C1012 C1013 1.516 . S
C1013 C1012 1.516 . S
C1013 C1014 1.502 . S
C1013 C1015 1.561 . S
C1013 C1016 1.526 . S
C1014 H998 0.959 . S
C1014 H999 0.959 . S
C1014 H1000 0.961 . S
C1014 C1013 1.502 . S
C1015 H1001 0.960 . S
C1015 H1002 0.961 . S
C1015 H1003 0.959 . S
C1015 C1013 1.561 . S
C1016 C1013 1.526 . S
C1016 C1017 1.396 . S
C1016 C1021 1.390 . S
C1017 C1011 1.465 . S
C1017 C1016 1.396 . S
C1017 C1018 1.399 . S
C1018 H1004 0.929 . S
C1018 C1017 1.399 . S
C1018 C1019 1.385 . S
C1019 H1005 0.931 . S
C1019 C1018 1.385 . S
C1019 C1020 1.389 . S
C1020 C1019 1.389 . S
C1020 C1021 1.387 . S
C1021 H1006 0.930 . S
C1021 C1016 1.390 . S
C1021 C1020 1.387 . S
H1022 C1034 0.930 . S
H1023 C1036 0.930 . S
H1024 C1037 0.930 . S
H1025 C1041 0.959 . S
H1026 C1041 0.959 . S
H1027 C1041 0.961 . S
H1028 C1042 0.960 . S
H1029 C1042 0.961 . S
H1030 C1042 0.959 . S
H1031 C1045 0.929 . S
H1032 C1046 0.931 . S
H1033 C1048 0.930 . S
C1034 H1022 0.930 . S
C1034 C1035 1.399 . S
C1034 C1039 1.399 . S
C1035 C1034 1.399 . S
C1035 C1036 1.376 . S
C1036 H1023 0.930 . S
C1036 C1035 1.376 . S
C1036 C1037 1.388 . S
C1037 H1024 0.930 . S
C1037 C1036 1.388 . S
C1037 C1038 1.390 . S
C1038 C1037 1.390 . S
C1038 C1039 1.394 . S
C1038 C1044 1.465 . S
C1039 C1034 1.399 . S
C1039 C1038 1.394 . S
C1039 C1040 1.516 . S
C1040 C1039 1.516 . S
C1040 C1041 1.502 . S
C1040 C1042 1.561 . S
C1040 C1043 1.526 . S
C1041 H1025 0.959 . S
C1041 H1026 0.959 . S
C1041 H1027 0.961 . S
C1041 C1040 1.502 . S
C1042 H1028 0.960 . S
C1042 H1029 0.961 . S
C1042 H1030 0.959 . S
C1042 C1040 1.561 . S
C1043 C1040 1.526 . S
C1043 C1044 1.396 . S
C1043 C1048 1.390 . S
C1044 C1038 1.465 . S
C1044 C1043 1.396 . S
C1044 C1045 1.399 . S
C1045 H1031 0.929 . S
C1045 C1044 1.399 . S
C1045 C1046 1.385 . S
C1046 H1032 0.931 . S
C1046 C1045 1.385 . S
C1046 C1047 1.389 . S
C1047 C1046 1.389 . S
C1047 C1048 1.387 . S
C1048 H1033 0.930 . S
C1048 C1043 1.390 . S
C1048 C1047 1.387 . S
H1049 C1061 0.930 . S
H1050 C1063 0.930 . S
H1051 C1064 0.930 . S
H1052 C1068 0.959 . S
H1053 C1068 0.959 . S
H1054 C1068 0.961 1_565 S
H1055 C1069 0.960 . S
H1056 C1069 0.961 1_545 S
H1057 C1069 0.959 . S
H1058 C1072 0.929 . S
H1059 C1073 0.931 . S
H1060 C1075 0.930 1_655 S
C1061 H1049 0.930 . S
C1061 C1062 1.399 . S
C1061 C1066 1.399 . S
C1062 C1061 1.399 . S
C1062 C1063 1.376 1_655 S
C1063 H1050 0.930 . S
C1063 C1062 1.376 1_455 S
C1063 C1064 1.388 . S
C1064 H1051 0.930 . S
C1064 C1063 1.388 . S
C1064 C1065 1.390 . S
C1065 C1064 1.390 . S
C1065 C1066 1.394 1_455 S
C1065 C1071 1.465 1_565 S
C1066 C1061 1.399 . S
C1066 C1065 1.394 1_655 S
C1066 C1067 1.516 1_565 S
C1067 C1066 1.516 1_545 S
C1067 C1068 1.502 . S
C1067 C1069 1.561 1_645 S
C1067 C1070 1.526 1_655 S
C1068 H1052 0.959 . S
C1068 H1053 0.959 . S
C1068 H1054 0.961 1_545 S
C1068 C1067 1.502 . S
C1069 H1055 0.960 . S
C1069 H1056 0.961 1_565 S
C1069 H1057 0.959 . S
C1069 C1067 1.561 1_465 S
C1070 C1067 1.526 1_455 S
C1070 C1071 1.396 . S
C1070 C1075 1.390 . S
C1071 C1065 1.465 1_545 S
C1071 C1070 1.396 . S
C1071 C1072 1.399 . S
C1072 H1058 0.929 . S
C1072 C1071 1.399 . S
C1072 C1073 1.385 . S
C1073 H1059 0.931 . S
C1073 C1072 1.385 . S
C1073 C1074 1.389 . S
C1074 C1073 1.389 . S
C1074 C1075 1.387 . S
C1075 H1060 0.930 1_455 S
C1075 C1070 1.390 . S
C1075 C1074 1.387 . S
H1076 C1088 0.930 . S
H1077 C1090 0.930 . S
H1078 C1091 0.930 . S
H1079 C1095 0.959 . S
H1080 C1095 0.959 . S
H1081 C1095 0.961 . S
H1082 C1096 0.960 . S
H1083 C1096 0.961 . S
H1084 C1096 0.959 . S
H1085 C1099 0.929 . S
H1086 C1100 0.931 . S
H1087 C1102 0.930 . S
C1088 H1076 0.930 . S
C1088 C1089 1.399 . S
C1088 C1093 1.399 . S
C1089 C1088 1.399 . S
C1089 C1090 1.376 . S
C1090 H1077 0.930 . S
C1090 C1089 1.376 . S
C1090 C1091 1.388 . S
C1091 H1078 0.930 . S
C1091 C1090 1.388 . S
C1091 C1092 1.390 . S
C1092 C1091 1.390 . S
C1092 C1093 1.394 . S
C1092 C1098 1.465 . S
C1093 C1088 1.399 . S
C1093 C1092 1.394 . S
C1093 C1094 1.516 . S
C1094 C1093 1.516 . S
C1094 C1095 1.502 . S
C1094 C1096 1.561 . S
C1094 C1097 1.526 . S
C1095 H1079 0.959 . S
C1095 H1080 0.959 . S
C1095 H1081 0.961 . S
C1095 C1094 1.502 . S
C1096 H1082 0.960 . S
C1096 H1083 0.961 . S
C1096 H1084 0.959 . S
C1096 C1094 1.561 . S
C1097 C1094 1.526 . S
C1097 C1098 1.396 . S
C1097 C1102 1.390 . S
C1098 C1092 1.465 . S
C1098 C1097 1.396 . S
C1098 C1099 1.399 . S
C1099 H1085 0.929 . S
C1099 C1098 1.399 . S
C1099 C1100 1.385 . S
C1100 H1086 0.931 . S
C1100 C1099 1.385 . S
C1100 C1101 1.389 . S
C1101 C1100 1.389 . S
C1101 C1102 1.387 . S
C1102 H1087 0.930 . S
C1102 C1097 1.390 . S
C1102 C1101 1.387 . S
H1103 C1115 0.930 . S
H1104 C1117 0.930 . S
H1105 C1118 0.930 . S
H1106 C1122 0.959 . S
H1107 C1122 0.959 . S
H1108 C1122 0.961 . S
H1109 C1123 0.960 . S
H1110 C1123 0.961 . S
H1111 C1123 0.959 . S
H1112 C1126 0.929 . S
H1113 C1127 0.931 . S
H1114 C1129 0.930 . S
C1115 H1103 0.930 . S
C1115 C1116 1.399 . S
C1115 C1120 1.399 . S
C1116 C1115 1.399 . S
C1116 C1117 1.376 . S
C1117 H1104 0.930 . S
C1117 C1116 1.376 . S
C1117 C1118 1.388 . S
C1118 H1105 0.930 . S
C1118 C1117 1.388 . S
C1118 C1119 1.390 . S
C1119 C1118 1.390 . S
C1119 C1120 1.394 . S
C1119 C1125 1.465 . S
C1120 C1115 1.399 . S
C1120 C1119 1.394 . S
C1120 C1121 1.516 . S
C1121 C1120 1.516 . S
C1121 C1122 1.502 . S
C1121 C1123 1.561 . S
C1121 C1124 1.526 . S
C1122 H1106 0.959 . S
C1122 H1107 0.959 . S
C1122 H1108 0.961 . S
C1122 C1121 1.502 . S
C1123 H1109 0.960 . S
C1123 H1110 0.961 . S
C1123 H1111 0.959 . S
C1123 C1121 1.561 . S
C1124 C1121 1.526 . S
C1124 C1125 1.396 . S
C1124 C1129 1.390 . S
C1125 C1119 1.465 . S
C1125 C1124 1.396 . S
C1125 C1126 1.399 . S
C1126 H1112 0.929 . S
C1126 C1125 1.399 . S
C1126 C1127 1.385 . S
C1127 H1113 0.931 . S
C1127 C1126 1.385 . S
C1127 C1128 1.389 . S
C1128 C1127 1.389 . S
C1128 C1129 1.387 . S
C1129 H1114 0.930 . S
C1129 C1124 1.390 . S
C1129 C1128 1.387 . S
H1130 C1142 0.930 . S
H1131 C1144 0.930 . S
H1132 C1145 0.930 . S
H1133 C1149 0.959 . S
H1134 C1149 0.959 . S
H1135 C1149 0.961 . S
H1136 C1150 0.960 . S
H1137 C1150 0.961 . S
H1138 C1150 0.959 . S
H1139 C1153 0.929 . S
H1140 C1154 0.931 . S
H1141 C1156 0.930 . S
C1142 H1130 0.930 . S
C1142 C1143 1.399 . S
C1142 C1147 1.399 . S
C1143 C1142 1.399 . S
C1143 C1144 1.376 . S
C1144 H1131 0.930 . S
C1144 C1143 1.376 . S
C1144 C1145 1.388 . S
C1145 H1132 0.930 . S
C1145 C1144 1.388 . S
C1145 C1146 1.390 . S
C1146 C1145 1.390 . S
C1146 C1147 1.394 . S
C1146 C1152 1.465 . S
C1147 C1142 1.399 . S
C1147 C1146 1.394 . S
C1147 C1148 1.516 . S
C1148 C1147 1.516 . S
C1148 C1149 1.502 . S
C1148 C1150 1.561 . S
C1148 C1151 1.526 . S
C1149 H1133 0.959 . S
C1149 H1134 0.959 . S
C1149 H1135 0.961 . S
C1149 C1148 1.502 . S
C1150 H1136 0.960 . S
C1150 H1137 0.961 . S
C1150 H1138 0.959 . S
C1150 C1148 1.561 . S
C1151 C1148 1.526 . S
C1151 C1152 1.396 . S
C1151 C1156 1.390 . S
C1152 C1146 1.465 . S
C1152 C1151 1.396 . S
C1152 C1153 1.399 . S
C1153 H1139 0.929 . S
C1153 C1152 1.399 . S
C1153 C1154 1.385 . S
C1154 H1140 0.931 . S
C1154 C1153 1.385 . S
C1154 C1155 1.389 . S
C1155 C1154 1.389 . S
C1155 C1156 1.387 . S
C1156 H1141 0.930 . S
C1156 C1151 1.390 . S
C1156 C1155 1.387 . S
H1157 C1169 0.930 . S
H1158 C1171 0.930 . S
H1159 C1172 0.930 1_554 S
H1160 C1176 0.959 . S
H1161 C1176 0.959 1_545 S
H1162 C1176 0.961 . S
H1163 C1177 0.960 1_565 S
H1164 C1177 0.961 . S
H1165 C1177 0.959 . S
H1166 C1180 0.929 1_554 S
H1167 C1181 0.931 . S
H1168 C1183 0.930 . S
C1169 H1157 0.930 . S
C1169 C1170 1.399 . S
C1169 C1174 1.399 . S
C1170 C1169 1.399 . S
C1170 C1171 1.376 . S
C1171 H1158 0.930 . S
C1171 C1170 1.376 . S
C1171 C1172 1.388 . S
C1172 H1159 0.930 1_556 S
C1172 C1171 1.388 . S
C1172 C1173 1.390 . S
C1173 C1172 1.390 . S
C1173 C1174 1.394 . S
C1173 C1179 1.465 1_565 S
C1174 C1169 1.399 . S
C1174 C1173 1.394 . S
C1174 C1175 1.516 . S
C1175 C1174 1.516 . S
C1175 C1176 1.502 . S
C1175 C1177 1.561 1_565 S
C1175 C1178 1.526 1_565 S
C1176 H1160 0.959 . S
C1176 H1161 0.959 1_565 S
C1176 H1162 0.961 . S
C1176 C1175 1.502 . S
C1177 H1163 0.960 1_545 S
C1177 H1164 0.961 . S
C1177 H1165 0.959 . S
C1177 C1175 1.561 1_545 S
C1178 C1175 1.526 1_545 S
C1178 C1179 1.396 . S
C1178 C1183 1.390 . S
C1179 C1173 1.465 1_545 S
C1179 C1178 1.396 . S
C1179 C1180 1.399 . S
C1180 H1166 0.929 1_556 S
C1180 C1179 1.399 . S
C1180 C1181 1.385 . S
C1181 H1167 0.931 . S
C1181 C1180 1.385 . S
C1181 C1182 1.389 . S
C1182 C1181 1.389 . S
C1182 C1183 1.387 . S
C1183 H1168 0.930 . S
C1183 C1178 1.390 . S
C1183 C1182 1.387 . S
H1184 C1196 0.930 . S
H1185 C1198 0.930 1_556 S
H1186 C1199 0.930 1_556 S
H1187 C1203 0.959 . S
H1188 C1203 0.959 . S
H1189 C1203 0.961 . S
H1190 C1204 0.960 . S
H1191 C1204 0.961 . S
H1192 C1204 0.959 . S
H1193 C1207 0.929 1_556 S
H1194 C1208 0.931 1_556 S
H1195 C1210 0.930 . S
C1196 H1184 0.930 . S
C1196 C1197 1.399 . S
C1196 C1201 1.399 . S
C1197 C1196 1.399 . S
C1197 C1198 1.376 . S
C1198 H1185 0.930 1_554 S
C1198 C1197 1.376 . S
C1198 C1199 1.388 . S
C1199 H1186 0.930 1_554 S
C1199 C1198 1.388 . S
C1199 C1200 1.390 . S
C1200 C1199 1.390 . S
C1200 C1201 1.394 . S
C1200 C1206 1.465 . S
C1201 C1196 1.399 . S
C1201 C1200 1.394 . S
C1201 C1202 1.516 . S
C1202 C1201 1.516 . S
C1202 C1203 1.502 . S
C1202 C1204 1.561 . S
C1202 C1205 1.526 . S
C1203 H1187 0.959 . S
C1203 H1188 0.959 . S
C1203 H1189 0.961 . S
C1203 C1202 1.502 . S
C1204 H1190 0.960 . S
C1204 H1191 0.961 . S
C1204 H1192 0.959 . S
C1204 C1202 1.561 . S
C1205 C1202 1.526 . S
C1205 C1206 1.396 . S
C1205 C1210 1.390 . S
C1206 C1200 1.465 . S
C1206 C1205 1.396 . S
C1206 C1207 1.399 . S
C1207 H1193 0.929 1_554 S
C1207 C1206 1.399 . S
C1207 C1208 1.385 . S
C1208 H1194 0.931 1_554 S
C1208 C1207 1.385 . S
C1208 C1209 1.389 . S
C1209 C1208 1.389 . S
C1209 C1210 1.387 . S
C1210 H1195 0.930 . S
C1210 C1205 1.390 . S
C1210 C1209 1.387 . S
H1211 C1223 0.930 . S
H1212 C1225 0.930 1_556 S
H1213 C1226 0.930 1_556 S
H1214 C1230 0.959 . S
H1215 C1230 0.959 . S
H1216 C1230 0.961 . S
H1217 C1231 0.960 . S
H1218 C1231 0.961 . S
H1219 C1231 0.959 . S
H1220 C1234 0.929 1_556 S
H1221 C1235 0.931 1_556 S
H1222 C1237 0.930 . S
C1223 H1211 0.930 . S
C1223 C1224 1.399 . S
C1223 C1228 1.399 . S
C1224 C1223 1.399 . S
C1224 C1225 1.376 . S
C1225 H1212 0.930 1_554 S
C1225 C1224 1.376 . S
C1225 C1226 1.388 . S
C1226 H1213 0.930 1_554 S
C1226 C1225 1.388 . S
C1226 C1227 1.390 . S
C1227 C1226 1.390 . S
C1227 C1228 1.394 . S
C1227 C1233 1.465 . S
C1228 C1223 1.399 . S
C1228 C1227 1.394 . S
C1228 C1229 1.516 . S
C1229 C1228 1.516 . S
C1229 C1230 1.502 . S
C1229 C1231 1.561 . S
C1229 C1232 1.526 . S
C1230 H1214 0.959 . S
C1230 H1215 0.959 . S
C1230 H1216 0.961 . S
C1230 C1229 1.502 . S
C1231 H1217 0.960 . S
C1231 H1218 0.961 . S
C1231 H1219 0.959 . S
C1231 C1229 1.561 . S
C1232 C1229 1.526 . S
C1232 C1233 1.396 . S
C1232 C1237 1.390 . S
C1233 C1227 1.465 . S
C1233 C1232 1.396 . S
C1233 C1234 1.399 . S
C1234 H1220 0.929 1_554 S
C1234 C1233 1.399 . S
C1234 C1235 1.385 . S
C1235 H1221 0.931 1_554 S
C1235 C1234 1.385 . S
C1235 C1236 1.389 . S
C1236 C1235 1.389 . S
C1236 C1237 1.387 . S
C1237 H1222 0.930 . S
C1237 C1232 1.390 . S
C1237 C1236 1.387 . S
H1238 C1250 0.930 . S
H1239 C1252 0.930 . S
H1240 C1253 0.930 . S
H1241 C1257 0.959 . S
H1242 C1257 0.959 . S
H1243 C1257 0.961 . S
H1244 C1258 0.960 . S
H1245 C1258 0.961 1_655 S
H1246 C1258 0.959 . S
H1247 C1261 0.929 . S
H1248 C1262 0.931 . S
H1249 C1264 0.930 . S
C1250 H1238 0.930 . S
C1250 C1251 1.399 . S
C1250 C1255 1.399 . S
C1251 C1250 1.399 . S
C1251 C1252 1.376 . S
C1252 H1239 0.930 . S
C1252 C1251 1.376 . S
C1252 C1253 1.388 . S
C1253 H1240 0.930 . S
C1253 C1252 1.388 . S
C1253 C1254 1.390 . S
C1254 C1253 1.390 . S
C1254 C1255 1.394 . S
C1254 C1260 1.465 1_455 S
C1255 C1250 1.399 . S
C1255 C1254 1.394 . S
C1255 C1256 1.516 1_455 S
C1256 C1255 1.516 1_655 S
C1256 C1257 1.502 . S
C1256 C1258 1.561 1_655 S
C1256 C1259 1.526 . S
C1257 H1241 0.959 . S
C1257 H1242 0.959 . S
C1257 H1243 0.961 . S
C1257 C1256 1.502 . S
C1258 H1244 0.960 . S
C1258 H1245 0.961 1_455 S
C1258 H1246 0.959 . S
C1258 C1256 1.561 1_455 S
C1259 C1256 1.526 . S
C1259 C1260 1.396 . S
C1259 C1264 1.390 . S
C1260 C1254 1.465 1_655 S
C1260 C1259 1.396 . S
C1260 C1261 1.399 . S
C1261 H1247 0.929 . S
C1261 C1260 1.399 . S
C1261 C1262 1.385 . S
C1262 H1248 0.931 . S
C1262 C1261 1.385 . S
C1262 C1263 1.389 . S
C1263 C1262 1.389 . S
C1263 C1264 1.387 . S
C1264 H1249 0.930 . S
C1264 C1259 1.390 . S
C1264 C1263 1.387 . S
H1265 C1277 0.930 . S
H1266 C1279 0.930 . S
H1267 C1280 0.930 . S
H1268 C1284 0.959 . S
H1269 C1284 0.959 . S
H1270 C1284 0.961 . S
H1271 C1285 0.960 . S
H1272 C1285 0.961 . S
H1273 C1285 0.959 . S
H1274 C1288 0.929 . S
H1275 C1289 0.931 . S
H1276 C1291 0.930 . S
C1277 H1265 0.930 . S
C1277 C1278 1.399 . S
C1277 C1282 1.399 . S
C1278 C1277 1.399 . S
C1278 C1279 1.376 . S
C1279 H1266 0.930 . S
C1279 C1278 1.376 . S
C1279 C1280 1.388 . S
C1280 H1267 0.930 . S
C1280 C1279 1.388 . S
C1280 C1281 1.390 . S
C1281 C1280 1.390 . S
C1281 C1282 1.394 . S
C1281 C1287 1.465 . S
C1282 C1277 1.399 . S
C1282 C1281 1.394 . S
C1282 C1283 1.516 . S
C1283 C1282 1.516 . S
C1283 C1284 1.502 . S
C1283 C1285 1.561 . S
C1283 C1286 1.526 . S
C1284 H1268 0.959 . S
C1284 H1269 0.959 . S
C1284 H1270 0.961 . S
C1284 C1283 1.502 . S
C1285 H1271 0.960 . S
C1285 H1272 0.961 . S
C1285 H1273 0.959 . S
C1285 C1283 1.561 . S
C1286 C1283 1.526 . S
C1286 C1287 1.396 . S
C1286 C1291 1.390 . S
C1287 C1281 1.465 . S
C1287 C1286 1.396 . S
C1287 C1288 1.399 . S
C1288 H1274 0.929 . S
C1288 C1287 1.399 . S
C1288 C1289 1.385 . S
C1289 H1275 0.931 . S
C1289 C1288 1.385 . S
C1289 C1290 1.389 . S
C1290 C1289 1.389 . S
C1290 C1291 1.387 . S
C1291 H1276 0.930 . S
C1291 C1286 1.390 . S
C1291 C1290 1.387 . S
H1292 C1304 0.930 . S
H1293 C1306 0.930 . S
H1294 C1307 0.930 . S
H1295 C1311 0.959 . S
H1296 C1311 0.959 . S
H1297 C1311 0.961 . S
H1298 C1312 0.960 . S
H1299 C1312 0.961 . S
H1300 C1312 0.959 . S
H1301 C1315 0.929 . S
H1302 C1316 0.931 . S
H1303 C1318 0.930 . S
C1304 H1292 0.930 . S
C1304 C1305 1.399 . S
C1304 C1309 1.399 . S
C1305 C1304 1.399 . S
C1305 C1306 1.376 . S
C1306 H1293 0.930 . S
C1306 C1305 1.376 . S
C1306 C1307 1.388 . S
C1307 H1294 0.930 . S
C1307 C1306 1.388 . S
C1307 C1308 1.390 . S
C1308 C1307 1.390 . S
C1308 C1309 1.394 . S
C1308 C1314 1.465 . S
C1309 C1304 1.399 . S
C1309 C1308 1.394 . S
C1309 C1310 1.516 . S
C1310 C1309 1.516 . S
C1310 C1311 1.502 . S
C1310 C1312 1.561 . S
C1310 C1313 1.526 . S
C1311 H1295 0.959 . S
C1311 H1296 0.959 . S
C1311 H1297 0.961 . S
C1311 C1310 1.502 . S
C1312 H1298 0.960 . S
C1312 H1299 0.961 . S
C1312 H1300 0.959 . S
C1312 C1310 1.561 . S
C1313 C1310 1.526 . S
C1313 C1314 1.396 . S
C1313 C1318 1.390 . S
C1314 C1308 1.465 . S
C1314 C1313 1.396 . S
C1314 C1315 1.399 . S
C1315 H1301 0.929 . S
C1315 C1314 1.399 . S
C1315 C1316 1.385 . S
C1316 H1302 0.931 . S
C1316 C1315 1.385 . S
C1316 C1317 1.389 . S
C1317 C1316 1.389 . S
C1317 C1318 1.387 . S
C1318 H1303 0.930 . S
C1318 C1313 1.390 . S
C1318 C1317 1.387 . S
H1319 C1331 0.930 . S
H1320 C1333 0.930 . S
H1321 C1334 0.930 1_565 S
H1322 C1338 0.959 . S
H1323 C1338 0.959 . S
H1324 C1338 0.961 . S
H1325 C1339 0.960 . S
H1326 C1339 0.961 1_455 S
H1327 C1339 0.959 . S
H1328 C1342 0.929 . S
H1329 C1343 0.931 . S
H1330 C1345 0.930 . S
C1331 H1319 0.930 . S
C1331 C1332 1.399 . S
C1331 C1336 1.399 . S
C1332 C1331 1.399 . S
C1332 C1333 1.376 . S
C1333 H1320 0.930 . S
C1333 C1332 1.376 . S
C1333 C1334 1.388 . S
C1334 H1321 0.930 1_545 S
C1334 C1333 1.388 . S
C1334 C1335 1.390 . S
C1335 C1334 1.390 . S
C1335 C1336 1.394 . S
C1335 C1341 1.465 1_645 S
C1336 C1331 1.399 . S
C1336 C1335 1.394 . S
C1336 C1337 1.516 1_655 S
C1337 C1336 1.516 1_455 S
C1337 C1338 1.502 . S
C1337 C1339 1.561 1_445 S
C1337 C1340 1.526 1_545 S
C1338 H1322 0.959 . S
C1338 H1323 0.959 . S
C1338 H1324 0.961 . S
C1338 C1337 1.502 . S
C1339 H1325 0.960 . S
C1339 H1326 0.961 1_655 S
C1339 H1327 0.959 . S
C1339 C1337 1.561 1_665 S
C1340 C1337 1.526 1_565 S
C1340 C1341 1.396 . S
C1340 C1345 1.390 . S
C1341 C1335 1.465 1_465 S
C1341 C1340 1.396 . S
C1341 C1342 1.399 . S
C1342 H1328 0.929 . S
C1342 C1341 1.399 . S
C1342 C1343 1.385 . S
C1343 H1329 0.931 . S
C1343 C1342 1.385 . S
C1343 C1344 1.389 . S
C1344 C1343 1.389 . S
C1344 C1345 1.387 . S
C1345 H1330 0.930 . S
C1345 C1340 1.390 . S
C1345 C1344 1.387 . S
H1346 C1358 0.930 . S
H1347 C1360 0.930 . S
H1348 C1361 0.930 . S
H1349 C1365 0.959 . S
H1350 C1365 0.959 . S
H1351 C1365 0.961 . S
H1352 C1366 0.960 . S
H1353 C1366 0.961 . S
H1354 C1366 0.959 . S
H1355 C1369 0.929 . S
H1356 C1370 0.931 . S
H1357 C1372 0.930 . S
C1358 H1346 0.930 . S
C1358 C1359 1.399 . S
C1358 C1363 1.399 . S
C1359 C1358 1.399 . S
C1359 C1360 1.376 . S
C1360 H1347 0.930 . S
C1360 C1359 1.376 . S
C1360 C1361 1.388 . S
C1361 H1348 0.930 . S
C1361 C1360 1.388 . S
C1361 C1362 1.390 . S
C1362 C1361 1.390 . S
C1362 C1363 1.394 . S
C1362 C1368 1.465 . S
C1363 C1358 1.399 . S
C1363 C1362 1.394 . S
C1363 C1364 1.516 . S
C1364 C1363 1.516 . S
C1364 C1365 1.502 . S
C1364 C1366 1.561 . S
C1364 C1367 1.526 . S
C1365 H1349 0.959 . S
C1365 H1350 0.959 . S
C1365 H1351 0.961 . S
C1365 C1364 1.502 . S
C1366 H1352 0.960 . S
C1366 H1353 0.961 . S
C1366 H1354 0.959 . S
C1366 C1364 1.561 . S
C1367 C1364 1.526 . S
C1367 C1368 1.396 . S
C1367 C1372 1.390 . S
C1368 C1362 1.465 . S
C1368 C1367 1.396 . S
C1368 C1369 1.399 . S
C1369 H1355 0.929 . S
C1369 C1368 1.399 . S
C1369 C1370 1.385 . S
C1370 H1356 0.931 . S
C1370 C1369 1.385 . S
C1370 C1371 1.389 . S
C1371 C1370 1.389 . S
C1371 C1372 1.387 . S
C1372 H1357 0.930 . S
C1372 C1367 1.390 . S
C1372 C1371 1.387 . S
H1373 C1385 0.930 . S
H1374 C1387 0.930 . S
H1375 C1388 0.930 . S
H1376 C1392 0.959 . S
H1377 C1392 0.959 . S
H1378 C1392 0.961 . S
H1379 C1393 0.960 . S
H1380 C1393 0.961 . S
H1381 C1393 0.959 1_545 S
H1382 C1396 0.929 . S
H1383 C1397 0.931 . S
H1384 C1399 0.930 . S
C1385 H1373 0.930 . S
C1385 C1386 1.399 . S
C1385 C1390 1.399 . S
C1386 C1385 1.399 . S
C1386 C1387 1.376 . S
C1387 H1374 0.930 . S
C1387 C1386 1.376 . S
C1387 C1388 1.388 1_565 S
C1388 H1375 0.930 . S
C1388 C1387 1.388 1_545 S
C1388 C1389 1.390 . S
C1389 C1388 1.390 . S
C1389 C1390 1.394 1_545 S
C1389 C1395 1.465 . S
C1390 C1385 1.399 . S
C1390 C1389 1.394 1_565 S
C1390 C1391 1.516 . S
C1391 C1390 1.516 . S
C1391 C1392 1.502 . S
C1391 C1393 1.561 . S
C1391 C1394 1.526 1_565 S
C1392 H1376 0.959 . S
C1392 H1377 0.959 . S
C1392 H1378 0.961 . S
C1392 C1391 1.502 . S
C1393 H1379 0.960 . S
C1393 H1380 0.961 . S
C1393 H1381 0.959 1_565 S
C1393 C1391 1.561 . S
C1394 C1391 1.526 1_545 S
C1394 C1395 1.396 . S
C1394 C1399 1.390 . S
C1395 C1389 1.465 . S
C1395 C1394 1.396 . S
C1395 C1396 1.399 . S
C1396 H1382 0.929 . S
C1396 C1395 1.399 . S
C1396 C1397 1.385 . S
C1397 H1383 0.931 . S
C1397 C1396 1.385 . S
C1397 C1398 1.389 . S
C1398 C1397 1.389 . S
C1398 C1399 1.387 . S
C1399 H1384 0.930 . S
C1399 C1394 1.390 . S
C1399 C1398 1.387 . S
C549 C45 1.124 . S
C561 C100 1.126 . S
C576 C41 1.143 . S
C588 C161 1.082 . S
C603 C234 1.091 . S
C615 C112 1.135 . S
C630 C175 1.051 . S
C642 C228 1.061 . S
C657 C246 1.140 . S
C669 C301 1.107 . S
C684 C362 1.143 . S
C696 C242 1.082 . S
C711 C313 1.100 . S
C723 C33 1.057 . S
C738 C376 1.085 . S
C750 C27 1.055 . S
C765 C368 1.048 . S
C777 C447 1.111 . S
C792 C443 1.144 . S
C804 C295 1.092 . S
C819 C502 1.096 . S
C831 C380 1.055 . S
C846 C496 1.112 . S
C858 C309 1.146 . S
C873 C514 1.143 . S
C885 C167 1.095 . S
C900 C94 1.050 . S
C912 C510 1.087 . S
C927 C435 1.105 . S
C939 C179 1.141 . S
C954 C429 1.111 . S
C966 C108 1.143 . S
C981 C35 1.871 . S
C993 C24 1.867 . S
C1008 C91 1.871 . S
C1020 C102 1.870 1_565 S
C1035 C158 1.897 1_545 S
C1047 C169 1.899 . S
C1062 C225 1.870 . S
C1074 C236 1.867 . S
C1089 C292 1.870 1_545 S
C1101 C303 1.869 . S
C1116 C359 1.896 . S
C1128 C370 1.898 1_565 S
C1143 C437 1.871 . S
C1155 C426 1.867 . S
C1170 C493 1.894 . S
C1182 C504 1.900 . S
C1197 C508 1.339 . S
C1209 C48 1.343 . S
C1224 C39 1.350 . S
C1236 C517 1.350 . S
C1251 C115 1.338 . S
C1263 C173 1.343 . S
C1278 C441 1.312 . S
C1290 C249 1.325 . S
C1305 C240 1.339 . S
C1317 C450 1.348 . S
C1332 C374 1.342 . S
C1344 C316 1.346 . S
C1359 C383 1.285 . S
C1371 C307 1.281 . S
C1386 C182 1.330 . S
C1398 C106 1.337 . S
