# Generated by pormake.
# Topology mmt, (4)-cn, num edge types: 1
# Building blocks:
#     Node 0, Type 0, BuildingBlock: ICAMEG_clean_sbu_1, # of connection points: 4
#     Node 1, Type 0, BuildingBlock: ICAMEG_clean_sbu_1, # of connection points: 4
#     Node 2, Type 0, BuildingBlock: ICAMEG_clean_sbu_1, # of connection points: 4
#     Node 3, Type 0, BuildingBlock: ICAMEG_clean_sbu_1, # of connection points: 4
#     Node 4, Type 0, BuildingBlock: ICAMEG_clean_sbu_1, # of connection points: 4
#     Node 5, Type 0, BuildingBlock: ICAMEG_clean_sbu_1, # of connection points: 4
#     Node 6, Type 0, BuildingBlock: ICAMEG_clean_sbu_1, # of connection points: 4
#     Node 7, Type 0, BuildingBlock: ICAMEG_clean_sbu_1, # of connection points: 4
#     Edge 8, Type (0, 0), None
#     Edge 9, Type (0, 0), None
#     Edge 10, Type (0, 0), None
#     Edge 11, Type (0, 0), None
#     Edge 12, Type (0, 0), None
#     Edge 13, Type (0, 0), None
#     Edge 14, Type (0, 0), None
#     Edge 15, Type (0, 0), None
#     Edge 16, Type (0, 0), None
#     Edge 17, Type (0, 0), None
#     Edge 18, Type (0, 0), None
#     Edge 19, Type (0, 0), None
#     Edge 20, Type (0, 0), None
#     Edge 21, Type (0, 0), None
#     Edge 22, Type (0, 0), None
#     Edge 23, Type (0, 0), None
# Relax obj value: 0.096
# Max RMSD: 0.130
# Mean RMSD: 0.130
data_MOF--net-mmt--node1-ICAMEG_clean_sbu_1--edge1-none
_symmetry_space_group_name_H-M    P1
_symmetry_Int_Tables_number       1
_symmetry_cell_setting            triclinic
loop_
_symmetry_equiv_pos_as_xyz
'x, y, z'
_cell_length_a     11.371991
_cell_length_b     21.747295
_cell_length_c     20.335801
_cell_angle_alpha  90.013602
_cell_angle_beta   89.999903
_cell_angle_gamma 89.999456
loop_
_atom_site_label
_atom_site_type_symbol
_atom_site_fract_x
_atom_site_fract_y
_atom_site_fract_z
_atom_type_partial_charge
Co0 Co 0.21742 0.47218 0.3506 0.0
Co1 Co 0.06638 0.61116 0.35638 0.0
O2 O 0.22057 0.56384 0.35148 0.0
C3 C 0.42568 0.50097 0.25658 0.0
O4 O 0.43873 0.55517 0.284 0.0
C5 C 0.24525 0.70955 0.42099 0.0
O6 O 0.33461 0.67171 0.42585 0.0
O7 O 0.02706 0.56834 0.44308 0.0
O8 O 0.08961 0.47345 0.41672 0.0
H9 H 0.66856 0.65668 0.22196 0.0
H10 H 0.47628 0.43759 0.36571 0.0
O11 O 0.34687 0.46379 0.27916 0.0
H12 H 0.33636 0.47888 0.5893 0.0
H13 H 0.2883 0.26324 0.44953 0.0
H14 H 1.00943 0.39366 0.33134 0.0
H15 H 0.23352 0.52091 0.49439 0.0
H16 H 0.35828 0.35085 0.3892 0.0
O17 O 0.14447 0.68885 0.40076 0.0
H18 H 0.82268 0.59024 0.28258 0.0
H19 H 0.9654 0.72368 0.44726 0.0
H20 H 0.94329 0.29788 0.38009 0.0
H21 H 0.58492 0.39592 0.45915 0.0
H22 H 0.08014 0.23271 0.44108 0.0
H23 H 0.50751 0.40969 0.57192 0.0
O24 O 0.10695 0.47232 0.27362 0.0
H25 H 0.37524 0.68407 0.20228 0.0
H26 H 0.96481 0.61895 0.21313 0.0
H27 H 0.04871 0.64647 0.10821 0.0
H28 H 0.25342 0.67647 0.09986 0.0
H29 H 0.28553 0.66478 0.30747 0.0
H30 H 0.80924 0.8217 0.42208 0.0
H31 H 0.69753 0.76903 0.30777 0.0
O32 O 0.98132 0.54176 0.30881 0.0
C33 C 0.03422 0.50961 0.45402 0.0
C34 C 0.71857 0.67839 0.25983 0.0
C35 C 0.80696 0.78152 0.38993 0.0
N36 N 0.90951 0.65725 0.36018 0.0
C37 C 0.82462 0.63617 0.29997 0.0
C38 C 0.90512 0.71862 0.40663 0.0
C39 C 0.67887 0.75149 0.28399 0.0
C40 C 0.44272 0.44643 0.4141 0.0
N41 N 0.33354 0.47143 0.42314 0.0
C42 C 0.50423 0.42113 0.46719 0.0
C43 C 0.46094 0.42889 0.5305 0.0
C44 C 0.36304 0.46603 0.54015 0.0
C45 C 0.30262 0.48867 0.48555 0.0
C46 C 0.22634 0.29321 0.42531 0.0
C47 C 0.07476 0.36481 0.35384 0.0
C48 C 0.26617 0.34483 0.39125 0.0
N49 N 0.19069 0.38289 0.35858 0.0
C50 C 0.03377 0.31129 0.38381 0.0
C51 C 0.10967 0.27582 0.42054 0.0
C52 C 1.01061 0.50085 0.26715 0.0
C53 C 0.28278 0.67265 0.20463 0.0
C54 C 0.05057 0.63829 0.21389 0.0
C55 C 0.0998 0.65082 0.15247 0.0
C56 C 0.21628 0.6677 0.14775 0.0
N57 N 0.1136 0.64594 0.27074 0.0
C58 C 0.22919 0.66335 0.26541 0.0
Co59 Co 0.30922 0.01406 0.34803 0.0
Co60 Co 0.45451 0.87249 0.36268 0.0
O61 O 0.30298 0.92224 0.35618 0.0
C62 C 0.10305 0.98236 0.25455 0.0
O63 O 0.0892 0.92924 0.28393 0.0
C64 C 0.26766 0.77889 0.42315 0.0
O65 O 0.17713 0.81625 0.42071 0.0
O66 O 0.4984 0.92145 0.44478 0.0
O67 O 0.43215 0.01557 0.41724 0.0
H68 H 0.89625 0.85978 0.26173 0.0
H69 H 0.04959 0.05522 0.35818 0.0
O70 O 0.18407 0.01902 0.27438 0.0
H71 H 0.18284 0.02607 0.58521 0.0
H72 H 0.19238 0.23138 0.3107 0.0
H73 H 0.52079 0.09437 0.36024 0.0
H74 H 0.28607 0.97719 0.49436 0.0
H75 H 0.16117 0.123 0.32076 0.0
O76 O 0.3732 0.80055 0.41501 0.0
H77 H 0.71829 0.9101 0.32561 0.0
H78 H 0.53244 0.7383 0.42278 0.0
H79 H 0.5553 0.20504 0.35706 0.0
H80 H 0.94295 0.10549 0.4471 0.0
H81 H 0.39443 0.27264 0.31887 0.0
H82 H 1.01112 0.09293 0.56224 0.0
O83 O 0.42354 0.01096 0.27464 0.0
H84 H 0.14691 0.80922 0.20404 0.0
H85 H 0.5675 0.84038 0.23514 0.0
H86 H 0.4943 0.81081 0.12445 0.0
H87 H 0.28099 0.80096 0.10698 0.0
H88 H 0.22465 0.82902 0.31032 0.0
H89 H 0.70369 0.65207 0.39351 0.0
H90 H 0.85014 0.72911 0.30922 0.0
O91 O 0.5379 0.93484 0.30478 0.0
C92 C 0.48905 0.98023 0.45482 0.0
C93 C 0.83739 0.82953 0.28789 0.0
C94 C 0.71221 0.69799 0.37326 0.0
N95 N 0.61268 0.82565 0.36898 0.0
C96 C 0.71526 0.86098 0.32723 0.0
C97 C 0.60657 0.75492 0.39573 0.0
C98 C 0.87398 0.75194 0.29406 0.0
C99 C 0.08581 0.05233 0.40684 0.0
N100 N 0.19051 0.02324 0.41865 0.0
C101 C 0.02254 0.0801 0.45768 0.0
C102 C 0.06014 0.07274 0.52214 0.0
C103 C 0.15716 0.03576 0.53499 0.0
C104 C 0.21862 0.00962 0.48255 0.0
C105 C 0.26534 0.20202 0.322 0.0
C106 C 0.44633 0.12423 0.35238 0.0
C107 C 0.24564 0.14017 0.32975 0.0
N108 N 0.3345 0.10154 0.34408 0.0
C109 C 0.4685 0.18683 0.34789 0.0
C110 C 0.37815 0.22518 0.32872 0.0
C111 C 0.5169 0.9807 0.26812 0.0
C112 C 0.24061 0.813 0.2095 0.0
C113 C 0.478 0.82791 0.22903 0.0
C114 C 0.43568 0.81441 0.16593 0.0
C115 C 0.31554 0.80888 0.15585 0.0
N116 N 0.40463 0.83146 0.28166 0.0
C117 C 0.28686 0.82264 0.2718 0.0
Co118 Co 0.71742 0.51004 0.1196 0.0
Co119 Co 0.56638 0.37107 0.11381 0.0
O120 O 0.72057 0.41838 0.11872 0.0
C121 C 0.92568 0.48125 0.21361 0.0
O122 O 0.93873 0.42705 0.1862 0.0
C123 C 0.74526 0.27267 0.04921 0.0
O124 O 0.83461 0.31051 0.04435 0.0
O125 O 0.52706 0.41388 0.02711 0.0
O126 O 0.5896 0.50877 0.05348 0.0
H127 H 0.16856 0.32555 0.24823 0.0
H128 H 0.97627 0.54464 0.10448 0.0
O129 O 0.84687 0.51843 0.19104 0.0
H130 H 0.83634 0.50334 0.8809 0.0
H131 H 0.78828 0.71899 0.02068 0.0
H132 H 0.50942 0.58855 0.13886 0.0
H133 H 0.73352 0.46131 0.97581 0.0
H134 H 0.85827 0.63138 0.081 0.0
O135 O 0.64448 0.29337 0.06944 0.0
H136 H 0.32268 0.39199 0.18761 0.0
H137 H 0.46541 0.25854 0.02294 0.0
H138 H 0.44327 0.68434 0.09012 0.0
H139 H 0.0849 0.58631 0.01104 0.0
H140 H 0.58012 0.74952 0.02914 0.0
H141 H 1.00748 0.57253 0.89827 0.0
O142 O 0.60695 0.5099 0.19658 0.0
H143 H 0.87526 0.29818 0.26792 0.0
H144 H 0.46481 0.36326 0.25707 0.0
H145 H 0.54872 0.33575 0.36199 0.0
H146 H 0.75345 0.30579 0.37034 0.0
H147 H 0.78554 0.31745 0.16273 0.0
H148 H 0.30924 0.16052 0.04813 0.0
H149 H 0.19753 0.2132 0.16244 0.0
O150 O 0.48133 0.44046 0.16138 0.0
C151 C 0.53421 0.47261 0.01618 0.0
C152 C 0.21857 0.30384 0.21037 0.0
C153 C 0.30696 0.2007 0.08028 0.0
N154 N 0.40951 0.32497 0.11001 0.0
C155 C 0.32463 0.34606 0.17022 0.0
C156 C 0.40512 0.26359 0.06357 0.0
C157 C 0.17888 0.23074 0.18621 0.0
C158 C 0.94271 0.53579 0.05609 0.0
N159 N 0.83353 0.51079 0.04705 0.0
C160 C 1.00421 0.5611 0.00299 0.0
C161 C 0.96091 0.55334 0.93969 0.0
C162 C 0.86302 0.51619 0.93004 0.0
C163 C 0.80261 0.49355 0.98464 0.0
C164 C 0.72632 0.68902 0.0449 0.0
C165 C 0.57475 0.61741 0.11636 0.0
C166 C 0.76616 0.63739 0.07895 0.0
N167 N 0.69068 0.59933 0.11162 0.0
C168 C 0.53376 0.67093 0.0864 0.0
C169 C 0.60966 0.70641 0.04967 0.0
C170 C 0.51062 0.48137 0.20305 0.0
C171 C 0.7828 0.30959 0.26557 0.0
C172 C 0.55058 0.34393 0.25631 0.0
C173 C 0.5998 0.33141 0.31773 0.0
C174 C 0.71629 0.31455 0.32245 0.0
N175 N 0.61361 0.33628 0.19945 0.0
C176 C 0.72921 0.31888 0.20479 0.0
Co177 Co 0.80922 0.96817 0.12219 0.0
Co178 Co 0.95451 0.10974 0.10754 0.0
O179 O 0.80299 0.05999 0.11405 0.0
C180 C 0.60305 -0.00013 0.21568 0.0
O181 O 0.5892 0.053 0.1863 0.0
C182 C 0.76767 0.20333 0.04705 0.0
O183 O 0.67714 0.16597 0.0495 0.0
O184 O 0.99841 0.06077 0.02545 0.0
O185 O 0.93216 0.96666 0.05299 0.0
H186 H 0.39625 0.12245 0.20849 0.0
H187 H 0.54959 0.92701 0.11204 0.0
O188 O 0.68407 0.96321 0.19585 0.0
H189 H 0.68285 0.95617 0.88501 0.0
H190 H 0.69237 0.75085 0.1595 0.0
H191 H 0.02079 0.88785 0.10999 0.0
H192 H 0.78607 0.00505 0.97586 0.0
H193 H 0.66117 0.85923 0.14946 0.0
O194 O 0.87321 0.18167 0.05521 0.0
H195 H 0.21829 0.07212 0.14461 0.0
H196 H 0.03244 0.24392 0.04742 0.0
H197 H 0.0553 0.77718 0.11316 0.0
H198 H 0.44296 0.87675 0.02312 0.0
H199 H 0.89441 0.70958 0.15134 0.0
H200 H 0.51113 0.88931 0.90797 0.0
O201 O 0.92354 0.97127 0.19559 0.0
H202 H 0.64692 0.17303 0.26617 0.0
H203 H 0.0675 0.14185 0.23508 0.0
H204 H 0.99431 0.17143 0.34577 0.0
H205 H 0.78099 0.18129 0.36323 0.0
H206 H 0.72466 0.15321 0.15989 0.0
H207 H 0.20369 0.33015 0.07668 0.0
H208 H 0.35014 0.25311 0.16099 0.0
O209 O 0.0379 0.04739 0.16544 0.0
C210 C 0.98905 0.002 0.01541 0.0
C211 C 0.3374 0.1527 0.18232 0.0
C212 C 0.21221 0.28423 0.09694 0.0
N213 N 0.11269 0.15657 0.10123 0.0
C214 C 0.21526 0.12124 0.14299 0.0
C215 C 0.10658 0.22731 0.07448 0.0
C216 C 0.37398 0.23029 0.17614 0.0
C217 C 0.58582 0.92991 0.06338 0.0
N218 N 0.69051 0.95899 0.05157 0.0
C219 C 0.52255 0.90213 0.01254 0.0
C220 C 0.56015 0.90949 0.94808 0.0
C221 C 0.65717 0.94648 0.93523 0.0
C222 C 0.71862 0.97262 -0.01232 0.0
C223 C 0.76533 0.78021 0.1482 0.0
C224 C 0.94633 0.85799 0.11785 0.0
C225 C 0.74564 0.84206 0.14046 0.0
N226 N 0.8345 0.88069 0.12615 0.0
C227 C 0.96849 0.79539 0.12233 0.0
C228 C 0.87814 0.75705 0.14149 0.0
C229 C 0.0169 0.00153 0.2021 0.0
C230 C 0.74062 0.16925 0.26071 0.0
C231 C 0.97801 0.15432 0.24118 0.0
C232 C 0.93568 0.16783 0.30428 0.0
C233 C 0.81555 0.17336 0.31436 0.0
N234 N 0.90464 0.15077 0.18856 0.0
C235 C 0.78686 0.15959 0.19842 0.0
Co236 Co 0.80933 0.51404 0.6222 0.0
Co237 Co 0.95462 0.37249 0.60751 0.0
O238 O 0.80309 0.42223 0.61403 0.0
C239 C 0.60315 0.48236 0.71565 0.0
O240 O 0.58933 0.42922 0.68627 0.0
C241 C 0.76776 0.27887 0.54707 0.0
O242 O 0.67724 0.31625 0.54951 0.0
O243 O 0.99848 0.42143 0.52541 0.0
O244 O 0.93226 0.51554 0.55301 0.0
H245 H 0.39637 0.35988 0.70843 0.0
H246 H 0.54975 0.55526 0.612 0.0
O247 O 0.68415 0.51902 0.69583 0.0
H248 H 0.68303 0.52581 0.385 0.0
H249 H 0.69254 0.73137 0.65946 0.0
H250 H 0.02096 0.59432 0.61006 0.0
H251 H 0.78613 0.47697 0.47591 0.0
H252 H 0.66134 0.623 0.64948 0.0
O253 O 0.87331 0.30053 0.55519 0.0
H254 H 0.21841 0.41014 0.64451 0.0
H255 H 0.03253 0.23825 0.54747 0.0
H256 H 0.05549 0.70499 0.61318 0.0
H257 H 0.44325 0.60552 0.52303 0.0
H258 H 0.8946 0.77264 0.65129 0.0
H259 H 0.51142 0.59279 0.4079 0.0
O260 O 0.92361 0.51095 0.69562 0.0
H261 H 0.64706 0.30935 0.76619 0.0
H262 H 0.06762 0.34046 0.73505 0.0
H263 H 0.99446 0.31092 0.84575 0.0
H264 H 0.78115 0.30114 0.86324 0.0
H265 H 0.72478 0.32904 0.65989 0.0
H266 H 0.20379 0.15205 0.57678 0.0
H267 H 0.35027 0.22917 0.66101 0.0
O268 O 0.03802 0.43487 0.6654 0.0
C269 C 0.98913 0.48021 0.51541 0.0
C270 C 0.33752 0.32961 0.68228 0.0
C271 C 0.21233 0.19799 0.59699 0.0
N272 N 0.1128 0.32565 0.60121 0.0
C273 C 0.21538 0.36102 0.64293 0.0
C274 C 0.10668 0.25489 0.5745 0.0
C275 C 0.37411 0.25202 0.67615 0.0
C276 C 0.586 0.55233 0.56334 0.0
N277 N 0.69065 0.52319 0.55156 0.0
C278 C 0.5228 0.58009 0.51247 0.0
C279 C 0.5604 0.57262 0.44803 0.0
C280 C 0.65735 0.53557 0.43521 0.0
C281 C 0.71874 0.50946 0.48769 0.0
C282 C 0.76551 0.70201 0.64819 0.0
C283 C 0.9465 0.62419 0.6179 0.0
C284 C 0.74581 0.64015 0.64048 0.0
N285 N 0.83465 0.60151 0.62618 0.0
C286 C 0.96868 0.68679 0.62235 0.0
C287 C 0.87832 0.72516 0.64147 0.0
C288 C 0.01699 0.4807 0.7021 0.0
C289 C 0.74075 0.3131 0.76072 0.0
C290 C 0.97814 0.32798 0.74116 0.0
C291 C 0.93583 0.31451 0.80427 0.0
C292 C 0.81569 0.30902 0.81436 0.0
N293 N 0.90476 0.3315 0.68854 0.0
C294 C 0.78699 0.32269 0.69842 0.0
Co295 Co 0.7175 0.97217 0.6196 0.0
Co296 Co 0.56648 0.11116 0.61386 0.0
O297 O 0.72066 0.06384 0.61874 0.0
C298 C 0.92571 0.00097 0.71367 0.0
O299 O 0.93877 0.05517 0.68628 0.0
C300 C 0.74533 0.20953 0.54924 0.0
O301 O 0.83468 0.17169 0.54434 0.0
O302 O 0.52712 0.06834 0.52715 0.0
O303 O 0.58971 0.97345 0.55345 0.0
H304 H 0.16873 0.15681 0.74833 0.0
H305 H 0.97644 0.93767 0.60458 0.0
O306 O 0.84691 0.96379 0.69107 0.0
H307 H 0.83664 0.97855 0.38091 0.0
H308 H 0.78852 0.7632 0.52069 0.0
H309 H 0.5095 0.89366 0.6388 0.0
H310 H 0.73354 0.02061 0.47571 0.0
H311 H 0.85841 0.85086 0.58101 0.0
O312 O 0.64457 0.18885 0.5695 0.0
H313 H 0.32286 0.09032 0.68774 0.0
H314 H 0.46549 0.22361 0.52296 0.0
H315 H 0.44345 0.79782 0.59007 0.0
H316 H 0.0853 0.89598 0.51122 0.0
H317 H 0.58038 0.73263 0.52913 0.0
H318 H 1.00799 0.90955 0.39842 0.0
O319 O 0.60699 0.97233 0.69656 0.0
H320 H 0.87533 0.18421 0.76795 0.0
H321 H 0.46499 0.11892 0.75713 0.0
H322 H 0.54887 0.14652 0.86205 0.0
H323 H 0.75353 0.17664 0.87038 0.0
H324 H 0.78562 0.16482 0.66277 0.0
H325 H 0.30935 0.32165 0.5481 0.0
H326 H 0.19765 0.26909 0.66244 0.0
O327 O 0.48139 0.04178 0.6614 0.0
C328 C 0.53424 0.00961 0.5162 0.0
C329 C 0.21872 0.17849 0.71043 0.0
C330 C 0.30707 0.2815 0.58028 0.0
N331 N 0.40963 0.15726 0.61008 0.0
C332 C 0.32477 0.13624 0.67031 0.0
C333 C 0.40522 0.21859 0.56359 0.0
C334 C 0.17901 0.25157 0.68624 0.0
C335 C 0.9429 0.94644 0.55618 0.0
N336 N 0.83368 0.97137 0.54708 0.0
C337 C 1.00454 0.92112 0.50313 0.0
C338 C 0.96131 0.92875 0.4398 0.0
C339 C 0.8633 0.96579 0.43007 0.0
C340 C 0.80276 0.98847 0.48463 0.0
C341 C 0.72653 0.79317 0.5449 0.0
C342 C 0.57486 0.86479 0.61632 0.0
C343 C 0.76631 0.84482 0.57896 0.0
N344 N 0.69078 0.88289 0.6116 0.0
C345 C 0.53393 0.81125 0.58636 0.0
C346 C 0.60987 0.77576 0.54966 0.0
C347 C 0.51065 0.00086 0.70304 0.0
C348 C 0.78288 0.17276 0.7656 0.0
C349 C 0.55073 0.13829 0.75636 0.0
C350 C 0.59994 0.15088 0.81778 0.0
C351 C 0.71639 0.16782 0.82249 0.0
N352 N 0.61372 0.14596 0.6995 0.0
C353 C 0.7293 0.1634 0.70483 0.0
Co354 Co 0.30933 0.4682 0.848 0.0
Co355 Co 0.45463 0.60974 0.86269 0.0
O356 O 0.3031 0.56001 0.85617 0.0
C357 C 0.10315 0.49988 0.75454 0.0
O358 O 0.08935 0.55303 0.78391 0.0
C359 C 0.26777 0.70336 0.92315 0.0
O360 O 0.17726 0.66598 0.92071 0.0
O361 O 0.49848 0.56079 0.94479 0.0
O362 O 0.43227 0.46669 0.91718 0.0
H363 H 0.89638 0.62235 0.76177 0.0
H364 H 0.04974 0.42698 0.85821 0.0
O365 O 0.18414 0.46322 0.77437 0.0
H366 H 0.18305 0.45643 0.0852 0.0
H367 H 0.1925 0.25087 0.81076 0.0
H368 H 0.52095 0.3879 0.86012 0.0
H369 H 0.28614 0.50527 -0.00572 0.0
H370 H 0.16133 0.35925 0.82072 0.0
O371 O 0.37332 0.6817 0.91502 0.0
H372 H 0.71842 0.57208 0.82569 0.0
H373 H 0.53255 0.74397 0.92275 0.0
H374 H 0.55546 0.27723 0.85702 0.0
H375 H 0.94326 0.37672 0.94718 0.0
H376 H 0.39454 0.20959 0.81893 0.0
H377 H 0.01145 0.38944 0.0623 0.0
O378 O 0.42361 0.47129 0.77458 0.0
H379 H 0.14709 0.67296 0.70404 0.0
H380 H 0.56764 0.64176 0.73515 0.0
H381 H 0.49448 0.67134 0.62446 0.0
H382 H 0.28118 0.68118 0.60698 0.0
H383 H 0.2248 0.65322 0.81032 0.0
H384 H 0.7038 0.83018 0.89345 0.0
H385 H 0.85028 0.75306 0.80921 0.0
O386 O 0.53803 0.54737 0.8048 0.0
C387 C 0.48913 0.50202 0.95479 0.0
C388 C 0.83753 0.65262 0.78792 0.0
C389 C 0.71234 0.78423 0.87323 0.0
N390 N 0.61281 0.65658 0.869 0.0
C391 C 0.71539 0.62121 0.82727 0.0
C392 C 0.6067 0.72733 0.89572 0.0
C393 C 0.87412 0.73021 0.79406 0.0
C394 C 0.086 0.42991 0.90687 0.0
N395 N 0.19066 0.45905 0.91864 0.0
C396 C 0.02281 0.40215 0.95773 0.0
C397 C 0.06043 0.40961 0.02218 0.0
C398 C 0.15737 0.44666 0.03499 0.0
C399 C 0.21875 0.47278 0.98251 0.0
C400 C 0.26547 0.28023 0.82202 0.0
C401 C 0.44648 0.35804 0.8523 0.0
C402 C 0.24578 0.34209 0.82973 0.0
N403 N 0.33464 0.38072 0.84402 0.0
C404 C 0.46865 0.29543 0.84785 0.0
C405 C 0.37828 0.25706 0.82874 0.0
C406 C 0.51699 0.50153 0.7681 0.0
C407 C 0.24078 0.66919 0.7095 0.0
C408 C 0.47816 0.65426 0.72905 0.0
C409 C 0.43585 0.66775 0.66594 0.0
C410 C 0.31572 0.67327 0.65586 0.0
N411 N 0.40478 0.65075 0.78167 0.0
C412 C 0.28701 0.65957 0.7718 0.0
Co413 Co 0.2175 0.01005 0.85063 0.0
Co414 Co 0.06649 0.87106 0.85637 0.0
O415 O 0.22067 0.91839 0.85149 0.0
C416 C 0.42571 0.98126 0.75655 0.0
O417 O 0.43877 0.92706 0.78395 0.0
C418 C 0.24535 0.7727 0.92099 0.0
O419 O 0.33469 0.81054 0.92588 0.0
O420 O 0.02713 0.91388 0.94307 0.0
O421 O 0.0897 0.00878 0.91678 0.0
H422 H 0.66873 0.82542 0.7219 0.0
H423 H 0.47642 0.04458 0.86564 0.0
O424 O 0.3469 0.01844 0.77916 0.0
H425 H 0.33665 0.00367 0.08932 0.0
H426 H 0.28844 0.21904 0.94953 0.0
H427 H 1.00948 0.08855 0.83142 0.0
H428 H 0.23355 0.96161 -0.00549 0.0
H429 H 0.35837 0.13137 0.88924 0.0
O430 O 0.14458 0.79338 0.90072 0.0
H431 H 0.82286 0.89191 0.78249 0.0
H432 H 0.96551 0.75861 0.94726 0.0
H433 H 0.94339 0.18439 0.88013 0.0
H434 H 0.58529 0.08625 0.959 0.0
H435 H 0.08029 0.2496 0.94107 0.0
H436 H 0.50799 0.07268 0.07181 0.0
O437 O 0.10699 0.00989 0.77366 0.0
H438 H 0.37539 0.79809 0.70228 0.0
H439 H 0.965 0.86329 0.7131 0.0
H440 H 0.04891 0.83573 0.60818 0.0
H441 H 0.25361 0.80568 0.59984 0.0
H442 H 0.28565 0.81742 0.80746 0.0
H443 H 0.80936 0.66057 0.92211 0.0
H444 H 0.69766 0.71314 0.80777 0.0
O445 O 0.98139 0.94044 0.80883 0.0
C446 C 0.03424 0.97261 0.95402 0.0
C447 C 0.71872 0.80375 0.75979 0.0
C448 C 0.80708 0.70072 0.88994 0.0
N449 N 0.90964 0.82496 0.86015 0.0
C450 C 0.82478 0.84599 0.79992 0.0
C451 C 0.90524 0.76363 0.90663 0.0
C452 C 0.67902 0.73066 0.78398 0.0
C453 C 0.44289 0.03579 0.91405 0.0
N454 N 0.33367 0.01086 0.92315 0.0
C455 C 0.50453 0.06112 0.9671 0.0
C456 C 0.4613 0.05348 0.03043 0.0
C457 C 0.36331 0.01643 0.04015 0.0
C458 C 0.30275 -0.00624 -0.0144 0.0
C459 C 0.22646 0.18907 0.92532 0.0
C460 C 0.07483 0.11742 0.85389 0.0
C461 C 0.26626 0.13741 0.89127 0.0
N462 N 0.19076 0.09934 0.85862 0.0
C463 C 0.03388 0.17097 0.88384 0.0
C464 C 0.1098 0.20647 0.92055 0.0
C465 C 1.01066 0.98136 0.76719 0.0
C466 C 0.28294 0.80952 0.70462 0.0
C467 C 0.05075 0.84393 0.71386 0.0
C468 C 0.09998 0.83138 0.65245 0.0
C469 C 0.21645 0.81448 0.64773 0.0
N470 N 0.11374 0.83627 0.77072 0.0
C471 C 0.22933 0.81885 0.7654 0.0
loop_
_geom_bond_atom_site_label_1
_geom_bond_atom_site_label_2
_geom_bond_distance
_geom_bond_site_symmetry_2
_ccdc_geom_bond_type
Co0 O2 2.143 . S
Co0 O8 2.074 . S
Co0 O11 2.093 . S
Co0 O24 2.097 . S
Co0 N41 2.151 . S
Co0 N49 2.214 . S
Co1 O2 2.160 . S
Co1 O7 2.058 . S
Co1 O17 2.057 . S
Co1 O32 2.037 1_455 S
Co1 N36 2.145 1_455 S
Co1 N57 2.257 . S
O2 Co0 2.143 . S
O2 Co1 2.160 . S
C3 O4 1.278 . S
C3 O11 1.224 . S
O4 C3 1.278 . S
C5 O6 1.245 . S
C5 O17 1.232 . S
O6 C5 1.245 . S
O7 Co1 2.058 . S
O7 C33 1.269 . S
O8 Co0 2.074 . S
O8 C33 1.257 . S
H9 C34 0.930 . S
H10 C40 0.930 . S
O11 Co0 2.093 . S
O11 C3 1.224 . S
H12 C44 0.929 . S
H13 C46 0.930 . S
H14 C47 0.930 . S
H15 C45 0.929 . S
H16 C48 0.928 . S
O17 Co1 2.057 . S
O17 C5 1.232 . S
H18 C37 0.929 . S
H19 C38 0.929 . S
H20 C50 0.931 1_655 S
H21 C42 0.929 . S
H22 C51 0.930 . S
H23 C43 0.931 . S
O24 Co0 2.097 . S
O24 C52 1.214 1_455 S
H25 C53 0.929 . S
H26 C54 0.929 . S
H27 C55 0.930 1_655 S
H28 C56 0.929 . S
H29 C58 0.930 . S
H30 C35 0.930 . S
H31 C39 0.930 . S
O32 Co1 2.037 1_655 S
O32 C52 1.234 . S
C33 O7 1.269 . S
C33 O8 1.257 . S
C34 H9 0.930 . S
C34 C37 1.388 . S
C34 C39 1.418 . S
C35 H30 0.930 . S
C35 C38 1.404 . S
C35 C39 1.353 . S
N36 Co1 2.145 1_655 S
N36 C37 1.397 . S
N36 C38 1.334 . S
C37 H18 0.929 . S
C37 C34 1.388 . S
C37 N36 1.397 . S
C38 H19 0.929 . S
C38 C35 1.404 . S
C38 N36 1.334 . S
C39 H31 0.930 . S
C39 C34 1.418 . S
C39 C35 1.353 . S
C40 H10 0.930 . S
C40 N41 1.330 . S
C40 C42 1.446 . S
N41 Co0 2.151 . S
N41 C40 1.330 . S
N41 C45 1.418 . S
C42 H21 0.929 . S
C42 C40 1.446 . S
C42 C43 1.332 . S
C43 H23 0.931 . S
C43 C42 1.332 . S
C43 C44 1.267 . S
C44 H12 0.929 . S
C44 C43 1.267 . S
C44 C45 1.251 . S
C45 H15 0.929 . S
C45 N41 1.418 . S
C45 C44 1.251 . S
C46 H13 0.930 . S
C46 C48 1.406 . S
C46 C51 1.261 . S
C47 H14 0.930 . S
C47 N49 1.325 . S
C47 C50 1.357 . S
C48 H16 0.928 . S
C48 C46 1.406 . S
C48 N49 1.261 . S
N49 Co0 2.214 . S
N49 C47 1.325 . S
N49 C48 1.261 . S
C50 H20 0.931 1_455 S
C50 C47 1.357 . S
C50 C51 1.312 . S
C51 H22 0.930 . S
C51 C46 1.261 . S
C51 C50 1.312 . S
C52 O24 1.214 1_655 S
C52 O32 1.234 . S
C53 H25 0.929 . S
C53 C56 1.391 . S
C53 C58 1.391 . S
C54 H26 0.929 . S
C54 C55 1.390 1_655 S
C54 N57 1.391 1_655 S
C55 H27 0.930 1_455 S
C55 C54 1.390 1_455 S
C55 C56 1.392 . S
C56 H28 0.929 . S
C56 C53 1.391 . S
C56 C55 1.392 . S
N57 Co1 2.257 . S
N57 C54 1.391 1_455 S
N57 C58 1.388 . S
C58 H29 0.930 . S
C58 C53 1.391 . S
C58 N57 1.388 . S
Co59 O61 2.143 1_545 S
Co59 O67 2.074 . S
Co59 O70 2.093 . S
Co59 O83 2.097 . S
Co59 N100 2.151 . S
Co59 N108 2.214 . S
Co60 O61 2.160 . S
Co60 O66 2.058 . S
Co60 O76 2.057 . S
Co60 O91 2.037 . S
Co60 N95 2.145 . S
Co60 N116 2.257 . S
O61 Co59 2.143 1_565 S
O61 Co60 2.160 . S
C62 O63 1.267 1_545 S
C62 O70 1.232 . S
O63 C62 1.267 1_565 S
C64 O65 1.245 . S
C64 O76 1.232 . S
O65 C64 1.245 . S
O66 Co60 2.058 . S
O66 C92 1.269 . S
O67 Co59 2.074 . S
O67 C92 1.257 1_545 S
H68 C93 0.930 . S
H69 C99 0.930 1_565 S
O70 Co59 2.093 . S
O70 C62 1.232 . S
H71 C103 0.929 . S
H72 C105 0.930 . S
H73 C106 0.930 . S
H74 C104 0.929 . S
H75 C107 0.928 . S
O76 Co60 2.057 . S
O76 C64 1.232 . S
H77 C96 0.929 . S
H78 C97 0.929 . S
H79 C109 0.931 . S
H80 C101 0.929 1_565 S
H81 C110 0.930 . S
H82 C102 0.931 . S
O83 Co59 2.097 . S
O83 C111 1.214 . S
H84 C112 0.929 . S
H85 C113 0.929 . S
H86 C114 0.930 . S
H87 C115 0.929 . S
H88 C117 0.930 . S
H89 C94 0.930 . S
H90 C98 0.930 . S
O91 Co60 2.037 . S
O91 C111 1.234 1_565 S
C92 O66 1.269 . S
C92 O67 1.257 1_565 S
C93 H68 0.930 . S
C93 C96 1.388 . S
C93 C98 1.418 . S
C94 H89 0.930 . S
C94 C97 1.404 . S
C94 C98 1.353 . S
N95 Co60 2.145 . S
N95 C96 1.397 . S
N95 C97 1.334 . S
C96 H77 0.929 . S
C96 C93 1.388 . S
C96 N95 1.397 . S
C97 H78 0.929 . S
C97 C94 1.404 . S
C97 N95 1.334 . S
C98 H90 0.930 . S
C98 C93 1.418 . S
C98 C94 1.353 . S
C99 H69 0.930 1_545 S
C99 N100 1.330 . S
C99 C101 1.446 1_455 S
N100 Co59 2.151 . S
N100 C99 1.330 . S
N100 C104 1.418 . S
C101 H80 0.929 1_545 S
C101 C99 1.446 1_655 S
C101 C102 1.332 . S
C102 H82 0.931 . S
C102 C101 1.332 . S
C102 C103 1.267 1_655 S
C103 H71 0.929 . S
C103 C102 1.267 1_455 S
C103 C104 1.251 . S
C104 H74 0.929 . S
C104 N100 1.418 . S
C104 C103 1.251 . S
C105 H72 0.930 . S
C105 C107 1.406 . S
C105 C110 1.261 . S
C106 H73 0.930 . S
C106 N108 1.325 . S
C106 C109 1.357 . S
C107 H75 0.928 . S
C107 C105 1.406 . S
C107 N108 1.261 . S
N108 Co59 2.214 . S
N108 C106 1.325 . S
N108 C107 1.261 . S
C109 H79 0.931 . S
C109 C106 1.357 . S
C109 C110 1.312 . S
C110 H81 0.930 . S
C110 C105 1.261 . S
C110 C109 1.312 . S
C111 O83 1.214 . S
C111 O91 1.234 1_545 S
C112 H84 0.929 . S
C112 C115 1.391 . S
C112 C117 1.391 . S
C113 H85 0.929 . S
C113 C114 1.390 . S
C113 N116 1.391 . S
C114 H86 0.930 . S
C114 C113 1.390 . S
C114 C115 1.392 . S
C115 H87 0.929 . S
C115 C112 1.391 . S
C115 C114 1.392 . S
N116 Co60 2.257 . S
N116 C113 1.391 . S
N116 C117 1.388 . S
C117 H88 0.930 . S
C117 C112 1.391 . S
C117 N116 1.388 . S
Co118 O120 2.143 . S
Co118 O126 2.074 . S
Co118 O129 2.093 . S
Co118 O142 2.097 . S
Co118 N159 2.151 . S
Co118 N167 2.214 . S
Co119 O120 2.160 . S
Co119 O125 2.058 . S
Co119 O135 2.057 . S
Co119 O150 2.037 . S
Co119 N154 2.145 . S
Co119 N175 2.257 . S
O120 Co118 2.143 . S
O120 Co119 2.160 . S
C121 O122 1.278 . S
C121 O129 1.224 . S
O122 C121 1.278 . S
C123 O124 1.245 . S
C123 O135 1.232 . S
O124 C123 1.245 . S
O125 Co119 2.058 . S
O125 C151 1.269 . S
O126 Co118 2.074 . S
O126 C151 1.257 . S
H127 C152 0.930 . S
H128 C158 0.930 . S
O129 Co118 2.093 . S
O129 C121 1.224 . S
H130 C162 0.929 . S
H131 C164 0.930 . S
H132 C165 0.930 . S
H133 C163 0.929 . S
H134 C166 0.928 . S
O135 Co119 2.057 . S
O135 C123 1.232 . S
H136 C155 0.929 . S
H137 C156 0.929 . S
H138 C168 0.931 . S
H139 C160 0.929 . S
H140 C169 0.930 . S
H141 C161 0.931 . S
O142 Co118 2.097 . S
O142 C170 1.214 . S
H143 C171 0.929 . S
H144 C172 0.929 . S
H145 C173 0.930 . S
H146 C174 0.929 . S
H147 C176 0.930 . S
H148 C153 0.930 . S
H149 C157 0.930 . S
O150 Co119 2.037 . S
O150 C170 1.234 . S
C151 O125 1.269 . S
C151 O126 1.257 . S
C152 H127 0.930 . S
C152 C155 1.388 . S
C152 C157 1.418 . S
C153 H148 0.930 . S
C153 C156 1.404 . S
C153 C157 1.353 . S
N154 Co119 2.145 . S
N154 C155 1.397 . S
N154 C156 1.334 . S
C155 H136 0.929 . S
C155 C152 1.388 . S
C155 N154 1.397 . S
C156 H137 0.929 . S
C156 C153 1.404 . S
C156 N154 1.334 . S
C157 H149 0.930 . S
C157 C152 1.418 . S
C157 C153 1.353 . S
C158 H128 0.930 . S
C158 N159 1.330 . S
C158 C160 1.446 1_655 S
N159 Co118 2.151 . S
N159 C158 1.330 . S
N159 C163 1.418 1_554 S
C160 H139 0.929 . S
C160 C158 1.446 1_455 S
C160 C161 1.332 1_554 S
C161 H141 0.931 . S
C161 C160 1.332 1_556 S
C161 C162 1.267 1_455 S
C162 H130 0.929 . S
C162 C161 1.267 1_655 S
C162 C163 1.251 . S
C163 H133 0.929 . S
C163 N159 1.418 1_556 S
C163 C162 1.251 . S
C164 H131 0.930 . S
C164 C166 1.406 . S
C164 C169 1.261 . S
C165 H132 0.930 . S
C165 N167 1.325 . S
C165 C168 1.357 . S
C166 H134 0.928 . S
C166 C164 1.406 . S
C166 N167 1.261 . S
N167 Co118 2.214 . S
N167 C165 1.325 . S
N167 C166 1.261 . S
C168 H138 0.931 . S
C168 C165 1.357 . S
C168 C169 1.312 . S
C169 H140 0.930 . S
C169 C164 1.261 . S
C169 C168 1.312 . S
C170 O142 1.214 . S
C170 O150 1.234 . S
C171 H143 0.929 . S
C171 C174 1.391 . S
C171 C176 1.391 . S
C172 H144 0.929 . S
C172 C173 1.390 . S
C172 N175 1.391 . S
C173 H145 0.930 . S
C173 C172 1.390 . S
C173 C174 1.392 . S
C174 H146 0.929 . S
C174 C171 1.391 . S
C174 C173 1.392 . S
N175 Co119 2.257 . S
N175 C172 1.391 . S
N175 C176 1.388 . S
C176 H147 0.930 . S
C176 C171 1.391 . S
C176 N175 1.388 . S
Co177 O179 2.143 1_565 S
Co177 O185 2.074 . S
Co177 O188 2.093 . S
Co177 O201 2.097 . S
Co177 N218 2.151 . S
Co177 N226 2.214 . S
Co178 O179 2.160 . S
Co178 O184 2.058 . S
Co178 O194 2.057 . S
Co178 O209 2.037 1_655 S
Co178 N213 2.145 1_655 S
Co178 N234 2.257 . S
O179 Co177 2.143 1_545 S
O179 Co178 2.160 . S
C180 O181 1.267 1_565 S
C180 O188 1.232 . S
O181 C180 1.267 1_545 S
C182 O183 1.245 . S
C182 O194 1.232 . S
O183 C182 1.245 . S
O184 Co178 2.058 . S
O184 C210 1.269 . S
O185 Co177 2.074 . S
O185 C210 1.257 1_565 S
H186 C211 0.930 . S
H187 C217 0.930 1_545 S
O188 Co177 2.093 . S
O188 C180 1.232 . S
H189 C221 0.929 . S
H190 C223 0.930 . S
H191 C224 0.930 . S
H192 C222 0.929 . S
H193 C225 0.928 . S
O194 Co178 2.057 . S
O194 C182 1.232 . S
H195 C214 0.929 . S
H196 C215 0.929 . S
H197 C227 0.931 1_455 S
H198 C219 0.929 1_545 S
H199 C228 0.930 . S
H200 C220 0.931 . S
O201 Co177 2.097 . S
O201 C229 1.214 1_655 S
H202 C230 0.929 . S
H203 C231 0.929 . S
H204 C232 0.930 1_455 S
H205 C233 0.929 . S
H206 C235 0.930 . S
H207 C212 0.930 . S
H208 C216 0.930 . S
O209 Co178 2.037 1_455 S
O209 C229 1.234 1_545 S
C210 O184 1.269 . S
C210 O185 1.257 1_545 S
C211 H186 0.930 . S
C211 C214 1.388 . S
C211 C216 1.418 . S
C212 H207 0.930 . S
C212 C215 1.404 . S
C212 C216 1.353 . S
N213 Co178 2.145 1_455 S
N213 C214 1.397 . S
N213 C215 1.334 . S
C214 H195 0.929 . S
C214 C211 1.388 . S
C214 N213 1.397 . S
C215 H196 0.929 . S
C215 C212 1.404 . S
C215 N213 1.334 . S
C216 H208 0.930 . S
C216 C211 1.418 . S
C216 C212 1.353 . S
C217 H187 0.930 1_565 S
C217 N218 1.330 . S
C217 C219 1.446 . S
N218 Co177 2.151 . S
N218 C217 1.330 . S
N218 C222 1.418 1_554 S
C219 H198 0.929 1_565 S
C219 C217 1.446 . S
C219 C220 1.332 1_554 S
C220 H200 0.931 . S
C220 C219 1.332 1_556 S
C220 C221 1.267 . S
C221 H189 0.929 . S
C221 C220 1.267 . S
C221 C222 1.251 . S
C222 H192 0.929 . S
C222 N218 1.418 1_556 S
C222 C221 1.251 . S
C223 H190 0.930 . S
C223 C225 1.406 . S
C223 C228 1.261 . S
C224 H191 0.930 . S
C224 N226 1.325 . S
C224 C227 1.357 . S
C225 H193 0.928 . S
C225 C223 1.406 . S
C225 N226 1.261 . S
N226 Co177 2.214 . S
N226 C224 1.325 . S
N226 C225 1.261 . S
C227 H197 0.931 1_655 S
C227 C224 1.357 . S
C227 C228 1.312 . S
C228 H199 0.930 . S
C228 C223 1.261 . S
C228 C227 1.312 . S
C229 O201 1.214 1_455 S
C229 O209 1.234 1_565 S
C230 H202 0.929 . S
C230 C233 1.391 . S
C230 C235 1.391 . S
C231 H203 0.929 . S
C231 C232 1.390 1_455 S
C231 N234 1.391 1_455 S
C232 H204 0.930 1_655 S
C232 C231 1.390 1_655 S
C232 C233 1.392 . S
C233 H205 0.929 . S
C233 C230 1.391 . S
C233 C232 1.392 . S
N234 Co178 2.257 . S
N234 C231 1.391 1_655 S
N234 C235 1.388 . S
C235 H206 0.930 . S
C235 C230 1.391 . S
C235 N234 1.388 . S
Co236 O238 2.143 . S
Co236 O244 2.074 . S
Co236 O247 2.093 . S
Co236 O260 2.097 . S
Co236 N277 2.151 . S
Co236 N285 2.214 . S
Co237 O238 2.160 . S
Co237 O243 2.058 . S
Co237 O253 2.057 . S
Co237 O268 2.037 1_655 S
Co237 N272 2.145 1_655 S
Co237 N293 2.257 . S
O238 Co236 2.143 . S
O238 Co237 2.160 . S
C239 O240 1.278 . S
C239 O247 1.224 . S
O240 C239 1.278 . S
C241 O242 1.245 . S
C241 O253 1.232 . S
O242 C241 1.245 . S
O243 Co237 2.058 . S
O243 C269 1.269 . S
O244 Co236 2.074 . S
O244 C269 1.257 . S
H245 C270 0.930 . S
H246 C276 0.930 . S
O247 Co236 2.093 . S
O247 C239 1.224 . S
H248 C280 0.929 . S
H249 C282 0.930 . S
H250 C283 0.930 . S
H251 C281 0.929 . S
H252 C284 0.928 . S
O253 Co237 2.057 . S
O253 C241 1.232 . S
H254 C273 0.929 . S
H255 C274 0.929 . S
H256 C286 0.931 1_455 S
H257 C278 0.929 . S
H258 C287 0.930 . S
H259 C279 0.931 . S
O260 Co236 2.097 . S
O260 C288 1.214 1_655 S
H261 C289 0.929 . S
H262 C290 0.929 . S
H263 C291 0.930 1_455 S
H264 C292 0.929 . S
H265 C294 0.930 . S
H266 C271 0.930 . S
H267 C275 0.930 . S
O268 Co237 2.037 1_455 S
O268 C288 1.234 . S
C269 O243 1.269 . S
C269 O244 1.257 . S
C270 H245 0.930 . S
C270 C273 1.388 . S
C270 C275 1.418 . S
C271 H266 0.930 . S
C271 C274 1.404 . S
C271 C275 1.353 . S
N272 Co237 2.145 1_455 S
N272 C273 1.397 . S
N272 C274 1.334 . S
C273 H254 0.929 . S
C273 C270 1.388 . S
C273 N272 1.397 . S
C274 H255 0.929 . S
C274 C271 1.404 . S
C274 N272 1.334 . S
C275 H267 0.930 . S
C275 C270 1.418 . S
C275 C271 1.353 . S
C276 H246 0.930 . S
C276 N277 1.330 . S
C276 C278 1.446 . S
N277 Co236 2.151 . S
N277 C276 1.330 . S
N277 C281 1.418 . S
C278 H257 0.929 . S
C278 C276 1.446 . S
C278 C279 1.332 . S
C279 H259 0.931 . S
C279 C278 1.332 . S
C279 C280 1.267 . S
C280 H248 0.929 . S
C280 C279 1.267 . S
C280 C281 1.251 . S
C281 H251 0.929 . S
C281 N277 1.418 . S
C281 C280 1.251 . S
C282 H249 0.930 . S
C282 C284 1.406 . S
C282 C287 1.261 . S
C283 H250 0.930 . S
C283 N285 1.325 . S
C283 C286 1.357 . S
C284 H252 0.928 . S
C284 C282 1.406 . S
C284 N285 1.261 . S
N285 Co236 2.214 . S
N285 C283 1.325 . S
N285 C284 1.261 . S
C286 H256 0.931 1_655 S
C286 C283 1.357 . S
C286 C287 1.312 . S
C287 H258 0.930 . S
C287 C282 1.261 . S
C287 C286 1.312 . S
C288 O260 1.214 1_455 S
C288 O268 1.234 . S
C289 H261 0.929 . S
C289 C292 1.391 . S
C289 C294 1.391 . S
C290 H262 0.929 . S
C290 C291 1.390 1_455 S
C290 N293 1.391 1_455 S
C291 H263 0.930 1_655 S
C291 C290 1.390 1_655 S
C291 C292 1.392 . S
C292 H264 0.929 . S
C292 C289 1.391 . S
C292 C291 1.392 . S
N293 Co237 2.257 . S
N293 C290 1.391 1_655 S
N293 C294 1.388 . S
C294 H265 0.930 . S
C294 C289 1.391 . S
C294 N293 1.388 . S
Co295 O297 2.143 1_565 S
Co295 O303 2.074 . S
Co295 O306 2.093 . S
Co295 O319 2.097 . S
Co295 N336 2.151 . S
Co295 N344 2.214 . S
Co296 O297 2.160 . S
Co296 O302 2.058 . S
Co296 O312 2.057 . S
Co296 O327 2.037 . S
Co296 N331 2.145 . S
Co296 N352 2.257 . S
O297 Co295 2.143 1_545 S
O297 Co296 2.160 . S
C298 O299 1.267 1_565 S
C298 O306 1.232 . S
O299 C298 1.267 1_545 S
C300 O301 1.245 . S
C300 O312 1.232 . S
O301 C300 1.245 . S
O302 Co296 2.058 . S
O302 C328 1.269 . S
O303 Co295 2.074 . S
O303 C328 1.257 1_565 S
H304 C329 0.930 . S
H305 C335 0.930 1_545 S
O306 Co295 2.093 . S
O306 C298 1.232 . S
H307 C339 0.929 . S
H308 C341 0.930 . S
H309 C342 0.930 . S
H310 C340 0.929 . S
H311 C343 0.928 . S
O312 Co296 2.057 . S
O312 C300 1.232 . S
H313 C332 0.929 . S
H314 C333 0.929 . S
H315 C345 0.931 . S
H316 C337 0.929 1_545 S
H317 C346 0.930 . S
H318 C338 0.931 . S
O319 Co295 2.097 . S
O319 C347 1.214 . S
H320 C348 0.929 . S
H321 C349 0.929 . S
H322 C350 0.930 . S
H323 C351 0.929 . S
H324 C353 0.930 . S
H325 C330 0.930 . S
H326 C334 0.930 . S
O327 Co296 2.037 . S
O327 C347 1.234 1_545 S
C328 O302 1.269 . S
C328 O303 1.257 1_545 S
C329 H304 0.930 . S
C329 C332 1.388 . S
C329 C334 1.418 . S
C330 H325 0.930 . S
C330 C333 1.404 . S
C330 C334 1.353 . S
N331 Co296 2.145 . S
N331 C332 1.397 . S
N331 C333 1.334 . S
C332 H313 0.929 . S
C332 C329 1.388 . S
C332 N331 1.397 . S
C333 H314 0.929 . S
C333 C330 1.404 . S
C333 N331 1.334 . S
C334 H326 0.930 . S
C334 C329 1.418 . S
C334 C330 1.353 . S
C335 H305 0.930 1_565 S
C335 N336 1.330 . S
C335 C337 1.446 1_655 S
N336 Co295 2.151 . S
N336 C335 1.330 . S
N336 C340 1.418 . S
C337 H316 0.929 1_565 S
C337 C335 1.446 1_455 S
C337 C338 1.332 . S
C338 H318 0.931 . S
C338 C337 1.332 . S
C338 C339 1.267 1_455 S
C339 H307 0.929 . S
C339 C338 1.267 1_655 S
C339 C340 1.251 . S
C340 H310 0.929 . S
C340 N336 1.418 . S
C340 C339 1.251 . S
C341 H308 0.930 . S
C341 C343 1.406 . S
C341 C346 1.261 . S
C342 H309 0.930 . S
C342 N344 1.325 . S
C342 C345 1.357 . S
C343 H311 0.928 . S
C343 C341 1.406 . S
C343 N344 1.261 . S
N344 Co295 2.214 . S
N344 C342 1.325 . S
N344 C343 1.261 . S
C345 H315 0.931 . S
C345 C342 1.357 . S
C345 C346 1.312 . S
C346 H317 0.930 . S
C346 C341 1.261 . S
C346 C345 1.312 . S
C347 O319 1.214 . S
C347 O327 1.234 1_565 S
C348 H320 0.929 . S
C348 C351 1.391 . S
C348 C353 1.391 . S
C349 H321 0.929 . S
C349 C350 1.390 . S
C349 N352 1.391 . S
C350 H322 0.930 . S
C350 C349 1.390 . S
C350 C351 1.392 . S
C351 H323 0.929 . S
C351 C348 1.391 . S
C351 C350 1.392 . S
N352 Co296 2.257 . S
N352 C349 1.391 . S
N352 C353 1.388 . S
C353 H324 0.930 . S
C353 C348 1.391 . S
C353 N352 1.388 . S
Co354 O356 2.143 . S
Co354 O362 2.074 . S
Co354 O365 2.093 . S
Co354 O378 2.097 . S
Co354 N395 2.151 . S
Co354 N403 2.214 . S
Co355 O356 2.160 . S
Co355 O361 2.058 . S
Co355 O371 2.057 . S
Co355 O386 2.037 . S
Co355 N390 2.145 . S
Co355 N411 2.257 . S
O356 Co354 2.143 . S
O356 Co355 2.160 . S
C357 O358 1.278 . S
C357 O365 1.224 . S
O358 C357 1.278 . S
C359 O360 1.245 . S
C359 O371 1.232 . S
O360 C359 1.245 . S
O361 Co355 2.058 . S
O361 C387 1.269 . S
O362 Co354 2.074 . S
O362 C387 1.257 . S
H363 C388 0.930 . S
H364 C394 0.930 . S
O365 Co354 2.093 . S
O365 C357 1.224 . S
H366 C398 0.929 . S
H367 C400 0.930 . S
H368 C401 0.930 . S
H369 C399 0.929 . S
H370 C402 0.928 . S
O371 Co355 2.057 . S
O371 C359 1.232 . S
H372 C391 0.929 . S
H373 C392 0.929 . S
H374 C404 0.931 . S
H375 C396 0.929 . S
H376 C405 0.930 . S
H377 C397 0.931 . S
O378 Co354 2.097 . S
O378 C406 1.214 . S
H379 C407 0.929 . S
H380 C408 0.929 . S
H381 C409 0.930 . S
H382 C410 0.929 . S
H383 C412 0.930 . S
H384 C389 0.930 . S
H385 C393 0.930 . S
O386 Co355 2.037 . S
O386 C406 1.234 . S
C387 O361 1.269 . S
C387 O362 1.257 . S
C388 H363 0.930 . S
C388 C391 1.388 . S
C388 C393 1.418 . S
C389 H384 0.930 . S
C389 C392 1.404 . S
C389 C393 1.353 . S
N390 Co355 2.145 . S
N390 C391 1.397 . S
N390 C392 1.334 . S
C391 H372 0.929 . S
C391 C388 1.388 . S
C391 N390 1.397 . S
C392 H373 0.929 . S
C392 C389 1.404 . S
C392 N390 1.334 . S
C393 H385 0.930 . S
C393 C388 1.418 . S
C393 C389 1.353 . S
C394 H364 0.930 . S
C394 N395 1.330 . S
C394 C396 1.446 1_455 S
N395 Co354 2.151 . S
N395 C394 1.330 . S
N395 C399 1.418 1_556 S
C396 H375 0.929 . S
C396 C394 1.446 1_655 S
C396 C397 1.332 1_556 S
C397 H377 0.931 . S
C397 C396 1.332 1_554 S
C397 C398 1.267 1_655 S
C398 H366 0.929 . S
C398 C397 1.267 1_455 S
C398 C399 1.251 . S
C399 H369 0.929 . S
C399 N395 1.418 1_554 S
C399 C398 1.251 . S
C400 H367 0.930 . S
C400 C402 1.406 . S
C400 C405 1.261 . S
C401 H368 0.930 . S
C401 N403 1.325 . S
C401 C404 1.357 . S
C402 H370 0.928 . S
C402 C400 1.406 . S
C402 N403 1.261 . S
N403 Co354 2.214 . S
N403 C401 1.325 . S
N403 C402 1.261 . S
C404 H374 0.931 . S
C404 C401 1.357 . S
C404 C405 1.312 . S
C405 H376 0.930 . S
C405 C400 1.261 . S
C405 C404 1.312 . S
C406 O378 1.214 . S
C406 O386 1.234 . S
C407 H379 0.929 . S
C407 C410 1.391 . S
C407 C412 1.391 . S
C408 H380 0.929 . S
C408 C409 1.390 . S
C408 N411 1.391 . S
C409 H381 0.930 . S
C409 C408 1.390 . S
C409 C410 1.392 . S
C410 H382 0.929 . S
C410 C407 1.391 . S
C410 C409 1.392 . S
N411 Co355 2.257 . S
N411 C408 1.391 . S
N411 C412 1.388 . S
C412 H383 0.930 . S
C412 C407 1.391 . S
C412 N411 1.388 . S
Co413 O415 2.143 1_545 S
Co413 O421 2.074 . S
Co413 O424 2.093 . S
Co413 O437 2.097 . S
Co413 N454 2.151 . S
Co413 N462 2.214 . S
Co414 O415 2.160 . S
Co414 O420 2.058 . S
Co414 O430 2.057 . S
Co414 O445 2.037 1_455 S
Co414 N449 2.145 1_455 S
Co414 N470 2.257 . S
O415 Co413 2.143 1_565 S
O415 Co414 2.160 . S
C416 O417 1.267 1_545 S
C416 O424 1.232 . S
O417 C416 1.267 1_565 S
C418 O419 1.245 . S
C418 O430 1.232 . S
O419 C418 1.245 . S
O420 Co414 2.058 . S
O420 C446 1.269 . S
O421 Co413 2.074 . S
O421 C446 1.257 1_545 S
H422 C447 0.930 . S
H423 C453 0.930 1_565 S
O424 Co413 2.093 . S
O424 C416 1.232 . S
H425 C457 0.929 . S
H426 C459 0.930 . S
H427 C460 0.930 . S
H428 C458 0.929 . S
H429 C461 0.928 . S
O430 Co414 2.057 . S
O430 C418 1.232 . S
H431 C450 0.929 . S
H432 C451 0.929 . S
H433 C463 0.931 1_655 S
H434 C455 0.929 1_565 S
H435 C464 0.930 . S
H436 C456 0.931 . S
O437 Co413 2.097 . S
O437 C465 1.214 1_455 S
H438 C466 0.929 . S
H439 C467 0.929 . S
H440 C468 0.930 1_655 S
H441 C469 0.929 . S
H442 C471 0.930 . S
H443 C448 0.930 . S
H444 C452 0.930 . S
O445 Co414 2.037 1_655 S
O445 C465 1.234 1_565 S
C446 O420 1.269 . S
C446 O421 1.257 1_565 S
C447 H422 0.930 . S
C447 C450 1.388 . S
C447 C452 1.418 . S
C448 H443 0.930 . S
C448 C451 1.404 . S
C448 C452 1.353 . S
N449 Co414 2.145 1_655 S
N449 C450 1.397 . S
N449 C451 1.334 . S
C450 H431 0.929 . S
C450 C447 1.388 . S
C450 N449 1.397 . S
C451 H432 0.929 . S
C451 C448 1.404 . S
C451 N449 1.334 . S
C452 H444 0.930 . S
C452 C447 1.418 . S
C452 C448 1.353 . S
C453 H423 0.930 1_545 S
C453 N454 1.330 . S
C453 C455 1.446 . S
N454 Co413 2.151 . S
N454 C453 1.330 . S
N454 C458 1.418 1_556 S
C455 H434 0.929 1_545 S
C455 C453 1.446 . S
C455 C456 1.332 1_556 S
C456 H436 0.931 . S
C456 C455 1.332 1_554 S
C456 C457 1.267 . S
C457 H425 0.929 . S
C457 C456 1.267 . S
C457 C458 1.251 . S
C458 H428 0.929 . S
C458 N454 1.418 1_554 S
C458 C457 1.251 . S
C459 H426 0.930 . S
C459 C461 1.406 . S
C459 C464 1.261 . S
C460 H427 0.930 . S
C460 N462 1.325 . S
C460 C463 1.357 . S
C461 H429 0.928 . S
C461 C459 1.406 . S
C461 N462 1.261 . S
N462 Co413 2.214 . S
N462 C460 1.325 . S
N462 C461 1.261 . S
C463 H433 0.931 1_455 S
C463 C460 1.357 . S
C463 C464 1.312 . S
C464 H435 0.930 . S
C464 C459 1.261 . S
C464 C463 1.312 . S
C465 O437 1.214 1_655 S
C465 O445 1.234 1_545 S
C466 H438 0.929 . S
C466 C469 1.391 . S
C466 C471 1.391 . S
C467 H439 0.929 . S
C467 C468 1.390 1_655 S
C467 N470 1.391 1_655 S
C468 H440 0.930 1_455 S
C468 C467 1.390 1_455 S
C468 C469 1.392 . S
C469 H441 0.929 . S
C469 C466 1.391 . S
C469 C468 1.392 . S
N470 Co414 2.257 . S
N470 C467 1.391 1_455 S
N470 C471 1.388 . S
C471 H442 0.930 . S
C471 C466 1.391 . S
C471 N470 1.388 . S
C3 C170 1.664 . S
C229 C62 1.663 1_565 S
C121 C52 1.664 . S
C180 C111 1.663 1_565 S
C406 C239 1.664 . S
C298 C465 1.663 1_565 S
C357 C288 1.664 . S
C416 C347 1.663 1_545 S
C33 C269 1.831 1_455 S
C92 C328 1.831 1_565 S
C151 C387 1.831 1_554 S
C446 C210 1.831 1_466 S
C5 C64 1.768 . S
C182 C123 1.768 . S
C300 C241 1.768 . S
C359 C418 1.768 . S
