# Generated by pormake.
# Topology sol, (6)-cn, num edge types: 1
# Building blocks:
#     Node 0, Type 0, BuildingBlock: IZENUY_clean_sbu_0, # of connection points: 6
#     Node 1, Type 0, BuildingBlock: IZENUY_clean_sbu_0, # of connection points: 6
#     Node 2, Type 0, BuildingBlock: IZENUY_clean_sbu_0, # of connection points: 6
#     Node 3, Type 0, BuildingBlock: IZENUY_clean_sbu_0, # of connection points: 6
#     Node 4, Type 0, BuildingBlock: IZENUY_clean_sbu_0, # of connection points: 6
#     Node 5, Type 0, BuildingBlock: IZENUY_clean_sbu_0, # of connection points: 6
#     Node 6, Type 0, BuildingBlock: IZENUY_clean_sbu_0, # of connection points: 6
#     Node 7, Type 0, BuildingBlock: IZENUY_clean_sbu_0, # of connection points: 6
#     Edge 8, Type (0, 0), BuildingBlock: TEMPAE_clean_linker_10, # of connection points: 2
#     Edge 9, Type (0, 0), BuildingBlock: TEMPAE_clean_linker_10, # of connection points: 2
#     Edge 10, Type (0, 0), BuildingBlock: TEMPAE_clean_linker_10, # of connection points: 2
#     Edge 11, Type (0, 0), BuildingBlock: TEMPAE_clean_linker_10, # of connection points: 2
#     Edge 12, Type (0, 0), BuildingBlock: TEMPAE_clean_linker_10, # of connection points: 2
#     Edge 13, Type (0, 0), BuildingBlock: TEMPAE_clean_linker_10, # of connection points: 2
#     Edge 14, Type (0, 0), BuildingBlock: TEMPAE_clean_linker_10, # of connection points: 2
#     Edge 15, Type (0, 0), BuildingBlock: TEMPAE_clean_linker_10, # of connection points: 2
#     Edge 16, Type (0, 0), BuildingBlock: TEMPAE_clean_linker_10, # of connection points: 2
#     Edge 17, Type (0, 0), BuildingBlock: TEMPAE_clean_linker_10, # of connection points: 2
#     Edge 18, Type (0, 0), BuildingBlock: TEMPAE_clean_linker_10, # of connection points: 2
#     Edge 19, Type (0, 0), BuildingBlock: TEMPAE_clean_linker_10, # of connection points: 2
#     Edge 20, Type (0, 0), BuildingBlock: TEMPAE_clean_linker_10, # of connection points: 2
#     Edge 21, Type (0, 0), BuildingBlock: TEMPAE_clean_linker_10, # of connection points: 2
#     Edge 22, Type (0, 0), BuildingBlock: TEMPAE_clean_linker_10, # of connection points: 2
#     Edge 23, Type (0, 0), BuildingBlock: TEMPAE_clean_linker_10, # of connection points: 2
#     Edge 24, Type (0, 0), BuildingBlock: TEMPAE_clean_linker_10, # of connection points: 2
#     Edge 25, Type (0, 0), BuildingBlock: TEMPAE_clean_linker_10, # of connection points: 2
#     Edge 26, Type (0, 0), BuildingBlock: TEMPAE_clean_linker_10, # of connection points: 2
#     Edge 27, Type (0, 0), BuildingBlock: TEMPAE_clean_linker_10, # of connection points: 2
#     Edge 28, Type (0, 0), BuildingBlock: TEMPAE_clean_linker_10, # of connection points: 2
#     Edge 29, Type (0, 0), BuildingBlock: TEMPAE_clean_linker_10, # of connection points: 2
#     Edge 30, Type (0, 0), BuildingBlock: TEMPAE_clean_linker_10, # of connection points: 2
#     Edge 31, Type (0, 0), BuildingBlock: TEMPAE_clean_linker_10, # of connection points: 2
# Relax obj value: 0.163
# Max RMSD: 0.160
# Mean RMSD: 0.159
data_MOF--net-sol--node1-IZENUY_clean_sbu_0--edge1-TEMPAE_clean_linker_10
_symmetry_space_group_name_H-M    P1
_symmetry_Int_Tables_number       1
_symmetry_cell_setting            triclinic
loop_
_symmetry_equiv_pos_as_xyz
'x, y, z'
_cell_length_a     35.959975
_cell_length_b     27.63672
_cell_length_c     28.367826
_cell_angle_alpha  89.992737
_cell_angle_beta   90.028229
_cell_angle_gamma 90.09837
loop_
_atom_site_label
_atom_site_type_symbol
_atom_site_fract_x
_atom_site_fract_y
_atom_site_fract_z
_atom_type_partial_charge
Fe0 Fe 0.17116 0.13044 0.13067 0.0
Fe1 Fe 0.22565 0.19992 0.08296 0.0
O2 O 0.17966 0.17862 0.09098 0.0
Fe3 Fe 0.14232 0.20663 0.06036 0.0
O4 O 0.11973 0.22344 0.11541 0.0
O5 O 0.12575 0.15246 0.14949 0.0
O6 O 0.19106 0.16403 0.18013 0.0
C7 C 0.22325 0.18236 0.18046 0.0
C8 C 0.12215 0.10643 0.06071 0.0
O9 O 0.24151 0.18644 0.14271 0.0
C10 C 0.19524 0.20461 0.99112 0.0
O11 O 0.21524 0.09999 0.1186 0.0
O12 O 0.24105 0.1419 0.06134 0.0
O13 O 0.11442 0.15092 0.05562 0.0
O14 O 0.15018 0.09354 0.08454 0.0
C15 C 0.18754 0.28477 0.08761 0.0
O16 O 0.21884 0.21771 1.02156 0.0
O17 O 0.16261 0.19249 1.00297 0.0
C18 C 0.23792 0.10328 0.08459 0.0
O19 O 0.21288 0.2588 0.10471 0.0
O20 O 0.16338 0.26716 0.0601 0.0
C21 C 0.11137 0.19411 0.14783 0.0
Fe22 Fe 0.36223 0.34631 0.63009 0.0
Fe23 Fe 0.30621 0.27913 0.58158 0.0
O24 O 0.35275 0.29799 0.59084 0.0
Fe25 Fe 0.38981 0.26753 0.56169 0.0
O26 O 0.41026 0.24943 0.61771 0.0
O27 O 0.40602 0.32101 0.6511 0.0
O28 O 0.33997 0.31524 0.67932 0.0
C29 C 0.30746 0.29805 0.67916 0.0
C30 C 0.41366 0.36631 0.56185 0.0
O31 O 0.28978 0.29328 0.641 0.0
C32 C 0.33829 0.27324 0.49075 0.0
O33 O 0.31996 0.37985 0.61564 0.0
O34 O 0.29271 0.33752 0.55956 0.0
O35 O 0.42014 0.32135 0.55792 0.0
O36 O 0.38556 0.38096 0.58431 0.0
C37 C 0.3401 0.19171 0.58491 0.0
O38 O 0.31368 0.26143 0.52039 0.0
O39 O 0.37125 0.2829 0.50354 0.0
C40 C 0.29772 0.37664 0.5812 0.0
O41 O 0.31654 0.21954 0.60313 0.0
O42 O 0.36663 0.20822 0.5604 0.0
C43 C 0.41779 0.27791 0.65121 0.0
Fe44 Fe 0.66472 0.34436 0.91432 0.0
Fe45 Fe 0.72074 0.27889 0.96404 0.0
O46 O 0.6744 0.29832 0.95583 0.0
Fe47 Fe 0.63788 0.27038 0.98831 0.0
O48 O 0.6155 0.24951 0.93438 0.0
O49 O 0.62004 0.31889 0.89666 0.0
O50 O 0.68506 0.30976 0.86605 0.0
C51 C 0.7175 0.29253 0.8658 0.0
C52 C 0.61539 0.36939 0.98352 0.0
O53 O 0.73605 0.29022 0.90351 0.0
C54 C 0.69132 0.27863 0.05656 0.0
O55 O 0.70815 0.37741 0.92499 0.0
O56 O 0.73533 0.3381 0.98301 0.0
O57 O 0.60852 0.32489 0.99033 0.0
O58 O 0.64306 0.38225 0.95903 0.0
C59 C 0.6844 0.19276 0.96405 0.0
O60 O 0.71453 0.26378 0.02634 0.0
O61 O 0.65834 0.28894 0.04456 0.0
C62 C 0.73144 0.37574 0.95853 0.0
O63 O 0.7087 0.21888 0.94487 0.0
O64 O 0.66046 0.21077 0.99159 0.0
C65 C 0.6079 0.27601 0.89941 0.0
Fe66 Fe 0.86077 0.14239 0.40804 0.0
Fe67 Fe 0.80712 0.20075 0.4688 0.0
O68 O 0.85302 0.18354 0.45455 0.0
Fe69 Fe 0.89115 0.20794 0.48623 0.0
O70 O 0.92309 0.20787 0.43524 0.0
O71 O 0.88715 0.18705 0.37594 0.0
O72 O 0.82012 0.16134 0.3729 0.0
C73 C 0.80216 0.2008 0.37283 0.0
C74 C 0.9156 0.11558 0.47613 0.0
O75 O 0.79931 0.22531 0.41015 0.0
C76 C 0.83532 0.19419 0.55716 0.0
O77 O 0.83431 0.09571 0.43765 0.0
O78 O 0.7864 0.14248 0.45301 0.0
O79 O 0.90631 0.14823 0.50492 0.0
O80 O 0.9032 0.116 0.4342 0.0
C81 C 0.84775 0.28753 0.47786 0.0
O82 O 0.81197 0.17766 0.52817 0.0
O83 O 0.86545 0.21325 0.54267 0.0
C84 C 0.8008 0.10087 0.44987 0.0
O85 O 0.81966 0.26188 0.48744 0.0
O86 O 0.87887 0.26891 0.46919 0.0
C87 C 0.91581 0.20795 0.39142 0.0
Fe88 Fe 0.81276 0.77613 0.97421 0.0
Fe89 Fe 0.86764 0.83119 0.91244 0.0
O90 O 0.85911 0.79214 0.96047 0.0
Fe91 Fe 0.89674 0.76919 0.99402 0.0
O92 O 0.88384 0.70722 0.98119 0.0
O93 O 0.82426 0.71603 0.99624 0.0
O94 O 0.80565 0.74889 0.91621 0.0
C95 C 0.80927 0.77201 0.87805 0.0
C96 C 0.84019 0.78832 0.06321 0.0
O97 O 0.82695 0.81172 0.87767 0.0
C98 C 0.9224 0.8607 0.97907 0.0
O99 O 0.79299 0.83391 0.95522 0.0
O100 O 0.84184 0.87938 0.94052 0.0
O101 O 0.87063 0.76862 0.05058 0.0
O102 O 0.81678 0.8018 0.03274 0.0
C103 C 0.92142 0.76341 0.89897 0.0
O104 O 0.9104 0.85793 0.93717 0.0
O105 O 0.91275 0.82967 1.0093 0.0
C106 C 0.80812 0.87515 0.95216 0.0
O107 O 0.89334 0.7847 0.88246 0.0
O108 O 0.9288 0.7652 0.94284 0.0
C109 C 0.85244 0.68953 0.99044 0.0
Fe110 Fe 0.72061 0.70173 0.47311 0.0
Fe111 Fe 0.66622 0.64535 0.41114 0.0
O112 O 0.67459 0.68362 0.45984 0.0
Fe113 Fe 0.6368 0.70415 0.49458 0.0
O114 O 0.6474 0.76677 0.48087 0.0
O115 O 0.70743 0.76121 0.49534 0.0
O116 O 0.72679 0.72965 0.41527 0.0
C117 C 0.72319 0.70716 0.37677 0.0
C118 C 0.69474 0.68838 0.56256 0.0
O119 O 0.70548 0.66753 0.37558 0.0
C120 C 0.61413 0.61144 0.47956 0.0
O121 O 0.74174 0.64506 0.45358 0.0
O122 O 0.69414 0.59793 0.43677 0.0
O123 O 0.66376 0.70678 0.55039 0.0
O124 O 0.71792 0.67554 0.53163 0.0
C125 C 0.60957 0.70923 0.40096 0.0
O126 O 0.62503 0.61568 0.43721 0.0
O127 O 0.62342 0.64257 0.51004 0.0
C128 C 0.7278 0.60336 0.44819 0.0
O129 O 0.63831 0.69115 0.38291 0.0
O130 O 0.60342 0.70571 0.4449 0.0
C131 C 0.67851 0.78615 0.48864 0.0
Fe132 Fe 0.36508 0.64799 0.13631 0.0
Fe133 Fe 0.39374 0.70776 0.05317 0.0
O134 O 0.3563 0.68695 0.08836 0.0
Fe135 Fe 0.31014 0.70471 0.07607 0.0
O136 O 0.30456 0.7319 0.13419 0.0
O137 O 0.32553 0.66873 0.17238 0.0
O138 O 0.39275 0.69386 0.165 0.0
C139 C 0.42138 0.71233 0.14679 0.0
C140 C 0.30386 0.6058 0.09851 0.0
O141 O 0.42734 0.7092 0.10271 0.0
C142 C 0.33485 0.69322 0.98623 0.0
O143 O 0.4065 0.61946 0.10992 0.0
O144 O 0.40684 0.64629 0.03718 0.0
O145 O 0.28932 0.64737 0.09532 0.0
O146 O 0.33762 0.60072 0.10947 0.0
C147 C 0.35247 0.78957 0.05829 0.0
O148 O 0.36622 0.71089 0.99791 0.0
O149 O 0.31229 0.67915 1.01736 0.0
C150 C 0.41683 0.61535 0.06737 0.0
O151 O 0.38347 0.77031 0.06668 0.0
O152 O 0.32312 0.7646 0.0542 0.0
C153 C 0.30763 0.7082 0.172 0.0
Fe154 Fe 0.13376 0.77205 0.55221 0.0
Fe155 Fe 0.21634 0.77219 0.57847 0.0
O156 O 0.1711 0.79572 0.58618 0.0
Fe157 Fe 0.16306 0.84157 0.6286 0.0
O158 O 0.11662 0.82007 0.64412 0.0
O159 O 0.10993 0.75146 0.60548 0.0
O160 O 0.15313 0.71109 0.54677 0.0
C161 C 0.1755 0.68956 0.57384 0.0
C162 C 0.11591 0.87235 0.55929 0.0
O163 O 0.20071 0.71246 0.595 0.0
C164 C 0.23247 0.86737 0.58798 0.0
O165 O 0.15581 0.79079 0.49686 0.0
O166 O 0.21042 0.76031 0.51542 0.0
O167 O 0.1441 0.88263 0.58413 0.0
O168 O 0.10724 0.82863 0.55153 0.0
C169 C 0.21232 0.78402 0.67735 0.0
O170 O 0.23465 0.83064 0.56198 0.0
O171 O 0.20846 0.87051 0.62046 0.0
C172 C 0.18849 0.77841 0.48528 0.0
O173 O 0.23099 0.77975 0.63987 0.0
O174 O 0.18079 0.80408 0.67667 0.0
C175 C 0.10186 0.77873 0.63978 0.0
C176 C 0.06509 0.16855 0.20776 0.0
C177 C 0.08225 0.20611 0.1826 0.0
C178 C 0.03824 0.17814 0.24203 0.0
C179 C 0.02839 0.22664 0.25185 0.0
C180 C 0.04552 0.26493 0.22671 0.0
C181 C 0.07222 0.25417 0.19201 0.0
C182 C 0.0203 0.13611 0.26759 0.0
C183 C 0.03588 0.31703 0.23674 0.0
C184 C 0.9342 0.22832 0.30913 0.0
C185 C 0.94392 0.22431 0.35689 0.0
C186 C 0.96146 0.2341 0.27438 0.0
C187 C 0.99932 0.23601 0.28779 0.0
C188 C 1.00899 0.23704 0.33619 0.0
C189 C 0.98109 0.23113 0.37031 0.0
C190 C 0.9499 0.23312 0.2232 0.0
C191 C 0.04905 0.23968 0.35187 0.0
H192 H 0.07248 0.13128 0.20047 0.0
H193 H 0.08566 0.28331 0.17289 0.0
H194 H 0.02529 0.13928 0.30606 0.0
H195 H 0.98977 0.13665 0.26196 0.0
H196 H 0.03111 0.10056 0.25556 0.0
H197 H 0.05158 0.34256 0.21393 0.0
H198 H 1.00569 0.32303 0.23133 0.0
H199 H 0.04202 0.32561 0.27415 0.0
H200 H 0.90539 0.22421 0.29856 0.0
H201 H 0.98876 0.22873 0.4072 0.0
H202 H 0.9561 0.19694 0.20819 0.0
H203 H 0.9657 0.26023 0.20245 0.0
H204 H 0.91969 0.2402 0.21881 0.0
H205 H 0.06229 0.2038 0.3469 0.0
H206 H 0.05149 0.24978 0.38966 0.0
H207 H 0.0648 0.26626 0.33039 0.0
C208 C 0.46628 0.22259 0.68578 0.0
C209 C 0.44305 0.26312 0.68973 0.0
C210 C 0.49281 0.21231 0.72087 0.0
C211 C 0.496 0.24337 0.7604 0.0
C212 C 0.4708 0.28221 0.76596 0.0
C213 C 0.44469 0.2915 0.73066 0.0
C214 C 0.51876 0.17004 0.71419 0.0
C215 C 0.473 0.31617 0.80765 0.0
C216 C 0.55342 0.22685 0.87116 0.0
C217 C 0.5826 0.25914 0.86194 0.0
C218 C 0.52623 0.21751 0.83663 0.0
C219 C 0.5287 0.24091 0.79227 0.0
C220 C 0.56008 0.26985 0.78163 0.0
C221 C 0.58653 0.2787 0.81666 0.0
C222 C 0.49351 0.18571 0.84889 0.0
C223 C 0.56416 0.29507 0.73464 0.0
H224 H 0.46479 0.2001 0.65454 0.0
H225 H 0.42617 0.32216 0.73459 0.0
H226 H 0.54598 0.1834 0.70115 0.0
H227 H 0.52378 0.1511 0.74809 0.0
H228 H 0.50765 0.14367 0.68818 0.0
H229 H 0.44924 0.34178 0.80883 0.0
H230 H 0.47356 0.29545 0.84112 0.0
H231 H 0.49913 0.33752 0.80571 0.0
H232 H 0.55062 0.2112 0.90603 0.0
H233 H 0.6097 0.30267 0.80909 0.0
H234 H 0.48555 0.16258 0.81854 0.0
H235 H 0.46924 0.20876 0.85763 0.0
H236 H 0.49953 0.16225 0.87976 0.0
H237 H 0.55891 0.26949 0.70527 0.0
H238 H 0.59227 0.31113 0.72997 0.0
H239 H 0.5433 0.32451 0.73198 0.0
C240 C 0.93643 0.73157 0.81938 0.0
C241 C 0.94871 0.74475 0.86457 0.0
C242 C 0.9616 0.72542 0.78222 0.0
C243 C 0.99998 0.73276 0.79048 0.0
C244 C 1.01284 0.74074 0.83712 0.0
C245 C 0.98695 0.74663 0.87381 0.0
C246 C 0.94663 0.7164 0.73326 0.0
C247 C 0.05362 0.74803 0.84749 0.0
C248 C 0.06918 0.71681 0.68968 0.0
C249 C 0.07324 0.76481 0.67451 0.0
C250 C 0.0453 0.70533 0.72745 0.0
C251 C 0.02496 0.74272 0.74983 0.0
C252 C 0.0281 0.79089 0.73328 0.0
C253 C 0.05228 0.80128 0.69608 0.0
C254 C 0.04283 0.65368 0.74438 0.0
C255 C 1.00642 0.83185 0.75542 0.0
H256 H 0.90684 0.72911 0.8123 0.0
H257 H 0.99659 0.75646 0.90875 0.0
H258 H 0.94699 0.75081 0.71307 0.0
H259 H 0.96422 0.69007 0.71401 0.0
H260 H 0.91758 0.70264 0.73405 0.0
H261 H 0.05975 0.74453 0.88572 0.0
H262 H 0.07077 0.72156 0.82777 0.0
H263 H 0.06209 0.7848 0.83592 0.0
H264 H 0.08575 0.68868 0.67336 0.0
H265 H 0.05517 0.83839 0.68417 0.0
H266 H 1.01336 0.6423 0.74784 0.0
H267 H 0.05566 0.65082 0.77984 0.0
H268 H 0.0573 0.62823 0.72028 0.0
H269 H 0.97618 0.82391 0.75399 0.0
H270 H 1.01148 0.86703 0.73757 0.0
H271 H 1.0142 0.83563 0.79309 0.0
C272 C 0.58706 0.75553 0.33173 0.0
C273 C 0.57967 0.7232 0.36855 0.0
C274 C 0.56122 0.76244 0.29528 0.0
C275 C 0.5281 0.73467 0.29483 0.0
C276 C 0.52004 0.70317 0.33296 0.0
C277 C 0.54576 0.69842 0.36986 0.0
C278 C 0.57016 0.79769 0.25624 0.0
C279 C 0.48553 0.67194 0.33323 0.0
C280 C 0.44514 0.7583 0.21562 0.0
C281 C 0.45164 0.72543 0.17903 0.0
C282 C 0.47115 0.76431 0.25206 0.0
C283 C 0.50343 0.73506 0.25277 0.0
C284 C 0.51059 0.70293 0.21488 0.0
C285 C 0.48479 0.69911 0.17797 0.0
C286 C 0.46323 0.80023 0.29083 0.0
C287 C 0.54415 0.67013 0.21489 0.0
H288 H 0.61352 0.77441 0.33085 0.0
H289 H 0.54055 0.67273 0.39803 0.0
H290 H 0.57743 0.77753 0.22374 0.0
H291 H 0.54558 0.82044 0.24807 0.0
H292 H 0.59388 0.82167 0.26552 0.0
H293 H 0.48282 0.65055 0.36623 0.0
H294 H 0.46034 0.69461 0.32907 0.0
H295 H 0.48634 0.64653 0.30295 0.0
H296 H 0.41923 0.77832 0.21634 0.0
H297 H 0.48926 0.67299 0.15 0.0
H298 H 0.48846 0.82189 0.29889 0.0
H299 H 0.45533 0.78065 0.32346 0.0
H300 H 0.44024 0.82521 0.28134 0.0
H301 H 0.57 0.69168 0.21877 0.0
H302 H 0.54618 0.64827 0.18212 0.0
H303 H 0.54262 0.64511 0.24544 0.0
C304 C 0.05796 0.08374 0.03412 0.0
C305 C 0.09441 0.06953 0.04537 0.0
C306 C 0.03029 0.04952 1.02338 0.0
C307 C 0.03922 -0.00035 1.02298 0.0
C308 C 0.07615 0.98502 0.03316 0.0
C309 C 0.1032 0.02006 0.04464 0.0
C310 C 0.99123 0.06676 1.01335 0.0
C311 C 0.087 0.9323 0.03226 0.0
C312 C 0.95986 0.90889 0.03757 0.0
C313 C 0.952 0.89649 0.99065 0.0
C314 C 0.98821 0.94225 0.04863 0.0
C315 C 1.00977 0.96304 1.01198 0.0
C316 C 1.00229 0.95009 0.96461 0.0
C317 C 0.97334 0.91743 0.95451 0.0
C318 C 0.99479 0.95571 0.09953 0.0
C319 C 0.02491 0.97072 0.9245 0.0
H320 H 0.05065 0.12176 0.03494 0.0
H321 H 0.13124 0.00867 0.0532 0.0
H322 H 0.98242 0.05485 0.97771 0.0
H323 H 0.97161 0.05043 0.03903 0.0
H324 H 0.98874 0.10677 1.01534 0.0
H325 H 0.11712 0.92694 0.03926 0.0
H326 H 0.07087 0.91205 0.05914 0.0
H327 H 0.08017 0.91633 0.99743 0.0
H328 H 0.94351 0.89296 0.06568 0.0
H329 H 0.96783 0.90768 0.91816 0.0
H330 H 0.99081 -0.00478 0.1043 0.0
H331 H 0.02389 0.94738 0.1096 0.0
H332 H 0.97577 0.93625 0.1239 0.0
H333 H 0.02141 0.01056 0.92308 0.0
H334 H 0.01673 0.95531 0.88984 0.0
H335 H 0.0549 0.96347 0.93037 0.0
C336 C 0.56463 0.55241 0.45516 0.0
C337 C 0.58552 0.57425 0.49126 0.0
C338 C 0.53621 0.51898 0.4653 0.0
C339 C 0.52871 0.50621 0.5127 0.0
C340 C 0.55 0.52762 0.54931 0.0
C341 C 0.57789 0.56166 0.5382 0.0
C342 C 0.51389 0.49772 0.4252 0.0
C343 C 0.54333 0.51452 0.60027 0.0
C344 C 0.43433 0.45167 0.54472 0.0
C345 C 0.44236 0.40198 0.54642 0.0
C346 C 0.46197 0.48587 0.53325 0.0
C347 C 0.49877 0.47024 0.52389 0.0
C348 C 0.50696 0.42014 0.52516 0.0
C349 C 0.47869 0.38669 0.53602 0.0
C350 C 0.45184 0.53883 0.5315 0.0
C351 C 0.54583 0.40186 0.51588 0.0
H352 H 0.56995 0.56221 0.41878 0.0
H353 H 0.59387 0.57824 0.56631 0.0
H354 H 0.51686 0.45778 0.42489 0.0
H355 H 0.48394 0.5058 0.43021 0.0
H356 H 0.52271 0.51203 0.39035 0.0
H357 H 0.56267 0.53362 0.62453 0.0
H358 H 0.51438 0.52367 0.61031 0.0
H359 H 0.54671 0.47494 0.60525 0.0
H360 H 0.40638 0.46392 0.55255 0.0
H361 H 0.48537 0.3485 0.53756 0.0
H362 H 0.45904 0.55412 0.4965 0.0
H363 H 0.46812 0.55911 0.55823 0.0
H364 H 0.42177 0.545 0.53815 0.0
H365 H 0.5551 0.41321 0.48026 0.0
H366 H 0.54772 0.36182 0.51831 0.0
H367 H 0.56546 0.41799 0.54169 0.0
C368 C 0.45176 0.565 1.00819 0.0
C369 C 0.44573 0.57899 0.05511 0.0
C370 C 0.47967 0.53135 0.99651 0.0
C371 C 0.50265 0.5119 0.03246 0.0
C372 C 0.49694 0.52637 0.07979 0.0
C373 C 0.4684 0.55927 0.09056 0.0
C374 C 0.48439 0.51631 0.94571 0.0
C375 C 0.52111 0.50726 0.11914 0.0
C376 C 0.55146 0.39148 1.01158 0.0
C377 C 0.58741 0.40612 0.99832 0.0
C378 C 0.5237 0.42545 1.02244 0.0
C379 C 0.53205 0.47552 1.02083 0.0
C380 C 0.56846 0.49061 1.0084 0.0
C381 C 0.59559 0.4558 0.99695 0.0
C382 C 0.4852 0.40771 0.03498 0.0
C383 C 0.57872 0.54357 1.00704 0.0
H384 H 0.43438 0.58002 0.98061 0.0
H385 H 0.46434 0.57029 0.12687 0.0
H386 H 0.51298 0.52491 0.93361 0.0
H387 H 0.48066 0.47659 0.94243 0.0
H388 H 0.46424 0.53456 0.92196 0.0
H389 H 0.51407 0.52357 0.15379 0.0
H390 H 0.51795 0.46742 0.12184 0.0
H391 H 0.5508 0.51479 0.11139 0.0
H392 H 0.54462 0.35328 1.01243 0.0
H393 H 0.62323 0.46754 0.98684 0.0
H394 H 0.46455 0.42296 1.01 0.0
H395 H 0.47751 0.4204 0.07076 0.0
H396 H 0.48305 0.36762 0.03412 0.0
H397 H 0.56128 0.56261 0.98067 0.0
H398 H 0.60844 0.54938 0.99796 0.0
H399 H 0.57313 0.56047 0.04179 0.0
C400 C 0.96786 0.06037 0.45346 0.0
C401 C 0.9459 0.08137 0.48887 0.0
C402 C 0.99755 0.02937 0.46463 0.0
C403 C 1.00511 0.01809 0.51238 0.0
C404 C 0.98309 0.03923 0.54834 0.0
C405 C 0.95403 0.07099 0.53618 0.0
C406 C 0.0206 0.0083 0.42519 0.0
C407 C 0.98968 0.02741 0.59961 0.0
C408 C 0.05177 0.89707 0.5355 0.0
C409 C 0.08858 0.91049 0.54607 0.0
C410 C 0.0245 0.93171 0.52515 0.0
C411 C 0.03414 0.98134 0.52434 0.0
C412 C 0.07132 -0.00467 0.53437 0.0
C413 C 0.09803 0.95977 0.54562 0.0
C414 C 0.98517 0.91507 0.51548 0.0
C415 C 0.08287 0.04782 0.53302 0.0
H416 H 0.96221 0.06872 0.41681 0.0
H417 H 0.93726 0.08712 0.56374 0.0
H418 H 0.05058 0.01514 0.43173 0.0
H419 H 0.01665 0.96851 0.42387 0.0
H420 H 1.01308 0.02364 0.39027 0.0
H421 H 0.971 0.04805 0.62341 0.0
H422 H 0.98509 0.98817 0.60564 0.0
H423 H 0.01893 0.03542 0.60932 0.0
H424 H 0.04388 0.85921 0.53626 0.0
H425 H 0.12633 0.9705 0.55372 0.0
H426 H 0.97675 0.92584 0.47937 0.0
H427 H 0.9657 0.93277 0.5404 0.0
H428 H 0.98197 0.87523 0.51883 0.0
H429 H 0.07692 0.06325 0.4977 0.0
H430 H 0.1129 0.05277 0.54086 0.0
H431 H 0.06646 0.06884 0.55899 0.0
C432 C 0.37033 0.87468 0.07604 0.0
C433 C 0.35004 0.84152 0.04905 0.0
C434 C 0.3611 0.92394 0.07496 0.0
C435 C 0.3311 0.93937 0.04635 0.0
C436 C 0.31438 0.90685 1.01421 0.0
C437 C 0.32395 0.85804 1.0162 0.0
C438 C 0.38038 0.9582 0.1084 0.0
C439 C 0.28295 0.92214 0.98221 0.0
C440 C 0.25896 0.01969 0.10108 0.0
C441 C 0.26347 0.06274 0.07568 0.0
C442 C 0.28207 0.98013 0.09311 0.0
C443 C 0.31058 0.98371 0.05887 0.0
C444 C 0.31631 0.02756 0.03422 0.0
C445 C 0.29238 0.06665 0.04266 0.0
C446 C 0.27493 0.93386 0.12024 0.0
C447 C 0.34666 0.03287 0.99786 0.0
H448 H 0.39108 0.86175 0.10075 0.0
H449 H 0.30923 0.83226 0.99414 0.0
H450 H 0.38407 -0.00563 0.09205 0.0
H451 H 0.36304 0.96282 0.14044 0.0
H452 H 0.40798 0.94414 0.11941 0.0
H453 H 0.2776 0.89508 0.95403 0.0
H454 H 0.25716 0.92625 1.00332 0.0
H455 H 0.28907 0.95755 0.96555 0.0
H456 H 0.23681 0.01643 0.12681 0.0
H457 H 0.29618 0.10002 1.02314 0.0
H458 H 0.30061 0.92202 0.13853 0.0
H459 H 0.26668 0.90461 0.09553 0.0
H460 H 0.25258 0.93797 0.14697 0.0
H461 H 0.3718 0.01196 1.00774 0.0
H462 H 0.35459 0.07141 0.99289 0.0
H463 H 0.33653 0.01887 0.96353 0.0
C464 C 0.18635 0.6113 0.61303 0.0
C465 C 0.17865 0.63703 0.57182 0.0
C466 C 0.19819 0.56327 0.61072 0.0
C467 C 0.20367 0.54167 0.56601 0.0
C468 C 0.19274 0.56623 0.52452 0.0
C469 C 0.17982 0.61383 0.52801 0.0
C470 C 0.20839 0.53749 0.65583 0.0
C471 C 0.19863 0.54455 0.47627 0.0
C472 C 0.28931 0.464 0.56852 0.0
C473 C 0.27381 0.41775 0.57064 0.0
C474 C 0.26658 0.50456 0.5637 0.0
C475 C 0.22745 0.49842 0.56273 0.0
C476 C 0.21173 0.4515 0.56313 0.0
C477 C 0.23532 0.41137 0.56647 0.0
C478 C 0.28442 0.55409 0.56196 0.0
C479 C 0.17017 0.44377 0.56327 0.0
H480 H 0.18499 0.62958 0.64683 0.0
H481 H 0.17392 0.6342 0.4962 0.0
H482 H 0.19896 0.49926 0.65485 0.0
H483 H 0.23908 0.53746 0.65997 0.0
H484 H 0.19608 0.55539 0.68721 0.0
H485 H 0.18226 0.56376 0.44883 0.0
H486 H 0.22852 0.54727 0.4669 0.0
H487 H 0.19097 0.50567 0.47581 0.0
H488 H 0.31921 0.4684 0.5714 0.0
H489 H 0.22359 0.37525 0.56854 0.0
H490 H 0.27844 0.57387 0.59513 0.0
H491 H 0.27272 0.57559 0.53245 0.0
H492 H 0.31508 0.55206 0.55754 0.0
H493 H 0.159 0.45326 0.59853 0.0
H494 H 0.16265 0.40557 0.55555 0.0
H495 H 0.15633 0.46758 0.53716 0.0
C496 C 0.75135 0.45983 0.9407 0.0
C497 C 0.75685 0.41686 0.96588 0.0
C498 C 0.77452 0.49974 0.94773 0.0
C499 C 0.80398 0.49646 0.98069 0.0
C500 C 0.81066 0.45269 1.00497 0.0
C501 C 0.78677 0.41333 0.99751 0.0
C502 C 0.76644 0.54605 0.92122 0.0
C503 C 0.8421 0.44795 0.03994 0.0
C504 C 0.86622 0.60479 0.9668 0.0
C505 C 0.84778 0.63731 0.99641 0.0
C506 C 0.85482 0.5563 0.96467 0.0
C507 C 0.82462 0.54087 0.99296 0.0
C508 C 0.80909 0.57242 0.02684 0.0
C509 C 0.82083 0.62049 0.028 0.0
C510 C 0.87244 0.5232 0.92881 0.0
C511 C 0.77715 0.55715 0.05811 0.0
H512 H 0.72841 0.46272 0.91605 0.0
H513 H 0.7914 0.37999 1.01675 0.0
H514 H 0.75815 0.57478 0.94642 0.0
H515 H 0.79174 0.55881 0.90261 0.0
H516 H 0.7438 0.54158 0.8949 0.0
H517 H 0.84762 0.40957 0.04922 0.0
H518 H 0.86799 0.46428 0.02577 0.0
H519 H 0.83493 0.46771 0.07272 0.0
H520 H 0.88734 0.61797 0.9427 0.0
H521 H 0.80727 0.64571 0.05171 0.0
H522 H 0.85433 0.52113 0.89718 0.0
H523 H 0.87543 0.48601 0.94302 0.0
H524 H 0.90019 0.53665 0.9176 0.0
H525 H 0.75135 0.55482 0.03672 0.0
H526 H 0.77236 0.58328 0.08725 0.0
H527 H 0.78227 0.52091 0.07351 0.0
C528 C 0.74187 0.06305 0.47774 0.0
C529 C 0.7768 0.05817 0.45619 0.0
C530 C 0.71878 0.02283 0.48458 0.0
C531 C 0.73096 0.97691 0.46926 0.0
C532 C 0.76576 0.97192 0.4464 0.0
C533 C 0.78841 0.01265 0.44041 0.0
C534 C 0.68196 0.02922 0.50935 0.0
C535 C 0.77947 0.92335 0.42919 0.0
C536 C 0.70459 0.8591 0.52556 0.0
C537 C 0.68239 0.83865 0.49031 0.0
C538 C 0.71779 0.90641 0.52125 0.0
C539 C 0.70905 0.9331 0.48019 0.0
C540 C 0.68381 0.91409 0.44659 0.0
C541 C 0.67045 0.86677 0.45227 0.0
C542 C 0.74404 0.92582 0.55832 0.0
C543 C 0.67391 0.94163 0.40241 0.0
H544 H 0.73279 0.09822 0.49008 0.0
H545 H 0.81521 0.00881 0.42333 0.0
H546 H 0.65924 0.01235 0.48856 0.0
H547 H 0.68276 0.01065 0.54401 0.0
H548 H 0.67513 0.06794 0.51527 0.0
H549 H 0.80609 0.92626 0.40952 0.0
H550 H 0.78371 0.89876 0.45965 0.0
H551 H 0.75842 0.90634 0.40585 0.0
H552 H 0.71351 0.83698 0.55507 0.0
H553 H 0.65347 0.85042 0.42494 0.0
H554 H 0.73708 0.9638 0.56731 0.0
H555 H 0.77286 0.92552 0.54436 0.0
H556 H 0.74336 0.90379 0.59108 0.0
H557 H 0.66853 0.98028 0.41038 0.0
H558 H 0.64908 0.92607 0.38464 0.0
H559 H 0.69764 0.94014 0.37746 0.0
C560 C 0.68824 0.11237 1.0025 0.0
C561 C 0.68975 0.14045 0.96151 0.0
C562 C 0.70256 0.06526 1.00265 0.0
C563 C 0.71787 0.04621 0.96061 0.0
C564 C 0.71601 0.07295 0.91816 0.0
C565 C 0.70229 0.12014 0.91928 0.0
C566 C 0.70439 0.0378 0.04859 0.0
C567 C 0.73132 0.05335 0.87242 0.0
C568 C 0.80111 0.96349 0.96587 0.0
C569 C 0.78481 0.91851 0.95657 0.0
C570 C 0.77925 0.00515 0.96909 0.0
C571 C 0.74035 0.00161 0.96201 0.0
C572 C 0.72364 0.9562 0.95336 0.0
C573 C 0.74611 0.91498 0.9511 0.0
C574 C 0.79791 0.05312 0.97905 0.0
C575 C 0.68233 0.9514 0.94491 0.0
H576 H 0.67872 0.12849 0.03518 0.0
H577 H 0.7031 0.14212 0.88759 0.0
H578 H 0.69605 -0.0005 0.04355 0.0
H579 H 0.73347 0.03793 0.06171 0.0
H580 H 0.68633 0.05422 0.07603 0.0
H581 H 0.72281 0.07564 0.84166 0.0
H582 H 0.76215 0.05296 0.87404 0.0
H583 H 0.72187 0.01558 0.86666 0.0
H584 H 0.83096 0.96611 0.97066 0.0
H585 H 0.73343 0.88016 0.94378 0.0
H586 H 0.78429 0.07122 1.00938 0.0
H587 H 0.79493 0.07731 0.94807 0.0
H588 H 0.828 0.04903 0.98699 0.0
H589 H 0.66654 0.96893 0.9738 0.0
H590 H 0.67336 0.91302 0.94214 0.0
H591 H 0.67478 0.97027 0.91174 0.0
C592 C 0.7405 0.51617 0.43394 0.0
C593 C 0.75227 0.56099 0.45144 0.0
C594 C 0.76311 0.47536 0.43807 0.0
C595 C 0.79805 0.47957 0.46075 0.0
C596 C 0.81062 0.52493 0.47724 0.0
C597 C 0.78752 0.56528 0.47231 0.0
C598 C 0.749 0.42738 0.41961 0.0
C599 C 0.84769 0.53044 0.50173 0.0
C600 C 0.82195 0.36034 0.51502 0.0
C601 C 0.84361 0.3399 0.47935 0.0
C602 C 0.8099 0.40813 0.51163 0.0
C603 C 0.81928 0.43528 0.47107 0.0
C604 C 0.84403 0.41614 0.43708 0.0
C605 C 0.85624 0.36829 0.44185 0.0
C606 C 0.78416 0.42771 0.5491 0.0
C607 C 0.8546 0.44426 0.39348 0.0
H608 H 0.71347 0.51286 0.41729 0.0
H609 H 0.79674 0.59996 0.48587 0.0
H610 H 0.76998 0.41062 0.39609 0.0
H611 H 0.74432 0.40217 0.44948 0.0
H612 H 0.72251 0.43112 0.39977 0.0
H613 H 0.85537 0.56902 0.50698 0.0
H614 H 0.8465 0.51258 0.53672 0.0
H615 H 0.86998 0.51243 0.48122 0.0
H616 H 0.81276 0.33806 0.5443 0.0
H617 H 0.87302 0.35199 0.41437 0.0
H618 H 0.75532 0.42868 0.53516 0.0
H619 H 0.79201 0.46523 0.5588 0.0
H620 H 0.78435 0.40502 0.58144 0.0
H621 H 0.83102 0.44362 0.36824 0.0
H622 H 0.87932 0.4285 0.37576 0.0
H623 H 0.86046 0.48266 0.40214 0.0
C624 C 0.18427 0.36755 0.05409 0.0
C625 C 0.19128 0.33721 0.09257 0.0
C626 C 0.19614 0.41581 0.0548 0.0
C627 C 0.21467 0.43367 0.09525 0.0
C628 C 0.2181 0.40444 0.13596 0.0
C629 C 0.20668 0.35618 0.13392 0.0
C630 C 0.19227 0.44592 1.01067 0.0
C631 C 0.23695 0.42265 0.18014 0.0
C632 C 0.29576 0.51875 0.08087 0.0
C633 C 0.28019 0.56277 0.09484 0.0
C634 C 0.27411 0.47682 0.07899 0.0
C635 C 0.23623 0.47902 0.09241 0.0
C636 C 0.22011 0.52358 0.10565 0.0
C637 C 0.24231 0.56525 0.10629 0.0
C638 C 0.29208 0.42993 0.06381 0.0
C639 C 0.17997 0.52686 0.12091 0.0
H640 H 0.17231 0.35264 1.02212 0.0
H641 H 0.21154 0.33258 0.16386 0.0
H642 H 0.18382 0.48346 1.01928 0.0
H643 H 0.21958 0.44786 0.99255 0.0
H644 H 0.17166 0.43016 0.9858 0.0
H645 H 0.23175 0.39849 0.21076 0.0
H646 H 0.26741 0.42458 0.17419 0.0
H647 H 0.22724 0.45961 0.18903 0.0
H648 H 0.32497 0.51712 0.07146 0.0
H649 H 0.23035 0.59942 0.11729 0.0
H650 H 0.27566 0.41286 0.03514 0.0
H651 H 0.29261 0.40422 0.09385 0.0
H652 H 0.32104 0.43527 0.0512 0.0
H653 H 0.16156 0.50894 0.09482 0.0
H654 H 0.17076 0.56492 0.1255 0.0
H655 H 0.17635 0.50759 0.15492 0.0
C656 C 0.26999 0.92481 0.54047 0.0
C657 C 0.26069 0.90521 0.58432 0.0
C658 C 0.2913 0.96721 0.53782 0.0
C659 C 0.30393 0.98917 0.58003 0.0
C660 C 0.29833 0.96586 0.62383 0.0
C661 C 0.27612 0.92443 0.62553 0.0
C662 C 0.29651 -0.00875 0.49051 0.0
C663 C 0.31227 0.98743 0.66945 0.0
C664 C 0.36008 0.10549 0.57672 0.0
C665 C 0.33198 0.13964 0.58451 0.0
C666 C 0.35162 0.05591 0.57489 0.0
C667 C 0.31421 0.04088 0.57999 0.0
C668 C 0.28578 0.07544 0.58714 0.0
C669 C 0.2951 0.12428 0.58987 0.0
C670 C 0.38259 0.01974 0.56843 0.0
C671 C 0.24536 0.06093 0.59209 0.0
H672 H 0.25819 0.90928 0.50867 0.0
H673 H 0.26949 0.9082 0.65933 0.0
H674 H 0.27609 0.0211 0.48688 0.0
H675 H 0.32471 0.00723 0.48736 0.0
H676 H 0.2921 0.96544 0.46099 0.0
H677 H 0.3127 0.96026 0.69832 0.0
H678 H 0.34064 0.00257 0.6651 0.0
H679 H 0.29365 0.01746 0.68019 0.0
H680 H 0.38862 0.1175 0.57264 0.0
H681 H 0.27321 0.15064 0.59523 0.0
H682 H 0.37592 -0.00562 0.53931 0.0
H683 H 0.38559 -0.0022 0.60096 0.0
H684 H 0.40965 0.03754 0.56081 0.0
H685 H 0.2366 0.03868 0.56147 0.0
H686 H 0.22657 0.0927 0.59458 0.0
H687 H 0.24161 0.03863 0.62425 0.0
C688 C 0.23876 0.18964 0.92511 0.0
C689 C 0.20569 0.21062 0.94123 0.0
C690 C 0.25372 0.20192 0.881 0.0
C691 C 0.23583 0.23736 0.85298 0.0
C692 C 0.20183 0.25779 0.86866 0.0
C693 C 0.18692 0.24375 0.9125 0.0
C694 C 0.28941 0.1782 0.86521 0.0
C695 C 0.18228 0.29636 0.84034 0.0
C696 C 0.29843 0.30535 0.76681 0.0
C697 C 0.289 0.28362 0.72379 0.0
C698 C 0.28061 0.29155 0.80892 0.0
C699 C 0.25352 0.25415 0.80819 0.0
C700 C 0.24428 0.23175 0.76488 0.0
C701 C 0.26175 0.24716 0.72321 0.0
C702 C 0.29077 0.317 0.85423 0.0
C703 C 0.21648 0.19078 0.76265 0.0
H704 H 0.25346 0.16445 0.94774 0.0
H705 H 0.16185 0.26084 0.92559 0.0
H706 H 0.28626 0.16365 0.82897 0.0
H707 H 0.3121 0.20542 0.8643 0.0
H708 H 0.2979 0.14825 0.88901 0.0
H709 H 0.15529 0.30699 0.85627 0.0
H710 H 0.20029 0.32892 0.83793 0.0
H711 H 0.17721 0.28355 0.80385 0.0
H712 H 0.31936 0.33362 0.76743 0.0
H713 H 0.25466 0.22977 0.69014 0.0
H714 H 0.30336 0.29087 0.87924 0.0
H715 H 0.2654 0.3317 0.87122 0.0
H716 H 0.31076 0.34712 0.84847 0.0
H717 H 0.22601 0.16041 0.78519 0.0
H718 H 0.21243 0.17709 0.72619 0.0
H719 H 0.18923 0.20286 0.7766 0.0
C720 C 0.26752 0.23546 0.22402 0.0
C721 C 0.24119 0.19789 0.22502 0.0
C722 C 0.28567 0.25083 0.2652 0.0
C723 C 0.27798 0.22736 0.30844 0.0
C724 C 0.25152 0.1892 0.30967 0.0
C725 C 0.23305 0.17532 0.26801 0.0
C726 C 0.31272 0.2926 0.26251 0.0
C727 C 0.24284 0.16289 0.355 0.0
C728 C 0.34657 0.23692 0.41077 0.0
C729 C 0.32795 0.26907 0.44064 0.0
C730 C 0.33108 0.22373 0.36697 0.0
C731 C 0.29657 0.24386 0.35269 0.0
C732 C 0.27896 0.2786 0.38172 0.0
C733 C 0.29462 0.29025 0.42556 0.0
C734 C 0.35051 0.18621 0.33727 0.0
C735 C 0.24269 0.3019 0.36748 0.0
H736 H 0.27357 0.25346 0.19093 0.0
H737 H 0.21286 0.14617 0.26887 0.0
H738 H 0.30349 0.32221 0.28617 0.0
H739 H 0.34058 0.28092 0.2748 0.0
H740 H 0.31538 0.30724 0.22618 0.0
H741 H 0.22284 0.1327 0.3497 0.0
H742 H 0.26879 0.14812 0.3705 0.0
H743 H 0.23092 0.18848 0.38103 0.0
H744 H 0.37189 0.21972 0.42297 0.0
H745 H 0.28007 0.31475 0.44902 0.0
H746 H 0.35432 0.19971 0.30076 0.0
H747 H 0.33304 0.15314 0.33519 0.0
H748 H 0.37812 0.1762 0.35187 0.0
H749 H 0.24479 0.3169 0.33129 0.0
H750 H 0.23447 0.33144 0.39189 0.0
H751 H 0.22026 0.2743 0.36715 0.0
C752 C 0.76761 0.26304 0.32502 0.0
C753 C 0.78186 0.21597 0.32954 0.0
C754 C 0.74963 0.27801 0.28337 0.0
C755 C 0.74542 0.24501 0.24549 0.0
C756 C 0.75886 0.19711 0.25043 0.0
C757 C 0.77706 0.18332 0.29213 0.0
C758 C 0.73616 0.32955 0.27939 0.0
C759 C 0.75483 0.1606 0.21111 0.0
C760 C 0.67828 0.26447 0.14281 0.0
C761 C 0.70293 0.27765 0.10675 0.0
C762 C 0.69134 0.25578 0.18896 0.0
C763 C 0.72978 0.26107 0.1992 0.0
C764 C 0.75421 0.27745 0.16347 0.0
C765 C 0.74055 0.28519 0.11778 0.0
C766 C 0.66441 0.23823 0.22598 0.0
C767 C 0.79525 0.28434 0.17276 0.0
H768 H 0.77125 0.2886 0.35364 0.0
H769 H 0.78766 0.14677 0.29531 0.0
H770 H 0.75225 0.34871 0.2517 0.0
H771 H 0.70652 0.33022 0.26854 0.0
H772 H 0.73917 0.34975 0.31304 0.0
H773 H 0.76437 0.12396 0.2217 0.0
H774 H 0.72537 0.15817 0.19973 0.0
H775 H 0.77136 0.17243 0.18015 0.0
H776 H 0.64923 0.25839 0.13444 0.0
H777 H 0.75968 0.29593 0.09012 0.0
H778 H 0.66794 0.25908 0.2591 0.0
H779 H 0.67028 0.19974 0.23423 0.0
H780 H 0.63505 0.24127 0.21419 0.0
H781 H 0.7996 0.3065 0.2049 0.0
H782 H 0.80969 0.30214 0.14277 0.0
H783 H 0.80844 0.24865 0.17902 0.0
C784 C 0.79342 0.17517 0.62524 0.0
C785 C 0.82253 0.20285 0.6062 0.0
C786 C 0.77678 0.18778 0.66835 0.0
C787 C 0.78905 0.22963 0.69268 0.0
C788 C 0.81911 0.25694 0.6743 0.0
C789 C 0.8357 0.24299 0.63154 0.0
C790 C 0.74534 0.15709 0.68717 0.0
C791 C 0.8328 0.30208 0.69882 0.0
C792 C 0.72145 0.29122 0.77716 0.0
C793 C 0.73514 0.27639 0.82114 0.0
C794 C 0.73878 0.27642 0.73506 0.0
C795 C 0.77009 0.24531 0.73696 0.0
C796 C 0.7835 0.22948 0.78124 0.0
C797 C 0.76608 0.24546 0.82268 0.0
C798 C 0.72385 0.2945 0.68855 0.0
C799 C 0.81627 0.19557 0.78488 0.0
H800 H 0.78305 0.14417 0.60581 0.0
H801 H 0.85776 0.26506 0.61677 0.0
H802 H 0.75123 0.14602 0.72402 0.0
H803 H 0.71927 0.17849 0.68765 0.0
H804 H 0.74066 0.12407 0.66562 0.0
H805 H 0.85709 0.31855 0.68069 0.0
H806 H 0.81011 0.32921 0.70023 0.0
H807 H 0.84074 0.29367 0.7357 0.0
H808 H 0.69755 0.31502 0.77565 0.0
H809 H 0.77657 0.23323 0.85647 0.0
H810 H 0.71561 0.26347 0.66603 0.0
H811 H 0.74589 0.31468 0.66944 0.0
H812 H 0.69941 0.3186 0.69305 0.0
H813 H 0.81065 0.16205 0.76455 0.0
H814 H 0.82261 0.18549 0.82193 0.0
H815 H 0.8413 0.21277 0.76927 0.0
C816 C 0.79412 0.80752 0.12714 0.0
C817 C 0.82818 0.78681 0.11362 0.0
C818 C 0.779 0.79957 0.17222 0.0
C819 C 0.79834 0.77027 0.20502 0.0
C820 C 0.8338 0.75178 0.19272 0.0
C821 C 0.84828 0.76023 0.14726 0.0
C822 C 0.74119 0.82015 0.18364 0.0
C823 C 0.85553 0.72065 0.22662 0.0
C824 C 0.76442 0.76643 0.33304 0.0
C825 C 0.74253 0.72424 0.33322 0.0
C826 C 0.78297 0.78185 0.29183 0.0
C827 C 0.77959 0.75454 0.24969 0.0
C828 C 0.75746 0.71209 0.24971 0.0
C829 C 0.7393 0.69757 0.29123 0.0
C830 C 0.80621 0.82734 0.29336 0.0
C831 C 0.75278 0.68191 0.20567 0.0
H832 H 0.77836 0.82845 0.10175 0.0
H833 H 0.8746 0.74407 0.13745 0.0
H834 H 0.72055 0.79033 0.18569 0.0
H835 H 0.74161 0.83836 0.21847 0.0
H836 H 0.73166 0.84649 0.15663 0.0
H837 H 0.88437 0.714 0.21421 0.0
H838 H 0.85672 0.73788 0.26191 0.0
H839 H 0.84132 0.68524 0.23082 0.0
H840 H 0.76713 0.78742 0.36514 0.0
H841 H 0.72247 0.66501 0.29065 0.0
H842 H 0.79586 0.85369 0.26695 0.0
H843 H 0.83541 0.8188 0.28396 0.0
H844 H 0.80584 0.84475 0.32867 0.0
H845 H 0.74025 0.70413 0.17724 0.0
H846 H 0.73486 0.64969 0.21157 0.0
H847 H 0.78032 0.66948 0.19293 0.0
C848 C 0.76981 0.71198 0.83269 0.0
C849 C 0.79026 0.75536 0.83405 0.0
C850 C 0.75212 0.6964 0.7909 0.0
C851 C 0.75484 0.72479 0.74937 0.0
C852 C 0.77541 0.76854 0.75062 0.0
C853 C 0.7928 0.78317 0.79268 0.0
C854 C 0.7306 0.64948 0.79115 0.0
C855 C 0.77926 0.79998 0.70731 0.0
C856 C 0.74233 0.67277 0.62586 0.0
C857 C 0.70731 0.69095 0.61277 0.0
C858 C 0.75731 0.68142 0.67095 0.0
C859 C 0.73688 0.70892 0.70416 0.0
C860 C 0.70069 0.72509 0.69214 0.0
C861 C 0.68636 0.71593 0.64672 0.0
C862 C 0.79591 0.66329 0.6821 0.0
C863 C 0.67783 0.75434 0.72642 0.0
H864 H 0.7677 0.69006 0.86426 0.0
H865 H 0.80852 0.81666 0.79302 0.0
H866 H 0.70122 0.65631 0.78128 0.0
H867 H 0.74225 0.62435 0.7645 0.0
H868 H 0.73122 0.63142 0.82614 0.0
H869 H 0.79585 0.83319 0.71416 0.0
H870 H 0.79287 0.77927 0.67862 0.0
H871 H 0.75137 0.81086 0.69439 0.0
H872 H 0.7588 0.65316 0.60022 0.0
H873 H 0.65931 0.73018 0.63725 0.0
H874 H 0.79614 0.64414 0.71646 0.0
H875 H 0.81526 0.69446 0.6851 0.0
H876 H 0.80662 0.63841 0.65452 0.0
H877 H 0.67697 0.73626 0.76132 0.0
H878 H 0.64888 0.7598 0.71384 0.0
H879 H 0.69095 0.79033 0.73154 0.0
C880 C 0.25852 0.73401 0.72173 0.0
C881 C 0.2294 0.76783 0.72248 0.0
C882 C 0.27624 0.71907 0.7634 0.0
C883 C 0.26507 0.7389 0.80714 0.0
C884 C 0.23546 0.77277 0.80829 0.0
C885 C 0.21774 0.78649 0.76601 0.0
C886 C 0.30714 0.68225 0.76054 0.0
C887 C 0.22292 0.79516 0.85412 0.0
C888 C 0.28923 0.67409 0.92188 0.0
C889 C 0.32037 0.70028 0.93757 0.0
C890 C 0.27149 0.68553 0.87909 0.0
C891 C 0.28475 0.72468 0.85153 0.0
C892 C 0.31673 0.75048 0.86659 0.0
C893 C 0.3343 0.73774 0.90915 0.0
C894 C 0.23795 0.65647 0.86398 0.0
C895 C 0.3316 0.79275 0.83859 0.0
H896 H 0.26748 0.71893 0.68834 0.0
H897 H 0.19535 0.81269 0.76694 0.0
H898 H 0.33351 0.69845 0.7734 0.0
H899 H 0.30076 0.65091 0.78362 0.0
H900 H 0.31155 0.66887 0.72404 0.0
H901 H 0.19944 0.82073 0.84916 0.0
H902 H 0.21415 0.76647 0.87912 0.0
H903 H 0.24643 0.81491 0.8707 0.0
H904 H 0.2782 0.6452 0.94365 0.0
H905 H 0.35793 0.75874 0.92127 0.0
H906 H 0.24202 0.64235 0.82773 0.0
H907 H 0.21303 0.68006 0.86324 0.0
H908 H 0.23236 0.62553 0.88796 0.0
H909 H 0.33796 0.78129 0.802 0.0
H910 H 0.35715 0.80843 0.85449 0.0
H911 H 0.31014 0.82148 0.83642 0.0
C912 C 0.17775 0.76732 0.39797 0.0
C913 C 0.20132 0.77951 0.43553 0.0
C914 C 0.19215 0.76008 0.35219 0.0
C915 C 0.23085 0.7659 0.34381 0.0
C916 C 0.25414 0.78142 0.38112 0.0
C917 C 0.23918 0.78762 0.4264 0.0
C918 C 0.16636 0.74333 0.31353 0.0
C919 C 0.29537 0.78887 0.37395 0.0
C920 C 0.281 0.69 0.25175 0.0
C921 C 0.28669 0.72319 0.21494 0.0
C922 C 0.26166 0.70305 0.29284 0.0
C923 C 0.24795 0.7508 0.29795 0.0
C924 C 0.25316 0.78442 0.26074 0.0
C925 C 0.27224 0.77015 0.21958 0.0
C926 C 0.25658 0.66581 0.33132 0.0
C927 C 0.23947 0.83582 0.26493 0.0
H928 H 0.14853 0.76072 0.40487 0.0
H929 H 0.25748 0.79752 0.45525 0.0
H930 H 0.17089 0.76481 0.28099 0.0
H931 H 0.17244 0.70499 0.3049 0.0
H932 H 0.13666 0.74619 0.32392 0.0
H933 H 0.30879 0.80627 0.40492 0.0
H934 H 0.30895 0.7534 0.3678 0.0
H935 H 0.30055 0.81161 0.3424 0.0
H936 H 0.29165 0.65349 0.24848 0.0
H937 H 0.27648 0.79609 0.19142 0.0
H938 H 0.22679 0.663 0.34115 0.0
H939 H 0.27209 0.67717 0.36329 0.0
H940 H 0.26657 0.62941 0.32062 0.0
H941 H 0.20946 0.83617 0.27399 0.0
H942 H 0.24366 0.85673 0.23189 0.0
H943 H 0.25447 0.85442 0.29393 0.0
loop_
_geom_bond_atom_site_label_1
_geom_bond_atom_site_label_2
_geom_bond_distance
_geom_bond_site_symmetry_2
_ccdc_geom_bond_type
Fe0 O2 1.918 . S
Fe0 O5 1.997 . S
Fe0 O6 2.002 . S
Fe0 O11 1.976 . S
Fe0 O14 1.996 . S
Fe1 O2 1.918 . S
Fe1 O9 1.997 . S
Fe1 O12 1.996 . S
Fe1 O16 1.976 . S
Fe1 O19 2.002 . S
O2 Fe0 1.918 . S
O2 Fe1 1.918 . S
O2 Fe3 1.918 . S
Fe3 O2 1.918 . S
Fe3 O4 2.002 . S
Fe3 O13 1.976 . S
Fe3 O17 1.996 . S
Fe3 O20 1.997 . S
O4 Fe3 2.002 . S
O4 C21 1.295 . S
O5 Fe0 1.997 . S
O5 C21 1.235 . S
O6 Fe0 2.002 . S
O6 C7 1.295 . S
C7 O6 1.295 . S
C7 O9 1.235 . S
C8 O13 1.287 . S
C8 O14 1.255 . S
O9 Fe1 1.997 . S
O9 C7 1.235 . S
C10 O16 1.285 . S
C10 O17 1.254 . S
O11 Fe0 1.976 . S
O11 C18 1.287 . S
O12 Fe1 1.996 . S
O12 C18 1.255 . S
O13 Fe3 1.976 . S
O13 C8 1.287 . S
O14 Fe0 1.996 . S
O14 C8 1.255 . S
C15 O19 1.295 . S
C15 O20 1.235 . S
O16 Fe1 1.976 . S
O16 C10 1.285 . S
O17 Fe3 1.996 . S
O17 C10 1.254 . S
C18 O11 1.287 . S
C18 O12 1.255 . S
O19 Fe1 2.002 . S
O19 C15 1.295 . S
O20 Fe3 1.997 . S
O20 C15 1.235 . S
C21 O4 1.295 . S
C21 O5 1.235 . S
Fe22 O24 1.918 . S
Fe22 O27 1.997 . S
Fe22 O28 2.002 . S
Fe22 O33 1.976 . S
Fe22 O36 1.996 . S
Fe23 O24 1.918 . S
Fe23 O31 1.997 . S
Fe23 O34 1.996 . S
Fe23 O38 1.976 . S
Fe23 O41 2.002 . S
O24 Fe22 1.918 . S
O24 Fe23 1.918 . S
O24 Fe25 1.918 . S
Fe25 O24 1.918 . S
Fe25 O26 2.002 . S
Fe25 O35 1.976 . S
Fe25 O39 1.996 . S
Fe25 O42 1.997 . S
O26 Fe25 2.002 . S
O26 C43 1.295 . S
O27 Fe22 1.997 . S
O27 C43 1.235 . S
O28 Fe22 2.002 . S
O28 C29 1.295 . S
C29 O28 1.295 . S
C29 O31 1.235 . S
C30 O35 1.287 . S
C30 O36 1.255 . S
O31 Fe23 1.997 . S
O31 C29 1.235 . S
C32 O38 1.287 . S
C32 O39 1.255 . S
O33 Fe22 1.976 . S
O33 C40 1.287 . S
O34 Fe23 1.996 . S
O34 C40 1.255 . S
O35 Fe25 1.976 . S
O35 C30 1.287 . S
O36 Fe22 1.996 . S
O36 C30 1.255 . S
C37 O41 1.295 . S
C37 O42 1.235 . S
O38 Fe23 1.976 . S
O38 C32 1.287 . S
O39 Fe25 1.996 . S
O39 C32 1.255 . S
C40 O33 1.287 . S
C40 O34 1.255 . S
O41 Fe23 2.002 . S
O41 C37 1.295 . S
O42 Fe25 1.997 . S
O42 C37 1.235 . S
C43 O26 1.295 . S
C43 O27 1.235 . S
Fe44 O46 1.918 . S
Fe44 O49 1.997 . S
Fe44 O50 2.002 . S
Fe44 O55 1.976 . S
Fe44 O58 1.996 . S
Fe45 O46 1.918 . S
Fe45 O53 1.997 . S
Fe45 O56 1.996 . S
Fe45 O60 1.976 . S
Fe45 O63 2.002 . S
O46 Fe44 1.918 . S
O46 Fe45 1.918 . S
O46 Fe47 1.918 . S
Fe47 O46 1.918 . S
Fe47 O48 2.002 . S
Fe47 O57 1.976 . S
Fe47 O61 1.996 . S
Fe47 O64 1.997 . S
O48 Fe47 2.002 . S
O48 C65 1.295 . S
O49 Fe44 1.997 . S
O49 C65 1.235 . S
O50 Fe44 2.002 . S
O50 C51 1.295 . S
C51 O50 1.295 . S
C51 O53 1.235 . S
C52 O57 1.287 . S
C52 O58 1.255 . S
O53 Fe45 1.997 . S
O53 C51 1.235 . S
C54 O60 1.285 . S
C54 O61 1.254 . S
O55 Fe44 1.976 . S
O55 C62 1.287 . S
O56 Fe45 1.996 . S
O56 C62 1.255 . S
O57 Fe47 1.976 . S
O57 C52 1.287 . S
O58 Fe44 1.996 . S
O58 C52 1.255 . S
C59 O63 1.295 . S
C59 O64 1.235 . S
O60 Fe45 1.976 . S
O60 C54 1.285 . S
O61 Fe47 1.996 . S
O61 C54 1.254 . S
C62 O55 1.287 . S
C62 O56 1.255 . S
O63 Fe45 2.002 . S
O63 C59 1.295 . S
O64 Fe47 1.997 . S
O64 C59 1.235 . S
C65 O48 1.295 . S
C65 O49 1.235 . S
Fe66 O68 1.918 . S
Fe66 O71 1.997 . S
Fe66 O72 2.002 . S
Fe66 O77 1.976 . S
Fe66 O80 1.996 . S
Fe67 O68 1.918 . S
Fe67 O75 1.997 . S
Fe67 O78 1.996 . S
Fe67 O82 1.976 . S
Fe67 O85 2.002 . S
O68 Fe66 1.918 . S
O68 Fe67 1.918 . S
O68 Fe69 1.918 . S
Fe69 O68 1.918 . S
Fe69 O70 2.002 . S
Fe69 O79 1.976 . S
Fe69 O83 1.996 . S
Fe69 O86 1.997 . S
O70 Fe69 2.002 . S
O70 C87 1.295 . S
O71 Fe66 1.997 . S
O71 C87 1.235 . S
O72 Fe66 2.002 . S
O72 C73 1.295 . S
C73 O72 1.295 . S
C73 O75 1.235 . S
C74 O79 1.287 . S
C74 O80 1.255 . S
O75 Fe67 1.997 . S
O75 C73 1.235 . S
C76 O82 1.287 . S
C76 O83 1.255 . S
O77 Fe66 1.976 . S
O77 C84 1.287 . S
O78 Fe67 1.996 . S
O78 C84 1.255 . S
O79 Fe69 1.976 . S
O79 C74 1.287 . S
O80 Fe66 1.996 . S
O80 C74 1.255 . S
C81 O85 1.295 . S
C81 O86 1.235 . S
O82 Fe67 1.976 . S
O82 C76 1.287 . S
O83 Fe69 1.996 . S
O83 C76 1.255 . S
C84 O77 1.287 . S
C84 O78 1.255 . S
O85 Fe67 2.002 . S
O85 C81 1.295 . S
O86 Fe69 1.997 . S
O86 C81 1.235 . S
C87 O70 1.295 . S
C87 O71 1.235 . S
Fe88 O90 1.918 . S
Fe88 O93 1.997 . S
Fe88 O94 2.002 . S
Fe88 O99 1.976 . S
Fe88 O102 1.996 . S
Fe89 O90 1.918 . S
Fe89 O97 1.997 . S
Fe89 O100 1.996 . S
Fe89 O104 1.976 . S
Fe89 O107 2.002 . S
O90 Fe88 1.918 . S
O90 Fe89 1.918 . S
O90 Fe91 1.918 . S
Fe91 O90 1.918 . S
Fe91 O92 2.002 . S
Fe91 O101 1.976 . S
Fe91 O105 1.996 . S
Fe91 O108 1.997 . S
O92 Fe91 2.002 . S
O92 C109 1.295 . S
O93 Fe88 1.997 . S
O93 C109 1.235 . S
O94 Fe88 2.002 . S
O94 C95 1.295 . S
C95 O94 1.295 . S
C95 O97 1.235 . S
C96 O101 1.287 . S
C96 O102 1.258 . S
O97 Fe89 1.997 . S
O97 C95 1.235 . S
C98 O104 1.287 . S
C98 O105 1.255 . S
O99 Fe88 1.976 . S
O99 C106 1.287 . S
O100 Fe89 1.996 . S
O100 C106 1.255 . S
O101 Fe91 1.976 . S
O101 C96 1.287 . S
O102 Fe88 1.996 . S
O102 C96 1.258 . S
C103 O107 1.295 . S
C103 O108 1.235 . S
O104 Fe89 1.976 . S
O104 C98 1.287 . S
O105 Fe91 1.996 . S
O105 C98 1.255 . S
C106 O99 1.287 . S
C106 O100 1.255 . S
O107 Fe89 2.002 . S
O107 C103 1.295 . S
O108 Fe91 1.997 . S
O108 C103 1.235 . S
C109 O92 1.295 . S
C109 O93 1.235 . S
Fe110 O112 1.918 . S
Fe110 O115 1.997 . S
Fe110 O116 2.002 . S
Fe110 O121 1.976 . S
Fe110 O124 1.996 . S
Fe111 O112 1.918 . S
Fe111 O119 1.997 . S
Fe111 O122 1.996 . S
Fe111 O126 1.976 . S
Fe111 O129 2.002 . S
O112 Fe110 1.918 . S
O112 Fe111 1.918 . S
O112 Fe113 1.918 . S
Fe113 O112 1.918 . S
Fe113 O114 2.002 . S
Fe113 O123 1.976 . S
Fe113 O127 1.996 . S
Fe113 O130 1.997 . S
O114 Fe113 2.002 . S
O114 C131 1.295 . S
O115 Fe110 1.997 . S
O115 C131 1.235 . S
O116 Fe110 2.002 . S
O116 C117 1.295 . S
C117 O116 1.295 . S
C117 O119 1.235 . S
C118 O123 1.287 . S
C118 O124 1.255 . S
O119 Fe111 1.997 . S
O119 C117 1.235 . S
C120 O126 1.287 . S
C120 O127 1.255 . S
O121 Fe110 1.976 . S
O121 C128 1.287 . S
O122 Fe111 1.996 . S
O122 C128 1.255 . S
O123 Fe113 1.976 . S
O123 C118 1.287 . S
O124 Fe110 1.996 . S
O124 C118 1.255 . S
C125 O129 1.295 . S
C125 O130 1.235 . S
O126 Fe111 1.976 . S
O126 C120 1.287 . S
O127 Fe113 1.996 . S
O127 C120 1.255 . S
C128 O121 1.287 . S
C128 O122 1.255 . S
O129 Fe111 2.002 . S
O129 C125 1.295 . S
O130 Fe113 1.997 . S
O130 C125 1.235 . S
C131 O114 1.295 . S
C131 O115 1.235 . S
Fe132 O134 1.918 . S
Fe132 O137 1.997 . S
Fe132 O138 2.002 . S
Fe132 O143 1.976 . S
Fe132 O146 1.996 . S
Fe133 O134 1.918 . S
Fe133 O141 1.997 . S
Fe133 O144 1.996 . S
Fe133 O148 1.976 . S
Fe133 O151 2.002 . S
O134 Fe132 1.918 . S
O134 Fe133 1.918 . S
O134 Fe135 1.918 . S
Fe135 O134 1.918 . S
Fe135 O136 2.002 . S
Fe135 O145 1.976 . S
Fe135 O149 1.996 . S
Fe135 O152 1.997 . S
O136 Fe135 2.002 . S
O136 C153 1.295 . S
O137 Fe132 1.997 . S
O137 C153 1.235 . S
O138 Fe132 2.002 . S
O138 C139 1.295 . S
C139 O138 1.295 . S
C139 O141 1.235 . S
C140 O145 1.287 . S
C140 O146 1.255 . S
O141 Fe133 1.997 . S
O141 C139 1.235 . S
C142 O148 1.287 . S
C142 O149 1.258 . S
O143 Fe132 1.976 . S
O143 C150 1.287 . S
O144 Fe133 1.996 . S
O144 C150 1.255 . S
O145 Fe135 1.976 . S
O145 C140 1.287 . S
O146 Fe132 1.996 . S
O146 C140 1.255 . S
C147 O151 1.295 . S
C147 O152 1.235 . S
O148 Fe133 1.976 . S
O148 C142 1.287 . S
O149 Fe135 1.996 . S
O149 C142 1.258 . S
C150 O143 1.287 . S
C150 O144 1.255 . S
O151 Fe133 2.002 . S
O151 C147 1.295 . S
O152 Fe135 1.997 . S
O152 C147 1.235 . S
C153 O136 1.295 . S
C153 O137 1.235 . S
Fe154 O156 1.918 . S
Fe154 O159 1.997 . S
Fe154 O160 2.002 . S
Fe154 O165 1.976 . S
Fe154 O168 1.996 . S
Fe155 O156 1.918 . S
Fe155 O163 1.997 . S
Fe155 O166 1.996 . S
Fe155 O170 1.976 . S
Fe155 O173 2.002 . S
O156 Fe154 1.918 . S
O156 Fe155 1.918 . S
O156 Fe157 1.918 . S
Fe157 O156 1.918 . S
Fe157 O158 2.002 . S
Fe157 O167 1.976 . S
Fe157 O171 1.996 . S
Fe157 O174 1.997 . S
O158 Fe157 2.002 . S
O158 C175 1.295 . S
O159 Fe154 1.997 . S
O159 C175 1.235 . S
O160 Fe154 2.002 . S
O160 C161 1.295 . S
C161 O160 1.295 . S
C161 O163 1.235 . S
C162 O167 1.287 . S
C162 O168 1.255 . S
O163 Fe155 1.997 . S
O163 C161 1.235 . S
C164 O170 1.287 . S
C164 O171 1.255 . S
O165 Fe154 1.976 . S
O165 C172 1.287 . S
O166 Fe155 1.996 . S
O166 C172 1.255 . S
O167 Fe157 1.976 . S
O167 C162 1.287 . S
O168 Fe154 1.996 . S
O168 C162 1.255 . S
C169 O173 1.295 . S
C169 O174 1.235 . S
O170 Fe155 1.976 . S
O170 C164 1.287 . S
O171 Fe157 1.996 . S
O171 C164 1.255 . S
C172 O165 1.287 . S
C172 O166 1.255 . S
O173 Fe155 2.002 . S
O173 C169 1.295 . S
O174 Fe157 1.997 . S
O174 C169 1.235 . S
C175 O158 1.295 . S
C175 O159 1.235 . S
C176 C177 1.391 . S
C176 C178 1.394 . S
C176 H192 0.931 . S
C177 C176 1.391 . S
C177 C181 1.376 . S
C178 C176 1.394 . S
C178 C179 1.369 . S
C178 C182 1.531 . S
C179 C178 1.369 . S
C179 C180 1.410 . S
C179 C187 1.503 1_455 S
C180 C179 1.410 . S
C180 C181 1.392 . S
C180 C183 1.511 1_455 S
C181 C177 1.376 . S
C181 C180 1.392 . S
C181 H193 0.929 . S
C182 C178 1.531 . S
C182 H194 0.960 . S
C182 H195 0.962 . S
C182 H196 0.960 . S
C183 C180 1.511 1_655 S
C183 H197 0.961 . S
C183 H198 0.961 . S
C183 H199 0.961 . S
C184 C185 1.370 . S
C184 C186 1.363 . S
C184 H200 0.931 . S
C185 C184 1.370 . S
C185 C189 1.408 . S
C186 C184 1.363 . S
C186 C187 1.370 . S
C186 C190 1.524 . S
C187 C179 1.503 1_655 S
C187 C186 1.370 . S
C187 C188 1.403 . S
C188 C187 1.403 . S
C188 C189 1.404 . S
C188 C191 1.539 . S
C189 C185 1.408 . S
C189 C188 1.404 . S
C189 H201 0.930 . S
C190 C186 1.524 . S
C190 H202 0.956 1_655 S
C190 H203 0.961 . S
C190 H204 0.961 . S
C191 C188 1.539 . S
C191 H205 0.958 1_655 S
C191 H206 0.961 . S
C191 H207 0.953 1_655 S
H192 C176 0.931 . S
H193 C181 0.929 . S
H194 C182 0.960 . S
H195 C182 0.962 . S
H196 C182 0.960 . S
H197 C183 0.961 . S
H198 C183 0.961 . S
H199 C183 0.961 . S
H200 C184 0.931 . S
H201 C189 0.930 . S
H202 C190 0.956 1_455 S
H203 C190 0.961 . S
H204 C190 0.961 . S
H205 C191 0.958 1_455 S
H206 C191 0.961 . S
H207 C191 0.953 1_455 S
C208 C209 1.391 . S
C208 C210 1.394 . S
C208 H224 0.931 . S
C209 C208 1.391 . S
C209 C213 1.376 . S
C210 C208 1.394 . S
C210 C211 1.369 . S
C210 C214 1.531 . S
C211 C210 1.369 . S
C211 C212 1.410 . S
C211 C219 1.503 . S
C212 C211 1.410 . S
C212 C213 1.392 . S
C212 C215 1.511 . S
C213 C209 1.376 . S
C213 C212 1.392 . S
C213 H225 0.929 . S
C214 C210 1.531 . S
C214 H226 0.960 . S
C214 H227 0.962 . S
C214 H228 0.960 . S
C215 C212 1.511 . S
C215 H229 0.961 . S
C215 H230 0.961 . S
C215 H231 0.961 . S
C216 C217 1.370 . S
C216 C218 1.363 . S
C216 H232 0.931 . S
C217 C216 1.370 . S
C217 C221 1.408 . S
C218 C216 1.363 . S
C218 C219 1.370 . S
C218 C222 1.524 . S
C219 C211 1.503 . S
C219 C218 1.370 . S
C219 C220 1.403 . S
C220 C219 1.403 . S
C220 C221 1.404 . S
C220 C223 1.539 . S
C221 C217 1.408 . S
C221 C220 1.404 . S
C221 H233 0.930 . S
C222 C218 1.524 . S
C222 H234 0.956 . S
C222 H235 0.961 . S
C222 H236 0.961 . S
C223 C220 1.539 . S
C223 H237 0.958 . S
C223 H238 0.961 . S
C223 H239 0.960 . S
H224 C208 0.931 . S
H225 C213 0.929 . S
H226 C214 0.960 . S
H227 C214 0.962 . S
H228 C214 0.960 . S
H229 C215 0.961 . S
H230 C215 0.961 . S
H231 C215 0.961 . S
H232 C216 0.931 . S
H233 C221 0.930 . S
H234 C222 0.956 . S
H235 C222 0.961 . S
H236 C222 0.961 . S
H237 C223 0.958 . S
H238 C223 0.961 . S
H239 C223 0.960 . S
C240 C241 1.391 . S
C240 C242 1.394 . S
C240 H256 0.931 . S
C241 C240 1.391 . S
C241 C245 1.376 . S
C242 C240 1.394 . S
C242 C243 1.369 . S
C242 C246 1.531 . S
C243 C242 1.369 . S
C243 C244 1.410 . S
C243 C251 1.503 1_655 S
C244 C243 1.410 . S
C244 C245 1.392 . S
C244 C247 1.511 . S
C245 C241 1.376 . S
C245 C244 1.392 . S
C245 H257 0.929 . S
C246 C242 1.531 . S
C246 H258 0.960 . S
C246 H259 0.962 . S
C246 H260 0.960 . S
C247 C244 1.511 . S
C247 H261 0.961 . S
C247 H262 0.961 1_655 S
C247 H263 0.961 . S
C248 C249 1.370 . S
C248 C250 1.363 . S
C248 H264 0.931 . S
C249 C248 1.370 . S
C249 C253 1.408 . S
C250 C248 1.363 . S
C250 C251 1.370 . S
C250 C254 1.524 . S
C251 C243 1.503 1_455 S
C251 C250 1.370 . S
C251 C252 1.403 . S
C252 C251 1.403 . S
C252 C253 1.404 . S
C252 C255 1.539 1_455 S
C253 C249 1.408 . S
C253 C252 1.404 . S
C253 H265 0.930 . S
C254 C250 1.524 . S
C254 H266 0.956 . S
C254 H267 0.961 . S
C254 H268 0.961 . S
C255 C252 1.539 1_655 S
C255 H269 0.958 . S
C255 H270 0.961 . S
C255 H271 0.960 . S
H256 C240 0.931 . S
H257 C245 0.929 . S
H258 C246 0.960 . S
H259 C246 0.962 . S
H260 C246 0.960 . S
H261 C247 0.961 . S
H262 C247 0.961 1_455 S
H263 C247 0.961 . S
H264 C248 0.931 . S
H265 C253 0.930 . S
H266 C254 0.956 . S
H267 C254 0.961 . S
H268 C254 0.961 . S
H269 C255 0.958 . S
H270 C255 0.961 . S
H271 C255 0.960 . S
C272 C273 1.391 . S
C272 C274 1.394 . S
C272 H288 0.931 . S
C273 C272 1.391 . S
C273 C277 1.376 . S
C274 C272 1.394 . S
C274 C275 1.369 . S
C274 C278 1.531 . S
C275 C274 1.369 . S
C275 C276 1.410 . S
C275 C283 1.503 . S
C276 C275 1.410 . S
C276 C277 1.392 . S
C276 C279 1.511 . S
C277 C273 1.376 . S
C277 C276 1.392 . S
C277 H289 0.929 . S
C278 C274 1.531 . S
C278 H290 0.960 . S
C278 H291 0.962 . S
C278 H292 0.960 . S
C279 C276 1.511 . S
C279 H293 0.961 . S
C279 H294 0.961 . S
C279 H295 0.961 . S
C280 C281 1.370 . S
C280 C282 1.363 . S
C280 H296 0.931 . S
C281 C280 1.370 . S
C281 C285 1.408 . S
C282 C280 1.363 . S
C282 C283 1.370 . S
C282 C286 1.524 . S
C283 C275 1.503 . S
C283 C282 1.370 . S
C283 C284 1.403 . S
C284 C283 1.403 . S
C284 C285 1.404 . S
C284 C287 1.539 . S
C285 C281 1.408 . S
C285 C284 1.404 . S
C285 H297 0.930 . S
C286 C282 1.524 . S
C286 H298 0.956 . S
C286 H299 0.961 . S
C286 H300 0.961 . S
C287 C284 1.539 . S
C287 H301 0.958 . S
C287 H302 0.961 . S
C287 H303 0.960 . S
H288 C272 0.931 . S
H289 C277 0.929 . S
H290 C278 0.960 . S
H291 C278 0.962 . S
H292 C278 0.960 . S
H293 C279 0.961 . S
H294 C279 0.961 . S
H295 C279 0.961 . S
H296 C280 0.931 . S
H297 C285 0.930 . S
H298 C286 0.956 . S
H299 C286 0.961 . S
H300 C286 0.961 . S
H301 C287 0.958 . S
H302 C287 0.961 . S
H303 C287 0.960 . S
C304 C305 1.391 . S
C304 C306 1.394 1_554 S
C304 H320 0.931 1_554 S
C305 C304 1.391 . S
C305 C309 1.376 . S
C306 C304 1.394 1_556 S
C306 C307 1.374 . S
C306 C310 1.531 1_455 S
C307 C306 1.374 . S
C307 C308 1.396 1_556 S
C307 C315 1.509 1_445 S
C308 C307 1.396 1_554 S
C308 C309 1.392 . S
C308 C311 1.511 1_545 S
C309 C305 1.376 . S
C309 C308 1.392 . S
C309 H321 0.929 . S
C310 C306 1.531 1_655 S
C310 H322 0.960 . S
C310 H323 0.962 . S
C310 H324 0.960 . S
C311 C308 1.511 1_565 S
C311 H325 0.961 . S
C311 H326 0.961 . S
C311 H327 0.961 . S
C312 C313 1.370 1_554 S
C312 C314 1.363 . S
C312 H328 0.931 . S
C313 C312 1.370 1_556 S
C313 C317 1.408 . S
C314 C312 1.363 . S
C314 C315 1.370 1_554 S
C314 C318 1.524 . S
C315 C307 1.509 1_665 S
C315 C314 1.370 1_556 S
C315 C316 1.403 . S
C316 C315 1.403 . S
C316 C317 1.404 . S
C316 C319 1.539 1_655 S
C317 C313 1.408 . S
C317 C316 1.404 . S
C317 H329 0.930 . S
C318 C314 1.524 . S
C318 H330 0.956 1_565 S
C318 H331 0.961 . S
C318 H332 0.961 . S
C319 C316 1.539 1_455 S
C319 H333 0.958 . S
C319 H334 0.961 . S
C319 H335 0.960 . S
H320 C304 0.931 1_556 S
H321 C309 0.929 . S
H322 C310 0.960 . S
H323 C310 0.962 . S
H324 C310 0.960 . S
H325 C311 0.961 . S
H326 C311 0.961 . S
H327 C311 0.961 . S
H328 C312 0.931 . S
H329 C317 0.930 . S
H330 C318 0.956 1_545 S
H331 C318 0.961 . S
H332 C318 0.961 . S
H333 C319 0.958 . S
H334 C319 0.961 . S
H335 C319 0.960 . S
C336 C337 1.391 . S
C336 C338 1.394 . S
C336 H352 0.931 . S
C337 C336 1.391 . S
C337 C341 1.376 . S
C338 C336 1.394 . S
C338 C339 1.369 . S
C338 C342 1.531 . S
C339 C338 1.369 . S
C339 C340 1.410 . S
C339 C347 1.503 . S
C340 C339 1.410 . S
C340 C341 1.392 . S
C340 C343 1.511 . S
C341 C337 1.376 . S
C341 C340 1.392 . S
C341 H353 0.929 . S
C342 C338 1.531 . S
C342 H354 0.960 . S
C342 H355 0.962 . S
C342 H356 0.960 . S
C343 C340 1.511 . S
C343 H357 0.961 . S
C343 H358 0.961 . S
C343 H359 0.961 . S
C344 C345 1.370 . S
C344 C346 1.363 . S
C344 H360 0.931 . S
C345 C344 1.370 . S
C345 C349 1.408 . S
C346 C344 1.363 . S
C346 C347 1.370 . S
C346 C350 1.524 . S
C347 C339 1.503 . S
C347 C346 1.370 . S
C347 C348 1.403 . S
C348 C347 1.403 . S
C348 C349 1.404 . S
C348 C351 1.539 . S
C349 C345 1.408 . S
C349 C348 1.404 . S
C349 H361 0.930 . S
C350 C346 1.524 . S
C350 H362 0.956 . S
C350 H363 0.961 . S
C350 H364 0.961 . S
C351 C348 1.539 . S
C351 H365 0.958 . S
C351 H366 0.961 . S
C351 H367 0.960 . S
H352 C336 0.931 . S
H353 C341 0.929 . S
H354 C342 0.960 . S
H355 C342 0.962 . S
H356 C342 0.960 . S
H357 C343 0.961 . S
H358 C343 0.961 . S
H359 C343 0.961 . S
H360 C344 0.931 . S
H361 C349 0.930 . S
H362 C350 0.956 . S
H363 C350 0.961 . S
H364 C350 0.961 . S
H365 C351 0.958 . S
H366 C351 0.961 . S
H367 C351 0.960 . S
C368 C369 1.391 1_556 S
C368 C370 1.394 . S
C368 H384 0.931 . S
C369 C368 1.391 1_554 S
C369 C373 1.376 . S
C370 C368 1.394 . S
C370 C371 1.369 1_556 S
C370 C374 1.531 . S
C371 C370 1.369 1_554 S
C371 C372 1.410 . S
C371 C379 1.503 1_554 S
C372 C371 1.410 . S
C372 C373 1.392 . S
C372 C375 1.511 . S
C373 C369 1.376 . S
C373 C372 1.392 . S
C373 H385 0.929 . S
C374 C370 1.531 . S
C374 H386 0.960 . S
C374 H387 0.962 . S
C374 H388 0.960 . S
C375 C372 1.511 . S
C375 H389 0.961 . S
C375 H390 0.961 . S
C375 H391 0.961 . S
C376 C377 1.370 . S
C376 C378 1.360 1_556 S
C376 H392 0.931 . S
C377 C376 1.370 . S
C377 C381 1.408 . S
C378 C376 1.360 1_554 S
C378 C379 1.368 1_554 S
C378 C382 1.530 . S
C379 C371 1.503 1_556 S
C379 C378 1.368 1_556 S
C379 C380 1.403 . S
C380 C379 1.403 . S
C380 C381 1.404 . S
C380 C383 1.539 . S
C381 C377 1.408 . S
C381 C380 1.404 . S
C381 H393 0.930 . S
C382 C378 1.530 . S
C382 H394 0.956 . S
C382 H395 0.961 . S
C382 H396 0.961 . S
C383 C380 1.539 . S
C383 H397 0.958 . S
C383 H398 0.961 . S
C383 H399 0.960 . S
H384 C368 0.931 . S
H385 C373 0.929 . S
H386 C374 0.960 . S
H387 C374 0.962 . S
H388 C374 0.960 . S
H389 C375 0.961 . S
H390 C375 0.961 . S
H391 C375 0.961 . S
H392 C376 0.931 . S
H393 C381 0.930 . S
H394 C382 0.956 . S
H395 C382 0.961 . S
H396 C382 0.961 . S
H397 C383 0.958 . S
H398 C383 0.961 . S
H399 C383 0.960 . S
C400 C401 1.391 . S
C400 C402 1.394 . S
C400 H416 0.931 . S
C401 C400 1.391 . S
C401 C405 1.376 . S
C402 C400 1.394 . S
C402 C403 1.369 . S
C402 C406 1.531 1_655 S
C403 C402 1.369 . S
C403 C404 1.410 . S
C403 C411 1.503 1_645 S
C404 C403 1.410 . S
C404 C405 1.392 . S
C404 C407 1.511 . S
C405 C401 1.376 . S
C405 C404 1.392 . S
C405 H417 0.929 . S
C406 C402 1.531 1_455 S
C406 H418 0.960 . S
C406 H419 0.962 1_545 S
C406 H420 0.960 . S
C407 C404 1.511 . S
C407 H421 0.961 . S
C407 H422 0.961 . S
C407 H423 0.961 . S
C408 C409 1.370 . S
C408 C410 1.363 . S
C408 H424 0.931 . S
C409 C408 1.370 . S
C409 C413 1.408 . S
C410 C408 1.363 . S
C410 C411 1.370 . S
C410 C414 1.524 1_455 S
C411 C403 1.503 1_465 S
C411 C410 1.370 . S
C411 C412 1.403 . S
C412 C411 1.403 . S
C412 C413 1.404 . S
C412 C415 1.539 1_565 S
C413 C409 1.408 . S
C413 C412 1.404 . S
C413 H425 0.930 . S
C414 C410 1.524 1_655 S
C414 H426 0.956 . S
C414 H427 0.961 . S
C414 H428 0.961 . S
C415 C412 1.539 1_545 S
C415 H429 0.958 . S
C415 H430 0.961 . S
C415 H431 0.960 . S
H416 C400 0.931 . S
H417 C405 0.929 . S
H418 C406 0.960 . S
H419 C406 0.962 1_565 S
H420 C406 0.960 . S
H421 C407 0.961 . S
H422 C407 0.961 . S
H423 C407 0.961 . S
H424 C408 0.931 . S
H425 C413 0.930 . S
H426 C414 0.956 . S
H427 C414 0.961 . S
H428 C414 0.961 . S
H429 C415 0.958 . S
H430 C415 0.961 . S
H431 C415 0.960 . S
C432 C433 1.391 . S
C432 C434 1.394 . S
C432 H448 0.931 . S
C433 C432 1.391 . S
C433 C437 1.376 . S
C434 C432 1.394 . S
C434 C435 1.369 . S
C434 C438 1.531 . S
C435 C434 1.369 . S
C435 C436 1.410 . S
C435 C443 1.503 . S
C436 C435 1.410 . S
C436 C437 1.392 . S
C436 C439 1.511 . S
C437 C433 1.376 . S
C437 C436 1.392 . S
C437 H449 0.929 . S
C438 C434 1.531 . S
C438 H450 0.960 1_565 S
C438 H451 0.962 . S
C438 H452 0.960 . S
C439 C436 1.511 . S
C439 H453 0.961 . S
C439 H454 0.961 . S
C439 H455 0.961 . S
C440 C441 1.370 . S
C440 C442 1.363 . S
C440 H456 0.931 . S
C441 C440 1.370 . S
C441 C445 1.408 . S
C442 C440 1.363 . S
C442 C443 1.370 1_545 S
C442 C446 1.524 1_545 S
C443 C435 1.503 . S
C443 C442 1.370 1_565 S
C443 C444 1.403 1_565 S
C444 C443 1.403 1_545 S
C444 C445 1.404 . S
C444 C447 1.539 . S
C445 C441 1.408 . S
C445 C444 1.404 . S
C445 H457 0.930 . S
C446 C442 1.524 1_565 S
C446 H458 0.956 . S
C446 H459 0.961 . S
C446 H460 0.961 . S
C447 C444 1.539 . S
C447 H461 0.958 . S
C447 H462 0.961 1_554 S
C447 H463 0.960 1_545 S
H448 C432 0.931 . S
H449 C437 0.929 . S
H450 C438 0.960 1_545 S
H451 C438 0.962 . S
H452 C438 0.960 . S
H453 C439 0.961 . S
H454 C439 0.961 . S
H455 C439 0.961 . S
H456 C440 0.931 . S
H457 C445 0.930 . S
H458 C446 0.956 . S
H459 C446 0.961 . S
H460 C446 0.961 . S
H461 C447 0.958 . S
H462 C447 0.961 1_556 S
H463 C447 0.960 1_565 S
C464 C465 1.391 . S
C464 C466 1.394 . S
C464 H480 0.931 . S
C465 C464 1.391 . S
C465 C469 1.376 . S
C466 C464 1.394 . S
C466 C467 1.369 . S
C466 C470 1.531 . S
C467 C466 1.369 . S
C467 C468 1.410 . S
C467 C475 1.503 . S
C468 C467 1.410 . S
C468 C469 1.392 . S
C468 C471 1.511 . S
C469 C465 1.376 . S
C469 C468 1.392 . S
C469 H481 0.929 . S
C470 C466 1.531 . S
C470 H482 0.960 . S
C470 H483 0.962 . S
C470 H484 0.960 . S
C471 C468 1.511 . S
C471 H485 0.961 . S
C471 H486 0.961 . S
C471 H487 0.961 . S
C472 C473 1.370 . S
C472 C474 1.363 . S
C472 H488 0.931 . S
C473 C472 1.370 . S
C473 C477 1.408 . S
C474 C472 1.363 . S
C474 C475 1.370 . S
C474 C478 1.524 . S
C475 C467 1.503 . S
C475 C474 1.370 . S
C475 C476 1.403 . S
C476 C475 1.403 . S
C476 C477 1.404 . S
C476 C479 1.539 . S
C477 C473 1.408 . S
C477 C476 1.404 . S
C477 H489 0.930 . S
C478 C474 1.524 . S
C478 H490 0.956 . S
C478 H491 0.961 . S
C478 H492 0.961 . S
C479 C476 1.539 . S
C479 H493 0.958 . S
C479 H494 0.961 . S
C479 H495 0.960 . S
H480 C464 0.931 . S
H481 C469 0.929 . S
H482 C470 0.960 . S
H483 C470 0.962 . S
H484 C470 0.960 . S
H485 C471 0.961 . S
H486 C471 0.961 . S
H487 C471 0.961 . S
H488 C472 0.931 . S
H489 C477 0.930 . S
H490 C478 0.956 . S
H491 C478 0.961 . S
H492 C478 0.961 . S
H493 C479 0.958 . S
H494 C479 0.961 . S
H495 C479 0.960 . S
C496 C497 1.391 . S
C496 C498 1.394 . S
C496 H512 0.931 . S
C497 C496 1.391 . S
C497 C501 1.376 . S
C498 C496 1.394 . S
C498 C499 1.369 . S
C498 C502 1.531 . S
C499 C498 1.369 . S
C499 C500 1.410 . S
C499 C507 1.503 . S
C500 C499 1.410 . S
C500 C501 1.392 . S
C500 C503 1.511 . S
C501 C497 1.376 . S
C501 C500 1.392 . S
C501 H513 0.929 . S
C502 C498 1.531 . S
C502 H514 0.960 . S
C502 H515 0.962 . S
C502 H516 0.960 . S
C503 C500 1.511 . S
C503 H517 0.961 . S
C503 H518 0.961 . S
C503 H519 0.961 . S
C504 C505 1.370 . S
C504 C506 1.363 . S
C504 H520 0.931 . S
C505 C504 1.370 . S
C505 C509 1.408 . S
C506 C504 1.363 . S
C506 C507 1.370 . S
C506 C510 1.524 . S
C507 C499 1.503 . S
C507 C506 1.370 . S
C507 C508 1.403 . S
C508 C507 1.403 . S
C508 C509 1.404 . S
C508 C511 1.539 . S
C509 C505 1.408 . S
C509 C508 1.404 . S
C509 H521 0.930 . S
C510 C506 1.524 . S
C510 H522 0.956 . S
C510 H523 0.961 . S
C510 H524 0.961 . S
C511 C508 1.539 . S
C511 H525 0.958 . S
C511 H526 0.961 . S
C511 H527 0.960 . S
H512 C496 0.931 . S
H513 C501 0.929 . S
H514 C502 0.960 . S
H515 C502 0.962 . S
H516 C502 0.960 . S
H517 C503 0.961 . S
H518 C503 0.961 . S
H519 C503 0.961 . S
H520 C504 0.931 . S
H521 C509 0.930 . S
H522 C510 0.956 . S
H523 C510 0.961 . S
H524 C510 0.961 . S
H525 C511 0.958 . S
H526 C511 0.961 . S
H527 C511 0.960 . S
C528 C529 1.391 . S
C528 C530 1.394 . S
C528 H544 0.931 . S
C529 C528 1.391 . S
C529 C533 1.376 . S
C530 C528 1.394 . S
C530 C531 1.369 1_545 S
C530 C534 1.531 . S
C531 C530 1.369 1_565 S
C531 C532 1.410 . S
C531 C539 1.503 . S
C532 C531 1.410 . S
C532 C533 1.392 1_565 S
C532 C535 1.511 . S
C533 C529 1.376 . S
C533 C532 1.392 1_545 S
C533 H545 0.929 . S
C534 C530 1.531 . S
C534 H546 0.960 1_545 S
C534 H547 0.962 . S
C534 H548 0.960 . S
C535 C532 1.511 . S
C535 H549 0.961 . S
C535 H550 0.961 . S
C535 H551 0.961 . S
C536 C537 1.370 . S
C536 C538 1.363 . S
C536 H552 0.931 . S
C537 C536 1.370 . S
C537 C541 1.408 . S
C538 C536 1.363 . S
C538 C539 1.370 . S
C538 C542 1.524 . S
C539 C531 1.503 . S
C539 C538 1.370 . S
C539 C540 1.403 . S
C540 C539 1.403 . S
C540 C541 1.404 . S
C540 C543 1.539 . S
C541 C537 1.408 . S
C541 C540 1.404 . S
C541 H553 0.930 . S
C542 C538 1.524 . S
C542 H554 0.956 1_565 S
C542 H555 0.961 . S
C542 H556 0.961 . S
C543 C540 1.539 . S
C543 H557 0.958 . S
C543 H558 0.961 . S
C543 H559 0.960 . S
H544 C528 0.931 . S
H545 C533 0.929 . S
H546 C534 0.960 1_565 S
H547 C534 0.962 . S
H548 C534 0.960 . S
H549 C535 0.961 . S
H550 C535 0.961 . S
H551 C535 0.961 . S
H552 C536 0.931 . S
H553 C541 0.930 . S
H554 C542 0.956 1_545 S
H555 C542 0.961 . S
H556 C542 0.961 . S
H557 C543 0.958 . S
H558 C543 0.961 . S
H559 C543 0.960 . S
C560 C561 1.391 . S
C560 C562 1.394 . S
C560 H576 0.931 . S
C561 C560 1.391 . S
C561 C565 1.376 . S
C562 C560 1.394 . S
C562 C563 1.369 . S
C562 C566 1.531 . S
C563 C562 1.369 . S
C563 C564 1.410 . S
C563 C571 1.503 . S
C564 C563 1.410 . S
C564 C565 1.392 . S
C564 C567 1.511 . S
C565 C561 1.376 . S
C565 C564 1.392 . S
C565 H577 0.929 . S
C566 C562 1.531 . S
C566 H578 0.960 . S
C566 H579 0.962 . S
C566 H580 0.960 1_556 S
C567 C564 1.511 . S
C567 H581 0.961 . S
C567 H582 0.961 . S
C567 H583 0.961 . S
C568 C569 1.370 . S
C568 C570 1.363 1_565 S
C568 H584 0.931 . S
C569 C568 1.370 . S
C569 C573 1.408 . S
C570 C568 1.363 1_545 S
C570 C571 1.370 . S
C570 C574 1.524 . S
C571 C563 1.503 . S
C571 C570 1.370 . S
C571 C572 1.403 1_545 S
C572 C571 1.403 1_565 S
C572 C573 1.404 . S
C572 C575 1.539 . S
C573 C569 1.408 . S
C573 C572 1.404 . S
C573 H585 0.930 . S
C574 C570 1.524 . S
C574 H586 0.956 . S
C574 H587 0.961 . S
C574 H588 0.961 . S
C575 C572 1.539 . S
C575 H589 0.958 . S
C575 H590 0.961 . S
C575 H591 0.960 . S
H576 C560 0.931 . S
H577 C565 0.929 . S
H578 C566 0.960 . S
H579 C566 0.962 . S
H580 C566 0.960 1_554 S
H581 C567 0.961 . S
H582 C567 0.961 . S
H583 C567 0.961 . S
H584 C568 0.931 . S
H585 C573 0.930 . S
H586 C574 0.956 . S
H587 C574 0.961 . S
H588 C574 0.961 . S
H589 C575 0.958 . S
H590 C575 0.961 . S
H591 C575 0.960 . S
C592 C593 1.391 . S
C592 C594 1.394 . S
C592 H608 0.931 . S
C593 C592 1.391 . S
C593 C597 1.376 . S
C594 C592 1.394 . S
C594 C595 1.369 . S
C594 C598 1.531 . S
C595 C594 1.369 . S
C595 C596 1.410 . S
C595 C603 1.503 . S
C596 C595 1.410 . S
C596 C597 1.392 . S
C596 C599 1.511 . S
C597 C593 1.376 . S
C597 C596 1.392 . S
C597 H609 0.929 . S
C598 C594 1.531 . S
C598 H610 0.960 . S
C598 H611 0.962 . S
C598 H612 0.960 . S
C599 C596 1.511 . S
C599 H613 0.961 . S
C599 H614 0.961 . S
C599 H615 0.961 . S
C600 C601 1.370 . S
C600 C602 1.363 . S
C600 H616 0.931 . S
C601 C600 1.370 . S
C601 C605 1.408 . S
C602 C600 1.363 . S
C602 C603 1.370 . S
C602 C606 1.524 . S
C603 C595 1.503 . S
C603 C602 1.370 . S
C603 C604 1.403 . S
C604 C603 1.403 . S
C604 C605 1.404 . S
C604 C607 1.539 . S
C605 C601 1.408 . S
C605 C604 1.404 . S
C605 H617 0.930 . S
C606 C602 1.524 . S
C606 H618 0.956 . S
C606 H619 0.961 . S
C606 H620 0.961 . S
C607 C604 1.539 . S
C607 H621 0.958 . S
C607 H622 0.961 . S
C607 H623 0.960 . S
H608 C592 0.931 . S
H609 C597 0.929 . S
H610 C598 0.960 . S
H611 C598 0.962 . S
H612 C598 0.960 . S
H613 C599 0.961 . S
H614 C599 0.961 . S
H615 C599 0.961 . S
H616 C600 0.931 . S
H617 C605 0.930 . S
H618 C606 0.956 . S
H619 C606 0.961 . S
H620 C606 0.961 . S
H621 C607 0.958 . S
H622 C607 0.961 . S
H623 C607 0.960 . S
C624 C625 1.391 . S
C624 C626 1.394 . S
C624 H640 0.931 . S
C625 C624 1.391 . S
C625 C629 1.376 . S
C626 C624 1.394 . S
C626 C627 1.369 . S
C626 C630 1.531 . S
C627 C626 1.369 . S
C627 C628 1.410 . S
C627 C635 1.503 . S
C628 C627 1.410 . S
C628 C629 1.392 . S
C628 C631 1.511 . S
C629 C625 1.376 . S
C629 C628 1.392 . S
C629 H641 0.929 . S
C630 C626 1.531 . S
C630 H642 0.960 . S
C630 H643 0.962 . S
C630 H644 0.960 1_554 S
C631 C628 1.511 . S
C631 H645 0.961 . S
C631 H646 0.961 . S
C631 H647 0.961 . S
C632 C633 1.370 . S
C632 C634 1.363 . S
C632 H648 0.931 . S
C633 C632 1.370 . S
C633 C637 1.408 . S
C634 C632 1.363 . S
C634 C635 1.370 . S
C634 C638 1.524 . S
C635 C627 1.503 . S
C635 C634 1.370 . S
C635 C636 1.403 . S
C636 C635 1.403 . S
C636 C637 1.404 . S
C636 C639 1.539 . S
C637 C633 1.408 . S
C637 C636 1.404 . S
C637 H649 0.930 . S
C638 C634 1.524 . S
C638 H650 0.956 . S
C638 H651 0.961 . S
C638 H652 0.961 . S
C639 C636 1.539 . S
C639 H653 0.958 . S
C639 H654 0.961 . S
C639 H655 0.960 . S
H640 C624 0.931 . S
H641 C629 0.929 . S
H642 C630 0.960 . S
H643 C630 0.962 . S
H644 C630 0.960 1_556 S
H645 C631 0.961 . S
H646 C631 0.961 . S
H647 C631 0.961 . S
H648 C632 0.931 . S
H649 C637 0.930 . S
H650 C638 0.956 . S
H651 C638 0.961 . S
H652 C638 0.961 . S
H653 C639 0.958 . S
H654 C639 0.961 . S
H655 C639 0.960 . S
C656 C657 1.391 . S
C656 C658 1.394 . S
C656 H672 0.931 . S
C657 C656 1.391 . S
C657 C661 1.376 . S
C658 C656 1.394 . S
C658 C659 1.369 1_565 S
C658 C662 1.531 . S
C659 C658 1.369 1_545 S
C659 C660 1.410 . S
C659 C667 1.503 . S
C660 C659 1.410 . S
C660 C661 1.392 1_545 S
C660 C663 1.511 . S
C661 C657 1.376 . S
C661 C660 1.392 1_565 S
C661 H673 0.929 . S
C662 C658 1.531 . S
C662 H674 0.960 1_565 S
C662 H675 0.962 . S
C662 H676 0.960 . S
C663 C660 1.511 . S
C663 H677 0.961 . S
C663 H678 0.961 . S
C663 H679 0.961 . S
C664 C665 1.370 . S
C664 C666 1.363 . S
C664 H680 0.931 . S
C665 C664 1.370 . S
C665 C669 1.408 . S
C666 C664 1.363 . S
C666 C667 1.370 . S
C666 C670 1.524 . S
C667 C659 1.503 . S
C667 C666 1.370 . S
C667 C668 1.403 . S
C668 C667 1.403 . S
C668 C669 1.404 . S
C668 C671 1.539 . S
C669 C665 1.408 . S
C669 C668 1.404 . S
C669 H681 0.930 . S
C670 C666 1.524 . S
C670 H682 0.956 1_545 S
C670 H683 0.961 . S
C670 H684 0.961 . S
C671 C668 1.539 . S
C671 H685 0.958 . S
C671 H686 0.961 . S
C671 H687 0.960 . S
H672 C656 0.931 . S
H673 C661 0.929 . S
H674 C662 0.960 1_545 S
H675 C662 0.962 . S
H676 C662 0.960 . S
H677 C663 0.961 . S
H678 C663 0.961 . S
H679 C663 0.961 . S
H680 C664 0.931 . S
H681 C669 0.930 . S
H682 C670 0.956 1_565 S
H683 C670 0.961 . S
H684 C670 0.961 . S
H685 C671 0.958 . S
H686 C671 0.961 . S
H687 C671 0.960 . S
C688 C689 1.391 . S
C688 C690 1.394 . S
C688 H704 0.931 . S
C689 C688 1.391 . S
C689 C693 1.376 . S
C690 C688 1.394 . S
C690 C691 1.369 . S
C690 C694 1.531 . S
C691 C690 1.369 . S
C691 C692 1.410 . S
C691 C699 1.503 . S
C692 C691 1.410 . S
C692 C693 1.392 . S
C692 C695 1.511 . S
C693 C689 1.376 . S
C693 C692 1.392 . S
C693 H705 0.929 . S
C694 C690 1.531 . S
C694 H706 0.960 . S
C694 H707 0.962 . S
C694 H708 0.960 . S
C695 C692 1.511 . S
C695 H709 0.961 . S
C695 H710 0.961 . S
C695 H711 0.961 . S
C696 C697 1.370 . S
C696 C698 1.363 . S
C696 H712 0.931 . S
C697 C696 1.370 . S
C697 C701 1.408 . S
C698 C696 1.363 . S
C698 C699 1.370 . S
C698 C702 1.524 . S
C699 C691 1.503 . S
C699 C698 1.370 . S
C699 C700 1.403 . S
C700 C699 1.403 . S
C700 C701 1.404 . S
C700 C703 1.539 . S
C701 C697 1.408 . S
C701 C700 1.404 . S
C701 H713 0.930 . S
C702 C698 1.524 . S
C702 H714 0.956 . S
C702 H715 0.961 . S
C702 H716 0.961 . S
C703 C700 1.539 . S
C703 H717 0.958 . S
C703 H718 0.961 . S
C703 H719 0.960 . S
H704 C688 0.931 . S
H705 C693 0.929 . S
H706 C694 0.960 . S
H707 C694 0.962 . S
H708 C694 0.960 . S
H709 C695 0.961 . S
H710 C695 0.961 . S
H711 C695 0.961 . S
H712 C696 0.931 . S
H713 C701 0.930 . S
H714 C702 0.956 . S
H715 C702 0.961 . S
H716 C702 0.961 . S
H717 C703 0.958 . S
H718 C703 0.961 . S
H719 C703 0.960 . S
C720 C721 1.391 . S
C720 C722 1.394 . S
C720 H736 0.931 . S
C721 C720 1.391 . S
C721 C725 1.376 . S
C722 C720 1.394 . S
C722 C723 1.369 . S
C722 C726 1.531 . S
C723 C722 1.369 . S
C723 C724 1.410 . S
C723 C731 1.503 . S
C724 C723 1.410 . S
C724 C725 1.392 . S
C724 C727 1.511 . S
C725 C721 1.376 . S
C725 C724 1.392 . S
C725 H737 0.929 . S
C726 C722 1.531 . S
C726 H738 0.960 . S
C726 H739 0.962 . S
C726 H740 0.960 . S
C727 C724 1.511 . S
C727 H741 0.961 . S
C727 H742 0.961 . S
C727 H743 0.961 . S
C728 C729 1.370 . S
C728 C730 1.363 . S
C728 H744 0.931 . S
C729 C728 1.370 . S
C729 C733 1.408 . S
C730 C728 1.363 . S
C730 C731 1.370 . S
C730 C734 1.524 . S
C731 C723 1.503 . S
C731 C730 1.370 . S
C731 C732 1.403 . S
C732 C731 1.403 . S
C732 C733 1.404 . S
C732 C735 1.539 . S
C733 C729 1.408 . S
C733 C732 1.404 . S
C733 H745 0.930 . S
C734 C730 1.524 . S
C734 H746 0.956 . S
C734 H747 0.961 . S
C734 H748 0.961 . S
C735 C732 1.539 . S
C735 H749 0.958 . S
C735 H750 0.961 . S
C735 H751 0.960 . S
H736 C720 0.931 . S
H737 C725 0.929 . S
H738 C726 0.960 . S
H739 C726 0.962 . S
H740 C726 0.960 . S
H741 C727 0.961 . S
H742 C727 0.961 . S
H743 C727 0.961 . S
H744 C728 0.931 . S
H745 C733 0.930 . S
H746 C734 0.956 . S
H747 C734 0.961 . S
H748 C734 0.961 . S
H749 C735 0.958 . S
H750 C735 0.961 . S
H751 C735 0.960 . S
C752 C753 1.391 . S
C752 C754 1.394 . S
C752 H768 0.931 . S
C753 C752 1.391 . S
C753 C757 1.376 . S
C754 C752 1.394 . S
C754 C755 1.369 . S
C754 C758 1.531 . S
C755 C754 1.369 . S
C755 C756 1.410 . S
C755 C763 1.503 . S
C756 C755 1.410 . S
C756 C757 1.392 . S
C756 C759 1.511 . S
C757 C753 1.376 . S
C757 C756 1.392 . S
C757 H769 0.929 . S
C758 C754 1.531 . S
C758 H770 0.960 . S
C758 H771 0.962 . S
C758 H772 0.960 . S
C759 C756 1.511 . S
C759 H773 0.961 . S
C759 H774 0.961 . S
C759 H775 0.961 . S
C760 C761 1.370 . S
C760 C762 1.363 . S
C760 H776 0.931 . S
C761 C760 1.370 . S
C761 C765 1.408 . S
C762 C760 1.363 . S
C762 C763 1.370 . S
C762 C766 1.524 . S
C763 C755 1.503 . S
C763 C762 1.370 . S
C763 C764 1.403 . S
C764 C763 1.403 . S
C764 C765 1.404 . S
C764 C767 1.539 . S
C765 C761 1.408 . S
C765 C764 1.404 . S
C765 H777 0.930 . S
C766 C762 1.524 . S
C766 H778 0.956 . S
C766 H779 0.961 . S
C766 H780 0.961 . S
C767 C764 1.539 . S
C767 H781 0.958 . S
C767 H782 0.961 . S
C767 H783 0.960 . S
H768 C752 0.931 . S
H769 C757 0.929 . S
H770 C758 0.960 . S
H771 C758 0.962 . S
H772 C758 0.960 . S
H773 C759 0.961 . S
H774 C759 0.961 . S
H775 C759 0.961 . S
H776 C760 0.931 . S
H777 C765 0.930 . S
H778 C766 0.956 . S
H779 C766 0.961 . S
H780 C766 0.961 . S
H781 C767 0.958 . S
H782 C767 0.961 . S
H783 C767 0.960 . S
C784 C785 1.391 . S
C784 C786 1.394 . S
C784 H800 0.931 . S
C785 C784 1.391 . S
C785 C789 1.376 . S
C786 C784 1.394 . S
C786 C787 1.369 . S
C786 C790 1.531 . S
C787 C786 1.369 . S
C787 C788 1.410 . S
C787 C795 1.503 . S
C788 C787 1.410 . S
C788 C789 1.392 . S
C788 C791 1.511 . S
C789 C785 1.376 . S
C789 C788 1.392 . S
C789 H801 0.929 . S
C790 C786 1.531 . S
C790 H802 0.960 . S
C790 H803 0.962 . S
C790 H804 0.960 . S
C791 C788 1.511 . S
C791 H805 0.961 . S
C791 H806 0.961 . S
C791 H807 0.961 . S
C792 C793 1.370 . S
C792 C794 1.363 . S
C792 H808 0.931 . S
C793 C792 1.370 . S
C793 C797 1.408 . S
C794 C792 1.363 . S
C794 C795 1.370 . S
C794 C798 1.524 . S
C795 C787 1.503 . S
C795 C794 1.370 . S
C795 C796 1.403 . S
C796 C795 1.403 . S
C796 C797 1.404 . S
C796 C799 1.539 . S
C797 C793 1.408 . S
C797 C796 1.404 . S
C797 H809 0.930 . S
C798 C794 1.524 . S
C798 H810 0.956 . S
C798 H811 0.961 . S
C798 H812 0.961 . S
C799 C796 1.539 . S
C799 H813 0.958 . S
C799 H814 0.961 . S
C799 H815 0.960 . S
H800 C784 0.931 . S
H801 C789 0.929 . S
H802 C790 0.960 . S
H803 C790 0.962 . S
H804 C790 0.960 . S
H805 C791 0.961 . S
H806 C791 0.961 . S
H807 C791 0.961 . S
H808 C792 0.931 . S
H809 C797 0.930 . S
H810 C798 0.956 . S
H811 C798 0.961 . S
H812 C798 0.961 . S
H813 C799 0.958 . S
H814 C799 0.961 . S
H815 C799 0.960 . S
C816 C817 1.391 . S
C816 C818 1.394 . S
C816 H832 0.931 . S
C817 C816 1.391 . S
C817 C821 1.376 . S
C818 C816 1.394 . S
C818 C819 1.369 . S
C818 C822 1.531 . S
C819 C818 1.369 . S
C819 C820 1.410 . S
C819 C827 1.503 . S
C820 C819 1.410 . S
C820 C821 1.392 . S
C820 C823 1.511 . S
C821 C817 1.376 . S
C821 C820 1.392 . S
C821 H833 0.929 . S
C822 C818 1.531 . S
C822 H834 0.960 . S
C822 H835 0.962 . S
C822 H836 0.960 . S
C823 C820 1.511 . S
C823 H837 0.961 . S
C823 H838 0.961 . S
C823 H839 0.961 . S
C824 C825 1.370 . S
C824 C826 1.363 . S
C824 H840 0.931 . S
C825 C824 1.370 . S
C825 C829 1.408 . S
C826 C824 1.363 . S
C826 C827 1.370 . S
C826 C830 1.524 . S
C827 C819 1.503 . S
C827 C826 1.370 . S
C827 C828 1.403 . S
C828 C827 1.403 . S
C828 C829 1.404 . S
C828 C831 1.539 . S
C829 C825 1.408 . S
C829 C828 1.404 . S
C829 H841 0.930 . S
C830 C826 1.524 . S
C830 H842 0.956 . S
C830 H843 0.961 . S
C830 H844 0.961 . S
C831 C828 1.539 . S
C831 H845 0.958 . S
C831 H846 0.961 . S
C831 H847 0.960 . S
H832 C816 0.931 . S
H833 C821 0.929 . S
H834 C822 0.960 . S
H835 C822 0.962 . S
H836 C822 0.960 . S
H837 C823 0.961 . S
H838 C823 0.961 . S
H839 C823 0.961 . S
H840 C824 0.931 . S
H841 C829 0.930 . S
H842 C830 0.956 . S
H843 C830 0.961 . S
H844 C830 0.961 . S
H845 C831 0.958 . S
H846 C831 0.961 . S
H847 C831 0.960 . S
C848 C849 1.391 . S
C848 C850 1.394 . S
C848 H864 0.931 . S
C849 C848 1.391 . S
C849 C853 1.376 . S
C850 C848 1.394 . S
C850 C851 1.369 . S
C850 C854 1.531 . S
C851 C850 1.369 . S
C851 C852 1.410 . S
C851 C859 1.503 . S
C852 C851 1.410 . S
C852 C853 1.392 . S
C852 C855 1.511 . S
C853 C849 1.376 . S
C853 C852 1.392 . S
C853 H865 0.929 . S
C854 C850 1.531 . S
C854 H866 0.960 . S
C854 H867 0.962 . S
C854 H868 0.960 . S
C855 C852 1.511 . S
C855 H869 0.961 . S
C855 H870 0.961 . S
C855 H871 0.961 . S
C856 C857 1.370 . S
C856 C858 1.363 . S
C856 H872 0.931 . S
C857 C856 1.370 . S
C857 C861 1.408 . S
C858 C856 1.363 . S
C858 C859 1.370 . S
C858 C862 1.524 . S
C859 C851 1.503 . S
C859 C858 1.370 . S
C859 C860 1.403 . S
C860 C859 1.403 . S
C860 C861 1.404 . S
C860 C863 1.539 . S
C861 C857 1.408 . S
C861 C860 1.404 . S
C861 H873 0.930 . S
C862 C858 1.524 . S
C862 H874 0.956 . S
C862 H875 0.961 . S
C862 H876 0.961 . S
C863 C860 1.539 . S
C863 H877 0.958 . S
C863 H878 0.961 . S
C863 H879 0.960 . S
H864 C848 0.931 . S
H865 C853 0.929 . S
H866 C854 0.960 . S
H867 C854 0.962 . S
H868 C854 0.960 . S
H869 C855 0.961 . S
H870 C855 0.961 . S
H871 C855 0.961 . S
H872 C856 0.931 . S
H873 C861 0.930 . S
H874 C862 0.956 . S
H875 C862 0.961 . S
H876 C862 0.961 . S
H877 C863 0.958 . S
H878 C863 0.961 . S
H879 C863 0.960 . S
C880 C881 1.391 . S
C880 C882 1.394 . S
C880 H896 0.931 . S
C881 C880 1.391 . S
C881 C885 1.376 . S
C882 C880 1.394 . S
C882 C883 1.369 . S
C882 C886 1.531 . S
C883 C882 1.369 . S
C883 C884 1.410 . S
C883 C891 1.503 . S
C884 C883 1.410 . S
C884 C885 1.392 . S
C884 C887 1.511 . S
C885 C881 1.376 . S
C885 C884 1.392 . S
C885 H897 0.929 . S
C886 C882 1.531 . S
C886 H898 0.960 . S
C886 H899 0.962 . S
C886 H900 0.960 . S
C887 C884 1.511 . S
C887 H901 0.961 . S
C887 H902 0.961 . S
C887 H903 0.961 . S
C888 C889 1.370 . S
C888 C890 1.363 . S
C888 H904 0.931 . S
C889 C888 1.370 . S
C889 C893 1.408 . S
C890 C888 1.363 . S
C890 C891 1.370 . S
C890 C894 1.524 . S
C891 C883 1.503 . S
C891 C890 1.370 . S
C891 C892 1.403 . S
C892 C891 1.403 . S
C892 C893 1.404 . S
C892 C895 1.539 . S
C893 C889 1.408 . S
C893 C892 1.404 . S
C893 H905 0.930 . S
C894 C890 1.524 . S
C894 H906 0.956 . S
C894 H907 0.961 . S
C894 H908 0.961 . S
C895 C892 1.539 . S
C895 H909 0.958 . S
C895 H910 0.961 . S
C895 H911 0.960 . S
H896 C880 0.931 . S
H897 C885 0.929 . S
H898 C886 0.960 . S
H899 C886 0.962 . S
H900 C886 0.960 . S
H901 C887 0.961 . S
H902 C887 0.961 . S
H903 C887 0.961 . S
H904 C888 0.931 . S
H905 C893 0.930 . S
H906 C894 0.956 . S
H907 C894 0.961 . S
H908 C894 0.961 . S
H909 C895 0.958 . S
H910 C895 0.961 . S
H911 C895 0.960 . S
C912 C913 1.391 . S
C912 C914 1.394 . S
C912 H928 0.931 . S
C913 C912 1.391 . S
C913 C917 1.376 . S
C914 C912 1.394 . S
C914 C915 1.369 . S
C914 C918 1.531 . S
C915 C914 1.369 . S
C915 C916 1.410 . S
C915 C923 1.503 . S
C916 C915 1.410 . S
C916 C917 1.392 . S
C916 C919 1.511 . S
C917 C913 1.376 . S
C917 C916 1.392 . S
C917 H929 0.929 . S
C918 C914 1.531 . S
C918 H930 0.960 . S
C918 H931 0.962 . S
C918 H932 0.960 . S
C919 C916 1.511 . S
C919 H933 0.961 . S
C919 H934 0.961 . S
C919 H935 0.961 . S
C920 C921 1.370 . S
C920 C922 1.363 . S
C920 H936 0.931 . S
C921 C920 1.370 . S
C921 C925 1.408 . S
C922 C920 1.363 . S
C922 C923 1.370 . S
C922 C926 1.524 . S
C923 C915 1.503 . S
C923 C922 1.370 . S
C923 C924 1.403 . S
C924 C923 1.403 . S
C924 C925 1.404 . S
C924 C927 1.539 . S
C925 C921 1.408 . S
C925 C924 1.404 . S
C925 H937 0.930 . S
C926 C922 1.524 . S
C926 H938 0.956 . S
C926 H939 0.961 . S
C926 H940 0.961 . S
C927 C924 1.539 . S
C927 H941 0.958 . S
C927 H942 0.961 . S
C927 H943 0.960 . S
H928 C912 0.931 . S
H929 C917 0.929 . S
H930 C918 0.960 . S
H931 C918 0.962 . S
H932 C918 0.960 . S
H933 C919 0.961 . S
H934 C919 0.961 . S
H935 C919 0.961 . S
H936 C920 0.931 . S
H937 C925 0.930 . S
H938 C926 0.956 . S
H939 C926 0.961 . S
H940 C926 0.961 . S
H941 C927 0.958 . S
H942 C927 0.961 . S
H943 C927 0.960 . S
C177 C21 0.955 . S
C185 C87 0.935 . S
C209 C43 0.939 . S
C217 C65 0.926 . S
C241 C103 0.876 . S
C249 C175 0.889 . S
C273 C125 0.851 . S
C281 C139 0.879 . S
C305 C8 1.944 . S
C313 C98 1.948 . S
C337 C120 1.944 . S
C345 C30 1.943 . S
C369 C150 1.951 . S
C377 C52 1.940 . S
C401 C74 1.945 . S
C409 C162 1.947 . S
C433 C147 0.892 . S
C441 C18 0.915 . S
C465 C161 0.928 . S
C473 C40 0.915 . S
C497 C62 0.916 . S
C505 C109 0.911 . S
C529 C84 0.909 . S
C537 C131 0.897 . S
C561 C59 0.935 . S
C569 C106 0.914 . S
C593 C128 0.901 . S
C601 C81 0.893 . S
C625 C15 0.935 . S
C633 C140 0.914 . S
C657 C164 0.907 . S
C665 C37 0.884 . S
C689 C10 1.559 1_556 S
C697 C29 1.555 . S
C721 C7 1.555 . S
C729 C32 1.552 . S
C753 C73 1.556 . S
C761 C54 1.553 1_554 S
C785 C76 1.556 . S
C793 C51 1.554 . S
C817 C96 1.538 1_554 S
C825 C117 1.565 . S
C849 C95 1.555 . S
C857 C118 1.556 . S
C881 C169 1.551 . S
C889 C142 1.556 1_556 S
C913 C172 1.558 . S
C921 C153 1.565 . S
