# Generated by pormake.
# Topology ukv, (4)-cn, num edge types: 1
# Building blocks:
#     Node 0, Type 0, BuildingBlock: CEKHIL_clean_sbu_0, # of connection points: 4
#     Node 1, Type 0, BuildingBlock: CEKHIL_clean_sbu_0, # of connection points: 4
#     Node 2, Type 0, BuildingBlock: CEKHIL_clean_sbu_0, # of connection points: 4
#     Node 3, Type 0, BuildingBlock: CEKHIL_clean_sbu_0, # of connection points: 4
#     Node 4, Type 0, BuildingBlock: CEKHIL_clean_sbu_0, # of connection points: 4
#     Node 5, Type 0, BuildingBlock: CEKHIL_clean_sbu_0, # of connection points: 4
#     Node 6, Type 0, BuildingBlock: CEKHIL_clean_sbu_0, # of connection points: 4
#     Node 7, Type 0, BuildingBlock: CEKHIL_clean_sbu_0, # of connection points: 4
#     Node 8, Type 0, BuildingBlock: CEKHIL_clean_sbu_0, # of connection points: 4
#     Node 9, Type 0, BuildingBlock: CEKHIL_clean_sbu_0, # of connection points: 4
#     Node 10, Type 0, BuildingBlock: CEKHIL_clean_sbu_0, # of connection points: 4
#     Node 11, Type 0, BuildingBlock: CEKHIL_clean_sbu_0, # of connection points: 4
#     Node 12, Type 0, BuildingBlock: CEKHIL_clean_sbu_0, # of connection points: 4
#     Node 13, Type 0, BuildingBlock: CEKHIL_clean_sbu_0, # of connection points: 4
#     Node 14, Type 0, BuildingBlock: CEKHIL_clean_sbu_0, # of connection points: 4
#     Node 15, Type 0, BuildingBlock: CEKHIL_clean_sbu_0, # of connection points: 4
#     Node 16, Type 0, BuildingBlock: CEKHIL_clean_sbu_0, # of connection points: 4
#     Node 17, Type 0, BuildingBlock: CEKHIL_clean_sbu_0, # of connection points: 4
#     Node 18, Type 0, BuildingBlock: CEKHIL_clean_sbu_0, # of connection points: 4
#     Node 19, Type 0, BuildingBlock: CEKHIL_clean_sbu_0, # of connection points: 4
#     Node 20, Type 0, BuildingBlock: CEKHIL_clean_sbu_0, # of connection points: 4
#     Node 21, Type 0, BuildingBlock: CEKHIL_clean_sbu_0, # of connection points: 4
#     Node 22, Type 0, BuildingBlock: CEKHIL_clean_sbu_0, # of connection points: 4
#     Node 23, Type 0, BuildingBlock: CEKHIL_clean_sbu_0, # of connection points: 4
#     Node 24, Type 0, BuildingBlock: CEKHIL_clean_sbu_0, # of connection points: 4
#     Node 25, Type 0, BuildingBlock: CEKHIL_clean_sbu_0, # of connection points: 4
#     Node 26, Type 0, BuildingBlock: CEKHIL_clean_sbu_0, # of connection points: 4
#     Node 27, Type 0, BuildingBlock: CEKHIL_clean_sbu_0, # of connection points: 4
#     Node 28, Type 0, BuildingBlock: CEKHIL_clean_sbu_0, # of connection points: 4
#     Node 29, Type 0, BuildingBlock: CEKHIL_clean_sbu_0, # of connection points: 4
#     Node 30, Type 0, BuildingBlock: CEKHIL_clean_sbu_0, # of connection points: 4
#     Node 31, Type 0, BuildingBlock: CEKHIL_clean_sbu_0, # of connection points: 4
#     Node 32, Type 0, BuildingBlock: CEKHIL_clean_sbu_0, # of connection points: 4
#     Node 33, Type 0, BuildingBlock: CEKHIL_clean_sbu_0, # of connection points: 4
#     Node 34, Type 0, BuildingBlock: CEKHIL_clean_sbu_0, # of connection points: 4
#     Node 35, Type 0, BuildingBlock: CEKHIL_clean_sbu_0, # of connection points: 4
#     Edge 36, Type (0, 0), BuildingBlock: MIFKUJ_clean_linker_0, # of connection points: 2
#     Edge 37, Type (0, 0), BuildingBlock: MIFKUJ_clean_linker_0, # of connection points: 2
#     Edge 38, Type (0, 0), BuildingBlock: MIFKUJ_clean_linker_0, # of connection points: 2
#     Edge 39, Type (0, 0), BuildingBlock: MIFKUJ_clean_linker_0, # of connection points: 2
#     Edge 40, Type (0, 0), BuildingBlock: MIFKUJ_clean_linker_0, # of connection points: 2
#     Edge 41, Type (0, 0), BuildingBlock: MIFKUJ_clean_linker_0, # of connection points: 2
#     Edge 42, Type (0, 0), BuildingBlock: MIFKUJ_clean_linker_0, # of connection points: 2
#     Edge 43, Type (0, 0), BuildingBlock: MIFKUJ_clean_linker_0, # of connection points: 2
#     Edge 44, Type (0, 0), BuildingBlock: MIFKUJ_clean_linker_0, # of connection points: 2
#     Edge 45, Type (0, 0), BuildingBlock: MIFKUJ_clean_linker_0, # of connection points: 2
#     Edge 46, Type (0, 0), BuildingBlock: MIFKUJ_clean_linker_0, # of connection points: 2
#     Edge 47, Type (0, 0), BuildingBlock: MIFKUJ_clean_linker_0, # of connection points: 2
#     Edge 48, Type (0, 0), BuildingBlock: MIFKUJ_clean_linker_0, # of connection points: 2
#     Edge 49, Type (0, 0), BuildingBlock: MIFKUJ_clean_linker_0, # of connection points: 2
#     Edge 50, Type (0, 0), BuildingBlock: MIFKUJ_clean_linker_0, # of connection points: 2
#     Edge 51, Type (0, 0), BuildingBlock: MIFKUJ_clean_linker_0, # of connection points: 2
#     Edge 52, Type (0, 0), BuildingBlock: MIFKUJ_clean_linker_0, # of connection points: 2
#     Edge 53, Type (0, 0), BuildingBlock: MIFKUJ_clean_linker_0, # of connection points: 2
#     Edge 54, Type (0, 0), BuildingBlock: MIFKUJ_clean_linker_0, # of connection points: 2
#     Edge 55, Type (0, 0), BuildingBlock: MIFKUJ_clean_linker_0, # of connection points: 2
#     Edge 56, Type (0, 0), BuildingBlock: MIFKUJ_clean_linker_0, # of connection points: 2
#     Edge 57, Type (0, 0), BuildingBlock: MIFKUJ_clean_linker_0, # of connection points: 2
#     Edge 58, Type (0, 0), BuildingBlock: MIFKUJ_clean_linker_0, # of connection points: 2
#     Edge 59, Type (0, 0), BuildingBlock: MIFKUJ_clean_linker_0, # of connection points: 2
#     Edge 60, Type (0, 0), BuildingBlock: MIFKUJ_clean_linker_0, # of connection points: 2
#     Edge 61, Type (0, 0), BuildingBlock: MIFKUJ_clean_linker_0, # of connection points: 2
#     Edge 62, Type (0, 0), BuildingBlock: MIFKUJ_clean_linker_0, # of connection points: 2
#     Edge 63, Type (0, 0), BuildingBlock: MIFKUJ_clean_linker_0, # of connection points: 2
#     Edge 64, Type (0, 0), BuildingBlock: MIFKUJ_clean_linker_0, # of connection points: 2
#     Edge 65, Type (0, 0), BuildingBlock: MIFKUJ_clean_linker_0, # of connection points: 2
#     Edge 66, Type (0, 0), BuildingBlock: MIFKUJ_clean_linker_0, # of connection points: 2
#     Edge 67, Type (0, 0), BuildingBlock: MIFKUJ_clean_linker_0, # of connection points: 2
#     Edge 68, Type (0, 0), BuildingBlock: MIFKUJ_clean_linker_0, # of connection points: 2
#     Edge 69, Type (0, 0), BuildingBlock: MIFKUJ_clean_linker_0, # of connection points: 2
#     Edge 70, Type (0, 0), BuildingBlock: MIFKUJ_clean_linker_0, # of connection points: 2
#     Edge 71, Type (0, 0), BuildingBlock: MIFKUJ_clean_linker_0, # of connection points: 2
#     Edge 72, Type (0, 0), BuildingBlock: MIFKUJ_clean_linker_0, # of connection points: 2
#     Edge 73, Type (0, 0), BuildingBlock: MIFKUJ_clean_linker_0, # of connection points: 2
#     Edge 74, Type (0, 0), BuildingBlock: MIFKUJ_clean_linker_0, # of connection points: 2
#     Edge 75, Type (0, 0), BuildingBlock: MIFKUJ_clean_linker_0, # of connection points: 2
#     Edge 76, Type (0, 0), BuildingBlock: MIFKUJ_clean_linker_0, # of connection points: 2
#     Edge 77, Type (0, 0), BuildingBlock: MIFKUJ_clean_linker_0, # of connection points: 2
#     Edge 78, Type (0, 0), BuildingBlock: MIFKUJ_clean_linker_0, # of connection points: 2
#     Edge 79, Type (0, 0), BuildingBlock: MIFKUJ_clean_linker_0, # of connection points: 2
#     Edge 80, Type (0, 0), BuildingBlock: MIFKUJ_clean_linker_0, # of connection points: 2
#     Edge 81, Type (0, 0), BuildingBlock: MIFKUJ_clean_linker_0, # of connection points: 2
#     Edge 82, Type (0, 0), BuildingBlock: MIFKUJ_clean_linker_0, # of connection points: 2
#     Edge 83, Type (0, 0), BuildingBlock: MIFKUJ_clean_linker_0, # of connection points: 2
#     Edge 84, Type (0, 0), BuildingBlock: MIFKUJ_clean_linker_0, # of connection points: 2
#     Edge 85, Type (0, 0), BuildingBlock: MIFKUJ_clean_linker_0, # of connection points: 2
#     Edge 86, Type (0, 0), BuildingBlock: MIFKUJ_clean_linker_0, # of connection points: 2
#     Edge 87, Type (0, 0), BuildingBlock: MIFKUJ_clean_linker_0, # of connection points: 2
#     Edge 88, Type (0, 0), BuildingBlock: MIFKUJ_clean_linker_0, # of connection points: 2
#     Edge 89, Type (0, 0), BuildingBlock: MIFKUJ_clean_linker_0, # of connection points: 2
#     Edge 90, Type (0, 0), BuildingBlock: MIFKUJ_clean_linker_0, # of connection points: 2
#     Edge 91, Type (0, 0), BuildingBlock: MIFKUJ_clean_linker_0, # of connection points: 2
#     Edge 92, Type (0, 0), BuildingBlock: MIFKUJ_clean_linker_0, # of connection points: 2
#     Edge 93, Type (0, 0), BuildingBlock: MIFKUJ_clean_linker_0, # of connection points: 2
#     Edge 94, Type (0, 0), BuildingBlock: MIFKUJ_clean_linker_0, # of connection points: 2
#     Edge 95, Type (0, 0), BuildingBlock: MIFKUJ_clean_linker_0, # of connection points: 2
#     Edge 96, Type (0, 0), BuildingBlock: MIFKUJ_clean_linker_0, # of connection points: 2
#     Edge 97, Type (0, 0), BuildingBlock: MIFKUJ_clean_linker_0, # of connection points: 2
#     Edge 98, Type (0, 0), BuildingBlock: MIFKUJ_clean_linker_0, # of connection points: 2
#     Edge 99, Type (0, 0), BuildingBlock: MIFKUJ_clean_linker_0, # of connection points: 2
#     Edge 100, Type (0, 0), BuildingBlock: MIFKUJ_clean_linker_0, # of connection points: 2
#     Edge 101, Type (0, 0), BuildingBlock: MIFKUJ_clean_linker_0, # of connection points: 2
#     Edge 102, Type (0, 0), BuildingBlock: MIFKUJ_clean_linker_0, # of connection points: 2
#     Edge 103, Type (0, 0), BuildingBlock: MIFKUJ_clean_linker_0, # of connection points: 2
#     Edge 104, Type (0, 0), BuildingBlock: MIFKUJ_clean_linker_0, # of connection points: 2
#     Edge 105, Type (0, 0), BuildingBlock: MIFKUJ_clean_linker_0, # of connection points: 2
#     Edge 106, Type (0, 0), BuildingBlock: MIFKUJ_clean_linker_0, # of connection points: 2
#     Edge 107, Type (0, 0), BuildingBlock: MIFKUJ_clean_linker_0, # of connection points: 2
# Relax obj value: 0.236
# Max RMSD: 0.136
# Mean RMSD: 0.136
data_MOF--net-ukv--node1-CEKHIL_clean_sbu_0--edge1-MIFKUJ_clean_linker_0
_symmetry_space_group_name_H-M    P1
_symmetry_Int_Tables_number       1
_symmetry_cell_setting            triclinic
loop_
_symmetry_equiv_pos_as_xyz
'x, y, z'
_cell_length_a     122.33814
_cell_length_b     122.37027
_cell_length_c     27.559421
_cell_angle_alpha  90.031384
_cell_angle_beta   89.994502
_cell_angle_gamma 119.99102
loop_
_atom_site_label
_atom_site_type_symbol
_atom_site_fract_x
_atom_site_fract_y
_atom_site_fract_z
_atom_type_partial_charge
Co0 Co 0.25629 0.06956 0.08276 0.0
O1 O 0.2536 0.05532 0.1205 0.0
O2 O 0.23902 0.05612 0.07494 0.0
C3 C 0.2749 0.07361 0.05077 0.0
O4 O 0.25585 0.08242 0.03743 0.0
Co5 Co 0.27938 0.09604 0.10552 0.0
O6 O 0.2728 0.10164 0.05084 0.0
C7 C 0.25742 0.08516 0.17031 0.0
C8 C 0.24212 0.04976 0.10408 0.0
C9 C 0.26259 0.09428 0.02853 0.0
O10 O 0.25104 0.07649 0.13895 0.0
O11 O 0.26927 0.09288 0.16639 0.0
O12 O 0.26438 0.06488 0.03199 0.0
O13 O 0.27381 0.07861 0.09036 0.0
Co14 Co 0.92224 0.18727 0.08423 0.0
O15 O 0.93407 0.19663 0.13477 0.0
O16 O 0.93502 0.18242 0.08776 0.0
C17 C 0.92172 0.20399 0.05207 0.0
O18 O 0.91225 0.17615 0.02734 0.0
Co19 Co 0.89612 0.18575 0.07648 0.0
O20 O 0.89565 0.17869 0.01123 0.0
C21 C 0.90029 0.17046 0.1499 0.0
C22 C 0.93994 0.19066 0.12256 0.0
C23 C 0.90284 0.17428 0.00061 0.0
O24 O 0.91119 0.17359 0.13181 0.0
O25 O 0.89353 0.17511 0.13527 0.0
O26 O 0.93075 0.20182 0.04027 0.0
O27 O 0.91404 0.19665 0.08472 0.0
Co28 Co 0.81236 0.73804 0.06915 0.0
O29 O 0.80348 0.73888 0.12503 0.0
O30 O 0.81703 0.75541 0.08175 0.0
C31 C 0.79535 0.72157 0.03473 0.0
O32 O 0.82292 0.74085 0.00841 0.0
Co33 Co 0.81413 0.71411 0.04584 0.0
O34 O 0.81959 0.72212 0.98119 0.0
C35 C 0.83067 0.73214 0.12133 0.0
C36 C 0.80918 0.75097 0.11798 0.0
C37 C 0.82407 0.73395 0.9759 0.0
O38 O 0.82663 0.73978 0.11136 0.0
O39 O 0.82626 0.72127 0.10146 0.0
O40 O 0.79737 0.73297 0.02869 0.0
O41 O 0.80308 0.72048 0.0633 0.0
Co42 Co 0.074 0.26018 0.4114 0.0
O43 O 0.06373 0.25943 0.35743 0.0
O44 O 0.06089 0.24291 0.40051 0.0
C45 C 0.07438 0.27696 0.44713 0.0
O46 O 0.08221 0.25725 0.47041 0.0
Co47 Co 0.10028 0.28363 0.43126 0.0
O48 O 0.09795 0.27592 0.49644 0.0
C49 C 0.09758 0.26489 0.3569 0.0
C50 C 0.05722 0.24736 0.3652 0.0
C51 C 0.0905 0.26413 0.50223 0.0
O52 O 0.08578 0.25789 0.36682 0.0
O53 O 0.10468 0.27563 0.37685 0.0
O54 O 0.06486 0.26569 0.45408 0.0
O55 O 0.08277 0.27779 0.41674 0.0
Co56 Co 0.73618 0.81001 0.41302 0.0
O57 O 0.73913 0.80105 0.36236 0.0
O58 O 0.75338 0.81341 0.41659 0.0
C59 C 0.71742 0.79383 0.43723 0.0
O60 O 0.73648 0.82031 0.47136 0.0
Co61 Co 0.713 0.81408 0.4086 0.0
O62 O 0.71877 0.82162 0.47381 0.0
C63 C 0.7358 0.83036 0.3506 0.0
C64 C 0.75052 0.80593 0.37934 0.0
C65 C 0.72933 0.8239 0.49157 0.0
O66 O 0.74167 0.82513 0.36947 0.0
O67 O 0.72414 0.82658 0.35872 0.0
O68 O 0.72787 0.7947 0.45263 0.0
O69 O 0.71866 0.80194 0.40474 0.0
Co70 Co 0.18026 0.92386 0.44169 0.0
O71 O 0.18919 0.9315 0.38272 0.0
O72 O 0.17669 0.93684 0.4217 0.0
C73 C 0.19662 0.92397 0.47987 0.0
O74 O 0.16976 0.91855 0.5035 0.0
Co75 Co 0.17615 0.89811 0.47871 0.0
O76 O 0.17178 0.90331 0.54039 0.0
C77 C 0.16065 0.89888 0.39768 0.0
C78 C 0.18412 0.93861 0.38516 0.0
C79 C 0.16812 0.9114 0.54015 0.0
O80 O 0.16548 0.91087 0.40296 0.0
O81 O 0.16417 0.89231 0.42239 0.0
O82 O 0.1957 0.9341 0.47952 0.0
O83 O 0.1883 0.91463 0.45466 0.0
Co84 Co 0.74371 0.92246 0.93148 0.0
O85 O 0.7433 0.93059 0.87221 0.0
O86 O 0.76038 0.93608 0.9167 0.0
C87 C 0.72628 0.92133 0.96444 0.0
O88 O 0.74811 0.91694 0.9947 0.0
Co89 Co 0.72234 0.89596 0.96285 0.0
O90 O 0.73066 0.90083 0.02705 0.0
C91 C 0.74093 0.89829 0.88899 0.0
C92 C 0.75535 0.938 0.87849 0.0
C93 C 0.74224 0.90932 0.02979 0.0
O94 O 0.74703 0.91036 0.89352 0.0
O95 O 0.73074 0.89098 0.91185 0.0
O96 O 0.73709 0.93173 0.96749 0.0
O97 O 0.72623 0.91241 0.93924 0.0
Co98 Co 0.07198 0.81111 0.92032 0.0
O99 O 0.05798 0.79981 0.88085 0.0
O100 O 0.0585 0.81498 0.92675 0.0
C101 C 0.07584 0.79643 0.95247 0.0
O102 O 0.08455 0.82413 0.96731 0.0
Co103 Co 0.09853 0.81453 0.90006 0.0
O104 O 0.10345 0.82536 0.95878 0.0
C105 C 0.08838 0.82636 0.8352 0.0
C106 C 0.05237 0.80578 0.89621 0.0
C107 C 0.09616 0.82855 0.97963 0.0
O108 O 0.07925 0.82349 0.86496 0.0
O109 O 0.0963 0.8225 0.84018 0.0
O110 O 0.06705 0.79821 0.97069 0.0
O111 O 0.08098 0.80256 0.91313 0.0
Co112 Co 0.18887 0.26299 0.9049 0.0
O113 O 0.19755 0.25981 0.85394 0.0
O114 O 0.18358 0.24521 0.90335 0.0
C115 C 0.20597 0.28019 0.93474 0.0
O116 O 0.1784 0.26287 0.96247 0.0
Co117 Co 0.18817 0.28808 0.90757 0.0
O118 O 0.18141 0.28238 0.97383 0.0
C119 C 0.17078 0.26728 0.84273 0.0
C120 C 0.19143 0.24808 0.86734 0.0
C121 C 0.17687 0.27094 0.98715 0.0
O122 O 0.17479 0.26007 0.85915 0.0
O123 O 0.17548 0.27886 0.85519 0.0
O124 O 0.20359 0.26899 0.94748 0.0
O125 O 0.1987 0.28056 0.90175 0.0
Co126 Co 0.92448 0.73572 0.57973 0.0
O127 O 0.93498 0.73804 0.63467 0.0
O128 O 0.93726 0.75336 0.58545 0.0
C129 C 0.92449 0.71851 0.55018 0.0
O130 O 0.91557 0.73665 0.5187 0.0
Co131 Co 0.89841 0.71107 0.57031 0.0
O132 O 0.89957 0.71711 0.50275 0.0
C133 C 0.90115 0.73154 0.63536 0.0
C134 C 0.94115 0.74991 0.62329 0.0
C135 C 0.90671 0.72863 0.49096 0.0
O136 O 0.91262 0.73865 0.62132 0.0
O137 O 0.8943 0.72005 0.62171 0.0
O138 O 0.93385 0.72971 0.54079 0.0
O139 O 0.91627 0.71813 0.58046 0.0
Co140 Co 0.25954 0.18395 0.57058 0.0
O141 O 0.25862 0.19436 0.62074 0.0
O142 O 0.24252 0.18095 0.57514 0.0
C143 C 0.27758 0.19919 0.53698 0.0
O144 O 0.25677 0.17198 0.51458 0.0
Co145 Co 0.28192 0.17881 0.56255 0.0
O146 O 0.2748 0.17217 0.49756 0.0
C147 C 0.26169 0.16492 0.63473 0.0
C148 C 0.24672 0.18921 0.61004 0.0
C149 C 0.2634 0.1689 0.48769 0.0
O150 O 0.25549 0.17016 0.61924 0.0
O151 O 0.27253 0.16751 0.61842 0.0
O152 O 0.26684 0.1983 0.5256 0.0
O153 O 0.27711 0.19154 0.57011 0.0
Co154 Co 0.81058 0.06918 0.5896 0.0
O155 O 0.8002 0.05488 0.62957 0.0
O156 O 0.8167 0.05735 0.58711 0.0
C157 C 0.79451 0.07003 0.55332 0.0
O158 O 0.82307 0.08229 0.54263 0.0
Co159 Co 0.80983 0.09412 0.60082 0.0
O160 O 0.82007 0.09898 0.54052 0.0
C161 C 0.82369 0.08763 0.67221 0.0
C162 C 0.80736 0.05041 0.61602 0.0
C163 C 0.82539 0.09297 0.52491 0.0
O164 O 0.82214 0.07825 0.64599 0.0
O165 O 0.8185 0.09424 0.66265 0.0
O166 O 0.79803 0.06226 0.53747 0.0
O167 O 0.8 0.07608 0.59236 0.0
Co168 Co 0.92406 0.4028 0.40543 0.0
O169 O 0.9194 0.38919 0.44988 0.0
O170 O 0.90583 0.39264 0.40886 0.0
C171 C 0.93917 0.40074 0.36674 0.0
O172 O 0.9255 0.41566 0.35547 0.0
Co173 Co 0.95126 0.42592 0.40831 0.0
O174 O 0.94592 0.43053 0.34732 0.0
C175 C 0.93281 0.42322 0.48301 0.0
C176 C 0.90775 0.38587 0.44042 0.0
C177 C 0.93438 0.42547 0.3344 0.0
O178 O 0.92398 0.41382 0.45978 0.0
O179 O 0.94445 0.42857 0.47068 0.0
O180 O 0.92741 0.39371 0.35421 0.0
O181 O 0.94119 0.40778 0.40429 0.0
Co182 Co 0.59656 0.52296 0.41039 0.0
O183 O 0.61178 0.53271 0.44673 0.0
O184 O 0.60734 0.51569 0.40323 0.0
C185 C 0.59601 0.53942 0.3762 0.0
O186 O 0.58222 0.51093 0.36676 0.0
Co187 Co 0.57283 0.52528 0.43171 0.0
O188 O 0.56598 0.51456 0.37284 0.0
C189 C 0.57953 0.51062 0.49762 0.0
C190 C 0.61515 0.5248 0.43136 0.0
C191 C 0.57127 0.50889 0.35367 0.0
O192 O 0.5881 0.51166 0.46789 0.0
O193 O 0.57332 0.5164 0.49223 0.0
O194 O 0.60306 0.53531 0.35763 0.0
O195 O 0.59066 0.53436 0.41685 0.0
Co196 Co 0.47693 0.07264 0.41908 0.0
O197 O 0.46637 0.07714 0.45471 0.0
O198 O 0.4828 0.09041 0.41003 0.0
C199 C 0.46146 0.05467 0.3865 0.0
O200 O 0.48953 0.07113 0.37606 0.0
Co201 Co 0.47693 0.04794 0.44624 0.0
O202 O 0.48864 0.05255 0.39012 0.0
C203 C 0.48984 0.07013 0.50912 0.0
C204 C 0.47357 0.08853 0.43877 0.0
C205 C 0.493 0.06299 0.36737 0.0
O206 O 0.4886 0.07691 0.47642 0.0
O207 O 0.4845 0.0581 0.50663 0.0
O208 O 0.4645 0.06548 0.36674 0.0
O209 O 0.46675 0.05526 0.42761 0.0
Co210 Co 0.73748 0.59361 0.74442 0.0
O211 O 0.72749 0.59048 0.6871 0.0
O212 O 0.72671 0.57561 0.7353 0.0
C213 C 0.73425 0.60893 0.77392 0.0
O214 O 0.74604 0.59321 0.80715 0.0
Co215 Co 0.76117 0.61979 0.76362 0.0
O216 O 0.75982 0.61306 0.83014 0.0
C217 C 0.76274 0.60185 0.69557 0.0
C218 C 0.72264 0.57856 0.69662 0.0
C219 C 0.75369 0.60122 0.83826 0.0
O220 O 0.75128 0.59338 0.70517 0.0
O221 O 0.76803 0.61306 0.71294 0.0
O222 O 0.72598 0.59717 0.78186 0.0
O223 O 0.74354 0.61098 0.74605 0.0
Co224 Co 0.40808 0.148 0.75004 0.0
O225 O 0.41084 0.13643 0.71242 0.0
O226 O 0.42588 0.15356 0.74879 0.0
C227 C 0.39141 0.13337 0.7926 0.0
O228 O 0.40881 0.1618 0.79324 0.0
Co229 Co 0.38291 0.14842 0.74045 0.0
O230 O 0.38999 0.16093 0.79392 0.0
C231 C 0.40161 0.15837 0.66187 0.0
C232 C 0.42275 0.14367 0.72198 0.0
C233 C 0.40137 0.16564 0.80844 0.0
O234 O 0.40997 0.15829 0.68998 0.0
O235 O 0.38995 0.1534 0.67339 0.0
O236 O 0.40281 0.13651 0.80602 0.0
O237 O 0.39056 0.13818 0.7522 0.0
Co238 Co 0.8533 0.26549 0.75226 0.0
O239 O 0.86241 0.27966 0.71008 0.0
O240 O 0.84505 0.27546 0.75052 0.0
C241 C 0.87038 0.26734 0.79081 0.0
O242 O 0.8417 0.25228 0.80071 0.0
Co243 Co 0.85738 0.24238 0.74911 0.0
O244 O 0.84794 0.23802 0.81141 0.0
C245 C 0.84229 0.24566 0.67283 0.0
C246 C 0.85401 0.28278 0.72086 0.0
C247 C 0.84119 0.24285 0.82333 0.0
O248 O 0.84255 0.25486 0.69645 0.0
O249 O 0.8485 0.24025 0.68566 0.0
O250 O 0.86551 0.27415 0.8046 0.0
O251 O 0.86547 0.26053 0.75271 0.0
Co252 Co 0.4115 0.26422 0.24341 0.0
O253 O 0.41636 0.27945 0.2086 0.0
O254 O 0.42951 0.27559 0.25099 0.0
C255 C 0.39401 0.2626 0.27764 0.0
O256 O 0.40951 0.24968 0.28537 0.0
Co257 Co 0.38593 0.24024 0.21726 0.0
O258 O 0.38986 0.2332 0.27523 0.0
C259 C 0.40771 0.24868 0.15236 0.0
C260 C 0.42775 0.28321 0.22342 0.0
C261 C 0.40062 0.23847 0.29604 0.0
O262 O 0.41493 0.25657 0.18466 0.0
O263 O 0.39568 0.2423 0.15619 0.0
O264 O 0.40501 0.26994 0.29695 0.0
O265 O 0.39421 0.25775 0.23639 0.0
Co266 Co 0.74034 0.14651 0.25008 0.0
O267 O 0.72562 0.13612 0.21225 0.0
O268 O 0.72932 0.15364 0.25056 0.0
C269 C 0.7403 0.13033 0.2894 0.0
O270 O 0.75412 0.15928 0.29437 0.0
Co271 Co 0.7644 0.14408 0.24093 0.0
O272 O 0.77041 0.15568 0.29743 0.0
C273 C 0.75841 0.15737 0.16501 0.0
C274 C 0.7219 0.14403 0.22359 0.0
C275 C 0.76486 0.16159 0.31139 0.0
O276 O 0.74942 0.15685 0.19104 0.0
O277 O 0.76457 0.15184 0.17678 0.0
O278 O 0.73323 0.13476 0.30489 0.0
O279 O 0.74634 0.13519 0.24972 0.0
Co280 Co 0.84879 0.59009 0.24496 0.0
O281 O 0.85568 0.58843 0.1846 0.0
O282 O 0.84468 0.57277 0.23591 0.0
C283 C 0.86638 0.60772 0.26992 0.0
O284 O 0.84052 0.58825 0.31108 0.0
Co285 Co 0.84648 0.61375 0.26866 0.0
O286 O 0.8451 0.60757 0.33603 0.0
C287 C 0.82763 0.59362 0.20461 0.0
C288 C 0.85095 0.57659 0.19544 0.0
C289 C 0.84101 0.59591 0.34415 0.0
O290 O 0.83277 0.58675 0.21101 0.0
O291 O 0.83207 0.60471 0.22241 0.0
O292 O 0.86533 0.59672 0.27641 0.0
O293 O 0.85738 0.60771 0.24557 0.0
Co294 Co 0.59195 0.07267 0.91358 0.0
O295 O 0.60245 0.07403 0.96756 0.0
O296 O 0.60451 0.09016 0.92385 0.0
C297 C 0.59239 0.05623 0.87879 0.0
O298 O 0.58326 0.07505 0.85494 0.0
Co299 Co 0.5663 0.04851 0.89244 0.0
O300 O 0.56861 0.05607 0.82695 0.0
C301 C 0.56817 0.06653 0.96892 0.0
C302 C 0.60847 0.08611 0.9596 0.0
C303 C 0.57544 0.06797 0.8222 0.0
O304 O 0.57982 0.0742 0.9586 0.0
O305 O 0.56152 0.05578 0.94834 0.0
O306 O 0.60153 0.06766 0.87088 0.0
O307 O 0.58383 0.05511 0.90882 0.0
Co308 Co 0.92982 0.52201 0.90541 0.0
O309 O 0.92652 0.53077 0.95576 0.0
O310 O 0.91187 0.51613 0.90829 0.0
C311 C 0.94645 0.53926 0.87331 0.0
O312 O 0.9298 0.51114 0.84926 0.0
Co313 Co 0.95554 0.52254 0.9024 0.0
O314 O 0.94951 0.5147 0.83778 0.0
C315 C 0.93611 0.50669 0.97459 0.0
C316 C 0.91471 0.52409 0.94394 0.0
C317 C 0.93797 0.50964 0.82508 0.0
O318 O 0.92793 0.5088 0.95377 0.0
O319 O 0.94774 0.51213 0.96197 0.0
O320 O 0.93504 0.53626 0.86069 0.0
O321 O 0.94731 0.53244 0.90693 0.0
Co322 Co 0.47977 0.40898 0.90886 0.0
O323 O 0.46984 0.39572 0.95346 0.0
O324 O 0.48625 0.39742 0.91277 0.0
C325 C 0.46336 0.4086 0.87014 0.0
O326 O 0.49201 0.42127 0.85905 0.0
Co327 Co 0.47838 0.4337 0.91168 0.0
O328 O 0.48981 0.43845 0.8548 0.0
C329 C 0.4918 0.42847 0.98866 0.0
C330 C 0.47731 0.39132 0.94439 0.0
C331 C 0.49485 0.43205 0.84076 0.0
O332 O 0.49122 0.41934 0.96354 0.0
O333 O 0.4861 0.43445 0.97669 0.0
O334 O 0.46709 0.40074 0.85761 0.0
O335 O 0.4689 0.41552 0.90742 0.0
Co336 Co 0.58614 0.73586 0.74157 0.0
O337 O 0.58249 0.72174 0.78216 0.0
O338 O 0.56807 0.7246 0.74464 0.0
C339 C 0.6019 0.73568 0.69988 0.0
O340 O 0.5864 0.74885 0.69497 0.0
Co341 Co 0.61249 0.76028 0.74415 0.0
O342 O 0.60668 0.76341 0.68099 0.0
C343 C 0.59395 0.75531 0.82215 0.0
C344 C 0.57069 0.71763 0.77245 0.0
C345 C 0.59497 0.75816 0.67068 0.0
O346 O 0.58538 0.7457 0.79898 0.0
O347 O 0.60547 0.76162 0.80819 0.0
O348 O 0.59023 0.72816 0.6873 0.0
O349 O 0.60353 0.74213 0.73889 0.0
Co350 Co 0.2601 0.85444 0.74729 0.0
O351 O 0.27331 0.86461 0.79196 0.0
O352 O 0.27243 0.84895 0.74841 0.0
C353 C 0.25882 0.87031 0.71114 0.0
O354 O 0.24802 0.84211 0.69719 0.0
Co355 Co 0.23432 0.85381 0.7561 0.0
O356 O 0.22977 0.84246 0.69905 0.0
C357 C 0.24148 0.84109 0.82869 0.0
C358 C 0.27823 0.85766 0.7811 0.0
C359 C 0.23675 0.83837 0.68187 0.0
O360 O 0.25043 0.84217 0.80097 0.0
O361 O 0.23502 0.84647 0.82013 0.0
O362 O 0.26752 0.8678 0.69762 0.0
O363 O 0.25234 0.86418 0.74848 0.0
Co364 Co 0.14275 0.4053 0.7557 0.0
O365 O 0.1343 0.41055 0.80066 0.0
O366 O 0.15061 0.4235 0.75461 0.0
C367 C 0.12531 0.38948 0.72119 0.0
O368 O 0.15366 0.40332 0.70485 0.0
Co369 Co 0.13924 0.37834 0.76295 0.0
O370 O 0.14916 0.38312 0.70179 0.0
C371 C 0.15505 0.39779 0.83441 0.0
C372 C 0.14236 0.42199 0.78754 0.0
C373 C 0.15502 0.39444 0.68608 0.0
O374 O 0.15458 0.40632 0.80873 0.0
O375 O 0.14857 0.38598 0.82494 0.0
O376 O 0.12964 0.40102 0.70651 0.0
O377 O 0.13086 0.38813 0.75855 0.0
Co378 Co 0.40459 0.92377 0.07249 0.0
O379 O 0.38887 0.91874 0.04091 0.0
O380 O 0.39414 0.90554 0.07451 0.0
C381 C 0.40527 0.93972 0.11578 0.0
O382 O 0.41982 0.92582 0.11013 0.0
Co383 Co 0.42733 0.95074 0.05301 0.0
O384 O 0.43536 0.94612 0.10561 0.0
C385 C 0.41989 0.93092 0.97907 0.0
C386 C 0.38583 0.90723 0.05127 0.0
C387 C 0.43081 0.93492 0.12197 0.0
O388 O 0.41232 0.92255 0.00937 0.0
O389 O 0.42563 0.94278 0.98789 0.0
O390 O 0.39867 0.92819 0.13147 0.0
O391 O 0.40994 0.94092 0.07293 0.0
Co392 Co 0.06808 0.47798 0.07146 0.0
O393 O 0.07239 0.47114 0.01669 0.0
O394 O 0.08603 0.48423 0.07104 0.0
C395 C 0.05124 0.45966 0.09595 0.0
O396 O 0.06729 0.48677 0.13306 0.0
Co397 Co 0.04215 0.47696 0.07816 0.0
O398 O 0.04746 0.48273 0.14556 0.0
C399 C 0.06267 0.49642 0.01748 0.0
C400 C 0.08396 0.47751 0.03199 0.0
C401 C 0.05892 0.48748 0.15901 0.0
O402 O 0.07036 0.49269 0.03076 0.0
O403 O 0.05107 0.491 0.03036 0.0
O404 O 0.06258 0.4624 0.10835 0.0
O405 O 0.05056 0.46743 0.06624 0.0
Co406 Co 0.51829 0.59205 0.08256 0.0
O407 O 0.52557 0.60196 0.02523 0.0
O408 O 0.51183 0.60344 0.07323 0.0
C409 C 0.53646 0.59429 0.11244 0.0
O410 O 0.50908 0.5839 0.14526 0.0
Co411 Co 0.51941 0.56766 0.1038 0.0
O412 O 0.51446 0.56976 0.17018 0.0
C413 C 0.5008 0.56708 0.0331 0.0
C414 C 0.51892 0.60729 0.03474 0.0
C415 C 0.50917 0.57633 0.17735 0.0
O416 O 0.50399 0.57858 0.04301 0.0
O417 O 0.50636 0.5615 0.0512 0.0
O418 O 0.53358 0.60303 0.12013 0.0
O419 O 0.52886 0.58515 0.08473 0.0
Co420 Co 0.0736 0.59573 0.56427 0.0
O421 O 0.07894 0.60857 0.51589 0.0
O422 O 0.09187 0.60556 0.56315 0.0
C423 C 0.05833 0.59852 0.59751 0.0
O424 O 0.07132 0.5836 0.61874 0.0
Co425 Co 0.04603 0.57295 0.55941 0.0
O426 O 0.05105 0.5678 0.61983 0.0
C427 C 0.06527 0.57413 0.49204 0.0
C428 C 0.09042 0.61185 0.52806 0.0
C429 C 0.06225 0.57339 0.6368 0.0
O430 O 0.07395 0.58368 0.51506 0.0
O431 O 0.05349 0.56939 0.50106 0.0
O432 O 0.07003 0.60577 0.61034 0.0
O433 O 0.05657 0.59104 0.56174 0.0
Co434 Co 0.40472 0.4785 0.57378 0.0
O435 O 0.39405 0.47183 0.51803 0.0
O436 O 0.39348 0.48534 0.57013 0.0
C437 C 0.40246 0.46001 0.59976 0.0
O438 O 0.41404 0.48712 0.63597 0.0
Co439 Co 0.42906 0.47656 0.58311 0.0
O440 O 0.42835 0.48116 0.65159 0.0
C441 C 0.42909 0.4963 0.52087 0.0
C442 C 0.38905 0.47857 0.53097 0.0
C443 C 0.4222 0.4866 0.66393 0.0
O444 O 0.41777 0.493 0.53413 0.0
O445 O 0.43482 0.49042 0.53395 0.0
O446 O 0.394 0.46308 0.61071 0.0
O447 O 0.41117 0.46754 0.57039 0.0
Co448 Co 0.52125 0.92621 0.57397 0.0
O449 O 0.53158 0.92153 0.53765 0.0
O450 O 0.51383 0.908 0.57491 0.0
C451 C 0.53733 0.94229 0.61397 0.0
O452 O 0.50848 0.92773 0.61647 0.0
Co453 Co 0.52447 0.95294 0.56062 0.0
O454 O 0.51281 0.94789 0.61692 0.0
C455 C 0.51198 0.93359 0.48486 0.0
C456 C 0.52343 0.90993 0.54838 0.0
C457 C 0.50655 0.93654 0.63208 0.0
O458 O 0.51132 0.92501 0.51368 0.0
O459 O 0.51805 0.94538 0.49499 0.0
O460 O 0.53268 0.93081 0.62996 0.0
O461 O 0.53283 0.94343 0.57332 0.0
Co462 Co 0.26002 0.40768 0.25759 0.0
O463 O 0.27497 0.41284 0.2953 0.0
O464 O 0.27019 0.42591 0.25747 0.0
C465 C 0.2608 0.39216 0.21655 0.0
O466 O 0.24585 0.40577 0.21355 0.0
Co467 Co 0.23698 0.38058 0.26882 0.0
O468 O 0.23028 0.38548 0.21239 0.0
C469 C 0.24202 0.39975 0.34353 0.0
C470 C 0.27804 0.42433 0.28435 0.0
C471 C 0.23527 0.39684 0.19736 0.0
O472 O 0.25061 0.40836 0.31666 0.0
O473 O 0.23643 0.38799 0.33302 0.0
O474 O 0.26756 0.40381 0.20231 0.0
O475 O 0.25492 0.39052 0.25708 0.0
Co476 Co 0.59451 0.85575 0.23878 0.0
O477 O 0.59101 0.86468 0.28797 0.0
O478 O 0.57657 0.84963 0.24122 0.0
C479 C 0.61121 0.87291 0.20601 0.0
O480 O 0.5945 0.84479 0.18324 0.0
Co481 Co 0.62014 0.85612 0.23552 0.0
O482 O 0.61418 0.84841 0.17065 0.0
C483 C 0.60025 0.83924 0.30455 0.0
C484 C 0.57923 0.85783 0.27577 0.0
C485 C 0.60259 0.8433 0.15856 0.0
O486 O 0.59253 0.84253 0.28738 0.0
O487 O 0.61176 0.84415 0.29074 0.0
O488 O 0.59979 0.86994 0.19362 0.0
O489 O 0.61204 0.86615 0.24007 0.0
Co490 Co 0.14788 0.7355 0.2466 0.0
O491 O 0.13861 0.72057 0.28493 0.0
O492 O 0.15594 0.72539 0.24293 0.0
C493 C 0.13125 0.73504 0.20958 0.0
O494 O 0.15954 0.74957 0.20141 0.0
Co495 Co 0.14436 0.75875 0.26256 0.0
O496 O 0.15541 0.76553 0.20452 0.0
C497 C 0.15916 0.75334 0.33254 0.0
C498 C 0.14699 0.71762 0.27168 0.0
C499 C 0.16126 0.76027 0.18669 0.0
O500 O 0.15883 0.74487 0.30397 0.0
O501 O 0.15289 0.75898 0.32504 0.0
O502 O 0.13574 0.72809 0.19338 0.0
O503 O 0.13598 0.7408 0.24998 0.0
H504 H 0.20017 0.94492 0.30855 0.0
H505 H 0.20676 0.96269 0.25325 0.0
H506 H 0.18145 0.9726 0.32382 0.0
H507 H 0.17475 0.95476 0.3797 0.0
H508 H 0.18313 0.97524 0.2163 0.0
H509 H 0.20899 0.98787 0.36048 0.0
H510 H 0.22217 0.98575 0.42329 0.0
H511 H 0.24824 0.98797 0.31406 0.0
H512 H 0.2351 0.98991 0.2505 0.0
H513 H 0.21774 0.04022 0.13384 0.0
H514 H 0.20464 0.01985 0.17432 0.0
H515 H 0.23335 0.0099 0.14687 0.0
H516 H 0.24664 0.03044 0.10936 0.0
H517 H 0.22825 0.00756 0.23702 0.0
H518 H 0.20268 0.99478 0.09181 0.0
H519 H 0.18946 0.99644 0.02795 0.0
H520 H 0.1631 0.99431 0.13563 0.0
H521 H 0.17624 0.9928 0.20021 0.0
C522 C 0.19586 0.95076 0.31199 0.0
C523 C 0.18707 0.94856 0.34885 0.0
C524 C 0.19961 0.96087 0.28025 0.0
C525 C 0.19463 0.96895 0.2848 0.0
C526 C 0.18534 0.96641 0.31979 0.0
C527 C 0.18161 0.95629 0.35182 0.0
C528 C 0.20021 0.98074 0.25643 0.0
C529 C 0.19296 0.98242 0.22095 0.0
C530 C 0.21303 0.98997 0.26249 0.0
C531 C 0.221 0.98892 0.30072 0.0
C532 C 0.21748 0.9878 0.34982 0.0
C533 C 0.22495 0.98665 0.38556 0.0
C534 C 0.23602 0.98669 0.37266 0.0
C535 C 0.23965 0.98792 0.324 0.0
C536 C 0.23221 0.98906 0.28811 0.0
C537 C 0.22105 0.03351 0.13564 0.0
C538 C 0.23316 0.03681 0.11908 0.0
C539 C 0.21357 0.02187 0.15856 0.0
C540 C 0.21803 0.01333 0.1638 0.0
C541 C 0.22977 0.01637 0.14376 0.0
C542 C 0.23733 0.02807 0.12223 0.0
C543 C 0.21138 0.00198 0.19495 0.0
C544 C 0.21843 0.00043 0.23177 0.0
C545 C 0.19842 0.99291 0.1897 0.0
C546 C 0.19052 0.99381 0.15088 0.0
C547 C 0.19412 0.99477 0.10191 0.0
C548 C 0.18663 0.99566 0.06557 0.0
C549 C 0.17547 0.99552 0.07773 0.0
C550 C 0.17175 0.99444 0.12626 0.0
C551 C 0.17922 0.99356 0.16274 0.0
H552 H 0.16968 0.9962 0.04955 0.0
H553 H 0.24179 0.9858 0.40038 0.0
H554 H 0.95475 0.21098 0.17877 0.0
H555 H 0.97532 0.21688 0.21354 0.0
H556 H 0.97305 0.18317 0.15464 0.0
H557 H 0.95243 0.17727 0.11838 0.0
H558 H 0.98111 0.19265 0.26852 0.0
H559 H 0.9912 0.20206 0.09766 0.0
H560 H 0.98958 0.21066 0.01876 0.0
H561 H 0.00394 0.24731 0.08285 0.0
H562 H 0.00545 0.23888 0.16232 0.0
H563 H 0.04518 0.22167 0.35316 0.0
H564 H 0.02608 0.20858 0.30522 0.0
H565 H 0.02433 0.24187 0.26656 0.0
H566 H 0.04361 0.25491 0.31189 0.0
H567 H 0.01883 0.22818 0.19182 0.0
H568 H 0.0057 0.21962 0.36089 0.0
H569 H 0.00597 0.21231 0.44408 0.0
H570 H 0.99634 0.17572 0.38924 0.0
H571 H 0.99615 0.18287 0.30565 0.0
C572 C 0.95855 0.20475 0.1734 0.0
C573 C 0.952 0.19367 0.14577 0.0
C574 C 0.9703 0.20815 0.19326 0.0
C575 C 0.97564 0.20046 0.18646 0.0
C576 C 0.96901 0.18919 0.16014 0.0
C577 C 0.9573 0.18587 0.13945 0.0
C578 C 0.98836 0.20467 0.20593 0.0
C579 C 0.98947 0.20019 0.25136 0.0
C580 C 0.99911 0.21469 0.18383 0.0
C581 C 0.99834 0.21981 0.13599 0.0
C582 C 0.9939 0.21193 0.09501 0.0
C583 C 0.99303 0.21678 0.05017 0.0
C584 C 0.99663 0.22952 0.04581 0.0
C585 C 0.00115 0.23744 0.08627 0.0
C586 C 0.00202 0.23264 0.1312 0.0
C587 C 0.04071 0.22615 0.33412 0.0
C588 C 0.04585 0.23929 0.33621 0.0
C589 C 0.02978 0.21866 0.30694 0.0
C590 C 0.02364 0.22419 0.28261 0.0
C591 C 0.02889 0.23735 0.28461 0.0
C592 C 0.03991 0.24481 0.31074 0.0
C593 C 0.01164 0.2165 0.25566 0.0
C594 C 0.01063 0.22037 0.20869 0.0
C595 C 0.00094 0.20609 0.27691 0.0
C596 C 0.00108 0.20182 0.32706 0.0
C597 C 0.00374 0.21004 0.36659 0.0
C598 C 0.00386 0.20593 0.41379 0.0
C599 C 0.00122 0.19357 0.42192 0.0
C600 C 0.99841 0.18529 0.38287 0.0
C601 C 0.9983 0.18937 0.33559 0.0
H602 H 0.00131 0.1904 0.45849 0.0
H603 H 0.99595 0.23325 0.01107 0.0
H604 H 0.77638 0.81921 0.38517 0.0
H605 H 0.7912 0.81368 0.34698 0.0
H606 H 0.75983 0.77995 0.28779 0.0
H607 H 0.74508 0.78552 0.32427 0.0
H608 H 0.7825 0.77986 0.34936 0.0
H609 H 0.76977 0.79742 0.21028 0.0
H610 H 0.76875 0.81526 0.17334 0.0
H611 H 0.8088 0.83892 0.191 0.0
H612 H 0.81 0.82124 0.22874 0.0
H613 H 0.78866 0.74351 0.17481 0.0
H614 H 0.78342 0.75646 0.22554 0.0
H615 H 0.81817 0.78969 0.184 0.0
H616 H 0.8232 0.77667 0.13071 0.0
H617 H 0.80026 0.79517 0.18518 0.0
H618 H 0.81412 0.77634 0.30047 0.0
H619 H 0.81626 0.7595 0.34052 0.0
H620 H 0.77678 0.74 0.37557 0.0
H621 H 0.77435 0.75662 0.33509 0.0
C622 C 0.77269 0.81063 0.36394 0.0
C623 C 0.75961 0.8028 0.3575 0.0
C624 C 0.78114 0.80752 0.34221 0.0
C625 C 0.77653 0.79644 0.31469 0.0
C626 C 0.7635 0.78855 0.30889 0.0
C627 C 0.75511 0.79177 0.32962 0.0
C628 C 0.78509 0.79276 0.29174 0.0
C629 C 0.78649 0.78322 0.31362 0.0
C630 C 0.79069 0.79758 0.24618 0.0
C631 C 0.78995 0.80808 0.22284 0.0
C632 C 0.77833 0.80646 0.20669 0.0
C633 C 0.77773 0.81653 0.18552 0.0
C634 C 0.7887 0.82823 0.17998 0.0
C635 C 0.8003 0.82986 0.19541 0.0
C636 C 0.80096 0.81983 0.21668 0.0
C637 C 0.79525 0.75357 0.17661 0.0
C638 C 0.80639 0.75908 0.14915 0.0
C639 C 0.79228 0.76097 0.20599 0.0
C640 C 0.80057 0.77402 0.20985 0.0
C641 C 0.81169 0.77962 0.18202 0.0
C642 C 0.81456 0.77219 0.15168 0.0
C643 C 0.79714 0.78166 0.2416 0.0
C644 C 0.79669 0.792 0.22154 0.0
C645 C 0.79264 0.77772 0.28949 0.0
C646 C 0.79406 0.76775 0.31462 0.0
C647 C 0.80588 0.76844 0.31655 0.0
C648 C 0.80714 0.75893 0.33933 0.0
C649 C 0.79666 0.74869 0.36057 0.0
C650 C 0.7849 0.74795 0.35916 0.0
C651 C 0.78358 0.75744 0.33639 0.0
H652 H 0.79765 0.74132 0.37814 0.0
H653 H 0.7882 0.83601 0.16361 0.0
H654 H 0.78106 0.95214 0.87289 0.0
H655 H 0.79356 0.96984 0.81827 0.0
H656 H 0.75931 0.965 0.75329 0.0
H657 H 0.74682 0.94705 0.80645 0.0
H658 H 0.77622 0.97066 0.68574 0.0
H659 H 0.7758 0.98719 0.84526 0.0
H660 H 0.77965 0.98988 0.93348 0.0
H661 H 0.81917 0.00398 0.90974 0.0
H662 H 0.81551 0.00122 0.82135 0.0
H663 H 0.78451 0.0307 0.63838 0.0
H664 H 0.77968 0.01023 0.67104 0.0
H665 H 0.81913 0.02137 0.66546 0.0
H666 H 0.82402 0.04192 0.63094 0.0
H667 H 0.80478 0.0122 0.76134 0.0
H668 H 0.80433 -1e-05 0.59699 0.0
H669 H 0.79906 0.99832 0.50998 0.0
H670 H 0.75956 0.977 0.54407 0.0
H671 H 0.76458 0.97871 0.63137 0.0
C672 C 0.77621 0.95481 0.84668 0.0
C673 C 0.76296 0.9483 0.84419 0.0
C674 C 0.78337 0.96493 0.81555 0.0
C675 C 0.77738 0.96888 0.78214 0.0
C676 C 0.76415 0.96212 0.77869 0.0
C677 C 0.75701 0.9519 0.80928 0.0
C678 C 0.7847 0.98042 0.75249 0.0
C679 C 0.78249 0.97974 0.70227 0.0
C680 C 0.79317 0.99223 0.77377 0.0
C681 C 0.79536 0.99383 0.82684 0.0
C682 C 0.78529 0.99076 0.85892 0.0
C683 C 0.78744 0.99232 0.90892 0.0
C684 C 0.79964 0.99705 0.92722 0.0
C685 C 0.80972 0.00027 0.89553 0.0
C686 C 0.80762 0.99872 0.84548 0.0
C687 C 0.79214 0.02875 0.64354 0.0
C688 C 0.80463 0.03786 0.63244 0.0
C689 C 0.78937 0.01705 0.6619 0.0
C690 C 0.79905 0.01433 0.67033 0.0
C691 C 0.81155 0.02333 0.65877 0.0
C692 C 0.81431 0.035 0.63914 0.0
C693 C 0.79593 0.00244 0.69519 0.0
C694 C 0.79886 0.00306 0.74459 0.0
C695 C 0.78793 0.99063 0.67335 0.0
C696 C 0.78484 0.98954 0.62083 0.0
C697 C 0.79451 0.99503 0.586 0.0
C698 C 0.79157 0.99406 0.53659 0.0
C699 C 0.77898 0.98757 0.52151 0.0
C700 C 0.76931 0.98202 0.55581 0.0
C701 C 0.7722 0.98297 0.60527 0.0
H702 H 0.77673 0.98683 0.48325 0.0
H703 H 0.80129 0.99826 0.96594 0.0
H704 H 0.03423 0.78285 0.86588 0.0
H705 H 0.01513 0.7778 0.82093 0.0
H706 H 0.02343 0.81632 0.83521 0.0
H707 H 0.04254 0.82136 0.88209 0.0
H708 H 0.99726 0.79864 0.8391 0.0
H709 H 0.03178 0.8089 0.73367 0.0
H710 H 0.0506 0.8085 0.70421 0.0
H711 H 0.02818 0.76868 0.67771 0.0
H712 H 0.00925 0.76879 0.70778 0.0
H713 H 0.95422 0.77589 0.62 0.0
H714 H 0.97321 0.7902 0.66719 0.0
H715 H 0.97212 0.75814 0.73683 0.0
H716 H 0.95326 0.74393 0.6912 0.0
H717 H 0.99649 0.77917 0.68004 0.0
H718 H 0.96362 0.76947 0.80568 0.0
H719 H 0.94493 0.77027 0.83433 0.0
H720 H 0.96488 0.81055 0.81739 0.0
H721 H 0.98362 0.80993 0.78785 0.0
C722 C 0.03187 0.7902 0.8603 0.0
C723 C 0.03989 0.80252 0.87685 0.0
C724 C 0.02098 0.78732 0.83454 0.0
C725 C 0.01807 0.79677 0.82367 0.0
C726 C 0.02559 0.80893 0.84297 0.0
C727 C 0.03646 0.81178 0.86968 0.0
C728 C 0.00778 0.79394 0.78875 0.0
C729 C 0.9972 0.79466 0.80385 0.0
C730 C 0.00778 0.78895 0.74237 0.0
C731 C 0.01909 0.78886 0.72307 0.0
C732 C 0.03086 0.80005 0.72171 0.0
C733 C 0.04156 0.79987 0.70492 0.0
C734 C 0.04058 0.78857 0.68909 0.0
C735 C 0.02891 0.77743 0.68992 0.0
C736 C 0.01819 0.77755 0.70675 0.0
C737 C 0.95801 0.77195 0.64568 0.0
C738 C 0.95228 0.7588 0.65187 0.0
C739 C 0.96879 0.78011 0.6726 0.0
C740 C 0.97394 0.77516 0.70546 0.0
C741 C 0.96819 0.76209 0.71176 0.0
C742 C 0.95741 0.754 0.68561 0.0
C743 C 0.98582 0.78328 0.7315 0.0
C744 C 0.99674 0.78356 0.71457 0.0
C745 C 0.98614 0.7893 0.77566 0.0
C746 C 0.97494 0.78964 0.79394 0.0
C747 C 0.96397 0.77847 0.80757 0.0
C748 C 0.95338 0.7789 0.82409 0.0
C749 C 0.9537 0.79045 0.82751 0.0
C750 C 0.96463 0.8016 0.8146 0.0
C751 C 0.97524 0.80122 0.79798 0.0
H752 H 0.94549 0.79075 0.8403 0.0
H753 H 0.04888 0.78844 0.67617 0.0
H754 H 0.22088 0.17614 0.61406 0.0
H755 H 0.20729 0.18135 0.66257 0.0
H756 H 0.24022 0.21496 0.71476 0.0
H757 H 0.25376 0.20955 0.66815 0.0
H758 H 0.2252 0.2041 0.78665 0.0
H759 H 0.21992 0.21464 0.62103 0.0
H760 H 0.21393 0.20996 0.53482 0.0
H761 H 0.17623 0.18222 0.5761 0.0
H762 H 0.18204 0.18666 0.6626 0.0
H763 H 0.21034 0.25274 0.80477 0.0
H764 H 0.21497 0.23758 0.76637 0.0
H765 H 0.18245 0.20695 0.83528 0.0
H766 H 0.17783 0.22221 0.87525 0.0
H767 H 0.19191 0.21035 0.71126 0.0
H768 H 0.19821 0.20271 0.88126 0.0
H769 H 0.20565 0.21013 0.9645 0.0
H770 H 0.24302 0.23489 0.91058 0.0
H771 H 0.23573 0.22774 0.82694 0.0
C772 C 0.22518 0.18465 0.63587 0.0
C773 C 0.23837 0.19246 0.63736 0.0
C774 C 0.21741 0.18762 0.6635 0.0
C775 C 0.22272 0.19858 0.69219 0.0
C776 C 0.23589 0.2064 0.69328 0.0
C777 C 0.24363 0.20333 0.66641 0.0
C778 C 0.21476 0.20218 0.72107 0.0
C779 C 0.21783 0.20531 0.77015 0.0
C780 C 0.20492 0.20353 0.70009 0.0
C781 C 0.20146 0.20085 0.64819 0.0
C782 C 0.21038 0.20747 0.61168 0.0
C783 C 0.20701 0.20488 0.5628 0.0
C784 C 0.19472 0.19576 0.55 0.0
C785 C 0.18576 0.18925 0.58607 0.0
C786 C 0.18908 0.1918 0.63501 0.0
C787 C 0.20411 0.24279 0.81176 0.0
C788 C 0.19374 0.23866 0.84317 0.0
C789 C 0.20677 0.23415 0.78972 0.0
C790 C 0.19906 0.22121 0.7982 0.0
C791 C 0.18851 0.21694 0.82858 0.0
C792 C 0.18591 0.22564 0.85135 0.0
C793 C 0.20264 0.2125 0.77597 0.0
C794 C 0.19888 0.20855 0.72808 0.0
C795 C 0.21196 0.21054 0.7977 0.0
C796 C 0.21639 0.21478 0.8479 0.0
C797 C 0.20798 0.20983 0.88715 0.0
C798 C 0.21218 0.21396 0.9344 0.0
C799 C 0.22479 0.223 0.94282 0.0
C800 C 0.23324 0.2279 0.90401 0.0
C801 C 0.22909 0.2238 0.8567 0.0
H802 H 0.22803 0.22619 0.97942 0.0
H803 H 0.19213 0.19377 0.51213 0.0
H804 H 0.83464 0.28705 0.69776 0.0
H805 H 0.83645 0.30551 0.65426 0.0
H806 H 0.87699 0.3225 0.65436 0.0
H807 H 0.87523 0.30413 0.69602 0.0
H808 H 0.86701 0.33942 0.67816 0.0
H809 H 0.86296 0.30651 0.56042 0.0
H810 H 0.85052 0.28514 0.52566 0.0
H811 H 0.81996 0.29194 0.49591 0.0
H812 H 0.8322 0.31331 0.5311 0.0
H813 H 0.91006 0.37084 0.5065 0.0
H814 H 0.89369 0.35448 0.55604 0.0
H815 H 0.86553 0.36028 0.48549 0.0
H816 H 0.88213 0.37701 0.43507 0.0
H817 H 0.85982 0.33323 0.50053 0.0
H818 H 0.86939 0.36994 0.58908 0.0
H819 H 0.88308 0.39132 0.62169 0.0
H820 H 0.90309 0.37772 0.70748 0.0
H821 H 0.88969 0.3563 0.67476 0.0
C822 C 0.84391 0.29484 0.68901 0.0
C823 C 0.85481 0.2942 0.69983 0.0
C824 C 0.84492 0.30533 0.66431 0.0
C825 C 0.85686 0.31535 0.65145 0.0
C826 C 0.86771 0.3149 0.66437 0.0
C827 C 0.86669 0.30438 0.68784 0.0
C828 C 0.85842 0.32588 0.62056 0.0
C829 C 0.86519 0.33814 0.63946 0.0
C830 C 0.85565 0.32414 0.57041 0.0
C831 C 0.84841 0.31141 0.5488 0.0
C832 C 0.85355 0.3034 0.54673 0.0
C833 C 0.84655 0.29131 0.52693 0.0
C834 C 0.83444 0.28717 0.50872 0.0
C835 C 0.82933 0.29514 0.51013 0.0
C836 C 0.83629 0.30724 0.52999 0.0
C837 C 0.90041 0.36867 0.5011 0.0
C838 C 0.89741 0.37529 0.46706 0.0
C839 C 0.89106 0.35932 0.5296 0.0
C840 C 0.87847 0.35634 0.52486 0.0
C841 C 0.87524 0.36255 0.48976 0.0
C842 C 0.88471 0.37206 0.4611 0.0
C843 C 0.86905 0.34675 0.55788 0.0
C844 C 0.86093 0.33465 0.53948 0.0
C845 C 0.87051 0.34865 0.60864 0.0
C846 C 0.87848 0.36147 0.62948 0.0
C847 C 0.87674 0.37151 0.61479 0.0
C848 C 0.88445 0.38364 0.63328 0.0
C849 C 0.89394 0.38588 0.66667 0.0
C850 C 0.89571 0.37597 0.6817 0.0
C851 C 0.88803 0.36382 0.66327 0.0
H852 H 0.89992 0.39528 0.68089 0.0
H853 H 0.82903 0.2778 0.49341 0.0
H854 H 0.62032 0.50614 0.45479 0.0
H855 H 0.63989 0.509 0.49232 0.0
H856 H 0.65662 0.54935 0.47881 0.0
H857 H 0.63709 0.54657 0.44335 0.0
H858 H 0.67312 0.53797 0.45549 0.0
H859 H 0.64408 0.53977 0.57806 0.0
H860 H 0.62333 0.52977 0.6187 0.0
H861 H 0.62731 0.49788 0.65633 0.0
H862 H 0.64805 0.50767 0.61529 0.0
H863 H 0.71365 0.58274 0.61306 0.0
H864 H 0.69686 0.56744 0.56174 0.0
H865 H 0.69256 0.53726 0.65527 0.0
H866 H 0.70945 0.55275 0.70796 0.0
H867 H 0.67016 0.53517 0.63515 0.0
H868 H 0.70376 0.53909 0.54006 0.0
H869 H 0.7245 0.54965 0.49965 0.0
H870 H 0.71237 0.56997 0.40825 0.0
H871 H 0.69162 0.55971 0.44858 0.0
C872 C 0.62831 0.51558 0.45902 0.0
C873 C 0.62728 0.52616 0.44656 0.0
C874 C 0.63942 0.51719 0.48033 0.0
C875 C 0.64966 0.52938 0.48799 0.0
C876 C 0.64884 0.53988 0.47274 0.0
C877 C 0.63769 0.53829 0.45282 0.0
C878 C 0.6607 0.53159 0.51711 0.0
C879 C 0.67256 0.53721 0.49473 0.0
C880 C 0.65982 0.53015 0.56804 0.0
C881 C 0.64751 0.52437 0.59328 0.0
C882 C 0.64048 0.53059 0.59476 0.0
C883 C 0.62874 0.52498 0.61787 0.0
C884 C 0.624 0.51319 0.63997 0.0
C885 C 0.631 0.50701 0.63911 0.0
C886 C 0.64274 0.51258 0.61595 0.0
C887 C 0.70926 0.57285 0.62266 0.0
C888 C 0.71287 0.56896 0.66463 0.0
C889 C 0.69971 0.56407 0.59292 0.0
C890 C 0.69362 0.55116 0.60403 0.0
C891 C 0.69724 0.54717 0.64576 0.0
C892 C 0.70686 0.55602 0.67577 0.0
C893 C 0.68277 0.54223 0.57376 0.0
C894 C 0.67088 0.53539 0.59589 0.0
C895 C 0.68366 0.54245 0.52247 0.0
C896 C 0.69609 0.54859 0.49742 0.0
C897 C 0.70552 0.54584 0.51147 0.0
C898 C 0.71729 0.55178 0.48857 0.0
C899 C 0.71975 0.56047 0.45139 0.0
C900 C 0.71044 0.56322 0.43699 0.0
C901 C 0.69865 0.55731 0.45979 0.0
H902 H 0.72888 0.56507 0.43374 0.0
H903 H 0.61492 0.50888 0.65783 0.0
H904 H 0.44816 0.15981 0.71108 0.0
H905 H 0.4632 0.15549 0.66788 0.0
H906 H 0.43358 0.11713 0.64323 0.0
H907 H 0.41862 0.12137 0.68563 0.0
H908 H 0.45691 0.11929 0.66916 0.0
H909 H 0.43947 0.13878 0.55827 0.0
H910 H 0.43658 0.15684 0.53829 0.0
H911 H 0.47676 0.18151 0.53759 0.0
H912 H 0.47986 0.16359 0.55808 0.0
H913 H 0.45175 0.08674 0.46841 0.0
H914 H 0.44936 0.10202 0.51712 0.0
H915 H 0.48907 0.12875 0.50162 0.0
H916 H 0.49153 0.11338 0.45181 0.0
H917 H 0.46907 0.13832 0.50488 0.0
H918 H 0.48605 0.11661 0.59425 0.0
H919 H 0.48794 0.09794 0.61347 0.0
H920 H 0.44906 0.07772 0.65724 0.0
H921 H 0.44687 0.09618 0.63729 0.0
C922 C 0.44495 0.15041 0.69707 0.0
C923 C 0.43222 0.14094 0.70126 0.0
C924 C 0.45353 0.14798 0.67246 0.0
C925 C 0.44946 0.13601 0.65236 0.0
C926 C 0.4369 0.12641 0.6587 0.0
C927 C 0.42835 0.12887 0.68265 0.0
C928 C 0.4577 0.13348 0.6208 0.0
C929 C 0.45983 0.12362 0.63365 0.0
C930 C 0.46176 0.13935 0.57495 0.0
C931 C 0.45989 0.14991 0.56008 0.0
C932 C 0.44767 0.14806 0.55382 0.0
C933 C 0.446 0.15826 0.54247 0.0
C934 C 0.45648 0.17032 0.53693 0.0
C935 C 0.46866 0.17217 0.54205 0.0
C936 C 0.47038 0.162 0.55347 0.0
C937 C 0.45991 0.096 0.4741 0.0
C938 C 0.47184 0.09885 0.45701 0.0
C939 C 0.45853 0.10473 0.50177 0.0
C940 C 0.46908 0.11639 0.51337 0.0
C941 C 0.48084 0.11977 0.49285 0.0
C942 C 0.48222 0.11101 0.46453 0.0
C943 C 0.4678 0.12383 0.55279 0.0
C944 C 0.46685 0.13448 0.54133 0.0
C945 C 0.46493 0.11877 0.60026 0.0
C946 C 0.4663 0.10778 0.61418 0.0
C947 C 0.47789 0.10816 0.6078 0.0
C948 C 0.47902 0.09762 0.61879 0.0
C949 C 0.46863 0.08665 0.63657 0.0
C950 C 0.45711 0.08623 0.64353 0.0
C951 C 0.45592 0.09674 0.63245 0.0
H952 H 0.46951 0.07848 0.64496 0.0
H953 H 0.45516 0.17822 0.52884 0.0
H954 H 0.45033 0.28822 0.18407 0.0
H955 H 0.46404 0.30674 0.13366 0.0
H956 H 0.44161 0.32362 0.17273 0.0
H957 H 0.42786 0.30517 0.22156 0.0
H958 H 0.44173 0.31853 0.07343 0.0
H959 H 0.47138 0.33651 0.2096 0.0
H960 H 0.48656 0.33648 0.26839 0.0
H961 H 0.50915 0.33529 0.15149 0.0
H962 H 0.494 0.33515 0.092 0.0
H963 H 0.46142 0.37946 0.01902 0.0
H964 H 0.45791 0.36067 0.06185 0.0
H965 H 0.48597 0.35875 0.97329 0.0
H966 H 0.48972 0.37795 0.92985 0.0
H967 H 0.48623 0.35332 0.07902 0.0
H968 H 0.45841 0.33907 0.94305 0.0
H969 H 0.44335 0.33942 0.88446 0.0
H970 H 0.41724 0.33299 -9e-05 0.0
H971 H 0.43221 0.33279 0.05929 0.0
C972 C 0.4487 0.29614 0.18323 0.0
C973 C 0.43807 0.29535 0.20627 0.0
C974 C 0.45647 0.30666 0.15438 0.0
C975 C 0.45371 0.31644 0.14911 0.0
C976 C 0.44382 0.31611 0.17607 0.0
C977 C 0.43601 0.30561 0.20406 0.0
C978 C 0.45955 0.32606 0.11055 0.0
C979 C 0.45149 0.32611 0.07453 0.0
C980 C 0.47241 0.33555 0.11054 0.0
C981 C 0.48148 0.33565 0.1464 0.0
C982 C 0.47951 0.33611 0.19645 0.0
C983 C 0.48813 0.33616 0.22989 0.0
C984 C 0.49879 0.33584 0.2137 0.0
C985 C 0.50088 0.33551 0.164 0.0
C986 C 0.49229 0.33546 0.13042 0.0
C987 C 0.46691 0.37512 0.00848 0.0
C988 C 0.47573 0.38009 0.97057 0.0
C989 C 0.46491 0.36439 0.03319 0.0
C990 C 0.47158 0.35827 0.02034 0.0
C991 C 0.48074 0.36337 0.9836 0.0
C992 C 0.4828 0.37425 0.95873 0.0
C993 C 0.46814 0.34616 0.04423 0.0
C994 C 0.4766 0.34553 0.07703 0.0
C995 C 0.4556 0.33601 0.04133 0.0
C996 C 0.44646 0.33593 0.00563 0.0
C997 C 0.44948 0.33779 0.95598 0.0
C998 C 0.44096 0.33796 0.92262 0.0
C999 C 0.42935 0.33623 0.93845 0.0
C1000 C 0.42623 0.33431 0.98768 0.0
C1001 C 0.43472 0.33414 0.02119 0.0
H1002 H 0.42277 0.33637 0.91258 0.0
H1003 H 0.50545 0.33587 0.23964 0.0
H1004 H 0.69961 0.12303 0.23768 0.0
H1005 H 0.67985 0.11694 0.19532 0.0
H1006 H 0.69699 0.15335 0.12544 0.0
H1007 H 0.71675 0.15969 0.17001 0.0
H1008 H 0.67063 0.14292 0.1426 0.0
H1009 H 0.6984 0.13107 0.06769 0.0
H1010 H 0.71272 0.12234 0.06593 0.0
H1011 H 0.68232 0.08613 0.10951 0.0
H1012 H 0.66787 0.0947 0.11233 0.0
H1013 H 0.62476 0.11148 0.94672 0.0
H1014 H 0.64411 0.12493 0.99301 0.0
H1015 H 0.63626 0.0934 0.08552 0.0
H1016 H 0.61715 0.07999 0.03965 0.0
H1017 H 0.6599 0.10461 0.04579 0.0
H1018 H 0.63257 0.11747 0.12569 0.0
H1019 H 0.61861 0.12663 0.12683 0.0
H1020 H 0.6485 0.16138 0.06921 0.0
H1021 H 0.66259 0.15237 0.06712 0.0
C1022 C 0.69901 0.12986 0.21453 0.0
C1023 C 0.70959 0.14176 0.20667 0.0
C1024 C 0.68776 0.12639 0.19031 0.0
C1025 C 0.68708 0.13459 0.15642 0.0
C1026 C 0.69736 0.14689 0.15136 0.0
C1027 C 0.7086 0.15049 0.17668 0.0
C1028 C 0.67635 0.12953 0.12209 0.0
C1029 C 0.66835 0.13467 0.12078 0.0
C1030 C 0.67348 0.11883 0.09333 0.0
C1031 C 0.68207 0.11355 0.09043 0.0
C1032 C 0.69478 0.12126 0.07709 0.0
C1033 C 0.70292 0.11634 0.07592 0.0
C1034 C 0.69844 0.10369 0.08764 0.0
C1035 C 0.68578 0.09593 0.10042 0.0
C1036 C 0.67761 0.1008 0.10175 0.0
C1037 C 0.62712 0.10748 0.97729 0.0
C1038 C 0.61952 0.09466 0.98931 0.0
C1039 C 0.63813 0.11518 0.00373 0.0
C1040 C 0.6416 0.11013 0.04259 0.0
C1041 C 0.63377 0.09745 0.0555 0.0
C1042 C 0.62285 0.0898 0.02921 0.0
C1043 C 0.65379 0.11759 0.06803 0.0
C1044 C 0.6622 0.11295 0.06713 0.0
C1045 C 0.65703 0.12878 0.09408 0.0
C1046 C 0.64858 0.1342 0.09572 0.0
C1047 C 0.63613 0.12703 0.11288 0.0
C1048 C 0.6282 0.1322 0.11378 0.0
C1049 C 0.63265 0.14456 0.09796 0.0
C1050 C 0.64506 0.1518 0.08137 0.0
C1051 C 0.65302 0.14667 0.08036 0.0
H1052 H 0.6265 0.14855 0.09867 0.0
H1053 H 0.70476 0.09991 0.08678 0.0
H1054 H 0.84585 0.55252 0.21508 0.0
H1055 H 0.85339 0.54033 0.16953 0.0
H1056 H 0.86932 0.56962 0.06112 0.0
H1057 H 0.86197 0.58185 0.10634 0.0
H1058 H 0.85173 0.53094 0.07295 0.0
H1059 H 0.89949 0.57661 0.04449 0.0
H1060 H 0.9123 0.59747 0.08288 0.0
H1061 H 0.89516 0.582 0.22069 0.0
H1062 H 0.88242 0.56102 0.18328 0.0
H1063 H 0.89236 0.52125 0.90986 0.0
H1064 H 0.87832 0.52704 0.95236 0.0
H1065 H 0.90143 0.53583 0.08087 0.0
H1066 H 0.91567 0.53068 0.03792 0.0
H1067 H 0.89847 0.55438 0.06214 0.0
H1068 H 0.87023 0.5097 0.07129 0.0
H1069 H 0.85748 0.48804 0.03965 0.0
H1070 H 0.83588 0.49961 0.95297 0.0
H1071 H 0.84861 0.52138 0.98363 0.0
C1072 C 0.85073 0.55623 0.18102 0.0
C1073 C 0.85351 0.56823 0.16468 0.0
C1074 C 0.85497 0.54923 0.15495 0.0
C1075 C 0.86204 0.55416 0.11234 0.0
C1076 C 0.86398 0.56571 0.09419 0.0
C1077 C 0.8598 0.5727 0.12019 0.0
C1078 C 0.8688 0.54819 0.09017 0.0
C1079 C 0.86195 0.53601 0.07046 0.0
C1080 C 0.88212 0.55474 0.08794 0.0
C1081 C 0.88991 0.56729 0.11094 0.0
C1082 C 0.8985 0.57766 0.08301 0.0
C1083 C 0.90574 0.5895 0.1046 0.0
C1084 C 0.90451 0.59107 0.15415 0.0
C1085 C 0.89608 0.58079 0.18227 0.0
C1086 C 0.88883 0.56892 0.16089 0.0
C1087 C 0.89427 0.52424 0.9474 0.0
C1088 C 0.90514 0.52568 0.97053 0.0
C1089 C 0.88623 0.52749 0.97176 0.0
C1090 C 0.88881 0.53191 0.01991 0.0
C1091 C 0.89929 0.53259 0.04364 0.0
C1092 C 0.90743 0.52963 0.01909 0.0
C1093 C 0.88148 0.53702 0.04439 0.0
C1094 C 0.88825 0.54917 0.06447 0.0
C1095 C 0.86813 0.53028 0.04784 0.0
C1096 C 0.86045 0.5172 0.02942 0.0
C1097 C 0.86283 0.50765 0.0452 0.0
C1098 C 0.85559 0.49535 0.02749 0.0
C1099 C 0.84589 0.49246 0.99423 0.0
C1100 C 0.8434 0.50186 0.9787 0.0
C1101 C 0.85061 0.51418 0.99627 0.0
H1102 H 0.8403 0.48293 0.98056 0.0
H1103 H 0.91011 0.60025 0.17078 0.0
H1104 H 0.54615 0.71023 0.79615 0.0
H1105 H 0.53069 0.69011 0.83431 0.0
H1106 H 0.55784 0.67745 0.82816 0.0
H1107 H 0.5733 0.69747 0.79192 0.0
H1108 H 0.53111 0.65903 0.79736 0.0
H1109 H 0.55722 0.68933 0.92655 0.0
H1110 H 0.56456 0.70939 0.97046 0.0
H1111 H 0.52618 0.69914 0.00108 0.0
H1112 H 0.51862 0.67908 0.95673 0.0
H1113 H 0.53403 0.61769 0.95629 0.0
H1114 H 0.53612 0.63488 0.9058 0.0
H1115 H 0.50748 0.63697 0.99009 0.0
H1116 H 0.50555 0.61978 0.04207 0.0
H1117 H 0.52677 0.65976 0.97621 0.0
H1118 H 0.50134 0.62637 0.87157 0.0
H1119 H 0.49349 0.60624 0.82785 0.0
H1120 H 0.52826 0.62161 0.74837 0.0
H1121 H 0.53642 0.64178 0.79213 0.0
C1122 C 0.54871 0.70306 0.8026 0.0
C1123 C 0.5609 0.70537 0.79152 0.0
C1124 C 0.53991 0.69163 0.82424 0.0
C1125 C 0.54316 0.68234 0.83371 0.0
C1126 C 0.55515 0.68449 0.82079 0.0
C1127 C 0.56399 0.69595 0.80044 0.0
C1128 C 0.53467 0.67067 0.86045 0.0
C1129 C 0.52998 0.6591 0.83638 0.0
C1130 C 0.5328 0.67085 0.91094 0.0
C1131 C 0.53736 0.68282 0.93788 0.0
C1132 C 0.55035 0.69141 0.94232 0.0
C1133 C 0.55455 0.70277 0.96733 0.0
C1134 C 0.54584 0.70556 0.9884 0.0
C1135 C 0.53291 0.69698 0.98464 0.0
C1136 C 0.52867 0.68562 0.95958 0.0
C1137 C 0.52808 0.6217 0.96398 0.0
C1138 C 0.51962 0.61737 0.00317 0.0
C1139 C 0.5292 0.63148 0.93472 0.0
C1140 C 0.52176 0.63705 0.94341 0.0
C1141 C 0.51323 0.63273 0.98244 0.0
C1142 C 0.51214 0.62293 0.01207 0.0
C1143 C 0.52378 0.648 0.91354 0.0
C1144 C 0.5273 0.65949 0.93697 0.0
C1145 C 0.52437 0.6477 0.86224 0.0
C1146 C 0.5195 0.63562 0.83526 0.0
C1147 C 0.50735 0.62545 0.84494 0.0
C1148 C 0.50284 0.61403 0.82013 0.0
C1149 C 0.51037 0.61265 0.78536 0.0
C1150 C 0.52243 0.6227 0.77527 0.0
C1151 C 0.52699 0.63415 0.8 0.0
H1152 H 0.50687 0.60379 0.76622 0.0
H1153 H 0.54911 0.71435 0.00776 0.0
H1154 H 0.36435 0.90796 0.04063 0.0
H1155 H 0.34469 0.89212 0.00384 0.0
H1156 H 0.35978 0.8671 0.98781 0.0
H1157 H 0.37969 0.8831 0.02573 0.0
H1158 H 0.35032 0.87132 0.90134 0.0
H1159 H 0.33488 0.85702 0.05856 0.0
H1160 H 0.33133 0.85836 0.14586 0.0
H1161 H 0.31081 0.87748 0.11374 0.0
H1162 H 0.31439 0.87644 0.02632 0.0
H1163 H 0.28917 0.84273 0.7767 0.0
H1164 H 0.3063 0.8443 0.82841 0.0
H1165 H 0.30903 0.87713 0.89837 0.0
H1166 H 0.2921 0.87563 0.84758 0.0
H1167 H 0.30782 0.85955 0.96388 0.0
H1168 H 0.32998 0.87966 0.81175 0.0
H1169 H 0.33423 0.87929 0.72442 0.0
H1170 H 0.34222 0.8493 0.74848 0.0
H1171 H 0.33787 0.84942 0.83593 0.0
C1172 C 0.36341 0.89899 0.03021 0.0
C1173 C 0.37351 0.89674 0.03579 0.0
C1174 C 0.35214 0.8899 0.00948 0.0
C1175 C 0.35074 0.87839 0.99347 0.0
C1176 C 0.36067 0.8759 0.00034 0.0
C1177 C 0.37197 0.88499 0.02205 0.0
C1178 C 0.33938 0.86988 0.96481 0.0
C1179 C 0.34094 0.86832 0.9153 0.0
C1180 C 0.32717 0.86598 0.98305 0.0
C1181 C 0.32491 0.86663 0.03572 0.0
C1182 C 0.32967 0.86157 0.07008 0.0
C1183 C 0.32764 0.86227 0.11962 0.0
C1184 C 0.32084 0.868 0.13533 0.0
C1185 C 0.31605 0.87302 0.10152 0.0
C1186 C 0.31805 0.87235 0.05193 0.0
C1187 C 0.29353 0.85034 0.80283 0.0
C1188 C 0.28928 0.85905 0.80817 0.0
C1189 C 0.30326 0.85119 0.83239 0.0
C1190 C 0.30883 0.86075 0.86752 0.0
C1191 C 0.30475 0.86957 0.87194 0.0
C1192 C 0.29511 0.86875 0.8426 0.0
C1193 C 0.31897 0.86192 0.90018 0.0
C1194 C 0.3171 0.86203 0.95038 0.0
C1195 C 0.33088 0.8645 0.88259 0.0
C1196 C 0.33343 0.86443 0.83013 0.0
C1197 C 0.33253 0.87292 0.7983 0.0
C1198 C 0.33498 0.87277 0.74883 0.0
C1199 C 0.33844 0.86424 0.73088 0.0
C1200 C 0.3395 0.85588 0.7624 0.0
C1201 C 0.33705 0.85598 0.8119 0.0
H1202 H 0.34034 0.86415 0.69257 0.0
H1203 H 0.31928 0.86854 0.17371 0.0
H1204 H 0.13416 0.43701 0.7493 0.0
H1205 H 0.12979 0.4517 0.794 0.0
H1206 H 0.14592 0.4455 0.9233 0.0
H1207 H 0.1496 0.43028 0.87893 0.0
H1208 H 0.12474 0.4422 0.94524 0.0
H1209 H 0.15903 0.47539 0.86319 0.0
H1210 H 0.17295 0.48738 0.79516 0.0
H1211 H 0.1428 0.49043 0.72923 0.0
H1212 H 0.12861 0.47829 0.79649 0.0
H1213 H 0.10636 0.48163 0.06979 0.0
H1214 H 0.12181 0.47731 0.03036 0.0
H1215 H 0.09999 0.46728 0.89833 0.0
H1216 H 0.0844 0.47126 0.93773 0.0
H1217 H 0.1282 0.48219 0.8874 0.0
H1218 H 0.09367 0.44467 0.96599 0.0
H1219 H 0.08075 0.43337 0.03726 0.0
H1220 H 0.11408 0.44013 0.11423 0.0
H1221 H 0.12722 0.45165 0.04357 0.0
C1222 C 0.13706 0.4391 0.7869 0.0
C1223 C 0.14224 0.43267 0.81091 0.0
C1224 C 0.13464 0.44754 0.81245 0.0
C1225 C 0.13761 0.44984 0.86212 0.0
C1226 C 0.14352 0.4439 0.88513 0.0
C1227 C 0.14567 0.43527 0.85984 0.0
C1228 C 0.13298 0.45694 0.89127 0.0
C1229 C 0.12586 0.45113 0.9331 0.0
C1230 C 0.13426 0.46856 0.87559 0.0
C1231 C 0.14272 0.47584 0.83483 0.0
C1232 C 0.15533 0.47852 0.834 0.0
C1233 C 0.16328 0.48537 0.79559 0.0
C1234 C 0.15876 0.48964 0.75785 0.0
C1235 C 0.14628 0.48711 0.75849 0.0
C1236 C 0.13829 0.48026 0.7968 0.0
C1237 C 0.105 0.47873 0.03209 0.0
C1238 C 0.09414 0.47664 0.00688 0.0
C1239 C 0.11383 0.4763 0.00966 0.0
C1240 C 0.11201 0.47199 0.96151 0.0
C1241 C 0.10158 0.47068 0.93542 0.0
C1242 C 0.09264 0.47285 0.95807 0.0
C1243 C 0.11993 0.46726 0.94007 0.0
C1244 C 0.12752 0.47346 0.89981 0.0
C1245 C 0.11933 0.45614 0.95759 0.0
C1246 C 0.11142 0.44916 -0.00016 0.0
C1247 C 0.09824 0.44385 -0.0017 0.0
C1248 C 0.09088 0.43739 0.03853 0.0
C1249 C 0.09659 0.43607 0.08032 0.0
C1250 C 0.10968 0.44119 0.08189 0.0
C1251 C 0.11708 0.44768 0.04178 0.0
H1252 H 0.09088 0.43106 0.11142 0.0
H1253 H 0.16493 0.49494 0.72816 0.0
H1254 H 0.11589 0.62281 0.54755 0.0
H1255 H 0.13331 0.63986 0.50128 0.0
H1256 H 0.1063 0.64042 0.40212 0.0
H1257 H 0.08913 0.62366 0.44734 0.0
H1258 H 0.12649 0.64168 0.35421 0.0
H1259 H 0.11809 0.66095 0.49759 0.0
H1260 H 0.11791 0.66429 0.58585 0.0
H1261 H 0.15724 0.67567 0.59413 0.0
H1262 H 0.1576 0.67227 0.50591 0.0
H1263 H 0.12595 0.69572 0.2933 0.0
H1264 H 0.12456 0.67706 0.33128 0.0
H1265 H 0.16516 0.69488 0.33222 0.0
H1266 H 0.16661 0.7136 0.29224 0.0
H1267 H 0.14877 0.68422 0.42909 0.0
H1268 H 0.15685 0.67264 0.27514 0.0
H1269 H 0.15547 0.67022 0.18618 0.0
H1270 H 0.11556 0.64471 0.19654 0.0
H1271 H 0.11664 0.64712 0.28548 0.0
C1272 C 0.11374 0.62657 0.51572 0.0
C1273 C 0.10115 0.62196 0.50122 0.0
C1274 C 0.12367 0.63625 0.48933 0.0
C1275 C 0.12108 0.64132 0.44809 0.0
C1276 C 0.10853 0.63654 0.43345 0.0
C1277 C 0.0987 0.62702 0.45969 0.0
C1278 C 0.13104 0.65219 0.42102 0.0
C1279 C 0.1316 0.65098 0.37055 0.0
C1280 C 0.13809 0.66424 0.44261 0.0
C1281 C 0.13783 0.66618 0.49548 0.0
C1282 C 0.12667 0.66406 0.51837 0.0
C1283 C 0.12654 0.66598 0.56832 0.0
C1284 C 0.13755 0.67014 0.59562 0.0
C1285 C 0.14872 0.67241 0.57298 0.0
C1286 C 0.14889 0.67048 0.52303 0.0
C1287 C 0.13458 0.69559 0.30084 0.0
C1288 C 0.14638 0.70604 0.28998 0.0
C1289 C 0.13378 0.68494 0.32237 0.0
C1290 C 0.14476 0.68464 0.3343 0.0
C1291 C 0.15661 0.69497 0.32288 0.0
C1292 C 0.15741 0.70558 0.30005 0.0
C1293 C 0.14339 0.67374 0.36215 0.0
C1294 C 0.14437 0.6749 0.4128 0.0
C1295 C 0.13761 0.66165 0.34068 0.0
C1296 C 0.13685 0.66007 0.28711 0.0
C1297 C 0.14776 0.66657 0.25846 0.0
C1298 C 0.14704 0.66519 0.20801 0.0
C1299 C 0.13544 0.65731 0.18572 0.0
C1300 C 0.12454 0.65079 0.21386 0.0
C1301 C 0.12522 0.65214 0.26433 0.0
H1302 H 0.13489 0.65625 0.14666 0.0
H1303 H 0.13743 0.67163 0.63428 0.0
H1304 H 0.37601 0.49114 0.548 0.0
H1305 H 0.35809 0.48937 0.50115 0.0
H1306 H 0.36087 0.46333 0.40322 0.0
H1307 H 0.37873 0.46525 0.44866 0.0
H1308 H 0.35593 0.47873 0.35358 0.0
H1309 H 0.3401 0.45355 0.50247 0.0
H1310 H 0.338 0.45088 0.59135 0.0
H1311 H 0.32394 0.47674 0.59899 0.0
H1312 H 0.3261 0.47964 0.51012 0.0
H1313 H 0.29965 0.42415 0.30104 0.0
H1314 H 0.31919 0.44093 0.33599 0.0
H1315 H 0.30297 0.46509 0.34454 0.0
H1316 H 0.28332 0.4483 0.30762 0.0
H1317 H 0.31451 0.45911 0.4372 0.0
H1318 H 0.3242 0.47726 0.27948 0.0
H1319 H 0.3254 0.47716 0.1902 0.0
H1320 H 0.35046 0.46218 0.19851 0.0
H1321 H 0.34926 0.46199 0.28782 0.0
C1322 C 0.37284 0.48515 0.51617 0.0
C1323 C 0.37871 0.47825 0.50224 0.0
C1324 C 0.36262 0.48415 0.48948 0.0
C1325 C 0.35809 0.47616 0.44878 0.0
C1326 C 0.36423 0.46962 0.43422 0.0
C1327 C 0.37441 0.47065 0.46056 0.0
C1328 C 0.34646 0.47367 0.42273 0.0
C1329 C 0.34688 0.47459 0.37188 0.0
C1330 C 0.33467 0.46865 0.44663 0.0
C1331 C 0.33344 0.46695 0.49991 0.0
C1332 C 0.33666 0.45874 0.52321 0.0
C1333 C 0.33544 0.45717 0.57353 0.0
C1334 C 0.33089 0.46368 0.60083 0.0
C1335 C 0.32751 0.47174 0.57782 0.0
C1336 C 0.32873 0.47335 0.5275 0.0
C1337 C 0.30028 0.43309 0.30974 0.0
C1338 C 0.29001 0.43496 0.30184 0.0
C1339 C 0.31145 0.44266 0.3295 0.0
C1340 C 0.31249 0.45421 0.34259 0.0
C1341 C 0.30232 0.45623 0.33429 0.0
C1342 C 0.29117 0.44669 0.31323 0.0
C1343 C 0.324 0.46353 0.36821 0.0
C1344 C 0.32358 0.46385 0.41898 0.0
C1345 C 0.33578 0.46945 0.34423 0.0
C1346 C 0.33661 0.46959 0.29044 0.0
C1347 C 0.3299 0.47386 0.26229 0.0
C1348 C 0.33059 0.47387 0.21165 0.0
C1349 C 0.338 0.46967 0.1887 0.0
C1350 C 0.34474 0.46545 0.21634 0.0
C1351 C 0.34407 0.46541 0.26699 0.0
H1352 H 0.33853 0.46968 0.14949 0.0
H1353 H 0.32994 0.46244 0.63978 0.0
H1354 H 0.5453 0.91146 0.52118 0.0
H1355 H 0.54803 0.89613 0.47445 0.0
H1356 H 0.50805 0.86985 0.48228 0.0
H1357 H 0.5052 0.88532 0.53002 0.0
H1358 H 0.52888 0.86052 0.48959 0.0
H1359 H 0.51159 0.87974 0.38739 0.0
H1360 H 0.50878 0.89745 0.36122 0.0
H1361 H 0.5482 0.91923 0.32631 0.0
H1362 H 0.55129 0.90173 0.35312 0.0
H1363 H 0.55379 0.84102 0.28197 0.0
H1364 H 0.53791 0.84402 0.32582 0.0
H1365 H 0.56685 0.88146 0.36715 0.0
H1366 H 0.58266 0.87845 0.32491 0.0
H1367 H 0.54295 0.87854 0.32482 0.0
H1368 H 0.56 0.86104 0.44612 0.0
H1369 H 0.56332 0.84389 0.47579 0.0
H1370 H 0.52333 0.81822 0.47299 0.0
H1371 H 0.51981 0.83521 0.44261 0.0
C1372 C 0.53709 0.90233 0.51392 0.0
C1373 C 0.52501 0.89962 0.52858 0.0
C1374 C 0.53869 0.89357 0.48743 0.0
C1375 C 0.52823 0.88195 0.47466 0.0
C1376 C 0.51622 0.87878 0.49205 0.0
C1377 C 0.51461 0.8876 0.51914 0.0
C1378 C 0.53009 0.87427 0.43785 0.0
C1379 C 0.53149 0.8641 0.45289 0.0
C1380 C 0.5335 0.87899 0.3901 0.0
C1381 C 0.53166 0.88942 0.37233 0.0
C1382 C 0.51967 0.88832 0.37429 0.0
C1383 C 0.51802 0.89832 0.35935 0.0
C1384 C 0.5283 0.90946 0.34208 0.0
C1385 C 0.54024 0.91059 0.33961 0.0
C1386 C 0.54194 0.90062 0.35459 0.0
C1387 C 0.5567 0.84989 0.30031 0.0
C1388 C 0.56944 0.8595 0.3002 0.0
C1389 C 0.54766 0.85157 0.32528 0.0
C1390 C 0.55126 0.86297 0.34943 0.0
C1391 C 0.56391 0.87261 0.34848 0.0
C1392 C 0.57294 0.87086 0.32454 0.0
C1393 C 0.54214 0.86509 0.37705 0.0
C1394 C 0.5396 0.8744 0.36037 0.0
C1395 C 0.53751 0.85943 0.42283 0.0
C1396 C 0.53966 0.84932 0.4415 0.0
C1397 C 0.55193 0.85171 0.45141 0.0
C1398 C 0.55385 0.84203 0.46844 0.0
C1399 C 0.54354 0.82996 0.4761 0.0
C1400 C 0.5313 0.82757 0.46692 0.0
C1401 C 0.52935 0.83721 0.4498 0.0
H1402 H 0.54504 0.82248 0.48929 0.0
H1403 H 0.52701 0.9172 0.33063 0.0
H1404 H 0.26257 0.14335 0.64375 0.0
H1405 H 0.25655 0.12949 0.71459 0.0
H1406 H 0.24339 0.15206 0.7866 0.0
H1407 H 0.24903 0.16579 0.71482 0.0
H1408 H 0.26407 0.14922 0.83263 0.0
H1409 H 0.2222 0.12504 0.76972 0.0
H1410 H 0.20637 0.1135 0.70617 0.0
H1411 H 0.21958 0.08707 0.69336 0.0
H1412 H 0.23563 0.09855 0.75636 0.0
H1413 H 0.25864 0.11395 0.04019 0.0
H1414 H 0.25263 0.12422 0.97794 0.0
H1415 H 0.25154 0.09782 0.87121 0.0
H1416 H 0.25658 0.08696 0.9346 0.0
H1417 H 0.2346 0.10319 0.84838 0.0
H1418 H 0.27848 0.12852 0.89168 0.0
H1419 H 0.29655 0.14027 0.94685 0.0
H1420 H 0.28219 0.16464 0.98704 0.0
H1421 H 0.26395 0.15293 0.93246 0.0
C1422 C 0.25812 0.14517 0.67428 0.0
C1423 C 0.25633 0.15565 0.67422 0.0
C1424 C 0.25463 0.13723 0.71449 0.0
C1425 C 0.24952 0.13978 0.75555 0.0
C1426 C 0.24724 0.14993 0.75493 0.0
C1427 C 0.25045 0.15773 0.71409 0.0
C1428 C 0.24833 0.13287 0.80087 0.0
C1429 C 0.2574 0.13923 0.83692 0.0
C1430 C 0.23994 0.11976 0.80506 0.0
C1431 C 0.23018 0.11271 0.76763 0.0
C1432 C 0.22179 0.11681 0.75314 0.0
C1433 C 0.21277 0.11028 0.71724 0.0
C1434 C 0.21198 0.09957 0.69568 0.0
C1435 C 0.2202 0.09536 0.7101 0.0
C1436 C 0.22925 0.10187 0.74598 0.0
C1437 C 0.25693 0.11029 0.00348 0.0
C1438 C 0.25819 0.09983 0.99166 0.0
C1439 C 0.25355 0.11616 0.96792 0.0
C1440 C 0.25199 0.11204 0.91948 0.0
C1441 C 0.25274 0.10122 0.90821 0.0
C1442 C 0.25568 0.09506 0.94423 0.0
C1443 C 0.25054 0.1195 0.88006 0.0
C1444 C 0.24106 0.11325 0.84495 0.0
C1445 C 0.25883 0.13269 0.87578 0.0
C1446 C 0.26979 0.13976 0.90849 0.0
C1447 C 0.27914 0.13633 0.91254 0.0
C1448 C 0.28942 0.14299 0.94365 0.0
C1449 C 0.29049 0.15317 0.97056 0.0
C1450 C 0.28132 0.15673 0.96627 0.0
C1451 C 0.27102 0.1501 0.93524 0.0
H1452 H 0.29845 0.15831 0.99463 0.0
H1453 H 0.205 0.09453 0.66785 0.0
H1454 H 0.8253 0.10257 0.74801 0.0
H1455 H 0.84334 0.11426 0.80141 0.0
H1456 H 0.86153 0.09502 0.74023 0.0
H1457 H 0.84344 0.08325 0.6857 0.0
H1458 H 0.86137 0.10366 0.86338 0.0
H1459 H 0.87644 0.11633 0.69619 0.0
H1460 H 0.87236 0.11975 0.61143 0.0
H1461 H 0.86165 0.1465 0.65918 0.0
H1462 H 0.86548 0.14307 0.74429 0.0
H1463 H 0.91128 0.15785 0.97883 0.0
H1464 H 0.90279 0.14123 0.91703 0.0
H1465 H 0.87805 0.15442 0.86635 0.0
H1466 H 0.88648 0.17103 0.92739 0.0
H1467 H 0.88683 0.14633 0.7913 0.0
H1468 H 0.86855 0.13203 0.95307 0.0
H1469 H 0.87032 0.12851 0.04009 0.0
H1470 H 0.88565 0.10466 0.00479 0.0
H1471 H 0.88421 0.10827 0.91744 0.0
C1472 C 0.83297 0.10056 0.74658 0.0
C1473 C 0.83303 0.09213 0.71206 0.0
C1474 C 0.84324 0.10721 0.7773 0.0
C1475 C 0.85375 0.10556 0.77422 0.0
C1476 C 0.85346 0.09639 0.74293 0.0
C1477 C 0.84312 0.08967 0.71194 0.0
C1478 C 0.86546 0.11487 0.7987 0.0
C1479 C 0.86733 0.11287 0.84724 0.0
C1480 C 0.87299 0.12691 0.77769 0.0
C1481 C 0.87117 0.12939 0.72652 0.0
C1482 C 0.87317 0.1229 0.68857 0.0
C1483 C 0.8709 0.12484 0.64049 0.0
C1484 C 0.86671 0.13332 0.62994 0.0
C1485 C 0.86488 0.13993 0.66742 0.0
C1486 C 0.86711 0.13801 0.71556 0.0
C1487 C 0.90423 0.15739 0.9538 0.0
C1488 C 0.8994 0.16565 0.95854 0.0
C1489 C 0.89939 0.14787 0.91858 0.0
C1490 C 0.88969 0.14651 0.88756 0.0
C1491 C 0.88553 0.1553 0.88995 0.0
C1492 C 0.8903 0.16475 0.92515 0.0
C1493 C 0.88271 0.13521 0.85643 0.0
C1494 C 0.88152 0.13695 0.80683 0.0
C1495 C 0.87584 0.12293 0.87655 0.0
C1496 C 0.87643 0.12054 0.92888 0.0
C1497 C 0.87237 0.12609 0.96392 0.0
C1498 C 0.87331 0.12408 0.01328 0.0
C1499 C 0.87812 0.11638 0.028 0.0
C1500 C 0.88196 0.11065 0.99335 0.0
C1501 C 0.88109 0.11268 0.94392 0.0
H1502 H 0.87887 0.11485 0.06624 0.0
H1503 H 0.86489 0.13476 0.59275 0.0
H1504 H 0.91221 0.75512 0.67761 0.0
H1505 H 0.90186 0.76391 0.72776 0.0
H1506 H 0.86648 0.72909 0.71357 0.0
H1507 H 0.87656 0.72031 0.66383 0.0
H1508 H 0.86396 0.75028 0.70071 0.0
H1509 H 0.88519 0.73501 0.81453 0.0
H1510 H 0.90463 0.73625 0.84648 0.0
H1511 H 0.92013 0.77576 0.87548 0.0
H1512 H 0.90077 0.77474 0.84343 0.0
H1513 H 0.82249 0.72333 0.88779 0.0
H1514 H 0.83791 0.73174 0.82248 0.0
H1515 H 0.85951 0.76649 0.90193 0.0
H1516 H 0.84394 0.75808 0.96785 0.0
H1517 H 0.87373 0.75609 0.87668 0.0
H1518 H 0.84847 0.76831 0.7927 0.0
H1519 H 0.82924 0.7674 0.76056 0.0
H1520 H 0.82178 0.73537 0.673 0.0
H1521 H 0.84085 0.73593 0.70513 0.0
C1522 C 0.90222 0.74935 0.68519 0.0
C1523 C 0.89524 0.73697 0.66687 0.0
C1524 C 0.89634 0.75441 0.71367 0.0
C1525 C 0.8834 0.74717 0.72407 0.0
C1526 C 0.87645 0.73489 0.70552 0.0
C1527 C 0.88228 0.72983 0.67741 0.0
C1528 C 0.87693 0.75177 0.75655 0.0
C1529 C 0.86611 0.75169 0.73917 0.0
C1530 C 0.88016 0.75431 0.80612 0.0
C1531 C 0.89162 0.75483 0.82628 0.0
C1532 C 0.89277 0.74396 0.82764 0.0
C1533 C 0.90376 0.74462 0.84576 0.0
C1534 C 0.91362 0.75609 0.8629 0.0
C1535 C 0.91249 0.7669 0.86215 0.0
C1536 C 0.90151 0.76628 0.84408 0.0
C1537 C 0.83035 0.73288 0.89089 0.0
C1538 C 0.83206 0.74001 0.93302 0.0
C1539 C 0.83913 0.73773 0.85335 0.0
C1540 C 0.84984 0.74978 0.85719 0.0
C1541 C 0.85127 0.7572 0.89816 0.0
C1542 C 0.84235 0.7524 0.93564 0.0
C1543 C 0.86016 0.75357 0.82143 0.0
C1544 C 0.87177 0.75528 0.83805 0.0
C1545 C 0.85769 0.75266 0.77103 0.0
C1546 C 0.84614 0.75218 0.75142 0.0
C1547 C 0.8427 0.76102 0.76682 0.0
C1548 C 0.83182 0.76057 0.74856 0.0
C1549 C 0.82429 0.75133 0.71475 0.0
C1550 C 0.82763 0.74253 0.69913 0.0
C1551 C 0.8385 0.74293 0.71728 0.0
H1552 H 0.81588 0.751 0.70065 0.0
H1553 H 0.92213 0.75658 0.87686 0.0
H1554 H 0.15967 0.24449 0.79437 0.0
H1555 H 0.14084 0.23573 0.74224 0.0
H1556 H 0.13787 0.26896 0.76708 0.0
H1557 H 0.15645 0.27772 0.81844 0.0
H1558 H 0.1147 0.24661 0.77437 0.0
H1559 H 0.15199 0.26659 0.66684 0.0
H1560 H 0.17133 0.26824 0.63195 0.0
H1561 H 0.15027 0.22969 0.5844 0.0
H1562 H 0.13082 0.2278 0.61956 0.0
H1563 H 0.09897 0.27435 0.59131 0.0
H1564 H 0.10645 0.26605 0.65567 0.0
H1565 H 0.09503 0.23218 0.57227 0.0
H1566 H 0.08729 0.2404 0.5077 0.0
H1567 H 0.12031 0.24465 0.59695 0.0
H1568 H 0.08187 0.22828 0.6795 0.0
H1569 H 0.06264 0.22716 0.7128 0.0
H1570 H 0.08517 0.2584 0.80718 0.0
H1571 H 0.10456 0.25987 0.77395 0.0
C1572 C 0.15498 0.2499 0.78866 0.0
C1573 C 0.15965 0.26186 0.81023 0.0
C1574 C 0.14422 0.24487 0.75909 0.0
C1575 C 0.13795 0.25168 0.75115 0.0
C1576 C 0.14251 0.2635 0.77315 0.0
C1577 C 0.15324 0.26856 0.80211 0.0
C1578 C 0.12708 0.24717 0.71772 0.0
C1579 C 0.11582 0.24604 0.73556 0.0
C1580 C 0.12836 0.24584 0.66743 0.0
C1581 C 0.14002 0.247 0.64637 0.0
C1582 C 0.15152 0.25844 0.64929 0.0
C1583 C 0.16249 0.25943 0.62941 0.0
C1584 C 0.16204 0.24906 0.60613 0.0
C1585 C 0.15061 0.2377 0.60256 0.0
C1586 C 0.13961 0.23667 0.62246 0.0
C1587 C 0.09773 0.26499 0.58726 0.0
C1588 C 0.09264 0.25805 0.54449 0.0
C1589 C 0.10193 0.2602 0.62418 0.0
C1590 C 0.10124 0.24847 0.6188 0.0
C1591 C 0.09555 0.24121 0.5772 0.0
C1592 C 0.09112 0.24591 0.54048 0.0
C1593 C 0.10825 0.24498 0.65333 0.0
C1594 C 0.11883 0.2446 0.6358 0.0
C1595 C 0.10632 0.24492 0.70392 0.0
C1596 C 0.0947 0.24418 0.72409 0.0
C1597 C 0.08275 0.23498 0.70711 0.0
C1598 C 0.07181 0.23427 0.72602 0.0
C1599 C 0.07268 0.2427 0.76207 0.0
C1600 C 0.08451 0.25186 0.77929 0.0
C1601 C 0.09548 0.25262 0.76048 0.0
H1602 H 0.0642 0.24213 0.77669 0.0
H1603 H 0.17054 0.24984 0.59074 0.0
H1604 H 0.7445 0.82327 0.56332 0.0
H1605 H 0.75185 0.83655 0.63659 0.0
H1606 H 0.73229 0.85586 0.59035 0.0
H1607 H 0.7246 0.84244 0.51838 0.0
H1608 H 0.76124 0.87106 0.62865 0.0
H1609 H 0.71645 0.83756 0.66135 0.0
H1610 H 0.70037 0.81499 0.66739 0.0
H1611 H 0.72389 0.80913 0.7673 0.0
H1612 H 0.74018 0.83165 0.76126 0.0
H1613 H 0.74669 0.90472 0.79475 0.0
H1614 H 0.75019 0.89266 0.73244 0.0
H1615 H 0.74944 0.86703 0.8421 0.0
H1616 H 0.74479 0.87855 0.90373 0.0
H1617 H 0.73563 0.85378 0.77794 0.0
H1618 H 0.77712 0.8879 0.76772 0.0
H1619 H 0.79453 0.90993 0.76348 0.0
H1620 H 0.78084 0.91455 0.62597 0.0
H1621 H 0.76324 0.89261 0.62964 0.0
C1622 C 0.7418 0.83036 0.56891 0.0
C1623 C 0.73388 0.83176 0.53558 0.0
C1624 C 0.74604 0.83795 0.61046 0.0
C1625 C 0.74266 0.8472 0.6183 0.0
C1626 C 0.73504 0.84881 0.5845 0.0
C1627 C 0.73056 0.84106 0.54377 0.0
C1628 C 0.74622 0.8547 0.66325 0.0
C1629 C 0.75576 0.86738 0.66162 0.0
C1630 C 0.7394 0.84965 0.70647 0.0
C1631 C 0.72956 0.8362 0.71041 0.0
C1632 C 0.71822 0.83142 0.68425 0.0
C1633 C 0.70907 0.81865 0.68774 0.0
C1634 C 0.71112 0.81062 0.71759 0.0
C1635 C 0.72232 0.81535 0.74412 0.0
C1636 C 0.73151 0.82811 0.74068 0.0
C1637 C 0.74755 0.89666 0.80546 0.0
C1638 C 0.74544 0.89248 0.85365 0.0
C1639 C 0.74968 0.88981 0.76993 0.0
C1640 C 0.75028 0.87896 0.78235 0.0
C1641 C 0.74897 0.8753 0.83135 0.0
C1642 C 0.74637 0.88189 0.86658 0.0
C1643 C 0.75049 0.87057 0.74366 0.0
C1644 C 0.74156 0.85761 0.74612 0.0
C1645 C 0.75819 0.87537 0.70175 0.0
C1646 C 0.76882 0.88859 0.69907 0.0
C1647 C 0.77778 0.89363 0.73668 0.0
C1648 C 0.78769 0.90611 0.73436 0.0
C1649 C 0.78878 0.91364 0.6945 0.0
C1650 C 0.77999 0.9087 0.65681 0.0
C1651 C 0.77005 0.89623 0.65894 0.0
H1652 H 0.79646 0.9233 0.6928 0.0
H1653 H 0.70403 0.80074 0.72025 0.0
H1654 H 0.16793 0.90423 0.63368 0.0
H1655 H 0.14968 0.89541 0.6874 0.0
H1656 H 0.13021 0.90709 0.58825 0.0
H1657 H 0.14854 0.91606 0.53429 0.0
H1658 H 0.13104 0.89932 0.73358 0.0
H1659 H 0.10384 0.8802 0.56091 0.0
H1660 H 0.10757 0.87924 0.47324 0.0
H1661 H 0.14036 0.8763 0.50533 0.0
H1662 H 0.13668 0.87704 0.59308 0.0
H1663 H 0.07982 0.84322 0.82932 0.0
H1664 H 0.08794 0.86161 0.77565 0.0
H1665 H 0.1109 0.8492 0.70163 0.0
H1666 H 0.10281 0.83087 0.75439 0.0
H1667 H 0.10275 0.86075 0.63936 0.0
H1668 H 0.12188 0.86807 0.80311 0.0
H1669 H 0.12043 0.8686 0.89235 0.0
H1670 H 0.10632 0.89435 0.88055 0.0
H1671 H 0.10756 0.89383 0.79118 0.0
C1672 C 0.15999 0.90543 0.62437 0.0
C1673 C 0.15951 0.91052 0.57933 0.0
C1674 C 0.14959 0.90047 0.6553 0.0
C1675 C 0.13852 0.90038 0.64123 0.0
C1676 C 0.13866 0.90703 0.59953 0.0
C1677 C 0.14915 0.91213 0.56873 0.0
C1678 C 0.12647 0.89072 0.66283 0.0
C1679 C 0.12456 0.89105 0.71283 0.0
C1680 C 0.11812 0.87986 0.63577 0.0
C1681 C 0.12003 0.87877 0.58331 0.0
C1682 C 0.11178 0.87925 0.54915 0.0
C1683 C 0.11389 0.87876 0.49951 0.0
C1684 C 0.12421 0.87774 0.48373 0.0
C1685 C 0.13237 0.8771 0.51758 0.0
C1686 C 0.13027 0.87753 0.56723 0.0
C1687 C 0.08631 0.84422 0.80063 0.0
C1688 C 0.09087 0.83572 0.79666 0.0
C1689 C 0.09095 0.85474 0.77009 0.0
C1690 C 0.10016 0.85686 0.73518 0.0
C1691 C 0.10381 0.84777 0.72836 0.0
C1692 C 0.09924 0.83732 0.75883 0.0
C1693 C 0.10751 0.86919 0.71047 0.0
C1694 C 0.10863 0.86931 0.6598 0.0
C1695 C 0.11524 0.88036 0.73708 0.0
C1696 C 0.11468 0.8808 0.79065 0.0
C1697 C 0.11843 0.8738 0.81962 0.0
C1698 C 0.11764 0.87409 0.87017 0.0
C1699 C 0.11325 0.88148 0.8921 0.0
C1700 C 0.10969 0.88861 0.86352 0.0
C1701 C 0.11043 0.88832 0.81294 0.0
H1702 H 0.11264 0.88169 0.93124 0.0
H1703 H 0.12586 0.87743 0.4453 0.0
H1704 H 0.73376 0.90223 0.1218 0.0
H1705 H 0.7438 0.8965 0.18526 0.0
H1706 H 0.77689 0.90906 0.09572 0.0
H1707 H 0.76685 0.91497 0.03184 0.0
H1708 H 0.7669 0.88465 0.12141 0.0
H1709 H 0.78132 0.92205 0.20725 0.0
H1710 H 0.78176 0.94081 0.24209 0.0
H1711 H 0.75054 0.91717 0.33469 0.0
H1712 H 0.74974 0.89824 0.29994 0.0
H1713 H 0.76019 0.84102 0.31567 0.0
H1714 H 0.77191 0.86093 0.27035 0.0
H1715 H 0.73935 0.86578 0.27565 0.0
H1716 H 0.72768 0.84619 0.31991 0.0
H1717 H 0.76258 0.88811 0.29882 0.0
H1718 H 0.74433 0.85289 0.17481 0.0
H1719 H 0.74388 0.83401 0.14054 0.0
H1720 H 0.78416 0.85485 0.12327 0.0
H1721 H 0.78481 0.87382 0.15768 0.0
C1722 C 0.74334 0.90417 0.11627 0.0
C1723 C 0.74948 0.90894 0.07185 0.0
C1724 C 0.74913 0.90099 0.15271 0.0
C1725 C 0.76114 0.9024 0.14533 0.0
C1726 C 0.76767 0.90798 0.10226 0.0
C1727 C 0.76193 0.91138 0.06592 0.0
C1728 C 0.76547 0.89588 0.17887 0.0
C1729 C 0.7665 0.88573 0.16034 0.0
C1730 C 0.76518 0.89736 0.22966 0.0
C1731 C 0.76551 0.90869 0.25098 0.0
C1732 C 0.7745 0.92083 0.23487 0.0
C1733 C 0.77481 0.9315 0.25464 0.0
C1734 C 0.76619 0.93018 0.29062 0.0
C1735 C 0.75724 0.91818 0.30691 0.0
C1736 C 0.75687 0.90747 0.28726 0.0
C1737 C 0.75555 0.84635 0.30705 0.0
C1738 C 0.74296 0.84195 0.32122 0.0
C1739 C 0.76229 0.85773 0.2815 0.0
C1740 C 0.75653 0.86488 0.27037 0.0
C1741 C 0.74403 0.8605 0.28459 0.0
C1742 C 0.73731 0.84917 0.30946 0.0
C1743 C 0.7628 0.87648 0.24073 0.0
C1744 C 0.76379 0.88755 0.26008 0.0
C1745 C 0.76509 0.87595 0.19084 0.0
C1746 C 0.76463 0.86469 0.16897 0.0
C1747 C 0.75307 0.85341 0.16366 0.0
C1748 C 0.75279 0.84271 0.14428 0.0
C1749 C 0.76399 0.84322 0.12984 0.0
C1750 C 0.77549 0.85446 0.13452 0.0
C1751 C 0.77583 0.86519 0.1539 0.0
H1752 H 0.76376 0.83492 0.11499 0.0
H1753 H 0.76645 0.93846 0.30588 0.0
H1754 H 0.12052 0.84701 0.99317 0.0
H1755 H 0.12952 0.86061 0.06402 0.0
H1756 H 0.09257 0.84391 0.12936 0.0
H1757 H 0.08341 0.83058 0.05746 0.0
H1758 H 0.10629 0.86863 0.15235 0.0
H1759 H 0.11242 0.8326 0.15552 0.0
H1760 H 0.11935 0.81835 0.122 0.0
H1761 H 0.15744 0.84922 0.11312 0.0
H1762 H 0.15069 0.86368 0.14601 0.0
H1763 H 0.14445 0.87361 0.3889 0.0
H1764 H 0.13084 0.86251 0.32023 0.0
H1765 H 0.14156 0.89807 0.25087 0.0
H1766 H 0.15516 0.90932 0.31997 0.0
H1767 H 0.13978 0.86341 0.23198 0.0
H1768 H 0.11736 0.89321 0.17075 0.0
H1769 H 0.10945 0.90633 0.20735 0.0
H1770 H 0.10202 0.88575 0.34091 0.0
H1771 H 0.1097 0.87239 0.30492 0.0
C1772 C 0.11429 0.84633 0.02241 0.0
C1773 C 0.10131 0.83758 0.02028 0.0
C1774 C 0.11943 0.85412 0.0628 0.0
C1775 C 0.11175 0.85306 0.10243 0.0
C1776 C 0.09867 0.84485 0.09925 0.0
C1777 C 0.09347 0.8372 0.0583 0.0
C1778 C 0.11753 0.8596 0.14865 0.0
C1779 C 0.11363 0.86753 0.16982 0.0
C1780 C 0.12693 0.85795 0.17189 0.0
C1781 C 0.13103 0.84923 0.15289 0.0
C1782 C 0.12226 0.83635 0.14622 0.0
C1783 C 0.12616 0.82824 0.12734 0.0
C1784 C 0.13882 0.83288 0.11537 0.0
C1785 C 0.14763 0.84564 0.12239 0.0
C1786 C 0.14378 0.85379 0.1412 0.0
C1787 C 0.1438 0.8791 0.35938 0.0
C1788 C 0.15105 0.89234 0.35952 0.0
C1789 C 0.13599 0.87273 0.32021 0.0
C1790 C 0.13525 0.87945 0.28035 0.0
C1791 C 0.14192 0.8927 0.28146 0.0
C1792 C 0.14971 0.89911 0.32091 0.0
C1793 C 0.12863 0.87255 0.23579 0.0
C1794 C 0.13243 0.86455 0.21472 0.0
C1795 C 0.11902 0.87399 0.21338 0.0
C1796 C 0.11424 0.88189 0.23524 0.0
C1797 C 0.114 0.89145 0.20787 0.0
C1798 C 0.10955 0.89894 0.22852 0.0
C1799 C 0.10527 0.8969 0.27647 0.0
C1800 C 0.10539 0.88735 0.30383 0.0
C1801 C 0.10981 0.87983 0.28334 0.0
H1802 H 0.10184 0.90271 0.29239 0.0
H1803 H 0.14182 0.82659 0.10071 0.0
H1804 H 0.16277 0.24676 0.02246 0.0
H1805 H 0.14653 0.23947 0.08581 0.0
H1806 H 0.15548 0.27783 0.11117 0.0
H1807 H 0.17166 0.28522 0.0487 0.0
H1808 H 0.14679 0.24642 0.18767 0.0
H1809 H 0.12784 0.27763 0.10724 0.0
H1810 H 0.12608 0.28558 0.0271 0.0
H1811 H 0.12592 0.25406 0.95784 0.0
H1812 H 0.12746 0.24581 0.03758 0.0
H1813 H 0.12242 0.27211 0.34932 0.0
H1814 H 0.13258 0.26598 0.28775 0.0
H1815 H 0.09641 0.24134 0.222 0.0
H1816 H 0.08606 0.24742 0.28422 0.0
H1817 H 0.11361 0.25765 0.15727 0.0
H1818 H 0.11183 0.22807 0.26966 0.0
H1819 H 0.11332 0.21953 0.34878 0.0
H1820 H 0.15323 0.24545 0.35254 0.0
H1821 H 0.15198 0.2543 0.27379 0.0
C1822 C 0.16143 0.25367 0.04209 0.0
C1823 C 0.16842 0.26657 0.02997 0.0
C1824 C 0.15215 0.24947 0.07823 0.0
C1825 C 0.1497 0.2581 0.10235 0.0
C1826 C 0.15714 0.27102 0.09232 0.0
C1827 C 0.1664 0.27522 0.05657 0.0
C1828 C 0.13896 0.25383 0.13618 0.0
C1829 C 0.13942 0.2487 0.18105 0.0
C1830 C 0.12911 0.2564 0.12651 0.0
C1831 C 0.12782 0.26113 0.07844 0.0
C1832 C 0.12732 0.27234 0.07496 0.0
C1833 C 0.12639 0.27691 0.02958 0.0
C1834 C 0.12591 0.27034 0.9874 0.0
C1835 C 0.12632 0.25916 0.99052 0.0
C1836 C 0.12724 0.25453 0.0358 0.0
C1837 C 0.11658 0.26529 0.32208 0.0
C1838 C 0.10345 0.26036 0.32127 0.0
C1839 C 0.12239 0.26168 0.28722 0.0
C1840 C 0.11524 0.25311 0.25064 0.0
C1841 C 0.10208 0.2479 0.25024 0.0
C1842 C 0.0962 0.25139 0.28567 0.0
C1843 C 0.12187 0.25095 0.21007 0.0
C1844 C 0.12069 0.25495 0.1637 0.0
C1845 C 0.13091 0.24716 0.21828 0.0
C1846 C 0.13179 0.24188 0.26574 0.0
C1847 C 0.12092 0.23202 0.28747 0.0
C1848 C 0.12172 0.22711 0.33226 0.0
C1849 C 0.13336 0.23195 0.35568 0.0
C1850 C 0.14422 0.2417 0.33432 0.0
C1851 C 0.14347 0.24665 0.28953 0.0
H1852 H 0.13396 0.22814 0.39036 0.0
H1853 H 0.12521 0.27391 0.95231 0.0
H1854 H 0.84255 0.71917 0.14622 0.0
H1855 H 0.85843 0.72435 0.20847 0.0
H1856 H 0.85836 0.75879 0.24066 0.0
H1857 H 0.84222 0.75366 0.17779 0.0
H1858 H 0.88451 0.75815 0.23618 0.0
H1859 H 0.84444 0.74176 0.31714 0.0
H1860 H 0.8215 0.72739 0.32507 0.0
H1861 H 0.82722 0.69551 0.32716 0.0
H1862 H 0.85019 0.70969 0.31849 0.0
H1863 H 0.91184 0.75261 0.46845 0.0
H1864 H 0.90197 0.75842 0.4034 0.0
H1865 H 0.88418 0.72032 0.3485 0.0
H1866 H 0.89376 0.71444 0.41324 0.0
H1867 H 0.86731 0.72808 0.37379 0.0
H1868 H 0.90694 0.74424 0.28544 0.0
H1869 H 0.92983 0.75828 0.27423 0.0
H1870 H 0.92517 0.79071 0.2863 0.0
H1871 H 0.90225 0.77684 0.29823 0.0
C1872 C 0.84591 0.72791 0.16605 0.0
C1873 C 0.84094 0.73591 0.15736 0.0
C1874 C 0.85508 0.7309 0.20141 0.0
C1875 C 0.85952 0.74193 0.22895 0.0
C1876 C 0.85506 0.75027 0.21936 0.0
C1877 C 0.84579 0.74726 0.18377 0.0
C1878 C 0.86772 0.74366 0.27091 0.0
C1879 C 0.88079 0.75186 0.26711 0.0
C1880 C 0.8628 0.73535 0.31076 0.0
C1881 C 0.84902 0.72679 0.31694 0.0
C1882 C 0.84079 0.73168 0.31899 0.0
C1883 C 0.82779 0.72357 0.32366 0.0
C1884 C 0.82291 0.71055 0.32656 0.0
C1885 C 0.83102 0.70561 0.32494 0.0
C1886 C 0.84403 0.71368 0.32023 0.0
C1887 C 0.90611 0.74559 0.44164 0.0
C1888 C 0.90343 0.73302 0.44628 0.0
C1889 C 0.90048 0.74892 0.4046 0.0
C1890 C 0.89223 0.73975 0.37164 0.0
C1891 C 0.89041 0.7275 0.37396 0.0
C1892 C 0.89592 0.72416 0.41092 0.0
C1893 C 0.88422 0.74221 0.33835 0.0
C1894 C 0.8711 0.73471 0.34388 0.0
C1895 C 0.88915 0.75122 0.30053 0.0
C1896 C 0.90291 0.75951 0.29337 0.0
C1897 C 0.91081 0.75436 0.28621 0.0
C1898 C 0.92378 0.76229 0.2796 0.0
C1899 C 0.92896 0.77538 0.27973 0.0
C1900 C 0.92115 0.78057 0.28631 0.0
C1901 C 0.90817 0.77268 0.29297 0.0
H1902 H 0.939 0.7815 0.27459 0.0
H1903 H 0.81283 0.70428 0.33013 0.0
H1904 H 0.23381 0.08227 0.16664 0.0
H1905 H 0.22549 0.09212 0.22168 0.0
H1906 H 0.25771 0.10386 0.3154 0.0
H1907 H 0.2661 0.09421 0.26052 0.0
H1908 H 0.23564 0.09834 0.36666 0.0
H1909 H 0.26025 0.12211 0.22259 0.0
H1910 H 0.26329 0.12472 0.13392 0.0
H1911 H 0.22731 0.12254 0.11887 0.0
H1912 H 0.22399 0.11972 0.20745 0.0
H1913 H 0.27472 0.1625 0.41683 0.0
H1914 H 0.26457 0.14499 0.35999 0.0
H1915 H 0.22796 0.13736 0.40903 0.0
H1916 H 0.23805 0.15486 0.46704 0.0
H1917 H 0.2426 0.13741 0.28454 0.0
H1918 H 0.21893 0.11468 0.4364 0.0
H1919 H 0.21848 0.11341 0.5259 0.0
H1920 H 0.25422 0.1147 0.52534 0.0
H1921 H 0.25489 0.11609 0.43583 0.0
C1922 C 0.23885 0.08652 0.19998 0.0
C1923 C 0.25068 0.08765 0.20916 0.0
C1924 C 0.23409 0.09216 0.23127 0.0
C1925 C 0.24106 0.09883 0.27223 0.0
C1926 C 0.25218 0.09874 0.284 0.0
C1927 C 0.257 0.09329 0.25251 0.0
C1928 C 0.23834 0.10779 0.29805 0.0
C1929 C 0.2367 0.10668 0.34852 0.0
C1930 C 0.23973 0.1187 0.27442 0.0
C1931 C 0.24181 0.12056 0.22141 0.0
C1932 C 0.25296 0.12211 0.20028 0.0
C1933 C 0.25473 0.12363 0.15008 0.0
C1934 C 0.24548 0.12376 0.12076 0.0
C1935 C 0.23445 0.1224 0.14161 0.0
C1936 C 0.23262 0.12084 0.19179 0.0
C1937 C 0.26451 0.15728 0.41511 0.0
C1938 C 0.25721 0.15996 0.4471 0.0
C1939 C 0.25873 0.14731 0.38239 0.0
C1940 C 0.24555 0.13984 0.38087 0.0
C1941 C 0.23816 0.14299 0.41011 0.0
C1942 C 0.24396 0.15301 0.44306 0.0
C1943 C 0.24 0.12796 0.353 0.0
C1944 C 0.24048 0.12864 0.30224 0.0
C1945 C 0.23745 0.11663 0.37622 0.0
C1946 C 0.23699 0.11556 0.42972 0.0
C1947 C 0.2267 0.11473 0.45549 0.0
C1948 C 0.2264 0.11399 0.50615 0.0
C1949 C 0.23633 0.114 0.53131 0.0
C1950 C 0.24654 0.11471 0.50582 0.0
C1951 C 0.24688 0.11546 0.45516 0.0
H1952 H 0.23609 0.11344 0.57053 0.0
H1953 H 0.24687 0.12496 0.08191 0.0
H1954 H 0.83959 0.08384 0.48219 0.0
H1955 H 0.85481 0.09345 0.41552 0.0
H1956 H 0.8474 0.12435 0.41097 0.0
H1957 H 0.83266 0.1152 0.47818 0.0
H1958 H 0.84544 0.10775 0.31601 0.0
H1959 H 0.87186 0.13487 0.45452 0.0
H1960 H 0.8819 0.13676 0.53415 0.0
H1961 H 0.89945 0.11637 0.47969 0.0
H1962 H 0.88952 0.1144 0.39966 0.0
H1963 H 0.8794 0.16413 0.20407 0.0
H1964 H 0.86916 0.14715 0.26226 0.0
H1965 H 0.89813 0.13731 0.24195 0.0
H1966 H 0.90867 0.15455 0.18268 0.0
H1967 H 0.89122 0.13728 0.34085 0.0
H1968 H 0.8708 0.1174 0.19472 0.0
H1969 H 0.86077 0.11502 0.11491 0.0
H1970 H 0.83154 0.11967 0.18063 0.0
H1971 H 0.84137 0.12208 0.26095 0.0
C1972 C 0.84123 0.0927 0.46711 0.0
C1973 C 0.83473 0.09865 0.48512 0.0
C1974 C 0.84993 0.09816 0.42915 0.0
C1975 C 0.85213 0.10954 0.40853 0.0
C1976 C 0.84575 0.11552 0.42652 0.0
C1977 C 0.83726 0.11021 0.46474 0.0
C1978 C 0.86077 0.11528 0.36714 0.0
C1979 C 0.85548 0.11409 0.32106 0.0
C1980 C 0.87389 0.12314 0.37371 0.0
C1981 C 0.87987 0.12438 0.42149 0.0
C1982 C 0.8778 0.13072 0.45971 0.0
C1983 C 0.88348 0.13183 0.50484 0.0
C1984 C 0.89124 0.12662 0.51209 0.0
C1985 C 0.89341 0.12037 0.47408 0.0
C1986 C 0.88778 0.11928 0.42882 0.0
C1987 C 0.88369 0.15842 0.21169 0.0
C1988 C 0.89483 0.16066 0.18817 0.0
C1989 C 0.87776 0.14866 0.24497 0.0
C1990 C 0.88272 0.1408 0.25556 0.0
C1991 C 0.89409 0.14321 0.23378 0.0
C1992 C 0.9001 0.15307 0.20009 0.0
C1993 C 0.87578 0.13025 0.28992 0.0
C1994 C 0.88132 0.13054 0.33486 0.0
C1995 C 0.86287 0.12138 0.28208 0.0
C1996 C 0.85686 0.11995 0.23389 0.0
C1997 C 0.86227 0.11799 0.19215 0.0
C1998 C 0.85661 0.11662 0.1468 0.0
C1999 C 0.84556 0.11725 0.14264 0.0
C2000 C 0.8401 0.11918 0.1839 0.0
C2001 C 0.84568 0.12049 0.2294 0.0
H2002 H 0.84121 0.11621 0.10745 0.0
H2003 H 0.8956 0.12746 0.5471 0.0
H2004 H 0.91081 0.41904 0.29959 0.0
H2005 H 0.90558 0.43088 0.24123 0.0
H2006 H 0.94517 0.4579 0.22439 0.0
H2007 H 0.95049 0.44627 0.28204 0.0
H2008 H 0.93034 0.46882 0.24539 0.0
H2009 H 0.92963 0.4362 0.13902 0.0
H2010 H 0.92117 0.41412 0.11309 0.0
H2011 H 0.88426 0.40972 0.09748 0.0
H2012 H 0.89248 0.43175 0.12391 0.0
H2013 H 0.95121 0.50314 0.03724 0.0
H2014 H 0.94499 0.48761 0.10142 0.0
H2015 H 0.90575 0.47345 0.06781 0.0
H2016 H 0.91191 0.48915 0.00247 0.0
H2017 H 0.91275 0.45428 0.08046 0.0
H2018 H 0.91478 0.48848 0.16757 0.0
H2019 H 0.92335 0.51071 0.19137 0.0
H2020 H 0.95706 0.51215 0.24429 0.0
H2021 H 0.94879 0.48999 0.22013 0.0
C2022 C 0.9184 0.42744 0.28308 0.0
C2023 C 0.93108 0.43175 0.29584 0.0
C2024 C 0.91539 0.43418 0.24981 0.0
C2025 C 0.92499 0.4453 0.22894 0.0
C2026 C 0.93761 0.44939 0.24054 0.0
C2027 C 0.94064 0.44269 0.27344 0.0
C2028 C 0.92218 0.4531 0.19591 0.0
C2029 C 0.92642 0.46564 0.20941 0.0
C2030 C 0.91651 0.44875 0.14994 0.0
C2031 C 0.91162 0.43554 0.13406 0.0
C2032 C 0.91968 0.43048 0.13049 0.0
C2033 C 0.91494 0.41799 0.11561 0.0
C2034 C 0.90218 0.4105 0.10382 0.0
C2035 C 0.89414 0.41551 0.10674 0.0
C2036 C 0.89883 0.428 0.12165 0.0
C2037 C 0.94123 0.49679 0.0433 0.0
C2038 C 0.93206 0.49742 0.01467 0.0
C2039 C 0.9377 0.48793 0.08022 0.0
C2040 C 0.92492 0.47949 0.08961 0.0
C2041 C 0.91566 0.47995 0.06113 0.0
C2042 C 0.9192 0.48895 0.02407 0.0
C2043 C 0.92164 0.47018 0.12905 0.0
C2044 C 0.91623 0.45736 0.117 0.0
C2045 C 0.92616 0.47424 0.17664 0.0
C2046 C 0.93115 0.48755 0.19197 0.0
C2047 C 0.92405 0.49355 0.18408 0.0
C2048 C 0.92885 0.50614 0.19765 0.0
C2049 C 0.94074 0.51284 0.21934 0.0
C2050 C 0.94784 0.50695 0.22757 0.0
C2051 C 0.94309 0.49436 0.21403 0.0
H2052 H 0.94444 0.52259 0.22977 0.0
H2053 H 0.89852 0.40084 0.09229 0.0
H2054 H 0.57961 0.49562 0.29978 0.0
H2055 H 0.56754 0.47878 0.24118 0.0
H2056 H 0.53506 0.48308 0.26513 0.0
H2057 H 0.54694 0.49983 0.32369 0.0
H2058 H 0.52925 0.45814 0.26731 0.0
H2059 H 0.55313 0.49547 0.1664 0.0
H2060 H 0.57269 0.51355 0.13497 0.0
H2061 H 0.58547 0.48848 0.08636 0.0
H2062 H 0.56603 0.47025 0.11811 0.0
H2063 H 0.48951 0.44067 0.06694 0.0
H2064 H 0.50439 0.45036 0.13363 0.0
H2065 H 0.52777 0.43643 0.07446 0.0
H2066 H 0.51274 0.42651 0.00741 0.0
H2067 H 0.54073 0.46249 0.09289 0.0
H2068 H 0.51485 0.42489 0.17804 0.0
H2069 H 0.49516 0.40668 0.20779 0.0
H2070 H 0.4862 0.4316 0.28563 0.0
H2071 H 0.50574 0.44998 0.25574 0.0
C2072 C 0.5699 0.49301 0.2925 0.0
C2073 C 0.56425 0.4991 0.31648 0.0
C2074 C 0.56304 0.48339 0.25901 0.0
C2075 C 0.55042 0.47969 0.24898 0.0
C2076 C 0.54477 0.48576 0.27266 0.0
C2077 C 0.55162 0.4954 0.30591 0.0
C2078 C 0.54298 0.4696 0.21346 0.0
C2079 C 0.53173 0.45907 0.22914 0.0
C2080 C 0.54654 0.47057 0.16413 0.0
C2081 C 0.55822 0.48153 0.14521 0.0
C2082 C 0.56017 0.49383 0.14943 0.0
C2083 C 0.57122 0.5041 0.13147 0.0
C2084 C 0.58034 0.50217 0.10885 0.0
C2085 C 0.57841 0.48996 0.10401 0.0
C2086 C 0.56738 0.47966 0.12197 0.0
C2087 C 0.49771 0.43949 0.06847 0.0
C2088 C 0.5 0.4329 0.03188 0.0
C2089 C 0.50616 0.44496 0.10674 0.0
C2090 C 0.51713 0.44405 0.10902 0.0
C2091 C 0.51931 0.43717 0.07334 0.0
C2092 C 0.51071 0.4315 0.03527 0.0
C2093 C 0.52671 0.45133 0.14641 0.0
C2094 C 0.53839 0.46134 0.13122 0.0
C2095 C 0.52356 0.44985 0.19623 0.0
C2096 C 0.51176 0.43884 0.21441 0.0
C2097 C 0.50864 0.4265 0.20119 0.0
C2098 C 0.49751 0.41615 0.21814 0.0
C2099 C 0.48943 0.41799 0.24853 0.0
C2100 C 0.49247 0.43019 0.26209 0.0
C2101 C 0.50359 0.44059 0.24521 0.0
H2102 H 0.48082 0.40995 0.26163 0.0
H2103 H 0.58889 0.51013 0.09494 0.0
H2104 H 0.54322 0.0586 0.97745 0.0
H2105 H 0.53248 0.06156 0.04643 0.0
H2106 H 0.56828 0.08467 0.11716 0.0
H2107 H 0.5792 0.08199 0.0474 0.0
H2108 H 0.53521 0.05303 0.13916 0.0
H2109 H 0.56699 0.10227 0.16458 0.0
H2110 H 0.57852 0.12278 0.12219 0.0
H2111 H 0.54552 0.11344 0.03737 0.0
H2112 H 0.5339 0.09283 0.07896 0.0
H2113 H 0.51113 0.05634 0.36552 0.0
H2114 H 0.52633 0.06029 0.30084 0.0
H2115 H 0.51108 0.07953 0.21788 0.0
H2116 H 0.49632 0.0762 0.28385 0.0
H2117 H 0.53521 0.09091 0.20352 0.0
H2118 H 0.50187 0.04749 0.19809 0.0
H2119 H 0.48788 0.02604 0.2298 0.0
H2120 H 0.5201 0.02208 0.26151 0.0
H2121 H 0.53427 0.04354 0.23031 0.0
C2122 C 0.54884 0.06451 0.00728 0.0
C2123 C 0.56203 0.06994 0.0074 0.0
C2124 C 0.54269 0.06622 0.04651 0.0
C2125 C 0.54959 0.07334 0.0867 0.0
C2126 C 0.56282 0.07932 0.08605 0.0
C2127 C 0.56903 0.07773 0.04636 0.0
C2128 C 0.54274 0.07303 0.13119 0.0
C2129 C 0.53533 0.06133 0.15378 0.0
C2130 C 0.5427 0.08378 0.14929 0.0
C2131 C 0.54965 0.09608 0.12453 0.0
C2132 C 0.56224 0.10462 0.13678 0.0
C2133 C 0.56878 0.11623 0.1129 0.0
C2134 C 0.56276 0.1194 0.07707 0.0
C2135 C 0.55019 0.11096 0.06502 0.0
C2136 C 0.54363 0.09932 0.08863 0.0
C2137 C 0.51109 0.06148 0.33356 0.0
C2138 C 0.50247 0.06583 0.32924 0.0
C2139 C 0.51976 0.06372 0.29664 0.0
C2140 C 0.51966 0.06995 0.25399 0.0
C2141 C 0.51133 0.07469 0.25039 0.0
C2142 C 0.50287 0.07273 0.28792 0.0
C2143 C 0.52767 0.07085 0.21208 0.0
C2144 C 0.53524 0.08262 0.18975 0.0
C2145 C 0.52763 0.06004 0.19339 0.0
C2146 C 0.51912 0.04716 0.21234 0.0
C2147 C 0.50596 0.04207 0.21213 0.0
C2148 C 0.498 0.02991 0.22994 0.0
C2149 C 0.5031 0.02272 0.24778 0.0
C2150 C 0.51616 0.02767 0.24774 0.0
C2151 C 0.52416 0.03982 0.22994 0.0
H2152 H 0.49693 0.0133 0.26154 0.0
H2153 H 0.56782 0.1284 0.05868 0.0
H2154 H 0.75048 0.57772 0.85495 0.0
H2155 H 0.75953 0.5716 0.92163 0.0
H2156 H 0.77286 0.608 0.98844 0.0
H2157 H 0.7641 0.61426 0.92165 0.0
H2158 H 0.7916 0.60346 0.97391 0.0
H2159 H 0.74935 0.58038 0.03913 0.0
H2160 H 0.72664 0.56466 0.03764 0.0
H2161 H 0.73519 0.5351 0.01277 0.0
H2162 H 0.75797 0.55067 0.01347 0.0
H2163 H 0.81043 0.60144 0.20549 0.0
H2164 H 0.79403 0.59682 0.14582 0.0
H2165 H 0.80238 0.57051 0.07442 0.0
H2166 H 0.81905 0.57514 0.13436 0.0
H2167 H 0.77269 0.56675 0.08565 0.0
H2168 H 0.81538 0.59087 0.01551 0.0
H2169 H 0.8379 0.60701 0.0229 0.0
H2170 H 0.82772 0.63484 0.06029 0.0
H2171 H 0.80513 0.61878 0.0538 0.0
C2172 C 0.75507 0.5843 0.88447 0.0
C2173 C 0.75676 0.59655 0.88273 0.0
C2174 C 0.76022 0.58077 0.92259 0.0
C2175 C 0.76695 0.58938 0.95978 0.0
C2176 C 0.7678 0.60125 0.95982 0.0
C2177 C 0.76279 0.60482 0.92165 0.0
C2178 C 0.77441 0.58676 0.9955 0.0
C2179 C 0.78739 0.5954 -0.00182 0.0
C2180 C 0.76905 0.57606 0.02631 0.0
C2181 C 0.75536 0.56671 0.02576 0.0
C2182 C 0.74639 0.57054 0.03286 0.0
C2183 C 0.7335 0.56166 0.03228 0.0
C2184 C 0.72947 0.5489 0.02495 0.0
C2185 C 0.73833 0.54499 0.01834 0.0
C2186 C 0.75123 0.55384 0.01887 0.0
C2187 C 0.80865 0.59447 0.17775 0.0
C2188 C 0.81623 0.58886 0.17395 0.0
C2189 C 0.79916 0.59174 0.14405 0.0
C2190 C 0.79706 0.58337 0.10588 0.0
C2191 C 0.80384 0.57692 0.10403 0.0
C2192 C 0.81339 0.57964 0.13805 0.0
C2193 C 0.78968 0.58353 0.06389 0.0
C2194 C 0.77681 0.57456 0.06026 0.0
C2195 C 0.79506 0.5939 0.03184 0.0
C2196 C 0.80861 0.60363 0.03453 0.0
C2197 C 0.81796 0.60041 0.02559 0.0
C2198 C 0.83073 0.60954 0.02958 0.0
C2199 C 0.83424 0.62194 0.04215 0.0
C2200 C 0.82499 0.62523 0.05058 0.0
C2201 C 0.81221 0.61613 0.04671 0.0
H2202 H 0.84412 0.62899 0.04527 0.0
H2203 H 0.71949 0.54203 0.02453 0.0
H2204 H 0.42221 0.17452 0.86719 0.0
H2205 H 0.43033 0.19251 0.92326 0.0
H2206 H 0.40009 0.19907 0.88196 0.0
H2207 H 0.39185 0.18114 0.82662 0.0
H2208 H 0.42445 0.22137 0.88537 0.0
H2209 H 0.3964 0.18433 0.98322 0.0
H2210 H 0.38949 0.1633 0.01773 0.0
H2211 H 0.42608 0.17697 0.08162 0.0
H2212 H 0.43318 0.19815 0.04745 0.0
H2213 H 0.39843 0.24201 0.06102 0.0
H2214 H 0.40551 0.23277 -0.00127 0.0
H2215 H 0.43661 0.2385 0.08988 0.0
H2216 H 0.4297 0.24808 0.15222 0.0
H2217 H 0.42021 0.2132 0.06261 0.0
H2218 H 0.44456 0.2524 0.98635 0.0
H2219 H 0.45005 0.2733 0.95402 0.0
H2220 H 0.42018 0.2559 0.84931 0.0
H2221 H 0.41435 0.23489 0.88147 0.0
C2222 C 0.41732 0.17982 0.87003 0.0
C2223 C 0.40635 0.17637 0.84267 0.0
C2224 C 0.42199 0.19009 0.90193 0.0
C2225 C 0.41584 0.19712 0.90634 0.0
C2226 C 0.40502 0.1938 0.87865 0.0
C2227 C 0.40025 0.18348 0.8474 0.0
C2228 C 0.42014 0.20758 0.94152 0.0
C2229 C 0.42364 0.21967 0.92418 0.0
C2230 C 0.41953 0.20541 0.99203 0.0
C2231 C 0.41536 0.19273 0.01227 0.0
C2232 C 0.403 0.18281 0.00429 0.0
C2233 C 0.39904 0.17088 0.02386 0.0
C2234 C 0.40737 0.16876 0.05156 0.0
C2235 C 0.41966 0.17861 0.06 0.0
C2236 C 0.42364 0.19059 0.04063 0.0
C2237 C 0.40699 0.24165 0.06716 0.0
C2238 C 0.41348 0.24568 0.11139 0.0
C2239 C 0.41107 0.23643 0.0315 0.0
C2240 C 0.4216 0.23499 0.03974 0.0
C2241 C 0.42852 0.23963 0.08282 0.0
C2242 C 0.42458 0.24511 0.11822 0.0
C2243 C 0.42393 0.2269 0.00646 0.0
C2244 C 0.42162 0.21517 0.02401 0.0
C2245 C 0.42559 0.22942 0.95615 0.0
C2246 C 0.429 0.24203 0.93648 0.0
C2247 C 0.43909 0.25302 0.95665 0.0
C2248 C 0.44228 0.26489 0.93831 0.0
C2249 C 0.43547 0.26592 0.89965 0.0
C2250 C 0.42546 0.25508 0.87923 0.0
C2251 C 0.42222 0.24318 0.89745 0.0
H2252 H 0.43795 0.27513 0.88549 0.0
H2253 H 0.40429 0.1595 0.06665 0.0
H2254 H 0.83955 0.22542 0.88869 0.0
H2255 H 0.82213 0.21272 0.94353 0.0
H2256 H 0.80393 0.23373 0.90237 0.0
H2257 H 0.82132 0.24642 0.84637 0.0
H2258 H 0.80268 0.22602 0.0095 0.0
H2259 H 0.79383 0.20994 0.84678 0.0
H2260 H 0.80024 0.20463 0.76983 0.0
H2261 H 0.80511 0.17625 0.84185 0.0
H2262 H 0.79935 0.18186 0.91996 0.0
H2263 H 0.75146 0.17445 0.1338 0.0
H2264 H 0.76143 0.19012 0.06896 0.0
H2265 H 0.78554 0.17477 0.03516 0.0
H2266 H 0.77546 0.15901 0.09783 0.0
H2267 H 0.77931 0.18134 0.95538 0.0
H2268 H 0.79398 0.2006 0.116 0.0
H2269 H 0.79057 0.20691 0.19707 0.0
H2270 H 0.77603 0.22893 0.13187 0.0
H2271 H 0.77919 0.22258 0.05037 0.0
C2272 C 0.83192 0.22742 0.89142 0.0
C2273 C 0.83167 0.23668 0.86216 0.0
C2274 C 0.82202 0.22023 0.92312 0.0
C2275 C 0.81171 0.22221 0.92636 0.0
C2276 C 0.81183 0.23209 0.90017 0.0
C2277 C 0.82175 0.23927 0.8681 0.0
C2278 C 0.8003 0.21293 0.95274 0.0
C2279 C 0.79732 0.2163 0.99731 0.0
C2280 C 0.79343 0.20028 0.93664 0.0
C2281 C 0.79621 0.19637 0.88932 0.0
C2282 C 0.79633 0.20261 0.84631 0.0
C2283 C 0.79986 0.19955 0.80244 0.0
C2284 C 0.803 0.19004 0.80079 0.0
C2285 C 0.80265 0.1836 0.84314 0.0
C2286 C 0.79929 0.18674 0.88728 0.0
C2287 C 0.7587 0.17427 0.11179 0.0
C2288 C 0.76278 0.16558 0.12156 0.0
C2289 C 0.76444 0.18328 0.07497 0.0
C2290 C 0.77441 0.18378 0.04778 0.0
C2291 C 0.7779 0.17462 0.05563 0.0
C2292 C 0.77215 0.16562 0.09187 0.0
C2293 C 0.78202 0.19423 0.01359 0.0
C2294 C 0.78431 0.19112 0.96712 0.0
C2295 C 0.78837 0.20706 0.02836 0.0
C2296 C 0.78666 0.211 0.07724 0.0
C2297 C 0.78999 0.20674 0.11902 0.0
C2298 C 0.78811 0.21033 0.16503 0.0
C2299 C 0.78305 0.21829 0.16964 0.0
C2300 C 0.77992 0.22273 0.12824 0.0
C2301 C 0.78174 0.21914 0.08215 0.0
H2302 H 0.78156 0.22104 0.20524 0.0
H2303 H 0.80573 0.18768 0.76675 0.0
H2304 H 0.38643 0.21331 0.31421 0.0
H2305 H 0.38966 0.20114 0.37652 0.0
H2306 H 0.42347 0.23453 0.42374 0.0
H2307 H 0.42022 0.24695 0.36133 0.0
H2308 H 0.42627 0.21308 0.4169 0.0
H2309 H 0.3987 0.22475 0.49461 0.0
H2310 H 0.38032 0.22777 0.50405 0.0
H2311 H 0.35527 0.18815 0.48143 0.0
H2312 H 0.3735 0.18489 0.47187 0.0
H2313 H 0.42345 0.18053 0.64384 0.0
H2314 H 0.42679 0.19522 0.57729 0.0
H2315 H 0.39177 0.16741 0.51178 0.0
H2316 H 0.38829 0.1529 0.5783 0.0
H2317 H 0.39178 0.18882 0.5344 0.0
H2318 H 0.42009 0.17744 0.45631 0.0
H2319 H 0.43882 0.17498 0.44876 0.0
H2320 H 0.46301 0.21464 0.47412 0.0
H2321 H 0.44441 0.21731 0.48255 0.0
C2322 C 0.39451 0.21814 0.33802 0.0
C2323 C 0.40295 0.23116 0.33329 0.0
C2324 C 0.39636 0.21115 0.37355 0.0
C2325 C 0.40671 0.21698 0.40509 0.0
C2326 C 0.4154 0.22989 0.39978 0.0
C2327 C 0.41351 0.23695 0.36421 0.0
C2328 C 0.40821 0.20943 0.44364 0.0
C2329 C 0.41886 0.20792 0.44327 0.0
C2330 C 0.39847 0.20266 0.47759 0.0
C2331 C 0.38747 0.20459 0.48233 0.0
C2332 C 0.38927 0.2167 0.4914 0.0
C2333 C 0.37888 0.21843 0.49707 0.0
C2334 C 0.36664 0.20814 0.49358 0.0
C2335 C 0.36476 0.1961 0.48435 0.0
C2336 C 0.37511 0.19429 0.47896 0.0
C2337 C 0.41672 0.17742 0.61428 0.0
C2338 C 0.40552 0.16568 0.61642 0.0
C2339 C 0.41863 0.18582 0.57635 0.0
C2340 C 0.40944 0.18245 0.53998 0.0
C2341 C 0.39891 0.17024 0.53978 0.0
C2342 C 0.39694 0.16195 0.57773 0.0
C2343 C 0.40962 0.19202 0.50661 0.0
C2344 C 0.39927 0.194 0.50833 0.0
C2345 C 0.41968 0.19925 0.47436 0.0
C2346 C 0.43084 0.19755 0.47058 0.0
C2347 C 0.42939 0.18561 0.46087 0.0
C2348 C 0.43999 0.18419 0.45622 0.0
C2349 C 0.4521 0.19465 0.4609 0.0
C2350 C 0.45363 0.20655 0.47046 0.0
C2351 C 0.44306 0.20802 0.47517 0.0
H2352 H 0.46029 0.19354 0.45707 0.0
H2353 H 0.35861 0.20952 0.49772 0.0
H2354 H 0.82032 0.24575 0.65452 0.0
H2355 H 0.80509 0.23442 0.58928 0.0
H2356 H 0.83005 0.22234 0.53089 0.0
H2357 H 0.84513 0.23342 0.59589 0.0
H2358 H 0.81892 0.23034 0.4595 0.0
H2359 H 0.80707 0.20255 0.6013 0.0
H2360 H 0.80028 0.19634 0.6859 0.0
H2361 H 0.76825 0.20119 0.66251 0.0
H2362 H 0.77488 0.20742 0.5776 0.0
H2363 H 0.78947 0.17283 0.33997 0.0
H2364 H 0.80046 0.19024 0.39672 0.0
H2365 H 0.76622 0.19139 0.42061 0.0
H2366 H 0.75504 0.17388 0.36329 0.0
H2367 H 0.77889 0.19212 0.50641 0.0
H2368 H 0.78804 0.21503 0.36007 0.0
H2369 H 0.79407 0.22011 0.27433 0.0
H2370 H 0.83053 0.22465 0.30463 0.0
H2371 H 0.82471 0.21955 0.39077 0.0
C2372 C 0.82263 0.24086 0.62723 0.0
C2373 C 0.83387 0.2404 0.63037 0.0
C2374 C 0.81391 0.23435 0.59022 0.0
C2375 C 0.81644 0.2275 0.55555 0.0
C2376 C 0.82794 0.22758 0.55731 0.0
C2377 C 0.83652 0.23388 0.59455 0.0
C2378 C 0.80695 0.21956 0.51887 0.0
C2379 C 0.81014 0.22202 0.46965 0.0
C2380 C 0.7953 0.20894 0.53214 0.0
C2381 C 0.79156 0.20562 0.58345 0.0
C2382 C 0.79866 0.20243 0.61441 0.0
C2383 C 0.79482 0.19886 0.66235 0.0
C2384 C 0.78387 0.19842 0.67968 0.0
C2385 C 0.77674 0.20156 0.64908 0.0
C2386 C 0.78053 0.20509 0.60103 0.0
C2387 C 0.78422 0.17674 0.35722 0.0
C2388 C 0.77136 0.17195 0.34702 0.0
C2389 C 0.79056 0.18677 0.38939 0.0
C2390 C 0.78419 0.19221 0.41226 0.0
C2391 C 0.77131 0.18737 0.40296 0.0
C2392 C 0.76496 0.17738 0.37024 0.0
C2393 C 0.79109 0.20266 0.44713 0.0
C2394 C 0.78745 0.20066 0.49601 0.0
C2395 C 0.80228 0.21375 0.43352 0.0
C2396 C 0.80591 0.21683 0.38183 0.0
C2397 C 0.79732 0.21703 0.34841 0.0
C2398 C 0.80071 0.21993 0.29972 0.0
C2399 C 0.81266 0.22265 0.28392 0.0
C2400 C 0.82127 0.22253 0.3169 0.0
C2401 C 0.81795 0.21968 0.36572 0.0
H2402 H 0.81524 0.22487 0.24615 0.0
H2403 H 0.78085 0.19559 0.71673 0.0
H2404 H 0.75474 0.58149 0.63421 0.0
H2405 H 0.76786 0.57669 0.58092 0.0
H2406 H 0.80124 0.60959 0.63449 0.0
H2407 H 0.78831 0.61459 0.6865 0.0
H2408 H 0.80113 0.60927 0.53959 0.0
H2409 H 0.79321 0.57882 0.66624 0.0
H2410 H 0.77971 0.56082 0.71926 0.0
H2411 H 0.76338 0.53716 0.59432 0.0
H2412 H 0.77668 0.55507 0.54051 0.0
H2413 H 0.849 0.60627 0.43298 0.0
H2414 H 0.83554 0.60252 0.50369 0.0
H2415 H 0.80447 0.57159 0.42913 0.0
H2416 H 0.81817 0.57491 0.35919 0.0
H2417 H 0.80224 0.5693 0.53229 0.0
H2418 H 0.80907 0.59956 0.40643 0.0
H2419 H 0.8226 0.61724 0.3521 0.0
H2420 H 0.84034 0.64108 0.47548 0.0
H2421 H 0.82705 0.62346 0.53054 0.0
C2422 C 0.76488 0.58766 0.63471 0.0
C2423 C 0.77046 0.59851 0.66419 0.0
C2424 C 0.77237 0.58485 0.60451 0.0
C2425 C 0.78554 0.59275 0.60392 0.0
C2426 C 0.7911 0.60339 0.63418 0.0
C2427 C 0.78366 0.60626 0.66382 0.0
C2428 C 0.79363 0.59062 0.56961 0.0
C2429 C 0.80145 0.60057 0.53861 0.0
C2430 C 0.79376 0.57911 0.567 0.0
C2431 C 0.78585 0.56832 0.59935 0.0
C2432 C 0.78667 0.56981 0.65006 0.0
C2433 C 0.77907 0.55961 0.68026 0.0
C2434 C 0.77067 0.54786 0.66017 0.0
C2435 C 0.76988 0.54627 0.60983 0.0
C2436 C 0.77746 0.55643 0.57947 0.0
C2437 C 0.8395 0.59825 0.43281 0.0
C2438 C 0.83456 0.59096 0.39073 0.0
C2439 C 0.8318 0.59613 0.47307 0.0
C2440 C 0.81892 0.58702 0.47096 0.0
C2441 C 0.81437 0.5787 0.43134 0.0
C2442 C 0.8222 0.58062 0.3914 0.0
C2443 C 0.80997 0.58812 0.50397 0.0
C2444 C 0.8019 0.57798 0.53384 0.0
C2445 C 0.80949 0.59944 0.50559 0.0
C2446 C 0.81714 0.61018 0.47256 0.0
C2447 C 0.81588 0.60857 0.42194 0.0
C2448 C 0.82351 0.61857 0.39103 0.0
C2449 C 0.83234 0.63027 0.41033 0.0
C2450 C 0.83351 0.63201 0.46058 0.0
C2451 C 0.82592 0.62202 0.49166 0.0
H2452 H 0.83826 0.638 0.38634 0.0
H2453 H 0.76478 0.53998 0.68361 0.0
H2454 H 0.57311 0.06179 0.72663 0.0
H2455 H 0.56313 0.06813 0.66423 0.0
H2456 H 0.55959 0.09271 0.7679 0.0
H2457 H 0.57031 0.08699 0.82869 0.0
H2458 H 0.54087 0.06187 0.66645 0.0
H2459 H 0.55221 0.11306 0.71904 0.0
H2460 H 0.57076 0.13344 0.74108 0.0
H2461 H 0.59518 0.12235 0.672 0.0
H2462 H 0.57677 0.10199 0.64892 0.0
H2463 H 0.48862 0.06346 0.60387 0.0
H2464 H 0.50676 0.06911 0.6565 0.0
H2465 H 0.53148 0.09556 0.54905 0.0
H2466 H 0.51325 0.09041 0.49745 0.0
H2467 H 0.54196 0.10246 0.63849 0.0
H2468 H 0.5245 0.06587 0.53924 0.0
H2469 H 0.50747 0.04605 0.50459 0.0
H2470 H 0.49928 0.02897 0.64585 0.0
H2471 H 0.51613 0.04878 0.68148 0.0
C2472 C 0.57058 0.06888 0.73519 0.0
C2473 C 0.57237 0.07387 0.78215 0.0
C2474 C 0.56485 0.07249 0.69974 0.0
C2475 C 0.56048 0.08086 0.71121 0.0
C2476 C 0.56307 0.08646 0.75746 0.0
C2477 C 0.56914 0.08313 0.79241 0.0
C2478 C 0.55145 0.08201 0.67837 0.0
C2479 C 0.54129 0.07082 0.66007 0.0
C2480 C 0.55196 0.09366 0.66893 0.0
C2481 C 0.56309 0.10593 0.68257 0.0
C2482 C 0.56153 0.11499 0.70833 0.0
C2483 C 0.57202 0.12654 0.72107 0.0
C2484 C 0.58414 0.12918 0.70807 0.0
C2485 C 0.58579 0.12028 0.68222 0.0
C2486 C 0.57532 0.10872 0.66938 0.0
C2487 C 0.49785 0.0709 0.59257 0.0
C2488 C 0.49961 0.07637 0.54649 0.0
C2489 C 0.50822 0.07409 0.62248 0.0
C2490 C 0.52049 0.08242 0.60583 0.0
C2491 C 0.52211 0.08903 0.56239 0.0
C2492 C 0.51168 0.08608 0.53295 0.0
C2493 C 0.53139 0.08233 0.62886 0.0
C2494 C 0.54179 0.09364 0.64487 0.0
C2495 C 0.53147 0.07087 0.63443 0.0
C2496 C 0.52151 0.05883 0.61307 0.0
C2497 C 0.51903 0.0579 0.56294 0.0
C2498 C 0.50941 0.04668 0.54312 0.0
C2499 C 0.50229 0.03626 0.57301 0.0
C2500 C 0.5048 0.03705 0.62275 0.0
C2501 C 0.51439 0.04827 0.64278 0.0
H2502 H 0.49484 0.02758 0.55762 0.0
H2503 H 0.59226 0.13812 0.71796 0.0
H2504 H 0.90953 0.42018 0.50503 0.0
H2505 H 0.9048 0.43186 0.56594 0.0
H2506 H 0.94362 0.45069 0.61302 0.0
H2507 H 0.94841 0.43913 0.55284 0.0
H2508 H 0.92724 0.44397 0.68946 0.0
H2509 H 0.93366 0.4642 0.53054 0.0
H2510 H 0.92828 0.46447 0.44444 0.0
H2511 H 0.89091 0.45586 0.48499 0.0
H2512 H 0.89605 0.45539 0.57135 0.0
H2513 H 0.95267 0.50535 0.76246 0.0
H2514 H 0.94588 0.488 0.70531 0.0
H2515 H 0.90695 0.47592 0.73636 0.0
H2516 H 0.91364 0.4933 0.79478 0.0
H2517 H 0.91652 0.47549 0.62665 0.0
H2518 H 0.91193 0.45908 0.78869 0.0
H2519 H 0.91859 0.46009 0.87382 0.0
H2520 H 0.9529 0.46186 0.82672 0.0
H2521 H 0.94654 0.46109 0.74125 0.0
C2522 C 0.917 0.42664 0.52897 0.0
C2523 C 0.92938 0.42882 0.52377 0.0
C2524 C 0.91429 0.43334 0.56357 0.0
C2525 C 0.92389 0.44223 0.5936 0.0
C2526 C 0.93607 0.44388 0.59018 0.0
C2527 C 0.9388 0.4373 0.55555 0.0
C2528 C 0.92175 0.45054 0.62659 0.0
C2529 C 0.92472 0.45074 0.67583 0.0
C2530 C 0.9182 0.45921 0.60904 0.0
C2531 C 0.91518 0.4596 0.55725 0.0
C2532 C 0.92427 0.46228 0.52103 0.0
C2533 C 0.92127 0.46248 0.47221 0.0
C2534 C 0.90925 0.46014 0.45924 0.0
C2535 C 0.90021 0.45764 0.49508 0.0
C2536 C 0.90316 0.45741 0.54396 0.0
C2537 C 0.94264 0.49918 0.75678 0.0
C2538 C 0.9337 0.50062 0.78393 0.0
C2539 C 0.93879 0.48928 0.72391 0.0
C2540 C 0.92594 0.48066 0.71715 0.0
C2541 C 0.91691 0.48252 0.74127 0.0
C2542 C 0.92077 0.49244 0.77462 0.0
C2543 C 0.92234 0.46908 0.68893 0.0
C2544 C 0.91845 0.46834 0.64064 0.0
C2545 C 0.92502 0.45988 0.70726 0.0
C2546 C 0.92879 0.4601 0.75859 0.0
C2547 C 0.92094 0.45978 0.79649 0.0
C2548 C 0.92465 0.4603 0.8448 0.0
C2549 C 0.93617 0.46106 0.85567 0.0
C2550 C 0.94398 0.46127 0.81824 0.0
C2551 C 0.94032 0.46077 0.76986 0.0
H2552 H 0.93903 0.46147 0.8931 0.0
H2553 H 0.90694 0.4603 0.42142 0.0
H2554 H 0.57233 0.51254 0.58897 0.0
H2555 H 0.56163 0.49545 0.64786 0.0
H2556 H 0.56582 0.46999 0.55165 0.0
H2557 H 0.57699 0.48723 0.49313 0.0
H2558 H 0.53995 0.46289 0.58073 0.0
H2559 H 0.57869 0.47204 0.64832 0.0
H2560 H 0.60041 0.48479 0.679 0.0
H2561 H 0.58727 0.49906 0.79375 0.0
H2562 H 0.56544 0.48646 0.76351 0.0
H2563 H 0.50263 0.42004 0.77698 0.0
H2564 H 0.5199 0.42996 0.71755 0.0
H2565 H 0.52752 0.46673 0.76455 0.0
H2566 H 0.51021 0.45699 0.82266 0.0
H2567 H 0.54967 0.46291 0.75554 0.0
H2568 H 0.51181 0.45709 0.67036 0.0
H2569 H 0.49026 0.44396 0.63817 0.0
H2570 H 0.50254 0.42249 0.55431 0.0
H2571 H 0.52415 0.4354 0.58665 0.0
C2572 C 0.57131 0.5034 0.58109 0.0
C2573 C 0.57547 0.50118 0.5367 0.0
C2574 C 0.56523 0.49366 0.61468 0.0
C2575 C 0.56295 0.48149 0.60396 0.0
C2576 C 0.56757 0.47935 0.56056 0.0
C2577 C 0.57398 0.4892 0.52741 0.0
C2578 C 0.55438 0.47092 0.63572 0.0
C2579 C 0.54218 0.46259 0.61864 0.0
C2580 C 0.55731 0.47061 0.68506 0.0
C2581 C 0.57042 0.47835 0.70342 0.0
C2582 C 0.58043 0.47798 0.67986 0.0
C2583 C 0.59277 0.48516 0.69725 0.0
C2584 C 0.59523 0.49276 0.73823 0.0
C2585 C 0.58535 0.49317 0.76199 0.0
C2586 C 0.57298 0.48598 0.74481 0.0
C2587 C 0.50799 0.43023 0.77449 0.0
C2588 C 0.50502 0.43774 0.8042 0.0
C2589 C 0.51785 0.43586 0.74074 0.0
C2590 C 0.525 0.44905 0.73712 0.0
C2591 C 0.52215 0.45653 0.76715 0.0
C2592 C 0.51218 0.45094 0.79999 0.0
C2593 C 0.53516 0.4553 0.70084 0.0
C2594 C 0.54761 0.46287 0.71725 0.0
C2595 C 0.53249 0.45481 0.65075 0.0
C2596 C 0.51952 0.44706 0.63148 0.0
C2597 C 0.50988 0.44947 0.6455 0.0
C2598 C 0.49767 0.4421 0.62713 0.0
C2599 C 0.49502 0.43236 0.59438 0.0
C2600 C 0.5046 0.43001 0.57981 0.0
C2601 C 0.51682 0.43734 0.59815 0.0
H2602 H 0.48556 0.42667 0.58016 0.0
H2603 H 0.60479 0.49832 0.7516 0.0
H2604 H 0.61089 0.82501 0.32694 0.0
H2605 H 0.60375 0.80802 0.38564 0.0
H2606 H 0.57201 0.81264 0.4223 0.0
H2607 H 0.57914 0.82985 0.36276 0.0
H2608 H 0.58516 0.8115 0.50313 0.0
H2609 H 0.56569 0.78662 0.3648 0.0
H2610 H 0.56324 0.7791 0.28033 0.0
H2611 H 0.59252 0.76998 0.30171 0.0
H2612 H 0.59528 0.77758 0.38615 0.0
H2613 H 0.57414 0.76086 0.66451 0.0
H2614 H 0.56916 0.77144 0.59955 0.0
H2615 H 0.60226 0.77754 0.52095 0.0
H2616 H 0.60711 0.76686 0.58536 0.0
H2617 H 0.58136 0.77029 0.46123 0.0
H2618 H 0.60373 0.80022 0.59232 0.0
H2619 H 0.60613 0.80761 0.67703 0.0
H2620 H 0.57076 0.80695 0.66817 0.0
H2621 H 0.56808 0.7994 0.58351 0.0
C2622 C 0.60238 0.82247 0.34734 0.0
C2623 C 0.59563 0.82886 0.34038 0.0
C2624 C 0.59823 0.81264 0.38059 0.0
C2625 C 0.58726 0.80895 0.40782 0.0
C2626 C 0.58046 0.81529 0.40126 0.0
C2627 C 0.58454 0.8251 0.36734 0.0
C2628 C 0.58361 0.79901 0.44505 0.0
C2629 C 0.58392 0.80232 0.49397 0.0
C2630 C 0.58212 0.78709 0.43304 0.0
C2631 C 0.58069 0.78269 0.38192 0.0
C2632 C 0.57168 0.7831 0.35143 0.0
C2633 C 0.57021 0.77879 0.30358 0.0
C2634 C 0.57768 0.77401 0.28576 0.0
C2635 C 0.5867 0.77362 0.31566 0.0
C2636 C 0.5882 0.77791 0.36356 0.0
C2637 C 0.58023 0.76432 0.63297 0.0
C2638 C 0.59117 0.76334 0.6301 0.0
C2639 C 0.5774 0.77037 0.59608 0.0
C2640 C 0.58542 0.77537 0.55576 0.0
C2641 C 0.59598 0.77379 0.55184 0.0
C2642 C 0.59884 0.76786 0.5888 0.0
C2643 C 0.58347 0.78304 0.51896 0.0
C2644 C 0.58214 0.77928 0.47024 0.0
C2645 C 0.58399 0.79453 0.53114 0.0
C2646 C 0.58564 0.79911 0.58186 0.0
C2647 C 0.59642 0.80156 0.60858 0.0
C2648 C 0.59784 0.80579 0.65653 0.0
C2649 C 0.5886 0.80773 0.67798 0.0
C2650 C 0.57791 0.80544 0.65151 0.0
C2651 C 0.57644 0.80118 0.60355 0.0
H2652 H 0.58973 0.81104 0.71506 0.0
H2653 H 0.57651 0.77065 0.24875 0.0
H2654 H 0.21182 0.82262 0.66426 0.0
H2655 H 0.20225 0.80529 0.60657 0.0
H2656 H 0.23912 0.81348 0.55847 0.0
H2657 H 0.24893 0.83092 0.61726 0.0
H2658 H 0.22148 0.81023 0.48247 0.0
H2659 H 0.22459 0.7881 0.6156 0.0
H2660 H 0.22365 0.78169 0.70093 0.0
H2661 H 0.1836 0.76698 0.70254 0.0
H2662 H 0.18431 0.77346 0.61729 0.0
H2663 H 0.18265 0.756 0.33473 0.0
H2664 H 0.19913 0.7676 0.39559 0.0
H2665 H 0.17256 0.77258 0.48206 0.0
H2666 H 0.1562 0.76137 0.42089 0.0
H2667 H 0.18983 0.76708 0.5363 0.0
H2668 H 0.18855 0.79317 0.40465 0.0
H2669 H 0.19052 0.80026 0.31984 0.0
H2670 H 0.22899 0.80846 0.31669 0.0
H2671 H 0.22704 0.8008 0.40065 0.0
C2672 C 0.21795 0.82082 0.64141 0.0
C2673 C 0.23115 0.8282 0.64518 0.0
C2674 C 0.21245 0.81082 0.60875 0.0
C2675 C 0.21999 0.80803 0.57879 0.0
C2676 C 0.23317 0.81546 0.58167 0.0
C2677 C 0.23874 0.8254 0.61513 0.0
C2678 C 0.21378 0.79764 0.54333 0.0
C2679 C 0.21484 0.80067 0.49393 0.0
C2680 C 0.2051 0.78523 0.55862 0.0
C2681 C 0.20452 0.78132 0.61001 0.0
C2682 C 0.21559 0.78359 0.63422 0.0
C2683 C 0.2151 0.77993 0.68255 0.0
C2684 C 0.20357 0.77393 0.7071 0.0
C2685 C 0.19252 0.77161 0.6834 0.0
C2686 C 0.19296 0.77526 0.63502 0.0
C2687 C 0.18026 0.75929 0.36737 0.0
C2688 C 0.1682 0.75787 0.37316 0.0
C2689 C 0.18968 0.76593 0.40192 0.0
C2690 C 0.18704 0.77098 0.44302 0.0
C2691 C 0.17474 0.76872 0.45056 0.0
C2692 C 0.16543 0.76236 0.4156 0.0
C2693 C 0.19722 0.77981 0.47566 0.0
C2694 C 0.19681 0.77648 0.52458 0.0
C2695 C 0.2066 0.79193 0.45978 0.0
C2696 C 0.20755 0.7961 0.40862 0.0
C2697 C 0.19733 0.79617 0.38551 0.0
C2698 C 0.19845 0.80031 0.33753 0.0
C2699 C 0.20982 0.80467 0.31261 0.0
C2700 C 0.22011 0.8049 0.33566 0.0
C2701 C 0.21898 0.8006 0.38338 0.0
H2702 H 0.2107 0.80796 0.2756 0.0
H2703 H 0.20322 0.77105 0.74442 0.0
H2704 H 0.16395 0.37962 0.65001 0.0
H2705 H 0.18145 0.3857 0.59396 0.0
H2706 H 0.18547 0.42259 0.57829 0.0
H2707 H 0.16795 0.41666 0.63518 0.0
H2708 H 0.18716 0.4102 0.48785 0.0
H2709 H 0.20575 0.42301 0.64377 0.0
H2710 H 0.20782 0.42088 0.73173 0.0
H2711 H 0.21361 0.38952 0.70615 0.0
H2712 H 0.21135 0.39132 0.61803 0.0
H2713 H 0.24278 0.42225 0.35895 0.0
H2714 H 0.23109 0.42663 0.42099 0.0
H2715 H 0.21864 0.39008 0.48472 0.0
H2716 H 0.2302 0.38563 0.42315 0.0
H2717 H 0.22412 0.40863 0.55383 0.0
H2718 H 0.20096 0.39347 0.40081 0.0
H2719 H 0.19835 0.39509 0.31281 0.0
H2720 H 0.20124 0.43123 0.33359 0.0
H2721 H 0.20405 0.42989 0.42171 0.0
C2722 C 0.16841 0.38899 0.63437 0.0
C2723 C 0.1646 0.39769 0.64751 0.0
C2724 C 0.17845 0.39246 0.60244 0.0
C2725 C 0.18482 0.40463 0.58263 0.0
C2726 C 0.18068 0.41317 0.59352 0.0
C2727 C 0.1707 0.40975 0.62605 0.0
C2728 C 0.19609 0.40837 0.55218 0.0
C2729 C 0.19541 0.41022 0.50235 0.0
C2730 C 0.2068 0.40833 0.5713 0.0
C2731 C 0.2083 0.40726 0.62426 0.0
C2732 C 0.20737 0.4156 0.6569 0.0
C2733 C 0.20859 0.41446 0.7068 0.0
C2734 C 0.21083 0.40506 0.72453 0.0
C2735 C 0.21187 0.3968 0.69236 0.0
C2736 C 0.21064 0.39788 0.64242 0.0
C2737 C 0.23782 0.41529 0.38699 0.0
C2738 C 0.23728 0.40353 0.38593 0.0
C2739 C 0.23111 0.41779 0.4222 0.0
C2740 C 0.22389 0.4086 0.45699 0.0
C2741 C 0.22414 0.39728 0.45814 0.0
C2742 C 0.23071 0.39473 0.4228 0.0
C2743 C 0.21499 0.41001 0.48923 0.0
C2744 C 0.21609 0.40907 0.53949 0.0
C2745 C 0.2047 0.41093 0.47049 0.0
C2746 C 0.20287 0.41166 0.41768 0.0
C2747 C 0.20113 0.4018 0.38654 0.0
C2748 C 0.1996 0.40266 0.33667 0.0
C2749 C 0.19967 0.41328 0.3176 0.0
C2750 C 0.20122 0.42303 0.3484 0.0
C2751 C 0.20278 0.42223 0.3983 0.0
H2752 H 0.19849 0.41393 0.27898 0.0
H2753 H 0.21177 0.40419 0.76318 0.0
H2754 H 0.48884 0.91272 0.46951 0.0
H2755 H 0.47431 0.90975 0.40285 0.0
H2756 H 0.5035 0.94324 0.33305 0.0
H2757 H 0.51785 0.94642 0.39993 0.0
H2758 H 0.48299 0.94494 0.35021 0.0
H2759 H 0.4916 0.91331 0.28417 0.0
H2760 H 0.49268 0.89374 0.2879 0.0
H2761 H 0.45292 0.87237 0.31725 0.0
H2762 H 0.45163 0.89184 0.31435 0.0
H2763 H 0.45623 0.949 0.13468 0.0
H2764 H 0.46922 0.94569 0.19307 0.0
H2765 H 0.43637 0.91207 0.2452 0.0
H2766 H 0.42325 0.91515 0.18556 0.0
H2767 H 0.45669 0.90878 0.24188 0.0
H2768 H 0.44758 0.93936 0.30859 0.0
H2769 H 0.44583 0.95858 0.3109 0.0
H2770 H 0.48569 0.98144 0.28614 0.0
H2771 H 0.48767 0.96234 0.28329 0.0
C2772 C 0.49224 0.91921 0.43914 0.0
C2773 C 0.50439 0.92989 0.44003 0.0
C2774 C 0.48394 0.9175 0.4011 0.0
C2775 C 0.4878 0.92635 0.36321 0.0
C2776 C 0.50029 0.93638 0.36218 0.0
C2777 C 0.50849 0.93818 0.40032 0.0
C2778 C 0.47856 0.92627 0.32819 0.0
C2779 C 0.47739 0.9371 0.326 0.0
C2780 C 0.47079 0.91579 0.29845 0.0
C2781 C 0.47154 0.90406 0.29948 0.0
C2782 C 0.4831 0.90445 0.29176 0.0
C2783 C 0.48375 0.89337 0.29368 0.0
C2784 C 0.47288 0.88182 0.30295 0.0
C2785 C 0.46133 0.88132 0.31013 0.0
C2786 C 0.46063 0.89238 0.30829 0.0
C2787 C 0.45174 0.94087 0.1584 0.0
C2788 C 0.43867 0.93243 0.15592 0.0
C2789 C 0.45918 0.93899 0.1918 0.0
C2790 C 0.45372 0.92878 0.22414 0.0
C2791 C 0.44076 0.92005 0.22068 0.0
C2792 C 0.43328 0.92184 0.18673 0.0
C2793 C 0.46157 0.92767 0.26268 0.0
C2794 C 0.46234 0.91661 0.26603 0.0
C2795 C 0.46893 0.93789 0.29415 0.0
C2796 C 0.46776 0.94941 0.29548 0.0
C2797 C 0.45596 0.94848 0.30336 0.0
C2798 C 0.45493 0.95935 0.30492 0.0
C2799 C 0.46565 0.97122 0.29882 0.0
C2800 C 0.47741 0.97224 0.29102 0.0
C2801 C 0.47849 0.9614 0.28952 0.0
H2802 H 0.46483 0.97962 0.29999 0.0
H2803 H 0.4734 0.87326 0.30447 0.0
H2804 H 0.0885 0.57603 0.47987 0.0
H2805 H 0.09306 0.56175 0.43254 0.0
H2806 H 0.05477 0.54242 0.37956 0.0
H2807 H 0.05014 0.5565 0.42601 0.0
H2808 H 0.06267 0.52667 0.42606 0.0
H2809 H 0.07797 0.56143 0.30703 0.0
H2810 H 0.09263 0.58331 0.28145 0.0
H2811 H 0.12416 0.57776 0.30661 0.0
H2812 H 0.10967 0.55587 0.33292 0.0
H2813 H 0.04494 0.49454 0.21339 0.0
H2814 H 0.05154 0.50853 0.28261 0.0
H2815 H 0.08883 0.51317 0.27411 0.0
H2816 H 0.08208 0.49857 0.20476 0.0
H2817 H 0.08873 0.53605 0.27746 0.0
H2818 H 0.07301 0.49965 0.37425 0.0
H2819 H 0.05883 0.47786 0.40196 0.0
H2820 H 0.02898 0.48622 0.42237 0.0
H2821 H 0.04292 0.50802 0.39438 0.0
C2822 C 0.08114 0.5689 0.45729 0.0
C2823 C 0.0689 0.5673 0.45718 0.0
C2824 C 0.08376 0.56074 0.43052 0.0
C2825 C 0.07418 0.55094 0.40331 0.0
C2826 C 0.06223 0.54982 0.40096 0.0
C2827 C 0.05961 0.55792 0.42745 0.0
C2828 C 0.07607 0.54124 0.37897 0.0
C2829 C 0.06842 0.52868 0.39373 0.0
C2830 C 0.08413 0.54398 0.33857 0.0
C2831 C 0.09276 0.55709 0.32253 0.0
C2832 C 0.08803 0.56492 0.30752 0.0
C2833 C 0.09631 0.57731 0.29279 0.0
C2834 C 0.10932 0.58194 0.29257 0.0
C2835 C 0.11408 0.57417 0.30691 0.0
C2836 C 0.10584 0.56178 0.32171 0.0
C2837 C 0.05441 0.49808 0.22705 0.0
C2838 C 0.06287 0.49516 0.20396 0.0
C2839 C 0.05821 0.50618 0.26666 0.0
C2840 C 0.07062 0.51174 0.28398 0.0
C2841 C 0.07916 0.50886 0.26152 0.0
C2842 C 0.07529 0.50053 0.22197 0.0
C2843 C 0.07458 0.5214 0.32253 0.0
C2844 C 0.08334 0.53398 0.31082 0.0
C2845 C 0.06762 0.5187 0.36615 0.0
C2846 C 0.05906 0.50551 0.38231 0.0
C2847 C 0.06341 0.49683 0.38442 0.0
C2848 C 0.05542 0.48449 0.40034 0.0
C2849 C 0.04303 0.48068 0.41417 0.0
C2850 C 0.03859 0.4892 0.4119 0.0
C2851 C 0.04655 0.50157 0.39615 0.0
H2852 H 0.03686 0.47112 0.42645 0.0
H2853 H 0.11571 0.59154 0.28117 0.0
H2854 H 0.42031 0.51069 0.47731 0.0
H2855 H 0.43243 0.52971 0.4279 0.0
H2856 H 0.46586 0.52679 0.44752 0.0
H2857 H 0.45401 0.50801 0.49668 0.0
H2858 H 0.47078 0.55125 0.45729 0.0
H2859 H 0.44788 0.51521 0.34656 0.0
H2860 H 0.42835 0.49758 0.31244 0.0
H2861 H 0.41531 0.52319 0.27487 0.0
H2862 H 0.43472 0.54095 0.30931 0.0
H2863 H 0.5114 0.56616 0.26215 0.0
H2864 H 0.49665 0.55879 0.32999 0.0
H2865 H 0.47493 0.57342 0.26124 0.0
H2866 H 0.48975 0.58092 0.19302 0.0
H2867 H 0.46083 0.54839 0.28169 0.0
H2868 H 0.48743 0.58515 0.36904 0.0
H2869 H 0.50719 0.60268 0.40175 0.0
H2870 H 0.51352 0.57646 0.48321 0.0
H2871 H 0.4939 0.55873 0.45044 0.0
C2872 C 0.43025 0.51413 0.47118 0.0
C2873 C 0.43615 0.50774 0.49063 0.0
C2874 C 0.43715 0.52501 0.4431 0.0
C2875 C 0.45003 0.52965 0.43421 0.0
C2876 C 0.45595 0.52342 0.4543 0.0
C2877 C 0.4491 0.51258 0.48203 0.0
C2878 C 0.45739 0.54045 0.40142 0.0
C2879 C 0.46862 0.55072 0.4189 0.0
C2880 C 0.45425 0.54 0.35183 0.0
C2881 C 0.44264 0.52935 0.33103 0.0
C2882 C 0.44079 0.51705 0.33133 0.0
C2883 C 0.42976 0.50705 0.31189 0.0
C2884 C 0.42057 0.50926 0.29166 0.0
C2885 C 0.42242 0.52149 0.29067 0.0
C2886 C 0.43343 0.53152 0.31013 0.0
C2887 C 0.50365 0.56808 0.26194 0.0
C2888 C 0.50165 0.57399 0.22203 0.0
C2889 C 0.49528 0.56395 0.30094 0.0
C2890 C 0.48472 0.5656 0.3007 0.0
C2891 C 0.48306 0.57212 0.26216 0.0
C2892 C 0.49155 0.5764 0.2233 0.0
C2893 C 0.47463 0.55883 0.33702 0.0
C2894 C 0.46285 0.54929 0.32029 0.0
C2895 C 0.47729 0.55998 0.38727 0.0
C2896 C 0.48918 0.57059 0.4071 0.0
C2897 C 0.49308 0.5831 0.39364 0.0
C2898 C 0.50425 0.59308 0.41226 0.0
C2899 C 0.51161 0.59068 0.44452 0.0
C2900 C 0.5078 0.5783 0.45825 0.0
C2901 C 0.49664 0.56828 0.43973 0.0
H2902 H 0.52026 0.59842 0.45891 0.0
H2903 H 0.41204 0.5015 0.27662 0.0
H2904 H 0.07619 0.58404 0.71892 0.0
H2905 H 0.07963 0.57292 0.78622 0.0
H2906 H 0.05871 0.53775 0.70826 0.0
H2907 H 0.05458 0.54867 0.64327 0.0
H2908 H 0.05081 0.53385 0.79227 0.0
H2909 H 0.09268 0.55487 0.72548 0.0
H2910 H 0.11268 0.57306 0.69776 0.0
H2911 H 0.11953 0.589 0.84093 0.0
H2912 H 0.09948 0.57098 0.86937 0.0
H2913 H 0.08038 0.50406 0.94496 0.0
H2914 H 0.08437 0.51999 0.88245 0.0
H2915 H 0.05929 0.52966 0.95646 0.0
H2916 H 0.05505 0.51369 0.01781 0.0
H2917 H 0.09155 0.54628 0.87391 0.0
H2918 H 0.03764 0.52679 0.87599 0.0
H2919 H 0.01818 0.50718 0.89822 0.0
H2920 H 0.03653 0.4857 0.87027 0.0
H2921 H 0.05601 0.50513 0.84711 0.0
C2922 C 0.0724 0.57394 0.71645 0.0
C2923 C 0.06503 0.56714 0.67645 0.0
C2924 C 0.07445 0.56761 0.75459 0.0
C2925 C 0.06952 0.55448 0.75226 0.0
C2926 C 0.06252 0.54784 0.71128 0.0
C2927 C 0.06016 0.55407 0.67413 0.0
C2928 C 0.07077 0.54735 0.79348 0.0
C2929 C 0.05977 0.53661 0.80973 0.0
C2930 C 0.08244 0.55082 0.81642 0.0
C2931 C 0.09452 0.56163 0.79943 0.0
C2932 C 0.09841 0.5623 0.75097 0.0
C2933 C 0.10976 0.57257 0.73514 0.0
C2934 C 0.11736 0.58219 0.76753 0.0
C2935 C 0.11363 0.58155 0.81587 0.0
C2936 C 0.10228 0.5713 0.83187 0.0
C2937 C 0.07598 0.50982 0.94836 0.0
C2938 C 0.06717 0.50747 0.98537 0.0
C2939 C 0.07832 0.51894 0.91289 0.0
C2940 C 0.07195 0.52582 0.91457 0.0
C2941 C 0.06416 0.52432 0.95427 0.0
C2942 C 0.06168 0.51514 0.98906 0.0
C2943 C 0.07163 0.53292 0.87174 0.0
C2944 C 0.08269 0.54361 0.85576 0.0
C2945 C 0.0601 0.52921 0.84759 0.0
C2946 C 0.04831 0.51743 0.86035 0.0
C2947 C 0.03749 0.51787 0.87438 0.0
C2948 C 0.02646 0.50678 0.88716 0.0
C2949 C 0.02613 0.4952 0.88583 0.0
C2950 C 0.03681 0.49467 0.87146 0.0
C2951 C 0.04785 0.50572 0.85854 0.0
H2952 H 0.01759 0.48664 0.89582 0.0
H2953 H 0.12614 0.59014 0.75521 0.0
H2954 H 0.48908 0.54182 0.01599 0.0
H2955 H 0.47296 0.52974 0.95605 0.0
H2956 H 0.47207 0.56315 0.91308 0.0
H2957 H 0.48841 0.57554 0.97371 0.0
H2958 H 0.4469 0.5385 0.91875 0.0
H2959 H 0.48767 0.55733 0.84351 0.0
H2960 H 0.51021 0.56366 0.83903 0.0
H2961 H 0.50061 0.52483 0.84744 0.0
H2962 H 0.47802 0.51827 0.85273 0.0
H2963 H 0.41977 0.50704 0.68776 0.0
H2964 H 0.43022 0.52171 0.75512 0.0
H2965 H 0.44349 0.4974 0.81012 0.0
H2966 H 0.4333 0.48287 0.74278 0.0
H2967 H 0.46251 0.5208 0.79222 0.0
H2968 H 0.42179 0.50205 0.87149 0.0
H2969 H 0.39928 0.49569 0.87821 0.0
H2970 H 0.40856 0.53428 0.86164 0.0
H2971 H 0.43112 0.54085 0.85418 0.0
C2972 C 0.48546 0.54668 0.9942 0.0
C2973 C 0.49022 0.55973 -0.00086 0.0
C2974 C 0.47616 0.5397 0.96014 0.0
C2975 C 0.47143 0.54559 0.93004 0.0
C2976 C 0.47563 0.55847 0.93621 0.0
C2977 C 0.485 0.56553 0.9706 0.0
C2978 C 0.46311 0.53832 0.88931 0.0
C2979 C 0.4503 0.5348 0.89036 0.0
C2980 C 0.46759 0.53345 0.8528 0.0
C2981 C 0.48116 0.53732 0.84881 0.0
C2982 C 0.49037 0.55015 0.84472 0.0
C2983 C 0.50316 0.55378 0.842 0.0
C2984 C 0.50684 0.54466 0.84302 0.0
C2985 C 0.49774 0.53188 0.84665 0.0
C2986 C 0.48495 0.5282 0.84944 0.0
C2987 C 0.42462 0.50466 0.71498 0.0
C2988 C 0.4259 0.49391 0.70961 0.0
C2989 C 0.43058 0.51305 0.75345 0.0
C2990 C 0.43773 0.5107 0.78732 0.0
C2991 C 0.43812 0.49946 0.78407 0.0
C2992 C 0.4323 0.49116 0.74558 0.0
C2993 C 0.44611 0.52051 0.82239 0.0
C2994 C 0.45904 0.52458 0.82002 0.0
C2995 C 0.44168 0.52588 0.85729 0.0
C2996 C 0.42813 0.52192 0.86167 0.0
C2997 C 0.41902 0.50916 0.86879 0.0
C2998 C 0.40625 0.50553 0.87285 0.0
C2999 C 0.40249 0.51457 0.87018 0.0
C3000 C 0.41148 0.52728 0.8636 0.0
C3001 C 0.42426 0.53097 0.85949 0.0
H3002 H 0.3926 0.51174 0.87335 0.0
H3003 H 0.51674 0.54748 0.84094 0.0
H3004 H 0.49161 0.91387 0.6782 0.0
H3005 H 0.4747 0.9089 0.73687 0.0
H3006 H 0.48142 0.94693 0.72498 0.0
H3007 H 0.49836 0.95204 0.66748 0.0
H3008 H 0.47933 0.93995 0.81721 0.0
H3009 H 0.45643 0.92121 0.66692 0.0
H3010 H 0.45016 0.90662 0.59731 0.0
H3011 H 0.43611 0.87506 0.69465 0.0
H3012 H 0.44244 0.88949 0.76485 0.0
H3013 H 0.42921 0.94422 0.89566 0.0
H3014 H 0.44111 0.94043 0.83356 0.0
H3015 H 0.43161 0.90494 0.90055 0.0
H3016 H 0.41955 0.90863 0.96314 0.0
H3017 H 0.43472 0.90688 0.78944 0.0
H3018 H 0.45609 0.92538 0.93955 0.0
H3019 H 0.46152 0.93991 0.009 0.0
H3020 H 0.47848 0.97164 0.91232 0.0
H3021 H 0.47291 0.95727 0.84218 0.0
C3022 C 0.4895 0.92118 0.68815 0.0
C3023 C 0.49638 0.93337 0.66808 0.0
C3024 C 0.47979 0.9183 0.72151 0.0
C3025 C 0.47674 0.92752 0.73502 0.0
C3026 C 0.48363 0.93967 0.71518 0.0
C3027 C 0.49333 0.94257 0.68217 0.0
C3028 C 0.46655 0.92481 0.77035 0.0
C3029 C 0.46959 0.93271 0.81099 0.0
C3030 C 0.45389 0.91508 0.76329 0.0
C3031 C 0.45004 0.90643 0.72108 0.0
C3032 C 0.45209 0.91117 0.67346 0.0
C3033 C 0.44851 0.90292 0.6339 0.0
C3034 C 0.44278 0.88992 0.64155 0.0
C3035 C 0.44058 0.88513 0.68877 0.0
C3036 C 0.44415 0.89334 0.72845 0.0
C3037 C 0.42929 0.93541 0.89637 0.0
C3038 C 0.42367 0.92685 0.93479 0.0
C3039 C 0.43605 0.93324 0.86076 0.0
C3040 C 0.43739 0.92252 0.86313 0.0
C3041 C 0.43067 0.91326 0.89826 0.0
C3042 C 0.4238 0.9154 0.93397 0.0
C3043 C 0.44754 0.92235 0.8347 0.0
C3044 C 0.44451 0.91393 0.79587 0.0
C3045 C 0.46028 0.93155 0.84341 0.0
C3046 C 0.464 0.94024 0.8856 0.0
C3047 C 0.46091 0.93545 0.93308 0.0
C3048 C 0.46401 0.94366 0.97257 0.0
C3049 C 0.47033 0.95669 0.96507 0.0
C3050 C 0.47359 0.96154 0.91807 0.0
C3051 C 0.47047 0.95337 0.87844 0.0
H3052 H 0.47271 0.96303 0.99568 0.0
H3053 H 0.44001 0.88355 0.61089 0.0
H3054 H 0.15264 0.38467 0.91694 0.0
H3055 H 0.16839 0.38988 0.98053 0.0
H3056 H 0.19373 0.42459 0.90696 0.0
H3057 H 0.17781 0.41954 0.84332 0.0
H3058 H 0.20398 0.40834 0.93136 0.0
H3059 H 0.1841 0.42856 0.00626 0.0
H3060 H 0.16643 0.43118 0.03441 0.0
H3061 H 0.15444 0.39964 0.13065 0.0
H3062 H 0.17192 0.39668 0.10248 0.0
H3063 H 0.24467 0.41728 0.13652 0.0
H3064 H 0.23301 0.42206 0.07571 0.0
H3065 H 0.19869 0.38821 0.11536 0.0
H3066 H 0.21022 0.38329 0.17556 0.0
H3067 H 0.1961 0.40992 0.10717 0.0
H3068 H 0.21331 0.38749 0.01915 0.0
H3069 H 0.23049 0.38427 0.98922 0.0
H3070 H 0.24733 0.4201 0.9167 0.0
H3071 H 0.23033 0.42361 0.94685 0.0
C3072 C 0.16148 0.39351 0.91466 0.0
C3073 C 0.16402 0.4017 0.87526 0.0
C3074 C 0.17045 0.39649 0.95104 0.0
C3075 C 0.18217 0.40762 0.94838 0.0
C3076 C 0.18469 0.41597 0.90961 0.0
C3077 C 0.17559 0.41311 0.87355 0.0
C3078 C 0.19196 0.40987 0.98474 0.0
C3079 C 0.20249 0.40907 0.96976 0.0
C3080 C 0.18985 0.41064 0.03472 0.0
C3081 C 0.1793 0.41235 0.052 0.0
C3082 C 0.17764 0.42211 0.03313 0.0
C3083 C 0.16766 0.42367 0.04915 0.0
C3084 C 0.1593 0.41557 0.08425 0.0
C3085 C 0.16092 0.4059 0.10346 0.0
C3086 C 0.17088 0.40429 0.08752 0.0
C3087 C 0.23464 0.41088 0.13232 0.0
C3088 C 0.22837 0.39988 0.16069 0.0
C3089 C 0.22801 0.41362 0.09761 0.0
C3090 C 0.21501 0.40549 0.09124 0.0
C3091 C 0.20872 0.39462 0.11996 0.0
C3092 C 0.21534 0.39178 0.15408 0.0
C3093 C 0.20787 0.40797 0.05383 0.0
C3094 C 0.19781 0.40961 0.06871 0.0
C3095 C 0.21042 0.40797 0.00377 0.0
C3096 C 0.22067 0.4059 0.98587 0.0
C3097 C 0.22076 0.39474 0.99728 0.0
C3098 C 0.23044 0.39285 0.98018 0.0
C3099 C 0.24003 0.402 0.95125 0.0
C3100 C 0.23993 0.41304 0.93925 0.0
C3101 C 0.23027 0.41499 0.95633 0.0
H3102 H 0.24752 0.40051 0.93799 0.0
H3103 H 0.15159 0.41679 0.09663 0.0
H3104 H 0.57065 0.75212 0.84438 0.0
H3105 H 0.56598 0.76361 0.90644 0.0
H3106 H 0.6045 0.78112 0.95668 0.0
H3107 H 0.60919 0.76973 0.89544 0.0
H3108 H 0.58799 0.77542 0.03179 0.0
H3109 H 0.59575 0.79509 0.87044 0.0
H3110 H 0.59056 0.79493 0.78381 0.0
H3111 H 0.55359 0.78796 0.82223 0.0
H3112 H 0.55853 0.78791 0.9091 0.0
H3113 H 0.61673 0.83726 0.09964 0.0
H3114 H 0.60912 0.81949 0.04408 0.0
H3115 H 0.57075 0.81051 0.06925 0.0
H3116 H 0.57824 0.82831 0.12592 0.0
H3117 H 0.57985 0.80819 0.96302 0.0
H3118 H 0.57487 0.79372 0.12759 0.0
H3119 H 0.5819 0.79582 0.21258 0.0
H3120 H 0.61421 0.79336 0.16776 0.0
H3121 H 0.60759 0.79166 0.08224 0.0
C3122 C 0.57802 0.75817 0.86952 0.0
C3123 C 0.59033 0.76016 0.86469 0.0
C3124 C 0.57535 0.76476 0.90475 0.0
C3125 C 0.58494 0.77333 0.93569 0.0
C3126 C 0.59696 0.77457 0.93315 0.0
C3127 C 0.59965 0.7681 0.89791 0.0
C3128 C 0.58314 0.78206 0.96746 0.0
C3129 C 0.58601 0.78246 0.01693 0.0
C3130 C 0.58032 0.79111 0.94822 0.0
C3131 C 0.57745 0.79134 0.89613 0.0
C3132 C 0.5865 0.79345 0.86035 0.0
C3133 C 0.5836 0.7934 0.81124 0.0
C3134 C 0.57174 0.79139 0.79753 0.0
C3135 C 0.56277 0.78948 0.83291 0.0
C3136 C 0.5656 0.78949 0.88207 0.0
C3137 C 0.60667 0.8317 0.0929 0.0
C3138 C 0.59808 0.83411 0.118 0.0
C3139 C 0.60236 0.82156 0.06097 0.0
C3140 C 0.5894 0.81366 0.05318 0.0
C3141 C 0.5808 0.81654 0.07501 0.0
C3142 C 0.58511 0.82669 0.10743 0.0
C3143 C 0.5851 0.80171 0.02669 0.0
C3144 C 0.58122 0.80079 0.97832 0.0
C3145 C 0.58699 0.79216 0.04686 0.0
C3146 C 0.59076 0.79265 0.09842 0.0
C3147 C 0.58352 0.79372 0.1358 0.0
C3148 C 0.58744 0.79485 0.18408 0.0
C3149 C 0.59851 0.79474 0.19558 0.0
C3150 C 0.60565 0.79346 0.15879 0.0
C3151 C 0.60182 0.79242 0.11038 0.0
H3152 H 0.60153 0.79563 0.23299 0.0
H3153 H 0.56949 0.79133 0.7595 0.0
H3154 H 0.24049 0.81834 0.83304 0.0
H3155 H 0.22979 0.80205 0.89546 0.0
H3156 H 0.22283 0.8278 0.97881 0.0
H3157 H 0.23316 0.84393 0.91624 0.0
H3158 H 0.22993 0.81178 0.03475 0.0
H3159 H 0.20236 0.81041 0.9018 0.0
H3160 H 0.19575 0.80757 0.81606 0.0
H3161 H 0.19109 0.77039 0.81686 0.0
H3162 H 0.19814 0.77321 0.90208 0.0
H3163 H 0.1748 0.78561 0.17115 0.0
H3164 H 0.19133 0.79681 0.11077 0.0
H3165 H 0.18585 0.76138 0.05611 0.0
H3166 H 0.16935 0.75006 0.11706 0.0
H3167 H 0.18727 0.77834 0.98307 0.0
H3168 H 0.21094 0.77692 0.11312 0.0
H3169 H 0.21835 0.77814 0.1971 0.0
H3170 H 0.23091 0.81775 0.20118 0.0
H3171 H 0.2234 0.81675 0.11729 0.0
C3172 C 0.23696 0.8206 0.86536 0.0
C3173 C 0.23753 0.83231 0.86991 0.0
C3174 C 0.23085 0.8113 0.90077 0.0
C3175 C 0.22549 0.81375 0.94137 0.0
C3176 C 0.22694 0.82578 0.94768 0.0
C3177 C 0.23278 0.83494 0.91193 0.0
C3178 C 0.2171 0.80357 0.97471 0.0
C3179 C 0.22061 0.80444 0.02357 0.0
C3180 C 0.20517 0.79371 0.95943 0.0
C3181 C 0.20102 0.79212 0.90806 0.0
C3182 C 0.20014 0.80172 0.88346 0.0
C3183 C 0.19631 0.80011 0.83492 0.0
C3184 C 0.19312 0.78885 0.81084 0.0
C3185 C 0.19371 0.77916 0.83532 0.0
C3186 C 0.19765 0.78077 0.8837 0.0
C3187 C 0.17707 0.7802 0.14619 0.0
C3188 C 0.17081 0.76697 0.14879 0.0
C3189 C 0.18656 0.7866 0.11199 0.0
C3190 C 0.18986 0.7799 0.0795 0.0
C3191 C 0.18345 0.76669 0.08115 0.0
C3192 C 0.17407 0.76026 0.11595 0.0
C3193 C 0.19991 0.78688 0.04345 0.0
C3194 C 0.1967 0.78545 0.99415 0.0
C3195 C 0.21222 0.79602 0.0581 0.0
C3196 C 0.21652 0.79673 0.10896 0.0
C3197 C 0.21515 0.78587 0.13207 0.0
C3198 C 0.2194 0.78652 0.1796 0.0
C3199 C 0.22511 0.79801 0.20438 0.0
C3200 C 0.22651 0.80887 0.18182 0.0
C3201 C 0.22226 0.80826 0.13424 0.0
H3202 H 0.22851 0.7985 0.24096 0.0
H3203 H 0.19011 0.7876 0.77331 0.0
H3204 H 0.3688 0.13222 0.78547 0.0
H3205 H 0.35002 0.11989 0.83358 0.0
H3206 H 0.36912 0.1041 0.91422 0.0
H3207 H 0.38845 0.11719 0.86724 0.0
H3208 H 0.33507 0.09664 0.84084 0.0
H3209 H 0.35494 0.09506 0.02863 0.0
H3210 H 0.37421 0.10729 0.07768 0.0
H3211 H 0.38214 0.1411 0.00177 0.0
H3212 H 0.36278 0.12915 0.95317 0.0
H3213 H 0.28121 0.06069 0.98661 0.0
H3214 H 0.30177 0.06795 0.94822 0.0
H3215 H 0.31671 0.10356 0.0234 0.0
H3216 H 0.29647 0.09604 0.06381 0.0
H3217 H 0.33405 0.0979 0.02052 0.0
H3218 H 0.30552 0.09854 0.90107 0.0
H3219 H 0.28623 0.08948 0.85103 0.0
H3220 H 0.29577 0.06322 0.7881 0.0
H3221 H 0.31505 0.07204 0.83826 0.0
C3222 C 0.36911 0.12622 0.81359 0.0
C3223 C 0.38014 0.12573 0.82273 0.0
C3224 C 0.35828 0.11907 0.84097 0.0
C3225 C 0.35808 0.11102 0.87762 0.0
C3226 C 0.36907 0.11036 0.8866 0.0
C3227 C 0.38009 0.11781 0.85972 0.0
C3228 C 0.34628 0.10354 0.9059 0.0
C3229 C 0.33489 0.09685 0.88018 0.0
C3230 C 0.34597 0.10382 0.95724 0.0
C3231 C 0.35752 0.11117 0.98679 0.0
C3232 C 0.36078 0.10512 0.02257 0.0
C3233 C 0.3717 0.11201 0.05035 0.0
C3234 C 0.37941 0.12497 0.04278 0.0
C3235 C 0.37617 0.13108 0.00761 0.0
C3236 C 0.36522 0.12425 0.97994 0.0
C3237 C 0.28893 0.07003 0.99502 0.0
C3238 C 0.28725 0.07786 0.02777 0.0
C3239 C 0.30066 0.07419 0.97307 0.0
C3240 C 0.31077 0.0864 0.98226 0.0
C3241 C 0.30911 0.09409 0.01579 0.0
C3242 C 0.29749 0.08983 0.03862 0.0
C3243 C 0.32286 0.09151 0.95524 0.0
C3244 C 0.33428 0.09757 0.98121 0.0
C3245 C 0.32321 0.09116 0.90395 0.0
C3246 C 0.31163 0.08584 0.87382 0.0
C3247 C 0.30345 0.09078 0.8768 0.0
C3248 C 0.29253 0.0857 0.8484 0.0
C3249 C 0.28975 0.07575 0.81652 0.0
C3250 C 0.29791 0.0709 0.81289 0.0
C3251 C 0.30884 0.07593 0.84129 0.0
H3252 H 0.28129 0.07184 0.79454 0.0
H3253 H 0.38788 0.13029 0.06421 0.0
H3254 H 0.93356 0.21836 0.97128 0.0
H3255 H 0.92777 0.23223 0.92721 0.0
H3256 H 0.89864 0.22417 0.03268 0.0
H3257 H 0.90426 0.21042 0.07628 0.0
H3258 H 0.88977 0.22005 0.94038 0.0
H3259 H 0.925 0.25251 0.03017 0.0
H3260 H 0.94722 0.26453 0.05643 0.0
H3261 H 0.95898 0.27505 0.90879 0.0
H3262 H 0.93683 0.26294 0.88155 0.0
H3263 H 0.86949 0.26357 0.88841 0.0
H3264 H 0.88122 0.25543 0.93376 0.0
H3265 H 0.9026 0.25832 0.80522 0.0
H3266 H 0.89055 0.26595 0.75939 0.0
H3267 H 0.91658 0.26565 0.90378 0.0
H3268 H 0.88219 0.233 0.81317 0.0
H3269 H 0.86036 0.21996 0.78386 0.0
H3270 H 0.84748 0.20888 0.9301 0.0
H3271 H 0.86922 0.22216 0.96044 0.0
C3272 C 0.92603 0.21969 0.98522 0.0
C3273 C 0.91929 0.21322 0.02692 0.0
C3274 C 0.92276 0.22763 0.96017 0.0
C3275 C 0.91276 0.2292 0.97672 0.0
C3276 C 0.90634 0.22304 0.01917 0.0
C3277 C 0.90958 0.21517 0.04402 0.0
C3278 C 0.90821 0.23645 0.94854 0.0
C3279 C 0.89561 0.23006 0.93294 0.0
C3280 C 0.91596 0.2494 0.93741 0.0
C3281 C 0.92927 0.2567 0.95376 0.0
C3282 C 0.93233 0.25729 0.00324 0.0
C3283 C 0.94491 0.26414 0.01832 0.0
C3284 C 0.95451 0.27051 0.98428 0.0
C3285 C 0.95154 0.27008 0.9351 0.0
C3286 C 0.93897 0.26324 0.91983 0.0
C3287 C 0.87697 0.26284 0.8704 0.0
C3288 C 0.87922 0.26541 0.82068 0.0
C3289 C 0.8836 0.25815 0.89615 0.0
C3290 C 0.89273 0.25628 0.87265 0.0
C3291 C 0.89564 0.25977 0.82391 0.0
C3292 C 0.88876 0.2641 0.79787 0.0
C3293 C 0.89808 0.24927 0.89714 0.0
C3294 C 0.91079 0.25566 0.91154 0.0
C3295 C 0.89049 0.23626 0.90698 0.0
C3296 C 0.87731 0.22875 0.88914 0.0
C3297 C 0.87468 0.22799 0.83919 0.0
C3298 C 0.86233 0.22049 0.82235 0.0
C3299 C 0.85255 0.21356 0.85508 0.0
C3300 C 0.85508 0.21422 0.90478 0.0
C3301 C 0.86741 0.22177 0.92183 0.0
H3302 H 0.84299 0.20773 0.84198 0.0
H3303 H 0.96425 0.27581 0.99603 0.0
H3304 H 0.73618 0.63014 0.73626 0.0
H3305 H 0.74161 0.64961 0.78 0.0
H3306 H 0.73998 0.63119 0.91559 0.0
H3307 H 0.73371 0.61145 0.87178 0.0
H3308 H 0.73371 0.64845 0.93145 0.0
H3309 H 0.76772 0.6475 0.84889 0.0
H3310 H 0.77868 0.64486 0.77864 0.0
H3311 H 0.77817 0.67563 0.7059 0.0
H3312 H 0.76703 0.67832 0.7755 0.0
H3313 H 0.78537 0.69708 0.0603 0.0
H3314 H 0.77037 0.67843 0.01489 0.0
H3315 H 0.76826 0.7022 0.90413 0.0
H3316 H 0.78323 0.72105 0.95019 0.0
H3317 H 0.77446 0.68356 0.87144 0.0
H3318 H 0.74315 0.68594 0.9683 0.0
H3319 H 0.73382 0.68798 0.04466 0.0
H3320 H 0.73146 0.65393 0.09826 0.0
H3321 H 0.74094 0.65177 0.0225 0.0
C3322 C 0.73654 0.63018 0.77555 0.0
C3323 C 0.73453 0.6194 0.80088 0.0
C3324 C 0.73974 0.6413 0.80049 0.0
C3325 C 0.74159 0.64199 0.85097 0.0
C3326 C 0.73866 0.63092 0.87665 0.0
C3327 C 0.73507 0.61965 0.85171 0.0
C3328 C 0.74796 0.65443 0.87592 0.0
C3329 C 0.74262 0.65612 0.91838 0.0
C3330 C 0.75958 0.66451 0.85876 0.0
C3331 C 0.76642 0.66302 0.81713 0.0
C3332 C 0.76989 0.65365 0.81779 0.0
C3333 C 0.77613 0.65215 0.7781 0.0
C3334 C 0.77909 0.66005 0.73777 0.0
C3335 C 0.77585 0.6695 0.73713 0.0
C3336 C 0.76957 0.67102 0.77668 0.0
C3337 C 0.78159 0.69836 0.02659 0.0
C3338 C 0.78547 0.7105 0.00862 0.0
C3339 C 0.77296 0.68769 0.00087 0.0
C3340 C 0.76814 0.68895 0.95642 0.0
C3341 C 0.77182 0.70106 0.93862 0.0
C3342 C 0.78033 0.71179 0.96489 0.0
C3343 C 0.76024 0.67755 0.92691 0.0
C3344 C 0.76538 0.67601 0.8838 0.0
C3345 C 0.74867 0.66754 0.94432 0.0
C3346 C 0.74283 0.66873 0.98976 0.0
C3347 C 0.74072 0.67893 0.99648 0.0
C3348 C 0.73539 0.6801 0.03965 0.0
C3349 C 0.73206 0.6711 0.07631 0.0
C3350 C 0.73404 0.66089 0.06983 0.0
C3351 C 0.73937 0.65968 0.02674 0.0
H3352 H 0.72795 0.67203 0.10972 0.0
H3353 H 0.78392 0.65887 0.70707 0.0
H3354 H 0.1084 0.36657 0.75658 0.0
H3355 H 0.0958 0.34713 0.71067 0.0
H3356 H 0.10994 0.36775 0.57669 0.0
H3357 H 0.12206 0.38739 0.62282 0.0
H3358 H 0.08668 0.34932 0.56323 0.0
H3359 H 0.12404 0.35244 0.63138 0.0
H3360 H 0.13923 0.35555 0.69619 0.0
H3361 H 0.1107 0.32292 0.77094 0.0
H3362 H 0.09529 0.31971 0.70681 0.0
H3363 H 0.08883 0.30147 0.42139 0.0
H3364 H 0.09353 0.32015 0.46921 0.0
H3365 H 0.06947 0.29638 0.58406 0.0
H3366 H 0.06446 0.27753 0.53563 0.0
H3367 H 0.09571 0.31543 0.60973 0.0
H3368 H 0.05914 0.31176 0.52899 0.0
H3369 H 0.04596 0.30937 0.45768 0.0
H3370 H 0.07571 0.34395 0.39833 0.0
H3371 H 0.08915 0.34645 0.46897 0.0
C3372 C 0.10857 0.36698 0.71729 0.0
C3373 C 0.11623 0.3784 0.69311 0.0
C3374 C 0.10143 0.35587 0.69109 0.0
C3375 C 0.1022 0.3559 0.64025 0.0
C3376 C 0.10924 0.36747 0.6159 0.0
C3377 C 0.11616 0.37868 0.6422 0.0
C3378 C 0.09661 0.3438 0.61309 0.0
C3379 C 0.0887 0.34194 0.57327 0.0
C3380 C 0.0992 0.33411 0.62624 0.0
C3381 C 0.10848 0.33591 0.66457 0.0
C3382 C 0.12099 0.34597 0.66179 0.0
C3383 C 0.12964 0.34775 0.69838 0.0
C3384 C 0.12592 0.33946 0.73774 0.0
C3385 C 0.11356 0.32934 0.74047 0.0
C3386 C 0.10486 0.32754 0.704 0.0
C3387 C 0.0844 0.30022 0.45657 0.0
C3388 C 0.07629 0.28808 0.47491 0.0
C3389 C 0.08706 0.31089 0.4837 0.0
C3390 C 0.08179 0.30961 0.52995 0.0
C3391 C 0.07355 0.29751 0.54825 0.0
C3392 C 0.07068 0.28679 0.5206 0.0
C3393 C 0.08576 0.32096 0.56024 0.0
C3394 C 0.09349 0.32272 0.60036 0.0
C3395 C 0.0833 0.33066 0.54646 0.0
C3396 C 0.07519 0.32924 0.50415 0.0
C3397 C 0.06291 0.3188 0.50057 0.0
C3398 C 0.05539 0.31744 0.46029 0.0
C3399 C 0.06 0.32649 0.42346 0.0
C3400 C 0.07214 0.33695 0.42689 0.0
C3401 C 0.07971 0.33835 0.46707 0.0
H3402 H 0.05416 0.32542 0.39229 0.0
H3403 H 0.13263 0.34085 0.76606 0.0
H3404 H 0.71253 0.78181 0.5249 0.0
H3405 H 0.69192 0.76934 0.56384 0.0
H3406 H 0.67379 0.77383 0.43711 0.0
H3407 H 0.69438 0.78672 0.39911 0.0
H3408 H 0.66485 0.77871 0.51245 0.0
H3409 H 0.67186 0.74481 0.46977 0.0
H3410 H 0.68355 0.73326 0.46538 0.0
H3411 H 0.68386 0.73137 0.62091 0.0
H3412 H 0.67231 0.74306 0.62627 0.0
H3413 H 0.60261 0.73551 0.60072 0.0
H3414 H 0.62155 0.74315 0.54965 0.0
H3415 H 0.64432 0.74981 0.67767 0.0
H3416 H 0.62557 0.74257 0.72867 0.0
H3417 H 0.64971 0.73777 0.59625 0.0
H3418 H 0.6447 0.77346 0.63753 0.0
H3419 H 0.63411 0.78608 0.6419 0.0
H3420 H 0.63025 0.78456 0.48683 0.0
H3421 H 0.64068 0.77177 0.48159 0.0
C3422 C 0.70412 0.77998 0.5052 0.0
C3423 C 0.70503 0.78524 0.45909 0.0
C3424 C 0.69233 0.7728 0.52734 0.0
C3425 C 0.68125 0.7705 0.50322 0.0
C3426 C 0.68218 0.77547 0.45651 0.0
C3427 C 0.69395 0.78282 0.43479 0.0
C3428 C 0.66878 0.76373 0.52782 0.0
C3429 C 0.66144 0.76961 0.52976 0.0
C3430 C 0.66441 0.75199 0.5515 0.0
C3431 C 0.6713 0.7449 0.54841 0.0
C3432 C 0.67449 0.74201 0.50305 0.0
C3433 C 0.68108 0.73542 0.50039 0.0
C3434 C 0.68447 0.73161 0.54284 0.0
C3435 C 0.68124 0.73434 0.58806 0.0
C3436 C 0.67466 0.74093 0.59092 0.0
C3437 C 0.61163 0.73838 0.61772 0.0
C3438 C 0.61269 0.73843 0.66846 0.0
C3439 C 0.62241 0.74279 0.58866 0.0
C3440 C 0.63429 0.74704 0.61006 0.0
C3441 C 0.63522 0.74652 0.66058 0.0
C3442 C 0.62454 0.74241 0.68958 0.0
C3443 C 0.64591 0.75277 0.5804 0.0
C3444 C 0.65308 0.74673 0.5779 0.0
C3445 C 0.65011 0.76433 0.55593 0.0
C3446 C 0.64332 0.77152 0.55923 0.0
C3447 C 0.64143 0.77566 0.60442 0.0
C3448 C 0.63554 0.78292 0.60702 0.0
C3449 C 0.63158 0.78619 0.56464 0.0
C3450 C 0.63338 0.78207 0.5196 0.0
C3451 C 0.63927 0.77481 0.5168 0.0
H3452 H 0.62705 0.79183 0.56673 0.0
H3453 H 0.68958 0.72651 0.5407 0.0
H3454 H 0.21978 0.9427 0.51209 0.0
H3455 H 0.23589 0.93981 0.55497 0.0
H3456 H 0.21064 0.89958 0.55553 0.0
H3457 H 0.19488 0.90228 0.51202 0.0
H3458 H 0.22585 0.91633 0.65279 0.0
H3459 H 0.22703 0.90264 0.47943 0.0
H3460 H 0.2308 0.90846 0.39279 0.0
H3461 H 0.26675 0.94059 0.42799 0.0
H3462 H 0.26307 0.935 0.51494 0.0
H3463 H 0.23581 0.8679 0.70056 0.0
H3464 H 0.2305 0.88266 0.66425 0.0
H3465 H 0.26961 0.90742 0.62717 0.0
H3466 H 0.27493 0.8921 0.66214 0.0
H3467 H 0.25466 0.90724 0.55617 0.0
H3468 H 0.25649 0.91467 0.72467 0.0
H3469 H 0.25304 0.90925 0.8116 0.0
H3470 H 0.21296 0.89151 0.79085 0.0
H3471 H 0.21615 0.89664 0.70369 0.0
C3472 C 0.21769 0.93327 0.52176 0.0
C3473 C 0.20609 0.92271 0.50869 0.0
C3474 C 0.22688 0.93165 0.54599 0.0
C3475 C 0.2244 0.91948 0.55803 0.0
C3476 C 0.2127 0.90903 0.5463 0.0
C3477 C 0.20371 0.91061 0.52142 0.0
C3478 C 0.23379 0.91719 0.58242 0.0
C3479 C 0.23234 0.91454 0.63213 0.0
C3480 C 0.24251 0.91527 0.55553 0.0
C3481 C 0.24473 0.91849 0.50347 0.0
C3482 C 0.23569 0.91099 0.46864 0.0
C3483 C 0.23781 0.91423 0.41952 0.0
C3484 C 0.24899 0.92491 0.4049 0.0
C3485 C 0.25808 0.93234 0.43937 0.0
C3486 C 0.25598 0.92914 0.48854 0.0
C3487 C 0.2433 0.87644 0.6846 0.0
C3488 C 0.25581 0.87894 0.68476 0.0
C3489 C 0.24027 0.88495 0.66409 0.0
C3490 C 0.24972 0.8964 0.64466 0.0
C3491 C 0.2622 0.89873 0.64271 0.0
C3492 C 0.26522 0.88999 0.6625 0.0
C3493 C 0.2462 0.90564 0.62645 0.0
C3494 C 0.24869 0.90955 0.57784 0.0
C3495 C 0.23858 0.90893 0.65479 0.0
C3496 C 0.23658 0.90607 0.70754 0.0
C3497 C 0.24694 0.90959 0.73861 0.0
C3498 C 0.24502 0.90656 0.78794 0.0
C3499 C 0.23279 0.90005 0.80674 0.0
C3500 C 0.22244 0.89659 0.77626 0.0
C3501 C 0.22429 0.89959 0.7269 0.0
H3502 H 0.23133 0.89769 0.84492 0.0
H3503 H 0.25062 0.92741 0.36686 0.0
H3504 H 0.70563 0.89907 0.98773 0.0
H3505 H 0.68593 0.89557 0.02296 0.0
H3506 H 0.70055 0.93578 0.0285 0.0
H3507 H 0.72072 0.93936 0.99505 0.0
H3508 H 0.68772 0.92588 0.10606 0.0
H3509 H 0.67825 0.91661 0.94039 0.0
H3510 H 0.67784 0.90743 0.86026 0.0
H3511 H 0.65559 0.87012 0.91874 0.0
H3512 H 0.65602 0.87905 -0.00062 0.0
H3513 H 0.61263 0.88492 0.11984 0.0
H3514 H 0.63183 0.8986 0.07313 0.0
H3515 H 0.65444 0.89502 0.18538 0.0
H3516 H 0.63552 0.88167 0.23197 0.0
H3517 H 0.64755 0.89252 0.03467 0.0
H3518 H 0.68289 0.91963 0.19381 0.0
H3519 H 0.68298 0.93035 0.26969 0.0
H3520 H 0.65272 0.93518 0.21597 0.0
H3521 H 0.65256 0.92467 0.13946 0.0
C3522 C 0.7047 0.9072 0.99657 0.0
C3523 C 0.71469 0.91949 0.98837 0.0
C3524 C 0.69336 0.90518 0.01631 0.0
C3525 C 0.69156 0.91539 0.02697 0.0
C3526 C 0.70165 0.92774 0.02006 0.0
C3527 C 0.71316 0.92978 0.00107 0.0
C3528 C 0.6792 0.91295 0.04645 0.0
C3529 C 0.67893 0.91869 0.09021 0.0
C3530 C 0.66764 0.90398 0.02467 0.0
C3531 C 0.6672 0.89852 0.97603 0.0
C3532 C 0.67331 0.90645 0.93623 0.0
C3533 C 0.67307 0.90129 0.8907 0.0
C3534 C 0.66669 0.8882 0.88442 0.0
C3535 C 0.66051 0.88025 0.92364 0.0
C3536 C 0.66073 0.88536 0.96925 0.0
C3537 C 0.62173 0.88728 0.13481 0.0
C3538 C 0.62258 0.88219 0.17943 0.0
C3539 C 0.63268 0.89507 0.10812 0.0
C3540 C 0.64461 0.89798 0.12597 0.0
C3541 C 0.64541 0.89318 0.17123 0.0
C3542 C 0.63454 0.88542 0.19768 0.0
C3543 C 0.65618 0.90483 0.09586 0.0
C3544 C 0.6563 0.89994 0.04996 0.0
C3545 C 0.66753 0.91484 0.11496 0.0
C3546 C 0.66769 0.9213 0.16086 0.0
C3547 C 0.67631 0.92305 0.19798 0.0
C3548 C 0.67636 0.92907 0.24118 0.0
C3549 C 0.66785 0.93342 0.24768 0.0
C3550 C 0.65929 0.93178 0.21095 0.0
C3551 C 0.6592 0.92577 0.16769 0.0
H3552 H 0.6679 0.93808 0.28115 0.0
H3553 H 0.66653 0.88423 0.84916 0.0
H3554 H 0.12823 0.73356 0.11101 0.0
H3555 H 0.11704 0.74173 0.06247 0.0
H3556 H 0.10485 0.75173 0.19358 0.0
H3557 H 0.11619 0.74384 0.24214 0.0
H3558 H 0.08577 0.74036 0.1167 0.0
H3559 H 0.12917 0.77373 0.14507 0.0
H3560 H 0.15225 0.7827 0.14201 0.0
H3561 H 0.15047 0.77778 0.98739 0.0
H3562 H 0.12735 0.76868 0.98961 0.0
H3563 H 0.07073 0.78679 0.04448 0.0
H3564 H 0.0787 0.77425 0.08402 0.0
H3565 H 0.09845 0.77528 0.95275 0.0
H3566 H 0.09092 0.78821 0.91386 0.0
H3567 H 0.11325 0.77952 0.0245 0.0
H3568 H 0.07072 0.74812 0.99182 0.0
H3569 H 0.04754 0.73823 0.99129 0.0
H3570 H 0.04707 0.73781 0.14707 0.0
H3571 H 0.07028 0.74787 0.14857 0.0
C3572 C 0.12295 0.73727 0.1294 0.0
C3573 C 0.12308 0.73812 0.18025 0.0
C3574 C 0.11661 0.74196 0.1017 0.0
C3575 C 0.11018 0.74736 0.12457 0.0
C3576 C 0.10973 0.74756 0.17535 0.0
C3577 C 0.11624 0.7431 0.20297 0.0
C3578 C 0.10481 0.75377 0.09595 0.0
C3579 C 0.09173 0.74896 0.09668 0.0
C3580 C 0.11262 0.76479 0.06894 0.0
C3581 C 0.12653 0.77039 0.06757 0.0
C3582 C 0.13369 0.77447 0.11047 0.0
C3583 C 0.14678 0.77959 0.10888 0.0
C3584 C 0.15281 0.78075 0.06456 0.0
C3585 C 0.14578 0.77684 0.02171 0.0
C3586 C 0.13269 0.77172 0.02309 0.0
C3587 C 0.07672 0.78428 0.02406 0.0
C3588 C 0.08019 0.78845 0.97611 0.0
C3589 C 0.08121 0.77704 0.04656 0.0
C3590 C 0.08904 0.77364 0.02117 0.0
C3591 C 0.09243 0.77777 0.97314 0.0
C3592 C 0.0881 0.78514 0.9509 0.0
C3593 C 0.09408 0.76619 0.04519 0.0
C3594 C 0.10716 0.77084 0.04386 0.0
C3595 C 0.08623 0.7549 0.07097 0.0
C3596 C 0.07226 0.74886 0.07029 0.0
C3597 C 0.06569 0.74601 0.02598 0.0
C3598 C 0.05254 0.74036 0.0255 0.0
C3599 C 0.04584 0.73742 0.06912 0.0
C3600 C 0.05227 0.74011 0.11331 0.0
C3601 C 0.06543 0.74577 0.114 0.0
H3602 H 0.03566 0.73305 0.06867 0.0
H3603 H 0.16294 0.78472 0.06336 0.0
H3604 H 0.25232 0.36808 0.24578 0.0
H3605 H 0.24636 0.34958 0.19466 0.0
H3606 H 0.25757 0.37316 0.06721 0.0
H3607 H 0.26382 0.39181 0.11838 0.0
H3608 H 0.23192 0.35176 0.06841 0.0
H3609 H 0.27478 0.36143 0.09468 0.0
H3610 H 0.29334 0.36614 0.14468 0.0
H3611 H 0.27221 0.33043 0.21676 0.0
H3612 H 0.25346 0.32558 0.16766 0.0
H3613 H 0.21731 0.30408 0.90063 0.0
H3614 H 0.22982 0.32356 0.94626 0.0
H3615 H 0.2268 0.30189 0.0742 0.0
H3616 H 0.21465 0.28229 0.0278 0.0
H3617 H 0.24928 0.32277 0.07194 0.0
H3618 H 0.20661 0.31309 0.05546 0.0
H3619 H 0.1868 0.30754 0.01269 0.0
H3620 H 0.20569 0.34216 0.93218 0.0
H3621 H 0.22568 0.34785 0.974 0.0
C3622 C 0.25371 0.36935 0.20692 0.0
C3623 C 0.25852 0.38135 0.18593 0.0
C3624 C 0.25035 0.3588 0.17785 0.0
C3625 C 0.25158 0.36005 0.12731 0.0
C3626 C 0.25663 0.37206 0.10625 0.0
C3627 C 0.26021 0.38267 0.13544 0.0
C3628 C 0.24655 0.34866 0.09648 0.0
C3629 C 0.23586 0.34554 0.06831 0.0
C3630 C 0.25139 0.34032 0.09836 0.0
C3631 C 0.26268 0.34319 0.12776 0.0
C3632 C 0.27405 0.35463 0.12148 0.0
C3633 C 0.28462 0.35731 0.1496 0.0
C3634 C 0.28395 0.3486 0.18395 0.0
C3635 C 0.27272 0.33717 0.19016 0.0
C3636 C 0.26212 0.33444 0.16215 0.0
C3637 C 0.2195 0.30348 0.93828 0.0
C3638 C 0.21493 0.29172 0.96092 0.0
C3639 C 0.22661 0.3146 0.96435 0.0
C3640 C 0.22897 0.31418 0.01395 0.0
C3641 C 0.22503 0.30243 0.03601 0.0
C3642 C 0.21809 0.29126 0.00955 0.0
C3643 C 0.23471 0.32593 0.0432 0.0
C3644 C 0.24543 0.32906 0.07148 0.0
C3645 C 0.2297 0.33417 0.04251 0.0
C3646 C 0.21768 0.33083 0.01749 0.0
C3647 C 0.20656 0.31948 0.02837 0.0
C3648 C 0.1953 0.31631 0.00433 0.0
C3649 C 0.195 0.32447 0.96962 0.0
C3650 C 0.20595 0.33584 0.95901 0.0
C3651 C 0.21725 0.33904 0.98289 0.0
H3652 H 0.18627 0.322 0.95105 0.0
H3653 H 0.29214 0.3507 0.20569 0.0
H3654 H 0.88689 0.61123 0.32352 0.0
H3655 H 0.90185 0.63037 0.36785 0.0
H3656 H 0.88185 0.64901 0.31822 0.0
H3657 H 0.86753 0.63041 0.27229 0.0
H3658 H 0.90507 0.66511 0.31688 0.0
H3659 H 0.87732 0.63383 0.43647 0.0
H3660 H 0.86826 0.61359 0.48057 0.0
H3661 H 0.90541 0.62182 0.52243 0.0
H3662 H 0.91469 0.64211 0.47858 0.0
H3663 H 0.90454 0.6948 0.55951 0.0
H3664 H 0.89951 0.67638 0.51041 0.0
H3665 H 0.93444 0.69771 0.43172 0.0
H3666 H 0.93935 0.71648 0.48006 0.0
H3667 H 0.909 0.66199 0.4947 0.0
H3668 H 0.92937 0.68703 0.31374 0.0
H3669 H 0.93531 0.70713 0.27227 0.0
H3670 H 0.90781 0.711 0.35574 0.0
H3671 H 0.90163 0.69089 0.3974 0.0
C3672 C 0.88583 0.61949 0.32177 0.0
C3673 C 0.87596 0.61927 0.29482 0.0
C3674 C 0.89433 0.6304 0.34727 0.0
C3675 C 0.89291 0.64112 0.347 0.0
C3676 C 0.88324 0.64093 0.31898 0.0
C3677 C 0.87495 0.6302 0.29294 0.0
C3678 C 0.90091 0.65243 0.37728 0.0
C3679 C 0.90606 0.66441 0.35571 0.0
C3680 C 0.90227 0.65161 0.42795 0.0
C3681 C 0.8967 0.63938 0.45379 0.0
C3682 C 0.88355 0.63127 0.45481 0.0
C3683 C 0.87838 0.61981 0.47979 0.0
C3684 C 0.88626 0.61639 0.50401 0.0
C3685 C 0.89933 0.62446 0.50352 0.0
C3686 C 0.90454 0.63594 0.47869 0.0
C3687 C 0.91121 0.6956 0.53195 0.0
C3688 C 0.92227 0.70714 0.52323 0.0
C3689 C 0.90836 0.68501 0.50408 0.0
C3690 C 0.91653 0.68566 0.46702 0.0
C3691 C 0.9279 0.69703 0.45965 0.0
C3692 C 0.93071 0.70772 0.48736 0.0
C3693 C 0.91252 0.67459 0.43461 0.0
C3694 C 0.90828 0.66269 0.45571 0.0
C3695 C 0.91156 0.67546 0.38374 0.0
C3696 C 0.91519 0.68757 0.35912 0.0
C3697 C 0.9246 0.69219 0.32323 0.0
C3698 C 0.928 0.70357 0.29972 0.0
C3699 C 0.92198 0.71037 0.31158 0.0
C3700 C 0.91251 0.70576 0.34685 0.0
C3701 C 0.90907 0.69438 0.37045 0.0
H3702 H 0.92462 0.71917 0.29333 0.0
H3703 H 0.88223 0.60752 0.52332 0.0
H3704 H 0.30082 0.20343 0.56114 0.0
H3705 H 0.32068 0.21646 0.5191 0.0
H3706 H 0.30152 0.22701 0.41374 0.0
H3707 H 0.28145 0.21401 0.4565 0.0
H3708 H 0.32671 0.21339 0.43071 0.0
H3709 H 0.32338 0.25682 0.36966 0.0
H3710 H 0.3137 0.26928 0.39664 0.0
H3711 H 0.31429 0.25837 0.54424 0.0
H3712 H 0.32413 0.24599 0.51824 0.0
H3713 H 0.37036 0.24591 0.24633 0.0
H3714 H 0.35069 0.2374 0.29179 0.0
H3715 H 0.37064 0.26169 0.41245 0.0
H3716 H 0.39055 0.27023 0.36718 0.0
H3717 H 0.34579 0.25887 0.39103 0.0
H3718 H 0.3664 0.23476 0.4177 0.0
H3719 H 0.37664 0.2227 0.39308 0.0
H3720 H 0.34239 0.19501 0.32438 0.0
H3721 H 0.33209 0.20725 0.3465 0.0
C3722 C 0.3008 0.20857 0.52918 0.0
C3723 C 0.28956 0.20765 0.51194 0.0
C3724 C 0.31218 0.21602 0.50518 0.0
C3725 C 0.3126 0.22273 0.46334 0.0
C3726 C 0.30143 0.22202 0.44631 0.0
C3727 C 0.28998 0.21456 0.47059 0.0
C3728 C 0.32468 0.22985 0.43658 0.0
C3729 C 0.33086 0.22333 0.42203 0.0
C3730 C 0.33017 0.24286 0.42572 0.0
C3731 C 0.32437 0.25037 0.44188 0.0
C3732 C 0.32148 0.25711 0.40788 0.0
C3733 C 0.31596 0.26416 0.42301 0.0
C3734 C 0.31334 0.26458 0.4721 0.0
C3735 C 0.31627 0.25799 0.5062 0.0
C3736 C 0.32181 0.25094 0.49127 0.0
C3737 C 0.37059 0.24956 0.28234 0.0
C3738 C 0.38203 0.25862 0.3035 0.0
C3739 C 0.35932 0.24471 0.30814 0.0
C3740 C 0.35926 0.24887 0.35547 0.0
C3741 C 0.37053 0.25841 0.37584 0.0
C3742 C 0.38188 0.26321 0.3501 0.0
C3743 C 0.34764 0.24233 0.38495 0.0
C3744 C 0.34158 0.24893 0.39978 0.0
C3745 C 0.3423 0.2294 0.3967 0.0
C3746 C 0.34851 0.22203 0.38327 0.0
C3747 C 0.3611 0.22622 0.39662 0.0
C3748 C 0.36692 0.21935 0.38307 0.0
C3749 C 0.36016 0.20808 0.35729 0.0
C3750 C 0.34761 0.20374 0.34441 0.0
C3751 C 0.34179 0.21068 0.35722 0.0
H3752 H 0.36462 0.20266 0.34747 0.0
H3753 H 0.30906 0.27004 0.48373 0.0
H3754 H 0.78731 0.06482 0.4582 0.0
H3755 H 0.77482 0.07188 0.41192 0.0
H3756 H 0.76989 0.08886 0.54109 0.0
H3757 H 0.78245 0.082 0.58731 0.0
H3758 H 0.74765 0.07616 0.48136 0.0
H3759 H 0.79192 0.10808 0.47128 0.0
H3760 H 0.81442 0.11588 0.45529 0.0
H3761 H 0.80566 0.10178 0.30934 0.0
H3762 H 0.78303 0.09398 0.32452 0.0
H3763 H 0.73688 0.12463 0.38655 0.0
H3764 H 0.74285 0.11094 0.43054 0.0
H3765 H 0.75359 0.10111 0.29529 0.0
H3766 H 0.7481 0.11503 0.25186 0.0
H3767 H 0.77182 0.10849 0.35623 0.0
H3768 H 0.72739 0.07955 0.36335 0.0
H3769 H 0.70505 0.07245 0.38056 0.0
H3770 H 0.71363 0.08054 0.5319 0.0
H3771 H 0.73607 0.08786 0.51552 0.0
C3772 C 0.78339 0.06989 0.4768 0.0
C3773 C 0.78591 0.07296 0.52618 0.0
C3774 C 0.77628 0.0739 0.4504 0.0
C3775 C 0.77148 0.0809 0.4732 0.0
C3776 C 0.77347 0.08342 0.52299 0.0
C3777 C 0.7807 0.07956 0.54919 0.0
C3778 C 0.76545 0.08665 0.44446 0.0
C3779 C 0.75288 0.08326 0.45403 0.0
C3780 C 0.77228 0.09575 0.4085 0.0
C3781 C 0.78581 0.10033 0.39921 0.0
C3782 C 0.79479 0.10656 0.43591 0.0
C3783 C 0.80757 0.11099 0.42696 0.0
C3784 C 0.81149 0.10923 0.38144 0.0
C3785 C 0.80261 0.1031 0.34464 0.0
C3786 C 0.78981 0.09871 0.35334 0.0
C3787 C 0.74032 0.11937 0.36634 0.0
C3788 C 0.74217 0.12096 0.31599 0.0
C3789 C 0.74367 0.11151 0.39138 0.0
C3790 C 0.74866 0.10497 0.36618 0.0
C3791 C 0.74985 0.10611 0.31556 0.0
C3792 C 0.74672 0.11407 0.29079 0.0
C3793 C 0.75385 0.09798 0.39246 0.0
C3794 C 0.76639 0.10123 0.38277 0.0
C3795 C 0.74693 0.08873 0.42813 0.0
C3796 C 0.73344 0.08437 0.43811 0.0
C3797 C 0.72454 0.07993 0.40024 0.0
C3798 C 0.71185 0.07584 0.40986 0.0
C3799 C 0.70792 0.07607 0.45727 0.0
C3800 C 0.71668 0.08037 0.49518 0.0
C3801 C 0.72939 0.08448 0.48576 0.0
H3802 H 0.69809 0.0729 0.46465 0.0
H3803 H 0.82139 0.11267 0.37458 0.0
H3804 H 0.94079 0.40028 0.268 0.0
H3805 H 0.95985 0.40614 0.22038 0.0
H3806 H 0.98033 0.40946 0.35241 0.0
H3807 H 0.96153 0.40444 0.39982 0.0
H3808 H 0.993 0.42919 0.30451 0.0
H3809 H 0.97271 0.38557 0.25938 0.0
H3810 H 0.95556 0.36529 0.22842 0.0
H3811 H 0.95706 0.38249 0.09096 0.0
H3812 H 0.97411 0.40291 0.12127 0.0
H3813 H 0.04969 0.44659 0.1788 0.0
H3814 H 0.03044 0.43207 0.22323 0.0
H3815 H 0.0078 0.43568 0.11139 0.0
H3816 H 0.02693 0.45021 0.06705 0.0
H3817 H 0.99713 0.41048 0.15072 0.0
H3818 H 0.01194 0.4538 0.20416 0.0
H3819 H 0.0285 0.47469 0.23189 0.0
H3820 H 0.03724 0.45758 0.35047 0.0
H3821 H 0.0204 0.43653 0.32387 0.0
C3822 C 0.94931 0.402 0.28655 0.0
C3823 C 0.94976 0.40195 0.33741 0.0
C3824 C 0.9602 0.40528 0.25937 0.0
C3825 C 0.97158 0.40816 0.28266 0.0
C3826 C 0.97173 0.40735 0.33348 0.0
C3827 C 0.96098 0.40444 0.36058 0.0
C3828 C 0.98363 0.41346 0.25504 0.0
C3829 C 0.99392 0.42481 0.27169 0.0
C3830 C 0.98486 0.40809 0.21118 0.0
C3831 C 0.97464 0.3958 0.19275 0.0
C3832 C 0.96933 0.38505 0.22265 0.0
C3833 C 0.95963 0.37352 0.2052 0.0
C3834 C 0.95521 0.37261 0.15778 0.0
C3835 C 0.96049 0.38321 0.12768 0.0
C3836 C 0.97019 0.39476 0.14496 0.0
C3837 C 0.0406 0.44409 0.16326 0.0
C3838 C 0.0398 0.44961 0.11974 0.0
C3839 C 0.02963 0.4358 0.18862 0.0
C3840 C 0.01772 0.43285 0.17058 0.0
C3841 C 0.01689 0.43778 0.12575 0.0
C3842 C 0.02784 0.44615 0.10068 0.0
C3843 C 0.00626 0.42594 0.20092 0.0
C3844 C 0.99616 0.41448 0.18447 0.0
C3845 C 0.00511 0.43111 0.24506 0.0
C3846 C 0.01503 0.44366 0.26191 0.0
C3847 C 0.01741 0.45452 0.23615 0.0
C3848 C 0.02684 0.46639 0.2517 0.0
C3849 C 0.03403 0.46751 0.29275 0.0
C3850 C 0.03168 0.45672 0.31869 0.0
C3851 C 0.02214 0.44482 0.30357 0.0
H3852 H 0.0414 0.47672 0.30445 0.0
H3853 H 0.94769 0.36368 0.14435 0.0
H3854 H 0.55044 0.5846 0.07877 0.0
H3855 H 0.56353 0.57865 0.1258 0.0
H3856 H 0.55723 0.59494 0.25421 0.0
H3857 H 0.54434 0.60131 0.20638 0.0
H3858 H 0.58119 0.59765 0.25338 0.0
H3859 H 0.53871 0.56434 0.23644 0.0
H3860 H 0.51886 0.55012 0.19378 0.0
H3861 H 0.53808 0.53573 0.10737 0.0
H3862 H 0.55807 0.5499 0.14943 0.0
H3863 H 0.58651 0.55345 0.41426 0.0
H3864 H 0.57949 0.56624 0.37021 0.0
H3865 H 0.59099 0.55722 0.2352 0.0
H3866 H 0.59833 0.54465 0.27916 0.0
H3867 H 0.56454 0.55147 0.24352 0.0
H3868 H 0.60734 0.58524 0.26802 0.0
H3869 H 0.62611 0.59897 0.31728 0.0
H3870 H 0.60472 0.61188 0.39819 0.0
H3871 H 0.58577 0.59808 0.34984 0.0
C3872 C 0.55213 0.58722 0.11675 0.0
C3873 C 0.54636 0.59334 0.13912 0.0
C3874 C 0.55956 0.58377 0.14362 0.0
C3875 C 0.5611 0.58608 0.19372 0.0
C3876 C 0.55611 0.59303 0.2156 0.0
C3877 C 0.54879 0.59669 0.18833 0.0
C3878 C 0.56678 0.58005 0.22323 0.0
C3879 C 0.57747 0.58755 0.25172 0.0
C3880 C 0.56192 0.56685 0.22108 0.0
C3881 C 0.54991 0.55826 0.19578 0.0
C3882 C 0.53872 0.5582 0.20811 0.0
C3883 C 0.52744 0.55015 0.18408 0.0
C3884 C 0.52722 0.54208 0.14771 0.0
C3885 C 0.53827 0.542 0.13549 0.0
C3886 C 0.54957 0.55002 0.1595 0.0
C3887 C 0.58772 0.55436 0.37525 0.0
C3888 C 0.59293 0.54806 0.35004 0.0
C3889 C 0.58376 0.5617 0.35024 0.0
C3890 C 0.58478 0.56268 0.29959 0.0
C3891 C 0.59021 0.55661 0.27438 0.0
C3892 C 0.5944 0.54946 0.29949 0.0
C3893 C 0.57912 0.56909 0.27265 0.0
C3894 C 0.5683 0.56159 0.245 0.0
C3895 C 0.58371 0.5822 0.27663 0.0
C3896 C 0.5951 0.59052 0.30564 0.0
C3897 C 0.60661 0.59091 0.29663 0.0
C3898 C 0.61729 0.59873 0.32431 0.0
C3899 C 0.6166 0.60626 0.36094 0.0
C3900 C 0.60524 0.60602 0.36985 0.0
C3901 C 0.59452 0.59821 0.34229 0.0
H3902 H 0.62488 0.61231 0.38233 0.0
H3903 H 0.51848 0.53587 0.1291 0.0
H3904 H 0.41754 0.9642 0.08769 0.0
H3905 H 0.42564 0.98287 0.13891 0.0
H3906 H 0.40961 0.95931 0.26509 0.0
H3907 H 0.40131 0.94041 0.21356 0.0
H3908 H 0.40686 0.98045 0.26708 0.0
H3909 H 0.43924 0.97072 0.24255 0.0
H3910 H 0.45306 0.9652 0.19658 0.0
H3911 H 0.46988 0.00096 0.12376 0.0
H3912 H 0.45583 0.00655 0.16796 0.0
H3913 H 0.4494 0.03124 0.42637 0.0
H3914 H 0.43825 0.01096 0.38382 0.0
H3915 H 0.44598 0.03046 0.24684 0.0
H3916 H 0.45689 0.05081 0.28926 0.0
H3917 H 0.45299 0.01034 0.25766 0.0
H3918 H 0.41826 0.01841 0.27999 0.0
H3919 H 0.40438 0.02324 0.32925 0.0
H3920 H 0.39297 0.9898 0.41387 0.0
H3921 H 0.40693 0.98486 0.3655 0.0
C3922 C 0.41563 0.96296 0.12628 0.0
C3923 C 0.4089 0.95085 0.14675 0.0
C3924 C 0.42028 0.97364 0.15549 0.0
C3925 C 0.41841 0.97245 0.20583 0.0
C3926 C 0.41119 0.9604 0.22628 0.0
C3927 C 0.40648 0.94964 0.19689 0.0
C3928 C 0.42453 0.98387 0.23674 0.0
C3929 C 0.41697 0.98689 0.2656 0.0
C3930 C 0.43774 0.99226 0.23471 0.0
C3931 C 0.44634 0.98901 0.20828 0.0
C3932 C 0.44576 0.97736 0.21631 0.0
C3933 C 0.45364 0.97421 0.19053 0.0
C3934 C 0.46233 0.98271 0.15723 0.0
C3935 C 0.46313 0.99438 0.14955 0.0
C3936 C 0.45518 0.99753 0.17488 0.0
C3937 C 0.44859 0.0312 0.38722 0.0
C3938 C 0.45395 0.04257 0.36103 0.0
C3939 C 0.44223 0.01963 0.36306 0.0
C3940 C 0.44133 0.01927 0.31234 0.0
C3941 C 0.4466 0.0306 0.28607 0.0
C3942 C 0.45275 0.04219 0.3103 0.0
C3943 C 0.43526 0.00705 0.28657 0.0
C3944 C 0.44289 0.00385 0.25909 0.0
C3945 C 0.42219 0.99841 0.2906 0.0
C3946 C 0.41375 0.00134 0.31949 0.0
C3947 C 0.41288 0.01215 0.3094 0.0
C3948 C 0.40498 0.01489 0.33709 0.0
C3949 C 0.39782 0.00685 0.37476 0.0
C3950 C 0.39853 0.99603 0.38473 0.0
C3951 C 0.40643 0.99325 0.35716 0.0
H3952 H 0.39171 0.00899 0.39616 0.0
H3953 H 0.46845 0.98027 0.13745 0.0
H3954 H 0.60094 0.05531 0.78762 0.0
H3955 H 0.59529 0.03615 0.74018 0.0
H3956 H 0.57454 0.01314 0.86255 0.0
H3957 H 0.57996 0.0321 0.90946 0.0
H3958 H 0.58831 0.00383 0.81245 0.0
H3959 H 0.55922 0.01911 0.78215 0.0
H3960 H 0.55299 0.0345 0.75601 0.0
H3961 H 0.56842 0.03615 0.6145 0.0
H3962 H 0.57495 0.02093 0.64007 0.0
H3963 H 0.5411 0.94503 0.7124 0.0
H3964 H 0.55419 0.96484 0.7564 0.0
H3965 H 0.56721 0.98459 0.62011 0.0
H3966 H 0.5538 0.96503 0.5765 0.0
H3967 H 0.55968 0.9965 0.6735 0.0
H3968 H 0.58678 0.97937 0.7005 0.0
H3969 H 0.59239 0.96348 0.72598 0.0
H3970 H 0.58084 0.965 0.87177 0.0
H3971 H 0.575 0.98078 0.84704 0.0
C3972 C 0.5954 0.04615 0.80452 0.0
C3973 C 0.59081 0.04513 0.85196 0.0
C3974 C 0.59216 0.03525 0.77748 0.0
C3975 C 0.58445 0.02325 0.79792 0.0
C3976 C 0.58052 0.02229 0.84622 0.0
C3977 C 0.58357 0.03313 0.87283 0.0
C3978 C 0.57942 0.01166 0.76821 0.0
C3979 C 0.58205 0.00218 0.78198 0.0
C3980 C 0.5714 0.00964 0.7282 0.0
C3981 C 0.56773 0.01901 0.71323 0.0
C3982 C 0.56144 0.02288 0.74566 0.0
C3983 C 0.55781 0.03154 0.7309 0.0
C3984 C 0.56031 0.0363 0.68363 0.0
C3985 C 0.5665 0.03246 0.6511 0.0
C3986 C 0.57017 0.02383 0.66572 0.0
C3987 C 0.54695 0.95358 0.69205 0.0
C3988 C 0.54641 0.95356 0.64119 0.0
C3989 C 0.55446 0.96489 0.71712 0.0
C3990 C 0.56176 0.97624 0.69156 0.0
C3991 C 0.56164 0.97601 0.64067 0.0
C3992 C 0.55398 0.96482 0.61579 0.0
C3993 C 0.56859 0.98854 0.71732 0.0
C3994 C 0.56617 0.99816 0.70314 0.0
C3995 C 0.57683 0.99066 0.75677 0.0
C3996 C 0.58036 0.98119 0.7718 0.0
C3997 C 0.58535 0.97625 0.73792 0.0
C3998 C 0.58858 0.96727 0.75224 0.0
C3999 C 0.58695 0.96321 0.80044 0.0
C4000 C 0.5821 0.96815 0.83444 0.0
C4001 C 0.57883 0.97712 0.8203 0.0
H4002 H 0.58946 0.95626 0.81145 0.0
H4003 H 0.55743 0.04294 0.67216 0.0
H4004 H 0.0584 0.60466 0.69307 0.0
H4005 H 0.03982 0.59843 0.74454 0.0
H4006 H 0.01557 0.58234 0.62006 0.0
H4007 H 0.03402 0.58839 0.56874 0.0
H4008 H 0.0076 0.59516 0.68555 0.0
H4009 H 0.02022 0.56307 0.68532 0.0
H4010 H 0.03524 0.55541 0.69734 0.0
H4011 H 0.04111 0.56839 0.84488 0.0
H4012 H 0.02605 0.57608 0.83379 0.0
H4013 H 0.94874 0.54709 0.77893 0.0
H4014 H 0.96842 0.56093 0.73568 0.0
H4015 H 0.98935 0.5672 0.8689 0.0
H4016 H 0.96983 0.55288 0.91125 0.0
H4017 H 0.0002 0.56165 0.80405 0.0
H4018 H 0.98509 0.59083 0.80904 0.0
H4019 H 0.96991 0.59832 0.79806 0.0
H4020 H 0.96915 0.59194 0.64457 0.0
H4021 H 0.9842 0.58425 0.65469 0.0
C4022 C 0.04912 0.60007 0.67658 0.0
C4023 C 0.0476 0.59693 0.62707 0.0
C4024 C 0.03854 0.59649 0.70597 0.0
C4025 C 0.02635 0.58986 0.68603 0.0
C4026 C 0.0249 0.58747 0.63604 0.0
C4027 C 0.03543 0.59089 0.60686 0.0
C4028 C 0.01506 0.58421 0.71756 0.0
C4029 C 0.00592 0.58782 0.71152 0.0
C4030 C 0.01305 0.57483 0.75194 0.0
C4031 C 0.02213 0.57027 0.75857 0.0
C4032 C 0.02479 0.56438 0.7202 0.0
C4033 C 0.03329 0.56001 0.72686 0.0
C4034 C 0.03919 0.56149 0.77172 0.0
C4035 C 0.03655 0.56728 0.81011 0.0
C4036 C 0.02801 0.57161 0.80371 0.0
C4037 C 0.95754 0.55162 0.79895 0.0
C4038 C 0.95782 0.54892 0.84825 0.0
C4039 C 0.96878 0.55957 0.77435 0.0
C4040 C 0.98042 0.56522 0.79905 0.0
C4041 C 0.98054 0.56293 0.8489 0.0
C4042 C 0.96938 0.55478 0.87311 0.0
C4043 C 0.99255 0.57255 0.77246 0.0
C4044 C 0.00188 0.56918 0.77905 0.0
C4045 C 0.99473 0.58222 0.73897 0.0
C4046 C 0.9857 0.58687 0.73271 0.0
C4047 C 0.98161 0.59094 0.77299 0.0
C4048 C 0.97304 0.59524 0.76691 0.0
C4049 C 0.96855 0.59558 0.72067 0.0
C4050 C 0.97263 0.59166 0.68038 0.0
C4051 C 0.9812 0.58735 0.68626 0.0
H4052 H 0.96191 0.59891 0.71604 0.0
H4053 H 0.04576 0.5581 0.77681 0.0
H4054 H 0.41339 0.44692 0.56706 0.0
H4055 H 0.41943 0.43395 0.61496 0.0
H4056 H 0.4015 0.43901 0.74091 0.0
H4057 H 0.39516 0.45181 0.69267 0.0
H4058 H 0.42812 0.44741 0.74912 0.0
H4059 H 0.38942 0.4108 0.70084 0.0
H4060 H 0.37338 0.39653 0.64229 0.0
H4061 H 0.40091 0.38993 0.57228 0.0
H4062 H 0.41718 0.4043 0.63 0.0
H4063 H 0.44793 0.41646 0.90599 0.0
H4064 H 0.43368 0.42128 0.8611 0.0
H4065 H 0.44353 0.4097 0.72791 0.0
H4066 H 0.45741 0.40424 0.77351 0.0
H4067 H 0.41942 0.40357 0.72533 0.0
H4068 H 0.45827 0.44079 0.76245 0.0
H4069 H 0.47572 0.45591 0.81437 0.0
H4070 H 0.44988 0.46281 0.89603 0.0
H4071 H 0.43222 0.44755 0.8451 0.0
C4072 C 0.41042 0.44495 0.60462 0.0
C4073 C 0.40381 0.45032 0.62629 0.0
C4074 C 0.41384 0.43753 0.63185 0.0
C4075 C 0.41088 0.43552 0.68135 0.0
C4076 C 0.40378 0.4404 0.70261 0.0
C4077 C 0.40013 0.44765 0.67506 0.0
C4078 C 0.41669 0.42984 0.71176 0.0
C4079 C 0.42601 0.43773 0.74484 0.0
C4080 C 0.41433 0.41741 0.7042 0.0
C4081 C 0.40455 0.40871 0.66956 0.0
C4082 C 0.39209 0.40639 0.67272 0.0
C4083 C 0.38294 0.39826 0.63973 0.0
C4084 C 0.38613 0.39234 0.60353 0.0
C4085 C 0.39846 0.39452 0.60033 0.0
C4086 C 0.40764 0.40265 0.63322 0.0
C4087 C 0.44692 0.41478 0.86721 0.0
C4088 C 0.45386 0.41014 0.843 0.0
C4089 C 0.4388 0.41756 0.84159 0.0
C4090 C 0.43779 0.41617 0.79096 0.0
C4091 C 0.44422 0.41091 0.76694 0.0
C4092 C 0.45216 0.40783 0.7929 0.0
C4093 C 0.43079 0.42111 0.76318 0.0
C4094 C 0.42138 0.41318 0.73025 0.0
C4095 C 0.43328 0.43364 0.76982 0.0
C4096 C 0.4439 0.44292 0.80028 0.0
C4097 C 0.45629 0.44546 0.7917 0.0
C4098 C 0.46622 0.45406 0.82093 0.0
C4099 C 0.4639 0.46029 0.85855 0.0
C4100 C 0.45165 0.45796 0.86693 0.0
C4101 C 0.44168 0.44934 0.83789 0.0
H4102 H 0.47161 0.46695 0.88115 0.0
H4103 H 0.37903 0.38605 0.57802 0.0
loop_
_geom_bond_atom_site_label_1
_geom_bond_atom_site_label_2
_geom_bond_distance
_geom_bond_site_symmetry_2
_ccdc_geom_bond_type
Co0 O1 2.216 . S
Co0 O2 2.091 . S
Co0 O4 2.004 1_554 S
Co0 O10 2.021 . S
Co0 O12 2.137 . S
Co0 O13 2.244 . S
O1 Co0 2.216 . S
O1 C8 1.247 . S
O2 Co0 2.091 . S
O2 C8 1.261 . S
C3 O12 1.247 . S
C3 O13 1.272 . S
O4 Co0 2.004 1_556 S
O4 C9 1.259 . S
Co5 O6 2.063 1_554 S
Co5 O11 2.052 . S
Co5 O13 2.135 . S
O6 Co5 2.063 1_556 S
O6 C9 1.234 . S
C7 O10 1.238 . S
C7 O11 1.241 . S
C8 O1 1.247 . S
C8 O2 1.261 . S
C9 O4 1.259 . S
C9 O6 1.234 . S
O10 Co0 2.021 . S
O10 C7 1.238 . S
O11 Co5 2.052 . S
O11 C7 1.241 . S
O12 Co0 2.137 . S
O12 C3 1.247 . S
O13 Co0 2.244 . S
O13 C3 1.272 . S
O13 Co5 2.135 . S
Co14 O15 2.216 . S
Co14 O16 2.091 . S
Co14 O18 2.004 1_554 S
Co14 O24 2.021 . S
Co14 O26 2.137 . S
Co14 O27 2.244 . S
O15 Co14 2.216 . S
O15 C22 1.247 . S
O16 Co14 2.091 . S
O16 C22 1.261 . S
C17 O26 1.247 . S
C17 O27 1.272 . S
O18 Co14 2.004 1_556 S
O18 C23 1.259 . S
Co19 O20 2.063 1_554 S
Co19 O25 2.052 . S
Co19 O27 2.135 . S
O20 Co19 2.063 1_556 S
O20 C23 1.234 . S
C21 O24 1.238 . S
C21 O25 1.241 . S
C22 O15 1.247 . S
C22 O16 1.261 . S
C23 O18 1.259 . S
C23 O20 1.234 . S
O24 Co14 2.021 . S
O24 C21 1.238 . S
O25 Co19 2.052 . S
O25 C21 1.241 . S
O26 Co14 2.137 . S
O26 C17 1.247 . S
O27 Co14 2.244 . S
O27 C17 1.272 . S
O27 Co19 2.135 . S
Co28 O29 2.216 . S
Co28 O30 2.091 . S
Co28 O32 2.004 1_554 S
Co28 O38 2.021 . S
Co28 O40 2.137 . S
Co28 O41 2.244 . S
O29 Co28 2.216 . S
O29 C36 1.247 . S
O30 Co28 2.091 . S
O30 C36 1.261 . S
C31 O40 1.247 . S
C31 O41 1.272 . S
O32 Co28 2.004 1_556 S
O32 C37 1.259 . S
Co33 O34 2.060 . S
Co33 O39 2.052 . S
Co33 O41 2.135 . S
O34 Co33 2.060 . S
O34 C37 1.236 1_554 S
C35 O38 1.238 . S
C35 O39 1.241 . S
C36 O29 1.247 . S
C36 O30 1.261 . S
C37 O32 1.259 . S
C37 O34 1.236 1_556 S
O38 Co28 2.021 . S
O38 C35 1.238 . S
O39 Co33 2.052 . S
O39 C35 1.241 . S
O40 Co28 2.137 . S
O40 C31 1.247 . S
O41 Co28 2.244 . S
O41 C31 1.272 . S
O41 Co33 2.135 . S
Co42 O43 2.216 . S
Co42 O44 2.091 . S
Co42 O46 2.004 . S
Co42 O52 2.021 . S
Co42 O54 2.137 . S
Co42 O55 2.244 . S
O43 Co42 2.216 . S
O43 C50 1.247 . S
O44 Co42 2.091 . S
O44 C50 1.261 . S
C45 O54 1.247 . S
C45 O55 1.272 . S
O46 Co42 2.004 . S
O46 C51 1.259 . S
Co47 O48 2.061 . S
Co47 O53 2.052 . S
Co47 O55 2.135 . S
O48 Co47 2.061 . S
O48 C51 1.235 . S
C49 O52 1.238 . S
C49 O53 1.241 . S
C50 O43 1.247 . S
C50 O44 1.261 . S
C51 O46 1.259 . S
C51 O48 1.235 . S
O52 Co42 2.021 . S
O52 C49 1.238 . S
O53 Co47 2.052 . S
O53 C49 1.241 . S
O54 Co42 2.137 . S
O54 C45 1.247 . S
O55 Co42 2.244 . S
O55 C45 1.272 . S
O55 Co47 2.135 . S
Co56 O57 2.216 . S
Co56 O58 2.091 . S
Co56 O60 2.004 . S
Co56 O66 2.021 . S
Co56 O68 2.137 . S
Co56 O69 2.244 . S
O57 Co56 2.216 . S
O57 C64 1.247 . S
O58 Co56 2.091 . S
O58 C64 1.261 . S
C59 O68 1.247 . S
C59 O69 1.272 . S
O60 Co56 2.004 . S
O60 C65 1.259 . S
Co61 O62 2.061 . S
Co61 O67 2.052 . S
Co61 O69 2.135 . S
O62 Co61 2.061 . S
O62 C65 1.235 . S
C63 O66 1.238 . S
C63 O67 1.241 . S
C64 O57 1.247 . S
C64 O58 1.261 . S
C65 O60 1.259 . S
C65 O62 1.235 . S
O66 Co56 2.021 . S
O66 C63 1.238 . S
O67 Co61 2.052 . S
O67 C63 1.241 . S
O68 Co56 2.137 . S
O68 C59 1.247 . S
O69 Co56 2.244 . S
O69 C59 1.272 . S
O69 Co61 2.135 . S
Co70 O71 2.216 . S
Co70 O72 2.091 . S
Co70 O74 2.004 . S
Co70 O80 2.021 . S
Co70 O82 2.137 . S
Co70 O83 2.244 . S
O71 Co70 2.216 . S
O71 C78 1.247 . S
O72 Co70 2.091 . S
O72 C78 1.261 . S
C73 O82 1.247 . S
C73 O83 1.272 . S
O74 Co70 2.004 . S
O74 C79 1.259 . S
Co75 O76 2.061 . S
Co75 O81 2.052 . S
Co75 O83 2.135 . S
O76 Co75 2.061 . S
O76 C79 1.235 . S
C77 O80 1.238 . S
C77 O81 1.241 . S
C78 O71 1.247 . S
C78 O72 1.261 . S
C79 O74 1.259 . S
C79 O76 1.235 . S
O80 Co70 2.021 . S
O80 C77 1.238 . S
O81 Co75 2.052 . S
O81 C77 1.241 . S
O82 Co70 2.137 . S
O82 C73 1.247 . S
O83 Co70 2.244 . S
O83 C73 1.272 . S
O83 Co75 2.135 . S
Co84 O85 2.216 . S
Co84 O86 2.091 . S
Co84 O88 2.004 1_556 S
Co84 O94 2.021 . S
Co84 O96 2.137 . S
Co84 O97 2.244 . S
O85 Co84 2.216 . S
O85 C92 1.247 . S
O86 Co84 2.091 . S
O86 C92 1.261 . S
C87 O96 1.247 . S
C87 O97 1.272 . S
O88 Co84 2.004 1_554 S
O88 C93 1.259 . S
Co89 O90 2.063 1_556 S
Co89 O95 2.052 . S
Co89 O97 2.135 . S
O90 Co89 2.063 1_554 S
O90 C93 1.234 . S
C91 O94 1.238 . S
C91 O95 1.241 . S
C92 O85 1.247 . S
C92 O86 1.261 . S
C93 O88 1.259 . S
C93 O90 1.234 . S
O94 Co84 2.021 . S
O94 C91 1.238 . S
O95 Co89 2.052 . S
O95 C91 1.241 . S
O96 Co84 2.137 . S
O96 C87 1.247 . S
O97 Co84 2.244 . S
O97 C87 1.272 . S
O97 Co89 2.135 . S
Co98 O99 2.216 . S
Co98 O100 2.091 . S
Co98 O102 2.004 1_556 S
Co98 O108 2.021 . S
Co98 O110 2.137 . S
Co98 O111 2.244 . S
O99 Co98 2.216 . S
O99 C106 1.247 . S
O100 Co98 2.091 . S
O100 C106 1.261 . S
C101 O110 1.247 . S
C101 O111 1.272 . S
O102 Co98 2.004 1_554 S
O102 C107 1.259 . S
Co103 O104 2.063 1_556 S
Co103 O109 2.052 . S
Co103 O111 2.135 . S
O104 Co103 2.063 1_554 S
O104 C107 1.234 . S
C105 O108 1.238 . S
C105 O109 1.241 . S
C106 O99 1.247 . S
C106 O100 1.261 . S
C107 O102 1.259 . S
C107 O104 1.234 . S
O108 Co98 2.021 . S
O108 C105 1.238 . S
O109 Co103 2.052 . S
O109 C105 1.241 . S
O110 Co98 2.137 . S
O110 C101 1.247 . S
O111 Co98 2.244 . S
O111 C101 1.272 . S
O111 Co103 2.135 . S
Co112 O113 2.216 . S
Co112 O114 2.091 . S
Co112 O116 2.004 1_556 S
Co112 O122 2.021 . S
Co112 O124 2.137 . S
Co112 O125 2.244 . S
O113 Co112 2.216 . S
O113 C120 1.247 . S
O114 Co112 2.091 . S
O114 C120 1.261 . S
C115 O124 1.247 . S
C115 O125 1.272 . S
O116 Co112 2.004 1_554 S
O116 C121 1.259 . S
Co117 O118 2.060 . S
Co117 O123 2.052 . S
Co117 O125 2.135 . S
O118 Co117 2.060 . S
O118 C121 1.236 1_556 S
C119 O122 1.238 . S
C119 O123 1.241 . S
C120 O113 1.247 . S
C120 O114 1.261 . S
C121 O116 1.259 . S
C121 O118 1.236 1_554 S
O122 Co112 2.021 . S
O122 C119 1.238 . S
O123 Co117 2.052 . S
O123 C119 1.241 . S
O124 Co112 2.137 . S
O124 C115 1.247 . S
O125 Co112 2.244 . S
O125 C115 1.272 . S
O125 Co117 2.135 . S
Co126 O127 2.216 . S
Co126 O128 2.091 . S
Co126 O130 2.004 . S
Co126 O136 2.021 . S
Co126 O138 2.137 . S
Co126 O139 2.244 . S
O127 Co126 2.216 . S
O127 C134 1.247 . S
O128 Co126 2.091 . S
O128 C134 1.261 . S
C129 O138 1.247 . S
C129 O139 1.272 . S
O130 Co126 2.004 . S
O130 C135 1.259 . S
Co131 O132 2.061 . S
Co131 O137 2.052 . S
Co131 O139 2.135 . S
O132 Co131 2.061 . S
O132 C135 1.235 . S
C133 O136 1.238 . S
C133 O137 1.241 . S
C134 O127 1.247 . S
C134 O128 1.261 . S
C135 O130 1.259 . S
C135 O132 1.235 . S
O136 Co126 2.021 . S
O136 C133 1.238 . S
O137 Co131 2.052 . S
O137 C133 1.241 . S
O138 Co126 2.137 . S
O138 C129 1.247 . S
O139 Co126 2.244 . S
O139 C129 1.272 . S
O139 Co131 2.135 . S
Co140 O141 2.216 . S
Co140 O142 2.091 . S
Co140 O144 2.004 . S
Co140 O150 2.021 . S
Co140 O152 2.137 . S
Co140 O153 2.244 . S
O141 Co140 2.216 . S
O141 C148 1.247 . S
O142 Co140 2.091 . S
O142 C148 1.261 . S
C143 O152 1.247 . S
C143 O153 1.272 . S
O144 Co140 2.004 . S
O144 C149 1.259 . S
Co145 O146 2.061 . S
Co145 O151 2.052 . S
Co145 O153 2.135 . S
O146 Co145 2.061 . S
O146 C149 1.235 . S
C147 O150 1.238 . S
C147 O151 1.241 . S
C148 O141 1.247 . S
C148 O142 1.261 . S
C149 O144 1.259 . S
C149 O146 1.235 . S
O150 Co140 2.021 . S
O150 C147 1.238 . S
O151 Co145 2.052 . S
O151 C147 1.241 . S
O152 Co140 2.137 . S
O152 C143 1.247 . S
O153 Co140 2.244 . S
O153 C143 1.272 . S
O153 Co145 2.135 . S
Co154 O155 2.216 . S
Co154 O156 2.091 . S
Co154 O158 2.004 . S
Co154 O164 2.021 . S
Co154 O166 2.137 . S
Co154 O167 2.244 . S
O155 Co154 2.216 . S
O155 C162 1.247 . S
O156 Co154 2.091 . S
O156 C162 1.261 . S
C157 O166 1.247 . S
C157 O167 1.272 . S
O158 Co154 2.004 . S
O158 C163 1.259 . S
Co159 O160 2.061 . S
Co159 O165 2.052 . S
Co159 O167 2.135 . S
O160 Co159 2.061 . S
O160 C163 1.235 . S
C161 O164 1.238 . S
C161 O165 1.241 . S
C162 O155 1.247 . S
C162 O156 1.261 . S
C163 O158 1.259 . S
C163 O160 1.235 . S
O164 Co154 2.021 . S
O164 C161 1.238 . S
O165 Co159 2.052 . S
O165 C161 1.241 . S
O166 Co154 2.137 . S
O166 C157 1.247 . S
O167 Co154 2.244 . S
O167 C157 1.272 . S
O167 Co159 2.135 . S
Co168 O169 2.216 . S
Co168 O170 2.091 . S
Co168 O172 2.004 . S
Co168 O178 2.021 . S
Co168 O180 2.137 . S
Co168 O181 2.244 . S
O169 Co168 2.216 . S
O169 C176 1.247 . S
O170 Co168 2.091 . S
O170 C176 1.261 . S
C171 O180 1.247 . S
C171 O181 1.272 . S
O172 Co168 2.004 . S
O172 C177 1.259 . S
Co173 O174 2.061 . S
Co173 O179 2.052 . S
Co173 O181 2.135 . S
O174 Co173 2.061 . S
O174 C177 1.235 . S
C175 O178 1.238 . S
C175 O179 1.241 . S
C176 O169 1.247 . S
C176 O170 1.261 . S
C177 O172 1.259 . S
C177 O174 1.235 . S
O178 Co168 2.021 . S
O178 C175 1.238 . S
O179 Co173 2.052 . S
O179 C175 1.241 . S
O180 Co168 2.137 . S
O180 C171 1.247 . S
O181 Co168 2.244 . S
O181 C171 1.272 . S
O181 Co173 2.135 . S
Co182 O183 2.216 . S
Co182 O184 2.091 . S
Co182 O186 2.004 . S
Co182 O192 2.021 . S
Co182 O194 2.137 . S
Co182 O195 2.244 . S
O183 Co182 2.216 . S
O183 C190 1.247 . S
O184 Co182 2.091 . S
O184 C190 1.261 . S
C185 O194 1.247 . S
C185 O195 1.272 . S
O186 Co182 2.004 . S
O186 C191 1.259 . S
Co187 O188 2.061 . S
Co187 O193 2.052 . S
Co187 O195 2.135 . S
O188 Co187 2.061 . S
O188 C191 1.235 . S
C189 O192 1.238 . S
C189 O193 1.241 . S
C190 O183 1.247 . S
C190 O184 1.261 . S
C191 O186 1.259 . S
C191 O188 1.235 . S
O192 Co182 2.021 . S
O192 C189 1.238 . S
O193 Co187 2.052 . S
O193 C189 1.241 . S
O194 Co182 2.137 . S
O194 C185 1.247 . S
O195 Co182 2.244 . S
O195 C185 1.272 . S
O195 Co187 2.135 . S
Co196 O197 2.216 . S
Co196 O198 2.091 . S
Co196 O200 2.004 . S
Co196 O206 2.021 . S
Co196 O208 2.137 . S
Co196 O209 2.244 . S
O197 Co196 2.216 . S
O197 C204 1.247 . S
O198 Co196 2.091 . S
O198 C204 1.261 . S
C199 O208 1.247 . S
C199 O209 1.272 . S
O200 Co196 2.004 . S
O200 C205 1.259 . S
Co201 O202 2.061 . S
Co201 O207 2.052 . S
Co201 O209 2.135 . S
O202 Co201 2.061 . S
O202 C205 1.235 . S
C203 O206 1.238 . S
C203 O207 1.241 . S
C204 O197 1.247 . S
C204 O198 1.261 . S
C205 O200 1.259 . S
C205 O202 1.235 . S
O206 Co196 2.021 . S
O206 C203 1.238 . S
O207 Co201 2.052 . S
O207 C203 1.241 . S
O208 Co196 2.137 . S
O208 C199 1.247 . S
O209 Co196 2.244 . S
O209 C199 1.272 . S
O209 Co201 2.135 . S
Co210 O211 2.216 . S
Co210 O212 2.091 . S
Co210 O214 2.004 . S
Co210 O220 2.021 . S
Co210 O222 2.137 . S
Co210 O223 2.244 . S
O211 Co210 2.216 . S
O211 C218 1.247 . S
O212 Co210 2.091 . S
O212 C218 1.261 . S
C213 O222 1.247 . S
C213 O223 1.272 . S
O214 Co210 2.004 . S
O214 C219 1.259 . S
Co215 O216 2.061 . S
Co215 O221 2.052 . S
Co215 O223 2.135 . S
O216 Co215 2.061 . S
O216 C219 1.235 . S
C217 O220 1.238 . S
C217 O221 1.241 . S
C218 O211 1.247 . S
C218 O212 1.261 . S
C219 O214 1.259 . S
C219 O216 1.235 . S
O220 Co210 2.021 . S
O220 C217 1.238 . S
O221 Co215 2.052 . S
O221 C217 1.241 . S
O222 Co210 2.137 . S
O222 C213 1.247 . S
O223 Co210 2.244 . S
O223 C213 1.272 . S
O223 Co215 2.135 . S
Co224 O225 2.216 . S
Co224 O226 2.091 . S
Co224 O228 2.004 . S
Co224 O234 2.021 . S
Co224 O236 2.137 . S
Co224 O237 2.244 . S
O225 Co224 2.216 . S
O225 C232 1.247 . S
O226 Co224 2.091 . S
O226 C232 1.261 . S
C227 O236 1.247 . S
C227 O237 1.272 . S
O228 Co224 2.004 . S
O228 C233 1.259 . S
Co229 O230 2.061 . S
Co229 O235 2.052 . S
Co229 O237 2.135 . S
O230 Co229 2.061 . S
O230 C233 1.235 . S
C231 O234 1.238 . S
C231 O235 1.241 . S
C232 O225 1.247 . S
C232 O226 1.261 . S
C233 O228 1.259 . S
C233 O230 1.235 . S
O234 Co224 2.021 . S
O234 C231 1.238 . S
O235 Co229 2.052 . S
O235 C231 1.241 . S
O236 Co224 2.137 . S
O236 C227 1.247 . S
O237 Co224 2.244 . S
O237 C227 1.272 . S
O237 Co229 2.135 . S
Co238 O239 2.216 . S
Co238 O240 2.091 . S
Co238 O242 2.004 . S
Co238 O248 2.021 . S
Co238 O250 2.137 . S
Co238 O251 2.244 . S
O239 Co238 2.216 . S
O239 C246 1.247 . S
O240 Co238 2.091 . S
O240 C246 1.261 . S
C241 O250 1.247 . S
C241 O251 1.272 . S
O242 Co238 2.004 . S
O242 C247 1.259 . S
Co243 O244 2.061 . S
Co243 O249 2.052 . S
Co243 O251 2.135 . S
O244 Co243 2.061 . S
O244 C247 1.235 . S
C245 O248 1.238 . S
C245 O249 1.241 . S
C246 O239 1.247 . S
C246 O240 1.261 . S
C247 O242 1.259 . S
C247 O244 1.235 . S
O248 Co238 2.021 . S
O248 C245 1.238 . S
O249 Co243 2.052 . S
O249 C245 1.241 . S
O250 Co238 2.137 . S
O250 C241 1.247 . S
O251 Co238 2.244 . S
O251 C241 1.272 . S
O251 Co243 2.135 . S
Co252 O253 2.216 . S
Co252 O254 2.091 . S
Co252 O256 2.004 . S
Co252 O262 2.021 . S
Co252 O264 2.137 . S
Co252 O265 2.244 . S
O253 Co252 2.216 . S
O253 C260 1.247 . S
O254 Co252 2.091 . S
O254 C260 1.261 . S
C255 O264 1.247 . S
C255 O265 1.272 . S
O256 Co252 2.004 . S
O256 C261 1.259 . S
Co257 O258 2.061 . S
Co257 O263 2.052 . S
Co257 O265 2.135 . S
O258 Co257 2.061 . S
O258 C261 1.235 . S
C259 O262 1.238 . S
C259 O263 1.241 . S
C260 O253 1.247 . S
C260 O254 1.261 . S
C261 O256 1.259 . S
C261 O258 1.235 . S
O262 Co252 2.021 . S
O262 C259 1.238 . S
O263 Co257 2.052 . S
O263 C259 1.241 . S
O264 Co252 2.137 . S
O264 C255 1.247 . S
O265 Co252 2.244 . S
O265 C255 1.272 . S
O265 Co257 2.135 . S
Co266 O267 2.216 . S
Co266 O268 2.091 . S
Co266 O270 2.004 . S
Co266 O276 2.021 . S
Co266 O278 2.137 . S
Co266 O279 2.244 . S
O267 Co266 2.216 . S
O267 C274 1.247 . S
O268 Co266 2.091 . S
O268 C274 1.261 . S
C269 O278 1.247 . S
C269 O279 1.272 . S
O270 Co266 2.004 . S
O270 C275 1.259 . S
Co271 O272 2.061 . S
Co271 O277 2.052 . S
Co271 O279 2.135 . S
O272 Co271 2.061 . S
O272 C275 1.235 . S
C273 O276 1.238 . S
C273 O277 1.241 . S
C274 O267 1.247 . S
C274 O268 1.261 . S
C275 O270 1.259 . S
C275 O272 1.235 . S
O276 Co266 2.021 . S
O276 C273 1.238 . S
O277 Co271 2.052 . S
O277 C273 1.241 . S
O278 Co266 2.137 . S
O278 C269 1.247 . S
O279 Co266 2.244 . S
O279 C269 1.272 . S
O279 Co271 2.135 . S
Co280 O281 2.216 . S
Co280 O282 2.091 . S
Co280 O284 2.004 . S
Co280 O290 2.021 . S
Co280 O292 2.137 . S
Co280 O293 2.244 . S
O281 Co280 2.216 . S
O281 C288 1.247 . S
O282 Co280 2.091 . S
O282 C288 1.261 . S
C283 O292 1.247 . S
C283 O293 1.272 . S
O284 Co280 2.004 . S
O284 C289 1.259 . S
Co285 O286 2.061 . S
Co285 O291 2.052 . S
Co285 O293 2.135 . S
O286 Co285 2.061 . S
O286 C289 1.235 . S
C287 O290 1.238 . S
C287 O291 1.241 . S
C288 O281 1.247 . S
C288 O282 1.261 . S
C289 O284 1.259 . S
C289 O286 1.235 . S
O290 Co280 2.021 . S
O290 C287 1.238 . S
O291 Co285 2.052 . S
O291 C287 1.241 . S
O292 Co280 2.137 . S
O292 C283 1.247 . S
O293 Co280 2.244 . S
O293 C283 1.272 . S
O293 Co285 2.135 . S
Co294 O295 2.216 . S
Co294 O296 2.091 . S
Co294 O298 2.004 . S
Co294 O304 2.021 . S
Co294 O306 2.137 . S
Co294 O307 2.244 . S
O295 Co294 2.216 . S
O295 C302 1.247 . S
O296 Co294 2.091 . S
O296 C302 1.261 . S
C297 O306 1.247 . S
C297 O307 1.272 . S
O298 Co294 2.004 . S
O298 C303 1.259 . S
Co299 O300 2.061 . S
Co299 O305 2.052 . S
Co299 O307 2.135 . S
O300 Co299 2.061 . S
O300 C303 1.235 . S
C301 O304 1.238 . S
C301 O305 1.241 . S
C302 O295 1.247 . S
C302 O296 1.261 . S
C303 O298 1.259 . S
C303 O300 1.235 . S
O304 Co294 2.021 . S
O304 C301 1.238 . S
O305 Co299 2.052 . S
O305 C301 1.241 . S
O306 Co294 2.137 . S
O306 C297 1.247 . S
O307 Co294 2.244 . S
O307 C297 1.272 . S
O307 Co299 2.135 . S
Co308 O309 2.216 . S
Co308 O310 2.091 . S
Co308 O312 2.004 . S
Co308 O318 2.021 . S
Co308 O320 2.137 . S
Co308 O321 2.244 . S
O309 Co308 2.216 . S
O309 C316 1.247 . S
O310 Co308 2.091 . S
O310 C316 1.261 . S
C311 O320 1.247 . S
C311 O321 1.272 . S
O312 Co308 2.004 . S
O312 C317 1.259 . S
Co313 O314 2.061 . S
Co313 O319 2.052 . S
Co313 O321 2.135 . S
O314 Co313 2.061 . S
O314 C317 1.235 . S
C315 O318 1.238 . S
C315 O319 1.241 . S
C316 O309 1.247 . S
C316 O310 1.261 . S
C317 O312 1.259 . S
C317 O314 1.235 . S
O318 Co308 2.021 . S
O318 C315 1.238 . S
O319 Co313 2.052 . S
O319 C315 1.241 . S
O320 Co308 2.137 . S
O320 C311 1.247 . S
O321 Co308 2.244 . S
O321 C311 1.272 . S
O321 Co313 2.135 . S
Co322 O323 2.216 . S
Co322 O324 2.091 . S
Co322 O326 2.004 . S
Co322 O332 2.021 . S
Co322 O334 2.137 . S
Co322 O335 2.244 . S
O323 Co322 2.216 . S
O323 C330 1.247 . S
O324 Co322 2.091 . S
O324 C330 1.261 . S
C325 O334 1.247 . S
C325 O335 1.272 . S
O326 Co322 2.004 . S
O326 C331 1.259 . S
Co327 O328 2.061 . S
Co327 O333 2.052 . S
Co327 O335 2.135 . S
O328 Co327 2.061 . S
O328 C331 1.235 . S
C329 O332 1.238 . S
C329 O333 1.241 . S
C330 O323 1.247 . S
C330 O324 1.261 . S
C331 O326 1.259 . S
C331 O328 1.235 . S
O332 Co322 2.021 . S
O332 C329 1.238 . S
O333 Co327 2.052 . S
O333 C329 1.241 . S
O334 Co322 2.137 . S
O334 C325 1.247 . S
O335 Co322 2.244 . S
O335 C325 1.272 . S
O335 Co327 2.135 . S
Co336 O337 2.216 . S
Co336 O338 2.091 . S
Co336 O340 2.004 . S
Co336 O346 2.021 . S
Co336 O348 2.137 . S
Co336 O349 2.244 . S
O337 Co336 2.216 . S
O337 C344 1.247 . S
O338 Co336 2.091 . S
O338 C344 1.261 . S
C339 O348 1.247 . S
C339 O349 1.272 . S
O340 Co336 2.004 . S
O340 C345 1.259 . S
Co341 O342 2.061 . S
Co341 O347 2.052 . S
Co341 O349 2.135 . S
O342 Co341 2.061 . S
O342 C345 1.235 . S
C343 O346 1.238 . S
C343 O347 1.241 . S
C344 O337 1.247 . S
C344 O338 1.261 . S
C345 O340 1.259 . S
C345 O342 1.235 . S
O346 Co336 2.021 . S
O346 C343 1.238 . S
O347 Co341 2.052 . S
O347 C343 1.241 . S
O348 Co336 2.137 . S
O348 C339 1.247 . S
O349 Co336 2.244 . S
O349 C339 1.272 . S
O349 Co341 2.135 . S
Co350 O351 2.216 . S
Co350 O352 2.091 . S
Co350 O354 2.004 . S
Co350 O360 2.021 . S
Co350 O362 2.137 . S
Co350 O363 2.244 . S
O351 Co350 2.216 . S
O351 C358 1.247 . S
O352 Co350 2.091 . S
O352 C358 1.261 . S
C353 O362 1.247 . S
C353 O363 1.272 . S
O354 Co350 2.004 . S
O354 C359 1.259 . S
Co355 O356 2.061 . S
Co355 O361 2.052 . S
Co355 O363 2.135 . S
O356 Co355 2.061 . S
O356 C359 1.235 . S
C357 O360 1.238 . S
C357 O361 1.241 . S
C358 O351 1.247 . S
C358 O352 1.261 . S
C359 O354 1.259 . S
C359 O356 1.235 . S
O360 Co350 2.021 . S
O360 C357 1.238 . S
O361 Co355 2.052 . S
O361 C357 1.241 . S
O362 Co350 2.137 . S
O362 C353 1.247 . S
O363 Co350 2.244 . S
O363 C353 1.272 . S
O363 Co355 2.135 . S
Co364 O365 2.216 . S
Co364 O366 2.091 . S
Co364 O368 2.004 . S
Co364 O374 2.021 . S
Co364 O376 2.137 . S
Co364 O377 2.244 . S
O365 Co364 2.216 . S
O365 C372 1.247 . S
O366 Co364 2.091 . S
O366 C372 1.261 . S
C367 O376 1.247 . S
C367 O377 1.272 . S
O368 Co364 2.004 . S
O368 C373 1.259 . S
Co369 O370 2.061 . S
Co369 O375 2.052 . S
Co369 O377 2.135 . S
O370 Co369 2.061 . S
O370 C373 1.235 . S
C371 O374 1.238 . S
C371 O375 1.241 . S
C372 O365 1.247 . S
C372 O366 1.261 . S
C373 O368 1.259 . S
C373 O370 1.235 . S
O374 Co364 2.021 . S
O374 C371 1.238 . S
O375 Co369 2.052 . S
O375 C371 1.241 . S
O376 Co364 2.137 . S
O376 C367 1.247 . S
O377 Co364 2.244 . S
O377 C367 1.272 . S
O377 Co369 2.135 . S
Co378 O379 2.216 . S
Co378 O380 2.091 . S
Co378 O382 2.004 . S
Co378 O388 2.021 . S
Co378 O390 2.137 . S
Co378 O391 2.244 . S
O379 Co378 2.216 . S
O379 C386 1.247 . S
O380 Co378 2.091 . S
O380 C386 1.261 . S
C381 O390 1.247 . S
C381 O391 1.272 . S
O382 Co378 2.004 . S
O382 C387 1.259 . S
Co383 O384 2.061 . S
Co383 O389 2.052 . S
Co383 O391 2.135 . S
O384 Co383 2.061 . S
O384 C387 1.235 . S
C385 O388 1.238 . S
C385 O389 1.241 . S
C386 O379 1.247 . S
C386 O380 1.261 . S
C387 O382 1.259 . S
C387 O384 1.235 . S
O388 Co378 2.021 . S
O388 C385 1.238 . S
O389 Co383 2.052 . S
O389 C385 1.241 . S
O390 Co378 2.137 . S
O390 C381 1.247 . S
O391 Co378 2.244 . S
O391 C381 1.272 . S
O391 Co383 2.135 . S
Co392 O393 2.216 . S
Co392 O394 2.091 . S
Co392 O396 2.004 . S
Co392 O402 2.021 . S
Co392 O404 2.137 . S
Co392 O405 2.244 . S
O393 Co392 2.216 . S
O393 C400 1.247 . S
O394 Co392 2.091 . S
O394 C400 1.261 . S
C395 O404 1.247 . S
C395 O405 1.272 . S
O396 Co392 2.004 . S
O396 C401 1.259 . S
Co397 O398 2.061 . S
Co397 O403 2.052 . S
Co397 O405 2.135 . S
O398 Co397 2.061 . S
O398 C401 1.235 . S
C399 O402 1.238 . S
C399 O403 1.241 . S
C400 O393 1.247 . S
C400 O394 1.261 . S
C401 O396 1.259 . S
C401 O398 1.235 . S
O402 Co392 2.021 . S
O402 C399 1.238 . S
O403 Co397 2.052 . S
O403 C399 1.241 . S
O404 Co392 2.137 . S
O404 C395 1.247 . S
O405 Co392 2.244 . S
O405 C395 1.272 . S
O405 Co397 2.135 . S
Co406 O407 2.216 . S
Co406 O408 2.091 . S
Co406 O410 2.004 . S
Co406 O416 2.021 . S
Co406 O418 2.137 . S
Co406 O419 2.244 . S
O407 Co406 2.216 . S
O407 C414 1.247 . S
O408 Co406 2.091 . S
O408 C414 1.261 . S
C409 O418 1.247 . S
C409 O419 1.272 . S
O410 Co406 2.004 . S
O410 C415 1.259 . S
Co411 O412 2.061 . S
Co411 O417 2.052 . S
Co411 O419 2.135 . S
O412 Co411 2.061 . S
O412 C415 1.235 . S
C413 O416 1.238 . S
C413 O417 1.241 . S
C414 O407 1.247 . S
C414 O408 1.261 . S
C415 O410 1.259 . S
C415 O412 1.235 . S
O416 Co406 2.021 . S
O416 C413 1.238 . S
O417 Co411 2.052 . S
O417 C413 1.241 . S
O418 Co406 2.137 . S
O418 C409 1.247 . S
O419 Co406 2.244 . S
O419 C409 1.272 . S
O419 Co411 2.135 . S
Co420 O421 2.216 . S
Co420 O422 2.091 . S
Co420 O424 2.004 . S
Co420 O430 2.021 . S
Co420 O432 2.137 . S
Co420 O433 2.244 . S
O421 Co420 2.216 . S
O421 C428 1.247 . S
O422 Co420 2.091 . S
O422 C428 1.261 . S
C423 O432 1.247 . S
C423 O433 1.272 . S
O424 Co420 2.004 . S
O424 C429 1.259 . S
Co425 O426 2.061 . S
Co425 O431 2.052 . S
Co425 O433 2.135 . S
O426 Co425 2.061 . S
O426 C429 1.235 . S
C427 O430 1.238 . S
C427 O431 1.241 . S
C428 O421 1.247 . S
C428 O422 1.261 . S
C429 O424 1.259 . S
C429 O426 1.235 . S
O430 Co420 2.021 . S
O430 C427 1.238 . S
O431 Co425 2.052 . S
O431 C427 1.241 . S
O432 Co420 2.137 . S
O432 C423 1.247 . S
O433 Co420 2.244 . S
O433 C423 1.272 . S
O433 Co425 2.135 . S
Co434 O435 2.216 . S
Co434 O436 2.091 . S
Co434 O438 2.004 . S
Co434 O444 2.021 . S
Co434 O446 2.137 . S
Co434 O447 2.244 . S
O435 Co434 2.216 . S
O435 C442 1.247 . S
O436 Co434 2.091 . S
O436 C442 1.261 . S
C437 O446 1.247 . S
C437 O447 1.272 . S
O438 Co434 2.004 . S
O438 C443 1.259 . S
Co439 O440 2.061 . S
Co439 O445 2.052 . S
Co439 O447 2.135 . S
O440 Co439 2.061 . S
O440 C443 1.235 . S
C441 O444 1.238 . S
C441 O445 1.241 . S
C442 O435 1.247 . S
C442 O436 1.261 . S
C443 O438 1.259 . S
C443 O440 1.235 . S
O444 Co434 2.021 . S
O444 C441 1.238 . S
O445 Co439 2.052 . S
O445 C441 1.241 . S
O446 Co434 2.137 . S
O446 C437 1.247 . S
O447 Co434 2.244 . S
O447 C437 1.272 . S
O447 Co439 2.135 . S
Co448 O449 2.216 . S
Co448 O450 2.091 . S
Co448 O452 2.004 . S
Co448 O458 2.021 . S
Co448 O460 2.137 . S
Co448 O461 2.244 . S
O449 Co448 2.216 . S
O449 C456 1.247 . S
O450 Co448 2.091 . S
O450 C456 1.261 . S
C451 O460 1.247 . S
C451 O461 1.272 . S
O452 Co448 2.004 . S
O452 C457 1.259 . S
Co453 O454 2.061 . S
Co453 O459 2.052 . S
Co453 O461 2.135 . S
O454 Co453 2.061 . S
O454 C457 1.235 . S
C455 O458 1.238 . S
C455 O459 1.241 . S
C456 O449 1.247 . S
C456 O450 1.261 . S
C457 O452 1.259 . S
C457 O454 1.235 . S
O458 Co448 2.021 . S
O458 C455 1.238 . S
O459 Co453 2.052 . S
O459 C455 1.241 . S
O460 Co448 2.137 . S
O460 C451 1.247 . S
O461 Co448 2.244 . S
O461 C451 1.272 . S
O461 Co453 2.135 . S
Co462 O463 2.216 . S
Co462 O464 2.091 . S
Co462 O466 2.004 . S
Co462 O472 2.021 . S
Co462 O474 2.137 . S
Co462 O475 2.244 . S
O463 Co462 2.216 . S
O463 C470 1.247 . S
O464 Co462 2.091 . S
O464 C470 1.261 . S
C465 O474 1.247 . S
C465 O475 1.272 . S
O466 Co462 2.004 . S
O466 C471 1.259 . S
Co467 O468 2.061 . S
Co467 O473 2.052 . S
Co467 O475 2.135 . S
O468 Co467 2.061 . S
O468 C471 1.235 . S
C469 O472 1.238 . S
C469 O473 1.241 . S
C470 O463 1.247 . S
C470 O464 1.261 . S
C471 O466 1.259 . S
C471 O468 1.235 . S
O472 Co462 2.021 . S
O472 C469 1.238 . S
O473 Co467 2.052 . S
O473 C469 1.241 . S
O474 Co462 2.137 . S
O474 C465 1.247 . S
O475 Co462 2.244 . S
O475 C465 1.272 . S
O475 Co467 2.135 . S
Co476 O477 2.216 . S
Co476 O478 2.091 . S
Co476 O480 2.004 . S
Co476 O486 2.021 . S
Co476 O488 2.137 . S
Co476 O489 2.244 . S
O477 Co476 2.216 . S
O477 C484 1.247 . S
O478 Co476 2.091 . S
O478 C484 1.261 . S
C479 O488 1.247 . S
C479 O489 1.272 . S
O480 Co476 2.004 . S
O480 C485 1.259 . S
Co481 O482 2.061 . S
Co481 O487 2.052 . S
Co481 O489 2.135 . S
O482 Co481 2.061 . S
O482 C485 1.235 . S
C483 O486 1.238 . S
C483 O487 1.241 . S
C484 O477 1.247 . S
C484 O478 1.261 . S
C485 O480 1.259 . S
C485 O482 1.235 . S
O486 Co476 2.021 . S
O486 C483 1.238 . S
O487 Co481 2.052 . S
O487 C483 1.241 . S
O488 Co476 2.137 . S
O488 C479 1.247 . S
O489 Co476 2.244 . S
O489 C479 1.272 . S
O489 Co481 2.135 . S
Co490 O491 2.216 . S
Co490 O492 2.091 . S
Co490 O494 2.004 . S
Co490 O500 2.021 . S
Co490 O502 2.137 . S
Co490 O503 2.244 . S
O491 Co490 2.216 . S
O491 C498 1.247 . S
O492 Co490 2.091 . S
O492 C498 1.261 . S
C493 O502 1.247 . S
C493 O503 1.272 . S
O494 Co490 2.004 . S
O494 C499 1.259 . S
Co495 O496 2.061 . S
Co495 O501 2.052 . S
Co495 O503 2.135 . S
O496 Co495 2.061 . S
O496 C499 1.235 . S
C497 O500 1.238 . S
C497 O501 1.241 . S
C498 O491 1.247 . S
C498 O492 1.261 . S
C499 O494 1.259 . S
C499 O496 1.235 . S
O500 Co490 2.021 . S
O500 C497 1.238 . S
O501 Co495 2.052 . S
O501 C497 1.241 . S
O502 Co490 2.137 . S
O502 C493 1.247 . S
O503 Co490 2.244 . S
O503 C493 1.272 . S
O503 Co495 2.135 . S
H504 C522 0.951 . S
H505 C524 0.951 . S
H506 C526 0.950 . S
H507 C527 0.950 . S
H508 C529 0.950 . S
H509 C532 0.950 . S
H510 C533 0.950 . S
H511 C535 0.950 . S
H512 C536 0.950 . S
H513 C537 0.951 . S
H514 C539 0.951 . S
H515 C541 0.950 . S
H516 C542 0.950 . S
H517 C544 0.950 . S
H518 C547 0.950 . S
H519 C548 0.950 . S
H520 C550 0.950 . S
H521 C551 0.950 . S
C522 H504 0.951 . S
C522 C523 1.366 . S
C522 C524 1.388 . S
C523 C522 1.366 . S
C523 C527 1.385 . S
C524 H505 0.951 . S
C524 C522 1.388 . S
C524 C525 1.366 . S
C525 C524 1.366 . S
C525 C526 1.414 . S
C525 C528 1.499 . S
C526 H506 0.950 . S
C526 C525 1.414 . S
C526 C527 1.374 . S
C527 H507 0.950 . S
C527 C523 1.385 . S
C527 C526 1.374 . S
C528 C525 1.499 . S
C528 C529 1.373 . S
C528 C530 1.389 . S
C529 H508 0.950 . S
C529 C528 1.373 . S
C529 C545 1.377 1_565 S
C530 C528 1.389 . S
C530 C531 1.524 . S
C530 C544 1.377 1_565 S
C531 C530 1.524 . S
C531 C532 1.397 . S
C531 C536 1.363 . S
C532 H509 0.950 . S
C532 C531 1.397 . S
C532 C533 1.334 . S
C533 H510 0.950 . S
C533 C532 1.334 . S
C533 C534 1.287 . S
C534 C533 1.287 . S
C534 C535 1.524 . S
C534 H553 0.913 . S
C535 H511 0.950 . S
C535 C534 1.524 . S
C535 C536 1.415 . S
C536 H512 0.950 . S
C536 C531 1.363 . S
C536 C535 1.415 . S
C537 H513 0.951 . S
C537 C538 1.366 . S
C537 C539 1.388 . S
C538 C537 1.366 . S
C538 C542 1.385 . S
C539 H514 0.951 . S
C539 C537 1.388 . S
C539 C540 1.366 . S
C540 C539 1.366 . S
C540 C541 1.414 . S
C540 C543 1.499 . S
C541 H515 0.950 . S
C541 C540 1.414 . S
C541 C542 1.374 . S
C542 H516 0.950 . S
C542 C538 1.385 . S
C542 C541 1.374 . S
C543 C540 1.499 . S
C543 C544 1.373 . S
C543 C545 1.389 . S
C544 H517 0.950 . S
C544 C530 1.377 1_545 S
C544 C543 1.373 . S
C545 C529 1.377 1_545 S
C545 C543 1.389 . S
C545 C546 1.524 . S
C546 C545 1.524 . S
C546 C547 1.397 . S
C546 C551 1.363 . S
C547 H518 0.950 . S
C547 C546 1.397 . S
C547 C548 1.334 . S
C548 H519 0.950 . S
C548 C547 1.334 . S
C548 C549 1.287 . S
C549 C548 1.287 . S
C549 C550 1.524 . S
C549 H552 0.999 . S
C550 H520 0.950 . S
C550 C549 1.524 . S
C550 C551 1.415 . S
C551 H521 0.950 . S
C551 C546 1.363 . S
C551 C550 1.415 . S
H552 C549 0.999 . S
H553 C534 0.913 . S
H554 C572 0.951 . S
H555 C574 0.951 . S
H556 C576 0.950 . S
H557 C577 0.950 . S
H558 C579 0.950 . S
H559 C582 0.950 . S
H560 C583 0.950 . S
H561 C585 0.950 . S
H562 C586 0.950 . S
H563 C587 0.951 . S
H564 C589 0.951 . S
H565 C591 0.950 . S
H566 C592 0.950 . S
H567 C594 0.950 . S
H568 C597 0.950 . S
H569 C598 0.950 . S
H570 C600 0.950 . S
H571 C601 0.950 . S
C572 H554 0.951 . S
C572 C573 1.366 . S
C572 C574 1.388 . S
C573 C572 1.366 . S
C573 C577 1.385 . S
C574 H555 0.951 . S
C574 C572 1.388 . S
C574 C575 1.366 . S
C575 C574 1.366 . S
C575 C576 1.414 . S
C575 C578 1.499 . S
C576 H556 0.950 . S
C576 C575 1.414 . S
C576 C577 1.374 . S
C577 H557 0.950 . S
C577 C573 1.385 . S
C577 C576 1.374 . S
C578 C575 1.499 . S
C578 C579 1.373 . S
C578 C580 1.389 . S
C579 H558 0.950 . S
C579 C578 1.373 . S
C579 C595 1.377 1_655 S
C580 C578 1.389 . S
C580 C581 1.524 . S
C580 C594 1.377 1_655 S
C581 C580 1.524 . S
C581 C582 1.397 . S
C581 C586 1.363 . S
C582 H559 0.950 . S
C582 C581 1.397 . S
C582 C583 1.334 . S
C583 H560 0.950 . S
C583 C582 1.334 . S
C583 C584 1.287 . S
C584 C583 1.287 . S
C584 C585 1.524 . S
C584 H603 0.913 . S
C585 H561 0.950 . S
C585 C584 1.524 . S
C585 C586 1.415 . S
C586 H562 0.950 . S
C586 C581 1.363 . S
C586 C585 1.415 . S
C587 H563 0.951 . S
C587 C588 1.366 . S
C587 C589 1.388 . S
C588 C587 1.366 . S
C588 C592 1.385 . S
C589 H564 0.951 . S
C589 C587 1.388 . S
C589 C590 1.366 . S
C590 C589 1.366 . S
C590 C591 1.414 . S
C590 C593 1.499 . S
C591 H565 0.950 . S
C591 C590 1.414 . S
C591 C592 1.374 . S
C592 H566 0.950 . S
C592 C588 1.385 . S
C592 C591 1.374 . S
C593 C590 1.499 . S
C593 C594 1.373 . S
C593 C595 1.389 . S
C594 H567 0.950 . S
C594 C580 1.377 1_455 S
C594 C593 1.373 . S
C595 C579 1.377 1_455 S
C595 C593 1.389 . S
C595 C596 1.524 . S
C596 C595 1.524 . S
C596 C597 1.397 . S
C596 C601 1.363 . S
C597 H568 0.950 . S
C597 C596 1.397 . S
C597 C598 1.334 . S
C598 H569 0.950 . S
C598 C597 1.334 . S
C598 C599 1.287 . S
C599 C598 1.287 . S
C599 C600 1.524 . S
C599 H602 0.999 . S
C600 H570 0.950 . S
C600 C599 1.524 . S
C600 C601 1.415 . S
C601 H571 0.950 . S
C601 C596 1.363 . S
C601 C600 1.415 . S
H602 C599 0.999 . S
H603 C584 0.913 . S
H604 C622 0.951 . S
H605 C624 0.951 . S
H606 C626 0.950 . S
H607 C627 0.950 . S
H608 C629 0.950 . S
H609 C632 0.950 . S
H610 C633 0.950 . S
H611 C635 0.950 . S
H612 C636 0.950 . S
H613 C637 0.951 . S
H614 C639 0.951 . S
H615 C641 0.950 . S
H616 C642 0.950 . S
H617 C644 0.950 . S
H618 C647 0.950 . S
H619 C648 0.950 . S
H620 C650 0.950 . S
H621 C651 0.950 . S
C622 H604 0.951 . S
C622 C623 1.366 . S
C622 C624 1.388 . S
C623 C622 1.366 . S
C623 C627 1.385 . S
C624 H605 0.951 . S
C624 C622 1.388 . S
C624 C625 1.366 . S
C625 C624 1.366 . S
C625 C626 1.414 . S
C625 C628 1.499 . S
C626 H606 0.950 . S
C626 C625 1.414 . S
C626 C627 1.374 . S
C627 H607 0.950 . S
C627 C623 1.385 . S
C627 C626 1.374 . S
C628 C625 1.499 . S
C628 C629 1.373 . S
C628 C630 1.389 . S
C629 H608 0.950 . S
C629 C628 1.373 . S
C629 C645 1.377 . S
C630 C628 1.389 . S
C630 C631 1.524 . S
C630 C644 1.377 . S
C631 C630 1.524 . S
C631 C632 1.397 . S
C631 C636 1.363 . S
C632 H609 0.950 . S
C632 C631 1.397 . S
C632 C633 1.334 . S
C633 H610 0.950 . S
C633 C632 1.334 . S
C633 C634 1.287 . S
C634 C633 1.287 . S
C634 C635 1.524 . S
C634 H653 0.913 . S
C635 H611 0.950 . S
C635 C634 1.524 . S
C635 C636 1.415 . S
C636 H612 0.950 . S
C636 C631 1.363 . S
C636 C635 1.415 . S
C637 H613 0.951 . S
C637 C638 1.366 . S
C637 C639 1.388 . S
C638 C637 1.366 . S
C638 C642 1.385 . S
C639 H614 0.951 . S
C639 C637 1.388 . S
C639 C640 1.366 . S
C640 C639 1.366 . S
C640 C641 1.414 . S
C640 C643 1.499 . S
C641 H615 0.950 . S
C641 C640 1.414 . S
C641 C642 1.374 . S
C642 H616 0.950 . S
C642 C638 1.385 . S
C642 C641 1.374 . S
C643 C640 1.499 . S
C643 C644 1.373 . S
C643 C645 1.389 . S
C644 H617 0.950 . S
C644 C630 1.377 . S
C644 C643 1.373 . S
C645 C629 1.377 . S
C645 C643 1.389 . S
C645 C646 1.524 . S
C646 C645 1.524 . S
C646 C647 1.397 . S
C646 C651 1.363 . S
C647 H618 0.950 . S
C647 C646 1.397 . S
C647 C648 1.334 . S
C648 H619 0.950 . S
C648 C647 1.334 . S
C648 C649 1.287 . S
C649 C648 1.287 . S
C649 C650 1.524 . S
C649 H652 0.999 . S
C650 H620 0.950 . S
C650 C649 1.524 . S
C650 C651 1.415 . S
C651 H621 0.950 . S
C651 C646 1.363 . S
C651 C650 1.415 . S
H652 C649 0.999 . S
H653 C634 0.913 . S
H654 C672 0.951 . S
H655 C674 0.951 . S
H656 C676 0.950 . S
H657 C677 0.950 . S
H658 C679 0.950 . S
H659 C682 0.950 1_565 S
H660 C683 0.950 . S
H661 C685 0.950 . S
H662 C686 0.950 . S
H663 C687 0.951 . S
H664 C689 0.951 . S
H665 C691 0.950 . S
H666 C692 0.950 . S
H667 C694 0.950 . S
H668 C697 0.950 1_545 S
H669 C698 0.950 . S
H670 C700 0.950 . S
H671 C701 0.950 . S
C672 H654 0.951 . S
C672 C673 1.366 . S
C672 C674 1.388 . S
C673 C672 1.366 . S
C673 C677 1.385 . S
C674 H655 0.951 . S
C674 C672 1.388 . S
C674 C675 1.366 . S
C675 C674 1.366 . S
C675 C676 1.414 . S
C675 C678 1.499 . S
C676 H656 0.950 . S
C676 C675 1.414 . S
C676 C677 1.374 . S
C677 H657 0.950 . S
C677 C673 1.385 . S
C677 C676 1.374 . S
C678 C675 1.499 . S
C678 C679 1.373 . S
C678 C680 1.389 1_565 S
C679 H658 0.950 . S
C679 C678 1.373 . S
C679 C695 1.377 . S
C680 C678 1.389 1_545 S
C680 C681 1.524 . S
C680 C694 1.377 . S
C681 C680 1.524 . S
C681 C682 1.397 . S
C681 C686 1.363 . S
C682 H659 0.950 1_545 S
C682 C681 1.397 . S
C682 C683 1.334 . S
C683 H660 0.950 . S
C683 C682 1.334 . S
C683 C684 1.287 . S
C684 C683 1.287 . S
C684 C685 1.524 . S
C684 H703 0.913 . S
C685 H661 0.950 . S
C685 C684 1.524 . S
C685 C686 1.415 . S
C686 H662 0.950 . S
C686 C681 1.363 . S
C686 C685 1.415 . S
C687 H663 0.951 . S
C687 C688 1.366 . S
C687 C689 1.388 . S
C688 C687 1.366 . S
C688 C692 1.385 . S
C689 H664 0.951 . S
C689 C687 1.388 . S
C689 C690 1.366 . S
C690 C689 1.366 . S
C690 C691 1.414 . S
C690 C693 1.499 . S
C691 H665 0.950 . S
C691 C690 1.414 . S
C691 C692 1.374 . S
C692 H666 0.950 . S
C692 C688 1.385 . S
C692 C691 1.374 . S
C693 C690 1.499 . S
C693 C694 1.373 . S
C693 C695 1.389 1_545 S
C694 H667 0.950 . S
C694 C680 1.377 . S
C694 C693 1.373 . S
C695 C679 1.377 . S
C695 C693 1.389 1_565 S
C695 C696 1.524 . S
C696 C695 1.524 . S
C696 C697 1.397 . S
C696 C701 1.363 . S
C697 H668 0.950 1_565 S
C697 C696 1.397 . S
C697 C698 1.334 . S
C698 H669 0.950 . S
C698 C697 1.334 . S
C698 C699 1.287 . S
C699 C698 1.287 . S
C699 C700 1.524 . S
C699 H702 0.999 . S
C700 H670 0.950 . S
C700 C699 1.524 . S
C700 C701 1.415 . S
C701 H671 0.950 . S
C701 C696 1.363 . S
C701 C700 1.415 . S
H702 C699 0.999 . S
H703 C684 0.913 . S
H704 C722 0.951 . S
H705 C724 0.951 . S
H706 C726 0.950 . S
H707 C727 0.950 . S
H708 C729 0.950 . S
H709 C732 0.950 . S
H710 C733 0.950 . S
H711 C735 0.950 . S
H712 C736 0.950 1_655 S
H713 C737 0.951 . S
H714 C739 0.951 . S
H715 C741 0.950 . S
H716 C742 0.950 . S
H717 C744 0.950 . S
H718 C747 0.950 . S
H719 C748 0.950 . S
H720 C750 0.950 . S
H721 C751 0.950 1_455 S
C722 H704 0.951 . S
C722 C723 1.366 . S
C722 C724 1.388 . S
C723 C722 1.366 . S
C723 C727 1.385 . S
C724 H705 0.951 . S
C724 C722 1.388 . S
C724 C725 1.366 . S
C725 C724 1.366 . S
C725 C726 1.414 . S
C725 C728 1.499 . S
C726 H706 0.950 . S
C726 C725 1.414 . S
C726 C727 1.374 . S
C727 H707 0.950 . S
C727 C723 1.385 . S
C727 C726 1.374 . S
C728 C725 1.499 . S
C728 C729 1.373 . S
C728 C730 1.389 . S
C729 H708 0.950 . S
C729 C728 1.373 . S
C729 C745 1.377 1_455 S
C730 C728 1.389 . S
C730 C731 1.524 . S
C730 C744 1.377 1_455 S
C731 C730 1.524 . S
C731 C732 1.397 . S
C731 C736 1.363 . S
C732 H709 0.950 . S
C732 C731 1.397 . S
C732 C733 1.334 . S
C733 H710 0.950 . S
C733 C732 1.334 . S
C733 C734 1.287 . S
C734 C733 1.287 . S
C734 C735 1.524 . S
C734 H753 0.913 . S
C735 H711 0.950 . S
C735 C734 1.524 . S
C735 C736 1.415 . S
C736 H712 0.950 1_455 S
C736 C731 1.363 . S
C736 C735 1.415 . S
C737 H713 0.951 . S
C737 C738 1.366 . S
C737 C739 1.388 . S
C738 C737 1.366 . S
C738 C742 1.385 . S
C739 H714 0.951 . S
C739 C737 1.388 . S
C739 C740 1.366 . S
C740 C739 1.366 . S
C740 C741 1.414 . S
C740 C743 1.499 . S
C741 H715 0.950 . S
C741 C740 1.414 . S
C741 C742 1.374 . S
C742 H716 0.950 . S
C742 C738 1.385 . S
C742 C741 1.374 . S
C743 C740 1.499 . S
C743 C744 1.373 . S
C743 C745 1.389 . S
C744 H717 0.950 . S
C744 C730 1.377 1_655 S
C744 C743 1.373 . S
C745 C729 1.377 1_655 S
C745 C743 1.389 . S
C745 C746 1.524 . S
C746 C745 1.524 . S
C746 C747 1.397 . S
C746 C751 1.363 . S
C747 H718 0.950 . S
C747 C746 1.397 . S
C747 C748 1.334 . S
C748 H719 0.950 . S
C748 C747 1.334 . S
C748 C749 1.287 . S
C749 C748 1.287 . S
C749 C750 1.524 . S
C749 H752 0.999 . S
C750 H720 0.950 . S
C750 C749 1.524 . S
C750 C751 1.415 . S
C751 H721 0.950 1_655 S
C751 C746 1.363 . S
C751 C750 1.415 . S
H752 C749 0.999 . S
H753 C734 0.913 . S
H754 C772 0.951 . S
H755 C774 0.951 . S
H756 C776 0.950 . S
H757 C777 0.950 . S
H758 C779 0.950 . S
H759 C782 0.950 . S
H760 C783 0.950 . S
H761 C785 0.950 . S
H762 C786 0.950 . S
H763 C787 0.951 . S
H764 C789 0.951 . S
H765 C791 0.950 . S
H766 C792 0.950 . S
H767 C794 0.950 . S
H768 C797 0.950 . S
H769 C798 0.950 . S
H770 C800 0.950 . S
H771 C801 0.950 . S
C772 H754 0.951 . S
C772 C773 1.366 . S
C772 C774 1.388 . S
C773 C772 1.366 . S
C773 C777 1.385 . S
C774 H755 0.951 . S
C774 C772 1.388 . S
C774 C775 1.366 . S
C775 C774 1.366 . S
C775 C776 1.414 . S
C775 C778 1.499 . S
C776 H756 0.950 . S
C776 C775 1.414 . S
C776 C777 1.374 . S
C777 H757 0.950 . S
C777 C773 1.385 . S
C777 C776 1.374 . S
C778 C775 1.499 . S
C778 C779 1.373 . S
C778 C780 1.389 . S
C779 H758 0.950 . S
C779 C778 1.373 . S
C779 C795 1.377 . S
C780 C778 1.389 . S
C780 C781 1.524 . S
C780 C794 1.377 . S
C781 C780 1.524 . S
C781 C782 1.397 . S
C781 C786 1.363 . S
C782 H759 0.950 . S
C782 C781 1.397 . S
C782 C783 1.334 . S
C783 H760 0.950 . S
C783 C782 1.334 . S
C783 C784 1.287 . S
C784 C783 1.287 . S
C784 C785 1.524 . S
C784 H803 0.913 . S
C785 H761 0.950 . S
C785 C784 1.524 . S
C785 C786 1.415 . S
C786 H762 0.950 . S
C786 C781 1.363 . S
C786 C785 1.415 . S
C787 H763 0.951 . S
C787 C788 1.366 . S
C787 C789 1.388 . S
C788 C787 1.366 . S
C788 C792 1.385 . S
C789 H764 0.951 . S
C789 C787 1.388 . S
C789 C790 1.366 . S
C790 C789 1.366 . S
C790 C791 1.414 . S
C790 C793 1.499 . S
C791 H765 0.950 . S
C791 C790 1.414 . S
C791 C792 1.374 . S
C792 H766 0.950 . S
C792 C788 1.385 . S
C792 C791 1.374 . S
C793 C790 1.499 . S
C793 C794 1.373 . S
C793 C795 1.389 . S
C794 H767 0.950 . S
C794 C780 1.377 . S
C794 C793 1.373 . S
C795 C779 1.377 . S
C795 C793 1.389 . S
C795 C796 1.524 . S
C796 C795 1.524 . S
C796 C797 1.397 . S
C796 C801 1.363 . S
C797 H768 0.950 . S
C797 C796 1.397 . S
C797 C798 1.334 . S
C798 H769 0.950 . S
C798 C797 1.334 . S
C798 C799 1.287 . S
C799 C798 1.287 . S
C799 C800 1.524 . S
C799 H802 0.999 . S
C800 H770 0.950 . S
C800 C799 1.524 . S
C800 C801 1.415 . S
C801 H771 0.950 . S
C801 C796 1.363 . S
C801 C800 1.415 . S
H802 C799 0.999 . S
H803 C784 0.913 . S
H804 C822 0.951 . S
H805 C824 0.951 . S
H806 C826 0.950 . S
H807 C827 0.950 . S
H808 C829 0.950 . S
H809 C832 0.950 . S
H810 C833 0.950 . S
H811 C835 0.950 . S
H812 C836 0.950 . S
H813 C837 0.951 . S
H814 C839 0.951 . S
H815 C841 0.950 . S
H816 C842 0.950 . S
H817 C844 0.950 . S
H818 C847 0.950 . S
H819 C848 0.950 . S
H820 C850 0.950 . S
H821 C851 0.950 . S
C822 H804 0.951 . S
C822 C823 1.366 . S
C822 C824 1.388 . S
C823 C822 1.366 . S
C823 C827 1.385 . S
C824 H805 0.951 . S
C824 C822 1.388 . S
C824 C825 1.366 . S
C825 C824 1.366 . S
C825 C826 1.414 . S
C825 C828 1.499 . S
C826 H806 0.950 . S
C826 C825 1.414 . S
C826 C827 1.374 . S
C827 H807 0.950 . S
C827 C823 1.385 . S
C827 C826 1.374 . S
C828 C825 1.499 . S
C828 C829 1.373 . S
C828 C830 1.389 . S
C829 H808 0.950 . S
C829 C828 1.373 . S
C829 C845 1.377 . S
C830 C828 1.389 . S
C830 C831 1.524 . S
C830 C844 1.377 . S
C831 C830 1.524 . S
C831 C832 1.397 . S
C831 C836 1.363 . S
C832 H809 0.950 . S
C832 C831 1.397 . S
C832 C833 1.334 . S
C833 H810 0.950 . S
C833 C832 1.334 . S
C833 C834 1.287 . S
C834 C833 1.287 . S
C834 C835 1.524 . S
C834 H853 0.913 . S
C835 H811 0.950 . S
C835 C834 1.524 . S
C835 C836 1.415 . S
C836 H812 0.950 . S
C836 C831 1.363 . S
C836 C835 1.415 . S
C837 H813 0.951 . S
C837 C838 1.366 . S
C837 C839 1.388 . S
C838 C837 1.366 . S
C838 C842 1.385 . S
C839 H814 0.951 . S
C839 C837 1.388 . S
C839 C840 1.366 . S
C840 C839 1.366 . S
C840 C841 1.414 . S
C840 C843 1.499 . S
C841 H815 0.950 . S
C841 C840 1.414 . S
C841 C842 1.374 . S
C842 H816 0.950 . S
C842 C838 1.385 . S
C842 C841 1.374 . S
C843 C840 1.499 . S
C843 C844 1.373 . S
C843 C845 1.389 . S
C844 H817 0.950 . S
C844 C830 1.377 . S
C844 C843 1.373 . S
C845 C829 1.377 . S
C845 C843 1.389 . S
C845 C846 1.524 . S
C846 C845 1.524 . S
C846 C847 1.397 . S
C846 C851 1.363 . S
C847 H818 0.950 . S
C847 C846 1.397 . S
C847 C848 1.334 . S
C848 H819 0.950 . S
C848 C847 1.334 . S
C848 C849 1.287 . S
C849 C848 1.287 . S
C849 C850 1.524 . S
C849 H852 0.999 . S
C850 H820 0.950 . S
C850 C849 1.524 . S
C850 C851 1.415 . S
C851 H821 0.950 . S
C851 C846 1.363 . S
C851 C850 1.415 . S
H852 C849 0.999 . S
H853 C834 0.913 . S
H854 C872 0.951 . S
H855 C874 0.951 . S
H856 C876 0.950 . S
H857 C877 0.950 . S
H858 C879 0.950 . S
H859 C882 0.950 . S
H860 C883 0.950 . S
H861 C885 0.950 . S
H862 C886 0.950 . S
H863 C887 0.951 . S
H864 C889 0.951 . S
H865 C891 0.950 . S
H866 C892 0.950 . S
H867 C894 0.950 . S
H868 C897 0.950 . S
H869 C898 0.950 . S
H870 C900 0.950 . S
H871 C901 0.950 . S
C872 H854 0.951 . S
C872 C873 1.366 . S
C872 C874 1.388 . S
C873 C872 1.366 . S
C873 C877 1.385 . S
C874 H855 0.951 . S
C874 C872 1.388 . S
C874 C875 1.366 . S
C875 C874 1.366 . S
C875 C876 1.414 . S
C875 C878 1.499 . S
C876 H856 0.950 . S
C876 C875 1.414 . S
C876 C877 1.374 . S
C877 H857 0.950 . S
C877 C873 1.385 . S
C877 C876 1.374 . S
C878 C875 1.499 . S
C878 C879 1.373 . S
C878 C880 1.389 . S
C879 H858 0.950 . S
C879 C878 1.373 . S
C879 C895 1.377 . S
C880 C878 1.389 . S
C880 C881 1.524 . S
C880 C894 1.377 . S
C881 C880 1.524 . S
C881 C882 1.397 . S
C881 C886 1.363 . S
C882 H859 0.950 . S
C882 C881 1.397 . S
C882 C883 1.334 . S
C883 H860 0.950 . S
C883 C882 1.334 . S
C883 C884 1.287 . S
C884 C883 1.287 . S
C884 C885 1.524 . S
C884 H903 0.913 . S
C885 H861 0.950 . S
C885 C884 1.524 . S
C885 C886 1.415 . S
C886 H862 0.950 . S
C886 C881 1.363 . S
C886 C885 1.415 . S
C887 H863 0.951 . S
C887 C888 1.366 . S
C887 C889 1.388 . S
C888 C887 1.366 . S
C888 C892 1.385 . S
C889 H864 0.951 . S
C889 C887 1.388 . S
C889 C890 1.366 . S
C890 C889 1.366 . S
C890 C891 1.414 . S
C890 C893 1.499 . S
C891 H865 0.950 . S
C891 C890 1.414 . S
C891 C892 1.374 . S
C892 H866 0.950 . S
C892 C888 1.385 . S
C892 C891 1.374 . S
C893 C890 1.499 . S
C893 C894 1.373 . S
C893 C895 1.389 . S
C894 H867 0.950 . S
C894 C880 1.377 . S
C894 C893 1.373 . S
C895 C879 1.377 . S
C895 C893 1.389 . S
C895 C896 1.524 . S
C896 C895 1.524 . S
C896 C897 1.397 . S
C896 C901 1.363 . S
C897 H868 0.950 . S
C897 C896 1.397 . S
C897 C898 1.334 . S
C898 H869 0.950 . S
C898 C897 1.334 . S
C898 C899 1.287 . S
C899 C898 1.287 . S
C899 C900 1.524 . S
C899 H902 0.999 . S
C900 H870 0.950 . S
C900 C899 1.524 . S
C900 C901 1.415 . S
C901 H871 0.950 . S
C901 C896 1.363 . S
C901 C900 1.415 . S
H902 C899 0.999 . S
H903 C884 0.913 . S
H904 C922 0.951 . S
H905 C924 0.951 . S
H906 C926 0.950 . S
H907 C927 0.950 . S
H908 C929 0.950 . S
H909 C932 0.950 . S
H910 C933 0.950 . S
H911 C935 0.950 . S
H912 C936 0.950 . S
H913 C937 0.951 . S
H914 C939 0.951 . S
H915 C941 0.950 . S
H916 C942 0.950 . S
H917 C944 0.950 . S
H918 C947 0.950 . S
H919 C948 0.950 . S
H920 C950 0.950 . S
H921 C951 0.950 . S
C922 H904 0.951 . S
C922 C923 1.366 . S
C922 C924 1.388 . S
C923 C922 1.366 . S
C923 C927 1.385 . S
C924 H905 0.951 . S
C924 C922 1.388 . S
C924 C925 1.366 . S
C925 C924 1.366 . S
C925 C926 1.414 . S
C925 C928 1.499 . S
C926 H906 0.950 . S
C926 C925 1.414 . S
C926 C927 1.374 . S
C927 H907 0.950 . S
C927 C923 1.385 . S
C927 C926 1.374 . S
C928 C925 1.499 . S
C928 C929 1.373 . S
C928 C930 1.389 . S
C929 H908 0.950 . S
C929 C928 1.373 . S
C929 C945 1.377 . S
C930 C928 1.389 . S
C930 C931 1.524 . S
C930 C944 1.377 . S
C931 C930 1.524 . S
C931 C932 1.397 . S
C931 C936 1.363 . S
C932 H909 0.950 . S
C932 C931 1.397 . S
C932 C933 1.334 . S
C933 H910 0.950 . S
C933 C932 1.334 . S
C933 C934 1.287 . S
C934 C933 1.287 . S
C934 C935 1.524 . S
C934 H953 0.913 . S
C935 H911 0.950 . S
C935 C934 1.524 . S
C935 C936 1.415 . S
C936 H912 0.950 . S
C936 C931 1.363 . S
C936 C935 1.415 . S
C937 H913 0.951 . S
C937 C938 1.366 . S
C937 C939 1.388 . S
C938 C937 1.366 . S
C938 C942 1.385 . S
C939 H914 0.951 . S
C939 C937 1.388 . S
C939 C940 1.366 . S
C940 C939 1.366 . S
C940 C941 1.414 . S
C940 C943 1.499 . S
C941 H915 0.950 . S
C941 C940 1.414 . S
C941 C942 1.374 . S
C942 H916 0.950 . S
C942 C938 1.385 . S
C942 C941 1.374 . S
C943 C940 1.499 . S
C943 C944 1.373 . S
C943 C945 1.389 . S
C944 H917 0.950 . S
C944 C930 1.377 . S
C944 C943 1.373 . S
C945 C929 1.377 . S
C945 C943 1.389 . S
C945 C946 1.524 . S
C946 C945 1.524 . S
C946 C947 1.397 . S
C946 C951 1.363 . S
C947 H918 0.950 . S
C947 C946 1.397 . S
C947 C948 1.334 . S
C948 H919 0.950 . S
C948 C947 1.334 . S
C948 C949 1.287 . S
C949 C948 1.287 . S
C949 C950 1.524 . S
C949 H952 0.999 . S
C950 H920 0.950 . S
C950 C949 1.524 . S
C950 C951 1.415 . S
C951 H921 0.950 . S
C951 C946 1.363 . S
C951 C950 1.415 . S
H952 C949 0.999 . S
H953 C934 0.913 . S
H954 C972 0.951 . S
H955 C974 0.951 . S
H956 C976 0.950 . S
H957 C977 0.950 . S
H958 C979 0.950 . S
H959 C982 0.950 . S
H960 C983 0.950 . S
H961 C985 0.950 . S
H962 C986 0.950 . S
H963 C987 0.950 1_554 S
H964 C989 0.951 . S
H965 C991 0.950 . S
H966 C992 0.950 . S
H967 C994 0.950 . S
H968 C997 0.950 1_556 S
H969 C998 0.950 . S
H970 C1000 0.950 . S
H971 C1001 0.950 . S
C972 H954 0.951 . S
C972 C973 1.366 . S
C972 C974 1.388 . S
C973 C972 1.366 . S
C973 C977 1.385 . S
C974 H955 0.951 . S
C974 C972 1.388 . S
C974 C975 1.366 . S
C975 C974 1.366 . S
C975 C976 1.414 . S
C975 C978 1.499 . S
C976 H956 0.950 . S
C976 C975 1.414 . S
C976 C977 1.374 . S
C977 H957 0.950 . S
C977 C973 1.385 . S
C977 C976 1.374 . S
C978 C975 1.499 . S
C978 C979 1.373 . S
C978 C980 1.389 . S
C979 H958 0.950 . S
C979 C978 1.373 . S
C979 C995 1.377 . S
C980 C978 1.389 . S
C980 C981 1.524 . S
C980 C994 1.377 . S
C981 C980 1.524 . S
C981 C982 1.397 . S
C981 C986 1.363 . S
C982 H959 0.950 . S
C982 C981 1.397 . S
C982 C983 1.334 . S
C983 H960 0.950 . S
C983 C982 1.334 . S
C983 C984 1.287 . S
C984 C983 1.287 . S
C984 C985 1.524 . S
C984 H1003 0.913 . S
C985 H961 0.950 . S
C985 C984 1.524 . S
C985 C986 1.415 . S
C986 H962 0.950 . S
C986 C981 1.363 . S
C986 C985 1.415 . S
C987 H963 0.950 1_556 S
C987 C988 1.366 . S
C987 C989 1.388 1_556 S
C988 C987 1.366 . S
C988 C992 1.385 . S
C989 H964 0.951 . S
C989 C987 1.388 1_554 S
C989 C990 1.366 . S
C990 C989 1.366 . S
C990 C991 1.414 1_554 S
C990 C993 1.499 . S
C991 H965 0.950 . S
C991 C990 1.414 1_556 S
C991 C992 1.374 . S
C992 H966 0.950 . S
C992 C988 1.385 . S
C992 C991 1.374 . S
C993 C990 1.499 . S
C993 C994 1.373 . S
C993 C995 1.389 . S
C994 H967 0.950 . S
C994 C980 1.377 . S
C994 C993 1.373 . S
C995 C979 1.377 . S
C995 C993 1.389 . S
C995 C996 1.524 . S
C996 C995 1.524 . S
C996 C997 1.397 . S
C996 C1001 1.363 . S
C997 H968 0.950 1_554 S
C997 C996 1.397 . S
C997 C998 1.334 1_554 S
C998 H969 0.950 . S
C998 C997 1.334 1_556 S
C998 C999 1.287 1_556 S
C999 C998 1.287 1_554 S
C999 C1000 1.524 . S
C999 H1002 0.999 . S
C1000 H970 0.950 . S
C1000 C999 1.524 . S
C1000 C1001 1.415 . S
C1001 H971 0.950 . S
C1001 C996 1.363 . S
C1001 C1000 1.415 . S
H1002 C999 0.999 . S
H1003 C984 0.913 . S
H1004 C1022 0.951 . S
H1005 C1024 0.951 . S
H1006 C1026 0.950 . S
H1007 C1027 0.950 . S
H1008 C1029 0.950 . S
H1009 C1032 0.950 . S
H1010 C1033 0.950 . S
H1011 C1035 0.950 . S
H1012 C1036 0.950 . S
H1013 C1037 0.951 . S
H1014 C1039 0.951 . S
H1015 C1041 0.950 . S
H1016 C1042 0.950 1_554 S
H1017 C1044 0.950 . S
H1018 C1047 0.950 . S
H1019 C1048 0.950 . S
H1020 C1050 0.950 1_556 S
H1021 C1051 0.950 . S
C1022 H1004 0.951 . S
C1022 C1023 1.366 . S
C1022 C1024 1.388 . S
C1023 C1022 1.366 . S
C1023 C1027 1.385 . S
C1024 H1005 0.951 . S
C1024 C1022 1.388 . S
C1024 C1025 1.366 . S
C1025 C1024 1.366 . S
C1025 C1026 1.414 . S
C1025 C1028 1.499 . S
C1026 H1006 0.950 . S
C1026 C1025 1.414 . S
C1026 C1027 1.374 . S
C1027 H1007 0.950 . S
C1027 C1023 1.385 . S
C1027 C1026 1.374 . S
C1028 C1025 1.499 . S
C1028 C1029 1.373 . S
C1028 C1030 1.389 . S
C1029 H1008 0.950 . S
C1029 C1028 1.373 . S
C1029 C1045 1.377 . S
C1030 C1028 1.389 . S
C1030 C1031 1.524 . S
C1030 C1044 1.377 . S
C1031 C1030 1.524 . S
C1031 C1032 1.397 . S
C1031 C1036 1.363 . S
C1032 H1009 0.950 . S
C1032 C1031 1.397 . S
C1032 C1033 1.334 . S
C1033 H1010 0.950 . S
C1033 C1032 1.334 . S
C1033 C1034 1.287 . S
C1034 C1033 1.287 . S
C1034 C1035 1.524 . S
C1034 H1053 0.913 . S
C1035 H1011 0.950 . S
C1035 C1034 1.524 . S
C1035 C1036 1.415 . S
C1036 H1012 0.950 . S
C1036 C1031 1.363 . S
C1036 C1035 1.415 . S
C1037 H1013 0.951 . S
C1037 C1038 1.366 . S
C1037 C1039 1.388 . S
C1038 C1037 1.366 . S
C1038 C1042 1.385 . S
C1039 H1014 0.951 . S
C1039 C1037 1.388 . S
C1039 C1040 1.366 1_556 S
C1040 C1039 1.366 1_554 S
C1040 C1041 1.414 . S
C1040 C1043 1.499 . S
C1041 H1015 0.950 . S
C1041 C1040 1.414 . S
C1041 C1042 1.374 1_554 S
C1042 H1016 0.950 1_556 S
C1042 C1038 1.385 . S
C1042 C1041 1.374 1_556 S
C1043 C1040 1.499 . S
C1043 C1044 1.373 . S
C1043 C1045 1.389 . S
C1044 H1017 0.950 . S
C1044 C1030 1.377 . S
C1044 C1043 1.373 . S
C1045 C1029 1.377 . S
C1045 C1043 1.389 . S
C1045 C1046 1.524 . S
C1046 C1045 1.524 . S
C1046 C1047 1.397 . S
C1046 C1051 1.363 . S
C1047 H1018 0.950 . S
C1047 C1046 1.397 . S
C1047 C1048 1.334 . S
C1048 H1019 0.950 . S
C1048 C1047 1.334 . S
C1048 C1049 1.287 . S
C1049 C1048 1.287 . S
C1049 C1050 1.524 . S
C1049 H1052 0.999 . S
C1050 H1020 0.950 1_554 S
C1050 C1049 1.524 . S
C1050 C1051 1.415 . S
C1051 H1021 0.950 . S
C1051 C1046 1.363 . S
C1051 C1050 1.415 . S
H1052 C1049 0.999 . S
H1053 C1034 0.913 . S
H1054 C1072 0.951 . S
H1055 C1074 0.951 . S
H1056 C1076 0.950 . S
H1057 C1077 0.950 . S
H1058 C1079 0.950 . S
H1059 C1082 0.950 . S
H1060 C1083 0.950 . S
H1061 C1085 0.950 . S
H1062 C1086 0.950 . S
H1063 C1087 0.951 . S
H1064 C1089 0.951 . S
H1065 C1091 0.950 . S
H1066 C1092 0.950 1_554 S
H1067 C1094 0.950 . S
H1068 C1097 0.950 . S
H1069 C1098 0.951 . S
H1070 C1100 0.950 . S
H1071 C1101 0.950 . S
C1072 H1054 0.951 . S
C1072 C1073 1.366 . S
C1072 C1074 1.388 . S
C1073 C1072 1.366 . S
C1073 C1077 1.385 . S
C1074 H1055 0.951 . S
C1074 C1072 1.388 . S
C1074 C1075 1.366 . S
C1075 C1074 1.366 . S
C1075 C1076 1.414 . S
C1075 C1078 1.499 . S
C1076 H1056 0.950 . S
C1076 C1075 1.414 . S
C1076 C1077 1.374 . S
C1077 H1057 0.950 . S
C1077 C1073 1.385 . S
C1077 C1076 1.374 . S
C1078 C1075 1.499 . S
C1078 C1079 1.373 . S
C1078 C1080 1.389 . S
C1079 H1058 0.950 . S
C1079 C1078 1.373 . S
C1079 C1095 1.377 . S
C1080 C1078 1.389 . S
C1080 C1081 1.524 . S
C1080 C1094 1.377 . S
C1081 C1080 1.524 . S
C1081 C1082 1.397 . S
C1081 C1086 1.363 . S
C1082 H1059 0.950 . S
C1082 C1081 1.397 . S
C1082 C1083 1.334 . S
C1083 H1060 0.950 . S
C1083 C1082 1.334 . S
C1083 C1084 1.287 . S
C1084 C1083 1.287 . S
C1084 C1085 1.524 . S
C1084 H1103 0.913 . S
C1085 H1061 0.950 . S
C1085 C1084 1.524 . S
C1085 C1086 1.415 . S
C1086 H1062 0.950 . S
C1086 C1081 1.363 . S
C1086 C1085 1.415 . S
C1087 H1063 0.951 . S
C1087 C1088 1.366 . S
C1087 C1089 1.388 . S
C1088 C1087 1.366 . S
C1088 C1092 1.385 . S
C1089 H1064 0.951 . S
C1089 C1087 1.388 . S
C1089 C1090 1.366 1_556 S
C1090 C1089 1.366 1_554 S
C1090 C1091 1.414 . S
C1090 C1093 1.499 . S
C1091 H1065 0.950 . S
C1091 C1090 1.414 . S
C1091 C1092 1.374 1_554 S
C1092 H1066 0.950 1_556 S
C1092 C1088 1.385 . S
C1092 C1091 1.374 1_556 S
C1093 C1090 1.499 . S
C1093 C1094 1.373 . S
C1093 C1095 1.389 . S
C1094 H1067 0.950 . S
C1094 C1080 1.377 . S
C1094 C1093 1.373 . S
C1095 C1079 1.377 . S
C1095 C1093 1.389 . S
C1095 C1096 1.524 . S
C1096 C1095 1.524 . S
C1096 C1097 1.397 . S
C1096 C1101 1.363 1_554 S
C1097 H1068 0.950 . S
C1097 C1096 1.397 . S
C1097 C1098 1.339 . S
C1098 H1069 0.951 . S
C1098 C1097 1.339 . S
C1098 C1099 1.282 1_554 S
C1099 C1098 1.282 1_556 S
C1099 C1100 1.524 . S
C1099 H1102 0.999 . S
C1100 H1070 0.950 . S
C1100 C1099 1.524 . S
C1100 C1101 1.415 . S
C1101 H1071 0.950 . S
C1101 C1096 1.363 1_556 S
C1101 C1100 1.415 . S
H1102 C1099 0.999 . S
H1103 C1084 0.913 . S
H1104 C1122 0.951 . S
H1105 C1124 0.951 . S
H1106 C1126 0.950 . S
H1107 C1127 0.950 . S
H1108 C1129 0.950 . S
H1109 C1132 0.950 . S
H1110 C1133 0.950 . S
H1111 C1135 0.950 . S
H1112 C1136 0.950 . S
H1113 C1137 0.951 . S
H1114 C1139 0.951 . S
H1115 C1141 0.950 . S
H1116 C1142 0.950 . S
H1117 C1144 0.973 . S
H1118 C1147 0.950 . S
H1119 C1148 0.950 . S
H1120 C1150 0.950 . S
H1121 C1151 0.950 . S
C1122 H1104 0.951 . S
C1122 C1123 1.366 . S
C1122 C1124 1.388 . S
C1123 C1122 1.366 . S
C1123 C1127 1.385 . S
C1124 H1105 0.951 . S
C1124 C1122 1.388 . S
C1124 C1125 1.366 . S
C1125 C1124 1.366 . S
C1125 C1126 1.414 . S
C1125 C1128 1.499 . S
C1126 H1106 0.950 . S
C1126 C1125 1.414 . S
C1126 C1127 1.374 . S
C1127 H1107 0.950 . S
C1127 C1123 1.385 . S
C1127 C1126 1.374 . S
C1128 C1125 1.499 . S
C1128 C1129 1.373 . S
C1128 C1130 1.389 . S
C1129 H1108 0.950 . S
C1129 C1128 1.373 . S
C1129 C1145 1.377 . S
C1130 C1128 1.389 . S
C1130 C1131 1.524 . S
C1130 C1144 1.377 . S
C1131 C1130 1.524 . S
C1131 C1132 1.397 . S
C1131 C1136 1.363 . S
C1132 H1109 0.950 . S
C1132 C1131 1.397 . S
C1132 C1133 1.334 . S
C1133 H1110 0.950 . S
C1133 C1132 1.334 . S
C1133 C1134 1.280 1_556 S
C1134 C1133 1.280 1_554 S
C1134 C1135 1.526 . S
C1134 H1153 0.917 . S
C1135 H1111 0.950 . S
C1135 C1134 1.526 . S
C1135 C1136 1.415 1_554 S
C1136 H1112 0.950 . S
C1136 C1131 1.363 . S
C1136 C1135 1.415 1_556 S
C1137 H1113 0.951 . S
C1137 C1138 1.366 . S
C1137 C1139 1.388 1_554 S
C1138 C1137 1.366 . S
C1138 C1142 1.385 . S
C1139 H1114 0.951 . S
C1139 C1137 1.388 1_556 S
C1139 C1140 1.366 . S
C1140 C1139 1.366 . S
C1140 C1141 1.414 1_556 S
C1140 C1143 1.499 . S
C1141 H1115 0.950 . S
C1141 C1140 1.414 1_554 S
C1141 C1142 1.374 . S
C1142 H1116 0.950 . S
C1142 C1138 1.385 . S
C1142 C1141 1.374 . S
C1143 C1140 1.499 . S
C1143 C1144 1.373 . S
C1143 C1145 1.389 . S
C1144 H1117 0.973 . S
C1144 C1130 1.377 . S
C1144 C1143 1.373 . S
C1145 C1129 1.377 . S
C1145 C1143 1.389 . S
C1145 C1146 1.524 . S
C1146 C1145 1.524 . S
C1146 C1147 1.397 . S
C1146 C1151 1.363 . S
C1147 H1118 0.950 . S
C1147 C1146 1.397 . S
C1147 C1148 1.334 . S
C1148 H1119 0.950 . S
C1148 C1147 1.334 . S
C1148 C1149 1.287 . S
C1149 C1148 1.287 . S
C1149 C1150 1.524 . S
C1149 H1152 0.999 . S
C1150 H1120 0.950 . S
C1150 C1149 1.524 . S
C1150 C1151 1.415 . S
C1151 H1121 0.950 . S
C1151 C1146 1.363 . S
C1151 C1150 1.415 . S
H1152 C1149 0.999 . S
H1153 C1134 0.917 . S
H1154 C1172 0.951 . S
H1155 C1174 0.951 . S
H1156 C1176 0.950 . S
H1157 C1177 0.950 . S
H1158 C1179 0.950 . S
H1159 C1182 0.950 . S
H1160 C1183 0.950 . S
H1161 C1185 0.950 . S
H1162 C1186 0.950 1_556 S
H1163 C1187 0.951 . S
H1164 C1189 0.951 . S
H1165 C1191 0.950 . S
H1166 C1192 0.950 . S
H1167 C1194 0.950 . S
H1168 C1197 0.950 . S
H1169 C1198 0.950 . S
H1170 C1200 0.950 . S
H1171 C1201 0.950 . S
C1172 H1154 0.951 . S
C1172 C1173 1.366 . S
C1172 C1174 1.388 . S
C1173 C1172 1.366 . S
C1173 C1177 1.385 . S
C1174 H1155 0.951 . S
C1174 C1172 1.388 . S
C1174 C1175 1.366 1_554 S
C1175 C1174 1.366 1_556 S
C1175 C1176 1.414 . S
C1175 C1178 1.499 . S
C1176 H1156 0.950 . S
C1176 C1175 1.414 . S
C1176 C1177 1.374 1_556 S
C1177 H1157 0.950 . S
C1177 C1173 1.385 . S
C1177 C1176 1.374 1_554 S
C1178 C1175 1.499 . S
C1178 C1179 1.373 . S
C1178 C1180 1.389 . S
C1179 H1158 0.950 . S
C1179 C1178 1.373 . S
C1179 C1195 1.377 . S
C1180 C1178 1.389 . S
C1180 C1181 1.524 1_556 S
C1180 C1194 1.377 . S
C1181 C1180 1.524 1_554 S
C1181 C1182 1.397 . S
C1181 C1186 1.363 . S
C1182 H1159 0.950 . S
C1182 C1181 1.397 . S
C1182 C1183 1.334 . S
C1183 H1160 0.950 . S
C1183 C1182 1.334 . S
C1183 C1184 1.287 . S
C1184 C1183 1.287 . S
C1184 C1185 1.524 . S
C1184 H1203 0.913 . S
C1185 H1161 0.950 . S
C1185 C1184 1.524 . S
C1185 C1186 1.415 . S
C1186 H1162 0.950 1_554 S
C1186 C1181 1.363 . S
C1186 C1185 1.415 . S
C1187 H1163 0.951 . S
C1187 C1188 1.366 . S
C1187 C1189 1.388 . S
C1188 C1187 1.366 . S
C1188 C1192 1.385 . S
C1189 H1164 0.951 . S
C1189 C1187 1.388 . S
C1189 C1190 1.366 . S
C1190 C1189 1.366 . S
C1190 C1191 1.414 . S
C1190 C1193 1.499 . S
C1191 H1165 0.950 . S
C1191 C1190 1.414 . S
C1191 C1192 1.374 . S
C1192 H1166 0.950 . S
C1192 C1188 1.385 . S
C1192 C1191 1.374 . S
C1193 C1190 1.499 . S
C1193 C1194 1.373 . S
C1193 C1195 1.389 . S
C1194 H1167 0.950 . S
C1194 C1180 1.377 . S
C1194 C1193 1.373 . S
C1195 C1179 1.377 . S
C1195 C1193 1.389 . S
C1195 C1196 1.524 . S
C1196 C1195 1.524 . S
C1196 C1197 1.397 . S
C1196 C1201 1.363 . S
C1197 H1168 0.950 . S
C1197 C1196 1.397 . S
C1197 C1198 1.334 . S
C1198 H1169 0.950 . S
C1198 C1197 1.334 . S
C1198 C1199 1.287 . S
C1199 C1198 1.287 . S
C1199 C1200 1.524 . S
C1199 H1202 0.999 . S
C1200 H1170 0.950 . S
C1200 C1199 1.524 . S
C1200 C1201 1.415 . S
C1201 H1171 0.950 . S
C1201 C1196 1.363 . S
C1201 C1200 1.415 . S
H1202 C1199 0.999 . S
H1203 C1184 0.913 . S
H1204 C1222 0.951 . S
H1205 C1224 0.951 . S
H1206 C1226 0.950 . S
H1207 C1227 0.950 . S
H1208 C1229 0.950 . S
H1209 C1232 0.950 . S
H1210 C1233 0.950 . S
H1211 C1235 0.950 . S
H1212 C1236 0.950 . S
H1213 C1237 0.951 . S
H1214 C1239 0.951 . S
H1215 C1241 0.950 . S
H1216 C1242 0.950 1_556 S
H1217 C1244 0.950 . S
H1218 C1247 0.950 . S
H1219 C1248 0.950 . S
H1220 C1250 0.950 . S
H1221 C1251 0.950 . S
C1222 H1204 0.951 . S
C1222 C1223 1.366 . S
C1222 C1224 1.388 . S
C1223 C1222 1.366 . S
C1223 C1227 1.385 . S
C1224 H1205 0.951 . S
C1224 C1222 1.388 . S
C1224 C1225 1.366 . S
C1225 C1224 1.366 . S
C1225 C1226 1.414 . S
C1225 C1228 1.499 . S
C1226 H1206 0.950 . S
C1226 C1225 1.414 . S
C1226 C1227 1.374 . S
C1227 H1207 0.950 . S
C1227 C1223 1.385 . S
C1227 C1226 1.374 . S
C1228 C1225 1.499 . S
C1228 C1229 1.373 . S
C1228 C1230 1.389 . S
C1229 H1208 0.950 . S
C1229 C1228 1.373 . S
C1229 C1245 1.377 . S
C1230 C1228 1.389 . S
C1230 C1231 1.524 . S
C1230 C1244 1.377 . S
C1231 C1230 1.524 . S
C1231 C1232 1.397 . S
C1231 C1236 1.363 . S
C1232 H1209 0.950 . S
C1232 C1231 1.397 . S
C1232 C1233 1.334 . S
C1233 H1210 0.950 . S
C1233 C1232 1.334 . S
C1233 C1234 1.287 . S
C1234 C1233 1.287 . S
C1234 C1235 1.524 . S
C1234 H1253 0.913 . S
C1235 H1211 0.950 . S
C1235 C1234 1.524 . S
C1235 C1236 1.415 . S
C1236 H1212 0.950 . S
C1236 C1231 1.363 . S
C1236 C1235 1.415 . S
C1237 H1213 0.951 . S
C1237 C1238 1.366 . S
C1237 C1239 1.388 . S
C1238 C1237 1.366 . S
C1238 C1242 1.385 . S
C1239 H1214 0.951 . S
C1239 C1237 1.388 . S
C1239 C1240 1.366 1_554 S
C1240 C1239 1.366 1_556 S
C1240 C1241 1.414 . S
C1240 C1243 1.499 . S
C1241 H1215 0.950 . S
C1241 C1240 1.414 . S
C1241 C1242 1.374 1_556 S
C1242 H1216 0.950 1_554 S
C1242 C1238 1.385 . S
C1242 C1241 1.374 1_554 S
C1243 C1240 1.499 . S
C1243 C1244 1.373 . S
C1243 C1245 1.389 . S
C1244 H1217 0.950 . S
C1244 C1230 1.377 . S
C1244 C1243 1.373 . S
C1245 C1229 1.377 . S
C1245 C1243 1.389 . S
C1245 C1246 1.524 . S
C1246 C1245 1.524 . S
C1246 C1247 1.397 . S
C1246 C1251 1.363 1_556 S
C1247 H1218 0.950 . S
C1247 C1246 1.397 . S
C1247 C1248 1.334 1_556 S
C1248 H1219 0.950 . S
C1248 C1247 1.334 1_554 S
C1248 C1249 1.287 . S
C1249 C1248 1.287 . S
C1249 C1250 1.524 . S
C1249 H1252 0.999 . S
C1250 H1220 0.950 . S
C1250 C1249 1.524 . S
C1250 C1251 1.415 . S
C1251 H1221 0.950 . S
C1251 C1246 1.363 1_554 S
C1251 C1250 1.415 . S
H1252 C1249 0.999 . S
H1253 C1234 0.913 . S
H1254 C1272 0.951 . S
H1255 C1274 0.951 . S
H1256 C1276 0.950 . S
H1257 C1277 0.950 . S
H1258 C1279 0.950 . S
H1259 C1282 0.950 . S
H1260 C1283 0.950 . S
H1261 C1285 0.950 . S
H1262 C1286 0.950 . S
H1263 C1287 0.951 . S
H1264 C1289 0.951 . S
H1265 C1291 0.950 . S
H1266 C1292 0.950 . S
H1267 C1294 0.950 . S
H1268 C1297 0.950 . S
H1269 C1298 0.950 . S
H1270 C1300 0.950 . S
H1271 C1301 0.950 . S
C1272 H1254 0.951 . S
C1272 C1273 1.366 . S
C1272 C1274 1.388 . S
C1273 C1272 1.366 . S
C1273 C1277 1.385 . S
C1274 H1255 0.951 . S
C1274 C1272 1.388 . S
C1274 C1275 1.366 . S
C1275 C1274 1.366 . S
C1275 C1276 1.414 . S
C1275 C1278 1.499 . S
C1276 H1256 0.950 . S
C1276 C1275 1.414 . S
C1276 C1277 1.374 . S
C1277 H1257 0.950 . S
C1277 C1273 1.385 . S
C1277 C1276 1.374 . S
C1278 C1275 1.499 . S
C1278 C1279 1.373 . S
C1278 C1280 1.389 . S
C1279 H1258 0.950 . S
C1279 C1278 1.373 . S
C1279 C1295 1.377 . S
C1280 C1278 1.389 . S
C1280 C1281 1.524 . S
C1280 C1294 1.377 . S
C1281 C1280 1.524 . S
C1281 C1282 1.397 . S
C1281 C1286 1.363 . S
C1282 H1259 0.950 . S
C1282 C1281 1.397 . S
C1282 C1283 1.334 . S
C1283 H1260 0.950 . S
C1283 C1282 1.334 . S
C1283 C1284 1.287 . S
C1284 C1283 1.287 . S
C1284 C1285 1.524 . S
C1284 H1303 0.913 . S
C1285 H1261 0.950 . S
C1285 C1284 1.524 . S
C1285 C1286 1.415 . S
C1286 H1262 0.950 . S
C1286 C1281 1.363 . S
C1286 C1285 1.415 . S
C1287 H1263 0.951 . S
C1287 C1288 1.366 . S
C1287 C1289 1.388 . S
C1288 C1287 1.366 . S
C1288 C1292 1.385 . S
C1289 H1264 0.951 . S
C1289 C1287 1.388 . S
C1289 C1290 1.366 . S
C1290 C1289 1.366 . S
C1290 C1291 1.414 . S
C1290 C1293 1.499 . S
C1291 H1265 0.950 . S
C1291 C1290 1.414 . S
C1291 C1292 1.374 . S
C1292 H1266 0.950 . S
C1292 C1288 1.385 . S
C1292 C1291 1.374 . S
C1293 C1290 1.499 . S
C1293 C1294 1.373 . S
C1293 C1295 1.389 . S
C1294 H1267 0.950 . S
C1294 C1280 1.377 . S
C1294 C1293 1.373 . S
C1295 C1279 1.377 . S
C1295 C1293 1.389 . S
C1295 C1296 1.524 . S
C1296 C1295 1.524 . S
C1296 C1297 1.397 . S
C1296 C1301 1.363 . S
C1297 H1268 0.950 . S
C1297 C1296 1.397 . S
C1297 C1298 1.334 . S
C1298 H1269 0.950 . S
C1298 C1297 1.334 . S
C1298 C1299 1.287 . S
C1299 C1298 1.287 . S
C1299 C1300 1.524 . S
C1299 H1302 0.999 . S
C1300 H1270 0.950 . S
C1300 C1299 1.524 . S
C1300 C1301 1.415 . S
C1301 H1271 0.950 . S
C1301 C1296 1.363 . S
C1301 C1300 1.415 . S
H1302 C1299 0.999 . S
H1303 C1284 0.913 . S
H1304 C1322 0.951 . S
H1305 C1324 0.951 . S
H1306 C1326 0.950 . S
H1307 C1327 0.950 . S
H1308 C1329 0.950 . S
H1309 C1332 0.950 . S
H1310 C1333 0.950 . S
H1311 C1335 0.950 . S
H1312 C1336 0.950 . S
H1313 C1337 0.951 . S
H1314 C1339 0.951 . S
H1315 C1341 0.950 . S
H1316 C1342 0.950 . S
H1317 C1344 0.950 . S
H1318 C1347 0.950 . S
H1319 C1348 0.950 . S
H1320 C1350 0.950 . S
H1321 C1351 0.950 . S
C1322 H1304 0.951 . S
C1322 C1323 1.366 . S
C1322 C1324 1.388 . S
C1323 C1322 1.366 . S
C1323 C1327 1.385 . S
C1324 H1305 0.951 . S
C1324 C1322 1.388 . S
C1324 C1325 1.366 . S
C1325 C1324 1.366 . S
C1325 C1326 1.414 . S
C1325 C1328 1.499 . S
C1326 H1306 0.950 . S
C1326 C1325 1.414 . S
C1326 C1327 1.374 . S
C1327 H1307 0.950 . S
C1327 C1323 1.385 . S
C1327 C1326 1.374 . S
C1328 C1325 1.499 . S
C1328 C1329 1.373 . S
C1328 C1330 1.389 . S
C1329 H1308 0.950 . S
C1329 C1328 1.373 . S
C1329 C1345 1.377 . S
C1330 C1328 1.389 . S
C1330 C1331 1.524 . S
C1330 C1344 1.377 . S
C1331 C1330 1.524 . S
C1331 C1332 1.397 . S
C1331 C1336 1.363 . S
C1332 H1309 0.950 . S
C1332 C1331 1.397 . S
C1332 C1333 1.334 . S
C1333 H1310 0.950 . S
C1333 C1332 1.334 . S
C1333 C1334 1.287 . S
C1334 C1333 1.287 . S
C1334 C1335 1.524 . S
C1334 H1353 0.913 . S
C1335 H1311 0.950 . S
C1335 C1334 1.524 . S
C1335 C1336 1.415 . S
C1336 H1312 0.950 . S
C1336 C1331 1.363 . S
C1336 C1335 1.415 . S
C1337 H1313 0.951 . S
C1337 C1338 1.366 . S
C1337 C1339 1.388 . S
C1338 C1337 1.366 . S
C1338 C1342 1.385 . S
C1339 H1314 0.951 . S
C1339 C1337 1.388 . S
C1339 C1340 1.366 . S
C1340 C1339 1.366 . S
C1340 C1341 1.414 . S
C1340 C1343 1.499 . S
C1341 H1315 0.950 . S
C1341 C1340 1.414 . S
C1341 C1342 1.374 . S
C1342 H1316 0.950 . S
C1342 C1338 1.385 . S
C1342 C1341 1.374 . S
C1343 C1340 1.499 . S
C1343 C1344 1.373 . S
C1343 C1345 1.389 . S
C1344 H1317 0.950 . S
C1344 C1330 1.377 . S
C1344 C1343 1.373 . S
C1345 C1329 1.377 . S
C1345 C1343 1.389 . S
C1345 C1346 1.524 . S
C1346 C1345 1.524 . S
C1346 C1347 1.397 . S
C1346 C1351 1.363 . S
C1347 H1318 0.950 . S
C1347 C1346 1.397 . S
C1347 C1348 1.334 . S
C1348 H1319 0.950 . S
C1348 C1347 1.334 . S
C1348 C1349 1.287 . S
C1349 C1348 1.287 . S
C1349 C1350 1.524 . S
C1349 H1352 0.999 . S
C1350 H1320 0.950 . S
C1350 C1349 1.524 . S
C1350 C1351 1.415 . S
C1351 H1321 0.950 . S
C1351 C1346 1.363 . S
C1351 C1350 1.415 . S
H1352 C1349 0.999 . S
H1353 C1334 0.913 . S
H1354 C1372 0.951 . S
H1355 C1374 0.951 . S
H1356 C1376 0.950 . S
H1357 C1377 0.950 . S
H1358 C1379 0.950 . S
H1359 C1382 0.950 . S
H1360 C1383 0.950 . S
H1361 C1385 0.950 . S
H1362 C1386 0.950 . S
H1363 C1387 0.951 . S
H1364 C1389 0.951 . S
H1365 C1391 0.950 . S
H1366 C1392 0.950 . S
H1367 C1394 0.950 . S
H1368 C1397 0.950 . S
H1369 C1398 0.950 . S
H1370 C1400 0.950 . S
H1371 C1401 0.950 . S
C1372 H1354 0.951 . S
C1372 C1373 1.366 . S
C1372 C1374 1.388 . S
C1373 C1372 1.366 . S
C1373 C1377 1.385 . S
C1374 H1355 0.951 . S
C1374 C1372 1.388 . S
C1374 C1375 1.366 . S
C1375 C1374 1.366 . S
C1375 C1376 1.414 . S
C1375 C1378 1.499 . S
C1376 H1356 0.950 . S
C1376 C1375 1.414 . S
C1376 C1377 1.374 . S
C1377 H1357 0.950 . S
C1377 C1373 1.385 . S
C1377 C1376 1.374 . S
C1378 C1375 1.499 . S
C1378 C1379 1.373 . S
C1378 C1380 1.389 . S
C1379 H1358 0.950 . S
C1379 C1378 1.373 . S
C1379 C1395 1.377 . S
C1380 C1378 1.389 . S
C1380 C1381 1.524 . S
C1380 C1394 1.377 . S
C1381 C1380 1.524 . S
C1381 C1382 1.397 . S
C1381 C1386 1.363 . S
C1382 H1359 0.950 . S
C1382 C1381 1.397 . S
C1382 C1383 1.334 . S
C1383 H1360 0.950 . S
C1383 C1382 1.334 . S
C1383 C1384 1.287 . S
C1384 C1383 1.287 . S
C1384 C1385 1.524 . S
C1384 H1403 0.913 . S
C1385 H1361 0.950 . S
C1385 C1384 1.524 . S
C1385 C1386 1.415 . S
C1386 H1362 0.950 . S
C1386 C1381 1.363 . S
C1386 C1385 1.415 . S
C1387 H1363 0.951 . S
C1387 C1388 1.366 . S
C1387 C1389 1.388 . S
C1388 C1387 1.366 . S
C1388 C1392 1.385 . S
C1389 H1364 0.951 . S
C1389 C1387 1.388 . S
C1389 C1390 1.366 . S
C1390 C1389 1.366 . S
C1390 C1391 1.414 . S
C1390 C1393 1.499 . S
C1391 H1365 0.950 . S
C1391 C1390 1.414 . S
C1391 C1392 1.374 . S
C1392 H1366 0.950 . S
C1392 C1388 1.385 . S
C1392 C1391 1.374 . S
C1393 C1390 1.499 . S
C1393 C1394 1.373 . S
C1393 C1395 1.389 . S
C1394 H1367 0.950 . S
C1394 C1380 1.377 . S
C1394 C1393 1.373 . S
C1395 C1379 1.377 . S
C1395 C1393 1.389 . S
C1395 C1396 1.524 . S
C1396 C1395 1.524 . S
C1396 C1397 1.397 . S
C1396 C1401 1.363 . S
C1397 H1368 0.950 . S
C1397 C1396 1.397 . S
C1397 C1398 1.334 . S
C1398 H1369 0.950 . S
C1398 C1397 1.334 . S
C1398 C1399 1.287 . S
C1399 C1398 1.287 . S
C1399 C1400 1.524 . S
C1399 H1402 0.999 . S
C1400 H1370 0.950 . S
C1400 C1399 1.524 . S
C1400 C1401 1.415 . S
C1401 H1371 0.950 . S
C1401 C1396 1.363 . S
C1401 C1400 1.415 . S
H1402 C1399 0.999 . S
H1403 C1384 0.913 . S
H1404 C1422 0.951 . S
H1405 C1424 0.951 . S
H1406 C1426 0.950 . S
H1407 C1427 0.950 . S
H1408 C1429 0.950 . S
H1409 C1432 0.950 . S
H1410 C1433 0.950 . S
H1411 C1435 0.950 . S
H1412 C1436 0.950 . S
H1413 C1437 0.951 . S
H1414 C1439 0.951 . S
H1415 C1441 0.950 . S
H1416 C1442 0.950 . S
H1417 C1444 0.950 . S
H1418 C1447 0.950 . S
H1419 C1448 0.950 . S
H1420 C1450 0.950 . S
H1421 C1451 0.950 . S
C1422 H1404 0.951 . S
C1422 C1423 1.366 . S
C1422 C1424 1.388 . S
C1423 C1422 1.366 . S
C1423 C1427 1.385 . S
C1424 H1405 0.951 . S
C1424 C1422 1.388 . S
C1424 C1425 1.366 . S
C1425 C1424 1.366 . S
C1425 C1426 1.414 . S
C1425 C1428 1.499 . S
C1426 H1406 0.950 . S
C1426 C1425 1.414 . S
C1426 C1427 1.374 . S
C1427 H1407 0.950 . S
C1427 C1423 1.385 . S
C1427 C1426 1.374 . S
C1428 C1425 1.499 . S
C1428 C1429 1.373 . S
C1428 C1430 1.389 . S
C1429 H1408 0.950 . S
C1429 C1428 1.373 . S
C1429 C1445 1.377 . S
C1430 C1428 1.389 . S
C1430 C1431 1.524 . S
C1430 C1444 1.377 . S
C1431 C1430 1.524 . S
C1431 C1432 1.397 . S
C1431 C1436 1.363 . S
C1432 H1409 0.950 . S
C1432 C1431 1.397 . S
C1432 C1433 1.334 . S
C1433 H1410 0.950 . S
C1433 C1432 1.334 . S
C1433 C1434 1.287 . S
C1434 C1433 1.287 . S
C1434 C1435 1.524 . S
C1434 H1453 0.913 . S
C1435 H1411 0.950 . S
C1435 C1434 1.524 . S
C1435 C1436 1.415 . S
C1436 H1412 0.950 . S
C1436 C1431 1.363 . S
C1436 C1435 1.415 . S
C1437 H1413 0.951 . S
C1437 C1438 1.366 . S
C1437 C1439 1.388 . S
C1438 C1437 1.366 . S
C1438 C1442 1.385 . S
C1439 H1414 0.951 . S
C1439 C1437 1.388 . S
C1439 C1440 1.366 . S
C1440 C1439 1.366 . S
C1440 C1441 1.414 . S
C1440 C1443 1.499 . S
C1441 H1415 0.950 . S
C1441 C1440 1.414 . S
C1441 C1442 1.374 . S
C1442 H1416 0.950 . S
C1442 C1438 1.385 . S
C1442 C1441 1.374 . S
C1443 C1440 1.499 . S
C1443 C1444 1.373 . S
C1443 C1445 1.389 . S
C1444 H1417 0.950 . S
C1444 C1430 1.377 . S
C1444 C1443 1.373 . S
C1445 C1429 1.377 . S
C1445 C1443 1.389 . S
C1445 C1446 1.524 . S
C1446 C1445 1.524 . S
C1446 C1447 1.397 . S
C1446 C1451 1.363 . S
C1447 H1418 0.950 . S
C1447 C1446 1.397 . S
C1447 C1448 1.334 . S
C1448 H1419 0.950 . S
C1448 C1447 1.334 . S
C1448 C1449 1.287 . S
C1449 C1448 1.287 . S
C1449 C1450 1.524 . S
C1449 H1452 0.999 . S
C1450 H1420 0.950 . S
C1450 C1449 1.524 . S
C1450 C1451 1.415 . S
C1451 H1421 0.950 . S
C1451 C1446 1.363 . S
C1451 C1450 1.415 . S
H1452 C1449 0.999 . S
H1453 C1434 0.913 . S
H1454 C1472 0.951 . S
H1455 C1474 0.951 . S
H1456 C1476 0.950 . S
H1457 C1477 0.950 . S
H1458 C1479 0.950 . S
H1459 C1482 0.950 . S
H1460 C1483 0.950 . S
H1461 C1485 0.950 . S
H1462 C1486 0.950 . S
H1463 C1487 0.951 . S
H1464 C1489 0.951 . S
H1465 C1491 0.950 . S
H1466 C1492 0.950 . S
H1467 C1494 0.950 . S
H1468 C1497 0.950 . S
H1469 C1498 0.950 . S
H1470 C1500 0.950 . S
H1471 C1501 0.950 . S
C1472 H1454 0.951 . S
C1472 C1473 1.366 . S
C1472 C1474 1.388 . S
C1473 C1472 1.366 . S
C1473 C1477 1.385 . S
C1474 H1455 0.951 . S
C1474 C1472 1.388 . S
C1474 C1475 1.366 . S
C1475 C1474 1.366 . S
C1475 C1476 1.414 . S
C1475 C1478 1.499 . S
C1476 H1456 0.950 . S
C1476 C1475 1.414 . S
C1476 C1477 1.374 . S
C1477 H1457 0.950 . S
C1477 C1473 1.385 . S
C1477 C1476 1.374 . S
C1478 C1475 1.499 . S
C1478 C1479 1.373 . S
C1478 C1480 1.389 . S
C1479 H1458 0.950 . S
C1479 C1478 1.373 . S
C1479 C1495 1.377 . S
C1480 C1478 1.389 . S
C1480 C1481 1.524 . S
C1480 C1494 1.377 . S
C1481 C1480 1.524 . S
C1481 C1482 1.397 . S
C1481 C1486 1.363 . S
C1482 H1459 0.950 . S
C1482 C1481 1.397 . S
C1482 C1483 1.334 . S
C1483 H1460 0.950 . S
C1483 C1482 1.334 . S
C1483 C1484 1.287 . S
C1484 C1483 1.287 . S
C1484 C1485 1.524 . S
C1484 H1503 0.913 . S
C1485 H1461 0.950 . S
C1485 C1484 1.524 . S
C1485 C1486 1.415 . S
C1486 H1462 0.950 . S
C1486 C1481 1.363 . S
C1486 C1485 1.415 . S
C1487 H1463 0.951 . S
C1487 C1488 1.366 . S
C1487 C1489 1.388 . S
C1488 C1487 1.366 . S
C1488 C1492 1.385 . S
C1489 H1464 0.951 . S
C1489 C1487 1.388 . S
C1489 C1490 1.366 . S
C1490 C1489 1.366 . S
C1490 C1491 1.414 . S
C1490 C1493 1.499 . S
C1491 H1465 0.950 . S
C1491 C1490 1.414 . S
C1491 C1492 1.374 . S
C1492 H1466 0.950 . S
C1492 C1488 1.385 . S
C1492 C1491 1.374 . S
C1493 C1490 1.499 . S
C1493 C1494 1.373 . S
C1493 C1495 1.389 . S
C1494 H1467 0.950 . S
C1494 C1480 1.377 . S
C1494 C1493 1.373 . S
C1495 C1479 1.377 . S
C1495 C1493 1.389 . S
C1495 C1496 1.524 . S
C1496 C1495 1.524 . S
C1496 C1497 1.397 . S
C1496 C1501 1.363 . S
C1497 H1468 0.950 . S
C1497 C1496 1.397 . S
C1497 C1498 1.334 . S
C1498 H1469 0.950 . S
C1498 C1497 1.334 . S
C1498 C1499 1.287 . S
C1499 C1498 1.287 . S
C1499 C1500 1.524 . S
C1499 H1502 0.999 . S
C1500 H1470 0.950 . S
C1500 C1499 1.524 . S
C1500 C1501 1.415 . S
C1501 H1471 0.950 . S
C1501 C1496 1.363 . S
C1501 C1500 1.415 . S
H1502 C1499 0.999 . S
H1503 C1484 0.913 . S
H1504 C1522 0.951 . S
H1505 C1524 0.951 . S
H1506 C1526 0.950 . S
H1507 C1527 0.950 . S
H1508 C1529 0.950 . S
H1509 C1532 0.950 . S
H1510 C1533 0.950 . S
H1511 C1535 0.950 . S
H1512 C1536 0.950 . S
H1513 C1537 0.951 . S
H1514 C1539 0.951 . S
H1515 C1541 0.950 . S
H1516 C1542 0.950 . S
H1517 C1544 0.950 . S
H1518 C1547 0.950 . S
H1519 C1548 0.950 . S
H1520 C1550 0.950 . S
H1521 C1551 0.950 . S
C1522 H1504 0.951 . S
C1522 C1523 1.366 . S
C1522 C1524 1.388 . S
C1523 C1522 1.366 . S
C1523 C1527 1.385 . S
C1524 H1505 0.951 . S
C1524 C1522 1.388 . S
C1524 C1525 1.366 . S
C1525 C1524 1.366 . S
C1525 C1526 1.414 . S
C1525 C1528 1.499 . S
C1526 H1506 0.950 . S
C1526 C1525 1.414 . S
C1526 C1527 1.374 . S
C1527 H1507 0.950 . S
C1527 C1523 1.385 . S
C1527 C1526 1.374 . S
C1528 C1525 1.499 . S
C1528 C1529 1.373 . S
C1528 C1530 1.389 . S
C1529 H1508 0.950 . S
C1529 C1528 1.373 . S
C1529 C1545 1.377 . S
C1530 C1528 1.389 . S
C1530 C1531 1.524 . S
C1530 C1544 1.377 . S
C1531 C1530 1.524 . S
C1531 C1532 1.397 . S
C1531 C1536 1.363 . S
C1532 H1509 0.950 . S
C1532 C1531 1.397 . S
C1532 C1533 1.334 . S
C1533 H1510 0.950 . S
C1533 C1532 1.334 . S
C1533 C1534 1.287 . S
C1534 C1533 1.287 . S
C1534 C1535 1.524 . S
C1534 H1553 0.913 . S
C1535 H1511 0.950 . S
C1535 C1534 1.524 . S
C1535 C1536 1.415 . S
C1536 H1512 0.950 . S
C1536 C1531 1.363 . S
C1536 C1535 1.415 . S
C1537 H1513 0.951 . S
C1537 C1538 1.366 . S
C1537 C1539 1.388 . S
C1538 C1537 1.366 . S
C1538 C1542 1.385 . S
C1539 H1514 0.951 . S
C1539 C1537 1.388 . S
C1539 C1540 1.366 . S
C1540 C1539 1.366 . S
C1540 C1541 1.414 . S
C1540 C1543 1.499 . S
C1541 H1515 0.950 . S
C1541 C1540 1.414 . S
C1541 C1542 1.374 . S
C1542 H1516 0.950 . S
C1542 C1538 1.385 . S
C1542 C1541 1.374 . S
C1543 C1540 1.499 . S
C1543 C1544 1.373 . S
C1543 C1545 1.389 . S
C1544 H1517 0.950 . S
C1544 C1530 1.377 . S
C1544 C1543 1.373 . S
C1545 C1529 1.377 . S
C1545 C1543 1.389 . S
C1545 C1546 1.524 . S
C1546 C1545 1.524 . S
C1546 C1547 1.397 . S
C1546 C1551 1.363 . S
C1547 H1518 0.950 . S
C1547 C1546 1.397 . S
C1547 C1548 1.334 . S
C1548 H1519 0.950 . S
C1548 C1547 1.334 . S
C1548 C1549 1.287 . S
C1549 C1548 1.287 . S
C1549 C1550 1.524 . S
C1549 H1552 0.999 . S
C1550 H1520 0.950 . S
C1550 C1549 1.524 . S
C1550 C1551 1.415 . S
C1551 H1521 0.950 . S
C1551 C1546 1.363 . S
C1551 C1550 1.415 . S
H1552 C1549 0.999 . S
H1553 C1534 0.913 . S
H1554 C1572 0.951 . S
H1555 C1574 0.951 . S
H1556 C1576 0.950 . S
H1557 C1577 0.950 . S
H1558 C1579 0.950 . S
H1559 C1582 0.950 . S
H1560 C1583 0.950 . S
H1561 C1585 0.950 . S
H1562 C1586 0.950 . S
H1563 C1587 0.951 . S
H1564 C1589 0.951 . S
H1565 C1591 0.950 . S
H1566 C1592 0.950 . S
H1567 C1594 0.950 . S
H1568 C1597 0.950 . S
H1569 C1598 0.950 . S
H1570 C1600 0.950 . S
H1571 C1601 0.950 . S
C1572 H1554 0.951 . S
C1572 C1573 1.366 . S
C1572 C1574 1.388 . S
C1573 C1572 1.366 . S
C1573 C1577 1.385 . S
C1574 H1555 0.951 . S
C1574 C1572 1.388 . S
C1574 C1575 1.366 . S
C1575 C1574 1.366 . S
C1575 C1576 1.414 . S
C1575 C1578 1.499 . S
C1576 H1556 0.950 . S
C1576 C1575 1.414 . S
C1576 C1577 1.374 . S
C1577 H1557 0.950 . S
C1577 C1573 1.385 . S
C1577 C1576 1.374 . S
C1578 C1575 1.499 . S
C1578 C1579 1.373 . S
C1578 C1580 1.389 . S
C1579 H1558 0.950 . S
C1579 C1578 1.373 . S
C1579 C1595 1.377 . S
C1580 C1578 1.389 . S
C1580 C1581 1.524 . S
C1580 C1594 1.377 . S
C1581 C1580 1.524 . S
C1581 C1582 1.397 . S
C1581 C1586 1.363 . S
C1582 H1559 0.950 . S
C1582 C1581 1.397 . S
C1582 C1583 1.334 . S
C1583 H1560 0.950 . S
C1583 C1582 1.334 . S
C1583 C1584 1.287 . S
C1584 C1583 1.287 . S
C1584 C1585 1.524 . S
C1584 H1603 0.913 . S
C1585 H1561 0.950 . S
C1585 C1584 1.524 . S
C1585 C1586 1.415 . S
C1586 H1562 0.950 . S
C1586 C1581 1.363 . S
C1586 C1585 1.415 . S
C1587 H1563 0.951 . S
C1587 C1588 1.366 . S
C1587 C1589 1.388 . S
C1588 C1587 1.366 . S
C1588 C1592 1.385 . S
C1589 H1564 0.951 . S
C1589 C1587 1.388 . S
C1589 C1590 1.366 . S
C1590 C1589 1.366 . S
C1590 C1591 1.414 . S
C1590 C1593 1.499 . S
C1591 H1565 0.950 . S
C1591 C1590 1.414 . S
C1591 C1592 1.374 . S
C1592 H1566 0.950 . S
C1592 C1588 1.385 . S
C1592 C1591 1.374 . S
C1593 C1590 1.499 . S
C1593 C1594 1.373 . S
C1593 C1595 1.389 . S
C1594 H1567 0.950 . S
C1594 C1580 1.377 . S
C1594 C1593 1.373 . S
C1595 C1579 1.377 . S
C1595 C1593 1.389 . S
C1595 C1596 1.524 . S
C1596 C1595 1.524 . S
C1596 C1597 1.397 . S
C1596 C1601 1.363 . S
C1597 H1568 0.950 . S
C1597 C1596 1.397 . S
C1597 C1598 1.334 . S
C1598 H1569 0.950 . S
C1598 C1597 1.334 . S
C1598 C1599 1.287 . S
C1599 C1598 1.287 . S
C1599 C1600 1.524 . S
C1599 H1602 0.999 . S
C1600 H1570 0.950 . S
C1600 C1599 1.524 . S
C1600 C1601 1.415 . S
C1601 H1571 0.950 . S
C1601 C1596 1.363 . S
C1601 C1600 1.415 . S
H1602 C1599 0.999 . S
H1603 C1584 0.913 . S
H1604 C1622 0.951 . S
H1605 C1624 0.951 . S
H1606 C1626 0.950 . S
H1607 C1627 0.950 . S
H1608 C1629 0.950 . S
H1609 C1632 0.950 . S
H1610 C1633 0.950 . S
H1611 C1635 0.950 . S
H1612 C1636 0.950 . S
H1613 C1637 0.951 . S
H1614 C1639 0.951 . S
H1615 C1641 0.950 . S
H1616 C1642 0.950 . S
H1617 C1644 0.950 . S
H1618 C1647 0.950 . S
H1619 C1648 0.950 . S
H1620 C1650 0.950 . S
H1621 C1651 0.950 . S
C1622 H1604 0.951 . S
C1622 C1623 1.366 . S
C1622 C1624 1.388 . S
C1623 C1622 1.366 . S
C1623 C1627 1.385 . S
C1624 H1605 0.951 . S
C1624 C1622 1.388 . S
C1624 C1625 1.366 . S
C1625 C1624 1.366 . S
C1625 C1626 1.414 . S
C1625 C1628 1.499 . S
C1626 H1606 0.950 . S
C1626 C1625 1.414 . S
C1626 C1627 1.374 . S
C1627 H1607 0.950 . S
C1627 C1623 1.385 . S
C1627 C1626 1.374 . S
C1628 C1625 1.499 . S
C1628 C1629 1.373 . S
C1628 C1630 1.389 . S
C1629 H1608 0.950 . S
C1629 C1628 1.373 . S
C1629 C1645 1.377 . S
C1630 C1628 1.389 . S
C1630 C1631 1.524 . S
C1630 C1644 1.377 . S
C1631 C1630 1.524 . S
C1631 C1632 1.397 . S
C1631 C1636 1.363 . S
C1632 H1609 0.950 . S
C1632 C1631 1.397 . S
C1632 C1633 1.334 . S
C1633 H1610 0.950 . S
C1633 C1632 1.334 . S
C1633 C1634 1.287 . S
C1634 C1633 1.287 . S
C1634 C1635 1.524 . S
C1634 H1653 0.913 . S
C1635 H1611 0.950 . S
C1635 C1634 1.524 . S
C1635 C1636 1.415 . S
C1636 H1612 0.950 . S
C1636 C1631 1.363 . S
C1636 C1635 1.415 . S
C1637 H1613 0.951 . S
C1637 C1638 1.366 . S
C1637 C1639 1.388 . S
C1638 C1637 1.366 . S
C1638 C1642 1.385 . S
C1639 H1614 0.951 . S
C1639 C1637 1.388 . S
C1639 C1640 1.366 . S
C1640 C1639 1.366 . S
C1640 C1641 1.414 . S
C1640 C1643 1.499 . S
C1641 H1615 0.950 . S
C1641 C1640 1.414 . S
C1641 C1642 1.374 . S
C1642 H1616 0.950 . S
C1642 C1638 1.385 . S
C1642 C1641 1.374 . S
C1643 C1640 1.499 . S
C1643 C1644 1.373 . S
C1643 C1645 1.389 . S
C1644 H1617 0.950 . S
C1644 C1630 1.377 . S
C1644 C1643 1.373 . S
C1645 C1629 1.377 . S
C1645 C1643 1.389 . S
C1645 C1646 1.524 . S
C1646 C1645 1.524 . S
C1646 C1647 1.397 . S
C1646 C1651 1.363 . S
C1647 H1618 0.950 . S
C1647 C1646 1.397 . S
C1647 C1648 1.334 . S
C1648 H1619 0.950 . S
C1648 C1647 1.334 . S
C1648 C1649 1.287 . S
C1649 C1648 1.287 . S
C1649 C1650 1.524 . S
C1649 H1652 0.999 . S
C1650 H1620 0.950 . S
C1650 C1649 1.524 . S
C1650 C1651 1.415 . S
C1651 H1621 0.950 . S
C1651 C1646 1.363 . S
C1651 C1650 1.415 . S
H1652 C1649 0.999 . S
H1653 C1634 0.913 . S
H1654 C1672 0.951 . S
H1655 C1674 0.951 . S
H1656 C1676 0.950 . S
H1657 C1677 0.950 . S
H1658 C1679 0.950 . S
H1659 C1682 0.950 . S
H1660 C1683 0.950 . S
H1661 C1685 0.950 . S
H1662 C1686 0.950 . S
H1663 C1687 0.951 . S
H1664 C1689 0.951 . S
H1665 C1691 0.950 . S
H1666 C1692 0.950 . S
H1667 C1694 0.950 . S
H1668 C1697 0.950 . S
H1669 C1698 0.950 . S
H1670 C1700 0.950 . S
H1671 C1701 0.950 . S
C1672 H1654 0.951 . S
C1672 C1673 1.366 . S
C1672 C1674 1.388 . S
C1673 C1672 1.366 . S
C1673 C1677 1.385 . S
C1674 H1655 0.951 . S
C1674 C1672 1.388 . S
C1674 C1675 1.366 . S
C1675 C1674 1.366 . S
C1675 C1676 1.414 . S
C1675 C1678 1.499 . S
C1676 H1656 0.950 . S
C1676 C1675 1.414 . S
C1676 C1677 1.374 . S
C1677 H1657 0.950 . S
C1677 C1673 1.385 . S
C1677 C1676 1.374 . S
C1678 C1675 1.499 . S
C1678 C1679 1.373 . S
C1678 C1680 1.389 . S
C1679 H1658 0.950 . S
C1679 C1678 1.373 . S
C1679 C1695 1.377 . S
C1680 C1678 1.389 . S
C1680 C1681 1.524 . S
C1680 C1694 1.377 . S
C1681 C1680 1.524 . S
C1681 C1682 1.397 . S
C1681 C1686 1.363 . S
C1682 H1659 0.950 . S
C1682 C1681 1.397 . S
C1682 C1683 1.334 . S
C1683 H1660 0.950 . S
C1683 C1682 1.334 . S
C1683 C1684 1.287 . S
C1684 C1683 1.287 . S
C1684 C1685 1.524 . S
C1684 H1703 0.913 . S
C1685 H1661 0.950 . S
C1685 C1684 1.524 . S
C1685 C1686 1.415 . S
C1686 H1662 0.950 . S
C1686 C1681 1.363 . S
C1686 C1685 1.415 . S
C1687 H1663 0.951 . S
C1687 C1688 1.366 . S
C1687 C1689 1.388 . S
C1688 C1687 1.366 . S
C1688 C1692 1.385 . S
C1689 H1664 0.951 . S
C1689 C1687 1.388 . S
C1689 C1690 1.366 . S
C1690 C1689 1.366 . S
C1690 C1691 1.414 . S
C1690 C1693 1.499 . S
C1691 H1665 0.950 . S
C1691 C1690 1.414 . S
C1691 C1692 1.374 . S
C1692 H1666 0.950 . S
C1692 C1688 1.385 . S
C1692 C1691 1.374 . S
C1693 C1690 1.499 . S
C1693 C1694 1.373 . S
C1693 C1695 1.389 . S
C1694 H1667 0.950 . S
C1694 C1680 1.377 . S
C1694 C1693 1.373 . S
C1695 C1679 1.377 . S
C1695 C1693 1.389 . S
C1695 C1696 1.524 . S
C1696 C1695 1.524 . S
C1696 C1697 1.397 . S
C1696 C1701 1.363 . S
C1697 H1668 0.950 . S
C1697 C1696 1.397 . S
C1697 C1698 1.334 . S
C1698 H1669 0.950 . S
C1698 C1697 1.334 . S
C1698 C1699 1.287 . S
C1699 C1698 1.287 . S
C1699 C1700 1.524 . S
C1699 H1702 0.999 . S
C1700 H1670 0.950 . S
C1700 C1699 1.524 . S
C1700 C1701 1.415 . S
C1701 H1671 0.950 . S
C1701 C1696 1.363 . S
C1701 C1700 1.415 . S
H1702 C1699 0.999 . S
H1703 C1684 0.913 . S
H1704 C1722 0.951 . S
H1705 C1724 0.951 . S
H1706 C1726 0.950 . S
H1707 C1727 0.950 . S
H1708 C1729 0.950 . S
H1709 C1732 0.950 . S
H1710 C1733 0.950 . S
H1711 C1735 0.950 . S
H1712 C1736 0.950 . S
H1713 C1737 0.951 . S
H1714 C1739 0.951 . S
H1715 C1741 0.950 . S
H1716 C1742 0.950 . S
H1717 C1744 0.950 . S
H1718 C1747 0.950 . S
H1719 C1748 0.950 . S
H1720 C1750 0.950 . S
H1721 C1751 0.950 . S
C1722 H1704 0.951 . S
C1722 C1723 1.366 . S
C1722 C1724 1.388 . S
C1723 C1722 1.366 . S
C1723 C1727 1.385 . S
C1724 H1705 0.951 . S
C1724 C1722 1.388 . S
C1724 C1725 1.366 . S
C1725 C1724 1.366 . S
C1725 C1726 1.414 . S
C1725 C1728 1.499 . S
C1726 H1706 0.950 . S
C1726 C1725 1.414 . S
C1726 C1727 1.374 . S
C1727 H1707 0.950 . S
C1727 C1723 1.385 . S
C1727 C1726 1.374 . S
C1728 C1725 1.499 . S
C1728 C1729 1.373 . S
C1728 C1730 1.389 . S
C1729 H1708 0.950 . S
C1729 C1728 1.373 . S
C1729 C1745 1.377 . S
C1730 C1728 1.389 . S
C1730 C1731 1.524 . S
C1730 C1744 1.377 . S
C1731 C1730 1.524 . S
C1731 C1732 1.397 . S
C1731 C1736 1.363 . S
C1732 H1709 0.950 . S
C1732 C1731 1.397 . S
C1732 C1733 1.334 . S
C1733 H1710 0.950 . S
C1733 C1732 1.334 . S
C1733 C1734 1.287 . S
C1734 C1733 1.287 . S
C1734 C1735 1.524 . S
C1734 H1753 0.913 . S
C1735 H1711 0.950 . S
C1735 C1734 1.524 . S
C1735 C1736 1.415 . S
C1736 H1712 0.950 . S
C1736 C1731 1.363 . S
C1736 C1735 1.415 . S
C1737 H1713 0.951 . S
C1737 C1738 1.366 . S
C1737 C1739 1.388 . S
C1738 C1737 1.366 . S
C1738 C1742 1.385 . S
C1739 H1714 0.951 . S
C1739 C1737 1.388 . S
C1739 C1740 1.366 . S
C1740 C1739 1.366 . S
C1740 C1741 1.414 . S
C1740 C1743 1.499 . S
C1741 H1715 0.950 . S
C1741 C1740 1.414 . S
C1741 C1742 1.374 . S
C1742 H1716 0.950 . S
C1742 C1738 1.385 . S
C1742 C1741 1.374 . S
C1743 C1740 1.499 . S
C1743 C1744 1.373 . S
C1743 C1745 1.389 . S
C1744 H1717 0.950 . S
C1744 C1730 1.377 . S
C1744 C1743 1.373 . S
C1745 C1729 1.377 . S
C1745 C1743 1.389 . S
C1745 C1746 1.524 . S
C1746 C1745 1.524 . S
C1746 C1747 1.397 . S
C1746 C1751 1.363 . S
C1747 H1718 0.950 . S
C1747 C1746 1.397 . S
C1747 C1748 1.334 . S
C1748 H1719 0.950 . S
C1748 C1747 1.334 . S
C1748 C1749 1.287 . S
C1749 C1748 1.287 . S
C1749 C1750 1.524 . S
C1749 H1752 0.999 . S
C1750 H1720 0.950 . S
C1750 C1749 1.524 . S
C1750 C1751 1.415 . S
C1751 H1721 0.950 . S
C1751 C1746 1.363 . S
C1751 C1750 1.415 . S
H1752 C1749 0.999 . S
H1753 C1734 0.913 . S
H1754 C1772 0.951 . S
H1755 C1774 0.951 . S
H1756 C1776 0.950 . S
H1757 C1777 0.950 . S
H1758 C1779 0.950 . S
H1759 C1782 0.950 . S
H1760 C1783 0.950 . S
H1761 C1785 0.950 . S
H1762 C1786 0.950 . S
H1763 C1787 0.951 . S
H1764 C1789 0.951 . S
H1765 C1791 0.950 . S
H1766 C1792 0.950 . S
H1767 C1794 0.950 . S
H1768 C1797 0.950 . S
H1769 C1798 0.950 . S
H1770 C1800 0.950 . S
H1771 C1801 0.950 . S
C1772 H1754 0.951 . S
C1772 C1773 1.366 . S
C1772 C1774 1.388 . S
C1773 C1772 1.366 . S
C1773 C1777 1.385 . S
C1774 H1755 0.951 . S
C1774 C1772 1.388 . S
C1774 C1775 1.366 . S
C1775 C1774 1.366 . S
C1775 C1776 1.414 . S
C1775 C1778 1.499 . S
C1776 H1756 0.950 . S
C1776 C1775 1.414 . S
C1776 C1777 1.374 . S
C1777 H1757 0.950 . S
C1777 C1773 1.385 . S
C1777 C1776 1.374 . S
C1778 C1775 1.499 . S
C1778 C1779 1.373 . S
C1778 C1780 1.389 . S
C1779 H1758 0.950 . S
C1779 C1778 1.373 . S
C1779 C1795 1.377 . S
C1780 C1778 1.389 . S
C1780 C1781 1.524 . S
C1780 C1794 1.377 . S
C1781 C1780 1.524 . S
C1781 C1782 1.397 . S
C1781 C1786 1.363 . S
C1782 H1759 0.950 . S
C1782 C1781 1.397 . S
C1782 C1783 1.334 . S
C1783 H1760 0.950 . S
C1783 C1782 1.334 . S
C1783 C1784 1.287 . S
C1784 C1783 1.287 . S
C1784 C1785 1.524 . S
C1784 H1803 0.913 . S
C1785 H1761 0.950 . S
C1785 C1784 1.524 . S
C1785 C1786 1.415 . S
C1786 H1762 0.950 . S
C1786 C1781 1.363 . S
C1786 C1785 1.415 . S
C1787 H1763 0.951 . S
C1787 C1788 1.366 . S
C1787 C1789 1.388 . S
C1788 C1787 1.366 . S
C1788 C1792 1.385 . S
C1789 H1764 0.951 . S
C1789 C1787 1.388 . S
C1789 C1790 1.366 . S
C1790 C1789 1.366 . S
C1790 C1791 1.414 . S
C1790 C1793 1.499 . S
C1791 H1765 0.950 . S
C1791 C1790 1.414 . S
C1791 C1792 1.374 . S
C1792 H1766 0.950 . S
C1792 C1788 1.385 . S
C1792 C1791 1.374 . S
C1793 C1790 1.499 . S
C1793 C1794 1.373 . S
C1793 C1795 1.389 . S
C1794 H1767 0.950 . S
C1794 C1780 1.377 . S
C1794 C1793 1.373 . S
C1795 C1779 1.377 . S
C1795 C1793 1.389 . S
C1795 C1796 1.524 . S
C1796 C1795 1.524 . S
C1796 C1797 1.397 . S
C1796 C1801 1.363 . S
C1797 H1768 0.950 . S
C1797 C1796 1.397 . S
C1797 C1798 1.334 . S
C1798 H1769 0.950 . S
C1798 C1797 1.334 . S
C1798 C1799 1.287 . S
C1799 C1798 1.287 . S
C1799 C1800 1.524 . S
C1799 H1802 0.999 . S
C1800 H1770 0.950 . S
C1800 C1799 1.524 . S
C1800 C1801 1.415 . S
C1801 H1771 0.950 . S
C1801 C1796 1.363 . S
C1801 C1800 1.415 . S
H1802 C1799 0.999 . S
H1803 C1784 0.913 . S
H1804 C1822 0.951 . S
H1805 C1824 0.951 . S
H1806 C1826 0.950 . S
H1807 C1827 0.950 . S
H1808 C1829 0.950 . S
H1809 C1832 0.950 . S
H1810 C1833 0.950 . S
H1811 C1835 0.950 . S
H1812 C1836 0.950 . S
H1813 C1837 0.951 . S
H1814 C1839 0.951 . S
H1815 C1841 0.950 . S
H1816 C1842 0.950 . S
H1817 C1844 0.950 . S
H1818 C1847 0.950 . S
H1819 C1848 0.950 . S
H1820 C1850 0.950 . S
H1821 C1851 0.950 . S
C1822 H1804 0.951 . S
C1822 C1823 1.366 . S
C1822 C1824 1.388 . S
C1823 C1822 1.366 . S
C1823 C1827 1.385 . S
C1824 H1805 0.951 . S
C1824 C1822 1.388 . S
C1824 C1825 1.366 . S
C1825 C1824 1.366 . S
C1825 C1826 1.414 . S
C1825 C1828 1.499 . S
C1826 H1806 0.950 . S
C1826 C1825 1.414 . S
C1826 C1827 1.374 . S
C1827 H1807 0.950 . S
C1827 C1823 1.385 . S
C1827 C1826 1.374 . S
C1828 C1825 1.499 . S
C1828 C1829 1.373 . S
C1828 C1830 1.389 . S
C1829 H1808 0.950 . S
C1829 C1828 1.373 . S
C1829 C1845 1.377 . S
C1830 C1828 1.389 . S
C1830 C1831 1.524 . S
C1830 C1844 1.377 . S
C1831 C1830 1.524 . S
C1831 C1832 1.397 . S
C1831 C1836 1.363 . S
C1832 H1809 0.950 . S
C1832 C1831 1.397 . S
C1832 C1833 1.334 . S
C1833 H1810 0.950 . S
C1833 C1832 1.334 . S
C1833 C1834 1.287 . S
C1834 C1833 1.287 . S
C1834 C1835 1.524 . S
C1834 H1853 0.913 . S
C1835 H1811 0.950 . S
C1835 C1834 1.524 . S
C1835 C1836 1.415 . S
C1836 H1812 0.950 . S
C1836 C1831 1.363 . S
C1836 C1835 1.415 . S
C1837 H1813 0.951 . S
C1837 C1838 1.366 . S
C1837 C1839 1.388 . S
C1838 C1837 1.366 . S
C1838 C1842 1.385 . S
C1839 H1814 0.951 . S
C1839 C1837 1.388 . S
C1839 C1840 1.366 . S
C1840 C1839 1.366 . S
C1840 C1841 1.414 . S
C1840 C1843 1.499 . S
C1841 H1815 0.950 . S
C1841 C1840 1.414 . S
C1841 C1842 1.374 . S
C1842 H1816 0.950 . S
C1842 C1838 1.385 . S
C1842 C1841 1.374 . S
C1843 C1840 1.499 . S
C1843 C1844 1.373 . S
C1843 C1845 1.389 . S
C1844 H1817 0.950 . S
C1844 C1830 1.377 . S
C1844 C1843 1.373 . S
C1845 C1829 1.377 . S
C1845 C1843 1.389 . S
C1845 C1846 1.524 . S
C1846 C1845 1.524 . S
C1846 C1847 1.397 . S
C1846 C1851 1.363 . S
C1847 H1818 0.950 . S
C1847 C1846 1.397 . S
C1847 C1848 1.334 . S
C1848 H1819 0.950 . S
C1848 C1847 1.334 . S
C1848 C1849 1.287 . S
C1849 C1848 1.287 . S
C1849 C1850 1.524 . S
C1849 H1852 0.999 . S
C1850 H1820 0.950 . S
C1850 C1849 1.524 . S
C1850 C1851 1.415 . S
C1851 H1821 0.950 . S
C1851 C1846 1.363 . S
C1851 C1850 1.415 . S
H1852 C1849 0.999 . S
H1853 C1834 0.913 . S
H1854 C1872 0.951 . S
H1855 C1874 0.951 . S
H1856 C1876 0.950 . S
H1857 C1877 0.950 . S
H1858 C1879 0.950 . S
H1859 C1882 0.950 . S
H1860 C1883 0.950 . S
H1861 C1885 0.950 . S
H1862 C1886 0.950 . S
H1863 C1887 0.951 . S
H1864 C1889 0.951 . S
H1865 C1891 0.950 . S
H1866 C1892 0.950 . S
H1867 C1894 0.950 . S
H1868 C1897 0.950 . S
H1869 C1898 0.950 . S
H1870 C1900 0.950 . S
H1871 C1901 0.950 . S
C1872 H1854 0.951 . S
C1872 C1873 1.366 . S
C1872 C1874 1.388 . S
C1873 C1872 1.366 . S
C1873 C1877 1.385 . S
C1874 H1855 0.951 . S
C1874 C1872 1.388 . S
C1874 C1875 1.366 . S
C1875 C1874 1.366 . S
C1875 C1876 1.414 . S
C1875 C1878 1.499 . S
C1876 H1856 0.950 . S
C1876 C1875 1.414 . S
C1876 C1877 1.374 . S
C1877 H1857 0.950 . S
C1877 C1873 1.385 . S
C1877 C1876 1.374 . S
C1878 C1875 1.499 . S
C1878 C1879 1.373 . S
C1878 C1880 1.389 . S
C1879 H1858 0.950 . S
C1879 C1878 1.373 . S
C1879 C1895 1.377 . S
C1880 C1878 1.389 . S
C1880 C1881 1.524 . S
C1880 C1894 1.377 . S
C1881 C1880 1.524 . S
C1881 C1882 1.397 . S
C1881 C1886 1.363 . S
C1882 H1859 0.950 . S
C1882 C1881 1.397 . S
C1882 C1883 1.334 . S
C1883 H1860 0.950 . S
C1883 C1882 1.334 . S
C1883 C1884 1.287 . S
C1884 C1883 1.287 . S
C1884 C1885 1.524 . S
C1884 H1903 0.913 . S
C1885 H1861 0.950 . S
C1885 C1884 1.524 . S
C1885 C1886 1.415 . S
C1886 H1862 0.950 . S
C1886 C1881 1.363 . S
C1886 C1885 1.415 . S
C1887 H1863 0.951 . S
C1887 C1888 1.366 . S
C1887 C1889 1.388 . S
C1888 C1887 1.366 . S
C1888 C1892 1.385 . S
C1889 H1864 0.951 . S
C1889 C1887 1.388 . S
C1889 C1890 1.366 . S
C1890 C1889 1.366 . S
C1890 C1891 1.414 . S
C1890 C1893 1.499 . S
C1891 H1865 0.950 . S
C1891 C1890 1.414 . S
C1891 C1892 1.374 . S
C1892 H1866 0.950 . S
C1892 C1888 1.385 . S
C1892 C1891 1.374 . S
C1893 C1890 1.499 . S
C1893 C1894 1.373 . S
C1893 C1895 1.389 . S
C1894 H1867 0.950 . S
C1894 C1880 1.377 . S
C1894 C1893 1.373 . S
C1895 C1879 1.377 . S
C1895 C1893 1.389 . S
C1895 C1896 1.524 . S
C1896 C1895 1.524 . S
C1896 C1897 1.397 . S
C1896 C1901 1.363 . S
C1897 H1868 0.950 . S
C1897 C1896 1.397 . S
C1897 C1898 1.334 . S
C1898 H1869 0.950 . S
C1898 C1897 1.334 . S
C1898 C1899 1.287 . S
C1899 C1898 1.287 . S
C1899 C1900 1.524 . S
C1899 H1902 0.999 . S
C1900 H1870 0.950 . S
C1900 C1899 1.524 . S
C1900 C1901 1.415 . S
C1901 H1871 0.950 . S
C1901 C1896 1.363 . S
C1901 C1900 1.415 . S
H1902 C1899 0.999 . S
H1903 C1884 0.913 . S
H1904 C1922 0.951 . S
H1905 C1924 0.951 . S
H1906 C1926 0.950 . S
H1907 C1927 0.950 . S
H1908 C1929 0.950 . S
H1909 C1932 0.950 . S
H1910 C1933 0.950 . S
H1911 C1935 0.950 . S
H1912 C1936 0.950 . S
H1913 C1937 0.951 . S
H1914 C1939 0.951 . S
H1915 C1941 0.950 . S
H1916 C1942 0.950 . S
H1917 C1944 0.950 . S
H1918 C1947 0.950 . S
H1919 C1948 0.950 . S
H1920 C1950 0.950 . S
H1921 C1951 0.950 . S
C1922 H1904 0.951 . S
C1922 C1923 1.366 . S
C1922 C1924 1.388 . S
C1923 C1922 1.366 . S
C1923 C1927 1.385 . S
C1924 H1905 0.951 . S
C1924 C1922 1.388 . S
C1924 C1925 1.366 . S
C1925 C1924 1.366 . S
C1925 C1926 1.414 . S
C1925 C1928 1.499 . S
C1926 H1906 0.950 . S
C1926 C1925 1.414 . S
C1926 C1927 1.374 . S
C1927 H1907 0.950 . S
C1927 C1923 1.385 . S
C1927 C1926 1.374 . S
C1928 C1925 1.499 . S
C1928 C1929 1.373 . S
C1928 C1930 1.389 . S
C1929 H1908 0.950 . S
C1929 C1928 1.373 . S
C1929 C1945 1.377 . S
C1930 C1928 1.389 . S
C1930 C1931 1.524 . S
C1930 C1944 1.377 . S
C1931 C1930 1.524 . S
C1931 C1932 1.397 . S
C1931 C1936 1.363 . S
C1932 H1909 0.950 . S
C1932 C1931 1.397 . S
C1932 C1933 1.334 . S
C1933 H1910 0.950 . S
C1933 C1932 1.334 . S
C1933 C1934 1.287 . S
C1934 C1933 1.287 . S
C1934 C1935 1.524 . S
C1934 H1953 0.913 . S
C1935 H1911 0.950 . S
C1935 C1934 1.524 . S
C1935 C1936 1.415 . S
C1936 H1912 0.950 . S
C1936 C1931 1.363 . S
C1936 C1935 1.415 . S
C1937 H1913 0.951 . S
C1937 C1938 1.366 . S
C1937 C1939 1.388 . S
C1938 C1937 1.366 . S
C1938 C1942 1.385 . S
C1939 H1914 0.951 . S
C1939 C1937 1.388 . S
C1939 C1940 1.366 . S
C1940 C1939 1.366 . S
C1940 C1941 1.414 . S
C1940 C1943 1.499 . S
C1941 H1915 0.950 . S
C1941 C1940 1.414 . S
C1941 C1942 1.374 . S
C1942 H1916 0.950 . S
C1942 C1938 1.385 . S
C1942 C1941 1.374 . S
C1943 C1940 1.499 . S
C1943 C1944 1.373 . S
C1943 C1945 1.389 . S
C1944 H1917 0.950 . S
C1944 C1930 1.377 . S
C1944 C1943 1.373 . S
C1945 C1929 1.377 . S
C1945 C1943 1.389 . S
C1945 C1946 1.524 . S
C1946 C1945 1.524 . S
C1946 C1947 1.397 . S
C1946 C1951 1.363 . S
C1947 H1918 0.950 . S
C1947 C1946 1.397 . S
C1947 C1948 1.334 . S
C1948 H1919 0.950 . S
C1948 C1947 1.334 . S
C1948 C1949 1.287 . S
C1949 C1948 1.287 . S
C1949 C1950 1.524 . S
C1949 H1952 0.999 . S
C1950 H1920 0.950 . S
C1950 C1949 1.524 . S
C1950 C1951 1.415 . S
C1951 H1921 0.950 . S
C1951 C1946 1.363 . S
C1951 C1950 1.415 . S
H1952 C1949 0.999 . S
H1953 C1934 0.913 . S
H1954 C1972 0.951 . S
H1955 C1974 0.951 . S
H1956 C1976 0.950 . S
H1957 C1977 0.950 . S
H1958 C1979 0.950 . S
H1959 C1982 0.950 . S
H1960 C1983 0.950 . S
H1961 C1985 0.950 . S
H1962 C1986 0.950 . S
H1963 C1987 0.951 . S
H1964 C1989 0.951 . S
H1965 C1991 0.950 . S
H1966 C1992 0.950 . S
H1967 C1994 0.950 . S
H1968 C1997 0.950 . S
H1969 C1998 0.950 . S
H1970 C2000 0.950 . S
H1971 C2001 0.950 . S
C1972 H1954 0.951 . S
C1972 C1973 1.366 . S
C1972 C1974 1.388 . S
C1973 C1972 1.366 . S
C1973 C1977 1.385 . S
C1974 H1955 0.951 . S
C1974 C1972 1.388 . S
C1974 C1975 1.366 . S
C1975 C1974 1.366 . S
C1975 C1976 1.414 . S
C1975 C1978 1.499 . S
C1976 H1956 0.950 . S
C1976 C1975 1.414 . S
C1976 C1977 1.374 . S
C1977 H1957 0.950 . S
C1977 C1973 1.385 . S
C1977 C1976 1.374 . S
C1978 C1975 1.499 . S
C1978 C1979 1.373 . S
C1978 C1980 1.389 . S
C1979 H1958 0.950 . S
C1979 C1978 1.373 . S
C1979 C1995 1.377 . S
C1980 C1978 1.389 . S
C1980 C1981 1.524 . S
C1980 C1994 1.377 . S
C1981 C1980 1.524 . S
C1981 C1982 1.397 . S
C1981 C1986 1.363 . S
C1982 H1959 0.950 . S
C1982 C1981 1.397 . S
C1982 C1983 1.334 . S
C1983 H1960 0.950 . S
C1983 C1982 1.334 . S
C1983 C1984 1.287 . S
C1984 C1983 1.287 . S
C1984 C1985 1.524 . S
C1984 H2003 0.913 . S
C1985 H1961 0.950 . S
C1985 C1984 1.524 . S
C1985 C1986 1.415 . S
C1986 H1962 0.950 . S
C1986 C1981 1.363 . S
C1986 C1985 1.415 . S
C1987 H1963 0.951 . S
C1987 C1988 1.366 . S
C1987 C1989 1.388 . S
C1988 C1987 1.366 . S
C1988 C1992 1.385 . S
C1989 H1964 0.951 . S
C1989 C1987 1.388 . S
C1989 C1990 1.366 . S
C1990 C1989 1.366 . S
C1990 C1991 1.414 . S
C1990 C1993 1.499 . S
C1991 H1965 0.950 . S
C1991 C1990 1.414 . S
C1991 C1992 1.374 . S
C1992 H1966 0.950 . S
C1992 C1988 1.385 . S
C1992 C1991 1.374 . S
C1993 C1990 1.499 . S
C1993 C1994 1.373 . S
C1993 C1995 1.389 . S
C1994 H1967 0.950 . S
C1994 C1980 1.377 . S
C1994 C1993 1.373 . S
C1995 C1979 1.377 . S
C1995 C1993 1.389 . S
C1995 C1996 1.524 . S
C1996 C1995 1.524 . S
C1996 C1997 1.397 . S
C1996 C2001 1.363 . S
C1997 H1968 0.950 . S
C1997 C1996 1.397 . S
C1997 C1998 1.334 . S
C1998 H1969 0.950 . S
C1998 C1997 1.334 . S
C1998 C1999 1.287 . S
C1999 C1998 1.287 . S
C1999 C2000 1.524 . S
C1999 H2002 0.999 . S
C2000 H1970 0.950 . S
C2000 C1999 1.524 . S
C2000 C2001 1.415 . S
C2001 H1971 0.950 . S
C2001 C1996 1.363 . S
C2001 C2000 1.415 . S
H2002 C1999 0.999 . S
H2003 C1984 0.913 . S
H2004 C2022 0.951 . S
H2005 C2024 0.951 . S
H2006 C2026 0.950 . S
H2007 C2027 0.950 . S
H2008 C2029 0.950 . S
H2009 C2032 0.950 . S
H2010 C2033 0.950 . S
H2011 C2035 0.950 . S
H2012 C2036 0.950 . S
H2013 C2037 0.951 1_556 S
H2014 C2039 0.951 . S
H2015 C2041 0.950 . S
H2016 C2042 0.950 . S
H2017 C2044 0.950 . S
H2018 C2047 0.950 . S
H2019 C2048 0.950 . S
H2020 C2050 0.950 . S
H2021 C2051 0.950 . S
C2022 H2004 0.951 . S
C2022 C2023 1.366 . S
C2022 C2024 1.388 . S
C2023 C2022 1.366 . S
C2023 C2027 1.385 . S
C2024 H2005 0.951 . S
C2024 C2022 1.388 . S
C2024 C2025 1.366 . S
C2025 C2024 1.366 . S
C2025 C2026 1.414 . S
C2025 C2028 1.499 . S
C2026 H2006 0.950 . S
C2026 C2025 1.414 . S
C2026 C2027 1.374 . S
C2027 H2007 0.950 . S
C2027 C2023 1.385 . S
C2027 C2026 1.374 . S
C2028 C2025 1.499 . S
C2028 C2029 1.373 . S
C2028 C2030 1.389 . S
C2029 H2008 0.950 . S
C2029 C2028 1.373 . S
C2029 C2045 1.377 . S
C2030 C2028 1.389 . S
C2030 C2031 1.524 . S
C2030 C2044 1.377 . S
C2031 C2030 1.524 . S
C2031 C2032 1.397 . S
C2031 C2036 1.363 . S
C2032 H2009 0.950 . S
C2032 C2031 1.397 . S
C2032 C2033 1.334 . S
C2033 H2010 0.950 . S
C2033 C2032 1.334 . S
C2033 C2034 1.287 . S
C2034 C2033 1.287 . S
C2034 C2035 1.524 . S
C2034 H2053 0.913 . S
C2035 H2011 0.950 . S
C2035 C2034 1.524 . S
C2035 C2036 1.415 . S
C2036 H2012 0.950 . S
C2036 C2031 1.363 . S
C2036 C2035 1.415 . S
C2037 H2013 0.951 1_554 S
C2037 C2038 1.366 1_554 S
C2037 C2039 1.388 . S
C2038 C2037 1.366 1_556 S
C2038 C2042 1.385 1_556 S
C2039 H2014 0.951 . S
C2039 C2037 1.388 . S
C2039 C2040 1.366 . S
C2040 C2039 1.366 . S
C2040 C2041 1.414 . S
C2040 C2043 1.499 . S
C2041 H2015 0.950 . S
C2041 C2040 1.414 . S
C2041 C2042 1.374 . S
C2042 H2016 0.950 . S
C2042 C2038 1.385 1_554 S
C2042 C2041 1.374 . S
C2043 C2040 1.499 . S
C2043 C2044 1.373 . S
C2043 C2045 1.389 . S
C2044 H2017 0.950 . S
C2044 C2030 1.377 . S
C2044 C2043 1.373 . S
C2045 C2029 1.377 . S
C2045 C2043 1.389 . S
C2045 C2046 1.524 . S
C2046 C2045 1.524 . S
C2046 C2047 1.397 . S
C2046 C2051 1.363 . S
C2047 H2018 0.950 . S
C2047 C2046 1.397 . S
C2047 C2048 1.334 . S
C2048 H2019 0.950 . S
C2048 C2047 1.334 . S
C2048 C2049 1.287 . S
C2049 C2048 1.287 . S
C2049 C2050 1.524 . S
C2049 H2052 0.999 . S
C2050 H2020 0.950 . S
C2050 C2049 1.524 . S
C2050 C2051 1.415 . S
C2051 H2021 0.950 . S
C2051 C2046 1.363 . S
C2051 C2050 1.415 . S
H2052 C2049 0.999 . S
H2053 C2034 0.913 . S
H2054 C2072 0.951 . S
H2055 C2074 0.951 . S
H2056 C2076 0.950 . S
H2057 C2077 0.950 . S
H2058 C2079 0.950 . S
H2059 C2082 0.950 . S
H2060 C2083 0.950 . S
H2061 C2085 0.950 . S
H2062 C2086 0.950 . S
H2063 C2087 0.951 . S
H2064 C2089 0.951 . S
H2065 C2091 0.950 . S
H2066 C2092 0.950 . S
H2067 C2094 0.950 . S
H2068 C2097 0.950 . S
H2069 C2098 0.950 . S
H2070 C2100 0.950 . S
H2071 C2101 0.950 . S
C2072 H2054 0.951 . S
C2072 C2073 1.366 . S
C2072 C2074 1.388 . S
C2073 C2072 1.366 . S
C2073 C2077 1.385 . S
C2074 H2055 0.951 . S
C2074 C2072 1.388 . S
C2074 C2075 1.366 . S
C2075 C2074 1.366 . S
C2075 C2076 1.414 . S
C2075 C2078 1.499 . S
C2076 H2056 0.950 . S
C2076 C2075 1.414 . S
C2076 C2077 1.374 . S
C2077 H2057 0.950 . S
C2077 C2073 1.385 . S
C2077 C2076 1.374 . S
C2078 C2075 1.499 . S
C2078 C2079 1.373 . S
C2078 C2080 1.389 . S
C2079 H2058 0.950 . S
C2079 C2078 1.373 . S
C2079 C2095 1.377 . S
C2080 C2078 1.389 . S
C2080 C2081 1.524 . S
C2080 C2094 1.377 . S
C2081 C2080 1.524 . S
C2081 C2082 1.397 . S
C2081 C2086 1.363 . S
C2082 H2059 0.950 . S
C2082 C2081 1.397 . S
C2082 C2083 1.334 . S
C2083 H2060 0.950 . S
C2083 C2082 1.334 . S
C2083 C2084 1.287 . S
C2084 C2083 1.287 . S
C2084 C2085 1.524 . S
C2084 H2103 0.913 . S
C2085 H2061 0.950 . S
C2085 C2084 1.524 . S
C2085 C2086 1.415 . S
C2086 H2062 0.950 . S
C2086 C2081 1.363 . S
C2086 C2085 1.415 . S
C2087 H2063 0.951 . S
C2087 C2088 1.366 1_554 S
C2087 C2089 1.388 . S
C2088 C2087 1.366 1_556 S
C2088 C2092 1.385 . S
C2089 H2064 0.951 . S
C2089 C2087 1.388 . S
C2089 C2090 1.366 . S
C2090 C2089 1.366 . S
C2090 C2091 1.414 . S
C2090 C2093 1.499 . S
C2091 H2065 0.950 . S
C2091 C2090 1.414 . S
C2091 C2092 1.374 1_554 S
C2092 H2066 0.950 . S
C2092 C2088 1.385 . S
C2092 C2091 1.374 1_556 S
C2093 C2090 1.499 . S
C2093 C2094 1.373 . S
C2093 C2095 1.389 . S
C2094 H2067 0.950 . S
C2094 C2080 1.377 . S
C2094 C2093 1.373 . S
C2095 C2079 1.377 . S
C2095 C2093 1.389 . S
C2095 C2096 1.524 . S
C2096 C2095 1.524 . S
C2096 C2097 1.397 . S
C2096 C2101 1.363 . S
C2097 H2068 0.950 . S
C2097 C2096 1.397 . S
C2097 C2098 1.334 . S
C2098 H2069 0.950 . S
C2098 C2097 1.334 . S
C2098 C2099 1.287 . S
C2099 C2098 1.287 . S
C2099 C2100 1.524 . S
C2099 H2102 0.999 . S
C2100 H2070 0.950 . S
C2100 C2099 1.524 . S
C2100 C2101 1.415 . S
C2101 H2071 0.950 . S
C2101 C2096 1.363 . S
C2101 C2100 1.415 . S
H2102 C2099 0.999 . S
H2103 C2084 0.913 . S
H2104 C2122 0.951 . S
H2105 C2124 0.951 . S
H2106 C2126 0.950 . S
H2107 C2127 0.950 . S
H2108 C2129 0.950 . S
H2109 C2132 0.950 . S
H2110 C2133 0.950 . S
H2111 C2135 0.950 . S
H2112 C2136 0.950 . S
H2113 C2137 0.951 . S
H2114 C2139 0.951 . S
H2115 C2141 0.950 . S
H2116 C2142 0.950 . S
H2117 C2144 0.950 . S
H2118 C2147 0.950 . S
H2119 C2148 0.950 . S
H2120 C2150 0.950 . S
H2121 C2151 0.950 . S
C2122 H2104 0.951 . S
C2122 C2123 1.366 . S
C2122 C2124 1.388 1_556 S
C2123 C2122 1.366 . S
C2123 C2127 1.385 1_556 S
C2124 H2105 0.951 . S
C2124 C2122 1.388 1_554 S
C2124 C2125 1.366 . S
C2125 C2124 1.366 . S
C2125 C2126 1.414 . S
C2125 C2128 1.499 . S
C2126 H2106 0.950 . S
C2126 C2125 1.414 . S
C2126 C2127 1.374 . S
C2127 H2107 0.950 . S
C2127 C2123 1.385 1_554 S
C2127 C2126 1.374 . S
C2128 C2125 1.499 . S
C2128 C2129 1.373 . S
C2128 C2130 1.389 . S
C2129 H2108 0.950 . S
C2129 C2128 1.373 . S
C2129 C2145 1.377 . S
C2130 C2128 1.389 . S
C2130 C2131 1.524 . S
C2130 C2144 1.377 . S
C2131 C2130 1.524 . S
C2131 C2132 1.397 . S
C2131 C2136 1.363 . S
C2132 H2109 0.950 . S
C2132 C2131 1.397 . S
C2132 C2133 1.334 . S
C2133 H2110 0.950 . S
C2133 C2132 1.334 . S
C2133 C2134 1.287 . S
C2134 C2133 1.287 . S
C2134 C2135 1.524 . S
C2134 H2153 0.913 . S
C2135 H2111 0.950 . S
C2135 C2134 1.524 . S
C2135 C2136 1.415 . S
C2136 H2112 0.950 . S
C2136 C2131 1.363 . S
C2136 C2135 1.415 . S
C2137 H2113 0.951 . S
C2137 C2138 1.366 . S
C2137 C2139 1.388 . S
C2138 C2137 1.366 . S
C2138 C2142 1.385 . S
C2139 H2114 0.951 . S
C2139 C2137 1.388 . S
C2139 C2140 1.366 . S
C2140 C2139 1.366 . S
C2140 C2141 1.414 . S
C2140 C2143 1.499 . S
C2141 H2115 0.950 . S
C2141 C2140 1.414 . S
C2141 C2142 1.374 . S
C2142 H2116 0.950 . S
C2142 C2138 1.385 . S
C2142 C2141 1.374 . S
C2143 C2140 1.499 . S
C2143 C2144 1.373 . S
C2143 C2145 1.389 . S
C2144 H2117 0.950 . S
C2144 C2130 1.377 . S
C2144 C2143 1.373 . S
C2145 C2129 1.377 . S
C2145 C2143 1.389 . S
C2145 C2146 1.524 . S
C2146 C2145 1.524 . S
C2146 C2147 1.397 . S
C2146 C2151 1.363 . S
C2147 H2118 0.950 . S
C2147 C2146 1.397 . S
C2147 C2148 1.334 . S
C2148 H2119 0.950 . S
C2148 C2147 1.334 . S
C2148 C2149 1.287 . S
C2149 C2148 1.287 . S
C2149 C2150 1.524 . S
C2149 H2152 0.999 . S
C2150 H2120 0.950 . S
C2150 C2149 1.524 . S
C2150 C2151 1.415 . S
C2151 H2121 0.950 . S
C2151 C2146 1.363 . S
C2151 C2150 1.415 . S
H2152 C2149 0.999 . S
H2153 C2134 0.913 . S
H2154 C2172 0.951 . S
H2155 C2174 0.951 . S
H2156 C2176 0.950 . S
H2157 C2177 0.950 . S
H2158 C2179 0.950 1_556 S
H2159 C2182 0.950 . S
H2160 C2183 0.950 . S
H2161 C2185 0.950 . S
H2162 C2186 0.950 1_556 S
H2163 C2187 0.951 . S
H2164 C2189 0.951 . S
H2165 C2191 0.950 . S
H2166 C2192 0.950 . S
H2167 C2194 0.950 . S
H2168 C2197 0.950 . S
H2169 C2198 0.950 . S
H2170 C2200 0.950 . S
H2171 C2201 0.950 . S
C2172 H2154 0.951 . S
C2172 C2173 1.366 . S
C2172 C2174 1.388 . S
C2173 C2172 1.366 . S
C2173 C2177 1.385 . S
C2174 H2155 0.951 . S
C2174 C2172 1.388 . S
C2174 C2175 1.366 . S
C2175 C2174 1.366 . S
C2175 C2176 1.414 . S
C2175 C2178 1.499 . S
C2176 H2156 0.950 . S
C2176 C2175 1.414 . S
C2176 C2177 1.374 . S
C2177 H2157 0.950 . S
C2177 C2173 1.385 . S
C2177 C2176 1.374 . S
C2178 C2175 1.499 . S
C2178 C2179 1.373 1_556 S
C2178 C2180 1.389 1_556 S
C2179 H2158 0.950 1_554 S
C2179 C2178 1.373 1_554 S
C2179 C2195 1.377 . S
C2180 C2178 1.389 1_554 S
C2180 C2181 1.524 . S
C2180 C2194 1.377 . S
C2181 C2180 1.524 . S
C2181 C2182 1.397 . S
C2181 C2186 1.363 . S
C2182 H2159 0.950 . S
C2182 C2181 1.397 . S
C2182 C2183 1.334 . S
C2183 H2160 0.950 . S
C2183 C2182 1.334 . S
C2183 C2184 1.287 . S
C2184 C2183 1.287 . S
C2184 C2185 1.524 1_554 S
C2184 H2203 0.913 . S
C2185 H2161 0.950 . S
C2185 C2184 1.524 1_556 S
C2185 C2186 1.415 1_556 S
C2186 H2162 0.950 1_554 S
C2186 C2181 1.363 . S
C2186 C2185 1.415 1_554 S
C2187 H2163 0.951 . S
C2187 C2188 1.366 . S
C2187 C2189 1.388 . S
C2188 C2187 1.366 . S
C2188 C2192 1.385 . S
C2189 H2164 0.951 . S
C2189 C2187 1.388 . S
C2189 C2190 1.366 . S
C2190 C2189 1.366 . S
C2190 C2191 1.414 . S
C2190 C2193 1.499 . S
C2191 H2165 0.950 . S
C2191 C2190 1.414 . S
C2191 C2192 1.374 . S
C2192 H2166 0.950 . S
C2192 C2188 1.385 . S
C2192 C2191 1.374 . S
C2193 C2190 1.499 . S
C2193 C2194 1.373 . S
C2193 C2195 1.389 . S
C2194 H2167 0.950 . S
C2194 C2180 1.377 . S
C2194 C2193 1.373 . S
C2195 C2179 1.377 . S
C2195 C2193 1.389 . S
C2195 C2196 1.524 . S
C2196 C2195 1.524 . S
C2196 C2197 1.397 . S
C2196 C2201 1.363 . S
C2197 H2168 0.950 . S
C2197 C2196 1.397 . S
C2197 C2198 1.334 . S
C2198 H2169 0.950 . S
C2198 C2197 1.334 . S
C2198 C2199 1.287 . S
C2199 C2198 1.287 . S
C2199 C2200 1.524 . S
C2199 H2202 0.999 . S
C2200 H2170 0.950 . S
C2200 C2199 1.524 . S
C2200 C2201 1.415 . S
C2201 H2171 0.950 . S
C2201 C2196 1.363 . S
C2201 C2200 1.415 . S
H2202 C2199 0.999 . S
H2203 C2184 0.913 . S
H2204 C2222 0.951 . S
H2205 C2224 0.935 1_554 S
H2206 C2226 0.950 . S
H2207 C2227 0.950 . S
H2208 C2229 0.950 . S
H2209 C2232 0.950 1_556 S
H2210 C2233 0.950 1_556 S
H2211 C2235 0.950 . S
H2212 C2236 0.950 . S
H2213 C2237 0.951 . S
H2214 C2239 0.951 . S
H2215 C2241 0.950 . S
H2216 C2242 0.950 . S
H2217 C2244 0.950 . S
H2218 C2247 0.950 . S
H2219 C2248 0.950 . S
H2220 C2250 0.950 . S
H2221 C2251 0.950 . S
C2222 H2204 0.951 . S
C2222 C2223 1.366 . S
C2222 C2224 1.388 . S
C2223 C2222 1.366 . S
C2223 C2227 1.385 . S
C2224 H2205 0.935 1_556 S
C2224 C2222 1.388 . S
C2224 C2225 1.366 . S
C2225 C2224 1.366 . S
C2225 C2226 1.414 . S
C2225 C2228 1.499 . S
C2226 H2206 0.950 . S
C2226 C2225 1.414 . S
C2226 C2227 1.374 . S
C2227 H2207 0.950 . S
C2227 C2223 1.385 . S
C2227 C2226 1.374 . S
C2228 C2225 1.499 . S
C2228 C2229 1.373 . S
C2228 C2230 1.389 1_556 S
C2229 H2208 0.950 . S
C2229 C2228 1.373 . S
C2229 C2245 1.377 1_556 S
C2230 C2228 1.389 1_554 S
C2230 C2231 1.524 . S
C2230 C2244 1.377 . S
C2231 C2230 1.524 . S
C2231 C2232 1.397 . S
C2231 C2236 1.363 . S
C2232 H2209 0.950 1_554 S
C2232 C2231 1.397 . S
C2232 C2233 1.334 . S
C2233 H2210 0.950 1_554 S
C2233 C2232 1.334 . S
C2233 C2234 1.287 . S
C2234 C2233 1.287 . S
C2234 C2235 1.524 . S
C2234 H2253 0.913 . S
C2235 H2211 0.950 . S
C2235 C2234 1.524 . S
C2235 C2236 1.415 . S
C2236 H2212 0.950 . S
C2236 C2231 1.363 . S
C2236 C2235 1.415 . S
C2237 H2213 0.951 . S
C2237 C2238 1.366 . S
C2237 C2239 1.388 . S
C2238 C2237 1.366 . S
C2238 C2242 1.385 . S
C2239 H2214 0.951 . S
C2239 C2237 1.388 . S
C2239 C2240 1.366 . S
C2240 C2239 1.366 . S
C2240 C2241 1.414 . S
C2240 C2243 1.499 . S
C2241 H2215 0.950 . S
C2241 C2240 1.414 . S
C2241 C2242 1.374 . S
C2242 H2216 0.950 . S
C2242 C2238 1.385 . S
C2242 C2241 1.374 . S
C2243 C2240 1.499 . S
C2243 C2244 1.373 . S
C2243 C2245 1.389 . S
C2244 H2217 0.950 . S
C2244 C2230 1.377 . S
C2244 C2243 1.373 . S
C2245 C2229 1.377 1_554 S
C2245 C2243 1.389 . S
C2245 C2246 1.524 . S
C2246 C2245 1.524 . S
C2246 C2247 1.397 . S
C2246 C2251 1.363 1_554 S
C2247 H2218 0.950 . S
C2247 C2246 1.397 . S
C2247 C2248 1.334 . S
C2248 H2219 0.950 . S
C2248 C2247 1.334 . S
C2248 C2249 1.266 1_554 S
C2249 C2248 1.266 1_556 S
C2249 C2250 1.542 . S
C2249 H2252 1.004 . S
C2250 H2220 0.950 . S
C2250 C2249 1.542 . S
C2250 C2251 1.415 . S
C2251 H2221 0.950 . S
C2251 C2246 1.363 1_556 S
C2251 C2250 1.415 . S
H2252 C2249 1.004 . S
H2253 C2234 0.913 . S
H2254 C2272 0.951 . S
H2255 C2274 0.951 . S
H2256 C2276 0.950 . S
H2257 C2277 0.950 . S
H2258 C2279 0.950 . S
H2259 C2282 0.950 . S
H2260 C2283 0.950 . S
H2261 C2285 0.950 . S
H2262 C2286 0.950 1_554 S
H2263 C2287 0.951 . S
H2264 C2289 0.951 . S
H2265 C2291 0.950 . S
H2266 C2292 0.950 . S
H2267 C2294 0.950 . S
H2268 C2297 0.950 . S
H2269 C2298 0.950 . S
H2270 C2300 0.950 . S
H2271 C2301 0.950 . S
C2272 H2254 0.951 . S
C2272 C2273 1.366 . S
C2272 C2274 1.388 . S
C2273 C2272 1.366 . S
C2273 C2277 1.385 . S
C2274 H2255 0.951 . S
C2274 C2272 1.388 . S
C2274 C2275 1.366 . S
C2275 C2274 1.366 . S
C2275 C2276 1.414 . S
C2275 C2278 1.499 . S
C2276 H2256 0.950 . S
C2276 C2275 1.414 . S
C2276 C2277 1.374 . S
C2277 H2257 0.950 . S
C2277 C2273 1.385 . S
C2277 C2276 1.374 . S
C2278 C2275 1.499 . S
C2278 C2279 1.373 1_556 S
C2278 C2280 1.389 1_556 S
C2279 H2258 0.950 . S
C2279 C2278 1.373 1_554 S
C2279 C2295 1.377 . S
C2280 C2278 1.389 1_554 S
C2280 C2281 1.524 1_554 S
C2280 C2294 1.377 . S
C2281 C2280 1.524 1_556 S
C2281 C2282 1.397 . S
C2281 C2286 1.363 . S
C2282 H2259 0.950 . S
C2282 C2281 1.397 . S
C2282 C2283 1.334 . S
C2283 H2260 0.950 . S
C2283 C2282 1.334 . S
C2283 C2284 1.287 . S
C2284 C2283 1.287 . S
C2284 C2285 1.524 . S
C2284 H2303 0.913 . S
C2285 H2261 0.950 . S
C2285 C2284 1.524 . S
C2285 C2286 1.415 . S
C2286 H2262 0.950 1_556 S
C2286 C2281 1.363 . S
C2286 C2285 1.415 . S
C2287 H2263 0.951 . S
C2287 C2288 1.366 . S
C2287 C2289 1.388 . S
C2288 C2287 1.366 . S
C2288 C2292 1.385 . S
C2289 H2264 0.951 . S
C2289 C2287 1.388 . S
C2289 C2290 1.366 . S
C2290 C2289 1.366 . S
C2290 C2291 1.414 . S
C2290 C2293 1.499 . S
C2291 H2265 0.950 . S
C2291 C2290 1.414 . S
C2291 C2292 1.374 . S
C2292 H2266 0.950 . S
C2292 C2288 1.385 . S
C2292 C2291 1.374 . S
C2293 C2290 1.499 . S
C2293 C2294 1.373 . S
C2293 C2295 1.389 . S
C2294 H2267 0.950 . S
C2294 C2280 1.377 . S
C2294 C2293 1.373 . S
C2295 C2279 1.377 . S
C2295 C2293 1.389 . S
C2295 C2296 1.524 . S
C2296 C2295 1.524 . S
C2296 C2297 1.397 . S
C2296 C2301 1.363 . S
C2297 H2268 0.950 . S
C2297 C2296 1.397 . S
C2297 C2298 1.334 . S
C2298 H2269 0.950 . S
C2298 C2297 1.334 . S
C2298 C2299 1.287 . S
C2299 C2298 1.287 . S
C2299 C2300 1.524 . S
C2299 H2302 0.999 . S
C2300 H2270 0.950 . S
C2300 C2299 1.524 . S
C2300 C2301 1.415 . S
C2301 H2271 0.950 . S
C2301 C2296 1.363 . S
C2301 C2300 1.415 . S
H2302 C2299 0.999 . S
H2303 C2284 0.913 . S
H2304 C2322 0.951 . S
H2305 C2324 0.951 . S
H2306 C2326 0.950 . S
H2307 C2327 0.950 . S
H2308 C2329 0.950 . S
H2309 C2332 0.950 . S
H2310 C2333 0.950 . S
H2311 C2335 0.950 . S
H2312 C2336 0.950 . S
H2313 C2337 0.951 . S
H2314 C2339 0.951 . S
H2315 C2341 0.950 . S
H2316 C2342 0.950 . S
H2317 C2344 0.950 . S
H2318 C2347 0.950 . S
H2319 C2348 0.950 . S
H2320 C2350 0.950 . S
H2321 C2351 0.950 . S
C2322 H2304 0.951 . S
C2322 C2323 1.366 . S
C2322 C2324 1.388 . S
C2323 C2322 1.366 . S
C2323 C2327 1.385 . S
C2324 H2305 0.951 . S
C2324 C2322 1.388 . S
C2324 C2325 1.366 . S
C2325 C2324 1.366 . S
C2325 C2326 1.414 . S
C2325 C2328 1.499 . S
C2326 H2306 0.950 . S
C2326 C2325 1.414 . S
C2326 C2327 1.374 . S
C2327 H2307 0.950 . S
C2327 C2323 1.385 . S
C2327 C2326 1.374 . S
C2328 C2325 1.499 . S
C2328 C2329 1.373 . S
C2328 C2330 1.389 . S
C2329 H2308 0.950 . S
C2329 C2328 1.373 . S
C2329 C2345 1.377 . S
C2330 C2328 1.389 . S
C2330 C2331 1.524 . S
C2330 C2344 1.377 . S
C2331 C2330 1.524 . S
C2331 C2332 1.397 . S
C2331 C2336 1.363 . S
C2332 H2309 0.950 . S
C2332 C2331 1.397 . S
C2332 C2333 1.334 . S
C2333 H2310 0.950 . S
C2333 C2332 1.334 . S
C2333 C2334 1.287 . S
C2334 C2333 1.287 . S
C2334 C2335 1.524 . S
C2334 H2353 0.913 . S
C2335 H2311 0.950 . S
C2335 C2334 1.524 . S
C2335 C2336 1.415 . S
C2336 H2312 0.950 . S
C2336 C2331 1.363 . S
C2336 C2335 1.415 . S
C2337 H2313 0.951 . S
C2337 C2338 1.366 . S
C2337 C2339 1.388 . S
C2338 C2337 1.366 . S
C2338 C2342 1.385 . S
C2339 H2314 0.951 . S
C2339 C2337 1.388 . S
C2339 C2340 1.366 . S
C2340 C2339 1.366 . S
C2340 C2341 1.414 . S
C2340 C2343 1.499 . S
C2341 H2315 0.950 . S
C2341 C2340 1.414 . S
C2341 C2342 1.374 . S
C2342 H2316 0.950 . S
C2342 C2338 1.385 . S
C2342 C2341 1.374 . S
C2343 C2340 1.499 . S
C2343 C2344 1.373 . S
C2343 C2345 1.389 . S
C2344 H2317 0.950 . S
C2344 C2330 1.377 . S
C2344 C2343 1.373 . S
C2345 C2329 1.377 . S
C2345 C2343 1.389 . S
C2345 C2346 1.524 . S
C2346 C2345 1.524 . S
C2346 C2347 1.397 . S
C2346 C2351 1.363 . S
C2347 H2318 0.950 . S
C2347 C2346 1.397 . S
C2347 C2348 1.334 . S
C2348 H2319 0.950 . S
C2348 C2347 1.334 . S
C2348 C2349 1.287 . S
C2349 C2348 1.287 . S
C2349 C2350 1.524 . S
C2349 H2352 0.999 . S
C2350 H2320 0.950 . S
C2350 C2349 1.524 . S
C2350 C2351 1.415 . S
C2351 H2321 0.950 . S
C2351 C2346 1.363 . S
C2351 C2350 1.415 . S
H2352 C2349 0.999 . S
H2353 C2334 0.913 . S
H2354 C2372 0.951 . S
H2355 C2374 0.951 . S
H2356 C2376 0.950 . S
H2357 C2377 0.950 . S
H2358 C2379 0.950 . S
H2359 C2382 0.950 . S
H2360 C2383 0.950 . S
H2361 C2385 0.950 . S
H2362 C2386 0.950 . S
H2363 C2387 0.951 . S
H2364 C2389 0.951 . S
H2365 C2391 0.950 . S
H2366 C2392 0.950 . S
H2367 C2394 0.950 . S
H2368 C2397 0.950 . S
H2369 C2398 0.950 . S
H2370 C2400 0.950 . S
H2371 C2401 0.950 . S
C2372 H2354 0.951 . S
C2372 C2373 1.366 . S
C2372 C2374 1.388 . S
C2373 C2372 1.366 . S
C2373 C2377 1.385 . S
C2374 H2355 0.951 . S
C2374 C2372 1.388 . S
C2374 C2375 1.366 . S
C2375 C2374 1.366 . S
C2375 C2376 1.414 . S
C2375 C2378 1.499 . S
C2376 H2356 0.950 . S
C2376 C2375 1.414 . S
C2376 C2377 1.374 . S
C2377 H2357 0.950 . S
C2377 C2373 1.385 . S
C2377 C2376 1.374 . S
C2378 C2375 1.499 . S
C2378 C2379 1.373 . S
C2378 C2380 1.389 . S
C2379 H2358 0.950 . S
C2379 C2378 1.373 . S
C2379 C2395 1.377 . S
C2380 C2378 1.389 . S
C2380 C2381 1.524 . S
C2380 C2394 1.377 . S
C2381 C2380 1.524 . S
C2381 C2382 1.397 . S
C2381 C2386 1.363 . S
C2382 H2359 0.950 . S
C2382 C2381 1.397 . S
C2382 C2383 1.334 . S
C2383 H2360 0.950 . S
C2383 C2382 1.334 . S
C2383 C2384 1.287 . S
C2384 C2383 1.287 . S
C2384 C2385 1.524 . S
C2384 H2403 0.913 . S
C2385 H2361 0.950 . S
C2385 C2384 1.524 . S
C2385 C2386 1.415 . S
C2386 H2362 0.950 . S
C2386 C2381 1.363 . S
C2386 C2385 1.415 . S
C2387 H2363 0.951 . S
C2387 C2388 1.366 . S
C2387 C2389 1.388 . S
C2388 C2387 1.366 . S
C2388 C2392 1.385 . S
C2389 H2364 0.951 . S
C2389 C2387 1.388 . S
C2389 C2390 1.366 . S
C2390 C2389 1.366 . S
C2390 C2391 1.414 . S
C2390 C2393 1.499 . S
C2391 H2365 0.950 . S
C2391 C2390 1.414 . S
C2391 C2392 1.374 . S
C2392 H2366 0.950 . S
C2392 C2388 1.385 . S
C2392 C2391 1.374 . S
C2393 C2390 1.499 . S
C2393 C2394 1.373 . S
C2393 C2395 1.389 . S
C2394 H2367 0.950 . S
C2394 C2380 1.377 . S
C2394 C2393 1.373 . S
C2395 C2379 1.377 . S
C2395 C2393 1.389 . S
C2395 C2396 1.524 . S
C2396 C2395 1.524 . S
C2396 C2397 1.397 . S
C2396 C2401 1.363 . S
C2397 H2368 0.950 . S
C2397 C2396 1.397 . S
C2397 C2398 1.334 . S
C2398 H2369 0.950 . S
C2398 C2397 1.334 . S
C2398 C2399 1.287 . S
C2399 C2398 1.287 . S
C2399 C2400 1.524 . S
C2399 H2402 0.999 . S
C2400 H2370 0.950 . S
C2400 C2399 1.524 . S
C2400 C2401 1.415 . S
C2401 H2371 0.950 . S
C2401 C2396 1.363 . S
C2401 C2400 1.415 . S
H2402 C2399 0.999 . S
H2403 C2384 0.913 . S
H2404 C2422 0.951 . S
H2405 C2424 0.951 . S
H2406 C2426 0.950 . S
H2407 C2427 0.950 . S
H2408 C2429 0.950 . S
H2409 C2432 0.950 . S
H2410 C2433 0.950 . S
H2411 C2435 0.950 . S
H2412 C2436 0.950 . S
H2413 C2437 0.951 . S
H2414 C2439 0.951 . S
H2415 C2441 0.950 . S
H2416 C2442 0.950 . S
H2417 C2444 0.950 . S
H2418 C2447 0.950 . S
H2419 C2448 0.950 . S
H2420 C2450 0.950 . S
H2421 C2451 0.950 . S
C2422 H2404 0.951 . S
C2422 C2423 1.366 . S
C2422 C2424 1.388 . S
C2423 C2422 1.366 . S
C2423 C2427 1.385 . S
C2424 H2405 0.951 . S
C2424 C2422 1.388 . S
C2424 C2425 1.366 . S
C2425 C2424 1.366 . S
C2425 C2426 1.414 . S
C2425 C2428 1.499 . S
C2426 H2406 0.950 . S
C2426 C2425 1.414 . S
C2426 C2427 1.374 . S
C2427 H2407 0.950 . S
C2427 C2423 1.385 . S
C2427 C2426 1.374 . S
C2428 C2425 1.499 . S
C2428 C2429 1.373 . S
C2428 C2430 1.389 . S
C2429 H2408 0.950 . S
C2429 C2428 1.373 . S
C2429 C2445 1.377 . S
C2430 C2428 1.389 . S
C2430 C2431 1.524 . S
C2430 C2444 1.377 . S
C2431 C2430 1.524 . S
C2431 C2432 1.397 . S
C2431 C2436 1.363 . S
C2432 H2409 0.950 . S
C2432 C2431 1.397 . S
C2432 C2433 1.334 . S
C2433 H2410 0.950 . S
C2433 C2432 1.334 . S
C2433 C2434 1.287 . S
C2434 C2433 1.287 . S
C2434 C2435 1.524 . S
C2434 H2453 0.913 . S
C2435 H2411 0.950 . S
C2435 C2434 1.524 . S
C2435 C2436 1.415 . S
C2436 H2412 0.950 . S
C2436 C2431 1.363 . S
C2436 C2435 1.415 . S
C2437 H2413 0.951 . S
C2437 C2438 1.366 . S
C2437 C2439 1.388 . S
C2438 C2437 1.366 . S
C2438 C2442 1.385 . S
C2439 H2414 0.951 . S
C2439 C2437 1.388 . S
C2439 C2440 1.366 . S
C2440 C2439 1.366 . S
C2440 C2441 1.414 . S
C2440 C2443 1.499 . S
C2441 H2415 0.950 . S
C2441 C2440 1.414 . S
C2441 C2442 1.374 . S
C2442 H2416 0.950 . S
C2442 C2438 1.385 . S
C2442 C2441 1.374 . S
C2443 C2440 1.499 . S
C2443 C2444 1.373 . S
C2443 C2445 1.389 . S
C2444 H2417 0.950 . S
C2444 C2430 1.377 . S
C2444 C2443 1.373 . S
C2445 C2429 1.377 . S
C2445 C2443 1.389 . S
C2445 C2446 1.524 . S
C2446 C2445 1.524 . S
C2446 C2447 1.397 . S
C2446 C2451 1.363 . S
C2447 H2418 0.950 . S
C2447 C2446 1.397 . S
C2447 C2448 1.334 . S
C2448 H2419 0.950 . S
C2448 C2447 1.334 . S
C2448 C2449 1.287 . S
C2449 C2448 1.287 . S
C2449 C2450 1.524 . S
C2449 H2452 0.999 . S
C2450 H2420 0.950 . S
C2450 C2449 1.524 . S
C2450 C2451 1.415 . S
C2451 H2421 0.950 . S
C2451 C2446 1.363 . S
C2451 C2450 1.415 . S
H2452 C2449 0.999 . S
H2453 C2434 0.913 . S
H2454 C2472 0.951 . S
H2455 C2474 0.951 . S
H2456 C2476 0.950 . S
H2457 C2477 0.950 . S
H2458 C2479 0.950 . S
H2459 C2482 0.950 . S
H2460 C2483 0.950 . S
H2461 C2485 0.950 . S
H2462 C2486 0.950 . S
H2463 C2487 0.951 . S
H2464 C2489 0.951 . S
H2465 C2491 0.950 . S
H2466 C2492 0.950 . S
H2467 C2494 0.950 . S
H2468 C2497 0.950 . S
H2469 C2498 0.950 . S
H2470 C2500 0.950 . S
H2471 C2501 0.950 . S
C2472 H2454 0.951 . S
C2472 C2473 1.366 . S
C2472 C2474 1.388 . S
C2473 C2472 1.366 . S
C2473 C2477 1.385 . S
C2474 H2455 0.951 . S
C2474 C2472 1.388 . S
C2474 C2475 1.366 . S
C2475 C2474 1.366 . S
C2475 C2476 1.414 . S
C2475 C2478 1.499 . S
C2476 H2456 0.950 . S
C2476 C2475 1.414 . S
C2476 C2477 1.374 . S
C2477 H2457 0.950 . S
C2477 C2473 1.385 . S
C2477 C2476 1.374 . S
C2478 C2475 1.499 . S
C2478 C2479 1.373 . S
C2478 C2480 1.389 . S
C2479 H2458 0.950 . S
C2479 C2478 1.373 . S
C2479 C2495 1.377 . S
C2480 C2478 1.389 . S
C2480 C2481 1.524 . S
C2480 C2494 1.377 . S
C2481 C2480 1.524 . S
C2481 C2482 1.397 . S
C2481 C2486 1.363 . S
C2482 H2459 0.950 . S
C2482 C2481 1.397 . S
C2482 C2483 1.334 . S
C2483 H2460 0.950 . S
C2483 C2482 1.334 . S
C2483 C2484 1.287 . S
C2484 C2483 1.287 . S
C2484 C2485 1.524 . S
C2484 H2503 0.913 . S
C2485 H2461 0.950 . S
C2485 C2484 1.524 . S
C2485 C2486 1.415 . S
C2486 H2462 0.950 . S
C2486 C2481 1.363 . S
C2486 C2485 1.415 . S
C2487 H2463 0.951 . S
C2487 C2488 1.366 . S
C2487 C2489 1.388 . S
C2488 C2487 1.366 . S
C2488 C2492 1.385 . S
C2489 H2464 0.951 . S
C2489 C2487 1.388 . S
C2489 C2490 1.366 . S
C2490 C2489 1.366 . S
C2490 C2491 1.414 . S
C2490 C2493 1.499 . S
C2491 H2465 0.950 . S
C2491 C2490 1.414 . S
C2491 C2492 1.374 . S
C2492 H2466 0.950 . S
C2492 C2488 1.385 . S
C2492 C2491 1.374 . S
C2493 C2490 1.499 . S
C2493 C2494 1.373 . S
C2493 C2495 1.389 . S
C2494 H2467 0.950 . S
C2494 C2480 1.377 . S
C2494 C2493 1.373 . S
C2495 C2479 1.377 . S
C2495 C2493 1.389 . S
C2495 C2496 1.524 . S
C2496 C2495 1.524 . S
C2496 C2497 1.397 . S
C2496 C2501 1.363 . S
C2497 H2468 0.950 . S
C2497 C2496 1.397 . S
C2497 C2498 1.334 . S
C2498 H2469 0.950 . S
C2498 C2497 1.334 . S
C2498 C2499 1.287 . S
C2499 C2498 1.287 . S
C2499 C2500 1.524 . S
C2499 H2502 0.999 . S
C2500 H2470 0.950 . S
C2500 C2499 1.524 . S
C2500 C2501 1.415 . S
C2501 H2471 0.950 . S
C2501 C2496 1.363 . S
C2501 C2500 1.415 . S
H2502 C2499 0.999 . S
H2503 C2484 0.913 . S
H2504 C2522 0.951 . S
H2505 C2524 0.951 . S
H2506 C2526 0.950 . S
H2507 C2527 0.950 . S
H2508 C2529 0.950 . S
H2509 C2532 0.950 . S
H2510 C2533 0.950 . S
H2511 C2535 0.950 . S
H2512 C2536 0.950 . S
H2513 C2537 0.951 . S
H2514 C2539 0.951 . S
H2515 C2541 0.950 . S
H2516 C2542 0.950 . S
H2517 C2544 0.950 . S
H2518 C2547 0.950 . S
H2519 C2548 0.950 . S
H2520 C2550 0.950 . S
H2521 C2551 0.950 . S
C2522 H2504 0.951 . S
C2522 C2523 1.366 . S
C2522 C2524 1.388 . S
C2523 C2522 1.366 . S
C2523 C2527 1.385 . S
C2524 H2505 0.951 . S
C2524 C2522 1.388 . S
C2524 C2525 1.366 . S
C2525 C2524 1.366 . S
C2525 C2526 1.414 . S
C2525 C2528 1.499 . S
C2526 H2506 0.950 . S
C2526 C2525 1.414 . S
C2526 C2527 1.374 . S
C2527 H2507 0.950 . S
C2527 C2523 1.385 . S
C2527 C2526 1.374 . S
C2528 C2525 1.499 . S
C2528 C2529 1.373 . S
C2528 C2530 1.389 . S
C2529 H2508 0.950 . S
C2529 C2528 1.373 . S
C2529 C2545 1.377 . S
C2530 C2528 1.389 . S
C2530 C2531 1.524 . S
C2530 C2544 1.377 . S
C2531 C2530 1.524 . S
C2531 C2532 1.397 . S
C2531 C2536 1.363 . S
C2532 H2509 0.950 . S
C2532 C2531 1.397 . S
C2532 C2533 1.334 . S
C2533 H2510 0.950 . S
C2533 C2532 1.334 . S
C2533 C2534 1.287 . S
C2534 C2533 1.287 . S
C2534 C2535 1.524 . S
C2534 H2553 0.913 . S
C2535 H2511 0.950 . S
C2535 C2534 1.524 . S
C2535 C2536 1.415 . S
C2536 H2512 0.950 . S
C2536 C2531 1.363 . S
C2536 C2535 1.415 . S
C2537 H2513 0.951 . S
C2537 C2538 1.366 . S
C2537 C2539 1.388 . S
C2538 C2537 1.366 . S
C2538 C2542 1.385 . S
C2539 H2514 0.951 . S
C2539 C2537 1.388 . S
C2539 C2540 1.366 . S
C2540 C2539 1.366 . S
C2540 C2541 1.414 . S
C2540 C2543 1.499 . S
C2541 H2515 0.950 . S
C2541 C2540 1.414 . S
C2541 C2542 1.374 . S
C2542 H2516 0.950 . S
C2542 C2538 1.385 . S
C2542 C2541 1.374 . S
C2543 C2540 1.499 . S
C2543 C2544 1.373 . S
C2543 C2545 1.389 . S
C2544 H2517 0.950 . S
C2544 C2530 1.377 . S
C2544 C2543 1.373 . S
C2545 C2529 1.377 . S
C2545 C2543 1.389 . S
C2545 C2546 1.524 . S
C2546 C2545 1.524 . S
C2546 C2547 1.397 . S
C2546 C2551 1.363 . S
C2547 H2518 0.950 . S
C2547 C2546 1.397 . S
C2547 C2548 1.334 . S
C2548 H2519 0.950 . S
C2548 C2547 1.334 . S
C2548 C2549 1.287 . S
C2549 C2548 1.287 . S
C2549 C2550 1.524 . S
C2549 H2552 0.999 . S
C2550 H2520 0.950 . S
C2550 C2549 1.524 . S
C2550 C2551 1.415 . S
C2551 H2521 0.950 . S
C2551 C2546 1.363 . S
C2551 C2550 1.415 . S
H2552 C2549 0.999 . S
H2553 C2534 0.913 . S
H2554 C2572 0.951 . S
H2555 C2574 0.951 . S
H2556 C2576 0.950 . S
H2557 C2577 0.950 . S
H2558 C2579 0.950 . S
H2559 C2582 0.950 . S
H2560 C2583 0.950 . S
H2561 C2585 0.950 . S
H2562 C2586 0.950 . S
H2563 C2587 0.951 . S
H2564 C2589 0.951 . S
H2565 C2591 0.950 . S
H2566 C2592 0.950 . S
H2567 C2594 0.950 . S
H2568 C2597 0.950 . S
H2569 C2598 0.950 . S
H2570 C2600 0.950 . S
H2571 C2601 0.950 . S
C2572 H2554 0.951 . S
C2572 C2573 1.366 . S
C2572 C2574 1.388 . S
C2573 C2572 1.366 . S
C2573 C2577 1.385 . S
C2574 H2555 0.951 . S
C2574 C2572 1.388 . S
C2574 C2575 1.366 . S
C2575 C2574 1.366 . S
C2575 C2576 1.414 . S
C2575 C2578 1.499 . S
C2576 H2556 0.950 . S
C2576 C2575 1.414 . S
C2576 C2577 1.374 . S
C2577 H2557 0.950 . S
C2577 C2573 1.385 . S
C2577 C2576 1.374 . S
C2578 C2575 1.499 . S
C2578 C2579 1.373 . S
C2578 C2580 1.389 . S
C2579 H2558 0.950 . S
C2579 C2578 1.373 . S
C2579 C2595 1.377 . S
C2580 C2578 1.389 . S
C2580 C2581 1.524 . S
C2580 C2594 1.377 . S
C2581 C2580 1.524 . S
C2581 C2582 1.397 . S
C2581 C2586 1.363 . S
C2582 H2559 0.950 . S
C2582 C2581 1.397 . S
C2582 C2583 1.334 . S
C2583 H2560 0.950 . S
C2583 C2582 1.334 . S
C2583 C2584 1.287 . S
C2584 C2583 1.287 . S
C2584 C2585 1.524 . S
C2584 H2603 0.913 . S
C2585 H2561 0.950 . S
C2585 C2584 1.524 . S
C2585 C2586 1.415 . S
C2586 H2562 0.950 . S
C2586 C2581 1.363 . S
C2586 C2585 1.415 . S
C2587 H2563 0.951 . S
C2587 C2588 1.366 . S
C2587 C2589 1.388 . S
C2588 C2587 1.366 . S
C2588 C2592 1.385 . S
C2589 H2564 0.951 . S
C2589 C2587 1.388 . S
C2589 C2590 1.366 . S
C2590 C2589 1.366 . S
C2590 C2591 1.414 . S
C2590 C2593 1.499 . S
C2591 H2565 0.950 . S
C2591 C2590 1.414 . S
C2591 C2592 1.374 . S
C2592 H2566 0.950 . S
C2592 C2588 1.385 . S
C2592 C2591 1.374 . S
C2593 C2590 1.499 . S
C2593 C2594 1.373 . S
C2593 C2595 1.389 . S
C2594 H2567 0.950 . S
C2594 C2580 1.377 . S
C2594 C2593 1.373 . S
C2595 C2579 1.377 . S
C2595 C2593 1.389 . S
C2595 C2596 1.524 . S
C2596 C2595 1.524 . S
C2596 C2597 1.397 . S
C2596 C2601 1.363 . S
C2597 H2568 0.950 . S
C2597 C2596 1.397 . S
C2597 C2598 1.334 . S
C2598 H2569 0.950 . S
C2598 C2597 1.334 . S
C2598 C2599 1.287 . S
C2599 C2598 1.287 . S
C2599 C2600 1.524 . S
C2599 H2602 0.999 . S
C2600 H2570 0.950 . S
C2600 C2599 1.524 . S
C2600 C2601 1.415 . S
C2601 H2571 0.950 . S
C2601 C2596 1.363 . S
C2601 C2600 1.415 . S
H2602 C2599 0.999 . S
H2603 C2584 0.913 . S
H2604 C2622 0.951 . S
H2605 C2624 0.951 . S
H2606 C2626 0.950 . S
H2607 C2627 0.950 . S
H2608 C2629 0.950 . S
H2609 C2632 0.950 . S
H2610 C2633 0.950 . S
H2611 C2635 0.950 . S
H2612 C2636 0.950 . S
H2613 C2637 0.951 . S
H2614 C2639 0.951 . S
H2615 C2641 0.950 . S
H2616 C2642 0.950 . S
H2617 C2644 0.950 . S
H2618 C2647 0.950 . S
H2619 C2648 0.950 . S
H2620 C2650 0.950 . S
H2621 C2651 0.950 . S
C2622 H2604 0.951 . S
C2622 C2623 1.366 . S
C2622 C2624 1.388 . S
C2623 C2622 1.366 . S
C2623 C2627 1.385 . S
C2624 H2605 0.951 . S
C2624 C2622 1.388 . S
C2624 C2625 1.366 . S
C2625 C2624 1.366 . S
C2625 C2626 1.414 . S
C2625 C2628 1.499 . S
C2626 H2606 0.950 . S
C2626 C2625 1.414 . S
C2626 C2627 1.374 . S
C2627 H2607 0.950 . S
C2627 C2623 1.385 . S
C2627 C2626 1.374 . S
C2628 C2625 1.499 . S
C2628 C2629 1.373 . S
C2628 C2630 1.389 . S
C2629 H2608 0.950 . S
C2629 C2628 1.373 . S
C2629 C2645 1.377 . S
C2630 C2628 1.389 . S
C2630 C2631 1.524 . S
C2630 C2644 1.377 . S
C2631 C2630 1.524 . S
C2631 C2632 1.397 . S
C2631 C2636 1.363 . S
C2632 H2609 0.950 . S
C2632 C2631 1.397 . S
C2632 C2633 1.334 . S
C2633 H2610 0.950 . S
C2633 C2632 1.334 . S
C2633 C2634 1.287 . S
C2634 C2633 1.287 . S
C2634 C2635 1.524 . S
C2634 H2653 0.913 . S
C2635 H2611 0.950 . S
C2635 C2634 1.524 . S
C2635 C2636 1.415 . S
C2636 H2612 0.950 . S
C2636 C2631 1.363 . S
C2636 C2635 1.415 . S
C2637 H2613 0.951 . S
C2637 C2638 1.366 . S
C2637 C2639 1.388 . S
C2638 C2637 1.366 . S
C2638 C2642 1.385 . S
C2639 H2614 0.951 . S
C2639 C2637 1.388 . S
C2639 C2640 1.366 . S
C2640 C2639 1.366 . S
C2640 C2641 1.414 . S
C2640 C2643 1.499 . S
C2641 H2615 0.950 . S
C2641 C2640 1.414 . S
C2641 C2642 1.374 . S
C2642 H2616 0.950 . S
C2642 C2638 1.385 . S
C2642 C2641 1.374 . S
C2643 C2640 1.499 . S
C2643 C2644 1.373 . S
C2643 C2645 1.389 . S
C2644 H2617 0.950 . S
C2644 C2630 1.377 . S
C2644 C2643 1.373 . S
C2645 C2629 1.377 . S
C2645 C2643 1.389 . S
C2645 C2646 1.524 . S
C2646 C2645 1.524 . S
C2646 C2647 1.397 . S
C2646 C2651 1.363 . S
C2647 H2618 0.950 . S
C2647 C2646 1.397 . S
C2647 C2648 1.334 . S
C2648 H2619 0.950 . S
C2648 C2647 1.334 . S
C2648 C2649 1.287 . S
C2649 C2648 1.287 . S
C2649 C2650 1.524 . S
C2649 H2652 0.999 . S
C2650 H2620 0.950 . S
C2650 C2649 1.524 . S
C2650 C2651 1.415 . S
C2651 H2621 0.950 . S
C2651 C2646 1.363 . S
C2651 C2650 1.415 . S
H2652 C2649 0.999 . S
H2653 C2634 0.913 . S
H2654 C2672 0.951 . S
H2655 C2674 0.951 . S
H2656 C2676 0.950 . S
H2657 C2677 0.950 . S
H2658 C2679 0.950 . S
H2659 C2682 0.950 . S
H2660 C2683 0.950 . S
H2661 C2685 0.950 . S
H2662 C2686 0.950 . S
H2663 C2687 0.951 . S
H2664 C2689 0.951 . S
H2665 C2691 0.950 . S
H2666 C2692 0.950 . S
H2667 C2694 0.950 . S
H2668 C2697 0.950 . S
H2669 C2698 0.950 . S
H2670 C2700 0.950 . S
H2671 C2701 0.950 . S
C2672 H2654 0.951 . S
C2672 C2673 1.366 . S
C2672 C2674 1.388 . S
C2673 C2672 1.366 . S
C2673 C2677 1.385 . S
C2674 H2655 0.951 . S
C2674 C2672 1.388 . S
C2674 C2675 1.366 . S
C2675 C2674 1.366 . S
C2675 C2676 1.414 . S
C2675 C2678 1.499 . S
C2676 H2656 0.950 . S
C2676 C2675 1.414 . S
C2676 C2677 1.374 . S
C2677 H2657 0.950 . S
C2677 C2673 1.385 . S
C2677 C2676 1.374 . S
C2678 C2675 1.499 . S
C2678 C2679 1.373 . S
C2678 C2680 1.389 . S
C2679 H2658 0.950 . S
C2679 C2678 1.373 . S
C2679 C2695 1.377 . S
C2680 C2678 1.389 . S
C2680 C2681 1.524 . S
C2680 C2694 1.377 . S
C2681 C2680 1.524 . S
C2681 C2682 1.397 . S
C2681 C2686 1.363 . S
C2682 H2659 0.950 . S
C2682 C2681 1.397 . S
C2682 C2683 1.334 . S
C2683 H2660 0.950 . S
C2683 C2682 1.334 . S
C2683 C2684 1.287 . S
C2684 C2683 1.287 . S
C2684 C2685 1.524 . S
C2684 H2703 0.913 . S
C2685 H2661 0.950 . S
C2685 C2684 1.524 . S
C2685 C2686 1.415 . S
C2686 H2662 0.950 . S
C2686 C2681 1.363 . S
C2686 C2685 1.415 . S
C2687 H2663 0.951 . S
C2687 C2688 1.366 . S
C2687 C2689 1.388 . S
C2688 C2687 1.366 . S
C2688 C2692 1.385 . S
C2689 H2664 0.951 . S
C2689 C2687 1.388 . S
C2689 C2690 1.366 . S
C2690 C2689 1.366 . S
C2690 C2691 1.414 . S
C2690 C2693 1.499 . S
C2691 H2665 0.950 . S
C2691 C2690 1.414 . S
C2691 C2692 1.374 . S
C2692 H2666 0.950 . S
C2692 C2688 1.385 . S
C2692 C2691 1.374 . S
C2693 C2690 1.499 . S
C2693 C2694 1.373 . S
C2693 C2695 1.389 . S
C2694 H2667 0.950 . S
C2694 C2680 1.377 . S
C2694 C2693 1.373 . S
C2695 C2679 1.377 . S
C2695 C2693 1.389 . S
C2695 C2696 1.524 . S
C2696 C2695 1.524 . S
C2696 C2697 1.397 . S
C2696 C2701 1.363 . S
C2697 H2668 0.950 . S
C2697 C2696 1.397 . S
C2697 C2698 1.334 . S
C2698 H2669 0.950 . S
C2698 C2697 1.334 . S
C2698 C2699 1.287 . S
C2699 C2698 1.287 . S
C2699 C2700 1.524 . S
C2699 H2702 0.999 . S
C2700 H2670 0.950 . S
C2700 C2699 1.524 . S
C2700 C2701 1.415 . S
C2701 H2671 0.950 . S
C2701 C2696 1.363 . S
C2701 C2700 1.415 . S
H2702 C2699 0.999 . S
H2703 C2684 0.913 . S
H2704 C2722 0.951 . S
H2705 C2724 0.951 . S
H2706 C2726 0.950 . S
H2707 C2727 0.950 . S
H2708 C2729 0.950 . S
H2709 C2732 0.950 . S
H2710 C2733 0.950 . S
H2711 C2735 0.950 . S
H2712 C2736 0.950 . S
H2713 C2737 0.951 . S
H2714 C2739 0.951 . S
H2715 C2741 0.950 . S
H2716 C2742 0.950 . S
H2717 C2744 0.950 . S
H2718 C2747 0.950 . S
H2719 C2748 0.950 . S
H2720 C2750 0.950 . S
H2721 C2751 0.950 . S
C2722 H2704 0.951 . S
C2722 C2723 1.366 . S
C2722 C2724 1.388 . S
C2723 C2722 1.366 . S
C2723 C2727 1.385 . S
C2724 H2705 0.951 . S
C2724 C2722 1.388 . S
C2724 C2725 1.366 . S
C2725 C2724 1.366 . S
C2725 C2726 1.414 . S
C2725 C2728 1.499 . S
C2726 H2706 0.950 . S
C2726 C2725 1.414 . S
C2726 C2727 1.374 . S
C2727 H2707 0.950 . S
C2727 C2723 1.385 . S
C2727 C2726 1.374 . S
C2728 C2725 1.499 . S
C2728 C2729 1.373 . S
C2728 C2730 1.389 . S
C2729 H2708 0.950 . S
C2729 C2728 1.373 . S
C2729 C2745 1.377 . S
C2730 C2728 1.389 . S
C2730 C2731 1.524 . S
C2730 C2744 1.377 . S
C2731 C2730 1.524 . S
C2731 C2732 1.397 . S
C2731 C2736 1.363 . S
C2732 H2709 0.950 . S
C2732 C2731 1.397 . S
C2732 C2733 1.334 . S
C2733 H2710 0.950 . S
C2733 C2732 1.334 . S
C2733 C2734 1.287 . S
C2734 C2733 1.287 . S
C2734 C2735 1.524 . S
C2734 H2753 0.913 . S
C2735 H2711 0.950 . S
C2735 C2734 1.524 . S
C2735 C2736 1.415 . S
C2736 H2712 0.950 . S
C2736 C2731 1.363 . S
C2736 C2735 1.415 . S
C2737 H2713 0.951 . S
C2737 C2738 1.366 . S
C2737 C2739 1.388 . S
C2738 C2737 1.366 . S
C2738 C2742 1.385 . S
C2739 H2714 0.951 . S
C2739 C2737 1.388 . S
C2739 C2740 1.366 . S
C2740 C2739 1.366 . S
C2740 C2741 1.414 . S
C2740 C2743 1.499 . S
C2741 H2715 0.950 . S
C2741 C2740 1.414 . S
C2741 C2742 1.374 . S
C2742 H2716 0.950 . S
C2742 C2738 1.385 . S
C2742 C2741 1.374 . S
C2743 C2740 1.499 . S
C2743 C2744 1.373 . S
C2743 C2745 1.389 . S
C2744 H2717 0.950 . S
C2744 C2730 1.377 . S
C2744 C2743 1.373 . S
C2745 C2729 1.377 . S
C2745 C2743 1.389 . S
C2745 C2746 1.524 . S
C2746 C2745 1.524 . S
C2746 C2747 1.397 . S
C2746 C2751 1.363 . S
C2747 H2718 0.950 . S
C2747 C2746 1.397 . S
C2747 C2748 1.334 . S
C2748 H2719 0.950 . S
C2748 C2747 1.334 . S
C2748 C2749 1.287 . S
C2749 C2748 1.287 . S
C2749 C2750 1.524 . S
C2749 H2752 0.999 . S
C2750 H2720 0.950 . S
C2750 C2749 1.524 . S
C2750 C2751 1.415 . S
C2751 H2721 0.950 . S
C2751 C2746 1.363 . S
C2751 C2750 1.415 . S
H2752 C2749 0.999 . S
H2753 C2734 0.913 . S
H2754 C2772 0.951 . S
H2755 C2774 0.951 . S
H2756 C2776 0.950 . S
H2757 C2777 0.950 . S
H2758 C2779 0.950 . S
H2759 C2782 0.950 . S
H2760 C2783 0.950 . S
H2761 C2785 0.950 . S
H2762 C2786 0.950 . S
H2763 C2787 0.951 . S
H2764 C2789 0.951 . S
H2765 C2791 0.950 . S
H2766 C2792 0.950 . S
H2767 C2794 0.950 . S
H2768 C2797 0.950 . S
H2769 C2798 0.950 . S
H2770 C2800 0.950 . S
H2771 C2801 0.950 . S
C2772 H2754 0.951 . S
C2772 C2773 1.366 . S
C2772 C2774 1.388 . S
C2773 C2772 1.366 . S
C2773 C2777 1.385 . S
C2774 H2755 0.951 . S
C2774 C2772 1.388 . S
C2774 C2775 1.366 . S
C2775 C2774 1.366 . S
C2775 C2776 1.414 . S
C2775 C2778 1.499 . S
C2776 H2756 0.950 . S
C2776 C2775 1.414 . S
C2776 C2777 1.374 . S
C2777 H2757 0.950 . S
C2777 C2773 1.385 . S
C2777 C2776 1.374 . S
C2778 C2775 1.499 . S
C2778 C2779 1.373 . S
C2778 C2780 1.389 . S
C2779 H2758 0.950 . S
C2779 C2778 1.373 . S
C2779 C2795 1.377 . S
C2780 C2778 1.389 . S
C2780 C2781 1.524 . S
C2780 C2794 1.377 . S
C2781 C2780 1.524 . S
C2781 C2782 1.397 . S
C2781 C2786 1.363 . S
C2782 H2759 0.950 . S
C2782 C2781 1.397 . S
C2782 C2783 1.334 . S
C2783 H2760 0.950 . S
C2783 C2782 1.334 . S
C2783 C2784 1.287 . S
C2784 C2783 1.287 . S
C2784 C2785 1.524 . S
C2784 H2803 0.913 . S
C2785 H2761 0.950 . S
C2785 C2784 1.524 . S
C2785 C2786 1.415 . S
C2786 H2762 0.950 . S
C2786 C2781 1.363 . S
C2786 C2785 1.415 . S
C2787 H2763 0.951 . S
C2787 C2788 1.366 . S
C2787 C2789 1.388 . S
C2788 C2787 1.366 . S
C2788 C2792 1.385 . S
C2789 H2764 0.951 . S
C2789 C2787 1.388 . S
C2789 C2790 1.366 . S
C2790 C2789 1.366 . S
C2790 C2791 1.414 . S
C2790 C2793 1.499 . S
C2791 H2765 0.950 . S
C2791 C2790 1.414 . S
C2791 C2792 1.374 . S
C2792 H2766 0.950 . S
C2792 C2788 1.385 . S
C2792 C2791 1.374 . S
C2793 C2790 1.499 . S
C2793 C2794 1.373 . S
C2793 C2795 1.389 . S
C2794 H2767 0.950 . S
C2794 C2780 1.377 . S
C2794 C2793 1.373 . S
C2795 C2779 1.377 . S
C2795 C2793 1.389 . S
C2795 C2796 1.524 . S
C2796 C2795 1.524 . S
C2796 C2797 1.397 . S
C2796 C2801 1.363 . S
C2797 H2768 0.950 . S
C2797 C2796 1.397 . S
C2797 C2798 1.334 . S
C2798 H2769 0.950 . S
C2798 C2797 1.334 . S
C2798 C2799 1.287 . S
C2799 C2798 1.287 . S
C2799 C2800 1.524 . S
C2799 H2802 0.999 . S
C2800 H2770 0.950 . S
C2800 C2799 1.524 . S
C2800 C2801 1.415 . S
C2801 H2771 0.950 . S
C2801 C2796 1.363 . S
C2801 C2800 1.415 . S
H2802 C2799 0.999 . S
H2803 C2784 0.913 . S
H2804 C2822 0.951 . S
H2805 C2824 0.951 . S
H2806 C2826 0.950 . S
H2807 C2827 0.950 . S
H2808 C2829 0.950 . S
H2809 C2832 0.950 . S
H2810 C2833 0.950 . S
H2811 C2835 0.950 . S
H2812 C2836 0.950 . S
H2813 C2837 0.951 . S
H2814 C2839 0.951 . S
H2815 C2841 0.950 . S
H2816 C2842 0.950 . S
H2817 C2844 0.950 . S
H2818 C2847 0.950 . S
H2819 C2848 0.950 . S
H2820 C2850 0.950 . S
H2821 C2851 0.950 . S
C2822 H2804 0.951 . S
C2822 C2823 1.366 . S
C2822 C2824 1.388 . S
C2823 C2822 1.366 . S
C2823 C2827 1.385 . S
C2824 H2805 0.951 . S
C2824 C2822 1.388 . S
C2824 C2825 1.366 . S
C2825 C2824 1.366 . S
C2825 C2826 1.414 . S
C2825 C2828 1.499 . S
C2826 H2806 0.950 . S
C2826 C2825 1.414 . S
C2826 C2827 1.374 . S
C2827 H2807 0.950 . S
C2827 C2823 1.385 . S
C2827 C2826 1.374 . S
C2828 C2825 1.499 . S
C2828 C2829 1.373 . S
C2828 C2830 1.389 . S
C2829 H2808 0.950 . S
C2829 C2828 1.373 . S
C2829 C2845 1.377 . S
C2830 C2828 1.389 . S
C2830 C2831 1.524 . S
C2830 C2844 1.377 . S
C2831 C2830 1.524 . S
C2831 C2832 1.397 . S
C2831 C2836 1.363 . S
C2832 H2809 0.950 . S
C2832 C2831 1.397 . S
C2832 C2833 1.334 . S
C2833 H2810 0.950 . S
C2833 C2832 1.334 . S
C2833 C2834 1.287 . S
C2834 C2833 1.287 . S
C2834 C2835 1.524 . S
C2834 H2853 0.913 . S
C2835 H2811 0.950 . S
C2835 C2834 1.524 . S
C2835 C2836 1.415 . S
C2836 H2812 0.950 . S
C2836 C2831 1.363 . S
C2836 C2835 1.415 . S
C2837 H2813 0.951 . S
C2837 C2838 1.366 . S
C2837 C2839 1.388 . S
C2838 C2837 1.366 . S
C2838 C2842 1.385 . S
C2839 H2814 0.951 . S
C2839 C2837 1.388 . S
C2839 C2840 1.366 . S
C2840 C2839 1.366 . S
C2840 C2841 1.414 . S
C2840 C2843 1.499 . S
C2841 H2815 0.950 . S
C2841 C2840 1.414 . S
C2841 C2842 1.374 . S
C2842 H2816 0.950 . S
C2842 C2838 1.385 . S
C2842 C2841 1.374 . S
C2843 C2840 1.499 . S
C2843 C2844 1.373 . S
C2843 C2845 1.389 . S
C2844 H2817 0.950 . S
C2844 C2830 1.377 . S
C2844 C2843 1.373 . S
C2845 C2829 1.377 . S
C2845 C2843 1.389 . S
C2845 C2846 1.524 . S
C2846 C2845 1.524 . S
C2846 C2847 1.397 . S
C2846 C2851 1.363 . S
C2847 H2818 0.950 . S
C2847 C2846 1.397 . S
C2847 C2848 1.334 . S
C2848 H2819 0.950 . S
C2848 C2847 1.334 . S
C2848 C2849 1.287 . S
C2849 C2848 1.287 . S
C2849 C2850 1.524 . S
C2849 H2852 0.999 . S
C2850 H2820 0.950 . S
C2850 C2849 1.524 . S
C2850 C2851 1.415 . S
C2851 H2821 0.950 . S
C2851 C2846 1.363 . S
C2851 C2850 1.415 . S
H2852 C2849 0.999 . S
H2853 C2834 0.913 . S
H2854 C2872 0.951 . S
H2855 C2874 0.951 . S
H2856 C2876 0.950 . S
H2857 C2877 0.950 . S
H2858 C2879 0.950 . S
H2859 C2882 0.950 . S
H2860 C2883 0.950 . S
H2861 C2885 0.950 . S
H2862 C2886 0.950 . S
H2863 C2887 0.951 . S
H2864 C2889 0.951 . S
H2865 C2891 0.950 . S
H2866 C2892 0.950 . S
H2867 C2894 0.950 . S
H2868 C2897 0.950 . S
H2869 C2898 0.950 . S
H2870 C2900 0.950 . S
H2871 C2901 0.950 . S
C2872 H2854 0.951 . S
C2872 C2873 1.366 . S
C2872 C2874 1.388 . S
C2873 C2872 1.366 . S
C2873 C2877 1.385 . S
C2874 H2855 0.951 . S
C2874 C2872 1.388 . S
C2874 C2875 1.366 . S
C2875 C2874 1.366 . S
C2875 C2876 1.414 . S
C2875 C2878 1.499 . S
C2876 H2856 0.950 . S
C2876 C2875 1.414 . S
C2876 C2877 1.374 . S
C2877 H2857 0.950 . S
C2877 C2873 1.385 . S
C2877 C2876 1.374 . S
C2878 C2875 1.499 . S
C2878 C2879 1.373 . S
C2878 C2880 1.389 . S
C2879 H2858 0.950 . S
C2879 C2878 1.373 . S
C2879 C2895 1.377 . S
C2880 C2878 1.389 . S
C2880 C2881 1.524 . S
C2880 C2894 1.377 . S
C2881 C2880 1.524 . S
C2881 C2882 1.397 . S
C2881 C2886 1.363 . S
C2882 H2859 0.950 . S
C2882 C2881 1.397 . S
C2882 C2883 1.334 . S
C2883 H2860 0.950 . S
C2883 C2882 1.334 . S
C2883 C2884 1.287 . S
C2884 C2883 1.287 . S
C2884 C2885 1.524 . S
C2884 H2903 0.913 . S
C2885 H2861 0.950 . S
C2885 C2884 1.524 . S
C2885 C2886 1.415 . S
C2886 H2862 0.950 . S
C2886 C2881 1.363 . S
C2886 C2885 1.415 . S
C2887 H2863 0.951 . S
C2887 C2888 1.366 . S
C2887 C2889 1.388 . S
C2888 C2887 1.366 . S
C2888 C2892 1.385 . S
C2889 H2864 0.951 . S
C2889 C2887 1.388 . S
C2889 C2890 1.366 . S
C2890 C2889 1.366 . S
C2890 C2891 1.414 . S
C2890 C2893 1.499 . S
C2891 H2865 0.950 . S
C2891 C2890 1.414 . S
C2891 C2892 1.374 . S
C2892 H2866 0.950 . S
C2892 C2888 1.385 . S
C2892 C2891 1.374 . S
C2893 C2890 1.499 . S
C2893 C2894 1.373 . S
C2893 C2895 1.389 . S
C2894 H2867 0.950 . S
C2894 C2880 1.377 . S
C2894 C2893 1.373 . S
C2895 C2879 1.377 . S
C2895 C2893 1.389 . S
C2895 C2896 1.524 . S
C2896 C2895 1.524 . S
C2896 C2897 1.397 . S
C2896 C2901 1.363 . S
C2897 H2868 0.950 . S
C2897 C2896 1.397 . S
C2897 C2898 1.334 . S
C2898 H2869 0.950 . S
C2898 C2897 1.334 . S
C2898 C2899 1.287 . S
C2899 C2898 1.287 . S
C2899 C2900 1.524 . S
C2899 H2902 0.999 . S
C2900 H2870 0.950 . S
C2900 C2899 1.524 . S
C2900 C2901 1.415 . S
C2901 H2871 0.950 . S
C2901 C2896 1.363 . S
C2901 C2900 1.415 . S
H2902 C2899 0.999 . S
H2903 C2884 0.913 . S
H2904 C2922 0.951 . S
H2905 C2924 0.951 . S
H2906 C2926 0.950 . S
H2907 C2927 0.950 . S
H2908 C2929 0.950 . S
H2909 C2932 0.950 . S
H2910 C2933 0.950 . S
H2911 C2935 0.950 . S
H2912 C2936 0.950 . S
H2913 C2937 0.951 . S
H2914 C2939 0.951 . S
H2915 C2941 0.950 . S
H2916 C2942 0.950 . S
H2917 C2944 0.950 . S
H2918 C2947 0.950 . S
H2919 C2948 0.950 . S
H2920 C2950 0.950 . S
H2921 C2951 0.950 . S
C2922 H2904 0.951 . S
C2922 C2923 1.366 . S
C2922 C2924 1.388 . S
C2923 C2922 1.366 . S
C2923 C2927 1.385 . S
C2924 H2905 0.951 . S
C2924 C2922 1.388 . S
C2924 C2925 1.366 . S
C2925 C2924 1.366 . S
C2925 C2926 1.414 . S
C2925 C2928 1.499 . S
C2926 H2906 0.950 . S
C2926 C2925 1.414 . S
C2926 C2927 1.374 . S
C2927 H2907 0.950 . S
C2927 C2923 1.385 . S
C2927 C2926 1.374 . S
C2928 C2925 1.499 . S
C2928 C2929 1.373 . S
C2928 C2930 1.389 . S
C2929 H2908 0.950 . S
C2929 C2928 1.373 . S
C2929 C2945 1.377 . S
C2930 C2928 1.389 . S
C2930 C2931 1.524 . S
C2930 C2944 1.377 . S
C2931 C2930 1.524 . S
C2931 C2932 1.397 . S
C2931 C2936 1.363 . S
C2932 H2909 0.950 . S
C2932 C2931 1.397 . S
C2932 C2933 1.334 . S
C2933 H2910 0.950 . S
C2933 C2932 1.334 . S
C2933 C2934 1.287 . S
C2934 C2933 1.287 . S
C2934 C2935 1.524 . S
C2934 H2953 0.913 . S
C2935 H2911 0.950 . S
C2935 C2934 1.524 . S
C2935 C2936 1.415 . S
C2936 H2912 0.950 . S
C2936 C2931 1.363 . S
C2936 C2935 1.415 . S
C2937 H2913 0.951 . S
C2937 C2938 1.366 1_556 S
C2937 C2939 1.388 . S
C2938 C2937 1.366 1_554 S
C2938 C2942 1.385 . S
C2939 H2914 0.951 . S
C2939 C2937 1.388 . S
C2939 C2940 1.366 . S
C2940 C2939 1.366 . S
C2940 C2941 1.414 . S
C2940 C2943 1.499 . S
C2941 H2915 0.950 . S
C2941 C2940 1.414 . S
C2941 C2942 1.374 1_556 S
C2942 H2916 0.950 . S
C2942 C2938 1.385 . S
C2942 C2941 1.374 1_554 S
C2943 C2940 1.499 . S
C2943 C2944 1.373 . S
C2943 C2945 1.389 . S
C2944 H2917 0.950 . S
C2944 C2930 1.377 . S
C2944 C2943 1.373 . S
C2945 C2929 1.377 . S
C2945 C2943 1.389 . S
C2945 C2946 1.524 . S
C2946 C2945 1.524 . S
C2946 C2947 1.397 . S
C2946 C2951 1.363 . S
C2947 H2918 0.950 . S
C2947 C2946 1.397 . S
C2947 C2948 1.334 . S
C2948 H2919 0.950 . S
C2948 C2947 1.334 . S
C2948 C2949 1.287 . S
C2949 C2948 1.287 . S
C2949 C2950 1.524 . S
C2949 H2952 0.999 . S
C2950 H2920 0.950 . S
C2950 C2949 1.524 . S
C2950 C2951 1.415 . S
C2951 H2921 0.950 . S
C2951 C2946 1.363 . S
C2951 C2950 1.415 . S
H2952 C2949 0.999 . S
H2953 C2934 0.913 . S
H2954 C2972 0.951 . S
H2955 C2974 0.951 . S
H2956 C2976 0.950 . S
H2957 C2977 0.950 . S
H2958 C2979 0.950 . S
H2959 C2982 0.950 . S
H2960 C2983 0.950 . S
H2961 C2985 0.950 . S
H2962 C2986 0.950 . S
H2963 C2987 0.951 . S
H2964 C2989 0.951 . S
H2965 C2991 0.950 . S
H2966 C2992 0.950 . S
H2967 C2994 0.950 . S
H2968 C2997 0.950 . S
H2969 C2998 0.950 . S
H2970 C3000 0.950 . S
H2971 C3001 0.950 . S
C2972 H2954 0.951 . S
C2972 C2973 1.366 . S
C2972 C2974 1.388 1_554 S
C2973 C2972 1.366 . S
C2973 C2977 1.385 1_554 S
C2974 H2955 0.951 . S
C2974 C2972 1.388 1_556 S
C2974 C2975 1.366 . S
C2975 C2974 1.366 . S
C2975 C2976 1.414 . S
C2975 C2978 1.499 . S
C2976 H2956 0.950 . S
C2976 C2975 1.414 . S
C2976 C2977 1.374 . S
C2977 H2957 0.950 . S
C2977 C2973 1.385 1_556 S
C2977 C2976 1.374 . S
C2978 C2975 1.499 . S
C2978 C2979 1.373 . S
C2978 C2980 1.389 . S
C2979 H2958 0.950 . S
C2979 C2978 1.373 . S
C2979 C2995 1.377 . S
C2980 C2978 1.389 . S
C2980 C2981 1.524 . S
C2980 C2994 1.377 . S
C2981 C2980 1.524 . S
C2981 C2982 1.397 . S
C2981 C2986 1.363 . S
C2982 H2959 0.950 . S
C2982 C2981 1.397 . S
C2982 C2983 1.334 . S
C2983 H2960 0.950 . S
C2983 C2982 1.334 . S
C2983 C2984 1.287 . S
C2984 C2983 1.287 . S
C2984 C2985 1.524 . S
C2984 H3003 0.913 . S
C2985 H2961 0.950 . S
C2985 C2984 1.524 . S
C2985 C2986 1.415 . S
C2986 H2962 0.950 . S
C2986 C2981 1.363 . S
C2986 C2985 1.415 . S
C2987 H2963 0.951 . S
C2987 C2988 1.366 . S
C2987 C2989 1.388 . S
C2988 C2987 1.366 . S
C2988 C2992 1.385 . S
C2989 H2964 0.951 . S
C2989 C2987 1.388 . S
C2989 C2990 1.366 . S
C2990 C2989 1.366 . S
C2990 C2991 1.414 . S
C2990 C2993 1.499 . S
C2991 H2965 0.950 . S
C2991 C2990 1.414 . S
C2991 C2992 1.374 . S
C2992 H2966 0.950 . S
C2992 C2988 1.385 . S
C2992 C2991 1.374 . S
C2993 C2990 1.499 . S
C2993 C2994 1.373 . S
C2993 C2995 1.389 . S
C2994 H2967 0.950 . S
C2994 C2980 1.377 . S
C2994 C2993 1.373 . S
C2995 C2979 1.377 . S
C2995 C2993 1.389 . S
C2995 C2996 1.524 . S
C2996 C2995 1.524 . S
C2996 C2997 1.397 . S
C2996 C3001 1.363 . S
C2997 H2968 0.950 . S
C2997 C2996 1.397 . S
C2997 C2998 1.334 . S
C2998 H2969 0.950 . S
C2998 C2997 1.334 . S
C2998 C2999 1.287 . S
C2999 C2998 1.287 . S
C2999 C3000 1.524 . S
C2999 H3002 0.999 . S
C3000 H2970 0.950 . S
C3000 C2999 1.524 . S
C3000 C3001 1.415 . S
C3001 H2971 0.950 . S
C3001 C2996 1.363 . S
C3001 C3000 1.415 . S
H3002 C2999 0.999 . S
H3003 C2984 0.913 . S
H3004 C3022 0.951 . S
H3005 C3024 0.951 . S
H3006 C3026 0.950 . S
H3007 C3027 0.950 . S
H3008 C3029 0.950 . S
H3009 C3032 0.950 . S
H3010 C3033 0.950 . S
H3011 C3035 0.950 . S
H3012 C3036 0.950 . S
H3013 C3037 0.951 . S
H3014 C3039 0.951 . S
H3015 C3041 0.950 . S
H3016 C3042 0.950 . S
H3017 C3044 0.950 . S
H3018 C3047 0.950 . S
H3019 C3048 0.950 . S
H3020 C3050 0.950 . S
H3021 C3051 0.950 . S
C3022 H3004 0.951 . S
C3022 C3023 1.366 . S
C3022 C3024 1.388 . S
C3023 C3022 1.366 . S
C3023 C3027 1.385 . S
C3024 H3005 0.951 . S
C3024 C3022 1.388 . S
C3024 C3025 1.366 . S
C3025 C3024 1.366 . S
C3025 C3026 1.414 . S
C3025 C3028 1.499 . S
C3026 H3006 0.950 . S
C3026 C3025 1.414 . S
C3026 C3027 1.374 . S
C3027 H3007 0.950 . S
C3027 C3023 1.385 . S
C3027 C3026 1.374 . S
C3028 C3025 1.499 . S
C3028 C3029 1.373 . S
C3028 C3030 1.389 . S
C3029 H3008 0.950 . S
C3029 C3028 1.373 . S
C3029 C3045 1.377 . S
C3030 C3028 1.389 . S
C3030 C3031 1.524 . S
C3030 C3044 1.377 . S
C3031 C3030 1.524 . S
C3031 C3032 1.397 . S
C3031 C3036 1.363 . S
C3032 H3009 0.950 . S
C3032 C3031 1.397 . S
C3032 C3033 1.334 . S
C3033 H3010 0.950 . S
C3033 C3032 1.334 . S
C3033 C3034 1.287 . S
C3034 C3033 1.287 . S
C3034 C3035 1.524 . S
C3034 H3053 0.913 . S
C3035 H3011 0.950 . S
C3035 C3034 1.524 . S
C3035 C3036 1.415 . S
C3036 H3012 0.950 . S
C3036 C3031 1.363 . S
C3036 C3035 1.415 . S
C3037 H3013 0.951 . S
C3037 C3038 1.366 1_556 S
C3037 C3039 1.388 . S
C3038 C3037 1.366 1_554 S
C3038 C3042 1.385 . S
C3039 H3014 0.951 . S
C3039 C3037 1.388 . S
C3039 C3040 1.366 . S
C3040 C3039 1.366 . S
C3040 C3041 1.414 . S
C3040 C3043 1.499 . S
C3041 H3015 0.950 . S
C3041 C3040 1.414 . S
C3041 C3042 1.374 1_556 S
C3042 H3016 0.950 . S
C3042 C3038 1.385 . S
C3042 C3041 1.374 1_554 S
C3043 C3040 1.499 . S
C3043 C3044 1.373 . S
C3043 C3045 1.389 . S
C3044 H3017 0.950 . S
C3044 C3030 1.377 . S
C3044 C3043 1.373 . S
C3045 C3029 1.377 . S
C3045 C3043 1.389 . S
C3045 C3046 1.524 . S
C3046 C3045 1.524 . S
C3046 C3047 1.397 . S
C3046 C3051 1.363 . S
C3047 H3018 0.950 . S
C3047 C3046 1.397 . S
C3047 C3048 1.334 . S
C3048 H3019 0.950 . S
C3048 C3047 1.334 . S
C3048 C3049 1.287 . S
C3049 C3048 1.287 . S
C3049 C3050 1.524 . S
C3049 H3052 0.999 . S
C3050 H3020 0.950 . S
C3050 C3049 1.524 . S
C3050 C3051 1.415 . S
C3051 H3021 0.950 . S
C3051 C3046 1.363 . S
C3051 C3050 1.415 . S
H3052 C3049 0.999 . S
H3053 C3034 0.913 . S
H3054 C3072 0.951 . S
H3055 C3074 0.951 . S
H3056 C3076 0.950 . S
H3057 C3077 0.950 . S
H3058 C3079 0.950 . S
H3059 C3082 0.950 . S
H3060 C3083 0.950 . S
H3061 C3085 0.950 . S
H3062 C3086 0.950 . S
H3063 C3087 0.951 . S
H3064 C3089 0.951 1_556 S
H3065 C3091 0.950 . S
H3066 C3092 0.950 . S
H3067 C3094 0.950 . S
H3068 C3097 0.950 1_554 S
H3069 C3098 0.950 1_554 S
H3070 C3100 0.950 . S
H3071 C3101 0.950 . S
C3072 H3054 0.951 . S
C3072 C3073 1.366 . S
C3072 C3074 1.388 . S
C3073 C3072 1.366 . S
C3073 C3077 1.385 . S
C3074 H3055 0.951 . S
C3074 C3072 1.388 . S
C3074 C3075 1.366 . S
C3075 C3074 1.366 . S
C3075 C3076 1.414 . S
C3075 C3078 1.499 . S
C3076 H3056 0.950 . S
C3076 C3075 1.414 . S
C3076 C3077 1.374 . S
C3077 H3057 0.950 . S
C3077 C3073 1.385 . S
C3077 C3076 1.374 . S
C3078 C3075 1.499 . S
C3078 C3079 1.373 . S
C3078 C3080 1.389 . S
C3079 H3058 0.950 . S
C3079 C3078 1.373 . S
C3079 C3095 1.377 . S
C3080 C3078 1.389 . S
C3080 C3081 1.524 . S
C3080 C3094 1.377 1_556 S
C3081 C3080 1.524 . S
C3081 C3082 1.397 . S
C3081 C3086 1.363 1_556 S
C3082 H3059 0.950 . S
C3082 C3081 1.397 . S
C3082 C3083 1.334 . S
C3083 H3060 0.950 . S
C3083 C3082 1.334 . S
C3083 C3084 1.287 . S
C3084 C3083 1.287 . S
C3084 C3085 1.524 1_556 S
C3084 H3103 0.913 . S
C3085 H3061 0.950 . S
C3085 C3084 1.524 1_554 S
C3085 C3086 1.415 . S
C3086 H3062 0.950 . S
C3086 C3081 1.363 1_554 S
C3086 C3085 1.415 . S
C3087 H3063 0.951 . S
C3087 C3088 1.366 . S
C3087 C3089 1.388 . S
C3088 C3087 1.366 . S
C3088 C3092 1.385 . S
C3089 H3064 0.951 1_554 S
C3089 C3087 1.388 . S
C3089 C3090 1.366 . S
C3090 C3089 1.366 . S
C3090 C3091 1.414 . S
C3090 C3093 1.499 . S
C3091 H3065 0.950 . S
C3091 C3090 1.414 . S
C3091 C3092 1.374 . S
C3092 H3066 0.950 . S
C3092 C3088 1.385 . S
C3092 C3091 1.374 . S
C3093 C3090 1.499 . S
C3093 C3094 1.373 . S
C3093 C3095 1.389 1_554 S
C3094 H3067 0.950 . S
C3094 C3080 1.377 1_554 S
C3094 C3093 1.373 . S
C3095 C3079 1.377 . S
C3095 C3093 1.389 1_556 S
C3095 C3096 1.524 . S
C3096 C3095 1.524 . S
C3096 C3097 1.397 . S
C3096 C3101 1.363 . S
C3097 H3068 0.950 1_556 S
C3097 C3096 1.397 . S
C3097 C3098 1.334 . S
C3098 H3069 0.950 1_556 S
C3098 C3097 1.334 . S
C3098 C3099 1.287 . S
C3099 C3098 1.287 . S
C3099 C3100 1.524 . S
C3099 H3102 0.999 . S
C3100 H3070 0.950 . S
C3100 C3099 1.524 . S
C3100 C3101 1.415 . S
C3101 H3071 0.950 . S
C3101 C3096 1.363 . S
C3101 C3100 1.415 . S
H3102 C3099 0.999 . S
H3103 C3084 0.913 . S
H3104 C3122 0.951 . S
H3105 C3124 0.951 . S
H3106 C3126 0.950 . S
H3107 C3127 0.950 . S
H3108 C3129 0.950 . S
H3109 C3132 0.950 . S
H3110 C3133 0.950 . S
H3111 C3135 0.950 . S
H3112 C3136 0.950 . S
H3113 C3137 0.951 . S
H3114 C3139 0.951 . S
H3115 C3141 0.950 . S
H3116 C3142 0.950 . S
H3117 C3144 0.950 . S
H3118 C3147 0.950 . S
H3119 C3148 0.950 . S
H3120 C3150 0.950 . S
H3121 C3151 0.950 . S
C3122 H3104 0.951 . S
C3122 C3123 1.366 . S
C3122 C3124 1.388 . S
C3123 C3122 1.366 . S
C3123 C3127 1.385 . S
C3124 H3105 0.951 . S
C3124 C3122 1.388 . S
C3124 C3125 1.366 . S
C3125 C3124 1.366 . S
C3125 C3126 1.414 . S
C3125 C3128 1.499 . S
C3126 H3106 0.950 . S
C3126 C3125 1.414 . S
C3126 C3127 1.374 . S
C3127 H3107 0.950 . S
C3127 C3123 1.385 . S
C3127 C3126 1.374 . S
C3128 C3125 1.499 . S
C3128 C3129 1.373 . S
C3128 C3130 1.389 . S
C3129 H3108 0.950 . S
C3129 C3128 1.373 . S
C3129 C3145 1.377 1_556 S
C3130 C3128 1.389 . S
C3130 C3131 1.524 . S
C3130 C3144 1.377 . S
C3131 C3130 1.524 . S
C3131 C3132 1.397 . S
C3131 C3136 1.363 . S
C3132 H3109 0.950 . S
C3132 C3131 1.397 . S
C3132 C3133 1.334 . S
C3133 H3110 0.950 . S
C3133 C3132 1.334 . S
C3133 C3134 1.287 . S
C3134 C3133 1.287 . S
C3134 C3135 1.524 . S
C3134 H3153 0.913 . S
C3135 H3111 0.950 . S
C3135 C3134 1.524 . S
C3135 C3136 1.415 . S
C3136 H3112 0.950 . S
C3136 C3131 1.363 . S
C3136 C3135 1.415 . S
C3137 H3113 0.951 . S
C3137 C3138 1.366 . S
C3137 C3139 1.388 . S
C3138 C3137 1.366 . S
C3138 C3142 1.385 . S
C3139 H3114 0.951 . S
C3139 C3137 1.388 . S
C3139 C3140 1.366 . S
C3140 C3139 1.366 . S
C3140 C3141 1.414 . S
C3140 C3143 1.499 . S
C3141 H3115 0.950 . S
C3141 C3140 1.414 . S
C3141 C3142 1.374 . S
C3142 H3116 0.950 . S
C3142 C3138 1.385 . S
C3142 C3141 1.374 . S
C3143 C3140 1.499 . S
C3143 C3144 1.373 1_554 S
C3143 C3145 1.389 . S
C3144 H3117 0.950 . S
C3144 C3130 1.377 . S
C3144 C3143 1.373 1_556 S
C3145 C3129 1.377 1_554 S
C3145 C3143 1.389 . S
C3145 C3146 1.524 . S
C3146 C3145 1.524 . S
C3146 C3147 1.397 . S
C3146 C3151 1.363 . S
C3147 H3118 0.950 . S
C3147 C3146 1.397 . S
C3147 C3148 1.334 . S
C3148 H3119 0.950 . S
C3148 C3147 1.334 . S
C3148 C3149 1.287 . S
C3149 C3148 1.287 . S
C3149 C3150 1.524 . S
C3149 H3152 0.999 . S
C3150 H3120 0.950 . S
C3150 C3149 1.524 . S
C3150 C3151 1.415 . S
C3151 H3121 0.950 . S
C3151 C3146 1.363 . S
C3151 C3150 1.415 . S
H3152 C3149 0.999 . S
H3153 C3134 0.913 . S
H3154 C3172 0.951 . S
H3155 C3174 0.951 . S
H3156 C3176 0.950 . S
H3157 C3177 0.950 . S
H3158 C3179 0.950 . S
H3159 C3182 0.950 . S
H3160 C3183 0.950 . S
H3161 C3185 0.950 . S
H3162 C3186 0.950 . S
H3163 C3187 0.951 . S
H3164 C3189 0.951 . S
H3165 C3191 0.950 . S
H3166 C3192 0.950 . S
H3167 C3194 0.950 . S
H3168 C3197 0.950 . S
H3169 C3198 0.950 . S
H3170 C3200 0.950 . S
H3171 C3201 0.950 . S
C3172 H3154 0.951 . S
C3172 C3173 1.366 . S
C3172 C3174 1.388 . S
C3173 C3172 1.366 . S
C3173 C3177 1.385 . S
C3174 H3155 0.951 . S
C3174 C3172 1.388 . S
C3174 C3175 1.366 . S
C3175 C3174 1.366 . S
C3175 C3176 1.414 . S
C3175 C3178 1.499 . S
C3176 H3156 0.950 . S
C3176 C3175 1.414 . S
C3176 C3177 1.374 . S
C3177 H3157 0.950 . S
C3177 C3173 1.385 . S
C3177 C3176 1.374 . S
C3178 C3175 1.499 . S
C3178 C3179 1.373 . S
C3178 C3180 1.389 . S
C3179 H3158 0.950 . S
C3179 C3178 1.373 . S
C3179 C3195 1.377 1_556 S
C3180 C3178 1.389 . S
C3180 C3181 1.524 . S
C3180 C3194 1.377 . S
C3181 C3180 1.524 . S
C3181 C3182 1.397 . S
C3181 C3186 1.363 . S
C3182 H3159 0.950 . S
C3182 C3181 1.397 . S
C3182 C3183 1.334 . S
C3183 H3160 0.950 . S
C3183 C3182 1.334 . S
C3183 C3184 1.287 . S
C3184 C3183 1.287 . S
C3184 C3185 1.524 . S
C3184 H3203 0.913 . S
C3185 H3161 0.950 . S
C3185 C3184 1.524 . S
C3185 C3186 1.415 . S
C3186 H3162 0.950 . S
C3186 C3181 1.363 . S
C3186 C3185 1.415 . S
C3187 H3163 0.951 . S
C3187 C3188 1.366 . S
C3187 C3189 1.388 . S
C3188 C3187 1.366 . S
C3188 C3192 1.385 . S
C3189 H3164 0.951 . S
C3189 C3187 1.388 . S
C3189 C3190 1.366 . S
C3190 C3189 1.366 . S
C3190 C3191 1.414 . S
C3190 C3193 1.499 . S
C3191 H3165 0.950 . S
C3191 C3190 1.414 . S
C3191 C3192 1.374 . S
C3192 H3166 0.950 . S
C3192 C3188 1.385 . S
C3192 C3191 1.374 . S
C3193 C3190 1.499 . S
C3193 C3194 1.373 1_554 S
C3193 C3195 1.389 . S
C3194 H3167 0.950 . S
C3194 C3180 1.377 . S
C3194 C3193 1.373 1_556 S
C3195 C3179 1.377 1_554 S
C3195 C3193 1.389 . S
C3195 C3196 1.524 . S
C3196 C3195 1.524 . S
C3196 C3197 1.397 . S
C3196 C3201 1.363 . S
C3197 H3168 0.950 . S
C3197 C3196 1.397 . S
C3197 C3198 1.334 . S
C3198 H3169 0.950 . S
C3198 C3197 1.334 . S
C3198 C3199 1.287 . S
C3199 C3198 1.287 . S
C3199 C3200 1.524 . S
C3199 H3202 0.999 . S
C3200 H3170 0.950 . S
C3200 C3199 1.524 . S
C3200 C3201 1.415 . S
C3201 H3171 0.950 . S
C3201 C3196 1.363 . S
C3201 C3200 1.415 . S
H3202 C3199 0.999 . S
H3203 C3184 0.913 . S
H3204 C3222 0.951 . S
H3205 C3224 0.951 . S
H3206 C3226 0.950 . S
H3207 C3227 0.950 . S
H3208 C3229 0.950 . S
H3209 C3232 0.950 . S
H3210 C3233 0.950 . S
H3211 C3235 0.950 . S
H3212 C3236 0.950 . S
H3213 C3237 0.951 . S
H3214 C3239 0.951 . S
H3215 C3241 0.950 . S
H3216 C3242 0.950 . S
H3217 C3244 0.950 . S
H3218 C3247 0.950 . S
H3219 C3248 0.950 . S
H3220 C3250 0.950 . S
H3221 C3251 0.950 . S
C3222 H3204 0.951 . S
C3222 C3223 1.366 . S
C3222 C3224 1.388 . S
C3223 C3222 1.366 . S
C3223 C3227 1.385 . S
C3224 H3205 0.951 . S
C3224 C3222 1.388 . S
C3224 C3225 1.366 . S
C3225 C3224 1.366 . S
C3225 C3226 1.414 . S
C3225 C3228 1.499 . S
C3226 H3206 0.950 . S
C3226 C3225 1.414 . S
C3226 C3227 1.374 . S
C3227 H3207 0.950 . S
C3227 C3223 1.385 . S
C3227 C3226 1.374 . S
C3228 C3225 1.499 . S
C3228 C3229 1.373 . S
C3228 C3230 1.389 . S
C3229 H3208 0.950 . S
C3229 C3228 1.373 . S
C3229 C3245 1.377 . S
C3230 C3228 1.389 . S
C3230 C3231 1.524 . S
C3230 C3244 1.377 . S
C3231 C3230 1.524 . S
C3231 C3232 1.397 . S
C3231 C3236 1.363 1_556 S
C3232 H3209 0.950 . S
C3232 C3231 1.397 . S
C3232 C3233 1.334 1_556 S
C3233 H3210 0.950 . S
C3233 C3232 1.334 1_554 S
C3233 C3234 1.287 . S
C3234 C3233 1.287 . S
C3234 C3235 1.524 . S
C3234 H3253 0.913 . S
C3235 H3211 0.950 . S
C3235 C3234 1.524 . S
C3235 C3236 1.415 . S
C3236 H3212 0.950 . S
C3236 C3231 1.363 1_554 S
C3236 C3235 1.415 . S
C3237 H3213 0.951 . S
C3237 C3238 1.366 1_556 S
C3237 C3239 1.388 . S
C3238 C3237 1.366 1_554 S
C3238 C3242 1.385 . S
C3239 H3214 0.951 . S
C3239 C3237 1.388 . S
C3239 C3240 1.366 . S
C3240 C3239 1.366 . S
C3240 C3241 1.414 . S
C3240 C3243 1.499 . S
C3241 H3215 0.950 . S
C3241 C3240 1.414 . S
C3241 C3242 1.374 1_556 S
C3242 H3216 0.950 . S
C3242 C3238 1.385 . S
C3242 C3241 1.374 1_554 S
C3243 C3240 1.499 . S
C3243 C3244 1.373 . S
C3243 C3245 1.389 . S
C3244 H3217 0.950 . S
C3244 C3230 1.377 . S
C3244 C3243 1.373 . S
C3245 C3229 1.377 . S
C3245 C3243 1.389 . S
C3245 C3246 1.524 . S
C3246 C3245 1.524 . S
C3246 C3247 1.397 . S
C3246 C3251 1.363 . S
C3247 H3218 0.950 . S
C3247 C3246 1.397 . S
C3247 C3248 1.334 . S
C3248 H3219 0.950 . S
C3248 C3247 1.334 . S
C3248 C3249 1.287 . S
C3249 C3248 1.287 . S
C3249 C3250 1.524 . S
C3249 H3252 0.999 . S
C3250 H3220 0.950 . S
C3250 C3249 1.524 . S
C3250 C3251 1.415 . S
C3251 H3221 0.950 . S
C3251 C3246 1.363 . S
C3251 C3250 1.415 . S
H3252 C3249 0.999 . S
H3253 C3234 0.913 . S
H3254 C3272 0.951 . S
H3255 C3274 0.951 . S
H3256 C3276 0.950 . S
H3257 C3277 0.950 . S
H3258 C3279 0.950 . S
H3259 C3282 0.950 . S
H3260 C3283 0.950 . S
H3261 C3285 0.950 . S
H3262 C3286 0.950 . S
H3263 C3287 0.951 . S
H3264 C3289 0.951 . S
H3265 C3291 0.950 . S
H3266 C3292 0.950 . S
H3267 C3294 0.950 . S
H3268 C3297 0.950 . S
H3269 C3298 0.950 . S
H3270 C3300 0.950 . S
H3271 C3301 0.950 . S
C3272 H3254 0.951 . S
C3272 C3273 1.366 1_556 S
C3272 C3274 1.388 . S
C3273 C3272 1.366 1_554 S
C3273 C3277 1.385 . S
C3274 H3255 0.951 . S
C3274 C3272 1.388 . S
C3274 C3275 1.366 . S
C3275 C3274 1.366 . S
C3275 C3276 1.414 . S
C3275 C3278 1.499 . S
C3276 H3256 0.950 . S
C3276 C3275 1.414 . S
C3276 C3277 1.374 1_556 S
C3277 H3257 0.950 . S
C3277 C3273 1.385 . S
C3277 C3276 1.374 1_554 S
C3278 C3275 1.499 . S
C3278 C3279 1.373 . S
C3278 C3280 1.389 . S
C3279 H3258 0.950 . S
C3279 C3278 1.373 . S
C3279 C3295 1.377 . S
C3280 C3278 1.389 . S
C3280 C3281 1.524 . S
C3280 C3294 1.377 . S
C3281 C3280 1.524 . S
C3281 C3282 1.397 1_556 S
C3281 C3286 1.363 . S
C3282 H3259 0.950 . S
C3282 C3281 1.397 1_554 S
C3282 C3283 1.334 . S
C3283 H3260 0.950 . S
C3283 C3282 1.334 . S
C3283 C3284 1.287 . S
C3284 C3283 1.287 . S
C3284 C3285 1.524 . S
C3284 H3303 0.913 . S
C3285 H3261 0.950 . S
C3285 C3284 1.524 . S
C3285 C3286 1.415 1_554 S
C3286 H3262 0.950 . S
C3286 C3281 1.363 . S
C3286 C3285 1.415 1_556 S
C3287 H3263 0.951 . S
C3287 C3288 1.366 . S
C3287 C3289 1.388 . S
C3288 C3287 1.366 . S
C3288 C3292 1.385 . S
C3289 H3264 0.951 . S
C3289 C3287 1.388 . S
C3289 C3290 1.366 . S
C3290 C3289 1.366 . S
C3290 C3291 1.414 . S
C3290 C3293 1.499 . S
C3291 H3265 0.950 . S
C3291 C3290 1.414 . S
C3291 C3292 1.374 . S
C3292 H3266 0.950 . S
C3292 C3288 1.385 . S
C3292 C3291 1.374 . S
C3293 C3290 1.499 . S
C3293 C3294 1.373 . S
C3293 C3295 1.389 . S
C3294 H3267 0.950 . S
C3294 C3280 1.377 . S
C3294 C3293 1.373 . S
C3295 C3279 1.377 . S
C3295 C3293 1.389 . S
C3295 C3296 1.524 . S
C3296 C3295 1.524 . S
C3296 C3297 1.397 . S
C3296 C3301 1.363 . S
C3297 H3268 0.950 . S
C3297 C3296 1.397 . S
C3297 C3298 1.334 . S
C3298 H3269 0.950 . S
C3298 C3297 1.334 . S
C3298 C3299 1.287 . S
C3299 C3298 1.287 . S
C3299 C3300 1.524 . S
C3299 H3302 0.999 . S
C3300 H3270 0.950 . S
C3300 C3299 1.524 . S
C3300 C3301 1.415 . S
C3301 H3271 0.950 . S
C3301 C3296 1.363 . S
C3301 C3300 1.415 . S
H3302 C3299 0.999 . S
H3303 C3284 0.913 . S
H3304 C3322 0.951 . S
H3305 C3324 0.951 . S
H3306 C3326 0.950 . S
H3307 C3327 0.950 . S
H3308 C3329 0.950 . S
H3309 C3332 0.950 . S
H3310 C3333 0.950 . S
H3311 C3335 0.950 . S
H3312 C3336 0.950 . S
H3313 C3337 0.951 . S
H3314 C3339 0.951 . S
H3315 C3341 0.950 . S
H3316 C3342 0.950 . S
H3317 C3344 0.950 . S
H3318 C3347 0.950 . S
H3319 C3348 0.950 . S
H3320 C3350 0.950 . S
H3321 C3351 0.950 . S
C3322 H3304 0.951 . S
C3322 C3323 1.366 . S
C3322 C3324 1.388 . S
C3323 C3322 1.366 . S
C3323 C3327 1.385 . S
C3324 H3305 0.951 . S
C3324 C3322 1.388 . S
C3324 C3325 1.366 . S
C3325 C3324 1.366 . S
C3325 C3326 1.414 . S
C3325 C3328 1.499 . S
C3326 H3306 0.950 . S
C3326 C3325 1.414 . S
C3326 C3327 1.374 . S
C3327 H3307 0.950 . S
C3327 C3323 1.385 . S
C3327 C3326 1.374 . S
C3328 C3325 1.499 . S
C3328 C3329 1.373 . S
C3328 C3330 1.389 . S
C3329 H3308 0.950 . S
C3329 C3328 1.373 . S
C3329 C3345 1.377 . S
C3330 C3328 1.389 . S
C3330 C3331 1.524 . S
C3330 C3344 1.377 . S
C3331 C3330 1.524 . S
C3331 C3332 1.397 . S
C3331 C3336 1.363 . S
C3332 H3309 0.950 . S
C3332 C3331 1.397 . S
C3332 C3333 1.334 . S
C3333 H3310 0.950 . S
C3333 C3332 1.334 . S
C3333 C3334 1.287 . S
C3334 C3333 1.287 . S
C3334 C3335 1.524 . S
C3334 H3353 0.913 . S
C3335 H3311 0.950 . S
C3335 C3334 1.524 . S
C3335 C3336 1.415 . S
C3336 H3312 0.950 . S
C3336 C3331 1.363 . S
C3336 C3335 1.415 . S
C3337 H3313 0.951 . S
C3337 C3338 1.366 . S
C3337 C3339 1.388 . S
C3338 C3337 1.366 . S
C3338 C3342 1.385 1_554 S
C3339 H3314 0.951 . S
C3339 C3337 1.388 . S
C3339 C3340 1.366 1_554 S
C3340 C3339 1.366 1_556 S
C3340 C3341 1.414 . S
C3340 C3343 1.499 . S
C3341 H3315 0.950 . S
C3341 C3340 1.414 . S
C3341 C3342 1.374 . S
C3342 H3316 0.950 . S
C3342 C3338 1.385 1_556 S
C3342 C3341 1.374 . S
C3343 C3340 1.499 . S
C3343 C3344 1.373 . S
C3343 C3345 1.389 . S
C3344 H3317 0.950 . S
C3344 C3330 1.377 . S
C3344 C3343 1.373 . S
C3345 C3329 1.377 . S
C3345 C3343 1.389 . S
C3345 C3346 1.524 1_556 S
C3346 C3345 1.524 1_554 S
C3346 C3347 1.397 . S
C3346 C3351 1.363 . S
C3347 H3318 0.950 . S
C3347 C3346 1.397 . S
C3347 C3348 1.334 . S
C3348 H3319 0.950 . S
C3348 C3347 1.334 . S
C3348 C3349 1.287 . S
C3349 C3348 1.287 . S
C3349 C3350 1.524 . S
C3349 H3352 0.999 . S
C3350 H3320 0.950 . S
C3350 C3349 1.524 . S
C3350 C3351 1.415 . S
C3351 H3321 0.950 . S
C3351 C3346 1.363 . S
C3351 C3350 1.415 . S
H3352 C3349 0.999 . S
H3353 C3334 0.913 . S
H3354 C3372 0.951 . S
H3355 C3374 0.951 . S
H3356 C3376 0.950 . S
H3357 C3377 0.950 . S
H3358 C3379 0.950 . S
H3359 C3382 0.950 . S
H3360 C3383 0.950 . S
H3361 C3385 0.950 . S
H3362 C3386 0.950 . S
H3363 C3387 0.951 . S
H3364 C3389 0.951 . S
H3365 C3391 0.950 . S
H3366 C3392 0.950 . S
H3367 C3394 0.950 . S
H3368 C3397 0.950 . S
H3369 C3398 0.950 . S
H3370 C3400 0.950 . S
H3371 C3401 0.950 . S
C3372 H3354 0.951 . S
C3372 C3373 1.366 . S
C3372 C3374 1.388 . S
C3373 C3372 1.366 . S
C3373 C3377 1.385 . S
C3374 H3355 0.951 . S
C3374 C3372 1.388 . S
C3374 C3375 1.366 . S
C3375 C3374 1.366 . S
C3375 C3376 1.414 . S
C3375 C3378 1.499 . S
C3376 H3356 0.950 . S
C3376 C3375 1.414 . S
C3376 C3377 1.374 . S
C3377 H3357 0.950 . S
C3377 C3373 1.385 . S
C3377 C3376 1.374 . S
C3378 C3375 1.499 . S
C3378 C3379 1.373 . S
C3378 C3380 1.389 . S
C3379 H3358 0.950 . S
C3379 C3378 1.373 . S
C3379 C3395 1.377 . S
C3380 C3378 1.389 . S
C3380 C3381 1.524 . S
C3380 C3394 1.377 . S
C3381 C3380 1.524 . S
C3381 C3382 1.397 . S
C3381 C3386 1.363 . S
C3382 H3359 0.950 . S
C3382 C3381 1.397 . S
C3382 C3383 1.334 . S
C3383 H3360 0.950 . S
C3383 C3382 1.334 . S
C3383 C3384 1.287 . S
C3384 C3383 1.287 . S
C3384 C3385 1.524 . S
C3384 H3403 0.913 . S
C3385 H3361 0.950 . S
C3385 C3384 1.524 . S
C3385 C3386 1.415 . S
C3386 H3362 0.950 . S
C3386 C3381 1.363 . S
C3386 C3385 1.415 . S
C3387 H3363 0.951 . S
C3387 C3388 1.366 . S
C3387 C3389 1.388 . S
C3388 C3387 1.366 . S
C3388 C3392 1.385 . S
C3389 H3364 0.951 . S
C3389 C3387 1.388 . S
C3389 C3390 1.366 . S
C3390 C3389 1.366 . S
C3390 C3391 1.414 . S
C3390 C3393 1.499 . S
C3391 H3365 0.950 . S
C3391 C3390 1.414 . S
C3391 C3392 1.374 . S
C3392 H3366 0.950 . S
C3392 C3388 1.385 . S
C3392 C3391 1.374 . S
C3393 C3390 1.499 . S
C3393 C3394 1.373 . S
C3393 C3395 1.389 . S
C3394 H3367 0.950 . S
C3394 C3380 1.377 . S
C3394 C3393 1.373 . S
C3395 C3379 1.377 . S
C3395 C3393 1.389 . S
C3395 C3396 1.524 . S
C3396 C3395 1.524 . S
C3396 C3397 1.397 . S
C3396 C3401 1.363 . S
C3397 H3368 0.950 . S
C3397 C3396 1.397 . S
C3397 C3398 1.334 . S
C3398 H3369 0.950 . S
C3398 C3397 1.334 . S
C3398 C3399 1.287 . S
C3399 C3398 1.287 . S
C3399 C3400 1.524 . S
C3399 H3402 0.999 . S
C3400 H3370 0.950 . S
C3400 C3399 1.524 . S
C3400 C3401 1.415 . S
C3401 H3371 0.950 . S
C3401 C3396 1.363 . S
C3401 C3400 1.415 . S
H3402 C3399 0.999 . S
H3403 C3384 0.913 . S
H3404 C3422 0.951 . S
H3405 C3424 0.951 . S
H3406 C3426 0.950 . S
H3407 C3427 0.950 . S
H3408 C3429 0.950 . S
H3409 C3432 0.950 . S
H3410 C3433 0.950 . S
H3411 C3435 0.950 . S
H3412 C3436 0.950 . S
H3413 C3437 0.951 . S
H3414 C3439 0.951 . S
H3415 C3441 0.950 . S
H3416 C3442 0.950 . S
H3417 C3444 0.950 . S
H3418 C3447 0.950 . S
H3419 C3448 0.950 . S
H3420 C3450 0.950 . S
H3421 C3451 0.950 . S
C3422 H3404 0.951 . S
C3422 C3423 1.366 . S
C3422 C3424 1.388 . S
C3423 C3422 1.366 . S
C3423 C3427 1.385 . S
C3424 H3405 0.951 . S
C3424 C3422 1.388 . S
C3424 C3425 1.366 . S
C3425 C3424 1.366 . S
C3425 C3426 1.414 . S
C3425 C3428 1.499 . S
C3426 H3406 0.950 . S
C3426 C3425 1.414 . S
C3426 C3427 1.374 . S
C3427 H3407 0.950 . S
C3427 C3423 1.385 . S
C3427 C3426 1.374 . S
C3428 C3425 1.499 . S
C3428 C3429 1.373 . S
C3428 C3430 1.389 . S
C3429 H3408 0.950 . S
C3429 C3428 1.373 . S
C3429 C3445 1.377 . S
C3430 C3428 1.389 . S
C3430 C3431 1.524 . S
C3430 C3444 1.377 . S
C3431 C3430 1.524 . S
C3431 C3432 1.397 . S
C3431 C3436 1.363 . S
C3432 H3409 0.950 . S
C3432 C3431 1.397 . S
C3432 C3433 1.334 . S
C3433 H3410 0.950 . S
C3433 C3432 1.334 . S
C3433 C3434 1.287 . S
C3434 C3433 1.287 . S
C3434 C3435 1.524 . S
C3434 H3453 0.913 . S
C3435 H3411 0.950 . S
C3435 C3434 1.524 . S
C3435 C3436 1.415 . S
C3436 H3412 0.950 . S
C3436 C3431 1.363 . S
C3436 C3435 1.415 . S
C3437 H3413 0.951 . S
C3437 C3438 1.366 . S
C3437 C3439 1.388 . S
C3438 C3437 1.366 . S
C3438 C3442 1.385 . S
C3439 H3414 0.951 . S
C3439 C3437 1.388 . S
C3439 C3440 1.366 . S
C3440 C3439 1.366 . S
C3440 C3441 1.414 . S
C3440 C3443 1.499 . S
C3441 H3415 0.950 . S
C3441 C3440 1.414 . S
C3441 C3442 1.374 . S
C3442 H3416 0.950 . S
C3442 C3438 1.385 . S
C3442 C3441 1.374 . S
C3443 C3440 1.499 . S
C3443 C3444 1.373 . S
C3443 C3445 1.389 . S
C3444 H3417 0.950 . S
C3444 C3430 1.377 . S
C3444 C3443 1.373 . S
C3445 C3429 1.377 . S
C3445 C3443 1.389 . S
C3445 C3446 1.524 . S
C3446 C3445 1.524 . S
C3446 C3447 1.397 . S
C3446 C3451 1.363 . S
C3447 H3418 0.950 . S
C3447 C3446 1.397 . S
C3447 C3448 1.334 . S
C3448 H3419 0.950 . S
C3448 C3447 1.334 . S
C3448 C3449 1.287 . S
C3449 C3448 1.287 . S
C3449 C3450 1.524 . S
C3449 H3452 0.999 . S
C3450 H3420 0.950 . S
C3450 C3449 1.524 . S
C3450 C3451 1.415 . S
C3451 H3421 0.950 . S
C3451 C3446 1.363 . S
C3451 C3450 1.415 . S
H3452 C3449 0.999 . S
H3453 C3434 0.913 . S
H3454 C3472 0.951 . S
H3455 C3474 0.951 . S
H3456 C3476 0.950 . S
H3457 C3477 0.950 . S
H3458 C3479 0.950 . S
H3459 C3482 0.950 . S
H3460 C3483 0.950 . S
H3461 C3485 0.950 . S
H3462 C3486 0.950 . S
H3463 C3487 0.951 . S
H3464 C3489 0.951 . S
H3465 C3491 0.950 . S
H3466 C3492 0.950 . S
H3467 C3494 0.950 . S
H3468 C3497 0.950 . S
H3469 C3498 0.950 . S
H3470 C3500 0.950 . S
H3471 C3501 0.950 . S
C3472 H3454 0.951 . S
C3472 C3473 1.366 . S
C3472 C3474 1.388 . S
C3473 C3472 1.366 . S
C3473 C3477 1.385 . S
C3474 H3455 0.951 . S
C3474 C3472 1.388 . S
C3474 C3475 1.366 . S
C3475 C3474 1.366 . S
C3475 C3476 1.414 . S
C3475 C3478 1.499 . S
C3476 H3456 0.950 . S
C3476 C3475 1.414 . S
C3476 C3477 1.374 . S
C3477 H3457 0.950 . S
C3477 C3473 1.385 . S
C3477 C3476 1.374 . S
C3478 C3475 1.499 . S
C3478 C3479 1.373 . S
C3478 C3480 1.389 . S
C3479 H3458 0.950 . S
C3479 C3478 1.373 . S
C3479 C3495 1.377 . S
C3480 C3478 1.389 . S
C3480 C3481 1.524 . S
C3480 C3494 1.377 . S
C3481 C3480 1.524 . S
C3481 C3482 1.397 . S
C3481 C3486 1.363 . S
C3482 H3459 0.950 . S
C3482 C3481 1.397 . S
C3482 C3483 1.334 . S
C3483 H3460 0.950 . S
C3483 C3482 1.334 . S
C3483 C3484 1.287 . S
C3484 C3483 1.287 . S
C3484 C3485 1.524 . S
C3484 H3503 0.913 . S
C3485 H3461 0.950 . S
C3485 C3484 1.524 . S
C3485 C3486 1.415 . S
C3486 H3462 0.950 . S
C3486 C3481 1.363 . S
C3486 C3485 1.415 . S
C3487 H3463 0.951 . S
C3487 C3488 1.366 . S
C3487 C3489 1.388 . S
C3488 C3487 1.366 . S
C3488 C3492 1.385 . S
C3489 H3464 0.951 . S
C3489 C3487 1.388 . S
C3489 C3490 1.366 . S
C3490 C3489 1.366 . S
C3490 C3491 1.414 . S
C3490 C3493 1.499 . S
C3491 H3465 0.950 . S
C3491 C3490 1.414 . S
C3491 C3492 1.374 . S
C3492 H3466 0.950 . S
C3492 C3488 1.385 . S
C3492 C3491 1.374 . S
C3493 C3490 1.499 . S
C3493 C3494 1.373 . S
C3493 C3495 1.389 . S
C3494 H3467 0.950 . S
C3494 C3480 1.377 . S
C3494 C3493 1.373 . S
C3495 C3479 1.377 . S
C3495 C3493 1.389 . S
C3495 C3496 1.524 . S
C3496 C3495 1.524 . S
C3496 C3497 1.397 . S
C3496 C3501 1.363 . S
C3497 H3468 0.950 . S
C3497 C3496 1.397 . S
C3497 C3498 1.334 . S
C3498 H3469 0.950 . S
C3498 C3497 1.334 . S
C3498 C3499 1.287 . S
C3499 C3498 1.287 . S
C3499 C3500 1.524 . S
C3499 H3502 0.999 . S
C3500 H3470 0.950 . S
C3500 C3499 1.524 . S
C3500 C3501 1.415 . S
C3501 H3471 0.950 . S
C3501 C3496 1.363 . S
C3501 C3500 1.415 . S
H3502 C3499 0.999 . S
H3503 C3484 0.913 . S
H3504 C3522 0.951 . S
H3505 C3524 0.951 . S
H3506 C3526 0.951 . S
H3507 C3527 0.950 . S
H3508 C3529 0.950 . S
H3509 C3532 0.950 . S
H3510 C3533 0.950 . S
H3511 C3535 0.950 . S
H3512 C3536 0.950 . S
H3513 C3537 0.951 . S
H3514 C3539 0.951 . S
H3515 C3541 0.950 . S
H3516 C3542 0.950 . S
H3517 C3544 0.950 . S
H3518 C3547 0.950 . S
H3519 C3548 0.950 . S
H3520 C3550 0.950 . S
H3521 C3551 0.950 . S
C3522 H3504 0.951 . S
C3522 C3523 1.366 1_554 S
C3522 C3524 1.388 . S
C3523 C3522 1.366 1_556 S
C3523 C3527 1.385 . S
C3524 H3505 0.951 . S
C3524 C3522 1.388 . S
C3524 C3525 1.366 . S
C3525 C3524 1.366 . S
C3525 C3526 1.414 . S
C3525 C3528 1.499 . S
C3526 H3506 0.951 . S
C3526 C3525 1.414 . S
C3526 C3527 1.374 1_554 S
C3527 H3507 0.950 . S
C3527 C3523 1.385 . S
C3527 C3526 1.374 1_556 S
C3528 C3525 1.499 . S
C3528 C3529 1.373 . S
C3528 C3530 1.389 . S
C3529 H3508 0.950 . S
C3529 C3528 1.373 . S
C3529 C3545 1.377 . S
C3530 C3528 1.389 . S
C3530 C3531 1.524 . S
C3530 C3544 1.377 . S
C3531 C3530 1.524 . S
C3531 C3532 1.397 1_554 S
C3531 C3536 1.363 . S
C3532 H3509 0.950 . S
C3532 C3531 1.397 1_556 S
C3532 C3533 1.334 . S
C3533 H3510 0.950 . S
C3533 C3532 1.334 . S
C3533 C3534 1.287 . S
C3534 C3533 1.287 . S
C3534 C3535 1.524 1_556 S
C3534 H3553 0.913 . S
C3535 H3511 0.950 . S
C3535 C3534 1.524 1_554 S
C3535 C3536 1.415 . S
C3536 H3512 0.950 . S
C3536 C3531 1.363 . S
C3536 C3535 1.415 . S
C3537 H3513 0.951 . S
C3537 C3538 1.366 . S
C3537 C3539 1.388 . S
C3538 C3537 1.366 . S
C3538 C3542 1.385 . S
C3539 H3514 0.951 . S
C3539 C3537 1.388 . S
C3539 C3540 1.366 . S
C3540 C3539 1.366 . S
C3540 C3541 1.414 . S
C3540 C3543 1.499 . S
C3541 H3515 0.950 . S
C3541 C3540 1.414 . S
C3541 C3542 1.374 . S
C3542 H3516 0.950 . S
C3542 C3538 1.385 . S
C3542 C3541 1.374 . S
C3543 C3540 1.499 . S
C3543 C3544 1.373 . S
C3543 C3545 1.389 . S
C3544 H3517 0.950 . S
C3544 C3530 1.377 . S
C3544 C3543 1.373 . S
C3545 C3529 1.377 . S
C3545 C3543 1.389 . S
C3545 C3546 1.524 . S
C3546 C3545 1.524 . S
C3546 C3547 1.397 . S
C3546 C3551 1.363 . S
C3547 H3518 0.950 . S
C3547 C3546 1.397 . S
C3547 C3548 1.334 . S
C3548 H3519 0.950 . S
C3548 C3547 1.334 . S
C3548 C3549 1.287 . S
C3549 C3548 1.287 . S
C3549 C3550 1.524 . S
C3549 H3552 0.999 . S
C3550 H3520 0.950 . S
C3550 C3549 1.524 . S
C3550 C3551 1.415 . S
C3551 H3521 0.950 . S
C3551 C3546 1.363 . S
C3551 C3550 1.415 . S
H3552 C3549 0.999 . S
H3553 C3534 0.913 . S
H3554 C3572 0.951 . S
H3555 C3574 0.951 . S
H3556 C3576 0.950 . S
H3557 C3577 0.950 . S
H3558 C3579 0.950 . S
H3559 C3582 0.950 . S
H3560 C3583 0.950 . S
H3561 C3585 0.950 . S
H3562 C3586 0.950 . S
H3563 C3587 0.951 . S
H3564 C3589 0.951 . S
H3565 C3591 0.950 1_556 S
H3566 C3592 0.950 . S
H3567 C3594 0.950 . S
H3568 C3597 0.950 . S
H3569 C3598 0.950 . S
H3570 C3600 0.950 . S
H3571 C3601 0.950 . S
C3572 H3554 0.951 . S
C3572 C3573 1.366 . S
C3572 C3574 1.388 . S
C3573 C3572 1.366 . S
C3573 C3577 1.385 . S
C3574 H3555 0.951 . S
C3574 C3572 1.388 . S
C3574 C3575 1.366 . S
C3575 C3574 1.366 . S
C3575 C3576 1.414 . S
C3575 C3578 1.499 . S
C3576 H3556 0.950 . S
C3576 C3575 1.414 . S
C3576 C3577 1.374 . S
C3577 H3557 0.950 . S
C3577 C3573 1.385 . S
C3577 C3576 1.374 . S
C3578 C3575 1.499 . S
C3578 C3579 1.373 . S
C3578 C3580 1.389 . S
C3579 H3558 0.950 . S
C3579 C3578 1.373 . S
C3579 C3595 1.377 . S
C3580 C3578 1.389 . S
C3580 C3581 1.524 . S
C3580 C3594 1.377 . S
C3581 C3580 1.524 . S
C3581 C3582 1.397 . S
C3581 C3586 1.363 . S
C3582 H3559 0.950 . S
C3582 C3581 1.397 . S
C3582 C3583 1.334 . S
C3583 H3560 0.950 . S
C3583 C3582 1.334 . S
C3583 C3584 1.287 . S
C3584 C3583 1.287 . S
C3584 C3585 1.524 . S
C3584 H3603 0.913 . S
C3585 H3561 0.950 . S
C3585 C3584 1.524 . S
C3585 C3586 1.415 . S
C3586 H3562 0.950 . S
C3586 C3581 1.363 . S
C3586 C3585 1.415 . S
C3587 H3563 0.951 . S
C3587 C3588 1.366 1_554 S
C3587 C3589 1.388 . S
C3588 C3587 1.366 1_556 S
C3588 C3592 1.385 . S
C3589 H3564 0.951 . S
C3589 C3587 1.388 . S
C3589 C3590 1.366 . S
C3590 C3589 1.366 . S
C3590 C3591 1.414 . S
C3590 C3593 1.499 . S
C3591 H3565 0.950 1_554 S
C3591 C3590 1.414 . S
C3591 C3592 1.374 1_554 S
C3592 H3566 0.950 . S
C3592 C3588 1.385 . S
C3592 C3591 1.374 1_556 S
C3593 C3590 1.499 . S
C3593 C3594 1.373 . S
C3593 C3595 1.389 . S
C3594 H3567 0.950 . S
C3594 C3580 1.377 . S
C3594 C3593 1.373 . S
C3595 C3579 1.377 . S
C3595 C3593 1.389 . S
C3595 C3596 1.524 . S
C3596 C3595 1.524 . S
C3596 C3597 1.397 1_554 S
C3596 C3601 1.363 . S
C3597 H3568 0.950 . S
C3597 C3596 1.397 1_556 S
C3597 C3598 1.334 . S
C3598 H3569 0.950 . S
C3598 C3597 1.334 . S
C3598 C3599 1.287 . S
C3599 C3598 1.287 . S
C3599 C3600 1.524 1_556 S
C3599 H3602 0.999 . S
C3600 H3570 0.950 . S
C3600 C3599 1.524 1_554 S
C3600 C3601 1.415 . S
C3601 H3571 0.950 . S
C3601 C3596 1.363 . S
C3601 C3600 1.415 . S
H3602 C3599 0.999 . S
H3603 C3584 0.913 . S
H3604 C3622 0.951 . S
H3605 C3624 0.951 . S
H3606 C3626 0.950 . S
H3607 C3627 0.950 . S
H3608 C3629 0.950 . S
H3609 C3632 0.950 . S
H3610 C3633 0.950 . S
H3611 C3635 0.950 . S
H3612 C3636 0.950 . S
H3613 C3637 0.951 . S
H3614 C3639 0.951 . S
H3615 C3641 0.950 . S
H3616 C3642 0.950 . S
H3617 C3644 0.950 . S
H3618 C3647 0.950 . S
H3619 C3648 0.950 1_554 S
H3620 C3650 0.950 . S
H3621 C3651 0.950 . S
C3622 H3604 0.951 . S
C3622 C3623 1.366 . S
C3622 C3624 1.388 . S
C3623 C3622 1.366 . S
C3623 C3627 1.385 . S
C3624 H3605 0.951 . S
C3624 C3622 1.388 . S
C3624 C3625 1.366 . S
C3625 C3624 1.366 . S
C3625 C3626 1.414 . S
C3625 C3628 1.499 . S
C3626 H3606 0.950 . S
C3626 C3625 1.414 . S
C3626 C3627 1.374 . S
C3627 H3607 0.950 . S
C3627 C3623 1.385 . S
C3627 C3626 1.374 . S
C3628 C3625 1.499 . S
C3628 C3629 1.373 . S
C3628 C3630 1.389 . S
C3629 H3608 0.950 . S
C3629 C3628 1.373 . S
C3629 C3645 1.377 . S
C3630 C3628 1.389 . S
C3630 C3631 1.524 . S
C3630 C3644 1.377 . S
C3631 C3630 1.524 . S
C3631 C3632 1.397 . S
C3631 C3636 1.363 . S
C3632 H3609 0.950 . S
C3632 C3631 1.397 . S
C3632 C3633 1.334 . S
C3633 H3610 0.950 . S
C3633 C3632 1.334 . S
C3633 C3634 1.287 . S
C3634 C3633 1.287 . S
C3634 C3635 1.524 . S
C3634 H3653 0.913 . S
C3635 H3611 0.950 . S
C3635 C3634 1.524 . S
C3635 C3636 1.415 . S
C3636 H3612 0.950 . S
C3636 C3631 1.363 . S
C3636 C3635 1.415 . S
C3637 H3613 0.951 . S
C3637 C3638 1.366 . S
C3637 C3639 1.388 . S
C3638 C3637 1.366 . S
C3638 C3642 1.385 1_556 S
C3639 H3614 0.951 . S
C3639 C3637 1.388 . S
C3639 C3640 1.366 1_556 S
C3640 C3639 1.366 1_554 S
C3640 C3641 1.414 . S
C3640 C3643 1.499 . S
C3641 H3615 0.950 . S
C3641 C3640 1.414 . S
C3641 C3642 1.374 . S
C3642 H3616 0.950 . S
C3642 C3638 1.385 1_554 S
C3642 C3641 1.374 . S
C3643 C3640 1.499 . S
C3643 C3644 1.373 . S
C3643 C3645 1.389 . S
C3644 H3617 0.950 . S
C3644 C3630 1.377 . S
C3644 C3643 1.373 . S
C3645 C3629 1.377 . S
C3645 C3643 1.389 . S
C3645 C3646 1.524 . S
C3646 C3645 1.524 . S
C3646 C3647 1.397 . S
C3646 C3651 1.363 1_554 S
C3647 H3618 0.950 . S
C3647 C3646 1.397 . S
C3647 C3648 1.334 1_554 S
C3648 H3619 0.950 1_556 S
C3648 C3647 1.334 1_556 S
C3648 C3649 1.287 . S
C3649 C3648 1.287 . S
C3649 C3650 1.524 . S
C3649 H3652 0.999 . S
C3650 H3620 0.950 . S
C3650 C3649 1.524 . S
C3650 C3651 1.415 . S
C3651 H3621 0.950 . S
C3651 C3646 1.363 1_556 S
C3651 C3650 1.415 . S
H3652 C3649 0.999 . S
H3653 C3634 0.913 . S
H3654 C3672 0.951 . S
H3655 C3674 0.951 . S
H3656 C3676 0.950 . S
H3657 C3677 0.950 . S
H3658 C3679 0.950 . S
H3659 C3682 0.950 . S
H3660 C3683 0.950 . S
H3661 C3685 0.950 . S
H3662 C3686 0.950 . S
H3663 C3687 0.951 . S
H3664 C3689 0.951 . S
H3665 C3691 0.950 . S
H3666 C3692 0.950 . S
H3667 C3694 0.950 . S
H3668 C3697 0.950 . S
H3669 C3698 0.950 . S
H3670 C3700 0.950 . S
H3671 C3701 0.950 . S
C3672 H3654 0.951 . S
C3672 C3673 1.366 . S
C3672 C3674 1.388 . S
C3673 C3672 1.366 . S
C3673 C3677 1.385 . S
C3674 H3655 0.951 . S
C3674 C3672 1.388 . S
C3674 C3675 1.366 . S
C3675 C3674 1.366 . S
C3675 C3676 1.414 . S
C3675 C3678 1.499 . S
C3676 H3656 0.950 . S
C3676 C3675 1.414 . S
C3676 C3677 1.374 . S
C3677 H3657 0.950 . S
C3677 C3673 1.385 . S
C3677 C3676 1.374 . S
C3678 C3675 1.499 . S
C3678 C3679 1.373 . S
C3678 C3680 1.389 . S
C3679 H3658 0.950 . S
C3679 C3678 1.373 . S
C3679 C3695 1.377 . S
C3680 C3678 1.389 . S
C3680 C3681 1.524 . S
C3680 C3694 1.377 . S
C3681 C3680 1.524 . S
C3681 C3682 1.397 . S
C3681 C3686 1.363 . S
C3682 H3659 0.950 . S
C3682 C3681 1.397 . S
C3682 C3683 1.334 . S
C3683 H3660 0.950 . S
C3683 C3682 1.334 . S
C3683 C3684 1.287 . S
C3684 C3683 1.287 . S
C3684 C3685 1.524 . S
C3684 H3703 0.913 . S
C3685 H3661 0.950 . S
C3685 C3684 1.524 . S
C3685 C3686 1.415 . S
C3686 H3662 0.950 . S
C3686 C3681 1.363 . S
C3686 C3685 1.415 . S
C3687 H3663 0.951 . S
C3687 C3688 1.366 . S
C3687 C3689 1.388 . S
C3688 C3687 1.366 . S
C3688 C3692 1.385 . S
C3689 H3664 0.951 . S
C3689 C3687 1.388 . S
C3689 C3690 1.366 . S
C3690 C3689 1.366 . S
C3690 C3691 1.414 . S
C3690 C3693 1.499 . S
C3691 H3665 0.950 . S
C3691 C3690 1.414 . S
C3691 C3692 1.374 . S
C3692 H3666 0.950 . S
C3692 C3688 1.385 . S
C3692 C3691 1.374 . S
C3693 C3690 1.499 . S
C3693 C3694 1.373 . S
C3693 C3695 1.389 . S
C3694 H3667 0.950 . S
C3694 C3680 1.377 . S
C3694 C3693 1.373 . S
C3695 C3679 1.377 . S
C3695 C3693 1.389 . S
C3695 C3696 1.524 . S
C3696 C3695 1.524 . S
C3696 C3697 1.397 . S
C3696 C3701 1.363 . S
C3697 H3668 0.950 . S
C3697 C3696 1.397 . S
C3697 C3698 1.334 . S
C3698 H3669 0.950 . S
C3698 C3697 1.334 . S
C3698 C3699 1.287 . S
C3699 C3698 1.287 . S
C3699 C3700 1.524 . S
C3699 H3702 0.999 . S
C3700 H3670 0.950 . S
C3700 C3699 1.524 . S
C3700 C3701 1.415 . S
C3701 H3671 0.950 . S
C3701 C3696 1.363 . S
C3701 C3700 1.415 . S
H3702 C3699 0.999 . S
H3703 C3684 0.913 . S
H3704 C3722 0.951 . S
H3705 C3724 0.951 . S
H3706 C3726 0.950 . S
H3707 C3727 0.950 . S
H3708 C3729 0.950 . S
H3709 C3732 0.950 . S
H3710 C3733 0.950 . S
H3711 C3735 0.950 . S
H3712 C3736 0.950 . S
H3713 C3737 0.951 . S
H3714 C3739 0.951 . S
H3715 C3741 0.950 . S
H3716 C3742 0.950 . S
H3717 C3744 0.950 . S
H3718 C3747 0.950 . S
H3719 C3748 0.950 . S
H3720 C3750 0.950 . S
H3721 C3751 0.950 . S
C3722 H3704 0.951 . S
C3722 C3723 1.366 . S
C3722 C3724 1.388 . S
C3723 C3722 1.366 . S
C3723 C3727 1.385 . S
C3724 H3705 0.951 . S
C3724 C3722 1.388 . S
C3724 C3725 1.366 . S
C3725 C3724 1.366 . S
C3725 C3726 1.414 . S
C3725 C3728 1.499 . S
C3726 H3706 0.950 . S
C3726 C3725 1.414 . S
C3726 C3727 1.374 . S
C3727 H3707 0.950 . S
C3727 C3723 1.385 . S
C3727 C3726 1.374 . S
C3728 C3725 1.499 . S
C3728 C3729 1.373 . S
C3728 C3730 1.389 . S
C3729 H3708 0.950 . S
C3729 C3728 1.373 . S
C3729 C3745 1.377 . S
C3730 C3728 1.389 . S
C3730 C3731 1.524 . S
C3730 C3744 1.377 . S
C3731 C3730 1.524 . S
C3731 C3732 1.397 . S
C3731 C3736 1.363 . S
C3732 H3709 0.950 . S
C3732 C3731 1.397 . S
C3732 C3733 1.334 . S
C3733 H3710 0.950 . S
C3733 C3732 1.334 . S
C3733 C3734 1.287 . S
C3734 C3733 1.287 . S
C3734 C3735 1.524 . S
C3734 H3753 0.913 . S
C3735 H3711 0.950 . S
C3735 C3734 1.524 . S
C3735 C3736 1.415 . S
C3736 H3712 0.950 . S
C3736 C3731 1.363 . S
C3736 C3735 1.415 . S
C3737 H3713 0.951 . S
C3737 C3738 1.366 . S
C3737 C3739 1.388 . S
C3738 C3737 1.366 . S
C3738 C3742 1.385 . S
C3739 H3714 0.951 . S
C3739 C3737 1.388 . S
C3739 C3740 1.366 . S
C3740 C3739 1.366 . S
C3740 C3741 1.414 . S
C3740 C3743 1.499 . S
C3741 H3715 0.950 . S
C3741 C3740 1.414 . S
C3741 C3742 1.374 . S
C3742 H3716 0.950 . S
C3742 C3738 1.385 . S
C3742 C3741 1.374 . S
C3743 C3740 1.499 . S
C3743 C3744 1.373 . S
C3743 C3745 1.389 . S
C3744 H3717 0.950 . S
C3744 C3730 1.377 . S
C3744 C3743 1.373 . S
C3745 C3729 1.377 . S
C3745 C3743 1.389 . S
C3745 C3746 1.524 . S
C3746 C3745 1.524 . S
C3746 C3747 1.397 . S
C3746 C3751 1.363 . S
C3747 H3718 0.950 . S
C3747 C3746 1.397 . S
C3747 C3748 1.334 . S
C3748 H3719 0.950 . S
C3748 C3747 1.334 . S
C3748 C3749 1.287 . S
C3749 C3748 1.287 . S
C3749 C3750 1.524 . S
C3749 H3752 0.999 . S
C3750 H3720 0.950 . S
C3750 C3749 1.524 . S
C3750 C3751 1.415 . S
C3751 H3721 0.950 . S
C3751 C3746 1.363 . S
C3751 C3750 1.415 . S
H3752 C3749 0.999 . S
H3753 C3734 0.913 . S
H3754 C3772 0.951 . S
H3755 C3774 0.951 . S
H3756 C3776 0.950 . S
H3757 C3777 0.950 . S
H3758 C3779 0.950 . S
H3759 C3782 0.950 . S
H3760 C3783 0.950 . S
H3761 C3785 0.950 . S
H3762 C3786 0.950 . S
H3763 C3787 0.951 . S
H3764 C3789 0.951 . S
H3765 C3791 0.950 . S
H3766 C3792 0.950 . S
H3767 C3794 0.950 . S
H3768 C3797 0.950 . S
H3769 C3798 0.950 . S
H3770 C3800 0.950 . S
H3771 C3801 0.950 . S
C3772 H3754 0.951 . S
C3772 C3773 1.366 . S
C3772 C3774 1.388 . S
C3773 C3772 1.366 . S
C3773 C3777 1.385 . S
C3774 H3755 0.951 . S
C3774 C3772 1.388 . S
C3774 C3775 1.366 . S
C3775 C3774 1.366 . S
C3775 C3776 1.414 . S
C3775 C3778 1.499 . S
C3776 H3756 0.950 . S
C3776 C3775 1.414 . S
C3776 C3777 1.374 . S
C3777 H3757 0.950 . S
C3777 C3773 1.385 . S
C3777 C3776 1.374 . S
C3778 C3775 1.499 . S
C3778 C3779 1.373 . S
C3778 C3780 1.389 . S
C3779 H3758 0.950 . S
C3779 C3778 1.373 . S
C3779 C3795 1.377 . S
C3780 C3778 1.389 . S
C3780 C3781 1.524 . S
C3780 C3794 1.377 . S
C3781 C3780 1.524 . S
C3781 C3782 1.397 . S
C3781 C3786 1.363 . S
C3782 H3759 0.950 . S
C3782 C3781 1.397 . S
C3782 C3783 1.334 . S
C3783 H3760 0.950 . S
C3783 C3782 1.334 . S
C3783 C3784 1.287 . S
C3784 C3783 1.287 . S
C3784 C3785 1.524 . S
C3784 H3803 0.913 . S
C3785 H3761 0.950 . S
C3785 C3784 1.524 . S
C3785 C3786 1.415 . S
C3786 H3762 0.950 . S
C3786 C3781 1.363 . S
C3786 C3785 1.415 . S
C3787 H3763 0.951 . S
C3787 C3788 1.366 . S
C3787 C3789 1.388 . S
C3788 C3787 1.366 . S
C3788 C3792 1.385 . S
C3789 H3764 0.951 . S
C3789 C3787 1.388 . S
C3789 C3790 1.366 . S
C3790 C3789 1.366 . S
C3790 C3791 1.414 . S
C3790 C3793 1.499 . S
C3791 H3765 0.950 . S
C3791 C3790 1.414 . S
C3791 C3792 1.374 . S
C3792 H3766 0.950 . S
C3792 C3788 1.385 . S
C3792 C3791 1.374 . S
C3793 C3790 1.499 . S
C3793 C3794 1.373 . S
C3793 C3795 1.389 . S
C3794 H3767 0.950 . S
C3794 C3780 1.377 . S
C3794 C3793 1.373 . S
C3795 C3779 1.377 . S
C3795 C3793 1.389 . S
C3795 C3796 1.524 . S
C3796 C3795 1.524 . S
C3796 C3797 1.397 . S
C3796 C3801 1.363 . S
C3797 H3768 0.950 . S
C3797 C3796 1.397 . S
C3797 C3798 1.334 . S
C3798 H3769 0.950 . S
C3798 C3797 1.334 . S
C3798 C3799 1.287 . S
C3799 C3798 1.287 . S
C3799 C3800 1.524 . S
C3799 H3802 0.999 . S
C3800 H3770 0.950 . S
C3800 C3799 1.524 . S
C3800 C3801 1.415 . S
C3801 H3771 0.950 . S
C3801 C3796 1.363 . S
C3801 C3800 1.415 . S
H3802 C3799 0.999 . S
H3803 C3784 0.913 . S
H3804 C3822 0.951 . S
H3805 C3824 0.951 . S
H3806 C3826 0.950 . S
H3807 C3827 0.950 . S
H3808 C3829 0.950 . S
H3809 C3832 0.950 . S
H3810 C3833 0.950 . S
H3811 C3835 0.950 . S
H3812 C3836 0.950 . S
H3813 C3837 0.951 . S
H3814 C3839 0.951 . S
H3815 C3841 0.950 . S
H3816 C3842 0.950 . S
H3817 C3844 0.950 . S
H3818 C3847 0.950 . S
H3819 C3848 0.950 . S
H3820 C3850 0.950 . S
H3821 C3851 0.950 . S
C3822 H3804 0.951 . S
C3822 C3823 1.366 . S
C3822 C3824 1.388 . S
C3823 C3822 1.366 . S
C3823 C3827 1.385 . S
C3824 H3805 0.951 . S
C3824 C3822 1.388 . S
C3824 C3825 1.366 . S
C3825 C3824 1.366 . S
C3825 C3826 1.414 . S
C3825 C3828 1.499 . S
C3826 H3806 0.950 . S
C3826 C3825 1.414 . S
C3826 C3827 1.374 . S
C3827 H3807 0.950 . S
C3827 C3823 1.385 . S
C3827 C3826 1.374 . S
C3828 C3825 1.499 . S
C3828 C3829 1.373 . S
C3828 C3830 1.389 . S
C3829 H3808 0.950 . S
C3829 C3828 1.373 . S
C3829 C3845 1.377 1_655 S
C3830 C3828 1.389 . S
C3830 C3831 1.524 . S
C3830 C3844 1.377 1_655 S
C3831 C3830 1.524 . S
C3831 C3832 1.397 . S
C3831 C3836 1.363 . S
C3832 H3809 0.950 . S
C3832 C3831 1.397 . S
C3832 C3833 1.334 . S
C3833 H3810 0.950 . S
C3833 C3832 1.334 . S
C3833 C3834 1.287 . S
C3834 C3833 1.287 . S
C3834 C3835 1.524 . S
C3834 H3853 0.913 . S
C3835 H3811 0.950 . S
C3835 C3834 1.524 . S
C3835 C3836 1.415 . S
C3836 H3812 0.950 . S
C3836 C3831 1.363 . S
C3836 C3835 1.415 . S
C3837 H3813 0.951 . S
C3837 C3838 1.366 . S
C3837 C3839 1.388 . S
C3838 C3837 1.366 . S
C3838 C3842 1.385 . S
C3839 H3814 0.951 . S
C3839 C3837 1.388 . S
C3839 C3840 1.366 . S
C3840 C3839 1.366 . S
C3840 C3841 1.414 . S
C3840 C3843 1.499 . S
C3841 H3815 0.950 . S
C3841 C3840 1.414 . S
C3841 C3842 1.374 . S
C3842 H3816 0.950 . S
C3842 C3838 1.385 . S
C3842 C3841 1.374 . S
C3843 C3840 1.499 . S
C3843 C3844 1.373 . S
C3843 C3845 1.389 . S
C3844 H3817 0.950 . S
C3844 C3830 1.377 1_455 S
C3844 C3843 1.373 . S
C3845 C3829 1.377 1_455 S
C3845 C3843 1.389 . S
C3845 C3846 1.524 . S
C3846 C3845 1.524 . S
C3846 C3847 1.397 . S
C3846 C3851 1.363 . S
C3847 H3818 0.950 . S
C3847 C3846 1.397 . S
C3847 C3848 1.334 . S
C3848 H3819 0.950 . S
C3848 C3847 1.334 . S
C3848 C3849 1.287 . S
C3849 C3848 1.287 . S
C3849 C3850 1.524 . S
C3849 H3852 0.999 . S
C3850 H3820 0.950 . S
C3850 C3849 1.524 . S
C3850 C3851 1.415 . S
C3851 H3821 0.950 . S
C3851 C3846 1.363 . S
C3851 C3850 1.415 . S
H3852 C3849 0.999 . S
H3853 C3834 0.913 . S
H3854 C3872 0.951 . S
H3855 C3874 0.951 . S
H3856 C3876 0.950 . S
H3857 C3877 0.950 . S
H3858 C3879 0.950 . S
H3859 C3882 0.950 . S
H3860 C3883 0.950 . S
H3861 C3885 0.950 . S
H3862 C3886 0.950 . S
H3863 C3887 0.951 . S
H3864 C3889 0.951 . S
H3865 C3891 0.950 . S
H3866 C3892 0.950 . S
H3867 C3894 0.950 . S
H3868 C3897 0.950 . S
H3869 C3898 0.950 . S
H3870 C3900 0.950 . S
H3871 C3901 0.950 . S
C3872 H3854 0.951 . S
C3872 C3873 1.366 . S
C3872 C3874 1.388 . S
C3873 C3872 1.366 . S
C3873 C3877 1.385 . S
C3874 H3855 0.951 . S
C3874 C3872 1.388 . S
C3874 C3875 1.366 . S
C3875 C3874 1.366 . S
C3875 C3876 1.414 . S
C3875 C3878 1.499 . S
C3876 H3856 0.950 . S
C3876 C3875 1.414 . S
C3876 C3877 1.374 . S
C3877 H3857 0.950 . S
C3877 C3873 1.385 . S
C3877 C3876 1.374 . S
C3878 C3875 1.499 . S
C3878 C3879 1.373 . S
C3878 C3880 1.389 . S
C3879 H3858 0.950 . S
C3879 C3878 1.373 . S
C3879 C3895 1.377 . S
C3880 C3878 1.389 . S
C3880 C3881 1.524 . S
C3880 C3894 1.377 . S
C3881 C3880 1.524 . S
C3881 C3882 1.397 . S
C3881 C3886 1.363 . S
C3882 H3859 0.950 . S
C3882 C3881 1.397 . S
C3882 C3883 1.334 . S
C3883 H3860 0.950 . S
C3883 C3882 1.334 . S
C3883 C3884 1.287 . S
C3884 C3883 1.287 . S
C3884 C3885 1.524 . S
C3884 H3903 0.913 . S
C3885 H3861 0.950 . S
C3885 C3884 1.524 . S
C3885 C3886 1.415 . S
C3886 H3862 0.950 . S
C3886 C3881 1.363 . S
C3886 C3885 1.415 . S
C3887 H3863 0.951 . S
C3887 C3888 1.366 . S
C3887 C3889 1.388 . S
C3888 C3887 1.366 . S
C3888 C3892 1.385 . S
C3889 H3864 0.951 . S
C3889 C3887 1.388 . S
C3889 C3890 1.366 . S
C3890 C3889 1.366 . S
C3890 C3891 1.414 . S
C3890 C3893 1.499 . S
C3891 H3865 0.950 . S
C3891 C3890 1.414 . S
C3891 C3892 1.374 . S
C3892 H3866 0.950 . S
C3892 C3888 1.385 . S
C3892 C3891 1.374 . S
C3893 C3890 1.499 . S
C3893 C3894 1.373 . S
C3893 C3895 1.389 . S
C3894 H3867 0.950 . S
C3894 C3880 1.377 . S
C3894 C3893 1.373 . S
C3895 C3879 1.377 . S
C3895 C3893 1.389 . S
C3895 C3896 1.524 . S
C3896 C3895 1.524 . S
C3896 C3897 1.397 . S
C3896 C3901 1.363 . S
C3897 H3868 0.950 . S
C3897 C3896 1.397 . S
C3897 C3898 1.334 . S
C3898 H3869 0.950 . S
C3898 C3897 1.334 . S
C3898 C3899 1.287 . S
C3899 C3898 1.287 . S
C3899 C3900 1.524 . S
C3899 H3902 0.999 . S
C3900 H3870 0.950 . S
C3900 C3899 1.524 . S
C3900 C3901 1.415 . S
C3901 H3871 0.950 . S
C3901 C3896 1.363 . S
C3901 C3900 1.415 . S
H3902 C3899 0.999 . S
H3903 C3884 0.913 . S
H3904 C3922 0.951 . S
H3905 C3924 0.951 . S
H3906 C3926 0.950 . S
H3907 C3927 0.950 . S
H3908 C3929 0.950 . S
H3909 C3932 0.950 . S
H3910 C3933 0.950 . S
H3911 C3935 0.950 . S
H3912 C3936 0.950 . S
H3913 C3937 0.951 . S
H3914 C3939 0.951 . S
H3915 C3941 0.950 . S
H3916 C3942 0.950 . S
H3917 C3944 0.950 . S
H3918 C3947 0.950 . S
H3919 C3948 0.950 . S
H3920 C3950 0.950 . S
H3921 C3951 0.950 . S
C3922 H3904 0.951 . S
C3922 C3923 1.366 . S
C3922 C3924 1.388 . S
C3923 C3922 1.366 . S
C3923 C3927 1.385 . S
C3924 H3905 0.951 . S
C3924 C3922 1.388 . S
C3924 C3925 1.366 . S
C3925 C3924 1.366 . S
C3925 C3926 1.414 . S
C3925 C3928 1.499 . S
C3926 H3906 0.950 . S
C3926 C3925 1.414 . S
C3926 C3927 1.374 . S
C3927 H3907 0.950 . S
C3927 C3923 1.385 . S
C3927 C3926 1.374 . S
C3928 C3925 1.499 . S
C3928 C3929 1.373 . S
C3928 C3930 1.389 . S
C3929 H3908 0.950 . S
C3929 C3928 1.373 . S
C3929 C3945 1.377 1_565 S
C3930 C3928 1.389 . S
C3930 C3931 1.524 . S
C3930 C3944 1.377 1_565 S
C3931 C3930 1.524 . S
C3931 C3932 1.397 . S
C3931 C3936 1.363 1_565 S
C3932 H3909 0.950 . S
C3932 C3931 1.397 . S
C3932 C3933 1.334 . S
C3933 H3910 0.950 . S
C3933 C3932 1.334 . S
C3933 C3934 1.287 . S
C3934 C3933 1.287 . S
C3934 C3935 1.524 1_565 S
C3934 H3953 0.913 . S
C3935 H3911 0.950 . S
C3935 C3934 1.524 1_545 S
C3935 C3936 1.415 . S
C3936 H3912 0.950 . S
C3936 C3931 1.363 1_545 S
C3936 C3935 1.415 . S
C3937 H3913 0.951 . S
C3937 C3938 1.366 . S
C3937 C3939 1.388 . S
C3938 C3937 1.366 . S
C3938 C3942 1.385 . S
C3939 H3914 0.951 . S
C3939 C3937 1.388 . S
C3939 C3940 1.366 . S
C3940 C3939 1.366 . S
C3940 C3941 1.414 . S
C3940 C3943 1.499 . S
C3941 H3915 0.950 . S
C3941 C3940 1.414 . S
C3941 C3942 1.374 . S
C3942 H3916 0.950 . S
C3942 C3938 1.385 . S
C3942 C3941 1.374 . S
C3943 C3940 1.499 . S
C3943 C3944 1.373 . S
C3943 C3945 1.389 . S
C3944 H3917 0.950 . S
C3944 C3930 1.377 1_545 S
C3944 C3943 1.373 . S
C3945 C3929 1.377 1_545 S
C3945 C3943 1.389 . S
C3945 C3946 1.524 . S
C3946 C3945 1.524 . S
C3946 C3947 1.397 . S
C3946 C3951 1.363 1_545 S
C3947 H3918 0.950 . S
C3947 C3946 1.397 . S
C3947 C3948 1.334 . S
C3948 H3919 0.950 . S
C3948 C3947 1.334 . S
C3948 C3949 1.287 . S
C3949 C3948 1.287 . S
C3949 C3950 1.524 1_545 S
C3949 H3952 0.999 . S
C3950 H3920 0.950 . S
C3950 C3949 1.524 1_565 S
C3950 C3951 1.415 . S
C3951 H3921 0.950 . S
C3951 C3946 1.363 1_565 S
C3951 C3950 1.415 . S
H3952 C3949 0.999 . S
H3953 C3934 0.913 . S
H3954 C3972 0.951 . S
H3955 C3974 0.951 . S
H3956 C3976 0.950 . S
H3957 C3977 0.950 . S
H3958 C3979 0.950 . S
H3959 C3982 0.950 . S
H3960 C3983 0.950 . S
H3961 C3985 0.950 . S
H3962 C3986 0.950 . S
H3963 C3987 0.951 . S
H3964 C3989 0.951 . S
H3965 C3991 0.950 . S
H3966 C3992 0.950 . S
H3967 C3994 0.950 . S
H3968 C3997 0.950 . S
H3969 C3998 0.950 . S
H3970 C4000 0.950 . S
H3971 C4001 0.950 . S
C3972 H3954 0.951 . S
C3972 C3973 1.366 . S
C3972 C3974 1.388 . S
C3973 C3972 1.366 . S
C3973 C3977 1.385 . S
C3974 H3955 0.951 . S
C3974 C3972 1.388 . S
C3974 C3975 1.366 . S
C3975 C3974 1.366 . S
C3975 C3976 1.414 . S
C3975 C3978 1.499 . S
C3976 H3956 0.950 . S
C3976 C3975 1.414 . S
C3976 C3977 1.374 . S
C3977 H3957 0.950 . S
C3977 C3973 1.385 . S
C3977 C3976 1.374 . S
C3978 C3975 1.499 . S
C3978 C3979 1.373 . S
C3978 C3980 1.389 . S
C3979 H3958 0.950 . S
C3979 C3978 1.373 . S
C3979 C3995 1.377 1_545 S
C3980 C3978 1.389 . S
C3980 C3981 1.524 . S
C3980 C3994 1.377 1_545 S
C3981 C3980 1.524 . S
C3981 C3982 1.397 . S
C3981 C3986 1.363 . S
C3982 H3959 0.950 . S
C3982 C3981 1.397 . S
C3982 C3983 1.334 . S
C3983 H3960 0.950 . S
C3983 C3982 1.334 . S
C3983 C3984 1.287 . S
C3984 C3983 1.287 . S
C3984 C3985 1.524 . S
C3984 H4003 0.913 . S
C3985 H3961 0.950 . S
C3985 C3984 1.524 . S
C3985 C3986 1.415 . S
C3986 H3962 0.950 . S
C3986 C3981 1.363 . S
C3986 C3985 1.415 . S
C3987 H3963 0.951 . S
C3987 C3988 1.366 . S
C3987 C3989 1.388 . S
C3988 C3987 1.366 . S
C3988 C3992 1.385 . S
C3989 H3964 0.951 . S
C3989 C3987 1.388 . S
C3989 C3990 1.366 . S
C3990 C3989 1.366 . S
C3990 C3991 1.414 . S
C3990 C3993 1.499 . S
C3991 H3965 0.950 . S
C3991 C3990 1.414 . S
C3991 C3992 1.374 . S
C3992 H3966 0.950 . S
C3992 C3988 1.385 . S
C3992 C3991 1.374 . S
C3993 C3990 1.499 . S
C3993 C3994 1.373 . S
C3993 C3995 1.389 . S
C3994 H3967 0.950 . S
C3994 C3980 1.377 1_565 S
C3994 C3993 1.373 . S
C3995 C3979 1.377 1_565 S
C3995 C3993 1.389 . S
C3995 C3996 1.524 . S
C3996 C3995 1.524 . S
C3996 C3997 1.397 . S
C3996 C4001 1.363 . S
C3997 H3968 0.950 . S
C3997 C3996 1.397 . S
C3997 C3998 1.334 . S
C3998 H3969 0.950 . S
C3998 C3997 1.334 . S
C3998 C3999 1.287 . S
C3999 C3998 1.287 . S
C3999 C4000 1.524 . S
C3999 H4002 0.999 . S
C4000 H3970 0.950 . S
C4000 C3999 1.524 . S
C4000 C4001 1.415 . S
C4001 H3971 0.950 . S
C4001 C3996 1.363 . S
C4001 C4000 1.415 . S
H4002 C3999 0.999 . S
H4003 C3984 0.913 . S
H4004 C4022 0.951 . S
H4005 C4024 0.951 . S
H4006 C4026 0.950 . S
H4007 C4027 0.950 . S
H4008 C4029 0.950 . S
H4009 C4032 0.950 . S
H4010 C4033 0.950 . S
H4011 C4035 0.950 . S
H4012 C4036 0.950 . S
H4013 C4037 0.951 . S
H4014 C4039 0.951 . S
H4015 C4041 0.950 . S
H4016 C4042 0.950 . S
H4017 C4044 0.950 . S
H4018 C4047 0.950 . S
H4019 C4048 0.950 . S
H4020 C4050 0.950 . S
H4021 C4051 0.950 . S
C4022 H4004 0.951 . S
C4022 C4023 1.366 . S
C4022 C4024 1.388 . S
C4023 C4022 1.366 . S
C4023 C4027 1.385 . S
C4024 H4005 0.951 . S
C4024 C4022 1.388 . S
C4024 C4025 1.366 . S
C4025 C4024 1.366 . S
C4025 C4026 1.414 . S
C4025 C4028 1.499 . S
C4026 H4006 0.950 . S
C4026 C4025 1.414 . S
C4026 C4027 1.374 . S
C4027 H4007 0.950 . S
C4027 C4023 1.385 . S
C4027 C4026 1.374 . S
C4028 C4025 1.499 . S
C4028 C4029 1.373 . S
C4028 C4030 1.389 . S
C4029 H4008 0.950 . S
C4029 C4028 1.373 . S
C4029 C4045 1.377 1_455 S
C4030 C4028 1.389 . S
C4030 C4031 1.524 . S
C4030 C4044 1.377 1_455 S
C4031 C4030 1.524 . S
C4031 C4032 1.397 . S
C4031 C4036 1.363 . S
C4032 H4009 0.950 . S
C4032 C4031 1.397 . S
C4032 C4033 1.334 . S
C4033 H4010 0.950 . S
C4033 C4032 1.334 . S
C4033 C4034 1.287 . S
C4034 C4033 1.287 . S
C4034 C4035 1.524 . S
C4034 H4053 0.913 . S
C4035 H4011 0.950 . S
C4035 C4034 1.524 . S
C4035 C4036 1.415 . S
C4036 H4012 0.950 . S
C4036 C4031 1.363 . S
C4036 C4035 1.415 . S
C4037 H4013 0.951 . S
C4037 C4038 1.366 . S
C4037 C4039 1.388 . S
C4038 C4037 1.366 . S
C4038 C4042 1.385 . S
C4039 H4014 0.951 . S
C4039 C4037 1.388 . S
C4039 C4040 1.366 . S
C4040 C4039 1.366 . S
C4040 C4041 1.414 . S
C4040 C4043 1.499 . S
C4041 H4015 0.950 . S
C4041 C4040 1.414 . S
C4041 C4042 1.374 . S
C4042 H4016 0.950 . S
C4042 C4038 1.385 . S
C4042 C4041 1.374 . S
C4043 C4040 1.499 . S
C4043 C4044 1.373 . S
C4043 C4045 1.389 . S
C4044 H4017 0.950 . S
C4044 C4030 1.377 1_655 S
C4044 C4043 1.373 . S
C4045 C4029 1.377 1_655 S
C4045 C4043 1.389 . S
C4045 C4046 1.524 . S
C4046 C4045 1.524 . S
C4046 C4047 1.397 . S
C4046 C4051 1.363 . S
C4047 H4018 0.950 . S
C4047 C4046 1.397 . S
C4047 C4048 1.334 . S
C4048 H4019 0.950 . S
C4048 C4047 1.334 . S
C4048 C4049 1.287 . S
C4049 C4048 1.287 . S
C4049 C4050 1.524 . S
C4049 H4052 0.999 . S
C4050 H4020 0.950 . S
C4050 C4049 1.524 . S
C4050 C4051 1.415 . S
C4051 H4021 0.950 . S
C4051 C4046 1.363 . S
C4051 C4050 1.415 . S
H4052 C4049 0.999 . S
H4053 C4034 0.913 . S
H4054 C4072 0.951 . S
H4055 C4074 0.951 . S
H4056 C4076 0.950 . S
H4057 C4077 0.950 . S
H4058 C4079 0.950 . S
H4059 C4082 0.950 . S
H4060 C4083 0.950 . S
H4061 C4085 0.950 . S
H4062 C4086 0.950 . S
H4063 C4087 0.951 . S
H4064 C4089 0.951 . S
H4065 C4091 0.950 . S
H4066 C4092 0.950 . S
H4067 C4094 0.950 . S
H4068 C4097 0.950 . S
H4069 C4098 0.950 . S
H4070 C4100 0.950 . S
H4071 C4101 0.950 . S
C4072 H4054 0.951 . S
C4072 C4073 1.366 . S
C4072 C4074 1.388 . S
C4073 C4072 1.366 . S
C4073 C4077 1.385 . S
C4074 H4055 0.951 . S
C4074 C4072 1.388 . S
C4074 C4075 1.366 . S
C4075 C4074 1.366 . S
C4075 C4076 1.414 . S
C4075 C4078 1.499 . S
C4076 H4056 0.950 . S
C4076 C4075 1.414 . S
C4076 C4077 1.374 . S
C4077 H4057 0.950 . S
C4077 C4073 1.385 . S
C4077 C4076 1.374 . S
C4078 C4075 1.499 . S
C4078 C4079 1.373 . S
C4078 C4080 1.389 . S
C4079 H4058 0.950 . S
C4079 C4078 1.373 . S
C4079 C4095 1.377 . S
C4080 C4078 1.389 . S
C4080 C4081 1.524 . S
C4080 C4094 1.377 . S
C4081 C4080 1.524 . S
C4081 C4082 1.397 . S
C4081 C4086 1.363 . S
C4082 H4059 0.950 . S
C4082 C4081 1.397 . S
C4082 C4083 1.334 . S
C4083 H4060 0.950 . S
C4083 C4082 1.334 . S
C4083 C4084 1.287 . S
C4084 C4083 1.287 . S
C4084 C4085 1.524 . S
C4084 H4103 0.913 . S
C4085 H4061 0.950 . S
C4085 C4084 1.524 . S
C4085 C4086 1.415 . S
C4086 H4062 0.950 . S
C4086 C4081 1.363 . S
C4086 C4085 1.415 . S
C4087 H4063 0.951 . S
C4087 C4088 1.366 . S
C4087 C4089 1.388 . S
C4088 C4087 1.366 . S
C4088 C4092 1.385 . S
C4089 H4064 0.951 . S
C4089 C4087 1.388 . S
C4089 C4090 1.366 . S
C4090 C4089 1.366 . S
C4090 C4091 1.414 . S
C4090 C4093 1.499 . S
C4091 H4065 0.950 . S
C4091 C4090 1.414 . S
C4091 C4092 1.374 . S
C4092 H4066 0.950 . S
C4092 C4088 1.385 . S
C4092 C4091 1.374 . S
C4093 C4090 1.499 . S
C4093 C4094 1.373 . S
C4093 C4095 1.389 . S
C4094 H4067 0.950 . S
C4094 C4080 1.377 . S
C4094 C4093 1.373 . S
C4095 C4079 1.377 . S
C4095 C4093 1.389 . S
C4095 C4096 1.524 . S
C4096 C4095 1.524 . S
C4096 C4097 1.397 . S
C4096 C4101 1.363 . S
C4097 H4068 0.950 . S
C4097 C4096 1.397 . S
C4097 C4098 1.334 . S
C4098 H4069 0.950 . S
C4098 C4097 1.334 . S
C4098 C4099 1.287 . S
C4099 C4098 1.287 . S
C4099 C4100 1.524 . S
C4099 H4102 0.999 . S
C4100 H4070 0.950 . S
C4100 C4099 1.524 . S
C4100 C4101 1.415 . S
C4101 H4071 0.950 . S
C4101 C4096 1.363 . S
C4101 C4100 1.415 . S
H4102 C4099 0.999 . S
H4103 C4084 0.913 . S
C523 C78 1.059 . S
C538 C8 1.059 . S
C573 C22 1.059 . S
C588 C50 1.059 . S
C623 C64 1.060 . S
C638 C36 1.060 . S
C673 C92 1.059 . S
C688 C162 1.059 . S
C723 C106 1.059 . S
C738 C134 1.060 . S
C773 C148 1.060 . S
C788 C120 1.060 . S
C823 C246 1.060 . S
C838 C176 1.060 . S
C873 C190 1.060 . S
C888 C218 1.060 . S
C923 C232 1.060 . S
C938 C204 1.060 . S
C973 C260 1.060 . S
C988 C330 1.060 . S
C1023 C274 1.060 . S
C1038 C302 1.060 . S
C1073 C288 1.060 . S
C1088 C316 1.060 . S
C1123 C344 1.060 . S
C1138 C414 1.060 . S
C1173 C386 1.059 . S
C1188 C358 1.059 . S
C1223 C372 1.060 . S
C1238 C400 1.060 . S
C1273 C428 1.059 . S
C1288 C498 1.059 . S
C1323 C442 1.059 . S
C1338 C470 1.059 . S
C1373 C456 1.060 . S
C1388 C484 1.060 . S
C1423 C147 1.186 . S
C1438 C9 1.176 . S
C1473 C161 1.187 . S
C1488 C23 1.175 . S
C1523 C133 1.186 . S
C1538 C37 1.174 . S
C1573 C119 1.187 . S
C1588 C51 1.174 . S
C1623 C65 1.176 . S
C1638 C91 1.186 . S
C1673 C79 1.176 . S
C1688 C105 1.186 . S
C1723 C93 1.174 . S
C1738 C63 1.186 . S
C1773 C107 1.176 . S
C1788 C77 1.186 . S
C1823 C121 1.176 . S
C1838 C49 1.186 . S
C1873 C35 1.187 . S
C1888 C135 1.174 . S
C1923 C7 1.187 . S
C1938 C149 1.174 . S
C1973 C163 1.175 . S
C1988 C21 1.187 . S
C2023 C177 1.174 . S
C2038 C315 1.186 . S
C2073 C191 1.175 . S
C2088 C329 1.186 . S
C2123 C301 1.186 . S
C2138 C205 1.176 . S
C2173 C219 1.175 . S
C2188 C287 1.187 . S
C2223 C233 1.175 . S
C2238 C259 1.185 . S
C2273 C247 1.176 . S
C2288 C273 1.186 . S
C2323 C261 1.176 . S
C2338 C231 1.186 . S
C2373 C245 1.187 . S
C2388 C275 1.174 . S
C2423 C217 1.186 . S
C2438 C289 1.176 . S
C2473 C303 1.174 . S
C2488 C203 1.187 . S
C2523 C175 1.187 . S
C2538 C317 1.175 . S
C2573 C189 1.186 . S
C2588 C331 1.176 . S
C2623 C483 1.187 . S
C2638 C345 1.176 . S
C2673 C359 1.175 . S
C2688 C497 1.187 . S
C2723 C373 1.175 . S
C2738 C469 1.187 . S
C2773 C455 1.186 . S
C2788 C387 1.176 . S
C2823 C427 1.186 . S
C2838 C401 1.176 . S
C2873 C441 1.186 . S
C2888 C415 1.174 . S
C2923 C429 1.174 . S
C2938 C399 1.187 . S
C2973 C413 1.187 . S
C2988 C443 1.174 . S
C3023 C457 1.174 . S
C3038 C385 1.187 . S
C3073 C371 1.186 . S
C3088 C471 1.176 . S
C3123 C343 1.187 . S
C3138 C485 1.175 . S
C3173 C357 1.187 . S
C3188 C499 1.175 . S
C3223 C227 1.280 . S
C3238 C3 1.280 . S
C3273 C17 1.280 . S
C3288 C241 1.280 . S
C3323 C213 1.280 . S
C3338 C31 1.280 . S
C3373 C367 1.280 . S
C3388 C45 1.280 . S
C3423 C59 1.280 . S
C3438 C339 1.281 . S
C3473 C73 1.280 . S
C3488 C353 1.280 . S
C3523 C87 1.280 . S
C3538 C479 1.280 . S
C3573 C493 1.280 . S
C3588 C101 1.279 . S
C3623 C465 1.280 . S
C3638 C115 1.280 . S
C3673 C283 1.280 . S
C3688 C129 1.280 . S
C3723 C143 1.280 . S
C3738 C255 1.281 . S
C3773 C157 1.280 . S
C3788 C269 1.279 . S
C3823 C171 1.280 . S
C3838 C395 1.281 . S
C3873 C409 1.280 . S
C3888 C185 1.280 . S
C3923 C381 1.280 . S
C3938 C199 1.279 . S
C3973 C297 1.280 . S
C3988 C451 1.280 . S
C4023 C423 1.281 . S
C4038 C311 1.280 . S
C4073 C437 1.280 . S
C4088 C325 1.280 . S
