# Generated by pormake.
# Topology vbm, (6)-cn, num edge types: 1
# Building blocks:
#     Node 0, Type 0, BuildingBlock: BETGAK_clean_sbu_0, # of connection points: 6
#     Node 1, Type 0, BuildingBlock: BETGAK_clean_sbu_0, # of connection points: 6
#     Node 2, Type 0, BuildingBlock: BETGAK_clean_sbu_0, # of connection points: 6
#     Node 3, Type 0, BuildingBlock: BETGAK_clean_sbu_0, # of connection points: 6
#     Node 4, Type 0, BuildingBlock: BETGAK_clean_sbu_0, # of connection points: 6
#     Node 5, Type 0, BuildingBlock: BETGAK_clean_sbu_0, # of connection points: 6
#     Node 6, Type 0, BuildingBlock: BETGAK_clean_sbu_0, # of connection points: 6
#     Node 7, Type 0, BuildingBlock: BETGAK_clean_sbu_0, # of connection points: 6
#     Node 8, Type 0, BuildingBlock: BETGAK_clean_sbu_0, # of connection points: 6
#     Node 9, Type 0, BuildingBlock: BETGAK_clean_sbu_0, # of connection points: 6
#     Node 10, Type 0, BuildingBlock: BETGAK_clean_sbu_0, # of connection points: 6
#     Node 11, Type 0, BuildingBlock: BETGAK_clean_sbu_0, # of connection points: 6
#     Node 12, Type 0, BuildingBlock: BETGAK_clean_sbu_0, # of connection points: 6
#     Node 13, Type 0, BuildingBlock: BETGAK_clean_sbu_0, # of connection points: 6
#     Node 14, Type 0, BuildingBlock: BETGAK_clean_sbu_0, # of connection points: 6
#     Node 15, Type 0, BuildingBlock: BETGAK_clean_sbu_0, # of connection points: 6
#     Edge 16, Type (0, 0), BuildingBlock: XIVTED_clean_linker_0, # of connection points: 2
#     Edge 17, Type (0, 0), BuildingBlock: XIVTED_clean_linker_0, # of connection points: 2
#     Edge 18, Type (0, 0), BuildingBlock: XIVTED_clean_linker_0, # of connection points: 2
#     Edge 19, Type (0, 0), BuildingBlock: XIVTED_clean_linker_0, # of connection points: 2
#     Edge 20, Type (0, 0), BuildingBlock: XIVTED_clean_linker_0, # of connection points: 2
#     Edge 21, Type (0, 0), BuildingBlock: XIVTED_clean_linker_0, # of connection points: 2
#     Edge 22, Type (0, 0), BuildingBlock: XIVTED_clean_linker_0, # of connection points: 2
#     Edge 23, Type (0, 0), BuildingBlock: XIVTED_clean_linker_0, # of connection points: 2
#     Edge 24, Type (0, 0), BuildingBlock: XIVTED_clean_linker_0, # of connection points: 2
#     Edge 25, Type (0, 0), BuildingBlock: XIVTED_clean_linker_0, # of connection points: 2
#     Edge 26, Type (0, 0), BuildingBlock: XIVTED_clean_linker_0, # of connection points: 2
#     Edge 27, Type (0, 0), BuildingBlock: XIVTED_clean_linker_0, # of connection points: 2
#     Edge 28, Type (0, 0), BuildingBlock: XIVTED_clean_linker_0, # of connection points: 2
#     Edge 29, Type (0, 0), BuildingBlock: XIVTED_clean_linker_0, # of connection points: 2
#     Edge 30, Type (0, 0), BuildingBlock: XIVTED_clean_linker_0, # of connection points: 2
#     Edge 31, Type (0, 0), BuildingBlock: XIVTED_clean_linker_0, # of connection points: 2
#     Edge 32, Type (0, 0), BuildingBlock: XIVTED_clean_linker_0, # of connection points: 2
#     Edge 33, Type (0, 0), BuildingBlock: XIVTED_clean_linker_0, # of connection points: 2
#     Edge 34, Type (0, 0), BuildingBlock: XIVTED_clean_linker_0, # of connection points: 2
#     Edge 35, Type (0, 0), BuildingBlock: XIVTED_clean_linker_0, # of connection points: 2
#     Edge 36, Type (0, 0), BuildingBlock: XIVTED_clean_linker_0, # of connection points: 2
#     Edge 37, Type (0, 0), BuildingBlock: XIVTED_clean_linker_0, # of connection points: 2
#     Edge 38, Type (0, 0), BuildingBlock: XIVTED_clean_linker_0, # of connection points: 2
#     Edge 39, Type (0, 0), BuildingBlock: XIVTED_clean_linker_0, # of connection points: 2
#     Edge 40, Type (0, 0), BuildingBlock: XIVTED_clean_linker_0, # of connection points: 2
#     Edge 41, Type (0, 0), BuildingBlock: XIVTED_clean_linker_0, # of connection points: 2
#     Edge 42, Type (0, 0), BuildingBlock: XIVTED_clean_linker_0, # of connection points: 2
#     Edge 43, Type (0, 0), BuildingBlock: XIVTED_clean_linker_0, # of connection points: 2
#     Edge 44, Type (0, 0), BuildingBlock: XIVTED_clean_linker_0, # of connection points: 2
#     Edge 45, Type (0, 0), BuildingBlock: XIVTED_clean_linker_0, # of connection points: 2
#     Edge 46, Type (0, 0), BuildingBlock: XIVTED_clean_linker_0, # of connection points: 2
#     Edge 47, Type (0, 0), BuildingBlock: XIVTED_clean_linker_0, # of connection points: 2
#     Edge 48, Type (0, 0), BuildingBlock: XIVTED_clean_linker_0, # of connection points: 2
#     Edge 49, Type (0, 0), BuildingBlock: XIVTED_clean_linker_0, # of connection points: 2
#     Edge 50, Type (0, 0), BuildingBlock: XIVTED_clean_linker_0, # of connection points: 2
#     Edge 51, Type (0, 0), BuildingBlock: XIVTED_clean_linker_0, # of connection points: 2
#     Edge 52, Type (0, 0), BuildingBlock: XIVTED_clean_linker_0, # of connection points: 2
#     Edge 53, Type (0, 0), BuildingBlock: XIVTED_clean_linker_0, # of connection points: 2
#     Edge 54, Type (0, 0), BuildingBlock: XIVTED_clean_linker_0, # of connection points: 2
#     Edge 55, Type (0, 0), BuildingBlock: XIVTED_clean_linker_0, # of connection points: 2
#     Edge 56, Type (0, 0), BuildingBlock: XIVTED_clean_linker_0, # of connection points: 2
#     Edge 57, Type (0, 0), BuildingBlock: XIVTED_clean_linker_0, # of connection points: 2
#     Edge 58, Type (0, 0), BuildingBlock: XIVTED_clean_linker_0, # of connection points: 2
#     Edge 59, Type (0, 0), BuildingBlock: XIVTED_clean_linker_0, # of connection points: 2
#     Edge 60, Type (0, 0), BuildingBlock: XIVTED_clean_linker_0, # of connection points: 2
#     Edge 61, Type (0, 0), BuildingBlock: XIVTED_clean_linker_0, # of connection points: 2
#     Edge 62, Type (0, 0), BuildingBlock: XIVTED_clean_linker_0, # of connection points: 2
#     Edge 63, Type (0, 0), BuildingBlock: XIVTED_clean_linker_0, # of connection points: 2
# Relax obj value: 0.065
# Max RMSD: 0.139
# Mean RMSD: 0.139
data_MOF--net-vbm--node1-BETGAK_clean_sbu_0--edge1-XIVTED_clean_linker_0
_symmetry_space_group_name_H-M    P1
_symmetry_Int_Tables_number       1
_symmetry_cell_setting            triclinic
loop_
_symmetry_equiv_pos_as_xyz
'x, y, z'
_cell_length_a     55.741505
_cell_length_b     25.738588
_cell_length_c     55.016815
_cell_angle_alpha  89.966953
_cell_angle_beta   90.023115
_cell_angle_gamma 90.191569
loop_
_atom_site_label
_atom_site_type_symbol
_atom_site_fract_x
_atom_site_fract_y
_atom_site_fract_z
_atom_type_partial_charge
La0 La 0.13454 0.0889 0.17329 0.0
La1 La 0.11028 0.19895 0.17069 0.0
C2 C 0.14737 1.00273 0.19065 0.0
C3 C 0.145 0.94691 0.18541 0.0
C4 C 0.13436 0.92899 0.16386 0.0
C5 C 0.13212 0.87551 0.15953 0.0
C6 C 0.14047 0.8391 0.17669 0.0
C7 C 0.15108 0.85759 0.19825 0.0
C8 C 0.15331 0.91092 0.20253 0.0
C9 C 0.13186 0.12143 0.1275 0.0
C10 C 0.07887 0.10255 0.15988 0.0
C11 C 0.09746 0.29107 0.16221 0.0
C12 C 0.10697 0.34467 0.16081 0.0
C13 C 0.12144 0.36581 0.17928 0.0
C14 C 0.12745 0.41871 0.17908 0.0
C15 C 0.11916 0.45153 0.16039 0.0
C16 C 0.10561 0.42953 0.14138 0.0
C17 C 0.09954 0.37677 0.14165 0.0
C18 C 0.10838 0.14711 0.21239 0.0
C19 C 0.16666 0.19018 0.1784 0.0
O20 O 0.16046 1.03015 0.17548 0.0
O21 O 0.12761 1.02675 0.19697 0.0
O22 O 0.1415 0.07787 0.1342 0.0
O23 O 0.12444 0.14327 0.1465 0.0
O24 O 0.09589 0.07211 0.1691 0.0
O25 O 0.08222 0.15239 0.15536 0.0
O26 O 0.09677 0.26933 0.18374 0.0
O27 O 0.10388 0.25841 0.14515 0.0
O28 O 0.09113 0.17606 0.20423 0.0
O29 O 0.12564 0.14952 0.19778 0.0
O30 O 0.14799 0.21944 0.17276 0.0
O31 O 0.16514 0.13915 0.18175 0.0
H32 H 0.12781 0.95632 0.15044 0.0
H33 H 0.12405 0.86271 0.14265 0.0
H34 H 0.15732 0.83085 0.21206 0.0
H35 H 0.16141 0.9241 0.21935 0.0
H36 H 0.12747 0.3419 0.19428 0.0
H37 H 0.13777 0.43423 0.1941 0.0
H38 H 0.09935 0.45326 0.12643 0.0
H39 H 0.08841 0.36131 0.1272 0.0
La40 La 0.85505 0.98605 0.17105 0.0
La41 La 0.87853 0.87515 0.16574 0.0
C42 C 0.84317 0.07108 0.19019 0.0
C43 C 0.84594 0.12735 0.18624 0.0
C44 C 0.85553 0.14743 0.1646 0.0
C45 C 0.85807 0.20128 0.16152 0.0
C46 C 0.85118 0.23586 0.1801 0.0
C47 C 0.84156 0.21519 0.20171 0.0
C48 C 0.83899 0.16153 0.20472 0.0
C49 C 0.85751 0.95777 0.12458 0.0
C50 C 0.91042 0.97167 0.15713 0.0
C51 C 0.89014 0.78426 0.1534 0.0
C52 C 0.8817 0.73 0.15523 0.0
C53 C 0.86931 0.71167 0.17576 0.0
C54 C 0.86362 0.65877 0.17794 0.0
C55 C 0.87011 0.62332 0.15959 0.0
C56 C 0.88183 0.64237 0.13874 0.0
C57 C 0.88758 0.6951 0.13664 0.0
C58 C 0.88062 0.92169 0.20877 0.0
C59 C 0.82246 0.88481 0.17625 0.0
O60 O 0.82974 0.04574 0.17454 0.0
O61 O 0.86274 0.04567 0.19587 0.0
O62 O 0.84797 1.00075 0.13218 0.0
O63 O 0.86507 0.93454 0.14315 0.0
O64 O 0.89384 1.00133 0.16759 0.0
O65 O 0.90635 0.92306 0.15065 0.0
O66 O 0.89713 0.80662 0.1736 0.0
O67 O 0.87778 0.81567 0.13947 0.0
O68 O 0.89735 0.89166 0.20036 0.0
O69 O 0.86362 0.92224 0.19384 0.0
O70 O 0.84099 0.85489 0.17077 0.0
O71 O 0.82418 0.93602 0.17899 0.0
H72 H 0.86111 0.12151 0.15017 0.0
H73 H 0.86579 0.21577 0.14477 0.0
H74 H 0.83572 0.24052 0.21624 0.0
H75 H 0.83154 0.14669 0.22155 0.0
H76 H 0.86446 0.738 0.19029 0.0
H77 H 0.85429 0.64556 0.19408 0.0
H78 H 0.88733 0.61623 0.12439 0.0
H79 H 0.89721 0.70844 0.12069 0.0
La80 La 0.13534 0.96977 0.40677 0.0
La81 La 0.10991 0.86864 0.404 0.0
C82 C 0.15001 0.06219 0.40145 0.0
C83 C 0.14184 0.11689 0.40262 0.0
C84 C 0.14747 0.14728 0.42307 0.0
C85 C 0.14249 0.20046 0.42338 0.0
C86 C 0.13192 0.22474 0.40315 0.0
C87 C 0.1258 0.19411 0.38287 0.0
C88 C 0.13075 0.14081 0.38258 0.0
C89 C 0.13639 0.91554 0.44762 0.0
C90 C 0.07858 0.96285 0.4155 0.0
C91 C 0.09494 0.77629 0.40836 0.0
C92 C 0.10313 0.72166 0.40671 0.0
C93 C 0.09671 0.69146 0.38644 0.0
C94 C 0.10175 0.63831 0.38579 0.0
C95 C 0.11316 0.61391 0.40551 0.0
C96 C 0.12012 0.64437 0.42555 0.0
C97 C 0.11513 0.69762 0.42617 0.0
C98 C 0.1092 0.92551 0.36378 0.0
C99 C 0.16632 0.8725 0.39611 0.0
O100 O 0.15116 0.03647 0.42191 0.0
O101 O 0.14207 1.03318 0.38363 0.0
O102 O 0.154 0.94298 0.43914 0.0
O103 O 0.11862 0.92007 0.43349 0.0
O104 O 0.09709 0.99213 0.40878 0.0
O105 O 0.08076 0.91247 0.41869 0.0
O106 O 0.09387 0.8029 0.38814 0.0
O107 O 0.10286 0.80447 0.4265 0.0
O108 O 0.09125 0.89795 0.37146 0.0
O109 O 0.12667 0.91887 0.37789 0.0
O110 O 0.1474 0.84463 0.4025 0.0
O111 O 0.16508 0.92346 0.39344 0.0
H112 H 0.15642 0.13026 0.43862 0.0
H113 H 0.14778 0.22289 0.43915 0.0
H114 H 0.1174 0.21144 0.36709 0.0
H115 H 0.12639 0.11869 0.36642 0.0
H116 H 0.08709 0.70863 0.37134 0.0
H117 H 0.09585 0.61597 0.37021 0.0
H118 H 0.12919 0.62693 0.44092 0.0
H119 H 0.12018 0.71958 0.44218 0.0
La120 La 0.85499 0.09389 0.40273 0.0
La121 La 0.88007 0.19607 0.40131 0.0
C122 C 0.8408 1.00184 0.39542 0.0
C123 C 0.84905 0.94731 0.39609 0.0
C124 C 0.85593 0.92316 0.41792 0.0
C125 C 0.86082 0.86987 0.4185 0.0
C126 C 0.85889 0.83958 0.39728 0.0
C127 C 0.85281 0.86429 0.37533 0.0
C128 C 0.84788 0.91749 0.37477 0.0
C129 C 0.85367 0.14575 0.44413 0.0
C130 C 0.91167 0.10153 0.41216 0.0
C131 C 0.8947 0.28808 0.40756 0.0
C132 C 0.88663 0.34273 0.40655 0.0
C133 C 0.87966 0.36634 0.38461 0.0
C134 C 0.87487 0.41968 0.38375 0.0
C135 C 0.877 0.45052 0.40477 0.0
C136 C 0.88317 0.42635 0.42683 0.0
C137 C 0.888 0.37314 0.42767 0.0
C138 C 0.88089 0.14163 0.36044 0.0
C139 C 0.82366 0.19131 0.39301 0.0
O140 O 0.83854 1.02631 0.41612 0.0
O141 O 0.84971 1.03176 0.37843 0.0
O142 O 0.83629 0.11772 0.43556 0.0
O143 O 0.87144 0.14254 0.42995 0.0
O144 O 0.89329 0.07203 0.40527 0.0
O145 O 0.90933 0.15182 0.41556 0.0
O146 O 0.89664 0.26273 0.38705 0.0
O147 O 0.8859 0.25903 0.42496 0.0
O148 O 0.89874 0.16926 0.36829 0.0
O149 O 0.86349 0.14707 0.37471 0.0
O150 O 0.84248 0.21941 0.39951 0.0
O151 O 0.82508 0.14047 0.38995 0.0
H152 H 0.85689 0.94503 0.43471 0.0
H153 H 0.86525 0.85208 0.43576 0.0
H154 H 0.85157 0.84239 0.35857 0.0
H155 H 0.84255 0.93513 0.35772 0.0
H156 H 0.87854 0.344 0.36797 0.0
H157 H 0.87036 0.43704 0.36641 0.0
H158 H 0.88454 0.44866 0.44346 0.0
H159 H 0.89342 0.35595 0.44479 0.0
La160 La 0.87826 0.87754 0.90297 0.0
La161 La 0.85392 0.98764 0.89991 0.0
C162 C 0.89098 0.7856 0.91205 0.0
C163 C 0.88167 0.73182 0.91337 0.0
C164 C 0.86768 0.71017 0.89465 0.0
C165 C 0.86196 0.6571 0.89481 0.0
C166 C 0.87007 0.62462 0.91371 0.0
C167 C 0.88311 0.64712 0.93296 0.0
C168 C 0.88889 0.70004 0.93272 0.0
C169 C 0.88049 0.92888 0.8612 0.0
C170 C 0.82202 0.88624 0.89398 0.0
C171 C 0.84125 0.0737 0.88231 0.0
C172 C 0.84339 0.12961 0.88748 0.0
C173 C 0.85423 0.14792 0.90885 0.0
C174 C 0.85622 0.20149 0.9131 0.0
C175 C 0.84738 0.23758 0.89604 0.0
C176 C 0.83657 0.21868 0.87466 0.0
C177 C 0.83461 0.16528 0.87045 0.0
C178 C 0.85599 0.95513 0.94571 0.0
C179 C 0.90946 0.97429 0.91389 0.0
O180 O 0.89219 0.80707 0.89049 0.0
O181 O 0.88399 0.81838 0.92884 0.0
O182 O 0.89766 0.89985 0.86948 0.0
O183 O 0.86315 0.92678 0.8757 0.0
O184 O 0.84057 0.85697 0.90007 0.0
O185 O 0.8236 0.93728 0.89071 0.0
O186 O 0.82797 0.04625 0.89728 0.0
O187 O 0.86116 0.04983 0.87636 0.0
O188 O 0.84632 0.99856 0.93887 0.0
O189 O 0.8637 0.93336 0.92683 0.0
O190 O 0.89248 1.00455 0.90448 0.0
O191 O 0.90617 0.92442 0.91843 0.0
H192 H 0.86184 0.73382 0.87948 0.0
H193 H 0.85202 0.64121 0.87961 0.0
H194 H 0.88922 0.62366 0.94807 0.0
H195 H 0.89965 0.71587 0.94738 0.0
H196 H 0.86114 0.12084 0.92219 0.0
H197 H 0.86444 0.2146 0.92985 0.0
H198 H 0.82997 0.24517 0.86092 0.0
H199 H 0.82634 0.1518 0.85377 0.0
La200 La 0.11005 0.19721 0.90463 0.0
La201 La 0.13447 0.08742 0.90394 0.0
C202 C 0.09656 0.28974 0.91067 0.0
C203 C 0.10592 0.3429 0.91405 0.0
C204 C 0.12713 0.35975 0.90272 0.0
C205 C 0.13404 0.41207 0.90389 0.0
C206 C 0.11977 0.44863 0.91626 0.0
C207 C 0.09896 0.431 0.92824 0.0
C208 C 0.09216 0.37871 0.92714 0.0
C209 C 0.10888 0.14302 0.86358 0.0
C210 C 0.16659 0.18819 0.89918 0.0
C211 C 0.14736 1.00038 0.88779 0.0
C212 C 0.1447 0.94423 0.89269 0.0
C213 C 0.14862 0.92278 0.91585 0.0
C214 C 0.14703 0.86891 0.9194 0.0
C215 C 0.1415 0.83553 0.89988 0.0
C216 C 0.13716 0.85751 0.87688 0.0
C217 C 0.13881 0.91115 0.87334 0.0
C218 C 0.13133 0.12266 0.94922 0.0
C219 C 0.07848 0.10126 0.91601 0.0
O220 O 0.10018 0.26841 0.88937 0.0
O221 O 0.0994 0.25671 0.9286 0.0
O222 O 0.09141 0.17194 0.87117 0.0
O223 O 0.12593 0.14641 0.87843 0.0
O224 O 0.14793 0.21707 0.90525 0.0
O225 O 0.16494 0.13749 0.89502 0.0
O226 O 0.1602 1.02813 0.90307 0.0
O227 O 0.12801 1.02469 0.88047 0.0
O228 O 0.14117 0.07887 0.94321 0.0
O229 O 0.12406 0.1434 0.92987 0.0
O230 O 0.09585 0.07041 0.90786 0.0
O231 O 0.08147 0.15154 0.91957 0.0
H232 H 0.13797 0.33281 0.89239 0.0
H233 H 0.15036 0.424 0.89477 0.0
H234 H 0.08733 0.45792 0.93765 0.0
H235 H 0.07562 0.36657 0.93584 0.0
H236 H 0.15316 0.94746 0.93112 0.0
H237 H 0.15065 0.85337 0.93732 0.0
H238 H 0.13236 0.83328 0.86153 0.0
H239 H 0.13564 0.92686 0.85534 0.0
La240 La 0.88045 0.19763 0.66689 0.0
La241 La 0.85533 0.09507 0.66686 0.0
C242 C 0.89506 0.28913 0.65895 0.0
C243 C 0.88763 0.34409 0.66003 0.0
C244 C 0.87521 0.36465 0.68004 0.0
C245 C 0.87067 0.41813 0.68145 0.0
C246 C 0.87847 0.45198 0.6629 0.0
C247 C 0.89014 0.43073 0.64255 0.0
C248 C 0.8947 0.37746 0.64118 0.0
C249 C 0.88185 0.14544 0.70836 0.0
C250 C 0.82413 0.19292 0.67633 0.0
C251 C 0.84098 1.00327 0.67473 0.0
C252 C 0.84903 0.94863 0.6749 0.0
C253 C 0.86178 0.92689 0.65539 0.0
C254 C 0.86662 0.87349 0.65488 0.0
C255 C 0.8588 0.84081 0.67387 0.0
C256 C 0.84684 0.86325 0.69377 0.0
C257 C 0.84198 0.91649 0.69423 0.0
C258 C 0.85353 0.1458 0.62509 0.0
C259 C 0.91192 0.10232 0.65727 0.0
O260 O 0.89797 0.26457 0.67956 0.0
O261 O 0.88488 0.25989 0.64242 0.0
O262 O 0.89944 0.17331 0.7001 0.0
O263 O 0.86425 0.14958 0.6942 0.0
O264 O 0.84289 0.22096 0.66955 0.0
O265 O 0.82554 0.14209 0.67952 0.0
O266 O 0.83954 1.02663 0.65367 0.0
O267 O 0.84942 1.03392 0.69167 0.0
O268 O 0.83619 0.1183 0.63411 0.0
O269 O 0.87148 0.14259 0.63903 0.0
O270 O 0.89362 0.07339 0.66485 0.0
O271 O 0.90949 0.15225 0.65285 0.0
H272 H 0.86953 0.33967 0.69482 0.0
H273 H 0.86175 0.43312 0.69745 0.0
H274 H 0.89595 0.45534 0.62769 0.0
H275 H 0.90424 0.36241 0.62556 0.0
H276 H 0.86744 0.95081 0.64022 0.0
H277 H 0.87573 0.85759 0.6392 0.0
H278 H 0.84098 0.83956 0.70893 0.0
H279 H 0.83215 0.93242 0.70948 0.0
La280 La 0.11025 0.86794 0.67111 0.0
La281 La 0.13539 0.97003 0.67032 0.0
C282 C 0.0958 0.77594 0.66426 0.0
C283 C 0.10382 0.72131 0.66567 0.0
C284 C 0.11271 0.69958 0.68731 0.0
C285 C 0.11769 0.64633 0.68869 0.0
C286 C 0.11394 0.61381 0.66845 0.0
C287 C 0.10573 0.6361 0.64665 0.0
C288 C 0.10068 0.68918 0.64532 0.0
C289 C 0.1091 0.92119 0.7123 0.0
C290 C 0.16663 0.8723 0.67976 0.0
C291 C 0.14957 0.06203 0.67793 0.0
C292 C 0.14147 0.11667 0.6771 0.0
C293 C 0.1328 0.13942 0.65559 0.0
C294 C 0.12807 0.19279 0.65463 0.0
C295 C 0.13187 0.2245 0.67513 0.0
C296 C 0.13974 0.20118 0.69684 0.0
C297 C 0.14454 0.14792 0.69776 0.0
C298 C 0.13689 0.91871 0.6287 0.0
C299 C 0.07876 0.96274 0.66049 0.0
O300 O 0.09308 0.80132 0.68467 0.0
O301 O 0.10532 0.80491 0.64723 0.0
O302 O 0.09139 0.89356 0.70413 0.0
O303 O 0.12669 0.91646 0.69815 0.0
O304 O 0.14777 0.84443 0.6732 0.0
O305 O 0.16528 0.92312 0.68298 0.0
O306 O 0.15211 0.0376 0.65726 0.0
O307 O 0.14031 1.03217 0.69475 0.0
O308 O 0.15426 0.94646 0.63749 0.0
O309 O 0.11904 0.92209 0.64276 0.0
O310 O 0.09712 0.99199 0.66766 0.0
O311 O 0.08112 0.91255 0.65678 0.0
H312 H 0.11538 0.72341 0.70331 0.0
H313 H 0.1243 0.63055 0.70566 0.0
H314 H 0.10237 0.61222 0.6308 0.0
H315 H 0.09366 0.70494 0.62849 0.0
H316 H 0.1302 0.11631 0.63935 0.0
H317 H 0.12167 0.20933 0.63773 0.0
H318 H 0.1431 0.2244 0.7129 0.0
H319 H 0.15138 0.13137 0.7145 0.0
La320 La 0.63431 0.59934 0.16824 0.0
La321 La 0.60939 0.70167 0.16782 0.0
C322 C 0.64802 0.50788 0.17743 0.0
C323 C 0.64026 0.45302 0.17591 0.0
C324 C 0.63216 0.43083 0.15405 0.0
C325 C 0.62749 0.37739 0.15263 0.0
C326 C 0.63077 0.34514 0.17305 0.0
C327 C 0.63815 0.36791 0.19507 0.0
C328 C 0.64287 0.4212 0.19644 0.0
C329 C 0.63603 0.64829 0.12604 0.0
C330 C 0.57784 0.60627 0.15738 0.0
C331 C 0.59522 0.79328 0.15992 0.0
C332 C 0.60304 0.84808 0.16163 0.0
C333 C 0.61168 0.86961 0.18343 0.0
C334 C 0.61655 0.92295 0.18502 0.0
C335 C 0.61297 0.95572 0.16484 0.0
C336 C 0.60501 0.93361 0.14288 0.0
C337 C 0.60006 0.88045 0.14134 0.0
C338 C 0.60834 0.65022 0.20958 0.0
C339 C 0.66557 0.69775 0.17729 0.0
O340 O 0.6525 0.53228 0.15707 0.0
O341 O 0.63695 0.53744 0.19314 0.0
O342 O 0.65317 0.62034 0.13501 0.0
O343 O 0.6182 0.64615 0.14017 0.0
O344 O 0.59602 0.57716 0.16492 0.0
O345 O 0.5804 0.65639 0.15343 0.0
O346 O 0.59141 0.76804 0.18021 0.0
O347 O 0.60575 0.7644 0.14355 0.0
O348 O 0.59061 0.67736 0.20125 0.0
O349 O 0.62577 0.65461 0.19526 0.0
O350 O 0.64693 0.72531 0.17007 0.0
O351 O 0.66398 0.64711 0.1811 0.0
H352 H 0.6299 0.45447 0.13792 0.0
H353 H 0.62149 0.36127 0.13549 0.0
H354 H 0.64113 0.34428 0.21107 0.0
H355 H 0.64925 0.43739 0.21345 0.0
H356 H 0.61423 0.84554 0.19937 0.0
H357 H 0.62297 0.9386 0.2021 0.0
H358 H 0.60178 0.95767 0.12707 0.0
H359 H 0.59326 0.86478 0.1244 0.0
La360 La 0.35455 0.48152 0.16765 0.0
La361 La 0.37966 0.37219 0.16629 0.0
C362 C 0.34114 0.56835 0.18379 0.0
C363 C 0.34322 0.624 0.17788 0.0
C364 C 0.35873 0.64191 0.1596 0.0
C365 C 0.36105 0.69534 0.15507 0.0
C366 C 0.34788 0.73176 0.16874 0.0
C367 C 0.33222 0.71324 0.18688 0.0
C368 C 0.32994 0.65996 0.19137 0.0
C369 C 0.35725 0.44662 0.12224 0.0
C370 C 0.41048 0.46928 0.15494 0.0
C371 C 0.39321 0.2799 0.15955 0.0
C372 C 0.38419 0.22622 0.15633 0.0
C373 C 0.36652 0.20488 0.17162 0.0
C374 C 0.36093 0.15177 0.17045 0.0
C375 C 0.37291 0.11894 0.15398 0.0
C376 C 0.38975 0.14115 0.13795 0.0
C377 C 0.39535 0.19411 0.13917 0.0
C378 C 0.38142 0.42643 0.20732 0.0
C379 C 0.32324 0.37971 0.17348 0.0
O380 O 0.32823 0.53972 0.16896 0.0
O381 O 0.36099 0.54516 0.1905 0.0
O382 O 0.34731 0.49013 0.12848 0.0
O383 O 0.36488 0.42593 0.14145 0.0
O384 O 0.39301 0.49943 0.16342 0.0
O385 O 0.4078 0.41897 0.15115 0.0
O386 O 0.39039 0.30104 0.18102 0.0
O387 O 0.38969 0.31308 0.1418 0.0
O388 O 0.39882 0.3976 0.19945 0.0
O389 O 0.36411 0.42259 0.19282 0.0
O390 O 0.34191 0.35127 0.16698 0.0
O391 O 0.32466 0.43054 0.17738 0.0
H392 H 0.36915 0.61465 0.14898 0.0
H393 H 0.37308 0.70808 0.1408 0.0
H394 H 0.32209 0.73997 0.19804 0.0
H395 H 0.31799 0.64685 0.20566 0.0
H396 H 0.35763 0.22877 0.18506 0.0
H397 H 0.34797 0.13611 0.18317 0.0
H398 H 0.39897 0.11741 0.12469 0.0
H399 H 0.40902 0.20968 0.12719 0.0
La400 La 0.63511 0.47294 0.40436 0.0
La401 La 0.61026 0.37133 0.40093 0.0
C402 C 0.64966 0.56551 0.39953 0.0
C403 C 0.64172 0.62017 0.40128 0.0
C404 C 0.65181 0.65215 0.41926 0.0
C405 C 0.64677 0.70525 0.41989 0.0
C406 C 0.63161 0.72779 0.40242 0.0
C407 C 0.62109 0.69556 0.38468 0.0
C408 C 0.62609 0.64227 0.38409 0.0
C409 C 0.63633 0.41764 0.44487 0.0
C410 C 0.57846 0.46444 0.41325 0.0
C411 C 0.59541 0.27884 0.40473 0.0
C412 C 0.60329 0.22431 0.40207 0.0
C413 C 0.59204 0.19268 0.38466 0.0
C414 C 0.59705 0.1396 0.38345 0.0
C415 C 0.61332 0.11678 0.39977 0.0
C416 C 0.62508 0.14873 0.41681 0.0
C417 C 0.62014 0.20198 0.41795 0.0
C418 C 0.60953 0.42903 0.36099 0.0
C419 C 0.66666 0.37663 0.39329 0.0
O420 O 0.65103 0.53924 0.41981 0.0
O421 O 0.64137 0.53718 0.38163 0.0
O422 O 0.65382 0.4458 0.43664 0.0
O423 O 0.61858 0.42215 0.43073 0.0
O424 O 0.59672 0.49448 0.40654 0.0
O425 O 0.58107 0.4141 0.41621 0.0
O426 O 0.59364 0.30644 0.38486 0.0
O427 O 0.60413 0.30588 0.42286 0.0
O428 O 0.59165 0.40102 0.36846 0.0
O429 O 0.62695 0.42247 0.37516 0.0
O430 O 0.64783 0.34805 0.39926 0.0
O431 O 0.66518 0.42763 0.39098 0.0
H432 H 0.66419 0.63631 0.4325 0.0
H433 H 0.65548 0.72894 0.43358 0.0
H434 H 0.60913 0.71159 0.37111 0.0
H435 H 0.61812 0.61873 0.36989 0.0
H436 H 0.57877 0.20878 0.3724 0.0
H437 H 0.58746 0.11608 0.3703 0.0
H438 H 0.63792 0.13245 0.42945 0.0
H439 H 0.6291 0.22528 0.43162 0.0
La440 La 0.35553 0.5856 0.39741 0.0
La441 La 0.37949 0.69618 0.40128 0.0
C442 C 0.34314 0.49983 0.37919 0.0
C443 C 0.34549 0.44379 0.3839 0.0
C444 C 0.35232 0.42472 0.40677 0.0
C445 C 0.35421 0.37105 0.41068 0.0
C446 C 0.34933 0.3356 0.39178 0.0
C447 C 0.34269 0.35524 0.36887 0.0
C448 C 0.3408 0.40875 0.365 0.0
C449 C 0.35811 0.61584 0.44357 0.0
C450 C 0.41112 0.60016 0.41109 0.0
C451 C 0.3917 0.78808 0.41145 0.0
C452 C 0.38238 0.84182 0.41139 0.0
C453 C 0.37213 0.86408 0.39049 0.0
C454 C 0.36634 0.917 0.39001 0.0
C455 C 0.37063 0.94876 0.41041 0.0
C456 C 0.37993 0.92568 0.43161 0.0
C457 C 0.3858 0.8729 0.43203 0.0
C458 C 0.38166 0.64668 0.35901 0.0
C459 C 0.32318 0.68632 0.39223 0.0
O460 O 0.3298 0.52634 0.3944 0.0
O461 O 0.36291 0.52456 0.3733 0.0
O462 O 0.34855 0.57242 0.43637 0.0
O463 O 0.36555 0.63871 0.42481 0.0
O464 O 0.39423 0.56989 0.40136 0.0
O465 O 0.40754 0.6495 0.41644 0.0
O466 O 0.39537 0.76613 0.3903 0.0
O467 O 0.38268 0.75563 0.42742 0.0
O468 O 0.39871 0.67611 0.36742 0.0
O469 O 0.36439 0.6477 0.37365 0.0
O470 O 0.34183 0.71616 0.39764 0.0
O471 O 0.32476 0.63521 0.38928 0.0
H472 H 0.35607 0.45127 0.42157 0.0
H473 H 0.35917 0.35733 0.4286 0.0
H474 H 0.33924 0.32928 0.35378 0.0
H475 H 0.33569 0.42282 0.34717 0.0
H476 H 0.36927 0.84106 0.37427 0.0
H477 H 0.35939 0.93337 0.37331 0.0
H478 H 0.38302 0.94858 0.44782 0.0
H479 H 0.39365 0.85661 0.44836 0.0
La480 La 0.3802 0.36851 0.90012 0.0
La481 La 0.35534 0.47809 0.89851 0.0
C482 C 0.39322 0.27613 0.90765 0.0
C483 C 0.3836 0.2226 0.9096 0.0
C484 C 0.3699 0.20004 0.89088 0.0
C485 C 0.36395 0.14714 0.89162 0.0
C486 C 0.37151 0.11562 0.91109 0.0
C487 C 0.38426 0.13902 0.93031 0.0
C488 C 0.3903 0.1918 0.9295 0.0
C489 C 0.38157 0.42156 0.85878 0.0
C490 C 0.32364 0.37651 0.89339 0.0
C491 C 0.34203 0.56442 0.88166 0.0
C492 C 0.34423 0.62037 0.88676 0.0
C493 C 0.35403 0.63884 0.90861 0.0
C494 C 0.35604 0.69245 0.91277 0.0
C495 C 0.34827 0.72843 0.89512 0.0
C496 C 0.33856 0.70937 0.87324 0.0
C497 C 0.33657 0.65594 0.86914 0.0
C498 C 0.35851 0.444 0.94401 0.0
C499 C 0.41127 0.46547 0.91112 0.0
O500 O 0.39268 0.29805 0.88615 0.0
O501 O 0.38807 0.30885 0.92515 0.0
O502 O 0.39899 0.39268 0.86661 0.0
O503 O 0.36439 0.41849 0.87349 0.0
O504 O 0.34247 0.34757 0.89883 0.0
O505 O 0.32494 0.42753 0.89002 0.0
O506 O 0.3293 0.53671 0.89703 0.0
O507 O 0.36176 0.54076 0.87497 0.0
O508 O 0.34852 0.48748 0.93772 0.0
O509 O 0.36593 0.42306 0.92479 0.0
O510 O 0.39384 0.49574 0.90261 0.0
O511 O 0.40848 0.41521 0.91506 0.0
H512 H 0.36445 0.22278 0.87527 0.0
H513 H 0.35428 0.13057 0.87639 0.0
H514 H 0.38996 0.11635 0.94584 0.0
H515 H 0.40086 0.20826 0.94416 0.0
H516 H 0.3601 0.61186 0.92241 0.0
H517 H 0.36342 0.7057 0.92989 0.0
H518 H 0.33281 0.73574 0.85906 0.0
H519 H 0.32914 0.64234 0.85207 0.0
La520 La 0.60971 0.69963 0.90342 0.0
La521 La 0.63498 0.59752 0.90302 0.0
C522 C 0.59518 0.79089 0.91159 0.0
C523 C 0.60263 0.84596 0.91032 0.0
C524 C 0.61376 0.86716 0.88963 0.0
C525 C 0.61833 0.92069 0.8882 0.0
C526 C 0.61186 0.95401 0.90742 0.0
C527 C 0.60149 0.93213 0.92839 0.0
C528 C 0.59689 0.8788 0.92977 0.0
C529 C 0.6085 0.64827 0.86171 0.0
C530 C 0.6659 0.69637 0.89373 0.0
C531 C 0.64922 0.50614 0.89447 0.0
C532 C 0.64134 0.45125 0.89491 0.0
C533 C 0.63011 0.42913 0.91533 0.0
C534 C 0.62535 0.37565 0.91614 0.0
C535 C 0.63172 0.34322 0.89656 0.0
C536 C 0.64219 0.366 0.87585 0.0
C537 C 0.64697 0.41934 0.87508 0.0
C538 C 0.63685 0.64742 0.94497 0.0
C539 C 0.57849 0.60361 0.91342 0.0
O540 O 0.5918 0.7662 0.89109 0.0
O541 O 0.60569 0.76181 0.92793 0.0
O542 O 0.59082 0.67547 0.87007 0.0
O543 O 0.62604 0.65252 0.87594 0.0
O544 O 0.64717 0.72376 0.90083 0.0
O545 O 0.66454 0.6456 0.89022 0.0
O546 O 0.65188 0.52976 0.91534 0.0
O547 O 0.63965 0.53637 0.87802 0.0
O548 O 0.65413 0.62009 0.93589 0.0
O549 O 0.61889 0.64427 0.93104 0.0
O550 O 0.59673 0.57501 0.90566 0.0
O551 O 0.58091 0.65361 0.91773 0.0
H552 H 0.6184 0.84264 0.87435 0.0
H553 H 0.62622 0.93615 0.87172 0.0
H554 H 0.59673 0.9563 0.94374 0.0
H555 H 0.58835 0.86329 0.94592 0.0
H556 H 0.62557 0.45285 0.93091 0.0
H557 H 0.61742 0.35948 0.93245 0.0
H558 H 0.64691 0.34252 0.86025 0.0
H559 H 0.65562 0.43554 0.85913 0.0
La560 La 0.37981 0.69481 0.66567 0.0
La561 La 0.35519 0.58472 0.66817 0.0
C562 C 0.39318 0.78681 0.65713 0.0
C563 C 0.38401 0.84046 0.65593 0.0
C564 C 0.36513 0.85734 0.67082 0.0
C565 C 0.35871 0.90993 0.67131 0.0
C566 C 0.37108 0.94667 0.65696 0.0
C567 C 0.38944 0.92905 0.64149 0.0
C568 C 0.39581 0.87654 0.64101 0.0
C569 C 0.382 0.64263 0.70723 0.0
C570 C 0.32346 0.68589 0.6743 0.0
C571 C 0.34207 0.49818 0.6851 0.0
C572 C 0.34409 0.44228 0.67982 0.0
C573 C 0.36127 0.423 0.66354 0.0
C574 C 0.36348 0.36931 0.65984 0.0
C575 C 0.34858 0.33403 0.67242 0.0
C576 C 0.33114 0.35391 0.68837 0.0
C577 C 0.32896 0.40743 0.69202 0.0
C578 C 0.35774 0.61787 0.62242 0.0
C579 C 0.41096 0.5982 0.65511 0.0
O580 O 0.39367 0.76513 0.67867 0.0
O581 O 0.38628 0.75434 0.64013 0.0
O582 O 0.39918 0.6719 0.69901 0.0
O583 O 0.36457 0.64495 0.69279 0.0
O584 O 0.3421 0.7153 0.66834 0.0
O585 O 0.32497 0.63484 0.67748 0.0
O586 O 0.32901 0.52588 0.67009 0.0
O587 O 0.36193 0.52207 0.69148 0.0
O588 O 0.3479 0.57437 0.62907 0.0
O589 O 0.36534 0.6394 0.64145 0.0
O590 O 0.39373 0.5679 0.66415 0.0
O591 O 0.40788 0.64809 0.65053 0.0
H592 H 0.35579 0.83015 0.68252 0.0
H593 H 0.34424 0.92191 0.68316 0.0
H594 H 0.39958 0.9561 0.63042 0.0
H595 H 0.41053 0.86436 0.62951 0.0
H596 H 0.37317 0.44939 0.65398 0.0
H597 H 0.37723 0.3554 0.64759 0.0
H598 H 0.3191 0.32809 0.69804 0.0
H599 H 0.31555 0.42162 0.70461 0.0
La600 La 0.61082 0.37356 0.66928 0.0
La601 La 0.63582 0.47498 0.66569 0.0
C602 C 0.59598 0.28104 0.66553 0.0
C603 C 0.60422 0.22651 0.66724 0.0
C604 C 0.59721 0.19602 0.68722 0.0
C605 C 0.60222 0.14287 0.68786 0.0
C606 C 0.61419 0.11883 0.66841 0.0
C607 C 0.62178 0.14962 0.64871 0.0
C608 C 0.61684 0.20287 0.64811 0.0
C609 C 0.60979 0.4315 0.70904 0.0
C610 C 0.66726 0.37864 0.67695 0.0
C611 C 0.65044 0.56754 0.67022 0.0
C612 C 0.64214 0.6221 0.66936 0.0
C613 C 0.64807 0.65318 0.64923 0.0
C614 C 0.64298 0.70628 0.64918 0.0
C615 C 0.63198 0.72975 0.66935 0.0
C616 C 0.62554 0.69843 0.68931 0.0
C617 C 0.6306 0.64519 0.68934 0.0
C618 C 0.63731 0.41872 0.62548 0.0
C619 C 0.57915 0.46689 0.65681 0.0
O620 O 0.59522 0.3079 0.68568 0.0
O621 O 0.60358 0.30896 0.64716 0.0
O622 O 0.59198 0.40336 0.70151 0.0
O623 O 0.62734 0.42505 0.69502 0.0
O624 O 0.64839 0.35015 0.671 0.0
O625 O 0.66587 0.42968 0.67909 0.0
O626 O 0.65067 0.54185 0.64973 0.0
O627 O 0.64339 0.53851 0.68842 0.0
O628 O 0.6548 0.44684 0.63375 0.0
O629 O 0.61945 0.42395 0.63939 0.0
O630 O 0.59748 0.49679 0.66347 0.0
O631 O 0.58159 0.41645 0.65412 0.0
H632 H 0.58714 0.21296 0.70206 0.0
H633 H 0.59585 0.12025 0.70317 0.0
H634 H 0.6313 0.13241 0.63357 0.0
H635 H 0.62238 0.22512 0.63235 0.0
H636 H 0.65735 0.63674 0.63376 0.0
H637 H 0.64852 0.72928 0.63367 0.0
H638 H 0.61682 0.71518 0.70503 0.0
H639 H 0.62598 0.62247 0.70525 0.0
H640 H 0.21148 0.1466 0.18187 0.0
H641 H 0.27891 0.42211 0.18223 0.0
H642 H 0.17506 0.29452 0.18119 0.0
H643 H 0.3149 0.27505 0.17288 0.0
H644 H 0.24085 0.37547 0.18651 0.0
H645 H 0.24992 0.19275 0.18341 0.0
C646 C 0.21154 0.18867 0.18224 0.0
C647 C 0.19004 0.21667 0.18116 0.0
C648 C 0.25712 0.35348 0.1836 0.0
C649 C 0.23384 0.26964 0.18287 0.0
C650 C 0.27885 0.3801 0.18118 0.0
C651 C 0.30011 0.35256 0.177 0.0
C652 C 0.2567 0.29897 0.18192 0.0
C653 C 0.29895 0.29805 0.17587 0.0
C654 C 0.23348 0.21501 0.18304 0.0
C655 C 0.19119 0.27122 0.18172 0.0
N656 N 0.27761 0.2731 0.17824 0.0
N657 N 0.21271 0.29587 0.18244 0.0
H658 H 0.77801 0.92943 0.18116 0.0
H659 H 0.70974 0.65531 0.18643 0.0
H660 H 0.81373 0.78071 0.18025 0.0
H661 H 0.67385 0.80241 0.17684 0.0
H662 H 0.74797 0.70161 0.18969 0.0
H663 H 0.73949 0.88423 0.18499 0.0
C664 C 0.77779 0.88739 0.18194 0.0
C665 C 0.79911 0.85887 0.18014 0.0
C666 C 0.73169 0.72372 0.18701 0.0
C667 C 0.75521 0.807 0.18451 0.0
C668 C 0.70986 0.69731 0.1852 0.0
C669 C 0.68861 0.72495 0.18112 0.0
C670 C 0.73222 0.77813 0.18478 0.0
C671 C 0.68982 0.7794 0.17973 0.0
C672 C 0.75581 0.8616 0.18407 0.0
C673 C 0.79775 0.8044 0.1813 0.0
N674 N 0.71128 0.80418 0.18144 0.0
N675 N 0.77618 0.78028 0.18331 0.0
H676 H 0.27848 0.64148 0.3886 0.0
H677 H 0.21052 0.91533 0.38685 0.0
H678 H 0.31446 0.79041 0.38889 0.0
H679 H 0.17451 0.76781 0.3963 0.0
H680 H 0.24858 0.86937 0.38268 0.0
H681 H 0.2399 0.6865 0.38647 0.0
C682 C 0.2783 0.68354 0.38802 0.0
C683 C 0.29973 0.71215 0.38915 0.0
C684 C 0.23232 0.84707 0.38556 0.0
C685 C 0.25575 0.76383 0.38676 0.0
C686 C 0.21057 0.87331 0.38791 0.0
C687 C 0.18932 0.84546 0.39212 0.0
C688 C 0.23279 0.79261 0.38738 0.0
C689 C 0.19048 0.79098 0.39325 0.0
C690 C 0.25628 0.70922 0.38688 0.0
C691 C 0.29841 0.76664 0.38832 0.0
N692 N 0.21186 0.76637 0.391 0.0
N693 N 0.27681 0.79064 0.38727 0.0
H694 H 0.77932 0.1476 0.3855 0.0
H695 H 0.71104 0.42092 0.38666 0.0
H696 H 0.81524 0.29586 0.39226 0.0
H697 H 0.67518 0.27223 0.39146 0.0
H698 H 0.74945 0.37582 0.38333 0.0
H699 H 0.74099 0.19296 0.38228 0.0
C700 C 0.77918 0.18965 0.38613 0.0
C701 C 0.8005 0.21792 0.38936 0.0
C702 C 0.73314 0.35312 0.38498 0.0
C703 C 0.75673 0.27003 0.38572 0.0
C704 C 0.7112 0.37884 0.38683 0.0
C705 C 0.68988 0.35035 0.38953 0.0
C706 C 0.73371 0.29856 0.38576 0.0
C707 C 0.69118 0.29585 0.3896 0.0
C708 C 0.75729 0.21553 0.38435 0.0
C709 C 0.79924 0.2724 0.39001 0.0
N710 N 0.71273 0.27177 0.38785 0.0
N711 N 0.77771 0.29665 0.3883 0.0
H712 H 0.71024 0.65451 0.88495 0.0
H713 H 0.77744 0.92995 0.88851 0.0
H714 H 0.67374 0.80118 0.89351 0.0
H715 H 0.81369 0.7819 0.89085 0.0
H716 H 0.7391 0.88395 0.88485 0.0
H717 H 0.74828 0.70142 0.8815 0.0
C718 C 0.71019 0.69654 0.88592 0.0
C719 C 0.68882 0.7239 0.88977 0.0
C720 C 0.75549 0.86165 0.88605 0.0
C721 C 0.73222 0.77776 0.88589 0.0
C722 C 0.77737 0.88788 0.88809 0.0
C723 C 0.79878 0.85978 0.89024 0.0
C724 C 0.7551 0.80703 0.88606 0.0
C725 C 0.79763 0.80526 0.88953 0.0
C726 C 0.73191 0.7233 0.884 0.0
C727 C 0.68982 0.7784 0.89081 0.0
N728 N 0.77616 0.78072 0.8876 0.0
N729 N 0.71118 0.80352 0.889 0.0
H730 H 0.27879 0.41991 0.89109 0.0
H731 H 0.21053 0.1455 0.88842 0.0
H732 H 0.31526 0.27206 0.89052 0.0
H733 H 0.17595 0.29198 0.90342 0.0
H734 H 0.24881 0.19165 0.88433 0.0
H735 H 0.24036 0.37381 0.8903 0.0
C736 C 0.27874 0.37785 0.8906 0.0
C737 C 0.30026 0.34986 0.89109 0.0
C738 C 0.23277 0.21358 0.88843 0.0
C739 C 0.25644 0.29691 0.89024 0.0
C740 C 0.21093 0.18726 0.89077 0.0
C741 C 0.18996 0.21481 0.8963 0.0
C742 C 0.23357 0.26777 0.89152 0.0
C743 C 0.19157 0.26898 0.89913 0.0
C744 C 0.25681 0.35153 0.89025 0.0
C745 C 0.29911 0.29531 0.89042 0.0
N746 N 0.21297 0.29361 0.89671 0.0
N747 N 0.27757 0.27063 0.89011 0.0
H748 H 0.71169 0.42284 0.68326 0.0
H749 H 0.77985 0.14938 0.68436 0.0
H750 H 0.67571 0.27422 0.67903 0.0
H751 H 0.81578 0.29753 0.67706 0.0
H752 H 0.74157 0.19484 0.68788 0.0
H753 H 0.7501 0.37767 0.68645 0.0
C754 C 0.71183 0.38076 0.6832 0.0
C755 C 0.69047 0.35231 0.68068 0.0
C756 C 0.75787 0.21736 0.68563 0.0
C757 C 0.73431 0.30044 0.68428 0.0
C758 C 0.77973 0.19143 0.68368 0.0
C759 C 0.80103 0.21963 0.6802 0.0
C760 C 0.75732 0.27186 0.68418 0.0
C761 C 0.79979 0.27412 0.6795 0.0
C762 C 0.73377 0.355 0.68495 0.0
C763 C 0.69174 0.29781 0.68073 0.0
N764 N 0.77829 0.29842 0.68136 0.0
N765 N 0.71329 0.27368 0.68239 0.0
H766 H 0.21128 0.91549 0.68598 0.0
H767 H 0.27913 0.6416 0.68196 0.0
H768 H 0.17477 0.76766 0.68051 0.0
H769 H 0.31472 0.79029 0.67536 0.0
H770 H 0.24084 0.68682 0.68656 0.0
H771 H 0.2496 0.86966 0.68755 0.0
C772 C 0.21129 0.87343 0.68534 0.0
C773 C 0.1898 0.84544 0.6829 0.0
C774 C 0.25708 0.70946 0.68421 0.0
C775 C 0.23355 0.79277 0.68459 0.0
C776 C 0.27895 0.68367 0.6816 0.0
C777 C 0.30019 0.7121 0.67811 0.0
C778 C 0.2565 0.76403 0.68343 0.0
C779 C 0.29883 0.76662 0.67785 0.0
C780 C 0.23318 0.84728 0.68614 0.0
C781 C 0.19091 0.79092 0.68216 0.0
N782 N 0.27738 0.79073 0.68041 0.0
N783 N 0.21242 0.7664 0.68289 0.0
H784 H 0.14777 0.96987 0.34086 0.0
H785 H 0.0696 0.12089 0.24068 0.0
H786 H 0.07078 0.95695 0.33646 0.0
H787 H 0.14614 0.10079 0.23537 0.0
H788 H 0.06954 0.06735 0.27771 0.0
H789 H 0.14749 1.02441 0.30429 0.0
C790 C 0.13079 0.97865 0.33222 0.0
C791 C 0.10927 0.95882 0.34171 0.0
C792 C 0.08634 0.07462 0.26844 0.0
C793 C 0.10877 1.02142 0.29979 0.0
C794 C 0.08638 0.10529 0.24735 0.0
C795 C 0.10789 0.11517 0.2349 0.0
C796 C 0.10803 0.05419 0.27735 0.0
C797 C 0.12913 0.09397 0.24434 0.0
C798 C 0.13064 1.00966 0.31129 0.0
C799 C 0.0878 0.97129 0.3297 0.0
N800 N 0.12868 0.0647 0.26498 0.0
N801 N 0.08808 1.00188 0.30945 0.0
H802 H 0.8423 0.09854 0.33723 0.0
H803 H 0.9197 0.94551 0.23726 0.0
H804 H 0.91936 0.10978 0.33322 0.0
H805 H 0.84329 0.96804 0.23212 0.0
H806 H 0.92018 0.99876 0.27442 0.0
H807 H 0.84245 0.04393 0.30078 0.0
C808 C 0.85928 0.0894 0.32868 0.0
C809 C 0.88085 0.10871 0.33827 0.0
C810 C 0.90331 0.99202 0.26515 0.0
C811 C 0.88121 0.04599 0.29646 0.0
C812 C 0.90303 0.96149 0.24402 0.0
C813 C 0.88144 0.9525 0.23157 0.0
C814 C 0.88178 1.01313 0.27407 0.0
C815 C 0.86035 0.97417 0.24109 0.0
C816 C 0.85936 0.05832 0.30782 0.0
C817 C 0.90231 0.09582 0.32637 0.0
N818 N 0.86104 1.00329 0.26173 0.0
N819 N 0.90197 0.06513 0.30616 0.0
H820 H 0.92086 0.11612 0.73537 0.0
H821 H 0.84267 0.97498 0.83856 0.0
H822 H 0.84383 0.10235 0.73258 0.0
H823 H 0.91914 0.95459 0.83239 0.0
H824 H 0.84314 1.02747 0.80149 0.0
H825 H 0.92106 0.06284 0.77246 0.0
C826 C 0.90399 0.10195 0.7426 0.0
C827 C 0.8823 0.11357 0.73086 0.0
C828 C 0.85984 1.01149 0.80815 0.0
C829 C 0.88235 0.05286 0.77336 0.0
C830 C 0.8596 0.98159 0.82937 0.0
C831 C 0.88091 0.96041 0.83859 0.0
C832 C 0.88162 1.02078 0.796 0.0
C833 C 0.9023 0.97013 0.82588 0.0
C834 C 0.90412 0.07139 0.76372 0.0
C835 C 0.86097 0.0941 0.74098 0.0
N836 N 0.90214 0.9998 0.8053 0.0
N837 N 0.86153 0.06495 0.76164 0.0
H838 H 0.1472 0.09624 0.8419 0.0
H839 H 0.07007 0.95109 0.73899 0.0
H840 H 0.07076 0.11536 0.83457 0.0
H841 H 0.14709 0.96516 0.73648 0.0
H842 H 0.06966 1.00524 0.77573 0.0
H843 H 0.14727 0.04229 0.80522 0.0
C844 C 0.1304 0.08903 0.83255 0.0
C845 C 0.10893 0.11032 0.84132 0.0
C846 C 0.08665 0.99657 0.76714 0.0
C847 C 0.10885 0.04832 0.79922 0.0
C848 C 0.0869 0.96551 0.74621 0.0
C849 C 0.10864 0.95369 0.73463 0.0
C850 C 0.10835 1.01549 0.77679 0.0
C851 C 0.12991 0.97352 0.74475 0.0
C852 C 0.13046 0.0583 0.81156 0.0
C853 C 0.08772 0.09979 0.82842 0.0
N854 N 0.12924 1.0032 0.76525 0.0
N855 N 0.08819 0.06939 0.80811 0.0
H856 H 0.64807 0.47492 0.33867 0.0
H857 H 0.56966 0.62106 0.23713 0.0
H858 H 0.57128 0.45887 0.33312 0.0
H859 H 0.64662 0.60756 0.23347 0.0
H860 H 0.56977 0.56769 0.27414 0.0
H861 H 0.64786 0.52948 0.30209 0.0
C862 C 0.63115 0.48302 0.32977 0.0
C863 C 0.60966 0.46234 0.33894 0.0
C864 C 0.58664 0.57635 0.26525 0.0
C865 C 0.60923 0.5249 0.29704 0.0
C866 C 0.58659 0.60696 0.24417 0.0
C867 C 0.60815 0.61862 0.23218 0.0
C868 C 0.60847 0.5577 0.27462 0.0
C869 C 0.62957 0.59927 0.24208 0.0
C870 C 0.63104 0.51404 0.30884 0.0
C871 C 0.58827 0.47391 0.32662 0.0
N872 N 0.6292 0.56994 0.26271 0.0
N873 N 0.58858 0.5045 0.30638 0.0
H874 H 0.42087 0.62089 0.33125 0.0
H875 H 0.34334 0.47232 0.22968 0.0
H876 H 0.34421 0.60035 0.33544 0.0
H877 H 0.42003 0.45542 0.23546 0.0
H878 H 0.34365 0.52626 0.26632 0.0
H879 H 0.42135 0.56727 0.29422 0.0
C880 C 0.40415 0.60522 0.32433 0.0
C881 C 0.38248 0.61499 0.33646 0.0
C882 C 0.36044 0.51077 0.25964 0.0
C883 C 0.38284 0.55399 0.29405 0.0
C884 C 0.36027 0.48004 0.23868 0.0
C885 C 0.38169 0.45932 0.22951 0.0
C886 C 0.38223 0.5214 0.27156 0.0
C887 C 0.4031 0.47054 0.24195 0.0
C888 C 0.40444 0.57449 0.30326 0.0
C889 C 0.36134 0.59367 0.32672 0.0
N890 N 0.40286 0.50098 0.26227 0.0
N891 N 0.36204 0.56442 0.30612 0.0
H892 H 0.34348 0.46754 0.83637 0.0
H893 H 0.42115 0.61563 0.7348 0.0
H894 H 0.42011 0.44983 0.83044 0.0
H895 H 0.34445 0.596 0.73056 0.0
H896 H 0.42154 0.56154 0.77169 0.0
H897 H 0.3438 0.52134 0.79965 0.0
C898 C 0.3604 0.47503 0.82732 0.0
C899 C 0.3818 0.45416 0.83648 0.0
C900 C 0.40464 0.56903 0.76267 0.0
C901 C 0.38235 0.51605 0.79434 0.0
C902 C 0.4044 0.60002 0.74167 0.0
C903 C 0.38274 0.61024 0.72958 0.0
C904 C 0.383 0.54871 0.77186 0.0
C905 C 0.36156 0.58898 0.73926 0.0
C906 C 0.36057 0.50567 0.8063 0.0
C907 C 0.40319 0.46507 0.82396 0.0
N908 N 0.36221 0.55949 0.75981 0.0
N909 N 0.40295 0.49543 0.80361 0.0
H910 H 0.56979 0.61978 0.83402 0.0
H911 H 0.64825 0.47718 0.73159 0.0
H912 H 0.64676 0.60627 0.8376 0.0
H913 H 0.57148 0.46038 0.73704 0.0
H914 H 0.64798 0.53066 0.76846 0.0
H915 H 0.56989 0.56756 0.79667 0.0
C916 C 0.58671 0.60591 0.8269 0.0
C917 C 0.60829 0.61723 0.83896 0.0
C918 C 0.63118 0.5153 0.76162 0.0
C919 C 0.6086 0.55766 0.79614 0.0
C920 C 0.63132 0.48491 0.74052 0.0
C921 C 0.60985 0.46431 0.73123 0.0
C922 C 0.60937 0.52561 0.77351 0.0
C923 C 0.58845 0.47537 0.74362 0.0
C924 C 0.58677 0.57596 0.80563 0.0
C925 C 0.6297 0.5982 0.82895 0.0
N926 N 0.58874 0.50535 0.76405 0.0
N927 N 0.62932 0.56953 0.80814 0.0
H928 H 0.16997 0.1268 0.97807 0.0
H929 H 0.09694 0.175 0.1016 0.0
H930 H 0.09473 0.16407 0.97722 0.0
H931 H 0.16772 0.10957 0.09563 0.0
H932 H 0.09701 0.19027 0.0571 0.0
H933 H 0.17097 0.14187 1.02168 0.0
C934 C 0.15371 0.13935 0.9871 0.0
C935 C 0.13229 0.14434 0.97408 0.0
C936 C 0.11265 0.17349 0.06569 0.0
C937 C 0.13293 0.15964 1.02455 0.0
C938 C 0.11268 0.16519 0.09104 0.0
C939 C 0.13237 0.14096 0.1022 0.0
C940 C 0.1326 0.15808 0.05173 0.0
C941 C 0.15215 0.12817 0.08774 0.0
C942 C 0.15421 0.14759 1.0121 0.0
C943 C 0.11167 0.16034 0.98668 0.0
N944 N 0.15171 0.13671 0.06342 0.0
N945 N 0.11237 0.16659 1.01139 0.0
H946 H 0.81806 0.96012 0.97537 0.0
H947 H 0.89013 0.89853 0.09827 0.0
H948 H 0.89138 0.90802 0.97355 0.0
H949 H 0.82249 0.9782 0.09268 0.0
H950 H 0.88918 0.88377 0.05373 0.0
H951 H 0.8172 0.94644 1.01905 0.0
C952 C 0.83391 0.94479 0.98423 0.0
C953 C 0.8548 0.93525 0.9709 0.0
C954 C 0.87442 0.9037 0.06242 0.0
C955 C 0.85437 0.92128 1.02145 0.0
C956 C 0.87489 0.91179 0.08778 0.0
C957 C 0.85638 0.93978 0.09906 0.0
C958 C 0.85512 0.9231 0.0486 0.0
C959 C 0.8372 0.95673 0.08471 0.0
C960 C 0.8335 0.93728 1.00926 0.0
C961 C 0.87486 0.91547 0.98326 0.0
N962 N 0.83711 0.94826 0.0604 0.0
N963 N 0.87432 0.90996 1.00802 0.0
H964 H 0.09623 0.89862 0.47615 0.0
H965 H 0.17453 0.90451 0.59845 0.0
H966 H 0.1735 0.90282 0.47882 0.0
H967 H 0.09722 0.90177 0.59941 0.0
H968 H 0.17379 0.89312 0.55449 0.0
H969 H 0.09541 0.88935 0.52075 0.0
C970 C 0.113 0.89668 0.48606 0.0
C971 C 0.13499 0.9019 0.4738 0.0
C972 C 0.15691 0.89452 0.5642 0.0
C973 C 0.1342 0.89166 0.52468 0.0
C974 C 0.15735 0.90093 0.58937 0.0
C975 C 0.13593 0.90447 0.60259 0.0
C976 C 0.13484 0.89215 0.55186 0.0
C977 C 0.11417 0.89928 0.58987 0.0
C978 C 0.11253 0.89165 0.51151 0.0
C979 C 0.15615 0.89935 0.48753 0.0
N980 N 0.11416 0.89401 0.56515 0.0
N981 N 0.15522 0.8948 0.51212 0.0
H982 H 0.81569 0.15891 0.59494 0.0
H983 H 0.89363 0.1657 0.47248 0.0
H984 H 0.89299 0.16328 0.59565 0.0
H985 H 0.81646 0.15632 0.47535 0.0
H986 H 0.89445 0.17601 0.51702 0.0
H987 H 0.81622 0.16965 0.55094 0.0
C988 C 0.83282 0.16272 0.5858 0.0
C989 C 0.85431 0.15977 0.59895 0.0
C990 C 0.87734 0.17233 0.50783 0.0
C991 C 0.85516 0.17134 0.54821 0.0
C992 C 0.87687 0.16668 0.48243 0.0
C993 C 0.85493 0.15971 0.47026 0.0
C994 C 0.85571 0.17121 0.52104 0.0
C995 C 0.83377 0.16113 0.48401 0.0
C996 C 0.83314 0.16874 0.56061 0.0
C997 C 0.876 0.16527 0.58617 0.0
N998 N 0.83471 0.16634 0.50856 0.0
N999 N 0.8759 0.17015 0.56143 0.0
H1000 H 0.59643 0.66942 0.09746 0.0
H1001 H 0.67471 0.65939 0.97526 0.0
H1002 H 0.67346 0.65623 0.09487 0.0
H1003 H 0.59745 0.66562 0.97429 0.0
H1004 H 0.67412 0.67 1.01925 0.0
H1005 H 0.59588 0.67925 0.0529 0.0
C1006 C 0.61322 0.66941 0.08756 0.0
C1007 C 0.63503 0.66156 0.09983 0.0
C1008 C 0.65723 0.66951 1.00953 0.0
C1009 C 0.63455 0.67257 0.04901 0.0
C1010 C 0.65758 0.66356 0.98434 0.0
C1011 C 0.63611 0.66118 0.97113 0.0
C1012 C 0.63519 0.67264 1.02186 0.0
C1013 C 0.61443 0.66715 0.98384 0.0
C1014 C 0.6129 0.6748 0.06215 0.0
C1015 C 0.65624 0.66174 0.08614 0.0
N1016 N 0.61449 0.67199 1.00857 0.0
N1017 N 0.65545 0.66678 0.06157 0.0
H1018 H 0.31985 0.44027 0.97281 0.0
H1019 H 0.39304 0.39554 0.09654 0.0
H1020 H 0.3951 0.40305 0.97226 0.0
H1021 H 0.32098 0.45409 0.09052 0.0
H1022 H 0.39321 0.37996 0.05208 0.0
H1023 H 0.31873 0.42528 1.01643 0.0
C1024 C 0.33609 0.42779 0.98192 0.0
C1025 C 0.35754 0.42274 0.96897 0.0
C1026 C 0.37724 0.39524 0.06065 0.0
C1027 C 0.35677 0.40751 1.01947 0.0
C1028 C 0.37708 0.40368 0.08599 0.0
C1029 C 0.35694 0.42612 0.09711 0.0
C1030 C 0.357 0.40882 0.04666 0.0
C1031 C 0.33689 0.43687 0.08265 0.0
C1032 C 0.33553 0.41957 1.00693 0.0
C1033 C 0.37813 0.40682 0.98166 0.0
N1034 N 0.33748 0.42834 0.05834 0.0
N1035 N 0.37737 0.40061 1.00637 0.0
H1036 H 0.5962 0.40005 0.47328 0.0
H1037 H 0.67474 0.40078 0.5954 0.0
H1038 H 0.67348 0.40325 0.47584 0.0
H1039 H 0.59744 0.40342 0.59635 0.0
H1040 H 0.67382 0.3891 0.55146 0.0
H1041 H 0.59541 0.38934 0.5178 0.0
C1042 C 0.61298 0.39755 0.48315 0.0
C1043 C 0.63496 0.40296 0.4709 0.0
C1044 C 0.65697 0.39169 0.56117 0.0
C1045 C 0.63421 0.39102 0.52168 0.0
C1046 C 0.65752 0.39822 0.58633 0.0
C1047 C 0.63616 0.40347 0.59952 0.0
C1048 C 0.63488 0.39094 0.54884 0.0
C1049 C 0.61433 0.39959 0.58683 0.0
C1050 C 0.61252 0.3917 0.50855 0.0
C1051 C 0.65614 0.39967 0.48456 0.0
N1052 N 0.61424 0.39423 0.56212 0.0
N1053 N 0.65523 0.3943 0.50911 0.0
H1054 H 0.31953 0.61532 0.593 0.0
H1055 H 0.39181 0.67312 0.46973 0.0
H1056 H 0.3936 0.66334 0.59443 0.0
H1057 H 0.32283 0.59817 0.47555 0.0
H1058 H 0.39133 0.68781 0.51428 0.0
H1059 H 0.31858 0.62932 0.54934 0.0
C1060 C 0.33553 0.62987 0.58407 0.0
C1061 C 0.35663 0.6382 0.59729 0.0
C1062 C 0.37617 0.66897 0.50565 0.0
C1063 C 0.35608 0.65246 0.54673 0.0
C1064 C 0.37637 0.66096 0.48027 0.0
C1065 C 0.35732 0.6343 0.46904 0.0
C1066 C 0.35662 0.65082 0.51955 0.0
C1067 C 0.33792 0.61865 0.48348 0.0
C1068 C 0.33507 0.63754 0.55903 0.0
C1069 C 0.3769 0.65689 0.58481 0.0
N1070 N 0.33812 0.627 0.5078 0.0
N1071 N 0.37628 0.66259 0.56006 0.0
H1072 H 0.95041 0.91557 0.14639 0.0
H1073 H 0.03896 0.15769 0.14781 0.0
H1074 H 0.92685 0.07213 0.16131 0.0
H1075 H 0.06276 1.00138 0.16317 0.0
H1076 H -0.002 0.1261 0.14468 0.0
H1077 H 0.99168 0.94651 0.14459 0.0
C1078 C 0.95384 0.95662 0.14904 0.0
C1079 C 0.93509 0.99141 0.15408 0.0
C1080 C 0.0122 0.09872 0.14864 0.0
C1081 C 0.98239 1.02672 0.15199 0.0
C1082 C 0.03568 0.11654 0.15033 0.0
C1083 C 0.05442 0.08208 0.15593 0.0
C1084 C 0.00733 0.04597 0.15229 0.0
C1085 C 0.04889 1.0293 0.15895 0.0
C1086 C 0.97746 0.97405 0.14814 0.0
C1087 C 0.94073 0.044 0.15746 0.0
N1088 N 0.02575 1.01278 0.1571 0.0
N1089 N 0.96395 0.06012 0.15634 0.0
H1090 H 0.92527 0.99881 0.41073 0.0
H1091 H 0.06505 0.06531 0.41202 0.0
H1092 H 0.9532 0.15414 0.42084 0.0
H1093 H 0.03694 0.91102 0.42485 0.0
H1094 H 0.024 0.09896 0.41336 0.0
H1095 H 0.96628 0.96526 0.4139 0.0
C1096 C 0.93994 1.02574 0.41375 0.0
C1097 C 0.93579 0.07927 0.41548 0.0
C1098 C 0.02693 0.05779 0.41607 0.0
C1099 C 0.98255 0.04149 0.41886 0.0
C1100 C 0.05033 0.03865 0.41532 0.0
C1101 C 0.05444 0.98534 0.41825 0.0
C1102 C 0.00761 1.02323 0.41949 0.0
C1103 C 0.03467 0.95246 0.42244 0.0
C1104 C 0.96331 1.00665 0.41559 0.0
C1105 C 0.95549 0.11252 0.4194 0.0
N1106 N 0.01212 0.97187 0.42273 0.0
N1107 N 0.978 0.09312 0.42077 0.0
H1108 H 0.06302 0.99967 0.91364 0.0
H1109 H 0.92505 0.07569 0.91094 0.0
H1110 H 0.03799 0.15616 0.92621 0.0
H1111 H 0.9496 0.91972 0.92578 0.0
H1112 H 0.96658 0.1064 0.91444 0.0
H1113 H 0.02141 0.96902 0.91605 0.0
C1114 C 0.04887 1.02745 0.91711 0.0
C1115 C 0.05402 0.08051 0.9196 0.0
C1116 C 0.96273 0.06554 0.91714 0.0
C1117 C 0.00657 0.04601 0.92205 0.0
C1118 C 0.93907 0.04804 0.91512 0.0
C1119 C 0.93382 0.99511 0.91797 0.0
C1120 C 0.98118 1.02967 0.92167 0.0
C1121 C 0.95273 0.96093 0.92339 0.0
C1122 C 0.02516 1.01 0.9185 0.0
C1123 C 0.03495 0.11485 0.92409 0.0
N1124 N 0.97558 0.97872 0.92482 0.0
N1125 N 0.01207 0.09708 0.92491 0.0
H1126 H 0.92542 0.99991 0.66088 0.0
H1127 H 0.0653 0.0655 0.66241 0.0
H1128 H 0.95366 0.15422 0.64847 0.0
H1129 H 0.03715 0.91057 0.65161 0.0
H1130 H 0.02433 0.09939 0.6595 0.0
H1131 H 0.96645 0.96613 0.65965 0.0
C1132 C 0.94017 1.02656 0.65773 0.0
C1133 C 0.9361 0.07989 0.65481 0.0
C1134 C 0.02725 0.05801 0.6576 0.0
C1135 C 0.98291 0.04183 0.65368 0.0
C1136 C 0.05059 0.03873 0.65928 0.0
C1137 C 0.05466 0.98521 0.65729 0.0
C1138 C 0.00795 1.02338 0.65421 0.0
C1139 C 0.03492 0.95218 0.65325 0.0
C1140 C 0.96356 1.00733 0.65702 0.0
C1141 C 0.95591 0.11276 0.6508 0.0
N1142 N 0.01243 0.97176 0.65203 0.0
N1143 N 0.97845 0.09326 0.65055 0.0
H1144 H 0.42475 0.5715 0.15686 0.0
H1145 H 0.56383 0.50367 0.16009 0.0
H1146 H 0.45167 0.4161 0.14546 0.0
H1147 H 0.53683 0.65821 0.1465 0.0
H1148 H 0.52272 0.47009 0.15657 0.0
H1149 H 0.46596 0.6043 0.15481 0.0
C1150 C 0.43925 0.54439 0.15372 0.0
C1151 C 0.43474 0.49103 0.15143 0.0
C1152 C 0.52595 0.51128 0.15417 0.0
C1153 C 0.48179 0.52802 0.14939 0.0
C1154 C 0.54935 0.53039 0.15621 0.0
C1155 C 0.55377 0.58375 0.15369 0.0
C1156 C 0.50695 0.54596 0.14991 0.0
C1157 C 0.53433 0.61673 0.14864 0.0
C1158 C 0.46274 0.56307 0.15254 0.0
C1159 C 0.45424 0.4576 0.14736 0.0
N1160 N 0.51178 0.59737 0.14714 0.0
N1161 N 0.47693 0.47659 0.14672 0.0
H1162 H 0.4515 0.65581 0.42169 0.0
H1163 H 0.5377 0.41069 0.42395 0.0
H1164 H 0.42677 0.49908 0.40835 0.0
H1165 H 0.56355 0.56627 0.40972 0.0
H1166 H 0.49699 0.44356 0.4258 0.0
H1167 H 0.49244 0.62387 0.42469 0.0
C1168 C 0.45459 0.61453 0.41961 0.0
C1169 C 0.4356 0.57998 0.41469 0.0
C1170 C 0.51156 0.47053 0.42236 0.0
C1171 C 0.48256 0.54349 0.41814 0.0
C1172 C 0.5349 0.45196 0.42139 0.0
C1173 C 0.55415 0.48582 0.4165 0.0
C1174 C 0.50733 0.52347 0.41865 0.0
C1175 C 0.54926 0.53881 0.41345 0.0
C1176 C 0.47803 0.59651 0.4212 0.0
C1177 C 0.44083 0.52707 0.41208 0.0
N1178 N 0.52624 0.55608 0.41453 0.0
N1179 N 0.46388 0.51039 0.41386 0.0
H1180 H 0.42547 0.56781 0.91026 0.0
H1181 H 0.56472 0.50117 0.9092 0.0
H1182 H 0.45245 0.412 0.92019 0.0
H1183 H 0.53722 0.65458 0.92437 0.0
H1184 H 0.52361 0.46716 0.91128 0.0
H1185 H 0.4666 0.60078 0.91344 0.0
C1186 C 0.43997 0.54063 0.91327 0.0
C1187 C 0.4355 0.48714 0.91489 0.0
C1188 C 0.52671 0.50819 0.91435 0.0
C1189 C 0.48245 0.52433 0.91826 0.0
C1190 C 0.55013 0.52755 0.91315 0.0
C1191 C 0.55441 0.58074 0.91651 0.0
C1192 C 0.50758 0.54247 0.91862 0.0
C1193 C 0.53483 0.61326 0.92159 0.0
C1194 C 0.46341 0.55941 0.91512 0.0
C1195 C 0.45499 0.45361 0.91884 0.0
N1196 N 0.51227 0.59368 0.92227 0.0
N1197 N 0.47763 0.47272 0.92016 0.0
H1198 H 0.42582 0.49663 0.65779 0.0
H1199 H 0.56478 0.56921 0.65907 0.0
H1200 H 0.4519 0.6527 0.64531 0.0
H1201 H 0.53815 0.41355 0.64673 0.0
H1202 H 0.52348 0.60142 0.65598 0.0
H1203 H 0.46719 0.46532 0.65572 0.0
C1204 C 0.44017 0.5242 0.65442 0.0
C1205 C 0.43536 0.5773 0.65177 0.0
C1206 C 0.52682 0.56028 0.65377 0.0
C1207 C 0.48262 0.542 0.64971 0.0
C1208 C 0.55035 0.54195 0.65554 0.0
C1209 C 0.55494 0.48866 0.65326 0.0
C1210 C 0.50788 0.5249 0.65 0.0
C1211 C 0.53554 0.45498 0.6487 0.0
C1212 C 0.46376 0.50636 0.65323 0.0
C1213 C 0.4547 0.61135 0.64744 0.0
N1214 N 0.51288 0.4736 0.64744 0.0
N1215 N 0.47749 0.59319 0.64678 0.0
H1216 H 0.10231 0.78658 0.15652 0.0
H1217 H 0.15977 0.504 0.17544 0.0
H1218 H 0.17257 0.76134 0.18726 0.0
H1219 H 0.08832 0.53008 0.14779 0.0
H1220 H 0.16554 0.59806 0.17837 0.0
H1221 H 0.09784 0.69284 0.1511 0.0
C1222 C 0.11691 0.76144 0.16195 0.0
C1223 C 0.13783 0.78211 0.17245 0.0
C1224 C 0.14864 0.58317 0.17156 0.0
C1225 C 0.13269 0.67427 0.16656 0.0
C1226 C 0.14528 0.52938 0.16999 0.0
C1227 C 0.12352 0.50878 0.16133 0.0
C1228 C 0.1301 0.61684 0.16446 0.0
C1229 C 0.10555 0.54389 0.15421 0.0
C1230 C 0.11427 0.70778 0.159 0.0
C1231 C 0.15597 0.74727 0.17944 0.0
N1232 N 0.10922 0.596 0.15599 0.0
N1233 N 0.15296 0.6952 0.17641 0.0
H1234 H 0.86593 0.30719 0.21412 0.0
H1235 H 0.85497 0.55289 0.12519 0.0
H1236 H 0.84291 0.29561 0.1394 0.0
H1237 H 0.87554 0.56376 0.20064 0.0
H1238 H 0.85028 0.45889 0.12993 0.0
H1239 H 0.8694 0.40118 0.20941 0.0
C1240 C 0.86147 0.32438 0.19673 0.0
C1241 C 0.854 0.2932 0.17716 0.0
C1242 C 0.85575 0.48185 0.14547 0.0
C1243 C 0.8582 0.40133 0.17156 0.0
C1244 C 0.85851 0.53556 0.14276 0.0
C1245 C 0.86571 0.56646 0.16253 0.0
C1246 C 0.8603 0.45858 0.16811 0.0
C1247 C 0.86969 0.54176 0.18495 0.0
C1248 C 0.86357 0.37816 0.19403 0.0
C1249 C 0.84896 0.31786 0.15493 0.0
N1250 N 0.86703 0.48939 0.18709 0.0
N1251 N 0.85111 0.37037 0.15276 0.0
H1252 H 0.13942 0.29283 0.36543 0.0
H1253 H 0.10667 0.54586 0.44336 0.0
H1254 H 0.11657 0.28772 0.44035 0.0
H1255 H 0.12737 0.55098 0.36781 0.0
H1256 H 0.111 0.45149 0.44279 0.0
H1257 H 0.13506 0.38724 0.36589 0.0
C1258 C 0.13325 0.31144 0.38192 0.0
C1259 C 0.12833 0.28209 0.40288 0.0
C1260 C 0.11465 0.47322 0.42633 0.0
C1261 C 0.12367 0.39058 0.40363 0.0
C1262 C 0.11237 0.52723 0.42669 0.0
C1263 C 0.1167 0.55657 0.4056 0.0
C1264 C 0.12136 0.4481 0.40473 0.0
C1265 C 0.12359 0.53 0.38443 0.0
C1266 C 0.13094 0.36547 0.38222 0.0
C1267 C 0.12084 0.30867 0.42384 0.0
N1268 N 0.1257 0.47736 0.38454 0.0
N1269 N 0.11877 0.3613 0.42368 0.0
H1270 H 0.84362 0.50612 0.37869 0.0
H1271 H 0.89227 0.78385 0.42324 0.0
H1272 H 0.90326 0.52606 0.42793 0.0
H1273 H 0.83289 0.76423 0.37365 0.0
H1274 H 0.89647 0.68944 0.42529 0.0
H1275 H 0.83949 0.60056 0.37644 0.0
C1276 C 0.85589 0.53028 0.38898 0.0
C1277 C 0.87378 0.50791 0.40357 0.0
C1278 C 0.88256 0.70579 0.41391 0.0
C1279 C 0.86904 0.61627 0.40122 0.0
C1280 C 0.88008 0.75975 0.41281 0.0
C1281 C 0.86222 0.78221 0.39821 0.0
C1282 C 0.86704 0.67385 0.40035 0.0
C1283 C 0.84715 0.74885 0.38487 0.0
C1284 C 0.85345 0.58425 0.38778 0.0
C1285 C 0.88896 0.54136 0.41674 0.0
N1286 N 0.84988 0.69647 0.38629 0.0
N1287 N 0.88625 0.59372 0.41523 0.0
H1288 H 0.81459 0.31418 0.88584 0.0
H1289 H 0.90121 0.54714 0.92695 0.0
H1290 H 0.88542 0.29156 0.91567 0.0
H1291 H 0.83008 0.57074 0.89798 0.0
H1292 H 0.89508 0.45351 0.92426 0.0
H1293 H 0.81946 0.4079 0.89103 0.0
C1294 C 0.83121 0.32885 0.89344 0.0
C1295 C 0.84967 0.29468 0.9002 0.0
C1296 C 0.88076 0.4791 0.91856 0.0
C1297 C 0.85527 0.40236 0.90642 0.0
C1298 C 0.88417 0.53275 0.92027 0.0
C1299 C 0.8661 0.56724 0.91277 0.0
C1300 C 0.85914 0.45935 0.90921 0.0
C1301 C 0.84463 0.54587 0.90374 0.0
C1302 C 0.83391 0.38245 0.89652 0.0
C1303 C 0.8706 0.31615 0.91039 0.0
N1304 N 0.84177 0.49341 0.90219 0.0
N1305 N 0.87285 0.3685 0.91308 0.0
H1306 H 0.1146 0.52181 0.95249 0.0
H1307 H 0.15719 0.75961 0.86873 0.0
H1308 H 0.13804 0.50521 0.87811 0.0
H1309 H 0.12357 0.7799 0.93875 0.0
H1310 H 0.15373 0.66571 0.87354 0.0
H1311 H 0.12127 0.61556 0.94945 0.0
C1312 C 0.12118 0.53773 0.93552 0.0
C1313 C 0.12564 0.50525 0.91548 0.0
C1314 C 0.14713 0.69065 0.88789 0.0
C1315 C 0.13355 0.61283 0.912 0.0
C1316 C 0.14897 0.74441 0.8851 0.0
C1317 C 0.14043 0.77803 0.90324 0.0
C1318 C 0.13675 0.66991 0.90904 0.0
C1319 C 0.13054 0.75569 0.92433 0.0
C1320 C 0.12507 0.59132 0.93385 0.0
C1321 C 0.1346 0.5283 0.89415 0.0
N1322 N 0.12889 0.70311 0.9266 0.0
N1323 N 0.13815 0.58053 0.89296 0.0
H1324 H 0.89799 0.78675 0.65704 0.0
H1325 H 0.83957 0.50575 0.68067 0.0
H1326 H 0.82742 0.76363 0.68757 0.0
H1327 H 0.91007 0.5293 0.65007 0.0
H1328 H 0.83496 0.60001 0.68388 0.0
H1329 H 0.90274 0.69252 0.65443 0.0
C1330 C 0.88346 0.76195 0.66314 0.0
C1331 C 0.86229 0.78341 0.67259 0.0
C1332 C 0.85143 0.58454 0.67644 0.0
C1333 C 0.8677 0.67512 0.66982 0.0
C1334 C 0.85413 0.53064 0.67471 0.0
C1335 C 0.87521 0.50933 0.66498 0.0
C1336 C 0.86996 0.61756 0.66843 0.0
C1337 C 0.89332 0.54377 0.6573 0.0
C1338 C 0.88623 0.70806 0.66175 0.0
C1339 C 0.84422 0.74906 0.6805 0.0
N1340 N 0.89028 0.59601 0.65919 0.0
N1341 N 0.84733 0.69678 0.67891 0.0
H1342 H 0.14462 0.28997 0.63789 0.0
H1343 H 0.10188 0.54878 0.70614 0.0
H1344 H 0.11226 0.29022 0.70915 0.0
H1345 H 0.13393 0.54807 0.63475 0.0
H1346 H 0.10618 0.45438 0.70792 0.0
H1347 H 0.1407 0.38439 0.63639 0.0
C1348 C 0.13646 0.30978 0.65314 0.0
C1349 C 0.12871 0.2819 0.67366 0.0
C1350 C 0.11233 0.47487 0.69188 0.0
C1351 C 0.1245 0.3905 0.6722 0.0
C1352 C 0.11006 0.52889 0.69093 0.0
C1353 C 0.11755 0.55658 0.67025 0.0
C1354 C 0.12221 0.4481 0.67203 0.0
C1355 C 0.12762 0.5284 0.65093 0.0
C1356 C 0.13441 0.36383 0.65234 0.0
C1357 C 0.11873 0.31001 0.69306 0.0
N1358 N 0.12963 0.47582 0.65229 0.0
N1359 N 0.11691 0.36266 0.69185 0.0
H1360 H 0.60042 1.01995 0.20254 0.0
H1361 H 0.64415 0.28056 0.13576 0.0
H1362 H 0.63328 1.0223 0.13153 0.0
H1363 H 0.61034 0.27856 0.20632 0.0
H1364 H 0.64021 0.1861 0.13384 0.0
H1365 H 0.60461 0.1144 0.20461 0.0
C1366 C 0.60875 0.04022 0.18748 0.0
C1367 C 0.61651 1.01298 0.16682 0.0
C1368 C 0.6336 0.2063 0.14973 0.0
C1369 C 0.62105 0.12151 0.16893 0.0
C1370 C 0.63567 0.26037 0.15076 0.0
C1371 C 0.62754 0.28775 0.17123 0.0
C1372 C 0.6233 0.17914 0.1693 0.0
C1373 C 0.61713 0.25916 0.1903 0.0
C1374 C 0.61096 0.09427 0.18859 0.0
C1375 C 0.62677 0.04162 0.14769 0.0
N1376 N 0.61532 0.20653 0.18887 0.0
N1377 N 0.62872 0.09421 0.1492 0.0
H1378 H 0.31323 0.80777 0.16948 0.0
H1379 H 0.40631 0.04164 0.14869 0.0
H1380 H 0.38927 0.78632 0.15881 0.0
H1381 H 0.33056 0.06477 0.16059 0.0
H1382 H 0.39995 0.94798 0.15053 0.0
H1383 H 0.31885 0.9015 0.16487 0.0
C1384 C 0.33113 0.82267 0.16621 0.0
C1385 C 0.35082 0.78881 0.16465 0.0
C1386 C 0.38468 0.97346 0.15266 0.0
C1387 C 0.35734 0.89651 0.15913 0.0
C1388 C 0.38826 1.02713 0.15142 0.0
C1389 C 0.36893 0.06151 0.15439 0.0
C1390 C 0.36158 0.95355 0.15695 0.0
C1391 C 0.34606 0.03999 0.15844 0.0
C1392 C 0.3343 0.87628 0.16346 0.0
C1393 C 0.3735 0.81061 0.15991 0.0
N1394 N 0.34303 0.9875 0.15962 0.0
N1395 N 0.37613 0.86293 0.15742 0.0
H1396 H 0.61807 0.05169 0.36052 0.0
H1397 H 0.6248 0.79289 0.44134 0.0
H1398 H 0.61662 0.05126 0.43894 0.0
H1399 H 0.62987 0.79338 0.36305 0.0
H1400 H 0.62098 0.88739 0.44072 0.0
H1401 H 0.6218 0.95704 0.36097 0.0
C1402 C 0.61853 1.0317 0.37784 0.0
C1403 C 0.61702 0.05955 0.39973 0.0
C1404 C 0.62288 0.86685 0.42366 0.0
C1405 C 0.62132 0.95105 0.40039 0.0
C1406 C 0.62513 0.81285 0.424 0.0
C1407 C 0.62773 0.78501 0.40221 0.0
C1408 C 0.62323 0.89348 0.40137 0.0
C1409 C 0.62763 0.81303 0.38028 0.0
C1410 C 0.62073 0.97765 0.37809 0.0
C1411 C 0.61803 1.03156 0.42163 0.0
N1412 N 0.6255 0.86566 0.38043 0.0
N1413 N 0.62003 0.97892 0.42139 0.0
H1414 H 0.39823 1.02663 0.43017 0.0
H1415 H 0.31985 0.25823 0.37442 0.0
H1416 H 0.33405 1.002 0.38769 0.0
H1417 H 0.38322 0.28222 0.41815 0.0
H1418 H 0.32425 0.16452 0.37972 0.0
H1419 H 0.39221 0.12018 0.42703 0.0
C1420 C 0.3827 0.04076 0.42039 0.0
C1421 C 0.3666 1.00602 0.40923 0.0
C1422 C 0.33716 0.19026 0.38823 0.0
C1423 C 0.35985 0.11379 0.40519 0.0
C1424 C 0.33474 0.24386 0.38509 0.0
C1425 C 0.35126 0.27841 0.39574 0.0
C1426 C 0.35627 0.17073 0.40211 0.0
C1427 C 0.36992 0.2573 0.40977 0.0
C1428 C 0.37939 0.09436 0.41846 0.0
C1429 C 0.34711 1.02707 0.39636 0.0
N1430 N 0.37195 0.20493 0.41245 0.0
N1431 N 0.34432 0.07948 0.39467 0.0
H1432 H 0.31629 0.80527 0.88291 0.0
H1433 H 0.40183 0.03813 0.9263 0.0
H1434 H 0.38539 0.78226 0.9166 0.0
H1435 H 0.33176 0.0617 0.89475 0.0
H1436 H 0.39544 0.9445 0.92419 0.0
H1437 H 0.32119 0.89901 0.88792 0.0
C1438 C 0.33253 0.81986 0.89133 0.0
C1439 C 0.35052 0.78557 0.89921 0.0
C1440 C 0.38141 0.9701 0.91781 0.0
C1441 C 0.35614 0.89331 0.90522 0.0
C1442 C 0.38495 1.02377 0.91918 0.0
C1443 C 0.36729 0.05826 0.91074 0.0
C1444 C 0.36006 0.95033 0.90783 0.0
C1445 C 0.34604 0.03686 0.90121 0.0
C1446 C 0.33525 0.87348 0.8943 0.0
C1447 C 0.37094 0.80696 0.91042 0.0
N1448 N 0.34305 0.9844 0.89997 0.0
N1449 N 0.37323 0.85935 0.91298 0.0
H1450 H 0.59381 0.28865 0.91622 0.0
H1451 H 0.64963 1.00834 0.88725 0.0
H1452 H 0.66186 0.26641 0.88035 0.0
H1453 H 0.58149 1.03098 0.92289 0.0
H1454 H 0.65429 0.10267 0.88417 0.0
H1455 H 0.58904 0.19435 0.91889 0.0
C1456 C 0.60779 0.26403 0.90896 0.0
C1457 C 0.62825 0.28577 0.89799 0.0
C1458 C 0.63833 0.08698 0.89269 0.0
C1459 C 0.62281 0.17739 0.90082 0.0
C1460 C 0.6356 1.03304 0.89435 0.0
C1461 C 0.61517 1.01143 0.90544 0.0
C1462 C 0.6205 0.11978 0.90214 0.0
C1463 C 0.59774 0.04566 0.91456 0.0
C1464 C 0.605 0.2101 0.91039 0.0
C1465 C 0.64561 0.25164 0.88863 0.0
N1466 N 0.6008 0.09795 0.91271 0.0
N1467 N 0.6425 0.19931 0.89029 0.0
H1468 H 0.36046 1.00257 0.69808 0.0
H1469 H 0.35752 0.27876 0.63051 0.0
H1470 H 0.37015 1.02063 0.62068 0.0
H1471 H 0.34621 0.25839 0.70753 0.0
H1472 H 0.36201 0.18457 0.62632 0.0
H1473 H 0.35418 0.09602 0.70153 0.0
C1474 C 0.36099 1.02601 0.68173 0.0
C1475 C 0.36586 1.00337 0.65903 0.0
C1476 C 0.35849 0.20073 0.64412 0.0
C1477 C 0.35908 0.11117 0.66297 0.0
C1478 C 0.35607 0.25459 0.64656 0.0
C1479 C 0.35141 0.27675 0.66941 0.0
C1480 C 0.35633 0.16861 0.66469 0.0
C1481 C 0.34942 0.2432 0.68949 0.0
C1482 C 0.35759 0.07958 0.68376 0.0
C1483 C 0.36678 0.03625 0.63861 0.0
N1484 N 0.35192 0.19102 0.68666 0.0
N1485 N 0.36349 0.08837 0.64107 0.0
H1486 H 0.63889 0.79667 0.70759 0.0
H1487 H 0.60833 0.0518 0.63015 0.0
H1488 H 0.61706 0.79363 0.63231 0.0
H1489 H 0.62737 0.05501 0.70619 0.0
H1490 H 0.61229 0.95736 0.63045 0.0
H1491 H 0.63471 0.89113 0.70753 0.0
C1492 C 0.63296 0.81576 0.69111 0.0
C1493 C 0.62832 0.78701 0.66992 0.0
C1494 C 0.61565 0.97868 0.64707 0.0
C1495 C 0.62387 0.89549 0.66962 0.0
C1496 C 0.61359 1.03272 0.64687 0.0
C1497 C 0.61758 0.06151 0.66817 0.0
C1498 C 0.62178 0.95302 0.66873 0.0
C1499 C 0.62389 1.03442 0.6894 0.0
C1500 C 0.63076 0.8698 0.69104 0.0
C1501 C 0.62113 0.81414 0.64899 0.0
N1502 N 0.6258 0.98176 0.68913 0.0
N1503 N 0.61917 0.86677 0.64937 0.0
loop_
_geom_bond_atom_site_label_1
_geom_bond_atom_site_label_2
_geom_bond_distance
_geom_bond_site_symmetry_2
_ccdc_geom_bond_type
La0 C2 2.928 1_545 S
La0 O20 2.521 1_545 S
La0 O21 2.628 1_545 S
La0 O22 2.554 . S
La0 O23 2.757 . S
La0 O24 2.470 . S
La0 O29 2.482 . S
La0 O31 2.503 . S
La1 C11 2.928 . S
La1 O23 2.482 . S
La1 O25 2.503 . S
La1 O26 2.521 . S
La1 O27 2.628 . S
La1 O28 2.554 . S
La1 O29 2.757 . S
La1 O30 2.470 . S
C2 La0 2.928 1_565 S
C2 C3 1.503 . S
C2 O20 1.261 . S
C2 O21 1.243 . S
C3 C2 1.503 . S
C3 C4 1.394 . S
C3 C8 1.373 . S
C4 C3 1.394 . S
C4 C5 1.380 . S
C4 H32 0.930 . S
C5 C4 1.380 . S
C5 C6 1.376 . S
C5 H33 0.930 . S
C6 C5 1.376 . S
C6 C7 1.370 . S
C7 C6 1.370 . S
C7 C8 1.396 . S
C7 H34 0.929 . S
C8 C3 1.373 . S
C8 C7 1.396 . S
C8 H35 0.929 . S
C9 O22 1.240 . S
C9 O23 1.289 . S
C10 O24 1.258 . S
C10 O25 1.256 . S
C11 La1 2.928 . S
C11 C12 1.503 . S
C11 O26 1.261 . S
C11 O27 1.243 . S
C12 C11 1.503 . S
C12 C13 1.394 . S
C12 C17 1.373 . S
C13 C12 1.394 . S
C13 C14 1.380 . S
C13 H36 0.930 . S
C14 C13 1.380 . S
C14 C15 1.376 . S
C14 H37 0.930 . S
C15 C14 1.376 . S
C15 C16 1.370 . S
C16 C15 1.370 . S
C16 C17 1.396 . S
C16 H38 0.929 . S
C17 C12 1.373 . S
C17 C16 1.396 . S
C17 H39 0.929 . S
C18 O28 1.240 . S
C18 O29 1.289 . S
C19 O30 1.258 . S
C19 O31 1.256 . S
O20 La0 2.521 1_565 S
O20 C2 1.261 . S
O21 La0 2.628 1_565 S
O21 C2 1.243 . S
O22 La0 2.554 . S
O22 C9 1.240 . S
O23 La0 2.757 . S
O23 La1 2.482 . S
O23 C9 1.289 . S
O24 La0 2.470 . S
O24 C10 1.258 . S
O25 La1 2.503 . S
O25 C10 1.256 . S
O26 La1 2.521 . S
O26 C11 1.261 . S
O27 La1 2.628 . S
O27 C11 1.243 . S
O28 La1 2.554 . S
O28 C18 1.240 . S
O29 La0 2.482 . S
O29 La1 2.757 . S
O29 C18 1.289 . S
O30 La1 2.470 . S
O30 C19 1.258 . S
O31 La0 2.503 . S
O31 C19 1.256 . S
H32 C4 0.930 . S
H33 C5 0.930 . S
H34 C7 0.929 . S
H35 C8 0.929 . S
H36 C13 0.930 . S
H37 C14 0.930 . S
H38 C16 0.929 . S
H39 C17 0.929 . S
La40 C42 2.928 1_565 S
La40 O60 2.521 1_565 S
La40 O61 2.628 1_565 S
La40 O62 2.554 . S
La40 O63 2.757 . S
La40 O64 2.470 . S
La40 O69 2.482 . S
La40 O71 2.503 . S
La41 C51 2.928 . S
La41 O63 2.482 . S
La41 O65 2.503 . S
La41 O66 2.521 . S
La41 O67 2.628 . S
La41 O68 2.554 . S
La41 O69 2.757 . S
La41 O70 2.470 . S
C42 La40 2.928 1_545 S
C42 C43 1.503 . S
C42 O60 1.261 . S
C42 O61 1.243 . S
C43 C42 1.503 . S
C43 C44 1.394 . S
C43 C48 1.373 . S
C44 C43 1.394 . S
C44 C45 1.380 . S
C44 H72 0.930 . S
C45 C44 1.380 . S
C45 C46 1.376 . S
C45 H73 0.930 . S
C46 C45 1.376 . S
C46 C47 1.370 . S
C47 C46 1.370 . S
C47 C48 1.396 . S
C47 H74 0.929 . S
C48 C43 1.373 . S
C48 C47 1.396 . S
C48 H75 0.929 . S
C49 O62 1.240 . S
C49 O63 1.289 . S
C50 O64 1.258 . S
C50 O65 1.256 . S
C51 La41 2.928 . S
C51 C52 1.503 . S
C51 O66 1.261 . S
C51 O67 1.243 . S
C52 C51 1.503 . S
C52 C53 1.394 . S
C52 C57 1.373 . S
C53 C52 1.394 . S
C53 C54 1.380 . S
C53 H76 0.930 . S
C54 C53 1.380 . S
C54 C55 1.376 . S
C54 H77 0.930 . S
C55 C54 1.376 . S
C55 C56 1.370 . S
C56 C55 1.370 . S
C56 C57 1.396 . S
C56 H78 0.929 . S
C57 C52 1.373 . S
C57 C56 1.396 . S
C57 H79 0.929 . S
C58 O68 1.240 . S
C58 O69 1.289 . S
C59 O70 1.258 . S
C59 O71 1.256 . S
O60 La40 2.521 1_545 S
O60 C42 1.261 . S
O61 La40 2.628 1_545 S
O61 C42 1.243 . S
O62 La40 2.554 . S
O62 C49 1.240 . S
O63 La40 2.757 . S
O63 La41 2.482 . S
O63 C49 1.289 . S
O64 La40 2.470 . S
O64 C50 1.258 . S
O65 La41 2.503 . S
O65 C50 1.256 . S
O66 La41 2.521 . S
O66 C51 1.261 . S
O67 La41 2.628 . S
O67 C51 1.243 . S
O68 La41 2.554 . S
O68 C58 1.240 . S
O69 La40 2.482 . S
O69 La41 2.757 . S
O69 C58 1.289 . S
O70 La41 2.470 . S
O70 C59 1.258 . S
O71 La40 2.503 . S
O71 C59 1.256 . S
H72 C44 0.930 . S
H73 C45 0.930 . S
H74 C47 0.929 . S
H75 C48 0.929 . S
H76 C53 0.930 . S
H77 C54 0.930 . S
H78 C56 0.929 . S
H79 C57 0.929 . S
La80 C82 2.928 1_565 S
La80 O100 2.521 1_565 S
La80 O101 2.628 1_565 S
La80 O102 2.554 . S
La80 O103 2.757 . S
La80 O104 2.470 . S
La80 O109 2.482 . S
La80 O111 2.503 . S
La81 C91 2.928 . S
La81 O103 2.482 . S
La81 O105 2.503 . S
La81 O106 2.521 . S
La81 O107 2.628 . S
La81 O108 2.554 . S
La81 O109 2.757 . S
La81 O110 2.470 . S
C82 La80 2.928 1_545 S
C82 C83 1.503 . S
C82 O100 1.261 . S
C82 O101 1.243 . S
C83 C82 1.503 . S
C83 C84 1.394 . S
C83 C88 1.373 . S
C84 C83 1.394 . S
C84 C85 1.380 . S
C84 H112 0.930 . S
C85 C84 1.380 . S
C85 C86 1.376 . S
C85 H113 0.930 . S
C86 C85 1.376 . S
C86 C87 1.370 . S
C87 C86 1.370 . S
C87 C88 1.396 . S
C87 H114 0.929 . S
C88 C83 1.373 . S
C88 C87 1.396 . S
C88 H115 0.929 . S
C89 O102 1.240 . S
C89 O103 1.289 . S
C90 O104 1.258 . S
C90 O105 1.256 . S
C91 La81 2.928 . S
C91 C92 1.503 . S
C91 O106 1.261 . S
C91 O107 1.243 . S
C92 C91 1.503 . S
C92 C93 1.394 . S
C92 C97 1.373 . S
C93 C92 1.394 . S
C93 C94 1.380 . S
C93 H116 0.930 . S
C94 C93 1.380 . S
C94 C95 1.376 . S
C94 H117 0.930 . S
C95 C94 1.376 . S
C95 C96 1.370 . S
C96 C95 1.370 . S
C96 C97 1.396 . S
C96 H118 0.929 . S
C97 C92 1.373 . S
C97 C96 1.396 . S
C97 H119 0.929 . S
C98 O108 1.240 . S
C98 O109 1.289 . S
C99 O110 1.258 . S
C99 O111 1.256 . S
O100 La80 2.521 1_545 S
O100 C82 1.261 . S
O101 La80 2.628 1_545 S
O101 C82 1.243 . S
O102 La80 2.554 . S
O102 C89 1.240 . S
O103 La80 2.757 . S
O103 La81 2.482 . S
O103 C89 1.289 . S
O104 La80 2.470 . S
O104 C90 1.258 . S
O105 La81 2.503 . S
O105 C90 1.256 . S
O106 La81 2.521 . S
O106 C91 1.261 . S
O107 La81 2.628 . S
O107 C91 1.243 . S
O108 La81 2.554 . S
O108 C98 1.240 . S
O109 La80 2.482 . S
O109 La81 2.757 . S
O109 C98 1.289 . S
O110 La81 2.470 . S
O110 C99 1.258 . S
O111 La80 2.503 . S
O111 C99 1.256 . S
H112 C84 0.930 . S
H113 C85 0.930 . S
H114 C87 0.929 . S
H115 C88 0.929 . S
H116 C93 0.930 . S
H117 C94 0.930 . S
H118 C96 0.929 . S
H119 C97 0.929 . S
La120 C122 2.928 1_545 S
La120 O140 2.521 1_545 S
La120 O141 2.628 1_545 S
La120 O142 2.554 . S
La120 O143 2.757 . S
La120 O144 2.470 . S
La120 O149 2.482 . S
La120 O151 2.503 . S
La121 C131 2.928 . S
La121 O143 2.482 . S
La121 O145 2.503 . S
La121 O146 2.521 . S
La121 O147 2.628 . S
La121 O148 2.554 . S
La121 O149 2.757 . S
La121 O150 2.470 . S
C122 La120 2.928 1_565 S
C122 C123 1.503 . S
C122 O140 1.261 . S
C122 O141 1.243 . S
C123 C122 1.503 . S
C123 C124 1.394 . S
C123 C128 1.373 . S
C124 C123 1.394 . S
C124 C125 1.380 . S
C124 H152 0.930 . S
C125 C124 1.380 . S
C125 C126 1.376 . S
C125 H153 0.930 . S
C126 C125 1.376 . S
C126 C127 1.370 . S
C127 C126 1.370 . S
C127 C128 1.396 . S
C127 H154 0.929 . S
C128 C123 1.373 . S
C128 C127 1.396 . S
C128 H155 0.929 . S
C129 O142 1.240 . S
C129 O143 1.289 . S
C130 O144 1.258 . S
C130 O145 1.256 . S
C131 La121 2.928 . S
C131 C132 1.503 . S
C131 O146 1.261 . S
C131 O147 1.243 . S
C132 C131 1.503 . S
C132 C133 1.394 . S
C132 C137 1.373 . S
C133 C132 1.394 . S
C133 C134 1.380 . S
C133 H156 0.930 . S
C134 C133 1.380 . S
C134 C135 1.376 . S
C134 H157 0.930 . S
C135 C134 1.376 . S
C135 C136 1.370 . S
C136 C135 1.370 . S
C136 C137 1.396 . S
C136 H158 0.929 . S
C137 C132 1.373 . S
C137 C136 1.396 . S
C137 H159 0.929 . S
C138 O148 1.240 . S
C138 O149 1.289 . S
C139 O150 1.258 . S
C139 O151 1.256 . S
O140 La120 2.521 1_565 S
O140 C122 1.261 . S
O141 La120 2.628 1_565 S
O141 C122 1.243 . S
O142 La120 2.554 . S
O142 C129 1.240 . S
O143 La120 2.757 . S
O143 La121 2.482 . S
O143 C129 1.289 . S
O144 La120 2.470 . S
O144 C130 1.258 . S
O145 La121 2.503 . S
O145 C130 1.256 . S
O146 La121 2.521 . S
O146 C131 1.261 . S
O147 La121 2.628 . S
O147 C131 1.243 . S
O148 La121 2.554 . S
O148 C138 1.240 . S
O149 La120 2.482 . S
O149 La121 2.757 . S
O149 C138 1.289 . S
O150 La121 2.470 . S
O150 C139 1.258 . S
O151 La120 2.503 . S
O151 C139 1.256 . S
H152 C124 0.930 . S
H153 C125 0.930 . S
H154 C127 0.929 . S
H155 C128 0.929 . S
H156 C133 0.930 . S
H157 C134 0.930 . S
H158 C136 0.929 . S
H159 C137 0.929 . S
La160 C162 2.928 . S
La160 O180 2.521 . S
La160 O181 2.628 . S
La160 O182 2.554 . S
La160 O183 2.757 . S
La160 O184 2.470 . S
La160 O189 2.482 . S
La160 O191 2.503 . S
La161 C171 2.928 1_565 S
La161 O183 2.482 . S
La161 O185 2.503 . S
La161 O186 2.521 1_565 S
La161 O187 2.628 1_565 S
La161 O188 2.554 . S
La161 O189 2.757 . S
La161 O190 2.470 . S
C162 La160 2.928 . S
C162 C163 1.503 . S
C162 O180 1.261 . S
C162 O181 1.243 . S
C163 C162 1.503 . S
C163 C164 1.394 . S
C163 C168 1.373 . S
C164 C163 1.394 . S
C164 C165 1.380 . S
C164 H192 0.930 . S
C165 C164 1.380 . S
C165 C166 1.376 . S
C165 H193 0.930 . S
C166 C165 1.376 . S
C166 C167 1.370 . S
C167 C166 1.370 . S
C167 C168 1.396 . S
C167 H194 0.929 . S
C168 C163 1.373 . S
C168 C167 1.396 . S
C168 H195 0.929 . S
C169 O182 1.240 . S
C169 O183 1.289 . S
C170 O184 1.258 . S
C170 O185 1.256 . S
C171 La161 2.928 1_545 S
C171 C172 1.503 . S
C171 O186 1.261 . S
C171 O187 1.243 . S
C172 C171 1.503 . S
C172 C173 1.394 . S
C172 C177 1.373 . S
C173 C172 1.394 . S
C173 C174 1.380 . S
C173 H196 0.930 . S
C174 C173 1.380 . S
C174 C175 1.376 . S
C174 H197 0.930 . S
C175 C174 1.376 . S
C175 C176 1.370 . S
C176 C175 1.370 . S
C176 C177 1.396 . S
C176 H198 0.929 . S
C177 C172 1.373 . S
C177 C176 1.396 . S
C177 H199 0.929 . S
C178 O188 1.240 . S
C178 O189 1.289 . S
C179 O190 1.258 . S
C179 O191 1.256 . S
O180 La160 2.521 . S
O180 C162 1.261 . S
O181 La160 2.628 . S
O181 C162 1.243 . S
O182 La160 2.554 . S
O182 C169 1.240 . S
O183 La160 2.757 . S
O183 La161 2.482 . S
O183 C169 1.289 . S
O184 La160 2.470 . S
O184 C170 1.258 . S
O185 La161 2.503 . S
O185 C170 1.256 . S
O186 La161 2.521 1_545 S
O186 C171 1.261 . S
O187 La161 2.628 1_545 S
O187 C171 1.243 . S
O188 La161 2.554 . S
O188 C178 1.240 . S
O189 La160 2.482 . S
O189 La161 2.757 . S
O189 C178 1.289 . S
O190 La161 2.470 . S
O190 C179 1.258 . S
O191 La160 2.503 . S
O191 C179 1.256 . S
H192 C164 0.930 . S
H193 C165 0.930 . S
H194 C167 0.929 . S
H195 C168 0.929 . S
H196 C173 0.930 . S
H197 C174 0.930 . S
H198 C176 0.929 . S
H199 C177 0.929 . S
La200 C202 2.928 . S
La200 O220 2.521 . S
La200 O221 2.628 . S
La200 O222 2.554 . S
La200 O223 2.757 . S
La200 O224 2.470 . S
La200 O229 2.482 . S
La200 O231 2.503 . S
La201 C211 2.928 1_545 S
La201 O223 2.482 . S
La201 O225 2.503 . S
La201 O226 2.521 1_545 S
La201 O227 2.628 1_545 S
La201 O228 2.554 . S
La201 O229 2.757 . S
La201 O230 2.470 . S
C202 La200 2.928 . S
C202 C203 1.503 . S
C202 O220 1.261 . S
C202 O221 1.243 . S
C203 C202 1.503 . S
C203 C204 1.394 . S
C203 C208 1.373 . S
C204 C203 1.394 . S
C204 C205 1.380 . S
C204 H232 0.930 . S
C205 C204 1.380 . S
C205 C206 1.376 . S
C205 H233 0.930 . S
C206 C205 1.376 . S
C206 C207 1.370 . S
C207 C206 1.370 . S
C207 C208 1.396 . S
C207 H234 0.929 . S
C208 C203 1.373 . S
C208 C207 1.396 . S
C208 H235 0.929 . S
C209 O222 1.240 . S
C209 O223 1.289 . S
C210 O224 1.258 . S
C210 O225 1.256 . S
C211 La201 2.928 1_565 S
C211 C212 1.503 . S
C211 O226 1.261 . S
C211 O227 1.243 . S
C212 C211 1.503 . S
C212 C213 1.394 . S
C212 C217 1.373 . S
C213 C212 1.394 . S
C213 C214 1.380 . S
C213 H236 0.930 . S
C214 C213 1.380 . S
C214 C215 1.376 . S
C214 H237 0.930 . S
C215 C214 1.376 . S
C215 C216 1.370 . S
C216 C215 1.370 . S
C216 C217 1.396 . S
C216 H238 0.929 . S
C217 C212 1.373 . S
C217 C216 1.396 . S
C217 H239 0.929 . S
C218 O228 1.240 . S
C218 O229 1.289 . S
C219 O230 1.258 . S
C219 O231 1.256 . S
O220 La200 2.521 . S
O220 C202 1.261 . S
O221 La200 2.628 . S
O221 C202 1.243 . S
O222 La200 2.554 . S
O222 C209 1.240 . S
O223 La200 2.757 . S
O223 La201 2.482 . S
O223 C209 1.289 . S
O224 La200 2.470 . S
O224 C210 1.258 . S
O225 La201 2.503 . S
O225 C210 1.256 . S
O226 La201 2.521 1_565 S
O226 C211 1.261 . S
O227 La201 2.628 1_565 S
O227 C211 1.243 . S
O228 La201 2.554 . S
O228 C218 1.240 . S
O229 La200 2.482 . S
O229 La201 2.757 . S
O229 C218 1.289 . S
O230 La201 2.470 . S
O230 C219 1.258 . S
O231 La200 2.503 . S
O231 C219 1.256 . S
H232 C204 0.930 . S
H233 C205 0.930 . S
H234 C207 0.929 . S
H235 C208 0.929 . S
H236 C213 0.930 . S
H237 C214 0.930 . S
H238 C216 0.929 . S
H239 C217 0.929 . S
La240 C242 2.928 . S
La240 O260 2.521 . S
La240 O261 2.628 . S
La240 O262 2.554 . S
La240 O263 2.757 . S
La240 O264 2.470 . S
La240 O269 2.482 . S
La240 O271 2.503 . S
La241 C251 2.928 1_545 S
La241 O263 2.482 . S
La241 O265 2.503 . S
La241 O266 2.521 1_545 S
La241 O267 2.628 1_545 S
La241 O268 2.554 . S
La241 O269 2.757 . S
La241 O270 2.470 . S
C242 La240 2.928 . S
C242 C243 1.503 . S
C242 O260 1.261 . S
C242 O261 1.243 . S
C243 C242 1.503 . S
C243 C244 1.394 . S
C243 C248 1.373 . S
C244 C243 1.394 . S
C244 C245 1.380 . S
C244 H272 0.930 . S
C245 C244 1.380 . S
C245 C246 1.376 . S
C245 H273 0.930 . S
C246 C245 1.376 . S
C246 C247 1.370 . S
C247 C246 1.370 . S
C247 C248 1.396 . S
C247 H274 0.929 . S
C248 C243 1.373 . S
C248 C247 1.396 . S
C248 H275 0.929 . S
C249 O262 1.240 . S
C249 O263 1.289 . S
C250 O264 1.258 . S
C250 O265 1.256 . S
C251 La241 2.928 1_565 S
C251 C252 1.503 . S
C251 O266 1.261 . S
C251 O267 1.243 . S
C252 C251 1.503 . S
C252 C253 1.394 . S
C252 C257 1.373 . S
C253 C252 1.394 . S
C253 C254 1.380 . S
C253 H276 0.930 . S
C254 C253 1.380 . S
C254 C255 1.376 . S
C254 H277 0.930 . S
C255 C254 1.376 . S
C255 C256 1.370 . S
C256 C255 1.370 . S
C256 C257 1.396 . S
C256 H278 0.929 . S
C257 C252 1.373 . S
C257 C256 1.396 . S
C257 H279 0.929 . S
C258 O268 1.240 . S
C258 O269 1.289 . S
C259 O270 1.258 . S
C259 O271 1.256 . S
O260 La240 2.521 . S
O260 C242 1.261 . S
O261 La240 2.628 . S
O261 C242 1.243 . S
O262 La240 2.554 . S
O262 C249 1.240 . S
O263 La240 2.757 . S
O263 La241 2.482 . S
O263 C249 1.289 . S
O264 La240 2.470 . S
O264 C250 1.258 . S
O265 La241 2.503 . S
O265 C250 1.256 . S
O266 La241 2.521 1_565 S
O266 C251 1.261 . S
O267 La241 2.628 1_565 S
O267 C251 1.243 . S
O268 La241 2.554 . S
O268 C258 1.240 . S
O269 La240 2.482 . S
O269 La241 2.757 . S
O269 C258 1.289 . S
O270 La241 2.470 . S
O270 C259 1.258 . S
O271 La240 2.503 . S
O271 C259 1.256 . S
H272 C244 0.930 . S
H273 C245 0.930 . S
H274 C247 0.929 . S
H275 C248 0.929 . S
H276 C253 0.930 . S
H277 C254 0.930 . S
H278 C256 0.929 . S
H279 C257 0.929 . S
La280 C282 2.928 . S
La280 O300 2.521 . S
La280 O301 2.628 . S
La280 O302 2.554 . S
La280 O303 2.757 . S
La280 O304 2.470 . S
La280 O309 2.482 . S
La280 O311 2.503 . S
La281 C291 2.928 1_565 S
La281 O303 2.482 . S
La281 O305 2.503 . S
La281 O306 2.521 1_565 S
La281 O307 2.628 1_565 S
La281 O308 2.554 . S
La281 O309 2.757 . S
La281 O310 2.470 . S
C282 La280 2.928 . S
C282 C283 1.503 . S
C282 O300 1.261 . S
C282 O301 1.243 . S
C283 C282 1.503 . S
C283 C284 1.394 . S
C283 C288 1.373 . S
C284 C283 1.394 . S
C284 C285 1.380 . S
C284 H312 0.930 . S
C285 C284 1.380 . S
C285 C286 1.376 . S
C285 H313 0.930 . S
C286 C285 1.376 . S
C286 C287 1.370 . S
C287 C286 1.370 . S
C287 C288 1.396 . S
C287 H314 0.929 . S
C288 C283 1.373 . S
C288 C287 1.396 . S
C288 H315 0.929 . S
C289 O302 1.240 . S
C289 O303 1.289 . S
C290 O304 1.258 . S
C290 O305 1.256 . S
C291 La281 2.928 1_545 S
C291 C292 1.503 . S
C291 O306 1.261 . S
C291 O307 1.243 . S
C292 C291 1.503 . S
C292 C293 1.394 . S
C292 C297 1.373 . S
C293 C292 1.394 . S
C293 C294 1.380 . S
C293 H316 0.930 . S
C294 C293 1.380 . S
C294 C295 1.376 . S
C294 H317 0.930 . S
C295 C294 1.376 . S
C295 C296 1.370 . S
C296 C295 1.370 . S
C296 C297 1.396 . S
C296 H318 0.929 . S
C297 C292 1.373 . S
C297 C296 1.396 . S
C297 H319 0.929 . S
C298 O308 1.240 . S
C298 O309 1.289 . S
C299 O310 1.258 . S
C299 O311 1.256 . S
O300 La280 2.521 . S
O300 C282 1.261 . S
O301 La280 2.628 . S
O301 C282 1.243 . S
O302 La280 2.554 . S
O302 C289 1.240 . S
O303 La280 2.757 . S
O303 La281 2.482 . S
O303 C289 1.289 . S
O304 La280 2.470 . S
O304 C290 1.258 . S
O305 La281 2.503 . S
O305 C290 1.256 . S
O306 La281 2.521 1_545 S
O306 C291 1.261 . S
O307 La281 2.628 1_545 S
O307 C291 1.243 . S
O308 La281 2.554 . S
O308 C298 1.240 . S
O309 La280 2.482 . S
O309 La281 2.757 . S
O309 C298 1.289 . S
O310 La281 2.470 . S
O310 C299 1.258 . S
O311 La280 2.503 . S
O311 C299 1.256 . S
H312 C284 0.930 . S
H313 C285 0.930 . S
H314 C287 0.929 . S
H315 C288 0.929 . S
H316 C293 0.930 . S
H317 C294 0.930 . S
H318 C296 0.929 . S
H319 C297 0.929 . S
La320 C322 2.928 . S
La320 O340 2.521 . S
La320 O341 2.628 . S
La320 O342 2.554 . S
La320 O343 2.757 . S
La320 O344 2.470 . S
La320 O349 2.482 . S
La320 O351 2.503 . S
La321 C331 2.928 . S
La321 O343 2.482 . S
La321 O345 2.503 . S
La321 O346 2.521 . S
La321 O347 2.628 . S
La321 O348 2.554 . S
La321 O349 2.757 . S
La321 O350 2.470 . S
C322 La320 2.928 . S
C322 C323 1.503 . S
C322 O340 1.261 . S
C322 O341 1.243 . S
C323 C322 1.503 . S
C323 C324 1.394 . S
C323 C328 1.373 . S
C324 C323 1.394 . S
C324 C325 1.380 . S
C324 H352 0.930 . S
C325 C324 1.380 . S
C325 C326 1.376 . S
C325 H353 0.930 . S
C326 C325 1.376 . S
C326 C327 1.370 . S
C327 C326 1.370 . S
C327 C328 1.396 . S
C327 H354 0.929 . S
C328 C323 1.373 . S
C328 C327 1.396 . S
C328 H355 0.929 . S
C329 O342 1.240 . S
C329 O343 1.289 . S
C330 O344 1.258 . S
C330 O345 1.256 . S
C331 La321 2.928 . S
C331 C332 1.503 . S
C331 O346 1.261 . S
C331 O347 1.243 . S
C332 C331 1.503 . S
C332 C333 1.394 . S
C332 C337 1.373 . S
C333 C332 1.394 . S
C333 C334 1.380 . S
C333 H356 0.930 . S
C334 C333 1.380 . S
C334 C335 1.376 . S
C334 H357 0.930 . S
C335 C334 1.376 . S
C335 C336 1.370 . S
C336 C335 1.370 . S
C336 C337 1.396 . S
C336 H358 0.929 . S
C337 C332 1.373 . S
C337 C336 1.396 . S
C337 H359 0.929 . S
C338 O348 1.240 . S
C338 O349 1.289 . S
C339 O350 1.258 . S
C339 O351 1.256 . S
O340 La320 2.521 . S
O340 C322 1.261 . S
O341 La320 2.628 . S
O341 C322 1.243 . S
O342 La320 2.554 . S
O342 C329 1.240 . S
O343 La320 2.757 . S
O343 La321 2.482 . S
O343 C329 1.289 . S
O344 La320 2.470 . S
O344 C330 1.258 . S
O345 La321 2.503 . S
O345 C330 1.256 . S
O346 La321 2.521 . S
O346 C331 1.261 . S
O347 La321 2.628 . S
O347 C331 1.243 . S
O348 La321 2.554 . S
O348 C338 1.240 . S
O349 La320 2.482 . S
O349 La321 2.757 . S
O349 C338 1.289 . S
O350 La321 2.470 . S
O350 C339 1.258 . S
O351 La320 2.503 . S
O351 C339 1.256 . S
H352 C324 0.930 . S
H353 C325 0.930 . S
H354 C327 0.929 . S
H355 C328 0.929 . S
H356 C333 0.930 . S
H357 C334 0.930 . S
H358 C336 0.929 . S
H359 C337 0.929 . S
La360 C362 2.928 . S
La360 O380 2.521 . S
La360 O381 2.628 . S
La360 O382 2.554 . S
La360 O383 2.757 . S
La360 O384 2.470 . S
La360 O389 2.482 . S
La360 O391 2.503 . S
La361 C371 2.928 . S
La361 O383 2.482 . S
La361 O385 2.503 . S
La361 O386 2.521 . S
La361 O387 2.628 . S
La361 O388 2.554 . S
La361 O389 2.757 . S
La361 O390 2.470 . S
C362 La360 2.928 . S
C362 C363 1.503 . S
C362 O380 1.261 . S
C362 O381 1.243 . S
C363 C362 1.503 . S
C363 C364 1.394 . S
C363 C368 1.373 . S
C364 C363 1.394 . S
C364 C365 1.380 . S
C364 H392 0.930 . S
C365 C364 1.380 . S
C365 C366 1.376 . S
C365 H393 0.930 . S
C366 C365 1.376 . S
C366 C367 1.370 . S
C367 C366 1.370 . S
C367 C368 1.396 . S
C367 H394 0.929 . S
C368 C363 1.373 . S
C368 C367 1.396 . S
C368 H395 0.929 . S
C369 O382 1.240 . S
C369 O383 1.289 . S
C370 O384 1.258 . S
C370 O385 1.256 . S
C371 La361 2.928 . S
C371 C372 1.503 . S
C371 O386 1.261 . S
C371 O387 1.243 . S
C372 C371 1.503 . S
C372 C373 1.394 . S
C372 C377 1.373 . S
C373 C372 1.394 . S
C373 C374 1.380 . S
C373 H396 0.930 . S
C374 C373 1.380 . S
C374 C375 1.376 . S
C374 H397 0.930 . S
C375 C374 1.376 . S
C375 C376 1.370 . S
C376 C375 1.370 . S
C376 C377 1.396 . S
C376 H398 0.929 . S
C377 C372 1.373 . S
C377 C376 1.396 . S
C377 H399 0.929 . S
C378 O388 1.240 . S
C378 O389 1.289 . S
C379 O390 1.258 . S
C379 O391 1.256 . S
O380 La360 2.521 . S
O380 C362 1.261 . S
O381 La360 2.628 . S
O381 C362 1.243 . S
O382 La360 2.554 . S
O382 C369 1.240 . S
O383 La360 2.757 . S
O383 La361 2.482 . S
O383 C369 1.289 . S
O384 La360 2.470 . S
O384 C370 1.258 . S
O385 La361 2.503 . S
O385 C370 1.256 . S
O386 La361 2.521 . S
O386 C371 1.261 . S
O387 La361 2.628 . S
O387 C371 1.243 . S
O388 La361 2.554 . S
O388 C378 1.240 . S
O389 La360 2.482 . S
O389 La361 2.757 . S
O389 C378 1.289 . S
O390 La361 2.470 . S
O390 C379 1.258 . S
O391 La360 2.503 . S
O391 C379 1.256 . S
H392 C364 0.930 . S
H393 C365 0.930 . S
H394 C367 0.929 . S
H395 C368 0.929 . S
H396 C373 0.930 . S
H397 C374 0.930 . S
H398 C376 0.929 . S
H399 C377 0.929 . S
La400 C402 2.928 . S
La400 O420 2.521 . S
La400 O421 2.628 . S
La400 O422 2.554 . S
La400 O423 2.757 . S
La400 O424 2.470 . S
La400 O429 2.482 . S
La400 O431 2.503 . S
La401 C411 2.928 . S
La401 O423 2.482 . S
La401 O425 2.503 . S
La401 O426 2.521 . S
La401 O427 2.628 . S
La401 O428 2.554 . S
La401 O429 2.757 . S
La401 O430 2.470 . S
C402 La400 2.928 . S
C402 C403 1.503 . S
C402 O420 1.261 . S
C402 O421 1.243 . S
C403 C402 1.503 . S
C403 C404 1.394 . S
C403 C408 1.373 . S
C404 C403 1.394 . S
C404 C405 1.380 . S
C404 H432 0.930 . S
C405 C404 1.380 . S
C405 C406 1.376 . S
C405 H433 0.930 . S
C406 C405 1.376 . S
C406 C407 1.370 . S
C407 C406 1.370 . S
C407 C408 1.396 . S
C407 H434 0.929 . S
C408 C403 1.373 . S
C408 C407 1.396 . S
C408 H435 0.929 . S
C409 O422 1.240 . S
C409 O423 1.289 . S
C410 O424 1.258 . S
C410 O425 1.256 . S
C411 La401 2.928 . S
C411 C412 1.503 . S
C411 O426 1.261 . S
C411 O427 1.243 . S
C412 C411 1.503 . S
C412 C413 1.394 . S
C412 C417 1.373 . S
C413 C412 1.394 . S
C413 C414 1.380 . S
C413 H436 0.930 . S
C414 C413 1.380 . S
C414 C415 1.376 . S
C414 H437 0.930 . S
C415 C414 1.376 . S
C415 C416 1.370 . S
C416 C415 1.370 . S
C416 C417 1.396 . S
C416 H438 0.929 . S
C417 C412 1.373 . S
C417 C416 1.396 . S
C417 H439 0.929 . S
C418 O428 1.240 . S
C418 O429 1.289 . S
C419 O430 1.258 . S
C419 O431 1.256 . S
O420 La400 2.521 . S
O420 C402 1.261 . S
O421 La400 2.628 . S
O421 C402 1.243 . S
O422 La400 2.554 . S
O422 C409 1.240 . S
O423 La400 2.757 . S
O423 La401 2.482 . S
O423 C409 1.289 . S
O424 La400 2.470 . S
O424 C410 1.258 . S
O425 La401 2.503 . S
O425 C410 1.256 . S
O426 La401 2.521 . S
O426 C411 1.261 . S
O427 La401 2.628 . S
O427 C411 1.243 . S
O428 La401 2.554 . S
O428 C418 1.240 . S
O429 La400 2.482 . S
O429 La401 2.757 . S
O429 C418 1.289 . S
O430 La401 2.470 . S
O430 C419 1.258 . S
O431 La400 2.503 . S
O431 C419 1.256 . S
H432 C404 0.930 . S
H433 C405 0.930 . S
H434 C407 0.929 . S
H435 C408 0.929 . S
H436 C413 0.930 . S
H437 C414 0.930 . S
H438 C416 0.929 . S
H439 C417 0.929 . S
La440 C442 2.928 . S
La440 O460 2.521 . S
La440 O461 2.628 . S
La440 O462 2.554 . S
La440 O463 2.757 . S
La440 O464 2.470 . S
La440 O469 2.482 . S
La440 O471 2.503 . S
La441 C451 2.928 . S
La441 O463 2.482 . S
La441 O465 2.503 . S
La441 O466 2.521 . S
La441 O467 2.628 . S
La441 O468 2.554 . S
La441 O469 2.757 . S
La441 O470 2.470 . S
C442 La440 2.928 . S
C442 C443 1.503 . S
C442 O460 1.261 . S
C442 O461 1.243 . S
C443 C442 1.503 . S
C443 C444 1.394 . S
C443 C448 1.373 . S
C444 C443 1.394 . S
C444 C445 1.380 . S
C444 H472 0.930 . S
C445 C444 1.380 . S
C445 C446 1.376 . S
C445 H473 0.930 . S
C446 C445 1.376 . S
C446 C447 1.370 . S
C447 C446 1.370 . S
C447 C448 1.396 . S
C447 H474 0.929 . S
C448 C443 1.373 . S
C448 C447 1.396 . S
C448 H475 0.929 . S
C449 O462 1.240 . S
C449 O463 1.289 . S
C450 O464 1.258 . S
C450 O465 1.256 . S
C451 La441 2.928 . S
C451 C452 1.503 . S
C451 O466 1.261 . S
C451 O467 1.243 . S
C452 C451 1.503 . S
C452 C453 1.394 . S
C452 C457 1.373 . S
C453 C452 1.394 . S
C453 C454 1.380 . S
C453 H476 0.930 . S
C454 C453 1.380 . S
C454 C455 1.376 . S
C454 H477 0.930 . S
C455 C454 1.376 . S
C455 C456 1.370 . S
C456 C455 1.370 . S
C456 C457 1.396 . S
C456 H478 0.929 . S
C457 C452 1.373 . S
C457 C456 1.396 . S
C457 H479 0.929 . S
C458 O468 1.240 . S
C458 O469 1.289 . S
C459 O470 1.258 . S
C459 O471 1.256 . S
O460 La440 2.521 . S
O460 C442 1.261 . S
O461 La440 2.628 . S
O461 C442 1.243 . S
O462 La440 2.554 . S
O462 C449 1.240 . S
O463 La440 2.757 . S
O463 La441 2.482 . S
O463 C449 1.289 . S
O464 La440 2.470 . S
O464 C450 1.258 . S
O465 La441 2.503 . S
O465 C450 1.256 . S
O466 La441 2.521 . S
O466 C451 1.261 . S
O467 La441 2.628 . S
O467 C451 1.243 . S
O468 La441 2.554 . S
O468 C458 1.240 . S
O469 La440 2.482 . S
O469 La441 2.757 . S
O469 C458 1.289 . S
O470 La441 2.470 . S
O470 C459 1.258 . S
O471 La440 2.503 . S
O471 C459 1.256 . S
H472 C444 0.930 . S
H473 C445 0.930 . S
H474 C447 0.929 . S
H475 C448 0.929 . S
H476 C453 0.930 . S
H477 C454 0.930 . S
H478 C456 0.929 . S
H479 C457 0.929 . S
La480 C482 2.928 . S
La480 O500 2.521 . S
La480 O501 2.628 . S
La480 O502 2.554 . S
La480 O503 2.757 . S
La480 O504 2.470 . S
La480 O509 2.482 . S
La480 O511 2.503 . S
La481 C491 2.928 . S
La481 O503 2.482 . S
La481 O505 2.503 . S
La481 O506 2.521 . S
La481 O507 2.628 . S
La481 O508 2.554 . S
La481 O509 2.757 . S
La481 O510 2.470 . S
C482 La480 2.928 . S
C482 C483 1.503 . S
C482 O500 1.261 . S
C482 O501 1.243 . S
C483 C482 1.503 . S
C483 C484 1.394 . S
C483 C488 1.373 . S
C484 C483 1.394 . S
C484 C485 1.380 . S
C484 H512 0.930 . S
C485 C484 1.380 . S
C485 C486 1.376 . S
C485 H513 0.930 . S
C486 C485 1.376 . S
C486 C487 1.370 . S
C487 C486 1.370 . S
C487 C488 1.396 . S
C487 H514 0.929 . S
C488 C483 1.373 . S
C488 C487 1.396 . S
C488 H515 0.929 . S
C489 O502 1.240 . S
C489 O503 1.289 . S
C490 O504 1.258 . S
C490 O505 1.256 . S
C491 La481 2.928 . S
C491 C492 1.503 . S
C491 O506 1.261 . S
C491 O507 1.243 . S
C492 C491 1.503 . S
C492 C493 1.394 . S
C492 C497 1.373 . S
C493 C492 1.394 . S
C493 C494 1.380 . S
C493 H516 0.930 . S
C494 C493 1.380 . S
C494 C495 1.376 . S
C494 H517 0.930 . S
C495 C494 1.376 . S
C495 C496 1.370 . S
C496 C495 1.370 . S
C496 C497 1.396 . S
C496 H518 0.929 . S
C497 C492 1.373 . S
C497 C496 1.396 . S
C497 H519 0.929 . S
C498 O508 1.240 . S
C498 O509 1.289 . S
C499 O510 1.258 . S
C499 O511 1.256 . S
O500 La480 2.521 . S
O500 C482 1.261 . S
O501 La480 2.628 . S
O501 C482 1.243 . S
O502 La480 2.554 . S
O502 C489 1.240 . S
O503 La480 2.757 . S
O503 La481 2.482 . S
O503 C489 1.289 . S
O504 La480 2.470 . S
O504 C490 1.258 . S
O505 La481 2.503 . S
O505 C490 1.256 . S
O506 La481 2.521 . S
O506 C491 1.261 . S
O507 La481 2.628 . S
O507 C491 1.243 . S
O508 La481 2.554 . S
O508 C498 1.240 . S
O509 La480 2.482 . S
O509 La481 2.757 . S
O509 C498 1.289 . S
O510 La481 2.470 . S
O510 C499 1.258 . S
O511 La480 2.503 . S
O511 C499 1.256 . S
H512 C484 0.930 . S
H513 C485 0.930 . S
H514 C487 0.929 . S
H515 C488 0.929 . S
H516 C493 0.930 . S
H517 C494 0.930 . S
H518 C496 0.929 . S
H519 C497 0.929 . S
La520 C522 2.928 . S
La520 O540 2.521 . S
La520 O541 2.628 . S
La520 O542 2.554 . S
La520 O543 2.757 . S
La520 O544 2.470 . S
La520 O549 2.482 . S
La520 O551 2.503 . S
La521 C531 2.928 . S
La521 O543 2.482 . S
La521 O545 2.503 . S
La521 O546 2.521 . S
La521 O547 2.628 . S
La521 O548 2.554 . S
La521 O549 2.757 . S
La521 O550 2.470 . S
C522 La520 2.928 . S
C522 C523 1.503 . S
C522 O540 1.261 . S
C522 O541 1.243 . S
C523 C522 1.503 . S
C523 C524 1.394 . S
C523 C528 1.373 . S
C524 C523 1.394 . S
C524 C525 1.380 . S
C524 H552 0.930 . S
C525 C524 1.380 . S
C525 C526 1.376 . S
C525 H553 0.930 . S
C526 C525 1.376 . S
C526 C527 1.370 . S
C527 C526 1.370 . S
C527 C528 1.396 . S
C527 H554 0.929 . S
C528 C523 1.373 . S
C528 C527 1.396 . S
C528 H555 0.929 . S
C529 O542 1.240 . S
C529 O543 1.289 . S
C530 O544 1.258 . S
C530 O545 1.256 . S
C531 La521 2.928 . S
C531 C532 1.503 . S
C531 O546 1.261 . S
C531 O547 1.243 . S
C532 C531 1.503 . S
C532 C533 1.394 . S
C532 C537 1.373 . S
C533 C532 1.394 . S
C533 C534 1.380 . S
C533 H556 0.930 . S
C534 C533 1.380 . S
C534 C535 1.376 . S
C534 H557 0.930 . S
C535 C534 1.376 . S
C535 C536 1.370 . S
C536 C535 1.370 . S
C536 C537 1.396 . S
C536 H558 0.929 . S
C537 C532 1.373 . S
C537 C536 1.396 . S
C537 H559 0.929 . S
C538 O548 1.240 . S
C538 O549 1.289 . S
C539 O550 1.258 . S
C539 O551 1.256 . S
O540 La520 2.521 . S
O540 C522 1.261 . S
O541 La520 2.628 . S
O541 C522 1.243 . S
O542 La520 2.554 . S
O542 C529 1.240 . S
O543 La520 2.757 . S
O543 La521 2.482 . S
O543 C529 1.289 . S
O544 La520 2.470 . S
O544 C530 1.258 . S
O545 La521 2.503 . S
O545 C530 1.256 . S
O546 La521 2.521 . S
O546 C531 1.261 . S
O547 La521 2.628 . S
O547 C531 1.243 . S
O548 La521 2.554 . S
O548 C538 1.240 . S
O549 La520 2.482 . S
O549 La521 2.757 . S
O549 C538 1.289 . S
O550 La521 2.470 . S
O550 C539 1.258 . S
O551 La520 2.503 . S
O551 C539 1.256 . S
H552 C524 0.930 . S
H553 C525 0.930 . S
H554 C527 0.929 . S
H555 C528 0.929 . S
H556 C533 0.930 . S
H557 C534 0.930 . S
H558 C536 0.929 . S
H559 C537 0.929 . S
La560 C562 2.928 . S
La560 O580 2.521 . S
La560 O581 2.628 . S
La560 O582 2.554 . S
La560 O583 2.757 . S
La560 O584 2.470 . S
La560 O589 2.482 . S
La560 O591 2.503 . S
La561 C571 2.928 . S
La561 O583 2.482 . S
La561 O585 2.503 . S
La561 O586 2.521 . S
La561 O587 2.628 . S
La561 O588 2.554 . S
La561 O589 2.757 . S
La561 O590 2.470 . S
C562 La560 2.928 . S
C562 C563 1.503 . S
C562 O580 1.261 . S
C562 O581 1.243 . S
C563 C562 1.503 . S
C563 C564 1.394 . S
C563 C568 1.373 . S
C564 C563 1.394 . S
C564 C565 1.380 . S
C564 H592 0.930 . S
C565 C564 1.380 . S
C565 C566 1.376 . S
C565 H593 0.930 . S
C566 C565 1.376 . S
C566 C567 1.370 . S
C567 C566 1.370 . S
C567 C568 1.396 . S
C567 H594 0.929 . S
C568 C563 1.373 . S
C568 C567 1.396 . S
C568 H595 0.929 . S
C569 O582 1.240 . S
C569 O583 1.289 . S
C570 O584 1.258 . S
C570 O585 1.256 . S
C571 La561 2.928 . S
C571 C572 1.503 . S
C571 O586 1.261 . S
C571 O587 1.243 . S
C572 C571 1.503 . S
C572 C573 1.394 . S
C572 C577 1.373 . S
C573 C572 1.394 . S
C573 C574 1.380 . S
C573 H596 0.930 . S
C574 C573 1.380 . S
C574 C575 1.376 . S
C574 H597 0.930 . S
C575 C574 1.376 . S
C575 C576 1.370 . S
C576 C575 1.370 . S
C576 C577 1.396 . S
C576 H598 0.929 . S
C577 C572 1.373 . S
C577 C576 1.396 . S
C577 H599 0.929 . S
C578 O588 1.240 . S
C578 O589 1.289 . S
C579 O590 1.258 . S
C579 O591 1.256 . S
O580 La560 2.521 . S
O580 C562 1.261 . S
O581 La560 2.628 . S
O581 C562 1.243 . S
O582 La560 2.554 . S
O582 C569 1.240 . S
O583 La560 2.757 . S
O583 La561 2.482 . S
O583 C569 1.289 . S
O584 La560 2.470 . S
O584 C570 1.258 . S
O585 La561 2.503 . S
O585 C570 1.256 . S
O586 La561 2.521 . S
O586 C571 1.261 . S
O587 La561 2.628 . S
O587 C571 1.243 . S
O588 La561 2.554 . S
O588 C578 1.240 . S
O589 La560 2.482 . S
O589 La561 2.757 . S
O589 C578 1.289 . S
O590 La561 2.470 . S
O590 C579 1.258 . S
O591 La560 2.503 . S
O591 C579 1.256 . S
H592 C564 0.930 . S
H593 C565 0.930 . S
H594 C567 0.929 . S
H595 C568 0.929 . S
H596 C573 0.930 . S
H597 C574 0.930 . S
H598 C576 0.929 . S
H599 C577 0.929 . S
La600 C602 2.928 . S
La600 O620 2.521 . S
La600 O621 2.628 . S
La600 O622 2.554 . S
La600 O623 2.757 . S
La600 O624 2.470 . S
La600 O629 2.482 . S
La600 O631 2.503 . S
La601 C611 2.928 . S
La601 O623 2.482 . S
La601 O625 2.503 . S
La601 O626 2.521 . S
La601 O627 2.628 . S
La601 O628 2.554 . S
La601 O629 2.757 . S
La601 O630 2.470 . S
C602 La600 2.928 . S
C602 C603 1.503 . S
C602 O620 1.261 . S
C602 O621 1.243 . S
C603 C602 1.503 . S
C603 C604 1.394 . S
C603 C608 1.373 . S
C604 C603 1.394 . S
C604 C605 1.380 . S
C604 H632 0.930 . S
C605 C604 1.380 . S
C605 C606 1.376 . S
C605 H633 0.930 . S
C606 C605 1.376 . S
C606 C607 1.370 . S
C607 C606 1.370 . S
C607 C608 1.396 . S
C607 H634 0.929 . S
C608 C603 1.373 . S
C608 C607 1.396 . S
C608 H635 0.929 . S
C609 O622 1.240 . S
C609 O623 1.289 . S
C610 O624 1.258 . S
C610 O625 1.256 . S
C611 La601 2.928 . S
C611 C612 1.503 . S
C611 O626 1.261 . S
C611 O627 1.243 . S
C612 C611 1.503 . S
C612 C613 1.394 . S
C612 C617 1.373 . S
C613 C612 1.394 . S
C613 C614 1.380 . S
C613 H636 0.930 . S
C614 C613 1.380 . S
C614 C615 1.376 . S
C614 H637 0.930 . S
C615 C614 1.376 . S
C615 C616 1.370 . S
C616 C615 1.370 . S
C616 C617 1.396 . S
C616 H638 0.929 . S
C617 C612 1.373 . S
C617 C616 1.396 . S
C617 H639 0.929 . S
C618 O628 1.240 . S
C618 O629 1.289 . S
C619 O630 1.258 . S
C619 O631 1.256 . S
O620 La600 2.521 . S
O620 C602 1.261 . S
O621 La600 2.628 . S
O621 C602 1.243 . S
O622 La600 2.554 . S
O622 C609 1.240 . S
O623 La600 2.757 . S
O623 La601 2.482 . S
O623 C609 1.289 . S
O624 La600 2.470 . S
O624 C610 1.258 . S
O625 La601 2.503 . S
O625 C610 1.256 . S
O626 La601 2.521 . S
O626 C611 1.261 . S
O627 La601 2.628 . S
O627 C611 1.243 . S
O628 La601 2.554 . S
O628 C618 1.240 . S
O629 La600 2.482 . S
O629 La601 2.757 . S
O629 C618 1.289 . S
O630 La601 2.470 . S
O630 C619 1.258 . S
O631 La600 2.503 . S
O631 C619 1.256 . S
H632 C604 0.930 . S
H633 C605 0.930 . S
H634 C607 0.929 . S
H635 C608 0.929 . S
H636 C613 0.930 . S
H637 C614 0.930 . S
H638 C616 0.929 . S
H639 C617 0.929 . S
H640 C646 0.930 . S
H641 C650 0.930 . S
H642 C655 0.929 . S
H643 C653 0.929 . S
H644 C648 0.929 . S
H645 C654 0.929 . S
C646 H640 0.930 . S
C646 C647 1.367 . S
C646 C654 1.378 . S
C647 C646 1.367 . S
C647 C655 1.433 . S
C648 H644 0.929 . S
C648 C650 1.378 . S
C648 C652 1.350 . S
C649 C652 1.463 . S
C649 C654 1.350 . S
C649 N657 1.427 . S
C650 H641 0.930 . S
C650 C648 1.378 . S
C650 C651 1.367 . S
C651 C650 1.367 . S
C651 C653 1.433 . S
C652 C648 1.350 . S
C652 C649 1.463 . S
C652 N656 1.427 . S
C653 H643 0.929 . S
C653 C651 1.433 . S
C653 N656 1.384 . S
C654 H645 0.929 . S
C654 C646 1.378 . S
C654 C649 1.350 . S
C655 H642 0.929 . S
C655 C647 1.433 . S
C655 N657 1.384 . S
N656 C652 1.427 . S
N656 C653 1.384 . S
N657 C649 1.427 . S
N657 C655 1.384 . S
H658 C664 0.930 . S
H659 C668 0.930 . S
H660 C673 0.929 . S
H661 C671 0.929 . S
H662 C666 0.929 . S
H663 C672 0.929 . S
C664 H658 0.930 . S
C664 C665 1.367 . S
C664 C672 1.378 . S
C665 C664 1.367 . S
C665 C673 1.433 . S
C666 H662 0.929 . S
C666 C668 1.378 . S
C666 C670 1.350 . S
C667 C670 1.463 . S
C667 C672 1.350 . S
C667 N675 1.427 . S
C668 H659 0.930 . S
C668 C666 1.378 . S
C668 C669 1.367 . S
C669 C668 1.367 . S
C669 C671 1.433 . S
C670 C666 1.350 . S
C670 C667 1.463 . S
C670 N674 1.427 . S
C671 H661 0.929 . S
C671 C669 1.433 . S
C671 N674 1.384 . S
C672 H663 0.929 . S
C672 C664 1.378 . S
C672 C667 1.350 . S
C673 H660 0.929 . S
C673 C665 1.433 . S
C673 N675 1.384 . S
N674 C670 1.427 . S
N674 C671 1.384 . S
N675 C667 1.427 . S
N675 C673 1.384 . S
H676 C682 0.930 . S
H677 C686 0.930 . S
H678 C691 0.929 . S
H679 C689 0.929 . S
H680 C684 0.929 . S
H681 C690 0.929 . S
C682 H676 0.930 . S
C682 C683 1.367 . S
C682 C690 1.378 . S
C683 C682 1.367 . S
C683 C691 1.433 . S
C684 H680 0.929 . S
C684 C686 1.378 . S
C684 C688 1.350 . S
C685 C688 1.463 . S
C685 C690 1.350 . S
C685 N693 1.427 . S
C686 H677 0.930 . S
C686 C684 1.378 . S
C686 C687 1.367 . S
C687 C686 1.367 . S
C687 C689 1.433 . S
C688 C684 1.350 . S
C688 C685 1.463 . S
C688 N692 1.427 . S
C689 H679 0.929 . S
C689 C687 1.433 . S
C689 N692 1.384 . S
C690 H681 0.929 . S
C690 C682 1.378 . S
C690 C685 1.350 . S
C691 H678 0.929 . S
C691 C683 1.433 . S
C691 N693 1.384 . S
N692 C688 1.427 . S
N692 C689 1.384 . S
N693 C685 1.427 . S
N693 C691 1.384 . S
H694 C700 0.930 . S
H695 C704 0.930 . S
H696 C709 0.929 . S
H697 C707 0.929 . S
H698 C702 0.929 . S
H699 C708 0.929 . S
C700 H694 0.930 . S
C700 C701 1.367 . S
C700 C708 1.378 . S
C701 C700 1.367 . S
C701 C709 1.433 . S
C702 H698 0.929 . S
C702 C704 1.378 . S
C702 C706 1.350 . S
C703 C706 1.463 . S
C703 C708 1.350 . S
C703 N711 1.427 . S
C704 H695 0.930 . S
C704 C702 1.378 . S
C704 C705 1.367 . S
C705 C704 1.367 . S
C705 C707 1.433 . S
C706 C702 1.350 . S
C706 C703 1.463 . S
C706 N710 1.427 . S
C707 H697 0.929 . S
C707 C705 1.433 . S
C707 N710 1.384 . S
C708 H699 0.929 . S
C708 C700 1.378 . S
C708 C703 1.350 . S
C709 H696 0.929 . S
C709 C701 1.433 . S
C709 N711 1.384 . S
N710 C706 1.427 . S
N710 C707 1.384 . S
N711 C703 1.427 . S
N711 C709 1.384 . S
H712 C718 0.930 . S
H713 C722 0.930 . S
H714 C727 0.929 . S
H715 C725 0.929 . S
H716 C720 0.929 . S
H717 C726 0.929 . S
C718 H712 0.930 . S
C718 C719 1.367 . S
C718 C726 1.378 . S
C719 C718 1.367 . S
C719 C727 1.433 . S
C720 H716 0.929 . S
C720 C722 1.378 . S
C720 C724 1.350 . S
C721 C724 1.463 . S
C721 C726 1.350 . S
C721 N729 1.427 . S
C722 H713 0.930 . S
C722 C720 1.378 . S
C722 C723 1.367 . S
C723 C722 1.367 . S
C723 C725 1.433 . S
C724 C720 1.350 . S
C724 C721 1.463 . S
C724 N728 1.427 . S
C725 H715 0.929 . S
C725 C723 1.433 . S
C725 N728 1.384 . S
C726 H717 0.929 . S
C726 C718 1.378 . S
C726 C721 1.350 . S
C727 H714 0.929 . S
C727 C719 1.433 . S
C727 N729 1.384 . S
N728 C724 1.427 . S
N728 C725 1.384 . S
N729 C721 1.427 . S
N729 C727 1.384 . S
H730 C736 0.930 . S
H731 C740 0.930 . S
H732 C745 0.929 . S
H733 C743 0.929 . S
H734 C738 0.929 . S
H735 C744 0.929 . S
C736 H730 0.930 . S
C736 C737 1.367 . S
C736 C744 1.378 . S
C737 C736 1.367 . S
C737 C745 1.433 . S
C738 H734 0.929 . S
C738 C740 1.378 . S
C738 C742 1.350 . S
C739 C742 1.463 . S
C739 C744 1.350 . S
C739 N747 1.427 . S
C740 H731 0.930 . S
C740 C738 1.378 . S
C740 C741 1.367 . S
C741 C740 1.367 . S
C741 C743 1.433 . S
C742 C738 1.350 . S
C742 C739 1.463 . S
C742 N746 1.427 . S
C743 H733 0.929 . S
C743 C741 1.433 . S
C743 N746 1.384 . S
C744 H735 0.929 . S
C744 C736 1.378 . S
C744 C739 1.350 . S
C745 H732 0.929 . S
C745 C737 1.433 . S
C745 N747 1.384 . S
N746 C742 1.427 . S
N746 C743 1.384 . S
N747 C739 1.427 . S
N747 C745 1.384 . S
H748 C754 0.930 . S
H749 C758 0.930 . S
H750 C763 0.929 . S
H751 C761 0.929 . S
H752 C756 0.929 . S
H753 C762 0.929 . S
C754 H748 0.930 . S
C754 C755 1.367 . S
C754 C762 1.378 . S
C755 C754 1.367 . S
C755 C763 1.433 . S
C756 H752 0.929 . S
C756 C758 1.378 . S
C756 C760 1.350 . S
C757 C760 1.463 . S
C757 C762 1.350 . S
C757 N765 1.427 . S
C758 H749 0.930 . S
C758 C756 1.378 . S
C758 C759 1.367 . S
C759 C758 1.367 . S
C759 C761 1.433 . S
C760 C756 1.350 . S
C760 C757 1.463 . S
C760 N764 1.427 . S
C761 H751 0.929 . S
C761 C759 1.433 . S
C761 N764 1.384 . S
C762 H753 0.929 . S
C762 C754 1.378 . S
C762 C757 1.350 . S
C763 H750 0.929 . S
C763 C755 1.433 . S
C763 N765 1.384 . S
N764 C760 1.427 . S
N764 C761 1.384 . S
N765 C757 1.427 . S
N765 C763 1.384 . S
H766 C772 0.930 . S
H767 C776 0.930 . S
H768 C781 0.929 . S
H769 C779 0.929 . S
H770 C774 0.929 . S
H771 C780 0.929 . S
C772 H766 0.930 . S
C772 C773 1.367 . S
C772 C780 1.378 . S
C773 C772 1.367 . S
C773 C781 1.433 . S
C774 H770 0.929 . S
C774 C776 1.378 . S
C774 C778 1.350 . S
C775 C778 1.463 . S
C775 C780 1.350 . S
C775 N783 1.427 . S
C776 H767 0.930 . S
C776 C774 1.378 . S
C776 C777 1.367 . S
C777 C776 1.367 . S
C777 C779 1.433 . S
C778 C774 1.350 . S
C778 C775 1.463 . S
C778 N782 1.427 . S
C779 H769 0.929 . S
C779 C777 1.433 . S
C779 N782 1.384 . S
C780 H771 0.929 . S
C780 C772 1.378 . S
C780 C775 1.350 . S
C781 H768 0.929 . S
C781 C773 1.433 . S
C781 N783 1.384 . S
N782 C778 1.427 . S
N782 C779 1.384 . S
N783 C775 1.427 . S
N783 C781 1.384 . S
H784 C790 0.930 . S
H785 C794 0.930 . S
H786 C799 0.929 . S
H787 C797 0.929 . S
H788 C792 0.929 . S
H789 C798 0.929 . S
C790 H784 0.930 . S
C790 C791 1.367 . S
C790 C798 1.378 1_565 S
C791 C790 1.367 . S
C791 C799 1.433 . S
C792 H788 0.929 . S
C792 C794 1.378 1_565 S
C792 C796 1.350 1_565 S
C793 C796 1.463 1_565 S
C793 C798 1.350 1_565 S
C793 N801 1.427 . S
C794 H785 0.930 . S
C794 C792 1.378 1_545 S
C794 C795 1.367 . S
C795 C794 1.367 . S
C795 C797 1.433 . S
C796 C792 1.350 1_545 S
C796 C793 1.463 1_545 S
C796 N800 1.427 . S
C797 H787 0.929 . S
C797 C795 1.433 . S
C797 N800 1.384 . S
C798 H789 0.929 . S
C798 C790 1.378 1_545 S
C798 C793 1.350 1_545 S
C799 H786 0.929 . S
C799 C791 1.433 . S
C799 N801 1.384 . S
N800 C796 1.427 . S
N800 C797 1.384 . S
N801 C793 1.427 . S
N801 C799 1.384 . S
H802 C808 0.930 . S
H803 C812 0.930 . S
H804 C817 0.929 . S
H805 C815 0.929 . S
H806 C810 0.929 . S
H807 C816 0.929 . S
C808 H802 0.930 . S
C808 C809 1.367 . S
C808 C816 1.378 1_545 S
C809 C808 1.367 . S
C809 C817 1.433 . S
C810 H806 0.929 . S
C810 C812 1.378 1_545 S
C810 C814 1.350 1_545 S
C811 C814 1.463 1_545 S
C811 C816 1.350 1_545 S
C811 N819 1.427 . S
C812 H803 0.930 . S
C812 C810 1.378 1_565 S
C812 C813 1.367 . S
C813 C812 1.367 . S
C813 C815 1.433 . S
C814 C810 1.350 1_565 S
C814 C811 1.463 1_565 S
C814 N818 1.427 . S
C815 H805 0.929 . S
C815 C813 1.433 . S
C815 N818 1.384 . S
C816 H807 0.929 . S
C816 C808 1.378 1_565 S
C816 C811 1.350 1_565 S
C817 H804 0.929 . S
C817 C809 1.433 . S
C817 N819 1.384 . S
N818 C814 1.427 . S
N818 C815 1.384 . S
N819 C811 1.427 . S
N819 C817 1.384 . S
H820 C826 0.930 . S
H821 C830 0.930 . S
H822 C835 0.929 . S
H823 C833 0.929 . S
H824 C828 0.929 1_545 S
H825 C834 0.929 1_565 S
C826 H820 0.930 . S
C826 C827 1.367 . S
C826 C834 1.378 . S
C827 C826 1.367 . S
C827 C835 1.433 . S
C828 H824 0.929 1_565 S
C828 C830 1.378 . S
C828 C832 1.350 . S
C829 C832 1.463 1_545 S
C829 C834 1.350 . S
C829 N837 1.427 . S
C830 H821 0.930 . S
C830 C828 1.378 . S
C830 C831 1.367 . S
C831 C830 1.367 . S
C831 C833 1.433 . S
C832 C828 1.350 . S
C832 C829 1.463 1_565 S
C832 N836 1.427 . S
C833 H823 0.929 . S
C833 C831 1.433 . S
C833 N836 1.384 . S
C834 H825 0.929 1_545 S
C834 C826 1.378 . S
C834 C829 1.350 . S
C835 H822 0.929 . S
C835 C827 1.433 . S
C835 N837 1.384 . S
N836 C832 1.427 . S
N836 C833 1.384 . S
N837 C829 1.427 . S
N837 C835 1.384 . S
H838 C844 0.930 . S
H839 C848 0.930 . S
H840 C853 0.929 . S
H841 C851 0.929 . S
H842 C846 0.929 1_545 S
H843 C852 0.929 1_565 S
C844 H838 0.930 . S
C844 C845 1.367 . S
C844 C852 1.378 . S
C845 C844 1.367 . S
C845 C853 1.433 . S
C846 H842 0.929 1_565 S
C846 C848 1.378 . S
C846 C850 1.350 . S
C847 C850 1.463 1_545 S
C847 C852 1.350 . S
C847 N855 1.427 . S
C848 H839 0.930 . S
C848 C846 1.378 . S
C848 C849 1.367 . S
C849 C848 1.367 . S
C849 C851 1.433 . S
C850 C846 1.350 . S
C850 C847 1.463 1_565 S
C850 N854 1.427 . S
C851 H841 0.929 . S
C851 C849 1.433 . S
C851 N854 1.384 . S
C852 H843 0.929 1_545 S
C852 C844 1.378 . S
C852 C847 1.350 . S
C853 H840 0.929 . S
C853 C845 1.433 . S
C853 N855 1.384 . S
N854 C850 1.427 . S
N854 C851 1.384 . S
N855 C847 1.427 . S
N855 C853 1.384 . S
H856 C862 0.930 . S
H857 C866 0.930 . S
H858 C871 0.929 . S
H859 C869 0.929 . S
H860 C864 0.929 . S
H861 C870 0.929 . S
C862 H856 0.930 . S
C862 C863 1.367 . S
C862 C870 1.378 . S
C863 C862 1.367 . S
C863 C871 1.433 . S
C864 H860 0.929 . S
C864 C866 1.378 . S
C864 C868 1.350 . S
C865 C868 1.463 . S
C865 C870 1.350 . S
C865 N873 1.427 . S
C866 H857 0.930 . S
C866 C864 1.378 . S
C866 C867 1.367 . S
C867 C866 1.367 . S
C867 C869 1.433 . S
C868 C864 1.350 . S
C868 C865 1.463 . S
C868 N872 1.427 . S
C869 H859 0.929 . S
C869 C867 1.433 . S
C869 N872 1.384 . S
C870 H861 0.929 . S
C870 C862 1.378 . S
C870 C865 1.350 . S
C871 H858 0.929 . S
C871 C863 1.433 . S
C871 N873 1.384 . S
N872 C868 1.427 . S
N872 C869 1.384 . S
N873 C865 1.427 . S
N873 C871 1.384 . S
H874 C880 0.930 . S
H875 C884 0.930 . S
H876 C889 0.929 . S
H877 C887 0.929 . S
H878 C882 0.929 . S
H879 C888 0.929 . S
C880 H874 0.930 . S
C880 C881 1.367 . S
C880 C888 1.378 . S
C881 C880 1.367 . S
C881 C889 1.433 . S
C882 H878 0.929 . S
C882 C884 1.378 . S
C882 C886 1.350 . S
C883 C886 1.463 . S
C883 C888 1.350 . S
C883 N891 1.427 . S
C884 H875 0.930 . S
C884 C882 1.378 . S
C884 C885 1.367 . S
C885 C884 1.367 . S
C885 C887 1.433 . S
C886 C882 1.350 . S
C886 C883 1.463 . S
C886 N890 1.427 . S
C887 H877 0.929 . S
C887 C885 1.433 . S
C887 N890 1.384 . S
C888 H879 0.929 . S
C888 C880 1.378 . S
C888 C883 1.350 . S
C889 H876 0.929 . S
C889 C881 1.433 . S
C889 N891 1.384 . S
N890 C886 1.427 . S
N890 C887 1.384 . S
N891 C883 1.427 . S
N891 C889 1.384 . S
H892 C898 0.930 . S
H893 C902 0.930 . S
H894 C907 0.929 . S
H895 C905 0.929 . S
H896 C900 0.929 . S
H897 C906 0.929 . S
C898 H892 0.930 . S
C898 C899 1.367 . S
C898 C906 1.378 . S
C899 C898 1.367 . S
C899 C907 1.433 . S
C900 H896 0.929 . S
C900 C902 1.378 . S
C900 C904 1.350 . S
C901 C904 1.463 . S
C901 C906 1.350 . S
C901 N909 1.427 . S
C902 H893 0.930 . S
C902 C900 1.378 . S
C902 C903 1.367 . S
C903 C902 1.367 . S
C903 C905 1.433 . S
C904 C900 1.350 . S
C904 C901 1.463 . S
C904 N908 1.427 . S
C905 H895 0.929 . S
C905 C903 1.433 . S
C905 N908 1.384 . S
C906 H897 0.929 . S
C906 C898 1.378 . S
C906 C901 1.350 . S
C907 H894 0.929 . S
C907 C899 1.433 . S
C907 N909 1.384 . S
N908 C904 1.427 . S
N908 C905 1.384 . S
N909 C901 1.427 . S
N909 C907 1.384 . S
H910 C916 0.930 . S
H911 C920 0.930 . S
H912 C925 0.929 . S
H913 C923 0.929 . S
H914 C918 0.929 . S
H915 C924 0.929 . S
C916 H910 0.930 . S
C916 C917 1.367 . S
C916 C924 1.378 . S
C917 C916 1.367 . S
C917 C925 1.433 . S
C918 H914 0.929 . S
C918 C920 1.378 . S
C918 C922 1.350 . S
C919 C922 1.463 . S
C919 C924 1.350 . S
C919 N927 1.427 . S
C920 H911 0.930 . S
C920 C918 1.378 . S
C920 C921 1.367 . S
C921 C920 1.367 . S
C921 C923 1.433 . S
C922 C918 1.350 . S
C922 C919 1.463 . S
C922 N926 1.427 . S
C923 H913 0.929 . S
C923 C921 1.433 . S
C923 N926 1.384 . S
C924 H915 0.929 . S
C924 C916 1.378 . S
C924 C919 1.350 . S
C925 H912 0.929 . S
C925 C917 1.433 . S
C925 N927 1.384 . S
N926 C922 1.427 . S
N926 C923 1.384 . S
N927 C919 1.427 . S
N927 C925 1.384 . S
H928 C934 0.930 . S
H929 C938 0.930 . S
H930 C943 0.929 . S
H931 C941 0.929 . S
H932 C936 0.929 . S
H933 C942 0.929 . S
C934 H928 0.930 . S
C934 C935 1.367 . S
C934 C942 1.378 . S
C935 C934 1.367 . S
C935 C943 1.433 . S
C936 H932 0.929 . S
C936 C938 1.378 . S
C936 C940 1.350 . S
C937 C940 1.463 1_556 S
C937 C942 1.350 . S
C937 N945 1.427 . S
C938 H929 0.930 . S
C938 C936 1.378 . S
C938 C939 1.367 . S
C939 C938 1.367 . S
C939 C941 1.433 . S
C940 C936 1.350 . S
C940 C937 1.463 1_554 S
C940 N944 1.427 . S
C941 H931 0.929 . S
C941 C939 1.433 . S
C941 N944 1.384 . S
C942 H933 0.929 . S
C942 C934 1.378 . S
C942 C937 1.350 . S
C943 H930 0.929 . S
C943 C935 1.433 . S
C943 N945 1.384 . S
N944 C940 1.427 . S
N944 C941 1.384 . S
N945 C937 1.427 . S
N945 C943 1.384 . S
H946 C952 0.930 . S
H947 C956 0.930 . S
H948 C961 0.929 . S
H949 C959 0.929 . S
H950 C954 0.929 . S
H951 C960 0.929 . S
C952 H946 0.930 . S
C952 C953 1.367 . S
C952 C960 1.378 . S
C953 C952 1.367 . S
C953 C961 1.433 . S
C954 H950 0.929 . S
C954 C956 1.378 . S
C954 C958 1.350 . S
C955 C958 1.463 1_556 S
C955 C960 1.350 . S
C955 N963 1.427 . S
C956 H947 0.930 . S
C956 C954 1.378 . S
C956 C957 1.367 . S
C957 C956 1.367 . S
C957 C959 1.433 . S
C958 C954 1.350 . S
C958 C955 1.463 1_554 S
C958 N962 1.427 . S
C959 H949 0.929 . S
C959 C957 1.433 . S
C959 N962 1.384 . S
C960 H951 0.929 . S
C960 C952 1.378 . S
C960 C955 1.350 . S
C961 H948 0.929 . S
C961 C953 1.433 . S
C961 N963 1.384 . S
N962 C958 1.427 . S
N962 C959 1.384 . S
N963 C955 1.427 . S
N963 C961 1.384 . S
H964 C970 0.930 . S
H965 C974 0.930 . S
H966 C979 0.929 . S
H967 C977 0.929 . S
H968 C972 0.929 . S
H969 C978 0.929 . S
C970 H964 0.930 . S
C970 C971 1.367 . S
C970 C978 1.378 . S
C971 C970 1.367 . S
C971 C979 1.433 . S
C972 H968 0.929 . S
C972 C974 1.378 . S
C972 C976 1.350 . S
C973 C976 1.463 . S
C973 C978 1.350 . S
C973 N981 1.427 . S
C974 H965 0.930 . S
C974 C972 1.378 . S
C974 C975 1.367 . S
C975 C974 1.367 . S
C975 C977 1.433 . S
C976 C972 1.350 . S
C976 C973 1.463 . S
C976 N980 1.427 . S
C977 H967 0.929 . S
C977 C975 1.433 . S
C977 N980 1.384 . S
C978 H969 0.929 . S
C978 C970 1.378 . S
C978 C973 1.350 . S
C979 H966 0.929 . S
C979 C971 1.433 . S
C979 N981 1.384 . S
N980 C976 1.427 . S
N980 C977 1.384 . S
N981 C973 1.427 . S
N981 C979 1.384 . S
H982 C988 0.930 . S
H983 C992 0.930 . S
H984 C997 0.929 . S
H985 C995 0.929 . S
H986 C990 0.929 . S
H987 C996 0.929 . S
C988 H982 0.930 . S
C988 C989 1.367 . S
C988 C996 1.378 . S
C989 C988 1.367 . S
C989 C997 1.433 . S
C990 H986 0.929 . S
C990 C992 1.378 . S
C990 C994 1.350 . S
C991 C994 1.463 . S
C991 C996 1.350 . S
C991 N999 1.427 . S
C992 H983 0.930 . S
C992 C990 1.378 . S
C992 C993 1.367 . S
C993 C992 1.367 . S
C993 C995 1.433 . S
C994 C990 1.350 . S
C994 C991 1.463 . S
C994 N998 1.427 . S
C995 H985 0.929 . S
C995 C993 1.433 . S
C995 N998 1.384 . S
C996 H987 0.929 . S
C996 C988 1.378 . S
C996 C991 1.350 . S
C997 H984 0.929 . S
C997 C989 1.433 . S
C997 N999 1.384 . S
N998 C994 1.427 . S
N998 C995 1.384 . S
N999 C991 1.427 . S
N999 C997 1.384 . S
H1000 C1006 0.930 . S
H1001 C1010 0.930 . S
H1002 C1015 0.929 . S
H1003 C1013 0.929 . S
H1004 C1008 0.929 . S
H1005 C1014 0.929 . S
C1006 H1000 0.930 . S
C1006 C1007 1.367 . S
C1006 C1014 1.378 . S
C1007 C1006 1.367 . S
C1007 C1015 1.433 . S
C1008 H1004 0.929 . S
C1008 C1010 1.378 . S
C1008 C1012 1.350 . S
C1009 C1012 1.463 1_554 S
C1009 C1014 1.350 . S
C1009 N1017 1.427 . S
C1010 H1001 0.930 . S
C1010 C1008 1.378 . S
C1010 C1011 1.367 . S
C1011 C1010 1.367 . S
C1011 C1013 1.433 . S
C1012 C1008 1.350 . S
C1012 C1009 1.463 1_556 S
C1012 N1016 1.427 . S
C1013 H1003 0.929 . S
C1013 C1011 1.433 . S
C1013 N1016 1.384 . S
C1014 H1005 0.929 . S
C1014 C1006 1.378 . S
C1014 C1009 1.350 . S
C1015 H1002 0.929 . S
C1015 C1007 1.433 . S
C1015 N1017 1.384 . S
N1016 C1012 1.427 . S
N1016 C1013 1.384 . S
N1017 C1009 1.427 . S
N1017 C1015 1.384 . S
H1018 C1024 0.930 . S
H1019 C1028 0.930 . S
H1020 C1033 0.929 . S
H1021 C1031 0.929 . S
H1022 C1026 0.929 . S
H1023 C1032 0.929 . S
C1024 H1018 0.930 . S
C1024 C1025 1.367 . S
C1024 C1032 1.378 . S
C1025 C1024 1.367 . S
C1025 C1033 1.433 . S
C1026 H1022 0.929 . S
C1026 C1028 1.378 . S
C1026 C1030 1.350 . S
C1027 C1030 1.463 1_556 S
C1027 C1032 1.350 . S
C1027 N1035 1.427 . S
C1028 H1019 0.930 . S
C1028 C1026 1.378 . S
C1028 C1029 1.367 . S
C1029 C1028 1.367 . S
C1029 C1031 1.433 . S
C1030 C1026 1.350 . S
C1030 C1027 1.463 1_554 S
C1030 N1034 1.427 . S
C1031 H1021 0.929 . S
C1031 C1029 1.433 . S
C1031 N1034 1.384 . S
C1032 H1023 0.929 . S
C1032 C1024 1.378 . S
C1032 C1027 1.350 . S
C1033 H1020 0.929 . S
C1033 C1025 1.433 . S
C1033 N1035 1.384 . S
N1034 C1030 1.427 . S
N1034 C1031 1.384 . S
N1035 C1027 1.427 . S
N1035 C1033 1.384 . S
H1036 C1042 0.930 . S
H1037 C1046 0.930 . S
H1038 C1051 0.929 . S
H1039 C1049 0.929 . S
H1040 C1044 0.929 . S
H1041 C1050 0.929 . S
C1042 H1036 0.930 . S
C1042 C1043 1.367 . S
C1042 C1050 1.378 . S
C1043 C1042 1.367 . S
C1043 C1051 1.433 . S
C1044 H1040 0.929 . S
C1044 C1046 1.378 . S
C1044 C1048 1.350 . S
C1045 C1048 1.463 . S
C1045 C1050 1.350 . S
C1045 N1053 1.427 . S
C1046 H1037 0.930 . S
C1046 C1044 1.378 . S
C1046 C1047 1.367 . S
C1047 C1046 1.367 . S
C1047 C1049 1.433 . S
C1048 C1044 1.350 . S
C1048 C1045 1.463 . S
C1048 N1052 1.427 . S
C1049 H1039 0.929 . S
C1049 C1047 1.433 . S
C1049 N1052 1.384 . S
C1050 H1041 0.929 . S
C1050 C1042 1.378 . S
C1050 C1045 1.350 . S
C1051 H1038 0.929 . S
C1051 C1043 1.433 . S
C1051 N1053 1.384 . S
N1052 C1048 1.427 . S
N1052 C1049 1.384 . S
N1053 C1045 1.427 . S
N1053 C1051 1.384 . S
H1054 C1060 0.930 . S
H1055 C1064 0.930 . S
H1056 C1069 0.929 . S
H1057 C1067 0.929 . S
H1058 C1062 0.929 . S
H1059 C1068 0.929 . S
C1060 H1054 0.930 . S
C1060 C1061 1.367 . S
C1060 C1068 1.378 . S
C1061 C1060 1.367 . S
C1061 C1069 1.433 . S
C1062 H1058 0.929 . S
C1062 C1064 1.378 . S
C1062 C1066 1.350 . S
C1063 C1066 1.463 . S
C1063 C1068 1.350 . S
C1063 N1071 1.427 . S
C1064 H1055 0.930 . S
C1064 C1062 1.378 . S
C1064 C1065 1.367 . S
C1065 C1064 1.367 . S
C1065 C1067 1.433 . S
C1066 C1062 1.350 . S
C1066 C1063 1.463 . S
C1066 N1070 1.427 . S
C1067 H1057 0.929 . S
C1067 C1065 1.433 . S
C1067 N1070 1.384 . S
C1068 H1059 0.929 . S
C1068 C1060 1.378 . S
C1068 C1063 1.350 . S
C1069 H1056 0.929 . S
C1069 C1061 1.433 . S
C1069 N1071 1.384 . S
N1070 C1066 1.427 . S
N1070 C1067 1.384 . S
N1071 C1063 1.427 . S
N1071 C1069 1.384 . S
H1072 C1078 0.930 . S
H1073 C1082 0.930 . S
H1074 C1087 0.929 1_545 S
H1075 C1085 0.929 1_565 S
H1076 C1080 0.929 . S
H1077 C1086 0.929 . S
C1078 H1072 0.930 . S
C1078 C1079 1.367 . S
C1078 C1086 1.378 . S
C1079 C1078 1.367 . S
C1079 C1087 1.433 . S
C1080 H1076 0.929 . S
C1080 C1082 1.378 . S
C1080 C1084 1.350 . S
C1081 C1084 1.463 1_665 S
C1081 C1086 1.350 . S
C1081 N1089 1.427 1_565 S
C1082 H1073 0.930 . S
C1082 C1080 1.378 . S
C1082 C1083 1.367 . S
C1083 C1082 1.367 . S
C1083 C1085 1.433 . S
C1084 C1080 1.350 . S
C1084 C1081 1.463 1_445 S
C1084 N1088 1.427 1_545 S
C1085 H1075 0.929 1_545 S
C1085 C1083 1.433 . S
C1085 N1088 1.384 1_545 S
C1086 H1077 0.929 . S
C1086 C1078 1.378 . S
C1086 C1081 1.350 . S
C1087 H1074 0.929 1_565 S
C1087 C1079 1.433 . S
C1087 N1089 1.384 1_565 S
N1088 C1084 1.427 1_565 S
N1088 C1085 1.384 1_565 S
N1089 C1081 1.427 1_545 S
N1089 C1087 1.384 1_545 S
H1090 C1096 0.930 . S
H1091 C1100 0.930 . S
H1092 C1105 0.929 . S
H1093 C1103 0.929 . S
H1094 C1098 0.929 1_545 S
H1095 C1104 0.929 1_565 S
C1096 H1090 0.930 . S
C1096 C1097 1.367 . S
C1096 C1104 1.378 . S
C1097 C1096 1.367 . S
C1097 C1105 1.433 . S
C1098 H1094 0.929 1_565 S
C1098 C1100 1.378 . S
C1098 C1102 1.350 . S
C1099 C1102 1.463 1_645 S
C1099 C1104 1.350 . S
C1099 N1107 1.427 . S
C1100 H1091 0.930 . S
C1100 C1098 1.378 . S
C1100 C1101 1.367 . S
C1101 C1100 1.367 . S
C1101 C1103 1.433 . S
C1102 C1098 1.350 . S
C1102 C1099 1.463 1_465 S
C1102 N1106 1.427 . S
C1103 H1093 0.929 . S
C1103 C1101 1.433 . S
C1103 N1106 1.384 . S
C1104 H1095 0.929 1_545 S
C1104 C1096 1.378 . S
C1104 C1099 1.350 . S
C1105 H1092 0.929 . S
C1105 C1097 1.433 . S
C1105 N1107 1.384 . S
N1106 C1102 1.427 . S
N1106 C1103 1.384 . S
N1107 C1099 1.427 . S
N1107 C1105 1.384 . S
H1108 C1114 0.930 . S
H1109 C1118 0.930 . S
H1110 C1123 0.929 . S
H1111 C1121 0.929 . S
H1112 C1116 0.929 . S
H1113 C1122 0.929 . S
C1114 H1108 0.930 . S
C1114 C1115 1.367 1_565 S
C1114 C1122 1.378 . S
C1115 C1114 1.367 1_545 S
C1115 C1123 1.433 . S
C1116 H1112 0.929 . S
C1116 C1118 1.378 . S
C1116 C1120 1.350 1_545 S
C1117 C1120 1.463 1_445 S
C1117 C1122 1.350 1_545 S
C1117 N1125 1.427 . S
C1118 H1109 0.930 . S
C1118 C1116 1.378 . S
C1118 C1119 1.367 1_545 S
C1119 C1118 1.367 1_565 S
C1119 C1121 1.433 . S
C1120 C1116 1.350 1_565 S
C1120 C1117 1.463 1_665 S
C1120 N1124 1.427 . S
C1121 H1111 0.929 . S
C1121 C1119 1.433 . S
C1121 N1124 1.384 . S
C1122 H1113 0.929 . S
C1122 C1114 1.378 . S
C1122 C1117 1.350 1_565 S
C1123 H1110 0.929 . S
C1123 C1115 1.433 . S
C1123 N1125 1.384 . S
N1124 C1120 1.427 . S
N1124 C1121 1.384 . S
N1125 C1117 1.427 . S
N1125 C1123 1.384 . S
H1126 C1132 0.930 . S
H1127 C1136 0.930 . S
H1128 C1141 0.929 . S
H1129 C1139 0.929 . S
H1130 C1134 0.929 . S
H1131 C1140 0.929 . S
C1132 H1126 0.930 . S
C1132 C1133 1.367 1_565 S
C1132 C1140 1.378 . S
C1133 C1132 1.367 1_545 S
C1133 C1141 1.433 . S
C1134 H1130 0.929 . S
C1134 C1136 1.378 . S
C1134 C1138 1.350 1_545 S
C1135 C1138 1.463 1_645 S
C1135 C1140 1.350 1_545 S
C1135 N1143 1.427 . S
C1136 H1127 0.930 . S
C1136 C1134 1.378 . S
C1136 C1137 1.367 1_545 S
C1137 C1136 1.367 1_565 S
C1137 C1139 1.433 . S
C1138 C1134 1.350 1_565 S
C1138 C1135 1.463 1_465 S
C1138 N1142 1.427 . S
C1139 H1129 0.929 . S
C1139 C1137 1.433 . S
C1139 N1142 1.384 . S
C1140 H1131 0.929 . S
C1140 C1132 1.378 . S
C1140 C1135 1.350 1_565 S
C1141 H1128 0.929 . S
C1141 C1133 1.433 . S
C1141 N1143 1.384 . S
N1142 C1138 1.427 . S
N1142 C1139 1.384 . S
N1143 C1135 1.427 . S
N1143 C1141 1.384 . S
H1144 C1150 0.930 . S
H1145 C1154 0.930 . S
H1146 C1159 0.929 . S
H1147 C1157 0.929 . S
H1148 C1152 0.929 . S
H1149 C1158 0.929 . S
C1150 H1144 0.930 . S
C1150 C1151 1.367 . S
C1150 C1158 1.378 . S
C1151 C1150 1.367 . S
C1151 C1159 1.433 . S
C1152 H1148 0.929 . S
C1152 C1154 1.378 . S
C1152 C1156 1.350 . S
C1153 C1156 1.463 . S
C1153 C1158 1.350 . S
C1153 N1161 1.427 . S
C1154 H1145 0.930 . S
C1154 C1152 1.378 . S
C1154 C1155 1.367 . S
C1155 C1154 1.367 . S
C1155 C1157 1.433 . S
C1156 C1152 1.350 . S
C1156 C1153 1.463 . S
C1156 N1160 1.427 . S
C1157 H1147 0.929 . S
C1157 C1155 1.433 . S
C1157 N1160 1.384 . S
C1158 H1149 0.929 . S
C1158 C1150 1.378 . S
C1158 C1153 1.350 . S
C1159 H1146 0.929 . S
C1159 C1151 1.433 . S
C1159 N1161 1.384 . S
N1160 C1156 1.427 . S
N1160 C1157 1.384 . S
N1161 C1153 1.427 . S
N1161 C1159 1.384 . S
H1162 C1168 0.930 . S
H1163 C1172 0.930 . S
H1164 C1177 0.929 . S
H1165 C1175 0.929 . S
H1166 C1170 0.929 . S
H1167 C1176 0.929 . S
C1168 H1162 0.930 . S
C1168 C1169 1.367 . S
C1168 C1176 1.378 . S
C1169 C1168 1.367 . S
C1169 C1177 1.433 . S
C1170 H1166 0.929 . S
C1170 C1172 1.378 . S
C1170 C1174 1.350 . S
C1171 C1174 1.463 . S
C1171 C1176 1.350 . S
C1171 N1179 1.427 . S
C1172 H1163 0.930 . S
C1172 C1170 1.378 . S
C1172 C1173 1.367 . S
C1173 C1172 1.367 . S
C1173 C1175 1.433 . S
C1174 C1170 1.350 . S
C1174 C1171 1.463 . S
C1174 N1178 1.427 . S
C1175 H1165 0.929 . S
C1175 C1173 1.433 . S
C1175 N1178 1.384 . S
C1176 H1167 0.929 . S
C1176 C1168 1.378 . S
C1176 C1171 1.350 . S
C1177 H1164 0.929 . S
C1177 C1169 1.433 . S
C1177 N1179 1.384 . S
N1178 C1174 1.427 . S
N1178 C1175 1.384 . S
N1179 C1171 1.427 . S
N1179 C1177 1.384 . S
H1180 C1186 0.930 . S
H1181 C1190 0.930 . S
H1182 C1195 0.929 . S
H1183 C1193 0.929 . S
H1184 C1188 0.929 . S
H1185 C1194 0.929 . S
C1186 H1180 0.930 . S
C1186 C1187 1.367 . S
C1186 C1194 1.378 . S
C1187 C1186 1.367 . S
C1187 C1195 1.433 . S
C1188 H1184 0.929 . S
C1188 C1190 1.378 . S
C1188 C1192 1.350 . S
C1189 C1192 1.463 . S
C1189 C1194 1.350 . S
C1189 N1197 1.427 . S
C1190 H1181 0.930 . S
C1190 C1188 1.378 . S
C1190 C1191 1.367 . S
C1191 C1190 1.367 . S
C1191 C1193 1.433 . S
C1192 C1188 1.350 . S
C1192 C1189 1.463 . S
C1192 N1196 1.427 . S
C1193 H1183 0.929 . S
C1193 C1191 1.433 . S
C1193 N1196 1.384 . S
C1194 H1185 0.929 . S
C1194 C1186 1.378 . S
C1194 C1189 1.350 . S
C1195 H1182 0.929 . S
C1195 C1187 1.433 . S
C1195 N1197 1.384 . S
N1196 C1192 1.427 . S
N1196 C1193 1.384 . S
N1197 C1189 1.427 . S
N1197 C1195 1.384 . S
H1198 C1204 0.930 . S
H1199 C1208 0.930 . S
H1200 C1213 0.929 . S
H1201 C1211 0.929 . S
H1202 C1206 0.929 . S
H1203 C1212 0.929 . S
C1204 H1198 0.930 . S
C1204 C1205 1.367 . S
C1204 C1212 1.378 . S
C1205 C1204 1.367 . S
C1205 C1213 1.433 . S
C1206 H1202 0.929 . S
C1206 C1208 1.378 . S
C1206 C1210 1.350 . S
C1207 C1210 1.463 . S
C1207 C1212 1.350 . S
C1207 N1215 1.427 . S
C1208 H1199 0.930 . S
C1208 C1206 1.378 . S
C1208 C1209 1.367 . S
C1209 C1208 1.367 . S
C1209 C1211 1.433 . S
C1210 C1206 1.350 . S
C1210 C1207 1.463 . S
C1210 N1214 1.427 . S
C1211 H1201 0.929 . S
C1211 C1209 1.433 . S
C1211 N1214 1.384 . S
C1212 H1203 0.929 . S
C1212 C1204 1.378 . S
C1212 C1207 1.350 . S
C1213 H1200 0.929 . S
C1213 C1205 1.433 . S
C1213 N1215 1.384 . S
N1214 C1210 1.427 . S
N1214 C1211 1.384 . S
N1215 C1207 1.427 . S
N1215 C1213 1.384 . S
H1216 C1222 0.930 . S
H1217 C1226 0.930 . S
H1218 C1231 0.929 . S
H1219 C1229 0.929 . S
H1220 C1224 0.929 . S
H1221 C1230 0.929 . S
C1222 H1216 0.930 . S
C1222 C1223 1.367 . S
C1222 C1230 1.378 . S
C1223 C1222 1.367 . S
C1223 C1231 1.433 . S
C1224 H1220 0.929 . S
C1224 C1226 1.378 . S
C1224 C1228 1.350 . S
C1225 C1228 1.463 . S
C1225 C1230 1.350 . S
C1225 N1233 1.427 . S
C1226 H1217 0.930 . S
C1226 C1224 1.378 . S
C1226 C1227 1.367 . S
C1227 C1226 1.367 . S
C1227 C1229 1.433 . S
C1228 C1224 1.350 . S
C1228 C1225 1.463 . S
C1228 N1232 1.427 . S
C1229 H1219 0.929 . S
C1229 C1227 1.433 . S
C1229 N1232 1.384 . S
C1230 H1221 0.929 . S
C1230 C1222 1.378 . S
C1230 C1225 1.350 . S
C1231 H1218 0.929 . S
C1231 C1223 1.433 . S
C1231 N1233 1.384 . S
N1232 C1228 1.427 . S
N1232 C1229 1.384 . S
N1233 C1225 1.427 . S
N1233 C1231 1.384 . S
H1234 C1240 0.930 . S
H1235 C1244 0.930 . S
H1236 C1249 0.929 . S
H1237 C1247 0.929 . S
H1238 C1242 0.929 . S
H1239 C1248 0.929 . S
C1240 H1234 0.930 . S
C1240 C1241 1.367 . S
C1240 C1248 1.378 . S
C1241 C1240 1.367 . S
C1241 C1249 1.433 . S
C1242 H1238 0.929 . S
C1242 C1244 1.378 . S
C1242 C1246 1.350 . S
C1243 C1246 1.463 . S
C1243 C1248 1.350 . S
C1243 N1251 1.427 . S
C1244 H1235 0.930 . S
C1244 C1242 1.378 . S
C1244 C1245 1.367 . S
C1245 C1244 1.367 . S
C1245 C1247 1.433 . S
C1246 C1242 1.350 . S
C1246 C1243 1.463 . S
C1246 N1250 1.427 . S
C1247 H1237 0.929 . S
C1247 C1245 1.433 . S
C1247 N1250 1.384 . S
C1248 H1239 0.929 . S
C1248 C1240 1.378 . S
C1248 C1243 1.350 . S
C1249 H1236 0.929 . S
C1249 C1241 1.433 . S
C1249 N1251 1.384 . S
N1250 C1246 1.427 . S
N1250 C1247 1.384 . S
N1251 C1243 1.427 . S
N1251 C1249 1.384 . S
H1252 C1258 0.930 . S
H1253 C1262 0.930 . S
H1254 C1267 0.929 . S
H1255 C1265 0.929 . S
H1256 C1260 0.929 . S
H1257 C1266 0.929 . S
C1258 H1252 0.930 . S
C1258 C1259 1.367 . S
C1258 C1266 1.378 . S
C1259 C1258 1.367 . S
C1259 C1267 1.433 . S
C1260 H1256 0.929 . S
C1260 C1262 1.378 . S
C1260 C1264 1.350 . S
C1261 C1264 1.463 . S
C1261 C1266 1.350 . S
C1261 N1269 1.427 . S
C1262 H1253 0.930 . S
C1262 C1260 1.378 . S
C1262 C1263 1.367 . S
C1263 C1262 1.367 . S
C1263 C1265 1.433 . S
C1264 C1260 1.350 . S
C1264 C1261 1.463 . S
C1264 N1268 1.427 . S
C1265 H1255 0.929 . S
C1265 C1263 1.433 . S
C1265 N1268 1.384 . S
C1266 H1257 0.929 . S
C1266 C1258 1.378 . S
C1266 C1261 1.350 . S
C1267 H1254 0.929 . S
C1267 C1259 1.433 . S
C1267 N1269 1.384 . S
N1268 C1264 1.427 . S
N1268 C1265 1.384 . S
N1269 C1261 1.427 . S
N1269 C1267 1.384 . S
H1270 C1276 0.930 . S
H1271 C1280 0.930 . S
H1272 C1285 0.929 . S
H1273 C1283 0.929 . S
H1274 C1278 0.929 . S
H1275 C1284 0.929 . S
C1276 H1270 0.930 . S
C1276 C1277 1.367 . S
C1276 C1284 1.378 . S
C1277 C1276 1.367 . S
C1277 C1285 1.433 . S
C1278 H1274 0.929 . S
C1278 C1280 1.378 . S
C1278 C1282 1.350 . S
C1279 C1282 1.463 . S
C1279 C1284 1.350 . S
C1279 N1287 1.427 . S
C1280 H1271 0.930 . S
C1280 C1278 1.378 . S
C1280 C1281 1.367 . S
C1281 C1280 1.367 . S
C1281 C1283 1.433 . S
C1282 C1278 1.350 . S
C1282 C1279 1.463 . S
C1282 N1286 1.427 . S
C1283 H1273 0.929 . S
C1283 C1281 1.433 . S
C1283 N1286 1.384 . S
C1284 H1275 0.929 . S
C1284 C1276 1.378 . S
C1284 C1279 1.350 . S
C1285 H1272 0.929 . S
C1285 C1277 1.433 . S
C1285 N1287 1.384 . S
N1286 C1282 1.427 . S
N1286 C1283 1.384 . S
N1287 C1279 1.427 . S
N1287 C1285 1.384 . S
H1288 C1294 0.930 . S
H1289 C1298 0.930 . S
H1290 C1303 0.929 . S
H1291 C1301 0.929 . S
H1292 C1296 0.929 . S
H1293 C1302 0.929 . S
C1294 H1288 0.930 . S
C1294 C1295 1.367 . S
C1294 C1302 1.378 . S
C1295 C1294 1.367 . S
C1295 C1303 1.433 . S
C1296 H1292 0.929 . S
C1296 C1298 1.378 . S
C1296 C1300 1.350 . S
C1297 C1300 1.463 . S
C1297 C1302 1.350 . S
C1297 N1305 1.427 . S
C1298 H1289 0.930 . S
C1298 C1296 1.378 . S
C1298 C1299 1.367 . S
C1299 C1298 1.367 . S
C1299 C1301 1.433 . S
C1300 C1296 1.350 . S
C1300 C1297 1.463 . S
C1300 N1304 1.427 . S
C1301 H1291 0.929 . S
C1301 C1299 1.433 . S
C1301 N1304 1.384 . S
C1302 H1293 0.929 . S
C1302 C1294 1.378 . S
C1302 C1297 1.350 . S
C1303 H1290 0.929 . S
C1303 C1295 1.433 . S
C1303 N1305 1.384 . S
N1304 C1300 1.427 . S
N1304 C1301 1.384 . S
N1305 C1297 1.427 . S
N1305 C1303 1.384 . S
H1306 C1312 0.930 . S
H1307 C1316 0.930 . S
H1308 C1321 0.929 . S
H1309 C1319 0.929 . S
H1310 C1314 0.929 . S
H1311 C1320 0.929 . S
C1312 H1306 0.930 . S
C1312 C1313 1.367 . S
C1312 C1320 1.378 . S
C1313 C1312 1.367 . S
C1313 C1321 1.433 . S
C1314 H1310 0.929 . S
C1314 C1316 1.378 . S
C1314 C1318 1.350 . S
C1315 C1318 1.463 . S
C1315 C1320 1.350 . S
C1315 N1323 1.427 . S
C1316 H1307 0.930 . S
C1316 C1314 1.378 . S
C1316 C1317 1.367 . S
C1317 C1316 1.367 . S
C1317 C1319 1.433 . S
C1318 C1314 1.350 . S
C1318 C1315 1.463 . S
C1318 N1322 1.427 . S
C1319 H1309 0.929 . S
C1319 C1317 1.433 . S
C1319 N1322 1.384 . S
C1320 H1311 0.929 . S
C1320 C1312 1.378 . S
C1320 C1315 1.350 . S
C1321 H1308 0.929 . S
C1321 C1313 1.433 . S
C1321 N1323 1.384 . S
N1322 C1318 1.427 . S
N1322 C1319 1.384 . S
N1323 C1315 1.427 . S
N1323 C1321 1.384 . S
H1324 C1330 0.930 . S
H1325 C1334 0.930 . S
H1326 C1339 0.929 . S
H1327 C1337 0.929 . S
H1328 C1332 0.929 . S
H1329 C1338 0.929 . S
C1330 H1324 0.930 . S
C1330 C1331 1.367 . S
C1330 C1338 1.378 . S
C1331 C1330 1.367 . S
C1331 C1339 1.433 . S
C1332 H1328 0.929 . S
C1332 C1334 1.378 . S
C1332 C1336 1.350 . S
C1333 C1336 1.463 . S
C1333 C1338 1.350 . S
C1333 N1341 1.427 . S
C1334 H1325 0.930 . S
C1334 C1332 1.378 . S
C1334 C1335 1.367 . S
C1335 C1334 1.367 . S
C1335 C1337 1.433 . S
C1336 C1332 1.350 . S
C1336 C1333 1.463 . S
C1336 N1340 1.427 . S
C1337 H1327 0.929 . S
C1337 C1335 1.433 . S
C1337 N1340 1.384 . S
C1338 H1329 0.929 . S
C1338 C1330 1.378 . S
C1338 C1333 1.350 . S
C1339 H1326 0.929 . S
C1339 C1331 1.433 . S
C1339 N1341 1.384 . S
N1340 C1336 1.427 . S
N1340 C1337 1.384 . S
N1341 C1333 1.427 . S
N1341 C1339 1.384 . S
H1342 C1348 0.930 . S
H1343 C1352 0.930 . S
H1344 C1357 0.929 . S
H1345 C1355 0.929 . S
H1346 C1350 0.929 . S
H1347 C1356 0.929 . S
C1348 H1342 0.930 . S
C1348 C1349 1.367 . S
C1348 C1356 1.378 . S
C1349 C1348 1.367 . S
C1349 C1357 1.433 . S
C1350 H1346 0.929 . S
C1350 C1352 1.378 . S
C1350 C1354 1.350 . S
C1351 C1354 1.463 . S
C1351 C1356 1.350 . S
C1351 N1359 1.427 . S
C1352 H1343 0.930 . S
C1352 C1350 1.378 . S
C1352 C1353 1.367 . S
C1353 C1352 1.367 . S
C1353 C1355 1.433 . S
C1354 C1350 1.350 . S
C1354 C1351 1.463 . S
C1354 N1358 1.427 . S
C1355 H1345 0.929 . S
C1355 C1353 1.433 . S
C1355 N1358 1.384 . S
C1356 H1347 0.929 . S
C1356 C1348 1.378 . S
C1356 C1351 1.350 . S
C1357 H1344 0.929 . S
C1357 C1349 1.433 . S
C1357 N1359 1.384 . S
N1358 C1354 1.427 . S
N1358 C1355 1.384 . S
N1359 C1351 1.427 . S
N1359 C1357 1.384 . S
H1360 C1366 0.930 . S
H1361 C1370 0.930 . S
H1362 C1375 0.926 1_565 S
H1363 C1373 0.929 . S
H1364 C1368 0.929 . S
H1365 C1374 0.929 . S
C1366 H1360 0.930 . S
C1366 C1367 1.367 . S
C1366 C1374 1.378 1_565 S
C1367 C1366 1.367 . S
C1367 C1375 1.427 1_565 S
C1368 H1364 0.929 . S
C1368 C1370 1.378 . S
C1368 C1372 1.350 . S
C1369 C1372 1.463 . S
C1369 C1374 1.350 . S
C1369 N1377 1.427 . S
C1370 H1361 0.930 . S
C1370 C1368 1.378 . S
C1370 C1371 1.367 . S
C1371 C1370 1.367 . S
C1371 C1373 1.433 . S
C1372 C1368 1.350 . S
C1372 C1369 1.463 . S
C1372 N1376 1.427 . S
C1373 H1363 0.929 . S
C1373 C1371 1.433 . S
C1373 N1376 1.384 . S
C1374 H1365 0.929 . S
C1374 C1366 1.378 1_545 S
C1374 C1369 1.350 . S
C1375 H1362 0.926 1_545 S
C1375 C1367 1.427 1_545 S
C1375 N1377 1.393 . S
N1376 C1372 1.427 . S
N1376 C1373 1.384 . S
N1377 C1369 1.427 . S
N1377 C1375 1.393 . S
H1378 C1384 0.930 . S
H1379 C1388 0.930 . S
H1380 C1393 0.929 . S
H1381 C1391 0.937 . S
H1382 C1386 0.929 . S
H1383 C1392 0.929 . S
C1384 H1378 0.930 . S
C1384 C1385 1.367 . S
C1384 C1392 1.378 . S
C1385 C1384 1.367 . S
C1385 C1393 1.433 . S
C1386 H1382 0.929 . S
C1386 C1388 1.378 1_565 S
C1386 C1390 1.350 . S
C1387 C1390 1.463 . S
C1387 C1392 1.350 . S
C1387 N1395 1.427 . S
C1388 H1379 0.930 . S
C1388 C1386 1.378 1_545 S
C1388 C1389 1.367 . S
C1389 C1388 1.367 . S
C1389 C1391 1.446 . S
C1390 C1386 1.350 . S
C1390 C1387 1.463 . S
C1390 N1394 1.427 . S
C1391 H1381 0.937 . S
C1391 C1389 1.446 . S
C1391 N1394 1.364 1_545 S
C1392 H1383 0.929 . S
C1392 C1384 1.378 . S
C1392 C1387 1.350 . S
C1393 H1380 0.929 . S
C1393 C1385 1.433 . S
C1393 N1395 1.384 . S
N1394 C1390 1.427 . S
N1394 C1391 1.364 1_565 S
N1395 C1387 1.427 . S
N1395 C1393 1.384 . S
H1396 C1402 0.930 . S
H1397 C1406 0.930 . S
H1398 C1411 0.929 . S
H1399 C1409 0.929 . S
H1400 C1404 0.929 . S
H1401 C1410 0.929 . S
C1402 H1396 0.930 . S
C1402 C1403 1.367 . S
C1402 C1410 1.378 1_545 S
C1403 C1402 1.367 . S
C1403 C1411 1.433 . S
C1404 H1400 0.929 . S
C1404 C1406 1.378 . S
C1404 C1408 1.350 . S
C1405 C1408 1.463 . S
C1405 C1410 1.350 . S
C1405 N1413 1.427 . S
C1406 H1397 0.930 . S
C1406 C1404 1.378 . S
C1406 C1407 1.367 . S
C1407 C1406 1.367 . S
C1407 C1409 1.433 . S
C1408 C1404 1.350 . S
C1408 C1405 1.463 . S
C1408 N1412 1.427 . S
C1409 H1399 0.929 . S
C1409 C1407 1.433 . S
C1409 N1412 1.384 . S
C1410 H1401 0.929 . S
C1410 C1402 1.378 1_565 S
C1410 C1405 1.350 . S
C1411 H1398 0.929 . S
C1411 C1403 1.433 . S
C1411 N1413 1.384 1_545 S
N1412 C1408 1.427 . S
N1412 C1409 1.384 . S
N1413 C1405 1.427 . S
N1413 C1411 1.384 1_565 S
H1414 C1420 0.930 . S
H1415 C1424 0.930 . S
H1416 C1429 0.929 . S
H1417 C1427 0.929 . S
H1418 C1422 0.929 . S
H1419 C1428 0.929 . S
C1420 H1414 0.930 . S
C1420 C1421 1.367 . S
C1420 C1428 1.378 1_565 S
C1421 C1420 1.367 . S
C1421 C1429 1.433 . S
C1422 H1418 0.929 . S
C1422 C1424 1.378 . S
C1422 C1426 1.350 . S
C1423 C1426 1.463 . S
C1423 C1428 1.350 . S
C1423 N1431 1.427 . S
C1424 H1415 0.930 . S
C1424 C1422 1.378 . S
C1424 C1425 1.367 . S
C1425 C1424 1.367 . S
C1425 C1427 1.433 . S
C1426 C1422 1.350 . S
C1426 C1423 1.463 . S
C1426 N1430 1.427 . S
C1427 H1417 0.929 . S
C1427 C1425 1.433 . S
C1427 N1430 1.384 . S
C1428 H1419 0.929 . S
C1428 C1420 1.378 1_545 S
C1428 C1423 1.350 . S
C1429 H1416 0.929 . S
C1429 C1421 1.433 . S
C1429 N1431 1.384 1_565 S
N1430 C1426 1.427 . S
N1430 C1427 1.384 . S
N1431 C1423 1.427 . S
N1431 C1429 1.384 1_545 S
H1432 C1438 0.930 . S
H1433 C1442 0.930 . S
H1434 C1447 0.929 . S
H1435 C1445 0.933 . S
H1436 C1440 0.929 . S
H1437 C1446 0.929 . S
C1438 H1432 0.930 . S
C1438 C1439 1.367 . S
C1438 C1446 1.378 . S
C1439 C1438 1.367 . S
C1439 C1447 1.433 . S
C1440 H1436 0.929 . S
C1440 C1442 1.378 1_565 S
C1440 C1444 1.350 . S
C1441 C1444 1.463 . S
C1441 C1446 1.350 . S
C1441 N1449 1.427 . S
C1442 H1433 0.930 . S
C1442 C1440 1.378 1_545 S
C1442 C1443 1.367 . S
C1443 C1442 1.367 . S
C1443 C1445 1.440 . S
C1444 C1440 1.350 . S
C1444 C1441 1.463 . S
C1444 N1448 1.427 . S
C1445 H1435 0.933 . S
C1445 C1443 1.440 . S
C1445 N1448 1.373 1_545 S
C1446 H1437 0.929 . S
C1446 C1438 1.378 . S
C1446 C1441 1.350 . S
C1447 H1434 0.929 . S
C1447 C1439 1.433 . S
C1447 N1449 1.384 . S
N1448 C1444 1.427 . S
N1448 C1445 1.373 1_565 S
N1449 C1441 1.427 . S
N1449 C1447 1.384 . S
H1450 C1456 0.930 . S
H1451 C1460 0.933 . S
H1452 C1465 0.929 . S
H1453 C1463 0.929 . S
H1454 C1458 0.929 . S
H1455 C1464 0.929 . S
C1456 H1450 0.930 . S
C1456 C1457 1.367 . S
C1456 C1464 1.378 . S
C1457 C1456 1.367 . S
C1457 C1465 1.433 . S
C1458 H1454 0.929 . S
C1458 C1460 1.370 1_545 S
C1458 C1462 1.350 . S
C1459 C1462 1.463 . S
C1459 C1464 1.350 . S
C1459 N1467 1.427 . S
C1460 H1451 0.933 . S
C1460 C1458 1.370 1_565 S
C1460 C1461 1.372 . S
C1461 C1460 1.372 . S
C1461 C1463 1.433 . S
C1462 C1458 1.350 . S
C1462 C1459 1.463 . S
C1462 N1466 1.427 . S
C1463 H1453 0.929 . S
C1463 C1461 1.433 . S
C1463 N1466 1.384 1_565 S
C1464 H1455 0.929 . S
C1464 C1456 1.378 . S
C1464 C1459 1.350 . S
C1465 H1452 0.929 . S
C1465 C1457 1.433 . S
C1465 N1467 1.384 . S
N1466 C1462 1.427 . S
N1466 C1463 1.384 1_545 S
N1467 C1459 1.427 . S
N1467 C1465 1.384 . S
H1468 C1474 0.930 . S
H1469 C1478 0.930 . S
H1470 C1483 0.929 . S
H1471 C1481 0.929 . S
H1472 C1476 0.929 . S
H1473 C1482 0.929 . S
C1474 H1468 0.930 . S
C1474 C1475 1.367 . S
C1474 C1482 1.378 1_565 S
C1475 C1474 1.367 . S
C1475 C1483 1.433 . S
C1476 H1472 0.929 . S
C1476 C1478 1.378 . S
C1476 C1480 1.350 . S
C1477 C1480 1.463 . S
C1477 C1482 1.350 . S
C1477 N1485 1.427 . S
C1478 H1469 0.930 . S
C1478 C1476 1.378 . S
C1478 C1479 1.367 . S
C1479 C1478 1.367 . S
C1479 C1481 1.433 . S
C1480 C1476 1.350 . S
C1480 C1477 1.463 . S
C1480 N1484 1.427 . S
C1481 H1471 0.929 . S
C1481 C1479 1.433 . S
C1481 N1484 1.384 . S
C1482 H1473 0.929 . S
C1482 C1474 1.378 1_545 S
C1482 C1477 1.350 . S
C1483 H1470 0.929 . S
C1483 C1475 1.433 . S
C1483 N1485 1.384 1_565 S
N1484 C1480 1.427 . S
N1484 C1481 1.384 . S
N1485 C1477 1.427 . S
N1485 C1483 1.384 1_545 S
H1486 C1492 0.930 . S
H1487 C1496 0.930 . S
H1488 C1501 0.929 . S
H1489 C1499 0.929 . S
H1490 C1494 0.929 . S
H1491 C1500 0.929 . S
C1492 H1486 0.930 . S
C1492 C1493 1.367 . S
C1492 C1500 1.378 . S
C1493 C1492 1.367 . S
C1493 C1501 1.433 . S
C1494 H1490 0.929 . S
C1494 C1496 1.378 1_565 S
C1494 C1498 1.350 . S
C1495 C1498 1.463 . S
C1495 C1500 1.350 . S
C1495 N1503 1.427 . S
C1496 H1487 0.930 . S
C1496 C1494 1.378 1_545 S
C1496 C1497 1.367 . S
C1497 C1496 1.367 . S
C1497 C1499 1.433 . S
C1498 C1494 1.350 . S
C1498 C1495 1.463 . S
C1498 N1502 1.427 . S
C1499 H1489 0.929 . S
C1499 C1497 1.433 . S
C1499 N1502 1.383 1_545 S
C1500 H1491 0.929 . S
C1500 C1492 1.378 . S
C1500 C1495 1.350 . S
C1501 H1488 0.929 . S
C1501 C1493 1.433 . S
C1501 N1503 1.384 . S
N1502 C1498 1.427 . S
N1502 C1499 1.383 1_565 S
N1503 C1495 1.427 . S
N1503 C1501 1.384 . S
C647 C19 1.554 . S
C651 C379 1.547 . S
C665 C59 1.554 . S
C669 C339 1.547 . S
C683 C459 1.554 . S
C687 C99 1.548 . S
C701 C139 1.548 . S
C705 C419 1.553 . S
C719 C530 1.547 . S
C723 C170 1.554 . S
C737 C490 1.554 . S
C741 C210 1.547 . S
C755 C610 1.554 . S
C759 C250 1.547 . S
C773 C290 1.554 . S
C777 C570 1.547 . S
C791 C98 1.686 . S
C795 C18 1.681 . S
C809 C138 1.686 . S
C813 C58 1.681 . S
C827 C249 1.681 . S
C831 C169 1.686 . S
C845 C209 1.686 . S
C849 C289 1.680 . S
C863 C418 1.682 . S
C867 C338 1.681 . S
C881 C458 1.679 . S
C885 C378 1.685 . S
C899 C489 1.684 . S
C903 C569 1.680 . S
C917 C529 1.682 . S
C921 C609 1.686 . S
C935 C218 1.509 . S
C939 C9 1.523 . S
C953 C178 1.508 . S
C957 C49 1.524 . S
C971 C89 1.515 . S
C975 C298 1.517 . S
C989 C258 1.513 . S
C993 C129 1.519 . S
C1007 C329 1.512 . S
C1011 C538 1.519 . S
C1025 C498 1.508 . S
C1029 C369 1.524 . S
C1043 C409 1.513 . S
C1047 C618 1.519 . S
C1061 C578 1.508 . S
C1065 C449 1.523 . S
C1079 C50 1.606 . S
C1083 C10 1.612 . S
C1097 C130 1.615 . S
C1101 C90 1.608 . S
C1115 C219 1.618 . S
C1119 C179 1.615 . S
C1133 C259 1.616 . S
C1137 C299 1.610 . S
C1151 C370 1.613 . S
C1155 C330 1.617 . S
C1169 C450 1.604 . S
C1173 C410 1.606 . S
C1187 C499 1.618 . S
C1191 C539 1.615 . S
C1205 C579 1.616 . S
C1209 C619 1.610 . S
C1223 C6 1.607 . S
C1227 C15 1.607 . S
C1241 C46 1.606 . S
C1245 C55 1.606 . S
C1259 C86 1.604 . S
C1263 C95 1.604 . S
C1277 C135 1.607 . S
C1281 C126 1.607 . S
C1295 C175 1.602 . S
C1299 C166 1.602 . S
C1313 C206 1.605 . S
C1317 C215 1.605 . S
C1331 C255 1.609 . S
C1335 C246 1.609 . S
C1349 C295 1.601 . S
C1353 C286 1.601 . S
C1367 C335 1.601 . S
C1371 C326 1.601 . S
C1385 C366 1.602 . S
C1389 C375 1.602 . S
C1403 C415 1.606 . S
C1407 C406 1.606 . S
C1421 C455 1.604 . S
C1425 C446 1.604 . S
C1439 C495 1.602 . S
C1443 C486 1.602 . S
C1457 C535 1.609 . S
C1461 C526 1.609 . S
C1475 C566 1.604 . S
C1479 C575 1.604 . S
C1493 C615 1.602 . S
C1497 C606 1.602 . S
