# Generated by pormake.
# Topology umu, (4)-cn, num edge types: 1
# Building blocks:
#     Node 0, Type 0, BuildingBlock: QUQFOY_clean_sbu_1, # of connection points: 4
#     Node 1, Type 0, BuildingBlock: QUQFOY_clean_sbu_1, # of connection points: 4
#     Node 2, Type 0, BuildingBlock: QUQFOY_clean_sbu_1, # of connection points: 4
#     Node 3, Type 0, BuildingBlock: QUQFOY_clean_sbu_1, # of connection points: 4
#     Node 4, Type 0, BuildingBlock: QUQFOY_clean_sbu_1, # of connection points: 4
#     Node 5, Type 0, BuildingBlock: QUQFOY_clean_sbu_1, # of connection points: 4
#     Node 6, Type 0, BuildingBlock: QUQFOY_clean_sbu_1, # of connection points: 4
#     Node 7, Type 0, BuildingBlock: QUQFOY_clean_sbu_1, # of connection points: 4
#     Node 8, Type 0, BuildingBlock: QUQFOY_clean_sbu_1, # of connection points: 4
#     Node 9, Type 0, BuildingBlock: QUQFOY_clean_sbu_1, # of connection points: 4
#     Node 10, Type 0, BuildingBlock: QUQFOY_clean_sbu_1, # of connection points: 4
#     Node 11, Type 0, BuildingBlock: QUQFOY_clean_sbu_1, # of connection points: 4
#     Node 12, Type 0, BuildingBlock: QUQFOY_clean_sbu_1, # of connection points: 4
#     Node 13, Type 0, BuildingBlock: QUQFOY_clean_sbu_1, # of connection points: 4
#     Node 14, Type 0, BuildingBlock: QUQFOY_clean_sbu_1, # of connection points: 4
#     Node 15, Type 0, BuildingBlock: QUQFOY_clean_sbu_1, # of connection points: 4
#     Node 16, Type 0, BuildingBlock: QUQFOY_clean_sbu_1, # of connection points: 4
#     Node 17, Type 0, BuildingBlock: QUQFOY_clean_sbu_1, # of connection points: 4
#     Node 18, Type 0, BuildingBlock: QUQFOY_clean_sbu_1, # of connection points: 4
#     Node 19, Type 0, BuildingBlock: QUQFOY_clean_sbu_1, # of connection points: 4
#     Node 20, Type 0, BuildingBlock: QUQFOY_clean_sbu_1, # of connection points: 4
#     Node 21, Type 0, BuildingBlock: QUQFOY_clean_sbu_1, # of connection points: 4
#     Node 22, Type 0, BuildingBlock: QUQFOY_clean_sbu_1, # of connection points: 4
#     Node 23, Type 0, BuildingBlock: QUQFOY_clean_sbu_1, # of connection points: 4
#     Node 24, Type 0, BuildingBlock: QUQFOY_clean_sbu_1, # of connection points: 4
#     Node 25, Type 0, BuildingBlock: QUQFOY_clean_sbu_1, # of connection points: 4
#     Node 26, Type 0, BuildingBlock: QUQFOY_clean_sbu_1, # of connection points: 4
#     Node 27, Type 0, BuildingBlock: QUQFOY_clean_sbu_1, # of connection points: 4
#     Node 28, Type 0, BuildingBlock: QUQFOY_clean_sbu_1, # of connection points: 4
#     Node 29, Type 0, BuildingBlock: QUQFOY_clean_sbu_1, # of connection points: 4
#     Node 30, Type 0, BuildingBlock: QUQFOY_clean_sbu_1, # of connection points: 4
#     Node 31, Type 0, BuildingBlock: QUQFOY_clean_sbu_1, # of connection points: 4
#     Edge 32, Type (0, 0), BuildingBlock: TEMPAE_clean_linker_10, # of connection points: 2
#     Edge 33, Type (0, 0), BuildingBlock: TEMPAE_clean_linker_10, # of connection points: 2
#     Edge 34, Type (0, 0), BuildingBlock: TEMPAE_clean_linker_10, # of connection points: 2
#     Edge 35, Type (0, 0), BuildingBlock: TEMPAE_clean_linker_10, # of connection points: 2
#     Edge 36, Type (0, 0), BuildingBlock: TEMPAE_clean_linker_10, # of connection points: 2
#     Edge 37, Type (0, 0), BuildingBlock: TEMPAE_clean_linker_10, # of connection points: 2
#     Edge 38, Type (0, 0), BuildingBlock: TEMPAE_clean_linker_10, # of connection points: 2
#     Edge 39, Type (0, 0), BuildingBlock: TEMPAE_clean_linker_10, # of connection points: 2
#     Edge 40, Type (0, 0), BuildingBlock: TEMPAE_clean_linker_10, # of connection points: 2
#     Edge 41, Type (0, 0), BuildingBlock: TEMPAE_clean_linker_10, # of connection points: 2
#     Edge 42, Type (0, 0), BuildingBlock: TEMPAE_clean_linker_10, # of connection points: 2
#     Edge 43, Type (0, 0), BuildingBlock: TEMPAE_clean_linker_10, # of connection points: 2
#     Edge 44, Type (0, 0), BuildingBlock: TEMPAE_clean_linker_10, # of connection points: 2
#     Edge 45, Type (0, 0), BuildingBlock: TEMPAE_clean_linker_10, # of connection points: 2
#     Edge 46, Type (0, 0), BuildingBlock: TEMPAE_clean_linker_10, # of connection points: 2
#     Edge 47, Type (0, 0), BuildingBlock: TEMPAE_clean_linker_10, # of connection points: 2
#     Edge 48, Type (0, 0), BuildingBlock: TEMPAE_clean_linker_10, # of connection points: 2
#     Edge 49, Type (0, 0), BuildingBlock: TEMPAE_clean_linker_10, # of connection points: 2
#     Edge 50, Type (0, 0), BuildingBlock: TEMPAE_clean_linker_10, # of connection points: 2
#     Edge 51, Type (0, 0), BuildingBlock: TEMPAE_clean_linker_10, # of connection points: 2
#     Edge 52, Type (0, 0), BuildingBlock: TEMPAE_clean_linker_10, # of connection points: 2
#     Edge 53, Type (0, 0), BuildingBlock: TEMPAE_clean_linker_10, # of connection points: 2
#     Edge 54, Type (0, 0), BuildingBlock: TEMPAE_clean_linker_10, # of connection points: 2
#     Edge 55, Type (0, 0), BuildingBlock: TEMPAE_clean_linker_10, # of connection points: 2
#     Edge 56, Type (0, 0), BuildingBlock: TEMPAE_clean_linker_10, # of connection points: 2
#     Edge 57, Type (0, 0), BuildingBlock: TEMPAE_clean_linker_10, # of connection points: 2
#     Edge 58, Type (0, 0), BuildingBlock: TEMPAE_clean_linker_10, # of connection points: 2
#     Edge 59, Type (0, 0), BuildingBlock: TEMPAE_clean_linker_10, # of connection points: 2
#     Edge 60, Type (0, 0), BuildingBlock: TEMPAE_clean_linker_10, # of connection points: 2
#     Edge 61, Type (0, 0), BuildingBlock: TEMPAE_clean_linker_10, # of connection points: 2
#     Edge 62, Type (0, 0), BuildingBlock: TEMPAE_clean_linker_10, # of connection points: 2
#     Edge 63, Type (0, 0), BuildingBlock: TEMPAE_clean_linker_10, # of connection points: 2
#     Edge 64, Type (0, 0), BuildingBlock: TEMPAE_clean_linker_10, # of connection points: 2
#     Edge 65, Type (0, 0), BuildingBlock: TEMPAE_clean_linker_10, # of connection points: 2
#     Edge 66, Type (0, 0), BuildingBlock: TEMPAE_clean_linker_10, # of connection points: 2
#     Edge 67, Type (0, 0), BuildingBlock: TEMPAE_clean_linker_10, # of connection points: 2
#     Edge 68, Type (0, 0), BuildingBlock: TEMPAE_clean_linker_10, # of connection points: 2
#     Edge 69, Type (0, 0), BuildingBlock: TEMPAE_clean_linker_10, # of connection points: 2
#     Edge 70, Type (0, 0), BuildingBlock: TEMPAE_clean_linker_10, # of connection points: 2
#     Edge 71, Type (0, 0), BuildingBlock: TEMPAE_clean_linker_10, # of connection points: 2
#     Edge 72, Type (0, 0), BuildingBlock: TEMPAE_clean_linker_10, # of connection points: 2
#     Edge 73, Type (0, 0), BuildingBlock: TEMPAE_clean_linker_10, # of connection points: 2
#     Edge 74, Type (0, 0), BuildingBlock: TEMPAE_clean_linker_10, # of connection points: 2
#     Edge 75, Type (0, 0), BuildingBlock: TEMPAE_clean_linker_10, # of connection points: 2
#     Edge 76, Type (0, 0), BuildingBlock: TEMPAE_clean_linker_10, # of connection points: 2
#     Edge 77, Type (0, 0), BuildingBlock: TEMPAE_clean_linker_10, # of connection points: 2
#     Edge 78, Type (0, 0), BuildingBlock: TEMPAE_clean_linker_10, # of connection points: 2
#     Edge 79, Type (0, 0), BuildingBlock: TEMPAE_clean_linker_10, # of connection points: 2
#     Edge 80, Type (0, 0), BuildingBlock: TEMPAE_clean_linker_10, # of connection points: 2
#     Edge 81, Type (0, 0), BuildingBlock: TEMPAE_clean_linker_10, # of connection points: 2
#     Edge 82, Type (0, 0), BuildingBlock: TEMPAE_clean_linker_10, # of connection points: 2
#     Edge 83, Type (0, 0), BuildingBlock: TEMPAE_clean_linker_10, # of connection points: 2
#     Edge 84, Type (0, 0), BuildingBlock: TEMPAE_clean_linker_10, # of connection points: 2
#     Edge 85, Type (0, 0), BuildingBlock: TEMPAE_clean_linker_10, # of connection points: 2
#     Edge 86, Type (0, 0), BuildingBlock: TEMPAE_clean_linker_10, # of connection points: 2
#     Edge 87, Type (0, 0), BuildingBlock: TEMPAE_clean_linker_10, # of connection points: 2
#     Edge 88, Type (0, 0), BuildingBlock: TEMPAE_clean_linker_10, # of connection points: 2
#     Edge 89, Type (0, 0), BuildingBlock: TEMPAE_clean_linker_10, # of connection points: 2
#     Edge 90, Type (0, 0), BuildingBlock: TEMPAE_clean_linker_10, # of connection points: 2
#     Edge 91, Type (0, 0), BuildingBlock: TEMPAE_clean_linker_10, # of connection points: 2
#     Edge 92, Type (0, 0), BuildingBlock: TEMPAE_clean_linker_10, # of connection points: 2
#     Edge 93, Type (0, 0), BuildingBlock: TEMPAE_clean_linker_10, # of connection points: 2
#     Edge 94, Type (0, 0), BuildingBlock: TEMPAE_clean_linker_10, # of connection points: 2
#     Edge 95, Type (0, 0), BuildingBlock: TEMPAE_clean_linker_10, # of connection points: 2
# Relax obj value: 0.032
# Max RMSD: 0.063
# Mean RMSD: 0.063
data_MOF--net-umu--node1-QUQFOY_clean_sbu_1--edge1-TEMPAE_clean_linker_10
_symmetry_space_group_name_H-M    P1
_symmetry_Int_Tables_number       1
_symmetry_cell_setting            triclinic
loop_
_symmetry_equiv_pos_as_xyz
'x, y, z'
_cell_length_a     86.842249
_cell_length_b     86.824367
_cell_length_c     28.625068
_cell_angle_alpha  89.998033
_cell_angle_beta   90.007635
_cell_angle_gamma 89.988824
loop_
_atom_site_label
_atom_site_type_symbol
_atom_site_fract_x
_atom_site_fract_y
_atom_site_fract_z
_atom_type_partial_charge
O0 O 0.20975 0.16693 0.01229 0.0
Cd1 Cd 0.19558 0.16775 0.06988 0.0
Cd2 Cd 0.22419 0.16634 0.10891 0.0
O3 O 0.23062 0.15735 0.04487 0.0
O4 O 0.17521 0.16638 0.03851 0.0
O5 O 0.18401 0.14829 0.08567 0.0
C6 C 0.17354 0.15297 0.0569 0.0
C7 C 0.23339 0.15661 0.17991 0.0
C8 C 0.22301 0.16091 0.0085 0.0
C9 C 0.20634 0.19607 0.11324 0.0
O10 O 0.21951 0.18971 0.1108 0.0
O11 O 0.19425 0.18827 0.10545 0.0
O12 O 0.24211 0.16438 0.15209 0.0
O13 O 0.21955 0.15353 0.16612 0.0
O14 O 0.0882 0.96453 0.24967 0.0
Cd15 Cd 0.08445 0.95029 0.30631 0.0
Cd16 Cd 0.08281 0.98041 0.34496 0.0
O17 O 0.09049 0.98769 0.28083 0.0
O18 O 0.08534 0.93026 0.27282 0.0
O19 O 0.10262 0.93717 0.32524 0.0
C20 C 0.09807 0.92744 0.29403 0.0
C21 C 0.09326 0.98943 0.4149 0.0
C22 C 0.09104 0.9788 0.24564 0.0
C23 C 0.05456 0.96058 0.3484 0.0
O24 O 0.06007 0.97412 0.34897 0.0
O25 O 0.06292 0.94912 0.33742 0.0
O26 O 0.08456 0.99798 0.38918 0.0
O27 O 0.09673 0.97586 0.39955 0.0
O28 O 0.28479 0.84709 0.51963 0.0
Cd29 Cd 0.30279 0.84163 0.56277 0.0
Cd30 Cd 0.2752 0.83674 0.62329 0.0
O31 O 0.26393 0.84274 0.56203 0.0
O32 O 0.31991 0.84431 0.51731 0.0
O33 O 0.31739 0.85891 0.57982 0.0
C34 C 0.32464 0.85581 0.5416 0.0
C35 C 0.26547 0.84503 0.69552 0.0
C36 C 0.27027 0.84678 0.52392 0.0
C37 C 0.29764 0.81027 0.60686 0.0
O38 O 0.28549 0.81538 0.62607 0.0
O39 O 0.30594 0.81885 0.58115 0.0
O40 O 0.25859 0.83469 0.67093 0.0
O41 O 0.2777 0.85126 0.67813 0.0
O42 O 0.41456 0.04436 0.75514 0.0
Cd43 Cd 0.41382 0.05785 0.81429 0.0
Cd44 Cd 0.41085 0.02951 0.84928 0.0
O45 O 0.40237 0.02424 0.78356 0.0
O46 O 0.41252 0.07859 0.78536 0.0
O47 O 0.39373 0.06856 0.82758 0.0
C48 C 0.39864 0.07952 0.80093 0.0
C49 C 0.40012 0.02049 0.919 0.0
C50 C 0.40753 0.03172 0.74873 0.0
C51 C 0.44073 0.04618 0.8618 0.0
O52 O 0.43433 0.03325 0.85452 0.0
O53 O 0.43323 0.05856 0.8555 0.0
O54 O 0.40751 0.01147 0.89108 0.0
O55 O 0.39782 0.03453 0.90565 0.0
O56 O 0.21129 0.8425 0.20055 0.0
Cd57 Cd 0.19641 0.83837 0.14584 0.0
Cd58 Cd 0.22647 0.83614 0.10397 0.0
O59 O 0.23425 0.84401 0.16757 0.0
O60 O 0.17683 0.83947 0.18163 0.0
O61 O 0.18291 0.85631 0.12702 0.0
C62 C 0.17361 0.85196 0.15964 0.0
C63 C 0.23587 0.84559 0.03295 0.0
C64 C 0.22566 0.84503 0.20336 0.0
C65 C 0.20608 0.80803 0.10511 0.0
O66 O 0.21959 0.81351 0.10168 0.0
O67 O 0.19485 0.81651 0.11737 0.0
O68 O 0.24411 0.83689 0.05954 0.0
O69 O 0.22243 0.84966 0.04793 0.0
O70 O 0.4116 0.96939 0.42958 0.0
Cd71 Cd 0.41282 0.95323 0.37787 0.0
Cd72 Cd 0.4133 0.98172 0.32597 0.0
O73 O 0.4072 0.99091 0.39064 0.0
O74 O 0.4112 0.93427 0.4166 0.0
O75 O 0.39373 0.94068 0.36421 0.0
C76 C 0.39819 0.93148 0.39695 0.0
C77 C 0.40317 0.99175 0.25631 0.0
C78 C 0.40854 0.98367 0.42911 0.0
C79 C 0.44159 0.96066 0.32651 0.0
O80 O 0.43565 0.97372 0.31755 0.0
O81 O 0.43391 0.95029 0.34729 0.0
O82 O 0.41298 -0.0007 0.28111 0.0
O83 O 0.39832 0.97873 0.27248 0.0
O84 O 0.28518 0.16602 0.68789 0.0
Cd85 Cd 0.30061 0.16637 0.63335 0.0
Cd86 Cd 0.27208 0.16563 0.58932 0.0
O87 O 0.26447 0.15708 0.6527 0.0
O88 O 0.31998 0.16564 0.67039 0.0
O89 O 0.31311 0.14707 0.62217 0.0
C90 C 0.32254 0.15218 0.6534 0.0
C91 C 0.26275 0.15639 0.51781 0.0
C92 C 0.27166 0.16052 0.68994 0.0
C93 C 0.29118 0.19473 0.5869 0.0
O94 O 0.27781 0.18879 0.5875 0.0
O95 O 0.3029 0.18665 0.59694 0.0
O96 O 0.25435 0.16466 0.54515 0.0
O97 O 0.27631 0.15254 0.53229 0.0
O98 O 0.09402 0.03667 0.92878 0.0
Cd99 Cd 0.08832 0.0546 0.88557 0.0
Cd100 Cd 0.08564 0.02678 0.82377 0.0
O101 O 0.09142 0.01572 0.88539 0.0
O102 O 0.08959 0.07164 0.93195 0.0
O103 O 0.10511 0.07005 0.87122 0.0
C104 C 0.10119 0.07698 0.9093 0.0
C105 C 0.09465 0.0171 0.75241 0.0
C106 C 0.09457 0.02216 0.92409 0.0
C107 C 0.058 0.04806 0.83677 0.0
O108 O 0.06394 0.03612 0.81861 0.0
O109 O 0.06577 0.05678 0.86357 0.0
O110 O 0.08445 0.00993 0.77676 0.0
O111 O 0.1004 0.02957 0.76971 0.0
O112 O 0.78103 0.8409 0.17797 0.0
Cd113 Cd 0.79787 0.84054 0.12822 0.0
Cd114 Cd 0.76987 0.84007 0.07295 0.0
O115 O 0.76004 0.84591 0.13703 0.0
O116 O 0.81618 0.84225 0.16968 0.0
O117 O 0.81024 0.85996 0.11753 0.0
C118 C 0.81901 0.85545 0.15129 0.0
C119 C 0.75972 0.84977 1.0028 0.0
C120 C 0.76679 0.84407 0.17611 0.0
C121 C 0.79153 0.8121 0.0743 0.0
O122 O 0.77846 0.81791 0.06469 0.0
O123 O 0.80161 0.81981 0.09629 0.0
O124 O 0.75243 0.83976 0.02757 0.0
O125 O 0.77251 0.85507 0.01924 0.0
O126 O 0.91503 0.04185 0.94458 0.0
Cd127 Cd 0.91519 0.05578 0.88641 0.0
Cd128 Cd 0.91367 0.02706 0.84831 0.0
O129 O 0.90512 0.02091 0.91334 0.0
O130 O 0.91403 0.07624 0.91722 0.0
O131 O 0.89557 0.06723 0.87178 0.0
C132 C 0.90047 0.07782 0.89977 0.0
C133 C 0.90346 0.01779 0.77794 0.0
C134 C 0.909 0.02863 0.94923 0.0
C135 C 0.94315 0.04511 0.84071 0.0
O136 O 0.937 0.03188 0.84438 0.0
O137 O 0.93528 0.05713 0.8488 0.0
O138 O 0.91132 0.00907 0.80554 0.0
O139 O 0.90052 0.03166 0.79173 0.0
O140 O 0.71214 0.1605 0.69101 0.0
Cd141 Cd 0.6958 0.16588 0.64218 0.0
Cd142 Cd 0.72482 0.16759 0.5885 0.0
O143 O 0.73422 0.16152 0.65258 0.0
O144 O 0.67725 0.16454 0.68268 0.0
O145 O 0.68131 0.14872 0.62367 0.0
C146 C 0.67304 0.15264 0.65923 0.0
C147 C 0.73469 0.15744 0.51883 0.0
C148 C 0.72667 0.1592 0.69 0.0
C149 C 0.70408 0.19584 0.59459 0.0
O150 O 0.7165 0.18965 0.58062 0.0
O151 O 0.69434 0.18829 0.61853 0.0
O152 O 0.74228 0.16729 0.54338 0.0
O153 O 0.72169 0.15261 0.53523 0.0
O154 O 0.58281 0.96478 0.44385 0.0
Cd155 Cd 0.58315 0.95068 0.38603 0.0
Cd156 Cd 0.58612 0.97924 0.34855 0.0
O157 O 0.59451 0.98499 0.414 0.0
O158 O 0.58344 0.93036 0.41793 0.0
O159 O 0.60271 0.93875 0.37453 0.0
C160 C 0.59724 0.92846 0.40262 0.0
C161 C 0.59668 0.98839 0.27866 0.0
C162 C 0.58961 0.9776 0.44934 0.0
C163 C 0.55623 0.96225 0.3375 0.0
O164 O 0.56267 0.97525 0.34341 0.0
O165 O 0.56367 0.94992 0.34511 0.0
O166 O 0.58909 0.99728 0.30645 0.0
O167 O 0.59925 0.97442 0.29217 0.0
O168 O 0.78587 0.16022 0.00952 0.0
Cd169 Cd 0.80241 0.16563 0.0577 0.0
Cd170 Cd 0.77343 0.16713 0.1125 0.0
O171 O 0.7639 0.16117 0.04853 0.0
O172 O 0.82074 0.16441 0.01628 0.0
O173 O 0.81711 0.14857 0.07547 0.0
C174 C 0.82515 0.15254 0.0395 0.0
C175 C 0.76347 0.15711 0.18223 0.0
C176 C 0.77135 0.15889 0.01091 0.0
C177 C 0.79419 0.19543 0.1062 0.0
O178 O 0.78185 0.18914 0.12051 0.0
O179 O 0.80385 0.188 0.08163 0.0
O180 O 0.75597 0.16701 0.1576 0.0
O181 O 0.77642 0.15215 0.16588 0.0
O182 O 0.5852 0.04006 0.7687 0.0
Cd183 Cd 0.58397 0.05603 0.82098 0.0
Cd184 Cd 0.58394 0.02746 0.87195 0.0
O185 O 0.59026 0.01858 0.80705 0.0
O186 O 0.58542 0.07512 0.78281 0.0
O187 O 0.60301 0.06862 0.83475 0.0
C188 C 0.59845 0.07789 0.80231 0.0
C189 C 0.59418 0.0174 0.94145 0.0
C190 C 0.58862 0.02586 0.76877 0.0
C191 C 0.55538 0.04812 0.87234 0.0
O192 O 0.56146 0.03507 0.88051 0.0
O193 O 0.56295 0.0587 0.85215 0.0
O194 O 0.58455 0.00974 0.91633 0.0
O195 O 0.59882 0.03055 0.92568 0.0
O196 O 0.70598 0.83821 0.50191 0.0
Cd197 Cd 0.69269 0.83822 0.56148 0.0
Cd198 Cd 0.72141 0.84098 0.59591 0.0
O199 O 0.72663 0.84951 0.53024 0.0
O200 O 0.67193 0.83906 0.53244 0.0
O201 O 0.68131 0.8579 0.57576 0.0
C202 C 0.67055 0.85282 0.54868 0.0
C203 C 0.73048 0.85173 0.66559 0.0
C204 C 0.71879 0.84491 0.49541 0.0
C205 C 0.70473 0.81099 0.60748 0.0
O206 O 0.71765 0.8175 0.60085 0.0
O207 O 0.69232 0.81844 0.60118 0.0
O208 O 0.73947 0.84432 0.63766 0.0
O209 O 0.71642 0.854 0.65233 0.0
O210 O 0.91077 0.96514 0.26661 0.0
Cd211 Cd 0.91116 0.94888 0.31815 0.0
Cd212 Cd 0.91258 0.97709 0.37035 0.0
O213 O 0.90638 0.98656 0.30604 0.0
O214 O 0.90846 0.93012 0.27917 0.0
O215 O 0.89146 0.93733 0.33202 0.0
C216 C 0.89535 0.928 0.29895 0.0
C217 C 0.9034 0.98751 0.44084 0.0
C218 C 0.90785 0.97945 0.26741 0.0
C219 C 0.94028 0.95519 0.36818 0.0
O220 O 0.93475 0.96843 0.37709 0.0
O221 O 0.93218 0.94497 0.34818 0.0
O222 O 0.9132 0.99472 0.41512 0.0
O223 O 0.898 0.97464 0.42518 0.0
O224 O 0.71377 0.667 0.51194 0.0
Cd225 Cd 0.69739 0.66761 0.5631 0.0
Cd226 Cd 0.72571 0.66822 0.61596 0.0
O227 O 0.73511 0.66227 0.55139 0.0
O228 O 0.67868 0.66569 0.5234 0.0
O229 O 0.68519 0.64821 0.57564 0.0
C230 C 0.67609 0.65255 0.54249 0.0
C231 C 0.73594 0.65838 0.68579 0.0
C232 C 0.72803 0.6639 0.51276 0.0
C233 C 0.70423 0.69627 0.61551 0.0
O234 O 0.71736 0.69045 0.62435 0.0
O235 O 0.69396 0.68851 0.59451 0.0
O236 O 0.74331 0.66827 0.6608 0.0
O237 O 0.72302 0.65326 0.66971 0.0
O238 O 0.58646 0.46521 0.75504 0.0
Cd239 Cd 0.58722 0.4514 0.81352 0.0
Cd240 Cd 0.58942 0.48013 0.84959 0.0
O241 O 0.59772 0.4858 0.78401 0.0
O242 O 0.58775 0.43094 0.78253 0.0
O243 O 0.60702 0.43986 0.82494 0.0
C244 C 0.60163 0.42934 0.79753 0.0
C245 C 0.59985 0.48951 0.91933 0.0
C246 C 0.59297 0.47815 0.74899 0.0
C247 C 0.56006 0.46251 0.86175 0.0
O248 O 0.56607 0.47565 0.85476 0.0
O249 O 0.56789 0.45037 0.855 0.0
O250 O 0.59213 0.49826 0.89146 0.0
O251 O 0.60262 0.47556 0.90596 0.0
O252 O 0.78541 0.33967 0.01669 0.0
Cd253 Cd 0.7997 0.33889 0.07403 0.0
Cd254 Cd 0.77101 0.33953 0.11341 0.0
O255 O 0.76418 0.3483 0.0496 0.0
O256 O 0.81995 0.34044 0.04202 0.0
O257 O 0.8112 0.35842 0.08966 0.0
C258 C 0.8216 0.35383 0.06055 0.0
C259 C 0.76173 0.34918 0.18426 0.0
C260 C 0.77193 0.34519 0.01312 0.0
C261 C 0.78962 0.31025 0.11735 0.0
O262 O 0.7763 0.31629 0.11539 0.0
O263 O 0.80149 0.31832 0.10917 0.0
O264 O 0.75319 0.34102 0.15698 0.0
O265 O 0.77542 0.35267 0.17006 0.0
O266 O 0.90562 0.5423 0.25208 0.0
Cd267 Cd 0.90979 0.55694 0.30743 0.0
Cd268 Cd 0.9105 0.52669 0.34814 0.0
O269 O 0.90273 0.51934 0.2842 0.0
O270 O 0.90994 0.57652 0.27144 0.0
O271 O 0.89218 0.57117 0.324 0.0
C272 C 0.89726 0.58022 0.29169 0.0
C273 C 0.90017 0.51768 0.41828 0.0
C274 C 0.90243 0.52808 0.24865 0.0
C275 C 0.93927 0.54592 0.35074 0.0
O276 O 0.93335 0.53256 0.35203 0.0
O277 O 0.93129 0.55756 0.33896 0.0
O278 O 0.90868 0.50907 0.39219 0.0
O279 O 0.89677 0.53129 0.40318 0.0
O280 O 0.711 0.33874 0.69027 0.0
Cd281 Cd 0.6963 0.33865 0.6339 0.0
Cd282 Cd 0.7244 0.34056 0.59316 0.0
O283 O 0.73119 0.34942 0.657 0.0
O284 O 0.67634 0.3399 0.66757 0.0
O285 O 0.68468 0.3583 0.62075 0.0
C286 C 0.67457 0.35349 0.65044 0.0
C287 C 0.73324 0.35051 0.52211 0.0
C288 C 0.72408 0.34515 0.69358 0.0
C289 C 0.70669 0.31079 0.58805 0.0
O290 O 0.71985 0.31715 0.5907 0.0
O291 O 0.69461 0.31853 0.59649 0.0
O292 O 0.74213 0.34277 0.54952 0.0
O293 O 0.71943 0.35344 0.53639 0.0
O294 O 0.90076 0.47024 0.93136 0.0
Cd295 Cd 0.90648 0.45231 0.88817 0.0
Cd296 Cd 0.90961 0.48024 0.82698 0.0
O297 O 0.9038 0.49126 0.88861 0.0
O298 O 0.90521 0.43534 0.93473 0.0
O299 O 0.88969 0.43685 0.87398 0.0
C300 C 0.89361 0.42996 0.91214 0.0
C301 C 0.90049 0.48987 0.75572 0.0
C302 C 0.9004 0.48476 0.92701 0.0
C303 C 0.93697 0.45865 0.83991 0.0
O304 O 0.93123 0.47071 0.82189 0.0
O305 O 0.92903 0.44998 0.86636 0.0
O306 O 0.91078 0.49702 0.77977 0.0
O307 O 0.89473 0.47743 0.77323 0.0
O308 O 0.78908 0.6708 0.18757 0.0
Cd309 Cd 0.80279 0.67051 0.12889 0.0
Cd310 Cd 0.77427 0.66747 0.0927 0.0
O311 O 0.76883 0.65902 0.15835 0.0
O312 O 0.82339 0.66981 0.15899 0.0
O313 O 0.81422 0.65077 0.11607 0.0
C314 C 0.82486 0.656 0.14336 0.0
C315 C 0.76519 0.65672 0.02299 0.0
C316 C 0.77634 0.66391 0.19349 0.0
C317 C 0.79099 0.69746 0.08121 0.0
O318 O 0.77805 0.69095 0.08746 0.0
O319 O 0.80338 0.69007 0.08831 0.0
O320 O 0.75623 0.66421 0.0508 0.0
O321 O 0.77921 0.65436 0.03639 0.0
O322 O 0.58738 0.54042 0.43 0.0
Cd323 Cd 0.58627 0.55655 0.37819 0.0
Cd324 Cd 0.58645 0.52831 0.32635 0.0
O325 O 0.59275 0.51916 0.39093 0.0
O326 O 0.58817 0.57551 0.41674 0.0
O327 O 0.60549 0.56883 0.36418 0.0
C328 C 0.60122 0.57808 0.39707 0.0
C329 C 0.59668 0.51848 0.25656 0.0
C330 C 0.59093 0.52625 0.42945 0.0
C331 C 0.55772 0.54882 0.32675 0.0
O332 O 0.56394 0.53587 0.31806 0.0
O333 O 0.56519 0.55939 0.34737 0.0
O334 O 0.58705 0.51074 0.28146 0.0
O335 O 0.60131 0.53158 0.2727 0.0
O336 O 0.28818 0.34501 0.68935 0.0
Cd337 Cd 0.30474 0.33945 0.6414 0.0
Cd338 Cd 0.27567 0.33784 0.58635 0.0
O339 O 0.2662 0.34402 0.65031 0.0
O340 O 0.32306 0.3406 0.68292 0.0
O341 O 0.31954 0.35644 0.62366 0.0
C342 C 0.32756 0.35243 0.65966 0.0
C343 C 0.26574 0.34772 0.51629 0.0
C344 C 0.27365 0.34637 0.68791 0.0
C345 C 0.29642 0.30954 0.59352 0.0
O346 O 0.2841 0.31579 0.57897 0.0
O347 O 0.30609 0.31703 0.61791 0.0
O348 O 0.25821 0.33791 0.54112 0.0
O349 O 0.2787 0.35268 0.53257 0.0
O350 O 0.41631 0.53962 0.44441 0.0
Cd351 Cd 0.4157 0.55354 0.38616 0.0
Cd352 Cd 0.41408 0.52482 0.34898 0.0
O353 O 0.40589 0.51875 0.41437 0.0
O354 O 0.41446 0.57399 0.41713 0.0
O355 O 0.39574 0.56464 0.37333 0.0
C356 C 0.4007 0.5753 0.40102 0.0
C357 C 0.40379 0.51534 0.27913 0.0
C358 C 0.4102 0.52646 0.4498 0.0
C359 C 0.44325 0.54301 0.33832 0.0
O360 O 0.43735 0.52975 0.34395 0.0
O361 O 0.43529 0.55501 0.34596 0.0
O362 O 0.41176 0.50672 0.30673 0.0
O363 O 0.40072 0.5292 0.29276 0.0
O364 O 0.214 0.65669 0.17572 0.0
Cd365 Cd 0.19624 0.66221 0.13173 0.0
Cd366 Cd 0.22403 0.66678 0.07224 0.0
O367 O 0.23504 0.66074 0.13386 0.0
O368 O 0.1789 0.65982 0.17655 0.0
O369 O 0.18154 0.64503 0.11449 0.0
C370 C 0.17414 0.64832 0.15231 0.0
C371 C 0.23381 0.65831 1.0003 0.0
C372 C 0.22854 0.65686 0.17188 0.0
C373 C 0.20183 0.69347 0.08752 0.0
O374 O 0.21404 0.68825 0.06895 0.0
O375 O 0.19333 0.68497 0.11285 0.0
O376 O 0.2408 0.66854 0.02502 0.0
O377 O 0.22145 0.65226 0.01744 0.0
O378 O 0.08039 0.46081 0.94744 0.0
Cd379 Cd 0.08002 0.44767 0.88763 0.0
Cd380 Cd 0.08169 0.47642 0.85266 0.0
O381 O 0.09041 0.48197 0.91798 0.0
O382 O 0.08196 0.42676 0.91517 0.0
O383 O 0.09982 0.43708 0.87 0.0
C384 C 0.09546 0.42592 0.89676 0.0
C385 C 0.09188 0.48573 0.78236 0.0
C386 C 0.08654 0.47393 0.95324 0.0
C387 C 0.05194 0.45893 0.84437 0.0
O388 O 0.05829 0.47203 0.84903 0.0
O389 O 0.05969 0.44673 0.85098 0.0
O390 O 0.08434 0.49454 0.81053 0.0
O391 O 0.09456 0.47175 0.79563 0.0
O392 O 0.28765 0.66107 0.49503 0.0
Cd393 Cd 0.30267 0.66517 0.54939 0.0
Cd394 Cd 0.27276 0.66773 0.59183 0.0
O395 O 0.26474 0.65996 0.52841 0.0
O396 O 0.32218 0.66358 0.51341 0.0
O397 O 0.31592 0.6471 0.56879 0.0
C398 C 0.32523 0.65113 0.53583 0.0
C399 C 0.26333 0.65834 0.66291 0.0
C400 C 0.27325 0.65874 0.4925 0.0
C401 C 0.29341 0.69569 0.58978 0.0
O402 O 0.2799 0.69028 0.594 0.0
O403 O 0.30452 0.68714 0.57703 0.0
O404 O 0.25518 0.6672 0.63652 0.0
O405 O 0.2767 0.65411 0.64772 0.0
O406 O 0.08335 0.53722 0.2691 0.0
Cd407 Cd 0.0829 0.55403 0.31896 0.0
Cd408 Cd 0.08118 0.52613 0.37411 0.0
O409 O 0.08735 0.51611 0.31051 0.0
O410 O 0.0853 0.5724 0.27805 0.0
O411 O 0.10246 0.56599 0.33138 0.0
C412 C 0.09837 0.57496 0.2976 0.0
C413 C 0.09025 0.51597 0.44513 0.0
C414 C 0.08609 0.52289 0.27127 0.0
C415 C 0.05373 0.54836 0.36981 0.0
O416 O 0.05912 0.53517 0.3802 0.0
O417 O 0.06193 0.55824 0.34866 0.0
O418 O 0.08028 0.5088 0.41993 0.0
O419 O 0.09584 0.52866 0.42878 0.0
O420 O 0.2136 0.34633 0.00614 0.0
Cd421 Cd 0.19668 0.3409 0.05308 0.0
Cd422 Cd 0.22577 0.33892 0.10954 0.0
O423 O 0.23546 0.34483 0.04566 0.0
O424 O 0.17876 0.34188 0.0099 0.0
O425 O 0.18157 0.3578 0.06926 0.0
C426 C 0.17391 0.35367 0.03268 0.0
C427 C 0.23599 0.34847 0.17966 0.0
C428 C 0.22815 0.34737 0.00793 0.0
C429 C 0.20449 0.31099 0.10212 0.0
O430 O 0.21685 0.31709 0.11701 0.0
O431 O 0.19505 0.31855 0.07711 0.0
O432 O 0.24325 0.33848 0.1547 0.0
O433 O 0.22316 0.35379 0.16345 0.0
O434 O 0.41614 0.46408 0.76903 0.0
Cd435 Cd 0.41735 0.44821 0.82161 0.0
Cd436 Cd 0.41651 0.47654 0.87235 0.0
O437 O 0.40999 0.48526 0.80742 0.0
O438 O 0.41586 0.42895 0.78425 0.0
O439 O 0.39827 0.43578 0.83583 0.0
C440 C 0.40279 0.42634 0.80377 0.0
C441 C 0.40607 0.48634 0.94189 0.0
C442 C 0.41215 0.47813 0.76912 0.0
C443 C 0.44562 0.45667 0.87324 0.0
O444 O 0.43919 0.46958 0.88097 0.0
O445 O 0.43833 0.44584 0.85327 0.0
O446 O 0.41544 0.49426 0.91661 0.0
O447 O 0.40177 0.47307 0.92621 0.0
C448 C 0.12459 0.09384 0.90963 0.0
C449 C 0.11034 0.0898 0.92905 0.0
C450 C 0.13415 0.10469 0.93162 0.0
C451 C 0.12929 0.11168 0.97387 0.0
C452 C 0.11469 0.10804 0.99271 0.0
C453 C 0.1054 0.09714 0.9701 0.0
C454 C 0.14964 0.10836 0.91037 0.0
C455 C 0.10906 0.11533 0.03748 0.0
C456 C 0.16087 0.1271 0.05292 0.0
C457 C 0.16093 0.14277 0.04105 0.0
C458 C 0.15035 0.1169 0.03214 0.0
C459 C 0.13966 0.12252 0.99887 0.0
C460 C 0.13922 0.13843 0.98838 0.0
C461 C 0.14986 0.14836 0.00959 0.0
C462 C 0.15108 0.1 0.04445 0.0
C463 C 0.1279 0.14488 0.9534 0.0
H464 H 0.1285 0.08818 0.87803 0.0
H465 H 0.09438 0.09412 0.9853 0.0
H466 H 0.15073 0.12095 0.90463 0.0
H467 H 0.15894 0.1049 0.9348 0.0
H468 H 0.15146 0.10236 0.87653 0.0
H469 H 0.0971 0.11184 0.04624 0.0
H470 H 0.11672 0.11197 0.06678 0.0
H471 H 0.10949 0.12807 0.03468 0.0
H472 H 0.16941 0.1227 0.07708 0.0
H473 H 0.1498 0.16046 1.0003 0.0
H474 H 0.1544 0.09324 0.01313 0.0
H475 H 0.13958 0.09586 0.0557 0.0
H476 H 0.15951 0.0976 0.07274 0.0
H477 H 0.13039 0.14012 0.91824 0.0
H478 H 0.12839 0.15765 0.95139 0.0
H479 H 0.116 0.1414 0.96266 0.0
C480 C 0.1229 0.91277 0.29554 0.0
C481 C 0.10783 0.91441 0.27874 0.0
C482 C 0.13296 0.90187 0.27594 0.0
C483 C 0.1278 0.89243 0.23871 0.0
C484 C 0.11242 0.89362 0.22293 0.0
C485 C 0.10262 0.90457 0.24319 0.0
C486 C 0.14927 0.90082 0.29398 0.0
C487 C 0.10647 0.88371 0.18348 0.0
C488 C 0.15858 0.87658 0.15757 0.0
C489 C 0.1606 0.86168 0.17533 0.0
C490 C 0.14768 0.88662 0.17722 0.0
C491 C 0.13862 0.88161 0.21548 0.0
C492 C 0.14018 0.86638 0.23229 0.0
C493 C 0.15113 0.85659 0.21197 0.0
C494 C 0.14621 0.90277 0.15809 0.0
C495 C 0.13067 0.86059 0.27284 0.0
H496 H 0.12702 0.92036 0.32289 0.0
H497 H 0.09098 0.90574 0.23 0.0
H498 H 0.15197 0.88878 0.30413 0.0
H499 H 0.15744 0.90411 0.26591 0.0
H500 H 0.15125 0.90842 0.3246 0.0
H501 H 0.09398 0.88546 0.17706 0.0
H502 H 0.11283 0.88644 0.1509 0.0
H503 H 0.1085 0.87136 0.19124 0.0
H504 H 0.16588 0.8806 0.12937 0.0
H505 H 0.15258 0.84508 0.22588 0.0
H506 H 0.14958 0.91121 0.18532 0.0
H507 H 0.13407 0.90519 0.1486 0.0
H508 H 0.15355 0.90463 0.12681 0.0
H509 H 0.13353 0.86726 0.30474 0.0
H510 H 0.13269 0.84818 0.28006 0.0
H511 H 0.11823 0.86233 0.26577 0.0
C512 C 0.39402 0.90872 0.4486 0.0
C513 C 0.38831 0.91888 0.41461 0.0
C514 C 0.38442 0.89781 0.46992 0.0
C515 C 0.36872 0.89706 0.45707 0.0
C516 C 0.36297 0.90697 0.4218 0.0
C517 C 0.37286 0.91775 0.40086 0.0
C518 C 0.39101 0.88733 0.50703 0.0
C519 C 0.34628 0.90647 0.40711 0.0
C520 C 0.34547 0.86118 0.48391 0.0
C521 C 0.33711 0.86576 0.52351 0.0
C522 C 0.35603 0.87114 0.4625 0.0
C523 C 0.35824 0.88607 0.48101 0.0
C524 C 0.35021 0.89061 0.52186 0.0
C525 C 0.33976 0.88036 0.54276 0.0
C526 C 0.3645 0.86582 0.41934 0.0
C527 C 0.35231 0.90646 0.54263 0.0
H528 H 0.40596 0.90949 0.45934 0.0
H529 H 0.36837 0.92561 0.37478 0.0
H530 H 0.38527 0.88961 0.54096 0.0
H531 H 0.38876 0.87511 0.49797 0.0
H532 H 0.40361 0.88892 0.51156 0.0
H533 H 0.34372 0.91465 0.37828 0.0
H534 H 0.34317 0.89468 0.39557 0.0
H535 H 0.33881 0.90934 0.43734 0.0
H536 H 0.34352 0.84989 0.46891 0.0
H537 H 0.33329 0.88399 0.57321 0.0
H538 H 0.3771 0.8672 0.42418 0.0
H539 H 0.36113 0.87305 0.38906 0.0
H540 H 0.36205 0.85359 0.41075 0.0
H541 H 0.36466 0.90856 0.55022 0.0
H542 H 0.34562 0.90801 0.57537 0.0
H543 H 0.34858 0.91532 0.51708 0.0
C544 C 0.37281 0.09237 0.79794 0.0
C545 C 0.38828 0.09186 0.78401 0.0
C546 C 0.36245 0.10274 0.77711 0.0
C547 C 0.36769 0.11272 0.74131 0.0
C548 C 0.38338 0.11259 0.7282 0.0
C549 C 0.3935 0.10223 0.74985 0.0
C550 C 0.34582 0.10271 0.79248 0.0
C551 C 0.3894 0.12304 0.69015 0.0
C552 C 0.3378 0.12766 0.65544 0.0
C553 C 0.33506 0.14251 0.67274 0.0
C554 C 0.34859 0.11791 0.67699 0.0
C555 C 0.35669 0.12311 0.71698 0.0
C556 C 0.35421 0.1382 0.73395 0.0
C557 C 0.34349 0.14773 0.71149 0.0
C558 C 0.35111 0.10195 0.65754 0.0
C559 C 0.36257 0.14414 0.77657 0.0
H560 H 0.36869 0.08439 0.82424 0.0
H561 H 0.40543 0.10191 0.73875 0.0
H562 H 0.34224 0.1145 0.80275 0.0
H563 H 0.33836 0.09912 0.76297 0.0
H564 H 0.34377 0.09481 0.82236 0.0
H565 H 0.40204 0.12192 0.68522 0.0
H566 H 0.38361 0.12027 0.65662 0.0
H567 H 0.3867 0.13523 0.69843 0.0
H568 H 0.33132 0.12355 0.62557 0.0
H569 H 0.34141 0.15918 0.72525 0.0
H570 H 0.3478 0.09321 0.68399 0.0
H571 H 0.36349 0.10018 0.64957 0.0
H572 H 0.34432 0.09986 0.62525 0.0
H573 H 0.35968 0.1369 0.80729 0.0
H574 H 0.35958 0.15628 0.78469 0.0
H575 H 0.3752 0.14333 0.77132 0.0
C576 C 0.83344 0.88044 0.15451 0.0
C577 C 0.83121 0.86542 0.17108 0.0
C578 C 0.84408 0.89035 0.17607 0.0
C579 C 0.85264 0.88508 0.21509 0.0
C580 C 0.85063 0.86985 0.2314 0.0
C581 C 0.83996 0.8602 0.20917 0.0
C582 C 0.84602 0.90651 0.15753 0.0
C583 C 0.85956 0.8638 0.2728 0.0
C584 C 0.88955 0.90622 0.24493 0.0
C585 C 0.88473 0.91604 0.28105 0.0
C586 C 0.87926 0.89597 0.22357 0.0
C587 C 0.86378 0.89549 0.23873 0.0
C588 C 0.85893 0.90502 0.27611 0.0
C589 C 0.86948 0.9152 0.29688 0.0
C590 C 0.8849 0.88592 0.18401 0.0
C591 C 0.84251 0.90472 0.2934 0.0
H592 H 0.82669 0.88456 0.12523 0.0
H593 H 0.8383 0.84861 0.22228 0.0
H594 H 0.84303 0.91497 0.18513 0.0
H595 H 0.85822 0.90854 0.14781 0.0
H596 H 0.83867 0.90875 0.12649 0.0
H597 H 0.85679 0.85159 0.28076 0.0
H598 H 0.87211 0.86474 0.26609 0.0
H599 H 0.857 0.87087 0.30415 0.0
H600 H 0.90132 0.90678 0.23249 0.0
H601 H 0.86567 0.92278 0.32465 0.0
H602 H 0.87853 0.88877 0.15153 0.0
H603 H 0.88261 0.87363 0.19194 0.0
H604 H 0.89741 0.88737 0.17733 0.0
H605 H 0.83461 0.90829 0.2649 0.0
H606 H 0.8407 0.91248 0.32377 0.0
H607 H 0.83925 0.89284 0.30367 0.0
C608 C 0.87487 0.09105 0.90275 0.0
C609 C 0.89043 0.09056 0.9156 0.0
C610 C 0.86482 0.10186 0.92283 0.0
C611 C 0.8705 0.11238 0.95651 0.0
C612 C 0.88631 0.11231 0.96828 0.0
C613 C 0.89608 0.10142 0.94763 0.0
C614 C 0.84803 0.1017 0.90912 0.0
C615 C 0.8928 0.1234 0.00386 0.0
C616 C 0.84615 0.14764 0.98197 0.0
C617 C 0.83806 0.14302 0.02207 0.0
C618 C 0.85697 0.13791 0.9608 0.0
C619 C 0.85981 0.12321 0.98026 0.0
C620 C 0.85215 0.11871 0.02177 0.0
C621 C 0.84135 0.12868 0.04222 0.0
C622 C 0.86497 0.14315 0.91672 0.0
C623 C 0.85499 0.10315 0.04372 0.0
H624 H 0.87041 0.08268 0.87811 0.0
H625 H 0.90811 0.10114 0.95775 0.0
H626 H 0.84086 0.09874 0.93994 0.0
H627 H 0.84442 0.1133 0.89715 0.0
H628 H 0.84558 0.09326 0.88089 0.0
H629 H 0.9055 0.12236 0.00737 0.0
H630 H 0.88996 0.13543 0.99404 0.0
H631 H 0.88749 0.12119 0.03847 0.0
H632 H 0.84371 0.15872 0.96618 0.0
H633 H 0.83512 0.12503 0.07311 0.0
H634 H 0.8616 0.13558 0.8872 0.0
H635 H 0.87764 0.14219 0.92077 0.0
H636 H 0.86207 0.15523 0.90746 0.0
H637 H 0.85135 0.09393 0.01928 0.0
H638 H 0.84866 0.10169 0.07713 0.0
H639 H 0.86747 0.10154 0.05043 0.0
C640 C 0.65756 0.12833 0.65749 0.0
C641 C 0.66013 0.14304 0.67608 0.0
C642 C 0.64684 0.11829 0.67802 0.0
C643 C 0.63848 0.12313 0.71792 0.0
C644 C 0.64054 0.1382 0.73556 0.0
C645 C 0.65134 0.14796 0.71444 0.0
C646 C 0.64486 0.10231 0.65807 0.0
C647 C 0.63175 0.14382 0.77778 0.0
C648 C 0.60268 0.10047 0.74998 0.0
C649 C 0.6083 0.09052 0.78467 0.0
C650 C 0.6123 0.11134 0.72854 0.0
C651 C 0.62793 0.11226 0.74207 0.0
C652 C 0.63357 0.1026 0.77813 0.0
C653 C 0.62367 0.09184 0.79909 0.0
C654 C 0.60584 0.12153 0.69051 0.0
C655 C 0.65018 0.10333 0.79362 0.0
H656 H 0.66434 0.12443 0.62797 0.0
H657 H 0.65321 0.15934 0.72896 0.0
H658 H 0.64857 0.09363 0.6842 0.0
H659 H 0.63255 0.1001 0.65028 0.0
H660 H 0.65165 0.10059 0.6256 0.0
H661 H 0.63401 0.15616 0.7854 0.0
H662 H 0.6192 0.14224 0.77244 0.0
H663 H 0.63505 0.13692 0.80884 0.0
H664 H 0.5908 0.09955 0.73868 0.0
H665 H 0.62809 0.08416 0.82574 0.0
H666 H 0.61173 0.11901 0.65696 0.0
H667 H 0.60802 0.13381 0.69882 0.0
H668 H 0.59326 0.11987 0.68561 0.0
H669 H 0.65783 0.10027 0.76401 0.0
H670 H 0.65262 0.0954 0.82318 0.0
H671 H 0.65315 0.11523 0.80445 0.0
C672 C 0.62202 0.91368 0.40515 0.0
C673 C 0.60691 0.9158 0.42105 0.0
C674 C 0.6318 0.90288 0.4265 0.0
C675 C 0.62637 0.89414 0.46494 0.0
C676 C 0.61101 0.89597 0.48036 0.0
C677 C 0.60144 0.9067 0.45806 0.0
C678 C 0.64806 0.90105 0.40862 0.0
C679 C 0.60482 0.88693 0.52136 0.0
C680 C 0.64812 0.85771 0.49633 0.0
C681 C 0.65797 0.86291 0.53189 0.0
C682 C 0.63762 0.86769 0.47472 0.0
C683 C 0.63681 0.88322 0.48936 0.0
C684 C 0.64623 0.88839 0.52663 0.0
C685 C 0.65677 0.87818 0.54733 0.0
C686 C 0.62782 0.86176 0.43501 0.0
C687 C 0.64549 0.90483 0.5437 0.0
H688 H 0.62632 0.92068 0.37663 0.0
H689 H 0.5898 0.9083 0.47077 0.0
H690 H 0.65636 0.9044 0.43629 0.0
H691 H 0.65033 0.88882 0.39984 0.0
H692 H 0.65029 0.90821 0.37716 0.0
H693 H 0.59247 0.88939 0.52817 0.0
H694 H 0.60617 0.8744 0.51506 0.0
H695 H 0.61151 0.88977 0.55324 0.0
H696 H 0.64899 0.84593 0.48404 0.0
H697 H 0.66434 0.88228 0.57473 0.0
H698 H 0.63081 0.86795 0.40235 0.0
H699 H 0.61547 0.86401 0.44214 0.0
H700 H 0.62939 0.84921 0.42909 0.0
H701 H 0.64921 0.91274 0.51544 0.0
H702 H 0.65292 0.90679 0.57472 0.0
H703 H 0.63346 0.90791 0.55287 0.0
C704 C 0.65456 0.64753 0.48682 0.0
C705 C 0.66384 0.64241 0.52387 0.0
C706 C 0.64397 0.63766 0.46515 0.0
C707 C 0.64257 0.6223 0.48096 0.0
C708 C 0.65159 0.61715 0.51916 0.0
C709 C 0.66214 0.62728 0.54018 0.0
C710 C 0.63451 0.64359 0.42466 0.0
C711 C 0.65032 0.60086 0.53717 0.0
C712 C 0.60638 0.59984 0.45175 0.0
C713 C 0.61141 0.5904 0.41499 0.0
C714 C 0.61635 0.6104 0.47315 0.0
C715 C 0.63172 0.61159 0.45734 0.0
C716 C 0.63677 0.60244 0.41931 0.0
C717 C 0.62654 0.59193 0.39856 0.0
C718 C 0.61052 0.62001 0.51344 0.0
C719 C 0.65307 0.60349 0.4013 0.0
H720 H 0.65579 0.6592 0.47395 0.0
H721 H 0.6693 0.62323 0.56868 0.0
H722 H 0.63721 0.63688 0.39272 0.0
H723 H 0.62206 0.64203 0.43194 0.0
H724 H 0.63668 0.65597 0.41741 0.0
H725 H 0.65784 0.59878 0.56793 0.0
H726 H 0.63824 0.59832 0.54713 0.0
H727 H 0.65355 0.59263 0.50918 0.0
H728 H 0.5947 0.59875 0.46469 0.0
H729 H 0.63052 0.58464 0.37028 0.0
H730 H 0.61231 0.63242 0.50608 0.0
H731 H 0.61713 0.61722 0.54551 0.0
H732 H 0.59809 0.61805 0.52053 0.0
H733 H 0.65579 0.61554 0.39143 0.0
H734 H 0.65504 0.59596 0.37049 0.0
H735 H 0.66125 0.60011 0.42927 0.0
C736 C 0.6058 0.40708 0.74398 0.0
C737 C 0.61141 0.41671 0.77951 0.0
C738 C 0.61539 0.39632 0.7219 0.0
C739 C 0.63094 0.39504 0.73603 0.0
C740 C 0.63655 0.40433 0.77302 0.0
C741 C 0.62672 0.41512 0.79421 0.0
C742 C 0.60901 0.38667 0.6825 0.0
C743 C 0.65302 0.4031 0.78947 0.0
C744 C 0.65304 0.35871 0.70587 0.0
C745 C 0.66226 0.36366 0.66847 0.0
C746 C 0.64269 0.36875 0.72785 0.0
C747 C 0.64138 0.38409 0.71175 0.0
C748 C 0.65021 0.38902 0.67289 0.0
C749 C 0.66061 0.37876 0.65181 0.0
C750 C 0.63351 0.36308 0.76924 0.0
C751 C 0.64894 0.40525 0.65433 0.0
H752 H 0.59399 0.40825 0.73223 0.0
H753 H 0.63114 0.42253 0.82157 0.0
H754 H 0.61531 0.38927 0.64972 0.0
H755 H 0.61072 0.37425 0.69003 0.0
H756 H 0.59654 0.38877 0.6766 0.0
H757 H 0.6554 0.41066 0.81993 0.0
H758 H 0.65569 0.39103 0.7993 0.0
H759 H 0.66094 0.40632 0.76067 0.0
H760 H 0.65426 0.34708 0.71911 0.0
H761 H 0.6677 0.38267 0.62298 0.0
H762 H 0.62103 0.36488 0.7631 0.0
H763 H 0.63666 0.3698 0.80081 0.0
H764 H 0.63552 0.35067 0.77652 0.0
H765 H 0.63677 0.40795 0.64584 0.0
H766 H 0.65605 0.40706 0.62255 0.0
H767 H 0.6527 0.41355 0.68151 0.0
C768 C 0.88945 0.40984 0.97307 0.0
C769 C 0.88447 0.41717 0.93202 0.0
C770 C 0.88019 0.39896 0.9958 0.0
C771 C 0.86558 0.39531 0.97708 0.0
C772 C 0.86067 0.40227 0.93485 0.0
C773 C 0.8702 0.41312 0.91274 0.0
C774 C 0.88587 0.39168 0.04054 0.0
C775 C 0.84517 0.39859 0.91374 0.0
C776 C 0.84518 0.35855 0.01292 0.0
C777 C 0.83413 0.3641 0.04452 0.0
C778 C 0.85575 0.36852 0.9916 0.0
C779 C 0.85527 0.38443 1.00213 0.0
C780 C 0.84459 0.39001 0.03552 0.0
C781 C 0.83415 0.37976 0.05641 0.0
C782 C 0.86705 0.36212 0.9565 0.0
C783 C 0.84382 0.4069 0.04786 0.0
H784 H 0.90049 0.41288 0.98816 0.0
H785 H 0.86626 0.41876 0.88115 0.0
H786 H 0.87821 0.395 0.06988 0.0
H787 H 0.88549 0.37894 0.03772 0.0
H788 H 0.89782 0.39521 0.04926 0.0
H789 H 0.84329 0.40459 0.87995 0.0
H790 H 0.84409 0.386 0.90796 0.0
H791 H 0.83589 0.40202 0.93828 0.0
H792 H 0.84528 0.34645 0.00363 0.0
H793 H 0.82562 0.38413 0.08068 0.0
H794 H 0.87896 0.36562 0.96569 0.0
H795 H 0.86452 0.36691 0.92139 0.0
H796 H 0.86658 0.34935 0.9544 0.0
H797 H 0.85531 0.41108 0.05903 0.0
H798 H 0.83541 0.40926 0.07622 0.0
H799 H 0.84045 0.41365 0.01658 0.0
C800 C 0.83828 0.63049 0.14767 0.0
C801 C 0.83741 0.64601 0.16089 0.0
C802 C 0.84878 0.62045 0.16926 0.0
C803 C 0.85856 0.62607 0.20503 0.0
C804 C 0.85812 0.64184 0.21732 0.0
C805 C 0.8476 0.65162 0.19499 0.0
C806 C 0.84908 0.60373 0.15479 0.0
C807 C 0.86837 0.64825 0.25525 0.0
C808 C 0.87335 0.59638 0.29167 0.0
C809 C 0.88811 0.59337 0.27406 0.0
C810 C 0.86375 0.60733 0.27027 0.0
C811 C 0.86902 0.61536 0.23026 0.0
C812 C 0.88412 0.61281 0.2135 0.0
C813 C 0.89349 0.6019 0.23571 0.0
C814 C 0.84776 0.60991 0.28949 0.0
C815 C 0.89016 0.62115 0.17098 0.0
H816 H 0.83044 0.62607 0.12143 0.0
H817 H 0.84701 0.6636 0.2055 0.0
H818 H 0.86095 0.60029 0.14495 0.0
H819 H 0.84556 0.59638 0.18464 0.0
H820 H 0.84129 0.60135 0.12488 0.0
H821 H 0.86713 0.66092 0.25913 0.0
H822 H 0.86551 0.64274 0.28911 0.0
H823 H 0.88061 0.64559 0.24765 0.0
H824 H 0.86911 0.58983 0.32122 0.0
H825 H 0.90489 0.59966 0.22182 0.0
H826 H 0.83908 0.60623 0.26335 0.0
H827 H 0.84586 0.62235 0.29628 0.0
H828 H 0.84574 0.60343 0.3224 0.0
H829 H 0.88329 0.61785 0.13987 0.0
H830 H 0.90246 0.61849 0.16396 0.0
H831 H 0.88892 0.63378 0.17545 0.0
C832 C 0.34902 0.35686 0.71596 0.0
C833 C 0.34053 0.36187 0.67707 0.0
C834 C 0.3599 0.36647 0.73739 0.0
C835 C 0.36235 0.38145 0.71953 0.0
C836 C 0.35427 0.38636 0.67917 0.0
C837 C 0.34346 0.37649 0.65834 0.0
C838 C 0.36838 0.36077 0.78011 0.0
C839 C 0.35665 0.40225 0.65899 0.0
C840 C 0.37741 0.41271 0.80039 0.0
C841 C 0.39284 0.41375 0.78643 0.0
C842 C 0.3674 0.40204 0.77945 0.0
C843 C 0.37301 0.39217 0.74388 0.0
C844 C 0.3887 0.39277 0.73092 0.0
C845 C 0.39843 0.40356 0.75231 0.0
C846 C 0.35073 0.40166 0.79434 0.0
C847 C 0.39513 0.38234 0.69346 0.0
H848 H 0.34686 0.34555 0.73061 0.0
H849 H 0.33691 0.38044 0.62841 0.0
H850 H 0.38099 0.36208 0.77528 0.0
H851 H 0.36509 0.36782 0.81087 0.0
H852 H 0.36583 0.3485 0.78791 0.0
H853 H 0.35002 0.40405 0.62625 0.0
H854 H 0.35304 0.41107 0.68482 0.0
H855 H 0.36904 0.40419 0.65158 0.0
H856 H 0.37301 0.42057 0.8266 0.0
H857 H 0.41036 0.40426 0.74139 0.0
H858 H 0.34747 0.38984 0.80522 0.0
H859 H 0.34326 0.40483 0.76439 0.0
H860 H 0.34833 0.40968 0.82368 0.0
H861 H 0.39264 0.37013 0.70194 0.0
H862 H 0.40777 0.38371 0.68914 0.0
H863 H 0.38948 0.3849 0.65957 0.0
C864 C 0.34722 0.64567 0.48234 0.0
C865 C 0.33805 0.64113 0.52032 0.0
C866 C 0.35798 0.63559 0.46246 0.0
C867 C 0.35972 0.62062 0.48118 0.0
C868 C 0.35097 0.61616 0.52071 0.0
C869 C 0.3402 0.62647 0.5398 0.0
C870 C 0.36712 0.64079 0.42041 0.0
C871 C 0.35265 0.60033 0.54192 0.0
C872 C 0.3752 0.58881 0.40298 0.0
C873 C 0.39055 0.58782 0.41783 0.0
C874 C 0.36508 0.59959 0.4229 0.0
C875 C 0.37043 0.60953 0.45864 0.0
C876 C 0.386 0.60883 0.47295 0.0
C877 C 0.39588 0.59804 0.45226 0.0
C878 C 0.34857 0.60013 0.40637 0.0
C879 C 0.39213 0.61923 0.51096 0.0
H880 H 0.34565 0.65698 0.46704 0.0
H881 H 0.33314 0.62287 0.56906 0.0
H882 H 0.37962 0.63933 0.42692 0.0
H883 H 0.36413 0.63354 0.38981 0.0
H884 H 0.36489 0.65303 0.41135 0.0
H885 H 0.3456 0.59893 0.57402 0.0
H886 H 0.34906 0.59147 0.51618 0.0
H887 H 0.36488 0.59807 0.55071 0.0
H888 H 0.37099 0.58094 0.3765 0.0
H889 H 0.40771 0.59734 0.46409 0.0
H890 H 0.34564 0.61194 0.39448 0.0
H891 H 0.34073 0.59729 0.43573 0.0
H892 H 0.34635 0.59196 0.37727 0.0
H893 H 0.39016 0.63147 0.50161 0.0
H894 H 0.40463 0.6175 0.51727 0.0
H895 H 0.38584 0.61702 0.54404 0.0
C896 C 0.12407 0.58799 0.29349 0.0
C897 C 0.10868 0.58705 0.279 0.0
C898 C 0.13429 0.59838 0.27224 0.0
C899 C 0.12896 0.60808 0.23586 0.0
C900 C 0.11334 0.60748 0.22203 0.0
C901 C 0.1034 0.59696 0.24371 0.0
C902 C 0.15089 0.59874 0.28796 0.0
C903 C 0.10719 0.61774 0.18369 0.0
C904 C 0.15282 0.64352 0.20873 0.0
C905 C 0.16143 0.63861 0.17001 0.0
C906 C 0.14198 0.63382 0.22989 0.0
C907 C 0.13975 0.6188 0.21206 0.0
C908 C 0.14804 0.61392 0.17207 0.0
C909 C 0.15877 0.62393 0.15137 0.0
C910 C 0.13322 0.6395 0.27211 0.0
C911 C 0.14593 0.59797 0.15205 0.0
H912 H 0.12823 0.58033 0.32058 0.0
H913 H 0.09151 0.59633 0.23235 0.0
H914 H 0.15853 0.59564 0.25835 0.0
H915 H 0.15406 0.61055 0.29921 0.0
H916 H 0.15314 0.59067 0.31729 0.0
H917 H 0.09462 0.6162 0.17813 0.0
H918 H 0.10944 0.63 0.19222 0.0
H919 H 0.11324 0.6152 0.15044 0.0
H920 H 0.15478 0.65489 0.22323 0.0
H921 H 0.16544 0.62004 0.12161 0.0
H922 H 0.13625 0.6324 0.30302 0.0
H923 H 0.12065 0.63825 0.26637 0.0
H924 H 0.13576 0.65175 0.28022 0.0
H925 H 0.14938 0.58923 0.17835 0.0
H926 H 0.15285 0.59615 0.11988 0.0
H927 H 0.13362 0.59594 0.14373 0.0
C928 C 0.12165 0.41388 0.89787 0.0
C929 C 0.10608 0.4134 0.91062 0.0
C930 C 0.13225 0.40339 0.9169 0.0
C931 C 0.12713 0.3922 0.94938 0.0
C932 C 0.11131 0.39123 0.96075 0.0
C933 C 0.10098 0.40183 0.94119 0.0
C934 C 0.14903 0.40466 0.90361 0.0
C935 C 0.10539 0.3794 0.995 0.0
C936 C 0.15331 0.35815 0.97346 0.0
C937 C 0.16085 0.36283 0.01448 0.0
C938 C 0.14215 0.36749 0.95226 0.0
C939 C 0.13838 0.38183 0.97264 0.0
C940 C 0.14557 0.38641 0.01487 0.0
C941 C 0.15674 0.37684 0.03531 0.0
C942 C 0.1347 0.36219 0.90737 0.0
C943 C 0.14174 0.4016 0.03779 0.0
H944 H 0.12568 0.42279 0.87436 0.0
H945 H 0.08895 0.40135 0.95118 0.0
H946 H 0.15592 0.40786 0.93477 0.0
H947 H 0.15338 0.39338 0.89108 0.0
H948 H 0.15101 0.41341 0.87593 0.0
H949 H 0.09264 0.37957 0.99796 0.0
H950 H 0.10906 0.36768 0.9843 0.0
H951 H 0.11038 0.38161 0.03005 0.0
H952 H 0.15641 0.34733 0.95709 0.0
H953 H 0.16253 0.38054 0.06692 0.0
H954 H 0.13766 0.37026 0.8787 0.0
H955 H 0.12198 0.36226 0.91097 0.0
H956 H 0.13843 0.35042 0.89711 0.0
H957 H 0.14482 0.41121 0.01403 0.0
H958 H 0.14794 0.40321 0.07139 0.0
H959 H 0.12918 0.40237 0.04444 0.0
C960 C 0.24204 0.1488 0.95349 0.0
C961 C 0.22964 0.15882 0.96129 0.0
C962 C 0.24851 0.14725 0.9087 0.0
C963 C 0.24266 0.15621 0.8713 0.0
C964 C 0.22998 0.16613 0.87891 0.0
C965 C 0.22355 0.16719 0.92363 0.0
C966 C 0.26182 0.13632 0.90161 0.0
C967 C 0.22362 0.17615 0.84028 0.0
C968 C 0.2696 0.16787 0.77363 0.0
C969 C 0.26432 0.15884 0.73627 0.0
C970 C 0.2628 0.1669 0.81785 0.0
C971 C 0.2506 0.1564 0.8253 0.0
C972 C 0.24544 0.14694 0.7881 0.0
C973 C 0.25225 0.14842 0.74372 0.0
C974 C 0.26839 0.17748 0.85621 0.0
C975 C 0.23267 0.13539 0.79512 0.0
H976 H 0.24668 0.14219 0.98236 0.0
H977 H 0.21399 0.175 0.92937 0.0
H978 H 0.25961 0.12875 0.87109 0.0
H979 H 0.27244 0.14295 0.89403 0.0
H980 H 0.26393 0.12901 0.9328 0.0
H981 H 0.21328 0.18273 0.85145 0.0
H982 H 0.23256 0.18445 0.82874 0.0
H983 H 0.22051 0.16901 0.80958 0.0
H984 H 0.27888 0.17602 0.76805 0.0
H985 H 0.24823 0.14133 0.71503 0.0
H986 H 0.27211 0.17065 0.88695 0.0
H987 H 0.25885 0.18507 0.86779 0.0
H988 H 0.27817 0.18482 0.84482 0.0
H989 H 0.23533 0.12783 0.82533 0.0
H990 H 0.23082 0.12808 0.76376 0.0
H991 H 0.22176 0.14148 0.80325 0.0
C992 C 0.088 -0.00089 0.18492 0.0
C993 C 0.09429 0.985 0.19881 0.0
C994 C 0.0894 0.00418 0.13858 0.0
C995 C 0.09774 0.99515 0.10598 0.0
C996 C 0.10477 0.98126 0.12055 0.0
C997 C 0.10271 0.9762 0.16666 0.0
C998 C 0.08144 0.0189 0.12411 0.0
C999 C 0.11425 0.97164 0.08732 0.0
C1000 C 0.08706 0.00131 0.97886 0.0
C1001 C 0.09741 0.01293 0.96623 0.0
C1002 C 0.08737 0.99497 0.02397 0.0
C1003 C 0.09862 8e-05 0.05636 0.0
C1004 C 0.10986 0.01093 0.04229 0.0
C1005 C 0.10892 0.01746 0.99761 0.0
C1006 C 0.07497 0.98369 0.03799 0.0
C1007 C 0.12238 0.01623 0.07518 0.0
H1008 H 0.08136 0.00581 0.20975 0.0
H1009 H 0.10765 0.96531 0.17762 0.0
H1010 H 0.08995 0.02718 0.10987 0.0
H1011 H 0.07301 0.01644 0.09593 0.0
H1012 H 0.07528 0.02448 0.15362 0.0
H1013 H 0.12007 0.9619 0.10525 0.0
H1014 H 0.10676 0.96691 0.05942 0.0
H1015 H 0.12311 0.97889 0.07009 0.0
H1016 H 0.07802 0.99802 0.95471 0.0
H1017 H 0.1169 0.02649 0.98765 0.0
H1018 H 0.06747 0.98903 0.06488 0.0
H1019 H 0.08014 0.97324 0.05374 0.0
H1020 H 0.06769 0.98017 0.00792 0.0
H1021 H 0.11733 0.02371 0.1026 0.0
H1022 H 0.13149 0.02285 0.05675 0.0
H1023 H 0.12776 0.00623 0.09297 0.0
C1024 C 0.2465 0.84195 0.2625 0.0
C1025 C 0.23228 0.84826 0.24974 0.0
C1026 C 0.25184 0.84306 0.30867 0.0
C1027 C 0.24294 0.8511 0.34231 0.0
C1028 C 0.22897 0.8582 0.32886 0.0
C1029 C 0.22367 0.85646 0.28287 0.0
C1030 C 0.26666 0.83508 0.32188 0.0
C1031 C 0.21946 0.86734 0.36323 0.0
C1032 C 0.2495 0.83938 0.46852 0.0
C1033 C 0.261 0.84976 0.48185 0.0
C1034 C 0.24311 0.83999 0.42348 0.0
C1035 C 0.24806 0.85154 0.39185 0.0
C1036 C 0.25881 0.86276 0.40663 0.0
C1037 C 0.26538 0.86156 0.45122 0.0
C1038 C 0.23189 0.82762 0.40872 0.0
C1039 C 0.26396 0.87558 0.37459 0.0
H1040 H 0.25307 0.83547 0.23698 0.0
H1041 H 0.21269 0.86142 0.27285 0.0
H1042 H 0.2749 0.84349 0.33688 0.0
H1043 H 0.26435 0.82629 0.34915 0.0
H1044 H 0.27221 0.82933 0.29157 0.0
H1045 H 0.20968 0.87336 0.34611 0.0
H1046 H 0.21479 0.85956 0.39049 0.0
H1047 H 0.22676 0.87602 0.38115 0.0
H1048 H 0.24631 0.83013 0.49205 0.0
H1049 H 0.27431 0.86958 0.46169 0.0
H1050 H 0.23717 0.82045 0.3809 0.0
H1051 H 0.22132 0.83286 0.39389 0.0
H1052 H 0.22856 0.82 0.43821 0.0
H1053 H 0.27133 0.8708 0.34646 0.0
H1054 H 0.27064 0.88454 0.3935 0.0
H1055 H 0.25388 0.8811 0.35765 0.0
C1056 C 0.39472 0.01478 0.68921 0.0
C1057 C 0.40601 0.02569 0.70061 0.0
C1058 C 0.39356 0.00891 0.64357 0.0
C1059 C 0.40419 0.01378 0.60902 0.0
C1060 C 0.41543 0.02497 0.62024 0.0
C1061 C 0.41609 0.0309 0.66571 0.0
C1062 C 0.38123 0.9972 0.63261 0.0
C1063 C 0.42723 0.03018 0.58483 0.0
C1064 C 0.41462 0.98545 0.5137 0.0
C1065 C 0.40718 0.99169 0.47453 0.0
C1066 C 0.41363 0.9925 0.55752 0.0
C1067 C 0.40471 0.00601 0.56273 0.0
C1068 C 0.39698 0.01232 0.52351 0.0
C1069 C 0.39846 0.00517 0.47958 0.0
C1070 C 0.42238 0.9856 0.59811 0.0
C1071 C 0.38714 0.02657 0.52806 0.0
H1072 H 0.38679 0.01086 0.71592 0.0
H1073 H 0.42488 0.0393 0.6743 0.0
H1074 H 0.37494 0.00053 0.6004 0.0
H1075 H 0.38661 0.98582 0.62602 0.0
H1076 H 0.37282 0.99595 0.6616 0.0
H1077 H 0.43463 0.03962 0.59834 0.0
H1078 H 0.43471 0.02033 0.5751 0.0
H1079 H 0.42147 0.03421 0.55248 0.0
H1080 H 0.4215 0.97509 0.50997 0.0
H1081 H 0.3926 0.00996 0.44946 0.0
H1082 H 0.41432 0.98258 0.62671 0.0
H1083 H 0.43065 0.99415 0.61223 0.0
H1084 H 0.42886 0.97507 0.58806 0.0
H1085 H 0.37827 0.02481 0.55545 0.0
H1086 H 0.3813 0.0296 0.49477 0.0
H1087 H 0.39433 0.03647 0.53916 0.0
C1088 C 0.74606 0.85537 0.22694 0.0
C1089 C 0.75828 0.84503 0.22065 0.0
C1090 C 0.7389 0.85688 0.27085 0.0
C1091 C 0.74385 0.84753 0.30861 0.0
C1092 C 0.75592 0.83682 0.30186 0.0
C1093 C 0.76308 0.83585 0.2582 0.0
C1094 C 0.72624 0.8686 0.27709 0.0
C1095 C 0.76129 0.82633 0.34075 0.0
C1096 C 0.73693 0.85652 0.43677 0.0
C1097 C 0.7246 0.84667 0.44703 0.0
C1098 C 0.74276 0.85763 0.39106 0.0
C1099 C 0.73627 0.84847 0.35512 0.0
C1100 C 0.72356 0.83884 0.36508 0.0
C1101 C 0.71781 0.83815 0.41075 0.0
C1102 C 0.75617 0.86823 0.38153 0.0
C1103 C 0.71652 0.82863 0.32805 0.0
H1104 H 0.74244 0.86257 0.19802 0.0
H1105 H 0.77244 0.82774 0.25331 0.0
H1106 H 0.71549 0.86283 0.28855 0.0
H1107 H 0.72949 0.8769 0.30489 0.0
H1108 H 0.72384 0.87509 0.24444 0.0
H1109 H 0.77059 0.81839 0.32934 0.0
H1110 H 0.76561 0.83328 0.37049 0.0
H1111 H 0.75149 0.81935 0.35383 0.0
H1112 H 0.74212 0.86326 0.46449 0.0
H1113 H 0.70826 0.83051 0.4183 0.0
H1114 H 0.75382 0.87544 0.35031 0.0
H1115 H 0.76661 0.86131 0.37397 0.0
H1116 H 0.75868 0.87591 0.41164 0.0
H1117 H 0.71357 0.83546 0.29656 0.0
H1118 H 0.70596 0.8227 0.34057 0.0
H1119 H 0.72501 0.81976 0.31723 0.0
C1120 C 0.91623 0.02804 0.03342 0.0
C1121 C 0.90716 0.02223 0.99684 0.0
C1122 C 0.91528 0.02189 0.07856 0.0
C1123 C 0.90475 0.00983 0.08774 0.0
C1124 C 0.89513 0.0043 0.05143 0.0
C1125 C 0.89659 0.01044 0.00616 0.0
C1126 C 0.92604 0.02784 0.1159 0.0
C1127 C 0.88355 0.99166 0.06016 0.0
C1128 C 0.91547 0.98204 0.18428 0.0
C1129 C 0.90692 0.98763 0.22222 0.0
C1130 C 0.9148 0.98915 0.14048 0.0
C1131 C 0.90503 0.00201 0.13398 0.0
C1132 C 0.8962 0.00766 0.17198 0.0
C1133 C 0.89741 0.00051 0.216 0.0
C1134 C 0.92474 0.98301 0.10135 0.0
C1135 C 0.88543 0.02115 0.16598 0.0
H1136 H 0.92447 0.03713 0.02645 0.0
H1137 H 0.88944 0.00603 0.97814 0.0
H1138 H 0.91945 0.03137 0.1473 0.0
H1139 H 0.93403 0.01852 0.12674 0.0
H1140 H 0.93298 0.03781 0.10372 0.0
H1141 H 0.87579 0.98985 0.0298 0.0
H1142 H 0.88966 0.9807 0.0675 0.0
H1143 H 0.87647 0.99441 0.09132 0.0
H1144 H 0.92294 0.97215 0.18904 0.0
H1145 H 0.89069 0.00476 0.24519 0.0
H1146 H 0.93256 0.99221 0.08859 0.0
H1147 H 0.91744 0.97944 0.07148 0.0
H1148 H 0.93183 0.973 0.11239 0.0
H1149 H 0.89205 0.03156 0.15591 0.0
H1150 H 0.87887 0.02372 0.19837 0.0
H1151 H 0.87716 0.01877 0.13733 0.0
C1152 C 0.76989 0.14545 0.93452 0.0
C1153 C 0.7633 0.15568 0.96671 0.0
C1154 C 0.76397 0.14403 0.88917 0.0
C1155 C 0.75152 0.15349 0.8753 0.0
C1156 C 0.7445 0.16348 0.90823 0.0
C1157 C 0.75036 0.16428 0.9539 0.0
C1158 C 0.77139 0.13284 0.85566 0.0
C1159 C 0.73136 0.17394 0.8945 0.0
C1160 C 0.74764 0.16438 0.74728 0.0
C1161 C 0.73461 0.15593 0.73436 0.0
C1162 C 0.75347 0.16348 0.79299 0.0
C1163 C 0.74632 0.15355 0.82582 0.0
C1164 C 0.73376 0.14426 0.81185 0.0
C1165 C 0.72789 0.14577 0.76647 0.0
C1166 C 0.76672 0.17377 0.80683 0.0
C1167 C 0.72619 0.13313 0.84526 0.0
H1168 H 0.77991 0.13877 0.9446 0.0
H1169 H 0.74542 0.17234 0.97868 0.0
H1170 H 0.76249 0.12569 0.83825 0.0
H1171 H 0.77758 0.13928 0.82795 0.0
H1172 H 0.77973 0.1251 0.87343 0.0
H1173 H 0.72691 0.18071 0.92454 0.0
H1174 H 0.73528 0.18207 0.86703 0.0
H1175 H 0.72176 0.16712 0.87956 0.0
H1176 H 0.75269 0.17238 0.72256 0.0
H1177 H 0.7178 0.13921 0.75629 0.0
H1178 H 0.77625 0.16681 0.82164 0.0
H1179 H 0.7629 0.1819 0.83443 0.0
H1180 H 0.77124 0.18053 0.77687 0.0
H1181 H 0.735 0.12584 0.86255 0.0
H1182 H 0.71774 0.12554 0.82744 0.0
H1183 H 0.72011 0.13962 0.87307 0.0
C1184 C 0.58224 0.02404 0.68439 0.0
C1185 C 0.59007 0.01799 0.72316 0.0
C1186 C 0.58327 0.01709 0.64042 0.0
C1187 C 0.59264 0.00391 0.63462 0.0
C1188 C 0.6008 0.99784 0.67339 0.0
C1189 C 0.59926 0.00485 0.7175 0.0
C1190 C 0.57406 0.02372 0.60035 0.0
C1191 C 0.61112 0.98396 0.66821 0.0
C1192 C 0.58146 0.97847 0.53272 0.0
C1193 C 0.59117 0.9839 0.49715 0.0
C1194 C 0.58218 0.98454 0.57799 0.0
C1195 C 0.5931 0.99614 0.58834 0.0
C1196 C 0.60334 0.00129 0.55309 0.0
C1197 C 0.60213 0.99523 0.50766 0.0
C1198 C 0.57079 0.97901 0.61418 0.0
C1199 C 0.61532 0.01344 0.56311 0.0
H1200 H 0.57501 0.03413 0.6886 0.0
H1201 H 0.60542 0.00023 0.7473 0.0
H1202 H 0.58184 0.02695 0.57123 0.0
H1203 H 0.56596 0.01491 0.58677 0.0
H1204 H 0.56735 0.03405 0.61075 0.0
H1205 H 0.61734 0.98119 0.70107 0.0
H1206 H 0.60421 0.97379 0.65775 0.0
H1207 H 0.61969 0.98602 0.64013 0.0
H1208 H 0.57292 0.96974 0.52486 0.0
H1209 H 0.60977 -0.00066 0.48043 0.0
H1210 H 0.5631 0.98864 0.62443 0.0
H1211 H 0.5769 0.97515 0.64613 0.0
H1212 H 0.56356 0.96936 0.60119 0.0
H1213 H 0.60959 0.02462 0.57004 0.0
H1214 H 0.62346 0.01497 0.53353 0.0
H1215 H 0.62197 0.01036 0.59488 0.0
C1216 C 0.74918 0.65343 0.46174 0.0
C1217 C 0.73621 0.66284 0.46758 0.0
C1218 C 0.75632 0.65207 0.41775 0.0
C1219 C 0.75054 0.66063 0.37935 0.0
C1220 C 0.73759 0.67029 0.38545 0.0
C1221 C 0.73051 0.67114 0.42926 0.0
C1222 C 0.76993 0.64143 0.41222 0.0
C1223 C 0.73129 0.67993 0.34582 0.0
C1224 C 0.77606 0.67156 0.2774 0.0
C1225 C 0.77025 0.6622 0.24153 0.0
C1226 C 0.77013 0.67076 0.32284 0.0
C1227 C 0.75826 0.66012 0.333 0.0
C1228 C 0.75276 0.65018 0.29745 0.0
C1229 C 0.7587 0.65145 0.25191 0.0
C1230 C 0.77607 0.68182 0.35939 0.0
C1231 C 0.7403 0.63849 0.30723 0.0
H1232 H 0.75352 0.64691 0.49122 0.0
H1233 H 0.72056 0.67854 0.43369 0.0
H1234 H 0.76758 0.63291 0.38423 0.0
H1235 H 0.78023 0.6481 0.40141 0.0
H1236 H 0.77266 0.63515 0.44501 0.0
H1237 H 0.72122 0.68698 0.35658 0.0
H1238 H 0.74037 0.68777 0.33249 0.0
H1239 H 0.72775 0.6724 0.31644 0.0
H1240 H 0.78497 0.67992 0.26968 0.0
H1241 H 0.75429 0.64407 0.22447 0.0
H1242 H 0.77968 0.67547 0.39117 0.0
H1243 H 0.76672 0.68983 0.36982 0.0
H1244 H 0.78598 0.68873 0.34663 0.0
H1245 H 0.74322 0.63167 0.33881 0.0
H1246 H 0.73853 0.63049 0.27744 0.0
H1247 H 0.72928 0.64451 0.31437 0.0
C1248 C 0.60182 0.50526 0.48029 0.0
C1249 C 0.59236 0.51821 0.47478 0.0
C1250 C 0.60346 0.49819 0.52429 0.0
C1251 C 0.59514 0.50402 0.56308 0.0
C1252 C 0.58544 0.51697 0.55737 0.0
C1253 C 0.5843 0.52397 0.51351 0.0
C1254 C 0.61412 0.48457 0.52939 0.0
C1255 C 0.57606 0.52332 0.59747 0.0
C1256 C 0.58478 0.47849 0.66559 0.0
C1257 C 0.59437 0.48429 0.70094 0.0
C1258 C 0.58531 0.48445 0.62014 0.0
C1259 C 0.59589 0.49631 0.60943 0.0
C1260 C 0.60604 0.50182 0.64445 0.0
C1261 C 0.60503 0.49586 0.69004 0.0
C1262 C 0.57402 0.47853 0.5842 0.0
C1263 C 0.61767 0.51426 0.63404 0.0
H1264 H 0.60815 0.50087 0.45051 0.0
H1265 H 0.57686 0.53391 0.50939 0.0
H1266 H 0.62276 0.4869 0.55706 0.0
H1267 H 0.60749 0.47427 0.54039 0.0
H1268 H 0.62025 0.48184 0.49635 0.0
H1269 H 0.56899 0.53342 0.58703 0.0
H1270 H 0.56827 0.51427 0.61124 0.0
H1271 H 0.58377 0.52684 0.62645 0.0
H1272 H 0.57648 0.46957 0.67375 0.0
H1273 H 0.61258 0.50026 0.7171 0.0
H1274 H 0.58018 0.47487 0.55213 0.0
H1275 H 0.566 0.48791 0.5741 0.0
H1276 H 0.56715 0.46866 0.59737 0.0
H1277 H 0.62433 0.51132 0.60217 0.0
H1278 H 0.62584 0.51604 0.66344 0.0
H1279 H 0.61163 0.52529 0.62712 0.0
C1280 C 0.72622 0.33731 0.77685 0.0
C1281 C 0.73106 0.34694 0.74036 0.0
C1282 C 0.73279 0.33836 0.82136 0.0
C1283 C 0.74429 0.34954 0.83 0.0
C1284 C 0.74893 0.35963 0.79372 0.0
C1285 C 0.74239 0.35807 0.74901 0.0
C1286 C 0.72778 0.32713 0.85874 0.0
C1287 C 0.76093 0.3719 0.80202 0.0
C1288 C 0.75224 0.35656 0.95882 0.0
C1289 C 0.76523 0.34726 0.966 0.0
C1290 C 0.7457 0.35807 0.9141 0.0
C1291 C 0.75213 0.3498 0.87613 0.0
C1292 C 0.76539 0.34063 0.88311 0.0
C1293 C 0.77184 0.33959 0.92781 0.0
C1294 C 0.73174 0.3682 0.90768 0.0
C1295 C 0.7724 0.33137 0.84379 0.0
H1296 H 0.71751 0.32863 0.77031 0.0
H1297 H 0.74605 0.36564 0.721 0.0
H1298 H 0.73773 0.32 0.86985 0.0
H1299 H 0.72363 0.33345 0.88997 0.0
H1300 H 0.71846 0.31933 0.84657 0.0
H1301 H 0.76233 0.37963 0.77138 0.0
H1302 H 0.75775 0.37896 0.83288 0.0
H1303 H 0.77219 0.36645 0.80972 0.0
H1304 H 0.74717 0.36264 0.98811 0.0
H1305 H 0.78186 0.33234 0.93305 0.0
H1306 H 0.72156 0.36098 0.89937 0.0
H1307 H 0.7335 0.37617 0.87785 0.0
H1308 H 0.72913 0.37508 0.93943 0.0
H1309 H 0.76399 0.32266 0.83137 0.0
H1310 H 0.78309 0.32532 0.85461 0.0
H1311 H 0.77513 0.33896 0.81377 0.0
C1312 C 0.90542 0.50757 0.18859 0.0
C1313 C 0.89919 0.52175 0.20198 0.0
C1314 C 0.90424 0.50246 0.14223 0.0
C1315 C 0.89617 0.51153 0.1091 0.0
C1316 C 0.88914 0.52548 0.12319 0.0
C1317 C 0.891 0.53057 0.16934 0.0
C1318 C 0.91218 0.48768 0.12829 0.0
C1319 C 0.87995 0.53515 0.08936 0.0
C1320 C 0.90772 0.50543 0.98266 0.0
C1321 C 0.89738 0.49391 0.9692 0.0
C1322 C 0.90714 0.5117 0.02783 0.0
C1323 C 0.89564 0.50663 0.05941 0.0
C1324 C 0.88442 0.49588 0.04448 0.0
C1325 C 0.88563 0.48941 0.99977 0.0
C1326 C 0.91951 0.52288 0.04279 0.0
C1327 C 0.87164 0.49062 0.07647 0.0
H1328 H 0.91189 0.50086 0.21379 0.0
H1329 H 0.88611 0.54153 0.17991 0.0
H1330 H 0.90372 0.47949 0.11331 0.0
H1331 H 0.92087 0.49009 0.10082 0.0
H1332 H 0.91803 0.48202 0.15825 0.0
H1333 H 0.87399 0.54487 0.10698 0.0
H1334 H 0.88767 0.53992 0.06212 0.0
H1335 H 0.87123 0.52794 0.07136 0.0
H1336 H 0.91695 0.5087 0.95913 0.0
H1337 H 0.87765 0.48045 0.98916 0.0
H1338 H 0.92675 0.5175 0.07029 0.0
H1339 H 0.91429 0.53338 0.0581 0.0
H1340 H 0.92708 0.52634 0.0133 0.0
H1341 H 0.87645 0.4831 0.1042 0.0
H1342 H 0.86264 0.48406 0.05739 0.0
H1343 H 0.86618 0.50064 0.09393 0.0
C1344 C 0.27232 0.35987 0.76428 0.0
C1345 C 0.26561 0.34972 0.73206 0.0
C1346 C 0.26636 0.36144 0.80953 0.0
C1347 C 0.25371 0.35224 0.8233 0.0
C1348 C 0.24657 0.34233 0.79037 0.0
C1349 C 0.2525 0.34137 0.74479 0.0
C1350 C 0.27393 0.37253 0.84304 0.0
C1351 C 0.23322 0.33215 0.80398 0.0
C1352 C 0.24925 0.34173 0.95149 0.0
C1353 C 0.23636 0.35048 0.96391 0.0
C1354 C 0.25523 0.3424 0.90592 0.0
C1355 C 0.24838 0.3524 0.87268 0.0
C1356 C 0.23598 0.36199 0.88614 0.0
C1357 C 0.22995 0.36072 0.93141 0.0
C1358 C 0.2683 0.3318 0.89264 0.0
C1359 C 0.22873 0.37319 0.85229 0.0
H1360 H 0.28247 0.36636 0.75429 0.0
H1361 H 0.24745 0.33338 0.72001 0.0
H1362 H 0.26514 0.37992 0.86001 0.0
H1363 H 0.27987 0.36602 0.87109 0.0
H1364 H 0.28251 0.38003 0.82539 0.0
H1365 H 0.22872 0.3254 0.77397 0.0
H1366 H 0.23691 0.32402 0.83173 0.0
H1367 H 0.2237 0.33919 0.81853 0.0
H1368 H 0.25405 0.33366 0.97647 0.0
H1369 H 0.21997 0.3675 0.94115 0.0
H1370 H 0.27799 0.33852 0.8778 0.0
H1371 H 0.26437 0.32366 0.86522 0.0
H1372 H 0.27263 0.32505 0.92289 0.0
H1373 H 0.23773 0.38025 0.83503 0.0
H1374 H 0.22039 0.38101 0.86973 0.0
H1375 H 0.22258 0.36675 0.8245 0.0
C1376 C 0.39849 0.50812 0.50765 0.0
C1377 C 0.40876 0.52013 0.49762 0.0
C1378 C 0.39744 0.502 0.55303 0.0
C1379 C 0.40715 0.5078 0.58876 0.0
C1380 C 0.41733 0.52008 0.5789 0.0
C1381 C 0.4179 0.52619 0.53364 0.0
C1382 C 0.38623 0.48909 0.5625 0.0
C1383 C 0.42815 0.52635 0.61563 0.0
C1384 C 0.40072 0.4986 0.71748 0.0
C1385 C 0.41065 0.48603 0.7236 0.0
C1386 C 0.39907 0.50558 0.67336 0.0
C1387 C 0.40785 0.50007 0.63508 0.0
C1388 C 0.41798 0.48749 0.64138 0.0
C1389 C 0.41912 0.48055 0.68534 0.0
C1390 C 0.38793 0.51878 0.66761 0.0
C1391 C 0.42786 0.48151 0.60186 0.0
H1392 H 0.39129 0.50351 0.48007 0.0
H1393 H 0.4259 0.53545 0.52616 0.0
H1394 H 0.39264 0.4783 0.56972 0.0
H1395 H 0.37923 0.49173 0.59394 0.0
H1396 H 0.37836 0.48704 0.53253 0.0
H1397 H 0.43479 0.53646 0.60299 0.0
H1398 H 0.42164 0.52977 0.64729 0.0
H1399 H 0.43641 0.51724 0.62623 0.0
H1400 H 0.39406 0.50277 0.7469 0.0
H1401 H 0.42691 0.4709 0.68994 0.0
H1402 H 0.37962 0.51616 0.63924 0.0
H1403 H 0.39424 0.52935 0.65728 0.0
H1404 H 0.38141 0.5212 0.70019 0.0
H1405 H 0.42049 0.47775 0.57235 0.0
H1406 H 0.4352 0.47165 0.61269 0.0
H1407 H 0.43543 0.49084 0.58868 0.0
C1408 C 0.27491 0.64708 0.41325 0.0
C1409 C 0.26649 0.65552 0.44629 0.0
C1410 C 0.26952 0.64532 0.36737 0.0
C1411 C 0.25566 0.65264 0.35393 0.0
C1412 C 0.24695 0.66092 0.3875 0.0
C1413 C 0.25237 0.66205 0.43358 0.0
C1414 C 0.27881 0.63593 0.33308 0.0
C1415 C 0.23226 0.66915 0.37428 0.0
C1416 C 0.24932 0.66414 0.22742 0.0
C1417 C 0.23765 0.65391 0.21428 0.0
C1418 C 0.25565 0.66357 0.27253 0.0
C1419 C 0.25049 0.6522 0.30445 0.0
C1420 C 0.23953 0.64113 0.28993 0.0
C1421 C 0.23303 0.6423 0.24525 0.0
C1422 C 0.26708 0.67578 0.28702 0.0
C1423 C 0.23415 0.6285 0.3223 0.0
H1424 H 0.28581 0.64195 0.42324 0.0
H1425 H 0.24596 0.66871 0.45904 0.0
H1426 H 0.27133 0.62736 0.31542 0.0
H1427 H 0.2836 0.64356 0.30563 0.0
H1428 H 0.2885 0.62977 0.35022 0.0
H1429 H 0.22684 0.67504 0.40456 0.0
H1430 H 0.23471 0.67786 0.34688 0.0
H1431 H 0.22386 0.66087 0.35946 0.0
H1432 H 0.2527 0.67325 0.20363 0.0
H1433 H 0.22398 0.63439 0.23493 0.0
H1434 H 0.27758 0.67039 0.30181 0.0
H1435 H 0.26194 0.68307 0.3148 0.0
H1436 H 0.27049 0.68331 0.2574 0.0
H1437 H 0.24413 0.6228 0.33925 0.0
H1438 H 0.22726 0.61963 0.30366 0.0
H1439 H 0.22692 0.6335 0.3504 0.0
C1440 C 0.0973 0.50198 0.22091 0.0
C1441 C 0.08707 0.51431 0.22685 0.0
C1442 C 0.09879 0.49471 0.17714 0.0
C1443 C 0.08952 0.49966 0.13919 0.0
C1444 C 0.07894 0.51187 0.14558 0.0
C1445 C 0.078 0.51914 0.18909 0.0
C1446 C 0.11041 0.48194 0.17125 0.0
C1447 C 0.06852 0.51722 0.10653 0.0
C1448 C 0.09832 0.49224 0.01113 0.0
C1449 C 0.08842 0.47991 1.00139 0.0
C1450 C 0.09954 0.4982 0.05666 0.0
C1451 C 0.09037 0.49191 0.0929 0.0
C1452 C 0.08065 0.47922 0.08343 0.0
C1453 C 0.07991 0.4733 0.03796 0.0
C1454 C 0.11027 0.51155 0.06568 0.0
C1455 C 0.0704 0.47241 0.12073 0.0
H1456 H 0.10442 0.49835 0.25 0.0
H1457 H 0.06998 0.5286 0.19372 0.0
H1458 H 0.10455 0.47119 0.16027 0.0
H1459 H 0.1187 0.48501 0.14324 0.0
H1460 H 0.11692 0.47963 0.20392 0.0
H1461 H 0.06066 0.52662 0.11768 0.0
H1462 H 0.07551 0.52141 0.07671 0.0
H1463 H 0.06145 0.50745 0.09366 0.0
H1464 H 0.10506 0.49728 0.98315 0.0
H1465 H 0.0722 0.46377 0.03077 0.0
H1466 H 0.11746 0.50926 0.09698 0.0
H1467 H 0.10345 0.52209 0.07286 0.0
H1468 H 0.11796 0.51386 0.03547 0.0
H1469 H 0.07722 0.46948 0.15224 0.0
H1470 H 0.06434 0.46188 0.10855 0.0
H1471 H 0.06164 0.48103 0.13137 0.0
C1472 C 0.21743 0.22233 0.10518 0.0
C1473 C 0.20526 0.2129 0.1198 0.0
C1474 C 0.21609 0.2384 0.10605 0.0
C1475 C 0.20242 0.24522 0.12331 0.0
C1476 C 0.19035 0.23577 0.14016 0.0
C1477 C 0.19181 0.21968 0.13748 0.0
C1478 C 0.2291 0.24806 0.08678 0.0
C1479 C 0.17583 0.24266 0.16022 0.0
C1480 C 0.20765 0.28752 0.15145 0.0
C1481 C 0.20182 0.29447 0.11096 0.0
C1482 C 0.20691 0.2715 0.15755 0.0
C1483 C 0.20066 0.26224 0.12155 0.0
C1484 C 0.1942 0.26927 0.08142 0.0
C1485 C 0.19465 0.28535 0.07694 0.0
C1486 C 0.21345 0.26446 0.2015 0.0
C1487 C 0.18776 0.25978 0.04176 0.0
H1488 H 0.22779 0.21714 0.09107 0.0
H1489 H 0.18242 0.21239 0.14905 0.0
H1490 H 0.22488 0.25509 0.05704 0.0
H1491 H 0.23335 0.25614 0.11386 0.0
H1492 H 0.23894 0.24094 0.07454 0.0
H1493 H 0.16819 0.23378 0.17588 0.0
H1494 H 0.17873 0.2513 0.18738 0.0
H1495 H 0.16935 0.24873 0.13237 0.0
H1496 H 0.21307 0.29459 0.17801 0.0
H1497 H 0.19022 0.29071 0.04548 0.0
H1498 H 0.22444 0.25854 0.19332 0.0
H1499 H 0.20544 0.2557 0.21583 0.0
H1500 H 0.21572 0.27326 0.22883 0.0
H1501 H 0.19718 0.25307 0.02528 0.0
H1502 H 0.18222 0.26702 0.01451 0.0
H1503 H 0.17916 0.25141 0.05499 0.0
C1504 C 0.03264 0.94546 0.38179 0.0
C1505 C 0.03802 0.95839 0.35749 0.0
C1506 C 0.01681 0.94341 0.38996 0.0
C1507 C 0.00619 0.95423 0.37169 0.0
C1508 C 0.01163 0.96724 0.34681 0.0
C1509 C 0.0275 0.9693 0.3408 0.0
C1510 C 0.01144 0.92973 0.41811 0.0
C1511 C 0.0007 0.97882 0.3255 0.0
C1512 C 0.96506 0.94364 0.34239 0.0
C1513 C 0.9569 0.95249 0.37502 0.0
C1514 C 0.9812 0.94344 0.34235 0.0
C1515 C 0.98932 0.95188 0.37675 0.0
C1516 C 0.9811 0.95973 0.41223 0.0
C1517 C 0.96495 0.9602 0.41041 0.0
C1518 C 0.9895 0.93528 0.30311 0.0
C1519 C 0.98935 0.96839 0.45049 0.0
H1520 H 0.04083 0.93709 0.39499 0.0
H1521 H 0.03168 0.97923 0.32165 0.0
H1522 H 0.00408 0.93365 0.4475 0.0
H1523 H 0.00431 0.92204 0.39601 0.0
H1524 H 0.02121 0.92295 0.43245 0.0
H1525 H 0.00682 0.98802 0.30593 0.0
H1526 H 0.99265 0.97292 0.30127 0.0
H1527 H 0.99366 0.9843 0.35322 0.0
H1528 H 0.95886 0.93778 0.31474 0.0
H1529 H 0.95864 0.96694 0.43589 0.0
H1530 H -0.00118 0.92787 0.31701 0.0
H1531 H 0.99494 0.94395 0.27988 0.0
H1532 H 0.9816 0.92807 0.28181 0.0
H1533 H -0.00099 0.96143 0.46462 0.0
H1534 H 0.98148 0.97149 0.4796 0.0
H1535 H 0.99431 0.97916 0.43608 0.0
C1536 C 0.30737 0.78584 0.57212 0.0
C1537 C 0.30112 0.79368 0.61047 0.0
C1538 C 0.308 0.7697 0.57139 0.0
C1539 C 0.30266 0.76127 0.61053 0.0
C1540 C 0.29755 0.7692 0.65085 0.0
C1541 C 0.29658 0.78533 0.65005 0.0
C1542 C 0.31319 0.76168 0.52729 0.0
C1543 C 0.29222 0.76065 0.69382 0.0
C1544 C 0.28387 0.72266 0.58744 0.0
C1545 C 0.29589 0.71235 0.59686 0.0
C1546 C 0.28601 0.73858 0.59154 0.0
C1547 C 0.30041 0.74434 0.60682 0.0
C1548 C 0.3125 0.73398 0.61756 0.0
C1549 C 0.31018 0.71807 0.61169 0.0
C1550 C 0.27292 0.74924 0.57865 0.0
C1551 C 0.32783 0.73971 0.63532 0.0
H1552 H 0.31079 0.79227 0.54135 0.0
H1553 H 0.29187 0.7914 0.67992 0.0
H1554 H 0.32163 0.75249 0.53542 0.0
H1555 H 0.30313 0.75611 0.51037 0.0
H1556 H 0.31847 0.7698 0.50192 0.0
H1557 H 0.29109 0.76839 0.72452 0.0
H1558 H 0.28083 0.75532 0.68695 0.0
H1559 H 0.30036 0.75123 0.70261 0.0
H1560 H 0.27286 0.71828 0.57552 0.0
H1561 H 0.31945 0.71009 0.61926 0.0
H1562 H 0.27669 0.75734 0.55094 0.0
H1563 H 0.26951 0.75623 0.60937 0.0
H1564 H 0.26263 0.74289 0.56595 0.0
H1565 H 0.33339 0.74707 0.60855 0.0
H1566 H 0.33579 0.73012 0.6442 0.0
H1567 H 0.3261 0.74693 0.66686 0.0
C1568 C 0.46355 0.05894 0.89865 0.0
C1569 C 0.45733 0.04679 0.87252 0.0
C1570 C 0.47951 0.06 0.90613 0.0
C1571 C 0.48942 0.04899 0.88538 0.0
C1572 C 0.48312 0.0366 0.85952 0.0
C1573 C 0.46713 0.03551 0.85412 0.0
C1574 C 0.48579 0.07303 0.93534 0.0
C1575 C 0.49328 0.02485 0.83571 0.0
C1576 C 0.53011 0.05947 0.85045 0.0
C1577 C 0.53877 0.05031 0.88102 0.0
C1578 C 0.51399 0.05966 0.85278 0.0
C1579 C 0.50641 0.05088 0.88753 0.0
C1580 C 0.51517 0.04255 0.92075 0.0
C1581 C 0.53128 0.04212 0.91654 0.0
C1582 C 0.50509 0.06836 0.81589 0.0
C1583 C 0.50752 0.03351 0.95933 0.0
H1584 H 0.45594 0.0676 0.9132 0.0
H1585 H 0.46234 0.02618 0.83357 0.0
H1586 H 0.49402 0.06854 0.96172 0.0
H1587 H 0.4922 0.0812 0.91279 0.0
H1588 H 0.47652 0.07947 0.95361 0.0
H1589 H 0.48653 0.01589 0.81705 0.0
H1590 H 0.5009 0.0307 0.81012 0.0
H1591 H 0.5008 0.01909 0.86169 0.0
H1592 H 0.53587 0.06572 0.82271 0.0
H1593 H 0.53799 0.03514 0.94046 0.0
H1594 H 0.49648 0.07608 0.8323 0.0
H1595 H 0.49869 0.06007 0.79364 0.0
H1596 H 0.51271 0.07538 0.7931 0.0
H1597 H 0.49831 0.04046 0.97605 0.0
H1598 H 0.51588 0.02986 0.98655 0.0
H1599 H 0.50204 0.02305 0.94454 0.0
C1600 C 0.21561 0.78108 0.10824 0.0
C1601 C 0.2037 0.79138 0.09769 0.0
C1602 C 0.21351 0.76516 0.10393 0.0
C1603 C 0.19928 0.75941 0.08726 0.0
C1604 C 0.18731 0.76977 0.07533 0.0
C1605 C 0.18958 0.78567 0.08146 0.0
C1606 C 0.22645 0.7545 0.11813 0.0
C1607 C 0.17218 0.76405 0.05607 0.0
C1608 C 0.20345 0.7184 0.04449 0.0
C1609 C 0.19848 0.71008 0.08362 0.0
C1610 C 0.20256 0.73453 0.04359 0.0
C1611 C 0.19705 0.74249 0.08339 0.0
C1612 C 0.19127 0.73409 0.12201 0.0
C1613 C 0.19186 0.71794 0.12135 0.0
C1614 C 0.20837 0.74307 1.00116 0.0
C1615 C 0.18564 0.74212 0.16556 0.0
H1616 H 0.22649 0.78547 0.12125 0.0
H1617 H 0.18039 0.79366 0.07302 0.0
H1618 H 0.22239 0.74642 0.14551 0.0
H1619 H 0.23017 0.74749 0.08778 0.0
H1620 H 0.23661 0.76084 0.13177 0.0
H1621 H 0.16434 0.77364 0.04634 0.0
H1622 H 0.17425 0.7568 0.02476 0.0
H1623 H 0.16632 0.75671 0.08231 0.0
H1624 H 0.20844 0.71232 0.01508 0.0
H1625 H 0.18809 0.71153 0.15178 0.0
H1626 H 0.21968 0.74839 0.00916 0.0
H1627 H 0.20034 0.75249 0.99153 0.0
H1628 H 0.20983 0.73531 0.9706 0.0
H1629 H 0.19552 0.74771 0.18339 0.0
H1630 H 0.1801 0.73402 0.19046 0.0
H1631 H 0.17729 0.75132 0.15659 0.0
C1632 C 0.46573 0.96595 0.28169 0.0
C1633 C 0.45818 0.95827 0.31815 0.0
C1634 C 0.48184 0.96539 0.27763 0.0
C1635 C 0.49055 0.95749 0.31191 0.0
C1636 C 0.48291 0.94921 0.34768 0.0
C1637 C 0.46679 0.94949 0.34987 0.0
C1638 C 0.48955 0.97385 0.23797 0.0
C1639 C 0.49175 0.941 0.38571 0.0
C1640 C 0.53338 0.9491 0.3021 0.0
C1641 C 0.53964 0.96157 0.32672 0.0
C1642 C 0.51742 0.94801 0.29467 0.0
C1643 C 0.50755 0.95933 0.31393 0.0
C1644 C 0.51388 0.97205 0.33822 0.0
C1645 C 0.52987 0.97314 0.3436 0.0
C1646 C 0.51111 0.9346 0.2671 0.0
C1647 C 0.50375 0.98416 0.36044 0.0
H1648 H 0.45906 0.97264 0.25691 0.0
H1649 H 0.46098 0.94365 0.37833 0.0
H1650 H 0.49506 0.98449 0.25144 0.0
H1651 H 0.49875 0.96665 0.22222 0.0
H1652 H 0.48122 0.97715 0.21025 0.0
H1653 H 0.48409 0.93434 0.40932 0.0
H1654 H 0.50033 0.93302 0.37034 0.0
H1655 H 0.49817 0.94956 0.40691 0.0
H1656 H 0.54096 0.94022 0.28872 0.0
H1657 H 0.53469 0.98273 0.36298 0.0
H1658 H 0.50291 0.93876 0.24014 0.0
H1659 H 0.50466 0.92678 0.29064 0.0
H1660 H 0.52036 0.92789 0.2497 0.0
H1661 H 0.49628 0.98959 0.33369 0.0
H1662 H 0.51053 0.99334 0.37799 0.0
H1663 H 0.49608 0.97871 0.3867 0.0
C1664 C 0.28093 0.22137 0.59328 0.0
C1665 C 0.29288 0.21148 0.57978 0.0
C1666 C 0.28278 0.23738 0.5918 0.0
C1667 C 0.29676 0.24368 0.57498 0.0
C1668 C 0.30863 0.23376 0.55925 0.0
C1669 C 0.30664 0.21773 0.56262 0.0
C1670 C 0.26998 0.24754 0.60996 0.0
C1671 C 0.32347 0.24007 0.53961 0.0
C1672 C 0.2929 0.28597 0.54484 0.0
C1673 C 0.29875 0.29294 0.58529 0.0
C1674 C 0.29324 0.26992 0.5394 0.0
C1675 C 0.29905 0.26064 0.57605 0.0
C1676 C 0.30552 0.26767 0.61617 0.0
C1677 C 0.30551 0.28378 0.61995 0.0
C1678 C 0.28673 0.26287 0.49542 0.0
C1679 C 0.31147 0.25818 0.65654 0.0
H1680 H 0.27032 0.21657 0.607 0.0
H1681 H 0.31586 0.21009 0.55192 0.0
H1682 H 0.27427 0.25462 0.63951 0.0
H1683 H 0.26611 0.25559 0.58226 0.0
H1684 H 0.25988 0.2408 0.62214 0.0
H1685 H 0.3309 0.23088 0.52477 0.0
H1686 H 0.32098 0.24866 0.51191 0.0
H1687 H 0.32998 0.24609 0.56749 0.0
H1688 H 0.28779 0.29308 0.51781 0.0
H1689 H 0.30993 0.28915 0.6514 0.0
H1690 H 0.2755 0.25736 0.50326 0.0
H1691 H 0.29452 0.25377 0.48193 0.0
H1692 H 0.28491 0.2716 0.46758 0.0
H1693 H 0.30176 0.25185 0.67288 0.0
H1694 H 0.31709 0.26538 0.68372 0.0
H1695 H 0.31987 0.24948 0.6441 0.0
C1696 C 0.96618 0.06012 0.81426 0.0
C1697 C 0.95985 0.04644 0.83189 0.0
C1698 C 0.98219 0.06183 0.80954 0.0
C1699 C 0.99204 0.04976 0.82411 0.0
C1700 C 0.98567 0.03584 0.84117 0.0
C1701 C 0.96965 0.03428 0.84423 0.0
C1702 C 0.98857 0.07664 0.78984 0.0
C1703 C 0.99578 0.02279 0.8579 0.0
C1704 C 0.03393 0.04546 0.78983 0.0
C1705 C 0.04139 0.05089 0.83003 0.0
C1706 C 0.01784 0.04606 0.78593 0.0
C1707 C 0.00903 0.05177 0.82374 0.0
C1708 C 0.01656 0.05791 0.8635 0.0
C1709 C 0.03269 0.05759 0.86588 0.0
C1710 C 0.01025 0.03985 0.74238 0.0
C1711 C 0.00757 0.06384 0.90495 0.0
H1712 H 0.95861 0.0695 0.80441 0.0
H1713 H 0.96482 0.02373 0.85822 0.0
H1714 H 0.99493 0.08296 0.81743 0.0
H1715 H 0.99686 0.07413 0.76135 0.0
H1716 H 0.97936 0.08428 0.776 0.0
H1717 H 0.98899 0.01272 0.87007 0.0
H1718 H 0.00355 0.01897 0.82942 0.0
H1719 H 0.00316 0.02682 0.88713 0.0
H1720 H 0.04066 0.04041 0.76185 0.0
H1721 H 0.03842 0.0617 0.89711 0.0
H1722 H 0.00114 0.04784 0.73004 0.0
H1723 H 0.00464 0.02867 0.7503 0.0
H1724 H 0.01866 0.03802 0.71367 0.0
H1725 H -0.00114 0.07239 0.89359 0.0
H1726 H 0.01512 0.06926 0.93161 0.0
H1727 H 0.00128 0.05415 0.92156 0.0
C1728 C 0.80404 0.72051 0.0466 0.0
C1729 C 0.79156 0.71409 0.07077 0.0
C1730 C 0.80506 0.73651 0.03969 0.0
C1731 C 0.79364 0.74625 0.05902 0.0
C1732 C 0.7809 0.73976 0.08279 0.0
C1733 C 0.7799 0.72374 0.08767 0.0
C1734 C 0.8185 0.74299 0.01267 0.0
C1735 C 0.76867 0.74974 0.10502 0.0
C1736 C 0.803 0.78694 0.09677 0.0
C1737 C 0.79423 0.7956 0.06517 0.0
C1738 C 0.80348 0.77084 0.0939 0.0
C1739 C 0.79539 0.76327 0.0576 0.0
C1740 C 0.78752 0.77204 0.02342 0.0
C1741 C 0.78677 0.78813 0.02813 0.0
C1742 C 0.81167 0.76191 0.13179 0.0
C1743 C 0.77924 0.76442 0.98324 0.0
H1744 H 0.81301 0.71303 0.0332 0.0
H1745 H 0.77029 0.71881 0.1067 0.0
H1746 H 0.81439 0.75129 0.98596 0.0
H1747 H 0.82625 0.74936 0.03666 0.0
H1748 H 0.82529 0.73383 0.99505 0.0
H1749 H 0.75948 0.74285 0.12209 0.0
H1750 H 0.774 0.75735 0.13167 0.0
H1751 H 0.76328 0.75728 0.07836 0.0
H1752 H 0.80868 0.79269 0.12566 0.0
H1753 H 0.78008 0.79483 0.00343 0.0
H1754 H 0.81972 0.75342 0.1163 0.0
H1755 H 0.8031 0.75538 0.15264 0.0
H1756 H 0.81825 0.76953 0.15574 0.0
H1757 H 0.78655 0.75532 0.96741 0.0
H1758 H 0.77599 0.77283 0.95569 0.0
H1759 H 0.7686 0.7588 0.99618 0.0
C1760 C 0.69437 0.22148 0.62005 0.0
C1761 C 0.70166 0.21242 0.58616 0.0
C1762 C 0.69411 0.23759 0.61613 0.0
C1763 C 0.70089 0.2447 0.57662 0.0
C1764 C 0.7073 0.23551 0.54072 0.0
C1765 C 0.70785 0.21946 0.54631 0.0
C1766 C 0.68751 0.24699 0.65573 0.0
C1767 C 0.71418 0.24264 0.49738 0.0
C1768 C 0.69226 0.28735 0.56192 0.0
C1769 C 0.70562 0.294 0.58062 0.0
C1770 C 0.69079 0.27128 0.55838 0.0
C1771 C 0.70274 0.26171 0.57547 0.0
C1772 C 0.71633 0.26841 0.59375 0.0
C1773 C 0.71769 0.28448 0.59541 0.0
C1774 C 0.67638 0.26453 0.53721 0.0
C1775 C 0.7292 0.25863 0.61334 0.0
H1776 H 0.68968 0.21605 0.65105 0.0
H1777 H 0.71337 0.21243 0.51986 0.0
H1778 H 0.69687 0.25364 0.67279 0.0
H1779 H 0.679 0.25542 0.64232 0.0
H1780 H 0.68183 0.2397 0.68256 0.0
H1781 H 0.71656 0.23392 0.46994 0.0
H1782 H 0.70632 0.25151 0.48284 0.0
H1783 H 0.72515 0.24846 0.50641 0.0
H1784 H 0.68295 0.29472 0.55021 0.0
H1785 H 0.72798 0.28958 0.61029 0.0
H1786 H 0.66968 0.25841 0.56448 0.0
H1787 H 0.67942 0.25595 0.51 0.0
H1788 H 0.6689 0.2735 0.52133 0.0
H1789 H 0.72479 0.25152 0.64266 0.0
H1790 H 0.73899 0.26566 0.6263 0.0
H1791 H 0.73355 0.25062 0.58624 0.0
C1792 C 0.80475 0.28701 0.14151 0.0
C1793 C 0.79113 0.29345 0.12384 0.0
C1794 C 0.80662 0.27096 0.14416 0.0
C1795 C 0.79479 0.26121 0.12726 0.0
C1796 C 0.78096 0.26769 0.10995 0.0
C1797 C 0.77921 0.28372 0.10914 0.0
C1798 C 0.8213 0.26444 0.16428 0.0
C1799 C 0.7682 0.25771 0.09061 0.0
C1800 C 0.80353 0.22125 0.08112 0.0
C1801 C 0.79655 0.21199 0.1151 0.0
C1802 C 0.80362 0.23734 0.08554 0.0
C1803 C 0.79697 0.24424 0.1256 0.0
C1804 C 0.79091 0.23485 0.16159 0.0
C1805 C 0.79053 0.21882 0.15553 0.0
C1806 C 0.80985 0.24697 0.04587 0.0
C1807 C 0.78418 0.24175 0.20548 0.0
H1808 H 0.81395 0.29453 0.15312 0.0
H1809 H 0.76873 0.28866 0.09502 0.0
H1810 H 0.8186 0.25575 0.19151 0.0
H1811 H 0.82792 0.25849 0.13649 0.0
H1812 H 0.82872 0.27351 0.17987 0.0
H1813 H 0.75821 0.26458 0.07823 0.0
H1814 H 0.77262 0.25076 0.06096 0.0
H1815 H 0.76412 0.24954 0.1177 0.0
H1816 H 0.8081 0.21598 0.04969 0.0
H1817 H 0.78525 0.21164 0.18205 0.0
H1818 H 0.81822 0.25557 0.05911 0.0
H1819 H 0.80027 0.25342 0.02924 0.0
H1820 H 0.81559 0.23984 0.01873 0.0
H1821 H 0.79197 0.25072 0.2198 0.0
H1822 H 0.78212 0.23291 0.23283 0.0
H1823 H 0.77305 0.2474 0.19722 0.0
C1824 C 0.69255 0.72138 0.59342 0.0
C1825 C 0.70164 0.71281 0.6244 0.0
C1826 C 0.69209 0.73749 0.59597 0.0
C1827 C 0.70053 0.74516 0.63134 0.0
C1828 C 0.70876 0.73647 0.66495 0.0
C1829 C 0.70946 0.72038 0.66056 0.0
C1830 C 0.6835 0.74633 0.55868 0.0
C1831 C 0.71744 0.7442 0.70416 0.0
C1832 C 0.71566 0.78469 0.59959 0.0
C1833 C 0.70419 0.79435 0.61763 0.0
C1834 C 0.7147 0.76868 0.60451 0.0
C1835 C 0.70221 0.76218 0.62949 0.0
C1836 C 0.69098 0.77193 0.64982 0.0
C1837 C 0.69194 0.78793 0.64286 0.0
C1838 C 0.7267 0.75869 0.58118 0.0
C1839 C 0.67783 0.76544 0.67811 0.0
H1840 H 0.68658 0.71556 0.5652 0.0
H1841 H 0.7164 0.71374 0.68479 0.0
H1842 H 0.67561 0.75485 0.57473 0.0
H1843 H 0.69185 0.75282 0.53689 0.0
H1844 H 0.6767 0.73864 0.53551 0.0
H1845 H 0.72102 0.73586 0.73151 0.0
H1846 H 0.72791 0.74984 0.69006 0.0
H1847 H 0.71026 0.7533 0.72055 0.0
H1848 H 0.72508 0.78963 0.57973 0.0
H1849 H 0.68312 0.79541 0.65712 0.0
H1850 H 0.7211 0.75103 0.55519 0.0
H1851 H 0.7324 0.75121 0.60738 0.0
H1852 H 0.73568 0.76558 0.56309 0.0
H1853 H 0.66992 0.75893 0.65497 0.0
H1854 H 0.67113 0.77461 0.69601 0.0
H1855 H 0.68224 0.75726 0.70472 0.0
C1856 C 0.53776 0.44905 0.89911 0.0
C1857 C 0.54352 0.46135 0.87269 0.0
C1858 C 0.52186 0.44743 0.90675 0.0
C1859 C 0.51155 0.45802 0.88585 0.0
C1860 C 0.51737 0.47058 0.85969 0.0
C1861 C 0.5333 0.47223 0.85415 0.0
C1862 C 0.51609 0.43424 0.9363 0.0
C1863 C 0.50676 0.48189 0.83572 0.0
C1864 C 0.47121 0.44603 0.85158 0.0
C1865 C 0.46227 0.45497 0.882 0.0
C1866 C 0.48733 0.44639 0.85377 0.0
C1867 C 0.49464 0.45553 0.88824 0.0
C1868 C 0.48563 0.46361 0.92138 0.0
C1869 C 0.46952 0.46348 0.91731 0.0
C1870 C 0.49649 0.43793 0.81698 0.0
C1871 C 0.49301 0.47301 0.95969 0.0
H1872 H 0.5457 0.4407 0.91375 0.0
H1873 H 0.53774 0.48168 0.83337 0.0
H1874 H 0.50774 0.43849 0.96266 0.0
H1875 H 0.50996 0.42579 0.91398 0.0
H1876 H 0.52561 0.42819 0.95462 0.0
H1877 H 0.51316 0.49104 0.81678 0.0
H1878 H 0.49932 0.47571 0.81036 0.0
H1879 H 0.49908 0.48745 0.86166 0.0
H1880 H 0.46564 0.43953 0.824 0.0
H1881 H 0.4626 0.4703 0.94111 0.0
H1882 H 0.5054 0.43058 0.83346 0.0
H1883 H 0.50254 0.44638 0.79443 0.0
H1884 H 0.4891 0.43057 0.79449 0.0
H1885 H 0.50249 0.46644 0.97642 0.0
H1886 H 0.48456 0.47641 0.98695 0.0
H1887 H 0.49808 0.48363 0.94463 0.0
C1888 C 0.96169 0.56069 0.3826 0.0
C1889 C 0.95587 0.54763 0.35992 0.0
C1890 C 0.97758 0.56229 0.3907 0.0
C1891 C 0.98782 0.55084 0.37398 0.0
C1892 C 0.98193 0.53768 0.35087 0.0
C1893 C 0.96601 0.53611 0.34491 0.0
C1894 C 0.98341 0.57618 0.41697 0.0
C1895 C 0.99247 0.52543 0.33122 0.0
C1896 C 0.02914 0.55989 0.34259 0.0
C1897 C 0.03715 0.55136 0.37632 0.0
C1898 C 0.01301 0.56047 0.34272 0.0
C1899 C 0.00476 0.55277 0.37839 0.0
C1900 C 0.01286 0.54523 0.41475 0.0
C1901 C 0.02899 0.54435 0.41277 0.0
C1902 C 0.00484 0.56823 0.30251 0.0
C1903 C 0.00448 0.53739 0.45433 0.0
H1904 H 0.9538 0.56953 0.39455 0.0
H1905 H 0.96151 0.52607 0.32702 0.0
H1906 H 0.99081 0.57247 0.44652 0.0
H1907 H 0.99062 0.58339 0.39365 0.0
H1908 H 0.97388 0.58338 0.43084 0.0
H1909 H 0.98603 0.51611 0.31316 0.0
H1910 H 0.00063 0.53068 0.30598 0.0
H1911 H -0.0006 0.5202 0.35962 0.0
H1912 H 0.03542 0.56522 0.31412 0.0
H1913 H 0.0352 0.53785 0.43907 0.0
H1914 H 0.99583 0.5762 0.31553 0.0
H1915 H -0.001 0.55938 0.28085 0.0
H1916 H 0.01288 0.5748 0.27983 0.0
H1917 H 0.99506 0.54482 0.46767 0.0
H1918 H 0.01234 0.53451 0.48369 0.0
H1919 H -0.00082 0.52656 0.44153 0.0
C1920 C 0.96121 0.46114 0.79366 0.0
C1921 C 0.95355 0.45554 0.83328 0.0
C1922 C 0.97729 0.46016 0.78992 0.0
C1923 C 0.98589 0.45385 0.82732 0.0
C1924 C 0.97814 0.44755 0.86644 0.0
C1925 C 0.96202 0.4483 0.86866 0.0
C1926 C 0.98511 0.46658 0.74703 0.0
C1927 C 0.98691 0.441 0.90746 0.0
C1928 C 0.02855 0.44459 0.81726 0.0
C1929 C 0.03519 0.45797 0.83597 0.0
C1930 C 0.0125 0.44327 0.81248 0.0
C1931 C 0.00292 0.45543 0.82809 0.0
C1932 C 0.0096 0.46902 0.84639 0.0
C1933 C 0.02565 0.4702 0.8495 0.0
C1934 C 0.00579 0.42881 0.79149 0.0
C1935 C -0.00021 0.48213 0.86426 0.0
H1936 H 0.95466 0.46661 0.76601 0.0
H1937 H 0.95614 0.44403 0.89945 0.0
H1938 H 0.99101 0.47752 0.75602 0.0
H1939 H 0.99401 0.45846 0.73408 0.0
H1940 H 0.97679 0.46892 0.7184 0.0
H1941 H 0.97918 0.4355 0.93348 0.0
H1942 H 0.99543 0.43235 0.89546 0.0
H1943 H 0.99339 0.45036 0.92506 0.0
H1944 H 0.03591 0.43515 0.8065 0.0
H1945 H 0.03072 0.48051 0.86433 0.0
H1946 H 0.99765 0.43179 0.76298 0.0
H1947 H -0.00084 0.42245 0.8184 0.0
H1948 H 0.01482 0.42104 0.77732 0.0
H1949 H 0.99218 0.48645 0.83605 0.0
H1950 H 0.00681 0.4919 0.87749 0.0
H1951 H 0.99227 0.47799 0.89297 0.0
C1952 C 0.46553 0.5571 0.30295 0.0
C1953 C 0.45981 0.54441 0.32771 0.0
C1954 C 0.48143 0.55888 0.29553 0.0
C1955 C 0.49178 0.54802 0.31496 0.0
C1956 C 0.48599 0.53509 0.33951 0.0
C1957 C 0.47006 0.53332 0.34486 0.0
C1958 C 0.48716 0.57248 0.26769 0.0
C1959 C 0.49664 0.52347 0.3619 0.0
C1960 C 0.53372 0.54284 0.28209 0.0
C1961 C 0.54108 0.55081 0.31834 0.0
C1962 C 0.5176 0.54285 0.27824 0.0
C1963 C 0.50869 0.55051 0.31255 0.0
C1964 C 0.51611 0.55913 0.34802 0.0
C1965 C 0.53224 0.55938 0.34999 0.0
C1966 C 0.51011 0.53404 0.23889 0.0
C1967 C 0.50706 0.56711 0.38603 0.0
H1968 H 0.45757 0.56562 0.28938 0.0
H1969 H 0.46566 0.52356 0.36438 0.0
H1970 H 0.49339 0.58056 0.29098 0.0
H1971 H 0.49543 0.5686 0.24055 0.0
H1972 H 0.47761 0.57883 0.25047 0.0
H1973 H 0.49026 0.51409 0.37989 0.0
H1974 H 0.50425 0.51824 0.33516 0.0
H1975 H 0.50415 0.5293 0.38782 0.0
H1976 H 0.54057 0.53631 0.25736 0.0
H1977 H 0.5379 0.56545 0.37829 0.0
H1978 H 0.50062 0.54086 0.22322 0.0
H1979 H 0.50505 0.52323 0.25266 0.0
H1980 H 0.51849 0.531 0.21105 0.0
H1981 H 0.4981 0.57466 0.37068 0.0
H1982 H 0.51452 0.57417 0.40917 0.0
H1983 H 0.50108 0.55836 0.40772 0.0
C1984 C 0.23048 0.14255 0.25627 0.0
C1985 C 0.23868 0.15285 0.22786 0.0
C1986 C 0.23449 0.14044 0.30351 0.0
C1987 C 0.2467 0.14916 0.32302 0.0
C1988 C 0.25535 0.15913 0.29398 0.0
C1989 C 0.25136 0.16069 0.24673 0.0
C1990 C 0.22529 0.12935 0.33295 0.0
C1991 C 0.26826 0.16888 0.31338 0.0
C1992 C 0.24533 0.16136 0.45021 0.0
C1993 C 0.25746 0.15283 0.4697 0.0
C1994 C 0.24137 0.15984 0.40293 0.0
C1995 C 0.24947 0.14924 0.37448 0.0
C1996 C 0.26111 0.13991 0.39459 0.0
C1997 C 0.26513 0.14197 0.44186 0.0
C1998 C 0.22909 0.17025 0.38287 0.0
C1999 C 0.2697 0.12816 0.36579 0.0
H2000 H 0.22073 0.13636 0.24185 0.0
H2001 H 0.25774 0.16871 0.22512 0.0
H2002 H 0.23306 0.12204 0.35426 0.0
H2003 H 0.21786 0.13589 0.35746 0.0
H2004 H 0.21782 0.1218 0.31132 0.0
H2005 H 0.27437 0.17546 0.28572 0.0
H2006 H 0.26354 0.17718 0.33918 0.0
H2007 H 0.27675 0.16157 0.33196 0.0
H2008 H 0.23937 0.16982 0.47137 0.0
H2009 H 0.27445 0.13527 0.45676 0.0
H2010 H 0.22015 0.16335 0.36481 0.0
H2011 H 0.2343 0.17805 0.35651 0.0
H2012 H 0.22342 0.1774 0.41007 0.0
H2013 H 0.26153 0.12116 0.34487 0.0
H2014 H 0.27674 0.12033 0.38786 0.0
H2015 H 0.27747 0.13412 0.34094 0.0
C2016 C 0.1079 0.98586 0.48989 0.0
C2017 C 0.0977 0.99454 0.46245 0.0
C2018 C 0.1104 0.98956 0.53715 0.0
C2019 C 0.10225 0.00199 0.55755 0.0
C2020 C 0.09257 0.01124 0.52933 0.0
C2021 C 0.09054 0.00749 0.4821 0.0
C2022 C 0.12115 0.97969 0.56578 0.0
C2023 C 0.08348 0.02448 0.54969 0.0
C2024 C 0.08943 0.00022 0.68382 0.0
C2025 C 0.09838 0.01182 0.70446 0.0
C2026 C 0.09109 0.99645 0.6365 0.0
C2027 C 0.1022 0.00426 0.60914 0.0
C2028 C 0.11198 0.01527 0.63043 0.0
C2029 C 0.10984 0.01906 0.67782 0.0
C2030 C 0.08028 0.98476 0.61519 0.0
C2031 C 0.12422 0.02355 0.60271 0.0
H2032 H 0.11358 0.97591 0.47486 0.0
H2033 H 0.08266 0.01429 0.46119 0.0
H2034 H 0.12867 0.98697 0.58802 0.0
H2035 H 0.11434 0.97218 0.58934 0.0
H2036 H 0.12851 0.97224 0.54344 0.0
H2037 H 0.07732 0.03119 0.52245 0.0
H2038 H 0.07488 0.01997 0.57488 0.0
H2039 H 0.09119 0.03238 0.56914 0.0
H2040 H 0.08055 0.99453 0.70409 0.0
H2041 H 0.11689 0.02795 0.69361 0.0
H2042 H 0.08688 0.97573 0.59649 0.0
H2043 H 0.07274 0.99051 0.58918 0.0
H2044 H 0.07287 0.9791 0.64177 0.0
H2045 H 0.13079 0.01528 0.58085 0.0
H2046 H 0.1324 0.02985 0.62565 0.0
H2047 H 0.11872 0.03196 0.57881 0.0
C2048 C 0.25434 0.84222 0.96692 0.0
C2049 C 0.24118 0.84945 0.98506 0.0
C2050 C 0.25839 0.84377 0.91973 0.0
C2051 C 0.24921 0.85298 0.88989 0.0
C2052 C 0.2365 0.86114 0.90863 0.0
C2053 C 0.23254 0.85917 0.95595 0.0
C2054 C 0.27195 0.83473 0.90121 0.0
C2055 C 0.22664 0.87135 0.87822 0.0
C2056 C 0.26691 0.8603 0.77014 0.0
C2057 C 0.26009 0.84856 0.74354 0.0
C2058 C 0.26286 0.8625 0.81732 0.0
C2059 C 0.25197 0.85255 0.83848 0.0
C2060 C 0.24465 0.84109 0.81122 0.0
C2061 C 0.2487 0.83933 0.76411 0.0
C2062 C 0.27066 0.87508 0.84493 0.0
C2063 C 0.2331 0.8301 0.8324 0.0
H2064 H 0.26113 0.83471 0.98909 0.0
H2065 H 0.22242 0.86488 0.96973 0.0
H2066 H 0.2678 0.82578 0.87653 0.0
H2067 H 0.27986 0.84239 0.8816 0.0
H2068 H 0.27855 0.82897 0.92951 0.0
H2069 H 0.21873 0.87866 0.89918 0.0
H2070 H 0.23395 0.87891 0.85618 0.0
H2071 H 0.21962 0.86413 0.85439 0.0
H2072 H 0.27564 0.86756 0.75444 0.0
H2073 H 0.24334 0.83023 0.7439 0.0
H2074 H 0.2788 0.86989 0.87031 0.0
H2075 H 0.26205 0.88175 0.86522 0.0
H2076 H 0.27717 0.88312 0.82211 0.0
H2077 H 0.23884 0.82292 0.85933 0.0
H2078 H 0.22786 0.82235 0.80592 0.0
H2079 H 0.22375 0.83659 0.84998 0.0
C2080 C 0.40299 0.0019 0.98488 0.0
C2081 C 0.39617 0.01531 0.96696 0.0
C2082 C 0.40174 0.99807 0.03233 0.0
C2083 C 0.39314 0.00768 0.06262 0.0
C2084 C 0.38527 0.02061 0.04409 0.0
C2085 C 0.38704 0.0244 0.99655 0.0
C2086 C 0.41055 0.98432 0.05059 0.0
C2087 C 0.3756 0.03087 0.07489 0.0
C2088 C 0.38687 0.99047 0.18363 0.0
C2089 C 0.39899 0.99721 0.20883 0.0
C2090 C 0.38415 0.99449 0.13666 0.0
C2091 C 0.39404 0.00514 0.11412 0.0
C2092 C 0.40592 0.01235 0.14 0.0
C2093 C 0.40811 0.00844 0.18706 0.0
C2094 C 0.37106 0.98691 0.11071 0.0
C2095 C 0.41692 0.02356 0.11729 0.0
H2096 H 0.41009 0.9948 0.96237 0.0
H2097 H 0.38164 0.03472 0.98292 0.0
H2098 H 0.41982 0.9883 0.07442 0.0
H2099 H 0.40285 0.97669 0.07106 0.0
H2100 H 0.41587 0.97746 0.02208 0.0
H2101 H 0.36821 0.03877 0.05414 0.0
H2102 H 0.36817 0.02387 0.0982 0.0
H2103 H 0.38322 0.03793 0.09744 0.0
H2104 H 0.37971 0.98186 0.20031 0.0
H2105 H 0.41753 0.01369 0.20616 0.0
H2106 H 0.37573 0.97843 0.08545 0.0
H2107 H 0.36446 0.99559 0.09046 0.0
H2108 H 0.36306 0.98082 0.1347 0.0
H2109 H 0.42362 0.01757 0.0897 0.0
H2110 H 0.42514 0.02866 0.14272 0.0
H2111 H 0.41047 0.03304 0.10021 0.0
C2112 C 0.74321 0.84428 0.9335 0.0
C2113 C 0.75423 0.8537 0.95514 0.0
C2114 C 0.73926 0.8463 0.8864 0.0
C2115 C 0.74621 0.85829 0.86032 0.0
C2116 C 0.75666 0.86844 0.88267 0.0
C2117 C 0.76072 0.86589 0.9297 0.0
C2118 C 0.72827 0.83502 0.86391 0.0
C2119 C 0.76396 0.88162 0.85646 0.0
C2120 C 0.74929 0.84925 0.73108 0.0
C2121 C 0.73571 0.85581 0.71341 0.0
C2122 C 0.75323 0.85063 0.77843 0.0
C2123 C 0.74354 0.8591 0.80886 0.0
C2124 C 0.73043 0.86671 0.79055 0.0
C2125 C 0.72655 0.86482 0.74312 0.0
C2126 C 0.76719 0.84211 0.79644 0.0
C2127 C 0.72006 0.87621 0.82152 0.0
H2128 H 0.73816 0.8348 0.95277 0.0
H2129 H 0.76917 0.87328 0.94626 0.0
H2130 H 0.71863 0.84126 0.84693 0.0
H2131 H 0.73436 0.82845 0.83628 0.0
H2132 H 0.72339 0.82672 0.88946 0.0
H2133 H 0.76997 0.88975 0.88027 0.0
H2134 H 0.77247 0.87707 0.83107 0.0
H2135 H 0.75514 0.88805 0.83633 0.0
H2136 H 0.75645 0.84225 0.70847 0.0
H2137 H 0.7161 0.87003 0.7297 0.0
H2138 H 0.76345 0.83275 0.82029 0.0
H2139 H 0.77469 0.84996 0.81681 0.0
H2140 H 0.7741 0.83695 0.7678 0.0
H2141 H 0.71324 0.86848 0.84438 0.0
H2142 H 0.71195 0.88341 0.80091 0.0
H2143 H 0.72698 0.88383 0.84451 0.0
C2144 C 0.88982 0.02119 0.70101 0.0
C2145 C 0.89948 0.01248 0.73011 0.0
C2146 C 0.88772 0.01718 0.65374 0.0
C2147 C 0.89576 0.0044 0.63494 0.0
C2148 C 0.90498 0.9952 0.66473 0.0
C2149 C 0.90658 -0.00075 0.71194 0.0
C2150 C 0.87744 0.02703 0.62349 0.0
C2151 C 0.91396 0.98161 0.64616 0.0
C2152 C 0.88818 0.98635 0.51569 0.0
C2153 C 0.89979 0.99316 0.48858 0.0
C2154 C 0.88606 0.99055 0.5628 0.0
C2155 C 0.89602 0.00154 0.5835 0.0
C2156 C 0.90736 0.00885 0.55572 0.0
C2157 C 0.90899 0.0047 0.50862 0.0
C2158 C 0.87356 0.98281 0.59087 0.0
C2159 C 0.91841 0.02045 0.57637 0.0
H2160 H 0.8842 0.03137 0.71482 0.0
H2161 H 0.91408 0.99244 0.73406 0.0
H2162 H 0.8846 0.03401 0.5994 0.0
H2163 H 0.86981 0.0197 0.60173 0.0
H2164 H 0.87021 0.03497 0.64456 0.0
H2165 H 0.91985 0.97509 0.67436 0.0
H2166 H 0.90623 0.97363 0.62707 0.0
H2167 H 0.92278 0.98571 0.621 0.0
H2168 H 0.88096 0.9775 0.50042 0.0
H2169 H 0.91801 0.01003 0.48805 0.0
H2170 H 0.86699 0.99146 0.61133 0.0
H2171 H 0.87881 0.97466 0.6161 0.0
H2172 H 0.86542 0.97632 0.56832 0.0
H2173 H 0.91197 0.02984 0.59391 0.0
H2174 H 0.92609 0.02561 0.54959 0.0
H2175 H 0.92566 0.01477 0.60326 0.0
C2176 C 0.76584 0.142 0.25691 0.0
C2177 C 0.75803 0.15295 0.22973 0.0
C2178 C 0.76196 0.13969 0.30416 0.0
C2179 C 0.75023 0.14878 0.32479 0.0
C2180 C 0.74183 0.15928 0.29682 0.0
C2181 C 0.74573 0.16112 0.24963 0.0
C2182 C 0.77091 0.12809 0.3325 0.0
C2183 C 0.72935 0.16934 0.31739 0.0
C2184 C 0.73214 0.1423 0.44425 0.0
C2185 C 0.74009 0.15316 0.47139 0.0
C2186 C 0.736 0.13991 0.39703 0.0
C2187 C 0.74786 0.14881 0.37638 0.0
C2188 C 0.75641 0.1592 0.40432 0.0
C2189 C 0.75252 0.16113 0.45148 0.0
C2190 C 0.72689 0.12843 0.36873 0.0
C2191 C 0.76904 0.16905 0.38373 0.0
H2192 H 0.77528 0.13555 0.24172 0.0
H2193 H 0.73959 0.16958 0.22895 0.0
H2194 H 0.77893 0.1342 0.35627 0.0
H2195 H 0.76302 0.12113 0.35452 0.0
H2196 H 0.77773 0.12022 0.30998 0.0
H2197 H 0.72324 0.17619 0.29034 0.0
H2198 H 0.72079 0.16222 0.33632 0.0
H2199 H 0.7345 0.17742 0.34307 0.0
H2200 H 0.7226 0.13601 0.45944 0.0
H2201 H 0.75877 0.16952 0.47213 0.0
H2202 H 0.73468 0.12134 0.34676 0.0
H2203 H 0.71896 0.13465 0.34491 0.0
H2204 H 0.71995 0.12067 0.39127 0.0
H2205 H 0.7775 0.16179 0.36483 0.0
H2206 H 0.77526 0.17581 0.41077 0.0
H2207 H 0.76402 0.1772 0.35803 0.0
C2208 C 0.61014 0.98483 0.20154 0.0
C2209 C 0.60059 0.99362 0.23073 0.0
C2210 C 0.61201 0.98867 0.15407 0.0
C2211 C 0.6038 0.00134 0.13517 0.0
C2212 C 0.59473 0.01064 0.16505 0.0
C2213 C 0.59339 0.00678 0.21246 0.0
C2214 C 0.62219 0.97876 0.12373 0.0
C2215 C 0.58555 0.02408 0.14637 0.0
C2216 C 0.61014 0.01896 0.01477 0.0
C2217 C 0.59837 0.0119 0.98889 0.0
C2218 C 0.61277 0.01492 0.06177 0.0
C2219 C 0.60313 0.0039 0.08364 0.0
C2220 C 0.59164 0.99634 0.05706 0.0
C2221 C 0.58954 0.0003 0.01 0.0
C2222 C 0.62545 0.02289 0.08848 0.0
C2223 C 0.58091 0.98471 0.07903 0.0
H2224 H 0.61583 0.97471 0.21545 0.0
H2225 H 0.58596 0.01364 0.23465 0.0
H2226 H 0.61494 0.97148 0.10071 0.0
H2227 H 0.62952 0.98603 0.10089 0.0
H2228 H 0.62971 0.97108 0.14482 0.0
H2229 H 0.57978 0.03071 0.1746 0.0
H2230 H 0.5931 0.03201 0.12649 0.0
H2231 H 0.5766 0.01981 0.12191 0.0
H2232 H 0.61708 0.02786 0.99862 0.0
H2233 H 0.58039 0.99479 0.99037 0.0
H2234 H 0.6322 0.01441 0.10906 0.0
H2235 H 0.62036 0.03121 0.11351 0.0
H2236 H 0.6334 0.02925 0.06497 0.0
H2237 H 0.58759 0.97547 0.09643 0.0
H2238 H 0.57305 0.97935 0.05307 0.0
H2239 H 0.57382 0.99043 0.10625 0.0
C2240 C 0.7466 0.65952 0.95707 0.0
C2241 C 0.75996 0.65266 0.97515 0.0
C2242 C 0.7427 0.65808 0.90971 0.0
C2243 C 0.75219 0.64925 0.87969 0.0
C2244 C 0.76508 0.64136 0.89842 0.0
C2245 C 0.76894 0.64332 0.94584 0.0
C2246 C 0.729 0.66691 0.89123 0.0
C2247 C 0.77521 0.63146 0.86792 0.0
C2248 C 0.73474 0.64244 0.75925 0.0
C2249 C 0.74148 0.65439 0.73336 0.0
C2250 C 0.73881 0.63994 0.80629 0.0
C2251 C 0.74956 0.64989 0.82818 0.0
C2252 C 0.75681 0.66158 0.80161 0.0
C2253 C 0.75282 0.66356 0.75452 0.0
C2254 C 0.73118 0.62706 0.83302 0.0
C2255 C 0.76813 0.67263 0.82359 0.0
H2256 H 0.73959 0.66678 0.97937 0.0
H2257 H 0.77923 0.63789 0.95959 0.0
H2258 H 0.73301 0.67602 0.86689 0.0
H2259 H 0.72127 0.65917 0.87128 0.0
H2260 H 0.72223 0.67244 0.91958 0.0
H2261 H 0.78311 0.62414 0.88889 0.0
H2262 H 0.76811 0.62393 0.84516 0.0
H2263 H 0.78226 0.63891 0.84482 0.0
H2264 H 0.72604 0.63524 0.74307 0.0
H2265 H 0.75808 0.67284 0.73489 0.0
H2266 H 0.72277 0.63194 0.85815 0.0
H2267 H 0.73984 0.62051 0.85348 0.0
H2268 H 0.72499 0.61897 0.80952 0.0
H2269 H 0.76224 0.67953 0.8509 0.0
H2270 H 0.77325 0.68065 0.79766 0.0
H2271 H 0.77758 0.6662 0.84088 0.0
C2272 C 0.59207 0.50156 0.18757 0.0
C2273 C 0.6009 0.5131 0.20902 0.0
C2274 C 0.59426 0.49767 0.14049 0.0
C2275 C 0.60583 0.50523 0.11425 0.0
C2276 C 0.61544 0.51621 0.13645 0.0
C2277 C 0.61273 0.52018 0.18346 0.0
C2278 C 0.58355 0.4861 0.11816 0.0
C2279 C 0.6282 0.52418 0.11009 0.0
C2280 C 0.61318 0.48608 0.99671 0.0
C2281 C 0.60369 0.49484 0.96722 0.0
C2282 C 0.61492 0.48997 0.04419 0.0
C2283 C 0.60667 0.50266 0.06276 0.0
C2284 C 0.59769 0.51194 0.03257 0.0
C2285 C 0.59646 0.50803 0.98517 0.0
C2286 C 0.62499 0.48006 0.07489 0.0
C2287 C 0.58848 0.52542 0.05089 0.0
H2288 H 0.58287 0.49605 0.20694 0.0
H2289 H 0.61967 0.52903 0.19987 0.0
H2290 H 0.57659 0.49185 0.09071 0.0
H2291 H 0.59025 0.47682 0.10099 0.0
H2292 H 0.57558 0.48076 0.14385 0.0
H2293 H 0.63606 0.53057 0.13381 0.0
H2294 H 0.63503 0.5157 0.08979 0.0
H2295 H 0.62319 0.53247 0.08483 0.0
H2296 H 0.61889 0.47594 0.98306 0.0
H2297 H 0.58909 0.51487 0.96273 0.0
H2298 H 0.61766 0.47281 0.09774 0.0
H2299 H 0.63227 0.48734 0.09789 0.0
H2300 H 0.63257 0.47237 0.05407 0.0
H2301 H 0.5794 0.52117 0.07496 0.0
H2302 H 0.58287 0.53207 0.02243 0.0
H2303 H 0.59597 0.53332 0.0711 0.0
C2304 C 0.75153 0.3473 0.45566 0.0
C2305 C 0.73833 0.35438 0.47404 0.0
C2306 C 0.75537 0.34874 0.40828 0.0
C2307 C 0.74598 0.35778 0.37855 0.0
C2308 C 0.73324 0.36583 0.39754 0.0
C2309 C 0.72944 0.36388 0.44499 0.0
C2310 C 0.76891 0.33973 0.38948 0.0
C2311 C 0.72321 0.37594 0.36731 0.0
C2312 C 0.76352 0.36463 0.25839 0.0
C2313 C 0.75644 0.35298 0.23211 0.0
C2314 C 0.7595 0.36705 0.30548 0.0
C2315 C 0.74856 0.35725 0.32706 0.0
C2316 C 0.74107 0.34579 0.30017 0.0
C2317 C 0.74494 0.34396 0.25295 0.0
C2318 C 0.76735 0.37973 0.33253 0.0
C2319 C 0.72961 0.33484 0.3219 0.0
H2320 H 0.75849 0.33993 0.47778 0.0
H2321 H 0.71929 0.36949 0.459 0.0
H2322 H 0.76474 0.3308 0.36481 0.0
H2323 H 0.77677 0.34741 0.36981 0.0
H2324 H 0.77558 0.33397 0.41763 0.0
H2325 H 0.71541 0.3833 0.38846 0.0
H2326 H 0.7304 0.38344 0.34473 0.0
H2327 H 0.71607 0.36865 0.34402 0.0
H2328 H 0.77234 0.37171 0.24235 0.0
H2329 H 0.73948 0.33487 0.23295 0.0
H2330 H 0.77564 0.37465 0.35766 0.0
H2331 H 0.75879 0.3864 0.35304 0.0
H2332 H 0.77371 0.38776 0.30926 0.0
H2333 H 0.73542 0.32779 0.34903 0.0
H2334 H 0.72437 0.32695 0.29578 0.0
H2335 H 0.72025 0.34135 0.33936 0.0
C2336 C 0.90568 0.50653 0.68663 0.0
C2337 C 0.89661 0.49515 0.70789 0.0
C2338 C 0.90376 0.51033 0.63941 0.0
C2339 C 0.89228 0.50278 0.61282 0.0
C2340 C 0.88241 0.49199 0.63477 0.0
C2341 C 0.8848 0.48816 0.68201 0.0
C2342 C 0.91468 0.52177 0.61737 0.0
C2343 C 0.86977 0.48401 0.60789 0.0
C2344 C 0.88608 0.52143 0.49415 0.0
C2345 C 0.89589 0.51257 0.46596 0.0
C2346 C 0.88384 0.51773 0.54154 0.0
C2347 C 0.89186 0.5051 0.56126 0.0
C2348 C 0.90112 0.49566 0.5323 0.0
C2349 C 0.90289 0.49942 0.48499 0.0
C2350 C 0.87354 0.52782 0.57098 0.0
C2351 C 0.91004 0.48219 0.55193 0.0
H2352 H 0.91482 0.51203 0.70631 0.0
H2353 H 0.87767 0.47944 0.6983 0.0
H2354 H 0.92186 0.51586 0.59076 0.0
H2355 H 0.90814 0.53097 0.59922 0.0
H2356 H 0.92244 0.52723 0.64341 0.0
H2357 H 0.86166 0.47785 0.63136 0.0
H2358 H 0.86321 0.49243 0.58659 0.0
H2359 H 0.8749 0.4755 0.58351 0.0
H2360 H 0.88053 0.53153 0.47962 0.0
H2361 H 0.91046 0.49247 0.46351 0.0
H2362 H 0.88071 0.53516 0.59407 0.0
H2363 H 0.86605 0.52068 0.59374 0.0
H2364 H 0.86618 0.53543 0.54922 0.0
H2365 H 0.91896 0.48647 0.57647 0.0
H2366 H 0.91582 0.47535 0.5242 0.0
H2367 H 0.90231 0.47446 0.57192 0.0
C2368 C 0.25382 0.34401 0.24668 0.0
C2369 C 0.24156 0.35237 0.22726 0.0
C2370 C 0.25788 0.34569 0.29382 0.0
C2371 C 0.24966 0.35618 0.32229 0.0
C2372 C 0.23794 0.36541 0.30221 0.0
C2373 C 0.23392 0.3633 0.25498 0.0
C2374 C 0.27035 0.33548 0.31378 0.0
C2375 C 0.22917 0.377 0.33111 0.0
C2376 C 0.24781 0.34387 0.44917 0.0
C2377 C 0.26029 0.35186 0.46875 0.0
C2378 C 0.24379 0.34575 0.40207 0.0
C2379 C 0.25228 0.35609 0.3738 0.0
C2380 C 0.26423 0.36497 0.39406 0.0
C2381 C 0.2682 0.36264 0.44124 0.0
C2382 C 0.23106 0.33592 0.38192 0.0
C2383 C 0.2733 0.37638 0.36539 0.0
H2384 H 0.25984 0.33556 0.2256 0.0
H2385 H 0.2245 0.36988 0.2402 0.0
H2386 H 0.27904 0.3425 0.33255 0.0
H2387 H 0.26523 0.3274 0.33949 0.0
H2388 H 0.27631 0.32865 0.2864 0.0
H2389 H 0.2222 0.38488 0.30904 0.0
H2390 H 0.2213 0.37087 0.35531 0.0
H2391 H 0.23718 0.38394 0.35271 0.0
H2392 H 0.24158 0.33553 0.47009 0.0
H2393 H 0.27779 0.36894 0.45615 0.0
H2394 H 0.23597 0.32776 0.35604 0.0
H2395 H 0.22256 0.34321 0.3633 0.0
H2396 H 0.22493 0.32918 0.40916 0.0
H2397 H 0.281 0.3701 0.34102 0.0
H2398 H 0.28048 0.38403 0.3876 0.0
H2399 H 0.26546 0.38359 0.34395 0.0
C2400 C 0.39047 0.48421 0.01578 0.0
C2401 C 0.40182 0.49173 0.98941 0.0
C2402 C 0.38788 0.48816 0.06287 0.0
C2403 C 0.39715 0.49959 0.08431 0.0
C2404 C 0.40818 0.50761 0.05723 0.0
C2405 C 0.41024 0.50371 0.0101 0.0
C2406 C 0.37568 0.47967 0.09014 0.0
C2407 C 0.41852 0.5197 0.0787 0.0
C2408 C 0.38989 0.51836 0.2025 0.0
C2409 C 0.39993 0.50998 0.23128 0.0
C2410 C 0.38797 0.51444 0.1551 0.0
C2411 C 0.39662 0.50214 0.13586 0.0
C2412 C 0.40623 0.49323 0.16534 0.0
C2413 C 0.40761 0.49715 0.2127 0.0
C2414 C 0.37724 0.5239 0.1252 0.0
C2415 C 0.41588 0.48019 0.14627 0.0
H2416 H 0.38384 0.47501 0.99997 0.0
H2417 H 0.41906 0.50959 0.99009 0.0
H2418 H 0.38124 0.47157 0.11492 0.0
H2419 H 0.36869 0.48786 0.11104 0.0
H2420 H 0.36789 0.47298 0.06698 0.0
H2421 H 0.426 0.52539 0.05239 0.0
H2422 H 0.41153 0.52865 0.09641 0.0
H2423 H 0.42598 0.51429 0.10558 0.0
H2424 H 0.38383 0.52823 0.21666 0.0
H2425 H 0.41542 0.49061 0.23459 0.0
H2426 H 0.37009 0.51632 0.10273 0.0
H2427 H 0.38406 0.53146 0.10182 0.0
H2428 H 0.36951 0.53127 0.1466 0.0
H2429 H 0.40858 0.47194 0.12675 0.0
H2430 H 0.42206 0.47383 0.17425 0.0
H2431 H 0.42452 0.48484 0.12141 0.0
C2432 C 0.25094 0.66367 0.93226 0.0
C2433 C 0.23921 0.65474 0.95232 0.0
C2434 C 0.25498 0.66199 0.88512 0.0
C2435 C 0.24729 0.65092 0.85729 0.0
C2436 C 0.23606 0.64123 0.87795 0.0
C2437 C 0.23205 0.64335 0.92518 0.0
C2438 C 0.26691 0.67268 0.86451 0.0
C2439 C 0.22785 0.62907 0.84971 0.0
C2440 C 0.24513 0.66204 0.72944 0.0
C2441 C 0.25801 0.65447 0.71076 0.0
C2442 C 0.2411 0.66039 0.77661 0.0
C2443 C 0.25 0.65071 0.80585 0.0
C2444 C 0.26242 0.64224 0.78656 0.0
C2445 C 0.26638 0.64434 0.7393 0.0
C2446 C 0.22788 0.66978 0.79575 0.0
C2447 C 0.27196 0.63153 0.81633 0.0
H2448 H 0.25658 0.67248 0.9529 0.0
H2449 H 0.22304 0.63633 0.94047 0.0
H2450 H 0.27601 0.66597 0.84647 0.0
H2451 H 0.26142 0.68024 0.83805 0.0
H2452 H 0.27244 0.68007 0.8914 0.0
H2453 H 0.22112 0.62109 0.87216 0.0
H2454 H 0.21984 0.63467 0.82476 0.0
H2455 H 0.23622 0.62227 0.82893 0.0
H2456 H 0.23857 0.66989 0.70772 0.0
H2457 H 0.27628 0.63835 0.72508 0.0
H2458 H 0.23234 0.67841 0.82095 0.0
H2459 H 0.21971 0.66227 0.81492 0.0
H2460 H 0.22147 0.67595 0.76785 0.0
H2461 H 0.27922 0.63837 0.84051 0.0
H2462 H 0.27961 0.62409 0.7949 0.0
H2463 H 0.26441 0.62408 0.83799 0.0
C2464 C 0.0845 0.49929 0.51394 0.0
C2465 C 0.09393 0.51044 0.49296 0.0
C2466 C 0.08636 0.49519 0.561 0.0
C2467 C 0.09818 0.50214 0.58777 0.0
C2468 C 0.10832 0.51276 0.56614 0.0
C2469 C 0.10596 0.51694 0.51911 0.0
C2470 C 0.07512 0.48399 0.58269 0.0
C2471 C 0.12132 0.52011 0.5931 0.0
C2472 C 0.08892 0.50458 0.71709 0.0
C2473 C 0.09572 0.49108 0.73446 0.0
C2474 C 0.09025 0.50868 0.66984 0.0
C2475 C 0.09888 0.49923 0.63916 0.0
C2476 C 0.10666 0.48616 0.65712 0.0
C2477 C 0.10485 0.48213 0.70447 0.0
C2478 C 0.08156 0.52259 0.6522 0.0
C2479 C 0.11632 0.47602 0.62588 0.0
H2480 H 0.07515 0.49422 0.49413 0.0
H2481 H 0.11336 0.52549 0.50309 0.0
H2482 H 0.08139 0.47435 0.59953 0.0
H2483 H 0.06838 0.48991 0.61031 0.0
H2484 H 0.06696 0.47914 0.55667 0.0
H2485 H 0.1294 0.52641 0.56988 0.0
H2486 H 0.11656 0.52836 0.61893 0.0
H2487 H 0.12784 0.51125 0.61283 0.0
H2488 H 0.08183 0.51159 0.7399 0.0
H2489 H 0.11023 0.47174 0.71764 0.0
H2490 H 0.07232 0.51882 0.62798 0.0
H2491 H 0.08934 0.53029 0.6323 0.0
H2492 H 0.07622 0.52931 0.681 0.0
H2493 H 0.1087 0.4693 0.60241 0.0
H2494 H 0.1235 0.46783 0.64624 0.0
H2495 H 0.12396 0.48313 0.60349 0.0
loop_
_geom_bond_atom_site_label_1
_geom_bond_atom_site_label_2
_geom_bond_distance
_geom_bond_site_symmetry_2
_ccdc_geom_bond_type
O0 Cd1 2.223 1_556 S
O0 C8 1.315 . S
Cd1 O0 2.223 1_554 S
Cd1 O4 2.297 1_554 S
Cd1 O5 2.439 . S
Cd1 O11 2.240 . S
Cd2 O3 2.240 . S
Cd2 O10 2.223 . S
Cd2 O12 2.297 . S
Cd2 O13 2.439 . S
O3 Cd2 2.240 . S
O3 C8 1.279 1_554 S
O4 Cd1 2.297 1_556 S
O4 C6 1.247 1_556 S
O5 Cd1 2.439 . S
O5 C6 1.208 . S
C6 O4 1.247 1_554 S
C6 O5 1.208 . S
C7 O12 1.247 . S
C7 O13 1.208 . S
C8 O0 1.315 . S
C8 O3 1.279 1_556 S
C9 O10 1.315 . S
C9 O11 1.279 . S
O10 Cd2 2.223 . S
O10 C9 1.315 . S
O11 Cd1 2.240 . S
O11 C9 1.279 . S
O12 Cd2 2.297 . S
O12 C7 1.247 . S
O13 Cd2 2.439 . S
O13 C7 1.208 . S
O14 Cd15 2.223 . S
O14 C22 1.315 . S
Cd15 O14 2.223 . S
Cd15 O18 2.297 . S
Cd15 O19 2.439 . S
Cd15 O25 2.240 . S
Cd16 O17 2.240 . S
Cd16 O24 2.223 . S
Cd16 O26 2.297 . S
Cd16 O27 2.439 . S
O17 Cd16 2.240 . S
O17 C22 1.279 . S
O18 Cd15 2.297 . S
O18 C20 1.247 . S
O19 Cd15 2.439 . S
O19 C20 1.208 . S
C20 O18 1.247 . S
C20 O19 1.208 . S
C21 O26 1.247 . S
C21 O27 1.208 . S
C22 O14 1.315 . S
C22 O17 1.279 . S
C23 O24 1.315 . S
C23 O25 1.279 . S
O24 Cd16 2.223 . S
O24 C23 1.315 . S
O25 Cd15 2.240 . S
O25 C23 1.279 . S
O26 Cd16 2.297 . S
O26 C21 1.247 . S
O27 Cd16 2.439 . S
O27 C21 1.208 . S
O28 Cd29 2.223 . S
O28 C36 1.315 . S
Cd29 O28 2.223 . S
Cd29 O32 2.297 . S
Cd29 O33 2.439 . S
Cd29 O39 2.240 . S
Cd30 O31 2.240 . S
Cd30 O38 2.223 . S
Cd30 O40 2.297 . S
Cd30 O41 2.439 . S
O31 Cd30 2.240 . S
O31 C36 1.279 . S
O32 Cd29 2.297 . S
O32 C34 1.247 . S
O33 Cd29 2.439 . S
O33 C34 1.208 . S
C34 O32 1.247 . S
C34 O33 1.208 . S
C35 O40 1.247 . S
C35 O41 1.208 . S
C36 O28 1.315 . S
C36 O31 1.279 . S
C37 O38 1.315 . S
C37 O39 1.279 . S
O38 Cd30 2.223 . S
O38 C37 1.315 . S
O39 Cd29 2.240 . S
O39 C37 1.279 . S
O40 Cd30 2.297 . S
O40 C35 1.247 . S
O41 Cd30 2.439 . S
O41 C35 1.208 . S
O42 Cd43 2.223 . S
O42 C50 1.315 . S
Cd43 O42 2.223 . S
Cd43 O46 2.297 . S
Cd43 O47 2.439 . S
Cd43 O53 2.240 . S
Cd44 O45 2.240 . S
Cd44 O52 2.223 . S
Cd44 O54 2.297 . S
Cd44 O55 2.439 . S
O45 Cd44 2.240 . S
O45 C50 1.279 . S
O46 Cd43 2.297 . S
O46 C48 1.247 . S
O47 Cd43 2.439 . S
O47 C48 1.208 . S
C48 O46 1.247 . S
C48 O47 1.208 . S
C49 O54 1.247 . S
C49 O55 1.208 . S
C50 O42 1.315 . S
C50 O45 1.279 . S
C51 O52 1.315 . S
C51 O53 1.279 . S
O52 Cd44 2.223 . S
O52 C51 1.315 . S
O53 Cd43 2.240 . S
O53 C51 1.279 . S
O54 Cd44 2.297 . S
O54 C49 1.247 . S
O55 Cd44 2.439 . S
O55 C49 1.208 . S
O56 Cd57 2.223 . S
O56 C64 1.315 . S
Cd57 O56 2.223 . S
Cd57 O60 2.297 . S
Cd57 O61 2.439 . S
Cd57 O67 2.240 . S
Cd58 O59 2.240 . S
Cd58 O66 2.223 . S
Cd58 O68 2.297 . S
Cd58 O69 2.439 . S
O59 Cd58 2.240 . S
O59 C64 1.279 . S
O60 Cd57 2.297 . S
O60 C62 1.247 . S
O61 Cd57 2.439 . S
O61 C62 1.208 . S
C62 O60 1.247 . S
C62 O61 1.208 . S
C63 O68 1.247 . S
C63 O69 1.208 . S
C64 O56 1.315 . S
C64 O59 1.279 . S
C65 O66 1.315 . S
C65 O67 1.279 . S
O66 Cd58 2.223 . S
O66 C65 1.315 . S
O67 Cd57 2.240 . S
O67 C65 1.279 . S
O68 Cd58 2.297 . S
O68 C63 1.247 . S
O69 Cd58 2.439 . S
O69 C63 1.208 . S
O70 Cd71 2.223 . S
O70 C78 1.315 . S
Cd71 O70 2.223 . S
Cd71 O74 2.297 . S
Cd71 O75 2.439 . S
Cd71 O81 2.240 . S
Cd72 O73 2.240 . S
Cd72 O80 2.223 . S
Cd72 O82 2.297 . S
Cd72 O83 2.439 . S
O73 Cd72 2.240 . S
O73 C78 1.279 . S
O74 Cd71 2.297 . S
O74 C76 1.247 . S
O75 Cd71 2.439 . S
O75 C76 1.208 . S
C76 O74 1.247 . S
C76 O75 1.208 . S
C77 O82 1.247 . S
C77 O83 1.208 . S
C78 O70 1.315 . S
C78 O73 1.279 . S
C79 O80 1.315 . S
C79 O81 1.279 . S
O80 Cd72 2.223 . S
O80 C79 1.315 . S
O81 Cd71 2.240 . S
O81 C79 1.279 . S
O82 Cd72 2.297 . S
O82 C77 1.247 . S
O83 Cd72 2.439 . S
O83 C77 1.208 . S
O84 Cd85 2.223 . S
O84 C92 1.315 . S
Cd85 O84 2.223 . S
Cd85 O88 2.297 . S
Cd85 O89 2.439 . S
Cd85 O95 2.240 . S
Cd86 O87 2.240 . S
Cd86 O94 2.223 . S
Cd86 O96 2.297 . S
Cd86 O97 2.439 . S
O87 Cd86 2.240 . S
O87 C92 1.279 . S
O88 Cd85 2.297 . S
O88 C90 1.247 . S
O89 Cd85 2.439 . S
O89 C90 1.208 . S
C90 O88 1.247 . S
C90 O89 1.208 . S
C91 O96 1.247 . S
C91 O97 1.208 . S
C92 O84 1.315 . S
C92 O87 1.279 . S
C93 O94 1.315 . S
C93 O95 1.279 . S
O94 Cd86 2.223 . S
O94 C93 1.315 . S
O95 Cd85 2.240 . S
O95 C93 1.279 . S
O96 Cd86 2.297 . S
O96 C91 1.247 . S
O97 Cd86 2.439 . S
O97 C91 1.208 . S
O98 Cd99 2.223 . S
O98 C106 1.315 . S
Cd99 O98 2.223 . S
Cd99 O102 2.297 . S
Cd99 O103 2.439 . S
Cd99 O109 2.240 . S
Cd100 O101 2.240 . S
Cd100 O108 2.223 . S
Cd100 O110 2.297 . S
Cd100 O111 2.439 . S
O101 Cd100 2.240 . S
O101 C106 1.279 . S
O102 Cd99 2.297 . S
O102 C104 1.247 . S
O103 Cd99 2.439 . S
O103 C104 1.208 . S
C104 O102 1.247 . S
C104 O103 1.208 . S
C105 O110 1.247 . S
C105 O111 1.208 . S
C106 O98 1.315 . S
C106 O101 1.279 . S
C107 O108 1.315 . S
C107 O109 1.279 . S
O108 Cd100 2.223 . S
O108 C107 1.315 . S
O109 Cd99 2.240 . S
O109 C107 1.279 . S
O110 Cd100 2.297 . S
O110 C105 1.247 . S
O111 Cd100 2.439 . S
O111 C105 1.208 . S
O112 Cd113 2.223 . S
O112 C120 1.315 . S
Cd113 O112 2.223 . S
Cd113 O116 2.297 . S
Cd113 O117 2.439 . S
Cd113 O123 2.240 . S
Cd114 O115 2.240 . S
Cd114 O122 2.223 . S
Cd114 O124 2.297 . S
Cd114 O125 2.439 . S
O115 Cd114 2.240 . S
O115 C120 1.279 . S
O116 Cd113 2.297 . S
O116 C118 1.247 . S
O117 Cd113 2.439 . S
O117 C118 1.208 . S
C118 O116 1.247 . S
C118 O117 1.208 . S
C119 O124 1.247 . S
C119 O125 1.208 . S
C120 O112 1.315 . S
C120 O115 1.279 . S
C121 O122 1.315 . S
C121 O123 1.279 . S
O122 Cd114 2.223 . S
O122 C121 1.315 . S
O123 Cd113 2.240 . S
O123 C121 1.279 . S
O124 Cd114 2.297 . S
O124 C119 1.247 . S
O125 Cd114 2.439 . S
O125 C119 1.208 . S
O126 Cd127 2.223 . S
O126 C134 1.315 . S
Cd127 O126 2.223 . S
Cd127 O130 2.297 . S
Cd127 O131 2.439 . S
Cd127 O137 2.240 . S
Cd128 O129 2.240 . S
Cd128 O136 2.223 . S
Cd128 O138 2.297 . S
Cd128 O139 2.439 . S
O129 Cd128 2.240 . S
O129 C134 1.279 . S
O130 Cd127 2.297 . S
O130 C132 1.247 . S
O131 Cd127 2.439 . S
O131 C132 1.208 . S
C132 O130 1.247 . S
C132 O131 1.208 . S
C133 O138 1.247 . S
C133 O139 1.208 . S
C134 O126 1.315 . S
C134 O129 1.279 . S
C135 O136 1.315 . S
C135 O137 1.279 . S
O136 Cd128 2.223 . S
O136 C135 1.315 . S
O137 Cd127 2.240 . S
O137 C135 1.279 . S
O138 Cd128 2.297 . S
O138 C133 1.247 . S
O139 Cd128 2.439 . S
O139 C133 1.208 . S
O140 Cd141 2.223 . S
O140 C148 1.315 . S
Cd141 O140 2.223 . S
Cd141 O144 2.297 . S
Cd141 O145 2.439 . S
Cd141 O151 2.240 . S
Cd142 O143 2.240 . S
Cd142 O150 2.223 . S
Cd142 O152 2.297 . S
Cd142 O153 2.439 . S
O143 Cd142 2.240 . S
O143 C148 1.279 . S
O144 Cd141 2.297 . S
O144 C146 1.247 . S
O145 Cd141 2.439 . S
O145 C146 1.208 . S
C146 O144 1.247 . S
C146 O145 1.208 . S
C147 O152 1.247 . S
C147 O153 1.208 . S
C148 O140 1.315 . S
C148 O143 1.279 . S
C149 O150 1.315 . S
C149 O151 1.279 . S
O150 Cd142 2.223 . S
O150 C149 1.315 . S
O151 Cd141 2.240 . S
O151 C149 1.279 . S
O152 Cd142 2.297 . S
O152 C147 1.247 . S
O153 Cd142 2.439 . S
O153 C147 1.208 . S
O154 Cd155 2.223 . S
O154 C162 1.315 . S
Cd155 O154 2.223 . S
Cd155 O158 2.297 . S
Cd155 O159 2.439 . S
Cd155 O165 2.240 . S
Cd156 O157 2.240 . S
Cd156 O164 2.223 . S
Cd156 O166 2.297 . S
Cd156 O167 2.439 . S
O157 Cd156 2.240 . S
O157 C162 1.279 . S
O158 Cd155 2.297 . S
O158 C160 1.247 . S
O159 Cd155 2.439 . S
O159 C160 1.208 . S
C160 O158 1.247 . S
C160 O159 1.208 . S
C161 O166 1.247 . S
C161 O167 1.208 . S
C162 O154 1.315 . S
C162 O157 1.279 . S
C163 O164 1.315 . S
C163 O165 1.279 . S
O164 Cd156 2.223 . S
O164 C163 1.315 . S
O165 Cd155 2.240 . S
O165 C163 1.279 . S
O166 Cd156 2.297 . S
O166 C161 1.247 . S
O167 Cd156 2.439 . S
O167 C161 1.208 . S
O168 Cd169 2.223 1_556 S
O168 C176 1.315 . S
Cd169 O168 2.223 1_554 S
Cd169 O172 2.297 1_554 S
Cd169 O173 2.439 . S
Cd169 O179 2.240 . S
Cd170 O171 2.240 . S
Cd170 O178 2.223 . S
Cd170 O180 2.297 . S
Cd170 O181 2.439 . S
O171 Cd170 2.240 . S
O171 C176 1.279 1_554 S
O172 Cd169 2.297 1_556 S
O172 C174 1.247 1_556 S
O173 Cd169 2.439 . S
O173 C174 1.208 . S
C174 O172 1.247 1_554 S
C174 O173 1.208 . S
C175 O180 1.247 . S
C175 O181 1.208 . S
C176 O168 1.315 . S
C176 O171 1.279 1_556 S
C177 O178 1.315 . S
C177 O179 1.279 . S
O178 Cd170 2.223 . S
O178 C177 1.315 . S
O179 Cd169 2.240 . S
O179 C177 1.279 . S
O180 Cd170 2.297 . S
O180 C175 1.247 . S
O181 Cd170 2.439 . S
O181 C175 1.208 . S
O182 Cd183 2.223 . S
O182 C190 1.315 . S
Cd183 O182 2.223 . S
Cd183 O186 2.297 . S
Cd183 O187 2.439 . S
Cd183 O193 2.240 . S
Cd184 O185 2.240 . S
Cd184 O192 2.223 . S
Cd184 O194 2.297 . S
Cd184 O195 2.439 . S
O185 Cd184 2.240 . S
O185 C190 1.279 . S
O186 Cd183 2.297 . S
O186 C188 1.247 . S
O187 Cd183 2.439 . S
O187 C188 1.208 . S
C188 O186 1.247 . S
C188 O187 1.208 . S
C189 O194 1.247 . S
C189 O195 1.208 . S
C190 O182 1.315 . S
C190 O185 1.279 . S
C191 O192 1.315 . S
C191 O193 1.279 . S
O192 Cd184 2.223 . S
O192 C191 1.315 . S
O193 Cd183 2.240 . S
O193 C191 1.279 . S
O194 Cd184 2.297 . S
O194 C189 1.247 . S
O195 Cd184 2.439 . S
O195 C189 1.208 . S
O196 Cd197 2.223 . S
O196 C204 1.315 . S
Cd197 O196 2.223 . S
Cd197 O200 2.297 . S
Cd197 O201 2.439 . S
Cd197 O207 2.240 . S
Cd198 O199 2.240 . S
Cd198 O206 2.223 . S
Cd198 O208 2.297 . S
Cd198 O209 2.439 . S
O199 Cd198 2.240 . S
O199 C204 1.279 . S
O200 Cd197 2.297 . S
O200 C202 1.247 . S
O201 Cd197 2.439 . S
O201 C202 1.208 . S
C202 O200 1.247 . S
C202 O201 1.208 . S
C203 O208 1.247 . S
C203 O209 1.208 . S
C204 O196 1.315 . S
C204 O199 1.279 . S
C205 O206 1.315 . S
C205 O207 1.279 . S
O206 Cd198 2.223 . S
O206 C205 1.315 . S
O207 Cd197 2.240 . S
O207 C205 1.279 . S
O208 Cd198 2.297 . S
O208 C203 1.247 . S
O209 Cd198 2.439 . S
O209 C203 1.208 . S
O210 Cd211 2.223 . S
O210 C218 1.315 . S
Cd211 O210 2.223 . S
Cd211 O214 2.297 . S
Cd211 O215 2.439 . S
Cd211 O221 2.240 . S
Cd212 O213 2.240 . S
Cd212 O220 2.223 . S
Cd212 O222 2.297 . S
Cd212 O223 2.439 . S
O213 Cd212 2.240 . S
O213 C218 1.279 . S
O214 Cd211 2.297 . S
O214 C216 1.247 . S
O215 Cd211 2.439 . S
O215 C216 1.208 . S
C216 O214 1.247 . S
C216 O215 1.208 . S
C217 O222 1.247 . S
C217 O223 1.208 . S
C218 O210 1.315 . S
C218 O213 1.279 . S
C219 O220 1.315 . S
C219 O221 1.279 . S
O220 Cd212 2.223 . S
O220 C219 1.315 . S
O221 Cd211 2.240 . S
O221 C219 1.279 . S
O222 Cd212 2.297 . S
O222 C217 1.247 . S
O223 Cd212 2.439 . S
O223 C217 1.208 . S
O224 Cd225 2.223 . S
O224 C232 1.315 . S
Cd225 O224 2.223 . S
Cd225 O228 2.297 . S
Cd225 O229 2.439 . S
Cd225 O235 2.240 . S
Cd226 O227 2.240 . S
Cd226 O234 2.223 . S
Cd226 O236 2.297 . S
Cd226 O237 2.439 . S
O227 Cd226 2.240 . S
O227 C232 1.279 . S
O228 Cd225 2.297 . S
O228 C230 1.247 . S
O229 Cd225 2.439 . S
O229 C230 1.208 . S
C230 O228 1.247 . S
C230 O229 1.208 . S
C231 O236 1.247 . S
C231 O237 1.208 . S
C232 O224 1.315 . S
C232 O227 1.279 . S
C233 O234 1.315 . S
C233 O235 1.279 . S
O234 Cd226 2.223 . S
O234 C233 1.315 . S
O235 Cd225 2.240 . S
O235 C233 1.279 . S
O236 Cd226 2.297 . S
O236 C231 1.247 . S
O237 Cd226 2.439 . S
O237 C231 1.208 . S
O238 Cd239 2.223 . S
O238 C246 1.315 . S
Cd239 O238 2.223 . S
Cd239 O242 2.297 . S
Cd239 O243 2.439 . S
Cd239 O249 2.240 . S
Cd240 O241 2.240 . S
Cd240 O248 2.223 . S
Cd240 O250 2.297 . S
Cd240 O251 2.439 . S
O241 Cd240 2.240 . S
O241 C246 1.279 . S
O242 Cd239 2.297 . S
O242 C244 1.247 . S
O243 Cd239 2.439 . S
O243 C244 1.208 . S
C244 O242 1.247 . S
C244 O243 1.208 . S
C245 O250 1.247 . S
C245 O251 1.208 . S
C246 O238 1.315 . S
C246 O241 1.279 . S
C247 O248 1.315 . S
C247 O249 1.279 . S
O248 Cd240 2.223 . S
O248 C247 1.315 . S
O249 Cd239 2.240 . S
O249 C247 1.279 . S
O250 Cd240 2.297 . S
O250 C245 1.247 . S
O251 Cd240 2.439 . S
O251 C245 1.208 . S
O252 Cd253 2.223 1_556 S
O252 C260 1.315 . S
Cd253 O252 2.223 1_554 S
Cd253 O256 2.297 1_554 S
Cd253 O257 2.439 . S
Cd253 O263 2.240 . S
Cd254 O255 2.240 . S
Cd254 O262 2.223 . S
Cd254 O264 2.297 . S
Cd254 O265 2.439 . S
O255 Cd254 2.240 . S
O255 C260 1.279 1_554 S
O256 Cd253 2.297 1_556 S
O256 C258 1.247 1_556 S
O257 Cd253 2.439 . S
O257 C258 1.208 . S
C258 O256 1.247 1_554 S
C258 O257 1.208 . S
C259 O264 1.247 . S
C259 O265 1.208 . S
C260 O252 1.315 . S
C260 O255 1.279 1_556 S
C261 O262 1.315 . S
C261 O263 1.279 . S
O262 Cd254 2.223 . S
O262 C261 1.315 . S
O263 Cd253 2.240 . S
O263 C261 1.279 . S
O264 Cd254 2.297 . S
O264 C259 1.247 . S
O265 Cd254 2.439 . S
O265 C259 1.208 . S
O266 Cd267 2.223 . S
O266 C274 1.315 . S
Cd267 O266 2.223 . S
Cd267 O270 2.297 . S
Cd267 O271 2.439 . S
Cd267 O277 2.240 . S
Cd268 O269 2.240 . S
Cd268 O276 2.223 . S
Cd268 O278 2.297 . S
Cd268 O279 2.439 . S
O269 Cd268 2.240 . S
O269 C274 1.279 . S
O270 Cd267 2.297 . S
O270 C272 1.247 . S
O271 Cd267 2.439 . S
O271 C272 1.208 . S
C272 O270 1.247 . S
C272 O271 1.208 . S
C273 O278 1.247 . S
C273 O279 1.208 . S
C274 O266 1.315 . S
C274 O269 1.279 . S
C275 O276 1.315 . S
C275 O277 1.279 . S
O276 Cd268 2.223 . S
O276 C275 1.315 . S
O277 Cd267 2.240 . S
O277 C275 1.279 . S
O278 Cd268 2.297 . S
O278 C273 1.247 . S
O279 Cd268 2.439 . S
O279 C273 1.208 . S
O280 Cd281 2.223 . S
O280 C288 1.315 . S
Cd281 O280 2.223 . S
Cd281 O284 2.297 . S
Cd281 O285 2.439 . S
Cd281 O291 2.240 . S
Cd282 O283 2.240 . S
Cd282 O290 2.223 . S
Cd282 O292 2.297 . S
Cd282 O293 2.439 . S
O283 Cd282 2.240 . S
O283 C288 1.279 . S
O284 Cd281 2.297 . S
O284 C286 1.247 . S
O285 Cd281 2.439 . S
O285 C286 1.208 . S
C286 O284 1.247 . S
C286 O285 1.208 . S
C287 O292 1.247 . S
C287 O293 1.208 . S
C288 O280 1.315 . S
C288 O283 1.279 . S
C289 O290 1.315 . S
C289 O291 1.279 . S
O290 Cd282 2.223 . S
O290 C289 1.315 . S
O291 Cd281 2.240 . S
O291 C289 1.279 . S
O292 Cd282 2.297 . S
O292 C287 1.247 . S
O293 Cd282 2.439 . S
O293 C287 1.208 . S
O294 Cd295 2.223 . S
O294 C302 1.315 . S
Cd295 O294 2.223 . S
Cd295 O298 2.297 . S
Cd295 O299 2.439 . S
Cd295 O305 2.240 . S
Cd296 O297 2.240 . S
Cd296 O304 2.223 . S
Cd296 O306 2.297 . S
Cd296 O307 2.439 . S
O297 Cd296 2.240 . S
O297 C302 1.279 . S
O298 Cd295 2.297 . S
O298 C300 1.247 . S
O299 Cd295 2.439 . S
O299 C300 1.208 . S
C300 O298 1.247 . S
C300 O299 1.208 . S
C301 O306 1.247 . S
C301 O307 1.208 . S
C302 O294 1.315 . S
C302 O297 1.279 . S
C303 O304 1.315 . S
C303 O305 1.279 . S
O304 Cd296 2.223 . S
O304 C303 1.315 . S
O305 Cd295 2.240 . S
O305 C303 1.279 . S
O306 Cd296 2.297 . S
O306 C301 1.247 . S
O307 Cd296 2.439 . S
O307 C301 1.208 . S
O308 Cd309 2.223 . S
O308 C316 1.315 . S
Cd309 O308 2.223 . S
Cd309 O312 2.297 . S
Cd309 O313 2.439 . S
Cd309 O319 2.240 . S
Cd310 O311 2.240 . S
Cd310 O318 2.223 . S
Cd310 O320 2.297 . S
Cd310 O321 2.439 . S
O311 Cd310 2.240 . S
O311 C316 1.279 . S
O312 Cd309 2.297 . S
O312 C314 1.247 . S
O313 Cd309 2.439 . S
O313 C314 1.208 . S
C314 O312 1.247 . S
C314 O313 1.208 . S
C315 O320 1.247 . S
C315 O321 1.208 . S
C316 O308 1.315 . S
C316 O311 1.279 . S
C317 O318 1.315 . S
C317 O319 1.279 . S
O318 Cd310 2.223 . S
O318 C317 1.315 . S
O319 Cd309 2.240 . S
O319 C317 1.279 . S
O320 Cd310 2.297 . S
O320 C315 1.247 . S
O321 Cd310 2.439 . S
O321 C315 1.208 . S
O322 Cd323 2.223 . S
O322 C330 1.315 . S
Cd323 O322 2.223 . S
Cd323 O326 2.297 . S
Cd323 O327 2.439 . S
Cd323 O333 2.240 . S
Cd324 O325 2.240 . S
Cd324 O332 2.223 . S
Cd324 O334 2.297 . S
Cd324 O335 2.439 . S
O325 Cd324 2.240 . S
O325 C330 1.279 . S
O326 Cd323 2.297 . S
O326 C328 1.247 . S
O327 Cd323 2.439 . S
O327 C328 1.208 . S
C328 O326 1.247 . S
C328 O327 1.208 . S
C329 O334 1.247 . S
C329 O335 1.208 . S
C330 O322 1.315 . S
C330 O325 1.279 . S
C331 O332 1.315 . S
C331 O333 1.279 . S
O332 Cd324 2.223 . S
O332 C331 1.315 . S
O333 Cd323 2.240 . S
O333 C331 1.279 . S
O334 Cd324 2.297 . S
O334 C329 1.247 . S
O335 Cd324 2.439 . S
O335 C329 1.208 . S
O336 Cd337 2.223 . S
O336 C344 1.315 . S
Cd337 O336 2.223 . S
Cd337 O340 2.297 . S
Cd337 O341 2.439 . S
Cd337 O347 2.240 . S
Cd338 O339 2.240 . S
Cd338 O346 2.223 . S
Cd338 O348 2.297 . S
Cd338 O349 2.439 . S
O339 Cd338 2.240 . S
O339 C344 1.279 . S
O340 Cd337 2.297 . S
O340 C342 1.247 . S
O341 Cd337 2.439 . S
O341 C342 1.208 . S
C342 O340 1.247 . S
C342 O341 1.208 . S
C343 O348 1.247 . S
C343 O349 1.208 . S
C344 O336 1.315 . S
C344 O339 1.279 . S
C345 O346 1.315 . S
C345 O347 1.279 . S
O346 Cd338 2.223 . S
O346 C345 1.315 . S
O347 Cd337 2.240 . S
O347 C345 1.279 . S
O348 Cd338 2.297 . S
O348 C343 1.247 . S
O349 Cd338 2.439 . S
O349 C343 1.208 . S
O350 Cd351 2.223 . S
O350 C358 1.315 . S
Cd351 O350 2.223 . S
Cd351 O354 2.297 . S
Cd351 O355 2.439 . S
Cd351 O361 2.240 . S
Cd352 O353 2.240 . S
Cd352 O360 2.223 . S
Cd352 O362 2.297 . S
Cd352 O363 2.439 . S
O353 Cd352 2.240 . S
O353 C358 1.279 . S
O354 Cd351 2.297 . S
O354 C356 1.247 . S
O355 Cd351 2.439 . S
O355 C356 1.208 . S
C356 O354 1.247 . S
C356 O355 1.208 . S
C357 O362 1.247 . S
C357 O363 1.208 . S
C358 O350 1.315 . S
C358 O353 1.279 . S
C359 O360 1.315 . S
C359 O361 1.279 . S
O360 Cd352 2.223 . S
O360 C359 1.315 . S
O361 Cd351 2.240 . S
O361 C359 1.279 . S
O362 Cd352 2.297 . S
O362 C357 1.247 . S
O363 Cd352 2.439 . S
O363 C357 1.208 . S
O364 Cd365 2.223 . S
O364 C372 1.315 . S
Cd365 O364 2.223 . S
Cd365 O368 2.297 . S
Cd365 O369 2.439 . S
Cd365 O375 2.240 . S
Cd366 O367 2.240 . S
Cd366 O374 2.223 . S
Cd366 O376 2.297 . S
Cd366 O377 2.439 . S
O367 Cd366 2.240 . S
O367 C372 1.279 . S
O368 Cd365 2.297 . S
O368 C370 1.247 . S
O369 Cd365 2.439 . S
O369 C370 1.208 . S
C370 O368 1.247 . S
C370 O369 1.208 . S
C371 O376 1.247 . S
C371 O377 1.208 . S
C372 O364 1.315 . S
C372 O367 1.279 . S
C373 O374 1.315 . S
C373 O375 1.279 . S
O374 Cd366 2.223 . S
O374 C373 1.315 . S
O375 Cd365 2.240 . S
O375 C373 1.279 . S
O376 Cd366 2.297 . S
O376 C371 1.247 . S
O377 Cd366 2.439 . S
O377 C371 1.208 . S
O378 Cd379 2.223 . S
O378 C386 1.315 . S
Cd379 O378 2.223 . S
Cd379 O382 2.297 . S
Cd379 O383 2.439 . S
Cd379 O389 2.240 . S
Cd380 O381 2.240 . S
Cd380 O388 2.223 . S
Cd380 O390 2.297 . S
Cd380 O391 2.439 . S
O381 Cd380 2.240 . S
O381 C386 1.279 . S
O382 Cd379 2.297 . S
O382 C384 1.247 . S
O383 Cd379 2.439 . S
O383 C384 1.208 . S
C384 O382 1.247 . S
C384 O383 1.208 . S
C385 O390 1.247 . S
C385 O391 1.208 . S
C386 O378 1.315 . S
C386 O381 1.279 . S
C387 O388 1.315 . S
C387 O389 1.279 . S
O388 Cd380 2.223 . S
O388 C387 1.315 . S
O389 Cd379 2.240 . S
O389 C387 1.279 . S
O390 Cd380 2.297 . S
O390 C385 1.247 . S
O391 Cd380 2.439 . S
O391 C385 1.208 . S
O392 Cd393 2.223 . S
O392 C400 1.315 . S
Cd393 O392 2.223 . S
Cd393 O396 2.297 . S
Cd393 O397 2.439 . S
Cd393 O403 2.240 . S
Cd394 O395 2.240 . S
Cd394 O402 2.223 . S
Cd394 O404 2.297 . S
Cd394 O405 2.439 . S
O395 Cd394 2.240 . S
O395 C400 1.279 . S
O396 Cd393 2.297 . S
O396 C398 1.247 . S
O397 Cd393 2.439 . S
O397 C398 1.208 . S
C398 O396 1.247 . S
C398 O397 1.208 . S
C399 O404 1.247 . S
C399 O405 1.208 . S
C400 O392 1.315 . S
C400 O395 1.279 . S
C401 O402 1.315 . S
C401 O403 1.279 . S
O402 Cd394 2.223 . S
O402 C401 1.315 . S
O403 Cd393 2.240 . S
O403 C401 1.279 . S
O404 Cd394 2.297 . S
O404 C399 1.247 . S
O405 Cd394 2.439 . S
O405 C399 1.208 . S
O406 Cd407 2.223 . S
O406 C414 1.315 . S
Cd407 O406 2.223 . S
Cd407 O410 2.297 . S
Cd407 O411 2.439 . S
Cd407 O417 2.240 . S
Cd408 O409 2.240 . S
Cd408 O416 2.223 . S
Cd408 O418 2.297 . S
Cd408 O419 2.439 . S
O409 Cd408 2.240 . S
O409 C414 1.279 . S
O410 Cd407 2.297 . S
O410 C412 1.247 . S
O411 Cd407 2.439 . S
O411 C412 1.208 . S
C412 O410 1.247 . S
C412 O411 1.208 . S
C413 O418 1.247 . S
C413 O419 1.208 . S
C414 O406 1.315 . S
C414 O409 1.279 . S
C415 O416 1.315 . S
C415 O417 1.279 . S
O416 Cd408 2.223 . S
O416 C415 1.315 . S
O417 Cd407 2.240 . S
O417 C415 1.279 . S
O418 Cd408 2.297 . S
O418 C413 1.247 . S
O419 Cd408 2.439 . S
O419 C413 1.208 . S
O420 Cd421 2.223 1_556 S
O420 C428 1.315 . S
Cd421 O420 2.223 1_554 S
Cd421 O424 2.297 1_554 S
Cd421 O425 2.439 . S
Cd421 O431 2.240 . S
Cd422 O423 2.240 . S
Cd422 O430 2.223 . S
Cd422 O432 2.297 . S
Cd422 O433 2.439 . S
O423 Cd422 2.240 . S
O423 C428 1.279 1_554 S
O424 Cd421 2.297 1_556 S
O424 C426 1.247 1_556 S
O425 Cd421 2.439 . S
O425 C426 1.208 . S
C426 O424 1.247 1_554 S
C426 O425 1.208 . S
C427 O432 1.247 . S
C427 O433 1.208 . S
C428 O420 1.315 . S
C428 O423 1.279 1_556 S
C429 O430 1.315 . S
C429 O431 1.279 . S
O430 Cd422 2.223 . S
O430 C429 1.315 . S
O431 Cd421 2.240 . S
O431 C429 1.279 . S
O432 Cd422 2.297 . S
O432 C427 1.247 . S
O433 Cd422 2.439 . S
O433 C427 1.208 . S
O434 Cd435 2.223 . S
O434 C442 1.315 . S
Cd435 O434 2.223 . S
Cd435 O438 2.297 . S
Cd435 O439 2.439 . S
Cd435 O445 2.240 . S
Cd436 O437 2.240 . S
Cd436 O444 2.223 . S
Cd436 O446 2.297 . S
Cd436 O447 2.439 . S
O437 Cd436 2.240 . S
O437 C442 1.279 . S
O438 Cd435 2.297 . S
O438 C440 1.247 . S
O439 Cd435 2.439 . S
O439 C440 1.208 . S
C440 O438 1.247 . S
C440 O439 1.208 . S
C441 O446 1.247 . S
C441 O447 1.208 . S
C442 O434 1.315 . S
C442 O437 1.279 . S
C443 O444 1.315 . S
C443 O445 1.279 . S
O444 Cd436 2.223 . S
O444 C443 1.315 . S
O445 Cd435 2.240 . S
O445 C443 1.279 . S
O446 Cd436 2.297 . S
O446 C441 1.247 . S
O447 Cd436 2.439 . S
O447 C441 1.208 . S
C448 C449 1.391 . S
C448 C450 1.394 . S
C448 H464 0.931 . S
C449 C448 1.391 . S
C449 C453 1.376 . S
C450 C448 1.394 . S
C450 C451 1.369 . S
C450 C454 1.531 . S
C451 C450 1.369 . S
C451 C452 1.410 . S
C451 C459 1.503 . S
C452 C451 1.410 . S
C452 C453 1.392 . S
C452 C455 1.511 . S
C453 C449 1.376 . S
C453 C452 1.392 . S
C453 H465 0.929 . S
C454 C450 1.531 . S
C454 H466 0.960 . S
C454 H467 0.962 . S
C454 H468 0.960 . S
C455 C452 1.511 . S
C455 H469 0.961 . S
C455 H470 0.961 1_556 S
C455 H471 0.961 . S
C456 C457 1.370 . S
C456 C458 1.363 . S
C456 H472 0.931 . S
C457 C456 1.370 . S
C457 C461 1.408 1_554 S
C458 C456 1.363 . S
C458 C459 1.370 1_554 S
C458 C462 1.524 . S
C459 C451 1.503 . S
C459 C458 1.370 1_556 S
C459 C460 1.403 . S
C460 C459 1.403 . S
C460 C461 1.404 . S
C460 C463 1.539 . S
C461 C457 1.408 1_556 S
C461 C460 1.404 . S
C461 H473 0.930 . S
C462 C458 1.524 . S
C462 H474 0.956 . S
C462 H475 0.961 . S
C462 H476 0.961 . S
C463 C460 1.539 . S
C463 H477 0.958 . S
C463 H478 0.961 . S
C463 H479 0.960 . S
H464 C448 0.931 . S
H465 C453 0.929 . S
H466 C454 0.960 . S
H467 C454 0.962 . S
H468 C454 0.960 . S
H469 C455 0.961 . S
H470 C455 0.961 1_554 S
H471 C455 0.961 . S
H472 C456 0.931 . S
H473 C461 0.930 . S
H474 C462 0.956 . S
H475 C462 0.961 . S
H476 C462 0.961 . S
H477 C463 0.958 . S
H478 C463 0.961 . S
H479 C463 0.960 . S
C480 C481 1.391 . S
C480 C482 1.394 . S
C480 H496 0.931 . S
C481 C480 1.391 . S
C481 C485 1.376 . S
C482 C480 1.394 . S
C482 C483 1.369 . S
C482 C486 1.531 . S
C483 C482 1.369 . S
C483 C484 1.410 . S
C483 C491 1.503 . S
C484 C483 1.410 . S
C484 C485 1.392 . S
C484 C487 1.511 . S
C485 C481 1.376 . S
C485 C484 1.392 . S
C485 H497 0.929 . S
C486 C482 1.531 . S
C486 H498 0.960 . S
C486 H499 0.962 . S
C486 H500 0.960 . S
C487 C484 1.511 . S
C487 H501 0.961 . S
C487 H502 0.961 . S
C487 H503 0.961 . S
C488 C489 1.370 . S
C488 C490 1.363 . S
C488 H504 0.931 . S
C489 C488 1.370 . S
C489 C493 1.408 . S
C490 C488 1.363 . S
C490 C491 1.370 . S
C490 C494 1.524 . S
C491 C483 1.503 . S
C491 C490 1.370 . S
C491 C492 1.403 . S
C492 C491 1.403 . S
C492 C493 1.404 . S
C492 C495 1.539 . S
C493 C489 1.408 . S
C493 C492 1.404 . S
C493 H505 0.930 . S
C494 C490 1.524 . S
C494 H506 0.956 . S
C494 H507 0.961 . S
C494 H508 0.961 . S
C495 C492 1.539 . S
C495 H509 0.958 . S
C495 H510 0.961 . S
C495 H511 0.960 . S
H496 C480 0.931 . S
H497 C485 0.929 . S
H498 C486 0.960 . S
H499 C486 0.962 . S
H500 C486 0.960 . S
H501 C487 0.961 . S
H502 C487 0.961 . S
H503 C487 0.961 . S
H504 C488 0.931 . S
H505 C493 0.930 . S
H506 C494 0.956 . S
H507 C494 0.961 . S
H508 C494 0.961 . S
H509 C495 0.958 . S
H510 C495 0.961 . S
H511 C495 0.960 . S
C512 C513 1.391 . S
C512 C514 1.394 . S
C512 H528 0.931 . S
C513 C512 1.391 . S
C513 C517 1.376 . S
C514 C512 1.394 . S
C514 C515 1.369 . S
C514 C518 1.531 . S
C515 C514 1.369 . S
C515 C516 1.410 . S
C515 C523 1.503 . S
C516 C515 1.410 . S
C516 C517 1.392 . S
C516 C519 1.511 . S
C517 C513 1.376 . S
C517 C516 1.392 . S
C517 H529 0.929 . S
C518 C514 1.531 . S
C518 H530 0.960 . S
C518 H531 0.962 . S
C518 H532 0.960 . S
C519 C516 1.511 . S
C519 H533 0.961 . S
C519 H534 0.961 . S
C519 H535 0.961 . S
C520 C521 1.370 . S
C520 C522 1.363 . S
C520 H536 0.931 . S
C521 C520 1.370 . S
C521 C525 1.408 . S
C522 C520 1.363 . S
C522 C523 1.370 . S
C522 C526 1.524 . S
C523 C515 1.503 . S
C523 C522 1.370 . S
C523 C524 1.403 . S
C524 C523 1.403 . S
C524 C525 1.404 . S
C524 C527 1.539 . S
C525 C521 1.408 . S
C525 C524 1.404 . S
C525 H537 0.930 . S
C526 C522 1.524 . S
C526 H538 0.956 . S
C526 H539 0.961 . S
C526 H540 0.961 . S
C527 C524 1.539 . S
C527 H541 0.958 . S
C527 H542 0.961 . S
C527 H543 0.960 . S
H528 C512 0.931 . S
H529 C517 0.929 . S
H530 C518 0.960 . S
H531 C518 0.962 . S
H532 C518 0.960 . S
H533 C519 0.961 . S
H534 C519 0.961 . S
H535 C519 0.961 . S
H536 C520 0.931 . S
H537 C525 0.930 . S
H538 C526 0.956 . S
H539 C526 0.961 . S
H540 C526 0.961 . S
H541 C527 0.958 . S
H542 C527 0.961 . S
H543 C527 0.960 . S
C544 C545 1.391 . S
C544 C546 1.394 . S
C544 H560 0.931 . S
C545 C544 1.391 . S
C545 C549 1.376 . S
C546 C544 1.394 . S
C546 C547 1.369 . S
C546 C550 1.531 . S
C547 C546 1.369 . S
C547 C548 1.410 . S
C547 C555 1.503 . S
C548 C547 1.410 . S
C548 C549 1.392 . S
C548 C551 1.511 . S
C549 C545 1.376 . S
C549 C548 1.392 . S
C549 H561 0.929 . S
C550 C546 1.531 . S
C550 H562 0.960 . S
C550 H563 0.962 . S
C550 H564 0.960 . S
C551 C548 1.511 . S
C551 H565 0.961 . S
C551 H566 0.961 . S
C551 H567 0.961 . S
C552 C553 1.370 . S
C552 C554 1.363 . S
C552 H568 0.931 . S
C553 C552 1.370 . S
C553 C557 1.408 . S
C554 C552 1.363 . S
C554 C555 1.370 . S
C554 C558 1.524 . S
C555 C547 1.503 . S
C555 C554 1.370 . S
C555 C556 1.403 . S
C556 C555 1.403 . S
C556 C557 1.404 . S
C556 C559 1.539 . S
C557 C553 1.408 . S
C557 C556 1.404 . S
C557 H569 0.930 . S
C558 C554 1.524 . S
C558 H570 0.956 . S
C558 H571 0.961 . S
C558 H572 0.961 . S
C559 C556 1.539 . S
C559 H573 0.958 . S
C559 H574 0.961 . S
C559 H575 0.960 . S
H560 C544 0.931 . S
H561 C549 0.929 . S
H562 C550 0.960 . S
H563 C550 0.962 . S
H564 C550 0.960 . S
H565 C551 0.961 . S
H566 C551 0.961 . S
H567 C551 0.961 . S
H568 C552 0.931 . S
H569 C557 0.930 . S
H570 C558 0.956 . S
H571 C558 0.961 . S
H572 C558 0.961 . S
H573 C559 0.958 . S
H574 C559 0.961 . S
H575 C559 0.960 . S
C576 C577 1.391 . S
C576 C578 1.394 . S
C576 H592 0.931 . S
C577 C576 1.391 . S
C577 C581 1.376 . S
C578 C576 1.394 . S
C578 C579 1.369 . S
C578 C582 1.531 . S
C579 C578 1.369 . S
C579 C580 1.410 . S
C579 C587 1.503 . S
C580 C579 1.410 . S
C580 C581 1.392 . S
C580 C583 1.511 . S
C581 C577 1.376 . S
C581 C580 1.392 . S
C581 H593 0.929 . S
C582 C578 1.531 . S
C582 H594 0.960 . S
C582 H595 0.962 . S
C582 H596 0.960 . S
C583 C580 1.511 . S
C583 H597 0.961 . S
C583 H598 0.961 . S
C583 H599 0.961 . S
C584 C585 1.370 . S
C584 C586 1.363 . S
C584 H600 0.931 . S
C585 C584 1.370 . S
C585 C589 1.408 . S
C586 C584 1.363 . S
C586 C587 1.370 . S
C586 C590 1.524 . S
C587 C579 1.503 . S
C587 C586 1.370 . S
C587 C588 1.403 . S
C588 C587 1.403 . S
C588 C589 1.404 . S
C588 C591 1.539 . S
C589 C585 1.408 . S
C589 C588 1.404 . S
C589 H601 0.930 . S
C590 C586 1.524 . S
C590 H602 0.956 . S
C590 H603 0.961 . S
C590 H604 0.961 . S
C591 C588 1.539 . S
C591 H605 0.958 . S
C591 H606 0.961 . S
C591 H607 0.960 . S
H592 C576 0.931 . S
H593 C581 0.929 . S
H594 C582 0.960 . S
H595 C582 0.962 . S
H596 C582 0.960 . S
H597 C583 0.961 . S
H598 C583 0.961 . S
H599 C583 0.961 . S
H600 C584 0.931 . S
H601 C589 0.930 . S
H602 C590 0.956 . S
H603 C590 0.961 . S
H604 C590 0.961 . S
H605 C591 0.958 . S
H606 C591 0.961 . S
H607 C591 0.960 . S
C608 C609 1.391 . S
C608 C610 1.394 . S
C608 H624 0.931 . S
C609 C608 1.391 . S
C609 C613 1.376 . S
C610 C608 1.394 . S
C610 C611 1.369 . S
C610 C614 1.531 . S
C611 C610 1.369 . S
C611 C612 1.410 . S
C611 C619 1.503 . S
C612 C611 1.410 . S
C612 C613 1.392 . S
C612 C615 1.511 1_556 S
C613 C609 1.376 . S
C613 C612 1.392 . S
C613 H625 0.929 . S
C614 C610 1.531 . S
C614 H626 0.960 . S
C614 H627 0.962 . S
C614 H628 0.960 . S
C615 C612 1.511 1_554 S
C615 H629 0.961 . S
C615 H630 0.961 . S
C615 H631 0.961 . S
C616 C617 1.370 1_556 S
C616 C618 1.363 . S
C616 H632 0.931 . S
C617 C616 1.370 1_554 S
C617 C621 1.408 . S
C618 C616 1.363 . S
C618 C619 1.370 . S
C618 C622 1.524 . S
C619 C611 1.503 . S
C619 C618 1.370 . S
C619 C620 1.403 1_556 S
C620 C619 1.403 1_554 S
C620 C621 1.404 . S
C620 C623 1.539 . S
C621 C617 1.408 . S
C621 C620 1.404 . S
C621 H633 0.930 . S
C622 C618 1.524 . S
C622 H634 0.956 . S
C622 H635 0.961 . S
C622 H636 0.961 . S
C623 C620 1.539 . S
C623 H637 0.958 . S
C623 H638 0.961 . S
C623 H639 0.960 . S
H624 C608 0.931 . S
H625 C613 0.929 . S
H626 C614 0.960 . S
H627 C614 0.962 . S
H628 C614 0.960 . S
H629 C615 0.961 . S
H630 C615 0.961 . S
H631 C615 0.961 . S
H632 C616 0.931 . S
H633 C621 0.930 . S
H634 C622 0.956 . S
H635 C622 0.961 . S
H636 C622 0.961 . S
H637 C623 0.958 . S
H638 C623 0.961 . S
H639 C623 0.960 . S
C640 C641 1.391 . S
C640 C642 1.394 . S
C640 H656 0.931 . S
C641 C640 1.391 . S
C641 C645 1.376 . S
C642 C640 1.394 . S
C642 C643 1.369 . S
C642 C646 1.531 . S
C643 C642 1.369 . S
C643 C644 1.410 . S
C643 C651 1.503 . S
C644 C643 1.410 . S
C644 C645 1.392 . S
C644 C647 1.511 . S
C645 C641 1.376 . S
C645 C644 1.392 . S
C645 H657 0.929 . S
C646 C642 1.531 . S
C646 H658 0.960 . S
C646 H659 0.962 . S
C646 H660 0.960 . S
C647 C644 1.511 . S
C647 H661 0.961 . S
C647 H662 0.961 . S
C647 H663 0.961 . S
C648 C649 1.370 . S
C648 C650 1.363 . S
C648 H664 0.931 . S
C649 C648 1.370 . S
C649 C653 1.408 . S
C650 C648 1.363 . S
C650 C651 1.370 . S
C650 C654 1.524 . S
C651 C643 1.503 . S
C651 C650 1.370 . S
C651 C652 1.403 . S
C652 C651 1.403 . S
C652 C653 1.404 . S
C652 C655 1.539 . S
C653 C649 1.408 . S
C653 C652 1.404 . S
C653 H665 0.930 . S
C654 C650 1.524 . S
C654 H666 0.956 . S
C654 H667 0.961 . S
C654 H668 0.961 . S
C655 C652 1.539 . S
C655 H669 0.958 . S
C655 H670 0.961 . S
C655 H671 0.960 . S
H656 C640 0.931 . S
H657 C645 0.929 . S
H658 C646 0.960 . S
H659 C646 0.962 . S
H660 C646 0.960 . S
H661 C647 0.961 . S
H662 C647 0.961 . S
H663 C647 0.961 . S
H664 C648 0.931 . S
H665 C653 0.930 . S
H666 C654 0.956 . S
H667 C654 0.961 . S
H668 C654 0.961 . S
H669 C655 0.958 . S
H670 C655 0.961 . S
H671 C655 0.960 . S
C672 C673 1.391 . S
C672 C674 1.394 . S
C672 H688 0.931 . S
C673 C672 1.391 . S
C673 C677 1.376 . S
C674 C672 1.394 . S
C674 C675 1.369 . S
C674 C678 1.531 . S
C675 C674 1.369 . S
C675 C676 1.410 . S
C675 C683 1.503 . S
C676 C675 1.410 . S
C676 C677 1.392 . S
C676 C679 1.511 . S
C677 C673 1.376 . S
C677 C676 1.392 . S
C677 H689 0.929 . S
C678 C674 1.531 . S
C678 H690 0.960 . S
C678 H691 0.962 . S
C678 H692 0.960 . S
C679 C676 1.511 . S
C679 H693 0.961 . S
C679 H694 0.961 . S
C679 H695 0.961 . S
C680 C681 1.370 . S
C680 C682 1.363 . S
C680 H696 0.931 . S
C681 C680 1.370 . S
C681 C685 1.408 . S
C682 C680 1.363 . S
C682 C683 1.370 . S
C682 C686 1.524 . S
C683 C675 1.503 . S
C683 C682 1.370 . S
C683 C684 1.403 . S
C684 C683 1.403 . S
C684 C685 1.404 . S
C684 C687 1.539 . S
C685 C681 1.408 . S
C685 C684 1.404 . S
C685 H697 0.930 . S
C686 C682 1.524 . S
C686 H698 0.956 . S
C686 H699 0.961 . S
C686 H700 0.961 . S
C687 C684 1.539 . S
C687 H701 0.958 . S
C687 H702 0.961 . S
C687 H703 0.960 . S
H688 C672 0.931 . S
H689 C677 0.929 . S
H690 C678 0.960 . S
H691 C678 0.962 . S
H692 C678 0.960 . S
H693 C679 0.961 . S
H694 C679 0.961 . S
H695 C679 0.961 . S
H696 C680 0.931 . S
H697 C685 0.930 . S
H698 C686 0.956 . S
H699 C686 0.961 . S
H700 C686 0.961 . S
H701 C687 0.958 . S
H702 C687 0.961 . S
H703 C687 0.960 . S
C704 C705 1.391 . S
C704 C706 1.394 . S
C704 H720 0.931 . S
C705 C704 1.391 . S
C705 C709 1.376 . S
C706 C704 1.394 . S
C706 C707 1.369 . S
C706 C710 1.531 . S
C707 C706 1.369 . S
C707 C708 1.410 . S
C707 C715 1.503 . S
C708 C707 1.410 . S
C708 C709 1.392 . S
C708 C711 1.511 . S
C709 C705 1.376 . S
C709 C708 1.392 . S
C709 H721 0.929 . S
C710 C706 1.531 . S
C710 H722 0.960 . S
C710 H723 0.962 . S
C710 H724 0.960 . S
C711 C708 1.511 . S
C711 H725 0.961 . S
C711 H726 0.961 . S
C711 H727 0.961 . S
C712 C713 1.370 . S
C712 C714 1.363 . S
C712 H728 0.931 . S
C713 C712 1.370 . S
C713 C717 1.408 . S
C714 C712 1.363 . S
C714 C715 1.370 . S
C714 C718 1.524 . S
C715 C707 1.503 . S
C715 C714 1.370 . S
C715 C716 1.403 . S
C716 C715 1.403 . S
C716 C717 1.404 . S
C716 C719 1.539 . S
C717 C713 1.408 . S
C717 C716 1.404 . S
C717 H729 0.930 . S
C718 C714 1.524 . S
C718 H730 0.956 . S
C718 H731 0.961 . S
C718 H732 0.961 . S
C719 C716 1.539 . S
C719 H733 0.958 . S
C719 H734 0.961 . S
C719 H735 0.960 . S
H720 C704 0.931 . S
H721 C709 0.929 . S
H722 C710 0.960 . S
H723 C710 0.962 . S
H724 C710 0.960 . S
H725 C711 0.961 . S
H726 C711 0.961 . S
H727 C711 0.961 . S
H728 C712 0.931 . S
H729 C717 0.930 . S
H730 C718 0.956 . S
H731 C718 0.961 . S
H732 C718 0.961 . S
H733 C719 0.958 . S
H734 C719 0.961 . S
H735 C719 0.960 . S
C736 C737 1.391 . S
C736 C738 1.394 . S
C736 H752 0.931 . S
C737 C736 1.391 . S
C737 C741 1.376 . S
C738 C736 1.394 . S
C738 C739 1.369 . S
C738 C742 1.531 . S
C739 C738 1.369 . S
C739 C740 1.410 . S
C739 C747 1.503 . S
C740 C739 1.410 . S
C740 C741 1.392 . S
C740 C743 1.511 . S
C741 C737 1.376 . S
C741 C740 1.392 . S
C741 H753 0.929 . S
C742 C738 1.531 . S
C742 H754 0.960 . S
C742 H755 0.962 . S
C742 H756 0.960 . S
C743 C740 1.511 . S
C743 H757 0.961 . S
C743 H758 0.961 . S
C743 H759 0.961 . S
C744 C745 1.370 . S
C744 C746 1.363 . S
C744 H760 0.931 . S
C745 C744 1.370 . S
C745 C749 1.408 . S
C746 C744 1.363 . S
C746 C747 1.370 . S
C746 C750 1.524 . S
C747 C739 1.503 . S
C747 C746 1.370 . S
C747 C748 1.403 . S
C748 C747 1.403 . S
C748 C749 1.404 . S
C748 C751 1.539 . S
C749 C745 1.408 . S
C749 C748 1.404 . S
C749 H761 0.930 . S
C750 C746 1.524 . S
C750 H762 0.956 . S
C750 H763 0.961 . S
C750 H764 0.961 . S
C751 C748 1.539 . S
C751 H765 0.958 . S
C751 H766 0.961 . S
C751 H767 0.960 . S
H752 C736 0.931 . S
H753 C741 0.929 . S
H754 C742 0.960 . S
H755 C742 0.962 . S
H756 C742 0.960 . S
H757 C743 0.961 . S
H758 C743 0.961 . S
H759 C743 0.961 . S
H760 C744 0.931 . S
H761 C749 0.930 . S
H762 C750 0.956 . S
H763 C750 0.961 . S
H764 C750 0.961 . S
H765 C751 0.958 . S
H766 C751 0.961 . S
H767 C751 0.960 . S
C768 C769 1.391 . S
C768 C770 1.394 . S
C768 H784 0.931 . S
C769 C768 1.391 . S
C769 C773 1.376 . S
C770 C768 1.394 . S
C770 C771 1.369 . S
C770 C774 1.531 1_556 S
C771 C770 1.369 . S
C771 C772 1.410 . S
C771 C779 1.503 . S
C772 C771 1.410 . S
C772 C773 1.392 . S
C772 C775 1.511 . S
C773 C769 1.376 . S
C773 C772 1.392 . S
C773 H785 0.929 . S
C774 C770 1.531 1_554 S
C774 H786 0.960 . S
C774 H787 0.960 1_554 S
C774 H788 0.960 . S
C775 C772 1.511 . S
C775 H789 0.961 . S
C775 H790 0.961 . S
C775 H791 0.961 . S
C776 C777 1.370 1_556 S
C776 C778 1.363 . S
C776 H792 0.931 . S
C777 C776 1.370 1_554 S
C777 C781 1.408 . S
C778 C776 1.363 . S
C778 C779 1.370 . S
C778 C782 1.524 . S
C779 C771 1.503 . S
C779 C778 1.370 . S
C779 C780 1.403 1_556 S
C780 C779 1.403 1_554 S
C780 C781 1.404 . S
C780 C783 1.539 . S
C781 C777 1.408 . S
C781 C780 1.404 . S
C781 H793 0.930 . S
C782 C778 1.524 . S
C782 H794 0.956 . S
C782 H795 0.961 . S
C782 H796 0.961 . S
C783 C780 1.539 . S
C783 H797 0.958 . S
C783 H798 0.961 . S
C783 H799 0.960 . S
H784 C768 0.931 . S
H785 C773 0.929 . S
H786 C774 0.960 . S
H787 C774 0.960 1_556 S
H788 C774 0.960 . S
H789 C775 0.961 . S
H790 C775 0.961 . S
H791 C775 0.961 . S
H792 C776 0.931 . S
H793 C781 0.930 . S
H794 C782 0.956 . S
H795 C782 0.961 . S
H796 C782 0.961 . S
H797 C783 0.958 . S
H798 C783 0.961 . S
H799 C783 0.960 . S
C800 C801 1.391 . S
C800 C802 1.394 . S
C800 H816 0.931 . S
C801 C800 1.391 . S
C801 C805 1.376 . S
C802 C800 1.394 . S
C802 C803 1.369 . S
C802 C806 1.531 . S
C803 C802 1.369 . S
C803 C804 1.410 . S
C803 C811 1.503 . S
C804 C803 1.410 . S
C804 C805 1.392 . S
C804 C807 1.511 . S
C805 C801 1.376 . S
C805 C804 1.392 . S
C805 H817 0.929 . S
C806 C802 1.531 . S
C806 H818 0.960 . S
C806 H819 0.962 . S
C806 H820 0.960 . S
C807 C804 1.511 . S
C807 H821 0.961 . S
C807 H822 0.961 . S
C807 H823 0.961 . S
C808 C809 1.370 . S
C808 C810 1.363 . S
C808 H824 0.931 . S
C809 C808 1.370 . S
C809 C813 1.408 . S
C810 C808 1.363 . S
C810 C811 1.370 . S
C810 C814 1.524 . S
C811 C803 1.503 . S
C811 C810 1.370 . S
C811 C812 1.403 . S
C812 C811 1.403 . S
C812 C813 1.404 . S
C812 C815 1.539 . S
C813 C809 1.408 . S
C813 C812 1.404 . S
C813 H825 0.930 . S
C814 C810 1.524 . S
C814 H826 0.956 . S
C814 H827 0.961 . S
C814 H828 0.961 . S
C815 C812 1.539 . S
C815 H829 0.958 . S
C815 H830 0.961 . S
C815 H831 0.960 . S
H816 C800 0.931 . S
H817 C805 0.929 . S
H818 C806 0.960 . S
H819 C806 0.962 . S
H820 C806 0.960 . S
H821 C807 0.961 . S
H822 C807 0.961 . S
H823 C807 0.961 . S
H824 C808 0.931 . S
H825 C813 0.930 . S
H826 C814 0.956 . S
H827 C814 0.961 . S
H828 C814 0.961 . S
H829 C815 0.958 . S
H830 C815 0.961 . S
H831 C815 0.960 . S
C832 C833 1.391 . S
C832 C834 1.394 . S
C832 H848 0.931 . S
C833 C832 1.391 . S
C833 C837 1.376 . S
C834 C832 1.394 . S
C834 C835 1.369 . S
C834 C838 1.531 . S
C835 C834 1.369 . S
C835 C836 1.410 . S
C835 C843 1.503 . S
C836 C835 1.410 . S
C836 C837 1.392 . S
C836 C839 1.511 . S
C837 C833 1.376 . S
C837 C836 1.392 . S
C837 H849 0.929 . S
C838 C834 1.531 . S
C838 H850 0.960 . S
C838 H851 0.962 . S
C838 H852 0.960 . S
C839 C836 1.511 . S
C839 H853 0.961 . S
C839 H854 0.961 . S
C839 H855 0.961 . S
C840 C841 1.370 . S
C840 C842 1.363 . S
C840 H856 0.931 . S
C841 C840 1.370 . S
C841 C845 1.408 . S
C842 C840 1.363 . S
C842 C843 1.370 . S
C842 C846 1.524 . S
C843 C835 1.503 . S
C843 C842 1.370 . S
C843 C844 1.403 . S
C844 C843 1.403 . S
C844 C845 1.404 . S
C844 C847 1.539 . S
C845 C841 1.408 . S
C845 C844 1.404 . S
C845 H857 0.930 . S
C846 C842 1.524 . S
C846 H858 0.956 . S
C846 H859 0.961 . S
C846 H860 0.961 . S
C847 C844 1.539 . S
C847 H861 0.958 . S
C847 H862 0.961 . S
C847 H863 0.960 . S
H848 C832 0.931 . S
H849 C837 0.929 . S
H850 C838 0.960 . S
H851 C838 0.962 . S
H852 C838 0.960 . S
H853 C839 0.961 . S
H854 C839 0.961 . S
H855 C839 0.961 . S
H856 C840 0.931 . S
H857 C845 0.930 . S
H858 C846 0.956 . S
H859 C846 0.961 . S
H860 C846 0.961 . S
H861 C847 0.958 . S
H862 C847 0.961 . S
H863 C847 0.960 . S
C864 C865 1.391 . S
C864 C866 1.394 . S
C864 H880 0.931 . S
C865 C864 1.391 . S
C865 C869 1.376 . S
C866 C864 1.394 . S
C866 C867 1.369 . S
C866 C870 1.531 . S
C867 C866 1.369 . S
C867 C868 1.410 . S
C867 C875 1.503 . S
C868 C867 1.410 . S
C868 C869 1.392 . S
C868 C871 1.511 . S
C869 C865 1.376 . S
C869 C868 1.392 . S
C869 H881 0.929 . S
C870 C866 1.531 . S
C870 H882 0.960 . S
C870 H883 0.962 . S
C870 H884 0.960 . S
C871 C868 1.511 . S
C871 H885 0.961 . S
C871 H886 0.961 . S
C871 H887 0.961 . S
C872 C873 1.370 . S
C872 C874 1.363 . S
C872 H888 0.931 . S
C873 C872 1.370 . S
C873 C877 1.408 . S
C874 C872 1.363 . S
C874 C875 1.370 . S
C874 C878 1.524 . S
C875 C867 1.503 . S
C875 C874 1.370 . S
C875 C876 1.403 . S
C876 C875 1.403 . S
C876 C877 1.404 . S
C876 C879 1.539 . S
C877 C873 1.408 . S
C877 C876 1.404 . S
C877 H889 0.930 . S
C878 C874 1.524 . S
C878 H890 0.956 . S
C878 H891 0.961 . S
C878 H892 0.961 . S
C879 C876 1.539 . S
C879 H893 0.958 . S
C879 H894 0.961 . S
C879 H895 0.960 . S
H880 C864 0.931 . S
H881 C869 0.929 . S
H882 C870 0.960 . S
H883 C870 0.962 . S
H884 C870 0.960 . S
H885 C871 0.961 . S
H886 C871 0.961 . S
H887 C871 0.961 . S
H888 C872 0.931 . S
H889 C877 0.930 . S
H890 C878 0.956 . S
H891 C878 0.961 . S
H892 C878 0.961 . S
H893 C879 0.958 . S
H894 C879 0.961 . S
H895 C879 0.960 . S
C896 C897 1.391 . S
C896 C898 1.394 . S
C896 H912 0.931 . S
C897 C896 1.391 . S
C897 C901 1.376 . S
C898 C896 1.394 . S
C898 C899 1.369 . S
C898 C902 1.531 . S
C899 C898 1.369 . S
C899 C900 1.410 . S
C899 C907 1.503 . S
C900 C899 1.410 . S
C900 C901 1.392 . S
C900 C903 1.511 . S
C901 C897 1.376 . S
C901 C900 1.392 . S
C901 H913 0.929 . S
C902 C898 1.531 . S
C902 H914 0.960 . S
C902 H915 0.962 . S
C902 H916 0.960 . S
C903 C900 1.511 . S
C903 H917 0.961 . S
C903 H918 0.961 . S
C903 H919 0.961 . S
C904 C905 1.370 . S
C904 C906 1.363 . S
C904 H920 0.931 . S
C905 C904 1.370 . S
C905 C909 1.408 . S
C906 C904 1.363 . S
C906 C907 1.370 . S
C906 C910 1.524 . S
C907 C899 1.503 . S
C907 C906 1.370 . S
C907 C908 1.403 . S
C908 C907 1.403 . S
C908 C909 1.404 . S
C908 C911 1.539 . S
C909 C905 1.408 . S
C909 C908 1.404 . S
C909 H921 0.930 . S
C910 C906 1.524 . S
C910 H922 0.956 . S
C910 H923 0.961 . S
C910 H924 0.961 . S
C911 C908 1.539 . S
C911 H925 0.958 . S
C911 H926 0.961 . S
C911 H927 0.960 . S
H912 C896 0.931 . S
H913 C901 0.929 . S
H914 C902 0.960 . S
H915 C902 0.962 . S
H916 C902 0.960 . S
H917 C903 0.961 . S
H918 C903 0.961 . S
H919 C903 0.961 . S
H920 C904 0.931 . S
H921 C909 0.930 . S
H922 C910 0.956 . S
H923 C910 0.961 . S
H924 C910 0.961 . S
H925 C911 0.958 . S
H926 C911 0.961 . S
H927 C911 0.960 . S
C928 C929 1.391 . S
C928 C930 1.394 . S
C928 H944 0.931 . S
C929 C928 1.391 . S
C929 C933 1.376 . S
C930 C928 1.394 . S
C930 C931 1.369 . S
C930 C934 1.531 . S
C931 C930 1.369 . S
C931 C932 1.410 . S
C931 C939 1.503 . S
C932 C931 1.410 . S
C932 C933 1.392 . S
C932 C935 1.511 1_556 S
C933 C929 1.376 . S
C933 C932 1.392 . S
C933 H945 0.929 . S
C934 C930 1.531 . S
C934 H946 0.960 . S
C934 H947 0.962 . S
C934 H948 0.960 . S
C935 C932 1.511 1_554 S
C935 H949 0.961 . S
C935 H950 0.961 . S
C935 H951 0.961 . S
C936 C937 1.370 1_556 S
C936 C938 1.363 . S
C936 H952 0.931 . S
C937 C936 1.370 1_554 S
C937 C941 1.408 . S
C938 C936 1.363 . S
C938 C939 1.370 . S
C938 C942 1.524 . S
C939 C931 1.503 . S
C939 C938 1.370 . S
C939 C940 1.403 1_556 S
C940 C939 1.403 1_554 S
C940 C941 1.404 . S
C940 C943 1.539 . S
C941 C937 1.408 . S
C941 C940 1.404 . S
C941 H953 0.930 . S
C942 C938 1.524 . S
C942 H954 0.956 . S
C942 H955 0.961 . S
C942 H956 0.961 . S
C943 C940 1.539 . S
C943 H957 0.958 . S
C943 H958 0.961 . S
C943 H959 0.960 . S
H944 C928 0.931 . S
H945 C933 0.929 . S
H946 C934 0.960 . S
H947 C934 0.962 . S
H948 C934 0.960 . S
H949 C935 0.961 . S
H950 C935 0.961 . S
H951 C935 0.961 . S
H952 C936 0.931 . S
H953 C941 0.930 . S
H954 C942 0.956 . S
H955 C942 0.961 . S
H956 C942 0.961 . S
H957 C943 0.958 . S
H958 C943 0.961 . S
H959 C943 0.960 . S
C960 C961 1.391 . S
C960 C962 1.394 . S
C960 H976 0.931 . S
C961 C960 1.391 . S
C961 C965 1.376 . S
C962 C960 1.394 . S
C962 C963 1.369 . S
C962 C966 1.531 . S
C963 C962 1.369 . S
C963 C964 1.410 . S
C963 C971 1.503 . S
C964 C963 1.410 . S
C964 C965 1.392 . S
C964 C967 1.511 . S
C965 C961 1.376 . S
C965 C964 1.392 . S
C965 H977 0.929 . S
C966 C962 1.531 . S
C966 H978 0.960 . S
C966 H979 0.962 . S
C966 H980 0.960 . S
C967 C964 1.511 . S
C967 H981 0.961 . S
C967 H982 0.961 . S
C967 H983 0.961 . S
C968 C969 1.370 . S
C968 C970 1.363 . S
C968 H984 0.931 . S
C969 C968 1.370 . S
C969 C973 1.408 . S
C970 C968 1.363 . S
C970 C971 1.370 . S
C970 C974 1.524 . S
C971 C963 1.503 . S
C971 C970 1.370 . S
C971 C972 1.403 . S
C972 C971 1.403 . S
C972 C973 1.404 . S
C972 C975 1.539 . S
C973 C969 1.408 . S
C973 C972 1.404 . S
C973 H985 0.930 . S
C974 C970 1.524 . S
C974 H986 0.956 . S
C974 H987 0.961 . S
C974 H988 0.961 . S
C975 C972 1.539 . S
C975 H989 0.958 . S
C975 H990 0.961 . S
C975 H991 0.960 . S
H976 C960 0.931 . S
H977 C965 0.929 . S
H978 C966 0.960 . S
H979 C966 0.962 . S
H980 C966 0.960 . S
H981 C967 0.961 . S
H982 C967 0.961 . S
H983 C967 0.961 . S
H984 C968 0.931 . S
H985 C973 0.930 . S
H986 C974 0.956 . S
H987 C974 0.961 . S
H988 C974 0.961 . S
H989 C975 0.958 . S
H990 C975 0.961 . S
H991 C975 0.960 . S
C992 C993 1.408 . S
C992 C994 1.382 1_565 S
C992 H1008 0.927 1_565 S
C993 C992 1.408 . S
C993 C997 1.376 . S
C994 C992 1.382 1_545 S
C994 C995 1.369 . S
C994 C998 1.531 . S
C995 C994 1.369 . S
C995 C996 1.410 1_545 S
C995 C1003 1.503 . S
C996 C995 1.410 1_565 S
C996 C997 1.392 . S
C996 C999 1.511 . S
C997 C993 1.376 . S
C997 C996 1.392 . S
C997 H1009 0.929 . S
C998 C994 1.531 . S
C998 H1010 0.960 . S
C998 H1011 0.962 . S
C998 H1012 0.960 . S
C999 C996 1.511 . S
C999 H1013 0.961 . S
C999 H1014 0.961 . S
C999 H1015 0.961 1_565 S
C1000 C1001 1.370 . S
C1000 C1002 1.376 1_556 S
C1000 H1016 0.912 1_545 S
C1001 C1000 1.370 . S
C1001 C1005 1.408 1_556 S
C1002 C1000 1.376 1_554 S
C1002 C1003 1.394 . S
C1002 C1006 1.489 1_545 S
C1003 C995 1.503 . S
C1003 C1002 1.394 . S
C1003 C1004 1.403 . S
C1004 C1003 1.403 . S
C1004 C1005 1.404 . S
C1004 C1007 1.539 . S
C1005 C1001 1.408 1_554 S
C1005 C1004 1.404 . S
C1005 H1017 0.930 . S
C1006 C1002 1.489 1_565 S
C1006 H1018 0.956 . S
C1006 H1019 0.961 . S
C1006 H1020 0.961 . S
C1007 C1004 1.539 . S
C1007 H1021 0.958 . S
C1007 H1022 0.961 . S
C1007 H1023 0.960 . S
H1008 C992 0.927 1_545 S
H1009 C997 0.929 . S
H1010 C998 0.960 . S
H1011 C998 0.962 . S
H1012 C998 0.960 . S
H1013 C999 0.961 . S
H1014 C999 0.961 . S
H1015 C999 0.961 1_545 S
H1016 C1000 0.912 1_565 S
H1017 C1005 0.930 . S
H1018 C1006 0.956 . S
H1019 C1006 0.961 . S
H1020 C1006 0.961 . S
H1021 C1007 0.958 . S
H1022 C1007 0.961 . S
H1023 C1007 0.960 . S
C1024 C1025 1.391 . S
C1024 C1026 1.394 . S
C1024 H1040 0.931 . S
C1025 C1024 1.391 . S
C1025 C1029 1.376 . S
C1026 C1024 1.394 . S
C1026 C1027 1.369 . S
C1026 C1030 1.531 . S
C1027 C1026 1.369 . S
C1027 C1028 1.410 . S
C1027 C1035 1.503 . S
C1028 C1027 1.410 . S
C1028 C1029 1.392 . S
C1028 C1031 1.511 . S
C1029 C1025 1.376 . S
C1029 C1028 1.392 . S
C1029 H1041 0.929 . S
C1030 C1026 1.531 . S
C1030 H1042 0.960 . S
C1030 H1043 0.962 . S
C1030 H1044 0.960 . S
C1031 C1028 1.511 . S
C1031 H1045 0.961 . S
C1031 H1046 0.961 . S
C1031 H1047 0.961 . S
C1032 C1033 1.370 . S
C1032 C1034 1.363 . S
C1032 H1048 0.931 . S
C1033 C1032 1.370 . S
C1033 C1037 1.408 . S
C1034 C1032 1.363 . S
C1034 C1035 1.370 . S
C1034 C1038 1.524 . S
C1035 C1027 1.503 . S
C1035 C1034 1.370 . S
C1035 C1036 1.403 . S
C1036 C1035 1.403 . S
C1036 C1037 1.404 . S
C1036 C1039 1.539 . S
C1037 C1033 1.408 . S
C1037 C1036 1.404 . S
C1037 H1049 0.930 . S
C1038 C1034 1.524 . S
C1038 H1050 0.956 . S
C1038 H1051 0.961 . S
C1038 H1052 0.961 . S
C1039 C1036 1.539 . S
C1039 H1053 0.958 . S
C1039 H1054 0.961 . S
C1039 H1055 0.960 . S
H1040 C1024 0.931 . S
H1041 C1029 0.929 . S
H1042 C1030 0.960 . S
H1043 C1030 0.962 . S
H1044 C1030 0.960 . S
H1045 C1031 0.961 . S
H1046 C1031 0.961 . S
H1047 C1031 0.961 . S
H1048 C1032 0.931 . S
H1049 C1037 0.930 . S
H1050 C1038 0.956 . S
H1051 C1038 0.961 . S
H1052 C1038 0.961 . S
H1053 C1039 0.958 . S
H1054 C1039 0.961 . S
H1055 C1039 0.960 . S
C1056 C1057 1.391 . S
C1056 C1058 1.394 . S
C1056 H1072 0.931 . S
C1057 C1056 1.391 . S
C1057 C1061 1.376 . S
C1058 C1056 1.394 . S
C1058 C1059 1.369 . S
C1058 C1062 1.531 . S
C1059 C1058 1.369 . S
C1059 C1060 1.410 . S
C1059 C1067 1.503 . S
C1060 C1059 1.410 . S
C1060 C1061 1.392 . S
C1060 C1063 1.511 . S
C1061 C1057 1.376 . S
C1061 C1060 1.392 . S
C1061 H1073 0.929 . S
C1062 C1058 1.531 . S
C1062 H1074 0.960 . S
C1062 H1075 0.962 1_545 S
C1062 H1076 0.960 . S
C1063 C1060 1.511 . S
C1063 H1077 0.961 . S
C1063 H1078 0.961 . S
C1063 H1079 0.961 . S
C1064 C1065 1.370 . S
C1064 C1066 1.363 . S
C1064 H1080 0.931 . S
C1065 C1064 1.370 . S
C1065 C1069 1.408 1_565 S
C1066 C1064 1.363 . S
C1066 C1067 1.370 1_565 S
C1066 C1070 1.524 . S
C1067 C1059 1.503 . S
C1067 C1066 1.370 1_545 S
C1067 C1068 1.403 . S
C1068 C1067 1.403 . S
C1068 C1069 1.404 . S
C1068 C1071 1.539 . S
C1069 C1065 1.408 1_545 S
C1069 C1068 1.404 . S
C1069 H1081 0.930 . S
C1070 C1066 1.524 . S
C1070 H1082 0.956 . S
C1070 H1083 0.961 . S
C1070 H1084 0.961 . S
C1071 C1068 1.539 . S
C1071 H1085 0.958 . S
C1071 H1086 0.961 . S
C1071 H1087 0.960 . S
H1072 C1056 0.931 . S
H1073 C1061 0.929 . S
H1074 C1062 0.960 . S
H1075 C1062 0.962 1_565 S
H1076 C1062 0.960 . S
H1077 C1063 0.961 . S
H1078 C1063 0.961 . S
H1079 C1063 0.961 . S
H1080 C1064 0.931 . S
H1081 C1069 0.930 . S
H1082 C1070 0.956 . S
H1083 C1070 0.961 . S
H1084 C1070 0.961 . S
H1085 C1071 0.958 . S
H1086 C1071 0.961 . S
H1087 C1071 0.960 . S
C1088 C1089 1.391 . S
C1088 C1090 1.394 . S
C1088 H1104 0.931 . S
C1089 C1088 1.391 . S
C1089 C1093 1.376 . S
C1090 C1088 1.394 . S
C1090 C1091 1.369 . S
C1090 C1094 1.531 . S
C1091 C1090 1.369 . S
C1091 C1092 1.410 . S
C1091 C1099 1.503 . S
C1092 C1091 1.410 . S
C1092 C1093 1.392 . S
C1092 C1095 1.511 . S
C1093 C1089 1.376 . S
C1093 C1092 1.392 . S
C1093 H1105 0.929 . S
C1094 C1090 1.531 . S
C1094 H1106 0.960 . S
C1094 H1107 0.962 . S
C1094 H1108 0.960 . S
C1095 C1092 1.511 . S
C1095 H1109 0.961 . S
C1095 H1110 0.961 . S
C1095 H1111 0.961 . S
C1096 C1097 1.370 . S
C1096 C1098 1.363 . S
C1096 H1112 0.931 . S
C1097 C1096 1.370 . S
C1097 C1101 1.408 . S
C1098 C1096 1.363 . S
C1098 C1099 1.370 . S
C1098 C1102 1.524 . S
C1099 C1091 1.503 . S
C1099 C1098 1.370 . S
C1099 C1100 1.403 . S
C1100 C1099 1.403 . S
C1100 C1101 1.404 . S
C1100 C1103 1.539 . S
C1101 C1097 1.408 . S
C1101 C1100 1.404 . S
C1101 H1113 0.930 . S
C1102 C1098 1.524 . S
C1102 H1114 0.956 . S
C1102 H1115 0.961 . S
C1102 H1116 0.961 . S
C1103 C1100 1.539 . S
C1103 H1117 0.958 . S
C1103 H1118 0.961 . S
C1103 H1119 0.960 . S
H1104 C1088 0.931 . S
H1105 C1093 0.929 . S
H1106 C1094 0.960 . S
H1107 C1094 0.962 . S
H1108 C1094 0.960 . S
H1109 C1095 0.961 . S
H1110 C1095 0.961 . S
H1111 C1095 0.961 . S
H1112 C1096 0.931 . S
H1113 C1101 0.930 . S
H1114 C1102 0.956 . S
H1115 C1102 0.961 . S
H1116 C1102 0.961 . S
H1117 C1103 0.958 . S
H1118 C1103 0.961 . S
H1119 C1103 0.960 . S
C1120 C1121 1.391 1_554 S
C1120 C1122 1.394 . S
C1120 H1136 0.931 . S
C1121 C1120 1.391 1_556 S
C1121 C1125 1.376 . S
C1122 C1120 1.394 . S
C1122 C1123 1.369 . S
C1122 C1126 1.531 . S
C1123 C1122 1.369 . S
C1123 C1124 1.410 . S
C1123 C1131 1.503 . S
C1124 C1123 1.410 . S
C1124 C1125 1.392 1_554 S
C1124 C1127 1.511 1_545 S
C1125 C1121 1.376 . S
C1125 C1124 1.392 1_556 S
C1125 H1137 0.929 . S
C1126 C1122 1.531 . S
C1126 H1138 0.960 . S
C1126 H1139 0.962 . S
C1126 H1140 0.960 . S
C1127 C1124 1.511 1_565 S
C1127 H1141 0.961 . S
C1127 H1142 0.961 . S
C1127 H1143 0.961 . S
C1128 C1129 1.370 . S
C1128 C1130 1.363 . S
C1128 H1144 0.931 . S
C1129 C1128 1.370 . S
C1129 C1133 1.408 1_565 S
C1130 C1128 1.363 . S
C1130 C1131 1.370 1_565 S
C1130 C1134 1.524 . S
C1131 C1123 1.503 . S
C1131 C1130 1.370 1_545 S
C1131 C1132 1.403 . S
C1132 C1131 1.403 . S
C1132 C1133 1.404 . S
C1132 C1135 1.539 . S
C1133 C1129 1.408 1_545 S
C1133 C1132 1.404 . S
C1133 H1145 0.930 . S
C1134 C1130 1.524 . S
C1134 H1146 0.956 . S
C1134 H1147 0.961 . S
C1134 H1148 0.961 . S
C1135 C1132 1.539 . S
C1135 H1149 0.958 . S
C1135 H1150 0.961 . S
C1135 H1151 0.960 . S
H1136 C1120 0.931 . S
H1137 C1125 0.929 . S
H1138 C1126 0.960 . S
H1139 C1126 0.962 . S
H1140 C1126 0.960 . S
H1141 C1127 0.961 . S
H1142 C1127 0.961 . S
H1143 C1127 0.961 . S
H1144 C1128 0.931 . S
H1145 C1133 0.930 . S
H1146 C1134 0.956 . S
H1147 C1134 0.961 . S
H1148 C1134 0.961 . S
H1149 C1135 0.958 . S
H1150 C1135 0.961 . S
H1151 C1135 0.960 . S
C1152 C1153 1.391 . S
C1152 C1154 1.394 . S
C1152 H1168 0.931 . S
C1153 C1152 1.391 . S
C1153 C1157 1.376 . S
C1154 C1152 1.394 . S
C1154 C1155 1.369 . S
C1154 C1158 1.531 . S
C1155 C1154 1.369 . S
C1155 C1156 1.410 . S
C1155 C1163 1.503 . S
C1156 C1155 1.410 . S
C1156 C1157 1.392 . S
C1156 C1159 1.511 . S
C1157 C1153 1.376 . S
C1157 C1156 1.392 . S
C1157 H1169 0.929 . S
C1158 C1154 1.531 . S
C1158 H1170 0.960 . S
C1158 H1171 0.962 . S
C1158 H1172 0.960 . S
C1159 C1156 1.511 . S
C1159 H1173 0.961 . S
C1159 H1174 0.961 . S
C1159 H1175 0.961 . S
C1160 C1161 1.370 . S
C1160 C1162 1.363 . S
C1160 H1176 0.931 . S
C1161 C1160 1.370 . S
C1161 C1165 1.408 . S
C1162 C1160 1.363 . S
C1162 C1163 1.370 . S
C1162 C1166 1.524 . S
C1163 C1155 1.503 . S
C1163 C1162 1.370 . S
C1163 C1164 1.403 . S
C1164 C1163 1.403 . S
C1164 C1165 1.404 . S
C1164 C1167 1.539 . S
C1165 C1161 1.408 . S
C1165 C1164 1.404 . S
C1165 H1177 0.930 . S
C1166 C1162 1.524 . S
C1166 H1178 0.956 . S
C1166 H1179 0.961 . S
C1166 H1180 0.961 . S
C1167 C1164 1.539 . S
C1167 H1181 0.958 . S
C1167 H1182 0.961 . S
C1167 H1183 0.960 . S
H1168 C1152 0.931 . S
H1169 C1157 0.929 . S
H1170 C1158 0.960 . S
H1171 C1158 0.962 . S
H1172 C1158 0.960 . S
H1173 C1159 0.961 . S
H1174 C1159 0.961 . S
H1175 C1159 0.961 . S
H1176 C1160 0.931 . S
H1177 C1165 0.930 . S
H1178 C1166 0.956 . S
H1179 C1166 0.961 . S
H1180 C1166 0.961 . S
H1181 C1167 0.958 . S
H1182 C1167 0.961 . S
H1183 C1167 0.960 . S
C1184 C1185 1.391 . S
C1184 C1186 1.394 . S
C1184 H1200 0.931 . S
C1185 C1184 1.391 . S
C1185 C1189 1.376 . S
C1186 C1184 1.394 . S
C1186 C1187 1.369 . S
C1186 C1190 1.531 . S
C1187 C1186 1.369 . S
C1187 C1188 1.410 . S
C1187 C1195 1.503 . S
C1188 C1187 1.410 . S
C1188 C1189 1.392 . S
C1188 C1191 1.511 1_545 S
C1189 C1185 1.376 . S
C1189 C1188 1.392 . S
C1189 H1201 0.929 . S
C1190 C1186 1.531 . S
C1190 H1202 0.960 . S
C1190 H1203 0.962 . S
C1190 H1204 0.960 . S
C1191 C1188 1.511 1_565 S
C1191 H1205 0.961 . S
C1191 H1206 0.961 . S
C1191 H1207 0.961 . S
C1192 C1193 1.370 . S
C1192 C1194 1.363 . S
C1192 H1208 0.931 . S
C1193 C1192 1.370 . S
C1193 C1197 1.390 1_565 S
C1194 C1192 1.363 . S
C1194 C1195 1.370 1_565 S
C1194 C1198 1.524 . S
C1195 C1187 1.503 . S
C1195 C1194 1.370 1_545 S
C1195 C1196 1.403 . S
C1196 C1195 1.403 . S
C1196 C1197 1.415 . S
C1196 C1199 1.539 . S
C1197 C1193 1.390 1_545 S
C1197 C1196 1.415 . S
C1197 H1209 0.937 . S
C1198 C1194 1.524 . S
C1198 H1210 0.956 . S
C1198 H1211 0.961 . S
C1198 H1212 0.961 . S
C1199 C1196 1.539 . S
C1199 H1213 0.958 . S
C1199 H1214 0.961 . S
C1199 H1215 0.960 . S
H1200 C1184 0.931 . S
H1201 C1189 0.929 . S
H1202 C1190 0.960 . S
H1203 C1190 0.962 . S
H1204 C1190 0.960 . S
H1205 C1191 0.961 . S
H1206 C1191 0.961 . S
H1207 C1191 0.961 . S
H1208 C1192 0.931 . S
H1209 C1197 0.937 . S
H1210 C1198 0.956 . S
H1211 C1198 0.961 . S
H1212 C1198 0.961 . S
H1213 C1199 0.958 . S
H1214 C1199 0.961 . S
H1215 C1199 0.960 . S
C1216 C1217 1.391 . S
C1216 C1218 1.394 . S
C1216 H1232 0.931 . S
C1217 C1216 1.391 . S
C1217 C1221 1.376 . S
C1218 C1216 1.394 . S
C1218 C1219 1.369 . S
C1218 C1222 1.531 . S
C1219 C1218 1.369 . S
C1219 C1220 1.410 . S
C1219 C1227 1.503 . S
C1220 C1219 1.410 . S
C1220 C1221 1.392 . S
C1220 C1223 1.511 . S
C1221 C1217 1.376 . S
C1221 C1220 1.392 . S
C1221 H1233 0.929 . S
C1222 C1218 1.531 . S
C1222 H1234 0.960 . S
C1222 H1235 0.962 . S
C1222 H1236 0.960 . S
C1223 C1220 1.511 . S
C1223 H1237 0.961 . S
C1223 H1238 0.961 . S
C1223 H1239 0.961 . S
C1224 C1225 1.370 . S
C1224 C1226 1.363 . S
C1224 H1240 0.931 . S
C1225 C1224 1.370 . S
C1225 C1229 1.408 . S
C1226 C1224 1.363 . S
C1226 C1227 1.370 . S
C1226 C1230 1.524 . S
C1227 C1219 1.503 . S
C1227 C1226 1.370 . S
C1227 C1228 1.403 . S
C1228 C1227 1.403 . S
C1228 C1229 1.404 . S
C1228 C1231 1.539 . S
C1229 C1225 1.408 . S
C1229 C1228 1.404 . S
C1229 H1241 0.930 . S
C1230 C1226 1.524 . S
C1230 H1242 0.956 . S
C1230 H1243 0.961 . S
C1230 H1244 0.961 . S
C1231 C1228 1.539 . S
C1231 H1245 0.958 . S
C1231 H1246 0.961 . S
C1231 H1247 0.960 . S
H1232 C1216 0.931 . S
H1233 C1221 0.929 . S
H1234 C1222 0.960 . S
H1235 C1222 0.962 . S
H1236 C1222 0.960 . S
H1237 C1223 0.961 . S
H1238 C1223 0.961 . S
H1239 C1223 0.961 . S
H1240 C1224 0.931 . S
H1241 C1229 0.930 . S
H1242 C1230 0.956 . S
H1243 C1230 0.961 . S
H1244 C1230 0.961 . S
H1245 C1231 0.958 . S
H1246 C1231 0.961 . S
H1247 C1231 0.960 . S
C1248 C1249 1.391 . S
C1248 C1250 1.394 . S
C1248 H1264 0.931 . S
C1249 C1248 1.391 . S
C1249 C1253 1.376 . S
C1250 C1248 1.394 . S
C1250 C1251 1.369 . S
C1250 C1254 1.531 . S
C1251 C1250 1.369 . S
C1251 C1252 1.410 . S
C1251 C1259 1.503 . S
C1252 C1251 1.410 . S
C1252 C1253 1.392 . S
C1252 C1255 1.511 . S
C1253 C1249 1.376 . S
C1253 C1252 1.392 . S
C1253 H1265 0.929 . S
C1254 C1250 1.531 . S
C1254 H1266 0.960 . S
C1254 H1267 0.962 . S
C1254 H1268 0.960 . S
C1255 C1252 1.511 . S
C1255 H1269 0.961 . S
C1255 H1270 0.961 . S
C1255 H1271 0.961 . S
C1256 C1257 1.370 . S
C1256 C1258 1.363 . S
C1256 H1272 0.931 . S
C1257 C1256 1.370 . S
C1257 C1261 1.408 . S
C1258 C1256 1.363 . S
C1258 C1259 1.370 . S
C1258 C1262 1.524 . S
C1259 C1251 1.503 . S
C1259 C1258 1.370 . S
C1259 C1260 1.403 . S
C1260 C1259 1.403 . S
C1260 C1261 1.404 . S
C1260 C1263 1.539 . S
C1261 C1257 1.408 . S
C1261 C1260 1.404 . S
C1261 H1273 0.930 . S
C1262 C1258 1.524 . S
C1262 H1274 0.956 . S
C1262 H1275 0.961 . S
C1262 H1276 0.961 . S
C1263 C1260 1.539 . S
C1263 H1277 0.958 . S
C1263 H1278 0.961 . S
C1263 H1279 0.960 . S
H1264 C1248 0.931 . S
H1265 C1253 0.929 . S
H1266 C1254 0.960 . S
H1267 C1254 0.962 . S
H1268 C1254 0.960 . S
H1269 C1255 0.961 . S
H1270 C1255 0.961 . S
H1271 C1255 0.961 . S
H1272 C1256 0.931 . S
H1273 C1261 0.930 . S
H1274 C1262 0.956 . S
H1275 C1262 0.961 . S
H1276 C1262 0.961 . S
H1277 C1263 0.958 . S
H1278 C1263 0.961 . S
H1279 C1263 0.960 . S
C1280 C1281 1.391 . S
C1280 C1282 1.394 . S
C1280 H1296 0.931 . S
C1281 C1280 1.391 . S
C1281 C1285 1.376 . S
C1282 C1280 1.394 . S
C1282 C1283 1.369 . S
C1282 C1286 1.531 . S
C1283 C1282 1.369 . S
C1283 C1284 1.410 . S
C1283 C1291 1.503 . S
C1284 C1283 1.410 . S
C1284 C1285 1.392 . S
C1284 C1287 1.511 . S
C1285 C1281 1.376 . S
C1285 C1284 1.392 . S
C1285 H1297 0.929 . S
C1286 C1282 1.531 . S
C1286 H1298 0.960 . S
C1286 H1299 0.962 . S
C1286 H1300 0.960 . S
C1287 C1284 1.511 . S
C1287 H1301 0.961 . S
C1287 H1302 0.961 . S
C1287 H1303 0.961 . S
C1288 C1289 1.370 . S
C1288 C1290 1.363 . S
C1288 H1304 0.931 . S
C1289 C1288 1.370 . S
C1289 C1293 1.408 . S
C1290 C1288 1.363 . S
C1290 C1291 1.370 . S
C1290 C1294 1.524 . S
C1291 C1283 1.503 . S
C1291 C1290 1.370 . S
C1291 C1292 1.403 . S
C1292 C1291 1.403 . S
C1292 C1293 1.404 . S
C1292 C1295 1.539 . S
C1293 C1289 1.408 . S
C1293 C1292 1.404 . S
C1293 H1305 0.930 . S
C1294 C1290 1.524 . S
C1294 H1306 0.956 . S
C1294 H1307 0.961 . S
C1294 H1308 0.961 . S
C1295 C1292 1.539 . S
C1295 H1309 0.958 . S
C1295 H1310 0.961 . S
C1295 H1311 0.960 . S
H1296 C1280 0.931 . S
H1297 C1285 0.929 . S
H1298 C1286 0.960 . S
H1299 C1286 0.962 . S
H1300 C1286 0.960 . S
H1301 C1287 0.961 . S
H1302 C1287 0.961 . S
H1303 C1287 0.961 . S
H1304 C1288 0.931 . S
H1305 C1293 0.930 . S
H1306 C1294 0.956 . S
H1307 C1294 0.961 . S
H1308 C1294 0.961 . S
H1309 C1295 0.958 . S
H1310 C1295 0.961 . S
H1311 C1295 0.960 . S
C1312 C1313 1.391 . S
C1312 C1314 1.394 . S
C1312 H1328 0.931 . S
C1313 C1312 1.391 . S
C1313 C1317 1.376 . S
C1314 C1312 1.394 . S
C1314 C1315 1.369 . S
C1314 C1318 1.531 . S
C1315 C1314 1.369 . S
C1315 C1316 1.410 . S
C1315 C1323 1.503 . S
C1316 C1315 1.410 . S
C1316 C1317 1.392 . S
C1316 C1319 1.511 . S
C1317 C1313 1.376 . S
C1317 C1316 1.392 . S
C1317 H1329 0.929 . S
C1318 C1314 1.531 . S
C1318 H1330 0.960 . S
C1318 H1331 0.962 . S
C1318 H1332 0.960 . S
C1319 C1316 1.511 . S
C1319 H1333 0.961 . S
C1319 H1334 0.961 . S
C1319 H1335 0.961 . S
C1320 C1321 1.370 . S
C1320 C1322 1.363 1_556 S
C1320 H1336 0.931 . S
C1321 C1320 1.370 . S
C1321 C1325 1.408 1_556 S
C1322 C1320 1.363 1_554 S
C1322 C1323 1.370 . S
C1322 C1326 1.524 . S
C1323 C1315 1.503 . S
C1323 C1322 1.370 . S
C1323 C1324 1.403 . S
C1324 C1323 1.403 . S
C1324 C1325 1.404 . S
C1324 C1327 1.539 . S
C1325 C1321 1.408 1_554 S
C1325 C1324 1.404 . S
C1325 H1337 0.930 . S
C1326 C1322 1.524 . S
C1326 H1338 0.956 . S
C1326 H1339 0.961 . S
C1326 H1340 0.961 . S
C1327 C1324 1.539 . S
C1327 H1341 0.958 . S
C1327 H1342 0.961 . S
C1327 H1343 0.960 . S
H1328 C1312 0.931 . S
H1329 C1317 0.929 . S
H1330 C1318 0.960 . S
H1331 C1318 0.962 . S
H1332 C1318 0.960 . S
H1333 C1319 0.961 . S
H1334 C1319 0.961 . S
H1335 C1319 0.961 . S
H1336 C1320 0.931 . S
H1337 C1325 0.930 . S
H1338 C1326 0.956 . S
H1339 C1326 0.961 . S
H1340 C1326 0.961 . S
H1341 C1327 0.958 . S
H1342 C1327 0.961 . S
H1343 C1327 0.960 . S
C1344 C1345 1.391 . S
C1344 C1346 1.394 . S
C1344 H1360 0.931 . S
C1345 C1344 1.391 . S
C1345 C1349 1.376 . S
C1346 C1344 1.394 . S
C1346 C1347 1.369 . S
C1346 C1350 1.531 . S
C1347 C1346 1.369 . S
C1347 C1348 1.410 . S
C1347 C1355 1.503 . S
C1348 C1347 1.410 . S
C1348 C1349 1.392 . S
C1348 C1351 1.511 . S
C1349 C1345 1.376 . S
C1349 C1348 1.392 . S
C1349 H1361 0.929 . S
C1350 C1346 1.531 . S
C1350 H1362 0.960 . S
C1350 H1363 0.962 . S
C1350 H1364 0.960 . S
C1351 C1348 1.511 . S
C1351 H1365 0.961 . S
C1351 H1366 0.961 . S
C1351 H1367 0.961 . S
C1352 C1353 1.370 . S
C1352 C1354 1.363 . S
C1352 H1368 0.931 . S
C1353 C1352 1.370 . S
C1353 C1357 1.408 . S
C1354 C1352 1.363 . S
C1354 C1355 1.370 . S
C1354 C1358 1.524 . S
C1355 C1347 1.503 . S
C1355 C1354 1.370 . S
C1355 C1356 1.403 . S
C1356 C1355 1.403 . S
C1356 C1357 1.404 . S
C1356 C1359 1.539 . S
C1357 C1353 1.408 . S
C1357 C1356 1.404 . S
C1357 H1369 0.930 . S
C1358 C1354 1.524 . S
C1358 H1370 0.956 . S
C1358 H1371 0.961 . S
C1358 H1372 0.961 . S
C1359 C1356 1.539 . S
C1359 H1373 0.958 . S
C1359 H1374 0.961 . S
C1359 H1375 0.960 . S
H1360 C1344 0.931 . S
H1361 C1349 0.929 . S
H1362 C1350 0.960 . S
H1363 C1350 0.962 . S
H1364 C1350 0.960 . S
H1365 C1351 0.961 . S
H1366 C1351 0.961 . S
H1367 C1351 0.961 . S
H1368 C1352 0.931 . S
H1369 C1357 0.930 . S
H1370 C1358 0.956 . S
H1371 C1358 0.961 . S
H1372 C1358 0.961 . S
H1373 C1359 0.958 . S
H1374 C1359 0.961 . S
H1375 C1359 0.960 . S
C1376 C1377 1.391 . S
C1376 C1378 1.394 . S
C1376 H1392 0.931 . S
C1377 C1376 1.391 . S
C1377 C1381 1.376 . S
C1378 C1376 1.394 . S
C1378 C1379 1.369 . S
C1378 C1382 1.531 . S
C1379 C1378 1.369 . S
C1379 C1380 1.410 . S
C1379 C1387 1.503 . S
C1380 C1379 1.410 . S
C1380 C1381 1.392 . S
C1380 C1383 1.511 . S
C1381 C1377 1.376 . S
C1381 C1380 1.392 . S
C1381 H1393 0.929 . S
C1382 C1378 1.531 . S
C1382 H1394 0.960 . S
C1382 H1395 0.962 . S
C1382 H1396 0.960 . S
C1383 C1380 1.511 . S
C1383 H1397 0.961 . S
C1383 H1398 0.961 . S
C1383 H1399 0.961 . S
C1384 C1385 1.370 . S
C1384 C1386 1.363 . S
C1384 H1400 0.931 . S
C1385 C1384 1.370 . S
C1385 C1389 1.408 . S
C1386 C1384 1.363 . S
C1386 C1387 1.370 . S
C1386 C1390 1.524 . S
C1387 C1379 1.503 . S
C1387 C1386 1.370 . S
C1387 C1388 1.403 . S
C1388 C1387 1.403 . S
C1388 C1389 1.404 . S
C1388 C1391 1.539 . S
C1389 C1385 1.408 . S
C1389 C1388 1.404 . S
C1389 H1401 0.930 . S
C1390 C1386 1.524 . S
C1390 H1402 0.956 . S
C1390 H1403 0.961 . S
C1390 H1404 0.961 . S
C1391 C1388 1.539 . S
C1391 H1405 0.958 . S
C1391 H1406 0.961 . S
C1391 H1407 0.960 . S
H1392 C1376 0.931 . S
H1393 C1381 0.929 . S
H1394 C1382 0.960 . S
H1395 C1382 0.962 . S
H1396 C1382 0.960 . S
H1397 C1383 0.961 . S
H1398 C1383 0.961 . S
H1399 C1383 0.961 . S
H1400 C1384 0.931 . S
H1401 C1389 0.930 . S
H1402 C1390 0.956 . S
H1403 C1390 0.961 . S
H1404 C1390 0.961 . S
H1405 C1391 0.958 . S
H1406 C1391 0.961 . S
H1407 C1391 0.960 . S
C1408 C1409 1.391 . S
C1408 C1410 1.394 . S
C1408 H1424 0.931 . S
C1409 C1408 1.391 . S
C1409 C1413 1.376 . S
C1410 C1408 1.394 . S
C1410 C1411 1.369 . S
C1410 C1414 1.531 . S
C1411 C1410 1.369 . S
C1411 C1412 1.410 . S
C1411 C1419 1.503 . S
C1412 C1411 1.410 . S
C1412 C1413 1.392 . S
C1412 C1415 1.511 . S
C1413 C1409 1.376 . S
C1413 C1412 1.392 . S
C1413 H1425 0.929 . S
C1414 C1410 1.531 . S
C1414 H1426 0.960 . S
C1414 H1427 0.962 . S
C1414 H1428 0.960 . S
C1415 C1412 1.511 . S
C1415 H1429 0.961 . S
C1415 H1430 0.961 . S
C1415 H1431 0.961 . S
C1416 C1417 1.370 . S
C1416 C1418 1.363 . S
C1416 H1432 0.931 . S
C1417 C1416 1.370 . S
C1417 C1421 1.408 . S
C1418 C1416 1.363 . S
C1418 C1419 1.370 . S
C1418 C1422 1.524 . S
C1419 C1411 1.503 . S
C1419 C1418 1.370 . S
C1419 C1420 1.403 . S
C1420 C1419 1.403 . S
C1420 C1421 1.404 . S
C1420 C1423 1.539 . S
C1421 C1417 1.408 . S
C1421 C1420 1.404 . S
C1421 H1433 0.930 . S
C1422 C1418 1.524 . S
C1422 H1434 0.956 . S
C1422 H1435 0.961 . S
C1422 H1436 0.961 . S
C1423 C1420 1.539 . S
C1423 H1437 0.958 . S
C1423 H1438 0.961 . S
C1423 H1439 0.960 . S
H1424 C1408 0.931 . S
H1425 C1413 0.929 . S
H1426 C1414 0.960 . S
H1427 C1414 0.962 . S
H1428 C1414 0.960 . S
H1429 C1415 0.961 . S
H1430 C1415 0.961 . S
H1431 C1415 0.961 . S
H1432 C1416 0.931 . S
H1433 C1421 0.930 . S
H1434 C1422 0.956 . S
H1435 C1422 0.961 . S
H1436 C1422 0.961 . S
H1437 C1423 0.958 . S
H1438 C1423 0.961 . S
H1439 C1423 0.960 . S
C1440 C1441 1.391 . S
C1440 C1442 1.394 . S
C1440 H1456 0.931 . S
C1441 C1440 1.391 . S
C1441 C1445 1.376 . S
C1442 C1440 1.394 . S
C1442 C1443 1.369 . S
C1442 C1446 1.531 . S
C1443 C1442 1.369 . S
C1443 C1444 1.410 . S
C1443 C1451 1.503 . S
C1444 C1443 1.410 . S
C1444 C1445 1.392 . S
C1444 C1447 1.511 . S
C1445 C1441 1.376 . S
C1445 C1444 1.392 . S
C1445 H1457 0.929 . S
C1446 C1442 1.531 . S
C1446 H1458 0.960 . S
C1446 H1459 0.962 . S
C1446 H1460 0.960 . S
C1447 C1444 1.511 . S
C1447 H1461 0.961 . S
C1447 H1462 0.961 . S
C1447 H1463 0.961 . S
C1448 C1449 1.370 . S
C1448 C1450 1.363 1_556 S
C1448 H1464 0.931 . S
C1449 C1448 1.370 . S
C1449 C1453 1.408 1_556 S
C1450 C1448 1.363 1_554 S
C1450 C1451 1.370 . S
C1450 C1454 1.524 . S
C1451 C1443 1.503 . S
C1451 C1450 1.370 . S
C1451 C1452 1.403 . S
C1452 C1451 1.403 . S
C1452 C1453 1.404 . S
C1452 C1455 1.539 . S
C1453 C1449 1.408 1_554 S
C1453 C1452 1.404 . S
C1453 H1465 0.930 . S
C1454 C1450 1.524 . S
C1454 H1466 0.956 . S
C1454 H1467 0.961 . S
C1454 H1468 0.961 . S
C1455 C1452 1.539 . S
C1455 H1469 0.958 . S
C1455 H1470 0.961 . S
C1455 H1471 0.960 . S
H1456 C1440 0.931 . S
H1457 C1445 0.929 . S
H1458 C1446 0.960 . S
H1459 C1446 0.962 . S
H1460 C1446 0.960 . S
H1461 C1447 0.961 . S
H1462 C1447 0.961 . S
H1463 C1447 0.961 . S
H1464 C1448 0.931 . S
H1465 C1453 0.930 . S
H1466 C1454 0.956 . S
H1467 C1454 0.961 . S
H1468 C1454 0.961 . S
H1469 C1455 0.958 . S
H1470 C1455 0.961 . S
H1471 C1455 0.960 . S
C1472 C1473 1.391 . S
C1472 C1474 1.394 . S
C1472 H1488 0.931 . S
C1473 C1472 1.391 . S
C1473 C1477 1.376 . S
C1474 C1472 1.394 . S
C1474 C1475 1.369 . S
C1474 C1478 1.531 1_554 S
C1475 C1474 1.369 . S
C1475 C1476 1.410 . S
C1475 C1483 1.503 . S
C1476 C1475 1.410 . S
C1476 C1477 1.392 . S
C1476 C1479 1.511 . S
C1477 C1473 1.376 . S
C1477 C1476 1.392 . S
C1477 H1489 0.929 . S
C1478 C1474 1.531 1_556 S
C1478 H1490 0.960 . S
C1478 H1491 0.962 1_556 S
C1478 H1492 0.960 . S
C1479 C1476 1.511 . S
C1479 H1493 0.961 . S
C1479 H1494 0.961 . S
C1479 H1495 0.961 . S
C1480 C1481 1.370 . S
C1480 C1482 1.363 . S
C1480 H1496 0.931 . S
C1481 C1480 1.370 . S
C1481 C1485 1.408 . S
C1482 C1480 1.363 . S
C1482 C1483 1.370 . S
C1482 C1486 1.524 . S
C1483 C1475 1.503 . S
C1483 C1482 1.370 . S
C1483 C1484 1.403 . S
C1484 C1483 1.403 . S
C1484 C1485 1.404 . S
C1484 C1487 1.539 1_554 S
C1485 C1481 1.408 . S
C1485 C1484 1.404 . S
C1485 H1497 0.930 . S
C1486 C1482 1.524 . S
C1486 H1498 0.956 . S
C1486 H1499 0.961 . S
C1486 H1500 0.961 . S
C1487 C1484 1.539 1_556 S
C1487 H1501 0.958 . S
C1487 H1502 0.961 . S
C1487 H1503 0.960 1_556 S
H1488 C1472 0.931 . S
H1489 C1477 0.929 . S
H1490 C1478 0.960 . S
H1491 C1478 0.962 1_554 S
H1492 C1478 0.960 . S
H1493 C1479 0.961 . S
H1494 C1479 0.961 . S
H1495 C1479 0.961 . S
H1496 C1480 0.931 . S
H1497 C1485 0.930 . S
H1498 C1486 0.956 . S
H1499 C1486 0.961 . S
H1500 C1486 0.961 . S
H1501 C1487 0.958 . S
H1502 C1487 0.961 . S
H1503 C1487 0.960 1_554 S
C1504 C1505 1.391 . S
C1504 C1506 1.394 . S
C1504 H1520 0.931 . S
C1505 C1504 1.391 . S
C1505 C1509 1.376 . S
C1506 C1504 1.394 . S
C1506 C1507 1.369 . S
C1506 C1510 1.531 . S
C1507 C1506 1.369 . S
C1507 C1508 1.410 . S
C1507 C1515 1.503 1_455 S
C1508 C1507 1.410 . S
C1508 C1509 1.392 . S
C1508 C1511 1.511 . S
C1509 C1505 1.376 . S
C1509 C1508 1.392 . S
C1509 H1521 0.929 . S
C1510 C1506 1.531 . S
C1510 H1522 0.960 1_455 S
C1510 H1523 0.962 . S
C1510 H1524 0.960 . S
C1511 C1508 1.511 . S
C1511 H1525 0.961 . S
C1511 H1526 0.961 1_455 S
C1511 H1527 0.961 1_565 S
C1512 C1513 1.370 . S
C1512 C1514 1.363 . S
C1512 H1528 0.931 . S
C1513 C1512 1.370 . S
C1513 C1517 1.408 . S
C1514 C1512 1.363 . S
C1514 C1515 1.370 . S
C1514 C1518 1.524 . S
C1515 C1507 1.503 1_655 S
C1515 C1514 1.370 . S
C1515 C1516 1.403 . S
C1516 C1515 1.403 . S
C1516 C1517 1.404 . S
C1516 C1519 1.539 1_565 S
C1517 C1513 1.408 . S
C1517 C1516 1.404 . S
C1517 H1529 0.930 . S
C1518 C1514 1.524 . S
C1518 H1530 0.983 . S
C1518 H1531 0.918 1_655 S
C1518 H1532 0.961 . S
C1519 C1516 1.539 1_545 S
C1519 H1533 0.958 . S
C1519 H1534 0.961 . S
C1519 H1535 0.968 . S
H1520 C1504 0.931 . S
H1521 C1509 0.929 . S
H1522 C1510 0.960 1_655 S
H1523 C1510 0.962 . S
H1524 C1510 0.960 . S
H1525 C1511 0.961 . S
H1526 C1511 0.961 1_655 S
H1527 C1511 0.961 1_545 S
H1528 C1512 0.931 . S
H1529 C1517 0.930 . S
H1530 C1518 0.983 . S
H1531 C1518 0.918 1_455 S
H1532 C1518 0.961 . S
H1533 C1519 0.958 . S
H1534 C1519 0.961 . S
H1535 C1519 0.968 . S
C1536 C1537 1.391 . S
C1536 C1538 1.394 . S
C1536 H1552 0.931 . S
C1537 C1536 1.391 . S
C1537 C1541 1.376 . S
C1538 C1536 1.394 . S
C1538 C1539 1.369 . S
C1538 C1542 1.531 . S
C1539 C1538 1.369 . S
C1539 C1540 1.410 . S
C1539 C1547 1.503 . S
C1540 C1539 1.410 . S
C1540 C1541 1.392 . S
C1540 C1543 1.511 . S
C1541 C1537 1.376 . S
C1541 C1540 1.392 . S
C1541 H1553 0.929 . S
C1542 C1538 1.531 . S
C1542 H1554 0.960 . S
C1542 H1555 0.962 . S
C1542 H1556 0.960 . S
C1543 C1540 1.511 . S
C1543 H1557 0.961 . S
C1543 H1558 0.961 . S
C1543 H1559 0.961 . S
C1544 C1545 1.370 . S
C1544 C1546 1.363 . S
C1544 H1560 0.931 . S
C1545 C1544 1.370 . S
C1545 C1549 1.408 . S
C1546 C1544 1.363 . S
C1546 C1547 1.370 . S
C1546 C1550 1.524 . S
C1547 C1539 1.503 . S
C1547 C1546 1.370 . S
C1547 C1548 1.403 . S
C1548 C1547 1.403 . S
C1548 C1549 1.404 . S
C1548 C1551 1.539 . S
C1549 C1545 1.408 . S
C1549 C1548 1.404 . S
C1549 H1561 0.930 . S
C1550 C1546 1.524 . S
C1550 H1562 0.956 . S
C1550 H1563 0.961 . S
C1550 H1564 0.961 . S
C1551 C1548 1.539 . S
C1551 H1565 0.958 . S
C1551 H1566 0.961 . S
C1551 H1567 0.960 . S
H1552 C1536 0.931 . S
H1553 C1541 0.929 . S
H1554 C1542 0.960 . S
H1555 C1542 0.962 . S
H1556 C1542 0.960 . S
H1557 C1543 0.961 . S
H1558 C1543 0.961 . S
H1559 C1543 0.961 . S
H1560 C1544 0.931 . S
H1561 C1549 0.930 . S
H1562 C1550 0.956 . S
H1563 C1550 0.961 . S
H1564 C1550 0.961 . S
H1565 C1551 0.958 . S
H1566 C1551 0.961 . S
H1567 C1551 0.960 . S
C1568 C1569 1.391 . S
C1568 C1570 1.394 . S
C1568 H1584 0.931 . S
C1569 C1568 1.391 . S
C1569 C1573 1.376 . S
C1570 C1568 1.394 . S
C1570 C1571 1.369 . S
C1570 C1574 1.531 . S
C1571 C1570 1.369 . S
C1571 C1572 1.410 . S
C1571 C1579 1.503 . S
C1572 C1571 1.410 . S
C1572 C1573 1.392 . S
C1572 C1575 1.511 . S
C1573 C1569 1.376 . S
C1573 C1572 1.392 . S
C1573 H1585 0.929 . S
C1574 C1570 1.531 . S
C1574 H1586 0.960 . S
C1574 H1587 0.962 . S
C1574 H1588 0.960 . S
C1575 C1572 1.511 . S
C1575 H1589 0.961 . S
C1575 H1590 0.961 . S
C1575 H1591 0.933 1_545 S
C1576 C1577 1.370 . S
C1576 C1578 1.363 . S
C1576 H1592 0.931 . S
C1577 C1576 1.370 . S
C1577 C1581 1.408 . S
C1578 C1576 1.363 . S
C1578 C1579 1.370 . S
C1578 C1582 1.524 . S
C1579 C1571 1.503 . S
C1579 C1578 1.370 . S
C1579 C1580 1.403 . S
C1580 C1579 1.403 . S
C1580 C1581 1.404 . S
C1580 C1583 1.539 . S
C1581 C1577 1.408 . S
C1581 C1580 1.404 . S
C1581 H1593 0.930 . S
C1582 C1578 1.524 . S
C1582 H1594 0.956 . S
C1582 H1595 0.961 . S
C1582 H1596 0.961 . S
C1583 C1580 1.539 . S
C1583 H1597 0.958 . S
C1583 H1598 0.961 . S
C1583 H1599 0.960 . S
H1584 C1568 0.931 . S
H1585 C1573 0.929 . S
H1586 C1574 0.960 . S
H1587 C1574 0.962 . S
H1588 C1574 0.960 . S
H1589 C1575 0.961 . S
H1590 C1575 0.961 . S
H1591 C1575 0.933 1_565 S
H1592 C1576 0.931 . S
H1593 C1581 0.930 . S
H1594 C1582 0.956 . S
H1595 C1582 0.961 . S
H1596 C1582 0.961 . S
H1597 C1583 0.958 . S
H1598 C1583 0.961 . S
H1599 C1583 0.960 . S
C1600 C1601 1.391 . S
C1600 C1602 1.394 . S
C1600 H1616 0.931 . S
C1601 C1600 1.391 . S
C1601 C1605 1.376 . S
C1602 C1600 1.394 . S
C1602 C1603 1.369 . S
C1602 C1606 1.531 . S
C1603 C1602 1.369 . S
C1603 C1604 1.410 . S
C1603 C1611 1.503 . S
C1604 C1603 1.410 . S
C1604 C1605 1.392 . S
C1604 C1607 1.511 . S
C1605 C1601 1.376 . S
C1605 C1604 1.392 . S
C1605 H1617 0.929 . S
C1606 C1602 1.531 . S
C1606 H1618 0.960 . S
C1606 H1619 0.962 . S
C1606 H1620 0.960 . S
C1607 C1604 1.511 . S
C1607 H1621 0.961 . S
C1607 H1622 0.961 . S
C1607 H1623 0.961 . S
C1608 C1609 1.370 . S
C1608 C1610 1.363 . S
C1608 H1624 0.931 . S
C1609 C1608 1.370 . S
C1609 C1613 1.408 . S
C1610 C1608 1.363 . S
C1610 C1611 1.370 . S
C1610 C1614 1.524 . S
C1611 C1603 1.503 . S
C1611 C1610 1.370 . S
C1611 C1612 1.403 . S
C1612 C1611 1.403 . S
C1612 C1613 1.404 . S
C1612 C1615 1.539 . S
C1613 C1609 1.408 . S
C1613 C1612 1.404 . S
C1613 H1625 0.930 . S
C1614 C1610 1.524 . S
C1614 H1626 0.956 . S
C1614 H1627 0.961 . S
C1614 H1628 0.961 . S
C1615 C1612 1.539 . S
C1615 H1629 0.958 . S
C1615 H1630 0.961 . S
C1615 H1631 0.960 . S
H1616 C1600 0.931 . S
H1617 C1605 0.929 . S
H1618 C1606 0.960 . S
H1619 C1606 0.962 . S
H1620 C1606 0.960 . S
H1621 C1607 0.961 . S
H1622 C1607 0.961 . S
H1623 C1607 0.961 . S
H1624 C1608 0.931 . S
H1625 C1613 0.930 . S
H1626 C1614 0.956 . S
H1627 C1614 0.961 . S
H1628 C1614 0.961 . S
H1629 C1615 0.958 . S
H1630 C1615 0.961 . S
H1631 C1615 0.960 . S
C1632 C1633 1.391 . S
C1632 C1634 1.394 . S
C1632 H1648 0.931 . S
C1633 C1632 1.391 . S
C1633 C1637 1.376 . S
C1634 C1632 1.394 . S
C1634 C1635 1.369 . S
C1634 C1638 1.531 . S
C1635 C1634 1.369 . S
C1635 C1636 1.410 . S
C1635 C1643 1.503 . S
C1636 C1635 1.410 . S
C1636 C1637 1.392 . S
C1636 C1639 1.511 . S
C1637 C1633 1.376 . S
C1637 C1636 1.392 . S
C1637 H1649 0.929 . S
C1638 C1634 1.531 . S
C1638 H1650 0.960 . S
C1638 H1651 0.962 . S
C1638 H1652 0.960 . S
C1639 C1636 1.511 . S
C1639 H1653 0.961 . S
C1639 H1654 0.961 . S
C1639 H1655 0.961 . S
C1640 C1641 1.370 . S
C1640 C1642 1.363 . S
C1640 H1656 0.931 . S
C1641 C1640 1.370 . S
C1641 C1645 1.408 . S
C1642 C1640 1.363 . S
C1642 C1643 1.370 . S
C1642 C1646 1.524 . S
C1643 C1635 1.503 . S
C1643 C1642 1.370 . S
C1643 C1644 1.403 . S
C1644 C1643 1.403 . S
C1644 C1645 1.404 . S
C1644 C1647 1.539 1_565 S
C1645 C1641 1.408 . S
C1645 C1644 1.404 . S
C1645 H1657 0.930 . S
C1646 C1642 1.524 . S
C1646 H1658 0.956 . S
C1646 H1659 0.961 . S
C1646 H1660 0.961 . S
C1647 C1644 1.539 1_545 S
C1647 H1661 0.958 . S
C1647 H1662 0.961 . S
C1647 H1663 0.960 . S
H1648 C1632 0.931 . S
H1649 C1637 0.929 . S
H1650 C1638 0.960 . S
H1651 C1638 0.962 . S
H1652 C1638 0.960 . S
H1653 C1639 0.961 . S
H1654 C1639 0.961 . S
H1655 C1639 0.961 . S
H1656 C1640 0.931 . S
H1657 C1645 0.930 . S
H1658 C1646 0.956 . S
H1659 C1646 0.961 . S
H1660 C1646 0.961 . S
H1661 C1647 0.958 . S
H1662 C1647 0.961 . S
H1663 C1647 0.960 . S
C1664 C1665 1.391 . S
C1664 C1666 1.394 . S
C1664 H1680 0.931 . S
C1665 C1664 1.391 . S
C1665 C1669 1.376 . S
C1666 C1664 1.394 . S
C1666 C1667 1.369 . S
C1666 C1670 1.531 . S
C1667 C1666 1.369 . S
C1667 C1668 1.410 . S
C1667 C1675 1.503 . S
C1668 C1667 1.410 . S
C1668 C1669 1.392 . S
C1668 C1671 1.511 . S
C1669 C1665 1.376 . S
C1669 C1668 1.392 . S
C1669 H1681 0.929 . S
C1670 C1666 1.531 . S
C1670 H1682 0.960 . S
C1670 H1683 0.962 . S
C1670 H1684 0.960 . S
C1671 C1668 1.511 . S
C1671 H1685 0.961 . S
C1671 H1686 0.961 . S
C1671 H1687 0.961 . S
C1672 C1673 1.370 . S
C1672 C1674 1.363 . S
C1672 H1688 0.931 . S
C1673 C1672 1.370 . S
C1673 C1677 1.408 . S
C1674 C1672 1.363 . S
C1674 C1675 1.370 . S
C1674 C1678 1.524 . S
C1675 C1667 1.503 . S
C1675 C1674 1.370 . S
C1675 C1676 1.403 . S
C1676 C1675 1.403 . S
C1676 C1677 1.404 . S
C1676 C1679 1.539 . S
C1677 C1673 1.408 . S
C1677 C1676 1.404 . S
C1677 H1689 0.930 . S
C1678 C1674 1.524 . S
C1678 H1690 0.956 . S
C1678 H1691 0.961 . S
C1678 H1692 0.961 . S
C1679 C1676 1.539 . S
C1679 H1693 0.958 . S
C1679 H1694 0.961 . S
C1679 H1695 0.960 . S
H1680 C1664 0.931 . S
H1681 C1669 0.929 . S
H1682 C1670 0.960 . S
H1683 C1670 0.962 . S
H1684 C1670 0.960 . S
H1685 C1671 0.961 . S
H1686 C1671 0.961 . S
H1687 C1671 0.961 . S
H1688 C1672 0.931 . S
H1689 C1677 0.930 . S
H1690 C1678 0.956 . S
H1691 C1678 0.961 . S
H1692 C1678 0.961 . S
H1693 C1679 0.958 . S
H1694 C1679 0.961 . S
H1695 C1679 0.960 . S
C1696 C1697 1.391 . S
C1696 C1698 1.394 . S
C1696 H1712 0.931 . S
C1697 C1696 1.391 . S
C1697 C1701 1.376 . S
C1698 C1696 1.394 . S
C1698 C1699 1.369 . S
C1698 C1702 1.531 . S
C1699 C1698 1.369 . S
C1699 C1700 1.410 . S
C1699 C1707 1.503 1_655 S
C1700 C1699 1.410 . S
C1700 C1701 1.392 . S
C1700 C1703 1.511 . S
C1701 C1697 1.376 . S
C1701 C1700 1.392 . S
C1701 H1713 0.929 . S
C1702 C1698 1.531 . S
C1702 H1714 0.960 1_655 S
C1702 H1715 0.962 . S
C1702 H1716 0.960 . S
C1703 C1700 1.511 . S
C1703 H1717 0.961 1_545 S
C1703 H1718 0.961 1_655 S
C1703 H1719 0.961 . S
C1704 C1705 1.370 . S
C1704 C1706 1.363 . S
C1704 H1720 0.931 . S
C1705 C1704 1.370 . S
C1705 C1709 1.408 . S
C1706 C1704 1.363 . S
C1706 C1707 1.370 . S
C1706 C1710 1.524 . S
C1707 C1699 1.503 1_455 S
C1707 C1706 1.370 . S
C1707 C1708 1.403 . S
C1708 C1707 1.403 . S
C1708 C1709 1.404 . S
C1708 C1711 1.539 . S
C1709 C1705 1.408 . S
C1709 C1708 1.404 . S
C1709 H1721 0.930 . S
C1710 C1706 1.524 . S
C1710 H1722 0.983 . S
C1710 H1723 0.918 1_455 S
C1710 H1724 0.961 . S
C1711 C1708 1.539 . S
C1711 H1725 0.958 . S
C1711 H1726 0.961 . S
C1711 H1727 0.968 . S
H1712 C1696 0.931 . S
H1713 C1701 0.929 . S
H1714 C1702 0.960 1_455 S
H1715 C1702 0.962 . S
H1716 C1702 0.960 . S
H1717 C1703 0.961 1_565 S
H1718 C1703 0.961 1_455 S
H1719 C1703 0.961 . S
H1720 C1704 0.931 . S
H1721 C1709 0.930 . S
H1722 C1710 0.983 . S
H1723 C1710 0.918 1_655 S
H1724 C1710 0.961 . S
H1725 C1711 0.958 . S
H1726 C1711 0.961 . S
H1727 C1711 0.968 . S
C1728 C1729 1.391 . S
C1728 C1730 1.394 . S
C1728 H1744 0.931 . S
C1729 C1728 1.391 . S
C1729 C1733 1.376 . S
C1730 C1728 1.394 . S
C1730 C1731 1.369 . S
C1730 C1734 1.531 . S
C1731 C1730 1.369 . S
C1731 C1732 1.410 . S
C1731 C1739 1.503 . S
C1732 C1731 1.410 . S
C1732 C1733 1.392 . S
C1732 C1735 1.511 . S
C1733 C1729 1.376 . S
C1733 C1732 1.392 . S
C1733 H1745 0.929 . S
C1734 C1730 1.531 . S
C1734 H1746 0.960 . S
C1734 H1747 0.962 . S
C1734 H1748 0.960 . S
C1735 C1732 1.511 . S
C1735 H1749 0.961 . S
C1735 H1750 0.961 . S
C1735 H1751 0.961 . S
C1736 C1737 1.370 . S
C1736 C1738 1.363 . S
C1736 H1752 0.931 . S
C1737 C1736 1.370 . S
C1737 C1741 1.408 . S
C1738 C1736 1.363 . S
C1738 C1739 1.370 . S
C1738 C1742 1.524 . S
C1739 C1731 1.503 . S
C1739 C1738 1.370 . S
C1739 C1740 1.403 . S
C1740 C1739 1.403 . S
C1740 C1741 1.404 . S
C1740 C1743 1.539 . S
C1741 C1737 1.408 . S
C1741 C1740 1.404 . S
C1741 H1753 0.930 . S
C1742 C1738 1.524 . S
C1742 H1754 0.956 . S
C1742 H1755 0.961 . S
C1742 H1756 0.961 . S
C1743 C1740 1.539 . S
C1743 H1757 0.958 . S
C1743 H1758 0.961 . S
C1743 H1759 0.960 . S
H1744 C1728 0.931 . S
H1745 C1733 0.929 . S
H1746 C1734 0.960 . S
H1747 C1734 0.962 . S
H1748 C1734 0.960 . S
H1749 C1735 0.961 . S
H1750 C1735 0.961 . S
H1751 C1735 0.961 . S
H1752 C1736 0.931 . S
H1753 C1741 0.930 . S
H1754 C1742 0.956 . S
H1755 C1742 0.961 . S
H1756 C1742 0.961 . S
H1757 C1743 0.958 . S
H1758 C1743 0.961 . S
H1759 C1743 0.960 . S
C1760 C1761 1.391 . S
C1760 C1762 1.394 . S
C1760 H1776 0.931 . S
C1761 C1760 1.391 . S
C1761 C1765 1.376 . S
C1762 C1760 1.394 . S
C1762 C1763 1.369 . S
C1762 C1766 1.531 . S
C1763 C1762 1.369 . S
C1763 C1764 1.410 . S
C1763 C1771 1.503 . S
C1764 C1763 1.410 . S
C1764 C1765 1.392 . S
C1764 C1767 1.511 . S
C1765 C1761 1.376 . S
C1765 C1764 1.392 . S
C1765 H1777 0.929 . S
C1766 C1762 1.531 . S
C1766 H1778 0.960 . S
C1766 H1779 0.962 . S
C1766 H1780 0.960 . S
C1767 C1764 1.511 . S
C1767 H1781 0.961 . S
C1767 H1782 0.961 . S
C1767 H1783 0.961 . S
C1768 C1769 1.370 . S
C1768 C1770 1.363 . S
C1768 H1784 0.931 . S
C1769 C1768 1.370 . S
C1769 C1773 1.408 . S
C1770 C1768 1.363 . S
C1770 C1771 1.370 . S
C1770 C1774 1.524 . S
C1771 C1763 1.503 . S
C1771 C1770 1.370 . S
C1771 C1772 1.403 . S
C1772 C1771 1.403 . S
C1772 C1773 1.404 . S
C1772 C1775 1.539 . S
C1773 C1769 1.408 . S
C1773 C1772 1.404 . S
C1773 H1785 0.930 . S
C1774 C1770 1.524 . S
C1774 H1786 0.956 . S
C1774 H1787 0.961 . S
C1774 H1788 0.961 . S
C1775 C1772 1.539 . S
C1775 H1789 0.958 . S
C1775 H1790 0.961 . S
C1775 H1791 0.960 . S
H1776 C1760 0.931 . S
H1777 C1765 0.929 . S
H1778 C1766 0.960 . S
H1779 C1766 0.962 . S
H1780 C1766 0.960 . S
H1781 C1767 0.961 . S
H1782 C1767 0.961 . S
H1783 C1767 0.961 . S
H1784 C1768 0.931 . S
H1785 C1773 0.930 . S
H1786 C1774 0.956 . S
H1787 C1774 0.961 . S
H1788 C1774 0.961 . S
H1789 C1775 0.958 . S
H1790 C1775 0.961 . S
H1791 C1775 0.960 . S
C1792 C1793 1.391 . S
C1792 C1794 1.394 . S
C1792 H1808 0.931 . S
C1793 C1792 1.391 . S
C1793 C1797 1.376 . S
C1794 C1792 1.394 . S
C1794 C1795 1.369 . S
C1794 C1798 1.531 . S
C1795 C1794 1.369 . S
C1795 C1796 1.410 . S
C1795 C1803 1.503 . S
C1796 C1795 1.410 . S
C1796 C1797 1.392 . S
C1796 C1799 1.511 . S
C1797 C1793 1.376 . S
C1797 C1796 1.392 . S
C1797 H1809 0.929 . S
C1798 C1794 1.531 . S
C1798 H1810 0.960 . S
C1798 H1811 0.962 . S
C1798 H1812 0.960 . S
C1799 C1796 1.511 . S
C1799 H1813 0.961 . S
C1799 H1814 0.961 . S
C1799 H1815 0.961 . S
C1800 C1801 1.370 . S
C1800 C1802 1.363 . S
C1800 H1816 0.931 . S
C1801 C1800 1.370 . S
C1801 C1805 1.408 . S
C1802 C1800 1.363 . S
C1802 C1803 1.370 . S
C1802 C1806 1.524 1_554 S
C1803 C1795 1.503 . S
C1803 C1802 1.370 . S
C1803 C1804 1.403 . S
C1804 C1803 1.403 . S
C1804 C1805 1.404 . S
C1804 C1807 1.539 . S
C1805 C1801 1.408 . S
C1805 C1804 1.404 . S
C1805 H1817 0.930 . S
C1806 C1802 1.524 1_556 S
C1806 H1818 0.960 . S
C1806 H1819 0.961 . S
C1806 H1820 0.961 . S
C1807 C1804 1.539 . S
C1807 H1821 0.958 . S
C1807 H1822 0.961 . S
C1807 H1823 0.960 . S
H1808 C1792 0.931 . S
H1809 C1797 0.929 . S
H1810 C1798 0.960 . S
H1811 C1798 0.962 . S
H1812 C1798 0.960 . S
H1813 C1799 0.961 . S
H1814 C1799 0.961 . S
H1815 C1799 0.961 . S
H1816 C1800 0.931 . S
H1817 C1805 0.930 . S
H1818 C1806 0.960 . S
H1819 C1806 0.961 . S
H1820 C1806 0.961 . S
H1821 C1807 0.958 . S
H1822 C1807 0.961 . S
H1823 C1807 0.960 . S
C1824 C1825 1.391 . S
C1824 C1826 1.394 . S
C1824 H1840 0.931 . S
C1825 C1824 1.391 . S
C1825 C1829 1.376 . S
C1826 C1824 1.394 . S
C1826 C1827 1.369 . S
C1826 C1830 1.531 . S
C1827 C1826 1.369 . S
C1827 C1828 1.410 . S
C1827 C1835 1.503 . S
C1828 C1827 1.410 . S
C1828 C1829 1.392 . S
C1828 C1831 1.511 . S
C1829 C1825 1.376 . S
C1829 C1828 1.392 . S
C1829 H1841 0.929 . S
C1830 C1826 1.531 . S
C1830 H1842 0.960 . S
C1830 H1843 0.962 . S
C1830 H1844 0.960 . S
C1831 C1828 1.511 . S
C1831 H1845 0.961 . S
C1831 H1846 0.961 . S
C1831 H1847 0.961 . S
C1832 C1833 1.370 . S
C1832 C1834 1.363 . S
C1832 H1848 0.931 . S
C1833 C1832 1.370 . S
C1833 C1837 1.408 . S
C1834 C1832 1.363 . S
C1834 C1835 1.370 . S
C1834 C1838 1.524 . S
C1835 C1827 1.503 . S
C1835 C1834 1.370 . S
C1835 C1836 1.403 . S
C1836 C1835 1.403 . S
C1836 C1837 1.404 . S
C1836 C1839 1.539 . S
C1837 C1833 1.408 . S
C1837 C1836 1.404 . S
C1837 H1849 0.930 . S
C1838 C1834 1.524 . S
C1838 H1850 0.956 . S
C1838 H1851 0.961 . S
C1838 H1852 0.961 . S
C1839 C1836 1.539 . S
C1839 H1853 0.958 . S
C1839 H1854 0.961 . S
C1839 H1855 0.960 . S
H1840 C1824 0.931 . S
H1841 C1829 0.929 . S
H1842 C1830 0.960 . S
H1843 C1830 0.962 . S
H1844 C1830 0.960 . S
H1845 C1831 0.961 . S
H1846 C1831 0.961 . S
H1847 C1831 0.961 . S
H1848 C1832 0.931 . S
H1849 C1837 0.930 . S
H1850 C1838 0.956 . S
H1851 C1838 0.961 . S
H1852 C1838 0.961 . S
H1853 C1839 0.958 . S
H1854 C1839 0.961 . S
H1855 C1839 0.960 . S
C1856 C1857 1.391 . S
C1856 C1858 1.394 . S
C1856 H1872 0.931 . S
C1857 C1856 1.391 . S
C1857 C1861 1.376 . S
C1858 C1856 1.394 . S
C1858 C1859 1.369 . S
C1858 C1862 1.531 . S
C1859 C1858 1.369 . S
C1859 C1860 1.410 . S
C1859 C1867 1.503 . S
C1860 C1859 1.410 . S
C1860 C1861 1.392 . S
C1860 C1863 1.511 . S
C1861 C1857 1.376 . S
C1861 C1860 1.392 . S
C1861 H1873 0.929 . S
C1862 C1858 1.531 . S
C1862 H1874 0.960 . S
C1862 H1875 0.962 . S
C1862 H1876 0.960 . S
C1863 C1860 1.511 . S
C1863 H1877 0.961 . S
C1863 H1878 0.961 . S
C1863 H1879 0.961 . S
C1864 C1865 1.370 . S
C1864 C1866 1.363 . S
C1864 H1880 0.931 . S
C1865 C1864 1.370 . S
C1865 C1869 1.408 . S
C1866 C1864 1.363 . S
C1866 C1867 1.370 . S
C1866 C1870 1.524 . S
C1867 C1859 1.503 . S
C1867 C1866 1.370 . S
C1867 C1868 1.403 . S
C1868 C1867 1.403 . S
C1868 C1869 1.404 . S
C1868 C1871 1.539 . S
C1869 C1865 1.408 . S
C1869 C1868 1.404 . S
C1869 H1881 0.930 . S
C1870 C1866 1.524 . S
C1870 H1882 0.956 . S
C1870 H1883 0.961 . S
C1870 H1884 0.961 . S
C1871 C1868 1.539 . S
C1871 H1885 0.958 . S
C1871 H1886 0.961 . S
C1871 H1887 0.960 . S
H1872 C1856 0.931 . S
H1873 C1861 0.929 . S
H1874 C1862 0.960 . S
H1875 C1862 0.962 . S
H1876 C1862 0.960 . S
H1877 C1863 0.961 . S
H1878 C1863 0.961 . S
H1879 C1863 0.961 . S
H1880 C1864 0.931 . S
H1881 C1869 0.930 . S
H1882 C1870 0.956 . S
H1883 C1870 0.961 . S
H1884 C1870 0.961 . S
H1885 C1871 0.958 . S
H1886 C1871 0.961 . S
H1887 C1871 0.960 . S
C1888 C1889 1.391 . S
C1888 C1890 1.394 . S
C1888 H1904 0.931 . S
C1889 C1888 1.391 . S
C1889 C1893 1.376 . S
C1890 C1888 1.394 . S
C1890 C1891 1.369 . S
C1890 C1894 1.531 . S
C1891 C1890 1.369 . S
C1891 C1892 1.410 . S
C1891 C1899 1.503 1_655 S
C1892 C1891 1.410 . S
C1892 C1893 1.392 . S
C1892 C1895 1.511 . S
C1893 C1889 1.376 . S
C1893 C1892 1.392 . S
C1893 H1905 0.929 . S
C1894 C1890 1.531 . S
C1894 H1906 0.960 1_655 S
C1894 H1907 0.962 . S
C1894 H1908 0.960 . S
C1895 C1892 1.511 . S
C1895 H1909 0.961 . S
C1895 H1910 0.961 1_655 S
C1895 H1911 0.961 . S
C1896 C1897 1.370 . S
C1896 C1898 1.363 . S
C1896 H1912 0.931 . S
C1897 C1896 1.370 . S
C1897 C1901 1.408 . S
C1898 C1896 1.363 . S
C1898 C1899 1.370 . S
C1898 C1902 1.524 . S
C1899 C1891 1.503 1_455 S
C1899 C1898 1.370 . S
C1899 C1900 1.403 . S
C1900 C1899 1.403 . S
C1900 C1901 1.404 . S
C1900 C1903 1.539 . S
C1901 C1897 1.408 . S
C1901 C1900 1.404 . S
C1901 H1913 0.930 . S
C1902 C1898 1.524 . S
C1902 H1914 0.983 . S
C1902 H1915 0.918 1_455 S
C1902 H1916 0.961 . S
C1903 C1900 1.539 . S
C1903 H1917 0.958 . S
C1903 H1918 0.961 . S
C1903 H1919 0.968 . S
H1904 C1888 0.931 . S
H1905 C1893 0.929 . S
H1906 C1894 0.960 1_455 S
H1907 C1894 0.962 . S
H1908 C1894 0.960 . S
H1909 C1895 0.961 . S
H1910 C1895 0.961 1_455 S
H1911 C1895 0.961 . S
H1912 C1896 0.931 . S
H1913 C1901 0.930 . S
H1914 C1902 0.983 . S
H1915 C1902 0.918 1_655 S
H1916 C1902 0.961 . S
H1917 C1903 0.958 . S
H1918 C1903 0.961 . S
H1919 C1903 0.968 . S
C1920 C1921 1.391 . S
C1920 C1922 1.394 . S
C1920 H1936 0.931 . S
C1921 C1920 1.391 . S
C1921 C1925 1.376 . S
C1922 C1920 1.394 . S
C1922 C1923 1.369 . S
C1922 C1926 1.531 . S
C1923 C1922 1.369 . S
C1923 C1924 1.410 . S
C1923 C1931 1.503 1_655 S
C1924 C1923 1.410 . S
C1924 C1925 1.392 . S
C1924 C1927 1.511 . S
C1925 C1921 1.376 . S
C1925 C1924 1.392 . S
C1925 H1937 0.929 . S
C1926 C1922 1.531 . S
C1926 H1938 0.960 1_655 S
C1926 H1939 0.962 . S
C1926 H1940 0.960 . S
C1927 C1924 1.511 . S
C1927 H1941 0.961 . S
C1927 H1942 0.961 1_655 S
C1927 H1943 0.961 . S
C1928 C1929 1.370 . S
C1928 C1930 1.363 . S
C1928 H1944 0.931 . S
C1929 C1928 1.370 . S
C1929 C1933 1.408 . S
C1930 C1928 1.363 . S
C1930 C1931 1.370 . S
C1930 C1934 1.524 . S
C1931 C1923 1.503 1_455 S
C1931 C1930 1.370 . S
C1931 C1932 1.403 . S
C1932 C1931 1.403 . S
C1932 C1933 1.404 . S
C1932 C1935 1.539 . S
C1933 C1929 1.408 . S
C1933 C1932 1.404 . S
C1933 H1945 0.930 . S
C1934 C1930 1.524 . S
C1934 H1946 0.983 . S
C1934 H1947 0.918 1_455 S
C1934 H1948 0.961 . S
C1935 C1932 1.539 . S
C1935 H1949 0.958 . S
C1935 H1950 0.961 . S
C1935 H1951 0.968 . S
H1936 C1920 0.931 . S
H1937 C1925 0.929 . S
H1938 C1926 0.960 1_455 S
H1939 C1926 0.962 . S
H1940 C1926 0.960 . S
H1941 C1927 0.961 . S
H1942 C1927 0.961 1_455 S
H1943 C1927 0.961 . S
H1944 C1928 0.931 . S
H1945 C1933 0.930 . S
H1946 C1934 0.983 . S
H1947 C1934 0.918 1_655 S
H1948 C1934 0.961 . S
H1949 C1935 0.958 . S
H1950 C1935 0.961 . S
H1951 C1935 0.968 . S
C1952 C1953 1.391 . S
C1952 C1954 1.394 . S
C1952 H1968 0.931 . S
C1953 C1952 1.391 . S
C1953 C1957 1.376 . S
C1954 C1952 1.394 . S
C1954 C1955 1.369 . S
C1954 C1958 1.531 . S
C1955 C1954 1.369 . S
C1955 C1956 1.410 . S
C1955 C1963 1.503 . S
C1956 C1955 1.410 . S
C1956 C1957 1.392 . S
C1956 C1959 1.511 . S
C1957 C1953 1.376 . S
C1957 C1956 1.392 . S
C1957 H1969 0.929 . S
C1958 C1954 1.531 . S
C1958 H1970 0.960 . S
C1958 H1971 0.962 . S
C1958 H1972 0.960 . S
C1959 C1956 1.511 . S
C1959 H1973 0.961 . S
C1959 H1974 0.961 . S
C1959 H1975 0.961 . S
C1960 C1961 1.370 . S
C1960 C1962 1.363 . S
C1960 H1976 0.931 . S
C1961 C1960 1.370 . S
C1961 C1965 1.408 . S
C1962 C1960 1.363 . S
C1962 C1963 1.370 . S
C1962 C1966 1.524 . S
C1963 C1955 1.503 . S
C1963 C1962 1.370 . S
C1963 C1964 1.403 . S
C1964 C1963 1.403 . S
C1964 C1965 1.404 . S
C1964 C1967 1.539 . S
C1965 C1961 1.408 . S
C1965 C1964 1.404 . S
C1965 H1977 0.930 . S
C1966 C1962 1.524 . S
C1966 H1978 0.956 . S
C1966 H1979 0.961 . S
C1966 H1980 0.961 . S
C1967 C1964 1.539 . S
C1967 H1981 0.958 . S
C1967 H1982 0.961 . S
C1967 H1983 0.960 . S
H1968 C1952 0.931 . S
H1969 C1957 0.929 . S
H1970 C1958 0.960 . S
H1971 C1958 0.962 . S
H1972 C1958 0.960 . S
H1973 C1959 0.961 . S
H1974 C1959 0.961 . S
H1975 C1959 0.961 . S
H1976 C1960 0.931 . S
H1977 C1965 0.930 . S
H1978 C1966 0.956 . S
H1979 C1966 0.961 . S
H1980 C1966 0.961 . S
H1981 C1967 0.958 . S
H1982 C1967 0.961 . S
H1983 C1967 0.960 . S
C1984 C1985 1.391 . S
C1984 C1986 1.394 . S
C1984 H2000 0.931 . S
C1985 C1984 1.391 . S
C1985 C1989 1.376 . S
C1986 C1984 1.394 . S
C1986 C1987 1.369 . S
C1986 C1990 1.531 . S
C1987 C1986 1.369 . S
C1987 C1988 1.410 . S
C1987 C1995 1.503 . S
C1988 C1987 1.410 . S
C1988 C1989 1.392 . S
C1988 C1991 1.511 . S
C1989 C1985 1.376 . S
C1989 C1988 1.392 . S
C1989 H2001 0.929 . S
C1990 C1986 1.531 . S
C1990 H2002 0.960 . S
C1990 H2003 0.962 . S
C1990 H2004 0.960 . S
C1991 C1988 1.511 . S
C1991 H2005 0.961 . S
C1991 H2006 0.961 . S
C1991 H2007 0.961 . S
C1992 C1993 1.370 . S
C1992 C1994 1.363 . S
C1992 H2008 0.931 . S
C1993 C1992 1.370 . S
C1993 C1997 1.408 . S
C1994 C1992 1.363 . S
C1994 C1995 1.370 . S
C1994 C1998 1.524 . S
C1995 C1987 1.503 . S
C1995 C1994 1.370 . S
C1995 C1996 1.403 . S
C1996 C1995 1.403 . S
C1996 C1997 1.404 . S
C1996 C1999 1.539 . S
C1997 C1993 1.408 . S
C1997 C1996 1.404 . S
C1997 H2009 0.930 . S
C1998 C1994 1.524 . S
C1998 H2010 0.956 . S
C1998 H2011 0.961 . S
C1998 H2012 0.961 . S
C1999 C1996 1.539 . S
C1999 H2013 0.958 . S
C1999 H2014 0.961 . S
C1999 H2015 0.960 . S
H2000 C1984 0.931 . S
H2001 C1989 0.929 . S
H2002 C1990 0.960 . S
H2003 C1990 0.962 . S
H2004 C1990 0.960 . S
H2005 C1991 0.961 . S
H2006 C1991 0.961 . S
H2007 C1991 0.961 . S
H2008 C1992 0.931 . S
H2009 C1997 0.930 . S
H2010 C1998 0.956 . S
H2011 C1998 0.961 . S
H2012 C1998 0.961 . S
H2013 C1999 0.958 . S
H2014 C1999 0.961 . S
H2015 C1999 0.960 . S
C2016 C2017 1.391 . S
C2016 C2018 1.394 . S
C2016 H2032 0.931 . S
C2017 C2016 1.391 . S
C2017 C2021 1.381 . S
C2018 C2016 1.394 . S
C2018 C2019 1.369 1_565 S
C2018 C2022 1.531 . S
C2019 C2018 1.369 1_545 S
C2019 C2020 1.410 . S
C2019 C2027 1.503 . S
C2020 C2019 1.410 . S
C2020 C2021 1.388 1_545 S
C2020 C2023 1.511 . S
C2021 C2017 1.381 . S
C2021 C2020 1.388 1_565 S
C2021 H2033 0.924 1_565 S
C2022 C2018 1.531 . S
C2022 H2034 0.960 1_565 S
C2022 H2035 0.962 . S
C2022 H2036 0.960 . S
C2023 C2020 1.511 . S
C2023 H2037 0.961 . S
C2023 H2038 0.961 . S
C2023 H2039 0.961 . S
C2024 C2025 1.370 . S
C2024 C2026 1.359 1_545 S
C2024 H2040 0.931 1_545 S
C2025 C2024 1.370 . S
C2025 C2029 1.408 . S
C2026 C2024 1.359 1_565 S
C2026 C2027 1.361 1_565 S
C2026 C2030 1.538 . S
C2027 C2019 1.503 . S
C2027 C2026 1.361 1_545 S
C2027 C2028 1.403 . S
C2028 C2027 1.403 . S
C2028 C2029 1.404 . S
C2028 C2031 1.539 . S
C2029 C2025 1.408 . S
C2029 C2028 1.404 . S
C2029 H2041 0.930 . S
C2030 C2026 1.538 . S
C2030 H2042 0.956 . S
C2030 H2043 0.961 . S
C2030 H2044 0.961 . S
C2031 C2028 1.539 . S
C2031 H2045 0.958 . S
C2031 H2046 0.961 . S
C2031 H2047 0.960 . S
H2032 C2016 0.931 . S
H2033 C2021 0.924 1_545 S
H2034 C2022 0.960 1_545 S
H2035 C2022 0.962 . S
H2036 C2022 0.960 . S
H2037 C2023 0.961 . S
H2038 C2023 0.961 . S
H2039 C2023 0.961 . S
H2040 C2024 0.931 1_565 S
H2041 C2029 0.930 . S
H2042 C2030 0.956 . S
H2043 C2030 0.961 . S
H2044 C2030 0.961 . S
H2045 C2031 0.958 . S
H2046 C2031 0.961 . S
H2047 C2031 0.960 . S
C2048 C2049 1.391 . S
C2048 C2050 1.394 . S
C2048 H2064 0.931 . S
C2049 C2048 1.391 . S
C2049 C2053 1.376 . S
C2050 C2048 1.394 . S
C2050 C2051 1.369 . S
C2050 C2054 1.531 . S
C2051 C2050 1.369 . S
C2051 C2052 1.410 . S
C2051 C2059 1.503 . S
C2052 C2051 1.410 . S
C2052 C2053 1.392 . S
C2052 C2055 1.511 . S
C2053 C2049 1.376 . S
C2053 C2052 1.392 . S
C2053 H2065 0.929 . S
C2054 C2050 1.531 . S
C2054 H2066 0.960 . S
C2054 H2067 0.962 . S
C2054 H2068 0.960 . S
C2055 C2052 1.511 . S
C2055 H2069 0.961 . S
C2055 H2070 0.961 . S
C2055 H2071 0.961 . S
C2056 C2057 1.370 . S
C2056 C2058 1.363 . S
C2056 H2072 0.931 . S
C2057 C2056 1.370 . S
C2057 C2061 1.408 . S
C2058 C2056 1.363 . S
C2058 C2059 1.370 . S
C2058 C2062 1.524 . S
C2059 C2051 1.503 . S
C2059 C2058 1.370 . S
C2059 C2060 1.403 . S
C2060 C2059 1.403 . S
C2060 C2061 1.404 . S
C2060 C2063 1.539 . S
C2061 C2057 1.408 . S
C2061 C2060 1.404 . S
C2061 H2073 0.930 . S
C2062 C2058 1.524 . S
C2062 H2074 0.956 . S
C2062 H2075 0.961 . S
C2062 H2076 0.961 . S
C2063 C2060 1.539 . S
C2063 H2077 0.958 . S
C2063 H2078 0.961 . S
C2063 H2079 0.960 . S
H2064 C2048 0.931 . S
H2065 C2053 0.929 . S
H2066 C2054 0.960 . S
H2067 C2054 0.962 . S
H2068 C2054 0.960 . S
H2069 C2055 0.961 . S
H2070 C2055 0.961 . S
H2071 C2055 0.961 . S
H2072 C2056 0.931 . S
H2073 C2061 0.930 . S
H2074 C2062 0.956 . S
H2075 C2062 0.961 . S
H2076 C2062 0.961 . S
H2077 C2063 0.958 . S
H2078 C2063 0.961 . S
H2079 C2063 0.960 . S
C2080 C2081 1.391 . S
C2080 C2082 1.394 1_546 S
C2080 H2096 0.931 1_545 S
C2081 C2080 1.391 . S
C2081 C2085 1.376 1_556 S
C2082 C2080 1.394 1_564 S
C2082 C2083 1.369 1_565 S
C2082 C2086 1.531 . S
C2083 C2082 1.369 1_545 S
C2083 C2084 1.410 . S
C2083 C2091 1.503 . S
C2084 C2083 1.410 . S
C2084 C2085 1.392 . S
C2084 C2087 1.511 . S
C2085 C2081 1.376 1_554 S
C2085 C2084 1.392 . S
C2085 H2097 0.929 . S
C2086 C2082 1.531 . S
C2086 H2098 0.960 . S
C2086 H2099 0.962 . S
C2086 H2100 0.960 . S
C2087 C2084 1.511 . S
C2087 H2101 0.961 . S
C2087 H2102 0.961 . S
C2087 H2103 0.961 . S
C2088 C2089 1.370 . S
C2088 C2090 1.389 . S
C2088 H2104 0.931 . S
C2089 C2088 1.370 . S
C2089 C2093 1.408 . S
C2090 C2088 1.389 . S
C2090 C2091 1.363 1_565 S
C2090 C2094 1.511 1_565 S
C2091 C2083 1.503 . S
C2091 C2090 1.363 1_545 S
C2091 C2092 1.403 1_545 S
C2092 C2091 1.403 1_565 S
C2092 C2093 1.404 . S
C2092 C2095 1.534 1_565 S
C2093 C2089 1.408 . S
C2093 C2092 1.404 . S
C2093 H2105 0.930 . S
C2094 C2090 1.511 1_545 S
C2094 H2106 0.956 1_545 S
C2094 H2107 0.961 . S
C2094 H2108 0.961 . S
C2095 C2092 1.534 1_545 S
C2095 H2109 0.928 1_545 S
C2095 H2110 0.972 . S
C2095 H2111 0.987 . S
H2096 C2080 0.931 1_565 S
H2097 C2085 0.929 . S
H2098 C2086 0.960 . S
H2099 C2086 0.962 . S
H2100 C2086 0.960 . S
H2101 C2087 0.961 . S
H2102 C2087 0.961 . S
H2103 C2087 0.961 . S
H2104 C2088 0.931 . S
H2105 C2093 0.930 . S
H2106 C2094 0.956 1_565 S
H2107 C2094 0.961 . S
H2108 C2094 0.961 . S
H2109 C2095 0.928 1_565 S
H2110 C2095 0.972 . S
H2111 C2095 0.987 . S
C2112 C2113 1.391 . S
C2112 C2114 1.394 . S
C2112 H2128 0.931 . S
C2113 C2112 1.391 . S
C2113 C2117 1.376 . S
C2114 C2112 1.394 . S
C2114 C2115 1.369 . S
C2114 C2118 1.531 . S
C2115 C2114 1.369 . S
C2115 C2116 1.410 . S
C2115 C2123 1.503 . S
C2116 C2115 1.410 . S
C2116 C2117 1.392 . S
C2116 C2119 1.511 . S
C2117 C2113 1.376 . S
C2117 C2116 1.392 . S
C2117 H2129 0.929 . S
C2118 C2114 1.531 . S
C2118 H2130 0.960 . S
C2118 H2131 0.962 . S
C2118 H2132 0.960 . S
C2119 C2116 1.511 . S
C2119 H2133 0.961 . S
C2119 H2134 0.961 . S
C2119 H2135 0.961 . S
C2120 C2121 1.370 . S
C2120 C2122 1.363 . S
C2120 H2136 0.931 . S
C2121 C2120 1.370 . S
C2121 C2125 1.408 . S
C2122 C2120 1.363 . S
C2122 C2123 1.370 . S
C2122 C2126 1.524 . S
C2123 C2115 1.503 . S
C2123 C2122 1.370 . S
C2123 C2124 1.403 . S
C2124 C2123 1.403 . S
C2124 C2125 1.404 . S
C2124 C2127 1.539 . S
C2125 C2121 1.408 . S
C2125 C2124 1.404 . S
C2125 H2137 0.930 . S
C2126 C2122 1.524 . S
C2126 H2138 0.956 . S
C2126 H2139 0.961 . S
C2126 H2140 0.961 . S
C2127 C2124 1.539 . S
C2127 H2141 0.958 . S
C2127 H2142 0.961 . S
C2127 H2143 0.960 . S
H2128 C2112 0.931 . S
H2129 C2117 0.929 . S
H2130 C2118 0.960 . S
H2131 C2118 0.962 . S
H2132 C2118 0.960 . S
H2133 C2119 0.961 . S
H2134 C2119 0.961 . S
H2135 C2119 0.961 . S
H2136 C2120 0.931 . S
H2137 C2125 0.930 . S
H2138 C2126 0.956 . S
H2139 C2126 0.961 . S
H2140 C2126 0.961 . S
H2141 C2127 0.958 . S
H2142 C2127 0.961 . S
H2143 C2127 0.960 . S
C2144 C2145 1.391 . S
C2144 C2146 1.394 . S
C2144 H2160 0.931 . S
C2145 C2144 1.391 . S
C2145 C2149 1.376 . S
C2146 C2144 1.394 . S
C2146 C2147 1.369 . S
C2146 C2150 1.531 . S
C2147 C2146 1.369 . S
C2147 C2148 1.410 1_545 S
C2147 C2155 1.503 . S
C2148 C2147 1.410 1_565 S
C2148 C2149 1.392 1_565 S
C2148 C2151 1.511 . S
C2149 C2145 1.376 . S
C2149 C2148 1.392 1_545 S
C2149 H2161 0.929 1_545 S
C2150 C2146 1.531 . S
C2150 H2162 0.960 . S
C2150 H2163 0.962 . S
C2150 H2164 0.960 . S
C2151 C2148 1.511 . S
C2151 H2165 0.961 . S
C2151 H2166 0.961 . S
C2151 H2167 0.961 . S
C2152 C2153 1.370 . S
C2152 C2154 1.363 1_565 S
C2152 H2168 0.931 . S
C2153 C2152 1.370 . S
C2153 C2157 1.408 . S
C2154 C2152 1.363 1_545 S
C2154 C2155 1.371 . S
C2154 C2158 1.524 . S
C2155 C2147 1.503 . S
C2155 C2154 1.371 . S
C2155 C2156 1.403 1_545 S
C2156 C2155 1.403 1_565 S
C2156 C2157 1.404 . S
C2156 C2159 1.539 . S
C2157 C2153 1.408 . S
C2157 C2156 1.404 . S
C2157 H2169 0.930 . S
C2158 C2154 1.524 . S
C2158 H2170 0.956 . S
C2158 H2171 0.935 1_545 S
C2158 H2172 0.961 . S
C2159 C2156 1.539 . S
C2159 H2173 0.958 1_565 S
C2159 H2174 0.961 . S
C2159 H2175 0.960 . S
H2160 C2144 0.931 . S
H2161 C2149 0.929 1_565 S
H2162 C2150 0.960 . S
H2163 C2150 0.962 . S
H2164 C2150 0.960 . S
H2165 C2151 0.961 . S
H2166 C2151 0.961 . S
H2167 C2151 0.961 . S
H2168 C2152 0.931 . S
H2169 C2157 0.930 . S
H2170 C2158 0.956 . S
H2171 C2158 0.935 1_565 S
H2172 C2158 0.961 . S
H2173 C2159 0.958 1_545 S
H2174 C2159 0.961 . S
H2175 C2159 0.960 . S
C2176 C2177 1.391 . S
C2176 C2178 1.394 . S
C2176 H2192 0.931 . S
C2177 C2176 1.391 . S
C2177 C2181 1.376 . S
C2178 C2176 1.394 . S
C2178 C2179 1.369 . S
C2178 C2182 1.531 . S
C2179 C2178 1.369 . S
C2179 C2180 1.410 . S
C2179 C2187 1.503 . S
C2180 C2179 1.410 . S
C2180 C2181 1.392 . S
C2180 C2183 1.511 . S
C2181 C2177 1.376 . S
C2181 C2180 1.392 . S
C2181 H2193 0.929 . S
C2182 C2178 1.531 . S
C2182 H2194 0.960 . S
C2182 H2195 0.962 . S
C2182 H2196 0.960 . S
C2183 C2180 1.511 . S
C2183 H2197 0.961 . S
C2183 H2198 0.961 . S
C2183 H2199 0.961 . S
C2184 C2185 1.370 . S
C2184 C2186 1.363 . S
C2184 H2200 0.931 . S
C2185 C2184 1.370 . S
C2185 C2189 1.408 . S
C2186 C2184 1.363 . S
C2186 C2187 1.370 . S
C2186 C2190 1.524 . S
C2187 C2179 1.503 . S
C2187 C2186 1.370 . S
C2187 C2188 1.403 . S
C2188 C2187 1.403 . S
C2188 C2189 1.404 . S
C2188 C2191 1.539 . S
C2189 C2185 1.408 . S
C2189 C2188 1.404 . S
C2189 H2201 0.930 . S
C2190 C2186 1.524 . S
C2190 H2202 0.956 . S
C2190 H2203 0.961 . S
C2190 H2204 0.961 . S
C2191 C2188 1.539 . S
C2191 H2205 0.958 . S
C2191 H2206 0.961 . S
C2191 H2207 0.960 . S
H2192 C2176 0.931 . S
H2193 C2181 0.929 . S
H2194 C2182 0.960 . S
H2195 C2182 0.962 . S
H2196 C2182 0.960 . S
H2197 C2183 0.961 . S
H2198 C2183 0.961 . S
H2199 C2183 0.961 . S
H2200 C2184 0.931 . S
H2201 C2189 0.930 . S
H2202 C2190 0.956 . S
H2203 C2190 0.961 . S
H2204 C2190 0.961 . S
H2205 C2191 0.958 . S
H2206 C2191 0.961 . S
H2207 C2191 0.960 . S
C2208 C2209 1.391 . S
C2208 C2210 1.394 . S
C2208 H2224 0.931 . S
C2209 C2208 1.391 . S
C2209 C2213 1.376 1_565 S
C2210 C2208 1.394 . S
C2210 C2211 1.428 . S
C2210 C2214 1.531 . S
C2211 C2210 1.428 . S
C2211 C2212 1.375 1_565 S
C2211 C2219 1.477 1_565 S
C2212 C2211 1.375 1_545 S
C2212 C2213 1.392 . S
C2212 C2215 1.511 . S
C2213 C2209 1.376 1_545 S
C2213 C2212 1.392 . S
C2213 H2225 0.929 . S
C2214 C2210 1.531 . S
C2214 H2226 0.960 . S
C2214 H2227 0.962 . S
C2214 H2228 0.960 . S
C2215 C2212 1.511 . S
C2215 H2229 0.961 . S
C2215 H2230 0.961 . S
C2215 H2231 0.961 . S
C2216 C2217 1.370 1_554 S
C2216 C2218 1.363 . S
C2216 H2232 0.931 . S
C2217 C2216 1.370 1_556 S
C2217 C2221 1.408 . S
C2218 C2216 1.363 . S
C2218 C2219 1.370 . S
C2218 C2222 1.524 . S
C2219 C2211 1.477 1_545 S
C2219 C2218 1.370 . S
C2219 C2220 1.424 . S
C2220 C2219 1.424 . S
C2220 C2221 1.430 1_554 S
C2220 C2223 1.499 1_545 S
C2221 C2217 1.408 . S
C2221 C2220 1.430 1_556 S
C2221 H2233 0.930 . S
C2222 C2218 1.524 . S
C2222 H2234 0.956 . S
C2222 H2235 0.961 . S
C2222 H2236 0.961 . S
C2223 C2220 1.499 1_565 S
C2223 H2237 0.958 . S
C2223 H2238 0.961 . S
C2223 H2239 0.960 . S
H2224 C2208 0.931 . S
H2225 C2213 0.929 . S
H2226 C2214 0.960 . S
H2227 C2214 0.962 . S
H2228 C2214 0.960 . S
H2229 C2215 0.961 . S
H2230 C2215 0.961 . S
H2231 C2215 0.961 . S
H2232 C2216 0.931 . S
H2233 C2221 0.930 . S
H2234 C2222 0.956 . S
H2235 C2222 0.961 . S
H2236 C2222 0.961 . S
H2237 C2223 0.958 . S
H2238 C2223 0.961 . S
H2239 C2223 0.960 . S
C2240 C2241 1.391 . S
C2240 C2242 1.394 . S
C2240 H2256 0.931 . S
C2241 C2240 1.391 . S
C2241 C2245 1.376 . S
C2242 C2240 1.394 . S
C2242 C2243 1.369 . S
C2242 C2246 1.531 . S
C2243 C2242 1.369 . S
C2243 C2244 1.410 . S
C2243 C2251 1.503 . S
C2244 C2243 1.410 . S
C2244 C2245 1.392 . S
C2244 C2247 1.511 . S
C2245 C2241 1.376 . S
C2245 C2244 1.392 . S
C2245 H2257 0.929 . S
C2246 C2242 1.531 . S
C2246 H2258 0.960 . S
C2246 H2259 0.962 . S
C2246 H2260 0.960 . S
C2247 C2244 1.511 . S
C2247 H2261 0.961 . S
C2247 H2262 0.961 . S
C2247 H2263 0.961 . S
C2248 C2249 1.370 . S
C2248 C2250 1.363 . S
C2248 H2264 0.931 . S
C2249 C2248 1.370 . S
C2249 C2253 1.408 . S
C2250 C2248 1.363 . S
C2250 C2251 1.370 . S
C2250 C2254 1.524 . S
C2251 C2243 1.503 . S
C2251 C2250 1.370 . S
C2251 C2252 1.403 . S
C2252 C2251 1.403 . S
C2252 C2253 1.404 . S
C2252 C2255 1.539 . S
C2253 C2249 1.408 . S
C2253 C2252 1.404 . S
C2253 H2265 0.930 . S
C2254 C2250 1.524 . S
C2254 H2266 0.956 . S
C2254 H2267 0.961 . S
C2254 H2268 0.961 . S
C2255 C2252 1.539 . S
C2255 H2269 0.958 . S
C2255 H2270 0.961 . S
C2255 H2271 0.960 . S
H2256 C2240 0.931 . S
H2257 C2245 0.929 . S
H2258 C2246 0.960 . S
H2259 C2246 0.962 . S
H2260 C2246 0.960 . S
H2261 C2247 0.961 . S
H2262 C2247 0.961 . S
H2263 C2247 0.961 . S
H2264 C2248 0.931 . S
H2265 C2253 0.930 . S
H2266 C2254 0.956 . S
H2267 C2254 0.961 . S
H2268 C2254 0.961 . S
H2269 C2255 0.958 . S
H2270 C2255 0.961 . S
H2271 C2255 0.960 . S
C2272 C2273 1.391 . S
C2272 C2274 1.394 . S
C2272 H2288 0.931 . S
C2273 C2272 1.391 . S
C2273 C2277 1.376 . S
C2274 C2272 1.394 . S
C2274 C2275 1.369 . S
C2274 C2278 1.531 . S
C2275 C2274 1.369 . S
C2275 C2276 1.410 . S
C2275 C2283 1.503 . S
C2276 C2275 1.410 . S
C2276 C2277 1.392 . S
C2276 C2279 1.511 . S
C2277 C2273 1.376 . S
C2277 C2276 1.392 . S
C2277 H2289 0.929 . S
C2278 C2274 1.531 . S
C2278 H2290 0.960 . S
C2278 H2291 0.962 . S
C2278 H2292 0.960 . S
C2279 C2276 1.511 . S
C2279 H2293 0.961 . S
C2279 H2294 0.961 . S
C2279 H2295 0.961 . S
C2280 C2281 1.370 1_554 S
C2280 C2282 1.363 . S
C2280 H2296 0.931 . S
C2281 C2280 1.370 1_556 S
C2281 C2285 1.408 . S
C2282 C2280 1.363 . S
C2282 C2283 1.370 . S
C2282 C2286 1.524 . S
C2283 C2275 1.503 . S
C2283 C2282 1.370 . S
C2283 C2284 1.403 . S
C2284 C2283 1.403 . S
C2284 C2285 1.404 1_554 S
C2284 C2287 1.539 . S
C2285 C2281 1.408 . S
C2285 C2284 1.404 1_556 S
C2285 H2297 0.930 . S
C2286 C2282 1.524 . S
C2286 H2298 0.956 . S
C2286 H2299 0.961 . S
C2286 H2300 0.961 . S
C2287 C2284 1.539 . S
C2287 H2301 0.958 . S
C2287 H2302 0.961 . S
C2287 H2303 0.960 . S
H2288 C2272 0.931 . S
H2289 C2277 0.929 . S
H2290 C2278 0.960 . S
H2291 C2278 0.962 . S
H2292 C2278 0.960 . S
H2293 C2279 0.961 . S
H2294 C2279 0.961 . S
H2295 C2279 0.961 . S
H2296 C2280 0.931 . S
H2297 C2285 0.930 . S
H2298 C2286 0.956 . S
H2299 C2286 0.961 . S
H2300 C2286 0.961 . S
H2301 C2287 0.958 . S
H2302 C2287 0.961 . S
H2303 C2287 0.960 . S
C2304 C2305 1.391 . S
C2304 C2306 1.394 . S
C2304 H2320 0.931 . S
C2305 C2304 1.391 . S
C2305 C2309 1.376 . S
C2306 C2304 1.394 . S
C2306 C2307 1.369 . S
C2306 C2310 1.531 . S
C2307 C2306 1.369 . S
C2307 C2308 1.410 . S
C2307 C2315 1.503 . S
C2308 C2307 1.410 . S
C2308 C2309 1.392 . S
C2308 C2311 1.511 . S
C2309 C2305 1.376 . S
C2309 C2308 1.392 . S
C2309 H2321 0.929 . S
C2310 C2306 1.531 . S
C2310 H2322 0.960 . S
C2310 H2323 0.962 . S
C2310 H2324 0.960 . S
C2311 C2308 1.511 . S
C2311 H2325 0.961 . S
C2311 H2326 0.961 . S
C2311 H2327 0.961 . S
C2312 C2313 1.370 . S
C2312 C2314 1.363 . S
C2312 H2328 0.931 . S
C2313 C2312 1.370 . S
C2313 C2317 1.408 . S
C2314 C2312 1.363 . S
C2314 C2315 1.370 . S
C2314 C2318 1.524 . S
C2315 C2307 1.503 . S
C2315 C2314 1.370 . S
C2315 C2316 1.403 . S
C2316 C2315 1.403 . S
C2316 C2317 1.404 . S
C2316 C2319 1.539 . S
C2317 C2313 1.408 . S
C2317 C2316 1.404 . S
C2317 H2329 0.930 . S
C2318 C2314 1.524 . S
C2318 H2330 0.956 . S
C2318 H2331 0.961 . S
C2318 H2332 0.961 . S
C2319 C2316 1.539 . S
C2319 H2333 0.958 . S
C2319 H2334 0.961 . S
C2319 H2335 0.960 . S
H2320 C2304 0.931 . S
H2321 C2309 0.929 . S
H2322 C2310 0.960 . S
H2323 C2310 0.962 . S
H2324 C2310 0.960 . S
H2325 C2311 0.961 . S
H2326 C2311 0.961 . S
H2327 C2311 0.961 . S
H2328 C2312 0.931 . S
H2329 C2317 0.930 . S
H2330 C2318 0.956 . S
H2331 C2318 0.961 . S
H2332 C2318 0.961 . S
H2333 C2319 0.958 . S
H2334 C2319 0.961 . S
H2335 C2319 0.960 . S
C2336 C2337 1.391 . S
C2336 C2338 1.394 . S
C2336 H2352 0.931 . S
C2337 C2336 1.391 . S
C2337 C2341 1.376 . S
C2338 C2336 1.394 . S
C2338 C2339 1.369 . S
C2338 C2342 1.531 . S
C2339 C2338 1.369 . S
C2339 C2340 1.410 . S
C2339 C2347 1.503 . S
C2340 C2339 1.410 . S
C2340 C2341 1.392 . S
C2340 C2343 1.511 . S
C2341 C2337 1.376 . S
C2341 C2340 1.392 . S
C2341 H2353 0.929 . S
C2342 C2338 1.531 . S
C2342 H2354 0.960 . S
C2342 H2355 0.962 . S
C2342 H2356 0.960 . S
C2343 C2340 1.511 . S
C2343 H2357 0.961 . S
C2343 H2358 0.961 . S
C2343 H2359 0.961 . S
C2344 C2345 1.370 . S
C2344 C2346 1.363 . S
C2344 H2360 0.931 . S
C2345 C2344 1.370 . S
C2345 C2349 1.408 . S
C2346 C2344 1.363 . S
C2346 C2347 1.370 . S
C2346 C2350 1.524 . S
C2347 C2339 1.503 . S
C2347 C2346 1.370 . S
C2347 C2348 1.403 . S
C2348 C2347 1.403 . S
C2348 C2349 1.404 . S
C2348 C2351 1.539 . S
C2349 C2345 1.408 . S
C2349 C2348 1.404 . S
C2349 H2361 0.930 . S
C2350 C2346 1.524 . S
C2350 H2362 0.956 . S
C2350 H2363 0.961 . S
C2350 H2364 0.961 . S
C2351 C2348 1.539 . S
C2351 H2365 0.958 . S
C2351 H2366 0.961 . S
C2351 H2367 0.960 . S
H2352 C2336 0.931 . S
H2353 C2341 0.929 . S
H2354 C2342 0.960 . S
H2355 C2342 0.962 . S
H2356 C2342 0.960 . S
H2357 C2343 0.961 . S
H2358 C2343 0.961 . S
H2359 C2343 0.961 . S
H2360 C2344 0.931 . S
H2361 C2349 0.930 . S
H2362 C2350 0.956 . S
H2363 C2350 0.961 . S
H2364 C2350 0.961 . S
H2365 C2351 0.958 . S
H2366 C2351 0.961 . S
H2367 C2351 0.960 . S
C2368 C2369 1.391 . S
C2368 C2370 1.394 . S
C2368 H2384 0.931 . S
C2369 C2368 1.391 . S
C2369 C2373 1.376 . S
C2370 C2368 1.394 . S
C2370 C2371 1.369 . S
C2370 C2374 1.531 . S
C2371 C2370 1.369 . S
C2371 C2372 1.410 . S
C2371 C2379 1.503 . S
C2372 C2371 1.410 . S
C2372 C2373 1.392 . S
C2372 C2375 1.511 . S
C2373 C2369 1.376 . S
C2373 C2372 1.392 . S
C2373 H2385 0.929 . S
C2374 C2370 1.531 . S
C2374 H2386 0.960 . S
C2374 H2387 0.962 . S
C2374 H2388 0.960 . S
C2375 C2372 1.511 . S
C2375 H2389 0.961 . S
C2375 H2390 0.961 . S
C2375 H2391 0.961 . S
C2376 C2377 1.370 . S
C2376 C2378 1.363 . S
C2376 H2392 0.931 . S
C2377 C2376 1.370 . S
C2377 C2381 1.408 . S
C2378 C2376 1.363 . S
C2378 C2379 1.370 . S
C2378 C2382 1.524 . S
C2379 C2371 1.503 . S
C2379 C2378 1.370 . S
C2379 C2380 1.403 . S
C2380 C2379 1.403 . S
C2380 C2381 1.404 . S
C2380 C2383 1.539 . S
C2381 C2377 1.408 . S
C2381 C2380 1.404 . S
C2381 H2393 0.930 . S
C2382 C2378 1.524 . S
C2382 H2394 0.956 . S
C2382 H2395 0.961 . S
C2382 H2396 0.961 . S
C2383 C2380 1.539 . S
C2383 H2397 0.958 . S
C2383 H2398 0.961 . S
C2383 H2399 0.960 . S
H2384 C2368 0.931 . S
H2385 C2373 0.929 . S
H2386 C2374 0.960 . S
H2387 C2374 0.962 . S
H2388 C2374 0.960 . S
H2389 C2375 0.961 . S
H2390 C2375 0.961 . S
H2391 C2375 0.961 . S
H2392 C2376 0.931 . S
H2393 C2381 0.930 . S
H2394 C2382 0.956 . S
H2395 C2382 0.961 . S
H2396 C2382 0.961 . S
H2397 C2383 0.958 . S
H2398 C2383 0.961 . S
H2399 C2383 0.960 . S
C2400 C2401 1.391 1_554 S
C2400 C2402 1.394 . S
C2400 H2416 0.931 . S
C2401 C2400 1.391 1_556 S
C2401 C2405 1.376 . S
C2402 C2400 1.394 . S
C2402 C2403 1.369 . S
C2402 C2406 1.531 . S
C2403 C2402 1.369 . S
C2403 C2404 1.410 . S
C2403 C2411 1.503 . S
C2404 C2403 1.410 . S
C2404 C2405 1.392 1_554 S
C2404 C2407 1.511 . S
C2405 C2401 1.376 . S
C2405 C2404 1.392 1_556 S
C2405 H2417 0.929 . S
C2406 C2402 1.531 . S
C2406 H2418 0.960 . S
C2406 H2419 0.962 . S
C2406 H2420 0.960 . S
C2407 C2404 1.511 . S
C2407 H2421 0.961 . S
C2407 H2422 0.961 . S
C2407 H2423 0.961 . S
C2408 C2409 1.370 . S
C2408 C2410 1.363 . S
C2408 H2424 0.931 . S
C2409 C2408 1.370 . S
C2409 C2413 1.408 . S
C2410 C2408 1.363 . S
C2410 C2411 1.370 . S
C2410 C2414 1.524 . S
C2411 C2403 1.503 . S
C2411 C2410 1.370 . S
C2411 C2412 1.403 . S
C2412 C2411 1.403 . S
C2412 C2413 1.404 . S
C2412 C2415 1.539 . S
C2413 C2409 1.408 . S
C2413 C2412 1.404 . S
C2413 H2425 0.930 . S
C2414 C2410 1.524 . S
C2414 H2426 0.956 . S
C2414 H2427 0.961 . S
C2414 H2428 0.961 . S
C2415 C2412 1.539 . S
C2415 H2429 0.958 . S
C2415 H2430 0.961 . S
C2415 H2431 0.960 . S
H2416 C2400 0.931 . S
H2417 C2405 0.929 . S
H2418 C2406 0.960 . S
H2419 C2406 0.962 . S
H2420 C2406 0.960 . S
H2421 C2407 0.961 . S
H2422 C2407 0.961 . S
H2423 C2407 0.961 . S
H2424 C2408 0.931 . S
H2425 C2413 0.930 . S
H2426 C2414 0.956 . S
H2427 C2414 0.961 . S
H2428 C2414 0.961 . S
H2429 C2415 0.958 . S
H2430 C2415 0.961 . S
H2431 C2415 0.960 . S
C2432 C2433 1.391 . S
C2432 C2434 1.394 . S
C2432 H2448 0.931 . S
C2433 C2432 1.391 . S
C2433 C2437 1.376 . S
C2434 C2432 1.394 . S
C2434 C2435 1.369 . S
C2434 C2438 1.531 . S
C2435 C2434 1.369 . S
C2435 C2436 1.410 . S
C2435 C2443 1.503 . S
C2436 C2435 1.410 . S
C2436 C2437 1.392 . S
C2436 C2439 1.511 . S
C2437 C2433 1.376 . S
C2437 C2436 1.392 . S
C2437 H2449 0.929 . S
C2438 C2434 1.531 . S
C2438 H2450 0.960 . S
C2438 H2451 0.962 . S
C2438 H2452 0.960 . S
C2439 C2436 1.511 . S
C2439 H2453 0.961 . S
C2439 H2454 0.961 . S
C2439 H2455 0.961 . S
C2440 C2441 1.370 . S
C2440 C2442 1.363 . S
C2440 H2456 0.931 . S
C2441 C2440 1.370 . S
C2441 C2445 1.408 . S
C2442 C2440 1.363 . S
C2442 C2443 1.370 . S
C2442 C2446 1.524 . S
C2443 C2435 1.503 . S
C2443 C2442 1.370 . S
C2443 C2444 1.403 . S
C2444 C2443 1.403 . S
C2444 C2445 1.404 . S
C2444 C2447 1.539 . S
C2445 C2441 1.408 . S
C2445 C2444 1.404 . S
C2445 H2457 0.930 . S
C2446 C2442 1.524 . S
C2446 H2458 0.956 . S
C2446 H2459 0.961 . S
C2446 H2460 0.961 . S
C2447 C2444 1.539 . S
C2447 H2461 0.958 . S
C2447 H2462 0.961 . S
C2447 H2463 0.960 . S
H2448 C2432 0.931 . S
H2449 C2437 0.929 . S
H2450 C2438 0.960 . S
H2451 C2438 0.962 . S
H2452 C2438 0.960 . S
H2453 C2439 0.961 . S
H2454 C2439 0.961 . S
H2455 C2439 0.961 . S
H2456 C2440 0.931 . S
H2457 C2445 0.930 . S
H2458 C2446 0.956 . S
H2459 C2446 0.961 . S
H2460 C2446 0.961 . S
H2461 C2447 0.958 . S
H2462 C2447 0.961 . S
H2463 C2447 0.960 . S
C2464 C2465 1.391 . S
C2464 C2466 1.394 . S
C2464 H2480 0.931 . S
C2465 C2464 1.391 . S
C2465 C2469 1.376 . S
C2466 C2464 1.394 . S
C2466 C2467 1.369 . S
C2466 C2470 1.531 . S
C2467 C2466 1.369 . S
C2467 C2468 1.410 . S
C2467 C2475 1.503 . S
C2468 C2467 1.410 . S
C2468 C2469 1.392 . S
C2468 C2471 1.511 . S
C2469 C2465 1.376 . S
C2469 C2468 1.392 . S
C2469 H2481 0.929 . S
C2470 C2466 1.531 . S
C2470 H2482 0.960 . S
C2470 H2483 0.962 . S
C2470 H2484 0.960 . S
C2471 C2468 1.511 . S
C2471 H2485 0.961 . S
C2471 H2486 0.961 . S
C2471 H2487 0.961 . S
C2472 C2473 1.370 . S
C2472 C2474 1.363 . S
C2472 H2488 0.931 . S
C2473 C2472 1.370 . S
C2473 C2477 1.408 . S
C2474 C2472 1.363 . S
C2474 C2475 1.370 . S
C2474 C2478 1.524 . S
C2475 C2467 1.503 . S
C2475 C2474 1.370 . S
C2475 C2476 1.403 . S
C2476 C2475 1.403 . S
C2476 C2477 1.404 . S
C2476 C2479 1.539 . S
C2477 C2473 1.408 . S
C2477 C2476 1.404 . S
C2477 H2489 0.930 . S
C2478 C2474 1.524 . S
C2478 H2490 0.956 . S
C2478 H2491 0.961 . S
C2478 H2492 0.961 . S
C2479 C2476 1.539 . S
C2479 H2493 0.958 . S
C2479 H2494 0.961 . S
C2479 H2495 0.960 . S
H2480 C2464 0.931 . S
H2481 C2469 0.929 . S
H2482 C2470 0.960 . S
H2483 C2470 0.962 . S
H2484 C2470 0.960 . S
H2485 C2471 0.961 . S
H2486 C2471 0.961 . S
H2487 C2471 0.961 . S
H2488 C2472 0.931 . S
H2489 C2477 0.930 . S
H2490 C2478 0.956 . S
H2491 C2478 0.961 . S
H2492 C2478 0.961 . S
H2493 C2479 0.958 . S
H2494 C2479 0.961 . S
H2495 C2479 0.960 . S
C449 C104 1.523 . S
C457 C6 1.503 . S
C481 C20 1.526 . S
C489 C62 1.503 . S
C513 C76 1.533 . S
C521 C34 1.521 . S
C545 C48 1.538 . S
C553 C90 1.507 . S
C577 C118 1.536 . S
C585 C216 1.523 . S
C609 C132 1.510 . S
C617 C174 1.527 . S
C641 C146 1.539 . S
C649 C188 1.520 . S
C673 C160 1.491 . S
C681 C202 1.523 . S
C705 C230 1.512 . S
C713 C328 1.527 . S
C737 C244 1.503 . S
C745 C286 1.527 . S
C769 C300 1.506 . S
C777 C258 1.527 . S
C801 C314 1.521 . S
C809 C272 1.503 . S
C833 C342 1.482 . S
C841 C440 1.512 . S
C865 C398 1.538 . S
C873 C356 1.511 . S
C897 C412 1.532 . S
C905 C370 1.525 . S
C929 C384 1.502 . S
C937 C426 1.526 . S
C961 C8 0.932 . S
C969 C92 0.966 . S
C993 C22 0.988 . S
C1001 C106 0.942 . S
C1025 C64 0.968 . S
C1033 C36 0.952 . S
C1057 C50 0.915 . S
C1065 C78 0.972 . S
C1089 C120 0.991 . S
C1097 C204 0.943 . S
C1121 C134 0.923 . S
C1129 C218 0.966 . S
C1153 C176 0.979 . S
C1161 C148 0.943 . S
C1185 C190 0.930 . S
C1193 C162 0.963 . S
C1217 C232 0.929 . S
C1225 C316 0.967 . S
C1249 C330 0.945 . S
C1257 C246 0.961 . S
C1281 C288 0.992 . S
C1289 C260 0.940 . S
C1313 C274 0.980 . S
C1321 C302 0.946 . S
C1345 C344 0.968 . S
C1353 C428 0.947 . S
C1377 C358 0.981 . S
C1385 C442 0.949 . S
C1409 C400 0.958 . S
C1417 C372 0.950 . S
C1441 C414 0.987 . S
C1449 C386 0.946 . S
C1473 C9 1.576 . S
C1481 C429 1.569 . S
C1505 C23 1.537 . S
C1513 C219 1.553 . S
C1537 C37 1.576 . S
C1545 C401 1.568 . S
C1569 C51 1.540 . S
C1577 C191 1.553 . S
C1601 C65 1.574 . S
C1609 C373 1.569 . S
C1633 C79 1.540 . S
C1641 C163 1.555 . S
C1665 C93 1.576 . S
C1673 C345 1.569 . S
C1697 C135 1.566 . S
C1705 C107 1.564 . S
C1729 C317 1.544 . S
C1737 C121 1.554 . S
C1761 C149 1.550 . S
C1769 C289 1.557 . S
C1793 C261 1.540 . S
C1801 C177 1.553 . S
C1825 C233 1.562 . S
C1833 C205 1.562 . S
C1857 C247 1.537 . S
C1865 C443 1.553 . S
C1889 C275 1.546 . S
C1897 C415 1.555 . S
C1921 C303 1.561 . S
C1929 C387 1.564 . S
C1953 C359 1.576 . S
C1961 C331 1.569 . S
C1985 C7 1.542 . S
C1993 C91 1.550 . S
C2017 C21 1.521 . S
C2025 C105 1.553 . S
C2049 C63 1.526 1_556 S
C2057 C35 1.539 . S
C2081 C49 1.529 . S
C2089 C77 1.538 . S
C2113 C119 1.516 1_556 S
C2121 C203 1.549 . S
C2145 C133 1.527 . S
C2153 C217 1.542 . S
C2177 C175 1.561 . S
C2185 C147 1.532 . S
C2209 C161 1.546 . S
C2217 C189 1.535 . S
C2241 C315 1.528 1_556 S
C2249 C231 1.538 . S
C2273 C329 1.559 . S
C2281 C245 1.533 . S
C2305 C287 1.517 . S
C2313 C259 1.544 . S
C2337 C301 1.564 . S
C2345 C273 1.538 . S
C2369 C427 1.515 . S
C2377 C343 1.553 . S
C2401 C441 1.534 . S
C2409 C357 1.539 . S
C2433 C371 1.560 1_556 S
C2441 C399 1.539 . S
C2465 C413 1.514 . S
C2473 C385 1.551 . S
