# Generated by pormake.
# Topology upb, (4)-cn, num edge types: 1
# Building blocks:
#     Node 0, Type 0, BuildingBlock: GALJAG_clean_sbu_0, # of connection points: 4
#     Node 1, Type 0, BuildingBlock: GALJAG_clean_sbu_0, # of connection points: 4
#     Node 2, Type 0, BuildingBlock: GALJAG_clean_sbu_0, # of connection points: 4
#     Node 3, Type 0, BuildingBlock: GALJAG_clean_sbu_0, # of connection points: 4
#     Node 4, Type 0, BuildingBlock: GALJAG_clean_sbu_0, # of connection points: 4
#     Node 5, Type 0, BuildingBlock: GALJAG_clean_sbu_0, # of connection points: 4
#     Node 6, Type 0, BuildingBlock: GALJAG_clean_sbu_0, # of connection points: 4
#     Node 7, Type 0, BuildingBlock: GALJAG_clean_sbu_0, # of connection points: 4
#     Node 8, Type 0, BuildingBlock: GALJAG_clean_sbu_0, # of connection points: 4
#     Node 9, Type 0, BuildingBlock: GALJAG_clean_sbu_0, # of connection points: 4
#     Node 10, Type 0, BuildingBlock: GALJAG_clean_sbu_0, # of connection points: 4
#     Node 11, Type 0, BuildingBlock: GALJAG_clean_sbu_0, # of connection points: 4
#     Node 12, Type 0, BuildingBlock: GALJAG_clean_sbu_0, # of connection points: 4
#     Node 13, Type 0, BuildingBlock: GALJAG_clean_sbu_0, # of connection points: 4
#     Node 14, Type 0, BuildingBlock: GALJAG_clean_sbu_0, # of connection points: 4
#     Node 15, Type 0, BuildingBlock: GALJAG_clean_sbu_0, # of connection points: 4
#     Edge 16, Type (0, 0), BuildingBlock: UVAHIK_clean_linker_0, # of connection points: 2
#     Edge 17, Type (0, 0), BuildingBlock: UVAHIK_clean_linker_0, # of connection points: 2
#     Edge 18, Type (0, 0), BuildingBlock: UVAHIK_clean_linker_0, # of connection points: 2
#     Edge 19, Type (0, 0), BuildingBlock: UVAHIK_clean_linker_0, # of connection points: 2
#     Edge 20, Type (0, 0), BuildingBlock: UVAHIK_clean_linker_0, # of connection points: 2
#     Edge 21, Type (0, 0), BuildingBlock: UVAHIK_clean_linker_0, # of connection points: 2
#     Edge 22, Type (0, 0), BuildingBlock: UVAHIK_clean_linker_0, # of connection points: 2
#     Edge 23, Type (0, 0), BuildingBlock: UVAHIK_clean_linker_0, # of connection points: 2
#     Edge 24, Type (0, 0), BuildingBlock: UVAHIK_clean_linker_0, # of connection points: 2
#     Edge 25, Type (0, 0), BuildingBlock: UVAHIK_clean_linker_0, # of connection points: 2
#     Edge 26, Type (0, 0), BuildingBlock: UVAHIK_clean_linker_0, # of connection points: 2
#     Edge 27, Type (0, 0), BuildingBlock: UVAHIK_clean_linker_0, # of connection points: 2
#     Edge 28, Type (0, 0), BuildingBlock: UVAHIK_clean_linker_0, # of connection points: 2
#     Edge 29, Type (0, 0), BuildingBlock: UVAHIK_clean_linker_0, # of connection points: 2
#     Edge 30, Type (0, 0), BuildingBlock: UVAHIK_clean_linker_0, # of connection points: 2
#     Edge 31, Type (0, 0), BuildingBlock: UVAHIK_clean_linker_0, # of connection points: 2
#     Edge 32, Type (0, 0), BuildingBlock: UVAHIK_clean_linker_0, # of connection points: 2
#     Edge 33, Type (0, 0), BuildingBlock: UVAHIK_clean_linker_0, # of connection points: 2
#     Edge 34, Type (0, 0), BuildingBlock: UVAHIK_clean_linker_0, # of connection points: 2
#     Edge 35, Type (0, 0), BuildingBlock: UVAHIK_clean_linker_0, # of connection points: 2
#     Edge 36, Type (0, 0), BuildingBlock: UVAHIK_clean_linker_0, # of connection points: 2
#     Edge 37, Type (0, 0), BuildingBlock: UVAHIK_clean_linker_0, # of connection points: 2
#     Edge 38, Type (0, 0), BuildingBlock: UVAHIK_clean_linker_0, # of connection points: 2
#     Edge 39, Type (0, 0), BuildingBlock: UVAHIK_clean_linker_0, # of connection points: 2
#     Edge 40, Type (0, 0), BuildingBlock: UVAHIK_clean_linker_0, # of connection points: 2
#     Edge 41, Type (0, 0), BuildingBlock: UVAHIK_clean_linker_0, # of connection points: 2
#     Edge 42, Type (0, 0), BuildingBlock: UVAHIK_clean_linker_0, # of connection points: 2
#     Edge 43, Type (0, 0), BuildingBlock: UVAHIK_clean_linker_0, # of connection points: 2
#     Edge 44, Type (0, 0), BuildingBlock: UVAHIK_clean_linker_0, # of connection points: 2
#     Edge 45, Type (0, 0), BuildingBlock: UVAHIK_clean_linker_0, # of connection points: 2
#     Edge 46, Type (0, 0), BuildingBlock: UVAHIK_clean_linker_0, # of connection points: 2
#     Edge 47, Type (0, 0), BuildingBlock: UVAHIK_clean_linker_0, # of connection points: 2
# Relax obj value: 0.253
# Max RMSD: 0.089
# Mean RMSD: 0.089
data_MOF--net-upb--node1-GALJAG_clean_sbu_0--edge1-UVAHIK_clean_linker_0
_symmetry_space_group_name_H-M    P1
_symmetry_Int_Tables_number       1
_symmetry_cell_setting            triclinic
loop_
_symmetry_equiv_pos_as_xyz
'x, y, z'
_cell_length_a     56.762882
_cell_length_b     56.750998
_cell_length_c     46.752778
_cell_angle_alpha  89.983415
_cell_angle_beta   89.992371
_cell_angle_gamma 90.006959
loop_
_atom_site_label
_atom_site_type_symbol
_atom_site_fract_x
_atom_site_fract_y
_atom_site_fract_z
_atom_type_partial_charge
In0 In 0.03476 0.23579 0.29537 0.0
O1 O 0.0449 0.19714 0.29847 0.0
O2 O 0.06677 0.21935 0.2732 0.0
C3 C 0.02476 0.23536 0.35191 0.0
C4 C 0.05666 0.27687 0.28282 0.0
C5 C 0.99315 0.22765 0.26881 0.0
O6 O 0.04336 0.22645 0.34189 0.0
O7 O 0.01142 0.24457 0.33352 0.0
O8 O 0.99635 0.2447 0.28562 0.0
O9 O 0.01131 0.21548 0.26409 0.0
C10 C 0.06289 0.19889 0.28274 0.0
O11 O 0.04371 0.26634 0.26498 0.0
O12 O 0.05847 0.26669 0.30664 0.0
In13 In 0.77129 0.04198 0.30428 0.0
O14 O 0.78767 0.07807 0.31253 0.0
O15 O 0.79387 0.06209 0.2721 0.0
C16 C 0.77297 0.02864 0.35967 0.0
C17 C 0.7282 0.05817 0.28944 0.0
C18 C 0.78975 0.0021 0.28223 0.0
O19 O 0.78755 0.04295 0.34899 0.0
O20 O 0.75758 0.02119 0.34246 0.0
O21 O 0.76779 0.00495 0.28502 0.0
O22 O 0.80208 0.01943 0.28999 0.0
C23 C 0.79741 0.0795 0.28832 0.0
O24 O 0.74129 0.04741 0.27197 0.0
O25 O 0.73669 0.0603 0.31417 0.0
In26 In 0.96504 0.76505 0.28804 0.0
O27 O 0.95904 0.7258 0.29422 0.0
O28 O 0.95044 0.74014 0.25365 0.0
C29 C 0.00942 0.76887 0.26759 0.0
C30 C 0.93228 0.79805 0.27503 0.0
C31 C 0.96868 0.77252 0.34497 0.0
O32 O 0.99194 0.778 0.25514 0.0
O33 O 0.0043 0.75682 0.28936 0.0
O34 O 0.97895 0.78529 0.32679 0.0
O35 O 0.95611 0.75641 0.33443 0.0
C36 C 0.95082 0.72219 0.2696 0.0
O37 O 0.927 0.77853 0.28619 0.0
O38 O 0.95394 0.80081 0.27026 0.0
In39 In 0.22968 0.95544 0.30094 0.0
O40 O 0.25924 0.95206 0.2675 0.0
O41 O 0.26636 0.94144 0.31008 0.0
C42 C 0.2053 0.99309 0.28184 0.0
C43 C 0.20539 0.91643 0.28575 0.0
C44 C 0.23051 0.96859 0.3563 0.0
O45 O 0.22729 0.9912 0.27809 0.0
O46 O 0.19589 0.97591 0.29457 0.0
O47 O 0.21967 0.9505 0.34771 0.0
O48 O 0.24106 0.98 0.33697 0.0
C49 C 0.27389 0.94343 0.28489 0.0
O50 O 0.21483 0.91885 0.30999 0.0
O51 O 0.20839 0.9336 0.26899 0.0
In52 In 0.03823 0.76493 0.69988 0.0
O53 O 0.04777 0.80379 0.70335 0.0
O54 O 0.07202 0.7789 0.72041 0.0
C55 C 0.02956 0.76745 0.64308 0.0
C56 C 0.06013 0.72364 0.71068 0.0
C57 C 0.99586 0.77156 0.72541 0.0
O58 O 0.04296 0.78186 0.65562 0.0
O59 O 0.02095 0.75181 0.65906 0.0
O60 O 0.01458 0.78051 0.73499 0.0
O61 O 0.99878 0.75834 0.70411 0.0
C62 C 0.06714 0.80029 0.71593 0.0
O63 O 0.04514 0.73227 0.72769 0.0
O64 O 0.06405 0.73591 0.68872 0.0
In65 In 0.22984 0.04259 0.71029 0.0
O66 O 0.20698 0.07361 0.69624 0.0
O67 O 0.21228 0.06868 0.74078 0.0
C68 C 0.22967 0.03321 0.65379 0.0
C69 C 0.27463 0.05274 0.72645 0.0
C70 C 0.20835 0.00464 0.73365 0.0
O71 O 0.23409 0.05352 0.6635 0.0
O72 O 0.22536 0.01782 0.67254 0.0
O73 O 0.23052 0.00625 0.73222 0.0
O74 O 0.19742 0.02228 0.72411 0.0
C75 C 0.20266 0.08065 0.72129 0.0
O76 O 0.25707 0.05667 0.7422 0.0
O77 O 0.26972 0.04285 0.70313 0.0
In78 In 0.95937 0.23591 0.70855 0.0
O79 O 0.94157 0.26206 0.73885 0.0
O80 O 0.95861 0.27594 0.70229 0.0
C81 C 0.99952 0.22052 0.73351 0.0
C82 C 0.92312 0.20623 0.71929 0.0
C83 C 0.96773 0.23373 0.65181 0.0
O84 O 0.99642 0.24187 0.72698 0.0
O85 O 0.98219 0.20734 0.72831 0.0
O86 O 0.94901 0.2424 0.66197 0.0
O87 O 0.98202 0.22604 0.67024 0.0
C88 C 0.94653 0.28007 0.7243 0.0
O89 O 0.93008 0.21096 0.69433 0.0
O90 O 0.93431 0.21661 0.73889 0.0
In91 In 0.77091 0.95874 0.71471 0.0
O92 O 0.78635 0.92282 0.70307 0.0
O93 O 0.79737 0.93858 0.74205 0.0
C94 C 0.77431 0.96494 0.65747 0.0
C95 C 0.72842 0.94679 0.73668 0.0
C96 C 0.78473 0.00077 0.73627 0.0
O97 O 0.75839 0.9526 0.66883 0.0
O98 O 0.78872 0.97383 0.6749 0.0
O99 O 0.76413 0.99737 0.72697 0.0
O100 O 0.79781 0.98286 0.73555 0.0
C101 C 0.79902 0.92132 0.72517 0.0
O102 O 0.74761 0.9409 0.74819 0.0
O103 O 0.73063 0.95958 0.71482 0.0
In104 In 0.53345 0.73584 0.79269 0.0
O105 O 0.54828 0.763 0.76119 0.0
O106 O 0.54205 0.77393 0.80392 0.0
C107 C 0.49206 0.72982 0.76499 0.0
C108 C 0.56408 0.70072 0.78049 0.0
C109 C 0.52716 0.73054 0.84965 0.0
O110 O 0.49502 0.74525 0.78403 0.0
O111 O 0.5104 0.71845 0.75862 0.0
O112 O 0.54707 0.73493 0.83888 0.0
O113 O 0.5107 0.72865 0.83175 0.0
C114 C 0.5495 0.77936 0.77941 0.0
O115 O 0.54355 0.69705 0.78974 0.0
O116 O 0.56934 0.72218 0.77754 0.0
In117 In 0.27228 0.53923 0.78971 0.0
O118 O 0.28704 0.57591 0.79942 0.0
O119 O 0.29834 0.55903 0.76134 0.0
C120 C 0.2766 0.53434 0.84703 0.0
C121 C 0.22911 0.54928 0.76822 0.0
C122 C 0.28667 0.49693 0.76973 0.0
O123 O 0.26151 0.54767 0.83565 0.0
O124 O 0.28985 0.52384 0.82955 0.0
O125 O 0.26648 0.4999 0.7805 0.0
O126 O 0.29906 0.51532 0.76839 0.0
C127 C 0.29959 0.57694 0.7772 0.0
O128 O 0.24786 0.55303 0.75454 0.0
O129 O 0.23207 0.53949 0.79211 0.0
In130 In 0.46577 0.26232 0.78752 0.0
O131 O 0.44769 0.23923 0.75384 0.0
O132 O 0.46412 0.22215 0.7888 0.0
C133 C 0.51002 0.26929 0.76773 0.0
C134 C 0.43186 0.29443 0.77625 0.0
C135 C 0.46886 0.26844 0.84468 0.0
O136 O 0.49212 0.27785 0.75557 0.0
O137 O 0.50546 0.25638 0.78894 0.0
O138 O 0.47748 0.28288 0.82705 0.0
O139 O 0.45827 0.25124 0.83348 0.0
C140 C 0.45209 0.22005 0.76633 0.0
O141 O 0.42825 0.27652 0.79163 0.0
O142 O 0.45252 0.2961 0.76652 0.0
In143 In 0.73164 0.45959 0.7852 0.0
O144 O 0.75701 0.44579 0.7511 0.0
O145 O 0.77186 0.46248 0.78729 0.0
C146 C 0.70919 0.49776 0.76416 0.0
C147 C 0.70536 0.42081 0.77474 0.0
C148 C 0.73131 0.46769 0.84221 0.0
O149 O 0.73143 0.4964 0.76464 0.0
O150 O 0.69865 0.47978 0.77354 0.0
O151 O 0.73834 0.44847 0.83166 0.0
O152 O 0.72458 0.48266 0.8241 0.0
C153 C 0.77548 0.45163 0.76423 0.0
O154 O 0.71619 0.42394 0.79799 0.0
O155 O 0.70789 0.43715 0.75672 0.0
In156 In 0.53139 0.26608 0.20189 0.0
O157 O 0.56776 0.27974 0.21487 0.0
O158 O 0.54072 0.30487 0.20714 0.0
C159 C 0.52274 0.2681 0.14504 0.0
C160 C 0.55247 0.22507 0.21619 0.0
C161 C 0.48893 0.27282 0.2272 0.0
O162 O 0.5353 0.2832 0.15765 0.0
O163 O 0.51485 0.25206 0.16099 0.0
O164 O 0.50756 0.28215 0.2365 0.0
O165 O 0.49199 0.2592 0.20631 0.0
C166 C 0.56188 0.30118 0.21415 0.0
O167 O 0.54139 0.2373 0.23433 0.0
O168 O 0.55277 0.23355 0.1913 0.0
In169 In 0.7303 0.54181 0.19597 0.0
O170 O 0.71337 0.57767 0.18851 0.0
O171 O 0.71066 0.5629 0.23016 0.0
C172 C 0.72916 0.52787 0.14088 0.0
C173 C 0.77469 0.55622 0.2076 0.0
C174 C 0.70798 0.50368 0.21714 0.0
O175 O 0.71722 0.54505 0.15005 0.0
O176 O 0.74168 0.51776 0.1595 0.0
O177 O 0.73016 0.50571 0.21818 0.0
O178 O 0.69739 0.52098 0.20612 0.0
C179 C 0.70577 0.57985 0.21373 0.0
O180 O 0.7626 0.54491 0.22567 0.0
O181 O 0.76453 0.55969 0.18407 0.0
In182 In 0.47143 0.73756 0.20844 0.0
O183 O 0.45997 0.69916 0.20896 0.0
O184 O 0.43724 0.72406 0.22871 0.0
C185 C 0.48032 0.73333 0.15186 0.0
C186 C 0.45255 0.78045 0.21903 0.0
C187 C 0.51264 0.72983 0.236 0.0
O188 O 0.49581 0.73923 0.16977 0.0
O189 O 0.46023 0.72953 0.16242 0.0
O190 O 0.50954 0.74695 0.21924 0.0
O191 O 0.49454 0.71743 0.24017 0.0
C192 C 0.44096 0.70279 0.22223 0.0
O193 O 0.46069 0.76758 0.23871 0.0
O194 O 0.45427 0.77181 0.19432 0.0
In195 In 0.27119 0.46356 0.20208 0.0
O196 O 0.28454 0.42625 0.19354 0.0
O197 O 0.29411 0.44241 0.23285 0.0
C198 C 0.27247 0.47569 0.14635 0.0
C199 C 0.22718 0.45067 0.21801 0.0
C200 C 0.29364 0.50194 0.22259 0.0
O201 O 0.2842 0.45866 0.15633 0.0
O202 O 0.26002 0.4865 0.16446 0.0
O203 O 0.27153 0.49972 0.22448 0.0
O204 O 0.30401 0.48483 0.21096 0.0
C205 C 0.29559 0.42457 0.21688 0.0
O206 O 0.24276 0.45627 0.23602 0.0
O207 O 0.23361 0.45235 0.19234 0.0
C208 C 0.10011 0.18156 0.26287 0.0
C209 C 0.07816 0.17849 0.27628 0.0
C210 C 0.11478 0.16217 0.25778 0.0
C211 C 0.11421 0.09741 0.25108 0.0
H212 H 0.17897 0.10055 0.27719 0.0
C213 C 0.16724 0.01478 0.2788 0.0
C214 C 0.19162 0.01422 0.27377 0.0
C215 C 0.15429 0.03521 0.27362 0.0
C216 C 0.16109 0.09948 0.26921 0.0
H217 H 0.05415 0.15278 0.29437 0.0
H218 H 0.0796 0.11903 0.28532 0.0
H219 H 0.15453 0.13594 0.27814 0.0
H220 H 0.22149 0.03442 0.25852 0.0
H221 H 0.19873 0.07028 0.24913 0.0
H222 H 0.12053 0.06094 0.24255 0.0
C223 C 0.08548 0.13634 0.27865 0.0
C224 C 0.14708 0.11976 0.26983 0.0
C225 C 0.07098 0.15569 0.28401 0.0
C226 C 0.20271 0.03436 0.26262 0.0
C227 C 0.1897 0.05491 0.25742 0.0
C228 C 0.12822 0.0772 0.25029 0.0
C229 C 0.1076 0.13937 0.26566 0.0
C230 C 0.12331 0.11876 0.2615 0.0
C231 C 0.16537 0.05564 0.2632 0.0
C232 C 0.15163 0.07782 0.26012 0.0
H233 H 0.1061 0.19895 0.25668 0.0
H234 H 0.13171 0.16499 0.24762 0.0
H235 H 0.09606 0.09623 0.24404 0.0
H236 H 0.15817 0.99956 0.28745 0.0
H237 H 0.13569 0.0352 0.27879 0.0
C238 C 0.96655 0.19955 0.24324 0.0
C239 C 0.96938 0.2199 0.26001 0.0
C240 C 0.94437 0.18907 0.24039 0.0
C241 C 0.89247 0.18124 0.2839 0.0
H242 H 0.86635 0.14981 0.2175 0.0
C243 C 0.81233 0.12044 0.2959 0.0
C244 C 0.81281 0.09937 0.28024 0.0
C245 C 0.82814 0.1386 0.28961 0.0
C246 C 0.8735 0.15833 0.23631 0.0
H247 H 0.95096 0.24636 0.28491 0.0
H248 H 0.9123 0.22795 0.28006 0.0
H249 H 0.90022 0.17605 0.21191 0.0
H250 H 0.82969 0.08091 0.24525 0.0
H251 H 0.85797 0.11204 0.23505 0.0
H252 H 0.86702 0.16269 0.3087 0.0
C253 C 0.92724 0.22003 0.26931 0.0
C254 C 0.89279 0.17347 0.23302 0.0
C255 C 0.94935 0.23062 0.27195 0.0
C256 C 0.8289 0.09702 0.25763 0.0
C257 C 0.84501 0.115 0.25166 0.0
C258 C 0.87347 0.16591 0.28726 0.0
C259 C 0.92471 0.19867 0.25446 0.0
C260 C 0.90263 0.18485 0.25687 0.0
C261 C 0.84512 0.1359 0.26789 0.0
C262 C 0.8639 0.15395 0.2636 0.0
H263 H 0.98166 0.19092 0.23373 0.0
H264 H 0.94296 0.17256 0.2289 0.0
H265 H 0.89996 0.18941 0.30277 0.0
H266 H 0.79989 0.12282 0.31324 0.0
H267 H 0.82725 0.15462 0.30213 0.0
C268 C 0.82459 0.97913 0.26575 0.0
C269 C 0.80055 0.97976 0.27279 0.0
C270 C 0.83571 0.95774 0.25993 0.0
C271 C 0.83235 0.89591 0.27915 0.0
H272 H 0.8804 0.88861 0.22086 0.0
C273 C 0.8906 0.81258 0.27378 0.0
C274 C 0.9147 0.81663 0.26909 0.0
C275 C 0.8742 0.83067 0.26964 0.0
C276 C 0.86713 0.89039 0.23735 0.0
H277 H 0.76905 0.95866 0.27832 0.0
H278 H 0.78866 0.92103 0.26849 0.0
H279 H 0.85577 0.92386 0.2212 0.0
H280 H 0.94052 0.84258 0.25586 0.0
H281 H 0.91213 0.87421 0.2493 0.0
H282 H 0.84433 0.86307 0.29618 0.0
C283 C 0.79883 0.93716 0.26743 0.0
C284 C 0.85296 0.91053 0.23744 0.0
C285 C 0.78761 0.95866 0.2729 0.0
C286 C 0.92204 0.83891 0.25958 0.0
C287 C 0.9057 0.85701 0.2556 0.0
C288 C 0.84664 0.87585 0.27921 0.0
C289 C 0.82308 0.93647 0.26134 0.0
C290 C 0.83578 0.91373 0.25872 0.0
C291 C 0.88159 0.85321 0.26085 0.0
C292 C 0.86458 0.8731 0.2587 0.0
H293 H 0.83499 0.99513 0.26545 0.0
H294 H 0.85445 0.95776 0.2556 0.0
H295 H 0.81944 0.89802 0.29602 0.0
H296 H 0.88442 0.79552 0.28097 0.0
H297 H 0.85574 0.82702 0.27351 0.0
C298 C 0.05257 0.76659 0.27739 0.0
C299 C 0.03399 0.7753 0.26061 0.0
C300 C 0.07501 0.77656 0.27543 0.0
C301 C 0.11291 0.81807 0.23457 0.0
H302 H 0.13424 0.83633 0.31016 0.0
C303 C 0.17565 0.89651 0.25454 0.0
C304 C 0.19068 0.89585 0.27838 0.0
C305 C 0.15986 0.87809 0.24939 0.0
C306 C 0.12899 0.83101 0.28885 0.0
H307 H 0.02477 0.79981 0.22685 0.0
H308 H 0.06394 0.8173 0.22352 0.0
H309 H 0.10117 0.80966 0.30538 0.0
H310 H 0.20208 0.87481 0.31449 0.0
H311 H 0.1751 0.84232 0.30506 0.0
H312 H 0.14056 0.8399 0.21809 0.0
C313 C 0.06122 0.80275 0.23814 0.0
C314 C 0.10993 0.81566 0.28612 0.0
C315 C 0.03874 0.79277 0.24011 0.0
C316 C 0.19049 0.87591 0.29613 0.0
C317 C 0.17492 0.85736 0.29079 0.0
C318 C 0.13216 0.83334 0.2373 0.0
C319 C 0.07931 0.79542 0.25666 0.0
C320 C 0.1014 0.80932 0.25898 0.0
C321 C 0.15894 0.85849 0.26782 0.0
C322 C 0.14016 0.84034 0.26452 0.0
H323 H 0.0495 0.753 0.29324 0.0
H324 H 0.08873 0.77024 0.2896 0.0
H325 H 0.10682 0.81336 0.21337 0.0
H326 H 0.17541 0.91171 0.24051 0.0
H327 H 0.14767 0.87975 0.23169 0.0
C328 C 0.07499 0.84319 0.723 0.0
C329 C 0.08288 0.81978 0.72449 0.0
C330 C 0.08992 0.86174 0.7305 0.0
C331 C 0.15192 0.87794 0.73363 0.0
H332 H 0.12882 0.93116 0.77742 0.0
C333 C 0.2081 0.96193 0.74776 0.0
C334 C 0.19584 0.98298 0.74245 0.0
C335 C 0.19578 0.94082 0.75199 0.0
C336 C 0.13554 0.91647 0.76509 0.0
H337 H 0.11253 0.79736 0.7352 0.0
H338 H 0.13883 0.82994 0.74791 0.0
H339 H 0.10418 0.89623 0.77187 0.0
H340 H 0.16114 0.99869 0.73884 0.0
H341 H 0.1398 0.96213 0.74575 0.0
H342 H 0.1828 0.89851 0.72564 0.0
C343 C 0.12104 0.83386 0.74103 0.0
C344 C 0.12143 0.89647 0.76197 0.0
C345 C 0.10598 0.81525 0.73384 0.0
C346 C 0.17111 0.98275 0.74287 0.0
C347 C 0.15884 0.96175 0.74705 0.0
C348 C 0.16598 0.89804 0.73654 0.0
C349 C 0.11315 0.85729 0.73938 0.0
C350 C 0.12924 0.87724 0.74563 0.0
C351 C 0.17099 0.94041 0.75102 0.0
C352 C 0.1577 0.9178 0.75168 0.0
H353 H 0.05727 0.84722 0.7159 0.0
H354 H 0.08345 0.87963 0.72865 0.0
H355 H 0.15833 0.86343 0.72075 0.0
H356 H 0.22718 0.9616 0.74759 0.0
H357 H 0.20568 0.92474 0.75537 0.0
C358 C 0.18127 0.10686 0.75566 0.0
C359 C 0.18636 0.10032 0.72734 0.0
C360 C 0.16424 0.12402 0.7614 0.0
C361 C 0.11565 0.14604 0.76651 0.0
H362 H 0.1046 0.19895 0.71577 0.0
C363 C 0.0245 0.18687 0.74939 0.0
C364 C 0.02248 0.21091 0.74275 0.0
C365 C 0.04659 0.17666 0.75354 0.0
C366 C 0.10762 0.18455 0.73053 0.0
H367 H 0.17826 0.10719 0.68281 0.0
H368 H 0.14837 0.13682 0.69275 0.0
H369 H 0.14054 0.17586 0.71085 0.0
H370 H 0.04188 0.24346 0.73694 0.0
H371 H 0.08063 0.22561 0.74445 0.0
H372 H 0.08259 0.15456 0.78595 0.0
C373 C 0.1577 0.12899 0.71058 0.0
C374 C 0.1281 0.17112 0.72745 0.0
C375 C 0.17473 0.11187 0.70486 0.0
C376 C 0.04292 0.22486 0.74198 0.0
C377 C 0.0651 0.21461 0.74607 0.0
C378 C 0.0952 0.1595 0.76962 0.0
C379 C 0.15195 0.135 0.73893 0.0
C380 C 0.13202 0.15129 0.74485 0.0
C381 C 0.0672 0.19025 0.75113 0.0
C382 C 0.09061 0.17848 0.75112 0.0
H383 H 0.19006 0.09833 0.77344 0.0
H384 H 0.16046 0.12846 0.78346 0.0
H385 H 0.11801 0.13083 0.78019 0.0
H386 H 0.00906 0.17566 0.75015 0.0
H387 H 0.04752 0.15782 0.75707 0.0
C388 C 0.8939 0.17635 0.70253 0.0
C389 C 0.90414 0.18906 0.72509 0.0
C390 C 0.87709 0.15896 0.70804 0.0
C391 C 0.83483 0.12916 0.72345 0.0
H392 H 0.8482 0.08663 0.78628 0.0
C393 C 0.78028 0.04465 0.7397 0.0
C394 C 0.79393 0.02429 0.74391 0.0
C395 C 0.7904 0.06701 0.74268 0.0
C396 C 0.84417 0.09836 0.76867 0.0
H397 H 0.90422 0.19416 0.77104 0.0
H398 H 0.87454 0.16401 0.78068 0.0
H399 H 0.87217 0.12179 0.77988 0.0
H400 H 0.82843 0.01135 0.75613 0.0
H401 H 0.84609 0.0501 0.76096 0.0
H402 H 0.80776 0.10499 0.71121 0.0
C403 C 0.87981 0.16719 0.75875 0.0
C404 C 0.85776 0.1187 0.76519 0.0
C405 C 0.89672 0.18454 0.75322 0.0
C406 C 0.81745 0.02671 0.75271 0.0
C407 C 0.82755 0.04899 0.75567 0.0
C408 C 0.82131 0.10876 0.72685 0.0
C409 C 0.87002 0.15395 0.73625 0.0
C410 C 0.85365 0.13403 0.74208 0.0
C411 C 0.81434 0.06942 0.74996 0.0
C412 C 0.82623 0.09279 0.74907 0.0
H413 H 0.8993 0.17941 0.68062 0.0
H414 H 0.87025 0.14889 0.69021 0.0
H415 H 0.8309 0.1408 0.70572 0.0
H416 H 0.76207 0.04331 0.73297 0.0
H417 H 0.77964 0.0824 0.73855 0.0
C418 C 0.83237 0.90284 0.75191 0.0
C419 C 0.81524 0.90143 0.73031 0.0
C420 C 0.8489 0.88481 0.7554 0.0
C421 C 0.8767 0.8367 0.7143 0.0
H422 H 0.90434 0.82083 0.7877 0.0
C423 C 0.95211 0.77051 0.72069 0.0
C424 C 0.9722 0.77924 0.73468 0.0
C425 C 0.93025 0.78134 0.72448 0.0
C426 C 0.89672 0.82506 0.76709 0.0
H427 H 0.80119 0.87961 0.69635 0.0
H428 H 0.82956 0.84781 0.70291 0.0
H429 H 0.87062 0.8476 0.78566 0.0
H430 H 0.9848 0.80486 0.76548 0.0
H431 H 0.94657 0.82381 0.77213 0.0
H432 H 0.90291 0.81449 0.69569 0.0
C433 C 0.83071 0.86311 0.71668 0.0
C434 C 0.87749 0.84047 0.76587 0.0
C435 C 0.81436 0.88126 0.71299 0.0
C436 C 0.96963 0.79776 0.75438 0.0
C437 C 0.94771 0.80858 0.75823 0.0
C438 C 0.89573 0.8212 0.71555 0.0
C439 C 0.84851 0.86486 0.73754 0.0
C440 C 0.86749 0.8468 0.73939 0.0
C441 C 0.92803 0.80109 0.7424 0.0
C442 C 0.90619 0.81547 0.74189 0.0
H443 H 0.83349 0.91822 0.76557 0.0
H444 H 0.8625 0.88698 0.77142 0.0
H445 H 0.86986 0.84149 0.69348 0.0
H446 H 0.9535 0.75615 0.70552 0.0
H447 H 0.91529 0.77493 0.71239 0.0
C448 C 0.57267 0.65789 0.77429 0.0
C449 C 0.58048 0.68135 0.77348 0.0
C450 C 0.58803 0.63946 0.76775 0.0
C451 C 0.65044 0.62366 0.76719 0.0
H452 H 0.62867 0.57053 0.72224 0.0
C453 C 0.70812 0.54074 0.75145 0.0
C454 C 0.69623 0.51941 0.75637 0.0
C455 C 0.69544 0.56172 0.74791 0.0
C456 C 0.63501 0.5852 0.73489 0.0
H457 H 0.61049 0.70397 0.76511 0.0
H458 H 0.63749 0.67161 0.75391 0.0
H459 H 0.60358 0.60514 0.7275 0.0
H460 H 0.66182 0.50309 0.76012 0.0
H461 H 0.63984 0.53943 0.75426 0.0
H462 H 0.68148 0.6034 0.77554 0.0
C463 C 0.61945 0.66754 0.75961 0.0
C464 C 0.62064 0.60501 0.73789 0.0
C465 C 0.60399 0.68604 0.76594 0.0
C466 C 0.6715 0.51925 0.75636 0.0
C467 C 0.65887 0.54012 0.7528 0.0
C468 C 0.66479 0.60376 0.76433 0.0
C469 C 0.6116 0.64406 0.76042 0.0
C470 C 0.62796 0.62423 0.75462 0.0
C471 C 0.67065 0.56169 0.74911 0.0
C472 C 0.65699 0.58406 0.74872 0.0
H473 H 0.55465 0.65372 0.78004 0.0
H474 H 0.58155 0.62153 0.76899 0.0
H475 H 0.65649 0.63814 0.78038 0.0
H476 H 0.72719 0.54137 0.75134 0.0
H477 H 0.70503 0.57801 0.74477 0.0
C478 C 0.44823 0.73202 0.76852 0.0
C479 C 0.46836 0.72229 0.75561 0.0
C480 C 0.42632 0.72111 0.76544 0.0
C481 C 0.39299 0.67467 0.72692 0.0
H482 H 0.3672 0.66152 0.80205 0.0
C483 C 0.33208 0.59543 0.74896 0.0
C484 C 0.31508 0.59714 0.77068 0.0
C485 C 0.34777 0.61395 0.74393 0.0
C486 C 0.37371 0.66537 0.78079 0.0
H487 H 0.48096 0.69488 0.72717 0.0
H488 H 0.44267 0.6759 0.7217 0.0
H489 H 0.39933 0.6894 0.79719 0.0
H490 H 0.3004 0.61993 0.8033 0.0
H491 H 0.32729 0.65257 0.79402 0.0
H492 H 0.36753 0.65032 0.71056 0.0
C493 C 0.44381 0.6919 0.73424 0.0
C494 C 0.39221 0.6814 0.77801 0.0
C495 C 0.46577 0.70275 0.73744 0.0
C496 C 0.3135 0.61804 0.78661 0.0
C497 C 0.329 0.63669 0.78136 0.0
C498 C 0.37427 0.65877 0.72964 0.0
C499 C 0.42409 0.70036 0.74927 0.0
C500 C 0.40237 0.68588 0.75115 0.0
C501 C 0.34664 0.63473 0.76031 0.0
C502 C 0.36473 0.65353 0.75672 0.0
H503 H 0.44965 0.74715 0.78254 0.0
H504 H 0.41133 0.72822 0.7769 0.0
H505 H 0.40038 0.67792 0.70592 0.0
H506 H 0.33373 0.5795 0.73637 0.0
H507 H 0.3613 0.61159 0.72786 0.0
C508 C 0.31839 0.47184 0.74896 0.0
C509 C 0.29631 0.47354 0.76235 0.0
C510 C 0.32934 0.44999 0.74563 0.0
C511 C 0.33213 0.39265 0.78056 0.0
H512 H 0.37122 0.37618 0.71554 0.0
C513 C 0.39055 0.30938 0.78111 0.0
C514 C 0.41355 0.31235 0.77064 0.0
C515 C 0.37352 0.32683 0.77678 0.0
C516 C 0.36047 0.38058 0.73392 0.0
H517 H 0.2678 0.45361 0.78149 0.0
H518 H 0.287 0.41528 0.7757 0.0
H519 H 0.34556 0.41063 0.7129 0.0
H520 H 0.4367 0.33571 0.74703 0.0
H521 H 0.40721 0.36632 0.73995 0.0
H522 H 0.34762 0.36321 0.80201 0.0
C523 C 0.29588 0.43092 0.76796 0.0
C524 C 0.34572 0.40026 0.73236 0.0
C525 C 0.28484 0.45282 0.7711 0.0
C526 C 0.41909 0.3329 0.75531 0.0
C527 C 0.40212 0.35037 0.75106 0.0
C528 C 0.34695 0.37303 0.78217 0.0
C529 C 0.3185 0.42935 0.75578 0.0
C530 C 0.33174 0.40678 0.75587 0.0
C531 C 0.37917 0.34766 0.76196 0.0
C532 C 0.36167 0.36704 0.75909 0.0
H533 H 0.32766 0.48751 0.74197 0.0
H534 H 0.34684 0.44944 0.73642 0.0
H535 H 0.32184 0.39739 0.79919 0.0
H536 H 0.38573 0.29365 0.79287 0.0
H537 H 0.35595 0.32403 0.78513 0.0
C538 C 0.67438 0.40005 0.74632 0.0
C539 C 0.68997 0.40027 0.76963 0.0
C540 C 0.65839 0.38155 0.74282 0.0
C541 C 0.62835 0.33579 0.78547 0.0
H542 H 0.6056 0.31518 0.71136 0.0
C543 C 0.5532 0.26918 0.7778 0.0
C544 C 0.53427 0.27687 0.76084 0.0
C545 C 0.57528 0.27986 0.77539 0.0
C546 C 0.61184 0.32073 0.73218 0.0
H547 H 0.70199 0.38076 0.8067 0.0
H548 H 0.6746 0.34811 0.80021 0.0
H549 H 0.63908 0.3422 0.71411 0.0
H550 H 0.52405 0.30043 0.72651 0.0
H551 H 0.56263 0.31911 0.72231 0.0
H552 H 0.60098 0.31468 0.80354 0.0
C553 C 0.67419 0.36253 0.78504 0.0
C554 C 0.63094 0.33628 0.73379 0.0
C555 C 0.68998 0.38117 0.7887 0.0
C556 C 0.5383 0.29417 0.7399 0.0
C557 C 0.56043 0.30481 0.73743 0.0
C558 C 0.60945 0.32014 0.78386 0.0
C559 C 0.65782 0.36273 0.76242 0.0
C560 C 0.63915 0.34435 0.76047 0.0
C561 C 0.57888 0.29839 0.75592 0.0
C562 C 0.60072 0.31274 0.75722 0.0
H563 H 0.67397 0.41458 0.73129 0.0
H564 H 0.64588 0.38251 0.72539 0.0
H565 H 0.6338 0.34192 0.80637 0.0
H566 H 0.55067 0.25577 0.79401 0.0
H567 H 0.58929 0.27428 0.78959 0.0
C568 C 0.70725 0.46104 0.23146 0.0
C569 C 0.69521 0.48218 0.22593 0.0
C570 C 0.6947 0.44017 0.23638 0.0
C571 C 0.63505 0.41707 0.25365 0.0
H572 H 0.65411 0.36326 0.2081 0.0
C573 C 0.57054 0.34396 0.22104 0.0
C574 C 0.57848 0.32053 0.22059 0.0
C575 C 0.58622 0.36239 0.22645 0.0
C576 C 0.64875 0.37795 0.22136 0.0
H577 H 0.66071 0.49832 0.22249 0.0
H578 H 0.63892 0.46215 0.23099 0.0
H579 H 0.6794 0.39796 0.21027 0.0
H580 H 0.609 0.29796 0.22578 0.0
H581 H 0.63648 0.33026 0.23517 0.0
H582 H 0.60405 0.39735 0.26402 0.0
C583 C 0.65799 0.46156 0.23173 0.0
C584 C 0.66328 0.39784 0.22265 0.0
C585 C 0.67049 0.48229 0.22665 0.0
C586 C 0.60239 0.31587 0.22594 0.0
C587 C 0.61813 0.33435 0.23121 0.0
C588 C 0.62053 0.39722 0.25234 0.0
C589 C 0.6699 0.44016 0.2361 0.0
C590 C 0.65629 0.41785 0.23822 0.0
C591 C 0.61022 0.35782 0.23143 0.0
C592 C 0.62693 0.37768 0.23559 0.0
H593 H 0.72632 0.46045 0.23101 0.0
H594 H 0.70437 0.42398 0.23993 0.0
H595 H 0.62937 0.43204 0.26626 0.0
H596 H 0.55222 0.34811 0.21698 0.0
H597 H 0.57961 0.38029 0.22602 0.0
C598 C 0.53903 0.70176 0.26193 0.0
C599 C 0.53634 0.72212 0.24513 0.0
C600 C 0.56114 0.69114 0.2648 0.0
C601 C 0.61249 0.68276 0.22082 0.0
H602 H 0.63907 0.65111 0.28681 0.0
C603 C 0.69145 0.62102 0.20689 0.0
C604 C 0.69111 0.59999 0.22266 0.0
C605 C 0.67609 0.6394 0.21371 0.0
C606 C 0.63179 0.65968 0.26811 0.0
H607 H 0.55495 0.74852 0.22033 0.0
H608 H 0.59349 0.72986 0.2252 0.0
H609 H 0.60555 0.67772 0.29294 0.0
H610 H 0.675 0.58184 0.25841 0.0
H611 H 0.64734 0.61335 0.26951 0.0
H612 H 0.63734 0.66386 0.19558 0.0
C613 C 0.57849 0.72205 0.23596 0.0
C614 C 0.61271 0.67505 0.27171 0.0
C615 C 0.55645 0.73278 0.2333 0.0
C616 C 0.67566 0.59793 0.24596 0.0
C617 C 0.65991 0.61612 0.25243 0.0
C618 C 0.63124 0.66718 0.21714 0.0
C619 C 0.58086 0.70062 0.25074 0.0
C620 C 0.60274 0.68653 0.24802 0.0
C621 C 0.65958 0.63695 0.23602 0.0
C622 C 0.64101 0.65516 0.24066 0.0
H623 H 0.52385 0.69319 0.27135 0.0
H624 H 0.56243 0.67459 0.27624 0.0
H625 H 0.60487 0.69099 0.20207 0.0
H626 H 0.70343 0.62317 0.18904 0.0
H627 H 0.67688 0.65537 0.20108 0.0
C628 C 0.4312 0.66002 0.22539 0.0
C629 C 0.42437 0.68358 0.22923 0.0
C630 C 0.41548 0.64173 0.23117 0.0
C631 C 0.35289 0.62789 0.23322 0.0
H632 H 0.37445 0.57083 0.27063 0.0
C633 C 0.29479 0.54399 0.23953 0.0
C634 C 0.30662 0.52327 0.23154 0.0
C635 C 0.3075 0.56465 0.24526 0.0
C636 C 0.36814 0.58662 0.26011 0.0
H637 H 0.3958 0.70653 0.24231 0.0
H638 H 0.36807 0.67438 0.25205 0.0
H639 H 0.40008 0.60529 0.26906 0.0
H640 H 0.34098 0.50766 0.22426 0.0
H641 H 0.36297 0.54339 0.23393 0.0
H642 H 0.32137 0.60889 0.22314 0.0
C643 C 0.38566 0.67016 0.24466 0.0
C644 C 0.38282 0.60635 0.25925 0.0
C645 C 0.40153 0.68851 0.23919 0.0
C646 C 0.33134 0.52335 0.23037 0.0
C647 C 0.34398 0.54384 0.23615 0.0
C648 C 0.33823 0.60806 0.23392 0.0
C649 C 0.39249 0.64658 0.24067 0.0
C650 C 0.37562 0.62695 0.2451 0.0
C651 C 0.33225 0.56484 0.24328 0.0
C652 C 0.346 0.58698 0.24663 0.0
H653 H 0.44868 0.65569 0.21775 0.0
H654 H 0.42114 0.62376 0.2275 0.0
H655 H 0.34693 0.6435 0.22204 0.0
H656 H 0.27573 0.54442 0.24059 0.0
H657 H 0.29797 0.58051 0.2509 0.0
C658 C 0.30914 0.38335 0.20768 0.0
C659 C 0.3104 0.40402 0.22405 0.0
C660 C 0.32466 0.36471 0.21285 0.0
C661 C 0.37022 0.34235 0.26408 0.0
H662 H 0.39615 0.31424 0.19541 0.0
C663 C 0.46242 0.29945 0.25521 0.0
C664 C 0.46518 0.28047 0.23621 0.0
C665 C 0.44041 0.3102 0.25858 0.0
C666 C 0.38881 0.32153 0.21488 0.0
H667 H 0.3283 0.42117 0.25931 0.0
H668 H 0.35592 0.38911 0.2677 0.0
H669 H 0.36341 0.34144 0.19157 0.0
H670 H 0.44673 0.25649 0.20789 0.0
H671 H 0.40836 0.27515 0.21391 0.0
H672 H 0.39672 0.32315 0.28711 0.0
C673 C 0.34264 0.38691 0.2513 0.0
C674 C 0.36994 0.33716 0.2127 0.0
C675 C 0.32691 0.4054 0.24636 0.0
C676 C 0.44519 0.27121 0.22252 0.0
C677 C 0.42324 0.28197 0.22583 0.0
C678 C 0.38932 0.32684 0.26623 0.0
C679 C 0.34204 0.36649 0.23423 0.0
C680 C 0.36058 0.34807 0.2372 0.0
C681 C 0.42083 0.30217 0.24295 0.0
C682 C 0.39899 0.3165 0.24158 0.0
H683 H 0.29641 0.38171 0.19053 0.0
H684 H 0.3233 0.34907 0.19969 0.0
H685 H 0.36323 0.35011 0.28346 0.0
H686 H 0.47751 0.30695 0.26607 0.0
H687 H 0.43913 0.32578 0.27186 0.0
C688 C 0.08378 0.30939 0.2972 0.0
C689 C 0.0694 0.29893 0.27631 0.0
C690 C 0.09693 0.32951 0.29086 0.0
C691 C 0.12371 0.36012 0.22991 0.0
H692 H 0.1353 0.40933 0.28575 0.0
C693 C 0.18746 0.43544 0.2047 0.0
C694 C 0.20429 0.44016 0.22596 0.0
C695 C 0.1675 0.42204 0.21096 0.0
C696 C 0.13227 0.3957 0.26997 0.0
H697 H 0.0569 0.30175 0.23265 0.0
H698 H 0.07981 0.33708 0.22154 0.0
H699 H 0.10656 0.37844 0.29617 0.0
H700 H 0.21278 0.43576 0.27083 0.0
H701 H 0.17804 0.41202 0.28175 0.0
H702 H 0.14979 0.37687 0.20403 0.0
C703 C 0.08112 0.32953 0.24276 0.0
C704 C 0.11583 0.378 0.27593 0.0
C705 C 0.06794 0.30936 0.24913 0.0
C706 C 0.20007 0.43242 0.25403 0.0
C707 C 0.18012 0.41887 0.26028 0.0
C708 C 0.14012 0.37778 0.22397 0.0
C709 C 0.096 0.33966 0.26346 0.0
C710 C 0.11164 0.35979 0.25614 0.0
C711 C 0.16399 0.41292 0.23858 0.0
C712 C 0.14486 0.39559 0.24408 0.0
H713 H 0.08527 0.30176 0.31837 0.0
H714 H 0.10844 0.33663 0.30719 0.0
H715 H 0.12123 0.34617 0.2144 0.0
H716 H 0.19014 0.44138 0.18291 0.0
H717 H 0.15516 0.41821 0.19391 0.0
C718 C 0.6981 0.06947 0.25272 0.0
C719 C 0.70559 0.06917 0.28134 0.0
C720 C 0.6781 0.0823 0.24479 0.0
C721 C 0.62524 0.11316 0.27322 0.0
H722 H 0.63473 0.15402 0.20778 0.0
C723 C 0.56967 0.19697 0.25194 0.0
C724 C 0.56529 0.20324 0.22338 0.0
C725 C 0.58394 0.17755 0.25832 0.0
C726 C 0.63152 0.14245 0.22579 0.0
H727 H 0.69741 0.08102 0.32431 0.0
H728 H 0.66271 0.10349 0.31048 0.0
H729 H 0.66441 0.12486 0.21974 0.0
H730 H 0.57116 0.19337 0.17915 0.0
H731 H 0.59551 0.1593 0.19022 0.0
H732 H 0.59248 0.13121 0.27955 0.0
C733 C 0.6721 0.09373 0.29416 0.0
C734 C 0.64858 0.12569 0.23263 0.0
C735 C 0.6921 0.08098 0.30205 0.0
C736 C 0.57448 0.18913 0.20138 0.0
C737 C 0.58853 0.16966 0.20772 0.0
C738 C 0.60809 0.12994 0.26631 0.0
C739 C 0.66518 0.09499 0.26535 0.0
C740 C 0.64581 0.11105 0.25663 0.0
C741 C 0.59394 0.16397 0.23623 0.0
C742 C 0.61118 0.14498 0.2427 0.0
H743 H 0.70811 0.06045 0.23632 0.0
H744 H 0.67301 0.08268 0.22247 0.0
H745 H 0.62249 0.10197 0.29168 0.0
H746 H 0.56281 0.20757 0.26932 0.0
H747 H 0.5879 0.17378 0.28051 0.0
C748 C 0.80865 0.56398 0.24077 0.0
C749 C 0.79814 0.56633 0.21374 0.0
C750 C 0.82971 0.57578 0.24699 0.0
C751 C 0.87884 0.60997 0.21322 0.0
H752 H 0.87966 0.64255 0.28606 0.0
C753 C 0.92957 0.6964 0.2346 0.0
C754 C 0.94 0.69946 0.26158 0.0
C755 C 0.91647 0.6761 0.22864 0.0
C756 C 0.87995 0.63327 0.26582 0.0
H757 H 0.80188 0.58207 0.17168 0.0
H758 H 0.83799 0.60295 0.18263 0.0
H759 H 0.84892 0.61381 0.27635 0.0
H760 H 0.94604 0.68313 0.30291 0.0
H761 H 0.9231 0.64781 0.29251 0.0
H762 H 0.90927 0.63049 0.20229 0.0
C763 C 0.83042 0.59174 0.19897 0.0
C764 C 0.86234 0.6167 0.26027 0.0
C765 C 0.80953 0.5799 0.19275 0.0
C766 C 0.93811 0.68133 0.28195 0.0
C767 C 0.9249 0.66115 0.27607 0.0
C768 C 0.89633 0.62673 0.21869 0.0
C769 C 0.84058 0.59022 0.22632 0.0
C770 C 0.86123 0.60523 0.23365 0.0
C771 C 0.91347 0.65859 0.24962 0.0
C772 C 0.89677 0.63887 0.24484 0.0
H773 H 0.80031 0.55353 0.25731 0.0
H774 H 0.83723 0.57394 0.26816 0.0
H775 H 0.87882 0.60113 0.1927 0.0
H776 H 0.93074 0.71007 0.21849 0.0
H777 H 0.90772 0.67469 0.20813 0.0
C778 C 0.31213 0.9243 0.29701 0.0
C779 C 0.29719 0.93423 0.27632 0.0
C780 C 0.33278 0.91275 0.2889 0.0
C781 C 0.35671 0.88022 0.22792 0.0
H782 H 0.41309 0.8779 0.27472 0.0
C783 C 0.43192 0.81641 0.20125 0.0
C784 C 0.44024 0.80295 0.22437 0.0
C785 C 0.41797 0.83628 0.20598 0.0
C786 C 0.39744 0.87834 0.26147 0.0
H787 H 0.29277 0.94105 0.23103 0.0
H788 H 0.32909 0.92104 0.21679 0.0
H789 H 0.38239 0.90676 0.28544 0.0
H790 H 0.44141 0.80033 0.27059 0.0
H791 H 0.41675 0.83492 0.27891 0.0
H792 H 0.37135 0.85144 0.20446 0.0
C793 C 0.32462 0.92188 0.23929 0.0
C794 C 0.37987 0.89487 0.26758 0.0
C795 C 0.30391 0.93346 0.24743 0.0
C796 C 0.43524 0.81037 0.25237 0.0
C797 C 0.42121 0.83026 0.25711 0.0
C798 C 0.37427 0.86376 0.22179 0.0
C799 C 0.33898 0.91088 0.25989 0.0
C800 C 0.35908 0.89567 0.25123 0.0
C801 C 0.41196 0.84311 0.23394 0.0
C802 C 0.39463 0.86231 0.23882 0.0
H803 H 0.30745 0.92465 0.31947 0.0
H804 H 0.34323 0.90428 0.30532 0.0
H805 H 0.34078 0.88003 0.21518 0.0
H806 H 0.43566 0.81124 0.17942 0.0
H807 H 0.41146 0.84603 0.1877 0.0
C808 C 0.18673 0.55826 0.77779 0.0
C809 C 0.2061 0.55883 0.75909 0.0
C810 C 0.16634 0.57108 0.77156 0.0
C811 C 0.13524 0.60448 0.71468 0.0
H812 H 0.11682 0.64554 0.7771 0.0
C813 C 0.08927 0.69307 0.69608 0.0
C814 C 0.07253 0.70116 0.7159 0.0
C815 C 0.10171 0.67229 0.70107 0.0
C816 C 0.12133 0.63391 0.75958 0.0
H817 H 0.21875 0.57187 0.7183 0.0
H818 H 0.1832 0.59421 0.70739 0.0
H819 H 0.14503 0.61405 0.78569 0.0
H820 H 0.05523 0.69354 0.75617 0.0
H821 H 0.07692 0.65695 0.76487 0.0
H822 H 0.11198 0.62476 0.68838 0.0
C823 C 0.18368 0.58384 0.72684 0.0
C824 C 0.13752 0.61583 0.76451 0.0
C825 C 0.2041 0.57112 0.73313 0.0
C826 C 0.06813 0.68777 0.7406 0.0
C827 C 0.0806 0.66688 0.7456 0.0
C828 C 0.11896 0.62251 0.70977 0.0
C829 C 0.16489 0.58459 0.74643 0.0
C830 C 0.14512 0.60131 0.74195 0.0
C831 C 0.09767 0.659 0.72597 0.0
C832 C 0.11232 0.63785 0.73199 0.0
H833 H 0.18773 0.54886 0.79793 0.0
H834 H 0.15202 0.57107 0.78687 0.0
H835 H 0.14051 0.59335 0.69698 0.0
H836 H 0.09308 0.70301 0.67684 0.0
H837 H 0.11501 0.66701 0.68574 0.0
C838 C 0.42437 0.1968 0.73591 0.0
C839 C 0.44137 0.19743 0.75769 0.0
C840 C 0.41132 0.17633 0.73096 0.0
C841 C 0.39055 0.12415 0.77002 0.0
H842 H 0.36454 0.10771 0.69603 0.0
C843 C 0.30203 0.07645 0.75677 0.0
C844 C 0.29841 0.06188 0.73291 0.0
C845 C 0.32338 0.08833 0.76033 0.0
C846 C 0.37192 0.1117 0.71683 0.0
H847 H 0.45924 0.17671 0.79005 0.0
H848 H 0.43679 0.1408 0.78103 0.0
H849 H 0.3959 0.13684 0.69902 0.0
H850 H 0.31481 0.04703 0.69511 0.0
H851 H 0.35229 0.06742 0.70163 0.0
H852 H 0.36648 0.09911 0.78785 0.0
C853 C 0.43314 0.15626 0.7682 0.0
C854 C 0.38972 0.12865 0.71856 0.0
C855 C 0.44611 0.17678 0.77323 0.0
C856 C 0.31705 0.05827 0.71363 0.0
C857 C 0.33846 0.07009 0.71725 0.0
C858 C 0.37282 0.10712 0.76828 0.0
C859 C 0.41509 0.15601 0.74761 0.0
C860 C 0.39879 0.13556 0.74524 0.0
C861 C 0.34162 0.08581 0.74018 0.0
C862 C 0.36283 0.10117 0.74175 0.0
H863 H 0.4203 0.21247 0.72362 0.0
H864 H 0.39742 0.17689 0.71513 0.0
H865 H 0.39696 0.12914 0.79097 0.0
H866 H 0.28796 0.0796 0.77196 0.0
H867 H 0.32506 0.10047 0.77808 0.0
C868 C 0.94136 0.32283 0.71265 0.0
C869 C 0.93675 0.3036 0.73075 0.0
C870 C 0.92952 0.34421 0.71649 0.0
C871 C 0.89061 0.37708 0.76698 0.0
H872 H 0.86399 0.40307 0.69742 0.0
C873 C 0.81885 0.44802 0.77274 0.0
C874 C 0.79906 0.44315 0.75569 0.0
C875 C 0.84018 0.43636 0.76784 0.0
C876 C 0.87133 0.39609 0.71706 0.0
H877 H 0.91703 0.292 0.76788 0.0
H878 H 0.89614 0.329 0.77432 0.0
H879 H 0.89328 0.37186 0.69439 0.0
H880 H 0.78649 0.42352 0.71898 0.0
H881 H 0.82339 0.40294 0.71071 0.0
H882 H 0.86751 0.40013 0.7897 0.0
C883 C 0.9091 0.32782 0.75739 0.0
C884 C 0.88837 0.37837 0.71532 0.0
C885 C 0.92098 0.30651 0.7536 0.0
C886 C 0.80144 0.42765 0.73248 0.0
C887 C 0.82269 0.41592 0.72766 0.0
C888 C 0.87349 0.3947 0.76872 0.0
C889 C 0.91279 0.34676 0.73847 0.0
C890 C 0.89769 0.36814 0.74029 0.0
C891 C 0.8421 0.41953 0.74587 0.0
C892 C 0.8631 0.40392 0.74379 0.0
H893 H 0.95353 0.32112 0.69493 0.0
H894 H 0.93305 0.35855 0.70181 0.0
H895 H 0.89772 0.36989 0.78662 0.0
H896 H 0.81758 0.46002 0.79069 0.0
H897 H 0.85491 0.4399 0.78192 0.0
C898 C 0.68474 0.94285 0.73107 0.0
C899 C 0.70553 0.93687 0.74569 0.0
C900 C 0.66377 0.93072 0.73654 0.0
C901 C 0.63564 0.88776 0.7865 0.0
H902 H 0.60177 0.86815 0.71853 0.0
C903 C 0.56052 0.82022 0.79413 0.0
C904 C 0.56105 0.80218 0.77358 0.0
C905 C 0.57405 0.84057 0.79048 0.0
C906 C 0.61103 0.87343 0.73774 0.0
H907 H 0.72041 0.91436 0.7785 0.0
H908 H 0.68411 0.89295 0.78769 0.0
H909 H 0.63356 0.89671 0.71442 0.0
H910 H 0.57529 0.7917 0.7325 0.0
H911 H 0.59935 0.82686 0.72641 0.0
H912 H 0.61419 0.86338 0.80957 0.0
C913 C 0.68376 0.9072 0.7723 0.0
C914 C 0.62907 0.89009 0.73545 0.0
C915 C 0.70466 0.91941 0.76693 0.0
C916 C 0.57448 0.80535 0.74867 0.0
C917 C 0.58819 0.82561 0.74513 0.0
C918 C 0.61773 0.87098 0.78876 0.0
C919 C 0.66319 0.91228 0.75665 0.0
C920 C 0.64198 0.89705 0.75972 0.0
C921 C 0.5886 0.84323 0.76633 0.0
C922 C 0.60555 0.86319 0.76431 0.0
H923 H 0.68486 0.95633 0.71466 0.0
H924 H 0.64817 0.93538 0.72449 0.0
H925 H 0.64494 0.89298 0.8057 0.0
H926 H 0.55016 0.81833 0.81345 0.0
H927 H 0.57353 0.85398 0.80695 0.0
C928 C 0.03432 0.2248 0.40259 0.0
C929 C 0.01884 0.23493 0.38265 0.0
C930 C 0.02852 0.22431 0.43164 0.0
C931 C 0.99029 0.25316 0.48515 0.0
H932 H 0.00319 0.19721 0.53012 0.0
C933 C 0.95678 0.24235 0.60102 0.0
C934 C 0.9728 0.23297 0.62086 0.0
C935 C 0.96197 0.24214 0.57179 0.0
C936 C 0.99967 0.21304 0.51791 0.0
H937 H 0.98514 0.2524 0.37738 0.0
H938 H 0.97492 0.25134 0.42798 0.0
H939 H 0.01334 0.19786 0.47943 0.0
H940 H 0.00673 0.21585 0.62574 0.0
H941 H 0.01586 0.21562 0.5748 0.0
H942 H 0.97664 0.26834 0.52362 0.0
C943 C 0.99167 0.24407 0.42129 0.0
C944 C 0.00551 0.21342 0.48888 0.0
C945 C 0.99748 0.24456 0.39228 0.0
C946 C 0.994 0.22317 0.61093 0.0
C947 C 0.99917 0.22292 0.58173 0.0
C948 C 0.98443 0.25276 0.51416 0.0
C949 C 0.00713 0.23395 0.44132 0.0
C950 C 0.00092 0.2335 0.47218 0.0
C951 C 0.98327 0.23249 0.56184 0.0
C952 C 0.98909 0.23272 0.53088 0.0
H953 H 0.05093 0.21728 0.39576 0.0
H954 H 0.04093 0.21665 0.44658 0.0
H955 H 0.98684 0.26903 0.47299 0.0
H956 H 0.94027 0.24997 0.60806 0.0
H957 H 0.94923 0.24939 0.55696 0.0
C958 C 0.75861 0.95959 0.60791 0.0
C959 C 0.77544 0.96944 0.62639 0.0
C960 C 0.75897 0.96484 0.57871 0.0
C961 C 0.79702 0.98823 0.521 0.0
H962 H 0.73747 0.00207 0.48398 0.0
C963 C 0.79117 0.02996 0.40841 0.0
C964 C 0.77377 0.02117 0.3899 0.0
C965 C 0.79177 0.02293 0.43706 0.0
C966 C 0.75422 0.99798 0.4939 0.0
H967 H 0.80606 0.99221 0.6288 0.0
H968 H 0.80656 0.00155 0.57788 0.0
H969 H 0.73796 0.99067 0.5342 0.0
H970 H 0.74351 0.998 0.38675 0.0
H971 H 0.74466 0.9856 0.43666 0.0
H972 H 0.81327 0.99571 0.48067 0.0
C973 C 0.79325 0.98956 0.58585 0.0
C974 C 0.7545 0.99142 0.52268 0.0
C975 C 0.79289 0.9843 0.61505 0.0
C976 C 0.75707 0.00515 0.40054 0.0
C977 C 0.75766 0.99814 0.42917 0.0
C978 C 0.79673 0.99481 0.49219 0.0
C979 C 0.77616 0.98006 0.56739 0.0
C980 C 0.7759 0.98651 0.53659 0.0
C981 C 0.77497 0.00699 0.44778 0.0
C982 C 0.77533 0.9998 0.47833 0.0
H983 H 0.745 0.948 0.61604 0.0
H984 H 0.74576 0.95697 0.56499 0.0
H985 H 0.81376 0.98426 0.53099 0.0
H986 H 0.80425 0.04237 0.4008 0.0
H987 H 0.80517 0.03029 0.45093 0.0
C988 C 0.008 0.75274 0.60023 0.0
C989 C 0.02381 0.76894 0.61235 0.0
C990 C 0.00203 0.7542 0.57135 0.0
C991 C 0.00088 0.79496 0.5099 0.0
H992 H 0.99484 0.73712 0.46637 0.0
C993 C 0.98832 0.79191 0.38671 0.0
C994 C 0.97267 0.77485 0.37603 0.0
C995 C 0.99393 0.79248 0.41582 0.0
C996 C 0.99618 0.75342 0.47832 0.0
H997 H 0.04582 0.79935 0.6038 0.0
H998 H 0.03559 0.80173 0.55304 0.0
H999 H 0.0068 0.73537 0.5163 0.0
H1000 H 0.94991 0.74566 0.38752 0.0
H1001 H 0.95954 0.74678 0.43832 0.0
H1002 H 0.99036 0.81297 0.47166 0.0
C1003 C 0.0276 0.78808 0.56601 0.0
C1004 C 0.00306 0.75242 0.50693 0.0
C1005 C 0.03358 0.78663 0.595 0.0
C1006 C 0.96211 0.75894 0.39511 0.0
C1007 C 0.96775 0.75948 0.42416 0.0
C1008 C 0.99404 0.79596 0.48118 0.0
C1009 C 0.01177 0.77184 0.55388 0.0
C1010 C 0.00531 0.77315 0.52314 0.0
C1011 C 0.98405 0.77596 0.43474 0.0
C1012 C 0.99144 0.77517 0.46517 0.0
H1013 H 1.00007 0.73899 0.6131 0.0
H1014 H 0.98948 0.74165 0.56281 0.0
H1015 H 0.0022 0.81123 0.52189 0.0
H1016 H 0.99674 0.80439 0.37246 0.0
H1017 H 0.00664 0.8053 0.42331 0.0
C1018 C 0.22207 0.00544 0.61348 0.0
C1019 C 0.22955 0.0277 0.62294 0.0
C1020 C 0.22193 1.00003 0.58437 0.0
C1021 C 0.24887 0.01608 0.51592 0.0
H1022 H 0.19478 0.98405 0.48346 0.0
C1023 C 0.24046 0.99764 0.39468 0.0
C1024 C 0.23064 0.97593 0.38658 0.0
C1025 C 0.2402 0.00472 0.42331 0.0
C1026 C 0.21015 0.99272 0.49223 0.0
H1027 H 0.24285 0.06175 0.60944 0.0
H1028 H 0.24274 0.05219 0.55837 0.0
H1029 H 0.19455 0.99508 0.53381 0.0
H1030 H 0.21316 0.94445 0.40204 0.0
H1031 H 0.21319 0.95649 0.45204 0.0
H1032 H 0.2647 0.01335 0.47451 0.0
C1033 C 0.23703 0.03895 0.57356 0.0
C1034 C 0.20997 0.99911 0.52106 0.0
C1035 C 0.23698 0.04445 0.60272 0.0
C1036 C 0.22074 0.96135 0.40764 0.0
C1037 C 0.22062 0.96834 0.43627 0.0
C1038 C 0.24914 0.00955 0.48709 0.0
C1039 C 0.22943 0.0167 0.5641 0.0
C1040 C 0.22937 0.01073 0.53324 0.0
C1041 C 0.23024 0.99017 0.44446 0.0
C1042 C 0.22982 0.99766 0.47494 0.0
H1043 H 0.21628 0.99216 0.62857 0.0
H1044 H 0.21625 0.98265 0.57773 0.0
H1045 H 0.26418 0.0248 0.52483 0.0
H1046 H 0.24813 0.00929 0.37886 0.0
H1047 H 0.24749 0.02177 0.42879 0.0
C1048 C 0.54143 0.73253 0.9003 0.0
C1049 C 0.52307 0.72862 0.88074 0.0
C1050 C 0.53708 0.7318 0.92974 0.0
C1051 C 0.48864 0.73778 0.98185 0.0
H1052 H 0.53297 0.7093 0.03463 0.0
C1053 C 0.46734 0.72571 0.10157 0.0
C1054 C 0.48534 0.73139 0.12097 0.0
C1055 C 0.47206 0.72442 0.07227 0.0
C1056 C 0.52052 0.7175 0.02017 0.0
H1057 H 0.48593 0.72031 0.87656 0.0
H1058 H 0.47843 0.71872 0.9278 0.0
H1059 H 0.54119 0.70868 0.98337 0.0
H1060 H 0.52243 0.73994 0.12505 0.0
H1061 H 0.53064 0.73783 0.07392 0.0
H1062 H 0.46801 0.74668 0.01858 0.0
C1063 C 0.49608 0.72276 0.92049 0.0
C1064 C 0.52524 0.71716 0.99082 0.0
C1065 C 0.50042 0.72352 0.89113 0.0
C1066 C 0.5082 0.7355 0.11059 0.0
C1067 C 0.51294 0.73415 0.08132 0.0
C1068 C 0.48391 0.7381 0.01115 0.0
C1069 C 0.5143 0.72713 0.94015 0.0
C1070 C 0.50934 0.7273 0.97134 0.0
C1071 C 0.4949 0.72872 0.06182 0.0
C1072 C 0.4998 0.72799 0.03065 0.0
H1073 H 0.55906 0.73655 0.89288 0.0
H1074 H 0.55145 0.73545 0.94433 0.0
H1075 H 0.47623 0.74613 0.96746 0.0
H1076 H 0.44957 0.72238 0.10898 0.0
H1077 H 0.45786 0.71991 0.05781 0.0
C1078 C 0.263 0.54293 0.89683 0.0
C1079 C 0.27781 0.53038 0.87821 0.0
C1080 C 0.26315 0.53818 0.92616 0.0
C1081 C 0.29825 0.5097 0.98344 0.0
H1082 H 0.23815 0.50686 0.02274 0.0
C1083 C 0.28801 0.47038 0.0967 0.0
C1084 C 0.27333 0.48251 0.11588 0.0
C1085 C 0.28892 0.47693 0.0679 0.0
C1086 C 0.25509 0.50784 0.01216 0.0
H1087 H 0.3046 0.50323 0.87567 0.0
H1088 H 0.30463 0.49469 0.92678 0.0
H1089 H 0.23937 0.51735 0.97223 0.0
H1090 H 0.24811 0.511 0.12003 0.0
H1091 H 0.24973 0.52247 0.06975 0.0
H1092 H 0.31392 0.49989 0.02337 0.0
C1093 C 0.29315 0.50846 0.91885 0.0
C1094 C 0.25581 0.5139 0.98321 0.0
C1095 C 0.29307 0.51327 0.88953 0.0
C1096 C 0.25955 0.50128 0.10572 0.0
C1097 C 0.26039 0.50778 0.07691 0.0
C1098 C 0.29752 0.50357 0.01238 0.0
C1099 C 0.27804 0.52071 0.93748 0.0
C1100 C 0.27739 0.51485 0.96847 0.0
C1101 C 0.2751 0.49569 0.05768 0.0
C1102 C 0.27593 0.50251 0.02704 0.0
H1103 H 0.25112 0.55628 0.88871 0.0
H1104 H 0.25156 0.54821 0.93996 0.0
H1105 H 0.3152 0.51061 0.97286 0.0
H1106 H 0.29881 0.45581 0.10391 0.0
H1107 H 0.3002 0.46707 0.05355 0.0
C1108 C 0.50309 0.25172 0.1017 0.0
C1109 C 0.51735 0.26911 0.11419 0.0
C1110 C 0.49771 0.25257 0.07261 0.0
C1111 C 0.49483 0.29277 0.01077 0.0
H1112 H 0.4955 0.23455 0.96736 0.0
C1113 C 0.4859 0.28902 0.88726 0.0
C1114 C 0.47232 0.27057 0.87586 0.0
C1115 C 0.49079 0.28986 0.91655 0.0
C1116 C 0.49495 0.25092 0.97925 0.0
H1117 H 0.53715 0.3011 0.1061 0.0
H1118 H 0.5279 0.30249 0.05502 0.0
H1119 H 0.50588 0.23397 0.01786 0.0
H1120 H 0.45256 0.239 0.88622 0.0
H1121 H 0.46087 0.24061 0.93733 0.0
H1122 H 0.48392 0.30969 0.97199 0.0
C1123 C 0.5207 0.28832 0.06784 0.0
C1124 C 0.50093 0.25059 0.00818 0.0
C1125 C 0.52611 0.28745 0.09701 0.0
C1126 C 0.46316 0.25338 0.89437 0.0
C1127 C 0.46806 0.25421 0.92361 0.0
C1128 C 0.48885 0.2931 0.98175 0.0
C1129 C 0.50648 0.27084 0.05532 0.0
C1130 C 0.50079 0.27147 0.02433 0.0
C1131 C 0.48224 0.27224 0.93497 0.0
C1132 C 0.4887 0.27213 0.96573 0.0
H1133 H 0.49598 0.23743 0.11442 0.0
H1134 H 0.48642 0.23904 0.06372 0.0
H1135 H 0.49431 0.30911 0.02271 0.0
H1136 H 0.49322 0.3025 0.87347 0.0
H1137 H 0.5019 0.30388 0.92461 0.0
C1138 C 0.72079 0.49338 0.88356 0.0
C1139 C 0.73079 0.4724 0.87325 0.0
C1140 C 0.72012 0.498 0.91285 0.0
C1141 C 0.74905 0.48349 0.98058 0.0
H1142 H 0.69202 0.50885 0.01433 0.0
C1143 C 0.74039 0.49968 0.10213 0.0
C1144 C 0.72871 0.52032 0.11069 0.0
C1145 C 0.74014 0.49264 0.07349 0.0
C1146 C 0.70817 0.50203 0.0052 0.0
H1147 H 0.74801 0.43982 0.88545 0.0
H1148 H 0.74695 0.448 0.93685 0.0
H1149 H 0.69264 0.49873 0.96368 0.0
H1150 H 0.7077 0.54985 0.09608 0.0
H1151 H 0.70769 0.53792 0.04603 0.0
H1152 H 0.76478 0.48724 0.0219 0.0
C1153 C 0.73969 0.46086 0.92218 0.0
C1154 C 0.70849 0.49617 0.9762 0.0
C1155 C 0.7402 0.45614 0.89282 0.0
C1156 C 0.71676 0.53378 0.09011 0.0
C1157 C 0.71663 0.52685 0.06145 0.0
C1158 C 0.7488 0.4895 0.00957 0.0
C1159 C 0.72956 0.48181 0.93248 0.0
C1160 C 0.72898 0.48701 0.96354 0.0
C1161 C 0.72833 0.50619 0.05277 0.0
C1162 C 0.7284 0.49901 0.02219 0.0
H1163 H 0.71343 0.50627 0.86898 0.0
H1164 H 0.71249 0.51444 0.92013 0.0
H1165 H 0.76517 0.4767 0.97131 0.0
H1166 H 0.74965 0.48888 0.11758 0.0
H1167 H 0.74903 0.47646 0.06764 0.0
loop_
_geom_bond_atom_site_label_1
_geom_bond_atom_site_label_2
_geom_bond_distance
_geom_bond_site_symmetry_2
_ccdc_geom_bond_type
In0 O1 2.294 . S
In0 O2 2.326 . S
In0 O6 2.266 . S
In0 O7 2.326 . S
In0 O8 2.266 . S
In0 O9 2.326 . S
In0 O11 2.294 . S
In0 O12 2.326 . S
O1 In0 2.294 . S
O1 C10 1.240 . S
O2 In0 2.326 . S
O2 C10 1.252 . S
C3 O6 1.252 . S
C3 O7 1.260 . S
C4 O11 1.240 . S
C4 O12 1.252 . S
C5 O8 1.252 1_655 S
C5 O9 1.260 1_655 S
O6 In0 2.266 . S
O6 C3 1.252 . S
O7 In0 2.326 . S
O7 C3 1.260 . S
O8 In0 2.266 . S
O8 C5 1.252 1_455 S
O9 In0 2.326 . S
O9 C5 1.260 1_455 S
C10 O1 1.240 . S
C10 O2 1.252 . S
O11 In0 2.294 . S
O11 C4 1.240 . S
O12 In0 2.326 . S
O12 C4 1.252 . S
In13 O14 2.294 . S
In13 O15 2.326 . S
In13 O19 2.266 . S
In13 O20 2.326 . S
In13 O21 2.266 . S
In13 O22 2.326 . S
In13 O24 2.294 . S
In13 O25 2.326 . S
O14 In13 2.294 . S
O14 C23 1.240 . S
O15 In13 2.326 . S
O15 C23 1.252 . S
C16 O19 1.252 . S
C16 O20 1.260 . S
C17 O24 1.240 . S
C17 O25 1.252 . S
C18 O21 1.252 1_565 S
C18 O22 1.260 1_565 S
O19 In13 2.266 . S
O19 C16 1.252 . S
O20 In13 2.326 . S
O20 C16 1.260 . S
O21 In13 2.266 . S
O21 C18 1.252 1_545 S
O22 In13 2.326 . S
O22 C18 1.260 1_545 S
C23 O14 1.240 . S
C23 O15 1.252 . S
O24 In13 2.294 . S
O24 C17 1.240 . S
O25 In13 2.326 . S
O25 C17 1.252 . S
In26 O27 2.294 . S
In26 O28 2.326 . S
In26 O32 2.266 . S
In26 O33 2.326 . S
In26 O34 2.266 . S
In26 O35 2.326 . S
In26 O37 2.294 . S
In26 O38 2.326 . S
O27 In26 2.294 . S
O27 C36 1.240 . S
O28 In26 2.326 . S
O28 C36 1.252 . S
C29 O32 1.252 1_455 S
C29 O33 1.260 1_455 S
C30 O37 1.240 . S
C30 O38 1.252 . S
C31 O34 1.252 . S
C31 O35 1.260 . S
O32 In26 2.266 . S
O32 C29 1.252 1_655 S
O33 In26 2.326 . S
O33 C29 1.260 1_655 S
O34 In26 2.266 . S
O34 C31 1.252 . S
O35 In26 2.326 . S
O35 C31 1.260 . S
C36 O27 1.240 . S
C36 O28 1.252 . S
O37 In26 2.294 . S
O37 C30 1.240 . S
O38 In26 2.326 . S
O38 C30 1.252 . S
In39 O40 2.294 . S
In39 O41 2.326 . S
In39 O45 2.266 . S
In39 O46 2.326 . S
In39 O47 2.266 . S
In39 O48 2.326 . S
In39 O50 2.294 . S
In39 O51 2.326 . S
O40 In39 2.294 . S
O40 C49 1.240 . S
O41 In39 2.326 . S
O41 C49 1.252 . S
C42 O45 1.252 1_545 S
C42 O46 1.260 1_545 S
C43 O50 1.240 . S
C43 O51 1.252 . S
C44 O47 1.252 . S
C44 O48 1.260 . S
O45 In39 2.266 . S
O45 C42 1.252 1_565 S
O46 In39 2.326 . S
O46 C42 1.260 1_565 S
O47 In39 2.266 . S
O47 C44 1.252 . S
O48 In39 2.326 . S
O48 C44 1.260 . S
C49 O40 1.240 . S
C49 O41 1.252 . S
O50 In39 2.294 . S
O50 C43 1.240 . S
O51 In39 2.326 . S
O51 C43 1.252 . S
In52 O53 2.294 . S
In52 O54 2.326 . S
In52 O58 2.266 . S
In52 O59 2.326 . S
In52 O60 2.266 . S
In52 O61 2.326 . S
In52 O63 2.294 . S
In52 O64 2.326 . S
O53 In52 2.294 . S
O53 C62 1.240 . S
O54 In52 2.326 . S
O54 C62 1.252 . S
C55 O58 1.252 . S
C55 O59 1.260 . S
C56 O63 1.240 . S
C56 O64 1.252 . S
C57 O60 1.252 1_655 S
C57 O61 1.260 1_655 S
O58 In52 2.266 . S
O58 C55 1.252 . S
O59 In52 2.326 . S
O59 C55 1.260 . S
O60 In52 2.266 . S
O60 C57 1.252 1_455 S
O61 In52 2.326 . S
O61 C57 1.260 1_455 S
C62 O53 1.240 . S
C62 O54 1.252 . S
O63 In52 2.294 . S
O63 C56 1.240 . S
O64 In52 2.326 . S
O64 C56 1.252 . S
In65 O66 2.294 . S
In65 O67 2.326 . S
In65 O71 2.266 . S
In65 O72 2.326 . S
In65 O73 2.266 . S
In65 O74 2.326 . S
In65 O76 2.294 . S
In65 O77 2.326 . S
O66 In65 2.294 . S
O66 C75 1.240 . S
O67 In65 2.326 . S
O67 C75 1.252 . S
C68 O71 1.252 . S
C68 O72 1.260 . S
C69 O76 1.240 . S
C69 O77 1.252 . S
C70 O73 1.252 1_565 S
C70 O74 1.260 1_565 S
O71 In65 2.266 . S
O71 C68 1.252 . S
O72 In65 2.326 . S
O72 C68 1.260 . S
O73 In65 2.266 . S
O73 C70 1.252 1_545 S
O74 In65 2.326 . S
O74 C70 1.260 1_545 S
C75 O66 1.240 . S
C75 O67 1.252 . S
O76 In65 2.294 . S
O76 C69 1.240 . S
O77 In65 2.326 . S
O77 C69 1.252 . S
In78 O79 2.294 . S
In78 O80 2.326 . S
In78 O84 2.266 . S
In78 O85 2.326 . S
In78 O86 2.266 . S
In78 O87 2.326 . S
In78 O89 2.294 . S
In78 O90 2.326 . S
O79 In78 2.294 . S
O79 C88 1.240 . S
O80 In78 2.326 . S
O80 C88 1.252 . S
C81 O84 1.252 1_455 S
C81 O85 1.260 1_455 S
C82 O89 1.240 . S
C82 O90 1.252 . S
C83 O86 1.252 . S
C83 O87 1.260 . S
O84 In78 2.266 . S
O84 C81 1.252 1_655 S
O85 In78 2.326 . S
O85 C81 1.260 1_655 S
O86 In78 2.266 . S
O86 C83 1.252 . S
O87 In78 2.326 . S
O87 C83 1.260 . S
C88 O79 1.240 . S
C88 O80 1.252 . S
O89 In78 2.294 . S
O89 C82 1.240 . S
O90 In78 2.326 . S
O90 C82 1.252 . S
In91 O92 2.294 . S
In91 O93 2.326 . S
In91 O97 2.266 . S
In91 O98 2.326 . S
In91 O99 2.266 . S
In91 O100 2.326 . S
In91 O102 2.294 . S
In91 O103 2.326 . S
O92 In91 2.294 . S
O92 C101 1.240 . S
O93 In91 2.326 . S
O93 C101 1.252 . S
C94 O97 1.252 . S
C94 O98 1.260 . S
C95 O102 1.240 . S
C95 O103 1.252 . S
C96 O99 1.252 1_545 S
C96 O100 1.260 1_545 S
O97 In91 2.266 . S
O97 C94 1.252 . S
O98 In91 2.326 . S
O98 C94 1.260 . S
O99 In91 2.266 . S
O99 C96 1.252 1_565 S
O100 In91 2.326 . S
O100 C96 1.260 1_565 S
C101 O92 1.240 . S
C101 O93 1.252 . S
O102 In91 2.294 . S
O102 C95 1.240 . S
O103 In91 2.326 . S
O103 C95 1.252 . S
In104 O105 2.294 . S
In104 O106 2.326 . S
In104 O110 2.266 . S
In104 O111 2.326 . S
In104 O112 2.266 . S
In104 O113 2.326 . S
In104 O115 2.294 . S
In104 O116 2.326 . S
O105 In104 2.294 . S
O105 C114 1.240 . S
O106 In104 2.326 . S
O106 C114 1.252 . S
C107 O110 1.252 . S
C107 O111 1.260 . S
C108 O115 1.240 . S
C108 O116 1.252 . S
C109 O112 1.252 . S
C109 O113 1.260 . S
O110 In104 2.266 . S
O110 C107 1.252 . S
O111 In104 2.326 . S
O111 C107 1.260 . S
O112 In104 2.266 . S
O112 C109 1.252 . S
O113 In104 2.326 . S
O113 C109 1.260 . S
C114 O105 1.240 . S
C114 O106 1.252 . S
O115 In104 2.294 . S
O115 C108 1.240 . S
O116 In104 2.326 . S
O116 C108 1.252 . S
In117 O118 2.294 . S
In117 O119 2.326 . S
In117 O123 2.266 . S
In117 O124 2.326 . S
In117 O125 2.266 . S
In117 O126 2.326 . S
In117 O128 2.294 . S
In117 O129 2.326 . S
O118 In117 2.294 . S
O118 C127 1.240 . S
O119 In117 2.326 . S
O119 C127 1.252 . S
C120 O123 1.252 . S
C120 O124 1.260 . S
C121 O128 1.240 . S
C121 O129 1.252 . S
C122 O125 1.252 . S
C122 O126 1.260 . S
O123 In117 2.266 . S
O123 C120 1.252 . S
O124 In117 2.326 . S
O124 C120 1.260 . S
O125 In117 2.266 . S
O125 C122 1.252 . S
O126 In117 2.326 . S
O126 C122 1.260 . S
C127 O118 1.240 . S
C127 O119 1.252 . S
O128 In117 2.294 . S
O128 C121 1.240 . S
O129 In117 2.326 . S
O129 C121 1.252 . S
In130 O131 2.294 . S
In130 O132 2.326 . S
In130 O136 2.266 . S
In130 O137 2.326 . S
In130 O138 2.266 . S
In130 O139 2.326 . S
In130 O141 2.294 . S
In130 O142 2.326 . S
O131 In130 2.294 . S
O131 C140 1.240 . S
O132 In130 2.326 . S
O132 C140 1.252 . S
C133 O136 1.252 . S
C133 O137 1.260 . S
C134 O141 1.240 . S
C134 O142 1.252 . S
C135 O138 1.252 . S
C135 O139 1.260 . S
O136 In130 2.266 . S
O136 C133 1.252 . S
O137 In130 2.326 . S
O137 C133 1.260 . S
O138 In130 2.266 . S
O138 C135 1.252 . S
O139 In130 2.326 . S
O139 C135 1.260 . S
C140 O131 1.240 . S
C140 O132 1.252 . S
O141 In130 2.294 . S
O141 C134 1.240 . S
O142 In130 2.326 . S
O142 C134 1.252 . S
In143 O144 2.294 . S
In143 O145 2.326 . S
In143 O149 2.266 . S
In143 O150 2.326 . S
In143 O151 2.266 . S
In143 O152 2.326 . S
In143 O154 2.294 . S
In143 O155 2.326 . S
O144 In143 2.294 . S
O144 C153 1.240 . S
O145 In143 2.326 . S
O145 C153 1.252 . S
C146 O149 1.252 . S
C146 O150 1.260 . S
C147 O154 1.240 . S
C147 O155 1.252 . S
C148 O151 1.252 . S
C148 O152 1.260 . S
O149 In143 2.266 . S
O149 C146 1.252 . S
O150 In143 2.326 . S
O150 C146 1.260 . S
O151 In143 2.266 . S
O151 C148 1.252 . S
O152 In143 2.326 . S
O152 C148 1.260 . S
C153 O144 1.240 . S
C153 O145 1.252 . S
O154 In143 2.294 . S
O154 C147 1.240 . S
O155 In143 2.326 . S
O155 C147 1.252 . S
In156 O157 2.294 . S
In156 O158 2.326 . S
In156 O162 2.266 . S
In156 O163 2.326 . S
In156 O164 2.266 . S
In156 O165 2.326 . S
In156 O167 2.294 . S
In156 O168 2.326 . S
O157 In156 2.294 . S
O157 C166 1.240 . S
O158 In156 2.326 . S
O158 C166 1.252 . S
C159 O162 1.252 . S
C159 O163 1.260 . S
C160 O167 1.240 . S
C160 O168 1.252 . S
C161 O164 1.252 . S
C161 O165 1.260 . S
O162 In156 2.266 . S
O162 C159 1.252 . S
O163 In156 2.326 . S
O163 C159 1.260 . S
O164 In156 2.266 . S
O164 C161 1.252 . S
O165 In156 2.326 . S
O165 C161 1.260 . S
C166 O157 1.240 . S
C166 O158 1.252 . S
O167 In156 2.294 . S
O167 C160 1.240 . S
O168 In156 2.326 . S
O168 C160 1.252 . S
In169 O170 2.294 . S
In169 O171 2.326 . S
In169 O175 2.266 . S
In169 O176 2.326 . S
In169 O177 2.266 . S
In169 O178 2.326 . S
In169 O180 2.294 . S
In169 O181 2.326 . S
O170 In169 2.294 . S
O170 C179 1.240 . S
O171 In169 2.326 . S
O171 C179 1.252 . S
C172 O175 1.252 . S
C172 O176 1.260 . S
C173 O180 1.240 . S
C173 O181 1.252 . S
C174 O177 1.252 . S
C174 O178 1.260 . S
O175 In169 2.266 . S
O175 C172 1.252 . S
O176 In169 2.326 . S
O176 C172 1.260 . S
O177 In169 2.266 . S
O177 C174 1.252 . S
O178 In169 2.326 . S
O178 C174 1.260 . S
C179 O170 1.240 . S
C179 O171 1.252 . S
O180 In169 2.294 . S
O180 C173 1.240 . S
O181 In169 2.326 . S
O181 C173 1.252 . S
In182 O183 2.294 . S
In182 O184 2.326 . S
In182 O188 2.266 . S
In182 O189 2.326 . S
In182 O190 2.266 . S
In182 O191 2.326 . S
In182 O193 2.294 . S
In182 O194 2.326 . S
O183 In182 2.294 . S
O183 C192 1.240 . S
O184 In182 2.326 . S
O184 C192 1.252 . S
C185 O188 1.252 . S
C185 O189 1.260 . S
C186 O193 1.240 . S
C186 O194 1.252 . S
C187 O190 1.252 . S
C187 O191 1.260 . S
O188 In182 2.266 . S
O188 C185 1.252 . S
O189 In182 2.326 . S
O189 C185 1.260 . S
O190 In182 2.266 . S
O190 C187 1.252 . S
O191 In182 2.326 . S
O191 C187 1.260 . S
C192 O183 1.240 . S
C192 O184 1.252 . S
O193 In182 2.294 . S
O193 C186 1.240 . S
O194 In182 2.326 . S
O194 C186 1.252 . S
In195 O196 2.294 . S
In195 O197 2.326 . S
In195 O201 2.266 . S
In195 O202 2.326 . S
In195 O203 2.266 . S
In195 O204 2.326 . S
In195 O206 2.294 . S
In195 O207 2.326 . S
O196 In195 2.294 . S
O196 C205 1.240 . S
O197 In195 2.326 . S
O197 C205 1.252 . S
C198 O201 1.252 . S
C198 O202 1.260 . S
C199 O206 1.240 . S
C199 O207 1.252 . S
C200 O203 1.252 . S
C200 O204 1.260 . S
O201 In195 2.266 . S
O201 C198 1.252 . S
O202 In195 2.326 . S
O202 C198 1.260 . S
O203 In195 2.266 . S
O203 C200 1.252 . S
O204 In195 2.326 . S
O204 C200 1.260 . S
C205 O196 1.240 . S
C205 O197 1.252 . S
O206 In195 2.294 . S
O206 C199 1.240 . S
O207 In195 2.326 . S
O207 C199 1.252 . S
C208 C209 1.349 . S
C208 C210 1.327 . S
C208 H233 0.950 . S
C209 C208 1.349 . S
C209 C225 1.349 . S
C210 C208 1.327 . S
C210 C229 1.429 . S
C210 H234 0.950 . S
C211 C228 1.574 . S
C211 C230 1.368 . S
C211 H235 0.949 . S
H212 C216 0.949 . S
C213 C214 1.349 . S
C213 C215 1.327 . S
C213 H236 0.950 . S
C214 C213 1.349 . S
C214 C226 1.349 . S
C215 C213 1.327 . S
C215 C231 1.429 . S
C215 H237 0.950 . S
C216 H212 0.949 . S
C216 C224 1.574 . S
C216 C232 1.368 . S
H217 C225 0.950 . S
H218 C223 0.950 . S
H219 C224 0.949 . S
H220 C226 0.950 . S
H221 C227 0.950 . S
H222 C228 0.949 . S
C223 H218 0.950 . S
C223 C225 1.327 . S
C223 C229 1.429 . S
C224 C216 1.574 . S
C224 H219 0.949 . S
C224 C230 1.368 . S
C225 C209 1.349 . S
C225 H217 0.950 . S
C225 C223 1.327 . S
C226 C214 1.349 . S
C226 H220 0.950 . S
C226 C227 1.327 . S
C227 H221 0.950 . S
C227 C226 1.327 . S
C227 C231 1.429 . S
C228 C211 1.574 . S
C228 H222 0.949 . S
C228 C232 1.368 . S
C229 C210 1.429 . S
C229 C223 1.429 . S
C229 C230 1.523 . S
C230 C211 1.368 . S
C230 C224 1.368 . S
C230 C229 1.523 . S
C231 C215 1.429 . S
C231 C227 1.429 . S
C231 C232 1.523 . S
C232 C216 1.368 . S
C232 C228 1.368 . S
C232 C231 1.523 . S
H233 C208 0.950 . S
H234 C210 0.950 . S
H235 C211 0.949 . S
H236 C213 0.950 . S
H237 C215 0.950 . S
C238 C239 1.349 . S
C238 C240 1.327 . S
C238 H263 0.950 . S
C239 C238 1.349 . S
C239 C255 1.349 . S
C240 C238 1.327 . S
C240 C259 1.429 . S
C240 H264 0.950 . S
C241 C258 1.574 . S
C241 C260 1.368 . S
C241 H265 0.949 . S
H242 C246 0.949 . S
C243 C244 1.349 . S
C243 C245 1.327 . S
C243 H266 0.950 . S
C244 C243 1.349 . S
C244 C256 1.349 . S
C245 C243 1.327 . S
C245 C261 1.429 . S
C245 H267 0.950 . S
C246 H242 0.949 . S
C246 C254 1.574 . S
C246 C262 1.368 . S
H247 C255 0.950 . S
H248 C253 0.950 . S
H249 C254 0.949 . S
H250 C256 0.950 . S
H251 C257 0.950 . S
H252 C258 0.949 . S
C253 H248 0.950 . S
C253 C255 1.327 . S
C253 C259 1.429 . S
C254 C246 1.574 . S
C254 H249 0.949 . S
C254 C260 1.368 . S
C255 C239 1.349 . S
C255 H247 0.950 . S
C255 C253 1.327 . S
C256 C244 1.349 . S
C256 H250 0.950 . S
C256 C257 1.327 . S
C257 H251 0.950 . S
C257 C256 1.327 . S
C257 C261 1.429 . S
C258 C241 1.574 . S
C258 H252 0.949 . S
C258 C262 1.368 . S
C259 C240 1.429 . S
C259 C253 1.429 . S
C259 C260 1.523 . S
C260 C241 1.368 . S
C260 C254 1.368 . S
C260 C259 1.523 . S
C261 C245 1.429 . S
C261 C257 1.429 . S
C261 C262 1.523 . S
C262 C246 1.368 . S
C262 C258 1.368 . S
C262 C261 1.523 . S
H263 C238 0.950 . S
H264 C240 0.950 . S
H265 C241 0.949 . S
H266 C243 0.950 . S
H267 C245 0.950 . S
C268 C269 1.349 . S
C268 C270 1.327 . S
C268 H293 0.950 . S
C269 C268 1.349 . S
C269 C285 1.349 . S
C270 C268 1.327 . S
C270 C289 1.429 . S
C270 H294 0.950 . S
C271 C288 1.574 . S
C271 C290 1.368 . S
C271 H295 0.949 . S
H272 C276 0.949 . S
C273 C274 1.349 . S
C273 C275 1.327 . S
C273 H296 0.950 . S
C274 C273 1.349 . S
C274 C286 1.349 . S
C275 C273 1.327 . S
C275 C291 1.429 . S
C275 H297 0.950 . S
C276 H272 0.949 . S
C276 C284 1.574 . S
C276 C292 1.368 . S
H277 C285 0.950 . S
H278 C283 0.950 . S
H279 C284 0.949 . S
H280 C286 0.950 . S
H281 C287 0.950 . S
H282 C288 0.949 . S
C283 H278 0.950 . S
C283 C285 1.327 . S
C283 C289 1.429 . S
C284 C276 1.574 . S
C284 H279 0.949 . S
C284 C290 1.368 . S
C285 C269 1.349 . S
C285 H277 0.950 . S
C285 C283 1.327 . S
C286 C274 1.349 . S
C286 H280 0.950 . S
C286 C287 1.327 . S
C287 H281 0.950 . S
C287 C286 1.327 . S
C287 C291 1.429 . S
C288 C271 1.574 . S
C288 H282 0.949 . S
C288 C292 1.368 . S
C289 C270 1.429 . S
C289 C283 1.429 . S
C289 C290 1.523 . S
C290 C271 1.368 . S
C290 C284 1.368 . S
C290 C289 1.523 . S
C291 C275 1.429 . S
C291 C287 1.429 . S
C291 C292 1.523 . S
C292 C276 1.368 . S
C292 C288 1.368 . S
C292 C291 1.523 . S
H293 C268 0.950 . S
H294 C270 0.950 . S
H295 C271 0.949 . S
H296 C273 0.950 . S
H297 C275 0.950 . S
C298 C299 1.349 . S
C298 C300 1.327 . S
C298 H323 0.950 . S
C299 C298 1.349 . S
C299 C315 1.349 . S
C300 C298 1.327 . S
C300 C319 1.429 . S
C300 H324 0.950 . S
C301 C318 1.574 . S
C301 C320 1.368 . S
C301 H325 0.949 . S
H302 C306 0.949 . S
C303 C304 1.349 . S
C303 C305 1.327 . S
C303 H326 0.950 . S
C304 C303 1.349 . S
C304 C316 1.349 . S
C305 C303 1.327 . S
C305 C321 1.429 . S
C305 H327 0.950 . S
C306 H302 0.949 . S
C306 C314 1.574 . S
C306 C322 1.368 . S
H307 C315 0.950 . S
H308 C313 0.950 . S
H309 C314 0.949 . S
H310 C316 0.950 . S
H311 C317 0.950 . S
H312 C318 0.949 . S
C313 H308 0.950 . S
C313 C315 1.327 . S
C313 C319 1.429 . S
C314 C306 1.574 . S
C314 H309 0.949 . S
C314 C320 1.368 . S
C315 C299 1.349 . S
C315 H307 0.950 . S
C315 C313 1.327 . S
C316 C304 1.349 . S
C316 H310 0.950 . S
C316 C317 1.327 . S
C317 H311 0.950 . S
C317 C316 1.327 . S
C317 C321 1.429 . S
C318 C301 1.574 . S
C318 H312 0.949 . S
C318 C322 1.368 . S
C319 C300 1.429 . S
C319 C313 1.429 . S
C319 C320 1.523 . S
C320 C301 1.368 . S
C320 C314 1.368 . S
C320 C319 1.523 . S
C321 C305 1.429 . S
C321 C317 1.429 . S
C321 C322 1.523 . S
C322 C306 1.368 . S
C322 C318 1.368 . S
C322 C321 1.523 . S
H323 C298 0.950 . S
H324 C300 0.950 . S
H325 C301 0.949 . S
H326 C303 0.950 . S
H327 C305 0.950 . S
C328 C329 1.349 . S
C328 C330 1.327 . S
C328 H353 0.950 . S
C329 C328 1.349 . S
C329 C345 1.349 . S
C330 C328 1.327 . S
C330 C349 1.429 . S
C330 H354 0.950 . S
C331 C348 1.574 . S
C331 C350 1.368 . S
C331 H355 0.949 . S
H332 C336 0.949 . S
C333 C334 1.349 . S
C333 C335 1.327 . S
C333 H356 0.950 . S
C334 C333 1.349 . S
C334 C346 1.349 . S
C335 C333 1.327 . S
C335 C351 1.429 . S
C335 H357 0.950 . S
C336 H332 0.949 . S
C336 C344 1.574 . S
C336 C352 1.368 . S
H337 C345 0.950 . S
H338 C343 0.950 . S
H339 C344 0.949 . S
H340 C346 0.950 . S
H341 C347 0.950 . S
H342 C348 0.949 . S
C343 H338 0.950 . S
C343 C345 1.327 . S
C343 C349 1.429 . S
C344 C336 1.574 . S
C344 H339 0.949 . S
C344 C350 1.368 . S
C345 C329 1.349 . S
C345 H337 0.950 . S
C345 C343 1.327 . S
C346 C334 1.349 . S
C346 H340 0.950 . S
C346 C347 1.327 . S
C347 H341 0.950 . S
C347 C346 1.327 . S
C347 C351 1.429 . S
C348 C331 1.574 . S
C348 H342 0.949 . S
C348 C352 1.368 . S
C349 C330 1.429 . S
C349 C343 1.429 . S
C349 C350 1.523 . S
C350 C331 1.368 . S
C350 C344 1.368 . S
C350 C349 1.523 . S
C351 C335 1.429 . S
C351 C347 1.429 . S
C351 C352 1.523 . S
C352 C336 1.368 . S
C352 C348 1.368 . S
C352 C351 1.523 . S
H353 C328 0.950 . S
H354 C330 0.950 . S
H355 C331 0.949 . S
H356 C333 0.950 . S
H357 C335 0.950 . S
C358 C359 1.349 . S
C358 C360 1.327 . S
C358 H383 0.950 . S
C359 C358 1.349 . S
C359 C375 1.349 . S
C360 C358 1.327 . S
C360 C379 1.429 . S
C360 H384 0.950 . S
C361 C378 1.574 . S
C361 C380 1.368 . S
C361 H385 0.949 . S
H362 C366 0.949 . S
C363 C364 1.349 . S
C363 C365 1.327 . S
C363 H386 0.950 . S
C364 C363 1.349 . S
C364 C376 1.349 . S
C365 C363 1.327 . S
C365 C381 1.429 . S
C365 H387 0.950 . S
C366 H362 0.949 . S
C366 C374 1.574 . S
C366 C382 1.368 . S
H367 C375 0.950 . S
H368 C373 0.950 . S
H369 C374 0.949 . S
H370 C376 0.950 . S
H371 C377 0.950 . S
H372 C378 0.949 . S
C373 H368 0.950 . S
C373 C375 1.327 . S
C373 C379 1.429 . S
C374 C366 1.574 . S
C374 H369 0.949 . S
C374 C380 1.368 . S
C375 C359 1.349 . S
C375 H367 0.950 . S
C375 C373 1.327 . S
C376 C364 1.349 . S
C376 H370 0.950 . S
C376 C377 1.327 . S
C377 H371 0.950 . S
C377 C376 1.327 . S
C377 C381 1.429 . S
C378 C361 1.574 . S
C378 H372 0.949 . S
C378 C382 1.368 . S
C379 C360 1.429 . S
C379 C373 1.429 . S
C379 C380 1.523 . S
C380 C361 1.368 . S
C380 C374 1.368 . S
C380 C379 1.523 . S
C381 C365 1.429 . S
C381 C377 1.429 . S
C381 C382 1.523 . S
C382 C366 1.368 . S
C382 C378 1.368 . S
C382 C381 1.523 . S
H383 C358 0.950 . S
H384 C360 0.950 . S
H385 C361 0.949 . S
H386 C363 0.950 . S
H387 C365 0.950 . S
C388 C389 1.349 . S
C388 C390 1.327 . S
C388 H413 0.950 . S
C389 C388 1.349 . S
C389 C405 1.349 . S
C390 C388 1.327 . S
C390 C409 1.429 . S
C390 H414 0.950 . S
C391 C408 1.574 . S
C391 C410 1.368 . S
C391 H415 0.949 . S
H392 C396 0.949 . S
C393 C394 1.349 . S
C393 C395 1.327 . S
C393 H416 0.950 . S
C394 C393 1.349 . S
C394 C406 1.349 . S
C395 C393 1.327 . S
C395 C411 1.429 . S
C395 H417 0.950 . S
C396 H392 0.949 . S
C396 C404 1.574 . S
C396 C412 1.368 . S
H397 C405 0.950 . S
H398 C403 0.950 . S
H399 C404 0.949 . S
H400 C406 0.950 . S
H401 C407 0.950 . S
H402 C408 0.949 . S
C403 H398 0.950 . S
C403 C405 1.327 . S
C403 C409 1.429 . S
C404 C396 1.574 . S
C404 H399 0.949 . S
C404 C410 1.368 . S
C405 C389 1.349 . S
C405 H397 0.950 . S
C405 C403 1.327 . S
C406 C394 1.349 . S
C406 H400 0.950 . S
C406 C407 1.327 . S
C407 H401 0.950 . S
C407 C406 1.327 . S
C407 C411 1.429 . S
C408 C391 1.574 . S
C408 H402 0.949 . S
C408 C412 1.368 . S
C409 C390 1.429 . S
C409 C403 1.429 . S
C409 C410 1.523 . S
C410 C391 1.368 . S
C410 C404 1.368 . S
C410 C409 1.523 . S
C411 C395 1.429 . S
C411 C407 1.429 . S
C411 C412 1.523 . S
C412 C396 1.368 . S
C412 C408 1.368 . S
C412 C411 1.523 . S
H413 C388 0.950 . S
H414 C390 0.950 . S
H415 C391 0.949 . S
H416 C393 0.950 . S
H417 C395 0.950 . S
C418 C419 1.349 . S
C418 C420 1.327 . S
C418 H443 0.950 . S
C419 C418 1.349 . S
C419 C435 1.349 . S
C420 C418 1.327 . S
C420 C439 1.429 . S
C420 H444 0.950 . S
C421 C438 1.574 . S
C421 C440 1.368 . S
C421 H445 0.949 . S
H422 C426 0.949 . S
C423 C424 1.349 . S
C423 C425 1.327 . S
C423 H446 0.950 . S
C424 C423 1.349 . S
C424 C436 1.349 . S
C425 C423 1.327 . S
C425 C441 1.429 . S
C425 H447 0.950 . S
C426 H422 0.949 . S
C426 C434 1.574 . S
C426 C442 1.368 . S
H427 C435 0.950 . S
H428 C433 0.950 . S
H429 C434 0.949 . S
H430 C436 0.950 . S
H431 C437 0.950 . S
H432 C438 0.949 . S
C433 H428 0.950 . S
C433 C435 1.327 . S
C433 C439 1.429 . S
C434 C426 1.574 . S
C434 H429 0.949 . S
C434 C440 1.368 . S
C435 C419 1.349 . S
C435 H427 0.950 . S
C435 C433 1.327 . S
C436 C424 1.349 . S
C436 H430 0.950 . S
C436 C437 1.327 . S
C437 H431 0.950 . S
C437 C436 1.327 . S
C437 C441 1.429 . S
C438 C421 1.574 . S
C438 H432 0.949 . S
C438 C442 1.368 . S
C439 C420 1.429 . S
C439 C433 1.429 . S
C439 C440 1.523 . S
C440 C421 1.368 . S
C440 C434 1.368 . S
C440 C439 1.523 . S
C441 C425 1.429 . S
C441 C437 1.429 . S
C441 C442 1.523 . S
C442 C426 1.368 . S
C442 C438 1.368 . S
C442 C441 1.523 . S
H443 C418 0.950 . S
H444 C420 0.950 . S
H445 C421 0.949 . S
H446 C423 0.950 . S
H447 C425 0.950 . S
C448 C449 1.349 . S
C448 C450 1.327 . S
C448 H473 0.950 . S
C449 C448 1.349 . S
C449 C465 1.349 . S
C450 C448 1.327 . S
C450 C469 1.429 . S
C450 H474 0.950 . S
C451 C468 1.574 . S
C451 C470 1.368 . S
C451 H475 0.949 . S
H452 C456 0.949 . S
C453 C454 1.349 . S
C453 C455 1.327 . S
C453 H476 0.950 . S
C454 C453 1.349 . S
C454 C466 1.349 . S
C455 C453 1.327 . S
C455 C471 1.429 . S
C455 H477 0.950 . S
C456 H452 0.949 . S
C456 C464 1.574 . S
C456 C472 1.368 . S
H457 C465 0.950 . S
H458 C463 0.950 . S
H459 C464 0.949 . S
H460 C466 0.950 . S
H461 C467 0.950 . S
H462 C468 0.949 . S
C463 H458 0.950 . S
C463 C465 1.327 . S
C463 C469 1.429 . S
C464 C456 1.574 . S
C464 H459 0.949 . S
C464 C470 1.368 . S
C465 C449 1.349 . S
C465 H457 0.950 . S
C465 C463 1.327 . S
C466 C454 1.349 . S
C466 H460 0.950 . S
C466 C467 1.327 . S
C467 H461 0.950 . S
C467 C466 1.327 . S
C467 C471 1.429 . S
C468 C451 1.574 . S
C468 H462 0.949 . S
C468 C472 1.368 . S
C469 C450 1.429 . S
C469 C463 1.429 . S
C469 C470 1.523 . S
C470 C451 1.368 . S
C470 C464 1.368 . S
C470 C469 1.523 . S
C471 C455 1.429 . S
C471 C467 1.429 . S
C471 C472 1.523 . S
C472 C456 1.368 . S
C472 C468 1.368 . S
C472 C471 1.523 . S
H473 C448 0.950 . S
H474 C450 0.950 . S
H475 C451 0.949 . S
H476 C453 0.950 . S
H477 C455 0.950 . S
C478 C479 1.349 . S
C478 C480 1.327 . S
C478 H503 0.950 . S
C479 C478 1.349 . S
C479 C495 1.349 . S
C480 C478 1.327 . S
C480 C499 1.429 . S
C480 H504 0.950 . S
C481 C498 1.574 . S
C481 C500 1.368 . S
C481 H505 0.949 . S
H482 C486 0.949 . S
C483 C484 1.349 . S
C483 C485 1.327 . S
C483 H506 0.950 . S
C484 C483 1.349 . S
C484 C496 1.349 . S
C485 C483 1.327 . S
C485 C501 1.429 . S
C485 H507 0.950 . S
C486 H482 0.949 . S
C486 C494 1.574 . S
C486 C502 1.368 . S
H487 C495 0.950 . S
H488 C493 0.950 . S
H489 C494 0.949 . S
H490 C496 0.950 . S
H491 C497 0.950 . S
H492 C498 0.949 . S
C493 H488 0.950 . S
C493 C495 1.327 . S
C493 C499 1.429 . S
C494 C486 1.574 . S
C494 H489 0.949 . S
C494 C500 1.368 . S
C495 C479 1.349 . S
C495 H487 0.950 . S
C495 C493 1.327 . S
C496 C484 1.349 . S
C496 H490 0.950 . S
C496 C497 1.327 . S
C497 H491 0.950 . S
C497 C496 1.327 . S
C497 C501 1.429 . S
C498 C481 1.574 . S
C498 H492 0.949 . S
C498 C502 1.368 . S
C499 C480 1.429 . S
C499 C493 1.429 . S
C499 C500 1.523 . S
C500 C481 1.368 . S
C500 C494 1.368 . S
C500 C499 1.523 . S
C501 C485 1.429 . S
C501 C497 1.429 . S
C501 C502 1.523 . S
C502 C486 1.368 . S
C502 C498 1.368 . S
C502 C501 1.523 . S
H503 C478 0.950 . S
H504 C480 0.950 . S
H505 C481 0.949 . S
H506 C483 0.950 . S
H507 C485 0.950 . S
C508 C509 1.349 . S
C508 C510 1.327 . S
C508 H533 0.950 . S
C509 C508 1.349 . S
C509 C525 1.349 . S
C510 C508 1.327 . S
C510 C529 1.429 . S
C510 H534 0.950 . S
C511 C528 1.574 . S
C511 C530 1.368 . S
C511 H535 0.949 . S
H512 C516 0.949 . S
C513 C514 1.349 . S
C513 C515 1.327 . S
C513 H536 0.950 . S
C514 C513 1.349 . S
C514 C526 1.349 . S
C515 C513 1.327 . S
C515 C531 1.429 . S
C515 H537 0.950 . S
C516 H512 0.949 . S
C516 C524 1.574 . S
C516 C532 1.368 . S
H517 C525 0.950 . S
H518 C523 0.950 . S
H519 C524 0.949 . S
H520 C526 0.950 . S
H521 C527 0.950 . S
H522 C528 0.949 . S
C523 H518 0.950 . S
C523 C525 1.327 . S
C523 C529 1.429 . S
C524 C516 1.574 . S
C524 H519 0.949 . S
C524 C530 1.368 . S
C525 C509 1.349 . S
C525 H517 0.950 . S
C525 C523 1.327 . S
C526 C514 1.349 . S
C526 H520 0.950 . S
C526 C527 1.327 . S
C527 H521 0.950 . S
C527 C526 1.327 . S
C527 C531 1.429 . S
C528 C511 1.574 . S
C528 H522 0.949 . S
C528 C532 1.368 . S
C529 C510 1.429 . S
C529 C523 1.429 . S
C529 C530 1.523 . S
C530 C511 1.368 . S
C530 C524 1.368 . S
C530 C529 1.523 . S
C531 C515 1.429 . S
C531 C527 1.429 . S
C531 C532 1.523 . S
C532 C516 1.368 . S
C532 C528 1.368 . S
C532 C531 1.523 . S
H533 C508 0.950 . S
H534 C510 0.950 . S
H535 C511 0.949 . S
H536 C513 0.950 . S
H537 C515 0.950 . S
C538 C539 1.349 . S
C538 C540 1.327 . S
C538 H563 0.950 . S
C539 C538 1.349 . S
C539 C555 1.349 . S
C540 C538 1.327 . S
C540 C559 1.429 . S
C540 H564 0.950 . S
C541 C558 1.574 . S
C541 C560 1.368 . S
C541 H565 0.949 . S
H542 C546 0.949 . S
C543 C544 1.349 . S
C543 C545 1.327 . S
C543 H566 0.950 . S
C544 C543 1.349 . S
C544 C556 1.349 . S
C545 C543 1.327 . S
C545 C561 1.429 . S
C545 H567 0.950 . S
C546 H542 0.949 . S
C546 C554 1.574 . S
C546 C562 1.368 . S
H547 C555 0.950 . S
H548 C553 0.950 . S
H549 C554 0.949 . S
H550 C556 0.950 . S
H551 C557 0.950 . S
H552 C558 0.949 . S
C553 H548 0.950 . S
C553 C555 1.327 . S
C553 C559 1.429 . S
C554 C546 1.574 . S
C554 H549 0.949 . S
C554 C560 1.368 . S
C555 C539 1.349 . S
C555 H547 0.950 . S
C555 C553 1.327 . S
C556 C544 1.349 . S
C556 H550 0.950 . S
C556 C557 1.327 . S
C557 H551 0.950 . S
C557 C556 1.327 . S
C557 C561 1.429 . S
C558 C541 1.574 . S
C558 H552 0.949 . S
C558 C562 1.368 . S
C559 C540 1.429 . S
C559 C553 1.429 . S
C559 C560 1.523 . S
C560 C541 1.368 . S
C560 C554 1.368 . S
C560 C559 1.523 . S
C561 C545 1.429 . S
C561 C557 1.429 . S
C561 C562 1.523 . S
C562 C546 1.368 . S
C562 C558 1.368 . S
C562 C561 1.523 . S
H563 C538 0.950 . S
H564 C540 0.950 . S
H565 C541 0.949 . S
H566 C543 0.950 . S
H567 C545 0.950 . S
C568 C569 1.349 . S
C568 C570 1.327 . S
C568 H593 0.950 . S
C569 C568 1.349 . S
C569 C585 1.349 . S
C570 C568 1.327 . S
C570 C589 1.429 . S
C570 H594 0.950 . S
C571 C588 1.574 . S
C571 C590 1.368 . S
C571 H595 0.949 . S
H572 C576 0.949 . S
C573 C574 1.349 . S
C573 C575 1.327 . S
C573 H596 0.950 . S
C574 C573 1.349 . S
C574 C586 1.349 . S
C575 C573 1.327 . S
C575 C591 1.429 . S
C575 H597 0.950 . S
C576 H572 0.949 . S
C576 C584 1.574 . S
C576 C592 1.368 . S
H577 C585 0.950 . S
H578 C583 0.950 . S
H579 C584 0.949 . S
H580 C586 0.950 . S
H581 C587 0.950 . S
H582 C588 0.949 . S
C583 H578 0.950 . S
C583 C585 1.327 . S
C583 C589 1.429 . S
C584 C576 1.574 . S
C584 H579 0.949 . S
C584 C590 1.368 . S
C585 C569 1.349 . S
C585 H577 0.950 . S
C585 C583 1.327 . S
C586 C574 1.349 . S
C586 H580 0.950 . S
C586 C587 1.327 . S
C587 H581 0.950 . S
C587 C586 1.327 . S
C587 C591 1.429 . S
C588 C571 1.574 . S
C588 H582 0.949 . S
C588 C592 1.368 . S
C589 C570 1.429 . S
C589 C583 1.429 . S
C589 C590 1.523 . S
C590 C571 1.368 . S
C590 C584 1.368 . S
C590 C589 1.523 . S
C591 C575 1.429 . S
C591 C587 1.429 . S
C591 C592 1.523 . S
C592 C576 1.368 . S
C592 C588 1.368 . S
C592 C591 1.523 . S
H593 C568 0.950 . S
H594 C570 0.950 . S
H595 C571 0.949 . S
H596 C573 0.950 . S
H597 C575 0.950 . S
C598 C599 1.349 . S
C598 C600 1.327 . S
C598 H623 0.950 . S
C599 C598 1.349 . S
C599 C615 1.349 . S
C600 C598 1.327 . S
C600 C619 1.429 . S
C600 H624 0.950 . S
C601 C618 1.574 . S
C601 C620 1.368 . S
C601 H625 0.949 . S
H602 C606 0.949 . S
C603 C604 1.349 . S
C603 C605 1.327 . S
C603 H626 0.950 . S
C604 C603 1.349 . S
C604 C616 1.349 . S
C605 C603 1.327 . S
C605 C621 1.429 . S
C605 H627 0.950 . S
C606 H602 0.949 . S
C606 C614 1.574 . S
C606 C622 1.368 . S
H607 C615 0.950 . S
H608 C613 0.950 . S
H609 C614 0.949 . S
H610 C616 0.950 . S
H611 C617 0.950 . S
H612 C618 0.949 . S
C613 H608 0.950 . S
C613 C615 1.327 . S
C613 C619 1.429 . S
C614 C606 1.574 . S
C614 H609 0.949 . S
C614 C620 1.368 . S
C615 C599 1.349 . S
C615 H607 0.950 . S
C615 C613 1.327 . S
C616 C604 1.349 . S
C616 H610 0.950 . S
C616 C617 1.327 . S
C617 H611 0.950 . S
C617 C616 1.327 . S
C617 C621 1.429 . S
C618 C601 1.574 . S
C618 H612 0.949 . S
C618 C622 1.368 . S
C619 C600 1.429 . S
C619 C613 1.429 . S
C619 C620 1.523 . S
C620 C601 1.368 . S
C620 C614 1.368 . S
C620 C619 1.523 . S
C621 C605 1.429 . S
C621 C617 1.429 . S
C621 C622 1.523 . S
C622 C606 1.368 . S
C622 C618 1.368 . S
C622 C621 1.523 . S
H623 C598 0.950 . S
H624 C600 0.950 . S
H625 C601 0.949 . S
H626 C603 0.950 . S
H627 C605 0.950 . S
C628 C629 1.349 . S
C628 C630 1.327 . S
C628 H653 0.950 . S
C629 C628 1.349 . S
C629 C645 1.349 . S
C630 C628 1.327 . S
C630 C649 1.429 . S
C630 H654 0.950 . S
C631 C648 1.574 . S
C631 C650 1.368 . S
C631 H655 0.949 . S
H632 C636 0.949 . S
C633 C634 1.349 . S
C633 C635 1.327 . S
C633 H656 0.950 . S
C634 C633 1.349 . S
C634 C646 1.349 . S
C635 C633 1.327 . S
C635 C651 1.429 . S
C635 H657 0.950 . S
C636 H632 0.949 . S
C636 C644 1.574 . S
C636 C652 1.368 . S
H637 C645 0.950 . S
H638 C643 0.950 . S
H639 C644 0.949 . S
H640 C646 0.950 . S
H641 C647 0.950 . S
H642 C648 0.949 . S
C643 H638 0.950 . S
C643 C645 1.327 . S
C643 C649 1.429 . S
C644 C636 1.574 . S
C644 H639 0.949 . S
C644 C650 1.368 . S
C645 C629 1.349 . S
C645 H637 0.950 . S
C645 C643 1.327 . S
C646 C634 1.349 . S
C646 H640 0.950 . S
C646 C647 1.327 . S
C647 H641 0.950 . S
C647 C646 1.327 . S
C647 C651 1.429 . S
C648 C631 1.574 . S
C648 H642 0.949 . S
C648 C652 1.368 . S
C649 C630 1.429 . S
C649 C643 1.429 . S
C649 C650 1.523 . S
C650 C631 1.368 . S
C650 C644 1.368 . S
C650 C649 1.523 . S
C651 C635 1.429 . S
C651 C647 1.429 . S
C651 C652 1.523 . S
C652 C636 1.368 . S
C652 C648 1.368 . S
C652 C651 1.523 . S
H653 C628 0.950 . S
H654 C630 0.950 . S
H655 C631 0.949 . S
H656 C633 0.950 . S
H657 C635 0.950 . S
C658 C659 1.349 . S
C658 C660 1.327 . S
C658 H683 0.950 . S
C659 C658 1.349 . S
C659 C675 1.349 . S
C660 C658 1.327 . S
C660 C679 1.429 . S
C660 H684 0.950 . S
C661 C678 1.574 . S
C661 C680 1.368 . S
C661 H685 0.949 . S
H662 C666 0.949 . S
C663 C664 1.349 . S
C663 C665 1.327 . S
C663 H686 0.950 . S
C664 C663 1.349 . S
C664 C676 1.349 . S
C665 C663 1.327 . S
C665 C681 1.429 . S
C665 H687 0.950 . S
C666 H662 0.949 . S
C666 C674 1.574 . S
C666 C682 1.368 . S
H667 C675 0.950 . S
H668 C673 0.950 . S
H669 C674 0.949 . S
H670 C676 0.950 . S
H671 C677 0.950 . S
H672 C678 0.949 . S
C673 H668 0.950 . S
C673 C675 1.327 . S
C673 C679 1.429 . S
C674 C666 1.574 . S
C674 H669 0.949 . S
C674 C680 1.368 . S
C675 C659 1.349 . S
C675 H667 0.950 . S
C675 C673 1.327 . S
C676 C664 1.349 . S
C676 H670 0.950 . S
C676 C677 1.327 . S
C677 H671 0.950 . S
C677 C676 1.327 . S
C677 C681 1.429 . S
C678 C661 1.574 . S
C678 H672 0.949 . S
C678 C682 1.368 . S
C679 C660 1.429 . S
C679 C673 1.429 . S
C679 C680 1.523 . S
C680 C661 1.368 . S
C680 C674 1.368 . S
C680 C679 1.523 . S
C681 C665 1.429 . S
C681 C677 1.429 . S
C681 C682 1.523 . S
C682 C666 1.368 . S
C682 C678 1.368 . S
C682 C681 1.523 . S
H683 C658 0.950 . S
H684 C660 0.950 . S
H685 C661 0.949 . S
H686 C663 0.950 . S
H687 C665 0.950 . S
C688 C689 1.349 . S
C688 C690 1.327 . S
C688 H713 0.950 . S
C689 C688 1.349 . S
C689 C705 1.349 . S
C690 C688 1.327 . S
C690 C709 1.429 . S
C690 H714 0.950 . S
C691 C708 1.574 . S
C691 C710 1.368 . S
C691 H715 0.949 . S
H692 C696 0.949 . S
C693 C694 1.349 . S
C693 C695 1.327 . S
C693 H716 0.950 . S
C694 C693 1.349 . S
C694 C706 1.349 . S
C695 C693 1.327 . S
C695 C711 1.429 . S
C695 H717 0.950 . S
C696 H692 0.949 . S
C696 C704 1.574 . S
C696 C712 1.368 . S
H697 C705 0.950 . S
H698 C703 0.950 . S
H699 C704 0.949 . S
H700 C706 0.950 . S
H701 C707 0.950 . S
H702 C708 0.949 . S
C703 H698 0.950 . S
C703 C705 1.327 . S
C703 C709 1.429 . S
C704 C696 1.574 . S
C704 H699 0.949 . S
C704 C710 1.368 . S
C705 C689 1.349 . S
C705 H697 0.950 . S
C705 C703 1.327 . S
C706 C694 1.349 . S
C706 H700 0.950 . S
C706 C707 1.327 . S
C707 H701 0.950 . S
C707 C706 1.327 . S
C707 C711 1.429 . S
C708 C691 1.574 . S
C708 H702 0.949 . S
C708 C712 1.368 . S
C709 C690 1.429 . S
C709 C703 1.429 . S
C709 C710 1.523 . S
C710 C691 1.368 . S
C710 C704 1.368 . S
C710 C709 1.523 . S
C711 C695 1.429 . S
C711 C707 1.429 . S
C711 C712 1.523 . S
C712 C696 1.368 . S
C712 C708 1.368 . S
C712 C711 1.523 . S
H713 C688 0.950 . S
H714 C690 0.950 . S
H715 C691 0.949 . S
H716 C693 0.950 . S
H717 C695 0.950 . S
C718 C719 1.349 . S
C718 C720 1.327 . S
C718 H743 0.950 . S
C719 C718 1.349 . S
C719 C735 1.349 . S
C720 C718 1.327 . S
C720 C739 1.429 . S
C720 H744 0.950 . S
C721 C738 1.574 . S
C721 C740 1.368 . S
C721 H745 0.949 . S
H722 C726 0.949 . S
C723 C724 1.349 . S
C723 C725 1.327 . S
C723 H746 0.950 . S
C724 C723 1.349 . S
C724 C736 1.349 . S
C725 C723 1.327 . S
C725 C741 1.429 . S
C725 H747 0.950 . S
C726 H722 0.949 . S
C726 C734 1.574 . S
C726 C742 1.368 . S
H727 C735 0.950 . S
H728 C733 0.950 . S
H729 C734 0.949 . S
H730 C736 0.950 . S
H731 C737 0.950 . S
H732 C738 0.949 . S
C733 H728 0.950 . S
C733 C735 1.327 . S
C733 C739 1.429 . S
C734 C726 1.574 . S
C734 H729 0.949 . S
C734 C740 1.368 . S
C735 C719 1.349 . S
C735 H727 0.950 . S
C735 C733 1.327 . S
C736 C724 1.349 . S
C736 H730 0.950 . S
C736 C737 1.327 . S
C737 H731 0.950 . S
C737 C736 1.327 . S
C737 C741 1.429 . S
C738 C721 1.574 . S
C738 H732 0.949 . S
C738 C742 1.368 . S
C739 C720 1.429 . S
C739 C733 1.429 . S
C739 C740 1.523 . S
C740 C721 1.368 . S
C740 C734 1.368 . S
C740 C739 1.523 . S
C741 C725 1.429 . S
C741 C737 1.429 . S
C741 C742 1.523 . S
C742 C726 1.368 . S
C742 C738 1.368 . S
C742 C741 1.523 . S
H743 C718 0.950 . S
H744 C720 0.950 . S
H745 C721 0.949 . S
H746 C723 0.950 . S
H747 C725 0.950 . S
C748 C749 1.349 . S
C748 C750 1.327 . S
C748 H773 0.950 . S
C749 C748 1.349 . S
C749 C765 1.349 . S
C750 C748 1.327 . S
C750 C769 1.429 . S
C750 H774 0.950 . S
C751 C768 1.574 . S
C751 C770 1.368 . S
C751 H775 0.949 . S
H752 C756 0.949 . S
C753 C754 1.349 . S
C753 C755 1.327 . S
C753 H776 0.950 . S
C754 C753 1.349 . S
C754 C766 1.349 . S
C755 C753 1.327 . S
C755 C771 1.429 . S
C755 H777 0.950 . S
C756 H752 0.949 . S
C756 C764 1.574 . S
C756 C772 1.368 . S
H757 C765 0.950 . S
H758 C763 0.950 . S
H759 C764 0.949 . S
H760 C766 0.950 . S
H761 C767 0.950 . S
H762 C768 0.949 . S
C763 H758 0.950 . S
C763 C765 1.327 . S
C763 C769 1.429 . S
C764 C756 1.574 . S
C764 H759 0.949 . S
C764 C770 1.368 . S
C765 C749 1.349 . S
C765 H757 0.950 . S
C765 C763 1.327 . S
C766 C754 1.349 . S
C766 H760 0.950 . S
C766 C767 1.327 . S
C767 H761 0.950 . S
C767 C766 1.327 . S
C767 C771 1.429 . S
C768 C751 1.574 . S
C768 H762 0.949 . S
C768 C772 1.368 . S
C769 C750 1.429 . S
C769 C763 1.429 . S
C769 C770 1.523 . S
C770 C751 1.368 . S
C770 C764 1.368 . S
C770 C769 1.523 . S
C771 C755 1.429 . S
C771 C767 1.429 . S
C771 C772 1.523 . S
C772 C756 1.368 . S
C772 C768 1.368 . S
C772 C771 1.523 . S
H773 C748 0.950 . S
H774 C750 0.950 . S
H775 C751 0.949 . S
H776 C753 0.950 . S
H777 C755 0.950 . S
C778 C779 1.349 . S
C778 C780 1.327 . S
C778 H803 0.950 . S
C779 C778 1.349 . S
C779 C795 1.349 . S
C780 C778 1.327 . S
C780 C799 1.429 . S
C780 H804 0.950 . S
C781 C798 1.574 . S
C781 C800 1.368 . S
C781 H805 0.949 . S
H782 C786 0.949 . S
C783 C784 1.349 . S
C783 C785 1.327 . S
C783 H806 0.950 . S
C784 C783 1.349 . S
C784 C796 1.349 . S
C785 C783 1.327 . S
C785 C801 1.429 . S
C785 H807 0.950 . S
C786 H782 0.949 . S
C786 C794 1.574 . S
C786 C802 1.368 . S
H787 C795 0.950 . S
H788 C793 0.950 . S
H789 C794 0.949 . S
H790 C796 0.950 . S
H791 C797 0.950 . S
H792 C798 0.949 . S
C793 H788 0.950 . S
C793 C795 1.327 . S
C793 C799 1.429 . S
C794 C786 1.574 . S
C794 H789 0.949 . S
C794 C800 1.368 . S
C795 C779 1.349 . S
C795 H787 0.950 . S
C795 C793 1.327 . S
C796 C784 1.349 . S
C796 H790 0.950 . S
C796 C797 1.327 . S
C797 H791 0.950 . S
C797 C796 1.327 . S
C797 C801 1.429 . S
C798 C781 1.574 . S
C798 H792 0.949 . S
C798 C802 1.368 . S
C799 C780 1.429 . S
C799 C793 1.429 . S
C799 C800 1.523 . S
C800 C781 1.368 . S
C800 C794 1.368 . S
C800 C799 1.523 . S
C801 C785 1.429 . S
C801 C797 1.429 . S
C801 C802 1.523 . S
C802 C786 1.368 . S
C802 C798 1.368 . S
C802 C801 1.523 . S
H803 C778 0.950 . S
H804 C780 0.950 . S
H805 C781 0.949 . S
H806 C783 0.950 . S
H807 C785 0.950 . S
C808 C809 1.349 . S
C808 C810 1.327 . S
C808 H833 0.950 . S
C809 C808 1.349 . S
C809 C825 1.349 . S
C810 C808 1.327 . S
C810 C829 1.429 . S
C810 H834 0.950 . S
C811 C828 1.574 . S
C811 C830 1.368 . S
C811 H835 0.949 . S
H812 C816 0.949 . S
C813 C814 1.349 . S
C813 C815 1.327 . S
C813 H836 0.950 . S
C814 C813 1.349 . S
C814 C826 1.349 . S
C815 C813 1.327 . S
C815 C831 1.429 . S
C815 H837 0.950 . S
C816 H812 0.949 . S
C816 C824 1.574 . S
C816 C832 1.368 . S
H817 C825 0.950 . S
H818 C823 0.950 . S
H819 C824 0.949 . S
H820 C826 0.950 . S
H821 C827 0.950 . S
H822 C828 0.949 . S
C823 H818 0.950 . S
C823 C825 1.327 . S
C823 C829 1.429 . S
C824 C816 1.574 . S
C824 H819 0.949 . S
C824 C830 1.368 . S
C825 C809 1.349 . S
C825 H817 0.950 . S
C825 C823 1.327 . S
C826 C814 1.349 . S
C826 H820 0.950 . S
C826 C827 1.327 . S
C827 H821 0.950 . S
C827 C826 1.327 . S
C827 C831 1.429 . S
C828 C811 1.574 . S
C828 H822 0.949 . S
C828 C832 1.368 . S
C829 C810 1.429 . S
C829 C823 1.429 . S
C829 C830 1.523 . S
C830 C811 1.368 . S
C830 C824 1.368 . S
C830 C829 1.523 . S
C831 C815 1.429 . S
C831 C827 1.429 . S
C831 C832 1.523 . S
C832 C816 1.368 . S
C832 C828 1.368 . S
C832 C831 1.523 . S
H833 C808 0.950 . S
H834 C810 0.950 . S
H835 C811 0.949 . S
H836 C813 0.950 . S
H837 C815 0.950 . S
C838 C839 1.349 . S
C838 C840 1.327 . S
C838 H863 0.950 . S
C839 C838 1.349 . S
C839 C855 1.349 . S
C840 C838 1.327 . S
C840 C859 1.429 . S
C840 H864 0.950 . S
C841 C858 1.574 . S
C841 C860 1.368 . S
C841 H865 0.949 . S
H842 C846 0.949 . S
C843 C844 1.349 . S
C843 C845 1.327 . S
C843 H866 0.950 . S
C844 C843 1.349 . S
C844 C856 1.349 . S
C845 C843 1.327 . S
C845 C861 1.429 . S
C845 H867 0.950 . S
C846 H842 0.949 . S
C846 C854 1.574 . S
C846 C862 1.368 . S
H847 C855 0.950 . S
H848 C853 0.950 . S
H849 C854 0.949 . S
H850 C856 0.950 . S
H851 C857 0.950 . S
H852 C858 0.949 . S
C853 H848 0.950 . S
C853 C855 1.327 . S
C853 C859 1.429 . S
C854 C846 1.574 . S
C854 H849 0.949 . S
C854 C860 1.368 . S
C855 C839 1.349 . S
C855 H847 0.950 . S
C855 C853 1.327 . S
C856 C844 1.349 . S
C856 H850 0.950 . S
C856 C857 1.327 . S
C857 H851 0.950 . S
C857 C856 1.327 . S
C857 C861 1.429 . S
C858 C841 1.574 . S
C858 H852 0.949 . S
C858 C862 1.368 . S
C859 C840 1.429 . S
C859 C853 1.429 . S
C859 C860 1.523 . S
C860 C841 1.368 . S
C860 C854 1.368 . S
C860 C859 1.523 . S
C861 C845 1.429 . S
C861 C857 1.429 . S
C861 C862 1.523 . S
C862 C846 1.368 . S
C862 C858 1.368 . S
C862 C861 1.523 . S
H863 C838 0.950 . S
H864 C840 0.950 . S
H865 C841 0.949 . S
H866 C843 0.950 . S
H867 C845 0.950 . S
C868 C869 1.349 . S
C868 C870 1.327 . S
C868 H893 0.950 . S
C869 C868 1.349 . S
C869 C885 1.349 . S
C870 C868 1.327 . S
C870 C889 1.429 . S
C870 H894 0.950 . S
C871 C888 1.574 . S
C871 C890 1.368 . S
C871 H895 0.949 . S
H872 C876 0.949 . S
C873 C874 1.349 . S
C873 C875 1.327 . S
C873 H896 0.950 . S
C874 C873 1.349 . S
C874 C886 1.349 . S
C875 C873 1.327 . S
C875 C891 1.429 . S
C875 H897 0.950 . S
C876 H872 0.949 . S
C876 C884 1.574 . S
C876 C892 1.368 . S
H877 C885 0.950 . S
H878 C883 0.950 . S
H879 C884 0.949 . S
H880 C886 0.950 . S
H881 C887 0.950 . S
H882 C888 0.949 . S
C883 H878 0.950 . S
C883 C885 1.327 . S
C883 C889 1.429 . S
C884 C876 1.574 . S
C884 H879 0.949 . S
C884 C890 1.368 . S
C885 C869 1.349 . S
C885 H877 0.950 . S
C885 C883 1.327 . S
C886 C874 1.349 . S
C886 H880 0.950 . S
C886 C887 1.327 . S
C887 H881 0.950 . S
C887 C886 1.327 . S
C887 C891 1.429 . S
C888 C871 1.574 . S
C888 H882 0.949 . S
C888 C892 1.368 . S
C889 C870 1.429 . S
C889 C883 1.429 . S
C889 C890 1.523 . S
C890 C871 1.368 . S
C890 C884 1.368 . S
C890 C889 1.523 . S
C891 C875 1.429 . S
C891 C887 1.429 . S
C891 C892 1.523 . S
C892 C876 1.368 . S
C892 C888 1.368 . S
C892 C891 1.523 . S
H893 C868 0.950 . S
H894 C870 0.950 . S
H895 C871 0.949 . S
H896 C873 0.950 . S
H897 C875 0.950 . S
C898 C899 1.349 . S
C898 C900 1.327 . S
C898 H923 0.950 . S
C899 C898 1.349 . S
C899 C915 1.349 . S
C900 C898 1.327 . S
C900 C919 1.429 . S
C900 H924 0.950 . S
C901 C918 1.574 . S
C901 C920 1.368 . S
C901 H925 0.949 . S
H902 C906 0.949 . S
C903 C904 1.349 . S
C903 C905 1.327 . S
C903 H926 0.950 . S
C904 C903 1.349 . S
C904 C916 1.349 . S
C905 C903 1.327 . S
C905 C921 1.429 . S
C905 H927 0.950 . S
C906 H902 0.949 . S
C906 C914 1.574 . S
C906 C922 1.368 . S
H907 C915 0.950 . S
H908 C913 0.950 . S
H909 C914 0.949 . S
H910 C916 0.950 . S
H911 C917 0.950 . S
H912 C918 0.949 . S
C913 H908 0.950 . S
C913 C915 1.327 . S
C913 C919 1.429 . S
C914 C906 1.574 . S
C914 H909 0.949 . S
C914 C920 1.368 . S
C915 C899 1.349 . S
C915 H907 0.950 . S
C915 C913 1.327 . S
C916 C904 1.349 . S
C916 H910 0.950 . S
C916 C917 1.327 . S
C917 H911 0.950 . S
C917 C916 1.327 . S
C917 C921 1.429 . S
C918 C901 1.574 . S
C918 H912 0.949 . S
C918 C922 1.368 . S
C919 C900 1.429 . S
C919 C913 1.429 . S
C919 C920 1.523 . S
C920 C901 1.368 . S
C920 C914 1.368 . S
C920 C919 1.523 . S
C921 C905 1.429 . S
C921 C917 1.429 . S
C921 C922 1.523 . S
C922 C906 1.368 . S
C922 C918 1.368 . S
C922 C921 1.523 . S
H923 C898 0.950 . S
H924 C900 0.950 . S
H925 C901 0.949 . S
H926 C903 0.950 . S
H927 C905 0.950 . S
C928 C929 1.349 . S
C928 C930 1.327 . S
C928 H953 0.950 . S
C929 C928 1.349 . S
C929 C945 1.349 . S
C930 C928 1.327 . S
C930 C949 1.429 . S
C930 H954 0.950 . S
C931 C948 1.574 . S
C931 C950 1.368 1_655 S
C931 H955 0.949 . S
H932 C936 0.949 . S
C933 C934 1.349 . S
C933 C935 1.327 . S
C933 H956 0.950 . S
C934 C933 1.349 . S
C934 C946 1.349 . S
C935 C933 1.327 . S
C935 C951 1.429 . S
C935 H957 0.950 . S
C936 H932 0.949 . S
C936 C944 1.574 . S
C936 C952 1.368 1_455 S
H937 C945 0.950 1_655 S
H938 C943 0.950 . S
H939 C944 0.949 . S
H940 C946 0.950 1_455 S
H941 C947 0.950 . S
H942 C948 0.949 . S
C943 H938 0.950 . S
C943 C945 1.327 1_655 S
C943 C949 1.429 1_655 S
C944 C936 1.574 . S
C944 H939 0.949 . S
C944 C950 1.368 . S
C945 C929 1.349 . S
C945 H937 0.950 1_455 S
C945 C943 1.327 1_455 S
C946 C934 1.349 . S
C946 H940 0.950 1_655 S
C946 C947 1.327 1_655 S
C947 H941 0.950 . S
C947 C946 1.327 1_455 S
C947 C951 1.429 1_455 S
C948 C931 1.574 . S
C948 H942 0.949 . S
C948 C952 1.368 . S
C949 C930 1.429 . S
C949 C943 1.429 1_455 S
C949 C950 1.523 . S
C950 C931 1.368 1_455 S
C950 C944 1.368 . S
C950 C949 1.523 . S
C951 C935 1.429 . S
C951 C947 1.429 1_655 S
C951 C952 1.523 . S
C952 C936 1.368 1_655 S
C952 C948 1.368 . S
C952 C951 1.523 . S
H953 C928 0.950 . S
H954 C930 0.950 . S
H955 C931 0.949 . S
H956 C933 0.950 . S
H957 C935 0.950 . S
C958 C959 1.349 . S
C958 C960 1.327 . S
C958 H983 0.950 . S
C959 C958 1.349 . S
C959 C975 1.349 1_565 S
C960 C958 1.327 . S
C960 C979 1.429 . S
C960 H984 0.950 . S
C961 C978 1.574 . S
C961 C980 1.368 1_545 S
C961 H985 0.949 . S
H962 C966 0.949 . S
C963 C964 1.349 . S
C963 C965 1.327 . S
C963 H986 0.950 . S
C964 C963 1.349 . S
C964 C976 1.349 1_545 S
C965 C963 1.327 . S
C965 C981 1.429 . S
C965 H987 0.950 . S
C966 H962 0.949 . S
C966 C974 1.574 . S
C966 C982 1.368 1_565 S
H967 C975 0.950 . S
H968 C973 0.950 . S
H969 C974 0.949 . S
H970 C976 0.950 . S
H971 C977 0.950 . S
H972 C978 0.949 . S
C973 H968 0.950 . S
C973 C975 1.327 . S
C973 C979 1.429 1_545 S
C974 C966 1.574 . S
C974 H969 0.949 . S
C974 C980 1.368 . S
C975 C959 1.349 1_545 S
C975 H967 0.950 . S
C975 C973 1.327 . S
C976 C964 1.349 1_565 S
C976 H970 0.950 . S
C976 C977 1.327 . S
C977 H971 0.950 . S
C977 C976 1.327 . S
C977 C981 1.429 1_565 S
C978 C961 1.574 . S
C978 H972 0.949 . S
C978 C982 1.368 . S
C979 C960 1.429 . S
C979 C973 1.429 1_565 S
C979 C980 1.523 . S
C980 C961 1.368 1_565 S
C980 C974 1.368 . S
C980 C979 1.523 . S
C981 C965 1.429 . S
C981 C977 1.429 1_545 S
C981 C982 1.523 . S
C982 C966 1.368 1_545 S
C982 C978 1.368 . S
C982 C981 1.523 . S
H983 C958 0.950 . S
H984 C960 0.950 . S
H985 C961 0.949 . S
H986 C963 0.950 . S
H987 C965 0.950 . S
C988 C989 1.349 . S
C988 C990 1.327 1_455 S
C988 H1013 0.950 1_455 S
C989 C988 1.349 . S
C989 C1005 1.349 . S
C990 C988 1.327 1_655 S
C990 C1009 1.429 1_655 S
C990 H1014 0.950 . S
C991 C1008 1.574 . S
C991 C1010 1.368 . S
C991 H1015 0.949 . S
H992 C996 0.949 . S
C993 C994 1.349 . S
C993 C995 1.327 1_655 S
C993 H1016 0.950 1_655 S
C994 C993 1.349 . S
C994 C1006 1.349 . S
C995 C993 1.327 1_455 S
C995 C1011 1.429 1_455 S
C995 H1017 0.950 . S
C996 H992 0.949 . S
C996 C1004 1.574 . S
C996 C1012 1.368 . S
H997 C1005 0.950 . S
H998 C1003 0.950 . S
H999 C1004 0.949 . S
H1000 C1006 0.950 . S
H1001 C1007 0.950 . S
H1002 C1008 0.949 . S
C1003 H998 0.950 . S
C1003 C1005 1.327 . S
C1003 C1009 1.429 . S
C1004 C996 1.574 . S
C1004 H999 0.949 . S
C1004 C1010 1.368 1_655 S
C1005 C989 1.349 . S
C1005 H997 0.950 . S
C1005 C1003 1.327 . S
C1006 C994 1.349 . S
C1006 H1000 0.950 . S
C1006 C1007 1.327 . S
C1007 H1001 0.950 . S
C1007 C1006 1.327 . S
C1007 C1011 1.429 . S
C1008 C991 1.574 . S
C1008 H1002 0.949 . S
C1008 C1012 1.368 1_455 S
C1009 C990 1.429 1_455 S
C1009 C1003 1.429 . S
C1009 C1010 1.523 . S
C1010 C991 1.368 . S
C1010 C1004 1.368 1_455 S
C1010 C1009 1.523 . S
C1011 C995 1.429 1_655 S
C1011 C1007 1.429 . S
C1011 C1012 1.523 . S
C1012 C996 1.368 . S
C1012 C1008 1.368 1_655 S
C1012 C1011 1.523 . S
H1013 C988 0.950 1_655 S
H1014 C990 0.950 . S
H1015 C991 0.949 . S
H1016 C993 0.950 1_455 S
H1017 C995 0.950 . S
C1018 C1019 1.349 1_565 S
C1018 C1020 1.327 . S
C1018 H1043 0.950 . S
C1019 C1018 1.349 1_545 S
C1019 C1035 1.349 . S
C1020 C1018 1.327 . S
C1020 C1039 1.429 1_565 S
C1020 H1044 0.950 . S
C1021 C1038 1.574 . S
C1021 C1040 1.368 . S
C1021 H1045 0.949 . S
H1022 C1026 0.949 . S
C1023 C1024 1.349 1_545 S
C1023 C1025 1.327 . S
C1023 H1046 0.950 . S
C1024 C1023 1.349 1_565 S
C1024 C1036 1.349 . S
C1025 C1023 1.327 . S
C1025 C1041 1.429 1_545 S
C1025 H1047 0.950 . S
C1026 H1022 0.949 . S
C1026 C1034 1.574 . S
C1026 C1042 1.368 . S
H1027 C1035 0.950 . S
H1028 C1033 0.950 . S
H1029 C1034 0.949 . S
H1030 C1036 0.950 . S
H1031 C1037 0.950 . S
H1032 C1038 0.949 . S
C1033 H1028 0.950 . S
C1033 C1035 1.327 . S
C1033 C1039 1.429 . S
C1034 C1026 1.574 . S
C1034 H1029 0.949 . S
C1034 C1040 1.368 1_565 S
C1035 C1019 1.349 . S
C1035 H1027 0.950 . S
C1035 C1033 1.327 . S
C1036 C1024 1.349 . S
C1036 H1030 0.950 . S
C1036 C1037 1.327 . S
C1037 H1031 0.950 . S
C1037 C1036 1.327 . S
C1037 C1041 1.429 . S
C1038 C1021 1.574 . S
C1038 H1032 0.949 . S
C1038 C1042 1.368 1_545 S
C1039 C1020 1.429 1_545 S
C1039 C1033 1.429 . S
C1039 C1040 1.523 . S
C1040 C1021 1.368 . S
C1040 C1034 1.368 1_545 S
C1040 C1039 1.523 . S
C1041 C1025 1.429 1_565 S
C1041 C1037 1.429 . S
C1041 C1042 1.523 . S
C1042 C1026 1.368 . S
C1042 C1038 1.368 1_565 S
C1042 C1041 1.523 . S
H1043 C1018 0.950 . S
H1044 C1020 0.950 . S
H1045 C1021 0.949 . S
H1046 C1023 0.950 . S
H1047 C1025 0.950 . S
C1048 C1049 1.349 . S
C1048 C1050 1.327 . S
C1048 H1073 0.950 . S
C1049 C1048 1.349 . S
C1049 C1065 1.349 . S
C1050 C1048 1.327 . S
C1050 C1069 1.429 . S
C1050 H1074 0.950 . S
C1051 C1068 1.574 1_556 S
C1051 C1070 1.368 . S
C1051 H1075 0.949 . S
H1052 C1056 0.949 . S
C1053 C1054 1.349 . S
C1053 C1055 1.327 . S
C1053 H1076 0.950 . S
C1054 C1053 1.349 . S
C1054 C1066 1.349 . S
C1055 C1053 1.327 . S
C1055 C1071 1.429 . S
C1055 H1077 0.950 . S
C1056 H1052 0.949 . S
C1056 C1064 1.574 1_554 S
C1056 C1072 1.368 . S
H1057 C1065 0.950 . S
H1058 C1063 0.950 . S
H1059 C1064 0.949 . S
H1060 C1066 0.950 . S
H1061 C1067 0.950 . S
H1062 C1068 0.949 . S
C1063 H1058 0.950 . S
C1063 C1065 1.327 . S
C1063 C1069 1.429 . S
C1064 C1056 1.574 1_556 S
C1064 H1059 0.949 . S
C1064 C1070 1.368 . S
C1065 C1049 1.349 . S
C1065 H1057 0.950 . S
C1065 C1063 1.327 . S
C1066 C1054 1.349 . S
C1066 H1060 0.950 . S
C1066 C1067 1.327 . S
C1067 H1061 0.950 . S
C1067 C1066 1.327 . S
C1067 C1071 1.429 . S
C1068 C1051 1.574 1_554 S
C1068 H1062 0.949 . S
C1068 C1072 1.368 . S
C1069 C1050 1.429 . S
C1069 C1063 1.429 . S
C1069 C1070 1.523 . S
C1070 C1051 1.368 . S
C1070 C1064 1.368 . S
C1070 C1069 1.523 . S
C1071 C1055 1.429 . S
C1071 C1067 1.429 . S
C1071 C1072 1.523 . S
C1072 C1056 1.368 . S
C1072 C1068 1.368 . S
C1072 C1071 1.523 . S
H1073 C1048 0.950 . S
H1074 C1050 0.950 . S
H1075 C1051 0.949 . S
H1076 C1053 0.950 . S
H1077 C1055 0.950 . S
C1078 C1079 1.349 . S
C1078 C1080 1.327 . S
C1078 H1103 0.950 . S
C1079 C1078 1.349 . S
C1079 C1095 1.349 . S
C1080 C1078 1.327 . S
C1080 C1099 1.429 . S
C1080 H1104 0.950 . S
C1081 C1098 1.574 1_556 S
C1081 C1100 1.368 . S
C1081 H1105 0.949 . S
H1082 C1086 0.949 . S
C1083 C1084 1.349 . S
C1083 C1085 1.327 . S
C1083 H1106 0.950 . S
C1084 C1083 1.349 . S
C1084 C1096 1.349 . S
C1085 C1083 1.327 . S
C1085 C1101 1.429 . S
C1085 H1107 0.950 . S
C1086 H1082 0.949 . S
C1086 C1094 1.574 1_554 S
C1086 C1102 1.368 . S
H1087 C1095 0.950 . S
H1088 C1093 0.950 . S
H1089 C1094 0.949 . S
H1090 C1096 0.950 . S
H1091 C1097 0.950 . S
H1092 C1098 0.949 . S
C1093 H1088 0.950 . S
C1093 C1095 1.327 . S
C1093 C1099 1.429 . S
C1094 C1086 1.574 1_556 S
C1094 H1089 0.949 . S
C1094 C1100 1.368 . S
C1095 C1079 1.349 . S
C1095 H1087 0.950 . S
C1095 C1093 1.327 . S
C1096 C1084 1.349 . S
C1096 H1090 0.950 . S
C1096 C1097 1.327 . S
C1097 H1091 0.950 . S
C1097 C1096 1.327 . S
C1097 C1101 1.429 . S
C1098 C1081 1.574 1_554 S
C1098 H1092 0.949 . S
C1098 C1102 1.368 . S
C1099 C1080 1.429 . S
C1099 C1093 1.429 . S
C1099 C1100 1.523 . S
C1100 C1081 1.368 . S
C1100 C1094 1.368 . S
C1100 C1099 1.523 . S
C1101 C1085 1.429 . S
C1101 C1097 1.429 . S
C1101 C1102 1.523 . S
C1102 C1086 1.368 . S
C1102 C1098 1.368 . S
C1102 C1101 1.523 . S
H1103 C1078 0.950 . S
H1104 C1080 0.950 . S
H1105 C1081 0.949 . S
H1106 C1083 0.950 . S
H1107 C1085 0.950 . S
C1108 C1109 1.349 . S
C1108 C1110 1.327 . S
C1108 H1133 0.950 . S
C1109 C1108 1.349 . S
C1109 C1125 1.349 . S
C1110 C1108 1.327 . S
C1110 C1129 1.429 . S
C1110 H1134 0.950 . S
C1111 C1128 1.574 1_554 S
C1111 C1130 1.368 . S
C1111 H1135 0.949 . S
H1112 C1116 0.949 . S
C1113 C1114 1.349 . S
C1113 C1115 1.327 . S
C1113 H1136 0.950 . S
C1114 C1113 1.349 . S
C1114 C1126 1.349 . S
C1115 C1113 1.327 . S
C1115 C1131 1.429 . S
C1115 H1137 0.950 . S
C1116 H1112 0.949 . S
C1116 C1124 1.574 1_556 S
C1116 C1132 1.368 . S
H1117 C1125 0.950 . S
H1118 C1123 0.950 . S
H1119 C1124 0.949 . S
H1120 C1126 0.950 . S
H1121 C1127 0.950 . S
H1122 C1128 0.949 . S
C1123 H1118 0.950 . S
C1123 C1125 1.327 . S
C1123 C1129 1.429 . S
C1124 C1116 1.574 1_554 S
C1124 H1119 0.949 . S
C1124 C1130 1.368 . S
C1125 C1109 1.349 . S
C1125 H1117 0.950 . S
C1125 C1123 1.327 . S
C1126 C1114 1.349 . S
C1126 H1120 0.950 . S
C1126 C1127 1.327 . S
C1127 H1121 0.950 . S
C1127 C1126 1.327 . S
C1127 C1131 1.429 . S
C1128 C1111 1.574 1_556 S
C1128 H1122 0.949 . S
C1128 C1132 1.368 . S
C1129 C1110 1.429 . S
C1129 C1123 1.429 . S
C1129 C1130 1.523 . S
C1130 C1111 1.368 . S
C1130 C1124 1.368 . S
C1130 C1129 1.523 . S
C1131 C1115 1.429 . S
C1131 C1127 1.429 . S
C1131 C1132 1.523 . S
C1132 C1116 1.368 . S
C1132 C1128 1.368 . S
C1132 C1131 1.523 . S
H1133 C1108 0.950 . S
H1134 C1110 0.950 . S
H1135 C1111 0.949 . S
H1136 C1113 0.950 . S
H1137 C1115 0.950 . S
C1138 C1139 1.349 . S
C1138 C1140 1.327 . S
C1138 H1163 0.950 . S
C1139 C1138 1.349 . S
C1139 C1155 1.349 . S
C1140 C1138 1.327 . S
C1140 C1159 1.429 . S
C1140 H1164 0.950 . S
C1141 C1158 1.574 1_556 S
C1141 C1160 1.368 . S
C1141 H1165 0.949 . S
H1142 C1146 0.949 . S
C1143 C1144 1.349 . S
C1143 C1145 1.327 . S
C1143 H1166 0.950 . S
C1144 C1143 1.349 . S
C1144 C1156 1.349 . S
C1145 C1143 1.327 . S
C1145 C1161 1.429 . S
C1145 H1167 0.950 . S
C1146 H1142 0.949 . S
C1146 C1154 1.574 1_554 S
C1146 C1162 1.368 . S
H1147 C1155 0.950 . S
H1148 C1153 0.950 . S
H1149 C1154 0.949 . S
H1150 C1156 0.950 . S
H1151 C1157 0.950 . S
H1152 C1158 0.949 . S
C1153 H1148 0.950 . S
C1153 C1155 1.327 . S
C1153 C1159 1.429 . S
C1154 C1146 1.574 1_556 S
C1154 H1149 0.949 . S
C1154 C1160 1.368 . S
C1155 C1139 1.349 . S
C1155 H1147 0.950 . S
C1155 C1153 1.327 . S
C1156 C1144 1.349 . S
C1156 H1150 0.950 . S
C1156 C1157 1.327 . S
C1157 H1151 0.950 . S
C1157 C1156 1.327 . S
C1157 C1161 1.429 . S
C1158 C1141 1.574 1_554 S
C1158 H1152 0.949 . S
C1158 C1162 1.368 . S
C1159 C1140 1.429 . S
C1159 C1153 1.429 . S
C1159 C1160 1.523 . S
C1160 C1141 1.368 . S
C1160 C1154 1.368 . S
C1160 C1159 1.523 . S
C1161 C1145 1.429 . S
C1161 C1157 1.429 . S
C1161 C1162 1.523 . S
C1162 C1146 1.368 . S
C1162 C1158 1.368 . S
C1162 C1161 1.523 . S
H1163 C1138 0.950 . S
H1164 C1140 0.950 . S
H1165 C1141 0.949 . S
H1166 C1143 0.950 . S
H1167 C1145 0.950 . S
C209 C10 1.563 . S
C214 C42 1.567 . S
C239 C5 1.567 . S
C244 C23 1.563 . S
C269 C18 1.567 . S
C274 C30 1.563 . S
C299 C29 1.567 . S
C304 C43 1.563 . S
C329 C62 1.563 . S
C334 C70 1.567 . S
C359 C75 1.563 . S
C364 C81 1.567 . S
C389 C82 1.563 . S
C394 C96 1.567 . S
C419 C101 1.563 . S
C424 C57 1.567 . S
C449 C108 1.563 . S
C454 C146 1.567 . S
C479 C107 1.567 . S
C484 C127 1.563 . S
C509 C122 1.567 . S
C514 C134 1.563 . S
C539 C147 1.563 . S
C544 C133 1.567 . S
C569 C174 1.567 . S
C574 C166 1.563 . S
C599 C187 1.567 . S
C604 C179 1.563 . S
C629 C192 1.563 . S
C634 C200 1.567 . S
C659 C205 1.563 . S
C664 C161 1.567 . S
C689 C4 1.005 . S
C694 C199 1.005 . S
C719 C17 1.005 . S
C724 C160 1.005 . S
C749 C173 1.005 . S
C754 C36 1.005 . S
C779 C49 1.005 . S
C784 C186 1.005 . S
C809 C121 1.005 . S
C814 C56 1.005 . S
C839 C140 1.005 . S
C844 C69 1.005 . S
C869 C88 1.005 . S
C874 C153 1.005 . S
C899 C95 1.005 . S
C904 C114 1.005 . S
C929 C3 1.657 . S
C934 C83 1.657 . S
C959 C94 1.657 . S
C964 C16 1.657 . S
C989 C55 1.657 . S
C994 C31 1.657 . S
C1019 C68 1.657 . S
C1024 C44 1.657 . S
C1049 C109 1.657 . S
C1054 C185 1.657 . S
C1079 C120 1.657 . S
C1084 C198 1.657 . S
C1109 C159 1.657 . S
C1114 C135 1.657 . S
C1139 C148 1.657 . S
C1144 C172 1.657 . S
