# Generated by pormake.
# Topology rac, (4)-cn, num edge types: 1
# Building blocks:
#     Node 0, Type 0, BuildingBlock: QUQFOY_clean_sbu_3, # of connection points: 4
#     Node 1, Type 0, BuildingBlock: QUQFOY_clean_sbu_3, # of connection points: 4
#     Node 2, Type 0, BuildingBlock: QUQFOY_clean_sbu_3, # of connection points: 4
#     Node 3, Type 0, BuildingBlock: QUQFOY_clean_sbu_3, # of connection points: 4
#     Node 4, Type 0, BuildingBlock: QUQFOY_clean_sbu_3, # of connection points: 4
#     Node 5, Type 0, BuildingBlock: QUQFOY_clean_sbu_3, # of connection points: 4
#     Node 6, Type 0, BuildingBlock: QUQFOY_clean_sbu_3, # of connection points: 4
#     Node 7, Type 0, BuildingBlock: QUQFOY_clean_sbu_3, # of connection points: 4
#     Edge 8, Type (0, 0), BuildingBlock: OJICUG_clean_linker_0, # of connection points: 2
#     Edge 9, Type (0, 0), BuildingBlock: OJICUG_clean_linker_0, # of connection points: 2
#     Edge 10, Type (0, 0), BuildingBlock: OJICUG_clean_linker_0, # of connection points: 2
#     Edge 11, Type (0, 0), BuildingBlock: OJICUG_clean_linker_0, # of connection points: 2
#     Edge 12, Type (0, 0), BuildingBlock: OJICUG_clean_linker_0, # of connection points: 2
#     Edge 13, Type (0, 0), BuildingBlock: OJICUG_clean_linker_0, # of connection points: 2
#     Edge 14, Type (0, 0), BuildingBlock: OJICUG_clean_linker_0, # of connection points: 2
#     Edge 15, Type (0, 0), BuildingBlock: OJICUG_clean_linker_0, # of connection points: 2
#     Edge 16, Type (0, 0), BuildingBlock: OJICUG_clean_linker_0, # of connection points: 2
#     Edge 17, Type (0, 0), BuildingBlock: OJICUG_clean_linker_0, # of connection points: 2
#     Edge 18, Type (0, 0), BuildingBlock: OJICUG_clean_linker_0, # of connection points: 2
#     Edge 19, Type (0, 0), BuildingBlock: OJICUG_clean_linker_0, # of connection points: 2
#     Edge 20, Type (0, 0), BuildingBlock: OJICUG_clean_linker_0, # of connection points: 2
#     Edge 21, Type (0, 0), BuildingBlock: OJICUG_clean_linker_0, # of connection points: 2
#     Edge 22, Type (0, 0), BuildingBlock: OJICUG_clean_linker_0, # of connection points: 2
#     Edge 23, Type (0, 0), BuildingBlock: OJICUG_clean_linker_0, # of connection points: 2
# Relax obj value: 0.225
# Max RMSD: 0.074
# Mean RMSD: 0.074
data_MOF--net-rac--node1-QUQFOY_clean_sbu_3--edge1-OJICUG_clean_linker_0
_symmetry_space_group_name_H-M    P1
_symmetry_Int_Tables_number       1
_symmetry_cell_setting            triclinic
loop_
_symmetry_equiv_pos_as_xyz
'x, y, z'
_cell_length_a     33.673533
_cell_length_b     15.967417
_cell_length_c     30.359695
_cell_angle_alpha  90.035001
_cell_angle_beta   90.020521
_cell_angle_gamma 90.616932
loop_
_atom_site_label
_atom_site_type_symbol
_atom_site_fract_x
_atom_site_fract_y
_atom_site_fract_z
_atom_type_partial_charge
C0 C 0.3212 0.20637 0.11462 0.0
O1 O 0.28636 0.23518 0.11152 0.0
Cd2 Cd 0.25319 0.301 0.05359 0.0
O3 O 0.34585 0.20976 0.0825 0.0
Cd4 Cd 0.34249 0.26542 0.00373 0.0
C5 C 0.26213 0.13501 -0.01924 0.0
O6 O 0.3041 0.37839 0.02215 0.0
O7 O 0.30237 0.35252 -0.0471 0.0
O8 O 0.40043 0.35092 0.01975 0.0
C9 C 0.29132 0.39824 -0.01538 0.0
O10 O 0.2421 0.18671 0.00342 0.0
C11 C 0.41538 0.34789 -0.01855 0.0
O12 O 0.30014 0.14209 -0.02245 0.0
O13 O 0.40001 0.29474 -0.04518 0.0
C14 C 0.11254 0.7638 0.11439 0.0
O15 O 0.14747 0.73534 0.11166 0.0
Cd16 Cd 0.18128 0.66966 0.0541 0.0
O17 O 0.08812 0.75996 0.08205 0.0
Cd18 Cd 0.09213 0.70369 0.0034 0.0
C19 C 0.1723 0.8348 -0.01916 0.0
O20 O 0.13094 0.59142 0.02208 0.0
O21 O 0.13267 0.61709 -0.0472 0.0
O22 O 0.03452 0.61706 0.01908 0.0
C23 C 0.14389 0.57176 -0.01542 0.0
O24 O 0.19231 0.78358 0.00381 0.0
C25 C 0.01958 0.62005 -0.01924 0.0
O26 O 0.13432 0.8273 -0.02268 0.0
O27 O 0.0348 0.67354 -0.04575 0.0
C28 C 0.30889 0.13779 0.29497 0.0
O29 O 0.27562 0.10407 0.30437 0.0
Cd30 Cd 0.24308 0.11185 0.3744 0.0
O31 O 0.3301 0.17203 0.32491 0.0
Cd32 Cd 0.32932 0.17608 0.40725 0.0
C33 C 0.25535 0.32386 0.39857 0.0
O34 O 0.28869 0.06006 0.42608 0.0
O35 O 0.29451 0.15221 0.47779 0.0
O36 O 0.37877 0.07218 0.39549 0.0
C37 C 0.28223 0.08041 0.46572 0.0
O38 O 0.23342 0.26055 0.38955 0.0
C39 C 0.40383 0.09875 0.42347 0.0
O40 O 0.29295 0.31525 0.40432 0.0
O41 O 0.39645 0.16908 0.4419 0.0
C42 C 0.12408 0.83468 0.29454 0.0
O43 O 0.1573 0.86874 0.3039 0.0
Cd44 Cd 0.18991 0.86146 0.37394 0.0
O45 O 0.10294 0.80056 0.32453 0.0
Cd46 Cd 0.10378 0.79763 0.40688 0.0
C47 C 0.17767 0.64966 0.39839 0.0
O48 O 0.14449 0.91363 0.42573 0.0
O49 O 0.13865 0.82149 0.47739 0.0
O50 O 0.05462 0.90206 0.39503 0.0
C51 C 0.15095 0.89327 0.46536 0.0
O52 O 0.1996 0.71289 0.38927 0.0
C53 C 0.02945 0.87582 0.42296 0.0
O54 O 0.14008 0.65835 0.40416 0.0
O55 O 0.03663 0.80541 0.44139 0.0
C56 C 0.61075 0.76036 0.78889 0.0
O57 O 0.6456 0.73129 0.79101 0.0
Cd58 Cd 0.68034 0.66746 0.84847 0.0
O59 O 0.58698 0.75799 0.82182 0.0
Cd60 Cd 0.5918 0.7026 0.9005 0.0
C61 C 0.67228 0.8342 0.92115 0.0
O62 O 0.63052 0.59012 0.88191 0.0
O63 O 0.63268 0.61677 0.9511 0.0
O64 O 0.53425 0.61579 0.88505 0.0
C65 C 0.64374 0.57106 0.91938 0.0
O66 O 0.69193 0.7827 0.89795 0.0
C67 C 0.51943 0.61875 0.92341 0.0
O68 O 0.63438 0.82664 0.92547 0.0
O69 O 0.53468 0.67231 0.94991 0.0
C70 C 0.82286 0.20891 0.78811 0.0
O71 O 0.78795 0.23745 0.79082 0.0
Cd72 Cd 0.75391 0.3013 0.84879 0.0
O73 O 0.84708 0.21159 0.82066 0.0
Cd74 Cd 0.84292 0.26604 0.89963 0.0
C75 C 0.76264 0.13439 0.92105 0.0
O76 O 0.80423 0.37872 0.88141 0.0
O77 O 0.80246 0.35222 0.95058 0.0
O78 O 0.90064 0.35233 0.88406 0.0
C79 C 0.7913 0.39801 0.91896 0.0
O80 O 0.74272 0.18606 0.89826 0.0
C81 C 0.91556 0.34921 0.92238 0.0
O82 O 0.8006 0.14187 0.92483 0.0
O83 O 0.90027 0.29576 0.94886 0.0
C84 C 0.62243 0.83356 0.60934 0.0
O85 O 0.65558 0.86844 0.60059 0.0
Cd86 Cd 0.68889 0.86231 0.53094 0.0
O87 O 0.60177 0.79941 0.57891 0.0
Cd88 Cd 0.60355 0.79821 0.49657 0.0
C89 C 0.67763 0.65087 0.50514 0.0
O90 O 0.64405 0.91529 0.47872 0.0
O91 O 0.6391 0.82343 0.42673 0.0
O92 O 0.55393 0.90172 0.50814 0.0
C93 C 0.65093 0.89537 0.43911 0.0
O94 O 0.69929 0.71418 0.51491 0.0
C95 C 0.52916 0.87556 0.47972 0.0
O96 O 0.64008 0.65924 0.49895 0.0
O97 O 0.53676 0.80551 0.4611 0.0
C98 C 0.81074 0.14093 0.60786 0.0
O99 O 0.77749 0.10676 0.59875 0.0
Cd100 Cd 0.74415 0.11405 0.52913 0.0
O101 O 0.83163 0.17541 0.57775 0.0
Cd102 Cd 0.83027 0.17868 0.4954 0.0
C103 C 0.75612 0.32601 0.50456 0.0
O104 O 0.78939 0.0629 0.47699 0.0
O105 O 0.79487 0.15478 0.42518 0.0
O106 O 0.87937 0.07406 0.50685 0.0
C107 C 0.78252 0.08319 0.43744 0.0
O108 O 0.73435 0.26263 0.51386 0.0
C109 C 0.90444 0.10025 0.47881 0.0
O110 O 0.7937 0.31764 0.49852 0.0
O111 O 0.89724 0.17071 0.46044 0.0
C112 C 0.25886 0.98195 -0.03805 0.0
C113 C 0.2401 0.05961 -0.03507 0.0
H114 H 0.25158 0.84879 -0.03658 0.0
C115 C 0.19823 0.0618 -0.03806 0.0
H116 H 0.29089 0.9779 -0.0361 0.0
C117 C 0.17552 -0.01223 -0.03805 0.0
C118 C 0.19429 0.91012 -0.03506 0.0
H119 H 0.1828 0.12094 -0.0366 0.0
H120 H 0.14348 -0.00817 -0.03608 0.0
C121 C 0.23615 0.90792 -0.03806 0.0
C122 C 0.23906 0.56033 0.40161 0.0
C123 C 0.19717 0.5659 0.40116 0.0
H124 H 0.29024 0.48099 0.40156 0.0
C125 C 0.17492 0.49109 0.40185 0.0
H126 H 0.25739 0.61649 0.40139 0.0
C127 C 0.19396 0.41321 0.40169 0.0
C128 C 0.23585 0.40763 0.40125 0.0
H129 H 0.14278 0.49255 0.40157 0.0
H130 H 0.17562 0.35705 0.40153 0.0
C131 C 0.2581 0.48246 0.40185 0.0
C132 C 0.6759 -0.01264 0.93976 0.0
C133 C 0.69454 0.90959 0.9366 0.0
H134 H 0.68335 0.12051 0.93847 0.0
C135 C 0.73642 0.90716 0.93921 0.0
H136 H 0.64386 -0.00842 0.93805 0.0
C137 C 0.75923 0.98108 0.93921 0.0
C138 C 0.74056 0.05888 0.93657 0.0
H139 H 0.75176 0.84794 0.93755 0.0
H140 H 0.79125 0.97686 0.93707 0.0
C141 C 0.69871 0.06127 0.93973 0.0
C142 C 0.73927 0.5623 0.5019 0.0
C143 C 0.69736 0.56739 0.50216 0.0
H144 H 0.79065 0.48353 0.50201 0.0
C145 C 0.6753 0.49234 0.50115 0.0
H146 H 0.75745 0.61867 0.50236 0.0
C147 C 0.69454 0.41469 0.50122 0.0
C148 C 0.73644 0.40958 0.50188 0.0
H149 H 0.64316 0.49344 0.50128 0.0
H150 H 0.67635 0.35832 0.50115 0.0
C151 C 0.75851 0.48465 0.50155 0.0
C152 C 0.30787 0.10251 0.17228 0.0
C153 C 0.3314 0.16968 0.15736 0.0
H154 H 0.28247 0.03946 0.22769 0.0
C155 C 0.35323 0.21728 0.18799 0.0
H156 H 0.29023 0.06599 0.14921 0.0
C157 C 0.34848 0.20282 0.23327 0.0
C158 C 0.32144 0.1413 0.24823 0.0
H159 H 0.37075 0.27076 0.17721 0.0
H160 H 0.36335 0.24428 0.25638 0.0
C161 C 0.30293 0.08837 0.21726 0.0
C162 C 0.08491 0.76816 0.2329 0.0
C163 C 0.11159 0.83049 0.24779 0.0
H164 H 0.06315 0.69902 0.17694 0.0
C165 C 0.12987 0.8835 0.21675 0.0
H166 H 0.07023 0.72661 0.25606 0.0
C167 C 0.1251 0.86874 0.17178 0.0
C168 C 0.10199 0.80082 0.15696 0.0
H169 H 0.15006 0.933 0.22713 0.0
H170 H 0.14262 0.9054 0.14869 0.0
C171 C 0.08034 0.75307 0.18764 0.0
C172 C 0.62169 0.86708 0.73214 0.0
C173 C 0.59967 0.79729 0.74651 0.0
H174 H 0.64603 0.93353 0.67721 0.0
C175 C 0.57914 0.74813 0.71545 0.0
H176 H 0.63839 0.9048 0.75552 0.0
C177 C 0.58378 0.76396 0.6703 0.0
C178 C 0.6095 0.82836 0.65588 0.0
H179 H 0.56286 0.69266 0.72581 0.0
H180 H 0.57005 0.72145 0.64687 0.0
C181 C 0.62659 0.88252 0.68726 0.0
C182 C 0.80609 0.09021 0.68539 0.0
C183 C 0.8236 0.14465 0.65448 0.0
H184 H 0.79408 0.06642 0.75343 0.0
C185 C 0.84978 0.20782 0.66946 0.0
H186 H 0.78631 0.04008 0.6749 0.0
C187 C 0.85452 0.22223 0.71475 0.0
C188 C 0.8336 0.17291 0.74537 0.0
H189 H 0.86385 0.25048 0.64639 0.0
H190 H 0.87123 0.27685 0.72559 0.0
C191 C 0.81107 0.10426 0.73039 0.0
C192 C 0.45449 0.42238 0.92236 0.0
C193 C 0.44426 0.4136 -0.03302 0.0
H194 H 0.48509 0.49499 0.87349 0.0
C195 C 0.4576 0.47536 -0.00309 0.0
H196 H 0.44422 0.377 0.89827 0.0
C197 C 0.48052 0.54399 -0.01738 0.0
C198 C 0.49071 0.55281 0.93799 0.0
H199 H 0.44988 0.47138 0.03148 0.0
H200 H 0.49077 0.5894 0.0067 0.0
C201 C 0.4774 0.491 0.90807 0.0
C202 C -0.02244 0.49225 -0.004 0.0
C203 C -0.00919 0.55417 -0.03384 0.0
H204 H 0.94443 0.37815 0.00565 0.0
C205 C -0.01946 0.54551 0.92153 0.0
H206 H -0.01468 0.49613 0.03057 0.0
C207 C 0.95763 0.4769 0.90716 0.0
C208 C 0.94437 0.415 0.937 0.0
H209 H -0.00926 0.59101 0.89751 0.0
H210 H 0.94988 0.47304 0.87259 0.0
C211 C 0.95464 0.42364 -0.01837 0.0
C212 C 0.49006 0.0077 0.48778 0.0
C213 C 0.49577 0.93028 0.46633 0.0
H214 H 0.45731 0.12219 0.49082 0.0
C215 C 0.4719 0.91057 0.42984 0.0
H216 H 0.50816 0.02545 0.51585 0.0
C217 C 0.44304 0.96676 0.41524 0.0
C218 C 0.43731 0.04415 0.43672 0.0
H219 H 0.4758 0.85226 0.4122 0.0
H220 H 0.42492 0.94901 0.38719 0.0
C221 C 0.46122 0.06389 0.47317 0.0
C222 C 0.96192 0.06489 0.42932 0.0
C223 C 0.93776 0.0452 0.46554 0.0
H224 H 0.00904 0.02616 0.38695 0.0
C225 C 0.94313 0.96756 0.48685 0.0
H226 H 0.95829 0.12338 0.4118 0.0
C227 C -0.0281 0.91111 0.47233 0.0
C228 C -0.00392 0.9308 0.43612 0.0
H229 H 0.92481 0.94983 0.51471 0.0
H230 H -0.02446 0.85262 0.48986 0.0
C231 C -0.00929 0.00843 0.4148 0.0
C232 C 0.19917 0.50488 0.94195 0.0
C233 C 0.18054 0.5236 -0.01787 0.0
H234 H 0.24974 0.44861 0.91089 0.0
C235 C 0.19919 0.50289 0.02183 0.0
H236 H 0.1853 0.52068 0.91089 0.0
C237 C 0.23642 0.46857 0.02181 0.0
C238 C 0.25485 0.44699 -0.01789 0.0
H239 H 0.18567 0.5154 0.0535 0.0
H240 H 0.25005 0.45647 0.05347 0.0
C241 C 0.23605 0.46508 0.94194 0.0
C242 C 0.2536 0.94843 0.49288 0.0
C243 C 0.25096 0.03575 0.48939 0.0
H244 H 0.22165 0.8321 0.49021 0.0
C245 C 0.21398 0.07435 0.49337 0.0
H246 H 0.28203 0.9179 0.48946 0.0
C247 C 0.17949 0.02536 0.49262 0.0
C248 C 0.18215 0.93804 0.48915 0.0
H249 H 0.21146 0.14169 0.49017 0.0
H250 H 0.15108 0.05591 0.48901 0.0
C251 C 0.2191 0.89945 0.49339 0.0
C252 C 0.69921 0.50454 -0.03812 0.0
C253 C 0.68039 0.52292 0.92175 0.0
H254 H 0.74994 0.4486 -0.00721 0.0
C255 C 0.69886 0.50182 0.882 0.0
H256 H 0.68548 0.52061 -0.00703 0.0
C257 C 0.73611 0.46761 0.8819 0.0
C258 C 0.75474 0.4464 0.92155 0.0
H259 H 0.68519 0.51396 0.85038 0.0
H260 H 0.74964 0.45541 0.85021 0.0
C261 C 0.7361 0.46476 -0.03822 0.0
C262 C 0.67919 0.02869 0.4131 0.0
C263 C 0.68193 0.94127 0.41561 0.0
H264 H 0.71118 0.14497 0.4157 0.0
C265 C 0.71879 0.90286 0.41008 0.0
H266 H 0.65085 0.05906 0.41769 0.0
C267 C 0.75328 0.95188 0.41006 0.0
C268 C 0.75071 0.03909 0.41433 0.0
H269 H 0.7214 0.83542 0.41248 0.0
H270 H 0.78179 0.92129 0.41241 0.0
C271 C 0.71364 0.07773 0.41182 0.0
loop_
_geom_bond_atom_site_label_1
_geom_bond_atom_site_label_2
_geom_bond_distance
_geom_bond_site_symmetry_2
_ccdc_geom_bond_type
C0 O1 1.306 . S
C0 O3 1.160 . S
O1 C0 1.306 . S
O1 Cd2 2.228 . S
Cd2 O1 2.228 . S
Cd2 O6 2.273 . S
Cd2 O10 2.277 . S
O3 C0 1.160 . S
O3 Cd4 2.203 . S
Cd4 O3 2.203 . S
Cd4 O6 2.411 . S
Cd4 O7 2.333 1_554 S
Cd4 O8 2.352 . S
Cd4 O12 2.277 . S
Cd4 O13 2.356 1_554 S
C5 O10 1.209 . S
C5 O12 1.226 . S
O6 Cd2 2.273 . S
O6 Cd4 2.411 . S
O6 C9 1.320 . S
O7 Cd4 2.333 1_556 S
O7 C9 1.214 1_556 S
O8 Cd4 2.352 . S
O8 C11 1.258 . S
C9 O6 1.320 . S
C9 O7 1.214 1_554 S
O10 Cd2 2.277 . S
O10 C5 1.209 . S
C11 O8 1.258 . S
C11 O13 1.282 1_554 S
O12 Cd4 2.277 . S
O12 C5 1.226 . S
O13 Cd4 2.356 1_556 S
O13 C11 1.282 1_556 S
C14 O15 1.306 . S
C14 O17 1.160 . S
O15 C14 1.306 . S
O15 Cd16 2.228 . S
Cd16 O15 2.228 . S
Cd16 O20 2.273 . S
Cd16 O24 2.277 . S
O17 C14 1.160 . S
O17 Cd18 2.203 . S
Cd18 O17 2.203 . S
Cd18 O20 2.411 . S
Cd18 O21 2.333 1_554 S
Cd18 O22 2.352 . S
Cd18 O26 2.277 . S
Cd18 O27 2.356 1_554 S
C19 O24 1.209 . S
C19 O26 1.226 . S
O20 Cd16 2.273 . S
O20 Cd18 2.411 . S
O20 C23 1.320 . S
O21 Cd18 2.333 1_556 S
O21 C23 1.214 1_556 S
O22 Cd18 2.352 . S
O22 C25 1.258 . S
C23 O20 1.320 . S
C23 O21 1.214 1_554 S
O24 Cd16 2.277 . S
O24 C19 1.209 . S
C25 O22 1.258 . S
C25 O27 1.282 1_554 S
O26 Cd18 2.277 . S
O26 C19 1.226 . S
O27 Cd18 2.356 1_556 S
O27 C25 1.282 1_556 S
C28 O29 1.306 . S
C28 O31 1.160 . S
O29 C28 1.306 . S
O29 Cd30 2.228 . S
Cd30 O29 2.228 . S
Cd30 O34 2.273 . S
Cd30 O38 2.277 . S
O31 C28 1.160 . S
O31 Cd32 2.203 . S
Cd32 O31 2.203 . S
Cd32 O34 2.411 . S
Cd32 O35 2.333 . S
Cd32 O36 2.352 . S
Cd32 O40 2.277 . S
Cd32 O41 2.356 . S
C33 O38 1.209 . S
C33 O40 1.226 . S
O34 Cd30 2.273 . S
O34 Cd32 2.411 . S
O34 C37 1.320 . S
O35 Cd32 2.333 . S
O35 C37 1.214 . S
O36 Cd32 2.352 . S
O36 C39 1.258 . S
C37 O34 1.320 . S
C37 O35 1.214 . S
O38 Cd30 2.277 . S
O38 C33 1.209 . S
C39 O36 1.258 . S
C39 O41 1.282 . S
O40 Cd32 2.277 . S
O40 C33 1.226 . S
O41 Cd32 2.356 . S
O41 C39 1.282 . S
C42 O43 1.306 . S
C42 O45 1.160 . S
O43 C42 1.306 . S
O43 Cd44 2.228 . S
Cd44 O43 2.228 . S
Cd44 O48 2.273 . S
Cd44 O52 2.277 . S
O45 C42 1.160 . S
O45 Cd46 2.203 . S
Cd46 O45 2.203 . S
Cd46 O48 2.411 . S
Cd46 O49 2.333 . S
Cd46 O50 2.352 . S
Cd46 O54 2.277 . S
Cd46 O55 2.356 . S
C47 O52 1.209 . S
C47 O54 1.226 . S
O48 Cd44 2.273 . S
O48 Cd46 2.411 . S
O48 C51 1.320 . S
O49 Cd46 2.333 . S
O49 C51 1.214 . S
O50 Cd46 2.352 . S
O50 C53 1.258 . S
C51 O48 1.320 . S
C51 O49 1.214 . S
O52 Cd44 2.277 . S
O52 C47 1.209 . S
C53 O50 1.258 . S
C53 O55 1.282 . S
O54 Cd46 2.277 . S
O54 C47 1.226 . S
O55 Cd46 2.356 . S
O55 C53 1.282 . S
C56 O57 1.306 . S
C56 O59 1.160 . S
O57 C56 1.306 . S
O57 Cd58 2.228 . S
Cd58 O57 2.228 . S
Cd58 O62 2.273 . S
Cd58 O66 2.277 . S
O59 C56 1.160 . S
O59 Cd60 2.203 . S
Cd60 O59 2.203 . S
Cd60 O62 2.411 . S
Cd60 O63 2.333 1_556 S
Cd60 O64 2.352 . S
Cd60 O68 2.277 . S
Cd60 O69 2.356 1_556 S
C61 O66 1.209 . S
C61 O68 1.226 . S
O62 Cd58 2.273 . S
O62 Cd60 2.411 . S
O62 C65 1.320 . S
O63 Cd60 2.333 1_554 S
O63 C65 1.214 1_554 S
O64 Cd60 2.352 . S
O64 C67 1.258 . S
C65 O62 1.320 . S
C65 O63 1.214 1_556 S
O66 Cd58 2.277 . S
O66 C61 1.209 . S
C67 O64 1.258 . S
C67 O69 1.282 1_556 S
O68 Cd60 2.277 . S
O68 C61 1.226 . S
O69 Cd60 2.356 1_554 S
O69 C67 1.282 1_554 S
C70 O71 1.306 . S
C70 O73 1.160 . S
O71 C70 1.306 . S
O71 Cd72 2.228 . S
Cd72 O71 2.228 . S
Cd72 O76 2.273 . S
Cd72 O80 2.277 . S
O73 C70 1.160 . S
O73 Cd74 2.203 . S
Cd74 O73 2.203 . S
Cd74 O76 2.411 . S
Cd74 O77 2.333 1_556 S
Cd74 O78 2.352 . S
Cd74 O82 2.277 . S
Cd74 O83 2.356 1_556 S
C75 O80 1.209 . S
C75 O82 1.226 . S
O76 Cd72 2.273 . S
O76 Cd74 2.411 . S
O76 C79 1.320 . S
O77 Cd74 2.333 1_554 S
O77 C79 1.214 1_554 S
O78 Cd74 2.352 . S
O78 C81 1.258 . S
C79 O76 1.320 . S
C79 O77 1.214 1_556 S
O80 Cd72 2.277 . S
O80 C75 1.209 . S
C81 O78 1.258 . S
C81 O83 1.282 1_556 S
O82 Cd74 2.277 . S
O82 C75 1.226 . S
O83 Cd74 2.356 1_554 S
O83 C81 1.282 1_554 S
C84 O85 1.306 . S
C84 O87 1.160 . S
O85 C84 1.306 . S
O85 Cd86 2.228 . S
Cd86 O85 2.228 . S
Cd86 O90 2.273 . S
Cd86 O94 2.277 . S
O87 C84 1.160 . S
O87 Cd88 2.203 . S
Cd88 O87 2.203 . S
Cd88 O90 2.411 . S
Cd88 O91 2.333 . S
Cd88 O92 2.352 . S
Cd88 O96 2.277 . S
Cd88 O97 2.356 . S
C89 O94 1.209 . S
C89 O96 1.226 . S
O90 Cd86 2.273 . S
O90 Cd88 2.411 . S
O90 C93 1.320 . S
O91 Cd88 2.333 . S
O91 C93 1.214 . S
O92 Cd88 2.352 . S
O92 C95 1.258 . S
C93 O90 1.320 . S
C93 O91 1.214 . S
O94 Cd86 2.277 . S
O94 C89 1.209 . S
C95 O92 1.258 . S
C95 O97 1.282 . S
O96 Cd88 2.277 . S
O96 C89 1.226 . S
O97 Cd88 2.356 . S
O97 C95 1.282 . S
C98 O99 1.306 . S
C98 O101 1.160 . S
O99 C98 1.306 . S
O99 Cd100 2.228 . S
Cd100 O99 2.228 . S
Cd100 O104 2.273 . S
Cd100 O108 2.277 . S
O101 C98 1.160 . S
O101 Cd102 2.203 . S
Cd102 O101 2.203 . S
Cd102 O104 2.411 . S
Cd102 O105 2.333 . S
Cd102 O106 2.352 . S
Cd102 O110 2.277 . S
Cd102 O111 2.356 . S
C103 O108 1.209 . S
C103 O110 1.226 . S
O104 Cd100 2.273 . S
O104 Cd102 2.411 . S
O104 C107 1.320 . S
O105 Cd102 2.333 . S
O105 C107 1.214 . S
O106 Cd102 2.352 . S
O106 C109 1.258 . S
C107 O104 1.320 . S
C107 O105 1.214 . S
O108 Cd100 2.277 . S
O108 C103 1.209 . S
C109 O106 1.258 . S
C109 O111 1.282 . S
O110 Cd102 2.277 . S
O110 C103 1.226 . S
O111 Cd102 2.356 . S
O111 C109 1.282 . S
C112 C113 1.387 1_556 S
C112 H116 0.950 . S
C112 C121 1.390 1_545 S
C113 C112 1.387 1_554 S
C113 C115 1.387 . S
H114 C121 0.950 . S
C115 C113 1.387 . S
C115 C117 1.390 1_545 S
C115 H119 0.950 . S
H116 C112 0.950 . S
C117 C115 1.390 1_565 S
C117 C118 1.387 . S
C117 H120 0.950 . S
C118 C117 1.387 . S
C118 C121 1.387 1_554 S
H119 C115 0.950 . S
H120 C117 0.950 . S
C121 C112 1.390 1_565 S
C121 H114 0.950 . S
C121 C118 1.387 1_556 S
C122 C123 1.387 . S
C122 H126 0.950 . S
C122 C131 1.390 . S
C123 C122 1.387 . S
C123 C125 1.387 . S
H124 C131 0.950 . S
C125 C123 1.387 . S
C125 C127 1.390 . S
C125 H129 0.950 . S
H126 C122 0.950 . S
C127 C125 1.390 . S
C127 C128 1.387 . S
C127 H130 0.950 . S
C128 C127 1.387 . S
C128 C131 1.387 . S
H129 C125 0.950 . S
H130 C127 0.950 . S
C131 C122 1.390 . S
C131 H124 0.950 . S
C131 C128 1.387 . S
C132 C133 1.387 . S
C132 H136 0.950 . S
C132 C141 1.390 1_565 S
C133 C132 1.387 . S
C133 C135 1.387 1_556 S
H134 C141 0.950 . S
C135 C133 1.387 1_554 S
C135 C137 1.390 1_565 S
C135 H139 0.950 . S
H136 C132 0.950 . S
C137 C135 1.390 1_545 S
C137 C138 1.387 1_554 S
C137 H140 0.950 . S
C138 C137 1.387 1_556 S
C138 C141 1.387 . S
H139 C135 0.950 . S
H140 C137 0.950 . S
C141 C132 1.390 1_545 S
C141 H134 0.950 . S
C141 C138 1.387 . S
C142 C143 1.387 . S
C142 H146 0.950 . S
C142 C151 1.390 . S
C143 C142 1.387 . S
C143 C145 1.387 . S
H144 C151 0.950 . S
C145 C143 1.387 . S
C145 C147 1.390 . S
C145 H149 0.950 . S
H146 C142 0.950 . S
C147 C145 1.390 . S
C147 C148 1.387 . S
C147 H150 0.950 . S
C148 C147 1.387 . S
C148 C151 1.387 . S
H149 C145 0.950 . S
H150 C147 0.950 . S
C151 C142 1.390 . S
C151 H144 0.950 . S
C151 C148 1.387 . S
C152 C153 1.387 . S
C152 H156 0.950 . S
C152 C161 1.390 . S
C153 C152 1.387 . S
C153 C155 1.387 . S
H154 C161 0.950 . S
C155 C153 1.387 . S
C155 C157 1.390 . S
C155 H159 0.950 . S
H156 C152 0.950 . S
C157 C155 1.390 . S
C157 C158 1.387 . S
C157 H160 0.950 . S
C158 C157 1.387 . S
C158 C161 1.387 . S
H159 C155 0.950 . S
H160 C157 0.950 . S
C161 C152 1.390 . S
C161 H154 0.950 . S
C161 C158 1.387 . S
C162 C163 1.387 . S
C162 H166 0.950 . S
C162 C171 1.390 . S
C163 C162 1.387 . S
C163 C165 1.387 . S
H164 C171 0.950 . S
C165 C163 1.387 . S
C165 C167 1.390 . S
C165 H169 0.950 . S
H166 C162 0.950 . S
C167 C165 1.390 . S
C167 C168 1.387 . S
C167 H170 0.950 . S
C168 C167 1.387 . S
C168 C171 1.387 . S
H169 C165 0.950 . S
H170 C167 0.950 . S
C171 C162 1.390 . S
C171 H164 0.950 . S
C171 C168 1.387 . S
C172 C173 1.387 . S
C172 H176 0.950 . S
C172 C181 1.390 . S
C173 C172 1.387 . S
C173 C175 1.387 . S
H174 C181 0.950 . S
C175 C173 1.387 . S
C175 C177 1.390 . S
C175 H179 0.950 . S
H176 C172 0.950 . S
C177 C175 1.390 . S
C177 C178 1.387 . S
C177 H180 0.950 . S
C178 C177 1.387 . S
C178 C181 1.387 . S
H179 C175 0.950 . S
H180 C177 0.950 . S
C181 C172 1.390 . S
C181 H174 0.950 . S
C181 C178 1.387 . S
C182 C183 1.387 . S
C182 H186 0.950 . S
C182 C191 1.390 . S
C183 C182 1.387 . S
C183 C185 1.387 . S
H184 C191 0.950 . S
C185 C183 1.387 . S
C185 C187 1.390 . S
C185 H189 0.950 . S
H186 C182 0.950 . S
C187 C185 1.390 . S
C187 C188 1.387 . S
C187 H190 0.950 . S
C188 C187 1.387 . S
C188 C191 1.387 . S
H189 C185 0.950 . S
H190 C187 0.950 . S
C191 C182 1.390 . S
C191 H184 0.950 . S
C191 C188 1.387 . S
C192 C193 1.407 . S
C192 H196 0.950 . S
C192 C201 1.390 . S
C193 C192 1.407 . S
C193 C195 1.368 1_556 S
H194 C201 0.950 . S
C195 C193 1.368 1_554 S
C195 C197 1.390 . S
C195 H199 0.950 . S
H196 C192 0.950 . S
C197 C195 1.390 . S
C197 C198 1.407 . S
C197 H200 0.950 . S
C198 C197 1.407 . S
C198 C201 1.368 1_554 S
H199 C195 0.950 . S
H200 C197 0.950 . S
C201 C192 1.390 . S
C201 H194 0.950 . S
C201 C198 1.368 1_556 S
C202 C203 1.368 1_554 S
C202 H206 0.950 . S
C202 C211 1.390 1_455 S
C203 C202 1.368 1_556 S
C203 C205 1.406 . S
H204 C211 0.950 . S
C205 C203 1.406 . S
C205 C207 1.390 1_455 S
C205 H209 0.950 . S
H206 C202 0.950 . S
C207 C205 1.390 1_655 S
C207 C208 1.368 1_556 S
C207 H210 0.950 . S
C208 C207 1.368 1_554 S
C208 C211 1.406 . S
H209 C205 0.950 . S
H210 C207 0.950 . S
C211 C202 1.390 1_655 S
C211 H204 0.950 . S
C211 C208 1.406 . S
C212 C213 1.387 . S
C212 H216 0.950 . S
C212 C221 1.390 1_565 S
C213 C212 1.387 . S
C213 C215 1.387 . S
H214 C221 0.950 . S
C215 C213 1.387 . S
C215 C217 1.390 1_565 S
C215 H219 0.950 . S
H216 C212 0.950 . S
C217 C215 1.390 1_545 S
C217 C218 1.387 . S
C217 H220 0.950 . S
C218 C217 1.387 . S
C218 C221 1.387 . S
H219 C215 0.950 . S
H220 C217 0.950 . S
C221 C212 1.390 1_545 S
C221 H214 0.950 . S
C221 C218 1.387 . S
C222 C223 1.387 . S
C222 H226 0.950 . S
C222 C231 1.390 1_645 S
C223 C222 1.387 . S
C223 C225 1.387 . S
H224 C231 0.950 . S
C225 C223 1.387 . S
C225 C227 1.390 1_645 S
C225 H229 0.950 . S
H226 C222 0.950 . S
C227 C225 1.390 1_465 S
C227 C228 1.387 . S
C227 H230 0.950 . S
C228 C227 1.387 . S
C228 C231 1.387 . S
H229 C225 0.950 . S
H230 C227 0.950 . S
C231 C222 1.390 1_465 S
C231 H224 0.950 . S
C231 C228 1.387 . S
C232 C233 1.387 1_556 S
C232 H236 0.950 . S
C232 C241 1.390 . S
C233 C232 1.387 1_554 S
C233 C235 1.387 . S
H234 C241 0.950 . S
C235 C233 1.387 . S
C235 C237 1.390 . S
C235 H239 0.950 . S
H236 C232 0.950 . S
C237 C235 1.390 . S
C237 C238 1.387 . S
C237 H240 0.950 . S
C238 C237 1.387 . S
C238 C241 1.387 1_554 S
H239 C235 0.950 . S
H240 C237 0.950 . S
C241 C232 1.390 . S
C241 H234 0.950 . S
C241 C238 1.387 1_556 S
C242 C243 1.387 . S
C242 H246 0.950 . S
C242 C251 1.390 1_545 S
C243 C242 1.387 . S
C243 C245 1.387 . S
H244 C251 0.950 . S
C245 C243 1.387 . S
C245 C247 1.390 1_545 S
C245 H249 0.950 . S
H246 C242 0.950 . S
C247 C245 1.390 1_565 S
C247 C248 1.387 . S
C247 H250 0.950 . S
C248 C247 1.387 . S
C248 C251 1.387 . S
H249 C245 0.950 . S
H250 C247 0.950 . S
C251 C242 1.390 1_565 S
C251 H244 0.950 . S
C251 C248 1.387 . S
C252 C253 1.387 1_554 S
C252 H256 0.950 . S
C252 C261 1.390 . S
C253 C252 1.387 1_556 S
C253 C255 1.387 . S
H254 C261 0.950 . S
C255 C253 1.387 . S
C255 C257 1.390 . S
C255 H259 0.950 . S
H256 C252 0.950 . S
C257 C255 1.390 . S
C257 C258 1.387 . S
C257 H260 0.950 . S
C258 C257 1.387 . S
C258 C261 1.387 1_556 S
H259 C255 0.950 . S
H260 C257 0.950 . S
C261 C252 1.390 . S
C261 H254 0.950 . S
C261 C258 1.387 1_554 S
C262 C263 1.387 . S
C262 H266 0.950 . S
C262 C271 1.390 1_565 S
C263 C262 1.387 . S
C263 C265 1.387 . S
H264 C271 0.950 . S
C265 C263 1.387 . S
C265 C267 1.390 1_565 S
C265 H269 0.950 . S
H266 C262 0.950 . S
C267 C265 1.390 1_545 S
C267 C268 1.387 . S
C267 H270 0.950 . S
C268 C267 1.387 . S
C268 C271 1.387 . S
H269 C265 0.950 . S
H270 C267 0.950 . S
C271 C262 1.390 1_545 S
C271 H264 0.950 . S
C271 C268 1.387 . S
C113 C5 1.606 . S
C118 C19 1.606 . S
C123 C47 1.608 . S
C128 C33 1.608 . S
C133 C61 1.606 . S
C138 C75 1.606 . S
C143 C89 1.606 . S
C148 C103 1.606 . S
C153 C0 1.645 . S
C158 C28 1.645 . S
C163 C42 1.647 . S
C168 C14 1.647 . S
C173 C56 1.645 . S
C178 C84 1.645 . S
C183 C98 1.647 . S
C188 C70 1.647 . S
C193 C11 1.550 1_556 S
C198 C67 1.550 1_554 S
C203 C25 1.547 1_556 S
C208 C81 1.547 1_554 S
C213 C95 1.553 . S
C218 C39 1.553 . S
C223 C109 1.550 . S
C228 C53 1.550 . S
C233 C23 1.172 . S
C238 C9 1.172 . S
C243 C37 1.172 . S
C248 C51 1.172 . S
C253 C65 1.173 . S
C258 C79 1.173 . S
C263 C93 1.172 . S
C268 C107 1.172 . S
