# Generated by pormake.
# Topology uoj, (4)-cn, num edge types: 1
# Building blocks:
#     Node 0, Type 0, BuildingBlock: ICAMEG_clean_sbu_1, # of connection points: 4
#     Node 1, Type 0, BuildingBlock: ICAMEG_clean_sbu_1, # of connection points: 4
#     Node 2, Type 0, BuildingBlock: ICAMEG_clean_sbu_1, # of connection points: 4
#     Node 3, Type 0, BuildingBlock: ICAMEG_clean_sbu_1, # of connection points: 4
#     Node 4, Type 0, BuildingBlock: ICAMEG_clean_sbu_1, # of connection points: 4
#     Node 5, Type 0, BuildingBlock: ICAMEG_clean_sbu_1, # of connection points: 4
#     Node 6, Type 0, BuildingBlock: ICAMEG_clean_sbu_1, # of connection points: 4
#     Node 7, Type 0, BuildingBlock: ICAMEG_clean_sbu_1, # of connection points: 4
#     Edge 8, Type (0, 0), BuildingBlock: XUDNAN_clean_linker_2, # of connection points: 2
#     Edge 9, Type (0, 0), BuildingBlock: XUDNAN_clean_linker_2, # of connection points: 2
#     Edge 10, Type (0, 0), BuildingBlock: XUDNAN_clean_linker_2, # of connection points: 2
#     Edge 11, Type (0, 0), BuildingBlock: XUDNAN_clean_linker_2, # of connection points: 2
#     Edge 12, Type (0, 0), BuildingBlock: XUDNAN_clean_linker_2, # of connection points: 2
#     Edge 13, Type (0, 0), BuildingBlock: XUDNAN_clean_linker_2, # of connection points: 2
#     Edge 14, Type (0, 0), BuildingBlock: XUDNAN_clean_linker_2, # of connection points: 2
#     Edge 15, Type (0, 0), BuildingBlock: XUDNAN_clean_linker_2, # of connection points: 2
#     Edge 16, Type (0, 0), BuildingBlock: XUDNAN_clean_linker_2, # of connection points: 2
#     Edge 17, Type (0, 0), BuildingBlock: XUDNAN_clean_linker_2, # of connection points: 2
#     Edge 18, Type (0, 0), BuildingBlock: XUDNAN_clean_linker_2, # of connection points: 2
#     Edge 19, Type (0, 0), BuildingBlock: XUDNAN_clean_linker_2, # of connection points: 2
#     Edge 20, Type (0, 0), BuildingBlock: XUDNAN_clean_linker_2, # of connection points: 2
#     Edge 21, Type (0, 0), BuildingBlock: XUDNAN_clean_linker_2, # of connection points: 2
#     Edge 22, Type (0, 0), BuildingBlock: XUDNAN_clean_linker_2, # of connection points: 2
#     Edge 23, Type (0, 0), BuildingBlock: XUDNAN_clean_linker_2, # of connection points: 2
# Relax obj value: 0.081
# Max RMSD: 0.092
# Mean RMSD: 0.091
data_MOF--net-uoj--node1-ICAMEG_clean_sbu_1--edge1-XUDNAN_clean_linker_2
_symmetry_space_group_name_H-M    P1
_symmetry_Int_Tables_number       1
_symmetry_cell_setting            triclinic
loop_
_symmetry_equiv_pos_as_xyz
'x, y, z'
_cell_length_a     36.535929
_cell_length_b     36.57527
_cell_length_c     33.554459
_cell_angle_alpha  90.026844
_cell_angle_beta   89.891305
_cell_angle_gamma 89.977726
loop_
_atom_site_label
_atom_site_type_symbol
_atom_site_fract_x
_atom_site_fract_y
_atom_site_fract_z
_atom_type_partial_charge
Co0 Co 0.99837 0.30665 0.40108 0.0
Co1 Co 0.07795 0.30231 0.45567 0.0
O2 O 0.03159 0.28188 0.43786 0.0
C3 C 0.95362 0.28891 0.47159 0.0
O4 O 0.97902 0.3051 0.49285 0.0
C5 C 0.13025 0.24359 0.43752 0.0
O6 O 0.14997 0.26909 0.42022 0.0
O7 O 0.09285 0.3098 0.39937 0.0
O8 O 0.04046 0.32415 0.36768 0.0
H9 H 0.18128 0.39295 0.45454 0.0
H10 H 0.98759 0.22807 0.42001 0.0
O11 O 0.95598 0.28871 0.4337 0.0
H12 H 0.00472 0.2332 0.27431 0.0
H13 H 0.88293 0.31775 0.32025 0.0
H14 H 0.99769 0.37843 0.3601 0.0
H15 H 0.00602 0.28962 0.31453 0.0
H16 H 0.92639 0.28686 0.36529 0.0
O17 O 0.09962 0.25175 0.45366 0.0
H18 H 0.12247 0.36664 0.4327 0.0
H19 H 0.13337 0.28055 0.51675 0.0
H20 H 0.95513 0.41024 0.3149 0.0
H21 H 0.9857 0.17104 0.38086 0.0
H22 H 0.89727 0.37985 0.29465 0.0
H23 H 0.99435 0.17338 0.30746 0.0
O24 O 1.00017 0.35271 0.43278 0.0
H25 H 0.02443 0.2294 0.5684 0.0
H26 H 0.07551 0.34884 0.52895 0.0
H27 H 0.05364 0.33983 0.59781 0.0
H28 H 0.02791 0.27975 0.61794 0.0
H29 H 0.04631 0.23967 0.49973 0.0
H30 H 0.19234 0.30589 0.53946 0.0
H31 H 0.21663 0.3625 0.50829 0.0
O32 O 0.05729 0.35289 0.45715 0.0
C33 C 0.07524 0.32061 0.3688 0.0
C34 C 0.17095 0.3683 0.4684 0.0
C35 C 0.17715 0.31945 0.51608 0.0
N36 N 0.12441 0.32224 0.47359 0.0
C37 C 0.13765 0.35331 0.4562 0.0
C38 C 0.14373 0.30528 0.50316 0.0
C39 C 0.19077 0.35121 0.49856 0.0
C40 C 0.99113 0.22936 0.38806 0.0
N41 N 0.99669 0.26218 0.36957 0.0
C42 C 0.99014 0.19695 0.36606 0.0
C43 C 0.99504 0.19828 0.32488 0.0
C44 C 1.00087 0.23183 0.30626 0.0
C45 C 1.00167 0.26368 0.32922 0.0
C46 C 0.90809 0.33124 0.32878 0.0
C47 C 0.97268 0.36494 0.35123 0.0
C48 C 0.93276 0.31391 0.35432 0.0
N49 N 0.96466 0.33072 0.36504 0.0
C50 C 0.94863 0.38313 0.32572 0.0
C51 C 0.91616 0.36608 0.31442 0.0
C52 C 0.02692 0.36872 0.44979 0.0
C53 C 0.03575 0.25565 0.56004 0.0
C54 C 0.06429 0.32263 0.53743 0.0
C55 C 0.05203 0.31767 0.57651 0.0
C56 C 0.03763 0.28394 0.5878 0.0
N57 N 0.0624 0.29472 0.51039 0.0
C58 C 0.04835 0.26157 0.52126 0.0
Co59 Co 0.29012 0.97947 0.57905 0.0
Co60 Co 0.32001 0.89494 0.54737 0.0
O61 O 0.28453 0.93469 0.54846 0.0
C62 C 0.27823 0.0359 0.51715 0.0
O63 O 0.31043 0.04935 0.52643 0.0
C64 C 0.25193 0.85964 0.57453 0.0
O65 O 0.25154 0.88356 0.60369 0.0
O66 O 0.3234 0.89451 0.60649 0.0
O67 O 0.31198 0.95249 0.62515 0.0
H68 H 0.43545 0.8292 0.58577 0.0
H69 H 0.21838 0.95741 0.54557 0.0
O70 O 0.26703 0.00666 0.53379 0.0
H71 H 0.19709 0.97155 0.6899 0.0
H72 H 0.24956 0.10231 0.63148 0.0
H73 H 0.34958 0.01179 0.62729 0.0
H74 H 0.25774 0.98436 0.66081 0.0
H75 H 0.24226 0.04452 0.59443 0.0
O76 O 0.27813 0.85944 0.54936 0.0
H77 H 0.39126 0.88018 0.58643 0.0
H78 H 0.32224 0.82276 0.50622 0.0
H79 H 0.35799 0.06917 0.66488 0.0
H80 H 0.15714 0.9448 0.57324 0.0
H81 H 0.30776 0.11491 0.66709 0.0
H82 H 0.14621 0.95167 0.64594 0.0
O83 O 0.33987 0.98698 0.55555 0.0
H84 H 0.25495 0.89722 0.41553 0.0
H85 H 0.37527 0.89523 0.48189 0.0
H86 H 0.3723 0.89652 0.40847 0.0
H87 H 0.31181 0.89736 0.37482 0.0
H88 H 0.25917 0.89635 0.48886 0.0
H89 H 0.36557 0.77099 0.5049 0.0
H90 H 0.42271 0.77409 0.54477 0.0
O91 O 0.36186 0.93017 0.54523 0.0
C92 C 0.32165 0.91968 0.63275 0.0
C93 C 0.41072 0.82757 0.56815 0.0
C94 C 0.37147 0.79488 0.52281 0.0
N95 N 0.3544 0.85457 0.54609 0.0
C96 C 0.38566 0.85641 0.56829 0.0
C97 C 0.34701 0.82424 0.52373 0.0
C98 C 0.40353 0.79665 0.54518 0.0
C99 C 0.21383 0.9607 0.57721 0.0
N100 N 0.24177 0.97138 0.60162 0.0
C101 C 0.17909 0.95342 0.59272 0.0
C102 C 0.17299 0.95723 0.63351 0.0
C103 C 0.20153 0.96832 0.65819 0.0
C104 C 0.23592 0.97529 0.64162 0.0
C105 C 0.27164 0.08258 0.63078 0.0
C106 C 0.32756 0.03152 0.62826 0.0
C107 C 0.26767 0.04982 0.60984 0.0
N108 N 0.29545 0.02476 0.6088 0.0
C109 C 0.33249 0.06397 0.64954 0.0
C110 C 0.3043 0.08963 0.65075 0.0
C111 C 0.36567 0.96486 0.54643 0.0
C112 C 0.28147 0.89676 0.42984 0.0
C113 C 0.34884 0.89579 0.46746 0.0
C114 C 0.34733 0.89642 0.42588 0.0
C115 C 0.31338 0.89687 0.40702 0.0
N116 N 0.31741 0.89549 0.48964 0.0
C117 C 0.28403 0.89615 0.47136 0.0
Co118 Co 0.99599 0.7049 0.41184 0.0
Co119 Co 0.91962 0.68844 0.46937 0.0
O120 O 0.96202 0.7178 0.45446 0.0
C121 C 0.04237 0.7155 0.48252 0.0
O122 O 0.01921 0.69432 0.50153 0.0
C123 C 0.86232 0.74632 0.46381 0.0
O124 O 0.8451 0.72609 0.4375 0.0
O125 O 0.90298 0.68771 0.4132 0.0
O126 O 0.95492 0.68733 0.37726 0.0
H127 H 0.82874 0.58632 0.45449 0.0
H128 H 0.99733 0.77958 0.44618 0.0
O129 O 0.03767 0.72242 0.44566 0.0
H130 H 0.97282 0.79663 0.3029 0.0
H131 H 0.1067 0.72422 0.3248 0.0
H132 H 0.00363 0.64213 0.35651 0.0
H133 H 0.98136 0.73482 0.33069 0.0
H134 H 0.06264 0.74022 0.37784 0.0
O135 O 0.89237 0.73535 0.47899 0.0
H136 H 0.88324 0.62259 0.43658 0.0
H137 H 0.86359 0.69429 0.5339 0.0
H138 H 0.04676 0.62529 0.30289 0.0
H139 H 0.9893 0.84194 0.41956 0.0
H140 H 0.09876 0.66648 0.28677 0.0
H141 H 0.9769 0.85074 0.34744 0.0
O142 O 1.002 0.65499 0.43413 0.0
H143 H 0.96907 0.74769 0.59326 0.0
H144 H 0.93012 0.63148 0.53202 0.0
H145 H 0.95332 0.6316 0.60099 0.0
H146 H 0.97293 0.69002 0.63207 0.0
H147 H 0.9461 0.7463 0.52424 0.0
H148 H 0.80873 0.65892 0.55275 0.0
H149 H 0.79105 0.60446 0.51295 0.0
O150 O 0.94682 0.64137 0.46016 0.0
C151 C 0.92021 0.68429 0.38036 0.0
C152 C 0.8362 0.60995 0.47212 0.0
C153 C 0.82496 0.65071 0.52725 0.0
N154 N 0.87669 0.66036 0.48432 0.0
C155 C 0.86708 0.63054 0.46218 0.0
C156 C 0.85602 0.67064 0.51643 0.0
C157 C 0.81506 0.62015 0.50491 0.0
C158 C 0.99217 0.78322 0.41472 0.0
N159 N 0.99001 0.75362 0.39 0.0
C160 C 0.98754 0.81858 0.39984 0.0
C161 C 0.98055 0.8235 0.35937 0.0
C162 C 0.97824 0.79315 0.33437 0.0
C163 C 0.983 0.75821 0.3503 0.0
C164 C 0.08411 0.70608 0.3315 0.0
C165 C 0.02605 0.66031 0.34947 0.0
C166 C 0.05915 0.71494 0.36157 0.0
N167 N 0.03045 0.69226 0.37002 0.0
C168 C 0.05045 0.65057 0.31917 0.0
C169 C 0.07964 0.67368 0.31016 0.0
C170 C 0.97923 0.63261 0.44944 0.0
C171 C 0.96045 0.72209 0.58011 0.0
C172 C 0.93868 0.65701 0.54529 0.0
C173 C 0.95171 0.65691 0.58439 0.0
C174 C 0.96268 0.68971 0.60183 0.0
N175 N 0.93653 0.68889 0.52417 0.0
C176 C 0.94723 0.72115 0.54109 0.0
Co177 Co 0.68338 0.01998 0.58653 0.0
Co178 Co 0.68589 0.09014 0.51934 0.0
O179 O 0.70893 0.04889 0.54625 0.0
C180 C 0.71455 0.96241 0.53316 0.0
O181 O 0.69707 0.97667 0.50274 0.0
C182 C 0.75466 0.12226 0.54909 0.0
O183 O 0.74612 0.10811 0.58384 0.0
O184 O 0.67387 0.11285 0.57154 0.0
O185 O 0.65633 0.06379 0.60687 0.0
H186 H 0.58701 0.18318 0.49602 0.0
H187 H 0.7645 0.01794 0.58166 0.0
O188 O 0.71074 0.97575 0.56797 0.0
H189 H 0.73632 0.06019 0.7179 0.0
H190 H 0.67408 0.92143 0.69086 0.0
H191 H 0.60697 0.01624 0.61638 0.0
H192 H 0.68664 0.04512 0.67111 0.0
H193 H 0.7059 0.95965 0.64112 0.0
O194 O 0.734 0.11675 0.5191 0.0
H195 H 0.61586 0.13024 0.52896 0.0
H196 H 0.70866 0.13961 0.45323 0.0
H197 H 0.57418 0.97884 0.66597 0.0
H198 H 0.81503 0.03226 0.6277 0.0
H199 H 0.60777 0.931 0.70364 0.0
H200 H 0.80108 0.05372 0.69632 0.0
O201 O 0.64272 0.01001 0.54875 0.0
H202 H 0.76849 0.02703 0.42126 0.0
H203 H 0.64397 0.07449 0.44502 0.0
H204 H 0.65839 0.04454 0.38099 0.0
H205 H 0.72106 0.02062 0.36878 0.0
H206 H 0.75279 0.05697 0.48497 0.0
H207 H 0.681 0.19288 0.41974 0.0
H208 H 0.61965 0.21489 0.441 0.0
O209 O 0.6371 0.06479 0.51934 0.0
C210 C 0.65909 0.09826 0.60205 0.0
C211 C 0.61369 0.17377 0.48639 0.0
C212 C 0.66645 0.17924 0.44361 0.0
N213 N 0.66371 0.13164 0.49276 0.0
C214 C 0.6301 0.14374 0.50484 0.0
C215 C 0.68201 0.1491 0.46273 0.0
C216 C 0.63204 0.19157 0.45554 0.0
C217 C 0.75819 0.02682 0.61163 0.0
N218 N 0.72264 0.03045 0.62372 0.0
C219 C 0.78693 0.03507 0.6375 0.0
C220 C 0.77908 0.04716 0.67597 0.0
C221 C 0.74276 0.05082 0.6881 0.0
C222 C 0.71474 0.04231 0.66142 0.0
C223 C 0.65916 0.94221 0.67467 0.0
C224 C 0.62185 0.99562 0.63276 0.0
C225 C 0.67701 0.96387 0.6464 0.0
N226 N 0.65837 0.99029 0.626 0.0
C227 C 0.6031 0.97446 0.66076 0.0
C228 C 0.62195 0.94761 0.68185 0.0
C229 C 0.6245 0.03331 0.52859 0.0
C230 C 0.74111 0.03743 0.42618 0.0
C231 C 0.67128 0.06407 0.43995 0.0
C232 C 0.6793 0.0472 0.40361 0.0
C233 C 0.71448 0.0338 0.39677 0.0
N234 N 0.69759 0.06762 0.46858 0.0
C235 C 0.73211 0.05451 0.46213 0.0
Co236 Co 0.49188 0.79806 0.90426 0.0
Co237 Co 0.4272 0.82236 0.97509 0.0
O238 O 0.46359 0.78848 0.95276 0.0
C239 C 0.54885 0.77721 0.96436 0.0
O240 O 0.52929 0.7916 0.9932 0.0
C241 C 0.38513 0.75334 0.96457 0.0
O242 O 0.39957 0.75026 0.92886 0.0
O243 O 0.40315 0.82903 0.9224 0.0
O244 O 0.44789 0.81891 0.87773 0.0
H245 H 0.35252 0.9377 0.98061 0.0
H246 H 0.49098 0.72412 0.94015 0.0
O247 O 0.53727 0.77726 0.92862 0.0
H248 H 0.44403 0.70773 0.80363 0.0
H249 H 0.58402 0.76888 0.7969 0.0
H250 H 0.49607 0.86008 0.84766 0.0
H251 H 0.46367 0.76849 0.8272 0.0
H252 H 0.54824 0.75669 0.85785 0.0
O253 O 0.39365 0.78027 0.98686 0.0
H254 H 0.39803 0.89513 0.95234 0.0
H255 H 0.37867 0.82013 0.04661 0.0
H256 H 0.53093 0.87316 0.78628 0.0
H257 H 0.47203 0.66274 0.91774 0.0
H258 H 0.57531 0.82739 0.76055 0.0
H259 H 0.44818 0.65429 0.84908 0.0
O260 O 0.50605 0.8475 0.92416 0.0
H261 H 0.48032 0.74968 0.08812 0.0
H262 H 0.45433 0.8736 0.03762 0.0
H263 H 0.48486 0.86623 0.10262 0.0
H264 H 0.49797 0.80391 0.12831 0.0
H265 H 0.45024 0.75831 0.02305 0.0
H266 H 0.3326 0.86168 0.07567 0.0
H267 H 0.31939 0.92103 0.04272 0.0
O268 O 0.45945 0.86531 0.96362 0.0
C269 C 0.41546 0.82861 0.88683 0.0
C270 C 0.35808 0.91195 0.9953 0.0
C271 C 0.34687 0.86927 0.04862 0.0
N272 N 0.39116 0.85528 0.9979 0.0
C273 C 0.38391 0.88779 0.97949 0.0
C274 C 0.37291 0.8458 0.03195 0.0
C275 C 0.33949 0.90257 0.03013 0.0
C276 C 0.48089 0.7206 0.91014 0.0
N277 N 0.47828 0.74989 0.88506 0.0
C278 C 0.4701 0.6858 0.89765 0.0
C279 C 0.45667 0.68109 0.85915 0.0
C280 C 0.45429 0.71107 0.83365 0.0
C281 C 0.46527 0.74546 0.84721 0.0
C282 C 0.56473 0.78902 0.80778 0.0
C283 C 0.51515 0.83992 0.8365 0.0
C284 C 0.54447 0.78232 0.84236 0.0
N285 N 0.5199 0.80756 0.85616 0.0
C286 C 0.53489 0.84753 0.8018 0.0
C287 C 0.55982 0.82184 0.78739 0.0
C288 C 0.4894 0.87142 0.94519 0.0
C289 C 0.47466 0.77697 0.0773 0.0
C290 C 0.46013 0.84639 0.04849 0.0
C291 C 0.47731 0.84239 0.08538 0.0
C292 C 0.48462 0.80741 0.0998 0.0
N293 N 0.45044 0.8164 0.02661 0.0
C294 C 0.45747 0.78202 0.04056 0.0
Co295 Co 0.83454 0.59442 0.03771 0.0
Co296 Co 0.80037 0.52023 0.08876 0.0
O297 O 0.79752 0.55679 0.04667 0.0
C298 C 0.76529 0.63609 0.0446 0.0
O299 O 0.75917 0.61876 0.07821 0.0
C300 C 0.78871 0.47374 0.01692 0.0
O301 O 0.81796 0.4881 0.00038 0.0
O302 O 0.85105 0.50643 0.07164 0.0
O303 O 0.87503 0.55952 0.05008 0.0
H304 H 0.86014 0.45371 0.20228 0.0
H305 H 0.77867 0.57923 0.97586 0.0
O306 O 0.79456 0.63003 0.02492 0.0
H307 H 0.89763 0.5564 0.91075 0.0
H308 H 0.88895 0.70197 0.96519 0.0
H309 H 0.90281 0.61722 0.07839 0.0
H310 H 0.89483 0.57702 0.98067 0.0
H311 H 0.84332 0.65348 0.97724 0.0
O312 O 0.77886 0.4832 0.0518 0.0
H313 H 0.85547 0.50071 0.14978 0.0
H314 H 0.75132 0.45977 0.11578 0.0
H315 H 0.94927 0.66503 0.06725 0.0
H316 H 0.78024 0.5589 0.90578 0.0
H317 H 0.94248 0.70785 0.01028 0.0
H318 H 0.84004 0.54727 0.8728 0.0
O319 O 0.83291 0.60942 0.0946 0.0
H320 H 0.66842 0.55273 0.06576 0.0
H321 H 0.7645 0.5355 0.16705 0.0
H322 H 0.70264 0.55457 0.18808 0.0
H323 H 0.65409 0.56333 0.13723 0.0
H324 H 0.73072 0.53397 0.04604 0.0
H325 H 0.75501 0.41215 0.16764 0.0
H326 H 0.80966 0.40901 0.21145 0.0
O327 O 0.82043 0.55699 0.12713 0.0
C328 C 0.87801 0.52599 0.05998 0.0
C329 C 0.83614 0.45488 0.18347 0.0
C330 C 0.77716 0.43151 0.16398 0.0
N331 N 0.80305 0.48316 0.12998 0.0
C332 C 0.83329 0.48149 0.15378 0.0
C333 C 0.77527 0.45848 0.1346 0.0
C334 C 0.80782 0.42978 0.18857 0.0
C335 C 0.80481 0.57453 0.96161 0.0
N336 N 0.83661 0.57953 0.98226 0.0
C337 C 0.80552 0.5629 0.92197 0.0
C338 C 0.83908 0.55633 0.90349 0.0
C339 C 0.8714 0.56143 0.92478 0.0
C340 C 0.86964 0.57305 0.96439 0.0
C341 C 0.89224 0.68345 0.99007 0.0
C342 C 0.89979 0.6356 0.05342 0.0
C343 C 0.86645 0.656 0.9971 0.0
N344 N 0.87056 0.63239 0.02832 0.0
C345 C 0.92613 0.66269 0.04732 0.0
C346 C 0.92228 0.68672 0.01537 0.0
C347 C 0.82941 0.59069 0.12639 0.0
C348 C 0.68933 0.549 0.0882 0.0
C349 C 0.74356 0.53941 0.14475 0.0
C350 C 0.70855 0.55009 0.15684 0.0
C351 C 0.68132 0.55497 0.1283 0.0
N352 N 0.75126 0.53376 0.10536 0.0
C353 C 0.72464 0.53829 0.07723 0.0
Co354 Co 0.51451 0.19922 0.91074 0.0
Co355 Co 0.6016 0.19861 0.94836 0.0
O356 O 0.55331 0.22152 0.94345 0.0
C357 C 0.47762 0.22097 0.98639 0.0
O358 O 0.50502 0.20659 0.00621 0.0
C359 C 0.61672 0.28027 0.94577 0.0
O360 O 0.58193 0.28859 0.94275 0.0
O361 O 0.60664 0.19954 0.88971 0.0
O362 O 0.5511 0.18005 0.87102 0.0
H363 H 0.69824 0.10696 0.91106 0.0
H364 H 0.50805 0.27784 0.93186 0.0
O365 O 0.47664 0.2186 0.94857 0.0
H366 H 0.50986 0.27427 0.78498 0.0
H367 H 0.39041 0.19502 0.84573 0.0
H368 H 0.50534 0.12792 0.86979 0.0
H369 H 0.51343 0.21729 0.82393 0.0
H370 H 0.44016 0.22319 0.88468 0.0
O371 O 0.62721 0.24724 0.94954 0.0
H372 H 0.63765 0.13651 0.90729 0.0
H373 H 0.66859 0.21236 0.99698 0.0
H374 H 0.45638 0.09881 0.83059 0.0
H375 H 0.50389 0.33543 0.89403 0.0
H376 H 0.39839 0.13242 0.81829 0.0
H377 H 0.50493 0.33391 0.82003 0.0
O378 O 0.51819 0.15278 0.94157 0.0
H379 H 0.57065 0.2532 0.08205 0.0
H380 H 0.61269 0.14253 0.01162 0.0
H381 H 0.60509 0.14101 0.08457 0.0
H382 H 0.58407 0.19669 0.12034 0.0
H383 H 0.57811 0.25334 0.00918 0.0
H384 H 0.72963 0.18383 0.00149 0.0
H385 H 0.74471 0.13062 0.95845 0.0
O386 O 0.57913 0.14859 0.94627 0.0
C387 C 0.58455 0.18749 0.8636 0.0
C388 C 0.69195 0.13004 0.93008 0.0
C389 C 0.70958 0.17321 0.9808 0.0
N390 N 0.64945 0.17586 0.95218 0.0
C391 C 0.65765 0.14681 0.92816 0.0
C392 C 0.67499 0.18928 0.97807 0.0
C393 C 0.71802 0.14335 0.95665 0.0
C394 C 0.50833 0.27689 0.89968 0.0
N395 N 0.51115 0.2442 0.8802 0.0
C396 C 0.50604 0.30962 0.87841 0.0
C397 C 0.50666 0.30875 0.8369 0.0
C398 C 0.50947 0.27531 0.81721 0.0
C399 C 0.51167 0.24313 0.83947 0.0
C400 C 0.41557 0.18012 0.85083 0.0
C401 C 0.48028 0.14281 0.86445 0.0
C402 C 0.44381 0.1959 0.87294 0.0
N403 N 0.47572 0.1773 0.87935 0.0
C404 C 0.45261 0.12614 0.84227 0.0
C405 C 0.42007 0.145 0.83543 0.0
C406 C 0.54728 0.1343 0.9476 0.0
C407 C 0.58009 0.22884 0.06685 0.0
C408 C 0.60349 0.16689 0.02689 0.0
C409 C 0.59929 0.16586 0.06825 0.0
C410 C 0.58753 0.19711 0.0883 0.0
N411 N 0.59638 0.19821 0.00603 0.0
C412 C 0.58466 0.22886 0.02551 0.0
Co413 Co 0.20562 0.4126 0.03631 0.0
Co414 Co 0.20005 0.48921 0.09479 0.0
O415 O 0.22646 0.45842 0.05643 0.0
C416 C 0.27862 0.3882 0.06395 0.0
O417 O 0.2715 0.40496 0.09771 0.0
C418 C 0.23062 0.54234 0.03474 0.0
O419 O 0.22655 0.51837 0.00599 0.0
O420 O 0.15725 0.49178 0.05849 0.0
O421 O 0.15466 0.43371 0.03728 0.0
H422 H 0.09012 0.52812 0.17451 0.0
H423 H 0.26795 0.44506 0.99221 0.0
O424 O 0.25572 0.3898 0.03536 0.0
H425 H 0.16616 0.44104 0.89601 0.0
H426 H 0.20391 0.30003 0.94992 0.0
H427 H 0.14026 0.3681 0.05638 0.0
H428 H 0.15783 0.41813 0.96455 0.0
H429 H 0.22859 0.35857 0.97455 0.0
O430 O 0.22112 0.53459 0.07029 0.0
H431 H 0.12464 0.48912 0.12783 0.0
H432 H 0.2189 0.55579 0.14214 0.0
H433 H 0.11441 0.30986 0.03236 0.0
H434 H 0.27765 0.4678 0.92378 0.0
H435 H 0.14631 0.27539 0.97876 0.0
H436 H 0.22646 0.46598 0.8752 0.0
O437 O 0.19852 0.39453 0.09157 0.0
H438 H 0.33392 0.49349 0.12842 0.0
H439 H 0.20963 0.47284 0.18136 0.0
H440 H 0.2627 0.46732 0.22624 0.0
H441 H 0.32539 0.47777 0.19984 0.0
H442 H 0.28011 0.49835 0.08448 0.0
H443 H 0.18528 0.59566 0.18888 0.0
H444 H 0.12044 0.58187 0.20542 0.0
O445 O 0.17823 0.44544 0.12156 0.0
C446 C 0.13983 0.46489 0.04346 0.0
C447 C 0.11839 0.53437 0.16763 0.0
C448 C 0.17178 0.5723 0.17564 0.0
N449 N 0.17383 0.52004 0.13235 0.0
C450 C 0.13813 0.51234 0.14125 0.0
C451 C 0.19066 0.54967 0.14908 0.0
C452 C 0.1354 0.56454 0.18492 0.0
C453 C 0.24567 0.44387 0.97111 0.0
N454 N 0.2124 0.43029 0.98234 0.0
C455 C 0.25127 0.45693 0.93246 0.0
C456 C 0.22252 0.45596 0.90525 0.0
C457 C 0.18866 0.44202 0.91692 0.0
C458 C 0.18406 0.42924 0.95583 0.0
C459 C 0.18969 0.31485 0.9732 0.0
C460 C 0.15413 0.35342 0.03282 0.0
C461 C 0.20356 0.34799 0.9873 0.0
N462 N 0.18567 0.36693 0.01658 0.0
C463 C 0.13944 0.32039 0.01943 0.0
C464 C 0.15737 0.30104 0.98939 0.0
C465 C 0.18321 0.41097 0.12058 0.0
C466 C 0.30673 0.48901 0.14031 0.0
C467 C 0.23682 0.47734 0.1696 0.0
C468 C 0.26676 0.47425 0.19519 0.0
C469 C 0.30193 0.48013 0.18037 0.0
N470 N 0.24175 0.48615 0.13036 0.0
C471 C 0.27614 0.49189 0.11561 0.0
H472 H 0.12506 0.4262 0.16857 0.0
H473 H 0.21315 0.34827 0.15082 0.0
H474 H 0.19482 0.31614 0.21273 0.0
H475 H 0.131 0.43322 0.27315 0.0
H476 H 0.08227 0.43578 0.28123 0.0
H477 H 0.10166 0.45181 0.23506 0.0
H478 H 0.05904 0.40842 0.19548 0.0
H479 H 0.03929 0.39242 0.24151 0.0
H480 H 0.05889 0.36024 0.2068 0.0
H481 H 0.16989 0.29607 0.27936 0.0
H482 H 0.13579 0.28479 0.34185 0.0
H483 H 0.06158 0.37353 0.31328 0.0
C484 C 0.14033 0.4022 0.17758 0.0
C485 C 0.17061 0.38969 0.1552 0.0
C486 C 0.18975 0.35807 0.16758 0.0
C487 C 0.17965 0.33983 0.20271 0.0
C488 C 0.15 0.35328 0.2245 0.0
C489 C 0.1302 0.38334 0.21201 0.0
C490 C 0.09924 0.3921 0.24047 0.0
C491 C 0.10384 0.4305 0.25854 0.0
C492 C 0.06191 0.38804 0.21983 0.0
C493 C 0.10502 0.3626 0.27138 0.0
C494 C 0.13465 0.34072 0.26184 0.0
C495 C 0.14639 0.31274 0.28689 0.0
C496 C 0.12706 0.30672 0.32241 0.0
C497 C 0.09611 0.32826 0.33218 0.0
C498 C 0.08495 0.35645 0.30624 0.0
H499 H 0.36475 0.86353 0.65972 0.0
H500 H 0.29826 0.95454 0.7005 0.0
H501 H 0.31008 0.93718 0.77014 0.0
H502 H 0.34175 0.7991 0.73775 0.0
H503 H 0.38774 0.78168 0.74187 0.0
H504 H 0.37163 0.79931 0.69493 0.0
H505 H 0.42608 0.84468 0.69244 0.0
H506 H 0.44254 0.82695 0.73912 0.0
H507 H 0.43368 0.87518 0.73384 0.0
H508 H 0.3288 0.90955 0.83567 0.0
H509 H 0.36058 0.87951 0.8918 0.0
H510 H 0.41862 0.81002 0.80802 0.0
C511 C 0.35239 0.87961 0.68328 0.0
C512 C 0.32994 0.91 0.67456 0.0
C513 C 0.31509 0.93088 0.7063 0.0
C514 C 0.32155 0.92115 0.74604 0.0
C515 C 0.34347 0.89083 0.7536 0.0
C516 C 0.35926 0.87079 0.72313 0.0
C517 C 0.38428 0.84138 0.7393 0.0
C518 C 0.37051 0.8031 0.72777 0.0
C519 C 0.42399 0.84743 0.72535 0.0
C520 C 0.38016 0.84815 0.78358 0.0
C521 C 0.35595 0.87628 0.79128 0.0
C522 C 0.3479 0.88752 0.83003 0.0
C523 C 0.36592 0.87019 0.86173 0.0
C524 C 0.3922 0.84255 0.85428 0.0
C525 C 0.39878 0.83108 0.8147 0.0
H526 H 0.94557 0.67616 0.3035 0.0
H527 H 0.8468 0.66961 0.37561 0.0
H528 H 0.81215 0.64937 0.31681 0.0
H529 H 0.90083 0.70814 0.21171 0.0
H530 H 0.93034 0.68135 0.17999 0.0
H531 H 0.94703 0.69819 0.22708 0.0
H532 H 0.96421 0.6322 0.24795 0.0
H533 H 0.94755 0.61516 0.20103 0.0
H534 H 0.92966 0.59702 0.24705 0.0
H535 H 0.7893 0.62473 0.25241 0.0
H536 H 0.7794 0.59886 0.18525 0.0
H537 H 0.89204 0.62251 0.15402 0.0
C538 C 0.91654 0.67102 0.30688 0.0
C539 C 0.89896 0.67466 0.3443 0.0
C540 C 0.86095 0.66729 0.34734 0.0
C541 C 0.84096 0.65576 0.31407 0.0
C542 C 0.85924 0.65201 0.27786 0.0
C543 C 0.89609 0.65964 0.27392 0.0
C544 C 0.90942 0.65179 0.23196 0.0
C545 C 0.92268 0.68697 0.21148 0.0
C546 C 0.93948 0.62229 0.23203 0.0
C547 C 0.87444 0.63778 0.21322 0.0
C548 C 0.84582 0.63826 0.24026 0.0
C549 C 0.81133 0.62462 0.23081 0.0
C550 C 0.80601 0.60979 0.1928 0.0
C551 C 0.83493 0.60894 0.16481 0.0
C552 C 0.8694 0.62355 0.17487 0.0
H553 H 0.56384 0.13439 0.81106 0.0
H554 H 0.63624 0.22752 0.82452 0.0
H555 H 0.65847 0.21874 0.75546 0.0
H556 H 0.62802 0.07979 0.75802 0.0
H557 H 0.59415 0.05851 0.72668 0.0
H558 H 0.58167 0.07442 0.77561 0.0
H559 H 0.53014 0.11406 0.74471 0.0
H560 H 0.54276 0.09846 0.69561 0.0
H561 H 0.54133 0.14674 0.70638 0.0
H562 H 0.67341 0.19912 0.68535 0.0
H563 H 0.68602 0.16532 0.62293 0.0
H564 H 0.60649 0.08303 0.65734 0.0
C565 C 0.5841 0.15312 0.79925 0.0
C566 C 0.59819 0.18179 0.82278 0.0
C567 C 0.62521 0.20535 0.8068 0.0
C568 C 0.63774 0.20077 0.7676 0.0
C569 C 0.62327 0.17222 0.74507 0.0
C570 C 0.59748 0.14845 0.76054 0.0
C571 C 0.58873 0.11807 0.73147 0.0
C572 C 0.59876 0.08049 0.74899 0.0
C573 C 0.54834 0.11943 0.71879 0.0
C574 C 0.61385 0.12831 0.69737 0.0
C575 C 0.63302 0.16002 0.70542 0.0
C576 C 0.65847 0.17434 0.67863 0.0
C577 C 0.66528 0.15512 0.64318 0.0
C578 C 0.64716 0.12168 0.63537 0.0
C579 C 0.62064 0.10862 0.66251 0.0
H580 H 0.28968 0.10291 0.48249 0.0
H581 H 0.20577 0.02115 0.5039 0.0
H582 H 0.15886 0.06378 0.47919 0.0
H583 H 0.24103 0.1766 0.51618 0.0
H584 H 0.25717 0.20885 0.47955 0.0
H585 H 0.28507 0.17026 0.49283 0.0
H586 H 0.28817 0.15014 0.41883 0.0
H587 H 0.2606 0.18903 0.40516 0.0
H588 H 0.24636 0.1436 0.39129 0.0
H589 H 0.12009 0.11848 0.4633 0.0
H590 H 0.09326 0.17961 0.45092 0.0
H591 H 0.20235 0.22461 0.43683 0.0
C592 C 0.26162 0.09353 0.48084 0.0
C593 C 0.25151 0.05865 0.49515 0.0
C594 C 0.21433 0.04766 0.49296 0.0
C595 C 0.18739 0.07171 0.47899 0.0
C596 C 0.19808 0.10645 0.46665 0.0
C597 C 0.2344 0.11711 0.46667 0.0
C598 C 0.23837 0.15676 0.4545 0.0
C599 C 0.25646 0.17943 0.48775 0.0
C600 C 0.25963 0.16006 0.41509 0.0
C601 C 0.19856 0.16708 0.44916 0.0
C602 C 0.17571 0.13768 0.45617 0.0
C603 C 0.1377 0.14149 0.45673 0.0
C604 C 0.12271 0.17628 0.44991 0.0
C605 C 0.14573 0.20661 0.44235 0.0
C606 C 0.18406 0.20172 0.44153 0.0
H607 H 0.22779 0.82867 0.50519 0.0
H608 H 0.20465 0.83551 0.63184 0.0
H609 H 0.15027 0.79617 0.62262 0.0
H610 H 0.1353 0.83614 0.47457 0.0
H611 H 0.14001 0.80544 0.43284 0.0
H612 H 0.17893 0.83116 0.44996 0.0
H613 H 0.21569 0.77111 0.45877 0.0
H614 H 0.17687 0.74518 0.44159 0.0
H615 H 0.19715 0.73497 0.48924 0.0
H616 H 0.09791 0.75692 0.59932 0.0
H617 H 0.04888 0.72444 0.56309 0.0
H618 H 0.10423 0.74665 0.45109 0.0
C619 C 0.21162 0.82135 0.53107 0.0
C620 C 0.22061 0.83465 0.56933 0.0
C621 C 0.19828 0.82537 0.60232 0.0
C622 C 0.16744 0.80299 0.59739 0.0
C623 C 0.15911 0.79056 0.55919 0.0
C624 C 0.18037 0.79966 0.52655 0.0
C625 C 0.16399 0.78497 0.48833 0.0
C626 C 0.15396 0.8163 0.45975 0.0
C627 C 0.18998 0.75742 0.46831 0.0
C628 C 0.13014 0.76628 0.50455 0.0
C629 C 0.12808 0.76938 0.54554 0.0
C630 C 0.09923 0.7543 0.56722 0.0
C631 C 0.07157 0.73583 0.5464 0.0
C632 C 0.07274 0.73309 0.50431 0.0
C633 C 0.10254 0.74841 0.48327 0.0
H634 H 0.71836 0.9122 0.47153 0.0
H635 H 0.77053 0.94411 0.58243 0.0
H636 H 0.815 0.89414 0.57481 0.0
H637 H 0.72666 0.81551 0.48786 0.0
H638 H 0.73544 0.80453 0.43634 0.0
H639 H 0.70863 0.84424 0.4489 0.0
H640 H 0.75287 0.88502 0.40806 0.0
H641 H 0.77985 0.84541 0.39539 0.0
H642 H 0.80114 0.88418 0.41906 0.0
H643 H 0.85373 0.84129 0.5561 0.0
H644 H 0.88245 0.78558 0.52931 0.0
H645 H 0.80432 0.78482 0.43184 0.0
C646 C 0.73932 0.90876 0.49399 0.0
C647 C 0.74101 0.93217 0.5275 0.0
C648 C 0.76857 0.92651 0.55655 0.0
C649 C 0.7941 0.89827 0.55244 0.0
C650 C 0.79163 0.87557 0.5193 0.0
C651 C 0.76485 0.88017 0.49069 0.0
C652 C 0.76752 0.85062 0.45902 0.0
C653 C 0.73248 0.82735 0.45799 0.0
C654 C 0.77585 0.86731 0.41795 0.0
C655 C 0.79985 0.82876 0.4745 0.0
C656 C 0.8135 0.844 0.50907 0.0
C657 C 0.84331 0.82903 0.52905 0.0
C658 C 0.85949 0.79738 0.5135 0.0
C659 C 0.84565 0.78073 0.47849 0.0
C660 C 0.81547 0.79682 0.45871 0.0
H661 H 0.78181 0.15435 0.48114 0.0
H662 H 0.80013 0.14583 0.60865 0.0
H663 H 0.85176 0.18907 0.60308 0.0
H664 H 0.8771 0.15881 0.45302 0.0
H665 H 0.86928 0.19089 0.41318 0.0
H666 H 0.83379 0.15929 0.42737 0.0
H667 H 0.78916 0.21347 0.43847 0.0
H668 H 0.82461 0.24525 0.42457 0.0
H669 H 0.80182 0.24984 0.472 0.0
H670 H 0.90096 0.23411 0.58372 0.0
H671 H 0.94621 0.27462 0.55141 0.0
H672 H 0.89601 0.2531 0.43654 0.0
C673 C 0.79673 0.16145 0.50791 0.0
C674 C 0.78683 0.14671 0.54537 0.0
C675 C 0.80717 0.1567 0.57961 0.0
C676 C 0.83649 0.18135 0.57678 0.0
C677 C 0.84525 0.19567 0.53949 0.0
C678 C 0.82615 0.18587 0.50562 0.0
C679 C 0.84141 0.2048 0.46904 0.0
C680 C 0.85628 0.17677 0.43888 0.0
C681 C 0.81253 0.22983 0.44991 0.0
C682 C 0.87205 0.22682 0.48763 0.0
C683 C 0.87371 0.22133 0.52833 0.0
C684 C 0.89991 0.23862 0.55187 0.0
C685 C 0.92542 0.26171 0.53325 0.0
C686 C 0.92464 0.26718 0.49145 0.0
C687 C 0.89731 0.24965 0.46856 0.0
H688 H 0.27524 0.563 0.97179 0.0
H689 H 0.22604 0.60286 0.08146 0.0
H690 H 0.25843 0.66131 0.07356 0.0
H691 H 0.36276 0.60268 0.98773 0.0
H692 H 0.37083 0.61462 0.93635 0.0
H693 H 0.34177 0.57642 0.94845 0.0
H694 H 0.28908 0.60503 0.90744 0.0
H695 H 0.31807 0.64324 0.89499 0.0
H696 H 0.27427 0.651 0.91834 0.0
H697 H 0.29822 0.71371 0.05687 0.0
H698 H 0.3425 0.75847 0.03109 0.0
H699 H 0.36709 0.68627 0.93169 0.0
C700 C 0.27084 0.5843 0.99371 0.0
C701 C 0.248 0.57832 0.02723 0.0
C702 C 0.24344 0.60667 0.05562 0.0
C703 C 0.26167 0.64007 0.05138 0.0
C704 C 0.28448 0.64488 0.01857 0.0
C705 C 0.28911 0.61797 0.99006 0.0
C706 C 0.31656 0.63002 0.9586 0.0
C707 C 0.34996 0.60441 0.95775 0.0
C708 C 0.2984 0.63247 0.9174 0.0
C709 C 0.32675 0.66767 0.9742 0.0
C710 C 0.30776 0.67556 0.00879 0.0
C711 C 0.31308 0.70802 0.02963 0.0
C712 C 0.33845 0.73325 0.01477 0.0
C713 C 0.35829 0.72603 0.97928 0.0
C714 C 0.35218 0.69275 0.9587 0.0
H715 H 0.69931 0.657 0.07792 0.0
H716 H 0.76825 0.67224 0.97356 0.0
H717 H 0.72151 0.71225 0.94401 0.0
H718 H 0.61455 0.65326 0.02629 0.0
H719 H 0.58898 0.67807 0.0635 0.0
H720 H 0.62855 0.65182 0.07776 0.0
H721 H 0.65718 0.70948 0.10992 0.0
H722 H 0.61767 0.73593 0.09572 0.0
H723 H 0.66276 0.75034 0.0805 0.0
H724 H 0.66654 0.74672 0.92339 0.0
H725 H 0.60655 0.77608 0.9137 0.0
H726 H 0.57293 0.74159 0.03199 0.0
C727 C 0.70472 0.66906 0.04904 0.0
C728 C 0.73757 0.66147 0.02813 0.0
C729 C 0.74344 0.67764 0.99028 0.0
C730 C 0.71704 0.70047 0.97319 0.0
C731 C 0.68496 0.70716 0.99438 0.0
C732 C 0.67867 0.69221 0.03156 0.0
C733 C 0.64131 0.70333 0.04737 0.0
C734 C 0.61691 0.66961 0.05412 0.0
C735 C 0.64496 0.72613 0.08565 0.0
C736 C 0.62747 0.72644 0.01298 0.0
C737 C 0.6532 0.72812 0.98277 0.0
C738 C 0.64632 0.74602 0.94699 0.0
C739 C 0.61213 0.7625 0.94174 0.0
C740 C 0.58529 0.76134 0.97222 0.0
C741 C 0.59323 0.74343 0.00852 0.0
H742 H 0.71688 0.45707 0.02929 0.0
H743 H 0.81129 0.4269 0.95785 0.0
H744 H 0.77567 0.37624 0.92791 0.0
H745 H 0.68648 0.36899 0.05134 0.0
H746 H 0.63838 0.37947 0.04776 0.0
H747 H 0.67041 0.41474 0.06114 0.0
H748 H 0.64755 0.45471 0.00252 0.0
H749 H 0.61529 0.41958 0.98898 0.0
H750 H 0.64767 0.43625 0.95269 0.0
H751 H 0.73227 0.3245 0.91272 0.0
H752 H 0.68255 0.2788 0.90841 0.0
H753 H 0.61482 0.34563 0.98564 0.0
C754 C 0.72995 0.44008 0.00695 0.0
C755 C 0.7669 0.44571 0.99595 0.0
C756 C 0.78298 0.42309 0.96653 0.0
C757 C 0.76298 0.39426 0.94946 0.0
C758 C 0.72677 0.38904 0.96157 0.0
C759 C 0.71022 0.41173 0.98914 0.0
C760 C 0.67127 0.39987 0.9978 0.0
C761 C 0.66637 0.39019 0.04213 0.0
C762 C 0.64382 0.42936 0.9847 0.0
C763 C 0.66873 0.36624 0.97165 0.0
C764 C 0.70111 0.36039 0.95111 0.0
C765 C 0.70654 0.32927 0.92788 0.0
C766 C 0.67825 0.30346 0.9257 0.0
C767 C 0.64478 0.30919 0.94609 0.0
C768 C 0.6398 0.3412 0.9689 0.0
H769 H 0.41587 0.25131 0.95405 0.0
H770 H 0.47646 0.24292 0.06486 0.0
H771 H 0.43245 0.28525 0.09689 0.0
H772 H 0.39515 0.34577 0.96095 0.0
H773 H 0.35001 0.34146 0.9399 0.0
H774 H 0.38532 0.30942 0.92629 0.0
H775 H 0.34407 0.25553 0.94858 0.0
H776 H 0.30848 0.28738 0.96195 0.0
H777 H 0.32529 0.25527 0.99831 0.0
H778 H 0.3828 0.33087 0.11583 0.0
H779 H 0.32987 0.3727 0.12129 0.0
H780 H 0.30213 0.35046 0.99786 0.0
C781 C 0.41979 0.25802 0.98519 0.0
C782 C 0.44966 0.24366 0.00696 0.0
C783 C 0.45371 0.25334 0.04761 0.0
C784 C 0.42893 0.2775 0.06601 0.0
C785 C 0.40017 0.29161 0.04341 0.0
C786 C 0.39535 0.28193 0.00398 0.0
C787 C 0.36246 0.30102 0.98606 0.0
C788 C 0.37394 0.32589 0.95125 0.0
C789 C 0.33335 0.27314 0.97296 0.0
C790 C 0.34955 0.32319 0.0215 0.0
C791 C 0.37167 0.31751 0.0543 0.0
C792 C 0.36523 0.33535 0.09037 0.0
C793 C 0.33513 0.35918 0.09313 0.0
C794 C 0.31174 0.36491 0.06005 0.0
C795 C 0.31939 0.34675 0.02375 0.0
H796 H 0.93985 0.56951 0.43862 0.0
H797 H 0.04647 0.61034 0.4737 0.0
H798 H 0.06816 0.54696 0.48338 0.0
H799 H 0.9366 0.48973 0.50425 0.0
H800 H 0.91575 0.46072 0.46727 0.0
H801 H 0.9073 0.50928 0.4667 0.0
H802 H 0.92993 0.51258 0.39355 0.0
H803 H 0.93837 0.46407 0.39387 0.0
H804 H 0.97472 0.49526 0.38111 0.0
H805 H 0.07873 0.47988 0.48796 0.0
H806 H 0.08012 0.41306 0.48065 0.0
H807 H 0.96778 0.41475 0.43816 0.0
C808 C 0.96757 0.56497 0.44888 0.0
C809 C 0.99147 0.59465 0.45586 0.0
C810 C 0.02782 0.58786 0.46829 0.0
C811 C 0.04028 0.55202 0.47407 0.0
C812 C 0.01618 0.52329 0.46672 0.0
C813 C 0.98075 0.52925 0.45389 0.0
C814 C 0.96157 0.49338 0.44491 0.0
C815 C 0.92833 0.48797 0.47243 0.0
C816 C 0.95051 0.49121 0.40074 0.0
C817 C 0.99184 0.46641 0.45453 0.0
C818 C 0.02285 0.48431 0.46765 0.0
C819 C 0.05462 0.46551 0.47774 0.0
C820 C 0.05507 0.42744 0.47349 0.0
C821 C 0.02408 0.40841 0.45871 0.0
C822 C 0.99188 0.42831 0.44971 0.0
H823 H 0.58391 0.97248 0.54919 0.0
H824 H 0.57576 0.07778 0.4899 0.0
H825 H 0.50897 0.07044 0.48553 0.0
H826 H 0.50945 0.92738 0.4923 0.0
H827 H 0.49393 0.90216 0.53526 0.0
H828 H 0.54158 0.91412 0.53037 0.0
H829 H 0.53925 0.94574 0.59935 0.0
H830 H 0.4915 0.93449 0.60431 0.0
H831 H 0.50616 0.98141 0.60823 0.0
H832 H 0.44252 0.05551 0.49505 0.0
H833 H 0.38141 0.03041 0.51107 0.0
H834 H 0.43244 0.93365 0.561 0.0
C835 C 0.56826 0.99363 0.5344 0.0
C836 C 0.58533 0.02577 0.52001 0.0
C837 C 0.56356 0.05288 0.50123 0.0
C838 C 0.52547 0.04903 0.49863 0.0
C839 C 0.50945 0.01768 0.5144 0.0
C840 C 0.53016 0.9901 0.53124 0.0
C841 C 0.50596 0.95977 0.54721 0.0
C842 C 0.51316 0.92372 0.52495 0.0
C843 C 0.51102 0.9551 0.59245 0.0
C844 C 0.46843 0.97499 0.53742 0.0
C845 C 0.47106 0.0085 0.51867 0.0
C846 C 0.4401 0.02898 0.50908 0.0
C847 C 0.40553 0.01465 0.51853 0.0
C848 C 0.40219 0.98 0.53693 0.0
C849 C 0.43414 0.95995 0.5463 0.0
H850 H 0.48547 0.09024 0.95048 0.0
H851 H 0.60431 0.08637 0.95498 0.0
H852 H 0.6022 0.01931 0.95605 0.0
H853 H 0.47056 0.01176 0.01704 0.0
H854 H 0.43147 0.99557 0.9895 0.0
H855 H 0.44198 0.04371 0.99051 0.0
H856 H 0.44353 0.04475 0.9133 0.0
H857 H 0.4332 0.99662 0.91209 0.0
H858 H 0.4734 0.01371 0.88707 0.0
H859 H 0.58802 0.95256 0.95049 0.0
H860 H 0.56175 0.89032 0.94588 0.0
H861 H 0.45242 0.9365 0.94962 0.0
C862 C 0.51103 0.07534 0.95229 0.0
C863 C 0.54504 0.09391 0.95251 0.0
C864 C 0.57783 0.07312 0.95469 0.0
C865 C 0.577 0.03484 0.95527 0.0
C866 C 0.54318 0.01745 0.95419 0.0
C867 C 0.51074 0.03692 0.9534 0.0
C868 C 0.47813 0.01125 0.95219 0.0
C869 C 0.45412 0.01585 0.98954 0.0
C870 C 0.45575 0.01693 0.91389 0.0
C871 C 0.49741 0.97448 0.95202 0.0
C872 C 0.53495 0.97871 0.95279 0.0
C873 C 0.55863 0.94883 0.95052 0.0
C874 C 0.54353 0.91364 0.94774 0.0
C875 C 0.50514 0.90859 0.94792 0.0
C876 C 0.48189 0.93949 0.95021 0.0
H877 H 0.0965 0.52595 0.05426 0.0
H878 H 0.09138 0.41092 0.02239 0.0
H879 H 0.02403 0.41372 0.02381 0.0
H880 H 0.02255 0.52573 0.12173 0.0
H881 H 0.00527 0.57003 0.10761 0.0
H882 H 0.05323 0.55983 0.10203 0.0
H883 H 0.05018 0.57649 0.02705 0.0
H884 H 1.00231 0.5873 0.0325 0.0
H885 H 0.01681 0.55442 0.99567 0.0
H886 H 0.9568 0.42774 0.03438 0.0
H887 H 0.89508 0.45416 0.04502 0.0
H888 H 0.9442 0.56026 0.06689 0.0
C889 C 0.08131 0.50146 0.04683 0.0
C890 C 0.09952 0.46819 0.03828 0.0
C891 C 0.07833 0.4368 0.02901 0.0
C892 C 0.03993 0.43803 0.0299 0.0
C893 C 0.02295 0.47095 0.03964 0.0
C894 C 0.04294 0.50227 0.04722 0.0
C895 C 0.01802 0.53413 0.05716 0.0
C896 C 0.0252 0.54825 0.09965 0.0
C897 C 0.02207 0.5649 0.02624 0.0
C898 C 0.98094 0.51579 0.05417 0.0
C899 C 0.98432 0.47925 0.04447 0.0
C900 C 0.95381 0.45644 0.04152 0.0
C901 C 0.9189 0.47159 0.04787 0.0
C902 C 0.91482 0.50926 0.0565 0.0
C903 C 0.94639 0.53143 0.05989 0.0
loop_
_geom_bond_atom_site_label_1
_geom_bond_atom_site_label_2
_geom_bond_distance
_geom_bond_site_symmetry_2
_ccdc_geom_bond_type
Co0 O2 2.143 . S
Co0 O8 2.074 . S
Co0 O11 2.093 1_455 S
Co0 O24 2.097 . S
Co0 N41 2.151 . S
Co0 N49 2.214 1_455 S
Co1 O2 2.160 . S
Co1 O7 2.058 . S
Co1 O17 2.057 . S
Co1 O32 2.037 . S
Co1 N36 2.145 . S
Co1 N57 2.257 . S
O2 Co0 2.143 . S
O2 Co1 2.160 . S
C3 O4 1.278 1_655 S
C3 O11 1.224 . S
O4 C3 1.278 1_455 S
C5 O6 1.245 . S
C5 O17 1.232 . S
O6 C5 1.245 . S
O7 Co1 2.058 . S
O7 C33 1.269 . S
O8 Co0 2.074 . S
O8 C33 1.257 . S
H9 C34 0.930 . S
H10 C40 0.930 . S
O11 Co0 2.093 1_655 S
O11 C3 1.224 . S
H12 C44 0.929 . S
H13 C46 0.930 . S
H14 C47 0.930 1_455 S
H15 C45 0.929 . S
H16 C48 0.928 . S
O17 Co1 2.057 . S
O17 C5 1.232 . S
H18 C37 0.929 . S
H19 C38 0.929 . S
H20 C50 0.931 . S
H21 C42 0.929 . S
H22 C51 0.930 . S
H23 C43 0.931 . S
O24 Co0 2.097 . S
O24 C52 1.214 . S
H25 C53 0.929 . S
H26 C54 0.929 . S
H27 C55 0.930 . S
H28 C56 0.929 . S
H29 C58 0.930 . S
H30 C35 0.930 . S
H31 C39 0.930 . S
O32 Co1 2.037 . S
O32 C52 1.234 . S
C33 O7 1.269 . S
C33 O8 1.257 . S
C34 H9 0.930 . S
C34 C37 1.388 . S
C34 C39 1.418 . S
C35 H30 0.930 . S
C35 C38 1.404 . S
C35 C39 1.353 . S
N36 Co1 2.145 . S
N36 C37 1.397 . S
N36 C38 1.334 . S
C37 H18 0.929 . S
C37 C34 1.388 . S
C37 N36 1.397 . S
C38 H19 0.929 . S
C38 C35 1.404 . S
C38 N36 1.334 . S
C39 H31 0.930 . S
C39 C34 1.418 . S
C39 C35 1.353 . S
C40 H10 0.930 . S
C40 N41 1.330 . S
C40 C42 1.446 . S
N41 Co0 2.151 . S
N41 C40 1.330 . S
N41 C45 1.418 . S
C42 H21 0.929 . S
C42 C40 1.446 . S
C42 C43 1.332 . S
C43 H23 0.931 . S
C43 C42 1.332 . S
C43 C44 1.267 . S
C44 H12 0.929 . S
C44 C43 1.267 . S
C44 C45 1.251 . S
C45 H15 0.929 . S
C45 N41 1.418 . S
C45 C44 1.251 . S
C46 H13 0.930 . S
C46 C48 1.406 . S
C46 C51 1.261 . S
C47 H14 0.930 1_655 S
C47 N49 1.325 . S
C47 C50 1.357 . S
C48 H16 0.928 . S
C48 C46 1.406 . S
C48 N49 1.261 . S
N49 Co0 2.214 1_655 S
N49 C47 1.325 . S
N49 C48 1.261 . S
C50 H20 0.931 . S
C50 C47 1.357 . S
C50 C51 1.312 . S
C51 H22 0.930 . S
C51 C46 1.261 . S
C51 C50 1.312 . S
C52 O24 1.214 . S
C52 O32 1.234 . S
C53 H25 0.929 . S
C53 C56 1.391 . S
C53 C58 1.391 . S
C54 H26 0.929 . S
C54 C55 1.390 . S
C54 N57 1.391 . S
C55 H27 0.930 . S
C55 C54 1.390 . S
C55 C56 1.392 . S
C56 H28 0.929 . S
C56 C53 1.391 . S
C56 C55 1.392 . S
N57 Co1 2.257 . S
N57 C54 1.391 . S
N57 C58 1.388 . S
C58 H29 0.930 . S
C58 C53 1.391 . S
C58 N57 1.388 . S
Co59 O61 2.143 . S
Co59 O67 2.074 . S
Co59 O70 2.093 1_565 S
Co59 O83 2.097 . S
Co59 N100 2.151 . S
Co59 N108 2.214 1_565 S
Co60 O61 2.160 . S
Co60 O66 2.058 . S
Co60 O76 2.057 . S
Co60 O91 2.037 . S
Co60 N95 2.145 . S
Co60 N116 2.257 . S
O61 Co59 2.143 . S
O61 Co60 2.160 . S
C62 O63 1.278 1_545 S
C62 O70 1.224 . S
O63 C62 1.278 1_565 S
C64 O65 1.245 . S
C64 O76 1.232 . S
O65 C64 1.245 . S
O66 Co60 2.058 . S
O66 C92 1.269 . S
O67 Co59 2.074 . S
O67 C92 1.257 . S
H68 C93 0.930 . S
H69 C99 0.930 . S
O70 Co59 2.093 1_545 S
O70 C62 1.224 . S
H71 C103 0.929 . S
H72 C105 0.930 . S
H73 C106 0.930 1_565 S
H74 C104 0.929 . S
H75 C107 0.928 . S
O76 Co60 2.057 . S
O76 C64 1.232 . S
H77 C96 0.929 . S
H78 C97 0.929 . S
H79 C109 0.931 . S
H80 C101 0.929 . S
H81 C110 0.930 . S
H82 C102 0.931 . S
O83 Co59 2.097 . S
O83 C111 1.214 . S
H84 C112 0.929 . S
H85 C113 0.929 . S
H86 C114 0.930 . S
H87 C115 0.929 . S
H88 C117 0.930 . S
H89 C94 0.930 . S
H90 C98 0.930 . S
O91 Co60 2.037 . S
O91 C111 1.234 . S
C92 O66 1.269 . S
C92 O67 1.257 . S
C93 H68 0.930 . S
C93 C96 1.388 . S
C93 C98 1.418 . S
C94 H89 0.930 . S
C94 C97 1.404 . S
C94 C98 1.353 . S
N95 Co60 2.145 . S
N95 C96 1.397 . S
N95 C97 1.334 . S
C96 H77 0.929 . S
C96 C93 1.388 . S
C96 N95 1.397 . S
C97 H78 0.929 . S
C97 C94 1.404 . S
C97 N95 1.334 . S
C98 H90 0.930 . S
C98 C93 1.418 . S
C98 C94 1.353 . S
C99 H69 0.930 . S
C99 N100 1.330 . S
C99 C101 1.446 . S
N100 Co59 2.151 . S
N100 C99 1.330 . S
N100 C104 1.418 . S
C101 H80 0.929 . S
C101 C99 1.446 . S
C101 C102 1.332 . S
C102 H82 0.931 . S
C102 C101 1.332 . S
C102 C103 1.267 . S
C103 H71 0.929 . S
C103 C102 1.267 . S
C103 C104 1.251 . S
C104 H74 0.929 . S
C104 N100 1.418 . S
C104 C103 1.251 . S
C105 H72 0.930 . S
C105 C107 1.406 . S
C105 C110 1.261 . S
C106 H73 0.930 1_545 S
C106 N108 1.325 . S
C106 C109 1.357 . S
C107 H75 0.928 . S
C107 C105 1.406 . S
C107 N108 1.261 . S
N108 Co59 2.214 1_545 S
N108 C106 1.325 . S
N108 C107 1.261 . S
C109 H79 0.931 . S
C109 C106 1.357 . S
C109 C110 1.312 . S
C110 H81 0.930 . S
C110 C105 1.261 . S
C110 C109 1.312 . S
C111 O83 1.214 . S
C111 O91 1.234 . S
C112 H84 0.929 . S
C112 C115 1.391 . S
C112 C117 1.391 . S
C113 H85 0.929 . S
C113 C114 1.390 . S
C113 N116 1.391 . S
C114 H86 0.930 . S
C114 C113 1.390 . S
C114 C115 1.392 . S
C115 H87 0.929 . S
C115 C112 1.391 . S
C115 C114 1.392 . S
N116 Co60 2.257 . S
N116 C113 1.391 . S
N116 C117 1.388 . S
C117 H88 0.930 . S
C117 C112 1.391 . S
C117 N116 1.388 . S
Co118 O120 2.143 . S
Co118 O126 2.074 . S
Co118 O129 2.093 1_655 S
Co118 O142 2.097 . S
Co118 N159 2.151 . S
Co118 N167 2.214 1_655 S
Co119 O120 2.160 . S
Co119 O125 2.058 . S
Co119 O135 2.057 . S
Co119 O150 2.037 . S
Co119 N154 2.145 . S
Co119 N175 2.257 . S
O120 Co118 2.143 . S
O120 Co119 2.160 . S
C121 O122 1.278 1_455 S
C121 O129 1.224 . S
O122 C121 1.278 1_655 S
C123 O124 1.245 . S
C123 O135 1.232 . S
O124 C123 1.245 . S
O125 Co119 2.058 . S
O125 C151 1.269 . S
O126 Co118 2.074 . S
O126 C151 1.257 . S
H127 C152 0.930 . S
H128 C158 0.930 . S
O129 Co118 2.093 1_455 S
O129 C121 1.224 . S
H130 C162 0.929 . S
H131 C164 0.930 . S
H132 C165 0.930 1_655 S
H133 C163 0.929 . S
H134 C166 0.928 . S
O135 Co119 2.057 . S
O135 C123 1.232 . S
H136 C155 0.929 . S
H137 C156 0.929 . S
H138 C168 0.931 . S
H139 C160 0.929 . S
H140 C169 0.930 . S
H141 C161 0.931 . S
O142 Co118 2.097 . S
O142 C170 1.214 . S
H143 C171 0.929 . S
H144 C172 0.929 . S
H145 C173 0.930 . S
H146 C174 0.929 . S
H147 C176 0.930 . S
H148 C153 0.930 . S
H149 C157 0.930 . S
O150 Co119 2.037 . S
O150 C170 1.234 . S
C151 O125 1.269 . S
C151 O126 1.257 . S
C152 H127 0.930 . S
C152 C155 1.388 . S
C152 C157 1.418 . S
C153 H148 0.930 . S
C153 C156 1.404 . S
C153 C157 1.353 . S
N154 Co119 2.145 . S
N154 C155 1.397 . S
N154 C156 1.334 . S
C155 H136 0.929 . S
C155 C152 1.388 . S
C155 N154 1.397 . S
C156 H137 0.929 . S
C156 C153 1.404 . S
C156 N154 1.334 . S
C157 H149 0.930 . S
C157 C152 1.418 . S
C157 C153 1.353 . S
C158 H128 0.930 . S
C158 N159 1.330 . S
C158 C160 1.446 . S
N159 Co118 2.151 . S
N159 C158 1.330 . S
N159 C163 1.418 . S
C160 H139 0.929 . S
C160 C158 1.446 . S
C160 C161 1.332 . S
C161 H141 0.931 . S
C161 C160 1.332 . S
C161 C162 1.267 . S
C162 H130 0.929 . S
C162 C161 1.267 . S
C162 C163 1.251 . S
C163 H133 0.929 . S
C163 N159 1.418 . S
C163 C162 1.251 . S
C164 H131 0.930 . S
C164 C166 1.406 . S
C164 C169 1.261 . S
C165 H132 0.930 1_455 S
C165 N167 1.325 . S
C165 C168 1.357 . S
C166 H134 0.928 . S
C166 C164 1.406 . S
C166 N167 1.261 . S
N167 Co118 2.214 1_455 S
N167 C165 1.325 . S
N167 C166 1.261 . S
C168 H138 0.931 . S
C168 C165 1.357 . S
C168 C169 1.312 . S
C169 H140 0.930 . S
C169 C164 1.261 . S
C169 C168 1.312 . S
C170 O142 1.214 . S
C170 O150 1.234 . S
C171 H143 0.929 . S
C171 C174 1.391 . S
C171 C176 1.391 . S
C172 H144 0.929 . S
C172 C173 1.390 . S
C172 N175 1.391 . S
C173 H145 0.930 . S
C173 C172 1.390 . S
C173 C174 1.392 . S
C174 H146 0.929 . S
C174 C171 1.391 . S
C174 C173 1.392 . S
N175 Co119 2.257 . S
N175 C172 1.391 . S
N175 C176 1.388 . S
C176 H147 0.930 . S
C176 C171 1.391 . S
C176 N175 1.388 . S
Co177 O179 2.143 . S
Co177 O185 2.074 . S
Co177 O188 2.093 1_545 S
Co177 O201 2.097 . S
Co177 N218 2.151 . S
Co177 N226 2.214 1_545 S
Co178 O179 2.160 . S
Co178 O184 2.058 . S
Co178 O194 2.057 . S
Co178 O209 2.037 . S
Co178 N213 2.145 . S
Co178 N234 2.257 . S
O179 Co177 2.143 . S
O179 Co178 2.160 . S
C180 O181 1.278 1_565 S
C180 O188 1.224 . S
O181 C180 1.278 1_545 S
C182 O183 1.245 . S
C182 O194 1.232 . S
O183 C182 1.245 . S
O184 Co178 2.058 . S
O184 C210 1.269 . S
O185 Co177 2.074 . S
O185 C210 1.257 . S
H186 C211 0.930 . S
H187 C217 0.930 . S
O188 Co177 2.093 1_565 S
O188 C180 1.224 . S
H189 C221 0.929 . S
H190 C223 0.930 . S
H191 C224 0.930 1_545 S
H192 C222 0.929 . S
H193 C225 0.928 . S
O194 Co178 2.057 . S
O194 C182 1.232 . S
H195 C214 0.929 . S
H196 C215 0.929 . S
H197 C227 0.931 . S
H198 C219 0.929 . S
H199 C228 0.930 . S
H200 C220 0.931 . S
O201 Co177 2.097 . S
O201 C229 1.214 . S
H202 C230 0.929 . S
H203 C231 0.929 . S
H204 C232 0.930 . S
H205 C233 0.929 . S
H206 C235 0.930 . S
H207 C212 0.930 . S
H208 C216 0.930 . S
O209 Co178 2.037 . S
O209 C229 1.234 . S
C210 O184 1.269 . S
C210 O185 1.257 . S
C211 H186 0.930 . S
C211 C214 1.388 . S
C211 C216 1.418 . S
C212 H207 0.930 . S
C212 C215 1.404 . S
C212 C216 1.353 . S
N213 Co178 2.145 . S
N213 C214 1.397 . S
N213 C215 1.334 . S
C214 H195 0.929 . S
C214 C211 1.388 . S
C214 N213 1.397 . S
C215 H196 0.929 . S
C215 C212 1.404 . S
C215 N213 1.334 . S
C216 H208 0.930 . S
C216 C211 1.418 . S
C216 C212 1.353 . S
C217 H187 0.930 . S
C217 N218 1.330 . S
C217 C219 1.446 . S
N218 Co177 2.151 . S
N218 C217 1.330 . S
N218 C222 1.418 . S
C219 H198 0.929 . S
C219 C217 1.446 . S
C219 C220 1.332 . S
C220 H200 0.931 . S
C220 C219 1.332 . S
C220 C221 1.267 . S
C221 H189 0.929 . S
C221 C220 1.267 . S
C221 C222 1.251 . S
C222 H192 0.929 . S
C222 N218 1.418 . S
C222 C221 1.251 . S
C223 H190 0.930 . S
C223 C225 1.406 . S
C223 C228 1.261 . S
C224 H191 0.930 1_565 S
C224 N226 1.325 . S
C224 C227 1.357 . S
C225 H193 0.928 . S
C225 C223 1.406 . S
C225 N226 1.261 . S
N226 Co177 2.214 1_565 S
N226 C224 1.325 . S
N226 C225 1.261 . S
C227 H197 0.931 . S
C227 C224 1.357 . S
C227 C228 1.312 . S
C228 H199 0.930 . S
C228 C223 1.261 . S
C228 C227 1.312 . S
C229 O201 1.214 . S
C229 O209 1.234 . S
C230 H202 0.929 . S
C230 C233 1.391 . S
C230 C235 1.391 . S
C231 H203 0.929 . S
C231 C232 1.390 . S
C231 N234 1.391 . S
C232 H204 0.930 . S
C232 C231 1.390 . S
C232 C233 1.392 . S
C233 H205 0.929 . S
C233 C230 1.391 . S
C233 C232 1.392 . S
N234 Co178 2.257 . S
N234 C231 1.391 . S
N234 C235 1.388 . S
C235 H206 0.930 . S
C235 C230 1.391 . S
C235 N234 1.388 . S
Co236 O238 2.143 . S
Co236 O244 2.074 . S
Co236 O247 2.093 . S
Co236 O260 2.097 . S
Co236 N277 2.151 . S
Co236 N285 2.214 . S
Co237 O238 2.160 . S
Co237 O243 2.058 . S
Co237 O253 2.057 . S
Co237 O268 2.037 . S
Co237 N272 2.145 . S
Co237 N293 2.257 1_556 S
O238 Co236 2.143 . S
O238 Co237 2.160 . S
C239 O240 1.278 1_556 S
C239 O247 1.224 . S
O240 C239 1.278 1_554 S
C241 O242 1.245 . S
C241 O253 1.232 . S
O242 C241 1.245 . S
O243 Co237 2.058 . S
O243 C269 1.269 . S
O244 Co236 2.074 . S
O244 C269 1.257 . S
H245 C270 0.930 . S
H246 C276 0.930 . S
O247 Co236 2.093 . S
O247 C239 1.224 . S
H248 C280 0.929 . S
H249 C282 0.930 . S
H250 C283 0.930 . S
H251 C281 0.929 . S
H252 C284 0.928 . S
O253 Co237 2.057 . S
O253 C241 1.232 . S
H254 C273 0.929 . S
H255 C274 0.929 . S
H256 C286 0.931 . S
H257 C278 0.929 . S
H258 C287 0.930 . S
H259 C279 0.931 . S
O260 Co236 2.097 . S
O260 C288 1.214 . S
H261 C289 0.929 . S
H262 C290 0.929 . S
H263 C291 0.930 . S
H264 C292 0.929 . S
H265 C294 0.930 . S
H266 C271 0.930 . S
H267 C275 0.930 . S
O268 Co237 2.037 . S
O268 C288 1.234 . S
C269 O243 1.269 . S
C269 O244 1.257 . S
C270 H245 0.930 . S
C270 C273 1.388 . S
C270 C275 1.418 1_556 S
C271 H266 0.930 . S
C271 C274 1.404 . S
C271 C275 1.353 . S
N272 Co237 2.145 . S
N272 C273 1.397 . S
N272 C274 1.334 1_556 S
C273 H254 0.929 . S
C273 C270 1.388 . S
C273 N272 1.397 . S
C274 H255 0.929 . S
C274 C271 1.404 . S
C274 N272 1.334 1_554 S
C275 H267 0.930 . S
C275 C270 1.418 1_554 S
C275 C271 1.353 . S
C276 H246 0.930 . S
C276 N277 1.330 . S
C276 C278 1.446 . S
N277 Co236 2.151 . S
N277 C276 1.330 . S
N277 C281 1.418 . S
C278 H257 0.929 . S
C278 C276 1.446 . S
C278 C279 1.332 . S
C279 H259 0.931 . S
C279 C278 1.332 . S
C279 C280 1.267 . S
C280 H248 0.929 . S
C280 C279 1.267 . S
C280 C281 1.251 . S
C281 H251 0.929 . S
C281 N277 1.418 . S
C281 C280 1.251 . S
C282 H249 0.930 . S
C282 C284 1.406 . S
C282 C287 1.261 . S
C283 H250 0.930 . S
C283 N285 1.325 . S
C283 C286 1.357 . S
C284 H252 0.928 . S
C284 C282 1.406 . S
C284 N285 1.261 . S
N285 Co236 2.214 . S
N285 C283 1.325 . S
N285 C284 1.261 . S
C286 H256 0.931 . S
C286 C283 1.357 . S
C286 C287 1.312 . S
C287 H258 0.930 . S
C287 C282 1.261 . S
C287 C286 1.312 . S
C288 O260 1.214 . S
C288 O268 1.234 . S
C289 H261 0.929 . S
C289 C292 1.391 . S
C289 C294 1.391 . S
C290 H262 0.929 . S
C290 C291 1.390 . S
C290 N293 1.391 . S
C291 H263 0.930 . S
C291 C290 1.390 . S
C291 C292 1.392 . S
C292 H264 0.929 . S
C292 C289 1.391 . S
C292 C291 1.392 . S
N293 Co237 2.257 1_554 S
N293 C290 1.391 . S
N293 C294 1.388 . S
C294 H265 0.930 . S
C294 C289 1.391 . S
C294 N293 1.388 . S
Co295 O297 2.143 . S
Co295 O303 2.074 . S
Co295 O306 2.093 . S
Co295 O319 2.097 . S
Co295 N336 2.151 1_554 S
Co295 N344 2.214 . S
Co296 O297 2.160 . S
Co296 O302 2.058 . S
Co296 O312 2.057 . S
Co296 O327 2.037 . S
Co296 N331 2.145 . S
Co296 N352 2.257 . S
O297 Co295 2.143 . S
O297 Co296 2.160 . S
C298 O299 1.278 . S
C298 O306 1.224 . S
O299 C298 1.278 . S
C300 O301 1.245 1_554 S
C300 O312 1.232 . S
O301 C300 1.245 1_556 S
O302 Co296 2.058 . S
O302 C328 1.269 . S
O303 Co295 2.074 . S
O303 C328 1.257 . S
H304 C329 0.930 . S
H305 C335 0.930 . S
O306 Co295 2.093 . S
O306 C298 1.224 . S
H307 C339 0.929 . S
H308 C341 0.930 . S
H309 C342 0.930 . S
H310 C340 0.929 . S
H311 C343 0.928 . S
O312 Co296 2.057 . S
O312 C300 1.232 . S
H313 C332 0.929 . S
H314 C333 0.929 . S
H315 C345 0.931 . S
H316 C337 0.929 . S
H317 C346 0.930 . S
H318 C338 0.931 . S
O319 Co295 2.097 . S
O319 C347 1.214 . S
H320 C348 0.929 . S
H321 C349 0.929 . S
H322 C350 0.930 . S
H323 C351 0.929 . S
H324 C353 0.930 . S
H325 C330 0.930 . S
H326 C334 0.930 . S
O327 Co296 2.037 . S
O327 C347 1.234 . S
C328 O302 1.269 . S
C328 O303 1.257 . S
C329 H304 0.930 . S
C329 C332 1.388 . S
C329 C334 1.418 . S
C330 H325 0.930 . S
C330 C333 1.404 . S
C330 C334 1.353 . S
N331 Co296 2.145 . S
N331 C332 1.397 . S
N331 C333 1.334 . S
C332 H313 0.929 . S
C332 C329 1.388 . S
C332 N331 1.397 . S
C333 H314 0.929 . S
C333 C330 1.404 . S
C333 N331 1.334 . S
C334 H326 0.930 . S
C334 C329 1.418 . S
C334 C330 1.353 . S
C335 H305 0.930 . S
C335 N336 1.330 . S
C335 C337 1.446 . S
N336 Co295 2.151 1_556 S
N336 C335 1.330 . S
N336 C340 1.418 . S
C337 H316 0.929 . S
C337 C335 1.446 . S
C337 C338 1.332 . S
C338 H318 0.931 . S
C338 C337 1.332 . S
C338 C339 1.267 . S
C339 H307 0.929 . S
C339 C338 1.267 . S
C339 C340 1.251 . S
C340 H310 0.929 . S
C340 N336 1.418 . S
C340 C339 1.251 . S
C341 H308 0.930 . S
C341 C343 1.406 . S
C341 C346 1.261 1_556 S
C342 H309 0.930 . S
C342 N344 1.325 . S
C342 C345 1.357 . S
C343 H311 0.928 . S
C343 C341 1.406 . S
C343 N344 1.261 1_556 S
N344 Co295 2.214 . S
N344 C342 1.325 . S
N344 C343 1.261 1_554 S
C345 H315 0.931 . S
C345 C342 1.357 . S
C345 C346 1.312 . S
C346 H317 0.930 . S
C346 C341 1.261 1_554 S
C346 C345 1.312 . S
C347 O319 1.214 . S
C347 O327 1.234 . S
C348 H320 0.929 . S
C348 C351 1.391 . S
C348 C353 1.391 . S
C349 H321 0.929 . S
C349 C350 1.390 . S
C349 N352 1.391 . S
C350 H322 0.930 . S
C350 C349 1.390 . S
C350 C351 1.392 . S
C351 H323 0.929 . S
C351 C348 1.391 . S
C351 C350 1.392 . S
N352 Co296 2.257 . S
N352 C349 1.391 . S
N352 C353 1.388 . S
C353 H324 0.930 . S
C353 C348 1.391 . S
C353 N352 1.388 . S
Co354 O356 2.143 . S
Co354 O362 2.074 . S
Co354 O365 2.093 . S
Co354 O378 2.097 . S
Co354 N395 2.151 . S
Co354 N403 2.214 . S
Co355 O356 2.160 . S
Co355 O361 2.058 . S
Co355 O371 2.057 . S
Co355 O386 2.037 . S
Co355 N390 2.145 . S
Co355 N411 2.257 1_556 S
O356 Co354 2.143 . S
O356 Co355 2.160 . S
C357 O358 1.278 1_556 S
C357 O365 1.224 . S
O358 C357 1.278 1_554 S
C359 O360 1.245 . S
C359 O371 1.232 . S
O360 C359 1.245 . S
O361 Co355 2.058 . S
O361 C387 1.269 . S
O362 Co354 2.074 . S
O362 C387 1.257 . S
H363 C388 0.930 . S
H364 C394 0.930 . S
O365 Co354 2.093 . S
O365 C357 1.224 . S
H366 C398 0.929 . S
H367 C400 0.930 . S
H368 C401 0.930 . S
H369 C399 0.929 . S
H370 C402 0.928 . S
O371 Co355 2.057 . S
O371 C359 1.232 . S
H372 C391 0.929 . S
H373 C392 0.929 . S
H374 C404 0.931 . S
H375 C396 0.929 . S
H376 C405 0.930 . S
H377 C397 0.931 . S
O378 Co354 2.097 . S
O378 C406 1.214 . S
H379 C407 0.929 . S
H380 C408 0.929 . S
H381 C409 0.930 . S
H382 C410 0.929 . S
H383 C412 0.930 . S
H384 C389 0.930 . S
H385 C393 0.930 . S
O386 Co355 2.037 . S
O386 C406 1.234 . S
C387 O361 1.269 . S
C387 O362 1.257 . S
C388 H363 0.930 . S
C388 C391 1.388 . S
C388 C393 1.418 1_556 S
C389 H384 0.930 . S
C389 C392 1.404 . S
C389 C393 1.353 . S
N390 Co355 2.145 . S
N390 C391 1.397 . S
N390 C392 1.334 1_556 S
C391 H372 0.929 . S
C391 C388 1.388 . S
C391 N390 1.397 . S
C392 H373 0.929 . S
C392 C389 1.404 . S
C392 N390 1.334 1_554 S
C393 H385 0.930 . S
C393 C388 1.418 1_554 S
C393 C389 1.353 . S
C394 H364 0.930 . S
C394 N395 1.330 . S
C394 C396 1.446 . S
N395 Co354 2.151 . S
N395 C394 1.330 . S
N395 C399 1.418 . S
C396 H375 0.929 . S
C396 C394 1.446 . S
C396 C397 1.332 . S
C397 H377 0.931 . S
C397 C396 1.332 . S
C397 C398 1.267 . S
C398 H366 0.929 . S
C398 C397 1.267 . S
C398 C399 1.251 . S
C399 H369 0.929 . S
C399 N395 1.418 . S
C399 C398 1.251 . S
C400 H367 0.930 . S
C400 C402 1.406 . S
C400 C405 1.261 . S
C401 H368 0.930 . S
C401 N403 1.325 . S
C401 C404 1.357 . S
C402 H370 0.928 . S
C402 C400 1.406 . S
C402 N403 1.261 . S
N403 Co354 2.214 . S
N403 C401 1.325 . S
N403 C402 1.261 . S
C404 H374 0.931 . S
C404 C401 1.357 . S
C404 C405 1.312 . S
C405 H376 0.930 . S
C405 C400 1.261 . S
C405 C404 1.312 . S
C406 O378 1.214 . S
C406 O386 1.234 . S
C407 H379 0.929 . S
C407 C410 1.391 . S
C407 C412 1.391 . S
C408 H380 0.929 . S
C408 C409 1.390 . S
C408 N411 1.391 . S
C409 H381 0.930 . S
C409 C408 1.390 . S
C409 C410 1.392 . S
C410 H382 0.929 . S
C410 C407 1.391 . S
C410 C409 1.392 . S
N411 Co355 2.257 1_554 S
N411 C408 1.391 . S
N411 C412 1.388 . S
C412 H383 0.930 . S
C412 C407 1.391 . S
C412 N411 1.388 . S
Co413 O415 2.143 . S
Co413 O421 2.074 . S
Co413 O424 2.093 . S
Co413 O437 2.097 . S
Co413 N454 2.151 1_554 S
Co413 N462 2.214 . S
Co414 O415 2.160 . S
Co414 O420 2.058 . S
Co414 O430 2.057 . S
Co414 O445 2.037 . S
Co414 N449 2.145 . S
Co414 N470 2.257 . S
O415 Co413 2.143 . S
O415 Co414 2.160 . S
C416 O417 1.278 . S
C416 O424 1.224 . S
O417 C416 1.278 . S
C418 O419 1.245 1_554 S
C418 O430 1.232 . S
O419 C418 1.245 1_556 S
O420 Co414 2.058 . S
O420 C446 1.269 . S
O421 Co413 2.074 . S
O421 C446 1.257 . S
H422 C447 0.930 . S
H423 C453 0.930 . S
O424 Co413 2.093 . S
O424 C416 1.224 . S
H425 C457 0.929 . S
H426 C459 0.930 . S
H427 C460 0.930 . S
H428 C458 0.929 . S
H429 C461 0.928 . S
O430 Co414 2.057 . S
O430 C418 1.232 . S
H431 C450 0.929 . S
H432 C451 0.929 . S
H433 C463 0.931 . S
H434 C455 0.929 . S
H435 C464 0.930 . S
H436 C456 0.931 . S
O437 Co413 2.097 . S
O437 C465 1.214 . S
H438 C466 0.929 . S
H439 C467 0.929 . S
H440 C468 0.930 . S
H441 C469 0.929 . S
H442 C471 0.930 . S
H443 C448 0.930 . S
H444 C452 0.930 . S
O445 Co414 2.037 . S
O445 C465 1.234 . S
C446 O420 1.269 . S
C446 O421 1.257 . S
C447 H422 0.930 . S
C447 C450 1.388 . S
C447 C452 1.418 . S
C448 H443 0.930 . S
C448 C451 1.404 . S
C448 C452 1.353 . S
N449 Co414 2.145 . S
N449 C450 1.397 . S
N449 C451 1.334 . S
C450 H431 0.929 . S
C450 C447 1.388 . S
C450 N449 1.397 . S
C451 H432 0.929 . S
C451 C448 1.404 . S
C451 N449 1.334 . S
C452 H444 0.930 . S
C452 C447 1.418 . S
C452 C448 1.353 . S
C453 H423 0.930 . S
C453 N454 1.330 . S
C453 C455 1.446 . S
N454 Co413 2.151 1_556 S
N454 C453 1.330 . S
N454 C458 1.418 . S
C455 H434 0.929 . S
C455 C453 1.446 . S
C455 C456 1.332 . S
C456 H436 0.931 . S
C456 C455 1.332 . S
C456 C457 1.267 . S
C457 H425 0.929 . S
C457 C456 1.267 . S
C457 C458 1.251 . S
C458 H428 0.929 . S
C458 N454 1.418 . S
C458 C457 1.251 . S
C459 H426 0.930 . S
C459 C461 1.406 . S
C459 C464 1.261 1_556 S
C460 H427 0.930 . S
C460 N462 1.325 . S
C460 C463 1.357 . S
C461 H429 0.928 . S
C461 C459 1.406 . S
C461 N462 1.261 1_556 S
N462 Co413 2.214 . S
N462 C460 1.325 . S
N462 C461 1.261 1_554 S
C463 H433 0.931 . S
C463 C460 1.357 . S
C463 C464 1.312 . S
C464 H435 0.930 . S
C464 C459 1.261 1_554 S
C464 C463 1.312 . S
C465 O437 1.214 . S
C465 O445 1.234 . S
C466 H438 0.929 . S
C466 C469 1.391 . S
C466 C471 1.391 . S
C467 H439 0.929 . S
C467 C468 1.390 . S
C467 N470 1.391 . S
C468 H440 0.930 . S
C468 C467 1.390 . S
C468 C469 1.392 . S
C469 H441 0.929 . S
C469 C466 1.391 . S
C469 C468 1.392 . S
N470 Co414 2.257 . S
N470 C467 1.391 . S
N470 C471 1.388 . S
C471 H442 0.930 . S
C471 C466 1.391 . S
C471 N470 1.388 . S
H472 C484 0.930 . S
H473 C486 0.930 . S
H474 C487 0.930 . S
H475 C491 0.959 . S
H476 C491 0.959 . S
H477 C491 0.961 . S
H478 C492 0.960 . S
H479 C492 0.961 . S
H480 C492 0.959 . S
H481 C495 0.929 . S
H482 C496 0.931 . S
H483 C498 0.930 . S
C484 H472 0.930 . S
C484 C485 1.399 . S
C484 C489 1.399 . S
C485 C484 1.399 . S
C485 C486 1.376 . S
C486 H473 0.930 . S
C486 C485 1.376 . S
C486 C487 1.388 . S
C487 H474 0.930 . S
C487 C486 1.388 . S
C487 C488 1.390 . S
C488 C487 1.390 . S
C488 C489 1.394 . S
C488 C494 1.465 . S
C489 C484 1.399 . S
C489 C488 1.394 . S
C489 C490 1.516 . S
C490 C489 1.516 . S
C490 C491 1.502 . S
C490 C492 1.561 . S
C490 C493 1.526 . S
C491 H475 0.959 . S
C491 H476 0.959 . S
C491 H477 0.961 . S
C491 C490 1.502 . S
C492 H478 0.960 . S
C492 H479 0.961 . S
C492 H480 0.959 . S
C492 C490 1.561 . S
C493 C490 1.526 . S
C493 C494 1.396 . S
C493 C498 1.390 . S
C494 C488 1.465 . S
C494 C493 1.396 . S
C494 C495 1.399 . S
C495 H481 0.929 . S
C495 C494 1.399 . S
C495 C496 1.385 . S
C496 H482 0.931 . S
C496 C495 1.385 . S
C496 C497 1.389 . S
C497 C496 1.389 . S
C497 C498 1.387 . S
C498 H483 0.930 . S
C498 C493 1.390 . S
C498 C497 1.387 . S
H499 C511 0.930 . S
H500 C513 0.930 . S
H501 C514 0.930 . S
H502 C518 0.959 . S
H503 C518 0.959 . S
H504 C518 0.961 . S
H505 C519 0.960 . S
H506 C519 0.961 . S
H507 C519 0.959 . S
H508 C522 0.929 . S
H509 C523 0.931 . S
H510 C525 0.930 . S
C511 H499 0.930 . S
C511 C512 1.399 . S
C511 C516 1.399 . S
C512 C511 1.399 . S
C512 C513 1.376 . S
C513 H500 0.930 . S
C513 C512 1.376 . S
C513 C514 1.388 . S
C514 H501 0.930 . S
C514 C513 1.388 . S
C514 C515 1.390 . S
C515 C514 1.390 . S
C515 C516 1.394 . S
C515 C521 1.465 . S
C516 C511 1.399 . S
C516 C515 1.394 . S
C516 C517 1.516 . S
C517 C516 1.516 . S
C517 C518 1.502 . S
C517 C519 1.561 . S
C517 C520 1.526 . S
C518 H502 0.959 . S
C518 H503 0.959 . S
C518 H504 0.961 . S
C518 C517 1.502 . S
C519 H505 0.960 . S
C519 H506 0.961 . S
C519 H507 0.959 . S
C519 C517 1.561 . S
C520 C517 1.526 . S
C520 C521 1.396 . S
C520 C525 1.390 . S
C521 C515 1.465 . S
C521 C520 1.396 . S
C521 C522 1.399 . S
C522 H508 0.929 . S
C522 C521 1.399 . S
C522 C523 1.385 . S
C523 H509 0.931 . S
C523 C522 1.385 . S
C523 C524 1.389 . S
C524 C523 1.389 . S
C524 C525 1.387 . S
C525 H510 0.930 . S
C525 C520 1.390 . S
C525 C524 1.387 . S
H526 C538 0.930 . S
H527 C540 0.930 . S
H528 C541 0.930 . S
H529 C545 0.959 . S
H530 C545 0.959 . S
H531 C545 0.961 . S
H532 C546 0.960 . S
H533 C546 0.961 . S
H534 C546 0.959 . S
H535 C549 0.929 . S
H536 C550 0.931 . S
H537 C552 0.930 . S
C538 H526 0.930 . S
C538 C539 1.399 . S
C538 C543 1.399 . S
C539 C538 1.399 . S
C539 C540 1.376 . S
C540 H527 0.930 . S
C540 C539 1.376 . S
C540 C541 1.388 . S
C541 H528 0.930 . S
C541 C540 1.388 . S
C541 C542 1.390 . S
C542 C541 1.390 . S
C542 C543 1.394 . S
C542 C548 1.465 . S
C543 C538 1.399 . S
C543 C542 1.394 . S
C543 C544 1.516 . S
C544 C543 1.516 . S
C544 C545 1.502 . S
C544 C546 1.561 . S
C544 C547 1.526 . S
C545 H529 0.959 . S
C545 H530 0.959 . S
C545 H531 0.961 . S
C545 C544 1.502 . S
C546 H532 0.960 . S
C546 H533 0.961 . S
C546 H534 0.959 . S
C546 C544 1.561 . S
C547 C544 1.526 . S
C547 C548 1.396 . S
C547 C552 1.390 . S
C548 C542 1.465 . S
C548 C547 1.396 . S
C548 C549 1.399 . S
C549 H535 0.929 . S
C549 C548 1.399 . S
C549 C550 1.385 . S
C550 H536 0.931 . S
C550 C549 1.385 . S
C550 C551 1.389 . S
C551 C550 1.389 . S
C551 C552 1.387 . S
C552 H537 0.930 . S
C552 C547 1.390 . S
C552 C551 1.387 . S
H553 C565 0.930 . S
H554 C567 0.930 . S
H555 C568 0.930 . S
H556 C572 0.959 . S
H557 C572 0.959 . S
H558 C572 0.961 . S
H559 C573 0.960 . S
H560 C573 0.961 . S
H561 C573 0.959 . S
H562 C576 0.929 . S
H563 C577 0.931 . S
H564 C579 0.930 . S
C565 H553 0.930 . S
C565 C566 1.399 . S
C565 C570 1.399 . S
C566 C565 1.399 . S
C566 C567 1.376 . S
C567 H554 0.930 . S
C567 C566 1.376 . S
C567 C568 1.388 . S
C568 H555 0.930 . S
C568 C567 1.388 . S
C568 C569 1.390 . S
C569 C568 1.390 . S
C569 C570 1.394 . S
C569 C575 1.465 . S
C570 C565 1.399 . S
C570 C569 1.394 . S
C570 C571 1.516 . S
C571 C570 1.516 . S
C571 C572 1.502 . S
C571 C573 1.561 . S
C571 C574 1.526 . S
C572 H556 0.959 . S
C572 H557 0.959 . S
C572 H558 0.961 . S
C572 C571 1.502 . S
C573 H559 0.960 . S
C573 H560 0.961 . S
C573 H561 0.959 . S
C573 C571 1.561 . S
C574 C571 1.526 . S
C574 C575 1.396 . S
C574 C579 1.390 . S
C575 C569 1.465 . S
C575 C574 1.396 . S
C575 C576 1.399 . S
C576 H562 0.929 . S
C576 C575 1.399 . S
C576 C577 1.385 . S
C577 H563 0.931 . S
C577 C576 1.385 . S
C577 C578 1.389 . S
C578 C577 1.389 . S
C578 C579 1.387 . S
C579 H564 0.930 . S
C579 C574 1.390 . S
C579 C578 1.387 . S
H580 C592 0.930 . S
H581 C594 0.930 . S
H582 C595 0.930 . S
H583 C599 0.959 . S
H584 C599 0.959 . S
H585 C599 0.961 . S
H586 C600 0.960 . S
H587 C600 0.961 . S
H588 C600 0.959 . S
H589 C603 0.929 . S
H590 C604 0.931 . S
H591 C606 0.930 . S
C592 H580 0.930 . S
C592 C593 1.399 . S
C592 C597 1.399 . S
C593 C592 1.399 . S
C593 C594 1.376 . S
C594 H581 0.930 . S
C594 C593 1.376 . S
C594 C595 1.388 . S
C595 H582 0.930 . S
C595 C594 1.388 . S
C595 C596 1.390 . S
C596 C595 1.390 . S
C596 C597 1.394 . S
C596 C602 1.465 . S
C597 C592 1.399 . S
C597 C596 1.394 . S
C597 C598 1.516 . S
C598 C597 1.516 . S
C598 C599 1.502 . S
C598 C600 1.561 . S
C598 C601 1.526 . S
C599 H583 0.959 . S
C599 H584 0.959 . S
C599 H585 0.961 . S
C599 C598 1.502 . S
C600 H586 0.960 . S
C600 H587 0.961 . S
C600 H588 0.959 . S
C600 C598 1.561 . S
C601 C598 1.526 . S
C601 C602 1.396 . S
C601 C606 1.390 . S
C602 C596 1.465 . S
C602 C601 1.396 . S
C602 C603 1.399 . S
C603 H589 0.929 . S
C603 C602 1.399 . S
C603 C604 1.385 . S
C604 H590 0.931 . S
C604 C603 1.385 . S
C604 C605 1.389 . S
C605 C604 1.389 . S
C605 C606 1.387 . S
C606 H591 0.930 . S
C606 C601 1.390 . S
C606 C605 1.387 . S
H607 C619 0.930 . S
H608 C621 0.930 . S
H609 C622 0.930 . S
H610 C626 0.959 . S
H611 C626 0.959 . S
H612 C626 0.961 . S
H613 C627 0.960 . S
H614 C627 0.961 . S
H615 C627 0.959 . S
H616 C630 0.929 . S
H617 C631 0.931 . S
H618 C633 0.930 . S
C619 H607 0.930 . S
C619 C620 1.399 . S
C619 C624 1.399 . S
C620 C619 1.399 . S
C620 C621 1.376 . S
C621 H608 0.930 . S
C621 C620 1.376 . S
C621 C622 1.388 . S
C622 H609 0.930 . S
C622 C621 1.388 . S
C622 C623 1.390 . S
C623 C622 1.390 . S
C623 C624 1.394 . S
C623 C629 1.465 . S
C624 C619 1.399 . S
C624 C623 1.394 . S
C624 C625 1.516 . S
C625 C624 1.516 . S
C625 C626 1.502 . S
C625 C627 1.561 . S
C625 C628 1.526 . S
C626 H610 0.959 . S
C626 H611 0.959 . S
C626 H612 0.961 . S
C626 C625 1.502 . S
C627 H613 0.960 . S
C627 H614 0.961 . S
C627 H615 0.959 . S
C627 C625 1.561 . S
C628 C625 1.526 . S
C628 C629 1.396 . S
C628 C633 1.390 . S
C629 C623 1.465 . S
C629 C628 1.396 . S
C629 C630 1.399 . S
C630 H616 0.929 . S
C630 C629 1.399 . S
C630 C631 1.385 . S
C631 H617 0.931 . S
C631 C630 1.385 . S
C631 C632 1.389 . S
C632 C631 1.389 . S
C632 C633 1.387 . S
C633 H618 0.930 . S
C633 C628 1.390 . S
C633 C632 1.387 . S
H634 C646 0.930 . S
H635 C648 0.930 . S
H636 C649 0.930 . S
H637 C653 0.959 . S
H638 C653 0.959 . S
H639 C653 0.961 . S
H640 C654 0.960 . S
H641 C654 0.961 . S
H642 C654 0.959 . S
H643 C657 0.929 . S
H644 C658 0.931 . S
H645 C660 0.930 . S
C646 H634 0.930 . S
C646 C647 1.399 . S
C646 C651 1.399 . S
C647 C646 1.399 . S
C647 C648 1.376 . S
C648 H635 0.930 . S
C648 C647 1.376 . S
C648 C649 1.388 . S
C649 H636 0.930 . S
C649 C648 1.388 . S
C649 C650 1.390 . S
C650 C649 1.390 . S
C650 C651 1.394 . S
C650 C656 1.465 . S
C651 C646 1.399 . S
C651 C650 1.394 . S
C651 C652 1.516 . S
C652 C651 1.516 . S
C652 C653 1.502 . S
C652 C654 1.561 . S
C652 C655 1.526 . S
C653 H637 0.959 . S
C653 H638 0.959 . S
C653 H639 0.961 . S
C653 C652 1.502 . S
C654 H640 0.960 . S
C654 H641 0.961 . S
C654 H642 0.959 . S
C654 C652 1.561 . S
C655 C652 1.526 . S
C655 C656 1.396 . S
C655 C660 1.390 . S
C656 C650 1.465 . S
C656 C655 1.396 . S
C656 C657 1.399 . S
C657 H643 0.929 . S
C657 C656 1.399 . S
C657 C658 1.385 . S
C658 H644 0.931 . S
C658 C657 1.385 . S
C658 C659 1.389 . S
C659 C658 1.389 . S
C659 C660 1.387 . S
C660 H645 0.930 . S
C660 C655 1.390 . S
C660 C659 1.387 . S
H661 C673 0.930 . S
H662 C675 0.930 . S
H663 C676 0.930 . S
H664 C680 0.959 . S
H665 C680 0.959 . S
H666 C680 0.961 . S
H667 C681 0.960 . S
H668 C681 0.961 . S
H669 C681 0.959 . S
H670 C684 0.929 . S
H671 C685 0.931 . S
H672 C687 0.930 . S
C673 H661 0.930 . S
C673 C674 1.399 . S
C673 C678 1.399 . S
C674 C673 1.399 . S
C674 C675 1.376 . S
C675 H662 0.930 . S
C675 C674 1.376 . S
C675 C676 1.388 . S
C676 H663 0.930 . S
C676 C675 1.388 . S
C676 C677 1.390 . S
C677 C676 1.390 . S
C677 C678 1.394 . S
C677 C683 1.465 . S
C678 C673 1.399 . S
C678 C677 1.394 . S
C678 C679 1.516 . S
C679 C678 1.516 . S
C679 C680 1.502 . S
C679 C681 1.561 . S
C679 C682 1.526 . S
C680 H664 0.959 . S
C680 H665 0.959 . S
C680 H666 0.961 . S
C680 C679 1.502 . S
C681 H667 0.960 . S
C681 H668 0.961 . S
C681 H669 0.959 . S
C681 C679 1.561 . S
C682 C679 1.526 . S
C682 C683 1.396 . S
C682 C687 1.390 . S
C683 C677 1.465 . S
C683 C682 1.396 . S
C683 C684 1.399 . S
C684 H670 0.929 . S
C684 C683 1.399 . S
C684 C685 1.385 . S
C685 H671 0.931 . S
C685 C684 1.385 . S
C685 C686 1.389 . S
C686 C685 1.389 . S
C686 C687 1.387 . S
C687 H672 0.930 . S
C687 C682 1.390 . S
C687 C686 1.387 . S
H688 C700 0.930 . S
H689 C702 0.930 . S
H690 C703 0.930 . S
H691 C707 0.959 . S
H692 C707 0.959 . S
H693 C707 0.961 . S
H694 C708 0.960 . S
H695 C708 0.961 . S
H696 C708 0.959 . S
H697 C711 0.929 . S
H698 C712 0.931 . S
H699 C714 0.930 . S
C700 H688 0.930 . S
C700 C701 1.399 1_556 S
C700 C705 1.399 . S
C701 C700 1.399 1_554 S
C701 C702 1.376 . S
C702 H689 0.930 . S
C702 C701 1.376 . S
C702 C703 1.388 . S
C703 H690 0.930 . S
C703 C702 1.388 . S
C703 C704 1.390 . S
C704 C703 1.390 . S
C704 C705 1.394 1_554 S
C704 C710 1.465 . S
C705 C700 1.399 . S
C705 C704 1.394 1_556 S
C705 C706 1.516 . S
C706 C705 1.516 . S
C706 C707 1.502 . S
C706 C708 1.561 . S
C706 C709 1.526 . S
C707 H691 0.959 . S
C707 H692 0.959 . S
C707 H693 0.961 . S
C707 C706 1.502 . S
C708 H694 0.960 . S
C708 H695 0.961 . S
C708 H696 0.959 . S
C708 C706 1.561 . S
C709 C706 1.526 . S
C709 C710 1.396 1_556 S
C709 C714 1.390 . S
C710 C704 1.465 . S
C710 C709 1.396 1_554 S
C710 C711 1.399 . S
C711 H697 0.929 . S
C711 C710 1.399 . S
C711 C712 1.385 . S
C712 H698 0.931 . S
C712 C711 1.385 . S
C712 C713 1.389 1_554 S
C713 C712 1.389 1_556 S
C713 C714 1.387 . S
C714 H699 0.930 . S
C714 C709 1.390 . S
C714 C713 1.387 . S
H715 C727 0.930 . S
H716 C729 0.930 . S
H717 C730 0.930 . S
H718 C734 0.959 . S
H719 C734 0.959 . S
H720 C734 0.961 . S
H721 C735 0.960 . S
H722 C735 0.961 . S
H723 C735 0.959 . S
H724 C738 0.929 . S
H725 C739 0.931 . S
H726 C741 0.930 . S
C727 H715 0.930 . S
C727 C728 1.399 . S
C727 C732 1.399 . S
C728 C727 1.399 . S
C728 C729 1.376 1_554 S
C729 H716 0.930 . S
C729 C728 1.376 1_556 S
C729 C730 1.388 . S
C730 H717 0.930 . S
C730 C729 1.388 . S
C730 C731 1.390 . S
C731 C730 1.390 . S
C731 C732 1.394 1_556 S
C731 C737 1.465 . S
C732 C727 1.399 . S
C732 C731 1.394 1_554 S
C732 C733 1.516 . S
C733 C732 1.516 . S
C733 C734 1.502 . S
C733 C735 1.561 . S
C733 C736 1.526 . S
C734 H718 0.959 . S
C734 H719 0.959 . S
C734 H720 0.961 . S
C734 C733 1.502 . S
C735 H721 0.960 . S
C735 H722 0.961 . S
C735 H723 0.959 . S
C735 C733 1.561 . S
C736 C733 1.526 . S
C736 C737 1.396 1_554 S
C736 C741 1.390 . S
C737 C731 1.465 . S
C737 C736 1.396 1_556 S
C737 C738 1.399 . S
C738 H724 0.929 . S
C738 C737 1.399 . S
C738 C739 1.385 . S
C739 H725 0.931 . S
C739 C738 1.385 . S
C739 C740 1.389 . S
C740 C739 1.389 . S
C740 C741 1.387 1_556 S
C741 H726 0.930 . S
C741 C736 1.390 . S
C741 C740 1.387 1_554 S
H742 C754 0.930 . S
H743 C756 0.930 . S
H744 C757 0.930 . S
H745 C761 0.959 . S
H746 C761 0.959 . S
H747 C761 0.961 . S
H748 C762 0.960 . S
H749 C762 0.961 . S
H750 C762 0.959 . S
H751 C765 0.929 . S
H752 C766 0.931 . S
H753 C768 0.930 . S
C754 H742 0.930 . S
C754 C755 1.397 1_554 S
C754 C759 1.399 . S
C755 C754 1.397 1_556 S
C755 C756 1.379 . S
C756 H743 0.930 . S
C756 C755 1.379 . S
C756 C757 1.388 . S
C757 H744 0.930 . S
C757 C756 1.388 . S
C757 C758 1.390 . S
C758 C757 1.390 . S
C758 C759 1.394 1_556 S
C758 C764 1.465 . S
C759 C754 1.399 . S
C759 C758 1.394 1_554 S
C759 C760 1.516 . S
C760 C759 1.516 . S
C760 C761 1.502 . S
C760 C762 1.561 . S
C760 C763 1.526 . S
C761 H745 0.959 . S
C761 H746 0.959 . S
C761 H747 0.961 . S
C761 C760 1.502 . S
C762 H748 0.960 . S
C762 H749 0.961 . S
C762 H750 0.959 . S
C762 C760 1.561 . S
C763 C760 1.526 . S
C763 C764 1.396 1_554 S
C763 C768 1.390 . S
C764 C758 1.465 . S
C764 C763 1.396 1_556 S
C764 C765 1.399 . S
C765 H751 0.929 . S
C765 C764 1.399 . S
C765 C766 1.385 . S
C766 H752 0.931 . S
C766 C765 1.385 . S
C766 C767 1.389 . S
C767 C766 1.389 . S
C767 C768 1.387 1_556 S
C768 H753 0.930 . S
C768 C763 1.390 . S
C768 C767 1.387 1_554 S
H769 C781 0.930 . S
H770 C783 0.930 . S
H771 C784 0.930 . S
H772 C788 0.959 . S
H773 C788 0.959 . S
H774 C788 0.961 . S
H775 C789 0.960 . S
H776 C789 0.961 . S
H777 C789 0.959 . S
H778 C792 0.929 . S
H779 C793 0.931 . S
H780 C795 0.930 . S
C781 H769 0.930 . S
C781 C782 1.403 . S
C781 C786 1.399 . S
C782 C781 1.403 . S
C782 C783 1.371 1_556 S
C783 H770 0.930 . S
C783 C782 1.371 1_554 S
C783 C784 1.388 . S
C784 H771 0.930 . S
C784 C783 1.388 . S
C784 C785 1.390 . S
C785 C784 1.390 . S
C785 C786 1.394 1_554 S
C785 C791 1.465 . S
C786 C781 1.399 . S
C786 C785 1.394 1_556 S
C786 C787 1.516 . S
C787 C786 1.516 . S
C787 C788 1.502 . S
C787 C789 1.561 . S
C787 C790 1.526 . S
C788 H772 0.959 . S
C788 H773 0.959 . S
C788 H774 0.961 . S
C788 C787 1.502 . S
C789 H775 0.960 . S
C789 H776 0.961 . S
C789 H777 0.959 . S
C789 C787 1.561 . S
C790 C787 1.526 . S
C790 C791 1.396 1_556 S
C790 C795 1.390 . S
C791 C785 1.465 . S
C791 C790 1.396 1_554 S
C791 C792 1.399 . S
C792 H778 0.929 . S
C792 C791 1.399 . S
C792 C793 1.385 . S
C793 H779 0.931 . S
C793 C792 1.385 . S
C793 C794 1.389 . S
C794 C793 1.389 . S
C794 C795 1.387 1_554 S
C795 H780 0.930 . S
C795 C790 1.390 . S
C795 C794 1.387 1_556 S
H796 C808 0.930 . S
H797 C810 0.930 . S
H798 C811 0.930 . S
H799 C815 0.959 . S
H800 C815 0.959 . S
H801 C815 0.961 . S
H802 C816 0.960 1_655 S
H803 C816 0.961 . S
H804 C816 0.959 . S
H805 C819 0.929 . S
H806 C820 0.931 . S
H807 C822 0.930 . S
C808 H796 0.930 . S
C808 C809 1.399 . S
C808 C813 1.399 . S
C809 C808 1.399 . S
C809 C810 1.376 . S
C810 H797 0.930 . S
C810 C809 1.376 . S
C810 C811 1.388 1_655 S
C811 H798 0.930 . S
C811 C810 1.388 1_455 S
C811 C812 1.390 . S
C812 C811 1.390 . S
C812 C813 1.394 1_455 S
C812 C818 1.465 . S
C813 C808 1.399 . S
C813 C812 1.394 1_655 S
C813 C814 1.516 . S
C814 C813 1.516 . S
C814 C815 1.502 . S
C814 C816 1.561 1_655 S
C814 C817 1.526 1_655 S
C815 H799 0.959 . S
C815 H800 0.959 . S
C815 H801 0.961 . S
C815 C814 1.502 . S
C816 H802 0.960 1_455 S
C816 H803 0.961 . S
C816 H804 0.959 . S
C816 C814 1.561 1_455 S
C817 C814 1.526 1_455 S
C817 C818 1.396 . S
C817 C822 1.390 . S
C818 C812 1.465 . S
C818 C817 1.396 . S
C818 C819 1.399 . S
C819 H805 0.929 . S
C819 C818 1.399 . S
C819 C820 1.385 . S
C820 H806 0.931 . S
C820 C819 1.385 . S
C820 C821 1.389 . S
C821 C820 1.389 . S
C821 C822 1.387 . S
C822 H807 0.930 . S
C822 C817 1.390 . S
C822 C821 1.387 . S
H823 C835 0.930 . S
H824 C837 0.930 . S
H825 C838 0.930 . S
H826 C842 0.959 . S
H827 C842 0.959 . S
H828 C842 0.961 . S
H829 C843 0.960 . S
H830 C843 0.961 . S
H831 C843 0.959 . S
H832 C846 0.929 1_545 S
H833 C847 0.931 . S
H834 C849 0.930 . S
C835 H823 0.930 . S
C835 C836 1.399 . S
C835 C840 1.399 . S
C836 C835 1.399 . S
C836 C837 1.376 . S
C837 H824 0.930 . S
C837 C836 1.376 . S
C837 C838 1.388 . S
C838 H825 0.930 . S
C838 C837 1.388 . S
C838 C839 1.390 . S
C839 C838 1.390 . S
C839 C840 1.394 . S
C839 C845 1.470 . S
C840 C835 1.399 . S
C840 C839 1.394 . S
C840 C841 1.516 1_545 S
C841 C840 1.516 1_565 S
C841 C842 1.502 . S
C841 C843 1.561 1_565 S
C841 C844 1.526 . S
C842 H826 0.959 . S
C842 H827 0.959 . S
C842 H828 0.961 . S
C842 C841 1.502 . S
C843 H829 0.960 . S
C843 H830 0.961 . S
C843 H831 0.959 . S
C843 C841 1.561 1_545 S
C844 C841 1.526 . S
C844 C845 1.391 1_565 S
C844 C849 1.390 . S
C845 C839 1.470 . S
C845 C844 1.391 1_545 S
C845 C846 1.398 1_545 S
C846 H832 0.929 1_565 S
C846 C845 1.398 1_565 S
C846 C847 1.385 . S
C847 H833 0.931 . S
C847 C846 1.385 . S
C847 C848 1.389 . S
C848 C847 1.389 . S
C848 C849 1.387 . S
C849 H834 0.930 . S
C849 C844 1.390 . S
C849 C848 1.387 . S
H850 C862 0.930 . S
H851 C864 0.930 . S
H852 C865 0.930 . S
H853 C869 0.959 . S
H854 C869 0.959 . S
H855 C869 0.961 . S
H856 C870 0.973 . S
H857 C870 0.952 1_565 S
H858 C870 0.953 1_565 S
H859 C873 0.929 . S
H860 C874 0.931 . S
H861 C876 0.930 . S
C862 H850 0.930 . S
C862 C863 1.399 . S
C862 C867 1.399 . S
C863 C862 1.399 . S
C863 C864 1.376 1_556 S
C864 H851 0.930 . S
C864 C863 1.376 1_554 S
C864 C865 1.388 . S
C865 H852 0.930 . S
C865 C864 1.388 . S
C865 C866 1.390 1_554 S
C866 C865 1.390 1_556 S
C866 C867 1.394 . S
C866 C872 1.465 1_545 S
C867 C862 1.399 . S
C867 C866 1.394 . S
C867 C868 1.516 . S
C868 C867 1.516 . S
C868 C869 1.502 . S
C868 C870 1.564 . S
C868 C871 1.526 1_545 S
C869 H853 0.959 . S
C869 H854 0.959 . S
C869 H855 0.961 . S
C869 C868 1.502 . S
C870 H856 0.973 . S
C870 H857 0.952 1_545 S
C870 H858 0.953 1_545 S
C870 C868 1.564 . S
C871 C868 1.526 1_565 S
C871 C872 1.396 . S
C871 C876 1.390 . S
C872 C866 1.465 1_565 S
C872 C871 1.396 . S
C872 C873 1.399 1_556 S
C873 H859 0.929 . S
C873 C872 1.399 1_554 S
C873 C874 1.385 . S
C874 H860 0.931 . S
C874 C873 1.385 . S
C874 C875 1.389 1_554 S
C875 C874 1.389 1_556 S
C875 C876 1.387 . S
C876 H861 0.930 . S
C876 C871 1.390 . S
C876 C875 1.387 . S
H877 C889 0.930 . S
H878 C891 0.930 . S
H879 C892 0.930 . S
H880 C896 0.959 . S
H881 C896 0.959 1_655 S
H882 C896 0.961 . S
H883 C897 0.960 1_455 S
H884 C897 0.961 . S
H885 C897 0.959 . S
H886 C900 0.929 . S
H887 C901 0.931 . S
H888 C903 0.930 . S
C889 H877 0.930 . S
C889 C890 1.399 1_556 S
C889 C894 1.399 1_556 S
C890 C889 1.399 1_554 S
C890 C891 1.376 . S
C891 H878 0.930 . S
C891 C890 1.376 . S
C891 C892 1.388 . S
C892 H879 0.930 . S
C892 C891 1.388 . S
C892 C893 1.390 . S
C893 C892 1.390 . S
C893 C894 1.394 . S
C893 C899 1.465 1_455 S
C894 C889 1.399 1_554 S
C894 C893 1.394 . S
C894 C895 1.516 1_554 S
C895 C894 1.516 1_556 S
C895 C896 1.502 . S
C895 C897 1.561 1_455 S
C895 C898 1.526 1_456 S
C896 H880 0.959 . S
C896 H881 0.959 1_455 S
C896 H882 0.961 . S
C896 C895 1.502 . S
C897 H883 0.960 1_655 S
C897 H884 0.961 . S
C897 H885 0.959 . S
C897 C895 1.561 1_655 S
C898 C895 1.526 1_654 S
C898 C899 1.396 . S
C898 C903 1.390 1_554 S
C899 C893 1.465 1_655 S
C899 C898 1.396 . S
C899 C900 1.399 . S
C900 H886 0.929 . S
C900 C899 1.399 . S
C900 C901 1.385 . S
C901 H887 0.931 . S
C901 C900 1.385 . S
C901 C902 1.389 . S
C902 C901 1.389 . S
C902 C903 1.387 1_554 S
C903 H888 0.930 . S
C903 C898 1.390 1_556 S
C903 C902 1.387 1_556 S
C485 C465 1.576 . S
C497 C33 1.611 . S
C512 C92 1.605 . S
C524 C269 1.590 . S
C539 C151 1.595 . S
C551 C347 1.589 . S
C566 C387 1.588 . S
C578 C210 1.615 . S
C593 C62 1.510 . S
C605 C5 1.518 . S
C620 C64 1.504 . S
C632 C121 1.527 . S
C647 C180 1.514 . S
C659 C123 1.513 . S
C674 C182 1.506 . S
C686 C3 1.526 . S
C701 C418 1.510 . S
C713 C241 1.529 . S
C728 C298 1.527 . S
C740 C239 1.500 . S
C755 C300 1.533 1_556 S
C767 C359 1.494 . S
C782 C357 1.527 . S
C794 C416 1.481 . S
C809 C170 1.271 . S
C821 C52 1.293 . S
C836 C229 1.291 . S
C848 C111 1.279 . S
C863 C406 1.290 . S
C875 C288 1.272 . S
C890 C446 1.258 . S
C902 C328 1.243 . S
