# Generated by pormake.
# Topology snk, (6)-cn, num edge types: 1
# Building blocks:
#     Node 0, Type 0, BuildingBlock: BETGAK_clean_sbu_0, # of connection points: 6
#     Node 1, Type 0, BuildingBlock: BETGAK_clean_sbu_0, # of connection points: 6
#     Node 2, Type 0, BuildingBlock: BETGAK_clean_sbu_0, # of connection points: 6
#     Node 3, Type 0, BuildingBlock: BETGAK_clean_sbu_0, # of connection points: 6
#     Node 4, Type 0, BuildingBlock: BETGAK_clean_sbu_0, # of connection points: 6
#     Node 5, Type 0, BuildingBlock: BETGAK_clean_sbu_0, # of connection points: 6
#     Node 6, Type 0, BuildingBlock: BETGAK_clean_sbu_0, # of connection points: 6
#     Node 7, Type 0, BuildingBlock: BETGAK_clean_sbu_0, # of connection points: 6
#     Edge 8, Type (0, 0), BuildingBlock: ZUJKAS_clean_linker_0, # of connection points: 2
#     Edge 9, Type (0, 0), BuildingBlock: ZUJKAS_clean_linker_0, # of connection points: 2
#     Edge 10, Type (0, 0), BuildingBlock: ZUJKAS_clean_linker_0, # of connection points: 2
#     Edge 11, Type (0, 0), BuildingBlock: ZUJKAS_clean_linker_0, # of connection points: 2
#     Edge 12, Type (0, 0), BuildingBlock: ZUJKAS_clean_linker_0, # of connection points: 2
#     Edge 13, Type (0, 0), BuildingBlock: ZUJKAS_clean_linker_0, # of connection points: 2
#     Edge 14, Type (0, 0), BuildingBlock: ZUJKAS_clean_linker_0, # of connection points: 2
#     Edge 15, Type (0, 0), BuildingBlock: ZUJKAS_clean_linker_0, # of connection points: 2
#     Edge 16, Type (0, 0), BuildingBlock: ZUJKAS_clean_linker_0, # of connection points: 2
#     Edge 17, Type (0, 0), BuildingBlock: ZUJKAS_clean_linker_0, # of connection points: 2
#     Edge 18, Type (0, 0), BuildingBlock: ZUJKAS_clean_linker_0, # of connection points: 2
#     Edge 19, Type (0, 0), BuildingBlock: ZUJKAS_clean_linker_0, # of connection points: 2
#     Edge 20, Type (0, 0), BuildingBlock: ZUJKAS_clean_linker_0, # of connection points: 2
#     Edge 21, Type (0, 0), BuildingBlock: ZUJKAS_clean_linker_0, # of connection points: 2
#     Edge 22, Type (0, 0), BuildingBlock: ZUJKAS_clean_linker_0, # of connection points: 2
#     Edge 23, Type (0, 0), BuildingBlock: ZUJKAS_clean_linker_0, # of connection points: 2
#     Edge 24, Type (0, 0), BuildingBlock: ZUJKAS_clean_linker_0, # of connection points: 2
#     Edge 25, Type (0, 0), BuildingBlock: ZUJKAS_clean_linker_0, # of connection points: 2
#     Edge 26, Type (0, 0), BuildingBlock: ZUJKAS_clean_linker_0, # of connection points: 2
#     Edge 27, Type (0, 0), BuildingBlock: ZUJKAS_clean_linker_0, # of connection points: 2
#     Edge 28, Type (0, 0), BuildingBlock: ZUJKAS_clean_linker_0, # of connection points: 2
#     Edge 29, Type (0, 0), BuildingBlock: ZUJKAS_clean_linker_0, # of connection points: 2
#     Edge 30, Type (0, 0), BuildingBlock: ZUJKAS_clean_linker_0, # of connection points: 2
#     Edge 31, Type (0, 0), BuildingBlock: ZUJKAS_clean_linker_0, # of connection points: 2
# Relax obj value: 0.079
# Max RMSD: 0.134
# Mean RMSD: 0.116
data_MOF--net-snk--node1-BETGAK_clean_sbu_0--edge1-ZUJKAS_clean_linker_0
_symmetry_space_group_name_H-M    P1
_symmetry_Int_Tables_number       1
_symmetry_cell_setting            triclinic
loop_
_symmetry_equiv_pos_as_xyz
'x, y, z'
_cell_length_a     49.84738
_cell_length_b     49.782475
_cell_length_c     29.930036
_cell_angle_alpha  84.483012
_cell_angle_beta   95.69034
_cell_angle_gamma 89.309216
loop_
_atom_site_label
_atom_site_type_symbol
_atom_site_fract_x
_atom_site_fract_y
_atom_site_fract_z
_atom_type_partial_charge
La0 La 1.00251 1.00412 0.46218 0.0
La1 La 0.02789 0.01459 0.55655 0.0
C2 C 0.97939 1.00879 0.38274 0.0
C3 C 0.98628 1.01061 0.33583 0.0
C4 C 1.00984 0.99839 0.32433 0.0
C5 C 0.01482 0.99875 0.27903 0.0
C6 C 0.99636 1.01139 0.24446 0.0
C7 C 0.97322 0.0243 0.25648 0.0
C8 C 0.96824 0.02385 0.30168 0.0
C9 C 0.04207 0.97081 0.49712 0.0
C10 C 0.05183 0.04466 0.47325 0.0
C11 C 0.05169 1.00911 0.63539 0.0
C12 C 0.04504 1.00601 0.68246 0.0
C13 C 0.02158 0.01784 0.69512 0.0
C14 C 0.01692 0.01658 0.74064 0.0
C15 C 0.03559 1.00339 0.77432 0.0
C16 C 0.05857 0.99078 0.76112 0.0
C17 C 0.06323 0.99212 0.71566 0.0
C18 C 0.98814 0.04792 0.5221 0.0
C19 C 0.97805 0.97471 0.54586 0.0
O20 O 0.9847 0.98567 0.40692 0.0
O21 O 0.98566 0.02935 0.40558 0.0
O22 O 0.02278 0.96433 0.46821 0.0
O23 O 0.04014 0.99549 0.50132 0.0
O24 O 0.03071 0.0368 0.44747 0.0
O25 O 0.05704 0.03479 0.516 0.0
O26 O 0.04549 0.03249 0.61248 0.0
O27 O 0.04613 0.98886 0.61141 0.0
O28 O 1.00715 0.05413 0.55182 0.0
O29 O 0.99022 0.0233 0.51731 0.0
O30 O 0.999 0.98274 0.57181 0.0
O31 O 0.97312 0.98404 0.50274 0.0
H32 H 0.02408 0.98811 0.35026 0.0
H33 H 0.03273 0.98845 0.27104 0.0
H34 H 0.95885 0.03469 0.23091 0.0
H35 H 0.95002 0.03353 0.30995 0.0
H36 H 1.0072 0.02859 0.66995 0.0
H37 H 0.99913 0.02668 0.74953 0.0
H38 H 0.07309 0.97999 0.78598 0.0
H39 H 0.08136 0.9827 0.7065 0.0
La40 La 0.25492 0.74839 0.81849 0.0
La41 La 0.26593 0.77462 0.72539 0.0
C42 C 0.25904 0.72504 0.89767 0.0
C43 C 0.26198 0.73205 0.94469 0.0
C44 C 0.24963 0.75536 0.95706 0.0
C45 C 0.25076 0.7603 1.00251 0.0
C46 C 0.26434 0.74208 0.03647 0.0
C47 C 0.27742 0.71924 0.02357 0.0
C48 C 0.27618 0.71428 0.97819 0.0
C49 C 0.22125 0.78761 0.78314 0.0
C50 C 0.29457 0.79866 0.80973 0.0
C51 C 0.2616 0.79799 0.64622 0.0
C52 C 0.25848 0.79098 0.59921 0.0
C53 C 0.27112 0.76791 0.58656 0.0
C54 C 0.26977 0.76299 0.54109 0.0
C55 C 0.25569 0.781 0.50738 0.0
C56 C 0.24232 0.80359 0.52055 0.0
C57 C 0.24374 0.80852 0.56596 0.0
C58 C 0.29967 0.73547 0.76088 0.0
C59 C 0.22629 0.72442 0.73395 0.0
O60 O 0.23606 0.73181 0.87394 0.0
O61 O 0.27964 0.7296 0.87426 0.0
O62 O 0.21462 0.7677 0.81062 0.0
O63 O 0.24608 0.78628 0.78014 0.0
O64 O 0.287 0.7771 0.83472 0.0
O65 O 0.2848 0.80412 0.76695 0.0
O66 O 0.28464 0.79123 0.66979 0.0
O67 O 0.24108 0.79342 0.6698 0.0
O68 O 0.30621 0.7553 0.73312 0.0
O69 O 0.27483 0.73674 0.76379 0.0
O70 O 0.23388 0.74602 0.70913 0.0
O71 O 0.236 0.71889 0.77678 0.0
H72 H 0.23859 0.76943 0.93174 0.0
H73 H 0.24027 0.77797 1.0111 0.0
H74 H 0.28852 0.70505 0.04859 0.0
H75 H 0.28596 0.69625 0.96933 0.0
H76 H 0.28255 0.75401 0.61168 0.0
H77 H 0.28049 0.74552 0.53227 0.0
H78 H 0.23084 0.8176 0.49571 0.0
H79 H 0.23371 0.82635 0.57505 0.0
La80 La 0.52455 0.99892 0.06473 0.0
La81 La 0.50248 0.02254 0.9713 0.0
C82 C 0.5441 0.99239 0.14625 0.0
C83 C 0.53699 0.99765 0.19159 0.0
C84 C 0.51862 0.98139 0.21402 0.0
C85 C 0.51407 0.98498 0.25847 0.0
C86 C 0.52782 1.00482 0.28162 0.0
C87 C 0.5457 0.02147 0.25875 0.0
C88 C 0.55029 0.01786 0.21434 0.0
C89 C 0.48859 0.96972 0.02224 0.0
C90 C 0.47468 0.04162 0.0517 0.0
C91 C 0.48282 0.0291 0.88986 0.0
C92 C 0.48982 0.02389 0.84442 0.0
C93 C 0.50834 0.03999 0.82209 0.0
C94 C 0.51278 0.03649 0.77757 0.0
C95 C 0.49876 0.01688 0.75423 0.0
C96 C 0.48072 1.00038 0.777 0.0
C97 C 0.47624 1.00391 0.82149 0.0
C98 C 0.53824 0.05181 1.01413 0.0
C99 C 0.55255 0.98005 0.9843 0.0
O100 O 0.5305 0.97404 0.12567 0.0
O101 O 0.54874 0.01339 0.11849 0.0
O102 O 0.50869 0.95965 0.04977 0.0
O103 O 0.48816 0.99502 0.02175 0.0
O104 O 0.49478 0.02934 0.07879 0.0
O105 O 0.4715 0.03872 1.00801 0.0
O106 O 0.49649 0.04742 0.9104 0.0
O107 O 0.47821 1.00807 0.91761 0.0
O108 O 0.51816 0.06187 0.98654 0.0
O109 O 0.53875 0.02653 1.01434 0.0
O110 O 0.53243 0.99229 0.95719 0.0
O111 O 0.55562 0.98285 0.02803 0.0
H112 H 0.5082 0.96544 0.19771 0.0
H113 H 0.50043 0.97156 0.27517 0.0
H114 H 0.55635 0.0372 0.27531 0.0
H115 H 0.56468 0.03059 0.19805 0.0
H116 H 0.51898 0.05576 0.83855 0.0
H117 H 0.52655 0.0498 0.76096 0.0
H118 H 0.46986 0.98482 0.76032 0.0
H119 H 0.46172 0.99132 0.8377 0.0
La120 La 0.25368 0.27363 0.22138 0.0
La121 La 0.27678 0.25126 0.31486 0.0
C122 C 0.24768 0.29366 0.14016 0.0
C123 C 0.25236 0.28656 0.09457 0.0
C124 C 0.23685 0.26712 0.07329 0.0
C125 C 0.23986 0.2626 0.02861 0.0
C126 C 0.25839 0.27742 1.00414 0.0
C127 C 0.27436 0.29635 0.02594 0.0
C128 C 0.2713 0.30091 0.07055 0.0
C129 C 0.22421 0.23751 0.26266 0.0
C130 C 0.29594 0.22336 0.23447 0.0
C131 C 0.28294 0.23135 0.39614 0.0
C132 C 0.27784 0.23836 0.44161 0.0
C133 C 0.2933 0.25763 0.46341 0.0
C134 C 0.28993 0.26208 0.50799 0.0
C135 C 0.27109 0.24733 0.53187 0.0
C136 C 0.25518 0.22856 0.50958 0.0
C137 C 0.25859 0.22408 0.46505 0.0
C138 C 0.30624 0.28732 0.27329 0.0
C139 C 0.23435 0.30131 0.30184 0.0
O140 O 0.22885 0.2808 0.16049 0.0
O141 O 0.26903 0.29723 0.16797 0.0
O142 O 0.21431 0.25763 0.23505 0.0
O143 O 0.24951 0.2371 0.26374 0.0
O144 O 0.28385 0.24356 0.20736 0.0
O145 O 0.29291 0.22021 0.27809 0.0
O146 O 0.30152 0.2447 0.37593 0.0
O147 O 0.26183 0.2272 0.36816 0.0
O148 O 0.31614 0.26715 0.3008 0.0
O149 O 0.28095 0.28777 0.27251 0.0
O150 O 0.24637 0.28105 0.32884 0.0
O151 O 0.23755 0.30463 0.25829 0.0
H152 H 0.22193 0.25581 0.0907 0.0
H153 H 0.227 0.2481 1.01279 0.0
H154 H 0.28914 0.30782 1.00841 0.0
H155 H 0.28344 0.31609 0.08603 0.0
H156 H 0.30847 0.26887 0.44649 0.0
H157 H 0.30276 0.27645 0.52421 0.0
H158 H 0.2402 0.21715 0.52667 0.0
H159 H 0.24649 0.20901 0.44919 0.0
La160 La 0.7524 0.24919 0.32604 0.0
La161 La 0.76384 0.27415 0.23222 0.0
C162 C 0.75591 0.22602 0.40529 0.0
C163 C 0.75731 0.2327 0.45229 0.0
C164 C 0.74514 0.25631 0.46383 0.0
C165 C 0.74537 0.26121 0.50918 0.0
C166 C 0.75782 0.24261 0.54371 0.0
C167 C 0.77061 0.21939 0.53166 0.0
C168 C 0.77031 0.2145 0.48643 0.0
C169 C 0.7203 0.28972 0.29066 0.0
C170 C 0.79434 0.29729 0.31608 0.0
C171 C 0.75965 0.29791 0.15343 0.0
C172 C 0.75632 0.2913 0.10632 0.0
C173 C 0.76743 0.26749 0.09353 0.0
C174 C 0.76592 0.26282 0.04797 0.0
C175 C 0.75318 0.28183 1.0144 0.0
C176 C 0.7413 0.3052 0.02771 0.0
C177 C 0.74291 0.30987 0.07319 0.0
C178 C 0.79605 0.23356 0.26723 0.0
C179 C 0.72282 0.22532 0.24188 0.0
O180 O 0.73309 0.23162 0.38032 0.0
O181 O 0.77681 0.23217 0.38343 0.0
O182 O 0.71311 0.27054 0.31901 0.0
O183 O 0.74496 0.2871 0.28712 0.0
O184 O 0.78602 0.27627 0.34144 0.0
O185 O 0.78449 0.30288 0.27337 0.0
O186 O 0.78266 0.29066 0.17672 0.0
O187 O 0.73911 0.2934 0.17698 0.0
O188 O 0.80299 0.25252 0.23818 0.0
O189 O 0.77147 0.23634 0.27132 0.0
O190 O 0.73068 0.24662 0.21664 0.0
O191 O 0.73278 0.21985 0.28461 0.0
H192 H 0.73507 0.27068 0.4379 0.0
H193 H 0.73518 0.27919 0.51723 0.0
H194 H 0.78085 0.20492 0.55723 0.0
H195 H 0.77996 0.19626 0.47811 0.0
H196 H 0.77781 0.25282 0.11864 0.0
H197 H 0.77546 0.24472 0.03897 0.0
H198 H 0.73087 0.32 1.00292 0.0
H199 H 0.73407 0.32828 0.08245 0.0
La200 La 0.75166 0.77361 0.71729 0.0
La201 La 0.77515 0.75146 0.81062 0.0
C202 C 0.74553 0.79342 0.63597 0.0
C203 C 0.75036 0.78628 0.59051 0.0
C204 C 0.73798 0.76408 0.57192 0.0
C205 C 0.74084 0.75932 0.52727 0.0
C206 C 0.75621 0.77656 0.50031 0.0
C207 C 0.76921 0.79827 0.51945 0.0
C208 C 0.76623 0.80311 0.56399 0.0
C209 C 0.72207 0.73805 0.75963 0.0
C210 C 0.79351 0.72295 0.7304 0.0
C211 C 0.78211 0.73217 0.8922 0.0
C212 C 0.7769 0.73921 0.93758 0.0
C213 C 0.78944 0.76115 0.95677 0.0
C214 C 0.78632 0.76575 1.00139 0.0
C215 C 0.77056 0.74859 0.02777 0.0
C216 C 0.7574 0.72716 1.00804 0.0
C217 C 0.76063 0.72248 0.96351 0.0
C218 C 0.8047 0.78663 0.76742 0.0
C219 C 0.73299 0.80176 0.79766 0.0
O220 O 0.72687 0.78031 0.65633 0.0
O221 O 0.7668 0.79736 0.66375 0.0
O222 O 0.71221 0.75816 0.73191 0.0
O223 O 0.74734 0.73733 0.76024 0.0
O224 O 0.78143 0.74314 0.70322 0.0
O225 O 0.79071 0.72001 0.77411 0.0
O226 O 0.80014 0.74609 0.87153 0.0
O227 O 0.76111 0.72716 0.86459 0.0
O228 O 0.81456 0.76622 0.7944 0.0
O229 O 0.77949 0.78769 0.76769 0.0
O230 O 0.74499 0.78149 0.82469 0.0
O231 O 0.73595 0.80489 0.75403 0.0
H232 H 0.72567 0.75065 0.59151 0.0
H233 H 0.73087 0.74221 0.51374 0.0
H234 H 0.78097 0.8121 0.49954 0.0
H235 H 0.77584 0.82045 0.57742 0.0
H236 H 0.80209 0.77448 0.9377 0.0
H237 H 0.79642 0.78266 1.01535 0.0
H238 H 0.74533 0.7134 0.02751 0.0
H239 H 0.75091 0.70532 0.94967 0.0
La240 La 0.50152 0.50602 0.9688 0.0
La241 La 0.52737 0.51799 0.06176 0.0
C242 C 0.4782 0.50944 0.88956 0.0
C243 C 0.48503 0.51261 0.84251 0.0
C244 C 0.50874 0.50115 0.83005 0.0
C245 C 0.51355 0.50246 0.78456 0.0
C246 C 0.49479 0.51531 0.75066 0.0
C247 C 0.47153 0.52752 0.76365 0.0
C248 C 0.46671 0.52612 0.80906 0.0
C249 C 0.54095 0.47286 1.00505 0.0
C250 C 0.55122 0.54636 0.97718 0.0
C251 C 0.5507 0.51456 0.14101 0.0
C252 C 0.54392 0.51137 0.18808 0.0
C253 C 0.52032 0.52296 0.20069 0.0
C254 C 0.51555 0.52158 0.24621 0.0
C255 C 0.53425 0.50851 0.27997 0.0
C256 C 0.5574 0.49617 0.26684 0.0
C257 C 0.56217 0.49765 0.2214 0.0
C258 C 0.48795 0.55114 0.02538 0.0
C259 C 0.47767 0.47765 0.05341 0.0
O260 O 0.48566 0.48663 0.91327 0.0
O261 O 0.48213 0.5302 0.91295 0.0
O262 O 0.52117 0.46587 0.97753 0.0
O263 O 0.53942 0.49777 1.0076 0.0
O264 O 0.52987 0.53828 0.95218 0.0
O265 O 0.55666 0.53706 0.02019 0.0
O266 O 0.54325 0.53737 0.1173 0.0
O267 O 0.54672 0.4938 0.11761 0.0
O268 O 0.50765 0.55813 0.05305 0.0
O269 O 0.4895 0.52622 0.02297 0.0
O270 O 0.49904 0.48573 0.07836 0.0
O271 O 0.47222 0.48696 1.0104 0.0
H272 H 0.52323 0.49067 0.85534 0.0
H273 H 0.53157 0.49265 0.77589 0.0
H274 H 0.45691 0.53806 0.73867 0.0
H275 H 0.44836 0.53521 0.818 0.0
H276 H 0.50588 0.53361 0.1755 0.0
H277 H 0.49762 0.53149 0.255 0.0
H278 H 0.57196 0.48547 0.29172 0.0
H279 H 0.58043 0.48843 0.21234 0.0
La280 La 0.02488 0.49953 0.56564 0.0
La281 La 1.00182 0.5214 0.47143 0.0
C282 C 0.04583 0.49461 0.64646 0.0
C283 C 0.03962 0.49975 0.69215 0.0
C284 C 0.01466 0.49323 0.70796 0.0
C285 C 1.01036 0.49612 0.75285 0.0
C286 C 0.0309 0.50564 0.78274 0.0
C287 C 0.0555 0.51302 0.76614 0.0
C288 C 0.0598 0.51003 0.72141 0.0
C289 C 0.98874 0.46935 0.5258 0.0
C290 C 0.97444 0.54158 0.55167 0.0
C291 C 0.98094 0.52644 0.39059 0.0
C292 C 0.98707 0.52106 0.34496 0.0
C293 C 1.01201 0.52751 0.32896 0.0
C294 C 0.01623 0.52444 0.2841 0.0
C295 C 0.99563 0.51483 0.25441 0.0
C296 C 0.97107 0.50752 0.27121 0.0
C297 C 0.96685 0.51068 0.31591 0.0
C298 C 0.03794 0.55153 0.51161 0.0
C299 C 0.05213 0.4793 0.48521 0.0
O300 O 0.03248 0.47558 0.62727 0.0
O301 O 0.04889 0.51574 0.618 0.0
O302 O 1.00893 0.45982 0.55364 0.0
O303 O 0.98827 0.49471 0.52379 0.0
O304 O 0.99478 0.52986 0.57896 0.0
O305 O 0.97108 0.53797 0.50824 0.0
O306 O 0.99457 0.54531 0.40971 0.0
O307 O 0.97753 0.50544 0.41913 0.0
O308 O 0.01771 0.56112 0.48389 0.0
O309 O 0.03839 0.52619 0.51328 0.0
O310 O 0.03176 0.49102 0.45805 0.0
O311 O 0.05557 0.48288 0.52867 0.0
H312 H 0.9987 0.48533 0.68599 0.0
H313 H 0.99123 0.49008 0.76446 0.0
H314 H 0.07157 0.52096 0.78781 0.0
H315 H 0.07915 0.51532 0.70985 0.0
H316 H 0.02801 0.53548 0.35075 0.0
H317 H 0.03533 0.53044 0.27234 0.0
H318 H 0.95496 0.49952 0.24969 0.0
H319 H 0.94751 0.50546 0.32761 0.0
H320 H 0.0497 0.06712 0.38564 0.0
H321 H 0.08105 0.09882 0.35264 0.0
H322 H 0.12858 0.09715 0.48137 0.0
H323 H 0.09721 0.06563 0.51491 0.0
H324 H 0.118 0.14926 0.43907 0.0
H325 H 0.15763 0.08215 0.32212 0.0
H326 H 0.1215 0.08531 0.31679 0.0
H327 H 0.13902 0.06966 0.3683 0.0
C328 C 0.06687 0.07337 0.40698 0.0
C329 C 0.07097 0.06369 0.45294 0.0
C330 C 0.08486 0.0914 0.38795 0.0
C331 C 0.10738 0.10003 0.41438 0.0
C332 C 0.11142 0.09062 0.46031 0.0
H333 H 0.24151 0.18944 0.30912 0.0
H334 H 0.2142 0.15602 0.34886 0.0
C335 C 0.09346 0.07255 0.47939 0.0
C336 C 0.12628 0.11946 0.39438 0.0
H337 H 0.16878 0.12859 0.31164 0.0
C338 C 0.12922 0.1447 0.41138 0.0
C339 C 0.14121 0.11332 0.35869 0.0
C340 C 0.13995 0.08605 0.34062 0.0
C341 C 0.14608 0.16426 0.39274 0.0
C342 C 0.1601 0.15853 0.35581 0.0
C343 C 0.1578 0.13301 0.33969 0.0
C344 C 0.17677 0.17898 0.33276 0.0
C345 C 0.14888 0.19086 0.41286 0.0
C346 C 0.16473 0.2028 0.31025 0.0
C347 C 0.18024 0.22183 0.28758 0.0
C348 C 0.20807 0.21737 0.287 0.0
C349 C 0.22012 0.19347 0.30938 0.0
C350 C 0.20456 0.17437 0.33194 0.0
H351 H 0.14257 0.18951 0.44758 0.0
H352 H 0.17001 0.19777 0.41391 0.0
H353 H 0.13584 0.20634 0.39166 0.0
H354 H 0.14324 0.20653 0.30978 0.0
H355 H 0.17043 0.24004 0.27046 0.0
H356 H 0.04193 0.91599 0.50263 0.0
H357 H 0.07251 0.88452 0.55209 0.0
H358 H 0.11625 0.95165 0.60166 0.0
H359 H 0.08588 0.98316 0.55216 0.0
H360 H 0.13099 0.88005 0.55744 0.0
H361 H 0.09275 0.90694 0.71617 0.0
H362 H 0.07425 0.91502 0.66141 0.0
H363 H 0.10249 0.93487 0.679 0.0
C364 C 0.0582 0.92396 0.52387 0.0
C365 C 0.06145 0.9519 0.52416 0.0
C366 C 0.07556 0.90603 0.55205 0.0
C367 C 0.09624 0.91588 0.58089 0.0
C368 C 0.10005 0.94377 0.58013 0.0
H369 H 0.2341 0.83232 0.73106 0.0
H370 H 0.20313 0.86342 0.68204 0.0
C371 C 0.08278 0.96168 0.55186 0.0
C372 C 0.11381 0.89698 0.612 0.0
H373 H 0.1312 0.87766 0.72369 0.0
C374 C 0.13104 0.87943 0.59378 0.0
C375 C 0.1135 0.89618 0.65928 0.0
C376 C 0.09462 0.91408 0.6803 0.0
C377 C 0.14847 0.86133 0.62183 0.0
C378 C 0.14864 0.86101 0.66912 0.0
C379 C 0.13104 0.87818 0.68734 0.0
C380 C 0.16713 0.84299 0.70019 0.0
C381 C 0.16647 0.84256 0.60077 0.0
C382 C 0.15694 0.82177 0.72741 0.0
C383 C 0.17458 0.80396 0.75534 0.0
C384 C 0.20253 0.80731 0.7564 0.0
C385 C 0.2126 0.82915 0.73033 0.0
C386 C 0.195 0.84685 0.70233 0.0
H387 H 0.1598 0.84126 0.56452 0.0
H388 H 0.18736 0.85014 0.6034 0.0
H389 H 0.16692 0.82195 0.61876 0.0
H390 H 0.13542 0.81867 0.72627 0.0
H391 H 0.16639 0.78729 0.77531 0.0
H392 H 0.31698 0.79594 0.89753 0.0
H393 H 0.34871 0.8271 0.93144 0.0
H394 H 0.3465 0.87579 0.80392 0.0
H395 H 0.31497 0.84467 0.7695 0.0
H396 H 0.39868 0.86449 0.84526 0.0
H397 H 0.33289 0.90347 0.96464 0.0
H398 H 0.33584 0.8673 0.96876 0.0
H399 H 0.31992 0.88536 0.91795 0.0
C400 C 0.32309 0.81335 0.87668 0.0
C401 C 0.31331 0.81783 0.83078 0.0
C402 C 0.34113 0.83123 0.89623 0.0
C403 C 0.34967 0.85397 0.87036 0.0
C404 C 0.34005 0.85844 0.82454 0.0
H405 H 0.44049 0.98733 0.97631 0.0
H406 H 0.40667 0.9602 0.93679 0.0
C407 C 0.32199 0.84062 0.80497 0.0
C408 C 0.36933 0.8726 0.89069 0.0
H409 H 0.37932 0.91455 0.97441 0.0
C410 C 0.3944 0.87555 0.87334 0.0
C411 C 0.36357 0.88729 0.92692 0.0
C412 C 0.33651 0.88596 0.94546 0.0
C413 C 0.41415 0.89223 0.89207 0.0
C414 C 0.40878 0.90607 0.92944 0.0
C415 C 0.38345 0.90372 0.94599 0.0
C416 C 0.42943 0.92261 0.95243 0.0
C417 C 0.44056 0.89505 0.87157 0.0
C418 C 0.45327 0.91041 0.97457 0.0
C419 C 0.47252 0.92582 0.99711 0.0
C420 C 0.46826 0.9537 0.99791 0.0
C421 C 0.44436 0.96591 0.97587 0.0
C422 C 0.42503 0.95044 0.95345 0.0
H423 H 0.43897 0.8888 0.83677 0.0
H424 H 0.44748 0.91621 0.87063 0.0
H425 H 0.45614 0.88198 0.89248 0.0
H426 H 0.45685 0.88889 0.97484 0.0
H427 H 0.49074 0.91589 1.01397 0.0
H428 H 0.43492 0.07511 1.00624 0.0
H429 H 0.40433 0.10528 0.03779 0.0
H430 H 0.43913 0.07732 0.17213 0.0
H431 H 0.47028 0.04761 0.14086 0.0
H432 H 0.36581 0.09566 0.09433 0.0
H433 H 0.44503 0.1578 0.17429 0.0
H434 H 0.45218 0.1341 0.13485 0.0
H435 H 0.44901 0.12251 0.19289 0.0
C436 C 0.43611 0.07534 0.04252 0.0
C437 C 0.45523 0.05902 0.07096 0.0
C438 C 0.41857 0.09264 0.06052 0.0
C439 C 0.41974 0.09402 0.10732 0.0
C440 C 0.43831 0.0772 0.13587 0.0
H441 H 0.32812 0.1826 0.28003 0.0
H442 H 0.35725 0.1509 0.24861 0.0
C443 C 0.456 0.06005 0.1179 0.0
C444 C 0.40136 0.11288 0.12612 0.0
H445 H 0.40032 0.16506 0.19243 0.0
C446 C 0.37338 0.11091 0.1156 0.0
C447 C 0.4112 0.13289 0.1538 0.0
C448 C 0.44099 0.13719 0.16429 0.0
C449 C 0.35503 0.12804 0.13257 0.0
C450 C 0.36489 0.1478 0.16056 0.0
C451 C 0.39281 0.1498 0.17112 0.0
C452 C 0.34658 0.16668 0.17918 0.0
C453 C 0.32519 0.1246 0.12111 0.0
C454 C 0.33101 0.18621 0.15056 0.0
C455 C 0.31439 0.20448 0.16841 0.0
C456 C 0.31298 0.20355 0.21528 0.0
C457 C 0.32856 0.18385 0.24379 0.0
C458 C 0.34529 0.16572 0.22592 0.0
H459 H 0.32076 0.10503 0.10726 0.0
H460 H 0.3142 0.12583 0.15138 0.0
H461 H 0.31734 0.14108 0.09536 0.0
H462 H 0.332 0.18755 0.11443 0.0
H463 H 0.30277 0.21941 0.14543 0.0
H464 H 0.94607 0.93787 0.50587 0.0
H465 H 0.91536 0.90646 0.54158 0.0
H466 H 0.93446 0.94021 0.66821 0.0
H467 H 0.96641 0.97033 0.63326 0.0
H468 H 0.93427 0.88967 0.68427 0.0
H469 H 0.84127 0.91713 0.57203 0.0
H470 H 0.86741 0.90603 0.54072 0.0
H471 H 0.87157 0.93631 0.56905 0.0
C472 C 0.94354 0.93864 0.54126 0.0
C473 C 0.95857 0.95654 0.56677 0.0
C474 C 0.92577 0.92084 0.5616 0.0
C475 C 0.92197 0.92127 0.60749 0.0
C476 C 0.93688 0.93942 0.63278 0.0
H477 H 0.791 0.83853 0.7343 0.0
H478 H 0.81939 0.87144 0.69594 0.0
C479 C 0.95516 0.95667 0.61277 0.0
C480 C 0.90364 0.90197 0.62992 0.0
H481 H 0.84034 0.87608 0.62051 0.0
C482 C 0.91364 0.88695 0.67042 0.0
C483 C 0.87652 0.89857 0.61252 0.0
C484 C 0.86349 0.9156 0.57148 0.0
C485 C 0.89755 0.8686 0.69372 0.0
C486 C 0.87098 0.86397 0.67489 0.0
C487 C 0.86081 0.87922 0.63469 0.0
C488 C 0.85335 0.84373 0.69673 0.0
C489 C 0.9091 0.85505 0.73897 0.0
C490 C 0.86258 0.81699 0.70901 0.0
C491 C 0.84668 0.79848 0.73196 0.0
C492 C 0.82084 0.80604 0.74167 0.0
C493 C 0.81095 0.8323 0.72738 0.0
C494 C 0.82714 0.85105 0.7054 0.0
H495 H 0.92512 0.86732 0.75507 0.0
H496 H 0.8933 0.85159 0.76241 0.0
H497 H 0.91841 0.8353 0.73419 0.0
H498 H 0.8822 0.81043 0.70115 0.0
H499 H 0.85455 0.77817 0.74191 0.0
H500 H 0.97596 0.09847 0.54254 0.0
H501 H 0.93962 0.12879 0.50603 0.0
H502 H 0.91614 0.06903 0.41479 0.0
H503 H 0.94964 0.03755 0.45569 0.0
H504 H 0.93244 0.15332 0.4321 0.0
H505 H 0.84426 0.08845 0.43764 0.0
H506 H 0.87622 0.07808 0.46815 0.0
H507 H 0.86878 0.07177 0.40973 0.0
C508 C 0.96259 0.09172 0.51526 0.0
C509 C 0.96589 0.06594 0.50117 0.0
C510 C 0.94191 0.10907 0.49421 0.0
C511 C 0.92471 0.10124 0.45777 0.0
C512 C 0.92828 0.07542 0.4437 0.0
H513 H 0.84879 0.22354 0.25693 0.0
H514 H 0.87934 0.19047 0.30229 0.0
C515 C 0.94803 0.05763 0.46626 0.0
C516 C 0.90437 0.12063 0.43258 0.0
H517 H 0.84098 0.12506 0.37768 0.0
C518 C 0.91223 0.14722 0.42109 0.0
C519 C 0.8777 0.11316 0.41881 0.0
C520 C 0.86624 0.08639 0.43481 0.0
C521 C 0.89453 0.16622 0.39562 0.0
C522 C 0.86889 0.15789 0.37785 0.0
C523 C 0.8608 0.13149 0.3902 0.0
C524 C 0.8499 0.17628 0.3474 0.0
C525 C 0.90344 0.19512 0.38953 0.0
C526 C 0.8225 0.17762 0.35467 0.0
C527 C 0.8047 0.19518 0.32679 0.0
C528 C 0.81416 0.21273 0.29264 0.0
C529 C 0.8412 0.21072 0.284 0.0
C530 C 0.85876 0.19215 0.31044 0.0
H531 H 0.91794 0.19983 0.41824 0.0
H532 H 0.91397 0.19825 0.35853 0.0
H533 H 0.88612 0.20961 0.3868 0.0
H534 H 0.81486 0.16535 0.38231 0.0
H535 H 0.78363 0.19544 0.3327 0.0
H536 H 0.70264 0.17894 0.28156 0.0
H537 H 0.67251 0.14699 0.24589 0.0
H538 H 0.67046 0.19624 0.11893 0.0
H539 H 0.70072 0.22814 0.15401 0.0
H540 H 0.62053 0.15583 0.20202 0.0
H541 H 0.69086 0.12106 0.08606 0.0
H542 H 0.70191 0.13949 0.13341 0.0
H543 H 0.68631 0.15708 0.08191 0.0
C544 C 0.69587 0.18296 0.246 0.0
C545 C 0.70426 0.20606 0.22062 0.0
C546 C 0.67863 0.16467 0.2257 0.0
C547 C 0.6696 0.169 0.17961 0.0
C548 C 0.67763 0.1922 0.15433 0.0
H549 H 0.53405 0.10501 0.02606 0.0
H550 H 0.56615 0.13195 0.06908 0.0
C551 C 0.69483 0.21051 0.17456 0.0
C552 C 0.65126 0.14963 0.1581 0.0
H553 H 0.64489 0.10873 0.07247 0.0
C554 C 0.62591 0.14538 0.1739 0.0
C555 C 0.65848 0.13569 0.12186 0.0
C556 C 0.68597 0.1383 0.10503 0.0
C557 C 0.60724 0.12827 0.15343 0.0
C558 C 0.61399 0.11536 0.11584 0.0
C559 C 0.63967 0.11887 0.10102 0.0
C560 C 0.59439 0.09877 0.0906 0.0
C561 C 0.58045 0.12409 0.17225 0.0
C562 C 0.59988 0.0713 0.08765 0.0
C563 C 0.58158 0.05588 0.06292 0.0
C564 C 0.55763 0.06778 0.04051 0.0
C565 C 0.55232 0.09532 0.04316 0.0
C566 C 0.57054 0.11067 0.06797 0.0
H567 H 0.58116 0.12942 0.20755 0.0
H568 H 0.56487 0.1372 0.15143 0.0
H569 H 0.57415 0.10281 0.17136 0.0
H570 H 0.61828 0.06179 0.10458 0.0
H571 H 0.58627 0.03474 0.06103 0.0
H572 H 0.72585 0.80537 0.88668 0.0
H573 H 0.69603 0.83669 0.9177 0.0
H574 H 0.67126 0.87387 0.78369 0.0
H575 H 0.70096 0.84272 0.75226 0.0
H576 H 0.69514 0.89611 0.90627 0.0
H577 H 0.59966 0.85164 0.83806 0.0
H578 H 0.63171 0.8337 0.8433 0.0
H579 H 0.62373 0.85987 0.79817 0.0
C580 C 0.71413 0.82023 0.86373 0.0
C581 C 0.71579 0.82142 0.81688 0.0
C582 C 0.69711 0.83814 0.88157 0.0
C583 C 0.6812 0.85739 0.85296 0.0
C584 C 0.6831 0.85893 0.80632 0.0
H585 H 0.55683 0.97408 0.89507 0.0
H586 H 0.58889 0.94544 0.86353 0.0
C587 C 0.70022 0.84117 0.78845 0.0
C588 C 0.66256 0.87582 0.87185 0.0
H589 H 0.59582 0.8914 0.8743 0.0
C590 C 0.67341 0.89508 0.89943 0.0
C591 C 0.63425 0.8745 0.86266 0.0
C592 C 0.6215 0.85372 0.83422 0.0
C593 C 0.65672 0.91337 0.91751 0.0
C594 C 0.62833 0.91188 0.90873 0.0
C595 C 0.61753 0.89259 0.88104 0.0
C596 C 0.60942 0.92993 0.92814 0.0
C597 C 0.66972 0.93453 0.94486 0.0
C598 C 0.61006 0.93066 0.97504 0.0
C599 C 0.59187 0.9472 0.9932 0.0
C600 C 0.57236 0.96312 0.96489 0.0
C601 C 0.5716 0.96217 0.91793 0.0
C602 C 0.58992 0.94576 0.8998 0.0
H603 H 0.69075 0.93823 0.93696 0.0
H604 H 0.65811 0.95393 0.93871 0.0
H605 H 0.67042 0.92743 0.98126 0.0
H606 H 0.62437 0.91812 0.99774 0.0
H607 H 0.59288 0.94716 0.02952 0.0
H608 H 0.54843 0.56776 0.88893 0.0
H609 H 0.57933 0.59929 0.85426 0.0
H610 H 0.6278 0.59914 0.98186 0.0
H611 H 0.59689 0.5678 1.01706 0.0
H612 H 0.61648 0.65086 0.93845 0.0
H613 H 0.65564 0.58293 0.82229 0.0
H614 H 0.61951 0.58583 0.81776 0.0
H615 H 0.63751 0.57067 0.8692 0.0
C616 C 0.56572 0.57429 0.90966 0.0
C617 C 0.57021 0.56511 0.9558 0.0
C618 C 0.58346 0.59222 0.88968 0.0
C619 C 0.60609 0.60126 0.91532 0.0
C620 C 0.61054 0.5923 0.9614 0.0
H621 H 0.73926 0.69005 0.80632 0.0
H622 H 0.71199 0.6569 0.84668 0.0
C623 C 0.59285 0.57433 0.98143 0.0
C624 C 0.62465 0.62068 0.89437 0.0
H625 H 0.66654 0.62936 0.81065 0.0
C626 C 0.62754 0.64612 0.91067 0.0
C627 C 0.63935 0.61433 0.85852 0.0
C628 C 0.63811 0.58688 0.84112 0.0
C629 C 0.64416 0.66564 0.89127 0.0
C630 C 0.658 0.65966 0.85426 0.0
C631 C 0.6557 0.63398 0.83876 0.0
C632 C 0.67461 0.67995 0.8307 0.0
C633 C 0.64694 0.69244 0.91073 0.0
C634 C 0.66259 0.70374 0.80803 0.0
C635 C 0.67809 0.72264 0.78503 0.0
C636 C 0.70589 0.71807 0.78426 0.0
C637 C 0.71791 0.69418 0.80675 0.0
C638 C 0.70236 0.67523 0.82965 0.0
H639 H 0.6408 0.69135 0.94554 0.0
H640 H 0.66804 0.69944 0.91134 0.0
H641 H 0.63376 0.70774 0.88937 0.0
H642 H 0.64113 0.70757 0.80772 0.0
H643 H 0.66831 0.74084 0.76782 0.0
H644 H 0.73468 0.33306 0.2368 0.0
H645 H 0.70468 0.3655 0.18857 0.0
H646 H 0.63553 0.32509 0.23682 0.0
H647 H 0.6655 0.29241 0.28501 0.0
H648 H 0.66409 0.35142 0.11984 0.0
H649 H 0.62233 0.40654 0.25141 0.0
H650 H 0.65309 0.3864 0.26223 0.0
H651 H 0.62099 0.37034 0.25972 0.0
C652 C 0.71308 0.3312 0.23725 0.0
C653 C 0.7023 0.31023 0.26427 0.0
C654 C 0.69603 0.3497 0.20978 0.0
C655 C 0.66799 0.3477 0.20947 0.0
C656 C 0.65716 0.32709 0.23713 0.0
H657 H 0.54151 0.41796 1.01253 0.0
H658 H 0.57351 0.38736 0.06086 0.0
C659 C 0.67424 0.30847 0.26449 0.0
C660 C 0.6501 0.36651 0.17869 0.0
H661 H 0.60238 0.41643 0.17626 0.0
C662 C 0.65061 0.3657 0.13207 0.0
C663 C 0.63282 0.38518 0.195 0.0
C664 C 0.63231 0.38744 0.24481 0.0
C665 C 0.63389 0.3829 0.10111 0.0
C666 C 0.61615 0.40112 0.11742 0.0
C667 C 0.61594 0.40223 0.16404 0.0
C668 C 0.59768 0.41937 0.08665 0.0
C669 C 0.63549 0.3817 0.05127 0.0
C670 C 0.60077 0.44737 0.08543 0.0
C671 C 0.58264 0.46478 0.05787 0.0
C672 C 0.56098 0.45442 0.03167 0.0
C673 C 0.55812 0.42638 0.03241 0.0
C674 C 0.57635 0.40894 0.05984 0.0
H675 H 0.65405 0.37086 0.04447 0.0
H676 H 0.61781 0.37086 0.03702 0.0
H677 H 0.63504 0.40233 0.03339 0.0
H678 H 0.61713 0.45571 0.10599 0.0
H679 H 0.58536 0.48636 0.05757 0.0
H680 H 0.99131 0.41528 0.51987 0.0
H681 H 0.95778 0.38749 0.48164 0.0
H682 H 0.9071 0.45815 0.44063 0.0
H683 H 0.94052 0.48605 0.47933 0.0
H684 H 0.87984 0.41307 0.47888 0.0
H685 H 0.94077 0.38527 0.34413 0.0
H686 H 0.95746 0.37901 0.40027 0.0
H687 H 0.94906 0.41308 0.37717 0.0
C688 C 0.97305 0.42489 0.50258 0.0
C689 C 0.96856 0.45281 0.50226 0.0
C690 C 0.95401 0.40903 0.48054 0.0
C691 C 0.93014 0.42083 0.45776 0.0
C692 C 0.92548 0.4487 0.45776 0.0
H693 H 0.81617 0.34232 0.27523 0.0
H694 H 0.84827 0.373 0.30946 0.0
C695 C 0.94459 0.4646 0.47972 0.0
C696 C 0.90974 0.40388 0.43511 0.0
H697 H 0.90028 0.36127 0.35231 0.0
C698 C 0.88423 0.40184 0.45106 0.0
C699 C 0.91544 0.38951 0.3985 0.0
C700 C 0.94207 0.39194 0.37864 0.0
C701 C 0.86445 0.38528 0.43206 0.0
C702 C 0.8705 0.37012 0.39655 0.0
C703 C 0.89579 0.37269 0.37986 0.0
C704 C 0.85083 0.35153 0.37615 0.0
C705 C 0.83716 0.38434 0.44986 0.0
C706 C 0.84184 0.32909 0.40219 0.0
C707 C 0.82348 0.31148 0.38275 0.0
C708 C 0.81381 0.31592 0.3368 0.0
C709 C 0.82307 0.33832 0.31074 0.0
C710 C 0.84147 0.35588 0.33022 0.0
H711 H 0.83348 0.40202 0.46861 0.0
H712 H 0.8208 0.38372 0.42197 0.0
H713 H 0.83613 0.36581 0.47335 0.0
H714 H 0.84922 0.32506 0.43751 0.0
H715 H 0.81693 0.29436 0.40378 0.0
H716 H 0.82675 0.68317 0.77628 0.0
H717 H 0.85663 0.65212 0.74518 0.0
H718 H 0.82857 0.68617 0.61046 0.0
H719 H 0.79914 0.71782 0.64131 0.0
H720 H 0.84685 0.61316 0.68945 0.0
H721 H 0.90893 0.69169 0.60813 0.0
H722 H 0.88533 0.69928 0.64736 0.0
H723 H 0.87366 0.69558 0.58946 0.0
C724 C 0.82689 0.68409 0.74 0.0
C725 C 0.81063 0.70316 0.71134 0.0
C726 C 0.84402 0.66629 0.72226 0.0
C727 C 0.8453 0.66711 0.67549 0.0
C728 C 0.82853 0.68561 0.64671 0.0
H729 H 0.93367 0.57339 0.50538 0.0
H730 H 0.902 0.60292 0.53599 0.0
C731 C 0.81153 0.70358 0.66443 0.0
C732 C 0.86406 0.64847 0.65702 0.0
H733 H 0.91621 0.64669 0.59114 0.0
C734 C 0.86209 0.62052 0.66812 0.0
C735 C 0.88405 0.65803 0.62929 0.0
C736 C 0.88836 0.68778 0.61819 0.0
C737 C 0.87921 0.60193 0.65169 0.0
C738 C 0.89897 0.61151 0.62367 0.0
C739 C 0.90096 0.6394 0.6125 0.0
C740 C 0.91783 0.59294 0.60559 0.0
C741 C 0.87578 0.57214 0.66378 0.0
C742 C 0.93738 0.57762 0.63458 0.0
C743 C 0.95564 0.56076 0.6172 0.0
C744 C 0.95467 0.55887 0.57043 0.0
C745 C 0.93495 0.5742 0.54156 0.0
C746 C 0.91684 0.59117 0.55896 0.0
H747 H 0.85624 0.56785 0.67767 0.0
H748 H 0.87698 0.56082 0.6338 0.0
H749 H 0.89227 0.56449 0.68969 0.0
H750 H 0.93874 0.57897 0.67063 0.0
H751 H 0.97058 0.54933 0.64044 0.0
H752 H 0.36004 0.28483 0.26604 0.0
H753 H 0.38737 0.31823 0.22679 0.0
H754 H 0.31637 0.3684 0.1859 0.0
H755 H 0.28895 0.33516 0.22578 0.0
H756 H 0.38228 0.33822 0.13485 0.0
H757 H 0.37004 0.41966 0.24639 0.0
H758 H 0.36181 0.38503 0.26199 0.0
H759 H 0.33919 0.40605 0.22262 0.0
C760 C 0.35028 0.30302 0.24878 0.0
C761 C 0.32241 0.30745 0.24896 0.0
C762 C 0.36589 0.32203 0.22628 0.0
C763 C 0.35396 0.34593 0.20385 0.0
C764 C 0.32605 0.35029 0.20358 0.0
H765 H 0.43177 0.4564 1.01386 0.0
H766 H 0.40106 0.4249 0.04922 0.0
C767 C 0.31039 0.33123 0.22608 0.0
C768 C 0.37089 0.36611 0.18069 0.0
H769 H 0.39392 0.43039 0.18282 0.0
C770 C 0.38477 0.35841 0.1452 0.0
C771 C 0.37433 0.39231 0.19464 0.0
C772 C 0.36077 0.4013 0.23373 0.0
C773 C 0.40198 0.37624 0.12321 0.0
C774 C 0.40513 0.40258 0.13674 0.0
C775 C 0.3913 0.41025 0.1723 0.0
C776 C 0.42337 0.42217 0.11535 0.0
C777 C 0.41716 0.36651 0.08645 0.0
C778 C 0.44576 0.43161 0.14103 0.0
C779 C 0.46332 0.4497 0.12099 0.0
C780 C 0.45873 0.45888 0.07486 0.0
C781 C 0.43601 0.44969 0.0494 0.0
C782 C 0.41848 0.43156 0.06949 0.0
H783 H 0.41734 0.34415 0.08724 0.0
H784 H 0.40731 0.37499 0.05312 0.0
H785 H 0.43832 0.37339 0.0895 0.0
H786 H 0.44985 0.42469 0.17652 0.0
H787 H 0.48056 0.45637 0.14169 0.0
H788 H 0.48576 0.60592 0.02116 0.0
H789 H 0.4521 0.63641 0.97643 0.0
H790 H 0.41009 0.56795 0.92812 0.0
H791 H 0.44355 0.53739 0.97292 0.0
H792 H 0.42143 0.60973 0.8597 0.0
H793 H 0.3721 0.64881 0.9998 0.0
H794 H 0.40828 0.65037 1.00475 0.0
H795 H 0.39244 0.61812 1.00713 0.0
C796 C 0.46919 0.59743 1.00128 0.0
C797 C 0.46721 0.56941 1.00021 0.0
C798 C 0.45001 0.61481 0.97592 0.0
C799 C 0.42859 0.60433 0.94938 0.0
C800 C 0.42649 0.57633 0.94854 0.0
H801 H 0.28695 0.691 0.81397 0.0
H802 H 0.31822 0.65814 0.85864 0.0
C803 C 0.44559 0.55896 0.97402 0.0
C804 C 0.40888 0.62263 0.9212 0.0
H805 H 0.36004 0.67048 0.92629 0.0
C806 C 0.40792 0.62297 0.87415 0.0
C807 C 0.39119 0.63959 0.94039 0.0
C808 C 0.39078 0.63915 0.99079 0.0
C809 C 0.38997 0.64031 0.8456 0.0
C810 C 0.37283 0.65782 0.86479 0.0
C811 C 0.37342 0.65711 0.91184 0.0
C812 C 0.3541 0.67712 0.8366 0.0
C813 C 0.3893 0.63963 0.79521 0.0
C814 C 0.36405 0.69861 0.80965 0.0
C815 C 0.34627 0.71745 0.78435 0.0
C816 C 0.31836 0.71505 0.78591 0.0
C817 C 0.30843 0.69335 0.81248 0.0
C818 C 0.32621 0.6746 0.8379 0.0
H819 H 0.39918 0.62102 0.78632 0.0
H820 H 0.36821 0.64089 0.7791 0.0
H821 H 0.40015 0.65727 0.78091 0.0
H822 H 0.38557 0.70104 0.80879 0.0
H823 H 0.35437 0.73409 0.76417 0.0
H824 H 0.20453 0.72756 0.64591 0.0
H825 H 0.17315 0.69662 0.61073 0.0
H826 H 0.17457 0.64703 0.73726 0.0
H827 H 0.20581 0.67799 0.77301 0.0
H828 H 0.17978 0.64083 0.60338 0.0
H829 H 0.09355 0.66229 0.69982 0.0
H830 H 0.1224 0.68379 0.69779 0.0
H831 H 0.12461 0.65257 0.73357 0.0
C832 C 0.19819 0.71011 0.66639 0.0
C833 C 0.20765 0.70534 0.7124 0.0
C834 C 0.18027 0.69242 0.64615 0.0
C835 C 0.17128 0.66972 0.6715 0.0
C836 C 0.18091 0.66468 0.71726 0.0
H837 H 0.08599 0.5348 0.55874 0.0
H838 H 0.11886 0.56255 0.59898 0.0
C839 C 0.19888 0.68234 0.73757 0.0
C840 C 0.15194 0.65132 0.64978 0.0
H841 H 0.08794 0.62765 0.65106 0.0
C842 C 0.15972 0.63787 0.61384 0.0
C843 C 0.12569 0.64773 0.66325 0.0
C844 C 0.11587 0.6625 0.70046 0.0
C845 C 0.14198 0.62087 0.59104 0.0
C846 C 0.11586 0.617 0.60489 0.0
C847 C 0.10805 0.63049 0.64077 0.0
C848 C 0.09594 0.59992 0.58137 0.0
C849 C 0.15106 0.60771 0.55157 0.0
C850 C 0.07194 0.61163 0.55894 0.0
C851 C 0.05314 0.59583 0.53622 0.0
C852 C 0.0579 0.56799 0.53586 0.0
C853 C 0.0818 0.55621 0.55864 0.0
C854 C 0.10065 0.57205 0.58134 0.0
H855 H 0.16929 0.6173 0.53914 0.0
H856 H 0.15604 0.58611 0.56217 0.0
H857 H 0.13477 0.60877 0.52329 0.0
H858 H 0.06788 0.63308 0.55867 0.0
H859 H 0.03484 0.6054 0.51903 0.0
H860 H 0.20181 0.34188 0.25645 0.0
H861 H 0.17207 0.37296 0.28805 0.0
H862 H 0.19749 0.33609 0.42202 0.0
H863 H 0.22729 0.30486 0.39087 0.0
H864 H 0.12904 0.3575 0.3441 0.0
H865 H 0.20715 0.41884 0.43002 0.0
H866 H 0.2142 0.39849 0.38556 0.0
H867 H 0.21133 0.38282 0.44141 0.0
C868 C 0.20128 0.34047 0.29269 0.0
C869 C 0.21706 0.32088 0.32109 0.0
C870 C 0.1842 0.35823 0.31066 0.0
C871 C 0.18277 0.35702 0.35739 0.0
C872 C 0.19857 0.33763 0.3859 0.0
H873 H 0.09231 0.44636 0.53084 0.0
H874 H 0.12349 0.41673 0.49934 0.0
C875 C 0.21553 0.31971 0.36796 0.0
C876 C 0.16403 0.37542 0.37613 0.0
H877 H 0.16189 0.42718 0.44292 0.0
C878 C 0.13618 0.37283 0.36557 0.0
C879 C 0.17342 0.39524 0.40436 0.0
C880 C 0.20315 0.39928 0.41588 0.0
C881 C 0.11741 0.38922 0.38308 0.0
C882 C 0.12677 0.40932 0.41096 0.0
C883 C 0.15468 0.41186 0.42151 0.0
C884 C 0.10796 0.42774 0.42979 0.0
C885 C 0.08774 0.38428 0.37256 0.0
C886 C 0.08911 0.44421 0.40122 0.0
C887 C 0.07108 0.46103 0.41916 0.0
C888 C 0.07179 0.46208 0.46609 0.0
C889 C 0.09117 0.44609 0.49456 0.0
C890 C 0.10904 0.42911 0.47659 0.0
H891 H 0.08418 0.3636 0.36254 0.0
H892 H 0.07644 0.38707 0.40199 0.0
H893 H 0.07946 0.39882 0.34395 0.0
H894 H 0.08834 0.44412 0.36496 0.0
H895 H 0.05663 0.47325 0.39615 0.0
H896 H 0.98848 0.99755 0.81455 0.0
H897 H 0.98217 0.99939 0.89432 0.0
H898 H 0.06745 1.01062 0.92433 0.0
H899 H 0.07383 1.00978 0.84463 0.0
H900 H 1.00494 0.96641 0.96963 0.0
H901 H 0.03439 0.07287 0.9811 0.0
H902 H 0.02678 0.05903 0.92783 0.0
H903 H 0.0591 0.05238 0.95963 0.0
C904 C 1.00586 1.00071 0.83802 0.0
C905 C 0.03166 1.00361 0.82303 0.0
C906 C 1.00224 1.00159 0.88366 0.0
C907 C 0.02427 1.00557 0.91518 0.0
C908 C 0.05008 1.00805 0.9005 0.0
H909 H 0.04385 0.0167 0.2052 0.0
H910 H 0.05073 0.01429 0.12576 0.0
C911 C 0.05373 1.0072 0.85493 0.0
C912 C 0.02036 1.00665 0.96355 0.0
H913 H 0.02837 0.0469 0.04999 0.0
C914 C 1.00994 0.98404 0.98717 0.0
C915 C 0.02698 0.02966 0.98641 0.0
C916 C 0.0372 0.05497 0.96242 0.0
C917 C 1.00637 0.98364 0.03322 0.0
C918 C 0.01295 1.00666 0.05607 0.0
C919 C 0.02341 0.02925 0.03246 0.0
C920 C 1.00876 1.00786 0.1043 0.0
C921 C 0.99613 0.95833 0.0572 0.0
C922 C 0.98285 1.00538 0.11854 0.0
C923 C 0.97888 1.00654 0.16391 0.0
C924 C 1.00072 1.01047 0.19605 0.0
C925 C 0.02664 0.01328 0.18154 0.0
C926 C 0.03059 0.01208 0.13609 0.0
H927 H 0.99916 0.9404 0.0387 0.0
H928 H 1.00637 0.95439 0.09194 0.0
H929 H 0.97418 0.96083 0.05959 0.0
H930 H 0.96562 1.00263 0.0945 0.0
H931 H 0.95869 1.00401 0.17385 0.0
H932 H 0.25992 0.81917 0.43616 0.0
H933 H 0.26049 0.81236 0.3565 0.0
H934 H 0.25359 0.72658 0.38842 0.0
H935 H 0.25199 0.73327 0.46805 0.0
H936 H 0.29707 0.78256 0.31675 0.0
H937 H 0.19406 0.74285 0.28548 0.0
H938 H 0.20478 0.75943 0.33508 0.0
H939 H 0.2144 0.72479 0.33188 0.0
C940 C 0.25803 0.79887 0.42624 0.0
C941 C 0.25568 0.77679 0.45866 0.0
C942 C 0.25859 0.79501 0.38066 0.0
C943 C 0.25671 0.76901 0.36632 0.0
C944 C 0.25455 0.74689 0.39852 0.0
H945 H 0.25938 0.70406 0.10765 0.0
H946 H 0.25874 0.71094 0.18724 0.0
C947 C 0.25395 0.75073 0.44416 0.0
C948 C 0.25783 0.76507 0.31788 0.0
H949 H 0.22264 0.74073 0.22703 0.0
C950 C 0.28075 0.77353 0.29706 0.0
C951 C 0.23654 0.75324 0.29222 0.0
C952 C 0.21093 0.74476 0.3121 0.0
C953 C 0.28318 0.77004 0.25156 0.0
C954 C 0.26189 0.75822 0.22588 0.0
C955 C 0.23896 0.74977 0.24671 0.0
C956 C 0.26301 0.75424 0.17745 0.0
C957 C 0.30883 0.77845 0.23175 0.0
C958 C 0.26547 0.77631 0.14526 0.0
C959 C 0.26614 0.77241 0.09964 0.0
C960 C 0.26417 0.74636 0.08516 0.0
C961 C 0.26149 0.72434 0.11755 0.0
C962 C 0.26087 0.72826 0.16311 0.0
H963 H 0.32572 0.78021 0.2584 0.0
H964 H 0.31492 0.76383 0.20864 0.0
H965 H 0.30547 0.79848 0.21214 0.0
H966 H 0.26661 0.79661 0.15533 0.0
H967 H 0.26837 0.78982 0.07579 0.0
H968 H 0.4597 1.00844 0.68621 0.0
H969 H 0.46501 1.00559 0.60648 0.0
H970 H 0.55032 0.01836 0.6322 0.0
H971 H 0.54539 0.02025 0.71235 0.0
H972 H 0.48384 0.04479 0.54596 0.0
H973 H 0.54844 0.9521 0.5619 0.0
H974 H 0.53027 0.96173 0.60734 0.0
H975 H 0.56135 0.97775 0.59597 0.0
C976 C 0.4797 1.01013 0.67515 0.0
C977 C 0.50215 0.0144 0.70586 0.0
C978 C 0.48265 1.00872 0.62944 0.0
C979 C 0.5081 0.01142 0.61345 0.0
C980 C 0.53056 0.01572 0.6439 0.0
H981 H 0.56674 0.01366 0.3496 0.0
H982 H 0.56134 0.01652 0.4293 0.0
C983 C 0.52765 0.0171 0.68966 0.0
C984 C 0.51092 1.01065 0.56464 0.0
H985 H 0.54252 0.97699 0.48976 0.0
C986 C 0.49656 0.02989 0.53362 0.0
C987 C 0.52758 0.99123 0.54863 0.0
C988 C 0.54261 0.96936 0.5801 0.0
C989 C 0.49877 0.03054 0.48709 0.0
C990 C 0.51544 1.01113 0.47108 0.0
C991 C 0.52979 0.99189 0.5021 0.0
C992 C 0.5183 1.01039 0.42229 0.0
C993 C 0.4837 0.05237 0.45559 0.0
C994 C 0.4959 1.00592 0.39183 0.0
C995 C 0.49886 1.00451 0.3461 0.0
C996 C 0.52435 1.00737 0.32993 0.0
C997 C 0.54674 0.01184 0.36064 0.0
C998 C 0.54374 0.01326 0.40633 0.0
H999 H 0.47774 0.06958 0.47378 0.0
H1000 H 0.49609 0.06008 0.42846 0.0
H1001 H 0.46505 0.04392 0.43956 0.0
H1002 H 0.47615 1.00316 0.40352 0.0
H1003 H 0.48117 1.0012 0.3234 0.0
H1004 H 0.2645 0.31659 0.93521 0.0
H1005 H 0.26652 0.31104 0.85536 0.0
H1006 H 0.2582 0.22511 0.8828 0.0
H1007 H 0.25653 0.23037 0.96296 0.0
H1008 H 0.30308 0.27992 0.81425 0.0
H1009 H 0.19776 0.24625 0.78092 0.0
H1010 H 0.20938 0.26209 0.83089 0.0
H1011 H 0.21737 0.22714 0.8271 0.0
C1012 C 0.26339 0.29644 0.92446 0.0
C1013 C 0.2603 0.27392 0.95563 0.0
C1014 C 0.26438 0.29335 0.8787 0.0
C1015 C 0.2621 0.26773 0.86303 0.0
C1016 C 0.25942 0.24514 0.89403 0.0
H1017 H 0.26439 0.20807 0.60036 0.0
H1018 H 0.26213 0.21345 0.68023 0.0
C1019 C 0.25847 0.24819 0.93985 0.0
C1020 C 0.26285 0.26469 0.81432 0.0
H1021 H 0.22579 0.24444 0.72173 0.0
C1022 C 0.28615 0.27226 0.79394 0.0
C1023 C 0.24074 0.25468 0.78795 0.0
C1024 C 0.21478 0.24728 0.8076 0.0
C1025 C 0.28813 0.26966 0.74805 0.0
C1026 C 0.26601 0.25968 0.72166 0.0
C1027 C 0.24271 0.25209 0.74204 0.0
C1028 C 0.26674 0.25674 0.6729 0.0
C1029 C 0.31411 0.27703 0.72843 0.0
C1030 C 0.26957 0.27938 0.64208 0.0
C1031 C 0.27067 0.27642 0.59627 0.0
C1032 C 0.26884 0.25075 0.58031 0.0
C1033 C 0.26552 0.22818 0.61127 0.0
C1034 C 0.26439 0.23118 0.65703 0.0
H1035 H 0.33114 0.2779 0.75513 0.0
H1036 H 0.31944 0.26229 0.70498 0.0
H1037 H 0.31159 0.29723 0.70914 0.0
H1038 H 0.27083 0.29938 0.65345 0.0
H1039 H 0.27278 0.29428 0.57331 0.0
H1040 H 0.74586 0.23482 0.9739 0.0
H1041 H 0.74709 0.2284 0.89401 0.0
H1042 H 0.76052 0.31337 0.86452 0.0
H1043 H 0.76035 0.31982 0.94432 0.0
H1044 H 0.71438 0.2519 0.81919 0.0
H1045 H 0.82131 0.27872 0.80693 0.0
H1046 H 0.80763 0.27156 0.86033 0.0
H1047 H 0.80169 0.30402 0.8287 0.0
C1048 C 0.74939 0.2521 0.95051 0.0
C1049 C 0.7531 0.27783 0.96566 0.0
C1050 C 0.74991 0.24842 0.90482 0.0
C1051 C 0.75432 0.27033 0.87342 0.0
C1052 C 0.75761 0.29608 0.88827 0.0
H1053 H 0.76381 0.29003 0.58331 0.0
H1054 H 0.76187 0.29688 0.66291 0.0
C1055 C 0.75714 0.29978 0.93389 0.0
C1056 C 0.75498 0.26637 0.82499 0.0
H1057 H 0.79472 0.27356 0.7381 0.0
C1058 C 0.73198 0.2565 0.80149 0.0
C1059 C 0.77795 0.27247 0.80193 0.0
C1060 C 0.80365 0.28205 0.8258 0.0
C1061 C 0.73116 0.253 0.75535 0.0
C1062 C 0.75412 0.2591 0.7323 0.0
C1063 C 0.77711 0.26898 0.75579 0.0
C1064 C 0.75487 0.25496 0.68397 0.0
C1065 C 0.7055 0.24333 0.73149 0.0
C1066 C 0.75187 0.2291 0.66948 0.0
C1067 C 0.75277 0.22515 0.62405 0.0
C1068 C 0.75695 0.24697 0.59211 0.0
C1069 C 0.7602 0.27285 0.60684 0.0
C1070 C 0.75927 0.27678 0.65236 0.0
H1071 H 0.68781 0.24664 0.75032 0.0
H1072 H 0.70152 0.25377 0.69693 0.0
H1073 H 0.70752 0.22135 0.72866 0.0
H1074 H 0.74896 0.21189 0.69339 0.0
H1075 H 0.74991 0.205 0.61389 0.0
H1076 H 0.8006 0.78038 0.45289 0.0
H1077 H 0.80258 0.77591 0.37244 0.0
H1078 H 0.71772 0.75897 0.35804 0.0
H1079 H 0.71543 0.76393 0.43813 0.0
H1080 H 0.78885 0.731 0.32298 0.0
H1081 H 0.72528 0.82174 0.25974 0.0
H1082 H 0.74023 0.81592 0.31739 0.0
H1083 H 0.71046 0.79833 0.29922 0.0
C1084 C 0.78232 0.77586 0.43254 0.0
C1085 C 0.75783 0.77262 0.45193 0.0
C1086 C 0.78352 0.77319 0.38664 0.0
C1087 C 0.76022 0.7675 0.35914 0.0
C1088 C 0.73585 0.76378 0.3785 0.0
H1089 H 0.72588 0.74489 0.07457 0.0
H1090 H 0.72359 0.74905 0.15505 0.0
C1091 C 0.73466 0.76633 0.4244 0.0
C1092 C 0.76145 0.76523 0.31027 0.0
H1093 H 0.73718 0.79344 0.20519 0.0
C1094 C 0.77766 0.7447 0.2972 0.0
C1095 C 0.74676 0.78311 0.27672 0.0
C1096 C 0.72986 0.80619 0.28879 0.0
C1097 C 0.77924 0.7413 0.25145 0.0
C1098 C 0.7646 0.75921 0.21789 0.0
C1099 C 0.74836 0.77972 0.23097 0.0
C1100 C 0.766 0.75707 0.16902 0.0
C1101 C 0.79612 0.7182 0.23941 0.0
C1102 C 0.79049 0.76067 0.15002 0.0
C1103 C 0.79187 0.75829 0.10412 0.0
C1104 C 0.76874 0.75231 0.07619 0.0
C1105 C 0.74412 0.74917 0.09522 0.0
C1106 C 0.74275 0.75167 0.14114 0.0
H1107 H 0.80046 0.70253 0.26835 0.0
H1108 H 0.78588 0.70861 0.21053 0.0
H1109 H 0.81565 0.72598 0.22945 0.0
H1110 H 0.80859 0.76529 0.17076 0.0
H1111 H 0.81119 0.76059 0.09069 0.0
H1112 H 0.54213 0.52137 0.71091 0.0
H1113 H 0.54869 0.52033 0.63105 0.0
H1114 H 0.46367 0.50804 0.60024 0.0
H1115 H 0.45695 0.50864 0.67985 0.0
H1116 H 0.53673 0.47849 0.57507 0.0
H1117 H 0.47873 0.57246 0.51039 0.0
H1118 H 0.48989 0.56434 0.56945 0.0
H1119 H 0.46062 0.54863 0.54426 0.0
C1120 C 0.52482 0.51834 0.68722 0.0
C1121 C 0.49896 0.51527 0.70194 0.0
C1122 C 0.5286 0.51787 0.64153 0.0
C1123 C 0.50661 0.51454 0.60956 0.0
C1124 C 0.48084 0.51128 0.62412 0.0
H1125 H 0.48692 0.50259 0.31977 0.0
H1126 H 0.48044 0.50351 0.39967 0.0
C1127 C 0.47704 0.51168 0.66973 0.0
C1128 C 0.51067 0.51372 0.56117 0.0
H1129 H 0.49247 0.54511 0.45567 0.0
C1130 C 0.52718 0.49314 0.54897 0.0
C1131 C 0.49811 0.53278 0.52713 0.0
C1132 C 0.48103 0.55596 0.53834 0.0
C1133 C 0.53109 0.49082 0.5036 0.0
C1134 C 0.51852 0.50988 0.46957 0.0
C1135 C 0.50202 0.53047 0.48177 0.0
C1136 C 0.52256 0.50906 0.42116 0.0
C1137 C 0.54815 0.46762 0.4924 0.0
C1138 C 0.54833 0.51221 0.40657 0.0
C1139 C 0.5521 0.51186 0.36094 0.0
C1140 C 0.53013 0.50845 0.32873 0.0
C1141 C 0.50427 0.50548 0.34347 0.0
C1142 C 0.50053 0.50588 0.38919 0.0
H1143 H 0.55038 0.4511 0.52032 0.0
H1144 H 0.53931 0.45928 0.46124 0.0
H1145 H 0.56858 0.47492 0.48659 0.0
H1146 H 0.56554 0.51534 0.43045 0.0
H1147 H 0.57219 0.51482 0.3508 0.0
H1148 H 0.98549 0.52133 0.81972 0.0
H1149 H 0.97961 0.52299 0.89974 0.0
H1150 H 0.06173 0.49482 0.93575 0.0
H1151 H 0.0677 0.49271 0.85618 0.0
H1152 H 0.98582 0.48061 0.97043 0.0
H1153 H 0.05732 0.56284 1.00258 0.0
H1154 H 0.04451 0.55589 0.94638 0.0
H1155 H 0.07129 0.53526 0.97726 0.0
C1156 C 1.00228 0.51537 0.84464 0.0
C1157 C 0.02715 0.50709 0.83133 0.0
C1158 C 0.99891 0.51645 0.89036 0.0
C1159 C 0.02037 0.50946 0.92367 0.0
C1160 C 0.04509 0.50093 0.91059 0.0
H1161 H 0.04096 0.49902 0.21732 0.0
H1162 H 0.04673 0.49728 0.13729 0.0
C1163 C 0.04847 0.49979 0.86498 0.0
C1164 C 0.01675 0.51039 0.9722 0.0
H1165 H 0.04046 0.53965 0.06668 0.0
C1166 C 0.99765 0.49362 0.99144 0.0
C1167 C 0.03229 0.5273 0.9996 0.0
C1168 C 0.05235 0.54654 0.98043 0.0
C1169 C 0.99399 0.49296 0.03751 0.0
C1170 C 1.00954 0.50986 0.06491 0.0
C1171 C 0.02864 0.52663 0.04567 0.0
C1172 C 1.00596 0.51077 0.11345 0.0
C1173 C 0.97393 0.47372 0.05668 0.0
C1174 C 0.98125 0.5193 0.1266 0.0
C1175 C 0.97793 0.52049 0.17222 0.0
C1176 C 0.99929 0.51325 0.20582 0.0
C1177 C 0.02414 0.50494 0.19245 0.0
C1178 C 0.02744 0.50381 0.14672 0.0
H1179 H 0.96896 0.45743 0.03452 0.0
H1180 H 0.98178 0.46437 0.09072 0.0
H1181 H 0.955 0.48501 0.05987 0.0
H1182 H 0.96458 0.52539 0.10148 0.0
H1183 H 0.95871 0.52758 0.18107 0.0
loop_
_geom_bond_atom_site_label_1
_geom_bond_atom_site_label_2
_geom_bond_distance
_geom_bond_site_symmetry_2
_ccdc_geom_bond_type
La0 C2 2.928 1_655 S
La0 O20 2.521 1_655 S
La0 O21 2.628 1_565 S
La0 O22 2.554 1_655 S
La0 O23 2.757 1_655 S
La0 O24 2.470 1_665 S
La0 O29 2.482 1_565 S
La0 O31 2.503 . S
La1 C11 2.928 1_455 S
La1 O23 2.482 1_545 S
La1 O25 2.503 . S
La1 O26 2.521 1_455 S
La1 O27 2.628 1_545 S
La1 O28 2.554 1_455 S
La1 O29 2.757 1_455 S
La1 O30 2.470 1_445 S
C2 La0 2.928 1_455 S
C2 C3 1.503 . S
C2 O20 1.261 . S
C2 O21 1.243 1_465 S
C3 C2 1.503 . S
C3 C4 1.394 . S
C3 C8 1.373 1_565 S
C4 C3 1.394 . S
C4 C5 1.380 . S
C4 H32 0.930 . S
C5 C4 1.380 . S
C5 C6 1.376 1_565 S
C5 H33 0.930 . S
C6 C5 1.376 1_545 S
C6 C7 1.370 . S
C7 C6 1.370 . S
C7 C8 1.396 . S
C7 H34 0.929 . S
C8 C3 1.373 1_545 S
C8 C7 1.396 . S
C8 H35 0.929 1_455 S
C9 O22 1.240 . S
C9 O23 1.289 . S
C10 O24 1.258 . S
C10 O25 1.256 . S
C11 La1 2.928 1_655 S
C11 C12 1.503 . S
C11 O26 1.261 . S
C11 O27 1.243 1_645 S
C12 C11 1.503 . S
C12 C13 1.394 . S
C12 C17 1.373 1_545 S
C13 C12 1.394 . S
C13 C14 1.380 . S
C13 H36 0.930 . S
C14 C13 1.380 . S
C14 C15 1.376 1_545 S
C14 H37 0.930 . S
C15 C14 1.376 1_565 S
C15 C16 1.370 . S
C16 C15 1.370 . S
C16 C17 1.396 . S
C16 H38 0.929 . S
C17 C12 1.373 1_565 S
C17 C16 1.396 . S
C17 H39 0.929 1_655 S
C18 O28 1.240 . S
C18 O29 1.289 . S
C19 O30 1.258 . S
C19 O31 1.256 . S
O20 La0 2.521 1_455 S
O20 C2 1.261 . S
O21 La0 2.628 1_545 S
O21 C2 1.243 1_645 S
O22 La0 2.554 1_455 S
O22 C9 1.240 . S
O23 La0 2.757 1_455 S
O23 La1 2.482 1_565 S
O23 C9 1.289 . S
O24 La0 2.470 1_445 S
O24 C10 1.258 . S
O25 La1 2.503 . S
O25 C10 1.256 . S
O26 La1 2.521 1_655 S
O26 C11 1.261 . S
O27 La1 2.628 1_565 S
O27 C11 1.243 1_465 S
O28 La1 2.554 1_655 S
O28 C18 1.240 . S
O29 La0 2.482 1_545 S
O29 La1 2.757 1_655 S
O29 C18 1.289 . S
O30 La1 2.470 1_665 S
O30 C19 1.258 . S
O31 La0 2.503 . S
O31 C19 1.256 . S
H32 C4 0.930 . S
H33 C5 0.930 . S
H34 C7 0.929 . S
H35 C8 0.929 1_655 S
H36 C13 0.930 . S
H37 C14 0.930 . S
H38 C16 0.929 . S
H39 C17 0.929 1_455 S
La40 C42 2.928 . S
La40 O60 2.521 . S
La40 O61 2.628 . S
La40 O62 2.554 . S
La40 O63 2.757 . S
La40 O64 2.470 . S
La40 O69 2.482 . S
La40 O71 2.503 . S
La41 C51 2.928 . S
La41 O63 2.482 . S
La41 O65 2.503 . S
La41 O66 2.521 . S
La41 O67 2.628 . S
La41 O68 2.554 . S
La41 O69 2.757 . S
La41 O70 2.470 . S
C42 La40 2.928 . S
C42 C43 1.503 . S
C42 O60 1.261 . S
C42 O61 1.243 . S
C43 C42 1.503 . S
C43 C44 1.394 . S
C43 C48 1.373 . S
C44 C43 1.394 . S
C44 C45 1.380 . S
C44 H72 0.930 . S
C45 C44 1.380 . S
C45 C46 1.376 1_556 S
C45 H73 0.930 1_556 S
C46 C45 1.376 1_554 S
C46 C47 1.370 . S
C47 C46 1.370 . S
C47 C48 1.396 1_554 S
C47 H74 0.929 . S
C48 C43 1.373 . S
C48 C47 1.396 1_556 S
C48 H75 0.929 . S
C49 O62 1.240 . S
C49 O63 1.289 . S
C50 O64 1.258 . S
C50 O65 1.256 . S
C51 La41 2.928 . S
C51 C52 1.503 . S
C51 O66 1.261 . S
C51 O67 1.243 . S
C52 C51 1.503 . S
C52 C53 1.394 . S
C52 C57 1.373 . S
C53 C52 1.394 . S
C53 C54 1.380 . S
C53 H76 0.930 . S
C54 C53 1.380 . S
C54 C55 1.376 . S
C54 H77 0.930 . S
C55 C54 1.376 . S
C55 C56 1.370 . S
C56 C55 1.370 . S
C56 C57 1.396 . S
C56 H78 0.929 . S
C57 C52 1.373 . S
C57 C56 1.396 . S
C57 H79 0.929 . S
C58 O68 1.240 . S
C58 O69 1.289 . S
C59 O70 1.258 . S
C59 O71 1.256 . S
O60 La40 2.521 . S
O60 C42 1.261 . S
O61 La40 2.628 . S
O61 C42 1.243 . S
O62 La40 2.554 . S
O62 C49 1.240 . S
O63 La40 2.757 . S
O63 La41 2.482 . S
O63 C49 1.289 . S
O64 La40 2.470 . S
O64 C50 1.258 . S
O65 La41 2.503 . S
O65 C50 1.256 . S
O66 La41 2.521 . S
O66 C51 1.261 . S
O67 La41 2.628 . S
O67 C51 1.243 . S
O68 La41 2.554 . S
O68 C58 1.240 . S
O69 La40 2.482 . S
O69 La41 2.757 . S
O69 C58 1.289 . S
O70 La41 2.470 . S
O70 C59 1.258 . S
O71 La40 2.503 . S
O71 C59 1.256 . S
H72 C44 0.930 . S
H73 C45 0.930 1_554 S
H74 C47 0.929 . S
H75 C48 0.929 . S
H76 C53 0.930 . S
H77 C54 0.930 . S
H78 C56 0.929 . S
H79 C57 0.929 . S
La80 C82 2.928 . S
La80 O100 2.521 . S
La80 O101 2.630 . S
La80 O102 2.554 . S
La80 O103 2.757 1_554 S
La80 O104 2.470 1_565 S
La80 O109 2.482 1_565 S
La80 O111 2.503 . S
La81 C91 2.928 . S
La81 O103 2.482 1_545 S
La81 O105 2.503 . S
La81 O106 2.521 . S
La81 O107 2.636 . S
La81 O108 2.554 . S
La81 O109 2.757 1_556 S
La81 O110 2.470 1_545 S
C82 La80 2.928 . S
C82 C83 1.503 . S
C82 O100 1.261 . S
C82 O101 1.246 . S
C83 C82 1.503 . S
C83 C84 1.394 . S
C83 C88 1.373 1_565 S
C84 C83 1.394 . S
C84 C85 1.380 . S
C84 H112 0.930 . S
C85 C84 1.380 . S
C85 C86 1.376 . S
C85 H113 0.930 . S
C86 C85 1.376 . S
C86 C87 1.370 1_565 S
C87 C86 1.370 1_545 S
C87 C88 1.396 . S
C87 H114 0.929 . S
C88 C83 1.373 1_545 S
C88 C87 1.396 . S
C88 H115 0.929 . S
C89 O102 1.240 1_556 S
C89 O103 1.289 . S
C90 O104 1.258 . S
C90 O105 1.256 1_554 S
C91 La81 2.928 . S
C91 C92 1.503 . S
C91 O106 1.261 . S
C91 O107 1.253 . S
C92 C91 1.503 . S
C92 C93 1.394 . S
C92 C97 1.373 1_545 S
C93 C92 1.394 . S
C93 C94 1.380 . S
C93 H116 0.930 . S
C94 C93 1.380 . S
C94 C95 1.376 . S
C94 H117 0.930 . S
C95 C94 1.376 . S
C95 C96 1.370 1_545 S
C96 C95 1.370 1_565 S
C96 C97 1.396 . S
C96 H118 0.929 . S
C97 C92 1.373 1_565 S
C97 C96 1.396 . S
C97 H119 0.929 . S
C98 O108 1.240 1_554 S
C98 O109 1.289 . S
C99 O110 1.258 . S
C99 O111 1.256 1_556 S
O100 La80 2.521 . S
O100 C82 1.261 . S
O101 La80 2.630 . S
O101 C82 1.246 . S
O102 La80 2.554 . S
O102 C89 1.240 1_554 S
O103 La80 2.757 1_556 S
O103 La81 2.482 1_565 S
O103 C89 1.289 . S
O104 La80 2.470 1_545 S
O104 C90 1.258 . S
O105 La81 2.503 . S
O105 C90 1.256 1_556 S
O106 La81 2.521 . S
O106 C91 1.261 . S
O107 La81 2.636 . S
O107 C91 1.253 . S
O108 La81 2.554 . S
O108 C98 1.240 1_556 S
O109 La80 2.482 1_545 S
O109 La81 2.757 1_554 S
O109 C98 1.289 . S
O110 La81 2.470 1_565 S
O110 C99 1.258 . S
O111 La80 2.503 . S
O111 C99 1.256 1_554 S
H112 C84 0.930 . S
H113 C85 0.930 . S
H114 C87 0.929 . S
H115 C88 0.929 . S
H116 C93 0.930 . S
H117 C94 0.930 . S
H118 C96 0.929 . S
H119 C97 0.929 . S
La120 C122 2.928 . S
La120 O140 2.521 . S
La120 O141 2.628 . S
La120 O142 2.554 . S
La120 O143 2.757 . S
La120 O144 2.470 . S
La120 O149 2.482 . S
La120 O151 2.503 . S
La121 C131 2.928 . S
La121 O143 2.482 . S
La121 O145 2.503 . S
La121 O146 2.521 . S
La121 O147 2.628 . S
La121 O148 2.554 . S
La121 O149 2.757 . S
La121 O150 2.470 . S
C122 La120 2.928 . S
C122 C123 1.503 . S
C122 O140 1.261 . S
C122 O141 1.243 . S
C123 C122 1.503 . S
C123 C124 1.394 . S
C123 C128 1.373 . S
C124 C123 1.394 . S
C124 C125 1.380 1_554 S
C124 H152 0.930 . S
C125 C124 1.380 1_556 S
C125 C126 1.376 . S
C125 H153 0.930 . S
C126 C125 1.376 . S
C126 C127 1.370 . S
C127 C126 1.370 . S
C127 C128 1.396 1_556 S
C127 H154 0.929 . S
C128 C123 1.373 . S
C128 C127 1.396 1_554 S
C128 H155 0.929 . S
C129 O142 1.240 . S
C129 O143 1.289 . S
C130 O144 1.258 . S
C130 O145 1.256 . S
C131 La121 2.928 . S
C131 C132 1.503 . S
C131 O146 1.261 . S
C131 O147 1.243 . S
C132 C131 1.503 . S
C132 C133 1.394 . S
C132 C137 1.373 . S
C133 C132 1.394 . S
C133 C134 1.380 . S
C133 H156 0.930 . S
C134 C133 1.380 . S
C134 C135 1.376 . S
C134 H157 0.930 . S
C135 C134 1.376 . S
C135 C136 1.370 . S
C136 C135 1.370 . S
C136 C137 1.396 . S
C136 H158 0.929 . S
C137 C132 1.373 . S
C137 C136 1.396 . S
C137 H159 0.929 . S
C138 O148 1.240 . S
C138 O149 1.289 . S
C139 O150 1.258 . S
C139 O151 1.256 . S
O140 La120 2.521 . S
O140 C122 1.261 . S
O141 La120 2.628 . S
O141 C122 1.243 . S
O142 La120 2.554 . S
O142 C129 1.240 . S
O143 La120 2.757 . S
O143 La121 2.482 . S
O143 C129 1.289 . S
O144 La120 2.470 . S
O144 C130 1.258 . S
O145 La121 2.503 . S
O145 C130 1.256 . S
O146 La121 2.521 . S
O146 C131 1.261 . S
O147 La121 2.628 . S
O147 C131 1.243 . S
O148 La121 2.554 . S
O148 C138 1.240 . S
O149 La120 2.482 . S
O149 La121 2.757 . S
O149 C138 1.289 . S
O150 La121 2.470 . S
O150 C139 1.258 . S
O151 La120 2.503 . S
O151 C139 1.256 . S
H152 C124 0.930 . S
H153 C125 0.930 . S
H154 C127 0.929 . S
H155 C128 0.929 . S
H156 C133 0.930 . S
H157 C134 0.930 . S
H158 C136 0.929 . S
H159 C137 0.929 . S
La160 C162 2.928 . S
La160 O180 2.521 . S
La160 O181 2.628 . S
La160 O182 2.554 . S
La160 O183 2.757 . S
La160 O184 2.470 . S
La160 O189 2.482 . S
La160 O191 2.503 . S
La161 C171 2.928 . S
La161 O183 2.482 . S
La161 O185 2.503 . S
La161 O186 2.521 . S
La161 O187 2.628 . S
La161 O188 2.554 . S
La161 O189 2.757 . S
La161 O190 2.470 . S
C162 La160 2.928 . S
C162 C163 1.503 . S
C162 O180 1.261 . S
C162 O181 1.243 . S
C163 C162 1.503 . S
C163 C164 1.394 . S
C163 C168 1.373 . S
C164 C163 1.394 . S
C164 C165 1.380 . S
C164 H192 0.930 . S
C165 C164 1.380 . S
C165 C166 1.376 . S
C165 H193 0.930 . S
C166 C165 1.376 . S
C166 C167 1.370 . S
C167 C166 1.370 . S
C167 C168 1.396 . S
C167 H194 0.929 . S
C168 C163 1.373 . S
C168 C167 1.396 . S
C168 H195 0.929 . S
C169 O182 1.240 . S
C169 O183 1.289 . S
C170 O184 1.258 . S
C170 O185 1.256 . S
C171 La161 2.928 . S
C171 C172 1.503 . S
C171 O186 1.261 . S
C171 O187 1.243 . S
C172 C171 1.503 . S
C172 C173 1.394 . S
C172 C177 1.373 . S
C173 C172 1.394 . S
C173 C174 1.380 . S
C173 H196 0.930 . S
C174 C173 1.380 . S
C174 C175 1.376 1_554 S
C174 H197 0.930 1_554 S
C175 C174 1.376 1_556 S
C175 C176 1.370 . S
C176 C175 1.370 . S
C176 C177 1.396 1_556 S
C176 H198 0.929 . S
C177 C172 1.373 . S
C177 C176 1.396 1_554 S
C177 H199 0.929 . S
C178 O188 1.240 . S
C178 O189 1.289 . S
C179 O190 1.258 . S
C179 O191 1.256 . S
O180 La160 2.521 . S
O180 C162 1.261 . S
O181 La160 2.628 . S
O181 C162 1.243 . S
O182 La160 2.554 . S
O182 C169 1.240 . S
O183 La160 2.757 . S
O183 La161 2.482 . S
O183 C169 1.289 . S
O184 La160 2.470 . S
O184 C170 1.258 . S
O185 La161 2.503 . S
O185 C170 1.256 . S
O186 La161 2.521 . S
O186 C171 1.261 . S
O187 La161 2.628 . S
O187 C171 1.243 . S
O188 La161 2.554 . S
O188 C178 1.240 . S
O189 La160 2.482 . S
O189 La161 2.757 . S
O189 C178 1.289 . S
O190 La161 2.470 . S
O190 C179 1.258 . S
O191 La160 2.503 . S
O191 C179 1.256 . S
H192 C164 0.930 . S
H193 C165 0.930 . S
H194 C167 0.929 . S
H195 C168 0.929 . S
H196 C173 0.930 . S
H197 C174 0.930 1_556 S
H198 C176 0.929 . S
H199 C177 0.929 . S
La200 C202 2.928 . S
La200 O220 2.521 . S
La200 O221 2.628 . S
La200 O222 2.554 . S
La200 O223 2.757 . S
La200 O224 2.470 . S
La200 O229 2.482 . S
La200 O231 2.503 . S
La201 C211 2.928 . S
La201 O223 2.482 . S
La201 O225 2.503 . S
La201 O226 2.521 . S
La201 O227 2.628 . S
La201 O228 2.554 . S
La201 O229 2.757 . S
La201 O230 2.470 . S
C202 La200 2.928 . S
C202 C203 1.503 . S
C202 O220 1.261 . S
C202 O221 1.243 . S
C203 C202 1.503 . S
C203 C204 1.394 . S
C203 C208 1.373 . S
C204 C203 1.394 . S
C204 C205 1.380 . S
C204 H232 0.930 . S
C205 C204 1.380 . S
C205 C206 1.376 . S
C205 H233 0.930 . S
C206 C205 1.376 . S
C206 C207 1.370 . S
C207 C206 1.370 . S
C207 C208 1.396 . S
C207 H234 0.929 . S
C208 C203 1.373 . S
C208 C207 1.396 . S
C208 H235 0.929 . S
C209 O222 1.240 . S
C209 O223 1.289 . S
C210 O224 1.258 . S
C210 O225 1.256 . S
C211 La201 2.928 . S
C211 C212 1.503 . S
C211 O226 1.261 . S
C211 O227 1.243 . S
C212 C211 1.503 . S
C212 C213 1.394 . S
C212 C217 1.373 . S
C213 C212 1.394 . S
C213 C214 1.380 1_556 S
C213 H236 0.930 . S
C214 C213 1.380 1_554 S
C214 C215 1.376 . S
C214 H237 0.930 . S
C215 C214 1.376 . S
C215 C216 1.370 . S
C216 C215 1.370 . S
C216 C217 1.396 1_554 S
C216 H238 0.929 . S
C217 C212 1.373 . S
C217 C216 1.396 1_556 S
C217 H239 0.929 . S
C218 O228 1.240 . S
C218 O229 1.289 . S
C219 O230 1.258 . S
C219 O231 1.256 . S
O220 La200 2.521 . S
O220 C202 1.261 . S
O221 La200 2.628 . S
O221 C202 1.243 . S
O222 La200 2.554 . S
O222 C209 1.240 . S
O223 La200 2.757 . S
O223 La201 2.482 . S
O223 C209 1.289 . S
O224 La200 2.470 . S
O224 C210 1.258 . S
O225 La201 2.503 . S
O225 C210 1.256 . S
O226 La201 2.521 . S
O226 C211 1.261 . S
O227 La201 2.628 . S
O227 C211 1.243 . S
O228 La201 2.554 . S
O228 C218 1.240 . S
O229 La200 2.482 . S
O229 La201 2.757 . S
O229 C218 1.289 . S
O230 La201 2.470 . S
O230 C219 1.258 . S
O231 La200 2.503 . S
O231 C219 1.256 . S
H232 C204 0.930 . S
H233 C205 0.930 . S
H234 C207 0.929 . S
H235 C208 0.929 . S
H236 C213 0.930 . S
H237 C214 0.930 . S
H238 C216 0.929 . S
H239 C217 0.929 . S
La240 C242 2.928 . S
La240 O260 2.521 . S
La240 O261 2.628 . S
La240 O262 2.554 . S
La240 O263 2.757 1_556 S
La240 O264 2.470 . S
La240 O269 2.482 . S
La240 O271 2.503 1_556 S
La241 C251 2.928 . S
La241 O263 2.482 . S
La241 O265 2.503 1_554 S
La241 O266 2.521 . S
La241 O267 2.628 . S
La241 O268 2.554 . S
La241 O269 2.757 1_554 S
La241 O270 2.470 . S
C242 La240 2.928 . S
C242 C243 1.503 . S
C242 O260 1.261 . S
C242 O261 1.243 . S
C243 C242 1.503 . S
C243 C244 1.394 . S
C243 C248 1.373 . S
C244 C243 1.394 . S
C244 C245 1.380 . S
C244 H272 0.930 . S
C245 C244 1.380 . S
C245 C246 1.376 . S
C245 H273 0.930 . S
C246 C245 1.376 . S
C246 C247 1.370 . S
C247 C246 1.370 . S
C247 C248 1.396 . S
C247 H274 0.929 . S
C248 C243 1.373 . S
C248 C247 1.396 . S
C248 H275 0.929 . S
C249 O262 1.240 1_554 S
C249 O263 1.289 . S
C250 O264 1.258 . S
C250 O265 1.256 . S
C251 La241 2.928 . S
C251 C252 1.503 . S
C251 O266 1.261 . S
C251 O267 1.243 . S
C252 C251 1.503 . S
C252 C253 1.394 . S
C252 C257 1.373 . S
C253 C252 1.394 . S
C253 C254 1.380 . S
C253 H276 0.930 . S
C254 C253 1.380 . S
C254 C255 1.376 . S
C254 H277 0.930 . S
C255 C254 1.376 . S
C255 C256 1.370 . S
C256 C255 1.370 . S
C256 C257 1.396 . S
C256 H278 0.929 . S
C257 C252 1.373 . S
C257 C256 1.396 . S
C257 H279 0.929 . S
C258 O268 1.240 1_556 S
C258 O269 1.289 . S
C259 O270 1.258 . S
C259 O271 1.256 . S
O260 La240 2.521 . S
O260 C242 1.261 . S
O261 La240 2.628 . S
O261 C242 1.243 . S
O262 La240 2.554 . S
O262 C249 1.240 1_556 S
O263 La240 2.757 1_554 S
O263 La241 2.482 . S
O263 C249 1.289 . S
O264 La240 2.470 . S
O264 C250 1.258 . S
O265 La241 2.503 1_556 S
O265 C250 1.256 . S
O266 La241 2.521 . S
O266 C251 1.261 . S
O267 La241 2.628 . S
O267 C251 1.243 . S
O268 La241 2.554 . S
O268 C258 1.240 1_554 S
O269 La240 2.482 . S
O269 La241 2.757 1_556 S
O269 C258 1.289 . S
O270 La241 2.470 . S
O270 C259 1.258 . S
O271 La240 2.503 1_554 S
O271 C259 1.256 . S
H272 C244 0.930 . S
H273 C245 0.930 . S
H274 C247 0.929 . S
H275 C248 0.929 . S
H276 C253 0.930 . S
H277 C254 0.930 . S
H278 C256 0.929 . S
H279 C257 0.929 . S
La280 C282 2.928 1_455 S
La280 O300 2.521 1_455 S
La280 O301 2.628 . S
La280 O302 2.554 1_455 S
La280 O303 2.757 1_455 S
La280 O304 2.470 1_455 S
La280 O309 2.482 . S
La280 O311 2.503 . S
La281 C291 2.928 1_655 S
La281 O303 2.482 . S
La281 O305 2.503 . S
La281 O306 2.521 1_655 S
La281 O307 2.628 . S
La281 O308 2.554 1_655 S
La281 O309 2.757 1_655 S
La281 O310 2.470 1_655 S
C282 La280 2.928 1_655 S
C282 C283 1.503 . S
C282 O300 1.261 . S
C282 O301 1.243 1_655 S
C283 C282 1.503 . S
C283 C284 1.394 . S
C283 C288 1.373 . S
C284 C283 1.394 . S
C284 C285 1.380 . S
C284 H312 0.930 . S
C285 C284 1.380 . S
C285 C286 1.376 . S
C285 H313 0.930 . S
C286 C285 1.376 . S
C286 C287 1.370 . S
C287 C286 1.370 . S
C287 C288 1.396 . S
C287 H314 0.929 . S
C288 C283 1.373 . S
C288 C287 1.396 . S
C288 H315 0.929 1_655 S
C289 O302 1.240 . S
C289 O303 1.289 . S
C290 O304 1.258 . S
C290 O305 1.256 . S
C291 La281 2.928 1_455 S
C291 C292 1.503 . S
C291 O306 1.261 . S
C291 O307 1.243 1_455 S
C292 C291 1.503 . S
C292 C293 1.394 . S
C292 C297 1.373 . S
C293 C292 1.394 . S
C293 C294 1.380 . S
C293 H316 0.930 . S
C294 C293 1.380 . S
C294 C295 1.376 . S
C294 H317 0.930 . S
C295 C294 1.376 . S
C295 C296 1.370 . S
C296 C295 1.370 . S
C296 C297 1.396 . S
C296 H318 0.929 . S
C297 C292 1.373 . S
C297 C296 1.396 . S
C297 H319 0.929 1_455 S
C298 O308 1.240 . S
C298 O309 1.289 . S
C299 O310 1.258 . S
C299 O311 1.256 . S
O300 La280 2.521 1_655 S
O300 C282 1.261 . S
O301 La280 2.628 . S
O301 C282 1.243 1_455 S
O302 La280 2.554 1_655 S
O302 C289 1.240 . S
O303 La280 2.757 1_655 S
O303 La281 2.482 . S
O303 C289 1.289 . S
O304 La280 2.470 1_655 S
O304 C290 1.258 . S
O305 La281 2.503 . S
O305 C290 1.256 . S
O306 La281 2.521 1_455 S
O306 C291 1.261 . S
O307 La281 2.628 . S
O307 C291 1.243 1_655 S
O308 La281 2.554 1_455 S
O308 C298 1.240 . S
O309 La280 2.482 . S
O309 La281 2.757 1_455 S
O309 C298 1.289 . S
O310 La281 2.470 1_455 S
O310 C299 1.258 . S
O311 La280 2.503 . S
O311 C299 1.256 . S
H312 C284 0.930 . S
H313 C285 0.930 . S
H314 C287 0.929 . S
H315 C288 0.929 1_455 S
H316 C293 0.930 . S
H317 C294 0.930 . S
H318 C296 0.929 . S
H319 C297 0.929 1_655 S
H320 C328 0.929 . S
H321 C330 0.930 . S
H322 C332 0.930 . S
H323 C335 0.929 . S
H324 C338 0.930 . S
H325 C340 0.960 . S
H326 C340 0.960 . S
H327 C340 0.960 . S
C328 H320 0.929 . S
C328 C329 1.377 . S
C328 C330 1.384 . S
C329 C328 1.377 . S
C329 C335 1.390 . S
C330 H321 0.930 . S
C330 C328 1.384 . S
C330 C331 1.372 . S
C331 C330 1.372 . S
C331 C332 1.400 . S
C331 C336 1.490 . S
C332 H322 0.930 . S
C332 C331 1.400 . S
C332 C335 1.386 . S
H333 C349 0.930 . S
H334 C350 0.931 . S
C335 H323 0.929 . S
C335 C329 1.390 . S
C335 C332 1.386 . S
C336 C331 1.490 . S
C336 C338 1.395 . S
C336 C339 1.403 . S
H337 C343 0.930 . S
C338 H324 0.930 . S
C338 C336 1.395 . S
C338 C341 1.403 . S
C339 C336 1.403 . S
C339 C340 1.524 . S
C339 C343 1.400 . S
C340 H325 0.960 . S
C340 H326 0.960 . S
C340 H327 0.960 . S
C340 C339 1.524 . S
C341 C338 1.403 . S
C341 C342 1.392 . S
C341 C345 1.495 . S
C342 C341 1.392 . S
C342 C343 1.385 . S
C342 C344 1.478 . S
C343 H337 0.930 . S
C343 C339 1.400 . S
C343 C342 1.385 . S
C344 C342 1.478 . S
C344 C346 1.381 . S
C344 C350 1.383 . S
C345 C341 1.495 . S
C345 H351 0.959 . S
C345 H352 0.961 . S
C345 H353 0.960 . S
C346 C344 1.381 . S
C346 C347 1.394 . S
C346 H354 0.930 . S
C347 C346 1.394 . S
C347 C348 1.383 . S
C347 H355 0.929 . S
C348 C347 1.383 . S
C348 C349 1.377 . S
C349 H333 0.930 . S
C349 C348 1.377 . S
C349 C350 1.379 . S
C350 H334 0.931 . S
C350 C344 1.383 . S
C350 C349 1.379 . S
H351 C345 0.959 . S
H352 C345 0.961 . S
H353 C345 0.960 . S
H354 C346 0.930 . S
H355 C347 0.929 . S
H356 C364 0.929 . S
H357 C366 0.930 . S
H358 C368 0.930 . S
H359 C371 0.929 . S
H360 C374 0.930 . S
H361 C376 0.960 . S
H362 C376 0.960 . S
H363 C376 0.960 . S
C364 H356 0.929 . S
C364 C365 1.377 . S
C364 C366 1.384 . S
C365 C364 1.377 . S
C365 C371 1.390 . S
C366 H357 0.930 . S
C366 C364 1.384 . S
C366 C367 1.372 . S
C367 C366 1.372 . S
C367 C368 1.400 . S
C367 C372 1.490 . S
C368 H358 0.930 . S
C368 C367 1.400 . S
C368 C371 1.386 . S
H369 C385 0.930 . S
H370 C386 0.931 . S
C371 H359 0.929 . S
C371 C365 1.390 . S
C371 C368 1.386 . S
C372 C367 1.490 . S
C372 C374 1.395 . S
C372 C375 1.403 . S
H373 C379 0.930 . S
C374 H360 0.930 . S
C374 C372 1.395 . S
C374 C377 1.403 . S
C375 C372 1.403 . S
C375 C376 1.524 . S
C375 C379 1.400 . S
C376 H361 0.960 . S
C376 H362 0.960 . S
C376 H363 0.960 . S
C376 C375 1.524 . S
C377 C374 1.403 . S
C377 C378 1.392 . S
C377 C381 1.495 . S
C378 C377 1.392 . S
C378 C379 1.385 . S
C378 C380 1.478 . S
C379 H373 0.930 . S
C379 C375 1.400 . S
C379 C378 1.385 . S
C380 C378 1.478 . S
C380 C382 1.381 . S
C380 C386 1.383 . S
C381 C377 1.495 . S
C381 H387 0.959 . S
C381 H388 0.961 . S
C381 H389 0.960 . S
C382 C380 1.381 . S
C382 C383 1.394 . S
C382 H390 0.930 . S
C383 C382 1.394 . S
C383 C384 1.383 . S
C383 H391 0.929 . S
C384 C383 1.383 . S
C384 C385 1.377 . S
C385 H369 0.930 . S
C385 C384 1.377 . S
C385 C386 1.379 . S
C386 H370 0.931 . S
C386 C380 1.383 . S
C386 C385 1.379 . S
H387 C381 0.959 . S
H388 C381 0.961 . S
H389 C381 0.960 . S
H390 C382 0.930 . S
H391 C383 0.929 . S
H392 C400 0.929 . S
H393 C402 0.930 . S
H394 C404 0.930 . S
H395 C407 0.929 . S
H396 C410 0.930 . S
H397 C412 0.960 . S
H398 C412 0.960 . S
H399 C412 0.960 . S
C400 H392 0.929 . S
C400 C401 1.377 . S
C400 C402 1.384 . S
C401 C400 1.377 . S
C401 C407 1.390 . S
C402 H393 0.930 . S
C402 C400 1.384 . S
C402 C403 1.372 . S
C403 C402 1.372 . S
C403 C404 1.400 . S
C403 C408 1.490 . S
C404 H394 0.930 . S
C404 C403 1.400 . S
C404 C407 1.386 . S
H405 C421 0.930 . S
H406 C422 0.931 . S
C407 H395 0.929 . S
C407 C401 1.390 . S
C407 C404 1.386 . S
C408 C403 1.490 . S
C408 C410 1.395 . S
C408 C411 1.403 . S
H409 C415 0.930 . S
C410 H396 0.930 . S
C410 C408 1.395 . S
C410 C413 1.403 . S
C411 C408 1.403 . S
C411 C412 1.524 . S
C411 C415 1.400 . S
C412 H397 0.960 . S
C412 H398 0.960 . S
C412 H399 0.960 . S
C412 C411 1.524 . S
C413 C410 1.403 . S
C413 C414 1.392 . S
C413 C417 1.495 . S
C414 C413 1.392 . S
C414 C415 1.385 . S
C414 C416 1.478 . S
C415 H409 0.930 . S
C415 C411 1.400 . S
C415 C414 1.385 . S
C416 C414 1.478 . S
C416 C418 1.381 . S
C416 C422 1.383 . S
C417 C413 1.495 . S
C417 H423 0.959 . S
C417 H424 0.961 . S
C417 H425 0.960 . S
C418 C416 1.381 . S
C418 C419 1.394 . S
C418 H426 0.930 . S
C419 C418 1.394 . S
C419 C420 1.383 . S
C419 H427 0.929 1_556 S
C420 C419 1.383 . S
C420 C421 1.377 . S
C421 H405 0.930 . S
C421 C420 1.377 . S
C421 C422 1.379 . S
C422 H406 0.931 . S
C422 C416 1.383 . S
C422 C421 1.379 . S
H423 C417 0.959 . S
H424 C417 0.961 . S
H425 C417 0.960 . S
H426 C418 0.930 . S
H427 C419 0.929 1_554 S
H428 C436 0.929 . S
H429 C438 0.930 . S
H430 C440 0.930 . S
H431 C443 0.929 . S
H432 C446 0.930 . S
H433 C448 0.960 . S
H434 C448 0.960 . S
H435 C448 0.960 . S
C436 H428 0.929 . S
C436 C437 1.377 . S
C436 C438 1.384 . S
C437 C436 1.377 . S
C437 C443 1.390 . S
C438 H429 0.930 . S
C438 C436 1.384 . S
C438 C439 1.372 . S
C439 C438 1.372 . S
C439 C440 1.400 . S
C439 C444 1.490 . S
C440 H430 0.930 . S
C440 C439 1.400 . S
C440 C443 1.386 . S
H441 C457 0.930 . S
H442 C458 0.931 . S
C443 H431 0.929 . S
C443 C437 1.390 . S
C443 C440 1.386 . S
C444 C439 1.490 . S
C444 C446 1.395 . S
C444 C447 1.403 . S
H445 C451 0.930 . S
C446 H432 0.930 . S
C446 C444 1.395 . S
C446 C449 1.403 . S
C447 C444 1.403 . S
C447 C448 1.524 . S
C447 C451 1.400 . S
C448 H433 0.960 . S
C448 H434 0.960 . S
C448 H435 0.960 . S
C448 C447 1.524 . S
C449 C446 1.403 . S
C449 C450 1.392 . S
C449 C453 1.495 . S
C450 C449 1.392 . S
C450 C451 1.385 . S
C450 C452 1.478 . S
C451 H445 0.930 . S
C451 C447 1.400 . S
C451 C450 1.385 . S
C452 C450 1.478 . S
C452 C454 1.381 . S
C452 C458 1.383 . S
C453 C449 1.495 . S
C453 H459 0.959 . S
C453 H460 0.961 . S
C453 H461 0.960 . S
C454 C452 1.381 . S
C454 C455 1.394 . S
C454 H462 0.930 . S
C455 C454 1.394 . S
C455 C456 1.383 . S
C455 H463 0.929 . S
C456 C455 1.383 . S
C456 C457 1.377 . S
C457 H441 0.930 . S
C457 C456 1.377 . S
C457 C458 1.379 . S
C458 H442 0.931 . S
C458 C452 1.383 . S
C458 C457 1.379 . S
H459 C453 0.959 . S
H460 C453 0.961 . S
H461 C453 0.960 . S
H462 C454 0.930 . S
H463 C455 0.929 . S
H464 C472 0.929 . S
H465 C474 0.930 . S
H466 C476 0.930 . S
H467 C479 0.929 . S
H468 C482 0.930 . S
H469 C484 0.960 . S
H470 C484 0.960 . S
H471 C484 0.960 . S
C472 H464 0.929 . S
C472 C473 1.377 . S
C472 C474 1.384 . S
C473 C472 1.377 . S
C473 C479 1.390 . S
C474 H465 0.930 . S
C474 C472 1.384 . S
C474 C475 1.372 . S
C475 C474 1.372 . S
C475 C476 1.400 . S
C475 C480 1.490 . S
C476 H466 0.930 . S
C476 C475 1.400 . S
C476 C479 1.386 . S
H477 C493 0.930 . S
H478 C494 0.931 . S
C479 H467 0.929 . S
C479 C473 1.390 . S
C479 C476 1.386 . S
C480 C475 1.490 . S
C480 C482 1.395 . S
C480 C483 1.403 . S
H481 C487 0.930 . S
C482 H468 0.930 . S
C482 C480 1.395 . S
C482 C485 1.403 . S
C483 C480 1.403 . S
C483 C484 1.524 . S
C483 C487 1.400 . S
C484 H469 0.960 . S
C484 H470 0.960 . S
C484 H471 0.960 . S
C484 C483 1.524 . S
C485 C482 1.403 . S
C485 C486 1.392 . S
C485 C489 1.495 . S
C486 C485 1.392 . S
C486 C487 1.385 . S
C486 C488 1.478 . S
C487 H481 0.930 . S
C487 C483 1.400 . S
C487 C486 1.385 . S
C488 C486 1.478 . S
C488 C490 1.381 . S
C488 C494 1.383 . S
C489 C485 1.495 . S
C489 H495 0.959 . S
C489 H496 0.961 . S
C489 H497 0.960 . S
C490 C488 1.381 . S
C490 C491 1.394 . S
C490 H498 0.930 . S
C491 C490 1.394 . S
C491 C492 1.383 . S
C491 H499 0.929 . S
C492 C491 1.383 . S
C492 C493 1.377 . S
C493 H477 0.930 . S
C493 C492 1.377 . S
C493 C494 1.379 . S
C494 H478 0.931 . S
C494 C488 1.383 . S
C494 C493 1.379 . S
H495 C489 0.959 . S
H496 C489 0.961 . S
H497 C489 0.960 . S
H498 C490 0.930 . S
H499 C491 0.929 . S
H500 C508 0.929 . S
H501 C510 0.930 . S
H502 C512 0.930 . S
H503 C515 0.929 . S
H504 C518 0.930 . S
H505 C520 0.960 . S
H506 C520 0.960 . S
H507 C520 0.960 . S
C508 H500 0.929 . S
C508 C509 1.377 . S
C508 C510 1.384 . S
C509 C508 1.377 . S
C509 C515 1.390 . S
C510 H501 0.930 . S
C510 C508 1.384 . S
C510 C511 1.372 . S
C511 C510 1.372 . S
C511 C512 1.400 . S
C511 C516 1.490 . S
C512 H502 0.930 . S
C512 C511 1.400 . S
C512 C515 1.386 . S
H513 C529 0.930 . S
H514 C530 0.931 . S
C515 H503 0.929 . S
C515 C509 1.390 . S
C515 C512 1.386 . S
C516 C511 1.490 . S
C516 C518 1.395 . S
C516 C519 1.403 . S
H517 C523 0.930 . S
C518 H504 0.930 . S
C518 C516 1.395 . S
C518 C521 1.403 . S
C519 C516 1.403 . S
C519 C520 1.524 . S
C519 C523 1.400 . S
C520 H505 0.960 . S
C520 H506 0.960 . S
C520 H507 0.960 . S
C520 C519 1.524 . S
C521 C518 1.403 . S
C521 C522 1.392 . S
C521 C525 1.495 . S
C522 C521 1.392 . S
C522 C523 1.385 . S
C522 C524 1.478 . S
C523 H517 0.930 . S
C523 C519 1.400 . S
C523 C522 1.385 . S
C524 C522 1.478 . S
C524 C526 1.381 . S
C524 C530 1.383 . S
C525 C521 1.495 . S
C525 H531 0.959 . S
C525 H532 0.961 . S
C525 H533 0.960 . S
C526 C524 1.381 . S
C526 C527 1.394 . S
C526 H534 0.930 . S
C527 C526 1.394 . S
C527 C528 1.383 . S
C527 H535 0.929 . S
C528 C527 1.383 . S
C528 C529 1.377 . S
C529 H513 0.930 . S
C529 C528 1.377 . S
C529 C530 1.379 . S
C530 H514 0.931 . S
C530 C524 1.383 . S
C530 C529 1.379 . S
H531 C525 0.959 . S
H532 C525 0.961 . S
H533 C525 0.960 . S
H534 C526 0.930 . S
H535 C527 0.929 . S
H536 C544 0.929 . S
H537 C546 0.930 . S
H538 C548 0.930 . S
H539 C551 0.929 . S
H540 C554 0.930 . S
H541 C556 0.960 . S
H542 C556 0.960 . S
H543 C556 0.960 . S
C544 H536 0.929 . S
C544 C545 1.377 . S
C544 C546 1.384 . S
C545 C544 1.377 . S
C545 C551 1.390 . S
C546 H537 0.930 . S
C546 C544 1.384 . S
C546 C547 1.372 . S
C547 C546 1.372 . S
C547 C548 1.400 . S
C547 C552 1.490 . S
C548 H538 0.930 . S
C548 C547 1.400 . S
C548 C551 1.386 . S
H549 C565 0.930 . S
H550 C566 0.931 . S
C551 H539 0.929 . S
C551 C545 1.390 . S
C551 C548 1.386 . S
C552 C547 1.490 . S
C552 C554 1.395 . S
C552 C555 1.403 . S
H553 C559 0.930 . S
C554 H540 0.930 . S
C554 C552 1.395 . S
C554 C557 1.403 . S
C555 C552 1.403 . S
C555 C556 1.524 . S
C555 C559 1.400 . S
C556 H541 0.960 . S
C556 H542 0.960 . S
C556 H543 0.960 . S
C556 C555 1.524 . S
C557 C554 1.403 . S
C557 C558 1.392 . S
C557 C561 1.495 . S
C558 C557 1.392 . S
C558 C559 1.385 . S
C558 C560 1.478 . S
C559 H553 0.930 . S
C559 C555 1.400 . S
C559 C558 1.385 . S
C560 C558 1.478 . S
C560 C562 1.381 . S
C560 C566 1.383 . S
C561 C557 1.495 . S
C561 H567 0.959 . S
C561 H568 0.961 . S
C561 H569 0.960 . S
C562 C560 1.381 . S
C562 C563 1.394 . S
C562 H570 0.930 . S
C563 C562 1.394 . S
C563 C564 1.383 . S
C563 H571 0.929 . S
C564 C563 1.383 . S
C564 C565 1.377 . S
C565 H549 0.930 . S
C565 C564 1.377 . S
C565 C566 1.379 . S
C566 H550 0.931 . S
C566 C560 1.383 . S
C566 C565 1.379 . S
H567 C561 0.959 . S
H568 C561 0.961 . S
H569 C561 0.960 . S
H570 C562 0.930 . S
H571 C563 0.929 . S
H572 C580 0.929 . S
H573 C582 0.930 . S
H574 C584 0.930 . S
H575 C587 0.929 . S
H576 C590 0.930 . S
H577 C592 0.960 . S
H578 C592 0.960 . S
H579 C592 0.960 . S
C580 H572 0.929 . S
C580 C581 1.377 . S
C580 C582 1.384 . S
C581 C580 1.377 . S
C581 C587 1.390 . S
C582 H573 0.930 . S
C582 C580 1.384 . S
C582 C583 1.372 . S
C583 C582 1.372 . S
C583 C584 1.400 . S
C583 C588 1.490 . S
C584 H574 0.930 . S
C584 C583 1.400 . S
C584 C587 1.386 . S
H585 C601 0.930 . S
H586 C602 0.931 . S
C587 H575 0.929 . S
C587 C581 1.390 . S
C587 C584 1.386 . S
C588 C583 1.490 . S
C588 C590 1.395 . S
C588 C591 1.403 . S
H589 C595 0.930 . S
C590 H576 0.930 . S
C590 C588 1.395 . S
C590 C593 1.403 . S
C591 C588 1.403 . S
C591 C592 1.524 . S
C591 C595 1.400 . S
C592 H577 0.960 . S
C592 H578 0.960 . S
C592 H579 0.960 . S
C592 C591 1.524 . S
C593 C590 1.403 . S
C593 C594 1.392 . S
C593 C597 1.495 . S
C594 C593 1.392 . S
C594 C595 1.385 . S
C594 C596 1.478 . S
C595 H589 0.930 . S
C595 C591 1.400 . S
C595 C594 1.385 . S
C596 C594 1.478 . S
C596 C598 1.381 . S
C596 C602 1.383 . S
C597 C593 1.495 . S
C597 H603 0.959 . S
C597 H604 0.961 . S
C597 H605 0.960 . S
C598 C596 1.381 . S
C598 C599 1.394 . S
C598 H606 0.930 . S
C599 C598 1.394 . S
C599 C600 1.383 . S
C599 H607 0.929 . S
C600 C599 1.383 . S
C600 C601 1.377 . S
C601 H585 0.930 . S
C601 C600 1.377 . S
C601 C602 1.379 . S
C602 H586 0.931 . S
C602 C596 1.383 . S
C602 C601 1.379 . S
H603 C597 0.959 . S
H604 C597 0.961 . S
H605 C597 0.960 . S
H606 C598 0.930 . S
H607 C599 0.929 . S
H608 C616 0.929 . S
H609 C618 0.930 . S
H610 C620 0.930 . S
H611 C623 0.929 . S
H612 C626 0.930 . S
H613 C628 0.960 . S
H614 C628 0.960 . S
H615 C628 0.960 . S
C616 H608 0.929 . S
C616 C617 1.377 . S
C616 C618 1.384 . S
C617 C616 1.377 . S
C617 C623 1.390 . S
C618 H609 0.930 . S
C618 C616 1.384 . S
C618 C619 1.372 . S
C619 C618 1.372 . S
C619 C620 1.400 . S
C619 C624 1.490 . S
C620 H610 0.930 . S
C620 C619 1.400 . S
C620 C623 1.386 . S
H621 C637 0.930 . S
H622 C638 0.931 . S
C623 H611 0.929 . S
C623 C617 1.390 . S
C623 C620 1.386 . S
C624 C619 1.490 . S
C624 C626 1.395 . S
C624 C627 1.403 . S
H625 C631 0.930 . S
C626 H612 0.930 . S
C626 C624 1.395 . S
C626 C629 1.403 . S
C627 C624 1.403 . S
C627 C628 1.524 . S
C627 C631 1.400 . S
C628 H613 0.960 . S
C628 H614 0.960 . S
C628 H615 0.960 . S
C628 C627 1.524 . S
C629 C626 1.403 . S
C629 C630 1.392 . S
C629 C633 1.495 . S
C630 C629 1.392 . S
C630 C631 1.385 . S
C630 C632 1.478 . S
C631 H625 0.930 . S
C631 C627 1.400 . S
C631 C630 1.385 . S
C632 C630 1.478 . S
C632 C634 1.381 . S
C632 C638 1.383 . S
C633 C629 1.495 . S
C633 H639 0.959 . S
C633 H640 0.961 . S
C633 H641 0.960 . S
C634 C632 1.381 . S
C634 C635 1.394 . S
C634 H642 0.930 . S
C635 C634 1.394 . S
C635 C636 1.383 . S
C635 H643 0.929 . S
C636 C635 1.383 . S
C636 C637 1.377 . S
C637 H621 0.930 . S
C637 C636 1.377 . S
C637 C638 1.379 . S
C638 H622 0.931 . S
C638 C632 1.383 . S
C638 C637 1.379 . S
H639 C633 0.959 . S
H640 C633 0.961 . S
H641 C633 0.960 . S
H642 C634 0.930 . S
H643 C635 0.929 . S
H644 C652 0.929 . S
H645 C654 0.930 . S
H646 C656 0.930 . S
H647 C659 0.929 . S
H648 C662 0.930 . S
H649 C664 0.960 . S
H650 C664 0.960 . S
H651 C664 0.960 . S
C652 H644 0.929 . S
C652 C653 1.377 . S
C652 C654 1.384 . S
C653 C652 1.377 . S
C653 C659 1.390 . S
C654 H645 0.930 . S
C654 C652 1.384 . S
C654 C655 1.372 . S
C655 C654 1.372 . S
C655 C656 1.400 . S
C655 C660 1.490 . S
C656 H646 0.930 . S
C656 C655 1.400 . S
C656 C659 1.386 . S
H657 C673 0.930 . S
H658 C674 0.931 . S
C659 H647 0.929 . S
C659 C653 1.390 . S
C659 C656 1.386 . S
C660 C655 1.490 . S
C660 C662 1.395 . S
C660 C663 1.403 . S
H661 C667 0.930 . S
C662 H648 0.930 . S
C662 C660 1.395 . S
C662 C665 1.403 . S
C663 C660 1.403 . S
C663 C664 1.524 . S
C663 C667 1.400 . S
C664 H649 0.960 . S
C664 H650 0.960 . S
C664 H651 0.960 . S
C664 C663 1.524 . S
C665 C662 1.403 . S
C665 C666 1.392 . S
C665 C669 1.495 . S
C666 C665 1.392 . S
C666 C667 1.385 . S
C666 C668 1.478 . S
C667 H661 0.930 . S
C667 C663 1.400 . S
C667 C666 1.385 . S
C668 C666 1.478 . S
C668 C670 1.381 . S
C668 C674 1.383 . S
C669 C665 1.495 . S
C669 H675 0.959 . S
C669 H676 0.961 . S
C669 H677 0.960 . S
C670 C668 1.381 . S
C670 C671 1.394 . S
C670 H678 0.930 . S
C671 C670 1.394 . S
C671 C672 1.383 . S
C671 H679 0.929 . S
C672 C671 1.383 . S
C672 C673 1.377 . S
C673 H657 0.930 . S
C673 C672 1.377 . S
C673 C674 1.379 . S
C674 H658 0.931 . S
C674 C668 1.383 . S
C674 C673 1.379 . S
H675 C669 0.959 . S
H676 C669 0.961 . S
H677 C669 0.960 . S
H678 C670 0.930 . S
H679 C671 0.929 . S
H680 C688 0.929 . S
H681 C690 0.930 . S
H682 C692 0.930 . S
H683 C695 0.929 . S
H684 C698 0.930 . S
H685 C700 0.960 . S
H686 C700 0.960 . S
H687 C700 0.960 . S
C688 H680 0.929 . S
C688 C689 1.377 . S
C688 C690 1.384 . S
C689 C688 1.377 . S
C689 C695 1.390 . S
C690 H681 0.930 . S
C690 C688 1.384 . S
C690 C691 1.372 . S
C691 C690 1.372 . S
C691 C692 1.400 . S
C691 C696 1.490 . S
C692 H682 0.930 . S
C692 C691 1.400 . S
C692 C695 1.386 . S
H693 C709 0.930 . S
H694 C710 0.931 . S
C695 H683 0.929 . S
C695 C689 1.390 . S
C695 C692 1.386 . S
C696 C691 1.490 . S
C696 C698 1.395 . S
C696 C699 1.403 . S
H697 C703 0.930 . S
C698 H684 0.930 . S
C698 C696 1.395 . S
C698 C701 1.403 . S
C699 C696 1.403 . S
C699 C700 1.524 . S
C699 C703 1.400 . S
C700 H685 0.960 . S
C700 H686 0.960 . S
C700 H687 0.960 . S
C700 C699 1.524 . S
C701 C698 1.403 . S
C701 C702 1.392 . S
C701 C705 1.495 . S
C702 C701 1.392 . S
C702 C703 1.385 . S
C702 C704 1.478 . S
C703 H697 0.930 . S
C703 C699 1.400 . S
C703 C702 1.385 . S
C704 C702 1.478 . S
C704 C706 1.381 . S
C704 C710 1.383 . S
C705 C701 1.495 . S
C705 H711 0.959 . S
C705 H712 0.961 . S
C705 H713 0.960 . S
C706 C704 1.381 . S
C706 C707 1.394 . S
C706 H714 0.930 . S
C707 C706 1.394 . S
C707 C708 1.383 . S
C707 H715 0.929 . S
C708 C707 1.383 . S
C708 C709 1.377 . S
C709 H693 0.930 . S
C709 C708 1.377 . S
C709 C710 1.379 . S
C710 H694 0.931 . S
C710 C704 1.383 . S
C710 C709 1.379 . S
H711 C705 0.959 . S
H712 C705 0.961 . S
H713 C705 0.960 . S
H714 C706 0.930 . S
H715 C707 0.929 . S
H716 C724 0.929 . S
H717 C726 0.930 . S
H718 C728 0.930 . S
H719 C731 0.929 . S
H720 C734 0.930 . S
H721 C736 0.960 . S
H722 C736 0.960 . S
H723 C736 0.960 . S
C724 H716 0.929 . S
C724 C725 1.377 . S
C724 C726 1.384 . S
C725 C724 1.377 . S
C725 C731 1.390 . S
C726 H717 0.930 . S
C726 C724 1.384 . S
C726 C727 1.372 . S
C727 C726 1.372 . S
C727 C728 1.400 . S
C727 C732 1.490 . S
C728 H718 0.930 . S
C728 C727 1.400 . S
C728 C731 1.386 . S
H729 C745 0.930 . S
H730 C746 0.931 . S
C731 H719 0.929 . S
C731 C725 1.390 . S
C731 C728 1.386 . S
C732 C727 1.490 . S
C732 C734 1.395 . S
C732 C735 1.403 . S
H733 C739 0.930 . S
C734 H720 0.930 . S
C734 C732 1.395 . S
C734 C737 1.403 . S
C735 C732 1.403 . S
C735 C736 1.524 . S
C735 C739 1.400 . S
C736 H721 0.960 . S
C736 H722 0.960 . S
C736 H723 0.960 . S
C736 C735 1.524 . S
C737 C734 1.403 . S
C737 C738 1.392 . S
C737 C741 1.495 . S
C738 C737 1.392 . S
C738 C739 1.385 . S
C738 C740 1.478 . S
C739 H733 0.930 . S
C739 C735 1.400 . S
C739 C738 1.385 . S
C740 C738 1.478 . S
C740 C742 1.381 . S
C740 C746 1.383 . S
C741 C737 1.495 . S
C741 H747 0.959 . S
C741 H748 0.961 . S
C741 H749 0.960 . S
C742 C740 1.381 . S
C742 C743 1.394 . S
C742 H750 0.930 . S
C743 C742 1.394 . S
C743 C744 1.383 . S
C743 H751 0.929 . S
C744 C743 1.383 . S
C744 C745 1.377 . S
C745 H729 0.930 . S
C745 C744 1.377 . S
C745 C746 1.379 . S
C746 H730 0.931 . S
C746 C740 1.383 . S
C746 C745 1.379 . S
H747 C741 0.959 . S
H748 C741 0.961 . S
H749 C741 0.960 . S
H750 C742 0.930 . S
H751 C743 0.929 . S
H752 C760 0.929 . S
H753 C762 0.930 . S
H754 C764 0.930 . S
H755 C767 0.929 . S
H756 C770 0.930 . S
H757 C772 0.960 . S
H758 C772 0.960 . S
H759 C772 0.960 . S
C760 H752 0.929 . S
C760 C761 1.377 . S
C760 C762 1.384 . S
C761 C760 1.377 . S
C761 C767 1.390 . S
C762 H753 0.930 . S
C762 C760 1.384 . S
C762 C763 1.372 . S
C763 C762 1.372 . S
C763 C764 1.400 . S
C763 C768 1.490 . S
C764 H754 0.930 . S
C764 C763 1.400 . S
C764 C767 1.386 . S
H765 C781 0.930 . S
H766 C782 0.931 . S
C767 H755 0.929 . S
C767 C761 1.390 . S
C767 C764 1.386 . S
C768 C763 1.490 . S
C768 C770 1.395 . S
C768 C771 1.403 . S
H769 C775 0.930 . S
C770 H756 0.930 . S
C770 C768 1.395 . S
C770 C773 1.403 . S
C771 C768 1.403 . S
C771 C772 1.524 . S
C771 C775 1.400 . S
C772 H757 0.960 . S
C772 H758 0.960 . S
C772 H759 0.960 . S
C772 C771 1.524 . S
C773 C770 1.403 . S
C773 C774 1.392 . S
C773 C777 1.495 . S
C774 C773 1.392 . S
C774 C775 1.385 . S
C774 C776 1.478 . S
C775 H769 0.930 . S
C775 C771 1.400 . S
C775 C774 1.385 . S
C776 C774 1.478 . S
C776 C778 1.381 . S
C776 C782 1.383 . S
C777 C773 1.495 . S
C777 H783 0.959 . S
C777 H784 0.961 . S
C777 H785 0.960 . S
C778 C776 1.381 . S
C778 C779 1.394 . S
C778 H786 0.930 . S
C779 C778 1.394 . S
C779 C780 1.383 . S
C779 H787 0.929 . S
C780 C779 1.383 . S
C780 C781 1.377 . S
C781 H765 0.930 . S
C781 C780 1.377 . S
C781 C782 1.379 . S
C782 H766 0.931 . S
C782 C776 1.383 . S
C782 C781 1.379 . S
H783 C777 0.959 . S
H784 C777 0.961 . S
H785 C777 0.960 . S
H786 C778 0.930 . S
H787 C779 0.929 . S
H788 C796 0.929 . S
H789 C798 0.930 . S
H790 C800 0.930 . S
H791 C803 0.929 . S
H792 C806 0.930 . S
H793 C808 0.960 . S
H794 C808 0.960 . S
H795 C808 0.960 . S
C796 H788 0.929 . S
C796 C797 1.377 . S
C796 C798 1.384 . S
C797 C796 1.377 . S
C797 C803 1.390 . S
C798 H789 0.930 . S
C798 C796 1.384 . S
C798 C799 1.372 . S
C799 C798 1.372 . S
C799 C800 1.400 . S
C799 C804 1.490 . S
C800 H790 0.930 . S
C800 C799 1.400 . S
C800 C803 1.386 . S
H801 C817 0.930 . S
H802 C818 0.931 . S
C803 H791 0.929 . S
C803 C797 1.390 . S
C803 C800 1.386 . S
C804 C799 1.490 . S
C804 C806 1.395 . S
C804 C807 1.403 . S
H805 C811 0.930 . S
C806 H792 0.930 . S
C806 C804 1.395 . S
C806 C809 1.403 . S
C807 C804 1.403 . S
C807 C808 1.524 . S
C807 C811 1.400 . S
C808 H793 0.960 . S
C808 H794 0.960 . S
C808 H795 0.960 . S
C808 C807 1.524 . S
C809 C806 1.403 . S
C809 C810 1.392 . S
C809 C813 1.495 . S
C810 C809 1.392 . S
C810 C811 1.385 . S
C810 C812 1.478 . S
C811 H805 0.930 . S
C811 C807 1.400 . S
C811 C810 1.385 . S
C812 C810 1.478 . S
C812 C814 1.381 . S
C812 C818 1.383 . S
C813 C809 1.495 . S
C813 H819 0.959 . S
C813 H820 0.961 . S
C813 H821 0.960 . S
C814 C812 1.381 . S
C814 C815 1.394 . S
C814 H822 0.930 . S
C815 C814 1.394 . S
C815 C816 1.383 . S
C815 H823 0.929 . S
C816 C815 1.383 . S
C816 C817 1.377 . S
C817 H801 0.930 . S
C817 C816 1.377 . S
C817 C818 1.379 . S
C818 H802 0.931 . S
C818 C812 1.383 . S
C818 C817 1.379 . S
H819 C813 0.959 . S
H820 C813 0.961 . S
H821 C813 0.960 . S
H822 C814 0.930 . S
H823 C815 0.929 . S
H824 C832 0.929 . S
H825 C834 0.930 . S
H826 C836 0.930 . S
H827 C839 0.929 . S
H828 C842 0.930 . S
H829 C844 0.960 . S
H830 C844 0.960 . S
H831 C844 0.960 . S
C832 H824 0.929 . S
C832 C833 1.377 . S
C832 C834 1.384 . S
C833 C832 1.377 . S
C833 C839 1.390 . S
C834 H825 0.930 . S
C834 C832 1.384 . S
C834 C835 1.372 . S
C835 C834 1.372 . S
C835 C836 1.400 . S
C835 C840 1.490 . S
C836 H826 0.930 . S
C836 C835 1.400 . S
C836 C839 1.386 . S
H837 C853 0.930 . S
H838 C854 0.931 . S
C839 H827 0.929 . S
C839 C833 1.390 . S
C839 C836 1.386 . S
C840 C835 1.490 . S
C840 C842 1.395 . S
C840 C843 1.403 . S
H841 C847 0.930 . S
C842 H828 0.930 . S
C842 C840 1.395 . S
C842 C845 1.403 . S
C843 C840 1.403 . S
C843 C844 1.524 . S
C843 C847 1.400 . S
C844 H829 0.960 . S
C844 H830 0.960 . S
C844 H831 0.960 . S
C844 C843 1.524 . S
C845 C842 1.403 . S
C845 C846 1.392 . S
C845 C849 1.495 . S
C846 C845 1.392 . S
C846 C847 1.385 . S
C846 C848 1.478 . S
C847 H841 0.930 . S
C847 C843 1.400 . S
C847 C846 1.385 . S
C848 C846 1.478 . S
C848 C850 1.381 . S
C848 C854 1.383 . S
C849 C845 1.495 . S
C849 H855 0.959 . S
C849 H856 0.961 . S
C849 H857 0.960 . S
C850 C848 1.381 . S
C850 C851 1.394 . S
C850 H858 0.930 . S
C851 C850 1.394 . S
C851 C852 1.383 . S
C851 H859 0.929 . S
C852 C851 1.383 . S
C852 C853 1.377 . S
C853 H837 0.930 . S
C853 C852 1.377 . S
C853 C854 1.379 . S
C854 H838 0.931 . S
C854 C848 1.383 . S
C854 C853 1.379 . S
H855 C849 0.959 . S
H856 C849 0.961 . S
H857 C849 0.960 . S
H858 C850 0.930 . S
H859 C851 0.929 . S
H860 C868 0.929 . S
H861 C870 0.930 . S
H862 C872 0.930 . S
H863 C875 0.929 . S
H864 C878 0.930 . S
H865 C880 0.960 . S
H866 C880 0.960 . S
H867 C880 0.960 . S
C868 H860 0.929 . S
C868 C869 1.377 . S
C868 C870 1.384 . S
C869 C868 1.377 . S
C869 C875 1.390 . S
C870 H861 0.930 . S
C870 C868 1.384 . S
C870 C871 1.372 . S
C871 C870 1.372 . S
C871 C872 1.400 . S
C871 C876 1.490 . S
C872 H862 0.930 . S
C872 C871 1.400 . S
C872 C875 1.386 . S
H873 C889 0.930 . S
H874 C890 0.931 . S
C875 H863 0.929 . S
C875 C869 1.390 . S
C875 C872 1.386 . S
C876 C871 1.490 . S
C876 C878 1.395 . S
C876 C879 1.403 . S
H877 C883 0.930 . S
C878 H864 0.930 . S
C878 C876 1.395 . S
C878 C881 1.403 . S
C879 C876 1.403 . S
C879 C880 1.524 . S
C879 C883 1.400 . S
C880 H865 0.960 . S
C880 H866 0.960 . S
C880 H867 0.960 . S
C880 C879 1.524 . S
C881 C878 1.403 . S
C881 C882 1.392 . S
C881 C885 1.495 . S
C882 C881 1.392 . S
C882 C883 1.385 . S
C882 C884 1.478 . S
C883 H877 0.930 . S
C883 C879 1.400 . S
C883 C882 1.385 . S
C884 C882 1.478 . S
C884 C886 1.381 . S
C884 C890 1.383 . S
C885 C881 1.495 . S
C885 H891 0.959 . S
C885 H892 0.961 . S
C885 H893 0.960 . S
C886 C884 1.381 . S
C886 C887 1.394 . S
C886 H894 0.930 . S
C887 C886 1.394 . S
C887 C888 1.383 . S
C887 H895 0.929 . S
C888 C887 1.383 . S
C888 C889 1.377 . S
C889 H873 0.930 . S
C889 C888 1.377 . S
C889 C890 1.379 . S
C890 H874 0.931 . S
C890 C884 1.383 . S
C890 C889 1.379 . S
H891 C885 0.959 . S
H892 C885 0.961 . S
H893 C885 0.960 . S
H894 C886 0.930 . S
H895 C887 0.929 . S
H896 C904 0.929 . S
H897 C906 0.930 . S
H898 C908 0.930 . S
H899 C911 0.929 . S
H900 C914 0.930 . S
H901 C916 0.960 . S
H902 C916 0.960 1_655 S
H903 C916 0.960 . S
C904 H896 0.929 . S
C904 C905 1.377 . S
C904 C906 1.384 . S
C905 C904 1.377 . S
C905 C911 1.390 1_665 S
C906 H897 0.930 . S
C906 C904 1.384 . S
C906 C907 1.372 . S
C907 C906 1.372 . S
C907 C908 1.400 1_665 S
C907 C912 1.490 . S
C908 H898 0.930 . S
C908 C907 1.400 1_445 S
C908 C911 1.386 . S
H909 C925 0.930 . S
H910 C926 0.931 . S
C911 H899 0.929 . S
C911 C905 1.390 1_445 S
C911 C908 1.386 . S
C912 C907 1.490 . S
C912 C914 1.395 . S
C912 C915 1.403 1_665 S
H913 C919 0.930 . S
C914 H900 0.930 . S
C914 C912 1.395 . S
C914 C917 1.403 1_556 S
C915 C912 1.403 1_445 S
C915 C916 1.524 . S
C915 C919 1.400 1_556 S
C916 H901 0.960 . S
C916 H902 0.960 1_455 S
C916 H903 0.960 . S
C916 C915 1.524 . S
C917 C914 1.403 1_554 S
C917 C918 1.392 1_655 S
C917 C921 1.495 . S
C918 C917 1.392 1_455 S
C918 C919 1.385 1_565 S
C918 C920 1.478 . S
C919 H913 0.930 . S
C919 C915 1.400 1_554 S
C919 C918 1.385 1_545 S
C920 C918 1.478 . S
C920 C922 1.381 1_455 S
C920 C926 1.383 1_565 S
C921 C917 1.495 . S
C921 H927 0.959 . S
C921 H928 0.961 1_655 S
C921 H929 0.960 . S
C922 C920 1.381 1_655 S
C922 C923 1.406 . S
C922 H930 0.930 . S
C923 C922 1.406 . S
C923 C924 1.375 1_665 S
C923 H931 0.928 . S
C924 C923 1.375 1_445 S
C924 C925 1.377 . S
C925 H909 0.930 . S
C925 C924 1.377 . S
C925 C926 1.379 . S
C926 H910 0.931 . S
C926 C920 1.383 1_545 S
C926 C925 1.379 . S
H927 C921 0.959 . S
H928 C921 0.961 1_455 S
H929 C921 0.960 . S
H930 C922 0.930 . S
H931 C923 0.928 . S
H932 C940 0.929 . S
H933 C942 0.930 . S
H934 C944 0.930 . S
H935 C947 0.929 . S
H936 C950 0.930 . S
H937 C952 0.960 . S
H938 C952 0.960 . S
H939 C952 0.960 . S
C940 H932 0.929 . S
C940 C941 1.377 . S
C940 C942 1.384 . S
C941 C940 1.377 . S
C941 C947 1.390 . S
C942 H933 0.930 . S
C942 C940 1.384 . S
C942 C943 1.372 . S
C943 C942 1.372 . S
C943 C944 1.400 . S
C943 C948 1.490 . S
C944 H934 0.930 . S
C944 C943 1.400 . S
C944 C947 1.386 . S
H945 C961 0.930 . S
H946 C962 0.931 . S
C947 H935 0.929 . S
C947 C941 1.390 . S
C947 C944 1.386 . S
C948 C943 1.490 . S
C948 C950 1.395 . S
C948 C951 1.403 . S
H949 C955 0.930 . S
C950 H936 0.930 . S
C950 C948 1.395 . S
C950 C953 1.403 . S
C951 C948 1.403 . S
C951 C952 1.524 . S
C951 C955 1.400 . S
C952 H937 0.960 . S
C952 H938 0.960 . S
C952 H939 0.960 . S
C952 C951 1.524 . S
C953 C950 1.403 . S
C953 C954 1.392 . S
C953 C957 1.495 . S
C954 C953 1.392 . S
C954 C955 1.385 . S
C954 C956 1.478 . S
C955 H949 0.930 . S
C955 C951 1.400 . S
C955 C954 1.385 . S
C956 C954 1.478 . S
C956 C958 1.381 . S
C956 C962 1.383 . S
C957 C953 1.495 . S
C957 H963 0.959 . S
C957 H964 0.961 . S
C957 H965 0.960 . S
C958 C956 1.381 . S
C958 C959 1.394 . S
C958 H966 0.930 . S
C959 C958 1.394 . S
C959 C960 1.383 . S
C959 H967 0.929 . S
C960 C959 1.383 . S
C960 C961 1.377 . S
C961 H945 0.930 . S
C961 C960 1.377 . S
C961 C962 1.379 . S
C962 H946 0.931 . S
C962 C956 1.383 . S
C962 C961 1.379 . S
H963 C957 0.959 . S
H964 C957 0.961 . S
H965 C957 0.960 . S
H966 C958 0.930 . S
H967 C959 0.929 . S
H968 C976 0.929 . S
H969 C978 0.930 . S
H970 C980 0.930 . S
H971 C983 0.929 . S
H972 C986 0.930 . S
H973 C988 0.960 . S
H974 C988 0.960 . S
H975 C988 0.960 . S
C976 H968 0.929 . S
C976 C977 1.377 . S
C976 C978 1.384 . S
C977 C976 1.377 . S
C977 C983 1.390 . S
C978 H969 0.930 . S
C978 C976 1.384 . S
C978 C979 1.372 . S
C979 C978 1.372 . S
C979 C980 1.400 . S
C979 C984 1.490 . S
C980 H970 0.930 . S
C980 C979 1.400 . S
C980 C983 1.386 . S
H981 C997 0.930 . S
H982 C998 0.930 . S
C983 H971 0.929 . S
C983 C977 1.390 . S
C983 C980 1.386 . S
C984 C979 1.490 . S
C984 C986 1.395 . S
C984 C987 1.403 1_545 S
H985 C991 0.930 . S
C986 H972 0.930 . S
C986 C984 1.395 . S
C986 C989 1.403 . S
C987 C984 1.403 1_565 S
C987 C988 1.524 . S
C987 C991 1.400 . S
C988 H973 0.960 . S
C988 H974 0.960 . S
C988 H975 0.960 . S
C988 C987 1.524 . S
C989 C986 1.403 . S
C989 C990 1.397 . S
C989 C993 1.495 . S
C990 C989 1.397 . S
C990 C991 1.382 1_545 S
C990 C992 1.476 1_545 S
C991 H985 0.930 . S
C991 C987 1.400 . S
C991 C990 1.382 1_565 S
C992 C990 1.476 1_565 S
C992 C994 1.381 . S
C992 C998 1.383 1_565 S
C993 C989 1.495 . S
C993 H999 0.959 . S
C993 H1000 0.961 . S
C993 H1001 0.960 . S
C994 C992 1.381 . S
C994 C995 1.394 . S
C994 H1002 0.930 . S
C995 C994 1.394 . S
C995 C996 1.383 . S
C995 H1003 0.929 . S
C996 C995 1.383 . S
C996 C997 1.377 . S
C997 H981 0.930 . S
C997 C996 1.377 . S
C997 C998 1.380 1_565 S
C998 H982 0.930 . S
C998 C992 1.383 1_545 S
C998 C997 1.380 1_545 S
H999 C993 0.959 . S
H1000 C993 0.961 . S
H1001 C993 0.960 . S
H1002 C994 0.930 . S
H1003 C995 0.929 . S
H1004 C1012 0.929 . S
H1005 C1014 0.930 . S
H1006 C1016 0.930 . S
H1007 C1019 0.929 . S
H1008 C1022 0.930 . S
H1009 C1024 0.960 . S
H1010 C1024 0.960 . S
H1011 C1024 0.960 . S
C1012 H1004 0.929 . S
C1012 C1013 1.377 . S
C1012 C1014 1.384 . S
C1013 C1012 1.377 . S
C1013 C1019 1.390 . S
C1014 H1005 0.930 . S
C1014 C1012 1.384 . S
C1014 C1015 1.372 . S
C1015 C1014 1.372 . S
C1015 C1016 1.400 . S
C1015 C1020 1.490 . S
C1016 H1006 0.930 . S
C1016 C1015 1.400 . S
C1016 C1019 1.386 . S
H1017 C1033 0.930 . S
H1018 C1034 0.931 . S
C1019 H1007 0.929 . S
C1019 C1013 1.390 . S
C1019 C1016 1.386 . S
C1020 C1015 1.490 . S
C1020 C1022 1.395 . S
C1020 C1023 1.403 . S
H1021 C1027 0.930 . S
C1022 H1008 0.930 . S
C1022 C1020 1.395 . S
C1022 C1025 1.403 . S
C1023 C1020 1.403 . S
C1023 C1024 1.524 . S
C1023 C1027 1.400 . S
C1024 H1009 0.960 . S
C1024 H1010 0.960 . S
C1024 H1011 0.960 . S
C1024 C1023 1.524 . S
C1025 C1022 1.403 . S
C1025 C1026 1.392 . S
C1025 C1029 1.495 . S
C1026 C1025 1.392 . S
C1026 C1027 1.385 . S
C1026 C1028 1.478 . S
C1027 H1021 0.930 . S
C1027 C1023 1.400 . S
C1027 C1026 1.385 . S
C1028 C1026 1.478 . S
C1028 C1030 1.381 . S
C1028 C1034 1.383 . S
C1029 C1025 1.495 . S
C1029 H1035 0.959 . S
C1029 H1036 0.961 . S
C1029 H1037 0.960 . S
C1030 C1028 1.381 . S
C1030 C1031 1.394 . S
C1030 H1038 0.930 . S
C1031 C1030 1.394 . S
C1031 C1032 1.383 . S
C1031 H1039 0.929 . S
C1032 C1031 1.383 . S
C1032 C1033 1.377 . S
C1033 H1017 0.930 . S
C1033 C1032 1.377 . S
C1033 C1034 1.379 . S
C1034 H1018 0.931 . S
C1034 C1028 1.383 . S
C1034 C1033 1.379 . S
H1035 C1029 0.959 . S
H1036 C1029 0.961 . S
H1037 C1029 0.960 . S
H1038 C1030 0.930 . S
H1039 C1031 0.929 . S
H1040 C1048 0.929 . S
H1041 C1050 0.930 . S
H1042 C1052 0.930 . S
H1043 C1055 0.929 . S
H1044 C1058 0.930 . S
H1045 C1060 0.960 . S
H1046 C1060 0.960 . S
H1047 C1060 0.960 . S
C1048 H1040 0.929 . S
C1048 C1049 1.377 . S
C1048 C1050 1.384 . S
C1049 C1048 1.377 . S
C1049 C1055 1.390 . S
C1050 H1041 0.930 . S
C1050 C1048 1.384 . S
C1050 C1051 1.372 . S
C1051 C1050 1.372 . S
C1051 C1052 1.400 . S
C1051 C1056 1.490 . S
C1052 H1042 0.930 . S
C1052 C1051 1.400 . S
C1052 C1055 1.386 . S
H1053 C1069 0.930 . S
H1054 C1070 0.931 . S
C1055 H1043 0.929 . S
C1055 C1049 1.390 . S
C1055 C1052 1.386 . S
C1056 C1051 1.490 . S
C1056 C1058 1.395 . S
C1056 C1059 1.403 . S
H1057 C1063 0.930 . S
C1058 H1044 0.930 . S
C1058 C1056 1.395 . S
C1058 C1061 1.403 . S
C1059 C1056 1.403 . S
C1059 C1060 1.524 . S
C1059 C1063 1.400 . S
C1060 H1045 0.960 . S
C1060 H1046 0.960 . S
C1060 H1047 0.960 . S
C1060 C1059 1.524 . S
C1061 C1058 1.403 . S
C1061 C1062 1.392 . S
C1061 C1065 1.495 . S
C1062 C1061 1.392 . S
C1062 C1063 1.385 . S
C1062 C1064 1.478 . S
C1063 H1057 0.930 . S
C1063 C1059 1.400 . S
C1063 C1062 1.385 . S
C1064 C1062 1.478 . S
C1064 C1066 1.381 . S
C1064 C1070 1.383 . S
C1065 C1061 1.495 . S
C1065 H1071 0.959 . S
C1065 H1072 0.961 . S
C1065 H1073 0.960 . S
C1066 C1064 1.381 . S
C1066 C1067 1.394 . S
C1066 H1074 0.930 . S
C1067 C1066 1.394 . S
C1067 C1068 1.383 . S
C1067 H1075 0.929 . S
C1068 C1067 1.383 . S
C1068 C1069 1.377 . S
C1069 H1053 0.930 . S
C1069 C1068 1.377 . S
C1069 C1070 1.379 . S
C1070 H1054 0.931 . S
C1070 C1064 1.383 . S
C1070 C1069 1.379 . S
H1071 C1065 0.959 . S
H1072 C1065 0.961 . S
H1073 C1065 0.960 . S
H1074 C1066 0.930 . S
H1075 C1067 0.929 . S
H1076 C1084 0.929 . S
H1077 C1086 0.930 . S
H1078 C1088 0.930 . S
H1079 C1091 0.929 . S
H1080 C1094 0.930 . S
H1081 C1096 0.960 . S
H1082 C1096 0.960 . S
H1083 C1096 0.960 . S
C1084 H1076 0.929 . S
C1084 C1085 1.377 . S
C1084 C1086 1.384 . S
C1085 C1084 1.377 . S
C1085 C1091 1.390 . S
C1086 H1077 0.930 . S
C1086 C1084 1.384 . S
C1086 C1087 1.372 . S
C1087 C1086 1.372 . S
C1087 C1088 1.400 . S
C1087 C1092 1.490 . S
C1088 H1078 0.930 . S
C1088 C1087 1.400 . S
C1088 C1091 1.386 . S
H1089 C1105 0.930 . S
H1090 C1106 0.931 . S
C1091 H1079 0.929 . S
C1091 C1085 1.390 . S
C1091 C1088 1.386 . S
C1092 C1087 1.490 . S
C1092 C1094 1.395 . S
C1092 C1095 1.403 . S
H1093 C1099 0.930 . S
C1094 H1080 0.930 . S
C1094 C1092 1.395 . S
C1094 C1097 1.403 . S
C1095 C1092 1.403 . S
C1095 C1096 1.524 . S
C1095 C1099 1.400 . S
C1096 H1081 0.960 . S
C1096 H1082 0.960 . S
C1096 H1083 0.960 . S
C1096 C1095 1.524 . S
C1097 C1094 1.403 . S
C1097 C1098 1.392 . S
C1097 C1101 1.495 . S
C1098 C1097 1.392 . S
C1098 C1099 1.385 . S
C1098 C1100 1.478 . S
C1099 H1093 0.930 . S
C1099 C1095 1.400 . S
C1099 C1098 1.385 . S
C1100 C1098 1.478 . S
C1100 C1102 1.381 . S
C1100 C1106 1.383 . S
C1101 C1097 1.495 . S
C1101 H1107 0.959 . S
C1101 H1108 0.961 . S
C1101 H1109 0.960 . S
C1102 C1100 1.381 . S
C1102 C1103 1.394 . S
C1102 H1110 0.930 . S
C1103 C1102 1.394 . S
C1103 C1104 1.383 . S
C1103 H1111 0.929 . S
C1104 C1103 1.383 . S
C1104 C1105 1.377 . S
C1105 H1089 0.930 . S
C1105 C1104 1.377 . S
C1105 C1106 1.379 . S
C1106 H1090 0.931 . S
C1106 C1100 1.383 . S
C1106 C1105 1.379 . S
H1107 C1101 0.959 . S
H1108 C1101 0.961 . S
H1109 C1101 0.960 . S
H1110 C1102 0.930 . S
H1111 C1103 0.929 . S
H1112 C1120 0.929 . S
H1113 C1122 0.930 . S
H1114 C1124 0.930 . S
H1115 C1127 0.929 . S
H1116 C1130 0.930 . S
H1117 C1132 0.960 . S
H1118 C1132 0.960 . S
H1119 C1132 0.960 . S
C1120 H1112 0.929 . S
C1120 C1121 1.377 . S
C1120 C1122 1.384 . S
C1121 C1120 1.377 . S
C1121 C1127 1.390 . S
C1122 H1113 0.930 . S
C1122 C1120 1.384 . S
C1122 C1123 1.372 . S
C1123 C1122 1.372 . S
C1123 C1124 1.400 . S
C1123 C1128 1.490 . S
C1124 H1114 0.930 . S
C1124 C1123 1.400 . S
C1124 C1127 1.386 . S
H1125 C1141 0.930 . S
H1126 C1142 0.931 . S
C1127 H1115 0.929 . S
C1127 C1121 1.390 . S
C1127 C1124 1.386 . S
C1128 C1123 1.490 . S
C1128 C1130 1.395 . S
C1128 C1131 1.403 . S
H1129 C1135 0.930 . S
C1130 H1116 0.930 . S
C1130 C1128 1.395 . S
C1130 C1133 1.403 . S
C1131 C1128 1.403 . S
C1131 C1132 1.524 . S
C1131 C1135 1.400 . S
C1132 H1117 0.960 . S
C1132 H1118 0.960 . S
C1132 H1119 0.960 . S
C1132 C1131 1.524 . S
C1133 C1130 1.403 . S
C1133 C1134 1.392 . S
C1133 C1137 1.495 . S
C1134 C1133 1.392 . S
C1134 C1135 1.385 . S
C1134 C1136 1.478 . S
C1135 H1129 0.930 . S
C1135 C1131 1.400 . S
C1135 C1134 1.385 . S
C1136 C1134 1.478 . S
C1136 C1138 1.381 . S
C1136 C1142 1.383 . S
C1137 C1133 1.495 . S
C1137 H1143 0.959 . S
C1137 H1144 0.961 . S
C1137 H1145 0.960 . S
C1138 C1136 1.381 . S
C1138 C1139 1.394 . S
C1138 H1146 0.930 . S
C1139 C1138 1.394 . S
C1139 C1140 1.383 . S
C1139 H1147 0.929 . S
C1140 C1139 1.383 . S
C1140 C1141 1.377 . S
C1141 H1125 0.930 . S
C1141 C1140 1.377 . S
C1141 C1142 1.379 . S
C1142 H1126 0.931 . S
C1142 C1136 1.383 . S
C1142 C1141 1.379 . S
H1143 C1137 0.959 . S
H1144 C1137 0.961 . S
H1145 C1137 0.960 . S
H1146 C1138 0.930 . S
H1147 C1139 0.929 . S
H1148 C1156 0.929 . S
H1149 C1158 0.930 . S
H1150 C1160 0.930 . S
H1151 C1163 0.929 . S
H1152 C1166 0.930 . S
H1153 C1168 0.960 . S
H1154 C1168 0.960 . S
H1155 C1168 0.960 . S
C1156 H1148 0.929 . S
C1156 C1157 1.377 . S
C1156 C1158 1.384 . S
C1157 C1156 1.377 . S
C1157 C1163 1.390 1_655 S
C1158 H1149 0.930 . S
C1158 C1156 1.384 . S
C1158 C1159 1.372 . S
C1159 C1158 1.372 . S
C1159 C1160 1.400 1_655 S
C1159 C1164 1.490 . S
C1160 H1150 0.930 . S
C1160 C1159 1.400 1_455 S
C1160 C1163 1.386 . S
H1161 C1177 0.930 . S
H1162 C1178 0.931 . S
C1163 H1151 0.929 . S
C1163 C1157 1.390 1_455 S
C1163 C1160 1.386 . S
C1164 C1159 1.490 . S
C1164 C1166 1.395 . S
C1164 C1167 1.403 1_655 S
H1165 C1171 0.930 . S
C1166 H1152 0.930 . S
C1166 C1164 1.395 . S
C1166 C1169 1.403 1_556 S
C1167 C1164 1.403 1_455 S
C1167 C1168 1.524 . S
C1167 C1171 1.400 1_556 S
C1168 H1153 0.960 . S
C1168 H1154 0.960 . S
C1168 H1155 0.960 . S
C1168 C1167 1.524 . S
C1169 C1166 1.403 1_554 S
C1169 C1170 1.367 1_655 S
C1169 C1173 1.495 . S
C1170 C1169 1.367 1_455 S
C1170 C1171 1.411 . S
C1170 C1172 1.480 . S
C1171 H1165 0.930 . S
C1171 C1167 1.400 1_554 S
C1171 C1170 1.411 . S
C1172 C1170 1.480 . S
C1172 C1174 1.381 1_455 S
C1172 C1178 1.383 . S
C1173 C1169 1.495 . S
C1173 H1179 0.959 . S
C1173 H1180 0.961 . S
C1173 H1181 0.960 . S
C1174 C1172 1.381 1_655 S
C1174 C1175 1.394 . S
C1174 H1182 0.930 . S
C1175 C1174 1.394 . S
C1175 C1176 1.383 1_655 S
C1175 H1183 0.929 . S
C1176 C1175 1.383 1_455 S
C1176 C1177 1.377 . S
C1177 H1161 0.930 . S
C1177 C1176 1.377 . S
C1177 C1178 1.379 . S
C1178 H1162 0.931 . S
C1178 C1172 1.383 . S
C1178 C1177 1.379 . S
H1179 C1173 0.959 . S
H1180 C1173 0.961 . S
H1181 C1173 0.960 . S
H1182 C1174 0.930 . S
H1183 C1175 0.929 . S
C329 C10 1.512 . S
C348 C129 1.474 . S
C365 C9 0.787 . S
C384 C49 0.754 . S
C401 C50 1.514 . S
C420 C89 1.493 . S
C437 C90 2.151 . S
C456 C130 2.147 . S
C473 C19 1.510 . S
C492 C218 1.485 . S
C509 C18 0.782 . S
C528 C178 0.785 . S
C545 C179 1.512 . S
C564 C98 1.509 . S
C581 C219 2.150 . S
C600 C99 2.147 . S
C617 C250 1.511 . S
C636 C209 1.481 . S
C653 C169 0.772 . S
C672 C249 0.785 . S
C689 C289 1.499 . S
C708 C170 1.500 . S
C725 C210 2.148 . S
C744 C290 2.140 . S
C761 C138 1.499 . S
C780 C259 1.510 . S
C797 C258 0.770 . S
C816 C58 0.742 . S
C833 C59 1.514 . S
C852 C298 1.485 . S
C869 C139 2.148 . S
C888 C299 2.151 . S
C905 C15 1.437 . S
C924 C6 1.423 . S
C941 C55 1.435 . S
C960 C46 1.447 . S
C977 C95 1.517 . S
C996 C86 1.518 . S
C1013 C126 1.517 . S
C1032 C135 1.521 . S
C1049 C175 1.436 . S
C1068 C166 1.421 . S
C1085 C206 1.518 . S
C1104 C215 1.500 . S
C1121 C246 1.438 . S
C1140 C255 1.434 . S
C1157 C286 1.520 . S
C1176 C295 1.501 . S
