# Generated by pormake.
# Topology uma, (4)-cn, num edge types: 1
# Building blocks:
#     Node 0, Type 0, BuildingBlock: NAWXER_clean_sbu_0, # of connection points: 4
#     Node 1, Type 0, BuildingBlock: NAWXER_clean_sbu_0, # of connection points: 4
#     Node 2, Type 0, BuildingBlock: NAWXER_clean_sbu_0, # of connection points: 4
#     Node 3, Type 0, BuildingBlock: NAWXER_clean_sbu_0, # of connection points: 4
#     Node 4, Type 0, BuildingBlock: NAWXER_clean_sbu_0, # of connection points: 4
#     Node 5, Type 0, BuildingBlock: NAWXER_clean_sbu_0, # of connection points: 4
#     Node 6, Type 0, BuildingBlock: NAWXER_clean_sbu_0, # of connection points: 4
#     Node 7, Type 0, BuildingBlock: NAWXER_clean_sbu_0, # of connection points: 4
#     Node 8, Type 0, BuildingBlock: NAWXER_clean_sbu_0, # of connection points: 4
#     Node 9, Type 0, BuildingBlock: NAWXER_clean_sbu_0, # of connection points: 4
#     Node 10, Type 0, BuildingBlock: NAWXER_clean_sbu_0, # of connection points: 4
#     Node 11, Type 0, BuildingBlock: NAWXER_clean_sbu_0, # of connection points: 4
#     Node 12, Type 0, BuildingBlock: NAWXER_clean_sbu_0, # of connection points: 4
#     Node 13, Type 0, BuildingBlock: NAWXER_clean_sbu_0, # of connection points: 4
#     Node 14, Type 0, BuildingBlock: NAWXER_clean_sbu_0, # of connection points: 4
#     Node 15, Type 0, BuildingBlock: NAWXER_clean_sbu_0, # of connection points: 4
#     Node 16, Type 0, BuildingBlock: NAWXER_clean_sbu_0, # of connection points: 4
#     Node 17, Type 0, BuildingBlock: NAWXER_clean_sbu_0, # of connection points: 4
#     Node 18, Type 0, BuildingBlock: NAWXER_clean_sbu_0, # of connection points: 4
#     Node 19, Type 0, BuildingBlock: NAWXER_clean_sbu_0, # of connection points: 4
#     Node 20, Type 0, BuildingBlock: NAWXER_clean_sbu_0, # of connection points: 4
#     Node 21, Type 0, BuildingBlock: NAWXER_clean_sbu_0, # of connection points: 4
#     Node 22, Type 0, BuildingBlock: NAWXER_clean_sbu_0, # of connection points: 4
#     Node 23, Type 0, BuildingBlock: NAWXER_clean_sbu_0, # of connection points: 4
#     Node 24, Type 0, BuildingBlock: NAWXER_clean_sbu_0, # of connection points: 4
#     Node 25, Type 0, BuildingBlock: NAWXER_clean_sbu_0, # of connection points: 4
#     Node 26, Type 0, BuildingBlock: NAWXER_clean_sbu_0, # of connection points: 4
#     Node 27, Type 0, BuildingBlock: NAWXER_clean_sbu_0, # of connection points: 4
#     Node 28, Type 0, BuildingBlock: NAWXER_clean_sbu_0, # of connection points: 4
#     Node 29, Type 0, BuildingBlock: NAWXER_clean_sbu_0, # of connection points: 4
#     Node 30, Type 0, BuildingBlock: NAWXER_clean_sbu_0, # of connection points: 4
#     Node 31, Type 0, BuildingBlock: NAWXER_clean_sbu_0, # of connection points: 4
#     Node 32, Type 0, BuildingBlock: NAWXER_clean_sbu_0, # of connection points: 4
#     Node 33, Type 0, BuildingBlock: NAWXER_clean_sbu_0, # of connection points: 4
#     Node 34, Type 0, BuildingBlock: NAWXER_clean_sbu_0, # of connection points: 4
#     Node 35, Type 0, BuildingBlock: NAWXER_clean_sbu_0, # of connection points: 4
#     Edge 36, Type (0, 0), BuildingBlock: XIVTED_clean_linker_0, # of connection points: 2
#     Edge 37, Type (0, 0), BuildingBlock: XIVTED_clean_linker_0, # of connection points: 2
#     Edge 38, Type (0, 0), BuildingBlock: XIVTED_clean_linker_0, # of connection points: 2
#     Edge 39, Type (0, 0), BuildingBlock: XIVTED_clean_linker_0, # of connection points: 2
#     Edge 40, Type (0, 0), BuildingBlock: XIVTED_clean_linker_0, # of connection points: 2
#     Edge 41, Type (0, 0), BuildingBlock: XIVTED_clean_linker_0, # of connection points: 2
#     Edge 42, Type (0, 0), BuildingBlock: XIVTED_clean_linker_0, # of connection points: 2
#     Edge 43, Type (0, 0), BuildingBlock: XIVTED_clean_linker_0, # of connection points: 2
#     Edge 44, Type (0, 0), BuildingBlock: XIVTED_clean_linker_0, # of connection points: 2
#     Edge 45, Type (0, 0), BuildingBlock: XIVTED_clean_linker_0, # of connection points: 2
#     Edge 46, Type (0, 0), BuildingBlock: XIVTED_clean_linker_0, # of connection points: 2
#     Edge 47, Type (0, 0), BuildingBlock: XIVTED_clean_linker_0, # of connection points: 2
#     Edge 48, Type (0, 0), BuildingBlock: XIVTED_clean_linker_0, # of connection points: 2
#     Edge 49, Type (0, 0), BuildingBlock: XIVTED_clean_linker_0, # of connection points: 2
#     Edge 50, Type (0, 0), BuildingBlock: XIVTED_clean_linker_0, # of connection points: 2
#     Edge 51, Type (0, 0), BuildingBlock: XIVTED_clean_linker_0, # of connection points: 2
#     Edge 52, Type (0, 0), BuildingBlock: XIVTED_clean_linker_0, # of connection points: 2
#     Edge 53, Type (0, 0), BuildingBlock: XIVTED_clean_linker_0, # of connection points: 2
#     Edge 54, Type (0, 0), BuildingBlock: XIVTED_clean_linker_0, # of connection points: 2
#     Edge 55, Type (0, 0), BuildingBlock: XIVTED_clean_linker_0, # of connection points: 2
#     Edge 56, Type (0, 0), BuildingBlock: XIVTED_clean_linker_0, # of connection points: 2
#     Edge 57, Type (0, 0), BuildingBlock: XIVTED_clean_linker_0, # of connection points: 2
#     Edge 58, Type (0, 0), BuildingBlock: XIVTED_clean_linker_0, # of connection points: 2
#     Edge 59, Type (0, 0), BuildingBlock: XIVTED_clean_linker_0, # of connection points: 2
#     Edge 60, Type (0, 0), BuildingBlock: XIVTED_clean_linker_0, # of connection points: 2
#     Edge 61, Type (0, 0), BuildingBlock: XIVTED_clean_linker_0, # of connection points: 2
#     Edge 62, Type (0, 0), BuildingBlock: XIVTED_clean_linker_0, # of connection points: 2
#     Edge 63, Type (0, 0), BuildingBlock: XIVTED_clean_linker_0, # of connection points: 2
#     Edge 64, Type (0, 0), BuildingBlock: XIVTED_clean_linker_0, # of connection points: 2
#     Edge 65, Type (0, 0), BuildingBlock: XIVTED_clean_linker_0, # of connection points: 2
#     Edge 66, Type (0, 0), BuildingBlock: XIVTED_clean_linker_0, # of connection points: 2
#     Edge 67, Type (0, 0), BuildingBlock: XIVTED_clean_linker_0, # of connection points: 2
#     Edge 68, Type (0, 0), BuildingBlock: XIVTED_clean_linker_0, # of connection points: 2
#     Edge 69, Type (0, 0), BuildingBlock: XIVTED_clean_linker_0, # of connection points: 2
#     Edge 70, Type (0, 0), BuildingBlock: XIVTED_clean_linker_0, # of connection points: 2
#     Edge 71, Type (0, 0), BuildingBlock: XIVTED_clean_linker_0, # of connection points: 2
#     Edge 72, Type (0, 0), BuildingBlock: XIVTED_clean_linker_0, # of connection points: 2
#     Edge 73, Type (0, 0), BuildingBlock: XIVTED_clean_linker_0, # of connection points: 2
#     Edge 74, Type (0, 0), BuildingBlock: XIVTED_clean_linker_0, # of connection points: 2
#     Edge 75, Type (0, 0), BuildingBlock: XIVTED_clean_linker_0, # of connection points: 2
#     Edge 76, Type (0, 0), BuildingBlock: XIVTED_clean_linker_0, # of connection points: 2
#     Edge 77, Type (0, 0), BuildingBlock: XIVTED_clean_linker_0, # of connection points: 2
#     Edge 78, Type (0, 0), BuildingBlock: XIVTED_clean_linker_0, # of connection points: 2
#     Edge 79, Type (0, 0), BuildingBlock: XIVTED_clean_linker_0, # of connection points: 2
#     Edge 80, Type (0, 0), BuildingBlock: XIVTED_clean_linker_0, # of connection points: 2
#     Edge 81, Type (0, 0), BuildingBlock: XIVTED_clean_linker_0, # of connection points: 2
#     Edge 82, Type (0, 0), BuildingBlock: XIVTED_clean_linker_0, # of connection points: 2
#     Edge 83, Type (0, 0), BuildingBlock: XIVTED_clean_linker_0, # of connection points: 2
#     Edge 84, Type (0, 0), BuildingBlock: XIVTED_clean_linker_0, # of connection points: 2
#     Edge 85, Type (0, 0), BuildingBlock: XIVTED_clean_linker_0, # of connection points: 2
#     Edge 86, Type (0, 0), BuildingBlock: XIVTED_clean_linker_0, # of connection points: 2
#     Edge 87, Type (0, 0), BuildingBlock: XIVTED_clean_linker_0, # of connection points: 2
#     Edge 88, Type (0, 0), BuildingBlock: XIVTED_clean_linker_0, # of connection points: 2
#     Edge 89, Type (0, 0), BuildingBlock: XIVTED_clean_linker_0, # of connection points: 2
#     Edge 90, Type (0, 0), BuildingBlock: XIVTED_clean_linker_0, # of connection points: 2
#     Edge 91, Type (0, 0), BuildingBlock: XIVTED_clean_linker_0, # of connection points: 2
#     Edge 92, Type (0, 0), BuildingBlock: XIVTED_clean_linker_0, # of connection points: 2
#     Edge 93, Type (0, 0), BuildingBlock: XIVTED_clean_linker_0, # of connection points: 2
#     Edge 94, Type (0, 0), BuildingBlock: XIVTED_clean_linker_0, # of connection points: 2
#     Edge 95, Type (0, 0), BuildingBlock: XIVTED_clean_linker_0, # of connection points: 2
#     Edge 96, Type (0, 0), BuildingBlock: XIVTED_clean_linker_0, # of connection points: 2
#     Edge 97, Type (0, 0), BuildingBlock: XIVTED_clean_linker_0, # of connection points: 2
#     Edge 98, Type (0, 0), BuildingBlock: XIVTED_clean_linker_0, # of connection points: 2
#     Edge 99, Type (0, 0), BuildingBlock: XIVTED_clean_linker_0, # of connection points: 2
#     Edge 100, Type (0, 0), BuildingBlock: XIVTED_clean_linker_0, # of connection points: 2
#     Edge 101, Type (0, 0), BuildingBlock: XIVTED_clean_linker_0, # of connection points: 2
#     Edge 102, Type (0, 0), BuildingBlock: XIVTED_clean_linker_0, # of connection points: 2
#     Edge 103, Type (0, 0), BuildingBlock: XIVTED_clean_linker_0, # of connection points: 2
#     Edge 104, Type (0, 0), BuildingBlock: XIVTED_clean_linker_0, # of connection points: 2
#     Edge 105, Type (0, 0), BuildingBlock: XIVTED_clean_linker_0, # of connection points: 2
#     Edge 106, Type (0, 0), BuildingBlock: XIVTED_clean_linker_0, # of connection points: 2
#     Edge 107, Type (0, 0), BuildingBlock: XIVTED_clean_linker_0, # of connection points: 2
# Relax obj value: 0.097
# Max RMSD: 0.105
# Mean RMSD: 0.098
data_MOF--net-uma--node1-NAWXER_clean_sbu_0--edge1-XIVTED_clean_linker_0
_symmetry_space_group_name_H-M    P1
_symmetry_Int_Tables_number       1
_symmetry_cell_setting            triclinic
loop_
_symmetry_equiv_pos_as_xyz
'x, y, z'
_cell_length_a     77.195265
_cell_length_b     77.209789
_cell_length_c     40.427814
_cell_angle_alpha  90.042914
_cell_angle_beta   89.9364
_cell_angle_gamma 120.0586
loop_
_atom_site_label
_atom_site_type_symbol
_atom_site_fract_x
_atom_site_fract_y
_atom_site_fract_z
_atom_type_partial_charge
C0 C 0.11246 0.40215 0.05651 0.0
C1 C 0.1115 0.37938 0.94343 0.0
O2 O 0.1201 0.41626 0.03507 0.0
Zn3 Zn 0.12656 0.42038 0.98336 0.0
O4 O 0.10745 0.38435 0.04808 0.0
Zn5 Zn 0.11338 0.39001 0.00127 0.0
O6 O 0.14513 0.40574 0.00023 0.0
O7 O 0.1562 0.43615 0.98093 0.0
O8 O 0.10616 0.36867 0.96945 0.0
O9 O 0.11907 0.39836 0.94588 0.0
O10 O 0.10874 0.43106 0.97227 0.0
O11 O 0.0926 0.39979 0.99014 0.0
C12 C 0.15981 0.42286 0.99207 0.0
C13 C 0.09238 0.41536 0.97999 0.0
C14 C 0.66038 0.74017 0.9475 0.0
C15 C 0.6369 0.71935 0.06101 0.0
O16 O 0.64134 0.72938 0.9502 0.0
Zn17 Zn 0.61915 0.7155 0.98753 0.0
O18 O 0.67117 0.74531 0.97343 0.0
Zn19 Zn 0.64964 0.73198 0.00564 0.0
O20 O 0.63873 0.70116 0.9951 0.0
O21 O 0.6077 0.68688 0.97624 0.0
O22 O 0.65491 0.73168 0.05273 0.0
O23 O 0.62294 0.71317 0.03936 0.0
O24 O 0.60426 0.73022 0.98491 0.0
O25 O 0.63485 0.74886 0.00409 0.0
C26 C 0.62295 0.68563 0.98472 0.0
C27 C 0.61798 0.747 0.99591 0.0
C28 C 0.29142 0.87742 0.99599 0.0
C29 C 0.3518 0.94413 0.97988 0.0
O30 O 0.28936 0.89235 0.00391 0.0
Zn31 Zn 0.30595 0.9241 0.0042 0.0
O32 O 0.30819 0.88067 0.98463 0.0
Zn33 Zn 0.3225 0.9103 0.98589 0.0
O34 O 0.32605 0.91767 0.03729 0.0
O35 O 0.30715 0.93061 0.05094 0.0
O36 O 0.35072 0.92754 0.9725 0.0
O37 O 0.33639 0.94432 0.99102 0.0
O38 O 0.29159 0.9313 0.97278 0.0
O39 O 0.30748 0.91751 0.94898 0.0
C40 C 0.32004 0.92565 0.05887 0.0
C41 C 0.29633 0.92537 0.94672 0.0
C42 C 0.42018 0.08575 0.00831 0.0
C43 C 0.42524 0.15222 0.00155 0.0
O44 O 0.40421 0.08559 0.99957 0.0
Zn45 Zn 0.39313 0.10549 0.99168 0.0
O46 O 0.43558 0.10218 0.01669 0.0
Zn47 Zn 0.42385 0.11943 0.00795 0.0
O48 O 0.40245 0.11095 0.04683 0.0
O49 O 0.37229 0.09713 0.0249 0.0
O50 O 0.43897 0.1489 0.01142 0.0
O51 O 0.40814 0.13737 0.99362 0.0
O52 O 0.38655 0.0995 0.9452 0.0
O53 O 0.41898 0.11422 0.95583 0.0
C54 C 0.38345 0.10266 0.05037 0.0
C55 C 0.40444 0.10612 0.93522 0.0
C56 C 0.93159 0.28912 0.05345 0.0
C57 C 0.92993 0.31129 0.94095 0.0
O58 O 0.92407 0.30058 0.05144 0.0
Zn59 Zn 0.91652 0.31535 0.01466 0.0
O60 O 0.9368 0.28383 0.02719 0.0
Zn61 Zn 0.92941 0.29806 0.99588 0.0
O62 O 0.9504 0.3286 0.00694 0.0
O63 O 0.93461 0.34382 0.02594 0.0
O64 O 0.93492 0.29841 0.94885 0.0
O65 O 0.92253 0.31775 0.96284 0.0
O66 O 0.88692 0.30161 0.01762 0.0
O67 O 0.89764 0.28213 0.99765 0.0
C68 C 0.95085 0.34442 0.01754 0.0
C69 C 0.8831 0.28466 0.0063 0.0
C70 C 0.72675 0.62784 0.93928 0.0
C71 C 0.74737 0.65098 0.05301 0.0
O72 O 0.72035 0.61385 0.96091 0.0
Zn73 Zn 0.72242 0.60991 0.01273 0.0
O74 O 0.73924 0.64578 0.94764 0.0
Zn75 Zn 0.73932 0.64043 0.99477 0.0
O76 O 0.75588 0.62528 0.9966 0.0
O77 O 0.7368 0.5947 0.01552 0.0
O78 O 0.75271 0.66185 0.02715 0.0
O79 O 0.73641 0.63197 0.05016 0.0
O80 O 0.6938 0.59881 0.02379 0.0
O81 O 0.70853 0.62988 0.00501 0.0
C82 C 0.75373 0.6083 0.00479 0.0
C83 C 0.69283 0.61421 0.01526 0.0
C84 C 0.95189 0.61616 0.0114 0.0
C85 C 0.88513 0.61036 0.00232 0.0
O86 O 0.93548 0.6007 0.01971 0.0
Zn87 Zn 0.91802 0.61205 0.00969 0.0
O88 O 0.9519 0.63193 0.00186 0.0
Zn89 Zn 0.93184 0.64264 0.99262 0.0
O90 O 0.93982 0.66376 0.02526 0.0
O91 O 0.92611 0.63377 0.04788 0.0
O92 O 0.89996 0.62741 0.99413 0.0
O93 O 0.8885 0.5968 0.01294 0.0
O94 O 0.92341 0.61648 0.9575 0.0
O95 O 0.938 0.64881 0.94608 0.0
C96 C 0.93422 0.65278 0.05096 0.0
C97 C 0.93148 0.63085 0.93657 0.0
C98 C 0.38303 0.28951 0.0506 0.0
C99 C 0.40647 0.3102 0.93698 0.0
O100 O 0.37223 0.28429 0.02469 0.0
Zn101 Zn 0.39373 0.29761 0.99239 0.0
O102 O 0.40207 0.30035 0.04784 0.0
Zn103 Zn 0.42423 0.31423 0.01049 0.0
O104 O 0.43556 0.34285 0.02167 0.0
O105 O 0.40453 0.32843 0.00276 0.0
O106 O 0.42042 0.31645 0.95865 0.0
O107 O 0.38847 0.29783 0.94526 0.0
O108 O 0.40863 0.28083 0.99411 0.0
O109 O 0.43921 0.29961 0.01323 0.0
C110 C 0.42027 0.34402 0.01309 0.0
C111 C 0.42554 0.28278 0.00233 0.0
C112 C 0.74903 0.10616 0.05367 0.0
C113 C 0.72583 0.10623 0.9413 0.0
O114 O 0.7541 0.10066 0.0275 0.0
Zn115 Zn 0.73959 0.10769 0.99616 0.0
O116 O 0.73758 0.11369 0.05154 0.0
Zn117 Zn 0.72246 0.12078 0.01459 0.0
O118 O 0.69425 0.10302 0.0275 0.0
O119 O 0.70914 0.08689 0.00849 0.0
O120 O 0.71936 0.11382 0.96286 0.0
O121 O 0.73892 0.10159 0.94942 0.0
O122 O 0.75559 0.13946 0.99687 0.0
O123 O 0.73623 0.1504 0.01661 0.0
C124 C 0.6935 0.08666 0.01958 0.0
C125 C 0.75311 0.15409 0.00514 0.0
C126 C 0.63995 0.92371 0.06455 0.0
C127 C 0.66125 0.92754 0.9495 0.0
O128 O 0.65786 0.93035 0.05468 0.0
Zn129 Zn 0.65142 0.92458 0.00813 0.0
O130 O 0.62546 0.91577 0.04381 0.0
Zn131 Zn 0.62075 0.91087 0.99161 0.0
O132 O 0.60547 0.88142 0.98778 0.0
O133 O 0.63621 0.8927 0.00584 0.0
O134 O 0.64225 0.91935 0.95292 0.0
O135 O 0.67235 0.93294 0.97504 0.0
O136 O 0.64056 0.94466 0.00037 0.0
O137 O 0.60924 0.92832 0.98291 0.0
C138 C 0.6191 0.87795 0.9977 0.0
C139 C 0.62468 0.94466 0.99151 0.0
C140 C 0.1123 0.72029 0.0625 0.0
C141 C 0.11162 0.74203 0.94917 0.0
O142 O 0.10578 0.73174 0.05326 0.0
Zn143 Zn 0.11303 0.733 0.00689 0.0
O144 O 0.1209 0.71459 0.04155 0.0
Zn145 Zn 0.12733 0.71678 0.98985 0.0
O146 O 0.15681 0.73117 0.98785 0.0
O147 O 0.145 0.75001 0.0067 0.0
O148 O 0.1197 0.73108 0.95185 0.0
O149 O 0.10568 0.74693 0.97504 0.0
O150 O 0.09321 0.70257 0.99401 0.0
O151 O 0.11047 0.68819 0.97841 0.0
C152 C 0.15998 0.74798 0.99881 0.0
C153 C 0.09371 0.68709 0.98423 0.0
C154 C 0.29531 0.379 0.94639 0.0
C155 C 0.31691 0.40409 0.059 0.0
O156 O 0.28989 0.36863 0.9728 0.0
Zn157 Zn 0.30377 0.39061 0.00413 0.0
O158 O 0.3066 0.39802 0.94829 0.0
Zn159 Zn 0.32111 0.42071 0.98456 0.0
O160 O 0.34959 0.431 0.97319 0.0
O161 O 0.3344 0.40036 0.99387 0.0
O162 O 0.32341 0.41769 0.03666 0.0
O163 O 0.30404 0.3861 0.05154 0.0
O164 O 0.28778 0.4063 0.0012 0.0
O165 O 0.30724 0.43637 0.9806 0.0
C166 C 0.35023 0.41561 0.98289 0.0
C167 C 0.29027 0.42327 0.99197 0.0
C168 C 0.82574 0.75091 0.33169 0.0
C169 C 0.75921 0.74575 0.32442 0.0
O170 O 0.81088 0.73377 0.33939 0.0
Zn171 Zn 0.77897 0.7187 0.34103 0.0
O172 O 0.82241 0.76466 0.32193 0.0
Zn173 Zn 0.79292 0.74948 0.32507 0.0
O174 O 0.78752 0.74442 0.37712 0.0
O175 O 0.77279 0.71196 0.38748 0.0
O176 O 0.77567 0.76121 0.31631 0.0
O177 O 0.75904 0.72975 0.33305 0.0
O178 O 0.77077 0.69801 0.30752 0.0
O179 O 0.78464 0.72827 0.28595 0.0
C180 C 0.77936 0.72981 0.39761 0.0
C181 C 0.77639 0.70929 0.28218 0.0
C182 C 0.30427 0.05408 0.39467 0.0
C183 C 0.32751 0.07467 0.28109 0.0
O184 O 0.29026 0.04784 0.3731 0.0
Zn185 Zn 0.28634 0.05001 0.32129 0.0
O186 O 0.32225 0.06642 0.38626 0.0
Zn187 Zn 0.31687 0.0666 0.33923 0.0
O188 O 0.30201 0.08342 0.3376 0.0
O189 O 0.27139 0.06466 0.31861 0.0
O190 O 0.33833 0.07988 0.30698 0.0
O191 O 0.30847 0.06384 0.28385 0.0
O192 O 0.27492 0.02136 0.31024 0.0
O193 O 0.306 0.03575 0.32891 0.0
C194 C 0.2851 0.08148 0.32946 0.0
C195 C 0.29022 0.02017 0.31868 0.0
C196 C 0.96305 0.25706 0.278 0.0
C197 C 0.98541 0.25482 0.39015 0.0
O198 O 0.97451 0.24954 0.27976 0.0
Zn199 Zn 0.9894 0.24187 0.31606 0.0
O200 O 0.9578 0.26218 0.30441 0.0
Zn201 Zn 0.97208 0.25465 0.33544 0.0
O202 O 1.00259 0.2757 0.32449 0.0
O203 O 1.01786 0.26015 0.30467 0.0
O204 O 0.97252 0.25987 0.38261 0.0
O205 O 0.99183 0.24756 0.36796 0.0
O206 O 0.97566 0.21228 0.31275 0.0
O207 O 0.95622 0.22291 0.33331 0.0
C208 C 1.01843 0.27628 0.3136 0.0
C209 C 0.95874 0.20841 0.32435 0.0
C210 C 0.08858 0.41763 0.34932 0.0
C211 C 0.09367 0.48396 0.33579 0.0
O212 O 0.07267 0.41722 0.33937 0.0
Zn213 Zn 0.0619 0.43711 0.32769 0.0
O214 O 0.1041 0.43432 0.35631 0.0
Zn215 Zn 0.09257 0.45138 0.34499 0.0
O216 O 0.07071 0.44362 0.38277 0.0
O217 O 0.0407 0.42956 0.36007 0.0
O218 O 0.10751 0.48105 0.34658 0.0
O219 O 0.07672 0.46882 0.32821 0.0
O220 O 0.0562 0.43078 0.28087 0.0
O221 O 0.08827 0.44448 0.29362 0.0
C222 C 0.05169 0.43552 0.38576 0.0
C223 C 0.07414 0.43635 0.27233 0.0
C224 C 0.59753 0.62163 0.38768 0.0
C225 C 0.5972 0.64485 0.27531 0.0
O226 O 0.59007 0.63314 0.38564 0.0
Zn227 Zn 0.58297 0.64831 0.34883 0.0
O228 O 0.60292 0.6165 0.36144 0.0
Zn229 Zn 0.59589 0.63107 0.33014 0.0
O230 O 0.61683 0.66149 0.34227 0.0
O231 O 0.60092 0.67653 0.36159 0.0
O232 O 0.60183 0.63173 0.28329 0.0
O233 O 0.58973 0.65135 0.29703 0.0
O234 O 0.55334 0.63464 0.35109 0.0
O235 O 0.56412 0.61522 0.33106 0.0
C236 C 0.6172 0.67718 0.35341 0.0
C237 C 0.54955 0.61776 0.33949 0.0
C238 C 0.39337 0.96266 0.27403 0.0
C239 C 0.41447 0.98553 0.38756 0.0
O240 O 0.38715 0.9486 0.29551 0.0
Zn241 Zn 0.3895 0.94451 0.34715 0.0
O242 O 0.40584 0.98059 0.28245 0.0
Zn243 Zn 0.40619 0.97508 0.32942 0.0
O244 O 0.42289 0.96008 0.33065 0.0
O245 O 0.40398 0.92941 0.34933 0.0
O246 O 0.41965 0.99644 0.36176 0.0
O247 O 0.40355 0.96651 0.38468 0.0
O248 O 0.36091 0.93321 0.35853 0.0
O249 O 0.37542 0.96438 0.34027 0.0
C250 C 0.42085 0.94309 0.33856 0.0
C251 C 0.35981 0.94861 0.3505 0.0
C252 C 0.60161 0.98658 0.38382 0.0
C253 C 0.5986 0.96603 0.26849 0.0
O254 O 0.60729 0.99786 0.35849 0.0
Zn255 Zn 0.59905 0.97716 0.32504 0.0
O256 O 0.5933 0.96759 0.38006 0.0
Zn257 Zn 0.58495 0.94635 0.34101 0.0
O258 O 0.6021 0.93453 0.34984 0.0
O259 O 0.61886 0.96599 0.33311 0.0
O260 O 0.59038 0.95142 0.28897 0.0
O261 O 0.60526 0.98389 0.27863 0.0
O262 O 0.56717 0.96219 0.32659 0.0
O263 O 0.55545 0.9313 0.3442 0.0
C264 C 0.6186 0.94995 0.34176 0.0
C265 C 0.55224 0.9451 0.33431 0.0
C266 C 0.08652 0.6747 0.34148 0.0
C267 C 0.09149 0.61327 0.33502 0.0
O268 O 0.10195 0.67367 0.34949 0.0
Zn269 Zn 0.09005 0.64465 0.34112 0.0
O270 O 0.07046 0.65887 0.33295 0.0
Zn271 Zn 0.05932 0.62779 0.32522 0.0
O272 O 0.03853 0.61544 0.35853 0.0
O273 O 0.06875 0.63193 0.38028 0.0
O274 O 0.07434 0.61091 0.32722 0.0
O275 O 0.10522 0.63042 0.34464 0.0
O276 O 0.08502 0.64474 0.28898 0.0
O277 O 0.05254 0.62696 0.27881 0.0
C278 C 0.04974 0.62122 0.38394 0.0
C279 C 0.07038 0.63816 0.26854 0.0
C280 C 0.35897 0.42057 0.35278 0.0
C281 C 0.41849 0.48825 0.33959 0.0
O282 O 0.35971 0.43677 0.36179 0.0
Zn283 Zn 0.38784 0.45483 0.34851 0.0
O284 O 0.37456 0.42103 0.34095 0.0
Zn285 Zn 0.4049 0.44196 0.3285 0.0
O286 O 0.41957 0.43451 0.35906 0.0
O287 O 0.40325 0.4474 0.38424 0.0
O288 O 0.4209 0.47371 0.33042 0.0
O289 O 0.40166 0.48443 0.35151 0.0
O290 O 0.38441 0.44857 0.29665 0.0
O291 O 0.4038 0.43649 0.2813 0.0
C292 C 0.41468 0.43983 0.38565 0.0
C293 C 0.39066 0.44127 0.27423 0.0
C294 C 0.32731 0.26179 0.28162 0.0
C295 C 0.30636 0.25787 0.39703 0.0
O296 O 0.3385 0.26729 0.30706 0.0
Zn297 Zn 0.31769 0.25886 0.34043 0.0
O298 O 0.30831 0.25348 0.28525 0.0
Zn299 Zn 0.28695 0.24493 0.32422 0.0
O300 O 0.27523 0.26222 0.31575 0.0
O301 O 0.3066 0.27877 0.33291 0.0
O302 O 0.29181 0.24985 0.37641 0.0
O303 O 0.32427 0.26468 0.38697 0.0
O304 O 0.30266 0.22698 0.33825 0.0
O305 O 0.27182 0.21547 0.3205 0.0
C306 C 0.29062 0.27863 0.32426 0.0
C307 C 0.28557 0.21214 0.33028 0.0
C308 C 0.82816 0.07847 0.32676 0.0
C309 C 0.76055 0.01898 0.31315 0.0
O310 O 0.82437 0.06157 0.31527 0.0
Zn311 Zn 0.79476 0.04788 0.31767 0.0
O312 O 0.81359 0.081 0.33524 0.0
Zn313 Zn 0.78182 0.06511 0.33633 0.0
O314 O 0.77593 0.06453 0.38316 0.0
O315 O 0.78803 0.04489 0.36949 0.0
O316 O 0.76089 0.03466 0.32429 0.0
O317 O 0.77684 0.01967 0.30492 0.0
O318 O 0.78763 0.06304 0.28088 0.0
O319 O 0.77473 0.07964 0.30507 0.0
C320 C 0.78057 0.05141 0.39118 0.0
C321 C 0.78015 0.07453 0.27884 0.0
C322 C 1.01785 0.74721 0.31391 0.0
C323 C 0.95683 0.75221 0.33056 0.0
O324 O 1.01654 0.76268 0.30728 0.0
Zn325 Zn 0.98825 0.7511 0.32047 0.0
O326 O 1.00257 0.73136 0.32477 0.0
Zn327 Zn 0.97208 0.72062 0.33832 0.0
O328 O 0.95802 0.69907 0.30662 0.0
O329 O 0.97364 0.72889 0.28321 0.0
O330 O 0.95505 0.7353 0.33824 0.0
O331 O 0.97352 0.76598 0.31939 0.0
O332 O 0.99188 0.74721 0.37175 0.0
O333 O 0.97341 0.71525 0.38508 0.0
C334 C 0.96275 0.70984 0.28068 0.0
C335 C 0.98606 0.73318 0.39319 0.0
C336 C 0.44708 0.06468 0.73179 0.0
C337 C 0.44363 0.04391 0.61651 0.0
O338 O 0.45513 0.07925 0.71121 0.0
Zn339 Zn 0.46023 0.0842 0.65911 0.0
O340 O 0.44039 0.0468 0.72174 0.0
Zn341 Zn 0.44635 0.05343 0.67526 0.0
O342 O 0.47824 0.06855 0.67322 0.0
O343 O 0.4897 0.0994 0.65557 0.0
O344 O 0.43807 0.03267 0.6419 0.0
O345 O 0.45187 0.06289 0.62018 0.0
O346 O 0.44285 0.09581 0.65046 0.0
O347 O 0.42637 0.06441 0.66749 0.0
C348 C 0.49307 0.08568 0.66533 0.0
C349 C 0.42645 0.08035 0.6588 0.0
C350 C 0.96857 0.38524 0.72651 0.0
C351 C 0.99206 0.40707 0.61355 0.0
O352 O 0.95464 0.37924 0.70485 0.0
Zn353 Zn 0.95083 0.38193 0.65327 0.0
O354 O 0.98657 0.39771 0.71846 0.0
Zn355 Zn 0.98135 0.39842 0.6715 0.0
O356 O 0.96646 0.41519 0.6705 0.0
O357 O 0.93589 0.39663 0.65116 0.0
O358 O 1.00285 0.41207 0.63946 0.0
O359 O 0.97302 0.39617 0.61618 0.0
O360 O 0.93958 0.35339 0.64144 0.0
O361 O 0.97065 0.36775 0.66013 0.0
C362 C 0.94959 0.41335 0.66241 0.0
C363 C 0.95493 0.35223 0.64959 0.0
C364 C 0.6252 0.54194 0.65988 0.0
C365 C 0.68473 0.6096 0.64687 0.0
O366 O 0.62266 0.55647 0.66854 0.0
Zn367 Zn 0.63859 0.58823 0.6701 0.0
O368 O 0.64215 0.54578 0.64847 0.0
Zn369 Zn 0.65584 0.57537 0.65112 0.0
O370 O 0.65885 0.58187 0.70298 0.0
O371 O 0.63921 0.59389 0.71708 0.0
O372 O 0.68405 0.59336 0.63834 0.0
O373 O 0.66904 0.60919 0.65815 0.0
O374 O 0.6241 0.59549 0.63896 0.0
O375 O 0.64068 0.58263 0.61455 0.0
C376 C 0.65233 0.58922 0.72487 0.0
C377 C 0.6292 0.59014 0.61264 0.0
C378 C 0.71664 0.7684 0.71687 0.0
C379 C 0.73794 0.77202 0.60177 0.0
O380 O 0.73565 0.7767 0.71342 0.0
Zn381 Zn 0.75713 0.78522 0.67466 0.0
O382 O 0.70552 0.76287 0.69134 0.0
Zn383 Zn 0.72645 0.77128 0.6582 0.0
O384 O 0.73751 0.75138 0.66625 0.0
O385 O 0.76885 0.76798 0.68356 0.0
O386 O 0.72001 0.76532 0.61164 0.0
O387 O 0.75243 0.78011 0.62249 0.0
O388 O 0.77224 0.81467 0.67824 0.0
O389 O 0.74145 0.80317 0.66029 0.0
C390 C 0.75347 0.75155 0.67513 0.0
C391 C 0.75852 0.81801 0.66833 0.0
C392 C 0.26526 0.95596 0.72078 0.0
C393 C 0.26513 0.97904 0.6083 0.0
O394 O 0.25758 0.96727 0.71847 0.0
Zn395 Zn 0.25039 0.98224 0.68146 0.0
O396 O 0.27093 0.95095 0.69471 0.0
Zn397 Zn 0.26376 0.9653 0.66319 0.0
O398 O 0.28435 0.99577 0.67558 0.0
O399 O 0.268 1.01049 0.69435 0.0
O400 O 0.26993 0.96606 0.6164 0.0
O401 O 0.25742 0.98537 0.62986 0.0
O402 O 0.22076 0.96823 0.68331 0.0
O403 O 0.23199 0.94903 0.66399 0.0
C404 C 0.28444 1.01135 0.68659 0.0
C405 C 0.21724 0.95135 0.67211 0.0
C406 C 0.08722 0.27538 0.67044 0.0
C407 C 0.02708 0.28277 0.6803 0.0
O408 O 0.08949 0.29224 0.66115 0.0
Zn409 Zn 0.07342 0.3078 0.65844 0.0
O410 O 0.07038 0.26222 0.68219 0.0
Zn411 Zn 0.05631 0.27773 0.67847 0.0
O412 O 0.05377 0.28055 0.62648 0.0
O413 O 0.07289 0.3121 0.6111 0.0
O414 O 0.02784 0.26747 0.69017 0.0
O415 O 0.04285 0.29799 0.66907 0.0
O416 O 0.08749 0.32988 0.68935 0.0
O417 O 0.0711 0.30058 0.71425 0.0
C418 C 0.06008 0.29403 0.60397 0.0
C419 C 0.08238 0.31961 0.71586 0.0
C420 C 0.26795 0.3204 0.7175 0.0
C421 C 0.26496 0.29879 0.60277 0.0
O422 O 0.27338 0.33134 0.69177 0.0
Zn423 Zn 0.26536 0.31033 0.65898 0.0
O424 O 0.2599 0.30139 0.7144 0.0
Zn425 Zn 0.25172 0.27978 0.67588 0.0
O426 O 0.26919 0.26838 0.68508 0.0
O427 O 0.28553 0.29964 0.66738 0.0
O428 O 0.25696 0.28435 0.6236 0.0
O429 O 0.27136 0.31669 0.61246 0.0
O430 O 0.23346 0.29497 0.6606 0.0
O431 O 0.22223 0.26437 0.67933 0.0
C432 C 0.28555 0.28381 0.67651 0.0
C433 C 0.21872 0.27786 0.6688 0.0
C434 C 0.71743 0.95605 0.71894 0.0
C435 C 0.74065 0.97696 0.60543 0.0
O436 O 0.7066 0.95099 0.69307 0.0
Zn437 Zn 0.72805 0.9643 0.66087 0.0
O438 O 0.73649 0.96677 0.71616 0.0
Zn439 Zn 0.7586 0.98058 0.67862 0.0
O440 O 0.77035 1.00921 0.68984 0.0
O441 O 0.73912 0.99512 0.67194 0.0
O442 O 0.75467 0.98301 0.62695 0.0
O443 O 0.72265 0.96475 0.61386 0.0
O444 O 0.74264 0.9472 0.66212 0.0
O445 O 0.77334 0.96572 0.68089 0.0
C446 C 0.75504 1.01057 0.68214 0.0
C447 C 0.7595 0.94896 0.67007 0.0
C448 C 0.0276 0.75333 0.6875 0.0
C449 C 0.08769 0.82016 0.67152 0.0
O450 O 0.02856 0.76992 0.69434 0.0
Zn451 Zn 0.05679 0.78712 0.68136 0.0
O452 O 0.04308 0.75314 0.67664 0.0
Zn453 Zn 0.07352 0.77355 0.66332 0.0
O454 O 0.08794 0.76643 0.69471 0.0
O455 O 0.07171 0.77984 0.71858 0.0
O456 O 0.08996 0.80536 0.66358 0.0
O457 O 0.07085 0.81671 0.68282 0.0
O458 O 0.05333 0.7797 0.62991 0.0
O459 O 0.07245 0.76696 0.61661 0.0
C460 C 0.08296 0.77208 0.72083 0.0
C461 C 0.05949 0.77177 0.60847 0.0
C462 C 0.97358 0.59089 0.73052 0.0
C463 C 0.99467 0.59455 0.61535 0.0
O464 O 0.99145 0.59742 0.72053 0.0
Zn465 Zn 0.98489 0.59163 0.67398 0.0
O466 O 0.95904 0.58299 0.70987 0.0
Zn467 Zn 0.95423 0.57804 0.65769 0.0
O468 O 0.93879 0.54863 0.65393 0.0
O469 O 0.96953 0.55971 0.67178 0.0
O470 O 0.97567 0.58644 0.61884 0.0
O471 O 1.00579 0.5999 0.64086 0.0
O472 O 0.97414 0.61183 0.66618 0.0
O473 O 0.94272 0.59547 0.64925 0.0
C474 C 0.95234 0.54503 0.66375 0.0
C475 C 0.95823 0.61183 0.65749 0.0
C476 C 0.44657 0.38465 0.72265 0.0
C477 C 0.44649 0.40771 0.61008 0.0
O478 O 0.44183 0.39766 0.71445 0.0
Zn479 Zn 0.44805 0.39837 0.66771 0.0
O480 O 0.45426 0.37826 0.70114 0.0
Zn481 Zn 0.46126 0.38134 0.64942 0.0
O482 O 0.4909 0.39521 0.64753 0.0
O483 O 0.47981 0.41446 0.6672 0.0
O484 O 0.45407 0.39631 0.61226 0.0
O485 O 0.441 0.41281 0.63625 0.0
O486 O 0.42735 0.3679 0.65542 0.0
O487 O 0.44361 0.35307 0.63679 0.0
C488 C 0.49451 0.41206 0.65904 0.0
C489 C 0.4272 0.35228 0.64452 0.0
C490 C 0.63074 0.04446 0.61315 0.0
C491 C 0.65159 0.06689 0.72696 0.0
O492 O 0.62559 0.03345 0.63882 0.0
Zn493 Zn 0.63895 0.05468 0.67137 0.0
O494 O 0.64154 0.06349 0.61624 0.0
Zn495 Zn 0.65538 0.08534 0.65413 0.0
O496 O 0.68402 0.09702 0.64297 0.0
O497 O 0.66975 0.06566 0.66022 0.0
O498 O 0.65771 0.08104 0.70567 0.0
O499 O 0.63931 0.04896 0.71828 0.0
O500 O 0.62198 0.06943 0.67056 0.0
O501 O 0.64066 0.10022 0.65225 0.0
C502 C 0.68526 0.0816 0.65025 0.0
C503 C 0.62385 0.08638 0.66293 0.0
H504 H 0.96614 0.36567 0.9617 0.0
H505 H 0.07716 0.4226 0.03485 0.0
H506 H 0.97983 0.36434 0.06448 0.0
H507 H 0.06332 0.40499 0.93295 0.0
H508 H 0.04175 0.41103 0.04538 0.0
H509 H 1.00146 0.38963 0.95092 0.0
C510 C 0.97649 0.37111 0.98227 0.0
C511 C 0.97002 0.36335 0.01413 0.0
C512 C 0.04651 0.41024 0.02049 0.0
C513 C 1.01063 0.39029 0.00185 0.0
C514 C 0.06676 0.41709 0.01437 0.0
C515 C 0.07321 0.41513 0.98285 0.0
C516 C 0.03254 0.40127 0.99487 0.0
C517 C 0.05901 0.4072 0.9574 0.0
C518 C 0.99669 0.38458 0.97603 0.0
C519 C 0.98415 0.37033 0.03972 0.0
N520 N 0.0393 0.40041 0.96401 0.0
N521 N 1.00385 0.38328 0.03299 0.0
H522 H 0.67027 0.61763 0.06457 0.0
H523 H 0.62643 0.66325 0.93521 0.0
H524 H 0.67374 0.61304 0.95896 0.0
H525 H 0.62108 0.666 0.04078 0.0
H526 H 0.637 0.63833 0.94301 0.0
H527 H 0.64569 0.62863 0.05661 0.0
C528 C 0.66519 0.61812 0.0398 0.0
C529 C 0.67375 0.61413 0.01239 0.0
C530 C 0.63293 0.64392 0.96448 0.0
C531 C 0.64637 0.6275 0.00284 0.0
C532 C 0.62666 0.65795 0.95992 0.0
C533 C 0.62258 0.6664 0.98737 0.0
C534 C 0.63547 0.63863 0.99676 0.0
C535 C 0.62379 0.65957 0.01898 0.0
C536 C 0.65135 0.62464 0.03516 0.0
C537 C 0.66722 0.61568 0.98072 0.0
N538 N 0.63038 0.64634 0.02286 0.0
N539 N 0.65417 0.62249 0.97677 0.0
H540 H 0.4211 0.06051 0.05537 0.0
H541 H 0.36908 0.97016 0.92846 0.0
H542 H 0.41796 0.06772 0.95034 0.0
H543 H 0.37583 0.96249 0.03214 0.0
H544 H 0.39321 1.00602 0.93405 0.0
H545 H 0.41094 0.02516 0.04619 0.0
C546 C 0.41906 0.05482 0.03032 0.0
C547 C 0.42057 0.067 0.00354 0.0
C548 C 0.38992 0.99644 0.95545 0.0
C549 C 0.40823 0.02655 0.9928 0.0
C550 C 0.37633 0.97591 0.95208 0.0
C551 C 0.37079 0.96335 0.97974 0.0
C552 C 0.39761 1.00449 0.98692 0.0
C553 C 0.38002 0.97167 0.01012 0.0
C554 C 0.41304 0.0346 0.02503 0.0
C555 C 0.41715 0.0588 0.9716 0.0
N556 N 0.39271 0.99172 0.01304 0.0
N557 N 0.41089 0.03908 0.96715 0.0
H558 H 0.07877 0.65714 0.02978 0.0
H559 H 0.97699 0.61646 0.05993 0.0
H560 H 0.0644 0.67557 0.93835 0.0
H561 H 0.97062 0.61811 0.9544 0.0
H562 H 1.0126 0.62763 0.05225 0.0
H563 H 0.04321 0.63235 0.0374 0.0
C564 C 0.06817 0.65537 0.01067 0.0
C565 C 0.07449 0.66811 0.98308 0.0
C566 C 1.00333 0.62475 0.0306 0.0
C567 C 0.03368 0.64067 0.99243 0.0
C568 C 0.98292 0.61825 0.03509 0.0
C569 C 0.97086 0.61607 0.00773 0.0
C570 C 1.01166 0.62931 0.99851 0.0
C571 C 0.97942 0.61936 0.97609 0.0
C572 C 0.04779 0.64154 0.01538 0.0
C573 C 0.06014 0.66576 0.95962 0.0
N574 N 0.99929 0.62611 0.97239 0.0
N575 N 0.04043 0.65244 0.96493 0.0
H576 H 0.41703 0.36644 0.06275 0.0
H577 H 0.37391 0.41352 0.93399 0.0
H578 H 0.42166 0.36348 0.95706 0.0
H579 H 0.36788 0.41478 0.03968 0.0
H580 H 0.39847 0.40244 0.94199 0.0
H581 H 0.40632 0.39128 0.05529 0.0
C582 C 0.4166 0.37167 0.03808 0.0
C583 C 0.42052 0.36319 0.01049 0.0
C584 C 0.39222 0.4057 0.96348 0.0
C585 C 0.4075 0.39088 0.00151 0.0
C586 C 0.37839 0.41225 0.95884 0.0
C587 C 0.36911 0.41529 0.98623 0.0
C588 C 0.39653 0.40197 0.99573 0.0
C589 C 0.37492 0.41282 0.01796 0.0
C590 C 0.41025 0.38566 0.03371 0.0
C591 C 0.41907 0.36994 0.97894 0.0
N592 N 0.38803 0.40609 0.02185 0.0
N593 N 0.41244 0.38315 0.97526 0.0
H594 H 0.62379 0.96974 0.94415 0.0
H595 H 0.67479 0.0608 0.07086 0.0
H596 H 0.62728 0.96308 0.04926 0.0
H597 H 0.67118 0.06786 0.96598 0.0
H598 H 0.65064 0.02491 0.06512 0.0
H599 H 0.63419 1.00519 0.95279 0.0
C600 C 0.62597 0.97557 0.96911 0.0
C601 C 0.62449 0.96352 0.99606 0.0
C602 C 0.65465 0.03438 0.04344 0.0
C603 C 0.63707 1.00408 0.0062 0.0
C604 C 0.66824 0.05491 0.04686 0.0
C605 C 0.67466 0.06729 0.01894 0.0
C606 C 0.64778 0.02617 0.01174 0.0
C607 C 0.66631 0.05882 0.98816 0.0
C608 C 0.63213 0.99585 0.97409 0.0
C609 C 0.62808 0.97191 0.02788 0.0
N610 N 0.65354 0.03878 0.98529 0.0
N611 N 0.63443 0.99168 0.03203 0.0
H612 H 0.73398 0.74604 0.27682 0.0
H613 H 0.6432 0.69637 0.40437 0.0
H614 H 0.741 0.74389 0.3821 0.0
H615 H 0.63596 0.69892 0.2993 0.0
H616 H 0.6791 0.72045 0.39819 0.0
H617 H 0.69855 0.73568 0.2855 0.0
C618 C 0.72823 0.74417 0.3018 0.0
C619 C 0.74039 0.74604 0.32881 0.0
C620 C 0.66959 0.71622 0.37655 0.0
C621 C 0.69983 0.73347 0.33902 0.0
C622 C 0.64906 0.70267 0.38022 0.0
C623 C 0.63662 0.69597 0.35238 0.0
C624 C 0.67774 0.72278 0.34471 0.0
C625 C 0.64504 0.70401 0.32142 0.0
C626 C 0.70796 0.73803 0.30681 0.0
C627 C 0.73209 0.74282 0.36068 0.0
N628 N 0.66507 0.71675 0.31833 0.0
N629 N 0.71232 0.73646 0.36488 0.0
H630 H 0.33854 0.95371 0.40005 0.0
H631 H 0.29372 0.9975 0.26967 0.0
H632 H 0.33938 0.94566 0.29486 0.0
H633 H 0.28831 1.00086 0.3751 0.0
H634 H 0.30421 0.97256 0.27816 0.0
H635 H 0.31406 0.96481 0.39201 0.0
C636 C 0.33289 0.95346 0.37543 0.0
C637 C 0.34067 0.94844 0.34812 0.0
C638 C 0.30014 0.97828 0.29945 0.0
C639 C 0.31345 0.962 0.33838 0.0
C640 C 0.29392 0.99233 0.2945 0.0
C641 C 0.28984 1.00095 0.32171 0.0
C642 C 0.30265 0.97317 0.33189 0.0
C643 C 0.29102 0.9943 0.35348 0.0
C644 C 0.31911 0.96003 0.37071 0.0
C645 C 0.33345 0.94908 0.31657 0.0
N646 N 0.29757 0.98106 0.35774 0.0
N647 N 0.32051 0.95603 0.31249 0.0
H648 H 0.03835 0.29184 0.37031 0.0
H649 H 0.09778 0.40253 0.29622 0.0
H650 H 0.03968 0.30495 0.26662 0.0
H651 H 0.07719 0.38881 0.39686 0.0
H652 H 0.08639 0.36707 0.28652 0.0
H653 H 0.06233 0.32711 0.38108 0.0
C654 C 0.04437 0.30205 0.34961 0.0
C655 C 0.03734 0.29543 0.31747 0.0
C656 C 0.08493 0.37189 0.31101 0.0
C657 C 0.06431 0.33602 0.32969 0.0
C658 C 0.09167 0.39216 0.31669 0.0
C659 C 0.08879 0.39865 0.34757 0.0
C660 C 0.07519 0.35796 0.33645 0.0
C661 C 0.08012 0.38449 0.37294 0.0
C662 C 0.05787 0.32223 0.35583 0.0
C663 C 0.04508 0.3094 0.29164 0.0
N664 N 0.07349 0.36478 0.36677 0.0
N665 N 0.05802 0.32911 0.29834 0.0
H666 H 0.64381 0.94993 0.38961 0.0
H667 H 0.73464 0.99944 0.2622 0.0
H668 H 0.6368 0.95146 0.28422 0.0
H669 H 0.74178 0.99748 0.36743 0.0
H670 H 0.69878 0.97519 0.26838 0.0
H671 H 0.67927 0.9604 0.38112 0.0
C672 C 0.64957 0.95167 0.36465 0.0
C673 C 0.6374 0.9496 0.33755 0.0
C674 C 0.70827 0.97959 0.29006 0.0
C675 C 0.678 0.96232 0.32755 0.0
C676 C 0.72878 0.99324 0.2864 0.0
C677 C 0.74117 1.00015 0.31428 0.0
C678 C 0.7001 0.97313 0.32192 0.0
C679 C 0.73274 0.99223 0.34529 0.0
C680 C 0.66986 0.95789 0.35975 0.0
C681 C 0.64571 0.95268 0.30571 0.0
N682 N 0.71273 0.97938 0.34835 0.0
N683 N 0.66551 0.95913 0.3016 0.0
H684 H 0.04465 0.75733 0.3636 0.0
H685 H 0.08704 0.69156 0.28315 0.0
H686 H 0.03259 0.73456 0.26406 0.0
H687 H 0.08479 0.69974 0.38809 0.0
H688 H 0.07685 0.71644 0.27323 0.0
H689 H 0.06869 0.74558 0.36974 0.0
C690 C 0.04777 0.75066 0.34253 0.0
C691 C 0.03694 0.74724 0.31306 0.0
C692 C 0.07912 0.71327 0.29844 0.0
C693 C 0.0639 0.73316 0.32019 0.0
C694 C 0.08516 0.69925 0.3041 0.0
C695 C 0.08705 0.69387 0.33647 0.0
C696 C 0.07463 0.72183 0.32538 0.0
C697 C 0.08386 0.70378 0.36279 0.0
C698 C 0.06129 0.74372 0.34619 0.0
C699 C 0.04098 0.73788 0.2869 0.0
N700 N 0.07755 0.71712 0.35669 0.0
N701 N 0.05398 0.73099 0.29117 0.0
H702 H 0.33934 0.39479 0.4039 0.0
H703 H 0.28962 0.30361 0.27686 0.0
H704 H 0.33761 0.40162 0.29853 0.0
H705 H 0.29307 0.29703 0.382 0.0
H706 H 0.29985 0.33901 0.28544 0.0
H707 H 0.31526 0.35887 0.39792 0.0
C708 C 0.33322 0.38885 0.3797 0.0
C709 C 0.34016 0.40116 0.35173 0.0
C710 C 0.29782 0.3297 0.30676 0.0
C711 C 0.31333 0.36004 0.34433 0.0
C712 C 0.29175 0.30944 0.30182 0.0
C713 C 0.29031 0.29743 0.32879 0.0
C714 C 0.30269 0.33794 0.33885 0.0
C715 C 0.29383 0.30583 0.3606 0.0
C716 C 0.31967 0.3683 0.37616 0.0
C717 C 0.33234 0.39263 0.32074 0.0
N718 N 0.30009 0.32558 0.36472 0.0
N719 N 0.31957 0.3726 0.3178 0.0
H720 H 0.31027 0.02989 0.73793 0.0
H721 H 0.40134 0.08105 0.61132 0.0
H722 H 0.3032 0.03395 0.63317 0.0
H723 H 0.40804 0.07795 0.7165 0.0
H724 H 0.36587 0.07061 0.61993 0.0
H725 H 0.34615 0.05408 0.73225 0.0
C726 C 0.31616 0.03655 0.71398 0.0
C727 C 0.30377 0.03025 0.68607 0.0
C728 C 0.37522 0.07277 0.64124 0.0
C729 C 0.34489 0.05717 0.67892 0.0
C730 C 0.39551 0.07896 0.63629 0.0
C731 C 0.40759 0.08057 0.66328 0.0
C732 C 0.367 0.06792 0.67337 0.0
C733 C 0.3992 0.07707 0.69509 0.0
C734 C 0.33668 0.05017 0.71059 0.0
C735 C 0.31224 0.03874 0.65535 0.0
N736 N 0.37942 0.07067 0.69923 0.0
N737 N 0.33228 0.05152 0.65249 0.0
H738 H 0.96035 0.33157 0.59945 0.0
H739 H 1.00247 0.2839 0.72864 0.0
H740 H 0.95185 0.33124 0.70468 0.0
H741 H 1.01008 0.28407 0.62315 0.0
H742 H 0.97746 0.29437 0.72005 0.0
H743 H 0.97177 0.30729 0.6067 0.0
C744 C 0.96006 0.3257 0.6239 0.0
C745 C 0.95483 0.3331 0.65144 0.0
C746 C 0.98417 0.29155 0.69871 0.0
C747 C 0.96876 0.30612 0.66033 0.0
C748 C 0.99827 0.28536 0.70368 0.0
C749 C 1.00812 0.2829 0.67653 0.0
C750 C 0.98015 0.29548 0.66639 0.0
C751 C 1.00262 0.28557 0.64469 0.0
C752 C 0.96684 0.31205 0.62818 0.0
C753 C 0.95543 0.3256 0.68279 0.0
N754 N 0.98923 0.29193 0.6405 0.0
N755 N 0.96256 0.31278 0.68646 0.0
H756 H 0.75387 0.7265 0.72295 0.0
H757 H 0.70463 0.63538 0.59589 0.0
H758 H 0.75158 0.73319 0.6176 0.0
H759 H 0.70584 0.62851 0.70133 0.0
H760 H 0.72882 0.67126 0.60197 0.0
H761 H 0.74352 0.69105 0.7146 0.0
C762 C 0.75198 0.72067 0.69802 0.0
C763 C 0.75379 0.73274 0.6709 0.0
C764 C 0.72427 0.66183 0.62374 0.0
C765 C 0.74124 0.69217 0.66107 0.0
C766 C 0.71065 0.6413 0.62013 0.0
C767 C 0.70354 0.62899 0.6481 0.0
C768 C 0.7305 0.67007 0.6556 0.0
C769 C 0.71124 0.6375 0.67914 0.0
C770 C 0.74583 0.7004 0.6932 0.0
C771 C 0.75054 0.72435 0.63911 0.0
N772 N 0.72408 0.65751 0.68213 0.0
N773 N 0.74419 0.70457 0.63509 0.0
H774 H 0.40064 0.33406 0.59402 0.0
H775 H 0.31137 0.28407 0.72358 0.0
H776 H 0.40921 0.32943 0.69807 0.0
H777 H 0.30314 0.28516 0.61844 0.0
H778 H 0.34671 0.29436 0.71388 0.0
H779 H 0.36481 0.31002 0.60086 0.0
C780 C 0.39508 0.3273 0.61802 0.0
C781 C 0.40788 0.33339 0.64541 0.0
C782 C 0.33705 0.29179 0.69284 0.0
C783 C 0.36682 0.30667 0.65396 0.0
C784 C 0.31683 0.2857 0.69843 0.0
C785 C 0.30436 0.28355 0.67174 0.0
C786 C 0.3448 0.29604 0.66038 0.0
C787 C 0.31229 0.28646 0.63964 0.0
C788 C 0.37459 0.31376 0.6221 0.0
C789 C 0.39984 0.32479 0.67627 0.0
N790 N 0.33201 0.2928 0.63487 0.0
N791 N 0.37982 0.31212 0.67983 0.0
H792 H 0.76184 0.03279 0.62723 0.0
H793 H 0.70805 0.08884 0.70463 0.0
H794 H 0.74686 0.03042 0.73029 0.0
H795 H 0.70434 0.07256 0.60201 0.0
H796 H 0.73228 0.07766 0.7138 0.0
H797 H 0.75108 0.05732 0.6179 0.0
C798 C 0.75711 0.03814 0.64818 0.0
C799 C 0.7556 0.02989 0.67968 0.0
C800 C 0.72668 0.07712 0.68904 0.0
C801 C 0.74262 0.05746 0.66906 0.0
C802 C 0.71305 0.08375 0.68371 0.0
C803 C 0.70451 0.08198 0.65239 0.0
C804 C 0.73174 0.06854 0.66285 0.0
C805 C 0.71094 0.07459 0.62634 0.0
C806 C 0.75073 0.05194 0.64276 0.0
C807 C 0.74868 0.03677 0.7058 0.0
N808 N 0.72404 0.06796 0.6322 0.0
N809 N 0.74226 0.05003 0.69986 0.0
H810 H 1.00106 0.73681 0.63742 0.0
H811 H 0.95769 0.62799 0.71601 0.0
H812 H 1.01291 0.72544 0.73663 0.0
H813 H 0.96052 0.63899 0.61122 0.0
H814 H 0.96825 0.66313 0.72645 0.0
H815 H 0.97699 0.70102 0.63059 0.0
C816 C 0.9979 0.72686 0.65826 0.0
C817 C 1.00865 0.73408 0.68785 0.0
C818 C 0.96603 0.6578 0.70116 0.0
C819 C 0.98165 0.69307 0.67996 0.0
C820 C 0.95977 0.6377 0.6952 0.0
C821 C 0.95794 0.63058 0.66272 0.0
C822 C 0.97077 0.67101 0.67441 0.0
C823 C 0.9614 0.64385 0.6366 0.0
C824 C 0.98437 0.70641 0.65422 0.0
C825 C 1.00458 0.72051 0.71371 0.0
N826 N 0.9679 0.66353 0.64299 0.0
N827 N 0.99153 0.70063 0.70908 0.0
H828 H 0.28431 0.45219 0.96134 0.0
H829 H 0.17178 0.40196 0.03032 0.0
H830 H 0.25639 0.40192 0.0281 0.0
H831 H 0.19505 0.4511 0.96119 0.0
H832 H 0.20432 0.40448 0.03249 0.0
H833 H 0.25362 0.45466 0.9633 0.0
C834 C 0.27188 0.44183 0.97664 0.0
C835 C 0.27294 0.42672 0.99438 0.0
C836 C 0.20251 0.41485 0.01686 0.0
C837 C 0.23789 0.42946 0.99672 0.0
C838 C 0.18381 0.41341 0.01562 0.0
C839 C 0.18052 0.42623 0.99533 0.0
C840 C 0.21833 0.42912 0.99744 0.0
C841 C 0.19688 0.44089 0.97718 0.0
C842 C 0.25436 0.44321 0.97765 0.0
C843 C 0.25632 0.4137 0.01369 0.0
N844 N 0.21506 0.44183 0.9784 0.0
N845 N 0.23963 0.41535 0.01421 0.0
H846 H 0.64111 0.78077 0.03119 0.0
H847 H 0.58866 0.84252 0.97082 0.0
H848 H 0.58913 0.75412 0.96794 0.0
H849 H 0.64269 0.8662 0.02888 0.0
H850 H 0.58617 0.80937 0.97211 0.0
H851 H 0.63936 0.81118 0.0336 0.0
C852 C 0.62922 0.78125 0.0178 0.0
C853 C 0.61535 0.76479 0.99909 0.0
C854 C 0.59847 0.82185 0.98467 0.0
C855 C 0.6133 0.80015 0.00158 0.0
C856 C 0.59988 0.84076 0.98403 0.0
C857 C 0.61599 0.85728 -0.00041 0.0
C858 C 0.61321 0.81949 0.00117 0.0
C859 C 0.63008 0.85407 0.01626 0.0
C860 C 0.62822 0.79875 0.01919 0.0
C861 C 0.60016 0.76643 0.98264 0.0
N862 N 0.62837 0.8357 0.01651 0.0
N863 N 0.59963 0.78387 0.98404 0.0
H864 H 0.17121 0.78251 0.03249 0.0
H865 H 0.28513 0.84151 0.96916 0.0
H866 H 0.19569 0.75397 0.97172 0.0
H867 H 0.25717 0.86643 0.03033 0.0
H868 H 0.25403 0.80874 0.97197 0.0
H869 H 0.20386 0.81255 0.03425 0.0
C870 C 0.1835 0.7825 0.01955 0.0
C871 C 0.18055 0.76562 0.00174 0.0
C872 C 0.25484 0.8214 0.98493 0.0
C873 C 0.21846 0.80049 0.00345 0.0
C874 C 0.2726 0.84009 0.98343 0.0
C875 C 0.27379 0.85687 0.99933 0.0
C876 C 0.23823 0.8195 0.00255 0.0
C877 C 0.25702 0.85408 0.01737 0.0
C878 C 0.20226 0.79977 0.02057 0.0
C879 C 0.19724 0.76662 0.98576 0.0
N880 N 0.24006 0.83592 0.01834 0.0
N881 N 0.21546 0.78382 0.98675 0.0
H882 H 0.40235 0.2488 0.96755 0.0
H883 H 0.45565 0.18785 0.02791 0.0
H884 H 0.45461 0.27596 0.03016 0.0
H885 H 0.40133 0.16362 0.97054 0.0
H886 H 0.45792 0.22089 0.02638 0.0
H887 H 0.40428 0.21848 0.9654 0.0
C888 C 0.41434 0.24844 0.98086 0.0
C889 C 0.42824 0.26503 0.99931 0.0
C890 C 0.4456 0.20831 0.01402 0.0
C891 C 0.43049 0.22977 0.9971 0.0
C892 C 0.44432 0.18947 0.01479 0.0
C893 C 0.4282 0.17282 0.9995 0.0
C894 C 0.43072 0.2105 0.99765 0.0
C895 C 0.41395 0.17586 0.98295 0.0
C896 C 0.41544 0.231 0.97961 0.0
C897 C 0.44355 0.26356 0.01565 0.0
N898 N 0.41554 0.19418 0.98257 0.0
N899 N 0.44419 0.24616 0.01439 0.0
H900 H 0.84801 0.27859 0.03638 0.0
H901 H 0.78602 0.16626 0.96666 0.0
H902 H 0.87074 0.25099 0.96973 0.0
H903 H 0.75999 0.18922 0.03605 0.0
H904 H 0.816 0.19888 0.96454 0.0
H905 H 0.81485 0.24789 0.03397 0.0
C906 C 0.84602 0.26624 0.02099 0.0
C907 C 0.8623 0.26738 0.00343 0.0
C908 C 0.8038 0.19698 0.9802 0.0
C909 C 0.82451 0.23231 0.00059 0.0
C910 C 0.78654 0.17823 0.98142 0.0
C911 C 0.77041 0.17484 0.00178 0.0
C912 C 0.80527 0.21272 -0.00026 0.0
C913 C 0.77203 0.19113 0.02002 0.0
C914 C 0.8271 0.2487 0.01974 0.0
C915 C 0.85881 0.25085 0.98399 0.0
N916 N 0.78927 0.20935 0.01883 0.0
N917 N 0.84045 0.23414 0.98324 0.0
H918 H 0.87359 0.63307 0.96796 0.0
H919 H 0.75992 0.5788 0.03246 0.0
H920 H 0.84961 0.58093 0.03073 0.0
H921 H 0.78811 0.63147 0.97083 0.0
H922 H 0.79099 0.57706 0.03004 0.0
H923 H 0.84098 0.63042 0.96644 0.0
C924 C 0.86141 0.62096 0.98142 0.0
C925 C 0.86451 0.6073 -0.00029 0.0
C926 C 0.79024 0.58888 0.01692 0.0
C927 C 0.8266 0.6042 0.99827 0.0
C928 C 0.7725 0.58985 0.0182 0.0
C929 C 0.77138 0.60539 0.00203 0.0
C930 C 0.80688 0.60351 0.9992 0.0
C931 C 0.7882 0.61931 0.984 0.0
C932 C 0.84267 0.61944 0.98053 0.0
C933 C 0.84794 0.59181 0.01632 0.0
N934 N 0.80511 0.61805 0.98321 0.0
N935 N 0.82972 0.59077 0.01544 0.0
H936 H 0.86144 0.78172 0.30627 0.0
H937 H 0.92281 0.72852 0.3651 0.0
H938 H 0.83714 0.72677 0.36198 0.0
H939 H 0.94983 0.78138 0.30382 0.0
H940 H 0.8923 0.73015 0.36747 0.0
H941 H 0.89457 0.78419 0.30795 0.0
C942 C 0.86306 0.77029 0.31905 0.0
C943 C 0.84637 0.75394 0.33383 0.0
C944 C 0.90484 0.74151 0.35353 0.0
C945 C 0.88417 0.7567 0.33587 0.0
C946 C 0.92239 0.74059 0.35217 0.0
C947 C 0.93899 0.75475 0.33401 0.0
C948 C 0.90353 0.75664 0.33643 0.0
C949 C 0.93742 0.77013 0.31811 0.0
C950 C 0.88196 0.77169 0.31992 0.0
C951 C 0.84942 0.73958 0.34997 0.0
N952 N 0.91994 0.77059 0.31946 0.0
N953 N 0.86779 0.74129 0.35046 0.0
H954 H 0.2551 0.17651 0.30399 0.0
H955 H 0.30837 0.11549 0.36413 0.0
H956 H 0.30953 0.20072 0.36107 0.0
H957 H 0.25602 0.08833 0.30172 0.0
H958 H 0.30649 0.14584 0.36626 0.0
H959 H 0.2528 0.14345 0.3055 0.0
C960 C 0.26644 0.17489 0.31703 0.0
C961 C 0.2826 0.19153 0.33225 0.0
C962 C 0.29531 0.13331 0.3521 0.0
C963 C 0.28005 0.15383 0.33408 0.0
C964 C 0.29637 0.11585 0.35086 0.0
C965 C 0.28243 0.09926 0.33247 0.0
C966 C 0.28024 0.13455 0.33465 0.0
C967 C 0.26711 0.10074 0.31618 0.0
C968 C 0.26515 0.15603 0.31779 0.0
C969 C 0.29687 0.18849 0.34871 0.0
N970 N 0.2665 0.11815 0.31742 0.0
N971 N 0.29526 0.17016 0.34909 0.0
H972 H 0.84058 0.11129 0.36547 0.0
H973 H 0.95247 0.1734 0.29372 0.0
H974 H 0.86309 0.08533 0.29506 0.0
H975 H 0.92532 0.19596 0.36168 0.0
H976 H 0.92179 0.14021 0.29638 0.0
H977 H 0.87324 0.14126 0.36723 0.0
C978 C 0.85247 0.11183 0.35042 0.0
C979 C 0.84894 0.09572 0.32988 0.0
C980 C 0.9227 0.15245 0.31085 0.0
C981 C 0.88685 0.13057 0.3315 0.0
C982 C 0.94022 0.17136 0.30944 0.0
C983 C 0.94148 0.1876 0.3273 0.0
C984 C 0.90644 0.14979 0.33043 0.0
C985 C 0.92508 0.18406 0.34716 0.0
C986 C 0.87123 0.12907 0.35142 0.0
C987 C 0.86512 0.09737 0.31126 0.0
N988 N 0.90838 0.1657 0.34805 0.0
N989 N 0.88335 0.11458 0.31224 0.0
H990 H 0.07014 0.49421 0.30089 0.0
H991 H 0.12246 0.60871 0.36037 0.0
H992 H 0.12258 0.52017 0.36312 0.0
H993 H 0.06737 0.57751 0.30515 0.0
H994 H 0.12519 0.57821 0.35868 0.0
H995 H 0.07155 0.52623 0.29873 0.0
C996 C 0.08207 0.5067 0.31408 0.0
C997 C 0.09617 0.50433 0.33246 0.0
C998 C 0.11259 0.57816 0.34684 0.0
C999 C 0.0978 0.54155 0.33028 0.0
C1000 C 0.11104 0.59557 0.34771 0.0
C1001 C 0.09459 0.59571 0.33304 0.0
C1002 C 0.09766 0.56086 0.33097 0.0
C1003 C 0.08025 0.57819 0.31705 0.0
C1004 C 0.08286 0.5251 0.31285 0.0
C1005 C 0.11138 0.52128 0.34867 0.0
N1006 N 0.08212 0.56162 0.31653 0.0
N1007 N 0.11171 0.53916 0.34743 0.0
H1008 H 0.53721 0.58499 0.30067 0.0
H1009 H 0.4249 0.52318 0.37068 0.0
H1010 H 0.51448 0.61097 0.37062 0.0
H1011 H 0.45194 0.50072 0.30227 0.0
H1012 H 0.45573 0.55624 0.3686 0.0
H1013 H 0.50447 0.55514 0.2983 0.0
C1014 C 0.52526 0.58448 0.3155 0.0
C1015 C 0.52875 0.60056 0.33609 0.0
C1016 C 0.45477 0.54407 0.35389 0.0
C1017 C 0.49073 0.56586 0.33373 0.0
C1018 C 0.43716 0.52522 0.35496 0.0
C1019 C 0.43582 0.50903 0.33682 0.0
C1020 C 0.47105 0.54672 0.33438 0.0
C1021 C 0.45223 0.51259 0.31699 0.0
C1022 C 0.50645 0.56732 0.31414 0.0
C1023 C 0.51249 0.59895 0.3544 0.0
N1024 N 0.46903 0.53088 0.31644 0.0
N1025 N 0.49421 0.58181 0.35306 0.0
H1026 H 0.42702 0.91329 0.36489 0.0
H1027 H 0.54102 0.96871 0.30195 0.0
H1028 H 0.45538 0.96682 0.30528 0.0
H1029 H 0.51656 0.9152 0.36147 0.0
H1030 H 0.50845 0.96618 0.30086 0.0
H1031 H 0.45813 0.91165 0.36203 0.0
C1032 C 0.43964 0.92455 0.35099 0.0
C1033 C 0.43855 0.9403 0.33551 0.0
C1034 C 0.51003 0.95487 0.31414 0.0
C1035 C 0.4741 0.93853 0.3322 0.0
C1036 C 0.52875 0.95632 0.31479 0.0
C1037 C 0.53168 0.94223 0.33203 0.0
C1038 C 0.49383 0.93926 0.33107 0.0
C1039 C 0.51501 0.92642 0.34787 0.0
C1040 C 0.45741 0.92364 0.34945 0.0
C1041 C 0.45544 0.95449 0.31792 0.0
N1042 N 0.49681 0.92543 0.34725 0.0
N1043 N 0.47237 0.95328 0.31688 0.0
H1044 H 0.58977 0.06267 0.6972 0.0
H1045 H 0.52867 0.11627 0.63917 0.0
H1046 H 0.61699 0.11568 0.6363 0.0
H1047 H 0.50455 0.06167 0.6958 0.0
H1048 H 0.56175 0.11859 0.64039 0.0
H1049 H 0.55937 0.06447 0.6998 0.0
C1050 C 0.58941 0.0748 0.68438 0.0
C1051 C 0.60603 0.08896 0.66627 0.0
C1052 C 0.54919 0.1062 0.65266 0.0
C1053 C 0.5707 0.09106 0.66899 0.0
C1054 C 0.53032 0.10489 0.65206 0.0
C1055 C 0.51369 0.08868 0.66723 0.0
C1056 C 0.55141 0.09125 0.66871 0.0
C1057 C 0.51677 0.07437 0.68349 0.0
C1058 C 0.57192 0.07582 0.68588 0.0
C1059 C 0.60455 0.10443 0.65053 0.0
N1060 N 0.5351 0.07599 0.6837 0.0
N1061 N 0.58713 0.10499 0.65203 0.0
H1062 H 0.97233 0.44666 0.69893 0.0
H1063 H 0.92161 0.50975 0.63708 0.0
H1064 H 0.92126 0.42096 0.63369 0.0
H1065 H 0.97569 0.53296 0.69487 0.0
H1066 H 0.91862 0.47639 0.63864 0.0
H1067 H 0.97094 0.47727 0.70129 0.0
C1068 C 0.9607 0.4474 0.68511 0.0
C1069 C 0.947 0.43115 0.66583 0.0
C1070 C 0.93105 0.48882 0.65108 0.0
C1071 C 0.94539 0.46674 0.66823 0.0
C1072 C 0.93274 0.50784 0.65029 0.0
C1073 C 0.94901 0.52429 0.6657 0.0
C1074 C 0.94564 0.48624 0.66762 0.0
C1075 C 0.96298 0.52088 0.68237 0.0
C1076 C 0.95992 0.46501 0.68646 0.0
C1077 C 0.93215 0.43309 0.64885 0.0
N1078 N 0.96097 0.50239 0.6828 0.0
N1079 N 0.93183 0.45065 0.65021 0.0
H1080 H 0.61921 0.50695 0.6296 0.0
H1081 H 0.50641 0.44494 0.69742 0.0
H1082 H 0.59142 0.52949 0.69627 0.0
H1083 H 0.52985 0.41897 0.62878 0.0
H1084 H 0.53904 0.4749 0.70009 0.0
H1085 H 0.58846 0.47382 0.63151 0.0
C1086 C 0.6068 0.50492 0.6449 0.0
C1087 C 0.60791 0.52114 0.66261 0.0
C1088 C 0.53724 0.4627 0.68447 0.0
C1089 C 0.57277 0.48338 0.66485 0.0
C1090 C 0.51849 0.44548 0.68294 0.0
C1091 C 0.51523 0.42936 0.66263 0.0
C1092 C 0.55314 0.46419 0.66533 0.0
C1093 C 0.53166 0.43101 0.64477 0.0
C1094 C 0.58924 0.48603 0.64587 0.0
C1095 C 0.59131 0.51759 0.68191 0.0
N1096 N 0.54988 0.44821 0.64627 0.0
N1097 N 0.57456 0.49926 0.68237 0.0
H1098 H 0.73566 0.9148 0.63609 0.0
H1099 H 0.78915 0.85363 0.69431 0.0
H1100 H 0.78871 0.942 0.69687 0.0
H1101 H 0.73442 0.82945 0.63807 0.0
H1102 H 0.79149 0.8867 0.69302 0.0
H1103 H 0.73734 0.88434 0.63373 0.0
C1104 C 0.74778 0.91443 0.64894 0.0
C1105 C 0.76198 0.93107 0.66694 0.0
C1106 C 0.77906 0.87413 0.68085 0.0
C1107 C 0.76395 0.89566 0.66449 0.0
C1108 C 0.77774 0.85527 0.6815 0.0
C1109 C 0.76149 0.83862 0.66644 0.0
C1110 C 0.76409 0.87635 0.66487 0.0
C1111 C 0.74714 0.84168 0.65028 0.0
C1112 C 0.74873 0.8969 0.64758 0.0
C1113 C 0.77742 0.92956 0.68273 0.0
N1114 N 0.74878 0.86002 0.65002 0.0
N1115 N 0.77792 0.9121 0.68135 0.0
H1116 H 0.1214 0.83178 0.63531 0.0
H1117 H 0.18174 0.9452 0.70057 0.0
H1118 H 0.09405 0.85568 0.70011 0.0
H1119 H 0.20558 0.9173 0.63686 0.0
H1120 H 0.1488 0.91425 0.69828 0.0
H1121 H 0.15136 0.86445 0.63297 0.0
C1122 C 0.12163 0.84396 0.64901 0.0
C1123 C 0.10512 0.84083 0.66814 0.0
C1124 C 0.16125 0.91504 0.68465 0.0
C1125 C 0.13993 0.87877 0.66579 0.0
C1126 C 0.18003 0.93272 0.68584 0.0
C1127 C 0.19657 0.93387 0.66908 0.0
C1128 C 0.15902 0.89848 0.66643 0.0
C1129 C 0.19344 0.91717 0.65049 0.0
C1130 C 0.13886 0.86273 0.64766 0.0
C1131 C 0.10641 0.85738 0.68505 0.0
N1132 N 0.1752 0.9003 0.64981 0.0
N1133 N 0.12359 0.87562 0.68373 0.0
H1134 H 0.20679 0.29983 0.63326 0.0
H1135 H 0.09392 0.24694 0.70111 0.0
H1136 H 0.18347 0.24871 0.69828 0.0
H1137 H 0.1207 0.29687 0.63354 0.0
H1138 H 0.125 0.24517 0.69892 0.0
H1139 H 0.17405 0.29687 0.6315 0.0
C1140 C 0.19472 0.28787 0.64717 0.0
C1141 C 0.19803 0.27459 0.66614 0.0
C1142 C 0.12392 0.25638 0.68443 0.0
C1143 C 0.15999 0.27114 0.66445 0.0
C1144 C 0.10617 0.25735 0.68558 0.0
C1145 C 0.10469 0.27219 0.66771 0.0
C1146 C 0.14019 0.27029 0.66517 0.0
C1147 C 0.1211 0.28531 0.64808 0.0
C1148 C 0.1759 0.28617 0.64613 0.0
C1149 C 0.18162 0.25929 0.68332 0.0
N1150 N 0.13802 0.28408 0.64749 0.0
N1151 N 0.16332 0.25808 0.68232 0.0
H1152 H 0.10436 0.42929 0.25902 0.0
H1153 H 0.10559 0.43246 0.07084 0.0
H1154 H 0.0546 0.43034 0.21245 0.0
H1155 H 0.10558 0.38168 0.11555 0.0
H1156 H 0.09352 0.43873 0.12277 0.0
H1157 H 0.11178 0.41839 0.2069 0.0
C1158 C 0.095 0.42728 0.23779 0.0
C1159 C 0.0788 0.43073 0.24004 0.0
C1160 C 0.0961 0.4262 0.12105 0.0
C1161 C 0.08761 0.41871 0.18038 0.0
C1162 C 0.10315 0.42266 0.09163 0.0
C1163 C 0.1066 0.40649 0.08889 0.0
C1164 C 0.09317 0.41394 0.14832 0.0
C1165 C 0.10314 0.39431 0.11668 0.0
C1166 C 0.0992 0.42093 0.20825 0.0
C1167 C 0.06721 0.42787 0.2117 0.0
N1168 N 0.09692 0.39851 0.1456 0.0
N1169 N 0.07208 0.42236 0.18267 0.0
H1170 H 0.60162 0.63037 0.2154 0.0
H1171 H 0.65622 0.73342 0.1209 0.0
H1172 H 0.60675 0.68302 0.26218 0.0
H1173 H 0.60654 0.68214 0.07486 0.0
H1174 H 0.64731 0.71491 0.17383 0.0
H1175 H 0.61261 0.64911 0.16285 0.0
C1176 C 0.60509 0.6458 0.21462 0.0
C1177 C 0.60309 0.6551 0.243 0.0
C1178 C 0.63853 0.70784 0.15189 0.0
C1179 C 0.61636 0.67661 0.18402 0.0
C1180 C 0.64355 0.71835 0.12191 0.0
C1181 C 0.632 0.70937 0.09361 0.0
C1182 C 0.62241 0.68809 0.15299 0.0
C1183 C 0.61576 0.68972 0.09613 0.0
C1184 C 0.61138 0.65644 0.18486 0.0
C1185 C 0.60792 0.67522 0.2408 0.0
N1186 N 0.61157 0.67965 0.1252 0.0
N1187 N 0.61452 0.68538 0.21189 0.0
H1188 H 0.35821 0.9349 0.07081 0.0
H1189 H 0.35614 0.93226 0.26041 0.0
H1190 H 0.30632 0.93054 0.1193 0.0
H1191 H 0.40697 0.98243 0.21429 0.0
H1192 H 0.33784 0.92513 0.20838 0.0
H1193 H 0.37681 0.94636 0.12268 0.0
C1194 C 0.35069 0.93628 0.09242 0.0
C1195 C 0.33064 0.93171 0.09083 0.0
C1196 C 0.35297 0.93771 0.20977 0.0
C1197 C 0.35181 0.94443 0.15011 0.0
C1198 C 0.36353 0.94174 0.23927 0.0
C1199 C 0.38317 0.95799 0.24165 0.0
C1200 C 0.3623 0.94956 0.18207 0.0
C1201 C 0.39189 0.96976 0.21345 0.0
C1202 C 0.36139 0.94297 0.12181 0.0
C1203 C 0.32171 0.93386 0.11956 0.0
N1204 N 0.38148 0.9651 0.18448 0.0
N1205 N 0.33228 0.93975 0.14834 0.0
H1206 H 0.38029 0.07422 0.89538 0.0
H1207 H 0.46888 0.09854 0.76752 0.0
H1208 H 0.43906 0.1266 0.90062 0.0
H1209 H 0.41432 0.04142 0.77053 0.0
H1210 H 0.45763 0.10923 0.81568 0.0
H1211 H 0.39115 0.06283 0.84698 0.0
C1212 C 0.39528 0.08358 0.88579 0.0
C1213 C 0.40879 0.10142 0.9019 0.0
C1214 C 0.44818 0.09425 0.80618 0.0
C1215 C 0.42144 0.08827 0.84736 0.0
C1216 C 0.4547 0.08808 0.77886 0.0
C1217 C 0.44258 0.06903 0.76521 0.0
C1218 C 0.42922 0.0814 0.81976 0.0
C1219 C 0.42425 0.05613 0.78064 0.0
C1220 C 0.40157 0.07691 0.85856 0.0
C1221 C 0.42817 0.11276 0.88891 0.0
N1222 N 0.41799 0.06264 0.80692 0.0
N1223 N 0.43392 0.10596 0.86256 0.0
H1224 H 0.93642 0.34842 0.92738 0.0
H1225 H 0.93837 0.34774 0.73888 0.0
H1226 H 0.93682 0.29811 0.88143 0.0
H1227 H 0.98756 0.39851 0.78686 0.0
H1228 H 0.93069 0.32907 0.79063 0.0
H1229 H 0.94837 0.36709 0.87576 0.0
C1230 C 0.9389 0.34122 0.90638 0.0
C1231 C 0.9356 0.32162 0.90869 0.0
C1232 C 0.94319 0.34426 0.78968 0.0
C1233 C 0.94892 0.34291 0.84962 0.0
C1234 C 0.94753 0.35503 0.76036 0.0
C1235 C 0.96365 0.37476 0.75862 0.0
C1236 C 0.95457 0.3535 0.81781 0.0
C1237 C 0.97501 0.38337 0.78723 0.0
C1238 C 0.94589 0.352 0.87714 0.0
C1239 C 0.93913 0.31314 0.88064 0.0
N1240 N 0.97001 0.37276 0.81601 0.0
N1241 N 0.9453 0.32375 0.85191 0.0
H1242 H 0.74102 0.64723 0.87945 0.0
H1243 H 0.63784 0.59331 0.78503 0.0
H1244 H 0.68942 0.59776 0.9253 0.0
H1245 H 0.69054 0.5988 0.73777 0.0
H1246 H 0.65658 0.60403 0.83758 0.0
H1247 H 0.72255 0.63859 0.82651 0.0
C1248 C 0.72589 0.63465 0.8784 0.0
C1249 C 0.71681 0.62309 0.90665 0.0
C1250 C 0.66392 0.60294 0.81548 0.0
C1251 C 0.69558 0.61381 0.84725 0.0
C1252 C 0.65328 0.5968 0.7857 0.0
C1253 C 0.66259 0.59497 0.75719 0.0
C1254 C 0.6841 0.60793 0.81621 0.0
C1255 C 0.68272 0.59982 0.75927 0.0
C1256 C 0.71541 0.6298 0.8484 0.0
C1257 C 0.69708 0.60699 0.90406 0.0
N1258 N 0.69288 0.60627 0.7882 0.0
N1259 N 0.68705 0.60295 0.875 0.0
H1260 H 0.9104 0.59623 0.90224 0.0
H1261 H 0.99776 0.62244 0.77091 0.0
H1262 H 0.9635 0.65445 0.89656 0.0
H1263 H 0.939 0.57009 0.76517 0.0
H1264 H 0.98707 0.63325 0.82025 0.0
H1265 H 0.92152 0.58585 0.85352 0.0
C1266 C 0.92423 0.60697 0.89027 0.0
C1267 C 0.93597 0.62627 0.90328 0.0
C1268 C 0.97662 0.61929 0.80835 0.0
C1269 C 0.94917 0.61428 0.84802 0.0
C1270 C 0.98281 0.61296 0.78056 0.0
C1271 C 0.96926 0.59529 0.76408 0.0
C1272 C 0.95682 0.60775 0.81976 0.0
C1273 C 0.94992 0.5838 0.77717 0.0
C1274 C 0.93067 0.60099 0.8626 0.0
C1275 C 0.95387 0.63952 0.887 0.0
N1276 N 0.94428 0.59025 0.80411 0.0
N1277 N 0.96006 0.63321 0.86037 0.0
H1278 H 0.38741 0.29595 0.87692 0.0
H1279 H 0.44141 0.39895 0.78222 0.0
H1280 H 0.43653 0.34756 0.92329 0.0
H1281 H 0.43755 0.34667 0.73614 0.0
H1282 H 0.43024 0.38019 0.83474 0.0
H1283 H 0.39637 0.31443 0.82395 0.0
C1284 C 0.39997 0.31109 0.87598 0.0
C1285 C 0.41135 0.32018 0.90438 0.0
C1286 C 0.43178 0.37294 0.81288 0.0
C1287 C 0.42099 0.34141 0.84495 0.0
C1288 C 0.43818 0.38359 0.78313 0.0
C1289 C 0.44059 0.3744 0.75497 0.0
C1290 C 0.4271 0.35287 0.8139 0.0
C1291 C 0.43606 0.35438 0.75736 0.0
C1292 C 0.40501 0.32158 0.84597 0.0
C1293 C 0.42745 0.33991 0.90193 0.0
N1294 N 0.42934 0.34421 0.78623 0.0
N1295 N 0.43166 0.34995 0.87284 0.0
H1296 H 0.74038 0.10173 0.88153 0.0
H1297 H 0.63763 0.04687 0.78638 0.0
H1298 H 0.68762 0.0965 0.92811 0.0
H1299 H 0.68857 0.09744 0.74133 0.0
H1300 H 0.65606 0.05551 0.83937 0.0
H1301 H 0.72167 0.09062 0.82897 0.0
C1302 C 0.72492 0.0982 0.88071 0.0
C1303 C 0.71558 0.10022 0.90901 0.0
C1304 C 0.66308 0.06453 0.81762 0.0
C1305 C 0.69412 0.0868 0.85006 0.0
C1306 C 0.65262 0.05967 0.7876 0.0
C1307 C 0.66153 0.07154 0.75957 0.0
C1308 C 0.68272 0.08083 0.81898 0.0
C1309 C 0.68107 0.08794 0.76237 0.0
C1310 C 0.71431 0.09183 0.85095 0.0
C1311 C 0.69545 0.09532 0.90677 0.0
N1312 N 0.6911 0.09199 0.79144 0.0
N1313 N 0.68531 0.08865 0.87787 0.0
H1314 H 0.6058 0.90208 0.09976 0.0
H1315 H 0.63066 0.99016 0.22889 0.0
H1316 H 0.66331 0.95614 0.10382 0.0
H1317 H 0.57797 0.93159 0.23355 0.0
H1318 H 0.64198 0.97937 0.18032 0.0
H1319 H 0.59514 0.91327 0.14803 0.0
C1320 C 0.61634 0.91613 0.11135 0.0
C1321 C 0.6355 0.92813 0.09796 0.0
C1322 C 0.62784 0.96898 0.1918 0.0
C1323 C 0.62318 0.94143 0.15265 0.0
C1324 C 0.62122 0.97523 0.21915 0.0
C1325 C 0.60331 0.96176 0.23513 0.0
C1326 C 0.61636 0.94918 0.18038 0.0
C1327 C 0.59186 0.94246 0.22194 0.0
C1328 C 0.6102 0.92262 0.13873 0.0
C1329 C 0.64851 0.94631 0.11371 0.0
N1330 N 0.59862 0.93674 0.19548 0.0
N1331 N 0.64202 0.95254 0.14005 0.0
H1332 H 0.04611 0.64555 0.22852 0.0
H1333 H 0.133 0.70612 0.09616 0.0
H1334 H 0.10475 0.6517 0.23338 0.0
H1335 H 0.08023 0.7117 0.10263 0.0
H1336 H 0.12185 0.68453 0.1447 0.0
H1337 H 0.05662 0.66685 0.17898 0.0
C1338 C 0.06099 0.65093 0.21865 0.0
C1339 C 0.07457 0.64679 0.23494 0.0
C1340 C 0.11277 0.69062 0.13581 0.0
C1341 C 0.0868 0.67146 0.17902 0.0
C1342 C 0.11921 0.70307 0.10822 0.0
C1343 C 0.10758 0.71081 0.09548 0.0
C1344 C 0.09438 0.68556 0.15064 0.0
C1345 C 0.08977 0.70625 0.11194 0.0
C1346 C 0.06709 0.66334 0.19074 0.0
C1347 C 0.09381 0.6545 0.22155 0.0
N1348 N 0.08357 0.69372 0.13853 0.0
N1349 N 0.09935 0.66649 0.19449 0.0
H1350 H 0.35237 0.43191 0.26283 0.0
H1351 H 0.35471 0.43377 0.07143 0.0
H1352 H 0.40445 0.43751 0.2131 0.0
H1353 H 0.30294 0.38597 0.11984 0.0
H1354 H 0.37306 0.4415 0.1235 0.0
H1355 H 0.33374 0.42101 0.21092 0.0
C1356 C 0.35995 0.43098 0.24091 0.0
C1357 C 0.38005 0.43571 0.2422 0.0
C1358 C 0.3577 0.42933 0.12264 0.0
C1359 C 0.35882 0.42356 0.18285 0.0
C1360 C 0.34711 0.42498 0.0931 0.0
C1361 C 0.32719 0.40921 0.09135 0.0
C1362 C 0.34816 0.41829 0.15097 0.0
C1363 C 0.31823 0.39826 0.12019 0.0
C1364 C 0.34922 0.42459 0.21148 0.0
C1365 C 0.38902 0.43406 0.2131 0.0
N1366 N 0.32872 0.40321 0.1491 0.0
N1367 N 0.3784 0.42841 0.18435 0.0
H1368 H 0.77211 0.79362 0.56658 0.0
H1369 H 0.74735 0.70562 0.43729 0.0
H1370 H 0.71463 0.73952 0.56254 0.0
H1371 H 0.79991 0.76428 0.43254 0.0
H1372 H 0.73603 0.71635 0.48595 0.0
H1373 H 0.78278 0.78246 0.51829 0.0
C1374 C 0.76157 0.77956 0.55501 0.0
C1375 C 0.74242 0.76755 0.5684 0.0
C1376 C 0.75014 0.72677 0.47443 0.0
C1377 C 0.75476 0.75428 0.51366 0.0
C1378 C 0.75676 0.72056 0.44703 0.0
C1379 C 0.77464 0.73407 0.43099 0.0
C1380 C 0.76158 0.74657 0.48586 0.0
C1381 C 0.78604 0.75338 0.44419 0.0
C1382 C 0.76773 0.77309 0.52761 0.0
C1383 C 0.72943 0.74936 0.55266 0.0
N1384 N 0.77929 0.75906 0.4707 0.0
N1385 N 0.73592 0.74315 0.52629 0.0
H1386 H 0.3241 0.06791 0.45422 0.0
H1387 H 0.26985 0.96481 0.54833 0.0
H1388 H 0.27369 0.01703 0.40876 0.0
H1389 H 0.27458 0.01718 0.59551 0.0
H1390 H 0.28082 0.98373 0.49591 0.0
H1391 H 0.31549 0.04926 0.50699 0.0
C1392 C 0.31132 0.0529 0.45532 0.0
C1393 C 0.29949 0.04407 0.42723 0.0
C1394 C 0.27953 0.99096 0.51799 0.0
C1395 C 0.29027 0.02263 0.48638 0.0
C1396 C 0.27325 0.98023 0.54768 0.0
C1397 C 0.27112 0.9894 0.5761 0.0
C1398 C 0.28437 1.01109 0.51732 0.0
C1399 C 0.27584 1.00949 0.57408 0.0
C1400 C 0.3065 0.04231 0.48521 0.0
C1401 C 0.28313 0.02449 0.42987 0.0
N1402 N 0.28243 0.01974 0.54526 0.0
N1403 N 0.27913 1.01434 0.45881 0.0
H1404 H 1.02221 0.26423 0.59263 0.0
H1405 H 0.0225 0.261 0.40322 0.0
H1406 H 0.07354 0.31174 0.54277 0.0
H1407 H 0.97246 0.26156 0.45003 0.0
H1408 H 0.04134 0.27272 0.45468 0.0
H1409 H 1.00342 0.25611 0.54098 0.0
C1410 C 0.02961 0.27289 0.57074 0.0
C1411 C 0.04954 0.28869 0.57193 0.0
C1412 C 0.02625 0.2703 0.45355 0.0
C1413 C 0.02809 0.27912 0.51289 0.0
C1414 C 1.01537 0.26343 0.42439 0.0
C1415 C 0.99581 0.26028 0.42235 0.0
C1416 C 1.01731 0.27335 0.48125 0.0
C1417 C 0.98746 0.26378 0.45061 0.0
C1418 C 1.01877 0.26832 0.54147 0.0
C1419 C 0.05825 0.29944 0.54283 0.0
N1420 N 0.99818 0.26985 0.47923 0.0
N1421 N 0.04753 0.29422 0.51417 0.0
H1422 H 0.27247 0.23571 0.43264 0.0
H1423 H 0.29621 0.32332 0.562 0.0
H1424 H 0.32952 0.29032 0.43639 0.0
H1425 H 0.24517 0.26374 0.56903 0.0
H1426 H 0.30756 0.31285 0.51308 0.0
H1427 H 0.26182 0.24638 0.48159 0.0
C1428 C 0.28292 0.24978 0.44428 0.0
C1429 C 0.30195 0.26208 0.43063 0.0
C1430 C 0.29378 0.30215 0.52519 0.0
C1431 C 0.28962 0.27477 0.4861 0.0
C1432 C 0.28713 0.3082 0.55275 0.0
C1433 C 0.26967 0.29439 0.56947 0.0
C1434 C 0.28278 0.28221 0.51425 0.0
C1435 C 0.25871 0.27488 0.55686 0.0
C1436 C 0.27678 0.25596 0.47206 0.0
C1437 C 0.31483 0.28027 0.44646 0.0
N1438 N 0.26546 0.26937 0.53013 0.0
N1439 N 0.30834 0.2862 0.47319 0.0
H1440 H 0.72078 0.96322 0.54587 0.0
H1441 H 0.77609 0.06593 0.45101 0.0
H1442 H 0.77154 1.01381 0.59121 0.0
H1443 H 0.77099 1.01325 0.4044 0.0
H1444 H 0.76497 0.0472 0.50355 0.0
H1445 H 0.72971 0.98174 0.49294 0.0
C1446 C 0.73369 0.97815 0.54472 0.0
C1447 C 0.74553 0.98694 0.57283 0.0
C1448 C 0.76623 0.03986 0.48158 0.0
C1449 C 0.75513 1.00823 0.51348 0.0
C1450 C 0.7726 0.05049 0.45182 0.0
C1451 C 0.77464 0.04118 0.4235 0.0
C1452 C 0.76121 0.01968 0.48245 0.0
C1453 C 0.76979 0.02106 0.42574 0.0
C1454 C 0.7387 0.98866 0.51474 0.0
C1455 C 0.76207 1.0064 0.57011 0.0
N1456 N 0.7631 1.0109 0.45464 0.0
N1457 N 0.76626 0.01648 0.54107 0.0
H1458 H 1.02124 0.76211 0.59603 0.0
H1459 H 0.02428 0.76193 0.40501 0.0
H1460 H 0.07353 0.76699 0.54827 0.0
H1461 H 0.97211 0.71509 0.45396 0.0
H1462 H 0.04269 0.76965 0.45712 0.0
H1463 H 1.00283 0.75041 0.54405 0.0
C1464 C 0.0289 0.76082 0.57453 0.0
C1465 C 0.04899 0.76561 0.57638 0.0
C1466 C 0.02725 0.75765 0.45635 0.0
C1467 C 0.02803 0.75254 0.51691 0.0
C1468 C 1.01666 0.7533 0.42679 0.0
C1469 C 0.99659 0.73787 0.42525 0.0
C1470 C 1.01753 0.74695 0.48487 0.0
C1471 C 0.98753 0.72711 0.45418 0.0
C1472 C 1.0183 0.75398 0.54506 0.0
C1473 C 0.05809 0.76351 0.54781 0.0
N1474 N 0.99799 0.7321 0.4831 0.0
N1475 N 0.04761 0.75743 0.51895 0.0
H1476 H 0.09464 0.33957 0.92712 0.0
H1477 H 0.10359 0.35978 0.73143 0.0
H1478 H 0.12197 0.39857 0.88379 0.0
H1479 H 0.07556 0.30097 0.7756 0.0
H1480 H 0.11215 0.3745 0.78695 0.0
H1481 H 0.08912 0.32524 0.87152 0.0
C1482 C 0.09955 0.34951 0.90597 0.0
C1483 C 0.10869 0.37029 0.91018 0.0
C1484 C 0.10419 0.35837 0.78441 0.0
C1485 C 0.1024 0.35402 0.84643 0.0
C1486 C 0.09933 0.34998 0.75272 0.0
C1487 C 0.08874 0.32912 0.7488 0.0
C1488 C 0.09842 0.3458 0.81232 0.0
C1489 C 0.08363 0.31713 0.77733 0.0
C1490 C 0.09639 0.34133 0.8742 0.0
C1491 C 0.11478 0.38245 0.88179 0.0
N1492 N 0.08845 0.32563 0.80779 0.0
N1493 N 0.11147 0.37414 0.85118 0.0
H1494 H 0.70028 0.76091 0.92993 0.0
H1495 H 0.67701 0.75061 0.73508 0.0
H1496 H 0.64076 0.73243 0.88849 0.0
H1497 H 0.73671 0.77879 0.77578 0.0
H1498 H 0.66351 0.74486 0.79134 0.0
H1499 H 0.71409 0.76876 0.87374 0.0
C1500 C 0.69013 0.75639 0.9091 0.0
C1501 C 0.66934 0.74593 0.91401 0.0
C1502 C 0.67957 0.75234 0.78794 0.0
C1503 C 0.68499 0.7548 0.84967 0.0
C1504 C 0.68728 0.75563 0.7558 0.0
C1505 C 0.70802 0.76514 0.75063 0.0
C1506 C 0.69268 0.7586 0.81516 0.0
C1507 C 0.7206 0.77135 0.7785 0.0
C1508 C 0.698 0.76084 0.87701 0.0
C1509 C 0.65689 0.74045 0.88601 0.0
N1510 N 0.71275 0.76793 0.80949 0.0
N1511 N 0.6649 0.74489 0.85515 0.0
H1512 H 0.30304 0.9128 0.88744 0.0
H1513 H 0.25326 0.96328 0.78012 0.0
H1514 H 0.27486 0.94381 0.93014 0.0
H1515 H 0.2833 0.93411 0.73739 0.0
H1516 H 0.25911 0.95437 0.83505 0.0
H1517 H 0.294 0.91856 0.83254 0.0
C1518 C 0.29486 0.92077 0.88533 0.0
C1519 C 0.2898 0.92794 0.91355 0.0
C1520 C 0.26437 0.94984 0.8137 0.0
C1521 C 0.27942 0.93462 0.85042 0.0
C1522 C 0.26104 0.95492 0.78223 0.0
C1523 C 0.26791 0.94954 0.75399 0.0
C1524 C 0.27469 0.9393 0.81716 0.0
C1525 C 0.27779 0.93862 0.75842 0.0
C1526 C 0.28971 0.92405 0.85388 0.0
C1527 C 0.27912 0.93807 0.90913 0.0
N1528 N 0.28096 0.93394 0.78942 0.0
N1529 N 0.27437 0.94118 0.87814 0.0
H1530 H 0.34386 0.08492 0.06869 0.0
H1531 H 0.36738 0.09542 0.26342 0.0
H1532 H 0.40361 0.11309 0.10918 0.0
H1533 H 0.3078 0.06684 0.22216 0.0
H1534 H 0.38112 0.10321 0.20719 0.0
H1535 H 0.33043 0.07923 0.12498 0.0
C1536 C 0.35415 0.08995 0.08937 0.0
C1537 C 0.37488 0.09944 0.08414 0.0
C1538 C 0.36504 0.09529 0.21051 0.0
C1539 C 0.35964 0.09296 0.1487 0.0
C1540 C 0.3572 0.09086 0.24262 0.0
C1541 C 0.33641 0.08039 0.24758 0.0
C1542 C 0.35199 0.0892 0.18322 0.0
C1543 C 0.32393 0.07486 0.21963 0.0
C1544 C 0.34649 0.0867 0.12153 0.0
C1545 C 0.38751 0.10566 0.11196 0.0
N1546 N 0.3319 0.07928 0.18875 0.0
N1547 N 0.37969 0.10228 0.14297 0.0
H1548 H 0.97014 0.24543 0.21818 0.0
H1549 H 0.92037 0.2968 0.11325 0.0
H1550 H 0.94142 0.2755 0.26243 0.0
H1551 H 0.9494 0.26697 0.06923 0.0
H1552 H 0.92643 0.28766 0.16788 0.0
H1553 H 0.96113 0.2517 0.16365 0.0
C1554 C 0.96187 0.25331 0.21649 0.0
C1555 C 0.95662 0.26005 0.24503 0.0
C1556 C 0.93142 0.28304 0.14631 0.0
C1557 C 0.94628 0.26732 0.18232 0.0
C1558 C 0.92798 0.28825 0.11502 0.0
C1559 C 0.93449 0.28273 0.08651 0.0
C1560 C 0.9415 0.27224 0.1493 0.0
C1561 C 0.94417 0.27159 0.09048 0.0
C1562 C 0.95672 0.25688 0.18524 0.0
C1563 C 0.94581 0.27007 0.24115 0.0
N1564 N 0.94745 0.26679 0.12131 0.0
N1565 N 0.94107 0.27349 0.21034 0.0
H1566 H 0.78719 0.72975 0.2236 0.0
H1567 H 0.73981 0.63109 0.11172 0.0
H1568 H 0.75858 0.66979 0.26326 0.0
H1569 H 0.76786 0.69081 0.07116 0.0
H1570 H 0.74776 0.64518 0.16715 0.0
H1571 H 0.78136 0.71594 0.16779 0.0
C1572 C 0.77971 0.71365 0.22063 0.0
C1573 C 0.7733 0.7009 0.24829 0.0
C1574 C 0.75225 0.65525 0.1462 0.0
C1575 C 0.76658 0.68499 0.18416 0.0
C1576 C 0.74771 0.64721 0.11441 0.0
C1577 C 0.7531 0.65978 0.08659 0.0
C1578 C 0.76224 0.67607 0.15047 0.0
C1579 C 0.76339 0.68055 0.09182 0.0
C1580 C 0.77639 0.70579 0.18867 0.0
C1581 C 0.76374 0.68019 0.24275 0.0
N1582 N 0.76756 0.68804 0.12315 0.0
N1583 N 0.76063 0.6729 0.21134 0.0
H1584 H 0.94186 0.66993 0.26355 0.0
H1585 H 0.95167 0.69248 0.06854 0.0
H1586 H 0.9697 0.72931 0.22161 0.0
H1587 H 0.92358 0.63298 0.11007 0.0
H1588 H 0.9572 0.70622 0.12461 0.0
H1589 H 0.93367 0.65596 0.20754 0.0
C1590 C 0.94615 0.68002 0.24264 0.0
C1591 C 0.95656 0.70082 0.24734 0.0
C1592 C 0.94977 0.69015 0.12143 0.0
C1593 C 0.94733 0.68498 0.18321 0.0
C1594 C 0.94661 0.68231 0.08939 0.0
C1595 C 0.93722 0.66156 0.08453 0.0
C1596 C 0.94352 0.67716 0.14881 0.0
C1597 C 0.93095 0.64909 0.11255 0.0
C1598 C 0.94151 0.67205 0.21066 0.0
C1599 C 0.96174 0.71318 0.21926 0.0
N1600 N 0.93426 0.65708 0.14342 0.0
N1601 N 0.95714 0.70508 0.18849 0.0
H1602 H 0.36687 0.27945 0.26311 0.0
H1603 H 0.34315 0.26887 0.06838 0.0
H1604 H 0.30708 0.25143 0.22285 0.0
H1605 H 0.40275 0.29729 0.10951 0.0
H1606 H 0.32946 0.26117 0.12467 0.0
H1607 H 0.38022 0.28508 0.20676 0.0
C1608 C 0.35655 0.27444 0.24247 0.0
C1609 C 0.33583 0.26501 0.24779 0.0
C1610 C 0.34553 0.26904 0.1213 0.0
C1611 C 0.35099 0.27141 0.18314 0.0
C1612 C 0.35335 0.27341 0.08917 0.0
C1613 C 0.37413 0.28381 0.08414 0.0
C1614 C 0.3586 0.27511 0.14858 0.0
C1615 C 0.38663 0.28932 0.11208 0.0
C1616 C 0.36417 0.27766 0.21027 0.0
C1617 C 0.32317 0.25881 0.22001 0.0
N1618 N 0.37868 0.28496 0.14298 0.0
N1619 N 0.33095 0.26216 0.18895 0.0
H1620 H 0.79203 0.06741 0.21922 0.0
H1621 H 0.74182 0.118 0.11328 0.0
H1622 H 0.76216 0.09651 0.26282 0.0
H1623 H 0.77094 0.08813 0.06978 0.0
H1624 H 0.75085 0.11199 0.16803 0.0
H1625 H 0.78615 0.07659 0.16452 0.0
C1626 C 0.78428 0.07581 0.21735 0.0
C1627 C 0.77747 0.0811 0.24576 0.0
C1628 C 0.75535 0.10681 0.14655 0.0
C1629 C 0.77065 0.09164 0.18285 0.0
C1630 C 0.7502 0.11023 0.11518 0.0
C1631 C 0.75553 0.10346 0.08678 0.0
C1632 C 0.7659 0.09648 0.14973 0.0
C1633 C 0.76646 0.09357 0.09093 0.0
C1634 C 0.78093 0.08105 0.186 0.0
C1635 C 0.76762 0.09207 0.24165 0.0
N1636 N 0.7712 0.0903 0.12183 0.0
N1637 N 0.76443 0.09689 0.21076 0.0
H1638 H 0.67757 0.93535 0.73655 0.0
H1639 H 0.70087 0.94523 0.93134 0.0
H1640 H 0.73712 0.96368 0.77789 0.0
H1641 H 0.64119 0.91731 0.8906 0.0
H1642 H 0.71439 0.95105 0.87508 0.0
H1643 H 0.66379 0.92742 0.79273 0.0
C1644 C 0.68773 0.93982 0.75737 0.0
C1645 C 0.70852 0.95026 0.75243 0.0
C1646 C 0.69833 0.9436 0.87847 0.0
C1647 C 0.69291 0.94129 0.81676 0.0
C1648 C 0.69061 0.94028 0.91061 0.0
C1649 C 0.66987 0.93082 0.91576 0.0
C1650 C 0.68522 0.93745 0.85126 0.0
C1651 C 0.65729 0.92471 0.88789 0.0
C1652 C 0.67988 0.93532 0.78945 0.0
C1653 C 0.72098 0.95568 0.7804 0.0
N1654 N 0.66516 0.92816 0.85691 0.0
N1655 N 0.713 0.95119 0.81127 0.0
H1656 H 0.10462 0.7538 0.73709 0.0
H1657 H 0.094 0.76421 0.93257 0.0
H1658 H 0.07555 0.78377 0.7804 0.0
H1659 H 0.12292 0.73398 0.88965 0.0
H1660 H 0.08855 0.77294 0.87689 0.0
H1661 H 0.11301 0.74782 0.79276 0.0
C1662 C 0.1001 0.75922 0.75824 0.0
C1663 C 0.08928 0.76921 0.75401 0.0
C1664 C 0.09616 0.76446 0.87968 0.0
C1665 C 0.09875 0.76238 0.81779 0.0
C1666 C 0.09928 0.75948 0.91149 0.0
C1667 C 0.10886 0.74827 0.91585 0.0
C1668 C 0.10263 0.75817 0.852 0.0
C1669 C 0.1154 0.74258 0.88755 0.0
C1670 C 0.10486 0.75578 0.79003 0.0
C1671 C 0.08383 0.77591 0.78238 0.0
N1672 N 0.1121 0.74752 0.85689 0.0
N1673 N 0.08855 0.77231 0.81298 0.0
H1674 H 0.28503 0.36008 0.73467 0.0
H1675 H 0.27457 0.33886 0.93021 0.0
H1676 H 0.25771 0.30081 0.77693 0.0
H1677 H 0.30275 0.39785 0.88673 0.0
H1678 H 0.26682 0.32438 0.87443 0.0
H1679 H 0.29037 0.37406 0.7905 0.0
C1680 C 0.28012 0.35 0.75565 0.0
C1681 C 0.27097 0.32924 0.75104 0.0
C1682 C 0.27464 0.3405 0.87718 0.0
C1683 C 0.27704 0.34513 0.81512 0.0
C1684 C 0.27903 0.34875 0.90902 0.0
C1685 C 0.28941 0.3696 0.91323 0.0
C1686 C 0.28066 0.35318 0.8494 0.0
C1687 C 0.29482 0.38169 0.88481 0.0
C1688 C 0.28317 0.35798 0.78756 0.0
C1689 C 0.26488 0.31691 0.77923 0.0
N1690 N 0.29044 0.37333 0.85422 0.0
N1691 N 0.26806 0.32504 0.81001 0.0
H1692 H 0.07166 0.44751 0.44453 0.0
H1693 H 0.97237 0.39989 0.55472 0.0
H1694 H 1.01196 0.41759 0.40367 0.0
H1695 H 0.03193 0.42772 0.59593 0.0
H1696 H 0.98671 0.40804 0.49943 0.0
H1697 H 0.05746 0.44212 0.49992 0.0
C1698 C 0.05553 0.43984 0.44715 0.0
C1699 C 0.04297 0.4329 0.41929 0.0
C1700 C 0.99668 0.41244 0.52051 0.0
C1701 C 0.02661 0.42667 0.48298 0.0
C1702 C 0.98851 0.4078 0.5522 0.0
C1703 C 1.00097 0.41304 0.58012 0.0
C1704 C 1.01752 0.42239 0.5165 0.0
C1705 C 1.02175 0.42335 0.57516 0.0
C1706 C 0.04745 0.43678 0.47888 0.0
C1707 C 1.02222 0.42315 0.42437 0.0
N1708 N 0.02938 0.42762 0.54393 0.0
N1709 N 1.01469 0.42027 0.45561 0.0
H1710 H 0.63625 0.57833 0.55291 0.0
H1711 H 0.5859 0.62895 0.4474 0.0
H1712 H 0.60735 0.6083 0.5968 0.0
H1713 H 0.61547 0.5996 0.40364 0.0
H1714 H 0.59195 0.61988 0.5021 0.0
H1715 H 0.6271 0.58434 0.49828 0.0
C1716 C 0.6279 0.58613 0.55112 0.0
C1717 C 0.62266 0.59292 0.5796 0.0
C1718 C 0.59705 0.61534 0.48058 0.0
C1719 C 0.61215 0.5999 0.51676 0.0
C1720 C 0.59361 0.62051 0.44924 0.0
C1721 C 0.60028 0.61512 0.42077 0.0
C1722 C 0.6073 0.60471 0.48367 0.0
C1723 C 0.6101 0.60412 0.42484 0.0
C1724 C 0.62268 0.58955 0.51981 0.0
C1725 C 0.61175 0.60284 0.57558 0.0
N1726 N 0.61339 0.59935 0.45571 0.0
N1727 N 0.60694 0.60611 0.54473 0.0
H1728 H 0.45436 0.0643 0.55792 0.0
H1729 H 0.4072 0.96561 0.44621 0.0
H1730 H 0.4259 1.00438 0.59775 0.0
H1731 H 0.43486 0.02533 0.40569 0.0
H1732 H 0.41522 0.97971 0.50165 0.0
H1733 H 0.44855 0.05045 0.50217 0.0
C1734 C 0.44691 0.0482 0.55499 0.0
C1735 C 0.44054 0.03547 0.58267 0.0
C1736 C 0.41961 0.98977 0.48069 0.0
C1737 C 0.43384 0.01952 0.51862 0.0
C1738 C 0.41503 0.98173 0.44891 0.0
C1739 C 0.42028 0.99431 0.42112 0.0
C1740 C 0.4295 1.01058 0.48495 0.0
C1741 C 0.43049 0.01507 0.42634 0.0
C1742 C 0.44361 0.04032 0.52307 0.0
C1743 C 0.43103 1.01477 0.57721 0.0
N1744 N 0.4347 0.02256 0.45766 0.0
N1745 N 0.42793 1.00744 0.54582 0.0
H1746 H 0.59068 0.96608 0.44231 0.0
H1747 H 0.63824 0.06456 0.55462 0.0
H1748 H 0.61956 0.02609 0.40279 0.0
H1749 H 0.61029 1.00472 0.59472 0.0
H1750 H 0.63025 0.0506 0.49907 0.0
H1751 H 0.59653 0.97983 0.49813 0.0
C1752 C 0.59823 0.98218 0.44532 0.0
C1753 C 0.6047 0.99496 0.4177 0.0
C1754 C 0.62579 0.04048 0.51996 0.0
C1755 C 0.61145 1.01081 0.48184 0.0
C1756 C 0.63035 0.04844 0.5518 0.0
C1757 C 0.625 0.03579 0.57951 0.0
C1758 C 0.61581 0.01967 0.51556 0.0
C1759 C 0.61473 0.01504 0.57414 0.0
C1760 C 0.60155 0.99001 0.47728 0.0
C1761 C 0.61434 0.01567 0.42328 0.0
N1762 N 0.61053 1.00763 0.54278 0.0
N1763 N 0.61746 0.02294 0.45471 0.0
H1764 H 0.03431 0.61271 0.59697 0.0
H1765 H 1.01013 0.60011 0.40248 0.0
H1766 H 0.97452 0.58372 0.5566 0.0
H1767 H 0.06998 0.63074 0.44266 0.0
H1768 H 0.99677 0.59285 0.45887 0.0
H1769 H 0.04772 0.61839 0.54061 0.0
C1770 C 0.02401 0.6075 0.57631 0.0
C1771 C 1.00326 0.59778 0.58159 0.0
C1772 C 1.01283 0.60113 0.45532 0.0
C1773 C 1.01849 0.60423 0.517 0.0
C1774 C 1.02046 0.60526 0.42311 0.0
C1775 C 0.04121 0.6161 0.41776 0.0
C1776 C 0.02603 0.60787 0.48241 0.0
C1777 C 0.05388 0.62238 0.44551 0.0
C1778 C 0.03166 0.61075 0.54412 0.0
C1779 C 0.99062 0.59134 0.5538 0.0
N1780 N 0.0461 0.61821 0.47657 0.0
N1781 N 0.99843 0.5947 0.52279 0.0
H1782 H 0.40859 0.45218 0.44555 0.0
H1783 H 0.45751 0.39979 0.5502 0.0
H1784 H 0.43591 0.42087 0.40089 0.0
H1785 H 0.4291 0.43023 0.5942 0.0
H1786 H 0.45149 0.40897 0.49551 0.0
H1787 H 0.41778 0.44592 0.49992 0.0
C1788 C 0.4166 0.44403 0.44711 0.0
C1789 C 0.42138 0.43694 0.41849 0.0
C1790 C 0.44663 0.41372 0.51709 0.0
C1791 C 0.43194 0.42966 0.48109 0.0
C1792 C 0.45006 0.40849 0.54842 0.0
C1793 C 0.44371 0.41417 0.57695 0.0
C1794 C 0.43674 0.42471 0.5141 0.0
C1795 C 0.43421 0.42548 0.57296 0.0
C1796 C 0.42185 0.44046 0.47828 0.0
C1797 C 0.43188 0.42658 0.42223 0.0
N1798 N 0.43095 0.43031 0.54212 0.0
N1799 N 0.43673 0.42317 0.45298 0.0
loop_
_geom_bond_atom_site_label_1
_geom_bond_atom_site_label_2
_geom_bond_distance
_geom_bond_site_symmetry_2
_ccdc_geom_bond_type
C0 O2 1.247 . S
C0 O4 1.258 . S
C1 O8 1.247 . S
C1 O9 1.258 . S
O2 C0 1.247 . S
O2 Zn3 2.028 1_554 S
Zn3 O2 2.028 1_556 S
Zn3 O7 2.035 . S
Zn3 O9 2.035 . S
Zn3 O10 2.028 . S
O4 C0 1.258 . S
O4 Zn5 2.035 . S
Zn5 O4 2.035 . S
Zn5 O6 2.028 . S
Zn5 O8 2.028 1_554 S
Zn5 O11 2.035 . S
O6 Zn5 2.028 . S
O6 C12 1.232 1_554 S
O7 Zn3 2.035 . S
O7 C12 1.270 . S
O8 C1 1.247 . S
O8 Zn5 2.028 1_556 S
O9 C1 1.258 . S
O9 Zn3 2.035 . S
O10 Zn3 2.028 . S
O10 C13 1.247 1_556 S
O11 Zn5 2.035 . S
O11 C13 1.258 . S
C12 O6 1.232 1_556 S
C12 O7 1.270 . S
C13 O10 1.247 1_554 S
C13 O11 1.258 . S
C14 O16 1.247 . S
C14 O18 1.258 . S
C15 O22 1.247 . S
C15 O23 1.258 . S
O16 C14 1.247 . S
O16 Zn17 2.028 . S
Zn17 O16 2.028 . S
Zn17 O21 2.035 . S
Zn17 O23 2.035 1_556 S
Zn17 O24 2.028 . S
O18 C14 1.258 . S
O18 Zn19 2.035 1_556 S
Zn19 O18 2.035 1_554 S
Zn19 O20 2.028 . S
Zn19 O22 2.028 . S
Zn19 O25 2.035 . S
O20 Zn19 2.028 . S
O20 C26 1.247 . S
O21 Zn17 2.035 . S
O21 C26 1.258 1_556 S
O22 C15 1.247 . S
O22 Zn19 2.028 . S
O23 C15 1.258 . S
O23 Zn17 2.035 1_554 S
O24 Zn17 2.028 . S
O24 C27 1.247 . S
O25 Zn19 2.035 . S
O25 C27 1.258 1_554 S
C26 O20 1.247 . S
C26 O21 1.258 1_554 S
C27 O24 1.247 . S
C27 O25 1.258 1_556 S
C28 O30 1.232 1_556 S
C28 O32 1.270 . S
C29 O36 1.247 1_554 S
C29 O37 1.258 . S
O30 C28 1.232 1_554 S
O30 Zn31 2.028 . S
Zn31 O30 2.028 . S
Zn31 O35 2.035 . S
Zn31 O37 2.035 . S
Zn31 O38 2.028 1_554 S
O32 C28 1.270 . S
O32 Zn33 2.035 . S
Zn33 O32 2.035 . S
Zn33 O34 2.028 1_556 S
Zn33 O36 2.028 . S
Zn33 O39 2.035 . S
O34 Zn33 2.028 1_554 S
O34 C40 1.247 . S
O35 Zn31 2.035 . S
O35 C40 1.258 . S
O36 C29 1.247 1_556 S
O36 Zn33 2.028 . S
O37 C29 1.258 . S
O37 Zn31 2.035 . S
O38 Zn31 2.028 1_556 S
O38 C41 1.247 . S
O39 Zn33 2.035 . S
O39 C41 1.258 . S
C40 O34 1.247 . S
C40 O35 1.258 . S
C41 O38 1.247 . S
C41 O39 1.258 . S
C42 O44 1.247 . S
C42 O46 1.258 1_556 S
C43 O50 1.247 . S
C43 O51 1.258 1_554 S
O44 C42 1.247 . S
O44 Zn45 2.028 . S
Zn45 O44 2.028 . S
Zn45 O49 2.035 1_556 S
Zn45 O51 2.035 . S
Zn45 O52 2.028 . S
O46 C42 1.258 1_554 S
O46 Zn47 2.035 . S
Zn47 O46 2.035 . S
Zn47 O48 2.028 . S
Zn47 O50 2.028 . S
Zn47 O53 2.035 1_554 S
O48 Zn47 2.028 . S
O48 C54 1.247 . S
O49 Zn45 2.035 1_554 S
O49 C54 1.258 . S
O50 C43 1.247 . S
O50 Zn47 2.028 . S
O51 C43 1.258 1_556 S
O51 Zn45 2.035 . S
O52 Zn45 2.028 . S
O52 C55 1.247 . S
O53 Zn47 2.035 1_556 S
O53 C55 1.258 . S
C54 O48 1.247 . S
C54 O49 1.258 . S
C55 O52 1.247 . S
C55 O53 1.258 . S
C56 O58 1.247 . S
C56 O60 1.258 . S
C57 O64 1.247 . S
C57 O65 1.258 . S
O58 C56 1.247 . S
O58 Zn59 2.028 . S
Zn59 O58 2.028 . S
Zn59 O63 2.035 . S
Zn59 O65 2.035 1_554 S
Zn59 O66 2.028 . S
O60 C56 1.258 . S
O60 Zn61 2.035 1_554 S
Zn61 O60 2.035 1_556 S
Zn61 O62 2.028 . S
Zn61 O64 2.028 . S
Zn61 O67 2.035 . S
O62 Zn61 2.028 . S
O62 C68 1.247 . S
O63 Zn59 2.035 . S
O63 C68 1.258 1_554 S
O64 C57 1.247 . S
O64 Zn61 2.028 . S
O65 C57 1.258 . S
O65 Zn59 2.035 1_556 S
O66 Zn59 2.028 . S
O66 C69 1.247 . S
O67 Zn61 2.035 . S
O67 C69 1.258 1_556 S
C68 O62 1.247 . S
C68 O63 1.258 1_556 S
C69 O66 1.247 . S
C69 O67 1.258 1_554 S
C70 O72 1.247 . S
C70 O74 1.258 . S
C71 O78 1.247 . S
C71 O79 1.258 . S
O72 C70 1.247 . S
O72 Zn73 2.028 1_556 S
Zn73 O72 2.028 1_554 S
Zn73 O77 2.035 . S
Zn73 O79 2.035 . S
Zn73 O80 2.028 . S
O74 C70 1.258 . S
O74 Zn75 2.035 . S
Zn75 O74 2.035 . S
Zn75 O76 2.028 . S
Zn75 O78 2.028 1_556 S
Zn75 O81 2.035 . S
O76 Zn75 2.028 . S
O76 C82 1.232 1_556 S
O77 Zn73 2.035 . S
O77 C82 1.270 . S
O78 C71 1.247 . S
O78 Zn75 2.028 1_554 S
O79 C71 1.258 . S
O79 Zn73 2.035 . S
O80 Zn73 2.028 . S
O80 C83 1.247 1_554 S
O81 Zn75 2.035 . S
O81 C83 1.258 . S
C82 O76 1.232 1_554 S
C82 O77 1.270 . S
C83 O80 1.247 1_556 S
C83 O81 1.258 . S
C84 O86 1.247 1_556 S
C84 O88 1.258 . S
C85 O92 1.232 1_554 S
C85 O93 1.270 . S
O86 C84 1.247 1_554 S
O86 Zn87 2.028 . S
Zn87 O86 2.028 . S
Zn87 O91 2.035 . S
Zn87 O93 2.035 . S
Zn87 O94 2.028 1_554 S
O88 C84 1.258 . S
O88 Zn89 2.035 . S
Zn89 O88 2.035 . S
Zn89 O90 2.028 1_556 S
Zn89 O92 2.028 . S
Zn89 O95 2.035 . S
O90 Zn89 2.028 1_554 S
O90 C96 1.247 . S
O91 Zn87 2.035 . S
O91 C96 1.258 . S
O92 C85 1.232 1_556 S
O92 Zn89 2.028 . S
O93 C85 1.270 . S
O93 Zn87 2.035 . S
O94 Zn87 2.028 1_556 S
O94 C97 1.247 . S
O95 Zn89 2.035 . S
O95 C97 1.258 . S
C96 O90 1.247 . S
C96 O91 1.258 . S
C97 O94 1.247 . S
C97 O95 1.258 . S
C98 O100 1.247 . S
C98 O102 1.258 . S
C99 O106 1.247 . S
C99 O107 1.258 . S
O100 C98 1.247 . S
O100 Zn101 2.028 1_554 S
Zn101 O100 2.028 1_556 S
Zn101 O105 2.035 . S
Zn101 O107 2.035 . S
Zn101 O108 2.028 . S
O102 C98 1.258 . S
O102 Zn103 2.035 . S
Zn103 O102 2.035 . S
Zn103 O104 2.028 . S
Zn103 O106 2.028 1_554 S
Zn103 O109 2.035 . S
O104 Zn103 2.028 . S
O104 C110 1.247 1_554 S
O105 Zn101 2.035 . S
O105 C110 1.258 . S
O106 C99 1.247 . S
O106 Zn103 2.028 1_556 S
O107 C99 1.258 . S
O107 Zn101 2.035 . S
O108 Zn101 2.028 . S
O108 C111 1.232 1_556 S
O109 Zn103 2.035 . S
O109 C111 1.270 . S
C110 O104 1.247 1_556 S
C110 O105 1.258 . S
C111 O108 1.232 1_554 S
C111 O109 1.270 . S
C112 O114 1.247 . S
C112 O116 1.258 . S
C113 O120 1.247 . S
C113 O121 1.258 . S
O114 C112 1.247 . S
O114 Zn115 2.028 1_554 S
Zn115 O114 2.028 1_556 S
Zn115 O119 2.035 . S
Zn115 O121 2.035 . S
Zn115 O122 2.028 . S
O116 C112 1.258 . S
O116 Zn117 2.035 . S
Zn117 O116 2.035 . S
Zn117 O118 2.028 . S
Zn117 O120 2.028 1_554 S
Zn117 O123 2.035 . S
O118 Zn117 2.028 . S
O118 C124 1.247 1_554 S
O119 Zn115 2.035 . S
O119 C124 1.258 . S
O120 C113 1.247 . S
O120 Zn117 2.028 1_556 S
O121 C113 1.258 . S
O121 Zn115 2.035 . S
O122 Zn115 2.028 . S
O122 C125 1.232 1_556 S
O123 Zn117 2.035 . S
O123 C125 1.270 . S
C124 O118 1.247 1_556 S
C124 O119 1.258 . S
C125 O122 1.232 1_554 S
C125 O123 1.270 . S
C126 O128 1.247 . S
C126 O130 1.258 . S
C127 O134 1.247 . S
C127 O135 1.258 . S
O128 C126 1.247 . S
O128 Zn129 2.028 . S
Zn129 O128 2.028 . S
Zn129 O133 2.035 . S
Zn129 O135 2.035 1_554 S
Zn129 O136 2.028 . S
O130 C126 1.258 . S
O130 Zn131 2.035 1_554 S
Zn131 O130 2.035 1_556 S
Zn131 O132 2.028 . S
Zn131 O134 2.028 . S
Zn131 O137 2.035 . S
O132 Zn131 2.028 . S
O132 C138 1.247 . S
O133 Zn129 2.035 . S
O133 C138 1.258 1_554 S
O134 C127 1.247 . S
O134 Zn131 2.028 . S
O135 C127 1.258 . S
O135 Zn129 2.035 1_556 S
O136 Zn129 2.028 . S
O136 C139 1.247 . S
O137 Zn131 2.035 . S
O137 C139 1.258 1_556 S
C138 O132 1.247 . S
C138 O133 1.258 1_556 S
C139 O136 1.247 . S
C139 O137 1.258 1_554 S
C140 O142 1.247 . S
C140 O144 1.258 . S
C141 O148 1.247 . S
C141 O149 1.258 . S
O142 C140 1.247 . S
O142 Zn143 2.028 . S
Zn143 O142 2.028 . S
Zn143 O147 2.035 . S
Zn143 O149 2.035 1_554 S
Zn143 O150 2.028 . S
O144 C140 1.258 . S
O144 Zn145 2.035 1_554 S
Zn145 O144 2.035 1_556 S
Zn145 O146 2.028 . S
Zn145 O148 2.028 . S
Zn145 O151 2.035 . S
O146 Zn145 2.028 . S
O146 C152 1.247 . S
O147 Zn143 2.035 . S
O147 C152 1.258 1_554 S
O148 C141 1.247 . S
O148 Zn145 2.028 . S
O149 C141 1.258 . S
O149 Zn143 2.035 1_556 S
O150 Zn143 2.028 . S
O150 C153 1.247 . S
O151 Zn145 2.035 . S
O151 C153 1.258 1_556 S
C152 O146 1.247 . S
C152 O147 1.258 1_556 S
C153 O150 1.247 . S
C153 O151 1.258 1_554 S
C154 O156 1.247 . S
C154 O158 1.258 . S
C155 O162 1.247 . S
C155 O163 1.258 . S
O156 C154 1.247 . S
O156 Zn157 2.028 1_556 S
Zn157 O156 2.028 1_554 S
Zn157 O161 2.035 . S
Zn157 O163 2.035 . S
Zn157 O164 2.028 . S
O158 C154 1.258 . S
O158 Zn159 2.035 . S
Zn159 O158 2.035 . S
Zn159 O160 2.028 . S
Zn159 O162 2.028 1_556 S
Zn159 O165 2.035 . S
O160 Zn159 2.028 . S
O160 C166 1.247 1_556 S
O161 Zn157 2.035 . S
O161 C166 1.258 . S
O162 C155 1.247 . S
O162 Zn159 2.028 1_554 S
O163 C155 1.258 . S
O163 Zn157 2.035 . S
O164 Zn157 2.028 . S
O164 C167 1.232 1_554 S
O165 Zn159 2.035 . S
O165 C167 1.270 . S
C166 O160 1.247 1_554 S
C166 O161 1.258 . S
C167 O164 1.232 1_556 S
C167 O165 1.270 . S
C168 O170 1.247 . S
C168 O172 1.258 . S
C169 O176 1.247 . S
C169 O177 1.258 . S
O170 C168 1.247 . S
O170 Zn171 2.028 . S
Zn171 O170 2.028 . S
Zn171 O175 2.035 . S
Zn171 O177 2.035 . S
Zn171 O178 2.028 . S
O172 C168 1.258 . S
O172 Zn173 2.035 . S
Zn173 O172 2.035 . S
Zn173 O174 2.028 . S
Zn173 O176 2.028 . S
Zn173 O179 2.035 . S
O174 Zn173 2.028 . S
O174 C180 1.247 . S
O175 Zn171 2.035 . S
O175 C180 1.258 . S
O176 C169 1.247 . S
O176 Zn173 2.028 . S
O177 C169 1.258 . S
O177 Zn171 2.035 . S
O178 Zn171 2.028 . S
O178 C181 1.247 . S
O179 Zn173 2.035 . S
O179 C181 1.258 . S
C180 O174 1.247 . S
C180 O175 1.258 . S
C181 O178 1.247 . S
C181 O179 1.258 . S
C182 O184 1.247 . S
C182 O186 1.258 . S
C183 O190 1.247 . S
C183 O191 1.258 . S
O184 C182 1.247 . S
O184 Zn185 2.028 . S
Zn185 O184 2.028 . S
Zn185 O189 2.035 . S
Zn185 O191 2.035 . S
Zn185 O192 2.028 . S
O186 C182 1.258 . S
O186 Zn187 2.035 . S
Zn187 O186 2.035 . S
Zn187 O188 2.028 . S
Zn187 O190 2.028 . S
Zn187 O193 2.035 . S
O188 Zn187 2.028 . S
O188 C194 1.247 . S
O189 Zn185 2.035 . S
O189 C194 1.258 . S
O190 C183 1.247 . S
O190 Zn187 2.028 . S
O191 C183 1.258 . S
O191 Zn185 2.035 . S
O192 Zn185 2.028 . S
O192 C195 1.247 . S
O193 Zn187 2.035 . S
O193 C195 1.258 . S
C194 O188 1.247 . S
C194 O189 1.258 . S
C195 O192 1.247 . S
C195 O193 1.258 . S
C196 O198 1.247 . S
C196 O200 1.258 . S
C197 O204 1.247 . S
C197 O205 1.258 . S
O198 C196 1.247 . S
O198 Zn199 2.028 . S
Zn199 O198 2.028 . S
Zn199 O203 2.035 . S
Zn199 O205 2.035 . S
Zn199 O206 2.028 . S
O200 C196 1.258 . S
O200 Zn201 2.035 . S
Zn201 O200 2.035 . S
Zn201 O202 2.028 . S
Zn201 O204 2.028 . S
Zn201 O207 2.035 . S
O202 Zn201 2.028 . S
O202 C208 1.247 . S
O203 Zn199 2.035 . S
O203 C208 1.258 . S
O204 C197 1.247 . S
O204 Zn201 2.028 . S
O205 C197 1.258 . S
O205 Zn199 2.035 . S
O206 Zn199 2.028 . S
O206 C209 1.247 . S
O207 Zn201 2.035 . S
O207 C209 1.258 . S
C208 O202 1.247 . S
C208 O203 1.258 . S
C209 O206 1.247 . S
C209 O207 1.258 . S
C210 O212 1.247 . S
C210 O214 1.258 . S
C211 O218 1.247 . S
C211 O219 1.258 . S
O212 C210 1.247 . S
O212 Zn213 2.028 . S
Zn213 O212 2.028 . S
Zn213 O217 2.035 . S
Zn213 O219 2.035 . S
Zn213 O220 2.028 . S
O214 C210 1.258 . S
O214 Zn215 2.035 . S
Zn215 O214 2.035 . S
Zn215 O216 2.028 . S
Zn215 O218 2.028 . S
Zn215 O221 2.035 . S
O216 Zn215 2.028 . S
O216 C222 1.247 . S
O217 Zn213 2.035 . S
O217 C222 1.258 . S
O218 C211 1.247 . S
O218 Zn215 2.028 . S
O219 C211 1.258 . S
O219 Zn213 2.035 . S
O220 Zn213 2.028 . S
O220 C223 1.247 . S
O221 Zn215 2.035 . S
O221 C223 1.258 . S
C222 O216 1.247 . S
C222 O217 1.258 . S
C223 O220 1.247 . S
C223 O221 1.258 . S
C224 O226 1.247 . S
C224 O228 1.258 . S
C225 O232 1.247 . S
C225 O233 1.258 . S
O226 C224 1.247 . S
O226 Zn227 2.028 . S
Zn227 O226 2.028 . S
Zn227 O231 2.035 . S
Zn227 O233 2.035 . S
Zn227 O234 2.028 . S
O228 C224 1.258 . S
O228 Zn229 2.035 . S
Zn229 O228 2.035 . S
Zn229 O230 2.028 . S
Zn229 O232 2.028 . S
Zn229 O235 2.035 . S
O230 Zn229 2.028 . S
O230 C236 1.247 . S
O231 Zn227 2.035 . S
O231 C236 1.258 . S
O232 C225 1.247 . S
O232 Zn229 2.028 . S
O233 C225 1.258 . S
O233 Zn227 2.035 . S
O234 Zn227 2.028 . S
O234 C237 1.247 . S
O235 Zn229 2.035 . S
O235 C237 1.258 . S
C236 O230 1.247 . S
C236 O231 1.258 . S
C237 O234 1.247 . S
C237 O235 1.258 . S
C238 O240 1.247 . S
C238 O242 1.258 . S
C239 O246 1.247 . S
C239 O247 1.258 . S
O240 C238 1.247 . S
O240 Zn241 2.028 . S
Zn241 O240 2.028 . S
Zn241 O245 2.035 . S
Zn241 O247 2.035 . S
Zn241 O248 2.028 . S
O242 C238 1.258 . S
O242 Zn243 2.035 . S
Zn243 O242 2.035 . S
Zn243 O244 2.028 . S
Zn243 O246 2.028 . S
Zn243 O249 2.035 . S
O244 Zn243 2.028 . S
O244 C250 1.247 . S
O245 Zn241 2.035 . S
O245 C250 1.258 . S
O246 C239 1.247 . S
O246 Zn243 2.028 . S
O247 C239 1.258 . S
O247 Zn241 2.035 . S
O248 Zn241 2.028 . S
O248 C251 1.247 . S
O249 Zn243 2.035 . S
O249 C251 1.258 . S
C250 O244 1.247 . S
C250 O245 1.258 . S
C251 O248 1.247 . S
C251 O249 1.258 . S
C252 O254 1.247 . S
C252 O256 1.258 . S
C253 O260 1.247 . S
C253 O261 1.258 . S
O254 C252 1.247 . S
O254 Zn255 2.028 . S
Zn255 O254 2.028 . S
Zn255 O259 2.035 . S
Zn255 O261 2.035 . S
Zn255 O262 2.028 . S
O256 C252 1.258 . S
O256 Zn257 2.035 . S
Zn257 O256 2.035 . S
Zn257 O258 2.028 . S
Zn257 O260 2.028 . S
Zn257 O263 2.035 . S
O258 Zn257 2.028 . S
O258 C264 1.247 . S
O259 Zn255 2.035 . S
O259 C264 1.258 . S
O260 C253 1.247 . S
O260 Zn257 2.028 . S
O261 C253 1.258 . S
O261 Zn255 2.035 . S
O262 Zn255 2.028 . S
O262 C265 1.247 . S
O263 Zn257 2.035 . S
O263 C265 1.258 . S
C264 O258 1.247 . S
C264 O259 1.258 . S
C265 O262 1.247 . S
C265 O263 1.258 . S
C266 O268 1.247 . S
C266 O270 1.258 . S
C267 O274 1.247 . S
C267 O275 1.258 . S
O268 C266 1.247 . S
O268 Zn269 2.028 . S
Zn269 O268 2.028 . S
Zn269 O273 2.035 . S
Zn269 O275 2.035 . S
Zn269 O276 2.028 . S
O270 C266 1.258 . S
O270 Zn271 2.035 . S
Zn271 O270 2.035 . S
Zn271 O272 2.028 . S
Zn271 O274 2.028 . S
Zn271 O277 2.035 . S
O272 Zn271 2.028 . S
O272 C278 1.247 . S
O273 Zn269 2.035 . S
O273 C278 1.258 . S
O274 C267 1.247 . S
O274 Zn271 2.028 . S
O275 C267 1.258 . S
O275 Zn269 2.035 . S
O276 Zn269 2.028 . S
O276 C279 1.247 . S
O277 Zn271 2.035 . S
O277 C279 1.258 . S
C278 O272 1.247 . S
C278 O273 1.258 . S
C279 O276 1.247 . S
C279 O277 1.258 . S
C280 O282 1.247 . S
C280 O284 1.258 . S
C281 O288 1.247 . S
C281 O289 1.258 . S
O282 C280 1.247 . S
O282 Zn283 2.028 . S
Zn283 O282 2.028 . S
Zn283 O287 2.035 . S
Zn283 O289 2.035 . S
Zn283 O290 2.028 . S
O284 C280 1.258 . S
O284 Zn285 2.035 . S
Zn285 O284 2.035 . S
Zn285 O286 2.028 . S
Zn285 O288 2.028 . S
Zn285 O291 2.035 . S
O286 Zn285 2.028 . S
O286 C292 1.247 . S
O287 Zn283 2.035 . S
O287 C292 1.258 . S
O288 C281 1.247 . S
O288 Zn285 2.028 . S
O289 C281 1.258 . S
O289 Zn283 2.035 . S
O290 Zn283 2.028 . S
O290 C293 1.247 . S
O291 Zn285 2.035 . S
O291 C293 1.258 . S
C292 O286 1.247 . S
C292 O287 1.258 . S
C293 O290 1.247 . S
C293 O291 1.258 . S
C294 O296 1.247 . S
C294 O298 1.258 . S
C295 O302 1.247 . S
C295 O303 1.258 . S
O296 C294 1.247 . S
O296 Zn297 2.028 . S
Zn297 O296 2.028 . S
Zn297 O301 2.035 . S
Zn297 O303 2.035 . S
Zn297 O304 2.028 . S
O298 C294 1.258 . S
O298 Zn299 2.035 . S
Zn299 O298 2.035 . S
Zn299 O300 2.028 . S
Zn299 O302 2.028 . S
Zn299 O305 2.035 . S
O300 Zn299 2.028 . S
O300 C306 1.247 . S
O301 Zn297 2.035 . S
O301 C306 1.258 . S
O302 C295 1.247 . S
O302 Zn299 2.028 . S
O303 C295 1.258 . S
O303 Zn297 2.035 . S
O304 Zn297 2.028 . S
O304 C307 1.247 . S
O305 Zn299 2.035 . S
O305 C307 1.258 . S
C306 O300 1.247 . S
C306 O301 1.258 . S
C307 O304 1.247 . S
C307 O305 1.258 . S
C308 O310 1.247 . S
C308 O312 1.258 . S
C309 O316 1.247 . S
C309 O317 1.258 . S
O310 C308 1.247 . S
O310 Zn311 2.028 . S
Zn311 O310 2.028 . S
Zn311 O315 2.035 . S
Zn311 O317 2.035 . S
Zn311 O318 2.028 . S
O312 C308 1.258 . S
O312 Zn313 2.035 . S
Zn313 O312 2.035 . S
Zn313 O314 2.028 . S
Zn313 O316 2.028 . S
Zn313 O319 2.035 . S
O314 Zn313 2.028 . S
O314 C320 1.247 . S
O315 Zn311 2.035 . S
O315 C320 1.258 . S
O316 C309 1.247 . S
O316 Zn313 2.028 . S
O317 C309 1.258 . S
O317 Zn311 2.035 . S
O318 Zn311 2.028 . S
O318 C321 1.247 . S
O319 Zn313 2.035 . S
O319 C321 1.258 . S
C320 O314 1.247 . S
C320 O315 1.258 . S
C321 O318 1.247 . S
C321 O319 1.258 . S
C322 O324 1.247 . S
C322 O326 1.258 . S
C323 O330 1.247 . S
C323 O331 1.258 . S
O324 C322 1.247 . S
O324 Zn325 2.028 . S
Zn325 O324 2.028 . S
Zn325 O329 2.035 . S
Zn325 O331 2.035 . S
Zn325 O332 2.028 . S
O326 C322 1.258 . S
O326 Zn327 2.035 . S
Zn327 O326 2.035 . S
Zn327 O328 2.028 . S
Zn327 O330 2.028 . S
Zn327 O333 2.035 . S
O328 Zn327 2.028 . S
O328 C334 1.247 . S
O329 Zn325 2.035 . S
O329 C334 1.258 . S
O330 C323 1.247 . S
O330 Zn327 2.028 . S
O331 C323 1.258 . S
O331 Zn325 2.035 . S
O332 Zn325 2.028 . S
O332 C335 1.247 . S
O333 Zn327 2.035 . S
O333 C335 1.258 . S
C334 O328 1.247 . S
C334 O329 1.258 . S
C335 O332 1.247 . S
C335 O333 1.258 . S
C336 O338 1.247 . S
C336 O340 1.258 . S
C337 O344 1.247 . S
C337 O345 1.258 . S
O338 C336 1.247 . S
O338 Zn339 2.028 . S
Zn339 O338 2.028 . S
Zn339 O343 2.035 . S
Zn339 O345 2.035 . S
Zn339 O346 2.028 . S
O340 C336 1.258 . S
O340 Zn341 2.035 . S
Zn341 O340 2.035 . S
Zn341 O342 2.028 . S
Zn341 O344 2.028 . S
Zn341 O347 2.035 . S
O342 Zn341 2.028 . S
O342 C348 1.247 . S
O343 Zn339 2.035 . S
O343 C348 1.258 . S
O344 C337 1.247 . S
O344 Zn341 2.028 . S
O345 C337 1.258 . S
O345 Zn339 2.035 . S
O346 Zn339 2.028 . S
O346 C349 1.247 . S
O347 Zn341 2.035 . S
O347 C349 1.258 . S
C348 O342 1.247 . S
C348 O343 1.258 . S
C349 O346 1.247 . S
C349 O347 1.258 . S
C350 O352 1.247 . S
C350 O354 1.258 . S
C351 O358 1.247 . S
C351 O359 1.258 . S
O352 C350 1.247 . S
O352 Zn353 2.028 . S
Zn353 O352 2.028 . S
Zn353 O357 2.035 . S
Zn353 O359 2.035 . S
Zn353 O360 2.028 . S
O354 C350 1.258 . S
O354 Zn355 2.035 . S
Zn355 O354 2.035 . S
Zn355 O356 2.028 . S
Zn355 O358 2.028 . S
Zn355 O361 2.035 . S
O356 Zn355 2.028 . S
O356 C362 1.247 . S
O357 Zn353 2.035 . S
O357 C362 1.258 . S
O358 C351 1.247 . S
O358 Zn355 2.028 . S
O359 C351 1.258 . S
O359 Zn353 2.035 . S
O360 Zn353 2.028 . S
O360 C363 1.247 . S
O361 Zn355 2.035 . S
O361 C363 1.258 . S
C362 O356 1.247 . S
C362 O357 1.258 . S
C363 O360 1.247 . S
C363 O361 1.258 . S
C364 O366 1.247 . S
C364 O368 1.258 . S
C365 O372 1.247 . S
C365 O373 1.258 . S
O366 C364 1.247 . S
O366 Zn367 2.028 . S
Zn367 O366 2.028 . S
Zn367 O371 2.035 . S
Zn367 O373 2.035 . S
Zn367 O374 2.028 . S
O368 C364 1.258 . S
O368 Zn369 2.035 . S
Zn369 O368 2.035 . S
Zn369 O370 2.028 . S
Zn369 O372 2.028 . S
Zn369 O375 2.035 . S
O370 Zn369 2.028 . S
O370 C376 1.247 . S
O371 Zn367 2.035 . S
O371 C376 1.258 . S
O372 C365 1.247 . S
O372 Zn369 2.028 . S
O373 C365 1.258 . S
O373 Zn367 2.035 . S
O374 Zn367 2.028 . S
O374 C377 1.247 . S
O375 Zn369 2.035 . S
O375 C377 1.258 . S
C376 O370 1.247 . S
C376 O371 1.258 . S
C377 O374 1.247 . S
C377 O375 1.258 . S
C378 O380 1.247 . S
C378 O382 1.258 . S
C379 O386 1.247 . S
C379 O387 1.258 . S
O380 C378 1.247 . S
O380 Zn381 2.028 . S
Zn381 O380 2.028 . S
Zn381 O385 2.035 . S
Zn381 O387 2.035 . S
Zn381 O388 2.028 . S
O382 C378 1.258 . S
O382 Zn383 2.035 . S
Zn383 O382 2.035 . S
Zn383 O384 2.028 . S
Zn383 O386 2.028 . S
Zn383 O389 2.035 . S
O384 Zn383 2.028 . S
O384 C390 1.247 . S
O385 Zn381 2.035 . S
O385 C390 1.258 . S
O386 C379 1.247 . S
O386 Zn383 2.028 . S
O387 C379 1.258 . S
O387 Zn381 2.035 . S
O388 Zn381 2.028 . S
O388 C391 1.247 . S
O389 Zn383 2.035 . S
O389 C391 1.258 . S
C390 O384 1.247 . S
C390 O385 1.258 . S
C391 O388 1.247 . S
C391 O389 1.258 . S
C392 O394 1.247 . S
C392 O396 1.258 . S
C393 O400 1.247 . S
C393 O401 1.258 . S
O394 C392 1.247 . S
O394 Zn395 2.028 . S
Zn395 O394 2.028 . S
Zn395 O399 2.035 . S
Zn395 O401 2.035 . S
Zn395 O402 2.028 . S
O396 C392 1.258 . S
O396 Zn397 2.035 . S
Zn397 O396 2.035 . S
Zn397 O398 2.028 . S
Zn397 O400 2.028 . S
Zn397 O403 2.035 . S
O398 Zn397 2.028 . S
O398 C404 1.247 . S
O399 Zn395 2.035 . S
O399 C404 1.258 . S
O400 C393 1.247 . S
O400 Zn397 2.028 . S
O401 C393 1.258 . S
O401 Zn395 2.035 . S
O402 Zn395 2.028 . S
O402 C405 1.247 . S
O403 Zn397 2.035 . S
O403 C405 1.258 . S
C404 O398 1.247 . S
C404 O399 1.258 . S
C405 O402 1.247 . S
C405 O403 1.258 . S
C406 O408 1.247 . S
C406 O410 1.258 . S
C407 O414 1.247 . S
C407 O415 1.258 . S
O408 C406 1.247 . S
O408 Zn409 2.028 . S
Zn409 O408 2.028 . S
Zn409 O413 2.035 . S
Zn409 O415 2.035 . S
Zn409 O416 2.028 . S
O410 C406 1.258 . S
O410 Zn411 2.035 . S
Zn411 O410 2.035 . S
Zn411 O412 2.028 . S
Zn411 O414 2.028 . S
Zn411 O417 2.035 . S
O412 Zn411 2.028 . S
O412 C418 1.247 . S
O413 Zn409 2.035 . S
O413 C418 1.258 . S
O414 C407 1.247 . S
O414 Zn411 2.028 . S
O415 C407 1.258 . S
O415 Zn409 2.035 . S
O416 Zn409 2.028 . S
O416 C419 1.247 . S
O417 Zn411 2.035 . S
O417 C419 1.258 . S
C418 O412 1.247 . S
C418 O413 1.258 . S
C419 O416 1.247 . S
C419 O417 1.258 . S
C420 O422 1.247 . S
C420 O424 1.258 . S
C421 O428 1.247 . S
C421 O429 1.258 . S
O422 C420 1.247 . S
O422 Zn423 2.028 . S
Zn423 O422 2.028 . S
Zn423 O427 2.035 . S
Zn423 O429 2.035 . S
Zn423 O430 2.028 . S
O424 C420 1.258 . S
O424 Zn425 2.035 . S
Zn425 O424 2.035 . S
Zn425 O426 2.028 . S
Zn425 O428 2.028 . S
Zn425 O431 2.035 . S
O426 Zn425 2.028 . S
O426 C432 1.247 . S
O427 Zn423 2.035 . S
O427 C432 1.258 . S
O428 C421 1.247 . S
O428 Zn425 2.028 . S
O429 C421 1.258 . S
O429 Zn423 2.035 . S
O430 Zn423 2.028 . S
O430 C433 1.247 . S
O431 Zn425 2.035 . S
O431 C433 1.258 . S
C432 O426 1.247 . S
C432 O427 1.258 . S
C433 O430 1.247 . S
C433 O431 1.258 . S
C434 O436 1.247 . S
C434 O438 1.258 . S
C435 O442 1.247 . S
C435 O443 1.258 . S
O436 C434 1.247 . S
O436 Zn437 2.028 . S
Zn437 O436 2.028 . S
Zn437 O441 2.035 . S
Zn437 O443 2.035 . S
Zn437 O444 2.028 . S
O438 C434 1.258 . S
O438 Zn439 2.035 . S
Zn439 O438 2.035 . S
Zn439 O440 2.028 . S
Zn439 O442 2.028 . S
Zn439 O445 2.035 . S
O440 Zn439 2.028 . S
O440 C446 1.247 . S
O441 Zn437 2.035 . S
O441 C446 1.258 . S
O442 C435 1.247 . S
O442 Zn439 2.028 . S
O443 C435 1.258 . S
O443 Zn437 2.035 . S
O444 Zn437 2.028 . S
O444 C447 1.247 . S
O445 Zn439 2.035 . S
O445 C447 1.258 . S
C446 O440 1.247 . S
C446 O441 1.258 . S
C447 O444 1.247 . S
C447 O445 1.258 . S
C448 O450 1.247 . S
C448 O452 1.258 . S
C449 O456 1.247 . S
C449 O457 1.258 . S
O450 C448 1.247 . S
O450 Zn451 2.028 . S
Zn451 O450 2.028 . S
Zn451 O455 2.035 . S
Zn451 O457 2.035 . S
Zn451 O458 2.028 . S
O452 C448 1.258 . S
O452 Zn453 2.035 . S
Zn453 O452 2.035 . S
Zn453 O454 2.028 . S
Zn453 O456 2.028 . S
Zn453 O459 2.035 . S
O454 Zn453 2.028 . S
O454 C460 1.247 . S
O455 Zn451 2.035 . S
O455 C460 1.258 . S
O456 C449 1.247 . S
O456 Zn453 2.028 . S
O457 C449 1.258 . S
O457 Zn451 2.035 . S
O458 Zn451 2.028 . S
O458 C461 1.247 . S
O459 Zn453 2.035 . S
O459 C461 1.258 . S
C460 O454 1.247 . S
C460 O455 1.258 . S
C461 O458 1.247 . S
C461 O459 1.258 . S
C462 O464 1.247 . S
C462 O466 1.258 . S
C463 O470 1.247 . S
C463 O471 1.258 . S
O464 C462 1.247 . S
O464 Zn465 2.028 . S
Zn465 O464 2.028 . S
Zn465 O469 2.035 . S
Zn465 O471 2.035 . S
Zn465 O472 2.028 . S
O466 C462 1.258 . S
O466 Zn467 2.035 . S
Zn467 O466 2.035 . S
Zn467 O468 2.028 . S
Zn467 O470 2.028 . S
Zn467 O473 2.035 . S
O468 Zn467 2.028 . S
O468 C474 1.247 . S
O469 Zn465 2.035 . S
O469 C474 1.258 . S
O470 C463 1.247 . S
O470 Zn467 2.028 . S
O471 C463 1.258 . S
O471 Zn465 2.035 . S
O472 Zn465 2.028 . S
O472 C475 1.247 . S
O473 Zn467 2.035 . S
O473 C475 1.258 . S
C474 O468 1.247 . S
C474 O469 1.258 . S
C475 O472 1.247 . S
C475 O473 1.258 . S
C476 O478 1.247 . S
C476 O480 1.258 . S
C477 O484 1.247 . S
C477 O485 1.258 . S
O478 C476 1.247 . S
O478 Zn479 2.028 . S
Zn479 O478 2.028 . S
Zn479 O483 2.035 . S
Zn479 O485 2.035 . S
Zn479 O486 2.028 . S
O480 C476 1.258 . S
O480 Zn481 2.035 . S
Zn481 O480 2.035 . S
Zn481 O482 2.028 . S
Zn481 O484 2.028 . S
Zn481 O487 2.035 . S
O482 Zn481 2.028 . S
O482 C488 1.247 . S
O483 Zn479 2.035 . S
O483 C488 1.258 . S
O484 C477 1.247 . S
O484 Zn481 2.028 . S
O485 C477 1.258 . S
O485 Zn479 2.035 . S
O486 Zn479 2.028 . S
O486 C489 1.247 . S
O487 Zn481 2.035 . S
O487 C489 1.258 . S
C488 O482 1.247 . S
C488 O483 1.258 . S
C489 O486 1.247 . S
C489 O487 1.258 . S
C490 O492 1.247 . S
C490 O494 1.258 . S
C491 O498 1.247 . S
C491 O499 1.258 . S
O492 C490 1.247 . S
O492 Zn493 2.028 . S
Zn493 O492 2.028 . S
Zn493 O497 2.035 . S
Zn493 O499 2.035 . S
Zn493 O500 2.028 . S
O494 C490 1.258 . S
O494 Zn495 2.035 . S
Zn495 O494 2.035 . S
Zn495 O496 2.028 . S
Zn495 O498 2.028 . S
Zn495 O501 2.035 . S
O496 Zn495 2.028 . S
O496 C502 1.247 . S
O497 Zn493 2.035 . S
O497 C502 1.258 . S
O498 C491 1.247 . S
O498 Zn495 2.028 . S
O499 C491 1.258 . S
O499 Zn493 2.035 . S
O500 Zn493 2.028 . S
O500 C503 1.247 . S
O501 Zn495 2.035 . S
O501 C503 1.258 . S
C502 O496 1.247 . S
C502 O497 1.258 . S
C503 O500 1.247 . S
C503 O501 1.258 . S
H504 C510 0.930 . S
H505 C514 0.930 . S
H506 C519 0.929 . S
H507 C517 0.929 . S
H508 C512 0.929 . S
H509 C518 0.929 . S
C510 H504 0.930 . S
C510 C511 1.367 . S
C510 C518 1.378 . S
C511 C510 1.367 . S
C511 C519 1.433 1_556 S
C512 H508 0.929 . S
C512 C514 1.378 . S
C512 C516 1.350 . S
C513 C516 1.463 1_656 S
C513 C518 1.350 . S
C513 N521 1.427 1_556 S
C514 H505 0.930 . S
C514 C512 1.378 . S
C514 C515 1.367 . S
C515 C514 1.367 . S
C515 C517 1.433 1_554 S
C516 C512 1.350 . S
C516 C513 1.463 1_454 S
C516 N520 1.427 1_554 S
C517 H507 0.929 . S
C517 C515 1.433 1_556 S
C517 N520 1.384 . S
C518 H509 0.929 . S
C518 C510 1.378 . S
C518 C513 1.350 . S
C519 H506 0.929 . S
C519 C511 1.433 1_554 S
C519 N521 1.384 . S
N520 C516 1.427 1_556 S
N520 C517 1.384 . S
N521 C513 1.427 1_554 S
N521 C519 1.384 . S
H522 C528 0.930 . S
H523 C532 0.930 . S
H524 C537 0.929 . S
H525 C535 0.929 . S
H526 C530 0.929 . S
H527 C536 0.929 . S
C528 H522 0.930 . S
C528 C529 1.367 1_554 S
C528 C536 1.378 . S
C529 C528 1.367 1_556 S
C529 C537 1.433 . S
C530 H526 0.929 . S
C530 C532 1.378 . S
C530 C534 1.362 . S
C531 C534 1.462 1_554 S
C531 C536 1.355 . S
C531 N539 1.422 1_554 S
C532 H523 0.930 . S
C532 C530 1.378 . S
C532 C533 1.367 1_556 S
C533 C532 1.367 1_554 S
C533 C535 1.433 . S
C534 C530 1.362 . S
C534 C531 1.462 1_556 S
C534 N538 1.415 1_556 S
C535 H525 0.929 . S
C535 C533 1.433 . S
C535 N538 1.384 . S
C536 H527 0.929 . S
C536 C528 1.378 . S
C536 C531 1.355 . S
C537 H524 0.929 . S
C537 C529 1.433 . S
C537 N539 1.384 . S
N538 C534 1.415 1_554 S
N538 C535 1.384 . S
N539 C531 1.422 1_556 S
N539 C537 1.384 . S
H540 C546 0.930 . S
H541 C550 0.930 . S
H542 C555 0.929 . S
H543 C553 0.929 . S
H544 C548 0.929 . S
H545 C554 0.929 . S
C546 H540 0.930 . S
C546 C547 1.367 1_554 S
C546 C554 1.378 . S
C547 C546 1.367 1_556 S
C547 C555 1.433 . S
C548 H544 0.929 . S
C548 C550 1.378 . S
C548 C552 1.363 . S
C549 C552 1.462 1_544 S
C549 C554 1.356 . S
C549 N557 1.421 1_554 S
C550 H541 0.930 . S
C550 C548 1.378 . S
C550 C551 1.367 1_556 S
C551 C550 1.367 1_554 S
C551 C553 1.433 . S
C552 C548 1.363 . S
C552 C549 1.462 1_566 S
C552 N556 1.413 1_556 S
C553 H543 0.929 . S
C553 C551 1.433 . S
C553 N556 1.384 . S
C554 H545 0.929 . S
C554 C546 1.378 . S
C554 C549 1.356 . S
C555 H542 0.929 . S
C555 C547 1.433 . S
C555 N557 1.384 . S
N556 C552 1.413 1_554 S
N556 C553 1.384 . S
N557 C549 1.421 1_556 S
N557 C555 1.384 . S
H558 C564 0.930 . S
H559 C568 0.930 . S
H560 C573 0.930 . S
H561 C571 0.930 . S
H562 C566 0.929 . S
H563 C572 0.929 . S
C564 H558 0.930 . S
C564 C565 1.367 . S
C564 C572 1.378 . S
C565 C564 1.367 . S
C565 C573 1.433 1_554 S
C566 H562 0.929 . S
C566 C568 1.378 . S
C566 C570 1.352 . S
C567 C570 1.461 1_454 S
C567 C572 1.353 . S
C567 N575 1.426 1_554 S
C568 H559 0.930 . S
C568 C566 1.378 . S
C568 C569 1.367 . S
C569 C568 1.367 . S
C569 C571 1.432 1_556 S
C570 C566 1.352 . S
C570 C567 1.461 1_656 S
C570 N574 1.426 1_556 S
C571 H561 0.930 . S
C571 C569 1.432 1_554 S
C571 N574 1.384 . S
C572 H563 0.929 . S
C572 C564 1.378 . S
C572 C567 1.353 . S
C573 H560 0.930 . S
C573 C565 1.433 1_556 S
C573 N575 1.384 . S
N574 C570 1.426 1_554 S
N574 C571 1.384 . S
N575 C567 1.426 1_556 S
N575 C573 1.384 . S
H576 C582 0.930 . S
H577 C586 0.930 . S
H578 C591 0.929 . S
H579 C589 0.929 . S
H580 C584 0.929 . S
H581 C590 0.929 . S
C582 H576 0.930 . S
C582 C583 1.367 1_554 S
C582 C590 1.378 . S
C583 C582 1.367 1_556 S
C583 C591 1.433 . S
C584 H580 0.929 . S
C584 C586 1.378 . S
C584 C588 1.355 . S
C585 C588 1.462 1_554 S
C585 C590 1.350 . S
C585 N593 1.427 1_554 S
C586 H577 0.930 . S
C586 C584 1.378 . S
C586 C587 1.367 1_556 S
C587 C586 1.367 1_554 S
C587 C589 1.433 . S
C588 C584 1.355 . S
C588 C585 1.462 1_556 S
C588 N592 1.421 1_556 S
C589 H579 0.929 . S
C589 C587 1.433 . S
C589 N592 1.384 . S
C590 H581 0.929 . S
C590 C582 1.378 . S
C590 C585 1.350 . S
C591 H578 0.929 . S
C591 C583 1.433 . S
C591 N593 1.384 . S
N592 C588 1.421 1_554 S
N592 C589 1.384 . S
N593 C585 1.427 1_556 S
N593 C591 1.384 . S
H594 C600 0.930 . S
H595 C604 0.930 . S
H596 C609 0.929 . S
H597 C607 0.929 . S
H598 C602 0.929 . S
H599 C608 0.929 . S
C600 H594 0.930 . S
C600 C601 1.367 1_556 S
C600 C608 1.378 . S
C601 C600 1.367 1_554 S
C601 C609 1.433 . S
C602 H598 0.929 . S
C602 C604 1.378 . S
C602 C606 1.357 . S
C603 C606 1.462 1_566 S
C603 C608 1.351 . S
C603 N611 1.426 1_556 S
C604 H595 0.930 . S
C604 C602 1.378 . S
C604 C605 1.367 1_554 S
C605 C604 1.367 1_556 S
C605 C607 1.433 . S
C606 C602 1.357 . S
C606 C603 1.462 1_544 S
C606 N610 1.420 1_554 S
C607 H597 0.929 . S
C607 C605 1.433 . S
C607 N610 1.384 . S
C608 H599 0.929 . S
C608 C600 1.378 . S
C608 C603 1.351 . S
C609 H596 0.929 . S
C609 C601 1.433 . S
C609 N611 1.384 . S
N610 C606 1.420 1_556 S
N610 C607 1.384 . S
N611 C603 1.426 1_554 S
N611 C609 1.384 . S
H612 C618 0.930 . S
H613 C622 0.930 . S
H614 C627 0.929 . S
H615 C625 0.929 . S
H616 C620 0.929 . S
H617 C626 0.929 . S
C618 H612 0.930 . S
C618 C619 1.367 . S
C618 C626 1.378 . S
C619 C618 1.367 . S
C619 C627 1.433 . S
C620 H616 0.929 . S
C620 C622 1.378 . S
C620 C624 1.350 . S
C621 C624 1.463 . S
C621 C626 1.350 . S
C621 N629 1.427 . S
C622 H613 0.930 . S
C622 C620 1.378 . S
C622 C623 1.367 . S
C623 C622 1.367 . S
C623 C625 1.433 . S
C624 C620 1.350 . S
C624 C621 1.463 . S
C624 N628 1.427 . S
C625 H615 0.929 . S
C625 C623 1.433 . S
C625 N628 1.384 . S
C626 H617 0.929 . S
C626 C618 1.378 . S
C626 C621 1.350 . S
C627 H614 0.929 . S
C627 C619 1.433 . S
C627 N629 1.384 . S
N628 C624 1.427 . S
N628 C625 1.384 . S
N629 C621 1.427 . S
N629 C627 1.384 . S
H630 C636 0.930 . S
H631 C640 0.930 . S
H632 C645 0.929 . S
H633 C643 0.929 . S
H634 C638 0.929 . S
H635 C644 0.929 . S
C636 H630 0.930 . S
C636 C637 1.367 . S
C636 C644 1.378 . S
C637 C636 1.367 . S
C637 C645 1.433 . S
C638 H634 0.929 . S
C638 C640 1.378 1_565 S
C638 C642 1.350 . S
C639 C642 1.463 . S
C639 C644 1.350 . S
C639 N647 1.427 . S
C640 H631 0.930 . S
C640 C638 1.378 1_545 S
C640 C641 1.376 1_545 S
C641 C640 1.376 1_565 S
C641 C643 1.457 . S
C642 C638 1.350 . S
C642 C639 1.463 . S
C642 N646 1.427 . S
C643 H633 0.929 . S
C643 C641 1.457 . S
C643 N646 1.384 . S
C644 H635 0.929 . S
C644 C636 1.378 . S
C644 C639 1.350 . S
C645 H632 0.929 . S
C645 C637 1.433 . S
C645 N647 1.384 . S
N646 C642 1.427 . S
N646 C643 1.384 . S
N647 C639 1.427 . S
N647 C645 1.384 . S
H648 C654 0.930 . S
H649 C658 0.930 . S
H650 C663 0.929 . S
H651 C661 0.929 . S
H652 C656 0.929 . S
H653 C662 0.929 . S
C654 H648 0.930 . S
C654 C655 1.407 . S
C654 C662 1.378 . S
C655 C654 1.407 . S
C655 C663 1.395 1_455 S
C656 H652 0.929 . S
C656 C658 1.378 . S
C656 C660 1.350 . S
C657 C660 1.463 . S
C657 C662 1.350 . S
C657 N665 1.427 . S
C658 H649 0.930 . S
C658 C656 1.378 . S
C658 C659 1.367 . S
C659 C658 1.367 . S
C659 C661 1.433 . S
C660 C656 1.350 . S
C660 C657 1.463 . S
C660 N664 1.427 . S
C661 H651 0.929 . S
C661 C659 1.433 . S
C661 N664 1.384 . S
C662 H653 0.929 . S
C662 C654 1.378 . S
C662 C657 1.350 . S
C663 H650 0.929 . S
C663 C655 1.395 1_655 S
C663 N665 1.384 1_655 S
N664 C660 1.427 . S
N664 C661 1.384 . S
N665 C657 1.427 . S
N665 C663 1.384 1_455 S
H666 C672 0.930 . S
H667 C676 0.930 . S
H668 C681 0.929 . S
H669 C679 0.929 . S
H670 C674 0.929 . S
H671 C680 0.929 . S
C672 H666 0.930 . S
C672 C673 1.367 . S
C672 C680 1.378 . S
C673 C672 1.367 . S
C673 C681 1.433 . S
C674 H670 0.929 . S
C674 C676 1.378 . S
C674 C678 1.350 . S
C675 C678 1.463 . S
C675 C680 1.350 . S
C675 N683 1.427 . S
C676 H667 0.930 . S
C676 C674 1.378 . S
C676 C677 1.389 . S
C677 C676 1.389 . S
C677 C679 1.414 1_565 S
C678 C674 1.350 . S
C678 C675 1.463 . S
C678 N682 1.427 . S
C679 H669 0.929 . S
C679 C677 1.414 1_545 S
C679 N682 1.384 1_545 S
C680 H671 0.929 . S
C680 C672 1.378 . S
C680 C675 1.350 . S
C681 H668 0.929 . S
C681 C673 1.433 . S
C681 N683 1.384 . S
N682 C678 1.427 . S
N682 C679 1.384 1_565 S
N683 C675 1.427 . S
N683 C681 1.384 . S
H684 C690 0.930 1_655 S
H685 C694 0.930 . S
H686 C699 0.929 . S
H687 C697 0.929 . S
H688 C692 0.929 . S
H689 C698 0.929 . S
C690 H684 0.930 1_455 S
C690 C691 1.382 . S
C690 C698 1.378 . S
C691 C690 1.382 . S
C691 C699 1.462 . S
C692 H688 0.929 . S
C692 C694 1.378 . S
C692 C696 1.350 . S
C693 C696 1.463 . S
C693 C698 1.350 . S
C693 N701 1.427 . S
C694 H685 0.930 . S
C694 C692 1.378 . S
C694 C695 1.367 . S
C695 C694 1.367 . S
C695 C697 1.433 . S
C696 C692 1.350 . S
C696 C693 1.463 . S
C696 N700 1.427 . S
C697 H687 0.929 . S
C697 C695 1.433 . S
C697 N700 1.384 . S
C698 H689 0.929 . S
C698 C690 1.378 . S
C698 C693 1.350 . S
C699 H686 0.929 . S
C699 C691 1.462 . S
C699 N701 1.384 . S
N700 C696 1.427 . S
N700 C697 1.384 . S
N701 C693 1.427 . S
N701 C699 1.384 . S
H702 C708 0.930 . S
H703 C712 0.930 . S
H704 C717 0.929 . S
H705 C715 0.929 . S
H706 C710 0.929 . S
H707 C716 0.929 . S
C708 H702 0.930 . S
C708 C709 1.367 . S
C708 C716 1.378 . S
C709 C708 1.367 . S
C709 C717 1.433 . S
C710 H706 0.929 . S
C710 C712 1.378 . S
C710 C714 1.350 . S
C711 C714 1.463 . S
C711 C716 1.350 . S
C711 N719 1.427 . S
C712 H703 0.930 . S
C712 C710 1.378 . S
C712 C713 1.367 . S
C713 C712 1.367 . S
C713 C715 1.433 . S
C714 C710 1.350 . S
C714 C711 1.463 . S
C714 N718 1.427 . S
C715 H705 0.929 . S
C715 C713 1.433 . S
C715 N718 1.384 . S
C716 H707 0.929 . S
C716 C708 1.378 . S
C716 C711 1.350 . S
C717 H704 0.929 . S
C717 C709 1.433 . S
C717 N719 1.384 . S
N718 C714 1.427 . S
N718 C715 1.384 . S
N719 C711 1.427 . S
N719 C717 1.384 . S
H720 C726 0.930 . S
H721 C730 0.930 . S
H722 C735 0.929 . S
H723 C733 0.929 . S
H724 C728 0.929 . S
H725 C734 0.929 . S
C726 H720 0.930 . S
C726 C727 1.346 1_565 S
C726 C734 1.378 1_565 S
C727 C726 1.346 1_545 S
C727 C735 1.455 . S
C728 H724 0.929 . S
C728 C730 1.378 . S
C728 C732 1.350 . S
C729 C732 1.463 . S
C729 C734 1.350 . S
C729 N737 1.427 . S
C730 H721 0.930 . S
C730 C728 1.378 . S
C730 C731 1.367 . S
C731 C730 1.367 . S
C731 C733 1.433 . S
C732 C728 1.350 . S
C732 C729 1.463 . S
C732 N736 1.427 . S
C733 H723 0.929 . S
C733 C731 1.433 . S
C733 N736 1.384 . S
C734 H725 0.929 . S
C734 C726 1.378 1_545 S
C734 C729 1.350 . S
C735 H722 0.929 . S
C735 C727 1.455 . S
C735 N737 1.384 . S
N736 C732 1.427 . S
N736 C733 1.384 . S
N737 C729 1.427 . S
N737 C735 1.384 . S
H738 C744 0.930 . S
H739 C748 0.930 . S
H740 C753 0.929 . S
H741 C751 0.929 . S
H742 C746 0.929 . S
H743 C752 0.929 . S
C744 H738 0.930 . S
C744 C745 1.367 . S
C744 C752 1.378 . S
C745 C744 1.367 . S
C745 C753 1.433 . S
C746 H742 0.929 . S
C746 C748 1.378 . S
C746 C750 1.350 . S
C747 C750 1.463 . S
C747 C752 1.350 . S
C747 N755 1.427 . S
C748 H739 0.930 . S
C748 C746 1.378 . S
C748 C749 1.367 . S
C749 C748 1.367 . S
C749 C751 1.433 1_655 S
C750 C746 1.350 . S
C750 C747 1.463 . S
C750 N754 1.427 . S
C751 H741 0.929 . S
C751 C749 1.433 1_455 S
C751 N754 1.384 1_455 S
C752 H743 0.929 . S
C752 C744 1.378 . S
C752 C747 1.350 . S
C753 H740 0.929 . S
C753 C745 1.433 . S
C753 N755 1.384 . S
N754 C750 1.427 . S
N754 C751 1.384 1_655 S
N755 C747 1.427 . S
N755 C753 1.384 . S
H756 C762 0.930 . S
H757 C766 0.930 . S
H758 C771 0.929 . S
H759 C769 0.929 . S
H760 C764 0.929 . S
H761 C770 0.929 . S
C762 H756 0.930 . S
C762 C763 1.367 . S
C762 C770 1.378 . S
C763 C762 1.367 . S
C763 C771 1.433 . S
C764 H760 0.929 . S
C764 C766 1.378 . S
C764 C768 1.350 . S
C765 C768 1.463 . S
C765 C770 1.350 . S
C765 N773 1.427 . S
C766 H757 0.930 . S
C766 C764 1.378 . S
C766 C767 1.367 . S
C767 C766 1.367 . S
C767 C769 1.433 . S
C768 C764 1.350 . S
C768 C765 1.463 . S
C768 N772 1.427 . S
C769 H759 0.929 . S
C769 C767 1.433 . S
C769 N772 1.384 . S
C770 H761 0.929 . S
C770 C762 1.378 . S
C770 C765 1.350 . S
C771 H758 0.929 . S
C771 C763 1.433 . S
C771 N773 1.384 . S
N772 C768 1.427 . S
N772 C769 1.384 . S
N773 C765 1.427 . S
N773 C771 1.384 . S
H774 C780 0.930 . S
H775 C784 0.930 . S
H776 C789 0.929 . S
H777 C787 0.929 . S
H778 C782 0.929 . S
H779 C788 0.929 . S
C780 H774 0.930 . S
C780 C781 1.367 . S
C780 C788 1.378 . S
C781 C780 1.367 . S
C781 C789 1.433 . S
C782 H778 0.929 . S
C782 C784 1.378 . S
C782 C786 1.350 . S
C783 C786 1.463 . S
C783 C788 1.350 . S
C783 N791 1.427 . S
C784 H775 0.930 . S
C784 C782 1.378 . S
C784 C785 1.367 . S
C785 C784 1.367 . S
C785 C787 1.433 . S
C786 C782 1.350 . S
C786 C783 1.463 . S
C786 N790 1.427 . S
C787 H777 0.929 . S
C787 C785 1.433 . S
C787 N790 1.384 . S
C788 H779 0.929 . S
C788 C780 1.378 . S
C788 C783 1.350 . S
C789 H776 0.929 . S
C789 C781 1.433 . S
C789 N791 1.384 . S
N790 C786 1.427 . S
N790 C787 1.384 . S
N791 C783 1.427 . S
N791 C789 1.384 . S
H792 C798 0.930 . S
H793 C802 0.930 . S
H794 C807 0.970 . S
H795 C805 0.929 . S
H796 C800 0.929 . S
H797 C806 0.929 . S
C798 H792 0.930 . S
C798 C799 1.405 . S
C798 C806 1.378 . S
C799 C798 1.405 . S
C799 C807 1.477 1_545 S
C800 H796 0.929 . S
C800 C802 1.378 . S
C800 C804 1.350 . S
C801 C804 1.463 . S
C801 C806 1.350 . S
C801 N809 1.427 . S
C802 H793 0.930 . S
C802 C800 1.378 . S
C802 C803 1.367 . S
C803 C802 1.367 . S
C803 C805 1.433 . S
C804 C800 1.350 . S
C804 C801 1.463 . S
C804 N808 1.427 . S
C805 H795 0.929 . S
C805 C803 1.433 . S
C805 N808 1.384 . S
C806 H797 0.929 . S
C806 C798 1.378 . S
C806 C801 1.350 . S
C807 H794 0.970 . S
C807 C799 1.477 1_565 S
C807 N809 1.324 1_565 S
N808 C804 1.427 . S
N808 C805 1.384 . S
N809 C801 1.427 . S
N809 C807 1.324 1_545 S
H810 C816 0.930 . S
H811 C820 0.930 . S
H812 C825 0.929 . S
H813 C823 0.929 . S
H814 C818 0.929 . S
H815 C824 0.929 . S
C816 H810 0.930 . S
C816 C817 1.353 1_455 S
C816 C824 1.378 1_455 S
C817 C816 1.353 1_655 S
C817 C825 1.448 . S
C818 H814 0.929 . S
C818 C820 1.378 . S
C818 C822 1.350 . S
C819 C822 1.463 . S
C819 C824 1.350 . S
C819 N827 1.427 . S
C820 H811 0.930 . S
C820 C818 1.378 . S
C820 C821 1.367 . S
C821 C820 1.367 . S
C821 C823 1.433 . S
C822 C818 1.350 . S
C822 C819 1.463 . S
C822 N826 1.427 . S
C823 H813 0.929 . S
C823 C821 1.433 . S
C823 N826 1.384 . S
C824 H815 0.929 . S
C824 C816 1.378 1_655 S
C824 C819 1.350 . S
C825 H812 0.929 . S
C825 C817 1.448 . S
C825 N827 1.384 . S
N826 C822 1.427 . S
N826 C823 1.384 . S
N827 C819 1.427 . S
N827 C825 1.384 . S
H828 C834 0.930 . S
H829 C838 0.930 . S
H830 C843 0.929 . S
H831 C841 0.929 . S
H832 C836 0.929 . S
H833 C842 0.929 . S
C834 H828 0.930 . S
C834 C835 1.367 . S
C834 C842 1.378 . S
C835 C834 1.367 . S
C835 C843 1.433 1_556 S
C836 H832 0.929 . S
C836 C838 1.378 . S
C836 C840 1.350 1_554 S
C837 C840 1.463 . S
C837 C842 1.350 . S
C837 N845 1.427 1_556 S
C838 H829 0.930 . S
C838 C836 1.378 . S
C838 C839 1.367 1_554 S
C839 C838 1.367 1_556 S
C839 C841 1.433 . S
C840 C836 1.350 1_556 S
C840 C837 1.463 . S
C840 N844 1.427 . S
C841 H831 0.929 . S
C841 C839 1.433 . S
C841 N844 1.384 . S
C842 H833 0.929 . S
C842 C834 1.378 . S
C842 C837 1.350 . S
C843 H830 0.929 . S
C843 C835 1.433 1_554 S
C843 N845 1.384 . S
N844 C840 1.427 . S
N844 C841 1.384 . S
N845 C837 1.427 1_554 S
N845 C843 1.384 . S
H846 C852 0.930 . S
H847 C856 0.930 . S
H848 C861 0.929 . S
H849 C859 0.929 . S
H850 C854 0.929 . S
H851 C860 0.929 . S
C852 H846 0.930 . S
C852 C853 1.367 1_554 S
C852 C860 1.378 . S
C853 C852 1.367 1_556 S
C853 C861 1.433 . S
C854 H850 0.929 . S
C854 C856 1.378 . S
C854 C858 1.350 . S
C855 C858 1.463 . S
C855 C860 1.350 1_556 S
C855 N863 1.427 . S
C856 H847 0.930 . S
C856 C854 1.378 . S
C856 C857 1.367 . S
C857 C856 1.367 . S
C857 C859 1.433 1_556 S
C858 C854 1.350 . S
C858 C855 1.463 . S
C858 N862 1.427 1_556 S
C859 H849 0.929 . S
C859 C857 1.433 1_554 S
C859 N862 1.384 . S
C860 H851 0.929 . S
C860 C852 1.378 . S
C860 C855 1.350 1_554 S
C861 H848 0.929 . S
C861 C853 1.433 . S
C861 N863 1.384 . S
N862 C858 1.427 1_554 S
N862 C859 1.384 . S
N863 C855 1.427 . S
N863 C861 1.384 . S
H864 C870 0.930 . S
H865 C874 0.930 . S
H866 C879 0.929 . S
H867 C877 0.929 . S
H868 C872 0.929 . S
H869 C878 0.929 . S
C870 H864 0.930 . S
C870 C871 1.367 . S
C870 C878 1.378 . S
C871 C870 1.367 . S
C871 C879 1.433 . S
C872 H868 0.929 . S
C872 C874 1.378 . S
C872 C876 1.350 . S
C873 C876 1.463 . S
C873 C878 1.350 . S
C873 N881 1.427 . S
C874 H865 0.930 . S
C874 C872 1.378 . S
C874 C875 1.367 . S
C875 C874 1.367 . S
C875 C877 1.433 . S
C876 C872 1.350 . S
C876 C873 1.463 . S
C876 N880 1.427 . S
C877 H867 0.929 . S
C877 C875 1.433 . S
C877 N880 1.384 . S
C878 H869 0.929 . S
C878 C870 1.378 . S
C878 C873 1.350 . S
C879 H866 0.929 . S
C879 C871 1.433 . S
C879 N881 1.384 . S
N880 C876 1.427 . S
N880 C877 1.384 . S
N881 C873 1.427 . S
N881 C879 1.384 . S
H882 C888 0.930 . S
H883 C892 0.930 . S
H884 C897 0.929 . S
H885 C895 0.929 . S
H886 C890 0.929 . S
H887 C896 0.929 . S
C888 H882 0.930 . S
C888 C889 1.367 . S
C888 C896 1.378 . S
C889 C888 1.367 . S
C889 C897 1.433 1_554 S
C890 H886 0.929 . S
C890 C892 1.378 . S
C890 C894 1.350 1_556 S
C891 C894 1.463 . S
C891 C896 1.350 . S
C891 N899 1.427 1_554 S
C892 H883 0.930 . S
C892 C890 1.378 . S
C892 C893 1.367 1_556 S
C893 C892 1.367 1_554 S
C893 C895 1.433 . S
C894 C890 1.350 1_554 S
C894 C891 1.463 . S
C894 N898 1.427 . S
C895 H885 0.929 . S
C895 C893 1.433 . S
C895 N898 1.384 . S
C896 H887 0.929 . S
C896 C888 1.378 . S
C896 C891 1.350 . S
C897 H884 0.929 . S
C897 C889 1.433 1_556 S
C897 N899 1.384 . S
N898 C894 1.427 . S
N898 C895 1.384 . S
N899 C891 1.427 1_556 S
N899 C897 1.384 . S
H900 C906 0.930 . S
H901 C910 0.930 . S
H902 C915 0.929 . S
H903 C913 0.929 . S
H904 C908 0.929 . S
H905 C914 0.929 . S
C906 H900 0.930 . S
C906 C907 1.367 . S
C906 C914 1.378 . S
C907 C906 1.367 . S
C907 C915 1.433 1_554 S
C908 H904 0.929 . S
C908 C910 1.378 . S
C908 C912 1.350 1_556 S
C909 C912 1.463 . S
C909 C914 1.350 . S
C909 N917 1.427 1_554 S
C910 H901 0.930 . S
C910 C908 1.378 . S
C910 C911 1.367 1_556 S
C911 C910 1.367 1_554 S
C911 C913 1.433 . S
C912 C908 1.350 1_554 S
C912 C909 1.463 . S
C912 N916 1.427 . S
C913 H903 0.929 . S
C913 C911 1.433 . S
C913 N916 1.384 . S
C914 H905 0.929 . S
C914 C906 1.378 . S
C914 C909 1.350 . S
C915 H902 0.929 . S
C915 C907 1.433 1_556 S
C915 N917 1.384 . S
N916 C912 1.427 . S
N916 C913 1.384 . S
N917 C909 1.427 1_556 S
N917 C915 1.384 . S
H918 C924 0.930 . S
H919 C928 0.930 . S
H920 C933 0.929 . S
H921 C931 0.929 . S
H922 C926 0.929 . S
H923 C932 0.929 . S
C924 H918 0.930 . S
C924 C925 1.367 1_556 S
C924 C932 1.378 . S
C925 C924 1.367 1_554 S
C925 C933 1.433 . S
C926 H922 0.929 . S
C926 C928 1.378 . S
C926 C930 1.350 . S
C927 C930 1.463 . S
C927 C932 1.350 1_554 S
C927 N935 1.427 . S
C928 H919 0.930 . S
C928 C926 1.378 . S
C928 C929 1.367 . S
C929 C928 1.367 . S
C929 C931 1.433 1_554 S
C930 C926 1.350 . S
C930 C927 1.463 . S
C930 N934 1.427 1_554 S
C931 H921 0.929 . S
C931 C929 1.433 1_556 S
C931 N934 1.384 . S
C932 H923 0.929 . S
C932 C924 1.378 . S
C932 C927 1.350 1_556 S
C933 H920 0.929 . S
C933 C925 1.433 . S
C933 N935 1.384 . S
N934 C930 1.427 1_556 S
N934 C931 1.384 . S
N935 C927 1.427 . S
N935 C933 1.384 . S
H936 C942 0.930 . S
H937 C946 0.930 . S
H938 C951 0.929 . S
H939 C949 0.929 . S
H940 C944 0.929 . S
H941 C950 0.929 . S
C942 H936 0.930 . S
C942 C943 1.367 . S
C942 C950 1.378 . S
C943 C942 1.367 . S
C943 C951 1.433 . S
C944 H940 0.929 . S
C944 C946 1.378 . S
C944 C948 1.350 . S
C945 C948 1.463 . S
C945 C950 1.350 . S
C945 N953 1.427 . S
C946 H937 0.930 . S
C946 C944 1.378 . S
C946 C947 1.367 . S
C947 C946 1.367 . S
C947 C949 1.433 . S
C948 C944 1.350 . S
C948 C945 1.463 . S
C948 N952 1.427 . S
C949 H939 0.929 . S
C949 C947 1.433 . S
C949 N952 1.384 . S
C950 H941 0.929 . S
C950 C942 1.378 . S
C950 C945 1.350 . S
C951 H938 0.929 . S
C951 C943 1.433 . S
C951 N953 1.384 . S
N952 C948 1.427 . S
N952 C949 1.384 . S
N953 C945 1.427 . S
N953 C951 1.384 . S
H954 C960 0.930 . S
H955 C964 0.930 . S
H956 C969 0.929 . S
H957 C967 0.929 . S
H958 C962 0.929 . S
H959 C968 0.929 . S
C960 H954 0.930 . S
C960 C961 1.367 . S
C960 C968 1.378 . S
C961 C960 1.367 . S
C961 C969 1.433 . S
C962 H958 0.929 . S
C962 C964 1.378 . S
C962 C966 1.350 . S
C963 C966 1.463 . S
C963 C968 1.350 . S
C963 N971 1.427 . S
C964 H955 0.930 . S
C964 C962 1.378 . S
C964 C965 1.367 . S
C965 C964 1.367 . S
C965 C967 1.433 . S
C966 C962 1.350 . S
C966 C963 1.463 . S
C966 N970 1.427 . S
C967 H957 0.929 . S
C967 C965 1.433 . S
C967 N970 1.384 . S
C968 H959 0.929 . S
C968 C960 1.378 . S
C968 C963 1.350 . S
C969 H956 0.929 . S
C969 C961 1.433 . S
C969 N971 1.384 . S
N970 C966 1.427 . S
N970 C967 1.384 . S
N971 C963 1.427 . S
N971 C969 1.384 . S
H972 C978 0.930 . S
H973 C982 0.930 . S
H974 C987 0.929 . S
H975 C985 0.929 . S
H976 C980 0.929 . S
H977 C986 0.929 . S
C978 H972 0.930 . S
C978 C979 1.367 . S
C978 C986 1.378 . S
C979 C978 1.367 . S
C979 C987 1.433 . S
C980 H976 0.929 . S
C980 C982 1.378 . S
C980 C984 1.350 . S
C981 C984 1.463 . S
C981 C986 1.350 . S
C981 N989 1.427 . S
C982 H973 0.930 . S
C982 C980 1.378 . S
C982 C983 1.367 . S
C983 C982 1.367 . S
C983 C985 1.433 . S
C984 C980 1.350 . S
C984 C981 1.463 . S
C984 N988 1.427 . S
C985 H975 0.929 . S
C985 C983 1.433 . S
C985 N988 1.384 . S
C986 H977 0.929 . S
C986 C978 1.378 . S
C986 C981 1.350 . S
C987 H974 0.929 . S
C987 C979 1.433 . S
C987 N989 1.384 . S
N988 C984 1.427 . S
N988 C985 1.384 . S
N989 C981 1.427 . S
N989 C987 1.384 . S
H990 C996 0.930 . S
H991 C1000 0.930 . S
H992 C1005 0.929 . S
H993 C1003 0.929 . S
H994 C998 0.929 . S
H995 C1004 0.929 . S
C996 H990 0.930 . S
C996 C997 1.367 . S
C996 C1004 1.378 . S
C997 C996 1.367 . S
C997 C1005 1.433 . S
C998 H994 0.929 . S
C998 C1000 1.378 . S
C998 C1002 1.350 . S
C999 C1002 1.463 . S
C999 C1004 1.350 . S
C999 N1007 1.427 . S
C1000 H991 0.930 . S
C1000 C998 1.378 . S
C1000 C1001 1.367 . S
C1001 C1000 1.367 . S
C1001 C1003 1.433 . S
C1002 C998 1.350 . S
C1002 C999 1.463 . S
C1002 N1006 1.427 . S
C1003 H993 0.929 . S
C1003 C1001 1.433 . S
C1003 N1006 1.384 . S
C1004 H995 0.929 . S
C1004 C996 1.378 . S
C1004 C999 1.350 . S
C1005 H992 0.929 . S
C1005 C997 1.433 . S
C1005 N1007 1.384 . S
N1006 C1002 1.427 . S
N1006 C1003 1.384 . S
N1007 C999 1.427 . S
N1007 C1005 1.384 . S
H1008 C1014 0.930 . S
H1009 C1018 0.930 . S
H1010 C1023 0.929 . S
H1011 C1021 0.929 . S
H1012 C1016 0.929 . S
H1013 C1022 0.929 . S
C1014 H1008 0.930 . S
C1014 C1015 1.367 . S
C1014 C1022 1.378 . S
C1015 C1014 1.367 . S
C1015 C1023 1.433 . S
C1016 H1012 0.929 . S
C1016 C1018 1.378 . S
C1016 C1020 1.350 . S
C1017 C1020 1.463 . S
C1017 C1022 1.350 . S
C1017 N1025 1.427 . S
C1018 H1009 0.930 . S
C1018 C1016 1.378 . S
C1018 C1019 1.367 . S
C1019 C1018 1.367 . S
C1019 C1021 1.433 . S
C1020 C1016 1.350 . S
C1020 C1017 1.463 . S
C1020 N1024 1.427 . S
C1021 H1011 0.929 . S
C1021 C1019 1.433 . S
C1021 N1024 1.384 . S
C1022 H1013 0.929 . S
C1022 C1014 1.378 . S
C1022 C1017 1.350 . S
C1023 H1010 0.929 . S
C1023 C1015 1.433 . S
C1023 N1025 1.384 . S
N1024 C1020 1.427 . S
N1024 C1021 1.384 . S
N1025 C1017 1.427 . S
N1025 C1023 1.384 . S
H1026 C1032 0.930 . S
H1027 C1036 0.930 . S
H1028 C1041 0.929 . S
H1029 C1039 0.929 . S
H1030 C1034 0.929 . S
H1031 C1040 0.929 . S
C1032 H1026 0.930 . S
C1032 C1033 1.367 . S
C1032 C1040 1.378 . S
C1033 C1032 1.367 . S
C1033 C1041 1.433 . S
C1034 H1030 0.929 . S
C1034 C1036 1.378 . S
C1034 C1038 1.350 . S
C1035 C1038 1.463 . S
C1035 C1040 1.350 . S
C1035 N1043 1.427 . S
C1036 H1027 0.930 . S
C1036 C1034 1.378 . S
C1036 C1037 1.367 . S
C1037 C1036 1.367 . S
C1037 C1039 1.433 . S
C1038 C1034 1.350 . S
C1038 C1035 1.463 . S
C1038 N1042 1.427 . S
C1039 H1029 0.929 . S
C1039 C1037 1.433 . S
C1039 N1042 1.384 . S
C1040 H1031 0.929 . S
C1040 C1032 1.378 . S
C1040 C1035 1.350 . S
C1041 H1028 0.929 . S
C1041 C1033 1.433 . S
C1041 N1043 1.384 . S
N1042 C1038 1.427 . S
N1042 C1039 1.384 . S
N1043 C1035 1.427 . S
N1043 C1041 1.384 . S
H1044 C1050 0.930 . S
H1045 C1054 0.930 . S
H1046 C1059 0.929 . S
H1047 C1057 0.929 . S
H1048 C1052 0.929 . S
H1049 C1058 0.929 . S
C1050 H1044 0.930 . S
C1050 C1051 1.367 . S
C1050 C1058 1.378 . S
C1051 C1050 1.367 . S
C1051 C1059 1.433 . S
C1052 H1048 0.929 . S
C1052 C1054 1.378 . S
C1052 C1056 1.350 . S
C1053 C1056 1.463 . S
C1053 C1058 1.350 . S
C1053 N1061 1.427 . S
C1054 H1045 0.930 . S
C1054 C1052 1.378 . S
C1054 C1055 1.367 . S
C1055 C1054 1.367 . S
C1055 C1057 1.433 . S
C1056 C1052 1.350 . S
C1056 C1053 1.463 . S
C1056 N1060 1.427 . S
C1057 H1047 0.929 . S
C1057 C1055 1.433 . S
C1057 N1060 1.384 . S
C1058 H1049 0.929 . S
C1058 C1050 1.378 . S
C1058 C1053 1.350 . S
C1059 H1046 0.929 . S
C1059 C1051 1.433 . S
C1059 N1061 1.384 . S
N1060 C1056 1.427 . S
N1060 C1057 1.384 . S
N1061 C1053 1.427 . S
N1061 C1059 1.384 . S
H1062 C1068 0.930 . S
H1063 C1072 0.930 . S
H1064 C1077 0.929 . S
H1065 C1075 0.929 . S
H1066 C1070 0.929 . S
H1067 C1076 0.929 . S
C1068 H1062 0.930 . S
C1068 C1069 1.367 . S
C1068 C1076 1.378 . S
C1069 C1068 1.367 . S
C1069 C1077 1.433 . S
C1070 H1066 0.929 . S
C1070 C1072 1.378 . S
C1070 C1074 1.350 . S
C1071 C1074 1.463 . S
C1071 C1076 1.350 . S
C1071 N1079 1.427 . S
C1072 H1063 0.930 . S
C1072 C1070 1.378 . S
C1072 C1073 1.367 . S
C1073 C1072 1.367 . S
C1073 C1075 1.433 . S
C1074 C1070 1.350 . S
C1074 C1071 1.463 . S
C1074 N1078 1.427 . S
C1075 H1065 0.929 . S
C1075 C1073 1.433 . S
C1075 N1078 1.384 . S
C1076 H1067 0.929 . S
C1076 C1068 1.378 . S
C1076 C1071 1.350 . S
C1077 H1064 0.929 . S
C1077 C1069 1.433 . S
C1077 N1079 1.384 . S
N1078 C1074 1.427 . S
N1078 C1075 1.384 . S
N1079 C1071 1.427 . S
N1079 C1077 1.384 . S
H1080 C1086 0.930 . S
H1081 C1090 0.930 . S
H1082 C1095 0.929 . S
H1083 C1093 0.929 . S
H1084 C1088 0.929 . S
H1085 C1094 0.929 . S
C1086 H1080 0.930 . S
C1086 C1087 1.367 . S
C1086 C1094 1.378 . S
C1087 C1086 1.367 . S
C1087 C1095 1.433 . S
C1088 H1084 0.929 . S
C1088 C1090 1.378 . S
C1088 C1092 1.350 . S
C1089 C1092 1.463 . S
C1089 C1094 1.350 . S
C1089 N1097 1.427 . S
C1090 H1081 0.930 . S
C1090 C1088 1.378 . S
C1090 C1091 1.367 . S
C1091 C1090 1.367 . S
C1091 C1093 1.433 . S
C1092 C1088 1.350 . S
C1092 C1089 1.463 . S
C1092 N1096 1.427 . S
C1093 H1083 0.929 . S
C1093 C1091 1.433 . S
C1093 N1096 1.384 . S
C1094 H1085 0.929 . S
C1094 C1086 1.378 . S
C1094 C1089 1.350 . S
C1095 H1082 0.929 . S
C1095 C1087 1.433 . S
C1095 N1097 1.384 . S
N1096 C1092 1.427 . S
N1096 C1093 1.384 . S
N1097 C1089 1.427 . S
N1097 C1095 1.384 . S
H1098 C1104 0.930 . S
H1099 C1108 0.930 . S
H1100 C1113 0.929 . S
H1101 C1111 0.929 . S
H1102 C1106 0.929 . S
H1103 C1112 0.929 . S
C1104 H1098 0.930 . S
C1104 C1105 1.367 . S
C1104 C1112 1.378 . S
C1105 C1104 1.367 . S
C1105 C1113 1.433 . S
C1106 H1102 0.929 . S
C1106 C1108 1.378 . S
C1106 C1110 1.350 . S
C1107 C1110 1.463 . S
C1107 C1112 1.350 . S
C1107 N1115 1.427 . S
C1108 H1099 0.930 . S
C1108 C1106 1.378 . S
C1108 C1109 1.367 . S
C1109 C1108 1.367 . S
C1109 C1111 1.433 . S
C1110 C1106 1.350 . S
C1110 C1107 1.463 . S
C1110 N1114 1.427 . S
C1111 H1101 0.929 . S
C1111 C1109 1.433 . S
C1111 N1114 1.384 . S
C1112 H1103 0.929 . S
C1112 C1104 1.378 . S
C1112 C1107 1.350 . S
C1113 H1100 0.929 . S
C1113 C1105 1.433 . S
C1113 N1115 1.384 . S
N1114 C1110 1.427 . S
N1114 C1111 1.384 . S
N1115 C1107 1.427 . S
N1115 C1113 1.384 . S
H1116 C1122 0.930 . S
H1117 C1126 0.930 . S
H1118 C1131 0.929 . S
H1119 C1129 0.929 . S
H1120 C1124 0.929 . S
H1121 C1130 0.929 . S
C1122 H1116 0.930 . S
C1122 C1123 1.367 . S
C1122 C1130 1.378 . S
C1123 C1122 1.367 . S
C1123 C1131 1.433 . S
C1124 H1120 0.929 . S
C1124 C1126 1.378 . S
C1124 C1128 1.350 . S
C1125 C1128 1.463 . S
C1125 C1130 1.350 . S
C1125 N1133 1.427 . S
C1126 H1117 0.930 . S
C1126 C1124 1.378 . S
C1126 C1127 1.367 . S
C1127 C1126 1.367 . S
C1127 C1129 1.433 . S
C1128 C1124 1.350 . S
C1128 C1125 1.463 . S
C1128 N1132 1.427 . S
C1129 H1119 0.929 . S
C1129 C1127 1.433 . S
C1129 N1132 1.384 . S
C1130 H1121 0.929 . S
C1130 C1122 1.378 . S
C1130 C1125 1.350 . S
C1131 H1118 0.929 . S
C1131 C1123 1.433 . S
C1131 N1133 1.384 . S
N1132 C1128 1.427 . S
N1132 C1129 1.384 . S
N1133 C1125 1.427 . S
N1133 C1131 1.384 . S
H1134 C1140 0.930 . S
H1135 C1144 0.930 . S
H1136 C1149 0.929 . S
H1137 C1147 0.929 . S
H1138 C1142 0.929 . S
H1139 C1148 0.929 . S
C1140 H1134 0.930 . S
C1140 C1141 1.367 . S
C1140 C1148 1.378 . S
C1141 C1140 1.367 . S
C1141 C1149 1.433 . S
C1142 H1138 0.929 . S
C1142 C1144 1.378 . S
C1142 C1146 1.350 . S
C1143 C1146 1.463 . S
C1143 C1148 1.350 . S
C1143 N1151 1.427 . S
C1144 H1135 0.930 . S
C1144 C1142 1.378 . S
C1144 C1145 1.367 . S
C1145 C1144 1.367 . S
C1145 C1147 1.433 . S
C1146 C1142 1.350 . S
C1146 C1143 1.463 . S
C1146 N1150 1.427 . S
C1147 H1137 0.929 . S
C1147 C1145 1.433 . S
C1147 N1150 1.384 . S
C1148 H1139 0.929 . S
C1148 C1140 1.378 . S
C1148 C1143 1.350 . S
C1149 H1136 0.929 . S
C1149 C1141 1.433 . S
C1149 N1151 1.384 . S
N1150 C1146 1.427 . S
N1150 C1147 1.384 . S
N1151 C1143 1.427 . S
N1151 C1149 1.384 . S
H1152 C1158 0.930 . S
H1153 C1162 0.930 . S
H1154 C1167 0.929 . S
H1155 C1165 0.929 . S
H1156 C1160 0.929 . S
H1157 C1166 0.929 . S
C1158 H1152 0.930 . S
C1158 C1159 1.367 . S
C1158 C1166 1.378 . S
C1159 C1158 1.367 . S
C1159 C1167 1.433 . S
C1160 H1156 0.929 . S
C1160 C1162 1.378 . S
C1160 C1164 1.350 . S
C1161 C1164 1.463 . S
C1161 C1166 1.350 . S
C1161 N1169 1.427 . S
C1162 H1153 0.930 . S
C1162 C1160 1.378 . S
C1162 C1163 1.367 . S
C1163 C1162 1.367 . S
C1163 C1165 1.433 . S
C1164 C1160 1.350 . S
C1164 C1161 1.463 . S
C1164 N1168 1.427 . S
C1165 H1155 0.929 . S
C1165 C1163 1.433 . S
C1165 N1168 1.384 . S
C1166 H1157 0.929 . S
C1166 C1158 1.378 . S
C1166 C1161 1.350 . S
C1167 H1154 0.929 . S
C1167 C1159 1.433 . S
C1167 N1169 1.384 . S
N1168 C1164 1.427 . S
N1168 C1165 1.384 . S
N1169 C1161 1.427 . S
N1169 C1167 1.384 . S
H1170 C1176 0.930 . S
H1171 C1180 0.930 . S
H1172 C1185 0.929 . S
H1173 C1183 0.929 . S
H1174 C1178 0.929 . S
H1175 C1184 0.929 . S
C1176 H1170 0.930 . S
C1176 C1177 1.367 . S
C1176 C1184 1.378 . S
C1177 C1176 1.367 . S
C1177 C1185 1.433 . S
C1178 H1174 0.929 . S
C1178 C1180 1.378 . S
C1178 C1182 1.350 . S
C1179 C1182 1.463 . S
C1179 C1184 1.350 . S
C1179 N1187 1.427 . S
C1180 H1171 0.930 . S
C1180 C1178 1.378 . S
C1180 C1181 1.367 . S
C1181 C1180 1.367 . S
C1181 C1183 1.433 . S
C1182 C1178 1.350 . S
C1182 C1179 1.463 . S
C1182 N1186 1.427 . S
C1183 H1173 0.929 . S
C1183 C1181 1.433 . S
C1183 N1186 1.384 . S
C1184 H1175 0.929 . S
C1184 C1176 1.378 . S
C1184 C1179 1.350 . S
C1185 H1172 0.929 . S
C1185 C1177 1.433 . S
C1185 N1187 1.384 . S
N1186 C1182 1.427 . S
N1186 C1183 1.384 . S
N1187 C1179 1.427 . S
N1187 C1185 1.384 . S
H1188 C1194 0.930 . S
H1189 C1198 0.930 . S
H1190 C1203 0.929 . S
H1191 C1201 0.929 . S
H1192 C1196 0.929 . S
H1193 C1202 0.929 . S
C1194 H1188 0.930 . S
C1194 C1195 1.367 . S
C1194 C1202 1.378 . S
C1195 C1194 1.367 . S
C1195 C1203 1.433 . S
C1196 H1192 0.929 . S
C1196 C1198 1.378 . S
C1196 C1200 1.350 . S
C1197 C1200 1.463 . S
C1197 C1202 1.350 . S
C1197 N1205 1.427 . S
C1198 H1189 0.930 . S
C1198 C1196 1.378 . S
C1198 C1199 1.367 . S
C1199 C1198 1.367 . S
C1199 C1201 1.433 . S
C1200 C1196 1.350 . S
C1200 C1197 1.463 . S
C1200 N1204 1.427 . S
C1201 H1191 0.929 . S
C1201 C1199 1.433 . S
C1201 N1204 1.384 . S
C1202 H1193 0.929 . S
C1202 C1194 1.378 . S
C1202 C1197 1.350 . S
C1203 H1190 0.929 . S
C1203 C1195 1.433 . S
C1203 N1205 1.384 . S
N1204 C1200 1.427 . S
N1204 C1201 1.384 . S
N1205 C1197 1.427 . S
N1205 C1203 1.384 . S
H1206 C1212 0.930 . S
H1207 C1216 0.930 . S
H1208 C1221 0.929 . S
H1209 C1219 0.929 . S
H1210 C1214 0.929 . S
H1211 C1220 0.929 . S
C1212 H1206 0.930 . S
C1212 C1213 1.367 . S
C1212 C1220 1.378 . S
C1213 C1212 1.367 . S
C1213 C1221 1.433 . S
C1214 H1210 0.929 . S
C1214 C1216 1.378 . S
C1214 C1218 1.350 . S
C1215 C1218 1.463 . S
C1215 C1220 1.350 . S
C1215 N1223 1.427 . S
C1216 H1207 0.930 . S
C1216 C1214 1.378 . S
C1216 C1217 1.367 . S
C1217 C1216 1.367 . S
C1217 C1219 1.433 . S
C1218 C1214 1.350 . S
C1218 C1215 1.463 . S
C1218 N1222 1.427 . S
C1219 H1209 0.929 . S
C1219 C1217 1.433 . S
C1219 N1222 1.384 . S
C1220 H1211 0.929 . S
C1220 C1212 1.378 . S
C1220 C1215 1.350 . S
C1221 H1208 0.929 . S
C1221 C1213 1.433 . S
C1221 N1223 1.384 . S
N1222 C1218 1.427 . S
N1222 C1219 1.384 . S
N1223 C1215 1.427 . S
N1223 C1221 1.384 . S
H1224 C1230 0.930 . S
H1225 C1234 0.930 . S
H1226 C1239 0.929 . S
H1227 C1237 0.929 . S
H1228 C1232 0.929 . S
H1229 C1238 0.929 . S
C1230 H1224 0.930 . S
C1230 C1231 1.367 . S
C1230 C1238 1.378 . S
C1231 C1230 1.367 . S
C1231 C1239 1.433 . S
C1232 H1228 0.929 . S
C1232 C1234 1.378 . S
C1232 C1236 1.350 . S
C1233 C1236 1.463 . S
C1233 C1238 1.350 . S
C1233 N1241 1.427 . S
C1234 H1225 0.930 . S
C1234 C1232 1.378 . S
C1234 C1235 1.367 . S
C1235 C1234 1.367 . S
C1235 C1237 1.433 . S
C1236 C1232 1.350 . S
C1236 C1233 1.463 . S
C1236 N1240 1.427 . S
C1237 H1227 0.929 . S
C1237 C1235 1.433 . S
C1237 N1240 1.384 . S
C1238 H1229 0.929 . S
C1238 C1230 1.378 . S
C1238 C1233 1.350 . S
C1239 H1226 0.929 . S
C1239 C1231 1.433 . S
C1239 N1241 1.384 . S
N1240 C1236 1.427 . S
N1240 C1237 1.384 . S
N1241 C1233 1.427 . S
N1241 C1239 1.384 . S
H1242 C1248 0.930 . S
H1243 C1252 0.930 . S
H1244 C1257 0.929 . S
H1245 C1255 0.929 . S
H1246 C1250 0.929 . S
H1247 C1256 0.929 . S
C1248 H1242 0.930 . S
C1248 C1249 1.367 . S
C1248 C1256 1.378 . S
C1249 C1248 1.367 . S
C1249 C1257 1.433 . S
C1250 H1246 0.929 . S
C1250 C1252 1.378 . S
C1250 C1254 1.350 . S
C1251 C1254 1.463 . S
C1251 C1256 1.350 . S
C1251 N1259 1.427 . S
C1252 H1243 0.930 . S
C1252 C1250 1.378 . S
C1252 C1253 1.367 . S
C1253 C1252 1.367 . S
C1253 C1255 1.433 . S
C1254 C1250 1.350 . S
C1254 C1251 1.463 . S
C1254 N1258 1.427 . S
C1255 H1245 0.929 . S
C1255 C1253 1.433 . S
C1255 N1258 1.384 . S
C1256 H1247 0.929 . S
C1256 C1248 1.378 . S
C1256 C1251 1.350 . S
C1257 H1244 0.929 . S
C1257 C1249 1.433 . S
C1257 N1259 1.384 . S
N1258 C1254 1.427 . S
N1258 C1255 1.384 . S
N1259 C1251 1.427 . S
N1259 C1257 1.384 . S
H1260 C1266 0.930 . S
H1261 C1270 0.930 . S
H1262 C1275 0.929 . S
H1263 C1273 0.929 . S
H1264 C1268 0.929 . S
H1265 C1274 0.929 . S
C1266 H1260 0.930 . S
C1266 C1267 1.367 . S
C1266 C1274 1.378 . S
C1267 C1266 1.367 . S
C1267 C1275 1.433 . S
C1268 H1264 0.929 . S
C1268 C1270 1.378 . S
C1268 C1272 1.350 . S
C1269 C1272 1.463 . S
C1269 C1274 1.350 . S
C1269 N1277 1.427 . S
C1270 H1261 0.930 . S
C1270 C1268 1.378 . S
C1270 C1271 1.367 . S
C1271 C1270 1.367 . S
C1271 C1273 1.433 . S
C1272 C1268 1.350 . S
C1272 C1269 1.463 . S
C1272 N1276 1.427 . S
C1273 H1263 0.929 . S
C1273 C1271 1.433 . S
C1273 N1276 1.384 . S
C1274 H1265 0.929 . S
C1274 C1266 1.378 . S
C1274 C1269 1.350 . S
C1275 H1262 0.929 . S
C1275 C1267 1.433 . S
C1275 N1277 1.384 . S
N1276 C1272 1.427 . S
N1276 C1273 1.384 . S
N1277 C1269 1.427 . S
N1277 C1275 1.384 . S
H1278 C1284 0.930 . S
H1279 C1288 0.930 . S
H1280 C1293 0.929 . S
H1281 C1291 0.929 . S
H1282 C1286 0.929 . S
H1283 C1292 0.929 . S
C1284 H1278 0.930 . S
C1284 C1285 1.367 . S
C1284 C1292 1.378 . S
C1285 C1284 1.367 . S
C1285 C1293 1.433 . S
C1286 H1282 0.929 . S
C1286 C1288 1.378 . S
C1286 C1290 1.350 . S
C1287 C1290 1.463 . S
C1287 C1292 1.350 . S
C1287 N1295 1.427 . S
C1288 H1279 0.930 . S
C1288 C1286 1.378 . S
C1288 C1289 1.367 . S
C1289 C1288 1.367 . S
C1289 C1291 1.433 . S
C1290 C1286 1.350 . S
C1290 C1287 1.463 . S
C1290 N1294 1.427 . S
C1291 H1281 0.929 . S
C1291 C1289 1.433 . S
C1291 N1294 1.384 . S
C1292 H1283 0.929 . S
C1292 C1284 1.378 . S
C1292 C1287 1.350 . S
C1293 H1280 0.929 . S
C1293 C1285 1.433 . S
C1293 N1295 1.384 . S
N1294 C1290 1.427 . S
N1294 C1291 1.384 . S
N1295 C1287 1.427 . S
N1295 C1293 1.384 . S
H1296 C1302 0.930 . S
H1297 C1306 0.930 . S
H1298 C1311 0.929 . S
H1299 C1309 0.929 . S
H1300 C1304 0.929 . S
H1301 C1310 0.929 . S
C1302 H1296 0.930 . S
C1302 C1303 1.367 . S
C1302 C1310 1.378 . S
C1303 C1302 1.367 . S
C1303 C1311 1.433 . S
C1304 H1300 0.929 . S
C1304 C1306 1.378 . S
C1304 C1308 1.350 . S
C1305 C1308 1.463 . S
C1305 C1310 1.350 . S
C1305 N1313 1.427 . S
C1306 H1297 0.930 . S
C1306 C1304 1.378 . S
C1306 C1307 1.367 . S
C1307 C1306 1.367 . S
C1307 C1309 1.433 . S
C1308 C1304 1.350 . S
C1308 C1305 1.463 . S
C1308 N1312 1.427 . S
C1309 H1299 0.929 . S
C1309 C1307 1.433 . S
C1309 N1312 1.384 . S
C1310 H1301 0.929 . S
C1310 C1302 1.378 . S
C1310 C1305 1.350 . S
C1311 H1298 0.929 . S
C1311 C1303 1.433 . S
C1311 N1313 1.384 . S
N1312 C1308 1.427 . S
N1312 C1309 1.384 . S
N1313 C1305 1.427 . S
N1313 C1311 1.384 . S
H1314 C1320 0.930 . S
H1315 C1324 0.930 . S
H1316 C1329 0.929 . S
H1317 C1327 0.929 . S
H1318 C1322 0.929 . S
H1319 C1328 0.929 . S
C1320 H1314 0.930 . S
C1320 C1321 1.367 . S
C1320 C1328 1.378 . S
C1321 C1320 1.367 . S
C1321 C1329 1.433 . S
C1322 H1318 0.929 . S
C1322 C1324 1.378 . S
C1322 C1326 1.350 . S
C1323 C1326 1.463 . S
C1323 C1328 1.350 . S
C1323 N1331 1.427 . S
C1324 H1315 0.930 . S
C1324 C1322 1.378 . S
C1324 C1325 1.367 . S
C1325 C1324 1.367 . S
C1325 C1327 1.433 . S
C1326 C1322 1.350 . S
C1326 C1323 1.463 . S
C1326 N1330 1.427 . S
C1327 H1317 0.929 . S
C1327 C1325 1.433 . S
C1327 N1330 1.384 . S
C1328 H1319 0.929 . S
C1328 C1320 1.378 . S
C1328 C1323 1.350 . S
C1329 H1316 0.929 . S
C1329 C1321 1.433 . S
C1329 N1331 1.384 . S
N1330 C1326 1.427 . S
N1330 C1327 1.384 . S
N1331 C1323 1.427 . S
N1331 C1329 1.384 . S
H1332 C1338 0.930 . S
H1333 C1342 0.930 . S
H1334 C1347 0.929 . S
H1335 C1345 0.929 . S
H1336 C1340 0.929 . S
H1337 C1346 0.929 . S
C1338 H1332 0.930 . S
C1338 C1339 1.367 . S
C1338 C1346 1.378 . S
C1339 C1338 1.367 . S
C1339 C1347 1.433 . S
C1340 H1336 0.929 . S
C1340 C1342 1.378 . S
C1340 C1344 1.350 . S
C1341 C1344 1.463 . S
C1341 C1346 1.350 . S
C1341 N1349 1.427 . S
C1342 H1333 0.930 . S
C1342 C1340 1.378 . S
C1342 C1343 1.367 . S
C1343 C1342 1.367 . S
C1343 C1345 1.433 . S
C1344 C1340 1.350 . S
C1344 C1341 1.463 . S
C1344 N1348 1.427 . S
C1345 H1335 0.929 . S
C1345 C1343 1.433 . S
C1345 N1348 1.384 . S
C1346 H1337 0.929 . S
C1346 C1338 1.378 . S
C1346 C1341 1.350 . S
C1347 H1334 0.929 . S
C1347 C1339 1.433 . S
C1347 N1349 1.384 . S
N1348 C1344 1.427 . S
N1348 C1345 1.384 . S
N1349 C1341 1.427 . S
N1349 C1347 1.384 . S
H1350 C1356 0.930 . S
H1351 C1360 0.930 . S
H1352 C1365 0.929 . S
H1353 C1363 0.929 . S
H1354 C1358 0.929 . S
H1355 C1364 0.929 . S
C1356 H1350 0.930 . S
C1356 C1357 1.367 . S
C1356 C1364 1.378 . S
C1357 C1356 1.367 . S
C1357 C1365 1.433 . S
C1358 H1354 0.929 . S
C1358 C1360 1.378 . S
C1358 C1362 1.350 . S
C1359 C1362 1.463 . S
C1359 C1364 1.350 . S
C1359 N1367 1.427 . S
C1360 H1351 0.930 . S
C1360 C1358 1.378 . S
C1360 C1361 1.367 . S
C1361 C1360 1.367 . S
C1361 C1363 1.433 . S
C1362 C1358 1.350 . S
C1362 C1359 1.463 . S
C1362 N1366 1.427 . S
C1363 H1353 0.929 . S
C1363 C1361 1.433 . S
C1363 N1366 1.384 . S
C1364 H1355 0.929 . S
C1364 C1356 1.378 . S
C1364 C1359 1.350 . S
C1365 H1352 0.929 . S
C1365 C1357 1.433 . S
C1365 N1367 1.384 . S
N1366 C1362 1.427 . S
N1366 C1363 1.384 . S
N1367 C1359 1.427 . S
N1367 C1365 1.384 . S
H1368 C1374 0.930 . S
H1369 C1378 0.930 . S
H1370 C1383 0.929 . S
H1371 C1381 0.929 . S
H1372 C1376 0.929 . S
H1373 C1382 0.929 . S
C1374 H1368 0.930 . S
C1374 C1375 1.367 . S
C1374 C1382 1.378 . S
C1375 C1374 1.367 . S
C1375 C1383 1.433 . S
C1376 H1372 0.929 . S
C1376 C1378 1.378 . S
C1376 C1380 1.350 . S
C1377 C1380 1.463 . S
C1377 C1382 1.350 . S
C1377 N1385 1.427 . S
C1378 H1369 0.930 . S
C1378 C1376 1.378 . S
C1378 C1379 1.367 . S
C1379 C1378 1.367 . S
C1379 C1381 1.433 . S
C1380 C1376 1.350 . S
C1380 C1377 1.463 . S
C1380 N1384 1.427 . S
C1381 H1371 0.929 . S
C1381 C1379 1.433 . S
C1381 N1384 1.384 . S
C1382 H1373 0.929 . S
C1382 C1374 1.378 . S
C1382 C1377 1.350 . S
C1383 H1370 0.929 . S
C1383 C1375 1.433 . S
C1383 N1385 1.384 . S
N1384 C1380 1.427 . S
N1384 C1381 1.384 . S
N1385 C1377 1.427 . S
N1385 C1383 1.384 . S
H1386 C1392 0.930 . S
H1387 C1396 0.930 . S
H1388 C1401 0.929 . S
H1389 C1399 0.929 . S
H1390 C1394 0.929 . S
H1391 C1400 0.929 . S
C1392 H1386 0.930 . S
C1392 C1393 1.367 . S
C1392 C1400 1.378 . S
C1393 C1392 1.367 . S
C1393 C1401 1.433 1_545 S
C1394 H1390 0.929 . S
C1394 C1396 1.378 . S
C1394 C1398 1.350 . S
C1395 C1398 1.463 1_545 S
C1395 C1400 1.350 . S
C1395 N1403 1.427 1_545 S
C1396 H1387 0.930 . S
C1396 C1394 1.378 . S
C1396 C1397 1.367 . S
C1397 C1396 1.367 . S
C1397 C1399 1.433 1_565 S
C1398 C1394 1.350 . S
C1398 C1395 1.463 1_565 S
C1398 N1402 1.427 1_565 S
C1399 H1389 0.929 . S
C1399 C1397 1.433 1_545 S
C1399 N1402 1.384 . S
C1400 H1391 0.929 . S
C1400 C1392 1.378 . S
C1400 C1395 1.350 . S
C1401 H1388 0.929 . S
C1401 C1393 1.433 1_565 S
C1401 N1403 1.384 . S
N1402 C1398 1.427 1_545 S
N1402 C1399 1.384 . S
N1403 C1395 1.427 1_565 S
N1403 C1401 1.384 . S
H1404 C1410 0.930 . S
H1405 C1414 0.930 . S
H1406 C1419 0.929 . S
H1407 C1417 0.929 . S
H1408 C1412 0.929 . S
H1409 C1418 0.929 . S
C1410 H1404 0.930 . S
C1410 C1411 1.367 1_655 S
C1410 C1418 1.378 . S
C1411 C1410 1.367 1_455 S
C1411 C1419 1.433 . S
C1412 H1408 0.929 . S
C1412 C1414 1.378 . S
C1412 C1416 1.350 1_455 S
C1413 C1416 1.463 1_455 S
C1413 C1418 1.350 1_455 S
C1413 N1421 1.427 . S
C1414 H1405 0.930 . S
C1414 C1412 1.378 . S
C1414 C1415 1.367 1_455 S
C1415 C1414 1.367 1_655 S
C1415 C1417 1.433 . S
C1416 C1412 1.350 1_655 S
C1416 C1413 1.463 1_655 S
C1416 N1420 1.427 . S
C1417 H1407 0.929 . S
C1417 C1415 1.433 . S
C1417 N1420 1.384 . S
C1418 H1409 0.929 . S
C1418 C1410 1.378 . S
C1418 C1413 1.350 1_655 S
C1419 H1406 0.929 . S
C1419 C1411 1.433 . S
C1419 N1421 1.384 . S
N1420 C1416 1.427 . S
N1420 C1417 1.384 . S
N1421 C1413 1.427 . S
N1421 C1419 1.384 . S
H1422 C1428 0.930 . S
H1423 C1432 0.930 . S
H1424 C1437 0.929 . S
H1425 C1435 0.929 . S
H1426 C1430 0.929 . S
H1427 C1436 0.929 . S
C1428 H1422 0.930 . S
C1428 C1429 1.367 . S
C1428 C1436 1.378 . S
C1429 C1428 1.367 . S
C1429 C1437 1.433 . S
C1430 H1426 0.929 . S
C1430 C1432 1.378 . S
C1430 C1434 1.350 . S
C1431 C1434 1.463 . S
C1431 C1436 1.350 . S
C1431 N1439 1.427 . S
C1432 H1423 0.930 . S
C1432 C1430 1.378 . S
C1432 C1433 1.367 . S
C1433 C1432 1.367 . S
C1433 C1435 1.433 . S
C1434 C1430 1.350 . S
C1434 C1431 1.463 . S
C1434 N1438 1.427 . S
C1435 H1425 0.929 . S
C1435 C1433 1.433 . S
C1435 N1438 1.384 . S
C1436 H1427 0.929 . S
C1436 C1428 1.378 . S
C1436 C1431 1.350 . S
C1437 H1424 0.929 . S
C1437 C1429 1.433 . S
C1437 N1439 1.384 . S
N1438 C1434 1.427 . S
N1438 C1435 1.384 . S
N1439 C1431 1.427 . S
N1439 C1437 1.384 . S
H1440 C1446 0.930 . S
H1441 C1450 0.930 . S
H1442 C1455 0.929 . S
H1443 C1453 0.929 . S
H1444 C1448 0.929 . S
H1445 C1454 0.929 . S
C1446 H1440 0.930 . S
C1446 C1447 1.367 . S
C1446 C1454 1.378 . S
C1447 C1446 1.367 . S
C1447 C1455 1.433 1_565 S
C1448 H1444 0.929 . S
C1448 C1450 1.378 . S
C1448 C1452 1.350 . S
C1449 C1452 1.463 1_565 S
C1449 C1454 1.350 . S
C1449 N1457 1.427 1_565 S
C1450 H1441 0.930 . S
C1450 C1448 1.378 . S
C1450 C1451 1.367 . S
C1451 C1450 1.367 . S
C1451 C1453 1.433 1_545 S
C1452 C1448 1.350 . S
C1452 C1449 1.463 1_545 S
C1452 N1456 1.427 1_545 S
C1453 H1443 0.929 . S
C1453 C1451 1.433 1_565 S
C1453 N1456 1.384 . S
C1454 H1445 0.929 . S
C1454 C1446 1.378 . S
C1454 C1449 1.350 . S
C1455 H1442 0.929 . S
C1455 C1447 1.433 1_545 S
C1455 N1457 1.384 . S
N1456 C1452 1.427 1_565 S
N1456 C1453 1.384 . S
N1457 C1449 1.427 1_545 S
N1457 C1455 1.384 . S
H1458 C1464 0.930 . S
H1459 C1468 0.930 . S
H1460 C1473 0.929 . S
H1461 C1471 0.929 . S
H1462 C1466 0.929 . S
H1463 C1472 0.929 . S
C1464 H1458 0.930 . S
C1464 C1465 1.367 1_655 S
C1464 C1472 1.378 . S
C1465 C1464 1.367 1_455 S
C1465 C1473 1.433 . S
C1466 H1462 0.929 . S
C1466 C1468 1.378 . S
C1466 C1470 1.350 1_455 S
C1467 C1470 1.463 1_455 S
C1467 C1472 1.350 1_455 S
C1467 N1475 1.427 . S
C1468 H1459 0.930 . S
C1468 C1466 1.378 . S
C1468 C1469 1.367 1_455 S
C1469 C1468 1.367 1_655 S
C1469 C1471 1.433 . S
C1470 C1466 1.350 1_655 S
C1470 C1467 1.463 1_655 S
C1470 N1474 1.427 . S
C1471 H1461 0.929 . S
C1471 C1469 1.433 . S
C1471 N1474 1.384 . S
C1472 H1463 0.929 . S
C1472 C1464 1.378 . S
C1472 C1467 1.350 1_655 S
C1473 H1460 0.929 . S
C1473 C1465 1.433 . S
C1473 N1475 1.384 . S
N1474 C1470 1.427 . S
N1474 C1471 1.384 . S
N1475 C1467 1.427 . S
N1475 C1473 1.384 . S
H1476 C1482 0.930 . S
H1477 C1486 0.930 . S
H1478 C1491 0.929 . S
H1479 C1489 0.929 . S
H1480 C1484 0.929 . S
H1481 C1490 0.929 . S
C1482 H1476 0.930 . S
C1482 C1483 1.367 . S
C1482 C1490 1.378 . S
C1483 C1482 1.367 . S
C1483 C1491 1.433 . S
C1484 H1480 0.929 . S
C1484 C1486 1.378 . S
C1484 C1488 1.350 . S
C1485 C1488 1.463 . S
C1485 C1490 1.350 . S
C1485 N1493 1.427 . S
C1486 H1477 0.930 . S
C1486 C1484 1.378 . S
C1486 C1487 1.367 . S
C1487 C1486 1.367 . S
C1487 C1489 1.433 . S
C1488 C1484 1.350 . S
C1488 C1485 1.463 . S
C1488 N1492 1.427 . S
C1489 H1479 0.929 . S
C1489 C1487 1.433 . S
C1489 N1492 1.384 . S
C1490 H1481 0.929 . S
C1490 C1482 1.378 . S
C1490 C1485 1.350 . S
C1491 H1478 0.929 . S
C1491 C1483 1.433 . S
C1491 N1493 1.384 . S
N1492 C1488 1.427 . S
N1492 C1489 1.384 . S
N1493 C1485 1.427 . S
N1493 C1491 1.384 . S
H1494 C1500 0.930 . S
H1495 C1504 0.930 . S
H1496 C1509 0.929 . S
H1497 C1507 0.929 . S
H1498 C1502 0.929 . S
H1499 C1508 0.929 . S
C1500 H1494 0.930 . S
C1500 C1501 1.367 . S
C1500 C1508 1.378 . S
C1501 C1500 1.367 . S
C1501 C1509 1.433 . S
C1502 H1498 0.929 . S
C1502 C1504 1.378 . S
C1502 C1506 1.350 . S
C1503 C1506 1.463 . S
C1503 C1508 1.350 . S
C1503 N1511 1.427 . S
C1504 H1495 0.930 . S
C1504 C1502 1.378 . S
C1504 C1505 1.367 . S
C1505 C1504 1.367 . S
C1505 C1507 1.433 . S
C1506 C1502 1.350 . S
C1506 C1503 1.463 . S
C1506 N1510 1.427 . S
C1507 H1497 0.929 . S
C1507 C1505 1.433 . S
C1507 N1510 1.384 . S
C1508 H1499 0.929 . S
C1508 C1500 1.378 . S
C1508 C1503 1.350 . S
C1509 H1496 0.929 . S
C1509 C1501 1.433 . S
C1509 N1511 1.384 . S
N1510 C1506 1.427 . S
N1510 C1507 1.384 . S
N1511 C1503 1.427 . S
N1511 C1509 1.384 . S
H1512 C1518 0.930 . S
H1513 C1522 0.930 . S
H1514 C1527 0.929 . S
H1515 C1525 0.929 . S
H1516 C1520 0.929 . S
H1517 C1526 0.929 . S
C1518 H1512 0.930 . S
C1518 C1519 1.367 . S
C1518 C1526 1.378 . S
C1519 C1518 1.367 . S
C1519 C1527 1.433 . S
C1520 H1516 0.929 . S
C1520 C1522 1.378 . S
C1520 C1524 1.350 . S
C1521 C1524 1.463 . S
C1521 C1526 1.350 . S
C1521 N1529 1.427 . S
C1522 H1513 0.930 . S
C1522 C1520 1.378 . S
C1522 C1523 1.367 . S
C1523 C1522 1.367 . S
C1523 C1525 1.433 . S
C1524 C1520 1.350 . S
C1524 C1521 1.463 . S
C1524 N1528 1.427 . S
C1525 H1515 0.929 . S
C1525 C1523 1.433 . S
C1525 N1528 1.384 . S
C1526 H1517 0.929 . S
C1526 C1518 1.378 . S
C1526 C1521 1.350 . S
C1527 H1514 0.929 . S
C1527 C1519 1.433 . S
C1527 N1529 1.384 . S
N1528 C1524 1.427 . S
N1528 C1525 1.384 . S
N1529 C1521 1.427 . S
N1529 C1527 1.384 . S
H1530 C1536 0.930 . S
H1531 C1540 0.930 . S
H1532 C1545 0.929 . S
H1533 C1543 0.929 . S
H1534 C1538 0.929 . S
H1535 C1544 0.929 . S
C1536 H1530 0.930 . S
C1536 C1537 1.367 . S
C1536 C1544 1.378 . S
C1537 C1536 1.367 . S
C1537 C1545 1.433 . S
C1538 H1534 0.929 . S
C1538 C1540 1.378 . S
C1538 C1542 1.350 . S
C1539 C1542 1.463 . S
C1539 C1544 1.350 . S
C1539 N1547 1.427 . S
C1540 H1531 0.930 . S
C1540 C1538 1.378 . S
C1540 C1541 1.367 . S
C1541 C1540 1.367 . S
C1541 C1543 1.433 . S
C1542 C1538 1.350 . S
C1542 C1539 1.463 . S
C1542 N1546 1.427 . S
C1543 H1533 0.929 . S
C1543 C1541 1.433 . S
C1543 N1546 1.384 . S
C1544 H1535 0.929 . S
C1544 C1536 1.378 . S
C1544 C1539 1.350 . S
C1545 H1532 0.929 . S
C1545 C1537 1.433 . S
C1545 N1547 1.384 . S
N1546 C1542 1.427 . S
N1546 C1543 1.384 . S
N1547 C1539 1.427 . S
N1547 C1545 1.384 . S
H1548 C1554 0.930 . S
H1549 C1558 0.930 . S
H1550 C1563 0.929 . S
H1551 C1561 0.929 . S
H1552 C1556 0.929 . S
H1553 C1562 0.929 . S
C1554 H1548 0.930 . S
C1554 C1555 1.367 . S
C1554 C1562 1.378 . S
C1555 C1554 1.367 . S
C1555 C1563 1.433 . S
C1556 H1552 0.929 . S
C1556 C1558 1.378 . S
C1556 C1560 1.350 . S
C1557 C1560 1.463 . S
C1557 C1562 1.350 . S
C1557 N1565 1.427 . S
C1558 H1549 0.930 . S
C1558 C1556 1.378 . S
C1558 C1559 1.367 . S
C1559 C1558 1.367 . S
C1559 C1561 1.433 . S
C1560 C1556 1.350 . S
C1560 C1557 1.463 . S
C1560 N1564 1.427 . S
C1561 H1551 0.929 . S
C1561 C1559 1.433 . S
C1561 N1564 1.384 . S
C1562 H1553 0.929 . S
C1562 C1554 1.378 . S
C1562 C1557 1.350 . S
C1563 H1550 0.929 . S
C1563 C1555 1.433 . S
C1563 N1565 1.384 . S
N1564 C1560 1.427 . S
N1564 C1561 1.384 . S
N1565 C1557 1.427 . S
N1565 C1563 1.384 . S
H1566 C1572 0.930 . S
H1567 C1576 0.930 . S
H1568 C1581 0.929 . S
H1569 C1579 0.929 . S
H1570 C1574 0.929 . S
H1571 C1580 0.929 . S
C1572 H1566 0.930 . S
C1572 C1573 1.367 . S
C1572 C1580 1.378 . S
C1573 C1572 1.367 . S
C1573 C1581 1.433 . S
C1574 H1570 0.929 . S
C1574 C1576 1.378 . S
C1574 C1578 1.350 . S
C1575 C1578 1.463 . S
C1575 C1580 1.350 . S
C1575 N1583 1.427 . S
C1576 H1567 0.930 . S
C1576 C1574 1.378 . S
C1576 C1577 1.367 . S
C1577 C1576 1.367 . S
C1577 C1579 1.433 . S
C1578 C1574 1.350 . S
C1578 C1575 1.463 . S
C1578 N1582 1.427 . S
C1579 H1569 0.929 . S
C1579 C1577 1.433 . S
C1579 N1582 1.384 . S
C1580 H1571 0.929 . S
C1580 C1572 1.378 . S
C1580 C1575 1.350 . S
C1581 H1568 0.929 . S
C1581 C1573 1.433 . S
C1581 N1583 1.384 . S
N1582 C1578 1.427 . S
N1582 C1579 1.384 . S
N1583 C1575 1.427 . S
N1583 C1581 1.384 . S
H1584 C1590 0.930 . S
H1585 C1594 0.930 . S
H1586 C1599 0.929 . S
H1587 C1597 0.929 . S
H1588 C1592 0.929 . S
H1589 C1598 0.929 . S
C1590 H1584 0.930 . S
C1590 C1591 1.367 . S
C1590 C1598 1.378 . S
C1591 C1590 1.367 . S
C1591 C1599 1.433 . S
C1592 H1588 0.929 . S
C1592 C1594 1.378 . S
C1592 C1596 1.350 . S
C1593 C1596 1.463 . S
C1593 C1598 1.350 . S
C1593 N1601 1.427 . S
C1594 H1585 0.930 . S
C1594 C1592 1.378 . S
C1594 C1595 1.367 . S
C1595 C1594 1.367 . S
C1595 C1597 1.433 . S
C1596 C1592 1.350 . S
C1596 C1593 1.463 . S
C1596 N1600 1.427 . S
C1597 H1587 0.929 . S
C1597 C1595 1.433 . S
C1597 N1600 1.384 . S
C1598 H1589 0.929 . S
C1598 C1590 1.378 . S
C1598 C1593 1.350 . S
C1599 H1586 0.929 . S
C1599 C1591 1.433 . S
C1599 N1601 1.384 . S
N1600 C1596 1.427 . S
N1600 C1597 1.384 . S
N1601 C1593 1.427 . S
N1601 C1599 1.384 . S
H1602 C1608 0.930 . S
H1603 C1612 0.930 . S
H1604 C1617 0.929 . S
H1605 C1615 0.929 . S
H1606 C1610 0.929 . S
H1607 C1616 0.929 . S
C1608 H1602 0.930 . S
C1608 C1609 1.367 . S
C1608 C1616 1.378 . S
C1609 C1608 1.367 . S
C1609 C1617 1.433 . S
C1610 H1606 0.929 . S
C1610 C1612 1.378 . S
C1610 C1614 1.350 . S
C1611 C1614 1.463 . S
C1611 C1616 1.350 . S
C1611 N1619 1.427 . S
C1612 H1603 0.930 . S
C1612 C1610 1.378 . S
C1612 C1613 1.367 . S
C1613 C1612 1.367 . S
C1613 C1615 1.433 . S
C1614 C1610 1.350 . S
C1614 C1611 1.463 . S
C1614 N1618 1.427 . S
C1615 H1605 0.929 . S
C1615 C1613 1.433 . S
C1615 N1618 1.384 . S
C1616 H1607 0.929 . S
C1616 C1608 1.378 . S
C1616 C1611 1.350 . S
C1617 H1604 0.929 . S
C1617 C1609 1.433 . S
C1617 N1619 1.384 . S
N1618 C1614 1.427 . S
N1618 C1615 1.384 . S
N1619 C1611 1.427 . S
N1619 C1617 1.384 . S
H1620 C1626 0.930 . S
H1621 C1630 0.930 . S
H1622 C1635 0.929 . S
H1623 C1633 0.929 . S
H1624 C1628 0.929 . S
H1625 C1634 0.929 . S
C1626 H1620 0.930 . S
C1626 C1627 1.367 . S
C1626 C1634 1.378 . S
C1627 C1626 1.367 . S
C1627 C1635 1.433 . S
C1628 H1624 0.929 . S
C1628 C1630 1.378 . S
C1628 C1632 1.350 . S
C1629 C1632 1.463 . S
C1629 C1634 1.350 . S
C1629 N1637 1.427 . S
C1630 H1621 0.930 . S
C1630 C1628 1.378 . S
C1630 C1631 1.367 . S
C1631 C1630 1.367 . S
C1631 C1633 1.433 . S
C1632 C1628 1.350 . S
C1632 C1629 1.463 . S
C1632 N1636 1.427 . S
C1633 H1623 0.929 . S
C1633 C1631 1.433 . S
C1633 N1636 1.384 . S
C1634 H1625 0.929 . S
C1634 C1626 1.378 . S
C1634 C1629 1.350 . S
C1635 H1622 0.929 . S
C1635 C1627 1.433 . S
C1635 N1637 1.384 . S
N1636 C1632 1.427 . S
N1636 C1633 1.384 . S
N1637 C1629 1.427 . S
N1637 C1635 1.384 . S
H1638 C1644 0.930 . S
H1639 C1648 0.930 . S
H1640 C1653 0.929 . S
H1641 C1651 0.929 . S
H1642 C1646 0.929 . S
H1643 C1652 0.929 . S
C1644 H1638 0.930 . S
C1644 C1645 1.367 . S
C1644 C1652 1.378 . S
C1645 C1644 1.367 . S
C1645 C1653 1.433 . S
C1646 H1642 0.929 . S
C1646 C1648 1.378 . S
C1646 C1650 1.350 . S
C1647 C1650 1.463 . S
C1647 C1652 1.350 . S
C1647 N1655 1.427 . S
C1648 H1639 0.930 . S
C1648 C1646 1.378 . S
C1648 C1649 1.367 . S
C1649 C1648 1.367 . S
C1649 C1651 1.433 . S
C1650 C1646 1.350 . S
C1650 C1647 1.463 . S
C1650 N1654 1.427 . S
C1651 H1641 0.929 . S
C1651 C1649 1.433 . S
C1651 N1654 1.384 . S
C1652 H1643 0.929 . S
C1652 C1644 1.378 . S
C1652 C1647 1.350 . S
C1653 H1640 0.929 . S
C1653 C1645 1.433 . S
C1653 N1655 1.384 . S
N1654 C1650 1.427 . S
N1654 C1651 1.384 . S
N1655 C1647 1.427 . S
N1655 C1653 1.384 . S
H1656 C1662 0.930 . S
H1657 C1666 0.930 . S
H1658 C1671 0.929 . S
H1659 C1669 0.929 . S
H1660 C1664 0.929 . S
H1661 C1670 0.929 . S
C1662 H1656 0.930 . S
C1662 C1663 1.367 . S
C1662 C1670 1.378 . S
C1663 C1662 1.367 . S
C1663 C1671 1.433 . S
C1664 H1660 0.929 . S
C1664 C1666 1.378 . S
C1664 C1668 1.350 . S
C1665 C1668 1.463 . S
C1665 C1670 1.350 . S
C1665 N1673 1.427 . S
C1666 H1657 0.930 . S
C1666 C1664 1.378 . S
C1666 C1667 1.367 . S
C1667 C1666 1.367 . S
C1667 C1669 1.433 . S
C1668 C1664 1.350 . S
C1668 C1665 1.463 . S
C1668 N1672 1.427 . S
C1669 H1659 0.929 . S
C1669 C1667 1.433 . S
C1669 N1672 1.384 . S
C1670 H1661 0.929 . S
C1670 C1662 1.378 . S
C1670 C1665 1.350 . S
C1671 H1658 0.929 . S
C1671 C1663 1.433 . S
C1671 N1673 1.384 . S
N1672 C1668 1.427 . S
N1672 C1669 1.384 . S
N1673 C1665 1.427 . S
N1673 C1671 1.384 . S
H1674 C1680 0.930 . S
H1675 C1684 0.930 . S
H1676 C1689 0.929 . S
H1677 C1687 0.929 . S
H1678 C1682 0.929 . S
H1679 C1688 0.929 . S
C1680 H1674 0.930 . S
C1680 C1681 1.367 . S
C1680 C1688 1.378 . S
C1681 C1680 1.367 . S
C1681 C1689 1.433 . S
C1682 H1678 0.929 . S
C1682 C1684 1.378 . S
C1682 C1686 1.350 . S
C1683 C1686 1.463 . S
C1683 C1688 1.350 . S
C1683 N1691 1.427 . S
C1684 H1675 0.930 . S
C1684 C1682 1.378 . S
C1684 C1685 1.367 . S
C1685 C1684 1.367 . S
C1685 C1687 1.433 . S
C1686 C1682 1.350 . S
C1686 C1683 1.463 . S
C1686 N1690 1.427 . S
C1687 H1677 0.929 . S
C1687 C1685 1.433 . S
C1687 N1690 1.384 . S
C1688 H1679 0.929 . S
C1688 C1680 1.378 . S
C1688 C1683 1.350 . S
C1689 H1676 0.929 . S
C1689 C1681 1.433 . S
C1689 N1691 1.384 . S
N1690 C1686 1.427 . S
N1690 C1687 1.384 . S
N1691 C1683 1.427 . S
N1691 C1689 1.384 . S
H1692 C1698 0.930 . S
H1693 C1702 0.930 . S
H1694 C1707 0.929 . S
H1695 C1705 0.929 . S
H1696 C1700 0.929 . S
H1697 C1706 0.929 . S
C1698 H1692 0.930 . S
C1698 C1699 1.367 . S
C1698 C1706 1.378 . S
C1699 C1698 1.367 . S
C1699 C1707 1.433 . S
C1700 H1696 0.929 . S
C1700 C1702 1.378 . S
C1700 C1704 1.350 . S
C1701 C1704 1.463 1_455 S
C1701 C1706 1.350 . S
C1701 N1709 1.427 . S
C1702 H1693 0.930 . S
C1702 C1700 1.378 . S
C1702 C1703 1.367 . S
C1703 C1702 1.367 . S
C1703 C1705 1.433 . S
C1704 C1700 1.350 . S
C1704 C1701 1.463 1_655 S
C1704 N1708 1.427 . S
C1705 H1695 0.929 . S
C1705 C1703 1.433 . S
C1705 N1708 1.384 . S
C1706 H1697 0.929 . S
C1706 C1698 1.378 . S
C1706 C1701 1.350 . S
C1707 H1694 0.929 . S
C1707 C1699 1.433 . S
C1707 N1709 1.384 . S
N1708 C1704 1.427 . S
N1708 C1705 1.384 . S
N1709 C1701 1.427 . S
N1709 C1707 1.384 . S
H1710 C1716 0.930 . S
H1711 C1720 0.930 . S
H1712 C1725 0.929 . S
H1713 C1723 0.929 . S
H1714 C1718 0.929 . S
H1715 C1724 0.929 . S
C1716 H1710 0.930 . S
C1716 C1717 1.367 . S
C1716 C1724 1.378 . S
C1717 C1716 1.367 . S
C1717 C1725 1.433 . S
C1718 H1714 0.929 . S
C1718 C1720 1.378 . S
C1718 C1722 1.350 . S
C1719 C1722 1.463 . S
C1719 C1724 1.350 . S
C1719 N1727 1.427 . S
C1720 H1711 0.930 . S
C1720 C1718 1.378 . S
C1720 C1721 1.367 . S
C1721 C1720 1.367 . S
C1721 C1723 1.433 . S
C1722 C1718 1.350 . S
C1722 C1719 1.463 . S
C1722 N1726 1.427 . S
C1723 H1713 0.929 . S
C1723 C1721 1.433 . S
C1723 N1726 1.384 . S
C1724 H1715 0.929 . S
C1724 C1716 1.378 . S
C1724 C1719 1.350 . S
C1725 H1712 0.929 . S
C1725 C1717 1.433 . S
C1725 N1727 1.384 . S
N1726 C1722 1.427 . S
N1726 C1723 1.384 . S
N1727 C1719 1.427 . S
N1727 C1725 1.384 . S
H1728 C1734 0.930 . S
H1729 C1738 0.930 . S
H1730 C1743 0.929 . S
H1731 C1741 0.929 . S
H1732 C1736 0.929 . S
H1733 C1742 0.929 . S
C1734 H1728 0.930 . S
C1734 C1735 1.367 . S
C1734 C1742 1.378 . S
C1735 C1734 1.367 . S
C1735 C1743 1.433 . S
C1736 H1732 0.929 . S
C1736 C1738 1.378 . S
C1736 C1740 1.350 . S
C1737 C1740 1.463 1_545 S
C1737 C1742 1.350 . S
C1737 N1745 1.427 . S
C1738 H1729 0.930 . S
C1738 C1736 1.378 . S
C1738 C1739 1.367 . S
C1739 C1738 1.367 . S
C1739 C1741 1.433 . S
C1740 C1736 1.350 . S
C1740 C1737 1.463 1_565 S
C1740 N1744 1.427 . S
C1741 H1731 0.929 . S
C1741 C1739 1.433 . S
C1741 N1744 1.384 . S
C1742 H1733 0.929 . S
C1742 C1734 1.378 . S
C1742 C1737 1.350 . S
C1743 H1730 0.929 . S
C1743 C1735 1.433 . S
C1743 N1745 1.384 . S
N1744 C1740 1.427 . S
N1744 C1741 1.384 . S
N1745 C1737 1.427 . S
N1745 C1743 1.384 . S
H1746 C1752 0.930 . S
H1747 C1756 0.930 . S
H1748 C1761 0.929 . S
H1749 C1759 0.929 . S
H1750 C1754 0.929 . S
H1751 C1760 0.929 . S
C1752 H1746 0.930 . S
C1752 C1753 1.367 . S
C1752 C1760 1.378 . S
C1753 C1752 1.367 . S
C1753 C1761 1.433 . S
C1754 H1750 0.929 . S
C1754 C1756 1.378 . S
C1754 C1758 1.350 . S
C1755 C1758 1.463 1_565 S
C1755 C1760 1.350 . S
C1755 N1763 1.427 . S
C1756 H1747 0.930 . S
C1756 C1754 1.378 . S
C1756 C1757 1.367 . S
C1757 C1756 1.367 . S
C1757 C1759 1.433 . S
C1758 C1754 1.350 . S
C1758 C1755 1.463 1_545 S
C1758 N1762 1.427 . S
C1759 H1749 0.929 . S
C1759 C1757 1.433 . S
C1759 N1762 1.384 . S
C1760 H1751 0.929 . S
C1760 C1752 1.378 . S
C1760 C1755 1.350 . S
C1761 H1748 0.929 . S
C1761 C1753 1.433 . S
C1761 N1763 1.384 . S
N1762 C1758 1.427 . S
N1762 C1759 1.384 . S
N1763 C1755 1.427 . S
N1763 C1761 1.384 . S
H1764 C1770 0.930 . S
H1765 C1774 0.930 . S
H1766 C1779 0.929 . S
H1767 C1777 0.929 . S
H1768 C1772 0.929 1_655 S
H1769 C1778 0.929 1_455 S
C1770 H1764 0.930 . S
C1770 C1771 1.367 . S
C1770 C1778 1.378 . S
C1771 C1770 1.367 . S
C1771 C1779 1.433 . S
C1772 H1768 0.929 1_455 S
C1772 C1774 1.378 . S
C1772 C1776 1.350 . S
C1773 C1776 1.463 1_655 S
C1773 C1778 1.350 . S
C1773 N1781 1.427 . S
C1774 H1765 0.930 . S
C1774 C1772 1.378 . S
C1774 C1775 1.367 . S
C1775 C1774 1.367 . S
C1775 C1777 1.433 . S
C1776 C1772 1.350 . S
C1776 C1773 1.463 1_455 S
C1776 N1780 1.427 . S
C1777 H1767 0.929 . S
C1777 C1775 1.433 . S
C1777 N1780 1.384 . S
C1778 H1769 0.929 1_655 S
C1778 C1770 1.378 . S
C1778 C1773 1.350 . S
C1779 H1766 0.929 . S
C1779 C1771 1.433 . S
C1779 N1781 1.384 . S
N1780 C1776 1.427 . S
N1780 C1777 1.384 . S
N1781 C1773 1.427 . S
N1781 C1779 1.384 . S
H1782 C1788 0.930 . S
H1783 C1792 0.930 . S
H1784 C1797 0.929 . S
H1785 C1795 0.929 . S
H1786 C1790 0.929 . S
H1787 C1796 0.929 . S
C1788 H1782 0.930 . S
C1788 C1789 1.367 . S
C1788 C1796 1.378 . S
C1789 C1788 1.367 . S
C1789 C1797 1.433 . S
C1790 H1786 0.929 . S
C1790 C1792 1.378 . S
C1790 C1794 1.350 . S
C1791 C1794 1.463 . S
C1791 C1796 1.350 . S
C1791 N1799 1.427 . S
C1792 H1783 0.930 . S
C1792 C1790 1.378 . S
C1792 C1793 1.367 . S
C1793 C1792 1.367 . S
C1793 C1795 1.433 . S
C1794 C1790 1.350 . S
C1794 C1791 1.463 . S
C1794 N1798 1.427 . S
C1795 H1785 0.929 . S
C1795 C1793 1.433 . S
C1795 N1798 1.384 . S
C1796 H1787 0.929 . S
C1796 C1788 1.378 . S
C1796 C1791 1.350 . S
C1797 H1784 0.929 . S
C1797 C1789 1.433 . S
C1797 N1799 1.384 . S
N1798 C1794 1.427 . S
N1798 C1795 1.384 . S
N1799 C1791 1.427 . S
N1799 C1797 1.384 . S
C511 C68 1.220 . S
C515 C13 1.215 . S
C529 C83 1.214 . S
C533 C26 1.210 . S
C547 C42 1.212 . S
C551 C29 1.213 . S
C565 C153 1.221 . S
C569 C84 1.210 . S
C583 C110 1.217 . S
C587 C166 1.210 . S
C601 C139 1.210 . S
C605 C124 1.216 . S
C619 C169 1.245 . S
C623 C236 1.245 . S
C637 C251 1.248 . S
C641 C195 1.206 1_565 S
C655 C208 1.236 1_455 S
C659 C210 1.240 . S
C673 C264 1.242 . S
C677 C309 1.235 1_565 S
C691 C322 1.198 1_455 S
C695 C266 1.245 . S
C709 C280 1.248 . S
C713 C306 1.243 . S
C727 C404 1.235 1_545 S
C731 C349 1.248 . S
C745 C363 1.241 . S
C749 C407 1.249 1_655 S
C763 C390 1.240 . S
C767 C365 1.249 . S
C781 C489 1.246 . S
C785 C432 1.243 . S
C799 C446 1.185 1_545 S
C803 C502 1.242 . S
C817 C448 1.238 1_655 S
C821 C475 1.246 . S
C835 C167 1.710 . S
C839 C12 1.705 . S
C853 C27 1.704 . S
C857 C138 1.709 . S
C871 C152 1.704 . S
C875 C28 1.710 . S
C889 C111 1.707 . S
C893 C43 1.707 . S
C907 C69 1.709 . S
C911 C125 1.704 . S
C925 C85 1.705 . S
C929 C82 1.710 . S
C943 C168 1.775 . S
C947 C323 1.773 . S
C961 C307 1.776 . S
C965 C194 1.772 . S
C979 C308 1.774 . S
C983 C209 1.776 . S
C997 C211 1.749 . S
C1001 C267 1.751 . S
C1015 C237 1.749 . S
C1019 C281 1.750 . S
C1033 C250 1.751 . S
C1037 C265 1.746 . S
C1051 C503 1.746 . S
C1055 C348 1.752 . S
C1069 C362 1.747 . S
C1073 C474 1.752 . S
C1087 C364 1.750 . S
C1091 C488 1.750 . S
C1105 C447 1.772 . S
C1109 C391 1.777 . S
C1123 C449 1.771 . S
C1127 C405 1.777 . S
C1141 C433 1.773 . S
C1145 C406 1.775 . S
C1159 C223 1.691 . S
C1163 C0 1.696 . S
C1177 C225 1.693 . S
C1181 C15 1.691 . S
C1195 C40 1.698 . S
C1199 C238 1.692 . S
C1213 C55 1.695 . S
C1217 C336 1.692 . S
C1231 C57 1.699 . S
C1235 C350 1.690 . S
C1249 C70 1.697 . S
C1253 C376 1.688 . S
C1267 C97 1.700 . S
C1271 C462 1.687 . S
C1285 C99 1.696 . S
C1289 C476 1.688 . S
C1303 C113 1.698 . S
C1307 C491 1.687 . S
C1321 C126 1.698 . S
C1325 C253 1.687 . S
C1339 C279 1.691 . S
C1343 C140 1.693 . S
C1357 C293 1.693 . S
C1361 C155 1.696 . S
C1375 C379 2.002 . S
C1379 C180 2.000 . S
C1393 C182 2.002 . S
C1397 C393 2.000 . S
C1411 C418 2.004 . S
C1415 C197 2.001 . S
C1429 C295 2.003 . S
C1433 C421 2.000 . S
C1447 C435 2.001 . S
C1451 C320 2.001 . S
C1465 C461 2.002 . S
C1469 C335 2.004 . S
C1483 C1 1.900 . S
C1487 C419 1.904 . S
C1501 C14 1.896 . S
C1505 C378 1.909 . S
C1519 C41 1.905 . S
C1523 C392 1.912 . S
C1537 C54 1.898 . S
C1541 C183 1.911 . S
C1555 C196 1.912 . S
C1559 C56 1.904 . S
C1573 C181 1.909 . S
C1577 C71 1.907 . S
C1591 C334 1.903 . S
C1595 C96 1.897 . S
C1609 C294 1.902 . S
C1613 C98 1.898 . S
C1627 C321 1.909 . S
C1631 C112 1.908 . S
C1645 C434 1.902 . S
C1649 C127 1.906 . S
C1663 C460 1.902 . S
C1667 C141 1.907 . S
C1681 C420 1.902 . S
C1685 C154 1.905 . S
C1699 C222 1.629 . S
C1703 C351 1.620 . S
C1717 C377 1.628 . S
C1721 C224 1.624 . S
C1735 C337 1.620 . S
C1739 C239 1.627 . S
C1753 C252 1.626 . S
C1757 C490 1.629 . S
C1771 C463 1.620 . S
C1775 C278 1.617 . S
C1789 C292 1.629 . S
C1793 C477 1.629 . S
