# Generated by pormake.
# Topology zfd, (5)-cn, num edge types: 1
# Building blocks:
#     Node 0, Type 0, BuildingBlock: XOMCOT_clean_sbu_1, # of connection points: 5
#     Node 1, Type 0, BuildingBlock: XOMCOT_clean_sbu_1, # of connection points: 5
#     Node 2, Type 0, BuildingBlock: XOMCOT_clean_sbu_1, # of connection points: 5
#     Node 3, Type 0, BuildingBlock: XOMCOT_clean_sbu_1, # of connection points: 5
#     Node 4, Type 0, BuildingBlock: XOMCOT_clean_sbu_1, # of connection points: 5
#     Node 5, Type 0, BuildingBlock: XOMCOT_clean_sbu_1, # of connection points: 5
#     Node 6, Type 0, BuildingBlock: XOMCOT_clean_sbu_1, # of connection points: 5
#     Node 7, Type 0, BuildingBlock: XOMCOT_clean_sbu_1, # of connection points: 5
#     Node 8, Type 0, BuildingBlock: XOMCOT_clean_sbu_1, # of connection points: 5
#     Node 9, Type 0, BuildingBlock: XOMCOT_clean_sbu_1, # of connection points: 5
#     Node 10, Type 0, BuildingBlock: XOMCOT_clean_sbu_1, # of connection points: 5
#     Node 11, Type 0, BuildingBlock: XOMCOT_clean_sbu_1, # of connection points: 5
#     Node 12, Type 0, BuildingBlock: XOMCOT_clean_sbu_1, # of connection points: 5
#     Node 13, Type 0, BuildingBlock: XOMCOT_clean_sbu_1, # of connection points: 5
#     Node 14, Type 0, BuildingBlock: XOMCOT_clean_sbu_1, # of connection points: 5
#     Node 15, Type 0, BuildingBlock: XOMCOT_clean_sbu_1, # of connection points: 5
#     Edge 16, Type (0, 0), BuildingBlock: XUDNAN_clean_linker_2, # of connection points: 2
#     Edge 17, Type (0, 0), BuildingBlock: XUDNAN_clean_linker_2, # of connection points: 2
#     Edge 18, Type (0, 0), BuildingBlock: XUDNAN_clean_linker_2, # of connection points: 2
#     Edge 19, Type (0, 0), BuildingBlock: XUDNAN_clean_linker_2, # of connection points: 2
#     Edge 20, Type (0, 0), BuildingBlock: XUDNAN_clean_linker_2, # of connection points: 2
#     Edge 21, Type (0, 0), BuildingBlock: XUDNAN_clean_linker_2, # of connection points: 2
#     Edge 22, Type (0, 0), BuildingBlock: XUDNAN_clean_linker_2, # of connection points: 2
#     Edge 23, Type (0, 0), BuildingBlock: XUDNAN_clean_linker_2, # of connection points: 2
#     Edge 24, Type (0, 0), BuildingBlock: XUDNAN_clean_linker_2, # of connection points: 2
#     Edge 25, Type (0, 0), BuildingBlock: XUDNAN_clean_linker_2, # of connection points: 2
#     Edge 26, Type (0, 0), BuildingBlock: XUDNAN_clean_linker_2, # of connection points: 2
#     Edge 27, Type (0, 0), BuildingBlock: XUDNAN_clean_linker_2, # of connection points: 2
#     Edge 28, Type (0, 0), BuildingBlock: XUDNAN_clean_linker_2, # of connection points: 2
#     Edge 29, Type (0, 0), BuildingBlock: XUDNAN_clean_linker_2, # of connection points: 2
#     Edge 30, Type (0, 0), BuildingBlock: XUDNAN_clean_linker_2, # of connection points: 2
#     Edge 31, Type (0, 0), BuildingBlock: XUDNAN_clean_linker_2, # of connection points: 2
#     Edge 32, Type (0, 0), BuildingBlock: XUDNAN_clean_linker_2, # of connection points: 2
#     Edge 33, Type (0, 0), BuildingBlock: XUDNAN_clean_linker_2, # of connection points: 2
#     Edge 34, Type (0, 0), BuildingBlock: XUDNAN_clean_linker_2, # of connection points: 2
#     Edge 35, Type (0, 0), BuildingBlock: XUDNAN_clean_linker_2, # of connection points: 2
#     Edge 36, Type (0, 0), BuildingBlock: XUDNAN_clean_linker_2, # of connection points: 2
#     Edge 37, Type (0, 0), BuildingBlock: XUDNAN_clean_linker_2, # of connection points: 2
#     Edge 38, Type (0, 0), BuildingBlock: XUDNAN_clean_linker_2, # of connection points: 2
#     Edge 39, Type (0, 0), BuildingBlock: XUDNAN_clean_linker_2, # of connection points: 2
#     Edge 40, Type (0, 0), BuildingBlock: XUDNAN_clean_linker_2, # of connection points: 2
#     Edge 41, Type (0, 0), BuildingBlock: XUDNAN_clean_linker_2, # of connection points: 2
#     Edge 42, Type (0, 0), BuildingBlock: XUDNAN_clean_linker_2, # of connection points: 2
#     Edge 43, Type (0, 0), BuildingBlock: XUDNAN_clean_linker_2, # of connection points: 2
#     Edge 44, Type (0, 0), BuildingBlock: XUDNAN_clean_linker_2, # of connection points: 2
#     Edge 45, Type (0, 0), BuildingBlock: XUDNAN_clean_linker_2, # of connection points: 2
#     Edge 46, Type (0, 0), BuildingBlock: XUDNAN_clean_linker_2, # of connection points: 2
#     Edge 47, Type (0, 0), BuildingBlock: XUDNAN_clean_linker_2, # of connection points: 2
#     Edge 48, Type (0, 0), BuildingBlock: XUDNAN_clean_linker_2, # of connection points: 2
#     Edge 49, Type (0, 0), BuildingBlock: XUDNAN_clean_linker_2, # of connection points: 2
#     Edge 50, Type (0, 0), BuildingBlock: XUDNAN_clean_linker_2, # of connection points: 2
#     Edge 51, Type (0, 0), BuildingBlock: XUDNAN_clean_linker_2, # of connection points: 2
#     Edge 52, Type (0, 0), BuildingBlock: XUDNAN_clean_linker_2, # of connection points: 2
#     Edge 53, Type (0, 0), BuildingBlock: XUDNAN_clean_linker_2, # of connection points: 2
#     Edge 54, Type (0, 0), BuildingBlock: XUDNAN_clean_linker_2, # of connection points: 2
#     Edge 55, Type (0, 0), BuildingBlock: XUDNAN_clean_linker_2, # of connection points: 2
# Relax obj value: 0.222
# Max RMSD: 0.192
# Mean RMSD: 0.192
data_MOF--net-zfd--node1-XOMCOT_clean_sbu_1--edge1-XUDNAN_clean_linker_2
_symmetry_space_group_name_H-M    P1
_symmetry_Int_Tables_number       1
_symmetry_cell_setting            triclinic
loop_
_symmetry_equiv_pos_as_xyz
'x, y, z'
_cell_length_a     68.151059
_cell_length_b     67.908867
_cell_length_c     20.180928
_cell_angle_alpha  89.81935
_cell_angle_beta   89.634594
_cell_angle_gamma 89.843054
loop_
_atom_site_label
_atom_site_type_symbol
_atom_site_fract_x
_atom_site_fract_y
_atom_site_fract_z
_atom_type_partial_charge
C0 C 0.11463 0.2223 0.18221 0.0
C1 C 0.1298 0.22234 0.22612 0.0
N2 N 0.14534 0.2137 0.19674 0.0
N3 N 0.12045 0.21352 0.12552 0.0
C4 C 0.13915 0.20801 0.13635 0.0
H5 H 0.10102 0.23023 0.18883 0.0
Co6 Co 0.10774 0.21953 0.04853 0.0
C7 C 0.12312 0.19369 0.93385 0.0
O8 O 0.1195 0.20916 0.89679 0.0
N9 N 0.09412 0.227 0.9731 0.0
C10 C 0.08149 0.24402 0.88953 0.0
C11 C 0.09611 0.24344 0.93554 0.0
C12 C 0.0783 0.2178 0.94832 0.0
N13 N 0.07023 0.22801 0.89829 0.0
O14 O 0.08329 0.2059 0.08614 0.0
H15 H 0.10704 0.25471 0.94124 0.0
H16 H 0.0721 0.20446 0.96892 0.0
O17 O 0.11916 0.19477 0.99726 0.0
C18 C 0.07079 0.21836 0.11085 0.0
O19 O 0.07429 0.23711 0.09967 0.0
N20 N 0.12997 0.23516 1.02334 0.0
C21 C 0.16163 0.2618 1.01367 0.0
C22 C 0.16359 0.24203 0.99369 0.0
C23 C 0.14771 0.22902 0.99882 0.0
C24 C 0.128 0.25405 0.04543 0.0
C25 C 0.14331 0.26766 0.03946 0.0
H26 H 0.15039 0.21381 0.98707 0.0
H27 H 0.11425 0.25862 0.06774 0.0
H28 H 0.14842 0.20133 0.09904 0.0
H29 H 0.12983 0.22963 0.27374 0.0
H30 H 0.07885 0.25575 0.8542 0.0
H31 H 0.17752 0.23624 0.97652 0.0
H32 H 0.14065 0.28263 0.05532 0.0
C33 C 0.78173 0.11431 0.13948 0.0
C34 C 0.77957 0.12986 0.1819 0.0
N35 N 0.7935 0.14316 0.1669 0.0
N36 N 0.79698 0.11775 0.0982 0.0
C37 C 0.80421 0.13522 0.11704 0.0
H38 H 0.77161 0.10219 0.13469 0.0
Co39 Co 0.79849 0.10413 1.02058 0.0
C40 C 0.82566 0.12454 0.92273 0.0
O41 O 0.81084 0.1226 0.88207 0.0
N42 N 0.7991 0.08952 0.9439 0.0
C43 C 0.79468 0.07458 0.84765 0.0
C44 C 0.78606 0.08637 0.89502 0.0
C45 C 0.81525 0.07938 0.92582 0.0
N46 N 0.81306 0.07034 0.86747 0.0
O47 O 0.81335 0.0824 0.06928 0.0
H48 H 0.7713 0.09215 0.89336 0.0
H49 H 0.82856 0.07882 0.95475 0.0
O50 O 0.82371 0.11851 0.98405 0.0
C51 C 0.802 0.06897 0.09405 0.0
O52 O 0.78337 0.06984 0.07787 0.0
N53 N 0.78175 0.1242 0.98304 0.0
C54 C 0.75338 0.15442 0.98511 0.0
C55 C 0.77335 0.15878 0.97953 0.0
C56 C 0.78724 0.1436 0.97896 0.0
C57 C 0.7622 0.11971 0.98515 0.0
C58 C 0.74776 0.13458 0.98544 0.0
H59 H 0.80235 0.14793 0.98338 0.0
H60 H 0.75775 0.10463 0.99364 0.0
H61 H 0.81617 0.1425 0.09155 0.0
H62 H 0.76785 0.1318 0.21774 0.0
H63 H 0.78776 0.06892 0.80352 0.0
H64 H 0.77831 0.17392 0.9811 0.0
H65 H 0.73248 0.13061 0.9918 0.0
C66 C 0.91369 0.79774 0.15825 0.0
C67 C 0.89844 0.80075 0.20161 0.0
N68 N 0.88436 0.81086 0.16955 0.0
N69 N 0.90922 0.80595 0.09939 0.0
C70 C 0.89167 0.81457 0.10854 0.0
H71 H 0.92587 0.78783 0.16643 0.0
Co72 Co 0.91929 0.79547 1.02346 0.0
C73 C 0.90146 0.81751 0.90509 0.0
O74 O 0.89966 0.79994 0.87877 0.0
N75 N 0.92999 0.7839 0.9488 0.0
C76 C 0.93779 0.76415 0.86518 0.0
C77 C 0.92811 0.76544 0.92477 0.0
C78 C 0.94135 0.79331 0.90429 0.0
N79 N 0.94594 0.78176 0.85251 0.0
O80 O 0.94531 0.8084 0.04496 0.0
H81 H 0.9203 0.7535 0.94813 0.0
H82 H 0.94566 0.80858 0.90889 0.0
O83 O 0.90908 0.81885 0.96403 0.0
C84 C 0.95741 0.79652 0.07402 0.0
O85 O 0.95258 0.7778 0.0756 0.0
N86 N 0.89517 0.78087 1.01364 0.0
C87 C 0.86171 0.75689 0.02883 0.0
C88 C 0.86028 0.77586 1.00155 0.0
C89 C 0.87707 0.78764 0.99476 0.0
C90 C 0.89658 0.76268 0.04243 0.0
C91 C 0.88025 0.75029 0.04885 0.0
H92 H 0.87496 0.80255 0.97819 0.0
H93 H 0.91056 0.75785 0.06184 0.0
H94 H 0.88355 0.82154 0.06908 0.0
H95 H 0.89698 0.79407 0.25013 0.0
H96 H 0.93915 0.75118 0.83441 0.0
H97 H 0.84617 0.78178 0.98699 0.0
H98 H 0.88197 0.73599 0.07209 0.0
C99 C 0.1829 0.9148 0.12965 0.0
C100 C 0.18372 0.89922 0.17319 0.0
N101 N 0.19176 0.88381 0.14108 0.0
N102 N 0.19081 0.90915 0.07128 0.0
C103 C 0.19507 0.88991 0.07879 0.0
H104 H 0.17877 0.92973 0.14203 0.0
Co105 Co 0.20187 0.92529 1.00811 0.0
C106 C 0.17648 0.90444 0.91184 0.0
O107 O 0.16246 0.91501 0.93926 0.0
N108 N 0.21249 0.94139 0.94437 0.0
C109 C 0.21423 0.95798 0.84997 0.0
C110 C 0.20186 0.94882 0.89411 0.0
C111 C 0.23121 0.94649 0.93073 0.0
N112 N 0.23267 0.95632 0.87299 0.0
O113 O 0.20745 0.946 0.08094 0.0
H114 H 0.18615 0.94723 0.88923 0.0
H115 H 0.24366 0.94246 0.96088 0.0
O116 O 0.19396 0.90607 0.93534 0.0
C117 C 0.22109 0.95696 0.10531 0.0
O118 O 0.23881 0.95584 0.07969 0.0
N119 N 0.22689 0.91166 1.01986 0.0
C120 C 0.25803 0.88477 0.04186 0.0
C121 C 0.25047 0.88792 0.97807 0.0
C122 C 0.23504 0.90137 0.96815 0.0
C123 C 0.23495 0.90974 0.08151 0.0
C124 C 0.2504 0.8965 0.09341 0.0
H125 H 0.22918 0.90292 0.9188 0.0
H126 H 0.22852 0.91733 0.12328 0.0
H127 H 0.20304 0.88133 0.04229 0.0
H128 H 0.18002 0.89957 0.22543 0.0
H129 H 0.20999 0.96549 0.80484 0.0
H130 H 0.25572 0.87939 0.93634 0.0
H131 H 0.25589 0.89508 0.14342 0.0
C132 C 0.11988 0.77718 0.34397 0.0
C133 C 0.13735 0.77531 0.31039 0.0
N134 N 0.1501 0.78811 0.33671 0.0
N135 N 0.12149 0.79141 0.3902 0.0
C136 C 0.14005 0.79792 0.38407 0.0
H137 H 0.10749 0.76746 0.33882 0.0
Co138 Co 0.10532 0.79295 0.46325 0.0
C139 C 0.11336 0.83167 0.53708 0.0
O140 O 0.09441 0.83483 0.54317 0.0
N141 N 0.08925 0.79329 0.53716 0.0
C142 C 0.07818 0.79436 0.64082 0.0
C143 C 0.09467 0.79359 0.6015 0.0
C144 C 0.06954 0.79352 0.53871 0.0
N145 N 0.06248 0.79431 0.6008 0.0
O146 O 0.085 0.80812 0.40869 0.0
H147 H 0.10964 0.79369 0.61885 0.0
H148 H 0.06035 0.79351 0.49553 0.0
O149 O 0.11925 0.81739 0.49969 0.0
C150 C 0.0735 0.79649 0.37621 0.0
O151 O 0.07568 0.77752 0.38693 0.0
N152 N 0.12352 0.77631 0.50796 0.0
C153 C 0.15228 0.74814 0.54011 0.0
C154 C 0.15556 0.76835 0.54992 0.0
C155 C 0.14108 0.78213 0.53373 0.0
C156 C 0.11965 0.75673 0.5009 0.0
C157 C 0.13379 0.74241 0.5166 0.0
H158 H 0.14469 0.79745 0.53864 0.0
H159 H 0.10587 0.75223 0.47943 0.0
H160 H 0.1464 0.8089 0.4161 0.0
H161 H 0.1407 0.76475 0.27186 0.0
H162 H 0.07776 0.79477 0.69443 0.0
H163 H 0.16961 0.77369 0.56677 0.0
H164 H 0.13037 0.72703 0.50894 0.0
C165 C 0.226 0.10159 0.39457 0.0
C166 C 0.22511 0.11758 0.35321 0.0
N167 N 0.22394 0.13378 0.39094 0.0
N168 N 0.22528 0.10765 0.45837 0.0
C169 C 0.22342 0.1274 0.454 0.0
H170 H 0.22862 0.08682 0.37772 0.0
Co171 Co 0.23502 0.09394 0.53145 0.0
C172 C 0.19698 0.1144 0.59438 0.0
O173 O 0.18857 0.11805 0.53726 0.0
N174 N 0.24573 0.0807 0.60339 0.0
C175 C 0.25731 0.07496 0.70431 0.0
C176 C 0.24578 0.08713 0.66666 0.0
C177 C 0.2576 0.06476 0.6038 0.0
N178 N 0.2648 0.06091 0.6646 0.0
O179 O 0.21997 0.06953 0.50236 0.0
H180 H 0.23828 0.1001 0.68451 0.0
H181 H 0.26116 0.05615 0.5606 0.0
O182 O 0.21351 0.10499 0.59462 0.0
C183 C 0.23075 0.05901 0.46258 0.0
O184 O 0.24884 0.06506 0.45272 0.0
N185 N 0.2519 0.11546 0.54934 0.0
C186 C 0.2778 0.14727 0.53858 0.0
C187 C 0.2626 0.14741 0.58609 0.0
C188 C 0.24968 0.13126 0.59075 0.0
C189 C 0.26747 0.1146 0.50674 0.0
C190 C 0.28041 0.13036 0.50001 0.0
H191 H 0.23736 0.13203 0.62461 0.0
H192 H 0.2691 0.10198 0.4746 0.0
H193 H 0.22333 0.13713 0.49624 0.0
H194 H 0.22595 0.11734 0.29964 0.0
H195 H 0.25944 0.07599 0.7573 0.0
H196 H 0.26009 0.16028 0.6166 0.0
H197 H 0.29198 0.12963 0.46304 0.0
C198 C 0.91176 0.2298 0.35697 0.0
C199 C 0.89584 0.22831 0.31629 0.0
N200 N 0.88175 0.21841 0.34928 0.0
N201 N 0.90773 0.22083 0.4151 0.0
C202 C 0.88964 0.21335 0.40807 0.0
H203 H 0.92431 0.23914 0.34793 0.0
Co204 Co 0.91972 0.22937 0.49014 0.0
C205 C 0.90285 0.20708 0.60962 0.0
O206 O 0.90275 0.22442 0.6383 0.0
N207 N 0.9324 0.23899 0.56378 0.0
C208 C 0.94242 0.25656 0.64938 0.0
C209 C 0.9312 0.25676 0.59339 0.0
C210 C 0.94479 0.22846 0.60164 0.0
N211 N 0.95092 0.23871 0.65454 0.0
O212 O 0.9446 0.21506 0.45994 0.0
H213 H 0.92267 0.26917 0.5768 0.0
H214 H 0.94914 0.21351 0.59034 0.0
O215 O 0.90917 0.20587 0.54858 0.0
C216 C 0.95691 0.22627 0.42856 0.0
O217 O 0.95329 0.24529 0.42949 0.0
N218 N 0.89658 0.24524 0.50845 0.0
C219 C 0.86382 0.27077 0.50541 0.0
C220 C 0.86211 0.25141 0.52903 0.0
C221 C 0.87852 0.2389 0.52985 0.0
C222 C 0.89824 0.26389 0.48326 0.0
C223 C 0.88228 0.27703 0.48298 0.0
H224 H 0.87605 0.2238 0.5437 0.0
H225 H 0.91209 0.26854 0.46195 0.0
H226 H 0.88175 0.20607 0.44766 0.0
H227 H 0.8941 0.23574 0.26916 0.0
H228 H 0.94407 0.26867 0.68359 0.0
H229 H 0.848 0.24577 0.54511 0.0
H230 H 0.88417 0.29166 0.4624 0.0
C231 C 0.78239 0.9151 0.38614 0.0
C232 C 0.7805 0.8993 0.34469 0.0
N233 N 0.79414 0.88585 0.36157 0.0
N234 N 0.79718 0.91166 0.42867 0.0
C235 C 0.80434 0.89393 0.41184 0.0
H236 H 0.77247 0.92751 0.38902 0.0
Co237 Co 0.79883 0.92555 0.50545 0.0
C238 C 0.82548 0.9042 0.60251 0.0
O239 O 0.81093 0.90682 0.64448 0.0
N240 N 0.79974 0.94026 0.58191 0.0
C241 C 0.79569 0.95422 0.68032 0.0
C242 C 0.78689 0.94295 0.63242 0.0
C243 C 0.81591 0.95026 0.5995 0.0
N244 N 0.81394 0.95846 0.65932 0.0
O245 O 0.81425 0.94667 0.45575 0.0
H246 H 0.77221 0.93709 0.63507 0.0
H247 H 0.82903 0.95141 0.56926 0.0
O248 O 0.82351 0.91028 0.54138 0.0
C249 C 0.80284 0.9602 0.43203 0.0
O250 O 0.78429 0.95946 0.44995 0.0
N251 N 0.78132 0.9065 0.54366 0.0
C252 C 0.75084 0.87864 0.54542 0.0
C253 C 0.77036 0.8728 0.55453 0.0
C254 C 0.7854 0.88684 0.55179 0.0
C255 C 0.76223 0.91244 0.53824 0.0
C256 C 0.74682 0.89881 0.53888 0.0
H257 H 0.80023 0.88137 0.54916 0.0
H258 H 0.75904 0.9277 0.52694 0.0
H259 H 0.816 0.8867 0.43869 0.0
H260 H 0.76923 0.89745 0.30773 0.0
H261 H 0.789 0.95954 0.7257 0.0
H262 H 0.77414 0.85732 0.55742 0.0
H263 H 0.73197 0.90391 0.53045 0.0
C264 C 0.62304 0.7193 0.70819 0.0
C265 C 0.64176 0.71471 0.72863 0.0
N266 N 0.65162 0.70733 0.67626 0.0
N267 N 0.62138 0.71472 0.64351 0.0
C268 C 0.6389 0.70714 0.62592 0.0
H269 H 0.61209 0.72716 0.73675 0.0
Co270 Co 0.60413 0.72554 0.58477 0.0
C271 C 0.60991 0.70132 0.45378 0.0
O272 O 0.60131 0.71535 0.41966 0.0
N273 N 0.58691 0.73707 0.52672 0.0
C274 C 0.57027 0.7586 0.46646 0.0
C275 C 0.58685 0.75571 0.50334 0.0
C276 C 0.57021 0.72903 0.50444 0.0
N277 N 0.55982 0.7418 0.46758 0.0
O278 O 0.58134 0.71137 0.62982 0.0
H279 H 0.59784 0.76671 0.51336 0.0
H280 H 0.56562 0.71419 0.51624 0.0
O281 O 0.61095 0.70314 0.51766 0.0
C282 C 0.57223 0.72353 0.66878 0.0
O283 O 0.57928 0.74151 0.67163 0.0
N284 N 0.62497 0.74188 0.55286 0.0
C285 C 0.65408 0.77045 0.531 0.0
C286 C 0.65082 0.7554 0.48465 0.0
C287 C 0.63633 0.74107 0.49681 0.0
C288 C 0.62798 0.7565 0.59797 0.0
C289 C 0.6425 0.77072 0.58848 0.0
H290 H 0.6345 0.72959 0.46101 0.0
H291 H 0.61883 0.75719 0.64188 0.0
H292 H 0.64302 0.70353 0.57554 0.0
H293 H 0.64785 0.71725 0.77725 0.0
H294 H 0.56627 0.77206 0.44104 0.0
H295 H 0.65951 0.75461 0.43961 0.0
H296 H 0.64425 0.78219 0.62514 0.0
C297 C 0.29579 0.60655 0.67754 0.0
C298 C 0.29335 0.62175 0.72126 0.0
N299 N 0.30257 0.63753 0.6959 0.0
N300 N 0.30671 0.61271 0.62548 0.0
C301 C 0.31104 0.63158 0.63884 0.0
H302 H 0.28841 0.59253 0.68056 0.0
Co303 Co 0.30565 0.59942 0.54704 0.0
C304 C 0.33048 0.62052 0.4428 0.0
O305 O 0.3153 0.61789 0.40412 0.0
N306 N 0.30365 0.58507 0.46995 0.0
C307 C 0.31125 0.56627 0.38394 0.0
C308 C 0.3186 0.57631 0.43715 0.0
C309 C 0.28736 0.57959 0.43742 0.0
N310 N 0.29162 0.56842 0.38448 0.0
O311 O 0.32177 0.5776 0.58875 0.0
H312 H 0.33382 0.57689 0.45187 0.0
H313 H 0.27258 0.58291 0.4532 0.0
O314 O 0.32954 0.61438 0.50416 0.0
C315 C 0.31049 0.56376 0.6111 0.0
O316 O 0.29197 0.56452 0.59333 0.0
N317 N 0.28747 0.61922 0.51651 0.0
C318 C 0.25785 0.64816 0.51854 0.0
C319 C 0.27727 0.65309 0.50329 0.0
C320 C 0.29184 0.63853 0.50293 0.0
C321 C 0.26845 0.61424 0.53039 0.0
C322 C 0.25336 0.62835 0.53027 0.0
H323 H 0.30673 0.64354 0.49872 0.0
H324 H 0.26513 0.5995 0.5474 0.0
H325 H 0.31911 0.64112 0.60554 0.0
H326 H 0.28437 0.62163 0.76571 0.0
H327 H 0.31953 0.55707 0.35002 0.0
H328 H 0.28142 0.66834 0.49603 0.0
H329 H 0.23864 0.62406 0.54459 0.0
C330 C 0.41804 0.29421 0.66882 0.0
C331 C 0.40229 0.29263 0.71094 0.0
N332 N 0.38602 0.29785 0.67752 0.0
N333 N 0.41184 0.30077 0.60944 0.0
C334 C 0.39232 0.30298 0.61629 0.0
H335 H 0.43282 0.28956 0.67991 0.0
Co336 Co 0.42627 0.29851 0.53299 0.0
C337 C 0.4048 0.33886 0.48409 0.0
O338 O 0.40512 0.34995 0.53725 0.0
N339 N 0.44086 0.29542 0.45665 0.0
C340 C 0.45404 0.29942 0.3568 0.0
C341 C 0.44465 0.30872 0.40839 0.0
C342 C 0.44846 0.27833 0.43429 0.0
N343 N 0.45623 0.28036 0.37327 0.0
O344 O 0.44759 0.3148 0.57507 0.0
H345 H 0.44086 0.32417 0.41018 0.0
H346 H 0.44816 0.26464 0.46189 0.0
O347 O 0.41232 0.32143 0.48711 0.0
C348 C 0.46121 0.30371 0.59967 0.0
O349 O 0.46078 0.28496 0.58378 0.0
N350 N 0.40712 0.2806 0.50068 0.0
C351 C 0.37717 0.25246 0.48718 0.0
C352 C 0.37607 0.27087 0.45502 0.0
C353 C 0.39118 0.28471 0.46224 0.0
C354 C 0.40892 0.26248 0.52948 0.0
C355 C 0.39418 0.24827 0.52355 0.0
H356 H 0.38933 0.29897 0.43979 0.0
H357 H 0.42152 0.25939 0.56018 0.0
H358 H 0.38285 0.30702 0.57571 0.0
H359 H 0.40289 0.28779 0.76199 0.0
H360 H 0.45943 0.30621 0.31161 0.0
H361 H 0.36323 0.27498 0.42678 0.0
H362 H 0.39603 0.23421 0.54817 0.0
C363 C 0.71998 0.41209 0.6738 0.0
C364 C 0.70702 0.41048 0.72635 0.0
N365 N 0.68874 0.41319 0.70277 0.0
N366 N 0.70965 0.41558 0.61826 0.0
C367 C 0.6908 0.41594 0.63731 0.0
H368 H 0.7358 0.41264 0.67688 0.0
Co369 Co 0.71753 0.42805 0.54349 0.0
C370 C 0.69464 0.4094 0.43066 0.0
O371 O 0.7116 0.40978 0.39931 0.0
N372 N 0.72513 0.44192 0.4677 0.0
C373 C 0.72105 0.46063 0.37837 0.0
C374 C 0.7118 0.45155 0.43034 0.0
C375 C 0.74262 0.44633 0.43917 0.0
N376 N 0.74041 0.45725 0.38389 0.0
O377 O 0.70355 0.45239 0.57837 0.0
H378 H 0.69623 0.45215 0.44088 0.0
H379 H 0.75675 0.44241 0.45893 0.0
O380 O 0.69378 0.41652 0.49043 0.0
C381 C 0.71509 0.46214 0.61698 0.0
O382 O 0.73351 0.4564 0.61875 0.0
N383 N 0.73324 0.40548 0.52082 0.0
C384 C 0.75889 0.37284 0.50712 0.0
C385 C 0.73834 0.37052 0.50671 0.0
C386 C 0.72586 0.38686 0.51458 0.0
C387 C 0.75304 0.4078 0.52661 0.0
C388 C 0.76607 0.39197 0.51775 0.0
H389 H 0.71027 0.3843 0.5185 0.0
H390 H 0.75886 0.42188 0.54127 0.0
H391 H 0.67901 0.42055 0.6051 0.0
H392 H 0.71079 0.40843 0.77792 0.0
H393 H 0.71423 0.47 0.34156 0.0
H394 H 0.73176 0.35609 0.50288 0.0
H395 H 0.78165 0.39484 0.52026 0.0
C396 C 0.61495 0.31141 0.90129 0.0
C397 C 0.61518 0.32805 0.862 0.0
N398 N 0.60545 0.34245 0.89437 0.0
N399 N 0.60546 0.31569 0.95825 0.0
C400 C 0.59961 0.33452 0.95189 0.0
H401 H 0.62102 0.29718 0.8887 0.0
Co402 Co 0.59658 0.30002 0.02571 0.0
C403 C 0.61816 0.33395 0.09745 0.0
O404 O 0.6299 0.33513 0.0457 0.0
N405 N 0.58711 0.28411 0.09326 0.0
C406 C 0.58442 0.26732 0.18721 0.0
C407 C 0.59575 0.28034 0.15184 0.0
C408 C 0.57058 0.27331 0.09415 0.0
N409 N 0.56841 0.26297 0.15112 0.0
O410 O 0.56938 0.31068 1.00578 0.0
H411 H 0.60929 0.28685 0.16851 0.0
H412 H 0.55997 0.27368 0.05468 0.0
O413 O 0.60396 0.32125 0.09615 0.0
C414 C 0.5633 0.3014 0.95377 0.0
O415 O 0.57426 0.28665 0.93317 0.0
N416 N 0.62148 0.28695 0.03293 0.0
C417 C 0.65328 0.26008 0.03406 0.0
C418 C 0.65363 0.2776 0.07144 0.0
C419 C 0.63753 0.29056 0.07131 0.0
C420 C 0.62102 0.27027 0.99545 0.0
C421 C 0.63655 0.2567 0.99544 0.0
H422 H 0.63797 0.30283 0.10461 0.0
H423 H 0.60812 0.26714 0.96646 0.0
H424 H 0.59133 0.34241 0.98935 0.0
H425 H 0.62255 0.32967 0.81462 0.0
H426 H 0.58759 0.26202 0.23656 0.0
H427 H 0.66611 0.28128 0.10176 0.0
H428 H 0.63501 0.24336 0.9668 0.0
C429 C 0.69059 0.61058 0.93409 0.0
C430 C 0.69264 0.61858 0.87169 0.0
N431 N 0.71097 0.62581 0.86594 0.0
N432 N 0.70743 0.61328 0.96755 0.0
C433 C 0.71957 0.62235 0.9244 0.0
H434 H 0.67805 0.60248 0.95262 0.0
Co435 Co 0.71664 0.60078 0.04161 0.0
C436 C 0.67918 0.62239 0.10273 0.0
O437 O 0.67422 0.63094 0.04686 0.0
N438 N 0.72683 0.58778 0.11405 0.0
C439 C 0.73945 0.58199 0.21328 0.0
C440 C 0.72752 0.59426 0.17714 0.0
C441 C 0.73839 0.57166 0.11285 0.0
N442 N 0.74635 0.56788 0.17253 0.0
O443 O 0.70363 0.57575 1.00857 0.0
H444 H 0.7206 0.60758 0.19497 0.0
H445 H 0.74155 0.56329 0.06857 0.0
O446 O 0.69383 0.6102 0.10257 0.0
C447 C 0.71431 0.56804 0.96189 0.0
O448 O 0.73125 0.57654 0.94951 0.0
N449 N 0.73148 0.62375 0.06463 0.0
C450 C 0.75685 0.65644 0.07394 0.0
C451 C 0.73632 0.65884 0.07246 0.0
C452 C 0.72395 0.6424 0.06797 0.0
C453 C 0.75135 0.62109 0.06633 0.0
C454 C 0.7642 0.63708 0.07202 0.0
H455 H 0.70847 0.64493 0.06264 0.0
H456 H 0.75744 0.60647 0.06087 0.0
H457 H 0.73479 0.6256 0.9345 0.0
H458 H 0.68149 0.61919 0.83376 0.0
H459 H 0.74269 0.58329 0.26552 0.0
H460 H 0.72972 0.67334 0.0717 0.0
H461 H 0.7798 0.63416 0.07382 0.0
C462 C 0.40939 0.7336 0.88923 0.0
C463 C 0.39408 0.73063 0.84677 0.0
N464 N 0.3788 0.72365 0.8823 0.0
N465 N 0.40384 0.72828 0.95089 0.0
C466 C 0.38531 0.72184 0.94492 0.0
H467 H 0.42301 0.74087 0.87683 0.0
Co468 Co 0.41604 0.7375 0.0245 0.0
C469 C 0.40084 0.71382 0.14492 0.0
O470 O 0.40096 0.73057 0.17735 0.0
N471 N 0.42879 0.74778 0.09685 0.0
C472 C 0.43858 0.7667 0.17938 0.0
C473 C 0.42743 0.76596 0.12335 0.0
C474 C 0.44132 0.73797 0.13627 0.0
N475 N 0.44726 0.74904 0.18763 0.0
O476 O 0.44099 0.72329 0.99485 0.0
H477 H 0.41883 0.77802 0.10444 0.0
H478 H 0.44574 0.72289 0.12748 0.0
O479 O 0.40629 0.71383 0.08294 0.0
C480 C 0.45394 0.73418 0.96534 0.0
O481 O 0.45076 0.75328 0.96525 0.0
N482 N 0.39282 0.75328 0.04342 0.0
C483 C 0.36123 0.78037 0.05409 0.0
C484 C 0.35997 0.76124 0.0808 0.0
C485 C 0.37567 0.74793 0.07426 0.0
C486 C 0.39377 0.77133 1.01328 0.0
C487 C 0.37844 0.78513 1.01886 0.0
H488 H 0.37339 0.73315 0.09177 0.0
H489 H 0.40686 0.77524 0.98564 0.0
H490 H 0.37623 0.71765 0.98663 0.0
H491 H 0.39398 0.73418 0.79447 0.0
H492 H 0.43989 0.77929 0.21174 0.0
H493 H 0.3467 0.7563 0.10545 0.0
H494 H 0.38028 0.79953 0.99658 0.0
C495 C 0.29888 0.41315 0.88848 0.0
C496 C 0.29972 0.39748 0.84639 0.0
N497 N 0.30985 0.38303 0.87633 0.0
N498 N 0.30864 0.4088 0.94471 0.0
C499 C 0.31557 0.39041 0.93512 0.0
H500 H 0.28957 0.42574 0.88087 0.0
Co501 Co 0.30288 0.42121 0.02359 0.0
C502 C 0.33685 0.41436 0.12132 0.0
O503 O 0.33527 0.43266 0.14154 0.0
N504 N 0.29546 0.43351 0.10189 0.0
C505 C 0.28329 0.43801 0.20334 0.0
C506 C 0.29278 0.42501 0.16199 0.0
C507 C 0.28738 0.45151 0.10795 0.0
N508 N 0.27982 0.45461 0.16876 0.0
O509 O 0.31743 0.44553 0.98944 0.0
H510 H 0.29689 0.41007 0.17446 0.0
H511 H 0.28627 0.46202 0.06821 0.0
O512 O 0.32662 0.40885 0.07092 0.0
C513 C 0.3063 0.45682 0.95379 0.0
O514 O 0.28744 0.4528 0.954 0.0
N515 N 0.2871 0.39919 0.04741 0.0
C516 C 0.2617 0.36688 0.0474 0.0
C517 C 0.2812 0.36479 0.06809 0.0
C518 C 0.29362 0.38119 0.06879 0.0
C519 C 0.26789 0.40166 0.03055 0.0
C520 C 0.25487 0.38572 0.03076 0.0
H521 H 0.30874 0.37893 0.08239 0.0
H522 H 0.26293 0.4159 1.01316 0.0
H523 H 0.32317 0.38202 0.97268 0.0
H524 H 0.29188 0.3962 0.80013 0.0
H525 H 0.2793 0.43547 0.25464 0.0
H526 H 0.28698 0.35043 0.08123 0.0
H527 H 0.23995 0.38788 1.01403 0.0
H528 H 0.1693 0.29502 0.09076 0.0
H529 H 0.19286 0.26134 0.92515 0.0
H530 H 0.22126 0.28344 0.92018 0.0
H531 H 0.18277 0.34248 1.02167 0.0
H532 H 0.18814 0.35307 0.10129 0.0
H533 H 0.17009 0.33386 0.09482 0.0
H534 H 0.18896 0.31319 0.18177 0.0
H535 H 0.20716 0.33227 0.18818 0.0
H536 H 0.21451 0.30749 0.16779 0.0
H537 H 0.24791 0.30871 0.93476 0.0
H538 H 0.26892 0.33733 0.96049 0.0
H539 H 0.22653 0.35692 0.10726 0.0
C540 C 0.18016 0.29227 0.05262 0.0
C541 C 0.17863 0.27593 1.00908 0.0
C542 C 0.19367 0.27315 0.96082 0.0
C543 C 0.2099 0.28581 0.95705 0.0
C544 C 0.21091 0.30156 1.00091 0.0
C545 C 0.19628 0.30505 0.04703 0.0
C546 C 0.20051 0.3236 0.08636 0.0
C547 C 0.18442 0.33917 0.07535 0.0
C548 C 0.20293 0.31885 0.16041 0.0
C549 C 0.21985 0.32994 0.05528 0.0
C550 C 0.22571 0.31683 1.0067 0.0
C551 C 0.24338 0.31914 0.97232 0.0
C552 C 0.25525 0.33537 0.98741 0.0
C553 C 0.24931 0.34927 0.03568 0.0
C554 C 0.23135 0.34651 0.06996 0.0
H555 H 0.66568 0.23279 0.9387 0.0
H556 H 0.67821 0.25252 0.13891 0.0
H557 H 0.7049 0.22835 0.14595 0.0
H558 H 0.67324 0.18094 0.97509 0.0
H559 H 0.68385 0.17558 0.89511 0.0
H560 H 0.66619 0.19522 0.90359 0.0
H561 H 0.691 0.2197 0.85159 0.0
H562 H 0.70874 0.20015 0.84297 0.0
H563 H 0.71501 0.22219 0.88755 0.0
H564 H 0.7308 0.20237 0.13185 0.0
H565 H 0.75302 0.17522 0.09887 0.0
H566 H 0.72235 0.16975 0.91238 0.0
C567 C 0.67381 0.23204 0.98448 0.0
C568 C 0.66969 0.24512 0.03781 0.0
C569 C 0.68115 0.24339 0.09617 0.0
C570 C 0.69633 0.22945 0.10112 0.0
C571 C 0.69988 0.21691 0.04787 0.0
C572 C 0.68885 0.2179 0.99087 0.0
C573 C 0.69539 0.20219 0.94169 0.0
C574 C 0.67867 0.18762 0.92808 0.0
C575 C 0.70299 0.21162 0.87713 0.0
C576 C 0.71193 0.19235 0.97983 0.0
C577 C 0.71431 0.20122 0.04085 0.0
C578 C 0.72896 0.19523 0.08444 0.0
C579 C 0.74151 0.17982 0.06531 0.0
C580 C 0.7393 0.17034 1.00342 0.0
C581 C 0.72421 0.17663 0.96025 0.0
H582 H 0.79441 0.66006 1.01972 0.0
H583 H 0.75049 0.69291 0.13116 0.0
H584 H 0.77196 0.72197 0.12897 0.0
H585 H 0.83623 0.68049 0.10617 0.0
H586 H 0.85164 0.68075 0.03326 0.0
H587 H 0.83253 0.66262 0.04161 0.0
H588 H 0.81796 0.67385 0.92942 0.0
H589 H 0.83696 0.69209 0.92089 0.0
H590 H 0.81153 0.69938 0.91743 0.0
H591 H 0.79799 0.74812 0.11207 0.0
H592 H 0.82746 0.76826 0.08888 0.0
H593 H 0.85557 0.7179 0.99645 0.0
C594 C 0.78928 0.67319 0.0447 0.0
C595 C 0.77042 0.67394 0.07512 0.0
C596 C 0.7645 0.6918 0.10598 0.0
C597 C 0.77672 0.70846 0.1055 0.0
C598 C 0.79505 0.70716 0.07476 0.0
C599 C 0.80142 0.6899 0.04563 0.0
C600 C 0.822 0.69227 1.01725 0.0
C601 C 0.83646 0.6782 0.05164 0.0
C602 C 0.82211 0.68922 0.94177 0.0
C603 C 0.82618 0.71358 0.03477 0.0
C604 C 0.81035 0.72196 0.06738 0.0
C605 C 0.8105 0.74165 0.08691 0.0
C606 C 0.82726 0.75302 0.0732 0.0
C607 C 0.84383 0.74468 0.04089 0.0
C608 C 0.8432 0.72465 1.02166 0.0
H609 H 0.34803 0.80983 0.96776 0.0
H610 H 0.33709 0.78478 0.16283 0.0
H611 H 0.30999 0.80827 0.17973 0.0
H612 H 0.33856 0.86061 1.01467 0.0
H613 H 0.32694 0.86694 0.93748 0.0
H614 H 0.34541 0.84793 0.93963 0.0
H615 H 0.32105 0.82344 0.88691 0.0
H616 H 0.30249 0.84237 0.88472 0.0
H617 H 0.29755 0.81932 0.92598 0.0
H618 H 0.2836 0.83427 0.1759 0.0
H619 H 0.26029 0.86104 0.15229 0.0
H620 H 0.28882 0.87097 0.96198 0.0
C621 C 0.34009 0.80933 1.01434 0.0
C622 C 0.34482 0.79509 0.06364 0.0
C623 C 0.3337 0.79506 0.12342 0.0
C624 C 0.31829 0.80852 0.13383 0.0
C625 C 0.31401 0.82219 0.0843 0.0
C626 C 0.3246 0.82278 0.02576 0.0
C627 C 0.31693 0.83909 0.98077 0.0
C628 C 0.33291 0.85456 0.96736 0.0
C629 C 0.30904 0.83054 0.91575 0.0
C630 C 0.30038 0.84755 1.02318 0.0
C631 C 0.29898 0.83752 0.08266 0.0
C632 C 0.28473 0.84235 0.12974 0.0
C633 C 0.2716 0.85781 0.11598 0.0
C634 C 0.27269 0.86858 0.05559 0.0
C635 C 0.28739 0.86318 1.00861 0.0
H636 H 0.16108 0.71432 0.46865 0.0
H637 H 0.18041 0.74867 0.63724 0.0
H638 H 0.20896 0.72673 0.64969 0.0
H639 H 0.1757 0.66623 0.5377 0.0
H640 H 0.18321 0.65667 0.45823 0.0
H641 H 0.16391 0.67481 0.46325 0.0
H642 H 0.18308 0.6972 0.38158 0.0
H643 H 0.20251 0.67923 0.37672 0.0
H644 H 0.20792 0.70417 0.40061 0.0
H645 H 0.23671 0.70268 0.6395 0.0
H646 H 0.26046 0.67624 0.61291 0.0
H647 H 0.2225 0.65563 0.45631 0.0
C648 C 0.17105 0.71704 0.5091 0.0
C649 C 0.16844 0.7335 0.55151 0.0
C650 C 0.18216 0.73653 0.60307 0.0
C651 C 0.19842 0.72403 0.6109 0.0
C652 C 0.20075 0.70829 0.56745 0.0
C653 C 0.18732 0.70454 0.51816 0.0
C654 C 0.19343 0.6866 0.47797 0.0
C655 C 0.17815 0.6701 0.48471 0.0
C656 C 0.19694 0.69214 0.40489 0.0
C657 C 0.21252 0.68104 0.51188 0.0
C658 C 0.21648 0.69387 0.56315 0.0
C659 C 0.23365 0.69242 0.6 0.0
C660 C 0.24709 0.67743 0.58438 0.0
C661 C 0.24326 0.66392 0.53279 0.0
C662 C 0.22567 0.66569 0.49635 0.0
H663 H 0.36335 0.22726 0.58557 0.0
H664 H 0.35326 0.24453 0.38116 0.0
H665 H 0.32576 0.2211 0.37543 0.0
H666 H 0.35374 0.17563 0.56243 0.0
H667 H 0.34193 0.17247 0.64192 0.0
H668 H 0.36039 0.19115 0.63097 0.0
H669 H 0.33584 0.2176 0.67255 0.0
H670 H 0.31725 0.19901 0.68322 0.0
H671 H 0.31246 0.22029 0.63214 0.0
H672 H 0.30009 0.19496 0.38982 0.0
H673 H 0.27838 0.16749 0.42295 0.0
H674 H 0.30463 0.16665 0.61798 0.0
C675 C 0.35548 0.22607 0.53935 0.0
C676 C 0.3606 0.23796 0.48381 0.0
C677 C 0.34959 0.23595 0.42479 0.0
C678 C 0.33394 0.22257 0.42092 0.0
C679 C 0.32932 0.21118 0.47646 0.0
C680 C 0.33978 0.21274 0.53457 0.0
C681 C 0.332 0.19841 0.58657 0.0
C682 C 0.34797 0.18353 0.60664 0.0
C683 C 0.32391 0.20949 0.64721 0.0
C684 C 0.31562 0.18846 0.54845 0.0
C685 C 0.31436 0.19613 0.48501 0.0
C686 C 0.30088 0.18895 0.43945 0.0
C687 C 0.28861 0.17336 0.45869 0.0
C688 C 0.28972 0.16508 0.52307 0.0
C689 C 0.30326 0.17293 0.56883 0.0
H690 H 0.79675 0.36722 0.55727 0.0
H691 H 0.75256 0.33853 0.43693 0.0
H692 H 0.77404 0.3096 0.42614 0.0
H693 H 0.83825 0.34985 0.45917 0.0
H694 H 0.85403 0.34703 0.52993 0.0
H695 H 0.83486 0.36536 0.53068 0.0
H696 H 0.82086 0.35036 0.63914 0.0
H697 H 0.83992 0.33193 0.63858 0.0
H698 H 0.81453 0.32461 0.64171 0.0
H699 H 0.8 0.28297 0.43093 0.0
H700 H 0.82943 0.26194 0.44404 0.0
H701 H 0.85818 0.3087 0.55196 0.0
C702 C 0.79153 0.35508 0.52775 0.0
C703 C 0.77254 0.35542 0.49882 0.0
C704 C 0.76661 0.33876 0.46152 0.0
C705 C 0.77885 0.32219 0.45446 0.0
C706 C 0.79729 0.32238 0.48393 0.0
C707 C 0.80374 0.33849 0.5191 0.0
C708 C 0.82448 0.3351 0.5443 0.0
C709 C 0.83875 0.35024 0.51421 0.0
C710 C 0.82496 0.33552 0.62045 0.0
C711 C 0.82863 0.31452 0.51813 0.0
C712 C 0.81264 0.30739 0.48399 0.0
C713 C 0.81264 0.28848 0.45715 0.0
C714 C 0.82939 0.2766 0.46508 0.0
C715 C 0.84612 0.28366 0.49885 0.0
C716 C 0.84568 0.30296 0.52541 0.0
H717 H 0.73869 0.84775 0.62542 0.0
H718 H 0.7283 0.87569 0.43543 0.0
H719 H 0.70367 0.85026 0.40893 0.0
H720 H 0.73298 0.79731 0.57262 0.0
H721 H 0.72017 0.78957 0.64662 0.0
H722 H 0.73746 0.80957 0.65016 0.0
H723 H 0.71063 0.83227 0.70016 0.0
H724 H 0.69331 0.81231 0.6972 0.0
H725 H 0.68773 0.83539 0.65712 0.0
H726 H 0.68084 0.82113 0.40143 0.0
H727 H 0.65877 0.79266 0.41873 0.0
H728 H 0.68218 0.7846 0.61629 0.0
C729 C 0.73116 0.84847 0.57838 0.0
C730 C 0.73534 0.86372 0.53247 0.0
C731 C 0.72516 0.86426 0.47151 0.0
C732 C 0.71126 0.8498 0.45586 0.0
C733 C 0.70746 0.83495 0.502 0.0
C734 C 0.71689 0.83433 0.56247 0.0
C735 C 0.70939 0.81726 0.60433 0.0
C736 C 0.72599 0.80256 0.6193 0.0
C737 C 0.69969 0.82476 0.66849 0.0
C738 C 0.69435 0.80838 0.55794 0.0
C739 C 0.69368 0.81864 0.49877 0.0
C740 C 0.68118 0.81304 0.44771 0.0
C741 C 0.66878 0.79677 0.45777 0.0
C742 C 0.66871 0.78641 0.51877 0.0
C743 C 0.68182 0.79229 0.56922 0.0
H744 H 0.98201 0.24892 0.35371 0.0
H745 H 0.97112 0.18776 0.40267 0.0
H746 H 0.99861 0.17799 0.32715 0.0
H747 H 0.99258 0.24187 0.18194 0.0
H748 H 0.01096 0.2609 0.17931 0.0
H749 H 0.99106 0.26239 0.23818 0.0
H750 H 0.01593 0.26498 0.33423 0.0
H751 H 0.0359 0.26359 0.27561 0.0
H752 H 0.03457 0.2463 0.34342 0.0
H753 H 0.02951 0.17577 0.2398 0.0
H754 H 0.05698 0.18163 0.15967 0.0
H755 H 0.04522 0.24427 0.16995 0.0
C756 C 0.9853 0.23338 0.34942 0.0
C757 C 0.97411 0.2192 0.38558 0.0
C758 C 0.97928 0.19908 0.37664 0.0
C759 C 0.99497 0.1934 0.33332 0.0
C760 C 1.00556 0.20791 0.29824 0.0
C761 C 1.00069 0.22753 0.3064 0.0
C762 C 0.01366 0.24065 0.26354 0.0
C763 C 1.00133 0.25212 0.21275 0.0
C764 C 0.02573 0.25471 0.30678 0.0
C765 C 0.02679 0.22557 0.22952 0.0
C766 C 0.02216 0.20667 0.24968 0.0
C767 C 0.03296 0.19063 0.22419 0.0
C768 C 0.04864 0.19406 0.17817 0.0
C769 C 0.05358 0.21342 0.15703 0.0
C770 C 0.04214 0.22917 0.18372 0.0
H771 H 0.77837 0.98445 0.36176 0.0
H772 H 0.84034 0.97236 0.38623 0.0
H773 H 0.84795 0.99887 0.304 0.0
H774 H 0.77977 0.99325 0.18694 0.0
H775 H 0.76112 1.01209 0.19052 0.0
H776 H 0.76134 0.99266 0.2514 0.0
H777 H 0.76234 0.01855 0.34526 0.0
H778 H 0.76215 0.03806 0.28468 0.0
H779 H 0.78147 0.03683 0.34512 0.0
H780 H 0.84773 0.02924 0.21446 0.0
H781 H 0.83971 0.05587 0.13331 0.0
H782 H 0.77786 0.04571 0.16985 0.0
C783 C 0.79366 0.98725 0.35052 0.0
C784 C 0.80872 0.97606 0.38186 0.0
C785 C 0.82842 0.9805 0.36382 0.0
C786 C 0.83285 0.99568 0.31685 0.0
C787 C 0.81749 1.00641 0.28724 0.0
C788 C 0.79825 1.00209 0.30378 0.0
C789 C 0.78404 0.01505 0.26545 0.0
C790 C 0.77079 1.00251 0.22094 0.0
C791 C 0.77178 0.02788 0.31296 0.0
C792 C 0.79804 0.02755 0.22432 0.0
C793 C 0.81736 0.02265 0.23719 0.0
C794 C 0.83256 0.03289 0.20451 0.0
C795 C 0.82789 0.04814 0.1582 0.0
C796 C 0.8081 0.05313 0.14379 0.0
C797 C 0.7932 0.04246 0.17823 0.0
H798 H 0.05036 0.77236 0.30179 0.0
H799 H 0.05852 0.83434 0.34344 0.0
H800 H 0.03063 0.84222 0.26796 0.0
H801 H 0.03825 0.77709 0.12959 0.0
H802 H 0.02072 0.75728 0.13276 0.0
H803 H 0.04125 0.7573 0.18847 0.0
H804 H 0.0175 0.75472 0.28879 0.0
H805 H 0.9969 0.75463 0.23343 0.0
H806 H 0.9982 0.77271 0.29843 0.0
H807 H 0.99925 0.84219 0.18395 0.0
H808 H 0.97093 0.83426 0.11094 0.0
H809 H 0.98533 0.77231 0.12816 0.0
C810 C 0.0465 0.78772 0.29549 0.0
C811 C 0.057 0.80268 0.32959 0.0
C812 C 0.05101 0.82248 0.31849 0.0
C813 C 0.03505 0.82707 0.2754 0.0
C814 C 0.02504 0.81177 0.24296 0.0
C815 C 0.0308 0.79247 0.25307 0.0
C816 C 0.01799 0.77833 0.21437 0.0
C817 C 0.03029 0.76683 0.16328 0.0
C818 C 1.007 0.76428 0.26156 0.0
C819 C 1.00391 0.79245 0.18046 0.0
C820 C 1.00799 0.81176 0.1969 0.0
C821 C 0.99625 0.82704 0.17118 0.0
C822 C 0.98012 0.82242 0.12912 0.0
C823 C 0.97561 0.80262 0.11252 0.0
C824 C 0.98807 0.78767 0.13876 0.0
H825 H 0.25342 0.03536 0.3831 0.0
H826 H 0.19252 0.04442 0.43826 0.0
H827 H 0.18289 0.01884 0.35612 0.0
H828 H 0.24594 0.03016 0.2106 0.0
H829 H 0.26502 1.01197 0.20018 0.0
H830 H 0.26663 0.02977 0.26581 0.0
H831 H 0.26977 1.00165 0.352 0.0
H832 H 0.26825 0.98374 0.2866 0.0
H833 H 0.25132 0.9827 0.35549 0.0
H834 H 0.18058 0.99144 0.2596 0.0
H835 H 0.18578 0.96777 0.16727 0.0
H836 H 0.24834 0.97847 0.17626 0.0
C837 C 0.23797 0.03199 0.37896 0.0
C838 C 0.2238 0.04216 0.41861 0.0
C839 C 0.20381 0.03695 0.40987 0.0
C840 C 0.19822 0.02239 0.36269 0.0
C841 C 0.21269 0.01299 0.32383 0.0
C842 C 0.23221 0.01773 0.33217 0.0
C843 C 0.24522 1.00629 0.28402 0.0
C844 C 0.25636 0.02039 0.2374 0.0
C845 C 0.25948 0.9928 0.32179 0.0
C846 C 0.23015 0.99431 0.24628 0.0
C847 C 0.21141 0.99814 0.2698 0.0
C848 C 0.19528 0.98853 0.24153 0.0
C849 C 0.19838 0.97497 0.18871 0.0
C850 C 0.21749 0.97098 0.16326 0.0
C851 C 0.23346 0.98096 0.19346 0.0
H852 H 0.0471 0.81224 0.70818 0.0
H853 H 0.03232 0.77738 0.53603 0.0
H854 H 0.99782 0.77638 0.57255 0.0
H855 H 0.0208 0.78595 0.81836 0.0
H856 H 0.01278 0.80629 0.86901 0.0
H857 H 0.03505 0.80826 0.82167 0.0
H858 H 0.02178 0.83985 0.76464 0.0
H859 H 0.99933 0.83791 0.81194 0.0
H860 H 0.9985 0.8392 0.72277 0.0
H861 H 0.96739 0.77328 0.63739 0.0
H862 H 0.94294 0.7685 0.72691 0.0
H863 H 0.97731 0.80547 0.85634 0.0
C864 C 0.03648 0.80474 0.6777 0.0
C865 C 0.04223 0.79495 0.61947 0.0
C866 C 0.02807 0.78524 0.58043 0.0
C867 C 1.00845 0.78466 0.6006 0.0
C868 C 1.0033 0.79408 0.65929 0.0
C869 C 0.01687 0.8041 0.69705 0.0
C870 C 1.00822 0.81068 0.76231 0.0
C871 C 0.0199 0.80228 0.82125 0.0
C872 C 1.00687 0.83325 0.76556 0.0
C873 C 0.98814 0.80155 0.75733 0.0
C874 C 0.98539 0.79246 0.69689 0.0
C875 C 0.96907 0.78079 0.68421 0.0
C876 C 0.95541 0.77799 0.73529 0.0
C877 C 0.95834 0.78675 0.79785 0.0
C878 C 0.97453 0.79913 0.80818 0.0
H879 H 0.24076 0.95881 0.74353 0.0
H880 H 0.26273 0.97346 0.93725 0.0
H881 H 0.28629 0.9965 0.88684 0.0
H882 H 0.29069 0.97382 0.64435 0.0
H883 H 0.2755 0.98302 0.57828 0.0
H884 H 0.26854 0.96099 0.62265 0.0
H885 H 0.23468 0.97651 0.6488 0.0
H886 H 0.2415 0.99825 0.60503 0.0
H887 H 0.23357 1.0 0.69034 0.0
H888 H 0.29559 0.02585 0.82786 0.0
H889 H 0.28912 0.05699 0.7696 0.0
H890 H 0.26177 0.02503 0.61021 0.0
C891 C 0.25132 0.96625 0.77436 0.0
C892 C 0.24992 0.96473 0.84371 0.0
C893 C 0.26373 0.97442 0.88378 0.0
C894 C 0.27724 0.98747 0.8553 0.0
C895 C 0.27693 0.99035 0.78672 0.0
C896 C 0.26468 0.97946 0.74626 0.0
C897 C 0.26351 0.9883 0.67745 0.0
C898 C 0.27527 0.97579 0.62777 0.0
C899 C 0.24206 0.99096 0.65429 0.0
C900 C 0.27368 1.00773 0.68951 0.0
C901 C 0.28257 1.00804 0.75114 0.0
C902 C 0.28928 0.02557 0.7788 0.0
C903 C 0.28536 0.04327 0.74574 0.0
C904 C 0.27466 0.0433 0.68602 0.0
C905 C 0.27025 0.02528 0.65524 0.0
H906 H 0.97368 0.26237 0.72852 0.0
H907 H 0.96063 0.20102 0.68852 0.0
H908 H 0.98857 0.19097 0.75814 0.0
H909 H 0.02237 0.25931 0.71392 0.0
H910 H 0.02834 0.27616 0.77956 0.0
H911 H 1.00534 0.27847 0.73734 0.0
H912 H 0.98637 0.27556 0.84876 0.0
H913 H 1.00938 0.27369 0.89187 0.0
H914 H 0.99101 0.2549 0.90279 0.0
H915 H 0.02075 0.18813 0.81854 0.0
H916 H 0.05366 0.19297 0.86793 0.0
H917 H 0.04402 0.25606 0.8681 0.0
C918 C 0.97611 0.2468 0.73617 0.0
C919 C 0.96505 0.23253 0.70266 0.0
C920 C 0.96916 0.21227 0.71284 0.0
C921 C 0.98484 0.2064 0.75285 0.0
C922 C 0.99595 0.22098 0.78297 0.0
C923 C 0.99153 0.24076 0.77587 0.0
C924 C 1.00669 0.25371 0.80752 0.0
C925 C 0.01624 0.26772 0.75652 0.0
C926 C 0.99783 0.26513 0.86624 0.0
C927 C 0.02087 0.23818 0.83061 0.0
C928 C 0.01437 0.21936 0.81727 0.0
C929 C 0.02583 0.20278 0.8304 0.0
C930 C 0.04443 0.20562 0.85798 0.0
C931 C 0.05127 0.22488 0.87075 0.0
C932 C 0.03921 0.24122 0.8577 0.0
H933 H 0.81911 0.06404 0.73795 0.0
H934 H 0.83592 0.0446 0.93362 0.0
H935 H 0.85073 0.01484 0.88665 0.0
H936 H 0.80012 0.02659 0.68692 0.0
H937 H 0.8086 0.02517 0.60218 0.0
H938 H 0.80841 0.04834 0.64345 0.0
H939 H 0.84545 0.05269 0.61921 0.0
H940 H 0.84573 0.02934 0.57682 0.0
H941 H 0.8626 0.0338 0.64349 0.0
H942 H 0.84844 0.98361 0.8334 0.0
H943 H 0.83334 0.95575 0.77436 0.0
H944 H 0.82119 0.99343 0.60741 0.0
C945 C 0.82687 0.05385 0.76978 0.0
C946 C 0.82626 0.05631 0.83882 0.0
C947 C 0.83637 0.04298 0.88029 0.0
C948 C 0.84494 0.02604 0.85387 0.0
C949 C 0.84363 0.02291 0.78582 0.0
C950 C 0.83556 0.0369 0.74362 0.0
C951 C 0.8322 0.02849 0.67535 0.0
C952 C 0.81109 0.03235 0.65075 0.0
C953 C 0.84741 0.03655 0.62581 0.0
C954 C 0.83598 1.00694 0.68957 0.0
C955 C 0.84353 1.00411 0.7526 0.0
C956 C 0.84357 0.98555 0.78287 0.0
C957 C 0.83483 0.96985 0.74966 0.0
C958 C 0.82662 0.97282 0.68669 0.0
C959 C 0.82818 0.99113 0.65483 0.0
H960 H 0.55054 0.74976 0.74184 0.0
H961 H 0.55192 0.68772 0.69258 0.0
H962 H 0.52249 0.68253 0.76496 0.0
H963 H 0.53646 0.74482 0.91194 0.0
H964 H 0.52125 0.76657 0.91086 0.0
H965 H 0.54204 0.76473 0.85568 0.0
H966 H 0.51947 0.7711 0.75509 0.0
H967 H 0.49863 0.77308 0.80995 0.0
H968 H 0.49834 0.75565 0.7428 0.0
H969 H 0.49104 0.68532 0.84916 0.0
H970 H 0.4635 0.69564 0.92347 0.0
H971 H 0.48442 0.75574 0.91331 0.0
C972 C 0.54485 0.73494 0.74576 0.0
C973 C 0.55398 0.71915 0.71066 0.0
C974 C 0.5455 0.70017 0.71824 0.0
C975 C 0.52869 0.69711 0.75971 0.0
C976 C 0.52023 0.71315 0.79379 0.0
C977 C 0.52822 0.73171 0.78643 0.0
C978 C 0.51679 0.74686 0.82658 0.0
C979 C 0.52992 0.7563 0.87938 0.0
C980 C 0.50778 0.7626 0.78088 0.0
C981 C 0.50098 0.73416 0.8584 0.0
C982 C 0.503 0.71469 0.83957 0.0
C983 C 0.48961 0.70059 0.86363 0.0
C984 C 0.47394 0.70656 0.90647 0.0
C985 C 0.47149 0.72657 0.92544 0.0
C986 C 0.48555 0.74029 0.90075 0.0
H987 H 0.28372 0.47756 0.86664 0.0
H988 H 0.34397 0.47385 0.93296 0.0
H989 H 0.35282 0.50062 0.85295 0.0
H990 H 0.29404 0.48496 0.69525 0.0
H991 H 0.27335 0.50117 0.68367 0.0
H992 H 0.2725 0.48243 0.74686 0.0
H993 H 0.26485 0.50892 0.8355 0.0
H994 H 0.26561 0.52775 0.77257 0.0
H995 H 0.28111 0.52964 0.84429 0.0
H996 H 0.35388 0.53014 0.75921 0.0
H997 H 0.34707 0.55527 0.67154 0.0
H998 H 0.2863 0.53671 0.66989 0.0
C999 C 0.29888 0.48225 0.86532 0.0
C1000 C 0.31306 0.47334 0.90758 0.0
C1001 C 0.33267 0.48024 0.9021 0.0
C1002 C 0.33782 0.49554 0.85635 0.0
C1003 C 0.32328 0.50388 0.81544 0.0
C1004 C 0.30419 0.49718 0.82009 0.0
C1005 C 0.29093 0.50777 0.77137 0.0
C1006 C 0.2822 0.49322 0.72134 0.0
C1007 C 0.27467 0.5192 0.80813 0.0
C1008 C 0.30529 0.52169 0.73785 0.0
C1009 C 0.32396 0.51956 0.76341 0.0
C1010 C 0.33924 0.5316 0.73933 0.0
C1011 C 0.33527 0.54592 0.68903 0.0
C1012 C 0.31615 0.54818 0.66225 0.0
C1013 C 0.30121 0.5356 0.68778 0.0
H1014 H 0.54795 0.27974 0.85298 0.0
H1015 H 0.53857 0.33513 0.95442 0.0
H1016 H 0.51183 0.34316 0.87448 0.0
H1017 H 0.54144 0.2977 0.68906 0.0
H1018 H 0.52978 0.27549 0.66078 0.0
H1019 H 0.54717 0.27439 0.72748 0.0
H1020 H 0.52127 0.25752 0.8029 0.0
H1021 H 0.50388 0.25836 0.73621 0.0
H1022 H 0.49771 0.26912 0.8152 0.0
H1023 H 0.48486 0.34438 0.77439 0.0
H1024 H 0.46279 0.33804 0.67855 0.0
H1025 H 0.49237 0.28235 0.64592 0.0
C1026 C 0.54032 0.29361 0.8594 0.0
C1027 C 0.54561 0.3067 0.91131 0.0
C1028 C 0.53491 0.32463 0.91621 0.0
C1029 C 0.51969 0.32935 0.87034 0.0
C1030 C 0.51518 0.31608 0.8191 0.0
C1031 C 0.52536 0.29851 0.81427 0.0
C1032 C 0.51843 0.28649 0.75557 0.0
C1033 C 0.5352 0.28334 0.70526 0.0
C1034 C 0.50981 0.26671 0.77887 0.0
C1035 C 0.50263 0.29981 0.72726 0.0
C1036 C 0.50073 0.31689 0.76392 0.0
C1037 C 0.48653 0.331 0.74591 0.0
C1038 C 0.47404 0.32737 0.69071 0.0
C1039 C 0.47567 0.30974 0.65322 0.0
C1040 C 0.49049 0.29609 0.67235 0.0
H1041 H 0.73882 0.5462 0.8832 0.0
H1042 H 0.67732 0.55078 0.93625 0.0
H1043 H 0.6697 0.52489 0.85267 0.0
H1044 H 0.73268 0.54036 0.71 0.0
H1045 H 0.75293 0.52342 0.70131 0.0
H1046 H 0.75301 0.54143 0.76658 0.0
H1047 H 0.75737 0.5138 0.85401 0.0
H1048 H 0.75755 0.49572 0.78896 0.0
H1049 H 0.74024 0.49363 0.85649 0.0
H1050 H 0.6697 0.49743 0.75376 0.0
H1051 H 0.67755 0.47292 0.66544 0.0
H1052 H 0.739 0.48815 0.68098 0.0
C1053 C 0.72366 0.54179 0.87814 0.0
C1054 C 0.70872 0.55079 0.91756 0.0
C1055 C 0.68917 0.5442 0.90798 0.0
C1056 C 0.68472 0.52949 0.85987 0.0
C1057 C 0.69991 0.52126 0.82108 0.0
C1058 C 0.71904 0.52727 0.83079 0.0
C1059 C 0.73305 0.51664 0.784 0.0
C1060 C 0.74353 0.53134 0.73775 0.0
C1061 C 0.74793 0.50421 0.8232 0.0
C1062 C 0.71905 0.50364 0.74558 0.0
C1063 C 0.69991 0.50632 0.76693 0.0
C1064 C 0.68472 0.49546 0.73737 0.0
C1065 C 0.68928 0.48158 0.68644 0.0
C1066 C 0.70892 0.47843 0.66478 0.0
C1067 C 0.72377 0.48997 0.69525 0.0
H1068 H 0.55882 0.25332 0.27822 0.0
H1069 H 0.53755 0.25048 0.07633 0.0
H1070 H 0.50438 0.24408 0.1184 0.0
H1071 H 0.51903 0.21693 0.35283 0.0
H1072 H 0.51852 0.23158 0.42714 0.0
H1073 H 0.54128 0.22806 0.38251 0.0
H1074 H 0.54563 0.26585 0.3758 0.0
H1075 H 0.52298 0.26951 0.419 0.0
H1076 H 0.52659 0.28065 0.33862 0.0
H1077 H 0.47399 0.2513 0.17728 0.0
H1078 H 0.44968 0.26794 0.24931 0.0
H1079 H 0.48911 0.26335 0.41487 0.0
C1080 C 0.54749 0.25039 0.24252 0.0
C1081 C 0.55083 0.25315 0.17392 0.0
C1082 C 0.53539 0.24915 0.12927 0.0
C1083 C 0.51645 0.24517 0.15277 0.0
C1084 C 0.51327 0.24456 0.22102 0.0
C1085 C 0.52854 0.24636 0.26544 0.0
C1086 C 0.52098 0.24879 0.33569 0.0
C1087 C 0.5252 0.23023 0.37696 0.0
C1088 C 0.52953 0.2673 0.36905 0.0
C1089 C 0.49925 0.25088 0.3226 0.0
C1090 C 0.49498 0.24764 0.25643 0.0
C1091 C 0.47686 0.25289 0.22967 0.0
C1092 C 0.46317 0.2624 0.27054 0.0
C1093 C 0.46762 0.26629 0.33733 0.0
C1094 C 0.48535 0.2596 0.36444 0.0
H1095 H 0.74404 0.5316 0.12122 0.0
H1096 H 0.77422 0.56635 0.26755 0.0
H1097 H 0.78759 0.53611 0.31755 0.0
H1098 H 0.72455 0.50164 0.21627 0.0
H1099 H 0.72655 0.47911 0.16947 0.0
H1100 H 0.72733 0.50218 0.12725 0.0
H1101 H 0.76084 0.49288 0.07495 0.0
H1102 H 0.76013 0.46951 0.11763 0.0
H1103 H 0.78094 0.48554 0.1272 0.0
H1104 H 0.78739 0.50466 0.37359 0.0
H1105 H 0.77137 0.47714 0.43198 0.0
H1106 H 0.74131 0.46115 0.25275 0.0
C1107 C 0.7544 0.53277 0.16134 0.0
C1108 C 0.75805 0.55114 0.19082 0.0
C1109 C 0.77113 0.55231 0.24468 0.0
C1110 C 0.77902 0.53519 0.27273 0.0
C1111 C 0.77379 0.51701 0.24611 0.0
C1112 C 0.762 0.51571 0.19052 0.0
C1113 C 0.75447 0.49497 0.1811 0.0
C1114 C 0.73192 0.49449 0.17326 0.0
C1115 C 0.76472 0.48515 0.12171 0.0
C1116 C 0.76113 0.48572 0.2455 0.0
C1117 C 0.77344 0.49818 0.28012 0.0
C1118 C 0.77838 0.49449 0.34613 0.0
C1119 C 0.76926 0.47879 0.37912 0.0
C1120 C 0.75517 0.46729 0.34617 0.0
C1121 C 0.75231 0.46979 0.27775 0.0
H1122 H 0.53284 0.76926 0.43435 0.0
H1123 H 0.54477 0.70644 0.43097 0.0
H1124 H 0.51361 0.70092 0.37291 0.0
H1125 H 0.47863 0.76659 0.44719 0.0
H1126 H 0.47562 0.78724 0.39182 0.0
H1127 H 0.49681 0.78582 0.44462 0.0
H1128 H 0.51966 0.78912 0.34177 0.0
H1129 H 0.4986 0.79062 0.28896 0.0
H1130 H 0.51705 0.77205 0.27414 0.0
H1131 H 0.48344 0.7027 0.30391 0.0
H1132 H 0.45761 0.71173 0.22472 0.0
H1133 H 0.46755 0.77359 0.26739 0.0
C1134 C 0.52886 0.75431 0.42211 0.0
C1135 C 0.54119 0.73831 0.43739 0.0
C1136 C 0.53537 0.71893 0.42081 0.0
C1137 C 0.51769 0.71563 0.38787 0.0
C1138 C 0.50608 0.73185 0.37227 0.0
C1139 C 0.51146 0.75081 0.38882 0.0
C1140 C 0.49781 0.76594 0.35945 0.0
C1141 C 0.48655 0.77705 0.41404 0.0
C1142 C 0.50895 0.78025 0.31334 0.0
C1143 C 0.48442 0.75256 0.32126 0.0
C1144 C 0.48908 0.73295 0.33052 0.0
C1145 C 0.47951 0.718 0.2967 0.0
C1146 C 0.46502 0.72333 0.25117 0.0
C1147 C 0.46062 0.74344 0.2391 0.0
C1148 C 0.47022 0.7581 0.27589 0.0
H1149 H 0.29423 0.56165 0.25478 0.0
H1150 H 0.25971 0.54914 0.42987 0.0
H1151 H 0.24372 0.52165 0.37265 0.0
H1152 H 0.25564 0.53919 0.12575 0.0
H1153 H 0.27608 0.53017 0.07743 0.0
H1154 H 0.27773 0.55361 0.11885 0.0
H1155 H 0.30948 0.54181 0.17655 0.0
H1156 H 0.30782 0.51848 0.13661 0.0
H1157 H 0.30894 0.51958 0.2258 0.0
H1158 H 0.24225 0.48982 0.31858 0.0
H1159 H 0.25267 0.45859 0.26711 0.0
H1160 H 0.28773 0.4911 0.12473 0.0
C1161 C 0.28244 0.55371 0.27901 0.0
C1162 C 0.27815 0.55724 0.34601 0.0
C1163 C 0.26296 0.54669 0.37797 0.0
C1164 C 0.25379 0.53107 0.34569 0.0
C1165 C 0.25972 0.52658 0.28119 0.0
C1166 C 0.27325 0.53809 0.24711 0.0
C1167 C 0.28031 0.52806 0.18458 0.0
C1168 C 0.27193 0.53837 0.12301 0.0
C1169 C 0.30295 0.52689 0.18087 0.0
C1170 C 0.27108 0.50807 0.19433 0.0
C1171 C 0.25854 0.50772 0.2485 0.0
C1172 C 0.25136 0.49005 0.27448 0.0
C1173 C 0.2576 0.47236 0.24572 0.0
C1174 C 0.27098 0.47251 0.19194 0.0
C1175 C 0.27705 0.4906 0.16449 0.0
H1176 H 0.20505 0.1637 0.4485 0.0
H1177 H 0.24211 0.1485 0.28203 0.0
H1178 H 0.23358 0.17964 0.22733 0.0
H1179 H 0.16831 0.17353 0.37895 0.0
H1180 H 0.15892 0.19509 0.42073 0.0
H1181 H 0.17564 0.17929 0.46255 0.0
H1182 H 0.19909 0.20842 0.48249 0.0
H1183 H 0.18211 0.2246 0.44077 0.0
H1184 H 0.20735 0.22336 0.41387 0.0
H1185 H 0.21143 0.20134 0.17267 0.0
H1186 H 0.1796 0.21121 0.12721 0.0
H1187 H 0.15501 0.21289 0.3253 0.0
C1188 C 0.21219 0.16768 0.40243 0.0
C1189 C 0.22375 0.15378 0.36855 0.0
C1190 C 0.23278 0.15891 0.30786 0.0
C1191 C 0.22827 0.17676 0.27706 0.0
C1192 C 0.21477 0.18929 0.3078 0.0
C1193 C 0.20732 0.1853 0.37068 0.0
C1194 C 0.18949 0.19787 0.38569 0.0
C1195 C 0.1721 0.18568 0.41335 0.0
C1196 C 0.19484 0.21456 0.4335 0.0
C1197 C 0.18563 0.20598 0.31717 0.0
C1198 C 0.20119 0.20228 0.2744 0.0
C1199 C 0.19945 0.20487 0.20604 0.0
C1200 C 0.18116 0.21005 0.18039 0.0
C1201 C 0.16479 0.21231 0.22301 0.0
C1202 C 0.16741 0.21147 0.29207 0.0
H1203 H 0.81073 0.17474 0.11025 0.0
H1204 H 0.7816 0.15473 0.28925 0.0
H1205 H 0.79312 0.18391 0.34779 0.0
H1206 H 0.85129 0.18018 0.16963 0.0
H1207 H 0.86003 0.20219 0.1289 0.0
H1208 H 0.84132 0.18791 0.09104 0.0
H1209 H 0.8185 0.21836 0.0867 0.0
H1210 H 0.83745 0.23296 0.12448 0.0
H1211 H 0.81328 0.23205 0.16114 0.0
H1212 H 0.81693 0.20494 0.39698 0.0
H1213 H 0.84999 0.21437 0.43093 0.0
H1214 H 0.86778 0.21872 0.22498 0.0
C1215 C 0.80635 0.1769 0.16125 0.0
C1216 C 0.79583 0.16227 0.19575 0.0
C1217 C 0.78974 0.16573 0.26173 0.0
C1218 C 0.79613 0.18244 0.29532 0.0
C1219 C 0.80861 0.19548 0.2623 0.0
C1220 C 0.81336 0.19313 0.19582 0.0
C1221 C 0.831 0.20538 0.17639 0.0
C1222 C 0.84682 0.19316 0.13954 0.0
C1223 C 0.82467 0.22325 0.13475 0.0
C1224 C 0.83758 0.21177 0.24431 0.0
C1225 C 0.82364 0.20737 0.29235 0.0
C1226 C 0.82772 0.20887 0.35972 0.0
C1227 C 0.84675 0.21377 0.3786 0.0
C1228 C 0.86159 0.21666 0.33023 0.0
C1229 C 0.85662 0.21672 0.26265 0.0
H1230 H 0.81314 0.85489 0.41636 0.0
H1231 H 0.78214 0.87365 0.24023 0.0
H1232 H 0.79488 0.84509 0.18051 0.0
H1233 H 0.85378 0.85145 0.35033 0.0
H1234 H 0.86392 0.83003 0.39081 0.0
H1235 H 0.84489 0.84371 0.43073 0.0
H1236 H 0.82351 0.81241 0.44002 0.0
H1237 H 0.84279 0.79839 0.40044 0.0
H1238 H 0.81832 0.79812 0.36711 0.0
H1239 H 0.81914 0.82452 0.12914 0.0
H1240 H 0.85198 0.8149 0.0918 0.0
H1241 H 0.87139 0.81224 0.29577 0.0
C1242 C 0.80861 0.85265 0.36577 0.0
C1243 C 0.79715 0.8668 0.33251 0.0
C1244 C 0.79096 0.86308 0.26702 0.0
C1245 C 0.79807 0.84671 0.23267 0.0
C1246 C 0.81136 0.83427 0.26437 0.0
C1247 C 0.81633 0.83684 0.3303 0.0
C1248 C 0.83466 0.8254 0.34793 0.0
C1249 C 0.8502 0.83845 0.38174 0.0
C1250 C 0.8295 0.80751 0.39142 0.0
C1251 C 0.841 0.81894 0.27953 0.0
C1252 C 0.82666 0.82284 0.23298 0.0
C1253 C 0.83028 0.82098 0.16529 0.0
C1254 C 0.84919 0.81597 0.14444 0.0
C1255 C 0.86441 0.81339 0.19112 0.0
C1256 C 0.85997 0.81398 0.2593 0.0
H1257 H 0.1901 0.8481 0.08782 0.0
H1258 H 0.21022 0.8801 0.25836 0.0
H1259 H 0.21722 0.84903 0.31606 0.0
H1260 H 0.1614 0.82149 0.14755 0.0
H1261 H 0.16542 0.79777 0.10937 0.0
H1262 H 0.17375 0.81943 0.06838 0.0
H1263 H 0.20879 0.80519 0.06324 0.0
H1264 H 0.20042 0.78323 0.10519 0.0
H1265 H 0.22074 0.79698 0.13777 0.0
H1266 H 0.20791 0.81965 0.36996 0.0
H1267 H 0.18025 0.80044 0.41268 0.0
H1268 H 0.16416 0.78477 0.21338 0.0
C1269 C 0.19691 0.84818 0.13607 0.0
C1270 C 0.19925 0.86607 0.16965 0.0
C1271 C 0.20791 0.86632 0.23281 0.0
C1272 C 0.21234 0.84869 0.26516 0.0
C1273 C 0.20785 0.83093 0.23392 0.0
C1274 C 0.20076 0.83053 0.16948 0.0
C1275 C 0.19185 0.81072 0.15381 0.0
C1276 C 0.17191 0.81252 0.11795 0.0
C1277 C 0.20632 0.7983 0.11262 0.0
C1278 C 0.19011 0.80246 0.22342 0.0
C1279 C 0.20154 0.81311 0.26741 0.0
C1280 C 0.19923 0.81109 0.3359 0.0
C1281 C 0.18327 0.80036 0.35995 0.0
C1282 C 0.16985 0.7919 0.31551 0.0
C1283 C 0.17445 0.79119 0.24755 0.0
H1284 H 0.87083 0.81623 0.81767 0.0
H1285 H 0.91252 0.85737 0.89984 0.0
H1286 H 0.90008 0.88326 0.82275 0.0
H1287 H 0.87327 0.83208 0.64875 0.0
H1288 H 0.84743 0.82886 0.63382 0.0
H1289 H 0.8596 0.81393 0.6951 0.0
H1290 H 0.83477 0.82529 0.78482 0.0
H1291 H 0.82226 0.83987 0.72347 0.0
H1292 H 0.83095 0.85125 0.79829 0.0
H1293 H 0.88246 0.90492 0.7301 0.0
H1294 H 0.85965 0.92016 0.64913 0.0
H1295 H 0.82915 0.86474 0.63118 0.0
C1296 C 0.87739 0.83072 0.82004 0.0
C1297 C 0.89284 0.83455 0.86558 0.0
C1298 C 0.90065 0.85389 0.86647 0.0
C1299 C 0.89373 0.86868 0.82206 0.0
C1300 C 0.87876 0.86416 0.77688 0.0
C1301 C 0.8705 0.84561 0.77683 0.0
C1302 C 0.85409 0.84437 0.72591 0.0
C1303 C 0.85889 0.82889 0.67276 0.0
C1304 C 0.83435 0.83994 0.76016 0.0
C1305 C 0.8543 0.86506 0.69644 0.0
C1306 C 0.86877 0.87628 0.72573 0.0
C1307 C 0.8713 0.89602 0.70692 0.0
C1308 C 0.85844 0.90455 0.65959 0.0
C1309 C 0.84306 0.89355 0.6305 0.0
C1310 C 0.84126 0.87342 0.64945 0.0
H1311 H 0.10386 0.85623 0.64206 0.0
H1312 H 0.15439 0.83111 0.5415 0.0
H1313 H 0.17614 0.84609 0.62554 0.0
H1314 H 0.12661 0.90252 0.68783 0.0
H1315 H 0.11402 0.90373 0.76653 0.0
H1316 H 0.10286 0.89123 0.69786 0.0
H1317 H 0.09949 0.8597 0.76934 0.0
H1318 H 0.11076 0.87206 0.83809 0.0
H1319 H 0.12098 0.84927 0.80771 0.0
H1320 H 0.19273 0.8641 0.72733 0.0
H1321 H 0.20147 0.88337 0.82745 0.0
H1322 H 0.1399 0.89675 0.85899 0.0
C1323 C 0.11952 0.85397 0.63684 0.0
C1324 C 0.12718 0.84223 0.58417 0.0
C1325 C 0.14788 0.83976 0.58088 0.0
C1326 C 0.16044 0.84832 0.62877 0.0
C1327 C 0.1523 0.85951 0.68048 0.0
C1328 C 0.13223 0.8624 0.68419 0.0
C1329 C 0.12691 0.87489 0.74436 0.0
C1330 C 0.11702 0.89424 0.72285 0.0
C1331 C 0.11376 0.86329 0.79273 0.0
C1332 C 0.14703 0.8787 0.77425 0.0
C1333 C 0.16158 0.86969 0.7371 0.0
C1334 C 0.1813 0.87118 0.7562 0.0
C1335 C 0.18619 0.88217 0.81363 0.0
C1336 C 0.17152 0.89176 0.85216 0.0
C1337 C 0.15166 0.88975 0.83142 0.0
H1338 H 0.16657 0.14154 0.60589 0.0
H1339 H 0.20588 0.10689 0.72758 0.0
H1340 H 0.19071 0.12139 0.82855 0.0
H1341 H 0.16761 0.18517 0.70569 0.0
H1342 H 0.14224 0.19123 0.69112 0.0
H1343 H 0.15594 0.17752 0.63014 0.0
H1344 H 0.12983 0.14994 0.63438 0.0
H1345 H 0.11611 0.16351 0.69573 0.0
H1346 H 0.12374 0.13858 0.71269 0.0
H1347 H 0.16996 0.14146 0.92057 0.0
H1348 H 0.14874 0.16462 0.98495 0.0
H1349 H 0.12363 0.18547 0.80092 0.0
C1350 C 0.17201 0.13678 0.65363 0.0
C1351 C 0.18763 0.1228 0.6575 0.0
C1352 C 0.19413 0.11748 0.72198 0.0
C1353 C 0.18545 0.12568 0.78013 0.0
C1354 C 0.17011 0.13943 0.77426 0.0
C1355 C 0.16359 0.14491 0.71204 0.0
C1356 C 0.14738 0.16034 0.71782 0.0
C1357 C 0.15367 0.17971 0.68421 0.0
C1358 C 0.12813 0.15262 0.68841 0.0
C1359 C 0.14564 0.16278 0.79274 0.0
C1360 C 0.15874 0.15061 0.82515 0.0
C1361 C 0.15968 0.15089 0.89489 0.0
C1362 C 0.14737 0.16404 0.93158 0.0
C1363 C 0.13414 0.177 0.89906 0.0
C1364 C 0.13335 0.17586 0.82843 0.0
H1365 H 0.8304 0.16366 0.8919 0.0
H1366 H 0.85919 0.10713 0.87432 0.0
H1367 H 0.88196 0.12113 0.78999 0.0
H1368 H 0.83143 0.17608 0.72471 0.0
H1369 H 0.83605 0.20198 0.73582 0.0
H1370 H 0.82368 0.18819 0.79987 0.0
H1371 H 0.84971 0.1987 0.88547 0.0
H1372 H 0.86186 0.213 0.82211 0.0
H1373 H 0.87535 0.1946 0.86766 0.0
H1374 H 0.89967 0.14169 0.69409 0.0
H1375 H 0.91251 0.16681 0.61457 0.0
H1376 H 0.87239 0.20972 0.69829 0.0
C1377 C 0.84217 0.15448 0.87297 0.0
C1378 C 0.84349 0.1344 0.89299 0.0
C1379 C 0.85839 0.12272 0.86306 0.0
C1380 C 0.87121 0.13054 0.81382 0.0
C1381 C 0.86912 0.15025 0.79398 0.0
C1382 C 0.85518 0.16214 0.82416 0.0
C1383 C 0.85535 0.18265 0.79328 0.0
C1384 C 0.83544 0.1875 0.76156 0.0
C1385 C 0.8609 0.19815 0.84521 0.0
C1386 C 0.87136 0.18054 0.7406 0.0
C1387 C 0.87911 0.16173 0.74088 0.0
C1388 C 0.89371 0.15647 0.69447 0.0
C1389 C 0.90084 0.17081 0.64862 0.0
C1390 C 0.89359 0.19041 0.64925 0.0
C1391 C 0.87845 0.19498 0.69593 0.0
H1392 H 0.70419 0.62123 0.73669 0.0
H1393 H 0.73443 0.65748 0.8778 0.0
H1394 H 0.73518 0.68465 0.79861 0.0
H1395 H 0.72294 0.65775 0.57455 0.0
H1396 H 0.69984 0.65193 0.53649 0.0
H1397 H 0.71388 0.63286 0.57696 0.0
H1398 H 0.6837 0.62413 0.64843 0.0
H1399 H 0.66988 0.64291 0.60846 0.0
H1400 H 0.67196 0.64304 0.69766 0.0
H1401 H 0.71477 0.70904 0.75278 0.0
H1402 H 0.68258 0.7245 0.73572 0.0
H1403 H 0.66523 0.67613 0.61167 0.0
C1404 C 0.71199 0.63463 0.74812 0.0
C1405 C 0.71858 0.6377 0.81303 0.0
C1406 C 0.72906 0.65496 0.82818 0.0
C1407 C 0.72964 0.6705 0.78293 0.0
C1408 C 0.71982 0.66842 0.72282 0.0
C1409 C 0.71241 0.65031 0.70287 0.0
C1410 C 0.69862 0.65286 0.64484 0.0
C1411 C 0.70948 0.64862 0.57937 0.0
C1412 C 0.67993 0.64003 0.6505 0.0
C1413 C 0.69451 0.67468 0.65101 0.0
C1414 C 0.70816 0.68375 0.69167 0.0
C1415 C 0.70453 0.70234 0.71894 0.0
C1416 C 0.68607 0.71093 0.71018 0.0
C1417 C 0.67167 0.70114 0.67317 0.0
C1418 C 0.67645 0.68376 0.63913 0.0
H1419 H 0.30367 0.64691 0.82383 0.0
H1420 H 0.30174 0.6717 0.62671 0.0
H1421 H 0.3103 0.70419 0.67098 0.0
H1422 H 0.29312 0.69872 0.919 0.0
H1423 H 0.30995 0.69072 0.98218 0.0
H1424 H 0.29365 0.67324 0.94418 0.0
H1425 H 0.32345 0.65135 0.91395 0.0
H1426 H 0.33963 0.6686 0.95091 0.0
H1427 H 0.34328 0.66169 0.86543 0.0
H1428 H 0.33107 0.72782 0.7224 0.0
H1429 H 0.36134 0.73955 0.77355 0.0
H1430 H 0.352 0.69983 0.93892 0.0
C1431 C 0.30397 0.65956 0.79118 0.0
C1432 C 0.30247 0.657 0.72243 0.0
C1433 C 0.30329 0.67347 0.67972 0.0
C1434 C 0.30778 0.69203 0.70474 0.0
C1435 C 0.31135 0.69382 0.77247 0.0
C1436 C 0.30897 0.67804 0.81573 0.0
C1437 C 0.31851 0.68201 0.8818 0.0
C1438 C 0.30287 0.68645 0.93491 0.0
C1439 C 0.33204 0.66493 0.90406 0.0
C1440 C 0.32982 0.70042 0.86422 0.0
C1441 C 0.3243 0.70786 0.80309 0.0
C1442 C 0.33511 0.7225 0.77105 0.0
C1443 C 0.35257 0.72879 0.79984 0.0
C1444 C 0.35922 0.72018 0.85952 0.0
C1445 C 0.34709 0.70678 0.89374 0.0
H1446 H 0.31023 0.37161 0.74958 0.0
H1447 H 0.31424 0.34976 0.95065 0.0
H1448 H 0.32354 0.31712 0.90851 0.0
H1449 H 0.29782 0.31892 0.6693 0.0
H1450 H 0.31221 0.32599 0.59791 0.0
H1451 H 0.29723 0.34402 0.64014 0.0
H1452 H 0.32765 0.36632 0.65391 0.0
H1453 H 0.34244 0.34861 0.61203 0.0
H1454 H 0.34919 0.35652 0.69408 0.0
H1455 H 0.34276 0.29254 0.85168 0.0
H1456 H 0.37163 0.28089 0.79066 0.0
H1457 H 0.35568 0.3179 0.62417 0.0
C1458 C 0.31209 0.35963 0.78437 0.0
C1459 C 0.3119 0.36321 0.85296 0.0
C1460 C 0.31482 0.34744 0.89766 0.0
C1461 C 0.31965 0.3287 0.87403 0.0
C1462 C 0.32119 0.32594 0.80568 0.0
C1463 C 0.31706 0.34097 0.76123 0.0
C1464 C 0.32419 0.33606 0.69217 0.0
C1465 C 0.30683 0.33093 0.64725 0.0
C1466 C 0.33663 0.35285 0.66151 0.0
C1467 C 0.33619 0.31788 0.70741 0.0
C1468 C 0.333 0.31137 0.77174 0.0
C1469 C 0.34504 0.29722 0.80092 0.0
C1470 C 0.36169 0.29094 0.76616 0.0
C1471 C 0.36637 0.29917 0.70353 0.0
C1472 C 0.35256 0.31141 0.67192 0.0
H1473 H 0.65366 0.40339 0.65602 0.0
H1474 H 0.68309 0.42497 0.83013 0.0
H1475 H 0.65264 0.42101 0.89479 0.0
H1476 H 0.59853 0.41805 0.72045 0.0
H1477 H 0.58991 0.3959 0.68141 0.0
H1478 H 0.60868 0.41057 0.64179 0.0
H1479 H 0.63097 0.37989 0.63421 0.0
H1480 H 0.61256 0.36538 0.67337 0.0
H1481 H 0.6368 0.36638 0.70881 0.0
H1482 H 0.62635 0.40381 0.9465 0.0
H1483 H 0.61291 0.37189 0.97934 0.0
H1484 H 0.59976 0.35865 0.77563 0.0
C1485 C 0.65324 0.40827 0.70692 0.0
C1486 C 0.67055 0.41427 0.73845 0.0
C1487 C 0.66995 0.42003 0.80545 0.0
C1488 C 0.65254 0.41824 0.84203 0.0
C1489 C 0.63593 0.41064 0.81086 0.0
C1490 C 0.63609 0.40603 0.74393 0.0
C1491 C 0.61898 0.39302 0.72584 0.0
C1492 C 0.60308 0.40511 0.69032 0.0
C1493 C 0.62526 0.37511 0.68332 0.0
C1494 C 0.61213 0.38732 0.79459 0.0
C1495 C 0.62049 0.39933 0.84238 0.0
C1496 C 0.61937 0.3947 0.90967 0.0
C1497 C 0.61176 0.37643 0.92803 0.0
C1498 C 0.60577 0.36298 0.87903 0.0
C1499 C 0.60436 0.36906 0.81284 0.0
H1500 H 0.34948 0.41905 0.2507 0.0
H1501 H 0.34946 0.37619 0.09203 0.0
H1502 H 0.36711 0.35258 0.16495 0.0
H1503 H 0.39711 0.40734 0.31909 0.0
H1504 H 0.38928 0.41071 0.40379 0.0
H1505 H 0.37742 0.42422 0.33824 0.0
H1506 H 0.34376 0.41054 0.37607 0.0
H1507 H 0.35551 0.39699 0.44171 0.0
H1508 H 0.34038 0.38429 0.38277 0.0
H1509 H 0.38619 0.33352 0.2586 0.0
H1510 H 0.40186 0.32092 0.36058 0.0
H1511 H 0.38727 0.37547 0.46075 0.0
C1512 C 0.35333 0.40478 0.23063 0.0
C1513 C 0.34817 0.3998 0.16429 0.0
C1514 C 0.35326 0.38065 0.14178 0.0
C1515 C 0.36334 0.36708 0.18323 0.0
C1516 C 0.36816 0.37253 0.24818 0.0
C1517 C 0.3631 0.39095 0.27175 0.0
C1518 C 0.36919 0.39309 0.3441 0.0
C1519 C 0.38414 0.40984 0.35174 0.0
C1520 C 0.35114 0.39642 0.3888 0.0
C1521 C 0.37863 0.3731 0.35795 0.0
C1522 C 0.37806 0.36145 0.3019 0.0
C1523 C 0.38638 0.34256 0.30265 0.0
C1524 C 0.39523 0.33541 0.36149 0.0
C1525 C 0.39564 0.34681 0.42045 0.0
C1526 C 0.38719 0.36606 0.41756 0.0
H1527 H 0.69062 0.40485 0.29703 0.0
H1528 H 0.6608 0.39065 0.48111 0.0
H1529 H 0.63652 0.37083 0.41784 0.0
H1530 H 0.64702 0.40871 0.1932 0.0
H1531 H 0.65946 0.3982 0.12253 0.0
H1532 H 0.67311 0.41195 0.18286 0.0
H1533 H 0.69638 0.38215 0.19944 0.0
H1534 H 0.68277 0.3683 0.13947 0.0
H1535 H 0.68622 0.35854 0.22175 0.0
H1536 H 0.61631 0.3496 0.32765 0.0
H1537 H 0.60354 0.33216 0.22833 0.0
H1538 H 0.64717 0.36175 0.10713 0.0
C1539 C 0.67884 0.39784 0.32452 0.0
C1540 C 0.67778 0.39956 0.39473 0.0
C1541 C 0.66199 0.38994 0.42764 0.0
C1542 C 0.64815 0.37848 0.39176 0.0
C1543 C 0.65001 0.3768 0.32249 0.0
C1544 C 0.66499 0.38655 0.28964 0.0
C1545 C 0.66452 0.38239 0.21569 0.0
C1546 C 0.6608 0.40145 0.17626 0.0
C1547 C 0.6836 0.37224 0.19278 0.0
C1548 C 0.64713 0.36852 0.21116 0.0
C1549 C 0.63877 0.36532 0.27285 0.0
C1550 C 0.62282 0.35233 0.27945 0.0
C1551 C 0.61554 0.34245 0.22244 0.0
C1552 C 0.62408 0.34546 0.15879 0.0
C1553 C 0.64 0.35895 0.15423 0.0
H1554 H 0.65005 0.65067 0.11757 0.0
H1555 H 0.68674 0.61185 0.23457 0.0
H1556 H 0.67285 0.62651 0.33734 0.0
H1557 H 0.65428 0.69301 0.22024 0.0
H1558 H 0.62933 0.70099 0.20783 0.0
H1559 H 0.64169 0.68681 0.14487 0.0
H1560 H 0.61377 0.66106 0.14846 0.0
H1561 H 0.60131 0.67519 0.21141 0.0
H1562 H 0.6072 0.64967 0.22629 0.0
H1563 H 0.65472 0.64774 0.43109 0.0
H1564 H 0.63522 0.67145 0.49864 0.0
H1565 H 0.61049 0.69552 0.31827 0.0
C1566 C 0.65513 0.64498 0.16461 0.0
C1567 C 0.66969 0.62985 0.16672 0.0
C1568 C 0.67572 0.62327 0.23039 0.0
C1569 C 0.66784 0.63161 0.28948 0.0
C1570 C 0.65371 0.64665 0.28527 0.0
C1571 C 0.6474 0.65312 0.22392 0.0
C1572 C 0.63237 0.66963 0.23165 0.0
C1573 C 0.63987 0.68874 0.19923 0.0
C1574 C 0.61249 0.66352 0.20274 0.0
C1575 C 0.63114 0.67165 0.30677 0.0
C1576 C 0.64351 0.65833 0.33739 0.0
C1577 C 0.64495 0.65804 0.40687 0.0
C1578 C 0.63369 0.67161 0.44527 0.0
C1579 C 0.62096 0.6855 0.41483 0.0
C1580 C 0.61981 0.68517 0.34425 0.0
H1581 H 0.33457 0.66069 0.4269 0.0
H1582 H 0.36236 0.60532 0.37766 0.0
H1583 H 0.38329 0.62237 0.29448 0.0
H1584 H 0.33222 0.67954 0.26616 0.0
H1585 H 0.3374 0.70475 0.2873 0.0
H1586 H 0.32621 0.68866 0.34763 0.0
H1587 H 0.35411 0.69572 0.43049 0.0
H1588 H 0.36515 0.71223 0.37102 0.0
H1589 H 0.37927 0.69216 0.40498 0.0
H1590 H 0.39888 0.64607 0.20424 0.0
H1591 H 0.41015 0.67376 0.13228 0.0
H1592 H 0.37299 0.71364 0.24401 0.0
C1593 C 0.34577 0.65231 0.40111 0.0
C1594 C 0.34737 0.63164 0.41184 0.0
C1595 C 0.36141 0.62119 0.37329 0.0
C1596 C 0.37318 0.63079 0.3248 0.0
C1597 C 0.37089 0.65108 0.31438 0.0
C1598 C 0.35778 0.66176 0.35285 0.0
C1599 C 0.35761 0.68329 0.33109 0.0
C1600 C 0.33714 0.68941 0.30661 0.0
C1601 C 0.36445 0.69664 0.38776 0.0
C1602 C 0.37246 0.68313 0.27417 0.0
C1603 C 0.37988 0.66441 0.26443 0.0
C1604 C 0.39325 0.66078 0.21248 0.0
C1605 C 0.3995 0.67661 0.17111 0.0
C1606 C 0.39264 0.69609 0.18183 0.0
C1607 C 0.37877 0.69907 0.23413 0.0
loop_
_geom_bond_atom_site_label_1
_geom_bond_atom_site_label_2
_geom_bond_distance
_geom_bond_site_symmetry_2
_ccdc_geom_bond_type
C0 C1 1.351 . S
C0 N3 1.368 . S
C0 H5 0.931 . S
C1 C0 1.351 . S
C1 N2 1.373 . S
C1 H29 0.930 . S
N2 C1 1.373 . S
N2 C4 1.340 . S
N3 C0 1.368 . S
N3 C4 1.321 . S
N3 Co6 2.135 . S
C4 N2 1.340 . S
C4 N3 1.321 . S
C4 H28 0.930 . S
H5 C0 0.931 . S
Co6 N3 2.135 . S
Co6 N9 2.121 1_554 S
Co6 O14 2.055 . S
Co6 O17 2.039 1_554 S
Co6 N20 2.140 . S
C7 O8 1.227 . S
C7 O17 1.265 . S
O8 C7 1.227 . S
N9 Co6 2.121 1_556 S
N9 C11 1.375 . S
N9 C12 1.313 . S
C10 C11 1.338 . S
C10 N13 1.377 . S
C10 H30 0.930 . S
C11 N9 1.375 . S
C11 C10 1.338 . S
C11 H15 0.931 . S
C12 N9 1.313 . S
C12 N13 1.344 . S
C12 H16 0.930 . S
N13 C10 1.377 . S
N13 C12 1.344 . S
O14 Co6 2.055 . S
O14 C18 1.253 . S
H15 C11 0.931 . S
H16 C12 0.930 . S
O17 Co6 2.039 1_556 S
O17 C7 1.265 . S
C18 O14 1.253 . S
C18 O19 1.227 . S
O19 C18 1.227 . S
N20 Co6 2.140 . S
N20 C23 1.346 . S
N20 C24 1.345 1_554 S
C21 C22 1.386 1_556 S
C21 C25 1.392 . S
C22 C21 1.386 1_554 S
C22 C23 1.369 . S
C22 H31 0.929 . S
C23 N20 1.346 . S
C23 C22 1.369 . S
C23 H26 0.928 . S
C24 N20 1.345 1_556 S
C24 C25 1.371 . S
C24 H27 0.931 . S
C25 C21 1.392 . S
C25 C24 1.371 . S
C25 H32 0.930 . S
H26 C23 0.928 . S
H27 C24 0.931 . S
H28 C4 0.930 . S
H29 C1 0.930 . S
H30 C10 0.930 . S
H31 C22 0.929 . S
H32 C25 0.930 . S
C33 C34 1.351 . S
C33 N36 1.368 . S
C33 H38 0.931 . S
C34 C33 1.351 . S
C34 N35 1.373 . S
C34 H62 0.930 . S
N35 C34 1.373 . S
N35 C37 1.340 . S
N36 C33 1.368 . S
N36 C37 1.321 . S
N36 Co39 2.135 . S
C37 N35 1.340 . S
C37 N36 1.321 . S
C37 H61 0.930 . S
H38 C33 0.931 . S
Co39 N36 2.135 . S
Co39 N42 2.121 1_554 S
Co39 O47 2.055 . S
Co39 O50 2.039 1_554 S
Co39 N53 2.140 . S
C40 O41 1.227 . S
C40 O50 1.265 . S
O41 C40 1.227 . S
N42 Co39 2.121 1_556 S
N42 C44 1.375 . S
N42 C45 1.313 . S
C43 C44 1.338 . S
C43 N46 1.377 . S
C43 H63 0.930 . S
C44 N42 1.375 . S
C44 C43 1.338 . S
C44 H48 0.931 . S
C45 N42 1.313 . S
C45 N46 1.344 . S
C45 H49 0.930 . S
N46 C43 1.377 . S
N46 C45 1.344 . S
O47 Co39 2.055 . S
O47 C51 1.253 . S
H48 C44 0.931 . S
H49 C45 0.930 . S
O50 Co39 2.039 1_556 S
O50 C40 1.265 . S
C51 O47 1.253 . S
C51 O52 1.227 . S
O52 C51 1.227 . S
N53 Co39 2.140 . S
N53 C56 1.346 . S
N53 C57 1.345 1_554 S
C54 C55 1.386 1_556 S
C54 C58 1.392 . S
C55 C54 1.386 1_554 S
C55 C56 1.369 . S
C55 H64 0.929 . S
C56 N53 1.346 . S
C56 C55 1.369 . S
C56 H59 0.928 . S
C57 N53 1.345 1_556 S
C57 C58 1.371 . S
C57 H60 0.931 . S
C58 C54 1.392 . S
C58 C57 1.371 . S
C58 H65 0.930 . S
H59 C56 0.928 . S
H60 C57 0.931 . S
H61 C37 0.930 . S
H62 C34 0.930 . S
H63 C43 0.930 . S
H64 C55 0.929 . S
H65 C58 0.930 . S
C66 C67 1.351 . S
C66 N69 1.368 . S
C66 H71 0.931 . S
C67 C66 1.351 . S
C67 N68 1.373 . S
C67 H95 0.930 . S
N68 C67 1.373 . S
N68 C70 1.340 . S
N69 C66 1.368 . S
N69 C70 1.321 . S
N69 Co72 2.135 . S
C70 N68 1.340 . S
C70 N69 1.321 . S
C70 H94 0.930 . S
H71 C66 0.931 . S
Co72 N69 2.135 . S
Co72 N75 2.121 1_554 S
Co72 O80 2.055 . S
Co72 O83 2.039 1_554 S
Co72 N86 2.140 . S
C73 O74 1.227 . S
C73 O83 1.265 . S
O74 C73 1.227 . S
N75 Co72 2.121 1_556 S
N75 C77 1.375 . S
N75 C78 1.313 . S
C76 C77 1.338 . S
C76 N79 1.377 . S
C76 H96 0.930 . S
C77 N75 1.375 . S
C77 C76 1.338 . S
C77 H81 0.931 . S
C78 N75 1.313 . S
C78 N79 1.344 . S
C78 H82 0.930 . S
N79 C76 1.377 . S
N79 C78 1.344 . S
O80 Co72 2.055 . S
O80 C84 1.253 . S
H81 C77 0.931 . S
H82 C78 0.930 . S
O83 Co72 2.039 1_556 S
O83 C73 1.265 . S
C84 O80 1.253 . S
C84 O85 1.227 . S
O85 C84 1.227 . S
N86 Co72 2.140 . S
N86 C89 1.346 . S
N86 C90 1.345 1_554 S
C87 C88 1.386 1_556 S
C87 C91 1.392 . S
C88 C87 1.386 1_554 S
C88 C89 1.369 . S
C88 H97 0.929 . S
C89 N86 1.346 . S
C89 C88 1.369 . S
C89 H92 0.928 . S
C90 N86 1.345 1_556 S
C90 C91 1.371 . S
C90 H93 0.931 . S
C91 C87 1.392 . S
C91 C90 1.371 . S
C91 H98 0.930 . S
H92 C89 0.928 . S
H93 C90 0.931 . S
H94 C70 0.930 . S
H95 C67 0.930 . S
H96 C76 0.930 . S
H97 C88 0.929 . S
H98 C91 0.930 . S
C99 C100 1.351 . S
C99 N102 1.368 . S
C99 H104 0.931 . S
C100 C99 1.351 . S
C100 N101 1.373 . S
C100 H128 0.930 . S
N101 C100 1.373 . S
N101 C103 1.340 . S
N102 C99 1.368 . S
N102 C103 1.321 . S
N102 Co105 2.135 . S
C103 N101 1.340 . S
C103 N102 1.321 . S
C103 H127 0.930 . S
H104 C99 0.931 . S
Co105 N102 2.135 . S
Co105 N108 2.121 1_554 S
Co105 O113 2.055 . S
Co105 O116 2.039 1_554 S
Co105 N119 2.140 . S
C106 O107 1.227 . S
C106 O116 1.265 . S
O107 C106 1.227 . S
N108 Co105 2.121 1_556 S
N108 C110 1.375 . S
N108 C111 1.313 . S
C109 C110 1.338 . S
C109 N112 1.377 . S
C109 H129 0.930 . S
C110 N108 1.375 . S
C110 C109 1.338 . S
C110 H114 0.931 . S
C111 N108 1.313 . S
C111 N112 1.344 . S
C111 H115 0.930 . S
N112 C109 1.377 . S
N112 C111 1.344 . S
O113 Co105 2.055 . S
O113 C117 1.253 . S
H114 C110 0.931 . S
H115 C111 0.930 . S
O116 Co105 2.039 1_556 S
O116 C106 1.265 . S
C117 O113 1.253 . S
C117 O118 1.227 . S
O118 C117 1.227 . S
N119 Co105 2.140 . S
N119 C122 1.346 . S
N119 C123 1.345 1_554 S
C120 C121 1.386 1_556 S
C120 C124 1.392 . S
C121 C120 1.386 1_554 S
C121 C122 1.369 . S
C121 H130 0.929 . S
C122 N119 1.346 . S
C122 C121 1.369 . S
C122 H125 0.928 . S
C123 N119 1.345 1_556 S
C123 C124 1.371 . S
C123 H126 0.931 . S
C124 C120 1.392 . S
C124 C123 1.371 . S
C124 H131 0.930 . S
H125 C122 0.928 . S
H126 C123 0.931 . S
H127 C103 0.930 . S
H128 C100 0.930 . S
H129 C109 0.930 . S
H130 C121 0.929 . S
H131 C124 0.930 . S
C132 C133 1.351 . S
C132 N135 1.368 . S
C132 H137 0.931 . S
C133 C132 1.351 . S
C133 N134 1.373 . S
C133 H161 0.930 . S
N134 C133 1.373 . S
N134 C136 1.340 . S
N135 C132 1.368 . S
N135 C136 1.321 . S
N135 Co138 2.135 . S
C136 N134 1.340 . S
C136 N135 1.321 . S
C136 H160 0.930 . S
H137 C132 0.931 . S
Co138 N135 2.135 . S
Co138 N141 2.121 . S
Co138 O146 2.055 . S
Co138 O149 2.039 . S
Co138 N152 2.140 . S
C139 O140 1.227 . S
C139 O149 1.265 . S
O140 C139 1.227 . S
N141 Co138 2.121 . S
N141 C143 1.375 . S
N141 C144 1.313 . S
C142 C143 1.338 . S
C142 N145 1.377 . S
C142 H162 0.930 . S
C143 N141 1.375 . S
C143 C142 1.338 . S
C143 H147 0.931 . S
C144 N141 1.313 . S
C144 N145 1.344 . S
C144 H148 0.930 . S
N145 C142 1.377 . S
N145 C144 1.344 . S
O146 Co138 2.055 . S
O146 C150 1.253 . S
H147 C143 0.931 . S
H148 C144 0.930 . S
O149 Co138 2.039 . S
O149 C139 1.265 . S
C150 O146 1.253 . S
C150 O151 1.227 . S
O151 C150 1.227 . S
N152 Co138 2.140 . S
N152 C155 1.346 . S
N152 C156 1.345 . S
C153 C154 1.387 . S
C153 C157 1.391 . S
C154 C153 1.387 . S
C154 C155 1.369 . S
C154 H163 0.929 . S
C155 N152 1.346 . S
C155 C154 1.369 . S
C155 H158 0.928 . S
C156 N152 1.345 . S
C156 C157 1.371 . S
C156 H159 0.931 . S
C157 C153 1.391 . S
C157 C156 1.371 . S
C157 H164 0.930 . S
H158 C155 0.928 . S
H159 C156 0.931 . S
H160 C136 0.930 . S
H161 C133 0.930 . S
H162 C142 0.930 . S
H163 C154 0.929 . S
H164 C157 0.930 . S
C165 C166 1.351 . S
C165 N168 1.368 . S
C165 H170 0.931 . S
C166 C165 1.351 . S
C166 N167 1.373 . S
C166 H194 0.930 . S
N167 C166 1.373 . S
N167 C169 1.340 . S
N168 C165 1.368 . S
N168 C169 1.321 . S
N168 Co171 2.135 . S
C169 N167 1.340 . S
C169 N168 1.321 . S
C169 H193 0.930 . S
H170 C165 0.931 . S
Co171 N168 2.135 . S
Co171 N174 2.121 . S
Co171 O179 2.055 . S
Co171 O182 2.039 . S
Co171 N185 2.140 . S
C172 O173 1.227 . S
C172 O182 1.265 . S
O173 C172 1.227 . S
N174 Co171 2.121 . S
N174 C176 1.375 . S
N174 C177 1.313 . S
C175 C176 1.338 . S
C175 N178 1.377 . S
C175 H195 0.930 . S
C176 N174 1.375 . S
C176 C175 1.338 . S
C176 H180 0.931 . S
C177 N174 1.313 . S
C177 N178 1.344 . S
C177 H181 0.930 . S
N178 C175 1.377 . S
N178 C177 1.344 . S
O179 Co171 2.055 . S
O179 C183 1.253 . S
H180 C176 0.931 . S
H181 C177 0.930 . S
O182 Co171 2.039 . S
O182 C172 1.265 . S
C183 O179 1.253 . S
C183 O184 1.227 . S
O184 C183 1.227 . S
N185 Co171 2.140 . S
N185 C188 1.346 . S
N185 C189 1.345 . S
C186 C187 1.387 . S
C186 C190 1.391 . S
C187 C186 1.387 . S
C187 C188 1.369 . S
C187 H196 0.929 . S
C188 N185 1.346 . S
C188 C187 1.369 . S
C188 H191 0.928 . S
C189 N185 1.345 . S
C189 C190 1.371 . S
C189 H192 0.931 . S
C190 C186 1.391 . S
C190 C189 1.371 . S
C190 H197 0.930 . S
H191 C188 0.928 . S
H192 C189 0.931 . S
H193 C169 0.930 . S
H194 C166 0.930 . S
H195 C175 0.930 . S
H196 C187 0.929 . S
H197 C190 0.930 . S
C198 C199 1.351 . S
C198 N201 1.368 . S
C198 H203 0.931 . S
C199 C198 1.351 . S
C199 N200 1.373 . S
C199 H227 0.930 . S
N200 C199 1.373 . S
N200 C202 1.340 . S
N201 C198 1.368 . S
N201 C202 1.321 . S
N201 Co204 2.135 . S
C202 N200 1.340 . S
C202 N201 1.321 . S
C202 H226 0.930 . S
H203 C198 0.931 . S
Co204 N201 2.135 . S
Co204 N207 2.121 . S
Co204 O212 2.055 . S
Co204 O215 2.039 . S
Co204 N218 2.140 . S
C205 O206 1.227 . S
C205 O215 1.265 . S
O206 C205 1.227 . S
N207 Co204 2.121 . S
N207 C209 1.375 . S
N207 C210 1.313 . S
C208 C209 1.338 . S
C208 N211 1.377 . S
C208 H228 0.930 . S
C209 N207 1.375 . S
C209 C208 1.338 . S
C209 H213 0.931 . S
C210 N207 1.313 . S
C210 N211 1.344 . S
C210 H214 0.930 . S
N211 C208 1.377 . S
N211 C210 1.344 . S
O212 Co204 2.055 . S
O212 C216 1.253 . S
H213 C209 0.931 . S
H214 C210 0.930 . S
O215 Co204 2.039 . S
O215 C205 1.265 . S
C216 O212 1.253 . S
C216 O217 1.227 . S
O217 C216 1.227 . S
N218 Co204 2.140 . S
N218 C221 1.346 . S
N218 C222 1.345 . S
C219 C220 1.387 . S
C219 C223 1.391 . S
C220 C219 1.387 . S
C220 C221 1.369 . S
C220 H229 0.929 . S
C221 N218 1.346 . S
C221 C220 1.369 . S
C221 H224 0.928 . S
C222 N218 1.345 . S
C222 C223 1.371 . S
C222 H225 0.931 . S
C223 C219 1.391 . S
C223 C222 1.371 . S
C223 H230 0.930 . S
H224 C221 0.928 . S
H225 C222 0.931 . S
H226 C202 0.930 . S
H227 C199 0.930 . S
H228 C208 0.930 . S
H229 C220 0.929 . S
H230 C223 0.930 . S
C231 C232 1.351 . S
C231 N234 1.368 . S
C231 H236 0.931 . S
C232 C231 1.351 . S
C232 N233 1.373 . S
C232 H260 0.930 . S
N233 C232 1.373 . S
N233 C235 1.340 . S
N234 C231 1.368 . S
N234 C235 1.321 . S
N234 Co237 2.135 . S
C235 N233 1.340 . S
C235 N234 1.321 . S
C235 H259 0.930 . S
H236 C231 0.931 . S
Co237 N234 2.135 . S
Co237 N240 2.121 . S
Co237 O245 2.055 . S
Co237 O248 2.039 . S
Co237 N251 2.140 . S
C238 O239 1.227 . S
C238 O248 1.265 . S
O239 C238 1.227 . S
N240 Co237 2.121 . S
N240 C242 1.375 . S
N240 C243 1.313 . S
C241 C242 1.338 . S
C241 N244 1.377 . S
C241 H261 0.930 . S
C242 N240 1.375 . S
C242 C241 1.338 . S
C242 H246 0.931 . S
C243 N240 1.313 . S
C243 N244 1.344 . S
C243 H247 0.930 . S
N244 C241 1.377 . S
N244 C243 1.344 . S
O245 Co237 2.055 . S
O245 C249 1.253 . S
H246 C242 0.931 . S
H247 C243 0.930 . S
O248 Co237 2.039 . S
O248 C238 1.265 . S
C249 O245 1.253 . S
C249 O250 1.227 . S
O250 C249 1.227 . S
N251 Co237 2.140 . S
N251 C254 1.346 . S
N251 C255 1.345 . S
C252 C253 1.387 . S
C252 C256 1.391 . S
C253 C252 1.387 . S
C253 C254 1.369 . S
C253 H262 0.929 . S
C254 N251 1.346 . S
C254 C253 1.369 . S
C254 H257 0.928 . S
C255 N251 1.345 . S
C255 C256 1.371 . S
C255 H258 0.931 . S
C256 C252 1.391 . S
C256 C255 1.371 . S
C256 H263 0.930 . S
H257 C254 0.928 . S
H258 C255 0.931 . S
H259 C235 0.930 . S
H260 C232 0.930 . S
H261 C241 0.930 . S
H262 C253 0.929 . S
H263 C256 0.930 . S
C264 C265 1.351 . S
C264 N267 1.368 . S
C264 H269 0.931 . S
C265 C264 1.351 . S
C265 N266 1.373 . S
C265 H293 0.930 . S
N266 C265 1.373 . S
N266 C268 1.340 . S
N267 C264 1.368 . S
N267 C268 1.321 . S
N267 Co270 2.135 . S
C268 N266 1.340 . S
C268 N267 1.321 . S
C268 H292 0.930 . S
H269 C264 0.931 . S
Co270 N267 2.135 . S
Co270 N273 2.121 . S
Co270 O278 2.055 . S
Co270 O281 2.039 . S
Co270 N284 2.140 . S
C271 O272 1.227 . S
C271 O281 1.265 . S
O272 C271 1.227 . S
N273 Co270 2.121 . S
N273 C275 1.375 . S
N273 C276 1.313 . S
C274 C275 1.338 . S
C274 N277 1.377 . S
C274 H294 0.930 . S
C275 N273 1.375 . S
C275 C274 1.338 . S
C275 H279 0.931 . S
C276 N273 1.313 . S
C276 N277 1.344 . S
C276 H280 0.930 . S
N277 C274 1.377 . S
N277 C276 1.344 . S
O278 Co270 2.055 . S
O278 C282 1.253 . S
H279 C275 0.931 . S
H280 C276 0.930 . S
O281 Co270 2.039 . S
O281 C271 1.265 . S
C282 O278 1.253 . S
C282 O283 1.227 . S
O283 C282 1.227 . S
N284 Co270 2.140 . S
N284 C287 1.346 . S
N284 C288 1.345 . S
C285 C286 1.387 . S
C285 C289 1.391 . S
C286 C285 1.387 . S
C286 C287 1.369 . S
C286 H295 0.929 . S
C287 N284 1.346 . S
C287 C286 1.369 . S
C287 H290 0.928 . S
C288 N284 1.345 . S
C288 C289 1.371 . S
C288 H291 0.931 . S
C289 C285 1.391 . S
C289 C288 1.371 . S
C289 H296 0.930 . S
H290 C287 0.928 . S
H291 C288 0.931 . S
H292 C268 0.930 . S
H293 C265 0.930 . S
H294 C274 0.930 . S
H295 C286 0.929 . S
H296 C289 0.930 . S
C297 C298 1.351 . S
C297 N300 1.368 . S
C297 H302 0.931 . S
C298 C297 1.351 . S
C298 N299 1.373 . S
C298 H326 0.930 . S
N299 C298 1.373 . S
N299 C301 1.340 . S
N300 C297 1.368 . S
N300 C301 1.321 . S
N300 Co303 2.135 . S
C301 N299 1.340 . S
C301 N300 1.321 . S
C301 H325 0.930 . S
H302 C297 0.931 . S
Co303 N300 2.135 . S
Co303 N306 2.121 . S
Co303 O311 2.055 . S
Co303 O314 2.039 . S
Co303 N317 2.140 . S
C304 O305 1.227 . S
C304 O314 1.265 . S
O305 C304 1.227 . S
N306 Co303 2.121 . S
N306 C308 1.375 . S
N306 C309 1.313 . S
C307 C308 1.338 . S
C307 N310 1.377 . S
C307 H327 0.930 . S
C308 N306 1.375 . S
C308 C307 1.338 . S
C308 H312 0.931 . S
C309 N306 1.313 . S
C309 N310 1.344 . S
C309 H313 0.930 . S
N310 C307 1.377 . S
N310 C309 1.344 . S
O311 Co303 2.055 . S
O311 C315 1.253 . S
H312 C308 0.931 . S
H313 C309 0.930 . S
O314 Co303 2.039 . S
O314 C304 1.265 . S
C315 O311 1.253 . S
C315 O316 1.227 . S
O316 C315 1.227 . S
N317 Co303 2.140 . S
N317 C320 1.346 . S
N317 C321 1.345 . S
C318 C319 1.387 . S
C318 C322 1.391 . S
C319 C318 1.387 . S
C319 C320 1.369 . S
C319 H328 0.929 . S
C320 N317 1.346 . S
C320 C319 1.369 . S
C320 H323 0.928 . S
C321 N317 1.345 . S
C321 C322 1.371 . S
C321 H324 0.931 . S
C322 C318 1.391 . S
C322 C321 1.371 . S
C322 H329 0.930 . S
H323 C320 0.928 . S
H324 C321 0.931 . S
H325 C301 0.930 . S
H326 C298 0.930 . S
H327 C307 0.930 . S
H328 C319 0.929 . S
H329 C322 0.930 . S
C330 C331 1.351 . S
C330 N333 1.368 . S
C330 H335 0.931 . S
C331 C330 1.351 . S
C331 N332 1.373 . S
C331 H359 0.930 . S
N332 C331 1.373 . S
N332 C334 1.340 . S
N333 C330 1.368 . S
N333 C334 1.321 . S
N333 Co336 2.135 . S
C334 N332 1.340 . S
C334 N333 1.321 . S
C334 H358 0.930 . S
H335 C330 0.931 . S
Co336 N333 2.135 . S
Co336 N339 2.121 . S
Co336 O344 2.055 . S
Co336 O347 2.039 . S
Co336 N350 2.140 . S
C337 O338 1.227 . S
C337 O347 1.265 . S
O338 C337 1.227 . S
N339 Co336 2.121 . S
N339 C341 1.375 . S
N339 C342 1.313 . S
C340 C341 1.338 . S
C340 N343 1.377 . S
C340 H360 0.930 . S
C341 N339 1.375 . S
C341 C340 1.338 . S
C341 H345 0.931 . S
C342 N339 1.313 . S
C342 N343 1.344 . S
C342 H346 0.930 . S
N343 C340 1.377 . S
N343 C342 1.344 . S
O344 Co336 2.055 . S
O344 C348 1.253 . S
H345 C341 0.931 . S
H346 C342 0.930 . S
O347 Co336 2.039 . S
O347 C337 1.265 . S
C348 O344 1.253 . S
C348 O349 1.227 . S
O349 C348 1.227 . S
N350 Co336 2.140 . S
N350 C353 1.346 . S
N350 C354 1.345 . S
C351 C352 1.387 . S
C351 C355 1.391 . S
C352 C351 1.387 . S
C352 C353 1.369 . S
C352 H361 0.929 . S
C353 N350 1.346 . S
C353 C352 1.369 . S
C353 H356 0.928 . S
C354 N350 1.345 . S
C354 C355 1.371 . S
C354 H357 0.931 . S
C355 C351 1.391 . S
C355 C354 1.371 . S
C355 H362 0.930 . S
H356 C353 0.928 . S
H357 C354 0.931 . S
H358 C334 0.930 . S
H359 C331 0.930 . S
H360 C340 0.930 . S
H361 C352 0.929 . S
H362 C355 0.930 . S
C363 C364 1.351 . S
C363 N366 1.368 . S
C363 H368 0.931 . S
C364 C363 1.351 . S
C364 N365 1.373 . S
C364 H392 0.930 . S
N365 C364 1.373 . S
N365 C367 1.340 . S
N366 C363 1.368 . S
N366 C367 1.321 . S
N366 Co369 2.135 . S
C367 N365 1.340 . S
C367 N366 1.321 . S
C367 H391 0.930 . S
H368 C363 0.931 . S
Co369 N366 2.135 . S
Co369 N372 2.121 . S
Co369 O377 2.055 . S
Co369 O380 2.039 . S
Co369 N383 2.140 . S
C370 O371 1.227 . S
C370 O380 1.265 . S
O371 C370 1.227 . S
N372 Co369 2.121 . S
N372 C374 1.375 . S
N372 C375 1.313 . S
C373 C374 1.338 . S
C373 N376 1.377 . S
C373 H393 0.930 . S
C374 N372 1.375 . S
C374 C373 1.338 . S
C374 H378 0.931 . S
C375 N372 1.313 . S
C375 N376 1.344 . S
C375 H379 0.930 . S
N376 C373 1.377 . S
N376 C375 1.344 . S
O377 Co369 2.055 . S
O377 C381 1.253 . S
H378 C374 0.931 . S
H379 C375 0.930 . S
O380 Co369 2.039 . S
O380 C370 1.265 . S
C381 O377 1.253 . S
C381 O382 1.227 . S
O382 C381 1.227 . S
N383 Co369 2.140 . S
N383 C386 1.346 . S
N383 C387 1.345 . S
C384 C385 1.387 . S
C384 C388 1.391 . S
C385 C384 1.387 . S
C385 C386 1.369 . S
C385 H394 0.929 . S
C386 N383 1.346 . S
C386 C385 1.369 . S
C386 H389 0.928 . S
C387 N383 1.345 . S
C387 C388 1.371 . S
C387 H390 0.931 . S
C388 C384 1.391 . S
C388 C387 1.371 . S
C388 H395 0.930 . S
H389 C386 0.928 . S
H390 C387 0.931 . S
H391 C367 0.930 . S
H392 C364 0.930 . S
H393 C373 0.930 . S
H394 C385 0.929 . S
H395 C388 0.930 . S
C396 C397 1.351 . S
C396 N399 1.368 . S
C396 H401 0.931 . S
C397 C396 1.351 . S
C397 N398 1.373 . S
C397 H425 0.930 . S
N398 C397 1.373 . S
N398 C400 1.340 . S
N399 C396 1.368 . S
N399 C400 1.321 . S
N399 Co402 2.135 . S
C400 N398 1.340 . S
C400 N399 1.321 . S
C400 H424 0.930 . S
H401 C396 0.931 . S
Co402 N399 2.135 . S
Co402 N405 2.121 1_556 S
Co402 O410 2.055 . S
Co402 O413 2.039 1_556 S
Co402 N416 2.140 . S
C403 O404 1.227 . S
C403 O413 1.265 . S
O404 C403 1.227 . S
N405 Co402 2.121 1_554 S
N405 C407 1.375 . S
N405 C408 1.313 . S
C406 C407 1.338 . S
C406 N409 1.377 . S
C406 H426 0.930 . S
C407 N405 1.375 . S
C407 C406 1.338 . S
C407 H411 0.931 . S
C408 N405 1.313 . S
C408 N409 1.344 . S
C408 H412 0.930 . S
N409 C406 1.377 . S
N409 C408 1.344 . S
O410 Co402 2.055 . S
O410 C414 1.253 . S
H411 C407 0.931 . S
H412 C408 0.930 . S
O413 Co402 2.039 1_554 S
O413 C403 1.265 . S
C414 O410 1.253 . S
C414 O415 1.227 . S
O415 C414 1.227 . S
N416 Co402 2.140 . S
N416 C419 1.346 . S
N416 C420 1.345 1_556 S
C417 C418 1.385 1_554 S
C417 C421 1.392 . S
C418 C417 1.385 1_556 S
C418 C419 1.369 . S
C418 H427 0.929 . S
C419 N416 1.346 . S
C419 C418 1.369 . S
C419 H422 0.928 . S
C420 N416 1.345 1_554 S
C420 C421 1.371 . S
C420 H423 0.931 . S
C421 C417 1.392 . S
C421 C420 1.371 . S
C421 H428 0.930 . S
H422 C419 0.928 . S
H423 C420 0.931 . S
H424 C400 0.930 . S
H425 C397 0.930 . S
H426 C406 0.930 . S
H427 C418 0.929 . S
H428 C421 0.930 . S
C429 C430 1.351 . S
C429 N432 1.368 . S
C429 H434 0.931 . S
C430 C429 1.351 . S
C430 N431 1.373 . S
C430 H458 0.930 . S
N431 C430 1.373 . S
N431 C433 1.340 . S
N432 C429 1.368 . S
N432 C433 1.321 . S
N432 Co435 2.135 . S
C433 N431 1.340 . S
C433 N432 1.321 . S
C433 H457 0.930 . S
H434 C429 0.931 . S
Co435 N432 2.135 . S
Co435 N438 2.121 1_556 S
Co435 O443 2.055 . S
Co435 O446 2.039 1_556 S
Co435 N449 2.140 . S
C436 O437 1.227 . S
C436 O446 1.265 . S
O437 C436 1.227 . S
N438 Co435 2.121 1_554 S
N438 C440 1.375 . S
N438 C441 1.313 . S
C439 C440 1.338 . S
C439 N442 1.377 . S
C439 H459 0.930 . S
C440 N438 1.375 . S
C440 C439 1.338 . S
C440 H444 0.931 . S
C441 N438 1.313 . S
C441 N442 1.344 . S
C441 H445 0.930 . S
N442 C439 1.377 . S
N442 C441 1.344 . S
O443 Co435 2.055 . S
O443 C447 1.253 . S
H444 C440 0.931 . S
H445 C441 0.930 . S
O446 Co435 2.039 1_554 S
O446 C436 1.265 . S
C447 O443 1.253 . S
C447 O448 1.227 . S
O448 C447 1.227 . S
N449 Co435 2.140 . S
N449 C452 1.346 . S
N449 C453 1.345 1_556 S
C450 C451 1.385 1_554 S
C450 C454 1.392 . S
C451 C450 1.385 1_556 S
C451 C452 1.369 . S
C451 H460 0.929 . S
C452 N449 1.346 . S
C452 C451 1.369 . S
C452 H455 0.928 . S
C453 N449 1.345 1_554 S
C453 C454 1.371 . S
C453 H456 0.931 . S
C454 C450 1.392 . S
C454 C453 1.371 . S
C454 H461 0.930 . S
H455 C452 0.928 . S
H456 C453 0.931 . S
H457 C433 0.930 . S
H458 C430 0.930 . S
H459 C439 0.930 . S
H460 C451 0.929 . S
H461 C454 0.930 . S
C462 C463 1.351 . S
C462 N465 1.368 . S
C462 H467 0.931 . S
C463 C462 1.351 . S
C463 N464 1.373 . S
C463 H491 0.930 . S
N464 C463 1.373 . S
N464 C466 1.340 . S
N465 C462 1.368 . S
N465 C466 1.321 . S
N465 Co468 2.135 . S
C466 N464 1.340 . S
C466 N465 1.321 . S
C466 H490 0.930 . S
H467 C462 0.931 . S
Co468 N465 2.135 . S
Co468 N471 2.121 1_556 S
Co468 O476 2.055 . S
Co468 O479 2.039 1_556 S
Co468 N482 2.140 . S
C469 O470 1.227 . S
C469 O479 1.265 . S
O470 C469 1.227 . S
N471 Co468 2.121 1_554 S
N471 C473 1.375 . S
N471 C474 1.313 . S
C472 C473 1.338 . S
C472 N475 1.377 . S
C472 H492 0.930 . S
C473 N471 1.375 . S
C473 C472 1.338 . S
C473 H477 0.931 . S
C474 N471 1.313 . S
C474 N475 1.344 . S
C474 H478 0.930 . S
N475 C472 1.377 . S
N475 C474 1.344 . S
O476 Co468 2.055 . S
O476 C480 1.253 . S
H477 C473 0.931 . S
H478 C474 0.930 . S
O479 Co468 2.039 1_554 S
O479 C469 1.265 . S
C480 O476 1.253 . S
C480 O481 1.227 . S
O481 C480 1.227 . S
N482 Co468 2.140 . S
N482 C485 1.346 . S
N482 C486 1.345 1_556 S
C483 C484 1.385 1_554 S
C483 C487 1.392 . S
C484 C483 1.385 1_556 S
C484 C485 1.369 . S
C484 H493 0.929 . S
C485 N482 1.346 . S
C485 C484 1.369 . S
C485 H488 0.928 . S
C486 N482 1.345 1_554 S
C486 C487 1.371 . S
C486 H489 0.931 . S
C487 C483 1.392 . S
C487 C486 1.371 . S
C487 H494 0.930 . S
H488 C485 0.928 . S
H489 C486 0.931 . S
H490 C466 0.930 . S
H491 C463 0.930 . S
H492 C472 0.930 . S
H493 C484 0.929 . S
H494 C487 0.930 . S
C495 C496 1.351 . S
C495 N498 1.368 . S
C495 H500 0.931 . S
C496 C495 1.351 . S
C496 N497 1.373 . S
C496 H524 0.930 . S
N497 C496 1.373 . S
N497 C499 1.340 . S
N498 C495 1.368 . S
N498 C499 1.321 . S
N498 Co501 2.135 . S
C499 N497 1.340 . S
C499 N498 1.321 . S
C499 H523 0.930 . S
H500 C495 0.931 . S
Co501 N498 2.135 . S
Co501 N504 2.121 1_556 S
Co501 O509 2.055 . S
Co501 O512 2.039 1_556 S
Co501 N515 2.140 . S
C502 O503 1.227 . S
C502 O512 1.265 . S
O503 C502 1.227 . S
N504 Co501 2.121 1_554 S
N504 C506 1.375 . S
N504 C507 1.313 . S
C505 C506 1.338 . S
C505 N508 1.377 . S
C505 H525 0.930 . S
C506 N504 1.375 . S
C506 C505 1.338 . S
C506 H510 0.931 . S
C507 N504 1.313 . S
C507 N508 1.344 . S
C507 H511 0.930 . S
N508 C505 1.377 . S
N508 C507 1.344 . S
O509 Co501 2.055 . S
O509 C513 1.253 . S
H510 C506 0.931 . S
H511 C507 0.930 . S
O512 Co501 2.039 1_554 S
O512 C502 1.265 . S
C513 O509 1.253 . S
C513 O514 1.227 . S
O514 C513 1.227 . S
N515 Co501 2.140 . S
N515 C518 1.346 . S
N515 C519 1.345 1_556 S
C516 C517 1.385 1_554 S
C516 C520 1.392 . S
C517 C516 1.385 1_556 S
C517 C518 1.369 . S
C517 H526 0.929 . S
C518 N515 1.346 . S
C518 C517 1.369 . S
C518 H521 0.928 . S
C519 N515 1.345 1_554 S
C519 C520 1.371 . S
C519 H522 0.931 . S
C520 C516 1.392 . S
C520 C519 1.371 . S
C520 H527 0.930 . S
H521 C518 0.928 . S
H522 C519 0.931 . S
H523 C499 0.930 . S
H524 C496 0.930 . S
H525 C505 0.930 . S
H526 C517 0.929 . S
H527 C520 0.930 . S
H528 C540 0.930 . S
H529 C542 0.930 . S
H530 C543 0.930 . S
H531 C547 0.959 . S
H532 C547 0.959 . S
H533 C547 0.961 . S
H534 C548 0.960 . S
H535 C548 0.961 . S
H536 C548 0.959 . S
H537 C551 0.929 . S
H538 C552 0.931 . S
H539 C554 0.930 . S
C540 H528 0.930 . S
C540 C541 1.399 1_554 S
C540 C545 1.399 . S
C541 C540 1.399 1_556 S
C541 C542 1.376 . S
C542 H529 0.930 . S
C542 C541 1.376 . S
C542 C543 1.388 . S
C543 H530 0.930 . S
C543 C542 1.388 . S
C543 C544 1.390 . S
C544 C543 1.390 . S
C544 C545 1.394 1_556 S
C544 C550 1.465 . S
C545 C540 1.399 . S
C545 C544 1.394 1_554 S
C545 C546 1.516 . S
C546 C545 1.516 . S
C546 C547 1.502 . S
C546 C548 1.561 . S
C546 C549 1.526 . S
C547 H531 0.959 . S
C547 H532 0.959 . S
C547 H533 0.961 . S
C547 C546 1.502 . S
C548 H534 0.960 . S
C548 H535 0.961 . S
C548 H536 0.959 . S
C548 C546 1.561 . S
C549 C546 1.526 . S
C549 C550 1.396 1_554 S
C549 C554 1.390 . S
C550 C544 1.465 . S
C550 C549 1.396 1_556 S
C550 C551 1.399 . S
C551 H537 0.929 . S
C551 C550 1.399 . S
C551 C552 1.385 . S
C552 H538 0.931 . S
C552 C551 1.385 . S
C552 C553 1.389 . S
C553 C552 1.389 . S
C553 C554 1.387 1_556 S
C554 H539 0.930 . S
C554 C549 1.390 . S
C554 C553 1.387 1_554 S
H555 C567 0.930 . S
H556 C569 0.930 . S
H557 C570 0.930 . S
H558 C574 0.959 . S
H559 C574 0.959 . S
H560 C574 0.961 . S
H561 C575 0.960 . S
H562 C575 0.961 . S
H563 C575 0.959 . S
H564 C578 0.929 . S
H565 C579 0.931 . S
H566 C581 0.930 . S
C567 H555 0.930 . S
C567 C568 1.399 1_556 S
C567 C572 1.399 . S
C568 C567 1.399 1_554 S
C568 C569 1.376 . S
C569 H556 0.930 . S
C569 C568 1.376 . S
C569 C570 1.388 . S
C570 H557 0.930 . S
C570 C569 1.388 . S
C570 C571 1.390 . S
C571 C570 1.390 . S
C571 C572 1.394 1_554 S
C571 C577 1.465 . S
C572 C567 1.399 . S
C572 C571 1.394 1_556 S
C572 C573 1.516 . S
C573 C572 1.516 . S
C573 C574 1.502 . S
C573 C575 1.561 . S
C573 C576 1.526 . S
C574 H558 0.959 . S
C574 H559 0.959 . S
C574 H560 0.961 . S
C574 C573 1.502 . S
C575 H561 0.960 . S
C575 H562 0.961 . S
C575 H563 0.959 . S
C575 C573 1.561 . S
C576 C573 1.526 . S
C576 C577 1.396 1_556 S
C576 C581 1.390 . S
C577 C571 1.465 . S
C577 C576 1.396 1_554 S
C577 C578 1.399 . S
C578 H564 0.929 . S
C578 C577 1.399 . S
C578 C579 1.385 . S
C579 H565 0.931 . S
C579 C578 1.385 . S
C579 C580 1.389 . S
C580 C579 1.389 . S
C580 C581 1.387 1_554 S
C581 H566 0.930 . S
C581 C576 1.390 . S
C581 C580 1.387 1_556 S
H582 C594 0.930 . S
H583 C596 0.930 . S
H584 C597 0.930 . S
H585 C601 0.959 . S
H586 C601 0.959 . S
H587 C601 0.961 . S
H588 C602 0.960 . S
H589 C602 0.961 . S
H590 C602 0.959 . S
H591 C605 0.929 . S
H592 C606 0.931 . S
H593 C608 0.930 . S
C594 H582 0.930 . S
C594 C595 1.399 1_556 S
C594 C599 1.399 . S
C595 C594 1.399 1_554 S
C595 C596 1.376 . S
C596 H583 0.930 . S
C596 C595 1.376 . S
C596 C597 1.388 . S
C597 H584 0.930 . S
C597 C596 1.388 . S
C597 C598 1.390 . S
C598 C597 1.390 . S
C598 C599 1.394 1_554 S
C598 C604 1.465 . S
C599 C594 1.399 . S
C599 C598 1.394 1_556 S
C599 C600 1.516 . S
C600 C599 1.516 . S
C600 C601 1.502 . S
C600 C602 1.561 . S
C600 C603 1.526 . S
C601 H585 0.959 . S
C601 H586 0.959 . S
C601 H587 0.961 . S
C601 C600 1.502 . S
C602 H588 0.960 . S
C602 H589 0.961 . S
C602 H590 0.959 . S
C602 C600 1.561 . S
C603 C600 1.526 . S
C603 C604 1.396 1_556 S
C603 C608 1.390 . S
C604 C598 1.465 . S
C604 C603 1.396 1_554 S
C604 C605 1.399 . S
C605 H591 0.929 . S
C605 C604 1.399 . S
C605 C606 1.385 . S
C606 H592 0.931 . S
C606 C605 1.385 . S
C606 C607 1.389 . S
C607 C606 1.389 . S
C607 C608 1.387 1_554 S
C608 H593 0.930 . S
C608 C603 1.390 . S
C608 C607 1.387 1_556 S
H609 C621 0.930 . S
H610 C623 0.930 . S
H611 C624 0.930 . S
H612 C628 0.959 . S
H613 C628 0.959 . S
H614 C628 0.961 . S
H615 C629 0.960 . S
H616 C629 0.961 . S
H617 C629 0.959 . S
H618 C632 0.929 . S
H619 C633 0.931 . S
H620 C635 0.930 . S
C621 H609 0.930 . S
C621 C622 1.399 1_556 S
C621 C626 1.399 . S
C622 C621 1.399 1_554 S
C622 C623 1.376 . S
C623 H610 0.930 . S
C623 C622 1.376 . S
C623 C624 1.388 . S
C624 H611 0.930 . S
C624 C623 1.388 . S
C624 C625 1.390 . S
C625 C624 1.390 . S
C625 C626 1.394 1_554 S
C625 C631 1.465 . S
C626 C621 1.399 . S
C626 C625 1.394 1_556 S
C626 C627 1.516 . S
C627 C626 1.516 . S
C627 C628 1.502 . S
C627 C629 1.561 . S
C627 C630 1.526 . S
C628 H612 0.959 . S
C628 H613 0.959 . S
C628 H614 0.961 . S
C628 C627 1.502 . S
C629 H615 0.960 . S
C629 H616 0.961 . S
C629 H617 0.959 . S
C629 C627 1.561 . S
C630 C627 1.526 . S
C630 C631 1.396 1_556 S
C630 C635 1.390 . S
C631 C625 1.465 . S
C631 C630 1.396 1_554 S
C631 C632 1.399 . S
C632 H618 0.929 . S
C632 C631 1.399 . S
C632 C633 1.385 . S
C633 H619 0.931 . S
C633 C632 1.385 . S
C633 C634 1.389 . S
C634 C633 1.389 . S
C634 C635 1.387 1_554 S
C635 H620 0.930 . S
C635 C630 1.390 . S
C635 C634 1.387 1_556 S
H636 C648 0.930 . S
H637 C650 0.930 . S
H638 C651 0.930 . S
H639 C655 0.959 . S
H640 C655 0.959 . S
H641 C655 0.961 . S
H642 C656 0.960 . S
H643 C656 0.961 . S
H644 C656 0.959 . S
H645 C659 0.929 . S
H646 C660 0.931 . S
H647 C662 0.930 . S
C648 H636 0.930 . S
C648 C649 1.399 . S
C648 C653 1.399 . S
C649 C648 1.399 . S
C649 C650 1.376 . S
C650 H637 0.930 . S
C650 C649 1.376 . S
C650 C651 1.388 . S
C651 H638 0.930 . S
C651 C650 1.388 . S
C651 C652 1.390 . S
C652 C651 1.390 . S
C652 C653 1.394 . S
C652 C658 1.465 . S
C653 C648 1.399 . S
C653 C652 1.394 . S
C653 C654 1.516 . S
C654 C653 1.516 . S
C654 C655 1.502 . S
C654 C656 1.561 . S
C654 C657 1.526 . S
C655 H639 0.959 . S
C655 H640 0.959 . S
C655 H641 0.961 . S
C655 C654 1.502 . S
C656 H642 0.960 . S
C656 H643 0.961 . S
C656 H644 0.959 . S
C656 C654 1.561 . S
C657 C654 1.526 . S
C657 C658 1.396 . S
C657 C662 1.390 . S
C658 C652 1.465 . S
C658 C657 1.396 . S
C658 C659 1.399 . S
C659 H645 0.929 . S
C659 C658 1.399 . S
C659 C660 1.385 . S
C660 H646 0.931 . S
C660 C659 1.385 . S
C660 C661 1.389 . S
C661 C660 1.389 . S
C661 C662 1.387 . S
C662 H647 0.930 . S
C662 C657 1.390 . S
C662 C661 1.387 . S
H663 C675 0.930 . S
H664 C677 0.930 . S
H665 C678 0.930 . S
H666 C682 0.959 . S
H667 C682 0.959 . S
H668 C682 0.961 . S
H669 C683 0.960 . S
H670 C683 0.961 . S
H671 C683 0.959 . S
H672 C686 0.929 . S
H673 C687 0.931 . S
H674 C689 0.930 . S
C675 H663 0.930 . S
C675 C676 1.399 . S
C675 C680 1.399 . S
C676 C675 1.399 . S
C676 C677 1.376 . S
C677 H664 0.930 . S
C677 C676 1.376 . S
C677 C678 1.388 . S
C678 H665 0.930 . S
C678 C677 1.388 . S
C678 C679 1.390 . S
C679 C678 1.390 . S
C679 C680 1.394 . S
C679 C685 1.465 . S
C680 C675 1.399 . S
C680 C679 1.394 . S
C680 C681 1.516 . S
C681 C680 1.516 . S
C681 C682 1.502 . S
C681 C683 1.561 . S
C681 C684 1.526 . S
C682 H666 0.959 . S
C682 H667 0.959 . S
C682 H668 0.961 . S
C682 C681 1.502 . S
C683 H669 0.960 . S
C683 H670 0.961 . S
C683 H671 0.959 . S
C683 C681 1.561 . S
C684 C681 1.526 . S
C684 C685 1.396 . S
C684 C689 1.390 . S
C685 C679 1.465 . S
C685 C684 1.396 . S
C685 C686 1.399 . S
C686 H672 0.929 . S
C686 C685 1.399 . S
C686 C687 1.385 . S
C687 H673 0.931 . S
C687 C686 1.385 . S
C687 C688 1.389 . S
C688 C687 1.389 . S
C688 C689 1.387 . S
C689 H674 0.930 . S
C689 C684 1.390 . S
C689 C688 1.387 . S
H690 C702 0.930 . S
H691 C704 0.930 . S
H692 C705 0.930 . S
H693 C709 0.959 . S
H694 C709 0.959 . S
H695 C709 0.961 . S
H696 C710 0.960 . S
H697 C710 0.961 . S
H698 C710 0.959 . S
H699 C713 0.929 . S
H700 C714 0.931 . S
H701 C716 0.930 . S
C702 H690 0.930 . S
C702 C703 1.399 . S
C702 C707 1.399 . S
C703 C702 1.399 . S
C703 C704 1.376 . S
C704 H691 0.930 . S
C704 C703 1.376 . S
C704 C705 1.388 . S
C705 H692 0.930 . S
C705 C704 1.388 . S
C705 C706 1.390 . S
C706 C705 1.390 . S
C706 C707 1.394 . S
C706 C712 1.465 . S
C707 C702 1.399 . S
C707 C706 1.394 . S
C707 C708 1.516 . S
C708 C707 1.516 . S
C708 C709 1.502 . S
C708 C710 1.561 . S
C708 C711 1.526 . S
C709 H693 0.959 . S
C709 H694 0.959 . S
C709 H695 0.961 . S
C709 C708 1.502 . S
C710 H696 0.960 . S
C710 H697 0.961 . S
C710 H698 0.959 . S
C710 C708 1.561 . S
C711 C708 1.526 . S
C711 C712 1.396 . S
C711 C716 1.390 . S
C712 C706 1.465 . S
C712 C711 1.396 . S
C712 C713 1.399 . S
C713 H699 0.929 . S
C713 C712 1.399 . S
C713 C714 1.385 . S
C714 H700 0.931 . S
C714 C713 1.385 . S
C714 C715 1.389 . S
C715 C714 1.389 . S
C715 C716 1.387 . S
C716 H701 0.930 . S
C716 C711 1.390 . S
C716 C715 1.387 . S
H717 C729 0.930 . S
H718 C731 0.930 . S
H719 C732 0.930 . S
H720 C736 0.959 . S
H721 C736 0.959 . S
H722 C736 0.961 . S
H723 C737 0.960 . S
H724 C737 0.961 . S
H725 C737 0.959 . S
H726 C740 0.929 . S
H727 C741 0.931 . S
H728 C743 0.930 . S
C729 H717 0.930 . S
C729 C730 1.399 . S
C729 C734 1.399 . S
C730 C729 1.399 . S
C730 C731 1.376 . S
C731 H718 0.930 . S
C731 C730 1.376 . S
C731 C732 1.388 . S
C732 H719 0.930 . S
C732 C731 1.388 . S
C732 C733 1.390 . S
C733 C732 1.390 . S
C733 C734 1.394 . S
C733 C739 1.465 . S
C734 C729 1.399 . S
C734 C733 1.394 . S
C734 C735 1.516 . S
C735 C734 1.516 . S
C735 C736 1.502 . S
C735 C737 1.561 . S
C735 C738 1.526 . S
C736 H720 0.959 . S
C736 H721 0.959 . S
C736 H722 0.961 . S
C736 C735 1.502 . S
C737 H723 0.960 . S
C737 H724 0.961 . S
C737 H725 0.959 . S
C737 C735 1.561 . S
C738 C735 1.526 . S
C738 C739 1.396 . S
C738 C743 1.390 . S
C739 C733 1.465 . S
C739 C738 1.396 . S
C739 C740 1.399 . S
C740 H726 0.929 . S
C740 C739 1.399 . S
C740 C741 1.385 . S
C741 H727 0.931 . S
C741 C740 1.385 . S
C741 C742 1.389 . S
C742 C741 1.389 . S
C742 C743 1.387 . S
C743 H728 0.930 . S
C743 C738 1.390 . S
C743 C742 1.387 . S
H744 C756 0.930 . S
H745 C758 0.930 . S
H746 C759 0.929 1_455 S
H747 C763 0.959 . S
H748 C763 0.959 . S
H749 C763 0.961 . S
H750 C764 0.960 . S
H751 C764 0.961 . S
H752 C764 0.959 . S
H753 C767 0.929 . S
H754 C768 0.931 . S
H755 C770 0.930 . S
C756 H744 0.930 . S
C756 C757 1.399 . S
C756 C761 1.399 . S
C757 C756 1.399 . S
C757 C758 1.376 . S
C758 H745 0.930 . S
C758 C757 1.376 . S
C758 C759 1.389 . S
C759 H746 0.929 1_655 S
C759 C758 1.389 . S
C759 C760 1.389 . S
C760 C759 1.389 . S
C760 C761 1.430 . S
C760 C766 1.435 1_655 S
C761 C756 1.399 . S
C761 C760 1.430 . S
C761 C762 1.516 . S
C762 C761 1.516 . S
C762 C763 1.502 . S
C762 C764 1.561 . S
C762 C765 1.526 1_655 S
C763 H747 0.959 . S
C763 H748 0.959 . S
C763 H749 0.961 . S
C763 C762 1.502 . S
C764 H750 0.960 . S
C764 H751 0.961 . S
C764 H752 0.959 . S
C764 C762 1.561 . S
C765 C762 1.526 1_455 S
C765 C766 1.396 . S
C765 C770 1.390 . S
C766 C760 1.435 1_455 S
C766 C765 1.396 . S
C766 C767 1.399 . S
C767 H753 0.929 . S
C767 C766 1.399 . S
C767 C768 1.385 . S
C768 H754 0.931 . S
C768 C767 1.385 . S
C768 C769 1.389 . S
C769 C768 1.389 . S
C769 C770 1.387 . S
C770 H755 0.930 . S
C770 C765 1.390 . S
C770 C769 1.387 . S
H771 C783 0.930 . S
H772 C785 0.930 . S
H773 C786 0.930 . S
H774 C790 0.959 . S
H775 C790 0.959 . S
H776 C790 0.961 . S
H777 C791 0.960 . S
H778 C791 0.961 . S
H779 C791 0.994 . S
H780 C794 0.929 1_565 S
H781 C795 0.931 . S
H782 C797 0.930 . S
C783 H771 0.930 . S
C783 C784 1.399 . S
C783 C788 1.399 . S
C784 C783 1.399 . S
C784 C785 1.376 . S
C785 H772 0.930 . S
C785 C784 1.376 . S
C785 C786 1.388 . S
C786 H773 0.930 . S
C786 C785 1.388 . S
C786 C787 1.390 . S
C787 C786 1.390 . S
C787 C788 1.394 . S
C787 C793 1.465 1_565 S
C788 C783 1.399 . S
C788 C787 1.394 . S
C788 C789 1.516 1_565 S
C789 C788 1.516 1_545 S
C789 C790 1.502 . S
C789 C791 1.561 . S
C789 C792 1.526 . S
C790 H774 0.959 . S
C790 H775 0.959 . S
C790 H776 0.961 . S
C790 C789 1.502 . S
C791 H777 0.960 . S
C791 H778 0.961 . S
C791 H779 0.994 . S
C791 C789 1.561 . S
C792 C789 1.526 . S
C792 C793 1.396 . S
C792 C797 1.390 . S
C793 C787 1.465 1_545 S
C793 C792 1.396 . S
C793 C794 1.399 . S
C794 H780 0.929 1_545 S
C794 C793 1.399 . S
C794 C795 1.385 . S
C795 H781 0.931 . S
C795 C794 1.385 . S
C795 C796 1.389 . S
C796 C795 1.389 . S
C796 C797 1.387 . S
C797 H782 0.930 . S
C797 C792 1.390 . S
C797 C796 1.387 . S
H798 C810 0.930 . S
H799 C812 0.930 . S
H800 C813 0.930 . S
H801 C817 0.959 . S
H802 C817 0.959 . S
H803 C817 0.961 . S
H804 C818 0.960 . S
H805 C818 0.961 1_655 S
H806 C818 0.959 . S
H807 C821 0.929 . S
H808 C822 0.931 . S
H809 C824 0.930 . S
C810 H798 0.930 . S
C810 C811 1.399 . S
C810 C815 1.399 . S
C811 C810 1.399 . S
C811 C812 1.376 . S
C812 H799 0.930 . S
C812 C811 1.376 . S
C812 C813 1.388 . S
C813 H800 0.930 . S
C813 C812 1.388 . S
C813 C814 1.390 . S
C814 C813 1.390 . S
C814 C815 1.394 . S
C814 C820 1.465 1_455 S
C815 C810 1.399 . S
C815 C814 1.394 . S
C815 C816 1.516 1_455 S
C816 C815 1.516 1_655 S
C816 C817 1.502 . S
C816 C818 1.561 1_655 S
C816 C819 1.526 . S
C817 H801 0.959 . S
C817 H802 0.959 . S
C817 H803 0.961 . S
C817 C816 1.502 . S
C818 H804 0.960 . S
C818 H805 0.961 1_455 S
C818 H806 0.959 . S
C818 C816 1.561 1_455 S
C819 C816 1.526 . S
C819 C820 1.396 . S
C819 C824 1.390 . S
C820 C814 1.465 1_655 S
C820 C819 1.396 . S
C820 C821 1.399 . S
C821 H807 0.929 . S
C821 C820 1.399 . S
C821 C822 1.385 . S
C822 H808 0.931 . S
C822 C821 1.385 . S
C822 C823 1.389 . S
C823 C822 1.389 . S
C823 C824 1.387 . S
C824 H809 0.930 . S
C824 C819 1.390 . S
C824 C823 1.387 . S
H825 C837 0.930 . S
H826 C839 0.930 . S
H827 C840 0.930 1_565 S
H828 C844 0.959 . S
H829 C844 0.959 . S
H830 C844 0.961 . S
H831 C845 0.960 . S
H832 C845 0.961 . S
H833 C845 0.959 . S
H834 C848 0.929 . S
H835 C849 0.931 . S
H836 C851 0.930 . S
C837 H825 0.930 . S
C837 C838 1.399 . S
C837 C842 1.399 . S
C838 C837 1.399 . S
C838 C839 1.376 . S
C839 H826 0.930 . S
C839 C838 1.376 . S
C839 C840 1.388 . S
C840 H827 0.930 1_545 S
C840 C839 1.388 . S
C840 C841 1.390 . S
C841 C840 1.390 . S
C841 C842 1.394 . S
C841 C847 1.465 1_545 S
C842 C837 1.399 . S
C842 C841 1.394 . S
C842 C843 1.516 . S
C843 C842 1.516 . S
C843 C844 1.502 . S
C843 C845 1.561 . S
C843 C846 1.526 1_545 S
C844 H828 0.959 . S
C844 H829 0.959 . S
C844 H830 0.961 . S
C844 C843 1.502 . S
C845 H831 0.960 . S
C845 H832 0.961 . S
C845 H833 0.959 . S
C845 C843 1.561 . S
C846 C843 1.526 1_565 S
C846 C847 1.396 . S
C846 C851 1.390 . S
C847 C841 1.465 1_565 S
C847 C846 1.396 . S
C847 C848 1.399 . S
C848 H834 0.929 . S
C848 C847 1.399 . S
C848 C849 1.385 . S
C849 H835 0.931 . S
C849 C848 1.385 . S
C849 C850 1.389 . S
C850 C849 1.389 . S
C850 C851 1.387 . S
C851 H836 0.930 . S
C851 C846 1.390 . S
C851 C850 1.387 . S
H852 C864 0.930 . S
H853 C866 0.930 . S
H854 C867 0.930 . S
H855 C871 0.959 . S
H856 C871 0.959 . S
H857 C871 0.961 . S
H858 C872 0.960 1_455 S
H859 C872 0.961 . S
H860 C872 0.959 . S
H861 C875 0.929 . S
H862 C876 0.931 . S
H863 C878 0.930 . S
C864 H852 0.930 . S
C864 C865 1.399 . S
C864 C869 1.399 . S
C865 C864 1.399 . S
C865 C866 1.376 . S
C866 H853 0.930 . S
C866 C865 1.376 . S
C866 C867 1.388 . S
C867 H854 0.930 . S
C867 C866 1.388 . S
C867 C868 1.390 . S
C868 C867 1.390 . S
C868 C869 1.394 . S
C868 C874 1.465 1_455 S
C869 C864 1.399 . S
C869 C868 1.394 . S
C869 C870 1.516 . S
C870 C869 1.516 . S
C870 C871 1.502 . S
C870 C872 1.561 1_455 S
C870 C873 1.526 1_455 S
C871 H855 0.959 . S
C871 H856 0.959 . S
C871 H857 0.961 . S
C871 C870 1.502 . S
C872 H858 0.960 1_655 S
C872 H859 0.961 . S
C872 H860 0.959 . S
C872 C870 1.561 1_655 S
C873 C870 1.526 1_655 S
C873 C874 1.396 . S
C873 C878 1.390 . S
C874 C868 1.465 1_655 S
C874 C873 1.396 . S
C874 C875 1.399 . S
C875 H861 0.929 . S
C875 C874 1.399 . S
C875 C876 1.385 . S
C876 H862 0.931 . S
C876 C875 1.385 . S
C876 C877 1.389 . S
C877 C876 1.389 . S
C877 C878 1.387 . S
C878 H863 0.930 . S
C878 C873 1.390 . S
C878 C877 1.387 . S
H879 C891 0.930 . S
H880 C893 0.930 . S
H881 C894 0.927 . S
H882 C898 0.959 . S
H883 C898 0.959 . S
H884 C898 0.961 . S
H885 C899 0.960 . S
H886 C899 0.961 . S
H887 C899 0.959 . S
H888 C902 0.929 . S
H889 C903 0.931 . S
H890 C905 0.930 . S
C891 H879 0.930 . S
C891 C892 1.399 . S
C891 C896 1.399 . S
C892 C891 1.399 . S
C892 C893 1.376 . S
C893 H880 0.930 . S
C893 C892 1.376 . S
C893 C894 1.388 . S
C894 H881 0.927 . S
C894 C893 1.388 . S
C894 C895 1.390 . S
C895 C894 1.390 . S
C895 C896 1.394 . S
C895 C901 1.465 1_565 S
C896 C891 1.399 . S
C896 C895 1.394 . S
C896 C897 1.516 . S
C897 C896 1.516 . S
C897 C898 1.502 . S
C897 C899 1.561 . S
C897 C900 1.526 1_565 S
C898 H882 0.959 . S
C898 H883 0.959 . S
C898 H884 0.961 . S
C898 C897 1.502 . S
C899 H885 0.960 . S
C899 H886 0.961 . S
C899 H887 0.959 . S
C899 C897 1.561 . S
C900 C897 1.526 1_545 S
C900 C901 1.396 . S
C900 C905 1.390 . S
C901 C895 1.465 1_545 S
C901 C900 1.396 . S
C901 C902 1.399 . S
C902 H888 0.929 . S
C902 C901 1.399 . S
C902 C903 1.385 . S
C903 H889 0.931 . S
C903 C902 1.385 . S
C903 C904 1.389 . S
C904 C903 1.389 . S
C904 C905 1.387 . S
C905 H890 0.930 . S
C905 C900 1.390 . S
C905 C904 1.387 . S
H906 C918 0.930 . S
H907 C920 0.930 . S
H908 C921 0.930 . S
H909 C925 0.959 . S
H910 C925 0.959 . S
H911 C925 0.961 . S
H912 C926 0.960 . S
H913 C926 0.961 . S
H914 C926 0.959 . S
H915 C929 0.929 . S
H916 C930 0.931 . S
H917 C932 0.930 . S
C918 H906 0.930 . S
C918 C919 1.399 . S
C918 C923 1.399 . S
C919 C918 1.399 . S
C919 C920 1.376 . S
C920 H907 0.930 . S
C920 C919 1.376 . S
C920 C921 1.388 . S
C921 H908 0.930 . S
C921 C920 1.388 . S
C921 C922 1.390 . S
C922 C921 1.390 . S
C922 C923 1.394 . S
C922 C928 1.465 1_655 S
C923 C918 1.399 . S
C923 C922 1.394 . S
C923 C924 1.485 1_655 S
C924 C923 1.485 1_455 S
C924 C925 1.527 . S
C924 C926 1.539 1_455 S
C924 C927 1.554 . S
C925 H909 0.959 . S
C925 H910 0.959 . S
C925 H911 0.961 . S
C925 C924 1.527 . S
C926 H912 0.960 . S
C926 H913 0.961 . S
C926 H914 0.959 . S
C926 C924 1.539 1_655 S
C927 C924 1.554 . S
C927 C928 1.396 . S
C927 C932 1.390 . S
C928 C922 1.465 1_455 S
C928 C927 1.396 . S
C928 C929 1.399 . S
C929 H915 0.929 . S
C929 C928 1.399 . S
C929 C930 1.385 . S
C930 H916 0.931 . S
C930 C929 1.385 . S
C930 C931 1.389 . S
C931 C930 1.389 . S
C931 C932 1.387 . S
C932 H917 0.930 . S
C932 C927 1.390 . S
C932 C931 1.387 . S
H933 C945 0.930 . S
H934 C947 0.930 . S
H935 C948 0.930 . S
H936 C952 0.959 1_565 S
H937 C952 0.959 1_565 S
H938 C952 0.961 . S
H939 C953 0.960 . S
H940 C953 0.961 . S
H941 C953 0.959 . S
H942 C956 0.929 . S
H943 C957 0.931 . S
H944 C959 0.930 . S
C945 H933 0.930 . S
C945 C946 1.399 . S
C945 C950 1.399 . S
C946 C945 1.399 . S
C946 C947 1.376 . S
C947 H934 0.930 . S
C947 C946 1.376 . S
C947 C948 1.388 . S
C948 H935 0.930 . S
C948 C947 1.388 . S
C948 C949 1.390 . S
C949 C948 1.390 . S
C949 C950 1.394 . S
C949 C955 1.465 1_545 S
C950 C945 1.399 . S
C950 C949 1.394 . S
C950 C951 1.516 . S
C951 C950 1.516 . S
C951 C952 1.502 . S
C951 C953 1.561 . S
C951 C954 1.526 1_545 S
C952 H936 0.959 1_545 S
C952 H937 0.959 1_545 S
C952 H938 0.961 . S
C952 C951 1.502 . S
C953 H939 0.960 . S
C953 H940 0.961 . S
C953 H941 0.959 . S
C953 C951 1.561 . S
C954 C951 1.526 1_565 S
C954 C955 1.396 . S
C954 C959 1.390 . S
C955 C949 1.465 1_565 S
C955 C954 1.396 . S
C955 C956 1.399 . S
C956 H942 0.929 . S
C956 C955 1.399 . S
C956 C957 1.385 . S
C957 H943 0.931 . S
C957 C956 1.385 . S
C957 C958 1.389 . S
C958 C957 1.389 . S
C958 C959 1.387 . S
C959 H944 0.930 . S
C959 C954 1.390 . S
C959 C958 1.387 . S
H960 C972 0.930 . S
H961 C974 0.930 . S
H962 C975 0.930 . S
H963 C979 0.959 . S
H964 C979 0.959 . S
H965 C979 0.961 . S
H966 C980 0.960 . S
H967 C980 0.961 . S
H968 C980 0.959 . S
H969 C983 0.929 . S
H970 C984 0.931 . S
H971 C986 0.930 . S
C972 H960 0.930 . S
C972 C973 1.399 . S
C972 C977 1.399 . S
C973 C972 1.399 . S
C973 C974 1.376 . S
C974 H961 0.930 . S
C974 C973 1.376 . S
C974 C975 1.388 . S
C975 H962 0.930 . S
C975 C974 1.388 . S
C975 C976 1.390 . S
C976 C975 1.390 . S
C976 C977 1.394 . S
C976 C982 1.465 . S
C977 C972 1.399 . S
C977 C976 1.394 . S
C977 C978 1.516 . S
C978 C977 1.516 . S
C978 C979 1.502 . S
C978 C980 1.561 . S
C978 C981 1.526 . S
C979 H963 0.959 . S
C979 H964 0.959 . S
C979 H965 0.961 . S
C979 C978 1.502 . S
C980 H966 0.960 . S
C980 H967 0.961 . S
C980 H968 0.959 . S
C980 C978 1.561 . S
C981 C978 1.526 . S
C981 C982 1.396 . S
C981 C986 1.390 . S
C982 C976 1.465 . S
C982 C981 1.396 . S
C982 C983 1.399 . S
C983 H969 0.929 . S
C983 C982 1.399 . S
C983 C984 1.385 . S
C984 H970 0.931 . S
C984 C983 1.385 . S
C984 C985 1.389 . S
C985 C984 1.389 . S
C985 C986 1.387 . S
C986 H971 0.930 . S
C986 C981 1.390 . S
C986 C985 1.387 . S
H987 C999 0.930 . S
H988 C1001 0.930 . S
H989 C1002 0.930 . S
H990 C1006 0.959 . S
H991 C1006 0.959 . S
H992 C1006 0.961 . S
H993 C1007 0.960 . S
H994 C1007 0.961 . S
H995 C1007 0.959 . S
H996 C1010 0.929 . S
H997 C1011 0.931 . S
H998 C1013 0.930 . S
C999 H987 0.930 . S
C999 C1000 1.399 . S
C999 C1004 1.399 . S
C1000 C999 1.399 . S
C1000 C1001 1.376 . S
C1001 H988 0.930 . S
C1001 C1000 1.376 . S
C1001 C1002 1.388 . S
C1002 H989 0.930 . S
C1002 C1001 1.388 . S
C1002 C1003 1.390 . S
C1003 C1002 1.390 . S
C1003 C1004 1.394 . S
C1003 C1009 1.465 . S
C1004 C999 1.399 . S
C1004 C1003 1.394 . S
C1004 C1005 1.516 . S
C1005 C1004 1.516 . S
C1005 C1006 1.502 . S
C1005 C1007 1.561 . S
C1005 C1008 1.526 . S
C1006 H990 0.959 . S
C1006 H991 0.959 . S
C1006 H992 0.961 . S
C1006 C1005 1.502 . S
C1007 H993 0.960 . S
C1007 H994 0.961 . S
C1007 H995 0.959 . S
C1007 C1005 1.561 . S
C1008 C1005 1.526 . S
C1008 C1009 1.396 . S
C1008 C1013 1.390 . S
C1009 C1003 1.465 . S
C1009 C1008 1.396 . S
C1009 C1010 1.399 . S
C1010 H996 0.929 . S
C1010 C1009 1.399 . S
C1010 C1011 1.385 . S
C1011 H997 0.931 . S
C1011 C1010 1.385 . S
C1011 C1012 1.389 . S
C1012 C1011 1.389 . S
C1012 C1013 1.387 . S
C1013 H998 0.930 . S
C1013 C1008 1.390 . S
C1013 C1012 1.387 . S
H1014 C1026 0.930 . S
H1015 C1028 0.930 . S
H1016 C1029 0.930 . S
H1017 C1033 0.959 . S
H1018 C1033 0.959 . S
H1019 C1033 0.961 . S
H1020 C1034 0.960 . S
H1021 C1034 0.961 . S
H1022 C1034 0.959 . S
H1023 C1037 0.929 . S
H1024 C1038 0.931 . S
H1025 C1040 0.930 . S
C1026 H1014 0.930 . S
C1026 C1027 1.399 . S
C1026 C1031 1.399 . S
C1027 C1026 1.399 . S
C1027 C1028 1.376 . S
C1028 H1015 0.930 . S
C1028 C1027 1.376 . S
C1028 C1029 1.388 . S
C1029 H1016 0.930 . S
C1029 C1028 1.388 . S
C1029 C1030 1.390 . S
C1030 C1029 1.390 . S
C1030 C1031 1.394 . S
C1030 C1036 1.465 . S
C1031 C1026 1.399 . S
C1031 C1030 1.394 . S
C1031 C1032 1.516 . S
C1032 C1031 1.516 . S
C1032 C1033 1.502 . S
C1032 C1034 1.561 . S
C1032 C1035 1.526 . S
C1033 H1017 0.959 . S
C1033 H1018 0.959 . S
C1033 H1019 0.961 . S
C1033 C1032 1.502 . S
C1034 H1020 0.960 . S
C1034 H1021 0.961 . S
C1034 H1022 0.959 . S
C1034 C1032 1.561 . S
C1035 C1032 1.526 . S
C1035 C1036 1.396 . S
C1035 C1040 1.390 . S
C1036 C1030 1.465 . S
C1036 C1035 1.396 . S
C1036 C1037 1.399 . S
C1037 H1023 0.929 . S
C1037 C1036 1.399 . S
C1037 C1038 1.385 . S
C1038 H1024 0.931 . S
C1038 C1037 1.385 . S
C1038 C1039 1.389 . S
C1039 C1038 1.389 . S
C1039 C1040 1.387 . S
C1040 H1025 0.930 . S
C1040 C1035 1.390 . S
C1040 C1039 1.387 . S
H1041 C1053 0.930 . S
H1042 C1055 0.930 . S
H1043 C1056 0.930 . S
H1044 C1060 0.959 . S
H1045 C1060 0.959 . S
H1046 C1060 0.961 . S
H1047 C1061 0.960 . S
H1048 C1061 0.961 . S
H1049 C1061 0.959 . S
H1050 C1064 0.929 . S
H1051 C1065 0.931 . S
H1052 C1067 0.930 . S
C1053 H1041 0.930 . S
C1053 C1054 1.399 . S
C1053 C1058 1.399 . S
C1054 C1053 1.399 . S
C1054 C1055 1.376 . S
C1055 H1042 0.930 . S
C1055 C1054 1.376 . S
C1055 C1056 1.388 . S
C1056 H1043 0.930 . S
C1056 C1055 1.388 . S
C1056 C1057 1.390 . S
C1057 C1056 1.390 . S
C1057 C1058 1.394 . S
C1057 C1063 1.465 . S
C1058 C1053 1.399 . S
C1058 C1057 1.394 . S
C1058 C1059 1.516 . S
C1059 C1058 1.516 . S
C1059 C1060 1.502 . S
C1059 C1061 1.561 . S
C1059 C1062 1.526 . S
C1060 H1044 0.959 . S
C1060 H1045 0.959 . S
C1060 H1046 0.961 . S
C1060 C1059 1.502 . S
C1061 H1047 0.960 . S
C1061 H1048 0.961 . S
C1061 H1049 0.959 . S
C1061 C1059 1.561 . S
C1062 C1059 1.526 . S
C1062 C1063 1.396 . S
C1062 C1067 1.390 . S
C1063 C1057 1.465 . S
C1063 C1062 1.396 . S
C1063 C1064 1.399 . S
C1064 H1050 0.929 . S
C1064 C1063 1.399 . S
C1064 C1065 1.385 . S
C1065 H1051 0.931 . S
C1065 C1064 1.385 . S
C1065 C1066 1.389 . S
C1066 C1065 1.389 . S
C1066 C1067 1.387 . S
C1067 H1052 0.930 . S
C1067 C1062 1.390 . S
C1067 C1066 1.387 . S
H1068 C1080 0.930 . S
H1069 C1082 0.930 . S
H1070 C1083 0.930 . S
H1071 C1087 0.959 . S
H1072 C1087 0.959 . S
H1073 C1087 0.961 . S
H1074 C1088 0.960 . S
H1075 C1088 0.961 . S
H1076 C1088 0.959 . S
H1077 C1091 0.929 . S
H1078 C1092 0.931 . S
H1079 C1094 0.930 . S
C1080 H1068 0.930 . S
C1080 C1081 1.399 . S
C1080 C1085 1.399 . S
C1081 C1080 1.399 . S
C1081 C1082 1.376 . S
C1082 H1069 0.930 . S
C1082 C1081 1.376 . S
C1082 C1083 1.388 . S
C1083 H1070 0.930 . S
C1083 C1082 1.388 . S
C1083 C1084 1.390 . S
C1084 C1083 1.390 . S
C1084 C1085 1.394 . S
C1084 C1090 1.465 . S
C1085 C1080 1.399 . S
C1085 C1084 1.394 . S
C1085 C1086 1.516 . S
C1086 C1085 1.516 . S
C1086 C1087 1.502 . S
C1086 C1088 1.561 . S
C1086 C1089 1.526 . S
C1087 H1071 0.959 . S
C1087 H1072 0.959 . S
C1087 H1073 0.961 . S
C1087 C1086 1.502 . S
C1088 H1074 0.960 . S
C1088 H1075 0.961 . S
C1088 H1076 0.959 . S
C1088 C1086 1.561 . S
C1089 C1086 1.526 . S
C1089 C1090 1.396 . S
C1089 C1094 1.390 . S
C1090 C1084 1.465 . S
C1090 C1089 1.396 . S
C1090 C1091 1.399 . S
C1091 H1077 0.929 . S
C1091 C1090 1.399 . S
C1091 C1092 1.385 . S
C1092 H1078 0.931 . S
C1092 C1091 1.385 . S
C1092 C1093 1.389 . S
C1093 C1092 1.389 . S
C1093 C1094 1.387 . S
C1094 H1079 0.930 . S
C1094 C1089 1.390 . S
C1094 C1093 1.387 . S
H1095 C1107 0.930 . S
H1096 C1109 0.930 . S
H1097 C1110 0.930 . S
H1098 C1114 0.959 . S
H1099 C1114 0.959 . S
H1100 C1114 0.961 . S
H1101 C1115 0.960 . S
H1102 C1115 0.961 . S
H1103 C1115 0.959 . S
H1104 C1118 0.929 . S
H1105 C1119 0.931 . S
H1106 C1121 0.930 . S
C1107 H1095 0.930 . S
C1107 C1108 1.399 . S
C1107 C1112 1.399 . S
C1108 C1107 1.399 . S
C1108 C1109 1.376 . S
C1109 H1096 0.930 . S
C1109 C1108 1.376 . S
C1109 C1110 1.388 . S
C1110 H1097 0.930 . S
C1110 C1109 1.388 . S
C1110 C1111 1.390 . S
C1111 C1110 1.390 . S
C1111 C1112 1.394 . S
C1111 C1117 1.465 . S
C1112 C1107 1.399 . S
C1112 C1111 1.394 . S
C1112 C1113 1.516 . S
C1113 C1112 1.516 . S
C1113 C1114 1.502 . S
C1113 C1115 1.561 . S
C1113 C1116 1.526 . S
C1114 H1098 0.959 . S
C1114 H1099 0.959 . S
C1114 H1100 0.961 . S
C1114 C1113 1.502 . S
C1115 H1101 0.960 . S
C1115 H1102 0.961 . S
C1115 H1103 0.959 . S
C1115 C1113 1.561 . S
C1116 C1113 1.526 . S
C1116 C1117 1.396 . S
C1116 C1121 1.390 . S
C1117 C1111 1.465 . S
C1117 C1116 1.396 . S
C1117 C1118 1.399 . S
C1118 H1104 0.929 . S
C1118 C1117 1.399 . S
C1118 C1119 1.385 . S
C1119 H1105 0.931 . S
C1119 C1118 1.385 . S
C1119 C1120 1.389 . S
C1120 C1119 1.389 . S
C1120 C1121 1.387 . S
C1121 H1106 0.930 . S
C1121 C1116 1.390 . S
C1121 C1120 1.387 . S
H1122 C1134 0.930 . S
H1123 C1136 0.930 . S
H1124 C1137 0.930 . S
H1125 C1141 0.959 . S
H1126 C1141 0.959 . S
H1127 C1141 0.961 . S
H1128 C1142 0.960 . S
H1129 C1142 0.961 . S
H1130 C1142 0.959 . S
H1131 C1145 0.929 . S
H1132 C1146 0.931 . S
H1133 C1148 0.930 . S
C1134 H1122 0.930 . S
C1134 C1135 1.399 . S
C1134 C1139 1.399 . S
C1135 C1134 1.399 . S
C1135 C1136 1.376 . S
C1136 H1123 0.930 . S
C1136 C1135 1.376 . S
C1136 C1137 1.388 . S
C1137 H1124 0.930 . S
C1137 C1136 1.388 . S
C1137 C1138 1.390 . S
C1138 C1137 1.390 . S
C1138 C1139 1.394 . S
C1138 C1144 1.465 . S
C1139 C1134 1.399 . S
C1139 C1138 1.394 . S
C1139 C1140 1.516 . S
C1140 C1139 1.516 . S
C1140 C1141 1.502 . S
C1140 C1142 1.561 . S
C1140 C1143 1.526 . S
C1141 H1125 0.959 . S
C1141 H1126 0.959 . S
C1141 H1127 0.961 . S
C1141 C1140 1.502 . S
C1142 H1128 0.960 . S
C1142 H1129 0.961 . S
C1142 H1130 0.959 . S
C1142 C1140 1.561 . S
C1143 C1140 1.526 . S
C1143 C1144 1.396 . S
C1143 C1148 1.390 . S
C1144 C1138 1.465 . S
C1144 C1143 1.396 . S
C1144 C1145 1.399 . S
C1145 H1131 0.929 . S
C1145 C1144 1.399 . S
C1145 C1146 1.385 . S
C1146 H1132 0.931 . S
C1146 C1145 1.385 . S
C1146 C1147 1.389 . S
C1147 C1146 1.389 . S
C1147 C1148 1.387 . S
C1148 H1133 0.930 . S
C1148 C1143 1.390 . S
C1148 C1147 1.387 . S
H1149 C1161 0.930 . S
H1150 C1163 0.930 . S
H1151 C1164 0.930 . S
H1152 C1168 0.959 . S
H1153 C1168 0.959 . S
H1154 C1168 0.961 . S
H1155 C1169 0.960 . S
H1156 C1169 0.961 . S
H1157 C1169 0.959 . S
H1158 C1172 0.929 . S
H1159 C1173 0.931 . S
H1160 C1175 0.930 . S
C1161 H1149 0.930 . S
C1161 C1162 1.399 . S
C1161 C1166 1.399 . S
C1162 C1161 1.399 . S
C1162 C1163 1.376 . S
C1163 H1150 0.930 . S
C1163 C1162 1.376 . S
C1163 C1164 1.388 . S
C1164 H1151 0.930 . S
C1164 C1163 1.388 . S
C1164 C1165 1.390 . S
C1165 C1164 1.390 . S
C1165 C1166 1.394 . S
C1165 C1171 1.465 . S
C1166 C1161 1.399 . S
C1166 C1165 1.394 . S
C1166 C1167 1.516 . S
C1167 C1166 1.516 . S
C1167 C1168 1.502 . S
C1167 C1169 1.561 . S
C1167 C1170 1.526 . S
C1168 H1152 0.959 . S
C1168 H1153 0.959 . S
C1168 H1154 0.961 . S
C1168 C1167 1.502 . S
C1169 H1155 0.960 . S
C1169 H1156 0.961 . S
C1169 H1157 0.959 . S
C1169 C1167 1.561 . S
C1170 C1167 1.526 . S
C1170 C1171 1.396 . S
C1170 C1175 1.390 . S
C1171 C1165 1.465 . S
C1171 C1170 1.396 . S
C1171 C1172 1.399 . S
C1172 H1158 0.929 . S
C1172 C1171 1.399 . S
C1172 C1173 1.385 . S
C1173 H1159 0.931 . S
C1173 C1172 1.385 . S
C1173 C1174 1.389 . S
C1174 C1173 1.389 . S
C1174 C1175 1.387 . S
C1175 H1160 0.930 . S
C1175 C1170 1.390 . S
C1175 C1174 1.387 . S
H1176 C1188 0.930 . S
H1177 C1190 0.930 . S
H1178 C1191 0.930 . S
H1179 C1195 0.959 . S
H1180 C1195 0.959 . S
H1181 C1195 0.961 . S
H1182 C1196 0.960 . S
H1183 C1196 0.961 . S
H1184 C1196 0.959 . S
H1185 C1199 0.929 . S
H1186 C1200 0.931 . S
H1187 C1202 0.930 . S
C1188 H1176 0.930 . S
C1188 C1189 1.399 . S
C1188 C1193 1.399 . S
C1189 C1188 1.399 . S
C1189 C1190 1.376 . S
C1190 H1177 0.930 . S
C1190 C1189 1.376 . S
C1190 C1191 1.388 . S
C1191 H1178 0.930 . S
C1191 C1190 1.388 . S
C1191 C1192 1.390 . S
C1192 C1191 1.390 . S
C1192 C1193 1.394 . S
C1192 C1198 1.465 . S
C1193 C1188 1.399 . S
C1193 C1192 1.394 . S
C1193 C1194 1.516 . S
C1194 C1193 1.516 . S
C1194 C1195 1.502 . S
C1194 C1196 1.561 . S
C1194 C1197 1.526 . S
C1195 H1179 0.959 . S
C1195 H1180 0.959 . S
C1195 H1181 0.961 . S
C1195 C1194 1.502 . S
C1196 H1182 0.960 . S
C1196 H1183 0.961 . S
C1196 H1184 0.959 . S
C1196 C1194 1.561 . S
C1197 C1194 1.526 . S
C1197 C1198 1.396 . S
C1197 C1202 1.390 . S
C1198 C1192 1.465 . S
C1198 C1197 1.396 . S
C1198 C1199 1.399 . S
C1199 H1185 0.929 . S
C1199 C1198 1.399 . S
C1199 C1200 1.385 . S
C1200 H1186 0.931 . S
C1200 C1199 1.385 . S
C1200 C1201 1.389 . S
C1201 C1200 1.389 . S
C1201 C1202 1.387 . S
C1202 H1187 0.930 . S
C1202 C1197 1.390 . S
C1202 C1201 1.387 . S
H1203 C1215 0.930 . S
H1204 C1217 0.930 . S
H1205 C1218 0.930 . S
H1206 C1222 0.959 . S
H1207 C1222 0.959 . S
H1208 C1222 0.961 . S
H1209 C1223 0.960 . S
H1210 C1223 0.961 . S
H1211 C1223 0.959 . S
H1212 C1226 0.929 . S
H1213 C1227 0.931 . S
H1214 C1229 0.930 . S
C1215 H1203 0.930 . S
C1215 C1216 1.399 . S
C1215 C1220 1.399 . S
C1216 C1215 1.399 . S
C1216 C1217 1.376 . S
C1217 H1204 0.930 . S
C1217 C1216 1.376 . S
C1217 C1218 1.388 . S
C1218 H1205 0.930 . S
C1218 C1217 1.388 . S
C1218 C1219 1.390 . S
C1219 C1218 1.390 . S
C1219 C1220 1.394 . S
C1219 C1225 1.465 . S
C1220 C1215 1.399 . S
C1220 C1219 1.394 . S
C1220 C1221 1.516 . S
C1221 C1220 1.516 . S
C1221 C1222 1.502 . S
C1221 C1223 1.561 . S
C1221 C1224 1.526 . S
C1222 H1206 0.959 . S
C1222 H1207 0.959 . S
C1222 H1208 0.961 . S
C1222 C1221 1.502 . S
C1223 H1209 0.960 . S
C1223 H1210 0.961 . S
C1223 H1211 0.959 . S
C1223 C1221 1.561 . S
C1224 C1221 1.526 . S
C1224 C1225 1.396 . S
C1224 C1229 1.390 . S
C1225 C1219 1.465 . S
C1225 C1224 1.396 . S
C1225 C1226 1.399 . S
C1226 H1212 0.929 . S
C1226 C1225 1.399 . S
C1226 C1227 1.385 . S
C1227 H1213 0.931 . S
C1227 C1226 1.385 . S
C1227 C1228 1.389 . S
C1228 C1227 1.389 . S
C1228 C1229 1.387 . S
C1229 H1214 0.930 . S
C1229 C1224 1.390 . S
C1229 C1228 1.387 . S
H1230 C1242 0.930 . S
H1231 C1244 0.930 . S
H1232 C1245 0.930 . S
H1233 C1249 0.959 . S
H1234 C1249 0.959 . S
H1235 C1249 0.961 . S
H1236 C1250 0.960 . S
H1237 C1250 0.961 . S
H1238 C1250 0.959 . S
H1239 C1253 0.929 . S
H1240 C1254 0.931 . S
H1241 C1256 0.930 . S
C1242 H1230 0.930 . S
C1242 C1243 1.399 . S
C1242 C1247 1.399 . S
C1243 C1242 1.399 . S
C1243 C1244 1.376 . S
C1244 H1231 0.930 . S
C1244 C1243 1.376 . S
C1244 C1245 1.388 . S
C1245 H1232 0.930 . S
C1245 C1244 1.388 . S
C1245 C1246 1.390 . S
C1246 C1245 1.390 . S
C1246 C1247 1.394 . S
C1246 C1252 1.465 . S
C1247 C1242 1.399 . S
C1247 C1246 1.394 . S
C1247 C1248 1.516 . S
C1248 C1247 1.516 . S
C1248 C1249 1.502 . S
C1248 C1250 1.561 . S
C1248 C1251 1.526 . S
C1249 H1233 0.959 . S
C1249 H1234 0.959 . S
C1249 H1235 0.961 . S
C1249 C1248 1.502 . S
C1250 H1236 0.960 . S
C1250 H1237 0.961 . S
C1250 H1238 0.959 . S
C1250 C1248 1.561 . S
C1251 C1248 1.526 . S
C1251 C1252 1.396 . S
C1251 C1256 1.390 . S
C1252 C1246 1.465 . S
C1252 C1251 1.396 . S
C1252 C1253 1.399 . S
C1253 H1239 0.929 . S
C1253 C1252 1.399 . S
C1253 C1254 1.385 . S
C1254 H1240 0.931 . S
C1254 C1253 1.385 . S
C1254 C1255 1.389 . S
C1255 C1254 1.389 . S
C1255 C1256 1.387 . S
C1256 H1241 0.930 . S
C1256 C1251 1.390 . S
C1256 C1255 1.387 . S
H1257 C1269 0.930 . S
H1258 C1271 0.930 . S
H1259 C1272 0.930 . S
H1260 C1276 0.959 . S
H1261 C1276 0.959 . S
H1262 C1276 0.961 . S
H1263 C1277 0.960 . S
H1264 C1277 0.961 . S
H1265 C1277 0.959 . S
H1266 C1280 0.929 . S
H1267 C1281 0.931 . S
H1268 C1283 0.930 . S
C1269 H1257 0.930 . S
C1269 C1270 1.399 . S
C1269 C1274 1.399 . S
C1270 C1269 1.399 . S
C1270 C1271 1.376 . S
C1271 H1258 0.930 . S
C1271 C1270 1.376 . S
C1271 C1272 1.388 . S
C1272 H1259 0.930 . S
C1272 C1271 1.388 . S
C1272 C1273 1.390 . S
C1273 C1272 1.390 . S
C1273 C1274 1.394 . S
C1273 C1279 1.465 . S
C1274 C1269 1.399 . S
C1274 C1273 1.394 . S
C1274 C1275 1.516 . S
C1275 C1274 1.516 . S
C1275 C1276 1.502 . S
C1275 C1277 1.561 . S
C1275 C1278 1.526 . S
C1276 H1260 0.959 . S
C1276 H1261 0.959 . S
C1276 H1262 0.961 . S
C1276 C1275 1.502 . S
C1277 H1263 0.960 . S
C1277 H1264 0.961 . S
C1277 H1265 0.959 . S
C1277 C1275 1.561 . S
C1278 C1275 1.526 . S
C1278 C1279 1.396 . S
C1278 C1283 1.390 . S
C1279 C1273 1.465 . S
C1279 C1278 1.396 . S
C1279 C1280 1.399 . S
C1280 H1266 0.929 . S
C1280 C1279 1.399 . S
C1280 C1281 1.385 . S
C1281 H1267 0.931 . S
C1281 C1280 1.385 . S
C1281 C1282 1.389 . S
C1282 C1281 1.389 . S
C1282 C1283 1.387 . S
C1283 H1268 0.930 . S
C1283 C1278 1.390 . S
C1283 C1282 1.387 . S
H1284 C1296 0.930 . S
H1285 C1298 0.930 . S
H1286 C1299 0.930 . S
H1287 C1303 0.959 . S
H1288 C1303 0.959 . S
H1289 C1303 0.961 . S
H1290 C1304 0.960 . S
H1291 C1304 0.961 . S
H1292 C1304 0.959 . S
H1293 C1307 0.929 . S
H1294 C1308 0.931 . S
H1295 C1310 0.930 . S
C1296 H1284 0.930 . S
C1296 C1297 1.399 . S
C1296 C1301 1.399 . S
C1297 C1296 1.399 . S
C1297 C1298 1.376 . S
C1298 H1285 0.930 . S
C1298 C1297 1.376 . S
C1298 C1299 1.388 . S
C1299 H1286 0.930 . S
C1299 C1298 1.388 . S
C1299 C1300 1.390 . S
C1300 C1299 1.390 . S
C1300 C1301 1.394 . S
C1300 C1306 1.465 . S
C1301 C1296 1.399 . S
C1301 C1300 1.394 . S
C1301 C1302 1.516 . S
C1302 C1301 1.516 . S
C1302 C1303 1.502 . S
C1302 C1304 1.561 . S
C1302 C1305 1.526 . S
C1303 H1287 0.959 . S
C1303 H1288 0.959 . S
C1303 H1289 0.961 . S
C1303 C1302 1.502 . S
C1304 H1290 0.960 . S
C1304 H1291 0.961 . S
C1304 H1292 0.959 . S
C1304 C1302 1.561 . S
C1305 C1302 1.526 . S
C1305 C1306 1.396 . S
C1305 C1310 1.390 . S
C1306 C1300 1.465 . S
C1306 C1305 1.396 . S
C1306 C1307 1.399 . S
C1307 H1293 0.929 . S
C1307 C1306 1.399 . S
C1307 C1308 1.385 . S
C1308 H1294 0.931 . S
C1308 C1307 1.385 . S
C1308 C1309 1.389 . S
C1309 C1308 1.389 . S
C1309 C1310 1.387 . S
C1310 H1295 0.930 . S
C1310 C1305 1.390 . S
C1310 C1309 1.387 . S
H1311 C1323 0.930 . S
H1312 C1325 0.930 . S
H1313 C1326 0.930 . S
H1314 C1330 0.959 . S
H1315 C1330 0.959 . S
H1316 C1330 0.961 . S
H1317 C1331 0.960 . S
H1318 C1331 0.961 . S
H1319 C1331 0.959 . S
H1320 C1334 0.929 . S
H1321 C1335 0.931 . S
H1322 C1337 0.930 . S
C1323 H1311 0.930 . S
C1323 C1324 1.399 . S
C1323 C1328 1.399 . S
C1324 C1323 1.399 . S
C1324 C1325 1.376 . S
C1325 H1312 0.930 . S
C1325 C1324 1.376 . S
C1325 C1326 1.388 . S
C1326 H1313 0.930 . S
C1326 C1325 1.388 . S
C1326 C1327 1.390 . S
C1327 C1326 1.390 . S
C1327 C1328 1.394 . S
C1327 C1333 1.465 . S
C1328 C1323 1.399 . S
C1328 C1327 1.394 . S
C1328 C1329 1.516 . S
C1329 C1328 1.516 . S
C1329 C1330 1.502 . S
C1329 C1331 1.561 . S
C1329 C1332 1.526 . S
C1330 H1314 0.959 . S
C1330 H1315 0.959 . S
C1330 H1316 0.961 . S
C1330 C1329 1.502 . S
C1331 H1317 0.960 . S
C1331 H1318 0.961 . S
C1331 H1319 0.959 . S
C1331 C1329 1.561 . S
C1332 C1329 1.526 . S
C1332 C1333 1.396 . S
C1332 C1337 1.390 . S
C1333 C1327 1.465 . S
C1333 C1332 1.396 . S
C1333 C1334 1.399 . S
C1334 H1320 0.929 . S
C1334 C1333 1.399 . S
C1334 C1335 1.385 . S
C1335 H1321 0.931 . S
C1335 C1334 1.385 . S
C1335 C1336 1.389 . S
C1336 C1335 1.389 . S
C1336 C1337 1.387 . S
C1337 H1322 0.930 . S
C1337 C1332 1.390 . S
C1337 C1336 1.387 . S
H1338 C1350 0.930 . S
H1339 C1352 0.930 . S
H1340 C1353 0.930 . S
H1341 C1357 0.959 . S
H1342 C1357 0.959 . S
H1343 C1357 0.961 . S
H1344 C1358 0.960 . S
H1345 C1358 0.961 . S
H1346 C1358 0.959 . S
H1347 C1361 0.929 . S
H1348 C1362 0.931 . S
H1349 C1364 0.930 . S
C1350 H1338 0.930 . S
C1350 C1351 1.399 . S
C1350 C1355 1.399 . S
C1351 C1350 1.399 . S
C1351 C1352 1.376 . S
C1352 H1339 0.930 . S
C1352 C1351 1.376 . S
C1352 C1353 1.388 . S
C1353 H1340 0.930 . S
C1353 C1352 1.388 . S
C1353 C1354 1.390 . S
C1354 C1353 1.390 . S
C1354 C1355 1.394 . S
C1354 C1360 1.465 . S
C1355 C1350 1.399 . S
C1355 C1354 1.394 . S
C1355 C1356 1.516 . S
C1356 C1355 1.516 . S
C1356 C1357 1.502 . S
C1356 C1358 1.561 . S
C1356 C1359 1.526 . S
C1357 H1341 0.959 . S
C1357 H1342 0.959 . S
C1357 H1343 0.961 . S
C1357 C1356 1.502 . S
C1358 H1344 0.960 . S
C1358 H1345 0.961 . S
C1358 H1346 0.959 . S
C1358 C1356 1.561 . S
C1359 C1356 1.526 . S
C1359 C1360 1.396 . S
C1359 C1364 1.390 . S
C1360 C1354 1.465 . S
C1360 C1359 1.396 . S
C1360 C1361 1.399 . S
C1361 H1347 0.929 . S
C1361 C1360 1.399 . S
C1361 C1362 1.385 . S
C1362 H1348 0.931 . S
C1362 C1361 1.385 . S
C1362 C1363 1.389 . S
C1363 C1362 1.389 . S
C1363 C1364 1.387 . S
C1364 H1349 0.930 . S
C1364 C1359 1.390 . S
C1364 C1363 1.387 . S
H1365 C1377 0.930 . S
H1366 C1379 0.930 . S
H1367 C1380 0.930 . S
H1368 C1384 0.959 . S
H1369 C1384 0.959 . S
H1370 C1384 0.961 . S
H1371 C1385 0.960 . S
H1372 C1385 0.961 . S
H1373 C1385 0.959 . S
H1374 C1388 0.929 . S
H1375 C1389 0.931 . S
H1376 C1391 0.930 . S
C1377 H1365 0.930 . S
C1377 C1378 1.399 . S
C1377 C1382 1.399 . S
C1378 C1377 1.399 . S
C1378 C1379 1.376 . S
C1379 H1366 0.930 . S
C1379 C1378 1.376 . S
C1379 C1380 1.388 . S
C1380 H1367 0.930 . S
C1380 C1379 1.388 . S
C1380 C1381 1.390 . S
C1381 C1380 1.390 . S
C1381 C1382 1.394 . S
C1381 C1387 1.465 . S
C1382 C1377 1.399 . S
C1382 C1381 1.394 . S
C1382 C1383 1.516 . S
C1383 C1382 1.516 . S
C1383 C1384 1.502 . S
C1383 C1385 1.561 . S
C1383 C1386 1.526 . S
C1384 H1368 0.959 . S
C1384 H1369 0.959 . S
C1384 H1370 0.961 . S
C1384 C1383 1.502 . S
C1385 H1371 0.960 . S
C1385 H1372 0.961 . S
C1385 H1373 0.959 . S
C1385 C1383 1.561 . S
C1386 C1383 1.526 . S
C1386 C1387 1.396 . S
C1386 C1391 1.390 . S
C1387 C1381 1.465 . S
C1387 C1386 1.396 . S
C1387 C1388 1.399 . S
C1388 H1374 0.929 . S
C1388 C1387 1.399 . S
C1388 C1389 1.385 . S
C1389 H1375 0.931 . S
C1389 C1388 1.385 . S
C1389 C1390 1.389 . S
C1390 C1389 1.389 . S
C1390 C1391 1.387 . S
C1391 H1376 0.930 . S
C1391 C1386 1.390 . S
C1391 C1390 1.387 . S
H1392 C1404 0.930 . S
H1393 C1406 0.930 . S
H1394 C1407 0.930 . S
H1395 C1411 0.959 . S
H1396 C1411 0.959 . S
H1397 C1411 0.961 . S
H1398 C1412 0.960 . S
H1399 C1412 0.961 . S
H1400 C1412 0.959 . S
H1401 C1415 0.929 . S
H1402 C1416 0.931 . S
H1403 C1418 0.930 . S
C1404 H1392 0.930 . S
C1404 C1405 1.399 . S
C1404 C1409 1.399 . S
C1405 C1404 1.399 . S
C1405 C1406 1.376 . S
C1406 H1393 0.930 . S
C1406 C1405 1.376 . S
C1406 C1407 1.388 . S
C1407 H1394 0.930 . S
C1407 C1406 1.388 . S
C1407 C1408 1.390 . S
C1408 C1407 1.390 . S
C1408 C1409 1.394 . S
C1408 C1414 1.465 . S
C1409 C1404 1.399 . S
C1409 C1408 1.394 . S
C1409 C1410 1.516 . S
C1410 C1409 1.516 . S
C1410 C1411 1.502 . S
C1410 C1412 1.561 . S
C1410 C1413 1.526 . S
C1411 H1395 0.959 . S
C1411 H1396 0.959 . S
C1411 H1397 0.961 . S
C1411 C1410 1.502 . S
C1412 H1398 0.960 . S
C1412 H1399 0.961 . S
C1412 H1400 0.959 . S
C1412 C1410 1.561 . S
C1413 C1410 1.526 . S
C1413 C1414 1.396 . S
C1413 C1418 1.390 . S
C1414 C1408 1.465 . S
C1414 C1413 1.396 . S
C1414 C1415 1.399 . S
C1415 H1401 0.929 . S
C1415 C1414 1.399 . S
C1415 C1416 1.385 . S
C1416 H1402 0.931 . S
C1416 C1415 1.385 . S
C1416 C1417 1.389 . S
C1417 C1416 1.389 . S
C1417 C1418 1.387 . S
C1418 H1403 0.930 . S
C1418 C1413 1.390 . S
C1418 C1417 1.387 . S
H1419 C1431 0.930 . S
H1420 C1433 0.930 . S
H1421 C1434 0.930 . S
H1422 C1438 0.959 . S
H1423 C1438 0.959 . S
H1424 C1438 0.961 . S
H1425 C1439 0.960 . S
H1426 C1439 0.961 . S
H1427 C1439 0.959 . S
H1428 C1442 0.929 . S
H1429 C1443 0.931 . S
H1430 C1445 0.930 . S
C1431 H1419 0.930 . S
C1431 C1432 1.399 . S
C1431 C1436 1.399 . S
C1432 C1431 1.399 . S
C1432 C1433 1.376 . S
C1433 H1420 0.930 . S
C1433 C1432 1.376 . S
C1433 C1434 1.388 . S
C1434 H1421 0.930 . S
C1434 C1433 1.388 . S
C1434 C1435 1.390 . S
C1435 C1434 1.390 . S
C1435 C1436 1.394 . S
C1435 C1441 1.465 . S
C1436 C1431 1.399 . S
C1436 C1435 1.394 . S
C1436 C1437 1.516 . S
C1437 C1436 1.516 . S
C1437 C1438 1.502 . S
C1437 C1439 1.561 . S
C1437 C1440 1.526 . S
C1438 H1422 0.959 . S
C1438 H1423 0.959 . S
C1438 H1424 0.961 . S
C1438 C1437 1.502 . S
C1439 H1425 0.960 . S
C1439 H1426 0.961 . S
C1439 H1427 0.959 . S
C1439 C1437 1.561 . S
C1440 C1437 1.526 . S
C1440 C1441 1.396 . S
C1440 C1445 1.390 . S
C1441 C1435 1.465 . S
C1441 C1440 1.396 . S
C1441 C1442 1.399 . S
C1442 H1428 0.929 . S
C1442 C1441 1.399 . S
C1442 C1443 1.385 . S
C1443 H1429 0.931 . S
C1443 C1442 1.385 . S
C1443 C1444 1.389 . S
C1444 C1443 1.389 . S
C1444 C1445 1.387 . S
C1445 H1430 0.930 . S
C1445 C1440 1.390 . S
C1445 C1444 1.387 . S
H1446 C1458 0.930 . S
H1447 C1460 0.930 . S
H1448 C1461 0.930 . S
H1449 C1465 0.959 . S
H1450 C1465 0.959 . S
H1451 C1465 0.961 . S
H1452 C1466 0.960 . S
H1453 C1466 0.961 . S
H1454 C1466 0.959 . S
H1455 C1469 0.929 . S
H1456 C1470 0.931 . S
H1457 C1472 0.930 . S
C1458 H1446 0.930 . S
C1458 C1459 1.399 . S
C1458 C1463 1.399 . S
C1459 C1458 1.399 . S
C1459 C1460 1.376 . S
C1460 H1447 0.930 . S
C1460 C1459 1.376 . S
C1460 C1461 1.388 . S
C1461 H1448 0.930 . S
C1461 C1460 1.388 . S
C1461 C1462 1.390 . S
C1462 C1461 1.390 . S
C1462 C1463 1.394 . S
C1462 C1468 1.465 . S
C1463 C1458 1.399 . S
C1463 C1462 1.394 . S
C1463 C1464 1.516 . S
C1464 C1463 1.516 . S
C1464 C1465 1.502 . S
C1464 C1466 1.561 . S
C1464 C1467 1.526 . S
C1465 H1449 0.959 . S
C1465 H1450 0.959 . S
C1465 H1451 0.961 . S
C1465 C1464 1.502 . S
C1466 H1452 0.960 . S
C1466 H1453 0.961 . S
C1466 H1454 0.959 . S
C1466 C1464 1.561 . S
C1467 C1464 1.526 . S
C1467 C1468 1.396 . S
C1467 C1472 1.390 . S
C1468 C1462 1.465 . S
C1468 C1467 1.396 . S
C1468 C1469 1.399 . S
C1469 H1455 0.929 . S
C1469 C1468 1.399 . S
C1469 C1470 1.385 . S
C1470 H1456 0.931 . S
C1470 C1469 1.385 . S
C1470 C1471 1.389 . S
C1471 C1470 1.389 . S
C1471 C1472 1.387 . S
C1472 H1457 0.930 . S
C1472 C1467 1.390 . S
C1472 C1471 1.387 . S
H1473 C1485 0.930 . S
H1474 C1487 0.930 . S
H1475 C1488 0.930 . S
H1476 C1492 0.959 . S
H1477 C1492 0.959 . S
H1478 C1492 0.961 . S
H1479 C1493 0.960 . S
H1480 C1493 0.961 . S
H1481 C1493 0.959 . S
H1482 C1496 0.929 . S
H1483 C1497 0.931 . S
H1484 C1499 0.930 . S
C1485 H1473 0.930 . S
C1485 C1486 1.399 . S
C1485 C1490 1.399 . S
C1486 C1485 1.399 . S
C1486 C1487 1.376 . S
C1487 H1474 0.930 . S
C1487 C1486 1.376 . S
C1487 C1488 1.388 . S
C1488 H1475 0.930 . S
C1488 C1487 1.388 . S
C1488 C1489 1.390 . S
C1489 C1488 1.390 . S
C1489 C1490 1.394 . S
C1489 C1495 1.465 . S
C1490 C1485 1.399 . S
C1490 C1489 1.394 . S
C1490 C1491 1.516 . S
C1491 C1490 1.516 . S
C1491 C1492 1.502 . S
C1491 C1493 1.561 . S
C1491 C1494 1.526 . S
C1492 H1476 0.959 . S
C1492 H1477 0.959 . S
C1492 H1478 0.961 . S
C1492 C1491 1.502 . S
C1493 H1479 0.960 . S
C1493 H1480 0.961 . S
C1493 H1481 0.959 . S
C1493 C1491 1.561 . S
C1494 C1491 1.526 . S
C1494 C1495 1.396 . S
C1494 C1499 1.390 . S
C1495 C1489 1.465 . S
C1495 C1494 1.396 . S
C1495 C1496 1.399 . S
C1496 H1482 0.929 . S
C1496 C1495 1.399 . S
C1496 C1497 1.385 . S
C1497 H1483 0.931 . S
C1497 C1496 1.385 . S
C1497 C1498 1.389 . S
C1498 C1497 1.389 . S
C1498 C1499 1.387 . S
C1499 H1484 0.930 . S
C1499 C1494 1.390 . S
C1499 C1498 1.387 . S
H1500 C1512 0.930 . S
H1501 C1514 0.930 . S
H1502 C1515 0.930 . S
H1503 C1519 0.959 . S
H1504 C1519 0.959 . S
H1505 C1519 0.961 . S
H1506 C1520 0.960 . S
H1507 C1520 0.961 . S
H1508 C1520 0.959 . S
H1509 C1523 0.929 . S
H1510 C1524 0.931 . S
H1511 C1526 0.930 . S
C1512 H1500 0.930 . S
C1512 C1513 1.399 . S
C1512 C1517 1.399 . S
C1513 C1512 1.399 . S
C1513 C1514 1.376 . S
C1514 H1501 0.930 . S
C1514 C1513 1.376 . S
C1514 C1515 1.388 . S
C1515 H1502 0.930 . S
C1515 C1514 1.388 . S
C1515 C1516 1.390 . S
C1516 C1515 1.390 . S
C1516 C1517 1.394 . S
C1516 C1522 1.465 . S
C1517 C1512 1.399 . S
C1517 C1516 1.394 . S
C1517 C1518 1.516 . S
C1518 C1517 1.516 . S
C1518 C1519 1.502 . S
C1518 C1520 1.561 . S
C1518 C1521 1.526 . S
C1519 H1503 0.959 . S
C1519 H1504 0.959 . S
C1519 H1505 0.961 . S
C1519 C1518 1.502 . S
C1520 H1506 0.960 . S
C1520 H1507 0.961 . S
C1520 H1508 0.959 . S
C1520 C1518 1.561 . S
C1521 C1518 1.526 . S
C1521 C1522 1.396 . S
C1521 C1526 1.390 . S
C1522 C1516 1.465 . S
C1522 C1521 1.396 . S
C1522 C1523 1.399 . S
C1523 H1509 0.929 . S
C1523 C1522 1.399 . S
C1523 C1524 1.385 . S
C1524 H1510 0.931 . S
C1524 C1523 1.385 . S
C1524 C1525 1.389 . S
C1525 C1524 1.389 . S
C1525 C1526 1.387 . S
C1526 H1511 0.930 . S
C1526 C1521 1.390 . S
C1526 C1525 1.387 . S
H1527 C1539 0.930 . S
H1528 C1541 0.930 . S
H1529 C1542 0.930 . S
H1530 C1546 0.959 . S
H1531 C1546 0.959 . S
H1532 C1546 0.961 . S
H1533 C1547 0.960 . S
H1534 C1547 0.961 . S
H1535 C1547 0.959 . S
H1536 C1550 0.929 . S
H1537 C1551 0.931 . S
H1538 C1553 0.930 . S
C1539 H1527 0.930 . S
C1539 C1540 1.399 . S
C1539 C1544 1.399 . S
C1540 C1539 1.399 . S
C1540 C1541 1.376 . S
C1541 H1528 0.930 . S
C1541 C1540 1.376 . S
C1541 C1542 1.388 . S
C1542 H1529 0.930 . S
C1542 C1541 1.388 . S
C1542 C1543 1.390 . S
C1543 C1542 1.390 . S
C1543 C1544 1.394 . S
C1543 C1549 1.465 . S
C1544 C1539 1.399 . S
C1544 C1543 1.394 . S
C1544 C1545 1.516 . S
C1545 C1544 1.516 . S
C1545 C1546 1.502 . S
C1545 C1547 1.561 . S
C1545 C1548 1.526 . S
C1546 H1530 0.959 . S
C1546 H1531 0.959 . S
C1546 H1532 0.961 . S
C1546 C1545 1.502 . S
C1547 H1533 0.960 . S
C1547 H1534 0.961 . S
C1547 H1535 0.959 . S
C1547 C1545 1.561 . S
C1548 C1545 1.526 . S
C1548 C1549 1.396 . S
C1548 C1553 1.390 . S
C1549 C1543 1.465 . S
C1549 C1548 1.396 . S
C1549 C1550 1.399 . S
C1550 H1536 0.929 . S
C1550 C1549 1.399 . S
C1550 C1551 1.385 . S
C1551 H1537 0.931 . S
C1551 C1550 1.385 . S
C1551 C1552 1.389 . S
C1552 C1551 1.389 . S
C1552 C1553 1.387 . S
C1553 H1538 0.930 . S
C1553 C1548 1.390 . S
C1553 C1552 1.387 . S
H1554 C1566 0.930 . S
H1555 C1568 0.930 . S
H1556 C1569 0.930 . S
H1557 C1573 0.959 . S
H1558 C1573 0.959 . S
H1559 C1573 0.961 . S
H1560 C1574 0.960 . S
H1561 C1574 0.961 . S
H1562 C1574 0.959 . S
H1563 C1577 0.929 . S
H1564 C1578 0.931 . S
H1565 C1580 0.930 . S
C1566 H1554 0.930 . S
C1566 C1567 1.399 . S
C1566 C1571 1.399 . S
C1567 C1566 1.399 . S
C1567 C1568 1.376 . S
C1568 H1555 0.930 . S
C1568 C1567 1.376 . S
C1568 C1569 1.388 . S
C1569 H1556 0.930 . S
C1569 C1568 1.388 . S
C1569 C1570 1.390 . S
C1570 C1569 1.390 . S
C1570 C1571 1.394 . S
C1570 C1576 1.465 . S
C1571 C1566 1.399 . S
C1571 C1570 1.394 . S
C1571 C1572 1.516 . S
C1572 C1571 1.516 . S
C1572 C1573 1.502 . S
C1572 C1574 1.561 . S
C1572 C1575 1.526 . S
C1573 H1557 0.959 . S
C1573 H1558 0.959 . S
C1573 H1559 0.961 . S
C1573 C1572 1.502 . S
C1574 H1560 0.960 . S
C1574 H1561 0.961 . S
C1574 H1562 0.959 . S
C1574 C1572 1.561 . S
C1575 C1572 1.526 . S
C1575 C1576 1.396 . S
C1575 C1580 1.390 . S
C1576 C1570 1.465 . S
C1576 C1575 1.396 . S
C1576 C1577 1.399 . S
C1577 H1563 0.929 . S
C1577 C1576 1.399 . S
C1577 C1578 1.385 . S
C1578 H1564 0.931 . S
C1578 C1577 1.385 . S
C1578 C1579 1.389 . S
C1579 C1578 1.389 . S
C1579 C1580 1.387 . S
C1580 H1565 0.930 . S
C1580 C1575 1.390 . S
C1580 C1579 1.387 . S
H1581 C1593 0.930 . S
H1582 C1595 0.930 . S
H1583 C1596 0.930 . S
H1584 C1600 0.959 . S
H1585 C1600 0.959 . S
H1586 C1600 0.961 . S
H1587 C1601 0.960 . S
H1588 C1601 0.961 . S
H1589 C1601 0.959 . S
H1590 C1604 0.929 . S
H1591 C1605 0.931 . S
H1592 C1607 0.930 . S
C1593 H1581 0.930 . S
C1593 C1594 1.399 . S
C1593 C1598 1.399 . S
C1594 C1593 1.399 . S
C1594 C1595 1.376 . S
C1595 H1582 0.930 . S
C1595 C1594 1.376 . S
C1595 C1596 1.388 . S
C1596 H1583 0.930 . S
C1596 C1595 1.388 . S
C1596 C1597 1.390 . S
C1597 C1596 1.390 . S
C1597 C1598 1.394 . S
C1597 C1603 1.465 . S
C1598 C1593 1.399 . S
C1598 C1597 1.394 . S
C1598 C1599 1.516 . S
C1599 C1598 1.516 . S
C1599 C1600 1.502 . S
C1599 C1601 1.561 . S
C1599 C1602 1.526 . S
C1600 H1584 0.959 . S
C1600 H1585 0.959 . S
C1600 H1586 0.961 . S
C1600 C1599 1.502 . S
C1601 H1587 0.960 . S
C1601 H1588 0.961 . S
C1601 H1589 0.959 . S
C1601 C1599 1.561 . S
C1602 C1599 1.526 . S
C1602 C1603 1.396 . S
C1602 C1607 1.390 . S
C1603 C1597 1.465 . S
C1603 C1602 1.396 . S
C1603 C1604 1.399 . S
C1604 H1590 0.929 . S
C1604 C1603 1.399 . S
C1604 C1605 1.385 . S
C1605 H1591 0.931 . S
C1605 C1604 1.385 . S
C1605 C1606 1.389 . S
C1606 C1605 1.389 . S
C1606 C1607 1.387 . S
C1607 H1592 0.930 . S
C1607 C1602 1.390 . S
C1607 C1606 1.387 . S
C541 C21 1.198 . S
C553 C516 1.200 1_556 S
C568 C417 1.202 . S
C580 C54 1.204 1_554 S
C595 C450 1.196 . S
C607 C87 1.198 1_554 S
C622 C483 1.197 . S
C634 C120 1.199 1_554 S
C649 C153 1.199 . S
C661 C318 1.204 . S
C676 C351 1.203 . S
C688 C186 1.208 . S
C703 C384 1.207 . S
C715 C219 1.212 . S
C730 C252 1.228 . S
C742 C285 1.224 . S
C757 C216 1.952 . S
C769 C18 1.937 . S
C784 C249 1.936 . S
C796 C51 1.948 . S
C811 C150 1.934 . S
C823 C84 1.942 . S
C838 C183 1.946 . S
C850 C117 1.934 . S
C865 N145 0.901 . S
C877 N79 0.858 . S
C892 N112 0.806 . S
C904 N178 0.774 . S
C919 N211 0.772 . S
C931 N13 0.802 . S
C946 N46 0.786 . S
C958 N244 0.778 . S
C973 C282 1.956 . S
C985 C480 1.949 . S
C1000 C513 1.945 . S
C1012 C315 1.957 . S
C1027 C414 1.956 . S
C1039 C348 1.950 . S
C1054 C447 1.941 . S
C1066 C381 1.955 . S
C1081 N409 0.904 . S
C1093 N343 0.870 . S
C1108 N442 0.813 . S
C1120 N376 0.874 . S
C1135 N277 0.777 . S
C1147 N475 0.828 . S
C1162 N310 0.815 . S
C1174 N508 0.774 . S
C1189 N167 0.801 . S
C1201 N2 0.860 . S
C1216 N35 0.865 . S
C1228 N200 0.905 . S
C1243 N233 0.825 . S
C1255 N68 0.887 . S
C1270 N101 0.826 . S
C1282 N134 0.887 . S
C1297 C73 2.196 . S
C1309 C238 2.212 . S
C1324 C139 2.214 . S
C1336 C106 2.201 . S
C1351 C172 2.209 . S
C1363 C7 2.196 . S
C1378 C40 2.214 . S
C1390 C205 2.203 . S
C1405 N431 0.856 . S
C1417 N266 0.800 . S
C1432 N299 0.903 . S
C1444 N464 0.854 . S
C1459 N497 0.892 . S
C1471 N332 0.833 . S
C1486 N365 0.808 . S
C1498 N398 0.871 . S
C1513 C502 2.181 . S
C1525 C337 2.186 . S
C1540 C370 2.181 . S
C1552 C403 2.183 . S
C1567 C436 2.204 . S
C1579 C271 2.188 . S
C1594 C304 2.217 . S
C1606 C469 2.215 . S
