# Generated by pormake.
# Topology wld, (5)-cn, num edge types: 1
# Building blocks:
#     Node 0, Type 0, BuildingBlock: BEQFEK_clean_sbu_0, # of connection points: 5
#     Node 1, Type 0, BuildingBlock: BEQFEK_clean_sbu_0, # of connection points: 5
#     Node 2, Type 0, BuildingBlock: BEQFEK_clean_sbu_0, # of connection points: 5
#     Node 3, Type 0, BuildingBlock: BEQFEK_clean_sbu_0, # of connection points: 5
#     Node 4, Type 0, BuildingBlock: BEQFEK_clean_sbu_0, # of connection points: 5
#     Node 5, Type 0, BuildingBlock: BEQFEK_clean_sbu_0, # of connection points: 5
#     Node 6, Type 0, BuildingBlock: BEQFEK_clean_sbu_0, # of connection points: 5
#     Node 7, Type 0, BuildingBlock: BEQFEK_clean_sbu_0, # of connection points: 5
#     Node 8, Type 0, BuildingBlock: BEQFEK_clean_sbu_0, # of connection points: 5
#     Node 9, Type 0, BuildingBlock: BEQFEK_clean_sbu_0, # of connection points: 5
#     Node 10, Type 0, BuildingBlock: BEQFEK_clean_sbu_0, # of connection points: 5
#     Node 11, Type 0, BuildingBlock: BEQFEK_clean_sbu_0, # of connection points: 5
#     Edge 12, Type (0, 0), BuildingBlock: EZIPEK_clean_linker_0, # of connection points: 2
#     Edge 13, Type (0, 0), BuildingBlock: EZIPEK_clean_linker_0, # of connection points: 2
#     Edge 14, Type (0, 0), BuildingBlock: EZIPEK_clean_linker_0, # of connection points: 2
#     Edge 15, Type (0, 0), BuildingBlock: EZIPEK_clean_linker_0, # of connection points: 2
#     Edge 16, Type (0, 0), BuildingBlock: EZIPEK_clean_linker_0, # of connection points: 2
#     Edge 17, Type (0, 0), BuildingBlock: EZIPEK_clean_linker_0, # of connection points: 2
#     Edge 18, Type (0, 0), BuildingBlock: EZIPEK_clean_linker_0, # of connection points: 2
#     Edge 19, Type (0, 0), BuildingBlock: EZIPEK_clean_linker_0, # of connection points: 2
#     Edge 20, Type (0, 0), BuildingBlock: EZIPEK_clean_linker_0, # of connection points: 2
#     Edge 21, Type (0, 0), BuildingBlock: EZIPEK_clean_linker_0, # of connection points: 2
#     Edge 22, Type (0, 0), BuildingBlock: EZIPEK_clean_linker_0, # of connection points: 2
#     Edge 23, Type (0, 0), BuildingBlock: EZIPEK_clean_linker_0, # of connection points: 2
#     Edge 24, Type (0, 0), BuildingBlock: EZIPEK_clean_linker_0, # of connection points: 2
#     Edge 25, Type (0, 0), BuildingBlock: EZIPEK_clean_linker_0, # of connection points: 2
#     Edge 26, Type (0, 0), BuildingBlock: EZIPEK_clean_linker_0, # of connection points: 2
#     Edge 27, Type (0, 0), BuildingBlock: EZIPEK_clean_linker_0, # of connection points: 2
#     Edge 28, Type (0, 0), BuildingBlock: EZIPEK_clean_linker_0, # of connection points: 2
#     Edge 29, Type (0, 0), BuildingBlock: EZIPEK_clean_linker_0, # of connection points: 2
#     Edge 30, Type (0, 0), BuildingBlock: EZIPEK_clean_linker_0, # of connection points: 2
#     Edge 31, Type (0, 0), BuildingBlock: EZIPEK_clean_linker_0, # of connection points: 2
#     Edge 32, Type (0, 0), BuildingBlock: EZIPEK_clean_linker_0, # of connection points: 2
#     Edge 33, Type (0, 0), BuildingBlock: EZIPEK_clean_linker_0, # of connection points: 2
#     Edge 34, Type (0, 0), BuildingBlock: EZIPEK_clean_linker_0, # of connection points: 2
#     Edge 35, Type (0, 0), BuildingBlock: EZIPEK_clean_linker_0, # of connection points: 2
#     Edge 36, Type (0, 0), BuildingBlock: EZIPEK_clean_linker_0, # of connection points: 2
#     Edge 37, Type (0, 0), BuildingBlock: EZIPEK_clean_linker_0, # of connection points: 2
#     Edge 38, Type (0, 0), BuildingBlock: EZIPEK_clean_linker_0, # of connection points: 2
#     Edge 39, Type (0, 0), BuildingBlock: EZIPEK_clean_linker_0, # of connection points: 2
#     Edge 40, Type (0, 0), BuildingBlock: EZIPEK_clean_linker_0, # of connection points: 2
#     Edge 41, Type (0, 0), BuildingBlock: EZIPEK_clean_linker_0, # of connection points: 2
# Relax obj value: 0.319
# Max RMSD: 0.214
# Mean RMSD: 0.214
data_MOF--net-wld--node1-BEQFEK_clean_sbu_0--edge1-EZIPEK_clean_linker_0
_symmetry_space_group_name_H-M    P1
_symmetry_Int_Tables_number       1
_symmetry_cell_setting            triclinic
loop_
_symmetry_equiv_pos_as_xyz
'x, y, z'
_cell_length_a     30.697527
_cell_length_b     30.680519
_cell_length_c     31.657254
_cell_angle_alpha  90.100947
_cell_angle_beta   89.81512
_cell_angle_gamma 119.90305
loop_
_atom_site_label
_atom_site_type_symbol
_atom_site_fract_x
_atom_site_fract_y
_atom_site_fract_z
_atom_type_partial_charge
Co0 Co 0.36456 0.27348 0.11743 0.0
Co1 Co 0.41727 0.22419 0.16851 0.0
C2 C 0.47235 0.33331 0.14751 0.0
O3 O 0.43561 0.33093 0.12659 0.0
O4 O 0.4697 0.29467 0.16474 0.0
C5 C 0.33079 0.30723 0.04484 0.0
O6 O 0.36715 0.30635 0.02355 0.0
C7 C 0.49243 0.19301 0.18273 0.0
C8 C 0.44934 0.12145 0.21736 0.0
C9 C 0.49538 0.15238 0.19839 0.0
N10 N 0.44641 0.1861 0.19116 0.0
N11 N 0.4212 0.14372 0.21271 0.0
C12 C 0.53179 0.23643 0.15792 0.0
H13 H 0.51419 0.24663 0.1321 0.0
H14 H 0.56027 0.22793 0.14471 0.0
H15 H 0.55103 0.26946 0.17916 0.0
C16 C 0.33383 0.18018 0.06497 0.0
N17 N 0.36076 0.21356 0.09569 0.0
N18 N 0.38966 0.19881 0.11391 0.0
C19 C 0.38594 0.15921 0.09252 0.0
C20 C 0.34944 0.14479 0.06172 0.0
C21 C 0.28855 0.17692 0.04445 0.0
H22 H 0.26424 0.17912 0.06926 0.0
H23 H 0.30012 0.20866 0.02226 0.0
H24 H 0.26672 0.14115 0.02685 0.0
O25 O 0.3328 0.26003 0.17212 0.0
O26 O 0.36561 0.22235 0.20947 0.0
H27 H 0.40234 0.11263 0.13066 0.0
H28 H 0.41486 0.11017 0.07515 0.0
C29 C 0.41657 0.13503 0.10134 0.0
H30 H 0.45626 0.16435 0.10528 0.0
H31 H 0.38387 0.12863 0.22228 0.0
O32 O 0.32512 0.29605 0.08374 0.0
C33 C 0.33591 0.24008 0.20611 0.0
Co34 Co 0.72393 0.09996 0.10017 0.0
Co35 Co 0.78029 0.18301 0.16917 0.0
C36 C 0.66741 0.13446 0.14998 0.0
O37 O 0.66647 0.10627 0.12005 0.0
O38 O 0.7081 0.16337 0.16919 0.0
C39 C 0.66142 0.02329 0.03862 0.0
O40 O 0.62577 0.03323 0.04886 0.0
C41 C 0.8034 0.28459 0.17581 0.0
C42 C 0.87191 0.32286 0.21457 0.0
C43 C 0.84043 0.33157 0.18883 0.0
N44 N 0.81294 0.24964 0.19191 0.0
N45 N 0.85365 0.27263 0.21563 0.0
C46 C 0.7603 0.27298 0.14695 0.0
H47 H 0.75823 0.2471 0.12153 0.0
H48 H 0.76312 0.30727 0.13275 0.0
H49 H 0.72482 0.25395 0.16535 0.0
C50 C 0.80482 0.17964 0.04709 0.0
N51 N 0.77958 0.16183 0.08367 0.0
N52 N 0.80693 0.1914 0.11447 0.0
C53 C 0.85153 0.22692 0.09907 0.0
C54 C 0.85091 0.2215 0.05578 0.0
C55 C 0.78696 0.15514 0.00525 0.0
H56 H 0.79118 0.1213 0.00399 0.0
H57 H 0.74669 0.14361 0.0018 0.0
H58 H 0.80906 0.18082 0.97909 0.0
O59 O 0.74448 0.0734 0.14837 0.0
O60 O 0.78636 0.12885 0.19865 0.0
H61 H 0.89488 0.23845 0.15527 0.0
H62 H 0.93198 0.26807 0.10852 0.0
C63 C 0.8968 0.25867 0.12569 0.0
H64 H 0.89838 0.29432 0.1341 0.0
H65 H 0.87061 0.25453 0.23041 0.0
O66 O 0.70483 0.04875 0.05487 0.0
C67 C 0.76793 0.08444 0.18345 0.0
Co68 Co 0.89722 0.61772 0.0989 0.0
Co69 Co 0.81372 0.59018 0.16856 0.0
C70 C 0.85438 0.52081 0.14003 0.0
O71 O 0.88383 0.5487 0.11085 0.0
O72 O 0.82775 0.5342 0.16121 0.0
C73 C 0.96476 0.64318 0.02451 0.0
O74 O 0.93734 0.59684 0.01075 0.0
C75 C 0.70882 0.51632 0.17317 0.0
C76 C 0.67596 0.5461 0.21893 0.0
C77 C 0.66339 0.50769 0.18979 0.0
N78 N 0.74639 0.55807 0.19093 0.0
N79 N 0.72655 0.57551 0.21866 0.0
C80 C 0.71674 0.48596 0.14006 0.0
H81 H 0.73386 0.46541 0.155 0.0
H82 H 0.74315 0.51129 0.11559 0.0
H83 H 0.68113 0.45789 0.12503 0.0
C84 C 0.82074 0.63063 0.04934 0.0
N85 N 0.83887 0.62074 0.08466 0.0
N86 N 0.81072 0.61872 0.11679 0.0
C87 C 0.77647 0.63081 0.10373 0.0
C88 C 0.78069 0.63722 0.06048 0.0
C89 C 0.84025 0.63328 0.00562 0.0
H90 H 0.86924 0.62205 0.00509 0.0
H91 H 0.80896 0.60808 0.98446 0.0
H92 H 0.85575 0.67206 0.99327 0.0
O93 O 0.92525 0.65406 0.15223 0.0
O94 O 0.87049 0.64008 0.20401 0.0
H95 H 0.76202 0.65424 0.16349 0.0
H96 H 0.73365 0.6674 0.11902 0.0
C97 C 0.74315 0.63996 0.13264 0.0
H98 H 0.70762 0.60462 0.13797 0.0
H99 H 0.74715 0.60858 0.23594 0.0
O100 O 0.95329 0.6564 0.05884 0.0
C101 C 0.91557 0.66137 0.18984 0.0
Co102 Co 0.28814 0.38932 0.40105 0.0
Co103 Co 0.24088 0.41907 0.32605 0.0
C104 C 0.34779 0.48608 0.36184 0.0
O105 O 0.34462 0.45904 0.39342 0.0
O106 O 0.31109 0.47268 0.33664 0.0
C107 C 0.34394 0.36789 0.4627 0.0
O108 O 0.38094 0.41344 0.45464 0.0
C109 C 0.20681 0.49071 0.32135 0.0
C110 C 0.17753 0.48584 0.2571 0.0
C111 C 0.18506 0.51061 0.29548 0.0
N112 N 0.21174 0.45539 0.3 0.0
N113 N 0.19416 0.45262 0.26139 0.0
C114 C 0.22007 0.50374 0.36689 0.0
H115 H 0.241 0.48599 0.37957 0.0
H116 H 0.18509 0.4912 0.38538 0.0
H117 H 0.24284 0.545 0.37101 0.0
C118 C 0.19351 0.37098 0.44225 0.0
N119 N 0.22562 0.38518 0.40937 0.0
N120 N 0.2037 0.391 0.37599 0.0
C121 C 0.15643 0.37907 0.38616 0.0
C122 C 0.14894 0.36705 0.42848 0.0
C123 C 0.20496 0.3605 0.48554 0.0
H124 H 0.24322 0.39035 0.49466 0.0
H125 H 0.17702 0.35858 0.50893 0.0
H126 H 0.20421 0.32398 0.48521 0.0
O127 O 0.28378 0.3518 0.34909 0.0
O128 O 0.24739 0.36618 0.29406 0.0
H129 H 0.08054 0.34427 0.36337 0.0
H130 H 0.11516 0.41124 0.35885 0.0
C131 C 0.11806 0.37677 0.35578 0.0
H132 H 0.12834 0.37324 0.32286 0.0
H133 H 0.19355 0.4283 0.23802 0.0
O134 O 0.30138 0.3525 0.44559 0.0
C135 C 0.26876 0.34371 0.31091 0.0
Co136 Co 0.6256 0.90981 0.37837 0.0
Co137 Co 0.60064 0.82051 0.31857 0.0
C138 C 0.52673 0.85894 0.34068 0.0
O139 O 0.55499 0.89149 0.36768 0.0
O140 O 0.54358 0.8347 0.32025 0.0
C141 C 0.64765 0.98187 0.44814 0.0
O142 O 0.6015 0.95328 0.46199 0.0
C143 C 0.53217 0.71513 0.32224 0.0
C144 C 0.54543 0.68238 0.26495 0.0
C145 C 0.51663 0.67029 0.30151 0.0
N146 N 0.56899 0.75242 0.29971 0.0
N147 N 0.57692 0.73274 0.26534 0.0
C148 C 0.51326 0.72172 0.36418 0.0
H149 H 0.53067 0.76183 0.37309 0.0
H150 H 0.5214 0.70095 0.38864 0.0
H151 H 0.47192 0.70527 0.36343 0.0
C152 C 0.64219 0.84145 0.4382 0.0
N153 N 0.63118 0.85463 0.40057 0.0
N154 N 0.62719 0.82143 0.37225 0.0
C155 C 0.63841 0.78843 0.39002 0.0
C156 C 0.64729 0.79945 0.43232 0.0
C157 C 0.64513 0.86575 0.47977 0.0
H158 H 0.63133 0.89257 0.47736 0.0
H159 H 0.62229 0.8365 0.5035 0.0
H160 H 0.68454 0.88505 0.4911 0.0
O161 O 0.66348 0.93322 0.32394 0.0
O162 O 0.65494 0.87082 0.28278 0.0
H163 H 0.64932 0.75677 0.33284 0.0
H164 H 0.67365 0.74376 0.38021 0.0
C165 C 0.64248 0.74795 0.36698 0.0
H166 H 0.60736 0.71151 0.3714 0.0
H167 H 0.60354 0.75352 0.24221 0.0
O168 O 0.66182 0.97011 0.41448 0.0
C169 C 0.67447 0.91771 0.29033 0.0
Co170 Co 0.10806 0.72803 0.38749 0.0
Co171 Co 0.19292 0.78256 0.31827 0.0
C172 C 0.15359 0.67357 0.34949 0.0
O173 O 0.12434 0.67298 0.37858 0.0
O174 O 0.17912 0.71239 0.3267 0.0
C175 C 0.01991 0.66924 0.44197 0.0
O176 O 0.02109 0.62931 0.42851 0.0
C177 C 0.29881 0.8203 0.31163 0.0
C178 C 0.32202 0.85579 0.24901 0.0
C179 C 0.33991 0.84536 0.2856 0.0
N180 N 0.25811 0.81625 0.29227 0.0
N181 N 0.27217 0.83781 0.25471 0.0
C182 C 0.29888 0.80009 0.35456 0.0
H183 H 0.26072 0.78056 0.36849 0.0
H184 H 0.32446 0.83144 0.37554 0.0
H185 H 0.31405 0.77405 0.35236 0.0
C186 C 0.18062 0.81968 0.43542 0.0
N187 N 0.16577 0.79083 0.40037 0.0
N188 N 0.19757 0.81541 0.36967 0.0
C189 C 0.23224 0.86122 0.38366 0.0
C190 C 0.22324 0.86499 0.42582 0.0
C191 C 0.15475 0.80408 0.47715 0.0
H192 H 0.14762 0.76581 0.4848 0.0
H193 H 0.17749 0.83068 0.50254 0.0
H194 H 0.11809 0.80285 0.47501 0.0
O195 O 0.07835 0.7332 0.33347 0.0
O196 O 0.13629 0.7773 0.28453 0.0
H197 H 0.27842 0.93931 0.36758 0.0
H198 H 0.30795 0.90214 0.3611 0.0
C199 C 0.27205 0.90203 0.35709 0.0
H200 H 0.26115 0.89653 0.32333 0.0
H201 H 0.2478 0.8397 0.23283 0.0
O202 O 0.05412 0.71267 0.4303 0.0
C203 C 0.09051 0.7526 0.29676 0.0
Co204 Co 0.62323 0.72554 0.89609 0.0
Co205 Co 0.58949 0.77439 0.82453 0.0
C206 C 0.5268 0.66514 0.85555 0.0
O207 O 0.55625 0.6671 0.88465 0.0
O208 O 0.5372 0.70341 0.83307 0.0
C209 C 0.64234 0.66949 0.96007 0.0
O210 O 0.5951 0.63476 0.9549 0.0
C211 C 0.50995 0.7976 0.81658 0.0
C212 C 0.54174 0.86521 0.77647 0.0
C213 C 0.5016 0.83585 0.8032 0.0
N214 N 0.5537 0.805 0.80011 0.0
N215 N 0.57191 0.84483 0.77519 0.0
C216 C 0.47783 0.75553 0.8462 0.0
H217 H 0.46408 0.7192 0.82954 0.0
H218 H 0.50059 0.75623 0.87364 0.0
H219 H 0.44457 0.75742 0.85737 0.0
C220 C 0.63087 0.81292 0.9432 0.0
N221 N 0.6213 0.78466 0.90817 0.0
N222 N 0.61554 0.80852 0.8762 0.0
C223 C 0.62439 0.85403 0.88932 0.0
C224 C 0.63287 0.8576 0.93241 0.0
C225 C 0.63981 0.79828 0.9857 0.0
H226 H 0.67901 0.80562 0.9868 0.0
H227 H 0.61358 0.75757 0.99071 0.0
H228 H 0.63483 0.82039 0.0111 0.0
O229 O 0.66194 0.73471 0.8437 0.0
O230 O 0.64239 0.7697 0.7907 0.0
H231 H 0.6468 0.89301 0.83016 0.0
H232 H 0.65368 0.93285 0.87451 0.0
C233 C 0.62989 0.89517 0.86052 0.0
H234 H 0.59287 0.89133 0.8543 0.0
H235 H 0.60661 0.86031 0.75987 0.0
O236 O 0.65995 0.71093 0.94031 0.0
C237 C 0.66719 0.74973 0.80553 0.0
Co238 Co 0.27507 0.90377 0.88813 0.0
Co239 Co 0.22436 0.81463 0.82303 0.0
C240 C 0.33366 0.86174 0.85308 0.0
O241 O 0.33179 0.88996 0.88175 0.0
O242 O 0.29575 0.83465 0.83015 0.0
C243 C 0.30058 0.96455 0.96526 0.0
O244 O 0.29456 0.92384 0.98398 0.0
C245 C 0.20271 0.71202 0.81875 0.0
C246 C 0.14004 0.67497 0.77368 0.0
C247 C 0.16822 0.66537 0.80259 0.0
N248 N 0.19453 0.74729 0.80127 0.0
N249 N 0.15758 0.72504 0.77369 0.0
C250 C 0.24251 0.72322 0.85108 0.0
H251 H 0.24061 0.74737 0.87634 0.0
H252 H 0.23926 0.68866 0.86508 0.0
H253 H 0.27992 0.74422 0.83573 0.0
C254 C 0.17929 0.83099 0.93692 0.0
N255 N 0.21189 0.84552 0.90384 0.0
N256 N 0.19113 0.81102 0.87413 0.0
C257 C 0.14509 0.7752 0.8866 0.0
C258 C 0.13704 0.7856 0.92708 0.0
C259 C 0.18494 0.86096 0.97582 0.0
H260 H 0.20179 0.90125 0.96774 0.0
H261 H 0.20872 0.85517 -0.00119 0.0
H262 H 0.14799 0.84837 0.99115 0.0
O263 O 0.26795 0.92817 0.83179 0.0
O264 O 0.22371 0.86628 0.78615 0.0
H265 H 0.1083 0.7537 0.82664 0.0
H266 H 0.06751 0.72293 0.87117 0.0
C267 C 0.10582 0.73686 0.85813 0.0
H268 H 0.11162 0.70441 0.85443 0.0
H269 H 0.14269 0.74354 0.75648 0.0
O270 O 0.29578 0.96322 0.92548 0.0
C271 C 0.24798 0.91299 0.79557 0.0
Co272 Co 0.09579 0.37202 0.8845 0.0
Co273 Co 0.18869 0.40247 0.82594 0.0
C274 C 0.14415 0.47088 0.8479 0.0
O275 O 0.11142 0.4416 0.87445 0.0
O276 O 0.17278 0.45828 0.82874 0.0
C277 C 0.02262 0.35 0.95198 0.0
O278 O 0.05097 0.39684 0.96429 0.0
C279 C 0.29322 0.47705 0.82606 0.0
C280 C 0.32968 0.4475 0.78374 0.0
C281 C 0.33967 0.48662 0.81137 0.0
N282 N 0.25743 0.43424 0.80842 0.0
N283 N 0.27934 0.41677 0.78288 0.0
C284 C 0.28247 0.50783 0.85668 0.0
H285 H 0.25366 0.48279 0.87987 0.0
H286 H 0.3166 0.53587 0.87355 0.0
H287 H 0.26713 0.52842 0.8391 0.0
C288 C 0.16421 0.35735 0.94459 0.0
N289 N 0.15163 0.36865 0.9069 0.0
N290 N 0.18556 0.37366 0.87894 0.0
C291 C 0.21808 0.36198 0.89679 0.0
C292 C 0.20645 0.35256 0.93905 0.0
C293 C 0.1389 0.35383 0.98581 0.0
H294 H 0.11283 0.36859 0.98313 0.0
H295 H 0.16758 0.37551 0.01021 0.0
H296 H 0.11838 0.31412 -0.00357 0.0
O297 O 0.07536 0.3375 0.82867 0.0
O298 O 0.13979 0.35108 0.78741 0.0
H299 H 0.26532 0.32874 0.89023 0.0
H300 H 0.29109 0.3911 0.86953 0.0
C301 C 0.25619 0.35471 0.8731 0.0
H302 H 0.24176 0.33944 0.84119 0.0
H303 H 0.2602 0.3832 0.76598 0.0
O304 O 0.03501 0.3342 0.91965 0.0
C305 C 0.09266 0.33024 0.79436 0.0
Co306 Co 0.72733 0.63452 0.60233 0.0
Co307 Co 0.78345 0.59867 0.66288 0.0
C308 C 0.6713 0.53504 0.63755 0.0
O309 O 0.67047 0.56488 0.61002 0.0
O310 O 0.71116 0.54644 0.65808 0.0
C311 C 0.6888 0.66753 0.53164 0.0
O312 O 0.67721 0.625 0.51269 0.0
C313 C 0.8055 0.51788 0.66662 0.0
C314 C 0.87322 0.54717 0.70641 0.0
C315 C 0.84197 0.50723 0.68037 0.0
N316 N 0.81537 0.56254 0.68266 0.0
N317 N 0.85541 0.5795 0.70711 0.0
C318 C 0.7624 0.48681 0.63767 0.0
H319 H 0.72678 0.47187 0.65572 0.0
H320 H 0.76161 0.51074 0.61176 0.0
H321 H 0.7642 0.45437 0.62429 0.0
C322 C 0.81341 0.64886 0.54508 0.0
N323 N 0.78735 0.63662 0.5819 0.0
N324 N 0.81297 0.62738 0.6102 0.0
C325 C 0.85709 0.63651 0.59341 0.0
C326 C 0.85834 0.64892 0.55125 0.0
C327 C 0.79551 0.65897 0.50442 0.0
H328 H 0.78617 0.68904 0.50902 0.0
H329 H 0.76097 0.62444 0.49434 0.0
H330 H 0.82437 0.67045 0.4792 0.0
O331 O 0.73831 0.66651 0.65916 0.0
O332 O 0.78639 0.65071 0.70151 0.0
H333 H 0.90211 0.65516 0.64918 0.0
H334 H 0.93523 0.65629 0.60161 0.0
C335 C 0.89865 0.63674 0.61823 0.0
H336 H 0.88997 0.5979 0.62405 0.0
H337 H 0.87206 0.61421 0.72249 0.0
O338 O 0.70843 0.67653 0.56806 0.0
C339 C 0.76077 0.67223 0.69423 0.0
Co340 Co 0.38623 0.10542 0.59858 0.0
Co341 Co 0.41852 0.18939 0.66861 0.0
C342 C 0.48336 0.14446 0.63789 0.0
O343 O 0.45426 0.11601 0.60897 0.0
O344 O 0.4719 0.17197 0.65993 0.0
C345 C 0.35686 0.04192 0.52203 0.0
O346 O 0.39934 0.07505 0.50428 0.0
C347 C 0.49627 0.29344 0.67286 0.0
C348 C 0.46699 0.32888 0.71642 0.0
C349 C 0.50543 0.33988 0.68762 0.0
N350 N 0.45388 0.25695 0.69094 0.0
N351 N 0.43707 0.27837 0.71767 0.0
C352 C 0.52649 0.28362 0.6409 0.0
H353 H 0.50154 0.25956 0.61519 0.0
H354 H 0.55757 0.31875 0.62747 0.0
H355 H 0.54325 0.26304 0.65637 0.0
C356 C 0.3743 0.18308 0.55017 0.0
N357 N 0.38497 0.16483 0.585 0.0
N358 N 0.38965 0.19395 0.61722 0.0
C359 C 0.37873 0.22927 0.60472 0.0
C360 C 0.37017 0.22453 0.56172 0.0
C361 C 0.36957 0.16247 0.50659 0.0
H362 H 0.3392 0.12282 0.50589 0.0
H363 H 0.40522 0.16383 0.49778 0.0
H364 H 0.36119 0.18412 0.48314 0.0
O365 O 0.3505 0.07883 0.65219 0.0
O366 O 0.36763 0.13335 0.70467 0.0
H367 H 0.35892 0.24612 0.66511 0.0
H368 H 0.34632 0.27565 0.62132 0.0
C369 C 0.37285 0.26441 0.63398 0.0
H370 H 0.40932 0.29904 0.6383 0.0
H371 H 0.40366 0.25893 0.73479 0.0
O372 O 0.3467 0.04896 0.55938 0.0
C373 C 0.3443 0.08842 0.69012 0.0
Co374 Co 0.90396 0.28065 0.59401 0.0
Co375 Co 0.82225 0.22428 0.66325 0.0
C376 C 0.86229 0.33455 0.63545 0.0
O377 O 0.89085 0.33594 0.60562 0.0
O378 O 0.83692 0.29496 0.65735 0.0
C379 C 0.96658 0.31921 0.51791 0.0
O380 O 0.93391 0.33055 0.50225 0.0
C381 C 0.71864 0.19551 0.66829 0.0
C382 C 0.68412 0.13062 0.71158 0.0
C383 C 0.67283 0.15855 0.68373 0.0
N384 N 0.75537 0.18954 0.68546 0.0
N385 N 0.73461 0.1509 0.71169 0.0
C386 C 0.72765 0.2355 0.63665 0.0
H387 H 0.75428 0.2373 0.612 0.0
H388 H 0.69256 0.22936 0.62155 0.0
H389 H 0.74475 0.27237 0.65298 0.0
C390 C 0.82642 0.19482 0.54255 0.0
N391 N 0.84571 0.22065 0.57868 0.0
N392 N 0.81815 0.19339 0.61054 0.0
C393 C 0.78291 0.1481 0.59622 0.0
C394 C 0.78612 0.14811 0.55273 0.0
C395 C 0.84374 0.21527 0.49912 0.0
H396 H 0.88238 0.22254 0.49402 0.0
H397 H 0.84405 0.25141 0.49596 0.0
H398 H 0.81892 0.1887 0.47455 0.0
O399 O 0.93182 0.2705 0.64671 0.0
O400 O 0.87785 0.22883 0.69843 0.0
H401 H 0.76991 0.10706 0.6541 0.0
H402 H 0.74159 0.06823 0.60786 0.0
C403 C 0.75053 0.10398 0.62379 0.0
H404 H 0.71474 0.10282 0.63066 0.0
H405 H 0.7545 0.1369 0.72803 0.0
O406 O 0.95957 0.29934 0.55412 0.0
C407 C 0.92273 0.25269 0.68403 0.0
C408 C 0.58412 0.1287 0.13344 0.0
C409 C 0.62056 0.13384 0.16356 0.0
C410 C 0.57289 0.14869 0.21878 0.0
C411 C 0.53513 0.13957 0.18896 0.0
N412 N 0.49595 0.09889 0.12371 0.0
N413 N 0.63895 0.13136 0.23776 0.0
C414 C 0.53791 0.12267 0.14802 0.0
C415 C 0.61198 0.13882 0.20723 0.0
N416 N 0.59398 0.13232 0.0911 0.0
N417 N 0.57177 0.16697 0.25787 0.0
H418 H 0.66446 0.11922 0.23105 0.0
H419 H 0.63125 0.13088 0.2699 0.0
H420 H 0.54266 0.17291 0.26771 0.0
H421 H 0.60139 0.17923 0.27921 0.0
H422 H 0.56906 0.13233 0.06878 0.0
H423 H 0.62898 0.14168 0.07855 0.0
H424 H 0.4956 0.08336 0.09429 0.0
H425 H 0.46061 0.08798 0.13626 0.0
C426 C 0.85246 0.39563 0.13301 0.0
C427 C 0.84658 0.38114 0.17628 0.0
C428 C 0.85399 0.46178 0.19579 0.0
C429 C 0.85282 0.47317 0.15222 0.0
N430 N 0.8392 0.44426 0.07986 0.0
N431 N 0.83139 0.39659 0.24811 0.0
C432 C 0.8491 0.43841 0.12089 0.0
C433 C 0.84454 0.41317 0.20748 0.0
N434 N 0.86177 0.36899 0.10331 0.0
N435 N 0.86597 0.49766 0.22622 0.0
H436 H 0.82325 0.36093 0.25807 0.0
H437 H 0.82366 0.41634 0.27092 0.0
H438 H 0.87409 0.5342 0.21998 0.0
H439 H 0.87292 0.49259 0.25752 0.0
H440 H 0.87223 0.38147 0.07236 0.0
H441 H 0.86313 0.33666 0.11036 0.0
H442 H 0.83099 0.41707 0.05671 0.0
H443 H 0.83355 0.4734 0.06982 0.0
C444 C 0.59379 0.45969 0.13654 0.0
C445 C 0.61181 0.46622 0.17888 0.0
C446 C 0.53117 0.39455 0.20045 0.0
C447 C 0.51735 0.38258 0.15743 0.0
N448 N 0.53784 0.40153 0.08372 0.0
N449 N 0.5994 0.43419 0.25027 0.0
C450 C 0.54901 0.41481 0.12517 0.0
C451 C 0.58082 0.43235 0.21072 0.0
N452 N 0.61891 0.49659 0.10728 0.0
N453 N 0.49636 0.37047 0.2316 0.0
H454 H 0.63614 0.45994 0.25903 0.0
H455 H 0.57989 0.40683 0.27316 0.0
H456 H 0.45902 0.34398 0.22512 0.0
H457 H 0.50303 0.38092 0.26329 0.0
H458 H 0.60476 0.49622 0.07733 0.0
H459 H 0.65187 0.5297 0.11416 0.0
H460 H 0.56261 0.42067 0.05905 0.0
H461 H 0.50545 0.36906 0.07413 0.0
C462 C 0.21637 0.59963 0.31788 0.0
C463 C 0.17518 0.55212 0.3069 0.0
C464 C 0.11748 0.5834 0.32455 0.0
C465 C 0.15866 0.62864 0.34023 0.0
N466 N 0.24492 0.67256 0.36265 0.0
N467 N 0.08551 0.49574 0.30626 0.0
C468 C 0.20745 0.6346 0.34 0.0
C469 C 0.12532 0.54304 0.31205 0.0
N470 N 0.26411 0.61186 0.3065 0.0
N471 N 0.07149 0.57959 0.31984 0.0
H472 H 0.08974 0.46548 0.29679 0.0
H473 H 0.04868 0.4858 0.31398 0.0
H474 H 0.06417 0.60809 0.32864 0.0
H475 H 0.04172 0.54976 0.3042 0.0
H476 H 0.29488 0.64785 0.31036 0.0
H477 H 0.27208 0.58748 0.2895 0.0
H478 H 0.28036 0.67632 0.3664 0.0
H479 H 0.23823 0.69621 0.38195 0.0
C480 C 0.48288 0.58252 0.33055 0.0
C481 C 0.47427 0.62086 0.31479 0.0
C482 C 0.3889 0.57627 0.34253 0.0
C483 C 0.39435 0.53435 0.35257 0.0
N484 N 0.44591 0.49507 0.35109 0.0
N485 N 0.41494 0.64745 0.29636 0.0
C486 C 0.4413 0.5367 0.34545 0.0
C487 C 0.42588 0.6155 0.31776 0.0
N488 N 0.53067 0.59026 0.33238 0.0
N489 N 0.34928 0.57956 0.35834 0.0
H490 H 0.44081 0.6754 0.27633 0.0
H491 H 0.37884 0.64259 0.29509 0.0
H492 H 0.32446 0.55342 0.38006 0.0
H493 H 0.34553 0.61129 0.35462 0.0
H494 H 0.53976 0.56591 0.34783 0.0
H495 H 0.56178 0.62293 0.32115 0.0
H496 H 0.47749 0.49326 0.34155 0.0
H497 H 0.41701 0.46113 0.36264 0.0
C498 C 0.45971 0.88532 0.34511 0.0
C499 C 0.475 0.85111 0.33012 0.0
C500 C 0.39972 0.81248 0.28408 0.0
C501 C 0.39033 0.85194 0.2944 0.0
N502 N 0.41543 0.93032 0.32963 0.0
N503 N 0.45162 0.77458 0.29069 0.0
C504 C 0.42202 0.88998 0.32297 0.0
C505 C 0.44282 0.81269 0.30092 0.0
N506 N 0.47677 0.90943 0.38289 0.0
N507 N 0.36544 0.77288 0.26032 0.0
H508 H 0.46984 0.76244 0.31107 0.0
H509 H 0.43836 0.75336 0.26317 0.0
H510 H 0.33477 0.77242 0.24582 0.0
H511 H 0.36568 0.73931 0.2564 0.0
H512 H 0.46412 0.9322 0.39624 0.0
H513 H 0.49603 0.89976 0.40448 0.0
H514 H 0.44038 0.96163 0.3472 0.0
H515 H 0.3879 0.93458 0.31395 0.0
C516 C 0.40777 0.85125 0.87324 0.0
C517 C 0.38131 0.86245 0.8426 0.0
C518 C 0.43213 0.85445 0.78642 0.0
C519 C 0.46115 0.84661 0.81709 0.0
N520 N 0.485 0.85287 0.89082 0.0
N521 N 0.3799 0.89106 0.77198 0.0
C522 C 0.45168 0.84982 0.86089 0.0
C523 C 0.39721 0.86922 0.79977 0.0
N524 N 0.38993 0.83947 0.91364 0.0
N525 N 0.4357 0.84534 0.74464 0.0
H526 H 0.35636 0.90479 0.7813 0.0
H527 H 0.39362 0.9009 0.74125 0.0
H528 H 0.45882 0.83199 0.7334 0.0
H529 H 0.41162 0.84585 0.72175 0.0
H530 H 0.40477 0.82546 0.93587 0.0
H531 H 0.35764 0.83946 0.92394 0.0
H532 H 0.48236 0.8606 0.9225 0.0
H533 H 0.51768 0.85222 0.8836 0.0
C534 C 0.15217 0.55401 0.86891 0.0
C535 C 0.14784 0.51973 0.83691 0.0
C536 C 0.16176 0.58271 0.78296 0.0
C537 C 0.16069 0.61498 0.81459 0.0
N538 N 0.14141 0.62442 0.88719 0.0
N539 N 0.13403 0.49677 0.7631 0.0
C540 C 0.15176 0.59855 0.85745 0.0
C541 C 0.14842 0.5327 0.79377 0.0
N542 N 0.1591 0.54554 0.91006 0.0
N543 N 0.17738 0.60013 0.74289 0.0
H544 H 0.12086 0.45902 0.76996 0.0
H545 H 0.12942 0.50336 0.73158 0.0
H546 H 0.18948 0.63709 0.73385 0.0
H547 H 0.18341 0.57932 0.7199 0.0
H548 H 0.16762 0.57212 0.93384 0.0
H549 H 0.16159 0.51441 0.91976 0.0
H550 H 0.12938 0.6109 0.91768 0.0
H551 H 0.14042 0.65701 0.88043 0.0
C552 C 0.44778 0.58553 0.87678 0.0
C553 C 0.48099 0.61692 0.84481 0.0
C554 C 0.4208 0.5636 0.7907 0.0
C555 C 0.38978 0.52986 0.8225 0.0
N556 N 0.38218 0.50188 0.89482 0.0
N557 N 0.50527 0.62579 0.77098 0.0
C558 C 0.406 0.53859 0.86523 0.0
C559 C 0.46942 0.60296 0.80161 0.0
N560 N 0.45398 0.60136 0.91782 0.0
N561 N 0.40338 0.55972 0.7504 0.0
H562 H 0.5423 0.65292 0.77747 0.0
H563 H 0.49972 0.6135 0.73971 0.0
H564 H 0.36744 0.5324 0.74108 0.0
H565 H 0.42289 0.58682 0.72732 0.0
H566 H 0.42762 0.58155 0.94136 0.0
H567 H 0.48231 0.63663 0.9276 0.0
H568 H 0.3961 0.50464 0.92528 0.0
H569 H 0.35171 0.46688 0.88758 0.0
C570 C 0.85287 0.45328 0.62535 0.0
C571 C 0.84845 0.46373 0.66851 0.0
C572 C 0.86246 0.39492 0.68941 0.0
C573 C 0.85911 0.37996 0.64642 0.0
N574 N 0.83926 0.38912 0.57432 0.0
N575 N 0.8386 0.43701 0.74137 0.0
C576 C 0.85116 0.40757 0.61453 0.0
C577 C 0.85036 0.43248 0.70052 0.0
N578 N 0.85992 0.48729 0.59456 0.0
N579 N 0.87907 0.37487 0.71958 0.0
H580 H 0.8277 0.46275 0.7508 0.0
H581 H 0.83448 0.41159 0.76499 0.0
H582 H 0.8904 0.34876 0.71289 0.0
H583 H 0.88687 0.38835 0.75047 0.0
H584 H 0.86873 0.48362 0.56341 0.0
H585 H 0.86142 0.52124 0.60075 0.0
H586 H 0.82814 0.40559 0.55111 0.0
H587 H 0.83498 0.3545 0.5653 0.0
C588 C 0.61194 0.47647 0.69229 0.0
C589 C 0.62491 0.48728 0.64894 0.0
C590 C 0.55271 0.40542 0.63064 0.0
C591 C 0.54578 0.39117 0.67411 0.0
N592 N 0.57614 0.41198 0.74584 0.0
N593 N 0.61151 0.45806 0.57674 0.0
C594 C 0.57729 0.42647 0.70487 0.0
C595 C 0.59619 0.45083 0.61796 0.0
N596 N 0.63151 0.51437 0.72141 0.0
N597 N 0.51735 0.37651 0.60143 0.0
H598 H 0.64365 0.49016 0.56614 0.0
H599 H 0.59485 0.4301 0.55383 0.0
H600 H 0.48489 0.34323 0.60907 0.0
H601 H 0.51815 0.38798 0.57033 0.0
H602 H 0.6199 0.5093 0.75288 0.0
H603 H 0.65472 0.55193 0.71298 0.0
H604 H 0.60198 0.43526 0.76841 0.0
H605 H 0.55311 0.37523 0.75631 0.0
C606 C 0.59065 0.15271 0.70369 0.0
C607 C 0.62211 0.14999 0.67223 0.0
C608 C 0.56351 0.14532 0.61743 0.0
C609 C 0.5299 0.14349 0.64913 0.0
N610 N 0.50594 0.12989 0.72314 0.0
N611 N 0.63092 0.12947 0.60007 0.0
C612 C 0.54174 0.14246 0.69251 0.0
C613 C 0.60601 0.14153 0.62941 0.0
N614 N 0.60794 0.16729 0.7439 0.0
N615 N 0.55701 0.15386 0.57619 0.0
H616 H 0.66253 0.12687 0.60733 0.0
H617 H 0.6173 0.11754 0.56963 0.0
H618 H 0.52816 0.15987 0.56608 0.0
H619 H 0.58352 0.16049 0.55274 0.0
H620 H 0.58816 0.17511 0.76665 0.0
H621 H 0.64397 0.17646 0.75347 0.0
H622 H 0.51168 0.12388 0.75453 0.0
H623 H 0.46884 0.11978 0.71674 0.0
C624 C 0.31645 0.05201 0.05765 0.0
C625 C 0.32784 0.09718 0.03673 0.0
C626 C 0.30464 0.05002 0.97066 0.0
C627 C 0.30836 0.00984 0.99019 0.0
N628 N 0.33476 0.98495 0.05426 0.0
N629 N 0.34074 0.14025 0.96999 0.0
C630 C 0.3186 0.01377 0.03442 0.0
C631 C 0.32439 0.09674 0.99216 0.0
N632 N 0.30537 0.04614 0.09973 0.0
N633 N 0.27967 0.04361 0.93351 0.0
H634 H 0.35709 0.17549 0.98435 0.0
H635 H 0.3422 0.14121 0.93705 0.0
H636 H 0.25631 0.00855 0.92011 0.0
H637 H 0.2751 0.07212 0.92013 0.0
H638 H 0.29452 0.01235 0.11543 0.0
H639 H 0.3019 0.07309 0.1173 0.0
H640 H 0.34434 0.98956 0.0862 0.0
H641 H 0.34709 0.96344 0.0383 0.0
C642 C 0.93024 0.23882 0.01933 0.0
C643 C 0.89247 0.25169 0.02613 0.0
C644 C 0.9388 0.32789 0.98332 0.0
C645 C 0.97687 0.31511 0.97624 0.0
N646 N 0.00542 0.25446 0.98195 0.0
N647 N 0.85553 0.30302 0.01082 0.0
C648 C 0.97144 0.26925 0.99238 0.0
C649 C 0.89526 0.29473 0.00703 0.0
N650 N 0.92765 0.1985 0.04014 0.0
N651 N 0.94419 0.37165 0.96711 0.0
H652 H 0.82353 0.27997 0.02863 0.0
H653 H 0.8524 0.33069 0.99447 0.0
H654 H 0.97233 0.3941 0.94567 0.0
H655 H 0.92176 0.38682 0.97563 0.0
H656 H 0.95707 0.1909 0.04153 0.0
H657 H 0.89688 0.17388 0.05851 0.0
H658 H 0.99977 0.21863 0.98773 0.0
H659 H 0.03833 0.2766 0.96516 0.0
C660 C 0.74833 0.69239 0.03434 0.0
C661 C 0.74712 0.64579 0.0326 0.0
C662 C 0.67995 0.61559 0.9801 0.0
C663 C 0.67648 0.65964 0.98641 0.0
N664 N 0.69834 0.73262 0.02936 0.0
N665 N 0.70474 0.55889 0.01038 0.0
C666 C 0.70839 0.69625 0.01613 0.0
C667 C 0.71085 0.60605 0.0074 0.0
N668 N 0.78738 0.73287 0.05352 0.0
N669 N 0.65598 0.58412 0.94696 0.0
H670 H 0.7265 0.55025 0.03015 0.0
H671 H 0.67514 0.52757 -0.00399 0.0
H672 H 0.63493 0.59079 0.92484 0.0
H673 H 0.66147 0.55424 0.93891 0.0
H674 H 0.79201 0.7689 0.05229 0.0
H675 H 0.81741 0.73125 0.06723 0.0
H676 H 0.71826 0.75808 0.05337 0.0
H677 H 0.66561 0.7323 0.02052 0.0
C678 C 0.04942 0.38238 0.4867 0.0
C679 C 0.01314 0.33131 0.49472 0.0
C680 C 0.06629 0.30368 0.45903 0.0
C681 C 0.10342 0.35459 0.45322 0.0
N682 N 0.1355 0.44248 0.46743 0.0
N683 N 0.99087 0.24359 0.49557 0.0
C684 C 0.09641 0.39404 0.46861 0.0
C685 C 0.02274 0.292 0.48307 0.0
N686 N 0.03929 0.4198 0.49683 0.0
N687 N 0.07198 0.26651 0.44047 0.0
H688 H 0.95765 0.23251 0.51208 0.0
H689 H 0.99922 0.21475 0.49248 0.0
H690 H 0.10417 0.27354 0.42374 0.0
H691 H 0.04345 0.22911 0.43894 0.0
H692 H 0.06123 0.45686 0.4868 0.0
H693 H 0.00742 0.41364 0.51354 0.0
H694 H 0.13477 0.4726 0.48189 0.0
H695 H 0.17071 0.45215 0.45506 0.0
C696 C 0.70739 0.78541 0.47544 0.0
C697 C 0.65728 0.7701 0.46399 0.0
C698 C 0.62724 0.68935 0.49986 0.0
C699 C 0.67758 0.70439 0.51122 0.0
N700 N 0.76386 0.77162 0.51907 0.0
N701 N 0.56861 0.71391 0.47275 0.0
C702 C 0.7171 0.75406 0.50215 0.0
C703 C 0.61687 0.72391 0.47851 0.0
N704 N 0.74596 0.82888 0.45912 0.0
N705 N 0.58932 0.64204 0.50958 0.0
H706 H 0.56012 0.73915 0.45802 0.0
H707 H 0.5372 0.68302 0.48565 0.0
H708 H 0.59431 0.6174 0.52891 0.0
H709 H 0.55315 0.62634 0.49737 0.0
H710 H 0.78363 0.83882 0.46143 0.0
H711 H 0.74025 0.85374 0.4407 0.0
H712 H 0.7921 0.80914 0.51751 0.0
H713 H 0.77373 0.75021 0.53789 0.0
C714 C 0.27126 0.98421 0.49133 0.0
C715 C 0.32133 0.99509 0.49945 0.0
C716 C 0.30264 0.91511 0.46649 0.0
C717 C 0.25502 0.90755 0.45415 0.0
N718 N 0.19531 0.93655 0.45019 0.0
N719 N 0.38555 0.97161 0.49437 0.0
C720 C 0.23948 0.94231 0.46559 0.0
C721 C 0.33733 0.96078 0.48675 0.0
N722 N 0.25369 0.01352 0.50836 0.0
N723 N 0.31384 0.87764 0.46013 0.0
H724 H 0.41071 0.00182 0.51288 0.0
H725 H 0.40158 0.95191 0.4809 0.0
H726 H 0.28886 0.84338 0.44606 0.0
H727 H 0.34582 0.87838 0.47187 0.0
H728 H 0.21597 0.00372 0.50791 0.0
H729 H 0.27568 0.04584 0.5259 0.0
H730 H 0.18487 0.96394 0.45273 0.0
H731 H 0.17046 0.90576 0.43201 0.0
C732 C 0.61054 0.93154 0.01817 0.0
C733 C 0.6511 0.98073 0.01009 0.0
C734 C 0.68367 0.94676 0.95664 0.0
C735 C 0.63996 0.89915 0.96066 0.0
N736 N 0.55637 0.84854 0.98937 0.0
N737 N 0.71595 0.0359 0.96178 0.0
C738 C 0.60163 0.89214 0.98965 0.0
C739 C 0.68498 0.98859 0.9766 0.0
N740 N 0.58209 0.9216 0.05393 0.0
N741 N 0.72395 0.95216 0.9339 0.0
H742 H 0.71248 0.06622 0.97212 0.0
H743 H 0.73906 0.04343 0.93541 0.0
H744 H 0.72438 0.92198 0.91903 0.0
H745 H 0.75827 0.98566 0.93317 0.0
H746 H 0.55541 0.88527 0.06307 0.0
H747 H 0.58846 0.94872 0.07666 0.0
H748 H 0.52552 0.84381 0.00691 0.0
H749 H 0.54823 0.81885 0.9688 0.0
C750 C 0.05031 0.67189 0.99355 0.0
C751 C 0.00945 0.68055 0.00041 0.0
C752 C 0.05305 0.75928 0.95984 0.0
C753 C 0.09453 0.75163 0.95474 0.0
N754 N 0.13701 0.70563 0.97116 0.0
N755 N 0.97486 0.73616 -0.00426 0.0
C756 C 0.09434 0.70924 0.97279 0.0
C757 C 0.01181 0.72547 0.98541 0.0
N758 N 0.04719 0.6281 0.0071 0.0
N759 N 0.05221 0.79773 0.93874 0.0
H760 H 0.94249 0.71157 0.01225 0.0
H761 H 0.97768 0.77095 0.99043 0.0
H762 H 0.08235 0.82402 0.92066 0.0
H763 H 0.02055 0.80173 0.93663 0.0
H764 H 0.07232 0.61631 -0.00188 0.0
H765 H 0.01803 0.60193 0.026 0.0
H766 H 0.14149 0.67861 0.98729 0.0
H767 H 0.16993 0.73218 0.95616 0.0
C768 C 0.21571 0.29456 0.98921 0.0
C769 C 0.23556 0.34292 0.97116 0.0
C770 C 0.3169 0.36972 0.00461 0.0
C771 C 0.29671 0.3215 0.02347 0.0
N772 N 0.22225 0.24443 0.04471 0.0
N773 N 0.29981 0.43025 0.97039 0.0
C774 C 0.24461 0.28594 0.01942 0.0
C775 C 0.28467 0.3817 0.98149 0.0
N776 N 0.17027 0.25613 0.97612 0.0
N777 N 0.36686 0.40408 0.00872 0.0
H778 H 0.27698 0.44038 0.95365 0.0
H779 H 0.33285 0.46094 0.98132 0.0
H780 H 0.39085 0.39849 0.02837 0.0
H781 H 0.38495 0.43721 0.99124 0.0
H782 H 0.15679 0.21872 0.9845 0.0
H783 H 0.14787 0.26084 0.95399 0.0
H784 H 0.18357 0.21994 0.04545 0.0
H785 H 0.24109 0.23758 0.06864 0.0
C786 C 0.9269 0.62859 0.45884 0.0
C787 C 0.97762 0.66408 0.46904 0.0
C788 C 0.94734 0.69741 0.52526 0.0
C789 C 0.89793 0.65666 0.51991 0.0
N790 N 0.84216 0.57782 0.48553 0.0
N791 N 0.03527 0.72317 0.51997 0.0
C792 C 0.888 0.62059 0.48775 0.0
C793 C 0.9877 0.69636 0.50431 0.0
N794 N 0.91532 0.60417 0.42088 0.0
N795 N 0.95588 0.73681 0.55077 0.0
H796 H 0.06462 0.71869 0.50851 0.0
H797 H 0.04384 0.74429 0.54766 0.0
H798 H 0.92693 0.73873 0.56646 0.0
H799 H 0.99087 0.76939 0.55294 0.0
H800 H 0.87847 0.58147 0.41063 0.0
H801 H 0.94208 0.611 0.39761 0.0
H802 H 0.83498 0.54803 0.46544 0.0
H803 H 0.81274 0.57013 0.50627 0.0
C804 C 0.40195 0.29293 0.50708 0.0
C805 C 0.36282 0.25941 0.53435 0.0
C806 C 0.31637 0.30305 0.51995 0.0
C807 C 0.35221 0.33245 0.48864 0.0
N808 N 0.42287 0.34559 0.44518 0.0
N809 N 0.2776 0.22504 0.55915 0.0
C810 C 0.39345 0.32485 0.48013 0.0
C811 C 0.31822 0.26193 0.53821 0.0
N812 N 0.44764 0.2954 0.50759 0.0
N813 N 0.28244 0.31615 0.53412 0.0
H814 H 0.2777 0.19415 0.5728 0.0
H815 H 0.24263 0.22291 0.55952 0.0
H816 H 0.28327 0.34891 0.52425 0.0
H817 H 0.25808 0.29826 0.55934 0.0
H818 H 0.47891 0.32306 0.49152 0.0
H819 H 0.45558 0.27284 0.52701 0.0
H820 H 0.45026 0.33697 0.43571 0.0
H821 H 0.41644 0.36683 0.42305 0.0
C822 C 0.7091 0.10679 0.50765 0.0
C823 C 0.75237 0.10733 0.52382 0.0
C824 C 0.73045 0.02916 0.48647 0.0
C825 C 0.68451 0.02592 0.47315 0.0
N826 N 0.62938 0.06096 0.47113 0.0
N827 N 0.80295 0.06826 0.53272 0.0
C828 C 0.6736 0.06455 0.48387 0.0
C829 C 0.76284 0.06849 0.51413 0.0
N830 N 0.70279 0.14741 0.51416 0.0
N831 N 0.74365 0.99506 0.47259 0.0
H832 H 0.82891 0.09757 0.55161 0.0
H833 H 0.80885 0.03768 0.53196 0.0
H834 H 0.72035 0.96323 0.45508 0.0
H835 H 0.77944 0.99977 0.47618 0.0
H836 H 0.67528 0.15236 0.49951 0.0
H837 H 0.72722 0.17828 0.53247 0.0
H838 H 0.61582 0.08377 0.48256 0.0
H839 H 0.60486 0.0338 0.44995 0.0
C840 C 0.24597 0.26829 0.26379 0.0
C841 C 0.28257 0.31138 0.28579 0.0
C842 C 0.34444 0.28451 0.27314 0.0
C843 C 0.31197 0.24885 0.24345 0.0
N844 N 0.23031 0.20391 0.21155 0.0
N845 N 0.37021 0.36571 0.3036 0.0
C846 C 0.26189 0.23943 0.23957 0.0
C847 C 0.33277 0.32073 0.28863 0.0
N848 N 0.19631 0.25435 0.26677 0.0
N849 N 0.38692 0.28464 0.28591 0.0
H850 H 0.36431 0.39528 0.31188 0.0
H851 H 0.40805 0.3758 0.30277 0.0
H852 H 0.39526 0.25701 0.27669 0.0
H853 H 0.41011 0.30817 0.30976 0.0
H854 H 0.16756 0.22076 0.25455 0.0
H855 H 0.18353 0.27451 0.2844 0.0
H856 H 0.1954 0.1991 0.20313 0.0
H857 H 0.24043 0.18041 0.19562 0.0
C858 C 0.7386 0.99277 0.19064 0.0
C859 C 0.76489 0.04147 0.20868 0.0
C860 C 0.75222 1.00124 0.27785 0.0
C861 C 0.71139 0.95643 0.26075 0.0
N862 N 0.66518 0.91131 0.1979 0.0
N863 N 0.81056 0.0906 0.26925 0.0
C864 C 0.70498 0.95194 0.2162 0.0
C865 C 0.77641 0.04541 0.25234 0.0
N866 N 0.74575 0.98572 0.1492 0.0
N867 N 0.76887 1.00077 0.31775 0.0
H868 H 0.83547 0.12081 0.25055 0.0
H869 H 0.81485 0.09757 0.30161 0.0
H870 H 0.7542 0.96801 0.33583 0.0
H871 H 0.8005 0.03098 0.33106 0.0
H872 H 0.72951 0.95019 0.1353 0.0
H873 H 0.77305 0.01481 0.13079 0.0
H874 H 0.65759 0.90993 0.16568 0.0
H875 H 0.63695 0.8814 0.21464 0.0
C876 C 0.97106 0.73033 0.24116 0.0
C877 C 0.95937 0.68578 0.21869 0.0
C878 C 0.03963 0.69338 0.24028 0.0
C879 C 0.04938 0.73526 0.26571 0.0
N880 N 0.02295 0.79104 0.2946 0.0
N881 N 0.97764 0.61891 0.2044 0.0
C882 C 0.01461 0.75303 0.26741 0.0
C883 C 0.99243 0.66579 0.22023 0.0
N884 N 0.94166 0.7518 0.23624 0.0
N885 N 0.07534 0.67941 0.23548 0.0
H886 H 0.94339 0.59673 0.18947 0.0
H887 H 0.99709 0.59967 0.20964 0.0
H888 H 0.10968 0.69663 0.2512 0.0
H889 H 0.07276 0.65329 0.21311 0.0
H890 H 0.95096 0.78699 0.24824 0.0
H891 H 0.90942 0.7358 0.21757 0.0
H892 H 0.99653 0.80203 0.301 0.0
H893 H 0.05572 0.81002 0.31248 0.0
C894 C 0.71498 0.66685 0.76061 0.0
C895 C 0.74843 0.69741 0.72853 0.0
C896 C 0.73399 0.76652 0.75001 0.0
C897 C 0.69465 0.73284 0.7771 0.0
N898 N 0.63925 0.64649 0.79862 0.0
N899 N 0.78897 0.77615 0.69097 0.0
C900 C 0.68298 0.68183 0.77993 0.0
C901 C 0.75781 0.74737 0.7228 0.0
N902 N 0.71272 0.62293 0.77237 0.0
N903 N 0.74947 0.81666 0.7511 0.0
H904 H 0.80946 0.76435 0.67256 0.0
H905 H 0.79283 0.81049 0.6818 0.0
H906 H 0.7329 0.83165 0.77075 0.0
H907 H 0.78109 0.84373 0.73506 0.0
H908 H 0.69215 0.60209 0.79849 0.0
H909 H 0.73519 0.60987 0.75927 0.0
H910 H 0.62668 0.60806 0.79741 0.0
H911 H 0.61241 0.65445 0.81077 0.0
C912 C 0.29728 0.95722 0.73181 0.0
C913 C 0.26178 0.95222 0.76279 0.0
C914 C 0.27643 0.03653 0.74418 0.0
C915 C 0.3173 0.04391 0.71821 0.0
N916 N 0.3747 0.01499 0.69731 0.0
N917 N 0.21872 0.98789 0.80061 0.0
C918 C 0.32988 0.00522 0.71475 0.0
C919 C 0.25163 0.9922 0.76957 0.0
N920 N 0.30079 0.91657 0.71883 0.0
N921 N 0.26035 0.07077 0.74365 0.0
H922 H 0.19748 0.95465 0.81756 0.0
H923 H 0.21415 0.01772 0.81064 0.0
H924 H 0.27768 0.1034 0.72541 0.0
H925 H 0.2277 0.06499 0.75873 0.0
H926 H 0.32303 0.91804 0.69329 0.0
H927 H 0.27792 0.88029 0.73014 0.0
H928 H 0.38783 0.98955 0.69832 0.0
H929 H 0.40154 0.05034 0.68635 0.0
C930 C 0.01611 0.25463 0.76535 0.0
C931 C 0.05602 0.30483 0.75996 0.0
C932 C 0.0056 0.32072 0.71 0.0
C933 C 0.967 0.26942 0.71211 0.0
N934 N 0.93999 0.18507 0.73606 0.0
N935 N 0.09404 0.37965 0.71666 0.0
C936 C 0.97345 0.23543 0.73814 0.0
C937 C 0.05271 0.33558 0.72846 0.0
N938 N 0.0188 0.22571 0.79683 0.0
N939 N 0.99639 0.35633 0.69305 0.0
H940 H 0.12972 0.39212 0.72899 0.0
H941 H 0.09381 0.40098 0.69115 0.0
H942 H 0.96118 0.34847 0.68229 0.0
H943 H 0.02205 0.39476 0.69469 0.0
H944 H 0.98866 0.19099 0.80563 0.0
H945 H 0.0509 0.23782 0.81535 0.0
H946 H 0.94536 0.15815 0.75146 0.0
H947 H 0.9089 0.16987 0.71609 0.0
loop_
_geom_bond_atom_site_label_1
_geom_bond_atom_site_label_2
_geom_bond_distance
_geom_bond_site_symmetry_2
_ccdc_geom_bond_type
Co0 O3 1.970 . S
Co0 N17 1.989 . S
Co0 O25 1.967 . S
Co0 O32 1.920 . S
Co1 O4 1.966 . S
Co1 N10 2.022 . S
Co1 N18 1.993 . S
Co1 O26 1.941 . S
C2 O3 1.258 . S
C2 O4 1.263 . S
O3 Co0 1.970 . S
O3 C2 1.258 . S
O4 Co1 1.966 . S
O4 C2 1.263 . S
C5 O6 1.235 . S
C5 O32 1.289 . S
O6 C5 1.235 . S
C7 C9 1.400 . S
C7 N10 1.351 . S
C7 C12 1.501 . S
C8 C9 1.387 . S
C8 N11 1.341 . S
C9 C7 1.400 . S
C9 C8 1.387 . S
N10 Co1 2.022 . S
N10 C7 1.351 . S
N10 N11 1.365 . S
N11 C8 1.341 . S
N11 N10 1.365 . S
N11 H31 0.862 . S
C12 C7 1.501 . S
C12 H13 0.961 . S
C12 H14 0.961 . S
C12 H15 0.960 . S
H13 C12 0.961 . S
H14 C12 0.961 . S
H15 C12 0.960 . S
C16 N17 1.342 . S
C16 C20 1.401 . S
C16 C21 1.499 . S
N17 Co0 1.989 . S
N17 C16 1.342 . S
N17 N18 1.388 . S
N18 Co1 1.993 . S
N18 N17 1.388 . S
N18 C19 1.346 . S
C19 N18 1.346 . S
C19 C20 1.396 . S
C19 C29 1.510 . S
C20 C16 1.401 . S
C20 C19 1.396 . S
C21 C16 1.499 . S
C21 H22 0.959 . S
C21 H23 0.960 . S
C21 H24 0.961 . S
H22 C21 0.959 . S
H23 C21 0.960 . S
H24 C21 0.961 . S
O25 Co0 1.967 . S
O25 C33 1.258 . S
O26 Co1 1.941 . S
O26 C33 1.266 . S
H27 C29 0.959 . S
H28 C29 0.961 . S
C29 C19 1.510 . S
C29 H27 0.959 . S
C29 H28 0.961 . S
C29 H30 0.960 . S
H30 C29 0.960 . S
H31 N11 0.862 . S
O32 Co0 1.920 . S
O32 C5 1.289 . S
C33 O25 1.258 . S
C33 O26 1.266 . S
Co34 O37 1.970 . S
Co34 N51 1.989 . S
Co34 O59 1.967 . S
Co34 O66 1.920 . S
Co35 O38 1.966 . S
Co35 N44 2.022 . S
Co35 N52 1.993 . S
Co35 O60 1.941 . S
C36 O37 1.258 . S
C36 O38 1.263 . S
O37 Co34 1.970 . S
O37 C36 1.258 . S
O38 Co35 1.966 . S
O38 C36 1.263 . S
C39 O40 1.235 . S
C39 O66 1.289 . S
O40 C39 1.235 . S
C41 C43 1.400 . S
C41 N44 1.351 . S
C41 C46 1.501 . S
C42 C43 1.387 . S
C42 N45 1.341 . S
C43 C41 1.400 . S
C43 C42 1.387 . S
N44 Co35 2.022 . S
N44 C41 1.351 . S
N44 N45 1.365 . S
N45 C42 1.341 . S
N45 N44 1.365 . S
N45 H65 0.862 . S
C46 C41 1.501 . S
C46 H47 0.961 . S
C46 H48 0.961 . S
C46 H49 0.960 . S
H47 C46 0.961 . S
H48 C46 0.961 . S
H49 C46 0.960 . S
C50 N51 1.342 . S
C50 C54 1.401 . S
C50 C55 1.499 . S
N51 Co34 1.989 . S
N51 C50 1.342 . S
N51 N52 1.388 . S
N52 Co35 1.993 . S
N52 N51 1.388 . S
N52 C53 1.346 . S
C53 N52 1.346 . S
C53 C54 1.396 . S
C53 C63 1.510 . S
C54 C50 1.401 . S
C54 C53 1.396 . S
C55 C50 1.499 . S
C55 H56 0.959 . S
C55 H57 0.960 . S
C55 H58 0.961 . S
H56 C55 0.959 . S
H57 C55 0.960 . S
H58 C55 0.961 . S
O59 Co34 1.967 . S
O59 C67 1.258 . S
O60 Co35 1.941 . S
O60 C67 1.266 . S
H61 C63 0.959 . S
H62 C63 0.961 . S
C63 C53 1.510 . S
C63 H61 0.959 . S
C63 H62 0.961 . S
C63 H64 0.960 . S
H64 C63 0.960 . S
H65 N45 0.862 . S
O66 Co34 1.920 . S
O66 C39 1.289 . S
C67 O59 1.258 . S
C67 O60 1.266 . S
Co68 O71 1.970 . S
Co68 N85 1.989 . S
Co68 O93 1.967 . S
Co68 O100 1.920 . S
Co69 O72 1.966 . S
Co69 N78 2.022 . S
Co69 N86 1.993 . S
Co69 O94 1.941 . S
C70 O71 1.258 . S
C70 O72 1.263 . S
O71 Co68 1.970 . S
O71 C70 1.258 . S
O72 Co69 1.966 . S
O72 C70 1.263 . S
C73 O74 1.235 . S
C73 O100 1.289 . S
O74 C73 1.235 . S
C75 C77 1.400 . S
C75 N78 1.351 . S
C75 C80 1.501 . S
C76 C77 1.387 . S
C76 N79 1.341 . S
C77 C75 1.400 . S
C77 C76 1.387 . S
N78 Co69 2.022 . S
N78 C75 1.351 . S
N78 N79 1.365 . S
N79 C76 1.341 . S
N79 N78 1.365 . S
N79 H99 0.862 . S
C80 C75 1.501 . S
C80 H81 0.961 . S
C80 H82 0.961 . S
C80 H83 0.960 . S
H81 C80 0.961 . S
H82 C80 0.961 . S
H83 C80 0.960 . S
C84 N85 1.342 . S
C84 C88 1.401 . S
C84 C89 1.499 . S
N85 Co68 1.989 . S
N85 C84 1.342 . S
N85 N86 1.388 . S
N86 Co69 1.993 . S
N86 N85 1.388 . S
N86 C87 1.346 . S
C87 N86 1.346 . S
C87 C88 1.396 . S
C87 C97 1.510 . S
C88 C84 1.401 . S
C88 C87 1.396 . S
C89 C84 1.499 . S
C89 H90 0.959 . S
C89 H91 0.960 . S
C89 H92 0.961 . S
H90 C89 0.959 . S
H91 C89 0.960 . S
H92 C89 0.961 . S
O93 Co68 1.967 . S
O93 C101 1.258 . S
O94 Co69 1.941 . S
O94 C101 1.266 . S
H95 C97 0.959 . S
H96 C97 0.961 . S
C97 C87 1.510 . S
C97 H95 0.959 . S
C97 H96 0.961 . S
C97 H98 0.960 . S
H98 C97 0.960 . S
H99 N79 0.862 . S
O100 Co68 1.920 . S
O100 C73 1.289 . S
C101 O93 1.258 . S
C101 O94 1.266 . S
Co102 O105 1.970 . S
Co102 N119 1.989 . S
Co102 O127 1.967 . S
Co102 O134 1.920 . S
Co103 O106 1.966 . S
Co103 N112 2.022 . S
Co103 N120 1.993 . S
Co103 O128 1.941 . S
C104 O105 1.258 . S
C104 O106 1.263 . S
O105 Co102 1.970 . S
O105 C104 1.258 . S
O106 Co103 1.966 . S
O106 C104 1.263 . S
C107 O108 1.235 . S
C107 O134 1.289 . S
O108 C107 1.235 . S
C109 C111 1.400 . S
C109 N112 1.351 . S
C109 C114 1.501 . S
C110 C111 1.387 . S
C110 N113 1.341 . S
C111 C109 1.400 . S
C111 C110 1.387 . S
N112 Co103 2.022 . S
N112 C109 1.351 . S
N112 N113 1.365 . S
N113 C110 1.341 . S
N113 N112 1.365 . S
N113 H133 0.862 . S
C114 C109 1.501 . S
C114 H115 0.961 . S
C114 H116 0.961 . S
C114 H117 0.960 . S
H115 C114 0.961 . S
H116 C114 0.961 . S
H117 C114 0.960 . S
C118 N119 1.342 . S
C118 C122 1.401 . S
C118 C123 1.499 . S
N119 Co102 1.989 . S
N119 C118 1.342 . S
N119 N120 1.388 . S
N120 Co103 1.993 . S
N120 N119 1.388 . S
N120 C121 1.346 . S
C121 N120 1.346 . S
C121 C122 1.396 . S
C121 C131 1.510 . S
C122 C118 1.401 . S
C122 C121 1.396 . S
C123 C118 1.499 . S
C123 H124 0.959 . S
C123 H125 0.960 . S
C123 H126 0.961 . S
H124 C123 0.959 . S
H125 C123 0.960 . S
H126 C123 0.961 . S
O127 Co102 1.967 . S
O127 C135 1.258 . S
O128 Co103 1.941 . S
O128 C135 1.266 . S
H129 C131 0.959 . S
H130 C131 0.961 . S
C131 C121 1.510 . S
C131 H129 0.959 . S
C131 H130 0.961 . S
C131 H132 0.960 . S
H132 C131 0.960 . S
H133 N113 0.862 . S
O134 Co102 1.920 . S
O134 C107 1.289 . S
C135 O127 1.258 . S
C135 O128 1.266 . S
Co136 O139 1.970 . S
Co136 N153 1.989 . S
Co136 O161 1.967 . S
Co136 O168 1.920 . S
Co137 O140 1.966 . S
Co137 N146 2.022 . S
Co137 N154 1.993 . S
Co137 O162 1.941 . S
C138 O139 1.258 . S
C138 O140 1.263 . S
O139 Co136 1.970 . S
O139 C138 1.258 . S
O140 Co137 1.966 . S
O140 C138 1.263 . S
C141 O142 1.235 . S
C141 O168 1.289 . S
O142 C141 1.235 . S
C143 C145 1.400 . S
C143 N146 1.351 . S
C143 C148 1.501 . S
C144 C145 1.387 . S
C144 N147 1.341 . S
C145 C143 1.400 . S
C145 C144 1.387 . S
N146 Co137 2.022 . S
N146 C143 1.351 . S
N146 N147 1.365 . S
N147 C144 1.341 . S
N147 N146 1.365 . S
N147 H167 0.862 . S
C148 C143 1.501 . S
C148 H149 0.961 . S
C148 H150 0.961 . S
C148 H151 0.960 . S
H149 C148 0.961 . S
H150 C148 0.961 . S
H151 C148 0.960 . S
C152 N153 1.342 . S
C152 C156 1.401 . S
C152 C157 1.499 . S
N153 Co136 1.989 . S
N153 C152 1.342 . S
N153 N154 1.388 . S
N154 Co137 1.993 . S
N154 N153 1.388 . S
N154 C155 1.346 . S
C155 N154 1.346 . S
C155 C156 1.396 . S
C155 C165 1.510 . S
C156 C152 1.401 . S
C156 C155 1.396 . S
C157 C152 1.499 . S
C157 H158 0.959 . S
C157 H159 0.960 . S
C157 H160 0.961 . S
H158 C157 0.959 . S
H159 C157 0.960 . S
H160 C157 0.961 . S
O161 Co136 1.967 . S
O161 C169 1.258 . S
O162 Co137 1.941 . S
O162 C169 1.266 . S
H163 C165 0.959 . S
H164 C165 0.961 . S
C165 C155 1.510 . S
C165 H163 0.959 . S
C165 H164 0.961 . S
C165 H166 0.960 . S
H166 C165 0.960 . S
H167 N147 0.862 . S
O168 Co136 1.920 . S
O168 C141 1.289 . S
C169 O161 1.258 . S
C169 O162 1.266 . S
Co170 O173 1.970 . S
Co170 N187 1.989 . S
Co170 O195 1.967 . S
Co170 O202 1.920 . S
Co171 O174 1.966 . S
Co171 N180 2.022 . S
Co171 N188 1.993 . S
Co171 O196 1.941 . S
C172 O173 1.258 . S
C172 O174 1.263 . S
O173 Co170 1.970 . S
O173 C172 1.258 . S
O174 Co171 1.966 . S
O174 C172 1.263 . S
C175 O176 1.235 . S
C175 O202 1.289 . S
O176 C175 1.235 . S
C177 C179 1.400 . S
C177 N180 1.351 . S
C177 C182 1.501 . S
C178 C179 1.387 . S
C178 N181 1.341 . S
C179 C177 1.400 . S
C179 C178 1.387 . S
N180 Co171 2.022 . S
N180 C177 1.351 . S
N180 N181 1.365 . S
N181 C178 1.341 . S
N181 N180 1.365 . S
N181 H201 0.862 . S
C182 C177 1.501 . S
C182 H183 0.961 . S
C182 H184 0.961 . S
C182 H185 0.960 . S
H183 C182 0.961 . S
H184 C182 0.961 . S
H185 C182 0.960 . S
C186 N187 1.342 . S
C186 C190 1.401 . S
C186 C191 1.499 . S
N187 Co170 1.989 . S
N187 C186 1.342 . S
N187 N188 1.388 . S
N188 Co171 1.993 . S
N188 N187 1.388 . S
N188 C189 1.346 . S
C189 N188 1.346 . S
C189 C190 1.396 . S
C189 C199 1.510 . S
C190 C186 1.401 . S
C190 C189 1.396 . S
C191 C186 1.499 . S
C191 H192 0.959 . S
C191 H193 0.960 . S
C191 H194 0.961 . S
H192 C191 0.959 . S
H193 C191 0.960 . S
H194 C191 0.961 . S
O195 Co170 1.967 . S
O195 C203 1.258 . S
O196 Co171 1.941 . S
O196 C203 1.266 . S
H197 C199 0.959 . S
H198 C199 0.961 . S
C199 C189 1.510 . S
C199 H197 0.959 . S
C199 H198 0.961 . S
C199 H200 0.960 . S
H200 C199 0.960 . S
H201 N181 0.862 . S
O202 Co170 1.920 . S
O202 C175 1.289 . S
C203 O195 1.258 . S
C203 O196 1.266 . S
Co204 O207 1.970 . S
Co204 N221 1.989 . S
Co204 O229 1.967 . S
Co204 O236 1.920 . S
Co205 O208 1.966 . S
Co205 N214 2.022 . S
Co205 N222 1.993 . S
Co205 O230 1.941 . S
C206 O207 1.258 . S
C206 O208 1.263 . S
O207 Co204 1.970 . S
O207 C206 1.258 . S
O208 Co205 1.966 . S
O208 C206 1.263 . S
C209 O210 1.235 . S
C209 O236 1.289 . S
O210 C209 1.235 . S
C211 C213 1.400 . S
C211 N214 1.351 . S
C211 C216 1.501 . S
C212 C213 1.387 . S
C212 N215 1.341 . S
C213 C211 1.400 . S
C213 C212 1.387 . S
N214 Co205 2.022 . S
N214 C211 1.351 . S
N214 N215 1.365 . S
N215 C212 1.341 . S
N215 N214 1.365 . S
N215 H235 0.862 . S
C216 C211 1.501 . S
C216 H217 0.961 . S
C216 H218 0.961 . S
C216 H219 0.960 . S
H217 C216 0.961 . S
H218 C216 0.961 . S
H219 C216 0.960 . S
C220 N221 1.342 . S
C220 C224 1.401 . S
C220 C225 1.499 . S
N221 Co204 1.989 . S
N221 C220 1.342 . S
N221 N222 1.388 . S
N222 Co205 1.993 . S
N222 N221 1.388 . S
N222 C223 1.346 . S
C223 N222 1.346 . S
C223 C224 1.396 . S
C223 C233 1.510 . S
C224 C220 1.401 . S
C224 C223 1.396 . S
C225 C220 1.499 . S
C225 H226 0.959 . S
C225 H227 0.960 . S
C225 H228 0.961 . S
H226 C225 0.959 . S
H227 C225 0.960 . S
H228 C225 0.961 . S
O229 Co204 1.967 . S
O229 C237 1.258 . S
O230 Co205 1.941 . S
O230 C237 1.266 . S
H231 C233 0.959 . S
H232 C233 0.961 . S
C233 C223 1.510 . S
C233 H231 0.959 . S
C233 H232 0.961 . S
C233 H234 0.960 . S
H234 C233 0.960 . S
H235 N215 0.862 . S
O236 Co204 1.920 . S
O236 C209 1.289 . S
C237 O229 1.258 . S
C237 O230 1.266 . S
Co238 O241 1.970 . S
Co238 N255 1.989 . S
Co238 O263 1.967 . S
Co238 O270 1.920 . S
Co239 O242 1.966 . S
Co239 N248 2.022 . S
Co239 N256 1.993 . S
Co239 O264 1.941 . S
C240 O241 1.258 . S
C240 O242 1.263 . S
O241 Co238 1.970 . S
O241 C240 1.258 . S
O242 Co239 1.966 . S
O242 C240 1.263 . S
C243 O244 1.235 . S
C243 O270 1.289 . S
O244 C243 1.235 . S
C245 C247 1.400 . S
C245 N248 1.351 . S
C245 C250 1.501 . S
C246 C247 1.387 . S
C246 N249 1.341 . S
C247 C245 1.400 . S
C247 C246 1.387 . S
N248 Co239 2.022 . S
N248 C245 1.351 . S
N248 N249 1.365 . S
N249 C246 1.341 . S
N249 N248 1.365 . S
N249 H269 0.862 . S
C250 C245 1.501 . S
C250 H251 0.961 . S
C250 H252 0.961 . S
C250 H253 0.960 . S
H251 C250 0.961 . S
H252 C250 0.961 . S
H253 C250 0.960 . S
C254 N255 1.342 . S
C254 C258 1.401 . S
C254 C259 1.499 . S
N255 Co238 1.989 . S
N255 C254 1.342 . S
N255 N256 1.388 . S
N256 Co239 1.993 . S
N256 N255 1.388 . S
N256 C257 1.346 . S
C257 N256 1.346 . S
C257 C258 1.396 . S
C257 C267 1.510 . S
C258 C254 1.401 . S
C258 C257 1.396 . S
C259 C254 1.499 . S
C259 H260 0.959 . S
C259 H261 0.960 . S
C259 H262 0.961 . S
H260 C259 0.959 . S
H261 C259 0.960 . S
H262 C259 0.961 . S
O263 Co238 1.967 . S
O263 C271 1.258 . S
O264 Co239 1.941 . S
O264 C271 1.266 . S
H265 C267 0.959 . S
H266 C267 0.961 . S
C267 C257 1.510 . S
C267 H265 0.959 . S
C267 H266 0.961 . S
C267 H268 0.960 . S
H268 C267 0.960 . S
H269 N249 0.862 . S
O270 Co238 1.920 . S
O270 C243 1.289 . S
C271 O263 1.258 . S
C271 O264 1.266 . S
Co272 O275 1.970 . S
Co272 N289 1.989 . S
Co272 O297 1.967 . S
Co272 O304 1.920 . S
Co273 O276 1.966 . S
Co273 N282 2.022 . S
Co273 N290 1.993 . S
Co273 O298 1.941 . S
C274 O275 1.258 . S
C274 O276 1.263 . S
O275 Co272 1.970 . S
O275 C274 1.258 . S
O276 Co273 1.966 . S
O276 C274 1.263 . S
C277 O278 1.235 . S
C277 O304 1.289 . S
O278 C277 1.235 . S
C279 C281 1.400 . S
C279 N282 1.351 . S
C279 C284 1.501 . S
C280 C281 1.387 . S
C280 N283 1.341 . S
C281 C279 1.400 . S
C281 C280 1.387 . S
N282 Co273 2.022 . S
N282 C279 1.351 . S
N282 N283 1.365 . S
N283 C280 1.341 . S
N283 N282 1.365 . S
N283 H303 0.862 . S
C284 C279 1.501 . S
C284 H285 0.961 . S
C284 H286 0.961 . S
C284 H287 0.960 . S
H285 C284 0.961 . S
H286 C284 0.961 . S
H287 C284 0.960 . S
C288 N289 1.342 . S
C288 C292 1.401 . S
C288 C293 1.499 . S
N289 Co272 1.989 . S
N289 C288 1.342 . S
N289 N290 1.388 . S
N290 Co273 1.993 . S
N290 N289 1.388 . S
N290 C291 1.346 . S
C291 N290 1.346 . S
C291 C292 1.396 . S
C291 C301 1.510 . S
C292 C288 1.401 . S
C292 C291 1.396 . S
C293 C288 1.499 . S
C293 H294 0.959 . S
C293 H295 0.960 . S
C293 H296 0.961 . S
H294 C293 0.959 . S
H295 C293 0.960 . S
H296 C293 0.961 . S
O297 Co272 1.967 . S
O297 C305 1.258 . S
O298 Co273 1.941 . S
O298 C305 1.266 . S
H299 C301 0.959 . S
H300 C301 0.961 . S
C301 C291 1.510 . S
C301 H299 0.959 . S
C301 H300 0.961 . S
C301 H302 0.960 . S
H302 C301 0.960 . S
H303 N283 0.862 . S
O304 Co272 1.920 . S
O304 C277 1.289 . S
C305 O297 1.258 . S
C305 O298 1.266 . S
Co306 O309 1.970 . S
Co306 N323 1.989 . S
Co306 O331 1.967 . S
Co306 O338 1.920 . S
Co307 O310 1.966 . S
Co307 N316 2.022 . S
Co307 N324 1.993 . S
Co307 O332 1.941 . S
C308 O309 1.258 . S
C308 O310 1.263 . S
O309 Co306 1.970 . S
O309 C308 1.258 . S
O310 Co307 1.966 . S
O310 C308 1.263 . S
C311 O312 1.235 . S
C311 O338 1.289 . S
O312 C311 1.235 . S
C313 C315 1.400 . S
C313 N316 1.351 . S
C313 C318 1.501 . S
C314 C315 1.387 . S
C314 N317 1.341 . S
C315 C313 1.400 . S
C315 C314 1.387 . S
N316 Co307 2.022 . S
N316 C313 1.351 . S
N316 N317 1.365 . S
N317 C314 1.341 . S
N317 N316 1.365 . S
N317 H337 0.862 . S
C318 C313 1.501 . S
C318 H319 0.961 . S
C318 H320 0.961 . S
C318 H321 0.960 . S
H319 C318 0.961 . S
H320 C318 0.961 . S
H321 C318 0.960 . S
C322 N323 1.342 . S
C322 C326 1.401 . S
C322 C327 1.499 . S
N323 Co306 1.989 . S
N323 C322 1.342 . S
N323 N324 1.388 . S
N324 Co307 1.993 . S
N324 N323 1.388 . S
N324 C325 1.346 . S
C325 N324 1.346 . S
C325 C326 1.396 . S
C325 C335 1.510 . S
C326 C322 1.401 . S
C326 C325 1.396 . S
C327 C322 1.499 . S
C327 H328 0.959 . S
C327 H329 0.960 . S
C327 H330 0.961 . S
H328 C327 0.959 . S
H329 C327 0.960 . S
H330 C327 0.961 . S
O331 Co306 1.967 . S
O331 C339 1.258 . S
O332 Co307 1.941 . S
O332 C339 1.266 . S
H333 C335 0.959 . S
H334 C335 0.961 . S
C335 C325 1.510 . S
C335 H333 0.959 . S
C335 H334 0.961 . S
C335 H336 0.960 . S
H336 C335 0.960 . S
H337 N317 0.862 . S
O338 Co306 1.920 . S
O338 C311 1.289 . S
C339 O331 1.258 . S
C339 O332 1.266 . S
Co340 O343 1.970 . S
Co340 N357 1.989 . S
Co340 O365 1.967 . S
Co340 O372 1.920 . S
Co341 O344 1.966 . S
Co341 N350 2.022 . S
Co341 N358 1.993 . S
Co341 O366 1.941 . S
C342 O343 1.258 . S
C342 O344 1.263 . S
O343 Co340 1.970 . S
O343 C342 1.258 . S
O344 Co341 1.966 . S
O344 C342 1.263 . S
C345 O346 1.235 . S
C345 O372 1.289 . S
O346 C345 1.235 . S
C347 C349 1.400 . S
C347 N350 1.351 . S
C347 C352 1.501 . S
C348 C349 1.387 . S
C348 N351 1.341 . S
C349 C347 1.400 . S
C349 C348 1.387 . S
N350 Co341 2.022 . S
N350 C347 1.351 . S
N350 N351 1.365 . S
N351 C348 1.341 . S
N351 N350 1.365 . S
N351 H371 0.862 . S
C352 C347 1.501 . S
C352 H353 0.961 . S
C352 H354 0.961 . S
C352 H355 0.960 . S
H353 C352 0.961 . S
H354 C352 0.961 . S
H355 C352 0.960 . S
C356 N357 1.342 . S
C356 C360 1.401 . S
C356 C361 1.499 . S
N357 Co340 1.989 . S
N357 C356 1.342 . S
N357 N358 1.388 . S
N358 Co341 1.993 . S
N358 N357 1.388 . S
N358 C359 1.346 . S
C359 N358 1.346 . S
C359 C360 1.396 . S
C359 C369 1.510 . S
C360 C356 1.401 . S
C360 C359 1.396 . S
C361 C356 1.499 . S
C361 H362 0.959 . S
C361 H363 0.960 . S
C361 H364 0.961 . S
H362 C361 0.959 . S
H363 C361 0.960 . S
H364 C361 0.961 . S
O365 Co340 1.967 . S
O365 C373 1.258 . S
O366 Co341 1.941 . S
O366 C373 1.266 . S
H367 C369 0.959 . S
H368 C369 0.961 . S
C369 C359 1.510 . S
C369 H367 0.959 . S
C369 H368 0.961 . S
C369 H370 0.960 . S
H370 C369 0.960 . S
H371 N351 0.862 . S
O372 Co340 1.920 . S
O372 C345 1.289 . S
C373 O365 1.258 . S
C373 O366 1.266 . S
Co374 O377 1.970 . S
Co374 N391 1.989 . S
Co374 O399 1.967 . S
Co374 O406 1.920 . S
Co375 O378 1.966 . S
Co375 N384 2.022 . S
Co375 N392 1.993 . S
Co375 O400 1.941 . S
C376 O377 1.258 . S
C376 O378 1.263 . S
O377 Co374 1.970 . S
O377 C376 1.258 . S
O378 Co375 1.966 . S
O378 C376 1.263 . S
C379 O380 1.235 . S
C379 O406 1.289 . S
O380 C379 1.235 . S
C381 C383 1.400 . S
C381 N384 1.351 . S
C381 C386 1.501 . S
C382 C383 1.387 . S
C382 N385 1.341 . S
C383 C381 1.400 . S
C383 C382 1.387 . S
N384 Co375 2.022 . S
N384 C381 1.351 . S
N384 N385 1.365 . S
N385 C382 1.341 . S
N385 N384 1.365 . S
N385 H405 0.862 . S
C386 C381 1.501 . S
C386 H387 0.961 . S
C386 H388 0.961 . S
C386 H389 0.960 . S
H387 C386 0.961 . S
H388 C386 0.961 . S
H389 C386 0.960 . S
C390 N391 1.342 . S
C390 C394 1.401 . S
C390 C395 1.499 . S
N391 Co374 1.989 . S
N391 C390 1.342 . S
N391 N392 1.388 . S
N392 Co375 1.993 . S
N392 N391 1.388 . S
N392 C393 1.346 . S
C393 N392 1.346 . S
C393 C394 1.396 . S
C393 C403 1.510 . S
C394 C390 1.401 . S
C394 C393 1.396 . S
C395 C390 1.499 . S
C395 H396 0.959 . S
C395 H397 0.960 . S
C395 H398 0.961 . S
H396 C395 0.959 . S
H397 C395 0.960 . S
H398 C395 0.961 . S
O399 Co374 1.967 . S
O399 C407 1.258 . S
O400 Co375 1.941 . S
O400 C407 1.266 . S
H401 C403 0.959 . S
H402 C403 0.961 . S
C403 C393 1.510 . S
C403 H401 0.959 . S
C403 H402 0.961 . S
C403 H404 0.960 . S
H404 C403 0.960 . S
H405 N385 0.862 . S
O406 Co374 1.920 . S
O406 C379 1.289 . S
C407 O399 1.258 . S
C407 O400 1.266 . S
C408 C409 1.363 . S
C408 C414 1.379 . S
C408 N416 1.356 . S
C409 C408 1.363 . S
C409 C415 1.363 . S
C410 C411 1.363 . S
C410 C415 1.379 . S
C410 N417 1.356 . S
C411 C410 1.363 . S
C411 C414 1.363 . S
N412 C414 1.356 . S
N412 H424 0.984 . S
N412 H425 0.985 . S
N413 C415 1.356 . S
N413 H418 0.984 . S
N413 H419 0.985 . S
C414 C408 1.379 . S
C414 C411 1.363 . S
C414 N412 1.356 . S
C415 C409 1.363 . S
C415 C410 1.379 . S
C415 N413 1.356 . S
N416 C408 1.356 . S
N416 H422 0.984 . S
N416 H423 0.984 . S
N417 C410 1.356 . S
N417 H420 0.984 . S
N417 H421 0.985 . S
H418 N413 0.984 . S
H419 N413 0.985 . S
H420 N417 0.984 . S
H421 N417 0.985 . S
H422 N416 0.984 . S
H423 N416 0.984 . S
H424 N412 0.984 . S
H425 N412 0.985 . S
C426 C427 1.363 . S
C426 C432 1.379 . S
C426 N434 1.356 . S
C427 C426 1.363 . S
C427 C433 1.363 . S
C428 C429 1.363 . S
C428 C433 1.379 . S
C428 N435 1.356 . S
C429 C428 1.363 . S
C429 C432 1.363 . S
N430 C432 1.356 . S
N430 H442 0.984 . S
N430 H443 0.985 . S
N431 C433 1.356 . S
N431 H436 0.984 . S
N431 H437 0.985 . S
C432 C426 1.379 . S
C432 C429 1.363 . S
C432 N430 1.356 . S
C433 C427 1.363 . S
C433 C428 1.379 . S
C433 N431 1.356 . S
N434 C426 1.356 . S
N434 H440 0.984 . S
N434 H441 0.984 . S
N435 C428 1.356 . S
N435 H438 0.984 . S
N435 H439 0.985 . S
H436 N431 0.984 . S
H437 N431 0.985 . S
H438 N435 0.984 . S
H439 N435 0.985 . S
H440 N434 0.984 . S
H441 N434 0.984 . S
H442 N430 0.984 . S
H443 N430 0.985 . S
C444 C445 1.363 . S
C444 C450 1.379 . S
C444 N452 1.356 . S
C445 C444 1.363 . S
C445 C451 1.363 . S
C446 C447 1.363 . S
C446 C451 1.379 . S
C446 N453 1.356 . S
C447 C446 1.363 . S
C447 C450 1.363 . S
N448 C450 1.356 . S
N448 H460 0.984 . S
N448 H461 0.985 . S
N449 C451 1.356 . S
N449 H454 0.984 . S
N449 H455 0.985 . S
C450 C444 1.379 . S
C450 C447 1.363 . S
C450 N448 1.356 . S
C451 C445 1.363 . S
C451 C446 1.379 . S
C451 N449 1.356 . S
N452 C444 1.356 . S
N452 H458 0.984 . S
N452 H459 0.984 . S
N453 C446 1.356 . S
N453 H456 0.984 . S
N453 H457 0.985 . S
H454 N449 0.984 . S
H455 N449 0.985 . S
H456 N453 0.984 . S
H457 N453 0.985 . S
H458 N452 0.984 . S
H459 N452 0.984 . S
H460 N448 0.984 . S
H461 N448 0.985 . S
C462 C463 1.363 . S
C462 C468 1.379 . S
C462 N470 1.356 . S
C463 C462 1.363 . S
C463 C469 1.363 . S
C464 C465 1.363 . S
C464 C469 1.379 . S
C464 N471 1.356 . S
C465 C464 1.363 . S
C465 C468 1.363 . S
N466 C468 1.356 . S
N466 H478 0.984 . S
N466 H479 0.985 . S
N467 C469 1.356 . S
N467 H472 0.984 . S
N467 H473 0.985 . S
C468 C462 1.379 . S
C468 C465 1.363 . S
C468 N466 1.356 . S
C469 C463 1.363 . S
C469 C464 1.379 . S
C469 N467 1.356 . S
N470 C462 1.356 . S
N470 H476 0.984 . S
N470 H477 0.984 . S
N471 C464 1.356 . S
N471 H474 0.984 . S
N471 H475 0.985 . S
H472 N467 0.984 . S
H473 N467 0.985 . S
H474 N471 0.984 . S
H475 N471 0.985 . S
H476 N470 0.984 . S
H477 N470 0.984 . S
H478 N466 0.984 . S
H479 N466 0.985 . S
C480 C481 1.363 . S
C480 C486 1.379 . S
C480 N488 1.356 . S
C481 C480 1.363 . S
C481 C487 1.363 . S
C482 C483 1.363 . S
C482 C487 1.379 . S
C482 N489 1.356 . S
C483 C482 1.363 . S
C483 C486 1.363 . S
N484 C486 1.356 . S
N484 H496 0.984 . S
N484 H497 0.985 . S
N485 C487 1.356 . S
N485 H490 0.984 . S
N485 H491 0.985 . S
C486 C480 1.379 . S
C486 C483 1.363 . S
C486 N484 1.356 . S
C487 C481 1.363 . S
C487 C482 1.379 . S
C487 N485 1.356 . S
N488 C480 1.356 . S
N488 H494 0.984 . S
N488 H495 0.984 . S
N489 C482 1.356 . S
N489 H492 0.984 . S
N489 H493 0.985 . S
H490 N485 0.984 . S
H491 N485 0.985 . S
H492 N489 0.984 . S
H493 N489 0.985 . S
H494 N488 0.984 . S
H495 N488 0.984 . S
H496 N484 0.984 . S
H497 N484 0.985 . S
C498 C499 1.363 . S
C498 C504 1.379 . S
C498 N506 1.356 . S
C499 C498 1.363 . S
C499 C505 1.363 . S
C500 C501 1.363 . S
C500 C505 1.379 . S
C500 N507 1.356 . S
C501 C500 1.363 . S
C501 C504 1.363 . S
N502 C504 1.356 . S
N502 H514 0.984 . S
N502 H515 0.985 . S
N503 C505 1.356 . S
N503 H508 0.984 . S
N503 H509 0.985 . S
C504 C498 1.379 . S
C504 C501 1.363 . S
C504 N502 1.356 . S
C505 C499 1.363 . S
C505 C500 1.379 . S
C505 N503 1.356 . S
N506 C498 1.356 . S
N506 H512 0.984 . S
N506 H513 0.984 . S
N507 C500 1.356 . S
N507 H510 0.984 . S
N507 H511 0.985 . S
H508 N503 0.984 . S
H509 N503 0.985 . S
H510 N507 0.984 . S
H511 N507 0.985 . S
H512 N506 0.984 . S
H513 N506 0.984 . S
H514 N502 0.984 . S
H515 N502 0.985 . S
C516 C517 1.363 . S
C516 C522 1.379 . S
C516 N524 1.356 . S
C517 C516 1.363 . S
C517 C523 1.363 . S
C518 C519 1.363 . S
C518 C523 1.379 . S
C518 N525 1.356 . S
C519 C518 1.363 . S
C519 C522 1.363 . S
N520 C522 1.356 . S
N520 H532 0.984 . S
N520 H533 0.985 . S
N521 C523 1.356 . S
N521 H526 0.984 . S
N521 H527 0.985 . S
C522 C516 1.379 . S
C522 C519 1.363 . S
C522 N520 1.356 . S
C523 C517 1.363 . S
C523 C518 1.379 . S
C523 N521 1.356 . S
N524 C516 1.356 . S
N524 H530 0.984 . S
N524 H531 0.984 . S
N525 C518 1.356 . S
N525 H528 0.984 . S
N525 H529 0.985 . S
H526 N521 0.984 . S
H527 N521 0.985 . S
H528 N525 0.984 . S
H529 N525 0.985 . S
H530 N524 0.984 . S
H531 N524 0.984 . S
H532 N520 0.984 . S
H533 N520 0.985 . S
C534 C535 1.363 . S
C534 C540 1.379 . S
C534 N542 1.356 . S
C535 C534 1.363 . S
C535 C541 1.363 . S
C536 C537 1.363 . S
C536 C541 1.379 . S
C536 N543 1.356 . S
C537 C536 1.363 . S
C537 C540 1.363 . S
N538 C540 1.356 . S
N538 H550 0.984 . S
N538 H551 0.985 . S
N539 C541 1.356 . S
N539 H544 0.984 . S
N539 H545 0.985 . S
C540 C534 1.379 . S
C540 C537 1.363 . S
C540 N538 1.356 . S
C541 C535 1.363 . S
C541 C536 1.379 . S
C541 N539 1.356 . S
N542 C534 1.356 . S
N542 H548 0.984 . S
N542 H549 0.984 . S
N543 C536 1.356 . S
N543 H546 0.984 . S
N543 H547 0.985 . S
H544 N539 0.984 . S
H545 N539 0.985 . S
H546 N543 0.984 . S
H547 N543 0.985 . S
H548 N542 0.984 . S
H549 N542 0.984 . S
H550 N538 0.984 . S
H551 N538 0.985 . S
C552 C553 1.363 . S
C552 C558 1.379 . S
C552 N560 1.356 . S
C553 C552 1.363 . S
C553 C559 1.363 . S
C554 C555 1.363 . S
C554 C559 1.379 . S
C554 N561 1.356 . S
C555 C554 1.363 . S
C555 C558 1.363 . S
N556 C558 1.356 . S
N556 H568 0.984 . S
N556 H569 0.985 . S
N557 C559 1.356 . S
N557 H562 0.984 . S
N557 H563 0.985 . S
C558 C552 1.379 . S
C558 C555 1.363 . S
C558 N556 1.356 . S
C559 C553 1.363 . S
C559 C554 1.379 . S
C559 N557 1.356 . S
N560 C552 1.356 . S
N560 H566 0.984 . S
N560 H567 0.984 . S
N561 C554 1.356 . S
N561 H564 0.984 . S
N561 H565 0.985 . S
H562 N557 0.984 . S
H563 N557 0.985 . S
H564 N561 0.984 . S
H565 N561 0.985 . S
H566 N560 0.984 . S
H567 N560 0.984 . S
H568 N556 0.984 . S
H569 N556 0.985 . S
C570 C571 1.363 . S
C570 C576 1.379 . S
C570 N578 1.356 . S
C571 C570 1.363 . S
C571 C577 1.363 . S
C572 C573 1.363 . S
C572 C577 1.379 . S
C572 N579 1.356 . S
C573 C572 1.363 . S
C573 C576 1.363 . S
N574 C576 1.356 . S
N574 H586 0.984 . S
N574 H587 0.985 . S
N575 C577 1.356 . S
N575 H580 0.984 . S
N575 H581 0.985 . S
C576 C570 1.379 . S
C576 C573 1.363 . S
C576 N574 1.356 . S
C577 C571 1.363 . S
C577 C572 1.379 . S
C577 N575 1.356 . S
N578 C570 1.356 . S
N578 H584 0.984 . S
N578 H585 0.984 . S
N579 C572 1.356 . S
N579 H582 0.984 . S
N579 H583 0.985 . S
H580 N575 0.984 . S
H581 N575 0.985 . S
H582 N579 0.984 . S
H583 N579 0.985 . S
H584 N578 0.984 . S
H585 N578 0.984 . S
H586 N574 0.984 . S
H587 N574 0.985 . S
C588 C589 1.363 . S
C588 C594 1.379 . S
C588 N596 1.356 . S
C589 C588 1.363 . S
C589 C595 1.363 . S
C590 C591 1.363 . S
C590 C595 1.379 . S
C590 N597 1.356 . S
C591 C590 1.363 . S
C591 C594 1.363 . S
N592 C594 1.356 . S
N592 H604 0.984 . S
N592 H605 0.985 . S
N593 C595 1.356 . S
N593 H598 0.984 . S
N593 H599 0.985 . S
C594 C588 1.379 . S
C594 C591 1.363 . S
C594 N592 1.356 . S
C595 C589 1.363 . S
C595 C590 1.379 . S
C595 N593 1.356 . S
N596 C588 1.356 . S
N596 H602 0.984 . S
N596 H603 0.984 . S
N597 C590 1.356 . S
N597 H600 0.984 . S
N597 H601 0.985 . S
H598 N593 0.984 . S
H599 N593 0.985 . S
H600 N597 0.984 . S
H601 N597 0.985 . S
H602 N596 0.984 . S
H603 N596 0.984 . S
H604 N592 0.984 . S
H605 N592 0.985 . S
C606 C607 1.363 . S
C606 C612 1.379 . S
C606 N614 1.356 . S
C607 C606 1.363 . S
C607 C613 1.363 . S
C608 C609 1.363 . S
C608 C613 1.379 . S
C608 N615 1.356 . S
C609 C608 1.363 . S
C609 C612 1.363 . S
N610 C612 1.356 . S
N610 H622 0.984 . S
N610 H623 0.985 . S
N611 C613 1.356 . S
N611 H616 0.984 . S
N611 H617 0.985 . S
C612 C606 1.379 . S
C612 C609 1.363 . S
C612 N610 1.356 . S
C613 C607 1.363 . S
C613 C608 1.379 . S
C613 N611 1.356 . S
N614 C606 1.356 . S
N614 H620 0.984 . S
N614 H621 0.984 . S
N615 C608 1.356 . S
N615 H618 0.984 . S
N615 H619 0.985 . S
H616 N611 0.984 . S
H617 N611 0.985 . S
H618 N615 0.984 . S
H619 N615 0.985 . S
H620 N614 0.984 . S
H621 N614 0.984 . S
H622 N610 0.984 . S
H623 N610 0.985 . S
C624 C625 1.363 . S
C624 C630 1.379 1_545 S
C624 N632 1.356 . S
C625 C624 1.363 . S
C625 C631 1.363 . S
C626 C627 1.363 . S
C626 C631 1.379 1_556 S
C626 N633 1.356 . S
C627 C626 1.363 . S
C627 C630 1.363 1_546 S
N628 C630 1.354 1_556 S
N628 H640 0.979 1_556 S
N628 H641 0.992 . S
N629 C631 1.356 . S
N629 H634 0.984 . S
N629 H635 0.985 . S
C630 C624 1.379 1_565 S
C630 C627 1.363 1_564 S
C630 N628 1.354 1_554 S
C631 C625 1.363 . S
C631 C626 1.379 1_554 S
C631 N629 1.356 . S
N632 C624 1.356 . S
N632 H638 0.984 1_545 S
N632 H639 0.984 . S
N633 C626 1.356 . S
N633 H636 0.984 . S
N633 H637 0.985 . S
H634 N629 0.984 . S
H635 N629 0.985 . S
H636 N633 0.984 . S
H637 N633 0.985 . S
H638 N632 0.984 1_565 S
H639 N632 0.984 . S
H640 N628 0.979 1_554 S
H641 N628 0.992 . S
C642 C643 1.363 . S
C642 C648 1.388 1_655 S
C642 N650 1.356 . S
C643 C642 1.363 . S
C643 C649 1.363 . S
C644 C645 1.363 . S
C644 C649 1.379 1_556 S
C644 N651 1.356 . S
C645 C644 1.363 . S
C645 C648 1.357 1_656 S
N646 C648 1.351 1_556 S
N646 H658 0.984 . S
N646 H659 0.985 . S
N647 C649 1.356 . S
N647 H652 0.984 . S
N647 H653 0.985 . S
C648 C642 1.388 1_455 S
C648 C645 1.357 1_454 S
C648 N646 1.351 1_554 S
C649 C643 1.363 . S
C649 C644 1.379 1_554 S
C649 N647 1.356 . S
N650 C642 1.356 . S
N650 H656 0.984 . S
N650 H657 0.984 . S
N651 C644 1.356 . S
N651 H654 0.984 . S
N651 H655 0.985 . S
H652 N647 0.984 . S
H653 N647 0.985 . S
H654 N651 0.984 . S
H655 N651 0.985 . S
H656 N650 0.984 . S
H657 N650 0.984 . S
H658 N646 0.984 . S
H659 N646 0.985 . S
C660 C661 1.363 . S
C660 C666 1.379 . S
C660 N668 1.356 . S
C661 C660 1.363 . S
C661 C667 1.363 . S
C662 C663 1.363 . S
C662 C667 1.379 1_556 S
C662 N669 1.356 . S
C663 C662 1.363 . S
C663 C666 1.363 1_556 S
N664 C666 1.355 1_556 S
N664 H676 0.982 1_556 S
N664 H677 0.988 . S
N665 C667 1.356 . S
N665 H670 0.984 . S
N665 H671 0.985 . S
C666 C660 1.379 . S
C666 C663 1.363 1_554 S
C666 N664 1.355 1_554 S
C667 C661 1.363 . S
C667 C662 1.379 1_554 S
C667 N665 1.356 . S
N668 C660 1.356 . S
N668 H674 0.984 . S
N668 H675 0.984 . S
N669 C662 1.356 . S
N669 H672 0.984 . S
N669 H673 0.985 . S
H670 N665 0.984 . S
H671 N665 0.985 . S
H672 N669 0.984 . S
H673 N669 0.985 . S
H674 N668 0.984 . S
H675 N668 0.984 . S
H676 N664 0.982 1_554 S
H677 N664 0.988 . S
C678 C679 1.363 . S
C678 C684 1.379 . S
C678 N686 1.356 1_455 S
C679 C678 1.363 . S
C679 C685 1.363 . S
C680 C681 1.363 . S
C680 C685 1.379 . S
C680 N687 1.356 . S
C681 C680 1.363 . S
C681 C684 1.363 . S
N682 C684 1.356 . S
N682 H694 0.984 . S
N682 H695 0.985 . S
N683 C685 1.356 1_655 S
N683 H688 0.984 . S
N683 H689 0.970 1_655 S
C684 C678 1.379 . S
C684 C681 1.363 . S
C684 N682 1.356 . S
C685 C679 1.363 . S
C685 C680 1.379 . S
C685 N683 1.356 1_455 S
N686 C678 1.356 1_655 S
N686 H692 0.978 . S
N686 H693 0.984 . S
N687 C680 1.356 . S
N687 H690 0.984 . S
N687 H691 0.985 . S
H688 N683 0.984 . S
H689 N683 0.970 1_455 S
H690 N687 0.984 . S
H691 N687 0.985 . S
H692 N686 0.978 . S
H693 N686 0.984 . S
H694 N682 0.984 . S
H695 N682 0.985 . S
C696 C697 1.363 . S
C696 C702 1.379 . S
C696 N704 1.356 . S
C697 C696 1.363 . S
C697 C703 1.363 . S
C698 C699 1.363 . S
C698 C703 1.379 . S
C698 N705 1.356 . S
C699 C698 1.363 . S
C699 C702 1.363 . S
N700 C702 1.356 . S
N700 H712 0.984 . S
N700 H713 0.985 . S
N701 C703 1.356 . S
N701 H706 0.984 . S
N701 H707 0.985 . S
C702 C696 1.379 . S
C702 C699 1.363 . S
C702 N700 1.356 . S
C703 C697 1.363 . S
C703 C698 1.379 . S
C703 N701 1.356 . S
N704 C696 1.356 . S
N704 H710 0.984 . S
N704 H711 0.984 . S
N705 C698 1.356 . S
N705 H708 0.984 . S
N705 H709 0.985 . S
H706 N701 0.984 . S
H707 N701 0.985 . S
H708 N705 0.984 . S
H709 N705 0.985 . S
H710 N704 0.984 . S
H711 N704 0.984 . S
H712 N700 0.984 . S
H713 N700 0.985 . S
C714 C715 1.363 . S
C714 C720 1.379 . S
C714 N722 1.356 . S
C715 C714 1.363 . S
C715 C721 1.363 . S
C716 C717 1.363 . S
C716 C721 1.379 . S
C716 N723 1.356 . S
C717 C716 1.363 . S
C717 C720 1.363 . S
N718 C720 1.356 . S
N718 H730 0.984 . S
N718 H731 0.985 . S
N719 C721 1.356 1_545 S
N719 H724 0.984 . S
N719 H725 0.985 . S
C720 C714 1.379 . S
C720 C717 1.363 . S
C720 N718 1.356 . S
C721 C715 1.363 . S
C721 C716 1.379 . S
C721 N719 1.356 1_565 S
N722 C714 1.356 . S
N722 H728 0.984 . S
N722 H729 0.984 1_565 S
N723 C716 1.356 . S
N723 H726 0.984 . S
N723 H727 0.985 . S
H724 N719 0.984 . S
H725 N719 0.985 . S
H726 N723 0.984 . S
H727 N723 0.985 . S
H728 N722 0.984 . S
H729 N722 0.984 1_545 S
H730 N718 0.984 . S
H731 N718 0.985 . S
C732 C733 1.363 . S
C732 C738 1.379 1_554 S
C732 N740 1.356 . S
C733 C732 1.363 . S
C733 C739 1.363 1_564 S
C734 C735 1.363 . S
C734 C739 1.379 1_565 S
C734 N741 1.356 1_565 S
C735 C734 1.363 . S
C735 C738 1.363 . S
N736 C738 1.356 . S
N736 H748 0.987 . S
N736 H749 0.985 . S
N737 C739 1.356 . S
N737 H742 0.984 1_556 S
N737 H743 0.985 . S
C738 C732 1.379 1_556 S
C738 C735 1.363 . S
C738 N736 1.356 . S
C739 C733 1.363 1_546 S
C739 C734 1.379 1_545 S
C739 N737 1.356 . S
N740 C732 1.356 . S
N740 H746 0.984 . S
N740 H747 0.984 . S
N741 C734 1.356 1_545 S
N741 H744 0.984 1_545 S
N741 H745 0.985 . S
H742 N737 0.984 1_554 S
H743 N737 0.985 . S
H744 N741 0.984 1_565 S
H745 N741 0.985 . S
H746 N740 0.984 . S
H747 N740 0.984 . S
H748 N736 0.987 . S
H749 N736 0.985 . S
C750 C751 1.363 . S
C750 C756 1.379 1_554 S
C750 N758 1.356 . S
C751 C750 1.363 . S
C751 C757 1.354 1_455 S
C752 C753 1.363 . S
C752 C757 1.371 1_456 S
C752 N759 1.356 . S
C753 C752 1.363 . S
C753 C756 1.363 . S
N754 C756 1.356 . S
N754 H766 0.984 . S
N754 H767 0.985 . S
N755 C757 1.372 . S
N755 H760 0.984 . S
N755 H761 0.985 . S
C756 C750 1.379 1_556 S
C756 C753 1.363 . S
C756 N754 1.356 . S
C757 C751 1.354 1_655 S
C757 C752 1.371 1_654 S
C757 N755 1.372 . S
N758 C750 1.356 . S
N758 H764 0.984 . S
N758 H765 0.984 . S
N759 C752 1.356 . S
N759 H762 0.984 . S
N759 H763 0.985 . S
H760 N755 0.984 . S
H761 N755 0.985 . S
H762 N759 0.984 . S
H763 N759 0.985 . S
H764 N758 0.984 . S
H765 N758 0.984 . S
H766 N754 0.984 . S
H767 N754 0.985 . S
C768 C769 1.363 . S
C768 C774 1.379 1_556 S
C768 N776 1.356 . S
C769 C768 1.363 . S
C769 C775 1.363 . S
C770 C771 1.363 1_556 S
C770 C775 1.379 . S
C770 N777 1.356 1_556 S
C771 C770 1.363 1_554 S
C771 C774 1.363 . S
N772 C774 1.356 . S
N772 H784 0.984 . S
N772 H785 0.985 . S
N773 C775 1.356 . S
N773 H778 0.984 . S
N773 H779 0.985 . S
C774 C768 1.379 1_554 S
C774 C771 1.363 . S
C774 N772 1.356 . S
C775 C769 1.363 . S
C775 C770 1.379 . S
C775 N773 1.356 . S
N776 C768 1.356 . S
N776 H782 0.984 . S
N776 H783 0.984 . S
N777 C770 1.356 1_554 S
N777 H780 0.984 . S
N777 H781 0.985 . S
H778 N773 0.984 . S
H779 N773 0.985 . S
H780 N777 0.984 . S
H781 N777 0.985 . S
H782 N776 0.984 . S
H783 N776 0.984 . S
H784 N772 0.984 . S
H785 N772 0.985 . S
C786 C787 1.363 . S
C786 C792 1.379 . S
C786 N794 1.356 . S
C787 C786 1.363 . S
C787 C793 1.363 1_655 S
C788 C789 1.363 . S
C788 C793 1.379 1_655 S
C788 N795 1.356 1_655 S
C789 C788 1.363 . S
C789 C792 1.363 . S
N790 C792 1.356 . S
N790 H802 0.984 . S
N790 H803 0.985 . S
N791 C793 1.356 . S
N791 H796 0.984 . S
N791 H797 0.985 . S
C792 C786 1.379 . S
C792 C789 1.363 . S
C792 N790 1.356 . S
C793 C787 1.363 1_455 S
C793 C788 1.379 1_455 S
C793 N791 1.356 . S
N794 C786 1.356 . S
N794 H800 0.984 . S
N794 H801 0.984 . S
N795 C788 1.356 1_455 S
N795 H798 0.984 1_455 S
N795 H799 0.985 . S
H796 N791 0.984 . S
H797 N791 0.985 . S
H798 N795 0.984 1_655 S
H799 N795 0.985 . S
H800 N794 0.984 . S
H801 N794 0.984 . S
H802 N790 0.984 . S
H803 N790 0.985 . S
C804 C805 1.363 . S
C804 C810 1.379 . S
C804 N812 1.356 . S
C805 C804 1.363 . S
C805 C811 1.363 . S
C806 C807 1.363 . S
C806 C811 1.379 . S
C806 N813 1.356 . S
C807 C806 1.363 . S
C807 C810 1.363 . S
N808 C810 1.356 . S
N808 H820 0.984 . S
N808 H821 0.985 . S
N809 C811 1.356 . S
N809 H814 0.984 . S
N809 H815 0.985 . S
C810 C804 1.379 . S
C810 C807 1.363 . S
C810 N808 1.356 . S
C811 C805 1.363 . S
C811 C806 1.379 . S
C811 N809 1.356 . S
N812 C804 1.356 . S
N812 H818 0.984 . S
N812 H819 0.984 . S
N813 C806 1.356 . S
N813 H816 0.984 . S
N813 H817 0.985 . S
H814 N809 0.984 . S
H815 N809 0.985 . S
H816 N813 0.984 . S
H817 N813 0.985 . S
H818 N812 0.984 . S
H819 N812 0.984 . S
H820 N808 0.984 . S
H821 N808 0.985 . S
C822 C823 1.363 . S
C822 C828 1.379 . S
C822 N830 1.356 . S
C823 C822 1.363 . S
C823 C829 1.363 . S
C824 C825 1.363 1_565 S
C824 C829 1.379 1_565 S
C824 N831 1.356 . S
C825 C824 1.363 1_545 S
C825 C828 1.363 . S
N826 C828 1.356 . S
N826 H838 0.984 . S
N826 H839 0.985 . S
N827 C829 1.356 . S
N827 H832 0.984 . S
N827 H833 0.985 . S
C828 C822 1.379 . S
C828 C825 1.363 . S
C828 N826 1.356 . S
C829 C823 1.363 . S
C829 C824 1.379 1_545 S
C829 N827 1.356 . S
N830 C822 1.356 . S
N830 H836 0.984 . S
N830 H837 0.984 . S
N831 C824 1.356 . S
N831 H834 0.984 . S
N831 H835 0.985 . S
H832 N827 0.984 . S
H833 N827 0.985 . S
H834 N831 0.984 . S
H835 N831 0.985 . S
H836 N830 0.984 . S
H837 N830 0.984 . S
H838 N826 0.984 . S
H839 N826 0.985 . S
C840 C841 1.363 . S
C840 C846 1.379 . S
C840 N848 1.356 . S
C841 C840 1.363 . S
C841 C847 1.363 . S
C842 C843 1.363 . S
C842 C847 1.379 . S
C842 N849 1.356 . S
C843 C842 1.363 . S
C843 C846 1.363 . S
N844 C846 1.356 . S
N844 H856 0.984 . S
N844 H857 0.985 . S
N845 C847 1.356 . S
N845 H850 0.984 . S
N845 H851 0.985 . S
C846 C840 1.379 . S
C846 C843 1.363 . S
C846 N844 1.356 . S
C847 C841 1.363 . S
C847 C842 1.379 . S
C847 N845 1.356 . S
N848 C840 1.356 . S
N848 H854 0.984 . S
N848 H855 0.984 . S
N849 C842 1.356 . S
N849 H852 0.984 . S
N849 H853 0.985 . S
H850 N845 0.984 . S
H851 N845 0.985 . S
H852 N849 0.984 . S
H853 N849 0.985 . S
H854 N848 0.984 . S
H855 N848 0.984 . S
H856 N844 0.984 . S
H857 N844 0.985 . S
C858 C859 1.363 . S
C858 C864 1.379 1_545 S
C858 N866 1.356 . S
C859 C858 1.363 . S
C859 C865 1.363 . S
C860 C861 1.363 . S
C860 C865 1.379 1_565 S
C860 N867 1.356 . S
C861 C860 1.363 . S
C861 C864 1.363 . S
N862 C864 1.356 . S
N862 H874 0.984 . S
N862 H875 0.985 . S
N863 C865 1.356 . S
N863 H868 0.984 . S
N863 H869 0.985 . S
C864 C858 1.379 1_565 S
C864 C861 1.363 . S
C864 N862 1.356 . S
C865 C859 1.363 . S
C865 C860 1.379 1_545 S
C865 N863 1.356 . S
N866 C858 1.356 . S
N866 H872 0.984 . S
N866 H873 0.984 . S
N867 C860 1.356 . S
N867 H870 0.984 . S
N867 H871 0.985 . S
H868 N863 0.984 . S
H869 N863 0.985 . S
H870 N867 0.984 . S
H871 N867 0.985 . S
H872 N866 0.984 . S
H873 N866 0.984 . S
H874 N862 0.984 . S
H875 N862 0.985 . S
C876 C877 1.363 . S
C876 C882 1.379 1_655 S
C876 N884 1.356 . S
C877 C876 1.363 . S
C877 C883 1.363 . S
C878 C879 1.363 . S
C878 C883 1.379 1_455 S
C878 N885 1.356 . S
C879 C878 1.363 . S
C879 C882 1.363 . S
N880 C882 1.356 . S
N880 H892 0.984 . S
N880 H893 0.985 . S
N881 C883 1.356 . S
N881 H886 0.984 . S
N881 H887 0.985 . S
C882 C876 1.379 1_455 S
C882 C879 1.363 . S
C882 N880 1.356 . S
C883 C877 1.363 . S
C883 C878 1.379 1_655 S
C883 N881 1.356 . S
N884 C876 1.356 . S
N884 H890 0.984 . S
N884 H891 0.984 . S
N885 C878 1.356 . S
N885 H888 0.984 . S
N885 H889 0.985 . S
H886 N881 0.984 . S
H887 N881 0.985 . S
H888 N885 0.984 . S
H889 N885 0.985 . S
H890 N884 0.984 . S
H891 N884 0.984 . S
H892 N880 0.984 . S
H893 N880 0.985 . S
C894 C895 1.363 . S
C894 C900 1.379 . S
C894 N902 1.356 . S
C895 C894 1.363 . S
C895 C901 1.363 . S
C896 C897 1.363 . S
C896 C901 1.379 . S
C896 N903 1.356 . S
C897 C896 1.363 . S
C897 C900 1.363 . S
N898 C900 1.356 . S
N898 H910 0.984 . S
N898 H911 0.985 . S
N899 C901 1.356 . S
N899 H904 0.984 . S
N899 H905 0.985 . S
C900 C894 1.379 . S
C900 C897 1.363 . S
C900 N898 1.356 . S
C901 C895 1.363 . S
C901 C896 1.379 . S
C901 N899 1.356 . S
N902 C894 1.356 . S
N902 H908 0.984 . S
N902 H909 0.984 . S
N903 C896 1.356 . S
N903 H906 0.984 . S
N903 H907 0.985 . S
H904 N899 0.984 . S
H905 N899 0.985 . S
H906 N903 0.984 . S
H907 N903 0.985 . S
H908 N902 0.984 . S
H909 N902 0.984 . S
H910 N898 0.984 . S
H911 N898 0.985 . S
C912 C913 1.363 . S
C912 C918 1.379 1_565 S
C912 N920 1.356 . S
C913 C912 1.363 . S
C913 C919 1.363 . S
C914 C915 1.363 . S
C914 C919 1.379 1_545 S
C914 N921 1.356 . S
C915 C914 1.363 . S
C915 C918 1.363 . S
N916 C918 1.356 . S
N916 H928 0.984 . S
N916 H929 0.985 . S
N917 C919 1.356 . S
N917 H922 0.984 . S
N917 H923 0.985 . S
C918 C912 1.379 1_545 S
C918 C915 1.363 . S
C918 N916 1.356 . S
C919 C913 1.363 . S
C919 C914 1.379 1_565 S
C919 N917 1.356 . S
N920 C912 1.356 . S
N920 H926 0.984 . S
N920 H927 0.984 . S
N921 C914 1.356 . S
N921 H924 0.984 . S
N921 H925 0.985 . S
H922 N917 0.984 . S
H923 N917 0.985 . S
H924 N921 0.984 . S
H925 N921 0.985 . S
H926 N920 0.984 . S
H927 N920 0.984 . S
H928 N916 0.984 . S
H929 N916 0.985 . S
C930 C931 1.363 . S
C930 C936 1.379 1_455 S
C930 N938 1.356 . S
C931 C930 1.363 . S
C931 C937 1.363 . S
C932 C933 1.363 . S
C932 C937 1.379 1_655 S
C932 N939 1.356 . S
C933 C932 1.363 . S
C933 C936 1.363 . S
N934 C936 1.356 . S
N934 H946 0.984 . S
N934 H947 0.985 . S
N935 C937 1.356 . S
N935 H940 0.984 . S
N935 H941 0.985 . S
C936 C930 1.379 1_655 S
C936 C933 1.363 . S
C936 N934 1.356 . S
C937 C931 1.363 . S
C937 C932 1.379 1_455 S
C937 N935 1.356 . S
N938 C930 1.356 . S
N938 H944 0.984 . S
N938 H945 0.984 . S
N939 C932 1.356 . S
N939 H942 0.984 . S
N939 H943 0.985 . S
H940 N935 0.984 . S
H941 N935 0.985 . S
H942 N939 0.984 . S
H943 N939 0.985 . S
H944 N938 0.984 . S
H945 N938 0.984 . S
H946 N934 0.984 . S
H947 N934 0.985 . S
C409 C36 1.811 . S
C411 C9 1.819 . S
C427 C43 1.819 . S
C429 C70 1.811 . S
C445 C77 1.819 . S
C447 C2 1.811 . S
C463 C111 1.819 . S
C465 C172 1.811 . S
C481 C145 1.819 . S
C483 C104 1.811 . S
C499 C138 1.811 . S
C501 C179 1.819 . S
C517 C240 1.811 . S
C519 C213 1.819 . S
C535 C274 1.811 . S
C537 C247 1.819 . S
C553 C206 1.811 . S
C555 C281 1.819 . S
C571 C315 1.819 . S
C573 C376 1.811 . S
C589 C308 1.811 . S
C591 C349 1.819 . S
C607 C383 1.819 . S
C609 C342 1.811 . S
C625 C20 1.444 . S
C627 C243 1.434 1_545 S
C643 C54 1.444 . S
C645 C277 1.434 1_655 S
C661 C88 1.444 . S
C663 C209 1.434 . S
C679 C379 1.434 1_455 S
C681 C122 1.444 . S
C697 C156 1.444 . S
C699 C311 1.434 . S
C715 C345 1.434 1_565 S
C717 C190 1.444 . S
C733 C39 1.434 1_565 S
C735 C224 1.444 . S
C751 C73 1.434 1_455 S
C753 C258 1.444 . S
C769 C292 1.444 . S
C771 C5 1.434 . S
C787 C175 1.434 1_655 S
C789 C326 1.444 . S
C805 C360 1.444 . S
C807 C107 1.434 . S
C823 C394 1.444 . S
C825 C141 1.434 1_545 S
C841 C135 1.846 . S
C843 C33 1.846 . S
C859 C67 1.846 . S
C861 C169 1.846 . S
C877 C101 1.846 . S
C879 C203 1.846 . S
C895 C339 1.846 . S
C897 C237 1.846 . S
C913 C271 1.846 . S
C915 C373 1.846 . S
C931 C305 1.846 . S
C933 C407 1.846 . S
