# Generated by pormake.
# Topology noo, (5)-cn, num edge types: 1
# Building blocks:
#     Node 0, Type 0, BuildingBlock: XOMCOT_clean_sbu_0, # of connection points: 5
#     Node 1, Type 0, BuildingBlock: XOMCOT_clean_sbu_0, # of connection points: 5
#     Node 2, Type 0, BuildingBlock: XOMCOT_clean_sbu_0, # of connection points: 5
#     Node 3, Type 0, BuildingBlock: XOMCOT_clean_sbu_0, # of connection points: 5
#     Node 4, Type 0, BuildingBlock: XOMCOT_clean_sbu_0, # of connection points: 5
#     Node 5, Type 0, BuildingBlock: XOMCOT_clean_sbu_0, # of connection points: 5
#     Node 6, Type 0, BuildingBlock: XOMCOT_clean_sbu_0, # of connection points: 5
#     Node 7, Type 0, BuildingBlock: XOMCOT_clean_sbu_0, # of connection points: 5
#     Edge 8, Type (0, 0), BuildingBlock: ZUJKAS_clean_linker_0, # of connection points: 2
#     Edge 9, Type (0, 0), BuildingBlock: ZUJKAS_clean_linker_0, # of connection points: 2
#     Edge 10, Type (0, 0), BuildingBlock: ZUJKAS_clean_linker_0, # of connection points: 2
#     Edge 11, Type (0, 0), BuildingBlock: ZUJKAS_clean_linker_0, # of connection points: 2
#     Edge 12, Type (0, 0), BuildingBlock: ZUJKAS_clean_linker_0, # of connection points: 2
#     Edge 13, Type (0, 0), BuildingBlock: ZUJKAS_clean_linker_0, # of connection points: 2
#     Edge 14, Type (0, 0), BuildingBlock: ZUJKAS_clean_linker_0, # of connection points: 2
#     Edge 15, Type (0, 0), BuildingBlock: ZUJKAS_clean_linker_0, # of connection points: 2
#     Edge 16, Type (0, 0), BuildingBlock: ZUJKAS_clean_linker_0, # of connection points: 2
#     Edge 17, Type (0, 0), BuildingBlock: ZUJKAS_clean_linker_0, # of connection points: 2
#     Edge 18, Type (0, 0), BuildingBlock: ZUJKAS_clean_linker_0, # of connection points: 2
#     Edge 19, Type (0, 0), BuildingBlock: ZUJKAS_clean_linker_0, # of connection points: 2
#     Edge 20, Type (0, 0), BuildingBlock: ZUJKAS_clean_linker_0, # of connection points: 2
#     Edge 21, Type (0, 0), BuildingBlock: ZUJKAS_clean_linker_0, # of connection points: 2
#     Edge 22, Type (0, 0), BuildingBlock: ZUJKAS_clean_linker_0, # of connection points: 2
#     Edge 23, Type (0, 0), BuildingBlock: ZUJKAS_clean_linker_0, # of connection points: 2
#     Edge 24, Type (0, 0), BuildingBlock: ZUJKAS_clean_linker_0, # of connection points: 2
#     Edge 25, Type (0, 0), BuildingBlock: ZUJKAS_clean_linker_0, # of connection points: 2
#     Edge 26, Type (0, 0), BuildingBlock: ZUJKAS_clean_linker_0, # of connection points: 2
#     Edge 27, Type (0, 0), BuildingBlock: ZUJKAS_clean_linker_0, # of connection points: 2
# Relax obj value: 0.060
# Max RMSD: 0.114
# Mean RMSD: 0.114
data_MOF--net-noo--node1-XOMCOT_clean_sbu_0--edge1-ZUJKAS_clean_linker_0
_symmetry_space_group_name_H-M    P1
_symmetry_Int_Tables_number       1
_symmetry_cell_setting            triclinic
loop_
_symmetry_equiv_pos_as_xyz
'x, y, z'
_cell_length_a     49.413993
_cell_length_b     49.372392
_cell_length_c     37.785727
_cell_angle_alpha  89.931417
_cell_angle_beta   90.233066
_cell_angle_gamma 90.087071
loop_
_atom_site_label
_atom_site_type_symbol
_atom_site_fract_x
_atom_site_fract_y
_atom_site_fract_z
_atom_type_partial_charge
Co0 Co 0.43993 0.22294 0.04262 0.0
C1 C 0.46302 0.16796 0.05095 0.0
C2 C 0.48783 0.19826 0.07576 0.0
C3 C 0.50006 0.1734 0.08009 0.0
N4 N 0.46476 0.19482 0.05727 0.0
N5 N 0.48447 0.15435 0.06443 0.0
H6 H 0.44664 0.15864 0.0363 0.0
H7 H 0.49526 0.2175 0.08543 0.0
C8 C 0.47619 0.26659 0.01125 0.0
O9 O 0.4583 0.27209 0.98646 0.0
N10 N 0.41475 0.25134 0.02823 0.0
C11 C 0.3932 0.24879 1.0064 0.0
C12 C 0.381 0.27352 1.0024 0.0
C13 C 0.41463 0.27772 0.03826 0.0
N14 N 0.39449 0.29176 0.0222 0.0
C15 C 0.41828 0.19054 0.9867 0.0
C16 C 0.4591 0.19753 0.93795 0.0
C17 C 0.43655 0.18171 0.92867 0.0
C18 C 0.4162 0.17808 0.95383 0.0
C19 C 0.46051 0.20956 0.97161 0.0
N20 N 0.43955 0.20712 0.99499 0.0
H21 H 0.4022 0.18703 1.00532 0.0
H22 H 0.47876 0.22019 0.97873 0.0
H23 H 0.38617 0.23039 0.99427 0.0
H24 H 0.42939 0.28657 0.05606 0.0
O25 O 0.41032 0.2027 0.06313 0.0
O26 O 0.43494 0.23303 0.09179 0.0
O27 O 0.47204 0.24727 0.03311 0.0
C28 C 0.41545 0.21529 0.09254 0.0
H29 H 0.51884 0.16966 0.09407 0.0
H30 H 0.36323 0.27773 0.98647 0.0
H31 H 0.47572 0.20018 0.91966 0.0
H32 H 0.39837 0.16607 0.94802 0.0
Co33 Co 0.80554 0.43921 0.04525 0.0
C34 C 0.85977 0.4643 0.05155 0.0
C35 C 0.82914 0.48844 0.07636 0.0
C36 C 0.85377 0.5012 0.08054 0.0
N37 N 0.83296 0.46539 0.05812 0.0
N38 N 0.87303 0.48603 0.06488 0.0
H39 H 0.86941 0.44771 0.03785 0.0
H40 H 0.80982 0.49542 0.08608 0.0
C41 C 0.76239 0.47405 0.00954 0.0
O42 O 0.75828 0.45582 0.98477 0.0
N43 N 0.77793 0.41247 0.03268 0.0
C44 C 0.78254 0.38775 0.01876 0.0
C45 C 0.75839 0.37468 0.01363 0.0
C46 C 0.75072 0.41343 0.03742 0.0
N47 N 0.73832 0.39081 0.02505 0.0
C48 C 0.83668 0.41534 0.98984 0.0
C49 C 0.83061 0.45558 0.93974 0.0
C50 C 0.84406 0.43163 0.9304 0.0
C51 C 0.84767 0.41177 0.95635 0.0
C52 C 0.81964 0.45824 0.97381 0.0
N53 N 0.82121 0.43743 0.99771 0.0
H54 H 0.84088 0.40012 0.0095 0.0
H55 H 0.81034 0.47719 0.98082 0.0
H56 H 0.80202 0.379 0.01356 0.0
H57 H 0.74019 0.43039 0.04909 0.0
O58 O 0.82663 0.41107 0.06796 0.0
O59 O 0.79549 0.43579 0.09458 0.0
O60 O 0.78051 0.47029 0.03326 0.0
C61 C 0.8137 0.41685 0.09684 0.0
H62 H 0.85713 0.52035 0.09377 0.0
H63 H 0.7558 0.35448 1.00301 0.0
H64 H 0.82826 0.47191 0.92082 0.0
H65 H 0.85916 0.39358 0.95092 0.0
Co66 Co 0.58874 0.80271 0.02746 0.0
C67 C 0.56406 0.85685 0.03669 0.0
C68 C 0.53923 0.82532 0.05852 0.0
C69 C 0.52652 0.8498 0.06372 0.0
N70 N 0.56262 0.82976 0.04133 0.0
N71 N 0.54214 0.86963 0.04996 0.0
H72 H 0.58071 0.86695 0.02366 0.0
H73 H 0.53207 0.80569 0.06708 0.0
C74 C 0.55408 0.75833 0.9936 0.0
O75 O 0.57229 0.75334 0.96924 0.0
N76 N 0.61534 0.77551 0.01389 0.0
C77 C 0.63854 0.78012 0.99617 0.0
C78 C 0.65188 0.75608 0.99148 0.0
C79 C 0.61556 0.74857 0.02102 0.0
N80 N 0.63741 0.73617 1.00679 0.0
C81 C 0.61059 0.83665 0.97327 0.0
C82 C 0.57165 0.82817 0.92194 0.0
C83 C 0.59377 0.84497 0.91414 0.0
C84 C 0.61313 0.84939 0.94059 0.0
C85 C 0.5697 0.81597 0.95545 0.0
N86 N 0.5898 0.81915 0.98015 0.0
H87 H 0.62578 0.84092 0.99302 0.0
H88 H 0.55168 0.80463 0.96137 0.0
H89 H 0.64597 0.79954 0.98767 0.0
H90 H 0.59978 0.73819 0.03551 0.0
O91 O 0.61704 0.82368 0.05012 0.0
O92 O 0.59274 0.79203 0.0766 0.0
O93 O 0.55768 0.77749 0.01585 0.0
C94 C 0.61148 0.81049 0.07895 0.0
H95 H 0.50749 0.85278 0.07723 0.0
H96 H 0.67111 0.75353 0.97827 0.0
H97 H 0.55574 0.82492 0.90259 0.0
H98 H 0.6305 0.86231 0.93595 0.0
Co99 Co 0.22718 0.58845 0.05472 0.0
C100 C 0.17215 0.56428 0.0505 0.0
C101 C 0.20156 0.53625 0.07084 0.0
C102 C 0.17662 0.52384 0.07078 0.0
N103 N 0.19878 0.5615 0.05791 0.0
N104 N 0.15807 0.54143 0.05799 0.0
H105 H 0.16335 0.58268 0.03997 0.0
H106 H 0.2203 0.52765 0.08051 0.0
C107 C 0.26878 0.55189 0.01875 0.0
O108 O 0.27005 0.56756 0.99068 0.0
N109 N 0.25608 0.61592 0.05269 0.0
C110 C 0.25289 0.64262 0.05959 0.0
C111 C 0.27734 0.65559 0.0572 0.0
C112 C 0.28307 0.6132 0.04697 0.0
N113 N 0.29635 0.63716 0.0492 0.0
C114 C 0.21338 0.61998 0.99391 0.0
C115 C 0.20391 0.57755 0.94787 0.0
C116 C 0.19961 0.60417 0.93596 0.0
C117 C 0.20444 0.62545 0.95964 0.0
C118 C 0.21302 0.57295 0.98257 0.0
N119 N 0.21826 0.59412 1.00491 0.0
H120 H 0.21526 0.63667 0.012 0.0
H121 H 0.21553 0.55233 0.99163 0.0
H122 H 0.23401 0.65247 0.06584 0.0
H123 H 0.29326 0.59425 0.0426 0.0
O124 O 0.20282 0.61482 0.07487 0.0
O125 O 0.23014 0.58797 0.10577 0.0
O126 O 0.25376 0.55826 0.0449 0.0
C127 C 0.21179 0.60686 0.10559 0.0
H128 H 0.17241 0.50368 0.08058 0.0
H129 H 0.28079 0.67709 0.06062 0.0
H130 H 0.2002 0.56043 0.93063 0.0
H131 H 0.2004 0.64626 0.95222 0.0
Co132 Co 0.93957 0.30473 0.47672 0.0
C133 C 0.9642 0.35907 0.4694 0.0
C134 C 0.98876 0.32833 0.44551 0.0
C135 C 1.00152 0.353 0.44159 0.0
N136 N 0.96548 0.33218 0.46314 0.0
N137 N 0.98608 0.37234 0.45668 0.0
H138 H 0.94776 0.36864 0.48342 0.0
H139 H 0.99592 0.30897 0.43608 0.0
C140 C 0.97449 0.26051 0.50975 0.0
O141 O 0.95668 0.25618 0.53486 0.0
N142 N 0.91312 0.27719 0.49007 0.0
C143 C 0.8895 0.2816 0.50688 0.0
C144 C 0.87615 0.25749 0.51109 0.0
C145 C 0.91315 0.25024 0.483 0.0
N146 N 0.89102 0.23766 0.4964 0.0
C147 C 0.91803 0.33707 0.53254 0.0
C148 C 0.95892 0.32997 0.58158 0.0
C149 C 0.93659 0.34604 0.59057 0.0
C150 C 0.9162 0.34971 0.5653 0.0
C151 C 0.96012 0.31785 0.54799 0.0
N152 N 0.93912 0.32033 0.52446 0.0
H153 H 0.90228 0.34117 0.51352 0.0
H154 H 0.97833 0.30724 0.54094 0.0
H155 H 0.8817 0.30097 0.51482 0.0
H156 H 0.92917 0.24003 0.46888 0.0
O157 O 0.91096 0.32601 0.45538 0.0
O158 O 0.93484 0.29494 0.42737 0.0
O159 O 0.97072 0.27935 0.48704 0.0
C160 C 0.91595 0.31325 0.4261 0.0
H161 H 0.02055 0.35641 0.42822 0.0
H162 H 0.85653 0.25488 0.5233 0.0
H163 H 0.97558 0.32734 0.59998 0.0
H164 H 0.89866 0.36211 0.57087 0.0
Co165 Co 0.72352 0.94003 0.45839 0.0
C166 C 0.66896 0.9649 0.45865 0.0
C167 C 0.69882 0.99154 0.43645 0.0
C168 C 0.67396 1.00403 0.43454 0.0
N169 N 0.69567 0.96709 0.45165 0.0
N170 N 0.65514 0.98726 0.44844 0.0
H171 H 0.65981 0.94702 0.47012 0.0
H172 H 0.7178 0.99956 0.42683 0.0
C173 C 0.76587 0.97577 0.49448 0.0
O174 O 0.76762 0.95929 0.52173 0.0
N175 N 0.75169 0.91226 0.46413 0.0
C176 C 0.74749 0.88525 0.46168 0.0
C177 C 0.77166 0.87189 0.46447 0.0
C178 C 0.77901 0.91473 0.46717 0.0
N179 N 0.79155 0.89033 0.46796 0.0
C180 C 0.70535 0.91141 0.51974 0.0
C181 C 0.69923 0.95568 0.56362 0.0
C182 C 0.6928 0.92982 0.57663 0.0
C183 C 0.69583 0.9076 0.55403 0.0
C184 C 0.70898 0.95857 0.52899 0.0
N185 N 0.71271 0.93644 0.50781 0.0
H186 H 0.70577 0.89419 0.50244 0.0
H187 H 0.71314 0.97867 0.51901 0.0
H188 H 0.72821 0.87548 0.45732 0.0
H189 H 0.78982 0.93372 0.46719 0.0
O190 O 0.69942 0.9134 0.43777 0.0
O191 O 0.72861 0.93851 0.40772 0.0
O192 O 0.75012 0.97024 0.46858 0.0
C193 C 0.70989 0.91992 0.40737 0.0
H194 H 0.67009 0.02395 0.42371 0.0
H195 H 0.77434 0.85014 0.46406 0.0
H196 H 0.69677 0.97348 0.58 0.0
H197 H 0.69006 0.88741 0.56237 0.0
Co198 Co 0.08523 0.72725 0.4811 0.0
C199 C 0.06141 0.67216 0.47952 0.0
C200 C 0.03408 0.70204 0.45876 0.0
C201 C 0.02187 0.67701 0.4565 0.0
N202 N 0.05874 0.69899 0.47343 0.0
N203 N 0.03905 0.65819 0.46953 0.0
H204 H 0.07936 0.66309 0.49091 0.0
H205 H 0.02581 0.72105 0.44953 0.0
C206 C 0.05215 0.77234 0.51556 0.0
O207 O 0.07187 0.77862 0.53751 0.0
N208 N 0.11238 0.75555 0.48819 0.0
C209 C 0.13851 0.7512 0.49701 0.0
C210 C 0.15232 0.77527 0.49644 0.0
C211 C 0.11097 0.78252 0.48131 0.0
N212 N 0.13507 0.79501 0.48673 0.0
C213 C 0.11261 0.69849 0.53633 0.0
C214 C 0.07536 0.70644 0.58953 0.0
C215 C 0.09888 0.69157 0.59698 0.0
C216 C 0.11743 0.68747 0.56969 0.0
C217 C 0.07113 0.71691 0.55539 0.0
N218 N 0.09029 0.714 0.5296 0.0
H219 H 0.12681 0.69383 0.51573 0.0
H220 H 0.05205 0.72652 0.54979 0.0
H221 H 0.14759 0.7318 0.50225 0.0
H222 H 0.09298 0.7927 0.47179 0.0
O223 O 0.11222 0.70543 0.45749 0.0
O224 O 0.08504 0.73475 0.43074 0.0
O225 O 0.05468 0.75259 0.49399 0.0
C226 C 0.10422 0.71686 0.42833 0.0
H227 H 1.00216 0.67293 0.4451 0.0
H228 H 0.17354 0.77806 0.50273 0.0
H229 H 0.06004 0.70929 0.6096 0.0
H230 H 0.13572 0.67584 0.57403 0.0
Co231 Co 0.3026 0.08976 0.47195 0.0
C232 C 0.3567 0.06417 0.46805 0.0
C233 C 0.32581 0.03919 0.44481 0.0
C234 C 0.35031 0.02617 0.44165 0.0
N235 N 0.32983 0.06289 0.46152 0.0
N236 N 0.36978 0.04186 0.4563 0.0
H237 H 0.36639 0.08107 0.48118 0.0
H238 H 0.30647 0.03207 0.43505 0.0
C239 C 0.25757 0.05666 0.50646 0.0
O240 O 0.25236 0.07597 0.52932 0.0
N241 N 0.27525 0.11722 0.48189 0.0
C242 C 0.28015 0.14252 0.49378 0.0
C243 C 0.25635 0.15664 0.49519 0.0
C244 C 0.24826 0.11676 0.47504 0.0
N245 N 0.2362 0.14053 0.48351 0.0
C246 C 0.33321 0.11449 0.52757 0.0
C247 C 0.32515 0.0758 0.57921 0.0
C248 C 0.3395 0.09946 0.58789 0.0
C249 C 0.344 0.11855 0.5612 0.0
C250 C 0.31449 0.0726 0.54494 0.0
N251 N 0.31725 0.0926 0.52009 0.0
H252 H 0.33809 0.12912 0.50744 0.0
H253 H 0.30455 0.05379 0.53856 0.0
H254 H 0.29969 0.1509 0.50001 0.0
H255 H 0.23775 0.09961 0.46361 0.0
O256 O 0.32462 0.117 0.44903 0.0
O257 O 0.29366 0.09203 0.42201 0.0
O258 O 0.27682 0.0593 0.48422 0.0
C259 C 0.31215 0.11074 0.41984 0.0
H260 H 0.35355 1.00691 0.42871 0.0
H261 H 0.25409 0.17727 0.50435 0.0
H262 H 0.32195 0.06007 0.59875 0.0
H263 H 0.35615 0.13646 0.56611 0.0
H264 H 0.49285 0.89371 0.05073 0.0
H265 H 0.48322 0.94223 0.05161 0.0
H266 H 0.56878 0.9595 0.05021 0.0
H267 H 0.57856 0.91094 0.04916 0.0
H268 H 0.49722 0.98014 0.10063 0.0
H269 H 0.54152 1.00746 0.97075 0.0
H270 H 0.53529 0.97281 0.98366 0.0
H271 H 0.56477 0.9904 0.99974 0.0
C272 C 0.50965 0.90779 0.05068 0.0
C273 C 0.5365 0.89836 0.0498 0.0
C274 C 0.5041 0.93557 0.05103 0.0
C275 C 0.52523 0.95459 0.05043 0.0
C276 C 0.55208 0.94527 0.04977 0.0
H277 H 0.53358 0.12981 0.06574 0.0
H278 H 0.54284 0.08125 0.06276 0.0
C279 C 0.55766 0.91746 0.04923 0.0
C280 C 0.5191 0.98409 0.05171 0.0
H281 H 0.52861 0.04401 0.00798 0.0
C282 C 0.50395 0.99407 0.08025 0.0
C283 C 0.52787 1.0023 0.02512 0.0
C284 C 0.54304 0.99272 0.99291 0.0
C285 C 0.49778 0.02176 0.08326 0.0
C286 C 0.5067 0.03995 0.0568 0.0
C287 C 0.52182 0.03002 0.02825 0.0
C288 C 0.5008 0.06944 0.0585 0.0
C289 C 0.48227 0.03142 0.11515 0.0
C290 C 0.47408 0.07899 0.05669 0.0
C291 C 0.46869 0.10681 0.05849 0.0
C292 C 0.48993 0.12564 0.06214 0.0
C293 C 0.51669 0.11593 0.06354 0.0
C294 C 0.52206 0.08816 0.06158 0.0
H295 H 0.48231 0.01616 0.13679 0.0
H296 H 0.49092 0.05065 0.12545 0.0
H297 H 0.46094 0.03528 0.10739 0.0
H298 H 0.45738 0.06493 0.05379 0.0
H299 H 0.44786 0.1135 0.05752 0.0
H300 H 0.90848 0.46938 0.01459 0.0
H301 H 0.95704 0.47926 0.01182 0.0
H302 H 0.95113 0.5264 0.10741 0.0
H303 H 0.90282 0.51617 0.11082 0.0
H304 H 0.98376 0.53092 0.00897 0.0
H305 H 1.01256 0.47194 0.12856 0.0
H306 H 0.9804 0.46761 0.10638 0.0
H307 H 0.98586 0.49605 0.13517 0.0
C308 C 0.91754 0.48161 0.03523 0.0
C309 C 0.90169 0.49185 0.06303 0.0
C310 C 0.94527 0.48741 0.03345 0.0
C311 C 0.95777 0.50334 0.0596 0.0
C312 C 0.94199 0.51379 0.08718 0.0
H313 H 0.11781 0.57911 0.058 0.0
H314 H 0.06898 0.57054 0.05635 0.0
C315 C 0.91428 0.5081 0.08891 0.0
C316 C 0.98729 0.50906 0.05809 0.0
H317 H 0.0467 0.49924 0.10284 0.0
C318 C 0.99755 0.52398 0.02944 0.0
C319 C 1.00528 0.49977 0.08467 0.0
C320 C 0.9956 0.48275 0.11531 0.0
C321 C 0.0253 0.53016 0.02693 0.0
C322 C 0.04318 0.52136 0.05391 0.0
C323 C 0.03293 0.50617 0.08231 0.0
C324 C 0.07275 0.52697 0.05283 0.0
C325 C 0.03534 0.54564 0.99513 0.0
C326 C 0.09112 0.50537 0.05153 0.0
C327 C 0.11899 0.5102 0.05238 0.0
C328 C 0.12923 0.53677 0.05488 0.0
C329 C 0.11074 0.55844 0.05564 0.0
C330 C 0.08278 0.55357 0.05472 0.0
H331 H 0.02029 0.54564 0.9732 0.0
H332 H 0.03927 0.56697 1.00282 0.0
H333 H 0.05459 0.53691 0.9853 0.0
H334 H 0.08385 0.48469 0.05 0.0
H335 H 0.13251 0.49302 0.05112 0.0
H336 H 0.95006 0.41362 0.46363 0.0
H337 H 0.9602 0.46206 0.46721 0.0
H338 H 0.04543 0.44485 0.45892 0.0
H339 H 0.03552 0.39646 0.45543 0.0
H340 H 0.99133 0.49055 0.51598 0.0
H341 H 0.03438 0.50106 0.38123 0.0
H342 H 0.01537 0.47162 0.39484 0.0
H343 H 0.05026 0.47532 0.40767 0.0
C344 C 0.97098 0.42007 0.46273 0.0
C345 C 0.99194 0.40101 0.45897 0.0
C346 C 0.97674 0.44782 0.46464 0.0
C347 C 1.00355 0.45717 0.46271 0.0
C348 C 0.02454 0.43822 0.45955 0.0
H349 H 0.07696 0.6183 0.46818 0.0
H350 H 0.06887 0.56931 0.46872 0.0
C351 C 0.01881 0.41049 0.45756 0.0
C352 C 1.00957 0.48669 0.46459 0.0
H353 H 0.03857 0.53909 0.41914 0.0
C354 C 1.00158 0.50118 0.49476 0.0
C355 C 0.02302 0.50057 0.43693 0.0
C356 C 0.03106 0.48645 0.40318 0.0
C357 C 1.00694 0.52904 0.4982 0.0
C358 C 0.0203 0.54292 0.47049 0.0
C359 C 0.02844 0.52841 0.44043 0.0
C360 C 0.02529 0.57263 0.47166 0.0
C361 C 0.99865 0.5433 0.53173 0.0
C362 C 1.00351 0.5908 0.47298 0.0
C363 C 1.00807 0.61876 0.47277 0.0
C364 C 0.03454 0.62926 0.47108 0.0
C365 C 0.05636 0.61098 0.46996 0.0
C366 C 0.05176 0.58296 0.47003 0.0
H367 H 0.99551 0.52879 0.55385 0.0
H368 H 1.0141 0.55843 0.5399 0.0
H369 H 0.9793 0.55411 0.52704 0.0
H370 H 0.98289 0.58334 0.47365 0.0
H371 H 0.9908 0.63217 0.474 0.0
H372 H 0.62491 0.0198 0.406 0.0
H373 H 0.57648 0.02873 0.41015 0.0
H374 H 0.57084 0.97411 0.4989 0.0
H375 H 0.61962 0.96555 0.49551 0.0
H376 H 0.53359 0.99221 0.40452 0.0
H377 H 0.53392 0.04334 0.53541 0.0
H378 H 0.56441 0.03798 0.51019 0.0
H379 H 0.54963 1.01054 0.5347 0.0
C380 C 0.61353 1.00991 0.42673 0.0
C381 C 0.62632 0.9921 0.45061 0.0
C382 C 0.58574 0.01492 0.4289 0.0
C383 C 0.57005 1.0024 0.45512 0.0
C384 C 0.58261 0.98437 0.47881 0.0
H385 H 0.39389 0.99244 0.45426 0.0
H386 H 0.44231 0.98275 0.4545 0.0
C387 C 0.61047 0.97926 0.4766 0.0
C388 C 0.54048 1.00789 0.45692 0.0
H389 H 0.49107 0.03474 0.50935 0.0
C390 C 0.52429 1.00146 0.42747 0.0
C391 C 0.52841 0.02029 0.48669 0.0
C392 C 0.54495 0.02869 0.51848 0.0
C393 C 0.49637 1.00688 0.42706 0.0
C394 C 0.48418 0.01877 0.45711 0.0
C395 C 0.50039 0.02544 0.48645 0.0
C396 C 0.45468 0.02468 0.45828 0.0
C397 C 0.48024 1.00034 0.39416 0.0
C398 C 0.44543 0.05145 0.46132 0.0
C399 C 0.41764 0.05712 0.46108 0.0
C400 C 0.39849 0.03609 0.45798 0.0
C401 C 0.40793 1.00923 0.45588 0.0
C402 C 0.43567 1.00361 0.45609 0.0
H403 H 0.49347 0.99753 0.37076 0.0
H404 H 0.46885 0.98123 0.39843 0.0
H405 H 0.46541 0.01662 0.38822 0.0
H406 H 0.45975 0.06803 0.46315 0.0
H407 H 0.41126 0.07803 0.4625 0.0
H408 H 0.27867 0.52085 0.07733 0.0
H409 H 0.30535 0.47942 0.0815 0.0
H410 H 0.32279 0.4843 0.96991 0.0
H411 H 0.2968 0.52637 0.96578 0.0
H412 H 0.29708 0.43221 0.05154 0.0
H413 H 0.39707 0.46965 0.00768 0.0
H414 H 0.36967 0.49225 0.01852 0.0
H415 H 0.37107 0.4764 0.97565 0.0
C416 C 0.28839 0.5133 0.05368 0.0
C417 C 0.28565 0.52705 0.0212 0.0
C418 C 0.30367 0.48955 0.05614 0.0
C419 C 0.31655 0.47885 0.02619 0.0
C420 C 0.31377 0.49248 0.99366 0.0
H421 H 0.37775 0.32382 0.96883 0.0
H422 H 0.36154 0.37048 0.97302 0.0
C423 C 0.29869 0.51646 0.99125 0.0
C424 C 0.33142 0.45263 0.02872 0.0
H425 H 0.39118 0.42133 0.00861 0.0
C426 C 0.3178 0.43 0.04263 0.0
C427 C 0.35855 0.44962 0.01728 0.0
C428 C 0.37503 0.47335 1.0043 0.0
C429 C 0.33014 0.4044 0.04422 0.0
C430 C 0.35681 0.40125 0.03157 0.0
C431 C 0.37071 0.42387 0.01834 0.0
C432 C 0.36947 0.3741 0.0291 0.0
C433 C 0.31434 0.38056 0.05827 0.0
C434 C 0.37993 0.36089 0.05916 0.0
C435 C 0.38943 0.33415 0.05676 0.0
C436 C 0.38819 0.32022 0.02437 0.0
C437 C 0.37861 0.33395 0.9942 0.0
C438 C 0.36947 0.36063 0.99651 0.0
H439 H 0.29329 0.38609 0.06547 0.0
H440 H 0.31367 0.36419 0.03816 0.0
H441 H 0.32465 0.37233 0.08212 0.0
H442 H 0.38007 0.37102 0.08458 0.0
H443 H 0.39658 0.32398 0.0804 0.0
H444 H 0.51541 0.26277 0.06221 0.0
H445 H 0.55758 0.28822 0.06684 0.0
H446 H 0.53794 0.3312 0.97072 0.0
H447 H 0.49521 0.30611 0.96625 0.0
H448 H 0.59933 0.2885 0.02243 0.0
H449 H 0.56009 0.39311 0.03499 0.0
H450 H 0.53875 0.36362 0.03979 0.0
H451 H 0.54764 0.37579 0.99647 0.0
C452 C 0.51989 0.27772 0.04207 0.0
C453 C 0.50183 0.28232 0.01379 0.0
C454 C 0.54407 0.29233 0.04483 0.0
C455 C 0.55085 0.31197 0.01947 0.0
C456 C 0.53291 0.31665 0.99113 0.0
H457 H 0.71282 0.36435 0.97245 0.0
H458 H 0.66641 0.34736 0.97227 0.0
C459 C 0.50857 0.30209 0.98842 0.0
C460 C 0.57745 0.32618 0.02173 0.0
H461 H 0.60757 0.38866 0.02439 0.0
C462 C 0.60105 0.3104 0.02307 0.0
C463 C 0.5798 0.35478 0.02312 0.0
C464 C 0.55522 0.37284 0.02388 0.0
C465 C 0.62682 0.32232 0.02488 0.0
C466 C 0.62925 0.35089 0.02458 0.0
C467 C 0.6057 0.36677 0.02424 0.0
C468 C 0.65623 0.36429 0.02326 0.0
C469 C 0.65128 0.30411 0.02727 0.0
C470 C 0.66556 0.38074 0.05116 0.0
C471 C 0.69223 0.39073 0.05117 0.0
C472 C 0.70988 0.38427 0.02334 0.0
C473 C 0.69986 0.36915 0.99461 0.0
C474 C 0.67335 0.35941 0.99448 0.0
H475 H 0.64587 0.28363 0.03723 0.0
H476 H 0.66014 0.30171 1.00052 0.0
H477 H 0.667 0.3129 0.04496 0.0
H478 H 0.65259 0.38493 0.07353 0.0
H479 H 0.69944 0.40232 0.07361 0.0
H480 H 0.66204 0.70912 0.95415 0.0
H481 H 0.67896 0.66277 0.95548 0.0
H482 H 0.64628 0.65218 0.06026 0.0
H483 H 0.62899 0.69892 0.05883 0.0
H484 H 0.71664 0.64411 1.00205 0.0
H485 H 0.62302 0.58209 0.01067 0.0
H486 H 0.62264 0.61736 0.9979 0.0
H487 H 0.62619 0.6081 0.04367 0.0
C488 C 0.65826 0.69689 0.97742 0.0
C489 C 0.64443 0.70778 1.00656 0.0
C490 C 0.66787 0.67033 0.97808 0.0
C491 C 0.6639 0.65387 0.0079 0.0
C492 C 0.64925 0.6643 0.0367 0.0
H493 H 0.76619 0.51562 0.05705 0.0
H494 H 0.74137 0.55825 0.05727 0.0
C495 C 0.63941 0.69101 0.03593 0.0
C496 C 0.67705 0.62674 0.00938 0.0
H497 H 0.66481 0.55872 0.0164 0.0
C498 C 0.70526 0.62546 1.0052 0.0
C499 C 0.66222 0.60236 0.01311 0.0
C500 C 0.63181 0.60237 0.01629 0.0
C501 C 0.71904 0.60062 1.00474 0.0
C502 C 0.70433 0.57625 0.00923 0.0
C503 C 0.67608 0.57742 0.01317 0.0
C504 C 0.71815 0.54948 0.01001 0.0
C505 C 0.74922 0.60066 0.99874 0.0
C506 C 0.71287 0.52994 0.98386 0.0
C507 C 0.72707 0.50534 0.98365 0.0
C508 C 0.74673 0.49978 0.00972 0.0
C509 C 0.75143 0.51921 0.03632 0.0
C510 C 0.73726 0.5437 0.0365 0.0
H511 H 0.75625 0.62001 0.98682 0.0
H512 H 0.75977 0.59808 0.02451 0.0
H513 H 0.75528 0.58373 0.98117 0.0
H514 H 0.69813 0.53395 0.96321 0.0
H515 H 0.7228 0.49081 0.96291 0.0
H516 H 0.32663 0.6751 0.0822 0.0
H517 H 0.37306 0.68832 0.0685 0.0
H518 H 0.37724 0.6254 0.98969 0.0
H519 H 0.33031 0.6122 1.00316 0.0
H520 H 0.42216 0.65641 0.06952 0.0
H521 H 0.39681 0.69696 0.93575 0.0
H522 H 0.3712 0.69083 0.96877 0.0
H523 H 0.3864 0.6629 0.94602 0.0
C524 C 0.3374 0.66403 0.06198 0.0
C525 C 0.3247 0.64278 0.04352 0.0
C526 C 0.36399 0.67153 0.05428 0.0
C527 C 0.37849 0.65812 0.02774 0.0
C528 C 0.36628 0.63626 0.00997 0.0
H529 H 0.53783 0.71576 0.95121 0.0
H530 H 0.49679 0.68796 0.95736 0.0
C531 C 0.3396 0.62857 0.0179 0.0
C532 C 0.40612 0.66779 0.01862 0.0
H533 H 0.44119 0.70383 0.95645 0.0
C534 C 0.42644 0.66644 0.04461 0.0
C535 C 0.41172 0.68079 0.98604 0.0
C536 C 0.39044 0.6832 0.95747 0.0
C537 C 0.4519 0.67845 0.03936 0.0
C538 C 0.45703 0.69273 0.00756 0.0
C539 C 0.43719 0.69297 0.98085 0.0
C540 C 0.48182 0.70952 1.00307 0.0
C541 C 0.47298 0.67611 0.0682 0.0
C542 C 0.48672 0.73121 0.02615 0.0
C543 C 0.50995 0.7471 0.02267 0.0
C544 C 0.52891 0.74182 0.99585 0.0
C545 C 0.52373 0.72038 0.97221 0.0
C546 C 0.5003 0.70445 0.97569 0.0
H547 H 0.46934 0.65808 0.08516 0.0
H548 H 0.49366 0.67475 0.05696 0.0
H549 H 0.47204 0.69433 0.08532 0.0
H550 H 0.47247 0.73591 0.04697 0.0
H551 H 0.51308 0.76345 0.0413 0.0
H552 H 0.76821 1.0129 0.44085 0.0
H553 H 0.79402 0.05498 0.43873 0.0
H554 H 0.82668 0.03843 0.54248 0.0
H555 H 0.80105 0.9959 0.54472 0.0
H556 H 0.78913 0.09805 0.48322 0.0
H557 H 0.89445 0.0594 0.48687 0.0
H558 H 0.86574 0.03793 0.47715 0.0
H559 H 0.87351 0.047 0.52212 0.0
C560 C 0.78101 0.018 0.46319 0.0
C561 C 0.78247 1.00092 0.49302 0.0
C562 C 0.79582 0.04213 0.46187 0.0
C563 C 0.81259 0.04978 0.49021 0.0
C564 C 0.81433 0.03271 0.51994 0.0
H565 H 0.86277 0.21053 0.5461 0.0
H566 H 0.84568 0.16426 0.54276 0.0
C567 C 0.79949 1.00848 0.5213 0.0
C568 C 0.82669 0.07647 0.4894 0.0
H569 H 0.8888 0.10705 0.49493 0.0
C570 C 0.81094 0.09994 0.48555 0.0
C571 C 0.8552 0.07901 0.49201 0.0
C572 C 0.87329 0.0545 0.49443 0.0
C573 C 0.82276 0.12582 0.48519 0.0
C574 C 0.85113 0.12843 0.48921 0.0
C575 C 0.86705 0.105 0.49207 0.0
C576 C 0.8641 0.15552 0.49229 0.0
C577 C 0.80475 0.15025 0.48062 0.0
C578 C 0.88106 0.1657 0.46558 0.0
C579 C 0.89089 0.19241 0.46736 0.0
C580 C 0.88384 0.20927 0.49587 0.0
C581 C 0.86802 0.19837 0.52333 0.0
C582 C 0.8583 0.17186 0.52156 0.0
H583 H 0.78471 0.14469 0.46931 0.0
H584 H 0.80135 0.15976 0.50683 0.0
H585 H 0.81439 0.16554 0.46314 0.0
H586 H 0.88589 0.15334 0.44281 0.0
H587 H 0.90303 0.2002 0.44583 0.0
H588 H 1.00489 0.75931 0.48208 0.0
H589 H 0.96309 0.7853 0.47939 0.0
H590 H 0.99867 0.84688 0.5457 0.0
H591 H 0.04104 0.82089 0.5484 0.0
H592 H 0.93024 0.80227 0.53766 0.0
H593 H 0.96859 0.8892 0.45808 0.0
H594 H 0.98626 0.85723 0.46025 0.0
H595 H 0.98726 0.87993 0.49726 0.0
C596 C 1.004 0.77838 0.4961 0.0
C597 C 0.02646 0.78801 0.51538 0.0
C598 C 0.97999 0.79323 0.49455 0.0
C599 C 0.97781 0.81818 0.51198 0.0
C600 C 1.00002 0.82785 0.53162 0.0
H601 H 0.82916 0.919 0.50528 0.0
H602 H 0.87586 0.90471 0.51877 0.0
C603 C 0.02415 0.81287 0.53335 0.0
C604 C 0.95193 0.83344 0.50974 0.0
H605 H 0.92204 0.88867 0.47124 0.0
C606 C 0.92852 0.82134 0.52353 0.0
C607 C 0.94971 0.8584 0.49144 0.0
C608 C 0.97418 0.87203 0.47566 0.0
C609 C 0.90289 0.83301 0.51857 0.0
C610 C 0.90047 0.85722 0.49875 0.0
C611 C 0.92396 0.87007 0.48634 0.0
C612 C 0.87348 0.8678 0.48809 0.0
C613 C 0.87846 0.81898 0.53396 0.0
C614 C 0.85714 0.85236 0.46537 0.0
C615 C 0.83074 0.86048 0.45759 0.0
C616 C 0.81998 0.88429 0.47229 0.0
C617 C 0.83688 0.9006 0.49351 0.0
C618 C 0.86348 0.8924 0.50135 0.0
H619 H 0.88415 0.80519 0.55602 0.0
H620 H 0.86353 0.83394 0.54383 0.0
H621 H 0.86852 0.80668 0.51305 0.0
H622 H 0.86463 0.8336 0.45427 0.0
H623 H 0.81853 0.84777 0.4405 0.0
H624 H 0.26962 1.00919 0.47312 0.0
H625 H 0.24319 0.9674 0.47174 0.0
H626 H 0.18255 1.00407 0.53774 0.0
H627 H 0.20905 0.04627 0.53947 0.0
H628 H 0.22431 0.9372 0.53783 0.0
H629 H 0.1423 0.97051 0.44595 0.0
H630 H 0.1753 0.98635 0.44581 0.0
H631 H 0.15254 0.99248 0.4817 0.0
C632 C 0.25065 1.00852 0.48732 0.0
C633 C 0.24148 0.03117 0.50642 0.0
C634 C 0.23556 0.98456 0.48649 0.0
C635 C 0.21081 0.98271 0.50434 0.0
C636 C 0.2015 1.00518 0.5235 0.0
H637 H 0.10457 0.83804 0.50693 0.0
H638 H 0.12025 0.88534 0.51233 0.0
C639 C 0.21675 0.0292 0.52463 0.0
C640 C 0.19549 0.95681 0.5036 0.0
H641 H 0.14205 0.92474 0.46376 0.0
C642 C 0.20617 0.93453 0.52193 0.0
C643 C 0.17171 0.95345 0.48308 0.0
C644 C 0.15965 0.97685 0.46282 0.0
C645 C 0.1941 0.90882 0.51965 0.0
C646 C 0.17111 0.90506 0.49765 0.0
C647 C 0.15975 0.92758 0.4804 0.0
C648 C 0.15997 0.87752 0.49069 0.0
C649 C 0.20625 0.88583 0.54072 0.0
C650 C 0.17656 0.8578 0.47525 0.0
C651 C 0.16771 0.83104 0.47226 0.0
C652 C 0.14191 0.82337 0.48423 0.0
C653 C 0.1245 0.84345 0.4974 0.0
C654 C 0.13349 0.87038 0.50065 0.0
H655 H 0.21799 0.89341 0.56383 0.0
H656 H 0.19035 0.87175 0.55035 0.0
H657 H 0.2203 0.87429 0.5236 0.0
H658 H 0.19677 0.86295 0.46649 0.0
H659 H 0.18137 0.81609 0.46147 0.0
H660 H 1.01303 0.26161 0.45809 0.0
H661 H 0.05431 0.23481 0.45424 0.0
H662 H 0.03446 0.1948 0.55222 0.0
H663 H 0.99288 0.22175 0.55646 0.0
H664 H 0.08799 0.21399 0.54928 0.0
H665 H 0.06323 0.15438 0.42934 0.0
H666 H 0.05853 0.19015 0.42343 0.0
H667 H 0.03783 0.17207 0.45461 0.0
C668 C 0.01728 0.24706 0.47884 0.0
C669 C 0.99954 0.24389 0.50763 0.0
C670 C 0.04084 0.23155 0.47639 0.0
C671 C 0.04728 0.21242 0.50258 0.0
C672 C 0.02976 0.20926 0.53151 0.0
H673 H 0.19251 0.10732 0.49139 0.0
H674 H 0.14488 0.12149 0.49649 0.0
C675 C 1.00602 0.22471 0.53391 0.0
C676 C 0.07309 0.19699 0.50051 0.0
H677 H 0.11016 0.15597 0.44623 0.0
C678 C 0.09265 0.20098 0.52703 0.0
C679 C 0.07915 0.17976 0.47164 0.0
C680 C 0.05849 0.17358 0.44329 0.0
C681 C 0.11853 0.18938 0.52451 0.0
C682 C 0.12511 0.17348 0.49463 0.0
C683 C 0.10515 0.16832 0.46899 0.0
C684 C 0.15324 0.16407 0.48845 0.0
C685 C 0.13895 0.19473 0.55347 0.0
C686 C 0.17345 0.18314 0.48098 0.0
C687 C 0.2004 0.17513 0.47778 0.0
C688 C 0.20788 0.14782 0.48207 0.0
C689 C 0.18741 0.12846 0.48783 0.0
C690 C 0.16025 0.13655 0.49095 0.0
H691 H 0.1291 0.20171 0.57821 0.0
H692 H 0.15092 0.17623 0.55934 0.0
H693 H 0.15317 0.21076 0.54462 0.0
H694 H 0.16842 0.2044 0.47831 0.0
H695 H 0.2155 0.19049 0.47252 0.0
H696 H 0.37337 0.18003 0.10035 0.0
H697 H 0.35224 0.1651 0.1554 0.0
H698 H 0.40456 0.2185 0.21469 0.0
H699 H 0.42553 0.23389 0.15959 0.0
H700 H 0.3779 0.13934 0.21007 0.0
H701 H 0.33112 0.2344 0.25811 0.0
H702 H 0.34281 0.23038 0.21321 0.0
H703 H 0.36648 0.23763 0.24824 0.0
C704 C 0.38012 0.18892 0.12505 0.0
C705 C 0.4011 0.20819 0.12561 0.0
C706 C 0.36803 0.18032 0.15651 0.0
C707 C 0.37658 0.19087 0.18917 0.0
C708 C 0.39721 0.21049 0.18977 0.0
H709 H 0.34942 0.15066 0.40877 0.0
H710 H 0.36357 0.17016 0.35226 0.0
C711 C 0.40928 0.21917 0.15826 0.0
C712 C 0.36523 0.17991 0.22262 0.0
H713 H 0.33317 0.19769 0.29911 0.0
C714 C 0.36789 0.15206 0.22939 0.0
C715 C 0.35226 0.19654 0.24786 0.0
C716 C 0.34773 0.22635 0.24143 0.0
C717 C 0.35853 0.14049 0.26103 0.0
C718 C 0.34577 0.15715 0.28639 0.0
C719 C 0.34293 0.18497 0.27958 0.0
C720 C 0.33601 0.14613 0.32061 0.0
C721 C 0.36309 0.11067 0.2675 0.0
C722 C 0.31542 0.12651 0.32163 0.0
C723 C 0.30727 0.11529 0.35393 0.0
C724 C 0.31952 0.12358 0.38578 0.0
C725 C 0.33963 0.14376 0.38471 0.0
C726 C 0.34773 0.15497 0.35245 0.0
H727 H 0.37845 0.10212 0.24926 0.0
H728 H 0.36978 0.10697 0.29518 0.0
H729 H 0.34382 0.09957 0.26319 0.0
H730 H 0.3058 0.11972 0.2974 0.0
H731 H 0.29164 0.09988 0.3539 0.0
H732 H 0.79275 0.42733 0.16237 0.0
H733 H 0.80668 0.40745 0.21904 0.0
H734 H 0.86429 0.35687 0.16501 0.0
H735 H 0.85037 0.37644 0.10828 0.0
H736 H 0.83365 0.32965 0.21865 0.0
H737 H 0.87989 0.42552 0.26692 0.0
H738 H 0.84525 0.42805 0.25266 0.0
H739 H 0.87111 0.42018 0.22104 0.0
C740 C 0.80824 0.41184 0.16253 0.0
C741 C 0.82058 0.40358 0.13087 0.0
C742 C 0.81627 0.4006 0.19494 0.0
C743 C 0.8368 0.38098 0.19625 0.0
C744 C 0.84849 0.37206 0.16458 0.0
H745 H 0.92581 0.29407 0.35941 0.0
H746 H 0.90503 0.30918 0.30387 0.0
C747 C 0.84053 0.38331 0.1322 0.0
C748 C 0.84666 0.37024 0.23066 0.0
H749 H 0.87928 0.38871 0.30674 0.0
C750 C 0.84362 0.34252 0.23796 0.0
C751 C 0.85968 0.3871 0.25575 0.0
C752 C 0.86444 0.41683 0.24873 0.0
C753 C 0.85296 0.33125 0.26994 0.0
C754 C 0.86619 0.34808 0.29492 0.0
C755 C 0.86908 0.37583 0.28763 0.0
C756 C 0.87754 0.33744 0.32866 0.0
C757 C 0.84816 0.30154 0.27694 0.0
C758 C 0.86928 0.3485 0.36106 0.0
C759 C 0.88128 0.34009 0.39277 0.0
C760 C 0.9019 0.32048 0.39273 0.0
C761 C 0.90985 0.30906 0.36034 0.0
C762 C 0.89787 0.31757 0.32858 0.0
H763 H 0.83137 0.29344 0.2604 0.0
H764 H 0.86675 0.29005 0.27036 0.0
H765 H 0.84336 0.29786 0.30522 0.0
H766 H 0.85372 0.36393 0.36177 0.0
H767 H 0.87471 0.34931 0.41726 0.0
H768 H 0.6728 0.87925 0.39959 0.0
H769 H 0.65801 0.8575 0.34463 0.0
H770 H 0.71159 0.9092 0.2851 0.0
H771 H 0.7268 0.93075 0.33998 0.0
H772 H 0.63314 0.88064 0.28694 0.0
H773 H 0.73063 0.83458 0.24716 0.0
H774 H 0.72488 0.84767 0.29107 0.0
H775 H 0.73284 0.87033 0.25527 0.0
C776 C 0.68156 0.88589 0.37481 0.0
C777 C 0.70105 0.90667 0.37414 0.0
C778 C 0.67308 0.87343 0.34343 0.0
C779 C 0.68401 0.88139 0.31079 0.0
C780 C 0.70334 0.90226 0.31003 0.0
H781 H 0.65107 0.84805 0.09071 0.0
H782 H 0.6689 0.86346 0.14774 0.0
C783 C 0.71188 0.9147 0.34142 0.0
C784 C 0.67434 0.86865 0.27744 0.0
H785 H 0.69544 0.83469 0.20378 0.0
C786 C 0.64671 0.87037 0.26891 0.0
C787 C 0.69208 0.85526 0.25393 0.0
C788 C 0.72172 0.85158 0.26241 0.0
C789 C 0.63647 0.85976 0.23708 0.0
C790 C 0.65427 0.84669 0.21337 0.0
C791 C 0.68185 0.84471 0.22202 0.0
C792 C 0.64473 0.83582 0.17891 0.0
C793 C 0.60682 0.86334 0.22857 0.0
C794 C 0.62575 0.81464 0.17747 0.0
C795 C 0.61554 0.80574 0.14488 0.0
C796 C 0.6242 0.81783 0.11316 0.0
C797 C 0.64394 0.83835 0.11466 0.0
C798 C 0.65416 0.84719 0.14722 0.0
H799 H 0.59721 0.87883 0.24572 0.0
H800 H 0.60396 0.86936 0.20047 0.0
H801 H 0.59613 0.84383 0.23275 0.0
H802 H 0.61855 0.80528 0.20161 0.0
H803 H 0.60042 0.78984 0.14461 0.0
H804 H 0.15715 0.71565 0.40977 0.0
H805 H 0.17627 0.7005 0.35342 0.0
H806 H 0.09583 0.68139 0.31568 0.0
H807 H 0.07678 0.69894 0.37074 0.0
H808 H 0.17928 0.65589 0.32479 0.0
H809 H 0.12054 0.71778 0.23051 0.0
H810 H 0.11915 0.72363 0.27749 0.0
H811 H 0.09791 0.69819 0.25711 0.0
C812 C 0.14365 0.70874 0.38897 0.0
C813 C 0.11558 0.70882 0.39406 0.0
C814 C 0.15452 0.69994 0.35686 0.0
C815 C 0.13755 0.69025 0.32964 0.0
C816 C 0.10941 0.6898 0.33533 0.0
H817 H 0.2005 0.58131 0.1676 0.0
H818 H 0.18232 0.60145 0.22166 0.0
C819 C 0.0985 0.69959 0.36693 0.0
C820 C 0.14942 0.67924 0.29633 0.0
H821 H 0.14199 0.67833 0.20645 0.0
C822 C 0.17132 0.66118 0.2989 0.0
C823 C 0.13957 0.68633 0.26227 0.0
C824 C 0.11823 0.70779 0.2567 0.0
C825 C 0.18335 0.64986 0.26873 0.0
C826 C 0.17213 0.65532 0.23487 0.0
C827 C 0.15046 0.67366 0.23226 0.0
C828 C 0.18268 0.64269 0.20179 0.0
C829 C 0.20849 0.63291 0.27373 0.0
C830 C 0.18756 0.65873 0.17166 0.0
C831 C 0.19668 0.64698 0.14024 0.0
C832 C 0.20185 0.61909 0.1386 0.0
C833 C 0.1971 0.60298 0.16853 0.0
C834 C 0.18699 0.61456 0.19956 0.0
H835 H 0.21972 0.63896 0.29801 0.0
H836 H 0.20261 0.61135 0.27693 0.0
H837 H 0.22239 0.63475 0.25084 0.0
H838 H 0.18438 0.68042 0.1724 0.0
H839 H 0.20017 0.6598 0.11742 0.0
H840 H 0.60835 0.89717 0.8994 0.0
H841 H 0.62099 0.91619 0.84204 0.0
H842 H 0.60091 0.84044 0.79156 0.0
H843 H 0.58806 0.82132 0.84899 0.0
H844 H 0.66214 0.89736 0.80181 0.0
H845 H 0.56676 0.89508 0.72426 0.0
H846 H 0.56748 0.89151 0.77183 0.0
H847 H 0.57505 0.86303 0.74396 0.0
C848 C 0.60626 0.88467 0.876 0.0
C849 C 0.59736 0.85767 0.87874 0.0
C850 C 0.61344 0.8956 0.84322 0.0
C851 C 0.61178 0.87984 0.81241 0.0
C852 C 0.60187 0.8532 0.81482 0.0
H853 H 0.70703 0.89034 0.62369 0.0
H854 H 0.68705 0.88071 0.68136 0.0
C855 C 0.59455 0.84226 0.84767 0.0
C856 C 0.62285 0.89045 0.77856 0.0
H857 H 0.60764 0.90154 0.69142 0.0
C858 C 0.65011 0.89852 0.77777 0.0
C859 C 0.60713 0.89227 0.74726 0.0
C860 C 0.57741 0.88527 0.74683 0.0
C861 C 0.6623 0.9075 0.74638 0.0
C862 C 0.64696 0.90806 0.71472 0.0
C863 C 0.61945 0.9009 0.71567 0.0
C864 C 0.65949 0.91471 0.68012 0.0
C865 C 0.69156 0.91628 0.74738 0.0
C866 C 0.65047 0.93692 0.66004 0.0
C867 C 0.66185 0.94245 0.62686 0.0
C868 C 0.68218 0.92563 0.61304 0.0
C869 C 0.69129 0.90358 0.63346 0.0
C870 C 0.68003 0.89816 0.66657 0.0
H871 H 0.69802 0.92205 0.77455 0.0
H872 H 0.7045 0.89922 0.73863 0.0
H873 H 0.69514 0.9337 0.72937 0.0
H874 H 0.63454 0.94986 0.66996 0.0
H875 H 0.65417 0.95938 0.6116 0.0
H876 H 0.09409 0.71659 0.66137 0.0
H877 H 0.10903 0.69927 0.71917 0.0
H878 H 0.1309 0.62335 0.67085 0.0
H879 H 0.11629 0.64058 0.61318 0.0
H880 H 0.09521 0.6542 0.76041 0.0
H881 H 0.2019 0.64833 0.71581 0.0
H882 H 0.17609 0.66582 0.69083 0.0
H883 H 0.17867 0.62953 0.68866 0.0
C884 C 0.10171 0.69607 0.66322 0.0
C885 C 0.10441 0.68009 0.63268 0.0
C886 C 0.11031 0.68623 0.6962 0.0
C887 C 0.12168 0.66025 0.69916 0.0
C888 C 0.12288 0.64372 0.66904 0.0
H889 H 0.16014 0.57706 0.89853 0.0
H890 H 0.14098 0.58923 0.84073 0.0
C891 C 0.11447 0.65357 0.63612 0.0
C892 C 0.13328 0.65079 0.73335 0.0
H893 H 0.19222 0.62987 0.77221 0.0
C894 C 0.11641 0.64886 0.76304 0.0
C895 C 0.16105 0.64418 0.73683 0.0
C896 C 0.18058 0.64729 0.70646 0.0
C897 C 0.1265 0.64027 0.79606 0.0
C898 C 0.15412 0.633 0.79928 0.0
C899 C 0.17099 0.63512 0.76962 0.0
C900 C 0.16634 0.62459 0.8336 0.0
C901 C 0.10768 0.63979 0.8274 0.0
C902 C 0.1877 0.63972 0.84812 0.0
C903 C 0.19895 0.63259 0.8808 0.0
C904 C 0.18912 0.61011 0.89975 0.0
C905 C 0.16829 0.59441 0.88461 0.0
C906 C 0.15704 0.60157 0.85179 0.0
H907 H 0.08921 0.65208 0.82257 0.0
H908 H 0.10125 0.61861 0.83255 0.0
H909 H 0.11799 0.64753 0.85153 0.0
H910 H 0.19541 0.6574 0.83442 0.0
H911 H 0.21528 0.64486 0.89136 0.0
H912 H 0.33708 0.14658 0.62502 0.0
H913 H 0.35706 0.15672 0.68269 0.0
H914 H 0.3855 0.07444 0.69116 0.0
H915 H 0.36585 0.06419 0.63279 0.0
H916 H 0.34644 0.13187 0.74855 0.0
H917 H 0.45426 0.12141 0.70894 0.0
H918 H 0.42719 0.12502 0.67702 0.0
H919 H 0.43244 0.0932 0.69898 0.0
C920 C 0.34769 0.13063 0.63903 0.0
C921 C 0.3501 0.10463 0.62417 0.0
C922 C 0.35901 0.13645 0.67205 0.0
C923 C 0.37313 0.11648 0.69095 0.0
C924 C 0.37507 0.09028 0.67671 0.0
H925 H 0.41879 0.1307 0.91254 0.0
H926 H 0.40563 0.11335 0.85436 0.0
C927 C 0.36359 0.08437 0.64358 0.0
C928 C 0.38534 0.12335 0.72576 0.0
H929 H 0.44574 0.13192 0.76894 0.0
C930 C 0.36813 0.13172 0.75308 0.0
C931 C 0.41369 0.12345 0.73141 0.0
C932 C 0.4331 0.1155 0.70254 0.0
C933 C 0.37847 0.14018 0.78589 0.0
C934 C 0.40677 0.14012 0.79164 0.0
C935 C 0.42405 0.13179 0.76441 0.0
C936 C 0.41844 0.14908 0.82587 0.0
C937 C 0.35912 0.14964 0.81408 0.0
C938 C 0.43094 0.17454 0.82887 0.0
C939 C 0.43836 0.18463 0.86219 0.0
C940 C 0.43335 0.16939 0.89295 0.0
C941 C 0.42244 0.14316 0.88943 0.0
C942 C 0.415 0.13315 0.85623 0.0
H943 H 0.33829 0.15254 0.80357 0.0
H944 H 0.35831 0.13436 0.83561 0.0
H945 H 0.36622 0.16902 0.82579 0.0
H946 H 0.43375 0.18711 0.80565 0.0
H947 H 0.44661 0.20493 0.86402 0.0
H948 H 0.9451 0.32307 0.65574 0.0
H949 H 0.933 0.34218 0.71353 0.0
H950 H 0.90951 0.41688 0.66293 0.0
H951 H 0.92154 0.398 0.60529 0.0
H952 H 0.94794 0.39164 0.75158 0.0
H953 H 0.83959 0.38847 0.71129 0.0
H954 H 0.86559 0.37055 0.68749 0.0
H955 H 0.8617 0.40646 0.6818 0.0
C956 C 0.93794 0.34377 0.65707 0.0
C957 C 0.93387 0.35889 0.62595 0.0
C958 C 0.93095 0.35463 0.69005 0.0
C959 C 0.91986 0.38074 0.69237 0.0
C960 C 0.91754 0.3965 0.66162 0.0
H961 H 0.87367 0.46598 0.88807 0.0
H962 H 0.89297 0.45584 0.82958 0.0
C963 C 0.92441 0.38568 0.62873 0.0
C964 C 0.90882 0.39075 0.72639 0.0
H965 H 0.84949 0.40706 0.76729 0.0
C966 C 0.92646 0.39519 0.75502 0.0
C967 C 0.88072 0.39511 0.73083 0.0
C968 C 0.86069 0.38973 0.70138 0.0
C969 C 0.91669 0.40388 0.78804 0.0
C970 C 0.88862 0.40829 0.79236 0.0
C971 C 0.87103 0.40395 0.76371 0.0
C972 C 0.87676 0.41514 0.8272 0.0
C973 C 0.93623 0.40749 0.81842 0.0
C974 C 0.86082 0.39587 0.8447 0.0
C975 C 0.84986 0.40157 0.87782 0.0
C976 C 0.8544 0.42679 0.89409 0.0
C977 C 0.86976 0.44643 0.8761 0.0
C978 C 0.88096 0.44059 0.84291 0.0
H979 H 0.9568 0.39993 0.812 0.0
H980 H 0.93776 0.42932 0.82511 0.0
H981 H 0.92876 0.39667 0.84225 0.0
H982 H 0.85717 0.3762 0.8329 0.0
H983 H 0.83784 0.38616 0.89084 0.0
loop_
_geom_bond_atom_site_label_1
_geom_bond_atom_site_label_2
_geom_bond_distance
_geom_bond_site_symmetry_2
_ccdc_geom_bond_type
Co0 N4 2.148 . S
Co0 N10 2.128 . S
Co0 N20 2.194 1_554 S
Co0 O25 2.351 . S
Co0 O26 2.155 . S
Co0 O27 2.096 . S
C1 N4 1.301 . S
C1 N5 1.328 . S
C1 H6 0.930 . S
C2 C3 1.333 . S
C2 N4 1.317 . S
C2 H7 0.930 . S
C3 C2 1.333 . S
C3 N5 1.350 . S
C3 H29 0.931 . S
N4 Co0 2.148 . S
N4 C1 1.301 . S
N4 C2 1.317 . S
N5 C1 1.328 . S
N5 C3 1.350 . S
H6 C1 0.930 . S
H7 C2 0.930 . S
C8 O9 1.224 1_554 S
C8 O27 1.247 . S
O9 C8 1.224 1_556 S
N10 Co0 2.128 . S
N10 C11 1.355 . S
N10 C13 1.311 . S
C11 N10 1.355 . S
C11 C12 1.363 . S
C11 H23 0.929 . S
C12 C11 1.363 . S
C12 N14 1.375 . S
C12 H30 0.931 . S
C13 N10 1.311 . S
C13 N14 1.347 . S
C13 H24 0.929 . S
N14 C12 1.375 . S
N14 C13 1.347 . S
C15 C18 1.365 . S
C15 N20 1.328 . S
C15 H21 0.929 1_556 S
C16 C17 1.362 . S
C16 C19 1.378 . S
C16 H31 0.929 . S
C17 C16 1.362 . S
C17 C18 1.366 . S
C18 C15 1.365 . S
C18 C17 1.366 . S
C18 H32 0.930 . S
C19 C16 1.378 . S
C19 N20 1.315 . S
C19 H22 0.930 . S
N20 Co0 2.194 1_556 S
N20 C15 1.328 . S
N20 C19 1.315 . S
H21 C15 0.929 1_554 S
H22 C19 0.930 . S
H23 C11 0.929 . S
H24 C13 0.929 . S
O25 Co0 2.351 . S
O25 C28 1.244 . S
O26 Co0 2.155 . S
O26 C28 1.240 . S
O27 Co0 2.096 . S
O27 C8 1.247 . S
C28 O25 1.244 . S
C28 O26 1.240 . S
H29 C3 0.931 . S
H30 C12 0.931 . S
H31 C16 0.929 . S
H32 C18 0.930 . S
Co33 N37 2.148 . S
Co33 N43 2.128 . S
Co33 N53 2.194 1_554 S
Co33 O58 2.351 . S
Co33 O59 2.155 . S
Co33 O60 2.096 . S
C34 N37 1.301 . S
C34 N38 1.328 . S
C34 H39 0.930 . S
C35 C36 1.333 . S
C35 N37 1.317 . S
C35 H40 0.930 . S
C36 C35 1.333 . S
C36 N38 1.350 . S
C36 H62 0.931 . S
N37 Co33 2.148 . S
N37 C34 1.301 . S
N37 C35 1.317 . S
N38 C34 1.328 . S
N38 C36 1.350 . S
H39 C34 0.930 . S
H40 C35 0.930 . S
C41 O42 1.224 1_554 S
C41 O60 1.247 . S
O42 C41 1.224 1_556 S
N43 Co33 2.128 . S
N43 C44 1.355 . S
N43 C46 1.311 . S
C44 N43 1.355 . S
C44 C45 1.363 . S
C44 H56 0.929 . S
C45 C44 1.363 . S
C45 N47 1.375 . S
C45 H63 0.931 . S
C46 N43 1.311 . S
C46 N47 1.347 . S
C46 H57 0.929 . S
N47 C45 1.375 . S
N47 C46 1.347 . S
C48 C51 1.365 . S
C48 N53 1.328 . S
C48 H54 0.929 1_556 S
C49 C50 1.362 . S
C49 C52 1.378 . S
C49 H64 0.929 . S
C50 C49 1.362 . S
C50 C51 1.366 . S
C51 C48 1.365 . S
C51 C50 1.366 . S
C51 H65 0.930 . S
C52 C49 1.378 . S
C52 N53 1.315 . S
C52 H55 0.930 . S
N53 Co33 2.194 1_556 S
N53 C48 1.328 . S
N53 C52 1.315 . S
H54 C48 0.929 1_554 S
H55 C52 0.930 . S
H56 C44 0.929 . S
H57 C46 0.929 . S
O58 Co33 2.351 . S
O58 C61 1.244 . S
O59 Co33 2.155 . S
O59 C61 1.240 . S
O60 Co33 2.096 . S
O60 C41 1.247 . S
C61 O58 1.244 . S
C61 O59 1.240 . S
H62 C36 0.931 . S
H63 C45 0.931 . S
H64 C49 0.929 . S
H65 C51 0.930 . S
Co66 N70 2.148 . S
Co66 N76 2.128 . S
Co66 N86 2.194 1_554 S
Co66 O91 2.351 . S
Co66 O92 2.155 . S
Co66 O93 2.096 . S
C67 N70 1.301 . S
C67 N71 1.328 . S
C67 H72 0.930 . S
C68 C69 1.333 . S
C68 N70 1.317 . S
C68 H73 0.930 . S
C69 C68 1.333 . S
C69 N71 1.350 . S
C69 H95 0.931 . S
N70 Co66 2.148 . S
N70 C67 1.301 . S
N70 C68 1.317 . S
N71 C67 1.328 . S
N71 C69 1.350 . S
H72 C67 0.930 . S
H73 C68 0.930 . S
C74 O75 1.224 1_554 S
C74 O93 1.247 . S
O75 C74 1.224 1_556 S
N76 Co66 2.128 . S
N76 C77 1.355 . S
N76 C79 1.311 . S
C77 N76 1.355 . S
C77 C78 1.363 . S
C77 H89 0.929 . S
C78 C77 1.363 . S
C78 N80 1.375 . S
C78 H96 0.931 . S
C79 N76 1.311 . S
C79 N80 1.347 . S
C79 H90 0.929 . S
N80 C78 1.375 . S
N80 C79 1.347 . S
C81 C84 1.365 . S
C81 N86 1.328 . S
C81 H87 0.929 1_556 S
C82 C83 1.362 . S
C82 C85 1.378 . S
C82 H97 0.929 . S
C83 C82 1.362 . S
C83 C84 1.366 . S
C84 C81 1.365 . S
C84 C83 1.366 . S
C84 H98 0.930 . S
C85 C82 1.378 . S
C85 N86 1.315 . S
C85 H88 0.930 . S
N86 Co66 2.194 1_556 S
N86 C81 1.328 . S
N86 C85 1.315 . S
H87 C81 0.929 1_554 S
H88 C85 0.930 . S
H89 C77 0.929 . S
H90 C79 0.929 . S
O91 Co66 2.351 . S
O91 C94 1.244 . S
O92 Co66 2.155 . S
O92 C94 1.240 . S
O93 Co66 2.096 . S
O93 C74 1.247 . S
C94 O91 1.244 . S
C94 O92 1.240 . S
H95 C69 0.931 . S
H96 C78 0.931 . S
H97 C82 0.929 . S
H98 C84 0.930 . S
Co99 N103 2.148 . S
Co99 N109 2.128 . S
Co99 N119 2.194 1_554 S
Co99 O124 2.351 . S
Co99 O125 2.155 . S
Co99 O126 2.096 . S
C100 N103 1.301 . S
C100 N104 1.328 . S
C100 H105 0.930 . S
C101 C102 1.333 . S
C101 N103 1.317 . S
C101 H106 0.930 . S
C102 C101 1.333 . S
C102 N104 1.350 . S
C102 H128 0.931 . S
N103 Co99 2.148 . S
N103 C100 1.301 . S
N103 C101 1.317 . S
N104 C100 1.328 . S
N104 C102 1.350 . S
H105 C100 0.930 . S
H106 C101 0.930 . S
C107 O108 1.224 1_554 S
C107 O126 1.247 . S
O108 C107 1.224 1_556 S
N109 Co99 2.128 . S
N109 C110 1.355 . S
N109 C112 1.311 . S
C110 N109 1.355 . S
C110 C111 1.363 . S
C110 H122 0.929 . S
C111 C110 1.363 . S
C111 N113 1.375 . S
C111 H129 0.931 . S
C112 N109 1.311 . S
C112 N113 1.347 . S
C112 H123 0.929 . S
N113 C111 1.375 . S
N113 C112 1.347 . S
C114 C117 1.365 . S
C114 N119 1.328 . S
C114 H120 0.929 1_556 S
C115 C116 1.362 . S
C115 C118 1.378 . S
C115 H130 0.929 . S
C116 C115 1.362 . S
C116 C117 1.366 . S
C117 C114 1.365 . S
C117 C116 1.366 . S
C117 H131 0.930 . S
C118 C115 1.378 . S
C118 N119 1.315 . S
C118 H121 0.930 . S
N119 Co99 2.194 1_556 S
N119 C114 1.328 . S
N119 C118 1.315 . S
H120 C114 0.929 1_554 S
H121 C118 0.930 . S
H122 C110 0.929 . S
H123 C112 0.929 . S
O124 Co99 2.351 . S
O124 C127 1.244 . S
O125 Co99 2.155 . S
O125 C127 1.240 . S
O126 Co99 2.096 . S
O126 C107 1.247 . S
C127 O124 1.244 . S
C127 O125 1.240 . S
H128 C102 0.931 . S
H129 C111 0.931 . S
H130 C115 0.929 . S
H131 C117 0.930 . S
Co132 N136 2.148 . S
Co132 N142 2.128 . S
Co132 N152 2.194 . S
Co132 O157 2.351 . S
Co132 O158 2.155 . S
Co132 O159 2.096 . S
C133 N136 1.301 . S
C133 N137 1.328 . S
C133 H138 0.930 . S
C134 C135 1.333 . S
C134 N136 1.317 . S
C134 H139 0.930 . S
C135 C134 1.333 . S
C135 N137 1.350 . S
C135 H161 0.931 1_655 S
N136 Co132 2.148 . S
N136 C133 1.301 . S
N136 C134 1.317 . S
N137 C133 1.328 . S
N137 C135 1.350 . S
H138 C133 0.930 . S
H139 C134 0.930 . S
C140 O141 1.224 . S
C140 O159 1.247 . S
O141 C140 1.224 . S
N142 Co132 2.128 . S
N142 C143 1.355 . S
N142 C145 1.311 . S
C143 N142 1.355 . S
C143 C144 1.363 . S
C143 H155 0.929 . S
C144 C143 1.363 . S
C144 N146 1.375 . S
C144 H162 0.931 . S
C145 N142 1.311 . S
C145 N146 1.347 . S
C145 H156 0.929 . S
N146 C144 1.375 . S
N146 C145 1.347 . S
C147 C150 1.365 . S
C147 N152 1.328 . S
C147 H153 0.929 . S
C148 C149 1.362 . S
C148 C151 1.378 . S
C148 H163 0.929 . S
C149 C148 1.362 . S
C149 C150 1.366 . S
C150 C147 1.365 . S
C150 C149 1.366 . S
C150 H164 0.930 . S
C151 C148 1.378 . S
C151 N152 1.315 . S
C151 H154 0.930 . S
N152 Co132 2.194 . S
N152 C147 1.328 . S
N152 C151 1.315 . S
H153 C147 0.929 . S
H154 C151 0.930 . S
H155 C143 0.929 . S
H156 C145 0.929 . S
O157 Co132 2.351 . S
O157 C160 1.244 . S
O158 Co132 2.155 . S
O158 C160 1.240 . S
O159 Co132 2.096 . S
O159 C140 1.247 . S
C160 O157 1.244 . S
C160 O158 1.240 . S
H161 C135 0.931 1_455 S
H162 C144 0.931 . S
H163 C148 0.929 . S
H164 C150 0.930 . S
Co165 N169 2.148 . S
Co165 N175 2.128 . S
Co165 N185 2.194 . S
Co165 O190 2.351 . S
Co165 O191 2.155 . S
Co165 O192 2.096 . S
C166 N169 1.301 . S
C166 N170 1.328 . S
C166 H171 0.930 . S
C167 C168 1.333 . S
C167 N169 1.317 . S
C167 H172 0.930 . S
C168 C167 1.333 . S
C168 N170 1.350 . S
C168 H194 0.931 1_565 S
N169 Co165 2.148 . S
N169 C166 1.301 . S
N169 C167 1.317 . S
N170 C166 1.328 . S
N170 C168 1.350 . S
H171 C166 0.930 . S
H172 C167 0.930 . S
C173 O174 1.224 . S
C173 O192 1.247 . S
O174 C173 1.224 . S
N175 Co165 2.128 . S
N175 C176 1.355 . S
N175 C178 1.311 . S
C176 N175 1.355 . S
C176 C177 1.363 . S
C176 H188 0.929 . S
C177 C176 1.363 . S
C177 N179 1.375 . S
C177 H195 0.931 . S
C178 N175 1.311 . S
C178 N179 1.347 . S
C178 H189 0.929 . S
N179 C177 1.375 . S
N179 C178 1.347 . S
C180 C183 1.365 . S
C180 N185 1.328 . S
C180 H186 0.929 . S
C181 C182 1.362 . S
C181 C184 1.378 . S
C181 H196 0.929 . S
C182 C181 1.362 . S
C182 C183 1.366 . S
C183 C180 1.365 . S
C183 C182 1.366 . S
C183 H197 0.930 . S
C184 C181 1.378 . S
C184 N185 1.315 . S
C184 H187 0.930 . S
N185 Co165 2.194 . S
N185 C180 1.328 . S
N185 C184 1.315 . S
H186 C180 0.929 . S
H187 C184 0.930 . S
H188 C176 0.929 . S
H189 C178 0.929 . S
O190 Co165 2.351 . S
O190 C193 1.244 . S
O191 Co165 2.155 . S
O191 C193 1.240 . S
O192 Co165 2.096 . S
O192 C173 1.247 . S
C193 O190 1.244 . S
C193 O191 1.240 . S
H194 C168 0.931 1_545 S
H195 C177 0.931 . S
H196 C181 0.929 . S
H197 C183 0.930 . S
Co198 N202 2.148 . S
Co198 N208 2.128 . S
Co198 N218 2.194 . S
Co198 O223 2.351 . S
Co198 O224 2.155 . S
Co198 O225 2.096 . S
C199 N202 1.301 . S
C199 N203 1.328 . S
C199 H204 0.930 . S
C200 C201 1.333 . S
C200 N202 1.317 . S
C200 H205 0.930 . S
C201 C200 1.333 . S
C201 N203 1.350 . S
C201 H227 0.931 1_455 S
N202 Co198 2.148 . S
N202 C199 1.301 . S
N202 C200 1.317 . S
N203 C199 1.328 . S
N203 C201 1.350 . S
H204 C199 0.930 . S
H205 C200 0.930 . S
C206 O207 1.224 . S
C206 O225 1.247 . S
O207 C206 1.224 . S
N208 Co198 2.128 . S
N208 C209 1.355 . S
N208 C211 1.311 . S
C209 N208 1.355 . S
C209 C210 1.363 . S
C209 H221 0.929 . S
C210 C209 1.363 . S
C210 N212 1.375 . S
C210 H228 0.931 . S
C211 N208 1.311 . S
C211 N212 1.347 . S
C211 H222 0.929 . S
N212 C210 1.375 . S
N212 C211 1.347 . S
C213 C216 1.365 . S
C213 N218 1.328 . S
C213 H219 0.929 . S
C214 C215 1.362 . S
C214 C217 1.378 . S
C214 H229 0.929 . S
C215 C214 1.362 . S
C215 C216 1.366 . S
C216 C213 1.365 . S
C216 C215 1.366 . S
C216 H230 0.930 . S
C217 C214 1.378 . S
C217 N218 1.315 . S
C217 H220 0.930 . S
N218 Co198 2.194 . S
N218 C213 1.328 . S
N218 C217 1.315 . S
H219 C213 0.929 . S
H220 C217 0.930 . S
H221 C209 0.929 . S
H222 C211 0.929 . S
O223 Co198 2.351 . S
O223 C226 1.244 . S
O224 Co198 2.155 . S
O224 C226 1.240 . S
O225 Co198 2.096 . S
O225 C206 1.247 . S
C226 O223 1.244 . S
C226 O224 1.240 . S
H227 C201 0.931 1_655 S
H228 C210 0.931 . S
H229 C214 0.929 . S
H230 C216 0.930 . S
Co231 N235 2.148 . S
Co231 N241 2.128 . S
Co231 N251 2.194 . S
Co231 O256 2.351 . S
Co231 O257 2.155 . S
Co231 O258 2.096 . S
C232 N235 1.301 . S
C232 N236 1.328 . S
C232 H237 0.930 . S
C233 C234 1.333 . S
C233 N235 1.317 . S
C233 H238 0.930 . S
C234 C233 1.333 . S
C234 N236 1.350 . S
C234 H260 0.931 1_545 S
N235 Co231 2.148 . S
N235 C232 1.301 . S
N235 C233 1.317 . S
N236 C232 1.328 . S
N236 C234 1.350 . S
H237 C232 0.930 . S
H238 C233 0.930 . S
C239 O240 1.224 . S
C239 O258 1.247 . S
O240 C239 1.224 . S
N241 Co231 2.128 . S
N241 C242 1.355 . S
N241 C244 1.311 . S
C242 N241 1.355 . S
C242 C243 1.363 . S
C242 H254 0.929 . S
C243 C242 1.363 . S
C243 N245 1.375 . S
C243 H261 0.931 . S
C244 N241 1.311 . S
C244 N245 1.347 . S
C244 H255 0.929 . S
N245 C243 1.375 . S
N245 C244 1.347 . S
C246 C249 1.365 . S
C246 N251 1.328 . S
C246 H252 0.929 . S
C247 C248 1.362 . S
C247 C250 1.378 . S
C247 H262 0.929 . S
C248 C247 1.362 . S
C248 C249 1.366 . S
C249 C246 1.365 . S
C249 C248 1.366 . S
C249 H263 0.930 . S
C250 C247 1.378 . S
C250 N251 1.315 . S
C250 H253 0.930 . S
N251 Co231 2.194 . S
N251 C246 1.328 . S
N251 C250 1.315 . S
H252 C246 0.929 . S
H253 C250 0.930 . S
H254 C242 0.929 . S
H255 C244 0.929 . S
O256 Co231 2.351 . S
O256 C259 1.244 . S
O257 Co231 2.155 . S
O257 C259 1.240 . S
O258 Co231 2.096 . S
O258 C239 1.247 . S
C259 O256 1.244 . S
C259 O257 1.240 . S
H260 C234 0.931 1_565 S
H261 C243 0.931 . S
H262 C247 0.929 . S
H263 C249 0.930 . S
H264 C272 0.929 . S
H265 C274 0.930 . S
H266 C276 0.930 . S
H267 C279 0.929 . S
H268 C282 0.930 . S
H269 C284 0.956 1_545 S
H270 C284 0.960 . S
H271 C284 0.960 . S
C272 H264 0.929 . S
C272 C273 1.377 . S
C272 C274 1.384 . S
C273 C272 1.377 . S
C273 C279 1.390 . S
C274 H265 0.930 . S
C274 C272 1.384 . S
C274 C275 1.372 . S
C275 C274 1.372 . S
C275 C276 1.400 . S
C275 C280 1.490 . S
C276 H266 0.930 . S
C276 C275 1.400 . S
C276 C279 1.386 . S
H277 C293 0.930 . S
H278 C294 0.931 . S
C279 H267 0.929 . S
C279 C273 1.390 . S
C279 C276 1.386 . S
C280 C275 1.490 . S
C280 C282 1.395 . S
C280 C283 1.403 . S
H281 C287 0.930 . S
C282 H268 0.930 . S
C282 C280 1.395 . S
C282 C285 1.403 1_565 S
C283 C280 1.403 . S
C283 C284 1.524 1_554 S
C283 C287 1.400 1_565 S
C284 H269 0.956 1_565 S
C284 H270 0.960 . S
C284 H271 0.960 . S
C284 C283 1.524 1_556 S
C285 C282 1.403 1_545 S
C285 C286 1.392 . S
C285 C289 1.495 . S
C286 C285 1.392 . S
C286 C287 1.385 . S
C286 C288 1.478 . S
C287 H281 0.930 . S
C287 C283 1.400 1_545 S
C287 C286 1.385 . S
C288 C286 1.478 . S
C288 C290 1.381 . S
C288 C294 1.383 . S
C289 C285 1.495 . S
C289 H295 0.928 1_545 S
C289 H296 0.961 . S
C289 H297 0.960 . S
C290 C288 1.381 . S
C290 C291 1.394 . S
C290 H298 0.930 . S
C291 C290 1.394 . S
C291 C292 1.383 . S
C291 H299 0.929 . S
C292 C291 1.383 . S
C292 C293 1.377 . S
C293 H277 0.930 . S
C293 C292 1.377 . S
C293 C294 1.379 . S
C294 H278 0.931 . S
C294 C288 1.383 . S
C294 C293 1.379 . S
H295 C289 0.928 1_565 S
H296 C289 0.961 . S
H297 C289 0.960 . S
H298 C290 0.930 . S
H299 C291 0.929 . S
H300 C308 0.929 1_556 S
H301 C310 0.930 1_556 S
H302 C312 0.930 . S
H303 C315 0.929 . S
H304 C318 0.930 1_556 S
H305 C320 0.940 1_455 S
H306 C320 0.960 . S
H307 C320 0.960 . S
C308 H300 0.929 1_554 S
C308 C309 1.377 . S
C308 C310 1.384 . S
C309 C308 1.377 . S
C309 C315 1.390 . S
C310 H301 0.930 1_554 S
C310 C308 1.384 . S
C310 C311 1.372 . S
C311 C310 1.372 . S
C311 C312 1.400 . S
C311 C316 1.490 . S
C312 H302 0.930 . S
C312 C311 1.400 . S
C312 C315 1.386 . S
H313 C329 0.930 . S
H314 C330 0.931 . S
C315 H303 0.929 . S
C315 C309 1.390 . S
C315 C312 1.386 . S
C316 C311 1.490 . S
C316 C318 1.395 . S
C316 C319 1.403 . S
H317 C323 0.930 . S
C318 H304 0.930 1_554 S
C318 C316 1.395 . S
C318 C321 1.403 1_655 S
C319 C316 1.403 . S
C319 C320 1.524 . S
C319 C323 1.400 1_655 S
C320 H305 0.940 1_655 S
C320 H306 0.960 . S
C320 H307 0.960 . S
C320 C319 1.524 . S
C321 C318 1.403 1_455 S
C321 C322 1.392 . S
C321 C325 1.495 1_554 S
C322 C321 1.392 . S
C322 C323 1.385 . S
C322 C324 1.478 . S
C323 H317 0.930 . S
C323 C319 1.400 1_455 S
C323 C322 1.385 . S
C324 C322 1.478 . S
C324 C326 1.381 . S
C324 C330 1.383 . S
C325 C321 1.495 1_556 S
C325 H331 0.971 . S
C325 H332 0.961 . S
C325 H333 0.960 . S
C326 C324 1.381 . S
C326 C327 1.394 . S
C326 H334 0.930 1_554 S
C327 C326 1.394 . S
C327 C328 1.383 . S
C327 H335 0.929 1_554 S
C328 C327 1.383 . S
C328 C329 1.377 . S
C329 H313 0.930 . S
C329 C328 1.377 . S
C329 C330 1.379 . S
C330 H314 0.931 . S
C330 C324 1.383 . S
C330 C329 1.379 . S
H331 C325 0.971 . S
H332 C325 0.961 . S
H333 C325 0.960 . S
H334 C326 0.930 1_556 S
H335 C327 0.929 1_556 S
H336 C344 0.929 . S
H337 C346 0.930 . S
H338 C348 0.930 1_455 S
H339 C351 0.929 . S
H340 C354 0.930 . S
H341 C356 0.960 . S
H342 C356 0.960 . S
H343 C356 0.960 . S
C344 H336 0.929 . S
C344 C345 1.377 . S
C344 C346 1.384 . S
C345 C344 1.377 . S
C345 C351 1.390 . S
C346 H337 0.930 . S
C346 C344 1.384 . S
C346 C347 1.372 . S
C347 C346 1.372 . S
C347 C348 1.400 . S
C347 C352 1.490 . S
C348 H338 0.930 1_655 S
C348 C347 1.400 . S
C348 C351 1.386 . S
H349 C365 0.930 . S
H350 C366 0.931 . S
C351 H339 0.929 . S
C351 C345 1.390 . S
C351 C348 1.386 . S
C352 C347 1.490 . S
C352 C354 1.395 . S
C352 C355 1.403 1_655 S
H353 C359 0.930 . S
C354 H340 0.930 . S
C354 C352 1.395 . S
C354 C357 1.403 . S
C355 C352 1.403 1_455 S
C355 C356 1.524 . S
C355 C359 1.400 . S
C356 H341 0.960 . S
C356 H342 0.960 . S
C356 H343 0.960 . S
C356 C355 1.524 . S
C357 C354 1.403 . S
C357 C358 1.392 1_655 S
C357 C361 1.495 . S
C358 C357 1.392 1_455 S
C358 C359 1.385 . S
C358 C360 1.478 . S
C359 H353 0.930 . S
C359 C355 1.400 . S
C359 C358 1.385 . S
C360 C358 1.478 . S
C360 C362 1.381 . S
C360 C366 1.383 . S
C361 C357 1.495 . S
C361 H367 0.959 . S
C361 H368 0.961 . S
C361 H369 0.960 . S
C362 C360 1.381 . S
C362 C363 1.394 . S
C362 H370 0.930 1_455 S
C363 C362 1.394 . S
C363 C364 1.383 . S
C363 H371 0.929 . S
C364 C363 1.383 . S
C364 C365 1.377 . S
C365 H349 0.930 . S
C365 C364 1.377 . S
C365 C366 1.379 . S
C366 H350 0.931 . S
C366 C360 1.383 . S
C366 C365 1.379 . S
H367 C361 0.959 . S
H368 C361 0.961 . S
H369 C361 0.960 . S
H370 C362 0.930 1_655 S
H371 C363 0.929 . S
H372 C380 0.929 . S
H373 C382 0.930 . S
H374 C384 0.930 . S
H375 C387 0.929 . S
H376 C390 0.930 . S
H377 C392 0.960 . S
H378 C392 0.960 . S
H379 C392 0.960 . S
C380 H372 0.929 . S
C380 C381 1.377 . S
C380 C382 1.384 . S
C381 C380 1.377 . S
C381 C387 1.390 . S
C382 H373 0.930 . S
C382 C380 1.384 . S
C382 C383 1.372 . S
C383 C382 1.372 . S
C383 C384 1.400 . S
C383 C388 1.490 . S
C384 H374 0.930 . S
C384 C383 1.400 . S
C384 C387 1.386 . S
H385 C401 0.930 . S
H386 C402 0.931 1_565 S
C387 H375 0.929 . S
C387 C381 1.390 . S
C387 C384 1.386 . S
C388 C383 1.490 . S
C388 C390 1.395 . S
C388 C391 1.403 1_565 S
H389 C395 0.930 . S
C390 H376 0.930 . S
C390 C388 1.395 . S
C390 C393 1.403 . S
C391 C388 1.403 1_545 S
C391 C392 1.524 . S
C391 C395 1.400 . S
C392 H377 0.960 . S
C392 H378 0.960 . S
C392 H379 0.960 . S
C392 C391 1.524 . S
C393 C390 1.403 . S
C393 C394 1.392 1_565 S
C393 C397 1.495 . S
C394 C393 1.392 1_545 S
C394 C395 1.385 . S
C394 C396 1.478 . S
C395 H389 0.930 . S
C395 C391 1.400 . S
C395 C394 1.385 . S
C396 C394 1.478 . S
C396 C398 1.381 . S
C396 C402 1.383 . S
C397 C393 1.495 . S
C397 H403 0.959 . S
C397 H404 0.961 . S
C397 H405 0.960 . S
C398 C396 1.381 . S
C398 C399 1.394 . S
C398 H406 0.930 . S
C399 C398 1.394 . S
C399 C400 1.383 . S
C399 H407 0.929 . S
C400 C399 1.383 . S
C400 C401 1.377 . S
C401 H385 0.930 . S
C401 C400 1.377 . S
C401 C402 1.379 . S
C402 H386 0.931 1_545 S
C402 C396 1.383 . S
C402 C401 1.379 . S
H403 C397 0.959 . S
H404 C397 0.961 . S
H405 C397 0.960 . S
H406 C398 0.930 . S
H407 C399 0.929 . S
H408 C416 0.929 . S
H409 C418 0.930 . S
H410 C420 0.930 . S
H411 C423 0.929 . S
H412 C426 0.930 . S
H413 C428 0.960 . S
H414 C428 0.960 . S
H415 C428 0.960 . S
C416 H408 0.929 . S
C416 C417 1.377 . S
C416 C418 1.384 . S
C417 C416 1.377 . S
C417 C423 1.390 1_554 S
C418 H409 0.930 . S
C418 C416 1.384 . S
C418 C419 1.372 . S
C419 C418 1.372 . S
C419 C420 1.400 1_554 S
C419 C424 1.490 . S
C420 H410 0.930 . S
C420 C419 1.400 1_556 S
C420 C423 1.386 . S
H421 C437 0.930 . S
H422 C438 0.931 . S
C423 H411 0.929 . S
C423 C417 1.390 1_556 S
C423 C420 1.386 . S
C424 C419 1.490 . S
C424 C426 1.395 . S
C424 C427 1.403 . S
H425 C431 0.930 . S
C426 H412 0.930 . S
C426 C424 1.395 . S
C426 C429 1.403 . S
C427 C424 1.403 . S
C427 C428 1.524 . S
C427 C431 1.400 . S
C428 H413 0.960 . S
C428 H414 0.960 . S
C428 H415 0.960 . S
C428 C427 1.524 . S
C429 C426 1.403 . S
C429 C430 1.392 . S
C429 C433 1.495 . S
C430 C429 1.392 . S
C430 C431 1.385 . S
C430 C432 1.478 . S
C431 H425 0.930 . S
C431 C427 1.400 . S
C431 C430 1.385 . S
C432 C430 1.478 . S
C432 C434 1.381 . S
C432 C438 1.383 1_554 S
C433 C429 1.495 . S
C433 H439 0.959 . S
C433 H440 0.961 . S
C433 H441 0.960 . S
C434 C432 1.381 . S
C434 C435 1.394 . S
C434 H442 0.930 . S
C435 C434 1.394 . S
C435 C436 1.383 . S
C435 H443 0.929 . S
C436 C435 1.383 . S
C436 C437 1.377 1_554 S
C437 H421 0.930 . S
C437 C436 1.377 1_556 S
C437 C438 1.379 . S
C438 H422 0.931 . S
C438 C432 1.383 1_556 S
C438 C437 1.379 . S
H439 C433 0.959 . S
H440 C433 0.961 . S
H441 C433 0.960 . S
H442 C434 0.930 . S
H443 C435 0.929 . S
H444 C452 0.929 . S
H445 C454 0.930 . S
H446 C456 0.942 . S
H447 C459 0.929 . S
H448 C462 0.930 . S
H449 C464 0.960 . S
H450 C464 0.960 . S
H451 C464 0.960 . S
C452 H444 0.929 . S
C452 C453 1.377 . S
C452 C454 1.384 . S
C453 C452 1.377 . S
C453 C459 1.390 1_554 S
C454 H445 0.930 . S
C454 C452 1.384 . S
C454 C455 1.372 . S
C455 C454 1.372 . S
C455 C456 1.387 1_554 S
C455 C460 1.490 . S
C456 H446 0.942 . S
C456 C455 1.387 1_556 S
C456 C459 1.386 . S
H457 C473 0.930 1_556 S
H458 C474 0.931 1_556 S
C459 H447 0.929 . S
C459 C453 1.390 1_556 S
C459 C456 1.386 . S
C460 C455 1.490 . S
C460 C462 1.395 . S
C460 C463 1.403 . S
H461 C467 0.930 1_556 S
C462 H448 0.930 . S
C462 C460 1.395 . S
C462 C465 1.403 . S
C463 C460 1.403 . S
C463 C464 1.524 1_554 S
C463 C467 1.400 . S
C464 H449 0.960 . S
C464 H450 0.960 . S
C464 H451 0.960 . S
C464 C463 1.524 1_556 S
C465 C462 1.403 . S
C465 C466 1.392 . S
C465 C469 1.495 . S
C466 C465 1.392 . S
C466 C467 1.385 . S
C466 C468 1.478 . S
C467 H461 0.930 1_554 S
C467 C463 1.400 . S
C467 C466 1.385 . S
C468 C466 1.478 . S
C468 C470 1.381 . S
C468 C474 1.383 . S
C469 C465 1.495 . S
C469 H475 0.959 . S
C469 H476 0.961 . S
C469 H477 0.960 . S
C470 C468 1.381 . S
C470 C471 1.394 . S
C470 H478 0.930 . S
C471 C470 1.394 . S
C471 C472 1.383 . S
C471 H479 0.929 . S
C472 C471 1.383 . S
C472 C473 1.377 . S
C473 H457 0.930 1_554 S
C473 C472 1.377 . S
C473 C474 1.379 . S
C474 H458 0.931 1_554 S
C474 C468 1.383 . S
C474 C473 1.379 . S
H475 C469 0.959 . S
H476 C469 0.961 . S
H477 C469 0.960 . S
H478 C470 0.930 . S
H479 C471 0.929 . S
H480 C488 0.929 . S
H481 C490 0.930 . S
H482 C492 0.930 . S
H483 C495 0.929 . S
H484 C498 0.930 . S
H485 C500 0.960 . S
H486 C500 0.960 . S
H487 C500 0.960 . S
C488 H480 0.929 . S
C488 C489 1.377 1_556 S
C488 C490 1.384 . S
C489 C488 1.377 1_554 S
C489 C495 1.390 . S
C490 H481 0.930 . S
C490 C488 1.384 . S
C490 C491 1.372 1_556 S
C491 C490 1.372 1_554 S
C491 C492 1.400 . S
C491 C496 1.490 . S
C492 H482 0.930 . S
C492 C491 1.400 . S
C492 C495 1.386 . S
H493 C509 0.930 . S
H494 C510 0.931 . S
C495 H483 0.929 . S
C495 C489 1.390 . S
C495 C492 1.386 . S
C496 C491 1.490 . S
C496 C498 1.395 . S
C496 C499 1.403 . S
H497 C503 0.930 . S
C498 H484 0.930 . S
C498 C496 1.395 . S
C498 C501 1.403 . S
C499 C496 1.403 . S
C499 C500 1.524 . S
C499 C503 1.400 . S
C500 H485 0.960 . S
C500 H486 0.960 . S
C500 H487 0.960 . S
C500 C499 1.524 . S
C501 C498 1.403 . S
C501 C502 1.392 . S
C501 C505 1.495 1_554 S
C502 C501 1.392 . S
C502 C503 1.385 . S
C502 C504 1.478 . S
C503 H497 0.930 . S
C503 C499 1.400 . S
C503 C502 1.385 . S
C504 C502 1.478 . S
C504 C506 1.381 1_554 S
C504 C510 1.383 . S
C505 C501 1.495 1_556 S
C505 H511 0.959 . S
C505 H512 0.961 1_556 S
C505 H513 0.960 . S
C506 C504 1.381 1_556 S
C506 C507 1.394 . S
C506 H514 0.930 . S
C507 C506 1.394 . S
C507 C508 1.383 1_556 S
C507 H515 0.929 . S
C508 C507 1.383 1_554 S
C508 C509 1.377 . S
C509 H493 0.930 . S
C509 C508 1.377 . S
C509 C510 1.379 . S
C510 H494 0.931 . S
C510 C504 1.383 . S
C510 C509 1.379 . S
H511 C505 0.959 . S
H512 C505 0.961 1_554 S
H513 C505 0.960 . S
H514 C506 0.930 . S
H515 C507 0.929 . S
H516 C524 0.929 . S
H517 C526 0.930 . S
H518 C528 0.930 . S
H519 C531 0.929 . S
H520 C534 0.930 . S
H521 C536 0.960 . S
H522 C536 0.960 1_554 S
H523 C536 0.960 . S
C524 H516 0.929 . S
C524 C525 1.377 . S
C524 C526 1.384 . S
C525 C524 1.377 . S
C525 C531 1.390 1_554 S
C526 H517 0.930 . S
C526 C524 1.384 . S
C526 C527 1.372 . S
C527 C526 1.372 . S
C527 C528 1.400 1_554 S
C527 C532 1.490 . S
C528 H518 0.930 . S
C528 C527 1.400 1_556 S
C528 C531 1.386 . S
H529 C545 0.930 . S
H530 C546 0.931 . S
C531 H519 0.929 . S
C531 C525 1.390 1_556 S
C531 C528 1.386 . S
C532 C527 1.490 . S
C532 C534 1.395 . S
C532 C535 1.403 . S
H533 C539 0.930 . S
C534 H520 0.930 . S
C534 C532 1.395 . S
C534 C537 1.403 . S
C535 C532 1.403 . S
C535 C536 1.524 1_554 S
C535 C539 1.400 . S
C536 H521 0.960 . S
C536 H522 0.960 1_556 S
C536 H523 0.960 . S
C536 C535 1.524 1_556 S
C537 C534 1.403 . S
C537 C538 1.392 . S
C537 C541 1.495 . S
C538 C537 1.392 . S
C538 C539 1.385 . S
C538 C540 1.478 . S
C539 H533 0.930 . S
C539 C535 1.400 . S
C539 C538 1.385 . S
C540 C538 1.478 . S
C540 C542 1.381 . S
C540 C546 1.383 1_554 S
C541 C537 1.495 . S
C541 H547 0.959 . S
C541 H548 0.961 . S
C541 H549 0.960 . S
C542 C540 1.381 . S
C542 C543 1.394 . S
C542 H550 0.930 . S
C543 C542 1.394 . S
C543 C544 1.383 . S
C543 H551 0.929 . S
C544 C543 1.383 . S
C544 C545 1.377 1_554 S
C545 H529 0.930 . S
C545 C544 1.377 1_556 S
C545 C546 1.379 . S
C546 H530 0.931 . S
C546 C540 1.383 1_556 S
C546 C545 1.379 . S
H547 C541 0.959 . S
H548 C541 0.961 . S
H549 C541 0.960 . S
H550 C542 0.930 . S
H551 C543 0.929 . S
H552 C560 0.919 1_565 S
H553 C562 0.930 . S
H554 C564 0.930 . S
H555 C567 0.929 1_565 S
H556 C570 0.930 . S
H557 C572 0.960 . S
H558 C572 0.960 . S
H559 C572 0.960 . S
C560 H552 0.919 1_545 S
C560 C561 1.377 1_545 S
C560 C562 1.384 . S
C561 C560 1.377 1_565 S
C561 C567 1.390 1_565 S
C562 H553 0.930 . S
C562 C560 1.384 . S
C562 C563 1.372 . S
C563 C562 1.372 . S
C563 C564 1.400 . S
C563 C568 1.490 . S
C564 H554 0.930 . S
C564 C563 1.400 . S
C564 C567 1.386 . S
H565 C581 0.930 . S
H566 C582 0.931 . S
C567 H555 0.929 1_545 S
C567 C561 1.390 1_545 S
C567 C564 1.386 . S
C568 C563 1.490 . S
C568 C570 1.395 . S
C568 C571 1.403 . S
H569 C575 0.930 . S
C570 H556 0.930 . S
C570 C568 1.395 . S
C570 C573 1.403 . S
C571 C568 1.403 . S
C571 C572 1.524 . S
C571 C575 1.400 . S
C572 H557 0.960 . S
C572 H558 0.960 . S
C572 H559 0.960 . S
C572 C571 1.524 . S
C573 C570 1.403 . S
C573 C574 1.392 . S
C573 C577 1.495 . S
C574 C573 1.392 . S
C574 C575 1.385 . S
C574 C576 1.478 . S
C575 H569 0.930 . S
C575 C571 1.400 . S
C575 C574 1.385 . S
C576 C574 1.478 . S
C576 C578 1.381 . S
C576 C582 1.383 . S
C577 C573 1.495 . S
C577 H583 0.959 . S
C577 H584 0.961 . S
C577 H585 0.960 . S
C578 C576 1.381 . S
C578 C579 1.394 . S
C578 H586 0.930 . S
C579 C578 1.394 . S
C579 C580 1.383 . S
C579 H587 0.929 . S
C580 C579 1.383 . S
C580 C581 1.377 . S
C581 H565 0.930 . S
C581 C580 1.377 . S
C581 C582 1.379 . S
C582 H566 0.931 . S
C582 C576 1.383 . S
C582 C581 1.379 . S
H583 C577 0.959 . S
H584 C577 0.961 . S
H585 C577 0.960 . S
H586 C578 0.930 . S
H587 C579 0.929 . S
H588 C596 0.929 . S
H589 C598 0.930 . S
H590 C600 0.930 . S
H591 C603 0.929 . S
H592 C606 0.930 . S
H593 C608 0.960 . S
H594 C608 0.960 . S
H595 C608 0.960 . S
C596 H588 0.929 . S
C596 C597 1.377 1_655 S
C596 C598 1.384 . S
C597 C596 1.377 1_455 S
C597 C603 1.390 . S
C598 H589 0.930 . S
C598 C596 1.384 . S
C598 C599 1.372 . S
C599 C598 1.372 . S
C599 C600 1.400 . S
C599 C604 1.490 . S
C600 H590 0.930 . S
C600 C599 1.400 . S
C600 C603 1.386 1_655 S
H601 C617 0.930 . S
H602 C618 0.931 . S
C603 H591 0.929 . S
C603 C597 1.390 . S
C603 C600 1.386 1_455 S
C604 C599 1.490 . S
C604 C606 1.395 . S
C604 C607 1.403 . S
H605 C611 0.930 . S
C606 H592 0.930 . S
C606 C604 1.395 . S
C606 C609 1.403 . S
C607 C604 1.403 . S
C607 C608 1.524 . S
C607 C611 1.400 . S
C608 H593 0.960 . S
C608 H594 0.960 . S
C608 H595 0.960 . S
C608 C607 1.524 . S
C609 C606 1.403 . S
C609 C610 1.392 . S
C609 C613 1.495 . S
C610 C609 1.392 . S
C610 C611 1.385 . S
C610 C612 1.478 . S
C611 H605 0.930 . S
C611 C607 1.400 . S
C611 C610 1.385 . S
C612 C610 1.478 . S
C612 C614 1.381 . S
C612 C618 1.383 . S
C613 C609 1.495 . S
C613 H619 0.959 . S
C613 H620 0.961 . S
C613 H621 0.960 . S
C614 C612 1.381 . S
C614 C615 1.394 . S
C614 H622 0.930 . S
C615 C614 1.394 . S
C615 C616 1.383 . S
C615 H623 0.929 . S
C616 C615 1.383 . S
C616 C617 1.377 . S
C617 H601 0.930 . S
C617 C616 1.377 . S
C617 C618 1.379 . S
C618 H602 0.931 . S
C618 C612 1.383 . S
C618 C617 1.379 . S
H619 C613 0.959 . S
H620 C613 0.961 . S
H621 C613 0.960 . S
H622 C614 0.930 . S
H623 C615 0.929 . S
H624 C632 0.929 . S
H625 C634 0.930 . S
H626 C636 0.930 . S
H627 C639 0.929 . S
H628 C642 0.930 . S
H629 C644 0.960 . S
H630 C644 0.960 . S
H631 C644 0.960 . S
C632 H624 0.929 . S
C632 C633 1.377 1_565 S
C632 C634 1.384 . S
C633 C632 1.377 1_545 S
C633 C639 1.390 . S
C634 H625 0.930 . S
C634 C632 1.384 . S
C634 C635 1.372 . S
C635 C634 1.372 . S
C635 C636 1.400 . S
C635 C640 1.490 . S
C636 H626 0.930 . S
C636 C635 1.400 . S
C636 C639 1.386 1_565 S
H637 C653 0.930 . S
H638 C654 0.931 . S
C639 H627 0.929 . S
C639 C633 1.390 . S
C639 C636 1.386 1_545 S
C640 C635 1.490 . S
C640 C642 1.395 . S
C640 C643 1.403 . S
H641 C647 0.930 . S
C642 H628 0.930 . S
C642 C640 1.395 . S
C642 C645 1.403 . S
C643 C640 1.403 . S
C643 C644 1.524 . S
C643 C647 1.400 . S
C644 H629 0.960 . S
C644 H630 0.960 . S
C644 H631 0.960 . S
C644 C643 1.524 . S
C645 C642 1.403 . S
C645 C646 1.392 . S
C645 C649 1.495 . S
C646 C645 1.392 . S
C646 C647 1.385 . S
C646 C648 1.478 . S
C647 H641 0.930 . S
C647 C643 1.400 . S
C647 C646 1.385 . S
C648 C646 1.478 . S
C648 C650 1.381 . S
C648 C654 1.383 . S
C649 C645 1.495 . S
C649 H655 0.959 . S
C649 H656 0.961 . S
C649 H657 0.960 . S
C650 C648 1.381 . S
C650 C651 1.394 . S
C650 H658 0.930 . S
C651 C650 1.394 . S
C651 C652 1.383 . S
C651 H659 0.929 . S
C652 C651 1.383 . S
C652 C653 1.377 . S
C653 H637 0.930 . S
C653 C652 1.377 . S
C653 C654 1.379 . S
C654 H638 0.931 . S
C654 C648 1.383 . S
C654 C653 1.379 . S
H655 C649 0.959 . S
H656 C649 0.961 . S
H657 C649 0.960 . S
H658 C650 0.930 . S
H659 C651 0.929 . S
H660 C668 0.929 . S
H661 C670 0.930 . S
H662 C672 0.930 . S
H663 C675 0.929 . S
H664 C678 0.930 . S
H665 C680 0.960 . S
H666 C680 0.960 . S
H667 C680 0.960 . S
C668 H660 0.929 . S
C668 C669 1.377 1_455 S
C668 C670 1.384 . S
C669 C668 1.377 1_655 S
C669 C675 1.390 . S
C670 H661 0.930 . S
C670 C668 1.384 . S
C670 C671 1.372 . S
C671 C670 1.372 . S
C671 C672 1.400 . S
C671 C676 1.490 . S
C672 H662 0.930 . S
C672 C671 1.400 . S
C672 C675 1.386 1_455 S
H673 C689 0.930 . S
H674 C690 0.931 . S
C675 H663 0.929 . S
C675 C669 1.390 . S
C675 C672 1.386 1_655 S
C676 C671 1.490 . S
C676 C678 1.395 . S
C676 C679 1.403 . S
H677 C683 0.930 . S
C678 H664 0.930 . S
C678 C676 1.395 . S
C678 C681 1.403 . S
C679 C676 1.403 . S
C679 C680 1.524 . S
C679 C683 1.400 . S
C680 H665 0.960 . S
C680 H666 0.960 . S
C680 H667 0.960 . S
C680 C679 1.524 . S
C681 C678 1.403 . S
C681 C682 1.392 . S
C681 C685 1.495 . S
C682 C681 1.392 . S
C682 C683 1.385 . S
C682 C684 1.478 . S
C683 H677 0.930 . S
C683 C679 1.400 . S
C683 C682 1.385 . S
C684 C682 1.478 . S
C684 C686 1.381 . S
C684 C690 1.383 . S
C685 C681 1.495 . S
C685 H691 0.959 . S
C685 H692 0.961 . S
C685 H693 0.960 . S
C686 C684 1.381 . S
C686 C687 1.394 . S
C686 H694 0.930 . S
C687 C686 1.394 . S
C687 C688 1.383 . S
C687 H695 0.929 . S
C688 C687 1.383 . S
C688 C689 1.377 . S
C689 H673 0.930 . S
C689 C688 1.377 . S
C689 C690 1.379 . S
C690 H674 0.931 . S
C690 C684 1.383 . S
C690 C689 1.379 . S
H691 C685 0.959 . S
H692 C685 0.961 . S
H693 C685 0.960 . S
H694 C686 0.930 . S
H695 C687 0.929 . S
H696 C704 0.929 . S
H697 C706 0.930 . S
H698 C708 0.930 . S
H699 C711 0.929 . S
H700 C714 0.930 . S
H701 C716 0.960 . S
H702 C716 0.960 . S
H703 C716 0.960 . S
C704 H696 0.929 . S
C704 C705 1.377 . S
C704 C706 1.384 . S
C705 C704 1.377 . S
C705 C711 1.390 . S
C706 H697 0.930 . S
C706 C704 1.384 . S
C706 C707 1.372 . S
C707 C706 1.372 . S
C707 C708 1.400 . S
C707 C712 1.490 . S
C708 H698 0.930 . S
C708 C707 1.400 . S
C708 C711 1.386 . S
H709 C725 0.930 . S
H710 C726 0.931 . S
C711 H699 0.929 . S
C711 C705 1.390 . S
C711 C708 1.386 . S
C712 C707 1.490 . S
C712 C714 1.395 . S
C712 C715 1.403 . S
H713 C719 0.930 . S
C714 H700 0.930 . S
C714 C712 1.395 . S
C714 C717 1.403 . S
C715 C712 1.403 . S
C715 C716 1.524 . S
C715 C719 1.400 . S
C716 H701 0.960 . S
C716 H702 0.960 . S
C716 H703 0.960 . S
C716 C715 1.524 . S
C717 C714 1.403 . S
C717 C718 1.392 . S
C717 C721 1.495 . S
C718 C717 1.392 . S
C718 C719 1.385 . S
C718 C720 1.478 . S
C719 H713 0.930 . S
C719 C715 1.400 . S
C719 C718 1.385 . S
C720 C718 1.478 . S
C720 C722 1.381 . S
C720 C726 1.383 . S
C721 C717 1.495 . S
C721 H727 0.959 . S
C721 H728 0.961 . S
C721 H729 0.960 . S
C722 C720 1.381 . S
C722 C723 1.394 . S
C722 H730 0.930 . S
C723 C722 1.394 . S
C723 C724 1.383 . S
C723 H731 0.929 . S
C724 C723 1.383 . S
C724 C725 1.377 . S
C725 H709 0.930 . S
C725 C724 1.377 . S
C725 C726 1.379 . S
C726 H710 0.931 . S
C726 C720 1.383 . S
C726 C725 1.379 . S
H727 C721 0.959 . S
H728 C721 0.961 . S
H729 C721 0.960 . S
H730 C722 0.930 . S
H731 C723 0.929 . S
H732 C740 0.929 . S
H733 C742 0.930 . S
H734 C744 0.930 . S
H735 C747 0.929 . S
H736 C750 0.930 . S
H737 C752 0.960 . S
H738 C752 0.960 . S
H739 C752 0.960 . S
C740 H732 0.929 . S
C740 C741 1.377 . S
C740 C742 1.384 . S
C741 C740 1.377 . S
C741 C747 1.390 . S
C742 H733 0.930 . S
C742 C740 1.384 . S
C742 C743 1.372 . S
C743 C742 1.372 . S
C743 C744 1.400 . S
C743 C748 1.490 . S
C744 H734 0.930 . S
C744 C743 1.400 . S
C744 C747 1.386 . S
H745 C761 0.930 . S
H746 C762 0.931 . S
C747 H735 0.929 . S
C747 C741 1.390 . S
C747 C744 1.386 . S
C748 C743 1.490 . S
C748 C750 1.395 . S
C748 C751 1.403 . S
H749 C755 0.930 . S
C750 H736 0.930 . S
C750 C748 1.395 . S
C750 C753 1.403 . S
C751 C748 1.403 . S
C751 C752 1.524 . S
C751 C755 1.400 . S
C752 H737 0.960 . S
C752 H738 0.960 . S
C752 H739 0.960 . S
C752 C751 1.524 . S
C753 C750 1.403 . S
C753 C754 1.392 . S
C753 C757 1.495 . S
C754 C753 1.392 . S
C754 C755 1.385 . S
C754 C756 1.478 . S
C755 H749 0.930 . S
C755 C751 1.400 . S
C755 C754 1.385 . S
C756 C754 1.478 . S
C756 C758 1.381 . S
C756 C762 1.383 . S
C757 C753 1.495 . S
C757 H763 0.959 . S
C757 H764 0.961 . S
C757 H765 0.960 . S
C758 C756 1.381 . S
C758 C759 1.394 . S
C758 H766 0.930 . S
C759 C758 1.394 . S
C759 C760 1.383 . S
C759 H767 0.929 . S
C760 C759 1.383 . S
C760 C761 1.377 . S
C761 H745 0.930 . S
C761 C760 1.377 . S
C761 C762 1.379 . S
C762 H746 0.931 . S
C762 C756 1.383 . S
C762 C761 1.379 . S
H763 C757 0.959 . S
H764 C757 0.961 . S
H765 C757 0.960 . S
H766 C758 0.930 . S
H767 C759 0.929 . S
H768 C776 0.929 . S
H769 C778 0.930 . S
H770 C780 0.930 . S
H771 C783 0.929 . S
H772 C786 0.930 . S
H773 C788 0.960 . S
H774 C788 0.960 . S
H775 C788 0.960 . S
C776 H768 0.929 . S
C776 C777 1.377 . S
C776 C778 1.384 . S
C777 C776 1.377 . S
C777 C783 1.390 . S
C778 H769 0.930 . S
C778 C776 1.384 . S
C778 C779 1.372 . S
C779 C778 1.372 . S
C779 C780 1.400 . S
C779 C784 1.490 . S
C780 H770 0.930 . S
C780 C779 1.400 . S
C780 C783 1.386 . S
H781 C797 0.930 . S
H782 C798 0.931 . S
C783 H771 0.929 . S
C783 C777 1.390 . S
C783 C780 1.386 . S
C784 C779 1.490 . S
C784 C786 1.395 . S
C784 C787 1.403 . S
H785 C791 0.930 . S
C786 H772 0.930 . S
C786 C784 1.395 . S
C786 C789 1.403 . S
C787 C784 1.403 . S
C787 C788 1.524 . S
C787 C791 1.400 . S
C788 H773 0.960 . S
C788 H774 0.960 . S
C788 H775 0.960 . S
C788 C787 1.524 . S
C789 C786 1.403 . S
C789 C790 1.392 . S
C789 C793 1.495 . S
C790 C789 1.392 . S
C790 C791 1.385 . S
C790 C792 1.478 . S
C791 H785 0.930 . S
C791 C787 1.400 . S
C791 C790 1.385 . S
C792 C790 1.478 . S
C792 C794 1.381 . S
C792 C798 1.383 . S
C793 C789 1.495 . S
C793 H799 0.959 . S
C793 H800 0.961 . S
C793 H801 0.960 . S
C794 C792 1.381 . S
C794 C795 1.394 . S
C794 H802 0.930 . S
C795 C794 1.394 . S
C795 C796 1.383 . S
C795 H803 0.929 . S
C796 C795 1.383 . S
C796 C797 1.377 . S
C797 H781 0.930 . S
C797 C796 1.377 . S
C797 C798 1.379 . S
C798 H782 0.931 . S
C798 C792 1.383 . S
C798 C797 1.379 . S
H799 C793 0.959 . S
H800 C793 0.961 . S
H801 C793 0.960 . S
H802 C794 0.930 . S
H803 C795 0.929 . S
H804 C812 0.929 . S
H805 C814 0.930 . S
H806 C816 0.930 . S
H807 C819 0.929 . S
H808 C822 0.930 . S
H809 C824 0.960 . S
H810 C824 0.960 . S
H811 C824 0.960 . S
C812 H804 0.929 . S
C812 C813 1.377 . S
C812 C814 1.384 . S
C813 C812 1.377 . S
C813 C819 1.390 . S
C814 H805 0.930 . S
C814 C812 1.384 . S
C814 C815 1.372 . S
C815 C814 1.372 . S
C815 C816 1.400 . S
C815 C820 1.490 . S
C816 H806 0.930 . S
C816 C815 1.400 . S
C816 C819 1.386 . S
H817 C833 0.930 . S
H818 C834 0.931 . S
C819 H807 0.929 . S
C819 C813 1.390 . S
C819 C816 1.386 . S
C820 C815 1.490 . S
C820 C822 1.395 . S
C820 C823 1.403 . S
H821 C827 0.930 . S
C822 H808 0.930 . S
C822 C820 1.395 . S
C822 C825 1.403 . S
C823 C820 1.403 . S
C823 C824 1.524 . S
C823 C827 1.400 . S
C824 H809 0.960 . S
C824 H810 0.960 . S
C824 H811 0.960 . S
C824 C823 1.524 . S
C825 C822 1.403 . S
C825 C826 1.392 . S
C825 C829 1.495 . S
C826 C825 1.392 . S
C826 C827 1.385 . S
C826 C828 1.478 . S
C827 H821 0.930 . S
C827 C823 1.400 . S
C827 C826 1.385 . S
C828 C826 1.478 . S
C828 C830 1.381 . S
C828 C834 1.383 . S
C829 C825 1.495 . S
C829 H835 0.959 . S
C829 H836 0.961 . S
C829 H837 0.960 . S
C830 C828 1.381 . S
C830 C831 1.394 . S
C830 H838 0.930 . S
C831 C830 1.394 . S
C831 C832 1.383 . S
C831 H839 0.929 . S
C832 C831 1.383 . S
C832 C833 1.377 . S
C833 H817 0.930 . S
C833 C832 1.377 . S
C833 C834 1.379 . S
C834 H818 0.931 . S
C834 C828 1.383 . S
C834 C833 1.379 . S
H835 C829 0.959 . S
H836 C829 0.961 . S
H837 C829 0.960 . S
H838 C830 0.930 . S
H839 C831 0.929 . S
H840 C848 0.929 . S
H841 C850 0.930 . S
H842 C852 0.930 . S
H843 C855 0.929 . S
H844 C858 0.930 . S
H845 C860 0.960 . S
H846 C860 0.960 . S
H847 C860 0.960 . S
C848 H840 0.929 . S
C848 C849 1.377 . S
C848 C850 1.384 . S
C849 C848 1.377 . S
C849 C855 1.390 . S
C850 H841 0.930 . S
C850 C848 1.384 . S
C850 C851 1.372 . S
C851 C850 1.372 . S
C851 C852 1.400 . S
C851 C856 1.490 . S
C852 H842 0.930 . S
C852 C851 1.400 . S
C852 C855 1.386 . S
H853 C869 0.930 . S
H854 C870 0.931 . S
C855 H843 0.929 . S
C855 C849 1.390 . S
C855 C852 1.386 . S
C856 C851 1.490 . S
C856 C858 1.395 . S
C856 C859 1.403 . S
H857 C863 0.930 . S
C858 H844 0.930 . S
C858 C856 1.395 . S
C858 C861 1.403 . S
C859 C856 1.403 . S
C859 C860 1.524 . S
C859 C863 1.400 . S
C860 H845 0.960 . S
C860 H846 0.960 . S
C860 H847 0.960 . S
C860 C859 1.524 . S
C861 C858 1.403 . S
C861 C862 1.392 . S
C861 C865 1.495 . S
C862 C861 1.392 . S
C862 C863 1.385 . S
C862 C864 1.478 . S
C863 H857 0.930 . S
C863 C859 1.400 . S
C863 C862 1.385 . S
C864 C862 1.478 . S
C864 C866 1.381 . S
C864 C870 1.383 . S
C865 C861 1.495 . S
C865 H871 0.959 . S
C865 H872 0.961 . S
C865 H873 0.960 . S
C866 C864 1.381 . S
C866 C867 1.394 . S
C866 H874 0.930 . S
C867 C866 1.394 . S
C867 C868 1.383 . S
C867 H875 0.929 . S
C868 C867 1.383 . S
C868 C869 1.377 . S
C869 H853 0.930 . S
C869 C868 1.377 . S
C869 C870 1.379 . S
C870 H854 0.931 . S
C870 C864 1.383 . S
C870 C869 1.379 . S
H871 C865 0.959 . S
H872 C865 0.961 . S
H873 C865 0.960 . S
H874 C866 0.930 . S
H875 C867 0.929 . S
H876 C884 0.929 . S
H877 C886 0.930 . S
H878 C888 0.930 . S
H879 C891 0.929 . S
H880 C894 0.930 . S
H881 C896 0.960 . S
H882 C896 0.960 . S
H883 C896 0.960 . S
C884 H876 0.929 . S
C884 C885 1.377 . S
C884 C886 1.384 . S
C885 C884 1.377 . S
C885 C891 1.390 . S
C886 H877 0.930 . S
C886 C884 1.384 . S
C886 C887 1.372 . S
C887 C886 1.372 . S
C887 C888 1.400 . S
C887 C892 1.490 . S
C888 H878 0.930 . S
C888 C887 1.400 . S
C888 C891 1.386 . S
H889 C905 0.930 . S
H890 C906 0.931 . S
C891 H879 0.929 . S
C891 C885 1.390 . S
C891 C888 1.386 . S
C892 C887 1.490 . S
C892 C894 1.395 . S
C892 C895 1.403 . S
H893 C899 0.930 . S
C894 H880 0.930 . S
C894 C892 1.395 . S
C894 C897 1.403 . S
C895 C892 1.403 . S
C895 C896 1.524 . S
C895 C899 1.400 . S
C896 H881 0.960 . S
C896 H882 0.960 . S
C896 H883 0.960 . S
C896 C895 1.524 . S
C897 C894 1.403 . S
C897 C898 1.392 . S
C897 C901 1.495 . S
C898 C897 1.392 . S
C898 C899 1.385 . S
C898 C900 1.478 . S
C899 H893 0.930 . S
C899 C895 1.400 . S
C899 C898 1.385 . S
C900 C898 1.478 . S
C900 C902 1.381 . S
C900 C906 1.383 . S
C901 C897 1.495 . S
C901 H907 0.959 . S
C901 H908 0.961 . S
C901 H909 0.960 . S
C902 C900 1.381 . S
C902 C903 1.394 . S
C902 H910 0.930 . S
C903 C902 1.394 . S
C903 C904 1.383 . S
C903 H911 0.929 . S
C904 C903 1.383 . S
C904 C905 1.377 . S
C905 H889 0.930 . S
C905 C904 1.377 . S
C905 C906 1.379 . S
C906 H890 0.931 . S
C906 C900 1.383 . S
C906 C905 1.379 . S
H907 C901 0.959 . S
H908 C901 0.961 . S
H909 C901 0.960 . S
H910 C902 0.930 . S
H911 C903 0.929 . S
H912 C920 0.929 . S
H913 C922 0.930 . S
H914 C924 0.930 . S
H915 C927 0.929 . S
H916 C930 0.930 . S
H917 C932 0.960 . S
H918 C932 0.960 . S
H919 C932 0.960 . S
C920 H912 0.929 . S
C920 C921 1.377 . S
C920 C922 1.384 . S
C921 C920 1.377 . S
C921 C927 1.390 . S
C922 H913 0.930 . S
C922 C920 1.384 . S
C922 C923 1.372 . S
C923 C922 1.372 . S
C923 C924 1.400 . S
C923 C928 1.490 . S
C924 H914 0.930 . S
C924 C923 1.400 . S
C924 C927 1.386 . S
H925 C941 0.930 . S
H926 C942 0.931 . S
C927 H915 0.929 . S
C927 C921 1.390 . S
C927 C924 1.386 . S
C928 C923 1.490 . S
C928 C930 1.395 . S
C928 C931 1.403 . S
H929 C935 0.930 . S
C930 H916 0.930 . S
C930 C928 1.395 . S
C930 C933 1.403 . S
C931 C928 1.403 . S
C931 C932 1.524 . S
C931 C935 1.400 . S
C932 H917 0.960 . S
C932 H918 0.960 . S
C932 H919 0.960 . S
C932 C931 1.524 . S
C933 C930 1.403 . S
C933 C934 1.392 . S
C933 C937 1.495 . S
C934 C933 1.392 . S
C934 C935 1.385 . S
C934 C936 1.478 . S
C935 H929 0.930 . S
C935 C931 1.400 . S
C935 C934 1.385 . S
C936 C934 1.478 . S
C936 C938 1.381 . S
C936 C942 1.383 . S
C937 C933 1.495 . S
C937 H943 0.959 . S
C937 H944 0.961 . S
C937 H945 0.960 . S
C938 C936 1.381 . S
C938 C939 1.394 . S
C938 H946 0.930 . S
C939 C938 1.394 . S
C939 C940 1.383 . S
C939 H947 0.929 . S
C940 C939 1.383 . S
C940 C941 1.377 . S
C941 H925 0.930 . S
C941 C940 1.377 . S
C941 C942 1.379 . S
C942 H926 0.931 . S
C942 C936 1.383 . S
C942 C941 1.379 . S
H943 C937 0.959 . S
H944 C937 0.961 . S
H945 C937 0.960 . S
H946 C938 0.930 . S
H947 C939 0.929 . S
H948 C956 0.929 . S
H949 C958 0.930 . S
H950 C960 0.930 . S
H951 C963 0.929 . S
H952 C966 0.930 . S
H953 C968 0.960 . S
H954 C968 0.960 . S
H955 C968 0.960 . S
C956 H948 0.929 . S
C956 C957 1.377 . S
C956 C958 1.384 . S
C957 C956 1.377 . S
C957 C963 1.390 . S
C958 H949 0.930 . S
C958 C956 1.384 . S
C958 C959 1.372 . S
C959 C958 1.372 . S
C959 C960 1.400 . S
C959 C964 1.490 . S
C960 H950 0.930 . S
C960 C959 1.400 . S
C960 C963 1.386 . S
H961 C977 0.930 . S
H962 C978 0.931 . S
C963 H951 0.929 . S
C963 C957 1.390 . S
C963 C960 1.386 . S
C964 C959 1.490 . S
C964 C966 1.395 . S
C964 C967 1.403 . S
H965 C971 0.930 . S
C966 H952 0.930 . S
C966 C964 1.395 . S
C966 C969 1.403 . S
C967 C964 1.403 . S
C967 C968 1.524 . S
C967 C971 1.400 . S
C968 H953 0.960 . S
C968 H954 0.960 . S
C968 H955 0.960 . S
C968 C967 1.524 . S
C969 C966 1.403 . S
C969 C970 1.392 . S
C969 C973 1.495 . S
C970 C969 1.392 . S
C970 C971 1.385 . S
C970 C972 1.478 . S
C971 H965 0.930 . S
C971 C967 1.400 . S
C971 C970 1.385 . S
C972 C970 1.478 . S
C972 C974 1.381 . S
C972 C978 1.383 . S
C973 C969 1.495 . S
C973 H979 0.959 . S
C973 H980 0.961 . S
C973 H981 0.960 . S
C974 C972 1.381 . S
C974 C975 1.394 . S
C974 H982 0.930 . S
C975 C974 1.394 . S
C975 C976 1.383 . S
C975 H983 0.929 . S
C976 C975 1.383 . S
C976 C977 1.377 . S
C977 H961 0.930 . S
C977 C976 1.377 . S
C977 C978 1.379 . S
C978 H962 0.931 . S
C978 C972 1.383 . S
C978 C977 1.379 . S
H979 C973 0.959 . S
H980 C973 0.961 . S
H981 C973 0.960 . S
H982 C974 0.930 . S
H983 C975 0.929 . S
C273 N71 1.538 . S
C292 N5 1.545 . S
C309 N38 1.542 . S
C328 N104 1.542 . S
C345 N137 1.539 . S
C364 N203 1.524 . S
C381 N170 1.537 . S
C400 N236 1.529 . S
C417 C107 1.608 . S
C436 N14 1.518 . S
C453 C8 1.608 . S
C472 N47 1.529 . S
C489 N80 1.551 . S
C508 C41 1.600 . S
C525 N113 1.543 . S
C544 C74 1.607 . S
C561 C173 1.608 . S
C580 N146 1.519 . S
C597 C206 1.607 . S
C616 N179 1.543 . S
C633 C239 1.607 . S
C652 N212 1.527 . S
C669 C140 1.608 . S
C688 N245 1.519 . S
C705 C28 1.325 . S
C724 C259 1.322 . S
C741 C61 1.322 . S
C760 C160 1.318 . S
C777 C193 1.322 . S
C796 C94 1.312 . S
C813 C226 1.322 . S
C832 C127 1.313 . S
C849 C83 1.415 . S
C868 C182 1.415 . S
C885 C215 1.419 . S
C904 C116 1.419 . S
C921 C248 1.417 . S
C940 C17 1.426 . S
C957 C149 1.419 . S
C976 C50 1.419 . S
