# Generated by pormake.
# Topology fnz, (5)-cn, num edge types: 1
# Building blocks:
#     Node 0, Type 0, BuildingBlock: XOMCOT_clean_sbu_1, # of connection points: 5
#     Node 1, Type 0, BuildingBlock: XOMCOT_clean_sbu_1, # of connection points: 5
#     Node 2, Type 0, BuildingBlock: XOMCOT_clean_sbu_1, # of connection points: 5
#     Node 3, Type 0, BuildingBlock: XOMCOT_clean_sbu_1, # of connection points: 5
#     Node 4, Type 0, BuildingBlock: XOMCOT_clean_sbu_1, # of connection points: 5
#     Node 5, Type 0, BuildingBlock: XOMCOT_clean_sbu_1, # of connection points: 5
#     Node 6, Type 0, BuildingBlock: XOMCOT_clean_sbu_1, # of connection points: 5
#     Node 7, Type 0, BuildingBlock: XOMCOT_clean_sbu_1, # of connection points: 5
#     Node 8, Type 0, BuildingBlock: XOMCOT_clean_sbu_1, # of connection points: 5
#     Node 9, Type 0, BuildingBlock: XOMCOT_clean_sbu_1, # of connection points: 5
#     Node 10, Type 0, BuildingBlock: XOMCOT_clean_sbu_1, # of connection points: 5
#     Node 11, Type 0, BuildingBlock: XOMCOT_clean_sbu_1, # of connection points: 5
#     Edge 12, Type (0, 0), BuildingBlock: XIVTED_clean_linker_0, # of connection points: 2
#     Edge 13, Type (0, 0), BuildingBlock: XIVTED_clean_linker_0, # of connection points: 2
#     Edge 14, Type (0, 0), BuildingBlock: XIVTED_clean_linker_0, # of connection points: 2
#     Edge 15, Type (0, 0), BuildingBlock: XIVTED_clean_linker_0, # of connection points: 2
#     Edge 16, Type (0, 0), BuildingBlock: XIVTED_clean_linker_0, # of connection points: 2
#     Edge 17, Type (0, 0), BuildingBlock: XIVTED_clean_linker_0, # of connection points: 2
#     Edge 18, Type (0, 0), BuildingBlock: XIVTED_clean_linker_0, # of connection points: 2
#     Edge 19, Type (0, 0), BuildingBlock: XIVTED_clean_linker_0, # of connection points: 2
#     Edge 20, Type (0, 0), BuildingBlock: XIVTED_clean_linker_0, # of connection points: 2
#     Edge 21, Type (0, 0), BuildingBlock: XIVTED_clean_linker_0, # of connection points: 2
#     Edge 22, Type (0, 0), BuildingBlock: XIVTED_clean_linker_0, # of connection points: 2
#     Edge 23, Type (0, 0), BuildingBlock: XIVTED_clean_linker_0, # of connection points: 2
#     Edge 24, Type (0, 0), BuildingBlock: XIVTED_clean_linker_0, # of connection points: 2
#     Edge 25, Type (0, 0), BuildingBlock: XIVTED_clean_linker_0, # of connection points: 2
#     Edge 26, Type (0, 0), BuildingBlock: XIVTED_clean_linker_0, # of connection points: 2
#     Edge 27, Type (0, 0), BuildingBlock: XIVTED_clean_linker_0, # of connection points: 2
#     Edge 28, Type (0, 0), BuildingBlock: XIVTED_clean_linker_0, # of connection points: 2
#     Edge 29, Type (0, 0), BuildingBlock: XIVTED_clean_linker_0, # of connection points: 2
#     Edge 30, Type (0, 0), BuildingBlock: XIVTED_clean_linker_0, # of connection points: 2
#     Edge 31, Type (0, 0), BuildingBlock: XIVTED_clean_linker_0, # of connection points: 2
#     Edge 32, Type (0, 0), BuildingBlock: XIVTED_clean_linker_0, # of connection points: 2
#     Edge 33, Type (0, 0), BuildingBlock: XIVTED_clean_linker_0, # of connection points: 2
#     Edge 34, Type (0, 0), BuildingBlock: XIVTED_clean_linker_0, # of connection points: 2
#     Edge 35, Type (0, 0), BuildingBlock: XIVTED_clean_linker_0, # of connection points: 2
#     Edge 36, Type (0, 0), BuildingBlock: XIVTED_clean_linker_0, # of connection points: 2
#     Edge 37, Type (0, 0), BuildingBlock: XIVTED_clean_linker_0, # of connection points: 2
#     Edge 38, Type (0, 0), BuildingBlock: XIVTED_clean_linker_0, # of connection points: 2
#     Edge 39, Type (0, 0), BuildingBlock: XIVTED_clean_linker_0, # of connection points: 2
#     Edge 40, Type (0, 0), BuildingBlock: XIVTED_clean_linker_0, # of connection points: 2
#     Edge 41, Type (0, 0), BuildingBlock: XIVTED_clean_linker_0, # of connection points: 2
# Relax obj value: 0.383
# Max RMSD: 0.283
# Mean RMSD: 0.283
data_MOF--net-fnz--node1-XOMCOT_clean_sbu_1--edge1-XIVTED_clean_linker_0
_symmetry_space_group_name_H-M    P1
_symmetry_Int_Tables_number       1
_symmetry_cell_setting            triclinic
loop_
_symmetry_equiv_pos_as_xyz
'x, y, z'
_cell_length_a     45.63843
_cell_length_b     45.645
_cell_length_c     26.653343
_cell_angle_alpha  90.0635
_cell_angle_beta   90.002703
_cell_angle_gamma 120.01655
loop_
_atom_site_label
_atom_site_type_symbol
_atom_site_fract_x
_atom_site_fract_y
_atom_site_fract_z
_atom_type_partial_charge
C0 C 0.53594 0.17201 0.9825 0.0
C1 C 0.55 0.15139 0.98279 0.0
N2 N 0.52474 0.11905 0.97943 0.0
N3 N 0.5019 0.15275 0.97966 0.0
C4 C 0.49605 0.12066 0.97748 0.0
H5 H 0.54969 0.19935 0.9842 0.0
Co6 Co 0.47043 0.16812 0.97521 0.0
C7 C 0.50104 0.19052 0.07784 0.0
O8 O 0.50528 0.1642 0.08197 0.0
N9 N 0.43956 0.18307 0.97005 0.0
C10 C 0.39922 0.192 0.94051 0.0
C11 C 0.4201 0.1791 0.92972 0.0
C12 C 0.43022 0.19839 1.00479 0.0
N13 N 0.4058 0.20419 0.98773 0.0
O14 O 0.50135 0.20551 0.93402 0.0
H15 H 0.4209 0.16731 0.89492 0.0
H16 H 0.44031 0.20441 0.04246 0.0
O17 O 0.48831 0.19472 0.03754 0.0
C18 C 0.50107 0.19443 0.88982 0.0
O19 O 0.48435 0.16154 0.8825 0.0
N20 N 0.43745 0.12971 1.00843 0.0
C21 C 0.3845 0.06615 0.03506 0.0
C22 C 0.40129 0.09126 0.07174 0.0
C23 C 0.42764 0.12328 0.05751 0.0
C24 C 0.41956 0.10642 0.97231 0.0
C25 C 0.39344 0.0744 0.98473 0.0
H26 H 0.43941 0.14253 0.08586 0.0
H27 H 0.42653 0.11258 0.93335 0.0
H28 H 0.47124 0.09861 0.97485 0.0
H29 H 0.57672 0.15964 0.98448 0.0
H30 H 0.38091 0.19269 0.91545 0.0
H31 H 0.39441 0.08612 0.11095 0.0
H32 H 0.38031 0.05626 0.95503 0.0
C33 C 0.33603 0.47844 0.03444 0.0
C34 C 0.36982 0.49066 1.02519 0.0
N35 N 0.37522 0.46425 1.02276 0.0
N36 N 0.32006 0.44442 0.03842 0.0
C37 C 0.34456 0.43655 1.03012 0.0
H38 H 0.32397 0.49352 0.0389 0.0
Co39 Co 0.27364 0.41534 0.05147 0.0
C40 C 0.29652 0.45878 0.14651 0.0
O41 O 0.32908 0.46982 0.14245 0.0
N42 N 0.22733 0.38683 0.06587 0.0
C43 C 0.18134 0.35422 0.11103 0.0
C44 C 0.21581 0.36903 0.10891 0.0
C45 C 0.19907 0.3827 0.04269 0.0
N46 N 0.17069 0.36289 0.06954 0.0
O47 O 0.2632 0.44454 1.01277 0.0
H48 H 0.23158 0.36825 0.13851 0.0
H49 H 0.19937 0.39489 1.00777 0.0
O50 O 0.27584 0.43889 0.11351 0.0
C51 C 0.26679 0.43865 0.96695 0.0
O52 O 0.2751 0.41549 0.95727 0.0
N53 N 0.28349 0.38451 0.08249 0.0
C54 C 0.30198 0.33581 0.10019 0.0
C55 C 0.31242 0.3634 0.13303 0.0
C56 C 0.30259 0.38753 0.12374 0.0
C57 C 0.27229 0.35727 0.05149 0.0
C58 C 0.2809 0.33254 0.05985 0.0
H59 H 0.31181 0.40915 0.14808 0.0
H60 H 0.25785 0.35568 1.01838 0.0
H61 H 0.34018 0.41099 1.03057 0.0
H62 H 0.38887 0.51701 1.02073 0.0
H63 H 0.16558 0.33993 0.14236 0.0
H64 H 0.32883 0.36682 0.16453 0.0
H65 H 0.27286 0.31218 0.03286 0.0
C66 C 0.8237 0.36611 1.01883 0.0
C67 C 0.84393 0.40067 1.02359 0.0
N68 N 0.87643 0.40829 1.02054 0.0
N69 N 0.84335 0.35189 1.01335 0.0
C70 C 0.8753 0.37842 1.01444 0.0
H71 H 0.79634 0.35225 1.01922 0.0
Co72 Co 0.82866 0.30575 1.00128 0.0
C73 C 0.80895 0.30828 0.10948 0.0
O74 O 0.83185 0.3404 0.11399 0.0
N75 N 0.81409 0.26057 0.9879 0.0
C76 C 0.80678 0.21396 0.95019 0.0
C77 C 0.82397 0.24878 0.94886 0.0
C78 C 0.79059 0.2326 1.01192 0.0
N79 N 0.78593 0.20393 0.99013 0.0
O80 O 0.78893 0.30027 0.96742 0.0
H81 H 0.8422 0.26448 0.92082 0.0
H82 H 0.776 0.23296 0.04346 0.0
O83 O 0.80575 0.29289 0.06775 0.0
C84 C 0.79845 0.31242 0.92333 0.0
O85 O 0.83103 0.32832 0.91341 0.0
N86 N 0.86917 0.31073 1.02668 0.0
C87 C 0.93424 0.32143 0.04263 0.0
C88 C 0.91087 0.3114 0.08237 0.0
C89 C 0.87816 0.30596 0.07355 0.0
C90 C 0.89107 0.31879 0.98755 0.0
C91 C 0.92367 0.32456 0.99468 0.0
H92 H 0.86042 0.29777 0.10419 0.0
H93 H 0.88332 0.32173 0.95046 0.0
H94 H 0.89762 0.37619 1.01125 0.0
H95 H 0.83534 0.41874 1.02796 0.0
H96 H 0.8095 0.19735 0.92397 0.0
H97 H 0.91792 0.30817 0.11988 0.0
H98 H 0.94041 0.33125 0.96263 0.0
C99 C 0.51549 0.85184 1.02007 0.0
C100 C 0.50494 0.8744 1.00762 0.0
N101 N 0.53253 0.90526 1.0022 0.0
N102 N 0.54956 0.86849 1.02323 0.0
C103 C 0.55912 0.9007 1.01056 0.0
H104 H 0.49931 0.82517 1.02777 0.0
Co105 Co 0.57789 0.85123 0.04114 0.0
C106 C 0.53013 0.82779 0.1329 0.0
O107 O 0.5174 0.8479 0.12898 0.0
N108 N 0.60571 0.83368 0.06033 0.0
C109 C 0.63594 0.82029 0.11092 0.0
C110 C 0.62049 0.8392 0.10596 0.0
C111 C 0.61229 0.81083 0.03838 0.0
N112 N 0.63073 0.80228 0.06855 0.0
O113 O 0.55073 0.81195 1.00009 0.0
H114 H 0.61879 0.85481 0.13505 0.0
H115 H 0.60288 0.7999 1.00177 0.0
O116 O 0.5516 0.82919 0.10093 0.0
C117 C 0.55923 0.82227 0.95498 0.0
O118 O 0.58343 0.85368 0.9478 0.0
N119 N 0.60679 0.89183 0.07452 0.0
C120 C 0.64687 0.96153 0.082 0.0
C121 C 0.6189 0.94405 0.11382 0.0
C122 C 0.599 0.90871 0.10965 0.0
C123 C 0.63604 0.90826 0.04773 0.0
C124 C 0.65662 0.94308 0.05123 0.0
H125 H 0.5757 0.89593 0.13032 0.0
H126 H 0.64153 0.89475 1.01932 0.0
H127 H 0.58522 0.92065 1.00796 0.0
H128 H 0.47895 0.8687 1.00479 0.0
H129 H 0.64835 0.81846 0.14441 0.0
H130 H 0.61066 0.9577 0.13786 0.0
H131 H 0.67818 0.95581 1.02635 0.0
C132 C 0.64034 0.46427 0.99466 0.0
C133 C 0.60579 0.45081 0.99764 0.0
N134 N 0.59928 0.47652 0.99729 0.0
N135 N 0.65565 0.49838 0.99276 0.0
C136 C 0.6298 0.50486 0.99374 0.0
H137 H 0.65349 0.45007 0.99461 0.0
Co138 Co 0.70247 0.52965 0.98699 0.0
C139 C 0.69535 0.49968 0.09103 0.0
O140 O 0.66317 0.49045 0.0946 0.0
N141 N 0.74849 0.56047 0.98078 0.0
C142 C 0.79889 0.5965 0.94891 0.0
C143 C 0.76512 0.57529 0.93808 0.0
C144 C 0.77243 0.57314 1.01699 0.0
N145 N 0.80333 0.59483 0.99857 0.0
O146 O 0.7089 0.49742 0.94896 0.0
H147 H 0.75345 0.57078 0.90144 0.0
H148 H 0.76736 0.56719 0.05638 0.0
O149 O 0.71182 0.51438 0.05118 0.0
C150 C 0.69771 0.49623 0.90455 0.0
O151 O 0.68148 0.51269 0.89553 0.0
N152 N 0.69684 0.56344 1.01671 0.0
C153 C 0.6824 0.61479 0.03604 0.0
C154 C 0.6868 0.59713 0.07582 0.0
C155 C 0.6941 0.57128 0.06531 0.0
C156 C 0.69474 0.58187 0.9782 0.0
C157 C 0.68729 0.60738 0.98691 0.0
H158 H 0.69703 0.55768 0.09604 0.0
H159 H 0.69755 0.57561 0.94002 0.0
H160 H 0.63306 0.5299 0.99111 0.0
H161 H 0.58707 0.42425 1.00076 0.0
H162 H 0.81873 0.61134 0.92224 0.0
H163 H 0.68371 0.6026 0.11437 0.0
H164 H 0.685 0.62099 0.95527 0.0
C165 C 0.14475 0.66372 0.07664 0.0
C166 C 0.12226 0.63032 0.06587 0.0
N167 N 0.09147 0.62693 0.05908 0.0
N168 N 0.12814 0.68126 0.07712 0.0
C169 C 0.09587 0.6582 0.06531 0.0
H170 H 0.17144 0.67446 0.08443 0.0
Co171 Co 0.14648 0.72776 0.08874 0.0
C172 C 0.16273 0.70458 0.18768 0.0
O173 O 0.14019 0.6723 0.18353 0.0
N174 N 0.16507 0.77404 0.10145 0.0
C175 C 0.17975 0.82128 0.14399 0.0
C176 C 0.16032 0.78673 0.1445 0.0
C177 C 0.18771 0.80148 0.07537 0.0
N178 N 0.19715 0.83063 0.10061 0.0
O179 O 0.18689 0.73653 0.05293 0.0
H180 H 0.14469 0.7717 0.1754 0.0
H181 H 0.19774 0.80008 0.03924 0.0
O182 O 0.16567 0.72537 0.15329 0.0
C183 C 0.17869 0.73274 1.00648 0.0
O184 O 0.14775 0.72523 0.99452 0.0
N185 N 0.10526 0.71967 0.11629 0.0
C186 C 0.03732 0.70148 0.12522 0.0
C187 C 0.05257 0.69066 0.16095 0.0
C188 C 0.0869 0.7003 0.15604 0.0
C189 C 0.09116 0.73159 0.08291 0.0
C190 C 0.0575 0.72309 0.08683 0.0
H191 H 0.09773 0.6905 0.18224 0.0
H192 H 0.10572 0.74613 0.0509 0.0
H193 H 0.07593 0.66421 0.06081 0.0
H194 H 0.128 0.61003 0.06442 0.0
H195 H 0.18221 0.83804 0.17449 0.0
H196 H 0.03786 0.67396 0.19123 0.0
H197 H 0.04688 0.73152 0.0577 0.0
C198 C 0.84584 0.48918 0.48503 0.0
C199 C 0.86656 0.47538 0.48828 0.0
N200 N 0.89509 0.49743 0.51276 0.0
N201 N 0.86136 0.51988 0.50704 0.0
C202 C 0.89097 0.52397 0.52418 0.0
H203 H 0.82109 0.4776 0.46774 0.0
Co204 Co 0.84579 0.55032 0.51429 0.0
C205 C 0.82863 0.55316 0.40706 0.0
O206 O 0.85025 0.58584 0.40715 0.0
N207 N 0.82894 0.58005 0.52395 0.0
C208 C 0.81505 0.61391 0.56506 0.0
C209 C 0.83193 0.5961 0.56792 0.0
C210 C 0.80822 0.58686 0.49616 0.0
N211 N 0.80015 0.60796 0.51982 0.0
O212 O 0.80656 0.51635 0.54933 0.0
H213 H 0.84533 0.59459 0.60039 0.0
H214 H 0.79805 0.57596 0.46002 0.0
O215 O 0.82303 0.53603 0.44764 0.0
C216 C 0.81582 0.51464 0.59401 0.0
O217 O 0.84808 0.53319 0.60538 0.0
N218 N 0.88714 0.58515 0.48571 0.0
C219 C 0.95481 0.63228 0.46492 0.0
C220 C 0.93757 0.60265 0.43634 0.0
C221 C 0.90353 0.57951 0.44697 0.0
C222 C 0.90399 0.61419 0.51324 0.0
C223 C 0.93729 0.63837 0.50259 0.0
H224 H 0.89101 0.55602 0.42616 0.0
H225 H 0.89301 0.61796 0.54641 0.0
H226 H 0.90955 0.54666 0.54327 0.0
H227 H 0.86088 0.45094 0.47381 0.0
H228 H 0.81293 0.6291 0.5945 0.0
H229 H 0.95065 0.59677 0.40764 0.0
H230 H 0.95018 0.66036 0.52674 0.0
C231 C 0.34952 0.84333 0.59985 0.0
C232 C 0.38346 0.86674 0.59676 0.0
N233 N 0.38694 0.8978 0.59385 0.0
N234 N 0.33146 0.85939 0.59795 0.0
C235 C 0.35511 0.8926 0.59564 0.0
H236 H 0.33866 0.81619 0.60214 0.0
Co237 Co 0.28401 0.83964 0.60224 0.0
C238 C 0.2937 0.81166 0.50297 0.0
O239 O 0.32651 0.83236 0.50083 0.0
N240 N 0.23713 0.81987 0.60738 0.0
C241 C 0.18537 0.7914 0.63941 0.0
C242 C 0.21925 0.81102 0.65047 0.0
C243 C 0.21361 0.8064 0.57062 0.0
N244 N 0.182 0.78856 0.58919 0.0
O245 O 0.2815 0.80428 0.64485 0.0
H246 H 0.23024 0.81684 0.68762 0.0
H247 H 0.21954 0.80766 0.5311 0.0
O248 O 0.27674 0.81281 0.54044 0.0
C249 C 0.29238 0.81632 0.68867 0.0
O250 O 0.30648 0.84919 0.69515 0.0
N251 N 0.28591 0.87601 0.56691 0.0
C252 C 0.3008 0.94077 0.53915 0.0
C253 C 0.30679 0.92052 0.50583 0.0
C254 C 0.29871 0.88781 0.52021 0.0
C255 C 0.27846 0.89486 0.59853 0.0
C256 C 0.28531 0.92713 0.58519 0.0
H257 H 0.30519 0.87346 0.49524 0.0
H258 H 0.26919 0.88562 0.63586 0.0
H259 H 0.34917 0.91273 0.59606 0.0
H260 H 0.40385 0.86113 0.59555 0.0
H261 H 0.16491 0.779 0.66614 0.0
H262 H 0.31874 0.93035 0.46988 0.0
H263 H 0.28066 0.94213 0.61213 0.0
C264 C 0.51396 0.35166 0.49851 0.0
C265 C 0.52675 0.38561 0.50742 0.0
N266 N 0.50061 0.39122 0.51296 0.0
N267 N 0.47985 0.33585 0.49779 0.0
C268 C 0.47253 0.36059 0.50747 0.0
H269 H 0.52864 0.33929 0.49267 0.0
Co270 Co 0.4498 0.28926 0.4889 0.0
C271 C 0.48877 0.3081 0.38963 0.0
O272 O 0.4994 0.34066 0.39176 0.0
N273 N 0.42006 0.24283 0.47899 0.0
C274 C 0.38261 0.19551 0.44038 0.0
C275 C 0.40179 0.22995 0.43653 0.0
C276 C 0.41211 0.21541 0.50775 0.0
N277 N 0.38917 0.18641 0.48499 0.0
O278 O 0.47996 0.27939 0.52665 0.0
H279 H 0.40264 0.24465 0.40423 0.0
H280 H 0.42286 0.21655 0.54439 0.0
O281 O 0.47067 0.28853 0.42502 0.0
C282 C 0.47589 0.28458 0.57265 0.0
O283 O 0.45392 0.29434 0.58315 0.0
N284 N 0.41803 0.29844 0.45936 0.0
C285 C 0.36415 0.30903 0.43938 0.0
C286 C 0.39085 0.31955 0.40491 0.0
C287 C 0.41768 0.31371 0.41546 0.0
C288 C 0.39248 0.28866 0.49318 0.0
C289 C 0.36524 0.29333 0.48379 0.0
H290 H 0.43798 0.32187 0.38884 0.0
H291 H 0.39356 0.27734 0.52826 0.0
H292 H 0.44703 0.35629 0.50992 0.0
H293 H 0.55328 0.40456 0.51009 0.0
H294 H 0.3659 0.17829 0.41195 0.0
H295 H 0.39093 0.3321 0.37041 0.0
H296 H 0.34562 0.2856 0.51195 0.0
C297 C 0.1576 0.49659 0.56436 0.0
C298 C 0.13595 0.50943 0.5641 0.0
N299 N 0.10426 0.48344 0.55786 0.0
N300 N 0.13961 0.46268 0.55777 0.0
C301 C 0.10714 0.45552 0.55518 0.0
H302 H 0.18483 0.51119 0.5681 0.0
Co303 Co 0.15578 0.43191 0.55662 0.0
C304 C 0.18613 0.4739 0.46218 0.0
O305 O 0.16595 0.48667 0.46157 0.0
N306 N 0.17183 0.4016 0.55656 0.0
C307 C 0.18634 0.3644 0.58255 0.0
C308 C 0.17096 0.38262 0.59587 0.0
C309 C 0.18777 0.39451 0.5198 0.0
N310 N 0.19706 0.37214 0.53476 0.0
O311 O 0.19186 0.46058 0.60144 0.0
H312 H 0.16034 0.38255 0.63217 0.0
H313 H 0.19262 0.40549 0.4827 0.0
O314 O 0.18364 0.45361 0.49711 0.0
C315 C 0.1794 0.45729 0.6454 0.0
O316 O 0.14648 0.43819 0.65087 0.0
N317 N 0.11826 0.40119 0.51856 0.0
C318 C 0.05094 0.35968 0.49176 0.0
C319 C 0.07349 0.38434 0.4583 0.0
C320 C 0.10756 0.40476 0.4722 0.0
C321 C 0.09702 0.37545 0.54936 0.0
C322 C 0.06334 0.35423 0.53652 0.0
H323 H 0.12402 0.42497 0.44758 0.0
H324 H 0.10542 0.37342 0.58644 0.0
H325 H 0.08569 0.43023 0.55213 0.0
H326 H 0.14304 0.53582 0.56697 0.0
H327 H 0.19046 0.34775 0.60671 0.0
H328 H 0.06443 0.38933 0.4236 0.0
H329 H 0.04642 0.33569 0.56344 0.0
C330 C 0.64043 0.16276 0.49793 0.0
C331 C 0.60629 0.13948 0.49908 0.0
N332 N 0.60123 0.11441 0.53092 0.0
N333 N 0.65676 0.15229 0.52876 0.0
C334 C 0.63222 0.12313 0.54876 0.0
H335 H 0.65257 0.18554 0.47554 0.0
Co336 Co 0.70303 0.17193 0.54209 0.0
C337 C 0.72671 0.18359 0.43502 0.0
O338 O 0.73834 0.16269 0.44124 0.0
N339 N 0.7496 0.19266 0.55743 0.0
C340 C 0.79549 0.21686 0.60613 0.0
C341 C 0.7608 0.19745 0.60533 0.0
C342 C 0.77819 0.21005 0.52987 0.0
N343 N 0.8063 0.2246 0.55851 0.0
O344 O 0.70402 0.21174 0.56844 0.0
H345 H 0.74454 0.18802 0.63788 0.0
H346 H 0.77892 0.2143 0.49012 0.0
O347 O 0.71339 0.19059 0.47227 0.0
C348 C 0.69095 0.20456 0.61236 0.0
O349 O 0.67605 0.17282 0.62688 0.0
N350 N 0.70084 0.13063 0.52363 0.0
C351 C 0.68605 0.06339 0.5186 0.0
C352 C 0.67372 0.07648 0.48193 0.0
C353 C 0.68137 0.11023 0.48514 0.0
C354 C 0.71279 0.11791 0.5594 0.0
C355 C 0.70633 0.08478 0.55704 0.0
H356 H 0.67025 0.11948 0.45811 0.0
H357 H 0.72547 0.13248 0.59224 0.0
H358 H 0.63729 0.10845 0.5756 0.0
H359 H 0.58691 0.14052 0.47707 0.0
H360 H 0.81149 0.22503 0.63911 0.0
H361 H 0.65763 0.06058 0.45188 0.0
H362 H 0.71542 0.07537 0.58703 0.0
C363 C 0.50136 0.65585 0.55204 0.0
C364 C 0.48853 0.62137 0.55479 0.0
N365 N 0.51457 0.61539 0.55208 0.0
N366 N 0.53532 0.67156 0.54693 0.0
C367 C 0.54251 0.64622 0.54859 0.0
H368 H 0.48673 0.66857 0.55202 0.0
Co369 Co 0.56644 0.71821 0.53896 0.0
C370 C 0.52228 0.70315 0.44575 0.0
O371 O 0.50915 0.67016 0.44658 0.0
N372 N 0.59743 0.76501 0.52977 0.0
C373 C 0.63613 0.81256 0.49282 0.0
C374 C 0.61923 0.77805 0.49069 0.0
C375 C 0.60092 0.79269 0.55418 0.0
N376 N 0.62456 0.82178 0.5325 0.0
O377 O 0.53971 0.72875 0.58363 0.0
H378 H 0.62191 0.76371 0.46062 0.0
H379 H 0.58592 0.79175 0.5862 0.0
O380 O 0.54328 0.72159 0.47957 0.0
C381 C 0.54562 0.72207 0.62785 0.0
O382 O 0.56626 0.71 0.63281 0.0
N383 N 0.59486 0.70769 0.50208 0.0
C384 C 0.6434 0.6921 0.46981 0.0
C385 C 0.61521 0.68429 0.4396 0.0
C386 C 0.59114 0.69265 0.45631 0.0
C387 C 0.62198 0.71503 0.53172 0.0
C388 C 0.64668 0.70787 0.51614 0.0
H389 H 0.56953 0.68628 0.43304 0.0
H390 H 0.62405 0.72617 0.56832 0.0
H391 H 0.56791 0.65024 0.54713 0.0
H392 H 0.46204 0.60224 0.55667 0.0
H393 H 0.65412 0.82967 0.46553 0.0
H394 H 0.61178 0.67173 0.4038 0.0
H395 H 0.66762 0.71355 0.54108 0.0
H396 H 0.48031 0.05833 0.93788 0.0
H397 H 0.58194 0.96784 0.03143 0.0
H398 H 0.57503 0.11031 1.01823 0.0
H399 H 0.48508 0.91552 0.95678 0.0
H400 H 0.58186 0.02091 1.02199 0.0
H401 H 0.48334 0.00659 0.94042 0.0
C402 C 0.50172 0.0589 0.95627 0.0
C403 C 0.5273 0.08877 0.97837 0.0
C404 C 0.56068 0.99786 1.00745 0.0
C405 C 0.53112 0.0294 0.98082 0.0
C406 C 0.56082 0.9675 1.01244 0.0
C407 C 0.53347 0.93703 0.99473 0.0
C408 C 0.53295 0.99788 0.98466 0.0
C409 C 0.50651 0.93824 0.97146 0.0
C410 C 0.50353 0.02931 0.95742 0.0
C411 C 0.55484 0.088 1.0005 0.0
N412 N 0.50691 0.96812 0.9672 0.0
N413 N 0.55593 0.05876 1.00138 0.0
H414 H 0.58654 0.52508 0.03182 0.0
H415 H 0.38641 0.4143 0.98875 0.0
H416 H 0.5375 0.42363 0.97165 0.0
H417 H 0.43774 0.51696 0.04432 0.0
H418 H 0.44099 0.41665 0.98249 0.0
H419 H 0.53191 0.52209 0.03641 0.0
C420 C 0.56435 0.50222 1.01916 0.0
C421 C 0.56681 0.47464 1.00092 0.0
C422 C 0.44026 0.43867 0.99591 0.0
C423 C 0.50369 0.47087 1.00684 0.0
C424 C 0.40905 0.43731 0.99973 0.0
C425 C 0.40731 0.46549 1.01709 0.0
C426 C 0.47 0.46839 1.00966 0.0
C427 C 0.4377 0.49476 1.03008 0.0
C428 C 0.53302 0.50045 1.02211 0.0
C429 C 0.53686 0.44541 0.98628 0.0
N430 N 0.46768 0.49539 1.0262 0.0
N431 N 0.50655 0.44431 0.98949 0.0
H432 H 0.08287 0.5705 1.01188 0.0
H433 H 0.88386 0.46492 0.06641 0.0
H434 H 0.02827 0.61286 0.08564 0.0
H435 H 0.93784 0.42716 0.97957 0.0
H436 H 0.93604 0.51967 0.07295 0.0
H437 H 0.02961 0.5177 0.99969 0.0
C438 C 0.05968 0.56868 1.02553 0.0
C439 C 0.06007 0.59613 0.04986 0.0
C440 C 0.93638 0.49937 0.05237 0.0
C441 C 0.99889 0.53578 0.0359 0.0
C442 C 0.90655 0.46816 0.04843 0.0
C443 C 0.90646 0.44121 1.02288 0.0
C444 C 0.96632 0.50364 1.03062 0.0
C445 C 0.93677 0.44685 1.00064 0.0
C446 C 0.02923 0.53859 1.01834 0.0
C447 C 0.02914 0.5925 0.06618 0.0
N448 N 0.96543 0.47733 1.00522 0.0
N449 N 0.99983 0.56282 0.05914 0.0
H450 H 0.04983 0.44217 0.50134 0.0
H451 H 0.945 0.53202 0.58154 0.0
H452 H 0.08915 0.52827 0.60062 0.0
H453 H 0.91333 0.45613 0.46523 0.0
H454 H 0.99614 0.52861 0.59341 0.0
H455 H 0.99766 0.44418 0.49261 0.0
C456 C 0.04729 0.4613 0.52174 0.0
C457 C 0.07366 0.48486 0.55221 0.0
C458 C 0.97794 0.51268 0.56535 0.0
C459 C 0.01427 0.48781 0.54164 0.0
C460 C 0.9487 0.51469 0.55834 0.0
C461 C 0.92466 0.49446 0.52204 0.0
C462 C 0.9832 0.49016 0.53609 0.0
C463 C 0.93078 0.472 0.49397 0.0
C464 C 0.01763 0.46265 0.51638 0.0
C465 C 0.06946 0.50975 0.57662 0.0
N466 N 0.95943 0.47051 0.50154 0.0
N467 N 0.04025 0.51053 0.57092 0.0
H468 H 0.53725 0.10395 0.52179 0.0
H469 H 0.45079 0.91238 0.61793 0.0
H470 H 0.59309 0.05441 0.56398 0.0
H471 H 0.39438 0.9564 0.55516 0.0
H472 H 0.50305 0.96562 0.60371 0.0
H473 H 0.48448 0.05141 0.53871 0.0
C474 C 0.53849 0.08209 0.5345 0.0
C475 C 0.56981 0.0838 0.54157 0.0
C476 C 0.47921 0.96365 0.59314 0.0
C477 C 0.50941 0.02358 0.5615 0.0
C478 C 0.4493 0.93314 0.60109 0.0
C479 C 0.41796 0.92966 0.58765 0.0
C480 C 0.47794 0.99108 0.57166 0.0
C481 C 0.41777 0.95785 0.56673 0.0
C482 C 0.50832 0.05211 0.54436 0.0
C483 C 0.56972 0.05465 0.55876 0.0
N484 N 0.44728 0.9873 0.55931 0.0
N485 N 0.54005 0.02582 0.56808 0.0
H486 H 0.45292 0.40254 0.55587 0.0
H487 H 0.56123 0.60236 0.51018 0.0
H488 H 0.55226 0.45365 0.48868 0.0
H489 H 0.46434 0.55408 0.58502 0.0
H490 H 0.55813 0.54786 0.50318 0.0
H491 H 0.45612 0.45727 0.56713 0.0
C492 C 0.47536 0.42518 0.54334 0.0
C493 C 0.50236 0.42334 0.52119 0.0
C494 C 0.53756 0.54911 0.52135 0.0
C495 C 0.50626 0.48618 0.53437 0.0
C496 C 0.53942 0.58042 0.52576 0.0
C497 C 0.5131 0.58307 0.54866 0.0
C498 C 0.5091 0.51994 0.53969 0.0
C499 C 0.48511 0.55331 0.5668 0.0
C500 C 0.47724 0.45647 0.55007 0.0
C501 C 0.531 0.45371 0.50646 0.0
N502 N 0.48384 0.52299 0.5619 0.0
N503 N 0.53212 0.48376 0.51318 0.0
H504 H 0.33143 0.04667 0.10051 0.0
H505 H 0.25171 0.84912 0.04016 0.0
H506 H 0.37629 0.00663 0.99879 0.0
H507 H 0.20243 0.88958 0.1322 0.0
H508 H 0.29789 0.90665 1.02509 0.0
H509 H 0.28499 0.98898 0.11567 0.0
C510 C 0.33165 0.02572 0.08179 0.0
C511 C 0.35757 0.03142 0.04811 0.0
C512 C 0.27691 0.90293 0.0485 0.0
C513 C 0.30451 0.96554 0.06469 0.0
C514 C 0.25036 0.87006 0.05674 0.0
C515 C 0.22318 0.86443 0.08775 0.0
C516 C 0.27631 0.93038 0.07143 0.0
C517 C 0.22312 0.89265 0.10877 0.0
C518 C 0.30504 0.99284 0.09008 0.0
C519 C 0.35651 0.00338 1.02447 0.0
N520 N 0.24931 0.92435 0.1004 0.0
N521 N 0.3304 0.97171 0.03312 0.0
H522 H 0.43545 0.25514 0.05558 0.0
H523 H 0.26768 0.26702 0.08929 0.0
H524 H 0.34085 0.18997 0.98092 0.0
H525 H 0.36771 0.3517 0.11557 0.0
H526 H 0.29255 0.23157 0.07138 0.0
H527 H 0.40918 0.28422 0.09733 0.0
C528 C 0.40906 0.24673 0.04846 0.0
C529 C 0.39031 0.22035 1.0144 0.0
C530 C 0.30901 0.25776 0.0819 0.0
C531 C 0.36016 0.25314 0.06224 0.0
C532 C 0.29485 0.27796 0.09234 0.0
C533 C 0.31572 0.31249 0.10309 0.0
C534 C 0.34429 0.27213 0.08241 0.0
C535 C 0.3507 0.32522 0.1074 0.0
C536 C 0.39416 0.26336 0.07214 0.0
C537 C 0.35628 0.21053 1.00626 0.0
N538 N 0.36399 0.30513 0.09629 0.0
N539 N 0.3423 0.22695 1.02996 0.0
H540 H 0.95602 0.28483 0.09712 0.0
H541 H 0.15066 0.40128 1.01763 0.0
H542 H 0.99254 0.37356 1.00397 0.0
H543 H 0.11264 0.30875 0.10215 0.0
H544 H 0.09295 0.3916 1.0117 0.0
H545 H 0.01374 0.29429 0.10182 0.0
C546 C 0.97623 0.30648 0.07813 0.0
C547 C 0.96941 0.32829 0.04987 0.0
C548 C 0.09724 0.37335 0.03139 0.0
C549 C 0.03542 0.33907 0.05442 0.0
C550 C 0.13018 0.37873 0.03437 0.0
C551 C 0.1366 0.35593 0.06076 0.0
C552 C 0.07054 0.34498 0.05497 0.0
C553 C 0.109 0.32731 0.08222 0.0
C554 C 0.00913 0.31173 0.0804 0.0
C555 C 0.99656 0.3558 1.02557 0.0
N556 N 0.07728 0.32275 0.07907 0.0
N557 N 0.02829 0.36035 1.0283 0.0
H558 H 0.76719 0.18136 0.08545 0.0
H559 H 0.64686 0.99073 0.99448 0.0
H560 H 0.75242 0.14869 0.93106 0.0
H561 H 0.68102 0.01508 0.1476 0.0
H562 H 0.67754 0.05072 0.97372 0.0
H563 H 0.72899 0.12264 0.11146 0.0
C564 C 0.75569 0.16186 0.05705 0.0
C565 C 0.76305 0.1698 1.006 0.0
C566 C 0.67834 0.04312 1.01195 0.0
C567 C 0.71943 0.10292 0.0354 0.0
C568 C 0.6608 0.00893 1.02381 0.0
C569 C 0.66203 0.99813 0.07256 0.0
C570 C 0.69746 0.06687 0.04906 0.0
C571 C 0.67977 0.02258 0.1095 0.0
C572 C 0.73407 0.12842 0.07193 0.0
C573 C 0.74779 0.1436 0.97077 0.0
N574 N 0.69721 0.056 0.09686 0.0
N575 N 0.72669 0.11139 0.98613 0.0
H576 H 0.68341 0.7995 0.1102 0.0
H577 H 0.63264 0.62025 0.98828 0.0
H578 H 0.5982 0.7456 1.01073 0.0
H579 H 0.70958 0.66824 0.10197 0.0
H580 H 0.62024 0.66631 0.99484 0.0
H581 H 0.69475 0.75276 0.10506 0.0
C582 C 0.66707 0.77782 0.08721 0.0
C583 C 0.63961 0.77639 0.06119 0.0
C584 C 0.63972 0.66676 1.01857 0.0
C585 C 0.65259 0.72271 0.05496 0.0
C586 C 0.64682 0.64049 1.01485 0.0
C587 C 0.67236 0.64064 0.04439 0.0
C588 C 0.65843 0.69356 0.05191 0.0
C589 C 0.68963 0.66716 0.07867 0.0
C590 C 0.67358 0.75113 0.0843 0.0
C591 C 0.61975 0.74795 1.03113 0.0
N592 N 0.68253 0.69274 0.0812 0.0
N593 N 0.62656 0.72216 1.02901 0.0
H594 H 0.82197 0.56916 0.07588 0.0
H595 H 0.00346 0.73539 0.10362 0.0
H596 H 0.85632 0.65777 0.9834 0.0
H597 H 0.98635 0.636 0.14056 0.0
H598 H 0.94392 0.71019 0.08007 0.0
H599 H 0.87706 0.59643 0.11868 0.0
C600 C 0.84098 0.59452 0.06509 0.0
C601 C 0.83476 0.61125 1.02589 0.0
C602 C 0.95313 0.69399 0.09406 0.0
C603 C 0.89739 0.64256 0.07486 0.0
C604 C 0.98706 0.70832 0.10762 0.0
C605 C 1.00011 0.68772 0.12325 0.0
C606 C 0.93188 0.65882 0.09662 0.0
C607 C 0.97744 0.65287 0.12876 0.0
C608 C 0.87236 0.60995 0.08932 0.0
C609 C 0.8603 0.64393 1.013 0.0
N610 N 0.94446 0.63943 0.11489 0.0
N611 N 0.89049 0.65856 0.03746 0.0
H612 H 0.15825 0.80235 0.50475 0.0
H613 H 0.00188 0.61393 0.48287 0.0
H614 H 0.1381 0.72335 0.61077 0.0
H615 H 0.99149 0.70027 0.44663 0.0
H616 H 0.06145 0.65228 0.50446 0.0
H617 H 0.10537 0.76326 0.46016 0.0
C618 C 0.14274 0.77671 0.51824 0.0
C619 C 0.15194 0.76602 0.56175 0.0
C620 C 0.04632 0.66273 0.49045 0.0
C621 C 0.09277 0.72131 0.5106 0.0
C622 C 0.01255 0.64091 0.47758 0.0
C623 C 0.99197 0.65409 0.46289 0.0
C624 C 0.05956 0.69785 0.48797 0.0
C625 C 0.00673 0.68928 0.45769 0.0
C626 C 0.11282 0.75454 0.49295 0.0
C627 C 0.13138 0.73258 0.57786 0.0
N628 N 0.03967 0.71006 0.4706 0.0
N629 N 0.10278 0.71135 0.55221 0.0
H630 H 0.32387 0.13779 0.48482 0.0
H631 H 0.36482 0.98893 0.51279 0.0
H632 H 0.4241 0.15711 0.51958 0.0
H633 H 0.26598 0.97493 0.54458 0.0
H634 H 0.38694 0.05006 0.50515 0.0
H635 H 0.3017 0.07727 0.49923 0.0
C636 C 0.34102 0.12914 0.49634 0.0
C637 C 0.37568 0.15216 0.50144 0.0
C638 C 0.36041 0.03356 0.51368 0.0
C639 C 0.35093 0.08323 0.51636 0.0
C640 C 0.34771 0.99873 0.51736 0.0
C641 C 0.3135 0.97699 0.52888 0.0
C642 C 0.33857 0.04655 0.52081 0.0
C643 C 0.29249 0.99093 0.53548 0.0
C644 C 0.32848 0.09474 0.50438 0.0
C645 C 0.39714 0.13999 0.51597 0.0
N646 N 0.30532 0.02483 0.53106 0.0
N647 N 0.38449 0.10617 0.52226 0.0
H648 H 0.24721 0.40868 0.468 0.0
H649 H 0.29679 0.26418 0.4476 0.0
H650 H 0.19299 0.31108 0.53942 0.0
H651 H 0.36737 0.36924 0.41719 0.0
H652 H 0.25188 0.27793 0.4585 0.0
H653 H 0.28494 0.3915 0.42871 0.0
C654 C 0.2429 0.38344 0.4747 0.0
C655 C 0.21718 0.36132 0.50741 0.0
C656 C 0.27703 0.29792 0.44855 0.0
C657 C 0.26001 0.34156 0.46257 0.0
C658 C 0.30259 0.29006 0.44205 0.0
C659 C 0.33586 0.31572 0.4322 0.0
C660 C 0.28478 0.33173 0.44538 0.0
C661 C 0.34203 0.34876 0.42486 0.0
C662 C 0.26451 0.37374 0.45248 0.0
C663 C 0.21285 0.32903 0.51512 0.0
N664 N 0.31679 0.35598 0.43245 0.0
N665 N 0.23412 0.32017 0.49304 0.0
H666 H 0.01249 0.38334 0.53049 0.0
H667 H 0.83515 0.21712 0.47427 0.0
H668 H 0.00607 0.30011 0.44529 0.0
H669 H 0.85527 0.28072 0.60419 0.0
H670 H 0.89437 0.25307 0.44771 0.0
H671 H 0.95095 0.35241 0.54012 0.0
C672 C 0.99785 0.35894 0.5124 0.0
C673 C 0.01403 0.34432 0.48649 0.0
C674 C 0.88567 0.25915 0.48186 0.0
C675 C 0.94395 0.30836 0.49863 0.0
C676 C 0.85201 0.2388 0.4969 0.0
C677 C 0.84055 0.24589 0.54168 0.0
C678 C 0.90766 0.28713 0.51132 0.0
C679 C 0.86329 0.27414 0.56986 0.0
C680 C 0.96287 0.34113 0.51846 0.0
C681 C 0.99424 0.31226 0.46495 0.0
N682 N 0.89573 0.29378 0.55414 0.0
N683 N 0.96007 0.29513 0.47175 0.0
H684 H 0.62266 0.00801 0.50774 0.0
H685 H 0.68691 0.87539 0.54 0.0
H686 H 0.72686 0.03648 0.53395 0.0
H687 H 0.58141 0.84574 0.54456 0.0
H688 H 0.70179 0.93478 0.5386 0.0
H689 H 0.60655 0.94837 0.5184 0.0
C690 C 0.64216 0.00164 0.51506 0.0
C691 C 0.67616 0.02714 0.51976 0.0
C692 C 0.67535 0.91544 0.5407 0.0
C693 C 0.65792 0.95929 0.53287 0.0
C694 C 0.66696 0.88165 0.54187 0.0
C695 C 0.63301 0.85595 0.54278 0.0
C696 C 0.64953 0.92364 0.53944 0.0
C697 C 0.60789 0.86503 0.54457 0.0
C698 C 0.63292 0.9677 0.52179 0.0
C699 C 0.70036 0.01761 0.53021 0.0
N700 N 0.61662 0.89824 0.54214 0.0
N701 N 0.69078 0.9845 0.53631 0.0
H702 H 0.71185 0.73176 0.46927 0.0
H703 H 0.74412 0.57517 0.46139 0.0
H704 H 0.63193 0.62944 0.44217 0.0
H705 H 0.80876 0.6701 0.53556 0.0
H706 H 0.70755 0.59726 0.43349 0.0
H707 H 0.75281 0.71218 0.46992 0.0
C708 C 0.70311 0.70526 0.46222 0.0
C709 C 0.66853 0.68206 0.45631 0.0
C710 C 0.72993 0.61329 0.45547 0.0
C711 C 0.71502 0.65941 0.4579 0.0
C712 C 0.75078 0.60077 0.47126 0.0
C713 C 0.77924 0.62082 0.50121 0.0
C714 C 0.73802 0.64621 0.46911 0.0
C715 C 0.78673 0.65372 0.51324 0.0
C716 C 0.72641 0.69407 0.46293 0.0
C717 C 0.65843 0.64806 0.44687 0.0
N718 N 0.76623 0.66538 0.49721 0.0
N719 N 0.68157 0.63758 0.44879 0.0
H720 H 0.50848 0.33685 0.29622 0.0
H721 H 0.51083 0.17773 0.1748 0.0
H722 H 0.48186 0.24528 0.37787 0.0
H723 H 0.49805 0.24933 0.0853 0.0
H724 H 0.51061 0.2078 0.25043 0.0
H725 H 0.51456 0.31036 0.21975 0.0
C726 C 0.50423 0.31132 0.29824 0.0
C727 C 0.49461 0.29327 0.34364 0.0
C728 C 0.50804 0.21705 0.21424 0.0
C729 C 0.50177 0.26295 0.25626 0.0
C730 C 0.50836 0.20001 0.17087 0.0
C731 C 0.50433 0.21088 0.12337 0.0
C732 C 0.50409 0.24554 0.2104 0.0
C733 C 0.50112 0.23993 0.12104 0.0
C734 C 0.50754 0.29618 0.25449 0.0
C735 C 0.48923 0.26015 0.34378 0.0
N736 N 0.50107 0.25625 0.16391 0.0
N737 N 0.49299 0.24615 0.3009 0.0
H738 H 0.23573 0.45602 0.15786 0.0
H739 H 0.24046 0.46376 0.45441 0.0
H740 H 0.32586 0.47727 0.23968 0.0
H741 H 0.17831 0.49137 0.36717 0.0
H742 H 0.26998 0.46393 0.37728 0.0
H743 H 0.21166 0.46403 0.23518 0.0
C744 C 0.25055 0.4626 0.19205 0.0
C745 C 0.28289 0.46607 0.19231 0.0
C746 C 0.25014 0.47032 0.37525 0.0
C747 C 0.25521 0.47465 0.28111 0.0
C748 C 0.23321 0.47012 0.41916 0.0
C749 C 0.20679 0.47745 0.41724 0.0
C750 C 0.24011 0.47727 0.32903 0.0
C751 C 0.19857 0.48568 0.37053 0.0
C752 C 0.23684 0.46725 0.23611 0.0
C753 C 0.30094 0.47458 0.23774 0.0
N754 N 0.21484 0.48493 0.32825 0.0
N755 N 0.28668 0.47816 0.28051 0.0
H756 H 0.79839 0.33327 0.19706 0.0
H757 H 0.73286 0.15964 0.34494 0.0
H758 H 0.77903 0.2399 0.12766 0.0
H759 H 0.73354 0.24597 0.41209 0.0
H760 H 0.74799 0.18878 0.26457 0.0
H761 H 0.77346 0.30239 0.27515 0.0
C762 C 0.78852 0.3062 0.19793 0.0
C763 C 0.79068 0.28917 0.15529 0.0
C764 C 0.7446 0.2014 0.2966 0.0
C765 C 0.76238 0.25369 0.24499 0.0
C766 C 0.73598 0.18475 0.34268 0.0
C767 C 0.73211 0.20044 0.38549 0.0
C768 C 0.74998 0.23441 0.29296 0.0
C769 C 0.7362 0.2329 0.38005 0.0
C770 C 0.77424 0.28859 0.24259 0.0
C771 C 0.77749 0.25411 0.15889 0.0
N772 N 0.74535 0.24901 0.33474 0.0
N773 N 0.76424 0.23767 0.2029 0.0
H774 H 0.53542 0.77103 0.14238 0.0
H775 H 0.53207 0.76733 0.43802 0.0
H776 H 0.51013 0.83621 0.22638 0.0
H777 H 0.50264 0.6769 0.35125 0.0
H778 H 0.5293 0.79579 0.36159 0.0
H779 H 0.5288 0.73863 0.21894 0.0
C780 C 0.52818 0.77834 0.17685 0.0
C781 C 0.5232 0.8063 0.17797 0.0
C782 C 0.52307 0.7696 0.35951 0.0
C783 C 0.51634 0.76977 0.26586 0.0
C784 C 0.5247 0.75336 0.40302 0.0
C785 C 0.5175 0.71965 0.40105 0.0
C786 C 0.51504 0.75229 0.31347 0.0
C787 C 0.5082 0.70282 0.35462 0.0
C788 C 0.52435 0.7598 0.22045 0.0
C789 C 0.51396 0.81469 0.22375 0.0
N790 N 0.50771 0.71946 0.31256 0.0
N791 N 0.5113 0.7968 0.26606 0.0
H792 H 0.85151 0.57066 0.31204 0.0
H793 H 0.67022 0.47829 0.18598 0.0
H794 H 0.76247 0.50168 0.39541 0.0
H795 H 0.76282 0.51953 0.10069 0.0
H796 H 0.70248 0.48503 0.2627 0.0
H797 H 0.81908 0.55139 0.23432 0.0
C798 C 0.82512 0.55112 0.31386 0.0
C799 C 0.80961 0.53782 0.36022 0.0
C800 C 0.71567 0.49227 0.22711 0.0
C801 C 0.77199 0.51597 0.27115 0.0
C802 C 0.69728 0.48846 0.18317 0.0
C803 C 0.71388 0.49907 0.13666 0.0
C804 C 0.75101 0.50712 0.22474 0.0
C805 C 0.74897 0.51179 0.13563 0.0
C806 C 0.80661 0.54006 0.26942 0.0
C807 C 0.77539 0.51246 0.36038 0.0
N808 N 0.76637 0.51591 0.17899 0.0
N809 N 0.75753 0.50272 0.31653 0.0
H810 H 0.14951 0.67465 0.28059 0.0
H811 H 0.31824 0.82055 0.40731 0.0
H812 H 0.22165 0.76457 0.20158 0.0
H813 H 0.22787 0.75919 0.49387 0.0
H814 H 0.28714 0.79282 0.33091 0.0
H815 H 0.18182 0.6984 0.3583 0.0
C816 C 0.17229 0.69922 0.27944 0.0
C817 C 0.18289 0.71766 0.23445 0.0
C818 C 0.27418 0.78529 0.36665 0.0
C819 C 0.22004 0.74471 0.32306 0.0
C820 C 0.29196 0.80094 0.41044 0.0
C821 C 0.27565 0.79232 0.45727 0.0
C822 C 0.23989 0.76037 0.36947 0.0
C823 C 0.24143 0.76679 0.45863 0.0
C824 C 0.19057 0.71279 0.32385 0.0
C825 C 0.21248 0.74949 0.23536 0.0
N826 N 0.22468 0.75166 0.41537 0.0
N827 N 0.23008 0.7619 0.27883 0.0
H828 H 0.53102 0.68785 0.71553 0.0
H829 H 0.54449 0.84283 0.86862 0.0
H830 H 0.53181 0.7735 0.64617 0.0
H831 H 0.5379 0.75473 0.9388 0.0
H832 H 0.52929 0.81323 0.78834 0.0
H833 H 0.52277 0.70673 0.79722 0.0
C834 C 0.52874 0.71035 0.71743 0.0
C835 C 0.53248 0.72938 0.67408 0.0
C836 C 0.53052 0.80002 0.82127 0.0
C837 C 0.5237 0.75159 0.76796 0.0
C838 C 0.53917 0.81689 0.8672 0.0
C839 C 0.54274 0.80125 0.91025 0.0
C840 C 0.52598 0.76734 0.81793 0.0
C841 C 0.53534 0.76763 0.90647 0.0
C842 C 0.52409 0.72114 0.7642 0.0
C843 C 0.52906 0.75811 0.67864 0.0
N844 N 0.52791 0.75196 0.86081 0.0
N845 N 0.52551 0.76871 0.72494 0.0
H846 H 0.82876 0.49235 0.68083 0.0
H847 H 0.66557 0.47628 0.81481 0.0
H848 H 0.74879 0.49752 0.60252 0.0
H849 H 0.75292 0.48737 0.89411 0.0
H850 H 0.68891 0.46904 0.73649 0.0
H851 H 0.79468 0.47573 0.75704 0.0
C852 C 0.80365 0.4893 0.6794 0.0
C853 C 0.79175 0.49677 0.63537 0.0
C854 C 0.70272 0.4724 0.77107 0.0
C855 C 0.7527 0.47813 0.72305 0.0
C856 C 0.68936 0.47639 0.81593 0.0
C857 C 0.70755 0.48286 0.86102 0.0
C858 C 0.73469 0.47509 0.77106 0.0
C859 C 0.73806 0.48246 0.86025 0.0
C860 C 0.78426 0.47989 0.72307 0.0
C861 C 0.75895 0.49205 0.63561 0.0
N862 N 0.75097 0.47926 0.81579 0.0
N863 N 0.74076 0.48357 0.67908 0.0
H864 H 0.23949 0.75136 0.70197 0.0
H865 H 0.24748 0.7772 0.99909 0.0
H866 H 0.32352 0.83327 0.77953 0.0
H867 H 0.16249 0.69817 0.91914 0.0
H868 H 0.28125 0.79081 0.92166 0.0
H869 H 0.21678 0.72393 0.78297 0.0
C870 C 0.2537 0.76304 0.73585 0.0
C871 C 0.28318 0.79482 0.73407 0.0
C872 C 0.2554 0.77002 0.92139 0.0
C873 C 0.25703 0.76411 0.82701 0.0
C874 C 0.23627 0.76215 0.96568 0.0
C875 C 0.20211 0.73684 0.96523 0.0
C876 C 0.24014 0.75237 0.87667 0.0
C877 C 0.18866 0.71825 0.92083 0.0
C878 C 0.24059 0.74757 0.78223 0.0
C879 C 0.30041 0.80896 0.77929 0.0
N880 N 0.2075 0.72662 0.87832 0.0
N881 N 0.28683 0.79384 0.82388 0.0
H882 H 0.51107 0.25883 0.87866 0.0
H883 H 0.49949 0.23951 0.58014 0.0
H884 H 0.5166 0.17967 0.79832 0.0
H885 H 0.49153 0.31668 0.66224 0.0
H886 H 0.51765 0.22411 0.65787 0.0
H887 H 0.51629 0.28757 0.79867 0.0
C888 C 0.51434 0.248 0.84441 0.0
C889 C 0.51293 0.21662 0.84507 0.0
C890 C 0.51251 0.24483 0.65861 0.0
C891 C 0.51814 0.24883 0.7533 0.0
C892 C 0.50237 0.25372 0.61416 0.0
C893 C 0.49356 0.27904 0.61498 0.0
C894 C 0.51384 0.26149 0.7039 0.0
C895 C 0.49754 0.29657 0.66015 0.0
C896 C 0.51702 0.26422 0.79862 0.0
C897 C 0.51706 0.20362 0.79943 0.0
N898 N 0.50697 0.28723 0.70278 0.0
N899 N 0.51894 0.21946 0.75541 0.0
H900 H 0.22171 0.46192 0.95727 0.0
H901 H 0.24548 0.47303 0.65948 0.0
H902 H 0.30024 0.45433 0.87873 0.0
H903 H 0.16061 0.46984 0.7358 0.0
H904 H 0.27379 0.48097 0.74075 0.0
H905 H 0.20681 0.47928 0.87834 0.0
C906 C 0.23635 0.46479 0.92376 0.0
C907 C 0.26184 0.45624 0.92416 0.0
C908 C 0.24923 0.47919 0.7396 0.0
C909 C 0.24493 0.47561 0.83406 0.0
C910 C 0.23323 0.47492 0.69314 0.0
C911 C 0.20047 0.47021 0.69107 0.0
C912 C 0.23227 0.47871 0.78407 0.0
C913 C 0.18566 0.47276 0.73588 0.0
C914 C 0.22776 0.47446 0.87867 0.0
C915 C 0.27997 0.46016 0.87972 0.0
N916 N 0.20141 0.47632 0.78056 0.0
N917 N 0.27093 0.46914 0.83643 0.0
H918 H 0.73188 0.26127 0.91437 0.0
H919 H 0.74606 0.26899 0.61884 0.0
H920 H 0.81173 0.34546 0.83434 0.0
H921 H 0.65558 0.19777 0.69745 0.0
H922 H 0.76683 0.30234 0.69617 0.0
H923 H 0.69958 0.242 0.83581 0.0
C924 C 0.7422 0.27619 0.88066 0.0
C925 C 0.77474 0.3047 0.88078 0.0
C926 C 0.74203 0.27985 0.69621 0.0
C927 C 0.73842 0.28251 0.79059 0.0
C928 C 0.73004 0.26102 0.65181 0.0
C929 C 0.69923 0.2304 0.65185 0.0
C930 C 0.72321 0.26769 0.7409 0.0
C931 C 0.67972 0.22105 0.69596 0.0
C932 C 0.72388 0.26511 0.83567 0.0
C933 C 0.78696 0.32298 0.83583 0.0
N934 N 0.69229 0.23917 0.73888 0.0
N935 N 0.76913 0.31128 0.79251 0.0
loop_
_geom_bond_atom_site_label_1
_geom_bond_atom_site_label_2
_geom_bond_distance
_geom_bond_site_symmetry_2
_ccdc_geom_bond_type
C0 C1 1.351 . S
C0 N3 1.368 . S
C0 H5 0.931 . S
C1 C0 1.351 . S
C1 N2 1.352 1_556 S
C1 H29 0.930 . S
N2 C1 1.352 1_554 S
N2 C4 1.349 . S
N3 C0 1.368 . S
N3 C4 1.321 1_556 S
N3 Co6 2.135 . S
C4 N2 1.349 . S
C4 N3 1.321 1_554 S
C4 H28 0.930 . S
H5 C0 0.931 . S
Co6 N3 2.135 . S
Co6 N9 2.121 1_556 S
Co6 O14 2.055 . S
Co6 O17 2.039 1_556 S
Co6 N20 2.140 1_556 S
C7 O8 1.227 . S
C7 O17 1.265 . S
O8 C7 1.227 . S
N9 Co6 2.121 1_554 S
N9 C11 1.375 . S
N9 C12 1.313 1_554 S
C10 C11 1.338 . S
C10 N13 1.377 1_554 S
C10 H30 0.930 . S
C11 N9 1.375 . S
C11 C10 1.338 . S
C11 H15 0.931 . S
C12 N9 1.313 1_556 S
C12 N13 1.344 . S
C12 H16 0.930 . S
N13 C10 1.377 1_556 S
N13 C12 1.344 . S
O14 Co6 2.055 . S
O14 C18 1.253 . S
H15 C11 0.931 . S
H16 C12 0.930 . S
O17 Co6 2.039 1_554 S
O17 C7 1.265 . S
C18 O14 1.253 . S
C18 O19 1.227 . S
O19 C18 1.227 . S
N20 Co6 2.140 1_554 S
N20 C23 1.346 . S
N20 C24 1.345 1_554 S
C21 C22 1.387 . S
C21 C25 1.391 1_554 S
C22 C21 1.387 . S
C22 C23 1.369 . S
C22 H31 0.929 . S
C23 N20 1.346 . S
C23 C22 1.369 . S
C23 H26 0.928 . S
C24 N20 1.345 1_556 S
C24 C25 1.371 . S
C24 H27 0.931 . S
C25 C21 1.391 1_556 S
C25 C24 1.371 . S
C25 H32 0.930 . S
H26 C23 0.928 . S
H27 C24 0.931 . S
H28 C4 0.930 . S
H29 C1 0.930 . S
H30 C10 0.930 . S
H31 C22 0.929 . S
H32 C25 0.930 . S
C33 C34 1.351 . S
C33 N36 1.368 . S
C33 H38 0.931 . S
C34 C33 1.351 . S
C34 N35 1.354 1_556 S
C34 H62 0.930 . S
N35 C34 1.354 1_554 S
N35 C37 1.348 . S
N36 C33 1.368 . S
N36 C37 1.321 1_556 S
N36 Co39 2.135 . S
C37 N35 1.348 . S
C37 N36 1.321 1_554 S
C37 H61 0.930 . S
H38 C33 0.931 . S
Co39 N36 2.135 . S
Co39 N42 2.121 1_556 S
Co39 O47 2.055 . S
Co39 O50 2.039 1_556 S
Co39 N53 2.140 1_556 S
C40 O41 1.227 . S
C40 O50 1.265 . S
O41 C40 1.227 . S
N42 Co39 2.121 1_554 S
N42 C44 1.375 . S
N42 C45 1.313 1_554 S
C43 C44 1.338 . S
C43 N46 1.377 1_554 S
C43 H63 0.930 . S
C44 N42 1.375 . S
C44 C43 1.338 . S
C44 H48 0.931 . S
C45 N42 1.313 1_556 S
C45 N46 1.344 . S
C45 H49 0.930 . S
N46 C43 1.377 1_556 S
N46 C45 1.344 . S
O47 Co39 2.055 . S
O47 C51 1.253 . S
H48 C44 0.931 . S
H49 C45 0.930 . S
O50 Co39 2.039 1_554 S
O50 C40 1.265 . S
C51 O47 1.253 . S
C51 O52 1.227 . S
O52 C51 1.227 . S
N53 Co39 2.140 1_554 S
N53 C56 1.346 . S
N53 C57 1.345 1_554 S
C54 C55 1.387 . S
C54 C58 1.391 1_554 S
C55 C54 1.387 . S
C55 C56 1.369 . S
C55 H64 0.929 . S
C56 N53 1.346 . S
C56 C55 1.369 . S
C56 H59 0.928 . S
C57 N53 1.345 1_556 S
C57 C58 1.371 . S
C57 H60 0.931 . S
C58 C54 1.391 1_556 S
C58 C57 1.371 . S
C58 H65 0.930 . S
H59 C56 0.928 . S
H60 C57 0.931 . S
H61 C37 0.930 . S
H62 C34 0.930 . S
H63 C43 0.930 . S
H64 C55 0.929 . S
H65 C58 0.930 . S
C66 C67 1.351 . S
C66 N69 1.368 . S
C66 H71 0.931 . S
C67 C66 1.351 . S
C67 N68 1.353 1_556 S
C67 H95 0.930 . S
N68 C67 1.353 1_554 S
N68 C70 1.349 . S
N69 C66 1.368 . S
N69 C70 1.321 1_556 S
N69 Co72 2.135 . S
C70 N68 1.349 . S
C70 N69 1.321 1_554 S
C70 H94 0.930 . S
H71 C66 0.931 . S
Co72 N69 2.135 . S
Co72 N75 2.121 1_556 S
Co72 O80 2.055 . S
Co72 O83 2.039 1_556 S
Co72 N86 2.140 1_556 S
C73 O74 1.227 . S
C73 O83 1.265 . S
O74 C73 1.227 . S
N75 Co72 2.121 1_554 S
N75 C77 1.375 . S
N75 C78 1.313 1_554 S
C76 C77 1.338 . S
C76 N79 1.377 1_554 S
C76 H96 0.930 . S
C77 N75 1.375 . S
C77 C76 1.338 . S
C77 H81 0.931 . S
C78 N75 1.313 1_556 S
C78 N79 1.344 . S
C78 H82 0.930 . S
N79 C76 1.377 1_556 S
N79 C78 1.344 . S
O80 Co72 2.055 . S
O80 C84 1.253 . S
H81 C77 0.931 . S
H82 C78 0.930 . S
O83 Co72 2.039 1_554 S
O83 C73 1.265 . S
C84 O80 1.253 . S
C84 O85 1.227 . S
O85 C84 1.227 . S
N86 Co72 2.140 1_554 S
N86 C89 1.346 . S
N86 C90 1.345 1_554 S
C87 C88 1.387 . S
C87 C91 1.391 1_554 S
C88 C87 1.387 . S
C88 C89 1.369 . S
C88 H97 0.929 . S
C89 N86 1.346 . S
C89 C88 1.369 . S
C89 H92 0.928 . S
C90 N86 1.345 1_556 S
C90 C91 1.371 . S
C90 H93 0.931 . S
C91 C87 1.391 1_556 S
C91 C90 1.371 . S
C91 H98 0.930 . S
H92 C89 0.928 . S
H93 C90 0.931 . S
H94 C70 0.930 . S
H95 C67 0.930 . S
H96 C76 0.930 . S
H97 C88 0.929 . S
H98 C91 0.930 . S
C99 C100 1.351 . S
C99 N102 1.368 . S
C99 H104 0.931 . S
C100 C99 1.351 . S
C100 N101 1.352 1_556 S
C100 H128 0.930 . S
N101 C100 1.352 1_554 S
N101 C103 1.349 . S
N102 C99 1.368 . S
N102 C103 1.321 1_556 S
N102 Co105 2.135 . S
C103 N101 1.349 . S
C103 N102 1.321 1_554 S
C103 H127 0.930 . S
H104 C99 0.931 . S
Co105 N102 2.135 . S
Co105 N108 2.121 1_556 S
Co105 O113 2.055 . S
Co105 O116 2.039 1_556 S
Co105 N119 2.140 1_556 S
C106 O107 1.227 . S
C106 O116 1.265 . S
O107 C106 1.227 . S
N108 Co105 2.121 1_554 S
N108 C110 1.375 . S
N108 C111 1.313 1_554 S
C109 C110 1.338 . S
C109 N112 1.377 1_554 S
C109 H129 0.930 . S
C110 N108 1.375 . S
C110 C109 1.338 . S
C110 H114 0.931 . S
C111 N108 1.313 1_556 S
C111 N112 1.344 . S
C111 H115 0.930 . S
N112 C109 1.377 1_556 S
N112 C111 1.344 . S
O113 Co105 2.055 . S
O113 C117 1.253 . S
H114 C110 0.931 . S
H115 C111 0.930 . S
O116 Co105 2.039 1_554 S
O116 C106 1.265 . S
C117 O113 1.253 . S
C117 O118 1.227 . S
O118 C117 1.227 . S
N119 Co105 2.140 1_554 S
N119 C122 1.346 . S
N119 C123 1.345 1_554 S
C120 C121 1.387 . S
C120 C124 1.391 1_554 S
C121 C120 1.387 . S
C121 C122 1.369 . S
C121 H130 0.929 . S
C122 N119 1.346 . S
C122 C121 1.369 . S
C122 H125 0.928 . S
C123 N119 1.345 1_556 S
C123 C124 1.371 . S
C123 H126 0.931 . S
C124 C120 1.391 1_556 S
C124 C123 1.371 . S
C124 H131 0.930 . S
H125 C122 0.928 . S
H126 C123 0.931 . S
H127 C103 0.930 . S
H128 C100 0.930 . S
H129 C109 0.930 . S
H130 C121 0.929 . S
H131 C124 0.930 . S
C132 C133 1.351 . S
C132 N135 1.368 . S
C132 H137 0.931 . S
C133 C132 1.351 . S
C133 N134 1.354 1_556 S
C133 H161 0.930 . S
N134 C133 1.354 1_554 S
N134 C136 1.348 . S
N135 C132 1.368 . S
N135 C136 1.321 1_556 S
N135 Co138 2.135 . S
C136 N134 1.348 . S
C136 N135 1.321 1_554 S
C136 H160 0.930 . S
H137 C132 0.931 . S
Co138 N135 2.135 . S
Co138 N141 2.121 1_556 S
Co138 O146 2.055 . S
Co138 O149 2.039 1_556 S
Co138 N152 2.140 1_556 S
C139 O140 1.227 . S
C139 O149 1.265 . S
O140 C139 1.227 . S
N141 Co138 2.121 1_554 S
N141 C143 1.375 . S
N141 C144 1.313 1_554 S
C142 C143 1.338 . S
C142 N145 1.377 1_554 S
C142 H162 0.930 . S
C143 N141 1.375 . S
C143 C142 1.338 . S
C143 H147 0.931 . S
C144 N141 1.313 1_556 S
C144 N145 1.344 . S
C144 H148 0.930 . S
N145 C142 1.377 1_556 S
N145 C144 1.344 . S
O146 Co138 2.055 . S
O146 C150 1.253 . S
H147 C143 0.931 . S
H148 C144 0.930 . S
O149 Co138 2.039 1_554 S
O149 C139 1.265 . S
C150 O146 1.253 . S
C150 O151 1.227 . S
O151 C150 1.227 . S
N152 Co138 2.140 1_554 S
N152 C155 1.346 . S
N152 C156 1.345 1_554 S
C153 C154 1.387 . S
C153 C157 1.391 1_554 S
C154 C153 1.387 . S
C154 C155 1.369 . S
C154 H163 0.929 . S
C155 N152 1.346 . S
C155 C154 1.369 . S
C155 H158 0.928 . S
C156 N152 1.345 1_556 S
C156 C157 1.371 . S
C156 H159 0.931 . S
C157 C153 1.391 1_556 S
C157 C156 1.371 . S
C157 H164 0.930 . S
H158 C155 0.928 . S
H159 C156 0.931 . S
H160 C136 0.930 . S
H161 C133 0.930 . S
H162 C142 0.930 . S
H163 C154 0.929 . S
H164 C157 0.930 . S
C165 C166 1.351 . S
C165 N168 1.368 . S
C165 H170 0.931 . S
C166 C165 1.351 . S
C166 N167 1.353 1_556 S
C166 H194 0.930 . S
N167 C166 1.353 1_554 S
N167 C169 1.349 . S
N168 C165 1.368 . S
N168 C169 1.321 1_556 S
N168 Co171 2.135 . S
C169 N167 1.349 . S
C169 N168 1.321 1_554 S
C169 H193 0.930 . S
H170 C165 0.931 . S
Co171 N168 2.135 . S
Co171 N174 2.121 1_556 S
Co171 O179 2.055 . S
Co171 O182 2.039 1_556 S
Co171 N185 2.140 1_556 S
C172 O173 1.227 . S
C172 O182 1.265 . S
O173 C172 1.227 . S
N174 Co171 2.121 1_554 S
N174 C176 1.375 . S
N174 C177 1.313 1_554 S
C175 C176 1.338 . S
C175 N178 1.377 1_554 S
C175 H195 0.930 . S
C176 N174 1.375 . S
C176 C175 1.338 . S
C176 H180 0.931 . S
C177 N174 1.313 1_556 S
C177 N178 1.344 . S
C177 H181 0.930 . S
N178 C175 1.377 1_556 S
N178 C177 1.344 . S
O179 Co171 2.055 . S
O179 C183 1.253 . S
H180 C176 0.931 . S
H181 C177 0.930 . S
O182 Co171 2.039 1_554 S
O182 C172 1.265 . S
C183 O179 1.253 . S
C183 O184 1.227 . S
O184 C183 1.227 . S
N185 Co171 2.140 1_554 S
N185 C188 1.346 . S
N185 C189 1.345 1_554 S
C186 C187 1.387 . S
C186 C190 1.391 1_554 S
C187 C186 1.387 . S
C187 C188 1.369 . S
C187 H196 0.929 . S
C188 N185 1.346 . S
C188 C187 1.369 . S
C188 H191 0.928 . S
C189 N185 1.345 1_556 S
C189 C190 1.371 . S
C189 H192 0.931 . S
C190 C186 1.391 1_556 S
C190 C189 1.371 . S
C190 H197 0.930 . S
H191 C188 0.928 . S
H192 C189 0.931 . S
H193 C169 0.930 . S
H194 C166 0.930 . S
H195 C175 0.930 . S
H196 C187 0.929 . S
H197 C190 0.930 . S
C198 C199 1.351 . S
C198 N201 1.368 . S
C198 H203 0.931 . S
C199 C198 1.351 . S
C199 N200 1.373 . S
C199 H227 0.930 . S
N200 C199 1.373 . S
N200 C202 1.340 . S
N201 C198 1.368 . S
N201 C202 1.321 . S
N201 Co204 2.135 . S
C202 N200 1.340 . S
C202 N201 1.321 . S
C202 H226 0.930 . S
H203 C198 0.931 . S
Co204 N201 2.135 . S
Co204 N207 2.121 . S
Co204 O212 2.055 . S
Co204 O215 2.039 . S
Co204 N218 2.140 . S
C205 O206 1.227 . S
C205 O215 1.265 . S
O206 C205 1.227 . S
N207 Co204 2.121 . S
N207 C209 1.375 . S
N207 C210 1.313 . S
C208 C209 1.338 . S
C208 N211 1.377 . S
C208 H228 0.930 . S
C209 N207 1.375 . S
C209 C208 1.338 . S
C209 H213 0.931 . S
C210 N207 1.313 . S
C210 N211 1.344 . S
C210 H214 0.930 . S
N211 C208 1.377 . S
N211 C210 1.344 . S
O212 Co204 2.055 . S
O212 C216 1.253 . S
H213 C209 0.931 . S
H214 C210 0.930 . S
O215 Co204 2.039 . S
O215 C205 1.265 . S
C216 O212 1.253 . S
C216 O217 1.227 . S
O217 C216 1.227 . S
N218 Co204 2.140 . S
N218 C221 1.346 . S
N218 C222 1.345 . S
C219 C220 1.387 . S
C219 C223 1.391 . S
C220 C219 1.387 . S
C220 C221 1.369 . S
C220 H229 0.929 . S
C221 N218 1.346 . S
C221 C220 1.369 . S
C221 H224 0.928 . S
C222 N218 1.345 . S
C222 C223 1.371 . S
C222 H225 0.931 . S
C223 C219 1.391 . S
C223 C222 1.371 . S
C223 H230 0.930 . S
H224 C221 0.928 . S
H225 C222 0.931 . S
H226 C202 0.930 . S
H227 C199 0.930 . S
H228 C208 0.930 . S
H229 C220 0.929 . S
H230 C223 0.930 . S
C231 C232 1.351 . S
C231 N234 1.368 . S
C231 H236 0.931 . S
C232 C231 1.351 . S
C232 N233 1.373 . S
C232 H260 0.930 . S
N233 C232 1.373 . S
N233 C235 1.340 . S
N234 C231 1.368 . S
N234 C235 1.321 . S
N234 Co237 2.135 . S
C235 N233 1.340 . S
C235 N234 1.321 . S
C235 H259 0.930 . S
H236 C231 0.931 . S
Co237 N234 2.135 . S
Co237 N240 2.121 . S
Co237 O245 2.055 . S
Co237 O248 2.039 . S
Co237 N251 2.140 . S
C238 O239 1.227 . S
C238 O248 1.265 . S
O239 C238 1.227 . S
N240 Co237 2.121 . S
N240 C242 1.375 . S
N240 C243 1.313 . S
C241 C242 1.338 . S
C241 N244 1.377 . S
C241 H261 0.930 . S
C242 N240 1.375 . S
C242 C241 1.338 . S
C242 H246 0.931 . S
C243 N240 1.313 . S
C243 N244 1.344 . S
C243 H247 0.930 . S
N244 C241 1.377 . S
N244 C243 1.344 . S
O245 Co237 2.055 . S
O245 C249 1.253 . S
H246 C242 0.931 . S
H247 C243 0.930 . S
O248 Co237 2.039 . S
O248 C238 1.265 . S
C249 O245 1.253 . S
C249 O250 1.227 . S
O250 C249 1.227 . S
N251 Co237 2.140 . S
N251 C254 1.346 . S
N251 C255 1.345 . S
C252 C253 1.387 . S
C252 C256 1.391 . S
C253 C252 1.387 . S
C253 C254 1.369 . S
C253 H262 0.929 . S
C254 N251 1.346 . S
C254 C253 1.369 . S
C254 H257 0.928 . S
C255 N251 1.345 . S
C255 C256 1.371 . S
C255 H258 0.931 . S
C256 C252 1.391 . S
C256 C255 1.371 . S
C256 H263 0.930 . S
H257 C254 0.928 . S
H258 C255 0.931 . S
H259 C235 0.930 . S
H260 C232 0.930 . S
H261 C241 0.930 . S
H262 C253 0.929 . S
H263 C256 0.930 . S
C264 C265 1.351 . S
C264 N267 1.368 . S
C264 H269 0.931 . S
C265 C264 1.351 . S
C265 N266 1.373 . S
C265 H293 0.930 . S
N266 C265 1.373 . S
N266 C268 1.340 . S
N267 C264 1.368 . S
N267 C268 1.321 . S
N267 Co270 2.135 . S
C268 N266 1.340 . S
C268 N267 1.321 . S
C268 H292 0.930 . S
H269 C264 0.931 . S
Co270 N267 2.135 . S
Co270 N273 2.121 . S
Co270 O278 2.055 . S
Co270 O281 2.039 . S
Co270 N284 2.140 . S
C271 O272 1.227 . S
C271 O281 1.265 . S
O272 C271 1.227 . S
N273 Co270 2.121 . S
N273 C275 1.375 . S
N273 C276 1.313 . S
C274 C275 1.338 . S
C274 N277 1.377 . S
C274 H294 0.930 . S
C275 N273 1.375 . S
C275 C274 1.338 . S
C275 H279 0.931 . S
C276 N273 1.313 . S
C276 N277 1.344 . S
C276 H280 0.930 . S
N277 C274 1.377 . S
N277 C276 1.344 . S
O278 Co270 2.055 . S
O278 C282 1.253 . S
H279 C275 0.931 . S
H280 C276 0.930 . S
O281 Co270 2.039 . S
O281 C271 1.265 . S
C282 O278 1.253 . S
C282 O283 1.227 . S
O283 C282 1.227 . S
N284 Co270 2.140 . S
N284 C287 1.346 . S
N284 C288 1.345 . S
C285 C286 1.387 . S
C285 C289 1.391 . S
C286 C285 1.387 . S
C286 C287 1.369 . S
C286 H295 0.929 . S
C287 N284 1.346 . S
C287 C286 1.369 . S
C287 H290 0.928 . S
C288 N284 1.345 . S
C288 C289 1.371 . S
C288 H291 0.931 . S
C289 C285 1.391 . S
C289 C288 1.371 . S
C289 H296 0.930 . S
H290 C287 0.928 . S
H291 C288 0.931 . S
H292 C268 0.930 . S
H293 C265 0.930 . S
H294 C274 0.930 . S
H295 C286 0.929 . S
H296 C289 0.930 . S
C297 C298 1.351 . S
C297 N300 1.368 . S
C297 H302 0.931 . S
C298 C297 1.351 . S
C298 N299 1.373 . S
C298 H326 0.930 . S
N299 C298 1.373 . S
N299 C301 1.340 . S
N300 C297 1.368 . S
N300 C301 1.321 . S
N300 Co303 2.135 . S
C301 N299 1.340 . S
C301 N300 1.321 . S
C301 H325 0.930 . S
H302 C297 0.931 . S
Co303 N300 2.135 . S
Co303 N306 2.121 . S
Co303 O311 2.055 . S
Co303 O314 2.039 . S
Co303 N317 2.140 . S
C304 O305 1.227 . S
C304 O314 1.265 . S
O305 C304 1.227 . S
N306 Co303 2.121 . S
N306 C308 1.375 . S
N306 C309 1.313 . S
C307 C308 1.338 . S
C307 N310 1.377 . S
C307 H327 0.930 . S
C308 N306 1.375 . S
C308 C307 1.338 . S
C308 H312 0.931 . S
C309 N306 1.313 . S
C309 N310 1.344 . S
C309 H313 0.930 . S
N310 C307 1.377 . S
N310 C309 1.344 . S
O311 Co303 2.055 . S
O311 C315 1.253 . S
H312 C308 0.931 . S
H313 C309 0.930 . S
O314 Co303 2.039 . S
O314 C304 1.265 . S
C315 O311 1.253 . S
C315 O316 1.227 . S
O316 C315 1.227 . S
N317 Co303 2.140 . S
N317 C320 1.346 . S
N317 C321 1.345 . S
C318 C319 1.387 . S
C318 C322 1.391 . S
C319 C318 1.387 . S
C319 C320 1.369 . S
C319 H328 0.929 . S
C320 N317 1.346 . S
C320 C319 1.369 . S
C320 H323 0.928 . S
C321 N317 1.345 . S
C321 C322 1.371 . S
C321 H324 0.931 . S
C322 C318 1.391 . S
C322 C321 1.371 . S
C322 H329 0.930 . S
H323 C320 0.928 . S
H324 C321 0.931 . S
H325 C301 0.930 . S
H326 C298 0.930 . S
H327 C307 0.930 . S
H328 C319 0.929 . S
H329 C322 0.930 . S
C330 C331 1.351 . S
C330 N333 1.368 . S
C330 H335 0.931 . S
C331 C330 1.351 . S
C331 N332 1.373 . S
C331 H359 0.930 . S
N332 C331 1.373 . S
N332 C334 1.340 . S
N333 C330 1.368 . S
N333 C334 1.321 . S
N333 Co336 2.135 . S
C334 N332 1.340 . S
C334 N333 1.321 . S
C334 H358 0.930 . S
H335 C330 0.931 . S
Co336 N333 2.135 . S
Co336 N339 2.121 . S
Co336 O344 2.055 . S
Co336 O347 2.039 . S
Co336 N350 2.140 . S
C337 O338 1.227 . S
C337 O347 1.265 . S
O338 C337 1.227 . S
N339 Co336 2.121 . S
N339 C341 1.375 . S
N339 C342 1.313 . S
C340 C341 1.338 . S
C340 N343 1.377 . S
C340 H360 0.930 . S
C341 N339 1.375 . S
C341 C340 1.338 . S
C341 H345 0.931 . S
C342 N339 1.313 . S
C342 N343 1.344 . S
C342 H346 0.930 . S
N343 C340 1.377 . S
N343 C342 1.344 . S
O344 Co336 2.055 . S
O344 C348 1.253 . S
H345 C341 0.931 . S
H346 C342 0.930 . S
O347 Co336 2.039 . S
O347 C337 1.265 . S
C348 O344 1.253 . S
C348 O349 1.227 . S
O349 C348 1.227 . S
N350 Co336 2.140 . S
N350 C353 1.346 . S
N350 C354 1.345 . S
C351 C352 1.387 . S
C351 C355 1.391 . S
C352 C351 1.387 . S
C352 C353 1.369 . S
C352 H361 0.929 . S
C353 N350 1.346 . S
C353 C352 1.369 . S
C353 H356 0.928 . S
C354 N350 1.345 . S
C354 C355 1.371 . S
C354 H357 0.931 . S
C355 C351 1.391 . S
C355 C354 1.371 . S
C355 H362 0.930 . S
H356 C353 0.928 . S
H357 C354 0.931 . S
H358 C334 0.930 . S
H359 C331 0.930 . S
H360 C340 0.930 . S
H361 C352 0.929 . S
H362 C355 0.930 . S
C363 C364 1.351 . S
C363 N366 1.368 . S
C363 H368 0.931 . S
C364 C363 1.351 . S
C364 N365 1.373 . S
C364 H392 0.930 . S
N365 C364 1.373 . S
N365 C367 1.340 . S
N366 C363 1.368 . S
N366 C367 1.321 . S
N366 Co369 2.135 . S
C367 N365 1.340 . S
C367 N366 1.321 . S
C367 H391 0.930 . S
H368 C363 0.931 . S
Co369 N366 2.135 . S
Co369 N372 2.121 . S
Co369 O377 2.055 . S
Co369 O380 2.039 . S
Co369 N383 2.140 . S
C370 O371 1.227 . S
C370 O380 1.265 . S
O371 C370 1.227 . S
N372 Co369 2.121 . S
N372 C374 1.375 . S
N372 C375 1.313 . S
C373 C374 1.338 . S
C373 N376 1.377 . S
C373 H393 0.930 . S
C374 N372 1.375 . S
C374 C373 1.338 . S
C374 H378 0.931 . S
C375 N372 1.313 . S
C375 N376 1.344 . S
C375 H379 0.930 . S
N376 C373 1.377 . S
N376 C375 1.344 . S
O377 Co369 2.055 . S
O377 C381 1.253 . S
H378 C374 0.931 . S
H379 C375 0.930 . S
O380 Co369 2.039 . S
O380 C370 1.265 . S
C381 O377 1.253 . S
C381 O382 1.227 . S
O382 C381 1.227 . S
N383 Co369 2.140 . S
N383 C386 1.346 . S
N383 C387 1.345 . S
C384 C385 1.387 . S
C384 C388 1.391 . S
C385 C384 1.387 . S
C385 C386 1.369 . S
C385 H394 0.929 . S
C386 N383 1.346 . S
C386 C385 1.369 . S
C386 H389 0.928 . S
C387 N383 1.345 . S
C387 C388 1.371 . S
C387 H390 0.931 . S
C388 C384 1.391 . S
C388 C387 1.371 . S
C388 H395 0.930 . S
H389 C386 0.928 . S
H390 C387 0.931 . S
H391 C367 0.930 . S
H392 C364 0.930 . S
H393 C373 0.930 . S
H394 C385 0.929 . S
H395 C388 0.930 . S
H396 C402 0.930 . S
H397 C406 0.930 . S
H398 C411 0.929 . S
H399 C409 0.929 . S
H400 C404 0.929 1_545 S
H401 C410 0.929 1_565 S
C402 H396 0.930 . S
C402 C403 1.367 1_556 S
C402 C410 1.378 . S
C403 C402 1.367 1_554 S
C403 C411 1.433 . S
C404 H400 0.929 1_565 S
C404 C406 1.378 . S
C404 C408 1.350 . S
C405 C408 1.463 1_545 S
C405 C410 1.350 1_554 S
C405 N413 1.427 . S
C406 H397 0.930 . S
C406 C404 1.378 . S
C406 C407 1.367 . S
C407 C406 1.367 . S
C407 C409 1.433 1_554 S
C408 C404 1.350 . S
C408 C405 1.463 1_565 S
C408 N412 1.427 1_554 S
C409 H399 0.929 . S
C409 C407 1.433 1_556 S
C409 N412 1.384 . S
C410 H401 0.929 1_545 S
C410 C402 1.378 . S
C410 C405 1.350 1_556 S
C411 H398 0.929 . S
C411 C403 1.433 . S
C411 N413 1.384 . S
N412 C408 1.427 1_556 S
N412 C409 1.384 . S
N413 C405 1.427 . S
N413 C411 1.384 . S
H414 C420 0.930 . S
H415 C424 0.930 . S
H416 C429 0.929 . S
H417 C427 0.929 . S
H418 C422 0.929 . S
H419 C428 0.929 . S
C420 H414 0.930 . S
C420 C421 1.367 . S
C420 C428 1.378 . S
C421 C420 1.367 . S
C421 C429 1.433 1_554 S
C422 H418 0.929 . S
C422 C424 1.378 . S
C422 C426 1.350 1_556 S
C423 C426 1.463 . S
C423 C428 1.350 . S
C423 N431 1.427 1_554 S
C424 H415 0.930 . S
C424 C422 1.378 . S
C424 C425 1.367 1_556 S
C425 C424 1.367 1_554 S
C425 C427 1.433 . S
C426 C422 1.350 1_554 S
C426 C423 1.463 . S
C426 N430 1.427 . S
C427 H417 0.929 . S
C427 C425 1.433 . S
C427 N430 1.384 . S
C428 H419 0.929 . S
C428 C420 1.378 . S
C428 C423 1.350 . S
C429 H416 0.929 . S
C429 C421 1.433 1_556 S
C429 N431 1.384 . S
N430 C426 1.427 . S
N430 C427 1.384 . S
N431 C423 1.427 1_556 S
N431 C429 1.384 . S
H432 C438 0.930 . S
H433 C442 0.930 . S
H434 C447 0.929 . S
H435 C445 0.929 . S
H436 C440 0.929 . S
H437 C446 0.929 . S
C438 H432 0.930 . S
C438 C439 1.367 1_556 S
C438 C446 1.378 . S
C439 C438 1.367 1_554 S
C439 C447 1.433 . S
C440 H436 0.929 . S
C440 C442 1.378 . S
C440 C444 1.350 . S
C441 C444 1.463 1_455 S
C441 C446 1.350 1_554 S
C441 N449 1.427 . S
C442 H433 0.930 . S
C442 C440 1.378 . S
C442 C443 1.367 . S
C443 C442 1.367 . S
C443 C445 1.433 1_554 S
C444 C440 1.350 . S
C444 C441 1.463 1_655 S
C444 N448 1.427 1_554 S
C445 H435 0.929 . S
C445 C443 1.433 1_556 S
C445 N448 1.384 . S
C446 H437 0.929 . S
C446 C438 1.378 . S
C446 C441 1.350 1_556 S
C447 H434 0.929 . S
C447 C439 1.433 . S
C447 N449 1.384 . S
N448 C444 1.427 1_556 S
N448 C445 1.384 . S
N449 C441 1.427 . S
N449 C447 1.384 . S
H450 C456 0.930 . S
H451 C460 0.930 . S
H452 C465 0.929 . S
H453 C463 0.929 . S
H454 C458 0.929 . S
H455 C464 0.929 . S
C456 H450 0.930 . S
C456 C457 1.367 . S
C456 C464 1.378 . S
C457 C456 1.367 . S
C457 C465 1.433 . S
C458 H454 0.929 . S
C458 C460 1.378 . S
C458 C462 1.350 . S
C459 C462 1.463 1_455 S
C459 C464 1.350 . S
C459 N467 1.427 . S
C460 H451 0.930 . S
C460 C458 1.378 . S
C460 C461 1.367 . S
C461 C460 1.367 . S
C461 C463 1.433 . S
C462 C458 1.350 . S
C462 C459 1.463 1_655 S
C462 N466 1.427 . S
C463 H453 0.929 . S
C463 C461 1.433 . S
C463 N466 1.384 . S
C464 H455 0.929 . S
C464 C456 1.378 . S
C464 C459 1.350 . S
C465 H452 0.929 . S
C465 C457 1.433 . S
C465 N467 1.384 . S
N466 C462 1.427 . S
N466 C463 1.384 . S
N467 C459 1.427 . S
N467 C465 1.384 . S
H468 C474 0.930 . S
H469 C478 0.930 . S
H470 C483 0.929 . S
H471 C481 0.929 . S
H472 C476 0.929 . S
H473 C482 0.929 . S
C474 H468 0.930 . S
C474 C475 1.367 . S
C474 C482 1.378 . S
C475 C474 1.367 . S
C475 C483 1.433 . S
C476 H472 0.929 . S
C476 C478 1.378 . S
C476 C480 1.350 . S
C477 C480 1.463 1_545 S
C477 C482 1.350 . S
C477 N485 1.427 . S
C478 H469 0.930 . S
C478 C476 1.378 . S
C478 C479 1.367 . S
C479 C478 1.367 . S
C479 C481 1.433 . S
C480 C476 1.350 . S
C480 C477 1.463 1_565 S
C480 N484 1.427 . S
C481 H471 0.929 . S
C481 C479 1.433 . S
C481 N484 1.384 . S
C482 H473 0.929 . S
C482 C474 1.378 . S
C482 C477 1.350 . S
C483 H470 0.929 . S
C483 C475 1.433 . S
C483 N485 1.384 . S
N484 C480 1.427 . S
N484 C481 1.384 . S
N485 C477 1.427 . S
N485 C483 1.384 . S
H486 C492 0.930 . S
H487 C496 0.930 . S
H488 C501 0.929 . S
H489 C499 0.929 . S
H490 C494 0.929 . S
H491 C500 0.929 . S
C492 H486 0.930 . S
C492 C493 1.367 . S
C492 C500 1.378 . S
C493 C492 1.367 . S
C493 C501 1.433 . S
C494 H490 0.929 . S
C494 C496 1.378 . S
C494 C498 1.350 . S
C495 C498 1.463 . S
C495 C500 1.350 . S
C495 N503 1.427 . S
C496 H487 0.930 . S
C496 C494 1.378 . S
C496 C497 1.367 . S
C497 C496 1.367 . S
C497 C499 1.433 . S
C498 C494 1.350 . S
C498 C495 1.463 . S
C498 N502 1.427 . S
C499 H489 0.929 . S
C499 C497 1.433 . S
C499 N502 1.384 . S
C500 H491 0.929 . S
C500 C492 1.378 . S
C500 C495 1.350 . S
C501 H488 0.929 . S
C501 C493 1.433 . S
C501 N503 1.384 . S
N502 C498 1.427 . S
N502 C499 1.384 . S
N503 C495 1.427 . S
N503 C501 1.384 . S
H504 C510 0.942 . S
H505 C514 0.930 . S
H506 C519 0.929 . S
H507 C517 0.929 . S
H508 C512 0.929 . S
H509 C518 0.929 . S
C510 H504 0.942 . S
C510 C511 1.384 . S
C510 C518 1.350 1_545 S
C511 C510 1.384 . S
C511 C519 1.433 1_554 S
C512 H508 0.929 . S
C512 C514 1.378 . S
C512 C516 1.350 . S
C513 C516 1.466 . S
C513 C518 1.332 1_556 S
C513 N521 1.444 . S
C514 H505 0.930 . S
C514 C512 1.378 . S
C514 C515 1.367 . S
C515 C514 1.367 . S
C515 C517 1.433 1_556 S
C516 C512 1.350 . S
C516 C513 1.466 . S
C516 N520 1.427 1_556 S
C517 H507 0.929 . S
C517 C515 1.433 1_554 S
C517 N520 1.384 . S
C518 H509 0.929 . S
C518 C510 1.350 1_565 S
C518 C513 1.332 1_554 S
C519 H506 0.929 . S
C519 C511 1.433 1_556 S
C519 N521 1.384 1_545 S
N520 C516 1.427 1_554 S
N520 C517 1.384 . S
N521 C513 1.444 . S
N521 C519 1.384 1_565 S
H522 C528 0.930 . S
H523 C532 0.930 . S
H524 C537 0.929 . S
H525 C535 0.929 . S
H526 C530 0.929 . S
H527 C536 0.929 . S
C528 H522 0.930 . S
C528 C529 1.367 . S
C528 C536 1.378 . S
C529 C528 1.367 . S
C529 C537 1.433 1_556 S
C530 H526 0.929 . S
C530 C532 1.378 . S
C530 C534 1.331 1_554 S
C531 C534 1.466 . S
C531 C536 1.350 . S
C531 N539 1.427 1_556 S
C532 H523 0.930 . S
C532 C530 1.378 . S
C532 C533 1.367 . S
C533 C532 1.367 . S
C533 C535 1.433 1_554 S
C534 C530 1.331 1_556 S
C534 C531 1.466 . S
C534 N538 1.445 . S
C535 H525 0.929 . S
C535 C533 1.433 1_556 S
C535 N538 1.384 . S
C536 H527 0.929 . S
C536 C528 1.378 . S
C536 C531 1.350 . S
C537 H524 0.929 . S
C537 C529 1.433 1_554 S
C537 N539 1.384 . S
N538 C534 1.445 . S
N538 C535 1.384 . S
N539 C531 1.427 1_554 S
N539 C537 1.384 . S
H540 C546 0.930 . S
H541 C550 0.930 . S
H542 C555 0.929 . S
H543 C553 0.929 . S
H544 C548 0.929 . S
H545 C554 0.929 . S
C546 H540 0.930 . S
C546 C547 1.367 . S
C546 C554 1.378 1_655 S
C547 C546 1.367 . S
C547 C555 1.433 1_554 S
C548 H544 0.929 . S
C548 C550 1.378 . S
C548 C552 1.350 . S
C549 C552 1.466 . S
C549 C554 1.331 1_556 S
C549 N557 1.445 . S
C550 H541 0.930 . S
C550 C548 1.378 . S
C550 C551 1.367 . S
C551 C550 1.367 . S
C551 C553 1.433 1_556 S
C552 C548 1.350 . S
C552 C549 1.466 . S
C552 N556 1.427 1_556 S
C553 H543 0.929 . S
C553 C551 1.433 1_554 S
C553 N556 1.384 . S
C554 H545 0.929 . S
C554 C546 1.378 1_455 S
C554 C549 1.331 1_554 S
C555 H542 0.929 . S
C555 C547 1.433 1_556 S
C555 N557 1.384 1_655 S
N556 C552 1.427 1_554 S
N556 C553 1.384 . S
N557 C549 1.445 . S
N557 C555 1.384 1_455 S
H558 C564 0.930 . S
H559 C568 0.930 . S
H560 C573 0.929 . S
H561 C571 0.926 1_565 S
H562 C566 0.929 . S
H563 C572 0.929 . S
C564 H558 0.930 . S
C564 C565 1.367 1_554 S
C564 C572 1.378 . S
C565 C564 1.367 1_556 S
C565 C573 1.433 . S
C566 H562 0.929 . S
C566 C568 1.378 1_545 S
C566 C570 1.350 . S
C567 C570 1.463 . S
C567 C572 1.350 1_556 S
C567 N575 1.427 . S
C568 H559 0.930 . S
C568 C566 1.378 1_565 S
C568 C569 1.367 1_556 S
C569 C568 1.367 1_554 S
C569 C571 1.419 1_565 S
C570 C566 1.350 . S
C570 C567 1.463 . S
C570 N574 1.427 1_556 S
C571 H561 0.926 1_545 S
C571 C569 1.419 1_545 S
C571 N574 1.402 . S
C572 H563 0.929 . S
C572 C564 1.378 . S
C572 C567 1.350 1_554 S
C573 H560 0.929 . S
C573 C565 1.433 . S
C573 N575 1.384 . S
N574 C570 1.427 1_554 S
N574 C571 1.402 . S
N575 C567 1.427 . S
N575 C573 1.384 . S
H576 C582 0.930 . S
H577 C586 0.930 . S
H578 C591 0.929 . S
H579 C589 0.929 . S
H580 C584 0.929 . S
H581 C590 0.929 . S
C582 H576 0.930 . S
C582 C583 1.367 1_554 S
C582 C590 1.378 . S
C583 C582 1.367 1_556 S
C583 C591 1.433 . S
C584 H580 0.929 . S
C584 C586 1.378 . S
C584 C588 1.350 . S
C585 C588 1.463 . S
C585 C590 1.350 1_556 S
C585 N593 1.427 . S
C586 H577 0.930 . S
C586 C584 1.378 . S
C586 C587 1.367 1_556 S
C587 C586 1.367 1_554 S
C587 C589 1.433 . S
C588 C584 1.350 . S
C588 C585 1.463 . S
C588 N592 1.427 1_556 S
C589 H579 0.929 . S
C589 C587 1.433 . S
C589 N592 1.384 . S
C590 H581 0.929 . S
C590 C582 1.378 . S
C590 C585 1.350 1_554 S
C591 H578 0.929 . S
C591 C583 1.433 . S
C591 N593 1.384 . S
N592 C588 1.427 1_554 S
N592 C589 1.384 . S
N593 C585 1.427 . S
N593 C591 1.384 . S
H594 C600 0.930 . S
H595 C604 0.934 . S
H596 C609 0.929 . S
H597 C607 0.929 . S
H598 C602 0.929 . S
H599 C608 0.929 . S
C600 H594 0.930 . S
C600 C601 1.367 . S
C600 C608 1.378 . S
C601 C600 1.367 . S
C601 C609 1.433 1_556 S
C602 H598 0.929 . S
C602 C604 1.370 1_655 S
C602 C606 1.331 1_554 S
C603 C606 1.466 . S
C603 C608 1.350 . S
C603 N611 1.427 1_556 S
C604 H595 0.934 . S
C604 C602 1.370 1_455 S
C604 C605 1.371 . S
C605 C604 1.371 . S
C605 C607 1.433 1_554 S
C606 C602 1.331 1_556 S
C606 C603 1.466 . S
C606 N610 1.445 . S
C607 H597 0.929 . S
C607 C605 1.433 1_556 S
C607 N610 1.384 1_455 S
C608 H599 0.929 . S
C608 C600 1.378 . S
C608 C603 1.350 . S
C609 H596 0.929 . S
C609 C601 1.433 1_554 S
C609 N611 1.384 . S
N610 C606 1.445 . S
N610 C607 1.384 1_655 S
N611 C603 1.427 1_554 S
N611 C609 1.384 . S
H612 C618 0.930 . S
H613 C622 0.930 . S
H614 C627 0.929 . S
H615 C625 0.929 1_655 S
H616 C620 0.929 . S
H617 C626 0.929 . S
C618 H612 0.930 . S
C618 C619 1.367 . S
C618 C626 1.378 . S
C619 C618 1.367 . S
C619 C627 1.433 . S
C620 H616 0.929 . S
C620 C622 1.378 1_455 S
C620 C624 1.350 . S
C621 C624 1.463 . S
C621 C626 1.350 . S
C621 N629 1.427 . S
C622 H613 0.930 . S
C622 C620 1.378 1_655 S
C622 C623 1.367 . S
C623 C622 1.367 . S
C623 C625 1.433 1_655 S
C624 C620 1.350 . S
C624 C621 1.463 . S
C624 N628 1.427 . S
C625 H615 0.929 1_455 S
C625 C623 1.433 1_455 S
C625 N628 1.384 . S
C626 H617 0.929 . S
C626 C618 1.378 . S
C626 C621 1.350 . S
C627 H614 0.929 . S
C627 C619 1.433 . S
C627 N629 1.384 . S
N628 C624 1.427 . S
N628 C625 1.384 . S
N629 C621 1.427 . S
N629 C627 1.384 . S
H630 C636 0.930 . S
H631 C640 0.943 . S
H632 C645 0.929 . S
H633 C643 0.929 . S
H634 C638 0.929 . S
H635 C644 0.929 . S
C636 H630 0.930 . S
C636 C637 1.367 . S
C636 C644 1.378 . S
C637 C636 1.367 . S
C637 C645 1.433 . S
C638 H634 0.929 . S
C638 C640 1.362 1_545 S
C638 C642 1.350 . S
C639 C642 1.463 . S
C639 C644 1.350 . S
C639 N647 1.427 . S
C640 H631 0.943 . S
C640 C638 1.362 1_565 S
C640 C641 1.370 . S
C641 C640 1.370 . S
C641 C643 1.433 . S
C642 C638 1.350 . S
C642 C639 1.463 . S
C642 N646 1.427 . S
C643 H633 0.929 . S
C643 C641 1.433 . S
C643 N646 1.384 1_565 S
C644 H635 0.929 . S
C644 C636 1.378 . S
C644 C639 1.350 . S
C645 H632 0.929 . S
C645 C637 1.433 . S
C645 N647 1.384 . S
N646 C642 1.427 . S
N646 C643 1.384 1_545 S
N647 C639 1.427 . S
N647 C645 1.384 . S
H648 C654 0.930 . S
H649 C658 0.930 . S
H650 C663 0.929 . S
H651 C661 0.929 . S
H652 C656 0.929 . S
H653 C662 0.929 . S
C654 H648 0.930 . S
C654 C655 1.367 . S
C654 C662 1.378 . S
C655 C654 1.367 . S
C655 C663 1.433 . S
C656 H652 0.929 . S
C656 C658 1.378 . S
C656 C660 1.350 . S
C657 C660 1.463 . S
C657 C662 1.350 . S
C657 N665 1.427 . S
C658 H649 0.930 . S
C658 C656 1.378 . S
C658 C659 1.367 . S
C659 C658 1.367 . S
C659 C661 1.433 . S
C660 C656 1.350 . S
C660 C657 1.463 . S
C660 N664 1.427 . S
C661 H651 0.929 . S
C661 C659 1.433 . S
C661 N664 1.384 . S
C662 H653 0.929 . S
C662 C654 1.378 . S
C662 C657 1.350 . S
C663 H650 0.929 . S
C663 C655 1.433 . S
C663 N665 1.384 . S
N664 C660 1.427 . S
N664 C661 1.384 . S
N665 C657 1.427 . S
N665 C663 1.384 . S
H666 C672 0.930 . S
H667 C676 0.930 . S
H668 C681 0.929 1_455 S
H669 C679 0.929 . S
H670 C674 0.929 . S
H671 C680 0.929 . S
C672 H666 0.930 . S
C672 C673 1.367 . S
C672 C680 1.378 1_455 S
C673 C672 1.367 . S
C673 C681 1.433 1_455 S
C674 H670 0.929 . S
C674 C676 1.378 . S
C674 C678 1.350 . S
C675 C678 1.463 . S
C675 C680 1.350 . S
C675 N683 1.427 . S
C676 H667 0.930 . S
C676 C674 1.378 . S
C676 C677 1.367 . S
C677 C676 1.367 . S
C677 C679 1.433 . S
C678 C674 1.350 . S
C678 C675 1.463 . S
C678 N682 1.427 . S
C679 H669 0.929 . S
C679 C677 1.433 . S
C679 N682 1.384 . S
C680 H671 0.929 . S
C680 C672 1.378 1_655 S
C680 C675 1.350 . S
C681 H668 0.929 1_655 S
C681 C673 1.433 1_655 S
C681 N683 1.384 . S
N682 C678 1.427 . S
N682 C679 1.384 . S
N683 C675 1.427 . S
N683 C681 1.384 . S
H684 C690 0.909 1_545 S
H685 C694 0.930 . S
H686 C699 0.929 . S
H687 C697 0.929 . S
H688 C692 0.929 . S
H689 C698 0.929 . S
C690 H684 0.909 1_565 S
C690 C691 1.362 1_565 S
C690 C698 1.405 . S
C691 C690 1.362 1_545 S
C691 C699 1.433 . S
C692 H688 0.929 . S
C692 C694 1.378 . S
C692 C696 1.350 . S
C693 C696 1.463 . S
C693 C698 1.350 . S
C693 N701 1.427 . S
C694 H685 0.930 . S
C694 C692 1.378 . S
C694 C695 1.367 . S
C695 C694 1.367 . S
C695 C697 1.433 . S
C696 C692 1.350 . S
C696 C693 1.463 . S
C696 N700 1.427 . S
C697 H687 0.929 . S
C697 C695 1.433 . S
C697 N700 1.384 . S
C698 H689 0.929 . S
C698 C690 1.405 . S
C698 C693 1.350 . S
C699 H686 0.929 . S
C699 C691 1.433 . S
C699 N701 1.384 1_545 S
N700 C696 1.427 . S
N700 C697 1.384 . S
N701 C693 1.427 . S
N701 C699 1.384 1_565 S
H702 C708 0.930 . S
H703 C712 0.930 . S
H704 C717 0.929 . S
H705 C715 0.929 . S
H706 C710 0.929 . S
H707 C716 0.929 . S
C708 H702 0.930 . S
C708 C709 1.367 . S
C708 C716 1.378 . S
C709 C708 1.367 . S
C709 C717 1.433 . S
C710 H706 0.929 . S
C710 C712 1.378 . S
C710 C714 1.350 . S
C711 C714 1.463 . S
C711 C716 1.350 . S
C711 N719 1.427 . S
C712 H703 0.930 . S
C712 C710 1.378 . S
C712 C713 1.367 . S
C713 C712 1.367 . S
C713 C715 1.433 . S
C714 C710 1.350 . S
C714 C711 1.463 . S
C714 N718 1.427 . S
C715 H705 0.929 . S
C715 C713 1.433 . S
C715 N718 1.384 . S
C716 H707 0.929 . S
C716 C708 1.378 . S
C716 C711 1.350 . S
C717 H704 0.929 . S
C717 C709 1.433 . S
C717 N719 1.384 . S
N718 C714 1.427 . S
N718 C715 1.384 . S
N719 C711 1.427 . S
N719 C717 1.384 . S
H720 C726 0.930 . S
H721 C730 0.930 . S
H722 C735 0.929 . S
H723 C733 0.929 . S
H724 C728 0.929 . S
H725 C734 0.929 . S
C726 H720 0.930 . S
C726 C727 1.367 . S
C726 C734 1.378 . S
C727 C726 1.367 . S
C727 C735 1.433 . S
C728 H724 0.929 . S
C728 C730 1.378 . S
C728 C732 1.350 . S
C729 C732 1.463 . S
C729 C734 1.350 . S
C729 N737 1.427 . S
C730 H721 0.930 . S
C730 C728 1.378 . S
C730 C731 1.367 . S
C731 C730 1.367 . S
C731 C733 1.433 . S
C732 C728 1.350 . S
C732 C729 1.463 . S
C732 N736 1.427 . S
C733 H723 0.929 . S
C733 C731 1.433 . S
C733 N736 1.384 . S
C734 H725 0.929 . S
C734 C726 1.378 . S
C734 C729 1.350 . S
C735 H722 0.929 . S
C735 C727 1.433 . S
C735 N737 1.384 . S
N736 C732 1.427 . S
N736 C733 1.384 . S
N737 C729 1.427 . S
N737 C735 1.384 . S
H738 C744 0.930 . S
H739 C748 0.930 . S
H740 C753 0.929 . S
H741 C751 0.929 . S
H742 C746 0.929 . S
H743 C752 0.929 . S
C744 H738 0.930 . S
C744 C745 1.367 . S
C744 C752 1.378 . S
C745 C744 1.367 . S
C745 C753 1.433 . S
C746 H742 0.929 . S
C746 C748 1.378 . S
C746 C750 1.350 . S
C747 C750 1.463 . S
C747 C752 1.350 . S
C747 N755 1.427 . S
C748 H739 0.930 . S
C748 C746 1.378 . S
C748 C749 1.367 . S
C749 C748 1.367 . S
C749 C751 1.433 . S
C750 C746 1.350 . S
C750 C747 1.463 . S
C750 N754 1.427 . S
C751 H741 0.929 . S
C751 C749 1.433 . S
C751 N754 1.384 . S
C752 H743 0.929 . S
C752 C744 1.378 . S
C752 C747 1.350 . S
C753 H740 0.929 . S
C753 C745 1.433 . S
C753 N755 1.384 . S
N754 C750 1.427 . S
N754 C751 1.384 . S
N755 C747 1.427 . S
N755 C753 1.384 . S
H756 C762 0.930 . S
H757 C766 0.930 . S
H758 C771 0.929 . S
H759 C769 0.929 . S
H760 C764 0.929 . S
H761 C770 0.929 . S
C762 H756 0.930 . S
C762 C763 1.367 . S
C762 C770 1.378 . S
C763 C762 1.367 . S
C763 C771 1.433 . S
C764 H760 0.929 . S
C764 C766 1.378 . S
C764 C768 1.350 . S
C765 C768 1.463 . S
C765 C770 1.350 . S
C765 N773 1.427 . S
C766 H757 0.930 . S
C766 C764 1.378 . S
C766 C767 1.367 . S
C767 C766 1.367 . S
C767 C769 1.433 . S
C768 C764 1.350 . S
C768 C765 1.463 . S
C768 N772 1.427 . S
C769 H759 0.929 . S
C769 C767 1.433 . S
C769 N772 1.384 . S
C770 H761 0.929 . S
C770 C762 1.378 . S
C770 C765 1.350 . S
C771 H758 0.929 . S
C771 C763 1.433 . S
C771 N773 1.384 . S
N772 C768 1.427 . S
N772 C769 1.384 . S
N773 C765 1.427 . S
N773 C771 1.384 . S
H774 C780 0.930 . S
H775 C784 0.930 . S
H776 C789 0.929 . S
H777 C787 0.929 . S
H778 C782 0.929 . S
H779 C788 0.929 . S
C780 H774 0.930 . S
C780 C781 1.367 . S
C780 C788 1.378 . S
C781 C780 1.367 . S
C781 C789 1.433 . S
C782 H778 0.929 . S
C782 C784 1.378 . S
C782 C786 1.350 . S
C783 C786 1.463 . S
C783 C788 1.350 . S
C783 N791 1.427 . S
C784 H775 0.930 . S
C784 C782 1.378 . S
C784 C785 1.367 . S
C785 C784 1.367 . S
C785 C787 1.433 . S
C786 C782 1.350 . S
C786 C783 1.463 . S
C786 N790 1.427 . S
C787 H777 0.929 . S
C787 C785 1.433 . S
C787 N790 1.384 . S
C788 H779 0.929 . S
C788 C780 1.378 . S
C788 C783 1.350 . S
C789 H776 0.929 . S
C789 C781 1.433 . S
C789 N791 1.384 . S
N790 C786 1.427 . S
N790 C787 1.384 . S
N791 C783 1.427 . S
N791 C789 1.384 . S
H792 C798 0.930 . S
H793 C802 0.930 . S
H794 C807 0.929 . S
H795 C805 0.929 . S
H796 C800 0.929 . S
H797 C806 0.929 . S
C798 H792 0.930 . S
C798 C799 1.367 . S
C798 C806 1.378 . S
C799 C798 1.367 . S
C799 C807 1.433 . S
C800 H796 0.929 . S
C800 C802 1.378 . S
C800 C804 1.350 . S
C801 C804 1.463 . S
C801 C806 1.350 . S
C801 N809 1.427 . S
C802 H793 0.930 . S
C802 C800 1.378 . S
C802 C803 1.367 . S
C803 C802 1.367 . S
C803 C805 1.433 . S
C804 C800 1.350 . S
C804 C801 1.463 . S
C804 N808 1.427 . S
C805 H795 0.929 . S
C805 C803 1.433 . S
C805 N808 1.384 . S
C806 H797 0.929 . S
C806 C798 1.378 . S
C806 C801 1.350 . S
C807 H794 0.929 . S
C807 C799 1.433 . S
C807 N809 1.384 . S
N808 C804 1.427 . S
N808 C805 1.384 . S
N809 C801 1.427 . S
N809 C807 1.384 . S
H810 C816 0.930 . S
H811 C820 0.930 . S
H812 C825 0.929 . S
H813 C823 0.929 . S
H814 C818 0.929 . S
H815 C824 0.929 . S
C816 H810 0.930 . S
C816 C817 1.367 . S
C816 C824 1.378 . S
C817 C816 1.367 . S
C817 C825 1.433 . S
C818 H814 0.929 . S
C818 C820 1.378 . S
C818 C822 1.350 . S
C819 C822 1.463 . S
C819 C824 1.350 . S
C819 N827 1.427 . S
C820 H811 0.930 . S
C820 C818 1.378 . S
C820 C821 1.367 . S
C821 C820 1.367 . S
C821 C823 1.433 . S
C822 C818 1.350 . S
C822 C819 1.463 . S
C822 N826 1.427 . S
C823 H813 0.929 . S
C823 C821 1.433 . S
C823 N826 1.384 . S
C824 H815 0.929 . S
C824 C816 1.378 . S
C824 C819 1.350 . S
C825 H812 0.929 . S
C825 C817 1.433 . S
C825 N827 1.384 . S
N826 C822 1.427 . S
N826 C823 1.384 . S
N827 C819 1.427 . S
N827 C825 1.384 . S
H828 C834 0.930 . S
H829 C838 0.930 . S
H830 C843 0.929 . S
H831 C841 0.929 . S
H832 C836 0.929 . S
H833 C842 0.929 . S
C834 H828 0.930 . S
C834 C835 1.367 . S
C834 C842 1.378 . S
C835 C834 1.367 . S
C835 C843 1.433 . S
C836 H832 0.929 . S
C836 C838 1.378 . S
C836 C840 1.350 . S
C837 C840 1.463 . S
C837 C842 1.350 . S
C837 N845 1.427 . S
C838 H829 0.930 . S
C838 C836 1.378 . S
C838 C839 1.367 . S
C839 C838 1.367 . S
C839 C841 1.433 . S
C840 C836 1.350 . S
C840 C837 1.463 . S
C840 N844 1.427 . S
C841 H831 0.929 . S
C841 C839 1.433 . S
C841 N844 1.384 . S
C842 H833 0.929 . S
C842 C834 1.378 . S
C842 C837 1.350 . S
C843 H830 0.929 . S
C843 C835 1.433 . S
C843 N845 1.384 . S
N844 C840 1.427 . S
N844 C841 1.384 . S
N845 C837 1.427 . S
N845 C843 1.384 . S
H846 C852 0.930 . S
H847 C856 0.930 . S
H848 C861 0.929 . S
H849 C859 0.929 . S
H850 C854 0.929 . S
H851 C860 0.929 . S
C852 H846 0.930 . S
C852 C853 1.367 . S
C852 C860 1.378 . S
C853 C852 1.367 . S
C853 C861 1.433 . S
C854 H850 0.929 . S
C854 C856 1.378 . S
C854 C858 1.350 . S
C855 C858 1.463 . S
C855 C860 1.350 . S
C855 N863 1.427 . S
C856 H847 0.930 . S
C856 C854 1.378 . S
C856 C857 1.367 . S
C857 C856 1.367 . S
C857 C859 1.433 . S
C858 C854 1.350 . S
C858 C855 1.463 . S
C858 N862 1.427 . S
C859 H849 0.929 . S
C859 C857 1.433 . S
C859 N862 1.384 . S
C860 H851 0.929 . S
C860 C852 1.378 . S
C860 C855 1.350 . S
C861 H848 0.929 . S
C861 C853 1.433 . S
C861 N863 1.384 . S
N862 C858 1.427 . S
N862 C859 1.384 . S
N863 C855 1.427 . S
N863 C861 1.384 . S
H864 C870 0.930 . S
H865 C874 0.930 . S
H866 C879 0.929 . S
H867 C877 0.929 . S
H868 C872 0.929 . S
H869 C878 0.929 . S
C870 H864 0.930 . S
C870 C871 1.367 . S
C870 C878 1.378 . S
C871 C870 1.367 . S
C871 C879 1.433 . S
C872 H868 0.929 . S
C872 C874 1.378 . S
C872 C876 1.350 . S
C873 C876 1.463 . S
C873 C878 1.350 . S
C873 N881 1.427 . S
C874 H865 0.930 . S
C874 C872 1.378 . S
C874 C875 1.367 . S
C875 C874 1.367 . S
C875 C877 1.433 . S
C876 C872 1.350 . S
C876 C873 1.463 . S
C876 N880 1.427 . S
C877 H867 0.929 . S
C877 C875 1.433 . S
C877 N880 1.384 . S
C878 H869 0.929 . S
C878 C870 1.378 . S
C878 C873 1.350 . S
C879 H866 0.929 . S
C879 C871 1.433 . S
C879 N881 1.384 . S
N880 C876 1.427 . S
N880 C877 1.384 . S
N881 C873 1.427 . S
N881 C879 1.384 . S
H882 C888 0.930 . S
H883 C892 0.930 . S
H884 C897 0.929 . S
H885 C895 0.929 . S
H886 C890 0.929 . S
H887 C896 0.929 . S
C888 H882 0.930 . S
C888 C889 1.367 . S
C888 C896 1.378 . S
C889 C888 1.367 . S
C889 C897 1.433 . S
C890 H886 0.929 . S
C890 C892 1.378 . S
C890 C894 1.350 . S
C891 C894 1.463 . S
C891 C896 1.350 . S
C891 N899 1.427 . S
C892 H883 0.930 . S
C892 C890 1.378 . S
C892 C893 1.367 . S
C893 C892 1.367 . S
C893 C895 1.433 . S
C894 C890 1.350 . S
C894 C891 1.463 . S
C894 N898 1.427 . S
C895 H885 0.929 . S
C895 C893 1.433 . S
C895 N898 1.384 . S
C896 H887 0.929 . S
C896 C888 1.378 . S
C896 C891 1.350 . S
C897 H884 0.929 . S
C897 C889 1.433 . S
C897 N899 1.384 . S
N898 C894 1.427 . S
N898 C895 1.384 . S
N899 C891 1.427 . S
N899 C897 1.384 . S
H900 C906 0.930 . S
H901 C910 0.930 . S
H902 C915 0.929 . S
H903 C913 0.929 . S
H904 C908 0.929 . S
H905 C914 0.929 . S
C906 H900 0.930 . S
C906 C907 1.367 . S
C906 C914 1.378 . S
C907 C906 1.367 . S
C907 C915 1.433 . S
C908 H904 0.929 . S
C908 C910 1.378 . S
C908 C912 1.350 . S
C909 C912 1.463 . S
C909 C914 1.350 . S
C909 N917 1.427 . S
C910 H901 0.930 . S
C910 C908 1.378 . S
C910 C911 1.367 . S
C911 C910 1.367 . S
C911 C913 1.433 . S
C912 C908 1.350 . S
C912 C909 1.463 . S
C912 N916 1.427 . S
C913 H903 0.929 . S
C913 C911 1.433 . S
C913 N916 1.384 . S
C914 H905 0.929 . S
C914 C906 1.378 . S
C914 C909 1.350 . S
C915 H902 0.929 . S
C915 C907 1.433 . S
C915 N917 1.384 . S
N916 C912 1.427 . S
N916 C913 1.384 . S
N917 C909 1.427 . S
N917 C915 1.384 . S
H918 C924 0.930 . S
H919 C928 0.930 . S
H920 C933 0.929 . S
H921 C931 0.929 . S
H922 C926 0.929 . S
H923 C932 0.929 . S
C924 H918 0.930 . S
C924 C925 1.367 . S
C924 C932 1.378 . S
C925 C924 1.367 . S
C925 C933 1.433 . S
C926 H922 0.929 . S
C926 C928 1.378 . S
C926 C930 1.350 . S
C927 C930 1.463 . S
C927 C932 1.350 . S
C927 N935 1.427 . S
C928 H919 0.930 . S
C928 C926 1.378 . S
C928 C929 1.367 . S
C929 C928 1.367 . S
C929 C931 1.433 . S
C930 C926 1.350 . S
C930 C927 1.463 . S
C930 N934 1.427 . S
C931 H921 0.929 . S
C931 C929 1.433 . S
C931 N934 1.384 . S
C932 H923 0.929 . S
C932 C924 1.378 . S
C932 C927 1.350 . S
C933 H920 0.929 . S
C933 C925 1.433 . S
C933 N935 1.384 . S
N934 C930 1.427 . S
N934 C931 1.384 . S
N935 C927 1.427 . S
N935 C933 1.384 . S
C403 N2 1.927 . S
C407 N101 1.935 . S
C421 N134 1.938 . S
C425 N35 1.927 . S
C439 N167 1.933 . S
C443 N68 1.940 . S
C457 N299 1.934 . S
C461 N200 1.923 . S
C475 N332 1.927 . S
C479 N233 1.936 . S
C493 N266 1.923 . S
C497 N365 1.933 . S
C511 C21 0.410 . S
C515 N178 0.530 . S
C529 N13 0.527 . S
C533 C54 0.412 . S
C547 C87 0.410 . S
C551 N46 0.530 . S
C565 N79 0.482 . S
C569 C120 0.402 . S
C583 N112 0.482 . S
C587 C153 0.400 . S
C601 N145 0.531 . S
C605 C186 0.409 . S
C619 N244 0.483 . S
C623 C219 0.406 . S
C637 N277 0.501 . S
C641 C252 0.394 . S
C655 N310 0.523 . S
C659 C285 0.414 . S
C673 C318 0.404 . S
C677 N343 0.482 . S
C691 C351 0.394 . S
C695 N376 0.507 . S
C709 C384 0.415 . S
C713 N211 0.517 . S
C727 C271 1.684 . S
C731 C7 1.681 . S
C745 C40 1.676 . S
C749 C304 1.685 . S
C763 C73 1.685 . S
C767 C337 1.677 . S
C781 C106 1.682 . S
C785 C370 1.677 . S
C799 C205 1.677 . S
C803 C139 1.686 . S
C817 C172 1.685 . S
C821 C238 1.678 . S
C835 C381 1.513 . S
C839 C117 1.520 . S
C853 C216 1.511 . S
C857 C150 1.521 . S
C871 C249 1.520 . S
C875 C183 1.512 . S
C889 C18 1.511 . S
C893 C282 1.521 . S
C907 C51 1.518 . S
C911 C315 1.514 . S
C925 C84 1.516 . S
C929 C348 1.516 . S
