# Generated by pormake.
# Topology wjb, (6)-cn, num edge types: 1
# Building blocks:
#     Node 0, Type 0, BuildingBlock: OJICUG_clean_sbu_0, # of connection points: 6
#     Node 1, Type 0, BuildingBlock: OJICUG_clean_sbu_0, # of connection points: 6
#     Node 2, Type 0, BuildingBlock: OJICUG_clean_sbu_0, # of connection points: 6
#     Node 3, Type 0, BuildingBlock: OJICUG_clean_sbu_0, # of connection points: 6
#     Node 4, Type 0, BuildingBlock: OJICUG_clean_sbu_0, # of connection points: 6
#     Node 5, Type 0, BuildingBlock: OJICUG_clean_sbu_0, # of connection points: 6
#     Node 6, Type 0, BuildingBlock: OJICUG_clean_sbu_0, # of connection points: 6
#     Node 7, Type 0, BuildingBlock: OJICUG_clean_sbu_0, # of connection points: 6
#     Node 8, Type 0, BuildingBlock: OJICUG_clean_sbu_0, # of connection points: 6
#     Node 9, Type 0, BuildingBlock: OJICUG_clean_sbu_0, # of connection points: 6
#     Node 10, Type 0, BuildingBlock: OJICUG_clean_sbu_0, # of connection points: 6
#     Node 11, Type 0, BuildingBlock: OJICUG_clean_sbu_0, # of connection points: 6
#     Node 12, Type 0, BuildingBlock: OJICUG_clean_sbu_0, # of connection points: 6
#     Node 13, Type 0, BuildingBlock: OJICUG_clean_sbu_0, # of connection points: 6
#     Node 14, Type 0, BuildingBlock: OJICUG_clean_sbu_0, # of connection points: 6
#     Node 15, Type 0, BuildingBlock: OJICUG_clean_sbu_0, # of connection points: 6
#     Node 16, Type 0, BuildingBlock: OJICUG_clean_sbu_0, # of connection points: 6
#     Node 17, Type 0, BuildingBlock: OJICUG_clean_sbu_0, # of connection points: 6
#     Node 18, Type 0, BuildingBlock: OJICUG_clean_sbu_0, # of connection points: 6
#     Node 19, Type 0, BuildingBlock: OJICUG_clean_sbu_0, # of connection points: 6
#     Node 20, Type 0, BuildingBlock: OJICUG_clean_sbu_0, # of connection points: 6
#     Node 21, Type 0, BuildingBlock: OJICUG_clean_sbu_0, # of connection points: 6
#     Node 22, Type 0, BuildingBlock: OJICUG_clean_sbu_0, # of connection points: 6
#     Node 23, Type 0, BuildingBlock: OJICUG_clean_sbu_0, # of connection points: 6
#     Edge 24, Type (0, 0), BuildingBlock: KIFKEQ_clean_linker_1, # of connection points: 2
#     Edge 25, Type (0, 0), BuildingBlock: KIFKEQ_clean_linker_1, # of connection points: 2
#     Edge 26, Type (0, 0), BuildingBlock: KIFKEQ_clean_linker_1, # of connection points: 2
#     Edge 27, Type (0, 0), BuildingBlock: KIFKEQ_clean_linker_1, # of connection points: 2
#     Edge 28, Type (0, 0), BuildingBlock: KIFKEQ_clean_linker_1, # of connection points: 2
#     Edge 29, Type (0, 0), BuildingBlock: KIFKEQ_clean_linker_1, # of connection points: 2
#     Edge 30, Type (0, 0), BuildingBlock: KIFKEQ_clean_linker_1, # of connection points: 2
#     Edge 31, Type (0, 0), BuildingBlock: KIFKEQ_clean_linker_1, # of connection points: 2
#     Edge 32, Type (0, 0), BuildingBlock: KIFKEQ_clean_linker_1, # of connection points: 2
#     Edge 33, Type (0, 0), BuildingBlock: KIFKEQ_clean_linker_1, # of connection points: 2
#     Edge 34, Type (0, 0), BuildingBlock: KIFKEQ_clean_linker_1, # of connection points: 2
#     Edge 35, Type (0, 0), BuildingBlock: KIFKEQ_clean_linker_1, # of connection points: 2
#     Edge 36, Type (0, 0), BuildingBlock: KIFKEQ_clean_linker_1, # of connection points: 2
#     Edge 37, Type (0, 0), BuildingBlock: KIFKEQ_clean_linker_1, # of connection points: 2
#     Edge 38, Type (0, 0), BuildingBlock: KIFKEQ_clean_linker_1, # of connection points: 2
#     Edge 39, Type (0, 0), BuildingBlock: KIFKEQ_clean_linker_1, # of connection points: 2
#     Edge 40, Type (0, 0), BuildingBlock: KIFKEQ_clean_linker_1, # of connection points: 2
#     Edge 41, Type (0, 0), BuildingBlock: KIFKEQ_clean_linker_1, # of connection points: 2
#     Edge 42, Type (0, 0), BuildingBlock: KIFKEQ_clean_linker_1, # of connection points: 2
#     Edge 43, Type (0, 0), BuildingBlock: KIFKEQ_clean_linker_1, # of connection points: 2
#     Edge 44, Type (0, 0), BuildingBlock: KIFKEQ_clean_linker_1, # of connection points: 2
#     Edge 45, Type (0, 0), BuildingBlock: KIFKEQ_clean_linker_1, # of connection points: 2
#     Edge 46, Type (0, 0), BuildingBlock: KIFKEQ_clean_linker_1, # of connection points: 2
#     Edge 47, Type (0, 0), BuildingBlock: KIFKEQ_clean_linker_1, # of connection points: 2
#     Edge 48, Type (0, 0), BuildingBlock: KIFKEQ_clean_linker_1, # of connection points: 2
#     Edge 49, Type (0, 0), BuildingBlock: KIFKEQ_clean_linker_1, # of connection points: 2
#     Edge 50, Type (0, 0), BuildingBlock: KIFKEQ_clean_linker_1, # of connection points: 2
#     Edge 51, Type (0, 0), BuildingBlock: KIFKEQ_clean_linker_1, # of connection points: 2
#     Edge 52, Type (0, 0), BuildingBlock: KIFKEQ_clean_linker_1, # of connection points: 2
#     Edge 53, Type (0, 0), BuildingBlock: KIFKEQ_clean_linker_1, # of connection points: 2
#     Edge 54, Type (0, 0), BuildingBlock: KIFKEQ_clean_linker_1, # of connection points: 2
#     Edge 55, Type (0, 0), BuildingBlock: KIFKEQ_clean_linker_1, # of connection points: 2
#     Edge 56, Type (0, 0), BuildingBlock: KIFKEQ_clean_linker_1, # of connection points: 2
#     Edge 57, Type (0, 0), BuildingBlock: KIFKEQ_clean_linker_1, # of connection points: 2
#     Edge 58, Type (0, 0), BuildingBlock: KIFKEQ_clean_linker_1, # of connection points: 2
#     Edge 59, Type (0, 0), BuildingBlock: KIFKEQ_clean_linker_1, # of connection points: 2
#     Edge 60, Type (0, 0), BuildingBlock: KIFKEQ_clean_linker_1, # of connection points: 2
#     Edge 61, Type (0, 0), BuildingBlock: KIFKEQ_clean_linker_1, # of connection points: 2
#     Edge 62, Type (0, 0), BuildingBlock: KIFKEQ_clean_linker_1, # of connection points: 2
#     Edge 63, Type (0, 0), BuildingBlock: KIFKEQ_clean_linker_1, # of connection points: 2
#     Edge 64, Type (0, 0), BuildingBlock: KIFKEQ_clean_linker_1, # of connection points: 2
#     Edge 65, Type (0, 0), BuildingBlock: KIFKEQ_clean_linker_1, # of connection points: 2
#     Edge 66, Type (0, 0), BuildingBlock: KIFKEQ_clean_linker_1, # of connection points: 2
#     Edge 67, Type (0, 0), BuildingBlock: KIFKEQ_clean_linker_1, # of connection points: 2
#     Edge 68, Type (0, 0), BuildingBlock: KIFKEQ_clean_linker_1, # of connection points: 2
#     Edge 69, Type (0, 0), BuildingBlock: KIFKEQ_clean_linker_1, # of connection points: 2
#     Edge 70, Type (0, 0), BuildingBlock: KIFKEQ_clean_linker_1, # of connection points: 2
#     Edge 71, Type (0, 0), BuildingBlock: KIFKEQ_clean_linker_1, # of connection points: 2
#     Edge 72, Type (0, 0), BuildingBlock: KIFKEQ_clean_linker_1, # of connection points: 2
#     Edge 73, Type (0, 0), BuildingBlock: KIFKEQ_clean_linker_1, # of connection points: 2
#     Edge 74, Type (0, 0), BuildingBlock: KIFKEQ_clean_linker_1, # of connection points: 2
#     Edge 75, Type (0, 0), BuildingBlock: KIFKEQ_clean_linker_1, # of connection points: 2
#     Edge 76, Type (0, 0), BuildingBlock: KIFKEQ_clean_linker_1, # of connection points: 2
#     Edge 77, Type (0, 0), BuildingBlock: KIFKEQ_clean_linker_1, # of connection points: 2
#     Edge 78, Type (0, 0), BuildingBlock: KIFKEQ_clean_linker_1, # of connection points: 2
#     Edge 79, Type (0, 0), BuildingBlock: KIFKEQ_clean_linker_1, # of connection points: 2
#     Edge 80, Type (0, 0), BuildingBlock: KIFKEQ_clean_linker_1, # of connection points: 2
#     Edge 81, Type (0, 0), BuildingBlock: KIFKEQ_clean_linker_1, # of connection points: 2
#     Edge 82, Type (0, 0), BuildingBlock: KIFKEQ_clean_linker_1, # of connection points: 2
#     Edge 83, Type (0, 0), BuildingBlock: KIFKEQ_clean_linker_1, # of connection points: 2
#     Edge 84, Type (0, 0), BuildingBlock: KIFKEQ_clean_linker_1, # of connection points: 2
#     Edge 85, Type (0, 0), BuildingBlock: KIFKEQ_clean_linker_1, # of connection points: 2
#     Edge 86, Type (0, 0), BuildingBlock: KIFKEQ_clean_linker_1, # of connection points: 2
#     Edge 87, Type (0, 0), BuildingBlock: KIFKEQ_clean_linker_1, # of connection points: 2
#     Edge 88, Type (0, 0), BuildingBlock: KIFKEQ_clean_linker_1, # of connection points: 2
#     Edge 89, Type (0, 0), BuildingBlock: KIFKEQ_clean_linker_1, # of connection points: 2
#     Edge 90, Type (0, 0), BuildingBlock: KIFKEQ_clean_linker_1, # of connection points: 2
#     Edge 91, Type (0, 0), BuildingBlock: KIFKEQ_clean_linker_1, # of connection points: 2
#     Edge 92, Type (0, 0), BuildingBlock: KIFKEQ_clean_linker_1, # of connection points: 2
#     Edge 93, Type (0, 0), BuildingBlock: KIFKEQ_clean_linker_1, # of connection points: 2
#     Edge 94, Type (0, 0), BuildingBlock: KIFKEQ_clean_linker_1, # of connection points: 2
#     Edge 95, Type (0, 0), BuildingBlock: KIFKEQ_clean_linker_1, # of connection points: 2
# Relax obj value: 0.482
# Max RMSD: 0.212
# Mean RMSD: 0.212
data_MOF--net-wjb--node1-OJICUG_clean_sbu_0--edge1-KIFKEQ_clean_linker_1
_symmetry_space_group_name_H-M    P1
_symmetry_Int_Tables_number       1
_symmetry_cell_setting            triclinic
loop_
_symmetry_equiv_pos_as_xyz
'x, y, z'
_cell_length_a     52.96644
_cell_length_b     53.01758
_cell_length_c     58.977128
_cell_angle_alpha  89.946151
_cell_angle_beta   90.033018
_cell_angle_gamma 119.96969
loop_
_atom_site_label
_atom_site_type_symbol
_atom_site_fract_x
_atom_site_fract_y
_atom_site_fract_z
_atom_type_partial_charge
Sc0 Sc 0.12147 0.49655 0.11282 0.0
Sc1 Sc 0.161 0.4587 0.11333 0.0
Sc2 Sc 0.19175 0.52885 0.09037 0.0
O3 O 0.15799 0.49462 0.10557 0.0
C4 C 0.13852 0.5261 0.06369 0.0
C5 C 0.09542 0.43116 0.09627 0.0
C6 C 0.19191 0.475 0.06596 0.0
C7 C 0.12955 0.46539 0.15664 0.0
C8 C 0.16985 0.56073 0.12465 0.0
C9 C 0.22484 0.51088 0.12547 0.0
O10 O 0.12112 0.5158 0.08044 0.0
O11 O 0.11705 0.42885 0.10272 0.0
O12 O 0.20069 0.50191 0.06858 0.0
O13 O 0.11793 0.47798 0.14607 0.0
O14 O 0.18767 0.56012 0.1106 0.0
O15 O 0.20596 0.48388 0.12482 0.0
O16 O 0.14481 0.53896 0.12841 0.0
O17 O 0.1468 0.45833 0.14736 0.0
O18 O 0.22169 0.53022 0.11528 0.0
O19 O 0.09451 0.45461 0.09783 0.0
O20 O 0.16436 0.53036 0.06413 0.0
O21 O 0.17503 0.45557 0.07983 0.0
Sc22 Sc 0.63155 0.12404 0.61186 0.0
Sc23 Sc 0.7091 0.16094 0.61542 0.0
Sc24 Sc 0.67341 0.18936 0.58273 0.0
O25 O 0.67137 0.15805 0.60341 0.0
C26 C 0.62028 0.13388 0.56018 0.0
C27 C 0.67012 0.09437 0.60186 0.0
C28 C 0.72601 0.18222 0.5645 0.0
C29 C 0.66714 0.13498 0.65816 0.0
C30 C 0.62058 0.17751 0.61569 0.0
C31 C 0.72284 0.22614 0.61931 0.0
O32 O 0.61305 0.11874 0.57822 0.0
O33 O 0.69452 0.1164 0.60679 0.0
O34 O 0.70611 0.18866 0.56201 0.0
O35 O 0.64371 0.12461 0.64676 0.0
O36 O 0.64054 0.19269 0.60148 0.0
O37 O 0.72755 0.2059 0.62545 0.0
O38 O 0.61448 0.15199 0.62164 0.0
O39 O 0.69225 0.1489 0.64921 0.0
O40 O 0.7046 0.22317 0.60411 0.0
O41 O 0.64584 0.09388 0.60263 0.0
O42 O 0.64223 0.1593 0.55907 0.0
O43 O 0.73084 0.17314 0.58301 0.0
Sc44 Sc 0.49892 0.63148 0.11178 0.0
Sc45 Sc 0.54115 0.70888 0.11424 0.0
Sc46 Sc 0.47468 0.67396 0.08445 0.0
O47 O 0.50496 0.67146 0.1036 0.0
C48 C 0.47631 0.62116 0.06054 0.0
C49 C 0.5667 0.66815 0.1002 0.0
C50 C 0.53402 0.72516 0.06397 0.0
C51 C 0.52614 0.66795 0.15739 0.0
C52 C 0.43481 0.62081 0.11758 0.0
C53 C 0.4907 0.72436 0.12047 0.0
O54 O 0.4843 0.61335 0.07826 0.0
O55 O 0.57003 0.6928 0.10561 0.0
O56 O 0.50693 0.70701 0.06316 0.0
O57 O 0.51254 0.64424 0.14637 0.0
O58 O 0.43912 0.64082 0.1036 0.0
O59 O 0.51648 0.72958 0.12434 0.0
O60 O 0.45447 0.61478 0.12294 0.0
O61 O 0.53688 0.69289 0.1482 0.0
O62 O 0.47333 0.70485 0.1069 0.0
O63 O 0.54248 0.64446 0.10106 0.0
O64 O 0.4729 0.6432 0.06002 0.0
O65 O 0.54985 0.72863 0.08114 0.0
Sc66 Sc 0.85982 0.49854 0.61497 0.0
Sc67 Sc 0.82621 0.5422 0.6172 0.0
Sc68 Sc 0.79346 0.47555 0.58763 0.0
O69 O 0.82649 0.50546 0.6067 0.0
C70 C 0.84741 0.47622 0.56365 0.0
C71 C 0.89222 0.56613 0.60292 0.0
C72 C 0.80276 0.53541 0.56711 0.0
C73 C 0.85065 0.52583 0.66057 0.0
C74 C 0.80615 0.43493 0.62043 0.0
C75 C 0.75979 0.49267 0.62355 0.0
O76 O 0.86315 0.48385 0.5814 0.0
O77 O 0.87138 0.57031 0.60831 0.0
O78 O 0.79311 0.50819 0.56643 0.0
O79 O 0.8605 0.51198 0.64954 0.0
O80 O 0.79049 0.43944 0.60651 0.0
O81 O 0.78067 0.51839 0.62709 0.0
O82 O 0.83172 0.45448 0.62596 0.0
O83 O 0.83729 0.53742 0.65127 0.0
O84 O 0.76168 0.47489 0.61024 0.0
O85 O 0.8908 0.54155 0.60431 0.0
O86 O 0.82215 0.47334 0.56311 0.0
O87 O 0.81563 0.55124 0.58412 0.0
Sc88 Sc 0.35708 0.8613 0.10985 0.0
Sc89 Sc 0.28069 0.83007 0.11447 0.0
Sc90 Sc 0.31086 0.79116 0.0896 0.0
O91 O 0.31627 0.82757 0.1047 0.0
C92 C 0.36271 0.83908 0.06044 0.0
C93 C 0.32293 0.89359 0.09548 0.0
C94 C 0.25956 0.79866 0.06774 0.0
C95 C 0.32333 0.85924 0.15577 0.0
C96 C 0.36704 0.80886 0.12076 0.0
C97 C 0.26244 0.76467 0.12725 0.0
O98 O 0.37278 0.85703 0.07687 0.0
O99 O 0.29899 0.87472 0.10422 0.0
O100 O 0.27415 0.78566 0.06986 0.0
O101 O 0.34634 0.86881 0.14377 0.0
O102 O 0.34663 0.79188 0.10752 0.0
O103 O 0.25684 0.78533 0.12622 0.0
O104 O 0.37268 0.83466 0.12491 0.0
O105 O 0.29781 0.8432 0.14791 0.0
O106 O 0.28314 0.76467 0.11644 0.0
O107 O 0.3455 0.89099 0.09477 0.0
O108 O 0.33882 0.81504 0.06161 0.0
O109 O 0.26138 0.81787 0.0815 0.0
Sc110 Sc 0.48687 0.36093 0.6162 0.0
Sc111 Sc 0.45444 0.28505 0.62072 0.0
Sc112 Sc 0.52189 0.32555 0.59485 0.0
O113 O 0.4878 0.32396 0.61073 0.0
C114 C 0.51437 0.37103 0.5663 0.0
C115 C 0.42192 0.31784 0.60325 0.0
C116 C 0.46764 0.26852 0.57373 0.0
C117 C 0.46149 0.32442 0.66231 0.0
C118 C 0.55238 0.38307 0.62568 0.0
C119 C 0.51015 0.27819 0.63065 0.0
O120 O 0.5063 0.3798 0.58349 0.0
O121 O 0.42138 0.2966 0.61366 0.0
O122 O 0.4949 0.28555 0.57649 0.0
O123 O 0.46809 0.34657 0.64983 0.0
O124 O 0.55303 0.36572 0.61112 0.0
O125 O 0.48267 0.2674 0.62903 0.0
O126 O 0.52914 0.38247 0.63184 0.0
O127 O 0.45878 0.30078 0.65462 0.0
O128 O 0.52823 0.30255 0.62198 0.0
O129 O 0.44496 0.3422 0.60043 0.0
O130 O 0.51759 0.34885 0.56681 0.0
O131 O 0.44855 0.26802 0.58702 0.0
Sc132 Sc 0.47349 0.7933 0.89069 0.0
Sc133 Sc 0.54376 0.8288 0.86786 0.0
Sc134 Sc 0.50401 0.8657 0.8736 0.0
O135 O 0.50706 0.82934 0.87734 0.0
C136 C 0.44072 0.81759 0.85953 0.0
C137 C 0.49375 0.76495 0.85366 0.0
C138 C 0.53466 0.86218 0.82747 0.0
C139 C 0.52931 0.79538 0.91394 0.0
C140 C 0.47272 0.8417 0.92166 0.0
C141 C 0.56968 0.89241 0.88834 0.0
O142 O 0.44156 0.79821 0.87168 0.0
O143 O 0.52054 0.78402 0.85573 0.0
O144 O 0.52333 0.87351 0.84001 0.0
O145 O 0.50195 0.78412 0.91093 0.0
O146 O 0.48333 0.86123 0.90632 0.0
O147 O 0.57291 0.87297 0.87845 0.0
O148 O 0.46983 0.81657 0.9192 0.0
O149 O 0.54826 0.81457 0.90089 0.0
O150 O 0.54537 0.89157 0.88985 0.0
O151 O 0.47354 0.76696 0.86343 0.0
O152 O 0.462 0.84331 0.85751 0.0
O153 O 0.54141 0.84364 0.83461 0.0
Sc154 Sc 0.66896 0.47091 0.3979 0.0
Sc155 Sc 0.70341 0.54005 0.37268 0.0
Sc156 Sc 0.62623 0.49808 0.37576 0.0
O157 O 0.66621 0.50309 0.38202 0.0
C158 C 0.61347 0.43461 0.3658 0.0
C159 C 0.71709 0.48944 0.36004 0.0
C160 C 0.66189 0.52969 0.33069 0.0
C161 C 0.72295 0.5274 0.41956 0.0
C162 C 0.61824 0.47125 0.42575 0.0
C163 C 0.66323 0.56422 0.39139 0.0
O164 O 0.63302 0.43719 0.3796 0.0
O165 O 0.72399 0.51616 0.35993 0.0
O166 O 0.63833 0.51561 0.34188 0.0
O167 O 0.70576 0.50014 0.41809 0.0
O168 O 0.60916 0.47945 0.40884 0.0
O169 O 0.68761 0.56808 0.38444 0.0
O170 O 0.64113 0.46917 0.42509 0.0
O171 O 0.72342 0.5455 0.40529 0.0
O172 O 0.6396 0.54003 0.38995 0.0
O173 O 0.69651 0.47017 0.37191 0.0
O174 O 0.60884 0.45534 0.36122 0.0
O175 O 0.68698 0.53888 0.3393 0.0
Sc176 Sc 0.19226 0.67868 0.90341 0.0
Sc177 Sc 0.16776 0.71546 0.8681 0.0
Sc178 Sc 0.1274 0.63838 0.87339 0.0
O179 O 0.16244 0.67753 0.88158 0.0
C180 C 0.17828 0.62373 0.87208 0.0
C181 C 0.2325 0.7262 0.86705 0.0
C182 C 0.14256 0.67287 0.82614 0.0
C183 C 0.18676 0.73334 0.91904 0.0
C184 C 0.13518 0.62829 0.92588 0.0
C185 C 0.1001 0.67921 0.87989 0.0
O186 O 0.19318 0.6431 0.88678 0.0
O187 O 0.21369 0.73306 0.86095 0.0
O188 O 0.12851 0.65012 0.83819 0.0
O189 O 0.19398 0.71409 0.92208 0.0
O190 O 0.12118 0.62024 0.9073 0.0
O191 O 0.12258 0.70239 0.87337 0.0
O192 O 0.16043 0.65039 0.92742 0.0
O193 O 0.17659 0.73679 0.90057 0.0
O194 O 0.09882 0.6547 0.88189 0.0
O195 O 0.22738 0.70688 0.88186 0.0
O196 O 0.154 0.61958 0.86449 0.0
O197 O 0.15909 0.69789 0.83453 0.0
Sc198 Sc 0.5139 0.1918 0.40298 0.0
Sc199 Sc 0.4462 0.16147 0.37518 0.0
Sc200 Sc 0.48739 0.1251 0.37528 0.0
O201 O 0.48245 0.1594 0.38443 0.0
C202 C 0.55189 0.17757 0.36864 0.0
C203 C 0.49657 0.22717 0.36903 0.0
C204 C 0.4603 0.13727 0.33064 0.0
C205 C 0.45548 0.18351 0.42582 0.0
C206 C 0.51241 0.13676 0.42586 0.0
C207 C 0.41998 0.09468 0.38754 0.0
O208 O 0.54841 0.19363 0.3828 0.0
O209 O 0.47035 0.20708 0.36644 0.0
O210 O 0.47269 0.1254 0.34114 0.0
O211 O 0.48271 0.19293 0.42536 0.0
O212 O 0.50312 0.12092 0.40822 0.0
O213 O 0.41701 0.11628 0.38244 0.0
O214 O 0.51631 0.16239 0.42675 0.0
O215 O 0.43855 0.17098 0.40919 0.0
O216 O 0.44404 0.09489 0.38663 0.0
O217 O 0.51496 0.22448 0.38103 0.0
O218 O 0.53168 0.15212 0.36345 0.0
O219 O 0.45054 0.15194 0.34055 0.0
Sc220 Sc 0.32581 0.52333 0.89766 0.0
Sc221 Sc 0.28579 0.45566 0.87053 0.0
Sc222 Sc 0.36341 0.49318 0.8711 0.0
O223 O 0.32499 0.4907 0.87966 0.0
C224 C 0.37834 0.55823 0.86269 0.0
C225 C 0.27363 0.50827 0.86375 0.0
C226 C 0.32403 0.46634 0.82656 0.0
C227 C 0.27376 0.46655 0.92082 0.0
C228 C 0.37747 0.51926 0.92124 0.0
C229 C 0.32361 0.42672 0.88465 0.0
O230 O 0.3595 0.55633 0.87699 0.0
O231 O 0.26619 0.48164 0.86133 0.0
O232 O 0.34813 0.47736 0.83724 0.0
O233 O 0.29265 0.49347 0.92024 0.0
O234 O 0.38386 0.5095 0.90381 0.0
O235 O 0.29972 0.42483 0.87863 0.0
O236 O 0.35642 0.52422 0.92173 0.0
O237 O 0.26845 0.4493 0.9043 0.0
O238 O 0.3481 0.45006 0.88383 0.0
O239 O 0.29524 0.52596 0.8756 0.0
O240 O 0.38228 0.53703 0.858 0.0
O241 O 0.2998 0.45878 0.83614 0.0
Sc242 Sc 0.79673 0.32303 0.40135 0.0
Sc243 Sc 0.82823 0.28747 0.37259 0.0
Sc244 Sc 0.86324 0.36477 0.37362 0.0
O245 O 0.82939 0.32506 0.38243 0.0
C246 C 0.80985 0.37503 0.36685 0.0
C247 C 0.76185 0.271 0.36675 0.0
C248 C 0.85304 0.32679 0.32869 0.0
C249 C 0.806 0.27295 0.4232 0.0
C250 C 0.85093 0.37678 0.4244 0.0
C251 C 0.89488 0.32915 0.38626 0.0
O252 O 0.79418 0.3557 0.38136 0.0
O253 O 0.78243 0.26566 0.36337 0.0
O254 O 0.8645 0.35078 0.33945 0.0
O255 O 0.79643 0.29067 0.42345 0.0
O256 O 0.86659 0.38434 0.40661 0.0
O257 O 0.87376 0.30436 0.38068 0.0
O258 O 0.82575 0.35445 0.42526 0.0
O259 O 0.81817 0.26909 0.40608 0.0
O260 O 0.89375 0.35251 0.38527 0.0
O261 O 0.76423 0.29136 0.37944 0.0
O262 O 0.83535 0.38056 0.36149 0.0
O263 O 0.83819 0.30218 0.33823 0.0
Sc264 Sc 0.87023 0.5012 0.8755 0.0
Sc265 Sc 0.83078 0.53946 0.8764 0.0
Sc266 Sc 0.8092 0.47733 0.9102 0.0
O267 O 0.83674 0.50605 0.88724 0.0
C268 C 0.8182 0.43607 0.8754 0.0
C269 C 0.85224 0.52333 0.83117 0.0
C270 C 0.766 0.48597 0.87741 0.0
C271 C 0.89917 0.56938 0.88479 0.0
C272 C 0.86874 0.48357 0.9274 0.0
C273 C 0.81608 0.53667 0.92885 0.0
O274 O 0.84225 0.45574 0.86713 0.0
O275 O 0.83835 0.53354 0.84159 0.0
O276 O 0.772 0.47218 0.89205 0.0
O277 O 0.90005 0.54587 0.88332 0.0
O278 O 0.84336 0.47945 0.9309 0.0
O279 O 0.82241 0.54996 0.90998 0.0
O280 O 0.8808 0.48998 0.90804 0.0
O281 O 0.87622 0.57096 0.88165 0.0
O282 O 0.81098 0.5108 0.93125 0.0
O283 O 0.86512 0.51177 0.84125 0.0
O284 O 0.80496 0.44089 0.89129 0.0
O285 O 0.78475 0.51097 0.86998 0.0
Sc286 Sc 0.35747 0.85966 0.37077 0.0
Sc287 Sc 0.28065 0.82661 0.36816 0.0
Sc288 Sc 0.31345 0.79101 0.39426 0.0
O289 O 0.3172 0.82583 0.37765 0.0
C290 C 0.36853 0.80769 0.36227 0.0
C291 C 0.32157 0.85416 0.32541 0.0
C292 C 0.26445 0.761 0.35746 0.0
C293 C 0.32284 0.89149 0.38509 0.0
C294 C 0.36482 0.84201 0.42145 0.0
C295 C 0.26089 0.79668 0.41548 0.0
O296 O 0.37312 0.83271 0.35655 0.0
O297 O 0.29656 0.83836 0.3342 0.0
O298 O 0.28584 0.76249 0.36834 0.0
O299 O 0.34573 0.88948 0.38464 0.0
O300 O 0.34122 0.81763 0.42132 0.0
O301 O 0.26186 0.81526 0.40143 0.0
O302 O 0.37458 0.85825 0.40397 0.0
O303 O 0.29831 0.87169 0.37773 0.0
O304 O 0.27648 0.78477 0.41373 0.0
O305 O 0.34514 0.8649 0.33681 0.0
O306 O 0.34941 0.79189 0.37678 0.0
O307 O 0.25791 0.78109 0.35766 0.0
Sc308 Sc 0.49266 0.36258 0.87703 0.0
Sc309 Sc 0.44786 0.28578 0.87275 0.0
Sc310 Sc 0.51807 0.31672 0.89571 0.0
O311 O 0.48614 0.32175 0.88178 0.0
C312 C 0.55524 0.37342 0.86505 0.0
C313 C 0.45994 0.32893 0.83152 0.0
C314 C 0.49549 0.26867 0.85778 0.0
C315 C 0.42628 0.32766 0.89255 0.0
C316 C 0.52057 0.36717 0.92616 0.0
C317 C 0.46088 0.26414 0.91836 0.0
O318 O 0.53535 0.37982 0.86243 0.0
O319 O 0.44965 0.30348 0.83976 0.0
O320 O 0.5162 0.28916 0.86869 0.0
O321 O 0.45111 0.35054 0.89143 0.0
O322 O 0.52257 0.34438 0.92387 0.0
O323 O 0.44255 0.26529 0.90518 0.0
O324 O 0.51159 0.37726 0.91043 0.0
O325 O 0.42137 0.3031 0.88524 0.0
O326 O 0.48828 0.27996 0.91586 0.0
O327 O 0.47493 0.35211 0.84301 0.0
O328 O 0.55211 0.35224 0.87714 0.0
O329 O 0.46915 0.26296 0.8591 0.0
Sc330 Sc 0.12528 0.48921 0.37131 0.0
Sc331 Sc 0.16405 0.45112 0.36857 0.0
Sc332 Sc 0.19444 0.51888 0.39509 0.0
O333 O 0.16119 0.48638 0.37827 0.0
C334 C 0.17405 0.55389 0.36251 0.0
C335 C 0.13509 0.46179 0.32593 0.0
C336 C 0.22862 0.50366 0.35951 0.0
C337 C 0.098 0.423 0.38427 0.0
C338 C 0.14123 0.51547 0.4216 0.0
C339 C 0.19231 0.46218 0.41644 0.0
O340 O 0.14975 0.53221 0.35675 0.0
O341 O 0.15357 0.45585 0.33442 0.0
O342 O 0.2247 0.52259 0.36953 0.0
O343 O 0.09807 0.44693 0.38568 0.0
O344 O 0.16633 0.51782 0.42187 0.0
O345 O 0.1745 0.444 0.40226 0.0
O346 O 0.12507 0.50768 0.40404 0.0
O347 O 0.11882 0.42067 0.37588 0.0
O348 O 0.20286 0.48955 0.41465 0.0
O349 O 0.12141 0.47136 0.33761 0.0
O350 O 0.19066 0.55217 0.37724 0.0
O351 O 0.21007 0.47656 0.3599 0.0
Sc352 Sc 0.62031 0.12232 0.87269 0.0
Sc353 Sc 0.69805 0.16019 0.87349 0.0
Sc354 Sc 0.65913 0.18966 0.89989 0.0
O355 O 0.6592 0.15738 0.88191 0.0
C356 C 0.60665 0.17354 0.86522 0.0
C357 C 0.66006 0.13415 0.82865 0.0
C358 C 0.71165 0.22539 0.86583 0.0
C359 C 0.65835 0.09347 0.88702 0.0
C360 C 0.6075 0.13354 0.92332 0.0
C361 C 0.71086 0.18477 0.92358 0.0
O362 O 0.60175 0.14805 0.86074 0.0
O363 O 0.68423 0.14825 0.83905 0.0
O364 O 0.69058 0.22245 0.87798 0.0
O365 O 0.63447 0.09317 0.88399 0.0
O366 O 0.62807 0.15978 0.92354 0.0
O367 O 0.71598 0.17262 0.90709 0.0
O368 O 0.60076 0.11726 0.90595 0.0
O369 O 0.68315 0.11556 0.88304 0.0
O370 O 0.6918 0.19259 0.92293 0.0
O371 O 0.63546 0.12309 0.83857 0.0
O372 O 0.62617 0.1903 0.87912 0.0
O373 O 0.71809 0.20545 0.86325 0.0
Sc374 Sc 0.50325 0.63131 0.37284 0.0
Sc375 Sc 0.5421 0.70891 0.37104 0.0
Sc376 Sc 0.47538 0.67072 0.39999 0.0
O377 O 0.50697 0.67033 0.38122 0.0
C378 C 0.43824 0.61768 0.36607 0.0
C379 C 0.52967 0.66893 0.3276 0.0
C380 C 0.48978 0.72114 0.36415 0.0
C381 C 0.57037 0.67086 0.38572 0.0
C382 C 0.47899 0.61882 0.42361 0.0
C383 C 0.53289 0.72353 0.42127 0.0
O384 O 0.45877 0.61281 0.36098 0.0
O385 O 0.53895 0.69351 0.33706 0.0
O386 O 0.47283 0.7012 0.37766 0.0
O387 O 0.54697 0.64641 0.38434 0.0
O388 O 0.47444 0.64013 0.42419 0.0
O389 O 0.54907 0.7286 0.40405 0.0
O390 O 0.48817 0.61206 0.40603 0.0
O391 O 0.57246 0.695 0.38032 0.0
O392 O 0.50622 0.70398 0.42189 0.0
O393 O 0.51744 0.645 0.33846 0.0
O394 O 0.44131 0.63714 0.38016 0.0
O395 O 0.51593 0.72757 0.36051 0.0
Sc396 Sc 0.51335 0.19508 0.08364 0.0
Sc397 Sc 0.45002 0.16345 0.11516 0.0
Sc398 Sc 0.49727 0.13475 0.11604 0.0
O399 O 0.48682 0.1641 0.10514 0.0
C400 C 0.52207 0.14291 0.06697 0.0
C401 C 0.45383 0.17767 0.06258 0.0
C402 C 0.42913 0.09811 0.104 0.0
C403 C 0.49498 0.22897 0.11662 0.0
C404 C 0.55758 0.19563 0.11882 0.0
C405 C 0.46857 0.14307 0.16007 0.0
O406 O 0.5286 0.16937 0.06688 0.0
O407 O 0.44355 0.17801 0.08206 0.0
O408 O 0.45319 0.10043 0.11052 0.0
O409 O 0.50234 0.22614 0.09674 0.0
O410 O 0.54254 0.16804 0.12169 0.0
O411 O 0.45132 0.14867 0.14904 0.0
O412 O 0.54856 0.20989 0.10726 0.0
O413 O 0.47581 0.20741 0.1278 0.0
O414 O 0.48856 0.14027 0.15062 0.0
O415 O 0.47855 0.17969 0.05988 0.0
O416 O 0.50678 0.12535 0.08249 0.0
O417 O 0.42417 0.11928 0.10348 0.0
Sc418 Sc 0.31905 0.51417 0.58239 0.0
Sc419 Sc 0.28427 0.44797 0.6126 0.0
Sc420 Sc 0.3617 0.4914 0.61127 0.0
O421 O 0.32163 0.48447 0.60219 0.0
C422 C 0.37341 0.51391 0.56002 0.0
C423 C 0.26892 0.45419 0.56186 0.0
C424 C 0.32651 0.42359 0.59967 0.0
C425 C 0.26725 0.49747 0.61739 0.0
C426 C 0.37096 0.55496 0.6162 0.0
C427 C 0.32429 0.464 0.65641 0.0
O428 O 0.35105 0.51675 0.55884 0.0
O429 O 0.26487 0.43881 0.57941 0.0
O430 O 0.3498 0.44811 0.60109 0.0
O431 O 0.28683 0.51476 0.6038 0.0
O432 O 0.37723 0.53563 0.62198 0.0
O433 O 0.29953 0.45258 0.64683 0.0
O434 O 0.35115 0.55028 0.60185 0.0
O435 O 0.26267 0.47208 0.62196 0.0
O436 O 0.3482 0.47798 0.64569 0.0
O437 O 0.28714 0.48124 0.56079 0.0
O438 O 0.38082 0.50609 0.57802 0.0
O439 O 0.3014 0.41976 0.60435 0.0
Sc440 Sc 0.81415 0.34135 0.08257 0.0
Sc441 Sc 0.83095 0.29486 0.11358 0.0
Sc442 Sc 0.87871 0.37149 0.11366 0.0
O443 O 0.84127 0.33582 0.10337 0.0
C444 C 0.87489 0.38666 0.06166 0.0
C445 C 0.80883 0.28274 0.0628 0.0
C446 C 0.89852 0.32507 0.10237 0.0
C447 C 0.7704 0.294 0.11753 0.0
C448 C 0.83575 0.39618 0.11579 0.0
C449 C 0.85943 0.33188 0.15825 0.0
O450 O 0.84836 0.36722 0.05934 0.0
O451 O 0.81821 0.27615 0.0803 0.0
O452 O 0.90323 0.351 0.10399 0.0
O453 O 0.77773 0.31558 0.10436 0.0
O454 O 0.85702 0.39476 0.12431 0.0
O455 O 0.84248 0.30818 0.14818 0.0
O456 O 0.81988 0.37953 0.09999 0.0
O457 O 0.78658 0.28311 0.12168 0.0
O458 O 0.87414 0.35596 0.14794 0.0
O459 O 0.80547 0.30477 0.06176 0.0
O460 O 0.88823 0.39233 0.08057 0.0
O461 O 0.87406 0.30248 0.1062 0.0
Sc462 Sc 0.4658 0.7988 0.59005 0.0
Sc463 Sc 0.53505 0.82888 0.61504 0.0
Sc464 Sc 0.49735 0.86874 0.61324 0.0
O465 O 0.49942 0.83216 0.6062 0.0
C466 C 0.46812 0.85246 0.56408 0.0
C467 C 0.52132 0.80207 0.56572 0.0
C468 C 0.56315 0.89447 0.59786 0.0
C469 C 0.48322 0.76457 0.62508 0.0
C470 C 0.43328 0.81927 0.62486 0.0
C471 C 0.52656 0.85972 0.65808 0.0
O472 O 0.46261 0.82633 0.56512 0.0
O473 O 0.53912 0.81484 0.58182 0.0
O474 O 0.53979 0.89554 0.59935 0.0
O475 O 0.46498 0.76732 0.61299 0.0
O476 O 0.45424 0.8451 0.62738 0.0
O477 O 0.5341 0.84283 0.64887 0.0
O478 O 0.43427 0.80071 0.61182 0.0
O479 O 0.50983 0.78421 0.62678 0.0
O480 O 0.5145 0.87165 0.64716 0.0
O481 O 0.49441 0.79425 0.56671 0.0
O482 O 0.47967 0.87043 0.58032 0.0
O483 O 0.56535 0.87281 0.60438 0.0
Sc484 Sc 0.67466 0.46954 0.09828 0.0
Sc485 Sc 0.70718 0.54046 0.11892 0.0
Sc486 Sc 0.63057 0.49666 0.11743 0.0
O487 O 0.67069 0.50219 0.11161 0.0
C488 C 0.62254 0.46557 0.0693 0.0
C489 C 0.72502 0.52585 0.07274 0.0
C490 C 0.66435 0.56169 0.10045 0.0
C491 C 0.72638 0.49376 0.13238 0.0
C492 C 0.61988 0.435 0.13154 0.0
C493 C 0.6676 0.53052 0.16159 0.0
O494 O 0.64588 0.46438 0.07074 0.0
O495 O 0.72356 0.54469 0.08509 0.0
O496 O 0.6419 0.53655 0.10063 0.0
O497 O 0.70345 0.47207 0.1247 0.0
O498 O 0.61465 0.45565 0.1344 0.0
O499 O 0.69248 0.53822 0.15303 0.0
O500 O 0.63951 0.43667 0.1182 0.0
O501 O 0.73202 0.5199 0.12959 0.0
O502 O 0.64393 0.51778 0.15025 0.0
O503 O 0.71078 0.49864 0.07693 0.0
O504 O 0.61308 0.47467 0.08536 0.0
O505 O 0.68861 0.56697 0.10882 0.0
Sc506 Sc 0.18915 0.66993 0.58094 0.0
Sc507 Sc 0.16144 0.7065 0.61311 0.0
Sc508 Sc 0.12317 0.62903 0.60965 0.0
O509 O 0.15786 0.66848 0.6013 0.0
C510 C 0.13327 0.61798 0.55796 0.0
C511 C 0.18303 0.72316 0.56244 0.0
C512 C 0.09459 0.66857 0.59989 0.0
C513 C 0.22647 0.71898 0.61742 0.0
C514 C 0.17518 0.61586 0.61334 0.0
C515 C 0.13525 0.66502 0.6559 0.0
O516 O 0.15884 0.6397 0.55701 0.0
O517 O 0.17277 0.72746 0.58049 0.0
O518 O 0.09373 0.64414 0.60023 0.0
O519 O 0.22294 0.70008 0.60268 0.0
O520 O 0.14999 0.61072 0.6194 0.0
O521 O 0.14994 0.68991 0.64678 0.0
O522 O 0.19101 0.63591 0.59939 0.0
O523 O 0.20663 0.7247 0.62275 0.0
O524 O 0.12391 0.64138 0.64468 0.0
O525 O 0.19002 0.70362 0.56035 0.0
O526 O 0.11793 0.61066 0.57592 0.0
O527 O 0.11683 0.69262 0.60517 0.0
H528 H 0.10614 0.569 0.92752 0.0
H529 H 0.14008 0.6455 0.96982 0.0
H530 H 0.09899 0.53899 0.96121 0.0
H531 H 0.13219 0.61544 0.00344 0.0
H532 H 0.10183 0.5483 0.06088 0.0
H533 H 0.09193 0.56932 0.02727 0.0
H534 H 0.14383 0.54472 0.98657 0.0
H535 H 0.15438 0.52449 0.02011 0.0
C536 C 0.11097 0.57919 0.94408 0.0
C537 C 0.12377 0.60954 0.94612 0.0
C538 C 0.10704 0.56207 0.96329 0.0
C539 C 0.11515 0.57498 0.98483 0.0
C540 C 0.12557 0.60495 0.98704 0.0
C541 C 0.13014 0.62214 0.96783 0.0
C542 C 0.11063 0.54691 0.04466 0.0
C543 C 0.12904 0.53498 0.04309 0.0
C544 C 0.10499 0.55894 0.0255 0.0
C545 C 0.11702 0.55847 0.00439 0.0
C546 C 0.13403 0.54504 0.00261 0.0
C547 C 0.14024 0.53368 0.02181 0.0
H548 H 0.6364 0.14275 0.51585 0.0
H549 H 0.56086 0.10213 0.5594 0.0
H550 H 0.60489 0.13424 0.48308 0.0
H551 H 0.52931 0.09429 0.52657 0.0
H552 H 0.53785 0.10288 0.42641 0.0
H553 H 0.56056 0.09327 0.45908 0.0
H554 H 0.52969 0.13737 0.5028 0.0
H555 H 0.50772 0.14761 0.47022 0.0
C556 C 0.613 0.13136 0.51829 0.0
C557 C 0.60105 0.12319 0.54013 0.0
C558 C 0.59498 0.12637 0.49954 0.0
C559 C 0.56472 0.11371 0.50236 0.0
C560 C 0.55259 0.10407 0.524 0.0
C561 C 0.57061 0.10844 0.54272 0.0
C562 C 0.53534 0.10986 0.44311 0.0
C563 C 0.52123 0.12615 0.44582 0.0
C564 C 0.54838 0.10444 0.46172 0.0
C565 C 0.54681 0.11456 0.4834 0.0
C566 C 0.53096 0.12907 0.48631 0.0
C567 C 0.51856 0.13508 0.46767 0.0
H568 H 0.43688 0.54777 0.92353 0.0
H569 H 0.35927 0.50896 0.96486 0.0
H570 H 0.46669 0.56944 0.9576 0.0
H571 H 0.38894 0.52983 -0.00121 0.0
H572 H 0.45185 0.56207 0.05764 0.0
H573 H 0.43196 0.53209 0.0235 0.0
H574 H 0.46436 0.60989 0.98283 0.0
H575 H 0.48359 0.63976 0.01685 0.0
C576 C 0.42636 0.54308 0.93996 0.0
C577 C 0.39586 0.52689 0.94166 0.0
C578 C 0.44334 0.55552 0.95938 0.0
C579 C 0.43005 0.55126 0.98076 0.0
C580 C 0.39974 0.5332 0.98255 0.0
C581 C 0.38277 0.5214 0.96316 0.0
C582 C 0.45529 0.5727 0.04133 0.0
C583 C 0.46896 0.60318 0.03986 0.0
C584 C 0.44391 0.55558 0.02186 0.0
C585 C 0.4467 0.56873 0.0006 0.0
C586 C 0.46219 0.59922 -0.00102 0.0
C587 C 0.47296 0.61629 0.01845 0.0
H588 H 0.83583 0.48327 0.51996 0.0
H589 H 0.8819 0.45151 0.56068 0.0
H590 H 0.8462 0.46381 0.48596 0.0
H591 H 0.89177 0.43144 0.52655 0.0
H592 H 0.8433 0.35886 0.46815 0.0
H593 H 0.85166 0.38852 0.50198 0.0
H594 H 0.88839 0.466 0.46054 0.0
H595 H 0.88062 0.43622 0.42655 0.0
C596 C 0.84863 0.47258 0.52155 0.0
C597 C 0.85785 0.46865 0.54295 0.0
C598 C 0.85476 0.46166 0.50208 0.0
C599 C 0.86975 0.44612 0.50368 0.0
C600 C 0.88021 0.44339 0.52492 0.0
C601 C 0.87461 0.4549 0.54438 0.0
C602 C 0.8539 0.38231 0.46635 0.0
C603 C 0.8612 0.3953 0.4448 0.0
C604 C 0.85884 0.39928 0.4857 0.0
C605 C 0.8706 0.4295 0.48382 0.0
C606 C 0.87931 0.44271 0.46238 0.0
C607 C 0.87498 0.42574 0.44301 0.0
H608 H 0.44545 0.87358 0.92616 0.0
H609 H 0.47266 0.82167 0.96426 0.0
H610 H 0.42001 0.87703 0.95978 0.0
H611 H 0.4481 0.82605 -0.00202 0.0
H612 H 0.42203 0.86896 0.05711 0.0
H613 H 0.45157 0.87385 0.02361 0.0
H614 H 0.37346 0.82818 0.98341 0.0
H615 H 0.34375 0.82235 0.017 0.0
C616 C 0.4466 0.86354 0.94185 0.0
C617 C 0.46103 0.84736 0.94263 0.0
C618 C 0.43194 0.8654 0.96098 0.0
C619 C 0.43221 0.85183 0.98136 0.0
C620 C 0.44776 0.83682 0.98245 0.0
C621 C 0.46173 0.83429 0.96319 0.0
C622 C 0.41118 0.86036 0.04105 0.0
C623 C 0.38057 0.84523 0.03966 0.0
C624 C 0.42808 0.86307 0.02197 0.0
C625 C 0.41471 0.85145 0.00104 0.0
C626 C 0.38422 0.83748 -0.00062 0.0
C627 C 0.36727 0.83408 0.01857 0.0
H628 H 0.55912 0.44596 0.42959 0.0
H629 H 0.63753 0.475 0.46912 0.0
H630 H 0.52964 0.42457 0.46376 0.0
H631 H 0.60805 0.45434 0.50326 0.0
H632 H 0.54421 0.43021 0.56278 0.0
H633 H 0.56719 0.45889 0.5285 0.0
H634 H 0.52787 0.38018 0.48861 0.0
H635 H 0.50568 0.35146 0.52285 0.0
C636 C 0.57004 0.44838 0.44565 0.0
C637 C 0.6006 0.46197 0.44671 0.0
C638 C 0.55319 0.43612 0.46512 0.0
C639 C 0.56665 0.43795 0.48605 0.0
C640 C 0.5972 0.45292 0.48734 0.0
C641 C 0.61402 0.46454 0.46781 0.0
C642 C 0.5399 0.41918 0.54658 0.0
C643 C 0.52325 0.38867 0.54539 0.0
C644 C 0.55313 0.43553 0.52706 0.0
C645 C 0.54923 0.42166 0.50602 0.0
C646 C 0.53099 0.39136 0.50462 0.0
C647 C 0.5184 0.37497 0.52418 0.0
H648 H 0.90404 0.45967 0.92628 0.0
H649 H 0.86611 0.49544 0.97174 0.0
H650 H 0.91887 0.44136 0.95891 0.0
H651 H 0.88121 0.47766 0.00414 0.0
H652 H 0.87005 0.3693 0.01795 0.0
H653 H 0.88169 0.40013 0.9845 0.0
H654 H 0.9221 0.47664 0.02697 0.0
H655 H 0.91077 0.44557 0.0606 0.0
C656 C 0.8998 0.46448 0.94324 0.0
C657 C 0.88357 0.47854 0.94657 0.0
C658 C 0.90824 0.45401 0.96186 0.0
C659 C 0.90111 0.45803 0.98402 0.0
C660 C 0.88729 0.47449 0.98729 0.0
C661 C 0.87838 0.48442 0.96874 0.0
C662 C 0.88242 0.39274 0.02004 0.0
C663 C 0.88926 0.40512 0.04178 0.0
C664 C 0.88927 0.41041 0.00089 0.0
C665 C 0.90258 0.44076 0.00319 0.0
C666 C 0.91177 0.45327 0.02479 0.0
C667 C 0.90539 0.43554 0.04398 0.0
H668 H 0.48002 0.84411 0.52113 0.0
H669 H 0.43529 0.8788 0.55997 0.0
H670 H 0.45763 0.8489 0.48636 0.0
H671 H 0.41205 0.88282 0.52508 0.0
H672 H 0.34509 0.82729 0.46488 0.0
H673 H 0.37409 0.83819 0.4995 0.0
H674 H 0.45285 0.8874 0.46054 0.0
H675 H 0.42383 0.87706 0.42584 0.0
C676 C 0.46594 0.85346 0.52208 0.0
C677 C 0.45942 0.86123 0.54311 0.0
C678 C 0.45318 0.85624 0.50222 0.0
C679 C 0.43308 0.86614 0.50309 0.0
C680 C 0.42752 0.87514 0.52401 0.0
C681 C 0.44091 0.87305 0.54388 0.0
C682 C 0.36856 0.84082 0.46374 0.0
C683 C 0.3822 0.85113 0.44262 0.0
C684 C 0.38512 0.84726 0.48357 0.0
C685 C 0.41567 0.86367 0.48265 0.0
C686 C 0.42931 0.87475 0.46167 0.0
C687 C 0.4127 0.86884 0.44186 0.0
H688 H 0.56328 0.43637 0.0648 0.0
H689 H 0.64308 0.47027 0.02635 0.0
H690 H 0.53505 0.41409 0.03018 0.0
H691 H 0.61483 0.44885 0.99177 0.0
H692 H 0.54846 0.42605 0.93235 0.0
H693 H 0.57121 0.45284 0.96736 0.0
H694 H 0.53832 0.37162 0.00348 0.0
H695 H 0.51638 0.34479 0.96844 0.0
C696 C 0.57471 0.43956 0.04889 0.0
C697 C 0.60533 0.45491 0.04822 0.0
C698 C 0.5586 0.42679 0.02918 0.0
C699 C 0.57287 0.42994 0.00842 0.0
C700 C 0.60339 0.44637 0.00758 0.0
C701 C 0.6195 0.45845 0.02734 0.0
C702 C 0.54569 0.41397 0.94786 0.0
C703 C 0.53078 0.38337 0.94771 0.0
C704 C 0.55875 0.42927 0.9678 0.0
C705 C 0.55637 0.41419 0.988 0.0
C706 C 0.54021 0.38366 0.98811 0.0
C707 C 0.52782 0.36837 0.96809 0.0
H708 H 0.15631 0.51371 0.4656 0.0
H709 H 0.1045 0.5376 0.42382 0.0
H710 H 0.14511 0.53395 0.49879 0.0
H711 H 0.0939 0.55845 0.45703 0.0
H712 H 0.1056 0.55873 0.55687 0.0
H713 H 0.10015 0.52856 0.52365 0.0
H714 H 0.13312 0.60447 0.48071 0.0
H715 H 0.13933 0.63466 0.51388 0.0
C716 C 0.14219 0.5229 0.46358 0.0
C717 C 0.13143 0.52423 0.4421 0.0
C718 C 0.13561 0.53427 0.48259 0.0
C719 C 0.11862 0.54769 0.48041 0.0
C720 C 0.10698 0.54812 0.45911 0.0
C721 C 0.11302 0.53616 0.44017 0.0
C722 C 0.11074 0.56872 0.54023 0.0
C723 C 0.12289 0.59897 0.53786 0.0
C724 C 0.10783 0.55154 0.5213 0.0
C725 C 0.11631 0.56426 0.49971 0.0
C726 C 0.12621 0.5941 0.49715 0.0
C727 C 0.1298 0.61136 0.5161 0.0
H728 H 0.54886 0.10762 0.93146 0.0
H729 H 0.63169 0.13451 0.96353 0.0
H730 H 0.52621 0.10143 0.96896 0.0
H731 H 0.60916 0.12749 0.00075 0.0
H732 H 0.57502 0.17369 0.04799 0.0
H733 H 0.59346 0.16187 0.01449 0.0
H734 H 0.51399 0.07882 0.00963 0.0
H735 H 0.49537 0.09084 0.04386 0.0
C736 C 0.56185 0.111 0.94655 0.0
C737 C 0.59197 0.12192 0.94481 0.0
C738 C 0.54895 0.10738 0.96796 0.0
C739 C 0.5661 0.1145 0.98771 0.0
C740 C 0.59555 0.12234 0.9858 0.0
C741 C 0.60843 0.12631 0.96455 0.0
C742 C 0.56162 0.1527 0.04002 0.0
C743 C 0.53378 0.13321 0.04841 0.0
C744 C 0.57227 0.14579 0.02091 0.0
C745 C 0.55524 0.11932 0.00951 0.0
C746 C 0.52756 0.09934 0.01816 0.0
C747 C 0.51702 0.10611 0.03773 0.0
H748 H 0.35679 0.50625 0.51583 0.0
H749 H 0.43283 0.54094 0.55888 0.0
H750 H 0.38802 0.52753 0.48269 0.0
H751 H 0.46414 0.5629 0.52562 0.0
H752 H 0.48591 0.63606 0.46757 0.0
H753 H 0.46463 0.60523 0.5009 0.0
H754 H 0.43129 0.52863 0.45879 0.0
H755 H 0.45331 0.55959 0.42535 0.0
C756 C 0.38023 0.51793 0.5181 0.0
C757 C 0.39243 0.52216 0.53988 0.0
C758 C 0.39809 0.52991 0.49914 0.0
C759 C 0.42844 0.54685 0.50167 0.0
C760 C 0.44077 0.54985 0.52329 0.0
C761 C 0.4229 0.53726 0.54225 0.0
C762 C 0.47473 0.61262 0.46554 0.0
C763 C 0.47108 0.60016 0.44393 0.0
C764 C 0.46273 0.595 0.48461 0.0
C765 C 0.44631 0.5646 0.48235 0.0
C766 C 0.44392 0.55204 0.46091 0.0
C767 C 0.45656 0.5697 0.44186 0.0
H768 H 0.25938 0.48678 0.12058 0.0
H769 H 0.25521 0.5577 0.15263 0.0
H770 H 0.31205 0.51211 0.12641 0.0
H771 H 0.30755 0.58243 0.15959 0.0
H772 H 0.3935 0.63661 0.12032 0.0
H773 H 0.34292 0.60676 0.13076 0.0
H774 H 0.35774 0.53582 0.14763 0.0
H775 H 0.40899 0.56598 0.13653 0.0
C776 C 0.26958 0.50711 0.1299 0.0
C777 C 0.25349 0.52057 0.13588 0.0
C778 C 0.29978 0.52166 0.13327 0.0
C779 C 0.31414 0.5497 0.14291 0.0
C780 C 0.29727 0.56126 0.15151 0.0
C781 C 0.26729 0.54703 0.14772 0.0
C782 C 0.38618 0.61478 0.12651 0.0
C783 C 0.40518 0.60353 0.12725 0.0
C784 C 0.35712 0.59769 0.13283 0.0
C785 C 0.34616 0.56881 0.14011 0.0
C786 C 0.36548 0.55792 0.14196 0.0
C787 C 0.39482 0.57521 0.1357 0.0
H788 H 0.74996 0.39057 0.61953 0.0
H789 H 0.83641 0.4115 0.6408 0.0
H790 H 0.73217 0.33971 0.62762 0.0
H791 H 0.81828 0.36014 0.64943 0.0
H792 H 0.78054 0.26582 0.61644 0.0
H793 H 0.80256 0.3178 0.62472 0.0
H794 H 0.72157 0.30218 0.65485 0.0
H795 H 0.69947 0.25059 0.64555 0.0
C796 C 0.76507 0.38438 0.62639 0.0
C797 C 0.79469 0.40502 0.62915 0.0
C798 C 0.75479 0.35517 0.6313 0.0
C799 C 0.77385 0.34581 0.63913 0.0
C800 C 0.80315 0.36667 0.64323 0.0
C801 C 0.81347 0.39607 0.63838 0.0
C802 C 0.76796 0.27351 0.62558 0.0
C803 C 0.73844 0.2546 0.63031 0.0
C804 C 0.78049 0.30321 0.63039 0.0
C805 C 0.76359 0.31417 0.64006 0.0
C806 C 0.73493 0.29449 0.64695 0.0
C807 C 0.72235 0.26499 0.64182 0.0
H808 H 0.44636 0.7048 0.15022 0.0
H809 H 0.50921 0.78179 0.11459 0.0
H810 H 0.41834 0.7285 0.15965 0.0
H811 H 0.48059 0.80526 0.12298 0.0
H812 H 0.42242 0.84143 0.13794 0.0
H813 H 0.45639 0.82426 0.14706 0.0
H814 H 0.38874 0.73594 0.13304 0.0
H815 H 0.35504 0.75286 0.12449 0.0
C816 C 0.45462 0.72722 0.14511 0.0
C817 C 0.47975 0.7416 0.13172 0.0
C818 C 0.4385 0.74071 0.15029 0.0
C819 C 0.44682 0.76848 0.14158 0.0
C820 C 0.47361 0.78392 0.13005 0.0
C821 C 0.49003 0.77053 0.1252 0.0
C822 C 0.41468 0.81828 0.1374 0.0
C823 C 0.38617 0.79853 0.13016 0.0
C824 C 0.43418 0.80849 0.14251 0.0
C825 C 0.42539 0.77877 0.14068 0.0
C826 C 0.39626 0.75894 0.13496 0.0
C827 C 0.37693 0.76869 0.12978 0.0
H828 H 0.73136 0.52327 0.63023 0.0
H829 H 0.7238 0.43914 0.64037 0.0
H830 H 0.67943 0.50228 0.6392 0.0
H831 H 0.67248 0.41826 0.64923 0.0
H832 H 0.58088 0.38145 0.66337 0.0
H833 H 0.6324 0.41462 0.67215 0.0
H834 H 0.63837 0.46815 0.61477 0.0
H835 H 0.58694 0.43527 0.60647 0.0
C836 C 0.71882 0.50058 0.63515 0.0
C837 C 0.7313 0.48265 0.63432 0.0
C838 C 0.68915 0.48855 0.64016 0.0
C839 C 0.67179 0.45857 0.64473 0.0
C840 C 0.68517 0.44145 0.64601 0.0
C841 C 0.71456 0.45334 0.64074 0.0
C842 C 0.5931 0.40096 0.65327 0.0
C843 C 0.58034 0.40607 0.63433 0.0
C844 C 0.6225 0.41985 0.65819 0.0
C845 C 0.63952 0.44386 0.64403 0.0
C846 C 0.62586 0.45012 0.62619 0.0
C847 C 0.5965 0.43126 0.62133 0.0
H848 H 0.13581 0.58321 0.13924 0.0
H849 H 0.22474 0.60125 0.13593 0.0
H850 H 0.15321 0.63366 0.15093 0.0
H851 H 0.24206 0.65103 0.14692 0.0
H852 H 0.20484 0.72943 0.1194 0.0
H853 H 0.17715 0.67784 0.12891 0.0
H854 H 0.24769 0.68792 0.17203 0.0
H855 H 0.27595 0.73909 0.16114 0.0
C856 C 0.15897 0.59773 0.1416 0.0
C857 C 0.179 0.58861 0.13625 0.0
C858 C 0.16895 0.62661 0.14817 0.0
C859 C 0.19905 0.64658 0.14969 0.0
C860 C 0.21873 0.63642 0.14626 0.0
C861 C 0.20883 0.60785 0.13962 0.0
C862 C 0.21381 0.72075 0.13162 0.0
C863 C 0.24252 0.73782 0.13933 0.0
C864 C 0.19794 0.69118 0.13718 0.0
C865 C 0.21057 0.67851 0.15073 0.0
C866 C 0.23771 0.69681 0.16099 0.0
C867 C 0.25383 0.72612 0.15494 0.0
H868 H 0.63589 0.23458 0.61527 0.0
H869 H 0.56768 0.15018 0.63785 0.0
H870 H 0.60725 0.25615 0.62692 0.0
H871 H 0.53885 0.17224 0.65018 0.0
H872 H 0.4863 0.21938 0.62703 0.0
H873 H 0.51254 0.19266 0.63046 0.0
H874 H 0.58702 0.26959 0.65756 0.0
H875 H 0.56118 0.29655 0.65313 0.0
C876 C 0.61486 0.22063 0.62303 0.0
C877 C 0.60389 0.19054 0.62529 0.0
C878 C 0.59853 0.23314 0.63005 0.0
C879 C 0.57074 0.21598 0.63961 0.0
C880 C 0.56013 0.18602 0.64277 0.0
C881 C 0.57666 0.17342 0.63577 0.0
C882 C 0.50789 0.23025 0.63446 0.0
C883 C 0.52197 0.26014 0.6394 0.0
C884 C 0.52295 0.21492 0.63646 0.0
C885 C 0.55217 0.22923 0.64371 0.0
C886 C 0.56484 0.25818 0.65129 0.0
C887 C 0.55001 0.27359 0.6489 0.0
H888 H 0.36497 0.60076 0.85608 0.0
H889 H 0.43364 0.58062 0.84526 0.0
H890 H 0.39721 0.6505 0.8445 0.0
H891 H 0.46631 0.63101 0.83314 0.0
H892 H 0.51631 0.72948 0.86063 0.0
H893 H 0.49011 0.67697 0.8543 0.0
H894 H 0.42505 0.68477 0.81554 0.0
H895 H 0.45059 0.73699 0.82294 0.0
C896 C 0.38688 0.60687 0.85077 0.0
C897 C 0.3969 0.58689 0.85192 0.0
C898 C 0.40536 0.63541 0.84381 0.0
C899 C 0.43445 0.64485 0.83784 0.0
C900 C 0.44407 0.62444 0.83775 0.0
C901 C 0.42536 0.5956 0.84458 0.0
C902 C 0.49713 0.72007 0.84991 0.0
C903 C 0.48517 0.73703 0.8425 0.0
C904 C 0.48205 0.68995 0.84627 0.0
C905 C 0.45502 0.67657 0.83497 0.0
C906 C 0.44539 0.69432 0.82486 0.0
C907 C 0.46011 0.72424 0.82889 0.0
H908 H 0.77568 0.51256 0.3633 0.0
H909 H 0.69869 0.4439 0.33142 0.0
H910 H 0.80126 0.48569 0.35638 0.0
H911 H 0.72446 0.41751 0.32353 0.0
H912 H 0.75319 0.36147 0.36495 0.0
H913 H 0.73422 0.39264 0.35356 0.0
H914 H 0.82074 0.45981 0.33418 0.0
H915 H 0.84001 0.42839 0.34601 0.0
C916 C 0.76483 0.49251 0.35366 0.0
C917 C 0.73524 0.48001 0.34811 0.0
C918 C 0.77943 0.47705 0.3497 0.0
C919 C 0.76457 0.44908 0.33997 0.0
C920 C 0.73622 0.43866 0.33159 0.0
C921 C 0.72154 0.45384 0.3359 0.0
C922 C 0.76818 0.3827 0.35796 0.0
C923 C 0.79815 0.39261 0.35672 0.0
C924 C 0.75723 0.40051 0.35111 0.0
C925 C 0.77598 0.42877 0.34289 0.0
C926 C 0.8058 0.4382 0.34053 0.0
C927 C 0.81678 0.42018 0.34725 0.0
H928 H 0.26897 0.70468 0.86362 0.0
H929 H 0.26229 0.78063 0.8474 0.0
H930 H 0.31947 0.72997 0.85263 0.0
H931 H 0.31361 0.80627 0.83558 0.0
H932 H 0.41092 0.84664 0.86348 0.0
H933 H 0.35886 0.82617 0.85659 0.0
H934 H 0.35576 0.75129 0.82461 0.0
H935 H 0.40736 0.77104 0.83298 0.0
C936 C 0.27825 0.72675 0.85728 0.0
C937 C 0.26185 0.74089 0.85683 0.0
C938 C 0.30725 0.74119 0.85059 0.0
C939 C 0.32075 0.77025 0.84316 0.0
C940 C 0.30389 0.78396 0.84138 0.0
C941 C 0.27455 0.7693 0.84806 0.0
C942 C 0.39918 0.82628 0.8543 0.0
C943 C 0.41271 0.81005 0.84909 0.0
C944 C 0.36938 0.81457 0.85024 0.0
C945 C 0.35295 0.78669 0.84061 0.0
C946 C 0.36761 0.7724 0.83271 0.0
C947 C 0.39713 0.78371 0.83734 0.0
H948 H 0.55684 0.41062 0.35114 0.0
H949 H 0.62766 0.39291 0.35852 0.0
H950 H 0.52366 0.35918 0.34233 0.0
H951 H 0.59496 0.34213 0.35046 0.0
H952 H 0.47732 0.26517 0.3766 0.0
H953 H 0.50321 0.31681 0.36665 0.0
H954 H 0.56387 0.30364 0.32634 0.0
H955 H 0.53889 0.2525 0.3376 0.0
C956 C 0.56543 0.3959 0.35032 0.0
C957 C 0.59465 0.40556 0.35593 0.0
C958 C 0.54645 0.36647 0.34543 0.0
C959 C 0.55652 0.34642 0.34589 0.0
C960 C 0.58634 0.35682 0.34964 0.0
C961 C 0.60513 0.38599 0.35458 0.0
C962 C 0.49566 0.27331 0.36505 0.0
C963 C 0.50655 0.25534 0.35806 0.0
C964 C 0.51042 0.30282 0.35921 0.0
C965 C 0.53604 0.31451 0.34609 0.0
C966 C 0.54469 0.29549 0.33697 0.0
C967 C 0.53038 0.26624 0.34326 0.0
H968 H 0.23454 0.63646 0.87384 0.0
H969 H 0.14919 0.56998 0.85146 0.0
H970 H 0.25433 0.60566 0.86382 0.0
H971 H 0.16942 0.53884 0.84094 0.0
H972 H 0.29228 0.55718 0.83896 0.0
H973 H 0.2661 0.58356 0.83295 0.0
H974 H 0.18894 0.51217 0.86286 0.0
H975 H 0.21498 0.48525 0.86783 0.0
C976 C 0.22002 0.61532 0.86651 0.0
C977 C 0.19021 0.60553 0.86371 0.0
C978 C 0.23148 0.59775 0.86044 0.0
C979 C 0.2135 0.56983 0.85139 0.0
C980 C 0.18378 0.56025 0.84789 0.0
C981 C 0.17225 0.57807 0.85385 0.0
C982 C 0.26936 0.54671 0.84336 0.0
C983 C 0.25561 0.51944 0.85404 0.0
C984 C 0.25443 0.56184 0.84009 0.0
C985 C 0.22573 0.55029 0.84805 0.0
C986 C 0.21102 0.52165 0.85654 0.0
C987 C 0.22589 0.50622 0.85941 0.0
H988 H 0.59395 0.23412 0.36436 0.0
H989 H 0.57688 0.14668 0.35195 0.0
H990 H 0.64491 0.25318 0.35585 0.0
H991 H 0.62848 0.16601 0.3428 0.0
H992 H 0.73409 0.28827 0.3378 0.0
H993 H 0.68208 0.26225 0.32924 0.0
H994 H 0.67251 0.18737 0.36601 0.0
H995 H 0.72496 0.21314 0.37343 0.0
C996 C 0.60102 0.21898 0.3593 0.0
C997 C 0.58146 0.18886 0.35915 0.0
C998 C 0.63031 0.22996 0.35414 0.0
C999 C 0.64093 0.21113 0.34865 0.0
C1000 C 0.62104 0.18106 0.34715 0.0
C1001 C 0.59148 0.17002 0.35223 0.0
C1002 C 0.72095 0.2658 0.34318 0.0
C1003 C 0.73324 0.25261 0.35628 0.0
C1004 C 0.69117 0.25098 0.33849 0.0
C1005 C 0.67297 0.223 0.34746 0.0
C1006 C 0.68585 0.20882 0.35876 0.0
C1007 C 0.71587 0.22354 0.36306 0.0
H1008 H 0.59006 0.35763 0.84316 0.0
H1009 H 0.58624 0.43253 0.86704 0.0
H1010 H 0.64253 0.38775 0.83772 0.0
H1011 H 0.63907 0.46253 0.86286 0.0
H1012 H 0.73753 0.51011 0.85469 0.0
H1013 H 0.68621 0.48502 0.84281 0.0
H1014 H 0.67583 0.4041 0.86879 0.0
H1015 H 0.72626 0.42855 0.88001 0.0
C1016 C 0.60045 0.38076 0.84665 0.0
C1017 C 0.58441 0.3928 0.85579 0.0
C1018 C 0.63046 0.39798 0.84369 0.0
C1019 C 0.64506 0.42731 0.85055 0.0
C1020 C 0.62851 0.44003 0.85742 0.0
C1021 C 0.59827 0.42286 0.85988 0.0
C1022 C 0.72425 0.48689 0.85751 0.0
C1023 C 0.73585 0.47141 0.86857 0.0
C1024 C 0.69493 0.47256 0.85075 0.0
C1025 C 0.67696 0.44252 0.85468 0.0
C1026 C 0.68906 0.42709 0.865 0.0
C1027 C 0.71802 0.44128 0.8718 0.0
H1028 H 0.27953 0.73387 0.32607 0.0
H1029 H 0.20673 0.72494 0.36512 0.0
H1030 H 0.25288 0.68188 0.3177 0.0
H1031 H 0.18045 0.67257 0.35785 0.0
H1032 H 0.14064 0.57645 0.34638 0.0
H1033 H 0.15807 0.6273 0.33555 0.0
H1034 H 0.24687 0.64677 0.34574 0.0
H1035 H 0.22965 0.59669 0.35607 0.0
C1036 C 0.25735 0.72084 0.33214 0.0
C1037 C 0.24514 0.73313 0.34631 0.0
C1038 C 0.24217 0.69107 0.32755 0.0
C1039 C 0.21491 0.67293 0.33768 0.0
C1040 C 0.20137 0.68587 0.34975 0.0
C1041 C 0.21639 0.71587 0.35395 0.0
C1042 C 0.16388 0.59158 0.34569 0.0
C1043 C 0.1838 0.58278 0.35235 0.0
C1044 C 0.17384 0.62065 0.33961 0.0
C1045 C 0.20385 0.64115 0.33976 0.0
C1046 C 0.22364 0.63163 0.34502 0.0
C1047 C 0.21375 0.6029 0.35125 0.0
H1048 H 0.53747 0.28293 0.82622 0.0
H1049 H 0.47119 0.21045 0.86405 0.0
H1050 H 0.56185 0.25521 0.81827 0.0
H1051 H 0.49622 0.18306 0.85713 0.0
H1052 H 0.55127 0.14162 0.84776 0.0
H1053 H 0.51929 0.16023 0.83567 0.0
H1054 H 0.58931 0.24814 0.84741 0.0
H1055 H 0.62088 0.22977 0.85901 0.0
C1056 C 0.5275 0.26057 0.832 0.0
C1057 C 0.50268 0.24879 0.84585 0.0
C1058 C 0.54158 0.24478 0.82767 0.0
C1059 C 0.53152 0.21732 0.83771 0.0
C1060 C 0.50459 0.20416 0.84915 0.0
C1061 C 0.49017 0.2198 0.85311 0.0
C1062 C 0.5599 0.16493 0.8472 0.0
C1063 C 0.58844 0.18423 0.85465 0.0
C1064 C 0.54159 0.17556 0.84035 0.0
C1065 C 0.55169 0.20566 0.84054 0.0
C1066 C 0.58083 0.22487 0.84664 0.0
C1067 C 0.59891 0.2143 0.85362 0.0
H1068 H 0.26459 0.48148 0.36586 0.0
H1069 H 0.2579 0.54968 0.3314 0.0
H1070 H 0.31715 0.50749 0.35942 0.0
H1071 H 0.31008 0.57494 0.32366 0.0
H1072 H 0.3967 0.6327 0.36095 0.0
H1073 H 0.3462 0.60164 0.35097 0.0
H1074 H 0.36228 0.53059 0.33804 0.0
H1075 H 0.41349 0.56206 0.34879 0.0
C1076 C 0.27424 0.50135 0.35594 0.0
C1077 C 0.25749 0.51391 0.3494 0.0
C1078 C 0.30436 0.51627 0.35218 0.0
C1079 C 0.31799 0.54374 0.34154 0.0
C1080 C 0.30042 0.55429 0.33252 0.0
C1081 C 0.27053 0.53976 0.33677 0.0
C1082 C 0.38967 0.61058 0.35567 0.0
C1083 C 0.40898 0.59969 0.35604 0.0
C1084 C 0.36064 0.59276 0.34961 0.0
C1085 C 0.35001 0.56348 0.34368 0.0
C1086 C 0.36972 0.55297 0.34271 0.0
C1087 C 0.39904 0.571 0.34874 0.0
H1088 H 0.84386 0.40898 0.85303 0.0
H1089 H 0.76106 0.39532 0.87752 0.0
H1090 H 0.82039 0.35748 0.84195 0.0
H1091 H 0.73809 0.34465 0.86699 0.0
H1092 H 0.77077 0.25821 0.8684 0.0
H1093 H 0.79924 0.31104 0.8634 0.0
H1094 H 0.72314 0.31051 0.83629 0.0
H1095 H 0.69458 0.25808 0.8424 0.0
C1096 C 0.82066 0.39514 0.85574 0.0
C1097 C 0.80437 0.40608 0.8664 0.0
C1098 C 0.80728 0.36571 0.84947 0.0
C1099 C 0.77735 0.34698 0.85346 0.0
C1100 C 0.76103 0.35846 0.86322 0.0
C1101 C 0.77434 0.38754 0.86959 0.0
C1102 C 0.76054 0.26936 0.8606 0.0
C1103 C 0.73051 0.25439 0.85608 0.0
C1104 C 0.77681 0.29959 0.85769 0.0
C1105 C 0.76323 0.31503 0.84999 0.0
C1106 C 0.73402 0.29932 0.84283 0.0
C1107 C 0.7177 0.26932 0.84617 0.0
H1108 H 0.42306 0.83885 0.34329 0.0
H1109 H 0.35557 0.75147 0.3601 0.0
H1110 H 0.45602 0.82045 0.33398 0.0
H1111 H 0.38819 0.73339 0.35149 0.0
H1112 H 0.44355 0.69973 0.33608 0.0
H1113 H 0.41608 0.72357 0.32536 0.0
H1114 H 0.48089 0.8026 0.35812 0.0
H1115 H 0.50908 0.77899 0.36754 0.0
C1116 C 0.41509 0.81569 0.34453 0.0
C1117 C 0.38694 0.79665 0.35281 0.0
C1118 C 0.43397 0.80519 0.33931 0.0
C1119 C 0.42485 0.77549 0.3421 0.0
C1120 C 0.39596 0.75632 0.3488 0.0
C1121 C 0.37727 0.76676 0.35406 0.0
C1122 C 0.45237 0.72255 0.34012 0.0
C1123 C 0.47809 0.73761 0.35275 0.0
C1124 C 0.43664 0.73617 0.33414 0.0
C1125 C 0.44587 0.76472 0.34144 0.0
C1126 C 0.47318 0.78064 0.35215 0.0
C1127 C 0.48929 0.76715 0.35766 0.0
H1128 H 0.55156 0.2665 0.10998 0.0
H1129 H 0.4767 0.25652 0.14692 0.0
H1130 H 0.58032 0.3156 0.12364 0.0
H1131 H 0.50613 0.30694 0.16095 0.0
H1132 H 0.56087 0.40803 0.13547 0.0
H1133 H 0.52837 0.3558 0.14087 0.0
H1134 H 0.60254 0.34585 0.15686 0.0
H1135 H 0.63502 0.39773 0.15028 0.0
C1136 C 0.5413 0.27485 0.12125 0.0
C1137 C 0.51177 0.25794 0.12707 0.0
C1138 C 0.55798 0.30294 0.12943 0.0
C1139 C 0.54562 0.31513 0.14361 0.0
C1140 C 0.51621 0.29799 0.15011 0.0
C1141 C 0.49942 0.2693 0.1421 0.0
C1142 C 0.57004 0.39478 0.14096 0.0
C1143 C 0.60038 0.40655 0.14192 0.0
C1144 C 0.55142 0.3649 0.14419 0.0
C1145 C 0.56302 0.34667 0.14869 0.0
C1146 C 0.59309 0.35933 0.15285 0.0
C1147 C 0.61168 0.38897 0.1491 0.0
H1148 H 0.20927 0.47636 0.61109 0.0
H1149 H 0.28513 0.54352 0.64518 0.0
H1150 H 0.18393 0.50374 0.61731 0.0
H1151 H 0.25964 0.57037 0.65238 0.0
H1152 H 0.23166 0.62896 0.61474 0.0
H1153 H 0.25039 0.59684 0.62361 0.0
H1154 H 0.16353 0.52813 0.64049 0.0
H1155 H 0.14447 0.56058 0.63113 0.0
C1156 C 0.2199 0.49627 0.62091 0.0
C1157 C 0.24903 0.50803 0.62762 0.0
C1158 C 0.20546 0.51199 0.62449 0.0
C1159 C 0.22003 0.53956 0.63491 0.0
C1160 C 0.24807 0.54953 0.64384 0.0
C1161 C 0.26258 0.53409 0.63994 0.0
C1162 C 0.21652 0.60715 0.62062 0.0
C1163 C 0.18653 0.59722 0.62195 0.0
C1164 C 0.22733 0.58875 0.626 0.0
C1165 C 0.20847 0.55987 0.63284 0.0
C1166 C 0.17857 0.55023 0.63517 0.0
C1167 C 0.16771 0.56883 0.62991 0.0
H1168 H 0.73274 0.23598 0.12243 0.0
H1169 H 0.7414 0.32037 0.13359 0.0
H1170 H 0.68069 0.21281 0.12999 0.0
H1171 H 0.68972 0.29733 0.14271 0.0
H1172 H 0.59756 0.25295 0.11246 0.0
H1173 H 0.64924 0.27684 0.11936 0.0
H1174 H 0.63885 0.19909 0.15199 0.0
H1175 H 0.58673 0.17444 0.14395 0.0
C1176 C 0.7236 0.24946 0.12732 0.0
C1177 C 0.74079 0.2799 0.12701 0.0
C1178 C 0.69376 0.23621 0.13181 0.0
C1179 C 0.68075 0.25321 0.13651 0.0
C1180 C 0.69875 0.28359 0.13842 0.0
C1181 C 0.72838 0.29682 0.13335 0.0
C1182 C 0.60609 0.24095 0.12141 0.0
C1183 C 0.588 0.21152 0.12717 0.0
C1184 C 0.63591 0.25485 0.12563 0.0
C1185 C 0.64847 0.23987 0.13606 0.0
C1186 C 0.63004 0.2111 0.14346 0.0
C1187 C 0.60011 0.19701 0.13897 0.0
H1188 H 0.43495 0.73476 0.6507 0.0
H1189 H 0.50698 0.72956 0.62181 0.0
H1190 H 0.40886 0.68233 0.65713 0.0
H1191 H 0.48042 0.67679 0.62722 0.0
H1192 H 0.35627 0.59727 0.61627 0.0
H1193 H 0.38624 0.64774 0.62704 0.0
H1194 H 0.45447 0.63101 0.64876 0.0
H1195 H 0.4243 0.57996 0.63747 0.0
C1196 C 0.44556 0.72242 0.64646 0.0
C1197 C 0.47276 0.73594 0.63562 0.0
C1198 C 0.43057 0.6924 0.64993 0.0
C1199 C 0.44219 0.67529 0.64206 0.0
C1200 C 0.47084 0.68931 0.6335 0.0
C1201 C 0.48611 0.71954 0.63039 0.0
C1202 C 0.3775 0.60415 0.62359 0.0
C1203 C 0.38803 0.58466 0.62571 0.0
C1204 C 0.39462 0.63312 0.63007 0.0
C1205 C 0.4228 0.64346 0.63885 0.0
C1206 C 0.43292 0.62372 0.64195 0.0
C1207 C 0.41561 0.5945 0.63555 0.0
H1208 H 0.82977 0.43504 0.09036 0.0
H1209 H 0.82575 0.40631 0.15939 0.0
H1210 H 0.81096 0.46656 0.10229 0.0
H1211 H 0.80584 0.43739 0.17139 0.0
H1212 H 0.71909 0.44638 0.1559 0.0
H1213 H 0.75426 0.42952 0.15825 0.0
H1214 H 0.82016 0.51034 0.12875 0.0
H1215 H 0.78508 0.52749 0.12673 0.0
C1216 C 0.82541 0.43604 0.10819 0.0
C1217 C 0.82906 0.41835 0.12399 0.0
C1218 C 0.81489 0.45421 0.11506 0.0
C1219 C 0.80712 0.45451 0.13779 0.0
C1220 C 0.81191 0.43768 0.15382 0.0
C1221 C 0.82325 0.41999 0.14699 0.0
C1222 C 0.74143 0.46105 0.15085 0.0
C1223 C 0.74928 0.48807 0.14087 0.0
C1224 C 0.7616 0.45145 0.15229 0.0
C1225 C 0.78977 0.46852 0.14342 0.0
C1226 C 0.7985 0.49678 0.13563 0.0
C1227 C 0.77846 0.50662 0.13458 0.0
H1228 H 0.40286 0.77306 0.65249 0.0
H1229 H 0.40098 0.84565 0.62124 0.0
H1230 H 0.35126 0.75111 0.66188 0.0
H1231 H 0.34894 0.82292 0.62904 0.0
H1232 H 0.25306 0.77327 0.63724 0.0
H1233 H 0.3039 0.80116 0.64995 0.0
H1234 H 0.3149 0.72747 0.63441 0.0
H1235 H 0.2648 0.69994 0.62259 0.0
C1236 C 0.39143 0.78461 0.64821 0.0
C1237 C 0.40543 0.81068 0.63593 0.0
C1238 C 0.36192 0.77205 0.65343 0.0
C1239 C 0.34573 0.78475 0.64552 0.0
C1240 C 0.36064 0.8125 0.63542 0.0
C1241 C 0.39043 0.8255 0.63081 0.0
C1242 C 0.26631 0.76298 0.63714 0.0
C1243 C 0.25525 0.73472 0.62846 0.0
C1244 C 0.29538 0.77892 0.64434 0.0
C1245 C 0.3136 0.76668 0.64312 0.0
C1246 C 0.30161 0.73763 0.63599 0.0
C1247 C 0.27287 0.72189 0.6288 0.0
H1248 H 0.13471 0.4255 0.18232 0.0
H1249 H 0.11214 0.49326 0.18627 0.0
H1250 H 0.131 0.42024 0.22336 0.0
H1251 H 0.10955 0.48881 0.22742 0.0
H1252 H 0.09209 0.46379 0.3014 0.0
H1253 H 0.08552 0.46005 0.26034 0.0
H1254 H 0.16088 0.44925 0.2537 0.0
H1255 H 0.16685 0.452 0.29447 0.0
C1256 C 0.12885 0.4392 0.19198 0.0
C1257 C 0.12407 0.46004 0.18114 0.0
C1258 C 0.12684 0.43627 0.21549 0.0
C1259 C 0.12044 0.45442 0.22869 0.0
C1260 C 0.11427 0.47431 0.21775 0.0
C1261 C 0.1159 0.47697 0.19417 0.0
C1262 C 0.10709 0.46037 0.29115 0.0
C1263 C 0.13004 0.45826 0.30121 0.0
C1264 C 0.10337 0.45833 0.26763 0.0
C1265 C 0.12264 0.45431 0.25374 0.0
C1266 C 0.14526 0.45175 0.26389 0.0
C1267 C 0.14883 0.45355 0.28732 0.0
H1268 H 0.70587 0.16587 0.80035 0.0
H1269 H 0.61588 0.09677 0.80057 0.0
H1270 H 0.70675 0.16373 0.75933 0.0
H1271 H 0.61711 0.09382 0.75935 0.0
H1272 H 0.70909 0.13903 0.68724 0.0
H1273 H 0.70668 0.13552 0.72839 0.0
H1274 H 0.61864 0.12064 0.72652 0.0
H1275 H 0.62068 0.12295 0.6853 0.0
C1276 C 0.68637 0.14988 0.79166 0.0
C1277 C 0.66078 0.13151 0.80374 0.0
C1278 C 0.68693 0.14853 0.76808 0.0
C1279 C 0.66203 0.12853 0.75599 0.0
C1280 C 0.63656 0.10977 0.7681 0.0
C1281 C 0.63589 0.11135 0.79173 0.0
C1282 C 0.68916 0.13483 0.69562 0.0
C1283 C 0.66514 0.13143 0.68304 0.0
C1284 C 0.68781 0.13295 0.71922 0.0
C1285 C 0.66256 0.12806 0.73082 0.0
C1286 C 0.6383 0.12404 0.71817 0.0
C1287 C 0.63952 0.12553 0.69453 0.0
H1288 H 0.49277 0.62279 0.18602 0.0
H1289 H 0.56684 0.71009 0.18461 0.0
H1290 H 0.49585 0.62237 0.22725 0.0
H1291 H 0.57069 0.70926 0.22564 0.0
H1292 H 0.54317 0.71326 0.29791 0.0
H1293 H 0.54408 0.71178 0.25691 0.0
H1294 H 0.52319 0.62188 0.25953 0.0
H1295 H 0.52123 0.62304 0.30084 0.0
C1296 C 0.50998 0.6417 0.1945 0.0
C1297 C 0.52932 0.66661 0.18214 0.0
C1298 C 0.51188 0.6414 0.21812 0.0
C1299 C 0.53336 0.66589 0.22977 0.0
C1300 C 0.55345 0.6903 0.21724 0.0
C1301 C 0.55131 0.69074 0.19372 0.0
C1302 C 0.53899 0.6932 0.28982 0.0
C1303 C 0.53208 0.66824 0.30268 0.0
C1304 C 0.5397 0.69241 0.26625 0.0
C1305 C 0.53383 0.66674 0.25491 0.0
C1306 C 0.52745 0.64189 0.26775 0.0
C1307 C 0.52648 0.6426 0.29141 0.0
H1308 H 0.86316 0.49221 0.68829 0.0
H1309 H 0.84506 0.5632 0.68917 0.0
H1310 H 0.86457 0.49255 0.72951 0.0
H1311 H 0.84751 0.56424 0.73037 0.0
H1312 H 0.81776 0.53371 0.80271 0.0
H1313 H 0.81912 0.53544 0.76152 0.0
H1314 H 0.89155 0.51941 0.76189 0.0
H1315 H 0.88951 0.51664 0.8031 0.0
C1316 C 0.85994 0.50819 0.69727 0.0
C1317 C 0.85382 0.52756 0.68547 0.0
C1318 C 0.86086 0.50847 0.72092 0.0
C1319 C 0.856 0.52832 0.73326 0.0
C1320 C 0.85076 0.54827 0.7214 0.0
C1321 C 0.84952 0.54778 0.69778 0.0
C1322 C 0.83403 0.53063 0.79401 0.0
C1323 C 0.85347 0.52496 0.80617 0.0
C1324 C 0.83493 0.5318 0.77038 0.0
C1325 C 0.8555 0.52765 0.75839 0.0
C1326 C 0.87515 0.52227 0.77058 0.0
C1327 C 0.87405 0.5208 0.79421 0.0
H1328 H 0.36912 0.89205 0.30005 0.0
H1329 H 0.27765 0.82768 0.2946 0.0
H1330 H 0.37149 0.89883 0.25898 0.0
H1331 H 0.28027 0.83372 0.25387 0.0
H1332 H 0.2837 0.8621 0.18327 0.0
H1333 H 0.28512 0.8661 0.22437 0.0
H1334 H 0.37006 0.87318 0.22491 0.0
H1335 H 0.36908 0.8704 0.18358 0.0
C1336 C 0.34954 0.87939 0.29014 0.0
C1337 C 0.32319 0.85935 0.30065 0.0
C1338 C 0.35094 0.88319 0.26659 0.0
C1339 C 0.32605 0.86694 0.25311 0.0
C1340 C 0.29972 0.84712 0.26372 0.0
C1341 C 0.29828 0.84349 0.28715 0.0
C1342 C 0.30285 0.86493 0.19216 0.0
C1343 C 0.32613 0.86558 0.18028 0.0
C1344 C 0.30361 0.86706 0.21572 0.0
C1345 C 0.32744 0.86936 0.22799 0.0
C1346 C 0.35144 0.87159 0.216 0.0
C1347 C 0.35086 0.8699 0.19233 0.0
H1348 H 0.44696 0.28182 0.69393 0.0
H1349 H 0.46711 0.3712 0.68669 0.0
H1350 H 0.44326 0.28514 0.73455 0.0
H1351 H 0.46268 0.37423 0.72773 0.0
H1352 H 0.41716 0.28839 0.80467 0.0
H1353 H 0.41361 0.28904 0.7636 0.0
H1354 H 0.48968 0.37503 0.76179 0.0
H1355 H 0.49273 0.37473 0.8031 0.0
C1356 C 0.45026 0.30212 0.70094 0.0
C1357 C 0.45744 0.32628 0.68697 0.0
C1358 C 0.44788 0.30394 0.7243 0.0
C1359 C 0.45248 0.3299 0.73437 0.0
C1360 C 0.45919 0.35399 0.72045 0.0
C1361 C 0.4616 0.35218 0.69695 0.0
C1362 C 0.4329 0.30762 0.79554 0.0
C1363 C 0.45551 0.33133 0.80707 0.0
C1364 C 0.43091 0.30795 0.77201 0.0
C1365 C 0.4517 0.33184 0.75942 0.0
C1366 C 0.47326 0.35634 0.77102 0.0
C1367 C 0.47508 0.35613 0.79467 0.0
H1368 H 0.57465 0.86147 0.79898 0.0
H1369 H 0.50304 0.87856 0.80091 0.0
H1370 H 0.57678 0.86649 0.75792 0.0
H1371 H 0.5042 0.88225 0.75965 0.0
H1372 H 0.54161 0.83031 0.68795 0.0
H1373 H 0.54692 0.83608 0.72859 0.0
H1374 H 0.52825 0.90662 0.72531 0.0
H1375 H 0.52185 0.9001 0.68427 0.0
C1376 C 0.55947 0.86648 0.79059 0.0
C1377 C 0.53846 0.86928 0.80308 0.0
C1378 C 0.56056 0.86919 0.76705 0.0
C1379 C 0.54026 0.87416 0.75541 0.0
C1380 C 0.52028 0.8786 0.76804 0.0
C1381 C 0.51953 0.87637 0.79169 0.0
C1382 C 0.53884 0.84726 0.69577 0.0
C1383 C 0.53125 0.86472 0.68279 0.0
C1384 C 0.54214 0.85074 0.71916 0.0
C1385 C 0.53828 0.87201 0.73028 0.0
C1386 C 0.53114 0.88986 0.71731 0.0
C1387 C 0.52757 0.88619 0.69379 0.0
H1388 H 0.71135 0.54826 0.19263 0.0
H1389 H 0.62041 0.52317 0.18625 0.0
H1390 H 0.70821 0.55161 0.23331 0.0
H1391 H 0.61755 0.52756 0.22723 0.0
H1392 H 0.61702 0.4973 0.30161 0.0
H1393 H 0.61745 0.50141 0.26043 0.0
H1394 H 0.70317 0.5779 0.26361 0.0
H1395 H 0.70318 0.57298 0.30462 0.0
C1396 C 0.69077 0.54397 0.19985 0.0
C1397 C 0.66607 0.53524 0.18614 0.0
C1398 C 0.68903 0.54611 0.22326 0.0
C1399 C 0.66262 0.5399 0.23358 0.0
C1400 C 0.63812 0.53212 0.21983 0.0
C1401 C 0.6398 0.52973 0.19634 0.0
C1402 C 0.63575 0.51521 0.29349 0.0
C1403 C 0.66026 0.53453 0.30624 0.0
C1404 C 0.63595 0.51768 0.2699 0.0
C1405 C 0.66053 0.53976 0.25868 0.0
C1406 C 0.68421 0.56019 0.27166 0.0
C1407 C 0.68418 0.55746 0.29516 0.0
H1408 H 0.17603 0.71365 0.79471 0.0
H1409 H 0.10292 0.62614 0.80109 0.0
H1410 H 0.17174 0.70988 0.75379 0.0
H1411 H 0.09815 0.62271 0.75986 0.0
H1412 H 0.12296 0.61941 0.6844 0.0
H1413 H 0.12301 0.62003 0.72586 0.0
H1414 H 0.1395 0.70853 0.72471 0.0
H1415 H 0.14034 0.70821 0.68358 0.0
C1416 C 0.15886 0.69366 0.7874 0.0
C1417 C 0.13972 0.67025 0.8012 0.0
C1418 C 0.15629 0.69157 0.7639 0.0
C1419 C 0.13438 0.66611 0.75358 0.0
C1420 C 0.11536 0.64254 0.76732 0.0
C1421 C 0.11805 0.64456 0.79092 0.0
C1422 C 0.1263 0.63885 0.69307 0.0
C1423 C 0.13206 0.66389 0.68078 0.0
C1424 C 0.12624 0.63919 0.71678 0.0
C1425 C 0.13171 0.66449 0.72854 0.0
C1426 C 0.136 0.68896 0.71616 0.0
C1427 C 0.13635 0.68873 0.69257 0.0
H1428 H 0.44311 0.16601 0.30154 0.0
H1429 H 0.47331 0.1038 0.303 0.0
H1430 H 0.44355 0.16545 0.26037 0.0
H1431 H 0.47295 0.10269 0.26172 0.0
H1432 H 0.50529 0.13847 0.19023 0.0
H1433 H 0.50106 0.13488 0.23128 0.0
H1434 H 0.42017 0.13607 0.22749 0.0
H1435 H 0.42476 0.14047 0.1864 0.0
C1436 C 0.44946 0.15189 0.29311 0.0
C1437 C 0.45835 0.13508 0.30562 0.0
C1438 C 0.44955 0.15146 0.26947 0.0
C1439 C 0.45839 0.13411 0.25776 0.0
C1440 C 0.46649 0.11667 0.27024 0.0
C1441 C 0.46654 0.11719 0.29391 0.0
C1442 C 0.48652 0.13786 0.1981 0.0
C1443 C 0.46543 0.1399 0.185 0.0
C1444 C 0.484 0.13559 0.22166 0.0
C1445 C 0.46026 0.13516 0.23266 0.0
C1446 C 0.43893 0.13675 0.21954 0.0
C1447 C 0.44152 0.13917 0.19598 0.0
H1448 H 0.3698 0.49685 0.68485 0.0
H1449 H 0.28093 0.42538 0.68412 0.0
H1450 H 0.37 0.49501 0.72609 0.0
H1451 H 0.28149 0.42287 0.72528 0.0
H1452 H 0.27993 0.4544 0.79694 0.0
H1453 H 0.28081 0.45173 0.75596 0.0
H1454 H 0.36907 0.46738 0.75872 0.0
H1455 H 0.36856 0.47102 0.79992 0.0
C1456 C 0.35046 0.48046 0.69348 0.0
C1457 C 0.32524 0.46147 0.68126 0.0
C1458 C 0.35064 0.47929 0.71711 0.0
C1459 C 0.32569 0.45891 0.72897 0.0
C1460 C 0.30086 0.43921 0.71667 0.0
C1461 C 0.30058 0.44059 0.69308 0.0
C1462 C 0.29949 0.45707 0.78888 0.0
C1463 C 0.32422 0.46303 0.80171 0.0
C1464 C 0.29992 0.45535 0.76535 0.0
C1465 C 0.32499 0.45927 0.75407 0.0
C1466 C 0.34955 0.46464 0.7669 0.0
C1467 C 0.34921 0.4666 0.7905 0.0
H1468 H 0.87558 0.37737 0.18734 0.0
H1469 H 0.84788 0.28568 0.18539 0.0
H1470 H 0.87573 0.37614 0.22857 0.0
H1471 H 0.84935 0.28467 0.2266 0.0
H1472 H 0.81877 0.28452 0.2986 0.0
H1473 H 0.82231 0.28618 0.25757 0.0
H1474 H 0.89883 0.37182 0.26139 0.0
H1475 H 0.89442 0.37064 0.30258 0.0
C1476 C 0.86999 0.35706 0.19574 0.0
C1477 C 0.8615 0.33157 0.18317 0.0
C1478 C 0.87024 0.35637 0.21939 0.0
C1479 C 0.86241 0.33027 0.23096 0.0
C1480 C 0.85486 0.30501 0.21829 0.0
C1481 C 0.85416 0.30559 0.19466 0.0
C1482 C 0.83647 0.30365 0.2907 0.0
C1483 C 0.85629 0.32748 0.30381 0.0
C1484 C 0.83862 0.30454 0.26714 0.0
C1485 C 0.86092 0.3291 0.25611 0.0
C1486 C 0.8811 0.35275 0.26928 0.0
C1487 C 0.87868 0.35203 0.29289 0.0
H1488 H 0.93466 0.3178 0.13027 0.0
H1489 H 0.91845 0.327 0.05999 0.0
H1490 H 0.98479 0.33177 0.12123 0.0
H1491 H 0.9685 0.34018 0.05055 0.0
H1492 H 0.05479 0.42901 0.06719 0.0
H1493 H 0.00589 0.38867 0.06189 0.0
H1494 H 0.02693 0.33346 0.1022 0.0
H1495 H 0.07633 0.3744 0.10762 0.0
C1496 C 0.94151 0.32122 0.11269 0.0
C1497 C 0.92322 0.32175 0.09581 0.0
C1498 C 0.97018 0.32907 0.10741 0.0
C1499 C 0.98079 0.33777 0.08521 0.0
C1500 C 0.96103 0.33407 0.06784 0.0
C1501 C 0.93244 0.32648 0.07318 0.0
C1502 C 0.04925 0.40804 0.07436 0.0
C1503 C 0.06896 0.405 0.08835 0.0
C1504 C 0.02128 0.38469 0.07107 0.0
C1505 C 0.01237 0.3579 0.08193 0.0
C1506 C 0.03314 0.35395 0.09384 0.0
C1507 C 0.06136 0.37736 0.09695 0.0
H1508 H 0.62008 0.91557 0.61019 0.0
H1509 H 0.56455 0.93258 0.56684 0.0
H1510 H 0.65989 0.96543 0.60419 0.0
H1511 H 0.60342 0.98194 0.56124 0.0
H1512 H 0.66237 0.07119 0.55994 0.0
H1513 H 0.64938 0.0211 0.551 0.0
H1514 H 0.66138 0.00702 0.62155 0.0
H1515 H 0.67589 0.05742 0.62987 0.0
C1516 C 0.61673 0.92966 0.59879 0.0
C1517 C 0.58911 0.92073 0.58954 0.0
C1518 C 0.63944 0.95819 0.59541 0.0
C1519 C 0.63468 0.97793 0.5827 0.0
C1520 C 0.60809 0.96753 0.57112 0.0
C1521 C 0.58553 0.93924 0.57457 0.0
C1522 C 0.66326 0.0575 0.57321 0.0
C1523 C 0.6695 0.0675 0.59558 0.0
C1524 C 0.65586 0.02893 0.56817 0.0
C1525 C 0.65355 0.0098 0.58565 0.0
C1526 C 0.66301 0.02105 0.6076 0.0
C1527 C 0.67101 0.04982 0.6125 0.0
H1528 H 0.69826 0.62015 0.10936 0.0
H1529 H 0.62245 0.55778 0.07193 0.0
H1530 H 0.68516 0.65755 0.10189 0.0
H1531 H 0.60884 0.5942 0.06525 0.0
H1532 H 0.57699 0.65205 0.05938 0.0
H1533 H 0.61282 0.63711 0.05127 0.0
H1534 H 0.64748 0.66261 0.11914 0.0
H1535 H 0.613 0.67936 0.12634 0.0
C1536 C 0.67923 0.61462 0.09909 0.0
C1537 C 0.66086 0.58587 0.09181 0.0
C1538 C 0.67166 0.63598 0.09489 0.0
C1539 C 0.64563 0.62883 0.08338 0.0
C1540 C 0.62913 0.60079 0.07407 0.0
C1541 C 0.6367 0.57961 0.0782 0.0
C1542 C 0.59314 0.65544 0.07212 0.0
C1543 C 0.59226 0.66631 0.09353 0.0
C1544 C 0.61354 0.64681 0.06758 0.0
C1545 C 0.63243 0.64776 0.08478 0.0
C1546 C 0.6334 0.66158 0.10542 0.0
C1547 C 0.6135 0.67097 0.1097 0.0
H1548 H 0.06124 0.67945 0.62817 0.0
H1549 H 0.06786 0.65687 0.55912 0.0
H1550 H 0.01037 0.66516 0.62203 0.0
H1551 H 0.01743 0.64438 0.5522 0.0
H1552 H 0.9169 0.62402 0.61389 0.0
H1553 H 0.96725 0.66195 0.60606 0.0
H1554 H 0.97919 0.60027 0.56608 0.0
H1555 H 0.92951 0.56338 0.57338 0.0
C1556 C 0.052 0.67268 0.61137 0.0
C1557 C 0.06776 0.66845 0.59423 0.0
C1558 C 0.02296 0.66477 0.60771 0.0
C1559 C 0.00957 0.65283 0.58676 0.0
C1560 C 0.02689 0.65268 0.56872 0.0
C1561 C 0.05567 0.65982 0.57259 0.0
C1562 C 0.93021 0.61906 0.60288 0.0
C1563 C 0.9198 0.59066 0.5948 0.0
C1564 C 0.95897 0.64069 0.59842 0.0
C1565 C 0.97745 0.63409 0.58575 0.0
C1566 C 0.96575 0.60642 0.57576 0.0
C1567 C 0.93729 0.58498 0.58027 0.0
H1568 H 0.36942 0.07356 0.10407 0.0
H1569 H 0.43921 0.05857 0.0838 0.0
H1570 H 0.33369 0.0234 0.09316 0.0
H1571 H 0.4044 0.00933 0.07346 0.0
H1572 H 0.34908 0.92355 0.05717 0.0
H1573 H 0.36588 0.97493 0.05033 0.0
H1574 H 0.32209 0.97759 0.11139 0.0
H1575 H 0.30377 0.92584 0.11721 0.0
C1576 C 0.37703 0.05972 0.09697 0.0
C1577 C 0.40698 0.06953 0.09534 0.0
C1578 C 0.35668 0.03114 0.0907 0.0
C1579 C 0.36615 0.01235 0.08243 0.0
C1580 C 0.39613 0.02317 0.07937 0.0
C1581 C 0.41624 0.05134 0.08576 0.0
C1582 C 0.34216 0.93498 0.06854 0.0
C1583 C 0.32593 0.92128 0.08801 0.0
C1584 C 0.3517 0.9643 0.06467 0.0
C1585 C 0.34623 0.98053 0.0808 0.0
C1586 C 0.32681 0.9658 0.09868 0.0
C1587 C 0.31651 0.9362 0.10216 0.0
H1588 H 0.37588 0.30586 0.63008 0.0
H1589 H 0.40733 0.32696 0.56137 0.0
H1590 H 0.34043 0.32126 0.62243 0.0
H1591 H 0.37061 0.34063 0.55306 0.0
H1592 H 0.36828 0.42465 0.57281 0.0
H1593 H 0.37938 0.38621 0.56716 0.0
H1594 H 0.30209 0.32667 0.60475 0.0
H1595 H 0.29121 0.36601 0.61077 0.0
C1596 C 0.374 0.31225 0.61298 0.0
C1597 C 0.39452 0.31598 0.59641 0.0
C1598 C 0.35357 0.32094 0.6085 0.0
C1599 C 0.35339 0.33311 0.58731 0.0
C1600 C 0.37087 0.33219 0.56975 0.0
C1601 C 0.39178 0.32429 0.57442 0.0
C1602 C 0.35331 0.40323 0.57951 0.0
C1603 C 0.32936 0.39847 0.59274 0.0
C1604 C 0.35938 0.38092 0.57595 0.0
C1605 C 0.3417 0.35328 0.58564 0.0
C1606 C 0.31625 0.3478 0.59726 0.0
C1607 C 0.31003 0.37026 0.60068 0.0
H1608 H 0.57922 0.91801 0.92961 0.0
H1609 H 0.61758 0.92706 0.86352 0.0
H1610 H 0.6141 0.96892 0.93782 0.0
H1611 H 0.65094 0.97839 0.87077 0.0
H1612 H 0.61659 0.05365 0.91418 0.0
H1613 H 0.6066 0.00499 0.92199 0.0
H1614 H 0.68617 0.02319 0.88764 0.0
H1615 H 0.69575 0.07253 0.87922 0.0
C1616 C 0.59575 0.93081 0.91714 0.0
C1617 C 0.59555 0.91913 0.89582 0.0
C1618 C 0.61563 0.95994 0.92173 0.0
C1619 C 0.63449 0.97807 0.90461 0.0
C1620 C 0.6367 0.96524 0.88437 0.0
C1621 C 0.61743 0.93582 0.88008 0.0
C1622 C 0.63227 0.04749 0.90863 0.0
C1623 C 0.65645 0.06647 0.89551 0.0
C1624 C 0.62683 0.0196 0.91346 0.0
C1625 C 0.64543 0.00989 0.90524 0.0
C1626 C 0.6712 0.02987 0.89392 0.0
C1627 C 0.67673 0.05808 0.88914 0.0
H1628 H 0.58129 0.65966 0.4281 0.0
H1629 H 0.61703 0.68097 0.3606 0.0
H1630 H 0.61754 0.64607 0.4386 0.0
H1631 H 0.65211 0.66581 0.37036 0.0
H1632 H 0.7001 0.62219 0.38283 0.0
H1633 H 0.68959 0.6615 0.38968 0.0
H1634 H 0.61145 0.60118 0.42604 0.0
H1635 H 0.62234 0.56273 0.41974 0.0
C1636 C 0.59757 0.6622 0.41578 0.0
C1637 C 0.59639 0.67072 0.39352 0.0
C1638 C 0.61825 0.65444 0.42171 0.0
C1639 C 0.63709 0.65394 0.40514 0.0
C1640 C 0.63801 0.66591 0.38361 0.0
C1641 C 0.61775 0.67434 0.37786 0.0
C1642 C 0.68125 0.61774 0.39294 0.0
C1643 C 0.66144 0.58927 0.40009 0.0
C1644 C 0.67522 0.6402 0.39684 0.0
C1645 C 0.64936 0.6344 0.40794 0.0
C1646 C 0.63162 0.60667 0.41746 0.0
C1647 C 0.63759 0.58435 0.41354 0.0
H1648 H 0.91949 0.62471 0.86866 0.0
H1649 H 0.94025 0.57344 0.91375 0.0
H1650 H 0.96943 0.66568 0.87262 0.0
H1651 H 0.98944 0.61356 0.91765 0.0
H1652 H 0.06404 0.68291 0.84949 0.0
H1653 H 0.01297 0.66759 0.85621 0.0
H1654 H 0.02568 0.66223 0.92812 0.0
H1655 H 0.07647 0.67618 0.92099 0.0
C1656 C 0.93449 0.62257 0.87991 0.0
C1657 C 0.9265 0.59588 0.89048 0.0
C1658 C 0.96297 0.64592 0.88218 0.0
C1659 C 0.98347 0.64283 0.8953 0.0
C1660 C 0.97427 0.61696 0.90761 0.0
C1661 C 0.94615 0.59371 0.90512 0.0
C1662 C 0.05605 0.67958 0.86677 0.0
C1663 C 0.07357 0.68008 0.88472 0.0
C1664 C 0.02689 0.67104 0.8707 0.0
C1665 C 0.01514 0.663 0.89266 0.0
C1666 C 0.03403 0.66768 0.91097 0.0
C1667 C 0.063 0.67566 0.90696 0.0
H1668 H 0.3635 0.92897 0.41438 0.0
H1669 H 0.28897 0.91589 0.37519 0.0
H1670 H 0.3763 0.97862 0.42159 0.0
H1671 H 0.30128 0.96607 0.38311 0.0
H1672 H 0.37486 0.06037 0.36027 0.0
H1673 H 0.33975 0.00921 0.36676 0.0
H1674 H 0.37121 0.01695 0.4356 0.0
H1675 H 0.40773 0.06771 0.42824 0.0
C1676 C 0.34937 0.93659 0.40779 0.0
C1677 C 0.32584 0.91895 0.39359 0.0
C1678 C 0.35643 0.96507 0.41225 0.0
C1679 C 0.34008 0.97663 0.40262 0.0
C1680 C 0.31463 0.95797 0.39041 0.0
C1681 C 0.30752 0.92925 0.38593 0.0
C1682 C 0.37352 0.05119 0.37695 0.0
C1683 C 0.3941 0.06733 0.39363 0.0
C1684 C 0.35324 0.02195 0.38082 0.0
C1685 C 0.35317 0.00872 0.40155 0.0
C1686 C 0.37131 0.02627 0.41922 0.0
C1687 C 0.39212 0.05525 0.41511 0.0
H1688 H 0.31287 0.37976 0.85961 0.0
H1689 H 0.33516 0.41585 0.92693 0.0
H1690 H 0.32763 0.34436 0.86937 0.0
H1691 H 0.34831 0.37931 0.93744 0.0
H1692 H 0.42924 0.3697 0.92036 0.0
H1693 H 0.3924 0.38323 0.92538 0.0
H1694 H 0.33037 0.30619 0.88884 0.0
H1695 H 0.36807 0.29305 0.88322 0.0
C1696 C 0.31963 0.37907 0.87684 0.0
C1697 C 0.32352 0.40056 0.89246 0.0
C1698 C 0.32788 0.35866 0.88257 0.0
C1699 C 0.33989 0.35947 0.90407 0.0
C1700 C 0.33991 0.37864 0.92056 0.0
C1701 C 0.33233 0.39945 0.91464 0.0
C1702 C 0.40755 0.35524 0.91386 0.0
C1703 C 0.40178 0.33088 0.90076 0.0
C1704 C 0.38615 0.36276 0.91702 0.0
C1705 C 0.35846 0.34607 0.90711 0.0
C1706 C 0.35167 0.31979 0.89628 0.0
C1707 C 0.37321 0.31221 0.89314 0.0
H1708 H 0.93473 0.37001 0.41411 0.0
H1709 H 0.9177 0.2943 0.37496 0.0
H1710 H 0.98437 0.38158 0.41986 0.0
H1711 H 0.96799 0.30548 0.38126 0.0
H1712 H 0.063 0.37767 0.3573 0.0
H1713 H 0.01172 0.3433 0.36438 0.0
H1714 H 0.02178 0.37427 0.43348 0.0
H1715 H 0.07261 0.41005 0.42561 0.0
C1716 C 0.94151 0.35539 0.40719 0.0
C1717 C 0.92267 0.33176 0.39355 0.0
C1718 C 0.96999 0.36175 0.4108 0.0
C1719 C 0.98042 0.34462 0.40082 0.0
C1720 C 0.96073 0.31932 0.38891 0.0
C1721 C 0.93196 0.31287 0.38535 0.0
C1722 C 0.05436 0.37628 0.37419 0.0
C1723 C 0.07119 0.39665 0.39081 0.0
C1724 C 0.02501 0.35645 0.37837 0.0
C1725 C 0.01239 0.35664 0.39933 0.0
C1726 C 0.03063 0.37424 0.41693 0.0
C1727 C 0.0597 0.3946 0.41253 0.0
H1728 H 0.29959 0.4693 0.96046 0.0
H1729 H 0.21542 0.43901 0.92959 0.0
H1730 H 0.27779 0.46211 -0.00199 0.0
H1731 H 0.19349 0.43263 0.96738 0.0
H1732 H 0.16588 0.42272 0.04333 0.0
H1733 H 0.18394 0.4108 0.00884 0.0
H1734 H 0.26033 0.49655 0.01012 0.0
H1735 H 0.24256 0.50836 0.04396 0.0
C1736 C 0.27623 0.46029 0.96185 0.0
C1737 C 0.25908 0.45507 0.94244 0.0
C1738 C 0.26379 0.45616 0.98324 0.0
C1739 C 0.23415 0.44739 0.98546 0.0
C1740 C 0.21639 0.43933 0.96604 0.0
C1741 C 0.22887 0.44309 0.94451 0.0
C1742 C 0.18666 0.43877 0.03627 0.0
C1743 C 0.20277 0.46652 0.04614 0.0
C1744 C 0.1969 0.43197 0.01663 0.0
C1745 C 0.22362 0.45263 0.00708 0.0
C1746 C 0.23991 0.48 0.01738 0.0
C1747 C 0.22957 0.4869 0.03662 0.0
H1748 H 0.8127 0.29313 0.46605 0.0
H1749 H 0.79312 0.21639 0.42731 0.0
H1750 H 0.80178 0.26518 0.50102 0.0
H1751 H 0.7814 0.188 0.46258 0.0
H1752 H 0.70795 0.16102 0.52252 0.0
H1753 H 0.73637 0.17869 0.48774 0.0
H1754 H 0.81372 0.23233 0.52721 0.0
H1755 H 0.78515 0.21391 0.56222 0.0
C1756 C 0.8065 0.27034 0.46512 0.0
C1757 C 0.80319 0.25668 0.4441 0.0
C1758 C 0.80069 0.25446 0.48512 0.0
C1759 C 0.7909 0.2245 0.48443 0.0
C1760 C 0.78914 0.21114 0.46347 0.0
C1761 C 0.79566 0.22727 0.44339 0.0
C1762 C 0.73128 0.17564 0.52372 0.0
C1763 C 0.74449 0.18644 0.54481 0.0
C1764 C 0.74757 0.18557 0.50388 0.0
C1765 C 0.77714 0.20698 0.50488 0.0
C1766 C 0.79093 0.21575 0.52611 0.0
C1767 C 0.77468 0.20527 0.54605 0.0
H1768 H 0.55186 0.78142 0.05295 0.0
H1769 H 0.54462 0.70181 0.02758 0.0
H1770 H 0.56036 0.80104 0.01425 0.0
H1771 H 0.55348 0.72135 0.98905 0.0
H1772 H 0.5777 0.82825 0.93981 0.0
H1773 H 0.58973 0.81431 0.97624 0.0
H1774 H 0.51468 0.72825 0.96942 0.0
H1775 H 0.50257 0.74215 0.93352 0.0
C1776 C 0.55344 0.76877 0.03918 0.0
C1777 C 0.54762 0.74027 0.04291 0.0
C1778 C 0.55835 0.77992 0.01712 0.0
C1779 C 0.55723 0.7625 -0.00126 0.0
C1780 C 0.55422 0.73507 0.00295 0.0
C1781 C 0.54925 0.72396 0.0249 0.0
C1782 C 0.56422 0.8062 0.94597 0.0
C1783 C 0.5391 0.78627 0.93405 0.0
C1784 C 0.57105 0.79832 0.96675 0.0
C1785 C 0.55323 0.77022 0.9755 0.0
C1786 C 0.52905 0.74993 0.9629 0.0
C1787 C 0.52194 0.75794 0.94246 0.0
H1788 H 0.76532 0.55471 0.55672 0.0
H1789 H 0.83583 0.54493 0.53028 0.0
H1790 H 0.75368 0.56325 0.51821 0.0
H1791 H 0.8247 0.55392 0.49193 0.0
H1792 H 0.74962 0.50101 0.43916 0.0
H1793 H 0.77767 0.5147 0.47407 0.0
H1794 H 0.76874 0.59115 0.47931 0.0
H1795 H 0.74071 0.5775 0.44375 0.0
C1796 C 0.77908 0.55577 0.54274 0.0
C1797 C 0.80126 0.5491 0.54611 0.0
C1798 C 0.77257 0.56075 0.52079 0.0
C1799 C 0.78815 0.55888 0.50218 0.0
C1800 C 0.8123 0.55525 0.50602 0.0
C1801 C 0.81867 0.55017 0.52786 0.0
C1802 C 0.7541 0.52102 0.44753 0.0
C1803 C 0.7429 0.5381 0.43898 0.0
C1804 C 0.7704 0.52904 0.46737 0.0
C1805 C 0.77548 0.55409 0.47926 0.0
C1806 C 0.76518 0.57183 0.47032 0.0
C1807 C 0.74926 0.56406 0.45008 0.0
H1808 H 0.22899 0.78815 0.92983 0.0
H1809 H 0.14846 0.71515 0.95327 0.0
H1810 H 0.2393 0.80831 0.96828 0.0
H1811 H 0.15853 0.73521 0.99164 0.0
H1812 H 0.22743 0.74589 0.04822 0.0
H1813 H 0.20149 0.73503 0.01228 0.0
H1814 H 0.22399 0.82504 0.00574 0.0
H1815 H 0.24965 0.83587 0.04229 0.0
C1816 C 0.21287 0.77731 0.94301 0.0
C1817 C 0.18803 0.75028 0.9389 0.0
C1818 C 0.21867 0.78878 0.96495 0.0
C1819 C 0.1998 0.77306 0.98286 0.0
C1820 C 0.17341 0.74761 0.97809 0.0
C1821 C 0.16762 0.73622 0.95622 0.0
C1822 C 0.22627 0.7632 0.03935 0.0
C1823 C 0.24061 0.79169 0.04782 0.0
C1824 C 0.21122 0.75697 0.01893 0.0
C1825 C 0.21066 0.77922 0.00637 0.0
C1826 C 0.22402 0.80756 0.01524 0.0
C1827 C 0.2386 0.81368 0.03605 0.0
H1828 H 0.49801 0.24698 0.55234 0.0
H1829 H 0.41608 0.24624 0.55049 0.0
H1830 H 0.48502 0.21853 0.51771 0.0
H1831 H 0.40302 0.21758 0.51536 0.0
H1832 H 0.43121 0.21678 0.43644 0.0
H1833 H 0.42585 0.23086 0.47501 0.0
H1834 H 0.44866 0.16927 0.50242 0.0
H1835 H 0.45461 0.15588 0.46404 0.0
C1836 C 0.47705 0.24043 0.54463 0.0
C1837 C 0.45813 0.24893 0.55399 0.0
C1838 C 0.46946 0.22388 0.52492 0.0
C1839 C 0.4429 0.21569 0.51398 0.0
C1840 C 0.42357 0.22358 0.52356 0.0
C1841 C 0.43101 0.23984 0.54362 0.0
C1842 C 0.43385 0.20552 0.45078 0.0
C1843 C 0.44344 0.18548 0.44757 0.0
C1844 C 0.43077 0.21349 0.47279 0.0
C1845 C 0.43732 0.20143 0.4916 0.0
C1846 C 0.44387 0.17912 0.48818 0.0
C1847 C 0.44715 0.17139 0.4663 0.0
H1848 H 0.7504 0.49812 0.05292 0.0
H1849 H 0.74336 0.5757 0.04771 0.0
H1850 H 0.78027 0.51221 0.01904 0.0
H1851 H 0.77351 0.58986 0.01326 0.0
H1852 H 0.78047 0.55923 0.93581 0.0
H1853 H 0.7642 0.5658 0.97314 0.0
H1854 H 0.8294 0.55151 0.0051 0.0
H1855 H 0.84494 0.54419 0.96797 0.0
C1856 C 0.75542 0.51832 0.04459 0.0
C1857 C 0.74441 0.53571 0.05284 0.0
C1858 C 0.77284 0.52659 0.02533 0.0
C1859 C 0.77947 0.55232 0.01372 0.0
C1860 C 0.76881 0.57002 0.02204 0.0
C1861 C 0.75165 0.56193 0.04167 0.0
C1862 C 0.7921 0.55887 0.95081 0.0
C1863 C 0.81362 0.55092 0.94928 0.0
C1864 C 0.78284 0.56262 0.97213 0.0
C1865 C 0.79519 0.55851 0.99192 0.0
C1866 C 0.81925 0.5543 0.99007 0.0
C1867 C 0.82821 0.55024 0.9689 0.0
H1868 H 0.22337 0.77924 0.55285 0.0
H1869 H 0.14774 0.70333 0.52632 0.0
H1870 H 0.23456 0.80092 0.51485 0.0
H1871 H 0.15834 0.72507 0.4885 0.0
H1872 H 0.22913 0.74285 0.43291 0.0
H1873 H 0.20186 0.7291 0.46815 0.0
H1874 H 0.22115 0.81781 0.4777 0.0
H1875 H 0.24845 0.83158 0.44178 0.0
C1876 C 0.20848 0.76791 0.53903 0.0
C1877 C 0.18493 0.73972 0.54214 0.0
C1878 C 0.21473 0.78028 0.51737 0.0
C1879 C 0.19747 0.76442 0.49877 0.0
C1880 C 0.17209 0.73757 0.50255 0.0
C1881 C 0.16603 0.72517 0.52409 0.0
C1882 C 0.22702 0.75928 0.44228 0.0
C1883 C 0.24099 0.78824 0.43488 0.0
C1884 C 0.21116 0.75139 0.46233 0.0
C1885 C 0.20931 0.77241 0.47558 0.0
C1886 C 0.22223 0.80124 0.4677 0.0
C1887 C 0.23771 0.80906 0.44724 0.0
H1888 H 0.44584 0.14692 0.02428 0.0
H1889 H 0.42956 0.21161 0.05434 0.0
H1890 H 0.43632 0.15961 0.98675 0.0
H1891 H 0.4209 0.22508 0.01661 0.0
H1892 H 0.48784 0.23742 0.93706 0.0
H1893 H 0.47397 0.20745 0.97085 0.0
H1894 H 0.39642 0.21445 0.9772 0.0
H1895 H 0.41043 0.24473 0.9428 0.0
C1896 C 0.43919 0.16315 0.02285 0.0
C1897 C 0.43891 0.17872 0.04196 0.0
C1898 C 0.43379 0.17044 0.00143 0.0
C1899 C 0.42864 0.19381 -0.0012 0.0
C1900 C 0.42482 0.20696 0.01819 0.0
C1901 C 0.42983 0.19933 0.03976 0.0
C1902 C 0.46762 0.23227 0.94545 0.0
C1903 C 0.45035 0.24357 0.93749 0.0
C1904 C 0.45946 0.21479 0.96466 0.0
C1905 C 0.43396 0.20841 0.97654 0.0
C1906 C 0.41611 0.21898 0.96825 0.0
C1907 C 0.42409 0.2362 0.94865 0.0
H1908 H 0.24559 0.48897 0.4355 0.0
H1909 H 0.16072 0.41184 0.44078 0.0
H1910 H 0.2611 0.47518 0.4697 0.0
H1911 H 0.17633 0.39796 0.47566 0.0
H1912 H 0.2114 0.43253 0.55294 0.0
H1913 H 0.18987 0.42397 0.51492 0.0
H1914 H 0.27053 0.43693 0.48621 0.0
H1915 H 0.29209 0.44628 0.52404 0.0
C1916 C 0.23038 0.46882 0.4439 0.0
C1917 C 0.20193 0.45159 0.43573 0.0
C1918 C 0.23935 0.46072 0.46333 0.0
C1919 C 0.21995 0.43536 0.4752 0.0
C1920 C 0.19167 0.41752 0.46669 0.0
C1921 C 0.18281 0.42543 0.44684 0.0
C1922 C 0.22395 0.4323 0.53851 0.0
C1923 C 0.25329 0.44027 0.54106 0.0
C1924 C 0.21167 0.4273 0.51683 0.0
C1925 C 0.22877 0.43026 0.49769 0.0
C1926 C 0.25707 0.43486 0.5007 0.0
C1927 C 0.26936 0.44016 0.52225 0.0
H1928 H 0.81915 0.3001 0.01904 0.0
H1929 H 0.78029 0.22337 0.06138 0.0
H1930 H 0.79961 0.26966 0.98536 0.0
H1931 H 0.75991 0.19279 0.02751 0.0
H1932 H 0.69088 0.17782 0.96658 0.0
H1933 H 0.71986 0.196 0.00113 0.0
H1934 H 0.79862 0.2253 0.96213 0.0
H1935 H 0.7694 0.20623 0.92745 0.0
C1936 C 0.80687 0.27665 0.02103 0.0
C1937 C 0.80091 0.26398 0.04269 0.0
C1938 C 0.79596 0.25926 0.0018 0.0
C1939 C 0.77838 0.22897 0.00394 0.0
C1940 C 0.77359 0.21613 0.02552 0.0
C1941 C 0.78517 0.23354 0.0448 0.0
C1942 C 0.71434 0.18741 0.96552 0.0
C1943 C 0.72805 0.19095 0.94447 0.0
C1944 C 0.73086 0.19755 0.98526 0.0
C1945 C 0.76138 0.21197 0.98418 0.0
C1946 C 0.77507 0.21408 0.9633 0.0
C1947 C 0.75843 0.20324 0.94356 0.0
H1948 H 0.53312 0.7031 0.46294 0.0
H1949 H 0.55836 0.78224 0.42564 0.0
H1950 H 0.54144 0.7294 0.49862 0.0
H1951 H 0.56594 0.8086 0.46152 0.0
H1952 H 0.50401 0.80563 0.52333 0.0
H1953 H 0.51923 0.79378 0.48783 0.0
H1954 H 0.5785 0.77492 0.52445 0.0
H1955 H 0.56375 0.78762 0.56021 0.0
C1956 C 0.54143 0.72638 0.4625 0.0
C1957 C 0.54503 0.74081 0.4418 0.0
C1958 C 0.54636 0.74143 0.48284 0.0
C1959 C 0.55422 0.77091 0.48268 0.0
C1960 C 0.56 0.78587 0.46194 0.0
C1961 C 0.55571 0.77089 0.44152 0.0
C1962 C 0.5206 0.79937 0.52376 0.0
C1963 C 0.53243 0.79705 0.54441 0.0
C1964 C 0.52961 0.79303 0.50346 0.0
C1965 C 0.55018 0.78372 0.50352 0.0
C1966 C 0.56281 0.78235 0.52408 0.0
C1967 C 0.55428 0.78941 0.54443 0.0
loop_
_geom_bond_atom_site_label_1
_geom_bond_atom_site_label_2
_geom_bond_distance
_geom_bond_site_symmetry_2
_ccdc_geom_bond_type
Sc0 O3 2.025 . S
Sc0 O10 2.105 . S
Sc0 O13 2.105 . S
Sc0 O16 2.105 . S
Sc0 O19 2.105 . S
Sc1 O3 2.025 . S
Sc1 O11 2.105 . S
Sc1 O15 2.105 . S
Sc1 O17 2.105 . S
Sc1 O21 2.105 . S
Sc2 O3 2.025 . S
Sc2 O12 2.105 . S
Sc2 O14 2.105 . S
Sc2 O18 2.105 . S
Sc2 O20 2.105 . S
O3 Sc0 2.025 . S
O3 Sc1 2.025 . S
O3 Sc2 2.025 . S
C4 O10 1.268 . S
C4 O20 1.268 . S
C5 O11 1.268 . S
C5 O19 1.268 . S
C6 O12 1.268 . S
C6 O21 1.268 . S
C7 O13 1.268 . S
C7 O17 1.268 . S
C8 O14 1.268 . S
C8 O16 1.268 . S
C9 O15 1.268 . S
C9 O18 1.268 . S
O10 Sc0 2.105 . S
O10 C4 1.268 . S
O11 Sc1 2.105 . S
O11 C5 1.268 . S
O12 Sc2 2.105 . S
O12 C6 1.268 . S
O13 Sc0 2.105 . S
O13 C7 1.268 . S
O14 Sc2 2.105 . S
O14 C8 1.268 . S
O15 Sc1 2.105 . S
O15 C9 1.268 . S
O16 Sc0 2.105 . S
O16 C8 1.268 . S
O17 Sc1 2.105 . S
O17 C7 1.268 . S
O18 Sc2 2.105 . S
O18 C9 1.268 . S
O19 Sc0 2.105 . S
O19 C5 1.268 . S
O20 Sc2 2.105 . S
O20 C4 1.268 . S
O21 Sc1 2.105 . S
O21 C6 1.268 . S
Sc22 O25 2.025 . S
Sc22 O32 2.105 . S
Sc22 O35 2.105 . S
Sc22 O38 2.105 . S
Sc22 O41 2.105 . S
Sc23 O25 2.025 . S
Sc23 O33 2.105 . S
Sc23 O37 2.105 . S
Sc23 O39 2.105 . S
Sc23 O43 2.105 . S
Sc24 O25 2.025 . S
Sc24 O34 2.105 . S
Sc24 O36 2.105 . S
Sc24 O40 2.105 . S
Sc24 O42 2.105 . S
O25 Sc22 2.025 . S
O25 Sc23 2.025 . S
O25 Sc24 2.025 . S
C26 O32 1.268 . S
C26 O42 1.268 . S
C27 O33 1.268 . S
C27 O41 1.268 . S
C28 O34 1.268 . S
C28 O43 1.268 . S
C29 O35 1.268 . S
C29 O39 1.268 . S
C30 O36 1.268 . S
C30 O38 1.268 . S
C31 O37 1.268 . S
C31 O40 1.268 . S
O32 Sc22 2.105 . S
O32 C26 1.268 . S
O33 Sc23 2.105 . S
O33 C27 1.268 . S
O34 Sc24 2.105 . S
O34 C28 1.268 . S
O35 Sc22 2.105 . S
O35 C29 1.268 . S
O36 Sc24 2.105 . S
O36 C30 1.268 . S
O37 Sc23 2.105 . S
O37 C31 1.268 . S
O38 Sc22 2.105 . S
O38 C30 1.268 . S
O39 Sc23 2.105 . S
O39 C29 1.268 . S
O40 Sc24 2.105 . S
O40 C31 1.268 . S
O41 Sc22 2.105 . S
O41 C27 1.268 . S
O42 Sc24 2.105 . S
O42 C26 1.268 . S
O43 Sc23 2.105 . S
O43 C28 1.268 . S
Sc44 O47 2.025 . S
Sc44 O54 2.105 . S
Sc44 O57 2.105 . S
Sc44 O60 2.105 . S
Sc44 O63 2.105 . S
Sc45 O47 2.025 . S
Sc45 O55 2.105 . S
Sc45 O59 2.105 . S
Sc45 O61 2.105 . S
Sc45 O65 2.105 . S
Sc46 O47 2.025 . S
Sc46 O56 2.105 . S
Sc46 O58 2.105 . S
Sc46 O62 2.105 . S
Sc46 O64 2.105 . S
O47 Sc44 2.025 . S
O47 Sc45 2.025 . S
O47 Sc46 2.025 . S
C48 O54 1.268 . S
C48 O64 1.268 . S
C49 O55 1.268 . S
C49 O63 1.268 . S
C50 O56 1.268 . S
C50 O65 1.268 . S
C51 O57 1.268 . S
C51 O61 1.268 . S
C52 O58 1.268 . S
C52 O60 1.268 . S
C53 O59 1.268 . S
C53 O62 1.268 . S
O54 Sc44 2.105 . S
O54 C48 1.268 . S
O55 Sc45 2.105 . S
O55 C49 1.268 . S
O56 Sc46 2.105 . S
O56 C50 1.268 . S
O57 Sc44 2.105 . S
O57 C51 1.268 . S
O58 Sc46 2.105 . S
O58 C52 1.268 . S
O59 Sc45 2.105 . S
O59 C53 1.268 . S
O60 Sc44 2.105 . S
O60 C52 1.268 . S
O61 Sc45 2.105 . S
O61 C51 1.268 . S
O62 Sc46 2.105 . S
O62 C53 1.268 . S
O63 Sc44 2.105 . S
O63 C49 1.268 . S
O64 Sc46 2.105 . S
O64 C48 1.268 . S
O65 Sc45 2.105 . S
O65 C50 1.268 . S
Sc66 O69 2.025 . S
Sc66 O76 2.105 . S
Sc66 O79 2.105 . S
Sc66 O82 2.105 . S
Sc66 O85 2.105 . S
Sc67 O69 2.025 . S
Sc67 O77 2.105 . S
Sc67 O81 2.105 . S
Sc67 O83 2.105 . S
Sc67 O87 2.105 . S
Sc68 O69 2.025 . S
Sc68 O78 2.105 . S
Sc68 O80 2.105 . S
Sc68 O84 2.105 . S
Sc68 O86 2.105 . S
O69 Sc66 2.025 . S
O69 Sc67 2.025 . S
O69 Sc68 2.025 . S
C70 O76 1.268 . S
C70 O86 1.268 . S
C71 O77 1.268 . S
C71 O85 1.268 . S
C72 O78 1.268 . S
C72 O87 1.268 . S
C73 O79 1.268 . S
C73 O83 1.268 . S
C74 O80 1.268 . S
C74 O82 1.268 . S
C75 O81 1.268 . S
C75 O84 1.268 . S
O76 Sc66 2.105 . S
O76 C70 1.268 . S
O77 Sc67 2.105 . S
O77 C71 1.268 . S
O78 Sc68 2.105 . S
O78 C72 1.268 . S
O79 Sc66 2.105 . S
O79 C73 1.268 . S
O80 Sc68 2.105 . S
O80 C74 1.268 . S
O81 Sc67 2.105 . S
O81 C75 1.268 . S
O82 Sc66 2.105 . S
O82 C74 1.268 . S
O83 Sc67 2.105 . S
O83 C73 1.268 . S
O84 Sc68 2.105 . S
O84 C75 1.268 . S
O85 Sc66 2.105 . S
O85 C71 1.268 . S
O86 Sc68 2.105 . S
O86 C70 1.268 . S
O87 Sc67 2.105 . S
O87 C72 1.268 . S
Sc88 O91 2.025 . S
Sc88 O98 2.105 . S
Sc88 O101 2.105 . S
Sc88 O104 2.105 . S
Sc88 O107 2.105 . S
Sc89 O91 2.025 . S
Sc89 O99 2.105 . S
Sc89 O103 2.105 . S
Sc89 O105 2.105 . S
Sc89 O109 2.105 . S
Sc90 O91 2.025 . S
Sc90 O100 2.105 . S
Sc90 O102 2.105 . S
Sc90 O106 2.105 . S
Sc90 O108 2.105 . S
O91 Sc88 2.025 . S
O91 Sc89 2.025 . S
O91 Sc90 2.025 . S
C92 O98 1.268 . S
C92 O108 1.268 . S
C93 O99 1.268 . S
C93 O107 1.268 . S
C94 O100 1.268 . S
C94 O109 1.268 . S
C95 O101 1.268 . S
C95 O105 1.268 . S
C96 O102 1.268 . S
C96 O104 1.268 . S
C97 O103 1.268 . S
C97 O106 1.268 . S
O98 Sc88 2.105 . S
O98 C92 1.268 . S
O99 Sc89 2.105 . S
O99 C93 1.268 . S
O100 Sc90 2.105 . S
O100 C94 1.268 . S
O101 Sc88 2.105 . S
O101 C95 1.268 . S
O102 Sc90 2.105 . S
O102 C96 1.268 . S
O103 Sc89 2.105 . S
O103 C97 1.268 . S
O104 Sc88 2.105 . S
O104 C96 1.268 . S
O105 Sc89 2.105 . S
O105 C95 1.268 . S
O106 Sc90 2.105 . S
O106 C97 1.268 . S
O107 Sc88 2.105 . S
O107 C93 1.268 . S
O108 Sc90 2.105 . S
O108 C92 1.268 . S
O109 Sc89 2.105 . S
O109 C94 1.268 . S
Sc110 O113 2.025 . S
Sc110 O120 2.105 . S
Sc110 O123 2.105 . S
Sc110 O126 2.105 . S
Sc110 O129 2.105 . S
Sc111 O113 2.025 . S
Sc111 O121 2.105 . S
Sc111 O125 2.105 . S
Sc111 O127 2.105 . S
Sc111 O131 2.105 . S
Sc112 O113 2.025 . S
Sc112 O122 2.105 . S
Sc112 O124 2.105 . S
Sc112 O128 2.105 . S
Sc112 O130 2.105 . S
O113 Sc110 2.025 . S
O113 Sc111 2.025 . S
O113 Sc112 2.025 . S
C114 O120 1.268 . S
C114 O130 1.268 . S
C115 O121 1.268 . S
C115 O129 1.268 . S
C116 O122 1.268 . S
C116 O131 1.268 . S
C117 O123 1.268 . S
C117 O127 1.268 . S
C118 O124 1.268 . S
C118 O126 1.268 . S
C119 O125 1.268 . S
C119 O128 1.268 . S
O120 Sc110 2.105 . S
O120 C114 1.268 . S
O121 Sc111 2.105 . S
O121 C115 1.268 . S
O122 Sc112 2.105 . S
O122 C116 1.268 . S
O123 Sc110 2.105 . S
O123 C117 1.268 . S
O124 Sc112 2.105 . S
O124 C118 1.268 . S
O125 Sc111 2.105 . S
O125 C119 1.268 . S
O126 Sc110 2.105 . S
O126 C118 1.268 . S
O127 Sc111 2.105 . S
O127 C117 1.268 . S
O128 Sc112 2.105 . S
O128 C119 1.268 . S
O129 Sc110 2.105 . S
O129 C115 1.268 . S
O130 Sc112 2.105 . S
O130 C114 1.268 . S
O131 Sc111 2.105 . S
O131 C116 1.268 . S
Sc132 O135 2.025 . S
Sc132 O142 2.105 . S
Sc132 O145 2.105 . S
Sc132 O148 2.105 . S
Sc132 O151 2.105 . S
Sc133 O135 2.025 . S
Sc133 O143 2.105 . S
Sc133 O147 2.105 . S
Sc133 O149 2.105 . S
Sc133 O153 2.105 . S
Sc134 O135 2.025 . S
Sc134 O144 2.105 . S
Sc134 O146 2.105 . S
Sc134 O150 2.105 . S
Sc134 O152 2.105 . S
O135 Sc132 2.025 . S
O135 Sc133 2.025 . S
O135 Sc134 2.025 . S
C136 O142 1.268 . S
C136 O152 1.268 . S
C137 O143 1.268 . S
C137 O151 1.268 . S
C138 O144 1.268 . S
C138 O153 1.268 . S
C139 O145 1.268 . S
C139 O149 1.268 . S
C140 O146 1.268 . S
C140 O148 1.268 . S
C141 O147 1.268 . S
C141 O150 1.268 . S
O142 Sc132 2.105 . S
O142 C136 1.268 . S
O143 Sc133 2.105 . S
O143 C137 1.268 . S
O144 Sc134 2.105 . S
O144 C138 1.268 . S
O145 Sc132 2.105 . S
O145 C139 1.268 . S
O146 Sc134 2.105 . S
O146 C140 1.268 . S
O147 Sc133 2.105 . S
O147 C141 1.268 . S
O148 Sc132 2.105 . S
O148 C140 1.268 . S
O149 Sc133 2.105 . S
O149 C139 1.268 . S
O150 Sc134 2.105 . S
O150 C141 1.268 . S
O151 Sc132 2.105 . S
O151 C137 1.268 . S
O152 Sc134 2.105 . S
O152 C136 1.268 . S
O153 Sc133 2.105 . S
O153 C138 1.268 . S
Sc154 O157 2.025 . S
Sc154 O164 2.105 . S
Sc154 O167 2.105 . S
Sc154 O170 2.105 . S
Sc154 O173 2.105 . S
Sc155 O157 2.025 . S
Sc155 O165 2.105 . S
Sc155 O169 2.105 . S
Sc155 O171 2.105 . S
Sc155 O175 2.105 . S
Sc156 O157 2.025 . S
Sc156 O166 2.105 . S
Sc156 O168 2.105 . S
Sc156 O172 2.105 . S
Sc156 O174 2.105 . S
O157 Sc154 2.025 . S
O157 Sc155 2.025 . S
O157 Sc156 2.025 . S
C158 O164 1.268 . S
C158 O174 1.268 . S
C159 O165 1.268 . S
C159 O173 1.268 . S
C160 O166 1.268 . S
C160 O175 1.268 . S
C161 O167 1.268 . S
C161 O171 1.268 . S
C162 O168 1.268 . S
C162 O170 1.268 . S
C163 O169 1.268 . S
C163 O172 1.268 . S
O164 Sc154 2.105 . S
O164 C158 1.268 . S
O165 Sc155 2.105 . S
O165 C159 1.268 . S
O166 Sc156 2.105 . S
O166 C160 1.268 . S
O167 Sc154 2.105 . S
O167 C161 1.268 . S
O168 Sc156 2.105 . S
O168 C162 1.268 . S
O169 Sc155 2.105 . S
O169 C163 1.268 . S
O170 Sc154 2.105 . S
O170 C162 1.268 . S
O171 Sc155 2.105 . S
O171 C161 1.268 . S
O172 Sc156 2.105 . S
O172 C163 1.268 . S
O173 Sc154 2.105 . S
O173 C159 1.268 . S
O174 Sc156 2.105 . S
O174 C158 1.268 . S
O175 Sc155 2.105 . S
O175 C160 1.268 . S
Sc176 O179 2.025 . S
Sc176 O186 2.105 . S
Sc176 O189 2.105 . S
Sc176 O192 2.105 . S
Sc176 O195 2.105 . S
Sc177 O179 2.025 . S
Sc177 O187 2.105 . S
Sc177 O191 2.105 . S
Sc177 O193 2.105 . S
Sc177 O197 2.105 . S
Sc178 O179 2.025 . S
Sc178 O188 2.105 . S
Sc178 O190 2.105 . S
Sc178 O194 2.105 . S
Sc178 O196 2.105 . S
O179 Sc176 2.025 . S
O179 Sc177 2.025 . S
O179 Sc178 2.025 . S
C180 O186 1.268 . S
C180 O196 1.268 . S
C181 O187 1.268 . S
C181 O195 1.268 . S
C182 O188 1.268 . S
C182 O197 1.268 . S
C183 O189 1.268 . S
C183 O193 1.268 . S
C184 O190 1.268 . S
C184 O192 1.268 . S
C185 O191 1.268 . S
C185 O194 1.268 . S
O186 Sc176 2.105 . S
O186 C180 1.268 . S
O187 Sc177 2.105 . S
O187 C181 1.268 . S
O188 Sc178 2.105 . S
O188 C182 1.268 . S
O189 Sc176 2.105 . S
O189 C183 1.268 . S
O190 Sc178 2.105 . S
O190 C184 1.268 . S
O191 Sc177 2.105 . S
O191 C185 1.268 . S
O192 Sc176 2.105 . S
O192 C184 1.268 . S
O193 Sc177 2.105 . S
O193 C183 1.268 . S
O194 Sc178 2.105 . S
O194 C185 1.268 . S
O195 Sc176 2.105 . S
O195 C181 1.268 . S
O196 Sc178 2.105 . S
O196 C180 1.268 . S
O197 Sc177 2.105 . S
O197 C182 1.268 . S
Sc198 O201 2.025 . S
Sc198 O208 2.105 . S
Sc198 O211 2.105 . S
Sc198 O214 2.105 . S
Sc198 O217 2.105 . S
Sc199 O201 2.025 . S
Sc199 O209 2.105 . S
Sc199 O213 2.105 . S
Sc199 O215 2.105 . S
Sc199 O219 2.105 . S
Sc200 O201 2.025 . S
Sc200 O210 2.105 . S
Sc200 O212 2.105 . S
Sc200 O216 2.105 . S
Sc200 O218 2.105 . S
O201 Sc198 2.025 . S
O201 Sc199 2.025 . S
O201 Sc200 2.025 . S
C202 O208 1.268 . S
C202 O218 1.268 . S
C203 O209 1.268 . S
C203 O217 1.268 . S
C204 O210 1.268 . S
C204 O219 1.268 . S
C205 O211 1.268 . S
C205 O215 1.268 . S
C206 O212 1.268 . S
C206 O214 1.268 . S
C207 O213 1.268 . S
C207 O216 1.268 . S
O208 Sc198 2.105 . S
O208 C202 1.268 . S
O209 Sc199 2.105 . S
O209 C203 1.268 . S
O210 Sc200 2.105 . S
O210 C204 1.268 . S
O211 Sc198 2.105 . S
O211 C205 1.268 . S
O212 Sc200 2.105 . S
O212 C206 1.268 . S
O213 Sc199 2.105 . S
O213 C207 1.268 . S
O214 Sc198 2.105 . S
O214 C206 1.268 . S
O215 Sc199 2.105 . S
O215 C205 1.268 . S
O216 Sc200 2.105 . S
O216 C207 1.268 . S
O217 Sc198 2.105 . S
O217 C203 1.268 . S
O218 Sc200 2.105 . S
O218 C202 1.268 . S
O219 Sc199 2.105 . S
O219 C204 1.268 . S
Sc220 O223 2.025 . S
Sc220 O230 2.105 . S
Sc220 O233 2.105 . S
Sc220 O236 2.105 . S
Sc220 O239 2.105 . S
Sc221 O223 2.025 . S
Sc221 O231 2.105 . S
Sc221 O235 2.105 . S
Sc221 O237 2.105 . S
Sc221 O241 2.105 . S
Sc222 O223 2.025 . S
Sc222 O232 2.105 . S
Sc222 O234 2.105 . S
Sc222 O238 2.105 . S
Sc222 O240 2.105 . S
O223 Sc220 2.025 . S
O223 Sc221 2.025 . S
O223 Sc222 2.025 . S
C224 O230 1.268 . S
C224 O240 1.268 . S
C225 O231 1.268 . S
C225 O239 1.268 . S
C226 O232 1.268 . S
C226 O241 1.268 . S
C227 O233 1.268 . S
C227 O237 1.268 . S
C228 O234 1.268 . S
C228 O236 1.268 . S
C229 O235 1.268 . S
C229 O238 1.268 . S
O230 Sc220 2.105 . S
O230 C224 1.268 . S
O231 Sc221 2.105 . S
O231 C225 1.268 . S
O232 Sc222 2.105 . S
O232 C226 1.268 . S
O233 Sc220 2.105 . S
O233 C227 1.268 . S
O234 Sc222 2.105 . S
O234 C228 1.268 . S
O235 Sc221 2.105 . S
O235 C229 1.268 . S
O236 Sc220 2.105 . S
O236 C228 1.268 . S
O237 Sc221 2.105 . S
O237 C227 1.268 . S
O238 Sc222 2.105 . S
O238 C229 1.268 . S
O239 Sc220 2.105 . S
O239 C225 1.268 . S
O240 Sc222 2.105 . S
O240 C224 1.268 . S
O241 Sc221 2.105 . S
O241 C226 1.268 . S
Sc242 O245 2.025 . S
Sc242 O252 2.105 . S
Sc242 O255 2.105 . S
Sc242 O258 2.105 . S
Sc242 O261 2.105 . S
Sc243 O245 2.025 . S
Sc243 O253 2.105 . S
Sc243 O257 2.105 . S
Sc243 O259 2.105 . S
Sc243 O263 2.105 . S
Sc244 O245 2.025 . S
Sc244 O254 2.105 . S
Sc244 O256 2.105 . S
Sc244 O260 2.105 . S
Sc244 O262 2.105 . S
O245 Sc242 2.025 . S
O245 Sc243 2.025 . S
O245 Sc244 2.025 . S
C246 O252 1.268 . S
C246 O262 1.268 . S
C247 O253 1.268 . S
C247 O261 1.268 . S
C248 O254 1.268 . S
C248 O263 1.268 . S
C249 O255 1.268 . S
C249 O259 1.268 . S
C250 O256 1.268 . S
C250 O258 1.268 . S
C251 O257 1.268 . S
C251 O260 1.268 . S
O252 Sc242 2.105 . S
O252 C246 1.268 . S
O253 Sc243 2.105 . S
O253 C247 1.268 . S
O254 Sc244 2.105 . S
O254 C248 1.268 . S
O255 Sc242 2.105 . S
O255 C249 1.268 . S
O256 Sc244 2.105 . S
O256 C250 1.268 . S
O257 Sc243 2.105 . S
O257 C251 1.268 . S
O258 Sc242 2.105 . S
O258 C250 1.268 . S
O259 Sc243 2.105 . S
O259 C249 1.268 . S
O260 Sc244 2.105 . S
O260 C251 1.268 . S
O261 Sc242 2.105 . S
O261 C247 1.268 . S
O262 Sc244 2.105 . S
O262 C246 1.268 . S
O263 Sc243 2.105 . S
O263 C248 1.268 . S
Sc264 O267 2.025 . S
Sc264 O274 2.105 . S
Sc264 O277 2.105 . S
Sc264 O280 2.105 . S
Sc264 O283 2.105 . S
Sc265 O267 2.025 . S
Sc265 O275 2.105 . S
Sc265 O279 2.105 . S
Sc265 O281 2.105 . S
Sc265 O285 2.105 . S
Sc266 O267 2.025 . S
Sc266 O276 2.105 . S
Sc266 O278 2.105 . S
Sc266 O282 2.105 . S
Sc266 O284 2.105 . S
O267 Sc264 2.025 . S
O267 Sc265 2.025 . S
O267 Sc266 2.025 . S
C268 O274 1.268 . S
C268 O284 1.268 . S
C269 O275 1.268 . S
C269 O283 1.268 . S
C270 O276 1.268 . S
C270 O285 1.268 . S
C271 O277 1.268 . S
C271 O281 1.268 . S
C272 O278 1.268 . S
C272 O280 1.268 . S
C273 O279 1.268 . S
C273 O282 1.268 . S
O274 Sc264 2.105 . S
O274 C268 1.268 . S
O275 Sc265 2.105 . S
O275 C269 1.268 . S
O276 Sc266 2.105 . S
O276 C270 1.268 . S
O277 Sc264 2.105 . S
O277 C271 1.268 . S
O278 Sc266 2.105 . S
O278 C272 1.268 . S
O279 Sc265 2.105 . S
O279 C273 1.268 . S
O280 Sc264 2.105 . S
O280 C272 1.268 . S
O281 Sc265 2.105 . S
O281 C271 1.268 . S
O282 Sc266 2.105 . S
O282 C273 1.268 . S
O283 Sc264 2.105 . S
O283 C269 1.268 . S
O284 Sc266 2.105 . S
O284 C268 1.268 . S
O285 Sc265 2.105 . S
O285 C270 1.268 . S
Sc286 O289 2.025 . S
Sc286 O296 2.105 . S
Sc286 O299 2.105 . S
Sc286 O302 2.105 . S
Sc286 O305 2.105 . S
Sc287 O289 2.025 . S
Sc287 O297 2.105 . S
Sc287 O301 2.105 . S
Sc287 O303 2.105 . S
Sc287 O307 2.105 . S
Sc288 O289 2.025 . S
Sc288 O298 2.105 . S
Sc288 O300 2.105 . S
Sc288 O304 2.105 . S
Sc288 O306 2.105 . S
O289 Sc286 2.025 . S
O289 Sc287 2.025 . S
O289 Sc288 2.025 . S
C290 O296 1.268 . S
C290 O306 1.268 . S
C291 O297 1.268 . S
C291 O305 1.268 . S
C292 O298 1.268 . S
C292 O307 1.268 . S
C293 O299 1.268 . S
C293 O303 1.268 . S
C294 O300 1.268 . S
C294 O302 1.268 . S
C295 O301 1.268 . S
C295 O304 1.268 . S
O296 Sc286 2.105 . S
O296 C290 1.268 . S
O297 Sc287 2.105 . S
O297 C291 1.268 . S
O298 Sc288 2.105 . S
O298 C292 1.268 . S
O299 Sc286 2.105 . S
O299 C293 1.268 . S
O300 Sc288 2.105 . S
O300 C294 1.268 . S
O301 Sc287 2.105 . S
O301 C295 1.268 . S
O302 Sc286 2.105 . S
O302 C294 1.268 . S
O303 Sc287 2.105 . S
O303 C293 1.268 . S
O304 Sc288 2.105 . S
O304 C295 1.268 . S
O305 Sc286 2.105 . S
O305 C291 1.268 . S
O306 Sc288 2.105 . S
O306 C290 1.268 . S
O307 Sc287 2.105 . S
O307 C292 1.268 . S
Sc308 O311 2.025 . S
Sc308 O318 2.105 . S
Sc308 O321 2.105 . S
Sc308 O324 2.105 . S
Sc308 O327 2.105 . S
Sc309 O311 2.025 . S
Sc309 O319 2.105 . S
Sc309 O323 2.105 . S
Sc309 O325 2.105 . S
Sc309 O329 2.105 . S
Sc310 O311 2.025 . S
Sc310 O320 2.105 . S
Sc310 O322 2.105 . S
Sc310 O326 2.105 . S
Sc310 O328 2.105 . S
O311 Sc308 2.025 . S
O311 Sc309 2.025 . S
O311 Sc310 2.025 . S
C312 O318 1.268 . S
C312 O328 1.268 . S
C313 O319 1.268 . S
C313 O327 1.268 . S
C314 O320 1.268 . S
C314 O329 1.268 . S
C315 O321 1.268 . S
C315 O325 1.268 . S
C316 O322 1.268 . S
C316 O324 1.268 . S
C317 O323 1.268 . S
C317 O326 1.268 . S
O318 Sc308 2.105 . S
O318 C312 1.268 . S
O319 Sc309 2.105 . S
O319 C313 1.268 . S
O320 Sc310 2.105 . S
O320 C314 1.268 . S
O321 Sc308 2.105 . S
O321 C315 1.268 . S
O322 Sc310 2.105 . S
O322 C316 1.268 . S
O323 Sc309 2.105 . S
O323 C317 1.268 . S
O324 Sc308 2.105 . S
O324 C316 1.268 . S
O325 Sc309 2.105 . S
O325 C315 1.268 . S
O326 Sc310 2.105 . S
O326 C317 1.268 . S
O327 Sc308 2.105 . S
O327 C313 1.268 . S
O328 Sc310 2.105 . S
O328 C312 1.268 . S
O329 Sc309 2.105 . S
O329 C314 1.268 . S
Sc330 O333 2.025 . S
Sc330 O340 2.105 . S
Sc330 O343 2.105 . S
Sc330 O346 2.105 . S
Sc330 O349 2.105 . S
Sc331 O333 2.025 . S
Sc331 O341 2.105 . S
Sc331 O345 2.105 . S
Sc331 O347 2.105 . S
Sc331 O351 2.105 . S
Sc332 O333 2.025 . S
Sc332 O342 2.105 . S
Sc332 O344 2.105 . S
Sc332 O348 2.105 . S
Sc332 O350 2.105 . S
O333 Sc330 2.025 . S
O333 Sc331 2.025 . S
O333 Sc332 2.025 . S
C334 O340 1.268 . S
C334 O350 1.268 . S
C335 O341 1.268 . S
C335 O349 1.268 . S
C336 O342 1.268 . S
C336 O351 1.268 . S
C337 O343 1.268 . S
C337 O347 1.268 . S
C338 O344 1.268 . S
C338 O346 1.268 . S
C339 O345 1.268 . S
C339 O348 1.268 . S
O340 Sc330 2.105 . S
O340 C334 1.268 . S
O341 Sc331 2.105 . S
O341 C335 1.268 . S
O342 Sc332 2.105 . S
O342 C336 1.268 . S
O343 Sc330 2.105 . S
O343 C337 1.268 . S
O344 Sc332 2.105 . S
O344 C338 1.268 . S
O345 Sc331 2.105 . S
O345 C339 1.268 . S
O346 Sc330 2.105 . S
O346 C338 1.268 . S
O347 Sc331 2.105 . S
O347 C337 1.268 . S
O348 Sc332 2.105 . S
O348 C339 1.268 . S
O349 Sc330 2.105 . S
O349 C335 1.268 . S
O350 Sc332 2.105 . S
O350 C334 1.268 . S
O351 Sc331 2.105 . S
O351 C336 1.268 . S
Sc352 O355 2.025 . S
Sc352 O362 2.105 . S
Sc352 O365 2.105 . S
Sc352 O368 2.105 . S
Sc352 O371 2.105 . S
Sc353 O355 2.025 . S
Sc353 O363 2.105 . S
Sc353 O367 2.105 . S
Sc353 O369 2.105 . S
Sc353 O373 2.105 . S
Sc354 O355 2.025 . S
Sc354 O364 2.105 . S
Sc354 O366 2.105 . S
Sc354 O370 2.105 . S
Sc354 O372 2.105 . S
O355 Sc352 2.025 . S
O355 Sc353 2.025 . S
O355 Sc354 2.025 . S
C356 O362 1.268 . S
C356 O372 1.268 . S
C357 O363 1.268 . S
C357 O371 1.268 . S
C358 O364 1.268 . S
C358 O373 1.268 . S
C359 O365 1.268 . S
C359 O369 1.268 . S
C360 O366 1.268 . S
C360 O368 1.268 . S
C361 O367 1.268 . S
C361 O370 1.268 . S
O362 Sc352 2.105 . S
O362 C356 1.268 . S
O363 Sc353 2.105 . S
O363 C357 1.268 . S
O364 Sc354 2.105 . S
O364 C358 1.268 . S
O365 Sc352 2.105 . S
O365 C359 1.268 . S
O366 Sc354 2.105 . S
O366 C360 1.268 . S
O367 Sc353 2.105 . S
O367 C361 1.268 . S
O368 Sc352 2.105 . S
O368 C360 1.268 . S
O369 Sc353 2.105 . S
O369 C359 1.268 . S
O370 Sc354 2.105 . S
O370 C361 1.268 . S
O371 Sc352 2.105 . S
O371 C357 1.268 . S
O372 Sc354 2.105 . S
O372 C356 1.268 . S
O373 Sc353 2.105 . S
O373 C358 1.268 . S
Sc374 O377 2.025 . S
Sc374 O384 2.105 . S
Sc374 O387 2.105 . S
Sc374 O390 2.105 . S
Sc374 O393 2.105 . S
Sc375 O377 2.025 . S
Sc375 O385 2.105 . S
Sc375 O389 2.105 . S
Sc375 O391 2.105 . S
Sc375 O395 2.105 . S
Sc376 O377 2.025 . S
Sc376 O386 2.105 . S
Sc376 O388 2.105 . S
Sc376 O392 2.105 . S
Sc376 O394 2.105 . S
O377 Sc374 2.025 . S
O377 Sc375 2.025 . S
O377 Sc376 2.025 . S
C378 O384 1.268 . S
C378 O394 1.268 . S
C379 O385 1.268 . S
C379 O393 1.268 . S
C380 O386 1.268 . S
C380 O395 1.268 . S
C381 O387 1.268 . S
C381 O391 1.268 . S
C382 O388 1.268 . S
C382 O390 1.268 . S
C383 O389 1.268 . S
C383 O392 1.268 . S
O384 Sc374 2.105 . S
O384 C378 1.268 . S
O385 Sc375 2.105 . S
O385 C379 1.268 . S
O386 Sc376 2.105 . S
O386 C380 1.268 . S
O387 Sc374 2.105 . S
O387 C381 1.268 . S
O388 Sc376 2.105 . S
O388 C382 1.268 . S
O389 Sc375 2.105 . S
O389 C383 1.268 . S
O390 Sc374 2.105 . S
O390 C382 1.268 . S
O391 Sc375 2.105 . S
O391 C381 1.268 . S
O392 Sc376 2.105 . S
O392 C383 1.268 . S
O393 Sc374 2.105 . S
O393 C379 1.268 . S
O394 Sc376 2.105 . S
O394 C378 1.268 . S
O395 Sc375 2.105 . S
O395 C380 1.268 . S
Sc396 O399 2.025 . S
Sc396 O406 2.105 . S
Sc396 O409 2.105 . S
Sc396 O412 2.105 . S
Sc396 O415 2.105 . S
Sc397 O399 2.025 . S
Sc397 O407 2.105 . S
Sc397 O411 2.105 . S
Sc397 O413 2.105 . S
Sc397 O417 2.105 . S
Sc398 O399 2.025 . S
Sc398 O408 2.105 . S
Sc398 O410 2.105 . S
Sc398 O414 2.105 . S
Sc398 O416 2.105 . S
O399 Sc396 2.025 . S
O399 Sc397 2.025 . S
O399 Sc398 2.025 . S
C400 O406 1.268 . S
C400 O416 1.268 . S
C401 O407 1.268 . S
C401 O415 1.268 . S
C402 O408 1.268 . S
C402 O417 1.268 . S
C403 O409 1.268 . S
C403 O413 1.268 . S
C404 O410 1.268 . S
C404 O412 1.268 . S
C405 O411 1.268 . S
C405 O414 1.268 . S
O406 Sc396 2.105 . S
O406 C400 1.268 . S
O407 Sc397 2.105 . S
O407 C401 1.268 . S
O408 Sc398 2.105 . S
O408 C402 1.268 . S
O409 Sc396 2.105 . S
O409 C403 1.268 . S
O410 Sc398 2.105 . S
O410 C404 1.268 . S
O411 Sc397 2.105 . S
O411 C405 1.268 . S
O412 Sc396 2.105 . S
O412 C404 1.268 . S
O413 Sc397 2.105 . S
O413 C403 1.268 . S
O414 Sc398 2.105 . S
O414 C405 1.268 . S
O415 Sc396 2.105 . S
O415 C401 1.268 . S
O416 Sc398 2.105 . S
O416 C400 1.268 . S
O417 Sc397 2.105 . S
O417 C402 1.268 . S
Sc418 O421 2.025 . S
Sc418 O428 2.105 . S
Sc418 O431 2.105 . S
Sc418 O434 2.105 . S
Sc418 O437 2.105 . S
Sc419 O421 2.025 . S
Sc419 O429 2.105 . S
Sc419 O433 2.105 . S
Sc419 O435 2.105 . S
Sc419 O439 2.105 . S
Sc420 O421 2.025 . S
Sc420 O430 2.105 . S
Sc420 O432 2.105 . S
Sc420 O436 2.105 . S
Sc420 O438 2.105 . S
O421 Sc418 2.025 . S
O421 Sc419 2.025 . S
O421 Sc420 2.025 . S
C422 O428 1.268 . S
C422 O438 1.268 . S
C423 O429 1.268 . S
C423 O437 1.268 . S
C424 O430 1.268 . S
C424 O439 1.268 . S
C425 O431 1.268 . S
C425 O435 1.268 . S
C426 O432 1.268 . S
C426 O434 1.268 . S
C427 O433 1.268 . S
C427 O436 1.268 . S
O428 Sc418 2.105 . S
O428 C422 1.268 . S
O429 Sc419 2.105 . S
O429 C423 1.268 . S
O430 Sc420 2.105 . S
O430 C424 1.268 . S
O431 Sc418 2.105 . S
O431 C425 1.268 . S
O432 Sc420 2.105 . S
O432 C426 1.268 . S
O433 Sc419 2.105 . S
O433 C427 1.268 . S
O434 Sc418 2.105 . S
O434 C426 1.268 . S
O435 Sc419 2.105 . S
O435 C425 1.268 . S
O436 Sc420 2.105 . S
O436 C427 1.268 . S
O437 Sc418 2.105 . S
O437 C423 1.268 . S
O438 Sc420 2.105 . S
O438 C422 1.268 . S
O439 Sc419 2.105 . S
O439 C424 1.268 . S
Sc440 O443 2.025 . S
Sc440 O450 2.105 . S
Sc440 O453 2.105 . S
Sc440 O456 2.105 . S
Sc440 O459 2.105 . S
Sc441 O443 2.025 . S
Sc441 O451 2.105 . S
Sc441 O455 2.105 . S
Sc441 O457 2.105 . S
Sc441 O461 2.105 . S
Sc442 O443 2.025 . S
Sc442 O452 2.105 . S
Sc442 O454 2.105 . S
Sc442 O458 2.105 . S
Sc442 O460 2.105 . S
O443 Sc440 2.025 . S
O443 Sc441 2.025 . S
O443 Sc442 2.025 . S
C444 O450 1.268 . S
C444 O460 1.268 . S
C445 O451 1.268 . S
C445 O459 1.268 . S
C446 O452 1.268 . S
C446 O461 1.268 . S
C447 O453 1.268 . S
C447 O457 1.268 . S
C448 O454 1.268 . S
C448 O456 1.268 . S
C449 O455 1.268 . S
C449 O458 1.268 . S
O450 Sc440 2.105 . S
O450 C444 1.268 . S
O451 Sc441 2.105 . S
O451 C445 1.268 . S
O452 Sc442 2.105 . S
O452 C446 1.268 . S
O453 Sc440 2.105 . S
O453 C447 1.268 . S
O454 Sc442 2.105 . S
O454 C448 1.268 . S
O455 Sc441 2.105 . S
O455 C449 1.268 . S
O456 Sc440 2.105 . S
O456 C448 1.268 . S
O457 Sc441 2.105 . S
O457 C447 1.268 . S
O458 Sc442 2.105 . S
O458 C449 1.268 . S
O459 Sc440 2.105 . S
O459 C445 1.268 . S
O460 Sc442 2.105 . S
O460 C444 1.268 . S
O461 Sc441 2.105 . S
O461 C446 1.268 . S
Sc462 O465 2.025 . S
Sc462 O472 2.105 . S
Sc462 O475 2.105 . S
Sc462 O478 2.105 . S
Sc462 O481 2.105 . S
Sc463 O465 2.025 . S
Sc463 O473 2.105 . S
Sc463 O477 2.105 . S
Sc463 O479 2.105 . S
Sc463 O483 2.105 . S
Sc464 O465 2.025 . S
Sc464 O474 2.105 . S
Sc464 O476 2.105 . S
Sc464 O480 2.105 . S
Sc464 O482 2.105 . S
O465 Sc462 2.025 . S
O465 Sc463 2.025 . S
O465 Sc464 2.025 . S
C466 O472 1.268 . S
C466 O482 1.268 . S
C467 O473 1.268 . S
C467 O481 1.268 . S
C468 O474 1.268 . S
C468 O483 1.268 . S
C469 O475 1.268 . S
C469 O479 1.268 . S
C470 O476 1.268 . S
C470 O478 1.268 . S
C471 O477 1.268 . S
C471 O480 1.268 . S
O472 Sc462 2.105 . S
O472 C466 1.268 . S
O473 Sc463 2.105 . S
O473 C467 1.268 . S
O474 Sc464 2.105 . S
O474 C468 1.268 . S
O475 Sc462 2.105 . S
O475 C469 1.268 . S
O476 Sc464 2.105 . S
O476 C470 1.268 . S
O477 Sc463 2.105 . S
O477 C471 1.268 . S
O478 Sc462 2.105 . S
O478 C470 1.268 . S
O479 Sc463 2.105 . S
O479 C469 1.268 . S
O480 Sc464 2.105 . S
O480 C471 1.268 . S
O481 Sc462 2.105 . S
O481 C467 1.268 . S
O482 Sc464 2.105 . S
O482 C466 1.268 . S
O483 Sc463 2.105 . S
O483 C468 1.268 . S
Sc484 O487 2.025 . S
Sc484 O494 2.105 . S
Sc484 O497 2.105 . S
Sc484 O500 2.105 . S
Sc484 O503 2.105 . S
Sc485 O487 2.025 . S
Sc485 O495 2.105 . S
Sc485 O499 2.105 . S
Sc485 O501 2.105 . S
Sc485 O505 2.105 . S
Sc486 O487 2.025 . S
Sc486 O496 2.105 . S
Sc486 O498 2.105 . S
Sc486 O502 2.105 . S
Sc486 O504 2.105 . S
O487 Sc484 2.025 . S
O487 Sc485 2.025 . S
O487 Sc486 2.025 . S
C488 O494 1.268 . S
C488 O504 1.268 . S
C489 O495 1.268 . S
C489 O503 1.268 . S
C490 O496 1.268 . S
C490 O505 1.268 . S
C491 O497 1.268 . S
C491 O501 1.268 . S
C492 O498 1.268 . S
C492 O500 1.268 . S
C493 O499 1.268 . S
C493 O502 1.268 . S
O494 Sc484 2.105 . S
O494 C488 1.268 . S
O495 Sc485 2.105 . S
O495 C489 1.268 . S
O496 Sc486 2.105 . S
O496 C490 1.268 . S
O497 Sc484 2.105 . S
O497 C491 1.268 . S
O498 Sc486 2.105 . S
O498 C492 1.268 . S
O499 Sc485 2.105 . S
O499 C493 1.268 . S
O500 Sc484 2.105 . S
O500 C492 1.268 . S
O501 Sc485 2.105 . S
O501 C491 1.268 . S
O502 Sc486 2.105 . S
O502 C493 1.268 . S
O503 Sc484 2.105 . S
O503 C489 1.268 . S
O504 Sc486 2.105 . S
O504 C488 1.268 . S
O505 Sc485 2.105 . S
O505 C490 1.268 . S
Sc506 O509 2.025 . S
Sc506 O516 2.105 . S
Sc506 O519 2.105 . S
Sc506 O522 2.105 . S
Sc506 O525 2.105 . S
Sc507 O509 2.025 . S
Sc507 O517 2.105 . S
Sc507 O521 2.105 . S
Sc507 O523 2.105 . S
Sc507 O527 2.105 . S
Sc508 O509 2.025 . S
Sc508 O518 2.105 . S
Sc508 O520 2.105 . S
Sc508 O524 2.105 . S
Sc508 O526 2.105 . S
O509 Sc506 2.025 . S
O509 Sc507 2.025 . S
O509 Sc508 2.025 . S
C510 O516 1.268 . S
C510 O526 1.268 . S
C511 O517 1.268 . S
C511 O525 1.268 . S
C512 O518 1.268 . S
C512 O527 1.268 . S
C513 O519 1.268 . S
C513 O523 1.268 . S
C514 O520 1.268 . S
C514 O522 1.268 . S
C515 O521 1.268 . S
C515 O524 1.268 . S
O516 Sc506 2.105 . S
O516 C510 1.268 . S
O517 Sc507 2.105 . S
O517 C511 1.268 . S
O518 Sc508 2.105 . S
O518 C512 1.268 . S
O519 Sc506 2.105 . S
O519 C513 1.268 . S
O520 Sc508 2.105 . S
O520 C514 1.268 . S
O521 Sc507 2.105 . S
O521 C515 1.268 . S
O522 Sc506 2.105 . S
O522 C514 1.268 . S
O523 Sc507 2.105 . S
O523 C513 1.268 . S
O524 Sc508 2.105 . S
O524 C515 1.268 . S
O525 Sc506 2.105 . S
O525 C511 1.268 . S
O526 Sc508 2.105 . S
O526 C510 1.268 . S
O527 Sc507 2.105 . S
O527 C512 1.268 . S
H528 C536 0.950 . S
H529 C541 0.950 . S
H530 C538 0.950 . S
H531 C540 0.950 1_554 S
H532 C542 0.950 . S
H533 C544 0.950 . S
H534 C546 0.950 1_556 S
H535 C547 0.950 . S
C536 H528 0.950 . S
C536 C537 1.386 . S
C536 C538 1.391 . S
C537 C536 1.386 . S
C537 C541 1.393 . S
C538 H530 0.950 . S
C538 C536 1.391 . S
C538 C539 1.400 . S
C539 C538 1.400 . S
C539 C540 1.398 . S
C539 C545 1.491 1_556 S
C540 H531 0.950 1_556 S
C540 C539 1.398 . S
C540 C541 1.391 . S
C541 H529 0.950 . S
C541 C537 1.393 . S
C541 C540 1.391 . S
C542 H532 0.950 . S
C542 C543 1.386 . S
C542 C544 1.391 . S
C543 C542 1.386 . S
C543 C547 1.393 . S
C544 H533 0.950 . S
C544 C542 1.391 . S
C544 C545 1.400 . S
C545 C539 1.491 1_554 S
C545 C544 1.400 . S
C545 C546 1.398 . S
C546 H534 0.950 1_554 S
C546 C545 1.398 . S
C546 C547 1.391 . S
C547 H535 0.950 . S
C547 C543 1.393 . S
C547 C546 1.391 . S
H548 C556 0.950 . S
H549 C561 0.950 . S
H550 C558 0.950 . S
H551 C560 0.950 . S
H552 C562 0.950 . S
H553 C564 0.950 . S
H554 C566 0.950 . S
H555 C567 0.950 . S
C556 H548 0.950 . S
C556 C557 1.386 . S
C556 C558 1.391 . S
C557 C556 1.386 . S
C557 C561 1.393 . S
C558 H550 0.950 . S
C558 C556 1.391 . S
C558 C559 1.400 . S
C559 C558 1.400 . S
C559 C560 1.398 . S
C559 C565 1.491 . S
C560 H551 0.950 . S
C560 C559 1.398 . S
C560 C561 1.391 . S
C561 H549 0.950 . S
C561 C557 1.393 . S
C561 C560 1.391 . S
C562 H552 0.950 . S
C562 C563 1.386 . S
C562 C564 1.391 . S
C563 C562 1.386 . S
C563 C567 1.393 . S
C564 H553 0.950 . S
C564 C562 1.391 . S
C564 C565 1.400 . S
C565 C559 1.491 . S
C565 C564 1.400 . S
C565 C566 1.398 . S
C566 H554 0.950 . S
C566 C565 1.398 . S
C566 C567 1.391 . S
C567 H555 0.950 . S
C567 C563 1.393 . S
C567 C566 1.391 . S
H568 C576 0.950 . S
H569 C581 0.950 . S
H570 C578 0.950 . S
H571 C580 0.950 1_554 S
H572 C582 0.950 . S
H573 C584 0.950 . S
H574 C586 0.950 1_556 S
H575 C587 0.950 . S
C576 H568 0.950 . S
C576 C577 1.386 . S
C576 C578 1.391 . S
C577 C576 1.386 . S
C577 C581 1.393 . S
C578 H570 0.950 . S
C578 C576 1.391 . S
C578 C579 1.400 . S
C579 C578 1.400 . S
C579 C580 1.398 . S
C579 C585 1.491 1_556 S
C580 H571 0.950 1_556 S
C580 C579 1.398 . S
C580 C581 1.391 . S
C581 H569 0.950 . S
C581 C577 1.393 . S
C581 C580 1.391 . S
C582 H572 0.950 . S
C582 C583 1.386 . S
C582 C584 1.391 . S
C583 C582 1.386 . S
C583 C587 1.393 . S
C584 H573 0.950 . S
C584 C582 1.391 . S
C584 C585 1.400 . S
C585 C579 1.491 1_554 S
C585 C584 1.400 . S
C585 C586 1.398 . S
C586 H574 0.950 1_554 S
C586 C585 1.398 . S
C586 C587 1.391 . S
C587 H575 0.950 . S
C587 C583 1.393 . S
C587 C586 1.391 . S
H588 C596 0.950 . S
H589 C601 0.950 . S
H590 C598 0.950 . S
H591 C600 0.950 . S
H592 C602 0.950 . S
H593 C604 0.950 . S
H594 C606 0.950 . S
H595 C607 0.950 . S
C596 H588 0.950 . S
C596 C597 1.386 . S
C596 C598 1.391 . S
C597 C596 1.386 . S
C597 C601 1.393 . S
C598 H590 0.950 . S
C598 C596 1.391 . S
C598 C599 1.400 . S
C599 C598 1.400 . S
C599 C600 1.398 . S
C599 C605 1.491 . S
C600 H591 0.950 . S
C600 C599 1.398 . S
C600 C601 1.391 . S
C601 H589 0.950 . S
C601 C597 1.393 . S
C601 C600 1.391 . S
C602 H592 0.950 . S
C602 C603 1.386 . S
C602 C604 1.391 . S
C603 C602 1.386 . S
C603 C607 1.393 . S
C604 H593 0.950 . S
C604 C602 1.391 . S
C604 C605 1.400 . S
C605 C599 1.491 . S
C605 C604 1.400 . S
C605 C606 1.398 . S
C606 H594 0.950 . S
C606 C605 1.398 . S
C606 C607 1.391 . S
C607 H595 0.950 . S
C607 C603 1.393 . S
C607 C606 1.391 . S
H608 C616 0.950 . S
H609 C621 0.950 . S
H610 C618 0.950 . S
H611 C620 0.950 . S
H612 C622 0.950 . S
H613 C624 0.950 . S
H614 C626 0.950 . S
H615 C627 0.950 . S
C616 H608 0.950 . S
C616 C617 1.386 . S
C616 C618 1.391 . S
C617 C616 1.386 . S
C617 C621 1.393 . S
C618 H610 0.950 . S
C618 C616 1.391 . S
C618 C619 1.400 . S
C619 C618 1.400 . S
C619 C620 1.398 . S
C619 C625 1.491 1_556 S
C620 H611 0.950 . S
C620 C619 1.398 . S
C620 C621 1.391 . S
C621 H609 0.950 . S
C621 C617 1.393 . S
C621 C620 1.391 . S
C622 H612 0.950 . S
C622 C623 1.386 . S
C622 C624 1.391 . S
C623 C622 1.386 . S
C623 C627 1.393 . S
C624 H613 0.950 . S
C624 C622 1.391 . S
C624 C625 1.400 . S
C625 C619 1.491 1_554 S
C625 C624 1.400 . S
C625 C626 1.398 . S
C626 H614 0.950 . S
C626 C625 1.398 . S
C626 C627 1.391 . S
C627 H615 0.950 . S
C627 C623 1.393 . S
C627 C626 1.391 . S
H628 C636 0.950 . S
H629 C641 0.950 . S
H630 C638 0.950 . S
H631 C640 0.950 . S
H632 C642 0.950 . S
H633 C644 0.950 . S
H634 C646 0.950 . S
H635 C647 0.950 . S
C636 H628 0.950 . S
C636 C637 1.386 . S
C636 C638 1.391 . S
C637 C636 1.386 . S
C637 C641 1.393 . S
C638 H630 0.950 . S
C638 C636 1.391 . S
C638 C639 1.400 . S
C639 C638 1.400 . S
C639 C640 1.398 . S
C639 C645 1.491 . S
C640 H631 0.950 . S
C640 C639 1.398 . S
C640 C641 1.391 . S
C641 H629 0.950 . S
C641 C637 1.393 . S
C641 C640 1.391 . S
C642 H632 0.950 . S
C642 C643 1.386 . S
C642 C644 1.391 . S
C643 C642 1.386 . S
C643 C647 1.393 . S
C644 H633 0.950 . S
C644 C642 1.391 . S
C644 C645 1.400 . S
C645 C639 1.491 . S
C645 C644 1.400 . S
C645 C646 1.398 . S
C646 H634 0.950 . S
C646 C645 1.398 . S
C646 C647 1.391 . S
C647 H635 0.950 . S
C647 C643 1.393 . S
C647 C646 1.391 . S
H648 C656 0.950 . S
H649 C661 0.950 . S
H650 C658 0.950 . S
H651 C660 0.950 . S
H652 C662 0.950 . S
H653 C664 0.950 . S
H654 C666 0.950 . S
H655 C667 0.950 . S
C656 H648 0.950 . S
C656 C657 1.386 . S
C656 C658 1.391 . S
C657 C656 1.386 . S
C657 C661 1.393 . S
C658 H650 0.950 . S
C658 C656 1.391 . S
C658 C659 1.400 . S
C659 C658 1.400 . S
C659 C660 1.398 . S
C659 C665 1.491 1_556 S
C660 H651 0.950 . S
C660 C659 1.398 . S
C660 C661 1.391 . S
C661 H649 0.950 . S
C661 C657 1.393 . S
C661 C660 1.391 . S
C662 H652 0.950 . S
C662 C663 1.386 . S
C662 C664 1.391 . S
C663 C662 1.386 . S
C663 C667 1.393 . S
C664 H653 0.950 . S
C664 C662 1.391 . S
C664 C665 1.400 . S
C665 C659 1.491 1_554 S
C665 C664 1.400 . S
C665 C666 1.398 . S
C666 H654 0.950 . S
C666 C665 1.398 . S
C666 C667 1.391 . S
C667 H655 0.950 . S
C667 C663 1.393 . S
C667 C666 1.391 . S
H668 C676 0.950 . S
H669 C681 0.950 . S
H670 C678 0.950 . S
H671 C680 0.950 . S
H672 C682 0.950 . S
H673 C684 0.950 . S
H674 C686 0.950 . S
H675 C687 0.950 . S
C676 H668 0.950 . S
C676 C677 1.386 . S
C676 C678 1.391 . S
C677 C676 1.386 . S
C677 C681 1.393 . S
C678 H670 0.950 . S
C678 C676 1.391 . S
C678 C679 1.400 . S
C679 C678 1.400 . S
C679 C680 1.398 . S
C679 C685 1.491 . S
C680 H671 0.950 . S
C680 C679 1.398 . S
C680 C681 1.391 . S
C681 H669 0.950 . S
C681 C677 1.393 . S
C681 C680 1.391 . S
C682 H672 0.950 . S
C682 C683 1.386 . S
C682 C684 1.391 . S
C683 C682 1.386 . S
C683 C687 1.393 . S
C684 H673 0.950 . S
C684 C682 1.391 . S
C684 C685 1.400 . S
C685 C679 1.491 . S
C685 C684 1.400 . S
C685 C686 1.398 . S
C686 H674 0.950 . S
C686 C685 1.398 . S
C686 C687 1.391 . S
C687 H675 0.950 . S
C687 C683 1.393 . S
C687 C686 1.391 . S
H688 C696 0.950 . S
H689 C701 0.950 . S
H690 C698 0.950 . S
H691 C700 0.950 1_556 S
H692 C702 0.950 . S
H693 C704 0.950 . S
H694 C706 0.950 1_554 S
H695 C707 0.950 . S
C696 H688 0.950 . S
C696 C697 1.386 . S
C696 C698 1.391 . S
C697 C696 1.386 . S
C697 C701 1.393 . S
C698 H690 0.950 . S
C698 C696 1.391 . S
C698 C699 1.400 . S
C699 C698 1.400 . S
C699 C700 1.398 . S
C699 C705 1.491 1_554 S
C700 H691 0.950 1_554 S
C700 C699 1.398 . S
C700 C701 1.391 . S
C701 H689 0.950 . S
C701 C697 1.393 . S
C701 C700 1.391 . S
C702 H692 0.950 . S
C702 C703 1.386 . S
C702 C704 1.391 . S
C703 C702 1.386 . S
C703 C707 1.393 . S
C704 H693 0.950 . S
C704 C702 1.391 . S
C704 C705 1.400 . S
C705 C699 1.491 1_556 S
C705 C704 1.400 . S
C705 C706 1.398 . S
C706 H694 0.950 1_556 S
C706 C705 1.398 . S
C706 C707 1.391 . S
C707 H695 0.950 . S
C707 C703 1.393 . S
C707 C706 1.391 . S
H708 C716 0.950 . S
H709 C721 0.950 . S
H710 C718 0.950 . S
H711 C720 0.950 . S
H712 C722 0.950 . S
H713 C724 0.950 . S
H714 C726 0.950 . S
H715 C727 0.950 . S
C716 H708 0.950 . S
C716 C717 1.386 . S
C716 C718 1.391 . S
C717 C716 1.386 . S
C717 C721 1.393 . S
C718 H710 0.950 . S
C718 C716 1.391 . S
C718 C719 1.400 . S
C719 C718 1.400 . S
C719 C720 1.398 . S
C719 C725 1.491 . S
C720 H711 0.950 . S
C720 C719 1.398 . S
C720 C721 1.391 . S
C721 H709 0.950 . S
C721 C717 1.393 . S
C721 C720 1.391 . S
C722 H712 0.950 . S
C722 C723 1.386 . S
C722 C724 1.391 . S
C723 C722 1.386 . S
C723 C727 1.393 . S
C724 H713 0.950 . S
C724 C722 1.391 . S
C724 C725 1.400 . S
C725 C719 1.491 . S
C725 C724 1.400 . S
C725 C726 1.398 . S
C726 H714 0.950 . S
C726 C725 1.398 . S
C726 C727 1.391 . S
C727 H715 0.950 . S
C727 C723 1.393 . S
C727 C726 1.391 . S
H728 C736 0.950 . S
H729 C741 0.950 . S
H730 C738 0.950 . S
H731 C740 0.950 1_554 S
H732 C742 0.950 . S
H733 C744 0.950 . S
H734 C746 0.950 1_556 S
H735 C747 0.950 . S
C736 H728 0.950 . S
C736 C737 1.386 . S
C736 C738 1.391 . S
C737 C736 1.386 . S
C737 C741 1.393 . S
C738 H730 0.950 . S
C738 C736 1.391 . S
C738 C739 1.400 . S
C739 C738 1.400 . S
C739 C740 1.398 . S
C739 C745 1.491 1_556 S
C740 H731 0.950 1_556 S
C740 C739 1.398 . S
C740 C741 1.391 . S
C741 H729 0.950 . S
C741 C737 1.393 . S
C741 C740 1.391 . S
C742 H732 0.950 . S
C742 C743 1.386 . S
C742 C744 1.391 . S
C743 C742 1.386 . S
C743 C747 1.393 . S
C744 H733 0.950 . S
C744 C742 1.391 . S
C744 C745 1.400 . S
C745 C739 1.491 1_554 S
C745 C744 1.400 . S
C745 C746 1.398 . S
C746 H734 0.950 1_554 S
C746 C745 1.398 . S
C746 C747 1.391 . S
C747 H735 0.950 . S
C747 C743 1.393 . S
C747 C746 1.391 . S
H748 C756 0.950 . S
H749 C761 0.950 . S
H750 C758 0.950 . S
H751 C760 0.950 . S
H752 C762 0.950 . S
H753 C764 0.950 . S
H754 C766 0.950 . S
H755 C767 0.950 . S
C756 H748 0.950 . S
C756 C757 1.386 . S
C756 C758 1.391 . S
C757 C756 1.386 . S
C757 C761 1.393 . S
C758 H750 0.950 . S
C758 C756 1.391 . S
C758 C759 1.400 . S
C759 C758 1.400 . S
C759 C760 1.398 . S
C759 C765 1.491 . S
C760 H751 0.950 . S
C760 C759 1.398 . S
C760 C761 1.391 . S
C761 H749 0.950 . S
C761 C757 1.393 . S
C761 C760 1.391 . S
C762 H752 0.950 . S
C762 C763 1.386 . S
C762 C764 1.391 . S
C763 C762 1.386 . S
C763 C767 1.393 . S
C764 H753 0.950 . S
C764 C762 1.391 . S
C764 C765 1.400 . S
C765 C759 1.491 . S
C765 C764 1.400 . S
C765 C766 1.398 . S
C766 H754 0.950 . S
C766 C765 1.398 . S
C766 C767 1.391 . S
C767 H755 0.950 . S
C767 C763 1.393 . S
C767 C766 1.391 . S
H768 C776 0.950 . S
H769 C781 0.950 . S
H770 C778 0.950 . S
H771 C780 0.950 . S
H772 C782 0.950 . S
H773 C784 0.950 . S
H774 C786 0.950 . S
H775 C787 0.950 . S
C776 H768 0.950 . S
C776 C777 1.386 . S
C776 C778 1.391 . S
C777 C776 1.386 . S
C777 C781 1.393 . S
C778 H770 0.950 . S
C778 C776 1.391 . S
C778 C779 1.400 . S
C779 C778 1.400 . S
C779 C780 1.398 . S
C779 C785 1.491 . S
C780 H771 0.950 . S
C780 C779 1.398 . S
C780 C781 1.391 . S
C781 H769 0.950 . S
C781 C777 1.393 . S
C781 C780 1.391 . S
C782 H772 0.950 . S
C782 C783 1.386 . S
C782 C784 1.391 . S
C783 C782 1.386 . S
C783 C787 1.393 . S
C784 H773 0.950 . S
C784 C782 1.391 . S
C784 C785 1.400 . S
C785 C779 1.491 . S
C785 C784 1.400 . S
C785 C786 1.398 . S
C786 H774 0.950 . S
C786 C785 1.398 . S
C786 C787 1.391 . S
C787 H775 0.950 . S
C787 C783 1.393 . S
C787 C786 1.391 . S
H788 C796 0.950 . S
H789 C801 0.950 . S
H790 C798 0.950 . S
H791 C800 0.950 . S
H792 C802 0.950 . S
H793 C804 0.950 . S
H794 C806 0.950 . S
H795 C807 0.950 . S
C796 H788 0.950 . S
C796 C797 1.386 . S
C796 C798 1.391 . S
C797 C796 1.386 . S
C797 C801 1.393 . S
C798 H790 0.950 . S
C798 C796 1.391 . S
C798 C799 1.400 . S
C799 C798 1.400 . S
C799 C800 1.398 . S
C799 C805 1.491 . S
C800 H791 0.950 . S
C800 C799 1.398 . S
C800 C801 1.391 . S
C801 H789 0.950 . S
C801 C797 1.393 . S
C801 C800 1.391 . S
C802 H792 0.950 . S
C802 C803 1.386 . S
C802 C804 1.391 . S
C803 C802 1.386 . S
C803 C807 1.393 . S
C804 H793 0.950 . S
C804 C802 1.391 . S
C804 C805 1.400 . S
C805 C799 1.491 . S
C805 C804 1.400 . S
C805 C806 1.398 . S
C806 H794 0.950 . S
C806 C805 1.398 . S
C806 C807 1.391 . S
C807 H795 0.950 . S
C807 C803 1.393 . S
C807 C806 1.391 . S
H808 C816 0.950 . S
H809 C821 0.950 . S
H810 C818 0.950 . S
H811 C820 0.950 . S
H812 C822 0.950 . S
H813 C824 0.950 . S
H814 C826 0.950 . S
H815 C827 0.950 . S
C816 H808 0.950 . S
C816 C817 1.386 . S
C816 C818 1.391 . S
C817 C816 1.386 . S
C817 C821 1.393 . S
C818 H810 0.950 . S
C818 C816 1.391 . S
C818 C819 1.400 . S
C819 C818 1.400 . S
C819 C820 1.398 . S
C819 C825 1.491 . S
C820 H811 0.950 . S
C820 C819 1.398 . S
C820 C821 1.391 . S
C821 H809 0.950 . S
C821 C817 1.393 . S
C821 C820 1.391 . S
C822 H812 0.950 . S
C822 C823 1.386 . S
C822 C824 1.391 . S
C823 C822 1.386 . S
C823 C827 1.393 . S
C824 H813 0.950 . S
C824 C822 1.391 . S
C824 C825 1.400 . S
C825 C819 1.491 . S
C825 C824 1.400 . S
C825 C826 1.398 . S
C826 H814 0.950 . S
C826 C825 1.398 . S
C826 C827 1.391 . S
C827 H815 0.950 . S
C827 C823 1.393 . S
C827 C826 1.391 . S
H828 C836 0.950 . S
H829 C841 0.950 . S
H830 C838 0.950 . S
H831 C840 0.950 . S
H832 C842 0.950 . S
H833 C844 0.950 . S
H834 C846 0.950 . S
H835 C847 0.950 . S
C836 H828 0.950 . S
C836 C837 1.386 . S
C836 C838 1.391 . S
C837 C836 1.386 . S
C837 C841 1.393 . S
C838 H830 0.950 . S
C838 C836 1.391 . S
C838 C839 1.400 . S
C839 C838 1.400 . S
C839 C840 1.398 . S
C839 C845 1.491 . S
C840 H831 0.950 . S
C840 C839 1.398 . S
C840 C841 1.391 . S
C841 H829 0.950 . S
C841 C837 1.393 . S
C841 C840 1.391 . S
C842 H832 0.950 . S
C842 C843 1.386 . S
C842 C844 1.391 . S
C843 C842 1.386 . S
C843 C847 1.393 . S
C844 H833 0.950 . S
C844 C842 1.391 . S
C844 C845 1.400 . S
C845 C839 1.491 . S
C845 C844 1.400 . S
C845 C846 1.398 . S
C846 H834 0.950 . S
C846 C845 1.398 . S
C846 C847 1.391 . S
C847 H835 0.950 . S
C847 C843 1.393 . S
C847 C846 1.391 . S
H848 C856 0.950 . S
H849 C861 0.950 . S
H850 C858 0.950 . S
H851 C860 0.950 . S
H852 C862 0.950 . S
H853 C864 0.950 . S
H854 C866 0.950 . S
H855 C867 0.950 . S
C856 H848 0.950 . S
C856 C857 1.386 . S
C856 C858 1.391 . S
C857 C856 1.386 . S
C857 C861 1.393 . S
C858 H850 0.950 . S
C858 C856 1.391 . S
C858 C859 1.400 . S
C859 C858 1.400 . S
C859 C860 1.398 . S
C859 C865 1.491 . S
C860 H851 0.950 . S
C860 C859 1.398 . S
C860 C861 1.391 . S
C861 H849 0.950 . S
C861 C857 1.393 . S
C861 C860 1.391 . S
C862 H852 0.950 . S
C862 C863 1.386 . S
C862 C864 1.391 . S
C863 C862 1.386 . S
C863 C867 1.393 . S
C864 H853 0.950 . S
C864 C862 1.391 . S
C864 C865 1.400 . S
C865 C859 1.491 . S
C865 C864 1.400 . S
C865 C866 1.398 . S
C866 H854 0.950 . S
C866 C865 1.398 . S
C866 C867 1.391 . S
C867 H855 0.950 . S
C867 C863 1.393 . S
C867 C866 1.391 . S
H868 C876 0.950 . S
H869 C881 0.950 . S
H870 C878 0.950 . S
H871 C880 0.950 . S
H872 C882 0.950 . S
H873 C884 0.950 . S
H874 C886 0.950 . S
H875 C887 0.950 . S
C876 H868 0.950 . S
C876 C877 1.386 . S
C876 C878 1.391 . S
C877 C876 1.386 . S
C877 C881 1.393 . S
C878 H870 0.950 . S
C878 C876 1.391 . S
C878 C879 1.400 . S
C879 C878 1.400 . S
C879 C880 1.398 . S
C879 C885 1.491 . S
C880 H871 0.950 . S
C880 C879 1.398 . S
C880 C881 1.391 . S
C881 H869 0.950 . S
C881 C877 1.393 . S
C881 C880 1.391 . S
C882 H872 0.950 . S
C882 C883 1.386 . S
C882 C884 1.391 . S
C883 C882 1.386 . S
C883 C887 1.393 . S
C884 H873 0.950 . S
C884 C882 1.391 . S
C884 C885 1.400 . S
C885 C879 1.491 . S
C885 C884 1.400 . S
C885 C886 1.398 . S
C886 H874 0.950 . S
C886 C885 1.398 . S
C886 C887 1.391 . S
C887 H875 0.950 . S
C887 C883 1.393 . S
C887 C886 1.391 . S
H888 C896 0.950 . S
H889 C901 0.950 . S
H890 C898 0.950 . S
H891 C900 0.950 . S
H892 C902 0.950 . S
H893 C904 0.950 . S
H894 C906 0.950 . S
H895 C907 0.950 . S
C896 H888 0.950 . S
C896 C897 1.386 . S
C896 C898 1.391 . S
C897 C896 1.386 . S
C897 C901 1.393 . S
C898 H890 0.950 . S
C898 C896 1.391 . S
C898 C899 1.400 . S
C899 C898 1.400 . S
C899 C900 1.398 . S
C899 C905 1.491 . S
C900 H891 0.950 . S
C900 C899 1.398 . S
C900 C901 1.391 . S
C901 H889 0.950 . S
C901 C897 1.393 . S
C901 C900 1.391 . S
C902 H892 0.950 . S
C902 C903 1.386 . S
C902 C904 1.391 . S
C903 C902 1.386 . S
C903 C907 1.393 . S
C904 H893 0.950 . S
C904 C902 1.391 . S
C904 C905 1.400 . S
C905 C899 1.491 . S
C905 C904 1.400 . S
C905 C906 1.398 . S
C906 H894 0.950 . S
C906 C905 1.398 . S
C906 C907 1.391 . S
C907 H895 0.950 . S
C907 C903 1.393 . S
C907 C906 1.391 . S
H908 C916 0.950 . S
H909 C921 0.950 . S
H910 C918 0.950 . S
H911 C920 0.950 . S
H912 C922 0.950 . S
H913 C924 0.950 . S
H914 C926 0.950 . S
H915 C927 0.950 . S
C916 H908 0.950 . S
C916 C917 1.386 . S
C916 C918 1.391 . S
C917 C916 1.386 . S
C917 C921 1.393 . S
C918 H910 0.950 . S
C918 C916 1.391 . S
C918 C919 1.400 . S
C919 C918 1.400 . S
C919 C920 1.398 . S
C919 C925 1.491 . S
C920 H911 0.950 . S
C920 C919 1.398 . S
C920 C921 1.391 . S
C921 H909 0.950 . S
C921 C917 1.393 . S
C921 C920 1.391 . S
C922 H912 0.950 . S
C922 C923 1.386 . S
C922 C924 1.391 . S
C923 C922 1.386 . S
C923 C927 1.393 . S
C924 H913 0.950 . S
C924 C922 1.391 . S
C924 C925 1.400 . S
C925 C919 1.491 . S
C925 C924 1.400 . S
C925 C926 1.398 . S
C926 H914 0.950 . S
C926 C925 1.398 . S
C926 C927 1.391 . S
C927 H915 0.950 . S
C927 C923 1.393 . S
C927 C926 1.391 . S
H928 C936 0.950 . S
H929 C941 0.950 . S
H930 C938 0.950 . S
H931 C940 0.950 . S
H932 C942 0.950 . S
H933 C944 0.950 . S
H934 C946 0.950 . S
H935 C947 0.950 . S
C936 H928 0.950 . S
C936 C937 1.386 . S
C936 C938 1.391 . S
C937 C936 1.386 . S
C937 C941 1.393 . S
C938 H930 0.950 . S
C938 C936 1.391 . S
C938 C939 1.400 . S
C939 C938 1.400 . S
C939 C940 1.398 . S
C939 C945 1.491 . S
C940 H931 0.950 . S
C940 C939 1.398 . S
C940 C941 1.391 . S
C941 H929 0.950 . S
C941 C937 1.393 . S
C941 C940 1.391 . S
C942 H932 0.950 . S
C942 C943 1.386 . S
C942 C944 1.391 . S
C943 C942 1.386 . S
C943 C947 1.393 . S
C944 H933 0.950 . S
C944 C942 1.391 . S
C944 C945 1.400 . S
C945 C939 1.491 . S
C945 C944 1.400 . S
C945 C946 1.398 . S
C946 H934 0.950 . S
C946 C945 1.398 . S
C946 C947 1.391 . S
C947 H935 0.950 . S
C947 C943 1.393 . S
C947 C946 1.391 . S
H948 C956 0.950 . S
H949 C961 0.950 . S
H950 C958 0.950 . S
H951 C960 0.950 . S
H952 C962 0.950 . S
H953 C964 0.950 . S
H954 C966 0.950 . S
H955 C967 0.950 . S
C956 H948 0.950 . S
C956 C957 1.386 . S
C956 C958 1.391 . S
C957 C956 1.386 . S
C957 C961 1.393 . S
C958 H950 0.950 . S
C958 C956 1.391 . S
C958 C959 1.400 . S
C959 C958 1.400 . S
C959 C960 1.398 . S
C959 C965 1.491 . S
C960 H951 0.950 . S
C960 C959 1.398 . S
C960 C961 1.391 . S
C961 H949 0.950 . S
C961 C957 1.393 . S
C961 C960 1.391 . S
C962 H952 0.950 . S
C962 C963 1.386 . S
C962 C964 1.391 . S
C963 C962 1.386 . S
C963 C967 1.393 . S
C964 H953 0.950 . S
C964 C962 1.391 . S
C964 C965 1.400 . S
C965 C959 1.491 . S
C965 C964 1.400 . S
C965 C966 1.398 . S
C966 H954 0.950 . S
C966 C965 1.398 . S
C966 C967 1.391 . S
C967 H955 0.950 . S
C967 C963 1.393 . S
C967 C966 1.391 . S
H968 C976 0.950 . S
H969 C981 0.950 . S
H970 C978 0.950 . S
H971 C980 0.950 . S
H972 C982 0.950 . S
H973 C984 0.950 . S
H974 C986 0.950 . S
H975 C987 0.950 . S
C976 H968 0.950 . S
C976 C977 1.386 . S
C976 C978 1.391 . S
C977 C976 1.386 . S
C977 C981 1.393 . S
C978 H970 0.950 . S
C978 C976 1.391 . S
C978 C979 1.400 . S
C979 C978 1.400 . S
C979 C980 1.398 . S
C979 C985 1.491 . S
C980 H971 0.950 . S
C980 C979 1.398 . S
C980 C981 1.391 . S
C981 H969 0.950 . S
C981 C977 1.393 . S
C981 C980 1.391 . S
C982 H972 0.950 . S
C982 C983 1.386 . S
C982 C984 1.391 . S
C983 C982 1.386 . S
C983 C987 1.393 . S
C984 H973 0.950 . S
C984 C982 1.391 . S
C984 C985 1.400 . S
C985 C979 1.491 . S
C985 C984 1.400 . S
C985 C986 1.398 . S
C986 H974 0.950 . S
C986 C985 1.398 . S
C986 C987 1.391 . S
C987 H975 0.950 . S
C987 C983 1.393 . S
C987 C986 1.391 . S
H988 C996 0.950 . S
H989 C1001 0.950 . S
H990 C998 0.950 . S
H991 C1000 0.950 . S
H992 C1002 0.950 . S
H993 C1004 0.950 . S
H994 C1006 0.950 . S
H995 C1007 0.950 . S
C996 H988 0.950 . S
C996 C997 1.386 . S
C996 C998 1.391 . S
C997 C996 1.386 . S
C997 C1001 1.393 . S
C998 H990 0.950 . S
C998 C996 1.391 . S
C998 C999 1.400 . S
C999 C998 1.400 . S
C999 C1000 1.398 . S
C999 C1005 1.491 . S
C1000 H991 0.950 . S
C1000 C999 1.398 . S
C1000 C1001 1.391 . S
C1001 H989 0.950 . S
C1001 C997 1.393 . S
C1001 C1000 1.391 . S
C1002 H992 0.950 . S
C1002 C1003 1.386 . S
C1002 C1004 1.391 . S
C1003 C1002 1.386 . S
C1003 C1007 1.393 . S
C1004 H993 0.950 . S
C1004 C1002 1.391 . S
C1004 C1005 1.400 . S
C1005 C999 1.491 . S
C1005 C1004 1.400 . S
C1005 C1006 1.398 . S
C1006 H994 0.950 . S
C1006 C1005 1.398 . S
C1006 C1007 1.391 . S
C1007 H995 0.950 . S
C1007 C1003 1.393 . S
C1007 C1006 1.391 . S
H1008 C1016 0.950 . S
H1009 C1021 0.950 . S
H1010 C1018 0.950 . S
H1011 C1020 0.950 . S
H1012 C1022 0.950 . S
H1013 C1024 0.950 . S
H1014 C1026 0.950 . S
H1015 C1027 0.950 . S
C1016 H1008 0.950 . S
C1016 C1017 1.386 . S
C1016 C1018 1.391 . S
C1017 C1016 1.386 . S
C1017 C1021 1.393 . S
C1018 H1010 0.950 . S
C1018 C1016 1.391 . S
C1018 C1019 1.400 . S
C1019 C1018 1.400 . S
C1019 C1020 1.398 . S
C1019 C1025 1.491 . S
C1020 H1011 0.950 . S
C1020 C1019 1.398 . S
C1020 C1021 1.391 . S
C1021 H1009 0.950 . S
C1021 C1017 1.393 . S
C1021 C1020 1.391 . S
C1022 H1012 0.950 . S
C1022 C1023 1.386 . S
C1022 C1024 1.391 . S
C1023 C1022 1.386 . S
C1023 C1027 1.393 . S
C1024 H1013 0.950 . S
C1024 C1022 1.391 . S
C1024 C1025 1.400 . S
C1025 C1019 1.491 . S
C1025 C1024 1.400 . S
C1025 C1026 1.398 . S
C1026 H1014 0.950 . S
C1026 C1025 1.398 . S
C1026 C1027 1.391 . S
C1027 H1015 0.950 . S
C1027 C1023 1.393 . S
C1027 C1026 1.391 . S
H1028 C1036 0.950 . S
H1029 C1041 0.950 . S
H1030 C1038 0.950 . S
H1031 C1040 0.950 . S
H1032 C1042 0.950 . S
H1033 C1044 0.950 . S
H1034 C1046 0.950 . S
H1035 C1047 0.950 . S
C1036 H1028 0.950 . S
C1036 C1037 1.386 . S
C1036 C1038 1.391 . S
C1037 C1036 1.386 . S
C1037 C1041 1.393 . S
C1038 H1030 0.950 . S
C1038 C1036 1.391 . S
C1038 C1039 1.400 . S
C1039 C1038 1.400 . S
C1039 C1040 1.398 . S
C1039 C1045 1.491 . S
C1040 H1031 0.950 . S
C1040 C1039 1.398 . S
C1040 C1041 1.391 . S
C1041 H1029 0.950 . S
C1041 C1037 1.393 . S
C1041 C1040 1.391 . S
C1042 H1032 0.950 . S
C1042 C1043 1.386 . S
C1042 C1044 1.391 . S
C1043 C1042 1.386 . S
C1043 C1047 1.393 . S
C1044 H1033 0.950 . S
C1044 C1042 1.391 . S
C1044 C1045 1.400 . S
C1045 C1039 1.491 . S
C1045 C1044 1.400 . S
C1045 C1046 1.398 . S
C1046 H1034 0.950 . S
C1046 C1045 1.398 . S
C1046 C1047 1.391 . S
C1047 H1035 0.950 . S
C1047 C1043 1.393 . S
C1047 C1046 1.391 . S
H1048 C1056 0.950 . S
H1049 C1061 0.950 . S
H1050 C1058 0.950 . S
H1051 C1060 0.950 . S
H1052 C1062 0.950 . S
H1053 C1064 0.950 . S
H1054 C1066 0.950 . S
H1055 C1067 0.950 . S
C1056 H1048 0.950 . S
C1056 C1057 1.386 . S
C1056 C1058 1.391 . S
C1057 C1056 1.386 . S
C1057 C1061 1.393 . S
C1058 H1050 0.950 . S
C1058 C1056 1.391 . S
C1058 C1059 1.400 . S
C1059 C1058 1.400 . S
C1059 C1060 1.398 . S
C1059 C1065 1.491 . S
C1060 H1051 0.950 . S
C1060 C1059 1.398 . S
C1060 C1061 1.391 . S
C1061 H1049 0.950 . S
C1061 C1057 1.393 . S
C1061 C1060 1.391 . S
C1062 H1052 0.950 . S
C1062 C1063 1.386 . S
C1062 C1064 1.391 . S
C1063 C1062 1.386 . S
C1063 C1067 1.393 . S
C1064 H1053 0.950 . S
C1064 C1062 1.391 . S
C1064 C1065 1.400 . S
C1065 C1059 1.491 . S
C1065 C1064 1.400 . S
C1065 C1066 1.398 . S
C1066 H1054 0.950 . S
C1066 C1065 1.398 . S
C1066 C1067 1.391 . S
C1067 H1055 0.950 . S
C1067 C1063 1.393 . S
C1067 C1066 1.391 . S
H1068 C1076 0.950 . S
H1069 C1081 0.950 . S
H1070 C1078 0.950 . S
H1071 C1080 0.950 . S
H1072 C1082 0.950 . S
H1073 C1084 0.950 . S
H1074 C1086 0.950 . S
H1075 C1087 0.950 . S
C1076 H1068 0.950 . S
C1076 C1077 1.386 . S
C1076 C1078 1.391 . S
C1077 C1076 1.386 . S
C1077 C1081 1.393 . S
C1078 H1070 0.950 . S
C1078 C1076 1.391 . S
C1078 C1079 1.400 . S
C1079 C1078 1.400 . S
C1079 C1080 1.398 . S
C1079 C1085 1.491 . S
C1080 H1071 0.950 . S
C1080 C1079 1.398 . S
C1080 C1081 1.391 . S
C1081 H1069 0.950 . S
C1081 C1077 1.393 . S
C1081 C1080 1.391 . S
C1082 H1072 0.950 . S
C1082 C1083 1.386 . S
C1082 C1084 1.391 . S
C1083 C1082 1.386 . S
C1083 C1087 1.393 . S
C1084 H1073 0.950 . S
C1084 C1082 1.391 . S
C1084 C1085 1.400 . S
C1085 C1079 1.491 . S
C1085 C1084 1.400 . S
C1085 C1086 1.398 . S
C1086 H1074 0.950 . S
C1086 C1085 1.398 . S
C1086 C1087 1.391 . S
C1087 H1075 0.950 . S
C1087 C1083 1.393 . S
C1087 C1086 1.391 . S
H1088 C1096 0.950 . S
H1089 C1101 0.950 . S
H1090 C1098 0.950 . S
H1091 C1100 0.950 . S
H1092 C1102 0.950 . S
H1093 C1104 0.950 . S
H1094 C1106 0.950 . S
H1095 C1107 0.950 . S
C1096 H1088 0.950 . S
C1096 C1097 1.386 . S
C1096 C1098 1.391 . S
C1097 C1096 1.386 . S
C1097 C1101 1.393 . S
C1098 H1090 0.950 . S
C1098 C1096 1.391 . S
C1098 C1099 1.400 . S
C1099 C1098 1.400 . S
C1099 C1100 1.398 . S
C1099 C1105 1.491 . S
C1100 H1091 0.950 . S
C1100 C1099 1.398 . S
C1100 C1101 1.391 . S
C1101 H1089 0.950 . S
C1101 C1097 1.393 . S
C1101 C1100 1.391 . S
C1102 H1092 0.950 . S
C1102 C1103 1.386 . S
C1102 C1104 1.391 . S
C1103 C1102 1.386 . S
C1103 C1107 1.393 . S
C1104 H1093 0.950 . S
C1104 C1102 1.391 . S
C1104 C1105 1.400 . S
C1105 C1099 1.491 . S
C1105 C1104 1.400 . S
C1105 C1106 1.398 . S
C1106 H1094 0.950 . S
C1106 C1105 1.398 . S
C1106 C1107 1.391 . S
C1107 H1095 0.950 . S
C1107 C1103 1.393 . S
C1107 C1106 1.391 . S
H1108 C1116 0.950 . S
H1109 C1121 0.950 . S
H1110 C1118 0.950 . S
H1111 C1120 0.950 . S
H1112 C1122 0.950 . S
H1113 C1124 0.950 . S
H1114 C1126 0.950 . S
H1115 C1127 0.950 . S
C1116 H1108 0.950 . S
C1116 C1117 1.386 . S
C1116 C1118 1.391 . S
C1117 C1116 1.386 . S
C1117 C1121 1.393 . S
C1118 H1110 0.950 . S
C1118 C1116 1.391 . S
C1118 C1119 1.400 . S
C1119 C1118 1.400 . S
C1119 C1120 1.398 . S
C1119 C1125 1.491 . S
C1120 H1111 0.950 . S
C1120 C1119 1.398 . S
C1120 C1121 1.391 . S
C1121 H1109 0.950 . S
C1121 C1117 1.393 . S
C1121 C1120 1.391 . S
C1122 H1112 0.950 . S
C1122 C1123 1.386 . S
C1122 C1124 1.391 . S
C1123 C1122 1.386 . S
C1123 C1127 1.393 . S
C1124 H1113 0.950 . S
C1124 C1122 1.391 . S
C1124 C1125 1.400 . S
C1125 C1119 1.491 . S
C1125 C1124 1.400 . S
C1125 C1126 1.398 . S
C1126 H1114 0.950 . S
C1126 C1125 1.398 . S
C1126 C1127 1.391 . S
C1127 H1115 0.950 . S
C1127 C1123 1.393 . S
C1127 C1126 1.391 . S
H1128 C1136 0.950 . S
H1129 C1141 0.950 . S
H1130 C1138 0.950 . S
H1131 C1140 0.950 . S
H1132 C1142 0.950 . S
H1133 C1144 0.950 . S
H1134 C1146 0.950 . S
H1135 C1147 0.950 . S
C1136 H1128 0.950 . S
C1136 C1137 1.386 . S
C1136 C1138 1.391 . S
C1137 C1136 1.386 . S
C1137 C1141 1.393 . S
C1138 H1130 0.950 . S
C1138 C1136 1.391 . S
C1138 C1139 1.400 . S
C1139 C1138 1.400 . S
C1139 C1140 1.398 . S
C1139 C1145 1.491 . S
C1140 H1131 0.950 . S
C1140 C1139 1.398 . S
C1140 C1141 1.391 . S
C1141 H1129 0.950 . S
C1141 C1137 1.393 . S
C1141 C1140 1.391 . S
C1142 H1132 0.950 . S
C1142 C1143 1.386 . S
C1142 C1144 1.391 . S
C1143 C1142 1.386 . S
C1143 C1147 1.393 . S
C1144 H1133 0.950 . S
C1144 C1142 1.391 . S
C1144 C1145 1.400 . S
C1145 C1139 1.491 . S
C1145 C1144 1.400 . S
C1145 C1146 1.398 . S
C1146 H1134 0.950 . S
C1146 C1145 1.398 . S
C1146 C1147 1.391 . S
C1147 H1135 0.950 . S
C1147 C1143 1.393 . S
C1147 C1146 1.391 . S
H1148 C1156 0.950 . S
H1149 C1161 0.950 . S
H1150 C1158 0.950 . S
H1151 C1160 0.950 . S
H1152 C1162 0.950 . S
H1153 C1164 0.950 . S
H1154 C1166 0.950 . S
H1155 C1167 0.950 . S
C1156 H1148 0.950 . S
C1156 C1157 1.386 . S
C1156 C1158 1.391 . S
C1157 C1156 1.386 . S
C1157 C1161 1.393 . S
C1158 H1150 0.950 . S
C1158 C1156 1.391 . S
C1158 C1159 1.400 . S
C1159 C1158 1.400 . S
C1159 C1160 1.398 . S
C1159 C1165 1.491 . S
C1160 H1151 0.950 . S
C1160 C1159 1.398 . S
C1160 C1161 1.391 . S
C1161 H1149 0.950 . S
C1161 C1157 1.393 . S
C1161 C1160 1.391 . S
C1162 H1152 0.950 . S
C1162 C1163 1.386 . S
C1162 C1164 1.391 . S
C1163 C1162 1.386 . S
C1163 C1167 1.393 . S
C1164 H1153 0.950 . S
C1164 C1162 1.391 . S
C1164 C1165 1.400 . S
C1165 C1159 1.491 . S
C1165 C1164 1.400 . S
C1165 C1166 1.398 . S
C1166 H1154 0.950 . S
C1166 C1165 1.398 . S
C1166 C1167 1.391 . S
C1167 H1155 0.950 . S
C1167 C1163 1.393 . S
C1167 C1166 1.391 . S
H1168 C1176 0.950 . S
H1169 C1181 0.950 . S
H1170 C1178 0.950 . S
H1171 C1180 0.950 . S
H1172 C1182 0.950 . S
H1173 C1184 0.950 . S
H1174 C1186 0.950 . S
H1175 C1187 0.950 . S
C1176 H1168 0.950 . S
C1176 C1177 1.386 . S
C1176 C1178 1.391 . S
C1177 C1176 1.386 . S
C1177 C1181 1.393 . S
C1178 H1170 0.950 . S
C1178 C1176 1.391 . S
C1178 C1179 1.400 . S
C1179 C1178 1.400 . S
C1179 C1180 1.398 . S
C1179 C1185 1.491 . S
C1180 H1171 0.950 . S
C1180 C1179 1.398 . S
C1180 C1181 1.391 . S
C1181 H1169 0.950 . S
C1181 C1177 1.393 . S
C1181 C1180 1.391 . S
C1182 H1172 0.950 . S
C1182 C1183 1.386 . S
C1182 C1184 1.391 . S
C1183 C1182 1.386 . S
C1183 C1187 1.393 . S
C1184 H1173 0.950 . S
C1184 C1182 1.391 . S
C1184 C1185 1.400 . S
C1185 C1179 1.491 . S
C1185 C1184 1.400 . S
C1185 C1186 1.398 . S
C1186 H1174 0.950 . S
C1186 C1185 1.398 . S
C1186 C1187 1.391 . S
C1187 H1175 0.950 . S
C1187 C1183 1.393 . S
C1187 C1186 1.391 . S
H1188 C1196 0.950 . S
H1189 C1201 0.950 . S
H1190 C1198 0.950 . S
H1191 C1200 0.950 . S
H1192 C1202 0.950 . S
H1193 C1204 0.950 . S
H1194 C1206 0.950 . S
H1195 C1207 0.950 . S
C1196 H1188 0.950 . S
C1196 C1197 1.386 . S
C1196 C1198 1.391 . S
C1197 C1196 1.386 . S
C1197 C1201 1.393 . S
C1198 H1190 0.950 . S
C1198 C1196 1.391 . S
C1198 C1199 1.400 . S
C1199 C1198 1.400 . S
C1199 C1200 1.398 . S
C1199 C1205 1.491 . S
C1200 H1191 0.950 . S
C1200 C1199 1.398 . S
C1200 C1201 1.391 . S
C1201 H1189 0.950 . S
C1201 C1197 1.393 . S
C1201 C1200 1.391 . S
C1202 H1192 0.950 . S
C1202 C1203 1.386 . S
C1202 C1204 1.391 . S
C1203 C1202 1.386 . S
C1203 C1207 1.393 . S
C1204 H1193 0.950 . S
C1204 C1202 1.391 . S
C1204 C1205 1.400 . S
C1205 C1199 1.491 . S
C1205 C1204 1.400 . S
C1205 C1206 1.398 . S
C1206 H1194 0.950 . S
C1206 C1205 1.398 . S
C1206 C1207 1.391 . S
C1207 H1195 0.950 . S
C1207 C1203 1.393 . S
C1207 C1206 1.391 . S
H1208 C1216 0.950 . S
H1209 C1221 0.950 . S
H1210 C1218 0.950 . S
H1211 C1220 0.950 . S
H1212 C1222 0.950 . S
H1213 C1224 0.950 . S
H1214 C1226 0.950 . S
H1215 C1227 0.950 . S
C1216 H1208 0.950 . S
C1216 C1217 1.386 . S
C1216 C1218 1.391 . S
C1217 C1216 1.386 . S
C1217 C1221 1.393 . S
C1218 H1210 0.950 . S
C1218 C1216 1.391 . S
C1218 C1219 1.400 . S
C1219 C1218 1.400 . S
C1219 C1220 1.398 . S
C1219 C1225 1.491 . S
C1220 H1211 0.950 . S
C1220 C1219 1.398 . S
C1220 C1221 1.391 . S
C1221 H1209 0.950 . S
C1221 C1217 1.393 . S
C1221 C1220 1.391 . S
C1222 H1212 0.950 . S
C1222 C1223 1.386 . S
C1222 C1224 1.391 . S
C1223 C1222 1.386 . S
C1223 C1227 1.393 . S
C1224 H1213 0.950 . S
C1224 C1222 1.391 . S
C1224 C1225 1.400 . S
C1225 C1219 1.491 . S
C1225 C1224 1.400 . S
C1225 C1226 1.398 . S
C1226 H1214 0.950 . S
C1226 C1225 1.398 . S
C1226 C1227 1.391 . S
C1227 H1215 0.950 . S
C1227 C1223 1.393 . S
C1227 C1226 1.391 . S
H1228 C1236 0.950 . S
H1229 C1241 0.950 . S
H1230 C1238 0.950 . S
H1231 C1240 0.950 . S
H1232 C1242 0.950 . S
H1233 C1244 0.950 . S
H1234 C1246 0.950 . S
H1235 C1247 0.950 . S
C1236 H1228 0.950 . S
C1236 C1237 1.386 . S
C1236 C1238 1.391 . S
C1237 C1236 1.386 . S
C1237 C1241 1.393 . S
C1238 H1230 0.950 . S
C1238 C1236 1.391 . S
C1238 C1239 1.400 . S
C1239 C1238 1.400 . S
C1239 C1240 1.398 . S
C1239 C1245 1.491 . S
C1240 H1231 0.950 . S
C1240 C1239 1.398 . S
C1240 C1241 1.391 . S
C1241 H1229 0.950 . S
C1241 C1237 1.393 . S
C1241 C1240 1.391 . S
C1242 H1232 0.950 . S
C1242 C1243 1.386 . S
C1242 C1244 1.391 . S
C1243 C1242 1.386 . S
C1243 C1247 1.393 . S
C1244 H1233 0.950 . S
C1244 C1242 1.391 . S
C1244 C1245 1.400 . S
C1245 C1239 1.491 . S
C1245 C1244 1.400 . S
C1245 C1246 1.398 . S
C1246 H1234 0.950 . S
C1246 C1245 1.398 . S
C1246 C1247 1.391 . S
C1247 H1235 0.950 . S
C1247 C1243 1.393 . S
C1247 C1246 1.391 . S
H1248 C1256 0.950 . S
H1249 C1261 0.950 . S
H1250 C1258 0.950 . S
H1251 C1260 0.950 . S
H1252 C1262 0.950 . S
H1253 C1264 0.950 . S
H1254 C1266 0.950 . S
H1255 C1267 0.950 . S
C1256 H1248 0.950 . S
C1256 C1257 1.386 . S
C1256 C1258 1.391 . S
C1257 C1256 1.386 . S
C1257 C1261 1.393 . S
C1258 H1250 0.950 . S
C1258 C1256 1.391 . S
C1258 C1259 1.400 . S
C1259 C1258 1.400 . S
C1259 C1260 1.398 . S
C1259 C1265 1.491 . S
C1260 H1251 0.950 . S
C1260 C1259 1.398 . S
C1260 C1261 1.391 . S
C1261 H1249 0.950 . S
C1261 C1257 1.393 . S
C1261 C1260 1.391 . S
C1262 H1252 0.950 . S
C1262 C1263 1.386 . S
C1262 C1264 1.391 . S
C1263 C1262 1.386 . S
C1263 C1267 1.393 . S
C1264 H1253 0.950 . S
C1264 C1262 1.391 . S
C1264 C1265 1.400 . S
C1265 C1259 1.491 . S
C1265 C1264 1.400 . S
C1265 C1266 1.398 . S
C1266 H1254 0.950 . S
C1266 C1265 1.398 . S
C1266 C1267 1.391 . S
C1267 H1255 0.950 . S
C1267 C1263 1.393 . S
C1267 C1266 1.391 . S
H1268 C1276 0.950 . S
H1269 C1281 0.950 . S
H1270 C1278 0.950 . S
H1271 C1280 0.950 . S
H1272 C1282 0.950 . S
H1273 C1284 0.950 . S
H1274 C1286 0.950 . S
H1275 C1287 0.950 . S
C1276 H1268 0.950 . S
C1276 C1277 1.386 . S
C1276 C1278 1.391 . S
C1277 C1276 1.386 . S
C1277 C1281 1.393 . S
C1278 H1270 0.950 . S
C1278 C1276 1.391 . S
C1278 C1279 1.400 . S
C1279 C1278 1.400 . S
C1279 C1280 1.398 . S
C1279 C1285 1.491 . S
C1280 H1271 0.950 . S
C1280 C1279 1.398 . S
C1280 C1281 1.391 . S
C1281 H1269 0.950 . S
C1281 C1277 1.393 . S
C1281 C1280 1.391 . S
C1282 H1272 0.950 . S
C1282 C1283 1.386 . S
C1282 C1284 1.391 . S
C1283 C1282 1.386 . S
C1283 C1287 1.393 . S
C1284 H1273 0.950 . S
C1284 C1282 1.391 . S
C1284 C1285 1.400 . S
C1285 C1279 1.491 . S
C1285 C1284 1.400 . S
C1285 C1286 1.398 . S
C1286 H1274 0.950 . S
C1286 C1285 1.398 . S
C1286 C1287 1.391 . S
C1287 H1275 0.950 . S
C1287 C1283 1.393 . S
C1287 C1286 1.391 . S
H1288 C1296 0.950 . S
H1289 C1301 0.950 . S
H1290 C1298 0.950 . S
H1291 C1300 0.950 . S
H1292 C1302 0.950 . S
H1293 C1304 0.950 . S
H1294 C1306 0.950 . S
H1295 C1307 0.950 . S
C1296 H1288 0.950 . S
C1296 C1297 1.386 . S
C1296 C1298 1.391 . S
C1297 C1296 1.386 . S
C1297 C1301 1.393 . S
C1298 H1290 0.950 . S
C1298 C1296 1.391 . S
C1298 C1299 1.400 . S
C1299 C1298 1.400 . S
C1299 C1300 1.398 . S
C1299 C1305 1.491 . S
C1300 H1291 0.950 . S
C1300 C1299 1.398 . S
C1300 C1301 1.391 . S
C1301 H1289 0.950 . S
C1301 C1297 1.393 . S
C1301 C1300 1.391 . S
C1302 H1292 0.950 . S
C1302 C1303 1.386 . S
C1302 C1304 1.391 . S
C1303 C1302 1.386 . S
C1303 C1307 1.393 . S
C1304 H1293 0.950 . S
C1304 C1302 1.391 . S
C1304 C1305 1.400 . S
C1305 C1299 1.491 . S
C1305 C1304 1.400 . S
C1305 C1306 1.398 . S
C1306 H1294 0.950 . S
C1306 C1305 1.398 . S
C1306 C1307 1.391 . S
C1307 H1295 0.950 . S
C1307 C1303 1.393 . S
C1307 C1306 1.391 . S
H1308 C1316 0.950 . S
H1309 C1321 0.950 . S
H1310 C1318 0.950 . S
H1311 C1320 0.950 . S
H1312 C1322 0.950 . S
H1313 C1324 0.950 . S
H1314 C1326 0.950 . S
H1315 C1327 0.950 . S
C1316 H1308 0.950 . S
C1316 C1317 1.386 . S
C1316 C1318 1.391 . S
C1317 C1316 1.386 . S
C1317 C1321 1.393 . S
C1318 H1310 0.950 . S
C1318 C1316 1.391 . S
C1318 C1319 1.400 . S
C1319 C1318 1.400 . S
C1319 C1320 1.398 . S
C1319 C1325 1.491 . S
C1320 H1311 0.950 . S
C1320 C1319 1.398 . S
C1320 C1321 1.391 . S
C1321 H1309 0.950 . S
C1321 C1317 1.393 . S
C1321 C1320 1.391 . S
C1322 H1312 0.950 . S
C1322 C1323 1.386 . S
C1322 C1324 1.391 . S
C1323 C1322 1.386 . S
C1323 C1327 1.393 . S
C1324 H1313 0.950 . S
C1324 C1322 1.391 . S
C1324 C1325 1.400 . S
C1325 C1319 1.491 . S
C1325 C1324 1.400 . S
C1325 C1326 1.398 . S
C1326 H1314 0.950 . S
C1326 C1325 1.398 . S
C1326 C1327 1.391 . S
C1327 H1315 0.950 . S
C1327 C1323 1.393 . S
C1327 C1326 1.391 . S
H1328 C1336 0.950 . S
H1329 C1341 0.950 . S
H1330 C1338 0.950 . S
H1331 C1340 0.950 . S
H1332 C1342 0.950 . S
H1333 C1344 0.950 . S
H1334 C1346 0.950 . S
H1335 C1347 0.950 . S
C1336 H1328 0.950 . S
C1336 C1337 1.386 . S
C1336 C1338 1.391 . S
C1337 C1336 1.386 . S
C1337 C1341 1.393 . S
C1338 H1330 0.950 . S
C1338 C1336 1.391 . S
C1338 C1339 1.400 . S
C1339 C1338 1.400 . S
C1339 C1340 1.398 . S
C1339 C1345 1.491 . S
C1340 H1331 0.950 . S
C1340 C1339 1.398 . S
C1340 C1341 1.391 . S
C1341 H1329 0.950 . S
C1341 C1337 1.393 . S
C1341 C1340 1.391 . S
C1342 H1332 0.950 . S
C1342 C1343 1.386 . S
C1342 C1344 1.391 . S
C1343 C1342 1.386 . S
C1343 C1347 1.393 . S
C1344 H1333 0.950 . S
C1344 C1342 1.391 . S
C1344 C1345 1.400 . S
C1345 C1339 1.491 . S
C1345 C1344 1.400 . S
C1345 C1346 1.398 . S
C1346 H1334 0.950 . S
C1346 C1345 1.398 . S
C1346 C1347 1.391 . S
C1347 H1335 0.950 . S
C1347 C1343 1.393 . S
C1347 C1346 1.391 . S
H1348 C1356 0.950 . S
H1349 C1361 0.950 . S
H1350 C1358 0.950 . S
H1351 C1360 0.950 . S
H1352 C1362 0.950 . S
H1353 C1364 0.950 . S
H1354 C1366 0.950 . S
H1355 C1367 0.950 . S
C1356 H1348 0.950 . S
C1356 C1357 1.386 . S
C1356 C1358 1.391 . S
C1357 C1356 1.386 . S
C1357 C1361 1.393 . S
C1358 H1350 0.950 . S
C1358 C1356 1.391 . S
C1358 C1359 1.400 . S
C1359 C1358 1.400 . S
C1359 C1360 1.398 . S
C1359 C1365 1.491 . S
C1360 H1351 0.950 . S
C1360 C1359 1.398 . S
C1360 C1361 1.391 . S
C1361 H1349 0.950 . S
C1361 C1357 1.393 . S
C1361 C1360 1.391 . S
C1362 H1352 0.950 . S
C1362 C1363 1.386 . S
C1362 C1364 1.391 . S
C1363 C1362 1.386 . S
C1363 C1367 1.393 . S
C1364 H1353 0.950 . S
C1364 C1362 1.391 . S
C1364 C1365 1.400 . S
C1365 C1359 1.491 . S
C1365 C1364 1.400 . S
C1365 C1366 1.398 . S
C1366 H1354 0.950 . S
C1366 C1365 1.398 . S
C1366 C1367 1.391 . S
C1367 H1355 0.950 . S
C1367 C1363 1.393 . S
C1367 C1366 1.391 . S
H1368 C1376 0.950 . S
H1369 C1381 0.950 . S
H1370 C1378 0.950 . S
H1371 C1380 0.950 . S
H1372 C1382 0.950 . S
H1373 C1384 0.950 . S
H1374 C1386 0.950 . S
H1375 C1387 0.950 . S
C1376 H1368 0.950 . S
C1376 C1377 1.386 . S
C1376 C1378 1.391 . S
C1377 C1376 1.386 . S
C1377 C1381 1.393 . S
C1378 H1370 0.950 . S
C1378 C1376 1.391 . S
C1378 C1379 1.400 . S
C1379 C1378 1.400 . S
C1379 C1380 1.398 . S
C1379 C1385 1.491 . S
C1380 H1371 0.950 . S
C1380 C1379 1.398 . S
C1380 C1381 1.391 . S
C1381 H1369 0.950 . S
C1381 C1377 1.393 . S
C1381 C1380 1.391 . S
C1382 H1372 0.950 . S
C1382 C1383 1.386 . S
C1382 C1384 1.391 . S
C1383 C1382 1.386 . S
C1383 C1387 1.393 . S
C1384 H1373 0.950 . S
C1384 C1382 1.391 . S
C1384 C1385 1.400 . S
C1385 C1379 1.491 . S
C1385 C1384 1.400 . S
C1385 C1386 1.398 . S
C1386 H1374 0.950 . S
C1386 C1385 1.398 . S
C1386 C1387 1.391 . S
C1387 H1375 0.950 . S
C1387 C1383 1.393 . S
C1387 C1386 1.391 . S
H1388 C1396 0.950 . S
H1389 C1401 0.950 . S
H1390 C1398 0.950 . S
H1391 C1400 0.950 . S
H1392 C1402 0.950 . S
H1393 C1404 0.950 . S
H1394 C1406 0.950 . S
H1395 C1407 0.950 . S
C1396 H1388 0.950 . S
C1396 C1397 1.386 . S
C1396 C1398 1.391 . S
C1397 C1396 1.386 . S
C1397 C1401 1.393 . S
C1398 H1390 0.950 . S
C1398 C1396 1.391 . S
C1398 C1399 1.400 . S
C1399 C1398 1.400 . S
C1399 C1400 1.398 . S
C1399 C1405 1.491 . S
C1400 H1391 0.950 . S
C1400 C1399 1.398 . S
C1400 C1401 1.391 . S
C1401 H1389 0.950 . S
C1401 C1397 1.393 . S
C1401 C1400 1.391 . S
C1402 H1392 0.950 . S
C1402 C1403 1.386 . S
C1402 C1404 1.391 . S
C1403 C1402 1.386 . S
C1403 C1407 1.393 . S
C1404 H1393 0.950 . S
C1404 C1402 1.391 . S
C1404 C1405 1.400 . S
C1405 C1399 1.491 . S
C1405 C1404 1.400 . S
C1405 C1406 1.398 . S
C1406 H1394 0.950 . S
C1406 C1405 1.398 . S
C1406 C1407 1.391 . S
C1407 H1395 0.950 . S
C1407 C1403 1.393 . S
C1407 C1406 1.391 . S
H1408 C1416 0.950 . S
H1409 C1421 0.950 . S
H1410 C1418 0.950 . S
H1411 C1420 0.950 . S
H1412 C1422 0.950 . S
H1413 C1424 0.950 . S
H1414 C1426 0.950 . S
H1415 C1427 0.950 . S
C1416 H1408 0.950 . S
C1416 C1417 1.386 . S
C1416 C1418 1.391 . S
C1417 C1416 1.386 . S
C1417 C1421 1.393 . S
C1418 H1410 0.950 . S
C1418 C1416 1.391 . S
C1418 C1419 1.400 . S
C1419 C1418 1.400 . S
C1419 C1420 1.398 . S
C1419 C1425 1.491 . S
C1420 H1411 0.950 . S
C1420 C1419 1.398 . S
C1420 C1421 1.391 . S
C1421 H1409 0.950 . S
C1421 C1417 1.393 . S
C1421 C1420 1.391 . S
C1422 H1412 0.950 . S
C1422 C1423 1.386 . S
C1422 C1424 1.391 . S
C1423 C1422 1.386 . S
C1423 C1427 1.393 . S
C1424 H1413 0.950 . S
C1424 C1422 1.391 . S
C1424 C1425 1.400 . S
C1425 C1419 1.491 . S
C1425 C1424 1.400 . S
C1425 C1426 1.398 . S
C1426 H1414 0.950 . S
C1426 C1425 1.398 . S
C1426 C1427 1.391 . S
C1427 H1415 0.950 . S
C1427 C1423 1.393 . S
C1427 C1426 1.391 . S
H1428 C1436 0.950 . S
H1429 C1441 0.950 . S
H1430 C1438 0.950 . S
H1431 C1440 0.950 . S
H1432 C1442 0.950 . S
H1433 C1444 0.950 . S
H1434 C1446 0.950 . S
H1435 C1447 0.950 . S
C1436 H1428 0.950 . S
C1436 C1437 1.386 . S
C1436 C1438 1.391 . S
C1437 C1436 1.386 . S
C1437 C1441 1.393 . S
C1438 H1430 0.950 . S
C1438 C1436 1.391 . S
C1438 C1439 1.400 . S
C1439 C1438 1.400 . S
C1439 C1440 1.398 . S
C1439 C1445 1.491 . S
C1440 H1431 0.950 . S
C1440 C1439 1.398 . S
C1440 C1441 1.391 . S
C1441 H1429 0.950 . S
C1441 C1437 1.393 . S
C1441 C1440 1.391 . S
C1442 H1432 0.950 . S
C1442 C1443 1.386 . S
C1442 C1444 1.391 . S
C1443 C1442 1.386 . S
C1443 C1447 1.393 . S
C1444 H1433 0.950 . S
C1444 C1442 1.391 . S
C1444 C1445 1.400 . S
C1445 C1439 1.491 . S
C1445 C1444 1.400 . S
C1445 C1446 1.398 . S
C1446 H1434 0.950 . S
C1446 C1445 1.398 . S
C1446 C1447 1.391 . S
C1447 H1435 0.950 . S
C1447 C1443 1.393 . S
C1447 C1446 1.391 . S
H1448 C1456 0.950 . S
H1449 C1461 0.950 . S
H1450 C1458 0.950 . S
H1451 C1460 0.950 . S
H1452 C1462 0.950 . S
H1453 C1464 0.950 . S
H1454 C1466 0.950 . S
H1455 C1467 0.950 . S
C1456 H1448 0.950 . S
C1456 C1457 1.386 . S
C1456 C1458 1.391 . S
C1457 C1456 1.386 . S
C1457 C1461 1.393 . S
C1458 H1450 0.950 . S
C1458 C1456 1.391 . S
C1458 C1459 1.400 . S
C1459 C1458 1.400 . S
C1459 C1460 1.398 . S
C1459 C1465 1.491 . S
C1460 H1451 0.950 . S
C1460 C1459 1.398 . S
C1460 C1461 1.391 . S
C1461 H1449 0.950 . S
C1461 C1457 1.393 . S
C1461 C1460 1.391 . S
C1462 H1452 0.950 . S
C1462 C1463 1.386 . S
C1462 C1464 1.391 . S
C1463 C1462 1.386 . S
C1463 C1467 1.393 . S
C1464 H1453 0.950 . S
C1464 C1462 1.391 . S
C1464 C1465 1.400 . S
C1465 C1459 1.491 . S
C1465 C1464 1.400 . S
C1465 C1466 1.398 . S
C1466 H1454 0.950 . S
C1466 C1465 1.398 . S
C1466 C1467 1.391 . S
C1467 H1455 0.950 . S
C1467 C1463 1.393 . S
C1467 C1466 1.391 . S
H1468 C1476 0.950 . S
H1469 C1481 0.950 . S
H1470 C1478 0.950 . S
H1471 C1480 0.950 . S
H1472 C1482 0.950 . S
H1473 C1484 0.950 . S
H1474 C1486 0.950 . S
H1475 C1487 0.950 . S
C1476 H1468 0.950 . S
C1476 C1477 1.386 . S
C1476 C1478 1.391 . S
C1477 C1476 1.386 . S
C1477 C1481 1.393 . S
C1478 H1470 0.950 . S
C1478 C1476 1.391 . S
C1478 C1479 1.400 . S
C1479 C1478 1.400 . S
C1479 C1480 1.398 . S
C1479 C1485 1.491 . S
C1480 H1471 0.950 . S
C1480 C1479 1.398 . S
C1480 C1481 1.391 . S
C1481 H1469 0.950 . S
C1481 C1477 1.393 . S
C1481 C1480 1.391 . S
C1482 H1472 0.950 . S
C1482 C1483 1.386 . S
C1482 C1484 1.391 . S
C1483 C1482 1.386 . S
C1483 C1487 1.393 . S
C1484 H1473 0.950 . S
C1484 C1482 1.391 . S
C1484 C1485 1.400 . S
C1485 C1479 1.491 . S
C1485 C1484 1.400 . S
C1485 C1486 1.398 . S
C1486 H1474 0.950 . S
C1486 C1485 1.398 . S
C1486 C1487 1.391 . S
C1487 H1475 0.950 . S
C1487 C1483 1.393 . S
C1487 C1486 1.391 . S
H1488 C1496 0.950 . S
H1489 C1501 0.950 . S
H1490 C1498 0.950 . S
H1491 C1500 0.950 . S
H1492 C1502 0.950 . S
H1493 C1504 0.950 . S
H1494 C1506 0.950 . S
H1495 C1507 0.950 . S
C1496 H1488 0.950 . S
C1496 C1497 1.386 . S
C1496 C1498 1.391 . S
C1497 C1496 1.386 . S
C1497 C1501 1.393 . S
C1498 H1490 0.950 . S
C1498 C1496 1.391 . S
C1498 C1499 1.400 . S
C1499 C1498 1.400 . S
C1499 C1500 1.398 . S
C1499 C1505 1.491 1_655 S
C1500 H1491 0.950 . S
C1500 C1499 1.398 . S
C1500 C1501 1.391 . S
C1501 H1489 0.950 . S
C1501 C1497 1.393 . S
C1501 C1500 1.391 . S
C1502 H1492 0.950 . S
C1502 C1503 1.386 . S
C1502 C1504 1.391 . S
C1503 C1502 1.386 . S
C1503 C1507 1.393 . S
C1504 H1493 0.950 . S
C1504 C1502 1.391 . S
C1504 C1505 1.400 . S
C1505 C1499 1.491 1_455 S
C1505 C1504 1.400 . S
C1505 C1506 1.398 . S
C1506 H1494 0.950 . S
C1506 C1505 1.398 . S
C1506 C1507 1.391 . S
C1507 H1495 0.950 . S
C1507 C1503 1.393 . S
C1507 C1506 1.391 . S
H1508 C1516 0.950 . S
H1509 C1521 0.950 . S
H1510 C1518 0.950 . S
H1511 C1520 0.950 . S
H1512 C1522 0.950 . S
H1513 C1524 0.950 . S
H1514 C1526 0.950 . S
H1515 C1527 0.950 . S
C1516 H1508 0.950 . S
C1516 C1517 1.386 . S
C1516 C1518 1.391 . S
C1517 C1516 1.386 . S
C1517 C1521 1.393 . S
C1518 H1510 0.950 . S
C1518 C1516 1.391 . S
C1518 C1519 1.400 . S
C1519 C1518 1.400 . S
C1519 C1520 1.398 . S
C1519 C1525 1.491 1_565 S
C1520 H1511 0.950 . S
C1520 C1519 1.398 . S
C1520 C1521 1.391 . S
C1521 H1509 0.950 . S
C1521 C1517 1.393 . S
C1521 C1520 1.391 . S
C1522 H1512 0.950 . S
C1522 C1523 1.386 . S
C1522 C1524 1.391 . S
C1523 C1522 1.386 . S
C1523 C1527 1.393 . S
C1524 H1513 0.950 . S
C1524 C1522 1.391 . S
C1524 C1525 1.400 . S
C1525 C1519 1.491 1_545 S
C1525 C1524 1.400 . S
C1525 C1526 1.398 . S
C1526 H1514 0.950 . S
C1526 C1525 1.398 . S
C1526 C1527 1.391 . S
C1527 H1515 0.950 . S
C1527 C1523 1.393 . S
C1527 C1526 1.391 . S
H1528 C1536 0.950 . S
H1529 C1541 0.950 . S
H1530 C1538 0.950 . S
H1531 C1540 0.950 . S
H1532 C1542 0.950 . S
H1533 C1544 0.950 . S
H1534 C1546 0.950 . S
H1535 C1547 0.950 . S
C1536 H1528 0.950 . S
C1536 C1537 1.386 . S
C1536 C1538 1.391 . S
C1537 C1536 1.386 . S
C1537 C1541 1.393 . S
C1538 H1530 0.950 . S
C1538 C1536 1.391 . S
C1538 C1539 1.400 . S
C1539 C1538 1.400 . S
C1539 C1540 1.398 . S
C1539 C1545 1.491 . S
C1540 H1531 0.950 . S
C1540 C1539 1.398 . S
C1540 C1541 1.391 . S
C1541 H1529 0.950 . S
C1541 C1537 1.393 . S
C1541 C1540 1.391 . S
C1542 H1532 0.950 . S
C1542 C1543 1.386 . S
C1542 C1544 1.391 . S
C1543 C1542 1.386 . S
C1543 C1547 1.393 . S
C1544 H1533 0.950 . S
C1544 C1542 1.391 . S
C1544 C1545 1.400 . S
C1545 C1539 1.491 . S
C1545 C1544 1.400 . S
C1545 C1546 1.398 . S
C1546 H1534 0.950 . S
C1546 C1545 1.398 . S
C1546 C1547 1.391 . S
C1547 H1535 0.950 . S
C1547 C1543 1.393 . S
C1547 C1546 1.391 . S
H1548 C1556 0.950 . S
H1549 C1561 0.950 . S
H1550 C1558 0.950 . S
H1551 C1560 0.950 . S
H1552 C1562 0.950 . S
H1553 C1564 0.950 . S
H1554 C1566 0.950 . S
H1555 C1567 0.950 . S
C1556 H1548 0.950 . S
C1556 C1557 1.386 . S
C1556 C1558 1.391 . S
C1557 C1556 1.386 . S
C1557 C1561 1.393 . S
C1558 H1550 0.950 . S
C1558 C1556 1.391 . S
C1558 C1559 1.400 . S
C1559 C1558 1.400 . S
C1559 C1560 1.398 . S
C1559 C1565 1.491 1_455 S
C1560 H1551 0.950 . S
C1560 C1559 1.398 . S
C1560 C1561 1.391 . S
C1561 H1549 0.950 . S
C1561 C1557 1.393 . S
C1561 C1560 1.391 . S
C1562 H1552 0.950 . S
C1562 C1563 1.386 . S
C1562 C1564 1.391 . S
C1563 C1562 1.386 . S
C1563 C1567 1.393 . S
C1564 H1553 0.950 . S
C1564 C1562 1.391 . S
C1564 C1565 1.400 . S
C1565 C1559 1.491 1_655 S
C1565 C1564 1.400 . S
C1565 C1566 1.398 . S
C1566 H1554 0.950 . S
C1566 C1565 1.398 . S
C1566 C1567 1.391 . S
C1567 H1555 0.950 . S
C1567 C1563 1.393 . S
C1567 C1566 1.391 . S
H1568 C1576 0.950 . S
H1569 C1581 0.950 . S
H1570 C1578 0.950 . S
H1571 C1580 0.950 . S
H1572 C1582 0.950 . S
H1573 C1584 0.950 . S
H1574 C1586 0.950 . S
H1575 C1587 0.950 . S
C1576 H1568 0.950 . S
C1576 C1577 1.386 . S
C1576 C1578 1.391 . S
C1577 C1576 1.386 . S
C1577 C1581 1.393 . S
C1578 H1570 0.950 . S
C1578 C1576 1.391 . S
C1578 C1579 1.400 . S
C1579 C1578 1.400 . S
C1579 C1580 1.398 . S
C1579 C1585 1.491 1_545 S
C1580 H1571 0.950 . S
C1580 C1579 1.398 . S
C1580 C1581 1.391 . S
C1581 H1569 0.950 . S
C1581 C1577 1.393 . S
C1581 C1580 1.391 . S
C1582 H1572 0.950 . S
C1582 C1583 1.386 . S
C1582 C1584 1.391 . S
C1583 C1582 1.386 . S
C1583 C1587 1.393 . S
C1584 H1573 0.950 . S
C1584 C1582 1.391 . S
C1584 C1585 1.400 . S
C1585 C1579 1.491 1_565 S
C1585 C1584 1.400 . S
C1585 C1586 1.398 . S
C1586 H1574 0.950 . S
C1586 C1585 1.398 . S
C1586 C1587 1.391 . S
C1587 H1575 0.950 . S
C1587 C1583 1.393 . S
C1587 C1586 1.391 . S
H1588 C1596 0.950 . S
H1589 C1601 0.950 . S
H1590 C1598 0.950 . S
H1591 C1600 0.950 . S
H1592 C1602 0.950 . S
H1593 C1604 0.950 . S
H1594 C1606 0.950 . S
H1595 C1607 0.950 . S
C1596 H1588 0.950 . S
C1596 C1597 1.386 . S
C1596 C1598 1.391 . S
C1597 C1596 1.386 . S
C1597 C1601 1.393 . S
C1598 H1590 0.950 . S
C1598 C1596 1.391 . S
C1598 C1599 1.400 . S
C1599 C1598 1.400 . S
C1599 C1600 1.398 . S
C1599 C1605 1.491 . S
C1600 H1591 0.950 . S
C1600 C1599 1.398 . S
C1600 C1601 1.391 . S
C1601 H1589 0.950 . S
C1601 C1597 1.393 . S
C1601 C1600 1.391 . S
C1602 H1592 0.950 . S
C1602 C1603 1.386 . S
C1602 C1604 1.391 . S
C1603 C1602 1.386 . S
C1603 C1607 1.393 . S
C1604 H1593 0.950 . S
C1604 C1602 1.391 . S
C1604 C1605 1.400 . S
C1605 C1599 1.491 . S
C1605 C1604 1.400 . S
C1605 C1606 1.398 . S
C1606 H1594 0.950 . S
C1606 C1605 1.398 . S
C1606 C1607 1.391 . S
C1607 H1595 0.950 . S
C1607 C1603 1.393 . S
C1607 C1606 1.391 . S
H1608 C1616 0.950 . S
H1609 C1621 0.950 . S
H1610 C1618 0.950 . S
H1611 C1620 0.950 . S
H1612 C1622 0.950 . S
H1613 C1624 0.950 . S
H1614 C1626 0.950 . S
H1615 C1627 0.950 . S
C1616 H1608 0.950 . S
C1616 C1617 1.386 . S
C1616 C1618 1.391 . S
C1617 C1616 1.386 . S
C1617 C1621 1.393 . S
C1618 H1610 0.950 . S
C1618 C1616 1.391 . S
C1618 C1619 1.400 . S
C1619 C1618 1.400 . S
C1619 C1620 1.398 . S
C1619 C1625 1.491 1_565 S
C1620 H1611 0.950 . S
C1620 C1619 1.398 . S
C1620 C1621 1.391 . S
C1621 H1609 0.950 . S
C1621 C1617 1.393 . S
C1621 C1620 1.391 . S
C1622 H1612 0.950 . S
C1622 C1623 1.386 . S
C1622 C1624 1.391 . S
C1623 C1622 1.386 . S
C1623 C1627 1.393 . S
C1624 H1613 0.950 . S
C1624 C1622 1.391 . S
C1624 C1625 1.400 . S
C1625 C1619 1.491 1_545 S
C1625 C1624 1.400 . S
C1625 C1626 1.398 . S
C1626 H1614 0.950 . S
C1626 C1625 1.398 . S
C1626 C1627 1.391 . S
C1627 H1615 0.950 . S
C1627 C1623 1.393 . S
C1627 C1626 1.391 . S
H1628 C1636 0.950 . S
H1629 C1641 0.950 . S
H1630 C1638 0.950 . S
H1631 C1640 0.950 . S
H1632 C1642 0.950 . S
H1633 C1644 0.950 . S
H1634 C1646 0.950 . S
H1635 C1647 0.950 . S
C1636 H1628 0.950 . S
C1636 C1637 1.386 . S
C1636 C1638 1.391 . S
C1637 C1636 1.386 . S
C1637 C1641 1.393 . S
C1638 H1630 0.950 . S
C1638 C1636 1.391 . S
C1638 C1639 1.400 . S
C1639 C1638 1.400 . S
C1639 C1640 1.398 . S
C1639 C1645 1.491 . S
C1640 H1631 0.950 . S
C1640 C1639 1.398 . S
C1640 C1641 1.391 . S
C1641 H1629 0.950 . S
C1641 C1637 1.393 . S
C1641 C1640 1.391 . S
C1642 H1632 0.950 . S
C1642 C1643 1.386 . S
C1642 C1644 1.391 . S
C1643 C1642 1.386 . S
C1643 C1647 1.393 . S
C1644 H1633 0.950 . S
C1644 C1642 1.391 . S
C1644 C1645 1.400 . S
C1645 C1639 1.491 . S
C1645 C1644 1.400 . S
C1645 C1646 1.398 . S
C1646 H1634 0.950 . S
C1646 C1645 1.398 . S
C1646 C1647 1.391 . S
C1647 H1635 0.950 . S
C1647 C1643 1.393 . S
C1647 C1646 1.391 . S
H1648 C1656 0.950 . S
H1649 C1661 0.950 . S
H1650 C1658 0.950 . S
H1651 C1660 0.950 . S
H1652 C1662 0.950 . S
H1653 C1664 0.950 . S
H1654 C1666 0.950 . S
H1655 C1667 0.950 . S
C1656 H1648 0.950 . S
C1656 C1657 1.386 . S
C1656 C1658 1.391 . S
C1657 C1656 1.386 . S
C1657 C1661 1.393 . S
C1658 H1650 0.950 . S
C1658 C1656 1.391 . S
C1658 C1659 1.400 . S
C1659 C1658 1.400 . S
C1659 C1660 1.398 . S
C1659 C1665 1.491 1_655 S
C1660 H1651 0.950 . S
C1660 C1659 1.398 . S
C1660 C1661 1.391 . S
C1661 H1649 0.950 . S
C1661 C1657 1.393 . S
C1661 C1660 1.391 . S
C1662 H1652 0.950 . S
C1662 C1663 1.386 . S
C1662 C1664 1.391 . S
C1663 C1662 1.386 . S
C1663 C1667 1.393 . S
C1664 H1653 0.950 . S
C1664 C1662 1.391 . S
C1664 C1665 1.400 . S
C1665 C1659 1.491 1_455 S
C1665 C1664 1.400 . S
C1665 C1666 1.398 . S
C1666 H1654 0.950 . S
C1666 C1665 1.398 . S
C1666 C1667 1.391 . S
C1667 H1655 0.950 . S
C1667 C1663 1.393 . S
C1667 C1666 1.391 . S
H1668 C1676 0.950 . S
H1669 C1681 0.950 . S
H1670 C1678 0.950 . S
H1671 C1680 0.950 . S
H1672 C1682 0.950 . S
H1673 C1684 0.950 . S
H1674 C1686 0.950 . S
H1675 C1687 0.950 . S
C1676 H1668 0.950 . S
C1676 C1677 1.386 . S
C1676 C1678 1.391 . S
C1677 C1676 1.386 . S
C1677 C1681 1.393 . S
C1678 H1670 0.950 . S
C1678 C1676 1.391 . S
C1678 C1679 1.400 . S
C1679 C1678 1.400 . S
C1679 C1680 1.398 . S
C1679 C1685 1.491 1_565 S
C1680 H1671 0.950 . S
C1680 C1679 1.398 . S
C1680 C1681 1.391 . S
C1681 H1669 0.950 . S
C1681 C1677 1.393 . S
C1681 C1680 1.391 . S
C1682 H1672 0.950 . S
C1682 C1683 1.386 . S
C1682 C1684 1.391 . S
C1683 C1682 1.386 . S
C1683 C1687 1.393 . S
C1684 H1673 0.950 . S
C1684 C1682 1.391 . S
C1684 C1685 1.400 . S
C1685 C1679 1.491 1_545 S
C1685 C1684 1.400 . S
C1685 C1686 1.398 . S
C1686 H1674 0.950 . S
C1686 C1685 1.398 . S
C1686 C1687 1.391 . S
C1687 H1675 0.950 . S
C1687 C1683 1.393 . S
C1687 C1686 1.391 . S
H1688 C1696 0.950 . S
H1689 C1701 0.950 . S
H1690 C1698 0.950 . S
H1691 C1700 0.950 . S
H1692 C1702 0.950 . S
H1693 C1704 0.950 . S
H1694 C1706 0.950 . S
H1695 C1707 0.950 . S
C1696 H1688 0.950 . S
C1696 C1697 1.386 . S
C1696 C1698 1.391 . S
C1697 C1696 1.386 . S
C1697 C1701 1.393 . S
C1698 H1690 0.950 . S
C1698 C1696 1.391 . S
C1698 C1699 1.400 . S
C1699 C1698 1.400 . S
C1699 C1700 1.398 . S
C1699 C1705 1.491 . S
C1700 H1691 0.950 . S
C1700 C1699 1.398 . S
C1700 C1701 1.391 . S
C1701 H1689 0.950 . S
C1701 C1697 1.393 . S
C1701 C1700 1.391 . S
C1702 H1692 0.950 . S
C1702 C1703 1.386 . S
C1702 C1704 1.391 . S
C1703 C1702 1.386 . S
C1703 C1707 1.393 . S
C1704 H1693 0.950 . S
C1704 C1702 1.391 . S
C1704 C1705 1.400 . S
C1705 C1699 1.491 . S
C1705 C1704 1.400 . S
C1705 C1706 1.398 . S
C1706 H1694 0.950 . S
C1706 C1705 1.398 . S
C1706 C1707 1.391 . S
C1707 H1695 0.950 . S
C1707 C1703 1.393 . S
C1707 C1706 1.391 . S
H1708 C1716 0.950 . S
H1709 C1721 0.950 . S
H1710 C1718 0.950 . S
H1711 C1720 0.950 . S
H1712 C1722 0.950 . S
H1713 C1724 0.950 . S
H1714 C1726 0.950 . S
H1715 C1727 0.950 . S
C1716 H1708 0.950 . S
C1716 C1717 1.386 . S
C1716 C1718 1.391 . S
C1717 C1716 1.386 . S
C1717 C1721 1.393 . S
C1718 H1710 0.950 . S
C1718 C1716 1.391 . S
C1718 C1719 1.400 . S
C1719 C1718 1.400 . S
C1719 C1720 1.398 . S
C1719 C1725 1.491 1_655 S
C1720 H1711 0.950 . S
C1720 C1719 1.398 . S
C1720 C1721 1.391 . S
C1721 H1709 0.950 . S
C1721 C1717 1.393 . S
C1721 C1720 1.391 . S
C1722 H1712 0.950 . S
C1722 C1723 1.386 . S
C1722 C1724 1.391 . S
C1723 C1722 1.386 . S
C1723 C1727 1.393 . S
C1724 H1713 0.950 . S
C1724 C1722 1.391 . S
C1724 C1725 1.400 . S
C1725 C1719 1.491 1_455 S
C1725 C1724 1.400 . S
C1725 C1726 1.398 . S
C1726 H1714 0.950 . S
C1726 C1725 1.398 . S
C1726 C1727 1.391 . S
C1727 H1715 0.950 . S
C1727 C1723 1.393 . S
C1727 C1726 1.391 . S
H1728 C1736 0.950 . S
H1729 C1741 0.950 . S
H1730 C1738 0.950 . S
H1731 C1740 0.950 . S
H1732 C1742 0.950 . S
H1733 C1744 0.950 . S
H1734 C1746 0.950 . S
H1735 C1747 0.950 . S
C1736 H1728 0.950 . S
C1736 C1737 1.386 . S
C1736 C1738 1.391 . S
C1737 C1736 1.386 . S
C1737 C1741 1.393 . S
C1738 H1730 0.950 . S
C1738 C1736 1.391 . S
C1738 C1739 1.400 . S
C1739 C1738 1.400 . S
C1739 C1740 1.398 . S
C1739 C1745 1.491 1_556 S
C1740 H1731 0.950 . S
C1740 C1739 1.398 . S
C1740 C1741 1.391 . S
C1741 H1729 0.950 . S
C1741 C1737 1.393 . S
C1741 C1740 1.391 . S
C1742 H1732 0.950 . S
C1742 C1743 1.386 . S
C1742 C1744 1.391 . S
C1743 C1742 1.386 . S
C1743 C1747 1.393 . S
C1744 H1733 0.950 . S
C1744 C1742 1.391 . S
C1744 C1745 1.400 . S
C1745 C1739 1.491 1_554 S
C1745 C1744 1.400 . S
C1745 C1746 1.398 . S
C1746 H1734 0.950 . S
C1746 C1745 1.398 . S
C1746 C1747 1.391 . S
C1747 H1735 0.950 . S
C1747 C1743 1.393 . S
C1747 C1746 1.391 . S
H1748 C1756 0.950 . S
H1749 C1761 0.950 . S
H1750 C1758 0.950 . S
H1751 C1760 0.950 . S
H1752 C1762 0.950 . S
H1753 C1764 0.950 . S
H1754 C1766 0.950 . S
H1755 C1767 0.950 . S
C1756 H1748 0.950 . S
C1756 C1757 1.386 . S
C1756 C1758 1.391 . S
C1757 C1756 1.386 . S
C1757 C1761 1.393 . S
C1758 H1750 0.950 . S
C1758 C1756 1.391 . S
C1758 C1759 1.400 . S
C1759 C1758 1.400 . S
C1759 C1760 1.398 . S
C1759 C1765 1.491 . S
C1760 H1751 0.950 . S
C1760 C1759 1.398 . S
C1760 C1761 1.391 . S
C1761 H1749 0.950 . S
C1761 C1757 1.393 . S
C1761 C1760 1.391 . S
C1762 H1752 0.950 . S
C1762 C1763 1.386 . S
C1762 C1764 1.391 . S
C1763 C1762 1.386 . S
C1763 C1767 1.393 . S
C1764 H1753 0.950 . S
C1764 C1762 1.391 . S
C1764 C1765 1.400 . S
C1765 C1759 1.491 . S
C1765 C1764 1.400 . S
C1765 C1766 1.398 . S
C1766 H1754 0.950 . S
C1766 C1765 1.398 . S
C1766 C1767 1.391 . S
C1767 H1755 0.950 . S
C1767 C1763 1.393 . S
C1767 C1766 1.391 . S
H1768 C1776 0.950 . S
H1769 C1781 0.950 . S
H1770 C1778 0.950 . S
H1771 C1780 0.950 . S
H1772 C1782 0.950 . S
H1773 C1784 0.950 . S
H1774 C1786 0.950 . S
H1775 C1787 0.950 . S
C1776 H1768 0.950 . S
C1776 C1777 1.386 . S
C1776 C1778 1.391 . S
C1777 C1776 1.386 . S
C1777 C1781 1.393 . S
C1778 H1770 0.950 . S
C1778 C1776 1.391 . S
C1778 C1779 1.400 . S
C1779 C1778 1.400 . S
C1779 C1780 1.398 . S
C1779 C1785 1.491 1_554 S
C1780 H1771 0.950 . S
C1780 C1779 1.398 . S
C1780 C1781 1.391 . S
C1781 H1769 0.950 . S
C1781 C1777 1.393 . S
C1781 C1780 1.391 . S
C1782 H1772 0.950 . S
C1782 C1783 1.386 . S
C1782 C1784 1.391 . S
C1783 C1782 1.386 . S
C1783 C1787 1.393 . S
C1784 H1773 0.950 . S
C1784 C1782 1.391 . S
C1784 C1785 1.400 . S
C1785 C1779 1.491 1_556 S
C1785 C1784 1.400 . S
C1785 C1786 1.398 . S
C1786 H1774 0.950 . S
C1786 C1785 1.398 . S
C1786 C1787 1.391 . S
C1787 H1775 0.950 . S
C1787 C1783 1.393 . S
C1787 C1786 1.391 . S
H1788 C1796 0.950 . S
H1789 C1801 0.950 . S
H1790 C1798 0.950 . S
H1791 C1800 0.950 . S
H1792 C1802 0.950 . S
H1793 C1804 0.950 . S
H1794 C1806 0.950 . S
H1795 C1807 0.950 . S
C1796 H1788 0.950 . S
C1796 C1797 1.386 . S
C1796 C1798 1.391 . S
C1797 C1796 1.386 . S
C1797 C1801 1.393 . S
C1798 H1790 0.950 . S
C1798 C1796 1.391 . S
C1798 C1799 1.400 . S
C1799 C1798 1.400 . S
C1799 C1800 1.398 . S
C1799 C1805 1.491 . S
C1800 H1791 0.950 . S
C1800 C1799 1.398 . S
C1800 C1801 1.391 . S
C1801 H1789 0.950 . S
C1801 C1797 1.393 . S
C1801 C1800 1.391 . S
C1802 H1792 0.950 . S
C1802 C1803 1.386 . S
C1802 C1804 1.391 . S
C1803 C1802 1.386 . S
C1803 C1807 1.393 . S
C1804 H1793 0.950 . S
C1804 C1802 1.391 . S
C1804 C1805 1.400 . S
C1805 C1799 1.491 . S
C1805 C1804 1.400 . S
C1805 C1806 1.398 . S
C1806 H1794 0.950 . S
C1806 C1805 1.398 . S
C1806 C1807 1.391 . S
C1807 H1795 0.950 . S
C1807 C1803 1.393 . S
C1807 C1806 1.391 . S
H1808 C1816 0.950 . S
H1809 C1821 0.950 . S
H1810 C1818 0.950 . S
H1811 C1820 0.950 . S
H1812 C1822 0.950 . S
H1813 C1824 0.950 . S
H1814 C1826 0.950 . S
H1815 C1827 0.950 . S
C1816 H1808 0.950 . S
C1816 C1817 1.386 . S
C1816 C1818 1.391 . S
C1817 C1816 1.386 . S
C1817 C1821 1.393 . S
C1818 H1810 0.950 . S
C1818 C1816 1.391 . S
C1818 C1819 1.400 . S
C1819 C1818 1.400 . S
C1819 C1820 1.398 . S
C1819 C1825 1.491 1_556 S
C1820 H1811 0.950 . S
C1820 C1819 1.398 . S
C1820 C1821 1.391 . S
C1821 H1809 0.950 . S
C1821 C1817 1.393 . S
C1821 C1820 1.391 . S
C1822 H1812 0.950 . S
C1822 C1823 1.386 . S
C1822 C1824 1.391 . S
C1823 C1822 1.386 . S
C1823 C1827 1.393 . S
C1824 H1813 0.950 . S
C1824 C1822 1.391 . S
C1824 C1825 1.400 . S
C1825 C1819 1.491 1_554 S
C1825 C1824 1.400 . S
C1825 C1826 1.398 . S
C1826 H1814 0.950 . S
C1826 C1825 1.398 . S
C1826 C1827 1.391 . S
C1827 H1815 0.950 . S
C1827 C1823 1.393 . S
C1827 C1826 1.391 . S
H1828 C1836 0.950 . S
H1829 C1841 0.950 . S
H1830 C1838 0.950 . S
H1831 C1840 0.950 . S
H1832 C1842 0.950 . S
H1833 C1844 0.950 . S
H1834 C1846 0.950 . S
H1835 C1847 0.950 . S
C1836 H1828 0.950 . S
C1836 C1837 1.386 . S
C1836 C1838 1.391 . S
C1837 C1836 1.386 . S
C1837 C1841 1.393 . S
C1838 H1830 0.950 . S
C1838 C1836 1.391 . S
C1838 C1839 1.400 . S
C1839 C1838 1.400 . S
C1839 C1840 1.398 . S
C1839 C1845 1.491 . S
C1840 H1831 0.950 . S
C1840 C1839 1.398 . S
C1840 C1841 1.391 . S
C1841 H1829 0.950 . S
C1841 C1837 1.393 . S
C1841 C1840 1.391 . S
C1842 H1832 0.950 . S
C1842 C1843 1.386 . S
C1842 C1844 1.391 . S
C1843 C1842 1.386 . S
C1843 C1847 1.393 . S
C1844 H1833 0.950 . S
C1844 C1842 1.391 . S
C1844 C1845 1.400 . S
C1845 C1839 1.491 . S
C1845 C1844 1.400 . S
C1845 C1846 1.398 . S
C1846 H1834 0.950 . S
C1846 C1845 1.398 . S
C1846 C1847 1.391 . S
C1847 H1835 0.950 . S
C1847 C1843 1.393 . S
C1847 C1846 1.391 . S
H1848 C1856 0.950 . S
H1849 C1861 0.950 . S
H1850 C1858 0.950 . S
H1851 C1860 0.947 1_556 S
H1852 C1862 0.950 . S
H1853 C1864 0.950 . S
H1854 C1866 0.947 1_554 S
H1855 C1867 0.950 . S
C1856 H1848 0.950 . S
C1856 C1857 1.386 . S
C1856 C1858 1.391 . S
C1857 C1856 1.386 . S
C1857 C1861 1.393 . S
C1858 H1850 0.950 . S
C1858 C1856 1.391 . S
C1858 C1859 1.400 . S
C1859 C1858 1.400 . S
C1859 C1860 1.398 . S
C1859 C1865 1.491 1_554 S
C1860 H1851 0.947 1_554 S
C1860 C1859 1.398 . S
C1860 C1861 1.391 . S
C1861 H1849 0.950 . S
C1861 C1857 1.393 . S
C1861 C1860 1.391 . S
C1862 H1852 0.950 . S
C1862 C1863 1.386 . S
C1862 C1864 1.391 . S
C1863 C1862 1.386 . S
C1863 C1867 1.393 . S
C1864 H1853 0.950 . S
C1864 C1862 1.391 . S
C1864 C1865 1.400 . S
C1865 C1859 1.491 1_556 S
C1865 C1864 1.400 . S
C1865 C1866 1.398 . S
C1866 H1854 0.947 1_556 S
C1866 C1865 1.398 . S
C1866 C1867 1.391 . S
C1867 H1855 0.950 . S
C1867 C1863 1.393 . S
C1867 C1866 1.391 . S
H1868 C1876 0.950 . S
H1869 C1881 0.950 . S
H1870 C1878 0.950 . S
H1871 C1880 0.950 . S
H1872 C1882 0.950 . S
H1873 C1884 0.950 . S
H1874 C1886 0.950 . S
H1875 C1887 0.950 . S
C1876 H1868 0.950 . S
C1876 C1877 1.386 . S
C1876 C1878 1.391 . S
C1877 C1876 1.386 . S
C1877 C1881 1.393 . S
C1878 H1870 0.950 . S
C1878 C1876 1.391 . S
C1878 C1879 1.400 . S
C1879 C1878 1.400 . S
C1879 C1880 1.398 . S
C1879 C1885 1.491 . S
C1880 H1871 0.950 . S
C1880 C1879 1.398 . S
C1880 C1881 1.391 . S
C1881 H1869 0.950 . S
C1881 C1877 1.393 . S
C1881 C1880 1.391 . S
C1882 H1872 0.950 . S
C1882 C1883 1.386 . S
C1882 C1884 1.391 . S
C1883 C1882 1.386 . S
C1883 C1887 1.393 . S
C1884 H1873 0.950 . S
C1884 C1882 1.391 . S
C1884 C1885 1.400 . S
C1885 C1879 1.491 . S
C1885 C1884 1.400 . S
C1885 C1886 1.398 . S
C1886 H1874 0.950 . S
C1886 C1885 1.398 . S
C1886 C1887 1.391 . S
C1887 H1875 0.950 . S
C1887 C1883 1.393 . S
C1887 C1886 1.391 . S
H1888 C1896 0.950 . S
H1889 C1901 0.950 . S
H1890 C1898 0.950 . S
H1891 C1900 0.950 . S
H1892 C1902 0.950 . S
H1893 C1904 0.950 . S
H1894 C1906 0.950 . S
H1895 C1907 0.950 . S
C1896 H1888 0.950 . S
C1896 C1897 1.386 . S
C1896 C1898 1.391 . S
C1897 C1896 1.386 . S
C1897 C1901 1.393 . S
C1898 H1890 0.950 . S
C1898 C1896 1.391 . S
C1898 C1899 1.400 . S
C1899 C1898 1.400 . S
C1899 C1900 1.398 . S
C1899 C1905 1.491 1_554 S
C1900 H1891 0.950 . S
C1900 C1899 1.398 . S
C1900 C1901 1.391 . S
C1901 H1889 0.950 . S
C1901 C1897 1.393 . S
C1901 C1900 1.391 . S
C1902 H1892 0.950 . S
C1902 C1903 1.386 . S
C1902 C1904 1.391 . S
C1903 C1902 1.386 . S
C1903 C1907 1.393 . S
C1904 H1893 0.950 . S
C1904 C1902 1.391 . S
C1904 C1905 1.400 . S
C1905 C1899 1.491 1_556 S
C1905 C1904 1.400 . S
C1905 C1906 1.398 . S
C1906 H1894 0.950 . S
C1906 C1905 1.398 . S
C1906 C1907 1.391 . S
C1907 H1895 0.950 . S
C1907 C1903 1.393 . S
C1907 C1906 1.391 . S
H1908 C1916 0.950 . S
H1909 C1921 0.950 . S
H1910 C1918 0.950 . S
H1911 C1920 0.950 . S
H1912 C1922 0.950 . S
H1913 C1924 0.950 . S
H1914 C1926 0.950 . S
H1915 C1927 0.950 . S
C1916 H1908 0.950 . S
C1916 C1917 1.386 . S
C1916 C1918 1.391 . S
C1917 C1916 1.386 . S
C1917 C1921 1.393 . S
C1918 H1910 0.950 . S
C1918 C1916 1.391 . S
C1918 C1919 1.400 . S
C1919 C1918 1.400 . S
C1919 C1920 1.398 . S
C1919 C1925 1.491 . S
C1920 H1911 0.950 . S
C1920 C1919 1.398 . S
C1920 C1921 1.391 . S
C1921 H1909 0.950 . S
C1921 C1917 1.393 . S
C1921 C1920 1.391 . S
C1922 H1912 0.950 . S
C1922 C1923 1.386 . S
C1922 C1924 1.391 . S
C1923 C1922 1.386 . S
C1923 C1927 1.393 . S
C1924 H1913 0.950 . S
C1924 C1922 1.391 . S
C1924 C1925 1.400 . S
C1925 C1919 1.491 . S
C1925 C1924 1.400 . S
C1925 C1926 1.398 . S
C1926 H1914 0.950 . S
C1926 C1925 1.398 . S
C1926 C1927 1.391 . S
C1927 H1915 0.950 . S
C1927 C1923 1.393 . S
C1927 C1926 1.391 . S
H1928 C1936 0.950 . S
H1929 C1941 0.950 . S
H1930 C1938 0.950 1_556 S
H1931 C1940 0.950 . S
H1932 C1942 0.950 . S
H1933 C1944 0.950 1_554 S
H1934 C1946 0.950 . S
H1935 C1947 0.950 . S
C1936 H1928 0.950 . S
C1936 C1937 1.386 . S
C1936 C1938 1.391 . S
C1937 C1936 1.386 . S
C1937 C1941 1.393 . S
C1938 H1930 0.950 1_554 S
C1938 C1936 1.391 . S
C1938 C1939 1.400 . S
C1939 C1938 1.400 . S
C1939 C1940 1.398 . S
C1939 C1945 1.491 1_554 S
C1940 H1931 0.950 . S
C1940 C1939 1.398 . S
C1940 C1941 1.391 . S
C1941 H1929 0.950 . S
C1941 C1937 1.393 . S
C1941 C1940 1.391 . S
C1942 H1932 0.950 . S
C1942 C1943 1.386 . S
C1942 C1944 1.391 . S
C1943 C1942 1.386 . S
C1943 C1947 1.393 . S
C1944 H1933 0.950 1_556 S
C1944 C1942 1.391 . S
C1944 C1945 1.400 . S
C1945 C1939 1.491 1_556 S
C1945 C1944 1.400 . S
C1945 C1946 1.398 . S
C1946 H1934 0.950 . S
C1946 C1945 1.398 . S
C1946 C1947 1.391 . S
C1947 H1935 0.950 . S
C1947 C1943 1.393 . S
C1947 C1946 1.391 . S
H1948 C1956 0.950 . S
H1949 C1961 0.950 . S
H1950 C1958 0.950 . S
H1951 C1960 0.950 . S
H1952 C1962 0.950 . S
H1953 C1964 0.950 . S
H1954 C1966 0.950 . S
H1955 C1967 0.950 . S
C1956 H1948 0.950 . S
C1956 C1957 1.386 . S
C1956 C1958 1.391 . S
C1957 C1956 1.386 . S
C1957 C1961 1.393 . S
C1958 H1950 0.950 . S
C1958 C1956 1.391 . S
C1958 C1959 1.400 . S
C1959 C1958 1.400 . S
C1959 C1960 1.398 . S
C1959 C1965 1.491 . S
C1960 H1951 0.950 . S
C1960 C1959 1.398 . S
C1960 C1961 1.391 . S
C1961 H1949 0.950 . S
C1961 C1957 1.393 . S
C1961 C1960 1.391 . S
C1962 H1952 0.950 . S
C1962 C1963 1.386 . S
C1962 C1964 1.391 . S
C1963 C1962 1.386 . S
C1963 C1967 1.393 . S
C1964 H1953 0.950 . S
C1964 C1962 1.391 . S
C1964 C1965 1.400 . S
C1965 C1959 1.491 . S
C1965 C1964 1.400 . S
C1965 C1966 1.398 . S
C1966 H1954 0.950 . S
C1966 C1965 1.398 . S
C1966 C1967 1.391 . S
C1967 H1955 0.950 . S
C1967 C1963 1.393 . S
C1967 C1966 1.391 . S
C537 C184 1.152 . S
C543 C4 1.181 . S
C557 C26 1.167 . S
C563 C206 1.187 . S
C577 C228 1.161 . S
C583 C48 1.188 . S
C597 C70 1.187 . S
C603 C250 1.155 . S
C617 C140 1.158 . S
C623 C92 1.166 . S
C637 C162 1.155 . S
C643 C114 1.186 . S
C657 C272 1.167 . S
C663 C444 1.187 . S
C677 C466 1.153 . S
C683 C294 1.175 . S
C697 C488 1.180 . S
C703 C316 1.152 . S
C717 C338 1.154 . S
C723 C510 1.172 . S
C737 C360 1.188 . S
C743 C400 1.160 . S
C757 C422 1.157 . S
C763 C382 1.166 . S
C777 C9 0.932 . S
C783 C52 0.969 . S
C797 C74 0.937 . S
C803 C31 0.974 . S
C817 C53 0.976 . S
C823 C96 0.939 . S
C837 C75 0.934 . S
C843 C118 0.961 . S
C857 C8 0.952 . S
C863 C97 0.975 . S
C877 C30 0.936 . S
C883 C119 0.962 . S
C897 C224 0.935 . S
C903 C137 0.970 . S
C917 C159 0.934 . S
C923 C246 0.974 . S
C937 C181 0.977 . S
C943 C136 0.949 . S
C957 C158 0.973 . S
C963 C203 0.958 . S
C977 C180 0.950 . S
C983 C225 0.942 . S
C997 C202 0.942 . S
C1003 C247 0.951 . S
C1017 C312 0.978 . S
C1023 C270 0.944 . S
C1037 C292 0.944 . S
C1043 C334 0.978 . S
C1057 C314 0.938 . S
C1063 C356 0.977 . S
C1077 C336 0.974 . S
C1083 C378 0.936 . S
C1097 C268 0.939 . S
C1103 C358 0.955 . S
C1117 C290 0.941 . S
C1123 C380 0.977 . S
C1137 C403 0.950 . S
C1143 C492 0.977 . S
C1157 C425 0.965 . S
C1163 C514 0.935 . S
C1177 C447 0.963 . S
C1183 C404 0.936 . S
C1197 C469 0.935 . S
C1203 C426 0.960 . S
C1217 C448 0.947 . S
C1223 C491 0.977 . S
C1237 C470 0.960 . S
C1243 C513 0.935 . S
C1257 C7 1.451 . S
C1263 C335 1.446 . S
C1277 C357 1.449 . S
C1283 C29 1.448 . S
C1297 C51 1.444 . S
C1303 C379 1.453 . S
C1317 C73 1.446 . S
C1323 C269 1.451 . S
C1337 C291 1.452 . S
C1343 C95 1.445 . S
C1357 C117 1.449 . S
C1363 C313 1.449 . S
C1377 C138 1.450 . S
C1383 C471 1.447 . S
C1397 C493 1.446 . S
C1403 C160 1.451 . S
C1417 C182 1.450 . S
C1423 C515 1.448 . S
C1437 C204 1.453 . S
C1443 C405 1.444 . S
C1457 C427 1.452 . S
C1463 C226 1.445 . S
C1477 C449 1.451 . S
C1483 C248 1.446 . S
C1497 C446 1.285 . S
C1503 C5 1.258 . S
C1517 C468 1.281 . S
C1523 C27 1.262 . S
C1537 C490 1.275 . S
C1543 C49 1.267 . S
C1557 C512 1.271 . S
C1563 C71 1.272 . S
C1577 C402 1.285 . S
C1583 C93 1.258 . S
C1597 C115 1.257 . S
C1603 C424 1.285 . S
C1617 C141 1.263 . S
C1623 C359 1.280 . S
C1637 C381 1.260 . S
C1643 C163 1.282 . S
C1657 C271 1.270 . S
C1663 C185 1.273 . S
C1677 C293 1.261 . S
C1683 C207 1.282 . S
C1697 C229 1.257 . S
C1703 C315 1.286 . S
C1717 C251 1.279 . S
C1723 C337 1.265 . S
C1737 C227 1.153 . S
C1743 C6 1.156 . S
C1757 C249 1.146 . S
C1763 C28 1.169 . S
C1777 C50 1.158 . S
C1783 C139 1.151 . S
C1797 C72 1.186 . S
C1803 C161 1.165 . S
C1817 C183 1.169 . S
C1823 C94 1.146 . S
C1837 C116 1.170 . S
C1843 C205 1.145 . S
C1857 C489 1.166 . S
C1863 C273 1.186 . S
C1877 C511 1.147 . S
C1883 C295 1.165 . S
C1897 C401 1.151 . S
C1903 C317 1.158 . S
C1917 C339 1.169 . S
C1923 C423 1.184 . S
C1937 C445 1.175 . S
C1943 C361 1.145 . S
C1957 C383 1.174 . S
C1963 C467 1.145 . S
