# Generated by pormake.
# Topology wme, (6)-cn, num edge types: 1
# Building blocks:
#     Node 0, Type 0, BuildingBlock: BETDIP_clean_sbu_0, # of connection points: 6
#     Node 1, Type 0, BuildingBlock: BETDIP_clean_sbu_0, # of connection points: 6
#     Node 2, Type 0, BuildingBlock: BETDIP_clean_sbu_0, # of connection points: 6
#     Node 3, Type 0, BuildingBlock: BETDIP_clean_sbu_0, # of connection points: 6
#     Node 4, Type 0, BuildingBlock: BETDIP_clean_sbu_0, # of connection points: 6
#     Node 5, Type 0, BuildingBlock: BETDIP_clean_sbu_0, # of connection points: 6
#     Node 6, Type 0, BuildingBlock: BETDIP_clean_sbu_0, # of connection points: 6
#     Node 7, Type 0, BuildingBlock: BETDIP_clean_sbu_0, # of connection points: 6
#     Node 8, Type 0, BuildingBlock: BETDIP_clean_sbu_0, # of connection points: 6
#     Node 9, Type 0, BuildingBlock: BETDIP_clean_sbu_0, # of connection points: 6
#     Node 10, Type 0, BuildingBlock: BETDIP_clean_sbu_0, # of connection points: 6
#     Node 11, Type 0, BuildingBlock: BETDIP_clean_sbu_0, # of connection points: 6
#     Edge 12, Type (0, 0), BuildingBlock: AJUNOK_clean_linker_0, # of connection points: 2
#     Edge 13, Type (0, 0), BuildingBlock: AJUNOK_clean_linker_0, # of connection points: 2
#     Edge 14, Type (0, 0), BuildingBlock: AJUNOK_clean_linker_0, # of connection points: 2
#     Edge 15, Type (0, 0), BuildingBlock: AJUNOK_clean_linker_0, # of connection points: 2
#     Edge 16, Type (0, 0), BuildingBlock: AJUNOK_clean_linker_0, # of connection points: 2
#     Edge 17, Type (0, 0), BuildingBlock: AJUNOK_clean_linker_0, # of connection points: 2
#     Edge 18, Type (0, 0), BuildingBlock: AJUNOK_clean_linker_0, # of connection points: 2
#     Edge 19, Type (0, 0), BuildingBlock: AJUNOK_clean_linker_0, # of connection points: 2
#     Edge 20, Type (0, 0), BuildingBlock: AJUNOK_clean_linker_0, # of connection points: 2
#     Edge 21, Type (0, 0), BuildingBlock: AJUNOK_clean_linker_0, # of connection points: 2
#     Edge 22, Type (0, 0), BuildingBlock: AJUNOK_clean_linker_0, # of connection points: 2
#     Edge 23, Type (0, 0), BuildingBlock: AJUNOK_clean_linker_0, # of connection points: 2
#     Edge 24, Type (0, 0), BuildingBlock: AJUNOK_clean_linker_0, # of connection points: 2
#     Edge 25, Type (0, 0), BuildingBlock: AJUNOK_clean_linker_0, # of connection points: 2
#     Edge 26, Type (0, 0), BuildingBlock: AJUNOK_clean_linker_0, # of connection points: 2
#     Edge 27, Type (0, 0), BuildingBlock: AJUNOK_clean_linker_0, # of connection points: 2
#     Edge 28, Type (0, 0), BuildingBlock: AJUNOK_clean_linker_0, # of connection points: 2
#     Edge 29, Type (0, 0), BuildingBlock: AJUNOK_clean_linker_0, # of connection points: 2
#     Edge 30, Type (0, 0), BuildingBlock: AJUNOK_clean_linker_0, # of connection points: 2
#     Edge 31, Type (0, 0), BuildingBlock: AJUNOK_clean_linker_0, # of connection points: 2
#     Edge 32, Type (0, 0), BuildingBlock: AJUNOK_clean_linker_0, # of connection points: 2
#     Edge 33, Type (0, 0), BuildingBlock: AJUNOK_clean_linker_0, # of connection points: 2
#     Edge 34, Type (0, 0), BuildingBlock: AJUNOK_clean_linker_0, # of connection points: 2
#     Edge 35, Type (0, 0), BuildingBlock: AJUNOK_clean_linker_0, # of connection points: 2
#     Edge 36, Type (0, 0), BuildingBlock: AJUNOK_clean_linker_0, # of connection points: 2
#     Edge 37, Type (0, 0), BuildingBlock: AJUNOK_clean_linker_0, # of connection points: 2
#     Edge 38, Type (0, 0), BuildingBlock: AJUNOK_clean_linker_0, # of connection points: 2
#     Edge 39, Type (0, 0), BuildingBlock: AJUNOK_clean_linker_0, # of connection points: 2
#     Edge 40, Type (0, 0), BuildingBlock: AJUNOK_clean_linker_0, # of connection points: 2
#     Edge 41, Type (0, 0), BuildingBlock: AJUNOK_clean_linker_0, # of connection points: 2
#     Edge 42, Type (0, 0), BuildingBlock: AJUNOK_clean_linker_0, # of connection points: 2
#     Edge 43, Type (0, 0), BuildingBlock: AJUNOK_clean_linker_0, # of connection points: 2
#     Edge 44, Type (0, 0), BuildingBlock: AJUNOK_clean_linker_0, # of connection points: 2
#     Edge 45, Type (0, 0), BuildingBlock: AJUNOK_clean_linker_0, # of connection points: 2
#     Edge 46, Type (0, 0), BuildingBlock: AJUNOK_clean_linker_0, # of connection points: 2
#     Edge 47, Type (0, 0), BuildingBlock: AJUNOK_clean_linker_0, # of connection points: 2
# Relax obj value: 0.111
# Max RMSD: 0.220
# Mean RMSD: 0.220
data_MOF--net-wme--node1-BETDIP_clean_sbu_0--edge1-AJUNOK_clean_linker_0
_symmetry_space_group_name_H-M    P1
_symmetry_Int_Tables_number       1
_symmetry_cell_setting            triclinic
loop_
_symmetry_equiv_pos_as_xyz
'x, y, z'
_cell_length_a     32.214364
_cell_length_b     32.239896
_cell_length_c     37.146345
_cell_angle_alpha  89.858081
_cell_angle_beta   90.098979
_cell_angle_gamma 120.06256
loop_
_atom_site_label
_atom_site_type_symbol
_atom_site_fract_x
_atom_site_fract_y
_atom_site_fract_z
_atom_type_partial_charge
Tb0 Tb 0.24872 0.39001 0.10709 0.0
Tb1 Tb 0.27924 0.32464 0.13647 0.0
C2 C 0.23194 0.45815 0.09397 0.0
C3 C 0.20681 0.48496 0.10502 0.0
C4 C 0.2143 0.50724 0.13891 0.0
C5 C 0.19743 0.53923 0.14626 0.0
C6 C 0.17249 0.55019 0.12003 0.0
C7 C 0.16365 0.52651 0.0866 0.0
C8 C 0.18051 0.49454 0.07928 0.0
C9 C 0.28603 0.35351 0.0581 0.0
C10 C 0.35399 0.4353 0.1367 0.0
C11 C 0.28958 0.25182 0.13568 0.0
C12 C 0.26112 0.19838 0.13779 0.0
C13 C 0.25168 0.17172 0.10579 0.0
C14 C 0.22857 0.12162 0.10645 0.0
C15 C 0.21465 0.09642 0.13918 0.0
C16 C 0.22276 0.12283 0.17125 0.0
C17 C 0.24584 0.17327 0.17059 0.0
C18 C 0.25706 0.36472 0.18897 0.0
C19 C 0.16637 0.28603 0.12163 0.0
O20 O 0.20735 0.41528 0.08003 0.0
O21 O 0.26696 0.46196 0.11407 0.0
O22 O 0.29861 0.36724 0.08974 0.0
O23 O 0.25235 0.36334 0.05162 0.0
O24 O 0.31569 0.43981 0.13373 0.0
O25 O 0.35018 0.39224 0.13324 0.0
O26 O 0.28062 0.27028 0.10749 0.0
O27 O 0.29688 0.27804 0.16457 0.0
O28 O 0.2355 0.35203 0.1585 0.0
O29 O 0.28934 0.35177 0.19061 0.0
O30 O 0.20138 0.2761 0.1258 0.0
O31 O 0.17687 0.33098 0.11831 0.0
H32 H 0.23468 0.50129 0.15945 0.0
H33 H 0.20495 0.55634 0.17238 0.0
H34 H 0.1458 0.53448 0.06525 0.0
H35 H 0.17478 0.47889 0.05268 0.0
H36 H 0.26339 0.18977 0.08004 0.0
H37 H 0.22343 0.10266 0.08132 0.0
H38 H 0.21192 0.10453 0.19693 0.0
H39 H 0.25249 0.1925 0.19574 0.0
Tb40 Tb 0.88245 0.22755 0.60234 0.0
Tb41 Tb 0.97665 0.26271 0.63672 0.0
C42 C 0.7971 0.20454 0.58394 0.0
C43 C 0.74823 0.19285 0.59728 0.0
C44 C 0.71411 0.14624 0.60883 0.0
C45 C 0.66631 0.13385 0.61642 0.0
C46 C 0.65076 0.16747 0.61238 0.0
C47 C 0.68527 0.21433 0.60159 0.0
C48 C 0.73297 0.2267 0.59407 0.0
C49 C 0.95775 0.25444 0.55629 0.0
C50 C 0.93613 0.3335 0.63079 0.0
C51 C 0.06173 0.2812 0.6491 0.0
C52 C 0.09022 0.25647 0.64683 0.0
C53 C 0.0755 0.21496 0.62595 0.0
C54 C 0.10495 0.19434 0.62271 0.0
C55 C 0.1498 0.21488 0.64019 0.0
C56 C 0.16355 0.25561 0.6618 0.0
C57 C 0.13417 0.27601 0.66509 0.0
C58 C 0.90906 0.2422 0.68548 0.0
C59 C 0.90888 0.15002 0.61884 0.0
O60 O 0.81163 0.17395 0.58999 0.0
O61 O 0.83263 0.24865 0.58615 0.0
O62 O 0.95615 0.27348 0.58524 0.0
O63 O 0.91369 0.22241 0.54965 0.0
O64 O 0.89441 0.29368 0.62754 0.0
O65 O 0.97666 0.33168 0.63067 0.0
O66 O 0.04762 0.29073 0.61877 0.0
O67 O 1.02816 0.26601 0.67356 0.0
O68 O 0.90401 0.2187 0.65649 0.0
O69 O 0.95288 0.27765 0.68695 0.0
O70 O 0.9532 0.18629 0.62386 0.0
O71 O 0.87297 0.15808 0.6152 0.0
H72 H 0.724 0.11883 0.61131 0.0
H73 H 0.64152 0.09776 0.62543 0.0
H74 H 0.67506 0.24135 0.59787 0.0
H75 H 0.75765 0.26265 0.58465 0.0
H76 H 0.04178 0.19908 0.61153 0.0
H77 H 0.09342 0.16343 0.60548 0.0
H78 H 0.19761 0.27226 0.67584 0.0
H79 H 0.14635 0.30782 0.68145 0.0
Tb80 Tb 0.67891 0.86681 0.10789 0.0
Tb81 Tb 0.73822 0.96288 0.13908 0.0
C82 C 0.62249 0.77826 0.09488 0.0
C83 C 0.58175 0.72999 0.10548 0.0
C84 C 0.57563 0.71226 0.14096 0.0
C85 C 0.54163 0.66403 0.14889 0.0
C86 C 0.51304 0.63197 0.12154 0.0
C87 C 0.51902 0.6501 0.08621 0.0
C88 C 0.55267 0.69826 0.07837 0.0
C89 C 0.71507 0.94075 0.05956 0.0
C90 C 0.62552 0.91876 0.13592 0.0
C91 C 0.80793 0.04806 0.1383 0.0
C92 C 0.86094 0.07699 0.14369 0.0
C93 C 0.89193 0.06225 0.12928 0.0
C94 C 0.94172 0.09389 0.12776 0.0
C95 C 0.96211 0.14109 0.14091 0.0
C96 C 0.93115 0.15495 0.15676 0.0
C97 C 0.88132 0.12341 0.15801 0.0
C98 C 0.69857 0.89912 0.19059 0.0
C99 C 0.78578 0.89722 0.11951 0.0
O100 O 0.66219 0.7954 0.11341 0.0
O101 O 0.6146 0.81227 0.08363 0.0
O102 O 0.69918 0.93875 0.09071 0.0
O103 O 0.70748 0.89793 0.05319 0.0
O104 O 0.62485 0.8775 0.13471 0.0
O105 O 0.66748 0.95988 0.13334 0.0
O106 O 0.79392 1.01877 0.11086 0.0
O107 O 0.7793 0.02944 0.16616 0.0
O108 O 0.71396 0.89233 0.16046 0.0
O109 O 0.70792 0.94338 0.19224 0.0
O110 O 0.7895 0.93523 0.13642 0.0
O111 O 0.74547 0.8662 0.10397 0.0
H112 H 0.59798 0.73532 0.16245 0.0
H113 H 0.53867 0.65153 0.17635 0.0
H114 H 0.49757 0.62691 0.06445 0.0
H115 H 0.55698 0.7104 0.05069 0.0
H116 H 0.87753 0.02694 0.11756 0.0
H117 H 0.96387 0.08196 0.11465 0.0
H118 H 0.94536 0.19075 0.16749 0.0
H119 H 0.85846 0.13607 0.16885 0.0
Tb120 Tb 0.83815 0.66464 0.60571 0.0
Tb121 Tb 0.80371 0.72503 0.6397 0.0
C122 C 0.85904 0.60056 0.58834 0.0
C123 C 0.88092 0.57087 0.59983 0.0
C124 C 0.87771 0.554 0.63532 0.0
C125 C 0.89226 0.52036 0.64384 0.0
C126 C 0.90987 0.50191 0.61708 0.0
C127 C 0.91492 0.52063 0.58198 0.0
C128 C 0.90063 0.55435 0.57355 0.0
C129 C 0.81149 0.71368 0.55971 0.0
C130 C 0.73049 0.61353 0.63224 0.0
C131 C 0.78616 0.79242 0.65103 0.0
C132 C 0.80791 0.84494 0.64441 0.0
C133 C 0.77789 0.8648 0.64293 0.0
C134 C 0.79682 0.91411 0.63734 0.0
C135 C 0.84648 0.94522 0.63266 0.0
C136 C 0.87673 0.92534 0.63455 0.0
C137 C 0.85765 0.87575 0.64027 0.0
C138 C 0.82295 0.67686 0.68871 0.0
C139 C 0.91633 0.76652 0.62496 0.0
O140 O 0.88671 0.6463 0.58169 0.0
O141 O 0.81907 0.59198 0.6037 0.0
O142 O 0.79291 0.6932 0.58879 0.0
O143 O 0.8428 0.70085 0.55265 0.0
O144 O 0.76896 0.61015 0.62626 0.0
O145 O 0.7337 0.65641 0.63487 0.0
O146 O 0.77086 0.76432 0.62295 0.0
O147 O 0.80748 0.77863 0.67413 0.0
O148 O 0.84632 0.69505 0.65963 0.0
O149 O 0.78828 0.68638 0.69032 0.0
O150 O 0.88062 0.77616 0.6249 0.0
O151 O 0.90599 0.72158 0.62474 0.0
H152 H 0.86279 0.56584 0.65635 0.0
H153 H 0.88896 0.50826 0.67144 0.0
H154 H 0.92804 0.50763 0.56047 0.0
H155 H 0.90331 0.5662 0.5459 0.0
H156 H 0.73952 0.84209 0.64639 0.0
H157 H 0.77238 0.92798 0.63713 0.0
H158 H 0.9151 0.94803 0.63119 0.0
H159 H 0.88172 0.86153 0.64153 0.0
Tb160 Tb 0.19495 0.82488 0.10628 0.0
Tb161 Tb 0.0944 0.78282 0.13539 0.0
C162 C 0.28383 0.85837 0.09264 0.0
C163 C 0.33189 0.86582 0.10493 0.0
C164 C 0.36638 0.91021 0.1198 0.0
C165 C 0.41379 0.92083 0.12683 0.0
C166 C 0.42879 0.88758 0.11908 0.0
C167 C 0.39399 0.84272 0.10495 0.0
C168 C 0.34656 0.83217 0.09776 0.0
C169 C 0.12235 0.80118 0.05772 0.0
C170 C 0.14132 0.71544 0.13112 0.0
C171 C 1.00577 0.75414 0.13679 0.0
C172 C 0.97843 0.78071 0.13693 0.0
C173 C 0.98732 0.81586 0.11059 0.0
C174 C 0.95932 0.83802 0.10861 0.0
C175 C 0.92169 0.82624 0.13305 0.0
C176 C 0.91389 0.79256 0.16032 0.0
C177 C 0.94168 0.76986 0.16207 0.0
C178 C 0.16107 0.82684 0.1863 0.0
C179 C 0.15946 0.8946 0.12561 0.0
O180 O 0.2662 0.88153 0.10969 0.0
O181 O 0.24978 0.81612 0.08191 0.0
O182 O 0.12358 0.78001 0.08552 0.0
O183 O 0.16556 0.83722 0.05438 0.0
O184 O 0.1824 0.75462 0.12307 0.0
O185 O 0.10073 0.71674 0.1364 0.0
O186 O 1.02994 0.7585 0.10739 0.0
O187 O 1.03008 0.75572 0.1657 0.0
O188 O 0.16371 0.80331 0.15976 0.0
O189 O 0.11893 0.8226 0.18558 0.0
O190 O 0.11576 0.85765 0.12057 0.0
O191 O 0.19661 0.88829 0.12665 0.0
H192 H 0.35706 0.93753 0.12529 0.0
H193 H 0.43873 0.9553 0.1384 0.0
H194 H 0.4038 0.81603 0.09844 0.0
H195 H 0.3217 0.79798 0.08573 0.0
H196 H 1.01552 0.82584 0.0909 0.0
H197 H 0.9669 0.86424 0.08761 0.0
H198 H 0.88521 0.78258 0.17958 0.0
H199 H 0.9338 0.74311 0.1827 0.0
Tb200 Tb 0.39872 0.18509 0.60103 0.0
Tb201 Tb 0.3421 0.08967 0.63267 0.0
C202 C 0.45979 0.27152 0.58352 0.0
C203 C 0.49612 0.3204 0.59779 0.0
C204 C 0.48313 0.35501 0.60666 0.0
C205 C 0.51815 0.40263 0.61548 0.0
C206 C 0.56744 0.4174 0.61584 0.0
C207 C 0.58026 0.38269 0.60699 0.0
C208 C 0.54538 0.33525 0.59815 0.0
C209 C 0.35379 0.11064 0.55366 0.0
C210 C 0.45354 0.13339 0.6274 0.0
C211 C 0.27547 1.00358 0.63973 0.0
C212 C 0.22189 0.97642 0.64044 0.0
C213 C 0.19412 0.98132 0.61313 0.0
C214 C 0.14395 0.9511 0.61218 0.0
C215 C 0.12043 0.91515 0.63838 0.0
C216 C 0.14803 0.91225 0.6667 0.0
C217 C 0.19801 0.94229 0.66761 0.0
C218 C 0.38598 0.1546 0.68373 0.0
C219 C 0.29506 0.15691 0.6203 0.0
O220 O 0.41429 0.25564 0.58913 0.0
O221 O 0.46932 0.23666 0.58531 0.0
O222 O 0.37572 0.11319 0.58212 0.0
O223 O 0.35872 0.15273 0.54931 0.0
O224 O 0.45379 0.17444 0.62643 0.0
O225 O 0.41194 0.09218 0.62567 0.0
O226 O 0.29602 1.02294 0.60908 0.0
O227 O 0.29785 0.0317 0.66694 0.0
O228 O 0.36815 0.16056 0.65468 0.0
O229 O 0.3781 0.11092 0.68438 0.0
O230 O 0.28774 0.11256 0.62282 0.0
O231 O 0.33897 0.19313 0.617 0.0
H232 H 0.44581 0.34561 0.60604 0.0
H233 H 0.50657 0.42798 0.62199 0.0
H234 H 0.61767 0.39251 0.60585 0.0
H235 H 0.55725 0.31044 0.59059 0.0
H236 H 0.21126 1.00752 0.59189 0.0
H237 H 0.12386 0.95441 0.59004 0.0
H238 H 0.13103 0.88558 0.68769 0.0
H239 H 0.21825 0.93779 0.68907 0.0
Tb240 Tb 0.68304 0.82905 0.41278 0.0
Tb241 Tb 0.74136 0.78518 0.38375 0.0
C242 C 0.62632 0.86039 0.4274 0.0
C243 C 0.58779 0.86983 0.41363 0.0
C244 C 0.59948 0.91581 0.4011 0.0
C245 C 0.56355 0.92726 0.39316 0.0
C246 C 0.51459 0.89324 0.39771 0.0
C247 C 0.50292 0.84692 0.40944 0.0
C248 C 0.53883 0.83551 0.41745 0.0
C249 C 0.72441 0.79707 0.4615 0.0
C250 C 0.6273 0.72161 0.38763 0.0
C251 C 0.80368 0.76047 0.39171 0.0
C252 C 0.85542 0.77961 0.38491 0.0
C253 C 0.87759 0.75634 0.40093 0.0
C254 C 0.9275 0.77691 0.40022 0.0
C255 C 0.95688 0.82148 0.38338 0.0
C256 C 0.93448 0.8446 0.3668 0.0
C257 C 0.88422 0.82399 0.36776 0.0
C258 C 0.71653 0.81732 0.32708 0.0
C259 C 0.78815 0.90009 0.39168 0.0
O260 O 0.6698 0.88671 0.41489 0.0
O261 O 0.61639 0.81633 0.43337 0.0
O262 O 0.70467 0.77984 0.43196 0.0
O263 O 0.72021 0.83472 0.46582 0.0
O264 O 0.62756 0.7628 0.38876 0.0
O265 O 0.6683 0.72036 0.3879 0.0
O266 O 0.79481 0.7851 0.41524 0.0
O267 O 0.77364 0.74634 0.36436 0.0
O268 O 0.70581 0.82019 0.35988 0.0
O269 O 0.74029 0.79459 0.32622 0.0
O270 O 0.79545 0.86303 0.38954 0.0
O271 O 0.74497 0.89389 0.39554 0.0
H272 H 0.63667 0.94355 0.39822 0.0
H273 H 0.57424 0.96295 0.38352 0.0
H274 H 0.46579 0.81966 0.4135 0.0
H275 H 0.52815 0.80004 0.42763 0.0
H276 H 0.85631 0.72276 0.41514 0.0
H277 H 0.94322 0.75821 0.41367 0.0
H278 H 0.95569 0.87848 0.35304 0.0
H279 H 0.86795 0.84312 0.35582 0.0
Tb280 Tb 0.88187 0.66854 0.90826 0.0
Tb281 Tb 0.98551 0.72588 0.87908 0.0
C282 C 0.7942 0.6118 0.92504 0.0
C283 C 0.7445 0.57377 0.91405 0.0
C284 C 0.7306 0.56031 0.87803 0.0
C285 C 0.68251 0.52597 0.86929 0.0
C286 C 0.64674 0.50466 0.89621 0.0
C287 C 0.66123 0.51823 0.93215 0.0
C288 C 0.70908 0.55209 0.94083 0.0
C289 C 0.95523 0.71454 0.95644 0.0
C290 C 0.93481 0.61236 0.88355 0.0
C291 C 0.07284 0.79035 0.88422 0.0
C292 C 0.10239 0.84348 0.87852 0.0
C293 C 0.08737 0.87485 0.89171 0.0
C294 C 0.11792 0.92487 0.89054 0.0
C295 C 0.16451 0.94529 0.87604 0.0
C296 C 0.17895 0.91381 0.86202 0.0
C297 C 0.14839 0.86373 0.86327 0.0
C298 C 0.92638 0.69616 0.82294 0.0
C299 C 0.91616 0.77116 0.88051 0.0
O300 O 0.8109 0.65513 0.91234 0.0
O301 O 0.82818 0.60101 0.92835 0.0
O302 O 0.95317 0.6921 0.9284 0.0
O303 O 0.91331 0.71066 0.95941 0.0
O304 O 0.89372 0.61246 0.8862 0.0
O305 O 0.97731 0.6532 0.88402 0.0
O306 O 0.04187 0.77652 0.91059 0.0
O307 O 0.05527 0.7621 0.8561 0.0
O308 O 0.91479 0.68884 0.85614 0.0
O309 O 0.9729 0.71996 0.8211 0.0
O310 O 0.96076 0.77914 0.88338 0.0
O311 O 0.87891 0.72775 0.88384 0.0
H312 H 0.75678 0.57646 0.85665 0.0
H313 H 0.67317 0.51648 0.84131 0.0
H314 H 0.63566 0.50202 0.95388 0.0
H315 H 0.71842 0.56161 0.96882 0.0
H316 H 0.05247 0.86071 0.90411 0.0
H317 H 0.10558 0.94743 0.90238 0.0
H318 H 0.21434 0.92792 0.85044 0.0
H319 H 0.1613 0.84074 0.85318 0.0
Tb320 Tb 0.24148 0.86585 0.40876 0.0
Tb321 Tb 0.27601 0.9597 0.37664 0.0
C322 C 0.22126 0.78123 0.42729 0.0
C323 C 0.20047 0.72999 0.41545 0.0
C324 C 0.20444 0.71722 0.37991 0.0
C325 C 0.19027 0.66928 0.371 0.0
C326 C 0.17221 0.6326 0.39741 0.0
C327 C 0.16655 0.64541 0.43257 0.0
C328 C 0.18051 0.69318 0.4414 0.0
C329 C 0.27024 0.94057 0.45584 0.0
C330 C 0.34865 0.92186 0.38215 0.0
C331 C 0.29091 0.04417 0.36797 0.0
C332 C 0.26343 0.07012 0.3721 0.0
C333 C 0.25109 0.07947 0.4063 0.0
C334 C 0.22919 0.10753 0.41002 0.0
C335 C 0.21889 0.12721 0.37971 0.0
C336 C 0.23026 0.11698 0.34546 0.0
C337 C 0.25224 0.08891 0.34174 0.0
C338 C 0.25565 0.89426 0.32582 0.0
C339 C 0.16328 0.88876 0.39016 0.0
O340 O 0.1928 0.7986 0.43246 0.0
O341 O 0.26177 0.81325 0.41297 0.0
O342 O 0.28929 0.93851 0.42713 0.0
O343 O 0.23412 0.89793 0.46063 0.0
O344 O 0.30941 0.87983 0.38574 0.0
O345 O 0.34593 0.96181 0.38179 0.0
O346 O 0.30156 0.02896 0.39729 0.0
O347 O 0.27842 1.01294 0.34192 0.0
O348 O 0.2322 0.88804 0.355 0.0
O349 O 0.29125 0.93813 0.32531 0.0
O350 O 0.1991 0.93393 0.39084 0.0
O351 O 0.17338 0.85404 0.38983 0.0
H352 H 0.21954 0.74448 0.35915 0.0
H353 H 0.19409 0.66112 0.34338 0.0
H354 H 0.15308 0.61877 0.45381 0.0
H355 H 0.17723 0.70168 0.46907 0.0
H356 H 0.25934 0.06605 0.43039 0.0
H357 H 0.22097 0.11449 0.43682 0.0
H358 H 0.22394 0.13226 0.32152 0.0
H359 H 0.2617 0.08298 0.31504 0.0
Tb360 Tb 0.40632 0.23404 0.90624 0.0
Tb361 Tb 0.33871 0.26548 0.87494 0.0
C362 C 0.4709 0.21322 0.92194 0.0
C363 C 0.50147 0.19333 0.90825 0.0
C364 C 0.48552 0.1438 0.9097 0.0
C365 C 0.5167 0.12612 0.90175 0.0
C366 C 0.56508 0.15737 0.8924 0.0
C367 C 0.58057 0.20676 0.89023 0.0
C368 C 0.54947 0.22438 0.89814 0.0
C369 C 0.36463 0.26733 0.95428 0.0
C370 C 0.45203 0.33946 0.87686 0.0
C371 C 0.26798 0.27826 0.88058 0.0
C372 C 0.21603 0.25712 0.87177 0.0
C373 C 0.18247 0.20958 0.8816 0.0
C374 C 0.13306 0.19308 0.88111 0.0
C375 C 0.11571 0.2237 0.87104 0.0
C376 C 0.14908 0.27024 0.85896 0.0
C377 C 0.1986 0.2868 0.85955 0.0
C378 C 0.36688 0.23422 0.81984 0.0
C379 C 0.30429 0.15314 0.88506 0.0
O380 O 0.42487 0.1841 0.92625 0.0
O381 O 0.4798 0.25539 0.91072 0.0
O382 O 0.37907 0.28044 0.92277 0.0
O383 O 0.37719 0.23574 0.96121 0.0
O384 O 0.45712 0.30148 0.88086 0.0
O385 O 0.40837 0.33541 0.87769 0.0
O386 O 0.2782 0.25321 0.90305 0.0
O387 O 0.30092 0.29942 0.85543 0.0
O388 O 0.37956 0.23521 0.85273 0.0
O389 O 0.33947 0.25297 0.81792 0.0
O390 O 0.29217 0.18691 0.88408 0.0
O391 O 0.3495 0.16479 0.88837 0.0
H392 H 0.4491 0.11859 0.91781 0.0
H393 H 0.50281 0.08785 0.90308 0.0
H394 H 0.61747 0.23227 0.8835 0.0
H395 H 0.56362 0.26274 0.89737 0.0
H396 H 0.19438 0.18577 0.89167 0.0
H397 H 0.1086 0.15707 0.89052 0.0
H398 H 0.13701 0.29445 0.85005 0.0
H399 H 0.22338 0.32363 0.85209 0.0
Tb400 Tb 0.19677 0.38156 0.40607 0.0
Tb401 Tb 0.09891 0.3253 0.37514 0.0
C402 C 0.28565 0.43641 0.41842 0.0
C403 C 0.33338 0.48054 0.4123 0.0
C404 C 0.35212 0.49774 0.37765 0.0
C405 C 0.39998 0.53535 0.37309 0.0
C406 C 0.43041 0.55661 0.40302 0.0
C407 C 0.41142 0.53877 0.43747 0.0
C408 C 0.36379 0.50171 0.44199 0.0
C409 C 0.12338 0.34031 0.45409 0.0
C410 C 0.14405 0.4375 0.38125 0.0
C411 C 1.01239 0.25841 0.37137 0.0
C412 C 0.98549 0.20515 0.36827 0.0
C413 C 1.00538 0.177 0.37953 0.0
C414 C 0.97718 0.1267 0.38096 0.0
C415 C 0.92827 0.10354 0.37182 0.0
C416 C 0.90896 0.13163 0.35934 0.0
C417 C 0.93726 0.18175 0.35747 0.0
C418 C 0.16401 0.36685 0.32443 0.0
C419 C 0.1625 0.27428 0.39307 0.0
O420 O 0.26826 0.40402 0.39307 0.0
O421 O 0.2518 0.43817 0.43676 0.0
O422 O 0.12542 0.36048 0.42465 0.0
O423 O 0.16551 0.34502 0.4588 0.0
O424 O 0.18536 0.43823 0.38432 0.0
O425 O 0.10261 0.39584 0.38158 0.0
O426 O 1.03594 0.27553 0.40142 0.0
O427 O 1.03697 0.28366 0.34347 0.0
O428 O 0.16919 0.34869 0.35365 0.0
O429 O 0.12051 0.35971 0.32316 0.0
O430 O 0.12229 0.2709 0.38035 0.0
O431 O 0.19741 0.31516 0.40519 0.0
H432 H 0.33007 0.48165 0.35405 0.0
H433 H 0.4131 0.54798 0.34616 0.0
H434 H 0.43373 0.55296 0.46119 0.0
H435 H 0.3511 0.48848 0.46892 0.0
H436 H 0.0421 0.19384 0.38871 0.0
H437 H 0.99295 0.10611 0.391 0.0
H438 H 0.87137 0.11479 0.35214 0.0
H439 H 0.92084 0.2024 0.34896 0.0
Tb440 Tb 0.82592 0.17745 0.90458 0.0
Tb441 Tb 0.79858 0.08357 0.87393 0.0
C442 C 0.84171 0.26129 0.92049 0.0
C443 C 0.85893 0.31188 0.90795 0.0
C444 C 0.90739 0.34444 0.89955 0.0
C445 C 0.92336 0.3934 0.89268 0.0
C446 C 0.89152 0.41156 0.89432 0.0
C447 C 0.84299 0.37851 0.90205 0.0
C448 C 0.82711 0.32982 0.90877 0.0
C449 C 0.79403 0.10338 0.95355 0.0
C450 C 0.72264 0.11763 0.87566 0.0
C451 C 0.78786 1.00019 0.8726 0.0
C452 C 0.81021 0.97077 0.86385 0.0
C453 C 0.86001 0.99109 0.8592 0.0
C454 C 0.88105 0.96186 0.8582 0.0
C455 C 0.8528 0.91168 0.86237 0.0
C456 C 0.80278 0.89171 0.86585 0.0
C457 C 0.7819 0.92079 0.86653 0.0
C458 C 0.8181 0.14617 0.82158 0.0
C459 C 0.91075 0.16041 0.88829 0.0
O460 O 0.87266 0.2468 0.92495 0.0
O461 O 0.80083 0.22675 0.90842 0.0
O462 O 0.77943 0.10365 0.92232 0.0
O463 O 0.82546 0.14774 0.95973 0.0
O464 O 0.76102 0.16051 0.87524 0.0
O465 O 0.72752 0.07927 0.88116 0.0
O466 O 0.80864 0.03125 0.89843 0.0
O467 O 0.77235 1.01694 0.84685 0.0
O468 O 0.83978 0.15548 0.85203 0.0
O469 O 0.7874 0.10054 0.81994 0.0
O470 O 0.87732 0.1152 0.88227 0.0
O471 O 0.8983 0.19307 0.8933 0.0
H472 H 0.93325 0.33234 0.89888 0.0
H473 H 0.96073 0.41698 0.88606 0.0
H474 H 0.81714 0.39054 0.904 0.0
H475 H 0.78979 0.30628 0.91574 0.0
H476 H 0.88277 0.0296 0.8575 0.0
H477 H 0.91946 0.97869 0.85458 0.0
H478 H 0.77967 0.85346 0.8695 0.0
H479 H 0.74359 0.90421 0.8709 0.0
C480 C 0.14572 0.96379 0.11184 0.0
C481 C 0.16815 0.9439 0.13245 0.0
C482 C 0.15961 1.01273 0.11502 0.0
C483 C 0.19567 0.04334 0.13947 0.0
H484 H 0.11896 0.94204 0.09198 0.0
H485 H 0.14272 0.02701 0.09763 0.0
S486 S 0.26204 1.00725 0.20199 0.0
N487 N 0.22575 0.95775 0.17986 0.0
N488 N 0.25141 0.04881 0.18591 0.0
C489 C 0.21644 1.02302 0.16144 0.0
C490 C 0.20282 0.97362 0.15788 0.0
C491 C 0.26669 0.21655 0.6202 0.0
C492 C 0.25539 0.16838 0.62387 0.0
C493 C 0.23228 0.23051 0.62514 0.0
C494 C 0.18443 0.1972 0.63391 0.0
H495 H 0.30286 0.24438 0.61372 0.0
H496 H 0.24345 0.26809 0.62198 0.0
S497 S 0.13487 0.06631 0.64633 0.0
N498 N 0.19193 0.08691 0.63649 0.0
N499 N 0.12709 0.11326 0.64574 0.0
C500 C 0.17199 0.14864 0.63704 0.0
C501 C 0.20739 0.13428 0.63211 0.0
C502 C 1.0293 0.22384 0.12439 0.0
C503 C 1.01471 0.17682 0.13602 0.0
C504 C 0.07797 0.25819 0.11926 0.0
C505 C 0.11476 0.24739 0.12538 0.0
H506 H 1.00277 0.23426 0.1188 0.0
H507 H 0.0867 0.29372 0.11048 0.0
S508 S 0.09652 0.12987 0.15697 0.0
N509 N 0.04173 0.12171 0.15431 0.0
N510 N 0.13281 0.18572 0.1441 0.0
C511 C 0.1008 0.20038 0.1368 0.0
C512 C 0.05107 0.16536 0.14221 0.0
C513 C 0.90598 0.03329 0.64536 0.0
C514 C 0.86598 0.99801 0.62606 0.0
C515 C 0.92151 0.08272 0.64179 0.0
C516 C 0.89751 0.09884 0.61892 0.0
H517 H 0.92435 1.02254 0.66438 0.0
H518 H 0.95117 0.1082 0.65819 0.0
S519 S 0.79626 1.02231 0.55789 0.0
N520 N 0.80703 0.98403 0.57973 0.0
N521 N 0.83516 0.07575 0.57372 0.0
C522 C 0.85922 0.06416 0.59813 0.0
C523 C 0.84376 1.01419 0.60151 0.0
C524 C 0.88082 0.8705 0.15764 0.0
C525 C 0.88938 0.84727 0.12882 0.0
C526 C 0.84962 0.88934 0.15395 0.0
C527 C 0.82482 0.88477 0.12151 0.0
H528 H 0.89825 0.87398 0.18332 0.0
H529 H 0.84334 0.90576 0.17713 0.0
S530 S 0.8348 0.82758 0.03783 0.0
N531 N 0.87087 0.8219 0.0665 0.0
N532 N 0.81195 0.85591 0.0599 0.0
C533 C 0.83355 0.86212 0.09248 0.0
C534 C 0.86581 0.8438 0.09602 0.0
C535 C 0.98326 0.85423 0.62655 0.0
C536 C 0.96838 0.80493 0.62786 0.0
C537 C 1.03228 0.88991 0.6296 0.0
C538 C 0.06837 0.87777 0.63458 0.0
H539 H 0.95697 0.86544 0.62303 0.0
H540 H 0.04193 0.92727 0.62854 0.0
S541 S 0.0499 0.75461 0.63762 0.0
N542 N 0.99549 0.74669 0.63296 0.0
N543 N 0.08603 0.81314 0.6387 0.0
C544 C 0.05411 0.82885 0.6354 0.0
C545 C 1.00469 0.79271 0.63205 0.0
C546 C 0.07772 0.82735 0.37819 0.0
C547 C 0.11166 0.87522 0.38681 0.0
C548 C 1.02861 0.81135 0.37598 0.0
C549 C 1.01032 0.84205 0.38278 0.0
H550 H 0.08892 0.80133 0.37331 0.0
H551 H 1.00461 0.77412 0.36917 0.0
S552 S 0.08343 0.97128 0.4061 0.0
N553 N 0.12339 0.95385 0.40129 0.0
N554 N 1.03055 0.92347 0.39818 0.0
C555 C 0.04374 0.89045 0.39078 0.0
C556 C 0.09435 0.90702 0.39265 0.0
C557 C 0.24696 1.01627 0.88822 0.0
C558 C 0.19902 0.99872 0.8775 0.0
C559 C 0.28004 0.06575 0.89058 0.0
C560 C 0.26715 0.10064 0.88239 0.0
H561 H 0.25906 0.9915 0.89547 0.0
H562 H 0.31618 0.0766 0.89925 0.0
S563 S 0.14687 0.07428 0.85076 0.0
N564 N 0.14091 1.02083 0.85709 0.0
N565 N 0.20284 0.11344 0.86163 0.0
C566 C 0.21941 0.0837 0.8713 0.0
C567 C 0.18555 0.03308 0.86888 0.0
C568 C 0.20816 0.23375 0.41281 0.0
C569 C 0.17165 0.23297 0.39124 0.0
C570 C 0.22197 0.19888 0.40949 0.0
C571 C 0.20033 0.1615 0.38419 0.0
H572 H 0.22709 0.2622 0.4322 0.0
H573 H 0.25107 0.20225 0.42622 0.0
S574 S 0.10085 0.14074 0.32247 0.0
N575 N 0.11265 0.1899 0.34451 0.0
N576 N 0.13838 0.12431 0.33841 0.0
C577 C 0.16283 0.15934 0.36305 0.0
C578 C 0.14846 0.19485 0.36662 0.0
C579 C 1.02741 0.1622 0.86412 0.0
C580 C 0.0635 0.20803 0.87542 0.0
C581 C 0.97829 0.14665 0.86884 0.0
C582 C 0.96302 0.17617 0.88517 0.0
H583 H 1.03717 0.13828 0.8511 0.0
H584 H 0.95215 0.11149 0.85905 0.0
S585 S 0.04314 0.29771 0.92265 0.0
N586 N 0.08022 0.28137 0.90598 0.0
N587 N 0.98871 0.25276 0.91446 0.0
C588 C 0.99886 0.22173 0.89723 0.0
C589 C 0.04873 0.23747 0.89245 0.0
C590 C 0.90127 1.01545 0.3616 0.0
C591 C 0.89585 0.05125 0.37918 0.0
C592 C 0.86792 0.96608 0.36686 0.0
C593 C 0.82823 0.95101 0.39001 0.0
H594 H 0.93047 1.02569 0.34277 0.0
H595 H 0.87212 0.93981 0.35163 0.0
S596 S 0.80284 0.03066 0.44673 0.0
N597 N 0.85095 0.06784 0.42348 0.0
N598 N 0.78927 0.97636 0.43377 0.0
C599 C 0.82446 0.9867 0.40924 0.0
C600 C 0.85793 0.0364 0.40372 0.0
C601 C 0.86589 0.80086 0.85135 0.0
C602 C 0.906 0.81071 0.87267 0.0
C603 C 0.85068 0.83448 0.84688 0.0
C604 C 0.87433 0.87956 0.86395 0.0
H605 H 0.84533 0.76629 0.8384 0.0
H606 H 0.81931 0.82451 0.83039 0.0
S607 S 0.98227 0.92362 0.92228 0.0
N608 N 0.97032 0.86951 0.91004 0.0
N609 N 0.94122 0.93241 0.90266 0.0
C610 C 0.91564 0.89058 0.88445 0.0
C611 C 0.93153 0.85629 0.88858 0.0
C612 C 0.18629 0.67215 0.14534 0.0
C613 C 0.14349 0.6698 0.13339 0.0
C614 C 0.19422 0.63305 0.14218 0.0
C615 C 0.1601 0.58934 0.12634 0.0
H616 H 0.21488 0.70528 0.15643 0.0
H617 H 0.22852 0.63804 0.15089 0.0
S618 S 0.04065 0.56296 0.09215 0.0
N619 N 0.06551 0.61895 0.10631 0.0
N620 N 0.08008 0.54554 0.10028 0.0
C621 C 0.11635 0.58585 0.11525 0.0
C622 C 0.10809 0.6258 0.11888 0.0
C623 C 0.58915 0.18688 0.63725 0.0
C624 C 0.59916 0.1545 0.61912 0.0
C625 C 0.54194 0.17812 0.64139 0.0
C626 C 0.50177 0.13633 0.62787 0.0
H627 H 0.61825 0.21993 0.64798 0.0
H628 H 0.53705 0.20525 0.65469 0.0
S629 S 0.50715 0.03931 0.57837 0.0
N630 N 0.56385 0.07812 0.58765 0.0
N631 N 0.47545 0.06166 0.59594 0.0
C632 C 0.51083 0.10271 0.61076 0.0
C633 C 0.55921 0.11176 0.60629 0.0
C634 C 0.47304 0.54262 0.10744 0.0
C635 C 0.47664 0.58008 0.12948 0.0
C636 C 0.4361 0.49439 0.11218 0.0
C637 C 0.40079 0.48151 0.13897 0.0
H638 H 0.49826 0.55087 0.08561 0.0
H639 H 0.43333 0.46767 0.09319 0.0
S640 S 0.39424 0.56466 0.20468 0.0
N641 N 0.44196 0.59957 0.18014 0.0
N642 N 0.373 0.50997 0.18864 0.0
C643 C 0.40512 0.51819 0.162 0.0
C644 C 0.44281 0.56702 0.15744 0.0
C645 C 0.96032 0.461 0.60979 0.0
C646 C 0.92006 0.46139 0.62479 0.0
C647 C 0.96769 0.42129 0.61391 0.0
C648 C 0.93482 0.3797 0.63287 0.0
H649 H 0.98604 0.49138 0.59406 0.0
H650 H 0.99803 0.42227 0.60056 0.0
S651 S 0.82458 0.36218 0.67867 0.0
N652 N 0.84774 0.41598 0.66042 0.0
N653 N 0.86163 0.34268 0.66831 0.0
C654 C 0.89546 0.38036 0.64902 0.0
C655 C 0.8881 0.42065 0.645 0.0
C656 C 0.53604 0.87278 0.14659 0.0
C657 C 0.57714 0.91594 0.13579 0.0
C658 C 0.48905 0.86457 0.14171 0.0
C659 C 0.48008 0.89905 0.12579 0.0
H660 H 0.54002 0.84415 0.1583 0.0
H661 H 0.45931 0.83046 0.15031 0.0
S662 S 0.57448 1.01847 0.0925 0.0
N663 N 0.60516 0.99401 0.10853 0.0
N664 N 0.5173 0.97885 0.09931 0.0
C665 C 0.52084 0.94304 0.11568 0.0
C666 C 0.56899 0.95139 0.12068 0.0
C667 C 0.64357 0.5563 0.61364 0.0
C668 C 0.6841 0.56634 0.63462 0.0
C669 C 0.60511 0.50857 0.60883 0.0
C670 C 0.6056 0.46869 0.62456 0.0
H671 H 0.64283 0.58506 0.59907 0.0
H672 H 0.57588 0.50269 0.59117 0.0
S673 S 0.70026 0.47641 0.68612 0.0
N674 N 0.71971 0.53249 0.67407 0.0
N675 N 0.64831 0.44422 0.66548 0.0
C676 C 0.64466 0.4789 0.6473 0.0
C677 C 0.68347 0.52713 0.65218 0.0
C678 C 0.39463 0.88016 0.3673 0.0
C679 C 0.39506 0.92124 0.38098 0.0
C680 C 0.43367 0.87244 0.37182 0.0
C681 C 0.4755 0.90528 0.39042 0.0
H682 H 0.36294 0.85263 0.3538 0.0
H683 H 0.43057 0.83978 0.36115 0.0
S684 S 0.49584 1.01921 0.43137 0.0
N685 N 0.44179 0.99588 0.41338 0.0
N686 N 0.51506 0.98154 0.42216 0.0
C687 C 0.47728 0.94751 0.40319 0.0
C688 C 0.43727 0.95543 0.39842 0.0
C689 C 0.58592 0.42837 0.86418 0.0
C690 C 0.59532 0.46669 0.88737 0.0
C691 C 0.53897 0.38942 0.85893 0.0
C692 C 0.49847 0.38685 0.87593 0.0
H693 H 0.61543 0.42712 0.85133 0.0
H694 H 0.5346 0.35984 0.8424 0.0
S695 S 0.50196 0.47978 0.93656 0.0
N696 N 0.55872 0.50094 0.92543 0.0
N697 N 0.47111 0.42805 0.9154 0.0
C698 C 0.50685 0.4261 0.89756 0.0
C699 C 0.55489 0.46567 0.90335 0.0
C700 C 0.12114 0.54114 0.40353 0.0
C701 C 0.16195 0.58205 0.38925 0.0
C702 C 0.11344 0.49406 0.39888 0.0
C703 C 0.14652 0.48558 0.38014 0.0
H704 H 0.09519 0.54558 0.41902 0.0
H705 H 0.08255 0.4644 0.41159 0.0
S706 S 0.25814 0.5791 0.33609 0.0
N707 N 0.23498 0.60954 0.35445 0.0
N708 N 0.22053 0.5223 0.34565 0.0
C709 C 0.1865 0.5259 0.36474 0.0
C710 C 0.19417 0.57357 0.36925 0.0
C711 C 0.67027 0.14853 0.85224 0.0
C712 C 0.6755 0.11656 0.87525 0.0
C713 C 0.63339 0.15949 0.85697 0.0
C714 C 0.59993 0.13958 0.88533 0.0
H715 H 0.69645 0.16712 0.83121 0.0
H716 H 0.6321 0.18511 0.83877 0.0
S717 S 0.59734 0.05324 0.95324 0.0
N718 N 0.64312 0.06408 0.92705 0.0
N719 N 0.57433 0.0849 0.93648 0.0
C720 C 0.60353 0.10591 0.90775 0.0
C721 C 0.64108 0.09443 0.90263 0.0
C722 C 0.51382 0.59756 0.37364 0.0
C723 C 0.4812 0.59807 0.39896 0.0
C724 C 0.56179 0.63628 0.3706 0.0
C725 C 0.57886 0.67735 0.39247 0.0
H726 H 0.50229 0.56687 0.35617 0.0
H727 H 0.58512 0.63455 0.35045 0.0
S728 S 0.50858 0.69686 0.463 0.0
N729 N 0.47034 0.64412 0.44584 0.0
N730 N 0.55925 0.71491 0.44104 0.0
C731 C 0.54666 0.67777 0.41801 0.0
C732 C 0.49834 0.63885 0.42102 0.0
C733 C 0.88914 0.52527 0.8658 0.0
C734 C 0.93041 0.5635 0.88171 0.0
C735 C 0.87828 0.47723 0.86881 0.0
C736 C 0.90773 0.46425 0.88828 0.0
H737 H 0.86399 0.53237 0.85152 0.0
H738 H 0.84569 0.4498 0.85622 0.0
S739 S 1.02081 0.55045 0.93493 0.0
N740 N 1.00184 0.58491 0.91693 0.0
N741 N 0.98124 0.49494 0.92331 0.0
C742 C 0.95015 0.50232 0.90337 0.0
C743 C 0.96146 0.55161 0.89995 0.0
C744 C 0.22989 0.36401 0.28946 0.0
C745 C 0.19122 0.3726 0.29019 0.0
C746 C 0.25174 0.36333 0.25676 0.0
C747 C 0.23567 0.37065 0.2231 0.0
H748 H 0.24257 0.35636 0.31425 0.0
H749 H 0.28068 0.35544 0.25795 0.0
S750 S 0.13929 0.40009 0.21011 0.0
N751 N 0.14069 0.39311 0.2541 0.0
N752 N 0.18115 0.39065 0.19307 0.0
C753 C 0.19846 0.38131 0.22352 0.0
C754 C 0.17649 0.38259 0.25686 0.0
C755 C 0.84351 0.17327 0.72084 0.0
C756 C 0.88195 0.2207 0.71986 0.0
C757 C 0.82226 0.15054 0.7537 0.0
C758 C 0.83871 0.17385 0.78731 0.0
H759 H 0.83064 0.15292 0.69613 0.0
H760 H 0.79353 0.1136 0.75267 0.0
S761 S 0.93467 0.30003 0.79971 0.0
N762 N 0.9326 0.29181 0.7557 0.0
N763 N 0.89333 0.24851 0.81701 0.0
C764 C 0.87563 0.2219 0.78665 0.0
C765 C 0.89697 0.24537 0.75314 0.0
C766 C 0.71077 0.83944 0.22654 0.0
C767 C 0.69513 0.87296 0.22504 0.0
C768 C 0.71557 0.82084 0.25965 0.0
C769 C 0.70479 0.83451 0.29301 0.0
H770 H 0.72144 0.82899 0.20211 0.0
H771 H 0.7293 0.79629 0.25901 0.0
S772 S 0.6575 0.91737 0.30397 0.0
N773 N 0.66506 0.91628 0.26003 0.0
N774 N 0.67423 0.88109 0.32192 0.0
C775 C 0.68672 0.86604 0.29186 0.0
C776 C 0.68189 0.88524 0.25804 0.0
C777 C 0.82573 0.67384 0.75692 0.0
C778 C 0.84546 0.67267 0.72306 0.0
C779 C 0.85008 0.67806 0.78967 0.0
C780 C 0.89525 0.68132 0.78997 0.0
H781 H 0.7921 0.67373 0.75814 0.0
H782 H 0.83464 0.68142 0.81461 0.0
S783 S 0.9587 0.67122 0.70979 0.0
N784 N 0.91008 0.66879 0.69291 0.0
N785 N 0.95576 0.67684 0.75374 0.0
C786 C 0.91363 0.67671 0.75659 0.0
C787 C 0.88883 0.67231 0.7234 0.0
C788 C 0.2364 0.87148 0.22399 0.0
C789 C 0.1877 0.83624 0.22125 0.0
C790 C 0.25868 0.88791 0.25793 0.0
C791 C 0.2334 0.86962 0.29069 0.0
H792 H 0.2567 0.88845 0.19983 0.0
H793 H 0.2956 0.91681 0.25842 0.0
S794 S 0.10693 0.7714 0.29793 0.0
N795 N 0.11622 0.78008 0.25416 0.0
N796 N 0.15807 0.8099 0.31735 0.0
C797 C 0.18566 0.83187 0.28808 0.0
C798 C 0.16288 0.8156 0.2536 0.0
C799 C 0.3882 0.17938 0.78524 0.0
C800 C 0.38253 0.21985 0.78638 0.0
C801 C 0.39195 0.16009 0.75196 0.0
C802 C 0.39014 0.18039 0.71845 0.0
H803 H 0.38686 0.16085 0.80996 0.0
H804 H 0.39405 0.12761 0.75254 0.0
S805 S 0.38307 0.29089 0.70698 0.0
N806 N 0.3808 0.28266 0.75099 0.0
N807 N 0.38776 0.24649 0.68931 0.0
C808 C 0.38783 0.22267 0.71952 0.0
C809 C 0.38401 0.24225 0.75319 0.0
C810 C 0.32119 0.31419 0.9698 0.0
C811 C 0.34794 0.29242 0.98095 0.0
C812 C 0.30056 0.33241 0.99451 0.0
C813 C 0.31014 0.33541 0.03177 0.0
H814 H 0.31644 0.31819 0.9417 0.0
H815 H 0.27799 0.34569 0.98404 0.0
S816 S 0.39702 0.30495 0.07324 0.0
N817 N 0.39128 0.285 0.03157 0.0
N818 N 0.36268 0.32936 0.07611 0.0
C819 C 0.3437 0.32138 0.04249 0.0
C820 C 0.3603 0.2979 0.0178 0.0
C821 C 0.07966 0.2915 0.51039 0.0
C822 C 0.08085 0.31868 0.48005 0.0
C823 C 0.03991 0.2706 0.53445 0.0
C824 C 0.99914 0.27576 0.52963 0.0
H825 H 0.10962 0.28595 0.51553 0.0
H826 H 0.04096 0.24968 0.55687 0.0
S827 S 0.98365 0.34408 0.45542 0.0
N828 N 1.03688 0.35015 0.44758 0.0
N829 N 0.96304 0.3106 0.49199 0.0
C830 C 0.99977 0.30268 0.49949 0.0
C831 C 0.04024 0.3242 0.47512 0.0
C832 C 0.73604 0.97554 0.9958 0.0
C833 C 0.73165 0.98235 0.03279 0.0
C834 C 0.75272 1.01372 0.9705 0.0
C835 C 0.7708 0.06206 0.98082 0.0
H836 H 0.72531 0.93995 0.986 0.0
H837 H 0.75081 1.00455 0.94262 0.0
S838 S 0.75519 0.09833 0.07226 0.0
N839 N 0.73427 0.04011 0.07616 0.0
N840 N 0.7745 0.1125 0.0304 0.0
C841 C 0.76428 0.06906 0.01741 0.0
C842 C 0.74294 0.02936 0.04273 0.0
C843 C 0.79626 0.7812 0.53974 0.0
C844 C 0.79048 0.73518 0.53391 0.0
C845 C 0.7749 0.80092 0.51681 0.0
C846 C 0.74643 0.77563 0.48678 0.0
H847 H 0.81791 0.80251 0.56216 0.0
H848 H 0.78107 0.83648 0.5226 0.0
S849 S 0.71854 0.65295 0.4602 0.0
N850 N 0.75338 0.6649 0.49587 0.0
N851 N 0.71289 0.70059 0.45372 0.0
C852 C 0.7401 0.72931 0.48105 0.0
C853 C 0.7622 0.70961 0.50415 0.0
C854 C 1.01498 0.78291 0.99782 0.0
C855 C 0.99742 0.73675 0.98274 0.0
C856 C 0.05635 0.80455 0.02058 0.0
C857 C 0.08153 0.78063 0.03031 0.0
H858 H 0.99715 0.80293 0.99145 0.0
H859 H 0.06799 0.83988 0.03137 0.0
S860 S 0.04964 0.65858 0.99974 0.0
N861 N 1.00946 0.66834 0.97974 0.0
N862 N 0.08407 0.70718 0.02354 0.0
C863 C 0.06368 0.73426 0.01595 0.0
C864 C 1.02277 0.71297 0.99197 0.0
C865 C 0.33856 1.00608 0.49293 0.0
C866 C 0.29021 0.98325 0.48143 0.0
C867 C 0.35843 0.04657 0.51622 0.0
C868 C 0.33188 0.06814 0.52786 0.0
H869 H 0.36121 0.99202 0.4843 0.0
H870 H 0.39536 0.06159 0.52479 0.0
S871 S 0.20415 1.02384 0.50485 0.0
N872 N 0.21627 0.98579 0.48414 0.0
N873 N 0.25415 0.06299 0.52541 0.0
C874 C 0.28379 0.04629 0.51595 0.0
C875 C 0.26296 1.00383 0.49346 0.0
loop_
_geom_bond_atom_site_label_1
_geom_bond_atom_site_label_2
_geom_bond_distance
_geom_bond_site_symmetry_2
_ccdc_geom_bond_type
Tb0 C2 2.809 . S
Tb0 O20 2.484 . S
Tb0 O21 2.440 . S
Tb0 O22 2.658 . S
Tb0 O23 2.409 . S
Tb0 O24 2.378 . S
Tb0 O28 2.325 . S
Tb0 O31 2.341 . S
Tb1 C11 2.809 . S
Tb1 O22 2.325 . S
Tb1 O25 2.341 . S
Tb1 O26 2.484 . S
Tb1 O27 2.440 . S
Tb1 O28 2.658 . S
Tb1 O29 2.409 . S
Tb1 O30 2.378 . S
C2 Tb0 2.809 . S
C2 C3 1.514 . S
C2 O20 1.248 . S
C2 O21 1.266 . S
C3 C2 1.514 . S
C3 C4 1.359 . S
C3 C8 1.348 . S
C4 C3 1.359 . S
C4 C5 1.380 . S
C4 H32 0.929 . S
C5 C4 1.380 . S
C5 C6 1.347 . S
C5 H33 0.931 . S
C6 C5 1.347 . S
C6 C7 1.369 . S
C7 C6 1.369 . S
C7 C8 1.408 . S
C7 H34 0.930 . S
C8 C3 1.348 . S
C8 C7 1.408 . S
C8 H35 0.930 . S
C9 O22 1.281 . S
C9 O23 1.254 . S
C10 O24 1.236 . S
C10 O25 1.266 . S
C11 Tb1 2.809 . S
C11 C12 1.514 . S
C11 O26 1.248 . S
C11 O27 1.266 . S
C12 C11 1.514 . S
C12 C13 1.359 . S
C12 C17 1.348 . S
C13 C12 1.359 . S
C13 C14 1.380 . S
C13 H36 0.929 . S
C14 C13 1.380 . S
C14 C15 1.347 . S
C14 H37 0.931 . S
C15 C14 1.347 . S
C15 C16 1.369 . S
C16 C15 1.369 . S
C16 C17 1.408 . S
C16 H38 0.930 . S
C17 C12 1.348 . S
C17 C16 1.408 . S
C17 H39 0.930 . S
C18 O28 1.281 . S
C18 O29 1.254 . S
C19 O30 1.236 . S
C19 O31 1.266 . S
O20 Tb0 2.484 . S
O20 C2 1.248 . S
O21 Tb0 2.440 . S
O21 C2 1.266 . S
O22 Tb0 2.658 . S
O22 Tb1 2.325 . S
O22 C9 1.281 . S
O23 Tb0 2.409 . S
O23 C9 1.254 . S
O24 Tb0 2.378 . S
O24 C10 1.236 . S
O25 Tb1 2.341 . S
O25 C10 1.266 . S
O26 Tb1 2.484 . S
O26 C11 1.248 . S
O27 Tb1 2.440 . S
O27 C11 1.266 . S
O28 Tb0 2.325 . S
O28 Tb1 2.658 . S
O28 C18 1.281 . S
O29 Tb1 2.409 . S
O29 C18 1.254 . S
O30 Tb1 2.378 . S
O30 C19 1.236 . S
O31 Tb0 2.341 . S
O31 C19 1.266 . S
H32 C4 0.929 . S
H33 C5 0.931 . S
H34 C7 0.930 . S
H35 C8 0.930 . S
H36 C13 0.929 . S
H37 C14 0.931 . S
H38 C16 0.930 . S
H39 C17 0.930 . S
Tb40 C42 2.809 . S
Tb40 O60 2.484 . S
Tb40 O61 2.440 . S
Tb40 O62 2.658 . S
Tb40 O63 2.409 . S
Tb40 O64 2.378 . S
Tb40 O68 2.325 . S
Tb40 O71 2.341 . S
Tb41 C51 2.809 . S
Tb41 O62 2.325 . S
Tb41 O65 2.341 . S
Tb41 O66 2.484 . S
Tb41 O67 2.440 . S
Tb41 O68 2.658 . S
Tb41 O69 2.409 . S
Tb41 O70 2.378 . S
C42 Tb40 2.809 . S
C42 C43 1.514 . S
C42 O60 1.248 . S
C42 O61 1.266 . S
C43 C42 1.514 . S
C43 C44 1.359 . S
C43 C48 1.348 . S
C44 C43 1.359 . S
C44 C45 1.380 . S
C44 H72 0.929 . S
C45 C44 1.380 . S
C45 C46 1.347 . S
C45 H73 0.931 . S
C46 C45 1.347 . S
C46 C47 1.369 . S
C47 C46 1.369 . S
C47 C48 1.408 . S
C47 H74 0.930 . S
C48 C43 1.348 . S
C48 C47 1.408 . S
C48 H75 0.930 . S
C49 O62 1.281 . S
C49 O63 1.254 . S
C50 O64 1.236 . S
C50 O65 1.266 . S
C51 Tb41 2.809 . S
C51 C52 1.514 1_655 S
C51 O66 1.248 . S
C51 O67 1.266 . S
C52 C51 1.514 1_455 S
C52 C53 1.359 . S
C52 C57 1.348 . S
C53 C52 1.359 . S
C53 C54 1.380 . S
C53 H76 0.929 . S
C54 C53 1.380 . S
C54 C55 1.347 . S
C54 H77 0.931 . S
C55 C54 1.347 . S
C55 C56 1.369 . S
C56 C55 1.369 . S
C56 C57 1.408 . S
C56 H78 0.930 . S
C57 C52 1.348 . S
C57 C56 1.408 . S
C57 H79 0.930 . S
C58 O68 1.281 . S
C58 O69 1.254 . S
C59 O70 1.236 . S
C59 O71 1.266 . S
O60 Tb40 2.484 . S
O60 C42 1.248 . S
O61 Tb40 2.440 . S
O61 C42 1.266 . S
O62 Tb40 2.658 . S
O62 Tb41 2.325 . S
O62 C49 1.281 . S
O63 Tb40 2.409 . S
O63 C49 1.254 . S
O64 Tb40 2.378 . S
O64 C50 1.236 . S
O65 Tb41 2.341 . S
O65 C50 1.266 . S
O66 Tb41 2.484 . S
O66 C51 1.248 . S
O67 Tb41 2.440 . S
O67 C51 1.266 . S
O68 Tb40 2.325 . S
O68 Tb41 2.658 . S
O68 C58 1.281 . S
O69 Tb41 2.409 . S
O69 C58 1.254 . S
O70 Tb41 2.378 . S
O70 C59 1.236 . S
O71 Tb40 2.341 . S
O71 C59 1.266 . S
H72 C44 0.929 . S
H73 C45 0.931 . S
H74 C47 0.930 . S
H75 C48 0.930 . S
H76 C53 0.929 . S
H77 C54 0.931 . S
H78 C56 0.930 . S
H79 C57 0.930 . S
Tb80 C82 2.809 . S
Tb80 O100 2.484 . S
Tb80 O101 2.440 . S
Tb80 O102 2.658 . S
Tb80 O103 2.409 . S
Tb80 O104 2.378 . S
Tb80 O108 2.325 . S
Tb80 O111 2.341 . S
Tb81 C91 2.809 . S
Tb81 O102 2.325 . S
Tb81 O105 2.341 . S
Tb81 O106 2.484 . S
Tb81 O107 2.440 . S
Tb81 O108 2.658 . S
Tb81 O109 2.409 . S
Tb81 O110 2.378 . S
C82 Tb80 2.809 . S
C82 C83 1.514 . S
C82 O100 1.248 . S
C82 O101 1.266 . S
C83 C82 1.514 . S
C83 C84 1.359 . S
C83 C88 1.348 . S
C84 C83 1.359 . S
C84 C85 1.380 . S
C84 H112 0.929 . S
C85 C84 1.380 . S
C85 C86 1.347 . S
C85 H113 0.931 . S
C86 C85 1.347 . S
C86 C87 1.369 . S
C87 C86 1.369 . S
C87 C88 1.408 . S
C87 H114 0.930 . S
C88 C83 1.348 . S
C88 C87 1.408 . S
C88 H115 0.930 . S
C89 O102 1.281 . S
C89 O103 1.254 . S
C90 O104 1.236 . S
C90 O105 1.266 . S
C91 Tb81 2.809 . S
C91 C92 1.514 1_565 S
C91 O106 1.248 . S
C91 O107 1.266 . S
C92 C91 1.514 1_545 S
C92 C93 1.359 . S
C92 C97 1.348 . S
C93 C92 1.359 . S
C93 C94 1.380 . S
C93 H116 0.929 . S
C94 C93 1.380 . S
C94 C95 1.347 . S
C94 H117 0.931 . S
C95 C94 1.347 . S
C95 C96 1.369 . S
C96 C95 1.369 . S
C96 C97 1.408 . S
C96 H118 0.930 . S
C97 C92 1.348 . S
C97 C96 1.408 . S
C97 H119 0.930 . S
C98 O108 1.281 . S
C98 O109 1.254 . S
C99 O110 1.236 . S
C99 O111 1.266 . S
O100 Tb80 2.484 . S
O100 C82 1.248 . S
O101 Tb80 2.440 . S
O101 C82 1.266 . S
O102 Tb80 2.658 . S
O102 Tb81 2.325 . S
O102 C89 1.281 . S
O103 Tb80 2.409 . S
O103 C89 1.254 . S
O104 Tb80 2.378 . S
O104 C90 1.236 . S
O105 Tb81 2.341 . S
O105 C90 1.266 . S
O106 Tb81 2.484 . S
O106 C91 1.248 . S
O107 Tb81 2.440 . S
O107 C91 1.266 . S
O108 Tb80 2.325 . S
O108 Tb81 2.658 . S
O108 C98 1.281 . S
O109 Tb81 2.409 . S
O109 C98 1.254 . S
O110 Tb81 2.378 . S
O110 C99 1.236 . S
O111 Tb80 2.341 . S
O111 C99 1.266 . S
H112 C84 0.929 . S
H113 C85 0.931 . S
H114 C87 0.930 . S
H115 C88 0.930 . S
H116 C93 0.929 . S
H117 C94 0.931 . S
H118 C96 0.930 . S
H119 C97 0.930 . S
Tb120 C122 2.809 . S
Tb120 O140 2.484 . S
Tb120 O141 2.440 . S
Tb120 O142 2.658 . S
Tb120 O143 2.409 . S
Tb120 O144 2.378 . S
Tb120 O148 2.325 . S
Tb120 O151 2.341 . S
Tb121 C131 2.809 . S
Tb121 O142 2.325 . S
Tb121 O145 2.341 . S
Tb121 O146 2.484 . S
Tb121 O147 2.440 . S
Tb121 O148 2.658 . S
Tb121 O149 2.409 . S
Tb121 O150 2.378 . S
C122 Tb120 2.809 . S
C122 C123 1.514 . S
C122 O140 1.248 . S
C122 O141 1.266 . S
C123 C122 1.514 . S
C123 C124 1.359 . S
C123 C128 1.348 . S
C124 C123 1.359 . S
C124 C125 1.380 . S
C124 H152 0.929 . S
C125 C124 1.380 . S
C125 C126 1.347 . S
C125 H153 0.931 . S
C126 C125 1.347 . S
C126 C127 1.369 . S
C127 C126 1.369 . S
C127 C128 1.408 . S
C127 H154 0.930 . S
C128 C123 1.348 . S
C128 C127 1.408 . S
C128 H155 0.930 . S
C129 O142 1.281 . S
C129 O143 1.254 . S
C130 O144 1.236 . S
C130 O145 1.266 . S
C131 Tb121 2.809 . S
C131 C132 1.514 . S
C131 O146 1.248 . S
C131 O147 1.266 . S
C132 C131 1.514 . S
C132 C133 1.359 . S
C132 C137 1.348 . S
C133 C132 1.359 . S
C133 C134 1.380 . S
C133 H156 0.929 . S
C134 C133 1.380 . S
C134 C135 1.347 . S
C134 H157 0.931 . S
C135 C134 1.347 . S
C135 C136 1.369 . S
C136 C135 1.369 . S
C136 C137 1.408 . S
C136 H158 0.930 . S
C137 C132 1.348 . S
C137 C136 1.408 . S
C137 H159 0.930 . S
C138 O148 1.281 . S
C138 O149 1.254 . S
C139 O150 1.236 . S
C139 O151 1.266 . S
O140 Tb120 2.484 . S
O140 C122 1.248 . S
O141 Tb120 2.440 . S
O141 C122 1.266 . S
O142 Tb120 2.658 . S
O142 Tb121 2.325 . S
O142 C129 1.281 . S
O143 Tb120 2.409 . S
O143 C129 1.254 . S
O144 Tb120 2.378 . S
O144 C130 1.236 . S
O145 Tb121 2.341 . S
O145 C130 1.266 . S
O146 Tb121 2.484 . S
O146 C131 1.248 . S
O147 Tb121 2.440 . S
O147 C131 1.266 . S
O148 Tb120 2.325 . S
O148 Tb121 2.658 . S
O148 C138 1.281 . S
O149 Tb121 2.409 . S
O149 C138 1.254 . S
O150 Tb121 2.378 . S
O150 C139 1.236 . S
O151 Tb120 2.341 . S
O151 C139 1.266 . S
H152 C124 0.929 . S
H153 C125 0.931 . S
H154 C127 0.930 . S
H155 C128 0.930 . S
H156 C133 0.929 . S
H157 C134 0.931 . S
H158 C136 0.930 . S
H159 C137 0.930 . S
Tb160 C162 2.809 . S
Tb160 O180 2.484 . S
Tb160 O181 2.440 . S
Tb160 O182 2.658 . S
Tb160 O183 2.409 . S
Tb160 O184 2.378 . S
Tb160 O188 2.325 . S
Tb160 O191 2.341 . S
Tb161 C171 2.809 . S
Tb161 O182 2.325 . S
Tb161 O185 2.341 . S
Tb161 O186 2.484 . S
Tb161 O187 2.440 . S
Tb161 O188 2.658 . S
Tb161 O189 2.409 . S
Tb161 O190 2.378 . S
C162 Tb160 2.809 . S
C162 C163 1.514 . S
C162 O180 1.248 . S
C162 O181 1.266 . S
C163 C162 1.514 . S
C163 C164 1.359 . S
C163 C168 1.348 . S
C164 C163 1.359 . S
C164 C165 1.380 . S
C164 H192 0.929 . S
C165 C164 1.380 . S
C165 C166 1.347 . S
C165 H193 0.931 . S
C166 C165 1.347 . S
C166 C167 1.369 . S
C167 C166 1.369 . S
C167 C168 1.408 . S
C167 H194 0.930 . S
C168 C163 1.348 . S
C168 C167 1.408 . S
C168 H195 0.930 . S
C169 O182 1.281 . S
C169 O183 1.254 . S
C170 O184 1.236 . S
C170 O185 1.266 . S
C171 Tb161 2.809 . S
C171 C172 1.514 1_455 S
C171 O186 1.248 . S
C171 O187 1.266 . S
C172 C171 1.514 1_655 S
C172 C173 1.359 . S
C172 C177 1.348 . S
C173 C172 1.359 . S
C173 C174 1.380 . S
C173 H196 0.929 . S
C174 C173 1.380 . S
C174 C175 1.347 . S
C174 H197 0.931 . S
C175 C174 1.347 . S
C175 C176 1.369 . S
C176 C175 1.369 . S
C176 C177 1.408 . S
C176 H198 0.930 . S
C177 C172 1.348 . S
C177 C176 1.408 . S
C177 H199 0.930 . S
C178 O188 1.281 . S
C178 O189 1.254 . S
C179 O190 1.236 . S
C179 O191 1.266 . S
O180 Tb160 2.484 . S
O180 C162 1.248 . S
O181 Tb160 2.440 . S
O181 C162 1.266 . S
O182 Tb160 2.658 . S
O182 Tb161 2.325 . S
O182 C169 1.281 . S
O183 Tb160 2.409 . S
O183 C169 1.254 . S
O184 Tb160 2.378 . S
O184 C170 1.236 . S
O185 Tb161 2.341 . S
O185 C170 1.266 . S
O186 Tb161 2.484 . S
O186 C171 1.248 . S
O187 Tb161 2.440 . S
O187 C171 1.266 . S
O188 Tb160 2.325 . S
O188 Tb161 2.658 . S
O188 C178 1.281 . S
O189 Tb161 2.409 . S
O189 C178 1.254 . S
O190 Tb161 2.378 . S
O190 C179 1.236 . S
O191 Tb160 2.341 . S
O191 C179 1.266 . S
H192 C164 0.929 . S
H193 C165 0.931 . S
H194 C167 0.930 . S
H195 C168 0.930 . S
H196 C173 0.929 . S
H197 C174 0.931 . S
H198 C176 0.930 . S
H199 C177 0.930 . S
Tb200 C202 2.809 . S
Tb200 O220 2.484 . S
Tb200 O221 2.440 . S
Tb200 O222 2.658 . S
Tb200 O223 2.409 . S
Tb200 O224 2.378 . S
Tb200 O228 2.325 . S
Tb200 O231 2.341 . S
Tb201 C211 2.809 . S
Tb201 O222 2.325 . S
Tb201 O225 2.341 . S
Tb201 O226 2.484 . S
Tb201 O227 2.440 . S
Tb201 O228 2.658 . S
Tb201 O229 2.409 . S
Tb201 O230 2.378 . S
C202 Tb200 2.809 . S
C202 C203 1.514 . S
C202 O220 1.248 . S
C202 O221 1.266 . S
C203 C202 1.514 . S
C203 C204 1.359 . S
C203 C208 1.348 . S
C204 C203 1.359 . S
C204 C205 1.380 . S
C204 H232 0.929 . S
C205 C204 1.380 . S
C205 C206 1.347 . S
C205 H233 0.931 . S
C206 C205 1.347 . S
C206 C207 1.369 . S
C207 C206 1.369 . S
C207 C208 1.408 . S
C207 H234 0.930 . S
C208 C203 1.348 . S
C208 C207 1.408 . S
C208 H235 0.930 . S
C209 O222 1.281 . S
C209 O223 1.254 . S
C210 O224 1.236 . S
C210 O225 1.266 . S
C211 Tb201 2.809 . S
C211 C212 1.514 1_545 S
C211 O226 1.248 . S
C211 O227 1.266 . S
C212 C211 1.514 1_565 S
C212 C213 1.359 . S
C212 C217 1.348 . S
C213 C212 1.359 . S
C213 C214 1.380 . S
C213 H236 0.929 . S
C214 C213 1.380 . S
C214 C215 1.347 . S
C214 H237 0.931 . S
C215 C214 1.347 . S
C215 C216 1.369 . S
C216 C215 1.369 . S
C216 C217 1.408 . S
C216 H238 0.930 . S
C217 C212 1.348 . S
C217 C216 1.408 . S
C217 H239 0.930 . S
C218 O228 1.281 . S
C218 O229 1.254 . S
C219 O230 1.236 . S
C219 O231 1.266 . S
O220 Tb200 2.484 . S
O220 C202 1.248 . S
O221 Tb200 2.440 . S
O221 C202 1.266 . S
O222 Tb200 2.658 . S
O222 Tb201 2.325 . S
O222 C209 1.281 . S
O223 Tb200 2.409 . S
O223 C209 1.254 . S
O224 Tb200 2.378 . S
O224 C210 1.236 . S
O225 Tb201 2.341 . S
O225 C210 1.266 . S
O226 Tb201 2.484 . S
O226 C211 1.248 . S
O227 Tb201 2.440 . S
O227 C211 1.266 . S
O228 Tb200 2.325 . S
O228 Tb201 2.658 . S
O228 C218 1.281 . S
O229 Tb201 2.409 . S
O229 C218 1.254 . S
O230 Tb201 2.378 . S
O230 C219 1.236 . S
O231 Tb200 2.341 . S
O231 C219 1.266 . S
H232 C204 0.929 . S
H233 C205 0.931 . S
H234 C207 0.930 . S
H235 C208 0.930 . S
H236 C213 0.929 . S
H237 C214 0.931 . S
H238 C216 0.930 . S
H239 C217 0.930 . S
Tb240 C242 2.809 . S
Tb240 O260 2.484 . S
Tb240 O261 2.440 . S
Tb240 O262 2.658 . S
Tb240 O263 2.409 . S
Tb240 O264 2.378 . S
Tb240 O268 2.325 . S
Tb240 O271 2.341 . S
Tb241 C251 2.809 . S
Tb241 O262 2.325 . S
Tb241 O265 2.341 . S
Tb241 O266 2.484 . S
Tb241 O267 2.440 . S
Tb241 O268 2.658 . S
Tb241 O269 2.409 . S
Tb241 O270 2.378 . S
C242 Tb240 2.809 . S
C242 C243 1.514 . S
C242 O260 1.248 . S
C242 O261 1.266 . S
C243 C242 1.514 . S
C243 C244 1.359 . S
C243 C248 1.348 . S
C244 C243 1.359 . S
C244 C245 1.380 . S
C244 H272 0.929 . S
C245 C244 1.380 . S
C245 C246 1.347 . S
C245 H273 0.931 . S
C246 C245 1.347 . S
C246 C247 1.369 . S
C247 C246 1.369 . S
C247 C248 1.408 . S
C247 H274 0.930 . S
C248 C243 1.348 . S
C248 C247 1.408 . S
C248 H275 0.930 . S
C249 O262 1.281 . S
C249 O263 1.254 . S
C250 O264 1.236 . S
C250 O265 1.266 . S
C251 Tb241 2.809 . S
C251 C252 1.514 . S
C251 O266 1.248 . S
C251 O267 1.266 . S
C252 C251 1.514 . S
C252 C253 1.359 . S
C252 C257 1.348 . S
C253 C252 1.359 . S
C253 C254 1.380 . S
C253 H276 0.929 . S
C254 C253 1.380 . S
C254 C255 1.347 . S
C254 H277 0.931 . S
C255 C254 1.347 . S
C255 C256 1.369 . S
C256 C255 1.369 . S
C256 C257 1.408 . S
C256 H278 0.930 . S
C257 C252 1.348 . S
C257 C256 1.408 . S
C257 H279 0.930 . S
C258 O268 1.281 . S
C258 O269 1.254 . S
C259 O270 1.236 . S
C259 O271 1.266 . S
O260 Tb240 2.484 . S
O260 C242 1.248 . S
O261 Tb240 2.440 . S
O261 C242 1.266 . S
O262 Tb240 2.658 . S
O262 Tb241 2.325 . S
O262 C249 1.281 . S
O263 Tb240 2.409 . S
O263 C249 1.254 . S
O264 Tb240 2.378 . S
O264 C250 1.236 . S
O265 Tb241 2.341 . S
O265 C250 1.266 . S
O266 Tb241 2.484 . S
O266 C251 1.248 . S
O267 Tb241 2.440 . S
O267 C251 1.266 . S
O268 Tb240 2.325 . S
O268 Tb241 2.658 . S
O268 C258 1.281 . S
O269 Tb241 2.409 . S
O269 C258 1.254 . S
O270 Tb241 2.378 . S
O270 C259 1.236 . S
O271 Tb240 2.341 . S
O271 C259 1.266 . S
H272 C244 0.929 . S
H273 C245 0.931 . S
H274 C247 0.930 . S
H275 C248 0.930 . S
H276 C253 0.929 . S
H277 C254 0.931 . S
H278 C256 0.930 . S
H279 C257 0.930 . S
Tb280 C282 2.809 . S
Tb280 O300 2.484 . S
Tb280 O301 2.440 . S
Tb280 O302 2.658 . S
Tb280 O303 2.409 . S
Tb280 O304 2.378 . S
Tb280 O308 2.325 . S
Tb280 O311 2.341 . S
Tb281 C291 2.809 . S
Tb281 O302 2.325 . S
Tb281 O305 2.341 . S
Tb281 O306 2.484 . S
Tb281 O307 2.440 . S
Tb281 O308 2.658 . S
Tb281 O309 2.409 . S
Tb281 O310 2.378 . S
C282 Tb280 2.809 . S
C282 C283 1.514 . S
C282 O300 1.248 . S
C282 O301 1.266 . S
C283 C282 1.514 . S
C283 C284 1.359 . S
C283 C288 1.348 . S
C284 C283 1.359 . S
C284 C285 1.380 . S
C284 H312 0.929 . S
C285 C284 1.380 . S
C285 C286 1.347 . S
C285 H313 0.931 . S
C286 C285 1.347 . S
C286 C287 1.369 . S
C287 C286 1.369 . S
C287 C288 1.408 . S
C287 H314 0.930 . S
C288 C283 1.348 . S
C288 C287 1.408 . S
C288 H315 0.930 . S
C289 O302 1.281 . S
C289 O303 1.254 . S
C290 O304 1.236 . S
C290 O305 1.266 . S
C291 Tb281 2.809 . S
C291 C292 1.514 1_655 S
C291 O306 1.248 . S
C291 O307 1.266 . S
C292 C291 1.514 1_455 S
C292 C293 1.359 . S
C292 C297 1.348 . S
C293 C292 1.359 . S
C293 C294 1.380 . S
C293 H316 0.929 . S
C294 C293 1.380 . S
C294 C295 1.347 . S
C294 H317 0.931 . S
C295 C294 1.347 . S
C295 C296 1.369 . S
C296 C295 1.369 . S
C296 C297 1.408 . S
C296 H318 0.930 . S
C297 C292 1.348 . S
C297 C296 1.408 . S
C297 H319 0.930 . S
C298 O308 1.281 . S
C298 O309 1.254 . S
C299 O310 1.236 . S
C299 O311 1.266 . S
O300 Tb280 2.484 . S
O300 C282 1.248 . S
O301 Tb280 2.440 . S
O301 C282 1.266 . S
O302 Tb280 2.658 . S
O302 Tb281 2.325 . S
O302 C289 1.281 . S
O303 Tb280 2.409 . S
O303 C289 1.254 . S
O304 Tb280 2.378 . S
O304 C290 1.236 . S
O305 Tb281 2.341 . S
O305 C290 1.266 . S
O306 Tb281 2.484 . S
O306 C291 1.248 . S
O307 Tb281 2.440 . S
O307 C291 1.266 . S
O308 Tb280 2.325 . S
O308 Tb281 2.658 . S
O308 C298 1.281 . S
O309 Tb281 2.409 . S
O309 C298 1.254 . S
O310 Tb281 2.378 . S
O310 C299 1.236 . S
O311 Tb280 2.341 . S
O311 C299 1.266 . S
H312 C284 0.929 . S
H313 C285 0.931 . S
H314 C287 0.930 . S
H315 C288 0.930 . S
H316 C293 0.929 . S
H317 C294 0.931 . S
H318 C296 0.930 . S
H319 C297 0.930 . S
Tb320 C322 2.809 . S
Tb320 O340 2.484 . S
Tb320 O341 2.440 . S
Tb320 O342 2.658 . S
Tb320 O343 2.409 . S
Tb320 O344 2.378 . S
Tb320 O348 2.325 . S
Tb320 O351 2.341 . S
Tb321 C331 2.809 . S
Tb321 O342 2.325 . S
Tb321 O345 2.341 . S
Tb321 O346 2.484 . S
Tb321 O347 2.440 . S
Tb321 O348 2.658 . S
Tb321 O349 2.409 . S
Tb321 O350 2.378 . S
C322 Tb320 2.809 . S
C322 C323 1.514 . S
C322 O340 1.248 . S
C322 O341 1.266 . S
C323 C322 1.514 . S
C323 C324 1.359 . S
C323 C328 1.348 . S
C324 C323 1.359 . S
C324 C325 1.380 . S
C324 H352 0.929 . S
C325 C324 1.380 . S
C325 C326 1.347 . S
C325 H353 0.931 . S
C326 C325 1.347 . S
C326 C327 1.369 . S
C327 C326 1.369 . S
C327 C328 1.408 . S
C327 H354 0.930 . S
C328 C323 1.348 . S
C328 C327 1.408 . S
C328 H355 0.930 . S
C329 O342 1.281 . S
C329 O343 1.254 . S
C330 O344 1.236 . S
C330 O345 1.266 . S
C331 Tb321 2.809 . S
C331 C332 1.514 1_565 S
C331 O346 1.248 . S
C331 O347 1.266 . S
C332 C331 1.514 1_545 S
C332 C333 1.359 . S
C332 C337 1.348 . S
C333 C332 1.359 . S
C333 C334 1.380 . S
C333 H356 0.929 . S
C334 C333 1.380 . S
C334 C335 1.347 . S
C334 H357 0.931 . S
C335 C334 1.347 . S
C335 C336 1.369 . S
C336 C335 1.369 . S
C336 C337 1.408 . S
C336 H358 0.930 . S
C337 C332 1.348 . S
C337 C336 1.408 . S
C337 H359 0.930 . S
C338 O348 1.281 . S
C338 O349 1.254 . S
C339 O350 1.236 . S
C339 O351 1.266 . S
O340 Tb320 2.484 . S
O340 C322 1.248 . S
O341 Tb320 2.440 . S
O341 C322 1.266 . S
O342 Tb320 2.658 . S
O342 Tb321 2.325 . S
O342 C329 1.281 . S
O343 Tb320 2.409 . S
O343 C329 1.254 . S
O344 Tb320 2.378 . S
O344 C330 1.236 . S
O345 Tb321 2.341 . S
O345 C330 1.266 . S
O346 Tb321 2.484 . S
O346 C331 1.248 . S
O347 Tb321 2.440 . S
O347 C331 1.266 . S
O348 Tb320 2.325 . S
O348 Tb321 2.658 . S
O348 C338 1.281 . S
O349 Tb321 2.409 . S
O349 C338 1.254 . S
O350 Tb321 2.378 . S
O350 C339 1.236 . S
O351 Tb320 2.341 . S
O351 C339 1.266 . S
H352 C324 0.929 . S
H353 C325 0.931 . S
H354 C327 0.930 . S
H355 C328 0.930 . S
H356 C333 0.929 . S
H357 C334 0.931 . S
H358 C336 0.930 . S
H359 C337 0.930 . S
Tb360 C362 2.809 . S
Tb360 O380 2.484 . S
Tb360 O381 2.440 . S
Tb360 O382 2.658 . S
Tb360 O383 2.409 . S
Tb360 O384 2.378 . S
Tb360 O388 2.325 . S
Tb360 O391 2.341 . S
Tb361 C371 2.809 . S
Tb361 O382 2.325 . S
Tb361 O385 2.341 . S
Tb361 O386 2.484 . S
Tb361 O387 2.440 . S
Tb361 O388 2.658 . S
Tb361 O389 2.409 . S
Tb361 O390 2.378 . S
C362 Tb360 2.809 . S
C362 C363 1.514 . S
C362 O380 1.248 . S
C362 O381 1.266 . S
C363 C362 1.514 . S
C363 C364 1.359 . S
C363 C368 1.348 . S
C364 C363 1.359 . S
C364 C365 1.380 . S
C364 H392 0.929 . S
C365 C364 1.380 . S
C365 C366 1.347 . S
C365 H393 0.931 . S
C366 C365 1.347 . S
C366 C367 1.369 . S
C367 C366 1.369 . S
C367 C368 1.408 . S
C367 H394 0.930 . S
C368 C363 1.348 . S
C368 C367 1.408 . S
C368 H395 0.930 . S
C369 O382 1.281 . S
C369 O383 1.254 . S
C370 O384 1.236 . S
C370 O385 1.266 . S
C371 Tb361 2.809 . S
C371 C372 1.514 . S
C371 O386 1.248 . S
C371 O387 1.266 . S
C372 C371 1.514 . S
C372 C373 1.359 . S
C372 C377 1.348 . S
C373 C372 1.359 . S
C373 C374 1.380 . S
C373 H396 0.929 . S
C374 C373 1.380 . S
C374 C375 1.347 . S
C374 H397 0.931 . S
C375 C374 1.347 . S
C375 C376 1.369 . S
C376 C375 1.369 . S
C376 C377 1.408 . S
C376 H398 0.930 . S
C377 C372 1.348 . S
C377 C376 1.408 . S
C377 H399 0.930 . S
C378 O388 1.281 . S
C378 O389 1.254 . S
C379 O390 1.236 . S
C379 O391 1.266 . S
O380 Tb360 2.484 . S
O380 C362 1.248 . S
O381 Tb360 2.440 . S
O381 C362 1.266 . S
O382 Tb360 2.658 . S
O382 Tb361 2.325 . S
O382 C369 1.281 . S
O383 Tb360 2.409 . S
O383 C369 1.254 . S
O384 Tb360 2.378 . S
O384 C370 1.236 . S
O385 Tb361 2.341 . S
O385 C370 1.266 . S
O386 Tb361 2.484 . S
O386 C371 1.248 . S
O387 Tb361 2.440 . S
O387 C371 1.266 . S
O388 Tb360 2.325 . S
O388 Tb361 2.658 . S
O388 C378 1.281 . S
O389 Tb361 2.409 . S
O389 C378 1.254 . S
O390 Tb361 2.378 . S
O390 C379 1.236 . S
O391 Tb360 2.341 . S
O391 C379 1.266 . S
H392 C364 0.929 . S
H393 C365 0.931 . S
H394 C367 0.930 . S
H395 C368 0.930 . S
H396 C373 0.929 . S
H397 C374 0.931 . S
H398 C376 0.930 . S
H399 C377 0.930 . S
Tb400 C402 2.809 . S
Tb400 O420 2.484 . S
Tb400 O421 2.440 . S
Tb400 O422 2.658 . S
Tb400 O423 2.409 . S
Tb400 O424 2.378 . S
Tb400 O428 2.325 . S
Tb400 O431 2.341 . S
Tb401 C411 2.809 . S
Tb401 O422 2.325 . S
Tb401 O425 2.341 . S
Tb401 O426 2.484 . S
Tb401 O427 2.440 . S
Tb401 O428 2.658 . S
Tb401 O429 2.409 . S
Tb401 O430 2.378 . S
C402 Tb400 2.809 . S
C402 C403 1.514 . S
C402 O420 1.248 . S
C402 O421 1.266 . S
C403 C402 1.514 . S
C403 C404 1.359 . S
C403 C408 1.348 . S
C404 C403 1.359 . S
C404 C405 1.380 . S
C404 H432 0.929 . S
C405 C404 1.380 . S
C405 C406 1.347 . S
C405 H433 0.931 . S
C406 C405 1.347 . S
C406 C407 1.369 . S
C407 C406 1.369 . S
C407 C408 1.408 . S
C407 H434 0.930 . S
C408 C403 1.348 . S
C408 C407 1.408 . S
C408 H435 0.930 . S
C409 O422 1.281 . S
C409 O423 1.254 . S
C410 O424 1.236 . S
C410 O425 1.266 . S
C411 Tb401 2.809 . S
C411 C412 1.514 1_455 S
C411 O426 1.248 . S
C411 O427 1.266 . S
C412 C411 1.514 1_655 S
C412 C413 1.359 . S
C412 C417 1.348 . S
C413 C412 1.359 . S
C413 C414 1.380 . S
C413 H436 0.929 . S
C414 C413 1.380 . S
C414 C415 1.347 . S
C414 H437 0.931 . S
C415 C414 1.347 . S
C415 C416 1.369 . S
C416 C415 1.369 . S
C416 C417 1.408 . S
C416 H438 0.930 . S
C417 C412 1.348 . S
C417 C416 1.408 . S
C417 H439 0.930 . S
C418 O428 1.281 . S
C418 O429 1.254 . S
C419 O430 1.236 . S
C419 O431 1.266 . S
O420 Tb400 2.484 . S
O420 C402 1.248 . S
O421 Tb400 2.440 . S
O421 C402 1.266 . S
O422 Tb400 2.658 . S
O422 Tb401 2.325 . S
O422 C409 1.281 . S
O423 Tb400 2.409 . S
O423 C409 1.254 . S
O424 Tb400 2.378 . S
O424 C410 1.236 . S
O425 Tb401 2.341 . S
O425 C410 1.266 . S
O426 Tb401 2.484 . S
O426 C411 1.248 . S
O427 Tb401 2.440 . S
O427 C411 1.266 . S
O428 Tb400 2.325 . S
O428 Tb401 2.658 . S
O428 C418 1.281 . S
O429 Tb401 2.409 . S
O429 C418 1.254 . S
O430 Tb401 2.378 . S
O430 C419 1.236 . S
O431 Tb400 2.341 . S
O431 C419 1.266 . S
H432 C404 0.929 . S
H433 C405 0.931 . S
H434 C407 0.930 . S
H435 C408 0.930 . S
H436 C413 0.929 . S
H437 C414 0.931 . S
H438 C416 0.930 . S
H439 C417 0.930 . S
Tb440 C442 2.809 . S
Tb440 O460 2.484 . S
Tb440 O461 2.440 . S
Tb440 O462 2.658 . S
Tb440 O463 2.409 . S
Tb440 O464 2.378 . S
Tb440 O468 2.325 . S
Tb440 O471 2.341 . S
Tb441 C451 2.809 . S
Tb441 O462 2.325 . S
Tb441 O465 2.341 . S
Tb441 O466 2.484 . S
Tb441 O467 2.440 . S
Tb441 O468 2.658 . S
Tb441 O469 2.409 . S
Tb441 O470 2.378 . S
C442 Tb440 2.809 . S
C442 C443 1.514 . S
C442 O460 1.248 . S
C442 O461 1.266 . S
C443 C442 1.514 . S
C443 C444 1.359 . S
C443 C448 1.348 . S
C444 C443 1.359 . S
C444 C445 1.380 . S
C444 H472 0.929 . S
C445 C444 1.380 . S
C445 C446 1.347 . S
C445 H473 0.931 . S
C446 C445 1.347 . S
C446 C447 1.369 . S
C447 C446 1.369 . S
C447 C448 1.408 . S
C447 H474 0.930 . S
C448 C443 1.348 . S
C448 C447 1.408 . S
C448 H475 0.930 . S
C449 O462 1.281 . S
C449 O463 1.254 . S
C450 O464 1.236 . S
C450 O465 1.266 . S
C451 Tb441 2.809 . S
C451 C452 1.514 1_545 S
C451 O466 1.248 . S
C451 O467 1.266 . S
C452 C451 1.514 1_565 S
C452 C453 1.359 . S
C452 C457 1.348 . S
C453 C452 1.359 . S
C453 C454 1.380 . S
C453 H476 0.929 . S
C454 C453 1.380 . S
C454 C455 1.347 . S
C454 H477 0.931 . S
C455 C454 1.347 . S
C455 C456 1.369 . S
C456 C455 1.369 . S
C456 C457 1.408 . S
C456 H478 0.930 . S
C457 C452 1.348 . S
C457 C456 1.408 . S
C457 H479 0.930 . S
C458 O468 1.281 . S
C458 O469 1.254 . S
C459 O470 1.236 . S
C459 O471 1.266 . S
O460 Tb440 2.484 . S
O460 C442 1.248 . S
O461 Tb440 2.440 . S
O461 C442 1.266 . S
O462 Tb440 2.658 . S
O462 Tb441 2.325 . S
O462 C449 1.281 . S
O463 Tb440 2.409 . S
O463 C449 1.254 . S
O464 Tb440 2.378 . S
O464 C450 1.236 . S
O465 Tb441 2.341 . S
O465 C450 1.266 . S
O466 Tb441 2.484 . S
O466 C451 1.248 . S
O467 Tb441 2.440 . S
O467 C451 1.266 . S
O468 Tb440 2.325 . S
O468 Tb441 2.658 . S
O468 C458 1.281 . S
O469 Tb441 2.409 . S
O469 C458 1.254 . S
O470 Tb441 2.378 . S
O470 C459 1.236 . S
O471 Tb440 2.341 . S
O471 C459 1.266 . S
H472 C444 0.929 . S
H473 C445 0.931 . S
H474 C447 0.930 . S
H475 C448 0.930 . S
H476 C453 0.929 . S
H477 C454 0.931 . S
H478 C456 0.930 . S
H479 C457 0.930 . S
C480 C481 1.369 . S
C480 C482 1.419 1_565 S
C480 H484 0.930 . S
C481 C480 1.369 . S
C481 C490 1.429 . S
C482 C480 1.419 1_545 S
C482 C483 1.363 . S
C482 H485 0.929 . S
C483 C482 1.363 . S
C483 C489 1.428 1_545 S
H484 C480 0.930 . S
H485 C482 0.929 . S
S486 N487 1.613 . S
S486 N488 1.609 1_565 S
N487 S486 1.613 . S
N487 C490 1.350 . S
N488 S486 1.609 1_545 S
N488 C489 1.351 1_545 S
C489 C483 1.428 1_565 S
C489 N488 1.351 1_565 S
C489 C490 1.434 . S
C490 C481 1.429 . S
C490 N487 1.350 . S
C490 C489 1.434 . S
C491 C492 1.369 . S
C491 C493 1.419 . S
C491 H495 0.930 . S
C492 C491 1.369 . S
C492 C501 1.429 . S
C493 C491 1.419 . S
C493 C494 1.363 . S
C493 H496 0.929 . S
C494 C493 1.363 . S
C494 C500 1.428 . S
H495 C491 0.930 . S
H496 C493 0.929 . S
S497 N498 1.613 . S
S497 N499 1.610 . S
N498 S497 1.613 . S
N498 C501 1.350 . S
N499 S497 1.610 . S
N499 C500 1.351 . S
C500 C494 1.428 . S
C500 N499 1.351 . S
C500 C501 1.434 . S
C501 C492 1.429 . S
C501 N498 1.350 . S
C501 C500 1.434 . S
C502 C503 1.369 1_455 S
C502 C504 1.419 . S
C502 H506 0.923 1_455 S
C503 C502 1.369 1_655 S
C503 C512 1.429 . S
C504 C502 1.419 . S
C504 C505 1.363 . S
C504 H507 0.929 . S
C505 C504 1.363 . S
C505 C511 1.428 . S
H506 C502 0.923 1_655 S
H507 C504 0.929 . S
S508 N509 1.613 1_455 S
S508 N510 1.610 . S
N509 S508 1.613 1_655 S
N509 C512 1.350 . S
N510 S508 1.610 . S
N510 C511 1.351 . S
C511 C505 1.428 . S
C511 N510 1.351 . S
C511 C512 1.434 1_455 S
C512 C503 1.429 . S
C512 N509 1.350 . S
C512 C511 1.434 1_655 S
C513 C514 1.369 1_545 S
C513 C515 1.419 . S
C513 H517 0.930 . S
C514 C513 1.369 1_565 S
C514 C523 1.429 . S
C515 C513 1.419 . S
C515 C516 1.363 . S
C515 H518 0.929 . S
C516 C515 1.363 . S
C516 C522 1.428 . S
H517 C513 0.930 . S
H518 C515 0.929 . S
S519 N520 1.613 1_545 S
S519 N521 1.610 . S
N520 S519 1.613 1_565 S
N520 C523 1.350 . S
N521 S519 1.610 . S
N521 C522 1.351 . S
C522 C516 1.428 . S
C522 N521 1.351 . S
C522 C523 1.434 1_545 S
C523 C514 1.429 . S
C523 N520 1.350 . S
C523 C522 1.434 1_565 S
C524 C525 1.369 . S
C524 C526 1.419 . S
C524 H528 0.930 . S
C525 C524 1.369 . S
C525 C534 1.429 . S
C526 C524 1.419 . S
C526 C527 1.363 . S
C526 H529 0.929 . S
C527 C526 1.363 . S
C527 C533 1.428 . S
H528 C524 0.930 . S
H529 C526 0.929 . S
S530 N531 1.613 . S
S530 N532 1.610 . S
N531 S530 1.613 . S
N531 C534 1.350 . S
N532 S530 1.610 . S
N532 C533 1.351 . S
C533 C527 1.428 . S
C533 N532 1.351 . S
C533 C534 1.434 . S
C534 C525 1.429 . S
C534 N531 1.350 . S
C534 C533 1.434 . S
C535 C536 1.369 . S
C535 C537 1.419 . S
C535 H539 0.930 . S
C536 C535 1.369 . S
C536 C545 1.429 . S
C537 C535 1.419 . S
C537 C538 1.363 1_655 S
C537 H540 0.929 . S
C538 C537 1.363 1_455 S
C538 C544 1.428 . S
H539 C535 0.930 . S
H540 C537 0.929 . S
S541 N542 1.613 1_455 S
S541 N543 1.610 . S
N542 S541 1.613 1_655 S
N542 C545 1.350 . S
N543 S541 1.610 . S
N543 C544 1.351 . S
C544 C538 1.428 . S
C544 N543 1.351 . S
C544 C545 1.434 1_455 S
C545 C536 1.429 . S
C545 N542 1.350 . S
C545 C544 1.434 1_655 S
C546 C547 1.369 . S
C546 C548 1.419 1_455 S
C546 H550 0.930 . S
C547 C546 1.369 . S
C547 C556 1.429 . S
C548 C546 1.419 1_655 S
C548 C549 1.363 . S
C548 H551 0.929 . S
C549 C548 1.363 . S
C549 C555 1.428 1_655 S
H550 C546 0.930 . S
H551 C548 0.929 . S
S552 N553 1.613 . S
S552 N554 1.610 . S
N553 S552 1.613 . S
N553 C556 1.350 . S
N554 S552 1.610 . S
N554 C555 1.351 . S
C555 C549 1.428 1_455 S
C555 N554 1.351 . S
C555 C556 1.434 . S
C556 C547 1.429 . S
C556 N553 1.350 . S
C556 C555 1.434 . S
C557 C558 1.369 . S
C557 C559 1.419 1_565 S
C557 H561 0.930 . S
C558 C557 1.369 . S
C558 C567 1.429 1_565 S
C559 C557 1.419 1_545 S
C559 C560 1.363 . S
C559 H562 0.929 . S
C560 C559 1.363 . S
C560 C566 1.428 . S
H561 C557 0.930 . S
H562 C559 0.929 . S
S563 N564 1.613 . S
S563 N565 1.610 . S
N564 S563 1.613 . S
N564 C567 1.350 . S
N565 S563 1.610 . S
N565 C566 1.351 . S
C566 C560 1.428 . S
C566 N565 1.351 . S
C566 C567 1.434 . S
C567 C558 1.429 1_545 S
C567 N564 1.350 . S
C567 C566 1.434 . S
C568 C569 1.369 . S
C568 C570 1.419 . S
C568 H572 0.930 . S
C569 C568 1.369 . S
C569 C578 1.429 . S
C570 C568 1.419 . S
C570 C571 1.363 . S
C570 H573 0.929 . S
C571 C570 1.363 . S
C571 C577 1.428 . S
H572 C568 0.930 . S
H573 C570 0.929 . S
S574 N575 1.613 . S
S574 N576 1.610 . S
N575 S574 1.613 . S
N575 C578 1.350 . S
N576 S574 1.610 . S
N576 C577 1.351 . S
C577 C571 1.428 . S
C577 N576 1.351 . S
C577 C578 1.434 . S
C578 C569 1.429 . S
C578 N575 1.350 . S
C578 C577 1.434 . S
C579 C580 1.369 1_655 S
C579 C581 1.419 . S
C579 H583 0.930 . S
C580 C579 1.369 1_455 S
C580 C589 1.429 . S
C581 C579 1.419 . S
C581 C582 1.363 . S
C581 H584 0.929 . S
C582 C581 1.363 . S
C582 C588 1.428 . S
H583 C579 0.930 . S
H584 C581 0.929 . S
S585 N586 1.613 . S
S585 N587 1.610 1_455 S
N586 S585 1.613 . S
N586 C589 1.350 . S
N587 S585 1.610 1_655 S
N587 C588 1.351 . S
C588 C582 1.428 . S
C588 N587 1.351 . S
C588 C589 1.434 1_655 S
C589 C580 1.429 . S
C589 N586 1.350 . S
C589 C588 1.434 1_455 S
C590 C591 1.369 1_565 S
C590 C592 1.419 . S
C590 H594 0.930 . S
C591 C590 1.369 1_545 S
C591 C600 1.429 . S
C592 C590 1.419 . S
C592 C593 1.363 . S
C592 H595 0.929 . S
C593 C592 1.363 . S
C593 C599 1.428 . S
H594 C590 0.930 . S
H595 C592 0.929 . S
S596 N597 1.613 . S
S596 N598 1.610 1_545 S
N597 S596 1.613 . S
N597 C600 1.350 . S
N598 S596 1.610 1_565 S
N598 C599 1.351 . S
C599 C593 1.428 . S
C599 N598 1.351 . S
C599 C600 1.434 1_565 S
C600 C591 1.429 . S
C600 N597 1.350 . S
C600 C599 1.434 1_545 S
C601 C602 1.369 . S
C601 C603 1.419 . S
C601 H605 0.930 . S
C602 C601 1.369 . S
C602 C611 1.429 . S
C603 C601 1.419 . S
C603 C604 1.363 . S
C603 H606 0.929 . S
C604 C603 1.363 . S
C604 C610 1.428 . S
H605 C601 0.930 . S
H606 C603 0.929 . S
S607 N608 1.613 . S
S607 N609 1.610 . S
N608 S607 1.613 . S
N608 C611 1.350 . S
N609 S607 1.610 . S
N609 C610 1.351 . S
C610 C604 1.428 . S
C610 N609 1.351 . S
C610 C611 1.434 . S
C611 C602 1.429 . S
C611 N608 1.350 . S
C611 C610 1.434 . S
C612 C613 1.369 . S
C612 C614 1.419 . S
C612 H616 0.930 . S
C613 C612 1.369 . S
C613 C622 1.429 . S
C614 C612 1.419 . S
C614 C615 1.363 . S
C614 H617 0.929 . S
C615 C614 1.363 . S
C615 C621 1.428 . S
H616 C612 0.930 . S
H617 C614 0.929 . S
S618 N619 1.613 . S
S618 N620 1.610 . S
N619 S618 1.613 . S
N619 C622 1.350 . S
N620 S618 1.610 . S
N620 C621 1.351 . S
C621 C615 1.428 . S
C621 N620 1.351 . S
C621 C622 1.434 . S
C622 C613 1.429 . S
C622 N619 1.350 . S
C622 C621 1.434 . S
C623 C624 1.369 . S
C623 C625 1.419 . S
C623 H627 0.930 . S
C624 C623 1.369 . S
C624 C633 1.429 . S
C625 C623 1.419 . S
C625 C626 1.363 . S
C625 H628 0.929 . S
C626 C625 1.363 . S
C626 C632 1.428 . S
H627 C623 0.930 . S
H628 C625 0.929 . S
S629 N630 1.613 . S
S629 N631 1.610 . S
N630 S629 1.613 . S
N630 C633 1.350 . S
N631 S629 1.610 . S
N631 C632 1.351 . S
C632 C626 1.428 . S
C632 N631 1.351 . S
C632 C633 1.434 . S
C633 C624 1.429 . S
C633 N630 1.350 . S
C633 C632 1.434 . S
C634 C635 1.369 . S
C634 C636 1.419 . S
C634 H638 0.930 . S
C635 C634 1.369 . S
C635 C644 1.429 . S
C636 C634 1.419 . S
C636 C637 1.363 . S
C636 H639 0.929 . S
C637 C636 1.363 . S
C637 C643 1.428 . S
H638 C634 0.930 . S
H639 C636 0.929 . S
S640 N641 1.613 . S
S640 N642 1.610 . S
N641 S640 1.613 . S
N641 C644 1.350 . S
N642 S640 1.610 . S
N642 C643 1.351 . S
C643 C637 1.428 . S
C643 N642 1.351 . S
C643 C644 1.434 . S
C644 C635 1.429 . S
C644 N641 1.350 . S
C644 C643 1.434 . S
C645 C646 1.369 . S
C645 C647 1.419 . S
C645 H649 0.930 . S
C646 C645 1.369 . S
C646 C655 1.429 . S
C647 C645 1.419 . S
C647 C648 1.363 . S
C647 H650 0.929 . S
C648 C647 1.363 . S
C648 C654 1.428 . S
H649 C645 0.930 . S
H650 C647 0.929 . S
S651 N652 1.613 . S
S651 N653 1.610 . S
N652 S651 1.613 . S
N652 C655 1.350 . S
N653 S651 1.610 . S
N653 C654 1.351 . S
C654 C648 1.428 . S
C654 N653 1.351 . S
C654 C655 1.434 . S
C655 C646 1.429 . S
C655 N652 1.350 . S
C655 C654 1.434 . S
C656 C657 1.369 . S
C656 C658 1.419 . S
C656 H660 0.930 . S
C657 C656 1.369 . S
C657 C666 1.429 . S
C658 C656 1.419 . S
C658 C659 1.363 . S
C658 H661 0.929 . S
C659 C658 1.363 . S
C659 C665 1.428 . S
H660 C656 0.930 . S
H661 C658 0.929 . S
S662 N663 1.613 . S
S662 N664 1.610 . S
N663 S662 1.613 . S
N663 C666 1.350 . S
N664 S662 1.610 . S
N664 C665 1.351 . S
C665 C659 1.428 . S
C665 N664 1.351 . S
C665 C666 1.434 . S
C666 C657 1.429 . S
C666 N663 1.350 . S
C666 C665 1.434 . S
C667 C668 1.369 . S
C667 C669 1.419 . S
C667 H671 0.930 . S
C668 C667 1.369 . S
C668 C677 1.429 . S
C669 C667 1.419 . S
C669 C670 1.363 . S
C669 H672 0.929 . S
C670 C669 1.363 . S
C670 C676 1.428 . S
H671 C667 0.930 . S
H672 C669 0.929 . S
S673 N674 1.613 . S
S673 N675 1.610 . S
N674 S673 1.613 . S
N674 C677 1.350 . S
N675 S673 1.610 . S
N675 C676 1.351 . S
C676 C670 1.428 . S
C676 N675 1.351 . S
C676 C677 1.434 . S
C677 C668 1.429 . S
C677 N674 1.350 . S
C677 C676 1.434 . S
C678 C679 1.369 . S
C678 C680 1.419 . S
C678 H682 0.930 . S
C679 C678 1.369 . S
C679 C688 1.429 . S
C680 C678 1.419 . S
C680 C681 1.363 . S
C680 H683 0.929 . S
C681 C680 1.363 . S
C681 C687 1.428 . S
H682 C678 0.930 . S
H683 C680 0.929 . S
S684 N685 1.613 . S
S684 N686 1.610 . S
N685 S684 1.613 . S
N685 C688 1.350 . S
N686 S684 1.610 . S
N686 C687 1.351 . S
C687 C681 1.428 . S
C687 N686 1.351 . S
C687 C688 1.434 . S
C688 C679 1.429 . S
C688 N685 1.350 . S
C688 C687 1.434 . S
C689 C690 1.369 . S
C689 C691 1.419 . S
C689 H693 0.930 . S
C690 C689 1.369 . S
C690 C699 1.429 . S
C691 C689 1.419 . S
C691 C692 1.363 . S
C691 H694 0.929 . S
C692 C691 1.363 . S
C692 C698 1.428 . S
H693 C689 0.930 . S
H694 C691 0.929 . S
S695 N696 1.613 . S
S695 N697 1.610 . S
N696 S695 1.613 . S
N696 C699 1.350 . S
N697 S695 1.610 . S
N697 C698 1.351 . S
C698 C692 1.428 . S
C698 N697 1.351 . S
C698 C699 1.434 . S
C699 C690 1.429 . S
C699 N696 1.350 . S
C699 C698 1.434 . S
C700 C701 1.369 . S
C700 C702 1.419 . S
C700 H704 0.930 . S
C701 C700 1.369 . S
C701 C710 1.429 . S
C702 C700 1.419 . S
C702 C703 1.363 . S
C702 H705 0.929 . S
C703 C702 1.363 . S
C703 C709 1.428 . S
H704 C700 0.930 . S
H705 C702 0.929 . S
S706 N707 1.613 . S
S706 N708 1.610 . S
N707 S706 1.613 . S
N707 C710 1.350 . S
N708 S706 1.610 . S
N708 C709 1.351 . S
C709 C703 1.428 . S
C709 N708 1.351 . S
C709 C710 1.434 . S
C710 C701 1.429 . S
C710 N707 1.350 . S
C710 C709 1.434 . S
C711 C712 1.369 . S
C711 C713 1.419 . S
C711 H715 0.930 . S
C712 C711 1.369 . S
C712 C721 1.429 . S
C713 C711 1.419 . S
C713 C714 1.363 . S
C713 H716 0.929 . S
C714 C713 1.363 . S
C714 C720 1.428 . S
H715 C711 0.930 . S
H716 C713 0.929 . S
S717 N718 1.613 . S
S717 N719 1.610 . S
N718 S717 1.613 . S
N718 C721 1.350 . S
N719 S717 1.610 . S
N719 C720 1.351 . S
C720 C714 1.428 . S
C720 N719 1.351 . S
C720 C721 1.434 . S
C721 C712 1.429 . S
C721 N718 1.350 . S
C721 C720 1.434 . S
C722 C723 1.369 . S
C722 C724 1.419 . S
C722 H726 0.930 . S
C723 C722 1.369 . S
C723 C732 1.429 . S
C724 C722 1.419 . S
C724 C725 1.363 . S
C724 H727 0.929 . S
C725 C724 1.363 . S
C725 C731 1.428 . S
H726 C722 0.930 . S
H727 C724 0.929 . S
S728 N729 1.613 . S
S728 N730 1.610 . S
N729 S728 1.613 . S
N729 C732 1.350 . S
N730 S728 1.610 . S
N730 C731 1.351 . S
C731 C725 1.428 . S
C731 N730 1.351 . S
C731 C732 1.434 . S
C732 C723 1.429 . S
C732 N729 1.350 . S
C732 C731 1.434 . S
C733 C734 1.369 . S
C733 C735 1.419 . S
C733 H737 0.930 . S
C734 C733 1.369 . S
C734 C743 1.429 . S
C735 C733 1.419 . S
C735 C736 1.363 . S
C735 H738 0.929 . S
C736 C735 1.363 . S
C736 C742 1.428 . S
H737 C733 0.930 . S
H738 C735 0.929 . S
S739 N740 1.613 . S
S739 N741 1.610 . S
N740 S739 1.613 . S
N740 C743 1.350 . S
N741 S739 1.610 . S
N741 C742 1.351 . S
C742 C736 1.428 . S
C742 N741 1.351 . S
C742 C743 1.434 . S
C743 C734 1.429 . S
C743 N740 1.350 . S
C743 C742 1.434 . S
C744 C745 1.369 . S
C744 C746 1.419 . S
C744 H748 0.930 . S
C745 C744 1.369 . S
C745 C754 1.429 . S
C746 C744 1.419 . S
C746 C747 1.363 . S
C746 H749 0.929 . S
C747 C746 1.363 . S
C747 C753 1.428 . S
H748 C744 0.930 . S
H749 C746 0.929 . S
S750 N751 1.613 . S
S750 N752 1.610 . S
N751 S750 1.613 . S
N751 C754 1.350 . S
N752 S750 1.610 . S
N752 C753 1.351 . S
C753 C747 1.428 . S
C753 N752 1.351 . S
C753 C754 1.434 . S
C754 C745 1.429 . S
C754 N751 1.350 . S
C754 C753 1.434 . S
C755 C756 1.369 . S
C755 C757 1.419 . S
C755 H759 0.930 . S
C756 C755 1.369 . S
C756 C765 1.429 . S
C757 C755 1.419 . S
C757 C758 1.363 . S
C757 H760 0.929 . S
C758 C757 1.363 . S
C758 C764 1.428 . S
H759 C755 0.930 . S
H760 C757 0.929 . S
S761 N762 1.613 . S
S761 N763 1.610 . S
N762 S761 1.613 . S
N762 C765 1.350 . S
N763 S761 1.610 . S
N763 C764 1.351 . S
C764 C758 1.428 . S
C764 N763 1.351 . S
C764 C765 1.434 . S
C765 C756 1.429 . S
C765 N762 1.350 . S
C765 C764 1.434 . S
C766 C767 1.369 . S
C766 C768 1.419 . S
C766 H770 0.930 . S
C767 C766 1.369 . S
C767 C776 1.429 . S
C768 C766 1.419 . S
C768 C769 1.363 . S
C768 H771 0.929 . S
C769 C768 1.363 . S
C769 C775 1.428 . S
H770 C766 0.930 . S
H771 C768 0.929 . S
S772 N773 1.613 . S
S772 N774 1.610 . S
N773 S772 1.613 . S
N773 C776 1.350 . S
N774 S772 1.610 . S
N774 C775 1.351 . S
C775 C769 1.428 . S
C775 N774 1.351 . S
C775 C776 1.434 . S
C776 C767 1.429 . S
C776 N773 1.350 . S
C776 C775 1.434 . S
C777 C778 1.369 . S
C777 C779 1.419 . S
C777 H781 0.930 . S
C778 C777 1.369 . S
C778 C787 1.429 . S
C779 C777 1.419 . S
C779 C780 1.363 . S
C779 H782 0.929 . S
C780 C779 1.363 . S
C780 C786 1.428 . S
H781 C777 0.930 . S
H782 C779 0.929 . S
S783 N784 1.613 . S
S783 N785 1.610 . S
N784 S783 1.613 . S
N784 C787 1.350 . S
N785 S783 1.610 . S
N785 C786 1.351 . S
C786 C780 1.428 . S
C786 N785 1.351 . S
C786 C787 1.434 . S
C787 C778 1.429 . S
C787 N784 1.350 . S
C787 C786 1.434 . S
C788 C789 1.369 . S
C788 C790 1.419 . S
C788 H792 0.930 . S
C789 C788 1.369 . S
C789 C798 1.429 . S
C790 C788 1.419 . S
C790 C791 1.363 . S
C790 H793 0.929 . S
C791 C790 1.363 . S
C791 C797 1.428 . S
H792 C788 0.930 . S
H793 C790 0.929 . S
S794 N795 1.613 . S
S794 N796 1.610 . S
N795 S794 1.613 . S
N795 C798 1.350 . S
N796 S794 1.610 . S
N796 C797 1.351 . S
C797 C791 1.428 . S
C797 N796 1.351 . S
C797 C798 1.434 . S
C798 C789 1.429 . S
C798 N795 1.350 . S
C798 C797 1.434 . S
C799 C800 1.369 . S
C799 C801 1.419 . S
C799 H803 0.930 . S
C800 C799 1.369 . S
C800 C809 1.429 . S
C801 C799 1.419 . S
C801 C802 1.363 . S
C801 H804 0.929 . S
C802 C801 1.363 . S
C802 C808 1.428 . S
H803 C799 0.930 . S
H804 C801 0.929 . S
S805 N806 1.613 . S
S805 N807 1.610 . S
N806 S805 1.613 . S
N806 C809 1.350 . S
N807 S805 1.610 . S
N807 C808 1.351 . S
C808 C802 1.428 . S
C808 N807 1.351 . S
C808 C809 1.434 . S
C809 C800 1.429 . S
C809 N806 1.350 . S
C809 C808 1.434 . S
C810 C811 1.369 . S
C810 C812 1.419 . S
C810 H814 0.930 . S
C811 C810 1.369 . S
C811 C820 1.429 1_556 S
C812 C810 1.419 . S
C812 C813 1.363 1_556 S
C812 H815 0.929 . S
C813 C812 1.363 1_554 S
C813 C819 1.428 . S
H814 C810 0.930 . S
H815 C812 0.929 . S
S816 N817 1.613 . S
S816 N818 1.610 . S
N817 S816 1.613 . S
N817 C820 1.350 . S
N818 S816 1.610 . S
N818 C819 1.351 . S
C819 C813 1.428 . S
C819 N818 1.351 . S
C819 C820 1.434 . S
C820 C811 1.429 1_554 S
C820 N817 1.350 . S
C820 C819 1.434 . S
C821 C822 1.369 . S
C821 C823 1.419 1_455 S
C821 H825 0.930 . S
C822 C821 1.369 . S
C822 C831 1.429 . S
C823 C821 1.419 1_655 S
C823 C824 1.363 . S
C823 H826 0.929 . S
C824 C823 1.363 . S
C824 C830 1.428 . S
H825 C821 0.930 . S
H826 C823 0.929 . S
S827 N828 1.613 1_655 S
S827 N829 1.610 . S
N828 S827 1.613 1_455 S
N828 C831 1.350 . S
N829 S827 1.610 . S
N829 C830 1.351 . S
C830 C824 1.428 . S
C830 N829 1.351 . S
C830 C831 1.434 1_655 S
C831 C822 1.429 . S
C831 N828 1.350 . S
C831 C830 1.434 1_455 S
C832 C833 1.369 1_556 S
C832 C834 1.419 1_565 S
C832 H836 0.930 . S
C833 C832 1.369 1_554 S
C833 C842 1.429 . S
C834 C832 1.419 1_545 S
C834 C835 1.363 . S
C834 H837 0.929 . S
C835 C834 1.363 . S
C835 C841 1.428 1_556 S
H836 C832 0.930 . S
H837 C834 0.929 . S
S838 N839 1.613 1_545 S
S838 N840 1.610 . S
N839 S838 1.613 1_565 S
N839 C842 1.350 . S
N840 S838 1.610 . S
N840 C841 1.351 . S
C841 C835 1.428 1_554 S
C841 N840 1.351 . S
C841 C842 1.434 1_545 S
C842 C833 1.429 . S
C842 N839 1.350 . S
C842 C841 1.434 1_565 S
C843 C844 1.369 . S
C843 C845 1.419 . S
C843 H847 0.930 . S
C844 C843 1.369 . S
C844 C853 1.429 . S
C845 C843 1.419 . S
C845 C846 1.363 . S
C845 H848 0.929 . S
C846 C845 1.363 . S
C846 C852 1.428 . S
H847 C843 0.930 . S
H848 C845 0.929 . S
S849 N850 1.613 . S
S849 N851 1.610 . S
N850 S849 1.613 . S
N850 C853 1.350 . S
N851 S849 1.610 . S
N851 C852 1.351 . S
C852 C846 1.428 . S
C852 N851 1.351 . S
C852 C853 1.434 . S
C853 C844 1.429 . S
C853 N850 1.350 . S
C853 C852 1.434 . S
C854 C855 1.369 . S
C854 C856 1.419 1_655 S
C854 H858 0.930 . S
C855 C854 1.369 . S
C855 C864 1.429 1_556 S
C856 C854 1.419 1_455 S
C856 C857 1.363 1_556 S
C856 H859 0.929 . S
C857 C856 1.363 1_554 S
C857 C863 1.428 . S
H858 C854 0.930 . S
H859 C856 0.929 . S
S860 N861 1.613 . S
S860 N862 1.610 1_655 S
N861 S860 1.613 . S
N861 C864 1.350 . S
N862 S860 1.610 1_455 S
N862 C863 1.351 . S
C863 C857 1.428 . S
C863 N862 1.351 . S
C863 C864 1.434 1_455 S
C864 C855 1.429 1_554 S
C864 N861 1.350 . S
C864 C863 1.434 1_655 S
C865 C866 1.369 . S
C865 C867 1.419 1_565 S
C865 H869 0.930 . S
C866 C865 1.369 . S
C866 C875 1.429 . S
C867 C865 1.419 1_545 S
C867 C868 1.363 . S
C867 H870 0.929 . S
C868 C867 1.363 . S
C868 C874 1.428 . S
H869 C865 0.930 . S
H870 C867 0.929 . S
S871 N872 1.613 1_545 S
S871 N873 1.610 . S
N872 S871 1.613 1_565 S
N872 C875 1.350 . S
N873 S871 1.610 . S
N873 C874 1.351 . S
C874 C868 1.428 . S
C874 N873 1.351 . S
C874 C875 1.434 1_545 S
C875 C866 1.429 . S
C875 N872 1.350 . S
C875 C874 1.434 1_565 S
C481 C179 1.377 . S
C483 C15 1.442 . S
C492 C219 1.387 . S
C494 C55 1.435 . S
C503 C95 1.435 . S
C505 C19 1.386 . S
C514 C135 1.435 . S
C516 C59 1.386 . S
C525 C175 1.436 . S
C527 C99 1.382 . S
C536 C139 1.376 . S
C538 C215 1.440 . S
C547 C339 1.385 . S
C549 C255 1.438 . S
C558 C295 1.439 . S
C560 C379 1.384 . S
C569 C419 1.381 . S
C571 C335 1.440 . S
C580 C375 1.434 . S
C582 C459 1.386 . S
C591 C415 1.435 . S
C593 C259 1.384 . S
C602 C299 1.381 . S
C604 C455 1.437 . S
C613 C170 1.860 . S
C615 C6 1.831 . S
C624 C46 1.828 . S
C626 C210 1.863 . S
C635 C86 1.829 . S
C637 C10 1.864 . S
C646 C126 1.833 . S
C648 C50 1.862 . S
C657 C90 1.865 . S
C659 C166 1.830 . S
C668 C130 1.858 . S
C670 C206 1.833 . S
C679 C330 1.864 . S
C681 C246 1.829 . S
C690 C286 1.832 . S
C692 C370 1.860 . S
C701 C326 1.828 . S
C703 C410 1.864 . S
C712 C450 1.864 . S
C714 C366 1.828 . S
C723 C406 1.835 . S
C725 C250 1.858 . S
C734 C290 1.864 . S
C736 C446 1.828 . S
C745 C418 1.582 . S
C747 C18 1.590 . S
C756 C58 1.582 . S
C758 C458 1.591 . S
C767 C98 1.582 . S
C769 C258 1.586 . S
C778 C138 1.588 . S
C780 C298 1.587 . S
C789 C178 1.579 . S
C791 C338 1.590 . S
C800 C378 1.581 . S
C802 C218 1.591 . S
C811 C369 2.376 . S
C813 C9 2.372 . S
C822 C409 2.373 . S
C824 C49 2.376 . S
C833 C89 2.372 . S
C835 C449 2.375 . S
C844 C129 2.375 . S
C846 C249 2.374 . S
C855 C289 2.376 . S
C857 C169 2.373 . S
C866 C329 2.372 . S
C868 C209 2.375 . S
