# Generated by pormake.
# Topology crb, (4)-cn, num edge types: 1
# Building blocks:
#     Node 0, Type 0, BuildingBlock: AZAVOO_clean_sbu_0, # of connection points: 4
#     Node 1, Type 0, BuildingBlock: AZAVOO_clean_sbu_0, # of connection points: 4
#     Node 2, Type 0, BuildingBlock: AZAVOO_clean_sbu_0, # of connection points: 4
#     Node 3, Type 0, BuildingBlock: AZAVOO_clean_sbu_0, # of connection points: 4
#     Node 4, Type 0, BuildingBlock: AZAVOO_clean_sbu_0, # of connection points: 4
#     Node 5, Type 0, BuildingBlock: AZAVOO_clean_sbu_0, # of connection points: 4
#     Node 6, Type 0, BuildingBlock: AZAVOO_clean_sbu_0, # of connection points: 4
#     Node 7, Type 0, BuildingBlock: AZAVOO_clean_sbu_0, # of connection points: 4
#     Edge 8, Type (0, 0), BuildingBlock: XUDNAN_clean_linker_2, # of connection points: 2
#     Edge 9, Type (0, 0), BuildingBlock: XUDNAN_clean_linker_2, # of connection points: 2
#     Edge 10, Type (0, 0), BuildingBlock: XUDNAN_clean_linker_2, # of connection points: 2
#     Edge 11, Type (0, 0), BuildingBlock: XUDNAN_clean_linker_2, # of connection points: 2
#     Edge 12, Type (0, 0), BuildingBlock: XUDNAN_clean_linker_2, # of connection points: 2
#     Edge 13, Type (0, 0), BuildingBlock: XUDNAN_clean_linker_2, # of connection points: 2
#     Edge 14, Type (0, 0), BuildingBlock: XUDNAN_clean_linker_2, # of connection points: 2
#     Edge 15, Type (0, 0), BuildingBlock: XUDNAN_clean_linker_2, # of connection points: 2
#     Edge 16, Type (0, 0), BuildingBlock: XUDNAN_clean_linker_2, # of connection points: 2
#     Edge 17, Type (0, 0), BuildingBlock: XUDNAN_clean_linker_2, # of connection points: 2
#     Edge 18, Type (0, 0), BuildingBlock: XUDNAN_clean_linker_2, # of connection points: 2
#     Edge 19, Type (0, 0), BuildingBlock: XUDNAN_clean_linker_2, # of connection points: 2
#     Edge 20, Type (0, 0), BuildingBlock: XUDNAN_clean_linker_2, # of connection points: 2
#     Edge 21, Type (0, 0), BuildingBlock: XUDNAN_clean_linker_2, # of connection points: 2
#     Edge 22, Type (0, 0), BuildingBlock: XUDNAN_clean_linker_2, # of connection points: 2
#     Edge 23, Type (0, 0), BuildingBlock: XUDNAN_clean_linker_2, # of connection points: 2
# Relax obj value: 0.038
# Max RMSD: 0.066
# Mean RMSD: 0.066
data_MOF--net-crb--node1-AZAVOO_clean_sbu_0--edge1-XUDNAN_clean_linker_2
_symmetry_space_group_name_H-M    P1
_symmetry_Int_Tables_number       1
_symmetry_cell_setting            triclinic
loop_
_symmetry_equiv_pos_as_xyz
'x, y, z'
_cell_length_a     45.34291
_cell_length_b     37.376904
_cell_length_c     26.030721
_cell_angle_alpha  89.867621
_cell_angle_beta   89.978374
_cell_angle_gamma 90.530507
loop_
_atom_site_label
_atom_site_type_symbol
_atom_site_fract_x
_atom_site_fract_y
_atom_site_fract_z
_atom_type_partial_charge
Mg0 Mg 0.32796 0.28964 0.9261 0.0
O1 O 0.32408 0.34972 0.94211 0.0
O2 O 0.27838 0.36621 0.92149 0.0
Mg3 Mg 0.25372 0.31767 0.88784 0.0
C4 C 0.30409 0.37346 0.93885 0.0
C5 C 0.38942 0.26528 0.94663 0.0
O6 O 0.37849 0.24504 0.90992 0.0
O7 O 0.29977 0.27605 -0.00259 0.0
O8 O 0.2552 0.28908 0.96553 0.0
O9 O 0.34146 0.30028 0.84464 0.0
O10 O 0.29545 0.29204 0.86941 0.0
C11 C 0.27158 0.27623 0.00088 0.0
C12 C 0.31377 0.29851 0.83288 0.0
O13 O 0.37253 0.28799 0.9676 0.0
Mg14 Mg 0.66869 0.29248 0.04668 0.0
O15 O 0.67189 0.35256 0.0258 0.0
O16 O 0.71988 0.36681 0.02981 0.0
Mg17 Mg 0.74668 0.31914 0.05793 0.0
C18 C 0.69311 0.37511 0.02071 0.0
C19 C 0.59909 0.30225 0.03324 0.0
O20 O 0.60216 0.32448 0.07194 0.0
O21 O 0.6892 0.27705 0.96944 0.0
O22 O 0.73684 0.28989 0.98294 0.0
O23 O 0.66375 0.30399 0.13124 0.0
O24 O 0.70623 0.29728 0.09153 0.0
C25 C 0.71619 0.27693 0.95511 0.0
C26 C 0.69228 0.30376 0.1333 0.0
O27 O 0.6218 0.28726 0.01461 0.0
Mg28 Mg 0.67982 0.71755 -0.01496 0.0
O29 O 0.6811 0.65681 0.96996 0.0
O30 O 0.72791 0.64156 0.9562 0.0
Mg31 Mg 0.75676 0.69168 0.96178 0.0
C32 C 0.70065 0.6333 0.96061 0.0
C33 C 0.61453 0.73271 0.98239 0.0
O34 O 0.62661 0.75501 0.94927 0.0
O35 O 0.69762 0.7084 0.06676 0.0
O36 O 0.74416 0.69445 0.04634 0.0
O37 O 0.67826 0.73031 0.90033 0.0
O38 O 0.71917 0.72588 0.94523 0.0
C39 C 0.72391 0.69987 0.07946 0.0
C40 C 0.70675 0.7318 0.90184 0.0
O41 O 0.63129 0.71236 0.00824 0.0
Mg42 Mg 0.33497 0.70749 0.07052 0.0
O43 O 0.3295 0.64754 0.05258 0.0
O44 O 0.28115 0.63532 0.05432 0.0
Mg45 Mg 0.25627 0.68533 0.08009 0.0
C46 C 0.30782 0.62577 0.04714 0.0
C47 C 0.40416 0.69577 0.06082 0.0
O48 O 0.40085 0.67939 0.10518 0.0
O49 O 0.31597 0.72259 -0.00738 0.0
O50 O 0.26759 0.71356 0.00411 0.0
O51 O 0.33905 0.69766 0.15528 0.0
O52 O 0.29705 0.70626 0.11458 0.0
C53 C 0.28934 0.72467 0.977 0.0
C54 C 0.31059 0.70021 0.15699 0.0
O55 O 0.38167 0.70838 0.03818 0.0
Mg56 Mg 0.84052 0.79498 0.47699 0.0
O57 O 0.83556 0.85533 0.46435 0.0
O58 O 0.78751 0.86556 0.45386 0.0
Mg59 Mg 0.76256 0.81186 0.4514 0.0
C60 C 0.8141 0.87677 0.45803 0.0
C61 C 0.90412 0.77822 0.48743 0.0
O62 O 0.89166 0.75244 0.46065 0.0
O63 O 0.82015 0.79973 0.55636 0.0
O64 O 0.77207 0.80364 0.53758 0.0
O65 O 0.84663 0.78401 0.39401 0.0
O66 O 0.80331 0.78352 0.4328 0.0
C67 C 0.79309 0.80065 0.57007 0.0
C68 C 0.81836 0.77929 0.39143 0.0
O69 O 0.88782 0.80283 0.50503 0.0
Mg70 Mg 0.18414 0.80614 0.57087 0.0
O71 O 0.18654 0.86628 0.55233 0.0
O72 O 0.23427 0.88173 0.55247 0.0
Mg73 Mg 0.26174 0.83356 0.57775 0.0
C74 C 0.20713 0.88947 0.54609 0.0
C75 C 0.11503 0.81836 0.55825 0.0
O76 O 0.11878 0.84141 0.59576 0.0
O77 O 0.20299 0.79221 0.49254 0.0
O78 O 0.25104 0.80433 0.50238 0.0
O79 O 0.18035 0.81584 0.65545 0.0
O80 O 0.22238 0.80982 0.6138 0.0
C81 C 0.22952 0.79176 0.4761 0.0
C82 C 0.20891 0.81494 0.65655 0.0
O83 O 0.13719 0.80183 0.54051 0.0
Mg84 Mg 0.17181 0.22449 0.42677 0.0
O85 O 0.17776 0.16449 0.44258 0.0
O86 O 0.22395 0.15074 0.42087 0.0
Mg87 Mg 0.24679 0.20049 0.38693 0.0
C88 C 0.19866 0.14196 0.43876 0.0
C89 C 0.11058 0.24811 0.45021 0.0
O90 O 0.12155 0.26989 0.41523 0.0
O91 O 0.19997 0.23907 0.49766 0.0
O92 O 0.24475 0.22843 0.46483 0.0
O93 O 0.15817 0.21368 0.34545 0.0
O94 O 0.20403 0.22378 0.3695 0.0
C95 C 0.22818 0.24023 0.5006 0.0
C96 C 0.18575 0.21667 0.33325 0.0
O97 O 0.12738 0.22434 0.46898 0.0
Mg98 Mg 0.83087 0.21874 0.54693 0.0
O99 O 0.82919 0.15865 0.52651 0.0
O100 O 0.78164 0.1423 0.53004 0.0
Mg101 Mg 0.75352 0.18913 0.55689 0.0
C102 C 0.80869 0.13514 0.52147 0.0
C103 C 0.90052 0.20909 0.53292 0.0
O104 O 0.89718 0.18464 0.56884 0.0
O105 O 0.81057 0.23348 0.46919 0.0
O106 O 0.76319 0.21877 0.48188 0.0
O107 O 0.83549 0.20746 0.63159 0.0
O108 O 0.7931 0.21279 0.59115 0.0
C109 C 0.78368 0.23258 0.45437 0.0
C110 C 0.80695 0.20689 0.63325 0.0
O111 O 0.87796 0.22538 0.516 0.0
H112 H 0.26545 0.42892 0.95212 0.0
H113 H 0.35816 0.40201 0.96444 0.0
H114 H 0.3694 0.46366 -0.00728 0.0
H115 H 0.2758 0.51862 0.90469 0.0
H116 H 0.24536 0.53639 0.9408 0.0
H117 H 0.24475 0.49028 0.92085 0.0
H118 H 0.23709 0.47022 0.01534 0.0
H119 H 0.23768 0.51625 0.03558 0.0
H120 H 0.26292 0.48482 0.06375 0.0
H121 H 0.37053 0.52883 0.01889 0.0
H122 H 0.36118 0.59152 0.04357 0.0
H123 H 0.2676 0.5749 0.01598 0.0
C124 C 0.28815 0.43593 0.96056 0.0
C125 C 0.31091 0.41052 0.95584 0.0
C126 C 0.34029 0.4209 0.96774 0.0
C127 C 0.34693 0.4559 0.98377 0.0
C128 C 0.32394 0.48022 -0.012 0.0
C129 C 0.29514 0.47063 0.97693 0.0
C130 C 0.27441 0.5016 -0.01462 0.0
C131 C 0.25919 0.51235 0.93492 0.0
C132 C 0.25169 0.49268 0.02753 0.0
C133 C 0.29604 0.53014 0.00292 0.0
C134 C 0.32453 0.51739 0.00394 0.0
C135 C 0.34829 0.53907 0.01836 0.0
C136 C 0.34275 0.57468 0.03225 0.0
C137 C 0.31364 0.58822 0.03195 0.0
C138 C 0.29009 0.56545 0.01699 0.0
H139 H 0.42252 0.30944 0.01037 0.0
H140 H 0.42901 0.21807 0.90826 0.0
H141 H 0.48281 0.21802 0.91955 0.0
H142 H 0.48764 0.35429 0.96755 0.0
H143 H 0.49876 0.36979 0.0302 0.0
H144 H 0.46029 0.36212 0.01645 0.0
H145 H 0.45633 0.31874 0.09394 0.0
H146 H 0.49473 0.32655 0.10823 0.0
H147 H 0.48125 0.28156 0.09846 0.0
H148 H 0.53583 0.2295 0.93701 0.0
H149 H 0.58517 0.24904 0.96547 0.0
H150 H 0.54548 0.3322 0.05831 0.0
C151 C 0.43523 0.28914 -0.00901 0.0
C152 C 0.42142 0.26377 0.95835 0.0
C153 C 0.43894 0.23782 0.9334 0.0
C154 C 0.46961 0.23757 0.93948 0.0
C155 C 0.48258 0.26331 0.9709 0.0
C156 C 0.46604 0.28839 -0.00323 0.0
C157 C 0.48582 0.31322 0.02782 0.0
C158 C 0.48295 0.35216 0.00938 0.0
C159 C 0.47913 0.3098 0.08554 0.0
C160 C 0.51596 0.29829 0.01487 0.0
C161 C 0.51347 0.2696 0.98178 0.0
C162 C 0.5381 0.25176 0.96326 0.0
C163 C 0.56607 0.2632 0.97952 0.0
C164 C 0.5693 0.29211 0.01426 0.0
C165 C 0.5438 0.30994 0.0319 0.0
H166 H 0.73298 0.42645 -0.00883 0.0
H167 H 0.63922 0.40857 0.01489 0.0
H168 H 0.62999 0.47216 -0.00599 0.0
H169 H 0.73734 0.51028 0.04874 0.0
H170 H 0.76403 0.52838 0.00415 0.0
H171 H 0.76258 0.48101 0.01619 0.0
H172 H 0.75586 0.4692 0.91875 0.0
H173 H 0.75725 0.51665 0.9064 0.0
H174 H 0.72612 0.49043 0.88471 0.0
H175 H 0.63198 0.53954 0.9781 0.0
H176 H 0.6449 0.60364 0.9684 0.0
H177 H 0.73724 0.57567 0.95359 0.0
C178 C 0.71041 0.43566 -0.00854 0.0
C179 C 0.68683 0.41244 0.00481 0.0
C180 C 0.65766 0.42577 0.00463 0.0
C181 C 0.6522 0.46186 -0.00723 0.0
C182 C 0.6761 0.48411 0.98056 0.0
C183 C 0.70459 0.47134 0.97946 0.0
C184 C 0.72667 0.50079 0.96763 0.0
C185 C 0.74895 0.50538 0.01182 0.0
C186 C 0.7424 0.49385 0.91632 0.0
C187 C 0.70631 0.53247 0.96371 0.0
C188 C 0.67718 0.5224 0.97081 0.0
C189 C 0.65468 0.5476 0.9718 0.0
C190 C 0.66225 0.58398 0.96626 0.0
C191 C 0.69209 0.59484 0.95995 0.0
C192 C 0.71418 0.56845 0.95771 0.0
H193 H 0.45774 0.67341 0.09883 0.0
H194 H 0.41803 0.73339 0.97393 0.0
H195 H 0.46742 0.74822 0.94046 0.0
H196 H 0.51831 0.7324 0.12039 0.0
H197 H 0.54464 0.69764 0.1331 0.0
H198 H 0.50612 0.69009 0.14661 0.0
H199 H 0.50622 0.63374 0.08884 0.0
H200 H 0.54481 0.64097 0.07543 0.0
H201 H 0.51879 0.63742 0.02331 0.0
H202 H 0.52039 0.75967 0.9231 0.0
H203 H 0.57448 0.76415 0.91941 0.0
H204 H 0.58092 0.69562 0.05391 0.0
C205 C 0.45942 0.68937 0.06417 0.0
C206 C 0.43394 0.70229 0.0391 0.0
C207 C 0.43715 0.72315 -0.00613 0.0
C208 C 0.46513 0.73178 0.97453 0.0
C209 C 0.48975 0.71914 0.00056 0.0
C210 C 0.48727 0.69811 0.04406 0.0
C211 C 0.51746 0.68839 0.06479 0.0
C212 C 0.52188 0.70301 0.11946 0.0
C213 C 0.52209 0.64771 0.06297 0.0
C214 C 0.5372 0.70771 0.02649 0.0
C215 C 0.52065 0.72528 -0.01011 0.0
C216 C 0.53364 0.74581 0.95127 0.0
C217 C 0.56443 0.74828 0.94967 0.0
C218 C 0.582 0.73019 -0.01369 0.0
C219 C 0.56811 0.70961 0.02523 0.0
H220 H 0.77352 0.93074 0.46007 0.0
H221 H 0.86783 0.91155 0.4609 0.0
H222 H 0.87709 0.97634 0.47159 0.0
H223 H 0.77625 0.01711 0.39237 0.0
H224 H 0.74683 0.03526 0.43061 0.0
H225 H 0.74793 0.98792 0.41791 0.0
H226 H 0.74629 0.97501 0.51577 0.0
H227 H 0.74537 0.02223 0.52877 0.0
H228 H 0.77373 0.99505 0.55703 0.0
H229 H 0.87578 0.04324 0.48835 0.0
H230 H 0.86389 0.10593 0.50979 0.0
H231 H 0.77051 0.08015 0.49895 0.0
C232 C 0.79618 0.9401 0.4615 0.0
C233 C 0.81993 0.91592 0.45939 0.0
C234 C 0.84922 0.92947 0.46223 0.0
C235 C 0.85472 0.96627 0.46826 0.0
C236 C 0.83073 0.98923 0.47127 0.0
C237 C 0.80205 0.97663 0.46774 0.0
C238 C 0.78008 1.00643 0.475 0.0
C239 C 0.7617 0.012 0.42605 0.0
C240 C 0.76021 0.99924 0.52194 0.0
C241 C 0.80084 0.03766 0.48425 0.0
C242 C 0.82998 0.02739 0.48146 0.0
C243 C 0.85302 0.05161 0.49022 0.0
C244 C 0.84605 0.08717 0.50242 0.0
C245 C 0.81626 0.0981 0.50615 0.0
C246 C 0.79352 0.07286 0.49644 0.0
H247 H 0.06199 0.84868 0.58563 0.0
H248 H 0.10027 0.76691 0.48843 0.0
H249 H 0.05063 0.74842 0.46054 0.0
H250 H 0.99928 0.79786 0.62669 0.0
H251 H 0.97407 0.83485 0.62499 0.0
H252 H 0.01271 0.84286 0.63672 0.0
H253 H 0.01484 0.88702 0.55994 0.0
H254 H 0.97615 0.87934 0.54818 0.0
H255 H 1.00256 0.87236 0.49751 0.0
H256 H 0.99759 0.73653 0.44616 0.0
H257 H 0.9435 0.73433 0.44119 0.0
H258 H 0.93836 0.82468 0.5455 0.0
C259 C 0.05993 0.82707 0.55819 0.0
C260 C 0.0851 0.8092 0.53935 0.0
C261 C 0.08141 0.78105 0.50346 0.0
C262 C 0.05328 0.77027 0.4874 0.0
C263 C 0.02898 0.78803 0.50722 0.0
C264 C 0.03191 0.81605 0.54139 0.0
C265 C 1.00195 0.83045 0.55662 0.0
C266 C 0.99671 0.82624 0.6147 0.0
C267 C 0.99869 0.86962 0.53953 0.0
C268 C 0.98181 0.80582 0.52604 0.0
C269 C 0.998 0.78154 0.49803 0.0
C270 C 0.98463 0.75554 0.46761 0.0
C271 C 0.95383 0.75447 0.46523 0.0
C272 C 0.93662 0.77938 0.49287 0.0
C273 C 0.95089 0.80536 0.52381 0.0
H274 H 0.23976 0.08914 0.45126 0.0
H275 H 0.14599 0.10979 0.46513 0.0
H276 H 0.1377 0.04732 0.49329 0.0
H277 H 0.23334 0.99929 0.40349 0.0
H278 H 0.26474 0.98344 0.43905 0.0
H279 H 0.26311 0.0296 0.41935 0.0
H280 H 0.27026 0.04963 0.51384 0.0
H281 H 0.27191 1.00354 0.53383 0.0
H282 H 0.24536 0.03301 0.56256 0.0
H283 H 0.13973 0.98194 0.51917 0.0
H284 H 0.15216 0.91991 0.54343 0.0
H285 H 0.24471 0.94313 0.51435 0.0
C286 C 0.21743 0.0806 0.46001 0.0
C287 C 0.19352 0.10446 0.45576 0.0
C288 C 0.1647 0.09209 0.46807 0.0
C289 C 0.15975 0.05661 0.48403 0.0
C290 C 0.18384 0.03385 0.48777 0.0
C291 C 0.21212 0.04543 0.47631 0.0
C292 C 0.23431 0.01592 0.48426 0.0
C293 C 0.24978 1.00651 0.43351 0.0
C294 C 0.25678 0.02614 0.52612 0.0
C295 C 0.21412 0.98587 0.50196 0.0
C296 C 0.18507 0.99663 0.50351 0.0
C297 C 0.16243 0.97327 0.51822 0.0
C298 C 0.16971 0.93805 0.53187 0.0
C299 C 0.19943 0.92656 0.53103 0.0
C300 C 0.22179 0.95099 0.51577 0.0
H301 H 0.95382 0.17697 0.55427 0.0
H302 H 0.91504 0.26616 0.47195 0.0
H303 H 0.96459 0.28667 0.44587 0.0
H304 H 0.0184 0.22389 0.60028 0.0
H305 H 0.04286 0.18668 0.59134 0.0
H306 H 1.00433 0.1787 0.60443 0.0
H307 H 0.99983 0.14067 0.5217 0.0
H308 H 0.03839 0.14827 0.5086 0.0
H309 H 0.01115 0.15971 0.46104 0.0
H310 H 0.01771 0.29836 0.42958 0.0
H311 H 0.0715 0.29814 0.41797 0.0
H312 H 0.07704 0.20076 0.50878 0.0
C313 C 0.95575 0.20077 0.53068 0.0
C314 C 0.93044 0.21999 0.5153 0.0
C315 C 0.93398 0.25091 0.48421 0.0
C316 C 0.96208 0.2629 0.46934 0.0
C317 C 0.98652 0.24362 0.48556 0.0
C318 C 0.98373 0.21303 0.51508 0.0
C319 C 0.01373 0.19689 0.52599 0.0
C320 C 0.0202 0.19653 0.58396 0.0
C321 C 0.01589 0.15915 0.50295 0.0
C322 C 0.03374 0.22324 0.49796 0.0
C323 C 0.01747 0.25009 0.47531 0.0
C324 C 0.03071 0.27745 0.44701 0.0
C325 C 0.06136 0.27708 0.44073 0.0
C326 C 0.07861 0.24942 0.46239 0.0
C327 C 0.06454 0.22239 0.49199 0.0
H328 H 0.24072 0.23264 0.29572 0.0
H329 H 0.15315 0.19797 0.2489 0.0
H330 H 0.16803 0.20348 0.15799 0.0
H331 H 0.24919 0.29877 0.20516 0.0
H332 H 0.28791 0.29209 0.19319 0.0
H333 H 0.27233 0.27992 0.2544 0.0
H334 H 0.29143 0.21525 0.24409 0.0
H335 H 0.30743 0.2273 0.18296 0.0
H336 H 0.28195 0.19011 0.18733 0.0
H337 H 0.18962 0.22056 0.0741 0.0
H338 H 0.21716 0.24574 0.00097 0.0
H339 H 0.29152 0.26906 0.10086 0.0
C340 C 0.22494 0.2251 0.2664 0.0
C341 C 0.19581 0.21457 0.27936 0.0
C342 C 0.17561 0.20584 0.23984 0.0
C343 C 0.18388 0.20884 0.18812 0.0
C344 C 0.21248 0.22038 0.17667 0.0
C345 C 0.23284 0.22801 0.2146 0.0
C346 C 0.2613 0.24283 0.19194 0.0
C347 C 0.26805 0.28064 0.21239 0.0
C348 C 0.28706 0.21734 0.20219 0.0
C349 C 0.25334 0.24362 0.13544 0.0
C350 C 0.22515 0.23019 0.12764 0.0
C351 C 0.21187 0.23055 0.07955 0.0
C352 C 0.22766 0.2452 0.03834 0.0
C353 C 0.25652 0.25933 0.04524 0.0
C354 C 0.2697 0.25798 0.09435 0.0
H355 H 0.67374 0.2813 0.2275 0.0
H356 H 0.748 0.3303 0.14853 0.0
H357 H 0.77912 0.32114 0.22496 0.0
H358 H 0.69319 0.31402 0.36006 0.0
H359 H 0.68098 0.2725 0.38868 0.0
H360 H 0.66347 0.2888 0.33117 0.0
H361 H 0.67462 0.22864 0.2862 0.0
H362 H 0.69271 0.21244 0.34299 0.0
H363 H 0.71217 0.21338 0.2826 0.0
H364 H 0.80388 0.29885 0.30519 0.0
H365 H 0.81921 0.26929 0.38588 0.0
H366 H 0.7287 0.23436 0.41134 0.0
C367 C 0.6962 0.29142 0.22712 0.0
C368 C 0.7085 0.3065 0.1822 0.0
C369 C 0.73823 0.31842 0.18244 0.0
C370 C 0.75606 0.31346 0.22578 0.0
C371 C 0.74374 0.29668 0.26861 0.0
C372 C 0.71435 0.28636 0.26994 0.0
C373 C 0.7072 0.266 0.31872 0.0
C374 C 0.6849 0.28657 0.35161 0.0
C375 C 0.69603 0.22787 0.30688 0.0
C376 C 0.7373 0.2655 0.34371 0.0
C377 C 0.75806 0.2836 0.31457 0.0
C378 C 0.78771 0.28508 0.3288 0.0
C379 C 0.79626 0.26799 0.37448 0.0
C380 C 0.77522 0.24951 0.4051 0.0
C381 C 0.74541 0.24836 0.38913 0.0
H382 H 0.7666 0.79517 0.34081 0.0
H383 H 0.8406 0.72247 0.34269 0.0
H384 H 0.81795 0.6875 0.27276 0.0
H385 H 0.70849 0.73003 0.30414 0.0
H386 H 0.69061 0.76054 0.26069 0.0
H387 H 0.71007 0.7775 0.31605 0.0
H388 H 0.74229 0.81821 0.2575 0.0
H389 H 0.72251 0.80191 0.20231 0.0
H390 H 0.76213 0.79859 0.20471 0.0
H391 H 0.78951 0.66179 0.20231 0.0
H392 H 0.76233 0.65372 0.12145 0.0
H393 H 0.70784 0.74502 0.15787 0.0
C394 C 0.77778 0.77175 0.32644 0.0
C395 C 0.80521 0.76126 0.34689 0.0
C396 C 0.81964 0.73093 0.32703 0.0
C397 C 0.80675 0.71062 0.28794 0.0
C398 C 0.77962 0.72134 0.26862 0.0
C399 C 0.76558 0.75166 0.28606 0.0
C400 C 0.73867 0.75974 0.25349 0.0
C401 C 0.71027 0.75677 0.28552 0.0
C402 C 0.74159 0.7968 0.22797 0.0
C403 C 0.74038 0.72978 0.21429 0.0
C404 C 0.76365 0.70733 0.22516 0.0
C405 C 0.77111 0.67897 0.19343 0.0
C406 C 0.7555 0.67455 0.14768 0.0
C407 C 0.73299 0.69867 0.1337 0.0
C408 C 0.72447 0.72573 0.16836 0.0
H409 H 0.28367 0.78202 0.43164 0.0
H410 H 0.19026 0.76031 0.40919 0.0
H411 H 0.20175 0.72762 0.32946 0.0
H412 H 0.30099 0.79794 0.3011 0.0
H413 H 0.33671 0.7773 0.30463 0.0
H414 H 0.32092 0.79722 0.36101 0.0
H415 H 0.32674 0.7371 0.40976 0.0
H416 H 0.3421 0.71683 0.35311 0.0
H417 H 0.31026 0.69696 0.38379 0.0
H418 H 0.22315 0.70017 0.25014 0.0
H419 H 0.25247 0.68403 0.17396 0.0
H420 H 0.33189 0.72227 0.2495 0.0
C421 C 0.26555 0.77038 0.41014 0.0
C422 C 0.23603 0.77377 0.42681 0.0
C423 C 0.21305 0.75815 0.39726 0.0
C424 C 0.21937 0.73929 0.35211 0.0
C425 C 0.24876 0.7361 0.33725 0.0
C426 C 0.27145 0.75138 0.36523 0.0
C427 C 0.30101 0.74565 0.33967 0.0
C428 C 0.31576 0.78166 0.32576 0.0
C429 C 0.32121 0.72277 0.37362 0.0
C430 C 0.29135 0.7254 0.29223 0.0
C431 C 0.26116 0.71984 0.29184 0.0
C432 C 0.24684 0.70402 0.25026 0.0
C433 C 0.26367 0.69493 0.20715 0.0
C434 C 0.29444 0.70167 0.20604 0.0
C435 C 0.30852 0.71597 0.24983 0.0
H436 H 0.18765 0.79578 0.7506 0.0
H437 H 0.2676 0.82899 0.67165 0.0
H438 H 0.2969 0.8132 0.74801 0.0
H439 H 0.21114 0.82272 0.8834 0.0
H440 H 0.19342 0.78391 0.91124 0.0
H441 H 0.17847 0.80405 0.85404 0.0
H442 H 0.18127 0.74279 0.80798 0.0
H443 H 0.19685 0.72264 0.86444 0.0
H444 H 0.21617 0.72022 0.80404 0.0
H445 H 0.31805 0.78607 0.82799 0.0
H446 H 0.3291 0.75369 0.90842 0.0
H447 H 0.23526 0.73682 0.93372 0.0
C448 C 0.21117 0.80111 0.75015 0.0
C449 C 0.22534 0.81388 0.70537 0.0
C450 C 0.25628 0.81938 0.70561 0.0
C451 C 0.27312 0.81047 0.74883 0.0
C452 C 0.25865 0.79614 0.79145 0.0
C453 C 0.22831 0.79196 0.79274 0.0
C454 C 0.21842 0.77285 0.84117 0.0
C455 C 0.19924 0.79735 0.87444 0.0
C456 C 0.20224 0.73754 0.82862 0.0
C457 C 0.24796 0.76606 0.86613 0.0
C458 C 0.27088 0.77996 0.83717 0.0
C459 C 0.30025 0.77553 0.85142 0.0
C460 C 0.30631 0.75687 0.89699 0.0
C461 C 0.28309 0.74268 0.92752 0.0
C462 C 0.25358 0.74735 0.91148 0.0
H463 H 0.25882 0.28239 0.79566 0.0
H464 H 0.34605 0.31837 0.74857 0.0
H465 H 0.33102 0.31359 0.65771 0.0
H466 H 0.25096 0.21685 0.70451 0.0
H467 H 0.21214 0.22296 0.69284 0.0
H468 H 0.22767 0.23493 0.75406 0.0
H469 H 0.2078 0.29934 0.74442 0.0
H470 H 0.19185 0.28747 0.68327 0.0
H471 H 0.2169 0.32506 0.68783 0.0
H472 H 0.3094 0.29719 0.57382 0.0
H473 H 0.2821 0.27205 0.50064 0.0
H474 H 0.2082 0.24643 0.60073 0.0
C475 C 0.27448 0.29038 0.76628 0.0
C476 C 0.30357 0.30108 0.77914 0.0
C477 C 0.32363 0.31037 0.73958 0.0
C478 C 0.31526 0.3078 0.6879 0.0
C479 C 0.28672 0.29605 0.67652 0.0
C480 C 0.2665 0.2878 0.7145 0.0
C481 C 0.23818 0.27267 0.69187 0.0
C482 C 0.23189 0.2346 0.71202 0.0
C483 C 0.21214 0.29763 0.70247 0.0
C484 C 0.24607 0.27243 0.6353 0.0
C485 C 0.27407 0.28645 0.62747 0.0
C486 C 0.28728 0.28673 0.57931 0.0
C487 C 0.27163 0.2721 0.53805 0.0
C488 C 0.24299 0.25728 0.54499 0.0
C489 C 0.22986 0.25802 0.59418 0.0
H490 H 0.77122 0.27396 0.91249 0.0
H491 H 0.68022 0.2416 0.88613 0.0
H492 H 0.69519 0.21255 0.80503 0.0
H493 H 0.78785 0.29632 0.78499 0.0
H494 H 0.82523 0.2804 0.78779 0.0
H495 H 0.80743 0.29582 0.84525 0.0
H496 H 0.81825 0.23505 0.88934 0.0
H497 H 0.83574 0.21926 0.83161 0.0
H498 H 0.80567 0.19413 0.8597 0.0
H499 H 0.71967 0.19062 0.72447 0.0
H500 H 0.7507 0.18169 0.64794 0.0
H501 H 0.82564 0.22795 0.72796 0.0
C502 C 0.75435 0.26056 0.89004 0.0
C503 C 0.72449 0.26003 0.90583 0.0
C504 C 0.70321 0.2424 0.87487 0.0
C505 C 0.71154 0.2256 0.82896 0.0
C506 C 0.74123 0.22649 0.81485 0.0
C507 C 0.76225 0.24367 0.84442 0.0
C508 C 0.79234 0.24293 0.81928 0.0
C509 C 0.80387 0.28113 0.80869 0.0
C510 C 0.81429 0.22156 0.85194 0.0
C511 C 0.78487 0.22348 0.77006 0.0
C512 C 0.75536 0.21377 0.76857 0.0
C513 C 0.74284 0.19779 0.72544 0.0
C514 C 0.76064 0.19292 0.68205 0.0
C515 C 0.79056 0.20411 0.68206 0.0
C516 C 0.80302 0.21839 0.72728 0.0
H517 H 0.68774 0.74592 0.80346 0.0
H518 H 0.76655 0.7402 0.89785 0.0
H519 H 0.79678 0.7595 0.82435 0.0
H520 H 0.72091 0.71387 0.68647 0.0
H521 H 0.70041 0.7437 0.64569 0.0
H522 H 0.68492 0.72888 0.70586 0.0
H523 H 0.67807 0.79494 0.7332 0.0
H524 H 0.69389 0.80995 0.67333 0.0
H525 H 0.70947 0.82489 0.73334 0.0
H526 H 0.8187 0.77964 0.7412 0.0
H527 H 0.83102 0.79635 0.65195 0.0
H528 H 0.73807 0.79031 0.61181 0.0
C529 C 0.71137 0.74844 0.80852 0.0
C530 C 0.72476 0.74109 0.85632 0.0
C531 C 0.75575 0.74507 0.86149 0.0
C532 C 0.77317 0.75633 0.82003 0.0
C533 C 0.75929 0.76372 0.77366 0.0
C534 C 0.72914 0.75981 0.76749 0.0
C535 C 0.71987 0.76943 0.71337 0.0
C536 C 0.7057 0.73704 0.68625 0.0
C537 C 0.6991 0.80172 0.71334 0.0
C538 C 0.74954 0.77905 0.69014 0.0
C539 C 0.77195 0.77576 0.72566 0.0
C540 C 0.80135 0.78241 0.71297 0.0
C541 C 0.80811 0.79196 0.66219 0.0
C542 C 0.78555 0.79473 0.62477 0.0
C543 C 0.75586 0.78874 0.63944 0.0
loop_
_geom_bond_atom_site_label_1
_geom_bond_atom_site_label_2
_geom_bond_distance
_geom_bond_site_symmetry_2
_ccdc_geom_bond_type
Mg0 O1 2.028 . S
Mg0 O7 1.986 . S
Mg0 O9 2.114 1_554 S
Mg0 O10 2.251 1_554 S
Mg0 O13 2.010 . S
O1 Mg0 2.028 . S
O1 C4 1.250 . S
O2 Mg3 2.028 . S
O2 C4 1.248 . S
Mg3 O2 2.028 . S
Mg3 O8 2.032 . S
Mg3 O10 2.079 1_554 S
C4 O1 1.250 . S
C4 O2 1.248 . S
C5 O6 1.264 . S
C5 O13 1.249 . S
O6 C5 1.264 . S
O7 Mg0 1.986 . S
O7 C11 1.246 . S
O8 Mg3 2.032 . S
O8 C11 1.259 . S
O9 Mg0 2.114 1_556 S
O9 C12 1.252 . S
O10 Mg0 2.251 1_556 S
O10 Mg3 2.079 1_556 S
O10 C12 1.273 . S
C11 O7 1.246 . S
C11 O8 1.259 . S
C12 O9 1.252 . S
C12 O10 1.273 . S
O13 Mg0 2.010 . S
O13 C5 1.249 . S
Mg14 O15 2.028 . S
Mg14 O21 1.986 1_554 S
Mg14 O23 2.114 . S
Mg14 O24 2.251 . S
Mg14 O27 2.010 . S
O15 Mg14 2.028 . S
O15 C18 1.250 . S
O16 Mg17 2.028 . S
O16 C18 1.248 . S
Mg17 O16 2.028 . S
Mg17 O22 2.032 1_554 S
Mg17 O24 2.079 . S
C18 O15 1.250 . S
C18 O16 1.248 . S
C19 O20 1.264 . S
C19 O27 1.249 . S
O20 C19 1.264 . S
O21 Mg14 1.986 1_556 S
O21 C25 1.246 . S
O22 Mg17 2.032 1_556 S
O22 C25 1.259 . S
O23 Mg14 2.114 . S
O23 C26 1.252 . S
O24 Mg14 2.251 . S
O24 Mg17 2.079 . S
O24 C26 1.273 . S
C25 O21 1.246 . S
C25 O22 1.259 . S
C26 O23 1.252 . S
C26 O24 1.273 . S
O27 Mg14 2.010 . S
O27 C19 1.249 . S
Mg28 O29 2.028 . S
Mg28 O35 1.986 . S
Mg28 O37 2.114 1_554 S
Mg28 O38 2.251 1_554 S
Mg28 O41 2.010 . S
O29 Mg28 2.028 . S
O29 C32 1.250 . S
O30 Mg31 2.028 . S
O30 C32 1.248 . S
Mg31 O30 2.028 . S
Mg31 O36 2.032 . S
Mg31 O38 2.079 1_554 S
C32 O29 1.250 . S
C32 O30 1.248 . S
C33 O34 1.264 . S
C33 O41 1.249 . S
O34 C33 1.264 . S
O35 Mg28 1.986 . S
O35 C39 1.246 . S
O36 Mg31 2.032 . S
O36 C39 1.259 . S
O37 Mg28 2.114 1_556 S
O37 C40 1.252 . S
O38 Mg28 2.251 1_556 S
O38 Mg31 2.079 1_556 S
O38 C40 1.273 . S
C39 O35 1.246 . S
C39 O36 1.259 . S
C40 O37 1.252 . S
C40 O38 1.273 . S
O41 Mg28 2.010 . S
O41 C33 1.249 . S
Mg42 O43 2.028 . S
Mg42 O49 1.986 1_554 S
Mg42 O51 2.114 . S
Mg42 O52 2.251 . S
Mg42 O55 2.010 . S
O43 Mg42 2.028 . S
O43 C46 1.250 . S
O44 Mg45 2.028 . S
O44 C46 1.248 . S
Mg45 O44 2.028 . S
Mg45 O50 2.032 1_554 S
Mg45 O52 2.079 . S
C46 O43 1.250 . S
C46 O44 1.248 . S
C47 O48 1.264 . S
C47 O55 1.249 . S
O48 C47 1.264 . S
O49 Mg42 1.986 1_556 S
O49 C53 1.246 . S
O50 Mg45 2.032 1_556 S
O50 C53 1.259 . S
O51 Mg42 2.114 . S
O51 C54 1.252 . S
O52 Mg42 2.251 . S
O52 Mg45 2.079 . S
O52 C54 1.273 . S
C53 O49 1.246 . S
C53 O50 1.259 . S
C54 O51 1.252 . S
C54 O52 1.273 . S
O55 Mg42 2.010 . S
O55 C47 1.249 . S
Mg56 O57 2.028 . S
Mg56 O63 1.986 . S
Mg56 O65 2.114 . S
Mg56 O66 2.251 . S
Mg56 O69 2.010 . S
O57 Mg56 2.028 . S
O57 C60 1.250 . S
O58 Mg59 2.028 . S
O58 C60 1.248 . S
Mg59 O58 2.028 . S
Mg59 O64 2.032 . S
Mg59 O66 2.079 . S
C60 O57 1.250 . S
C60 O58 1.248 . S
C61 O62 1.264 . S
C61 O69 1.249 . S
O62 C61 1.264 . S
O63 Mg56 1.986 . S
O63 C67 1.246 . S
O64 Mg59 2.032 . S
O64 C67 1.259 . S
O65 Mg56 2.114 . S
O65 C68 1.252 . S
O66 Mg56 2.251 . S
O66 Mg59 2.079 . S
O66 C68 1.273 . S
C67 O63 1.246 . S
C67 O64 1.259 . S
C68 O65 1.252 . S
C68 O66 1.273 . S
O69 Mg56 2.010 . S
O69 C61 1.249 . S
Mg70 O71 2.028 . S
Mg70 O77 1.986 . S
Mg70 O79 2.114 . S
Mg70 O80 2.251 . S
Mg70 O83 2.010 . S
O71 Mg70 2.028 . S
O71 C74 1.250 . S
O72 Mg73 2.028 . S
O72 C74 1.248 . S
Mg73 O72 2.028 . S
Mg73 O78 2.032 . S
Mg73 O80 2.079 . S
C74 O71 1.250 . S
C74 O72 1.248 . S
C75 O76 1.264 . S
C75 O83 1.249 . S
O76 C75 1.264 . S
O77 Mg70 1.986 . S
O77 C81 1.246 . S
O78 Mg73 2.032 . S
O78 C81 1.259 . S
O79 Mg70 2.114 . S
O79 C82 1.252 . S
O80 Mg70 2.251 . S
O80 Mg73 2.079 . S
O80 C82 1.273 . S
C81 O77 1.246 . S
C81 O78 1.259 . S
C82 O79 1.252 . S
C82 O80 1.273 . S
O83 Mg70 2.010 . S
O83 C75 1.249 . S
Mg84 O85 2.028 . S
Mg84 O91 1.986 . S
Mg84 O93 2.114 . S
Mg84 O94 2.251 . S
Mg84 O97 2.010 . S
O85 Mg84 2.028 . S
O85 C88 1.250 . S
O86 Mg87 2.028 . S
O86 C88 1.248 . S
Mg87 O86 2.028 . S
Mg87 O92 2.032 . S
Mg87 O94 2.079 . S
C88 O85 1.250 . S
C88 O86 1.248 . S
C89 O90 1.264 . S
C89 O97 1.249 . S
O90 C89 1.264 . S
O91 Mg84 1.986 . S
O91 C95 1.246 . S
O92 Mg87 2.032 . S
O92 C95 1.259 . S
O93 Mg84 2.114 . S
O93 C96 1.252 . S
O94 Mg84 2.251 . S
O94 Mg87 2.079 . S
O94 C96 1.273 . S
C95 O91 1.246 . S
C95 O92 1.259 . S
C96 O93 1.252 . S
C96 O94 1.273 . S
O97 Mg84 2.010 . S
O97 C89 1.249 . S
Mg98 O99 2.028 . S
Mg98 O105 1.986 . S
Mg98 O107 2.114 . S
Mg98 O108 2.251 . S
Mg98 O111 2.010 . S
O99 Mg98 2.028 . S
O99 C102 1.250 . S
O100 Mg101 2.028 . S
O100 C102 1.248 . S
Mg101 O100 2.028 . S
Mg101 O106 2.032 . S
Mg101 O108 2.079 . S
C102 O99 1.250 . S
C102 O100 1.248 . S
C103 O104 1.264 . S
C103 O111 1.249 . S
O104 C103 1.264 . S
O105 Mg98 1.986 . S
O105 C109 1.246 . S
O106 Mg101 2.032 . S
O106 C109 1.259 . S
O107 Mg98 2.114 . S
O107 C110 1.252 . S
O108 Mg98 2.251 . S
O108 Mg101 2.079 . S
O108 C110 1.273 . S
C109 O105 1.246 . S
C109 O106 1.259 . S
C110 O107 1.252 . S
C110 O108 1.273 . S
O111 Mg98 2.010 . S
O111 C103 1.249 . S
H112 C124 0.930 . S
H113 C126 0.930 . S
H114 C127 0.930 . S
H115 C131 0.959 . S
H116 C131 0.959 . S
H117 C131 0.961 . S
H118 C132 0.960 . S
H119 C132 0.961 . S
H120 C132 0.959 . S
H121 C135 0.929 . S
H122 C136 0.931 . S
H123 C138 0.930 . S
C124 H112 0.930 . S
C124 C125 1.399 1_556 S
C124 C129 1.399 . S
C125 C124 1.399 1_554 S
C125 C126 1.376 . S
C126 H113 0.930 . S
C126 C125 1.376 . S
C126 C127 1.388 . S
C127 H114 0.930 . S
C127 C126 1.388 . S
C127 C128 1.390 . S
C128 C127 1.390 . S
C128 C129 1.394 1_554 S
C128 C134 1.465 . S
C129 C124 1.399 . S
C129 C128 1.394 1_556 S
C129 C130 1.516 . S
C130 C129 1.516 . S
C130 C131 1.502 . S
C130 C132 1.561 . S
C130 C133 1.526 . S
C131 H115 0.959 . S
C131 H116 0.959 . S
C131 H117 0.961 . S
C131 C130 1.502 . S
C132 H118 0.960 . S
C132 H119 0.961 . S
C132 H120 0.959 . S
C132 C130 1.561 . S
C133 C130 1.526 . S
C133 C134 1.396 1_556 S
C133 C138 1.390 . S
C134 C128 1.465 . S
C134 C133 1.396 1_554 S
C134 C135 1.399 . S
C135 H121 0.929 . S
C135 C134 1.399 . S
C135 C136 1.385 . S
C136 H122 0.931 . S
C136 C135 1.385 . S
C136 C137 1.389 . S
C137 C136 1.389 . S
C137 C138 1.387 1_554 S
C138 H123 0.930 . S
C138 C133 1.390 . S
C138 C137 1.387 1_556 S
H139 C151 0.930 . S
H140 C153 0.932 . S
H141 C154 0.930 1_556 S
H142 C158 0.959 1_556 S
H143 C158 0.959 . S
H144 C158 0.961 . S
H145 C159 0.960 . S
H146 C159 0.961 . S
H147 C159 0.959 . S
H148 C162 0.934 . S
H149 C163 0.935 . S
H150 C165 0.930 . S
C151 H139 0.930 . S
C151 C152 1.399 . S
C151 C156 1.399 . S
C152 C151 1.399 . S
C152 C153 1.376 . S
C153 H140 0.932 . S
C153 C152 1.376 . S
C153 C154 1.388 . S
C154 H141 0.930 1_554 S
C154 C153 1.388 . S
C154 C155 1.390 . S
C155 C154 1.390 . S
C155 C156 1.394 . S
C155 C161 1.465 . S
C156 C151 1.399 . S
C156 C155 1.394 . S
C156 C157 1.516 . S
C157 C156 1.516 . S
C157 C158 1.502 . S
C157 C159 1.561 . S
C157 C160 1.526 . S
C158 H142 0.959 1_554 S
C158 H143 0.959 . S
C158 H144 0.961 . S
C158 C157 1.502 . S
C159 H145 0.960 . S
C159 H146 0.961 . S
C159 H147 0.959 . S
C159 C157 1.561 . S
C160 C157 1.526 . S
C160 C161 1.396 . S
C160 C165 1.390 . S
C161 C155 1.465 . S
C161 C160 1.396 . S
C161 C162 1.394 1_554 S
C162 H148 0.934 . S
C162 C161 1.394 1_556 S
C162 C163 1.385 . S
C163 H149 0.935 . S
C163 C162 1.385 . S
C163 C164 1.385 1_556 S
C164 C163 1.385 1_554 S
C164 C165 1.387 . S
C165 H150 0.930 . S
C165 C160 1.390 . S
C165 C164 1.387 . S
H166 C178 0.930 . S
H167 C180 0.930 . S
H168 C181 0.930 . S
H169 C185 0.959 . S
H170 C185 0.959 . S
H171 C185 0.961 . S
H172 C186 0.960 . S
H173 C186 0.961 . S
H174 C186 0.959 . S
H175 C189 0.929 . S
H176 C190 0.931 . S
H177 C192 0.930 . S
C178 H166 0.930 . S
C178 C179 1.399 1_556 S
C178 C183 1.399 . S
C179 C178 1.399 1_554 S
C179 C180 1.376 . S
C180 H167 0.930 . S
C180 C179 1.376 . S
C180 C181 1.388 . S
C181 H168 0.930 . S
C181 C180 1.388 . S
C181 C182 1.390 . S
C182 C181 1.390 . S
C182 C183 1.394 1_554 S
C182 C188 1.465 . S
C183 C178 1.399 . S
C183 C182 1.394 1_556 S
C183 C184 1.516 . S
C184 C183 1.516 . S
C184 C185 1.502 . S
C184 C186 1.561 . S
C184 C187 1.526 . S
C185 H169 0.959 . S
C185 H170 0.959 . S
C185 H171 0.961 . S
C185 C184 1.502 . S
C186 H172 0.960 . S
C186 H173 0.961 . S
C186 H174 0.959 . S
C186 C184 1.561 . S
C187 C184 1.526 . S
C187 C188 1.396 1_556 S
C187 C192 1.390 . S
C188 C182 1.465 . S
C188 C187 1.396 1_554 S
C188 C189 1.399 . S
C189 H175 0.929 . S
C189 C188 1.399 . S
C189 C190 1.385 . S
C190 H176 0.931 . S
C190 C189 1.385 . S
C190 C191 1.389 . S
C191 C190 1.389 . S
C191 C192 1.387 1_554 S
C192 H177 0.930 . S
C192 C187 1.390 . S
C192 C191 1.387 1_556 S
H193 C205 0.930 . S
H194 C207 0.930 . S
H195 C208 0.930 . S
H196 C212 0.959 . S
H197 C212 0.959 . S
H198 C212 0.961 . S
H199 C213 0.960 . S
H200 C213 0.961 . S
H201 C213 0.959 1_556 S
H202 C216 0.929 . S
H203 C217 0.931 . S
H204 C219 0.930 . S
C205 H193 0.930 . S
C205 C206 1.399 . S
C205 C210 1.399 . S
C206 C205 1.399 . S
C206 C207 1.376 1_554 S
C207 H194 0.930 . S
C207 C206 1.376 1_556 S
C207 C208 1.388 . S
C208 H195 0.930 . S
C208 C207 1.388 . S
C208 C209 1.390 . S
C209 C208 1.390 . S
C209 C210 1.394 1_556 S
C209 C215 1.465 . S
C210 C205 1.399 . S
C210 C209 1.394 1_554 S
C210 C211 1.516 . S
C211 C210 1.516 . S
C211 C212 1.502 . S
C211 C213 1.561 . S
C211 C214 1.526 . S
C212 H196 0.959 . S
C212 H197 0.959 . S
C212 H198 0.961 . S
C212 C211 1.502 . S
C213 H199 0.960 . S
C213 H200 0.961 . S
C213 H201 0.959 1_554 S
C213 C211 1.561 . S
C214 C211 1.526 . S
C214 C215 1.396 1_554 S
C214 C219 1.390 . S
C215 C209 1.465 . S
C215 C214 1.396 1_556 S
C215 C216 1.399 . S
C216 H202 0.929 . S
C216 C215 1.399 . S
C216 C217 1.385 . S
C217 H203 0.931 . S
C217 C216 1.385 . S
C217 C218 1.389 1_556 S
C218 C217 1.389 1_554 S
C218 C219 1.387 . S
C219 H204 0.930 . S
C219 C214 1.390 . S
C219 C218 1.387 . S
H220 C232 0.930 . S
H221 C234 0.930 . S
H222 C235 0.930 . S
H223 C239 0.959 . S
H224 C239 0.959 . S
H225 C239 0.961 1_565 S
H226 C240 0.933 1_565 S
H227 C240 0.986 . S
H228 C240 0.962 . S
H229 C243 0.929 . S
H230 C244 0.931 . S
H231 C246 0.930 . S
C232 H220 0.930 . S
C232 C233 1.399 . S
C232 C237 1.399 . S
C233 C232 1.399 . S
C233 C234 1.376 . S
C234 H221 0.930 . S
C234 C233 1.376 . S
C234 C235 1.388 . S
C235 H222 0.930 . S
C235 C234 1.388 . S
C235 C236 1.390 . S
C236 C235 1.390 . S
C236 C237 1.394 . S
C236 C242 1.465 1_565 S
C237 C232 1.399 . S
C237 C236 1.394 . S
C237 C238 1.504 1_565 S
C238 C237 1.504 1_545 S
C238 C239 1.502 . S
C238 C240 1.561 . S
C238 C241 1.538 . S
C239 H223 0.959 . S
C239 H224 0.959 . S
C239 H225 0.961 1_545 S
C239 C238 1.502 . S
C240 H226 0.933 1_545 S
C240 H227 0.986 . S
C240 H228 0.962 . S
C240 C238 1.561 . S
C241 C238 1.538 . S
C241 C242 1.396 . S
C241 C246 1.390 . S
C242 C236 1.465 1_545 S
C242 C241 1.396 . S
C242 C243 1.399 . S
C243 H229 0.929 . S
C243 C242 1.399 . S
C243 C244 1.385 . S
C244 H230 0.931 . S
C244 C243 1.385 . S
C244 C245 1.389 . S
C245 C244 1.389 . S
C245 C246 1.387 . S
C246 H231 0.930 . S
C246 C241 1.390 . S
C246 C245 1.387 . S
H247 C259 0.930 . S
H248 C261 0.930 . S
H249 C262 0.930 . S
H250 C266 0.959 . S
H251 C266 0.958 . S
H252 C266 0.962 1_455 S
H253 C267 0.937 1_455 S
H254 C267 0.982 . S
H255 C267 0.962 . S
H256 C270 0.929 . S
H257 C271 0.931 . S
H258 C273 0.930 . S
C259 H247 0.930 . S
C259 C260 1.399 . S
C259 C264 1.399 . S
C260 C259 1.399 . S
C260 C261 1.376 . S
C261 H248 0.930 . S
C261 C260 1.376 . S
C261 C262 1.388 . S
C262 H249 0.930 . S
C262 C261 1.388 . S
C262 C263 1.390 . S
C263 C262 1.390 . S
C263 C264 1.394 . S
C263 C269 1.465 1_455 S
C264 C259 1.399 . S
C264 C263 1.394 . S
C264 C265 1.518 1_455 S
C265 C264 1.518 1_655 S
C265 C266 1.502 . S
C265 C267 1.561 . S
C265 C268 1.524 . S
C266 H250 0.959 . S
C266 H251 0.958 . S
C266 H252 0.962 1_655 S
C266 C265 1.502 . S
C267 H253 0.937 1_655 S
C267 H254 0.982 . S
C267 H255 0.962 . S
C267 C265 1.561 . S
C268 C265 1.524 . S
C268 C269 1.396 . S
C268 C273 1.390 . S
C269 C263 1.465 1_655 S
C269 C268 1.396 . S
C269 C270 1.399 . S
C270 H256 0.929 . S
C270 C269 1.399 . S
C270 C271 1.385 . S
C271 H257 0.931 . S
C271 C270 1.385 . S
C271 C272 1.389 . S
C272 C271 1.389 . S
C272 C273 1.387 . S
C273 H258 0.930 . S
C273 C268 1.390 . S
C273 C272 1.387 . S
H274 C286 0.930 . S
H275 C288 0.930 . S
H276 C289 0.930 . S
H277 C293 0.959 . S
H278 C293 0.959 . S
H279 C293 0.961 1_545 S
H280 C294 0.933 1_545 S
H281 C294 0.986 . S
H282 C294 0.962 . S
H283 C297 0.929 . S
H284 C298 0.931 . S
H285 C300 0.930 . S
C286 H274 0.930 . S
C286 C287 1.399 . S
C286 C291 1.399 . S
C287 C286 1.399 . S
C287 C288 1.376 . S
C288 H275 0.930 . S
C288 C287 1.376 . S
C288 C289 1.388 . S
C289 H276 0.930 . S
C289 C288 1.388 . S
C289 C290 1.390 . S
C290 C289 1.390 . S
C290 C291 1.394 . S
C290 C296 1.465 1_545 S
C291 C286 1.399 . S
C291 C290 1.394 . S
C291 C292 1.504 1_545 S
C292 C291 1.504 1_565 S
C292 C293 1.502 . S
C292 C294 1.561 . S
C292 C295 1.538 . S
C293 H277 0.959 . S
C293 H278 0.959 . S
C293 H279 0.961 1_565 S
C293 C292 1.502 . S
C294 H280 0.933 1_565 S
C294 H281 0.986 . S
C294 H282 0.962 . S
C294 C292 1.561 . S
C295 C292 1.538 . S
C295 C296 1.396 . S
C295 C300 1.390 . S
C296 C290 1.465 1_565 S
C296 C295 1.396 . S
C296 C297 1.399 . S
C297 H283 0.929 . S
C297 C296 1.399 . S
C297 C298 1.385 . S
C298 H284 0.931 . S
C298 C297 1.385 . S
C298 C299 1.389 . S
C299 C298 1.389 . S
C299 C300 1.387 . S
C300 H285 0.930 . S
C300 C295 1.390 . S
C300 C299 1.387 . S
H301 C313 0.930 . S
H302 C315 0.930 . S
H303 C316 0.930 . S
H304 C320 0.959 1_455 S
H305 C320 0.956 1_455 S
H306 C320 0.964 . S
H307 C321 0.948 1_655 S
H308 C321 0.972 . S
H309 C321 0.960 . S
H310 C324 0.929 . S
H311 C325 0.931 . S
H312 C327 0.930 . S
C313 H301 0.930 . S
C313 C314 1.399 . S
C313 C318 1.399 . S
C314 C313 1.399 . S
C314 C315 1.376 . S
C315 H302 0.930 . S
C315 C314 1.376 . S
C315 C316 1.388 . S
C316 H303 0.930 . S
C316 C315 1.388 . S
C316 C317 1.390 . S
C317 C316 1.390 . S
C317 C318 1.394 . S
C317 C323 1.465 1_655 S
C318 C313 1.399 . S
C318 C317 1.394 . S
C318 C319 1.517 . S
C319 C318 1.517 . S
C319 C320 1.502 . S
C319 C321 1.561 1_655 S
C319 C322 1.525 1_655 S
C320 H304 0.959 1_655 S
C320 H305 0.956 1_655 S
C320 H306 0.964 . S
C320 C319 1.502 . S
C321 H307 0.948 1_455 S
C321 H308 0.972 . S
C321 H309 0.960 . S
C321 C319 1.561 1_455 S
C322 C319 1.525 1_455 S
C322 C323 1.396 . S
C322 C327 1.390 . S
C323 C317 1.465 1_455 S
C323 C322 1.396 . S
C323 C324 1.399 . S
C324 H310 0.929 . S
C324 C323 1.399 . S
C324 C325 1.385 . S
C325 H311 0.931 . S
C325 C324 1.385 . S
C325 C326 1.389 . S
C326 C325 1.389 . S
C326 C327 1.387 . S
C327 H312 0.930 . S
C327 C322 1.390 . S
C327 C326 1.387 . S
H328 C340 0.930 . S
H329 C342 0.930 . S
H330 C343 0.930 . S
H331 C347 0.959 . S
H332 C347 0.959 . S
H333 C347 0.961 . S
H334 C348 0.960 . S
H335 C348 0.961 . S
H336 C348 0.959 . S
H337 C351 0.929 . S
H338 C352 0.931 . S
H339 C354 0.930 . S
C340 H328 0.930 . S
C340 C341 1.399 . S
C340 C345 1.399 . S
C341 C340 1.399 . S
C341 C342 1.376 . S
C342 H329 0.930 . S
C342 C341 1.376 . S
C342 C343 1.388 . S
C343 H330 0.930 . S
C343 C342 1.388 . S
C343 C344 1.390 . S
C344 C343 1.390 . S
C344 C345 1.394 . S
C344 C350 1.465 . S
C345 C340 1.399 . S
C345 C344 1.394 . S
C345 C346 1.516 . S
C346 C345 1.516 . S
C346 C347 1.502 . S
C346 C348 1.561 . S
C346 C349 1.526 . S
C347 H331 0.959 . S
C347 H332 0.959 . S
C347 H333 0.961 . S
C347 C346 1.502 . S
C348 H334 0.960 . S
C348 H335 0.961 . S
C348 H336 0.959 . S
C348 C346 1.561 . S
C349 C346 1.526 . S
C349 C350 1.396 . S
C349 C354 1.390 . S
C350 C344 1.465 . S
C350 C349 1.396 . S
C350 C351 1.399 . S
C351 H337 0.929 . S
C351 C350 1.399 . S
C351 C352 1.385 . S
C352 H338 0.931 . S
C352 C351 1.385 . S
C352 C353 1.389 . S
C353 C352 1.389 . S
C353 C354 1.387 . S
C354 H339 0.930 . S
C354 C349 1.390 . S
C354 C353 1.387 . S
H355 C367 0.930 . S
H356 C369 0.930 . S
H357 C370 0.930 . S
H358 C374 0.959 . S
H359 C374 0.959 . S
H360 C374 0.961 . S
H361 C375 0.960 . S
H362 C375 0.961 . S
H363 C375 0.959 . S
H364 C378 0.929 . S
H365 C379 0.931 . S
H366 C381 0.930 . S
C367 H355 0.930 . S
C367 C368 1.399 . S
C367 C372 1.399 . S
C368 C367 1.399 . S
C368 C369 1.376 . S
C369 H356 0.930 . S
C369 C368 1.376 . S
C369 C370 1.388 . S
C370 H357 0.930 . S
C370 C369 1.388 . S
C370 C371 1.390 . S
C371 C370 1.390 . S
C371 C372 1.394 . S
C371 C377 1.465 . S
C372 C367 1.399 . S
C372 C371 1.394 . S
C372 C373 1.516 . S
C373 C372 1.516 . S
C373 C374 1.502 . S
C373 C375 1.561 . S
C373 C376 1.526 . S
C374 H358 0.959 . S
C374 H359 0.959 . S
C374 H360 0.961 . S
C374 C373 1.502 . S
C375 H361 0.960 . S
C375 H362 0.961 . S
C375 H363 0.959 . S
C375 C373 1.561 . S
C376 C373 1.526 . S
C376 C377 1.396 . S
C376 C381 1.390 . S
C377 C371 1.465 . S
C377 C376 1.396 . S
C377 C378 1.399 . S
C378 H364 0.929 . S
C378 C377 1.399 . S
C378 C379 1.385 . S
C379 H365 0.931 . S
C379 C378 1.385 . S
C379 C380 1.389 . S
C380 C379 1.389 . S
C380 C381 1.387 . S
C381 H366 0.930 . S
C381 C376 1.390 . S
C381 C380 1.387 . S
H382 C394 0.930 . S
H383 C396 0.930 . S
H384 C397 0.930 . S
H385 C401 0.959 . S
H386 C401 0.959 . S
H387 C401 0.961 . S
H388 C402 0.960 . S
H389 C402 0.961 . S
H390 C402 0.959 . S
H391 C405 0.929 . S
H392 C406 0.931 . S
H393 C408 0.930 . S
C394 H382 0.930 . S
C394 C395 1.399 . S
C394 C399 1.399 . S
C395 C394 1.399 . S
C395 C396 1.376 . S
C396 H383 0.930 . S
C396 C395 1.376 . S
C396 C397 1.388 . S
C397 H384 0.930 . S
C397 C396 1.388 . S
C397 C398 1.390 . S
C398 C397 1.390 . S
C398 C399 1.394 . S
C398 C404 1.465 . S
C399 C394 1.399 . S
C399 C398 1.394 . S
C399 C400 1.516 . S
C400 C399 1.516 . S
C400 C401 1.502 . S
C400 C402 1.561 . S
C400 C403 1.526 . S
C401 H385 0.959 . S
C401 H386 0.959 . S
C401 H387 0.961 . S
C401 C400 1.502 . S
C402 H388 0.960 . S
C402 H389 0.961 . S
C402 H390 0.959 . S
C402 C400 1.561 . S
C403 C400 1.526 . S
C403 C404 1.396 . S
C403 C408 1.390 . S
C404 C398 1.465 . S
C404 C403 1.396 . S
C404 C405 1.399 . S
C405 H391 0.929 . S
C405 C404 1.399 . S
C405 C406 1.385 . S
C406 H392 0.931 . S
C406 C405 1.385 . S
C406 C407 1.389 . S
C407 C406 1.389 . S
C407 C408 1.387 . S
C408 H393 0.930 . S
C408 C403 1.390 . S
C408 C407 1.387 . S
H409 C421 0.930 . S
H410 C423 0.930 . S
H411 C424 0.930 . S
H412 C428 0.959 . S
H413 C428 0.959 . S
H414 C428 0.961 . S
H415 C429 0.960 . S
H416 C429 0.961 . S
H417 C429 0.959 . S
H418 C432 0.929 . S
H419 C433 0.931 . S
H420 C435 0.930 . S
C421 H409 0.930 . S
C421 C422 1.399 . S
C421 C426 1.399 . S
C422 C421 1.399 . S
C422 C423 1.376 . S
C423 H410 0.930 . S
C423 C422 1.376 . S
C423 C424 1.388 . S
C424 H411 0.930 . S
C424 C423 1.388 . S
C424 C425 1.390 . S
C425 C424 1.390 . S
C425 C426 1.394 . S
C425 C431 1.465 . S
C426 C421 1.399 . S
C426 C425 1.394 . S
C426 C427 1.516 . S
C427 C426 1.516 . S
C427 C428 1.502 . S
C427 C429 1.561 . S
C427 C430 1.526 . S
C428 H412 0.959 . S
C428 H413 0.959 . S
C428 H414 0.961 . S
C428 C427 1.502 . S
C429 H415 0.960 . S
C429 H416 0.961 . S
C429 H417 0.959 . S
C429 C427 1.561 . S
C430 C427 1.526 . S
C430 C431 1.396 . S
C430 C435 1.390 . S
C431 C425 1.465 . S
C431 C430 1.396 . S
C431 C432 1.399 . S
C432 H418 0.929 . S
C432 C431 1.399 . S
C432 C433 1.385 . S
C433 H419 0.931 . S
C433 C432 1.385 . S
C433 C434 1.389 . S
C434 C433 1.389 . S
C434 C435 1.387 . S
C435 H420 0.930 . S
C435 C430 1.390 . S
C435 C434 1.387 . S
H436 C448 0.930 . S
H437 C450 0.930 . S
H438 C451 0.930 . S
H439 C455 0.959 . S
H440 C455 0.959 . S
H441 C455 0.961 . S
H442 C456 0.960 . S
H443 C456 0.961 . S
H444 C456 0.959 . S
H445 C459 0.929 . S
H446 C460 0.931 . S
H447 C462 0.930 . S
C448 H436 0.930 . S
C448 C449 1.399 . S
C448 C453 1.399 . S
C449 C448 1.399 . S
C449 C450 1.376 . S
C450 H437 0.930 . S
C450 C449 1.376 . S
C450 C451 1.388 . S
C451 H438 0.930 . S
C451 C450 1.388 . S
C451 C452 1.390 . S
C452 C451 1.390 . S
C452 C453 1.394 . S
C452 C458 1.465 . S
C453 C448 1.399 . S
C453 C452 1.394 . S
C453 C454 1.516 . S
C454 C453 1.516 . S
C454 C455 1.502 . S
C454 C456 1.561 . S
C454 C457 1.526 . S
C455 H439 0.959 . S
C455 H440 0.959 . S
C455 H441 0.961 . S
C455 C454 1.502 . S
C456 H442 0.960 . S
C456 H443 0.961 . S
C456 H444 0.959 . S
C456 C454 1.561 . S
C457 C454 1.526 . S
C457 C458 1.396 . S
C457 C462 1.390 . S
C458 C452 1.465 . S
C458 C457 1.396 . S
C458 C459 1.399 . S
C459 H445 0.929 . S
C459 C458 1.399 . S
C459 C460 1.385 . S
C460 H446 0.931 . S
C460 C459 1.385 . S
C460 C461 1.389 . S
C461 C460 1.389 . S
C461 C462 1.387 . S
C462 H447 0.930 . S
C462 C457 1.390 . S
C462 C461 1.387 . S
H463 C475 0.930 . S
H464 C477 0.930 . S
H465 C478 0.930 . S
H466 C482 0.959 . S
H467 C482 0.959 . S
H468 C482 0.961 . S
H469 C483 0.960 . S
H470 C483 0.961 . S
H471 C483 0.959 . S
H472 C486 0.929 . S
H473 C487 0.931 . S
H474 C489 0.930 . S
C475 H463 0.930 . S
C475 C476 1.399 . S
C475 C480 1.399 . S
C476 C475 1.399 . S
C476 C477 1.376 . S
C477 H464 0.930 . S
C477 C476 1.376 . S
C477 C478 1.388 . S
C478 H465 0.930 . S
C478 C477 1.388 . S
C478 C479 1.390 . S
C479 C478 1.390 . S
C479 C480 1.394 . S
C479 C485 1.465 . S
C480 C475 1.399 . S
C480 C479 1.394 . S
C480 C481 1.516 . S
C481 C480 1.516 . S
C481 C482 1.502 . S
C481 C483 1.561 . S
C481 C484 1.526 . S
C482 H466 0.959 . S
C482 H467 0.959 . S
C482 H468 0.961 . S
C482 C481 1.502 . S
C483 H469 0.960 . S
C483 H470 0.961 . S
C483 H471 0.959 . S
C483 C481 1.561 . S
C484 C481 1.526 . S
C484 C485 1.396 . S
C484 C489 1.390 . S
C485 C479 1.465 . S
C485 C484 1.396 . S
C485 C486 1.399 . S
C486 H472 0.929 . S
C486 C485 1.399 . S
C486 C487 1.385 . S
C487 H473 0.931 . S
C487 C486 1.385 . S
C487 C488 1.389 . S
C488 C487 1.389 . S
C488 C489 1.387 . S
C489 H474 0.930 . S
C489 C484 1.390 . S
C489 C488 1.387 . S
H490 C502 0.930 . S
H491 C504 0.930 . S
H492 C505 0.930 . S
H493 C509 0.959 . S
H494 C509 0.959 . S
H495 C509 0.961 . S
H496 C510 0.960 . S
H497 C510 0.961 . S
H498 C510 0.959 . S
H499 C513 0.929 . S
H500 C514 0.931 . S
H501 C516 0.930 . S
C502 H490 0.930 . S
C502 C503 1.399 . S
C502 C507 1.399 . S
C503 C502 1.399 . S
C503 C504 1.376 . S
C504 H491 0.930 . S
C504 C503 1.376 . S
C504 C505 1.388 . S
C505 H492 0.930 . S
C505 C504 1.388 . S
C505 C506 1.390 . S
C506 C505 1.390 . S
C506 C507 1.394 . S
C506 C512 1.465 . S
C507 C502 1.399 . S
C507 C506 1.394 . S
C507 C508 1.516 . S
C508 C507 1.516 . S
C508 C509 1.502 . S
C508 C510 1.561 . S
C508 C511 1.526 . S
C509 H493 0.959 . S
C509 H494 0.959 . S
C509 H495 0.961 . S
C509 C508 1.502 . S
C510 H496 0.960 . S
C510 H497 0.961 . S
C510 H498 0.959 . S
C510 C508 1.561 . S
C511 C508 1.526 . S
C511 C512 1.396 . S
C511 C516 1.390 . S
C512 C506 1.465 . S
C512 C511 1.396 . S
C512 C513 1.399 . S
C513 H499 0.929 . S
C513 C512 1.399 . S
C513 C514 1.385 . S
C514 H500 0.931 . S
C514 C513 1.385 . S
C514 C515 1.389 . S
C515 C514 1.389 . S
C515 C516 1.387 . S
C516 H501 0.930 . S
C516 C511 1.390 . S
C516 C515 1.387 . S
H517 C529 0.930 . S
H518 C531 0.930 . S
H519 C532 0.930 . S
H520 C536 0.959 . S
H521 C536 0.959 . S
H522 C536 0.961 . S
H523 C537 0.960 . S
H524 C537 0.961 . S
H525 C537 0.959 . S
H526 C540 0.929 . S
H527 C541 0.931 . S
H528 C543 0.930 . S
C529 H517 0.930 . S
C529 C530 1.399 . S
C529 C534 1.399 . S
C530 C529 1.399 . S
C530 C531 1.376 . S
C531 H518 0.930 . S
C531 C530 1.376 . S
C531 C532 1.388 . S
C532 H519 0.930 . S
C532 C531 1.388 . S
C532 C533 1.390 . S
C533 C532 1.390 . S
C533 C534 1.394 . S
C533 C539 1.465 . S
C534 C529 1.399 . S
C534 C533 1.394 . S
C534 C535 1.516 . S
C535 C534 1.516 . S
C535 C536 1.502 . S
C535 C537 1.561 . S
C535 C538 1.526 . S
C536 H520 0.959 . S
C536 H521 0.959 . S
C536 H522 0.961 . S
C536 C535 1.502 . S
C537 H523 0.960 . S
C537 H524 0.961 . S
C537 H525 0.959 . S
C537 C535 1.561 . S
C538 C535 1.526 . S
C538 C539 1.396 . S
C538 C543 1.390 . S
C539 C533 1.465 . S
C539 C538 1.396 . S
C539 C540 1.399 . S
C540 H526 0.929 . S
C540 C539 1.399 . S
C540 C541 1.385 . S
C541 H527 0.931 . S
C541 C540 1.385 . S
C541 C542 1.389 . S
C542 C541 1.389 . S
C542 C543 1.387 . S
C543 H528 0.930 . S
C543 C538 1.390 . S
C543 C542 1.387 . S
C125 C4 1.437 . S
C137 C46 1.443 . S
C152 C5 1.217 . S
C164 C19 1.220 . S
C179 C18 1.474 . S
C191 C32 1.468 . S
C206 C47 1.257 . S
C218 C33 1.235 . S
C233 C60 1.477 . S
C245 C102 1.471 . S
C260 C75 1.232 . S
C272 C61 1.220 . S
C287 C88 1.475 . S
C299 C74 1.469 . S
C314 C103 1.244 . S
C326 C89 1.227 . S
C341 C96 1.411 . S
C353 C11 1.366 . S
C368 C26 1.416 . S
C380 C109 1.417 . S
C395 C68 1.415 . S
C407 C39 1.366 . S
C422 C81 1.392 . S
C434 C54 1.412 . S
C449 C82 1.419 . S
C461 C53 1.414 . S
C476 C12 1.411 . S
C488 C95 1.383 . S
C503 C25 1.392 . S
C515 C110 1.419 . S
C530 C40 1.419 . S
C542 C67 1.413 . S
