# Generated by pormake.
# Topology zfw, (5)-cn, num edge types: 1
# Building blocks:
#     Node 0, Type 0, BuildingBlock: XOMCOT_clean_sbu_1, # of connection points: 5
#     Node 1, Type 0, BuildingBlock: XOMCOT_clean_sbu_1, # of connection points: 5
#     Node 2, Type 0, BuildingBlock: XOMCOT_clean_sbu_1, # of connection points: 5
#     Node 3, Type 0, BuildingBlock: XOMCOT_clean_sbu_1, # of connection points: 5
#     Node 4, Type 0, BuildingBlock: XOMCOT_clean_sbu_1, # of connection points: 5
#     Node 5, Type 0, BuildingBlock: XOMCOT_clean_sbu_1, # of connection points: 5
#     Node 6, Type 0, BuildingBlock: XOMCOT_clean_sbu_1, # of connection points: 5
#     Node 7, Type 0, BuildingBlock: XOMCOT_clean_sbu_1, # of connection points: 5
#     Node 8, Type 0, BuildingBlock: XOMCOT_clean_sbu_1, # of connection points: 5
#     Node 9, Type 0, BuildingBlock: XOMCOT_clean_sbu_1, # of connection points: 5
#     Node 10, Type 0, BuildingBlock: XOMCOT_clean_sbu_1, # of connection points: 5
#     Node 11, Type 0, BuildingBlock: XOMCOT_clean_sbu_1, # of connection points: 5
#     Node 12, Type 0, BuildingBlock: XOMCOT_clean_sbu_1, # of connection points: 5
#     Node 13, Type 0, BuildingBlock: XOMCOT_clean_sbu_1, # of connection points: 5
#     Node 14, Type 0, BuildingBlock: XOMCOT_clean_sbu_1, # of connection points: 5
#     Node 15, Type 0, BuildingBlock: XOMCOT_clean_sbu_1, # of connection points: 5
#     Edge 16, Type (0, 0), BuildingBlock: EZIPEK_clean_linker_0, # of connection points: 2
#     Edge 17, Type (0, 0), BuildingBlock: EZIPEK_clean_linker_0, # of connection points: 2
#     Edge 18, Type (0, 0), BuildingBlock: EZIPEK_clean_linker_0, # of connection points: 2
#     Edge 19, Type (0, 0), BuildingBlock: EZIPEK_clean_linker_0, # of connection points: 2
#     Edge 20, Type (0, 0), BuildingBlock: EZIPEK_clean_linker_0, # of connection points: 2
#     Edge 21, Type (0, 0), BuildingBlock: EZIPEK_clean_linker_0, # of connection points: 2
#     Edge 22, Type (0, 0), BuildingBlock: EZIPEK_clean_linker_0, # of connection points: 2
#     Edge 23, Type (0, 0), BuildingBlock: EZIPEK_clean_linker_0, # of connection points: 2
#     Edge 24, Type (0, 0), BuildingBlock: EZIPEK_clean_linker_0, # of connection points: 2
#     Edge 25, Type (0, 0), BuildingBlock: EZIPEK_clean_linker_0, # of connection points: 2
#     Edge 26, Type (0, 0), BuildingBlock: EZIPEK_clean_linker_0, # of connection points: 2
#     Edge 27, Type (0, 0), BuildingBlock: EZIPEK_clean_linker_0, # of connection points: 2
#     Edge 28, Type (0, 0), BuildingBlock: EZIPEK_clean_linker_0, # of connection points: 2
#     Edge 29, Type (0, 0), BuildingBlock: EZIPEK_clean_linker_0, # of connection points: 2
#     Edge 30, Type (0, 0), BuildingBlock: EZIPEK_clean_linker_0, # of connection points: 2
#     Edge 31, Type (0, 0), BuildingBlock: EZIPEK_clean_linker_0, # of connection points: 2
#     Edge 32, Type (0, 0), BuildingBlock: EZIPEK_clean_linker_0, # of connection points: 2
#     Edge 33, Type (0, 0), BuildingBlock: EZIPEK_clean_linker_0, # of connection points: 2
#     Edge 34, Type (0, 0), BuildingBlock: EZIPEK_clean_linker_0, # of connection points: 2
#     Edge 35, Type (0, 0), BuildingBlock: EZIPEK_clean_linker_0, # of connection points: 2
#     Edge 36, Type (0, 0), BuildingBlock: EZIPEK_clean_linker_0, # of connection points: 2
#     Edge 37, Type (0, 0), BuildingBlock: EZIPEK_clean_linker_0, # of connection points: 2
#     Edge 38, Type (0, 0), BuildingBlock: EZIPEK_clean_linker_0, # of connection points: 2
#     Edge 39, Type (0, 0), BuildingBlock: EZIPEK_clean_linker_0, # of connection points: 2
#     Edge 40, Type (0, 0), BuildingBlock: EZIPEK_clean_linker_0, # of connection points: 2
#     Edge 41, Type (0, 0), BuildingBlock: EZIPEK_clean_linker_0, # of connection points: 2
#     Edge 42, Type (0, 0), BuildingBlock: EZIPEK_clean_linker_0, # of connection points: 2
#     Edge 43, Type (0, 0), BuildingBlock: EZIPEK_clean_linker_0, # of connection points: 2
#     Edge 44, Type (0, 0), BuildingBlock: EZIPEK_clean_linker_0, # of connection points: 2
#     Edge 45, Type (0, 0), BuildingBlock: EZIPEK_clean_linker_0, # of connection points: 2
#     Edge 46, Type (0, 0), BuildingBlock: EZIPEK_clean_linker_0, # of connection points: 2
#     Edge 47, Type (0, 0), BuildingBlock: EZIPEK_clean_linker_0, # of connection points: 2
#     Edge 48, Type (0, 0), BuildingBlock: EZIPEK_clean_linker_0, # of connection points: 2
#     Edge 49, Type (0, 0), BuildingBlock: EZIPEK_clean_linker_0, # of connection points: 2
#     Edge 50, Type (0, 0), BuildingBlock: EZIPEK_clean_linker_0, # of connection points: 2
#     Edge 51, Type (0, 0), BuildingBlock: EZIPEK_clean_linker_0, # of connection points: 2
#     Edge 52, Type (0, 0), BuildingBlock: EZIPEK_clean_linker_0, # of connection points: 2
#     Edge 53, Type (0, 0), BuildingBlock: EZIPEK_clean_linker_0, # of connection points: 2
#     Edge 54, Type (0, 0), BuildingBlock: EZIPEK_clean_linker_0, # of connection points: 2
#     Edge 55, Type (0, 0), BuildingBlock: EZIPEK_clean_linker_0, # of connection points: 2
# Relax obj value: 0.257
# Max RMSD: 0.204
# Mean RMSD: 0.192
data_MOF--net-zfw--node1-XOMCOT_clean_sbu_1--edge1-EZIPEK_clean_linker_0
_symmetry_space_group_name_H-M    P1
_symmetry_Int_Tables_number       1
_symmetry_cell_setting            triclinic
loop_
_symmetry_equiv_pos_as_xyz
'x, y, z'
_cell_length_a     53.013698
_cell_length_b     52.607077
_cell_length_c     13.116708
_cell_angle_alpha  90.051475
_cell_angle_beta   90.082871
_cell_angle_gamma 89.997296
loop_
_atom_site_label
_atom_site_type_symbol
_atom_site_fract_x
_atom_site_fract_y
_atom_site_fract_z
_atom_type_partial_charge
C0 C 0.07221 0.07424 0.35879 0.0
C1 C 0.0695 0.07062 0.46197 0.0
N2 N 0.0924 0.06546 0.50115 0.0
N3 N 0.09677 0.07177 0.3335 0.0
C4 C 0.1081 0.06424 0.42043 0.0
H5 H 0.05757 0.08059 0.30733 0.0
Co6 Co 0.10985 0.08162 0.20708 0.0
C7 C 0.1527 0.10336 0.34961 0.0
O8 O 0.14073 0.10305 0.43703 0.0
N9 N 0.12164 0.09021 0.07741 0.0
C10 C 0.14551 0.09733 0.9406 0.0
C11 C 0.14458 0.09822 0.04562 0.0
C12 C 0.10923 0.0842 0.99068 0.0
N13 N 0.12328 0.08833 0.90714 0.0
O14 O 0.12492 0.04878 0.18927 0.0
H15 H 0.16026 0.1029 0.09476 0.0
H16 H 0.09062 0.07582 0.98856 0.0
O17 O 0.14192 0.09553 0.26738 0.0
C18 C 0.10892 0.03436 0.14567 0.0
O19 O 0.08581 0.04315 0.13586 0.0
N20 N 0.093 0.11354 0.21907 0.0
C21 C 0.05879 0.15302 0.25518 0.0
C22 C 0.08059 0.15061 0.31406 0.0
C23 C 0.09747 0.13095 0.29436 0.0
C24 C 0.07233 0.11637 0.15775 0.0
C25 C 0.05516 0.13625 0.17336 0.0
H26 H 0.1131 0.12933 0.34459 0.0
H27 H 0.06809 0.10219 0.1008 0.0
H28 H 0.12801 0.06004 0.42653 0.0
H29 H 0.05276 0.0747 0.50629 0.0
H30 H 0.16152 0.10184 0.8928 0.0
H31 H 0.08403 0.16322 0.378 0.0
H32 H 0.03841 0.13754 0.12628 0.0
C33 C 0.27412 0.73521 0.66532 0.0
C34 C 0.27847 0.73299 0.76846 0.0
N35 N 0.27791 0.75649 0.80926 0.0
N36 N 0.2709 0.75996 0.64158 0.0
C37 C 0.27529 0.77245 0.72957 0.0
H38 H 0.27135 0.71967 0.61239 0.0
Co39 Co 0.25935 0.77113 0.51438 0.0
C40 C 0.23023 0.81118 0.65086 0.0
O41 O 0.23196 0.80075 0.74127 0.0
N42 N 0.24936 0.78167 0.38521 0.0
C43 C 0.23712 0.80327 0.24775 0.0
C44 C 0.23567 0.80181 0.3526 0.0
C45 C 0.25904 0.77148 0.29958 0.0
N46 N 0.25201 0.78422 0.21571 0.0
O47 O 0.2898 0.79086 0.49307 0.0
H48 H 0.22593 0.81518 0.40111 0.0
H49 H 0.27068 0.75472 0.29833 0.0
O50 O 0.24055 0.80094 0.57213 0.0
C51 C 0.31193 0.78121 0.48965 0.0
O52 O 0.31781 0.76263 0.55211 0.0
N53 N 0.22962 0.75051 0.52805 0.0
C54 C 0.18611 0.72061 0.54637 0.0
C55 C 0.19493 0.73495 0.62861 0.0
C56 C 0.21657 0.7497 0.61773 0.0
C57 C 0.22175 0.7357 0.44824 0.0
C58 C 0.19969 0.72114 0.45487 0.0
H59 H 0.22301 0.76003 0.68264 0.0
H60 H 0.23254 0.73478 0.37885 0.0
H61 H 0.27536 0.7929 0.73661 0.0
H62 H 0.27884 0.71547 0.81164 0.0
H63 H 0.22827 0.81728 0.19902 0.0
H64 H 0.18519 0.73464 0.70119 0.0
H65 H 0.19364 0.70988 0.39011 0.0
C66 C 0.58384 0.94415 0.91653 0.0
C67 C 0.58522 0.94922 0.01871 0.0
N68 N 0.56185 0.94785 0.06036 0.0
N69 N 0.55994 0.93849 0.89202 0.0
C70 C 0.54694 0.94111 0.98007 0.0
H71 H 0.59967 0.94217 0.86519 0.0
Co72 Co 0.55151 0.92431 0.76552 0.0
C73 C 0.512 0.88774 0.84404 0.0
O74 O 0.5257 0.86782 0.82069 0.0
N75 N 0.54381 0.91134 0.63418 0.0
C76 C 0.5321 0.89139 0.49107 0.0
C77 C 0.53216 0.89044 0.59648 0.0
C78 C 0.55064 0.9244 0.54991 0.0
N79 N 0.54346 0.91309 0.46257 0.0
O80 O 0.53426 0.95557 0.72849 0.0
H81 H 0.5241 0.87532 0.64087 0.0
H82 H 0.56112 0.94195 0.55135 0.0
O83 O 0.51971 0.91028 0.82349 0.0
C84 C 0.54987 0.97258 0.69983 0.0
O85 O 0.57409 0.96762 0.7083 0.0
N86 N 0.57059 0.89464 0.79984 0.0
C87 C 0.60386 0.85575 0.85457 0.0
C88 C 0.58672 0.86537 0.92517 0.0
C89 C 0.57054 0.88496 0.89678 0.0
C90 C 0.58767 0.88567 0.73055 0.0
C91 C 0.60431 0.86596 0.756 0.0
H92 H 0.55801 0.89237 0.95362 0.0
H93 H 0.58906 0.89426 0.65598 0.0
H94 H 0.52744 0.93554 0.98632 0.0
H95 H 0.6029 0.95095 0.05875 0.0
H96 H 0.52403 0.8775 0.43956 0.0
H97 H 0.58618 0.85811 0.00243 0.0
H98 H 0.61778 0.85918 0.70026 0.0
C99 C 0.38142 0.24735 0.16166 0.0
C100 C 0.37975 0.24837 0.2665 0.0
N101 N 0.39553 0.2308 0.30471 0.0
N102 N 0.39805 0.22909 0.13444 0.0
C103 C 0.40591 0.21914 0.22397 0.0
H104 H 0.37298 0.26085 0.1099 0.0
Co105 Co 0.41343 0.22586 0.00638 0.0
C106 C 0.42606 0.17277 0.07498 0.0
O107 O 0.40294 0.16411 0.06552 0.0
N108 N 0.42872 0.22313 0.87872 0.0
C109 C 0.45444 0.2139 0.74958 0.0
C110 C 0.45185 0.21416 0.85438 0.0
C111 C 0.41794 0.22874 0.78827 0.0
N112 N 0.43295 0.22301 0.70925 0.0
O113 O 0.38523 0.20619 0.95568 0.0
H114 H 0.46574 0.20778 0.90911 0.0
H115 H 0.39927 0.23653 0.77902 0.0
O116 O 0.43135 0.19561 0.05057 0.0
C117 C 0.36796 0.22051 0.91994 0.0
O118 O 0.371 0.24518 0.93044 0.0
N119 N 0.43992 0.24665 0.05258 0.0
C120 C 0.47305 0.28325 0.12902 0.0
C121 C 0.47197 0.25893 0.17226 0.0
C122 C 0.45597 0.24061 0.13058 0.0
C123 C 0.44054 0.27024 0.00993 0.0
C124 C 0.4574 0.28867 0.0454 0.0
H125 H 0.45614 0.2219 0.16378 0.0
H126 H 0.42759 0.27486 0.94886 0.0
H127 H 0.42096 0.20552 0.23175 0.0
H128 H 0.36972 0.26244 0.31102 0.0
H129 H 0.47043 0.207 0.70644 0.0
H130 H 0.48372 0.25402 0.23694 0.0
H131 H 0.45781 0.3072 0.00947 0.0
C132 C 0.07222 0.92194 0.63961 0.0
C133 C 0.07047 0.92803 0.53864 0.0
N134 N 0.09383 0.93219 0.50022 0.0
N135 N 0.09663 0.92048 0.66635 0.0
C136 C 0.10924 0.92827 0.58222 0.0
H137 H 0.05669 0.91651 0.68841 0.0
Co138 Co 0.10571 0.90748 0.79571 0.0
C139 C 0.14702 0.88153 0.66266 0.0
O140 O 0.13609 0.8845 0.57388 0.0
N141 N 0.1137 0.89616 0.92739 0.0
C142 C 0.12488 0.87667 0.0715 0.0
C143 C 0.12447 0.87495 0.96587 0.0
C144 C 0.1081 0.91031 0.00995 0.0
N145 N 0.11465 0.89916 0.0983 0.0
O146 O 0.12438 0.93831 0.82812 0.0
H147 H 0.13113 0.85913 0.92051 0.0
H148 H 0.09858 0.92822 0.00594 0.0
O149 O 0.1368 0.88988 0.74502 0.0
C150 C 0.11458 0.96053 0.8287 0.0
O151 O 0.0968 0.96608 0.76259 0.0
N152 N 0.08583 0.87745 0.77054 0.0
C153 C 0.0527 0.83698 0.73205 0.0
C154 C 0.06808 0.84662 0.65502 0.0
C155 C 0.08452 0.86657 0.67593 0.0
C156 C 0.07046 0.8685 0.84629 0.0
C157 C 0.05434 0.84778 0.82955 0.0
H158 H 0.09489 0.87412 0.61307 0.0
H159 H 0.07 0.87772 0.91982 0.0
H160 H 0.12951 0.92926 0.58088 0.0
H161 H 0.05308 0.92665 0.49614 0.0
H162 H 0.13193 0.86254 0.12426 0.0
H163 H 0.067 0.83912 0.57816 0.0
H164 H 0.04245 0.841 0.89085 0.0
C165 C 0.37882 0.78632 0.87046 0.0
C166 C 0.3763 0.78892 0.76629 0.0
N167 N 0.3996 0.79001 0.72575 0.0
N168 N 0.40353 0.78623 0.89515 0.0
C169 C 0.41562 0.78893 0.80519 0.0
H170 H 0.36368 0.78342 0.92396 0.0
Co171 Co 0.41843 0.78084 0.02273 0.0
C172 C 0.42734 0.8358 0.99871 0.0
O173 O 0.40323 0.8407 0.00993 0.0
N174 N 0.43334 0.77549 0.15022 0.0
C175 C 0.44554 0.75433 0.28831 0.0
C176 C 0.44417 0.75378 0.18357 0.0
C177 C 0.42899 0.78914 0.23561 0.0
N178 N 0.43537 0.77635 0.32057 0.0
O179 O 0.38952 0.79618 0.09042 0.0
H180 H 0.44825 0.73746 0.13628 0.0
H181 H 0.41872 0.80685 0.23658 0.0
O182 O 0.43556 0.81313 0.00853 0.0
C183 C 0.37604 0.77949 0.13504 0.0
O184 O 0.38241 0.75555 0.1216 0.0
N185 N 0.4454 0.76367 0.96012 0.0
C186 C 0.48205 0.73234 0.87429 0.0
C187 C 0.48878 0.75576 0.91776 0.0
C188 C 0.47006 0.77126 0.96069 0.0
C189 C 0.43866 0.74092 0.91836 0.0
C190 C 0.45666 0.72507 0.87403 0.0
H191 H 0.47549 0.78891 0.99679 0.0
H192 H 0.41914 0.73497 0.92058 0.0
H193 H 0.43593 0.78892 0.7969 0.0
H194 H 0.35889 0.78828 0.7231 0.0
H195 H 0.45074 0.7386 0.33722 0.0
H196 H 0.50833 0.7617 0.92042 0.0
H197 H 0.45091 0.70698 0.84208 0.0
C198 C 0.59227 0.09286 0.23396 0.0
C199 C 0.59453 0.08983 0.12986 0.0
N200 N 0.57156 0.09312 0.08802 0.0
N201 N 0.56793 0.09762 0.25752 0.0
C202 C 0.55569 0.0967 0.16689 0.0
H203 H 0.60767 0.09366 0.28807 0.0
Co204 Co 0.55622 0.10987 0.38429 0.0
C205 C 0.51391 0.14139 0.29228 0.0
O206 O 0.5244 0.16297 0.31933 0.0
N207 N 0.54471 0.12083 0.51157 0.0
C208 C 0.52403 0.13377 0.65019 0.0
C209 C 0.52496 0.13483 0.54496 0.0
C210 C 0.55542 0.11175 0.59732 0.0
N211 N 0.54319 0.11903 0.68189 0.0
O212 O 0.54195 0.07667 0.41805 0.0
H213 H 0.51174 0.14485 0.4973 0.0
H214 H 0.57232 0.10051 0.59786 0.0
O215 O 0.52403 0.12019 0.31768 0.0
C216 C 0.55591 0.05704 0.43034 0.0
O217 O 0.57877 0.05695 0.39226 0.0
N218 N 0.57262 0.1422 0.3594 0.0
C219 C 0.60605 0.1827 0.32158 0.0
C220 C 0.59189 0.17183 0.24275 0.0
C221 C 0.57509 0.15206 0.26355 0.0
C222 C 0.58585 0.15322 0.43767 0.0
C223 C 0.60184 0.174 0.42105 0.0
H224 H 0.56501 0.14399 0.20104 0.0
H225 H 0.58533 0.14536 0.51333 0.0
H226 H 0.53594 0.10108 0.15684 0.0
H227 H 0.61195 0.08808 0.08751 0.0
H228 H 0.51037 0.1429 0.69939 0.0
H229 H 0.59436 0.17806 0.16472 0.0
H230 H 0.61226 0.182 0.48454 0.0
C231 C 0.28308 0.24979 0.33471 0.0
C232 C 0.28551 0.25031 0.23021 0.0
N233 N 0.27577 0.22861 0.19244 0.0
N234 N 0.27267 0.2275 0.36332 0.0
C235 C 0.26958 0.21464 0.27493 0.0
H236 H 0.28569 0.26591 0.38483 0.0
Co237 Co 0.25579 0.22265 0.48811 0.0
C238 C 0.22018 0.17981 0.43998 0.0
O239 O 0.20161 0.19287 0.47979 0.0
N240 N 0.23886 0.21853 0.61729 0.0
C241 C 0.21308 0.22277 0.75159 0.0
C242 C 0.21502 0.22432 0.64692 0.0
C243 C 0.25049 0.2129 0.70663 0.0
N244 N 0.23578 0.21626 0.78892 0.0
O245 O 0.2855 0.20609 0.54661 0.0
H246 H 0.20012 0.23085 0.59725 0.0
H247 H 0.26981 0.20737 0.71387 0.0
O248 O 0.2426 0.18899 0.4397 0.0
C249 C 0.30526 0.21891 0.56979 0.0
O250 O 0.30891 0.24102 0.52612 0.0
N251 N 0.22804 0.24116 0.43316 0.0
C252 C 0.19076 0.27282 0.35183 0.0
C253 C 0.19652 0.24965 0.3055 0.0
C254 C 0.21537 0.23432 0.34664 0.0
C255 C 0.22353 0.26436 0.47627 0.0
C256 C 0.20456 0.2803 0.43812 0.0
H257 H 0.22005 0.21728 0.30699 0.0
H258 H 0.23459 0.27041 0.54128 0.0
H259 H 0.26048 0.19648 0.26984 0.0
H260 H 0.29053 0.26677 0.18505 0.0
H261 H 0.19692 0.22818 0.79711 0.0
H262 H 0.18676 0.24363 0.23699 0.0
H263 H 0.20089 0.29839 0.47471 0.0
C264 C 0.89334 0.23799 0.36951 0.0
C265 C 0.89053 0.23442 0.2661 0.0
N266 N 0.89775 0.25596 0.21968 0.0
N267 N 0.90212 0.2617 0.38752 0.0
C268 C 0.90409 0.27229 0.2943 0.0
H269 H 0.89122 0.22344 0.42694 0.0
Co270 Co 0.91498 0.27236 0.51309 0.0
C271 C 0.94749 0.31631 0.46517 0.0
O272 O 0.96448 0.30486 0.52213 0.0
N273 N 0.92649 0.28206 0.64374 0.0
C274 C 0.93001 0.30463 0.78736 0.0
C275 C 0.92919 0.30574 0.68296 0.0
C276 C 0.92405 0.26717 0.7272 0.0
N277 N 0.92601 0.28041 0.81483 0.0
O278 O 0.88242 0.28563 0.55183 0.0
H279 H 0.92696 0.32317 0.64088 0.0
H280 H 0.91794 0.24758 0.72447 0.0
O281 O 0.92579 0.30582 0.4538 0.0
C282 C 0.87024 0.26769 0.5949 0.0
O283 O 0.88139 0.2454 0.59564 0.0
N284 N 0.94635 0.25688 0.47742 0.0
C285 C 0.98537 0.2255 0.40815 0.0
C286 C 0.97793 0.24673 0.35182 0.0
C287 C 0.95843 0.2621 0.38745 0.0
C288 C 0.95375 0.23642 0.53395 0.0
C289 C 0.97355 0.22077 0.50174 0.0
H290 H 0.95246 0.27753 0.33931 0.0
H291 H 0.94341 0.23114 0.60126 0.0
H292 H 0.91248 0.29054 0.27979 0.0
H293 H 0.88574 0.21685 0.22772 0.0
H294 H 0.92978 0.32072 0.8389 0.0
H295 H 0.98647 0.25081 0.27863 0.0
H296 H 0.97863 0.20427 0.54665 0.0
C297 C 0.75913 0.75254 0.8866 0.0
C298 C 0.76245 0.75423 0.7825 0.0
N299 N 0.75745 0.73127 0.74157 0.0
N300 N 0.75231 0.72859 0.91079 0.0
C301 C 0.753 0.71583 0.82156 0.0
H302 H 0.75931 0.76826 0.93982 0.0
Co303 Co 0.73865 0.71799 0.03585 0.0
C304 C 0.69933 0.68153 0.94208 0.0
O305 O 0.68017 0.69459 0.97766 0.0
N306 N 0.72648 0.70789 0.16449 0.0
C307 C 0.70764 0.69219 0.30296 0.0
C308 C 0.70733 0.69308 0.19769 0.0
C309 C 0.73808 0.71565 0.25107 0.0
N310 N 0.72715 0.70632 0.33552 0.0
O311 O 0.76861 0.69823 0.06188 0.0
H312 H 0.69375 0.68361 0.1502 0.0
H313 H 0.75395 0.72852 0.25277 0.0
O314 O 0.72207 0.68817 0.96428 0.0
C315 C 0.786 0.71271 0.09605 0.0
O316 O 0.78194 0.73735 0.09666 0.0
N317 N 0.71019 0.73979 0.01516 0.0
C318 C 0.67382 0.77725 0.97943 0.0
C319 C 0.68083 0.76049 0.90235 0.0
C320 C 0.69922 0.74227 0.9215 0.0
C321 C 0.70358 0.75626 0.0914 0.0
C322 C 0.68517 0.775 0.07549 0.0
H323 H 0.70519 0.73075 0.85961 0.0
H324 H 0.71321 0.7557 0.16388 0.0
H325 H 0.7483 0.69595 0.81377 0.0
H326 H 0.76537 0.77152 0.73942 0.0
H327 H 0.6945 0.68221 0.35175 0.0
H328 H 0.67277 0.76205 0.82665 0.0
H329 H 0.68045 0.7881 0.1363 0.0
C330 C 0.79832 0.27921 0.19239 0.0
C331 C 0.80159 0.2808 0.29658 0.0
N332 N 0.77971 0.28878 0.33758 0.0
N333 N 0.77466 0.28657 0.16824 0.0
C334 C 0.76397 0.29256 0.25855 0.0
H335 H 0.8119 0.27193 0.13853 0.0
Co336 Co 0.75886 0.28562 0.04086 0.0
C337 C 0.75897 0.34115 0.08138 0.0
O338 O 0.78344 0.34245 0.09585 0.0
N339 N 0.74282 0.28468 0.9122 0.0
C340 C 0.72452 0.26903 0.77273 0.0
C341 C 0.72571 0.26768 0.87735 0.0
C342 C 0.75086 0.29677 0.82733 0.0
N343 N 0.74094 0.28688 0.74162 0.0
O344 O 0.79007 0.2957 0.97515 0.0
H345 H 0.71648 0.25337 0.92281 0.0
H346 H 0.76568 0.31078 0.82688 0.0
O347 O 0.74857 0.32012 0.05724 0.0
C348 C 0.79947 0.27667 0.9286 0.0
O349 O 0.7879 0.25475 0.94069 0.0
N350 N 0.72916 0.2736 0.10278 0.0
C351 C 0.68772 0.24853 0.18742 0.0
C352 C 0.6877 0.27511 0.17653 0.0
C353 C 0.70835 0.28728 0.13098 0.0
C354 C 0.7299 0.24798 0.1168 0.0
C355 C 0.70918 0.23501 0.15625 0.0
H356 H 0.70761 0.3076 0.11998 0.0
H357 H 0.74649 0.23748 0.09374 0.0
H358 H 0.74461 0.29858 0.26747 0.0
H359 H 0.81808 0.27497 0.33941 0.0
H360 H 0.7147 0.2559 0.72298 0.0
H361 H 0.67163 0.28627 0.20089 0.0
H362 H 0.71 0.2145 0.16308 0.0
C363 C 0.87737 0.72995 0.6137 0.0
C364 C 0.87518 0.73033 0.71866 0.0
N365 N 0.89527 0.71818 0.75751 0.0
N366 N 0.89885 0.7177 0.587 0.0
C367 C 0.90915 0.71082 0.67724 0.0
H368 H 0.86442 0.73898 0.56171 0.0
Co369 Co 0.91454 0.71339 0.45876 0.0
C370 C 0.92429 0.6572 0.4868 0.0
O371 O 0.90747 0.64934 0.42034 0.0
N372 N 0.93078 0.70884 0.33015 0.0
C373 C 0.95692 0.71271 0.19723 0.0
C374 C 0.95483 0.71406 0.30199 0.0
C375 C 0.91933 0.70296 0.24098 0.0
N376 N 0.93419 0.70643 0.15943 0.0
O377 O 0.88388 0.69874 0.40284 0.0
H378 H 0.96973 0.72013 0.35268 0.0
H379 H 0.89999 0.6973 0.23305 0.0
O380 O 0.92727 0.68086 0.50366 0.0
C381 C 0.86896 0.7153 0.36377 0.0
O382 O 0.87371 0.73947 0.38021 0.0
N383 N 0.94316 0.73022 0.50996 0.0
C384 C 0.98039 0.76237 0.58722 0.0
C385 C 0.98094 0.73623 0.60828 0.0
C386 C 0.96249 0.72028 0.56651 0.0
C387 C 0.94251 0.7555 0.48802 0.0
C388 C 0.96122 0.77184 0.52407 0.0
H389 H 0.96348 0.70019 0.58265 0.0
H390 H 0.92718 0.76298 0.44255 0.0
H391 H 0.92707 0.70135 0.68526 0.0
H392 H 0.8606 0.73955 0.76295 0.0
H393 H 0.97315 0.71808 0.15212 0.0
H394 H 0.99552 0.72825 0.65657 0.0
H395 H 0.96029 0.79188 0.50557 0.0
C396 C 0.56696 0.56325 0.77944 0.0
C397 C 0.56301 0.56142 0.88317 0.0
N398 N 0.58298 0.57202 0.92999 0.0
N399 N 0.58918 0.57502 0.7625 0.0
C400 C 0.59851 0.57994 0.85595 0.0
H401 H 0.55397 0.55748 0.72012 0.0
Co402 Co 0.60066 0.58579 0.63709 0.0
C403 C 0.64598 0.61708 0.68217 0.0
O404 O 0.63696 0.63376 0.61689 0.0
N405 N 0.61163 0.59558 0.50636 0.0
C406 C 0.6349 0.59466 0.36473 0.0
C407 C 0.63544 0.59415 0.46931 0.0
C408 C 0.59699 0.59616 0.4219 0.0
N409 N 0.61066 0.59561 0.33552 0.0
O410 O 0.61441 0.5524 0.6109 0.0
H411 H 0.65203 0.58992 0.51404 0.0
H412 H 0.5768 0.5935 0.42261 0.0
O413 O 0.63329 0.59679 0.69895 0.0
C414 C 0.60099 0.53887 0.55106 0.0
O415 O 0.57907 0.54809 0.52216 0.0
N416 N 0.58501 0.61793 0.6623 0.0
C417 C 0.55344 0.65843 0.71664 0.0
C418 C 0.57607 0.65425 0.76862 0.0
C419 C 0.59137 0.63372 0.7415 0.0
C420 C 0.56286 0.62184 0.61139 0.0
C421 C 0.54696 0.64219 0.63625 0.0
H422 H 0.60743 0.62987 0.78932 0.0
H423 H 0.55641 0.60811 0.55625 0.0
H424 H 0.61545 0.59062 0.87066 0.0
H425 H 0.54652 0.55388 0.92114 0.0
H426 H 0.65075 0.59154 0.31424 0.0
H427 H 0.58118 0.66594 0.83351 0.0
H428 H 0.5291 0.64436 0.59698 0.0
C429 C 0.08979 0.42281 0.28205 0.0
C430 C 0.09169 0.42612 0.38614 0.0
N431 N 0.06866 0.42248 0.42693 0.0
N432 N 0.06566 0.41729 0.25781 0.0
C433 C 0.05309 0.41875 0.34699 0.0
H434 H 0.10534 0.42208 0.22885 0.0
Co435 Co 0.05448 0.40425 0.13237 0.0
C436 C 0.01535 0.36732 0.22213 0.0
O437 O 0.02709 0.34712 0.18752 0.0
N438 N 0.04389 0.39262 0.0031 0.0
C439 C 0.02637 0.37538 0.86431 0.0
C440 C 0.02736 0.37487 0.9695 0.0
C441 C 0.05263 0.4035 0.91664 0.0
N442 N 0.0422 0.39358 0.83214 0.0
O443 O 0.03687 0.43553 0.10683 0.0
H444 H 0.01664 0.36219 0.01658 0.0
H445 H 0.06687 0.41816 0.91486 0.0
O446 O 0.02376 0.38967 0.2018 0.0
C447 C 0.0523 0.45162 0.06977 0.0
O448 O 0.07629 0.44532 0.06618 0.0
N449 N 0.07428 0.37433 0.15355 0.0
C450 C 0.11144 0.33801 0.19579 0.0
C451 C 0.09384 0.3449 0.26963 0.0
C452 C 0.07568 0.36312 0.24715 0.0
C453 C 0.09109 0.36738 0.07953 0.0
C454 C 0.10962 0.34892 0.09855 0.0
H455 H 0.06365 0.36916 0.30717 0.0
H456 H 0.09116 0.37702 0.00695 0.0
H457 H 0.03313 0.41519 0.35473 0.0
H458 H 0.109 0.42808 0.42933 0.0
H459 H 0.01509 0.3633 0.81531 0.0
H460 H 0.0948 0.33701 0.34583 0.0
H461 H 0.12314 0.34414 0.03975 0.0
C462 C 0.59521 0.42779 0.06805 0.0
C463 C 0.59492 0.42888 0.96328 0.0
N464 N 0.61681 0.4192 0.92879 0.0
N465 N 0.61688 0.41668 0.09908 0.0
C466 C 0.63015 0.4131 0.01273 0.0
H467 H 0.57942 0.4321 0.11724 0.0
Co468 Co 0.62263 0.40047 0.22446 0.0
C469 C 0.66881 0.38528 0.19194 0.0
O470 O 0.65522 0.36446 0.19833 0.0
N471 N 0.62798 0.38495 0.35049 0.0
C472 C 0.61833 0.36275 0.48834 0.0
C473 C 0.61789 0.36292 0.38358 0.0
C474 C 0.6362 0.39685 0.43537 0.0
N475 N 0.62943 0.38437 0.5205 0.0
O476 O 0.61598 0.43204 0.29631 0.0
H477 H 0.60826 0.3493 0.33555 0.0
H478 H 0.64427 0.41575 0.43568 0.0
O479 O 0.65827 0.40667 0.21144 0.0
C480 C 0.62554 0.45414 0.28728 0.0
O481 O 0.64173 0.45871 0.21379 0.0
N482 N 0.5888 0.39059 0.22934 0.0
C483 C 0.54531 0.36104 0.22627 0.0
C484 C 0.56311 0.35921 0.14823 0.0
C485 C 0.58503 0.37332 0.15369 0.0
C486 C 0.57104 0.39423 0.30326 0.0
C487 C 0.5491 0.3791 0.3042 0.0
H488 H 0.59994 0.36948 0.10022 0.0
H489 H 0.57466 0.40723 0.3654 0.0
H490 H 0.64835 0.40422 0.01015 0.0
H491 H 0.57906 0.4343 0.91596 0.0
H492 H 0.60929 0.3489 0.53718 0.0
H493 H 0.56103 0.34533 0.08762 0.0
H494 H 0.53591 0.38065 0.36684 0.0
C495 C 0.08531 0.57906 0.60238 0.0
C496 C 0.08507 0.57917 0.49823 0.0
N497 N 0.06115 0.57554 0.46656 0.0
N498 N 0.06144 0.57668 0.63638 0.0
C499 C 0.0475 0.57258 0.55215 0.0
H500 H 0.10137 0.58371 0.64968 0.0
Co501 Co 0.05204 0.59005 0.76131 0.0
C502 C 0.00317 0.61769 0.71897 0.0
O503 O 0.01178 0.63831 0.76303 0.0
N504 N 0.04391 0.60385 0.88945 0.0
C505 C 0.0447 0.62903 0.02644 0.0
C506 C 0.04547 0.6283 0.92214 0.0
C507 C 0.0417 0.59027 0.97605 0.0
N508 N 0.04256 0.60505 0.05938 0.0
O509 O 0.03878 0.55729 0.80426 0.0
H510 H 0.04911 0.64467 0.87475 0.0
H511 H 0.04185 0.56979 0.97991 0.0
O512 O 0.0179 0.59862 0.70801 0.0
C513 C 0.05176 0.53684 0.8041 0.0
O514 O 0.07336 0.53621 0.7553 0.0
N515 N 0.06715 0.621 0.72214 0.0
C516 C 0.10107 0.65757 0.65365 0.0
C517 C 0.0775 0.65476 0.60632 0.0
C518 C 0.06064 0.63632 0.6423 0.0
C519 C 0.08968 0.62423 0.7708 0.0
C520 C 0.10678 0.6426 0.73861 0.0
H521 H 0.04311 0.6336 0.60288 0.0
H522 H 0.09493 0.61144 0.83183 0.0
H523 H 0.02742 0.57017 0.55262 0.0
H524 H 0.10093 0.58364 0.44944 0.0
H525 H 0.0473 0.64557 0.07455 0.0
H526 H 0.07264 0.66597 0.53993 0.0
H527 H 0.12491 0.64418 0.77633 0.0
C528 C 0.21191 0.13318 0.453 0.0
C529 C 0.21368 0.15511 0.39122 0.0
C530 C 0.17929 0.13977 0.28358 0.0
C531 C 0.17664 0.11806 0.3471 0.0
N532 N 0.1955 0.0903 0.47187 0.0
N533 N 0.2079 0.17177 0.22229 0.0
C534 C 0.19489 0.11341 0.42459 0.0
C535 C 0.20037 0.15582 0.29781 0.0
N536 N 0.22543 0.132 0.54149 0.0
N537 N 0.16093 0.1467 0.21592 0.0
H538 H 0.22471 0.18168 0.22771 0.0
H539 H 0.19978 0.17191 0.14983 0.0
H540 H 0.14444 0.13652 0.20379 0.0
H541 H 0.16111 0.16409 0.17784 0.0
H542 H 0.22282 0.11797 0.59645 0.0
H543 H 0.23871 0.14586 0.56091 0.0
H544 H 0.2094 0.0851 0.52403 0.0
H545 H 0.18338 0.07552 0.45117 0.0
C546 C 0.18666 0.82408 0.6013 0.0
C547 C 0.21072 0.83118 0.63927 0.0
C548 C 0.19322 0.87235 0.69423 0.0
C549 C 0.16879 0.86384 0.66619 0.0
N550 N 0.14167 0.82902 0.61812 0.0
N551 N 0.2368 0.86109 0.73029 0.0
C552 C 0.16538 0.83899 0.62663 0.0
C553 C 0.21396 0.85508 0.68834 0.0
N554 N 0.18391 0.80311 0.54086 0.0
N555 N 0.1967 0.89704 0.72339 0.0
H556 H 0.2527 0.84957 0.72166 0.0
H557 H 0.23969 0.87679 0.77728 0.0
H558 H 0.18183 0.90991 0.73043 0.0
H559 H 0.2144 0.90518 0.73436 0.0
H560 H 0.16723 0.79881 0.50248 0.0
H561 H 0.19884 0.79157 0.51926 0.0
H562 H 0.13813 0.81005 0.60023 0.0
H563 H 0.12565 0.83886 0.6411 0.0
C564 C 0.48746 0.8749 0.99782 0.0
C565 C 0.48745 0.88309 0.89491 0.0
C566 C 0.44344 0.8694 0.8774 0.0
C567 C 0.44553 0.85627 0.97194 0.0
N568 N 0.46813 0.84871 0.12842 0.0
N569 N 0.46546 0.88967 0.73682 0.0
C570 C 0.46706 0.85997 0.03458 0.0
C571 C 0.46522 0.88133 0.83549 0.0
N572 N 0.50689 0.88178 0.06038 0.0
N573 N 0.42089 0.87027 0.82701 0.0
H574 H 0.4807 0.89954 0.70581 0.0
H575 H 0.45115 0.88594 0.6845 0.0
H576 H 0.40474 0.86095 0.85187 0.0
H577 H 0.41762 0.88179 0.76387 0.0
H578 H 0.5073 0.87836 0.1385 0.0
H579 H 0.52149 0.89337 0.03539 0.0
H580 H 0.48442 0.84773 0.17265 0.0
H581 H 0.45265 0.83961 0.1612 0.0
C582 C 0.4666 0.14021 0.27785 0.0
C583 C 0.4904 0.14223 0.2295 0.0
C584 C 0.4691 0.15391 0.06965 0.0
C585 C 0.44628 0.1573 0.12366 0.0
N586 N 0.42289 0.15369 0.28108 0.0
N587 N 0.51448 0.15053 0.077 0.0
C588 C 0.44471 0.14996 0.22788 0.0
C589 C 0.49167 0.14865 0.12428 0.0
N590 N 0.46494 0.129 0.37146 0.0
N591 N 0.46899 0.15539 0.96561 0.0
H592 H 0.53118 0.14531 0.11231 0.0
H593 H 0.51696 0.15828 0.00466 0.0
H594 H 0.45249 0.15864 0.92407 0.0
H595 H 0.48449 0.15088 0.92036 0.0
H596 H 0.44789 0.12495 0.4073 0.0
H597 H 0.48057 0.12125 0.40838 0.0
H598 H 0.42164 0.15192 0.35997 0.0
H599 H 0.40626 0.16011 0.24751 0.0
C600 C 0.02547 0.7769 0.61473 0.0
C601 C 0.99925 0.78011 0.63313 0.0
C602 C 0.0079 0.82089 0.71685 0.0
C603 C 0.03422 0.81651 0.70709 0.0
N604 N 0.06788 0.78705 0.67003 0.0
N605 N 0.96656 0.80181 0.72754 0.0
C606 C 0.04294 0.79339 0.66364 0.0
C607 C 0.99081 0.80104 0.69257 0.0
N608 N 0.0337 0.75914 0.54636 0.0
N609 N 0.99899 0.84438 0.743 0.0
H610 H 0.95357 0.78736 0.71343 0.0
H611 H 0.96024 0.81544 0.77929 0.0
H612 H 0.01064 0.85998 0.75642 0.0
H613 H 0.97989 0.84904 0.74076 0.0
H614 H 0.05244 0.75779 0.52306 0.0
H615 H 0.02154 0.7475 0.50483 0.0
H616 H 0.07487 0.76948 0.64689 0.0
H617 H 0.0811 0.79831 0.70807 0.0
C618 C 0.99649 0.18178 0.34441 0.0
C619 C 0.00396 0.2072 0.36478 0.0
C620 C 0.04541 0.19811 0.29043 0.0
C621 C 0.0392 0.17188 0.28565 0.0
N622 N 0.01018 0.13817 0.33058 0.0
N623 N 0.03722 0.23854 0.37216 0.0
C624 C 0.01508 0.1635 0.31856 0.0
C625 C 0.02891 0.21515 0.34164 0.0
N626 N 0.97156 0.17518 0.34628 0.0
N627 N 0.0668 0.20682 0.2442 0.0
H628 H 0.02598 0.25128 0.4127 0.0
H629 H 0.05597 0.24429 0.36596 0.0
H630 H 0.079 0.19495 0.20385 0.0
H631 H 0.07102 0.22608 0.23701 0.0
H632 H 0.96506 0.15744 0.32251 0.0
H633 H 0.95716 0.18821 0.3606 0.0
H634 H 0.99369 0.13142 0.36419 0.0
H635 H 0.02352 0.124 0.31726 0.0
C636 C 0.65158 0.1977 0.33081 0.0
C637 C 0.6263 0.20171 0.29784 0.0
C638 C 0.64102 0.23683 0.19019 0.0
C639 C 0.66573 0.23443 0.2317 0.0
N640 N 0.69145 0.21785 0.36855 0.0
N641 N 0.59644 0.23056 0.22043 0.0
C642 C 0.66997 0.21664 0.31116 0.0
C643 C 0.62083 0.2231 0.23548 0.0
N644 N 0.6587 0.17521 0.37413 0.0
N645 N 0.63688 0.25075 0.10396 0.0
H646 H 0.58124 0.22161 0.25592 0.0
H647 H 0.5917 0.24727 0.18226 0.0
H648 H 0.65126 0.25968 0.06351 0.0
H649 H 0.61953 0.25103 0.06648 0.0
H650 H 0.67747 0.17096 0.39096 0.0
H651 H 0.64664 0.1597 0.38167 0.0
H652 H 0.69437 0.20638 0.43229 0.0
H653 H 0.70484 0.23222 0.3595 0.0
C654 C 0.64729 0.84224 0.90889 0.0
C655 C 0.62191 0.83568 0.88652 0.0
C656 C 0.62976 0.79197 0.94317 0.0
C657 C 0.65568 0.79791 0.95554 0.0
N658 N 0.69009 0.82754 0.93582 0.0
N659 N 0.58948 0.80383 0.86911 0.0
C660 C 0.66473 0.82277 0.93477 0.0
C661 C 0.61325 0.81039 0.9002 0.0
N662 N 0.65454 0.86719 0.90847 0.0
N663 N 0.62089 0.76885 0.97451 0.0
H664 H 0.57689 0.81684 0.83727 0.0
H665 H 0.58293 0.78518 0.86697 0.0
H666 H 0.63252 0.75496 0.00638 0.0
H667 H 0.60181 0.76423 0.97722 0.0
H668 H 0.67198 0.8734 0.93534 0.0
H669 H 0.64239 0.88202 0.88911 0.0
H670 H 0.69799 0.84443 0.90955 0.0
H671 H 0.70351 0.81391 0.95561 0.0
C672 C 0.68343 0.63673 0.91446 0.0
C673 C 0.69371 0.6595 0.8728 0.0
C674 C 0.68452 0.64325 0.70115 0.0
C675 C 0.66867 0.62464 0.74357 0.0
N676 N 0.66425 0.59531 0.88233 0.0
N677 N 0.70229 0.68464 0.72186 0.0
C678 C 0.6714 0.6187 0.84834 0.0
C679 C 0.69452 0.66247 0.76471 0.0
N680 N 0.68442 0.63291 0.01733 0.0
N681 N 0.68968 0.64255 0.59921 0.0
H682 H 0.70848 0.69974 0.76486 0.0
H683 H 0.70032 0.68885 0.64463 0.0
H684 H 0.68278 0.62803 0.55247 0.0
H685 H 0.70294 0.65434 0.56449 0.0
H686 H 0.67477 0.61852 0.05512 0.0
H687 H 0.69482 0.64469 0.06554 0.0
H688 H 0.66648 0.58905 0.95699 0.0
H689 H 0.65875 0.58095 0.8322 0.0
C690 C 0.69813 0.37109 0.05269 0.0
C691 C 0.69469 0.38294 0.14959 0.0
C692 C 0.73972 0.37675 0.18647 0.0
C693 C 0.74209 0.36353 0.09248 0.0
N694 N 0.72776 0.35966 0.92011 0.0
N695 N 0.71347 0.40317 0.29626 0.0
C696 C 0.72275 0.36533 0.01962 0.0
C697 C 0.71606 0.38824 0.21168 0.0
N698 N 0.67807 0.36304 0.99581 0.0
N699 N 0.75944 0.37713 0.25337 0.0
H700 H 0.69626 0.41108 0.31793 0.0
H701 H 0.72859 0.40937 0.34044 0.0
H702 H 0.7773 0.37045 0.23435 0.0
H703 H 0.7581 0.38381 0.32785 0.0
H704 H 0.68002 0.35202 0.93021 0.0
H705 H 0.65945 0.36487 0.01891 0.0
H706 H 0.71467 0.36224 0.86163 0.0
H707 H 0.74597 0.35501 0.89593 0.0
C708 C 0.96946 0.35553 0.24354 0.0
C709 C 0.9927 0.36334 0.28849 0.0
C710 C 0.9751 0.354 0.45703 0.0
C711 C 0.9557 0.33989 0.41059 0.0
N712 N 0.92721 0.33805 0.26912 0.0
N713 N 0.01747 0.36913 0.44231 0.0
C714 C 0.95053 0.34393 0.30605 0.0
C715 C 0.99519 0.36312 0.3967 0.0
N716 N 0.96596 0.35869 0.14121 0.0
N717 N 0.97445 0.35802 0.55981 0.0
H718 H 0.03297 0.37499 0.40154 0.0
H719 H 0.02119 0.36625 0.51947 0.0
H720 H 0.95947 0.35155 0.60423 0.0
H721 H 0.98695 0.37004 0.59791 0.0
H722 H 0.95073 0.35145 0.10047 0.0
H723 H 0.9786 0.36901 0.0967 0.0
H724 H 0.92162 0.34043 0.19374 0.0
H725 H 0.91248 0.33318 0.31792 0.0
C726 C 0.93785 0.64262 0.65915 0.0
C727 C 0.93854 0.63906 0.55235 0.0
C728 C 0.97145 0.6072 0.57908 0.0
C729 C 0.97704 0.61847 0.67452 0.0
N730 N 0.9607 0.64153 0.81904 0.0
N731 N 0.95389 0.61406 0.41071 0.0
C732 C 0.95855 0.63439 0.71933 0.0
C733 C 0.95447 0.61988 0.51194 0.0
N734 N 0.91671 0.65239 0.70306 0.0
N735 N 0.98043 0.58363 0.55694 0.0
H736 H 0.94186 0.62304 0.35922 0.0
H737 H 0.96619 0.601 0.37777 0.0
H738 H 0.98879 0.5725 0.6134 0.0
H739 H 0.97591 0.57385 0.49026 0.0
H740 H 0.91406 0.65262 0.78156 0.0
H741 H 0.90083 0.65732 0.66016 0.0
H742 H 0.94966 0.65574 0.85188 0.0
H743 H 0.97382 0.63323 0.86822 0.0
C744 C 0.48177 0.3274 0.1978 0.0
C745 C 0.49078 0.30285 0.17001 0.0
C746 C 0.5329 0.3155 0.22607 0.0
C747 C 0.52517 0.34128 0.22921 0.0
N748 N 0.49185 0.37221 0.21051 0.0
N749 N 0.52688 0.27554 0.13998 0.0
C750 C 0.4994 0.34742 0.21422 0.0
C751 C 0.51687 0.29726 0.18043 0.0
N752 N 0.45654 0.33145 0.2109 0.0
N753 N 0.55589 0.30863 0.26423 0.0
H754 H 0.5164 0.26259 0.09727 0.0
H755 H 0.54622 0.27196 0.13852 0.0
H756 H 0.56784 0.32168 0.29992 0.0
H757 H 0.56165 0.28973 0.27022 0.0
H758 H 0.44925 0.34845 0.23915 0.0
H759 H 0.44323 0.31693 0.2044 0.0
H760 H 0.47372 0.37763 0.18864 0.0
H761 H 0.50416 0.38738 0.22215 0.0
C762 C 0.51388 0.719 0.74111 0.0
C763 C 0.50152 0.71436 0.83531 0.0
C764 C 0.52103 0.67218 0.84441 0.0
C765 C 0.53517 0.67766 0.75534 0.0
N766 N 0.54792 0.70749 0.62609 0.0
N767 N 0.49744 0.68893 0.98736 0.0
C768 C 0.53244 0.70147 0.70569 0.0
C769 C 0.50635 0.69164 0.89019 0.0
N770 N 0.50723 0.73963 0.68378 0.0
N771 N 0.5208 0.64806 0.88301 0.0
H772 H 0.48689 0.70293 0.02418 0.0
H773 H 0.50258 0.67395 0.03491 0.0
H774 H 0.53062 0.63306 0.84945 0.0
H775 H 0.50892 0.64232 0.94183 0.0
H776 H 0.51353 0.74258 0.60957 0.0
H777 H 0.49384 0.7529 0.70747 0.0
H778 H 0.54876 0.72553 0.59368 0.0
H779 H 0.56135 0.69491 0.59721 0.0
C780 C 0.13972 0.71624 0.58282 0.0
C781 C 0.16316 0.70455 0.5589 0.0
C782 C 0.14298 0.66274 0.56892 0.0
C783 C 0.12102 0.67421 0.6101 0.0
N784 N 0.09917 0.71191 0.66603 0.0
N785 N 0.18802 0.66615 0.54469 0.0
C786 C 0.11943 0.70102 0.61889 0.0
C787 C 0.16503 0.67763 0.55504 0.0
N788 N 0.13675 0.74182 0.56937 0.0
N789 N 0.14268 0.63761 0.54244 0.0
H790 H 0.20487 0.6762 0.53796 0.0
H791 H 0.19066 0.64663 0.55264 0.0
H792 H 0.12668 0.62622 0.55024 0.0
H793 H 0.15737 0.62882 0.50318 0.0
H794 H 0.11945 0.75104 0.57667 0.0
H795 H 0.15107 0.75342 0.54102 0.0
H796 H 0.09856 0.73105 0.68609 0.0
H797 H 0.08381 0.70145 0.69256 0.0
C798 C 0.14522 0.28085 0.30761 0.0
C799 C 0.17067 0.28929 0.30783 0.0
C800 C 0.15748 0.32985 0.23291 0.0
C801 C 0.13239 0.32056 0.22467 0.0
N802 N 0.10354 0.28522 0.23355 0.0
N803 N 0.20177 0.31924 0.24786 0.0
C804 C 0.12664 0.29538 0.25554 0.0
C805 C 0.17705 0.31303 0.26352 0.0
N806 N 0.13856 0.25953 0.36072 0.0
N807 N 0.16253 0.35501 0.2168 0.0
H808 H 0.21667 0.30725 0.26758 0.0
H809 H 0.20737 0.33513 0.20629 0.0
H810 H 0.14876 0.36821 0.19636 0.0
H811 H 0.17997 0.36323 0.23287 0.0
H812 H 0.11991 0.25396 0.37181 0.0
H813 H 0.15149 0.24869 0.40204 0.0
H814 H 0.09909 0.26617 0.24548 0.0
H815 H 0.08964 0.29523 0.19398 0.0
C816 C 0.13808 0.00564 0.03759 0.0
C817 C 0.11525 0.00987 0.09252 0.0
C818 C 0.09378 0.97828 0.98606 0.0
C819 C 0.11577 0.97581 0.92455 0.0
N820 N 0.16025 0.98386 0.90256 0.0
N821 N 0.07682 0.99064 0.15004 0.0
C822 C 0.13841 0.98804 0.95505 0.0
C823 C 0.09487 0.99302 0.07642 0.0
N824 N 0.15994 0.01787 0.06096 0.0
N825 N 0.07167 0.96675 0.95846 0.0
H826 H 0.07817 1.00018 0.21972 0.0
H827 H 0.0624 0.97723 0.14693 0.0
H828 H 0.07026 0.95341 0.89997 0.0
H829 H 0.05442 0.971 0.99247 0.0
H830 H 0.16229 0.03001 0.12302 0.0
H831 H 0.16229 0.03001 0.12302 0.0
H832 H 0.1772 0.99278 0.92167 0.0
H833 H 0.16134 0.97146 0.8406 0.0
C834 C 0.33712 0.76603 0.22485 0.0
C835 C 0.35531 0.78536 0.21004 0.0
C836 C 0.34026 0.80567 0.36897 0.0
C837 C 0.3264 0.78335 0.39255 0.0
N838 N 0.31436 0.74045 0.34544 0.0
N839 N 0.37209 0.82605 0.26451 0.0
C840 C 0.32561 0.76303 0.32129 0.0
C841 C 0.3561 0.80614 0.28033 0.0
N842 N 0.33012 0.75096 0.14476 0.0
N843 N 0.33821 0.82643 0.43111 0.0
H844 H 0.38067 0.82966 0.19495 0.0
H845 H 0.37682 0.83918 0.32078 0.0
H846 H 0.32757 0.82631 0.49797 0.0
H847 H 0.34558 0.84422 0.41336 0.0
H848 H 0.31519 0.73809 0.14869 0.0
H849 H 0.33706 0.7538 0.0712 0.0
H850 H 0.31634 0.72419 0.30062 0.0
H851 H 0.3039 0.73749 0.41151 0.0
C852 C 0.53053 0.0189 0.48966 0.0
C853 C 0.54944 0.03747 0.50865 0.0
C854 C 0.55685 0.01839 0.67661 0.0
C855 C 0.54262 0.99686 0.6484 0.0
N856 N 0.51455 0.97666 0.52783 0.0
N857 N 0.58381 0.05188 0.61699 0.0
C858 C 0.52857 0.99729 0.55573 0.0
C859 C 0.56331 0.0366 0.60174 0.0
N860 N 0.51492 0.02157 0.40743 0.0
N861 N 0.56492 0.02088 0.77505 0.0
H862 H 0.59058 0.06461 0.56304 0.0
H863 H 0.59583 0.05002 0.67948 0.0
H864 H 0.56012 0.0077 0.83129 0.0
H865 H 0.5738 0.03719 0.80248 0.0
H866 H 0.49929 0.01002 0.3944 0.0
H867 H 0.51654 0.03661 0.35604 0.0
H868 H 0.50694 0.97426 0.45523 0.0
H869 H 0.51109 0.96147 0.57655 0.0
C870 C 0.35048 0.19288 0.77409 0.0
C871 C 0.34706 0.21171 0.85102 0.0
C872 C 0.31307 0.23125 0.75245 0.0
C873 C 0.3181 0.21439 0.66979 0.0
N874 N 0.33713 0.17583 0.60885 0.0
N875 N 0.31757 0.23939 0.93348 0.0
C876 C 0.33527 0.19391 0.68332 0.0
C877 C 0.32572 0.22771 0.84645 0.0
N878 N 0.36805 0.17423 0.78777 0.0
N879 N 0.29649 0.25099 0.74107 0.0
H880 H 0.32615 0.23606 0.00397 0.0
H881 H 0.30093 0.24985 0.93798 0.0
H882 H 0.28521 0.25352 0.67677 0.0
H883 H 0.29464 0.26559 0.79423 0.0
H884 H 0.37301 0.16092 0.73283 0.0
H885 H 0.37694 0.17104 0.85729 0.0
H886 H 0.34814 0.15954 0.61412 0.0
H887 H 0.32659 0.17661 0.5417 0.0
C888 C 0.82379 0.2995 0.78313 0.0
C889 C 0.82009 0.27824 0.84977 0.0
C890 C 0.84048 0.25087 0.72535 0.0
C891 C 0.84816 0.27187 0.66581 0.0
N892 N 0.84342 0.31655 0.62949 0.0
N893 N 0.83535 0.23668 0.89757 0.0
C894 C 0.83865 0.29639 0.69196 0.0
C895 C 0.83191 0.25497 0.82514 0.0
N896 N 0.81345 0.32255 0.80609 0.0
N897 N 0.83998 0.22693 0.68527 0.0
H898 H 0.83119 0.23986 0.97435 0.0
H899 H 0.8452 0.21991 0.88265 0.0
H900 H 0.84263 0.22358 0.60756 0.0
H901 H 0.83321 0.21135 0.72618 0.0
H902 H 0.81175 0.33736 0.75402 0.0
H903 H 0.80675 0.32723 0.87804 0.0
H904 H 0.84088 0.33544 0.65063 0.0
H905 H 0.84929 0.31424 0.55431 0.0
C906 C 0.81026 0.68817 0.23025 0.0
C907 C 0.81009 0.7035 0.14154 0.0
C908 C 0.85163 0.72055 0.18496 0.0
C909 C 0.85027 0.70837 0.28244 0.0
N910 N 0.82885 0.6796 0.39645 0.0
N911 N 0.83434 0.72455 0.01381 0.0
C912 C 0.83012 0.69123 0.30344 0.0
C913 C 0.83215 0.71646 0.11243 0.0
N914 N 0.79176 0.67045 0.24318 0.0
N915 N 0.87075 0.73712 0.16291 0.0
H916 H 0.82015 0.72126 0.96002 0.0
H917 H 0.85089 0.73184 0.98272 0.0
H918 H 0.88634 0.74014 0.20948 0.0
H919 H 0.87073 0.74905 0.09965 0.0
H920 H 0.79224 0.65652 0.29935 0.0
H921 H 0.77731 0.66779 0.19044 0.0
H922 H 0.81355 0.66888 0.42093 0.0
H923 H 0.84266 0.68165 0.45243 0.0
C924 C 0.63479 0.50982 0.47097 0.0
C925 C 0.6096 0.51412 0.50537 0.0
C926 C 0.59498 0.47886 0.39748 0.0
C927 C 0.62008 0.47402 0.36563 0.0
N928 N 0.6644 0.47916 0.4028 0.0
N929 N 0.5686 0.49543 0.53215 0.0
C930 C 0.64017 0.48774 0.41175 0.0
C931 C 0.59064 0.49623 0.47848 0.0
N932 N 0.65351 0.52709 0.48895 0.0
N933 N 0.57507 0.4679 0.34796 0.0
H934 H 0.56552 0.50677 0.59632 0.0
H935 H 0.55498 0.4814 0.52095 0.0
H936 H 0.57715 0.45604 0.28489 0.0
H937 H 0.55638 0.47277 0.36301 0.0
H938 H 0.67095 0.52624 0.45245 0.0
H939 H 0.65158 0.54304 0.53468 0.0
H940 H 0.67942 0.48707 0.44325 0.0
H941 H 0.66905 0.46237 0.36495 0.0
C942 C 0.06384 0.51671 0.97044 0.0
C943 C 0.0474 0.51755 0.8848 0.0
C944 C 0.02673 0.47859 0.94499 0.0
C945 C 0.04486 0.4766 0.02498 0.0
N946 N 0.07579 0.49769 0.12984 0.0
N947 N 0.01098 0.50086 0.79713 0.0
C948 C 0.06146 0.49716 0.04317 0.0
C949 C 0.02792 0.49926 0.87534 0.0
N950 N 0.08261 0.53404 0.98418 0.0
N951 N 0.00838 0.46088 0.9309 0.0
H952 H 0.01127 0.51558 0.74382 0.0
H953 H 0.99658 0.48757 0.78672 0.0
H954 H 0.00553 0.44523 0.97816 0.0
H955 H 0.00553 0.44523 0.97816 0.0
H956 H 0.08619 0.54926 0.93539 0.0
H957 H 0.08619 0.54926 0.93539 0.0
H958 H 0.08881 0.5121 0.14503 0.0
H959 H 0.07358 0.48438 0.18821 0.0
C960 C 0.12063 0.05818 0.76307 0.0
C961 C 0.11622 0.08271 0.80379 0.0
C962 C 0.09866 0.0966 0.64108 0.0
C963 C 0.10034 0.07122 0.60377 0.0
N964 N 0.1109 0.02739 0.63039 0.0
N965 N 0.09855 0.12448 0.78847 0.0
C966 C 0.11087 0.05186 0.66517 0.0
C967 C 0.10443 0.10167 0.74471 0.0
N968 N 0.13471 0.04126 0.81736 0.0
N969 N 0.09294 0.11606 0.57621 0.0
H970 H 0.10335 0.12891 0.8636 0.0
H971 H 0.08738 0.13817 0.75304 0.0
H972 H 0.08977 0.11341 0.49872 0.0
H973 H 0.09393 0.13516 0.59673 0.0
H974 H 0.14105 0.02408 0.7875 0.0
H975 H 0.14184 0.04553 0.88948 0.0
H976 H 0.11618 0.01188 0.67476 0.0
H977 H 0.10387 0.02247 0.55866 0.0
C978 C 0.24318 0.76009 0.06005 0.0
C979 C 0.2584 0.77769 0.11281 0.0
C980 C 0.28777 0.77955 0.96876 0.0
C981 C 0.27179 0.76287 0.91345 0.0
N982 N 0.23123 0.7419 0.8986 0.0
N983 N 0.29413 0.80549 0.12102 0.0
C984 C 0.24871 0.75425 0.95707 0.0
C985 C 0.28041 0.78793 0.06783 0.0
N986 N 0.22359 0.74863 0.10961 0.0
N987 N 0.31009 0.78695 0.92629 0.0
H988 H 0.28928 0.81119 0.19465 0.0
H989 H 0.30971 0.8151 0.09236 0.0
H990 H 0.31609 0.78035 0.85531 0.0
H991 H 0.32318 0.7986 0.96225 0.0
H992 H 0.21367 0.73319 0.08008 0.0
H993 H 0.21841 0.75337 0.18395 0.0
H994 H 0.21293 0.73808 0.92288 0.0
H995 H 0.23394 0.73739 0.82244 0.0
C996 C 0.57502 0.94565 0.24341 0.0
C997 C 0.55568 0.9462 0.16912 0.0
C998 C 0.52624 0.92994 0.29875 0.0
C999 C 0.54721 0.92335 0.36143 0.0
N1000 N 0.59232 0.92276 0.38588 0.0
N1001 N 0.51132 0.95377 0.15153 0.0
C1002 C 0.57181 0.93064 0.33154 0.0
C1003 C 0.53056 0.94233 0.2032 0.0
N1004 N 0.59469 0.96223 0.23746 0.0
N1005 N 0.50234 0.9248 0.33118 0.0
H1006 H 0.51486 0.96661 0.0926 0.0
H1007 H 0.49253 0.95333 0.17413 0.0
H1008 H 0.49833 0.91853 0.40468 0.0
H1009 H 0.4865 0.92603 0.28449 0.0
H1010 H 0.60837 0.96378 0.29438 0.0
H1011 H 0.59475 0.97698 0.18424 0.0
H1012 H 0.61074 0.92635 0.36197 0.0
H1013 H 0.59089 0.91046 0.44795 0.0
C1014 C 0.42131 0.24823 0.44557 0.0
C1015 C 0.40503 0.22906 0.40713 0.0
C1016 C 0.41196 0.20369 0.56087 0.0
C1017 C 0.42566 0.22414 0.6039 0.0
N1018 N 0.44188 0.26662 0.59377 0.0
N1019 N 0.38338 0.18939 0.42755 0.0
C1020 C 0.42996 0.24664 0.54788 0.0
C1021 C 0.40004 0.20692 0.46465 0.0
N1022 N 0.4294 0.26724 0.3827 0.0
N1023 N 0.41074 0.18115 0.61206 0.0
H1024 H 0.37423 0.19166 0.35764 0.0
H1025 H 0.37747 0.17346 0.46787 0.0
H1026 H 0.41908 0.17857 0.68339 0.0
H1027 H 0.40318 0.16458 0.58123 0.0
H1028 H 0.44326 0.28033 0.40306 0.0
H1029 H 0.42391 0.26862 0.3066 0.0
H1030 H 0.44325 0.28461 0.56119 0.0
H1031 H 0.44909 0.26551 0.66772 0.0
C1032 C 0.08115 0.93074 0.31675 0.0
C1033 C 0.10039 0.93207 0.39141 0.0
C1034 C 0.13063 0.9168 0.26285 0.0
C1035 C 0.11013 0.90963 0.19882 0.0
N1036 N 0.06521 0.90825 0.16998 0.0
N1037 N 0.14421 0.94248 0.40696 0.0
C1038 C 0.08521 0.91641 0.22688 0.0
C1039 C 0.12566 0.92945 0.35739 0.0
N1040 N 0.06009 0.94537 0.327 0.0
N1041 N 0.15475 0.91182 0.23277 0.0
H1042 H 0.13985 0.95598 0.46259 0.0
H1043 H 0.16295 0.94296 0.38353 0.0
H1044 H 0.15909 0.90461 0.16089 0.0
H1045 H 0.17032 0.91379 0.28062 0.0
H1046 H 0.04603 0.94643 0.27155 0.0
H1047 H 0.05864 0.95891 0.38503 0.0
H1048 H 0.04655 0.91104 0.1923 0.0
H1049 H 0.06732 0.89641 0.10677 0.0
C1050 C 0.39914 0.76635 0.56242 0.0
C1051 C 0.40669 0.78785 0.62007 0.0
C1052 C 0.43389 0.80161 0.47932 0.0
C1053 C 0.42501 0.781 0.42017 0.0
N1054 N 0.39327 0.74881 0.39401 0.0
N1055 N 0.4272 0.82851 0.62715 0.0
C1056 C 0.40574 0.76495 0.45814 0.0
C1057 C 0.4229 0.80631 0.57637 0.0
N1058 N 0.3872 0.74643 0.60839 0.0
N1059 N 0.45326 0.81618 0.44356 0.0
H1060 H 0.41866 0.83246 0.69684 0.0
H1061 H 0.43717 0.84373 0.59637 0.0
H1062 H 0.46145 0.81308 0.37232 0.0
H1063 H 0.46231 0.83004 0.48697 0.0
H1064 H 0.38341 0.72937 0.57098 0.0
H1065 H 0.3837 0.74571 0.68642 0.0
H1066 H 0.37735 0.73857 0.41601 0.0
H1067 H 0.39707 0.74785 0.31624 0.0
C1068 C 0.54129 0.08961 0.82813 0.0
C1069 C 0.55008 0.11261 0.78471 0.0
C1070 C 0.57396 0.12231 0.93962 0.0
C1071 C 0.56579 0.09892 0.98293 0.0
N1072 N 0.54344 0.05947 0.9691 0.0
N1073 N 0.57722 0.149 0.7892 0.0
C1074 C 0.54988 0.08232 0.92705 0.0
C1075 C 0.56709 0.12843 0.83788 0.0
N1076 N 0.52476 0.07496 0.77382 0.0
N1077 N 0.58736 0.13921 0.99726 0.0
H1078 H 0.57184 0.15437 0.71577 0.0
H1079 H 0.59208 0.15975 0.81819 0.0
H1080 H 0.59377 0.13521 0.07031 0.0
H1081 H 0.59095 0.15786 0.97534 0.0
H1082 H 0.51644 0.0584 0.80082 0.0
H1083 H 0.51865 0.07993 0.70083 0.0
H1084 H 0.53262 0.04568 0.9329 0.0
H1085 H 0.55008 0.05372 0.04039 0.0
C1086 C 0.242 0.24218 0.94528 0.0
C1087 C 0.24492 0.21884 0.89253 0.0
C1088 C 0.27103 0.20302 0.03405 0.0
C1089 C 0.26527 0.22513 0.09133 0.0
N1090 N 0.23818 0.2619 0.1101 0.0
N1091 N 0.25892 0.17535 0.89402 0.0
C1092 C 0.24862 0.24358 0.04969 0.0
C1093 C 0.25852 0.19871 0.9392 0.0
N1094 N 0.23445 0.26354 0.89474 0.0
N1095 N 0.28906 0.18665 0.06865 0.0
H1096 H 0.24927 0.17155 0.8263 0.0
H1097 H 0.26672 0.15933 0.92842 0.0
H1098 H 0.29882 0.18972 0.1367 0.0
H1099 H 0.29588 0.17149 0.02563 0.0
H1100 H 0.23416 0.28143 0.92904 0.0
H1101 H 0.23171 0.26406 0.81613 0.0
H1102 H 0.22425 0.27431 0.084 0.0
H1103 H 0.24096 0.26271 0.18856 0.0
C1104 C 0.88706 0.27419 0.05351 0.0
C1105 C 0.90347 0.25936 0.11369 0.0
C1106 C 0.93316 0.25554 0.97123 0.0
C1107 C 0.91765 0.27204 0.91357 0.0
N1108 N 0.87976 0.29689 0.89567 0.0
N1109 N 0.94243 0.2366 0.13594 0.0
C1110 C 0.89446 0.28121 0.95348 0.0
C1111 C 0.9265 0.24991 0.07378 0.0
N1112 N 0.86415 0.28102 0.09247 0.0
N1113 N 0.95435 0.24557 0.92751 0.0
H1114 H 0.93787 0.23188 0.21075 0.0
H1115 H 0.96063 0.23117 0.116 0.0
H1116 H 0.96026 0.25052 0.85438 0.0
H1117 H 0.96544 0.23153 0.96077 0.0
H1118 H 0.85011 0.29022 0.05115 0.0
H1119 H 0.85858 0.27607 0.16611 0.0
H1120 H 0.86489 0.30758 0.92455 0.0
H1121 H 0.88284 0.29978 0.81817 0.0
C1122 C 0.7618 0.7051 0.58586 0.0
C1123 C 0.75027 0.72573 0.6374 0.0
C1124 C 0.7238 0.73388 0.48692 0.0
C1125 C 0.73405 0.71217 0.4391 0.0
N1126 N 0.7586 0.67403 0.44952 0.0
N1127 N 0.7153 0.75531 0.64587 0.0
C1128 C 0.75184 0.69683 0.49065 0.0
C1129 C 0.72995 0.73906 0.59032 0.0
N1130 N 0.78269 0.69392 0.62701 0.0
N1131 N 0.70816 0.74955 0.43316 0.0
H1132 H 0.71801 0.75872 0.72311 0.0
H1133 H 0.69872 0.76337 0.61805 0.0
H1134 H 0.70247 0.74558 0.35865 0.0
H1135 H 0.70235 0.76727 0.45984 0.0
H1136 H 0.79326 0.68012 0.58943 0.0
H1137 H 0.79071 0.70013 0.69534 0.0
H1138 H 0.76952 0.66066 0.48801 0.0
H1139 H 0.75124 0.66761 0.38032 0.0
C1140 C 0.76566 0.26668 0.60425 0.0
C1141 C 0.75256 0.28813 0.64261 0.0
C1142 C 0.76332 0.31167 0.48798 0.0
C1143 C 0.77246 0.28893 0.44339 0.0
N1144 N 0.77752 0.24338 0.45341 0.0
N1145 N 0.73757 0.33083 0.62055 0.0
C1146 C 0.77252 0.26602 0.5001 0.0
C1147 C 0.75114 0.3107 0.58451 0.0
N1148 N 0.77224 0.24729 0.668 0.0
N1149 N 0.76686 0.33418 0.43859 0.0
H1150 H 0.72858 0.33046 0.69126 0.0
H1151 H 0.73376 0.34703 0.57765 0.0
H1152 H 0.77639 0.33523 0.36918 0.0
H1153 H 0.7626 0.35177 0.47069 0.0
H1154 H 0.78383 0.2323 0.6455 0.0
H1155 H 0.76857 0.24769 0.74599 0.0
H1156 H 0.77543 0.22592 0.48991 0.0
H1157 H 0.78103 0.24176 0.37558 0.0
C1158 C 0.91142 0.68939 0.00975 0.0
C1159 C 0.92483 0.70957 0.0568 0.0
C1160 C 0.91754 0.73613 0.90623 0.0
C1161 C 0.903 0.71644 0.86233 0.0
N1162 N 0.8804 0.67735 0.88227 0.0
N1163 N 0.9332 0.75472 0.06242 0.0
C1164 C 0.89813 0.69397 0.91747 0.0
C1165 C 0.92592 0.73373 0.00857 0.0
N1166 N 0.91211 0.66569 0.05181 0.0
N1167 N 0.92346 0.75705 0.84975 0.0
H1168 H 0.93747 0.75423 0.13989 0.0
H1169 H 0.93208 0.77311 0.03339 0.0
H1170 H 0.9169 0.75966 0.77547 0.0
H1171 H 0.93621 0.77083 0.8744 0.0
H1172 H 0.90451 0.64971 0.01623 0.0
H1173 H 0.92239 0.66169 0.11779 0.0
H1174 H 0.87421 0.6617 0.92391 0.0
H1175 H 0.87058 0.68049 0.8144 0.0
C1176 C 0.59202 0.60862 0.17198 0.0
C1177 C 0.60133 0.58919 0.236 0.0
C1178 C 0.59594 0.5577 0.10007 0.0
C1179 C 0.58638 0.57707 0.03646 0.0
N1180 N 0.57165 0.61975 0.01202 0.0
N1181 N 0.60833 0.54484 0.27008 0.0
C1182 C 0.58322 0.60222 0.07291 0.0
C1183 C 0.60205 0.56353 0.20269 0.0
N1184 N 0.5925 0.63321 0.20548 0.0
N1185 N 0.60026 0.53408 0.0603 0.0
H1186 H 0.61341 0.5488 0.345 0.0
H1187 H 0.60685 0.52551 0.25437 0.0
H1188 H 0.59556 0.52933 0.98541 0.0
H1189 H 0.60975 0.51968 0.09888 0.0
H1190 H 0.58815 0.64881 0.1601 0.0
H1191 H 0.59865 0.63811 0.27854 0.0
H1192 H 0.56697 0.63806 0.03518 0.0
H1193 H 0.56512 0.61519 0.93927 0.0
C1194 C 0.0683 0.38758 0.679 0.0
C1195 C 0.04835 0.40024 0.7288 0.0
C1196 C 0.04418 0.42954 0.58461 0.0
C1197 C 0.06285 0.41567 0.53102 0.0
N1198 N 0.08852 0.37772 0.51912 0.0
N1199 N 0.01422 0.43009 0.72456 0.0
C1200 C 0.07391 0.39369 0.57608 0.0
C1201 C 0.03536 0.42035 0.68015 0.0
N1202 N 0.08205 0.36983 0.73085 0.0
N1203 N 0.03542 0.45183 0.54486 0.0
H1204 H 0.00725 0.42308 0.79333 0.0
H1205 H 0.00248 0.44332 0.68941 0.0
H1206 H 0.04191 0.45905 0.4756 0.0
H1207 H 0.02348 0.46413 0.58411 0.0
H1208 H 0.09872 0.36199 0.70302 0.0
H1209 H 0.07773 0.36432 0.80521 0.0
H1210 H 0.09464 0.36004 0.54478 0.0
H1211 H 0.09261 0.38084 0.44278 0.0
C1212 C 0.636 0.37878 0.70467 0.0
C1213 C 0.62849 0.39438 0.62272 0.0
C1214 C 0.61861 0.4283 0.74416 0.0
C1215 C 0.62188 0.41109 0.82571 0.0
N1216 N 0.6251 0.36688 0.87526 0.0
N1217 N 0.60491 0.43167 0.57005 0.0
C1218 C 0.62845 0.38544 0.80429 0.0
C1219 C 0.61784 0.4187 0.6433 0.0
N1220 N 0.65005 0.35749 0.68748 0.0
N1221 N 0.61612 0.45369 0.76271 0.0
H1222 H 0.60112 0.42421 0.49826 0.0
H1223 H 0.59491 0.44825 0.58606 0.0
H1224 H 0.61736 0.46131 0.83602 0.0
H1225 H 0.61552 0.46715 0.70439 0.0
H1226 H 0.65735 0.34648 0.74668 0.0
H1227 H 0.65658 0.35263 0.61501 0.0
H1228 H 0.6279 0.34766 0.85936 0.0
H1229 H 0.61643 0.37031 0.9448 0.0
C1230 C 0.03334 0.59811 0.34023 0.0
C1231 C 0.05245 0.5797 0.36374 0.0
C1232 C 0.06626 0.58071 0.18771 0.0
C1233 C 0.04574 0.59654 0.16193 0.0
N1234 N 0.00658 0.61612 0.20846 0.0
N1235 N 0.08307 0.54951 0.29798 0.0
C1236 C 0.02814 0.60375 0.23666 0.0
C1237 C 0.06705 0.56938 0.28353 0.0
N1238 N 0.02162 0.61189 0.41438 0.0
N1239 N 0.08624 0.5772 0.12454 0.0
H1240 H 0.08407 0.5392 0.36586 0.0
H1241 H 0.08407 0.5392 0.36586 0.0
H1242 H 0.0885 0.58692 0.05584 0.0
H1243 H 0.0885 0.58692 0.05584 0.0
H1244 H 0.01025 0.62758 0.39877 0.0
H1245 H 0.02468 0.60952 0.49141 0.0
H1246 H 0.99214 0.62054 0.25904 0.0
H1247 H 0.00222 0.62005 0.1325 0.0
loop_
_geom_bond_atom_site_label_1
_geom_bond_atom_site_label_2
_geom_bond_distance
_geom_bond_site_symmetry_2
_ccdc_geom_bond_type
C0 C1 1.351 . S
C0 N3 1.368 . S
C0 H5 0.931 . S
C1 C0 1.351 . S
C1 N2 1.373 . S
C1 H29 0.930 . S
N2 C1 1.373 . S
N2 C4 1.340 . S
N3 C0 1.368 . S
N3 C4 1.321 . S
N3 Co6 2.135 . S
C4 N2 1.340 . S
C4 N3 1.321 . S
C4 H28 0.930 . S
H5 C0 0.931 . S
Co6 N3 2.135 . S
Co6 N9 2.121 . S
Co6 O14 2.055 . S
Co6 O17 2.039 . S
Co6 N20 2.140 . S
C7 O8 1.227 . S
C7 O17 1.265 . S
O8 C7 1.227 . S
N9 Co6 2.121 . S
N9 C11 1.375 . S
N9 C12 1.313 . S
C10 C11 1.338 1_556 S
C10 N13 1.377 . S
C10 H30 0.930 . S
C11 N9 1.375 . S
C11 C10 1.338 1_554 S
C11 H15 0.931 . S
C12 N9 1.313 . S
C12 N13 1.344 1_554 S
C12 H16 0.930 . S
N13 C10 1.377 . S
N13 C12 1.344 1_556 S
O14 Co6 2.055 . S
O14 C18 1.253 . S
H15 C11 0.931 . S
H16 C12 0.930 . S
O17 Co6 2.039 . S
O17 C7 1.265 . S
C18 O14 1.253 . S
C18 O19 1.227 . S
O19 C18 1.227 . S
N20 Co6 2.140 . S
N20 C23 1.346 . S
N20 C24 1.345 . S
C21 C22 1.387 . S
C21 C25 1.391 . S
C22 C21 1.387 . S
C22 C23 1.369 . S
C22 H31 0.929 . S
C23 N20 1.346 . S
C23 C22 1.369 . S
C23 H26 0.928 . S
C24 N20 1.345 . S
C24 C25 1.371 . S
C24 H27 0.931 . S
C25 C21 1.391 . S
C25 C24 1.371 . S
C25 H32 0.930 . S
H26 C23 0.928 . S
H27 C24 0.931 . S
H28 C4 0.930 . S
H29 C1 0.930 . S
H30 C10 0.930 . S
H31 C22 0.929 . S
H32 C25 0.930 . S
C33 C34 1.351 . S
C33 N36 1.368 . S
C33 H38 0.931 . S
C34 C33 1.351 . S
C34 N35 1.373 . S
C34 H62 0.930 . S
N35 C34 1.373 . S
N35 C37 1.340 . S
N36 C33 1.368 . S
N36 C37 1.321 . S
N36 Co39 2.135 . S
C37 N35 1.340 . S
C37 N36 1.321 . S
C37 H61 0.930 . S
H38 C33 0.931 . S
Co39 N36 2.135 . S
Co39 N42 2.121 . S
Co39 O47 2.055 . S
Co39 O50 2.039 . S
Co39 N53 2.140 . S
C40 O41 1.227 . S
C40 O50 1.265 . S
O41 C40 1.227 . S
N42 Co39 2.121 . S
N42 C44 1.375 . S
N42 C45 1.313 . S
C43 C44 1.338 . S
C43 N46 1.377 . S
C43 H63 0.930 . S
C44 N42 1.375 . S
C44 C43 1.338 . S
C44 H48 0.931 . S
C45 N42 1.313 . S
C45 N46 1.344 . S
C45 H49 0.930 . S
N46 C43 1.377 . S
N46 C45 1.344 . S
O47 Co39 2.055 . S
O47 C51 1.253 . S
H48 C44 0.931 . S
H49 C45 0.930 . S
O50 Co39 2.039 . S
O50 C40 1.265 . S
C51 O47 1.253 . S
C51 O52 1.227 . S
O52 C51 1.227 . S
N53 Co39 2.140 . S
N53 C56 1.346 . S
N53 C57 1.345 . S
C54 C55 1.387 . S
C54 C58 1.391 . S
C55 C54 1.387 . S
C55 C56 1.369 . S
C55 H64 0.929 . S
C56 N53 1.346 . S
C56 C55 1.369 . S
C56 H59 0.928 . S
C57 N53 1.345 . S
C57 C58 1.371 . S
C57 H60 0.931 . S
C58 C54 1.391 . S
C58 C57 1.371 . S
C58 H65 0.930 . S
H59 C56 0.928 . S
H60 C57 0.931 . S
H61 C37 0.930 . S
H62 C34 0.930 . S
H63 C43 0.930 . S
H64 C55 0.929 . S
H65 C58 0.930 . S
C66 C67 1.351 1_556 S
C66 N69 1.368 . S
C66 H71 0.931 . S
C67 C66 1.351 1_554 S
C67 N68 1.373 . S
C67 H95 0.930 . S
N68 C67 1.373 . S
N68 C70 1.340 . S
N69 C66 1.368 . S
N69 C70 1.321 1_556 S
N69 Co72 2.135 . S
C70 N68 1.340 . S
C70 N69 1.321 1_554 S
C70 H94 0.930 . S
H71 C66 0.931 . S
Co72 N69 2.135 . S
Co72 N75 2.121 . S
Co72 O80 2.055 . S
Co72 O83 2.039 . S
Co72 N86 2.140 . S
C73 O74 1.227 . S
C73 O83 1.265 . S
O74 C73 1.227 . S
N75 Co72 2.121 . S
N75 C77 1.375 . S
N75 C78 1.313 . S
C76 C77 1.338 . S
C76 N79 1.377 . S
C76 H96 0.930 . S
C77 N75 1.375 . S
C77 C76 1.338 . S
C77 H81 0.931 . S
C78 N75 1.313 . S
C78 N79 1.344 . S
C78 H82 0.930 . S
N79 C76 1.377 . S
N79 C78 1.344 . S
O80 Co72 2.055 . S
O80 C84 1.253 . S
H81 C77 0.931 . S
H82 C78 0.930 . S
O83 Co72 2.039 . S
O83 C73 1.265 . S
C84 O80 1.253 . S
C84 O85 1.227 . S
O85 C84 1.227 . S
N86 Co72 2.140 . S
N86 C89 1.346 . S
N86 C90 1.345 . S
C87 C88 1.387 . S
C87 C91 1.391 . S
C88 C87 1.387 . S
C88 C89 1.369 . S
C88 H97 0.929 . S
C89 N86 1.346 . S
C89 C88 1.369 . S
C89 H92 0.928 . S
C90 N86 1.345 . S
C90 C91 1.371 . S
C90 H93 0.931 . S
C91 C87 1.391 . S
C91 C90 1.371 . S
C91 H98 0.930 . S
H92 C89 0.928 . S
H93 C90 0.931 . S
H94 C70 0.930 . S
H95 C67 0.930 . S
H96 C76 0.930 . S
H97 C88 0.929 . S
H98 C91 0.930 . S
C99 C100 1.351 . S
C99 N102 1.368 . S
C99 H104 0.931 . S
C100 C99 1.351 . S
C100 N101 1.373 . S
C100 H128 0.930 . S
N101 C100 1.373 . S
N101 C103 1.340 . S
N102 C99 1.368 . S
N102 C103 1.321 . S
N102 Co105 2.135 1_554 S
C103 N101 1.340 . S
C103 N102 1.321 . S
C103 H127 0.930 . S
H104 C99 0.931 . S
Co105 N102 2.135 1_556 S
Co105 N108 2.121 . S
Co105 O113 2.055 . S
Co105 O116 2.039 1_556 S
Co105 N119 2.140 1_556 S
C106 O107 1.227 . S
C106 O116 1.265 . S
O107 C106 1.227 . S
N108 Co105 2.121 . S
N108 C110 1.375 . S
N108 C111 1.313 . S
C109 C110 1.338 . S
C109 N112 1.377 . S
C109 H129 0.930 . S
C110 N108 1.375 . S
C110 C109 1.338 . S
C110 H114 0.931 . S
C111 N108 1.313 . S
C111 N112 1.344 . S
C111 H115 0.930 . S
N112 C109 1.377 . S
N112 C111 1.344 . S
O113 Co105 2.055 . S
O113 C117 1.253 . S
H114 C110 0.931 . S
H115 C111 0.930 . S
O116 Co105 2.039 1_554 S
O116 C106 1.265 . S
C117 O113 1.253 . S
C117 O118 1.227 . S
O118 C117 1.227 . S
N119 Co105 2.140 1_554 S
N119 C122 1.346 . S
N119 C123 1.345 1_554 S
C120 C121 1.387 . S
C120 C124 1.391 1_554 S
C121 C120 1.387 . S
C121 C122 1.369 . S
C121 H130 0.929 . S
C122 N119 1.346 . S
C122 C121 1.369 . S
C122 H125 0.928 . S
C123 N119 1.345 1_556 S
C123 C124 1.371 . S
C123 H126 0.931 . S
C124 C120 1.391 1_556 S
C124 C123 1.371 . S
C124 H131 0.930 . S
H125 C122 0.928 . S
H126 C123 0.931 . S
H127 C103 0.930 . S
H128 C100 0.930 . S
H129 C109 0.930 . S
H130 C121 0.929 . S
H131 C124 0.930 . S
C132 C133 1.351 . S
C132 N135 1.368 . S
C132 H137 0.931 . S
C133 C132 1.351 . S
C133 N134 1.373 . S
C133 H161 0.930 . S
N134 C133 1.373 . S
N134 C136 1.340 . S
N135 C132 1.368 . S
N135 C136 1.321 . S
N135 Co138 2.135 . S
C136 N134 1.340 . S
C136 N135 1.321 . S
C136 H160 0.930 . S
H137 C132 0.931 . S
Co138 N135 2.135 . S
Co138 N141 2.121 . S
Co138 O146 2.055 . S
Co138 O149 2.039 . S
Co138 N152 2.140 . S
C139 O140 1.227 . S
C139 O149 1.265 . S
O140 C139 1.227 . S
N141 Co138 2.121 . S
N141 C143 1.375 . S
N141 C144 1.313 . S
C142 C143 1.338 1_554 S
C142 N145 1.377 . S
C142 H162 0.930 . S
C143 N141 1.375 . S
C143 C142 1.338 1_556 S
C143 H147 0.931 . S
C144 N141 1.313 . S
C144 N145 1.344 1_556 S
C144 H148 0.930 . S
N145 C142 1.377 . S
N145 C144 1.344 1_554 S
O146 Co138 2.055 . S
O146 C150 1.253 . S
H147 C143 0.931 . S
H148 C144 0.930 . S
O149 Co138 2.039 . S
O149 C139 1.265 . S
C150 O146 1.253 . S
C150 O151 1.227 . S
O151 C150 1.227 . S
N152 Co138 2.140 . S
N152 C155 1.346 . S
N152 C156 1.345 . S
C153 C154 1.387 . S
C153 C157 1.391 . S
C154 C153 1.387 . S
C154 C155 1.369 . S
C154 H163 0.929 . S
C155 N152 1.346 . S
C155 C154 1.369 . S
C155 H158 0.928 . S
C156 N152 1.345 . S
C156 C157 1.371 . S
C156 H159 0.931 . S
C157 C153 1.391 . S
C157 C156 1.371 . S
C157 H164 0.930 . S
H158 C155 0.928 . S
H159 C156 0.931 . S
H160 C136 0.930 . S
H161 C133 0.930 . S
H162 C142 0.930 . S
H163 C154 0.929 . S
H164 C157 0.930 . S
C165 C166 1.351 . S
C165 N168 1.368 . S
C165 H170 0.931 . S
C166 C165 1.351 . S
C166 N167 1.373 . S
C166 H194 0.930 . S
N167 C166 1.373 . S
N167 C169 1.340 . S
N168 C165 1.368 . S
N168 C169 1.321 . S
N168 Co171 2.135 1_556 S
C169 N167 1.340 . S
C169 N168 1.321 . S
C169 H193 0.930 . S
H170 C165 0.931 . S
Co171 N168 2.135 1_554 S
Co171 N174 2.121 . S
Co171 O179 2.055 . S
Co171 O182 2.039 1_554 S
Co171 N185 2.140 1_554 S
C172 O173 1.227 . S
C172 O182 1.265 . S
O173 C172 1.227 . S
N174 Co171 2.121 . S
N174 C176 1.375 . S
N174 C177 1.313 . S
C175 C176 1.338 . S
C175 N178 1.377 . S
C175 H195 0.930 . S
C176 N174 1.375 . S
C176 C175 1.338 . S
C176 H180 0.931 . S
C177 N174 1.313 . S
C177 N178 1.344 . S
C177 H181 0.930 . S
N178 C175 1.377 . S
N178 C177 1.344 . S
O179 Co171 2.055 . S
O179 C183 1.253 . S
H180 C176 0.931 . S
H181 C177 0.930 . S
O182 Co171 2.039 1_556 S
O182 C172 1.265 . S
C183 O179 1.253 . S
C183 O184 1.227 . S
O184 C183 1.227 . S
N185 Co171 2.140 1_556 S
N185 C188 1.346 . S
N185 C189 1.345 1_556 S
C186 C187 1.387 . S
C186 C190 1.391 1_556 S
C187 C186 1.387 . S
C187 C188 1.369 . S
C187 H196 0.929 . S
C188 N185 1.346 . S
C188 C187 1.369 . S
C188 H191 0.928 . S
C189 N185 1.345 1_554 S
C189 C190 1.371 . S
C189 H192 0.931 . S
C190 C186 1.391 1_554 S
C190 C189 1.371 . S
C190 H197 0.930 . S
H191 C188 0.928 . S
H192 C189 0.931 . S
H193 C169 0.930 . S
H194 C166 0.930 . S
H195 C175 0.930 . S
H196 C187 0.929 . S
H197 C190 0.930 . S
C198 C199 1.351 1_554 S
C198 N201 1.368 . S
C198 H203 0.931 . S
C199 C198 1.351 1_556 S
C199 N200 1.373 . S
C199 H227 0.930 . S
N200 C199 1.373 . S
N200 C202 1.340 . S
N201 C198 1.368 . S
N201 C202 1.321 1_554 S
N201 Co204 2.135 . S
C202 N200 1.340 . S
C202 N201 1.321 1_556 S
C202 H226 0.930 . S
H203 C198 0.931 . S
Co204 N201 2.135 . S
Co204 N207 2.121 . S
Co204 O212 2.055 . S
Co204 O215 2.039 . S
Co204 N218 2.140 . S
C205 O206 1.227 . S
C205 O215 1.265 . S
O206 C205 1.227 . S
N207 Co204 2.121 . S
N207 C209 1.375 . S
N207 C210 1.313 . S
C208 C209 1.338 . S
C208 N211 1.377 . S
C208 H228 0.930 . S
C209 N207 1.375 . S
C209 C208 1.338 . S
C209 H213 0.931 . S
C210 N207 1.313 . S
C210 N211 1.344 . S
C210 H214 0.930 . S
N211 C208 1.377 . S
N211 C210 1.344 . S
O212 Co204 2.055 . S
O212 C216 1.253 . S
H213 C209 0.931 . S
H214 C210 0.930 . S
O215 Co204 2.039 . S
O215 C205 1.265 . S
C216 O212 1.253 . S
C216 O217 1.227 . S
O217 C216 1.227 . S
N218 Co204 2.140 . S
N218 C221 1.346 . S
N218 C222 1.345 . S
C219 C220 1.387 . S
C219 C223 1.391 . S
C220 C219 1.387 . S
C220 C221 1.369 . S
C220 H229 0.929 . S
C221 N218 1.346 . S
C221 C220 1.369 . S
C221 H224 0.928 . S
C222 N218 1.345 . S
C222 C223 1.371 . S
C222 H225 0.931 . S
C223 C219 1.391 . S
C223 C222 1.371 . S
C223 H230 0.930 . S
H224 C221 0.928 . S
H225 C222 0.931 . S
H226 C202 0.930 . S
H227 C199 0.930 . S
H228 C208 0.930 . S
H229 C220 0.929 . S
H230 C223 0.930 . S
C231 C232 1.351 . S
C231 N234 1.368 . S
C231 H236 0.931 . S
C232 C231 1.351 . S
C232 N233 1.373 . S
C232 H260 0.930 . S
N233 C232 1.373 . S
N233 C235 1.340 . S
N234 C231 1.368 . S
N234 C235 1.321 . S
N234 Co237 2.135 . S
C235 N233 1.340 . S
C235 N234 1.321 . S
C235 H259 0.930 . S
H236 C231 0.931 . S
Co237 N234 2.135 . S
Co237 N240 2.121 . S
Co237 O245 2.055 . S
Co237 O248 2.039 . S
Co237 N251 2.140 . S
C238 O239 1.227 . S
C238 O248 1.265 . S
O239 C238 1.227 . S
N240 Co237 2.121 . S
N240 C242 1.375 . S
N240 C243 1.313 . S
C241 C242 1.338 . S
C241 N244 1.377 . S
C241 H261 0.930 . S
C242 N240 1.375 . S
C242 C241 1.338 . S
C242 H246 0.931 . S
C243 N240 1.313 . S
C243 N244 1.344 . S
C243 H247 0.930 . S
N244 C241 1.377 . S
N244 C243 1.344 . S
O245 Co237 2.055 . S
O245 C249 1.253 . S
H246 C242 0.931 . S
H247 C243 0.930 . S
O248 Co237 2.039 . S
O248 C238 1.265 . S
C249 O245 1.253 . S
C249 O250 1.227 . S
O250 C249 1.227 . S
N251 Co237 2.140 . S
N251 C254 1.346 . S
N251 C255 1.345 . S
C252 C253 1.387 . S
C252 C256 1.391 . S
C253 C252 1.387 . S
C253 C254 1.369 . S
C253 H262 0.929 . S
C254 N251 1.346 . S
C254 C253 1.369 . S
C254 H257 0.928 . S
C255 N251 1.345 . S
C255 C256 1.371 . S
C255 H258 0.931 . S
C256 C252 1.391 . S
C256 C255 1.371 . S
C256 H263 0.930 . S
H257 C254 0.928 . S
H258 C255 0.931 . S
H259 C235 0.930 . S
H260 C232 0.930 . S
H261 C241 0.930 . S
H262 C253 0.929 . S
H263 C256 0.930 . S
C264 C265 1.351 . S
C264 N267 1.368 . S
C264 H269 0.931 . S
C265 C264 1.351 . S
C265 N266 1.373 . S
C265 H293 0.930 . S
N266 C265 1.373 . S
N266 C268 1.340 . S
N267 C264 1.368 . S
N267 C268 1.321 . S
N267 Co270 2.135 . S
C268 N266 1.340 . S
C268 N267 1.321 . S
C268 H292 0.930 . S
H269 C264 0.931 . S
Co270 N267 2.135 . S
Co270 N273 2.121 . S
Co270 O278 2.055 . S
Co270 O281 2.039 . S
Co270 N284 2.140 . S
C271 O272 1.227 . S
C271 O281 1.265 . S
O272 C271 1.227 . S
N273 Co270 2.121 . S
N273 C275 1.375 . S
N273 C276 1.313 . S
C274 C275 1.338 . S
C274 N277 1.377 . S
C274 H294 0.930 . S
C275 N273 1.375 . S
C275 C274 1.338 . S
C275 H279 0.931 . S
C276 N273 1.313 . S
C276 N277 1.344 . S
C276 H280 0.930 . S
N277 C274 1.377 . S
N277 C276 1.344 . S
O278 Co270 2.055 . S
O278 C282 1.253 . S
H279 C275 0.931 . S
H280 C276 0.930 . S
O281 Co270 2.039 . S
O281 C271 1.265 . S
C282 O278 1.253 . S
C282 O283 1.227 . S
O283 C282 1.227 . S
N284 Co270 2.140 . S
N284 C287 1.346 . S
N284 C288 1.345 . S
C285 C286 1.387 . S
C285 C289 1.391 . S
C286 C285 1.387 . S
C286 C287 1.369 . S
C286 H295 0.929 . S
C287 N284 1.346 . S
C287 C286 1.369 . S
C287 H290 0.928 . S
C288 N284 1.345 . S
C288 C289 1.371 . S
C288 H291 0.931 . S
C289 C285 1.391 . S
C289 C288 1.371 . S
C289 H296 0.930 . S
H290 C287 0.928 . S
H291 C288 0.931 . S
H292 C268 0.930 . S
H293 C265 0.930 . S
H294 C274 0.930 . S
H295 C286 0.929 . S
H296 C289 0.930 . S
C297 C298 1.351 . S
C297 N300 1.368 . S
C297 H302 0.931 . S
C298 C297 1.351 . S
C298 N299 1.373 . S
C298 H326 0.930 . S
N299 C298 1.373 . S
N299 C301 1.340 . S
N300 C297 1.368 . S
N300 C301 1.321 . S
N300 Co303 2.135 1_556 S
C301 N299 1.340 . S
C301 N300 1.321 . S
C301 H325 0.930 . S
H302 C297 0.931 . S
Co303 N300 2.135 1_554 S
Co303 N306 2.121 . S
Co303 O311 2.055 . S
Co303 O314 2.039 1_554 S
Co303 N317 2.140 1_554 S
C304 O305 1.227 . S
C304 O314 1.265 . S
O305 C304 1.227 . S
N306 Co303 2.121 . S
N306 C308 1.375 . S
N306 C309 1.313 . S
C307 C308 1.338 . S
C307 N310 1.377 . S
C307 H327 0.930 . S
C308 N306 1.375 . S
C308 C307 1.338 . S
C308 H312 0.931 . S
C309 N306 1.313 . S
C309 N310 1.344 . S
C309 H313 0.930 . S
N310 C307 1.377 . S
N310 C309 1.344 . S
O311 Co303 2.055 . S
O311 C315 1.253 . S
H312 C308 0.931 . S
H313 C309 0.930 . S
O314 Co303 2.039 1_556 S
O314 C304 1.265 . S
C315 O311 1.253 . S
C315 O316 1.227 . S
O316 C315 1.227 . S
N317 Co303 2.140 1_556 S
N317 C320 1.346 . S
N317 C321 1.345 1_556 S
C318 C319 1.387 . S
C318 C322 1.391 1_556 S
C319 C318 1.387 . S
C319 C320 1.369 . S
C319 H328 0.929 . S
C320 N317 1.346 . S
C320 C319 1.369 . S
C320 H323 0.928 . S
C321 N317 1.345 1_554 S
C321 C322 1.371 . S
C321 H324 0.931 . S
C322 C318 1.391 1_554 S
C322 C321 1.371 . S
C322 H329 0.930 . S
H323 C320 0.928 . S
H324 C321 0.931 . S
H325 C301 0.930 . S
H326 C298 0.930 . S
H327 C307 0.930 . S
H328 C319 0.929 . S
H329 C322 0.930 . S
C330 C331 1.351 . S
C330 N333 1.368 . S
C330 H335 0.931 . S
C331 C330 1.351 . S
C331 N332 1.373 . S
C331 H359 0.930 . S
N332 C331 1.373 . S
N332 C334 1.340 . S
N333 C330 1.368 . S
N333 C334 1.321 . S
N333 Co336 2.135 1_554 S
C334 N332 1.340 . S
C334 N333 1.321 . S
C334 H358 0.930 . S
H335 C330 0.931 . S
Co336 N333 2.135 1_556 S
Co336 N339 2.121 . S
Co336 O344 2.055 . S
Co336 O347 2.039 1_556 S
Co336 N350 2.140 1_556 S
C337 O338 1.227 . S
C337 O347 1.265 . S
O338 C337 1.227 . S
N339 Co336 2.121 . S
N339 C341 1.375 . S
N339 C342 1.313 . S
C340 C341 1.338 . S
C340 N343 1.377 . S
C340 H360 0.930 . S
C341 N339 1.375 . S
C341 C340 1.338 . S
C341 H345 0.931 . S
C342 N339 1.313 . S
C342 N343 1.344 . S
C342 H346 0.930 . S
N343 C340 1.377 . S
N343 C342 1.344 . S
O344 Co336 2.055 . S
O344 C348 1.253 . S
H345 C341 0.931 . S
H346 C342 0.930 . S
O347 Co336 2.039 1_554 S
O347 C337 1.265 . S
C348 O344 1.253 . S
C348 O349 1.227 . S
O349 C348 1.227 . S
N350 Co336 2.140 1_554 S
N350 C353 1.346 . S
N350 C354 1.345 1_554 S
C351 C352 1.387 . S
C351 C355 1.391 1_554 S
C352 C351 1.387 . S
C352 C353 1.369 . S
C352 H361 0.929 . S
C353 N350 1.346 . S
C353 C352 1.369 . S
C353 H356 0.928 . S
C354 N350 1.345 1_556 S
C354 C355 1.371 . S
C354 H357 0.931 . S
C355 C351 1.391 1_556 S
C355 C354 1.371 . S
C355 H362 0.930 . S
H356 C353 0.928 . S
H357 C354 0.931 . S
H358 C334 0.930 . S
H359 C331 0.930 . S
H360 C340 0.930 . S
H361 C352 0.929 . S
H362 C355 0.930 . S
C363 C364 1.351 . S
C363 N366 1.368 . S
C363 H368 0.931 . S
C364 C363 1.351 . S
C364 N365 1.373 . S
C364 H392 0.930 . S
N365 C364 1.373 . S
N365 C367 1.340 . S
N366 C363 1.368 . S
N366 C367 1.321 . S
N366 Co369 2.135 . S
C367 N365 1.340 . S
C367 N366 1.321 . S
C367 H391 0.930 . S
H368 C363 0.931 . S
Co369 N366 2.135 . S
Co369 N372 2.121 . S
Co369 O377 2.055 . S
Co369 O380 2.039 . S
Co369 N383 2.140 . S
C370 O371 1.227 . S
C370 O380 1.265 . S
O371 C370 1.227 . S
N372 Co369 2.121 . S
N372 C374 1.375 . S
N372 C375 1.313 . S
C373 C374 1.338 . S
C373 N376 1.377 . S
C373 H393 0.930 . S
C374 N372 1.375 . S
C374 C373 1.338 . S
C374 H378 0.931 . S
C375 N372 1.313 . S
C375 N376 1.344 . S
C375 H379 0.930 . S
N376 C373 1.377 . S
N376 C375 1.344 . S
O377 Co369 2.055 . S
O377 C381 1.253 . S
H378 C374 0.931 . S
H379 C375 0.930 . S
O380 Co369 2.039 . S
O380 C370 1.265 . S
C381 O377 1.253 . S
C381 O382 1.227 . S
O382 C381 1.227 . S
N383 Co369 2.140 . S
N383 C386 1.346 . S
N383 C387 1.345 . S
C384 C385 1.387 . S
C384 C388 1.391 . S
C385 C384 1.387 . S
C385 C386 1.369 . S
C385 H394 0.929 . S
C386 N383 1.346 . S
C386 C385 1.369 . S
C386 H389 0.928 . S
C387 N383 1.345 . S
C387 C388 1.371 . S
C387 H390 0.931 . S
C388 C384 1.391 . S
C388 C387 1.371 . S
C388 H395 0.930 . S
H389 C386 0.928 . S
H390 C387 0.931 . S
H391 C367 0.930 . S
H392 C364 0.930 . S
H393 C373 0.930 . S
H394 C385 0.929 . S
H395 C388 0.930 . S
C396 C397 1.351 1_556 S
C396 N399 1.368 . S
C396 H401 0.931 . S
C397 C396 1.351 1_554 S
C397 N398 1.373 . S
C397 H425 0.930 . S
N398 C397 1.373 . S
N398 C400 1.340 . S
N399 C396 1.368 . S
N399 C400 1.321 1_556 S
N399 Co402 2.135 . S
C400 N398 1.340 . S
C400 N399 1.321 1_554 S
C400 H424 0.930 . S
H401 C396 0.931 . S
Co402 N399 2.135 . S
Co402 N405 2.121 . S
Co402 O410 2.055 . S
Co402 O413 2.039 . S
Co402 N416 2.140 . S
C403 O404 1.227 . S
C403 O413 1.265 . S
O404 C403 1.227 . S
N405 Co402 2.121 . S
N405 C407 1.375 . S
N405 C408 1.313 . S
C406 C407 1.338 . S
C406 N409 1.377 . S
C406 H426 0.930 . S
C407 N405 1.375 . S
C407 C406 1.338 . S
C407 H411 0.931 . S
C408 N405 1.313 . S
C408 N409 1.344 . S
C408 H412 0.930 . S
N409 C406 1.377 . S
N409 C408 1.344 . S
O410 Co402 2.055 . S
O410 C414 1.253 . S
H411 C407 0.931 . S
H412 C408 0.930 . S
O413 Co402 2.039 . S
O413 C403 1.265 . S
C414 O410 1.253 . S
C414 O415 1.227 . S
O415 C414 1.227 . S
N416 Co402 2.140 . S
N416 C419 1.346 . S
N416 C420 1.345 . S
C417 C418 1.387 . S
C417 C421 1.391 . S
C418 C417 1.387 . S
C418 C419 1.369 . S
C418 H427 0.929 . S
C419 N416 1.346 . S
C419 C418 1.369 . S
C419 H422 0.928 . S
C420 N416 1.345 . S
C420 C421 1.371 . S
C420 H423 0.931 . S
C421 C417 1.391 . S
C421 C420 1.371 . S
C421 H428 0.930 . S
H422 C419 0.928 . S
H423 C420 0.931 . S
H424 C400 0.930 . S
H425 C397 0.930 . S
H426 C406 0.930 . S
H427 C418 0.929 . S
H428 C421 0.930 . S
C429 C430 1.351 . S
C429 N432 1.368 . S
C429 H434 0.931 . S
C430 C429 1.351 . S
C430 N431 1.373 . S
C430 H458 0.930 . S
N431 C430 1.373 . S
N431 C433 1.340 . S
N432 C429 1.368 . S
N432 C433 1.321 . S
N432 Co435 2.135 . S
C433 N431 1.340 . S
C433 N432 1.321 . S
C433 H457 0.930 . S
H434 C429 0.931 . S
Co435 N432 2.135 . S
Co435 N438 2.121 . S
Co435 O443 2.055 . S
Co435 O446 2.039 . S
Co435 N449 2.140 . S
C436 O437 1.227 . S
C436 O446 1.265 . S
O437 C436 1.227 . S
N438 Co435 2.121 . S
N438 C440 1.375 . S
N438 C441 1.313 . S
C439 C440 1.338 1_556 S
C439 N442 1.377 . S
C439 H459 0.930 . S
C440 N438 1.375 . S
C440 C439 1.338 1_554 S
C440 H444 0.931 . S
C441 N438 1.313 . S
C441 N442 1.344 1_554 S
C441 H445 0.930 . S
N442 C439 1.377 . S
N442 C441 1.344 1_556 S
O443 Co435 2.055 . S
O443 C447 1.253 . S
H444 C440 0.931 . S
H445 C441 0.930 . S
O446 Co435 2.039 . S
O446 C436 1.265 . S
C447 O443 1.253 . S
C447 O448 1.227 . S
O448 C447 1.227 . S
N449 Co435 2.140 . S
N449 C452 1.346 . S
N449 C453 1.345 . S
C450 C451 1.387 . S
C450 C454 1.391 . S
C451 C450 1.387 . S
C451 C452 1.369 . S
C451 H460 0.929 . S
C452 N449 1.346 . S
C452 C451 1.369 . S
C452 H455 0.928 . S
C453 N449 1.345 . S
C453 C454 1.371 . S
C453 H456 0.931 . S
C454 C450 1.391 . S
C454 C453 1.371 . S
C454 H461 0.930 . S
H455 C452 0.928 . S
H456 C453 0.931 . S
H457 C433 0.930 . S
H458 C430 0.930 . S
H459 C439 0.930 . S
H460 C451 0.929 . S
H461 C454 0.930 . S
C462 C463 1.351 1_554 S
C462 N465 1.368 . S
C462 H467 0.931 . S
C463 C462 1.351 1_556 S
C463 N464 1.373 . S
C463 H491 0.930 . S
N464 C463 1.373 . S
N464 C466 1.340 . S
N465 C462 1.368 . S
N465 C466 1.321 1_554 S
N465 Co468 2.135 . S
C466 N464 1.340 . S
C466 N465 1.321 1_556 S
C466 H490 0.930 . S
H467 C462 0.931 . S
Co468 N465 2.135 . S
Co468 N471 2.121 . S
Co468 O476 2.055 . S
Co468 O479 2.039 . S
Co468 N482 2.140 . S
C469 O470 1.227 . S
C469 O479 1.265 . S
O470 C469 1.227 . S
N471 Co468 2.121 . S
N471 C473 1.375 . S
N471 C474 1.313 . S
C472 C473 1.338 . S
C472 N475 1.377 . S
C472 H492 0.930 . S
C473 N471 1.375 . S
C473 C472 1.338 . S
C473 H477 0.931 . S
C474 N471 1.313 . S
C474 N475 1.344 . S
C474 H478 0.930 . S
N475 C472 1.377 . S
N475 C474 1.344 . S
O476 Co468 2.055 . S
O476 C480 1.253 . S
H477 C473 0.931 . S
H478 C474 0.930 . S
O479 Co468 2.039 . S
O479 C469 1.265 . S
C480 O476 1.253 . S
C480 O481 1.227 . S
O481 C480 1.227 . S
N482 Co468 2.140 . S
N482 C485 1.346 . S
N482 C486 1.345 . S
C483 C484 1.387 . S
C483 C487 1.391 . S
C484 C483 1.387 . S
C484 C485 1.369 . S
C484 H493 0.929 . S
C485 N482 1.346 . S
C485 C484 1.369 . S
C485 H488 0.928 . S
C486 N482 1.345 . S
C486 C487 1.371 . S
C486 H489 0.931 . S
C487 C483 1.391 . S
C487 C486 1.371 . S
C487 H494 0.930 . S
H488 C485 0.928 . S
H489 C486 0.931 . S
H490 C466 0.930 . S
H491 C463 0.930 . S
H492 C472 0.930 . S
H493 C484 0.929 . S
H494 C487 0.930 . S
C495 C496 1.351 . S
C495 N498 1.368 . S
C495 H500 0.931 . S
C496 C495 1.351 . S
C496 N497 1.373 . S
C496 H524 0.930 . S
N497 C496 1.373 . S
N497 C499 1.340 . S
N498 C495 1.368 . S
N498 C499 1.321 . S
N498 Co501 2.135 . S
C499 N497 1.340 . S
C499 N498 1.321 . S
C499 H523 0.930 . S
H500 C495 0.931 . S
Co501 N498 2.135 . S
Co501 N504 2.121 . S
Co501 O509 2.055 . S
Co501 O512 2.039 . S
Co501 N515 2.140 . S
C502 O503 1.227 . S
C502 O512 1.265 . S
O503 C502 1.227 . S
N504 Co501 2.121 . S
N504 C506 1.375 . S
N504 C507 1.313 . S
C505 C506 1.338 1_554 S
C505 N508 1.377 . S
C505 H525 0.930 . S
C506 N504 1.375 . S
C506 C505 1.338 1_556 S
C506 H510 0.931 . S
C507 N504 1.313 . S
C507 N508 1.344 1_556 S
C507 H511 0.930 . S
N508 C505 1.377 . S
N508 C507 1.344 1_554 S
O509 Co501 2.055 . S
O509 C513 1.253 . S
H510 C506 0.931 . S
H511 C507 0.930 . S
O512 Co501 2.039 . S
O512 C502 1.265 . S
C513 O509 1.253 . S
C513 O514 1.227 . S
O514 C513 1.227 . S
N515 Co501 2.140 . S
N515 C518 1.346 . S
N515 C519 1.345 . S
C516 C517 1.387 . S
C516 C520 1.391 . S
C517 C516 1.387 . S
C517 C518 1.369 . S
C517 H526 0.929 . S
C518 N515 1.346 . S
C518 C517 1.369 . S
C518 H521 0.928 . S
C519 N515 1.345 . S
C519 C520 1.371 . S
C519 H522 0.931 . S
C520 C516 1.391 . S
C520 C519 1.371 . S
C520 H527 0.930 . S
H521 C518 0.928 . S
H522 C519 0.931 . S
H523 C499 0.930 . S
H524 C496 0.930 . S
H525 C505 0.930 . S
H526 C517 0.929 . S
H527 C520 0.930 . S
C528 C529 1.363 . S
C528 C534 1.379 . S
C528 N536 1.356 . S
C529 C528 1.363 . S
C529 C535 1.363 . S
C530 C531 1.363 . S
C530 C535 1.379 . S
C530 N537 1.356 . S
C531 C530 1.363 . S
C531 C534 1.363 . S
N532 C534 1.356 . S
N532 H544 0.984 . S
N532 H545 0.985 . S
N533 C535 1.356 . S
N533 H538 0.984 . S
N533 H539 0.985 . S
C534 C528 1.379 . S
C534 C531 1.363 . S
C534 N532 1.356 . S
C535 C529 1.363 . S
C535 C530 1.379 . S
C535 N533 1.356 . S
N536 C528 1.356 . S
N536 H542 0.984 . S
N536 H543 0.984 . S
N537 C530 1.356 . S
N537 H540 0.984 . S
N537 H541 0.985 . S
H538 N533 0.984 . S
H539 N533 0.985 . S
H540 N537 0.984 . S
H541 N537 0.985 . S
H542 N536 0.984 . S
H543 N536 0.984 . S
H544 N532 0.984 . S
H545 N532 0.985 . S
C546 C547 1.363 . S
C546 C552 1.379 . S
C546 N554 1.356 . S
C547 C546 1.363 . S
C547 C553 1.363 . S
C548 C549 1.363 . S
C548 C553 1.379 . S
C548 N555 1.356 . S
C549 C548 1.363 . S
C549 C552 1.363 . S
N550 C552 1.356 . S
N550 H562 0.984 . S
N550 H563 0.985 . S
N551 C553 1.356 . S
N551 H556 0.984 . S
N551 H557 0.985 . S
C552 C546 1.379 . S
C552 C549 1.363 . S
C552 N550 1.356 . S
C553 C547 1.363 . S
C553 C548 1.379 . S
C553 N551 1.356 . S
N554 C546 1.356 . S
N554 H560 0.984 . S
N554 H561 0.984 . S
N555 C548 1.356 . S
N555 H558 0.984 . S
N555 H559 0.985 . S
H556 N551 0.984 . S
H557 N551 0.985 . S
H558 N555 0.984 . S
H559 N555 0.985 . S
H560 N554 0.984 . S
H561 N554 0.984 . S
H562 N550 0.984 . S
H563 N550 0.985 . S
C564 C565 1.363 . S
C564 C570 1.379 . S
C564 N572 1.356 . S
C565 C564 1.363 . S
C565 C571 1.363 . S
C566 C567 1.363 . S
C566 C571 1.379 . S
C566 N573 1.356 . S
C567 C566 1.363 . S
C567 C570 1.363 . S
N568 C570 1.356 1_554 S
N568 H580 0.984 . S
N568 H581 0.985 . S
N569 C571 1.356 . S
N569 H574 0.984 . S
N569 H575 0.985 . S
C570 C564 1.379 . S
C570 C567 1.363 . S
C570 N568 1.356 1_556 S
C571 C565 1.363 . S
C571 C566 1.379 . S
C571 N569 1.356 . S
N572 C564 1.356 . S
N572 H578 0.984 1_556 S
N572 H579 0.984 . S
N573 C566 1.356 . S
N573 H576 0.984 . S
N573 H577 0.985 . S
H574 N569 0.984 . S
H575 N569 0.985 . S
H576 N573 0.984 . S
H577 N573 0.985 . S
H578 N572 0.984 1_554 S
H579 N572 0.984 . S
H580 N568 0.984 . S
H581 N568 0.985 . S
C582 C583 1.363 . S
C582 C588 1.379 . S
C582 N590 1.356 . S
C583 C582 1.363 . S
C583 C589 1.363 . S
C584 C585 1.363 . S
C584 C589 1.379 . S
C584 N591 1.356 1_554 S
C585 C584 1.363 . S
C585 C588 1.363 . S
N586 C588 1.356 . S
N586 H598 0.984 . S
N586 H599 0.985 . S
N587 C589 1.356 1_556 S
N587 H592 0.984 1_556 S
N587 H593 0.985 . S
C588 C582 1.379 . S
C588 C585 1.363 . S
C588 N586 1.356 . S
C589 C583 1.363 . S
C589 C584 1.379 . S
C589 N587 1.356 1_554 S
N590 C582 1.356 . S
N590 H596 0.984 . S
N590 H597 0.984 . S
N591 C584 1.356 1_556 S
N591 H594 0.984 . S
N591 H595 0.985 . S
H592 N587 0.984 1_554 S
H593 N587 0.985 . S
H594 N591 0.984 . S
H595 N591 0.985 . S
H596 N590 0.984 . S
H597 N590 0.984 . S
H598 N586 0.984 . S
H599 N586 0.985 . S
C600 C601 1.363 . S
C600 C606 1.379 1_655 S
C600 N608 1.356 . S
C601 C600 1.363 . S
C601 C607 1.363 . S
C602 C603 1.363 1_655 S
C602 C607 1.379 . S
C602 N609 1.356 . S
C603 C602 1.363 1_455 S
C603 C606 1.363 . S
N604 C606 1.356 . S
N604 H616 0.984 . S
N604 H617 0.985 . S
N605 C607 1.356 . S
N605 H610 0.984 . S
N605 H611 0.985 . S
C606 C600 1.379 1_455 S
C606 C603 1.363 . S
C606 N604 1.356 . S
C607 C601 1.363 . S
C607 C602 1.379 . S
C607 N605 1.356 . S
N608 C600 1.356 . S
N608 H614 0.984 1_655 S
N608 H615 0.984 . S
N609 C602 1.356 . S
N609 H612 0.984 1_655 S
N609 H613 0.985 . S
H610 N605 0.984 . S
H611 N605 0.985 . S
H612 N609 0.984 1_455 S
H613 N609 0.985 . S
H614 N608 0.984 1_455 S
H615 N608 0.984 . S
H616 N604 0.984 . S
H617 N604 0.985 . S
C618 C619 1.363 . S
C618 C624 1.379 . S
C618 N626 1.356 . S
C619 C618 1.363 . S
C619 C625 1.363 . S
C620 C621 1.363 . S
C620 C625 1.379 1_455 S
C620 N627 1.356 . S
C621 C620 1.363 . S
C621 C624 1.363 1_455 S
N622 C624 1.356 . S
N622 H634 0.984 . S
N622 H635 0.985 1_655 S
N623 C625 1.356 . S
N623 H628 0.984 . S
N623 H629 0.985 1_655 S
C624 C618 1.379 . S
C624 C621 1.363 1_655 S
C624 N622 1.356 . S
C625 C619 1.363 . S
C625 C620 1.379 1_655 S
C625 N623 1.356 . S
N626 C618 1.356 . S
N626 H632 0.984 . S
N626 H633 0.984 . S
N627 C620 1.356 . S
N627 H630 0.984 . S
N627 H631 0.985 . S
H628 N623 0.984 . S
H629 N623 0.985 1_455 S
H630 N627 0.984 . S
H631 N627 0.985 . S
H632 N626 0.984 . S
H633 N626 0.984 . S
H634 N622 0.984 . S
H635 N622 0.985 1_455 S
C636 C637 1.363 . S
C636 C642 1.379 . S
C636 N644 1.356 . S
C637 C636 1.363 . S
C637 C643 1.363 . S
C638 C639 1.363 . S
C638 C643 1.379 . S
C638 N645 1.356 1_554 S
C639 C638 1.363 . S
C639 C642 1.363 . S
N640 C642 1.356 . S
N640 H652 0.984 . S
N640 H653 0.985 . S
N641 C643 1.356 . S
N641 H646 0.984 . S
N641 H647 0.985 1_554 S
C642 C636 1.379 . S
C642 C639 1.363 . S
C642 N640 1.356 . S
C643 C637 1.363 . S
C643 C638 1.379 . S
C643 N641 1.356 . S
N644 C636 1.356 . S
N644 H650 0.984 . S
N644 H651 0.984 . S
N645 C638 1.356 1_556 S
N645 H648 0.984 . S
N645 H649 0.985 . S
H646 N641 0.984 . S
H647 N641 0.985 1_556 S
H648 N645 0.984 . S
H649 N645 0.985 . S
H650 N644 0.984 . S
H651 N644 0.984 . S
H652 N640 0.984 . S
H653 N640 0.985 . S
C654 C655 1.363 . S
C654 C660 1.379 . S
C654 N662 1.356 . S
C655 C654 1.363 . S
C655 C661 1.363 . S
C656 C657 1.363 . S
C656 C661 1.379 . S
C656 N663 1.356 1_556 S
C657 C656 1.363 . S
C657 C660 1.363 . S
N658 C660 1.356 . S
N658 H670 0.984 . S
N658 H671 0.985 . S
N659 C661 1.356 . S
N659 H664 0.984 . S
N659 H665 0.985 . S
C660 C654 1.379 . S
C660 C657 1.363 . S
C660 N658 1.356 . S
C661 C655 1.363 . S
C661 C656 1.379 . S
C661 N659 1.356 . S
N662 C654 1.356 . S
N662 H668 0.984 . S
N662 H669 0.984 . S
N663 C656 1.356 1_554 S
N663 H666 0.984 . S
N663 H667 0.985 . S
H664 N659 0.984 . S
H665 N659 0.985 . S
H666 N663 0.984 . S
H667 N663 0.985 . S
H668 N662 0.984 . S
H669 N662 0.984 . S
H670 N658 0.984 . S
H671 N658 0.985 . S
C672 C673 1.363 . S
C672 C678 1.379 . S
C672 N680 1.356 1_556 S
C673 C672 1.363 . S
C673 C679 1.363 . S
C674 C675 1.363 . S
C674 C679 1.379 . S
C674 N681 1.356 . S
C675 C674 1.363 . S
C675 C678 1.363 . S
N676 C678 1.356 . S
N676 H688 0.984 1_556 S
N676 H689 0.985 . S
N677 C679 1.356 . S
N677 H682 0.984 . S
N677 H683 0.985 . S
C678 C672 1.379 . S
C678 C675 1.363 . S
C678 N676 1.356 . S
C679 C673 1.363 . S
C679 C674 1.379 . S
C679 N677 1.356 . S
N680 C672 1.356 1_554 S
N680 H686 0.984 . S
N680 H687 0.984 . S
N681 C674 1.356 . S
N681 H684 0.984 . S
N681 H685 0.985 . S
H682 N677 0.984 . S
H683 N677 0.985 . S
H684 N681 0.984 . S
H685 N681 0.985 . S
H686 N680 0.984 . S
H687 N680 0.984 . S
H688 N676 0.984 1_554 S
H689 N676 0.985 . S
C690 C691 1.363 . S
C690 C696 1.379 . S
C690 N698 1.356 . S
C691 C690 1.363 . S
C691 C697 1.363 . S
C692 C693 1.363 . S
C692 C697 1.379 . S
C692 N699 1.356 . S
C693 C692 1.363 . S
C693 C696 1.363 . S
N694 C696 1.356 1_556 S
N694 H706 0.984 . S
N694 H707 0.985 . S
N695 C697 1.356 . S
N695 H700 0.984 . S
N695 H701 0.985 . S
C696 C690 1.379 . S
C696 C693 1.363 . S
C696 N694 1.356 1_554 S
C697 C691 1.363 . S
C697 C692 1.379 . S
C697 N695 1.356 . S
N698 C690 1.356 . S
N698 H704 0.984 1_554 S
N698 H705 0.984 . S
N699 C692 1.356 . S
N699 H702 0.984 . S
N699 H703 0.985 . S
H700 N695 0.984 . S
H701 N695 0.985 . S
H702 N699 0.984 . S
H703 N699 0.985 . S
H704 N698 0.984 1_556 S
H705 N698 0.984 . S
H706 N694 0.984 . S
H707 N694 0.985 . S
C708 C709 1.363 . S
C708 C714 1.379 . S
C708 N716 1.356 . S
C709 C708 1.363 . S
C709 C715 1.363 . S
C710 C711 1.363 . S
C710 C715 1.379 . S
C710 N717 1.356 . S
C711 C710 1.363 . S
C711 C714 1.363 . S
N712 C714 1.356 . S
N712 H724 0.984 . S
N712 H725 0.985 . S
N713 C715 1.356 1_455 S
N713 H718 0.984 . S
N713 H719 0.985 . S
C714 C708 1.379 . S
C714 C711 1.363 . S
C714 N712 1.356 . S
C715 C709 1.363 . S
C715 C710 1.379 . S
C715 N713 1.356 1_655 S
N716 C708 1.356 . S
N716 H722 0.984 . S
N716 H723 0.984 1_655 S
N717 C710 1.356 . S
N717 H720 0.984 . S
N717 H721 0.985 . S
H718 N713 0.984 . S
H719 N713 0.985 . S
H720 N717 0.984 . S
H721 N717 0.985 . S
H722 N716 0.984 . S
H723 N716 0.984 1_455 S
H724 N712 0.984 . S
H725 N712 0.985 . S
C726 C727 1.363 . S
C726 C732 1.379 . S
C726 N734 1.356 . S
C727 C726 1.363 . S
C727 C733 1.363 . S
C728 C729 1.363 . S
C728 C733 1.379 . S
C728 N735 1.356 . S
C729 C728 1.363 . S
C729 C732 1.363 . S
N730 C732 1.356 1_455 S
N730 H742 0.984 . S
N730 H743 0.985 . S
N731 C733 1.356 . S
N731 H736 0.984 . S
N731 H737 0.985 . S
C732 C726 1.379 . S
C732 C729 1.363 . S
C732 N730 1.356 1_655 S
C733 C727 1.363 . S
C733 C728 1.379 . S
C733 N731 1.356 . S
N734 C726 1.356 . S
N734 H740 0.984 . S
N734 H741 0.984 . S
N735 C728 1.356 . S
N735 H738 0.984 1_655 S
N735 H739 0.985 . S
H736 N731 0.984 . S
H737 N731 0.985 . S
H738 N735 0.984 1_455 S
H739 N735 0.985 . S
H740 N734 0.984 . S
H741 N734 0.984 . S
H742 N730 0.984 . S
H743 N730 0.985 . S
C744 C745 1.363 . S
C744 C750 1.379 . S
C744 N752 1.356 . S
C745 C744 1.363 . S
C745 C751 1.363 . S
C746 C747 1.363 . S
C746 C751 1.379 . S
C746 N753 1.356 . S
C747 C746 1.363 . S
C747 C750 1.363 . S
N748 C750 1.356 . S
N748 H760 0.984 . S
N748 H761 0.985 . S
N749 C751 1.356 1_556 S
N749 H754 0.984 . S
N749 H755 0.985 . S
C750 C744 1.379 . S
C750 C747 1.363 . S
C750 N748 1.356 . S
C751 C745 1.363 . S
C751 C746 1.379 . S
C751 N749 1.356 1_554 S
N752 C744 1.356 . S
N752 H758 0.984 . S
N752 H759 0.984 . S
N753 C746 1.356 . S
N753 H756 0.984 . S
N753 H757 0.985 1_554 S
H754 N749 0.984 . S
H755 N749 0.985 . S
H756 N753 0.984 . S
H757 N753 0.985 1_556 S
H758 N752 0.984 . S
H759 N752 0.984 . S
H760 N748 0.984 . S
H761 N748 0.985 . S
C762 C763 1.363 . S
C762 C768 1.379 . S
C762 N770 1.356 . S
C763 C762 1.363 . S
C763 C769 1.363 . S
C764 C765 1.363 . S
C764 C769 1.379 . S
C764 N771 1.356 . S
C765 C764 1.363 . S
C765 C768 1.363 . S
N766 C768 1.356 . S
N766 H778 0.984 . S
N766 H779 0.985 . S
N767 C769 1.356 1_554 S
N767 H772 0.984 . S
N767 H773 0.985 . S
C768 C762 1.379 . S
C768 C765 1.363 . S
C768 N766 1.356 . S
C769 C763 1.363 . S
C769 C764 1.379 . S
C769 N767 1.356 1_556 S
N770 C762 1.356 . S
N770 H776 0.984 . S
N770 H777 0.984 . S
N771 C764 1.356 . S
N771 H774 0.984 . S
N771 H775 0.985 1_556 S
H772 N767 0.984 . S
H773 N767 0.985 . S
H774 N771 0.984 . S
H775 N771 0.985 1_554 S
H776 N770 0.984 . S
H777 N770 0.984 . S
H778 N766 0.984 . S
H779 N766 0.985 . S
C780 C781 1.363 . S
C780 C786 1.379 . S
C780 N788 1.356 . S
C781 C780 1.363 . S
C781 C787 1.363 . S
C782 C783 1.363 . S
C782 C787 1.379 . S
C782 N789 1.356 . S
C783 C782 1.363 . S
C783 C786 1.363 . S
N784 C786 1.356 . S
N784 H796 0.984 . S
N784 H797 0.985 . S
N785 C787 1.356 . S
N785 H790 0.984 . S
N785 H791 0.985 . S
C786 C780 1.379 . S
C786 C783 1.363 . S
C786 N784 1.356 . S
C787 C781 1.363 . S
C787 C782 1.379 . S
C787 N785 1.356 . S
N788 C780 1.356 . S
N788 H794 0.984 . S
N788 H795 0.984 . S
N789 C782 1.356 . S
N789 H792 0.984 . S
N789 H793 0.985 . S
H790 N785 0.984 . S
H791 N785 0.985 . S
H792 N789 0.984 . S
H793 N789 0.985 . S
H794 N788 0.984 . S
H795 N788 0.984 . S
H796 N784 0.984 . S
H797 N784 0.985 . S
C798 C799 1.363 . S
C798 C804 1.379 . S
C798 N806 1.356 . S
C799 C798 1.363 . S
C799 C805 1.363 . S
C800 C801 1.363 . S
C800 C805 1.379 . S
C800 N807 1.356 . S
C801 C800 1.363 . S
C801 C804 1.363 . S
N802 C804 1.356 . S
N802 H814 0.984 . S
N802 H815 0.985 . S
N803 C805 1.356 . S
N803 H808 0.984 . S
N803 H809 0.985 . S
C804 C798 1.379 . S
C804 C801 1.363 . S
C804 N802 1.356 . S
C805 C799 1.363 . S
C805 C800 1.379 . S
C805 N803 1.356 . S
N806 C798 1.356 . S
N806 H812 0.984 . S
N806 H813 0.984 . S
N807 C800 1.356 . S
N807 H810 0.984 . S
N807 H811 0.985 . S
H808 N803 0.984 . S
H809 N803 0.985 . S
H810 N807 0.984 . S
H811 N807 0.985 . S
H812 N806 0.984 . S
H813 N806 0.984 . S
H814 N802 0.984 . S
H815 N802 0.985 . S
C816 C817 1.363 . S
C816 C822 1.379 1_554 S
C816 N824 1.356 . S
C817 C816 1.363 . S
C817 C823 1.363 1_545 S
C818 C819 1.363 . S
C818 C823 1.379 1_556 S
C818 N825 1.356 . S
C819 C818 1.363 . S
C819 C822 1.363 1_565 S
N820 C822 1.356 . S
N820 H832 0.984 . S
N820 H833 0.985 . S
N821 C823 1.356 . S
N821 H826 0.984 . S
N821 H827 0.985 . S
C822 C816 1.379 1_556 S
C822 C819 1.363 1_545 S
C822 N820 1.356 . S
C823 C817 1.363 1_565 S
C823 C818 1.379 1_554 S
C823 N821 1.356 . S
N824 C816 1.356 . S
N824 H830 0.984 . S
N824 H831 0.984 . S
N825 C818 1.356 . S
N825 H828 0.984 . S
N825 H829 0.985 . S
H826 N821 0.984 . S
H827 N821 0.985 . S
H828 N825 0.984 . S
H829 N825 0.985 . S
H830 N824 0.984 . S
H831 N824 0.984 . S
H832 N820 0.984 . S
H833 N820 0.985 . S
C834 C835 1.363 . S
C834 C840 1.379 . S
C834 N842 1.356 . S
C835 C834 1.363 . S
C835 C841 1.363 . S
C836 C837 1.363 . S
C836 C841 1.379 . S
C836 N843 1.356 . S
C837 C836 1.363 . S
C837 C840 1.363 . S
N838 C840 1.356 . S
N838 H850 0.984 . S
N838 H851 0.985 . S
N839 C841 1.356 . S
N839 H844 0.984 . S
N839 H845 0.985 . S
C840 C834 1.379 . S
C840 C837 1.363 . S
C840 N838 1.356 . S
C841 C835 1.363 . S
C841 C836 1.379 . S
C841 N839 1.356 . S
N842 C834 1.356 . S
N842 H848 0.984 . S
N842 H849 0.984 . S
N843 C836 1.356 . S
N843 H846 0.984 . S
N843 H847 0.985 . S
H844 N839 0.984 . S
H845 N839 0.985 . S
H846 N843 0.984 . S
H847 N843 0.985 . S
H848 N842 0.984 . S
H849 N842 0.984 . S
H850 N838 0.984 . S
H851 N838 0.985 . S
C852 C853 1.363 1_565 S
C852 C858 1.379 . S
C852 N860 1.356 . S
C853 C852 1.363 1_545 S
C853 C859 1.363 . S
C854 C855 1.363 1_545 S
C854 C859 1.379 . S
C854 N861 1.356 . S
C855 C854 1.363 1_565 S
C855 C858 1.363 . S
N856 C858 1.356 . S
N856 H868 0.984 . S
N856 H869 0.985 . S
N857 C859 1.356 . S
N857 H862 0.984 . S
N857 H863 0.985 . S
C858 C852 1.379 . S
C858 C855 1.363 . S
C858 N856 1.356 . S
C859 C853 1.363 . S
C859 C854 1.379 . S
C859 N857 1.356 . S
N860 C852 1.356 . S
N860 H866 0.984 . S
N860 H867 0.984 . S
N861 C854 1.356 . S
N861 H864 0.984 . S
N861 H865 0.985 . S
H862 N857 0.984 . S
H863 N857 0.985 . S
H864 N861 0.984 . S
H865 N861 0.985 . S
H866 N860 0.984 . S
H867 N860 0.984 . S
H868 N856 0.984 . S
H869 N856 0.985 . S
C870 C871 1.363 . S
C870 C876 1.379 . S
C870 N878 1.356 . S
C871 C870 1.363 . S
C871 C877 1.363 . S
C872 C873 1.363 . S
C872 C877 1.379 . S
C872 N879 1.356 . S
C873 C872 1.363 . S
C873 C876 1.363 . S
N874 C876 1.356 . S
N874 H886 0.984 . S
N874 H887 0.985 . S
N875 C877 1.356 . S
N875 H880 0.984 . S
N875 H881 0.985 . S
C876 C870 1.379 . S
C876 C873 1.363 . S
C876 N874 1.356 . S
C877 C871 1.363 . S
C877 C872 1.379 . S
C877 N875 1.356 . S
N878 C870 1.356 . S
N878 H884 0.984 . S
N878 H885 0.984 . S
N879 C872 1.356 . S
N879 H882 0.984 . S
N879 H883 0.985 . S
H880 N875 0.984 . S
H881 N875 0.985 . S
H882 N879 0.984 . S
H883 N879 0.985 . S
H884 N878 0.984 . S
H885 N878 0.984 . S
H886 N874 0.984 . S
H887 N874 0.985 . S
C888 C889 1.363 . S
C888 C894 1.379 . S
C888 N896 1.356 . S
C889 C888 1.363 . S
C889 C895 1.363 . S
C890 C891 1.363 . S
C890 C895 1.379 . S
C890 N897 1.356 . S
C891 C890 1.363 . S
C891 C894 1.363 . S
N892 C894 1.356 . S
N892 H904 0.984 . S
N892 H905 0.985 . S
N893 C895 1.356 . S
N893 H898 0.984 . S
N893 H899 0.985 . S
C894 C888 1.379 . S
C894 C891 1.363 . S
C894 N892 1.356 . S
C895 C889 1.363 . S
C895 C890 1.379 . S
C895 N893 1.356 . S
N896 C888 1.356 . S
N896 H902 0.984 . S
N896 H903 0.984 . S
N897 C890 1.356 . S
N897 H900 0.984 . S
N897 H901 0.985 . S
H898 N893 0.984 . S
H899 N893 0.985 . S
H900 N897 0.984 . S
H901 N897 0.985 . S
H902 N896 0.984 . S
H903 N896 0.984 . S
H904 N892 0.984 . S
H905 N892 0.985 . S
C906 C907 1.363 . S
C906 C912 1.379 . S
C906 N914 1.356 . S
C907 C906 1.363 . S
C907 C913 1.363 . S
C908 C909 1.363 . S
C908 C913 1.379 . S
C908 N915 1.356 . S
C909 C908 1.363 . S
C909 C912 1.363 . S
N910 C912 1.356 . S
N910 H922 0.984 . S
N910 H923 0.985 . S
N911 C913 1.356 . S
N911 H916 0.984 . S
N911 H917 0.985 . S
C912 C906 1.379 . S
C912 C909 1.363 . S
C912 N910 1.356 . S
C913 C907 1.363 . S
C913 C908 1.379 . S
C913 N911 1.356 . S
N914 C906 1.356 . S
N914 H920 0.984 . S
N914 H921 0.984 . S
N915 C908 1.356 . S
N915 H918 0.984 . S
N915 H919 0.985 . S
H916 N911 0.984 . S
H917 N911 0.985 . S
H918 N915 0.984 . S
H919 N915 0.985 . S
H920 N914 0.984 . S
H921 N914 0.984 . S
H922 N910 0.984 . S
H923 N910 0.985 . S
C924 C925 1.363 . S
C924 C930 1.379 . S
C924 N932 1.356 . S
C925 C924 1.363 . S
C925 C931 1.363 . S
C926 C927 1.363 . S
C926 C931 1.379 . S
C926 N933 1.356 . S
C927 C926 1.363 . S
C927 C930 1.363 . S
N928 C930 1.356 . S
N928 H940 0.984 . S
N928 H941 0.985 . S
N929 C931 1.356 . S
N929 H934 0.984 . S
N929 H935 0.985 . S
C930 C924 1.379 . S
C930 C927 1.363 . S
C930 N928 1.356 . S
C931 C925 1.363 . S
C931 C926 1.379 . S
C931 N929 1.356 . S
N932 C924 1.356 . S
N932 H938 0.984 . S
N932 H939 0.984 . S
N933 C926 1.356 . S
N933 H936 0.984 . S
N933 H937 0.985 . S
H934 N929 0.984 . S
H935 N929 0.985 . S
H936 N933 0.984 . S
H937 N933 0.985 . S
H938 N932 0.984 . S
H939 N932 0.984 . S
H940 N928 0.984 . S
H941 N928 0.985 . S
C942 C943 1.363 . S
C942 C948 1.379 1_556 S
C942 N950 1.356 . S
C943 C942 1.363 . S
C943 C949 1.363 . S
C944 C945 1.363 . S
C944 C949 1.379 1_554 S
C944 N951 1.356 . S
C945 C944 1.363 . S
C945 C948 1.363 . S
N946 C948 1.356 . S
N946 H958 0.984 . S
N946 H959 0.985 . S
N947 C949 1.356 . S
N947 H952 0.984 . S
N947 H953 0.985 . S
C948 C942 1.379 1_554 S
C948 C945 1.363 . S
C948 N946 1.356 . S
C949 C943 1.363 . S
C949 C944 1.379 1_556 S
C949 N947 1.356 . S
N950 C942 1.356 . S
N950 H956 0.984 . S
N950 H957 0.984 . S
N951 C944 1.356 . S
N951 H954 0.984 . S
N951 H955 0.985 . S
H952 N947 0.984 . S
H953 N947 0.985 . S
H954 N951 0.984 . S
H955 N951 0.985 . S
H956 N950 0.984 . S
H957 N950 0.984 . S
H958 N946 0.984 . S
H959 N946 0.985 . S
C960 C961 1.363 . S
C960 C966 1.379 . S
C960 N968 1.356 . S
C961 C960 1.363 . S
C961 C967 1.363 . S
C962 C963 1.363 . S
C962 C967 1.379 . S
C962 N969 1.356 . S
C963 C962 1.363 . S
C963 C966 1.363 . S
N964 C966 1.356 . S
N964 H976 0.984 . S
N964 H977 0.985 . S
N965 C967 1.356 . S
N965 H970 0.984 . S
N965 H971 0.985 . S
C966 C960 1.379 . S
C966 C963 1.363 . S
C966 N964 1.356 . S
C967 C961 1.363 . S
C967 C962 1.379 . S
C967 N965 1.356 . S
N968 C960 1.356 . S
N968 H974 0.984 . S
N968 H975 0.984 . S
N969 C962 1.356 . S
N969 H972 0.984 . S
N969 H973 0.985 . S
H970 N965 0.984 . S
H971 N965 0.985 . S
H972 N969 0.984 . S
H973 N969 0.985 . S
H974 N968 0.984 . S
H975 N968 0.984 . S
H976 N964 0.984 . S
H977 N964 0.985 . S
C978 C979 1.363 . S
C978 C984 1.389 . S
C978 N986 1.356 . S
C979 C978 1.363 . S
C979 C985 1.363 . S
C980 C981 1.363 . S
C980 C985 1.379 1_556 S
C980 N987 1.356 . S
C981 C980 1.363 . S
C981 C984 1.355 1_556 S
N982 C984 1.350 1_556 S
N982 H994 0.984 . S
N982 H995 0.985 . S
N983 C985 1.356 . S
N983 H988 0.984 . S
N983 H989 0.985 . S
C984 C978 1.389 . S
C984 C981 1.355 1_554 S
C984 N982 1.350 1_554 S
C985 C979 1.363 . S
C985 C980 1.379 1_554 S
C985 N983 1.356 . S
N986 C978 1.356 . S
N986 H992 0.984 . S
N986 H993 0.984 . S
N987 C980 1.356 . S
N987 H990 0.984 . S
N987 H991 0.985 . S
H988 N983 0.984 . S
H989 N983 0.985 . S
H990 N987 0.984 . S
H991 N987 0.985 . S
H992 N986 0.984 . S
H993 N986 0.984 . S
H994 N982 0.984 . S
H995 N982 0.985 . S
C996 C997 1.363 . S
C996 C1002 1.379 . S
C996 N1004 1.356 . S
C997 C996 1.363 . S
C997 C1003 1.363 . S
C998 C999 1.363 . S
C998 C1003 1.379 . S
C998 N1005 1.356 . S
C999 C998 1.363 . S
C999 C1002 1.363 . S
N1000 C1002 1.356 . S
N1000 H1012 0.984 . S
N1000 H1013 0.985 . S
N1001 C1003 1.356 . S
N1001 H1006 0.984 . S
N1001 H1007 0.985 . S
C1002 C996 1.379 . S
C1002 C999 1.363 . S
C1002 N1000 1.356 . S
C1003 C997 1.363 . S
C1003 C998 1.379 . S
C1003 N1001 1.356 . S
N1004 C996 1.356 . S
N1004 H1010 0.984 . S
N1004 H1011 0.984 . S
N1005 C998 1.356 . S
N1005 H1008 0.984 . S
N1005 H1009 0.985 . S
H1006 N1001 0.984 . S
H1007 N1001 0.985 . S
H1008 N1005 0.984 . S
H1009 N1005 0.985 . S
H1010 N1004 0.984 . S
H1011 N1004 0.984 . S
H1012 N1000 0.984 . S
H1013 N1000 0.985 . S
C1014 C1015 1.363 . S
C1014 C1020 1.379 . S
C1014 N1022 1.356 . S
C1015 C1014 1.363 . S
C1015 C1021 1.363 . S
C1016 C1017 1.363 . S
C1016 C1021 1.379 . S
C1016 N1023 1.356 . S
C1017 C1016 1.363 . S
C1017 C1020 1.363 . S
N1018 C1020 1.356 . S
N1018 H1030 0.984 . S
N1018 H1031 0.985 . S
N1019 C1021 1.356 . S
N1019 H1024 0.984 . S
N1019 H1025 0.985 . S
C1020 C1014 1.379 . S
C1020 C1017 1.363 . S
C1020 N1018 1.356 . S
C1021 C1015 1.363 . S
C1021 C1016 1.379 . S
C1021 N1019 1.356 . S
N1022 C1014 1.356 . S
N1022 H1028 0.984 . S
N1022 H1029 0.984 . S
N1023 C1016 1.356 . S
N1023 H1026 0.984 . S
N1023 H1027 0.985 . S
H1024 N1019 0.984 . S
H1025 N1019 0.985 . S
H1026 N1023 0.984 . S
H1027 N1023 0.985 . S
H1028 N1022 0.984 . S
H1029 N1022 0.984 . S
H1030 N1018 0.984 . S
H1031 N1018 0.985 . S
C1032 C1033 1.363 . S
C1032 C1038 1.379 . S
C1032 N1040 1.356 . S
C1033 C1032 1.363 . S
C1033 C1039 1.363 . S
C1034 C1035 1.363 . S
C1034 C1039 1.379 . S
C1034 N1041 1.356 . S
C1035 C1034 1.363 . S
C1035 C1038 1.363 . S
N1036 C1038 1.356 . S
N1036 H1048 0.984 . S
N1036 H1049 0.985 . S
N1037 C1039 1.356 . S
N1037 H1042 0.984 . S
N1037 H1043 0.985 . S
C1038 C1032 1.379 . S
C1038 C1035 1.363 . S
C1038 N1036 1.356 . S
C1039 C1033 1.363 . S
C1039 C1034 1.379 . S
C1039 N1037 1.356 . S
N1040 C1032 1.356 . S
N1040 H1046 0.984 . S
N1040 H1047 0.984 . S
N1041 C1034 1.356 . S
N1041 H1044 0.984 . S
N1041 H1045 0.985 . S
H1042 N1037 0.984 . S
H1043 N1037 0.985 . S
H1044 N1041 0.984 . S
H1045 N1041 0.985 . S
H1046 N1040 0.984 . S
H1047 N1040 0.984 . S
H1048 N1036 0.984 . S
H1049 N1036 0.985 . S
C1050 C1051 1.363 . S
C1050 C1056 1.379 . S
C1050 N1058 1.356 . S
C1051 C1050 1.363 . S
C1051 C1057 1.363 . S
C1052 C1053 1.363 . S
C1052 C1057 1.379 . S
C1052 N1059 1.356 . S
C1053 C1052 1.363 . S
C1053 C1056 1.363 . S
N1054 C1056 1.356 . S
N1054 H1066 0.984 . S
N1054 H1067 0.985 . S
N1055 C1057 1.356 . S
N1055 H1060 0.984 . S
N1055 H1061 0.985 . S
C1056 C1050 1.379 . S
C1056 C1053 1.363 . S
C1056 N1054 1.356 . S
C1057 C1051 1.363 . S
C1057 C1052 1.379 . S
C1057 N1055 1.356 . S
N1058 C1050 1.356 . S
N1058 H1064 0.984 . S
N1058 H1065 0.984 . S
N1059 C1052 1.356 . S
N1059 H1062 0.984 . S
N1059 H1063 0.985 . S
H1060 N1055 0.984 . S
H1061 N1055 0.985 . S
H1062 N1059 0.984 . S
H1063 N1059 0.985 . S
H1064 N1058 0.984 . S
H1065 N1058 0.984 . S
H1066 N1054 0.984 . S
H1067 N1054 0.985 . S
C1068 C1069 1.363 . S
C1068 C1074 1.379 . S
C1068 N1076 1.356 . S
C1069 C1068 1.363 . S
C1069 C1075 1.363 . S
C1070 C1071 1.363 . S
C1070 C1075 1.379 . S
C1070 N1077 1.356 . S
C1071 C1070 1.363 . S
C1071 C1074 1.363 . S
N1072 C1074 1.356 . S
N1072 H1084 0.984 . S
N1072 H1085 0.985 . S
N1073 C1075 1.356 . S
N1073 H1078 0.984 . S
N1073 H1079 0.985 . S
C1074 C1068 1.379 . S
C1074 C1071 1.363 . S
C1074 N1072 1.356 . S
C1075 C1069 1.363 . S
C1075 C1070 1.379 . S
C1075 N1073 1.356 . S
N1076 C1068 1.356 . S
N1076 H1082 0.984 . S
N1076 H1083 0.984 . S
N1077 C1070 1.356 . S
N1077 H1080 0.984 . S
N1077 H1081 0.985 . S
H1078 N1073 0.984 . S
H1079 N1073 0.985 . S
H1080 N1077 0.984 . S
H1081 N1077 0.985 . S
H1082 N1076 0.984 . S
H1083 N1076 0.984 . S
H1084 N1072 0.984 . S
H1085 N1072 0.985 . S
C1086 C1087 1.363 . S
C1086 C1092 1.379 . S
C1086 N1094 1.356 . S
C1087 C1086 1.363 . S
C1087 C1093 1.363 . S
C1088 C1089 1.363 . S
C1088 C1093 1.379 1_554 S
C1088 N1095 1.356 . S
C1089 C1088 1.363 . S
C1089 C1092 1.363 1_554 S
N1090 C1092 1.356 1_554 S
N1090 H1102 0.984 . S
N1090 H1103 0.985 . S
N1091 C1093 1.356 . S
N1091 H1096 0.984 . S
N1091 H1097 0.985 . S
C1092 C1086 1.379 . S
C1092 C1089 1.363 1_556 S
C1092 N1090 1.356 1_556 S
C1093 C1087 1.363 . S
C1093 C1088 1.379 1_556 S
C1093 N1091 1.356 . S
N1094 C1086 1.356 . S
N1094 H1100 0.984 . S
N1094 H1101 0.984 . S
N1095 C1088 1.356 . S
N1095 H1098 0.984 . S
N1095 H1099 0.985 . S
H1096 N1091 0.984 . S
H1097 N1091 0.985 . S
H1098 N1095 0.984 . S
H1099 N1095 0.985 . S
H1100 N1094 0.984 . S
H1101 N1094 0.984 . S
H1102 N1090 0.984 . S
H1103 N1090 0.985 . S
C1104 C1105 1.363 1_556 S
C1104 C1110 1.379 . S
C1104 N1112 1.356 1_556 S
C1105 C1104 1.363 1_554 S
C1105 C1111 1.363 . S
C1106 C1107 1.363 . S
C1106 C1111 1.379 1_556 S
C1106 N1113 1.356 . S
C1107 C1106 1.363 . S
C1107 C1110 1.363 . S
N1108 C1110 1.356 . S
N1108 H1120 0.984 . S
N1108 H1121 0.985 . S
N1109 C1111 1.356 . S
N1109 H1114 0.984 . S
N1109 H1115 0.985 . S
C1110 C1104 1.379 . S
C1110 C1107 1.363 . S
C1110 N1108 1.356 . S
C1111 C1105 1.363 . S
C1111 C1106 1.379 1_554 S
C1111 N1109 1.356 . S
N1112 C1104 1.356 1_554 S
N1112 H1118 0.984 . S
N1112 H1119 0.984 . S
N1113 C1106 1.356 . S
N1113 H1116 0.984 . S
N1113 H1117 0.985 . S
H1114 N1109 0.984 . S
H1115 N1109 0.985 . S
H1116 N1113 0.984 . S
H1117 N1113 0.985 . S
H1118 N1112 0.984 . S
H1119 N1112 0.984 . S
H1120 N1108 0.984 . S
H1121 N1108 0.985 . S
C1122 C1123 1.363 . S
C1122 C1128 1.379 . S
C1122 N1130 1.356 . S
C1123 C1122 1.363 . S
C1123 C1129 1.363 . S
C1124 C1125 1.363 . S
C1124 C1129 1.379 . S
C1124 N1131 1.356 . S
C1125 C1124 1.363 . S
C1125 C1128 1.363 . S
N1126 C1128 1.356 . S
N1126 H1138 0.984 . S
N1126 H1139 0.985 . S
N1127 C1129 1.356 . S
N1127 H1132 0.984 . S
N1127 H1133 0.985 . S
C1128 C1122 1.379 . S
C1128 C1125 1.363 . S
C1128 N1126 1.356 . S
C1129 C1123 1.363 . S
C1129 C1124 1.379 . S
C1129 N1127 1.356 . S
N1130 C1122 1.356 . S
N1130 H1136 0.984 . S
N1130 H1137 0.984 . S
N1131 C1124 1.356 . S
N1131 H1134 0.984 . S
N1131 H1135 0.985 . S
H1132 N1127 0.984 . S
H1133 N1127 0.985 . S
H1134 N1131 0.984 . S
H1135 N1131 0.985 . S
H1136 N1130 0.984 . S
H1137 N1130 0.984 . S
H1138 N1126 0.984 . S
H1139 N1126 0.985 . S
C1140 C1141 1.363 . S
C1140 C1146 1.379 . S
C1140 N1148 1.356 . S
C1141 C1140 1.363 . S
C1141 C1147 1.363 . S
C1142 C1143 1.363 . S
C1142 C1147 1.379 . S
C1142 N1149 1.356 . S
C1143 C1142 1.363 . S
C1143 C1146 1.363 . S
N1144 C1146 1.356 . S
N1144 H1156 0.984 . S
N1144 H1157 0.985 . S
N1145 C1147 1.356 . S
N1145 H1150 0.984 . S
N1145 H1151 0.985 . S
C1146 C1140 1.379 . S
C1146 C1143 1.363 . S
C1146 N1144 1.356 . S
C1147 C1141 1.363 . S
C1147 C1142 1.379 . S
C1147 N1145 1.356 . S
N1148 C1140 1.356 . S
N1148 H1154 0.984 . S
N1148 H1155 0.984 . S
N1149 C1142 1.356 . S
N1149 H1152 0.984 . S
N1149 H1153 0.985 . S
H1150 N1145 0.984 . S
H1151 N1145 0.985 . S
H1152 N1149 0.984 . S
H1153 N1149 0.985 . S
H1154 N1148 0.984 . S
H1155 N1148 0.984 . S
H1156 N1144 0.984 . S
H1157 N1144 0.985 . S
C1158 C1159 1.363 . S
C1158 C1164 1.379 1_554 S
C1158 N1166 1.356 . S
C1159 C1158 1.363 . S
C1159 C1165 1.363 . S
C1160 C1161 1.363 . S
C1160 C1165 1.379 1_556 S
C1160 N1167 1.356 . S
C1161 C1160 1.363 . S
C1161 C1164 1.363 . S
N1162 C1164 1.356 . S
N1162 H1174 0.984 . S
N1162 H1175 0.985 . S
N1163 C1165 1.356 . S
N1163 H1168 0.984 . S
N1163 H1169 0.985 . S
C1164 C1158 1.379 1_556 S
C1164 C1161 1.363 . S
C1164 N1162 1.356 . S
C1165 C1159 1.363 . S
C1165 C1160 1.379 1_554 S
C1165 N1163 1.356 . S
N1166 C1158 1.356 . S
N1166 H1172 0.984 . S
N1166 H1173 0.984 . S
N1167 C1160 1.356 . S
N1167 H1170 0.984 . S
N1167 H1171 0.985 . S
H1168 N1163 0.984 . S
H1169 N1163 0.985 . S
H1170 N1167 0.984 . S
H1171 N1167 0.985 . S
H1172 N1166 0.984 . S
H1173 N1166 0.984 . S
H1174 N1162 0.984 . S
H1175 N1162 0.985 . S
C1176 C1177 1.363 . S
C1176 C1182 1.379 . S
C1176 N1184 1.356 . S
C1177 C1176 1.363 . S
C1177 C1183 1.363 . S
C1178 C1179 1.363 . S
C1178 C1183 1.379 . S
C1178 N1185 1.356 . S
C1179 C1178 1.363 . S
C1179 C1182 1.363 . S
N1180 C1182 1.356 . S
N1180 H1192 0.984 . S
N1180 H1193 0.985 . S
N1181 C1183 1.356 . S
N1181 H1186 0.984 . S
N1181 H1187 0.985 . S
C1182 C1176 1.379 . S
C1182 C1179 1.363 . S
C1182 N1180 1.356 . S
C1183 C1177 1.363 . S
C1183 C1178 1.379 . S
C1183 N1181 1.356 . S
N1184 C1176 1.356 . S
N1184 H1190 0.984 . S
N1184 H1191 0.984 . S
N1185 C1178 1.356 . S
N1185 H1188 0.984 . S
N1185 H1189 0.985 . S
H1186 N1181 0.984 . S
H1187 N1181 0.985 . S
H1188 N1185 0.984 . S
H1189 N1185 0.985 . S
H1190 N1184 0.984 . S
H1191 N1184 0.984 . S
H1192 N1180 0.984 . S
H1193 N1180 0.985 . S
C1194 C1195 1.363 . S
C1194 C1200 1.379 . S
C1194 N1202 1.356 . S
C1195 C1194 1.363 . S
C1195 C1201 1.363 . S
C1196 C1197 1.363 . S
C1196 C1201 1.379 . S
C1196 N1203 1.356 . S
C1197 C1196 1.363 . S
C1197 C1200 1.363 . S
N1198 C1200 1.356 . S
N1198 H1210 0.984 . S
N1198 H1211 0.985 . S
N1199 C1201 1.356 . S
N1199 H1204 0.984 . S
N1199 H1205 0.985 . S
C1200 C1194 1.379 . S
C1200 C1197 1.363 . S
C1200 N1198 1.356 . S
C1201 C1195 1.363 . S
C1201 C1196 1.379 . S
C1201 N1199 1.356 . S
N1202 C1194 1.356 . S
N1202 H1208 0.984 . S
N1202 H1209 0.984 . S
N1203 C1196 1.356 . S
N1203 H1206 0.984 . S
N1203 H1207 0.985 . S
H1204 N1199 0.984 . S
H1205 N1199 0.985 . S
H1206 N1203 0.984 . S
H1207 N1203 0.985 . S
H1208 N1202 0.984 . S
H1209 N1202 0.984 . S
H1210 N1198 0.984 . S
H1211 N1198 0.985 . S
C1212 C1213 1.363 . S
C1212 C1218 1.379 . S
C1212 N1220 1.356 . S
C1213 C1212 1.363 . S
C1213 C1219 1.363 . S
C1214 C1215 1.363 . S
C1214 C1219 1.379 . S
C1214 N1221 1.356 . S
C1215 C1214 1.363 . S
C1215 C1218 1.363 . S
N1216 C1218 1.356 . S
N1216 H1228 0.984 . S
N1216 H1229 0.985 . S
N1217 C1219 1.356 . S
N1217 H1222 0.984 . S
N1217 H1223 0.985 . S
C1218 C1212 1.379 . S
C1218 C1215 1.363 . S
C1218 N1216 1.356 . S
C1219 C1213 1.363 . S
C1219 C1214 1.379 . S
C1219 N1217 1.356 . S
N1220 C1212 1.356 . S
N1220 H1226 0.984 . S
N1220 H1227 0.984 . S
N1221 C1214 1.356 . S
N1221 H1224 0.984 . S
N1221 H1225 0.985 . S
H1222 N1217 0.984 . S
H1223 N1217 0.985 . S
H1224 N1221 0.984 . S
H1225 N1221 0.985 . S
H1226 N1220 0.984 . S
H1227 N1220 0.984 . S
H1228 N1216 0.984 . S
H1229 N1216 0.985 . S
C1230 C1231 1.363 . S
C1230 C1236 1.379 . S
C1230 N1238 1.356 . S
C1231 C1230 1.363 . S
C1231 C1237 1.363 . S
C1232 C1233 1.363 . S
C1232 C1237 1.379 . S
C1232 N1239 1.356 . S
C1233 C1232 1.363 . S
C1233 C1236 1.363 . S
N1234 C1236 1.356 . S
N1234 H1246 0.984 . S
N1234 H1247 0.985 . S
N1235 C1237 1.356 . S
N1235 H1240 0.984 . S
N1235 H1241 0.985 . S
C1236 C1230 1.379 . S
C1236 C1233 1.363 . S
C1236 N1234 1.356 . S
C1237 C1231 1.363 . S
C1237 C1232 1.379 . S
C1237 N1235 1.356 . S
N1238 C1230 1.356 . S
N1238 H1244 0.984 . S
N1238 H1245 0.984 . S
N1239 C1232 1.356 . S
N1239 H1242 0.985 . S
N1239 H1243 0.985 . S
H1240 N1235 0.984 . S
H1241 N1235 0.985 . S
H1242 N1239 0.985 . S
H1243 N1239 0.985 . S
H1244 N1238 0.984 . S
H1245 N1238 0.984 . S
H1246 N1234 0.984 . S
H1247 N1234 0.985 . S
C529 C238 1.507 . S
C531 C7 1.510 . S
C547 C40 1.507 . S
C549 C139 1.510 . S
C565 C73 1.538 . S
C567 C172 1.542 . S
C583 C205 1.538 . S
C585 C106 1.542 . S
C601 C384 1.558 . S
C603 C153 1.560 . S
C619 C285 1.558 . S
C621 C21 1.560 . S
C637 C219 1.585 . S
C639 C351 1.588 . S
C655 C87 1.585 . S
C657 C318 1.588 . S
C673 C304 1.542 . S
C675 C403 1.539 . S
C691 C469 1.538 . S
C693 C337 1.542 . S
C709 C436 1.510 1_655 S
C711 C271 1.507 . S
C727 C370 1.507 . S
C729 C502 1.510 1_655 S
C745 C120 1.588 . S
C747 C483 1.585 . S
C763 C186 1.588 . S
C765 C417 1.585 . S
C781 C54 1.558 . S
C783 C516 1.560 . S
C799 C252 1.558 . S
C801 C450 1.560 . S
C817 C18 1.596 . S
C819 C150 1.596 . S
C835 C183 1.593 . S
C837 C51 1.590 . S
C853 C216 1.730 . S
C855 C84 1.730 . S
C871 C117 1.593 . S
C873 C249 1.590 . S
C889 C348 1.593 . S
C891 C282 1.590 . S
C907 C315 1.593 . S
C909 C381 1.590 . S
C925 C414 1.730 . S
C927 C480 1.730 . S
C943 C513 1.596 . S
C945 C447 1.596 . S
C961 N13 1.162 . S
C963 N2 1.163 . S
C979 N46 1.152 . S
C981 N35 1.152 . S
C997 N68 1.201 . S
C999 N79 1.200 . S
C1015 N101 1.167 . S
C1017 N112 1.166 . S
C1033 N134 1.163 . S
C1035 N145 1.162 . S
C1051 N167 1.167 . S
C1053 N178 1.166 . S
C1069 N211 1.200 . S
C1071 N200 1.201 . S
C1087 N244 1.152 . S
C1089 N233 1.152 . S
C1105 N266 1.152 . S
C1107 N277 1.152 . S
C1123 N299 1.167 . S
C1125 N310 1.166 . S
C1141 N343 1.166 . S
C1143 N332 1.167 . S
C1159 N376 1.152 . S
C1161 N365 1.152 . S
C1177 N409 1.200 . S
C1179 N398 1.201 . S
C1195 N442 1.162 . S
C1197 N431 1.163 . S
C1213 N475 1.200 . S
C1215 N464 1.201 . S
C1231 N497 1.163 . S
C1233 N508 1.162 . S
