# Generated by pormake.
# Topology vbb, (4)-cn, num edge types: 1
# Building blocks:
#     Node 0, Type 0, BuildingBlock: MUDLON_clean_sbu_0, # of connection points: 4
#     Node 1, Type 0, BuildingBlock: MUDLON_clean_sbu_0, # of connection points: 4
#     Node 2, Type 0, BuildingBlock: MUDLON_clean_sbu_0, # of connection points: 4
#     Node 3, Type 0, BuildingBlock: MUDLON_clean_sbu_0, # of connection points: 4
#     Node 4, Type 0, BuildingBlock: MUDLON_clean_sbu_0, # of connection points: 4
#     Node 5, Type 0, BuildingBlock: MUDLON_clean_sbu_0, # of connection points: 4
#     Node 6, Type 0, BuildingBlock: MUDLON_clean_sbu_0, # of connection points: 4
#     Node 7, Type 0, BuildingBlock: MUDLON_clean_sbu_0, # of connection points: 4
#     Node 8, Type 0, BuildingBlock: MUDLON_clean_sbu_0, # of connection points: 4
#     Node 9, Type 0, BuildingBlock: MUDLON_clean_sbu_0, # of connection points: 4
#     Node 10, Type 0, BuildingBlock: MUDLON_clean_sbu_0, # of connection points: 4
#     Node 11, Type 0, BuildingBlock: MUDLON_clean_sbu_0, # of connection points: 4
#     Node 12, Type 0, BuildingBlock: MUDLON_clean_sbu_0, # of connection points: 4
#     Node 13, Type 0, BuildingBlock: MUDLON_clean_sbu_0, # of connection points: 4
#     Node 14, Type 0, BuildingBlock: MUDLON_clean_sbu_0, # of connection points: 4
#     Node 15, Type 0, BuildingBlock: MUDLON_clean_sbu_0, # of connection points: 4
#     Node 16, Type 0, BuildingBlock: MUDLON_clean_sbu_0, # of connection points: 4
#     Node 17, Type 0, BuildingBlock: MUDLON_clean_sbu_0, # of connection points: 4
#     Node 18, Type 0, BuildingBlock: MUDLON_clean_sbu_0, # of connection points: 4
#     Node 19, Type 0, BuildingBlock: MUDLON_clean_sbu_0, # of connection points: 4
#     Node 20, Type 0, BuildingBlock: MUDLON_clean_sbu_0, # of connection points: 4
#     Node 21, Type 0, BuildingBlock: MUDLON_clean_sbu_0, # of connection points: 4
#     Node 22, Type 0, BuildingBlock: MUDLON_clean_sbu_0, # of connection points: 4
#     Node 23, Type 0, BuildingBlock: MUDLON_clean_sbu_0, # of connection points: 4
#     Node 24, Type 0, BuildingBlock: MUDLON_clean_sbu_0, # of connection points: 4
#     Node 25, Type 0, BuildingBlock: MUDLON_clean_sbu_0, # of connection points: 4
#     Node 26, Type 0, BuildingBlock: MUDLON_clean_sbu_0, # of connection points: 4
#     Node 27, Type 0, BuildingBlock: MUDLON_clean_sbu_0, # of connection points: 4
#     Node 28, Type 0, BuildingBlock: MUDLON_clean_sbu_0, # of connection points: 4
#     Node 29, Type 0, BuildingBlock: MUDLON_clean_sbu_0, # of connection points: 4
#     Node 30, Type 0, BuildingBlock: MUDLON_clean_sbu_0, # of connection points: 4
#     Node 31, Type 0, BuildingBlock: MUDLON_clean_sbu_0, # of connection points: 4
#     Edge 32, Type (0, 0), BuildingBlock: UVAHIK_clean_linker_0, # of connection points: 2
#     Edge 33, Type (0, 0), BuildingBlock: UVAHIK_clean_linker_0, # of connection points: 2
#     Edge 34, Type (0, 0), BuildingBlock: UVAHIK_clean_linker_0, # of connection points: 2
#     Edge 35, Type (0, 0), BuildingBlock: UVAHIK_clean_linker_0, # of connection points: 2
#     Edge 36, Type (0, 0), BuildingBlock: UVAHIK_clean_linker_0, # of connection points: 2
#     Edge 37, Type (0, 0), BuildingBlock: UVAHIK_clean_linker_0, # of connection points: 2
#     Edge 38, Type (0, 0), BuildingBlock: UVAHIK_clean_linker_0, # of connection points: 2
#     Edge 39, Type (0, 0), BuildingBlock: UVAHIK_clean_linker_0, # of connection points: 2
#     Edge 40, Type (0, 0), BuildingBlock: UVAHIK_clean_linker_0, # of connection points: 2
#     Edge 41, Type (0, 0), BuildingBlock: UVAHIK_clean_linker_0, # of connection points: 2
#     Edge 42, Type (0, 0), BuildingBlock: UVAHIK_clean_linker_0, # of connection points: 2
#     Edge 43, Type (0, 0), BuildingBlock: UVAHIK_clean_linker_0, # of connection points: 2
#     Edge 44, Type (0, 0), BuildingBlock: UVAHIK_clean_linker_0, # of connection points: 2
#     Edge 45, Type (0, 0), BuildingBlock: UVAHIK_clean_linker_0, # of connection points: 2
#     Edge 46, Type (0, 0), BuildingBlock: UVAHIK_clean_linker_0, # of connection points: 2
#     Edge 47, Type (0, 0), BuildingBlock: UVAHIK_clean_linker_0, # of connection points: 2
#     Edge 48, Type (0, 0), BuildingBlock: UVAHIK_clean_linker_0, # of connection points: 2
#     Edge 49, Type (0, 0), BuildingBlock: UVAHIK_clean_linker_0, # of connection points: 2
#     Edge 50, Type (0, 0), BuildingBlock: UVAHIK_clean_linker_0, # of connection points: 2
#     Edge 51, Type (0, 0), BuildingBlock: UVAHIK_clean_linker_0, # of connection points: 2
#     Edge 52, Type (0, 0), BuildingBlock: UVAHIK_clean_linker_0, # of connection points: 2
#     Edge 53, Type (0, 0), BuildingBlock: UVAHIK_clean_linker_0, # of connection points: 2
#     Edge 54, Type (0, 0), BuildingBlock: UVAHIK_clean_linker_0, # of connection points: 2
#     Edge 55, Type (0, 0), BuildingBlock: UVAHIK_clean_linker_0, # of connection points: 2
#     Edge 56, Type (0, 0), BuildingBlock: UVAHIK_clean_linker_0, # of connection points: 2
#     Edge 57, Type (0, 0), BuildingBlock: UVAHIK_clean_linker_0, # of connection points: 2
#     Edge 58, Type (0, 0), BuildingBlock: UVAHIK_clean_linker_0, # of connection points: 2
#     Edge 59, Type (0, 0), BuildingBlock: UVAHIK_clean_linker_0, # of connection points: 2
#     Edge 60, Type (0, 0), BuildingBlock: UVAHIK_clean_linker_0, # of connection points: 2
#     Edge 61, Type (0, 0), BuildingBlock: UVAHIK_clean_linker_0, # of connection points: 2
#     Edge 62, Type (0, 0), BuildingBlock: UVAHIK_clean_linker_0, # of connection points: 2
#     Edge 63, Type (0, 0), BuildingBlock: UVAHIK_clean_linker_0, # of connection points: 2
#     Edge 64, Type (0, 0), BuildingBlock: UVAHIK_clean_linker_0, # of connection points: 2
#     Edge 65, Type (0, 0), BuildingBlock: UVAHIK_clean_linker_0, # of connection points: 2
#     Edge 66, Type (0, 0), BuildingBlock: UVAHIK_clean_linker_0, # of connection points: 2
#     Edge 67, Type (0, 0), BuildingBlock: UVAHIK_clean_linker_0, # of connection points: 2
#     Edge 68, Type (0, 0), BuildingBlock: UVAHIK_clean_linker_0, # of connection points: 2
#     Edge 69, Type (0, 0), BuildingBlock: UVAHIK_clean_linker_0, # of connection points: 2
#     Edge 70, Type (0, 0), BuildingBlock: UVAHIK_clean_linker_0, # of connection points: 2
#     Edge 71, Type (0, 0), BuildingBlock: UVAHIK_clean_linker_0, # of connection points: 2
#     Edge 72, Type (0, 0), BuildingBlock: UVAHIK_clean_linker_0, # of connection points: 2
#     Edge 73, Type (0, 0), BuildingBlock: UVAHIK_clean_linker_0, # of connection points: 2
#     Edge 74, Type (0, 0), BuildingBlock: UVAHIK_clean_linker_0, # of connection points: 2
#     Edge 75, Type (0, 0), BuildingBlock: UVAHIK_clean_linker_0, # of connection points: 2
#     Edge 76, Type (0, 0), BuildingBlock: UVAHIK_clean_linker_0, # of connection points: 2
#     Edge 77, Type (0, 0), BuildingBlock: UVAHIK_clean_linker_0, # of connection points: 2
#     Edge 78, Type (0, 0), BuildingBlock: UVAHIK_clean_linker_0, # of connection points: 2
#     Edge 79, Type (0, 0), BuildingBlock: UVAHIK_clean_linker_0, # of connection points: 2
#     Edge 80, Type (0, 0), BuildingBlock: UVAHIK_clean_linker_0, # of connection points: 2
#     Edge 81, Type (0, 0), BuildingBlock: UVAHIK_clean_linker_0, # of connection points: 2
#     Edge 82, Type (0, 0), BuildingBlock: UVAHIK_clean_linker_0, # of connection points: 2
#     Edge 83, Type (0, 0), BuildingBlock: UVAHIK_clean_linker_0, # of connection points: 2
#     Edge 84, Type (0, 0), BuildingBlock: UVAHIK_clean_linker_0, # of connection points: 2
#     Edge 85, Type (0, 0), BuildingBlock: UVAHIK_clean_linker_0, # of connection points: 2
#     Edge 86, Type (0, 0), BuildingBlock: UVAHIK_clean_linker_0, # of connection points: 2
#     Edge 87, Type (0, 0), BuildingBlock: UVAHIK_clean_linker_0, # of connection points: 2
#     Edge 88, Type (0, 0), BuildingBlock: UVAHIK_clean_linker_0, # of connection points: 2
#     Edge 89, Type (0, 0), BuildingBlock: UVAHIK_clean_linker_0, # of connection points: 2
#     Edge 90, Type (0, 0), BuildingBlock: UVAHIK_clean_linker_0, # of connection points: 2
#     Edge 91, Type (0, 0), BuildingBlock: UVAHIK_clean_linker_0, # of connection points: 2
#     Edge 92, Type (0, 0), BuildingBlock: UVAHIK_clean_linker_0, # of connection points: 2
#     Edge 93, Type (0, 0), BuildingBlock: UVAHIK_clean_linker_0, # of connection points: 2
#     Edge 94, Type (0, 0), BuildingBlock: UVAHIK_clean_linker_0, # of connection points: 2
#     Edge 95, Type (0, 0), BuildingBlock: UVAHIK_clean_linker_0, # of connection points: 2
# Relax obj value: 0.000
# Max RMSD: 0.062
# Mean RMSD: 0.061
data_MOF--net-vbb--node1-MUDLON_clean_sbu_0--edge1-UVAHIK_clean_linker_0
_symmetry_space_group_name_H-M    P1
_symmetry_Int_Tables_number       1
_symmetry_cell_setting            triclinic
loop_
_symmetry_equiv_pos_as_xyz
'x, y, z'
_cell_length_a     76.364926
_cell_length_b     19.979713
_cell_length_c     156.84677
_cell_angle_alpha  89.973492
_cell_angle_beta   89.950891
_cell_angle_gamma 89.989031
loop_
_atom_site_label
_atom_site_type_symbol
_atom_site_fract_x
_atom_site_fract_y
_atom_site_fract_z
_atom_type_partial_charge
Mg0 Mg 0.50387 0.02077 0.07222 0.0
C1 C 0.50361 -0.00023 0.05425 0.0
O2 O 0.50952 0.94556 0.05803 0.0
C3 C 0.50868 0.07884 0.08928 0.0
O4 O 0.52226 0.03952 0.08817 0.0
C5 C 0.47641 0.93206 0.08044 0.0
O6 O 0.48046 0.96838 0.08712 0.0
O7 O 0.48588 0.93661 0.07377 0.0
O8 O 0.49909 0.04903 0.05894 0.0
O9 O 0.53229 0.00672 0.07232 0.0
C10 C 0.53992 0.05884 0.06946 0.0
O11 O 0.53015 0.10835 0.06666 0.0
O12 O 0.49813 0.087 0.08306 0.0
Mg13 Mg 0.76141 0.19398 0.07087 0.0
C14 C 0.75548 0.20617 0.05314 0.0
O15 O 0.75107 0.26215 0.05699 0.0
C16 C 0.77005 0.17587 0.08832 0.0
O17 O 0.76786 0.24002 0.08679 0.0
C18 C 0.79685 0.23089 0.06877 0.0
O19 O 0.79505 0.16651 0.06729 0.0
O20 O 0.78315 0.26472 0.07051 0.0
O21 O 0.76094 0.15781 0.05774 0.0
O22 O 0.73413 0.22165 0.0732 0.0
C23 C 0.72554 0.17076 0.07577 0.0
O24 O 0.73409 0.11459 0.07705 0.0
O25 O 0.7684 0.13513 0.08211 0.0
Mg26 Mg 0.49992 0.21443 0.19359 0.0
C27 C 0.5091 0.22834 0.21151 0.0
O28 O 0.51814 0.27411 0.2074 0.0
C29 C 0.47968 0.15011 0.17907 0.0
O30 O 0.46751 0.19203 0.18162 0.0
C31 C 0.46971 0.30461 0.19766 0.0
O32 O 0.47261 0.27668 0.2051 0.0
O33 O 0.48073 0.29487 0.19168 0.0
O34 O 0.4995 0.18872 0.20718 0.0
O35 O 0.5279 0.227 0.19095 0.0
C36 C 0.53517 0.16975 0.19164 0.0
O37 O 0.5252 0.11825 0.19356 0.0
O38 O 0.49312 0.14142 0.18375 0.0
Mg39 Mg 0.75653 0.00347 0.19502 0.0
C40 C 0.74653 0.02343 0.21288 0.0
O41 O 0.73427 0.98465 0.20972 0.0
C42 C 0.76366 0.01401 0.17743 0.0
O43 O 0.75825 0.9532 0.17925 0.0
C44 C 0.7857 0.91381 0.2013 0.0
O45 O 0.78169 0.94353 0.20851 0.0
O46 O 0.77551 0.92114 0.19494 0.0
O47 O 0.75813 0.04669 0.20784 0.0
O48 O 0.72851 0.99033 0.19255 0.0
C49 C 0.72148 0.04758 0.19145 0.0
O50 O 0.73164 0.10064 0.19169 0.0
O51 O 0.76481 0.05618 0.18351 0.0
Mg52 Mg 0.51657 0.97587 0.9443 0.0
C53 C 0.48094 0.94172 0.94073 0.0
O54 O 0.48998 0.886 0.94142 0.0
C55 C 0.54951 0.045 0.94872 0.0
O56 O 0.54763 0.0005 0.95481 0.0
C57 C 0.53557 0.91738 0.92903 0.0
O58 O 0.54705 0.96314 0.9312 0.0
O59 O 0.52291 0.90486 0.93408 0.0
O60 O 0.48906 -0.00283 0.94153 0.0
O61 O 0.51519 0.94684 0.95776 0.0
C62 C 0.50872 0.99479 0.96211 0.0
O63 O 0.50393 0.04932 0.95804 0.0
O64 O 0.53706 0.05255 0.94339 0.0
Mg65 Mg 0.25894 0.79112 0.94336 0.0
C66 C 0.29465 0.82992 0.94411 0.0
O67 O 0.28465 0.88202 0.94569 0.0
C68 C 0.22426 0.74498 0.94046 0.0
O69 O 0.22457 0.81043 0.93966 0.0
C70 C 0.25991 0.81161 0.92553 0.0
O71 O 0.26652 0.75268 0.92741 0.0
O72 O 0.25492 0.84898 0.93166 0.0
O73 O 0.28721 0.77378 0.94275 0.0
O74 O 0.25533 0.825 0.95652 0.0
C75 C 0.26124 0.77858 0.96131 0.0
O76 O 0.26782 0.72503 0.95765 0.0
O77 O 0.23856 0.71484 0.94217 0.0
Mg78 Mg 0.50809 0.78438 0.82218 0.0
C79 C 0.47214 0.81978 0.81953 0.0
O80 O 0.48189 0.86985 0.81688 0.0
C81 C 0.54136 0.72915 0.82768 0.0
O82 O 0.54189 0.79323 0.8295 0.0
C83 C 0.5034 0.82557 0.83965 0.0
O84 O 0.49357 0.77251 0.83843 0.0
O85 O 0.51151 0.85016 0.83326 0.0
O86 O 0.47981 0.76731 0.82226 0.0
O87 O 0.51293 0.81119 0.80884 0.0
C88 C 0.50774 0.76219 0.80428 0.0
O89 O 0.5013 0.70949 0.8082 0.0
O90 O 0.52738 0.70523 0.82445 0.0
Mg91 Mg 0.25165 0.97122 0.81903 0.0
C92 C 0.28692 0.94434 0.82452 0.0
O93 O 0.27797 0.88863 0.82541 0.0
C94 C 0.21709 0.01739 0.81486 0.0
O95 O 0.21887 0.95727 0.81157 0.0
C96 C 0.23836 0.94522 0.83614 0.0
O97 O 0.23627 0.00967 0.83485 0.0
O98 O 0.24403 0.9094 0.83 0.0
O99 O 0.27886 -0.00346 0.82197 0.0
O100 O 0.25356 0.93557 0.80586 0.0
C101 C 0.26045 0.98163 0.80133 0.0
O102 O 0.26546 0.03684 0.80517 0.0
O103 O 0.23036 0.0441 0.81842 0.0
Mg104 Mg 0.50832 0.54302 0.57223 0.0
C105 C 0.50206 0.51801 0.55443 0.0
O106 O 0.50383 0.4599 0.55826 0.0
C107 C 0.51397 0.58639 0.58962 0.0
O108 O 0.52379 0.53319 0.58845 0.0
C109 C 0.47471 0.48898 0.57839 0.0
O110 O 0.47479 0.55102 0.58114 0.0
O111 O 0.48833 0.46652 0.57465 0.0
O112 O 0.50274 0.57088 0.55897 0.0
O113 O 0.5364 0.51996 0.57224 0.0
C114 C 0.54545 0.558 0.56742 0.0
O115 O 0.53721 0.59957 0.56233 0.0
O116 O 0.50564 0.60998 0.58325 0.0
Mg117 Mg 0.76072 0.73304 0.57237 0.0
C118 C 0.75189 0.735 0.55461 0.0
O119 O 0.74565 0.78995 0.55807 0.0
C120 C 0.77387 0.70487 0.58944 0.0
O121 O 0.77744 0.7682 0.58803 0.0
C122 C 0.79687 0.76122 0.57031 0.0
O123 O 0.79442 0.69616 0.56994 0.0
O124 O 0.78349 0.79869 0.57126 0.0
O125 O 0.75948 0.69265 0.55944 0.0
O126 O 0.73389 0.76874 0.5745 0.0
C127 C 0.72508 0.74448 0.58067 0.0
O128 O 0.73334 0.71062 0.58661 0.0
O129 O 0.76693 0.6708 0.58346 0.0
Mg130 Mg 0.50064 0.71496 0.69442 0.0
C131 C 0.50993 0.73043 0.71219 0.0
O132 O 0.51675 0.78136 0.70805 0.0
C133 C 0.48117 0.65694 0.67923 0.0
O134 O 0.46944 0.70132 0.68158 0.0
C135 C 0.46951 0.79747 0.69913 0.0
O136 O 0.4722 0.76377 0.70619 0.0
O137 O 0.48092 0.79394 0.69321 0.0
O138 O 0.50163 0.68638 0.70791 0.0
O139 O 0.52816 0.73431 0.69151 0.0
C140 C 0.53603 0.67892 0.69023 0.0
O141 O 0.52684 0.62339 0.69056 0.0
O142 O 0.49389 0.64433 0.68423 0.0
Mg143 Mg 0.75743 0.53488 0.69625 0.0
C144 C 0.75578 0.51391 0.71405 0.0
O145 O 0.7509 0.45929 0.71003 0.0
C146 C 0.75683 0.5614 0.67873 0.0
O147 O 0.75063 0.5013 0.68032 0.0
C148 C 0.79257 0.49308 0.69691 0.0
O149 O 0.79127 0.55533 0.69954 0.0
O150 O 0.77856 0.46253 0.69481 0.0
O151 O 0.76 0.56476 0.70958 0.0
O152 O 0.72951 0.51352 0.69515 0.0
C153 C 0.72142 0.56752 0.69696 0.0
O154 O 0.73074 0.6197 0.69929 0.0
O155 O 0.76177 0.59713 0.68503 0.0
Mg156 Mg 0.5044 0.47253 0.44458 0.0
C157 C 0.46689 0.46135 0.44845 0.0
O158 O 0.47446 0.41824 0.45358 0.0
C159 C 0.53979 0.51034 0.4406 0.0
O160 O 0.53868 0.445 0.43986 0.0
C161 C 0.50138 0.442 0.42693 0.0
O162 O 0.4945 0.50123 0.42836 0.0
O163 O 0.50704 0.40868 0.4333 0.0
O164 O 0.47657 0.49948 0.44395 0.0
O165 O 0.50868 0.44258 0.45787 0.0
C166 C 0.50954 0.49523 0.46245 0.0
O167 O 0.50857 0.5536 0.45862 0.0
O168 O 0.52597 0.54297 0.44251 0.0
Mg169 Mg 0.25207 0.29032 0.44103 0.0
C170 C 0.28778 0.27883 0.43261 0.0
O171 O 0.27945 0.30955 0.42643 0.0
C172 C 0.21753 0.23028 0.44485 0.0
O173 O 0.21978 0.27387 0.45101 0.0
C174 C 0.23433 0.36523 0.42659 0.0
O175 O 0.22096 0.32892 0.4291 0.0
O176 O 0.24803 0.36679 0.43122 0.0
O177 O 0.279 0.2564 0.4389 0.0
O178 O 0.25298 0.31627 0.45459 0.0
C179 C 0.25858 0.26644 0.45888 0.0
O180 O 0.26294 0.2118 0.45472 0.0
O181 O 0.23002 0.22082 0.43958 0.0
Mg182 Mg 0.51367 0.2859 0.32084 0.0
C183 C 0.47801 0.28755 0.32884 0.0
O184 O 0.48633 0.33166 0.33353 0.0
C185 C 0.54897 0.24891 0.31709 0.0
O186 O 0.54695 0.31248 0.31517 0.0
C187 C 0.52795 0.31341 0.33782 0.0
O188 O 0.5317 0.25035 0.33634 0.0
O189 O 0.52091 0.34763 0.33186 0.0
O190 O 0.48672 0.25329 0.32345 0.0
O191 O 0.5119 0.3245 0.30779 0.0
C192 C 0.5036 0.28273 0.30316 0.0
O193 O 0.49703 0.2292 0.30682 0.0
O194 O 0.53564 0.21645 0.31971 0.0
Mg195 Mg 0.25976 0.48259 0.32069 0.0
C196 C 0.29648 0.45298 0.31701 0.0
O197 O 0.28745 0.41082 0.31233 0.0
C198 C 0.23321 0.57057 0.32967 0.0
O199 O 0.23794 0.53392 0.33623 0.0
C200 C 0.2642 0.40052 0.33655 0.0
O201 O 0.28053 0.41593 0.33483 0.0
O202 O 0.25254 0.41324 0.33097 0.0
O203 O 0.28817 0.49634 0.32139 0.0
O204 O 0.25485 0.45985 0.30724 0.0
C205 C 0.25751 0.51216 0.30276 0.0
O206 O 0.26193 0.56761 0.30672 0.0
O207 O 0.2421 0.56684 0.32282 0.0
Mg208 Mg 0.01135 0.0224 0.56933 0.0
C209 C 0.01968 0.01418 0.55158 0.0
O210 O 0.02407 0.95723 0.55519 0.0
C211 C 0.99573 0.05523 0.5859 0.0
O212 O 0.9911 0.993 0.58445 0.0
C213 C 0.97584 0.9896 0.5657 0.0
O214 O 0.97831 0.05345 0.56407 0.0
O215 O 0.98899 0.95493 0.56807 0.0
O216 O 0.01356 0.06052 0.55631 0.0
O217 O 0.03798 0.98728 0.57201 0.0
C218 C 0.04609 0.01193 0.57838 0.0
O219 O 0.03718 0.04644 0.58403 0.0
O220 O 1.00415 0.08661 0.58012 0.0
Mg221 Mg 0.265 0.19883 0.56875 0.0
C222 C 0.25965 0.22442 0.55086 0.0
O223 O 0.25451 0.27763 0.5551 0.0
C224 C 0.2836 0.13555 0.58382 0.0
O225 O 0.29558 0.17936 0.58162 0.0
C226 C 0.29875 0.2597 0.56546 0.0
O227 O 0.29788 0.2057 0.56071 0.0
O228 O 0.28536 0.2756 0.5699 0.0
O229 O 0.26535 0.17447 0.55509 0.0
O230 O 0.2372 0.21872 0.57107 0.0
C231 C 0.22826 0.17134 0.5678 0.0
O232 O 0.23662 0.12363 0.56372 0.0
O233 O 0.27061 0.1261 0.57886 0.0
Mg234 Mg 1.00316 0.20886 0.69325 0.0
C235 C 0.99421 0.22272 0.71103 0.0
O236 O 0.99332 0.28267 0.70761 0.0
C237 C 0.00927 0.18033 0.67569 0.0
O238 O 0.01666 0.23794 0.67753 0.0
C239 C 0.96878 0.25118 0.68843 0.0
O240 O 0.96961 0.18592 0.6875 0.0
O241 O 0.98253 0.28213 0.69081 0.0
O242 O 0.99758 0.17321 0.70616 0.0
O243 O 0.0311 0.23075 0.69396 0.0
C244 C 0.03868 0.17528 0.69555 0.0
O245 O 0.02882 0.12215 0.69675 0.0
O246 O 1.00195 0.14773 0.6817 0.0
Mg247 Mg 0.25976 0.0017 0.69127 0.0
C248 C 0.25897 0.98773 0.70922 0.0
O249 O 0.25192 0.93485 0.70561 0.0
C250 C 0.25562 0.04544 0.67363 0.0
O251 O 0.24311 0.0017 0.67503 0.0
C252 C 0.28684 0.90698 0.68394 0.0
O253 O 0.28298 0.93936 0.6769 0.0
O254 O 0.27716 0.9152 0.69047 0.0
O255 O 0.26468 0.03422 0.70438 0.0
O256 O 0.23126 0.99256 0.69141 0.0
C257 C 0.22462 0.05098 0.69188 0.0
O258 O 0.23531 0.10251 0.69217 0.0
O259 O 0.26558 0.06149 0.67983 0.0
Mg260 Mg 0.01011 0.97145 0.44183 0.0
C261 C 0.97416 0.93019 0.44487 0.0
O262 O 0.98417 0.88275 0.44802 0.0
C263 C 0.03651 0.06087 0.43298 0.0
O264 O 0.03252 0.02201 0.42652 0.0
C265 C 1.00586 0.90136 0.42536 0.0
O266 O 0.99086 0.93237 0.4264 0.0
O267 O 0.01688 0.9024 0.43146 0.0
O268 O 0.98153 0.9817 0.44168 0.0
O269 O 0.01569 0.94784 0.45515 0.0
C270 C 0.01053 -0.00319 0.45972 0.0
O271 O 1.00334 0.0483 0.45586 0.0
O272 O 0.02727 0.05748 0.43974 0.0
Mg273 Mg 0.75338 0.77077 0.44533 0.0
C274 C 0.78883 0.79974 0.44007 0.0
O275 O 0.77971 0.8549 0.43906 0.0
C276 C 0.71851 0.72764 0.44887 0.0
O277 O 0.72026 0.78958 0.45155 0.0
C278 C 0.74209 0.79184 0.42812 0.0
O279 O 0.74276 0.72697 0.42946 0.0
O280 O 0.74557 0.83086 0.43433 0.0
O281 O 0.78085 0.74721 0.44258 0.0
O282 O 0.75419 0.80823 0.4584 0.0
C283 C 0.76266 0.76723 0.46307 0.0
O284 O 0.77012 0.71548 0.45939 0.0
O285 O 0.73198 0.69815 0.44586 0.0
Mg286 Mg 0.01835 0.7767 0.32162 0.0
C287 C 0.98283 0.8139 0.32396 0.0
O288 O 0.99201 0.86705 0.32185 0.0
C289 C 0.05044 0.69925 0.31756 0.0
O290 O 0.0479 0.73419 0.31058 0.0
C291 C 0.03808 0.84646 0.33585 0.0
O292 O 0.05071 0.80642 0.33334 0.0
O293 O 0.02452 0.85239 0.33119 0.0
O294 O 0.99085 0.75812 0.32462 0.0
O295 O 0.01712 0.80105 0.30804 0.0
C296 C 0.00965 0.75407 0.30392 0.0
O297 O 1.00387 0.70204 0.30822 0.0
O298 O 0.03868 0.70045 0.32333 0.0
Mg299 Mg 0.76078 0.95505 0.3212 0.0
C300 C 0.79608 0.91585 0.32393 0.0
O301 O 0.78613 0.86227 0.32349 0.0
C302 C 0.72566 -0.00288 0.32164 0.0
O303 O 0.72654 0.93144 0.32183 0.0
C304 C 0.7567 0.94382 0.33898 0.0
O305 O 0.76203 0.00431 0.33694 0.0
O306 O 0.75442 0.90171 0.33297 0.0
O307 O 0.78876 0.97292 0.32317 0.0
O308 O 0.75875 0.91359 0.30832 0.0
C309 C 0.76943 0.94174 0.3032 0.0
O310 O 0.78081 0.98449 0.30631 0.0
O311 O 0.73995 0.03002 0.32118 0.0
Mg312 Mg 0.00893 0.52421 0.06995 0.0
C313 C 0.01099 0.50296 0.05206 0.0
O314 O 0.01625 0.44856 0.05602 0.0
C315 C 1.00079 0.55336 0.08732 0.0
O316 O 1.00156 0.48804 0.08643 0.0
C317 C 0.97338 0.48654 0.07071 0.0
O318 O 0.97469 0.55181 0.06988 0.0
O319 O 0.98746 0.4522 0.07092 0.0
O320 O 1.0064 0.55304 0.05657 0.0
O321 O 0.0368 0.50208 0.07168 0.0
C322 C 0.04598 0.54695 0.068 0.0
O323 O 0.03784 0.59343 0.0636 0.0
O324 O 1.00354 0.58992 0.08078 0.0
Mg325 Mg 0.26105 0.72115 0.07109 0.0
C326 C 0.25255 0.74133 0.05317 0.0
O327 O 0.24602 0.79301 0.05726 0.0
C328 C 0.28011 0.64786 0.08522 0.0
O329 O 0.29304 0.68586 0.08256 0.0
C330 C 0.29435 0.79153 0.06697 0.0
O331 O 0.29171 0.75523 0.06012 0.0
O332 O 0.28242 0.79333 0.07266 0.0
O333 O 0.2601 0.69566 0.0575 0.0
O334 O 0.23404 0.75134 0.07377 0.0
C335 C 0.22613 0.7288 0.08032 0.0
O336 O 0.23533 0.69948 0.08632 0.0
O337 O 0.2663 0.64416 0.08069 0.0
Mg338 Mg 1.00171 0.7417 0.19413 0.0
C339 C 1.00368 0.74939 0.21195 0.0
O340 O 0.00872 0.8059 0.20842 0.0
C341 C 1.00625 0.7178 0.17633 0.0
O342 O 0.01406 0.77422 0.17834 0.0
C343 C 0.9702 0.8206 0.18785 0.0
O344 O 0.97371 0.78709 0.18086 0.0
O345 O 0.9811 0.8185 0.194 0.0
O346 O 0.99877 0.70207 0.20704 0.0
O347 O 0.03001 0.7607 0.1941 0.0
C348 C 0.03747 0.70356 0.19411 0.0
O349 O 0.02748 0.64999 0.19423 0.0
O350 O 0.99873 0.68492 0.18227 0.0
Mg351 Mg 0.25944 0.53657 0.19272 0.0
C352 C 0.26167 0.51748 0.21063 0.0
O353 O 0.25715 0.46087 0.20698 0.0
C354 C 0.2541 0.58596 0.17537 0.0
O355 O 0.24145 0.54279 0.17674 0.0
C356 C 0.2874 0.44764 0.1848 0.0
O357 O 0.28345 0.48293 0.17801 0.0
O358 O 0.27773 0.45272 0.19139 0.0
O359 O 0.26447 0.56807 0.20585 0.0
O360 O 0.23095 0.52442 0.19307 0.0
C361 C 0.22401 0.58117 0.19463 0.0
O362 O 0.23445 0.63251 0.19588 0.0
O363 O 0.26445 0.59973 0.18151 0.0
Mg364 Mg 0.01147 0.46478 0.94238 0.0
C365 C 0.97643 0.48258 0.9336 0.0
O366 O 0.98503 0.45353 0.92737 0.0
C367 C 0.04697 0.50474 0.9464 0.0
O368 O 0.04462 0.44545 0.94985 0.0
C369 C 0.02797 0.40866 0.92654 0.0
O370 O 0.03887 0.45748 0.9283 0.0
O371 O 0.01615 0.39389 0.93196 0.0
O372 O 0.98489 0.50198 0.94015 0.0
O373 O 0.00973 0.43128 0.95561 0.0
C374 C 1.00438 0.4798 0.9602 0.0
O375 O 1.0005 0.53653 0.9564 0.0
O376 O 0.03404 0.53219 0.94262 0.0
Mg377 Mg 0.7597 0.26667 0.94332 0.0
C378 C 0.79728 0.28745 0.94676 0.0
O379 O 0.78929 0.32395 0.95254 0.0
C380 C 0.73152 0.18553 0.93453 0.0
O381 O 0.73569 0.22508 0.92815 0.0
C382 C 0.76401 0.36075 0.92851 0.0
O383 O 0.7805 0.35231 0.9306 0.0
O384 O 0.75224 0.34018 0.93363 0.0
O385 O 0.788 0.25108 0.94184 0.0
O386 O 0.75544 0.28585 0.95688 0.0
C387 C 0.75932 0.23362 0.96115 0.0
O388 O 0.76481 0.18058 0.95698 0.0
O389 O 0.74127 0.1849 0.94111 0.0
Mg390 Mg 1.00329 0.2642 0.82013 0.0
C391 C 0.96583 0.26616 0.81518 0.0
O392 O 0.97314 0.30491 0.80943 0.0
C393 C 0.03829 0.22455 0.8255 0.0
O394 O 0.03714 0.28886 0.82712 0.0
C395 C 0.99628 0.30855 0.83742 0.0
O396 O 0.98688 0.25425 0.83629 0.0
O397 O 1.00478 0.33198 0.83109 0.0
O398 O 0.9757 0.23384 0.82028 0.0
O399 O 0.00828 0.29565 0.80697 0.0
C400 C 0.01178 0.24525 0.80228 0.0
O401 O 0.01316 0.18627 0.80592 0.0
O402 O 0.0248 0.19436 0.82265 0.0
Mg403 Mg 0.75363 0.44883 0.82362 0.0
C404 C 0.78894 0.46891 0.83204 0.0
O405 O 0.78079 0.44015 0.83844 0.0
C406 C 0.71808 0.49377 0.82 0.0
O407 O 0.72049 0.4405 0.81524 0.0
C408 C 0.73676 0.37314 0.83826 0.0
O409 O 0.72297 0.40676 0.83569 0.0
O410 O 0.75046 0.37335 0.83362 0.0
O411 O 0.78004 0.48784 0.82562 0.0
O412 O 0.75495 0.42214 0.81013 0.0
C413 C 0.7592 0.47416 0.8059 0.0
O414 O 0.76212 0.52988 0.81012 0.0
O415 O 0.73084 0.51474 0.82451 0.0
C416 C 0.48742 0.11808 0.10057 0.0
C417 C 0.50458 0.10184 0.09805 0.0
C418 C 0.48342 0.12777 0.10923 0.0
C419 C 0.50436 0.15421 0.13054 0.0
H420 H 0.46218 0.07096 0.13934 0.0
C421 C 0.49581 0.10558 0.16633 0.0
C422 C 0.48017 0.12947 0.16997 0.0
C423 C 0.49755 0.10036 0.15748 0.0
C424 C 0.47396 0.09473 0.13696 0.0
H425 H 0.5311 0.08644 0.10258 0.0
H426 H 0.5242 0.10246 0.1175 0.0
H427 H 0.46748 0.07331 0.12395 0.0
H428 H 0.45366 0.16156 0.16715 0.0
H429 H 0.45665 0.1512 0.15169 0.0
H430 H 0.51106 0.17404 0.14354 0.0
C431 C 0.51377 0.10848 0.11288 0.0
C432 C 0.47695 0.09658 0.12813 0.0
C433 C 0.51774 0.09887 0.10429 0.0
C434 C 0.4659 0.14315 0.16456 0.0
C435 C 0.4676 0.13725 0.1557 0.0
C436 C 0.50147 0.15168 0.13933 0.0
C437 C 0.49652 0.12173 0.11552 0.0
C438 C 0.49233 0.12555 0.12481 0.0
C439 C 0.48365 0.11814 0.15205 0.0
C440 C 0.48636 0.12117 0.14266 0.0
H441 H 0.47697 0.1203 0.09591 0.0
H442 H 0.47002 0.13879 0.11101 0.0
H443 H 0.51615 0.17836 0.12824 0.0
H444 H 0.50707 0.09446 0.17028 0.0
H445 H 0.50999 0.08428 0.15485 0.0
C446 C 0.76762 0.97942 0.16231 0.0
C447 C 0.76753 0.03096 0.16842 0.0
C448 C 0.76994 0.99352 0.15368 0.0
C449 C 0.78584 0.11964 0.1384 0.0
H450 H 0.75426 0.02896 0.12285 0.0
C451 C 0.77653 0.20212 0.10351 0.0
C452 C 0.77314 0.15374 0.09721 0.0
C453 C 0.77783 0.18418 0.11208 0.0
C454 C 0.76341 0.0538 0.12707 0.0
H455 H 0.77042 0.13786 0.17025 0.0
H456 H 0.77446 0.16286 0.15503 0.0
H457 H 0.75252 0.00615 0.13807 0.0
H458 H 0.76913 0.04792 0.09496 0.0
H459 H 0.7716 0.01605 0.11001 0.0
H460 H 0.79668 0.16754 0.12738 0.0
C461 C 0.77276 0.1113 0.157 0.0
C462 C 0.76236 0.04097 0.13581 0.0
C463 C 0.7704 0.0971 0.1657 0.0
C464 C 0.77171 0.08634 0.09966 0.0
C465 C 0.773 0.06827 0.10829 0.0
C466 C 0.78694 0.13231 0.12964 0.0
C467 C 0.77223 0.05962 0.15089 0.0
C468 C 0.7735 0.0739 0.14159 0.0
C469 C 0.77581 0.11724 0.11461 0.0
C470 C 0.77565 0.09991 0.12386 0.0
H471 H 0.76567 0.92771 0.16416 0.0
H472 H 0.76985 0.95241 0.14918 0.0
H473 H 0.79477 0.14511 0.14267 0.0
H474 H 0.77779 0.25457 0.10187 0.0
H475 H 0.77976 0.22341 0.11675 0.0
C476 C 0.49475 0.82878 0.85492 0.0
C477 C 0.50667 0.84759 0.84852 0.0
C478 C 0.49884 0.83722 0.86352 0.0
C479 C 0.52831 0.92224 0.87873 0.0
H480 H 0.51632 0.77115 0.89316 0.0
C481 C 0.54808 0.91415 0.91425 0.0
C482 C 0.53491 0.89449 0.92002 0.0
C483 C 0.546 0.90438 0.90548 0.0
C484 C 0.51964 0.81399 0.88925 0.0
H485 H 0.53193 0.89319 0.84613 0.0
H486 H 0.53915 0.90824 0.86126 0.0
H487 H 0.50972 0.76727 0.87798 0.0
H488 H 0.50963 0.84571 0.92106 0.0
H489 H 0.50603 0.82855 0.90578 0.0
H490 H 0.53809 0.96919 0.89004 0.0
C491 C 0.52657 0.88702 0.85958 0.0
C492 C 0.51584 0.81186 0.88053 0.0
C493 C 0.52242 0.87869 0.85091 0.0
C494 C 0.52008 0.86122 0.91683 0.0
C495 C 0.51801 0.85142 0.90804 0.0
C496 C 0.53212 0.9244 0.88747 0.0
C497 C 0.51502 0.86443 0.86598 0.0
C498 C 0.5199 0.86629 0.87518 0.0
C499 C 0.53073 0.87454 0.90224 0.0
C500 C 0.52766 0.87055 0.89286 0.0
H501 H 0.48241 0.80527 0.85329 0.0
H502 H 0.48942 0.82101 0.86826 0.0
H503 H 0.53151 0.96517 0.87481 0.0
H504 H 0.55972 0.93964 0.91648 0.0
H505 H 0.55623 0.92151 0.90122 0.0
C506 C 0.22771 0.95735 0.85107 0.0
C507 C 0.23686 0.91944 0.84497 0.0
C508 C 0.2288 0.94178 0.85973 0.0
C509 C 0.25901 0.86263 0.87487 0.0
H510 H 0.22079 0.88496 0.89093 0.0
C511 C 0.26558 0.7896 0.91015 0.0
C512 C 0.25765 0.82981 0.91642 0.0
C513 C 0.26272 0.80152 0.90151 0.0
C514 C 0.23165 0.87944 0.88654 0.0
H515 H 0.25357 0.83303 0.84313 0.0
H516 H 0.25535 0.80509 0.85832 0.0
H517 H 0.21531 0.89685 0.87566 0.0
H518 H 0.24066 0.9151 0.91849 0.0
H519 H 0.23573 0.93669 0.90325 0.0
H520 H 0.27539 0.84579 0.88571 0.0
C521 C 0.2475 0.84759 0.85638 0.0
C522 C 0.22849 0.88585 0.87778 0.0
C523 C 0.24632 0.86304 0.84767 0.0
C524 C 0.247 0.88339 0.91381 0.0
C525 C 0.24407 0.8953 0.9051 0.0
C526 C 0.26216 0.85633 0.88361 0.0
C527 C 0.23913 0.88795 0.86253 0.0
C528 C 0.24214 0.87742 0.87183 0.0
C529 C 0.25184 0.85414 0.89885 0.0
C530 C 0.24852 0.86441 0.88957 0.0
H531 H 0.22025 0.00106 0.84919 0.0
H532 H 0.22227 0.97421 0.86426 0.0
H533 H 0.26992 0.85741 0.87051 0.0
H534 H 0.27388 0.74782 0.91191 0.0
H535 H 0.26872 0.76818 0.89692 0.0
C536 C 0.52311 0.59244 0.60481 0.0
C537 C 0.51092 0.60962 0.59847 0.0
C538 C 0.5193 0.60237 0.61342 0.0
C539 C 0.48188 0.61531 0.62814 0.0
H540 H 0.51802 0.66246 0.64441 0.0
C541 C 0.46915 0.65779 0.66435 0.0
C542 C 0.48226 0.63742 0.6701 0.0
C543 C 0.47172 0.65239 0.65554 0.0
C544 C 0.50782 0.64835 0.63997 0.0
H545 H 0.4854 0.65334 0.59618 0.0
H546 H 0.47875 0.67164 0.61132 0.0
H547 H 0.52445 0.666 0.62922 0.0
H548 H 0.50788 0.5911 0.67105 0.0
H549 H 0.51223 0.58083 0.6557 0.0
H550 H 0.46526 0.59774 0.63895 0.0
C551 C 0.49122 0.64972 0.60959 0.0
C552 C 0.51149 0.65069 0.63124 0.0
C553 C 0.49511 0.64008 0.60092 0.0
C554 C 0.49751 0.60748 0.66683 0.0
C555 C 0.5001 0.60231 0.65801 0.0
C556 C 0.47819 0.61318 0.63689 0.0
C557 C 0.50316 0.62968 0.61595 0.0
C558 C 0.49865 0.63339 0.6252 0.0
C559 C 0.48748 0.62664 0.65226 0.0
C560 C 0.4912 0.62886 0.64292 0.0
H561 H 0.53541 0.56879 0.60314 0.0
H562 H 0.52875 0.58563 0.6181 0.0
H563 H 0.47175 0.60076 0.62369 0.0
H564 H 0.45722 0.68102 0.66664 0.0
H565 H 0.46172 0.67167 0.6513 0.0
C566 C 0.74918 0.54728 0.66345 0.0
C567 C 0.75833 0.58321 0.66974 0.0
C568 C 0.7514 0.56179 0.65484 0.0
C569 C 0.78257 0.63508 0.63966 0.0
H570 H 0.74281 0.62752 0.62431 0.0
C571 C 0.78558 0.71432 0.60421 0.0
C572 C 0.77532 0.67915 0.59826 0.0
C573 C 0.78475 0.69902 0.61288 0.0
C574 C 0.75409 0.62873 0.62848 0.0
H575 H 0.77675 0.66388 0.67189 0.0
H576 H 0.78062 0.68989 0.65668 0.0
H577 H 0.73822 0.61531 0.63959 0.0
H578 H 0.75687 0.59774 0.59671 0.0
H579 H 0.75551 0.57034 0.61192 0.0
H580 H 0.79842 0.64879 0.62851 0.0
C581 C 0.7718 0.6499 0.6585 0.0
C582 C 0.75145 0.62216 0.63726 0.0
C583 C 0.76948 0.6355 0.6672 0.0
C584 C 0.76495 0.62563 0.60113 0.0
C585 C 0.76404 0.6105 0.60984 0.0
C586 C 0.78521 0.64177 0.63086 0.0
C587 C 0.76285 0.61272 0.65222 0.0
C588 C 0.76565 0.62477 0.64295 0.0
C589 C 0.77357 0.64828 0.61584 0.0
C590 C 0.771 0.63833 0.62517 0.0
H591 H 0.74044 0.50676 0.66517 0.0
H592 H 0.74448 0.53153 0.65021 0.0
H593 H 0.79381 0.63634 0.64386 0.0
H594 H 0.79377 0.75571 0.60219 0.0
H595 H 0.79219 0.72936 0.6173 0.0
C596 C 0.5165 0.37235 0.41566 0.0
C597 C 0.50392 0.42042 0.41797 0.0
C598 C 0.52029 0.36049 0.40702 0.0
C599 C 0.51721 0.44466 0.38599 0.0
H600 H 0.52437 0.26738 0.37665 0.0
C601 C 0.51807 0.38978 0.34964 0.0
C602 C 0.52899 0.33808 0.34671 0.0
C603 C 0.51667 0.40308 0.3584 0.0
C604 C 0.52269 0.31741 0.37917 0.0
H605 H 0.48476 0.49071 0.41302 0.0
H606 H 0.49115 0.46941 0.39812 0.0
H607 H 0.51841 0.28039 0.39184 0.0
H608 H 0.54796 0.26324 0.35059 0.0
H609 H 0.54587 0.28751 0.36575 0.0
H610 H 0.52137 0.48177 0.37334 0.0
C611 C 0.49845 0.44211 0.40292 0.0
C612 C 0.51923 0.32475 0.38789 0.0
C613 C 0.49469 0.4539 0.41148 0.0
C614 C 0.53929 0.30301 0.35265 0.0
C615 C 0.53797 0.31648 0.36136 0.0
C616 C 0.52069 0.43735 0.37728 0.0
C617 C 0.51158 0.39655 0.40056 0.0
C618 C 0.51623 0.38841 0.39139 0.0
C619 C 0.52624 0.36517 0.36439 0.0
C620 C 0.52333 0.37359 0.37373 0.0
H621 H 0.52388 0.34604 0.42051 0.0
H622 H 0.53048 0.32497 0.40541 0.0
H623 H 0.5153 0.49461 0.38851 0.0
H624 H 0.50987 0.41732 0.34524 0.0
H625 H 0.50745 0.44081 0.3605 0.0
C626 C 0.24166 0.38623 0.3482 0.0
C627 C 0.25927 0.38592 0.34553 0.0
C628 C 0.23745 0.38542 0.35692 0.0
C629 C 0.25591 0.43821 0.37735 0.0
H630 H 0.22159 0.32181 0.38789 0.0
C631 C 0.25126 0.40573 0.41385 0.0
C632 C 0.23518 0.38766 0.41756 0.0
C633 C 0.25284 0.41237 0.405 0.0
C634 C 0.23097 0.35579 0.38505 0.0
H635 H 0.28616 0.38011 0.34996 0.0
H636 H 0.2788 0.37908 0.36505 0.0
H637 H 0.22669 0.31511 0.37255 0.0
H638 H 0.20778 0.36825 0.41489 0.0
H639 H 0.21035 0.38261 0.39952 0.0
H640 H 0.2601 0.47984 0.38973 0.0
C641 C 0.26827 0.38085 0.36042 0.0
C642 C 0.23394 0.35151 0.37625 0.0
C643 C 0.27247 0.38092 0.35176 0.0
C644 C 0.22042 0.38155 0.41225 0.0
C645 C 0.22195 0.38897 0.4034 0.0
C646 C 0.25278 0.44318 0.38611 0.0
C647 C 0.25077 0.38495 0.36311 0.0
C648 C 0.24668 0.39181 0.37234 0.0
C649 C 0.23831 0.40216 0.39962 0.0
C650 C 0.24049 0.40123 0.39014 0.0
H651 H 0.23117 0.39025 0.34359 0.0
H652 H 0.22383 0.3884 0.35882 0.0
H653 H 0.26559 0.47085 0.37448 0.0
H654 H 0.2629 0.41107 0.41772 0.0
H655 H 0.2657 0.42212 0.40237 0.0
C656 C 0.98175 0.05114 0.60023 0.0
C657 C 0.9938 0.08163 0.59467 0.0
C658 C 0.982 0.06511 0.60894 0.0
C659 C 0.99941 0.18053 0.62539 0.0
H660 H 0.99613 0.02383 0.63995 0.0
C661 C 0.01908 0.19131 0.66063 0.0
C662 C 0.00816 0.15983 0.66663 0.0
C663 C 0.01681 0.1805 0.65192 0.0
C664 C 0.99685 0.0682 0.63599 0.0
H665 H 0.01494 0.15358 0.59382 0.0
H666 H 0.01547 0.178 0.60911 0.0
H667 H 0.99242 0.01212 0.62459 0.0
H668 H 0.98668 0.09011 0.66821 0.0
H669 H 0.98264 0.07098 0.65288 0.0
H670 H 1.004 0.23649 0.6368 0.0
C671 C 1.00573 0.14347 0.60671 0.0
C672 C 0.9947 0.06159 0.62718 0.0
C673 C 1.00542 0.12967 0.59794 0.0
C674 C 0.99535 0.11478 0.66373 0.0
C675 C 0.99304 0.10401 0.65496 0.0
C676 C 1.00156 0.18713 0.63421 0.0
C677 C 0.99437 0.10969 0.61234 0.0
C678 C 0.99604 0.11762 0.62176 0.0
C679 C 1.0035 0.13805 0.64895 0.0
C680 C 1.00047 0.13095 0.63961 0.0
H681 H 0.97251 0.01435 0.59789 0.0
H682 H 0.97276 0.03954 0.61305 0.0
H683 H 1.00027 0.22483 0.62143 0.0
H684 H 0.02921 0.22576 0.66264 0.0
H685 H 0.02541 0.2061 0.6475 0.0
C686 C 0.29721 0.12484 0.59829 0.0
C687 C 0.28311 0.11129 0.59278 0.0
C688 C 0.29566 0.11419 0.60707 0.0
C689 C 0.26822 0.03199 0.62368 0.0
H690 H 0.28599 0.17372 0.6382 0.0
C691 C 0.24637 0.05437 0.65846 0.0
C692 C 0.25928 0.06544 0.66469 0.0
C693 C 0.2502 0.06153 0.64982 0.0
C694 C 0.28113 0.13337 0.63425 0.0
H695 H 0.25663 0.07252 0.59218 0.0
H696 H 0.25389 0.0541 0.60748 0.0
H697 H 0.2913 0.17787 0.62285 0.0
H698 H 0.28617 0.09606 0.66672 0.0
H699 H 0.2929 0.10917 0.65149 0.0
H700 H 0.2578 0.9881 0.63504 0.0
C701 C 0.26622 0.07264 0.60502 0.0
C702 C 0.28421 0.13556 0.62544 0.0
C703 C 0.26778 0.08318 0.59622 0.0
C704 C 0.27592 0.08753 0.66208 0.0
C705 C 0.27978 0.09478 0.65336 0.0
C706 C 0.2651 0.02995 0.63246 0.0
C707 C 0.27998 0.08972 0.61059 0.0
C708 C 0.27763 0.08521 0.62003 0.0
C709 C 0.26707 0.07992 0.64713 0.0
C710 C 0.27131 0.08104 0.63785 0.0
H711 H 0.30926 0.1462 0.59586 0.0
H712 H 0.30666 0.12648 0.61113 0.0
H713 H 0.26324 0.99172 0.61975 0.0
H714 H 0.23335 0.03802 0.66025 0.0
H715 H 0.23998 0.05144 0.64521 0.0
C716 C 0.02122 0.88646 0.34859 0.0
C717 C 0.03726 0.86685 0.34495 0.0
C718 C 0.01932 0.89028 0.35744 0.0
C719 C 0.04213 0.90098 0.37802 0.0
H720 H 1.00236 0.79923 0.38631 0.0
C721 C 0.02839 0.87098 0.41424 0.0
C722 C 0.01079 0.87931 0.41665 0.0
C723 C 0.03289 0.86291 0.40562 0.0
C724 C 0.01344 0.82847 0.38413 0.0
H725 H 0.06427 0.84145 0.34776 0.0
H726 H 0.06099 0.84971 0.36324 0.0
H727 H 1.00767 0.8075 0.37105 0.0
H728 H 0.98408 0.88191 0.41196 0.0
H729 H 0.99181 0.869 0.39711 0.0
H730 H 0.04758 0.92383 0.39109 0.0
C731 C 0.04986 0.86116 0.35922 0.0
C732 C 0.01646 0.83317 0.37537 0.0
C733 C 0.05172 0.85651 0.35035 0.0
C734 C 0.99778 0.87569 0.41034 0.0
C735 C 1.00224 0.86786 0.40178 0.0
C736 C 0.03896 0.89707 0.38681 0.0
C737 C 0.03346 0.87553 0.36285 0.0
C738 C 0.03069 0.87018 0.37221 0.0
C739 C 0.01986 0.86285 0.39925 0.0
C740 C 0.0244 0.86151 0.38998 0.0
H741 H 0.0098 0.89492 0.34464 0.0
H742 H 1.0066 0.90261 0.36007 0.0
H743 H 0.05322 0.92971 0.37575 0.0
H744 H 0.03874 0.87384 0.41894 0.0
H745 H 0.04658 0.85813 0.40393 0.0
C746 C 0.74467 0.88064 0.41678 0.0
C747 C 0.73941 0.81628 0.41931 0.0
C748 C 0.74455 0.8985 0.40813 0.0
C749 C 0.72821 0.84577 0.3867 0.0
H750 H 0.77011 0.93517 0.37865 0.0
C751 C 0.74711 0.86528 0.35075 0.0
C752 C 0.7536 0.92772 0.34808 0.0
C753 C 0.74433 0.85237 0.35945 0.0
C754 C 0.75824 0.91072 0.3808 0.0
H755 H 0.72888 0.72175 0.41483 0.0
H756 H 0.7288 0.75248 0.39987 0.0
H757 H 0.7661 0.91646 0.39385 0.0
H758 H 0.76207 0.02563 0.35249 0.0
H759 H 0.75719 0.00325 0.36746 0.0
H760 H 0.72053 0.8393 0.37357 0.0
C761 C 0.73296 0.78946 0.40449 0.0
C762 C 0.75589 0.90035 0.38953 0.0
C763 C 0.73312 0.77167 0.41309 0.0
C764 C 0.75715 0.97676 0.35428 0.0
C765 C 0.75444 0.96388 0.36291 0.0
C766 C 0.73059 0.85602 0.37794 0.0
C767 C 0.73908 0.85244 0.40187 0.0
C768 C 0.74088 0.8676 0.3926 0.0
C769 C 0.7481 0.90155 0.36562 0.0
C770 C 0.74564 0.88864 0.37489 0.0
H771 H 0.74959 0.91607 0.42142 0.0
H772 H 0.74911 0.94785 0.40633 0.0
H773 H 0.71641 0.82091 0.38885 0.0
H774 H 0.74422 0.82655 0.34613 0.0
H775 H 0.73951 0.80364 0.36136 0.0
C776 C 0.99533 0.64336 0.16442 0.0
C777 C 1.00511 0.69874 0.16721 0.0
C778 C 0.99383 0.62936 0.15568 0.0
C779 C 0.01488 0.66776 0.13479 0.0
H780 H 0.97054 0.60985 0.12533 0.0
C781 C 1.00477 0.64287 0.09844 0.0
C782 C 0.99775 0.58103 0.09593 0.0
C783 C 1.00418 0.66234 0.10703 0.0
C784 C 0.98302 0.62596 0.12788 0.0
H785 H 0.02107 0.78246 0.16297 0.0
H786 H 0.01821 0.75898 0.14794 0.0
H787 H 0.9731 0.62889 0.14066 0.0
H788 H 0.9836 0.49329 0.10028 0.0
H789 H 0.98241 0.52739 0.11513 0.0
H790 H 0.02479 0.66489 0.12202 0.0
C791 C 0.01193 0.72543 0.15242 0.0
C792 C 0.98452 0.63637 0.13668 0.0
C793 C 0.01346 0.73916 0.16109 0.0
C794 C 0.98922 0.54111 0.10203 0.0
C795 C 0.98844 0.56082 0.11055 0.0
C796 C 0.01334 0.65778 0.126 0.0
C797 C 1.0021 0.67049 0.14957 0.0
C798 C 1.00049 0.65733 0.14025 0.0
C799 C 0.99632 0.62073 0.1132 0.0
C800 C 0.99742 0.63653 0.12245 0.0
H801 H 0.98872 0.61134 0.16898 0.0
H802 H 0.98629 0.58617 0.1537 0.0
H803 H 0.02748 0.68273 0.13731 0.0
H804 H 0.01147 0.67448 0.09387 0.0
H805 H 0.01021 0.70919 0.10888 0.0
C806 C 0.27433 0.62627 0.16371 0.0
C807 C 0.25751 0.60753 0.16648 0.0
C808 C 0.27783 0.63439 0.15498 0.0
C809 C 0.25582 0.6525 0.13381 0.0
H810 H 0.29835 0.57236 0.12494 0.0
C811 C 0.264 0.60323 0.09798 0.0
C812 C 0.27962 0.62685 0.09431 0.0
C813 C 0.26232 0.59821 0.10685 0.0
C814 C 0.28646 0.59527 0.12733 0.0
H815 H 0.23103 0.58615 0.16231 0.0
H816 H 0.23707 0.59984 0.14725 0.0
H817 H 0.29356 0.5772 0.14035 0.0
H818 H 0.30623 0.65816 0.09708 0.0
H819 H 0.30334 0.64846 0.11252 0.0
H820 H 0.24857 0.66947 0.12082 0.0
C821 C 0.2476 0.60879 0.15173 0.0
C822 C 0.28377 0.59852 0.13617 0.0
C823 C 0.24414 0.60057 0.1604 0.0
C824 C 0.29397 0.64008 0.09968 0.0
C825 C 0.29233 0.63455 0.10855 0.0
C826 C 0.25845 0.64877 0.12501 0.0
C827 C 0.26456 0.62439 0.14886 0.0
C828 C 0.2683 0.6265 0.13952 0.0
C829 C 0.27628 0.61595 0.11224 0.0
C830 C 0.2737 0.61946 0.12165 0.0
H831 H 0.28493 0.63154 0.16824 0.0
H832 H 0.291 0.64729 0.153 0.0
H833 H 0.24393 0.67566 0.13614 0.0
H834 H 0.25273 0.59193 0.09406 0.0
H835 H 0.2499 0.58228 0.1095 0.0
C836 C 0.01458 0.36406 0.84873 0.0
C837 C 0.99891 0.33286 0.84623 0.0
C838 C 0.01829 0.37358 0.85741 0.0
C839 C 1.00658 0.30071 0.87833 0.0
H840 H 0.02953 0.45701 0.88772 0.0
C841 C 0.01189 0.35136 0.91461 0.0
C842 C 0.02695 0.3841 0.91763 0.0
C843 C 0.00949 0.34098 0.90586 0.0
C844 C 0.02334 0.41252 0.88518 0.0
H845 H 0.97432 0.29198 0.85079 0.0
H846 H 0.98058 0.30996 0.8658 0.0
H847 H 0.02291 0.45282 0.87251 0.0
H848 H 0.05189 0.42693 0.91385 0.0
H849 H 0.04786 0.40758 0.89866 0.0
H850 H 1.00694 0.26042 0.89098 0.0
C851 C 0.99025 0.32524 0.86113 0.0
C852 C 0.01952 0.41028 0.87646 0.0
C853 C 0.98659 0.31554 0.85251 0.0
C854 C 0.04005 0.40211 0.91175 0.0
C855 C 0.03768 0.39162 0.90302 0.0
C856 C 0.01042 0.30292 0.88704 0.0
C857 C 1.00638 0.35219 0.86371 0.0
C858 C 0.01093 0.3546 0.87294 0.0
C859 C 0.02213 0.36286 0.89994 0.0
C860 C 0.01874 0.35901 0.89059 0.0
H861 H 0.02438 0.3774 0.84403 0.0
H862 H 0.03085 0.39454 0.85918 0.0
H863 H 1.00031 0.25635 0.87581 0.0
H864 H 1.00151 0.33705 0.91896 0.0
H865 H 0.99733 0.31882 0.90371 0.0
C866 C 0.77305 0.38235 0.91343 0.0
C867 C 0.75954 0.37472 0.91946 0.0
C868 C 0.76942 0.38088 0.90471 0.0
C869 C 0.73547 0.39951 0.8884 0.0
H870 H 0.76414 0.27467 0.87558 0.0
C871 C 0.72301 0.35601 0.85261 0.0
C872 C 0.7379 0.35254 0.84734 0.0
C873 C 0.72459 0.35121 0.86147 0.0
C874 C 0.75612 0.31033 0.87902 0.0
H875 H 0.73142 0.36466 0.921 0.0
H876 H 0.72508 0.36369 0.9057 0.0
H877 H 0.76906 0.28892 0.89082 0.0
H878 H 0.76597 0.3362 0.84727 0.0
H879 H 0.76883 0.32981 0.86266 0.0
H880 H 0.72291 0.42291 0.87659 0.0
C881 C 0.7385 0.36986 0.90778 0.0
C882 C 0.75894 0.31837 0.88776 0.0
C883 C 0.74215 0.3706 0.91654 0.0
C884 C 0.75423 0.33945 0.85112 0.0
C885 C 0.75584 0.33551 0.85999 0.0
C886 C 0.7328 0.39219 0.87962 0.0
C887 C 0.75219 0.37264 0.90179 0.0
C888 C 0.74875 0.36345 0.89253 0.0
C889 C 0.74112 0.34344 0.86531 0.0
C890 C 0.74318 0.34781 0.87478 0.0
H891 H 0.78659 0.38606 0.91542 0.0
H892 H 0.78019 0.38446 0.90023 0.0
H893 H 0.72748 0.43481 0.89191 0.0
H894 H 0.71019 0.36537 0.84991 0.0
H895 H 0.71287 0.35551 0.86533 0.0
C896 C 0.32471 0.81701 0.06207 0.0
C897 C 0.31225 0.81704 0.06868 0.0
C898 C 0.34238 0.82877 0.06379 0.0
C899 C 0.37355 0.89531 0.07966 0.0
H900 H 0.40596 0.7744 0.06844 0.0
C901 C 0.4475 0.90265 0.08703 0.0
C902 C 0.45875 0.90122 0.07992 0.0
C903 C 0.42977 0.88636 0.08618 0.0
C904 C 0.39713 0.80893 0.07158 0.0
H905 H 0.30849 0.83306 0.08223 0.0
H906 H 0.33946 0.85404 0.08524 0.0
H907 H 0.37464 0.76375 0.06585 0.0
H908 H 0.46032 0.87749 0.06644 0.0
H909 H 0.42946 0.84942 0.06496 0.0
H910 H 0.39607 0.94114 0.0853 0.0
C911 C 0.3355 0.84484 0.07872 0.0
C912 C 0.37915 0.80291 0.07008 0.0
C913 C 0.31774 0.83301 0.07699 0.0
C914 C 0.45207 0.879 0.07206 0.0
C915 C 0.43432 0.86284 0.07121 0.0
C916 C 0.39156 0.90149 0.08114 0.0
C917 C 0.34808 0.84087 0.07217 0.0
C918 C 0.36715 0.84648 0.07403 0.0
C919 C 0.42284 0.86821 0.07821 0.0
C920 C 0.4036 0.85874 0.07706 0.0
H921 H 0.32093 0.8055 0.05558 0.0
H922 H 0.35165 0.82704 0.05857 0.0
H923 H 0.36467 0.92994 0.08276 0.0
H924 H 0.45221 0.91913 0.09319 0.0
H925 H 0.4214 0.88955 0.09174 0.0
C926 C 0.81775 0.32708 0.07117 0.0
C927 C 0.8147 0.26014 0.06887 0.0
C928 C 0.83493 0.35192 0.0716 0.0
C929 C 0.88087 0.29508 0.07397 0.0
H930 H 0.89253 0.46888 0.06461 0.0
C931 C 0.95268 0.38812 0.06984 0.0
C932 C 0.95571 0.45641 0.07136 0.0
C933 C 0.93551 0.36287 0.06983 0.0
C934 C 0.88948 0.42053 0.06735 0.0
H935 H 0.8273 0.16731 0.06505 0.0
H936 H 0.8569 0.21053 0.06575 0.0
H937 H 0.86233 0.42977 0.06414 0.0
H938 H 0.94323 0.55092 0.0745 0.0
H939 H 0.91369 0.507 0.07467 0.0
H940 H 0.90802 0.28589 0.07721 0.0
C941 C 0.84616 0.24366 0.06736 0.0
C942 C 0.87214 0.3982 0.06708 0.0
C943 C 0.82912 0.21906 0.0669 0.0
C944 C 0.94137 0.4982 0.07317 0.0
C945 C 0.92435 0.4731 0.07322 0.0
C946 C 0.89822 0.31752 0.07427 0.0
C947 C 0.84933 0.31013 0.06978 0.0
C948 C 0.86764 0.33513 0.07036 0.0
C949 C 0.92112 0.40546 0.07139 0.0
C950 C 0.90275 0.38058 0.07097 0.0
H951 H 0.80694 0.35992 0.07274 0.0
H952 H 0.83696 0.40339 0.07352 0.0
H953 H 0.87779 0.24651 0.07665 0.0
H954 H 0.96347 0.35476 0.06842 0.0
H955 H 0.93348 0.31048 0.06837 0.0
C956 C 0.44005 0.3402 0.20261 0.0
C957 C 0.45201 0.33202 0.19587 0.0
C958 C 0.42237 0.35267 0.201 0.0
C959 C 0.39045 0.40797 0.18481 0.0
H960 H 0.35826 0.29853 0.19793 0.0
C961 C 0.31611 0.41461 0.17828 0.0
C962 C 0.3051 0.41728 0.18547 0.0
C963 C 0.33387 0.39861 0.17913 0.0
C964 C 0.36701 0.32998 0.19426 0.0
H965 H 0.45486 0.33488 0.18211 0.0
H966 H 0.42389 0.35745 0.17929 0.0
H967 H 0.38967 0.28814 0.20027 0.0
H968 H 0.30403 0.40161 0.19914 0.0
H969 H 0.33493 0.37441 0.20064 0.0
H970 H 0.36781 0.45077 0.17891 0.0
C971 C 0.42826 0.35381 0.18584 0.0
C972 C 0.38505 0.32404 0.19561 0.0
C973 C 0.44603 0.34106 0.18746 0.0
C974 C 0.31207 0.39974 0.19346 0.0
C975 C 0.32986 0.38408 0.19431 0.0
C976 C 0.37238 0.41425 0.18349 0.0
C977 C 0.41615 0.35758 0.1926 0.0
C978 C 0.39699 0.36337 0.19096 0.0
C979 C 0.34111 0.3851 0.18719 0.0
C980 C 0.3604 0.37565 0.18825 0.0
H981 H 0.4442 0.33418 0.20917 0.0
H982 H 0.41346 0.35694 0.20635 0.0
H983 H 0.39929 0.43927 0.18116 0.0
H984 H 0.31117 0.42745 0.17202 0.0
H985 H 0.342 0.39831 0.17347 0.0
C986 C 0.81065 0.87884 0.19181 0.0
C987 C 0.80386 0.88896 0.20005 0.0
C988 C 0.82866 0.8693 0.19056 0.0
C989 C 0.87087 0.90807 0.20102 0.0
H990 H 0.89031 0.79109 0.18374 0.0
C991 C 0.94546 0.85589 0.19746 0.0
C992 C 0.95206 0.84521 0.1892 0.0
C993 C 0.92746 0.86504 0.1988 0.0
C994 C 0.8851 0.82478 0.18852 0.0
H995 H 0.81057 0.89208 0.21348 0.0
H996 H 0.84181 0.87419 0.21132 0.0
H997 H 0.85878 0.79282 0.18613 0.0
H998 H 0.94504 0.84087 0.17582 0.0
H999 H 0.91385 0.85839 0.17812 0.0
H1000 H 0.89719 0.94012 0.2034 0.0
C1001 C 0.83331 0.8754 0.2058 0.0
C1002 C 0.86699 0.82556 0.1899 0.0
C1003 C 0.81535 0.88496 0.20704 0.0
C1004 C 0.9404 0.84837 0.18227 0.0
C1005 C 0.92246 0.85771 0.1836 0.0
C1006 C 0.88898 0.90733 0.19963 0.0
C1007 C 0.84028 0.86954 0.19753 0.0
C1008 C 0.85962 0.8672 0.19617 0.0
C1009 C 0.91567 0.86396 0.1919 0.0
C1010 C 0.89635 0.8658 0.19334 0.0
H1011 H 0.80222 0.88193 0.18627 0.0
H1012 H 0.83355 0.86514 0.1841 0.0
H1013 H 0.86564 0.94174 0.20579 0.0
H1014 H 0.95405 0.85337 0.20295 0.0
H1015 H 0.92271 0.86956 0.20528 0.0
C1016 C 0.70189 0.16554 0.92811 0.0
C1017 C 0.71356 0.15706 0.93497 0.0
C1018 C 0.68407 0.15089 0.92905 0.0
C1019 C 0.65177 0.06515 0.9431 0.0
H1020 H 0.61936 0.19632 0.93394 0.0
C1021 C 0.57996 0.06823 0.95359 0.0
C1022 C 0.56719 0.07334 0.94718 0.0
C1023 C 0.59753 0.08153 0.95183 0.0
C1024 C 0.62822 0.15892 0.93647 0.0
H1025 H 0.7157 0.12286 0.94806 0.0
H1026 H 0.6847 0.09756 0.9497 0.0
H1027 H 0.65069 0.20743 0.93111 0.0
H1028 H 0.56276 0.10056 0.93397 0.0
H1029 H 0.5936 0.12417 0.93087 0.0
H1030 H 0.62937 0.01713 0.94855 0.0
C1031 C 0.6893 0.11526 0.94357 0.0
C1032 C 0.64619 0.16507 0.93482 0.0
C1033 C 0.70713 0.12982 0.94263 0.0
C1034 C 0.57226 0.0964 0.93907 0.0
C1035 C 0.58995 0.10972 0.93729 0.0
C1036 C 0.63385 0.05916 0.94477 0.0
C1037 C 0.67745 0.12732 0.93686 0.0
C1038 C 0.65823 0.11854 0.93818 0.0
C1039 C 0.60285 0.10024 0.94359 0.0
C1040 C 0.62186 0.10634 0.94155 0.0
H1041 H 0.70638 0.18614 0.92211 0.0
H1042 H 0.67541 0.1594 0.92369 0.0
H1043 H 0.66057 0.02771 0.94567 0.0
H1044 H 0.57649 0.05127 0.95994 0.0
H1045 H 0.60705 0.07549 0.95689 0.0
C1046 C 0.19349 0.7419 0.9354 0.0
C1047 C 0.20716 0.71047 0.93986 0.0
C1048 C 0.17648 0.71686 0.93576 0.0
C1049 C 0.14946 0.57011 0.94172 0.0
H1050 H 0.11322 0.7048 0.94436 0.0
C1051 C 0.07849 0.50109 0.95057 0.0
C1052 C 0.06488 0.53336 0.94613 0.0
C1053 C 0.09578 0.52281 0.9498 0.0
C1054 C 0.12314 0.66659 0.94353 0.0
H1055 H 0.21388 0.62617 0.94789 0.0
H1056 H 0.18389 0.58224 0.94862 0.0
H1057 H 0.14366 0.73909 0.94285 0.0
H1058 H 0.05879 0.61514 0.93756 0.0
H1059 H 0.08914 0.65353 0.93621 0.0
H1060 H 0.12886 0.49761 0.94247 0.0
C1061 C 0.18643 0.62622 0.94477 0.0
C1062 C 0.14062 0.68617 0.94265 0.0
C1063 C 0.20361 0.6512 0.94436 0.0
C1064 C 0.06894 0.58937 0.94109 0.0
C1065 C 0.08633 0.61131 0.94032 0.0
C1066 C 0.13195 0.5505 0.94261 0.0
C1067 C 0.17258 0.65995 0.94066 0.0
C1068 C 0.15402 0.63824 0.9417 0.0
C1069 C 0.09998 0.57755 0.94457 0.0
C1070 C 0.11857 0.59853 0.94352 0.0
H1071 H 0.19585 0.7872 0.93177 0.0
H1072 H 0.16628 0.74301 0.9323 0.0
H1073 H 0.15939 0.53192 0.9409 0.0
H1074 H 0.07585 0.45805 0.95458 0.0
H1075 H 0.10589 0.49655 0.9533 0.0
C1076 C 0.57049 0.71148 0.8343 0.0
C1077 C 0.55773 0.69014 0.82846 0.0
C1078 C 0.58741 0.68535 0.83404 0.0
C1079 C 0.61538 0.55096 0.82503 0.0
H1080 H 0.65167 0.6861 0.82698 0.0
C1081 C 0.68682 0.49827 0.81543 0.0
C1082 C 0.70017 0.52177 0.82082 0.0
C1083 C 0.66948 0.51828 0.81661 0.0
C1084 C 0.64174 0.64758 0.82653 0.0
H1085 H 0.55236 0.62189 0.81807 0.0
H1086 H 0.58215 0.57623 0.81754 0.0
H1087 H 0.62111 0.71752 0.82885 0.0
H1088 H 0.70581 0.58635 0.83157 0.0
H1089 H 0.67539 0.62167 0.83365 0.0
H1090 H 0.63608 0.4812 0.8226 0.0
C1091 C 0.579 0.61292 0.82238 0.0
C1092 C 0.62418 0.6655 0.82761 0.0
C1093 C 0.56192 0.63886 0.82269 0.0
C1094 C 0.69585 0.56759 0.82729 0.0
C1095 C 0.67842 0.58775 0.82847 0.0
C1096 C 0.63296 0.53303 0.82393 0.0
C1097 C 0.59209 0.63764 0.82788 0.0
C1098 C 0.61077 0.61746 0.82688 0.0
C1099 C 0.665 0.5624 0.82323 0.0
C1100 C 0.64635 0.58121 0.82463 0.0
H1101 H 0.56758 0.75049 0.83888 0.0
H1102 H 0.597 0.70413 0.83853 0.0
H1103 H 0.60543 0.51258 0.82451 0.0
H1104 H 0.68968 0.4633 0.81034 0.0
H1105 H 0.65956 0.49897 0.81234 0.0
C1106 C 0.0601 0.13851 0.82054 0.0
C1107 C 0.05576 0.19258 0.82585 0.0
C1108 C 0.07758 0.11755 0.81979 0.0
C1109 C 0.12249 0.18438 0.82261 0.0
H1110 H 0.13652 -0.00025 0.81943 0.0
C1111 C 0.1953 0.09765 0.82129 0.0
C1112 C 0.19932 0.04686 0.81541 0.0
C1113 C 0.17785 0.11727 0.8226 0.0
C1114 C 0.13279 0.05168 0.82023 0.0
H1115 H 0.06602 0.2638 0.835 0.0
H1116 H 0.09621 0.22622 0.83388 0.0
H1117 H 0.10581 0.02614 0.82207 0.0
H1118 H 0.18831 0.9797 0.80595 0.0
H1119 H 0.15817 0.01445 0.80815 0.0
H1120 H 0.1495 0.20985 0.82077 0.0
C1121 C 0.08634 0.20128 0.83008 0.0
C1122 C 0.11517 0.06676 0.82174 0.0
C1123 C 0.06899 0.22241 0.83078 0.0
C1124 C 0.18567 0.01852 0.8106 0.0
C1125 C 0.16834 0.03803 0.8119 0.0
C1126 C 0.14012 0.16927 0.82112 0.0
C1127 C 0.09097 0.15007 0.82437 0.0
C1128 C 0.10978 0.13334 0.82294 0.0
C1129 C 0.16414 0.08641 0.81806 0.0
C1130 C 0.14547 0.10278 0.81985 0.0
H1131 H 0.05021 0.11494 0.81661 0.0
H1132 H 0.08067 0.07805 0.81531 0.0
H1133 H 0.11879 0.23639 0.82334 0.0
H1134 H 0.2055 0.12015 0.82513 0.0
H1135 H 0.17505 0.15468 0.82741 0.0
C1136 C 0.45413 0.40409 0.57212 0.0
C1137 C 0.45788 0.45225 0.57838 0.0
C1138 C 0.43698 0.38036 0.57109 0.0
C1139 C 0.39314 0.37133 0.58134 0.0
H1140 H 0.37614 0.37474 0.55806 0.0
C1141 C 0.31955 0.33543 0.57341 0.0
C1142 C 0.31596 0.29303 0.56649 0.0
C1143 C 0.33669 0.35803 0.57489 0.0
C1144 C 0.38068 0.37284 0.5646 0.0
H1145 H 0.44692 0.50979 0.58882 0.0
H1146 H 0.41722 0.46805 0.58708 0.0
H1147 H 0.40682 0.39889 0.56094 0.0
H1148 H 0.32738 0.24373 0.55548 0.0
H1149 H 0.35694 0.28195 0.55809 0.0
H1150 H 0.36703 0.3447 0.58499 0.0
C1151 C 0.4274 0.44867 0.58295 0.0
C1152 C 0.39831 0.38643 0.56624 0.0
C1153 C 0.44444 0.47275 0.58393 0.0
C1154 C 0.32966 0.27624 0.56089 0.0
C1155 C 0.34667 0.29858 0.56236 0.0
C1156 C 0.3755 0.35728 0.57969 0.0
C1157 C 0.42334 0.40383 0.57635 0.0
C1158 C 0.40477 0.38575 0.57462 0.0
C1159 C 0.35053 0.33879 0.56946 0.0
C1160 C 0.36905 0.35766 0.57129 0.0
H1161 H 0.46419 0.38764 0.56772 0.0
H1162 H 0.4343 0.34505 0.56601 0.0
H1163 H 0.39773 0.37014 0.58787 0.0
H1164 H 0.30929 0.34911 0.57785 0.0
H1165 H 0.33915 0.38979 0.58035 0.0
C1166 C 0.82911 0.74293 0.57087 0.0
C1167 C 0.81499 0.78767 0.56999 0.0
C1168 C 0.84635 0.76556 0.57048 0.0
C1169 C 0.8738 0.8991 0.56188 0.0
H1170 H 0.90795 0.834 0.57821 0.0
C1171 C 0.94379 0.00523 0.56344 0.0
C1172 C 0.95777 0.96245 0.56554 0.0
C1173 C 0.92652 0.98287 0.5638 0.0
C1174 C 0.89867 0.85183 0.57351 0.0
H1175 H 0.80796 0.89158 0.56804 0.0
H1176 H 0.83837 0.93144 0.56723 0.0
H1177 H 0.87738 0.80013 0.5795 0.0
H1178 H 0.96451 0.86179 0.56949 0.0
H1179 H 0.93419 0.82183 0.56993 0.0
H1180 H 0.89505 0.94975 0.55578 0.0
C1181 C 0.83593 0.87863 0.56824 0.0
C1182 C 0.88112 0.83279 0.57429 0.0
C1183 C 0.81855 0.85596 0.56874 0.0
C1184 C 0.95404 0.89599 0.56784 0.0
C1185 C 0.93665 0.87335 0.56816 0.0
C1186 C 0.89138 0.91771 0.56106 0.0
C1187 C 0.85 0.83352 0.56912 0.0
C1188 C 0.86848 0.85624 0.56849 0.0
C1189 C 0.92265 0.9168 0.56621 0.0
C1190 C 0.90405 0.89452 0.56688 0.0
H1191 H 0.82688 0.68997 0.57188 0.0
H1192 H 0.85686 0.72946 0.57108 0.0
H1193 H 0.86442 0.91706 0.55723 0.0
H1194 H 0.94611 0.05687 0.56166 0.0
H1195 H 0.91616 0.01821 0.5624 0.0
C1196 C 0.43937 0.82639 0.70407 0.0
C1197 C 0.45167 0.82352 0.6974 0.0
C1198 C 0.42162 0.83637 0.70235 0.0
C1199 C 0.38969 0.88946 0.68593 0.0
H1200 H 0.35857 0.77013 0.69826 0.0
C1201 C 0.31619 0.87654 0.67794 0.0
C1202 C 0.30468 0.87847 0.68494 0.0
C1203 C 0.33404 0.86409 0.67912 0.0
C1204 C 0.36704 0.80417 0.69481 0.0
H1205 H 0.45507 0.83383 0.68373 0.0
H1206 H 0.424 0.85126 0.68073 0.0
H1207 H 0.38992 0.76712 0.70109 0.0
H1208 H 0.30279 0.86417 0.69862 0.0
H1209 H 0.33387 0.84267 0.70069 0.0
H1210 H 0.36677 0.92692 0.6797 0.0
C1211 C 0.42813 0.84564 0.6873 0.0
C1212 C 0.38503 0.80262 0.69645 0.0
C1213 C 0.44595 0.83575 0.68902 0.0
C1214 C 0.31125 0.86297 0.69308 0.0
C1215 C 0.32912 0.85063 0.69426 0.0
C1216 C 0.37167 0.89112 0.6843 0.0
C1217 C 0.41569 0.84371 0.69393 0.0
C1218 C 0.39657 0.8456 0.69208 0.0
C1219 C 0.34083 0.85322 0.68734 0.0
C1220 C 0.3601 0.84873 0.68875 0.0
H1221 H 0.44333 0.81791 0.71061 0.0
H1222 H 0.41246 0.83647 0.70763 0.0
H1223 H 0.39819 0.92356 0.68251 0.0
H1224 H 0.31157 0.88777 0.67157 0.0
H1225 H 0.34261 0.86483 0.67362 0.0
C1226 C 0.81316 0.40481 0.69121 0.0
C1227 C 0.81021 0.46317 0.696 0.0
C1228 C 0.8303 0.38184 0.68982 0.0
C1229 C 0.87624 0.4427 0.68984 0.0
H1230 H 0.88824 0.25465 0.69117 0.0
C1231 C 0.94782 0.34493 0.69177 0.0
C1232 C 0.95154 0.28434 0.68761 0.0
C1233 C 0.9306 0.36933 0.69204 0.0
C1234 C 0.88508 0.30733 0.69066 0.0
H1235 H 0.82287 0.5413 0.70339 0.0
H1236 H 0.8524 0.50094 0.70108 0.0
H1237 H 0.85791 0.28929 0.69319 0.0
H1238 H 0.94045 0.20437 0.67998 0.0
H1239 H 0.91071 0.24738 0.68031 0.0
H1240 H 0.90344 0.46081 0.68739 0.0
C1241 C 0.84164 0.47376 0.6982 0.0
C1242 C 0.86767 0.32711 0.69181 0.0
C1243 C 0.82465 0.4966 0.69958 0.0
C1244 C 0.93797 0.2508 0.68333 0.0
C1245 C 0.92087 0.27517 0.68357 0.0
C1246 C 0.89365 0.42293 0.68869 0.0
C1247 C 0.84475 0.41686 0.69318 0.0
C1248 C 0.86307 0.3951 0.6915 0.0
C1249 C 0.91686 0.33363 0.68813 0.0
C1250 C 0.8983 0.35503 0.68912 0.0
H1251 H 0.80231 0.37812 0.68835 0.0
H1252 H 0.83227 0.33781 0.68591 0.0
H1253 H 0.87309 0.49545 0.6894 0.0
H1254 H 0.95801 0.37164 0.69516 0.0
H1255 H 0.92794 0.41448 0.69563 0.0
C1256 C 0.56147 0.60011 0.44458 0.0
C1257 C 0.5573 0.54175 0.44003 0.0
C1258 C 0.57893 0.62185 0.44512 0.0
C1259 C 0.62407 0.5541 0.44326 0.0
H1260 H 0.63775 0.74069 0.44381 0.0
C1261 C 0.6968 0.64294 0.44332 0.0
C1262 C 0.70071 0.6982 0.44852 0.0
C1263 C 0.67937 0.62221 0.44222 0.0
C1264 C 0.63412 0.68829 0.44374 0.0
H1265 H 0.56786 0.46324 0.43198 0.0
H1266 H 0.59796 0.50197 0.4327 0.0
H1267 H 0.60707 0.71141 0.44165 0.0
H1268 H 0.68949 0.77258 0.45701 0.0
H1269 H 0.65942 0.73608 0.45519 0.0
H1270 H 0.65115 0.53105 0.44535 0.0
C1271 C 0.588 0.52985 0.43611 0.0
C1272 C 0.61651 0.67155 0.44251 0.0
C1273 C 0.57069 0.50798 0.43563 0.0
C1274 C 0.68695 0.73026 0.45287 0.0
C1275 C 0.66965 0.70969 0.45179 0.0
C1276 C 0.64169 0.57085 0.44447 0.0
C1277 C 0.59247 0.58581 0.44107 0.0
C1278 C 0.61124 0.60421 0.44227 0.0
C1279 C 0.66557 0.65643 0.44631 0.0
C1280 C 0.64692 0.63815 0.44477 0.0
H1281 H 0.55144 0.62684 0.44808 0.0
H1282 H 0.58189 0.66509 0.44902 0.0
H1283 H 0.62047 0.50167 0.44327 0.0
H1284 H 0.70709 0.61745 0.43984 0.0
H1285 H 0.67666 0.58098 0.43795 0.0
C1286 C 0.06048 0.12116 0.44082 0.0
C1287 C 0.05395 0.09377 0.4332 0.0
C1288 C 0.07809 0.14 0.44148 0.0
C1289 C 0.12115 0.10108 0.43192 0.0
H1290 H 0.13679 0.2514 0.44553 0.0
C1291 C 0.19448 0.17972 0.43532 0.0
C1292 C 0.19973 0.20298 0.44338 0.0
C1293 C 0.17681 0.16513 0.43371 0.0
C1294 C 0.13265 0.20875 0.44178 0.0
H1295 H 0.06061 0.06905 0.42012 0.0
H1296 H 0.09117 0.10296 0.42124 0.0
H1297 H 0.10558 0.23451 0.44316 0.0
H1298 H 0.19076 0.22497 0.4562 0.0
H1299 H 0.16024 0.19841 0.45345 0.0
H1300 H 0.14828 0.07516 0.4306 0.0
C1301 C 0.08279 0.10839 0.42677 0.0
C1302 C 0.11474 0.19918 0.4404 0.0
C1303 C 0.0652 0.08958 0.42611 0.0
C1304 C 0.18714 0.20782 0.44989 0.0
C1305 C 0.16958 0.19317 0.4483 0.0
C1306 C 0.1391 0.1107 0.43329 0.0
C1307 C 0.08959 0.13205 0.43453 0.0
C1308 C 0.10872 0.14484 0.43553 0.0
C1309 C 0.16408 0.17348 0.44013 0.0
C1310 C 0.14506 0.16418 0.43833 0.0
H1311 H 0.05224 0.12494 0.44642 0.0
H1312 H 0.08286 0.1577 0.44757 0.0
H1313 H 0.117 0.0581 0.42824 0.0
H1314 H 0.20385 0.17589 0.43015 0.0
H1315 H 0.17302 0.1501 0.42734 0.0
C1316 C 0.69378 0.99124 0.32467 0.0
C1317 C 0.70817 0.0291 0.32184 0.0
C1318 C 0.67683 0.01667 0.32421 0.0
C1319 C 0.65086 0.17156 0.3217 0.0
H1320 H 0.61476 0.04691 0.31455 0.0
C1321 C 0.58081 0.25797 0.31372 0.0
C1322 C 0.56682 0.21964 0.31693 0.0
C1323 C 0.59799 0.23447 0.31415 0.0
C1324 C 0.62464 0.08215 0.31664 0.0
H1325 H 0.71609 0.12456 0.31656 0.0
H1326 H 0.68618 0.16933 0.31564 0.0
H1327 H 0.64501 0.00921 0.31565 0.0
H1328 H 0.55991 0.1255 0.32291 0.0
H1329 H 0.59009 0.084 0.32365 0.0
H1330 H 0.63042 0.24461 0.32264 0.0
C1331 C 0.68814 0.11983 0.31828 0.0
C1332 C 0.642 0.06062 0.31728 0.0
C1333 C 0.70526 0.09431 0.3188 0.0
C1334 C 0.57038 0.15612 0.32036 0.0
C1335 C 0.58766 0.13241 0.32078 0.0
C1336 C 0.63348 0.19318 0.32104 0.0
C1337 C 0.67369 0.08062 0.32084 0.0
C1338 C 0.65533 0.10488 0.31988 0.0
C1339 C 0.60168 0.17187 0.31779 0.0
C1340 C 0.62015 0.14865 0.31853 0.0
H1341 H 0.69556 0.94116 0.32718 0.0
H1342 H 0.66613 0.98579 0.32647 0.0
H1343 H 0.66072 0.20675 0.32382 0.0
H1344 H 0.57857 0.30695 0.31096 0.0
H1345 H 0.60841 0.26552 0.31164 0.0
C1346 C 0.20815 0.62305 0.32178 0.0
C1347 C 0.21538 0.60017 0.32949 0.0
C1348 C 0.19029 0.63781 0.32118 0.0
C1349 C 0.14821 0.59492 0.33159 0.0
H1350 H 0.12995 0.73062 0.31634 0.0
C1351 C 0.07388 0.65939 0.32767 0.0
C1352 C 0.06827 0.67311 0.31931 0.0
C1353 C 0.09168 0.64829 0.32939 0.0
C1354 C 0.13485 0.6921 0.32057 0.0
H1355 H 0.20965 0.57963 0.34279 0.0
H1356 H 0.17861 0.60706 0.3418 0.0
H1357 H 0.16138 0.72325 0.31875 0.0
H1358 H 0.07674 0.6808 0.30614 0.0
H1359 H 0.10754 0.66088 0.30913 0.0
H1360 H 0.12153 0.56415 0.33341 0.0
C1361 C 0.18666 0.61175 0.33614 0.0
C1362 C 0.15289 0.68789 0.32196 0.0
C1363 C 0.20452 0.59673 0.33673 0.0
C1364 C 0.08062 0.67111 0.31266 0.0
C1365 C 0.09832 0.66026 0.31438 0.0
C1366 C 0.13011 0.59946 0.33024 0.0
C1367 C 0.1792 0.63052 0.3283 0.0
C1368 C 0.15986 0.63864 0.32739 0.0
C1369 C 0.10415 0.65091 0.32279 0.0
C1370 C 0.12326 0.6474 0.3246 0.0
H1371 H 0.21608 0.62611 0.31606 0.0
H1372 H 0.18504 0.65165 0.31502 0.0
H1373 H 0.15309 0.55571 0.33572 0.0
H1374 H 0.06471 0.66083 0.33294 0.0
H1375 H 0.09578 0.64105 0.33594 0.0
C1376 C 0.50827 0.94505 0.04013 0.0
C1377 C 0.5028 0.00154 0.04479 0.0
C1378 C 0.508 0.94492 0.03125 0.0
C1379 C 0.50761 0.05674 0.01249 0.0
H1380 H 0.4949 0.89386 1.00053 0.0
C1381 C 0.50025 0.04807 0.97592 0.0
C1382 C 0.5072 0.99254 0.97155 0.0
C1383 C 0.49921 0.04869 0.98481 0.0
C1384 C 0.49867 0.9395 1.00377 0.0
H1385 H 0.49265 0.10241 0.04367 0.0
H1386 H 0.49198 0.10208 0.02802 0.0
H1387 H 0.49322 0.89765 0.01605 0.0
H1388 H 0.51831 0.89355 0.97316 0.0
H1389 H 0.51648 0.89455 0.98878 0.0
H1390 H 0.51301 0.09856 1.0002 0.0
C1391 C 0.49667 0.05798 0.03132 0.0
C1392 C 0.49769 0.94179 0.01268 0.0
C1393 C 0.49696 0.05812 0.04028 0.0
C1394 C 0.51287 0.93703 0.97632 0.0
C1395 C 0.51176 0.93758 0.98526 0.0
C1396 C 0.50853 0.05451 1.00358 0.0
C1397 C 0.50218 0.00121 0.02669 0.0
C1398 C 0.50227 0.00029 0.01717 0.0
C1399 C 0.50504 0.99376 0.98961 0.0
C1400 C 0.50414 0.99576 0.99911 0.0
H1401 H 0.51295 0.90055 0.04335 0.0
H1402 H 0.51267 0.90082 0.02794 0.0
H1403 H 0.51151 0.10226 0.01572 0.0
H1404 H 0.49566 0.09168 0.97248 0.0
H1405 H 0.49368 0.09225 0.98791 0.0
C1406 C 0.7613 0.14829 0.03907 0.0
C1407 C 0.7548 0.20323 0.04369 0.0
C1408 C 0.76139 0.14943 0.03011 0.0
C1409 C 0.76076 0.26903 0.01207 0.0
H1410 H 0.74697 0.11578 0.99853 0.0
C1411 C 0.75212 0.28581 0.9754 0.0
C1412 C 0.75818 0.23114 0.9706 0.0
C1413 C 0.75131 0.2819 0.98432 0.0
C1414 C 0.75104 0.15888 1.00221 0.0
H1415 H 0.7428 0.30142 0.04249 0.0
H1416 H 0.7429 0.30298 0.02706 0.0
H1417 H 0.7468 0.10774 0.01406 0.0
H1418 H 0.7682 0.12959 0.97145 0.0
H1419 H 0.76705 0.12338 0.98687 0.0
H1420 H 0.76514 0.32012 1.00026 0.0
C1421 C 0.74821 0.25956 0.03029 0.0
C1422 C 0.75096 0.15414 0.01112 0.0
C1423 C 0.74807 0.25836 0.03917 0.0
C1424 C 0.76338 0.17269 0.97492 0.0
C1425 C 0.7626 0.16884 0.98379 0.0
C1426 C 0.7609 0.27371 1.00318 0.0
C1427 C 0.75507 0.20564 0.02563 0.0
C1428 C 0.75574 0.20928 0.01616 0.0
C1429 C 0.75655 0.22327 0.98863 0.0
C1430 C 0.75602 0.21875 0.99812 0.0
H1431 H 0.76658 0.10512 0.04236 0.0
H1432 H 0.76681 0.10711 0.0267 0.0
H1433 H 0.76478 0.31217 0.01576 0.0
H1434 H 0.74798 0.33148 0.97227 0.0
H1435 H 0.7464 0.3246 0.98784 0.0
C1436 C 0.4966 0.19284 0.22572 0.0
C1437 C 0.50902 0.22903 0.22098 0.0
C1438 C 0.49581 0.19956 0.23462 0.0
C1439 C 0.50857 0.31641 0.25198 0.0
H1440 H 0.49983 0.16414 0.26667 0.0
C1441 C 0.51465 0.32674 0.28904 0.0
C1442 C 0.5026 0.2884 0.29374 0.0
C1443 C 0.51498 0.32286 0.2801 0.0
C1444 C 0.50207 0.20745 0.26266 0.0
H1445 H 0.53077 0.29862 0.22192 0.0
H1446 H 0.52954 0.30936 0.23732 0.0
H1447 H 0.50137 0.1481 0.2513 0.0
H1448 H 0.48076 0.21941 0.29272 0.0
H1449 H 0.48111 0.21387 0.27727 0.0
H1450 H 0.50931 0.3757 0.26337 0.0
C1451 C 0.52014 0.27702 0.2342 0.0
C1452 C 0.50295 0.19815 0.25383 0.0
C1453 C 0.52092 0.27039 0.22535 0.0
C1454 C 0.49037 0.24899 0.28931 0.0
C1455 C 0.49065 0.24535 0.28043 0.0
C1456 C 0.50769 0.32572 0.26082 0.0
C1457 C 0.50741 0.24259 0.23896 0.0
C1458 C 0.50623 0.25247 0.24837 0.0
C1459 C 0.50324 0.28073 0.2757 0.0
C1460 C 0.50437 0.27137 0.26628 0.0
H1461 H 0.4872 0.16083 0.22255 0.0
H1462 H 0.48577 0.17252 0.23808 0.0
H1463 H 0.51086 0.35962 0.24796 0.0
H1464 H 0.52429 0.35728 0.29228 0.0
H1465 H 0.52489 0.35073 0.27666 0.0
C1466 C 0.73423 0.00783 0.22748 0.0
C1467 C 0.74829 0.028 0.22228 0.0
C1468 C 0.73643 -9e-05 0.23625 0.0
C1469 C 0.76534 0.0395 0.25449 0.0
H1470 H 0.74499 0.87843 0.26416 0.0
C1471 C 0.78168 0.95753 0.28863 0.0
C1472 C 0.76773 0.93632 0.29382 0.0
C1473 C 0.7795 0.96488 0.27985 0.0
C1474 C 0.7506 0.92394 0.26159 0.0
H1475 H 0.77549 0.05891 0.2223 0.0
H1476 H 0.77936 0.04514 0.2377 0.0
H1477 H 0.74063 0.9039 0.24911 0.0
H1478 H 0.74075 0.90296 0.2938 0.0
H1479 H 0.73683 0.91611 0.27839 0.0
H1480 H 0.77526 0.05971 0.26697 0.0
C1481 C 0.76659 0.03563 0.23496 0.0
C1482 C 0.74809 0.93867 0.25295 0.0
C1483 C 0.76437 0.04371 0.22614 0.0
C1484 C 0.75177 0.91896 0.28996 0.0
C1485 C 0.74954 0.92669 0.28113 0.0
C1486 C 0.76782 0.02484 0.26313 0.0
C1487 C 0.75275 0.01181 0.24008 0.0
C1488 C 0.75541 -0.00333 0.24929 0.0
C1489 C 0.76325 0.95163 0.27601 0.0
C1490 C 0.76053 0.96676 0.26679 0.0
H1491 H 0.72161 0.99589 0.22472 0.0
H1492 H 0.72538 0.98316 0.24002 0.0
H1493 H 0.77096 0.08498 0.25191 0.0
H1494 H 0.79422 0.97067 0.2914 0.0
H1495 H 0.79048 0.98237 0.27608 0.0
C1496 C 0.26976 0.73282 0.97549 0.0
C1497 C 0.26067 0.78158 0.97077 0.0
C1498 C 0.26882 0.7313 0.98436 0.0
C1499 C 0.24129 0.78272 1.00246 0.0
H1500 H 0.28265 0.73804 0.01564 0.0
C1501 C 0.24258 0.79007 0.03933 0.0
C1502 C 0.25223 0.74089 0.0437 0.0
C1503 C 0.24316 0.79444 0.03044 0.0
C1504 C 0.27092 0.74963 0.01206 0.0
H1505 H 0.24359 0.86783 0.97174 0.0
H1506 H 0.24196 0.8654 0.98739 0.0
H1507 H 0.28497 0.75204 1.00025 0.0
H1508 H 0.26976 0.65654 0.04211 0.0
H1509 H 0.27067 0.6637 0.02653 0.0
H1510 H 0.22724 0.78008 0.01428 0.0
C1511 C 0.24975 0.82797 0.98414 0.0
C1512 C 0.27226 0.75799 1.00322 0.0
C1513 C 0.25077 0.82971 0.97519 0.0
C1514 C 0.26217 0.69497 0.03894 0.0
C1515 C 0.2628 0.69949 0.03002 0.0
C1516 C 0.23995 0.77435 0.01131 0.0
C1517 C 0.25874 0.77848 0.98882 0.0
C1518 C 0.25744 0.77418 0.9983 0.0
C1519 C 0.25343 0.74981 0.02566 0.0
C1520 C 0.25474 0.75738 0.01622 0.0
H1521 H 0.27755 0.69489 0.97233 0.0
H1522 H 0.27571 0.69189 0.98772 0.0
H1523 H 0.22957 0.79417 0.99886 0.0
H1524 H 0.23475 0.82631 0.04277 0.0
H1525 H 0.23593 0.83424 0.02734 0.0
C1526 C 0.52032 0.77958 0.72593 0.0
C1527 C 0.51091 0.7292 0.72165 0.0
C1528 C 0.52055 0.78263 0.73482 0.0
C1529 C 0.51319 0.68335 0.75432 0.0
H1530 H 0.50758 0.85734 0.76497 0.0
C1531 C 0.50062 0.70946 0.7903 0.0
C1532 C 0.50856 0.76219 0.79481 0.0
C1533 C 0.50143 0.70649 0.78142 0.0
C1534 C 0.50942 0.8085 0.76212 0.0
H1535 H 0.49464 0.64147 0.72344 0.0
H1536 H 0.49507 0.64663 0.73906 0.0
H1537 H 0.5078 0.84833 0.74946 0.0
H1538 H 0.52348 0.85377 0.79346 0.0
H1539 H 0.52512 0.84826 0.77784 0.0
H1540 H 0.51491 0.64345 0.76695 0.0
C1541 C 0.50233 0.68374 0.73547 0.0
C1542 C 0.50949 0.80326 0.75321 0.0
C1543 C 0.50204 0.6808 0.72652 0.0
C1544 C 0.51722 0.81254 0.79018 0.0
C1545 C 0.51808 0.80942 0.78123 0.0
C1546 C 0.51319 0.68861 0.76322 0.0
C1547 C 0.51142 0.73529 0.73972 0.0
C1548 C 0.5113 0.74058 0.7492 0.0
C1549 C 0.51029 0.75595 0.77675 0.0
C1550 C 0.51117 0.75119 0.76725 0.0
H1551 H 0.52742 0.81753 0.72241 0.0
H1552 H 0.52796 0.82219 0.73786 0.0
H1553 H 0.51491 0.6345 0.75145 0.0
H1554 H 0.49367 0.67002 0.79362 0.0
H1555 H 0.4949 0.66548 0.77822 0.0
C1556 C 0.26865 0.04217 0.72303 0.0
C1557 C 0.26004 0.99027 0.71868 0.0
C1558 C 0.2697 0.04147 0.73199 0.0
C1559 C 0.26573 0.92548 0.75054 0.0
H1560 H 0.25871 0.08784 0.76358 0.0
C1561 C 0.25405 0.92548 0.78722 0.0
C1562 C 0.26198 0.97717 0.79191 0.0
C1563 C 0.25465 0.92582 0.77827 0.0
C1564 C 0.26089 0.04208 0.76004 0.0
H1565 H 0.24551 0.89768 0.72037 0.0
H1566 H 0.24713 0.89716 0.73576 0.0
H1567 H 0.25864 0.09281 0.74805 0.0
H1568 H 0.27731 0.06838 0.79083 0.0
H1569 H 0.27847 0.0684 0.77538 0.0
H1570 H 0.26782 0.87467 0.76253 0.0
C1571 C 0.25342 0.93767 0.73234 0.0
C1572 C 0.26089 0.04503 0.75112 0.0
C1573 C 0.25239 0.93834 0.72347 0.0
C1574 C 0.27089 0.028 0.78745 0.0
C1575 C 0.27148 0.02835 0.77856 0.0
C1576 C 0.2657 0.92251 0.75945 0.0
C1577 C 0.26218 0.98881 0.73674 0.0
C1578 C 0.26318 0.98668 0.74624 0.0
C1579 C 0.26317 0.9779 0.77383 0.0
C1580 C 0.26322 0.98073 0.76433 0.0
H1581 H 0.27469 0.08284 0.71954 0.0
H1582 H 0.27662 0.08157 0.73517 0.0
H1583 H 0.26784 0.87964 0.747 0.0
H1584 H 0.24705 0.88572 0.79046 0.0
H1585 H 0.24802 0.8863 0.77482 0.0
C1586 C 0.51363 0.55298 0.4764 0.0
C1587 C 0.51028 0.49339 0.47191 0.0
C1588 C 0.51275 0.5549 0.48528 0.0
C1589 C 0.51306 0.44989 0.5047 0.0
H1590 H 0.49087 0.60527 0.5149 0.0
C1591 C 0.49741 0.4597 0.54056 0.0
C1592 C 0.50083 0.51954 0.54498 0.0
C1593 C 0.498 0.45745 0.53167 0.0
C1594 C 0.49728 0.56192 0.51217 0.0
H1595 H 0.50386 0.38836 0.4733 0.0
H1596 H 0.50226 0.39161 0.48893 0.0
H1597 H 0.49333 0.59724 0.49944 0.0
H1598 H 0.50705 0.62464 0.54347 0.0
H1599 H 0.50817 0.6208 0.52785 0.0
H1600 H 0.51704 0.41461 0.51744 0.0
C1601 C 0.50566 0.43691 0.48552 0.0
C1602 C 0.49869 0.55722 0.50329 0.0
C1603 C 0.50657 0.43496 0.47657 0.0
C1604 C 0.50427 0.57787 0.54026 0.0
C1605 C 0.50491 0.57557 0.53131 0.0
C1606 C 0.51165 0.4546 0.51358 0.0
C1607 C 0.50845 0.49731 0.48997 0.0
C1608 C 0.50665 0.50123 0.49943 0.0
C1609 C 0.50209 0.51492 0.52692 0.0
C1610 C 0.50373 0.51065 0.51744 0.0
H1611 H 0.51671 0.59887 0.47304 0.0
H1612 H 0.51541 0.60184 0.48848 0.0
H1613 H 0.51948 0.40658 0.50197 0.0
H1614 H 0.49452 0.41389 0.54398 0.0
H1615 H 0.49532 0.41031 0.52853 0.0
C1616 C 0.76327 0.68696 0.54081 0.0
C1617 C 0.75144 0.72827 0.54521 0.0
C1618 C 0.76425 0.68947 0.53187 0.0
C1619 C 0.75417 0.80455 0.51399 0.0
H1620 H 0.7616 0.64828 0.49983 0.0
C1621 C 0.75072 0.8118 0.47694 0.0
C1622 C 0.76273 0.77151 0.4725 0.0
C1623 C 0.74958 0.80812 0.48586 0.0
C1624 C 0.75972 0.69258 0.5037 0.0
H1625 H 0.73062 0.80125 0.54369 0.0
H1626 H 0.73209 0.80449 0.52824 0.0
H1627 H 0.75881 0.63509 0.51524 0.0
H1628 H 0.78358 0.69855 0.47396 0.0
H1629 H 0.78179 0.69314 0.4894 0.0
H1630 H 0.75509 0.86204 0.50246 0.0
C1631 C 0.74098 0.77167 0.53163 0.0
C1632 C 0.75812 0.68493 0.51254 0.0
C1633 C 0.74005 0.76937 0.5405 0.0
C1634 C 0.77403 0.72979 0.47717 0.0
C1635 C 0.77293 0.72623 0.48604 0.0
C1636 C 0.75577 0.81219 0.50515 0.0
C1637 C 0.75339 0.73318 0.5272 0.0
C1638 C 0.75527 0.74081 0.51779 0.0
C1639 C 0.76045 0.76418 0.49049 0.0
C1640 C 0.75859 0.75632 0.4999 0.0
H1641 H 0.77227 0.65504 0.54426 0.0
H1642 H 0.774 0.65921 0.52866 0.0
H1643 H 0.75231 0.84889 0.51785 0.0
H1644 H 0.74177 0.84417 0.47352 0.0
H1645 H 0.73977 0.83791 0.4891 0.0
C1646 C 0.75462 0.42039 0.79151 0.0
C1647 C 0.76021 0.47491 0.79646 0.0
C1648 C 0.75481 0.42443 0.78257 0.0
C1649 C 0.75505 0.54934 0.76505 0.0
H1650 H 0.76927 0.399 0.75108 0.0
C1651 C 0.76293 0.56802 0.7282 0.0
C1652 C 0.75657 0.51332 0.7235 0.0
C1653 C 0.76394 0.56459 0.73713 0.0
C1654 C 0.76512 0.44133 0.75489 0.0
H1655 H 0.77091 0.57556 0.79589 0.0
H1656 H 0.77144 0.58203 0.78046 0.0
H1657 H 0.76974 0.38859 0.76657 0.0
H1658 H 0.746 0.41264 0.72454 0.0
H1659 H 0.74758 0.40724 0.73993 0.0
H1660 H 0.75035 0.60195 0.75337 0.0
C1661 C 0.76655 0.53672 0.78342 0.0
C1662 C 0.76536 0.43525 0.76377 0.0
C1663 C 0.76634 0.53273 0.7923 0.0
C1664 C 0.7511 0.45569 0.72792 0.0
C1665 C 0.75211 0.45228 0.73678 0.0
C1666 C 0.75481 0.55541 0.75617 0.0
C1667 C 0.7606 0.48306 0.77843 0.0
C1668 C 0.76029 0.48911 0.76897 0.0
C1669 C 0.75865 0.50635 0.74151 0.0
C1670 C 0.75974 0.50135 0.75097 0.0
H1671 H 0.74979 0.37523 0.79452 0.0
H1672 H 0.75004 0.38227 0.77891 0.0
H1673 H 0.75082 0.59157 0.76886 0.0
H1674 H 0.76727 0.61305 0.72499 0.0
H1675 H 0.76912 0.60706 0.74059 0.0
C1676 C 0.25248 0.31909 0.47323 0.0
C1677 C 0.25954 0.26672 0.46834 0.0
C1678 C 0.25273 0.31583 0.48217 0.0
C1679 C 0.2745 0.22847 0.50028 0.0
H1680 H 0.23296 0.28007 0.51286 0.0
C1681 C 0.26637 0.1736 0.53646 0.0
C1682 C 0.25915 0.22547 0.54139 0.0
C1683 C 0.26633 0.17768 0.52752 0.0
C1684 C 0.24474 0.26598 0.50946 0.0
H1685 H 0.27271 0.1705 0.46903 0.0
H1686 H 0.27302 0.1648 0.48446 0.0
H1687 H 0.2336 0.29301 0.49741 0.0
H1688 H 0.24606 0.32188 0.54076 0.0
H1689 H 0.24614 0.32899 0.52534 0.0
H1690 H 0.28563 0.20136 0.51234 0.0
C1691 C 0.26743 0.20871 0.48146 0.0
C1692 C 0.24512 0.27365 0.50059 0.0
C1693 C 0.26713 0.21185 0.47258 0.0
C1694 C 0.25173 0.28084 0.53719 0.0
C1695 C 0.25166 0.28481 0.52831 0.0
C1696 C 0.27412 0.22079 0.50915 0.0
C1697 C 0.26015 0.26033 0.48639 0.0
C1698 C 0.26 0.25489 0.49588 0.0
C1699 C 0.25901 0.23353 0.52334 0.0
C1700 C 0.25923 0.23948 0.51386 0.0
H1701 H 0.24653 0.36202 0.47016 0.0
H1702 H 0.24716 0.35683 0.48579 0.0
H1703 H 0.28628 0.21431 0.49688 0.0
H1704 H 0.27219 0.1303 0.5395 0.0
H1705 H 0.27196 0.13694 0.52389 0.0
C1706 C 0.25509 0.45236 0.28861 0.0
C1707 C 0.25668 0.51196 0.2933 0.0
C1708 C 0.25546 0.4537 0.27966 0.0
C1709 C 0.27005 0.56053 0.26155 0.0
H1710 H 0.23966 0.44631 0.24819 0.0
C1711 C 0.26381 0.5812 0.22455 0.0
C1712 C 0.26252 0.5204 0.22009 0.0
C1713 C 0.26327 0.58192 0.23351 0.0
C1714 C 0.24837 0.47815 0.25182 0.0
H1715 H 0.25935 0.61986 0.29223 0.0
H1716 H 0.25972 0.62211 0.27677 0.0
H1717 H 0.23817 0.44227 0.2637 0.0
H1718 H 0.26034 0.41261 0.22158 0.0
H1719 H 0.25965 0.41399 0.23701 0.0
H1720 H 0.28026 0.59633 0.24965 0.0
C1721 C 0.25859 0.57416 0.27995 0.0
C1722 C 0.24753 0.47569 0.26073 0.0
C1723 C 0.25825 0.57281 0.28884 0.0
C1724 C 0.26117 0.46055 0.22477 0.0
C1725 C 0.26065 0.46127 0.23366 0.0
C1726 C 0.27089 0.56301 0.25264 0.0
C1727 C 0.25741 0.51467 0.27522 0.0
C1728 C 0.25838 0.51674 0.26572 0.0
C1729 C 0.26142 0.52188 0.23816 0.0
C1730 C 0.26013 0.52156 0.24765 0.0
H1731 H 0.25393 0.40466 0.29185 0.0
H1732 H 0.25463 0.40682 0.27622 0.0
H1733 H 0.2788 0.59222 0.26518 0.0
H1734 H 0.26482 0.62814 0.22113 0.0
H1735 H 0.26385 0.62957 0.23678 0.0
C1736 C 0.02056 0.9459 0.47366 0.0
C1737 C 0.01231 -0.00211 0.46915 0.0
C1738 C 0.02208 0.94905 0.48258 0.0
C1739 C 1.00253 0.03199 0.50151 0.0
H1740 H 0.04581 0.982 0.5127 0.0
C1741 C 0.01288 0.07341 0.53773 0.0
C1742 C 0.02073 0.02011 0.54216 0.0
C1743 C 0.01271 0.0741 0.52878 0.0
C1744 C 0.03357 0.9957 0.50969 0.0
H1745 H 0.99927 0.09399 0.4705 0.0
H1746 H 1.00201 0.09936 0.48587 0.0
H1747 H 0.04345 0.97255 0.49723 0.0
H1748 H 0.03505 0.92696 0.54063 0.0
H1749 H 0.0346 0.92793 0.52519 0.0
H1750 H 0.99256 0.05455 0.51394 0.0
C1751 C 1.00712 0.0558 0.4826 0.0
C1752 C 0.03222 0.99005 0.50082 0.0
C1753 C 1.00566 0.05279 0.47374 0.0
C1754 C 0.02885 0.96884 0.53745 0.0
C1755 C 0.02871 0.96957 0.52855 0.0
C1756 C 1.00387 0.03749 0.51037 0.0
C1757 C 0.0153 0.00402 0.48715 0.0
C1758 C 0.01668 0.00815 0.49661 0.0
C1759 C 0.02046 0.02167 0.52408 0.0
C1760 C 0.01938 0.01927 0.51459 0.0
H1761 H 0.02582 0.90295 0.47032 0.0
H1762 H 0.02835 0.90805 0.48591 0.0
H1763 H 0.99027 0.04551 0.49849 0.0
H1764 H 1.00651 0.11364 0.54117 0.0
H1765 H 1.00643 0.11547 0.52554 0.0
C1766 C 0.98665 0.27015 0.72524 0.0
C1767 C 0.99343 0.21666 0.72044 0.0
C1768 C 0.98809 0.27091 0.7341 0.0
C1769 C 0.01547 0.20388 0.75139 0.0
H1770 H 0.97917 0.27774 0.76592 0.0
C1771 C 0.01875 0.19486 0.78815 0.0
C1772 C 0.01214 0.24925 0.79284 0.0
C1773 C 0.01709 0.1927 0.77929 0.0
C1774 C 0.98954 0.25792 0.76194 0.0
H1775 H 1.00643 0.12049 0.72123 0.0
H1776 H 0.00883 0.12136 0.73683 0.0
H1777 H 0.97376 0.2644 0.7507 0.0
H1778 H 0.99918 0.34539 0.79187 0.0
H1779 H 0.99639 0.34202 0.7763 0.0
H1780 H 0.03126 0.19744 0.76264 0.0
C1781 C 1.00256 0.16321 0.73367 0.0
C1782 C 0.9864 0.2499 0.75321 0.0
C1783 C 1.00103 0.16229 0.72475 0.0
C1784 C 1.00445 0.30291 0.78843 0.0
C1785 C 1.00269 0.30058 0.77953 0.0
C1786 C 0.0186 0.21186 0.76012 0.0
C1787 C 0.9964 0.21822 0.73844 0.0
C1788 C 0.99934 0.22293 0.74781 0.0
C1789 C 0.00873 0.24482 0.77487 0.0
C1790 C 1.00569 0.23906 0.76551 0.0
H1791 H 0.98068 0.31282 0.72212 0.0
H1792 H 0.98333 0.31435 0.73752 0.0
H1793 H 0.02585 0.18418 0.74741 0.0
H1794 H 0.02479 0.15269 0.79134 0.0
H1795 H 0.02176 0.14874 0.77595 0.0
C1796 C 0.01139 0.7962 0.22615 0.0
C1797 C 1.00388 0.74396 0.22138 0.0
C1798 C 0.01126 0.79491 0.23502 0.0
C1799 C 1.00691 0.68448 0.2537 0.0
H1800 H 0.99805 0.85226 0.2654 0.0
C1801 C 0.99987 0.70082 0.29032 0.0
C1802 C 0.0081 0.75465 0.29449 0.0
C1803 C 0.99876 0.69881 0.28144 0.0
C1804 C 1.00073 0.80517 0.26224 0.0
H1805 H 0.99059 0.64841 0.22227 0.0
H1806 H 0.99024 0.64621 0.23795 0.0
H1807 H 0.99667 0.84789 0.2499 0.0
H1808 H 0.02149 0.84905 0.29255 0.0
H1809 H 0.01959 0.84556 0.27697 0.0
H1810 H 0.011 0.64188 0.26608 0.0
C1811 C 0.99632 0.68815 0.23472 0.0
C1812 C 0.99991 0.80256 0.25335 0.0
C1813 C 0.99648 0.68941 0.22576 0.0
C1814 C 0.01503 0.80699 0.28955 0.0
C1815 C 0.01388 0.80504 0.28062 0.0
C1816 C 1.0077 0.68707 0.26262 0.0
C1817 C 1.00354 0.74145 0.23945 0.0
C1818 C 1.0032 0.7424 0.24895 0.0
C1819 C 1.00582 0.75064 0.27647 0.0
C1820 C 1.00476 0.74762 0.26699 0.0
H1821 H 0.01742 0.83876 0.22303 0.0
H1822 H 0.01734 0.83594 0.23843 0.0
H1823 H 0.00971 0.63755 0.25052 0.0
H1824 H 0.9943 0.65969 0.29391 0.0
H1825 H 0.99221 0.65676 0.27847 0.0
C1826 C 0.01079 0.42236 0.97419 0.0
C1827 C 1.00347 0.47601 0.96963 0.0
C1828 C 0.01099 0.42315 0.98314 0.0
C1829 C 0.99068 0.50645 1.00197 0.0
H1830 H 0.03346 0.4535 0.01341 0.0
C1831 C 1.00281 0.55636 0.03801 0.0
C1832 C 0.01034 0.5033 0.04261 0.0
C1833 C 1.00183 0.55361 0.02907 0.0
C1834 C 0.02136 0.46797 0.01032 0.0
H1835 H 0.99013 0.57151 0.97091 0.0
H1836 H 0.9906 0.57299 0.98635 0.0
H1837 H 0.03133 0.44309 0.99796 0.0
H1838 H 0.02291 0.40619 0.04141 0.0
H1839 H 0.02111 0.4015 0.026 0.0
H1840 H 0.98076 0.53165 0.01435 0.0
C1841 C 0.99607 0.53002 0.98309 0.0
C1842 C 0.02011 0.46169 1.00146 0.0
C1843 C 0.99592 0.52932 0.9742 0.0
C1844 C 0.01703 0.44809 0.03809 0.0
C1845 C 0.01611 0.44549 0.02922 0.0
C1846 C 0.99194 0.51281 0.01084 0.0
C1847 C 1.00377 0.47741 0.98769 0.0
C1848 C 1.00477 0.48095 0.99717 0.0
C1849 C 0.00847 0.49799 0.02458 0.0
C1850 C 1.00729 0.4936 0.01512 0.0
H1851 H 0.01671 0.38059 0.97086 0.0
H1852 H 0.01685 0.38141 0.9865 0.0
H1853 H 0.97859 0.52101 0.99889 0.0
H1854 H 0.99754 0.59954 0.0413 0.0
H1855 H 0.99598 0.59519 0.02568 0.0
C1856 C 0.56687 0.12364 0.06589 0.0
C1857 C 0.55918 0.06765 0.06984 0.0
C1858 C 0.58475 0.13637 0.06671 0.0
C1859 C 0.62256 0.1013 0.0806 0.0
H1860 H 0.64942 0.16858 0.06142 0.0
C1861 C 0.6979 0.11717 0.0807 0.0
C1862 C 0.70619 0.17032 0.07642 0.0
C1863 C 0.67975 0.10966 0.08041 0.0
C1864 C 0.64205 0.15094 0.06688 0.0
H1865 H 0.5644 0.9802 0.07761 0.0
H1866 H 0.59585 0.00213 0.07898 0.0
H1867 H 0.61859 0.14077 0.05954 0.0
H1868 H 0.70182 0.25909 0.06878 0.0
H1869 H 0.66988 0.24633 0.06832 0.0
H1870 H 0.64606 0.1111 0.08793 0.0
C1871 C 0.5879 0.03662 0.07533 0.0
C1872 C 0.62438 0.13464 0.06579 0.0
C1873 C 0.56992 0.02369 0.07448 0.0
C1874 C 0.69581 0.21772 0.07216 0.0
C1875 C 0.67755 0.20997 0.07182 0.0
C1876 C 0.64023 0.11762 0.08169 0.0
C1877 C 0.59549 0.09351 0.0715 0.0
C1878 C 0.61441 0.1094 0.07263 0.0
C1879 C 0.66935 0.15504 0.07582 0.0
C1880 C 0.65023 0.14233 0.07483 0.0
H1881 H 0.55901 0.15863 0.06226 0.0
H1882 H 0.59007 0.181 0.06376 0.0
H1883 H 0.6152 0.08322 0.08604 0.0
H1884 H 0.70551 0.07984 0.08408 0.0
H1885 H 0.67397 0.06647 0.08349 0.0
C1886 C 0.56102 0.09367 0.19094 0.0
C1887 C 0.55432 0.15926 0.19065 0.0
C1888 C 0.57898 0.08176 0.19048 0.0
C1889 C 0.62124 0.15509 0.18395 0.0
H1890 H 0.64032 0.02195 0.19938 0.0
C1891 C 0.69554 0.12144 0.18909 0.0
C1892 C 0.70229 0.05672 0.19042 0.0
C1893 C 0.67753 0.13249 0.18859 0.0
C1894 C 0.6352 0.05848 0.19493 0.0
H1895 H 0.56137 0.26386 0.18945 0.0
H1896 H 0.59303 0.24298 0.18867 0.0
H1897 H 0.60909 0.04646 0.19963 0.0
H1898 H 0.69528 0.95247 0.19208 0.0
H1899 H 0.66364 0.97159 0.1911 0.0
H1900 H 0.64738 0.16711 0.17924 0.0
C1901 C 0.58422 0.20076 0.18921 0.0
C1902 C 0.61727 0.07277 0.19509 0.0
C1903 C 0.5661 0.21279 0.18969 0.0
C1904 C 0.69052 0.00291 0.19106 0.0
C1905 C 0.67239 0.01402 0.19056 0.0
C1906 C 0.63919 0.14066 0.18376 0.0
C1907 C 0.59086 0.13502 0.18972 0.0
C1908 C 0.61005 0.12123 0.18961 0.0
C1909 C 0.66567 0.07914 0.18938 0.0
C1910 C 0.64642 0.09227 0.18927 0.0
H1911 H 0.55237 0.051 0.19159 0.0
H1912 H 0.58357 0.03048 0.1907 0.0
H1913 H 0.61608 0.19199 0.17955 0.0
H1914 H 0.70418 0.16424 0.18856 0.0
H1915 H 0.6729 0.18337 0.18781 0.0
C1916 C 0.45426 0.8761 0.93711 0.0
C1917 C 0.46169 0.93729 0.93966 0.0
C1918 C 0.43614 0.8674 0.93697 0.0
C1919 C 0.39599 0.93133 0.94695 0.0
H1920 H 0.37288 0.82434 0.92966 0.0
C1921 C 0.32106 0.90202 0.9458 0.0
C1922 C 0.31391 0.83927 0.94369 0.0
C1923 C 0.339 0.91379 0.94516 0.0
C1924 C 0.37917 0.85358 0.93459 0.0
H1925 H 0.45586 0.0383 0.94378 0.0
H1926 H 0.42395 0.02325 0.94351 0.0
H1927 H 0.40401 0.84988 0.92826 0.0
H1928 H 0.32018 0.73932 0.93929 0.0
H1929 H 0.35181 0.75975 0.93823 0.0
H1930 H 0.37123 0.93466 0.95332 0.0
C1931 C 0.43227 0.98174 0.94169 0.0
C1932 C 0.39701 0.86853 0.93378 0.0
C1933 C 0.45052 0.99063 0.94178 0.0
C1934 C 0.32527 0.78814 0.94098 0.0
C1935 C 0.34335 0.80006 0.94031 0.0
C1936 C 0.37818 0.91635 0.94777 0.0
C1937 C 0.42489 0.91959 0.9394 0.0
C1938 C 0.40566 0.90742 0.93996 0.0
C1939 C 0.35041 0.86319 0.94239 0.0
C1940 C 0.36953 0.87724 0.94161 0.0
H1941 H 0.46247 0.83398 0.9354 0.0
H1942 H 0.43099 0.81872 0.93526 0.0
H1943 H 0.40229 0.96023 0.95192 0.0
H1944 H 0.31275 0.94277 0.9479 0.0
H1945 H 0.34388 0.96325 0.94669 0.0
C1946 C 0.44522 0.8844 0.81592 0.0
C1947 C 0.45288 0.82846 0.81989 0.0
C1948 C 0.42738 0.89757 0.81679 0.0
C1949 C 0.38496 0.82119 0.82254 0.0
H1950 H 0.37083 0.00592 0.82593 0.0
C1951 C 0.31362 0.88817 0.83009 0.0
C1952 C 0.30618 0.94176 0.82555 0.0
C1953 C 0.33167 0.87756 0.83002 0.0
C1954 C 0.37454 0.95421 0.82492 0.0
H1955 H 0.44763 0.74142 0.82773 0.0
H1956 H 0.41627 0.76458 0.82929 0.0
H1957 H 0.40182 0.97843 0.82447 0.0
H1958 H 0.31192 0.02833 0.81772 0.0
H1959 H 0.34366 0.00965 0.81756 0.0
H1960 H 0.35771 0.79696 0.82294 0.0
C1961 C 0.42415 0.79807 0.82545 0.0
C1962 C 0.39231 0.93836 0.82407 0.0
C1963 C 0.44211 0.78474 0.82456 0.0
C1964 C 0.3173 0.98683 0.82131 0.0
C1965 C 0.33546 0.97598 0.82121 0.0
C1966 C 0.36721 0.83702 0.82339 0.0
C1967 C 0.41664 0.8553 0.82167 0.0
C1968 C 0.39774 0.87167 0.82283 0.0
C1969 C 0.34279 0.92004 0.82538 0.0
C1970 C 0.36176 0.90373 0.82458 0.0
H1971 H 0.45308 0.91885 0.8122 0.0
H1972 H 0.42199 0.94113 0.81362 0.0
H1973 H 0.38864 0.76952 0.82147 0.0
H1974 H 0.30543 0.85297 0.83351 0.0
H1975 H 0.33688 0.83508 0.83349 0.0
C1976 C 0.6968 0.75589 0.57258 0.0
C1977 C 0.70571 0.73932 0.58014 0.0
C1978 C 0.67915 0.73855 0.57153 0.0
C1979 C 0.64695 0.61485 0.57933 0.0
H1980 H 0.61344 0.72574 0.56732 0.0
C1981 C 0.57304 0.54704 0.57609 0.0
C1982 C 0.56464 0.56533 0.56847 0.0
C1983 C 0.59048 0.56582 0.57758 0.0
C1984 C 0.62269 0.69368 0.57059 0.0
H1985 H 0.70268 0.69563 0.59273 0.0
H1986 H 0.67194 0.6665 0.59093 0.0
H1987 H 0.64278 0.76839 0.57007 0.0
H1988 H 0.5683 0.61349 0.5562 0.0
H1989 H 0.59866 0.64438 0.55868 0.0
H1990 H 0.62689 0.53992 0.5798 0.0
C1991 C 0.67868 0.69141 0.58574 0.0
C1992 C 0.63951 0.71833 0.57219 0.0
C1993 C 0.69628 0.70874 0.58679 0.0
C1994 C 0.57433 0.59918 0.56218 0.0
C1995 C 0.59172 0.61752 0.56364 0.0
C1996 C 0.63012 0.59011 0.57772 0.0
C1997 C 0.67003 0.70432 0.578 0.0
C1998 C 0.65189 0.67918 0.57655 0.0
C1999 C 0.59987 0.60297 0.57146 0.0
C2000 C 0.61779 0.62905 0.57328 0.0
H2001 H 0.70366 0.77912 0.56731 0.0
H2002 H 0.67292 0.7491 0.56548 0.0
H2003 H 0.65623 0.58285 0.58259 0.0
H2004 H 0.56588 0.52143 0.58109 0.0
H2005 H 0.59632 0.55387 0.58368 0.0
C2006 C 0.56656 0.72436 0.6921 0.0
C2007 C 0.55524 0.6741 0.68914 0.0
C2008 C 0.58473 0.71378 0.69214 0.0
C2009 C 0.61665 0.57425 0.69251 0.0
H2010 H 0.6507 0.71346 0.68795 0.0
C2011 C 0.69182 0.52549 0.69217 0.0
C2012 C 0.7022 0.57496 0.69604 0.0
C2013 C 0.67386 0.53644 0.69088 0.0
C2014 C 0.64135 0.67413 0.6893 0.0
H2015 H 0.55408 0.57547 0.68339 0.0
H2016 H 0.58554 0.55786 0.68329 0.0
H2017 H 0.61957 0.73741 0.68627 0.0
H2018 H 0.70172 0.67376 0.70182 0.0
H2019 H 0.67068 0.69211 0.69967 0.0
H2020 H 0.63842 0.51116 0.69561 0.0
C2021 C 0.5805 0.6045 0.68582 0.0
C2022 C 0.6235 0.68794 0.68834 0.0
C2023 C 0.56244 0.61485 0.68582 0.0
C2024 C 0.69419 0.63469 0.69874 0.0
C2025 C 0.67636 0.64557 0.69746 0.0
C2026 C 0.6345 0.56044 0.69345 0.0
C2027 C 0.59186 0.65293 0.68919 0.0
C2028 C 0.61092 0.63827 0.68998 0.0
C2029 C 0.66599 0.59708 0.69342 0.0
C2030 C 0.64706 0.61037 0.69194 0.0
H2031 H 0.56137 0.77038 0.69473 0.0
H2032 H 0.59311 0.75209 0.69482 0.0
H2033 H 0.60732 0.53506 0.69396 0.0
H2034 H 0.69762 0.47906 0.69 0.0
H2035 H 0.66622 0.49811 0.68773 0.0
C2036 C 0.43743 0.42149 0.45302 0.0
C2037 C 0.44776 0.4555 0.447 0.0
C2038 C 0.42016 0.40393 0.45117 0.0
C2039 C 0.38292 0.43377 0.4365 0.0
H2040 H 0.36973 0.25434 0.44347 0.0
C2041 C 0.31658 0.31798 0.42673 0.0
C2042 C 0.30713 0.28538 0.43323 0.0
C2043 C 0.33416 0.33544 0.42791 0.0
C2044 C 0.37312 0.30473 0.44154 0.0
H2045 H 0.44775 0.50074 0.43444 0.0
H2046 H 0.41743 0.46985 0.43117 0.0
H2047 H 0.39895 0.29602 0.44668 0.0
H2048 H 0.30914 0.24252 0.4459 0.0
H2049 H 0.33976 0.27282 0.44794 0.0
H2050 H 0.35701 0.44245 0.43139 0.0
C2051 C 0.42273 0.45704 0.43736 0.0
C2052 C 0.38989 0.3288 0.44339 0.0
C2053 C 0.44009 0.47496 0.43924 0.0
C2054 C 0.316 0.26737 0.44074 0.0
C2055 C 0.3336 0.28479 0.44191 0.0
C2056 C 0.36612 0.40966 0.43464 0.0
C2057 C 0.41273 0.4195 0.44322 0.0
C2058 C 0.39496 0.39389 0.44098 0.0
C2059 C 0.34277 0.32061 0.4356 0.0
C2060 C 0.36096 0.34498 0.43719 0.0
H2061 H 0.44289 0.4063 0.45909 0.0
H2062 H 0.41272 0.37674 0.45593 0.0
H2063 H 0.38631 0.48426 0.43461 0.0
H2064 H 0.31021 0.33241 0.42084 0.0
H2065 H 0.34091 0.36172 0.42284 0.0
C2066 C 0.44921 0.26171 0.32178 0.0
C2067 C 0.45859 0.28965 0.32861 0.0
C2068 C 0.43131 0.27535 0.32077 0.0
C2069 C 0.3921 0.34586 0.33183 0.0
H2070 H 0.3776 0.39135 0.30886 0.0
C2071 C 0.32503 0.47022 0.32476 0.0
C2072 C 0.31563 0.44288 0.31789 0.0
C2073 C 0.34263 0.45279 0.32607 0.0
C2074 C 0.38138 0.37835 0.31531 0.0
H2075 H 0.45628 0.35028 0.34003 0.0
H2076 H 0.42533 0.37419 0.33826 0.0
H2077 H 0.40728 0.35145 0.31139 0.0
H2078 H 0.31752 0.37798 0.30684 0.0
H2079 H 0.34797 0.34795 0.3091 0.0
H2080 H 0.36618 0.37333 0.33574 0.0
C2081 C 0.43165 0.34159 0.33368 0.0
C2082 C 0.3984 0.35504 0.31675 0.0
C2083 C 0.44947 0.32802 0.33468 0.0
C2084 C 0.32436 0.39996 0.3122 0.0
C2085 C 0.34189 0.3829 0.31347 0.0
C2086 C 0.37508 0.36933 0.33038 0.0
C2087 C 0.42243 0.31704 0.32659 0.0
C2088 C 0.404 0.33848 0.32503 0.0
C2089 C 0.35118 0.40814 0.3205 0.0
C2090 C 0.36951 0.38582 0.3221 0.0
H2091 H 0.45583 0.232 0.31698 0.0
H2092 H 0.42454 0.25455 0.31532 0.0
H2093 H 0.39588 0.33293 0.33827 0.0
H2094 H 0.31866 0.50322 0.32927 0.0
H2095 H 0.34949 0.47379 0.33148 0.0
C2096 C 0.07412 0.04975 0.58509 0.0
C2097 C 0.06551 0.01576 0.57845 0.0
C2098 C 0.09197 0.06461 0.58452 0.0
C2099 C 0.13289 0.02277 0.57307 0.0
H2100 H 0.1461 0.20531 0.57855 0.0
C2101 C 0.19965 0.1258 0.56304 0.0
C2102 C 0.20906 0.16516 0.56887 0.0
C2103 C 0.18211 0.11015 0.56448 0.0
C2104 C 0.1427 0.15395 0.5771 0.0
H2105 H 0.06922 0.96752 0.5662 0.0
H2106 H 0.10044 0.99294 0.56524 0.0
H2107 H 0.11599 0.16829 0.58086 0.0
H2108 H 0.20724 0.22151 0.58062 0.0
H2109 H 0.17639 0.19342 0.58324 0.0
H2110 H 0.15952 0.00813 0.56931 0.0
C2111 C 0.09333 0.00821 0.57089 0.0
C2112 C 0.12543 0.13266 0.57842 0.0
C2113 C 0.07543 0.99356 0.57144 0.0
C2114 C 0.20028 0.19134 0.576 0.0
C2115 C 0.18263 0.17509 0.57749 0.0
C2116 C 0.15014 0.04391 0.57178 0.0
C2117 C 0.10171 0.0455 0.57732 0.0
C2118 C 0.12028 0.06699 0.57634 0.0
C2119 C 0.17348 0.13276 0.57184 0.0
C2120 C 0.15524 0.11005 0.57366 0.0
H2121 H 0.06694 0.06732 0.59061 0.0
H2122 H 0.09809 0.09221 0.58966 0.0
H2123 H 0.12944 0.9716 0.57153 0.0
H2124 H 0.20598 0.10561 0.55742 0.0
H2125 H 0.17538 0.07928 0.55985 0.0
C2126 C 0.19906 0.12841 0.69117 0.0
C2127 C 0.20547 0.06272 0.69198 0.0
C2128 C 0.18113 0.14144 0.69145 0.0
C2129 C 0.13769 0.06105 0.68924 0.0
H2130 H 0.12156 0.22062 0.70097 0.0
C2131 C 0.0652 0.10379 0.69714 0.0
C2132 C 0.05798 0.16736 0.69553 0.0
C2133 C 0.0832 0.09321 0.69665 0.0
C2134 C 0.12588 0.17633 0.69759 0.0
H2135 H 0.198 0.95898 0.69368 0.0
H2136 H 0.16652 0.9818 0.69434 0.0
H2137 H 0.15282 0.19573 0.70037 0.0
H2138 H 0.06418 0.27021 0.69233 0.0
H2139 H 0.09595 0.25167 0.69154 0.0
H2140 H 0.1107 0.04121 0.68659 0.0
C2141 C 0.17543 0.02322 0.69335 0.0
C2142 C 0.1438 0.16195 0.69724 0.0
C2143 C 0.19346 0.01008 0.69301 0.0
C2144 C 0.06932 0.22071 0.69361 0.0
C2145 C 0.08748 0.21009 0.69317 0.0
C2146 C 0.11978 0.07524 0.68964 0.0
C2147 C 0.16905 0.08922 0.69262 0.0
C2148 C 0.14994 0.10406 0.69307 0.0
C2149 C 0.09456 0.14589 0.69457 0.0
C2150 C 0.11367 0.13287 0.69385 0.0
H2151 H 0.20791 0.1702 0.69028 0.0
H2152 H 0.17674 0.19262 0.69068 0.0
H2153 H 0.14193 0.01677 0.68584 0.0
H2154 H 0.05692 0.0615 0.69869 0.0
H2155 H 0.08824 0.04352 0.69793 0.0
C2156 C 0.94394 0.96243 0.4398 0.0
C2157 C 0.95494 0.91953 0.44446 0.0
C2158 C 0.92602 0.94823 0.439 0.0
C2159 C 0.89436 0.80737 0.44068 0.0
H2160 H 0.85971 0.94862 0.44192 0.0
C2161 C 0.81927 0.75808 0.44341 0.0
C2162 C 0.80814 0.8032 0.43919 0.0
C2163 C 0.83744 0.76923 0.44357 0.0
C2164 C 0.86922 0.90857 0.44145 0.0
H2165 H 0.95557 0.82916 0.45215 0.0
H2166 H 0.92452 0.80525 0.45086 0.0
H2167 H 0.89065 0.97622 0.44324 0.0
H2168 H 0.80742 0.89266 0.43135 0.0
H2169 H 0.83884 0.91104 0.43148 0.0
H2170 H 0.87287 0.73968 0.43893 0.0
C2171 C 0.92971 0.84902 0.44766 0.0
C2172 C 0.88698 0.9245 0.4422 0.0
C2173 C 0.94754 0.86313 0.44845 0.0
C2174 C 0.8156 0.85735 0.43476 0.0
C2175 C 0.83364 0.86826 0.43488 0.0
C2176 C 0.87657 0.79142 0.43992 0.0
C2177 C 0.91873 0.89084 0.44284 0.0
C2178 C 0.8998 0.87413 0.44185 0.0
C2179 C 0.84477 0.82555 0.43949 0.0
C2180 C 0.86376 0.84184 0.44028 0.0
H2181 H 0.94923 0.0061 0.43661 0.0
H2182 H 0.91796 0.98135 0.43519 0.0
H2183 H 0.90389 0.76735 0.44025 0.0
H2184 H 0.8139 0.71614 0.44692 0.0
H2185 H 0.84562 0.73536 0.4472 0.0
C2186 C 0.95618 0.88529 0.32512 0.0
C2187 C 0.96366 0.82093 0.32521 0.0
C2188 C 0.93813 0.89397 0.3258 0.0
C2189 C 0.89641 0.80659 0.3222 0.0
H2190 H 0.87704 0.95741 0.33463 0.0
C2191 C 0.82215 0.8427 0.32608 0.0
C2192 C 0.81527 0.90743 0.32494 0.0
C2193 C 0.84016 0.83224 0.32665 0.0
C2194 C 0.88226 0.91549 0.33106 0.0
H2195 H 0.95795 0.71505 0.32626 0.0
H2196 H 0.92616 0.73019 0.32751 0.0
H2197 H 0.9085 0.93614 0.33505 0.0
H2198 H 0.82202 0.01228 0.32368 0.0
H2199 H 0.85374 0.99395 0.32464 0.0
H2200 H 0.87019 0.78612 0.31818 0.0
C2201 C 0.9344 0.77397 0.32683 0.0
C2202 C 0.90029 0.90312 0.33132 0.0
C2203 C 0.9526 0.76524 0.32616 0.0
C2204 C 0.8269 0.96186 0.32456 0.0
C2205 C 0.84504 0.95131 0.32514 0.0
C2206 C 0.87839 0.81887 0.32196 0.0
C2207 C 0.92695 0.83856 0.3266 0.0
C2208 C 0.90762 0.8488 0.32684 0.0
C2209 C 0.85187 0.88616 0.32609 0.0
C2210 C 0.87109 0.87363 0.32636 0.0
H2211 H 0.96427 0.92948 0.32441 0.0
H2212 H 0.9329 0.9443 0.32546 0.0
H2213 H 0.90161 0.76508 0.31855 0.0
H2214 H 0.81362 0.79951 0.32648 0.0
H2215 H 0.84491 0.78164 0.32755 0.0
C2216 C 0.19831 0.68622 0.08688 0.0
C2217 C 0.20677 0.7213 0.08027 0.0
C2218 C 0.18063 0.66864 0.0862 0.0
C2219 C 0.13981 0.70423 0.07424 0.0
H2220 H 0.12774 0.5211 0.08004 0.0
C2221 C 0.07484 0.59131 0.06336 0.0
C2222 C 0.06512 0.55343 0.06924 0.0
C2223 C 0.09218 0.60863 0.06502 0.0
C2224 C 0.13083 0.57258 0.07849 0.0
H2225 H 0.20294 0.76828 0.06795 0.0
H2226 H 0.17212 0.73796 0.06678 0.0
H2227 H 0.15739 0.56216 0.08269 0.0
H2228 H 0.06628 0.5011 0.08133 0.0
H2229 H 0.0968 0.53183 0.08429 0.0
H2230 H 0.11336 0.71482 0.07001 0.0
C2231 C 0.17915 0.72406 0.07251 0.0
C2232 C 0.14782 0.59622 0.08002 0.0
C2233 C 0.19686 0.74146 0.07317 0.0
C2234 C 0.07347 0.53002 0.07665 0.0
C2235 C 0.09093 0.54783 0.07835 0.0
C2236 C 0.12286 0.68071 0.07273 0.0
C2237 C 0.17093 0.686 0.07892 0.0
C2238 C 0.15257 0.66213 0.07781 0.0
C2239 C 0.10031 0.58908 0.07266 0.0
C2240 C 0.1182 0.61429 0.07471 0.0
H2241 H 0.2055 0.67001 0.09246 0.0
H2242 H 0.17463 0.64043 0.09133 0.0
H2243 H 0.1429 0.75557 0.07261 0.0
H2244 H 0.06885 0.60944 0.05754 0.0
H2245 H 0.09914 0.63866 0.06037 0.0
C2246 C 0.06374 0.63033 0.19278 0.0
C2247 C 0.05678 0.69492 0.19392 0.0
C2248 C 0.08176 0.61945 0.19285 0.0
C2249 C 0.12459 0.70344 0.19041 0.0
H2250 H 0.14178 0.54279 0.20153 0.0
C2251 C 0.19813 0.65662 0.19618 0.0
C2252 C 0.20476 0.5919 0.19471 0.0
C2253 C 0.18015 0.66897 0.19606 0.0
C2254 C 0.13718 0.58743 0.19831 0.0
H2255 H 0.06344 0.79912 0.1959 0.0
H2256 H 0.0952 0.78002 0.19612 0.0
H2257 H 0.11051 0.56719 0.20157 0.0
H2258 H 0.19756 0.48916 0.19203 0.0
H2259 H 0.16594 0.51077 0.19183 0.0
H2260 H 0.15133 0.72378 0.18721 0.0
C2261 C 0.08657 0.73781 0.1951 0.0
C2262 C 0.11924 0.60156 0.19834 0.0
C2263 C 0.06839 0.74881 0.195 0.0
C2264 C 0.19289 0.5395 0.1932 0.0
C2265 C 0.17479 0.5519 0.19311 0.0
C2266 C 0.14255 0.68939 0.19041 0.0
C2267 C 0.09345 0.67274 0.1941 0.0
C2268 C 0.11268 0.65956 0.19435 0.0
C2269 C 0.16823 0.61698 0.19449 0.0
C2270 C 0.14907 0.63113 0.19435 0.0
H2271 H 0.05524 0.58757 0.19183 0.0
H2272 H 0.08653 0.569 0.19185 0.0
H2273 H 0.12001 0.74798 0.18717 0.0
H2274 H 0.20684 0.69829 0.1974 0.0
H2275 H 0.17558 0.71938 0.19729 0.0
C2276 C 0.82415 0.28311 0.93741 0.0
C2277 C 0.81626 0.29821 0.94528 0.0
C2278 C 0.84139 0.30365 0.9357 0.0
C2279 C 0.87371 0.43068 0.94277 0.0
H2280 H 0.90724 0.3224 0.93037 0.0
C2281 C 0.94776 0.49214 0.94142 0.0
C2282 C 0.95703 0.47701 0.93391 0.0
C2283 C 0.93006 0.47492 0.94223 0.0
C2284 C 0.89796 0.35376 0.93373 0.0
H2285 H 0.82062 0.34301 0.9577 0.0
H2286 H 0.85057 0.37722 0.9548 0.0
H2287 H 0.87786 0.27902 0.93302 0.0
H2288 H 0.95457 0.4357 0.92117 0.0
H2289 H 0.92371 0.40675 0.92256 0.0
H2290 H 0.89381 0.50516 0.94355 0.0
C2291 C 0.84338 0.35136 0.94984 0.0
C2292 C 0.88111 0.32875 0.93527 0.0
C2293 C 0.82623 0.33115 0.95153 0.0
C2294 C 0.9479 0.44781 0.92707 0.0
C2295 C 0.93022 0.43055 0.92789 0.0
C2296 C 0.89054 0.45564 0.94124 0.0
C2297 C 0.85105 0.33954 0.94184 0.0
C2298 C 0.86883 0.36659 0.93989 0.0
C2299 C 0.9212 0.44221 0.93556 0.0
C2300 C 0.90294 0.41731 0.93677 0.0
H2301 H 0.81677 0.25822 0.93245 0.0
H2302 H 0.84687 0.29378 0.92946 0.0
H2303 H 0.86448 0.46191 0.94618 0.0
H2304 H 0.95437 0.51436 0.94683 0.0
H2305 H 0.92357 0.48441 0.94825 0.0
C2306 C 0.93617 0.30389 0.81059 0.0
C2307 C 0.94678 0.2732 0.81678 0.0
C2308 C 0.91911 0.32377 0.81254 0.0
C2309 C 0.88283 0.30614 0.82808 0.0
H2310 H 0.87044 0.48328 0.81991 0.0
C2311 C 0.81792 0.43225 0.83794 0.0
C2312 C 0.80826 0.46222 0.83132 0.0
C2313 C 0.83537 0.41331 0.83668 0.0
C2314 C 0.87361 0.43356 0.82219 0.0
H2315 H 0.9474 0.23589 0.82976 0.0
H2316 H 0.91747 0.27062 0.83318 0.0
H2317 H 0.89904 0.43655 0.81649 0.0
H2318 H 0.80981 0.49943 0.81834 0.0
H2319 H 0.84017 0.46642 0.81615 0.0
H2320 H 0.8573 0.303 0.83372 0.0
C2321 C 0.92239 0.27914 0.8268 0.0
C2322 C 0.89001 0.40661 0.82021 0.0
C2323 C 0.93953 0.25902 0.82483 0.0
C2324 C 0.81683 0.47662 0.82359 0.0
C2325 C 0.83429 0.45764 0.82233 0.0
C2326 C 0.86638 0.33308 0.83005 0.0
C2327 C 0.91219 0.31372 0.82075 0.0
C2328 C 0.89478 0.3423 0.82305 0.0
C2329 C 0.84363 0.42398 0.82877 0.0
C2330 C 0.86151 0.39698 0.82708 0.0
H2331 H 0.9413 0.31503 0.80431 0.0
H2332 H 0.91146 0.3486 0.80766 0.0
H2333 H 0.88602 0.25633 0.83032 0.0
H2334 H 0.81178 0.4207 0.84399 0.0
H2335 H 0.84228 0.38888 0.84184 0.0
loop_
_geom_bond_atom_site_label_1
_geom_bond_atom_site_label_2
_geom_bond_distance
_geom_bond_site_symmetry_2
_ccdc_geom_bond_type
Mg0 O7 2.141 . S
Mg0 O8 2.048 . S
Mg0 O9 2.048 . S
Mg0 O12 2.141 . S
C1 O2 1.313 1_545 S
C1 O8 1.195 . S
O2 C1 1.313 1_565 S
C3 O4 1.245 1_545 S
C3 O12 1.289 . S
O4 C3 1.245 1_565 S
C5 O6 1.245 . S
C5 O7 1.289 1_565 S
O6 C5 1.245 . S
O7 Mg0 2.141 . S
O7 C5 1.289 1_545 S
O8 Mg0 2.048 . S
O8 C1 1.195 . S
O9 Mg0 2.048 . S
O9 C10 1.195 . S
C10 O9 1.195 . S
C10 O11 1.313 . S
O11 C10 1.313 . S
O12 Mg0 2.141 . S
O12 C3 1.289 . S
Mg13 O20 2.141 . S
Mg13 O21 2.048 . S
Mg13 O22 2.048 . S
Mg13 O25 2.141 . S
C14 O15 1.313 . S
C14 O21 1.195 . S
O15 C14 1.313 . S
C16 O17 1.245 . S
C16 O25 1.289 . S
O17 C16 1.245 . S
C18 O19 1.245 . S
C18 O20 1.289 . S
O19 C18 1.245 . S
O20 Mg13 2.141 . S
O20 C18 1.289 . S
O21 Mg13 2.048 . S
O21 C14 1.195 . S
O22 Mg13 2.048 . S
O22 C23 1.195 . S
C23 O22 1.195 . S
C23 O24 1.313 . S
O24 C23 1.313 . S
O25 Mg13 2.141 . S
O25 C16 1.289 . S
Mg26 O33 2.141 . S
Mg26 O34 2.048 . S
Mg26 O35 2.048 . S
Mg26 O38 2.141 . S
C27 O28 1.313 . S
C27 O34 1.195 . S
O28 C27 1.313 . S
C29 O30 1.245 . S
C29 O38 1.289 . S
O30 C29 1.245 . S
C31 O32 1.245 . S
C31 O33 1.289 . S
O32 C31 1.245 . S
O33 Mg26 2.141 . S
O33 C31 1.289 . S
O34 Mg26 2.048 . S
O34 C27 1.195 . S
O35 Mg26 2.048 . S
O35 C36 1.195 . S
C36 O35 1.195 . S
C36 O37 1.313 . S
O37 C36 1.313 . S
O38 Mg26 2.141 . S
O38 C29 1.289 . S
Mg39 O46 2.141 . S
Mg39 O47 2.048 . S
Mg39 O48 2.048 . S
Mg39 O51 2.141 . S
C40 O41 1.313 1_545 S
C40 O47 1.195 . S
O41 C40 1.313 1_565 S
C42 O43 1.245 1_545 S
C42 O51 1.289 . S
O43 C42 1.245 1_565 S
C44 O45 1.245 . S
C44 O46 1.289 1_565 S
O45 C44 1.245 . S
O46 Mg39 2.141 . S
O46 C44 1.289 1_545 S
O47 Mg39 2.048 . S
O47 C40 1.195 . S
O48 Mg39 2.048 . S
O48 C49 1.195 . S
C49 O48 1.195 . S
C49 O50 1.313 . S
O50 C49 1.313 . S
O51 Mg39 2.141 . S
O51 C42 1.289 . S
Mg52 O59 2.141 . S
Mg52 O60 2.048 . S
Mg52 O61 2.048 . S
Mg52 O64 2.141 . S
C53 O54 1.313 . S
C53 O60 1.195 . S
O54 C53 1.313 . S
C55 O56 1.245 . S
C55 O64 1.289 1_545 S
O56 C55 1.245 . S
C57 O58 1.245 1_565 S
C57 O59 1.289 . S
O58 C57 1.245 1_545 S
O59 Mg52 2.141 . S
O59 C57 1.289 . S
O60 Mg52 2.048 . S
O60 C53 1.195 . S
O61 Mg52 2.048 . S
O61 C62 1.195 . S
C62 O61 1.195 . S
C62 O63 1.313 1_565 S
O63 C62 1.313 1_545 S
O64 Mg52 2.141 . S
O64 C55 1.289 1_565 S
Mg65 O72 2.141 . S
Mg65 O73 2.048 . S
Mg65 O74 2.048 . S
Mg65 O77 2.141 . S
C66 O67 1.313 . S
C66 O73 1.195 . S
O67 C66 1.313 . S
C68 O69 1.245 . S
C68 O77 1.289 . S
O69 C68 1.245 . S
C70 O71 1.245 . S
C70 O72 1.289 . S
O71 C70 1.245 . S
O72 Mg65 2.141 . S
O72 C70 1.289 . S
O73 Mg65 2.048 . S
O73 C66 1.195 . S
O74 Mg65 2.048 . S
O74 C75 1.195 . S
C75 O74 1.195 . S
C75 O76 1.313 . S
O76 C75 1.313 . S
O77 Mg65 2.141 . S
O77 C68 1.289 . S
Mg78 O85 2.141 . S
Mg78 O86 2.048 . S
Mg78 O87 2.048 . S
Mg78 O90 2.141 . S
C79 O80 1.313 . S
C79 O86 1.195 . S
O80 C79 1.313 . S
C81 O82 1.245 . S
C81 O90 1.289 . S
O82 C81 1.245 . S
C83 O84 1.245 . S
C83 O85 1.289 . S
O84 C83 1.245 . S
O85 Mg78 2.141 . S
O85 C83 1.289 . S
O86 Mg78 2.048 . S
O86 C79 1.195 . S
O87 Mg78 2.048 . S
O87 C88 1.195 . S
C88 O87 1.195 . S
C88 O89 1.313 . S
O89 C88 1.313 . S
O90 Mg78 2.141 . S
O90 C81 1.289 . S
Mg91 O98 2.141 . S
Mg91 O99 2.048 . S
Mg91 O100 2.048 . S
Mg91 O103 2.141 . S
C92 O93 1.313 . S
C92 O99 1.195 . S
O93 C92 1.313 . S
C94 O95 1.245 . S
C94 O103 1.289 1_545 S
O95 C94 1.245 . S
C96 O97 1.245 1_565 S
C96 O98 1.289 . S
O97 C96 1.245 1_545 S
O98 Mg91 2.141 . S
O98 C96 1.289 . S
O99 Mg91 2.048 . S
O99 C92 1.195 . S
O100 Mg91 2.048 . S
O100 C101 1.195 . S
C101 O100 1.195 . S
C101 O102 1.313 1_565 S
O102 C101 1.313 1_545 S
O103 Mg91 2.141 . S
O103 C94 1.289 1_565 S
Mg104 O111 2.141 . S
Mg104 O112 2.048 . S
Mg104 O113 2.048 . S
Mg104 O116 2.141 . S
C105 O106 1.313 . S
C105 O112 1.195 . S
O106 C105 1.313 . S
C107 O108 1.245 . S
C107 O116 1.289 . S
O108 C107 1.245 . S
C109 O110 1.245 . S
C109 O111 1.289 . S
O110 C109 1.245 . S
O111 Mg104 2.141 . S
O111 C109 1.289 . S
O112 Mg104 2.048 . S
O112 C105 1.195 . S
O113 Mg104 2.048 . S
O113 C114 1.195 . S
C114 O113 1.195 . S
C114 O115 1.313 . S
O115 C114 1.313 . S
O116 Mg104 2.141 . S
O116 C107 1.289 . S
Mg117 O124 2.141 . S
Mg117 O125 2.048 . S
Mg117 O126 2.048 . S
Mg117 O129 2.141 . S
C118 O119 1.313 . S
C118 O125 1.195 . S
O119 C118 1.313 . S
C120 O121 1.245 . S
C120 O129 1.289 . S
O121 C120 1.245 . S
C122 O123 1.245 . S
C122 O124 1.289 . S
O123 C122 1.245 . S
O124 Mg117 2.141 . S
O124 C122 1.289 . S
O125 Mg117 2.048 . S
O125 C118 1.195 . S
O126 Mg117 2.048 . S
O126 C127 1.195 . S
C127 O126 1.195 . S
C127 O128 1.313 . S
O128 C127 1.313 . S
O129 Mg117 2.141 . S
O129 C120 1.289 . S
Mg130 O137 2.141 . S
Mg130 O138 2.048 . S
Mg130 O139 2.048 . S
Mg130 O142 2.141 . S
C131 O132 1.313 . S
C131 O138 1.195 . S
O132 C131 1.313 . S
C133 O134 1.245 . S
C133 O142 1.289 . S
O134 C133 1.245 . S
C135 O136 1.245 . S
C135 O137 1.289 . S
O136 C135 1.245 . S
O137 Mg130 2.141 . S
O137 C135 1.289 . S
O138 Mg130 2.048 . S
O138 C131 1.195 . S
O139 Mg130 2.048 . S
O139 C140 1.195 . S
C140 O139 1.195 . S
C140 O141 1.313 . S
O141 C140 1.313 . S
O142 Mg130 2.141 . S
O142 C133 1.289 . S
Mg143 O150 2.141 . S
Mg143 O151 2.048 . S
Mg143 O152 2.048 . S
Mg143 O155 2.141 . S
C144 O145 1.313 . S
C144 O151 1.195 . S
O145 C144 1.313 . S
C146 O147 1.245 . S
C146 O155 1.289 . S
O147 C146 1.245 . S
C148 O149 1.245 . S
C148 O150 1.289 . S
O149 C148 1.245 . S
O150 Mg143 2.141 . S
O150 C148 1.289 . S
O151 Mg143 2.048 . S
O151 C144 1.195 . S
O152 Mg143 2.048 . S
O152 C153 1.195 . S
C153 O152 1.195 . S
C153 O154 1.313 . S
O154 C153 1.313 . S
O155 Mg143 2.141 . S
O155 C146 1.289 . S
Mg156 O163 2.141 . S
Mg156 O164 2.048 . S
Mg156 O165 2.048 . S
Mg156 O168 2.141 . S
C157 O158 1.313 . S
C157 O164 1.195 . S
O158 C157 1.313 . S
C159 O160 1.245 . S
C159 O168 1.289 . S
O160 C159 1.245 . S
C161 O162 1.245 . S
C161 O163 1.289 . S
O162 C161 1.245 . S
O163 Mg156 2.141 . S
O163 C161 1.289 . S
O164 Mg156 2.048 . S
O164 C157 1.195 . S
O165 Mg156 2.048 . S
O165 C166 1.195 . S
C166 O165 1.195 . S
C166 O167 1.313 . S
O167 C166 1.313 . S
O168 Mg156 2.141 . S
O168 C159 1.289 . S
Mg169 O176 2.141 . S
Mg169 O177 2.048 . S
Mg169 O178 2.048 . S
Mg169 O181 2.141 . S
C170 O171 1.313 . S
C170 O177 1.195 . S
O171 C170 1.313 . S
C172 O173 1.245 . S
C172 O181 1.289 . S
O173 C172 1.245 . S
C174 O175 1.245 . S
C174 O176 1.289 . S
O175 C174 1.245 . S
O176 Mg169 2.141 . S
O176 C174 1.289 . S
O177 Mg169 2.048 . S
O177 C170 1.195 . S
O178 Mg169 2.048 . S
O178 C179 1.195 . S
C179 O178 1.195 . S
C179 O180 1.313 . S
O180 C179 1.313 . S
O181 Mg169 2.141 . S
O181 C172 1.289 . S
Mg182 O189 2.141 . S
Mg182 O190 2.048 . S
Mg182 O191 2.048 . S
Mg182 O194 2.141 . S
C183 O184 1.313 . S
C183 O190 1.195 . S
O184 C183 1.313 . S
C185 O186 1.245 . S
C185 O194 1.289 . S
O186 C185 1.245 . S
C187 O188 1.245 . S
C187 O189 1.289 . S
O188 C187 1.245 . S
O189 Mg182 2.141 . S
O189 C187 1.289 . S
O190 Mg182 2.048 . S
O190 C183 1.195 . S
O191 Mg182 2.048 . S
O191 C192 1.195 . S
C192 O191 1.195 . S
C192 O193 1.313 . S
O193 C192 1.313 . S
O194 Mg182 2.141 . S
O194 C185 1.289 . S
Mg195 O202 2.141 . S
Mg195 O203 2.048 . S
Mg195 O204 2.048 . S
Mg195 O207 2.141 . S
C196 O197 1.313 . S
C196 O203 1.195 . S
O197 C196 1.313 . S
C198 O199 1.245 . S
C198 O207 1.289 . S
O199 C198 1.245 . S
C200 O201 1.245 . S
C200 O202 1.289 . S
O201 C200 1.245 . S
O202 Mg195 2.141 . S
O202 C200 1.289 . S
O203 Mg195 2.048 . S
O203 C196 1.195 . S
O204 Mg195 2.048 . S
O204 C205 1.195 . S
C205 O204 1.195 . S
C205 O206 1.313 . S
O206 C205 1.313 . S
O207 Mg195 2.141 . S
O207 C198 1.289 . S
Mg208 O215 2.141 . S
Mg208 O216 2.048 . S
Mg208 O217 2.048 1_655 S
Mg208 O220 2.141 . S
C209 O210 1.311 1_645 S
C209 O216 1.197 . S
O210 C209 1.311 1_465 S
C211 O212 1.245 1_645 S
C211 O220 1.289 . S
O212 C211 1.245 1_465 S
C213 O214 1.240 1_545 S
C213 O215 1.294 . S
O214 C213 1.240 1_565 S
O215 Mg208 2.141 . S
O215 C213 1.294 . S
O216 Mg208 2.048 . S
O216 C209 1.197 . S
O217 Mg208 2.048 1_455 S
O217 C218 1.195 . S
C218 O217 1.195 . S
C218 O219 1.313 . S
O219 C218 1.313 . S
O220 Mg208 2.141 . S
O220 C211 1.289 . S
Mg221 O228 2.141 . S
Mg221 O229 2.048 . S
Mg221 O230 2.048 . S
Mg221 O233 2.141 . S
C222 O223 1.313 . S
C222 O229 1.195 . S
O223 C222 1.313 . S
C224 O225 1.245 . S
C224 O233 1.289 . S
O225 C224 1.245 . S
C226 O227 1.245 . S
C226 O228 1.289 . S
O227 C226 1.245 . S
O228 Mg221 2.141 . S
O228 C226 1.289 . S
O229 Mg221 2.048 . S
O229 C222 1.195 . S
O230 Mg221 2.048 . S
O230 C231 1.195 . S
C231 O230 1.195 . S
C231 O232 1.313 . S
O232 C231 1.313 . S
O233 Mg221 2.141 . S
O233 C224 1.289 . S
Mg234 O241 2.141 . S
Mg234 O242 2.048 . S
Mg234 O243 2.048 1_655 S
Mg234 O246 2.141 . S
C235 O236 1.313 1_655 S
C235 O242 1.195 . S
O236 C235 1.313 1_455 S
C237 O238 1.245 1_655 S
C237 O246 1.289 . S
O238 C237 1.245 1_455 S
C239 O240 1.245 . S
C239 O241 1.289 . S
O240 C239 1.245 . S
O241 Mg234 2.141 . S
O241 C239 1.289 . S
O242 Mg234 2.048 . S
O242 C235 1.195 . S
O243 Mg234 2.048 1_455 S
O243 C244 1.195 . S
C244 O243 1.195 . S
C244 O245 1.313 . S
O245 C244 1.313 . S
O246 Mg234 2.141 . S
O246 C237 1.289 . S
Mg247 O254 2.141 . S
Mg247 O255 2.048 . S
Mg247 O256 2.048 . S
Mg247 O259 2.141 . S
C248 O249 1.313 1_545 S
C248 O255 1.195 . S
O249 C248 1.313 1_565 S
C250 O251 1.245 1_545 S
C250 O259 1.289 . S
O251 C250 1.245 1_565 S
C252 O253 1.245 . S
C252 O254 1.289 1_565 S
O253 C252 1.245 . S
O254 Mg247 2.141 . S
O254 C252 1.289 1_545 S
O255 Mg247 2.048 . S
O255 C248 1.195 . S
O256 Mg247 2.048 . S
O256 C257 1.195 . S
C257 O256 1.195 . S
C257 O258 1.313 . S
O258 C257 1.313 . S
O259 Mg247 2.141 . S
O259 C250 1.289 . S
Mg260 O267 2.141 . S
Mg260 O268 2.048 1_455 S
Mg260 O269 2.048 . S
Mg260 O272 2.141 . S
C261 O262 1.313 . S
C261 O268 1.195 . S
O262 C261 1.313 . S
C263 O264 1.240 1_565 S
C263 O272 1.294 . S
O264 C263 1.240 1_545 S
C265 O266 1.245 1_465 S
C265 O267 1.289 . S
O266 C265 1.245 1_645 S
O267 Mg260 2.141 . S
O267 C265 1.289 . S
O268 Mg260 2.048 1_655 S
O268 C261 1.195 . S
O269 Mg260 2.048 . S
O269 C270 1.197 . S
C270 O269 1.197 . S
C270 O271 1.311 1_465 S
O271 C270 1.311 1_645 S
O272 Mg260 2.141 . S
O272 C263 1.294 . S
Mg273 O280 2.141 . S
Mg273 O281 2.048 . S
Mg273 O282 2.048 . S
Mg273 O285 2.141 . S
C274 O275 1.313 . S
C274 O281 1.195 . S
O275 C274 1.313 . S
C276 O277 1.245 . S
C276 O285 1.289 . S
O277 C276 1.245 . S
C278 O279 1.245 . S
C278 O280 1.289 . S
O279 C278 1.245 . S
O280 Mg273 2.141 . S
O280 C278 1.289 . S
O281 Mg273 2.048 . S
O281 C274 1.195 . S
O282 Mg273 2.048 . S
O282 C283 1.195 . S
C283 O282 1.195 . S
C283 O284 1.313 . S
O284 C283 1.313 . S
O285 Mg273 2.141 . S
O285 C276 1.289 . S
Mg286 O293 2.141 . S
Mg286 O294 2.048 1_455 S
Mg286 O295 2.048 . S
Mg286 O298 2.141 . S
C287 O288 1.313 . S
C287 O294 1.195 . S
O288 C287 1.313 . S
C289 O290 1.245 . S
C289 O298 1.289 . S
O290 C289 1.245 . S
C291 O292 1.245 1_455 S
C291 O293 1.289 . S
O292 C291 1.245 1_655 S
O293 Mg286 2.141 . S
O293 C291 1.289 . S
O294 Mg286 2.048 1_655 S
O294 C287 1.195 . S
O295 Mg286 2.048 . S
O295 C296 1.195 . S
C296 O295 1.195 . S
C296 O297 1.313 1_455 S
O297 C296 1.313 1_655 S
O298 Mg286 2.141 . S
O298 C289 1.289 . S
Mg299 O306 2.141 . S
Mg299 O307 2.048 . S
Mg299 O308 2.048 . S
Mg299 O311 2.141 . S
C300 O301 1.313 . S
C300 O307 1.195 . S
O301 C300 1.313 . S
C302 O303 1.245 . S
C302 O311 1.289 1_545 S
O303 C302 1.245 . S
C304 O305 1.245 1_565 S
C304 O306 1.289 . S
O305 C304 1.245 1_545 S
O306 Mg299 2.141 . S
O306 C304 1.289 . S
O307 Mg299 2.048 . S
O307 C300 1.195 . S
O308 Mg299 2.048 . S
O308 C309 1.195 . S
C309 O308 1.195 . S
C309 O310 1.313 1_565 S
O310 C309 1.313 1_545 S
O311 Mg299 2.141 . S
O311 C302 1.289 1_565 S
Mg312 O319 2.141 . S
Mg312 O320 2.048 . S
Mg312 O321 2.048 1_655 S
Mg312 O324 2.141 . S
C313 O314 1.315 1_655 S
C313 O320 1.194 . S
O314 C313 1.315 1_455 S
C315 O316 1.245 1_655 S
C315 O324 1.289 . S
O316 C315 1.245 1_455 S
C317 O318 1.245 . S
C317 O319 1.289 . S
O318 C317 1.245 . S
O319 Mg312 2.141 . S
O319 C317 1.289 . S
O320 Mg312 2.048 . S
O320 C313 1.194 . S
O321 Mg312 2.048 1_455 S
O321 C322 1.195 . S
C322 O321 1.195 . S
C322 O323 1.313 . S
O323 C322 1.313 . S
O324 Mg312 2.141 . S
O324 C315 1.289 . S
Mg325 O332 2.141 . S
Mg325 O333 2.048 . S
Mg325 O334 2.048 . S
Mg325 O337 2.141 . S
C326 O327 1.313 . S
C326 O333 1.195 . S
O327 C326 1.313 . S
C328 O329 1.245 . S
C328 O337 1.289 . S
O329 C328 1.245 . S
C330 O331 1.245 . S
C330 O332 1.289 . S
O331 C330 1.245 . S
O332 Mg325 2.141 . S
O332 C330 1.289 . S
O333 Mg325 2.048 . S
O333 C326 1.195 . S
O334 Mg325 2.048 . S
O334 C335 1.195 . S
C335 O334 1.195 . S
C335 O336 1.313 . S
O336 C335 1.313 . S
O337 Mg325 2.141 . S
O337 C328 1.289 . S
Mg338 O345 2.141 . S
Mg338 O346 2.048 . S
Mg338 O347 2.048 1_655 S
Mg338 O350 2.141 . S
C339 O340 1.312 1_655 S
C339 O346 1.196 . S
O340 C339 1.312 1_455 S
C341 O342 1.245 1_655 S
C341 O350 1.289 . S
O342 C341 1.245 1_455 S
C343 O344 1.245 . S
C343 O345 1.289 . S
O344 C343 1.245 . S
O345 Mg338 2.141 . S
O345 C343 1.289 . S
O346 Mg338 2.048 . S
O346 C339 1.196 . S
O347 Mg338 2.048 1_455 S
O347 C348 1.195 . S
C348 O347 1.195 . S
C348 O349 1.313 . S
O349 C348 1.313 . S
O350 Mg338 2.141 . S
O350 C341 1.289 . S
Mg351 O358 2.141 . S
Mg351 O359 2.048 . S
Mg351 O360 2.048 . S
Mg351 O363 2.141 . S
C352 O353 1.313 . S
C352 O359 1.195 . S
O353 C352 1.313 . S
C354 O355 1.245 . S
C354 O363 1.289 . S
O355 C354 1.245 . S
C356 O357 1.245 . S
C356 O358 1.289 . S
O357 C356 1.245 . S
O358 Mg351 2.141 . S
O358 C356 1.289 . S
O359 Mg351 2.048 . S
O359 C352 1.195 . S
O360 Mg351 2.048 . S
O360 C361 1.195 . S
C361 O360 1.195 . S
C361 O362 1.313 . S
O362 C361 1.313 . S
O363 Mg351 2.141 . S
O363 C354 1.289 . S
Mg364 O371 2.141 . S
Mg364 O372 2.048 1_455 S
Mg364 O373 2.048 . S
Mg364 O376 2.141 . S
C365 O366 1.313 . S
C365 O372 1.195 . S
O366 C365 1.313 . S
C367 O368 1.245 . S
C367 O376 1.289 . S
O368 C367 1.245 . S
C369 O370 1.245 1_455 S
C369 O371 1.289 . S
O370 C369 1.245 1_655 S
O371 Mg364 2.141 . S
O371 C369 1.289 . S
O372 Mg364 2.048 1_655 S
O372 C365 1.195 . S
O373 Mg364 2.048 . S
O373 C374 1.194 . S
C374 O373 1.194 . S
C374 O375 1.315 1_455 S
O375 C374 1.315 1_655 S
O376 Mg364 2.141 . S
O376 C367 1.289 . S
Mg377 O384 2.141 . S
Mg377 O385 2.048 . S
Mg377 O386 2.048 . S
Mg377 O389 2.141 . S
C378 O379 1.313 . S
C378 O385 1.195 . S
O379 C378 1.313 . S
C380 O381 1.245 . S
C380 O389 1.289 . S
O381 C380 1.245 . S
C382 O383 1.245 . S
C382 O384 1.289 . S
O383 C382 1.245 . S
O384 Mg377 2.141 . S
O384 C382 1.289 . S
O385 Mg377 2.048 . S
O385 C378 1.195 . S
O386 Mg377 2.048 . S
O386 C387 1.195 . S
C387 O386 1.195 . S
C387 O388 1.313 . S
O388 C387 1.313 . S
O389 Mg377 2.141 . S
O389 C380 1.289 . S
Mg390 O397 2.141 . S
Mg390 O398 2.048 1_455 S
Mg390 O399 2.048 . S
Mg390 O402 2.141 . S
C391 O392 1.313 . S
C391 O398 1.195 . S
O392 C391 1.313 . S
C393 O394 1.245 . S
C393 O402 1.289 . S
O394 C393 1.245 . S
C395 O396 1.245 1_455 S
C395 O397 1.289 . S
O396 C395 1.245 1_655 S
O397 Mg390 2.141 . S
O397 C395 1.289 . S
O398 Mg390 2.048 1_655 S
O398 C391 1.195 . S
O399 Mg390 2.048 . S
O399 C400 1.196 . S
C400 O399 1.196 . S
C400 O401 1.312 1_455 S
O401 C400 1.312 1_655 S
O402 Mg390 2.141 . S
O402 C393 1.289 . S
Mg403 O410 2.141 . S
Mg403 O411 2.048 . S
Mg403 O412 2.048 . S
Mg403 O415 2.141 . S
C404 O405 1.313 . S
C404 O411 1.195 . S
O405 C404 1.313 . S
C406 O407 1.245 . S
C406 O415 1.289 . S
O407 C406 1.245 . S
C408 O409 1.245 . S
C408 O410 1.289 . S
O409 C408 1.245 . S
O410 Mg403 2.141 . S
O410 C408 1.289 . S
O411 Mg403 2.048 . S
O411 C404 1.195 . S
O412 Mg403 2.048 . S
O412 C413 1.195 . S
C413 O412 1.195 . S
C413 O414 1.313 . S
O414 C413 1.313 . S
O415 Mg403 2.141 . S
O415 C406 1.289 . S
C416 C417 1.349 . S
C416 C418 1.327 . S
C416 H441 0.950 . S
C417 C416 1.349 . S
C417 C433 1.349 . S
C418 C416 1.327 . S
C418 C437 1.429 . S
C418 H442 0.950 . S
C419 C436 1.574 . S
C419 C438 1.368 . S
C419 H443 0.949 . S
H420 C424 0.949 . S
C421 C422 1.349 . S
C421 C423 1.327 . S
C421 H444 0.950 . S
C422 C421 1.349 . S
C422 C434 1.349 . S
C423 C421 1.327 . S
C423 C439 1.429 . S
C423 H445 0.950 . S
C424 H420 0.949 . S
C424 C432 1.574 . S
C424 C440 1.368 . S
H425 C433 0.950 1_565 S
H426 C431 0.950 . S
H427 C432 0.949 . S
H428 C434 0.950 . S
H429 C435 0.950 . S
H430 C436 0.949 . S
C431 H426 0.950 . S
C431 C433 1.327 . S
C431 C437 1.429 . S
C432 C424 1.574 . S
C432 H427 0.949 . S
C432 C438 1.368 . S
C433 C417 1.349 . S
C433 H425 0.950 1_545 S
C433 C431 1.327 . S
C434 C422 1.349 . S
C434 H428 0.950 . S
C434 C435 1.327 . S
C435 H429 0.950 . S
C435 C434 1.327 . S
C435 C439 1.429 . S
C436 C419 1.574 . S
C436 H430 0.949 . S
C436 C440 1.368 . S
C437 C418 1.429 . S
C437 C431 1.429 . S
C437 C438 1.523 . S
C438 C419 1.368 . S
C438 C432 1.368 . S
C438 C437 1.523 . S
C439 C423 1.429 . S
C439 C435 1.429 . S
C439 C440 1.523 . S
C440 C424 1.368 . S
C440 C436 1.368 . S
C440 C439 1.523 . S
H441 C416 0.950 . S
H442 C418 0.950 . S
H443 C419 0.949 . S
H444 C421 0.950 . S
H445 C423 0.950 . S
C446 C447 1.349 . S
C446 C448 1.327 . S
C446 H471 0.950 1_545 S
C447 C446 1.349 . S
C447 C463 1.349 . S
C448 C446 1.327 . S
C448 C467 1.429 . S
C448 H472 0.950 . S
C449 C466 1.574 . S
C449 C468 1.368 . S
C449 H473 0.949 . S
H450 C454 0.949 . S
C451 C452 1.349 . S
C451 C453 1.327 . S
C451 H474 0.950 . S
C452 C451 1.349 . S
C452 C464 1.349 . S
C453 C451 1.327 . S
C453 C469 1.429 . S
C453 H475 0.950 . S
C454 H450 0.949 . S
C454 C462 1.574 . S
C454 C470 1.368 . S
H455 C463 0.950 . S
H456 C461 0.950 . S
H457 C462 0.949 . S
H458 C464 0.950 . S
H459 C465 0.950 . S
H460 C466 0.949 . S
C461 H456 0.950 . S
C461 C463 1.327 . S
C461 C467 1.429 . S
C462 C454 1.574 . S
C462 H457 0.949 . S
C462 C468 1.368 . S
C463 C447 1.349 . S
C463 H455 0.950 . S
C463 C461 1.327 . S
C464 C452 1.349 . S
C464 H458 0.950 . S
C464 C465 1.327 . S
C465 H459 0.950 . S
C465 C464 1.327 . S
C465 C469 1.429 . S
C466 C449 1.574 . S
C466 H460 0.949 . S
C466 C470 1.368 . S
C467 C448 1.429 . S
C467 C461 1.429 . S
C467 C468 1.523 . S
C468 C449 1.368 . S
C468 C462 1.368 . S
C468 C467 1.523 . S
C469 C453 1.429 . S
C469 C465 1.429 . S
C469 C470 1.523 . S
C470 C454 1.368 . S
C470 C466 1.368 . S
C470 C469 1.523 . S
H471 C446 0.950 1_565 S
H472 C448 0.950 . S
H473 C449 0.949 . S
H474 C451 0.950 . S
H475 C453 0.950 . S
C476 C477 1.349 . S
C476 C478 1.327 . S
C476 H501 0.950 . S
C477 C476 1.349 . S
C477 C493 1.349 . S
C478 C476 1.327 . S
C478 C497 1.429 . S
C478 H502 0.950 . S
C479 C496 1.574 . S
C479 C498 1.368 . S
C479 H503 0.949 . S
H480 C484 0.949 . S
C481 C482 1.349 . S
C481 C483 1.327 . S
C481 H504 0.950 1_565 S
C482 C481 1.349 . S
C482 C494 1.349 . S
C483 C481 1.327 . S
C483 C499 1.429 . S
C483 H505 0.950 . S
C484 H480 0.949 . S
C484 C492 1.574 . S
C484 C500 1.368 . S
H485 C493 0.950 . S
H486 C491 0.950 . S
H487 C492 0.949 . S
H488 C494 0.950 . S
H489 C495 0.950 . S
H490 C496 0.949 . S
C491 H486 0.950 . S
C491 C493 1.327 . S
C491 C497 1.429 . S
C492 C484 1.574 . S
C492 H487 0.949 . S
C492 C498 1.368 . S
C493 C477 1.349 . S
C493 H485 0.950 . S
C493 C491 1.327 . S
C494 C482 1.349 . S
C494 H488 0.950 . S
C494 C495 1.327 . S
C495 H489 0.950 . S
C495 C494 1.327 . S
C495 C499 1.429 . S
C496 C479 1.574 . S
C496 H490 0.949 . S
C496 C500 1.368 . S
C497 C478 1.429 . S
C497 C491 1.429 . S
C497 C498 1.523 . S
C498 C479 1.368 . S
C498 C492 1.368 . S
C498 C497 1.523 . S
C499 C483 1.429 . S
C499 C495 1.429 . S
C499 C500 1.523 . S
C500 C484 1.368 . S
C500 C496 1.368 . S
C500 C499 1.523 . S
H501 C476 0.950 . S
H502 C478 0.950 . S
H503 C479 0.949 . S
H504 C481 0.950 1_545 S
H505 C483 0.950 . S
C506 C507 1.349 . S
C506 C508 1.327 . S
C506 H531 0.950 . S
C507 C506 1.349 . S
C507 C523 1.349 . S
C508 C506 1.327 . S
C508 C527 1.429 . S
C508 H532 0.950 . S
C509 C526 1.574 . S
C509 C528 1.368 . S
C509 H533 0.949 . S
H510 C514 0.949 . S
C511 C512 1.349 . S
C511 C513 1.327 . S
C511 H534 0.950 . S
C512 C511 1.349 . S
C512 C524 1.349 . S
C513 C511 1.327 . S
C513 C529 1.429 . S
C513 H535 0.950 . S
C514 H510 0.949 . S
C514 C522 1.574 . S
C514 C530 1.368 . S
H515 C523 0.950 . S
H516 C521 0.950 . S
H517 C522 0.949 . S
H518 C524 0.950 . S
H519 C525 0.950 . S
H520 C526 0.949 . S
C521 H516 0.950 . S
C521 C523 1.327 . S
C521 C527 1.429 . S
C522 C514 1.574 . S
C522 H517 0.949 . S
C522 C528 1.368 . S
C523 C507 1.349 . S
C523 H515 0.950 . S
C523 C521 1.327 . S
C524 C512 1.349 . S
C524 H518 0.950 . S
C524 C525 1.327 . S
C525 H519 0.950 . S
C525 C524 1.327 . S
C525 C529 1.429 . S
C526 C509 1.574 . S
C526 H520 0.949 . S
C526 C530 1.368 . S
C527 C508 1.429 . S
C527 C521 1.429 . S
C527 C528 1.523 . S
C528 C509 1.368 . S
C528 C522 1.368 . S
C528 C527 1.523 . S
C529 C513 1.429 . S
C529 C525 1.429 . S
C529 C530 1.523 . S
C530 C514 1.368 . S
C530 C526 1.368 . S
C530 C529 1.523 . S
H531 C506 0.950 . S
H532 C508 0.950 . S
H533 C509 0.949 . S
H534 C511 0.950 . S
H535 C513 0.950 . S
C536 C537 1.349 . S
C536 C538 1.327 . S
C536 H561 0.950 . S
C537 C536 1.349 . S
C537 C553 1.349 . S
C538 C536 1.327 . S
C538 C557 1.429 . S
C538 H562 0.950 . S
C539 C556 1.574 . S
C539 C558 1.368 . S
C539 H563 0.949 . S
H540 C544 0.949 . S
C541 C542 1.349 . S
C541 C543 1.327 . S
C541 H564 0.950 . S
C542 C541 1.349 . S
C542 C554 1.349 . S
C543 C541 1.327 . S
C543 C559 1.429 . S
C543 H565 0.950 . S
C544 H540 0.949 . S
C544 C552 1.574 . S
C544 C560 1.368 . S
H545 C553 0.950 . S
H546 C551 0.950 . S
H547 C552 0.949 . S
H548 C554 0.950 . S
H549 C555 0.950 . S
H550 C556 0.949 . S
C551 H546 0.950 . S
C551 C553 1.327 . S
C551 C557 1.429 . S
C552 C544 1.574 . S
C552 H547 0.949 . S
C552 C558 1.368 . S
C553 C537 1.349 . S
C553 H545 0.950 . S
C553 C551 1.327 . S
C554 C542 1.349 . S
C554 H548 0.950 . S
C554 C555 1.327 . S
C555 H549 0.950 . S
C555 C554 1.327 . S
C555 C559 1.429 . S
C556 C539 1.574 . S
C556 H550 0.949 . S
C556 C560 1.368 . S
C557 C538 1.429 . S
C557 C551 1.429 . S
C557 C558 1.523 . S
C558 C539 1.368 . S
C558 C552 1.368 . S
C558 C557 1.523 . S
C559 C543 1.429 . S
C559 C555 1.429 . S
C559 C560 1.523 . S
C560 C544 1.368 . S
C560 C556 1.368 . S
C560 C559 1.523 . S
H561 C536 0.950 . S
H562 C538 0.950 . S
H563 C539 0.949 . S
H564 C541 0.950 . S
H565 C543 0.950 . S
C566 C567 1.349 . S
C566 C568 1.327 . S
C566 H591 0.950 . S
C567 C566 1.349 . S
C567 C583 1.349 . S
C568 C566 1.327 . S
C568 C587 1.429 . S
C568 H592 0.950 . S
C569 C586 1.574 . S
C569 C588 1.368 . S
C569 H593 0.949 . S
H570 C574 0.949 . S
C571 C572 1.349 . S
C571 C573 1.327 . S
C571 H594 0.950 . S
C572 C571 1.349 . S
C572 C584 1.349 . S
C573 C571 1.327 . S
C573 C589 1.429 . S
C573 H595 0.950 . S
C574 H570 0.949 . S
C574 C582 1.574 . S
C574 C590 1.368 . S
H575 C583 0.950 . S
H576 C581 0.950 . S
H577 C582 0.949 . S
H578 C584 0.950 . S
H579 C585 0.950 . S
H580 C586 0.949 . S
C581 H576 0.950 . S
C581 C583 1.327 . S
C581 C587 1.429 . S
C582 C574 1.574 . S
C582 H577 0.949 . S
C582 C588 1.368 . S
C583 C567 1.349 . S
C583 H575 0.950 . S
C583 C581 1.327 . S
C584 C572 1.349 . S
C584 H578 0.950 . S
C584 C585 1.327 . S
C585 H579 0.950 . S
C585 C584 1.327 . S
C585 C589 1.429 . S
C586 C569 1.574 . S
C586 H580 0.949 . S
C586 C590 1.368 . S
C587 C568 1.429 . S
C587 C581 1.429 . S
C587 C588 1.523 . S
C588 C569 1.368 . S
C588 C582 1.368 . S
C588 C587 1.523 . S
C589 C573 1.429 . S
C589 C585 1.429 . S
C589 C590 1.523 . S
C590 C574 1.368 . S
C590 C586 1.368 . S
C590 C589 1.523 . S
H591 C566 0.950 . S
H592 C568 0.950 . S
H593 C569 0.949 . S
H594 C571 0.950 . S
H595 C573 0.950 . S
C596 C597 1.349 . S
C596 C598 1.327 . S
C596 H621 0.950 . S
C597 C596 1.349 . S
C597 C613 1.349 . S
C598 C596 1.327 . S
C598 C617 1.429 . S
C598 H622 0.950 . S
C599 C616 1.574 . S
C599 C618 1.368 . S
C599 H623 0.949 . S
H600 C604 0.949 . S
C601 C602 1.349 . S
C601 C603 1.327 . S
C601 H624 0.950 . S
C602 C601 1.349 . S
C602 C614 1.349 . S
C603 C601 1.327 . S
C603 C619 1.429 . S
C603 H625 0.950 . S
C604 H600 0.949 . S
C604 C612 1.574 . S
C604 C620 1.368 . S
H605 C613 0.950 . S
H606 C611 0.950 . S
H607 C612 0.949 . S
H608 C614 0.950 . S
H609 C615 0.950 . S
H610 C616 0.949 . S
C611 H606 0.950 . S
C611 C613 1.327 . S
C611 C617 1.429 . S
C612 C604 1.574 . S
C612 H607 0.949 . S
C612 C618 1.368 . S
C613 C597 1.349 . S
C613 H605 0.950 . S
C613 C611 1.327 . S
C614 C602 1.349 . S
C614 H608 0.950 . S
C614 C615 1.327 . S
C615 H609 0.950 . S
C615 C614 1.327 . S
C615 C619 1.429 . S
C616 C599 1.574 . S
C616 H610 0.949 . S
C616 C620 1.368 . S
C617 C598 1.429 . S
C617 C611 1.429 . S
C617 C618 1.523 . S
C618 C599 1.368 . S
C618 C612 1.368 . S
C618 C617 1.523 . S
C619 C603 1.429 . S
C619 C615 1.429 . S
C619 C620 1.523 . S
C620 C604 1.368 . S
C620 C616 1.368 . S
C620 C619 1.523 . S
H621 C596 0.950 . S
H622 C598 0.950 . S
H623 C599 0.949 . S
H624 C601 0.950 . S
H625 C603 0.950 . S
C626 C627 1.349 . S
C626 C628 1.327 . S
C626 H651 0.950 . S
C627 C626 1.349 . S
C627 C643 1.349 . S
C628 C626 1.327 . S
C628 C647 1.429 . S
C628 H652 0.950 . S
C629 C646 1.574 . S
C629 C648 1.368 . S
C629 H653 0.949 . S
H630 C634 0.949 . S
C631 C632 1.349 . S
C631 C633 1.327 . S
C631 H654 0.950 . S
C632 C631 1.349 . S
C632 C644 1.349 . S
C633 C631 1.327 . S
C633 C649 1.429 . S
C633 H655 0.950 . S
C634 H630 0.949 . S
C634 C642 1.574 . S
C634 C650 1.368 . S
H635 C643 0.950 . S
H636 C641 0.950 . S
H637 C642 0.949 . S
H638 C644 0.950 . S
H639 C645 0.950 . S
H640 C646 0.949 . S
C641 H636 0.950 . S
C641 C643 1.327 . S
C641 C647 1.429 . S
C642 C634 1.574 . S
C642 H637 0.949 . S
C642 C648 1.368 . S
C643 C627 1.349 . S
C643 H635 0.950 . S
C643 C641 1.327 . S
C644 C632 1.349 . S
C644 H638 0.950 . S
C644 C645 1.327 . S
C645 H639 0.950 . S
C645 C644 1.327 . S
C645 C649 1.429 . S
C646 C629 1.574 . S
C646 H640 0.949 . S
C646 C650 1.368 . S
C647 C628 1.429 . S
C647 C641 1.429 . S
C647 C648 1.523 . S
C648 C629 1.368 . S
C648 C642 1.368 . S
C648 C647 1.523 . S
C649 C633 1.429 . S
C649 C645 1.429 . S
C649 C650 1.523 . S
C650 C634 1.368 . S
C650 C646 1.368 . S
C650 C649 1.523 . S
H651 C626 0.950 . S
H652 C628 0.950 . S
H653 C629 0.949 . S
H654 C631 0.950 . S
H655 C633 0.950 . S
C656 C657 1.349 1_455 S
C656 C658 1.327 . S
C656 H681 0.950 . S
C657 C656 1.349 1_655 S
C657 C673 1.349 . S
C658 C656 1.327 . S
C658 C677 1.429 1_455 S
C658 H682 0.950 . S
C659 C676 1.574 . S
C659 C678 1.368 . S
C659 H683 0.949 . S
H660 C664 0.949 . S
C661 C662 1.349 . S
C661 C663 1.327 . S
C661 H684 0.950 . S
C662 C661 1.349 . S
C662 C674 1.349 1_655 S
C663 C661 1.327 . S
C663 C679 1.429 . S
C663 H685 0.950 . S
C664 H660 0.949 . S
C664 C672 1.574 . S
C664 C680 1.368 1_455 S
H665 C673 0.950 . S
H666 C671 0.950 . S
H667 C672 0.949 . S
H668 C674 0.950 . S
H669 C675 0.950 . S
H670 C676 0.949 . S
C671 H666 0.950 . S
C671 C673 1.327 . S
C671 C677 1.429 . S
C672 C664 1.574 . S
C672 H667 0.949 . S
C672 C678 1.368 1_455 S
C673 C657 1.349 . S
C673 H665 0.950 . S
C673 C671 1.327 . S
C674 C662 1.349 1_455 S
C674 H668 0.950 . S
C674 C675 1.327 . S
C675 H669 0.950 . S
C675 C674 1.327 . S
C675 C679 1.429 1_455 S
C676 C659 1.574 . S
C676 H670 0.949 . S
C676 C680 1.368 . S
C677 C658 1.429 1_655 S
C677 C671 1.429 . S
C677 C678 1.523 . S
C678 C659 1.368 . S
C678 C672 1.368 1_655 S
C678 C677 1.523 . S
C679 C663 1.429 . S
C679 C675 1.429 1_655 S
C679 C680 1.523 . S
C680 C664 1.368 1_655 S
C680 C676 1.368 . S
C680 C679 1.523 . S
H681 C656 0.950 . S
H682 C658 0.950 . S
H683 C659 0.949 . S
H684 C661 0.950 . S
H685 C663 0.950 . S
C686 C687 1.349 . S
C686 C688 1.327 . S
C686 H711 0.950 . S
C687 C686 1.349 . S
C687 C703 1.349 . S
C688 C686 1.327 . S
C688 C707 1.429 . S
C688 H712 0.950 . S
C689 C706 1.574 . S
C689 C708 1.368 . S
C689 H713 0.949 . S
H690 C694 0.949 . S
C691 C692 1.349 . S
C691 C693 1.327 . S
C691 H714 0.950 1_545 S
C692 C691 1.349 . S
C692 C704 1.349 . S
C693 C691 1.327 . S
C693 C709 1.429 . S
C693 H715 0.950 . S
C694 H690 0.949 . S
C694 C702 1.574 . S
C694 C710 1.368 . S
H695 C703 0.950 . S
H696 C701 0.950 . S
H697 C702 0.949 . S
H698 C704 0.950 . S
H699 C705 0.950 . S
H700 C706 0.949 . S
C701 H696 0.950 . S
C701 C703 1.327 . S
C701 C707 1.429 . S
C702 C694 1.574 . S
C702 H697 0.949 . S
C702 C708 1.368 . S
C703 C687 1.349 . S
C703 H695 0.950 . S
C703 C701 1.327 . S
C704 C692 1.349 . S
C704 H698 0.950 . S
C704 C705 1.327 . S
C705 H699 0.950 . S
C705 C704 1.327 . S
C705 C709 1.429 . S
C706 C689 1.574 . S
C706 H700 0.949 . S
C706 C710 1.368 . S
C707 C688 1.429 . S
C707 C701 1.429 . S
C707 C708 1.523 . S
C708 C689 1.368 . S
C708 C702 1.368 . S
C708 C707 1.523 . S
C709 C693 1.429 . S
C709 C705 1.429 . S
C709 C710 1.523 . S
C710 C694 1.368 . S
C710 C706 1.368 . S
C710 C709 1.523 . S
H711 C686 0.950 . S
H712 C688 0.950 . S
H713 C689 0.949 . S
H714 C691 0.950 1_565 S
H715 C693 0.950 . S
C716 C717 1.349 1_655 S
C716 C718 1.327 . S
C716 H741 0.950 . S
C717 C716 1.349 1_455 S
C717 C733 1.349 . S
C718 C716 1.327 . S
C718 C737 1.429 1_655 S
C718 H742 0.950 . S
C719 C736 1.574 . S
C719 C738 1.368 . S
C719 H743 0.949 . S
H720 C724 0.949 . S
C721 C722 1.349 . S
C721 C723 1.327 . S
C721 H744 0.950 . S
C722 C721 1.349 . S
C722 C734 1.349 1_455 S
C723 C721 1.327 . S
C723 C739 1.429 . S
C723 H745 0.950 . S
C724 H720 0.949 . S
C724 C732 1.574 . S
C724 C740 1.368 1_655 S
H725 C733 0.950 . S
H726 C731 0.950 . S
H727 C732 0.949 . S
H728 C734 0.952 . S
H729 C735 0.950 . S
H730 C736 0.949 . S
C731 H726 0.950 . S
C731 C733 1.327 . S
C731 C737 1.429 . S
C732 C724 1.574 . S
C732 H727 0.949 . S
C732 C738 1.368 1_655 S
C733 C717 1.349 . S
C733 H725 0.950 . S
C733 C731 1.327 . S
C734 C722 1.349 1_655 S
C734 H728 0.952 . S
C734 C735 1.327 . S
C735 H729 0.950 . S
C735 C734 1.327 . S
C735 C739 1.429 1_655 S
C736 C719 1.574 . S
C736 H730 0.949 . S
C736 C740 1.368 . S
C737 C718 1.429 1_455 S
C737 C731 1.429 . S
C737 C738 1.523 . S
C738 C719 1.368 . S
C738 C732 1.368 1_455 S
C738 C737 1.523 . S
C739 C723 1.429 . S
C739 C735 1.429 1_455 S
C739 C740 1.523 . S
C740 C724 1.368 1_455 S
C740 C736 1.368 . S
C740 C739 1.523 . S
H741 C716 0.950 . S
H742 C718 0.950 . S
H743 C719 0.949 . S
H744 C721 0.950 . S
H745 C723 0.950 . S
C746 C747 1.349 . S
C746 C748 1.327 . S
C746 H771 0.950 . S
C747 C746 1.349 . S
C747 C763 1.349 . S
C748 C746 1.327 . S
C748 C767 1.429 . S
C748 H772 0.950 . S
C749 C766 1.574 . S
C749 C768 1.368 . S
C749 H773 0.949 . S
H750 C754 0.949 . S
C751 C752 1.349 . S
C751 C753 1.327 . S
C751 H774 0.950 . S
C752 C751 1.349 . S
C752 C764 1.349 . S
C753 C751 1.327 . S
C753 C769 1.429 . S
C753 H775 0.950 . S
C754 H750 0.949 . S
C754 C762 1.574 . S
C754 C770 1.368 . S
H755 C763 0.950 . S
H756 C761 0.950 . S
H757 C762 0.949 . S
H758 C764 0.943 1_545 S
H759 C765 0.950 . S
H760 C766 0.949 . S
C761 H756 0.950 . S
C761 C763 1.327 . S
C761 C767 1.429 . S
C762 C754 1.574 . S
C762 H757 0.949 . S
C762 C768 1.368 . S
C763 C747 1.349 . S
C763 H755 0.950 . S
C763 C761 1.327 . S
C764 C752 1.349 . S
C764 H758 0.943 1_565 S
C764 C765 1.327 . S
C765 H759 0.950 . S
C765 C764 1.327 . S
C765 C769 1.429 . S
C766 C749 1.574 . S
C766 H760 0.949 . S
C766 C770 1.368 . S
C767 C748 1.429 . S
C767 C761 1.429 . S
C767 C768 1.523 . S
C768 C749 1.368 . S
C768 C762 1.368 . S
C768 C767 1.523 . S
C769 C753 1.429 . S
C769 C765 1.429 . S
C769 C770 1.523 . S
C770 C754 1.368 . S
C770 C766 1.368 . S
C770 C769 1.523 . S
H771 C746 0.950 . S
H772 C748 0.950 . S
H773 C749 0.949 . S
H774 C751 0.950 . S
H775 C753 0.950 . S
C776 C777 1.349 . S
C776 C778 1.327 . S
C776 H801 0.950 . S
C777 C776 1.349 . S
C777 C793 1.349 1_655 S
C778 C776 1.327 . S
C778 C797 1.429 . S
C778 H802 0.950 . S
C779 C796 1.574 . S
C779 C798 1.368 1_455 S
C779 H803 0.949 . S
H780 C784 0.949 . S
C781 C782 1.349 1_455 S
C781 C783 1.327 . S
C781 H804 0.950 . S
C782 C781 1.349 1_655 S
C782 C794 1.349 . S
C783 C781 1.327 . S
C783 C799 1.429 1_455 S
C783 H805 0.950 . S
C784 H780 0.949 . S
C784 C792 1.574 . S
C784 C800 1.368 . S
H785 C793 0.950 . S
H786 C791 0.950 . S
H787 C792 0.949 . S
H788 C794 0.950 . S
H789 C795 0.950 . S
H790 C796 0.949 . S
C791 H786 0.950 . S
C791 C793 1.327 . S
C791 C797 1.429 1_455 S
C792 C784 1.574 . S
C792 H787 0.949 . S
C792 C798 1.368 . S
C793 C777 1.349 1_455 S
C793 H785 0.950 . S
C793 C791 1.327 . S
C794 C782 1.349 . S
C794 H788 0.950 . S
C794 C795 1.327 . S
C795 H789 0.950 . S
C795 C794 1.327 . S
C795 C799 1.429 . S
C796 C779 1.574 . S
C796 H790 0.949 . S
C796 C800 1.368 1_455 S
C797 C778 1.429 . S
C797 C791 1.429 1_655 S
C797 C798 1.523 . S
C798 C779 1.368 1_655 S
C798 C792 1.368 . S
C798 C797 1.523 . S
C799 C783 1.429 1_655 S
C799 C795 1.429 . S
C799 C800 1.523 . S
C800 C784 1.368 . S
C800 C796 1.368 1_655 S
C800 C799 1.523 . S
H801 C776 0.950 . S
H802 C778 0.950 . S
H803 C779 0.949 . S
H804 C781 0.950 . S
H805 C783 0.950 . S
C806 C807 1.349 . S
C806 C808 1.327 . S
C806 H831 0.950 . S
C807 C806 1.349 . S
C807 C823 1.349 . S
C808 C806 1.327 . S
C808 C827 1.429 . S
C808 H832 0.950 . S
C809 C826 1.574 . S
C809 C828 1.368 . S
C809 H833 0.949 . S
H810 C814 0.949 . S
C811 C812 1.349 . S
C811 C813 1.327 . S
C811 H834 0.950 . S
C812 C811 1.349 . S
C812 C824 1.349 . S
C813 C811 1.327 . S
C813 C829 1.429 . S
C813 H835 0.950 . S
C814 H810 0.949 . S
C814 C822 1.574 . S
C814 C830 1.368 . S
H815 C823 0.950 . S
H816 C821 0.950 . S
H817 C822 0.949 . S
H818 C824 0.950 . S
H819 C825 0.950 . S
H820 C826 0.949 . S
C821 H816 0.950 . S
C821 C823 1.327 . S
C821 C827 1.429 . S
C822 C814 1.574 . S
C822 H817 0.949 . S
C822 C828 1.368 . S
C823 C807 1.349 . S
C823 H815 0.950 . S
C823 C821 1.327 . S
C824 C812 1.349 . S
C824 H818 0.950 . S
C824 C825 1.327 . S
C825 H819 0.950 . S
C825 C824 1.327 . S
C825 C829 1.429 . S
C826 C809 1.574 . S
C826 H820 0.949 . S
C826 C830 1.368 . S
C827 C808 1.429 . S
C827 C821 1.429 . S
C827 C828 1.523 . S
C828 C809 1.368 . S
C828 C822 1.368 . S
C828 C827 1.523 . S
C829 C813 1.429 . S
C829 C825 1.429 . S
C829 C830 1.523 . S
C830 C814 1.368 . S
C830 C826 1.368 . S
C830 C829 1.523 . S
H831 C806 0.950 . S
H832 C808 0.950 . S
H833 C809 0.949 . S
H834 C811 0.950 . S
H835 C813 0.950 . S
C836 C837 1.349 1_655 S
C836 C838 1.327 . S
C836 H861 0.950 . S
C837 C836 1.349 1_455 S
C837 C853 1.349 . S
C838 C836 1.327 . S
C838 C857 1.429 1_655 S
C838 H862 0.950 . S
C839 C856 1.574 . S
C839 C858 1.368 . S
C839 H863 0.949 . S
H840 C844 0.949 . S
C841 C842 1.349 . S
C841 C843 1.327 . S
C841 H864 0.950 . S
C842 C841 1.349 . S
C842 C854 1.349 1_455 S
C843 C841 1.327 . S
C843 C859 1.429 . S
C843 H865 0.950 . S
C844 H840 0.949 . S
C844 C852 1.574 . S
C844 C860 1.368 1_655 S
H845 C853 0.950 . S
H846 C851 0.950 . S
H847 C852 0.949 . S
H848 C854 0.950 . S
H849 C855 0.950 . S
H850 C856 0.949 . S
C851 H846 0.950 . S
C851 C853 1.327 . S
C851 C857 1.429 . S
C852 C844 1.574 . S
C852 H847 0.949 . S
C852 C858 1.368 1_655 S
C853 C837 1.349 . S
C853 H845 0.950 . S
C853 C851 1.327 . S
C854 C842 1.349 1_655 S
C854 H848 0.950 . S
C854 C855 1.327 . S
C855 H849 0.950 . S
C855 C854 1.327 . S
C855 C859 1.429 1_655 S
C856 C839 1.574 . S
C856 H850 0.949 . S
C856 C860 1.368 . S
C857 C838 1.429 1_455 S
C857 C851 1.429 . S
C857 C858 1.523 . S
C858 C839 1.368 . S
C858 C852 1.368 1_455 S
C858 C857 1.523 . S
C859 C843 1.429 . S
C859 C855 1.429 1_455 S
C859 C860 1.523 . S
C860 C844 1.368 1_455 S
C860 C856 1.368 . S
C860 C859 1.523 . S
H861 C836 0.950 . S
H862 C838 0.950 . S
H863 C839 0.949 . S
H864 C841 0.950 . S
H865 C843 0.950 . S
C866 C867 1.349 . S
C866 C868 1.327 . S
C866 H891 0.950 . S
C867 C866 1.349 . S
C867 C883 1.349 . S
C868 C866 1.327 . S
C868 C887 1.429 . S
C868 H892 0.950 . S
C869 C886 1.574 . S
C869 C888 1.368 . S
C869 H893 0.949 . S
H870 C874 0.949 . S
C871 C872 1.349 . S
C871 C873 1.327 . S
C871 H894 0.950 . S
C872 C871 1.349 . S
C872 C884 1.349 . S
C873 C871 1.327 . S
C873 C889 1.429 . S
C873 H895 0.950 . S
C874 H870 0.949 . S
C874 C882 1.574 . S
C874 C890 1.368 . S
H875 C883 0.950 . S
H876 C881 0.950 . S
H877 C882 0.949 . S
H878 C884 0.950 . S
H879 C885 0.950 . S
H880 C886 0.949 . S
C881 H876 0.950 . S
C881 C883 1.327 . S
C881 C887 1.429 . S
C882 C874 1.574 . S
C882 H877 0.949 . S
C882 C888 1.368 . S
C883 C867 1.349 . S
C883 H875 0.950 . S
C883 C881 1.327 . S
C884 C872 1.349 . S
C884 H878 0.950 . S
C884 C885 1.327 . S
C885 H879 0.950 . S
C885 C884 1.327 . S
C885 C889 1.429 . S
C886 C869 1.574 . S
C886 H880 0.949 . S
C886 C890 1.368 . S
C887 C868 1.429 . S
C887 C881 1.429 . S
C887 C888 1.523 . S
C888 C869 1.368 . S
C888 C882 1.368 . S
C888 C887 1.523 . S
C889 C873 1.429 . S
C889 C885 1.429 . S
C889 C890 1.523 . S
C890 C874 1.368 . S
C890 C886 1.368 . S
C890 C889 1.523 . S
H891 C866 0.950 . S
H892 C868 0.950 . S
H893 C869 0.949 . S
H894 C871 0.950 . S
H895 C873 0.950 . S
C896 C897 1.349 . S
C896 C898 1.327 . S
C896 H921 0.950 . S
C897 C896 1.349 . S
C897 C913 1.349 . S
C898 C896 1.327 . S
C898 C917 1.429 . S
C898 H922 0.950 . S
C899 C916 1.574 . S
C899 C918 1.368 . S
C899 H923 0.949 . S
H900 C904 0.949 . S
C901 C902 1.349 . S
C901 C903 1.327 . S
C901 H924 0.950 . S
C902 C901 1.349 . S
C902 C914 1.349 1_565 S
C903 C901 1.327 . S
C903 C919 1.429 . S
C903 H925 0.950 . S
C904 H900 0.949 . S
C904 C912 1.574 . S
C904 C920 1.368 . S
H905 C913 0.950 . S
H906 C911 0.950 . S
H907 C912 0.949 . S
H908 C914 0.950 . S
H909 C915 0.950 . S
H910 C916 0.949 . S
C911 H906 0.950 . S
C911 C913 1.327 . S
C911 C917 1.429 . S
C912 C904 1.574 . S
C912 H907 0.949 . S
C912 C918 1.368 . S
C913 C897 1.349 . S
C913 H905 0.950 . S
C913 C911 1.327 . S
C914 C902 1.349 1_545 S
C914 H908 0.950 . S
C914 C915 1.327 1_545 S
C915 H909 0.950 . S
C915 C914 1.327 1_565 S
C915 C919 1.429 . S
C916 C899 1.574 . S
C916 H910 0.949 . S
C916 C920 1.368 . S
C917 C898 1.429 . S
C917 C911 1.429 . S
C917 C918 1.523 . S
C918 C899 1.368 . S
C918 C912 1.368 . S
C918 C917 1.523 . S
C919 C903 1.429 . S
C919 C915 1.429 . S
C919 C920 1.523 . S
C920 C904 1.368 . S
C920 C916 1.368 . S
C920 C919 1.523 . S
H921 C896 0.950 . S
H922 C898 0.950 . S
H923 C899 0.949 . S
H924 C901 0.950 . S
H925 C903 0.950 . S
C926 C927 1.349 . S
C926 C928 1.327 . S
C926 H951 0.950 . S
C927 C926 1.349 . S
C927 C943 1.349 . S
C928 C926 1.327 . S
C928 C947 1.429 . S
C928 H952 0.950 . S
C929 C946 1.574 . S
C929 C948 1.368 . S
C929 H953 0.949 . S
H930 C934 0.949 . S
C931 C932 1.349 . S
C931 C933 1.327 . S
C931 H954 0.950 . S
C932 C931 1.349 . S
C932 C944 1.349 . S
C933 C931 1.327 . S
C933 C949 1.429 . S
C933 H955 0.950 . S
C934 H930 0.949 . S
C934 C942 1.574 . S
C934 C950 1.368 . S
H935 C943 0.950 . S
H936 C941 0.950 . S
H937 C942 0.949 . S
H938 C944 0.950 . S
H939 C945 0.950 . S
H940 C946 0.949 . S
C941 H936 0.950 . S
C941 C943 1.327 . S
C941 C947 1.429 . S
C942 C934 1.574 . S
C942 H937 0.949 . S
C942 C948 1.368 . S
C943 C927 1.349 . S
C943 H935 0.950 . S
C943 C941 1.327 . S
C944 C932 1.349 . S
C944 H938 0.950 . S
C944 C945 1.327 . S
C945 H939 0.950 . S
C945 C944 1.327 . S
C945 C949 1.429 . S
C946 C929 1.574 . S
C946 H940 0.949 . S
C946 C950 1.368 . S
C947 C928 1.429 . S
C947 C941 1.429 . S
C947 C948 1.523 . S
C948 C929 1.368 . S
C948 C942 1.368 . S
C948 C947 1.523 . S
C949 C933 1.429 . S
C949 C945 1.429 . S
C949 C950 1.523 . S
C950 C934 1.368 . S
C950 C946 1.368 . S
C950 C949 1.523 . S
H951 C926 0.950 . S
H952 C928 0.950 . S
H953 C929 0.949 . S
H954 C931 0.950 . S
H955 C933 0.950 . S
C956 C957 1.349 . S
C956 C958 1.327 . S
C956 H981 0.950 . S
C957 C956 1.349 . S
C957 C973 1.349 . S
C958 C956 1.327 . S
C958 C977 1.429 . S
C958 H982 0.950 . S
C959 C976 1.574 . S
C959 C978 1.368 . S
C959 H983 0.949 . S
H960 C964 0.949 . S
C961 C962 1.349 . S
C961 C963 1.327 . S
C961 H984 0.950 . S
C962 C961 1.349 . S
C962 C974 1.349 . S
C963 C961 1.327 . S
C963 C979 1.429 . S
C963 H985 0.950 . S
C964 H960 0.949 . S
C964 C972 1.574 . S
C964 C980 1.368 . S
H965 C973 0.950 . S
H966 C971 0.950 . S
H967 C972 0.949 . S
H968 C974 0.950 . S
H969 C975 0.950 . S
H970 C976 0.949 . S
C971 H966 0.950 . S
C971 C973 1.327 . S
C971 C977 1.429 . S
C972 C964 1.574 . S
C972 H967 0.949 . S
C972 C978 1.368 . S
C973 C957 1.349 . S
C973 H965 0.950 . S
C973 C971 1.327 . S
C974 C962 1.349 . S
C974 H968 0.950 . S
C974 C975 1.327 . S
C975 H969 0.950 . S
C975 C974 1.327 . S
C975 C979 1.429 . S
C976 C959 1.574 . S
C976 H970 0.949 . S
C976 C980 1.368 . S
C977 C958 1.429 . S
C977 C971 1.429 . S
C977 C978 1.523 . S
C978 C959 1.368 . S
C978 C972 1.368 . S
C978 C977 1.523 . S
C979 C963 1.429 . S
C979 C975 1.429 . S
C979 C980 1.523 . S
C980 C964 1.368 . S
C980 C976 1.368 . S
C980 C979 1.523 . S
H981 C956 0.950 . S
H982 C958 0.950 . S
H983 C959 0.949 . S
H984 C961 0.950 . S
H985 C963 0.950 . S
C986 C987 1.351 . S
C986 C988 1.330 . S
C986 H1011 0.945 1_565 S
C987 C986 1.351 . S
C987 C1003 1.349 . S
C988 C986 1.330 . S
C988 C1007 1.429 . S
C988 H1012 0.950 . S
C989 C1006 1.574 . S
C989 C1008 1.368 . S
C989 H1013 0.949 . S
H990 C994 0.949 . S
C991 C992 1.349 . S
C991 C993 1.327 . S
C991 H1014 0.950 . S
C992 C991 1.349 . S
C992 C1004 1.349 . S
C993 C991 1.327 . S
C993 C1009 1.429 . S
C993 H1015 0.950 . S
C994 H990 0.949 . S
C994 C1002 1.574 . S
C994 C1010 1.368 . S
H995 C1003 0.950 . S
H996 C1001 0.950 . S
H997 C1002 0.949 . S
H998 C1004 0.950 . S
H999 C1005 0.950 . S
H1000 C1006 0.949 . S
C1001 H996 0.950 . S
C1001 C1003 1.327 . S
C1001 C1007 1.429 . S
C1002 C994 1.574 . S
C1002 H997 0.949 . S
C1002 C1008 1.368 . S
C1003 C987 1.349 . S
C1003 H995 0.950 . S
C1003 C1001 1.327 . S
C1004 C992 1.349 . S
C1004 H998 0.950 . S
C1004 C1005 1.327 . S
C1005 H999 0.950 . S
C1005 C1004 1.327 . S
C1005 C1009 1.429 . S
C1006 C989 1.574 . S
C1006 H1000 0.949 . S
C1006 C1010 1.368 . S
C1007 C988 1.429 . S
C1007 C1001 1.429 . S
C1007 C1008 1.523 . S
C1008 C989 1.368 . S
C1008 C1002 1.368 . S
C1008 C1007 1.523 . S
C1009 C993 1.429 . S
C1009 C1005 1.429 . S
C1009 C1010 1.523 . S
C1010 C994 1.368 . S
C1010 C1006 1.368 . S
C1010 C1009 1.523 . S
H1011 C986 0.945 1_545 S
H1012 C988 0.950 . S
H1013 C989 0.949 . S
H1014 C991 0.950 . S
H1015 C993 0.950 . S
C1016 C1017 1.349 . S
C1016 C1018 1.327 . S
C1016 H1041 0.950 . S
C1017 C1016 1.349 . S
C1017 C1033 1.349 . S
C1018 C1016 1.327 . S
C1018 C1037 1.429 . S
C1018 H1042 0.950 . S
C1019 C1036 1.574 . S
C1019 C1038 1.368 . S
C1019 H1043 0.949 . S
H1020 C1024 0.949 . S
C1021 C1022 1.349 . S
C1021 C1023 1.327 . S
C1021 H1044 0.950 . S
C1022 C1021 1.349 . S
C1022 C1034 1.349 1_545 S
C1023 C1021 1.327 . S
C1023 C1039 1.429 . S
C1023 H1045 0.950 . S
C1024 H1020 0.949 . S
C1024 C1032 1.574 . S
C1024 C1040 1.368 . S
H1025 C1033 0.950 . S
H1026 C1031 0.950 . S
H1027 C1032 0.949 . S
H1028 C1034 0.950 . S
H1029 C1035 0.950 . S
H1030 C1036 0.949 . S
C1031 H1026 0.950 . S
C1031 C1033 1.327 . S
C1031 C1037 1.429 . S
C1032 C1024 1.574 . S
C1032 H1027 0.949 . S
C1032 C1038 1.368 . S
C1033 C1017 1.349 . S
C1033 H1025 0.950 . S
C1033 C1031 1.327 . S
C1034 C1022 1.349 1_565 S
C1034 H1028 0.950 . S
C1034 C1035 1.327 1_565 S
C1035 H1029 0.950 . S
C1035 C1034 1.327 1_545 S
C1035 C1039 1.429 . S
C1036 C1019 1.574 . S
C1036 H1030 0.949 . S
C1036 C1040 1.368 . S
C1037 C1018 1.429 . S
C1037 C1031 1.429 . S
C1037 C1038 1.523 . S
C1038 C1019 1.368 . S
C1038 C1032 1.368 . S
C1038 C1037 1.523 . S
C1039 C1023 1.429 . S
C1039 C1035 1.429 . S
C1039 C1040 1.523 . S
C1040 C1024 1.368 . S
C1040 C1036 1.368 . S
C1040 C1039 1.523 . S
H1041 C1016 0.950 . S
H1042 C1018 0.950 . S
H1043 C1019 0.949 . S
H1044 C1021 0.950 . S
H1045 C1023 0.950 . S
C1046 C1047 1.349 . S
C1046 C1048 1.327 . S
C1046 H1071 0.950 . S
C1047 C1046 1.349 . S
C1047 C1063 1.349 . S
C1048 C1046 1.327 . S
C1048 C1067 1.429 . S
C1048 H1072 0.950 . S
C1049 C1066 1.574 . S
C1049 C1068 1.368 . S
C1049 H1073 0.949 . S
H1050 C1054 0.949 . S
C1051 C1052 1.349 . S
C1051 C1053 1.327 . S
C1051 H1074 0.950 . S
C1052 C1051 1.349 . S
C1052 C1064 1.349 . S
C1053 C1051 1.327 . S
C1053 C1069 1.429 . S
C1053 H1075 0.950 . S
C1054 H1050 0.949 . S
C1054 C1062 1.574 . S
C1054 C1070 1.368 . S
H1055 C1063 0.950 . S
H1056 C1061 0.950 . S
H1057 C1062 0.949 . S
H1058 C1064 0.950 . S
H1059 C1065 0.950 . S
H1060 C1066 0.949 . S
C1061 H1056 0.950 . S
C1061 C1063 1.327 . S
C1061 C1067 1.429 . S
C1062 C1054 1.574 . S
C1062 H1057 0.949 . S
C1062 C1068 1.368 . S
C1063 C1047 1.349 . S
C1063 H1055 0.950 . S
C1063 C1061 1.327 . S
C1064 C1052 1.349 . S
C1064 H1058 0.950 . S
C1064 C1065 1.327 . S
C1065 H1059 0.950 . S
C1065 C1064 1.327 . S
C1065 C1069 1.429 . S
C1066 C1049 1.574 . S
C1066 H1060 0.949 . S
C1066 C1070 1.368 . S
C1067 C1048 1.429 . S
C1067 C1061 1.429 . S
C1067 C1068 1.523 . S
C1068 C1049 1.368 . S
C1068 C1062 1.368 . S
C1068 C1067 1.523 . S
C1069 C1053 1.429 . S
C1069 C1065 1.429 . S
C1069 C1070 1.523 . S
C1070 C1054 1.368 . S
C1070 C1066 1.368 . S
C1070 C1069 1.523 . S
H1071 C1046 0.950 . S
H1072 C1048 0.950 . S
H1073 C1049 0.949 . S
H1074 C1051 0.950 . S
H1075 C1053 0.950 . S
C1076 C1077 1.349 . S
C1076 C1078 1.327 . S
C1076 H1101 0.950 . S
C1077 C1076 1.349 . S
C1077 C1093 1.349 . S
C1078 C1076 1.327 . S
C1078 C1097 1.429 . S
C1078 H1102 0.950 . S
C1079 C1096 1.574 . S
C1079 C1098 1.368 . S
C1079 H1103 0.949 . S
H1080 C1084 0.949 . S
C1081 C1082 1.349 . S
C1081 C1083 1.327 . S
C1081 H1104 0.950 . S
C1082 C1081 1.349 . S
C1082 C1094 1.349 . S
C1083 C1081 1.327 . S
C1083 C1099 1.429 . S
C1083 H1105 0.950 . S
C1084 H1080 0.949 . S
C1084 C1092 1.574 . S
C1084 C1100 1.368 . S
H1085 C1093 0.950 . S
H1086 C1091 0.950 . S
H1087 C1092 0.949 . S
H1088 C1094 0.950 . S
H1089 C1095 0.950 . S
H1090 C1096 0.949 . S
C1091 H1086 0.950 . S
C1091 C1093 1.327 . S
C1091 C1097 1.429 . S
C1092 C1084 1.574 . S
C1092 H1087 0.949 . S
C1092 C1098 1.368 . S
C1093 C1077 1.349 . S
C1093 H1085 0.950 . S
C1093 C1091 1.327 . S
C1094 C1082 1.349 . S
C1094 H1088 0.950 . S
C1094 C1095 1.327 . S
C1095 H1089 0.950 . S
C1095 C1094 1.327 . S
C1095 C1099 1.429 . S
C1096 C1079 1.574 . S
C1096 H1090 0.949 . S
C1096 C1100 1.368 . S
C1097 C1078 1.429 . S
C1097 C1091 1.429 . S
C1097 C1098 1.523 . S
C1098 C1079 1.368 . S
C1098 C1092 1.368 . S
C1098 C1097 1.523 . S
C1099 C1083 1.429 . S
C1099 C1095 1.429 . S
C1099 C1100 1.523 . S
C1100 C1084 1.368 . S
C1100 C1096 1.368 . S
C1100 C1099 1.523 . S
H1101 C1076 0.950 . S
H1102 C1078 0.950 . S
H1103 C1079 0.949 . S
H1104 C1081 0.950 . S
H1105 C1083 0.950 . S
C1106 C1107 1.349 . S
C1106 C1108 1.327 . S
C1106 H1131 0.950 . S
C1107 C1106 1.349 . S
C1107 C1123 1.349 . S
C1108 C1106 1.327 . S
C1108 C1127 1.429 . S
C1108 H1132 0.950 . S
C1109 C1126 1.574 . S
C1109 C1128 1.368 . S
C1109 H1133 0.949 . S
H1110 C1114 0.949 . S
C1111 C1112 1.351 . S
C1111 C1113 1.330 . S
C1111 H1134 0.945 1_545 S
C1112 C1111 1.351 . S
C1112 C1124 1.349 . S
C1113 C1111 1.330 . S
C1113 C1129 1.429 . S
C1113 H1135 0.950 . S
C1114 H1110 0.949 . S
C1114 C1122 1.574 . S
C1114 C1130 1.368 . S
H1115 C1123 0.950 . S
H1116 C1121 0.950 . S
H1117 C1122 0.949 . S
H1118 C1124 0.950 . S
H1119 C1125 0.950 . S
H1120 C1126 0.949 . S
C1121 H1116 0.950 . S
C1121 C1123 1.327 . S
C1121 C1127 1.429 . S
C1122 C1114 1.574 . S
C1122 H1117 0.949 . S
C1122 C1128 1.368 . S
C1123 C1107 1.349 . S
C1123 H1115 0.950 . S
C1123 C1121 1.327 . S
C1124 C1112 1.349 . S
C1124 H1118 0.950 . S
C1124 C1125 1.327 . S
C1125 H1119 0.950 . S
C1125 C1124 1.327 . S
C1125 C1129 1.429 . S
C1126 C1109 1.574 . S
C1126 H1120 0.949 . S
C1126 C1130 1.368 . S
C1127 C1108 1.429 . S
C1127 C1121 1.429 . S
C1127 C1128 1.523 . S
C1128 C1109 1.368 . S
C1128 C1122 1.368 . S
C1128 C1127 1.523 . S
C1129 C1113 1.429 . S
C1129 C1125 1.429 . S
C1129 C1130 1.523 . S
C1130 C1114 1.368 . S
C1130 C1126 1.368 . S
C1130 C1129 1.523 . S
H1131 C1106 0.950 . S
H1132 C1108 0.950 . S
H1133 C1109 0.949 . S
H1134 C1111 0.945 1_565 S
H1135 C1113 0.950 . S
C1136 C1137 1.349 . S
C1136 C1138 1.327 . S
C1136 H1161 0.950 . S
C1137 C1136 1.349 . S
C1137 C1153 1.349 . S
C1138 C1136 1.327 . S
C1138 C1157 1.429 . S
C1138 H1162 0.950 . S
C1139 C1156 1.574 . S
C1139 C1158 1.368 . S
C1139 H1163 0.949 . S
H1140 C1144 0.949 . S
C1141 C1142 1.349 . S
C1141 C1143 1.327 . S
C1141 H1164 0.950 . S
C1142 C1141 1.349 . S
C1142 C1154 1.349 . S
C1143 C1141 1.327 . S
C1143 C1159 1.429 . S
C1143 H1165 0.950 . S
C1144 H1140 0.949 . S
C1144 C1152 1.574 . S
C1144 C1160 1.368 . S
H1145 C1153 0.950 . S
H1146 C1151 0.950 . S
H1147 C1152 0.949 . S
H1148 C1154 0.950 . S
H1149 C1155 0.950 . S
H1150 C1156 0.949 . S
C1151 H1146 0.950 . S
C1151 C1153 1.327 . S
C1151 C1157 1.429 . S
C1152 C1144 1.574 . S
C1152 H1147 0.949 . S
C1152 C1158 1.368 . S
C1153 C1137 1.349 . S
C1153 H1145 0.950 . S
C1153 C1151 1.327 . S
C1154 C1142 1.349 . S
C1154 H1148 0.950 . S
C1154 C1155 1.327 . S
C1155 H1149 0.950 . S
C1155 C1154 1.327 . S
C1155 C1159 1.429 . S
C1156 C1139 1.574 . S
C1156 H1150 0.949 . S
C1156 C1160 1.368 . S
C1157 C1138 1.429 . S
C1157 C1151 1.429 . S
C1157 C1158 1.523 . S
C1158 C1139 1.368 . S
C1158 C1152 1.368 . S
C1158 C1157 1.523 . S
C1159 C1143 1.429 . S
C1159 C1155 1.429 . S
C1159 C1160 1.523 . S
C1160 C1144 1.368 . S
C1160 C1156 1.368 . S
C1160 C1159 1.523 . S
H1161 C1136 0.950 . S
H1162 C1138 0.950 . S
H1163 C1139 0.949 . S
H1164 C1141 0.950 . S
H1165 C1143 0.950 . S
C1166 C1167 1.349 . S
C1166 C1168 1.327 . S
C1166 H1191 0.950 . S
C1167 C1166 1.349 . S
C1167 C1183 1.349 . S
C1168 C1166 1.327 . S
C1168 C1187 1.429 . S
C1168 H1192 0.950 . S
C1169 C1186 1.574 . S
C1169 C1188 1.368 . S
C1169 H1193 0.949 . S
H1170 C1174 0.949 . S
C1171 C1172 1.349 . S
C1171 C1173 1.327 . S
C1171 H1194 0.950 . S
C1172 C1171 1.349 . S
C1172 C1184 1.349 1_565 S
C1173 C1171 1.327 . S
C1173 C1189 1.429 . S
C1173 H1195 0.950 . S
C1174 H1170 0.949 . S
C1174 C1182 1.574 . S
C1174 C1190 1.368 . S
H1175 C1183 0.950 . S
H1176 C1181 0.950 . S
H1177 C1182 0.949 . S
H1178 C1184 0.950 . S
H1179 C1185 0.950 . S
H1180 C1186 0.949 . S
C1181 H1176 0.950 . S
C1181 C1183 1.327 . S
C1181 C1187 1.429 . S
C1182 C1174 1.574 . S
C1182 H1177 0.949 . S
C1182 C1188 1.368 . S
C1183 C1167 1.349 . S
C1183 H1175 0.950 . S
C1183 C1181 1.327 . S
C1184 C1172 1.349 1_545 S
C1184 H1178 0.950 . S
C1184 C1185 1.327 1_545 S
C1185 H1179 0.950 . S
C1185 C1184 1.327 1_565 S
C1185 C1189 1.429 . S
C1186 C1169 1.574 . S
C1186 H1180 0.949 . S
C1186 C1190 1.368 . S
C1187 C1168 1.429 . S
C1187 C1181 1.429 . S
C1187 C1188 1.523 . S
C1188 C1169 1.368 . S
C1188 C1182 1.368 . S
C1188 C1187 1.523 . S
C1189 C1173 1.429 . S
C1189 C1185 1.429 . S
C1189 C1190 1.523 . S
C1190 C1174 1.368 . S
C1190 C1186 1.368 . S
C1190 C1189 1.523 . S
H1191 C1166 0.950 . S
H1192 C1168 0.950 . S
H1193 C1169 0.949 . S
H1194 C1171 0.950 . S
H1195 C1173 0.950 . S
C1196 C1197 1.349 . S
C1196 C1198 1.327 . S
C1196 H1221 0.950 . S
C1197 C1196 1.349 . S
C1197 C1213 1.349 . S
C1198 C1196 1.327 . S
C1198 C1217 1.429 . S
C1198 H1222 0.950 . S
C1199 C1216 1.574 . S
C1199 C1218 1.368 . S
C1199 H1223 0.949 . S
H1200 C1204 0.949 . S
C1201 C1202 1.349 . S
C1201 C1203 1.327 . S
C1201 H1224 0.950 . S
C1202 C1201 1.349 . S
C1202 C1214 1.345 1_565 S
C1203 C1201 1.327 . S
C1203 C1219 1.429 . S
C1203 H1225 0.950 . S
C1204 H1200 0.949 . S
C1204 C1212 1.574 . S
C1204 C1220 1.368 . S
H1205 C1213 0.950 . S
H1206 C1211 0.950 . S
H1207 C1212 0.949 . S
H1208 C1214 0.959 . S
H1209 C1215 0.950 . S
H1210 C1216 0.949 . S
C1211 H1206 0.950 . S
C1211 C1213 1.327 . S
C1211 C1217 1.429 . S
C1212 C1204 1.574 . S
C1212 H1207 0.949 . S
C1212 C1218 1.368 . S
C1213 C1197 1.349 . S
C1213 H1205 0.950 . S
C1213 C1211 1.327 . S
C1214 C1202 1.345 1_545 S
C1214 H1208 0.959 . S
C1214 C1215 1.322 1_545 S
C1215 H1209 0.950 . S
C1215 C1214 1.322 1_565 S
C1215 C1219 1.429 . S
C1216 C1199 1.574 . S
C1216 H1210 0.949 . S
C1216 C1220 1.368 . S
C1217 C1198 1.429 . S
C1217 C1211 1.429 . S
C1217 C1218 1.523 . S
C1218 C1199 1.368 . S
C1218 C1212 1.368 . S
C1218 C1217 1.523 . S
C1219 C1203 1.429 . S
C1219 C1215 1.429 . S
C1219 C1220 1.523 . S
C1220 C1204 1.368 . S
C1220 C1216 1.368 . S
C1220 C1219 1.523 . S
H1221 C1196 0.950 . S
H1222 C1198 0.950 . S
H1223 C1199 0.949 . S
H1224 C1201 0.950 . S
H1225 C1203 0.950 . S
C1226 C1227 1.349 . S
C1226 C1228 1.327 . S
C1226 H1251 0.950 . S
C1227 C1226 1.349 . S
C1227 C1243 1.349 . S
C1228 C1226 1.327 . S
C1228 C1247 1.429 . S
C1228 H1252 0.950 . S
C1229 C1246 1.574 . S
C1229 C1248 1.368 . S
C1229 H1253 0.949 . S
H1230 C1234 0.949 . S
C1231 C1232 1.349 . S
C1231 C1233 1.327 . S
C1231 H1254 0.950 . S
C1232 C1231 1.349 . S
C1232 C1244 1.349 . S
C1233 C1231 1.327 . S
C1233 C1249 1.429 . S
C1233 H1255 0.950 . S
C1234 H1230 0.949 . S
C1234 C1242 1.574 . S
C1234 C1250 1.368 . S
H1235 C1243 0.950 . S
H1236 C1241 0.950 . S
H1237 C1242 0.949 . S
H1238 C1244 0.950 . S
H1239 C1245 0.950 . S
H1240 C1246 0.949 . S
C1241 H1236 0.950 . S
C1241 C1243 1.327 . S
C1241 C1247 1.429 . S
C1242 C1234 1.574 . S
C1242 H1237 0.949 . S
C1242 C1248 1.368 . S
C1243 C1227 1.349 . S
C1243 H1235 0.950 . S
C1243 C1241 1.327 . S
C1244 C1232 1.349 . S
C1244 H1238 0.950 . S
C1244 C1245 1.327 . S
C1245 H1239 0.950 . S
C1245 C1244 1.327 . S
C1245 C1249 1.429 . S
C1246 C1229 1.574 . S
C1246 H1240 0.949 . S
C1246 C1250 1.368 . S
C1247 C1228 1.429 . S
C1247 C1241 1.429 . S
C1247 C1248 1.523 . S
C1248 C1229 1.368 . S
C1248 C1242 1.368 . S
C1248 C1247 1.523 . S
C1249 C1233 1.429 . S
C1249 C1245 1.429 . S
C1249 C1250 1.523 . S
C1250 C1234 1.368 . S
C1250 C1246 1.368 . S
C1250 C1249 1.523 . S
H1251 C1226 0.950 . S
H1252 C1228 0.950 . S
H1253 C1229 0.949 . S
H1254 C1231 0.950 . S
H1255 C1233 0.950 . S
C1256 C1257 1.349 . S
C1256 C1258 1.327 . S
C1256 H1281 0.950 . S
C1257 C1256 1.349 . S
C1257 C1273 1.349 . S
C1258 C1256 1.327 . S
C1258 C1277 1.429 . S
C1258 H1282 0.950 . S
C1259 C1276 1.574 . S
C1259 C1278 1.368 . S
C1259 H1283 0.949 . S
H1260 C1264 0.949 . S
C1261 C1262 1.349 . S
C1261 C1263 1.327 . S
C1261 H1284 0.950 . S
C1262 C1261 1.349 . S
C1262 C1274 1.349 . S
C1263 C1261 1.327 . S
C1263 C1279 1.429 . S
C1263 H1285 0.950 . S
C1264 H1260 0.949 . S
C1264 C1272 1.574 . S
C1264 C1280 1.368 . S
H1265 C1273 0.950 . S
H1266 C1271 0.950 . S
H1267 C1272 0.949 . S
H1268 C1274 0.950 . S
H1269 C1275 0.950 . S
H1270 C1276 0.949 . S
C1271 H1266 0.950 . S
C1271 C1273 1.327 . S
C1271 C1277 1.429 . S
C1272 C1264 1.574 . S
C1272 H1267 0.949 . S
C1272 C1278 1.368 . S
C1273 C1257 1.349 . S
C1273 H1265 0.950 . S
C1273 C1271 1.327 . S
C1274 C1262 1.349 . S
C1274 H1268 0.950 . S
C1274 C1275 1.327 . S
C1275 H1269 0.950 . S
C1275 C1274 1.327 . S
C1275 C1279 1.429 . S
C1276 C1259 1.574 . S
C1276 H1270 0.949 . S
C1276 C1280 1.368 . S
C1277 C1258 1.429 . S
C1277 C1271 1.429 . S
C1277 C1278 1.523 . S
C1278 C1259 1.368 . S
C1278 C1272 1.368 . S
C1278 C1277 1.523 . S
C1279 C1263 1.429 . S
C1279 C1275 1.429 . S
C1279 C1280 1.523 . S
C1280 C1264 1.368 . S
C1280 C1276 1.368 . S
C1280 C1279 1.523 . S
H1281 C1256 0.950 . S
H1282 C1258 0.950 . S
H1283 C1259 0.949 . S
H1284 C1261 0.950 . S
H1285 C1263 0.950 . S
C1286 C1287 1.349 1_565 S
C1286 C1288 1.327 1_565 S
C1286 H1311 0.950 . S
C1287 C1286 1.349 1_545 S
C1287 C1303 1.349 . S
C1288 C1286 1.327 1_545 S
C1288 C1307 1.429 . S
C1288 H1312 0.950 . S
C1289 C1306 1.574 . S
C1289 C1308 1.368 . S
C1289 H1313 0.949 . S
H1290 C1294 0.949 . S
C1291 C1292 1.349 . S
C1291 C1293 1.327 . S
C1291 H1314 0.950 . S
C1292 C1291 1.349 . S
C1292 C1304 1.349 . S
C1293 C1291 1.327 . S
C1293 C1309 1.429 . S
C1293 H1315 0.950 . S
C1294 H1290 0.949 . S
C1294 C1302 1.574 . S
C1294 C1310 1.368 . S
H1295 C1303 0.950 . S
H1296 C1301 0.950 . S
H1297 C1302 0.949 . S
H1298 C1304 0.950 . S
H1299 C1305 0.950 . S
H1300 C1306 0.949 . S
C1301 H1296 0.950 . S
C1301 C1303 1.327 . S
C1301 C1307 1.429 . S
C1302 C1294 1.574 . S
C1302 H1297 0.949 . S
C1302 C1308 1.368 . S
C1303 C1287 1.349 . S
C1303 H1295 0.950 . S
C1303 C1301 1.327 . S
C1304 C1292 1.349 . S
C1304 H1298 0.950 . S
C1304 C1305 1.327 . S
C1305 H1299 0.950 . S
C1305 C1304 1.327 . S
C1305 C1309 1.429 . S
C1306 C1289 1.574 . S
C1306 H1300 0.949 . S
C1306 C1310 1.368 . S
C1307 C1288 1.429 . S
C1307 C1301 1.429 . S
C1307 C1308 1.523 . S
C1308 C1289 1.368 . S
C1308 C1302 1.368 . S
C1308 C1307 1.523 . S
C1309 C1293 1.429 . S
C1309 C1305 1.429 . S
C1309 C1310 1.523 . S
C1310 C1294 1.368 . S
C1310 C1306 1.368 . S
C1310 C1309 1.523 . S
H1311 C1286 0.950 . S
H1312 C1288 0.950 . S
H1313 C1289 0.949 . S
H1314 C1291 0.950 . S
H1315 C1293 0.950 . S
C1316 C1317 1.349 . S
C1316 C1318 1.327 . S
C1316 H1341 0.950 . S
C1317 C1316 1.349 . S
C1317 C1333 1.349 1_545 S
C1318 C1316 1.327 . S
C1318 C1337 1.429 . S
C1318 H1342 0.950 . S
C1319 C1336 1.574 . S
C1319 C1338 1.368 . S
C1319 H1343 0.949 . S
H1320 C1324 0.949 . S
C1321 C1322 1.349 . S
C1321 C1323 1.327 . S
C1321 H1344 0.950 . S
C1322 C1321 1.349 . S
C1322 C1334 1.349 . S
C1323 C1321 1.327 . S
C1323 C1339 1.429 . S
C1323 H1345 0.950 . S
C1324 H1320 0.949 . S
C1324 C1332 1.574 . S
C1324 C1340 1.368 . S
H1325 C1333 0.950 . S
H1326 C1331 0.950 . S
H1327 C1332 0.949 . S
H1328 C1334 0.950 . S
H1329 C1335 0.950 . S
H1330 C1336 0.949 . S
C1331 H1326 0.950 . S
C1331 C1333 1.327 1_545 S
C1331 C1337 1.429 . S
C1332 C1324 1.574 . S
C1332 H1327 0.949 . S
C1332 C1338 1.368 . S
C1333 C1317 1.349 1_565 S
C1333 H1325 0.950 . S
C1333 C1331 1.327 1_565 S
C1334 C1322 1.349 . S
C1334 H1328 0.950 . S
C1334 C1335 1.327 . S
C1335 H1329 0.950 . S
C1335 C1334 1.327 . S
C1335 C1339 1.429 . S
C1336 C1319 1.574 . S
C1336 H1330 0.949 . S
C1336 C1340 1.368 . S
C1337 C1318 1.429 . S
C1337 C1331 1.429 . S
C1337 C1338 1.523 . S
C1338 C1319 1.368 . S
C1338 C1332 1.368 . S
C1338 C1337 1.523 . S
C1339 C1323 1.429 . S
C1339 C1335 1.429 . S
C1339 C1340 1.523 . S
C1340 C1324 1.368 . S
C1340 C1336 1.368 . S
C1340 C1339 1.523 . S
H1341 C1316 0.950 . S
H1342 C1318 0.950 . S
H1343 C1319 0.949 . S
H1344 C1321 0.950 . S
H1345 C1323 0.950 . S
C1346 C1347 1.349 . S
C1346 C1348 1.327 . S
C1346 H1371 0.950 . S
C1347 C1346 1.349 . S
C1347 C1363 1.349 . S
C1348 C1346 1.327 . S
C1348 C1367 1.429 . S
C1348 H1372 0.950 . S
C1349 C1366 1.574 . S
C1349 C1368 1.368 . S
C1349 H1373 0.949 . S
H1350 C1354 0.949 . S
C1351 C1352 1.349 . S
C1351 C1353 1.327 . S
C1351 H1374 0.950 . S
C1352 C1351 1.349 . S
C1352 C1364 1.349 . S
C1353 C1351 1.327 . S
C1353 C1369 1.429 . S
C1353 H1375 0.950 . S
C1354 H1350 0.949 . S
C1354 C1362 1.574 . S
C1354 C1370 1.368 . S
H1355 C1363 0.950 . S
H1356 C1361 0.950 . S
H1357 C1362 0.949 . S
H1358 C1364 0.950 . S
H1359 C1365 0.950 . S
H1360 C1366 0.949 . S
C1361 H1356 0.950 . S
C1361 C1363 1.327 . S
C1361 C1367 1.429 . S
C1362 C1354 1.574 . S
C1362 H1357 0.949 . S
C1362 C1368 1.368 . S
C1363 C1347 1.349 . S
C1363 H1355 0.950 . S
C1363 C1361 1.327 . S
C1364 C1352 1.349 . S
C1364 H1358 0.950 . S
C1364 C1365 1.327 . S
C1365 H1359 0.950 . S
C1365 C1364 1.327 . S
C1365 C1369 1.429 . S
C1366 C1349 1.574 . S
C1366 H1360 0.949 . S
C1366 C1370 1.368 . S
C1367 C1348 1.429 . S
C1367 C1361 1.429 . S
C1367 C1368 1.523 . S
C1368 C1349 1.368 . S
C1368 C1362 1.368 . S
C1368 C1367 1.523 . S
C1369 C1353 1.429 . S
C1369 C1365 1.429 . S
C1369 C1370 1.523 . S
C1370 C1354 1.368 . S
C1370 C1366 1.368 . S
C1370 C1369 1.523 . S
H1371 C1346 0.950 . S
H1372 C1348 0.950 . S
H1373 C1349 0.949 . S
H1374 C1351 0.950 . S
H1375 C1353 0.950 . S
C1376 C1377 1.349 1_565 S
C1376 C1378 1.327 . S
C1376 H1401 0.950 . S
C1377 C1376 1.349 1_545 S
C1377 C1393 1.349 . S
C1378 C1376 1.327 . S
C1378 C1397 1.429 1_565 S
C1378 H1402 0.950 . S
C1379 C1396 1.574 1_554 S
C1379 C1398 1.368 . S
C1379 H1403 0.949 . S
H1380 C1384 0.949 . S
C1381 C1382 1.349 1_545 S
C1381 C1383 1.327 . S
C1381 H1404 0.950 . S
C1382 C1381 1.349 1_565 S
C1382 C1394 1.349 . S
C1383 C1381 1.327 . S
C1383 C1399 1.429 1_545 S
C1383 H1405 0.950 . S
C1384 H1380 0.949 . S
C1384 C1392 1.574 1_556 S
C1384 C1400 1.368 . S
H1385 C1393 0.950 . S
H1386 C1391 0.950 . S
H1387 C1392 0.949 . S
H1388 C1394 0.950 . S
H1389 C1395 0.950 . S
H1390 C1396 0.949 . S
C1391 H1386 0.950 . S
C1391 C1393 1.327 . S
C1391 C1397 1.429 . S
C1392 C1384 1.574 1_554 S
C1392 H1387 0.949 . S
C1392 C1398 1.368 1_565 S
C1393 C1377 1.349 . S
C1393 H1385 0.950 . S
C1393 C1391 1.327 . S
C1394 C1382 1.349 . S
C1394 H1388 0.950 . S
C1394 C1395 1.327 . S
C1395 H1389 0.950 . S
C1395 C1394 1.327 . S
C1395 C1399 1.429 . S
C1396 C1379 1.574 1_556 S
C1396 H1390 0.949 . S
C1396 C1400 1.368 1_545 S
C1397 C1378 1.429 1_545 S
C1397 C1391 1.429 . S
C1397 C1398 1.523 . S
C1398 C1379 1.368 . S
C1398 C1392 1.368 1_545 S
C1398 C1397 1.523 . S
C1399 C1383 1.429 1_565 S
C1399 C1395 1.429 . S
C1399 C1400 1.523 . S
C1400 C1384 1.368 . S
C1400 C1396 1.368 1_565 S
C1400 C1399 1.523 . S
H1401 C1376 0.950 . S
H1402 C1378 0.950 . S
H1403 C1379 0.949 . S
H1404 C1381 0.950 . S
H1405 C1383 0.950 . S
C1406 C1407 1.349 . S
C1406 C1408 1.327 . S
C1406 H1431 0.950 . S
C1407 C1406 1.349 . S
C1407 C1423 1.349 . S
C1408 C1406 1.327 . S
C1408 C1427 1.429 . S
C1408 H1432 0.950 . S
C1409 C1426 1.574 1_554 S
C1409 C1428 1.368 . S
C1409 H1433 0.949 . S
H1410 C1414 0.949 . S
C1411 C1412 1.349 . S
C1411 C1413 1.327 . S
C1411 H1434 0.950 . S
C1412 C1411 1.349 . S
C1412 C1424 1.349 . S
C1413 C1411 1.327 . S
C1413 C1429 1.429 . S
C1413 H1435 0.950 . S
C1414 H1410 0.949 . S
C1414 C1422 1.574 1_556 S
C1414 C1430 1.368 . S
H1415 C1423 0.950 . S
H1416 C1421 0.950 . S
H1417 C1422 0.949 . S
H1418 C1424 0.950 . S
H1419 C1425 0.950 . S
H1420 C1426 0.949 . S
C1421 H1416 0.950 . S
C1421 C1423 1.327 . S
C1421 C1427 1.429 . S
C1422 C1414 1.574 1_554 S
C1422 H1417 0.949 . S
C1422 C1428 1.368 . S
C1423 C1407 1.349 . S
C1423 H1415 0.950 . S
C1423 C1421 1.327 . S
C1424 C1412 1.349 . S
C1424 H1418 0.950 . S
C1424 C1425 1.327 . S
C1425 H1419 0.950 . S
C1425 C1424 1.327 . S
C1425 C1429 1.429 . S
C1426 C1409 1.574 1_556 S
C1426 H1420 0.949 . S
C1426 C1430 1.368 . S
C1427 C1408 1.429 . S
C1427 C1421 1.429 . S
C1427 C1428 1.523 . S
C1428 C1409 1.368 . S
C1428 C1422 1.368 . S
C1428 C1427 1.523 . S
C1429 C1413 1.429 . S
C1429 C1425 1.429 . S
C1429 C1430 1.523 . S
C1430 C1414 1.368 . S
C1430 C1426 1.368 . S
C1430 C1429 1.523 . S
H1431 C1406 0.950 . S
H1432 C1408 0.950 . S
H1433 C1409 0.949 . S
H1434 C1411 0.950 . S
H1435 C1413 0.950 . S
C1436 C1437 1.349 . S
C1436 C1438 1.327 . S
C1436 H1461 0.950 . S
C1437 C1436 1.349 . S
C1437 C1453 1.349 . S
C1438 C1436 1.327 . S
C1438 C1457 1.429 . S
C1438 H1462 0.950 . S
C1439 C1456 1.574 . S
C1439 C1458 1.368 . S
C1439 H1463 0.949 . S
H1440 C1444 0.949 . S
C1441 C1442 1.349 . S
C1441 C1443 1.327 . S
C1441 H1464 0.950 . S
C1442 C1441 1.349 . S
C1442 C1454 1.349 . S
C1443 C1441 1.327 . S
C1443 C1459 1.429 . S
C1443 H1465 0.950 . S
C1444 H1440 0.949 . S
C1444 C1452 1.574 . S
C1444 C1460 1.368 . S
H1445 C1453 0.950 . S
H1446 C1451 0.950 . S
H1447 C1452 0.949 . S
H1448 C1454 0.950 . S
H1449 C1455 0.950 . S
H1450 C1456 0.949 . S
C1451 H1446 0.950 . S
C1451 C1453 1.327 . S
C1451 C1457 1.429 . S
C1452 C1444 1.574 . S
C1452 H1447 0.949 . S
C1452 C1458 1.368 . S
C1453 C1437 1.349 . S
C1453 H1445 0.950 . S
C1453 C1451 1.327 . S
C1454 C1442 1.349 . S
C1454 H1448 0.950 . S
C1454 C1455 1.327 . S
C1455 H1449 0.950 . S
C1455 C1454 1.327 . S
C1455 C1459 1.429 . S
C1456 C1439 1.574 . S
C1456 H1450 0.949 . S
C1456 C1460 1.368 . S
C1457 C1438 1.429 . S
C1457 C1451 1.429 . S
C1457 C1458 1.523 . S
C1458 C1439 1.368 . S
C1458 C1452 1.368 . S
C1458 C1457 1.523 . S
C1459 C1443 1.429 . S
C1459 C1455 1.429 . S
C1459 C1460 1.523 . S
C1460 C1444 1.368 . S
C1460 C1456 1.368 . S
C1460 C1459 1.523 . S
H1461 C1436 0.950 . S
H1462 C1438 0.950 . S
H1463 C1439 0.949 . S
H1464 C1441 0.950 . S
H1465 C1443 0.950 . S
C1466 C1467 1.349 1_565 S
C1466 C1468 1.327 . S
C1466 H1491 0.950 . S
C1467 C1466 1.349 1_545 S
C1467 C1483 1.349 . S
C1468 C1466 1.327 . S
C1468 C1487 1.429 1_565 S
C1468 H1492 0.950 . S
C1469 C1486 1.574 . S
C1469 C1488 1.368 . S
C1469 H1493 0.949 . S
H1470 C1474 0.949 . S
C1471 C1472 1.349 1_545 S
C1471 C1473 1.327 . S
C1471 H1494 0.950 . S
C1472 C1471 1.349 1_565 S
C1472 C1484 1.349 . S
C1473 C1471 1.327 . S
C1473 C1489 1.429 1_545 S
C1473 H1495 0.950 . S
C1474 H1470 0.949 . S
C1474 C1482 1.574 . S
C1474 C1490 1.368 . S
H1475 C1483 0.950 . S
H1476 C1481 0.950 . S
H1477 C1482 0.949 . S
H1478 C1484 0.950 . S
H1479 C1485 0.950 . S
H1480 C1486 0.949 . S
C1481 H1476 0.950 . S
C1481 C1483 1.327 . S
C1481 C1487 1.429 . S
C1482 C1474 1.574 . S
C1482 H1477 0.949 . S
C1482 C1488 1.368 1_565 S
C1483 C1467 1.349 . S
C1483 H1475 0.950 . S
C1483 C1481 1.327 . S
C1484 C1472 1.349 . S
C1484 H1478 0.950 . S
C1484 C1485 1.327 . S
C1485 H1479 0.950 . S
C1485 C1484 1.327 . S
C1485 C1489 1.429 . S
C1486 C1469 1.574 . S
C1486 H1480 0.949 . S
C1486 C1490 1.368 1_545 S
C1487 C1468 1.429 1_545 S
C1487 C1481 1.429 . S
C1487 C1488 1.523 . S
C1488 C1469 1.368 . S
C1488 C1482 1.368 1_545 S
C1488 C1487 1.523 . S
C1489 C1473 1.429 1_565 S
C1489 C1485 1.429 . S
C1489 C1490 1.523 . S
C1490 C1474 1.368 . S
C1490 C1486 1.368 1_565 S
C1490 C1489 1.523 . S
H1491 C1466 0.950 . S
H1492 C1468 0.950 . S
H1493 C1469 0.949 . S
H1494 C1471 0.950 . S
H1495 C1473 0.950 . S
C1496 C1497 1.349 . S
C1496 C1498 1.327 . S
C1496 H1521 0.950 . S
C1497 C1496 1.349 . S
C1497 C1513 1.349 . S
C1498 C1496 1.327 . S
C1498 C1517 1.429 . S
C1498 H1522 0.950 . S
C1499 C1516 1.574 1_556 S
C1499 C1518 1.368 . S
C1499 H1523 0.949 . S
H1500 C1504 0.949 . S
C1501 C1502 1.349 . S
C1501 C1503 1.327 . S
C1501 H1524 0.950 . S
C1502 C1501 1.349 . S
C1502 C1514 1.349 . S
C1503 C1501 1.327 . S
C1503 C1519 1.429 . S
C1503 H1525 0.950 . S
C1504 H1500 0.949 . S
C1504 C1512 1.574 1_554 S
C1504 C1520 1.368 . S
H1505 C1513 0.950 . S
H1506 C1511 0.950 . S
H1507 C1512 0.949 . S
H1508 C1514 0.950 . S
H1509 C1515 0.950 . S
H1510 C1516 0.949 . S
C1511 H1506 0.950 . S
C1511 C1513 1.327 . S
C1511 C1517 1.429 . S
C1512 C1504 1.574 1_556 S
C1512 H1507 0.949 . S
C1512 C1518 1.368 . S
C1513 C1497 1.349 . S
C1513 H1505 0.950 . S
C1513 C1511 1.327 . S
C1514 C1502 1.349 . S
C1514 H1508 0.950 . S
C1514 C1515 1.327 . S
C1515 H1509 0.950 . S
C1515 C1514 1.327 . S
C1515 C1519 1.429 . S
C1516 C1499 1.574 1_554 S
C1516 H1510 0.949 . S
C1516 C1520 1.368 . S
C1517 C1498 1.429 . S
C1517 C1511 1.429 . S
C1517 C1518 1.523 . S
C1518 C1499 1.368 . S
C1518 C1512 1.368 . S
C1518 C1517 1.523 . S
C1519 C1503 1.429 . S
C1519 C1515 1.429 . S
C1519 C1520 1.523 . S
C1520 C1504 1.368 . S
C1520 C1516 1.368 . S
C1520 C1519 1.523 . S
H1521 C1496 0.950 . S
H1522 C1498 0.950 . S
H1523 C1499 0.949 . S
H1524 C1501 0.950 . S
H1525 C1503 0.950 . S
C1526 C1527 1.349 . S
C1526 C1528 1.327 . S
C1526 H1551 0.950 . S
C1527 C1526 1.349 . S
C1527 C1543 1.349 . S
C1528 C1526 1.327 . S
C1528 C1547 1.429 . S
C1528 H1552 0.950 . S
C1529 C1546 1.574 . S
C1529 C1548 1.368 . S
C1529 H1553 0.949 . S
H1530 C1534 0.949 . S
C1531 C1532 1.349 . S
C1531 C1533 1.327 . S
C1531 H1554 0.950 . S
C1532 C1531 1.349 . S
C1532 C1544 1.349 . S
C1533 C1531 1.327 . S
C1533 C1549 1.429 . S
C1533 H1555 0.950 . S
C1534 H1530 0.949 . S
C1534 C1542 1.574 . S
C1534 C1550 1.368 . S
H1535 C1543 0.950 . S
H1536 C1541 0.950 . S
H1537 C1542 0.949 . S
H1538 C1544 0.950 . S
H1539 C1545 0.950 . S
H1540 C1546 0.949 . S
C1541 H1536 0.950 . S
C1541 C1543 1.327 . S
C1541 C1547 1.429 . S
C1542 C1534 1.574 . S
C1542 H1537 0.949 . S
C1542 C1548 1.368 . S
C1543 C1527 1.349 . S
C1543 H1535 0.950 . S
C1543 C1541 1.327 . S
C1544 C1532 1.349 . S
C1544 H1538 0.950 . S
C1544 C1545 1.327 . S
C1545 H1539 0.950 . S
C1545 C1544 1.327 . S
C1545 C1549 1.429 . S
C1546 C1529 1.574 . S
C1546 H1540 0.949 . S
C1546 C1550 1.368 . S
C1547 C1528 1.429 . S
C1547 C1541 1.429 . S
C1547 C1548 1.523 . S
C1548 C1529 1.368 . S
C1548 C1542 1.368 . S
C1548 C1547 1.523 . S
C1549 C1533 1.429 . S
C1549 C1545 1.429 . S
C1549 C1550 1.523 . S
C1550 C1534 1.368 . S
C1550 C1546 1.368 . S
C1550 C1549 1.523 . S
H1551 C1526 0.950 . S
H1552 C1528 0.950 . S
H1553 C1529 0.949 . S
H1554 C1531 0.950 . S
H1555 C1533 0.950 . S
C1556 C1557 1.349 . S
C1556 C1558 1.327 . S
C1556 H1581 0.950 . S
C1557 C1556 1.349 . S
C1557 C1573 1.349 1_545 S
C1558 C1556 1.327 . S
C1558 C1577 1.429 . S
C1558 H1582 0.950 . S
C1559 C1576 1.574 . S
C1559 C1578 1.368 1_565 S
C1559 H1583 0.949 . S
H1560 C1564 0.949 . S
C1561 C1562 1.349 . S
C1561 C1563 1.327 . S
C1561 H1584 0.950 . S
C1562 C1561 1.349 . S
C1562 C1574 1.349 1_565 S
C1563 C1561 1.327 . S
C1563 C1579 1.429 . S
C1563 H1585 0.950 . S
C1564 H1560 0.949 . S
C1564 C1572 1.574 . S
C1564 C1580 1.368 1_545 S
H1565 C1573 0.950 . S
H1566 C1571 0.950 . S
H1567 C1572 0.949 . S
H1568 C1574 0.950 . S
H1569 C1575 0.950 . S
H1570 C1576 0.949 . S
C1571 H1566 0.950 . S
C1571 C1573 1.327 . S
C1571 C1577 1.429 1_565 S
C1572 C1564 1.574 . S
C1572 H1567 0.949 . S
C1572 C1578 1.368 . S
C1573 C1557 1.349 1_565 S
C1573 H1565 0.950 . S
C1573 C1571 1.327 . S
C1574 C1562 1.349 1_545 S
C1574 H1568 0.950 . S
C1574 C1575 1.327 . S
C1575 H1569 0.950 . S
C1575 C1574 1.327 . S
C1575 C1579 1.429 1_545 S
C1576 C1559 1.574 . S
C1576 H1570 0.949 . S
C1576 C1580 1.368 . S
C1577 C1558 1.429 . S
C1577 C1571 1.429 1_545 S
C1577 C1578 1.523 . S
C1578 C1559 1.368 1_545 S
C1578 C1572 1.368 . S
C1578 C1577 1.523 . S
C1579 C1563 1.429 . S
C1579 C1575 1.429 1_565 S
C1579 C1580 1.523 . S
C1580 C1564 1.368 1_565 S
C1580 C1576 1.368 . S
C1580 C1579 1.523 . S
H1581 C1556 0.950 . S
H1582 C1558 0.950 . S
H1583 C1559 0.949 . S
H1584 C1561 0.950 . S
H1585 C1563 0.950 . S
C1586 C1587 1.349 . S
C1586 C1588 1.327 . S
C1586 H1611 0.950 . S
C1587 C1586 1.349 . S
C1587 C1603 1.349 . S
C1588 C1586 1.327 . S
C1588 C1607 1.429 . S
C1588 H1612 0.950 . S
C1589 C1606 1.574 . S
C1589 C1608 1.368 . S
C1589 H1613 0.949 . S
H1590 C1594 0.949 . S
C1591 C1592 1.349 . S
C1591 C1593 1.327 . S
C1591 H1614 0.950 . S
C1592 C1591 1.349 . S
C1592 C1604 1.349 . S
C1593 C1591 1.327 . S
C1593 C1609 1.429 . S
C1593 H1615 0.950 . S
C1594 H1590 0.949 . S
C1594 C1602 1.574 . S
C1594 C1610 1.368 . S
H1595 C1603 0.950 . S
H1596 C1601 0.950 . S
H1597 C1602 0.949 . S
H1598 C1604 0.950 . S
H1599 C1605 0.950 . S
H1600 C1606 0.949 . S
C1601 H1596 0.950 . S
C1601 C1603 1.327 . S
C1601 C1607 1.429 . S
C1602 C1594 1.574 . S
C1602 H1597 0.949 . S
C1602 C1608 1.368 . S
C1603 C1587 1.349 . S
C1603 H1595 0.950 . S
C1603 C1601 1.327 . S
C1604 C1592 1.349 . S
C1604 H1598 0.950 . S
C1604 C1605 1.327 . S
C1605 H1599 0.950 . S
C1605 C1604 1.327 . S
C1605 C1609 1.429 . S
C1606 C1589 1.574 . S
C1606 H1600 0.949 . S
C1606 C1610 1.368 . S
C1607 C1588 1.429 . S
C1607 C1601 1.429 . S
C1607 C1608 1.523 . S
C1608 C1589 1.368 . S
C1608 C1602 1.368 . S
C1608 C1607 1.523 . S
C1609 C1593 1.429 . S
C1609 C1605 1.429 . S
C1609 C1610 1.523 . S
C1610 C1594 1.368 . S
C1610 C1606 1.368 . S
C1610 C1609 1.523 . S
H1611 C1586 0.950 . S
H1612 C1588 0.950 . S
H1613 C1589 0.949 . S
H1614 C1591 0.950 . S
H1615 C1593 0.950 . S
C1616 C1617 1.349 . S
C1616 C1618 1.327 . S
C1616 H1641 0.950 . S
C1617 C1616 1.349 . S
C1617 C1633 1.349 . S
C1618 C1616 1.327 . S
C1618 C1637 1.429 . S
C1618 H1642 0.950 . S
C1619 C1636 1.574 . S
C1619 C1638 1.368 . S
C1619 H1643 0.949 . S
H1620 C1624 0.949 . S
C1621 C1622 1.349 . S
C1621 C1623 1.327 . S
C1621 H1644 0.950 . S
C1622 C1621 1.349 . S
C1622 C1634 1.349 . S
C1623 C1621 1.327 . S
C1623 C1639 1.429 . S
C1623 H1645 0.950 . S
C1624 H1620 0.949 . S
C1624 C1632 1.574 . S
C1624 C1640 1.368 . S
H1625 C1633 0.950 . S
H1626 C1631 0.950 . S
H1627 C1632 0.949 . S
H1628 C1634 0.950 . S
H1629 C1635 0.950 . S
H1630 C1636 0.949 . S
C1631 H1626 0.950 . S
C1631 C1633 1.327 . S
C1631 C1637 1.429 . S
C1632 C1624 1.574 . S
C1632 H1627 0.949 . S
C1632 C1638 1.368 . S
C1633 C1617 1.349 . S
C1633 H1625 0.950 . S
C1633 C1631 1.327 . S
C1634 C1622 1.349 . S
C1634 H1628 0.950 . S
C1634 C1635 1.327 . S
C1635 H1629 0.950 . S
C1635 C1634 1.327 . S
C1635 C1639 1.429 . S
C1636 C1619 1.574 . S
C1636 H1630 0.949 . S
C1636 C1640 1.368 . S
C1637 C1618 1.429 . S
C1637 C1631 1.429 . S
C1637 C1638 1.523 . S
C1638 C1619 1.368 . S
C1638 C1632 1.368 . S
C1638 C1637 1.523 . S
C1639 C1623 1.429 . S
C1639 C1635 1.429 . S
C1639 C1640 1.523 . S
C1640 C1624 1.368 . S
C1640 C1636 1.368 . S
C1640 C1639 1.523 . S
H1641 C1616 0.950 . S
H1642 C1618 0.950 . S
H1643 C1619 0.949 . S
H1644 C1621 0.950 . S
H1645 C1623 0.950 . S
C1646 C1647 1.349 . S
C1646 C1648 1.327 . S
C1646 H1671 0.950 . S
C1647 C1646 1.349 . S
C1647 C1663 1.349 . S
C1648 C1646 1.327 . S
C1648 C1667 1.429 . S
C1648 H1672 0.950 . S
C1649 C1666 1.574 . S
C1649 C1668 1.368 . S
C1649 H1673 0.949 . S
H1650 C1654 0.949 . S
C1651 C1652 1.349 . S
C1651 C1653 1.327 . S
C1651 H1674 0.950 . S
C1652 C1651 1.349 . S
C1652 C1664 1.349 . S
C1653 C1651 1.327 . S
C1653 C1669 1.429 . S
C1653 H1675 0.950 . S
C1654 H1650 0.949 . S
C1654 C1662 1.574 . S
C1654 C1670 1.368 . S
H1655 C1663 0.950 . S
H1656 C1661 0.950 . S
H1657 C1662 0.949 . S
H1658 C1664 0.950 . S
H1659 C1665 0.950 . S
H1660 C1666 0.949 . S
C1661 H1656 0.950 . S
C1661 C1663 1.327 . S
C1661 C1667 1.429 . S
C1662 C1654 1.574 . S
C1662 H1657 0.949 . S
C1662 C1668 1.368 . S
C1663 C1647 1.349 . S
C1663 H1655 0.950 . S
C1663 C1661 1.327 . S
C1664 C1652 1.349 . S
C1664 H1658 0.950 . S
C1664 C1665 1.327 . S
C1665 H1659 0.950 . S
C1665 C1664 1.327 . S
C1665 C1669 1.429 . S
C1666 C1649 1.574 . S
C1666 H1660 0.949 . S
C1666 C1670 1.368 . S
C1667 C1648 1.429 . S
C1667 C1661 1.429 . S
C1667 C1668 1.523 . S
C1668 C1649 1.368 . S
C1668 C1662 1.368 . S
C1668 C1667 1.523 . S
C1669 C1653 1.429 . S
C1669 C1665 1.429 . S
C1669 C1670 1.523 . S
C1670 C1654 1.368 . S
C1670 C1666 1.368 . S
C1670 C1669 1.523 . S
H1671 C1646 0.950 . S
H1672 C1648 0.950 . S
H1673 C1649 0.949 . S
H1674 C1651 0.950 . S
H1675 C1653 0.950 . S
C1676 C1677 1.349 . S
C1676 C1678 1.327 . S
C1676 H1701 0.950 . S
C1677 C1676 1.349 . S
C1677 C1693 1.349 . S
C1678 C1676 1.327 . S
C1678 C1697 1.429 . S
C1678 H1702 0.950 . S
C1679 C1696 1.574 . S
C1679 C1698 1.368 . S
C1679 H1703 0.949 . S
H1680 C1684 0.949 . S
C1681 C1682 1.349 . S
C1681 C1683 1.327 . S
C1681 H1704 0.950 . S
C1682 C1681 1.349 . S
C1682 C1694 1.349 . S
C1683 C1681 1.327 . S
C1683 C1699 1.429 . S
C1683 H1705 0.950 . S
C1684 H1680 0.949 . S
C1684 C1692 1.574 . S
C1684 C1700 1.368 . S
H1685 C1693 0.950 . S
H1686 C1691 0.950 . S
H1687 C1692 0.949 . S
H1688 C1694 0.950 . S
H1689 C1695 0.950 . S
H1690 C1696 0.949 . S
C1691 H1686 0.950 . S
C1691 C1693 1.327 . S
C1691 C1697 1.429 . S
C1692 C1684 1.574 . S
C1692 H1687 0.949 . S
C1692 C1698 1.368 . S
C1693 C1677 1.349 . S
C1693 H1685 0.950 . S
C1693 C1691 1.327 . S
C1694 C1682 1.349 . S
C1694 H1688 0.950 . S
C1694 C1695 1.327 . S
C1695 H1689 0.950 . S
C1695 C1694 1.327 . S
C1695 C1699 1.429 . S
C1696 C1679 1.574 . S
C1696 H1690 0.949 . S
C1696 C1700 1.368 . S
C1697 C1678 1.429 . S
C1697 C1691 1.429 . S
C1697 C1698 1.523 . S
C1698 C1679 1.368 . S
C1698 C1692 1.368 . S
C1698 C1697 1.523 . S
C1699 C1683 1.429 . S
C1699 C1695 1.429 . S
C1699 C1700 1.523 . S
C1700 C1684 1.368 . S
C1700 C1696 1.368 . S
C1700 C1699 1.523 . S
H1701 C1676 0.950 . S
H1702 C1678 0.950 . S
H1703 C1679 0.949 . S
H1704 C1681 0.950 . S
H1705 C1683 0.950 . S
C1706 C1707 1.349 . S
C1706 C1708 1.327 . S
C1706 H1731 0.950 . S
C1707 C1706 1.349 . S
C1707 C1723 1.349 . S
C1708 C1706 1.327 . S
C1708 C1727 1.429 . S
C1708 H1732 0.950 . S
C1709 C1726 1.574 . S
C1709 C1728 1.368 . S
C1709 H1733 0.949 . S
H1710 C1714 0.949 . S
C1711 C1712 1.349 . S
C1711 C1713 1.327 . S
C1711 H1734 0.950 . S
C1712 C1711 1.349 . S
C1712 C1724 1.349 . S
C1713 C1711 1.327 . S
C1713 C1729 1.429 . S
C1713 H1735 0.950 . S
C1714 H1710 0.949 . S
C1714 C1722 1.574 . S
C1714 C1730 1.368 . S
H1715 C1723 0.950 . S
H1716 C1721 0.950 . S
H1717 C1722 0.949 . S
H1718 C1724 0.950 . S
H1719 C1725 0.950 . S
H1720 C1726 0.949 . S
C1721 H1716 0.950 . S
C1721 C1723 1.327 . S
C1721 C1727 1.429 . S
C1722 C1714 1.574 . S
C1722 H1717 0.949 . S
C1722 C1728 1.368 . S
C1723 C1707 1.349 . S
C1723 H1715 0.950 . S
C1723 C1721 1.327 . S
C1724 C1712 1.349 . S
C1724 H1718 0.950 . S
C1724 C1725 1.327 . S
C1725 H1719 0.950 . S
C1725 C1724 1.327 . S
C1725 C1729 1.429 . S
C1726 C1709 1.574 . S
C1726 H1720 0.949 . S
C1726 C1730 1.368 . S
C1727 C1708 1.429 . S
C1727 C1721 1.429 . S
C1727 C1728 1.523 . S
C1728 C1709 1.368 . S
C1728 C1722 1.368 . S
C1728 C1727 1.523 . S
C1729 C1713 1.429 . S
C1729 C1725 1.429 . S
C1729 C1730 1.523 . S
C1730 C1714 1.368 . S
C1730 C1726 1.368 . S
C1730 C1729 1.523 . S
H1731 C1706 0.950 . S
H1732 C1708 0.950 . S
H1733 C1709 0.949 . S
H1734 C1711 0.950 . S
H1735 C1713 0.950 . S
C1736 C1737 1.372 . S
C1736 C1738 1.327 . S
C1736 H1761 0.950 . S
C1737 C1736 1.372 . S
C1737 C1753 1.327 1_465 S
C1738 C1736 1.327 . S
C1738 C1757 1.439 . S
C1738 H1762 0.950 . S
C1739 C1756 1.574 . S
C1739 C1758 1.365 1_645 S
C1739 H1763 0.949 . S
H1740 C1744 0.949 . S
C1741 C1742 1.372 . S
C1741 C1743 1.327 . S
C1741 H1764 0.950 . S
C1742 C1741 1.372 . S
C1742 C1754 1.327 1_645 S
C1743 C1741 1.327 . S
C1743 C1759 1.439 . S
C1743 H1765 0.950 . S
C1744 H1740 0.949 . S
C1744 C1752 1.574 . S
C1744 C1760 1.365 1_465 S
H1745 C1753 0.950 . S
H1746 C1751 0.950 . S
H1747 C1752 0.949 . S
H1748 C1754 0.950 . S
H1749 C1755 0.950 . S
H1750 C1756 0.949 . S
C1751 H1746 0.950 . S
C1751 C1753 1.327 . S
C1751 C1757 1.419 1_645 S
C1752 C1744 1.574 . S
C1752 H1747 0.949 . S
C1752 C1758 1.372 . S
C1753 C1737 1.327 1_645 S
C1753 H1745 0.950 . S
C1753 C1751 1.327 . S
C1754 C1742 1.327 1_465 S
C1754 H1748 0.950 . S
C1754 C1755 1.327 . S
C1755 H1749 0.950 . S
C1755 C1754 1.327 . S
C1755 C1759 1.419 1_465 S
C1756 C1739 1.574 . S
C1756 H1750 0.949 . S
C1756 C1760 1.372 . S
C1757 C1738 1.439 . S
C1757 C1751 1.419 1_465 S
C1757 C1758 1.523 . S
C1758 C1739 1.365 1_465 S
C1758 C1752 1.372 . S
C1758 C1757 1.523 . S
C1759 C1743 1.439 . S
C1759 C1755 1.419 1_645 S
C1759 C1760 1.523 . S
C1760 C1744 1.365 1_645 S
C1760 C1756 1.372 . S
C1760 C1759 1.523 . S
H1761 C1736 0.950 . S
H1762 C1738 0.950 . S
H1763 C1739 0.949 . S
H1764 C1741 0.950 . S
H1765 C1743 0.950 . S
C1766 C1767 1.382 . S
C1766 C1768 1.327 . S
C1766 H1791 0.950 . S
C1767 C1766 1.382 . S
C1767 C1783 1.317 1_655 S
C1768 C1766 1.327 . S
C1768 C1787 1.443 . S
C1768 H1792 0.950 . S
C1769 C1786 1.574 . S
C1769 C1788 1.364 1_455 S
C1769 H1793 0.949 . S
H1770 C1774 0.949 . S
C1771 C1772 1.383 . S
C1771 C1773 1.327 . S
C1771 H1794 0.950 . S
C1772 C1771 1.383 . S
C1772 C1784 1.316 1_455 S
C1773 C1771 1.327 . S
C1773 C1789 1.443 . S
C1773 H1795 0.950 . S
C1774 H1770 0.949 . S
C1774 C1782 1.574 . S
C1774 C1790 1.363 1_655 S
H1775 C1783 0.950 . S
H1776 C1781 0.950 . S
H1777 C1782 0.949 . S
H1778 C1784 0.950 . S
H1779 C1785 0.950 . S
H1780 C1786 0.949 . S
C1781 H1776 0.950 . S
C1781 C1783 1.327 . S
C1781 C1787 1.415 1_455 S
C1782 C1774 1.574 . S
C1782 H1777 0.949 . S
C1782 C1788 1.373 . S
C1783 C1767 1.317 1_455 S
C1783 H1775 0.950 . S
C1783 C1781 1.327 . S
C1784 C1772 1.316 1_655 S
C1784 H1778 0.950 . S
C1784 C1785 1.327 . S
C1785 H1779 0.950 . S
C1785 C1784 1.327 . S
C1785 C1789 1.414 1_655 S
C1786 C1769 1.574 . S
C1786 H1780 0.949 . S
C1786 C1790 1.373 . S
C1787 C1768 1.443 . S
C1787 C1781 1.415 1_655 S
C1787 C1788 1.523 . S
C1788 C1769 1.364 1_655 S
C1788 C1782 1.373 . S
C1788 C1787 1.523 . S
C1789 C1773 1.443 . S
C1789 C1785 1.414 1_455 S
C1789 C1790 1.523 . S
C1790 C1774 1.363 1_455 S
C1790 C1786 1.373 . S
C1790 C1789 1.523 . S
H1791 C1766 0.950 . S
H1792 C1768 0.950 . S
H1793 C1769 0.949 . S
H1794 C1771 0.950 . S
H1795 C1773 0.950 . S
C1796 C1797 1.379 . S
C1796 C1798 1.327 . S
C1796 H1821 0.950 . S
C1797 C1796 1.379 . S
C1797 C1813 1.320 1_655 S
C1798 C1796 1.327 . S
C1798 C1817 1.442 . S
C1798 H1822 0.950 . S
C1799 C1816 1.574 . S
C1799 C1818 1.364 1_455 S
C1799 H1823 0.949 . S
H1800 C1804 0.949 . S
C1801 C1802 1.378 . S
C1801 C1803 1.327 . S
C1801 H1824 0.950 . S
C1802 C1801 1.378 . S
C1802 C1814 1.321 1_455 S
C1803 C1801 1.327 . S
C1803 C1819 1.441 . S
C1803 H1825 0.950 . S
C1804 H1800 0.949 . S
C1804 C1812 1.574 . S
C1804 C1820 1.365 1_655 S
H1805 C1813 0.950 . S
H1806 C1811 0.950 . S
H1807 C1812 0.949 . S
H1808 C1814 0.950 . S
H1809 C1815 0.950 . S
H1810 C1816 0.949 . S
C1811 H1806 0.950 . S
C1811 C1813 1.327 . S
C1811 C1817 1.416 1_455 S
C1812 C1804 1.574 . S
C1812 H1807 0.949 . S
C1812 C1818 1.373 . S
C1813 C1797 1.320 1_455 S
C1813 H1805 0.950 . S
C1813 C1811 1.327 . S
C1814 C1802 1.321 1_655 S
C1814 H1808 0.950 . S
C1814 C1815 1.327 . S
C1815 H1809 0.950 . S
C1815 C1814 1.327 . S
C1815 C1819 1.417 1_655 S
C1816 C1799 1.574 . S
C1816 H1810 0.949 . S
C1816 C1820 1.372 . S
C1817 C1798 1.442 . S
C1817 C1811 1.416 1_655 S
C1817 C1818 1.523 . S
C1818 C1799 1.364 1_655 S
C1818 C1812 1.373 . S
C1818 C1817 1.523 . S
C1819 C1803 1.441 . S
C1819 C1815 1.417 1_455 S
C1819 C1820 1.523 . S
C1820 C1804 1.365 1_455 S
C1820 C1816 1.372 . S
C1820 C1819 1.523 . S
H1821 C1796 0.950 . S
H1822 C1798 0.950 . S
H1823 C1799 0.949 . S
H1824 C1801 0.950 . S
H1825 C1803 0.950 . S
C1826 C1827 1.377 . S
C1826 C1828 1.327 . S
C1826 H1851 0.950 . S
C1827 C1826 1.377 . S
C1827 C1843 1.322 1_455 S
C1828 C1826 1.327 . S
C1828 C1847 1.440 . S
C1828 H1852 0.950 . S
C1829 C1846 1.574 1_556 S
C1829 C1848 1.365 1_655 S
C1829 H1853 0.949 . S
H1830 C1834 0.949 . S
C1831 C1832 1.377 . S
C1831 C1833 1.327 . S
C1831 H1854 0.950 . S
C1832 C1831 1.377 . S
C1832 C1844 1.322 1_655 S
C1833 C1831 1.327 . S
C1833 C1849 1.440 . S
C1833 H1855 0.950 . S
C1834 H1830 0.949 . S
C1834 C1842 1.574 1_554 S
C1834 C1850 1.365 1_455 S
H1835 C1843 0.950 . S
H1836 C1841 0.950 . S
H1837 C1842 0.949 . S
H1838 C1844 0.950 . S
H1839 C1845 0.950 . S
H1840 C1846 0.949 . S
C1841 H1836 0.950 . S
C1841 C1843 1.327 . S
C1841 C1847 1.417 1_655 S
C1842 C1834 1.574 1_556 S
C1842 H1837 0.949 . S
C1842 C1848 1.372 . S
C1843 C1827 1.322 1_655 S
C1843 H1835 0.950 . S
C1843 C1841 1.327 . S
C1844 C1832 1.322 1_455 S
C1844 H1838 0.950 . S
C1844 C1845 1.327 . S
C1845 H1839 0.950 . S
C1845 C1844 1.327 . S
C1845 C1849 1.417 1_455 S
C1846 C1829 1.574 1_554 S
C1846 H1840 0.949 . S
C1846 C1850 1.372 . S
C1847 C1828 1.440 . S
C1847 C1841 1.417 1_455 S
C1847 C1848 1.523 . S
C1848 C1829 1.365 1_455 S
C1848 C1842 1.372 . S
C1848 C1847 1.523 . S
C1849 C1833 1.440 . S
C1849 C1845 1.417 1_655 S
C1849 C1850 1.523 . S
C1850 C1834 1.365 1_655 S
C1850 C1846 1.372 . S
C1850 C1849 1.523 . S
H1851 C1826 0.950 . S
H1852 C1828 0.950 . S
H1853 C1829 0.949 . S
H1854 C1831 0.950 . S
H1855 C1833 0.950 . S
C1856 C1857 1.349 . S
C1856 C1858 1.327 . S
C1856 H1881 0.950 . S
C1857 C1856 1.349 . S
C1857 C1873 1.349 . S
C1858 C1856 1.327 . S
C1858 C1877 1.429 . S
C1858 H1882 0.950 . S
C1859 C1876 1.574 . S
C1859 C1878 1.368 . S
C1859 H1883 0.949 . S
H1860 C1864 0.949 . S
C1861 C1862 1.349 . S
C1861 C1863 1.327 . S
C1861 H1884 0.950 . S
C1862 C1861 1.349 . S
C1862 C1874 1.349 . S
C1863 C1861 1.327 . S
C1863 C1879 1.429 . S
C1863 H1885 0.950 . S
C1864 H1860 0.949 . S
C1864 C1872 1.574 . S
C1864 C1880 1.368 . S
H1865 C1873 0.950 . S
H1866 C1871 0.950 . S
H1867 C1872 0.949 . S
H1868 C1874 0.950 . S
H1869 C1875 0.950 . S
H1870 C1876 0.949 . S
C1871 H1866 0.950 . S
C1871 C1873 1.327 . S
C1871 C1877 1.429 . S
C1872 C1864 1.574 . S
C1872 H1867 0.949 . S
C1872 C1878 1.368 . S
C1873 C1857 1.349 . S
C1873 H1865 0.950 . S
C1873 C1871 1.327 . S
C1874 C1862 1.349 . S
C1874 H1868 0.950 . S
C1874 C1875 1.327 . S
C1875 H1869 0.950 . S
C1875 C1874 1.327 . S
C1875 C1879 1.429 . S
C1876 C1859 1.574 . S
C1876 H1870 0.949 . S
C1876 C1880 1.368 . S
C1877 C1858 1.429 . S
C1877 C1871 1.429 . S
C1877 C1878 1.523 . S
C1878 C1859 1.368 . S
C1878 C1872 1.368 . S
C1878 C1877 1.523 . S
C1879 C1863 1.429 . S
C1879 C1875 1.429 . S
C1879 C1880 1.523 . S
C1880 C1864 1.368 . S
C1880 C1876 1.368 . S
C1880 C1879 1.523 . S
H1881 C1856 0.950 . S
H1882 C1858 0.950 . S
H1883 C1859 0.949 . S
H1884 C1861 0.950 . S
H1885 C1863 0.950 . S
C1886 C1887 1.349 . S
C1886 C1888 1.327 . S
C1886 H1911 0.950 . S
C1887 C1886 1.349 . S
C1887 C1903 1.349 . S
C1888 C1886 1.327 . S
C1888 C1907 1.429 . S
C1888 H1912 0.950 . S
C1889 C1906 1.574 . S
C1889 C1908 1.368 . S
C1889 H1913 0.949 . S
H1890 C1894 0.949 . S
C1891 C1892 1.349 . S
C1891 C1893 1.327 . S
C1891 H1914 0.950 . S
C1892 C1891 1.349 . S
C1892 C1904 1.349 . S
C1893 C1891 1.327 . S
C1893 C1909 1.429 . S
C1893 H1915 0.950 . S
C1894 H1890 0.949 . S
C1894 C1902 1.574 . S
C1894 C1910 1.368 . S
H1895 C1903 0.950 . S
H1896 C1901 0.950 . S
H1897 C1902 0.949 . S
H1898 C1904 0.950 . S
H1899 C1905 0.950 . S
H1900 C1906 0.949 . S
C1901 H1896 0.950 . S
C1901 C1903 1.327 . S
C1901 C1907 1.429 . S
C1902 C1894 1.574 . S
C1902 H1897 0.949 . S
C1902 C1908 1.368 . S
C1903 C1887 1.349 . S
C1903 H1895 0.950 . S
C1903 C1901 1.327 . S
C1904 C1892 1.349 . S
C1904 H1898 0.950 . S
C1904 C1905 1.327 . S
C1905 H1899 0.950 . S
C1905 C1904 1.327 . S
C1905 C1909 1.429 . S
C1906 C1889 1.574 . S
C1906 H1900 0.949 . S
C1906 C1910 1.368 . S
C1907 C1888 1.429 . S
C1907 C1901 1.429 . S
C1907 C1908 1.523 . S
C1908 C1889 1.368 . S
C1908 C1902 1.368 . S
C1908 C1907 1.523 . S
C1909 C1893 1.429 . S
C1909 C1905 1.429 . S
C1909 C1910 1.523 . S
C1910 C1894 1.368 . S
C1910 C1906 1.368 . S
C1910 C1909 1.523 . S
H1911 C1886 0.950 . S
H1912 C1888 0.950 . S
H1913 C1889 0.949 . S
H1914 C1891 0.950 . S
H1915 C1893 0.950 . S
C1916 C1917 1.349 . S
C1916 C1918 1.327 . S
C1916 H1941 0.950 . S
C1917 C1916 1.349 . S
C1917 C1933 1.349 . S
C1918 C1916 1.327 . S
C1918 C1937 1.429 . S
C1918 H1942 0.950 . S
C1919 C1936 1.574 . S
C1919 C1938 1.368 . S
C1919 H1943 0.949 . S
H1920 C1924 0.949 . S
C1921 C1922 1.349 . S
C1921 C1923 1.327 . S
C1921 H1944 0.950 . S
C1922 C1921 1.349 . S
C1922 C1934 1.349 . S
C1923 C1921 1.327 . S
C1923 C1939 1.429 . S
C1923 H1945 0.950 . S
C1924 H1920 0.949 . S
C1924 C1932 1.574 . S
C1924 C1940 1.368 . S
H1925 C1933 0.950 . S
H1926 C1931 0.950 . S
H1927 C1932 0.949 . S
H1928 C1934 0.950 . S
H1929 C1935 0.950 . S
H1930 C1936 0.949 . S
C1931 H1926 0.950 . S
C1931 C1933 1.327 . S
C1931 C1937 1.429 . S
C1932 C1924 1.574 . S
C1932 H1927 0.949 . S
C1932 C1938 1.368 . S
C1933 C1917 1.349 . S
C1933 H1925 0.950 . S
C1933 C1931 1.327 . S
C1934 C1922 1.349 . S
C1934 H1928 0.950 . S
C1934 C1935 1.327 . S
C1935 H1929 0.950 . S
C1935 C1934 1.327 . S
C1935 C1939 1.429 . S
C1936 C1919 1.574 . S
C1936 H1930 0.949 . S
C1936 C1940 1.368 . S
C1937 C1918 1.429 . S
C1937 C1931 1.429 . S
C1937 C1938 1.523 . S
C1938 C1919 1.368 . S
C1938 C1932 1.368 . S
C1938 C1937 1.523 . S
C1939 C1923 1.429 . S
C1939 C1935 1.429 . S
C1939 C1940 1.523 . S
C1940 C1924 1.368 . S
C1940 C1936 1.368 . S
C1940 C1939 1.523 . S
H1941 C1916 0.950 . S
H1942 C1918 0.950 . S
H1943 C1919 0.949 . S
H1944 C1921 0.950 . S
H1945 C1923 0.950 . S
C1946 C1947 1.349 . S
C1946 C1948 1.327 . S
C1946 H1971 0.950 . S
C1947 C1946 1.349 . S
C1947 C1963 1.349 . S
C1948 C1946 1.327 . S
C1948 C1967 1.429 . S
C1948 H1972 0.950 . S
C1949 C1966 1.574 . S
C1949 C1968 1.368 . S
C1949 H1973 0.949 . S
H1950 C1954 0.949 . S
C1951 C1952 1.349 . S
C1951 C1953 1.327 . S
C1951 H1974 0.950 . S
C1952 C1951 1.349 . S
C1952 C1964 1.349 . S
C1953 C1951 1.327 . S
C1953 C1969 1.429 . S
C1953 H1975 0.950 . S
C1954 H1950 0.949 . S
C1954 C1962 1.574 . S
C1954 C1970 1.368 . S
H1955 C1963 0.950 . S
H1956 C1961 0.950 . S
H1957 C1962 0.949 . S
H1958 C1964 0.950 . S
H1959 C1965 0.950 . S
H1960 C1966 0.949 . S
C1961 H1956 0.950 . S
C1961 C1963 1.327 . S
C1961 C1967 1.429 . S
C1962 C1954 1.574 . S
C1962 H1957 0.949 . S
C1962 C1968 1.368 . S
C1963 C1947 1.349 . S
C1963 H1955 0.950 . S
C1963 C1961 1.327 . S
C1964 C1952 1.349 . S
C1964 H1958 0.950 . S
C1964 C1965 1.327 . S
C1965 H1959 0.950 . S
C1965 C1964 1.327 . S
C1965 C1969 1.429 . S
C1966 C1949 1.574 . S
C1966 H1960 0.949 . S
C1966 C1970 1.368 . S
C1967 C1948 1.429 . S
C1967 C1961 1.429 . S
C1967 C1968 1.523 . S
C1968 C1949 1.368 . S
C1968 C1962 1.368 . S
C1968 C1967 1.523 . S
C1969 C1953 1.429 . S
C1969 C1965 1.429 . S
C1969 C1970 1.523 . S
C1970 C1954 1.368 . S
C1970 C1966 1.368 . S
C1970 C1969 1.523 . S
H1971 C1946 0.950 . S
H1972 C1948 0.950 . S
H1973 C1949 0.949 . S
H1974 C1951 0.950 . S
H1975 C1953 0.950 . S
C1976 C1977 1.349 . S
C1976 C1978 1.327 . S
C1976 H2001 0.950 . S
C1977 C1976 1.349 . S
C1977 C1993 1.349 . S
C1978 C1976 1.327 . S
C1978 C1997 1.429 . S
C1978 H2002 0.950 . S
C1979 C1996 1.574 . S
C1979 C1998 1.368 . S
C1979 H2003 0.949 . S
H1980 C1984 0.949 . S
C1981 C1982 1.349 . S
C1981 C1983 1.327 . S
C1981 H2004 0.950 . S
C1982 C1981 1.349 . S
C1982 C1994 1.349 . S
C1983 C1981 1.327 . S
C1983 C1999 1.429 . S
C1983 H2005 0.950 . S
C1984 H1980 0.949 . S
C1984 C1992 1.574 . S
C1984 C2000 1.368 . S
H1985 C1993 0.950 . S
H1986 C1991 0.950 . S
H1987 C1992 0.949 . S
H1988 C1994 0.950 . S
H1989 C1995 0.950 . S
H1990 C1996 0.949 . S
C1991 H1986 0.950 . S
C1991 C1993 1.327 . S
C1991 C1997 1.429 . S
C1992 C1984 1.574 . S
C1992 H1987 0.949 . S
C1992 C1998 1.368 . S
C1993 C1977 1.349 . S
C1993 H1985 0.950 . S
C1993 C1991 1.327 . S
C1994 C1982 1.349 . S
C1994 H1988 0.950 . S
C1994 C1995 1.327 . S
C1995 H1989 0.950 . S
C1995 C1994 1.327 . S
C1995 C1999 1.429 . S
C1996 C1979 1.574 . S
C1996 H1990 0.949 . S
C1996 C2000 1.368 . S
C1997 C1978 1.429 . S
C1997 C1991 1.429 . S
C1997 C1998 1.523 . S
C1998 C1979 1.368 . S
C1998 C1992 1.368 . S
C1998 C1997 1.523 . S
C1999 C1983 1.429 . S
C1999 C1995 1.429 . S
C1999 C2000 1.523 . S
C2000 C1984 1.368 . S
C2000 C1996 1.368 . S
C2000 C1999 1.523 . S
H2001 C1976 0.950 . S
H2002 C1978 0.950 . S
H2003 C1979 0.949 . S
H2004 C1981 0.950 . S
H2005 C1983 0.950 . S
C2006 C2007 1.349 . S
C2006 C2008 1.327 . S
C2006 H2031 0.950 . S
C2007 C2006 1.349 . S
C2007 C2023 1.349 . S
C2008 C2006 1.327 . S
C2008 C2027 1.429 . S
C2008 H2032 0.950 . S
C2009 C2026 1.574 . S
C2009 C2028 1.368 . S
C2009 H2033 0.949 . S
H2010 C2014 0.949 . S
C2011 C2012 1.349 . S
C2011 C2013 1.327 . S
C2011 H2034 0.950 . S
C2012 C2011 1.349 . S
C2012 C2024 1.349 . S
C2013 C2011 1.327 . S
C2013 C2029 1.429 . S
C2013 H2035 0.950 . S
C2014 H2010 0.949 . S
C2014 C2022 1.574 . S
C2014 C2030 1.368 . S
H2015 C2023 0.950 . S
H2016 C2021 0.950 . S
H2017 C2022 0.949 . S
H2018 C2024 0.950 . S
H2019 C2025 0.950 . S
H2020 C2026 0.949 . S
C2021 H2016 0.950 . S
C2021 C2023 1.327 . S
C2021 C2027 1.429 . S
C2022 C2014 1.574 . S
C2022 H2017 0.949 . S
C2022 C2028 1.368 . S
C2023 C2007 1.349 . S
C2023 H2015 0.950 . S
C2023 C2021 1.327 . S
C2024 C2012 1.349 . S
C2024 H2018 0.950 . S
C2024 C2025 1.327 . S
C2025 H2019 0.950 . S
C2025 C2024 1.327 . S
C2025 C2029 1.429 . S
C2026 C2009 1.574 . S
C2026 H2020 0.949 . S
C2026 C2030 1.368 . S
C2027 C2008 1.429 . S
C2027 C2021 1.429 . S
C2027 C2028 1.523 . S
C2028 C2009 1.368 . S
C2028 C2022 1.368 . S
C2028 C2027 1.523 . S
C2029 C2013 1.429 . S
C2029 C2025 1.429 . S
C2029 C2030 1.523 . S
C2030 C2014 1.368 . S
C2030 C2026 1.368 . S
C2030 C2029 1.523 . S
H2031 C2006 0.950 . S
H2032 C2008 0.950 . S
H2033 C2009 0.949 . S
H2034 C2011 0.950 . S
H2035 C2013 0.950 . S
C2036 C2037 1.349 . S
C2036 C2038 1.327 . S
C2036 H2061 0.950 . S
C2037 C2036 1.349 . S
C2037 C2053 1.349 . S
C2038 C2036 1.327 . S
C2038 C2057 1.429 . S
C2038 H2062 0.950 . S
C2039 C2056 1.574 . S
C2039 C2058 1.368 . S
C2039 H2063 0.949 . S
H2040 C2044 0.949 . S
C2041 C2042 1.349 . S
C2041 C2043 1.327 . S
C2041 H2064 0.950 . S
C2042 C2041 1.349 . S
C2042 C2054 1.349 . S
C2043 C2041 1.327 . S
C2043 C2059 1.429 . S
C2043 H2065 0.950 . S
C2044 H2040 0.949 . S
C2044 C2052 1.574 . S
C2044 C2060 1.368 . S
H2045 C2053 0.950 . S
H2046 C2051 0.950 . S
H2047 C2052 0.949 . S
H2048 C2054 0.950 . S
H2049 C2055 0.950 . S
H2050 C2056 0.949 . S
C2051 H2046 0.950 . S
C2051 C2053 1.327 . S
C2051 C2057 1.429 . S
C2052 C2044 1.574 . S
C2052 H2047 0.949 . S
C2052 C2058 1.368 . S
C2053 C2037 1.349 . S
C2053 H2045 0.950 . S
C2053 C2051 1.327 . S
C2054 C2042 1.349 . S
C2054 H2048 0.950 . S
C2054 C2055 1.327 . S
C2055 H2049 0.950 . S
C2055 C2054 1.327 . S
C2055 C2059 1.429 . S
C2056 C2039 1.574 . S
C2056 H2050 0.949 . S
C2056 C2060 1.368 . S
C2057 C2038 1.429 . S
C2057 C2051 1.429 . S
C2057 C2058 1.523 . S
C2058 C2039 1.368 . S
C2058 C2052 1.368 . S
C2058 C2057 1.523 . S
C2059 C2043 1.429 . S
C2059 C2055 1.429 . S
C2059 C2060 1.523 . S
C2060 C2044 1.368 . S
C2060 C2056 1.368 . S
C2060 C2059 1.523 . S
H2061 C2036 0.950 . S
H2062 C2038 0.950 . S
H2063 C2039 0.949 . S
H2064 C2041 0.950 . S
H2065 C2043 0.950 . S
C2066 C2067 1.349 . S
C2066 C2068 1.327 . S
C2066 H2091 0.950 . S
C2067 C2066 1.349 . S
C2067 C2083 1.349 . S
C2068 C2066 1.327 . S
C2068 C2087 1.429 . S
C2068 H2092 0.950 . S
C2069 C2086 1.574 . S
C2069 C2088 1.368 . S
C2069 H2093 0.949 . S
H2070 C2074 0.949 . S
C2071 C2072 1.349 . S
C2071 C2073 1.327 . S
C2071 H2094 0.950 . S
C2072 C2071 1.349 . S
C2072 C2084 1.349 . S
C2073 C2071 1.327 . S
C2073 C2089 1.429 . S
C2073 H2095 0.950 . S
C2074 H2070 0.949 . S
C2074 C2082 1.574 . S
C2074 C2090 1.368 . S
H2075 C2083 0.950 . S
H2076 C2081 0.950 . S
H2077 C2082 0.949 . S
H2078 C2084 0.950 . S
H2079 C2085 0.950 . S
H2080 C2086 0.949 . S
C2081 H2076 0.950 . S
C2081 C2083 1.327 . S
C2081 C2087 1.429 . S
C2082 C2074 1.574 . S
C2082 H2077 0.949 . S
C2082 C2088 1.368 . S
C2083 C2067 1.349 . S
C2083 H2075 0.950 . S
C2083 C2081 1.327 . S
C2084 C2072 1.349 . S
C2084 H2078 0.950 . S
C2084 C2085 1.327 . S
C2085 H2079 0.950 . S
C2085 C2084 1.327 . S
C2085 C2089 1.429 . S
C2086 C2069 1.574 . S
C2086 H2080 0.949 . S
C2086 C2090 1.368 . S
C2087 C2068 1.429 . S
C2087 C2081 1.429 . S
C2087 C2088 1.523 . S
C2088 C2069 1.368 . S
C2088 C2082 1.368 . S
C2088 C2087 1.523 . S
C2089 C2073 1.429 . S
C2089 C2085 1.429 . S
C2089 C2090 1.523 . S
C2090 C2074 1.368 . S
C2090 C2086 1.368 . S
C2090 C2089 1.523 . S
H2091 C2066 0.950 . S
H2092 C2068 0.950 . S
H2093 C2069 0.949 . S
H2094 C2071 0.950 . S
H2095 C2073 0.950 . S
C2096 C2097 1.349 . S
C2096 C2098 1.327 . S
C2096 H2121 0.950 . S
C2097 C2096 1.349 . S
C2097 C2113 1.349 . S
C2098 C2096 1.327 . S
C2098 C2117 1.429 . S
C2098 H2122 0.950 . S
C2099 C2116 1.574 . S
C2099 C2118 1.368 . S
C2099 H2123 0.949 . S
H2100 C2104 0.949 . S
C2101 C2102 1.349 . S
C2101 C2103 1.327 . S
C2101 H2124 0.950 . S
C2102 C2101 1.349 . S
C2102 C2114 1.349 . S
C2103 C2101 1.327 . S
C2103 C2119 1.429 . S
C2103 H2125 0.950 . S
C2104 H2100 0.949 . S
C2104 C2112 1.574 . S
C2104 C2120 1.368 . S
H2105 C2113 0.950 . S
H2106 C2111 0.950 . S
H2107 C2112 0.949 . S
H2108 C2114 0.950 . S
H2109 C2115 0.950 . S
H2110 C2116 0.949 . S
C2111 H2106 0.950 . S
C2111 C2113 1.327 . S
C2111 C2117 1.429 . S
C2112 C2104 1.574 . S
C2112 H2107 0.949 . S
C2112 C2118 1.368 . S
C2113 C2097 1.349 . S
C2113 H2105 0.950 . S
C2113 C2111 1.327 . S
C2114 C2102 1.349 . S
C2114 H2108 0.950 . S
C2114 C2115 1.327 . S
C2115 H2109 0.950 . S
C2115 C2114 1.327 . S
C2115 C2119 1.429 . S
C2116 C2099 1.574 . S
C2116 H2110 0.949 . S
C2116 C2120 1.368 . S
C2117 C2098 1.429 . S
C2117 C2111 1.429 . S
C2117 C2118 1.523 . S
C2118 C2099 1.368 . S
C2118 C2112 1.368 . S
C2118 C2117 1.523 . S
C2119 C2103 1.429 . S
C2119 C2115 1.429 . S
C2119 C2120 1.523 . S
C2120 C2104 1.368 . S
C2120 C2116 1.368 . S
C2120 C2119 1.523 . S
H2121 C2096 0.950 . S
H2122 C2098 0.950 . S
H2123 C2099 0.949 . S
H2124 C2101 0.950 . S
H2125 C2103 0.950 . S
C2126 C2127 1.349 . S
C2126 C2128 1.327 . S
C2126 H2151 0.950 . S
C2127 C2126 1.349 . S
C2127 C2143 1.349 . S
C2128 C2126 1.327 . S
C2128 C2147 1.429 . S
C2128 H2152 0.950 . S
C2129 C2146 1.574 . S
C2129 C2148 1.368 . S
C2129 H2153 0.949 . S
H2130 C2134 0.949 . S
C2131 C2132 1.349 . S
C2131 C2133 1.327 . S
C2131 H2154 0.950 . S
C2132 C2131 1.349 . S
C2132 C2144 1.349 . S
C2133 C2131 1.327 . S
C2133 C2149 1.429 . S
C2133 H2155 0.950 . S
C2134 H2130 0.949 . S
C2134 C2142 1.574 . S
C2134 C2150 1.368 . S
H2135 C2143 0.950 . S
H2136 C2141 0.950 . S
H2137 C2142 0.949 . S
H2138 C2144 0.950 . S
H2139 C2145 0.950 . S
H2140 C2146 0.949 . S
C2141 H2136 0.950 . S
C2141 C2143 1.327 . S
C2141 C2147 1.429 . S
C2142 C2134 1.574 . S
C2142 H2137 0.949 . S
C2142 C2148 1.368 . S
C2143 C2127 1.349 . S
C2143 H2135 0.950 . S
C2143 C2141 1.327 . S
C2144 C2132 1.349 . S
C2144 H2138 0.950 . S
C2144 C2145 1.327 . S
C2145 H2139 0.950 . S
C2145 C2144 1.327 . S
C2145 C2149 1.429 . S
C2146 C2129 1.574 . S
C2146 H2140 0.949 . S
C2146 C2150 1.368 . S
C2147 C2128 1.429 . S
C2147 C2141 1.429 . S
C2147 C2148 1.523 . S
C2148 C2129 1.368 . S
C2148 C2142 1.368 . S
C2148 C2147 1.523 . S
C2149 C2133 1.429 . S
C2149 C2145 1.429 . S
C2149 C2150 1.523 . S
C2150 C2134 1.368 . S
C2150 C2146 1.368 . S
C2150 C2149 1.523 . S
H2151 C2126 0.950 . S
H2152 C2128 0.950 . S
H2153 C2129 0.949 . S
H2154 C2131 0.950 . S
H2155 C2133 0.950 . S
C2156 C2157 1.349 . S
C2156 C2158 1.327 . S
C2156 H2181 0.950 . S
C2157 C2156 1.349 . S
C2157 C2173 1.349 . S
C2158 C2156 1.327 . S
C2158 C2177 1.429 . S
C2158 H2182 0.950 . S
C2159 C2176 1.574 . S
C2159 C2178 1.368 . S
C2159 H2183 0.949 . S
H2160 C2164 0.949 . S
C2161 C2162 1.349 . S
C2161 C2163 1.327 . S
C2161 H2184 0.950 . S
C2162 C2161 1.349 . S
C2162 C2174 1.349 . S
C2163 C2161 1.327 . S
C2163 C2179 1.429 . S
C2163 H2185 0.950 . S
C2164 H2160 0.949 . S
C2164 C2172 1.574 . S
C2164 C2180 1.368 . S
H2165 C2173 0.950 . S
H2166 C2171 0.950 . S
H2167 C2172 0.949 . S
H2168 C2174 0.950 . S
H2169 C2175 0.950 . S
H2170 C2176 0.949 . S
C2171 H2166 0.950 . S
C2171 C2173 1.327 . S
C2171 C2177 1.429 . S
C2172 C2164 1.574 . S
C2172 H2167 0.949 . S
C2172 C2178 1.368 . S
C2173 C2157 1.349 . S
C2173 H2165 0.950 . S
C2173 C2171 1.327 . S
C2174 C2162 1.349 . S
C2174 H2168 0.950 . S
C2174 C2175 1.327 . S
C2175 H2169 0.950 . S
C2175 C2174 1.327 . S
C2175 C2179 1.429 . S
C2176 C2159 1.574 . S
C2176 H2170 0.949 . S
C2176 C2180 1.368 . S
C2177 C2158 1.429 . S
C2177 C2171 1.429 . S
C2177 C2178 1.523 . S
C2178 C2159 1.368 . S
C2178 C2172 1.368 . S
C2178 C2177 1.523 . S
C2179 C2163 1.429 . S
C2179 C2175 1.429 . S
C2179 C2180 1.523 . S
C2180 C2164 1.368 . S
C2180 C2176 1.368 . S
C2180 C2179 1.523 . S
H2181 C2156 0.950 . S
H2182 C2158 0.950 . S
H2183 C2159 0.949 . S
H2184 C2161 0.950 . S
H2185 C2163 0.950 . S
C2186 C2187 1.349 . S
C2186 C2188 1.327 . S
C2186 H2211 0.950 . S
C2187 C2186 1.349 . S
C2187 C2203 1.349 . S
C2188 C2186 1.327 . S
C2188 C2207 1.429 . S
C2188 H2212 0.950 . S
C2189 C2206 1.574 . S
C2189 C2208 1.368 . S
C2189 H2213 0.949 . S
H2190 C2194 0.949 . S
C2191 C2192 1.349 . S
C2191 C2193 1.327 . S
C2191 H2214 0.950 . S
C2192 C2191 1.349 . S
C2192 C2204 1.349 . S
C2193 C2191 1.327 . S
C2193 C2209 1.429 . S
C2193 H2215 0.950 . S
C2194 H2190 0.949 . S
C2194 C2202 1.574 . S
C2194 C2210 1.368 . S
H2195 C2203 0.950 . S
H2196 C2201 0.950 . S
H2197 C2202 0.949 . S
H2198 C2204 0.950 . S
H2199 C2205 0.950 . S
H2200 C2206 0.949 . S
C2201 H2196 0.950 . S
C2201 C2203 1.327 . S
C2201 C2207 1.429 . S
C2202 C2194 1.574 . S
C2202 H2197 0.949 . S
C2202 C2208 1.368 . S
C2203 C2187 1.349 . S
C2203 H2195 0.950 . S
C2203 C2201 1.327 . S
C2204 C2192 1.349 . S
C2204 H2198 0.950 . S
C2204 C2205 1.327 . S
C2205 H2199 0.950 . S
C2205 C2204 1.327 . S
C2205 C2209 1.429 . S
C2206 C2189 1.574 . S
C2206 H2200 0.949 . S
C2206 C2210 1.368 . S
C2207 C2188 1.429 . S
C2207 C2201 1.429 . S
C2207 C2208 1.523 . S
C2208 C2189 1.368 . S
C2208 C2202 1.368 . S
C2208 C2207 1.523 . S
C2209 C2193 1.429 . S
C2209 C2205 1.429 . S
C2209 C2210 1.523 . S
C2210 C2194 1.368 . S
C2210 C2206 1.368 . S
C2210 C2209 1.523 . S
H2211 C2186 0.950 . S
H2212 C2188 0.950 . S
H2213 C2189 0.949 . S
H2214 C2191 0.950 . S
H2215 C2193 0.950 . S
C2216 C2217 1.349 . S
C2216 C2218 1.327 . S
C2216 H2241 0.950 . S
C2217 C2216 1.349 . S
C2217 C2233 1.349 . S
C2218 C2216 1.327 . S
C2218 C2237 1.429 . S
C2218 H2242 0.950 . S
C2219 C2236 1.574 . S
C2219 C2238 1.368 . S
C2219 H2243 0.949 . S
H2220 C2224 0.949 . S
C2221 C2222 1.349 . S
C2221 C2223 1.327 . S
C2221 H2244 0.950 . S
C2222 C2221 1.349 . S
C2222 C2234 1.349 . S
C2223 C2221 1.327 . S
C2223 C2239 1.429 . S
C2223 H2245 0.950 . S
C2224 H2220 0.949 . S
C2224 C2232 1.574 . S
C2224 C2240 1.368 . S
H2225 C2233 0.950 . S
H2226 C2231 0.950 . S
H2227 C2232 0.949 . S
H2228 C2234 0.950 . S
H2229 C2235 0.950 . S
H2230 C2236 0.949 . S
C2231 H2226 0.950 . S
C2231 C2233 1.327 . S
C2231 C2237 1.429 . S
C2232 C2224 1.574 . S
C2232 H2227 0.949 . S
C2232 C2238 1.368 . S
C2233 C2217 1.349 . S
C2233 H2225 0.950 . S
C2233 C2231 1.327 . S
C2234 C2222 1.349 . S
C2234 H2228 0.950 . S
C2234 C2235 1.327 . S
C2235 H2229 0.950 . S
C2235 C2234 1.327 . S
C2235 C2239 1.429 . S
C2236 C2219 1.574 . S
C2236 H2230 0.949 . S
C2236 C2240 1.368 . S
C2237 C2218 1.429 . S
C2237 C2231 1.429 . S
C2237 C2238 1.523 . S
C2238 C2219 1.368 . S
C2238 C2232 1.368 . S
C2238 C2237 1.523 . S
C2239 C2223 1.429 . S
C2239 C2235 1.429 . S
C2239 C2240 1.523 . S
C2240 C2224 1.368 . S
C2240 C2236 1.368 . S
C2240 C2239 1.523 . S
H2241 C2216 0.950 . S
H2242 C2218 0.950 . S
H2243 C2219 0.949 . S
H2244 C2221 0.950 . S
H2245 C2223 0.950 . S
C2246 C2247 1.349 . S
C2246 C2248 1.327 . S
C2246 H2271 0.950 . S
C2247 C2246 1.349 . S
C2247 C2263 1.349 . S
C2248 C2246 1.327 . S
C2248 C2267 1.429 . S
C2248 H2272 0.950 . S
C2249 C2266 1.574 . S
C2249 C2268 1.368 . S
C2249 H2273 0.949 . S
H2250 C2254 0.949 . S
C2251 C2252 1.349 . S
C2251 C2253 1.327 . S
C2251 H2274 0.950 . S
C2252 C2251 1.349 . S
C2252 C2264 1.349 . S
C2253 C2251 1.327 . S
C2253 C2269 1.429 . S
C2253 H2275 0.950 . S
C2254 H2250 0.949 . S
C2254 C2262 1.574 . S
C2254 C2270 1.368 . S
H2255 C2263 0.950 . S
H2256 C2261 0.950 . S
H2257 C2262 0.949 . S
H2258 C2264 0.950 . S
H2259 C2265 0.950 . S
H2260 C2266 0.949 . S
C2261 H2256 0.950 . S
C2261 C2263 1.327 . S
C2261 C2267 1.429 . S
C2262 C2254 1.574 . S
C2262 H2257 0.949 . S
C2262 C2268 1.368 . S
C2263 C2247 1.349 . S
C2263 H2255 0.950 . S
C2263 C2261 1.327 . S
C2264 C2252 1.349 . S
C2264 H2258 0.950 . S
C2264 C2265 1.327 . S
C2265 H2259 0.950 . S
C2265 C2264 1.327 . S
C2265 C2269 1.429 . S
C2266 C2249 1.574 . S
C2266 H2260 0.949 . S
C2266 C2270 1.368 . S
C2267 C2248 1.429 . S
C2267 C2261 1.429 . S
C2267 C2268 1.523 . S
C2268 C2249 1.368 . S
C2268 C2262 1.368 . S
C2268 C2267 1.523 . S
C2269 C2253 1.429 . S
C2269 C2265 1.429 . S
C2269 C2270 1.523 . S
C2270 C2254 1.368 . S
C2270 C2266 1.368 . S
C2270 C2269 1.523 . S
H2271 C2246 0.950 . S
H2272 C2248 0.950 . S
H2273 C2249 0.949 . S
H2274 C2251 0.950 . S
H2275 C2253 0.950 . S
C2276 C2277 1.349 . S
C2276 C2278 1.327 . S
C2276 H2301 0.950 . S
C2277 C2276 1.349 . S
C2277 C2293 1.349 . S
C2278 C2276 1.327 . S
C2278 C2297 1.429 . S
C2278 H2302 0.950 . S
C2279 C2296 1.574 . S
C2279 C2298 1.368 . S
C2279 H2303 0.949 . S
H2280 C2284 0.949 . S
C2281 C2282 1.349 . S
C2281 C2283 1.327 . S
C2281 H2304 0.950 . S
C2282 C2281 1.349 . S
C2282 C2294 1.349 . S
C2283 C2281 1.327 . S
C2283 C2299 1.429 . S
C2283 H2305 0.950 . S
C2284 H2280 0.949 . S
C2284 C2292 1.574 . S
C2284 C2300 1.368 . S
H2285 C2293 0.950 . S
H2286 C2291 0.950 . S
H2287 C2292 0.949 . S
H2288 C2294 0.950 . S
H2289 C2295 0.950 . S
H2290 C2296 0.949 . S
C2291 H2286 0.950 . S
C2291 C2293 1.327 . S
C2291 C2297 1.429 . S
C2292 C2284 1.574 . S
C2292 H2287 0.949 . S
C2292 C2298 1.368 . S
C2293 C2277 1.349 . S
C2293 H2285 0.950 . S
C2293 C2291 1.327 . S
C2294 C2282 1.349 . S
C2294 H2288 0.950 . S
C2294 C2295 1.327 . S
C2295 H2289 0.950 . S
C2295 C2294 1.327 . S
C2295 C2299 1.429 . S
C2296 C2279 1.574 . S
C2296 H2290 0.949 . S
C2296 C2300 1.368 . S
C2297 C2278 1.429 . S
C2297 C2291 1.429 . S
C2297 C2298 1.523 . S
C2298 C2279 1.368 . S
C2298 C2292 1.368 . S
C2298 C2297 1.523 . S
C2299 C2283 1.429 . S
C2299 C2295 1.429 . S
C2299 C2300 1.523 . S
C2300 C2284 1.368 . S
C2300 C2296 1.368 . S
C2300 C2299 1.523 . S
H2301 C2276 0.950 . S
H2302 C2278 0.950 . S
H2303 C2279 0.949 . S
H2304 C2281 0.950 . S
H2305 C2283 0.950 . S
C2306 C2307 1.349 . S
C2306 C2308 1.327 . S
C2306 H2331 0.950 . S
C2307 C2306 1.349 . S
C2307 C2323 1.349 . S
C2308 C2306 1.327 . S
C2308 C2327 1.429 . S
C2308 H2332 0.950 . S
C2309 C2326 1.574 . S
C2309 C2328 1.368 . S
C2309 H2333 0.949 . S
H2310 C2314 0.949 . S
C2311 C2312 1.349 . S
C2311 C2313 1.327 . S
C2311 H2334 0.950 . S
C2312 C2311 1.349 . S
C2312 C2324 1.349 . S
C2313 C2311 1.327 . S
C2313 C2329 1.429 . S
C2313 H2335 0.950 . S
C2314 H2310 0.949 . S
C2314 C2322 1.574 . S
C2314 C2330 1.368 . S
H2315 C2323 0.950 . S
H2316 C2321 0.950 . S
H2317 C2322 0.949 . S
H2318 C2324 0.950 . S
H2319 C2325 0.950 . S
H2320 C2326 0.949 . S
C2321 H2316 0.950 . S
C2321 C2323 1.327 . S
C2321 C2327 1.429 . S
C2322 C2314 1.574 . S
C2322 H2317 0.949 . S
C2322 C2328 1.368 . S
C2323 C2307 1.349 . S
C2323 H2315 0.950 . S
C2323 C2321 1.327 . S
C2324 C2312 1.349 . S
C2324 H2318 0.950 . S
C2324 C2325 1.327 . S
C2325 H2319 0.950 . S
C2325 C2324 1.327 . S
C2325 C2329 1.429 . S
C2326 C2309 1.574 . S
C2326 H2320 0.949 . S
C2326 C2330 1.368 . S
C2327 C2308 1.429 . S
C2327 C2321 1.429 . S
C2327 C2328 1.523 . S
C2328 C2309 1.368 . S
C2328 C2322 1.368 . S
C2328 C2327 1.523 . S
C2329 C2313 1.429 . S
C2329 C2325 1.429 . S
C2329 C2330 1.523 . S
C2330 C2314 1.368 . S
C2330 C2326 1.368 . S
C2330 C2329 1.523 . S
H2331 C2306 0.950 . S
H2332 C2308 0.950 . S
H2333 C2309 0.949 . S
H2334 C2311 0.950 . S
H2335 C2313 0.950 . S
C417 C3 1.498 . S
C422 C29 1.498 . S
C447 C42 1.500 . S
C452 C16 1.500 . S
C477 C83 1.498 . S
C482 C57 1.498 . S
C507 C96 1.500 . S
C512 C70 1.500 . S
C537 C107 1.500 . S
C542 C133 1.500 . S
C567 C146 1.498 . S
C572 C120 1.498 . S
C597 C161 1.500 . S
C602 C187 1.500 . S
C627 C200 1.499 . S
C632 C174 1.499 . S
C657 C211 1.499 . S
C662 C237 1.499 . S
C687 C224 1.498 . S
C692 C250 1.498 . S
C717 C291 1.499 . S
C722 C265 1.499 . S
C747 C278 1.498 . S
C752 C304 1.498 . S
C777 C341 1.499 . S
C782 C315 1.499 . S
C807 C354 1.500 . S
C812 C328 1.500 . S
C837 C395 1.499 . S
C842 C369 1.499 . S
C867 C382 1.500 . S
C872 C408 1.500 . S
C897 C330 1.518 . S
C902 C5 1.518 . S
C927 C18 1.518 . S
C932 C317 1.518 . S
C957 C31 1.517 . S
C962 C356 1.517 . S
C987 C44 1.517 . S
C992 C343 1.517 . S
C1017 C380 1.518 . S
C1022 C55 1.518 . S
C1047 C68 1.518 . S
C1052 C367 1.518 . S
C1077 C81 1.517 . S
C1082 C406 1.517 . S
C1107 C393 1.517 . S
C1112 C94 1.517 . S
C1137 C109 1.517 . S
C1142 C226 1.517 . S
C1167 C122 1.518 . S
C1172 C213 1.517 1_565 S
C1197 C135 1.519 . S
C1202 C252 1.519 . S
C1227 C148 1.517 . S
C1232 C239 1.518 . S
C1257 C159 1.517 . S
C1262 C276 1.517 . S
C1287 C263 1.517 1_545 S
C1292 C172 1.518 . S
C1317 C302 1.519 . S
C1322 C185 1.519 . S
C1347 C198 1.517 . S
C1352 C289 1.518 . S
C1377 C1 1.502 . S
C1382 C62 1.502 . S
C1407 C14 1.503 . S
C1412 C387 1.503 . S
C1437 C27 1.502 . S
C1442 C192 1.502 . S
C1467 C40 1.503 . S
C1472 C309 1.503 . S
C1497 C75 1.503 . S
C1502 C326 1.503 . S
C1527 C131 1.502 . S
C1532 C88 1.502 . S
C1557 C248 1.503 . S
C1562 C101 1.503 . S
C1587 C166 1.503 . S
C1592 C105 1.503 . S
C1617 C118 1.502 . S
C1622 C283 1.502 . S
C1647 C413 1.502 . S
C1652 C144 1.502 . S
C1677 C179 1.502 . S
C1682 C222 1.502 . S
C1707 C205 1.501 . S
C1712 C352 1.501 . S
C1737 C270 1.501 . S
C1742 C209 1.501 . S
C1767 C235 1.501 . S
C1772 C400 1.501 . S
C1797 C339 1.501 . S
C1802 C296 1.501 . S
C1827 C374 1.501 . S
C1832 C313 1.501 . S
C1857 C10 1.536 . S
C1862 C23 1.536 . S
C1887 C36 1.535 . S
C1892 C49 1.535 . S
C1917 C53 1.536 . S
C1922 C66 1.536 . S
C1947 C79 1.535 . S
C1952 C92 1.535 . S
C1977 C127 1.535 . S
C1982 C114 1.535 . S
C2007 C140 1.537 . S
C2012 C153 1.537 . S
C2037 C157 1.535 . S
C2042 C170 1.535 . S
C2067 C183 1.537 . S
C2072 C196 1.537 . S
C2097 C218 1.537 . S
C2102 C231 1.537 . S
C2127 C257 1.536 . S
C2132 C244 1.536 . S
C2157 C261 1.537 . S
C2162 C274 1.537 . S
C2187 C287 1.536 . S
C2192 C300 1.536 . S
C2217 C335 1.536 . S
C2222 C322 1.536 . S
C2247 C348 1.536 . S
C2252 C361 1.536 . S
C2277 C378 1.536 . S
C2282 C365 1.536 . S
C2307 C391 1.536 . S
C2312 C404 1.536 . S
