# Generated by pormake.
# Topology wme, (6)-cn, num edge types: 1
# Building blocks:
#     Node 0, Type 0, BuildingBlock: NUHQIS_clean_sbu_0, # of connection points: 6
#     Node 1, Type 0, BuildingBlock: NUHQIS_clean_sbu_0, # of connection points: 6
#     Node 2, Type 0, BuildingBlock: NUHQIS_clean_sbu_0, # of connection points: 6
#     Node 3, Type 0, BuildingBlock: NUHQIS_clean_sbu_0, # of connection points: 6
#     Node 4, Type 0, BuildingBlock: NUHQIS_clean_sbu_0, # of connection points: 6
#     Node 5, Type 0, BuildingBlock: NUHQIS_clean_sbu_0, # of connection points: 6
#     Node 6, Type 0, BuildingBlock: NUHQIS_clean_sbu_0, # of connection points: 6
#     Node 7, Type 0, BuildingBlock: NUHQIS_clean_sbu_0, # of connection points: 6
#     Node 8, Type 0, BuildingBlock: NUHQIS_clean_sbu_0, # of connection points: 6
#     Node 9, Type 0, BuildingBlock: NUHQIS_clean_sbu_0, # of connection points: 6
#     Node 10, Type 0, BuildingBlock: NUHQIS_clean_sbu_0, # of connection points: 6
#     Node 11, Type 0, BuildingBlock: NUHQIS_clean_sbu_0, # of connection points: 6
#     Edge 12, Type (0, 0), BuildingBlock: EZIPEK_clean_linker_0, # of connection points: 2
#     Edge 13, Type (0, 0), BuildingBlock: EZIPEK_clean_linker_0, # of connection points: 2
#     Edge 14, Type (0, 0), BuildingBlock: EZIPEK_clean_linker_0, # of connection points: 2
#     Edge 15, Type (0, 0), BuildingBlock: EZIPEK_clean_linker_0, # of connection points: 2
#     Edge 16, Type (0, 0), BuildingBlock: EZIPEK_clean_linker_0, # of connection points: 2
#     Edge 17, Type (0, 0), BuildingBlock: EZIPEK_clean_linker_0, # of connection points: 2
#     Edge 18, Type (0, 0), BuildingBlock: EZIPEK_clean_linker_0, # of connection points: 2
#     Edge 19, Type (0, 0), BuildingBlock: EZIPEK_clean_linker_0, # of connection points: 2
#     Edge 20, Type (0, 0), BuildingBlock: EZIPEK_clean_linker_0, # of connection points: 2
#     Edge 21, Type (0, 0), BuildingBlock: EZIPEK_clean_linker_0, # of connection points: 2
#     Edge 22, Type (0, 0), BuildingBlock: EZIPEK_clean_linker_0, # of connection points: 2
#     Edge 23, Type (0, 0), BuildingBlock: EZIPEK_clean_linker_0, # of connection points: 2
#     Edge 24, Type (0, 0), BuildingBlock: EZIPEK_clean_linker_0, # of connection points: 2
#     Edge 25, Type (0, 0), BuildingBlock: EZIPEK_clean_linker_0, # of connection points: 2
#     Edge 26, Type (0, 0), BuildingBlock: EZIPEK_clean_linker_0, # of connection points: 2
#     Edge 27, Type (0, 0), BuildingBlock: EZIPEK_clean_linker_0, # of connection points: 2
#     Edge 28, Type (0, 0), BuildingBlock: EZIPEK_clean_linker_0, # of connection points: 2
#     Edge 29, Type (0, 0), BuildingBlock: EZIPEK_clean_linker_0, # of connection points: 2
#     Edge 30, Type (0, 0), BuildingBlock: EZIPEK_clean_linker_0, # of connection points: 2
#     Edge 31, Type (0, 0), BuildingBlock: EZIPEK_clean_linker_0, # of connection points: 2
#     Edge 32, Type (0, 0), BuildingBlock: EZIPEK_clean_linker_0, # of connection points: 2
#     Edge 33, Type (0, 0), BuildingBlock: EZIPEK_clean_linker_0, # of connection points: 2
#     Edge 34, Type (0, 0), BuildingBlock: EZIPEK_clean_linker_0, # of connection points: 2
#     Edge 35, Type (0, 0), BuildingBlock: EZIPEK_clean_linker_0, # of connection points: 2
#     Edge 36, Type (0, 0), BuildingBlock: EZIPEK_clean_linker_0, # of connection points: 2
#     Edge 37, Type (0, 0), BuildingBlock: EZIPEK_clean_linker_0, # of connection points: 2
#     Edge 38, Type (0, 0), BuildingBlock: EZIPEK_clean_linker_0, # of connection points: 2
#     Edge 39, Type (0, 0), BuildingBlock: EZIPEK_clean_linker_0, # of connection points: 2
#     Edge 40, Type (0, 0), BuildingBlock: EZIPEK_clean_linker_0, # of connection points: 2
#     Edge 41, Type (0, 0), BuildingBlock: EZIPEK_clean_linker_0, # of connection points: 2
#     Edge 42, Type (0, 0), BuildingBlock: EZIPEK_clean_linker_0, # of connection points: 2
#     Edge 43, Type (0, 0), BuildingBlock: EZIPEK_clean_linker_0, # of connection points: 2
#     Edge 44, Type (0, 0), BuildingBlock: EZIPEK_clean_linker_0, # of connection points: 2
#     Edge 45, Type (0, 0), BuildingBlock: EZIPEK_clean_linker_0, # of connection points: 2
#     Edge 46, Type (0, 0), BuildingBlock: EZIPEK_clean_linker_0, # of connection points: 2
#     Edge 47, Type (0, 0), BuildingBlock: EZIPEK_clean_linker_0, # of connection points: 2
# Relax obj value: 0.096
# Max RMSD: 0.209
# Mean RMSD: 0.209
data_MOF--net-wme--node1-NUHQIS_clean_sbu_0--edge1-EZIPEK_clean_linker_0
_symmetry_space_group_name_H-M    P1
_symmetry_Int_Tables_number       1
_symmetry_cell_setting            triclinic
loop_
_symmetry_equiv_pos_as_xyz
'x, y, z'
_cell_length_a     31.611057
_cell_length_b     31.683615
_cell_length_c     38.505863
_cell_angle_alpha  90.185587
_cell_angle_beta   89.726386
_cell_angle_gamma 119.77244
loop_
_atom_site_label
_atom_site_type_symbol
_atom_site_fract_x
_atom_site_fract_y
_atom_site_fract_z
_atom_type_partial_charge
Tb0 Tb 0.24983 0.40191 0.08823 0.0
Eu1 Eu 0.28845 0.33502 0.12906 0.0
C2 C 0.27995 0.3339 0.0475 0.0
C3 C 0.17625 0.29447 0.10827 0.0
C4 C 0.21008 0.49301 0.06846 0.0
C5 C 0.16371 0.53469 0.0605 0.0
C6 C 0.17245 0.49657 0.05232 0.0
C7 C 0.23598 0.52568 0.09513 0.0
C8 C 0.22729 0.56391 0.10315 0.0
C9 C 0.19462 0.57269 0.08333 0.0
C10 C 0.2192 0.45309 0.05872 0.0
O11 O 0.23144 0.40141 0.14328 0.0
O12 O 0.28697 0.38484 0.16965 0.0
O13 O 0.35532 0.40561 0.11315 0.0
O14 O 0.3197 0.45359 0.11051 0.0
C15 C 0.25422 0.3987 0.1711 0.0
O16 O 0.28625 0.28921 0.172 0.0
O17 O 0.33422 0.30121 0.12819 0.0
O18 O 0.26811 0.30657 0.07519 0.0
O19 O 0.28394 0.3773 0.04916 0.0
O20 O 0.19129 0.32689 0.0833 0.0
O21 O 0.20624 0.29503 0.13202 0.0
C22 C 0.35842 0.44858 0.11192 0.0
O23 O 0.26437 0.46271 0.05761 0.0
O24 O 0.19124 0.41159 0.0736 0.0
C25 C 0.29399 0.22243 0.15221 0.0
C26 C 0.25701 0.12207 0.14144 0.0
C27 C 0.30739 0.15369 0.14476 0.0
C28 C 0.32574 0.20353 0.15006 0.0
C29 C 0.24353 0.19068 0.14891 0.0
C30 C 0.22519 0.14089 0.14362 0.0
C31 C 0.31383 0.27538 0.15595 0.0
H32 H 0.13187 0.53291 0.04899 0.0
H33 H 0.14932 0.46945 0.0335 0.0
H34 H 0.26272 0.52149 0.10996 0.0
H35 H 0.24636 0.58599 0.12533 0.0
H36 H 0.33244 0.13972 0.14324 0.0
H37 H 0.36475 0.22739 0.15224 0.0
H38 H 0.2183 0.2044 0.15031 0.0
H39 H 0.18621 0.11701 0.14126 0.0
Tb40 Tb 0.88524 0.23511 0.59361 0.0
Eu41 Eu 0.9924 0.2705 0.63248 0.0
C42 C 0.98377 0.27276 0.55106 0.0
C43 C 0.91591 0.15972 0.61597 0.0
C44 C 0.75134 0.19033 0.57657 0.0
C45 C 0.67317 0.12721 0.59976 0.0
C46 C 0.72226 0.14378 0.59111 0.0
C47 C 0.73016 0.21965 0.57093 0.0
C48 C 0.68139 0.2032 0.57965 0.0
C49 C 0.65236 0.15683 0.59399 0.0
C50 C 0.80301 0.20896 0.5659 0.0
O51 O 0.8717 0.244 0.64813 0.0
O52 O 0.93882 0.24847 0.67569 0.0
O53 O 0.97771 0.3337 0.63802 0.0
O54 O 0.92652 0.31409 0.59091 0.0
C55 C 0.89543 0.24416 0.67625 0.0
O56 O 1.03471 0.25933 0.6723 0.0
O57 O 0.07206 0.31494 0.63347 0.0
O58 O 1.00837 0.29651 0.57828 0.0
O59 O 0.93674 0.24034 0.55249 0.0
O60 O 0.88123 0.17097 0.61744 0.0
O61 O 0.96172 0.19361 0.61216 0.0
C62 C 0.95352 0.34466 0.61524 0.0
O63 O 0.8339 0.25329 0.57518 0.0
O64 O 0.82181 0.18066 0.56893 0.0
C65 C 0.11016 0.27059 0.65144 0.0
C66 C 0.17482 0.23501 0.63859 0.0
C67 C 0.12437 0.20427 0.63502 0.0
C68 C 0.09228 0.22196 0.64122 0.0
C69 C 0.16065 0.30133 0.65477 0.0
C70 C 0.19278 0.2837 0.64835 0.0
C71 C 0.07659 0.28957 0.65827 0.0
H72 H 0.65141 0.09133 0.6109 0.0
H73 H 0.7373 0.12016 0.59571 0.0
H74 H 0.7514 0.25547 0.55956 0.0
H75 H 0.66615 0.22667 0.57504 0.0
H76 H 0.1099 0.16662 0.62749 0.0
H77 H 1.05349 0.19759 0.63816 0.0
H78 H 0.17522 0.33896 0.66241 0.0
H79 H 0.23161 0.3079 0.65124 0.0
Tb80 Tb 0.69156 0.86869 0.09552 0.0
Eu81 Eu 0.75776 0.97867 0.12993 0.0
C82 C 0.75523 0.9624 0.04961 0.0
C83 C 0.79875 0.90518 0.11634 0.0
C84 C 0.60309 0.73448 0.08152 0.0
C85 C 0.5725 0.64722 0.08361 0.0
C86 C 0.60986 0.69435 0.07618 0.0
C87 C 0.55851 0.72675 0.09532 0.0
C88 C 0.52094 0.67943 0.10264 0.0
C89 C 0.52754 0.63933 0.0964 0.0
C90 C 0.64262 0.78326 0.07122 0.0
O91 O 0.69243 0.8602 0.15229 0.0
O92 O 0.70487 0.93447 0.17112 0.0
O93 O 0.68524 0.97223 0.11503 0.0
O94 O 0.6381 0.8887 0.11179 0.0
C95 C 0.69243 0.88913 0.17707 0.0
O96 O 0.80747 1.02685 0.16975 0.0
O97 O 0.78954 0.05722 0.12558 0.0
O98 O 0.78401 0.981 0.07618 0.0
O99 O 0.71373 0.92112 0.05247 0.0
O100 O 0.76703 0.88587 0.09115 0.0
O101 O 0.79713 0.93624 0.13812 0.0
C102 C 0.64244 0.93219 0.11248 0.0
O103 O 0.63188 0.81752 0.06611 0.0
O104 O 0.68362 0.79945 0.08765 0.0
C105 C 0.87116 0.09736 0.14445 0.0
C106 C 0.97142 0.1564 0.13064 0.0
C107 C 0.95101 0.16253 0.16144 0.0
C108 C 0.90117 0.13317 0.1683 0.0
C109 C 0.89178 0.09061 0.11394 0.0
C110 C 0.9415 0.12011 0.10699 0.0
C111 C 0.81883 0.06595 0.15182 0.0
H112 H 0.57819 0.61675 0.07855 0.0
H113 H 0.6439 0.69941 0.0656 0.0
H114 H 0.55238 0.75705 0.09988 0.0
H115 H 0.4864 0.67395 0.11244 0.0
H116 H 0.97359 0.19056 0.17989 0.0
H117 H 0.88604 0.13855 0.1921 0.0
H118 H 0.86938 0.06274 0.09536 0.0
H119 H 0.95655 0.11505 0.08303 0.0
Tb120 Tb 0.85182 0.66404 0.59062 0.0
Eu121 Eu 0.81519 0.73605 0.63026 0.0
C122 C 0.81275 0.72361 0.54851 0.0
C123 C 0.92666 0.77147 0.61063 0.0
C124 C 0.89953 0.57818 0.57236 0.0
C125 C 0.92043 0.51594 0.55747 0.0
C126 C 0.90446 0.54825 0.54763 0.0
C127 C 0.91282 0.57678 0.60696 0.0
C128 C 0.92899 0.5445 0.61682 0.0
C129 C 0.93175 0.51293 0.59227 0.0
C130 C 0.87549 0.60619 0.56228 0.0
O131 O 0.85437 0.64997 0.64598 0.0
O132 O 0.83957 0.70684 0.67345 0.0
O133 O 0.75445 0.65773 0.63817 0.0
O134 O 0.77271 0.62791 0.58929 0.0
C135 C 0.85076 0.67219 0.6739 0.0
O136 O 0.82872 0.79239 0.66857 0.0
O137 O 0.76912 0.76968 0.6326 0.0
O138 O 0.78934 0.72542 0.5759 0.0
O139 O 0.84491 0.70852 0.54957 0.0
O140 O 0.91751 0.72636 0.60978 0.0
O141 O 0.89171 0.78244 0.60916 0.0
C142 C 0.74333 0.62274 0.61516 0.0
O143 O 0.83374 0.59286 0.57726 0.0
O144 O 0.90211 0.65344 0.56078 0.0
C145 C 0.81325 0.85342 0.6479 0.0
C146 C 0.84962 0.95358 0.63484 0.0
C147 C 0.81954 0.93089 0.66376 0.0
C148 C 0.80157 0.88128 0.67023 0.0
C149 C 0.84321 0.876 0.61888 0.0
C150 C 0.86122 0.92566 0.6124 0.0
C151 C 0.79605 0.80166 0.65594 0.0
H152 H 0.92205 0.49183 0.53816 0.0
H153 H 0.89409 0.54848 0.52088 0.0
H154 H 0.90896 0.59929 0.62654 0.0
H155 H 0.9373 0.5426 0.64383 0.0
H156 H 0.81021 0.9517 0.68143 0.0
H157 H 0.77887 0.86475 0.69288 0.0
H158 H 0.85301 0.85531 0.60143 0.0
H159 H 0.88442 0.94239 0.59001 0.0
Tb160 Tb 0.22282 0.84551 0.09762 0.0
Eu161 Eu 0.11558 0.80301 0.13838 0.0
C162 C 0.12373 0.80511 0.0572 0.0
C163 C 0.18671 0.91568 0.12249 0.0
C164 C 0.35485 0.89037 0.07869 0.0
C165 C 0.42956 0.8916 0.06092 0.0
C166 C 0.38249 0.88275 0.05338 0.0
C167 C 0.37504 0.90655 0.11191 0.0
C168 C 0.42224 0.91582 0.11934 0.0
C169 C 0.44996 0.90853 0.09389 0.0
C170 C 0.30637 0.88374 0.06957 0.0
O171 O 0.23922 0.84748 0.15309 0.0
O172 O 0.1644 0.80665 0.18073 0.0
O173 O 0.12523 0.73716 0.12639 0.0
O174 O 0.20787 0.77497 0.11447 0.0
C175 C 0.21214 0.82888 0.18119 0.0
O176 O 0.07145 0.81209 0.17841 0.0
O177 O 1.0368 0.75373 0.1413 0.0
O178 O 0.10838 0.82066 0.0832 0.0
O179 O 0.16527 0.80504 0.05932 0.0
O180 O 0.20291 0.90209 0.09579 0.0
O181 O 0.15789 0.88407 0.14548 0.0
C182 C 0.16566 0.73566 0.11954 0.0
O183 O 0.27162 0.83966 0.06282 0.0
O184 O 0.29072 0.9073 0.08858 0.0
C185 C 0.99585 0.79664 0.15661 0.0
C186 C 0.93454 0.83542 0.14205 0.0
C187 C 0.93581 0.81861 0.17555 0.0
C188 C 0.9663 0.79942 0.18278 0.0
C189 C 0.99467 0.81362 0.1231 0.0
C190 C 0.96407 0.83265 0.11585 0.0
C191 C 1.03035 0.77952 0.16494 0.0
H192 H 0.4503 0.88569 0.04093 0.0
H193 H 0.36787 0.87047 0.02759 0.0
H194 H 0.35464 0.91267 0.13204 0.0
H195 H 0.43726 0.92883 0.14493 0.0
H196 H 0.91307 0.82026 0.19605 0.0
H197 H 0.96712 0.78712 0.20886 0.0
H198 H 1.01766 0.8125 0.10259 0.0
H199 H 0.96337 0.84517 0.08983 0.0
Tb200 Tb 0.42061 0.19886 0.59623 0.0
Eu201 Eu 0.34726 0.09123 0.63363 0.0
C202 C 0.35604 0.10277 0.55169 0.0
C203 C 0.31482 0.1692 0.61822 0.0
C204 C 0.50708 0.33306 0.58126 0.0
C205 C 0.55873 0.41828 0.56544 0.0
C206 C 0.52537 0.37013 0.55621 0.0
C207 C 0.52107 0.34539 0.61611 0.0
C208 C 0.5543 0.39365 0.6254 0.0
C209 C 0.57442 0.43032 0.59996 0.0
C210 C 0.47774 0.28165 0.56994 0.0
O211 O 0.44206 0.2092 0.65102 0.0
O212 O 0.37533 0.14466 0.67697 0.0
O213 O 0.42515 0.10563 0.63857 0.0
O214 O 0.45397 0.15349 0.58986 0.0
C215 C 0.41581 0.18648 0.67862 0.0
O216 O 0.28992 0.04913 0.67138 0.0
O217 O 0.31462 1.01213 0.63662 0.0
O218 O 0.35248 0.07578 0.57822 0.0
O219 O 0.37436 0.15043 0.55406 0.0
O220 O 0.36064 0.20318 0.62056 0.0
O221 O 0.30249 0.12349 0.61349 0.0
C222 C 0.45899 0.12778 0.61452 0.0
O223 O 0.4914 0.25187 0.58183 0.0
O224 O 0.4304 0.26187 0.57026 0.0
C225 C 0.23035 0.97321 0.64979 0.0
C226 C 0.13116 0.9103 0.63399 0.0
C227 C 0.15298 0.90051 0.66223 0.0
C228 C 0.20218 0.93178 0.67009 0.0
C229 C 0.2087 0.98291 0.62137 0.0
C230 C 0.15945 0.95172 0.61357 0.0
C231 C 0.28152 1.0073 0.65913 0.0
H232 H 0.57395 0.4458 0.54537 0.0
H233 H 0.51535 0.36151 0.52917 0.0
H234 H 0.50787 0.31743 0.63586 0.0
H235 H 0.56612 0.40199 0.65214 0.0
H236 H 0.13174 0.86883 0.67834 0.0
H237 H 0.21811 0.92387 0.69223 0.0
H238 H 0.2298 1.01487 0.60548 0.0
H239 H 0.14331 0.96001 0.59175 0.0
Tb240 Tb 0.68407 0.83955 0.4035 0.0
Eu241 Eu 0.75078 0.80271 0.35952 0.0
C242 C 0.7502 0.80426 0.44007 0.0
C243 C 0.79008 0.91414 0.38119 0.0
C244 C 0.59352 0.87861 0.42494 0.0
C245 C 0.52873 0.89519 0.44123 0.0
C246 C 0.56533 0.88474 0.45056 0.0
C247 C 0.58487 0.8834 0.38979 0.0
C248 C 0.54841 0.89405 0.38045 0.0
C249 C 0.51989 0.89978 0.40611 0.0
C250 C 0.63264 0.86865 0.43517 0.0
O251 O 0.68261 0.85773 0.34861 0.0
O252 O 0.69943 0.80316 0.32046 0.0
O253 O 0.67879 0.73535 0.37382 0.0
O254 O 0.6317 0.77171 0.3796 0.0
C255 C 0.68472 0.8352 0.32022 0.0
O256 O 0.8015 0.81106 0.31772 0.0
O257 O 0.78184 0.75484 0.35647 0.0
O258 O 0.77917 0.82129 0.41334 0.0
O259 O 0.70715 0.80142 0.43994 0.0
O260 O 0.75934 0.89818 0.4074 0.0
O261 O 0.78814 0.8847 0.35636 0.0
C262 C 0.63591 0.73272 0.37696 0.0
O263 O 0.6224 0.82346 0.43426 0.0
O264 O 0.67522 0.89719 0.42168 0.0
C265 C 0.86402 0.79732 0.33787 0.0
C266 C 0.96406 0.83261 0.35001 0.0
C267 C 0.94404 0.81537 0.31697 0.0
C268 C 0.89435 0.7978 0.31097 0.0
C269 C 0.88424 0.81525 0.37078 0.0
C270 C 0.93378 0.83249 0.37684 0.0
C271 C 0.81182 0.77961 0.33135 0.0
H272 H 0.50699 0.89929 0.46137 0.0
H273 H 0.5716 0.8814 0.4778 0.0
H274 H 0.60634 0.87894 0.36961 0.0
H275 H 0.54201 0.89728 0.35323 0.0
H276 H 0.96685 0.81517 0.29595 0.0
H277 H 0.87961 0.7846 0.28534 0.0
H278 H 0.86172 0.81583 0.39186 0.0
H279 H 0.9485 0.84559 0.40248 0.0
Tb280 Tb 0.8954 0.67087 0.89616 0.0
Eu281 Eu 1.00405 0.73801 0.85879 0.0
C282 C 0.99212 0.73282 0.93942 0.0
C283 C 0.93122 0.77865 0.87662 0.0
C284 C 0.76178 0.58171 0.9143 0.0
C285 C 0.67477 0.53959 0.92702 0.0
C286 C 0.7222 0.57681 0.9341 0.0
C287 C 0.75303 0.5494 0.88659 0.0
C288 C 0.70539 0.51198 0.87948 0.0
C289 C 0.66595 0.50655 0.89991 0.0
C290 C 0.8114 0.62077 0.92341 0.0
O291 O 0.88348 0.67398 0.84023 0.0
O292 O 0.95625 0.685 0.81881 0.0
O293 O 0.99856 0.6662 0.87463 0.0
O294 O 0.91481 0.61882 0.87575 0.0
C295 C 0.91089 0.674 0.81426 0.0
O296 O 1.04872 0.78383 0.81605 0.0
O297 O 0.08363 0.7729 0.86044 0.0
O298 O 1.00839 0.76325 0.91342 0.0
O299 O 0.95165 0.69054 0.93645 0.0
O300 O 0.91288 0.74634 0.90167 0.0
O301 O 0.96134 0.77753 0.85357 0.0
C302 C 0.95844 0.62332 0.87623 0.0
O303 O 0.84583 0.60961 0.92518 0.0
O304 O 0.82657 0.66236 0.90814 0.0
C305 C 0.12143 0.85173 0.83646 0.0
C306 C 0.18174 0.95231 0.84787 0.0
C307 C 0.13252 0.93346 0.83929 0.0
C308 C 0.1025 0.88353 0.83382 0.0
C309 C 0.1708 0.8708 0.8448 0.0
C310 C 0.20074 0.92073 0.85054 0.0
C311 C 0.08953 0.7986 0.83266 0.0
H312 H 0.64498 0.53586 0.94322 0.0
H313 H 0.72808 0.60146 0.95547 0.0
H314 H 0.783 0.55268 0.87085 0.0
H315 H 0.69939 0.48664 0.8586 0.0
H316 H 0.1173 0.95735 0.83721 0.0
H317 H 0.06441 0.86983 0.82789 0.0
H318 H 0.18604 0.84697 0.84728 0.0
H319 H 0.23869 0.93478 0.85712 0.0
Tb320 Tb 0.23744 0.86156 0.4026 0.0
Eu321 Eu 0.28135 0.96747 0.36079 0.0
C322 C 0.27264 0.96113 0.44243 0.0
C323 C 0.16824 0.89666 0.37512 0.0
C324 C 0.1929 0.72943 0.42158 0.0
C325 C 0.15432 0.64267 0.43375 0.0
C326 C 0.16093 0.68882 0.44145 0.0
C327 C 0.21797 0.72311 0.3936 0.0
C328 C 0.21117 0.6768 0.38576 0.0
C329 C 0.17935 0.63622 0.40587 0.0
C330 C 0.19834 0.77751 0.42995 0.0
O331 O 0.23379 0.84694 0.3465 0.0
O332 O 0.29067 0.91976 0.32302 0.0
O333 O 0.34782 0.96003 0.37315 0.0
O334 O 0.31177 0.8799 0.39143 0.0
C335 C 0.2635 0.87239 0.32099 0.0
O336 O 0.27931 1.01104 0.31777 0.0
O337 O 0.32695 0.04666 0.36155 0.0
O338 O 0.26181 0.97721 0.41467 0.0
O339 O 0.26955 0.91805 0.44292 0.0
O340 O 0.18086 0.88167 0.40283 0.0
O341 O 0.20043 0.92293 0.35142 0.0
C342 C 0.35045 0.92135 0.38288 0.0
O343 O 0.24194 0.81262 0.43736 0.0
O344 O 0.17587 0.79241 0.40946 0.0
C345 C 0.2858 0.08483 0.33786 0.0
C346 C 0.24724 0.14723 0.3494 0.0
C347 C 0.2977 0.16633 0.34525 0.0
C348 C 0.31682 0.13534 0.33956 0.0
C349 C 0.23527 0.06577 0.34193 0.0
C350 C 0.21615 0.09672 0.34755 0.0
C351 C 0.30644 0.05218 0.33388 0.0
H352 H 0.12996 0.61197 0.44975 0.0
H353 H 0.14112 0.69283 0.46306 0.0
H354 H 0.24289 0.75398 0.37797 0.0
H355 H 0.23118 0.67269 0.36435 0.0
H356 H 0.32224 0.20522 0.34653 0.0
H357 H 0.35586 0.15078 0.33679 0.0
H358 H 0.21057 1.02691 0.34097 0.0
H359 H 0.17714 0.08131 0.35059 0.0
Tb360 Tb 0.42266 0.22657 0.90313 0.0
Eu361 Eu 0.35717 0.27233 0.86696 0.0
C362 C 0.35595 0.25525 0.94554 0.0
C363 C 0.31556 0.1569 0.87341 0.0
C364 C 0.50892 0.17923 0.91932 0.0
C365 C 0.57625 0.16613 0.93462 0.0
C366 C 0.54047 0.17784 0.94424 0.0
C367 C 0.51359 0.16843 0.88451 0.0
C368 C 0.54924 0.15647 0.87491 0.0
C369 C 0.58104 0.15544 0.89988 0.0
C370 C 0.47035 0.19011 0.93032 0.0
O371 O 0.43321 0.22287 0.84746 0.0
O372 O 0.39863 0.26518 0.82224 0.0
O373 O 0.43145 0.33568 0.88241 0.0
O374 O 0.47643 0.29656 0.8826 0.0
C375 C 0.42189 0.24036 0.82019 0.0
O376 O 0.31109 0.27945 0.82781 0.0
O377 O 0.32515 0.31854 0.87643 0.0
O378 O 0.32764 0.23941 0.91862 0.0
O379 O 0.39962 0.25991 0.94393 0.0
O380 O 0.34907 0.16484 0.89677 0.0
O381 O 0.31341 0.19214 0.85724 0.0
C382 C 0.47366 0.33652 0.88306 0.0
O383 O 0.4824 0.2357 0.93327 0.0
O384 O 0.42826 0.16503 0.91527 0.0
C385 C 0.24561 0.28477 0.85325 0.0
C386 C 0.14413 0.24654 0.86198 0.0
C387 C 0.16966 0.28051 0.83563 0.0
C388 C 0.22 0.29947 0.83131 0.0
C389 C 0.21999 0.25054 0.8795 0.0
C390 C 0.16972 0.23167 0.88386 0.0
C391 C 0.29862 0.30433 0.84834 0.0
H392 H 0.60056 0.16586 0.95424 0.0
H393 H 0.53741 0.1858 0.97122 0.0
H394 H 0.48965 0.16916 0.86477 0.0
H395 H 0.55252 0.14866 0.84793 0.0
H396 H 0.15057 0.29238 0.81845 0.0
H397 H 0.23892 0.32557 0.81081 0.0
H398 H 0.23888 0.23836 0.89661 0.0
H399 H 0.15073 0.20546 0.90429 0.0
Tb400 Tb 0.22083 0.39219 0.39551 0.0
Eu401 Eu 0.10916 0.33102 0.36369 0.0
C402 C 0.12709 0.33288 0.44236 0.0
C403 C 0.17906 0.28488 0.37319 0.0
C404 C 0.35561 0.47759 0.40845 0.0
C405 C 0.44336 0.52142 0.41713 0.0
C406 C 0.3972 0.48247 0.42506 0.0
C407 C 0.36091 0.51158 0.38298 0.0
C408 C 0.40726 0.55077 0.37506 0.0
C409 C 0.44874 0.5562 0.39239 0.0
C410 C 0.30746 0.43674 0.41827 0.0
O411 O 0.22704 0.39141 0.33851 0.0
O412 O 0.15305 0.38178 0.32134 0.0
O413 O 0.12153 0.4052 0.38149 0.0
O414 O 0.20547 0.44852 0.37892 0.0
C415 C 0.19786 0.39241 0.31444 0.0
O416 O 0.05686 0.28402 0.32461 0.0
O417 O 1.03118 0.30169 0.37177 0.0
O418 O 0.10959 0.303 0.41633 0.0
O419 O 0.16844 0.37421 0.43892 0.0
O420 O 0.20009 0.31574 0.39873 0.0
O421 O 0.14781 0.2883 0.35276 0.0
C422 C 0.16325 0.44686 0.38187 0.0
O423 O 0.27384 0.44712 0.4272 0.0
O424 O 0.29015 0.39857 0.39834 0.0
C425 C 0.98681 0.2209 0.35109 0.0
C426 C 0.92665 0.12022 0.36234 0.0
C427 C 0.91976 0.14258 0.33311 0.0
C428 C 0.94968 0.19258 0.32752 0.0
C429 C 0.99402 0.1984 0.38014 0.0
C430 C 0.964 0.14849 0.38581 0.0
C431 C 1.01941 0.27326 0.3446 0.0
H432 H 0.47482 0.52523 0.43099 0.0
H433 H 0.39388 0.45648 0.44463 0.0
H434 H 0.32925 0.50823 0.3697 0.0
H435 H 0.41065 0.5775 0.35613 0.0
H436 H 0.89096 0.12132 0.3148 0.0
H437 H 0.94387 0.20911 0.30479 0.0
H438 H 1.02285 0.21941 0.39848 0.0
H439 H 0.96969 0.13196 0.40859 0.0
Tb440 Tb 0.85806 0.20287 0.89927 0.0
Eu441 Eu 0.82664 0.09795 0.85848 0.0
C442 C 0.82147 0.10351 0.94011 0.0
C443 C 0.93628 0.17641 0.87661 0.0
C444 C 0.90142 0.33478 0.91984 0.0
C445 C 0.90446 0.41194 0.93094 0.0
C446 C 0.88896 0.36377 0.94026 0.0
C447 C 0.93052 0.3551 0.8901 0.0
C448 C 0.9463 0.40359 0.88081 0.0
C449 C 0.93277 0.43218 0.90095 0.0
C450 C 0.88079 0.28292 0.9291 0.0
O451 O 0.85052 0.21767 0.84482 0.0
O452 O 0.84684 0.15166 0.81588 0.0
O453 O 0.76215 0.11104 0.85343 0.0
O454 O 0.77925 0.15902 0.90215 0.0
C455 C 0.85049 0.19466 0.81617 0.0
O456 O 0.84484 0.05863 0.81999 0.0
O457 O 0.78216 1.01899 0.85338 0.0
O458 O 0.79971 0.079 0.91232 0.0
O459 O 0.85275 0.1508 0.93957 0.0
O460 O 0.92379 0.21009 0.87547 0.0
O461 O 0.90318 0.13033 0.87986 0.0
C462 C 0.74977 0.13346 0.87696 0.0
O463 O 0.83804 0.25355 0.91626 0.0
O464 O 0.90932 0.26415 0.92751 0.0
C465 C 0.82938 0.98197 0.83954 0.0
C466 C 0.86592 0.91883 0.85447 0.0
C467 C 0.84592 0.91782 0.82175 0.0
C468 C 0.82784 0.94918 0.81434 0.0
C469 C 0.84967 0.98328 0.87223 0.0
C470 C 0.86763 0.95178 0.87969 0.0
C471 C 0.81173 1.01598 0.83104 0.0
H472 H 0.89362 0.43326 0.94684 0.0
H473 H 0.86634 0.34878 0.96317 0.0
H474 H 0.94035 0.33333 0.87385 0.0
H475 H 0.96817 0.4185 0.85759 0.0
H476 H 0.84413 0.89256 0.802 0.0
H477 H 0.81275 0.9479 0.7889 0.0
H478 H 0.85167 1.00869 0.89195 0.0
H479 H 0.8827 0.95297 0.90512 0.0
C480 C 0.22463 0.99129 0.15958 0.0
C481 C 0.2029 0.96818 0.12759 0.0
C482 C 0.21961 0.04691 0.10381 0.0
C483 C 0.23749 0.06891 0.13667 0.0
N484 N 0.24785 0.06025 0.19774 0.0
N485 N 0.1706 0.97218 0.07181 0.0
C486 C 0.23721 0.04051 0.16513 0.0
C487 C 0.1979 0.99551 0.10035 0.0
N488 N 0.23566 0.96716 0.18409 0.0
N489 N 0.22457 0.07526 0.07569 0.0
H490 H 0.1528 0.9345 0.06884 0.0
H491 H 0.16158 0.98957 0.05274 0.0
H492 H 0.23997 0.11294 0.07725 0.0
H493 H 0.21717 0.06199 0.05035 0.0
H494 H 0.25664 0.98404 0.20597 0.0
H495 H 0.22801 0.9314 0.18117 0.0
H496 H 0.2429 0.03981 0.22008 0.0
H497 H 0.25737 0.09623 0.20291 0.0
C498 C 0.26513 0.20459 0.59465 0.0
C499 C 0.27643 0.18282 0.62262 0.0
C500 C 0.2217 0.19585 0.66113 0.0
C501 C 0.20896 0.21593 0.63283 0.0
N502 N 0.21244 0.23336 0.5717 0.0
N503 N 0.26103 0.15113 0.68095 0.0
C504 C 0.22891 0.21849 0.59926 0.0
C505 C 0.25323 0.17636 0.6554 0.0
N506 N 0.28978 0.21276 0.56388 0.0
N507 N 0.20473 0.19678 0.69371 0.0
H508 H 0.285 0.1377 0.67809 0.0
H509 H 0.24139 0.1404 0.7041 0.0
H510 H 0.1804 0.20931 0.69875 0.0
H511 H 0.21698 0.18815 0.71618 0.0
H512 H 0.28762 0.2334 0.54372 0.0
H513 H 0.3148 0.20101 0.55907 0.0
H514 H 0.22133 0.23119 0.54596 0.0
H515 H 0.18692 0.24494 0.5743 0.0
C516 C 1.03815 0.23939 0.11413 0.0
C517 C 1.02349 0.19044 0.12216 0.0
C518 C 0.10775 0.20792 0.11393 0.0
C519 C 0.12335 0.25825 0.11119 0.0
N520 N 0.10323 0.32257 0.11551 0.0
N521 N 1.04478 0.12846 0.13346 0.0
C522 C 0.0885 0.27422 0.11284 0.0
C523 C 0.05839 0.17466 0.12299 0.0
N524 N 1.00392 0.25259 0.10715 0.0
N525 N 0.13958 0.19168 0.10662 0.0
H526 H 1.00898 0.10307 0.14012 0.0
H527 H 0.06959 0.11656 0.13816 0.0
H528 H 0.17545 0.21485 0.09875 0.0
H529 H 0.12921 0.15498 0.105 0.0
H530 H 1.01273 0.28669 0.09752 0.0
H531 H 0.96655 0.22802 0.10759 0.0
H532 H 0.07939 0.33564 0.12055 0.0
H533 H 0.13963 0.34944 0.11682 0.0
C534 C 0.84958 1.0223 0.60145 0.0
C535 C 0.86924 1.00677 0.62841 0.0
C536 C 0.92007 0.09178 0.64733 0.0
C537 C 0.90249 0.10752 0.61913 0.0
N538 N 0.85872 0.08876 0.56505 0.0
N539 N 0.93033 1.02726 0.67247 0.0
C540 C 0.86958 0.073 0.59493 0.0
C541 C 0.90672 0.04175 0.64996 0.0
N542 N 0.81057 0.98864 0.58284 0.0
N543 N 0.94746 0.12406 0.67265 0.0
H544 H 0.92153 0.99104 0.67513 0.0
H545 H 0.96139 0.05146 0.68616 0.0
H546 H 0.95752 0.16076 0.67203 0.0
H547 H 0.95673 0.11378 0.69578 0.0
H548 H 0.7911 0.99774 0.5656 0.0
H549 H 0.79508 0.95127 0.58665 0.0
H550 H 0.83899 0.0657 0.54471 0.0
H551 H 0.8735 0.12552 0.55905 0.0
C552 C 0.91824 0.9044 0.12946 0.0
C553 C 0.90046 0.85383 0.13414 0.0
C554 C 0.8166 0.83818 0.13026 0.0
C555 C 0.83416 0.88793 0.12227 0.0
N556 N 0.90172 0.96741 0.10929 0.0
N557 N 0.83335 0.77153 0.1317 0.0
C558 C 0.88508 0.92087 0.1205 0.0
C559 C 0.84981 0.82042 0.13229 0.0
N560 N 0.96653 0.93675 0.1346 0.0
N561 N 0.76848 0.80834 0.138 0.0
H562 H 0.85652 0.75696 0.13305 0.0
H563 H 0.79725 0.74567 0.12653 0.0
H564 H 0.74336 0.82045 0.13864 0.0
H565 H 0.75458 0.77315 0.14752 0.0
H566 H 0.98089 0.97428 0.13525 0.0
H567 H 0.99182 0.92598 0.14094 0.0
H568 H 0.93825 0.99179 0.10405 0.0
H569 H 0.87847 0.98054 0.10246 0.0
C570 C 1.01348 0.81587 0.58964 0.0
C571 C 0.97823 0.81071 0.61477 0.0
C572 C 1.04251 0.87671 0.6491 0.0
C573 C 0.07835 0.87747 0.62633 0.0
N574 N 0.09856 0.8436 0.57704 0.0
N575 N 0.96003 0.83101 0.67133 0.0
C576 C 0.064 0.84606 0.59703 0.0
C577 C 0.99287 0.83998 0.6452 0.0
N578 N 0.99858 0.79286 0.55829 0.0
N579 N 0.05579 0.91179 0.67407 0.0
H580 H 0.92352 0.80408 0.66987 0.0
H581 H 0.96989 0.84725 0.69572 0.0
H582 H 0.09175 0.93937 0.67763 0.0
H583 H 1.03073 0.91622 0.68902 0.0
H584 H 1.02218 0.79899 0.53754 0.0
H585 H 0.96189 0.77106 0.55186 0.0
H586 H 0.09028 0.81759 0.55772 0.0
H587 H 0.13586 0.86505 0.58157 0.0
C588 C 0.08342 0.83137 0.36024 0.0
C589 C 0.116 0.88055 0.36922 0.0
C590 C 1.04995 0.89946 0.36266 0.0
C591 C 1.01649 0.84936 0.35685 0.0
N592 N 0.99963 0.76625 0.35692 0.0
N593 N 0.12926 0.95999 0.38447 0.0
C594 C 1.03274 0.81489 0.35759 0.0
C595 C 0.09898 0.91427 0.37197 0.0
N596 N 0.1011 0.80077 0.35282 0.0
N597 N 1.03528 0.93305 0.35818 0.0
H598 H 0.16523 0.97181 0.39165 0.0
H599 H 0.11773 0.98477 0.39042 0.0
H600 H 0.99979 0.92361 0.35127 0.0
H601 H 0.05912 0.97042 0.35846 0.0
H602 H 0.07982 0.76608 0.34246 0.0
H603 H 0.13805 0.81165 0.35386 0.0
H604 H 1.00895 0.73945 0.36121 0.0
H605 H 0.96212 0.7526 0.35531 0.0
C606 C 0.21472 1.02526 0.88726 0.0
C607 C 0.21361 1.00538 0.85395 0.0
C608 C 0.27266 0.08639 0.8319 0.0
C609 C 0.2775 0.10566 0.86606 0.0
N610 N 0.25177 0.09513 0.92594 0.0
N611 N 0.24287 1.01497 0.79503 0.0
C612 C 0.24802 0.07546 0.89366 0.0
C613 C 0.2427 0.03548 0.82635 0.0
N614 N 0.18326 0.99607 0.91253 0.0
N615 N 0.29626 0.11668 0.80458 0.0
H616 H 0.21982 0.97828 0.7894 0.0
H617 H 0.26783 1.03333 0.77524 0.0
H618 H 0.321 0.15358 0.80727 0.0
H619 H 0.28933 0.10606 0.77868 0.0
H620 H 0.17843 1.00849 0.93642 0.0
H621 H 0.15964 0.95892 0.90907 0.0
H622 H 0.23636 0.07499 0.94836 0.0
H623 H 0.27134 0.13245 0.93055 0.0
C624 C 0.21465 0.24642 0.33387 0.0
C625 C 0.19309 0.24711 0.36624 0.0
C626 C 0.20867 0.18336 0.38816 0.0
C627 C 0.227 0.18039 0.35504 0.0
N628 N 0.23738 0.20136 0.29427 0.0
N629 N 0.15944 0.20858 0.42115 0.0
C630 C 0.22685 0.20956 0.32723 0.0
C631 C 0.18721 0.21335 0.39256 0.0
N632 N 0.226 0.28245 0.31009 0.0
N633 N 0.21313 0.15876 0.41571 0.0
H634 H 0.14153 0.22849 0.42427 0.0
H635 H 0.14997 0.18154 0.43976 0.0
H636 H 0.22853 0.13639 0.41354 0.0
H637 H 0.20529 0.16367 0.44121 0.0
H638 H 0.24658 0.28681 0.2878 0.0
H639 H 0.2189 0.31082 0.31407 0.0
H640 H 0.23268 0.21783 0.27239 0.0
H641 H 0.24644 0.17465 0.28835 0.0
C642 C 0.05717 0.19085 0.84337 0.0
C643 C 0.09052 0.2266 0.86669 0.0
C644 C 1.02185 0.22275 0.89967 0.0
C645 C 0.98897 0.19128 0.87412 0.0
N646 N 0.97586 0.15065 0.81884 0.0
N647 N 0.10537 0.28141 0.91458 0.0
C648 C 1.00671 0.17646 0.84529 0.0
C649 C 0.07304 0.2438 0.89425 0.0
N650 N 0.0736 0.16986 0.81982 0.0
N651 N 1.00406 0.23117 0.92974 0.0
H652 H 0.14306 0.29751 0.91163 0.0
H653 H 0.09496 0.29927 0.93249 0.0
H654 H 0.96685 0.21562 0.93489 0.0
H655 H 1.02584 0.24968 0.95092 0.0
H656 H 1.05056 0.13991 0.8047 0.0
H657 H 0.11027 0.17972 0.81749 0.0
H658 H 0.98758 0.14347 0.79538 0.0
H659 H 0.93887 0.13986 0.81904 0.0
C660 C 0.84426 0.05213 0.37944 0.0
C661 C 0.89289 0.0676 0.36923 0.0
C662 C 0.87617 0.98322 0.37288 0.0
C663 C 0.82594 0.96715 0.3784 0.0
N664 N 0.76101 0.98672 0.37953 0.0
N665 N 0.95429 0.04757 0.35202 0.0
C666 C 0.80965 1.00171 0.37993 0.0
C667 C 0.90872 1.03306 0.36485 0.0
N668 N 0.83118 0.0856 0.38925 0.0
N669 N 0.89313 0.95131 0.37657 0.0
H670 H 0.97914 0.08371 0.34603 0.0
H671 H 0.96601 1.02337 0.34472 0.0
H672 H 0.8707 0.91497 0.38344 0.0
H673 H 0.93002 0.96185 0.37618 0.0
H674 H 0.79758 0.07607 0.40053 0.0
H675 H 0.85553 0.12295 0.38936 0.0
H676 H 0.74737 1.01047 0.3769 0.0
H677 H 0.73422 0.95041 0.3776 0.0
C678 C 0.94937 0.8657 0.87275 0.0
C679 C 0.91486 0.81516 0.87272 0.0
C680 C 0.84855 0.83383 0.86654 0.0
C681 C 0.8832 0.88381 0.86251 0.0
N682 N 0.96712 0.94715 0.85724 0.0
N683 N 0.83251 0.75119 0.8615 0.0
C684 C 0.93385 0.89979 0.86447 0.0
C685 C 0.86462 0.7992 0.86762 0.0
N686 N 0.99666 0.88119 0.88168 0.0
N687 N 0.80017 0.8194 0.86992 0.0
H688 H 0.84312 0.72498 0.85997 0.0
H689 H 0.79648 0.73825 0.85407 0.0
H690 H 0.78693 0.8437 0.86939 0.0
H691 H 0.77386 0.78409 0.87662 0.0
H692 H 1.02253 0.9176 0.88549 0.0
H693 H 1.00911 0.85733 0.88826 0.0
H694 H 1.0043 0.95985 0.85445 0.0
H695 H 0.95716 0.97313 0.85133 0.0
C696 C 0.20712 0.68676 0.12759 0.0
C697 C 0.16627 0.68901 0.11443 0.0
C698 C 0.15457 0.62595 0.07192 0.0
C699 C 0.19003 0.61831 0.08906 0.0
N700 N 0.27071 0.67 0.11144 0.0
N701 N 0.09732 0.65532 0.07524 0.0
C702 C 0.22239 0.65634 0.11133 0.0
C703 C 0.13833 0.65641 0.0874 0.0
N704 N 0.23258 0.71475 0.15525 0.0
N705 N 0.14473 0.61376 0.03772 0.0
H706 H 0.08405 0.67719 0.08489 0.0
H707 H 0.0739 0.62901 0.05769 0.0
H708 H 0.16574 0.60328 0.02294 0.0
H709 H 0.12257 0.62232 0.02282 0.0
H710 H 0.2598 0.71088 0.16757 0.0
H711 H 0.22377 0.73867 0.16753 0.0
H712 H 0.29694 0.7006 0.12462 0.0
H713 H 0.28528 0.65539 0.09389 0.0
C714 C 0.56243 0.11166 0.57935 0.0
C715 C 0.60032 0.14034 0.60308 0.0
C716 C 0.54286 0.15372 0.6382 0.0
C717 C 0.50492 0.12519 0.61443 0.0
N718 N 0.47537 0.06753 0.56753 0.0
N719 N 0.62424 0.17833 0.65922 0.0
C720 C 0.51378 0.10104 0.58665 0.0
C721 C 0.5896 0.15782 0.63394 0.0
N722 N 0.57334 0.09639 0.5491 0.0
N723 N 0.53523 0.17943 0.66359 0.0
H724 H 0.65887 0.18217 0.65671 0.0
H725 H 0.61736 0.18742 0.68379 0.0
H726 H 0.50156 0.17698 0.66777 0.0
H727 H 0.56287 0.20558 0.67897 0.0
H728 H 0.54872 0.08037 0.52882 0.0
H729 H 0.60817 0.10237 0.54334 0.0
H730 H 0.47833 0.0454 0.54876 0.0
H731 H 0.43948 0.05872 0.57277 0.0
C732 C 0.47308 0.56774 0.13454 0.0
C733 C 0.48637 0.58871 0.10088 0.0
C734 C 0.42403 0.5121 0.07502 0.0
C735 C 0.40664 0.4934 0.10865 0.0
N736 N 0.41377 0.50176 0.17072 0.0
N737 N 0.47148 0.5831 0.03916 0.0
C738 C 0.43116 0.52069 0.13856 0.0
C739 C 0.46123 0.56135 0.0711 0.0
N740 N 0.50122 0.59244 0.16243 0.0
N741 N 0.40546 0.48224 0.04683 0.0
H742 H 0.49842 0.61914 0.03509 0.0
H743 H 0.45072 0.56681 0.01712 0.0
H744 H 0.3789 0.44575 0.04916 0.0
H745 H 0.41968 0.49197 0.02183 0.0
H746 H 0.4965 0.5777 0.18719 0.0
H747 H 0.53177 0.62703 0.16033 0.0
H748 H 0.42589 0.52153 0.19369 0.0
H749 H 0.38553 0.46614 0.17428 0.0
C750 C 0.98627 0.47544 0.59444 0.0
C751 C 0.94145 0.4732 0.60322 0.0
C752 C 0.91285 0.39305 0.62975 0.0
C753 C 0.9544 0.39218 0.61655 0.0
N754 N 1.03026 0.43141 0.58512 0.0
N755 N 0.85949 0.42728 0.62582 0.0
C756 C 0.99134 0.43335 0.59887 0.0
C757 C 0.90423 0.43152 0.62034 0.0
N758 N 1.02408 0.51802 0.58225 0.0
N759 N 0.88161 0.35703 0.65158 0.0
H760 H 0.85129 0.45431 0.6193 0.0
H761 H 0.82913 0.39533 0.63421 0.0
H762 H 0.88714 0.32865 0.65907 0.0
H763 H 0.85339 0.35791 0.66501 0.0
H764 H 0.05913 0.52372 0.57832 0.0
H765 H 1.02132 0.54921 0.57871 0.0
H766 H 0.05554 0.45756 0.56834 0.0
H767 H 1.03587 0.402 0.58918 0.0
C768 C 0.55685 0.90114 0.13343 0.0
C769 C 0.59614 0.93432 0.11214 0.0
C770 C 0.54103 0.95853 0.08498 0.0
C771 C 0.5006 0.919 0.10157 0.0
N772 N 0.46963 0.84875 0.13895 0.0
N773 N 0.6249 0.99397 0.06596 0.0
C774 C 0.5084 0.88939 0.12528 0.0
C775 C 0.58827 0.96339 0.08773 0.0
N776 N 0.56609 0.88199 0.16222 0.0
N777 N 0.53447 0.99212 0.06721 0.0
H778 H 0.66039 1.00031 0.0676 0.0
H779 H 0.61941 1.01093 0.04472 0.0
H780 H 0.50056 0.98989 0.06487 0.0
H781 H 0.56315 1.02449 0.05766 0.0
H782 H 0.53946 0.86084 0.18041 0.0
H783 H 0.60143 0.89216 0.17005 0.0
H784 H 0.47342 0.82303 0.15335 0.0
H785 H 0.43351 0.83833 0.13333 0.0
C786 C 0.70282 0.5324 0.62205 0.0
C787 C 0.6979 0.57434 0.61804 0.0
C788 C 0.60968 0.52115 0.60902 0.0
C789 C 0.61614 0.4798 0.60841 0.0
N790 N 0.67061 0.44696 0.60949 0.0
N791 N 0.64735 0.60916 0.60476 0.0
C792 C 0.66313 0.48563 0.61393 0.0
C793 C 0.65136 0.56889 0.61112 0.0
N794 N 0.7456 0.53724 0.63408 0.0
N795 N 0.56363 0.51465 0.60797 0.0
H796 H 0.67682 0.64443 0.60664 0.0
H797 H 0.61572 0.60763 0.59554 0.0
H798 H 0.53265 0.48031 0.60623 0.0
H799 H 0.55588 0.54267 0.61166 0.0
H800 H 0.7499 0.50793 0.64127 0.0
H801 H 0.77551 0.57083 0.64012 0.0
H802 H 0.70507 0.45026 0.6089 0.0
H803 H 0.64288 0.41204 0.60331 0.0
C804 C 0.44098 0.95976 0.39866 0.0
C805 C 0.39816 0.92167 0.38289 0.0
C806 C 0.43628 0.87022 0.38151 0.0
C807 C 0.47922 0.90843 0.39629 0.0
N808 N 0.52717 0.99323 0.41098 0.0
N809 N 0.3634 0.84785 0.34864 0.0
C810 C 0.48304 0.95441 0.40231 0.0
C811 C 0.39852 0.87919 0.37098 0.0
N812 N 0.44122 0.99995 0.41183 0.0
N813 N 0.43042 0.82457 0.37882 0.0
H814 H 0.33617 0.8539 0.33906 0.0
H815 H 0.36461 0.81902 0.33651 0.0
H816 H 0.45697 0.81612 0.38638 0.0
H817 H 0.39746 0.79415 0.37206 0.0
H818 H 0.46887 1.02522 0.42769 0.0
H819 H 0.41263 1.00696 0.40907 0.0
H820 H 0.53377 1.02885 0.41201 0.0
H821 H 0.5585 0.99047 0.41398 0.0
C822 C 0.59903 0.42444 0.91879 0.0
C823 C 0.61596 0.46387 0.89522 0.0
C824 C 0.53802 0.42127 0.86366 0.0
C825 C 0.52032 0.38309 0.88848 0.0
N826 N 0.52956 0.35503 0.94462 0.0
N827 N 0.59955 0.50393 0.84847 0.0
C828 C 0.54961 0.3867 0.91748 0.0
C829 C 0.5848 0.46351 0.86857 0.0
N830 N 0.63061 0.4222 0.94187 0.0
N831 N 0.51106 0.41643 0.83476 0.0
H832 H 0.63377 0.53492 0.85098 0.0
H833 H 0.57682 0.5082 0.8311 0.0
H834 H 0.47625 0.38694 0.83087 0.0
H835 H 0.52422 0.44004 0.81367 0.0
H836 H 0.62182 0.39162 0.95689 0.0
H837 H 0.66713 0.4491 0.94381 0.0
H838 H 0.54751 0.35889 0.96803 0.0
H839 H 0.49308 0.3279 0.94527 0.0
C840 C 0.20064 0.57167 0.42034 0.0
C841 C 0.17442 0.58739 0.39932 0.0
C842 C 0.14079 0.51105 0.36584 0.0
C843 C 0.16413 0.49385 0.38865 0.0
N844 N 0.20756 0.50395 0.44228 0.0
N845 N 0.11388 0.56968 0.35537 0.0
C846 C 0.19166 0.52316 0.41719 0.0
C847 C 0.14275 0.55631 0.37303 0.0
N848 N 0.23522 0.60357 0.4428 0.0
N849 N 0.11873 0.48535 0.33646 0.0
H850 H 0.11518 0.60288 0.35945 0.0
H851 H 0.08618 0.54654 0.33864 0.0
H852 H 0.11681 0.45239 0.33024 0.0
H853 H 0.10575 0.49845 0.31687 0.0
H854 H 0.2596 0.5961 0.45576 0.0
H855 H 0.24256 0.63926 0.44622 0.0
H856 H 0.22304 0.52162 0.46556 0.0
H857 H 0.20083 0.4683 0.44162 0.0
C858 C 0.66117 0.09623 0.89398 0.0
C859 C 0.7021 0.13244 0.87561 0.0
C860 C 0.66276 0.18257 0.87185 0.0
C861 C 0.62129 0.14597 0.88953 0.0
N862 N 0.5766 0.06407 0.91142 0.0
N863 N 0.73707 0.20439 0.84009 0.0
C864 C 0.61912 0.10148 0.89869 0.0
C865 C 0.70114 0.17367 0.86223 0.0
N866 N 0.66331 0.0578 0.90806 0.0
N867 N 0.66687 0.22702 0.86598 0.0
H868 H 0.76552 0.19883 0.83263 0.0
H869 H 0.73607 0.23222 0.82648 0.0
H870 H 0.63984 0.23533 0.87269 0.0
H871 H 0.6987 0.2571 0.8571 0.0
H872 H 0.6375 1.03328 0.9254 0.0
H873 H 0.69258 0.0519 0.90368 0.0
H874 H 0.57098 1.02921 0.9156 0.0
H875 H 0.54536 0.06685 0.91517 0.0
C876 C 0.52692 0.60627 0.35837 0.0
C877 C 0.49716 0.60087 0.3877 0.0
C878 C 0.5625 0.67672 0.41212 0.0
C879 C 0.59038 0.68501 0.38123 0.0
N880 N 0.5967 0.6608 0.32293 0.0
N881 N 0.483 0.63521 0.43945 0.0
C882 C 0.57209 0.65047 0.35381 0.0
C883 C 0.51398 0.63731 0.41371 0.0
N884 N 0.51241 0.56881 0.33527 0.0
N885 N 0.58298 0.70561 0.44055 0.0
H886 H 0.44705 0.60701 0.44163 0.0
H887 H 0.49143 0.66364 0.45673 0.0
H888 H 0.61865 0.73439 0.44078 0.0
H889 H 0.56644 0.6981 0.46493 0.0
H890 H 0.53461 0.56831 0.3154 0.0
H891 H 0.47926 0.53648 0.33755 0.0
H892 H 0.58265 0.63974 0.30066 0.0
H893 H 0.62986 0.69254 0.31882 0.0
C894 C 0.93414 0.53962 0.85448 0.0
C895 C 0.96102 0.57762 0.87858 0.0
C896 C 0.98024 0.52268 0.91124 0.0
C897 C 0.94663 0.48297 0.89063 0.0
N898 N 0.88769 0.45276 0.84424 0.0
N899 N 1.00604 0.60402 0.93233 0.0
C900 C 0.9229 0.49125 0.86239 0.0
C901 C 0.9838 0.5691 0.90737 0.0
N902 N 0.91993 0.55002 0.82371 0.0
N903 N 1.00897 0.516 0.93443 0.0
H904 H 1.00914 0.63827 0.93093 0.0
H905 H 1.01807 0.59777 0.95587 0.0
H906 H 1.00726 0.48251 0.93778 0.0
H907 H 1.03754 0.54443 0.94779 0.0
H908 H 0.9042 0.52491 0.80364 0.0
H909 H 0.92854 0.58524 0.81685 0.0
H910 H 0.86514 0.45613 0.82617 0.0
H911 H 0.87824 0.41678 0.8491 0.0
C912 C 0.18272 0.358 0.25439 0.0
C913 C 0.21216 0.39674 0.27731 0.0
C914 C 0.26786 0.44058 0.22905 0.0
C915 C 0.2368 0.40265 0.20613 0.0
N916 N 0.15867 0.3312 0.19566 0.0
N917 N 0.27873 0.47815 0.286 0.0
C918 C 0.19222 0.36356 0.21836 0.0
C919 C 0.25378 0.43905 0.26454 0.0
N920 N 0.14751 0.31422 0.26711 0.0
N921 N 0.31067 0.47794 0.21672 0.0
H922 H 0.26907 0.47813 0.31195 0.0
H923 H 0.30674 0.51173 0.27768 0.0
H924 H 0.31942 0.4821 0.19033 0.0
H925 H 0.33793 0.50378 0.2325 0.0
H926 H 0.12958 0.28284 0.25205 0.0
H927 H 0.13965 0.30741 0.29333 0.0
H928 H 0.1231 0.30584 0.20277 0.0
H929 H 0.16453 0.33258 0.16914 0.0
C930 C 0.83068 0.19661 0.72062 0.0
C931 C 0.87364 0.23977 0.711 0.0
C932 C 0.89508 0.26085 0.7721 0.0
C933 C 0.85337 0.21651 0.78173 0.0
N934 N 0.77354 0.15119 0.76644 0.0
N935 N 0.93674 0.32024 0.72673 0.0
C936 C 0.81834 0.18765 0.75632 0.0
C937 C 0.90219 0.27451 0.73659 0.0
N938 N 0.80381 0.1623 0.69623 0.0
N939 N 0.92997 0.28785 0.79608 0.0
H940 H 0.94275 0.33098 0.70079 0.0
H941 H 0.95569 0.34858 0.74424 0.0
H942 H 0.92672 0.27915 0.82235 0.0
H943 H 0.96385 0.31718 0.78954 0.0
H944 H 0.77607 0.12743 0.70247 0.0
H945 H 0.81091 0.1673 0.66969 0.0
H946 H 0.74487 0.13201 0.74925 0.0
H947 H 0.76361 0.14349 0.79244 0.0
C948 C 0.6453 0.83241 0.22661 0.0
C949 C 0.68758 0.87417 0.21399 0.0
C950 C 0.71799 0.89681 0.27328 0.0
C951 C 0.67946 0.85206 0.28558 0.0
N952 N 0.60757 0.77512 0.27413 0.0
N953 N 0.77019 0.9381 0.22485 0.0
C954 C 0.64329 0.81918 0.26225 0.0
C955 C 0.72542 0.90436 0.23721 0.0
N956 N 0.60684 0.80626 0.20493 0.0
N957 N 0.74847 0.93206 0.29584 0.0
H958 H 0.77873 0.94249 0.19859 0.0
H959 H 0.8006 0.95732 0.24064 0.0
H960 H 0.74524 0.92805 0.32256 0.0
H961 H 0.77376 0.96724 0.28804 0.0
H962 H 0.57319 0.77838 0.21341 0.0
H963 H 0.60742 0.81476 0.17873 0.0
H964 H 0.58353 0.74721 0.25789 0.0
H965 H 0.6035 0.7658 0.3004 0.0
C966 C 0.91463 0.69784 0.7181 0.0
C967 C 0.867 0.66367 0.70763 0.0
C968 C 0.84891 0.63034 0.76669 0.0
C969 C 0.89394 0.66996 0.77795 0.0
N970 N 0.96167 0.74982 0.76484 0.0
N971 N 0.78602 0.60019 0.72246 0.0
C972 C 0.92484 0.70596 0.75377 0.0
C973 C 0.83319 0.63043 0.73204 0.0
N974 N 0.95004 0.72324 0.69401 0.0
N975 N 0.82192 0.59241 0.78858 0.0
H976 H 0.7739 0.59911 0.69715 0.0
H977 H 0.75856 0.57871 0.74003 0.0
H978 H 0.83294 0.59092 0.81382 0.0
H979 H 0.79094 0.56068 0.78069 0.0
H980 H 0.9864 0.7464 0.70058 0.0
H981 H 0.94404 0.7164 0.66754 0.0
H982 H 0.98248 0.77863 0.74805 0.0
H983 H 0.96664 0.75965 0.79089 0.0
C984 C 0.21057 0.79456 0.24038 0.0
C985 C 0.23537 0.83286 0.21569 0.0
C986 C 0.29531 0.87892 0.26058 0.0
C987 C 0.26158 0.84961 0.28637 0.0
N988 N 0.19499 0.77003 0.30078 0.0
N989 N 0.30429 0.9141 0.20419 0.0
C990 C 0.2218 0.80412 0.27633 0.0
C991 C 0.27933 0.87531 0.2259 0.0
N992 N 0.17752 0.74874 0.22941 0.0
N993 N 0.34263 0.91017 0.26932 0.0
H994 H 0.29497 0.91598 0.17871 0.0
H995 H 0.33283 0.94726 0.21281 0.0
H996 H 0.35557 0.91176 0.29445 0.0
H997 H 0.36975 0.92954 0.25093 0.0
H998 H 0.1618 0.71849 0.24562 0.0
H999 H 0.16905 0.73961 0.2034 0.0
H1000 H 0.16045 0.74053 0.29613 0.0
H1001 H 0.20832 0.77043 0.32551 0.0
C1002 C 0.44915 0.26694 0.75905 0.0
C1003 C 0.43394 0.23022 0.78483 0.0
C1004 C 0.43059 0.17381 0.73999 0.0
C1005 C 0.43244 0.20625 0.71398 0.0
N1006 N 0.44045 0.2841 0.69926 0.0
N1007 N 0.40528 0.145 0.7982 0.0
C1008 C 0.44184 0.25341 0.72346 0.0
C1009 C 0.42433 0.18282 0.77514 0.0
N1010 N 0.47091 0.31469 0.76862 0.0
N1011 N 0.43386 0.13378 0.73101 0.0
H1012 H 0.39669 0.14748 0.8239 0.0
H1013 H 0.39262 0.10907 0.79068 0.0
H1014 H 0.43827 0.12596 0.7054 0.0
H1015 H 0.43751 0.11154 0.74924 0.0
H1016 H 0.48596 0.34316 0.75078 0.0
H1017 H 0.47904 0.32558 0.79447 0.0
H1018 H 0.44202 0.31679 0.70582 0.0
H1019 H 0.43363 0.2753 0.67305 0.0
C1020 C 0.29733 0.24455 0.99286 0.0
C1021 C 0.3403 0.27604 0.97425 0.0
C1022 C 0.33427 0.34658 0.99476 0.0
C1023 C 0.29382 0.31536 0.01593 0.0
N1024 N 0.22606 0.23462 0.02399 0.0
N1025 N 0.40451 0.35762 0.96181 0.0
C1026 C 0.27225 0.26417 0.01175 0.0
C1027 C 0.36022 0.32724 0.97653 0.0
N1028 N 0.2819 0.19591 0.99373 0.0
N1029 N 0.34531 0.39353 0.98932 0.0
H1030 H 0.42485 0.34505 0.94864 0.0
H1031 H 0.42351 0.39506 0.96586 0.0
H1032 H 0.32309 0.40711 -0.00228 0.0
H1033 H 0.37197 0.4169 0.97195 0.0
H1034 H 0.2535 0.17116 0.0094 0.0
H1035 H 0.3011 0.18117 0.98143 0.0
H1036 H 0.20624 0.19732 0.01953 0.0
H1037 H 0.20534 0.24853 0.03513 0.0
C1038 C 0.07819 0.2762 0.49006 0.0
C1039 C 0.09433 0.32139 0.47312 0.0
C1040 C 1.03083 0.33068 0.50373 0.0
C1041 C 1.01287 0.28398 0.51871 0.0
N1042 N 1.01425 0.209 0.52262 0.0
N1043 N 0.08368 0.39045 0.46167 0.0
C1044 C 1.03485 0.25561 0.51054 0.0
C1045 C 0.07014 0.34845 0.4795 0.0
N1046 N 0.10591 0.25419 0.48771 0.0
N1047 N 1.01103 0.35867 0.51364 0.0
H1048 H 0.11491 0.40723 0.44646 0.0
H1049 H 0.06329 0.40803 0.46108 0.0
H1050 H 0.97986 0.34532 0.52916 0.0
H1051 H 1.02638 0.39546 0.50779 0.0
H1052 H 0.09883 0.22319 0.50155 0.0
H1053 H 0.13925 0.27023 0.47459 0.0
H1054 H 1.02579 0.18469 0.51529 0.0
H1055 H 0.98252 0.1932 0.53765 0.0
C1056 C 0.73948 1.00924 0.00351 0.0
C1057 C 0.77021 0.99267 0.01742 0.0
C1058 C 0.83868 0.05438 0.9825 0.0
C1059 C 0.80907 0.07407 0.97217 0.0
N1060 N 0.73461 0.07642 0.9778 0.0
N1061 N 0.84923 0.99846 0.01955 0.0
C1062 C 0.76052 0.05333 0.98434 0.0
C1063 C 0.81998 1.01512 0.00668 0.0
N1064 N 0.69007 0.98236 0.00729 0.0
N1065 N 0.88391 0.07195 0.968 0.0
H1066 H 0.83551 0.96625 0.03374 0.0
H1067 H 0.88699 1.01691 0.01691 0.0
H1068 H 0.89948 0.10226 0.95172 0.0
H1069 H 0.90518 0.05554 0.97081 0.0
H1070 H 0.66606 0.99042 0.99438 0.0
H1071 H 0.67232 0.94909 0.01998 0.0
H1072 H 0.70063 0.06592 0.9888 0.0
H1073 H 0.74952 0.10922 0.96424 0.0
C1074 C 0.83103 0.78962 0.5061 0.0
C1075 C 0.80128 0.7404 0.51599 0.0
C1076 C 0.73808 0.73208 0.4753 0.0
C1077 C 0.76533 0.78287 0.46841 0.0
N1078 N 0.83509 0.86136 0.4803 0.0
N1079 N 0.72502 0.66526 0.51273 0.0
C1080 C 0.81132 0.81198 0.48449 0.0
C1081 C 0.75444 0.71176 0.50125 0.0
N1082 N 0.87802 0.81498 0.51766 0.0
N1083 N 0.69788 0.70267 0.45596 0.0
H1084 H 0.7371 0.64793 0.52972 0.0
H1085 H 0.68808 0.6448 0.50683 0.0
H1086 H 0.68437 0.71567 0.43678 0.0
H1087 H 0.68008 0.66485 0.45694 0.0
H1088 H 0.90324 0.84963 0.50897 0.0
H1089 H 0.89314 0.79952 0.53371 0.0
H1090 H 0.86635 0.88523 0.49391 0.0
H1091 H 0.82106 0.87906 0.46548 0.0
C1092 C 1.00646 0.73989 0.0047 0.0
C1093 C 1.02445 0.74499 0.97037 0.0
C1094 C 0.10824 0.7906 0.99238 0.0
C1095 C 0.09044 0.78243 0.02691 0.0
N1096 N 1.02303 0.73032 0.06426 0.0
N1097 N 0.0923 0.75606 0.93488 0.0
C1098 C 1.03953 0.75162 0.03272 0.0
C1099 C 0.07541 0.76476 0.96511 0.0
N1100 N 0.95855 0.72503 0.01091 0.0
N1101 N 0.15566 0.82374 0.98511 0.0
H1102 H 0.06857 0.73153 0.9166 0.0
H1103 H 0.12896 0.76708 0.93068 0.0
H1104 H 0.18052 0.84536 0.00404 0.0
H1105 H 0.1686 0.83318 0.95973 0.0
H1106 H 0.94527 0.72504 0.03576 0.0
H1107 H 0.93329 0.71712 0.99114 0.0
H1108 H 0.98653 0.70524 0.06921 0.0
H1109 H 1.04708 0.732 0.08329 0.0
C1110 C 0.34231 1.01524 0.48171 0.0
C1111 C 0.29253 0.9956 0.4723 0.0
C1112 C 0.28689 0.05477 0.51106 0.0
C1113 C 0.3372 0.07574 0.5187 0.0
N1114 N 0.41503 0.08371 0.50572 0.0
N1115 N 0.21801 0.99895 0.47579 0.0
C1116 C 0.3655 0.05828 0.50218 0.0
C1117 C 0.26509 1.01632 0.48622 0.0
N1118 N 0.36746 0.99243 0.4718 0.0
N1119 N 0.25962 0.07044 0.52872 0.0
H1120 H 0.19931 0.9679 0.46044 0.0
H1121 H 0.19794 1.0161 0.48132 0.0
H1122 H 0.27521 0.1005 0.54526 0.0
H1123 H 0.22173 0.05284 0.52807 0.0
H1124 H 0.40171 1.00172 0.4815 0.0
H1125 H 0.35289 0.96156 0.4562 0.0
H1126 H 0.43866 0.076 0.49172 0.0
H1127 H 0.43269 0.11576 0.5202 0.0
loop_
_geom_bond_atom_site_label_1
_geom_bond_atom_site_label_2
_geom_bond_distance
_geom_bond_site_symmetry_2
_ccdc_geom_bond_type
Tb0 C10 2.825 . S
Tb0 O11 2.347 . S
Tb0 O14 2.366 . S
Tb0 O19 2.418 . S
Tb0 O20 2.384 . S
Tb0 O23 2.479 . S
Tb0 O24 2.471 . S
Eu1 O12 2.418 . S
Eu1 O13 2.384 . S
Eu1 O16 2.479 . S
Eu1 O17 2.471 . S
Eu1 O18 2.347 . S
Eu1 O21 2.366 . S
Eu1 C31 2.825 . S
C2 O18 1.259 . S
C2 O19 1.265 . S
C3 O20 1.255 . S
C3 O21 1.265 . S
C4 C6 1.380 . S
C4 C7 1.374 . S
C4 C10 1.507 . S
C5 C6 1.384 . S
C5 C9 1.387 . S
C5 H32 0.930 . S
C6 C4 1.380 . S
C6 C5 1.384 . S
C6 H33 0.931 . S
C7 C4 1.374 . S
C7 C8 1.390 . S
C7 H34 0.930 . S
C8 C7 1.390 . S
C8 C9 1.391 . S
C8 H35 0.930 . S
C9 C5 1.387 . S
C9 C8 1.391 . S
C10 Tb0 2.825 . S
C10 C4 1.507 . S
C10 O23 1.238 . S
C10 O24 1.247 . S
O11 Tb0 2.347 . S
O11 C15 1.259 . S
O12 Eu1 2.418 . S
O12 C15 1.265 . S
O13 Eu1 2.384 . S
O13 C22 1.255 . S
O14 Tb0 2.366 . S
O14 C22 1.265 . S
C15 O11 1.259 . S
C15 O12 1.265 . S
O16 Eu1 2.479 . S
O16 C31 1.238 . S
O17 Eu1 2.471 . S
O17 C31 1.247 . S
O18 Eu1 2.347 . S
O18 C2 1.259 . S
O19 Tb0 2.418 . S
O19 C2 1.265 . S
O20 Tb0 2.384 . S
O20 C3 1.255 . S
O21 Eu1 2.366 . S
O21 C3 1.265 . S
C22 O13 1.255 . S
C22 O14 1.265 . S
O23 Tb0 2.479 . S
O23 C10 1.238 . S
O24 Tb0 2.471 . S
O24 C10 1.247 . S
C25 C28 1.380 . S
C25 C29 1.374 . S
C25 C31 1.507 . S
C26 C27 1.387 . S
C26 C30 1.391 . S
C27 C26 1.387 . S
C27 C28 1.384 . S
C27 H36 0.930 . S
C28 C25 1.380 . S
C28 C27 1.384 . S
C28 H37 0.931 . S
C29 C25 1.374 . S
C29 C30 1.390 . S
C29 H38 0.930 . S
C30 C26 1.391 . S
C30 C29 1.390 . S
C30 H39 0.930 . S
C31 Eu1 2.825 . S
C31 O16 1.238 . S
C31 O17 1.247 . S
C31 C25 1.507 . S
H32 C5 0.930 . S
H33 C6 0.931 . S
H34 C7 0.930 . S
H35 C8 0.930 . S
H36 C27 0.930 . S
H37 C28 0.931 . S
H38 C29 0.930 . S
H39 C30 0.930 . S
Tb40 C50 2.825 . S
Tb40 O51 2.347 . S
Tb40 O54 2.366 . S
Tb40 O59 2.418 . S
Tb40 O60 2.384 . S
Tb40 O63 2.479 . S
Tb40 O64 2.471 . S
Eu41 O52 2.418 . S
Eu41 O53 2.384 . S
Eu41 O56 2.479 . S
Eu41 O57 2.471 . S
Eu41 O58 2.347 . S
Eu41 O61 2.366 . S
Eu41 C71 2.824 . S
C42 O58 1.259 . S
C42 O59 1.265 . S
C43 O60 1.255 . S
C43 O61 1.265 . S
C44 C46 1.380 . S
C44 C47 1.374 . S
C44 C50 1.507 . S
C45 C46 1.384 . S
C45 C49 1.387 . S
C45 H72 0.930 . S
C46 C44 1.380 . S
C46 C45 1.384 . S
C46 H73 0.931 . S
C47 C44 1.374 . S
C47 C48 1.390 . S
C47 H74 0.930 . S
C48 C47 1.390 . S
C48 C49 1.391 . S
C48 H75 0.930 . S
C49 C45 1.387 . S
C49 C48 1.391 . S
C50 Tb40 2.825 . S
C50 C44 1.507 . S
C50 O63 1.238 . S
C50 O64 1.247 . S
O51 Tb40 2.347 . S
O51 C55 1.259 . S
O52 Eu41 2.418 . S
O52 C55 1.265 . S
O53 Eu41 2.384 . S
O53 C62 1.255 . S
O54 Tb40 2.366 . S
O54 C62 1.265 . S
C55 O51 1.259 . S
C55 O52 1.265 . S
O56 Eu41 2.479 . S
O56 C71 1.237 . S
O57 Eu41 2.471 . S
O57 C71 1.247 . S
O58 Eu41 2.347 . S
O58 C42 1.259 . S
O59 Tb40 2.418 . S
O59 C42 1.265 . S
O60 Tb40 2.384 . S
O60 C43 1.255 . S
O61 Eu41 2.366 . S
O61 C43 1.265 . S
C62 O53 1.255 . S
C62 O54 1.265 . S
O63 Tb40 2.479 . S
O63 C50 1.238 . S
O64 Tb40 2.471 . S
O64 C50 1.247 . S
C65 C68 1.380 . S
C65 C69 1.374 . S
C65 C71 1.508 1_455 S
C66 C67 1.387 . S
C66 C70 1.391 . S
C67 C66 1.387 . S
C67 C68 1.384 . S
C67 H76 0.930 . S
C68 C65 1.380 . S
C68 C67 1.384 . S
C68 H77 0.931 . S
C69 C65 1.374 . S
C69 C70 1.390 . S
C69 H78 0.930 . S
C70 C66 1.391 . S
C70 C69 1.390 . S
C70 H79 0.930 . S
C71 Eu41 2.824 . S
C71 O56 1.237 . S
C71 O57 1.247 . S
C71 C65 1.508 1_655 S
H72 C45 0.930 . S
H73 C46 0.931 . S
H74 C47 0.930 . S
H75 C48 0.930 . S
H76 C67 0.930 . S
H77 C68 0.931 . S
H78 C69 0.930 . S
H79 C70 0.930 . S
Tb80 C90 2.825 . S
Tb80 O91 2.347 . S
Tb80 O94 2.366 . S
Tb80 O99 2.418 . S
Tb80 O100 2.384 . S
Tb80 O103 2.479 . S
Tb80 O104 2.471 . S
Eu81 O92 2.418 . S
Eu81 O93 2.384 . S
Eu81 O96 2.479 . S
Eu81 O97 2.471 . S
Eu81 O98 2.347 . S
Eu81 O101 2.366 . S
Eu81 C111 2.825 . S
C82 O98 1.259 . S
C82 O99 1.265 . S
C83 O100 1.255 . S
C83 O101 1.265 . S
C84 C86 1.380 . S
C84 C87 1.374 . S
C84 C90 1.507 . S
C85 C86 1.384 . S
C85 C89 1.387 . S
C85 H112 0.930 . S
C86 C84 1.380 . S
C86 C85 1.384 . S
C86 H113 0.931 . S
C87 C84 1.374 . S
C87 C88 1.390 . S
C87 H114 0.930 . S
C88 C87 1.390 . S
C88 C89 1.391 . S
C88 H115 0.930 . S
C89 C85 1.387 . S
C89 C88 1.391 . S
C90 Tb80 2.825 . S
C90 C84 1.507 . S
C90 O103 1.238 . S
C90 O104 1.247 . S
O91 Tb80 2.347 . S
O91 C95 1.259 . S
O92 Eu81 2.418 . S
O92 C95 1.265 . S
O93 Eu81 2.384 . S
O93 C102 1.255 . S
O94 Tb80 2.366 . S
O94 C102 1.265 . S
C95 O91 1.259 . S
C95 O92 1.265 . S
O96 Eu81 2.479 . S
O96 C111 1.237 . S
O97 Eu81 2.471 . S
O97 C111 1.247 . S
O98 Eu81 2.347 . S
O98 C82 1.259 . S
O99 Tb80 2.418 . S
O99 C82 1.265 . S
O100 Tb80 2.384 . S
O100 C83 1.255 . S
O101 Eu81 2.366 . S
O101 C83 1.265 . S
C102 O93 1.255 . S
C102 O94 1.265 . S
O103 Tb80 2.479 . S
O103 C90 1.238 . S
O104 Tb80 2.471 . S
O104 C90 1.247 . S
C105 C108 1.380 . S
C105 C109 1.374 . S
C105 C111 1.507 1_545 S
C106 C107 1.387 . S
C106 C110 1.391 . S
C107 C106 1.387 . S
C107 C108 1.384 . S
C107 H116 0.930 . S
C108 C105 1.380 . S
C108 C107 1.384 . S
C108 H117 0.931 . S
C109 C105 1.374 . S
C109 C110 1.390 . S
C109 H118 0.930 . S
C110 C106 1.391 . S
C110 C109 1.390 . S
C110 H119 0.930 . S
C111 Eu81 2.825 . S
C111 O96 1.237 . S
C111 O97 1.247 . S
C111 C105 1.507 1_565 S
H112 C85 0.930 . S
H113 C86 0.931 . S
H114 C87 0.930 . S
H115 C88 0.930 . S
H116 C107 0.930 . S
H117 C108 0.931 . S
H118 C109 0.930 . S
H119 C110 0.930 . S
Tb120 C130 2.825 . S
Tb120 O131 2.347 . S
Tb120 O134 2.366 . S
Tb120 O139 2.418 . S
Tb120 O140 2.384 . S
Tb120 O143 2.479 . S
Tb120 O144 2.471 . S
Eu121 O132 2.418 . S
Eu121 O133 2.384 . S
Eu121 O136 2.479 . S
Eu121 O137 2.471 . S
Eu121 O138 2.347 . S
Eu121 O141 2.366 . S
Eu121 C151 2.825 . S
C122 O138 1.259 . S
C122 O139 1.265 . S
C123 O140 1.255 . S
C123 O141 1.265 . S
C124 C126 1.380 . S
C124 C127 1.374 . S
C124 C130 1.507 . S
C125 C126 1.384 . S
C125 C129 1.387 . S
C125 H152 0.930 . S
C126 C124 1.380 . S
C126 C125 1.384 . S
C126 H153 0.931 . S
C127 C124 1.374 . S
C127 C128 1.390 . S
C127 H154 0.930 . S
C128 C127 1.390 . S
C128 C129 1.391 . S
C128 H155 0.930 . S
C129 C125 1.387 . S
C129 C128 1.391 . S
C130 Tb120 2.825 . S
C130 C124 1.507 . S
C130 O143 1.238 . S
C130 O144 1.247 . S
O131 Tb120 2.347 . S
O131 C135 1.259 . S
O132 Eu121 2.418 . S
O132 C135 1.265 . S
O133 Eu121 2.384 . S
O133 C142 1.255 . S
O134 Tb120 2.366 . S
O134 C142 1.265 . S
C135 O131 1.259 . S
C135 O132 1.265 . S
O136 Eu121 2.479 . S
O136 C151 1.238 . S
O137 Eu121 2.471 . S
O137 C151 1.247 . S
O138 Eu121 2.347 . S
O138 C122 1.259 . S
O139 Tb120 2.418 . S
O139 C122 1.265 . S
O140 Tb120 2.384 . S
O140 C123 1.255 . S
O141 Eu121 2.366 . S
O141 C123 1.265 . S
C142 O133 1.255 . S
C142 O134 1.265 . S
O143 Tb120 2.479 . S
O143 C130 1.238 . S
O144 Tb120 2.471 . S
O144 C130 1.247 . S
C145 C148 1.380 . S
C145 C149 1.374 . S
C145 C151 1.507 . S
C146 C147 1.387 . S
C146 C150 1.391 . S
C147 C146 1.387 . S
C147 C148 1.384 . S
C147 H156 0.930 . S
C148 C145 1.380 . S
C148 C147 1.384 . S
C148 H157 0.931 . S
C149 C145 1.374 . S
C149 C150 1.390 . S
C149 H158 0.930 . S
C150 C146 1.391 . S
C150 C149 1.390 . S
C150 H159 0.930 . S
C151 Eu121 2.825 . S
C151 O136 1.238 . S
C151 O137 1.247 . S
C151 C145 1.507 . S
H152 C125 0.930 . S
H153 C126 0.931 . S
H154 C127 0.930 . S
H155 C128 0.930 . S
H156 C147 0.930 . S
H157 C148 0.931 . S
H158 C149 0.930 . S
H159 C150 0.930 . S
Tb160 C170 2.825 . S
Tb160 O171 2.347 . S
Tb160 O174 2.366 . S
Tb160 O179 2.418 . S
Tb160 O180 2.384 . S
Tb160 O183 2.479 . S
Tb160 O184 2.471 . S
Eu161 O172 2.418 . S
Eu161 O173 2.384 . S
Eu161 O176 2.479 . S
Eu161 O177 2.471 . S
Eu161 O178 2.347 . S
Eu161 O181 2.366 . S
Eu161 C191 2.824 . S
C162 O178 1.259 . S
C162 O179 1.265 . S
C163 O180 1.255 . S
C163 O181 1.265 . S
C164 C166 1.380 . S
C164 C167 1.374 . S
C164 C170 1.507 . S
C165 C166 1.384 . S
C165 C169 1.387 . S
C165 H192 0.930 . S
C166 C164 1.380 . S
C166 C165 1.384 . S
C166 H193 0.931 . S
C167 C164 1.374 . S
C167 C168 1.390 . S
C167 H194 0.930 . S
C168 C167 1.390 . S
C168 C169 1.391 . S
C168 H195 0.930 . S
C169 C165 1.387 . S
C169 C168 1.391 . S
C170 Tb160 2.825 . S
C170 C164 1.507 . S
C170 O183 1.238 . S
C170 O184 1.247 . S
O171 Tb160 2.347 . S
O171 C175 1.259 . S
O172 Eu161 2.418 . S
O172 C175 1.265 . S
O173 Eu161 2.384 . S
O173 C182 1.255 . S
O174 Tb160 2.366 . S
O174 C182 1.265 . S
C175 O171 1.259 . S
C175 O172 1.265 . S
O176 Eu161 2.479 . S
O176 C191 1.237 . S
O177 Eu161 2.471 . S
O177 C191 1.247 . S
O178 Eu161 2.347 . S
O178 C162 1.259 . S
O179 Tb160 2.418 . S
O179 C162 1.265 . S
O180 Tb160 2.384 . S
O180 C163 1.255 . S
O181 Eu161 2.366 . S
O181 C163 1.265 . S
C182 O173 1.255 . S
C182 O174 1.265 . S
O183 Tb160 2.479 . S
O183 C170 1.238 . S
O184 Tb160 2.471 . S
O184 C170 1.247 . S
C185 C188 1.380 . S
C185 C189 1.374 . S
C185 C191 1.508 1_655 S
C186 C187 1.387 . S
C186 C190 1.391 . S
C187 C186 1.387 . S
C187 C188 1.384 . S
C187 H196 0.930 . S
C188 C185 1.380 . S
C188 C187 1.384 . S
C188 H197 0.931 . S
C189 C185 1.374 . S
C189 C190 1.390 . S
C189 H198 0.930 . S
C190 C186 1.391 . S
C190 C189 1.390 . S
C190 H199 0.930 . S
C191 Eu161 2.824 . S
C191 O176 1.237 . S
C191 O177 1.247 . S
C191 C185 1.508 1_455 S
H192 C165 0.930 . S
H193 C166 0.931 . S
H194 C167 0.930 . S
H195 C168 0.930 . S
H196 C187 0.930 . S
H197 C188 0.931 . S
H198 C189 0.930 . S
H199 C190 0.930 . S
Tb200 C210 2.825 . S
Tb200 O211 2.347 . S
Tb200 O214 2.366 . S
Tb200 O219 2.418 . S
Tb200 O220 2.384 . S
Tb200 O223 2.479 . S
Tb200 O224 2.471 . S
Eu201 O212 2.418 . S
Eu201 O213 2.384 . S
Eu201 O216 2.479 . S
Eu201 O217 2.471 . S
Eu201 O218 2.347 . S
Eu201 O221 2.366 . S
Eu201 C231 2.825 . S
C202 O218 1.259 . S
C202 O219 1.265 . S
C203 O220 1.255 . S
C203 O221 1.265 . S
C204 C206 1.380 . S
C204 C207 1.374 . S
C204 C210 1.507 . S
C205 C206 1.384 . S
C205 C209 1.387 . S
C205 H232 0.930 . S
C206 C204 1.380 . S
C206 C205 1.384 . S
C206 H233 0.931 . S
C207 C204 1.374 . S
C207 C208 1.390 . S
C207 H234 0.930 . S
C208 C207 1.390 . S
C208 C209 1.391 . S
C208 H235 0.930 . S
C209 C205 1.387 . S
C209 C208 1.391 . S
C210 Tb200 2.825 . S
C210 C204 1.507 . S
C210 O223 1.238 . S
C210 O224 1.247 . S
O211 Tb200 2.347 . S
O211 C215 1.259 . S
O212 Eu201 2.418 . S
O212 C215 1.265 . S
O213 Eu201 2.384 . S
O213 C222 1.255 . S
O214 Tb200 2.366 . S
O214 C222 1.265 . S
C215 O211 1.259 . S
C215 O212 1.265 . S
O216 Eu201 2.479 . S
O216 C231 1.237 . S
O217 Eu201 2.471 . S
O217 C231 1.247 . S
O218 Eu201 2.347 . S
O218 C202 1.259 . S
O219 Tb200 2.418 . S
O219 C202 1.265 . S
O220 Tb200 2.384 . S
O220 C203 1.255 . S
O221 Eu201 2.366 . S
O221 C203 1.265 . S
C222 O213 1.255 . S
C222 O214 1.265 . S
O223 Tb200 2.479 . S
O223 C210 1.238 . S
O224 Tb200 2.471 . S
O224 C210 1.247 . S
C225 C228 1.380 . S
C225 C229 1.374 . S
C225 C231 1.507 1_565 S
C226 C227 1.387 . S
C226 C230 1.391 . S
C227 C226 1.387 . S
C227 C228 1.384 . S
C227 H236 0.930 . S
C228 C225 1.380 . S
C228 C227 1.384 . S
C228 H237 0.931 . S
C229 C225 1.374 . S
C229 C230 1.390 . S
C229 H238 0.930 . S
C230 C226 1.391 . S
C230 C229 1.390 . S
C230 H239 0.930 . S
C231 Eu201 2.825 . S
C231 O216 1.237 . S
C231 O217 1.247 . S
C231 C225 1.507 1_545 S
H232 C205 0.930 . S
H233 C206 0.931 . S
H234 C207 0.930 . S
H235 C208 0.930 . S
H236 C227 0.930 . S
H237 C228 0.931 . S
H238 C229 0.930 . S
H239 C230 0.930 . S
Tb240 C250 2.825 . S
Tb240 O251 2.347 . S
Tb240 O254 2.366 . S
Tb240 O259 2.418 . S
Tb240 O260 2.384 . S
Tb240 O263 2.479 . S
Tb240 O264 2.471 . S
Eu241 O252 2.418 . S
Eu241 O253 2.384 . S
Eu241 O256 2.479 . S
Eu241 O257 2.471 . S
Eu241 O258 2.347 . S
Eu241 O261 2.366 . S
Eu241 C271 2.825 . S
C242 O258 1.259 . S
C242 O259 1.265 . S
C243 O260 1.255 . S
C243 O261 1.265 . S
C244 C246 1.380 . S
C244 C247 1.374 . S
C244 C250 1.507 . S
C245 C246 1.384 . S
C245 C249 1.387 . S
C245 H272 0.930 . S
C246 C244 1.380 . S
C246 C245 1.384 . S
C246 H273 0.931 . S
C247 C244 1.374 . S
C247 C248 1.390 . S
C247 H274 0.930 . S
C248 C247 1.390 . S
C248 C249 1.391 . S
C248 H275 0.930 . S
C249 C245 1.387 . S
C249 C248 1.391 . S
C250 Tb240 2.825 . S
C250 C244 1.507 . S
C250 O263 1.238 . S
C250 O264 1.247 . S
O251 Tb240 2.347 . S
O251 C255 1.259 . S
O252 Eu241 2.418 . S
O252 C255 1.265 . S
O253 Eu241 2.384 . S
O253 C262 1.255 . S
O254 Tb240 2.366 . S
O254 C262 1.265 . S
C255 O251 1.259 . S
C255 O252 1.265 . S
O256 Eu241 2.479 . S
O256 C271 1.238 . S
O257 Eu241 2.471 . S
O257 C271 1.247 . S
O258 Eu241 2.347 . S
O258 C242 1.259 . S
O259 Tb240 2.418 . S
O259 C242 1.265 . S
O260 Tb240 2.384 . S
O260 C243 1.255 . S
O261 Eu241 2.366 . S
O261 C243 1.265 . S
C262 O253 1.255 . S
C262 O254 1.265 . S
O263 Tb240 2.479 . S
O263 C250 1.238 . S
O264 Tb240 2.471 . S
O264 C250 1.247 . S
C265 C268 1.380 . S
C265 C269 1.374 . S
C265 C271 1.507 . S
C266 C267 1.387 . S
C266 C270 1.391 . S
C267 C266 1.387 . S
C267 C268 1.384 . S
C267 H276 0.930 . S
C268 C265 1.380 . S
C268 C267 1.384 . S
C268 H277 0.931 . S
C269 C265 1.374 . S
C269 C270 1.390 . S
C269 H278 0.930 . S
C270 C266 1.391 . S
C270 C269 1.390 . S
C270 H279 0.930 . S
C271 Eu241 2.825 . S
C271 O256 1.238 . S
C271 O257 1.247 . S
C271 C265 1.507 . S
H272 C245 0.930 . S
H273 C246 0.931 . S
H274 C247 0.930 . S
H275 C248 0.930 . S
H276 C267 0.930 . S
H277 C268 0.931 . S
H278 C269 0.930 . S
H279 C270 0.930 . S
Tb280 C290 2.825 . S
Tb280 O291 2.347 . S
Tb280 O294 2.366 . S
Tb280 O299 2.418 . S
Tb280 O300 2.384 . S
Tb280 O303 2.479 . S
Tb280 O304 2.471 . S
Eu281 O292 2.418 . S
Eu281 O293 2.384 . S
Eu281 O296 2.479 . S
Eu281 O297 2.471 . S
Eu281 O298 2.347 . S
Eu281 O301 2.366 . S
Eu281 C311 2.825 . S
C282 O298 1.259 . S
C282 O299 1.265 . S
C283 O300 1.255 . S
C283 O301 1.265 . S
C284 C286 1.380 . S
C284 C287 1.374 . S
C284 C290 1.507 . S
C285 C286 1.384 . S
C285 C289 1.387 . S
C285 H312 0.930 . S
C286 C284 1.380 . S
C286 C285 1.384 . S
C286 H313 0.931 . S
C287 C284 1.374 . S
C287 C288 1.390 . S
C287 H314 0.930 . S
C288 C287 1.390 . S
C288 C289 1.391 . S
C288 H315 0.930 . S
C289 C285 1.387 . S
C289 C288 1.391 . S
C290 Tb280 2.825 . S
C290 C284 1.507 . S
C290 O303 1.238 . S
C290 O304 1.247 . S
O291 Tb280 2.347 . S
O291 C295 1.259 . S
O292 Eu281 2.418 . S
O292 C295 1.265 . S
O293 Eu281 2.384 . S
O293 C302 1.255 . S
O294 Tb280 2.366 . S
O294 C302 1.265 . S
C295 O291 1.259 . S
C295 O292 1.265 . S
O296 Eu281 2.479 . S
O296 C311 1.237 . S
O297 Eu281 2.471 . S
O297 C311 1.247 . S
O298 Eu281 2.347 . S
O298 C282 1.259 . S
O299 Tb280 2.418 . S
O299 C282 1.265 . S
O300 Tb280 2.384 . S
O300 C283 1.255 . S
O301 Eu281 2.366 . S
O301 C283 1.265 . S
C302 O293 1.255 . S
C302 O294 1.265 . S
O303 Tb280 2.479 . S
O303 C290 1.238 . S
O304 Tb280 2.471 . S
O304 C290 1.247 . S
C305 C308 1.380 . S
C305 C309 1.374 . S
C305 C311 1.507 1_455 S
C306 C307 1.387 . S
C306 C310 1.391 . S
C307 C306 1.387 . S
C307 C308 1.384 . S
C307 H316 0.930 . S
C308 C305 1.380 . S
C308 C307 1.384 . S
C308 H317 0.931 . S
C309 C305 1.374 . S
C309 C310 1.390 . S
C309 H318 0.930 . S
C310 C306 1.391 . S
C310 C309 1.390 . S
C310 H319 0.930 . S
C311 Eu281 2.825 . S
C311 O296 1.237 . S
C311 O297 1.247 . S
C311 C305 1.507 1_655 S
H312 C285 0.930 . S
H313 C286 0.931 . S
H314 C287 0.930 . S
H315 C288 0.930 . S
H316 C307 0.930 . S
H317 C308 0.931 . S
H318 C309 0.930 . S
H319 C310 0.930 . S
Tb320 C330 2.825 . S
Tb320 O331 2.347 . S
Tb320 O334 2.366 . S
Tb320 O339 2.418 . S
Tb320 O340 2.384 . S
Tb320 O343 2.479 . S
Tb320 O344 2.471 . S
Eu321 O332 2.418 . S
Eu321 O333 2.384 . S
Eu321 O336 2.479 . S
Eu321 O337 2.471 . S
Eu321 O338 2.347 . S
Eu321 O341 2.366 . S
Eu321 C351 2.824 . S
C322 O338 1.259 . S
C322 O339 1.265 . S
C323 O340 1.255 . S
C323 O341 1.265 . S
C324 C326 1.380 . S
C324 C327 1.374 . S
C324 C330 1.507 . S
C325 C326 1.384 . S
C325 C329 1.387 . S
C325 H352 0.930 . S
C326 C324 1.380 . S
C326 C325 1.384 . S
C326 H353 0.931 . S
C327 C324 1.374 . S
C327 C328 1.390 . S
C327 H354 0.930 . S
C328 C327 1.390 . S
C328 C329 1.391 . S
C328 H355 0.930 . S
C329 C325 1.387 . S
C329 C328 1.391 . S
C330 Tb320 2.825 . S
C330 C324 1.507 . S
C330 O343 1.238 . S
C330 O344 1.247 . S
O331 Tb320 2.347 . S
O331 C335 1.259 . S
O332 Eu321 2.418 . S
O332 C335 1.265 . S
O333 Eu321 2.384 . S
O333 C342 1.255 . S
O334 Tb320 2.366 . S
O334 C342 1.265 . S
C335 O331 1.259 . S
C335 O332 1.265 . S
O336 Eu321 2.479 . S
O336 C351 1.237 . S
O337 Eu321 2.471 . S
O337 C351 1.247 . S
O338 Eu321 2.347 . S
O338 C322 1.259 . S
O339 Tb320 2.418 . S
O339 C322 1.265 . S
O340 Tb320 2.384 . S
O340 C323 1.255 . S
O341 Eu321 2.366 . S
O341 C323 1.265 . S
C342 O333 1.255 . S
C342 O334 1.265 . S
O343 Tb320 2.479 . S
O343 C330 1.238 . S
O344 Tb320 2.471 . S
O344 C330 1.247 . S
C345 C348 1.380 . S
C345 C349 1.374 . S
C345 C351 1.508 1_545 S
C346 C347 1.387 . S
C346 C350 1.391 . S
C347 C346 1.387 . S
C347 C348 1.384 . S
C347 H356 0.930 . S
C348 C345 1.380 . S
C348 C347 1.384 . S
C348 H357 0.931 . S
C349 C345 1.374 . S
C349 C350 1.390 . S
C349 H358 0.930 . S
C350 C346 1.391 . S
C350 C349 1.390 . S
C350 H359 0.930 . S
C351 Eu321 2.824 . S
C351 O336 1.237 . S
C351 O337 1.247 . S
C351 C345 1.508 1_565 S
H352 C325 0.930 . S
H353 C326 0.931 . S
H354 C327 0.930 . S
H355 C328 0.930 . S
H356 C347 0.930 . S
H357 C348 0.931 . S
H358 C349 0.930 . S
H359 C350 0.930 . S
Tb360 C370 2.825 . S
Tb360 O371 2.347 . S
Tb360 O374 2.366 . S
Tb360 O379 2.418 . S
Tb360 O380 2.384 . S
Tb360 O383 2.479 . S
Tb360 O384 2.471 . S
Eu361 O372 2.418 . S
Eu361 O373 2.384 . S
Eu361 O376 2.479 . S
Eu361 O377 2.471 . S
Eu361 O378 2.347 . S
Eu361 O381 2.366 . S
Eu361 C391 2.825 . S
C362 O378 1.259 . S
C362 O379 1.265 . S
C363 O380 1.255 . S
C363 O381 1.265 . S
C364 C366 1.380 . S
C364 C367 1.374 . S
C364 C370 1.507 . S
C365 C366 1.384 . S
C365 C369 1.387 . S
C365 H392 0.930 . S
C366 C364 1.380 . S
C366 C365 1.384 . S
C366 H393 0.931 . S
C367 C364 1.374 . S
C367 C368 1.390 . S
C367 H394 0.930 . S
C368 C367 1.390 . S
C368 C369 1.391 . S
C368 H395 0.930 . S
C369 C365 1.387 . S
C369 C368 1.391 . S
C370 Tb360 2.825 . S
C370 C364 1.507 . S
C370 O383 1.238 . S
C370 O384 1.247 . S
O371 Tb360 2.347 . S
O371 C375 1.259 . S
O372 Eu361 2.418 . S
O372 C375 1.265 . S
O373 Eu361 2.384 . S
O373 C382 1.255 . S
O374 Tb360 2.366 . S
O374 C382 1.265 . S
C375 O371 1.259 . S
C375 O372 1.265 . S
O376 Eu361 2.479 . S
O376 C391 1.238 . S
O377 Eu361 2.471 . S
O377 C391 1.247 . S
O378 Eu361 2.347 . S
O378 C362 1.259 . S
O379 Tb360 2.418 . S
O379 C362 1.265 . S
O380 Tb360 2.384 . S
O380 C363 1.255 . S
O381 Eu361 2.366 . S
O381 C363 1.265 . S
C382 O373 1.255 . S
C382 O374 1.265 . S
O383 Tb360 2.479 . S
O383 C370 1.238 . S
O384 Tb360 2.471 . S
O384 C370 1.247 . S
C385 C388 1.380 . S
C385 C389 1.374 . S
C385 C391 1.507 . S
C386 C387 1.387 . S
C386 C390 1.391 . S
C387 C386 1.387 . S
C387 C388 1.384 . S
C387 H396 0.930 . S
C388 C385 1.380 . S
C388 C387 1.384 . S
C388 H397 0.931 . S
C389 C385 1.374 . S
C389 C390 1.390 . S
C389 H398 0.930 . S
C390 C386 1.391 . S
C390 C389 1.390 . S
C390 H399 0.930 . S
C391 Eu361 2.825 . S
C391 O376 1.238 . S
C391 O377 1.247 . S
C391 C385 1.507 . S
H392 C365 0.930 . S
H393 C366 0.931 . S
H394 C367 0.930 . S
H395 C368 0.930 . S
H396 C387 0.930 . S
H397 C388 0.931 . S
H398 C389 0.930 . S
H399 C390 0.930 . S
Tb400 C410 2.825 . S
Tb400 O411 2.347 . S
Tb400 O414 2.366 . S
Tb400 O419 2.418 . S
Tb400 O420 2.384 . S
Tb400 O423 2.479 . S
Tb400 O424 2.471 . S
Eu401 O412 2.418 . S
Eu401 O413 2.384 . S
Eu401 O416 2.479 . S
Eu401 O417 2.471 . S
Eu401 O418 2.347 . S
Eu401 O421 2.366 . S
Eu401 C431 2.825 . S
C402 O418 1.259 . S
C402 O419 1.265 . S
C403 O420 1.255 . S
C403 O421 1.265 . S
C404 C406 1.380 . S
C404 C407 1.374 . S
C404 C410 1.507 . S
C405 C406 1.384 . S
C405 C409 1.387 . S
C405 H432 0.930 . S
C406 C404 1.380 . S
C406 C405 1.384 . S
C406 H433 0.931 . S
C407 C404 1.374 . S
C407 C408 1.390 . S
C407 H434 0.930 . S
C408 C407 1.390 . S
C408 C409 1.391 . S
C408 H435 0.930 . S
C409 C405 1.387 . S
C409 C408 1.391 . S
C410 Tb400 2.825 . S
C410 C404 1.507 . S
C410 O423 1.238 . S
C410 O424 1.247 . S
O411 Tb400 2.347 . S
O411 C415 1.259 . S
O412 Eu401 2.418 . S
O412 C415 1.265 . S
O413 Eu401 2.384 . S
O413 C422 1.255 . S
O414 Tb400 2.366 . S
O414 C422 1.265 . S
C415 O411 1.259 . S
C415 O412 1.265 . S
O416 Eu401 2.479 . S
O416 C431 1.237 . S
O417 Eu401 2.471 . S
O417 C431 1.247 . S
O418 Eu401 2.347 . S
O418 C402 1.259 . S
O419 Tb400 2.418 . S
O419 C402 1.265 . S
O420 Tb400 2.384 . S
O420 C403 1.255 . S
O421 Eu401 2.366 . S
O421 C403 1.265 . S
C422 O413 1.255 . S
C422 O414 1.265 . S
O423 Tb400 2.479 . S
O423 C410 1.238 . S
O424 Tb400 2.471 . S
O424 C410 1.247 . S
C425 C428 1.380 . S
C425 C429 1.374 . S
C425 C431 1.507 1_655 S
C426 C427 1.387 . S
C426 C430 1.391 . S
C427 C426 1.387 . S
C427 C428 1.384 . S
C427 H436 0.930 . S
C428 C425 1.380 . S
C428 C427 1.384 . S
C428 H437 0.931 . S
C429 C425 1.374 . S
C429 C430 1.390 . S
C429 H438 0.930 . S
C430 C426 1.391 . S
C430 C429 1.390 . S
C430 H439 0.930 . S
C431 Eu401 2.825 . S
C431 O416 1.237 . S
C431 O417 1.247 . S
C431 C425 1.507 1_455 S
H432 C405 0.930 . S
H433 C406 0.931 . S
H434 C407 0.930 . S
H435 C408 0.930 . S
H436 C427 0.930 . S
H437 C428 0.931 . S
H438 C429 0.930 . S
H439 C430 0.930 . S
Tb440 C450 2.825 . S
Tb440 O451 2.347 . S
Tb440 O454 2.366 . S
Tb440 O459 2.418 . S
Tb440 O460 2.384 . S
Tb440 O463 2.479 . S
Tb440 O464 2.471 . S
Eu441 O452 2.418 . S
Eu441 O453 2.384 . S
Eu441 O456 2.479 . S
Eu441 O457 2.471 . S
Eu441 O458 2.347 . S
Eu441 O461 2.366 . S
Eu441 C471 2.824 . S
C442 O458 1.259 . S
C442 O459 1.265 . S
C443 O460 1.255 . S
C443 O461 1.265 . S
C444 C446 1.380 . S
C444 C447 1.374 . S
C444 C450 1.507 . S
C445 C446 1.384 . S
C445 C449 1.387 . S
C445 H472 0.930 . S
C446 C444 1.380 . S
C446 C445 1.384 . S
C446 H473 0.931 . S
C447 C444 1.374 . S
C447 C448 1.390 . S
C447 H474 0.930 . S
C448 C447 1.390 . S
C448 C449 1.391 . S
C448 H475 0.930 . S
C449 C445 1.387 . S
C449 C448 1.391 . S
C450 Tb440 2.825 . S
C450 C444 1.507 . S
C450 O463 1.238 . S
C450 O464 1.247 . S
O451 Tb440 2.347 . S
O451 C455 1.259 . S
O452 Eu441 2.418 . S
O452 C455 1.265 . S
O453 Eu441 2.384 . S
O453 C462 1.255 . S
O454 Tb440 2.366 . S
O454 C462 1.265 . S
C455 O451 1.259 . S
C455 O452 1.265 . S
O456 Eu441 2.479 . S
O456 C471 1.237 . S
O457 Eu441 2.471 . S
O457 C471 1.247 . S
O458 Eu441 2.347 . S
O458 C442 1.259 . S
O459 Tb440 2.418 . S
O459 C442 1.265 . S
O460 Tb440 2.384 . S
O460 C443 1.255 . S
O461 Eu441 2.366 . S
O461 C443 1.265 . S
C462 O453 1.255 . S
C462 O454 1.265 . S
O463 Tb440 2.479 . S
O463 C450 1.238 . S
O464 Tb440 2.471 . S
O464 C450 1.247 . S
C465 C468 1.380 . S
C465 C469 1.374 . S
C465 C471 1.508 1_565 S
C466 C467 1.387 . S
C466 C470 1.391 . S
C467 C466 1.387 . S
C467 C468 1.384 . S
C467 H476 0.930 . S
C468 C465 1.380 . S
C468 C467 1.384 . S
C468 H477 0.931 . S
C469 C465 1.374 . S
C469 C470 1.390 . S
C469 H478 0.930 . S
C470 C466 1.391 . S
C470 C469 1.390 . S
C470 H479 0.930 . S
C471 Eu441 2.824 . S
C471 O456 1.237 . S
C471 O457 1.247 . S
C471 C465 1.508 1_545 S
H472 C445 0.930 . S
H473 C446 0.931 . S
H474 C447 0.930 . S
H475 C448 0.930 . S
H476 C467 0.930 . S
H477 C468 0.931 . S
H478 C469 0.930 . S
H479 C470 0.930 . S
C480 C481 1.363 . S
C480 C486 1.379 . S
C480 N488 1.356 . S
C481 C480 1.363 . S
C481 C487 1.363 . S
C482 C483 1.363 . S
C482 C487 1.379 1_545 S
C482 N489 1.356 . S
C483 C482 1.363 . S
C483 C486 1.363 1_545 S
N484 C486 1.356 1_545 S
N484 H496 0.984 1_545 S
N484 H497 0.985 . S
N485 C487 1.356 . S
N485 H490 0.984 . S
N485 H491 0.985 . S
C486 C480 1.379 . S
C486 C483 1.363 1_565 S
C486 N484 1.356 1_565 S
C487 C481 1.363 . S
C487 C482 1.379 1_565 S
C487 N485 1.356 . S
N488 C480 1.356 . S
N488 H494 0.984 . S
N488 H495 0.984 . S
N489 C482 1.356 . S
N489 H492 0.984 . S
N489 H493 0.985 . S
H490 N485 0.984 . S
H491 N485 0.985 . S
H492 N489 0.984 . S
H493 N489 0.985 . S
H494 N488 0.984 . S
H495 N488 0.984 . S
H496 N484 0.984 1_565 S
H497 N484 0.985 . S
C498 C499 1.363 . S
C498 C504 1.379 . S
C498 N506 1.356 . S
C499 C498 1.363 . S
C499 C505 1.363 . S
C500 C501 1.363 . S
C500 C505 1.379 . S
C500 N507 1.356 . S
C501 C500 1.363 . S
C501 C504 1.363 . S
N502 C504 1.356 . S
N502 H514 0.984 . S
N502 H515 0.985 . S
N503 C505 1.356 . S
N503 H508 0.984 . S
N503 H509 0.985 . S
C504 C498 1.379 . S
C504 C501 1.363 . S
C504 N502 1.356 . S
C505 C499 1.363 . S
C505 C500 1.379 . S
C505 N503 1.356 . S
N506 C498 1.356 . S
N506 H512 0.984 . S
N506 H513 0.984 . S
N507 C500 1.356 . S
N507 H510 0.984 . S
N507 H511 0.985 . S
H508 N503 0.984 . S
H509 N503 0.985 . S
H510 N507 0.984 . S
H511 N507 0.985 . S
H512 N506 0.984 . S
H513 N506 0.984 . S
H514 N502 0.984 . S
H515 N502 0.985 . S
C516 C517 1.363 1_455 S
C516 C522 1.379 . S
C516 N524 1.356 1_455 S
C517 C516 1.363 1_655 S
C517 C523 1.363 . S
C518 C519 1.363 . S
C518 C523 1.378 1_455 S
C518 N525 1.356 . S
C519 C518 1.363 . S
C519 C522 1.363 . S
N520 C522 1.356 . S
N520 H532 0.984 . S
N520 H533 0.985 . S
N521 C523 1.356 . S
N521 H526 0.984 . S
N521 H527 0.985 . S
C522 C516 1.379 . S
C522 C519 1.363 . S
C522 N520 1.356 . S
C523 C517 1.363 . S
C523 C518 1.378 1_655 S
C523 N521 1.356 . S
N524 C516 1.356 1_655 S
N524 H530 0.984 . S
N524 H531 0.984 . S
N525 C518 1.356 . S
N525 H528 0.984 . S
N525 H529 0.985 . S
H526 N521 0.984 . S
H527 N521 0.985 . S
H528 N525 0.984 . S
H529 N525 0.985 . S
H530 N524 0.984 . S
H531 N524 0.984 . S
H532 N520 0.984 . S
H533 N520 0.985 . S
C534 C535 1.363 . S
C534 C540 1.379 1_565 S
C534 N542 1.356 . S
C535 C534 1.363 . S
C535 C541 1.363 1_565 S
C536 C537 1.363 . S
C536 C541 1.379 . S
C536 N543 1.356 . S
C537 C536 1.363 . S
C537 C540 1.363 . S
N538 C540 1.356 . S
N538 H550 0.984 . S
N538 H551 0.985 . S
N539 C541 1.356 1_565 S
N539 H544 0.984 . S
N539 H545 0.985 1_565 S
C540 C534 1.379 1_545 S
C540 C537 1.363 . S
C540 N538 1.356 . S
C541 C535 1.363 1_545 S
C541 C536 1.379 . S
C541 N539 1.356 1_545 S
N542 C534 1.356 . S
N542 H548 0.984 . S
N542 H549 0.984 . S
N543 C536 1.356 . S
N543 H546 0.984 . S
N543 H547 0.985 . S
H544 N539 0.984 . S
H545 N539 0.985 1_545 S
H546 N543 0.984 . S
H547 N543 0.985 . S
H548 N542 0.984 . S
H549 N542 0.984 . S
H550 N538 0.984 . S
H551 N538 0.985 . S
C552 C553 1.363 . S
C552 C558 1.379 . S
C552 N560 1.356 . S
C553 C552 1.363 . S
C553 C559 1.363 . S
C554 C555 1.363 . S
C554 C559 1.379 . S
C554 N561 1.356 . S
C555 C554 1.363 . S
C555 C558 1.363 . S
N556 C558 1.356 . S
N556 H568 0.984 . S
N556 H569 0.985 . S
N557 C559 1.356 . S
N557 H562 0.984 . S
N557 H563 0.985 . S
C558 C552 1.379 . S
C558 C555 1.363 . S
C558 N556 1.356 . S
C559 C553 1.363 . S
C559 C554 1.379 . S
C559 N557 1.356 . S
N560 C552 1.356 . S
N560 H566 0.984 . S
N560 H567 0.984 . S
N561 C554 1.356 . S
N561 H564 0.984 . S
N561 H565 0.985 . S
H562 N557 0.984 . S
H563 N557 0.985 . S
H564 N561 0.984 . S
H565 N561 0.985 . S
H566 N560 0.984 . S
H567 N560 0.984 . S
H568 N556 0.984 . S
H569 N556 0.985 . S
C570 C571 1.363 . S
C570 C576 1.379 1_655 S
C570 N578 1.356 . S
C571 C570 1.363 . S
C571 C577 1.363 . S
C572 C573 1.363 1_655 S
C572 C577 1.379 . S
C572 N579 1.356 1_655 S
C573 C572 1.363 1_455 S
C573 C576 1.363 . S
N574 C576 1.356 . S
N574 H586 0.984 . S
N574 H587 0.985 . S
N575 C577 1.356 . S
N575 H580 0.984 . S
N575 H581 0.985 . S
C576 C570 1.379 1_455 S
C576 C573 1.363 . S
C576 N574 1.356 . S
C577 C571 1.363 . S
C577 C572 1.379 . S
C577 N575 1.356 . S
N578 C570 1.356 . S
N578 H584 0.984 . S
N578 H585 0.984 . S
N579 C572 1.356 1_455 S
N579 H582 0.984 . S
N579 H583 0.985 1_455 S
H580 N575 0.984 . S
H581 N575 0.985 . S
H582 N579 0.984 . S
H583 N579 0.985 1_655 S
H584 N578 0.984 . S
H585 N578 0.984 . S
H586 N574 0.984 . S
H587 N574 0.985 . S
C588 C589 1.363 . S
C588 C594 1.379 1_455 S
C588 N596 1.356 . S
C589 C588 1.363 . S
C589 C595 1.363 . S
C590 C591 1.363 1_455 S
C590 C595 1.379 . S
C590 N597 1.356 1_455 S
C591 C590 1.363 1_655 S
C591 C594 1.363 . S
N592 C594 1.356 . S
N592 H604 0.984 . S
N592 H605 0.985 . S
N593 C595 1.356 . S
N593 H598 0.984 . S
N593 H599 0.985 . S
C594 C588 1.379 1_655 S
C594 C591 1.363 . S
C594 N592 1.356 . S
C595 C589 1.363 . S
C595 C590 1.379 . S
C595 N593 1.356 . S
N596 C588 1.356 . S
N596 H602 0.984 . S
N596 H603 0.984 . S
N597 C590 1.356 1_655 S
N597 H600 0.984 . S
N597 H601 0.985 1_655 S
H598 N593 0.984 . S
H599 N593 0.985 . S
H600 N597 0.984 . S
H601 N597 0.985 1_455 S
H602 N596 0.984 . S
H603 N596 0.984 . S
H604 N592 0.984 . S
H605 N592 0.985 . S
C606 C607 1.363 . S
C606 C612 1.379 1_565 S
C606 N614 1.356 . S
C607 C606 1.363 . S
C607 C613 1.363 1_565 S
C608 C609 1.363 . S
C608 C613 1.379 . S
C608 N615 1.356 . S
C609 C608 1.363 . S
C609 C612 1.363 . S
N610 C612 1.356 . S
N610 H622 0.984 . S
N610 H623 0.985 . S
N611 C613 1.356 1_565 S
N611 H616 0.984 . S
N611 H617 0.985 . S
C612 C606 1.379 1_545 S
C612 C609 1.363 . S
C612 N610 1.356 . S
C613 C607 1.363 1_545 S
C613 C608 1.379 . S
C613 N611 1.356 1_545 S
N614 C606 1.356 . S
N614 H620 0.984 . S
N614 H621 0.984 . S
N615 C608 1.356 . S
N615 H618 0.984 . S
N615 H619 0.985 . S
H616 N611 0.984 . S
H617 N611 0.985 . S
H618 N615 0.984 . S
H619 N615 0.985 . S
H620 N614 0.984 . S
H621 N614 0.984 . S
H622 N610 0.984 . S
H623 N610 0.985 . S
C624 C625 1.363 . S
C624 C630 1.379 . S
C624 N632 1.356 . S
C625 C624 1.363 . S
C625 C631 1.363 . S
C626 C627 1.363 . S
C626 C631 1.379 . S
C626 N633 1.356 . S
C627 C626 1.363 . S
C627 C630 1.363 . S
N628 C630 1.356 . S
N628 H640 0.984 . S
N628 H641 0.985 . S
N629 C631 1.356 . S
N629 H634 0.984 . S
N629 H635 0.985 . S
C630 C624 1.379 . S
C630 C627 1.363 . S
C630 N628 1.356 . S
C631 C625 1.363 . S
C631 C626 1.379 . S
C631 N629 1.356 . S
N632 C624 1.356 . S
N632 H638 0.984 . S
N632 H639 0.984 . S
N633 C626 1.356 . S
N633 H636 0.984 . S
N633 H637 0.985 . S
H634 N629 0.984 . S
H635 N629 0.985 . S
H636 N633 0.984 . S
H637 N633 0.985 . S
H638 N632 0.984 . S
H639 N632 0.984 . S
H640 N628 0.984 . S
H641 N628 0.985 . S
C642 C643 1.363 1_655 S
C642 C648 1.379 . S
C642 N650 1.356 1_655 S
C643 C642 1.363 1_455 S
C643 C649 1.363 . S
C644 C645 1.363 . S
C644 C649 1.379 1_655 S
C644 N651 1.356 . S
C645 C644 1.363 . S
C645 C648 1.363 . S
N646 C648 1.356 . S
N646 H658 0.984 . S
N646 H659 0.985 . S
N647 C649 1.356 . S
N647 H652 0.984 . S
N647 H653 0.985 . S
C648 C642 1.379 . S
C648 C645 1.363 . S
C648 N646 1.356 . S
C649 C643 1.363 . S
C649 C644 1.379 1_455 S
C649 N647 1.356 . S
N650 C642 1.356 1_455 S
N650 H656 0.984 1_455 S
N650 H657 0.984 . S
N651 C644 1.356 . S
N651 H654 0.984 . S
N651 H655 0.985 . S
H652 N647 0.984 . S
H653 N647 0.985 . S
H654 N651 0.984 . S
H655 N651 0.985 . S
H656 N650 0.984 1_655 S
H657 N650 0.984 . S
H658 N646 0.984 . S
H659 N646 0.985 . S
C660 C661 1.363 1_565 S
C660 C666 1.379 . S
C660 N668 1.356 1_565 S
C661 C660 1.363 1_545 S
C661 C667 1.363 . S
C662 C663 1.363 . S
C662 C667 1.379 1_565 S
C662 N669 1.356 . S
C663 C662 1.363 . S
C663 C666 1.363 . S
N664 C666 1.356 . S
N664 H676 0.984 . S
N664 H677 0.985 . S
N665 C667 1.356 . S
N665 H670 0.984 . S
N665 H671 0.985 . S
C666 C660 1.379 . S
C666 C663 1.363 . S
C666 N664 1.356 . S
C667 C661 1.363 . S
C667 C662 1.379 1_545 S
C667 N665 1.356 . S
N668 C660 1.356 1_545 S
N668 H674 0.984 . S
N668 H675 0.984 . S
N669 C662 1.356 . S
N669 H672 0.984 . S
N669 H673 0.985 . S
H670 N665 0.984 . S
H671 N665 0.985 . S
H672 N669 0.984 . S
H673 N669 0.985 . S
H674 N668 0.984 . S
H675 N668 0.984 . S
H676 N664 0.984 . S
H677 N664 0.985 . S
C678 C679 1.363 . S
C678 C684 1.379 . S
C678 N686 1.356 . S
C679 C678 1.363 . S
C679 C685 1.363 . S
C680 C681 1.363 . S
C680 C685 1.379 . S
C680 N687 1.356 . S
C681 C680 1.363 . S
C681 C684 1.363 . S
N682 C684 1.356 . S
N682 H694 0.984 . S
N682 H695 0.985 . S
N683 C685 1.356 . S
N683 H688 0.984 . S
N683 H689 0.985 . S
C684 C678 1.379 . S
C684 C681 1.363 . S
C684 N682 1.356 . S
C685 C679 1.363 . S
C685 C680 1.379 . S
C685 N683 1.356 . S
N686 C678 1.356 . S
N686 H692 0.984 . S
N686 H693 0.984 . S
N687 C680 1.356 . S
N687 H690 0.984 . S
N687 H691 0.985 . S
H688 N683 0.984 . S
H689 N683 0.985 . S
H690 N687 0.984 . S
H691 N687 0.985 . S
H692 N686 0.984 . S
H693 N686 0.984 . S
H694 N682 0.984 . S
H695 N682 0.985 . S
C696 C697 1.363 . S
C696 C702 1.379 . S
C696 N704 1.356 . S
C697 C696 1.363 . S
C697 C703 1.363 . S
C698 C699 1.363 . S
C698 C703 1.379 . S
C698 N705 1.356 . S
C699 C698 1.363 . S
C699 C702 1.363 . S
N700 C702 1.356 . S
N700 H712 0.984 . S
N700 H713 0.985 . S
N701 C703 1.356 . S
N701 H706 0.984 . S
N701 H707 0.985 . S
C702 C696 1.379 . S
C702 C699 1.363 . S
C702 N700 1.356 . S
C703 C697 1.363 . S
C703 C698 1.379 . S
C703 N701 1.356 . S
N704 C696 1.356 . S
N704 H710 0.984 . S
N704 H711 0.984 . S
N705 C698 1.356 . S
N705 H708 0.984 . S
N705 H709 0.985 . S
H706 N701 0.984 . S
H707 N701 0.985 . S
H708 N705 0.984 . S
H709 N705 0.985 . S
H710 N704 0.984 . S
H711 N704 0.984 . S
H712 N700 0.984 . S
H713 N700 0.985 . S
C714 C715 1.363 . S
C714 C720 1.379 . S
C714 N722 1.356 . S
C715 C714 1.363 . S
C715 C721 1.363 . S
C716 C717 1.363 . S
C716 C721 1.379 . S
C716 N723 1.356 . S
C717 C716 1.363 . S
C717 C720 1.363 . S
N718 C720 1.356 . S
N718 H730 0.984 . S
N718 H731 0.985 . S
N719 C721 1.356 . S
N719 H724 0.984 . S
N719 H725 0.985 . S
C720 C714 1.379 . S
C720 C717 1.363 . S
C720 N718 1.356 . S
C721 C715 1.363 . S
C721 C716 1.379 . S
C721 N719 1.356 . S
N722 C714 1.356 . S
N722 H728 0.984 . S
N722 H729 0.984 . S
N723 C716 1.356 . S
N723 H726 0.984 . S
N723 H727 0.985 . S
H724 N719 0.984 . S
H725 N719 0.985 . S
H726 N723 0.984 . S
H727 N723 0.985 . S
H728 N722 0.984 . S
H729 N722 0.984 . S
H730 N718 0.984 . S
H731 N718 0.985 . S
C732 C733 1.363 . S
C732 C738 1.379 . S
C732 N740 1.356 . S
C733 C732 1.363 . S
C733 C739 1.363 . S
C734 C735 1.363 . S
C734 C739 1.379 . S
C734 N741 1.356 . S
C735 C734 1.363 . S
C735 C738 1.363 . S
N736 C738 1.356 . S
N736 H748 0.984 . S
N736 H749 0.985 . S
N737 C739 1.356 . S
N737 H742 0.984 . S
N737 H743 0.985 . S
C738 C732 1.379 . S
C738 C735 1.363 . S
C738 N736 1.356 . S
C739 C733 1.363 . S
C739 C734 1.379 . S
C739 N737 1.356 . S
N740 C732 1.356 . S
N740 H746 0.984 . S
N740 H747 0.984 . S
N741 C734 1.356 . S
N741 H744 0.984 . S
N741 H745 0.985 . S
H742 N737 0.984 . S
H743 N737 0.985 . S
H744 N741 0.984 . S
H745 N741 0.985 . S
H746 N740 0.984 . S
H747 N740 0.984 . S
H748 N736 0.984 . S
H749 N736 0.985 . S
C750 C751 1.363 . S
C750 C756 1.379 . S
C750 N758 1.356 . S
C751 C750 1.363 . S
C751 C757 1.363 . S
C752 C753 1.363 . S
C752 C757 1.379 . S
C752 N759 1.356 . S
C753 C752 1.363 . S
C753 C756 1.363 . S
N754 C756 1.356 . S
N754 H766 0.984 . S
N754 H767 0.985 . S
N755 C757 1.356 . S
N755 H760 0.984 . S
N755 H761 0.985 . S
C756 C750 1.379 . S
C756 C753 1.363 . S
C756 N754 1.356 . S
C757 C751 1.363 . S
C757 C752 1.379 . S
C757 N755 1.356 . S
N758 C750 1.356 . S
N758 H764 0.984 . S
N758 H765 0.984 . S
N759 C752 1.356 . S
N759 H762 0.984 . S
N759 H763 0.985 . S
H760 N755 0.984 . S
H761 N755 0.985 . S
H762 N759 0.984 . S
H763 N759 0.985 . S
H764 N758 0.984 . S
H765 N758 0.984 . S
H766 N754 0.984 . S
H767 N754 0.985 . S
C768 C769 1.363 . S
C768 C774 1.379 . S
C768 N776 1.356 . S
C769 C768 1.363 . S
C769 C775 1.363 . S
C770 C771 1.363 . S
C770 C775 1.379 . S
C770 N777 1.356 . S
C771 C770 1.363 . S
C771 C774 1.363 . S
N772 C774 1.356 . S
N772 H784 0.984 . S
N772 H785 0.985 . S
N773 C775 1.356 . S
N773 H778 0.984 . S
N773 H779 0.985 . S
C774 C768 1.379 . S
C774 C771 1.363 . S
C774 N772 1.356 . S
C775 C769 1.363 . S
C775 C770 1.379 . S
C775 N773 1.356 . S
N776 C768 1.356 . S
N776 H782 0.984 . S
N776 H783 0.984 . S
N777 C770 1.356 . S
N777 H780 0.984 . S
N777 H781 0.985 . S
H778 N773 0.984 . S
H779 N773 0.985 . S
H780 N777 0.984 . S
H781 N777 0.985 . S
H782 N776 0.984 . S
H783 N776 0.984 . S
H784 N772 0.984 . S
H785 N772 0.985 . S
C786 C787 1.363 . S
C786 C792 1.379 . S
C786 N794 1.356 . S
C787 C786 1.363 . S
C787 C793 1.363 . S
C788 C789 1.363 . S
C788 C793 1.379 . S
C788 N795 1.356 . S
C789 C788 1.363 . S
C789 C792 1.363 . S
N790 C792 1.356 . S
N790 H802 0.984 . S
N790 H803 0.985 . S
N791 C793 1.356 . S
N791 H796 0.984 . S
N791 H797 0.985 . S
C792 C786 1.379 . S
C792 C789 1.363 . S
C792 N790 1.356 . S
C793 C787 1.363 . S
C793 C788 1.379 . S
C793 N791 1.356 . S
N794 C786 1.356 . S
N794 H800 0.984 . S
N794 H801 0.984 . S
N795 C788 1.356 . S
N795 H798 0.984 . S
N795 H799 0.985 . S
H796 N791 0.984 . S
H797 N791 0.985 . S
H798 N795 0.984 . S
H799 N795 0.985 . S
H800 N794 0.984 . S
H801 N794 0.984 . S
H802 N790 0.984 . S
H803 N790 0.985 . S
C804 C805 1.363 . S
C804 C810 1.379 . S
C804 N812 1.356 . S
C805 C804 1.363 . S
C805 C811 1.363 . S
C806 C807 1.363 . S
C806 C811 1.379 . S
C806 N813 1.356 . S
C807 C806 1.363 . S
C807 C810 1.363 . S
N808 C810 1.356 . S
N808 H820 0.984 . S
N808 H821 0.985 . S
N809 C811 1.356 . S
N809 H814 0.984 . S
N809 H815 0.985 . S
C810 C804 1.379 . S
C810 C807 1.363 . S
C810 N808 1.356 . S
C811 C805 1.363 . S
C811 C806 1.379 . S
C811 N809 1.356 . S
N812 C804 1.356 . S
N812 H818 0.984 . S
N812 H819 0.984 . S
N813 C806 1.356 . S
N813 H816 0.984 . S
N813 H817 0.985 . S
H814 N809 0.984 . S
H815 N809 0.985 . S
H816 N813 0.984 . S
H817 N813 0.985 . S
H818 N812 0.984 . S
H819 N812 0.984 . S
H820 N808 0.984 . S
H821 N808 0.985 . S
C822 C823 1.363 . S
C822 C828 1.379 . S
C822 N830 1.356 . S
C823 C822 1.363 . S
C823 C829 1.363 . S
C824 C825 1.363 . S
C824 C829 1.379 . S
C824 N831 1.356 . S
C825 C824 1.363 . S
C825 C828 1.363 . S
N826 C828 1.356 . S
N826 H838 0.984 . S
N826 H839 0.985 . S
N827 C829 1.356 . S
N827 H832 0.984 . S
N827 H833 0.985 . S
C828 C822 1.379 . S
C828 C825 1.363 . S
C828 N826 1.356 . S
C829 C823 1.363 . S
C829 C824 1.379 . S
C829 N827 1.356 . S
N830 C822 1.356 . S
N830 H836 0.984 . S
N830 H837 0.984 . S
N831 C824 1.356 . S
N831 H834 0.984 . S
N831 H835 0.985 . S
H832 N827 0.984 . S
H833 N827 0.985 . S
H834 N831 0.984 . S
H835 N831 0.985 . S
H836 N830 0.984 . S
H837 N830 0.984 . S
H838 N826 0.984 . S
H839 N826 0.985 . S
C840 C841 1.363 . S
C840 C846 1.379 . S
C840 N848 1.356 . S
C841 C840 1.363 . S
C841 C847 1.363 . S
C842 C843 1.363 . S
C842 C847 1.379 . S
C842 N849 1.356 . S
C843 C842 1.363 . S
C843 C846 1.363 . S
N844 C846 1.356 . S
N844 H856 0.984 . S
N844 H857 0.985 . S
N845 C847 1.356 . S
N845 H850 0.984 . S
N845 H851 0.985 . S
C846 C840 1.379 . S
C846 C843 1.363 . S
C846 N844 1.356 . S
C847 C841 1.363 . S
C847 C842 1.379 . S
C847 N845 1.356 . S
N848 C840 1.356 . S
N848 H854 0.984 . S
N848 H855 0.984 . S
N849 C842 1.356 . S
N849 H852 0.984 . S
N849 H853 0.985 . S
H850 N845 0.984 . S
H851 N845 0.985 . S
H852 N849 0.984 . S
H853 N849 0.985 . S
H854 N848 0.984 . S
H855 N848 0.984 . S
H856 N844 0.984 . S
H857 N844 0.985 . S
C858 C859 1.363 . S
C858 C864 1.379 . S
C858 N866 1.356 . S
C859 C858 1.363 . S
C859 C865 1.363 . S
C860 C861 1.363 . S
C860 C865 1.379 . S
C860 N867 1.356 . S
C861 C860 1.363 . S
C861 C864 1.363 . S
N862 C864 1.356 . S
N862 H874 0.984 . S
N862 H875 0.985 . S
N863 C865 1.356 . S
N863 H868 0.984 . S
N863 H869 0.985 . S
C864 C858 1.379 . S
C864 C861 1.363 . S
C864 N862 1.356 . S
C865 C859 1.363 . S
C865 C860 1.379 . S
C865 N863 1.356 . S
N866 C858 1.356 . S
N866 H872 0.984 . S
N866 H873 0.984 . S
N867 C860 1.356 . S
N867 H870 0.984 . S
N867 H871 0.985 . S
H868 N863 0.984 . S
H869 N863 0.985 . S
H870 N867 0.984 . S
H871 N867 0.985 . S
H872 N866 0.984 . S
H873 N866 0.984 . S
H874 N862 0.984 . S
H875 N862 0.985 . S
C876 C877 1.363 . S
C876 C882 1.379 . S
C876 N884 1.356 . S
C877 C876 1.363 . S
C877 C883 1.363 . S
C878 C879 1.363 . S
C878 C883 1.379 . S
C878 N885 1.356 . S
C879 C878 1.363 . S
C879 C882 1.363 . S
N880 C882 1.356 . S
N880 H892 0.984 . S
N880 H893 0.985 . S
N881 C883 1.356 . S
N881 H886 0.984 . S
N881 H887 0.985 . S
C882 C876 1.379 . S
C882 C879 1.363 . S
C882 N880 1.356 . S
C883 C877 1.363 . S
C883 C878 1.379 . S
C883 N881 1.356 . S
N884 C876 1.356 . S
N884 H890 0.984 . S
N884 H891 0.984 . S
N885 C878 1.356 . S
N885 H888 0.984 . S
N885 H889 0.985 . S
H886 N881 0.984 . S
H887 N881 0.985 . S
H888 N885 0.984 . S
H889 N885 0.985 . S
H890 N884 0.984 . S
H891 N884 0.984 . S
H892 N880 0.984 . S
H893 N880 0.985 . S
C894 C895 1.363 . S
C894 C900 1.379 . S
C894 N902 1.356 . S
C895 C894 1.363 . S
C895 C901 1.363 . S
C896 C897 1.363 . S
C896 C901 1.379 . S
C896 N903 1.356 . S
C897 C896 1.363 . S
C897 C900 1.363 . S
N898 C900 1.356 . S
N898 H910 0.984 . S
N898 H911 0.985 . S
N899 C901 1.356 . S
N899 H904 0.984 . S
N899 H905 0.985 . S
C900 C894 1.379 . S
C900 C897 1.363 . S
C900 N898 1.356 . S
C901 C895 1.363 . S
C901 C896 1.379 . S
C901 N899 1.356 . S
N902 C894 1.356 . S
N902 H908 0.984 . S
N902 H909 0.984 . S
N903 C896 1.356 . S
N903 H906 0.984 . S
N903 H907 0.985 . S
H904 N899 0.984 . S
H905 N899 0.985 . S
H906 N903 0.984 . S
H907 N903 0.985 . S
H908 N902 0.984 . S
H909 N902 0.984 . S
H910 N898 0.984 . S
H911 N898 0.985 . S
C912 C913 1.363 . S
C912 C918 1.379 . S
C912 N920 1.356 . S
C913 C912 1.363 . S
C913 C919 1.363 . S
C914 C915 1.363 . S
C914 C919 1.379 . S
C914 N921 1.356 . S
C915 C914 1.363 . S
C915 C918 1.363 . S
N916 C918 1.356 . S
N916 H928 0.984 . S
N916 H929 0.985 . S
N917 C919 1.356 . S
N917 H922 0.984 . S
N917 H923 0.985 . S
C918 C912 1.379 . S
C918 C915 1.363 . S
C918 N916 1.356 . S
C919 C913 1.363 . S
C919 C914 1.379 . S
C919 N917 1.356 . S
N920 C912 1.356 . S
N920 H926 0.984 . S
N920 H927 0.984 . S
N921 C914 1.356 . S
N921 H924 0.984 . S
N921 H925 0.985 . S
H922 N917 0.984 . S
H923 N917 0.985 . S
H924 N921 0.984 . S
H925 N921 0.985 . S
H926 N920 0.984 . S
H927 N920 0.984 . S
H928 N916 0.984 . S
H929 N916 0.985 . S
C930 C931 1.363 . S
C930 C936 1.379 . S
C930 N938 1.356 . S
C931 C930 1.363 . S
C931 C937 1.363 . S
C932 C933 1.363 . S
C932 C937 1.379 . S
C932 N939 1.356 . S
C933 C932 1.363 . S
C933 C936 1.363 . S
N934 C936 1.356 . S
N934 H946 0.984 . S
N934 H947 0.985 . S
N935 C937 1.356 . S
N935 H940 0.984 . S
N935 H941 0.985 . S
C936 C930 1.379 . S
C936 C933 1.363 . S
C936 N934 1.356 . S
C937 C931 1.363 . S
C937 C932 1.379 . S
C937 N935 1.356 . S
N938 C930 1.356 . S
N938 H944 0.984 . S
N938 H945 0.984 . S
N939 C932 1.356 . S
N939 H942 0.984 . S
N939 H943 0.985 . S
H940 N935 0.984 . S
H941 N935 0.985 . S
H942 N939 0.984 . S
H943 N939 0.985 . S
H944 N938 0.984 . S
H945 N938 0.984 . S
H946 N934 0.984 . S
H947 N934 0.985 . S
C948 C949 1.363 . S
C948 C954 1.379 . S
C948 N956 1.356 . S
C949 C948 1.363 . S
C949 C955 1.363 . S
C950 C951 1.363 . S
C950 C955 1.379 . S
C950 N957 1.356 . S
C951 C950 1.363 . S
C951 C954 1.363 . S
N952 C954 1.356 . S
N952 H964 0.984 . S
N952 H965 0.985 . S
N953 C955 1.356 . S
N953 H958 0.984 . S
N953 H959 0.985 . S
C954 C948 1.379 . S
C954 C951 1.363 . S
C954 N952 1.356 . S
C955 C949 1.363 . S
C955 C950 1.379 . S
C955 N953 1.356 . S
N956 C948 1.356 . S
N956 H962 0.984 . S
N956 H963 0.984 . S
N957 C950 1.356 . S
N957 H960 0.984 . S
N957 H961 0.985 . S
H958 N953 0.984 . S
H959 N953 0.985 . S
H960 N957 0.984 . S
H961 N957 0.985 . S
H962 N956 0.984 . S
H963 N956 0.984 . S
H964 N952 0.984 . S
H965 N952 0.985 . S
C966 C967 1.363 . S
C966 C972 1.379 . S
C966 N974 1.356 . S
C967 C966 1.363 . S
C967 C973 1.363 . S
C968 C969 1.363 . S
C968 C973 1.379 . S
C968 N975 1.356 . S
C969 C968 1.363 . S
C969 C972 1.363 . S
N970 C972 1.356 . S
N970 H982 0.984 . S
N970 H983 0.985 . S
N971 C973 1.356 . S
N971 H976 0.984 . S
N971 H977 0.985 . S
C972 C966 1.379 . S
C972 C969 1.363 . S
C972 N970 1.356 . S
C973 C967 1.363 . S
C973 C968 1.379 . S
C973 N971 1.356 . S
N974 C966 1.356 . S
N974 H980 0.984 . S
N974 H981 0.984 . S
N975 C968 1.356 . S
N975 H978 0.984 . S
N975 H979 0.985 . S
H976 N971 0.984 . S
H977 N971 0.985 . S
H978 N975 0.984 . S
H979 N975 0.985 . S
H980 N974 0.984 . S
H981 N974 0.984 . S
H982 N970 0.984 . S
H983 N970 0.985 . S
C984 C985 1.363 . S
C984 C990 1.379 . S
C984 N992 1.356 . S
C985 C984 1.363 . S
C985 C991 1.363 . S
C986 C987 1.363 . S
C986 C991 1.379 . S
C986 N993 1.356 . S
C987 C986 1.363 . S
C987 C990 1.363 . S
N988 C990 1.356 . S
N988 H1000 0.984 . S
N988 H1001 0.985 . S
N989 C991 1.356 . S
N989 H994 0.984 . S
N989 H995 0.985 . S
C990 C984 1.379 . S
C990 C987 1.363 . S
C990 N988 1.356 . S
C991 C985 1.363 . S
C991 C986 1.379 . S
C991 N989 1.356 . S
N992 C984 1.356 . S
N992 H998 0.984 . S
N992 H999 0.984 . S
N993 C986 1.356 . S
N993 H996 0.984 . S
N993 H997 0.985 . S
H994 N989 0.984 . S
H995 N989 0.985 . S
H996 N993 0.984 . S
H997 N993 0.985 . S
H998 N992 0.984 . S
H999 N992 0.984 . S
H1000 N988 0.984 . S
H1001 N988 0.985 . S
C1002 C1003 1.363 . S
C1002 C1008 1.379 . S
C1002 N1010 1.356 . S
C1003 C1002 1.363 . S
C1003 C1009 1.363 . S
C1004 C1005 1.363 . S
C1004 C1009 1.379 . S
C1004 N1011 1.356 . S
C1005 C1004 1.363 . S
C1005 C1008 1.363 . S
N1006 C1008 1.356 . S
N1006 H1018 0.984 . S
N1006 H1019 0.985 . S
N1007 C1009 1.356 . S
N1007 H1012 0.984 . S
N1007 H1013 0.985 . S
C1008 C1002 1.379 . S
C1008 C1005 1.363 . S
C1008 N1006 1.356 . S
C1009 C1003 1.363 . S
C1009 C1004 1.379 . S
C1009 N1007 1.356 . S
N1010 C1002 1.356 . S
N1010 H1016 0.984 . S
N1010 H1017 0.984 . S
N1011 C1004 1.356 . S
N1011 H1014 0.984 . S
N1011 H1015 0.985 . S
H1012 N1007 0.984 . S
H1013 N1007 0.985 . S
H1014 N1011 0.984 . S
H1015 N1011 0.985 . S
H1016 N1010 0.984 . S
H1017 N1010 0.984 . S
H1018 N1006 0.984 . S
H1019 N1006 0.985 . S
C1020 C1021 1.363 1_554 S
C1020 C1026 1.379 . S
C1020 N1028 1.356 . S
C1021 C1020 1.363 1_556 S
C1021 C1027 1.363 . S
C1022 C1023 1.363 1_556 S
C1022 C1027 1.379 . S
C1022 N1029 1.356 . S
C1023 C1022 1.363 1_554 S
C1023 C1026 1.363 . S
N1024 C1026 1.356 . S
N1024 H1036 0.984 . S
N1024 H1037 0.985 . S
N1025 C1027 1.356 . S
N1025 H1030 0.984 . S
N1025 H1031 0.985 . S
C1026 C1020 1.379 . S
C1026 C1023 1.363 . S
C1026 N1024 1.356 . S
C1027 C1021 1.363 . S
C1027 C1022 1.379 . S
C1027 N1025 1.356 . S
N1028 C1020 1.356 . S
N1028 H1034 0.984 . S
N1028 H1035 0.984 . S
N1029 C1022 1.356 . S
N1029 H1032 0.984 . S
N1029 H1033 0.985 . S
H1030 N1025 0.984 . S
H1031 N1025 0.985 . S
H1032 N1029 0.984 . S
H1033 N1029 0.985 . S
H1034 N1028 0.984 . S
H1035 N1028 0.984 . S
H1036 N1024 0.984 . S
H1037 N1024 0.985 . S
C1038 C1039 1.363 . S
C1038 C1044 1.379 1_455 S
C1038 N1046 1.356 . S
C1039 C1038 1.363 . S
C1039 C1045 1.363 . S
C1040 C1041 1.363 . S
C1040 C1045 1.379 1_655 S
C1040 N1047 1.356 . S
C1041 C1040 1.363 . S
C1041 C1044 1.363 . S
N1042 C1044 1.356 . S
N1042 H1054 0.984 . S
N1042 H1055 0.985 . S
N1043 C1045 1.356 . S
N1043 H1048 0.984 . S
N1043 H1049 0.985 . S
C1044 C1038 1.379 1_655 S
C1044 C1041 1.363 . S
C1044 N1042 1.356 . S
C1045 C1039 1.363 . S
C1045 C1040 1.379 1_455 S
C1045 N1043 1.356 . S
N1046 C1038 1.356 . S
N1046 H1052 0.984 . S
N1046 H1053 0.984 . S
N1047 C1040 1.356 . S
N1047 H1050 0.984 . S
N1047 H1051 0.985 . S
H1048 N1043 0.984 . S
H1049 N1043 0.985 . S
H1050 N1047 0.984 . S
H1051 N1047 0.985 . S
H1052 N1046 0.984 . S
H1053 N1046 0.984 . S
H1054 N1042 0.984 . S
H1055 N1042 0.985 . S
C1056 C1057 1.363 . S
C1056 C1062 1.379 1_565 S
C1056 N1064 1.356 . S
C1057 C1056 1.363 . S
C1057 C1063 1.363 1_554 S
C1058 C1059 1.363 . S
C1058 C1063 1.379 1_545 S
C1058 N1065 1.356 . S
C1059 C1058 1.363 . S
C1059 C1062 1.363 1_556 S
N1060 C1062 1.356 . S
N1060 H1072 0.984 . S
N1060 H1073 0.985 . S
N1061 C1063 1.356 . S
N1061 H1066 0.984 . S
N1061 H1067 0.985 . S
C1062 C1056 1.379 1_545 S
C1062 C1059 1.363 1_554 S
C1062 N1060 1.356 . S
C1063 C1057 1.363 1_556 S
C1063 C1058 1.379 1_565 S
C1063 N1061 1.356 . S
N1064 C1056 1.356 . S
N1064 H1070 0.984 . S
N1064 H1071 0.984 . S
N1065 C1058 1.356 . S
N1065 H1068 0.984 . S
N1065 H1069 0.985 . S
H1066 N1061 0.984 . S
H1067 N1061 0.985 . S
H1068 N1065 0.984 . S
H1069 N1065 0.985 . S
H1070 N1064 0.984 . S
H1071 N1064 0.984 . S
H1072 N1060 0.984 . S
H1073 N1060 0.985 . S
C1074 C1075 1.363 . S
C1074 C1080 1.379 . S
C1074 N1082 1.356 . S
C1075 C1074 1.363 . S
C1075 C1081 1.363 . S
C1076 C1077 1.363 . S
C1076 C1081 1.379 . S
C1076 N1083 1.356 . S
C1077 C1076 1.363 . S
C1077 C1080 1.363 . S
N1078 C1080 1.356 . S
N1078 H1090 0.984 . S
N1078 H1091 0.985 . S
N1079 C1081 1.356 . S
N1079 H1084 0.984 . S
N1079 H1085 0.985 . S
C1080 C1074 1.379 . S
C1080 C1077 1.363 . S
C1080 N1078 1.356 . S
C1081 C1075 1.363 . S
C1081 C1076 1.379 . S
C1081 N1079 1.356 . S
N1082 C1074 1.356 . S
N1082 H1088 0.984 . S
N1082 H1089 0.984 . S
N1083 C1076 1.356 . S
N1083 H1086 0.984 . S
N1083 H1087 0.985 . S
H1084 N1079 0.984 . S
H1085 N1079 0.985 . S
H1086 N1083 0.984 . S
H1087 N1083 0.985 . S
H1088 N1082 0.984 . S
H1089 N1082 0.984 . S
H1090 N1078 0.984 . S
H1091 N1078 0.985 . S
C1092 C1093 1.363 1_554 S
C1092 C1098 1.379 1_655 S
C1092 N1100 1.356 . S
C1093 C1092 1.363 1_556 S
C1093 C1099 1.363 . S
C1094 C1095 1.363 1_556 S
C1094 C1099 1.379 1_455 S
C1094 N1101 1.356 . S
C1095 C1094 1.363 1_554 S
C1095 C1098 1.363 . S
N1096 C1098 1.356 . S
N1096 H1108 0.984 . S
N1096 H1109 0.985 . S
N1097 C1099 1.356 . S
N1097 H1102 0.984 . S
N1097 H1103 0.985 . S
C1098 C1092 1.379 1_455 S
C1098 C1095 1.363 . S
C1098 N1096 1.356 . S
C1099 C1093 1.363 . S
C1099 C1094 1.379 1_655 S
C1099 N1097 1.356 . S
N1100 C1092 1.356 . S
N1100 H1106 0.984 . S
N1100 H1107 0.984 . S
N1101 C1094 1.356 . S
N1101 H1104 0.984 . S
N1101 H1105 0.985 . S
H1102 N1097 0.984 . S
H1103 N1097 0.985 . S
H1104 N1101 0.984 . S
H1105 N1101 0.985 . S
H1106 N1100 0.984 . S
H1107 N1100 0.984 . S
H1108 N1096 0.984 . S
H1109 N1096 0.985 . S
C1110 C1111 1.363 . S
C1110 C1116 1.379 1_565 S
C1110 N1118 1.356 . S
C1111 C1110 1.363 . S
C1111 C1117 1.363 . S
C1112 C1113 1.363 . S
C1112 C1117 1.379 1_545 S
C1112 N1119 1.356 . S
C1113 C1112 1.363 . S
C1113 C1116 1.363 . S
N1114 C1116 1.356 . S
N1114 H1126 0.984 . S
N1114 H1127 0.985 . S
N1115 C1117 1.356 . S
N1115 H1120 0.984 . S
N1115 H1121 0.985 . S
C1116 C1110 1.379 1_545 S
C1116 C1113 1.363 . S
C1116 N1114 1.356 . S
C1117 C1111 1.363 . S
C1117 C1112 1.379 1_565 S
C1117 N1115 1.356 . S
N1118 C1110 1.356 . S
N1118 H1124 0.984 . S
N1118 H1125 0.984 . S
N1119 C1112 1.356 . S
N1119 H1122 0.984 . S
N1119 H1123 0.985 . S
H1120 N1115 0.984 . S
H1121 N1115 0.985 . S
H1122 N1119 0.984 . S
H1123 N1119 0.985 . S
H1124 N1118 0.984 . S
H1125 N1118 0.984 . S
H1126 N1114 0.984 . S
H1127 N1114 0.985 . S
C481 C163 1.401 . S
C483 C26 1.425 . S
C499 C203 1.401 . S
C501 C66 1.425 . S
C517 C106 1.425 . S
C519 C3 1.401 . S
C535 C146 1.425 . S
C537 C43 1.401 . S
C553 C186 1.425 . S
C555 C83 1.401 . S
C571 C123 1.401 . S
C573 C226 1.425 . S
C589 C323 1.401 . S
C591 C266 1.425 . S
C607 C306 1.425 . S
C609 C363 1.401 . S
C625 C403 1.401 . S
C627 C346 1.425 . S
C643 C386 1.425 . S
C645 C443 1.401 . S
C661 C426 1.425 . S
C663 C243 1.401 . S
C679 C283 1.401 . S
C681 C466 1.425 . S
C697 C182 1.825 . S
C699 C9 1.763 . S
C715 C49 1.763 . S
C717 C222 1.825 . S
C733 C89 1.763 . S
C735 C22 1.825 . S
C751 C129 1.763 . S
C753 C62 1.825 . S
C769 C102 1.825 . S
C771 C169 1.763 . S
C787 C142 1.825 . S
C789 C209 1.763 . S
C805 C342 1.825 . S
C807 C249 1.763 . S
C823 C289 1.763 . S
C825 C382 1.825 . S
C841 C329 1.763 . S
C843 C422 1.825 . S
C859 C462 1.825 . S
C861 C369 1.763 . S
C877 C409 1.763 . S
C879 C262 1.825 . S
C895 C302 1.825 . S
C897 C449 1.763 . S
C913 C415 1.636 . S
C915 C15 1.636 . S
C931 C55 1.636 . S
C933 C455 1.636 . S
C949 C95 1.636 . S
C951 C255 1.636 . S
C967 C135 1.636 . S
C969 C295 1.636 . S
C985 C175 1.636 . S
C987 C335 1.636 . S
C1003 C375 1.636 . S
C1005 C215 1.636 . S
C1021 C362 2.335 . S
C1023 C2 2.335 . S
C1039 C402 2.335 . S
C1041 C42 2.335 . S
C1057 C82 2.335 . S
C1059 C442 2.335 . S
C1075 C122 2.335 . S
C1077 C242 2.335 . S
C1093 C282 2.335 . S
C1095 C162 2.335 . S
C1111 C322 2.335 . S
C1113 C202 2.335 . S
