# Generated by pormake.
# Topology snz, (6)-cn, num edge types: 1
# Building blocks:
#     Node 0, Type 0, BuildingBlock: JUFBIX_clean_sbu_0, # of connection points: 6
#     Node 1, Type 0, BuildingBlock: JUFBIX_clean_sbu_0, # of connection points: 6
#     Node 2, Type 0, BuildingBlock: JUFBIX_clean_sbu_0, # of connection points: 6
#     Node 3, Type 0, BuildingBlock: JUFBIX_clean_sbu_0, # of connection points: 6
#     Node 4, Type 0, BuildingBlock: JUFBIX_clean_sbu_0, # of connection points: 6
#     Node 5, Type 0, BuildingBlock: JUFBIX_clean_sbu_0, # of connection points: 6
#     Node 6, Type 0, BuildingBlock: JUFBIX_clean_sbu_0, # of connection points: 6
#     Node 7, Type 0, BuildingBlock: JUFBIX_clean_sbu_0, # of connection points: 6
#     Node 8, Type 0, BuildingBlock: JUFBIX_clean_sbu_0, # of connection points: 6
#     Edge 9, Type (0, 0), BuildingBlock: ZUJKAS_clean_linker_0, # of connection points: 2
#     Edge 10, Type (0, 0), BuildingBlock: ZUJKAS_clean_linker_0, # of connection points: 2
#     Edge 11, Type (0, 0), BuildingBlock: ZUJKAS_clean_linker_0, # of connection points: 2
#     Edge 12, Type (0, 0), BuildingBlock: ZUJKAS_clean_linker_0, # of connection points: 2
#     Edge 13, Type (0, 0), BuildingBlock: ZUJKAS_clean_linker_0, # of connection points: 2
#     Edge 14, Type (0, 0), BuildingBlock: ZUJKAS_clean_linker_0, # of connection points: 2
#     Edge 15, Type (0, 0), BuildingBlock: ZUJKAS_clean_linker_0, # of connection points: 2
#     Edge 16, Type (0, 0), BuildingBlock: ZUJKAS_clean_linker_0, # of connection points: 2
#     Edge 17, Type (0, 0), BuildingBlock: ZUJKAS_clean_linker_0, # of connection points: 2
#     Edge 18, Type (0, 0), BuildingBlock: ZUJKAS_clean_linker_0, # of connection points: 2
#     Edge 19, Type (0, 0), BuildingBlock: ZUJKAS_clean_linker_0, # of connection points: 2
#     Edge 20, Type (0, 0), BuildingBlock: ZUJKAS_clean_linker_0, # of connection points: 2
#     Edge 21, Type (0, 0), BuildingBlock: ZUJKAS_clean_linker_0, # of connection points: 2
#     Edge 22, Type (0, 0), BuildingBlock: ZUJKAS_clean_linker_0, # of connection points: 2
#     Edge 23, Type (0, 0), BuildingBlock: ZUJKAS_clean_linker_0, # of connection points: 2
#     Edge 24, Type (0, 0), BuildingBlock: ZUJKAS_clean_linker_0, # of connection points: 2
#     Edge 25, Type (0, 0), BuildingBlock: ZUJKAS_clean_linker_0, # of connection points: 2
#     Edge 26, Type (0, 0), BuildingBlock: ZUJKAS_clean_linker_0, # of connection points: 2
#     Edge 27, Type (0, 0), BuildingBlock: ZUJKAS_clean_linker_0, # of connection points: 2
#     Edge 28, Type (0, 0), BuildingBlock: ZUJKAS_clean_linker_0, # of connection points: 2
#     Edge 29, Type (0, 0), BuildingBlock: ZUJKAS_clean_linker_0, # of connection points: 2
#     Edge 30, Type (0, 0), BuildingBlock: ZUJKAS_clean_linker_0, # of connection points: 2
#     Edge 31, Type (0, 0), BuildingBlock: ZUJKAS_clean_linker_0, # of connection points: 2
#     Edge 32, Type (0, 0), BuildingBlock: ZUJKAS_clean_linker_0, # of connection points: 2
#     Edge 33, Type (0, 0), BuildingBlock: ZUJKAS_clean_linker_0, # of connection points: 2
#     Edge 34, Type (0, 0), BuildingBlock: ZUJKAS_clean_linker_0, # of connection points: 2
#     Edge 35, Type (0, 0), BuildingBlock: ZUJKAS_clean_linker_0, # of connection points: 2
# Relax obj value: 0.320
# Max RMSD: 0.262
# Mean RMSD: 0.226
data_MOF--net-snz--node1-JUFBIX_clean_sbu_0--edge1-ZUJKAS_clean_linker_0
_symmetry_space_group_name_H-M    P1
_symmetry_Int_Tables_number       1
_symmetry_cell_setting            triclinic
loop_
_symmetry_equiv_pos_as_xyz
'x, y, z'
_cell_length_a     68.162812
_cell_length_b     73.185987
_cell_length_c     18.454833
_cell_angle_alpha  90.553619
_cell_angle_beta   90.566941
_cell_angle_gamma 119.9761
loop_
_atom_site_label
_atom_site_type_symbol
_atom_site_fract_x
_atom_site_fract_y
_atom_site_fract_z
_atom_type_partial_charge
Co0 Co 0.09496 0.53841 0.01438 0.0
C1 C 0.06522 0.51729 0.12822 0.0
Co2 Co 0.06533 0.50696 0.98892 0.0
C3 C 0.12686 0.58378 0.03368 0.0
C4 C 0.13176 0.5641 0.10831 0.0
N5 N 0.11944 0.56335 0.04933 0.0
N6 N 0.14303 0.59698 0.08138 0.0
C7 C 0.14619 0.58466 0.128 0.0
H8 H 0.11959 0.58884 -0.00856 0.0
H9 H 0.12946 0.55054 0.13808 0.0
C10 C 0.09498 0.52805 0.87509 0.0
N11 N 0.04082 0.48144 0.95667 0.0
C12 C 0.03628 0.46169 0.97201 0.0
C13 C 0.02525 0.47873 0.90559 0.0
N14 N 0.01875 0.44682 0.93195 0.0
C15 C 0.01166 0.45753 0.89051 0.0
C16 C 0.05837 0.54176 0.97066 0.0
O17 O 0.10649 0.54308 0.91988 0.0
O18 O 0.07702 0.51176 0.8951 0.0
O19 O 0.04893 0.52169 0.96626 0.0
O20 O 0.07892 0.55236 -0.00835 0.0
O21 O 0.05392 0.50221 0.08367 0.0
H22 H 0.0245 0.49136 0.87816 0.0
H23 H 0.04611 0.45829 0.01027 0.0
O24 O 0.08301 0.53361 0.10789 0.0
O25 O 0.11109 0.52426 0.03656 0.0
O26 O 0.08227 0.49307 0.0115 0.0
C27 C 0.10278 0.50446 0.0321 0.0
H28 H 0.15753 0.5902 0.17475 0.0
H29 H 0.99851 0.45067 0.849 0.0
Co30 Co 0.61244 0.5133 0.02762 0.0
C31 C 0.60311 0.53109 0.90826 0.0
Co32 Co 0.61556 0.54451 0.04568 0.0
C33 C 0.59852 0.46857 0.02944 0.0
C34 C 0.62315 0.4859 0.94911 0.0
N35 N 0.61108 0.48812 0.00251 0.0
N36 N 0.60254 0.45438 -0.00478 0.0
C37 C 0.61803 0.46528 0.94475 0.0
H38 H 0.58657 0.4648 0.07278 0.0
H39 H 0.63463 0.49841 0.91426 0.0
C40 C 0.62491 0.52664 0.16498 0.0
N41 N 0.61769 0.56994 0.07027 0.0
C42 C 0.6343 0.58541 0.11106 0.0
C43 C 0.60295 0.57671 0.05633 0.0
N44 N 0.63057 0.60158 0.1238 0.0
C45 C 0.61085 0.5962 0.08909 0.0
C46 C 0.57208 0.51001 0.06828 0.0
O47 O 0.61992 0.51091 0.12372 0.0
O48 O 0.62381 0.54229 0.14098 0.0
O49 O 0.58436 0.53001 0.071 0.0
O50 O 0.58105 0.499 0.0505 0.0
O51 O 0.60745 0.54657 0.94999 0.0
H52 H 0.58731 0.56788 0.02553 0.0
H53 H 0.6489 0.58472 0.13099 0.0
O54 O 0.60477 0.51569 0.93185 0.0
O55 O 0.64397 0.52806 0.00478 0.0
O56 O 0.64655 0.55885 0.01973 0.0
C57 C 0.6558 0.54804 0.00362 0.0
H58 H 0.6245 0.45865 0.90535 0.0
H59 H 0.60243 0.60541 0.08864 0.0
Co60 Co 0.63845 0.01028 0.20341 0.0
C61 C 0.65246 0.03409 0.33063 0.0
Co62 Co 0.63631 0.0395 0.20227 0.0
C63 C 0.66082 0.9859 0.21887 0.0
C64 C 0.62488 0.9658 0.21071 0.0
N65 N 0.64131 0.98626 0.2092 0.0
N66 N 0.65721 0.96618 0.22671 0.0
C67 C 0.63461 0.95343 0.22205 0.0
H68 H 0.6774 0.99989 0.22282 0.0
H69 H 0.60694 0.9602 0.20525 0.0
C70 C 0.62241 0.01553 0.07504 0.0
N71 N 0.63439 0.06381 0.19761 0.0
C72 C 0.61882 0.06681 0.16221 0.0
C73 C 0.64952 0.08295 0.22516 0.0
N74 N 0.62372 0.08713 0.16605 0.0
C75 C 0.64303 0.09727 0.20594 0.0
C76 C 0.67743 0.04554 0.15481 0.0
O77 O 0.62688 0.003 0.10892 0.0
O78 O 0.62557 0.03239 0.10607 0.0
O79 O 0.66625 0.05469 0.16889 0.0
O80 O 0.66846 0.02587 0.16552 0.0
O81 O 0.64699 0.04612 0.29814 0.0
H82 H 0.6647 0.08639 0.25538 0.0
H83 H 0.60437 0.05432 0.13335 0.0
O84 O 0.65012 0.01773 0.29831 0.0
O85 O 0.60798 0.9952 0.23982 0.0
O86 O 0.60638 0.02439 0.23529 0.0
C87 C 0.59685 0.00481 0.24834 0.0
H88 H 0.62582 0.93642 0.22646 0.0
H89 H 0.65239 0.11403 0.21806 0.0
Co90 Co 0.85874 0.89875 0.40466 0.0
C91 C 0.82961 0.87797 0.51805 0.0
Co92 Co 0.8294 0.86724 0.37742 0.0
C93 C 0.88775 0.94409 0.41956 0.0
C94 C 0.89918 0.92734 0.4858 0.0
N95 N 0.88335 0.92442 0.43541 0.0
N96 N 0.90546 0.95912 0.45863 0.0
C97 C 0.91279 0.94858 0.49996 0.0
H98 H 0.87771 0.94734 0.3817 0.0
H99 H 0.9001 0.91482 0.51345 0.0
C100 C 0.85867 0.88812 0.26411 0.0
N101 N 0.80465 0.84217 0.34564 0.0
C102 C 0.79434 0.82264 0.37389 0.0
C103 C 0.79255 0.84039 0.28501 0.0
N104 N 0.77614 0.80891 0.33339 0.0
C105 C 0.77507 0.82007 0.27746 0.0
C106 C 0.82133 0.90106 0.36028 0.0
O107 O 0.86979 0.90314 0.30915 0.0
O108 O 0.8409 0.87167 0.28374 0.0
O109 O 0.81304 0.88127 0.35454 0.0
O110 O 0.84168 0.91243 0.38239 0.0
O111 O 0.81831 0.863 0.47291 0.0
H112 H 0.79626 0.85312 0.24835 0.0
H113 H 0.79989 0.81865 0.4234 0.0
O114 O 0.8475 0.89435 0.49854 0.0
O115 O 0.87523 0.88423 0.42742 0.0
O116 O 0.84569 0.85337 0.39945 0.0
C117 C 0.86617 0.86425 0.42103 0.0
H118 H 0.92613 0.9556 0.54083 0.0
H119 H 0.76276 0.81388 0.23334 0.0
Co120 Co 0.31102 0.86979 0.32972 0.0
C121 C 0.30359 0.8905 0.2143 0.0
Co122 Co 0.31382 0.90074 0.35391 0.0
C123 C 0.29263 0.82508 0.30066 0.0
C124 C 0.32425 0.84405 0.2488 0.0
N125 N 0.30985 0.84515 0.29604 0.0
N126 N 0.29549 0.81164 0.25727 0.0
C127 C 0.31554 0.82355 0.22523 0.0
H128 H 0.27773 0.82051 0.33263 0.0
H129 H 0.33932 0.85742 0.22823 0.0
C130 C 0.32116 0.87994 0.46932 0.0
N131 N 0.31441 0.92506 0.38631 0.0
C132 C 0.32728 0.94534 0.36617 0.0
C133 C 0.30112 0.9256 0.43905 0.0
N134 N 0.32218 0.95832 0.40368 0.0
C135 C 0.30575 0.94594 0.44946 0.0
C136 C 0.27001 0.8652 0.36721 0.0
O137 O 0.31724 0.86513 0.4248 0.0
O138 O 0.32003 0.8959 0.44869 0.0
O139 O 0.28188 0.88517 0.37136 0.0
O140 O 0.27951 0.85477 0.34897 0.0
O141 O 0.30786 0.90545 0.25848 0.0
H142 H 0.28906 0.91211 0.46923 0.0
H143 H 0.34015 0.95048 0.32517 0.0
O144 O 0.30452 0.87448 0.23524 0.0
O145 O 0.34282 0.88539 0.31197 0.0
O146 O 0.34556 0.91594 0.33657 0.0
C147 C 0.35494 0.90532 0.31864 0.0
H148 H 0.32266 0.8182 0.18358 0.0
H149 H 0.29822 0.95134 0.48958 0.0
Co150 Co 0.29267 0.3711 0.21553 0.0
C151 C 0.30522 0.39523 0.34174 0.0
Co152 Co 0.28869 0.39929 0.21185 0.0
C153 C 0.31109 0.3449 0.26137 0.0
C154 C 0.28299 0.32872 0.18753 0.0
N155 N 0.29616 0.34758 0.22069 0.0
N156 N 0.30768 0.32512 0.25513 0.0
C157 C 0.29007 0.31493 0.20836 0.0
H158 H 0.324 0.35716 0.29575 0.0
H159 H 0.26867 0.32501 0.15224 0.0
C160 C 0.2759 0.37527 0.08576 0.0
N161 N 0.28423 0.42228 0.20601 0.0
C162 C 0.26488 0.42162 0.18461 0.0
C163 C 0.29872 0.44274 0.22208 0.0
N164 N 0.26654 0.44081 0.18675 0.0
C165 C 0.28792 0.45417 0.21032 0.0
C166 C 0.33113 0.40686 0.16871 0.0
O167 O 0.28192 0.36386 0.11974 0.0
O168 O 0.27763 0.39158 0.11655 0.0
O169 O 0.31918 0.41568 0.17693 0.0
O170 O 0.32246 0.38734 0.18194 0.0
O171 O 0.29966 0.40688 0.30704 0.0
H172 H 0.31598 0.44894 0.24125 0.0
H173 H 0.24971 0.40714 0.16886 0.0
O174 O 0.30338 0.37879 0.31136 0.0
O175 O 0.26293 0.35488 0.24979 0.0
O176 O 0.25864 0.38258 0.24794 0.0
C177 C 0.25074 0.36317 0.26147 0.0
H178 H 0.28219 0.29843 0.19279 0.0
H179 H 0.29539 0.47103 0.21807 0.0
Co180 Co 0.47712 0.2031 0.72301 0.0
C181 C 0.43831 0.16918 0.6594 0.0
Co182 Co 0.44654 0.20652 0.72066 0.0
C183 C 0.51002 0.19229 0.77935 0.0
C184 C 0.51371 0.19823 0.66585 0.0
N185 N 0.50179 0.19845 0.7235 0.0
N186 N 0.52629 0.188 0.75881 0.0
C187 C 0.52875 0.19193 0.68731 0.0
H188 H 0.50348 0.19003 0.83355 0.0
H189 H 0.51115 0.20159 0.61082 0.0
C190 C 0.4852 0.24041 0.78446 0.0
N191 N 0.4221 0.2113 0.72064 0.0
C192 C 0.41267 0.21587 0.66398 0.0
C193 C 0.41264 0.21456 0.77966 0.0
N194 N 0.39813 0.22227 0.68538 0.0
C195 C 0.39792 0.22124 0.75822 0.0
C196 C 0.45075 0.18847 0.84552 0.0
O197 O 0.495 0.23001 0.76854 0.0
O198 O 0.46446 0.23294 0.76727 0.0
O199 O 0.43811 0.19379 0.81196 0.0
O200 O 0.46846 0.19082 0.81524 0.0
O201 O 0.42886 0.17997 0.67411 0.0
H202 H 0.41714 0.21347 0.83513 0.0
H203 H 0.41751 0.21595 0.60834 0.0
O204 O 0.45897 0.17632 0.67744 0.0
O205 O 0.48522 0.21548 0.63096 0.0
O206 O 0.45533 0.21919 0.62912 0.0
C207 C 0.47279 0.22118 0.59813 0.0
H208 H 0.54022 0.18996 0.65226 0.0
H209 H 0.38856 0.22586 0.79379 0.0
Co210 Co 0.98054 0.2097 0.69649 0.0
C211 C 0.96536 0.23641 0.75065 0.0
Co212 Co 0.9433 0.19591 0.6965 0.0
C213 C 0.02604 0.22896 0.6403 0.0
C214 C 0.0259 0.23099 0.75596 0.0
N215 N 0.01201 0.22298 0.69738 0.0
N216 N 0.04805 0.24053 0.66088 0.0
C217 C 0.04801 0.24167 0.73376 0.0
H218 H 0.02022 0.22539 0.58448 0.0
H219 H 0.02033 0.23001 0.81117 0.0
C220 C 0.95852 0.16922 0.64227 0.0
N221 N 0.9119 0.18255 0.6956 0.0
C222 C 0.89793 0.17794 0.75236 0.0
C223 C 0.89812 0.17241 0.63844 0.0
N224 N 0.87594 0.16496 0.73328 0.0
C225 C 0.87611 0.16164 0.66127 0.0
C226 C 0.9626 0.21619 0.57084 0.0
O227 O 0.97825 0.18467 0.65588 0.0
O228 O 0.94135 0.17106 0.65625 0.0
O229 O 0.9439 0.20596 0.60295 0.0
O230 O 0.98075 0.21972 0.60282 0.0
O231 O 0.94562 0.221 0.73668 0.0
H232 H 0.9038 0.17187 0.58436 0.0
H233 H 0.90397 0.18341 0.80707 0.0
O234 O 0.98254 0.23453 0.73716 0.0
O235 O 0.97982 0.19948 0.78996 0.0
O236 O 0.94302 0.18597 0.79024 0.0
C237 C 0.96112 0.18937 0.82215 0.0
H238 H 0.0628 0.25058 0.76835 0.0
H239 H 0.86159 0.1512 0.62773 0.0
Co240 Co 0.94558 0.69115 0.68729 0.0
C241 C 0.95555 0.73162 0.64229 0.0
Co242 Co 0.98199 0.71572 0.69167 0.0
C243 C 0.89874 0.66203 0.72815 0.0
C244 C 0.90276 0.66678 0.61384 0.0
N245 N 0.91462 0.67179 0.67697 0.0
N246 N 0.87754 0.65143 0.69927 0.0
C247 C 0.88012 0.65428 0.62728 0.0
H248 H 0.9025 0.66359 0.78573 0.0
H249 H 0.90991 0.6726 0.56132 0.0
C250 C 0.97181 0.67517 0.73779 0.0
N251 N 0.01289 0.73513 0.70169 0.0
C252 C 0.02847 0.74558 0.65032 0.0
C253 C 0.02501 0.73975 0.76415 0.0
N254 N 0.04979 0.75628 0.67833 0.0
C255 C 0.04755 0.75273 0.75009 0.0
C256 C 0.9581 0.71238 0.81663 0.0
O257 O 0.9514 0.66983 0.72177 0.0
O258 O 0.98733 0.69425 0.72927 0.0
O259 O 0.97712 0.72243 0.78608 0.0
O260 O 0.94147 0.69749 0.78251 0.0
O261 O 0.97618 0.73688 0.65391 0.0
H262 H 0.01805 0.73343 0.81647 0.0
H263 H 0.02438 0.74454 0.59307 0.0
O264 O 0.94008 0.71273 0.65348 0.0
O265 O 0.95033 0.68508 0.59187 0.0
O266 O 0.98639 0.70882 0.59755 0.0
C267 C 0.96956 0.69454 0.56237 0.0
H268 H 0.86656 0.64821 0.5871 0.0
H269 H 0.06126 0.75874 0.7897 0.0
H270 H 0.09003 0.49651 0.78691 0.0
H271 H 0.0873 0.49592 0.65512 0.0
H272 H 0.10813 0.56214 0.65813 0.0
H273 H 0.11091 0.5628 0.79101 0.0
H274 H 0.06397 0.53429 0.59975 0.0
H275 H 0.12839 0.5186 0.47831 0.0
H276 H 0.11393 0.50209 0.55349 0.0
H277 H 0.13171 0.53005 0.56796 0.0
C278 C 0.09493 0.51113 0.75918 0.0
C279 C 0.10053 0.52967 0.79838 0.0
C280 C 0.09346 0.51079 0.68403 0.0
C281 C 0.09753 0.52898 0.64733 0.0
C282 C 0.10507 0.54801 0.68599 0.0
H283 H 0.0702 0.5489 0.21614 0.0
H284 H 0.07305 0.54961 0.34791 0.0
C285 C 0.10679 0.54841 0.76151 0.0
C286 C 0.0899 0.52693 0.57149 0.0
H287 H 0.09645 0.51133 0.40355 0.0
C288 C 0.07121 0.52951 0.5565 0.0
C289 C 0.09914 0.52027 0.51612 0.0
C290 C 0.11953 0.51775 0.52947 0.0
C291 C 0.06129 0.52535 0.48718 0.0
C292 C 0.07052 0.51868 0.43182 0.0
C293 C 0.08922 0.51611 0.4468 0.0
C294 C 0.06284 0.51656 0.35601 0.0
C295 C 0.0409 0.52788 0.47383 0.0
C296 C 0.05527 0.4975 0.31755 0.0
C297 C 0.05349 0.49703 0.24203 0.0
C298 C 0.05971 0.51573 0.20497 0.0
C299 C 0.06533 0.5343 0.244 0.0
C300 C 0.06687 0.53471 0.31915 0.0
H301 H 0.03206 0.52707 0.525 0.0
H302 H 0.04649 0.54351 0.44967 0.0
H303 H 0.0287 0.51555 0.43545 0.0
H304 H 0.05224 0.4834 0.34555 0.0
H305 H 0.04935 0.48261 0.21268 0.0
H306 H 0.61741 0.56569 0.8243 0.0
H307 H 0.61942 0.56573 0.69179 0.0
H308 H 0.58163 0.49765 0.68723 0.0
H309 H 0.5795 0.4975 0.81882 0.0
H310 H 0.64248 0.5451 0.63715 0.0
H311 H 0.5575 0.51367 0.50803 0.0
H312 H 0.56426 0.52544 0.59792 0.0
H313 H 0.55809 0.49874 0.58385 0.0
C314 C 0.60873 0.55082 0.79462 0.0
C315 C 0.59863 0.53158 0.83107 0.0
C316 C 0.60993 0.55086 0.71929 0.0
C317 C 0.60069 0.53169 0.68045 0.0
C318 C 0.58859 0.51257 0.71649 0.0
H319 H 0.61071 0.49214 0.24952 0.0
H320 H 0.60901 0.4923 0.38206 0.0
C321 C 0.58754 0.51251 0.79153 0.0
C322 C 0.6073 0.53131 0.6055 0.0
H323 H 0.58606 0.51305 0.43613 0.0
C324 C 0.63024 0.53834 0.59281 0.0
C325 C 0.59111 0.52205 0.54889 0.0
C326 C 0.56638 0.51469 0.56003 0.0
C327 C 0.63744 0.53612 0.52436 0.0
C328 C 0.62125 0.52684 0.46777 0.0
C329 C 0.59831 0.51983 0.48046 0.0
C330 C 0.62782 0.52635 0.39284 0.0
C331 C 0.66217 0.54346 0.51321 0.0
C332 C 0.63989 0.54542 0.35647 0.0
C333 C 0.64077 0.54537 0.28139 0.0
C334 C 0.62953 0.52624 0.24215 0.0
C335 C 0.61949 0.50706 0.27893 0.0
C336 C 0.61847 0.50713 0.35429 0.0
H337 H 0.67107 0.54456 0.56524 0.0
H338 H 0.66427 0.53265 0.47555 0.0
H339 H 0.67044 0.55938 0.4891 0.0
H340 H 0.64693 0.56037 0.3855 0.0
H341 H 0.64879 0.56035 0.2539 0.0
H342 H 0.62311 0.98594 0.98613 0.0
H343 H 0.6271 0.98847 0.85483 0.0
H344 H 0.6149 0.04089 0.85638 0.0
H345 H 0.61101 0.03867 0.98781 0.0
H346 H 0.60153 0.99257 0.72846 0.0
H347 H 0.68385 0.06389 0.80257 0.0
H348 H 0.66698 0.04403 0.86744 0.0
H349 H 0.6589 0.06277 0.83904 0.0
C350 C 0.6205 0.99754 0.95834 0.0
C351 C 0.61746 0.01254 -0.00292 0.0
C352 C 0.62278 0.99894 0.88349 0.0
C353 C 0.62187 0.0152 0.84726 0.0
C354 C 0.616 0.02849 0.88444 0.0
H355 H 0.65124 0.06298 0.42182 0.0
H356 H 0.64828 0.06024 0.55337 0.0
C357 C 0.61378 0.02716 0.95927 0.0
C358 C 0.6304 0.02025 0.77362 0.0
H359 H 0.67537 0.05637 0.67758 0.0
C360 C 0.61764 0.00646 0.71702 0.0
C361 C 0.6516 0.0383 0.76014 0.0
C362 C 0.66628 0.05307 0.82044 0.0
C363 C 0.62535 0.01058 0.64596 0.0
C364 C 0.64646 0.02872 0.63239 0.0
C365 C 0.65929 0.04245 0.68905 0.0
C366 C 0.65462 0.03412 0.55846 0.0
C367 C 0.61071 0.99578 0.58568 0.0
C368 C 0.66073 0.02126 0.51969 0.0
C369 C 0.66235 0.0227 0.44473 0.0
C370 C 0.65781 0.037 0.40837 0.0
C371 C 0.6545 0.05162 0.4485 0.0
C372 C 0.65283 0.05012 0.52349 0.0
H373 H 0.59331 0.98455 0.60395 0.0
H374 H 0.60953 0.00479 0.53941 0.0
H375 H 0.61846 0.9865 0.56582 0.0
H376 H 0.66244 0.00904 0.54671 0.0
H377 H 0.66534 0.0115 0.41507 0.0
H378 H 0.81391 0.84314 0.6015 0.0
H379 H 0.81653 0.84366 0.73439 0.0
H380 H 0.83642 0.90966 0.73825 0.0
H381 H 0.83386 0.9092 0.60644 0.0
H382 H 0.86062 0.87193 0.79261 0.0
H383 H 0.79544 0.88637 0.91512 0.0
H384 H 0.79224 0.87502 0.82537 0.0
H385 H 0.80967 0.903 0.83996 0.0
C386 C 0.81778 0.85743 0.63119 0.0
C387 C 0.82386 0.87617 0.59458 0.0
C388 C 0.8194 0.85775 0.70671 0.0
C389 C 0.82665 0.8767 0.74559 0.0
C390 C 0.83049 0.89485 0.70914 0.0
H391 H 0.87423 0.92291 0.1805 0.0
H392 H 0.87156 0.92233 0.04762 0.0
C393 C 0.82912 0.89459 0.63398 0.0
C394 C 0.83434 0.87877 0.82136 0.0
H395 H 0.82755 0.89402 0.98958 0.0
C396 C 0.85325 0.87651 0.83603 0.0
C397 C 0.82494 0.88519 0.87692 0.0
C398 C 0.80433 0.88738 0.86386 0.0
C399 C 0.86323 0.88075 0.90527 0.0
C400 C 0.85383 0.88718 0.96083 0.0
C401 C 0.83491 0.88943 0.94616 0.0
C402 C 0.86156 0.88931 0.03658 0.0
C403 C 0.88385 0.87858 0.9183 0.0
C404 C 0.85782 0.8712 0.07311 0.0
C405 C 0.85923 0.8715 0.14826 0.0
C406 C 0.86443 0.88992 0.18758 0.0
C407 C 0.87041 0.90863 0.15088 0.0
C408 C 0.86876 0.90826 0.07536 0.0
H409 H 0.89274 0.87961 0.86704 0.0
H410 H 0.89594 0.89094 0.95682 0.0
H411 H 0.87852 0.86295 0.94213 0.0
H412 H 0.85193 0.85638 0.04407 0.0
H413 H 0.85456 0.85691 0.17587 0.0
H414 H 0.29953 0.84546 0.55383 0.0
H415 H 0.29705 0.84674 0.68629 0.0
H416 H 0.34842 0.91257 0.68866 0.0
H417 H 0.35071 0.91148 0.55685 0.0
H418 H 0.3315 0.8649 0.81413 0.0
H419 H 0.28489 0.90703 0.74466 0.0
H420 H 0.28966 0.89117 0.67938 0.0
H421 H 0.31227 0.91698 0.70477 0.0
C422 C 0.31095 0.85989 0.5832 0.0
C423 C 0.32508 0.87845 0.54612 0.0
C424 C 0.30945 0.86064 0.65839 0.0
C425 C 0.32223 0.87987 0.696 0.0
C426 C 0.33829 0.89772 0.65976 0.0
H427 H 0.32489 0.9247 0.12827 0.0
H428 H 0.32659 0.92299 -0.00436 0.0
C429 C 0.33961 0.89705 0.5849 0.0
C430 C 0.31646 0.88224 0.77024 0.0
H431 H 0.29162 0.90455 0.86926 0.0
C432 C 0.32273 0.87346 0.82647 0.0
C433 C 0.30496 0.89344 0.78506 0.0
C434 C 0.29736 0.90259 0.72537 0.0
C435 C 0.31812 0.87597 0.89832 0.0
C436 C 0.30668 0.88722 0.91318 0.0
C437 C 0.30036 0.89595 0.85692 0.0
C438 C 0.30124 0.88988 0.98756 0.0
C439 C 0.32574 0.86682 0.958 0.0
C440 C 0.28534 0.87218 0.02482 0.0
C441 C 0.28448 0.87309 0.09977 0.0
C442 C 0.29932 0.89178 0.13763 0.0
C443 C 0.31326 0.9102 0.09963 0.0
C444 C 0.3143 0.90921 0.02434 0.0
H445 H 0.33808 0.86223 0.93857 0.0
H446 H 0.33361 0.87831 0.00371 0.0
H447 H 0.31081 0.85253 0.97904 0.0
H448 H 0.275 0.85725 -0.00342 0.0
H449 H 0.2735 0.85877 0.12853 0.0
H450 H 0.31837 0.37375 0.43072 0.0
H451 H 0.31397 0.37142 0.56185 0.0
H452 H 0.29768 0.42127 0.56048 0.0
H453 H 0.30193 0.42376 0.42914 0.0
H454 H 0.33015 0.40225 0.6877 0.0
H455 H 0.23826 0.36379 0.61501 0.0
H456 H 0.25949 0.36758 0.54979 0.0
H457 H 0.2564 0.38949 0.5785 0.0
C458 C 0.31456 0.38469 0.45853 0.0
C459 C 0.30982 0.3985 0.41982 0.0
C460 C 0.31209 0.38333 0.53326 0.0
C461 C 0.30496 0.39581 0.56946 0.0
C462 C 0.30288 0.41136 0.5324 0.0
H463 H 0.26215 0.3966 -0.00165 0.0
H464 H 0.26486 0.39809 0.86666 0.0
C465 C 0.30538 0.41277 0.45763 0.0
C466 C 0.29661 0.39044 0.64317 0.0
H467 H 0.24788 0.36684 0.73958 0.0
C468 C 0.31221 0.39454 0.69937 0.0
C469 C 0.27312 0.38017 0.65692 0.0
C470 C 0.25575 0.37481 0.59697 0.0
C471 C 0.3049 0.38891 0.77027 0.0
C472 C 0.28142 0.37862 0.78405 0.0
C473 C 0.2658 0.37454 0.72787 0.0
C474 C 0.27321 0.37328 0.85791 0.0
C475 C 0.3223 0.39431 0.83015 0.0
C476 C 0.27547 0.35779 0.89475 0.0
C477 C 0.27403 0.35692 0.96987 0.0
C478 C 0.27044 0.37165 0.00818 0.0
C479 C 0.26537 0.38534 0.97007 0.0
C480 C 0.2668 0.38618 0.895 0.0
H481 H 0.33978 0.40534 0.81202 0.0
H482 H 0.31858 0.40155 0.87733 0.0
H483 H 0.32168 0.37964 0.84864 0.0
H484 H 0.28018 0.34761 0.86606 0.0
H485 H 0.27766 0.34599 -0.00205 0.0
H486 H 0.44658 0.22995 0.5083 0.0
H487 H 0.44361 0.22512 0.37682 0.0
H488 H 0.50187 0.21672 0.37903 0.0
H489 H 0.505 0.22142 0.51059 0.0
H490 H 0.47508 0.24249 0.25305 0.0
H491 H 0.44524 0.15832 0.3142 0.0
H492 H 0.44695 0.177 0.38216 0.0
H493 H 0.47221 0.17737 0.35317 0.0
C494 C 0.45921 0.22773 0.48074 0.0
C495 C 0.47563 0.22545 0.51997 0.0
C496 C 0.45745 0.22496 0.40565 0.0
C497 C 0.47214 0.21998 0.36919 0.0
C498 C 0.49015 0.22016 0.40697 0.0
H499 H 0.47671 0.17966 0.93639 0.0
H500 H 0.47942 0.18455 0.06782 0.0
C501 C 0.49195 0.22294 0.48204 0.0
C502 C 0.46693 0.21212 0.29388 0.0
H503 H 0.44785 0.16729 0.19062 0.0
C504 C 0.46911 0.22608 0.23917 0.0
C505 C 0.45896 0.19062 0.27679 0.0
C506 C 0.45549 0.17485 0.33456 0.0
C507 C 0.46395 0.21915 0.16687 0.0
C508 C 0.45601 0.19766 0.14977 0.0
C509 C 0.4538 0.18369 0.2045 0.0
C510 C 0.45095 0.18981 0.07442 0.0
C511 C 0.46745 0.23493 0.10908 0.0
C512 C 0.43306 0.18969 0.03606 0.0
C513 C 0.43141 0.18687 0.96101 0.0
C514 C 0.44776 0.18426 0.92368 0.0
C515 C 0.46406 0.18195 0.96348 0.0
C516 C 0.46567 0.18476 0.03854 0.0
H517 H 0.47767 0.25146 0.12949 0.0
H518 H 0.47603 0.2328 0.06158 0.0
H519 H 0.45074 0.23239 0.09032 0.0
H520 H 0.42131 0.19319 0.06355 0.0
H521 H 0.41846 0.18845 0.93199 0.0
H522 H 0.92623 0.20568 0.48177 0.0
H523 H 0.92583 0.2022 0.35002 0.0
H524 H 0.99867 0.23174 0.35242 0.0
H525 H 0.99938 0.2355 0.48405 0.0
H526 H 0.97664 0.24057 0.22704 0.0
H527 H 0.94289 0.15579 0.28957 0.0
H528 H 0.92778 0.1679 0.32687 0.0
H529 H 0.9562 0.1765 0.35751 0.0
C530 C 0.94223 0.2121 0.45414 0.0
C531 C 0.9628 0.22029 0.49314 0.0
C532 C 0.94193 0.21004 0.37906 0.0
C533 C 0.96216 0.21621 0.34267 0.0
C534 C 0.98291 0.22671 0.38034 0.0
H535 H 0.99741 0.19943 0.91114 0.0
H536 H 0.99786 0.20288 0.04294 0.0
C537 C 0.98325 0.22881 0.45541 0.0
C538 C 0.96154 0.20906 0.26793 0.0
H539 H 0.9472 0.16488 0.16599 0.0
C540 C 0.97023 0.22407 0.2134 0.0
C541 C 0.95334 0.18749 0.25143 0.0
C542 C 0.94467 0.17094 0.30934 0.0
C543 C 0.97052 0.21796 0.14161 0.0
C544 C 0.96229 0.19639 0.12511 0.0
C545 C 0.95362 0.18138 0.17964 0.0
C546 C 0.96158 0.18923 0.05032 0.0
C547 C 0.97923 0.23451 0.08369 0.0
C548 C 0.94082 0.17898 0.01266 0.0
C549 C 0.94045 0.17692 0.93757 0.0
C550 C 0.96088 0.18523 0.89983 0.0
C551 C 0.98143 0.19317 0.93879 0.0
C552 C 0.98176 0.19521 0.0139 0.0
H553 H 0.9812 0.24972 0.10358 0.0
H554 H 0.99602 0.23739 0.06573 0.0
H555 H 0.96759 0.22902 0.03575 0.0
H556 H 0.9251 0.17412 0.04061 0.0
H557 H 0.92433 0.17045 0.90896 0.0
H558 H 0.93714 0.66474 0.47298 0.0
H559 H 0.93594 0.66643 0.34121 0.0
H560 H 1.00415 0.71934 0.34453 0.0
H561 H 1.00565 0.7177 0.47612 0.0
H562 H 0.94094 0.70494 0.29018 0.0
H563 H 1.00163 0.68517 0.16211 0.0
H564 H 0.9903 0.67625 0.25118 0.0
H565 H 0.01277 0.70288 0.23901 0.0
C566 C 0.95217 0.67626 0.44549 0.0
C567 C 0.9713 0.69142 0.48465 0.0
C568 C 0.95145 0.67717 0.37037 0.0
C569 C 0.96988 0.69309 0.33387 0.0
C570 C 0.98986 0.70683 0.37209 0.0
H571 H 0.99067 0.7424 0.90516 0.0
H572 H 0.99213 0.74099 0.03696 0.0
C573 C 0.99063 0.70591 0.44726 0.0
C574 C 0.96683 0.69779 0.25902 0.0
H575 H 0.98735 0.70263 0.08897 0.0
C576 C 0.95093 0.70429 0.24586 0.0
C577 C 0.98018 0.69718 0.20234 0.0
C578 C 0.99707 0.68983 0.21398 0.0
C579 C 0.94813 0.7104 0.17682 0.0
C580 C 0.96145 0.70976 0.12011 0.0
C581 C 0.97738 0.7033 0.1333 0.0
C582 C 0.95825 0.71429 0.04519 0.0
C583 C 0.93122 0.71772 0.16518 0.0
C584 C 0.93822 0.70043 0.00746 0.0
C585 C 0.93729 0.70118 0.93227 0.0
C586 C 0.95652 0.71563 0.89436 0.0
C587 C 0.9757 0.73091 0.93303 0.0
C588 C 0.97659 0.73016 0.00817 0.0
H589 H 0.92674 0.72248 0.21701 0.0
H590 H 0.93791 0.73123 0.12767 0.0
H591 H 0.91547 0.70463 0.14053 0.0
H592 H 0.92401 0.68795 0.03542 0.0
H593 H 0.92222 0.68931 0.90383 0.0
H594 H 0.26465 0.47581 0.22722 0.0
H595 H 0.23493 0.48397 0.19712 0.0
H596 H 0.19839 0.42533 0.07707 0.0
H597 H 0.22822 0.4172 0.10495 0.0
H598 H 0.21877 0.48577 0.04884 0.0
H599 H 0.15153 0.42606 0.22317 0.0
H600 H 0.18124 0.43517 0.23884 0.0
H601 H 0.16628 0.41716 0.16524 0.0
C602 C 0.25046 0.46467 0.19393 0.0
C603 C 0.24898 0.44576 0.16891 0.0
C604 C 0.23338 0.46932 0.17717 0.0
C605 C 0.21433 0.45513 0.13571 0.0
C606 C 0.21276 0.43633 0.11026 0.0
H607 H 0.09479 0.46416 0.00429 0.0
H608 H 0.12108 0.45083 0.02578 0.0
C609 C 0.2299 0.4317 0.12653 0.0
C610 C 0.19648 0.46036 0.11736 0.0
H611 H 0.14179 0.44705 0.15202 0.0
C612 C 0.20193 0.47729 0.07122 0.0
C613 C 0.17445 0.44907 0.14593 0.0
C614 C 0.1679 0.43091 0.19643 0.0
C615 C 0.18598 0.48338 0.05333 0.0
C616 C 0.16416 0.47262 0.08403 0.0
C617 C 0.15851 0.45531 0.12871 0.0
C618 C 0.1476 0.48002 0.07372 0.0
C619 C 0.19265 0.50124 0.00124 0.0
C620 C 0.15349 0.50056 0.09553 0.0
C621 C 0.13869 0.50819 0.08302 0.0
C622 C 0.11743 0.49537 0.04925 0.0
C623 C 0.11107 0.47445 0.03014 0.0
C624 C 0.12607 0.46683 0.04232 0.0
H625 H 0.20655 0.50311 0.9656 0.0
H626 H 0.17804 0.4987 0.96668 0.0
H627 H 0.19881 0.51621 0.03243 0.0
H628 H 0.16971 0.51083 0.12177 0.0
H629 H 0.14405 0.52428 0.09943 0.0
H630 H 0.63255 0.63942 0.11315 0.0
H631 H 0.65781 0.67186 0.18061 0.0
H632 H 0.68641 0.63957 0.29642 0.0
H633 H 0.66084 0.60686 0.23066 0.0
H634 H 0.66465 0.6786 0.34474 0.0
H635 H 0.74037 0.69153 0.19014 0.0
H636 H 0.71195 0.67473 0.15512 0.0
H637 H 0.72241 0.66607 0.22888 0.0
C638 C 0.64393 0.63907 0.15364 0.0
C639 C 0.64476 0.62052 0.16577 0.0
C640 C 0.6584 0.65764 0.192 0.0
C641 C 0.67402 0.65805 0.24291 0.0
C642 C 0.67459 0.63954 0.25671 0.0
H643 H 0.78666 0.78072 0.38992 0.0
H644 H 0.76197 0.74217 0.3901 0.0
C645 C 0.66005 0.62092 0.2186 0.0
C646 C 0.69032 0.67821 0.27883 0.0
H647 H 0.74463 0.71886 0.26751 0.0
C648 C 0.68225 0.68731 0.32892 0.0
C649 C 0.7133 0.6893 0.25881 0.0
C650 C 0.72268 0.68007 0.20513 0.0
C651 C 0.69637 0.70775 0.35693 0.0
C652 C 0.7189 0.71951 0.33253 0.0
C653 C 0.72735 0.70984 0.28611 0.0
C654 C 0.73277 0.74261 0.34492 0.0
C655 C 0.68682 0.71672 0.41091 0.0
C656 C 0.72447 0.75559 0.32051 0.0
C657 C 0.73843 0.7774 0.32051 0.0
C658 C 0.7611 0.78676 0.34418 0.0
C659 C 0.7692 0.7739 0.37189 0.0
C660 C 0.75516 0.75193 0.37174 0.0
H661 H 0.67372 0.70406 0.44446 0.0
H662 H 0.70026 0.72871 0.44732 0.0
H663 H 0.67856 0.72428 0.38133 0.0
H664 H 0.70748 0.74881 0.29789 0.0
H665 H 0.73168 0.78696 0.29963 0.0
H666 H 0.57124 0.02198 0.28954 0.0
H667 H 0.53041 0.00403 0.30636 0.0
H668 H 0.5261 0.94407 0.26392 0.0
H669 H 0.56726 0.96198 0.24812 0.0
H670 H 0.49854 0.9808 0.20239 0.0
H671 H 0.48722 0.93168 0.44294 0.0
H672 H 0.51451 0.9532 0.41775 0.0
H673 H 0.50256 0.92822 0.37059 0.0
C674 C 0.56171 0.00493 0.28491 0.0
C675 C 0.57254 0.99341 0.26744 0.0
C676 C 0.53832 0.99469 0.29441 0.0
C677 C 0.52515 0.97269 0.2868 0.0
C678 C 0.53594 0.96102 0.27136 0.0
H679 H 0.37968 0.88658 0.28326 0.0
H680 H 0.42075 0.90309 0.27367 0.0
C681 C 0.55947 0.97128 0.26218 0.0
C682 C 0.50005 0.96235 0.29027 0.0
H683 H 0.4538 0.92579 0.38122 0.0
C684 C 0.48878 0.96882 0.24171 0.0
C685 C 0.48729 0.94667 0.34134 0.0
C686 C 0.49848 0.93962 0.3966 0.0
C687 C 0.46514 0.95995 0.2424 0.0
C688 C 0.4524 0.94439 0.29377 0.0
C689 C 0.46361 0.93776 0.34197 0.0
C690 C 0.42739 0.93465 0.29803 0.0
C691 C 0.45396 0.96704 0.1872 0.0
C692 C 0.41742 0.94693 0.315 0.0
C693 C 0.39385 0.93754 0.32037 0.0
C694 C 0.37982 0.91567 0.30921 0.0
C695 C 0.38991 0.90347 0.29194 0.0
C696 C 0.41343 0.91286 0.28666 0.0
H697 H 0.4652 0.97497 0.14082 0.0
H698 H 0.43791 0.95347 0.16607 0.0
H699 H 0.4499 0.97845 0.21326 0.0
H700 H 0.42789 0.96373 0.32519 0.0
H701 H 0.38667 0.94737 0.33427 0.0
H702 H 0.62552 0.12404 0.20184 0.0
H703 H 0.60806 0.14118 0.13604 0.0
H704 H 0.57746 0.08883 0.98427 0.0
H705 H 0.59536 0.07176 0.04825 0.0
H706 H 0.61482 0.15087 0.97858 0.0
H707 H 0.52489 0.09946 0.05583 0.0
H708 H 0.54829 0.10146 0.1092 0.0
H709 H 0.53996 0.08646 0.02592 0.0
C710 C 0.61517 0.11614 0.15439 0.0
C711 C 0.61201 0.09651 0.13035 0.0
C712 C 0.60509 0.12593 0.11714 0.0
C713 C 0.59141 0.1162 0.05572 0.0
C714 C 0.58777 0.09645 0.03222 0.0
H715 H 0.54646 0.16612 0.7113 0.0
H716 H 0.56297 0.14964 0.78515 0.0
C717 C 0.59797 0.08668 0.06913 0.0
C718 C 0.58189 0.12722 0.01417 0.0
H719 H 0.53233 0.12543 0.96802 0.0
C720 C 0.5968 0.14537 0.97633 0.0
C721 C 0.55841 0.12 0.0119 0.0
C722 C 0.54187 0.10086 0.05317 0.0
C723 C 0.58876 0.15635 0.93513 0.0
C724 C 0.56525 0.14894 0.93184 0.0
C725 C 0.55036 0.13099 0.97064 0.0
C726 C 0.55579 0.1595 0.88745 0.0
C727 C 0.60541 0.17585 0.89558 0.0
C728 C 0.54628 0.17049 0.92072 0.0
C729 C 0.53704 0.18022 0.87865 0.0
C730 C 0.53688 0.1789 0.8024 0.0
C731 C 0.54654 0.16785 0.76955 0.0
C732 C 0.55591 0.15828 0.81169 0.0
H733 H 0.62315 0.18164 0.91406 0.0
H734 H 0.60418 0.17217 0.83667 0.0
H735 H 0.60138 0.18868 0.90339 0.0
H736 H 0.54609 0.17161 0.97927 0.0
H737 H 0.53008 0.18878 0.90608 0.0
H738 H 1.00455 0.26963 0.80369 0.0
H739 H 0.01103 0.304 0.84486 0.0
H740 H 0.94067 0.28394 0.80374 0.0
H741 H 0.93389 0.24919 0.76373 0.0
H742 H 1.00565 0.33178 0.76264 0.0
H743 H 0.95102 0.31117 0.00404 0.0
H744 H 0.95848 0.29306 0.96261 0.0
H745 H 0.93661 0.29684 0.92279 0.0
C746 C 0.99035 0.2724 0.80411 0.0
C747 C 0.96869 0.25667 0.78022 0.0
C748 C 0.9941 0.29208 0.82774 0.0
C749 C 0.97632 0.29651 0.82805 0.0
C750 C 0.95456 0.28075 0.80542 0.0
H751 H 0.97714 0.4151 0.89062 0.0
H752 H 0.96602 0.37808 0.86805 0.0
C753 C 0.95073 0.26093 0.78214 0.0
C754 C 0.98112 0.31814 0.84716 0.0
H755 H 0.96776 0.34659 0.96436 0.0
C756 C 0.99742 0.335 0.80694 0.0
C757 C 0.97028 0.32231 0.90475 0.0
C758 C 0.95326 0.30493 0.95154 0.0
C759 C 1.00314 0.35589 0.82253 0.0
C760 C 0.99246 0.36008 0.8804 0.0
C761 C 0.97594 0.34327 0.92014 0.0
C762 C 0.99849 0.38195 0.90025 0.0
C763 C 0.02041 0.37332 0.77641 0.0
C764 C 0.02022 0.39621 0.92752 0.0
C765 C 0.02664 0.41734 0.94025 0.0
C766 C 0.01142 0.42463 0.92594 0.0
C767 C 0.98935 0.41007 0.90124 0.0
C768 C 0.98292 0.3889 0.88876 0.0
H769 H 0.02333 0.36714 0.72486 0.0
H770 H 0.01495 0.38492 0.76354 0.0
H771 H 0.03677 0.38177 0.80677 0.0
H772 H 0.03241 0.39108 0.93732 0.0
H773 H 0.04381 0.42809 0.95858 0.0
H774 H 0.83791 0.64823 0.65593 0.0
H775 H 0.80175 0.63028 0.71718 0.0
H776 H 0.83243 0.61329 0.88973 0.0
H777 H 0.86899 0.63149 0.82836 0.0
H778 H 0.77678 0.58882 0.74973 0.0
H779 H 0.79967 0.63829 0.00062 0.0
H780 H 0.81737 0.64624 0.92182 0.0
H781 H 0.81737 0.62712 0.98217 0.0
C782 C 0.83702 0.64061 0.70669 0.0
C783 C 0.85633 0.64117 0.73699 0.0
C784 C 0.81632 0.63043 0.74189 0.0
C785 C 0.81437 0.62057 0.80833 0.0
C786 C 0.83361 0.62113 0.83917 0.0
H787 H 0.68105 0.52946 0.97255 0.0
H788 H 0.72004 0.54647 0.93027 0.0
C789 C 0.85447 0.63148 0.80401 0.0
C790 C 0.7919 0.60918 0.84316 0.0
H791 H 0.76281 0.60845 -0.00612 0.0
C792 C 0.77375 0.59306 0.80326 0.0
C793 C 0.78792 0.61489 0.91265 0.0
C794 C 0.80653 0.6327 0.95673 0.0
C795 C 0.7517 0.58264 0.83045 0.0
C796 C 0.74775 0.58813 0.90036 0.0
C797 C 0.76592 0.60416 0.94057 0.0
C798 C 0.72469 0.57796 0.93121 0.0
C799 C 0.73271 0.56636 0.78293 0.0
C800 C 0.71463 0.59012 0.94845 0.0
C801 C 0.69239 0.58047 0.97334 0.0
C802 C 0.6798 0.55847 0.98149 0.0
C803 C 0.69018 0.54642 0.96626 0.0
C804 C 0.71245 0.5561 0.94175 0.0
H805 H 0.73753 0.56789 0.72503 0.0
H806 H 0.72849 0.55036 0.8004 0.0
H807 H 0.71726 0.56773 0.78747 0.0
H808 H 0.72381 0.60703 0.941 0.0
H809 H 0.68494 0.59022 0.98484 0.0
H810 H 0.94441 0.63217 0.74703 0.0
H811 H 0.95488 0.60657 0.79099 0.0
H812 H 0.02298 0.65706 0.83451 0.0
H813 H 0.01278 0.68266 0.79084 0.0
H814 H 0.99083 0.59971 0.73749 0.0
H815 H 1.00324 0.62425 0.02733 0.0
H816 H 0.98733 0.6309 0.96463 0.0
H817 H 0.01777 0.64559 0.96564 0.0
C818 C 0.96159 0.63783 0.76631 0.0
C819 C 0.97773 0.6595 0.76554 0.0
C820 C 0.96754 0.62317 0.79128 0.0
C821 C 0.98963 0.62993 0.81684 0.0
C822 C 1.00575 0.65152 0.81609 0.0
H823 H 0.07483 0.58421 0.9729 0.0
H824 H 0.05573 0.60328 0.93597 0.0
C825 C 0.99989 0.66613 0.79074 0.0
C826 C 0.99623 0.61453 0.84268 0.0
H827 H 0.01795 0.60226 -0.01018 0.0
C828 C 0.99647 0.60002 0.79287 0.0
C829 C 1.00356 0.61497 0.91496 0.0
C830 C 1.00281 0.62962 0.97153 0.0
C831 C 1.00493 0.58667 0.81252 0.0
C832 C 0.0129 0.58756 0.88439 0.0
C833 C 0.01189 0.60158 0.93473 0.0
C834 C 0.02398 0.57535 0.90724 0.0
C835 C 1.00627 0.57249 0.75528 0.0
C836 C 0.01245 0.55316 0.90424 0.0
C837 C 0.02343 0.54209 0.92522 0.0
C838 C 0.0461 0.55302 0.95008 0.0
C839 C 0.05739 0.57521 0.95401 0.0
C840 C 0.04647 0.5862 0.93296 0.0
H841 H 1.00412 0.57701 0.69973 0.0
H842 H 0.02277 0.57292 0.75885 0.0
H843 H 0.99262 0.55601 0.76386 0.0
H844 H 0.99494 0.5444 0.88595 0.0
H845 H 0.01421 0.52502 0.92177 0.0
H846 H 0.55874 0.42877 0.0311 0.0
H847 H 0.53779 0.39014 0.02209 0.0
H848 H 0.59927 0.3906 0.96518 0.0
H849 H 0.62025 0.42904 0.97556 0.0
H850 H 0.53575 0.37105 0.8893 0.0
H851 H 0.56949 0.34049 0.10118 0.0
H852 H 0.573 0.36664 0.10594 0.0
H853 H 0.59115 0.36145 0.04983 0.0
C854 C 0.56788 0.42057 0.01915 0.0
C855 C 0.59106 0.43187 0.0033 0.0
C856 C 0.55591 0.39853 0.01377 0.0
C857 C 0.56702 0.38752 -0.00651 0.0
C858 C 0.59043 0.39873 0.98217 0.0
H859 H 0.53111 0.26647 0.80218 0.0
H860 H 0.55055 0.30169 0.85981 0.0
C861 C 0.60235 0.4207 0.98724 0.0
C862 C 0.55382 0.36489 0.97297 0.0
H863 H 0.54927 0.3169 0.00164 0.0
C864 C 0.53842 0.35913 0.91463 0.0
C865 C 0.55766 0.3495 0.00539 0.0
C866 C 0.57358 0.35476 0.0695 0.0
C867 C 0.52723 0.33851 0.88623 0.0
C868 C 0.53116 0.32311 0.91822 0.0
C869 C 0.54633 0.32877 0.97728 0.0
C870 C 0.51967 0.30113 0.89019 0.0
C871 C 0.51193 0.33361 0.82046 0.0
C872 C 0.49598 0.28903 0.89018 0.0
C873 C 0.48491 0.26919 0.85664 0.0
C874 C 0.49734 0.2609 0.82342 0.0
C875 C 0.52112 0.27255 0.82686 0.0
C876 C 0.53222 0.29259 0.85991 0.0
H877 H 0.51535 0.34815 0.79165 0.0
H878 H 0.51397 0.32299 0.78176 0.0
H879 H 0.49403 0.32557 0.83782 0.0
H880 H 0.48602 0.29516 0.91474 0.0
H881 H 0.46656 0.26042 0.85617 0.0
H882 H 0.83123 0.14454 0.69446 0.0
H883 H 0.79909 0.12469 0.77233 0.0
H884 H 0.84401 0.14247 0.95842 0.0
H885 H 0.87649 0.16129 0.88051 0.0
H886 H 0.81343 0.10175 0.96149 0.0
H887 H 0.7693 0.14635 0.90538 0.0
H888 H 0.77416 0.13582 0.82384 0.0
H889 H 0.79788 0.15537 0.87682 0.0
C890 C 0.83446 0.14424 0.75177 0.0
C891 C 0.85671 0.15463 0.78055 0.0
C892 C 0.81591 0.13306 0.79654 0.0
C893 C 0.81906 0.13238 0.87149 0.0
C894 C 0.84115 0.14287 0.90075 0.0
H895 H 0.70603 0.08788 0.16428 0.0
H896 H 0.74175 0.10865 0.10186 0.0
C897 C 0.85976 0.15385 0.85589 0.0
C898 C 0.79936 0.12013 0.91888 0.0
H899 H 0.74764 0.11322 0.96326 0.0
C900 C 0.79912 0.10439 0.96244 0.0
C901 C 0.78082 0.12374 0.92093 0.0
C902 C 0.78063 0.14139 0.87982 0.0
C903 C 0.78069 0.0919 0.00692 0.0
C904 C 0.76167 0.09482 0.00616 0.0
C905 C 0.7621 0.11081 0.96346 0.0
C906 C 0.74117 0.08176 0.04956 0.0
C907 C 0.78204 0.07602 0.05516 0.0
C908 C 0.72906 0.05965 0.04202 0.0
C909 C 0.7088 0.04768 0.07899 0.0
C910 C 0.70005 0.05768 0.1226 0.0
C911 C 0.71234 0.07975 0.13088 0.0
C912 C 0.73274 0.09164 0.0951 0.0
H913 H 0.7999 0.08037 0.06673 0.0
H914 H 0.77349 0.07456 0.10742 0.0
H915 H 0.77362 0.06037 0.02732 0.0
H916 H 0.73484 0.05168 0.00575 0.0
H917 H 0.69952 0.03072 0.07095 0.0
H918 H 0.69629 0.97989 0.15553 0.0
H919 H 0.72489 0.9694 0.17555 0.0
H920 H 0.68567 0.93003 0.35151 0.0
H921 H 0.65641 0.93944 0.3276 0.0
H922 H 0.75221 0.97442 0.27752 0.0
H923 H 0.69541 0.88831 0.24836 0.0
H924 H 0.686 0.90674 0.22789 0.0
H925 H 0.68626 0.8988 0.32003 0.0
C926 C 0.69379 0.96884 0.19791 0.0
C927 C 0.67409 0.9602 0.23939 0.0
C928 C 0.71012 0.96287 0.20958 0.0
C929 C 0.70731 0.94847 0.26403 0.0
C930 C 0.68793 0.94046 0.30725 0.0
H931 H 0.82072 0.93443 0.42636 0.0
H932 H 0.79377 0.94675 0.40361 0.0
C933 C 0.67127 0.94594 0.29407 0.0
C934 C 0.72484 0.94218 0.27616 0.0
H935 H 0.73192 0.89962 0.3002 0.0
C936 C 0.74776 0.95802 0.28176 0.0
C937 C 0.71926 0.92079 0.28054 0.0
C938 C 0.69543 0.90272 0.26806 0.0
C939 C 0.76511 0.95314 0.29189 0.0
C940 C 0.75938 0.93181 0.30029 0.0
C941 C 0.73647 0.916 0.29453 0.0
C942 C 0.77668 0.92527 0.31298 0.0
C943 C 0.78936 0.97091 0.29097 0.0
C944 C 0.77585 0.9087 0.2713 0.0
C945 C 0.79065 0.90116 0.28615 0.0
C946 C 0.80703 0.91033 0.34192 0.0
C947 C 0.80845 0.92731 0.38235 0.0
C948 C 0.79313 0.93445 0.36892 0.0
H949 H 0.79099 0.98452 0.25991 0.0
H950 H 0.79526 0.97654 0.34733 0.0
H951 H 0.80067 0.96575 0.26669 0.0
H952 H 0.76347 0.90132 0.22772 0.0
H953 H 0.78923 0.88806 0.25405 0.0
H954 H 0.24968 0.79248 0.26856 0.0
H955 H 0.22201 0.75631 0.23288 0.0
H956 H 0.27596 0.74587 0.16434 0.0
H957 H 0.30387 0.78174 0.2028 0.0
H958 H 0.21388 0.73651 0.09683 0.0
H959 H 0.24009 0.69714 0.30048 0.0
H960 H 0.24926 0.7249 0.30584 0.0
H961 H 0.26272 0.71543 0.24478 0.0
C962 C 0.25577 0.78243 0.24734 0.0
C963 C 0.27909 0.79002 0.23925 0.0
C964 C 0.23987 0.76182 0.22608 0.0
C965 C 0.24696 0.7484 0.19655 0.0
C966 C 0.27016 0.7559 0.18798 0.0
H967 H 0.16494 0.62608 0.97905 0.0
H968 H 0.18892 0.66435 0.00119 0.0
C969 C 0.28608 0.77647 0.20952 0.0
C970 C 0.23008 0.72649 0.17516 0.0
H971 H 0.21352 0.67523 0.21052 0.0
C972 C 0.21371 0.72306 0.12169 0.0
C973 C 0.22984 0.70906 0.20824 0.0
C974 C 0.24627 0.71174 0.26849 0.0
C975 C 0.19712 0.70255 0.10014 0.0
C976 C 0.19719 0.68515 0.13236 0.0
C977 C 0.21357 0.68863 0.18572 0.0
C978 C 0.18005 0.66304 0.1142 0.0
C979 C 0.17941 0.69964 0.04443 0.0
C980 C 0.16688 0.6498 0.1698 0.0
C981 C 0.1536 0.62817 0.15736 0.0
C982 C 0.15309 0.61939 0.08903 0.0
C983 C 0.165 0.63269 0.03186 0.0
C984 C 0.17861 0.65445 0.04453 0.0
H985 H 0.17853 0.71428 0.03758 0.0
H986 H 0.1837 0.6954 -0.00862 0.0
H987 H 0.16244 0.68667 0.05972 0.0
H988 H 0.1677 0.65611 0.22382 0.0
H989 H 0.14441 0.61811 0.20195 0.0
H990 H 0.54024 0.46786 0.06208 0.0
H991 H 0.49922 0.45176 0.07598 0.0
H992 H 0.50694 0.51317 0.11627 0.0
H993 H 0.54792 0.52937 0.10352 0.0
H994 H 0.47742 0.48308 0.21082 0.0
H995 H 0.45582 0.45383 0.92651 0.0
H996 H 0.47287 0.44512 0.97298 0.0
H997 H 0.4843 0.47274 0.95589 0.0
C998 C 0.53323 0.47794 0.07424 0.0
C999 C 0.54739 0.49993 0.0813 0.0
C1000 C 0.50975 0.46873 0.0816 0.0
C1001 C 0.49995 0.48131 0.09569 0.0
C1002 C 0.5141 0.50317 0.10485 0.0
H1003 H 0.35868 0.44999 0.16258 0.0
H1004 H 0.39966 0.46955 0.14145 0.0
C1005 C 0.53755 0.51239 0.09757 0.0
C1006 C 0.47497 0.47171 0.10123 0.0
H1007 H 0.42512 0.44178 0.00796 0.0
C1008 C 0.46598 0.47419 0.1663 0.0
C1009 C 0.46007 0.46023 0.04291 0.0
C1010 C 0.46872 0.45796 0.97036 0.0
C1011 C 0.44247 0.46489 0.1755 0.0
C1012 C 0.42756 0.45307 0.11765 0.0
C1013 C 0.43657 0.45088 0.05219 0.0
C1014 C 0.40256 0.44165 0.12565 0.0
C1015 C 0.43373 0.46716 0.2479 0.0
C1016 C 0.39049 0.41956 0.1212 0.0
C1017 C 0.3672 0.4084 0.13288 0.0
C1018 C 0.35535 0.41909 0.14884 0.0
C1019 C 0.3673 0.44129 0.15048 0.0
C1020 C 0.39073 0.45247 0.13901 0.0
H1021 H 0.44713 0.47313 0.29089 0.0
H1022 H 0.42747 0.47848 0.24319 0.0
H1023 H 0.41939 0.4518 0.26498 0.0
H1024 H 0.39923 0.41088 0.11057 0.0
H1025 H 0.35856 0.39133 0.13082 0.0
H1026 H 0.91762 0.73262 0.6774 0.0
H1027 H 0.90575 0.75731 0.63739 0.0
H1028 H 0.96624 0.78997 0.51076 0.0
H1029 H 0.97894 0.76592 0.55508 0.0
H1030 H 0.95767 0.81757 0.56622 0.0
H1031 H 0.87684 0.75483 0.4497 0.0
H1032 H 0.87829 0.75044 0.54432 0.0
H1033 H 0.89831 0.74947 0.48331 0.0
C1034 C 0.92842 0.74508 0.64105 0.0
C1035 C 0.94908 0.7472 0.61862 0.0
C1036 C 0.92151 0.75911 0.6176 0.0
C1037 C 0.93462 0.77512 0.56876 0.0
C1038 C 0.95564 0.77763 0.54776 0.0
H1039 H 0.86664 0.83286 0.34351 0.0
H1040 H 0.88603 0.81339 0.37368 0.0
C1041 C 0.96289 0.76389 0.57297 0.0
C1042 C 0.92632 0.78915 0.54028 0.0
H1043 H 0.87928 0.78828 0.47051 0.0
C1044 C 0.94061 0.81116 0.5444 0.0
C1045 C 0.90426 0.78095 0.50994 0.0
C1046 C 0.88869 0.75764 0.49577 0.0
C1047 C 0.93328 0.82509 0.52112 0.0
C1048 C 0.91061 0.81684 0.49605 0.0
C1049 C 0.89656 0.79482 0.49047 0.0
C1050 C 0.90093 0.83046 0.47451 0.0
C1051 C 0.95019 0.84841 0.52214 0.0
C1052 C 0.90301 0.84693 0.52002 0.0
C1053 C 0.89258 0.85864 0.50114 0.0
C1054 C 0.87911 0.85352 0.43795 0.0
C1055 C 0.87693 0.83708 0.39262 0.0
C1056 C 0.88797 0.8259 0.4101 0.0
H1057 H 0.96777 0.85139 0.51664 0.0
H1058 H 0.94675 0.85663 0.47782 0.0
H1059 H 0.94935 0.85539 0.57485 0.0
H1060 H 0.91211 0.85039 0.57126 0.0
H1061 H 0.89421 0.87105 0.53752 0.0
H1062 H 0.39364 0.14834 0.61688 0.0
H1063 H 0.37282 0.11403 0.5544 0.0
H1064 H 0.43353 0.10957 0.55067 0.0
H1065 H 0.45453 0.14383 0.61262 0.0
H1066 H 0.4066 0.09748 0.41547 0.0
H1067 H 0.35705 0.05837 0.66087 0.0
H1068 H 0.35665 0.08162 0.63248 0.0
H1069 H 0.38264 0.08377 0.66504 0.0
C1070 C 0.40257 0.14009 0.60265 0.0
C1071 C 0.42566 0.14869 0.62049 0.0
C1072 C 0.39067 0.12052 0.56694 0.0
C1073 C 0.40166 0.10928 0.54859 0.0
C1074 C 0.4248 0.11806 0.56448 0.0
H1075 H 0.36694 0.98568 0.38898 0.0
H1076 H 0.38615 0.02387 0.41186 0.0
C1077 C 0.4367 0.13757 0.60029 0.0
C1078 C 0.38884 0.08786 0.51624 0.0
H1079 H 0.34904 0.0374 0.55565 0.0
C1080 C 0.39391 0.08431 0.44575 0.0
C1081 C 0.37239 0.0708 0.55619 0.0
C1082 C 0.36689 0.07367 0.63305 0.0
C1083 C 0.38279 0.06402 0.41391 0.0
C1084 C 0.36657 0.0469 0.45437 0.0
C1085 C 0.36139 0.05058 0.52455 0.0
C1086 C 0.35519 0.02482 0.42699 0.0
C1087 C 0.38834 0.06113 0.33725 0.0
C1088 C 0.33147 0.01276 0.42685 0.0
C1089 C 0.32059 0.99102 0.41479 0.0
C1090 C 0.3332 0.98093 0.40238 0.0
C1091 C 0.35686 0.99316 0.39766 0.0
C1092 C 0.36781 0.01496 0.41052 0.0
H1093 H 0.39562 0.07612 0.30698 0.0
H1094 H 0.4011 0.05593 0.33846 0.0
H1095 H 0.37307 0.04895 0.30746 0.0
H1096 H 0.32141 0.02005 0.43942 0.0
H1097 H 0.30231 0.98191 0.41797 0.0
H1098 H 0.04876 0.25603 0.5274 0.0
H1099 H 0.08202 0.27689 0.45349 0.0
H1100 H 0.12448 0.2714 0.61653 0.0
H1101 H 0.09127 0.25066 0.69101 0.0
H1102 H 0.14165 0.31188 0.57157 0.0
H1103 H 0.11799 0.25742 0.33401 0.0
H1104 H 0.09703 0.26442 0.3569 0.0
H1105 H 0.10356 0.24939 0.41921 0.0
C1106 C 0.0651 0.25893 0.54695 0.0
C1107 C 0.06737 0.2516 0.61498 0.0
C1108 C 0.08412 0.27088 0.50463 0.0
C1109 C 0.10571 0.27549 0.52907 0.0
C1110 C 0.10798 0.26803 0.59661 0.0
H1111 H 0.22988 0.32165 0.29732 0.0
H1112 H 0.19418 0.30131 0.36006 0.0
C1113 C 0.08901 0.25621 0.63914 0.0
C1114 C 0.12608 0.28869 0.4856 0.0
H1115 H 0.15039 0.29132 0.32225 0.0
C1116 C 0.14357 0.3074 0.51702 0.0
C1117 C 0.12861 0.28272 0.41468 0.0
C1118 C 0.11091 0.2623 0.37933 0.0
C1119 C 0.16356 0.32028 0.47957 0.0
C1120 C 0.16589 0.3145 0.40818 0.0
C1121 C 0.1484 0.29582 0.37668 0.0
C1122 C 0.18698 0.32689 0.36706 0.0
C1123 C 0.18229 0.33961 0.51756 0.0
C1124 C 0.19456 0.34795 0.34885 0.0
C1125 C 0.21506 0.35971 0.31296 0.0
C1126 C 0.22824 0.35053 0.29443 0.0
C1127 C 0.2202 0.32924 0.31091 0.0
C1128 C 0.19977 0.31756 0.34674 0.0
H1129 H 0.17988 0.3392 0.5771 0.0
H1130 H 0.19905 0.34115 0.50694 0.0
H1131 H 0.18249 0.35387 0.49675 0.0
H1132 H 0.18471 0.35533 0.36289 0.0
H1133 H 0.22074 0.37603 0.30077 0.0
H1134 H 0.38536 0.21353 0.54389 0.0
H1135 H 0.37043 0.23105 0.46698 0.0
H1136 H 0.37395 0.27018 0.64859 0.0
H1137 H 0.38868 0.25273 0.72552 0.0
H1138 H 0.33404 0.25427 0.57312 0.0
H1139 H 0.40638 0.28993 0.38506 0.0
H1140 H 0.39334 0.2618 0.39174 0.0
H1141 H 0.40759 0.27831 0.46959 0.0
C1142 C 0.383 0.2259 0.56728 0.0
C1143 C 0.38821 0.23171 0.64083 0.0
C1144 C 0.37457 0.23596 0.52325 0.0
C1145 C 0.37148 0.25219 0.55178 0.0
C1146 C 0.37626 0.25773 0.62542 0.0
H1147 H 0.3267 0.33654 0.38969 0.0
H1148 H 0.34306 0.31924 0.46092 0.0
C1149 C 0.38455 0.24762 0.66948 0.0
C1150 C 0.36294 0.26326 0.50555 0.0
H1151 H 0.37453 0.29348 0.35476 0.0
C1152 C 0.34293 0.26289 0.52552 0.0
C1153 C 0.37462 0.27455 0.44355 0.0
C1154 C 0.39678 0.27639 0.42143 0.0
C1155 C 0.33412 0.27331 0.48471 0.0
C1156 C 0.34576 0.28453 0.42274 0.0
C1157 C 0.36569 0.28483 0.4024 0.0
C1158 C 0.3373 0.29589 0.37805 0.0
C1159 C 0.31225 0.27197 0.50752 0.0
C1160 C 0.32932 0.28886 0.30718 0.0
C1161 C 0.32006 0.29876 0.26626 0.0
C1162 C 0.3188 0.31598 0.2953 0.0
C1163 C 0.32757 0.32343 0.36552 0.0
C1164 C 0.33672 0.31345 0.40654 0.0
H1165 H 0.30303 0.25923 0.54709 0.0
H1166 H 0.31603 0.28716 0.53338 0.0
H1167 H 0.30098 0.26914 0.45977 0.0
H1168 H 0.32979 0.27542 0.28416 0.0
H1169 H 0.31374 0.29286 0.21202 0.0
H1170 H 0.94718 0.99103 0.49782 0.0
H1171 H 0.95821 0.02803 0.52022 0.0
H1172 H 0.89143 0.01463 0.4541 0.0
H1173 H 0.88013 0.97765 0.43304 0.0
H1174 H 0.95589 0.0594 0.42497 0.0
H1175 H 0.90117 0.03854 0.66669 0.0
H1176 H 0.90952 0.02086 0.62699 0.0
H1177 H 0.88748 0.02393 0.585 0.0
C1178 C 0.93488 0.99597 0.48782 0.0
C1179 C 0.91272 0.9813 0.46415 0.0
C1180 C 0.94125 0.01713 0.5002 0.0
C1181 C 0.92554 0.02396 0.4896 0.0
C1182 C 0.90373 0.0096 0.46321 0.0
H1183 H 0.91925 0.13596 0.58995 0.0
H1184 H 0.91278 0.10167 0.54792 0.0
C1185 C 0.89736 0.98848 0.4506 0.0
C1186 C 0.93151 0.04579 0.50975 0.0
H1187 H 0.91857 0.07392 0.62917 0.0
C1188 C 0.94784 0.06266 0.46971 0.0
C1189 C 0.92099 0.0499 0.56832 0.0
C1190 C 0.90394 0.03241 0.61477 0.0
C1191 C 0.95347 0.08358 0.48553 0.0
C1192 C 0.94279 0.08767 0.54384 0.0
C1193 C 0.92668 0.07076 0.58432 0.0
C1194 C 0.94757 0.10925 0.56347 0.0
C1195 C 0.97027 0.10102 0.43848 0.0
C1196 C 0.96937 0.12504 0.5857 0.0
C1197 C 0.97318 0.14481 0.60951 0.0
C1198 C 0.95518 0.14899 0.61235 0.0
C1199 C 0.93348 0.13324 0.58886 0.0
C1200 C 0.92974 0.11361 0.56471 0.0
H1201 H 0.97239 0.09484 0.38568 0.0
H1202 H 0.96493 0.11283 0.42802 0.0
H1203 H 0.98701 0.10917 0.4667 0.0
H1204 H 0.98329 0.1219 0.58664 0.0
H1205 H 0.99006 0.15658 0.62756 0.0
H1206 H 0.09061 0.76147 0.7186 0.0
H1207 H 0.12634 0.78111 0.6559 0.0
H1208 H 0.09285 0.79608 0.4867 0.0
H1209 H 0.05673 0.77631 0.54967 0.0
H1210 H 0.12272 0.78357 0.43389 0.0
H1211 H 0.16446 0.84516 0.64804 0.0
H1212 H 0.15305 0.81898 0.68228 0.0
H1213 H 0.13428 0.82723 0.64489 0.0
C1214 C 0.09079 0.76914 0.66859 0.0
C1215 C 0.0708 0.76757 0.63983 0.0
C1216 C 0.11129 0.78035 0.63268 0.0
C1217 C 0.11239 0.79046 0.56743 0.0
C1218 C 0.09241 0.78853 0.53734 0.0
H1219 H 0.24428 0.88308 0.40093 0.0
H1220 H 0.20504 0.86535 0.44092 0.0
C1221 C 0.07179 0.7772 0.57325 0.0
C1222 C 0.13447 0.80284 0.53098 0.0
H1223 H 0.18873 0.84286 0.56036 0.0
C1224 C 0.13711 0.79668 0.46113 0.0
C1225 C 0.15316 0.82017 0.56607 0.0
C1226 C 0.15108 0.82843 0.63915 0.0
C1227 C 0.15817 0.80687 0.42663 0.0
C1228 C 0.17717 0.82341 0.46355 0.0
C1229 C 0.17427 0.83004 0.53227 0.0
C1230 C 0.20033 0.83387 0.43299 0.0
C1231 C 0.15981 0.79989 0.35085 0.0
C1232 C 0.21079 0.8221 0.41489 0.0
C1233 C 0.23322 0.8322 0.39149 0.0
C1234 C 0.24575 0.85431 0.38666 0.0
C1235 C 0.23514 0.86603 0.40399 0.0
C1236 C 0.21269 0.85591 0.42693 0.0
H1237 H 0.14308 0.79214 0.32238 0.0
H1238 H 0.17203 0.81342 0.31825 0.0
H1239 H 0.1657 0.78826 0.35374 0.0
H1240 H 0.20184 0.80514 0.42083 0.0
H1241 H 0.24091 0.82271 0.37906 0.0
loop_
_geom_bond_atom_site_label_1
_geom_bond_atom_site_label_2
_geom_bond_distance
_geom_bond_site_symmetry_2
_ccdc_geom_bond_type
Co0 N5 2.057 . S
Co0 O17 2.021 1_554 S
Co0 O20 2.062 . S
Co0 O24 2.117 . S
Co0 O25 2.020 . S
C1 O21 1.259 . S
C1 O24 1.258 . S
Co2 N11 2.057 1_554 S
Co2 O18 2.117 1_554 S
Co2 O19 2.020 . S
Co2 O21 2.021 . S
Co2 O26 2.062 . S
C3 N5 1.316 . S
C3 N6 1.347 . S
C3 H8 0.931 1_554 S
C4 N5 1.375 . S
C4 C7 1.350 . S
C4 H9 0.930 . S
N5 Co0 2.057 . S
N5 C3 1.316 . S
N5 C4 1.375 . S
N6 C3 1.347 . S
N6 C7 1.373 . S
C7 C4 1.350 . S
C7 N6 1.373 . S
C7 H28 0.931 . S
H8 C3 0.931 1_556 S
H9 C4 0.930 . S
C10 O17 1.259 . S
C10 O18 1.258 . S
N11 Co2 2.057 1_556 S
N11 C12 1.316 1_556 S
N11 C13 1.375 . S
C12 N11 1.316 1_554 S
C12 N14 1.347 1_554 S
C12 H23 0.931 . S
C13 N11 1.375 . S
C13 C15 1.350 . S
C13 H22 0.930 . S
N14 C12 1.347 1_556 S
N14 C15 1.373 . S
C15 C13 1.350 . S
C15 N14 1.373 . S
C15 H29 0.931 . S
C16 O19 1.256 . S
C16 O20 1.255 . S
O17 Co0 2.021 1_556 S
O17 C10 1.259 . S
O18 Co2 2.117 1_556 S
O18 C10 1.258 . S
O19 Co2 2.020 . S
O19 C16 1.256 . S
O20 Co0 2.062 . S
O20 C16 1.255 . S
O21 C1 1.259 . S
O21 Co2 2.021 . S
H22 C13 0.930 . S
H23 C12 0.931 . S
O24 Co0 2.117 . S
O24 C1 1.258 . S
O25 Co0 2.020 . S
O25 C27 1.256 . S
O26 Co2 2.062 . S
O26 C27 1.255 . S
C27 O25 1.256 . S
C27 O26 1.255 . S
H28 C7 0.931 . S
H29 C15 0.931 . S
Co30 N35 2.057 . S
Co30 O47 2.021 . S
Co30 O50 2.062 . S
Co30 O54 2.117 1_554 S
Co30 O55 2.020 . S
C31 O51 1.259 . S
C31 O54 1.258 . S
Co32 N41 2.057 . S
Co32 O48 2.117 . S
Co32 O49 2.020 . S
Co32 O51 2.021 1_554 S
Co32 O56 2.062 . S
C33 N35 1.316 . S
C33 N36 1.347 . S
C33 H38 0.931 . S
C34 N35 1.375 1_556 S
C34 C37 1.350 . S
C34 H39 0.930 . S
N35 Co30 2.057 . S
N35 C33 1.316 . S
N35 C34 1.375 1_554 S
N36 C33 1.347 . S
N36 C37 1.373 1_554 S
C37 C34 1.350 . S
C37 N36 1.373 1_556 S
C37 H58 0.931 . S
H38 C33 0.931 . S
H39 C34 0.930 . S
C40 O47 1.259 . S
C40 O48 1.258 . S
N41 Co32 2.057 . S
N41 C42 1.316 . S
N41 C43 1.375 . S
C42 N41 1.316 . S
C42 N44 1.347 . S
C42 H53 0.931 . S
C43 N41 1.375 . S
C43 C45 1.350 . S
C43 H52 0.930 . S
N44 C42 1.347 . S
N44 C45 1.373 . S
C45 C43 1.350 . S
C45 N44 1.373 . S
C45 H59 0.931 . S
C46 O49 1.256 . S
C46 O50 1.255 . S
O47 Co30 2.021 . S
O47 C40 1.259 . S
O48 Co32 2.117 . S
O48 C40 1.258 . S
O49 Co32 2.020 . S
O49 C46 1.256 . S
O50 Co30 2.062 . S
O50 C46 1.255 . S
O51 C31 1.259 . S
O51 Co32 2.021 1_556 S
H52 C43 0.930 . S
H53 C42 0.931 . S
O54 Co30 2.117 1_556 S
O54 C31 1.258 . S
O55 Co30 2.020 . S
O55 C57 1.256 . S
O56 Co32 2.062 . S
O56 C57 1.255 . S
C57 O55 1.256 . S
C57 O56 1.255 . S
H58 C37 0.931 . S
H59 C45 0.931 . S
Co60 N65 2.057 1_545 S
Co60 O77 2.021 . S
Co60 O80 2.062 . S
Co60 O84 2.117 . S
Co60 O85 2.020 1_545 S
C61 O81 1.259 . S
C61 O84 1.258 . S
Co62 N71 2.057 . S
Co62 O78 2.117 . S
Co62 O79 2.020 . S
Co62 O81 2.021 . S
Co62 O86 2.062 . S
C63 N65 1.316 . S
C63 N66 1.347 . S
C63 H68 0.931 . S
C64 N65 1.375 . S
C64 C67 1.350 . S
C64 H69 0.930 . S
N65 Co60 2.057 1_565 S
N65 C63 1.316 . S
N65 C64 1.375 . S
N66 C63 1.347 . S
N66 C67 1.373 . S
C67 C64 1.350 . S
C67 N66 1.373 . S
C67 H88 0.931 . S
H68 C63 0.931 . S
H69 C64 0.930 . S
C70 O77 1.259 1_556 S
C70 O78 1.258 1_556 S
N71 Co62 2.057 . S
N71 C72 1.316 . S
N71 C73 1.375 . S
C72 N71 1.316 . S
C72 N74 1.347 . S
C72 H83 0.931 . S
C73 N71 1.375 . S
C73 C75 1.350 . S
C73 H82 0.930 1_554 S
N74 C72 1.347 . S
N74 C75 1.373 . S
C75 C73 1.350 . S
C75 N74 1.373 . S
C75 H89 0.931 1_554 S
C76 O79 1.256 . S
C76 O80 1.255 . S
O77 Co60 2.021 . S
O77 C70 1.259 1_554 S
O78 Co62 2.117 . S
O78 C70 1.258 1_554 S
O79 Co62 2.020 . S
O79 C76 1.256 . S
O80 Co60 2.062 . S
O80 C76 1.255 . S
O81 C61 1.259 . S
O81 Co62 2.021 . S
H82 C73 0.930 1_556 S
H83 C72 0.931 . S
O84 Co60 2.117 . S
O84 C61 1.258 . S
O85 Co60 2.020 1_565 S
O85 C87 1.256 . S
O86 Co62 2.062 . S
O86 C87 1.255 1_545 S
C87 O85 1.256 . S
C87 O86 1.255 1_565 S
H88 C67 0.931 . S
H89 C75 0.931 1_556 S
Co90 N95 2.057 . S
Co90 O107 2.021 . S
Co90 O110 2.062 . S
Co90 O114 2.117 . S
Co90 O115 2.020 . S
C91 O111 1.259 . S
C91 O114 1.258 . S
Co92 N101 2.057 . S
Co92 O108 2.117 . S
Co92 O109 2.020 . S
Co92 O111 2.021 . S
Co92 O116 2.062 . S
C93 N95 1.316 . S
C93 N96 1.347 . S
C93 H98 0.931 . S
C94 N95 1.375 . S
C94 C97 1.350 . S
C94 H99 0.930 . S
N95 Co90 2.057 . S
N95 C93 1.316 . S
N95 C94 1.375 . S
N96 C93 1.347 . S
N96 C97 1.373 . S
C97 C94 1.350 . S
C97 N96 1.373 . S
C97 H118 0.931 . S
H98 C93 0.931 . S
H99 C94 0.930 . S
C100 O107 1.259 . S
C100 O108 1.258 . S
N101 Co92 2.057 . S
N101 C102 1.316 . S
N101 C103 1.375 . S
C102 N101 1.316 . S
C102 N104 1.347 . S
C102 H113 0.931 . S
C103 N101 1.375 . S
C103 C105 1.350 . S
C103 H112 0.930 . S
N104 C102 1.347 . S
N104 C105 1.373 . S
C105 C103 1.350 . S
C105 N104 1.373 . S
C105 H119 0.931 . S
C106 O109 1.256 . S
C106 O110 1.255 . S
O107 Co90 2.021 . S
O107 C100 1.259 . S
O108 Co92 2.117 . S
O108 C100 1.258 . S
O109 Co92 2.020 . S
O109 C106 1.256 . S
O110 Co90 2.062 . S
O110 C106 1.255 . S
O111 C91 1.259 . S
O111 Co92 2.021 . S
H112 C103 0.930 . S
H113 C102 0.931 . S
O114 Co90 2.117 . S
O114 C91 1.258 . S
O115 Co90 2.020 . S
O115 C117 1.256 . S
O116 Co92 2.062 . S
O116 C117 1.255 . S
C117 O115 1.256 . S
C117 O116 1.255 . S
H118 C97 0.931 . S
H119 C105 0.931 . S
Co120 N125 2.057 . S
Co120 O137 2.021 . S
Co120 O140 2.062 . S
Co120 O144 2.117 . S
Co120 O145 2.020 . S
C121 O141 1.259 . S
C121 O144 1.258 . S
Co122 N131 2.057 . S
Co122 O138 2.117 . S
Co122 O139 2.020 . S
Co122 O141 2.021 . S
Co122 O146 2.062 . S
C123 N125 1.316 . S
C123 N126 1.347 . S
C123 H128 0.931 . S
C124 N125 1.375 . S
C124 C127 1.350 . S
C124 H129 0.930 . S
N125 Co120 2.057 . S
N125 C123 1.316 . S
N125 C124 1.375 . S
N126 C123 1.347 . S
N126 C127 1.373 . S
C127 C124 1.350 . S
C127 N126 1.373 . S
C127 H148 0.931 . S
H128 C123 0.931 . S
H129 C124 0.930 . S
C130 O137 1.259 . S
C130 O138 1.258 . S
N131 Co122 2.057 . S
N131 C132 1.316 . S
N131 C133 1.375 . S
C132 N131 1.316 . S
C132 N134 1.347 . S
C132 H143 0.931 . S
C133 N131 1.375 . S
C133 C135 1.350 . S
C133 H142 0.930 . S
N134 C132 1.347 . S
N134 C135 1.373 . S
C135 C133 1.350 . S
C135 N134 1.373 . S
C135 H149 0.931 . S
C136 O139 1.256 . S
C136 O140 1.255 . S
O137 Co120 2.021 . S
O137 C130 1.259 . S
O138 Co122 2.117 . S
O138 C130 1.258 . S
O139 Co122 2.020 . S
O139 C136 1.256 . S
O140 Co120 2.062 . S
O140 C136 1.255 . S
O141 C121 1.259 . S
O141 Co122 2.021 . S
H142 C133 0.930 . S
H143 C132 0.931 . S
O144 Co120 2.117 . S
O144 C121 1.258 . S
O145 Co120 2.020 . S
O145 C147 1.256 . S
O146 Co122 2.062 . S
O146 C147 1.255 . S
C147 O145 1.256 . S
C147 O146 1.255 . S
H148 C127 0.931 . S
H149 C135 0.931 . S
Co150 N155 2.057 . S
Co150 O167 2.021 . S
Co150 O170 2.062 . S
Co150 O174 2.117 . S
Co150 O175 2.020 . S
C151 O171 1.259 . S
C151 O174 1.258 . S
Co152 N161 2.057 . S
Co152 O168 2.117 . S
Co152 O169 2.020 . S
Co152 O171 2.021 . S
Co152 O176 2.062 . S
C153 N155 1.316 . S
C153 N156 1.347 . S
C153 H158 0.931 . S
C154 N155 1.375 . S
C154 C157 1.350 . S
C154 H159 0.930 . S
N155 Co150 2.057 . S
N155 C153 1.316 . S
N155 C154 1.375 . S
N156 C153 1.347 . S
N156 C157 1.373 . S
C157 C154 1.350 . S
C157 N156 1.373 . S
C157 H178 0.931 . S
H158 C153 0.931 . S
H159 C154 0.930 . S
C160 O167 1.259 . S
C160 O168 1.258 . S
N161 Co152 2.057 . S
N161 C162 1.316 . S
N161 C163 1.375 . S
C162 N161 1.316 . S
C162 N164 1.347 . S
C162 H173 0.931 . S
C163 N161 1.375 . S
C163 C165 1.350 . S
C163 H172 0.930 . S
N164 C162 1.347 . S
N164 C165 1.373 . S
C165 C163 1.350 . S
C165 N164 1.373 . S
C165 H179 0.931 . S
C166 O169 1.256 . S
C166 O170 1.255 . S
O167 Co150 2.021 . S
O167 C160 1.259 . S
O168 Co152 2.117 . S
O168 C160 1.258 . S
O169 Co152 2.020 . S
O169 C166 1.256 . S
O170 Co150 2.062 . S
O170 C166 1.255 . S
O171 C151 1.259 . S
O171 Co152 2.021 . S
H172 C163 0.930 . S
H173 C162 0.931 . S
O174 Co150 2.117 . S
O174 C151 1.258 . S
O175 Co150 2.020 . S
O175 C177 1.256 . S
O176 Co152 2.062 . S
O176 C177 1.255 . S
C177 O175 1.256 . S
C177 O176 1.255 . S
H178 C157 0.931 . S
H179 C165 0.931 . S
Co180 N185 2.057 . S
Co180 O197 2.021 . S
Co180 O200 2.062 . S
Co180 O204 2.117 . S
Co180 O205 2.020 . S
C181 O201 1.259 . S
C181 O204 1.258 . S
Co182 N191 2.057 . S
Co182 O198 2.117 . S
Co182 O199 2.020 . S
Co182 O201 2.021 . S
Co182 O206 2.062 . S
C183 N185 1.316 . S
C183 N186 1.347 . S
C183 H188 0.931 . S
C184 N185 1.375 . S
C184 C187 1.350 . S
C184 H189 0.930 . S
N185 Co180 2.057 . S
N185 C183 1.316 . S
N185 C184 1.375 . S
N186 C183 1.347 . S
N186 C187 1.373 . S
C187 C184 1.350 . S
C187 N186 1.373 . S
C187 H208 0.931 . S
H188 C183 0.931 . S
H189 C184 0.930 . S
C190 O197 1.259 . S
C190 O198 1.258 . S
N191 Co182 2.057 . S
N191 C192 1.316 . S
N191 C193 1.375 . S
C192 N191 1.316 . S
C192 N194 1.347 . S
C192 H203 0.931 . S
C193 N191 1.375 . S
C193 C195 1.350 . S
C193 H202 0.930 . S
N194 C192 1.347 . S
N194 C195 1.373 . S
C195 C193 1.350 . S
C195 N194 1.373 . S
C195 H209 0.931 . S
C196 O199 1.256 . S
C196 O200 1.255 . S
O197 Co180 2.021 . S
O197 C190 1.259 . S
O198 Co182 2.117 . S
O198 C190 1.258 . S
O199 Co182 2.020 . S
O199 C196 1.256 . S
O200 Co180 2.062 . S
O200 C196 1.255 . S
O201 C181 1.259 . S
O201 Co182 2.021 . S
H202 C193 0.930 . S
H203 C192 0.931 . S
O204 Co180 2.117 . S
O204 C181 1.258 . S
O205 Co180 2.020 . S
O205 C207 1.256 . S
O206 Co182 2.062 . S
O206 C207 1.255 . S
C207 O205 1.256 . S
C207 O206 1.255 . S
H208 C187 0.931 . S
H209 C195 0.931 . S
Co210 N215 2.057 1_655 S
Co210 O227 2.021 . S
Co210 O230 2.062 . S
Co210 O234 2.117 . S
Co210 O235 2.020 . S
C211 O231 1.259 . S
C211 O234 1.258 . S
Co212 N221 2.057 . S
Co212 O228 2.117 . S
Co212 O229 2.020 . S
Co212 O231 2.021 . S
Co212 O236 2.062 . S
C213 N215 1.316 . S
C213 N216 1.347 . S
C213 H218 0.931 . S
C214 N215 1.375 . S
C214 C217 1.350 . S
C214 H219 0.930 . S
N215 Co210 2.057 1_455 S
N215 C213 1.316 . S
N215 C214 1.375 . S
N216 C213 1.347 . S
N216 C217 1.373 . S
C217 C214 1.350 . S
C217 N216 1.373 . S
C217 H238 0.931 . S
H218 C213 0.931 . S
H219 C214 0.930 . S
C220 O227 1.259 . S
C220 O228 1.258 . S
N221 Co212 2.057 . S
N221 C222 1.316 . S
N221 C223 1.375 . S
C222 N221 1.316 . S
C222 N224 1.347 . S
C222 H233 0.931 . S
C223 N221 1.375 . S
C223 C225 1.350 . S
C223 H232 0.930 . S
N224 C222 1.347 . S
N224 C225 1.373 . S
C225 C223 1.350 . S
C225 N224 1.373 . S
C225 H239 0.931 . S
C226 O229 1.256 . S
C226 O230 1.255 . S
O227 Co210 2.021 . S
O227 C220 1.259 . S
O228 Co212 2.117 . S
O228 C220 1.258 . S
O229 Co212 2.020 . S
O229 C226 1.256 . S
O230 Co210 2.062 . S
O230 C226 1.255 . S
O231 C211 1.259 . S
O231 Co212 2.021 . S
H232 C223 0.930 . S
H233 C222 0.931 . S
O234 Co210 2.117 . S
O234 C211 1.258 . S
O235 Co210 2.020 . S
O235 C237 1.256 . S
O236 Co212 2.062 . S
O236 C237 1.255 . S
C237 O235 1.256 . S
C237 O236 1.255 . S
H238 C217 0.931 . S
H239 C225 0.931 . S
Co240 N245 2.057 . S
Co240 O257 2.021 . S
Co240 O260 2.062 . S
Co240 O264 2.117 . S
Co240 O265 2.020 . S
C241 O261 1.259 . S
C241 O264 1.258 . S
Co242 N251 2.057 1_655 S
Co242 O258 2.117 . S
Co242 O259 2.020 . S
Co242 O261 2.021 . S
Co242 O266 2.062 . S
C243 N245 1.316 . S
C243 N246 1.347 . S
C243 H248 0.931 . S
C244 N245 1.375 . S
C244 C247 1.350 . S
C244 H249 0.930 . S
N245 Co240 2.057 . S
N245 C243 1.316 . S
N245 C244 1.375 . S
N246 C243 1.347 . S
N246 C247 1.373 . S
C247 C244 1.350 . S
C247 N246 1.373 . S
C247 H268 0.931 . S
H248 C243 0.931 . S
H249 C244 0.930 . S
C250 O257 1.259 . S
C250 O258 1.258 . S
N251 Co242 2.057 1_455 S
N251 C252 1.316 . S
N251 C253 1.375 . S
C252 N251 1.316 . S
C252 N254 1.347 . S
C252 H263 0.931 . S
C253 N251 1.375 . S
C253 C255 1.350 . S
C253 H262 0.930 . S
N254 C252 1.347 . S
N254 C255 1.373 . S
C255 C253 1.350 . S
C255 N254 1.373 . S
C255 H269 0.931 . S
C256 O259 1.256 . S
C256 O260 1.255 . S
O257 Co240 2.021 . S
O257 C250 1.259 . S
O258 Co242 2.117 . S
O258 C250 1.258 . S
O259 Co242 2.020 . S
O259 C256 1.256 . S
O260 Co240 2.062 . S
O260 C256 1.255 . S
O261 C241 1.259 . S
O261 Co242 2.021 . S
H262 C253 0.930 . S
H263 C252 0.931 . S
O264 Co240 2.117 . S
O264 C241 1.258 . S
O265 Co240 2.020 . S
O265 C267 1.256 . S
O266 Co242 2.062 . S
O266 C267 1.255 . S
C267 O265 1.256 . S
C267 O266 1.255 . S
H268 C247 0.931 . S
H269 C255 0.931 . S
H270 C278 0.929 . S
H271 C280 0.930 . S
H272 C282 0.930 . S
H273 C285 0.929 . S
H274 C288 0.930 . S
H275 C290 0.960 . S
H276 C290 0.960 . S
H277 C290 0.960 . S
C278 H270 0.929 . S
C278 C279 1.377 . S
C278 C280 1.384 . S
C279 C278 1.377 . S
C279 C285 1.390 . S
C280 H271 0.930 . S
C280 C278 1.384 . S
C280 C281 1.372 . S
C281 C280 1.372 . S
C281 C282 1.400 . S
C281 C286 1.490 . S
C282 H272 0.930 . S
C282 C281 1.400 . S
C282 C285 1.386 . S
H283 C299 0.930 . S
H284 C300 0.931 . S
C285 H273 0.929 . S
C285 C279 1.390 . S
C285 C282 1.386 . S
C286 C281 1.490 . S
C286 C288 1.395 . S
C286 C289 1.403 . S
H287 C293 0.930 . S
C288 H274 0.930 . S
C288 C286 1.395 . S
C288 C291 1.403 . S
C289 C286 1.403 . S
C289 C290 1.524 . S
C289 C293 1.400 . S
C290 H275 0.960 . S
C290 H276 0.960 . S
C290 H277 0.960 . S
C290 C289 1.524 . S
C291 C288 1.403 . S
C291 C292 1.392 . S
C291 C295 1.495 . S
C292 C291 1.392 . S
C292 C293 1.385 . S
C292 C294 1.478 . S
C293 H287 0.930 . S
C293 C289 1.400 . S
C293 C292 1.385 . S
C294 C292 1.478 . S
C294 C296 1.381 . S
C294 C300 1.383 . S
C295 C291 1.495 . S
C295 H301 0.959 . S
C295 H302 0.961 . S
C295 H303 0.960 . S
C296 C294 1.381 . S
C296 C297 1.394 . S
C296 H304 0.930 . S
C297 C296 1.394 . S
C297 C298 1.383 . S
C297 H305 0.929 . S
C298 C297 1.383 . S
C298 C299 1.377 . S
C299 H283 0.930 . S
C299 C298 1.377 . S
C299 C300 1.379 . S
C300 H284 0.931 . S
C300 C294 1.383 . S
C300 C299 1.379 . S
H301 C295 0.959 . S
H302 C295 0.961 . S
H303 C295 0.960 . S
H304 C296 0.930 . S
H305 C297 0.929 . S
H306 C314 0.929 . S
H307 C316 0.930 . S
H308 C318 0.930 . S
H309 C321 0.929 . S
H310 C324 0.930 . S
H311 C326 0.960 . S
H312 C326 0.960 . S
H313 C326 0.960 . S
C314 H306 0.929 . S
C314 C315 1.377 . S
C314 C316 1.384 . S
C315 C314 1.377 . S
C315 C321 1.390 . S
C316 H307 0.930 . S
C316 C314 1.384 . S
C316 C317 1.372 . S
C317 C316 1.372 . S
C317 C318 1.400 . S
C317 C322 1.490 . S
C318 H308 0.930 . S
C318 C317 1.400 . S
C318 C321 1.386 . S
H319 C335 0.930 . S
H320 C336 0.931 . S
C321 H309 0.929 . S
C321 C315 1.390 . S
C321 C318 1.386 . S
C322 C317 1.490 . S
C322 C324 1.395 . S
C322 C325 1.403 . S
H323 C329 0.930 . S
C324 H310 0.930 . S
C324 C322 1.395 . S
C324 C327 1.403 . S
C325 C322 1.403 . S
C325 C326 1.524 . S
C325 C329 1.400 . S
C326 H311 0.960 . S
C326 H312 0.960 . S
C326 H313 0.960 . S
C326 C325 1.524 . S
C327 C324 1.403 . S
C327 C328 1.392 . S
C327 C331 1.495 . S
C328 C327 1.392 . S
C328 C329 1.385 . S
C328 C330 1.478 . S
C329 H323 0.930 . S
C329 C325 1.400 . S
C329 C328 1.385 . S
C330 C328 1.478 . S
C330 C332 1.381 . S
C330 C336 1.383 . S
C331 C327 1.495 . S
C331 H337 0.959 . S
C331 H338 0.961 . S
C331 H339 0.960 . S
C332 C330 1.381 . S
C332 C333 1.394 . S
C332 H340 0.930 . S
C333 C332 1.394 . S
C333 C334 1.383 . S
C333 H341 0.929 . S
C334 C333 1.383 . S
C334 C335 1.377 . S
C335 H319 0.930 . S
C335 C334 1.377 . S
C335 C336 1.379 . S
C336 H320 0.931 . S
C336 C330 1.383 . S
C336 C335 1.379 . S
H337 C331 0.959 . S
H338 C331 0.961 . S
H339 C331 0.960 . S
H340 C332 0.930 . S
H341 C333 0.929 . S
H342 C350 0.929 . S
H343 C352 0.930 . S
H344 C354 0.930 1_565 S
H345 C357 0.929 1_565 S
H346 C360 0.930 . S
H347 C362 0.960 . S
H348 C362 0.960 . S
H349 C362 0.960 . S
C350 H342 0.929 . S
C350 C351 1.377 . S
C350 C352 1.384 . S
C351 C350 1.377 . S
C351 C357 1.390 . S
C352 H343 0.930 . S
C352 C350 1.384 . S
C352 C353 1.372 . S
C353 C352 1.372 . S
C353 C354 1.400 . S
C353 C358 1.490 . S
C354 H344 0.930 1_545 S
C354 C353 1.400 . S
C354 C357 1.386 . S
H355 C371 0.930 . S
H356 C372 0.931 . S
C357 H345 0.929 1_545 S
C357 C351 1.390 . S
C357 C354 1.386 . S
C358 C353 1.490 . S
C358 C360 1.395 . S
C358 C361 1.403 . S
H359 C365 0.930 . S
C360 H346 0.930 . S
C360 C358 1.395 . S
C360 C363 1.403 . S
C361 C358 1.403 . S
C361 C362 1.524 . S
C361 C365 1.400 . S
C362 H347 0.960 . S
C362 H348 0.960 . S
C362 H349 0.960 . S
C362 C361 1.524 . S
C363 C360 1.403 . S
C363 C364 1.392 . S
C363 C367 1.495 . S
C364 C363 1.392 . S
C364 C365 1.385 . S
C364 C366 1.478 . S
C365 H359 0.930 . S
C365 C361 1.400 . S
C365 C364 1.385 . S
C366 C364 1.478 . S
C366 C368 1.381 . S
C366 C372 1.383 . S
C367 C363 1.495 . S
C367 H373 0.959 . S
C367 H374 0.961 . S
C367 H375 0.960 . S
C368 C366 1.381 . S
C368 C369 1.394 . S
C368 H376 0.930 . S
C369 C368 1.394 . S
C369 C370 1.383 . S
C369 H377 0.929 . S
C370 C369 1.383 . S
C370 C371 1.377 . S
C371 H355 0.930 . S
C371 C370 1.377 . S
C371 C372 1.379 . S
C372 H356 0.931 . S
C372 C366 1.383 . S
C372 C371 1.379 . S
H373 C367 0.959 . S
H374 C367 0.961 . S
H375 C367 0.960 . S
H376 C368 0.930 . S
H377 C369 0.929 . S
H378 C386 0.929 . S
H379 C388 0.930 . S
H380 C390 0.930 . S
H381 C393 0.929 . S
H382 C396 0.930 . S
H383 C398 0.960 . S
H384 C398 0.960 . S
H385 C398 0.960 . S
C386 H378 0.929 . S
C386 C387 1.377 . S
C386 C388 1.384 . S
C387 C386 1.377 . S
C387 C393 1.390 . S
C388 H379 0.930 . S
C388 C386 1.384 . S
C388 C389 1.372 . S
C389 C388 1.372 . S
C389 C390 1.400 . S
C389 C394 1.490 . S
C390 H380 0.930 . S
C390 C389 1.400 . S
C390 C393 1.386 . S
H391 C407 0.930 . S
H392 C408 0.931 . S
C393 H381 0.929 . S
C393 C387 1.390 . S
C393 C390 1.386 . S
C394 C389 1.490 . S
C394 C396 1.395 . S
C394 C397 1.403 . S
H395 C401 0.930 . S
C396 H382 0.930 . S
C396 C394 1.395 . S
C396 C399 1.403 . S
C397 C394 1.403 . S
C397 C398 1.524 . S
C397 C401 1.400 . S
C398 H383 0.960 . S
C398 H384 0.960 . S
C398 H385 0.960 . S
C398 C397 1.524 . S
C399 C396 1.403 . S
C399 C400 1.392 . S
C399 C403 1.495 . S
C400 C399 1.392 . S
C400 C401 1.385 . S
C400 C402 1.478 1_556 S
C401 H395 0.930 . S
C401 C397 1.400 . S
C401 C400 1.385 . S
C402 C400 1.478 1_554 S
C402 C404 1.381 . S
C402 C408 1.383 . S
C403 C399 1.495 . S
C403 H409 0.959 . S
C403 H410 0.961 . S
C403 H411 0.960 . S
C404 C402 1.381 . S
C404 C405 1.394 . S
C404 H412 0.930 . S
C405 C404 1.394 . S
C405 C406 1.383 . S
C405 H413 0.929 . S
C406 C405 1.383 . S
C406 C407 1.377 . S
C407 H391 0.930 . S
C407 C406 1.377 . S
C407 C408 1.379 . S
C408 H392 0.931 . S
C408 C402 1.383 . S
C408 C407 1.379 . S
H409 C403 0.959 . S
H410 C403 0.961 . S
H411 C403 0.960 . S
H412 C404 0.930 . S
H413 C405 0.929 . S
H414 C422 0.929 . S
H415 C424 0.930 . S
H416 C426 0.930 . S
H417 C429 0.929 . S
H418 C432 0.930 . S
H419 C434 0.960 . S
H420 C434 0.960 . S
H421 C434 0.960 . S
C422 H414 0.929 . S
C422 C423 1.377 . S
C422 C424 1.384 . S
C423 C422 1.377 . S
C423 C429 1.390 . S
C424 H415 0.930 . S
C424 C422 1.384 . S
C424 C425 1.372 . S
C425 C424 1.372 . S
C425 C426 1.400 . S
C425 C430 1.490 . S
C426 H416 0.930 . S
C426 C425 1.400 . S
C426 C429 1.386 . S
H427 C443 0.930 . S
H428 C444 0.931 . S
C429 H417 0.929 . S
C429 C423 1.390 . S
C429 C426 1.386 . S
C430 C425 1.490 . S
C430 C432 1.395 . S
C430 C433 1.403 . S
H431 C437 0.930 . S
C432 H418 0.930 . S
C432 C430 1.395 . S
C432 C435 1.403 . S
C433 C430 1.403 . S
C433 C434 1.524 . S
C433 C437 1.400 . S
C434 H419 0.960 . S
C434 H420 0.960 . S
C434 H421 0.960 . S
C434 C433 1.524 . S
C435 C432 1.403 . S
C435 C436 1.392 . S
C435 C439 1.495 . S
C436 C435 1.392 . S
C436 C437 1.385 . S
C436 C438 1.478 . S
C437 H431 0.930 . S
C437 C433 1.400 . S
C437 C436 1.385 . S
C438 C436 1.478 . S
C438 C440 1.381 1_556 S
C438 C444 1.383 1_556 S
C439 C435 1.495 . S
C439 H445 0.959 . S
C439 H446 0.961 . S
C439 H447 0.960 . S
C440 C438 1.381 1_554 S
C440 C441 1.394 . S
C440 H448 0.932 . S
C441 C440 1.394 . S
C441 C442 1.383 . S
C441 H449 0.929 . S
C442 C441 1.383 . S
C442 C443 1.377 . S
C443 H427 0.930 . S
C443 C442 1.377 . S
C443 C444 1.379 . S
C444 H428 0.931 . S
C444 C438 1.383 1_554 S
C444 C443 1.379 . S
H445 C439 0.959 . S
H446 C439 0.961 . S
H447 C439 0.960 . S
H448 C440 0.932 . S
H449 C441 0.929 . S
H450 C458 0.929 . S
H451 C460 0.930 . S
H452 C462 0.930 . S
H453 C465 0.929 . S
H454 C468 0.930 . S
H455 C470 0.960 . S
H456 C470 0.960 . S
H457 C470 0.960 . S
C458 H450 0.929 . S
C458 C459 1.377 . S
C458 C460 1.384 . S
C459 C458 1.377 . S
C459 C465 1.390 . S
C460 H451 0.930 . S
C460 C458 1.384 . S
C460 C461 1.372 . S
C461 C460 1.372 . S
C461 C462 1.400 . S
C461 C466 1.490 . S
C462 H452 0.930 . S
C462 C461 1.400 . S
C462 C465 1.386 . S
H463 C479 0.930 . S
H464 C480 0.931 . S
C465 H453 0.929 . S
C465 C459 1.390 . S
C465 C462 1.386 . S
C466 C461 1.490 . S
C466 C468 1.395 . S
C466 C469 1.403 . S
H467 C473 0.930 . S
C468 H454 0.930 . S
C468 C466 1.395 . S
C468 C471 1.403 . S
C469 C466 1.403 . S
C469 C470 1.524 . S
C469 C473 1.400 . S
C470 H455 0.960 . S
C470 H456 0.960 . S
C470 H457 0.960 . S
C470 C469 1.524 . S
C471 C468 1.403 . S
C471 C472 1.392 . S
C471 C475 1.495 . S
C472 C471 1.392 . S
C472 C473 1.385 . S
C472 C474 1.478 . S
C473 H467 0.930 . S
C473 C469 1.400 . S
C473 C472 1.385 . S
C474 C472 1.478 . S
C474 C476 1.381 . S
C474 C480 1.383 . S
C475 C471 1.495 . S
C475 H481 0.959 . S
C475 H482 0.961 . S
C475 H483 0.960 . S
C476 C474 1.381 . S
C476 C477 1.394 1_556 S
C476 H484 0.930 . S
C477 C476 1.394 1_554 S
C477 C478 1.383 . S
C477 H485 0.929 . S
C478 C477 1.383 . S
C478 C479 1.377 . S
C479 H463 0.930 . S
C479 C478 1.377 . S
C479 C480 1.379 1_554 S
C480 H464 0.931 . S
C480 C474 1.383 . S
C480 C479 1.379 1_556 S
H481 C475 0.959 . S
H482 C475 0.961 . S
H483 C475 0.960 . S
H484 C476 0.930 . S
H485 C477 0.929 . S
H486 C494 0.929 . S
H487 C496 0.930 . S
H488 C498 0.930 . S
H489 C501 0.929 . S
H490 C504 0.930 . S
H491 C506 0.960 . S
H492 C506 0.960 . S
H493 C506 0.960 . S
C494 H486 0.929 . S
C494 C495 1.377 . S
C494 C496 1.384 . S
C495 C494 1.377 . S
C495 C501 1.390 . S
C496 H487 0.930 . S
C496 C494 1.384 . S
C496 C497 1.372 . S
C497 C496 1.372 . S
C497 C498 1.400 . S
C497 C502 1.490 . S
C498 H488 0.930 . S
C498 C497 1.400 . S
C498 C501 1.386 . S
H499 C515 0.930 . S
H500 C516 0.931 . S
C501 H489 0.929 . S
C501 C495 1.390 . S
C501 C498 1.386 . S
C502 C497 1.490 . S
C502 C504 1.395 . S
C502 C505 1.403 . S
H503 C509 0.930 . S
C504 H490 0.930 . S
C504 C502 1.395 . S
C504 C507 1.403 . S
C505 C502 1.403 . S
C505 C506 1.524 . S
C505 C509 1.400 . S
C506 H491 0.960 . S
C506 H492 0.960 . S
C506 H493 0.960 . S
C506 C505 1.524 . S
C507 C504 1.403 . S
C507 C508 1.392 . S
C507 C511 1.495 . S
C508 C507 1.392 . S
C508 C509 1.385 . S
C508 C510 1.478 . S
C509 H503 0.930 . S
C509 C505 1.400 . S
C509 C508 1.385 . S
C510 C508 1.478 . S
C510 C512 1.381 . S
C510 C516 1.383 . S
C511 C507 1.495 . S
C511 H517 0.959 . S
C511 H518 0.961 . S
C511 H519 0.960 . S
C512 C510 1.381 . S
C512 C513 1.394 1_554 S
C512 H520 0.930 . S
C513 C512 1.394 1_556 S
C513 C514 1.383 . S
C513 H521 0.929 . S
C514 C513 1.383 . S
C514 C515 1.377 . S
C515 H499 0.930 . S
C515 C514 1.377 . S
C515 C516 1.379 1_556 S
C516 H500 0.931 . S
C516 C510 1.383 . S
C516 C515 1.379 1_554 S
H517 C511 0.959 . S
H518 C511 0.961 . S
H519 C511 0.960 . S
H520 C512 0.930 . S
H521 C513 0.929 . S
H522 C530 0.929 . S
H523 C532 0.930 . S
H524 C534 0.930 . S
H525 C537 0.929 . S
H526 C540 0.930 . S
H527 C542 0.960 . S
H528 C542 0.960 . S
H529 C542 0.960 . S
C530 H522 0.929 . S
C530 C531 1.377 . S
C530 C532 1.384 . S
C531 C530 1.377 . S
C531 C537 1.390 . S
C532 H523 0.930 . S
C532 C530 1.384 . S
C532 C533 1.372 . S
C533 C532 1.372 . S
C533 C534 1.400 . S
C533 C538 1.490 . S
C534 H524 0.930 . S
C534 C533 1.400 . S
C534 C537 1.386 . S
H535 C551 0.930 . S
H536 C552 0.931 . S
C537 H525 0.929 . S
C537 C531 1.390 . S
C537 C534 1.386 . S
C538 C533 1.490 . S
C538 C540 1.395 . S
C538 C541 1.403 . S
H539 C545 0.930 . S
C540 H526 0.930 . S
C540 C538 1.395 . S
C540 C543 1.403 . S
C541 C538 1.403 . S
C541 C542 1.524 . S
C541 C545 1.400 . S
C542 H527 0.960 . S
C542 H528 0.960 . S
C542 H529 0.960 . S
C542 C541 1.524 . S
C543 C540 1.403 . S
C543 C544 1.392 . S
C543 C547 1.495 . S
C544 C543 1.392 . S
C544 C545 1.385 . S
C544 C546 1.478 . S
C545 H539 0.930 . S
C545 C541 1.400 . S
C545 C544 1.385 . S
C546 C544 1.478 . S
C546 C548 1.381 . S
C546 C552 1.383 . S
C547 C543 1.495 . S
C547 H553 0.959 . S
C547 H554 0.961 . S
C547 H555 0.960 . S
C548 C546 1.381 . S
C548 C549 1.394 1_554 S
C548 H556 0.930 . S
C549 C548 1.394 1_556 S
C549 C550 1.383 . S
C549 H557 0.929 . S
C550 C549 1.383 . S
C550 C551 1.377 . S
C551 H535 0.930 . S
C551 C550 1.377 . S
C551 C552 1.379 1_556 S
C552 H536 0.931 . S
C552 C546 1.383 . S
C552 C551 1.379 1_554 S
H553 C547 0.959 . S
H554 C547 0.961 . S
H555 C547 0.960 . S
H556 C548 0.930 . S
H557 C549 0.929 . S
H558 C566 0.929 . S
H559 C568 0.930 . S
H560 C570 0.930 . S
H561 C573 0.929 . S
H562 C576 0.930 . S
H563 C578 0.960 . S
H564 C578 0.960 . S
H565 C578 0.960 . S
C566 H558 0.929 . S
C566 C567 1.377 . S
C566 C568 1.384 . S
C567 C566 1.377 . S
C567 C573 1.390 . S
C568 H559 0.930 . S
C568 C566 1.384 . S
C568 C569 1.372 . S
C569 C568 1.372 . S
C569 C570 1.400 . S
C569 C574 1.490 . S
C570 H560 0.930 . S
C570 C569 1.400 . S
C570 C573 1.386 . S
H571 C587 0.930 . S
H572 C588 0.931 . S
C573 H561 0.929 . S
C573 C567 1.390 . S
C573 C570 1.386 . S
C574 C569 1.490 . S
C574 C576 1.395 . S
C574 C577 1.403 . S
H575 C581 0.930 . S
C576 H562 0.930 . S
C576 C574 1.395 . S
C576 C579 1.403 . S
C577 C574 1.403 . S
C577 C578 1.524 . S
C577 C581 1.400 . S
C578 H563 0.960 . S
C578 H564 0.960 . S
C578 H565 0.960 . S
C578 C577 1.524 . S
C579 C576 1.403 . S
C579 C580 1.392 . S
C579 C583 1.495 . S
C580 C579 1.392 . S
C580 C581 1.385 . S
C580 C582 1.478 . S
C581 H575 0.930 . S
C581 C577 1.400 . S
C581 C580 1.385 . S
C582 C580 1.478 . S
C582 C584 1.381 . S
C582 C588 1.383 . S
C583 C579 1.495 . S
C583 H589 0.959 . S
C583 H590 0.961 . S
C583 H591 0.960 . S
C584 C582 1.381 . S
C584 C585 1.394 1_554 S
C584 H592 0.930 . S
C585 C584 1.394 1_556 S
C585 C586 1.383 . S
C585 H593 0.929 . S
C586 C585 1.383 . S
C586 C587 1.377 . S
C587 H571 0.930 . S
C587 C586 1.377 . S
C587 C588 1.379 1_556 S
C588 H572 0.931 . S
C588 C582 1.383 . S
C588 C587 1.379 1_554 S
H589 C583 0.959 . S
H590 C583 0.961 . S
H591 C583 0.960 . S
H592 C584 0.930 . S
H593 C585 0.929 . S
H594 C602 0.929 . S
H595 C604 0.930 . S
H596 C606 0.930 . S
H597 C609 0.929 . S
H598 C612 0.930 . S
H599 C614 0.960 . S
H600 C614 0.960 . S
H601 C614 0.960 . S
C602 H594 0.929 . S
C602 C603 1.377 . S
C602 C604 1.384 . S
C603 C602 1.377 . S
C603 C609 1.390 . S
C604 H595 0.930 . S
C604 C602 1.384 . S
C604 C605 1.372 . S
C605 C604 1.372 . S
C605 C606 1.400 . S
C605 C610 1.490 . S
C606 H596 0.930 . S
C606 C605 1.400 . S
C606 C609 1.386 . S
H607 C623 0.930 . S
H608 C624 0.931 . S
C609 H597 0.929 . S
C609 C603 1.390 . S
C609 C606 1.386 . S
C610 C605 1.490 . S
C610 C612 1.395 . S
C610 C613 1.403 . S
H611 C617 0.930 . S
C612 H598 0.930 . S
C612 C610 1.395 . S
C612 C615 1.403 . S
C613 C610 1.403 . S
C613 C614 1.524 . S
C613 C617 1.400 . S
C614 H599 0.960 . S
C614 H600 0.960 . S
C614 H601 0.960 . S
C614 C613 1.524 . S
C615 C612 1.403 . S
C615 C616 1.392 . S
C615 C619 1.495 . S
C616 C615 1.392 . S
C616 C617 1.385 . S
C616 C618 1.478 . S
C617 H611 0.930 . S
C617 C613 1.400 . S
C617 C616 1.385 . S
C618 C616 1.478 . S
C618 C620 1.381 . S
C618 C624 1.383 . S
C619 C615 1.495 . S
C619 H625 0.959 . S
C619 H626 0.955 1_554 S
C619 H627 0.960 . S
C620 C618 1.381 . S
C620 C621 1.394 . S
C620 H628 0.930 . S
C621 C620 1.394 . S
C621 C622 1.383 . S
C621 H629 0.929 . S
C622 C621 1.383 . S
C622 C623 1.377 . S
C623 H607 0.930 . S
C623 C622 1.377 . S
C623 C624 1.379 . S
C624 H608 0.931 . S
C624 C618 1.383 . S
C624 C623 1.379 . S
H625 C619 0.959 . S
H626 C619 0.955 1_556 S
H627 C619 0.960 . S
H628 C620 0.930 . S
H629 C621 0.929 . S
H630 C638 0.929 . S
H631 C640 0.930 . S
H632 C642 0.930 . S
H633 C645 0.929 . S
H634 C648 0.930 . S
H635 C650 0.960 . S
H636 C650 0.960 . S
H637 C650 0.960 . S
C638 H630 0.929 . S
C638 C639 1.377 . S
C638 C640 1.384 . S
C639 C638 1.377 . S
C639 C645 1.390 . S
C640 H631 0.930 . S
C640 C638 1.384 . S
C640 C641 1.372 . S
C641 C640 1.372 . S
C641 C642 1.400 . S
C641 C646 1.490 . S
C642 H632 0.930 . S
C642 C641 1.400 . S
C642 C645 1.386 . S
H643 C659 0.930 . S
H644 C660 0.931 . S
C645 H633 0.929 . S
C645 C639 1.390 . S
C645 C642 1.386 . S
C646 C641 1.490 . S
C646 C648 1.395 . S
C646 C649 1.403 . S
H647 C653 0.930 . S
C648 H634 0.930 . S
C648 C646 1.395 . S
C648 C651 1.403 . S
C649 C646 1.403 . S
C649 C650 1.524 . S
C649 C653 1.400 . S
C650 H635 0.960 . S
C650 H636 0.960 . S
C650 H637 0.960 . S
C650 C649 1.524 . S
C651 C648 1.403 . S
C651 C652 1.392 . S
C651 C655 1.495 . S
C652 C651 1.392 . S
C652 C653 1.385 . S
C652 C654 1.478 . S
C653 H647 0.930 . S
C653 C649 1.400 . S
C653 C652 1.385 . S
C654 C652 1.478 . S
C654 C656 1.381 . S
C654 C660 1.383 . S
C655 C651 1.495 . S
C655 H661 0.959 . S
C655 H662 0.961 . S
C655 H663 0.960 . S
C656 C654 1.381 . S
C656 C657 1.394 . S
C656 H664 0.930 . S
C657 C656 1.394 . S
C657 C658 1.383 . S
C657 H665 0.929 . S
C658 C657 1.383 . S
C658 C659 1.377 . S
C659 H643 0.930 . S
C659 C658 1.377 . S
C659 C660 1.379 . S
C660 H644 0.931 . S
C660 C654 1.383 . S
C660 C659 1.379 . S
H661 C655 0.959 . S
H662 C655 0.961 . S
H663 C655 0.960 . S
H664 C656 0.930 . S
H665 C657 0.929 . S
H666 C674 0.929 1_545 S
H667 C676 0.930 . S
H668 C678 0.930 . S
H669 C681 0.929 . S
H670 C684 0.930 . S
H671 C686 0.960 . S
H672 C686 0.960 . S
H673 C686 0.960 . S
C674 H666 0.929 1_565 S
C674 C675 1.377 . S
C674 C676 1.384 . S
C675 C674 1.377 . S
C675 C681 1.390 . S
C676 H667 0.930 . S
C676 C674 1.384 . S
C676 C677 1.372 . S
C677 C676 1.372 . S
C677 C678 1.400 . S
C677 C682 1.490 . S
C678 H668 0.930 . S
C678 C677 1.400 . S
C678 C681 1.386 . S
H679 C695 0.930 . S
H680 C696 0.931 . S
C681 H669 0.929 . S
C681 C675 1.390 . S
C681 C678 1.386 . S
C682 C677 1.490 . S
C682 C684 1.395 . S
C682 C685 1.403 . S
H683 C689 0.930 . S
C684 H670 0.930 . S
C684 C682 1.395 . S
C684 C687 1.403 . S
C685 C682 1.403 . S
C685 C686 1.524 . S
C685 C689 1.400 . S
C686 H671 0.960 . S
C686 H672 0.960 . S
C686 H673 0.960 . S
C686 C685 1.524 . S
C687 C684 1.403 . S
C687 C688 1.392 . S
C687 C691 1.495 . S
C688 C687 1.392 . S
C688 C689 1.385 . S
C688 C690 1.478 . S
C689 H683 0.930 . S
C689 C685 1.400 . S
C689 C688 1.385 . S
C690 C688 1.478 . S
C690 C692 1.381 . S
C690 C696 1.383 . S
C691 C687 1.495 . S
C691 H697 0.959 . S
C691 H698 0.961 . S
C691 H699 0.960 . S
C692 C690 1.381 . S
C692 C693 1.394 . S
C692 H700 0.930 . S
C693 C692 1.394 . S
C693 C694 1.383 . S
C693 H701 0.929 . S
C694 C693 1.383 . S
C694 C695 1.377 . S
C695 H679 0.930 . S
C695 C694 1.377 . S
C695 C696 1.379 . S
C696 H680 0.931 . S
C696 C690 1.383 . S
C696 C695 1.379 . S
H697 C691 0.959 . S
H698 C691 0.961 . S
H699 C691 0.960 . S
H700 C692 0.930 . S
H701 C693 0.929 . S
H702 C710 0.929 . S
H703 C712 0.930 . S
H704 C714 0.930 . S
H705 C717 0.929 . S
H706 C720 0.930 . S
H707 C722 0.960 . S
H708 C722 0.960 . S
H709 C722 0.960 . S
C710 H702 0.929 . S
C710 C711 1.377 . S
C710 C712 1.384 . S
C711 C710 1.377 . S
C711 C717 1.390 . S
C712 H703 0.930 . S
C712 C710 1.384 . S
C712 C713 1.372 . S
C713 C712 1.372 . S
C713 C714 1.400 . S
C713 C718 1.490 1_554 S
C714 H704 0.930 . S
C714 C713 1.400 . S
C714 C717 1.386 . S
H715 C731 0.930 . S
H716 C732 0.931 . S
C717 H705 0.929 . S
C717 C711 1.390 . S
C717 C714 1.386 . S
C718 C713 1.490 1_556 S
C718 C720 1.395 . S
C718 C721 1.403 1_556 S
H719 C725 0.930 . S
C720 H706 0.930 . S
C720 C718 1.395 . S
C720 C723 1.403 . S
C721 C718 1.403 1_554 S
C721 C722 1.524 . S
C721 C725 1.400 1_554 S
C722 H707 0.960 . S
C722 H708 0.960 . S
C722 H709 0.960 . S
C722 C721 1.524 . S
C723 C720 1.403 . S
C723 C724 1.392 . S
C723 C727 1.495 . S
C724 C723 1.392 . S
C724 C725 1.385 . S
C724 C726 1.478 . S
C725 H719 0.930 . S
C725 C721 1.400 1_556 S
C725 C724 1.385 . S
C726 C724 1.478 . S
C726 C728 1.381 . S
C726 C732 1.383 . S
C727 C723 1.495 . S
C727 H733 0.959 . S
C727 H734 0.961 . S
C727 H735 0.960 . S
C728 C726 1.381 . S
C728 C729 1.394 . S
C728 H736 0.930 . S
C729 C728 1.394 . S
C729 C730 1.383 . S
C729 H737 0.929 . S
C730 C729 1.383 . S
C730 C731 1.377 . S
C731 H715 0.930 . S
C731 C730 1.377 . S
C731 C732 1.379 . S
C732 H716 0.931 . S
C732 C726 1.383 . S
C732 C731 1.379 . S
H733 C727 0.959 . S
H734 C727 0.961 . S
H735 C727 0.960 . S
H736 C728 0.930 . S
H737 C729 0.929 . S
H738 C746 0.929 . S
H739 C748 0.930 . S
H740 C750 0.930 . S
H741 C753 0.929 . S
H742 C756 0.930 . S
H743 C758 0.960 . S
H744 C758 0.960 . S
H745 C758 0.960 . S
C746 H738 0.929 . S
C746 C747 1.377 . S
C746 C748 1.384 . S
C747 C746 1.377 . S
C747 C753 1.390 . S
C748 H739 0.930 . S
C748 C746 1.384 . S
C748 C749 1.372 . S
C749 C748 1.372 . S
C749 C750 1.400 . S
C749 C754 1.490 . S
C750 H740 0.930 . S
C750 C749 1.400 . S
C750 C753 1.386 . S
H751 C767 0.914 1_655 S
H752 C768 0.931 . S
C753 H741 0.929 . S
C753 C747 1.390 . S
C753 C750 1.386 . S
C754 C749 1.490 . S
C754 C756 1.395 1_655 S
C754 C757 1.403 . S
H755 C761 0.930 . S
C756 H742 0.930 . S
C756 C754 1.395 1_455 S
C756 C759 1.403 . S
C757 C754 1.403 . S
C757 C758 1.524 . S
C757 C761 1.400 . S
C758 H743 0.960 . S
C758 H744 0.960 . S
C758 H745 0.960 . S
C758 C757 1.524 . S
C759 C756 1.403 . S
C759 C760 1.392 1_455 S
C759 C763 1.495 . S
C760 C759 1.392 1_655 S
C760 C761 1.385 . S
C760 C762 1.478 1_655 S
C761 H755 0.930 . S
C761 C757 1.400 . S
C761 C760 1.385 . S
C762 C760 1.478 1_455 S
C762 C764 1.381 . S
C762 C768 1.383 1_455 S
C763 C759 1.495 . S
C763 H769 0.959 . S
C763 H770 0.961 . S
C763 H771 0.960 . S
C764 C762 1.381 . S
C764 C765 1.394 1_556 S
C764 H772 0.930 1_556 S
C765 C764 1.394 1_554 S
C765 C766 1.383 1_554 S
C765 H773 0.929 . S
C766 C765 1.383 1_556 S
C766 C767 1.385 . S
C767 H751 0.914 1_455 S
C767 C766 1.385 . S
C767 C768 1.388 1_455 S
C768 H752 0.931 . S
C768 C762 1.383 1_655 S
C768 C767 1.388 1_655 S
H769 C763 0.959 . S
H770 C763 0.961 . S
H771 C763 0.960 . S
H772 C764 0.930 1_554 S
H773 C765 0.929 . S
H774 C782 0.929 . S
H775 C784 0.930 . S
H776 C786 0.930 . S
H777 C789 0.929 . S
H778 C792 0.930 . S
H779 C794 0.960 1_554 S
H780 C794 0.960 . S
H781 C794 0.960 1_554 S
C782 H774 0.929 . S
C782 C783 1.377 . S
C782 C784 1.384 . S
C783 C782 1.377 . S
C783 C789 1.390 . S
C784 H775 0.930 . S
C784 C782 1.384 . S
C784 C785 1.372 . S
C785 C784 1.372 . S
C785 C786 1.400 . S
C785 C790 1.490 . S
C786 H776 0.930 . S
C786 C785 1.400 . S
C786 C789 1.386 . S
H787 C803 0.930 . S
H788 C804 0.931 . S
C789 H777 0.929 . S
C789 C783 1.390 . S
C789 C786 1.386 . S
C790 C785 1.490 . S
C790 C792 1.395 . S
C790 C793 1.403 . S
H791 C797 0.930 1_554 S
C792 H778 0.930 . S
C792 C790 1.395 . S
C792 C795 1.403 . S
C793 C790 1.403 . S
C793 C794 1.524 . S
C793 C797 1.400 . S
C794 H779 0.960 1_556 S
C794 H780 0.960 . S
C794 H781 0.960 1_556 S
C794 C793 1.524 . S
C795 C792 1.403 . S
C795 C796 1.392 . S
C795 C799 1.495 . S
C796 C795 1.392 . S
C796 C797 1.385 . S
C796 C798 1.478 . S
C797 H791 0.930 1_556 S
C797 C793 1.400 . S
C797 C796 1.385 . S
C798 C796 1.478 . S
C798 C800 1.381 . S
C798 C804 1.383 1_556 S
C799 C795 1.495 . S
C799 H805 0.959 . S
C799 H806 0.961 . S
C799 H807 0.960 . S
C800 C798 1.381 . S
C800 C801 1.394 . S
C800 H808 0.930 . S
C801 C800 1.394 . S
C801 C802 1.383 1_556 S
C801 H809 0.929 . S
C802 C801 1.383 1_554 S
C802 C803 1.377 . S
C803 H787 0.930 . S
C803 C802 1.377 . S
C803 C804 1.379 . S
C804 H788 0.931 . S
C804 C798 1.383 1_554 S
C804 C803 1.379 . S
H805 C799 0.959 . S
H806 C799 0.961 . S
H807 C799 0.960 . S
H808 C800 0.930 . S
H809 C801 0.929 . S
H810 C818 0.929 . S
H811 C820 0.930 . S
H812 C822 0.930 . S
H813 C825 0.929 1_455 S
H814 C828 0.930 . S
H815 C830 0.960 . S
H816 C830 0.960 . S
H817 C830 0.960 . S
C818 H810 0.929 . S
C818 C819 1.377 . S
C818 C820 1.384 . S
C819 C818 1.377 . S
C819 C825 1.390 . S
C820 H811 0.930 . S
C820 C818 1.384 . S
C820 C821 1.372 . S
C821 C820 1.372 . S
C821 C822 1.400 1_655 S
C821 C826 1.490 . S
C822 H812 0.930 . S
C822 C821 1.400 1_455 S
C822 C825 1.386 1_455 S
H823 C839 0.930 . S
H824 C840 0.931 . S
C825 H813 0.929 1_655 S
C825 C819 1.390 . S
C825 C822 1.386 1_655 S
C826 C821 1.490 . S
C826 C828 1.395 . S
C826 C829 1.403 1_655 S
H827 C833 0.930 . S
C828 H814 0.930 . S
C828 C826 1.395 . S
C828 C831 1.403 . S
C829 C826 1.403 1_455 S
C829 C830 1.524 . S
C829 C833 1.400 . S
C830 H815 0.960 . S
C830 H816 0.960 . S
C830 H817 0.960 . S
C830 C829 1.524 . S
C831 C828 1.403 . S
C831 C832 1.392 1_655 S
C831 C835 1.495 . S
C832 C831 1.392 1_455 S
C832 C833 1.385 . S
C832 C834 1.478 . S
C833 H827 0.930 . S
C833 C829 1.400 . S
C833 C832 1.385 . S
C834 C832 1.478 . S
C834 C836 1.381 . S
C834 C840 1.383 . S
C835 C831 1.495 . S
C835 H841 0.959 . S
C835 H842 0.961 . S
C835 H843 0.960 . S
C836 C834 1.381 . S
C836 C837 1.394 1_556 S
C836 H844 0.930 1_456 S
C837 C836 1.394 1_554 S
C837 C838 1.383 1_554 S
C837 H845 0.929 . S
C838 C837 1.383 1_556 S
C838 C839 1.377 . S
C839 H823 0.930 . S
C839 C838 1.377 . S
C839 C840 1.379 . S
C840 H824 0.931 . S
C840 C834 1.383 . S
C840 C839 1.379 . S
H841 C835 0.959 . S
H842 C835 0.961 . S
H843 C835 0.960 . S
H844 C836 0.930 1_654 S
H845 C837 0.929 . S
H846 C854 0.929 . S
H847 C856 0.930 . S
H848 C858 0.930 . S
H849 C861 0.929 . S
H850 C864 0.930 . S
H851 C866 0.960 . S
H852 C866 0.960 . S
H853 C866 0.960 . S
C854 H846 0.929 . S
C854 C855 1.377 . S
C854 C856 1.384 . S
C855 C854 1.377 . S
C855 C861 1.390 1_554 S
C856 H847 0.930 . S
C856 C854 1.384 . S
C856 C857 1.372 1_554 S
C857 C856 1.372 1_556 S
C857 C858 1.400 . S
C857 C862 1.490 . S
C858 H848 0.930 . S
C858 C857 1.400 . S
C858 C861 1.386 . S
H859 C875 0.930 . S
H860 C876 0.931 . S
C861 H849 0.929 . S
C861 C855 1.390 1_556 S
C861 C858 1.386 . S
C862 C857 1.490 . S
C862 C864 1.395 . S
C862 C865 1.403 . S
H863 C869 0.930 . S
C864 H850 0.930 . S
C864 C862 1.395 . S
C864 C867 1.403 . S
C865 C862 1.403 . S
C865 C866 1.524 . S
C865 C869 1.400 . S
C866 H851 0.960 . S
C866 H852 0.960 . S
C866 H853 0.960 . S
C866 C865 1.524 . S
C867 C864 1.403 . S
C867 C868 1.392 . S
C867 C871 1.495 . S
C868 C867 1.392 . S
C868 C869 1.385 . S
C868 C870 1.478 . S
C869 H863 0.930 . S
C869 C865 1.400 . S
C869 C868 1.385 . S
C870 C868 1.478 . S
C870 C872 1.381 . S
C870 C876 1.383 . S
C871 C867 1.495 . S
C871 H877 0.959 . S
C871 H878 0.961 . S
C871 H879 0.960 . S
C872 C870 1.381 . S
C872 C873 1.394 . S
C872 H880 0.930 . S
C873 C872 1.394 . S
C873 C874 1.383 . S
C873 H881 0.929 . S
C874 C873 1.383 . S
C874 C875 1.377 . S
C875 H859 0.930 . S
C875 C874 1.377 . S
C875 C876 1.379 . S
C876 H860 0.931 . S
C876 C870 1.383 . S
C876 C875 1.379 . S
H877 C871 0.959 . S
H878 C871 0.961 . S
H879 C871 0.960 . S
H880 C872 0.930 . S
H881 C873 0.929 . S
H882 C890 0.929 . S
H883 C892 0.930 . S
H884 C894 0.930 . S
H885 C897 0.929 . S
H886 C900 0.930 . S
H887 C902 0.960 . S
H888 C902 0.960 . S
H889 C902 0.960 . S
C890 H882 0.929 . S
C890 C891 1.377 . S
C890 C892 1.384 . S
C891 C890 1.377 . S
C891 C897 1.390 . S
C892 H883 0.930 . S
C892 C890 1.384 . S
C892 C893 1.372 . S
C893 C892 1.372 . S
C893 C894 1.400 . S
C893 C898 1.490 . S
C894 H884 0.930 . S
C894 C893 1.400 . S
C894 C897 1.386 . S
H895 C911 0.930 . S
H896 C912 0.931 . S
C897 H885 0.929 . S
C897 C891 1.390 . S
C897 C894 1.386 . S
C898 C893 1.490 . S
C898 C900 1.395 . S
C898 C901 1.403 . S
H899 C905 0.930 . S
C900 H886 0.930 . S
C900 C898 1.395 . S
C900 C903 1.403 . S
C901 C898 1.403 . S
C901 C902 1.524 . S
C901 C905 1.400 . S
C902 H887 0.960 . S
C902 H888 0.960 . S
C902 H889 0.960 . S
C902 C901 1.524 . S
C903 C900 1.403 . S
C903 C904 1.392 . S
C903 C907 1.495 1_556 S
C904 C903 1.392 . S
C904 C905 1.385 . S
C904 C906 1.478 1_556 S
C905 H899 0.930 . S
C905 C901 1.400 . S
C905 C904 1.385 . S
C906 C904 1.478 1_554 S
C906 C908 1.381 . S
C906 C912 1.383 . S
C907 C903 1.495 1_554 S
C907 H913 0.959 1_554 S
C907 H914 0.961 . S
C907 H915 0.960 1_554 S
C908 C906 1.381 . S
C908 C909 1.394 . S
C908 H916 0.930 1_554 S
C909 C908 1.394 . S
C909 C910 1.383 . S
C909 H917 0.929 . S
C910 C909 1.383 . S
C910 C911 1.377 . S
C911 H895 0.930 . S
C911 C910 1.377 . S
C911 C912 1.379 . S
C912 H896 0.931 . S
C912 C906 1.383 . S
C912 C911 1.379 . S
H913 C907 0.959 1_556 S
H914 C907 0.961 . S
H915 C907 0.960 1_556 S
H916 C908 0.930 1_556 S
H917 C909 0.929 . S
H918 C926 0.929 . S
H919 C928 0.930 . S
H920 C930 0.930 . S
H921 C933 0.929 . S
H922 C936 0.930 . S
H923 C938 0.960 . S
H924 C938 0.960 . S
H925 C938 0.960 . S
C926 H918 0.929 . S
C926 C927 1.377 . S
C926 C928 1.384 . S
C927 C926 1.377 . S
C927 C933 1.390 . S
C928 H919 0.930 . S
C928 C926 1.384 . S
C928 C929 1.372 . S
C929 C928 1.372 . S
C929 C930 1.400 . S
C929 C934 1.490 . S
C930 H920 0.930 . S
C930 C929 1.400 . S
C930 C933 1.386 . S
H931 C947 0.930 . S
H932 C948 0.931 . S
C933 H921 0.929 . S
C933 C927 1.390 . S
C933 C930 1.386 . S
C934 C929 1.490 . S
C934 C936 1.395 . S
C934 C937 1.403 . S
H935 C941 0.930 . S
C936 H922 0.930 . S
C936 C934 1.395 . S
C936 C939 1.403 . S
C937 C934 1.403 . S
C937 C938 1.524 . S
C937 C941 1.400 . S
C938 H923 0.960 . S
C938 H924 0.960 . S
C938 H925 0.960 . S
C938 C937 1.524 . S
C939 C936 1.403 . S
C939 C940 1.392 . S
C939 C943 1.495 . S
C940 C939 1.392 . S
C940 C941 1.385 . S
C940 C942 1.478 . S
C941 H935 0.930 . S
C941 C937 1.400 . S
C941 C940 1.385 . S
C942 C940 1.478 . S
C942 C944 1.381 . S
C942 C948 1.383 . S
C943 C939 1.495 . S
C943 H949 0.959 . S
C943 H950 0.961 . S
C943 H951 0.960 . S
C944 C942 1.381 . S
C944 C945 1.394 . S
C944 H952 0.930 . S
C945 C944 1.394 . S
C945 C946 1.383 . S
C945 H953 0.929 . S
C946 C945 1.383 . S
C946 C947 1.377 . S
C947 H931 0.930 . S
C947 C946 1.377 . S
C947 C948 1.379 . S
C948 H932 0.931 . S
C948 C942 1.383 . S
C948 C947 1.379 . S
H949 C943 0.959 . S
H950 C943 0.961 . S
H951 C943 0.960 . S
H952 C944 0.930 . S
H953 C945 0.929 . S
H954 C962 0.929 . S
H955 C964 0.930 . S
H956 C966 0.930 . S
H957 C969 0.929 . S
H958 C972 0.930 . S
H959 C974 0.960 . S
H960 C974 0.960 . S
H961 C974 0.960 . S
C962 H954 0.929 . S
C962 C963 1.377 . S
C962 C964 1.384 . S
C963 C962 1.377 . S
C963 C969 1.390 . S
C964 H955 0.930 . S
C964 C962 1.384 . S
C964 C965 1.372 . S
C965 C964 1.372 . S
C965 C966 1.400 . S
C965 C970 1.490 . S
C966 H956 0.930 . S
C966 C965 1.400 . S
C966 C969 1.386 . S
H967 C983 0.930 . S
H968 C984 0.931 . S
C969 H957 0.929 . S
C969 C963 1.390 . S
C969 C966 1.386 . S
C970 C965 1.490 . S
C970 C972 1.395 . S
C970 C973 1.403 . S
H971 C977 0.930 . S
C972 H958 0.930 . S
C972 C970 1.395 . S
C972 C975 1.403 . S
C973 C970 1.403 . S
C973 C974 1.524 . S
C973 C977 1.400 . S
C974 H959 0.960 . S
C974 H960 0.960 . S
C974 H961 0.960 . S
C974 C973 1.524 . S
C975 C972 1.403 . S
C975 C976 1.392 . S
C975 C979 1.495 . S
C976 C975 1.392 . S
C976 C977 1.385 . S
C976 C978 1.478 . S
C977 H971 0.930 . S
C977 C973 1.400 . S
C977 C976 1.385 . S
C978 C976 1.478 . S
C978 C980 1.381 . S
C978 C984 1.383 . S
C979 C975 1.495 . S
C979 H985 0.959 . S
C979 H986 0.961 . S
C979 H987 0.960 . S
C980 C978 1.381 . S
C980 C981 1.394 . S
C980 H988 0.930 . S
C981 C980 1.394 . S
C981 C982 1.383 . S
C981 H989 0.929 . S
C982 C981 1.383 . S
C982 C983 1.377 . S
C983 H967 0.930 . S
C983 C982 1.377 . S
C983 C984 1.379 . S
C984 H968 0.931 . S
C984 C978 1.383 . S
C984 C983 1.379 . S
H985 C979 0.959 . S
H986 C979 0.961 . S
H987 C979 0.960 . S
H988 C980 0.930 . S
H989 C981 0.929 . S
H990 C998 0.929 . S
H991 C1000 0.930 . S
H992 C1002 0.930 . S
H993 C1005 0.929 . S
H994 C1008 0.930 . S
H995 C1010 0.960 . S
H996 C1010 0.960 . S
H997 C1010 0.960 . S
C998 H990 0.929 . S
C998 C999 1.377 . S
C998 C1000 1.384 . S
C999 C998 1.377 . S
C999 C1005 1.390 . S
C1000 H991 0.930 . S
C1000 C998 1.384 . S
C1000 C1001 1.372 . S
C1001 C1000 1.372 . S
C1001 C1002 1.400 . S
C1001 C1006 1.490 . S
C1002 H992 0.930 . S
C1002 C1001 1.400 . S
C1002 C1005 1.386 . S
H1003 C1019 0.930 . S
H1004 C1020 0.931 . S
C1005 H993 0.929 . S
C1005 C999 1.390 . S
C1005 C1002 1.386 . S
C1006 C1001 1.490 . S
C1006 C1008 1.395 . S
C1006 C1009 1.403 . S
H1007 C1013 0.930 . S
C1008 H994 0.930 . S
C1008 C1006 1.395 . S
C1008 C1011 1.403 . S
C1009 C1006 1.403 . S
C1009 C1010 1.524 . S
C1009 C1013 1.400 . S
C1010 H995 0.960 . S
C1010 H996 0.960 . S
C1010 H997 0.960 . S
C1010 C1009 1.524 . S
C1011 C1008 1.403 . S
C1011 C1012 1.392 . S
C1011 C1015 1.495 . S
C1012 C1011 1.392 . S
C1012 C1013 1.385 . S
C1012 C1014 1.478 . S
C1013 H1007 0.930 . S
C1013 C1009 1.400 . S
C1013 C1012 1.385 . S
C1014 C1012 1.478 . S
C1014 C1016 1.381 . S
C1014 C1020 1.383 . S
C1015 C1011 1.495 . S
C1015 H1021 0.959 . S
C1015 H1022 0.961 . S
C1015 H1023 0.960 . S
C1016 C1014 1.381 . S
C1016 C1017 1.394 . S
C1016 H1024 0.930 . S
C1017 C1016 1.394 . S
C1017 C1018 1.383 . S
C1017 H1025 0.929 . S
C1018 C1017 1.383 . S
C1018 C1019 1.377 . S
C1019 H1003 0.930 . S
C1019 C1018 1.377 . S
C1019 C1020 1.379 . S
C1020 H1004 0.931 . S
C1020 C1014 1.383 . S
C1020 C1019 1.379 . S
H1021 C1015 0.959 . S
H1022 C1015 0.961 . S
H1023 C1015 0.960 . S
H1024 C1016 0.930 . S
H1025 C1017 0.929 . S
H1026 C1034 0.929 . S
H1027 C1036 0.930 . S
H1028 C1038 0.930 . S
H1029 C1041 0.929 . S
H1030 C1044 0.930 . S
H1031 C1046 0.960 . S
H1032 C1046 0.960 . S
H1033 C1046 0.960 . S
C1034 H1026 0.929 . S
C1034 C1035 1.377 . S
C1034 C1036 1.384 . S
C1035 C1034 1.377 . S
C1035 C1041 1.390 . S
C1036 H1027 0.930 . S
C1036 C1034 1.384 . S
C1036 C1037 1.372 . S
C1037 C1036 1.372 . S
C1037 C1038 1.400 . S
C1037 C1042 1.490 . S
C1038 H1028 0.930 . S
C1038 C1037 1.400 . S
C1038 C1041 1.386 . S
H1039 C1055 0.930 . S
H1040 C1056 0.931 . S
C1041 H1029 0.929 . S
C1041 C1035 1.390 . S
C1041 C1038 1.386 . S
C1042 C1037 1.490 . S
C1042 C1044 1.395 . S
C1042 C1045 1.403 . S
H1043 C1049 0.930 . S
C1044 H1030 0.930 . S
C1044 C1042 1.395 . S
C1044 C1047 1.403 . S
C1045 C1042 1.403 . S
C1045 C1046 1.524 . S
C1045 C1049 1.400 . S
C1046 H1031 0.960 . S
C1046 H1032 0.960 . S
C1046 H1033 0.960 . S
C1046 C1045 1.524 . S
C1047 C1044 1.403 . S
C1047 C1048 1.392 . S
C1047 C1051 1.495 . S
C1048 C1047 1.392 . S
C1048 C1049 1.385 . S
C1048 C1050 1.478 . S
C1049 H1043 0.930 . S
C1049 C1045 1.400 . S
C1049 C1048 1.385 . S
C1050 C1048 1.478 . S
C1050 C1052 1.381 . S
C1050 C1056 1.383 . S
C1051 C1047 1.495 . S
C1051 H1057 0.959 . S
C1051 H1058 0.961 . S
C1051 H1059 0.960 . S
C1052 C1050 1.381 . S
C1052 C1053 1.394 . S
C1052 H1060 0.930 . S
C1053 C1052 1.394 . S
C1053 C1054 1.383 . S
C1053 H1061 0.929 . S
C1054 C1053 1.383 . S
C1054 C1055 1.377 . S
C1055 H1039 0.930 . S
C1055 C1054 1.377 . S
C1055 C1056 1.379 . S
C1056 H1040 0.931 . S
C1056 C1050 1.383 . S
C1056 C1055 1.379 . S
H1057 C1051 0.959 . S
H1058 C1051 0.961 . S
H1059 C1051 0.960 . S
H1060 C1052 0.930 . S
H1061 C1053 0.929 . S
H1062 C1070 0.929 . S
H1063 C1072 0.930 . S
H1064 C1074 0.930 . S
H1065 C1077 0.929 . S
H1066 C1080 0.930 . S
H1067 C1082 0.960 . S
H1068 C1082 0.960 . S
H1069 C1082 0.960 . S
C1070 H1062 0.929 . S
C1070 C1071 1.377 . S
C1070 C1072 1.384 . S
C1071 C1070 1.377 . S
C1071 C1077 1.390 . S
C1072 H1063 0.930 . S
C1072 C1070 1.384 . S
C1072 C1073 1.372 . S
C1073 C1072 1.372 . S
C1073 C1074 1.400 . S
C1073 C1078 1.490 . S
C1074 H1064 0.930 . S
C1074 C1073 1.400 . S
C1074 C1077 1.386 . S
H1075 C1091 0.901 1_565 S
H1076 C1092 0.931 . S
C1077 H1065 0.929 . S
C1077 C1071 1.390 . S
C1077 C1074 1.386 . S
C1078 C1073 1.490 . S
C1078 C1080 1.395 . S
C1078 C1081 1.403 . S
H1079 C1085 0.930 . S
C1080 H1066 0.930 . S
C1080 C1078 1.395 . S
C1080 C1083 1.403 . S
C1081 C1078 1.403 . S
C1081 C1082 1.524 . S
C1081 C1085 1.400 . S
C1082 H1067 0.960 . S
C1082 H1068 0.960 . S
C1082 H1069 0.960 . S
C1082 C1081 1.524 . S
C1083 C1080 1.403 . S
C1083 C1084 1.392 . S
C1083 C1087 1.495 . S
C1084 C1083 1.392 . S
C1084 C1085 1.385 . S
C1084 C1086 1.478 . S
C1085 H1079 0.930 . S
C1085 C1081 1.400 . S
C1085 C1084 1.385 . S
C1086 C1084 1.478 . S
C1086 C1088 1.381 . S
C1086 C1092 1.383 . S
C1087 C1083 1.495 . S
C1087 H1093 0.959 . S
C1087 H1094 0.961 . S
C1087 H1095 0.960 . S
C1088 C1086 1.381 . S
C1088 C1089 1.394 . S
C1088 H1096 0.930 . S
C1089 C1088 1.394 . S
C1089 C1090 1.383 1_545 S
C1089 H1097 0.929 1_545 S
C1090 C1089 1.383 1_565 S
C1090 C1091 1.379 1_565 S
C1091 H1075 0.901 1_545 S
C1091 C1090 1.379 1_545 S
C1091 C1092 1.406 . S
C1092 H1076 0.931 . S
C1092 C1086 1.383 . S
C1092 C1091 1.406 . S
H1093 C1087 0.959 . S
H1094 C1087 0.961 . S
H1095 C1087 0.960 . S
H1096 C1088 0.930 . S
H1097 C1089 0.929 1_565 S
H1098 C1106 0.929 . S
H1099 C1108 0.930 . S
H1100 C1110 0.930 . S
H1101 C1113 0.929 . S
H1102 C1116 0.930 . S
H1103 C1118 0.960 . S
H1104 C1118 0.960 . S
H1105 C1118 0.960 . S
C1106 H1098 0.929 . S
C1106 C1107 1.377 . S
C1106 C1108 1.384 . S
C1107 C1106 1.377 . S
C1107 C1113 1.390 . S
C1108 H1099 0.930 . S
C1108 C1106 1.384 . S
C1108 C1109 1.372 . S
C1109 C1108 1.372 . S
C1109 C1110 1.400 . S
C1109 C1114 1.490 . S
C1110 H1100 0.930 . S
C1110 C1109 1.400 . S
C1110 C1113 1.386 . S
H1111 C1127 0.930 . S
H1112 C1128 0.931 . S
C1113 H1101 0.929 . S
C1113 C1107 1.390 . S
C1113 C1110 1.386 . S
C1114 C1109 1.490 . S
C1114 C1116 1.395 . S
C1114 C1117 1.403 . S
H1115 C1121 0.930 . S
C1116 H1102 0.930 . S
C1116 C1114 1.395 . S
C1116 C1119 1.403 . S
C1117 C1114 1.403 . S
C1117 C1118 1.524 . S
C1117 C1121 1.400 . S
C1118 H1103 0.960 . S
C1118 H1104 0.960 . S
C1118 H1105 0.960 . S
C1118 C1117 1.524 . S
C1119 C1116 1.403 . S
C1119 C1120 1.392 . S
C1119 C1123 1.495 . S
C1120 C1119 1.392 . S
C1120 C1121 1.385 . S
C1120 C1122 1.478 . S
C1121 H1115 0.930 . S
C1121 C1117 1.400 . S
C1121 C1120 1.385 . S
C1122 C1120 1.478 . S
C1122 C1124 1.381 . S
C1122 C1128 1.383 . S
C1123 C1119 1.495 . S
C1123 H1129 0.959 . S
C1123 H1130 0.961 . S
C1123 H1131 0.960 . S
C1124 C1122 1.381 . S
C1124 C1125 1.394 . S
C1124 H1132 0.930 . S
C1125 C1124 1.394 . S
C1125 C1126 1.383 . S
C1125 H1133 0.929 . S
C1126 C1125 1.383 . S
C1126 C1127 1.377 . S
C1127 H1111 0.930 . S
C1127 C1126 1.377 . S
C1127 C1128 1.379 . S
C1128 H1112 0.931 . S
C1128 C1122 1.383 . S
C1128 C1127 1.379 . S
H1129 C1123 0.959 . S
H1130 C1123 0.961 . S
H1131 C1123 0.960 . S
H1132 C1124 0.930 . S
H1133 C1125 0.929 . S
H1134 C1142 0.929 . S
H1135 C1144 0.930 . S
H1136 C1146 0.930 . S
H1137 C1149 0.929 . S
H1138 C1152 0.930 . S
H1139 C1154 0.960 . S
H1140 C1154 0.960 . S
H1141 C1154 0.960 . S
C1142 H1134 0.929 . S
C1142 C1143 1.377 . S
C1142 C1144 1.384 . S
C1143 C1142 1.377 . S
C1143 C1149 1.390 . S
C1144 H1135 0.930 . S
C1144 C1142 1.384 . S
C1144 C1145 1.372 . S
C1145 C1144 1.372 . S
C1145 C1146 1.400 . S
C1145 C1150 1.490 . S
C1146 H1136 0.930 . S
C1146 C1145 1.400 . S
C1146 C1149 1.386 . S
H1147 C1163 0.930 . S
H1148 C1164 0.931 . S
C1149 H1137 0.929 . S
C1149 C1143 1.390 . S
C1149 C1146 1.386 . S
C1150 C1145 1.490 . S
C1150 C1152 1.395 . S
C1150 C1153 1.403 . S
H1151 C1157 0.930 . S
C1152 H1138 0.930 . S
C1152 C1150 1.395 . S
C1152 C1155 1.403 . S
C1153 C1150 1.403 . S
C1153 C1154 1.524 . S
C1153 C1157 1.400 . S
C1154 H1139 0.960 . S
C1154 H1140 0.960 . S
C1154 H1141 0.960 . S
C1154 C1153 1.524 . S
C1155 C1152 1.403 . S
C1155 C1156 1.392 . S
C1155 C1159 1.495 . S
C1156 C1155 1.392 . S
C1156 C1157 1.385 . S
C1156 C1158 1.478 . S
C1157 H1151 0.930 . S
C1157 C1153 1.400 . S
C1157 C1156 1.385 . S
C1158 C1156 1.478 . S
C1158 C1160 1.381 . S
C1158 C1164 1.383 . S
C1159 C1155 1.495 . S
C1159 H1165 0.959 . S
C1159 H1166 0.961 . S
C1159 H1167 0.960 . S
C1160 C1158 1.381 . S
C1160 C1161 1.394 . S
C1160 H1168 0.930 . S
C1161 C1160 1.394 . S
C1161 C1162 1.383 . S
C1161 H1169 0.929 . S
C1162 C1161 1.383 . S
C1162 C1163 1.377 . S
C1163 H1147 0.930 . S
C1163 C1162 1.377 . S
C1163 C1164 1.379 . S
C1164 H1148 0.931 . S
C1164 C1158 1.383 . S
C1164 C1163 1.379 . S
H1165 C1159 0.959 . S
H1166 C1159 0.961 . S
H1167 C1159 0.960 . S
H1168 C1160 0.930 . S
H1169 C1161 0.929 . S
H1170 C1178 0.927 . S
H1171 C1180 0.930 . S
H1172 C1182 0.930 . S
H1173 C1185 0.929 . S
H1174 C1188 0.930 . S
H1175 C1190 0.960 . S
H1176 C1190 0.960 . S
H1177 C1190 0.960 . S
C1178 H1170 0.927 . S
C1178 C1179 1.377 1_545 S
C1178 C1180 1.384 . S
C1179 C1178 1.377 1_565 S
C1179 C1185 1.390 . S
C1180 H1171 0.930 . S
C1180 C1178 1.384 . S
C1180 C1181 1.372 . S
C1181 C1180 1.372 . S
C1181 C1182 1.400 . S
C1181 C1186 1.490 . S
C1182 H1172 0.930 . S
C1182 C1181 1.400 . S
C1182 C1185 1.386 1_545 S
H1183 C1199 0.930 . S
H1184 C1200 0.931 . S
C1185 H1173 0.929 . S
C1185 C1179 1.390 . S
C1185 C1182 1.386 1_565 S
C1186 C1181 1.490 . S
C1186 C1188 1.395 . S
C1186 C1189 1.403 . S
H1187 C1193 0.930 . S
C1188 H1174 0.930 . S
C1188 C1186 1.395 . S
C1188 C1191 1.403 . S
C1189 C1186 1.403 . S
C1189 C1190 1.524 . S
C1189 C1193 1.400 . S
C1190 H1175 0.960 . S
C1190 H1176 0.960 . S
C1190 H1177 0.960 . S
C1190 C1189 1.524 . S
C1191 C1188 1.403 . S
C1191 C1192 1.392 . S
C1191 C1195 1.495 . S
C1192 C1191 1.392 . S
C1192 C1193 1.385 . S
C1192 C1194 1.478 . S
C1193 H1187 0.930 . S
C1193 C1189 1.400 . S
C1193 C1192 1.385 . S
C1194 C1192 1.478 . S
C1194 C1196 1.381 . S
C1194 C1200 1.383 . S
C1195 C1191 1.495 . S
C1195 H1201 0.959 . S
C1195 H1202 0.961 . S
C1195 H1203 0.960 . S
C1196 C1194 1.381 . S
C1196 C1197 1.394 . S
C1196 H1204 0.930 . S
C1197 C1196 1.394 . S
C1197 C1198 1.383 . S
C1197 H1205 0.929 . S
C1198 C1197 1.383 . S
C1198 C1199 1.377 . S
C1199 H1183 0.930 . S
C1199 C1198 1.377 . S
C1199 C1200 1.379 . S
C1200 H1184 0.931 . S
C1200 C1194 1.383 . S
C1200 C1199 1.379 . S
H1201 C1195 0.959 . S
H1202 C1195 0.961 . S
H1203 C1195 0.960 . S
H1204 C1196 0.930 . S
H1205 C1197 0.929 . S
H1206 C1214 0.929 . S
H1207 C1216 0.930 . S
H1208 C1218 0.930 . S
H1209 C1221 0.929 . S
H1210 C1224 0.930 . S
H1211 C1226 0.960 . S
H1212 C1226 0.960 . S
H1213 C1226 0.960 . S
C1214 H1206 0.929 . S
C1214 C1215 1.377 . S
C1214 C1216 1.384 . S
C1215 C1214 1.377 . S
C1215 C1221 1.390 . S
C1216 H1207 0.930 . S
C1216 C1214 1.384 . S
C1216 C1217 1.372 . S
C1217 C1216 1.372 . S
C1217 C1218 1.400 . S
C1217 C1222 1.490 . S
C1218 H1208 0.930 . S
C1218 C1217 1.400 . S
C1218 C1221 1.386 . S
H1219 C1235 0.930 . S
H1220 C1236 0.931 . S
C1221 H1209 0.929 . S
C1221 C1215 1.390 . S
C1221 C1218 1.386 . S
C1222 C1217 1.490 . S
C1222 C1224 1.395 . S
C1222 C1225 1.403 . S
H1223 C1229 0.930 . S
C1224 H1210 0.930 . S
C1224 C1222 1.395 . S
C1224 C1227 1.403 . S
C1225 C1222 1.403 . S
C1225 C1226 1.524 . S
C1225 C1229 1.400 . S
C1226 H1211 0.960 . S
C1226 H1212 0.960 . S
C1226 H1213 0.960 . S
C1226 C1225 1.524 . S
C1227 C1224 1.403 . S
C1227 C1228 1.392 . S
C1227 C1231 1.495 . S
C1228 C1227 1.392 . S
C1228 C1229 1.385 . S
C1228 C1230 1.478 . S
C1229 H1223 0.930 . S
C1229 C1225 1.400 . S
C1229 C1228 1.385 . S
C1230 C1228 1.478 . S
C1230 C1232 1.381 . S
C1230 C1236 1.383 . S
C1231 C1227 1.495 . S
C1231 H1237 0.959 . S
C1231 H1238 0.961 . S
C1231 H1239 0.960 . S
C1232 C1230 1.381 . S
C1232 C1233 1.394 . S
C1232 H1240 0.930 . S
C1233 C1232 1.394 . S
C1233 C1234 1.383 . S
C1233 H1241 0.929 . S
C1234 C1233 1.383 . S
C1234 C1235 1.377 . S
C1235 H1219 0.930 . S
C1235 C1234 1.377 . S
C1235 C1236 1.379 . S
C1236 H1220 0.931 . S
C1236 C1230 1.383 . S
C1236 C1235 1.379 . S
H1237 C1231 0.959 . S
H1238 C1231 0.961 . S
H1239 C1231 0.960 . S
H1240 C1232 0.930 . S
H1241 C1233 0.929 . S
C279 C10 0.867 . S
C298 C1 0.879 . S
C315 C31 0.883 . S
C334 C40 0.891 . S
C351 C70 0.897 . S
C370 C61 0.894 . S
C387 C91 0.869 . S
C406 C100 0.880 . S
C423 C130 0.877 . S
C442 C121 0.874 . S
C459 C151 0.898 . S
C478 C160 0.881 . S
C495 C207 0.891 . S
C514 C196 0.901 . S
C531 C226 0.877 . S
C550 C237 0.855 . S
C567 C267 0.865 . S
C586 C256 0.870 . S
C603 N164 1.339 . S
C622 C27 1.387 . S
C639 N44 0.962 . S
C658 N104 0.961 . S
C675 C87 1.820 . S
C694 C147 1.834 . S
C711 N74 0.681 . S
C730 N186 0.685 . S
C747 C211 1.303 . S
C766 N14 1.203 . S
C783 N246 1.270 . S
C802 C57 1.286 . S
C819 C250 1.754 . S
C838 C16 1.728 1_556 S
C855 N36 0.833 . S
C874 C190 0.830 . S
C891 N224 0.994 . S
C910 C76 1.024 . S
C927 N66 1.337 . S
C946 C106 1.377 . S
C963 N126 0.962 . S
C982 N6 0.978 . S
C999 C46 1.841 . S
C1018 C166 1.822 . S
C1035 C241 1.756 . S
C1054 C117 1.725 . S
C1071 C181 0.846 . S
C1090 N134 0.883 . S
C1107 N216 0.995 . S
C1126 C177 1.004 . S
C1143 N194 0.663 . S
C1162 N156 0.598 . S
C1179 N96 1.227 . S
C1198 C220 1.294 . S
C1215 N254 1.276 . S
C1234 C136 1.271 . S
