# Generated by pormake.
# Topology tfs, (6)-cn, num edge types: 1
# Building blocks:
#     Node 0, Type 0, BuildingBlock: INOVEN_clean_sbu_0, # of connection points: 6
#     Node 1, Type 0, BuildingBlock: INOVEN_clean_sbu_0, # of connection points: 6
#     Node 2, Type 0, BuildingBlock: INOVEN_clean_sbu_0, # of connection points: 6
#     Node 3, Type 0, BuildingBlock: INOVEN_clean_sbu_0, # of connection points: 6
#     Node 4, Type 0, BuildingBlock: INOVEN_clean_sbu_0, # of connection points: 6
#     Node 5, Type 0, BuildingBlock: INOVEN_clean_sbu_0, # of connection points: 6
#     Edge 6, Type (0, 0), BuildingBlock: EZIPEK_clean_linker_0, # of connection points: 2
#     Edge 7, Type (0, 0), BuildingBlock: EZIPEK_clean_linker_0, # of connection points: 2
#     Edge 8, Type (0, 0), BuildingBlock: EZIPEK_clean_linker_0, # of connection points: 2
#     Edge 9, Type (0, 0), BuildingBlock: EZIPEK_clean_linker_0, # of connection points: 2
#     Edge 10, Type (0, 0), BuildingBlock: EZIPEK_clean_linker_0, # of connection points: 2
#     Edge 11, Type (0, 0), BuildingBlock: EZIPEK_clean_linker_0, # of connection points: 2
#     Edge 12, Type (0, 0), BuildingBlock: EZIPEK_clean_linker_0, # of connection points: 2
#     Edge 13, Type (0, 0), BuildingBlock: EZIPEK_clean_linker_0, # of connection points: 2
#     Edge 14, Type (0, 0), BuildingBlock: EZIPEK_clean_linker_0, # of connection points: 2
#     Edge 15, Type (0, 0), BuildingBlock: EZIPEK_clean_linker_0, # of connection points: 2
#     Edge 16, Type (0, 0), BuildingBlock: EZIPEK_clean_linker_0, # of connection points: 2
#     Edge 17, Type (0, 0), BuildingBlock: EZIPEK_clean_linker_0, # of connection points: 2
#     Edge 18, Type (0, 0), BuildingBlock: EZIPEK_clean_linker_0, # of connection points: 2
#     Edge 19, Type (0, 0), BuildingBlock: EZIPEK_clean_linker_0, # of connection points: 2
#     Edge 20, Type (0, 0), BuildingBlock: EZIPEK_clean_linker_0, # of connection points: 2
#     Edge 21, Type (0, 0), BuildingBlock: EZIPEK_clean_linker_0, # of connection points: 2
#     Edge 22, Type (0, 0), BuildingBlock: EZIPEK_clean_linker_0, # of connection points: 2
#     Edge 23, Type (0, 0), BuildingBlock: EZIPEK_clean_linker_0, # of connection points: 2
# Relax obj value: 0.484
# Max RMSD: 0.383
# Mean RMSD: 0.356
data_MOF--net-tfs--node1-INOVEN_clean_sbu_0--edge1-EZIPEK_clean_linker_0
_symmetry_space_group_name_H-M    P1
_symmetry_Int_Tables_number       1
_symmetry_cell_setting            triclinic
loop_
_symmetry_equiv_pos_as_xyz
'x, y, z'
_cell_length_a     41.206949
_cell_length_b     41.21775
_cell_length_c     9.8610133
_cell_angle_alpha  92.459106
_cell_angle_beta   97.036696
_cell_angle_gamma 120.23811
loop_
_atom_site_label
_atom_site_type_symbol
_atom_site_fract_x
_atom_site_fract_y
_atom_site_fract_z
_atom_type_partial_charge
Gd0 Gd 0.22395 0.38084 0.11509 0.0
Gd1 Gd 0.1854 0.42589 0.03804 0.0
C2 C 0.1406 0.35023 0.17606 0.0
C3 C 0.24668 0.33852 0.22084 0.0
C4 C 0.2597 0.31432 0.28128 0.0
C5 C 0.29319 0.31694 0.25048 0.0
C6 C 0.24057 0.29079 0.37826 0.0
C7 C 0.29092 0.27648 0.42498 0.0
C8 C 0.25631 0.27217 0.45079 0.0
C9 C 0.30856 0.29782 0.32112 0.0
C10 C 0.20008 0.37406 0.83802 0.0
C11 C 0.27608 0.46123 0.02327 0.0
C12 C 0.15903 0.46358 0.90678 0.0
C13 C 0.16313 0.50163 0.91492 0.0
C14 C 0.15281 0.51509 0.02554 0.0
C15 C 0.17613 0.52436 0.80829 0.0
C16 C 0.16853 0.57298 0.92357 0.0
C17 C 0.17898 0.55981 0.81287 0.0
C18 C 0.15542 0.5503 0.02956 0.0
C19 C 0.21106 0.43659 0.31523 0.0
O20 O 0.17507 0.35876 0.22823 0.0
O21 O 0.1361 0.36941 0.07748 0.0
O22 O 0.21188 0.32476 0.15573 0.0
O23 O 0.2694 0.37512 0.22578 0.0
O24 O 0.22885 0.37189 0.89396 0.0
O25 O 0.18293 0.37621 0.93342 0.0
O26 O 0.2451 0.46342 -0.00573 0.0
O27 O 0.27603 0.43309 0.08228 0.0
O28 O 0.14253 0.44171 -0.00075 0.0
O29 O 0.18794 0.46135 0.87715 0.0
O30 O 0.18432 0.44192 0.25813 0.0
O31 O 0.22618 0.43104 0.21862 0.0
H32 H 0.30802 0.33465 0.1747 0.0
H33 H 0.21462 0.28841 0.40307 0.0
H34 H 0.24244 0.25572 0.53073 0.0
H35 H 0.33515 0.30112 0.29951 0.0
H36 H 0.14277 0.49849 0.10948 0.0
H37 H 0.18426 0.51482 0.72157 0.0
H38 H 0.18966 0.57711 0.73101 0.0
H39 H 0.14777 0.56021 0.11687 0.0
Gd40 Gd 0.79797 0.21772 0.83161 0.0
Gd41 Gd 0.88735 0.24539 0.87496 0.0
C42 C 0.85981 0.30585 0.93488 0.0
C43 C 0.72977 0.19576 0.87496 0.0
C44 C 0.70574 0.20791 0.93407 0.0
C45 C 0.69354 0.22967 0.86258 0.0
C46 C 0.68977 0.19254 0.05053 0.0
C47 C 0.64579 0.21524 0.00874 0.0
C48 C 0.65988 0.19611 0.08748 0.0
C49 C 0.6639 0.23339 0.89997 0.0
C50 C 0.83413 0.23985 0.61511 0.0
C51 C 0.82009 0.15888 0.7237 0.0
C52 C 0.95705 0.26996 0.83801 0.0
C53 C 0.98099 0.27418 0.7309 0.0
C54 C 1.00748 0.31094 0.70613 0.0
C55 C 0.97859 0.24319 0.65432 0.0
C56 C 0.02722 0.28603 0.52599 0.0
C57 C 1.0016 0.2491 0.55266 0.0
C58 C 0.03025 0.31678 0.60505 0.0
C59 C 0.85445 0.23089 0.09704 0.0
O60 O 0.82395 0.27812 0.91803 0.0
O61 O 0.8883 0.30077 0.91353 0.0
O62 O 0.74225 0.20907 0.76178 0.0
O63 O 0.75422 0.19168 0.95983 0.0
O64 O 0.79731 0.21922 0.60245 0.0
O65 O 0.8481 0.25262 0.73741 0.0
O66 O 0.85665 0.18615 0.75171 0.0
O67 O 0.79259 0.16281 0.76215 0.0
O68 O 0.93554 0.23656 0.87689 0.0
O69 O 0.94056 0.29 0.82977 0.0
O70 O 0.89094 0.25276 0.1027 0.0
O71 O 0.83873 0.21251 -0.02002 0.0
H72 H 0.70506 0.24176 0.77212 0.0
H73 H 0.69855 0.17555 0.10728 0.0
H74 H 0.64602 0.18171 0.17106 0.0
H75 H 0.65304 0.24788 0.83708 0.0
H76 H 1.01063 0.33539 0.76552 0.0
H77 H 0.95894 0.21454 0.67242 0.0
H78 H 0.99955 0.22496 0.49526 0.0
H79 H 0.05056 0.34545 0.58917 0.0
Gd80 Gd 0.57342 0.7595 0.05614 0.0
Gd81 Gd 0.62784 0.84778 0.10216 0.0
C82 C 0.53596 0.80863 -0.01905 0.0
C83 C 0.52863 0.68862 0.07073 0.0
C84 C 0.48886 0.65837 0.01937 0.0
C85 C 0.48034 0.63057 0.91083 0.0
C86 C 0.45962 0.65456 0.08973 0.0
C87 C 0.41603 0.59343 0.95857 0.0
C88 C 0.42352 0.62239 0.05923 0.0
C89 C 0.444 0.59817 0.88045 0.0
C90 C 0.60116 0.7939 0.84219 0.0
C91 C 0.6627 0.79629 0.19143 0.0
C92 C 0.67253 0.91985 0.11138 0.0
C93 C 0.70345 0.94977 0.21688 0.0
C94 C 0.69556 0.95867 0.34367 0.0
C95 C 0.7407 0.97142 0.18839 0.0
C96 C 0.7592 1.01416 0.39886 0.0
C97 C 0.76863 1.00304 0.27998 0.0
C98 C 0.72309 0.99067 0.43302 0.0
C99 C 0.60522 0.81505 0.32296 0.0
O100 O 0.52978 0.7751 0.00625 0.0
O101 O 0.57074 0.8391 -0.00513 0.0
O102 O 0.55263 0.70072 -0.0169 0.0
O103 O 0.53315 0.71574 0.15934 0.0
O104 O 0.56785 0.7635 0.83017 0.0
O105 O 0.61932 0.80209 0.96033 0.0
O106 O 0.67051 0.82912 0.14901 0.0
O107 O 0.62761 0.76679 0.17255 0.0
O108 O 0.6379 0.90429 0.13965 0.0
O109 O 0.67931 0.8954 0.0512 0.0
O110 O 0.63722 0.84614 0.32568 0.0
O111 O 0.58422 0.8055 0.20812 0.0
H112 H 0.50227 0.63282 0.85481 0.0
H113 H 0.46504 0.67531 0.17399 0.0
H114 H 0.40218 0.61883 0.12102 0.0
H115 H 0.4385 0.57579 0.80293 0.0
H116 H 0.6675 0.94214 0.37101 0.0
H117 H 0.74767 0.96503 0.09218 0.0
H118 H 0.79631 0.02089 0.25136 0.0
H119 H 0.71531 0.99854 0.52463 0.0
Gd120 Gd 0.86054 0.60352 0.91702 0.0
Gd121 Gd 0.8316 0.65889 0.85761 0.0
C122 C 0.77339 0.57769 0.93506 0.0
C123 C 0.88223 0.56075 0.03494 0.0
C124 C 0.87901 0.52326 0.02143 0.0
C125 C 0.89716 0.5144 0.92701 0.0
C126 C 0.85986 0.49691 0.11154 0.0
C127 C 0.87674 0.45367 0.01204 0.0
C128 C 0.85861 0.46232 0.10655 0.0
C129 C 0.89598 0.47987 0.92236 0.0
C130 C 0.83321 0.59669 0.64322 0.0
C131 C 0.91087 0.67612 0.77661 0.0
C132 C 0.81037 0.70633 0.78611 0.0
C133 C 0.79275 0.72256 0.69197 0.0
C134 C 0.75721 0.71752 0.7104 0.0
C135 C 0.81186 0.74589 0.59408 0.0
C136 C 0.75813 0.75446 0.52384 0.0
C137 C 0.79429 0.76097 0.50844 0.0
C138 C 0.74018 0.73346 0.62783 0.0
C139 C 0.85884 0.66261 0.13101 0.0
O140 O 0.80301 0.57466 -0.01878 0.0
O141 O 0.77654 0.60549 0.86485 0.0
O142 O 0.85207 0.56169 0.05713 0.0
O143 O 0.90168 0.58543 0.95444 0.0
O144 O 0.85479 0.58414 0.69354 0.0
O145 O 0.82208 0.60611 0.74457 0.0
O146 O 0.87984 0.67758 0.73995 0.0
O147 O 0.91306 0.65634 0.87638 0.0
O148 O 0.84458 0.71243 0.77998 0.0
O149 O 0.78793 0.67347 0.82507 0.0
O150 O 0.83394 0.67122 0.0846 0.0
O151 O 0.87139 0.65637 0.02836 0.0
H152 H 0.91236 0.5341 0.85687 0.0
H153 H 0.84586 0.50303 0.18613 0.0
H154 H 0.8432 0.44214 0.17514 0.0
H155 H 0.90962 0.47329 0.84738 0.0
H156 H 0.74263 0.70141 0.78985 0.0
H157 H 0.84043 0.75278 0.5844 0.0
H158 H 0.80891 0.77783 0.43055 0.0
H159 H 0.7127 0.72893 0.64369 0.0
Gd160 Gd 0.1598 0.78323 0.06627 0.0
Gd161 Gd 0.24639 0.81229 0.06187 0.0
C162 C 0.2203 0.87093 0.17366 0.0
C163 C 0.09155 0.75196 0.12343 0.0
C164 C 0.06838 0.75725 0.21556 0.0
C165 C 0.02972 0.74344 0.16595 0.0
C166 C 0.08243 0.77052 0.35622 0.0
C167 C 1.01794 0.74748 0.40009 0.0
C168 C 0.05729 0.76552 0.44794 0.0
C169 C 1.00459 0.73862 0.2575 0.0
C170 C 0.18442 0.80379 0.82617 0.0
C171 C 0.18915 0.72298 0.00757 0.0
C172 C 0.31255 0.84347 -0.01432 0.0
C173 C 0.34337 0.83641 0.96291 0.0
C174 C 0.37907 0.85873 0.04659 0.0
C175 C 0.33857 0.80904 0.85895 0.0
C176 C 0.40433 0.82565 0.92903 0.0
C177 C 0.36891 0.80355 0.84276 0.0
C178 C 0.4092 0.85342 0.02992 0.0
C179 C 0.22232 0.79015 0.30007 0.0
O180 O 0.18542 0.8422 0.17173 0.0
O181 O 0.24587 0.86657 0.11706 0.0
O182 O 0.10245 0.77393 0.02605 0.0
O183 O 0.11746 0.74481 0.17984 0.0
O184 O 0.15693 0.80689 0.8641 0.0
O185 O 0.1942 0.78718 0.91007 0.0
O186 O 0.22445 0.75089 0.00903 0.0
O187 O 0.16091 0.72852 0.02952 0.0
O188 O 0.30773 0.84639 0.11352 0.0
O189 O 0.28043 0.82568 0.89871 0.0
O190 O 0.25111 0.78904 0.26249 0.0
O191 O 0.21163 0.80646 0.21742 0.0
H192 H 1.01841 0.73355 0.05756 0.0
H193 H 0.11231 0.78216 0.39654 0.0
H194 H 0.06812 0.77273 0.55742 0.0
H195 H 0.97435 0.72466 0.21831 0.0
H196 H 0.38359 0.88014 0.12653 0.0
H197 H 0.31144 0.79161 0.79186 0.0
H198 H 0.36462 0.78165 0.76548 0.0
H199 H 0.43615 0.87029 0.09876 0.0
Gd200 Gd 0.4191 0.18155 0.83556 0.0
Gd201 Gd 0.47684 0.26992 0.87814 0.0
C202 C 0.38777 0.23473 0.74043 0.0
C203 C 0.37309 0.10957 0.83161 0.0
C204 C 0.34704 0.07714 0.72428 0.0
C205 C 0.36131 0.05906 0.64715 0.0
C206 C 0.30755 0.0631 0.70063 0.0
C207 C 0.29745 1.0133 0.52816 0.0
C208 C 0.28301 0.03169 0.60246 0.0
C209 C 0.33679 0.02753 0.5505 0.0
C210 C 0.44559 0.21213 0.6124 0.0
C211 C 0.50744 0.21656 -0.01986 0.0
C212 C 0.52499 0.33937 0.85065 0.0
C213 C 0.56311 0.37238 0.90507 0.0
C214 C 0.5679 0.40088 0.00338 0.0
C215 C 0.59429 0.37816 0.84293 0.0
C216 C 0.63262 0.44157 0.96332 0.0
C217 C 0.62872 0.41236 0.87224 0.0
C218 C 0.60255 0.43536 0.03239 0.0
C219 C 0.4458 0.23963 0.09487 0.0
O220 O 0.37843 0.20196 0.78584 0.0
O221 O 0.42334 0.26336 0.75656 0.0
O222 O 0.4097 0.12492 0.83126 0.0
O223 O 0.36345 0.13469 0.85824 0.0
O224 O 0.41398 0.18067 0.60863 0.0
O225 O 0.46488 0.22253 0.73093 0.0
O226 O 0.51674 0.24987 0.94116 0.0
O227 O 0.47174 0.18831 -0.03182 0.0
O228 O 0.49711 0.32999 0.92106 0.0
O229 O 0.52437 0.31017 0.78971 0.0
O230 O 0.47949 0.26959 0.10582 0.0
O231 O 0.42907 0.22944 -0.02658 0.0
H232 H 0.39146 0.06885 0.66274 0.0
H233 H 0.29556 0.07607 0.75923 0.0
H234 H 0.25265 0.02092 0.58773 0.0
H235 H 0.34848 1.01366 0.49496 0.0
H236 H 0.54437 0.39734 0.05234 0.0
H237 H 0.59155 0.35707 0.76555 0.0
H238 H 0.65165 0.41691 0.81746 0.0
H239 H 0.60524 0.45783 0.10269 0.0
C240 C 0.35698 0.27334 0.72181 0.0
C241 C 0.35765 0.24093 0.67236 0.0
C242 C 0.30717 0.22698 0.47894 0.0
C243 C 0.31114 0.26246 0.51667 0.0
N244 N 0.34086 0.32084 0.66936 0.0
N245 N 0.33505 0.1876 0.49837 0.0
C246 C 0.33612 0.28593 0.63754 0.0
C247 C 0.33277 0.21751 0.55056 0.0
N248 N 0.37556 0.29146 0.85111 0.0
N249 N 0.27881 0.20235 0.37503 0.0
H250 H 0.35277 0.17907 0.54752 0.0
H251 H 0.32112 0.17253 0.40149 0.0
H252 H 0.26009 0.20887 0.3191 0.0
H253 H 0.2717 0.17441 0.35217 0.0
H254 H 0.37333 0.31318 0.89833 0.0
H255 H 0.3902 0.28225 0.91725 0.0
H256 H 0.36217 0.34114 0.74589 0.0
H257 H 0.32506 0.33064 0.61332 0.0
C258 C 0.06967 0.31069 0.194 0.0
C259 C 0.10822 0.3227 0.24551 0.0
C260 C 0.09063 0.30075 0.46814 0.0
C261 C 0.05336 0.29346 0.42334 0.0
N262 N 1.00389 0.2797 0.23371 0.0
N263 N 0.14623 0.3048 0.39657 0.0
C264 C 0.04173 0.29475 0.28268 0.0
C265 C 0.1163 0.31063 0.37262 0.0
N266 N 0.05961 0.31318 0.05941 0.0
N267 N 0.10153 0.298 0.60177 0.0
H268 H 0.16088 0.30397 0.319 0.0
H269 H 0.15205 0.29409 0.48405 0.0
H270 H 0.08295 0.28886 0.67321 0.0
H271 H 0.12959 0.30686 0.64367 0.0
H272 H 0.0337 0.31033 0.01877 0.0
H273 H 0.07706 0.31676 -0.01372 0.0
H274 H 0.99268 0.2766 0.13049 0.0
H275 H 0.98308 0.26769 0.29616 0.0
C276 C 0.81777 0.09635 0.68871 0.0
C277 C 0.80879 0.12298 0.6363 0.0
C278 C 0.7791 0.08225 0.41442 0.0
C279 C 0.78292 0.05335 0.47264 0.0
N280 N 0.80559 0.03185 0.66444 0.0
N281 N 0.77358 0.13667 0.45561 0.0
C282 C 0.80255 0.06026 0.60953 0.0
C283 C 0.7878 0.11482 0.50065 0.0
N284 N 0.83989 0.10516 0.81528 0.0
N285 N 0.76604 0.07838 0.27672 0.0
H286 H 0.77745 0.15971 0.51558 0.0
H287 H 0.75416 0.12948 0.36529 0.0
H288 H 0.75657 0.05414 0.20922 0.0
H289 H 0.76769 0.10072 0.22613 0.0
H290 H 0.85035 0.08864 0.85528 0.0
H291 H 0.84953 0.13026 0.87862 0.0
H292 H 0.8158 0.0331 0.76756 0.0
H293 H 0.79641 1.00609 0.6063 0.0
C294 C 0.74326 0.80481 0.45993 0.0
C295 C 0.73819 0.76842 0.42818 0.0
C296 C 0.69217 0.75651 0.22162 0.0
C297 C 0.69343 0.79067 0.26156 0.0
N298 N 0.72463 0.8508 0.40668 0.0
N299 N 0.70552 0.70799 0.28741 0.0
C300 C 0.72052 0.81608 0.37663 0.0
C301 C 0.71223 0.74396 0.31079 0.0
N302 N 0.76828 0.82751 0.57486 0.0
N303 N 0.67304 0.73687 0.09459 0.0
H304 H 0.72074 0.69809 0.34652 0.0
H305 H 0.68308 0.68708 0.21557 0.0
H306 H 0.65998 0.74645 0.02294 0.0
H307 H 0.67368 0.71352 0.05375 0.0
H308 H 0.77123 0.85278 0.61467 0.0
H309 H 0.78591 0.82044 0.63512 0.0
H310 H 0.74676 0.87247 0.47671 0.0
H311 H 0.70693 0.85937 0.35807 0.0
C312 C 0.97978 0.69225 0.52471 0.0
C313 C 0.99097 0.72984 0.49911 0.0
C314 C 0.954 0.73369 0.67033 0.0
C315 C 0.94217 0.69577 0.69458 0.0
N316 N 0.94719 0.64016 0.65607 0.0
N317 N 0.98512 0.78471 0.53044 0.0
C318 C 0.95607 0.67543 0.62517 0.0
C319 C 0.97712 0.75017 0.5675 0.0
N320 N 0.99036 0.67184 0.4472 0.0
N321 N 0.94452 0.75448 0.75101 0.0
H322 H 1.00234 0.79752 0.45699 0.0
H323 H 0.97282 0.79958 0.56446 0.0
H324 H 0.92974 0.74412 0.83264 0.0
H325 H 0.95397 0.78297 0.74649 0.0
H326 H 0.97878 0.64278 0.44405 0.0
H327 H 1.00918 0.68327 0.37754 0.0
H328 H 0.96102 0.62642 0.62657 0.0
H329 H 0.92753 0.62487 0.71855 0.0
C330 C 0.25508 0.94217 0.20353 0.0
C331 C 0.23326 0.90771 0.25866 0.0
C332 C 0.2489 0.9435 0.48804 0.0
C333 C 0.27168 0.97759 0.43322 0.0
N334 N 0.2886 1.0109 0.23532 0.0
N335 N 0.20102 0.87718 0.4483 0.0
C336 C 0.27241 0.97733 0.28968 0.0
C337 C 0.22715 0.90883 0.39853 0.0
N338 N 0.25905 0.94127 0.068 0.0
N339 N 0.24993 0.94373 0.62752 0.0
H340 H 0.18729 0.84986 0.39834 0.0
H341 H 0.19093 0.87821 0.53925 0.0
H342 H 0.26591 0.9681 0.69779 0.0
H343 H 0.2371 0.91947 0.67619 0.0
H344 H 0.27885 0.96434 0.02542 0.0
H345 H 0.24284 0.91692 -0.00244 0.0
H346 H 0.28706 1.01302 0.13023 0.0
H347 H 0.3008 0.03697 0.29561 0.0
C348 C 0.1569 0.65848 0.86745 0.0
C349 C 0.18196 0.68381 -0.01478 0.0
C350 C 0.2027 0.63911 0.04315 0.0
C351 C 0.17435 0.61184 0.93671 0.0
N352 N 0.12168 0.59387 0.75375 0.0
N353 N 0.2232 0.69489 0.19982 0.0
C354 C 0.15067 0.62106 0.85004 0.0
C355 C 0.20334 0.67318 0.07695 0.0
N356 N 0.14028 0.67059 0.76981 0.0
N357 N 0.22997 0.63301 0.10936 0.0
H358 H 0.22351 0.71946 0.23091 0.0
H359 H 0.23593 0.68643 0.27701 0.0
H360 H 0.23103 0.60869 0.08573 0.0
H361 H 0.25378 0.65375 0.17715 0.0
H362 H 0.12514 0.65495 0.67467 0.0
H363 H 0.1442 0.69768 0.77939 0.0
H364 H 0.10107 0.59769 0.69702 0.0
H365 H 0.11657 0.56641 0.73736 0.0
C366 C 0.54374 0.18857 0.89882 0.0
C367 C 0.53855 0.2085 0.00677 0.0
C368 C 0.60273 0.22951 0.12903 0.0
C369 C 0.60785 0.20988 0.01966 0.0
N370 N 0.57987 0.16186 0.82323 0.0
N371 N 0.5585 0.24048 0.23738 0.0
C372 C 0.57715 0.18646 0.91217 0.0
C373 C 0.56662 0.22651 0.12663 0.0
N374 N 0.51796 0.1737 0.77917 0.0
N375 N 0.63275 0.2522 0.23114 0.0
H376 H 0.53214 0.23836 0.23686 0.0
H377 H 0.57629 0.25106 0.33261 0.0
H378 H 0.65931 0.25458 0.236 0.0
H379 H 0.63209 0.27018 0.30671 0.0
H380 H 0.52324 0.16407 0.68982 0.0
H381 H 0.49222 0.17316 0.76511 0.0
H382 H 0.55705 0.14145 0.75121 0.0
H383 H 0.60384 0.15914 0.8303 0.0
C384 C 0.34871 0.54335 0.8579 0.0
C385 C 0.38181 0.55597 0.95681 0.0
C386 C 0.34578 0.50764 0.09909 0.0
C387 C 0.31277 0.49293 -0.0033 0.0
N388 N 0.28598 0.49092 0.76128 0.0
N389 N 0.41447 0.54311 0.14764 0.0
C390 C 0.31507 0.50901 0.87044 0.0
C391 C 0.38119 0.53545 0.06864 0.0
N392 N 0.3491 0.56458 0.75477 0.0
N393 N 0.34314 0.4977 0.22948 0.0
H394 H 0.44117 0.56366 0.12859 0.0
H395 H 0.41554 0.52636 0.22231 0.0
H396 H 0.3173 0.48102 0.26255 0.0
H397 H 0.36618 0.51015 0.31005 0.0
H398 H 0.32459 0.5589 0.68879 0.0
H399 H 0.37367 0.58934 0.7411 0.0
H400 H 0.28775 0.49982 0.6637 0.0
H401 H 0.26172 0.4648 0.76422 0.0
C402 C 0.84758 0.38961 0.88123 0.0
C403 C 0.87248 0.41568 -0.00317 0.0
C404 C 0.88818 0.3689 0.07838 0.0
C405 C 0.86628 0.34451 0.95525 0.0
N406 N 0.82923 0.33347 0.72998 0.0
N407 N 0.91883 0.43218 0.20158 0.0
C408 C 0.84715 0.3554 0.85409 0.0
C409 C 0.89344 0.40588 0.09477 0.0
N410 N 0.82305 0.39684 0.8003 0.0
N411 N 0.90257 0.35616 0.18132 0.0
H412 H 0.92284 0.45923 0.21768 0.0
H413 H 0.93766 0.4282 0.26908 0.0
H414 H 0.89937 0.32935 0.17192 0.0
H415 H 0.91527 0.37089 0.27938 0.0
H416 H 0.80106 0.37691 0.72467 0.0
H417 H 0.82216 0.42152 0.81697 0.0
H418 H 0.8193 0.34241 0.64598 0.0
H419 H 0.82694 0.30748 0.70603 0.0
C420 C 0.45855 0.82813 0.82464 0.0
C421 C 0.43531 0.81718 0.92856 0.0
C422 C 0.47868 0.80238 0.06543 0.0
C423 C 0.50179 0.81244 0.96065 0.0
N424 N 0.50867 0.82561 0.72678 0.0
N425 N 0.41719 0.78406 0.12681 0.0
C426 C 0.49035 0.82275 0.83597 0.0
C427 C 0.44356 0.80125 0.04237 0.0
N428 N 0.45074 0.84436 0.71723 0.0
N429 N 0.49072 0.795 0.18957 0.0
H430 H 0.39076 0.78218 0.11204 0.0
H431 H 0.41973 0.76823 0.20251 0.0
H432 H 0.51562 0.79424 0.21195 0.0
H433 H 0.47758 0.79262 0.27537 0.0
H434 H 0.46868 0.85637 0.64534 0.0
H435 H 0.42719 0.84781 0.70442 0.0
H436 H 0.49938 0.82926 0.62869 0.0
H437 H 0.53117 0.82067 0.73151 0.0
C438 C 0.72939 0.53095 0.078 0.0
C439 C 0.73527 0.5462 0.95016 0.0
C440 C 0.66959 0.49891 0.85036 0.0
C441 C 0.6662 0.47988 -0.03132 0.0
N442 N 0.69389 0.47538 0.19174 0.0
N443 N 0.71272 0.53851 0.70493 0.0
C444 C 0.6963 0.49531 0.08235 0.0
C445 C 0.70574 0.5289 0.83379 0.0
N446 N 0.75486 0.55086 0.19541 0.0
N447 N 0.63828 0.48798 0.75271 0.0
H448 H 0.7395 0.55768 0.68322 0.0
H449 H 0.69278 0.52395 0.61603 0.0
H450 H 0.61115 0.46596 0.76143 0.0
H451 H 0.63859 0.50331 0.67101 0.0
H452 H 0.75043 0.54245 0.29293 0.0
H453 H 0.77852 0.5778 0.19716 0.0
H454 H 0.71674 0.48326 0.27038 0.0
H455 H 0.66975 0.44947 0.19888 0.0
C456 C 0.17493 0.40003 0.64808 0.0
C457 C 0.19726 0.38424 0.69345 0.0
C458 C 0.23309 0.40783 0.50258 0.0
C459 C 0.21142 0.42439 0.4579 0.0
N460 N 0.17293 0.44895 0.52769 0.0
N461 N 0.23385 0.35802 0.61967 0.0
C462 C 0.18521 0.42388 0.54116 0.0
C463 C 0.22243 0.38377 0.60795 0.0
N464 N 0.1424 0.39025 0.69974 0.0
N465 N 0.266 0.41773 0.45402 0.0
H466 H 0.22253 0.33654 0.68263 0.0
H467 H 0.24995 0.35469 0.55272 0.0
H468 H 0.27687 0.43859 0.38896 0.0
H469 H 0.28487 0.40933 0.49386 0.0
H470 H 0.12308 0.39816 0.66062 0.0
H471 H 0.13232 0.37022 0.76853 0.0
H472 H 0.15551 0.45123 0.59082 0.0
H473 H 0.18482 0.47119 0.46832 0.0
C474 C 0.84867 0.27009 0.4126 0.0
C475 C 0.85535 0.24797 0.50117 0.0
C476 C 0.84651 0.20415 0.30904 0.0
C477 C 0.83694 0.22481 0.22003 0.0
N478 N 0.81353 0.26746 0.19641 0.0
N479 N 0.88472 0.211 0.52442 0.0
C480 C 0.83384 0.25528 0.27402 0.0
C481 C 0.86063 0.21911 0.44812 0.0
N482 N 0.85674 0.30511 0.46234 0.0
N483 N 0.84365 0.17134 0.25872 0.0
H484 H 0.90048 0.22752 0.6175 0.0
H485 H 0.89251 0.19222 0.48774 0.0
H486 H 0.83277 0.16015 0.15536 0.0
H487 H 0.84856 0.15408 0.32192 0.0
H488 H 0.85444 0.32383 0.39962 0.0
H489 H 0.87024 0.31639 0.56389 0.0
H490 H 0.80908 0.28877 0.23308 0.0
H491 H 0.79617 0.25149 0.10497 0.0
C492 C 0.62555 0.79007 0.64312 0.0
C493 C 0.6175 0.81203 0.72769 0.0
C494 C 0.58875 0.82765 0.53348 0.0
C495 C 0.59284 0.80179 0.44932 0.0
N496 N 0.60318 0.74945 0.43073 0.0
N497 N 0.60793 0.86399 0.75809 0.0
C498 C 0.60779 0.78027 0.50602 0.0
C499 C 0.60394 0.83469 0.6742 0.0
N500 N 0.64897 0.77776 0.69648 0.0
N501 N 0.57171 0.84611 0.47666 0.0
H502 H 0.62238 0.87041 0.85875 0.0
H503 H 0.60038 0.88336 0.72595 0.0
H504 H 0.56141 0.84165 0.37153 0.0
H505 H 0.56596 0.86393 0.53353 0.0
H506 H 0.65816 0.76365 0.63573 0.0
H507 H 0.66199 0.78555 0.79976 0.0
H508 H 0.61187 0.73149 0.47042 0.0
H509 H 0.58617 0.73963 0.33467 0.0
C510 C 0.85569 0.60185 0.41216 0.0
C511 C 0.83634 0.61098 0.50386 0.0
C512 C 0.84384 0.66221 0.36941 0.0
C513 C 0.86069 0.65147 0.27387 0.0
N514 N 0.90042 0.62547 0.25191 0.0
N515 N 0.8006 0.64172 0.53358 0.0
C516 C 0.87183 0.62535 0.30827 0.0
C517 C 0.82721 0.63895 0.47266 0.0
N518 N 0.85571 0.56881 0.41551 0.0
N519 N 0.84654 0.69651 0.3683 0.0
H520 H 0.7843 0.62214 0.59631 0.0
H521 H 0.79092 0.65985 0.50533 0.0
H522 H 0.86202 0.71582 0.30282 0.0
H523 H 0.83814 0.70739 0.44449 0.0
H524 H 0.86744 0.55991 0.34537 0.0
H525 H 0.83938 0.54811 0.47515 0.0
H526 H 0.91281 0.60998 0.28614 0.0
H527 H 0.91465 0.64465 0.18421 0.0
C528 C 0.23917 0.82673 0.5305 0.0
C529 C 0.21647 0.79189 0.44333 0.0
C530 C 0.16787 0.77025 0.59101 0.0
C531 C 0.19176 0.80354 0.68409 0.0
N532 N 0.24952 0.8638 0.74664 0.0
N533 N 0.16339 0.72805 0.40142 0.0
C534 C 0.22728 0.83194 0.65478 0.0
C535 C 0.18204 0.76291 0.47704 0.0
N536 N 0.27114 0.85526 0.49128 0.0
N537 N 0.13131 0.74615 0.60978 0.0
H538 H 0.17359 0.72191 0.31823 0.0
H539 H 0.13999 0.7045 0.42832 0.0
H540 H 0.11974 0.75112 0.69083 0.0
H541 H 0.11131 0.72337 0.53783 0.0
H542 H 0.28623 0.8829 0.54005 0.0
H543 H 0.28194 0.85178 0.40514 0.0
H544 H 0.27762 0.88386 0.74105 0.0
H545 H 0.23996 0.86953 0.83257 0.0
C546 C 0.44562 0.25305 0.44277 0.0
C547 C 0.45771 0.22805 0.48687 0.0
C548 C 0.43891 0.19604 0.25573 0.0
C549 C 0.42931 0.22237 0.2119 0.0
N550 N 0.40776 0.2645 0.26533 0.0
N551 N 0.47654 0.18361 0.42884 0.0
C552 C 0.4271 0.24691 0.307 0.0
C553 C 0.45816 0.20228 0.3902 0.0
N554 N 0.45507 0.28449 0.52659 0.0
N555 N 0.42728 0.16407 0.17065 0.0
H556 H 0.49178 0.18936 0.52811 0.0
H557 H 0.47974 0.16602 0.35941 0.0
H558 H 0.41041 0.15885 0.07553 0.0
H559 H 0.43087 0.14195 0.20024 0.0
H560 H 0.44966 0.30547 0.4963 0.0
H561 H 0.47234 0.2911 0.62085 0.0
H562 H 0.4023 0.28053 0.33352 0.0
H563 H 0.39403 0.25933 0.16362 0.0
loop_
_geom_bond_atom_site_label_1
_geom_bond_atom_site_label_2
_geom_bond_distance
_geom_bond_site_symmetry_2
_ccdc_geom_bond_type
Gd0 C3 2.818 . S
Gd0 O20 2.377 1_554 S
Gd0 O22 2.448 1_554 S
Gd0 O23 2.506 . S
Gd0 O24 2.435 1_554 S
Gd0 O25 2.717 1_554 S
Gd0 O27 2.395 1_554 S
Gd0 O31 2.327 . S
Gd1 C12 2.818 . S
Gd1 O21 2.395 1_556 S
Gd1 O25 2.327 . S
Gd1 O26 2.377 1_556 S
Gd1 O28 2.448 1_556 S
Gd1 O29 2.506 . S
Gd1 O30 2.435 1_556 S
Gd1 O31 2.717 1_556 S
C2 O20 1.240 1_554 S
C2 O21 1.240 . S
C3 Gd0 2.818 . S
C3 C4 1.510 . S
C3 O22 1.249 1_554 S
C3 O23 1.252 . S
C4 C3 1.510 . S
C4 C5 1.404 . S
C4 C6 1.352 . S
C5 C4 1.404 . S
C5 C9 1.389 . S
C5 H32 0.930 1_554 S
C6 C4 1.352 . S
C6 C8 1.374 . S
C6 H33 0.931 . S
C7 C8 1.359 . S
C7 C9 1.364 . S
C8 C6 1.374 . S
C8 C7 1.359 . S
C8 H34 0.931 . S
C9 C5 1.389 . S
C9 C7 1.364 . S
C9 H35 0.931 . S
C10 O24 1.256 . S
C10 O25 1.257 . S
C11 O26 1.240 1_556 S
C11 O27 1.240 . S
C12 Gd1 2.818 . S
C12 C13 1.510 . S
C12 O28 1.249 1_556 S
C12 O29 1.252 . S
C13 C12 1.510 . S
C13 C14 1.404 . S
C13 C15 1.352 . S
C14 C13 1.404 . S
C14 C18 1.389 . S
C14 H36 0.930 1_556 S
C15 C13 1.352 . S
C15 C17 1.374 . S
C15 H37 0.931 . S
C16 C17 1.359 . S
C16 C18 1.364 . S
C17 C15 1.374 . S
C17 C16 1.359 . S
C17 H38 0.931 . S
C18 C14 1.389 . S
C18 C16 1.364 . S
C18 H39 0.931 . S
C19 O30 1.256 . S
C19 O31 1.257 . S
O20 Gd0 2.377 1_556 S
O20 C2 1.240 1_556 S
O21 Gd1 2.395 1_554 S
O21 C2 1.240 . S
O22 Gd0 2.448 1_556 S
O22 C3 1.249 1_556 S
O23 Gd0 2.506 . S
O23 C3 1.252 . S
O24 Gd0 2.435 1_556 S
O24 C10 1.256 . S
O25 Gd0 2.717 1_556 S
O25 Gd1 2.327 . S
O25 C10 1.257 . S
O26 Gd1 2.377 1_554 S
O26 C11 1.240 1_554 S
O27 Gd0 2.395 1_556 S
O27 C11 1.240 . S
O28 Gd1 2.448 1_554 S
O28 C12 1.249 1_554 S
O29 Gd1 2.506 . S
O29 C12 1.252 . S
O30 Gd1 2.435 1_554 S
O30 C19 1.256 . S
O31 Gd0 2.327 . S
O31 Gd1 2.717 1_554 S
O31 C19 1.257 . S
H32 C5 0.930 1_556 S
H33 C6 0.931 . S
H34 C8 0.931 . S
H35 C9 0.931 . S
H36 C14 0.930 1_554 S
H37 C15 0.931 . S
H38 C17 0.931 . S
H39 C18 0.931 . S
Gd40 C43 2.818 1_556 S
Gd40 O60 2.377 . S
Gd40 O62 2.448 . S
Gd40 O63 2.506 1_556 S
Gd40 O64 2.435 . S
Gd40 O65 2.717 . S
Gd40 O67 2.395 . S
Gd40 O71 2.327 1_556 S
Gd41 C52 2.818 1_554 S
Gd41 O61 2.395 . S
Gd41 O65 2.327 1_554 S
Gd41 O66 2.377 . S
Gd41 O68 2.448 . S
Gd41 O69 2.506 1_554 S
Gd41 O70 2.435 . S
Gd41 O71 2.717 . S
C42 O60 1.240 1_554 S
C42 O61 1.240 . S
C43 Gd40 2.818 1_554 S
C43 C44 1.510 . S
C43 O62 1.249 1_554 S
C43 O63 1.252 . S
C44 C43 1.510 . S
C44 C45 1.404 1_554 S
C44 C46 1.352 . S
C45 C44 1.404 1_556 S
C45 C49 1.389 1_556 S
C45 H72 0.930 . S
C46 C44 1.352 . S
C46 C48 1.374 . S
C46 H73 0.931 . S
C47 C48 1.359 . S
C47 C49 1.364 . S
C48 C46 1.374 . S
C48 C47 1.359 . S
C48 H74 0.931 . S
C49 C45 1.389 1_554 S
C49 C47 1.364 . S
C49 H75 0.931 1_554 S
C50 O64 1.256 . S
C50 O65 1.257 . S
C51 O66 1.240 1_556 S
C51 O67 1.240 . S
C52 Gd41 2.818 1_556 S
C52 C53 1.510 . S
C52 O68 1.249 1_556 S
C52 O69 1.252 . S
C53 C52 1.510 . S
C53 C54 1.404 1_556 S
C53 C55 1.352 . S
C54 C53 1.404 1_554 S
C54 C58 1.389 1_654 S
C54 H76 0.930 . S
C55 C53 1.352 . S
C55 C57 1.374 . S
C55 H77 0.931 . S
C56 C57 1.359 1_455 S
C56 C58 1.364 . S
C57 C55 1.374 . S
C57 C56 1.359 1_655 S
C57 H78 0.931 . S
C58 C54 1.389 1_456 S
C58 C56 1.364 . S
C58 H79 0.931 1_556 S
C59 O70 1.256 . S
C59 O71 1.257 . S
O60 Gd40 2.377 . S
O60 C42 1.240 1_556 S
O61 Gd41 2.395 . S
O61 C42 1.240 . S
O62 Gd40 2.448 . S
O62 C43 1.249 1_556 S
O63 Gd40 2.506 1_554 S
O63 C43 1.252 . S
O64 Gd40 2.435 . S
O64 C50 1.256 . S
O65 Gd40 2.717 . S
O65 Gd41 2.327 1_556 S
O65 C50 1.257 . S
O66 Gd41 2.377 . S
O66 C51 1.240 1_554 S
O67 Gd40 2.395 . S
O67 C51 1.240 . S
O68 Gd41 2.448 . S
O68 C52 1.249 1_554 S
O69 Gd41 2.506 1_556 S
O69 C52 1.252 . S
O70 Gd41 2.435 . S
O70 C59 1.256 . S
O71 Gd40 2.327 1_554 S
O71 Gd41 2.717 . S
O71 C59 1.257 . S
H72 C45 0.930 . S
H73 C46 0.931 . S
H74 C48 0.931 . S
H75 C49 0.931 1_556 S
H76 C54 0.930 . S
H77 C55 0.931 . S
H78 C57 0.931 . S
H79 C58 0.931 1_554 S
Gd80 C83 2.818 . S
Gd80 O100 2.377 . S
Gd80 O102 2.448 . S
Gd80 O103 2.506 1_556 S
Gd80 O104 2.435 . S
Gd80 O105 2.717 . S
Gd80 O107 2.395 1_556 S
Gd80 O111 2.327 1_556 S
Gd81 C92 2.818 . S
Gd81 O101 2.395 1_554 S
Gd81 O105 2.327 1_554 S
Gd81 O106 2.377 . S
Gd81 O108 2.448 . S
Gd81 O109 2.506 1_554 S
Gd81 O110 2.435 . S
Gd81 O111 2.717 . S
C82 O100 1.240 . S
C82 O101 1.240 . S
C83 Gd80 2.818 . S
C83 C84 1.510 . S
C83 O102 1.249 . S
C83 O103 1.252 1_556 S
C84 C83 1.510 . S
C84 C85 1.404 . S
C84 C86 1.352 . S
C85 C84 1.404 . S
C85 C89 1.389 . S
C85 H112 0.930 . S
C86 C84 1.352 . S
C86 C88 1.374 . S
C86 H113 0.931 1_556 S
C87 C88 1.359 . S
C87 C89 1.364 . S
C88 C86 1.374 . S
C88 C87 1.359 . S
C88 H114 0.931 1_556 S
C89 C85 1.389 . S
C89 C87 1.364 . S
C89 H115 0.931 . S
C90 O104 1.256 . S
C90 O105 1.257 . S
C91 O106 1.240 . S
C91 O107 1.240 . S
C92 Gd81 2.818 . S
C92 C93 1.510 . S
C92 O108 1.249 . S
C92 O109 1.252 1_554 S
C93 C92 1.510 . S
C93 C94 1.404 . S
C93 C95 1.352 . S
C94 C93 1.404 . S
C94 C98 1.389 . S
C94 H116 0.930 . S
C95 C93 1.352 . S
C95 C97 1.374 . S
C95 H117 0.931 1_554 S
C96 C97 1.359 . S
C96 C98 1.364 . S
C97 C95 1.374 . S
C97 C96 1.359 . S
C97 H118 0.931 1_554 S
C98 C94 1.389 . S
C98 C96 1.364 . S
C98 H119 0.932 1_565 S
C99 O110 1.256 . S
C99 O111 1.257 . S
O100 Gd80 2.377 . S
O100 C82 1.240 . S
O101 Gd81 2.395 1_556 S
O101 C82 1.240 . S
O102 Gd80 2.448 . S
O102 C83 1.249 . S
O103 Gd80 2.506 1_554 S
O103 C83 1.252 1_554 S
O104 Gd80 2.435 . S
O104 C90 1.256 . S
O105 Gd80 2.717 . S
O105 Gd81 2.327 1_556 S
O105 C90 1.257 . S
O106 Gd81 2.377 . S
O106 C91 1.240 . S
O107 Gd80 2.395 1_554 S
O107 C91 1.240 . S
O108 Gd81 2.448 . S
O108 C92 1.249 . S
O109 Gd81 2.506 1_556 S
O109 C92 1.252 1_556 S
O110 Gd81 2.435 . S
O110 C99 1.256 . S
O111 Gd80 2.327 1_554 S
O111 Gd81 2.717 . S
O111 C99 1.257 . S
H112 C85 0.930 . S
H113 C86 0.931 1_554 S
H114 C88 0.931 1_554 S
H115 C89 0.931 . S
H116 C94 0.930 . S
H117 C95 0.931 1_556 S
H118 C97 0.931 1_556 S
H119 C98 0.932 1_545 S
Gd120 C123 2.818 . S
Gd120 O140 2.377 1_554 S
Gd120 O142 2.448 1_554 S
Gd120 O143 2.506 . S
Gd120 O144 2.435 1_554 S
Gd120 O145 2.717 1_554 S
Gd120 O147 2.395 1_554 S
Gd120 O151 2.327 . S
Gd121 C132 2.818 . S
Gd121 O141 2.395 1_556 S
Gd121 O145 2.327 . S
Gd121 O146 2.377 1_556 S
Gd121 O148 2.448 1_556 S
Gd121 O149 2.506 . S
Gd121 O150 2.435 1_556 S
Gd121 O151 2.717 1_556 S
C122 O140 1.240 1_554 S
C122 O141 1.240 . S
C123 Gd120 2.818 . S
C123 C124 1.510 . S
C123 O142 1.249 1_554 S
C123 O143 1.252 . S
C124 C123 1.510 . S
C124 C125 1.404 . S
C124 C126 1.352 . S
C125 C124 1.404 . S
C125 C129 1.389 . S
C125 H152 0.930 1_554 S
C126 C124 1.352 . S
C126 C128 1.374 . S
C126 H153 0.931 . S
C127 C128 1.359 . S
C127 C129 1.364 . S
C128 C126 1.374 . S
C128 C127 1.359 . S
C128 H154 0.931 . S
C129 C125 1.389 . S
C129 C127 1.364 . S
C129 H155 0.931 . S
C130 O144 1.256 . S
C130 O145 1.257 . S
C131 O146 1.240 1_556 S
C131 O147 1.240 . S
C132 Gd121 2.818 . S
C132 C133 1.510 . S
C132 O148 1.249 1_556 S
C132 O149 1.252 . S
C133 C132 1.510 . S
C133 C134 1.404 . S
C133 C135 1.352 . S
C134 C133 1.404 . S
C134 C138 1.389 . S
C134 H156 0.930 1_556 S
C135 C133 1.352 . S
C135 C137 1.374 . S
C135 H157 0.931 . S
C136 C137 1.359 . S
C136 C138 1.364 . S
C137 C135 1.374 . S
C137 C136 1.359 . S
C137 H158 0.931 . S
C138 C134 1.389 . S
C138 C136 1.364 . S
C138 H159 0.931 . S
C139 O150 1.256 . S
C139 O151 1.257 . S
O140 Gd120 2.377 1_556 S
O140 C122 1.240 1_556 S
O141 Gd121 2.395 1_554 S
O141 C122 1.240 . S
O142 Gd120 2.448 1_556 S
O142 C123 1.249 1_556 S
O143 Gd120 2.506 . S
O143 C123 1.252 . S
O144 Gd120 2.435 1_556 S
O144 C130 1.256 . S
O145 Gd120 2.717 1_556 S
O145 Gd121 2.327 . S
O145 C130 1.257 . S
O146 Gd121 2.377 1_554 S
O146 C131 1.240 1_554 S
O147 Gd120 2.395 1_556 S
O147 C131 1.240 . S
O148 Gd121 2.448 1_554 S
O148 C132 1.249 1_554 S
O149 Gd121 2.506 . S
O149 C132 1.252 . S
O150 Gd121 2.435 1_554 S
O150 C139 1.256 . S
O151 Gd120 2.327 . S
O151 Gd121 2.717 1_554 S
O151 C139 1.257 . S
H152 C125 0.930 1_556 S
H153 C126 0.931 . S
H154 C128 0.931 . S
H155 C129 0.931 . S
H156 C134 0.930 1_554 S
H157 C135 0.931 . S
H158 C137 0.931 . S
H159 C138 0.931 . S
Gd160 C163 2.818 1_556 S
Gd160 O180 2.377 . S
Gd160 O182 2.448 . S
Gd160 O183 2.506 1_556 S
Gd160 O184 2.435 . S
Gd160 O185 2.717 . S
Gd160 O187 2.395 . S
Gd160 O191 2.327 1_556 S
Gd161 C172 2.818 1_554 S
Gd161 O181 2.395 . S
Gd161 O185 2.327 1_554 S
Gd161 O186 2.377 . S
Gd161 O188 2.448 . S
Gd161 O189 2.506 1_554 S
Gd161 O190 2.435 . S
Gd161 O191 2.717 . S
C162 O180 1.240 1_554 S
C162 O181 1.240 . S
C163 Gd160 2.818 1_554 S
C163 C164 1.510 . S
C163 O182 1.249 1_554 S
C163 O183 1.252 . S
C164 C163 1.510 . S
C164 C165 1.404 1_554 S
C164 C166 1.352 . S
C165 C164 1.404 1_556 S
C165 C169 1.389 1_456 S
C165 H192 0.930 . S
C166 C164 1.352 . S
C166 C168 1.374 . S
C166 H193 0.931 . S
C167 C168 1.359 1_655 S
C167 C169 1.364 . S
C168 C166 1.374 . S
C168 C167 1.359 1_455 S
C168 H194 0.931 . S
C169 C165 1.389 1_654 S
C169 C167 1.364 . S
C169 H195 0.931 1_554 S
C170 O184 1.256 . S
C170 O185 1.257 . S
C171 O186 1.240 1_556 S
C171 O187 1.240 . S
C172 Gd161 2.818 1_556 S
C172 C173 1.510 . S
C172 O188 1.249 1_556 S
C172 O189 1.252 . S
C173 C172 1.510 . S
C173 C174 1.404 1_556 S
C173 C175 1.352 . S
C174 C173 1.404 1_554 S
C174 C178 1.389 1_554 S
C174 H196 0.930 . S
C175 C173 1.352 . S
C175 C177 1.374 . S
C175 H197 0.931 . S
C176 C177 1.359 . S
C176 C178 1.364 . S
C177 C175 1.374 . S
C177 C176 1.359 . S
C177 H198 0.931 . S
C178 C174 1.389 1_556 S
C178 C176 1.364 . S
C178 H199 0.931 1_556 S
C179 O190 1.256 . S
C179 O191 1.257 . S
O180 Gd160 2.377 . S
O180 C162 1.240 1_556 S
O181 Gd161 2.395 . S
O181 C162 1.240 . S
O182 Gd160 2.448 . S
O182 C163 1.249 1_556 S
O183 Gd160 2.506 1_554 S
O183 C163 1.252 . S
O184 Gd160 2.435 . S
O184 C170 1.256 . S
O185 Gd160 2.717 . S
O185 Gd161 2.327 1_556 S
O185 C170 1.257 . S
O186 Gd161 2.377 . S
O186 C171 1.240 1_554 S
O187 Gd160 2.395 . S
O187 C171 1.240 . S
O188 Gd161 2.448 . S
O188 C172 1.249 1_554 S
O189 Gd161 2.506 1_556 S
O189 C172 1.252 . S
O190 Gd161 2.435 . S
O190 C179 1.256 . S
O191 Gd160 2.327 1_554 S
O191 Gd161 2.717 . S
O191 C179 1.257 . S
H192 C165 0.930 . S
H193 C166 0.931 . S
H194 C168 0.931 . S
H195 C169 0.931 1_556 S
H196 C174 0.930 . S
H197 C175 0.931 . S
H198 C177 0.931 . S
H199 C178 0.931 1_554 S
Gd200 C203 2.818 . S
Gd200 O220 2.377 . S
Gd200 O222 2.448 . S
Gd200 O223 2.506 1_556 S
Gd200 O224 2.435 . S
Gd200 O225 2.717 . S
Gd200 O227 2.395 1_556 S
Gd200 O231 2.327 1_556 S
Gd201 C212 2.818 . S
Gd201 O221 2.395 1_554 S
Gd201 O225 2.327 1_554 S
Gd201 O226 2.377 . S
Gd201 O228 2.448 . S
Gd201 O229 2.506 1_554 S
Gd201 O230 2.435 . S
Gd201 O231 2.717 . S
C202 O220 1.240 . S
C202 O221 1.240 . S
C203 Gd200 2.818 . S
C203 C204 1.510 . S
C203 O222 1.249 . S
C203 O223 1.252 1_556 S
C204 C203 1.510 . S
C204 C205 1.404 . S
C204 C206 1.352 . S
C205 C204 1.404 . S
C205 C209 1.389 . S
C205 H232 0.930 . S
C206 C204 1.352 . S
C206 C208 1.374 . S
C206 H233 0.931 1_556 S
C207 C208 1.359 . S
C207 C209 1.364 . S
C208 C206 1.374 . S
C208 C207 1.359 . S
C208 H234 0.931 1_556 S
C209 C205 1.389 . S
C209 C207 1.364 . S
C209 H235 0.932 1_545 S
C210 O224 1.256 . S
C210 O225 1.257 . S
C211 O226 1.240 . S
C211 O227 1.240 . S
C212 Gd201 2.818 . S
C212 C213 1.510 . S
C212 O228 1.249 . S
C212 O229 1.252 1_554 S
C213 C212 1.510 . S
C213 C214 1.404 . S
C213 C215 1.352 . S
C214 C213 1.404 . S
C214 C218 1.389 . S
C214 H236 0.930 . S
C215 C213 1.352 . S
C215 C217 1.374 . S
C215 H237 0.931 1_554 S
C216 C217 1.359 . S
C216 C218 1.364 . S
C217 C215 1.374 . S
C217 C216 1.359 . S
C217 H238 0.931 1_554 S
C218 C214 1.389 . S
C218 C216 1.364 . S
C218 H239 0.931 . S
C219 O230 1.256 . S
C219 O231 1.257 . S
O220 Gd200 2.377 . S
O220 C202 1.240 . S
O221 Gd201 2.395 1_556 S
O221 C202 1.240 . S
O222 Gd200 2.448 . S
O222 C203 1.249 . S
O223 Gd200 2.506 1_554 S
O223 C203 1.252 1_554 S
O224 Gd200 2.435 . S
O224 C210 1.256 . S
O225 Gd200 2.717 . S
O225 Gd201 2.327 1_556 S
O225 C210 1.257 . S
O226 Gd201 2.377 . S
O226 C211 1.240 . S
O227 Gd200 2.395 1_554 S
O227 C211 1.240 . S
O228 Gd201 2.448 . S
O228 C212 1.249 . S
O229 Gd201 2.506 1_556 S
O229 C212 1.252 1_556 S
O230 Gd201 2.435 . S
O230 C219 1.256 . S
O231 Gd200 2.327 1_554 S
O231 Gd201 2.717 . S
O231 C219 1.257 . S
H232 C205 0.930 . S
H233 C206 0.931 1_554 S
H234 C208 0.931 1_554 S
H235 C209 0.932 1_565 S
H236 C214 0.930 . S
H237 C215 0.931 1_556 S
H238 C217 0.931 1_556 S
H239 C218 0.931 . S
C240 C241 1.363 . S
C240 C246 1.379 . S
C240 N248 1.356 . S
C241 C240 1.363 . S
C241 C247 1.363 . S
C242 C243 1.363 . S
C242 C247 1.379 . S
C242 N249 1.356 . S
C243 C242 1.363 . S
C243 C246 1.363 . S
N244 C246 1.356 . S
N244 H256 0.984 . S
N244 H257 0.985 . S
N245 C247 1.356 . S
N245 H250 0.984 . S
N245 H251 0.985 . S
C246 C240 1.379 . S
C246 C243 1.363 . S
C246 N244 1.356 . S
C247 C241 1.363 . S
C247 C242 1.379 . S
C247 N245 1.356 . S
N248 C240 1.356 . S
N248 H254 0.984 . S
N248 H255 0.984 . S
N249 C242 1.356 . S
N249 H252 0.984 . S
N249 H253 0.985 . S
H250 N245 0.984 . S
H251 N245 0.985 . S
H252 N249 0.984 . S
H253 N249 0.985 . S
H254 N248 0.984 . S
H255 N248 0.984 . S
H256 N244 0.984 . S
H257 N244 0.985 . S
C258 C259 1.363 . S
C258 C264 1.379 . S
C258 N266 1.356 . S
C259 C258 1.363 . S
C259 C265 1.363 . S
C260 C261 1.363 . S
C260 C265 1.379 . S
C260 N267 1.356 . S
C261 C260 1.363 . S
C261 C264 1.363 . S
N262 C264 1.356 1_655 S
N262 H274 0.984 . S
N262 H275 0.985 . S
N263 C265 1.356 . S
N263 H268 0.984 . S
N263 H269 0.985 . S
C264 C258 1.379 . S
C264 C261 1.363 . S
C264 N262 1.356 1_455 S
C265 C259 1.363 . S
C265 C260 1.379 . S
C265 N263 1.356 . S
N266 C258 1.356 . S
N266 H272 0.984 1_455 S
N266 H273 0.984 . S
N267 C260 1.356 . S
N267 H270 0.984 . S
N267 H271 0.985 . S
H268 N263 0.984 . S
H269 N263 0.985 . S
H270 N267 0.984 . S
H271 N267 0.985 . S
H272 N266 0.984 1_655 S
H273 N266 0.984 . S
H274 N262 0.984 . S
H275 N262 0.985 . S
C276 C277 1.363 . S
C276 C282 1.379 . S
C276 N284 1.356 . S
C277 C276 1.363 . S
C277 C283 1.363 . S
C278 C279 1.363 . S
C278 C283 1.379 . S
C278 N285 1.356 . S
C279 C278 1.363 . S
C279 C282 1.363 . S
N280 C282 1.356 . S
N280 H292 0.984 1_545 S
N280 H293 0.985 1_545 S
N281 C283 1.356 . S
N281 H286 0.984 . S
N281 H287 0.985 . S
C282 C276 1.379 . S
C282 C279 1.363 . S
C282 N280 1.356 . S
C283 C277 1.363 . S
C283 C278 1.379 . S
C283 N281 1.356 . S
N284 C276 1.356 . S
N284 H290 0.984 . S
N284 H291 0.984 . S
N285 C278 1.356 . S
N285 H288 0.984 . S
N285 H289 0.985 . S
H286 N281 0.984 . S
H287 N281 0.985 . S
H288 N285 0.984 . S
H289 N285 0.985 . S
H290 N284 0.984 . S
H291 N284 0.984 . S
H292 N280 0.984 1_565 S
H293 N280 0.985 1_565 S
C294 C295 1.363 . S
C294 C300 1.379 . S
C294 N302 1.356 . S
C295 C294 1.363 . S
C295 C301 1.363 . S
C296 C297 1.363 . S
C296 C301 1.379 . S
C296 N303 1.356 . S
C297 C296 1.363 . S
C297 C300 1.363 . S
N298 C300 1.356 . S
N298 H310 0.984 . S
N298 H311 0.985 . S
N299 C301 1.356 . S
N299 H304 0.984 . S
N299 H305 0.985 . S
C300 C294 1.379 . S
C300 C297 1.363 . S
C300 N298 1.356 . S
C301 C295 1.363 . S
C301 C296 1.379 . S
C301 N299 1.356 . S
N302 C294 1.356 . S
N302 H308 0.984 . S
N302 H309 0.984 . S
N303 C296 1.356 . S
N303 H306 0.984 . S
N303 H307 0.985 . S
H304 N299 0.984 . S
H305 N299 0.985 . S
H306 N303 0.984 . S
H307 N303 0.985 . S
H308 N302 0.984 . S
H309 N302 0.984 . S
H310 N298 0.984 . S
H311 N298 0.985 . S
C312 C313 1.363 . S
C312 C318 1.379 . S
C312 N320 1.356 . S
C313 C312 1.363 . S
C313 C319 1.363 . S
C314 C315 1.363 . S
C314 C319 1.379 . S
C314 N321 1.356 . S
C315 C314 1.363 . S
C315 C318 1.363 . S
N316 C318 1.356 . S
N316 H328 0.984 . S
N316 H329 0.985 . S
N317 C319 1.356 . S
N317 H322 0.984 . S
N317 H323 0.985 . S
C318 C312 1.379 . S
C318 C315 1.363 . S
C318 N316 1.356 . S
C319 C313 1.363 . S
C319 C314 1.379 . S
C319 N317 1.356 . S
N320 C312 1.356 . S
N320 H326 0.984 . S
N320 H327 0.984 . S
N321 C314 1.356 . S
N321 H324 0.984 . S
N321 H325 0.985 . S
H322 N317 0.984 . S
H323 N317 0.985 . S
H324 N321 0.984 . S
H325 N321 0.985 . S
H326 N320 0.984 . S
H327 N320 0.984 . S
H328 N316 0.984 . S
H329 N316 0.985 . S
C330 C331 1.363 . S
C330 C336 1.379 . S
C330 N338 1.356 . S
C331 C330 1.363 . S
C331 C337 1.363 . S
C332 C333 1.363 . S
C332 C337 1.379 . S
C332 N339 1.356 . S
C333 C332 1.363 . S
C333 C336 1.363 . S
N334 C336 1.356 1_545 S
N334 H346 0.984 . S
N334 H347 0.985 . S
N335 C337 1.356 . S
N335 H340 0.984 . S
N335 H341 0.985 . S
C336 C330 1.379 . S
C336 C333 1.363 . S
C336 N334 1.356 1_565 S
C337 C331 1.363 . S
C337 C332 1.379 . S
C337 N335 1.356 . S
N338 C330 1.356 . S
N338 H344 0.984 . S
N338 H345 0.984 . S
N339 C332 1.356 . S
N339 H342 0.984 . S
N339 H343 0.985 . S
H340 N335 0.984 . S
H341 N335 0.985 . S
H342 N339 0.984 . S
H343 N339 0.985 . S
H344 N338 0.984 . S
H345 N338 0.984 . S
H346 N334 0.984 . S
H347 N334 0.985 . S
C348 C349 1.363 . S
C348 C354 1.379 . S
C348 N356 1.356 . S
C349 C348 1.363 . S
C349 C355 1.363 . S
C350 C351 1.363 . S
C350 C355 1.379 . S
C350 N357 1.356 . S
C351 C350 1.363 . S
C351 C354 1.363 . S
N352 C354 1.356 . S
N352 H364 0.984 . S
N352 H365 0.985 . S
N353 C355 1.356 1_554 S
N353 H358 0.984 . S
N353 H359 0.985 . S
C354 C348 1.379 . S
C354 C351 1.363 . S
C354 N352 1.356 . S
C355 C349 1.363 . S
C355 C350 1.379 . S
C355 N353 1.356 1_556 S
N356 C348 1.356 . S
N356 H362 0.984 . S
N356 H363 0.984 . S
N357 C350 1.356 . S
N357 H360 0.984 . S
N357 H361 0.985 1_556 S
H358 N353 0.984 . S
H359 N353 0.985 . S
H360 N357 0.984 . S
H361 N357 0.985 1_554 S
H362 N356 0.984 . S
H363 N356 0.984 . S
H364 N352 0.984 . S
H365 N352 0.985 . S
C366 C367 1.363 1_556 S
C366 C372 1.379 1_556 S
C366 N374 1.356 . S
C367 C366 1.363 1_554 S
C367 C373 1.363 . S
C368 C369 1.363 . S
C368 C373 1.379 . S
C368 N375 1.356 . S
C369 C368 1.363 . S
C369 C372 1.363 . S
N370 C372 1.356 1_556 S
N370 H382 0.984 . S
N370 H383 0.985 . S
N371 C373 1.356 . S
N371 H376 0.984 . S
N371 H377 0.985 . S
C372 C366 1.379 1_554 S
C372 C369 1.363 . S
C372 N370 1.356 1_554 S
C373 C367 1.363 . S
C373 C368 1.379 . S
C373 N371 1.356 . S
N374 C366 1.356 . S
N374 H380 0.984 . S
N374 H381 0.984 . S
N375 C368 1.356 . S
N375 H378 0.984 . S
N375 H379 0.985 . S
H376 N371 0.984 . S
H377 N371 0.985 . S
H378 N375 0.984 . S
H379 N375 0.985 . S
H380 N374 0.984 . S
H381 N374 0.984 . S
H382 N370 0.984 . S
H383 N370 0.985 . S
C384 C385 1.363 . S
C384 C390 1.379 . S
C384 N392 1.356 . S
C385 C384 1.363 . S
C385 C391 1.363 . S
C386 C387 1.363 1_554 S
C386 C391 1.379 1_554 S
C386 N393 1.356 . S
C387 C386 1.363 1_556 S
C387 C390 1.363 . S
N388 C390 1.356 . S
N388 H400 0.984 . S
N388 H401 0.985 . S
N389 C391 1.356 1_554 S
N389 H394 0.984 1_554 S
N389 H395 0.985 . S
C390 C384 1.379 . S
C390 C387 1.363 . S
C390 N388 1.356 . S
C391 C385 1.363 . S
C391 C386 1.379 1_556 S
C391 N389 1.356 1_556 S
N392 C384 1.356 . S
N392 H398 0.984 . S
N392 H399 0.984 . S
N393 C386 1.356 . S
N393 H396 0.984 . S
N393 H397 0.985 . S
H394 N389 0.984 1_556 S
H395 N389 0.985 . S
H396 N393 0.984 . S
H397 N393 0.985 . S
H398 N392 0.984 . S
H399 N392 0.984 . S
H400 N388 0.984 . S
H401 N388 0.985 . S
C402 C403 1.363 . S
C402 C408 1.379 . S
C402 N410 1.356 1_554 S
C403 C402 1.363 . S
C403 C409 1.363 . S
C404 C405 1.363 . S
C404 C409 1.379 . S
C404 N411 1.356 . S
C405 C404 1.363 . S
C405 C408 1.363 . S
N406 C408 1.356 1_556 S
N406 H418 0.984 . S
N406 H419 0.985 . S
N407 C409 1.356 . S
N407 H412 0.984 . S
N407 H413 0.985 . S
C408 C402 1.379 . S
C408 C405 1.363 . S
C408 N406 1.356 1_554 S
C409 C403 1.363 . S
C409 C404 1.379 . S
C409 N407 1.356 . S
N410 C402 1.356 1_556 S
N410 H416 0.984 . S
N410 H417 0.984 1_556 S
N411 C404 1.356 . S
N411 H414 0.984 . S
N411 H415 0.985 . S
H412 N407 0.984 . S
H413 N407 0.985 . S
H414 N411 0.984 . S
H415 N411 0.985 . S
H416 N410 0.984 . S
H417 N410 0.984 1_554 S
H418 N406 0.984 . S
H419 N406 0.985 . S
C420 C421 1.363 . S
C420 C426 1.379 . S
C420 N428 1.356 . S
C421 C420 1.363 . S
C421 C427 1.363 1_556 S
C422 C423 1.363 1_554 S
C422 C427 1.379 . S
C422 N429 1.356 . S
C423 C422 1.363 1_556 S
C423 C426 1.363 . S
N424 C426 1.356 . S
N424 H436 0.984 . S
N424 H437 0.985 . S
N425 C427 1.356 . S
N425 H430 0.984 . S
N425 H431 0.985 . S
C426 C420 1.379 . S
C426 C423 1.363 . S
C426 N424 1.356 . S
C427 C421 1.363 1_554 S
C427 C422 1.379 . S
C427 N425 1.356 . S
N428 C420 1.356 . S
N428 H434 0.984 . S
N428 H435 0.984 . S
N429 C422 1.356 . S
N429 H432 0.984 . S
N429 H433 0.985 . S
H430 N425 0.984 . S
H431 N425 0.985 . S
H432 N429 0.984 . S
H433 N429 0.985 . S
H434 N428 0.984 . S
H435 N428 0.984 . S
H436 N424 0.984 . S
H437 N424 0.985 . S
C438 C439 1.363 . S
C438 C444 1.379 . S
C438 N446 1.356 . S
C439 C438 1.363 . S
C439 C445 1.363 1_554 S
C440 C441 1.363 . S
C440 C445 1.379 1_554 S
C440 N447 1.356 1_554 S
C441 C440 1.363 . S
C441 C444 1.363 . S
N442 C444 1.356 . S
N442 H454 0.984 . S
N442 H455 0.985 . S
N443 C445 1.356 . S
N443 H448 0.984 . S
N443 H449 0.985 . S
C444 C438 1.379 . S
C444 C441 1.363 . S
C444 N442 1.356 . S
C445 C439 1.363 1_556 S
C445 C440 1.379 1_556 S
C445 N443 1.356 . S
N446 C438 1.356 . S
N446 H452 0.984 . S
N446 H453 0.984 . S
N447 C440 1.356 1_556 S
N447 H450 0.984 1_556 S
N447 H451 0.985 . S
H448 N443 0.984 . S
H449 N443 0.985 . S
H450 N447 0.984 1_554 S
H451 N447 0.985 . S
H452 N446 0.984 . S
H453 N446 0.984 . S
H454 N442 0.984 . S
H455 N442 0.985 . S
C456 C457 1.363 . S
C456 C462 1.379 . S
C456 N464 1.356 . S
C457 C456 1.363 . S
C457 C463 1.363 . S
C458 C459 1.363 . S
C458 C463 1.379 . S
C458 N465 1.356 . S
C459 C458 1.363 . S
C459 C462 1.363 . S
N460 C462 1.356 . S
N460 H472 0.984 . S
N460 H473 0.985 . S
N461 C463 1.356 . S
N461 H466 0.984 . S
N461 H467 0.985 . S
C462 C456 1.379 . S
C462 C459 1.363 . S
C462 N460 1.356 . S
C463 C457 1.363 . S
C463 C458 1.379 . S
C463 N461 1.356 . S
N464 C456 1.356 . S
N464 H470 0.984 . S
N464 H471 0.984 . S
N465 C458 1.356 . S
N465 H468 0.984 . S
N465 H469 0.985 . S
H466 N461 0.984 . S
H467 N461 0.985 . S
H468 N465 0.984 . S
H469 N465 0.985 . S
H470 N464 0.984 . S
H471 N464 0.984 . S
H472 N460 0.984 . S
H473 N460 0.985 . S
C474 C475 1.363 . S
C474 C480 1.379 . S
C474 N482 1.356 . S
C475 C474 1.363 . S
C475 C481 1.363 . S
C476 C477 1.363 . S
C476 C481 1.379 . S
C476 N483 1.356 . S
C477 C476 1.363 . S
C477 C480 1.363 . S
N478 C480 1.356 . S
N478 H490 0.984 . S
N478 H491 0.985 . S
N479 C481 1.356 . S
N479 H484 0.984 . S
N479 H485 0.985 . S
C480 C474 1.379 . S
C480 C477 1.363 . S
C480 N478 1.356 . S
C481 C475 1.363 . S
C481 C476 1.379 . S
C481 N479 1.356 . S
N482 C474 1.356 . S
N482 H488 0.984 . S
N482 H489 0.984 . S
N483 C476 1.356 . S
N483 H486 0.984 . S
N483 H487 0.985 . S
H484 N479 0.984 . S
H485 N479 0.985 . S
H486 N483 0.984 . S
H487 N483 0.985 . S
H488 N482 0.984 . S
H489 N482 0.984 . S
H490 N478 0.984 . S
H491 N478 0.985 . S
C492 C493 1.363 . S
C492 C498 1.379 . S
C492 N500 1.356 . S
C493 C492 1.363 . S
C493 C499 1.363 . S
C494 C495 1.363 . S
C494 C499 1.379 . S
C494 N501 1.356 . S
C495 C494 1.363 . S
C495 C498 1.363 . S
N496 C498 1.356 . S
N496 H508 0.984 . S
N496 H509 0.985 . S
N497 C499 1.356 . S
N497 H502 0.984 . S
N497 H503 0.985 . S
C498 C492 1.379 . S
C498 C495 1.363 . S
C498 N496 1.356 . S
C499 C493 1.363 . S
C499 C494 1.379 . S
C499 N497 1.356 . S
N500 C492 1.356 . S
N500 H506 0.984 . S
N500 H507 0.984 . S
N501 C494 1.356 . S
N501 H504 0.984 . S
N501 H505 0.985 . S
H502 N497 0.984 . S
H503 N497 0.985 . S
H504 N501 0.984 . S
H505 N501 0.985 . S
H506 N500 0.984 . S
H507 N500 0.984 . S
H508 N496 0.984 . S
H509 N496 0.985 . S
C510 C511 1.363 . S
C510 C516 1.379 . S
C510 N518 1.356 . S
C511 C510 1.363 . S
C511 C517 1.363 . S
C512 C513 1.363 . S
C512 C517 1.379 . S
C512 N519 1.356 . S
C513 C512 1.363 . S
C513 C516 1.363 . S
N514 C516 1.356 . S
N514 H526 0.984 . S
N514 H527 0.985 . S
N515 C517 1.356 . S
N515 H520 0.984 . S
N515 H521 0.985 . S
C516 C510 1.379 . S
C516 C513 1.363 . S
C516 N514 1.356 . S
C517 C511 1.363 . S
C517 C512 1.379 . S
C517 N515 1.356 . S
N518 C510 1.356 . S
N518 H524 0.984 . S
N518 H525 0.984 . S
N519 C512 1.356 . S
N519 H522 0.984 . S
N519 H523 0.985 . S
H520 N515 0.984 . S
H521 N515 0.985 . S
H522 N519 0.984 . S
H523 N519 0.985 . S
H524 N518 0.984 . S
H525 N518 0.984 . S
H526 N514 0.984 . S
H527 N514 0.985 . S
C528 C529 1.363 . S
C528 C534 1.379 . S
C528 N536 1.356 . S
C529 C528 1.363 . S
C529 C535 1.363 . S
C530 C531 1.363 . S
C530 C535 1.379 . S
C530 N537 1.356 . S
C531 C530 1.363 . S
C531 C534 1.363 . S
N532 C534 1.356 . S
N532 H544 0.984 . S
N532 H545 0.985 . S
N533 C535 1.356 . S
N533 H538 0.984 . S
N533 H539 0.985 . S
C534 C528 1.379 . S
C534 C531 1.363 . S
C534 N532 1.356 . S
C535 C529 1.363 . S
C535 C530 1.379 . S
C535 N533 1.356 . S
N536 C528 1.356 . S
N536 H542 0.984 . S
N536 H543 0.984 . S
N537 C530 1.356 . S
N537 H540 0.984 . S
N537 H541 0.985 . S
H538 N533 0.984 . S
H539 N533 0.985 . S
H540 N537 0.984 . S
H541 N537 0.985 . S
H542 N536 0.984 . S
H543 N536 0.984 . S
H544 N532 0.984 . S
H545 N532 0.985 . S
C546 C547 1.363 . S
C546 C552 1.379 . S
C546 N554 1.356 . S
C547 C546 1.363 . S
C547 C553 1.363 . S
C548 C549 1.363 . S
C548 C553 1.379 . S
C548 N555 1.356 . S
C549 C548 1.363 . S
C549 C552 1.363 . S
N550 C552 1.356 . S
N550 H562 0.984 . S
N550 H563 0.985 . S
N551 C553 1.356 . S
N551 H556 0.984 . S
N551 H557 0.985 . S
C552 C546 1.379 . S
C552 C549 1.363 . S
C552 N550 1.356 . S
C553 C547 1.363 . S
C553 C548 1.379 . S
C553 N551 1.356 . S
N554 C546 1.356 . S
N554 H560 0.984 . S
N554 H561 0.984 . S
N555 C548 1.356 . S
N555 H558 0.984 . S
N555 H559 0.985 . S
H556 N551 0.984 . S
H557 N551 0.985 . S
H558 N555 0.984 . S
H559 N555 0.985 . S
H560 N554 0.984 . S
H561 N554 0.984 . S
H562 N550 0.984 . S
H563 N550 0.985 . S
C241 C202 3.223 . S
C243 C7 2.966 . S
C259 C2 3.492 . S
C261 C56 3.128 . S
C277 C51 3.321 . S
C279 C96 3.017 1_545 S
C295 C136 2.967 . S
C297 C91 3.222 . S
C313 C167 3.129 . S
C315 C131 3.491 . S
C331 C162 3.321 . S
C333 C207 3.017 1_565 S
C349 C171 2.157 . S
C351 C16 2.116 . S
C367 C211 2.018 . S
C369 C47 1.991 . S
C385 C87 1.996 . S
C387 C11 2.044 . S
C403 C127 2.116 . S
C405 C42 2.157 . S
C421 C176 1.991 . S
C423 C82 2.018 . S
C439 C122 2.044 . S
C441 C216 1.996 . S
C457 C10 0.887 . S
C459 C19 0.887 . S
C475 C50 0.842 . S
C477 C59 0.842 . S
C493 C90 0.823 . S
C495 C99 0.823 . S
C511 C130 0.887 . S
C513 C139 0.887 . S
C529 C179 0.842 . S
C531 C170 0.842 . S
C547 C210 0.823 . S
C549 C219 0.823 . S
