# Generated by pormake.
# Topology umz, (4)-cn, num edge types: 1
# Building blocks:
#     Node 0, Type 0, BuildingBlock: QUQFOY_clean_sbu_3, # of connection points: 4
#     Node 1, Type 0, BuildingBlock: QUQFOY_clean_sbu_3, # of connection points: 4
#     Node 2, Type 0, BuildingBlock: QUQFOY_clean_sbu_3, # of connection points: 4
#     Node 3, Type 0, BuildingBlock: QUQFOY_clean_sbu_3, # of connection points: 4
#     Node 4, Type 0, BuildingBlock: QUQFOY_clean_sbu_3, # of connection points: 4
#     Node 5, Type 0, BuildingBlock: QUQFOY_clean_sbu_3, # of connection points: 4
#     Node 6, Type 0, BuildingBlock: QUQFOY_clean_sbu_3, # of connection points: 4
#     Node 7, Type 0, BuildingBlock: QUQFOY_clean_sbu_3, # of connection points: 4
#     Node 8, Type 0, BuildingBlock: QUQFOY_clean_sbu_3, # of connection points: 4
#     Node 9, Type 0, BuildingBlock: QUQFOY_clean_sbu_3, # of connection points: 4
#     Node 10, Type 0, BuildingBlock: QUQFOY_clean_sbu_3, # of connection points: 4
#     Node 11, Type 0, BuildingBlock: QUQFOY_clean_sbu_3, # of connection points: 4
#     Node 12, Type 0, BuildingBlock: QUQFOY_clean_sbu_3, # of connection points: 4
#     Node 13, Type 0, BuildingBlock: QUQFOY_clean_sbu_3, # of connection points: 4
#     Node 14, Type 0, BuildingBlock: QUQFOY_clean_sbu_3, # of connection points: 4
#     Node 15, Type 0, BuildingBlock: QUQFOY_clean_sbu_3, # of connection points: 4
#     Edge 16, Type (0, 0), BuildingBlock: OJICUG_clean_linker_0, # of connection points: 2
#     Edge 17, Type (0, 0), BuildingBlock: OJICUG_clean_linker_0, # of connection points: 2
#     Edge 18, Type (0, 0), BuildingBlock: OJICUG_clean_linker_0, # of connection points: 2
#     Edge 19, Type (0, 0), BuildingBlock: OJICUG_clean_linker_0, # of connection points: 2
#     Edge 20, Type (0, 0), BuildingBlock: OJICUG_clean_linker_0, # of connection points: 2
#     Edge 21, Type (0, 0), BuildingBlock: OJICUG_clean_linker_0, # of connection points: 2
#     Edge 22, Type (0, 0), BuildingBlock: OJICUG_clean_linker_0, # of connection points: 2
#     Edge 23, Type (0, 0), BuildingBlock: OJICUG_clean_linker_0, # of connection points: 2
#     Edge 24, Type (0, 0), BuildingBlock: OJICUG_clean_linker_0, # of connection points: 2
#     Edge 25, Type (0, 0), BuildingBlock: OJICUG_clean_linker_0, # of connection points: 2
#     Edge 26, Type (0, 0), BuildingBlock: OJICUG_clean_linker_0, # of connection points: 2
#     Edge 27, Type (0, 0), BuildingBlock: OJICUG_clean_linker_0, # of connection points: 2
#     Edge 28, Type (0, 0), BuildingBlock: OJICUG_clean_linker_0, # of connection points: 2
#     Edge 29, Type (0, 0), BuildingBlock: OJICUG_clean_linker_0, # of connection points: 2
#     Edge 30, Type (0, 0), BuildingBlock: OJICUG_clean_linker_0, # of connection points: 2
#     Edge 31, Type (0, 0), BuildingBlock: OJICUG_clean_linker_0, # of connection points: 2
#     Edge 32, Type (0, 0), BuildingBlock: OJICUG_clean_linker_0, # of connection points: 2
#     Edge 33, Type (0, 0), BuildingBlock: OJICUG_clean_linker_0, # of connection points: 2
#     Edge 34, Type (0, 0), BuildingBlock: OJICUG_clean_linker_0, # of connection points: 2
#     Edge 35, Type (0, 0), BuildingBlock: OJICUG_clean_linker_0, # of connection points: 2
#     Edge 36, Type (0, 0), BuildingBlock: OJICUG_clean_linker_0, # of connection points: 2
#     Edge 37, Type (0, 0), BuildingBlock: OJICUG_clean_linker_0, # of connection points: 2
#     Edge 38, Type (0, 0), BuildingBlock: OJICUG_clean_linker_0, # of connection points: 2
#     Edge 39, Type (0, 0), BuildingBlock: OJICUG_clean_linker_0, # of connection points: 2
#     Edge 40, Type (0, 0), BuildingBlock: OJICUG_clean_linker_0, # of connection points: 2
#     Edge 41, Type (0, 0), BuildingBlock: OJICUG_clean_linker_0, # of connection points: 2
#     Edge 42, Type (0, 0), BuildingBlock: OJICUG_clean_linker_0, # of connection points: 2
#     Edge 43, Type (0, 0), BuildingBlock: OJICUG_clean_linker_0, # of connection points: 2
#     Edge 44, Type (0, 0), BuildingBlock: OJICUG_clean_linker_0, # of connection points: 2
#     Edge 45, Type (0, 0), BuildingBlock: OJICUG_clean_linker_0, # of connection points: 2
#     Edge 46, Type (0, 0), BuildingBlock: OJICUG_clean_linker_0, # of connection points: 2
#     Edge 47, Type (0, 0), BuildingBlock: OJICUG_clean_linker_0, # of connection points: 2
# Relax obj value: 0.248
# Max RMSD: 0.163
# Mean RMSD: 0.163
data_MOF--net-umz--node1-QUQFOY_clean_sbu_3--edge1-OJICUG_clean_linker_0
_symmetry_space_group_name_H-M    P1
_symmetry_Int_Tables_number       1
_symmetry_cell_setting            triclinic
loop_
_symmetry_equiv_pos_as_xyz
'x, y, z'
_cell_length_a     44.615857
_cell_length_b     44.544384
_cell_length_c     16.601798
_cell_angle_alpha  89.917874
_cell_angle_beta   89.888758
_cell_angle_gamma 90.029958
loop_
_atom_site_label
_atom_site_type_symbol
_atom_site_fract_x
_atom_site_fract_y
_atom_site_fract_z
_atom_type_partial_charge
C0 C 0.93765 0.58119 0.08589 0.0
O1 O 0.93333 0.56092 0.03332 0.0
Cd2 Cd 0.96982 0.55208 0.92693 0.0
O3 O 0.958 0.60075 0.07525 0.0
Cd4 Cd -0.00519 0.61712 0.97513 0.0
C5 C 0.03078 0.55625 0.05176 0.0
O6 O 0.98059 0.59548 0.8452 0.0
O7 O 0.0264 0.61064 0.86167 0.0
O8 O 0.97161 0.66611 0.97035 0.0
C9 C 0.0068 0.59918 0.81586 0.0
O10 O 0.01348 0.53985 0.0095 0.0
C11 C -0.00489 0.68044 0.99022 0.0
O12 O 0.02826 0.58479 0.0517 0.0
O13 O 0.01861 0.66512 0.00424 0.0
C14 C 0.90553 0.93713 0.58176 0.0
O15 O 0.92585 0.93169 0.53001 0.0
Cd16 Cd 0.93678 0.96762 0.4233 0.0
O17 O 0.88703 0.95831 0.56982 0.0
Cd18 Cd 0.87294 -0.0047 0.46806 0.0
C19 C 0.93458 0.02915 0.54656 0.0
O20 O 0.89483 0.98031 0.3387 0.0
O21 O 0.88138 0.02674 0.35548 0.0
O22 O 0.82351 0.97338 0.46077 0.0
C23 C 0.8923 0.00675 0.30973 0.0
O24 O 0.95046 0.01105 0.50516 0.0
C25 C 0.80965 -0.00278 0.48028 0.0
O26 O 0.90599 0.02775 0.54562 0.0
O27 O 0.82541 0.02039 0.49508 0.0
C28 C 0.54958 0.90764 0.084 0.0
O29 O 0.55384 0.92789 0.03116 0.0
Cd30 Cd 0.51723 0.93668 0.92535 0.0
O31 O 0.52923 0.88806 0.07388 0.0
Cd32 Cd 0.49236 0.87159 0.97457 0.0
C33 C 0.45639 0.9324 0.05137 0.0
O34 O 0.50635 0.89327 0.84426 0.0
O35 O 0.46058 0.87804 0.86171 0.0
O36 O 0.51581 0.82273 0.96973 0.0
C37 C 0.4801 0.88957 0.81548 0.0
O38 O 0.47362 0.9488 0.00861 0.0
C39 C 0.49241 0.80828 0.99012 0.0
O40 O 0.45895 0.90385 0.05158 0.0
O41 O 0.46884 0.82347 0.00441 0.0
C42 C 0.5828 0.55138 0.58264 0.0
O43 O 0.56253 0.55696 0.53101 0.0
Cd44 Cd 0.55131 0.52111 0.42467 0.0
O45 O 0.60114 0.53006 0.57076 0.0
Cd46 Cd 0.61511 0.49289 0.46954 0.0
C47 C 0.55308 0.45964 0.54878 0.0
O48 O 0.59331 0.50801 0.34044 0.0
O49 O 0.60663 0.46153 0.35707 0.0
O50 O 0.66457 0.51467 0.46192 0.0
C51 C 0.59566 0.48157 0.31152 0.0
O52 O 0.53737 0.47784 0.50726 0.0
C53 C 0.67838 0.49083 0.4818 0.0
O54 O 0.58168 0.46079 0.54762 0.0
O55 O 0.66257 0.46768 0.49682 0.0
C56 C 0.9352 0.90665 0.90475 0.0
O57 O 0.93005 0.92704 0.95645 0.0
Cd58 Cd 0.96606 0.93748 0.06281 0.0
O59 O 0.95608 0.88781 0.9166 0.0
Cd60 Cd 0.99284 0.87318 0.01804 0.0
C61 C 0.02736 0.93454 0.93875 0.0
O62 O 0.97831 0.89527 0.14746 0.0
O63 O 0.02447 0.88124 0.12997 0.0
O64 O 0.97053 0.82383 0.02593 0.0
C65 C 0.00472 0.89243 0.17597 0.0
O66 O 0.00955 0.95067 0.98034 0.0
C67 C -0.00578 0.80978 0.00615 0.0
O68 O 0.02557 0.90593 0.93986 0.0
O69 O 0.01745 0.82541 0.99091 0.0
C70 C 0.58213 0.94044 0.40353 0.0
O71 O 0.56207 0.93568 0.45652 0.0
Cd72 Cd 0.55265 0.97206 0.56269 0.0
O73 O 0.6013 0.96117 0.41372 0.0
Cd74 Cd 0.6173 -0.00178 0.51328 0.0
C75 C 0.55591 0.03315 0.4368 0.0
O76 O 0.59587 0.98368 0.64332 0.0
O77 O 0.61041 0.02977 0.62664 0.0
O78 O 0.6662 0.97511 0.51782 0.0
C79 C 0.5991 0.00997 0.67249 0.0
O80 O 0.53989 0.01554 0.47953 0.0
C81 C 0.68052 -0.00135 0.4977 0.0
O82 O 0.58446 0.03116 0.43653 0.0
O83 O 0.66523 0.02221 0.48371 0.0
C84 C 0.55315 0.582 0.90551 0.0
O85 O 0.55809 0.56151 0.9572 0.0
Cd86 Cd 0.52189 0.55121 0.06359 0.0
O87 O 0.53236 0.60094 0.91738 0.0
Cd88 Cd 0.49555 0.61556 0.019 0.0
C89 C 0.46068 0.55451 0.94006 0.0
O90 O 0.50985 0.59335 0.14863 0.0
O91 O 0.46374 0.60747 0.13091 0.0
O92 O 0.51772 0.665 0.02668 0.0
C93 C 0.48341 0.5963 0.1771 0.0
O94 O 0.47836 0.53822 0.98154 0.0
C95 C 0.49399 0.67895 0.00688 0.0
O96 O 0.46268 0.5831 0.94111 0.0
O97 O 0.47086 0.66323 0.99173 0.0
C98 C 0.9056 0.54829 0.40626 0.0
O99 O 0.92569 0.55312 0.4589 0.0
Cd100 Cd 0.93522 0.51685 0.56547 0.0
O101 O 0.88651 0.52749 0.41691 0.0
Cd102 Cd 0.87065 0.49034 0.51683 0.0
C103 C 0.93229 0.45561 0.44056 0.0
O104 O 0.89191 0.50527 0.64642 0.0
O105 O 0.8774 0.45913 0.63111 0.0
O106 O 0.82165 0.51324 0.52074 0.0
C107 C 0.88867 0.47907 0.67634 0.0
O108 O 0.94823 0.47335 0.48281 0.0
C109 C 0.80746 0.48962 0.50096 0.0
O110 O 0.90373 0.45746 0.44055 0.0
O111 O 0.82285 0.4661 0.48756 0.0
C112 C 0.0496 0.4076 0.90598 0.0
O113 O 0.05389 0.42786 0.95858 0.0
Cd114 Cd 0.01742 0.4366 0.06511 0.0
O115 O 0.02927 0.38801 0.91654 0.0
Cd116 Cd 0.9924 0.37154 0.01637 0.0
C117 C 0.95643 0.43254 0.94033 0.0
O118 O 0.0067 0.39305 0.14635 0.0
O119 O 0.96093 0.37776 0.13024 0.0
O120 O 0.01556 0.32252 0.02025 0.0
C121 C 0.98054 0.38928 0.17591 0.0
O122 O 0.97374 0.44891 0.98264 0.0
C123 C 0.99206 0.30826 8e-05 0.0
O124 O 0.95895 0.40399 0.94022 0.0
O125 O 0.96856 0.32363 0.98646 0.0
C126 C 0.08205 0.05177 0.40317 0.0
O127 O 0.06177 0.05724 0.45498 0.0
Cd128 Cd 0.05081 0.02131 0.56167 0.0
O129 O 0.10055 0.03058 0.41513 0.0
Cd130 Cd 0.11465 0.99366 0.51705 0.0
C131 C 0.05307 0.95982 0.43829 0.0
O132 O 0.09269 0.00852 0.64642 0.0
O133 O 0.10608 0.96209 0.62928 0.0
O134 O 0.16403 0.01566 0.52483 0.0
C135 C 0.09516 0.98204 0.67517 0.0
O136 O 0.03718 0.9779 0.47974 0.0
C137 C 0.17796 0.99184 0.5054 0.0
O138 O 0.08166 0.96123 0.43926 0.0
O139 O 0.16225 0.96866 0.49036 0.0
C140 C 0.43805 0.08164 0.90388 0.0
O141 O 0.4338 0.06137 0.95669 0.0
Cd142 Cd 0.47043 0.05257 0.06245 0.0
O143 O 0.4584 0.10122 0.914 0.0
Cd144 Cd 0.49528 0.11765 0.01336 0.0
C145 C 0.53126 0.05688 0.93642 0.0
O146 O 0.48129 0.09595 0.14365 0.0
O147 O 0.52707 0.11114 0.12616 0.0
O148 O 0.47182 0.16651 0.01847 0.0
C149 C 0.50754 0.09963 0.17242 0.0
O150 O 0.51403 0.04047 0.97916 0.0
C151 C 0.49522 0.18098 -0.00182 0.0
O152 O 0.5287 0.08543 0.93626 0.0
O153 O 0.51879 0.16581 0.98376 0.0
C154 C 0.40487 0.43791 0.40732 0.0
O155 O 0.42514 0.43237 0.45895 0.0
Cd156 Cd 0.43632 0.46824 0.56526 0.0
O157 O 0.38648 0.4592 0.41919 0.0
Cd158 Cd 0.37243 0.49636 0.52036 0.0
C159 C 0.43441 0.52969 0.441 0.0
O160 O 0.39429 0.48128 0.6494 0.0
O161 O 0.3809 0.52774 0.63282 0.0
O162 O 0.32303 0.47443 0.52812 0.0
C163 C 0.39192 0.50772 0.67833 0.0
O164 O 0.45014 0.51152 0.48256 0.0
C165 C 0.30915 0.49823 0.50835 0.0
O166 O 0.40581 0.5285 0.44216 0.0
O167 O 0.32488 0.52143 0.49328 0.0
C168 C 0.05219 0.08209 0.08019 0.0
O169 O 0.05731 0.06169 0.02848 0.0
Cd170 Cd 0.02134 0.05132 0.92197 0.0
O171 O 0.03131 0.10094 0.06837 0.0
Cd172 Cd -0.0055 0.11564 0.96717 0.0
C173 C 0.96 0.05415 0.04591 0.0
O174 O 0.00916 0.09367 0.83773 0.0
O175 O 0.96301 0.10781 0.85477 0.0
O176 O 0.01673 0.16505 0.96016 0.0
C177 C 0.9828 0.09657 0.80895 0.0
O178 O 0.97783 0.03805 0.00431 0.0
C179 C 0.99301 0.179 0.9802 0.0
O180 O 0.96177 0.08276 0.04492 0.0
O181 O 0.9698 0.1633 -0.00496 0.0
C182 C 0.40548 0.04884 0.58439 0.0
O183 O 0.42556 0.05359 0.53142 0.0
Cd184 Cd 0.43501 0.0172 0.4253 0.0
O185 O 0.38632 0.0281 0.57419 0.0
Cd186 Cd 0.37036 0.99105 0.47455 0.0
C187 C 0.43171 0.95611 0.55118 0.0
O188 O 0.39182 0.0056 0.34454 0.0
O189 O 0.37733 0.95949 0.36126 0.0
O190 O 0.32145 0.01413 0.46975 0.0
C191 C 0.38861 0.9793 0.31539 0.0
O192 O 0.44774 0.97372 0.50847 0.0
C193 C 0.30713 0.99058 0.48972 0.0
O194 O 0.40316 0.9581 0.55141 0.0
O195 O 0.32241 0.96704 0.50382 0.0
C196 C 0.43453 0.40729 0.08445 0.0
O197 O 0.42957 0.42777 0.03277 0.0
Cd198 Cd 0.46572 0.4381 0.92629 0.0
O199 O 0.45531 0.38834 0.07253 0.0
Cd200 Cd 0.49208 0.37374 0.97078 0.0
C201 C 0.52698 0.43479 0.04966 0.0
O202 O 0.47771 0.39596 0.84124 0.0
O203 O 0.52383 0.38184 0.85877 0.0
O204 O 0.4699 0.32431 0.96304 0.0
C205 C 0.50413 0.39301 0.81266 0.0
O206 O 0.50928 0.45108 0.00823 0.0
C207 C 0.49363 0.31034 0.98266 0.0
O208 O 0.52499 0.4062 0.04861 0.0
O209 O 0.51678 0.32604 -0.00219 0.0
C210 C 0.08191 0.44036 0.58563 0.0
O211 O 0.06185 0.43548 0.53293 0.0
Cd212 Cd 0.05228 0.4717 0.42628 0.0
O213 O 0.10098 0.46117 0.57497 0.0
Cd214 Cd 0.11682 0.49827 0.47487 0.0
C215 C 0.05516 0.53292 0.55122 0.0
O216 O 0.09552 0.48341 0.34525 0.0
O217 O 0.10992 0.52957 0.36087 0.0
O218 O 0.16587 0.47546 0.47061 0.0
C219 C 0.09869 0.50966 0.31552 0.0
O220 O 0.03924 0.51519 0.50894 0.0
C221 C 0.18003 0.4991 0.49036 0.0
O222 O 0.08373 0.53109 0.55124 0.0
O223 O 0.1646 0.52258 0.50397 0.0
C224 C 0.02214 0.72962 -0.00301 0.0
C225 C -0.00492 0.71349 -0.00457 0.0
H226 H 0.04309 0.7729 0.00043 0.0
C227 C 0.96783 0.72925 -0.00268 0.0
H228 H 0.04347 0.71804 -0.00476 0.0
C229 C 0.96762 0.76054 0.00113 0.0
C230 C -0.00536 0.77671 0.00188 0.0
H231 H 0.94662 0.71741 -0.00371 0.0
H232 H 0.94625 0.77206 0.00281 0.0
C233 C 0.02192 0.76099 -0.00045 0.0
C234 C 0.72914 0.97118 0.49014 0.0
C235 C 0.71352 -0.00147 0.49206 0.0
H236 H 0.77177 0.94938 0.48432 0.0
C237 C 0.72973 0.02557 0.49012 0.0
H238 H 0.71724 0.94998 0.49144 0.0
C239 C 0.76106 0.02523 0.48719 0.0
C240 C 0.77663 -0.00216 0.48486 0.0
H241 H 0.71825 0.04699 0.49186 0.0
H242 H 0.77304 0.04638 0.48604 0.0
C243 C 0.76037 0.97084 0.48598 0.0
C244 C 0.51997 0.75963 -0.00257 0.0
C245 C 0.49263 0.77523 -0.0044 0.0
H246 H 0.54178 0.71693 0.00308 0.0
C247 C 0.46566 0.75895 -0.00254 0.0
H248 H 0.54111 0.77159 -0.00381 0.0
C249 C 0.46605 0.72759 0.00023 0.0
C250 C 0.49341 0.71202 0.00248 0.0
H251 H 0.44427 0.77042 -0.00423 0.0
H252 H 0.44494 0.71557 0.00132 0.0
C253 C 0.52035 0.72834 0.00147 0.0
C254 C 0.72699 0.46288 0.48982 0.0
C255 C 0.71138 0.49024 0.48674 0.0
H256 H 0.76982 0.44119 0.49555 0.0
C257 C 0.72761 0.51726 0.48759 0.0
H258 H 0.71504 0.44171 0.48891 0.0
C259 C 0.75882 0.51697 0.49223 0.0
C260 C 0.77448 0.48965 0.49491 0.0
H261 H 0.71619 0.5387 0.48537 0.0
H262 H 0.77068 0.53819 0.49328 0.0
C263 C 0.75831 0.46258 0.49323 0.0
C264 C 0.96505 0.2591 0.99185 0.0
C265 C 0.9921 0.27523 0.99393 0.0
H266 H 0.94411 0.21583 0.98702 0.0
C267 C 0.01936 0.2595 0.9915 0.0
H268 H 0.94371 0.27066 0.99397 0.0
C269 C 0.01958 0.22823 0.98666 0.0
C270 C 0.99257 0.21205 0.98539 0.0
H271 H 0.04056 0.27135 0.99288 0.0
H272 H 0.04096 0.21674 0.98461 0.0
C273 C 0.96528 0.22775 0.98826 0.0
C274 C 0.25846 0.01799 0.49672 0.0
C275 C 0.27412 0.99066 0.49496 0.0
H276 H 0.21579 0.03973 0.50198 0.0
C277 C 0.25793 0.9636 0.4966 0.0
H278 H 0.27034 0.0392 0.49563 0.0
C279 C 0.2266 0.9639 0.49908 0.0
C280 C 0.21098 0.99127 0.50124 0.0
H281 H 0.26944 0.9422 0.49497 0.0
H282 H 0.21464 0.94274 0.50001 0.0
C283 C 0.22722 0.01829 0.50043 0.0
C284 C 0.46766 0.22965 0.99142 0.0
C285 C 0.495 0.21404 0.99301 0.0
H286 H 0.44585 0.27235 0.98628 0.0
C287 C 0.52197 0.23032 0.99125 0.0
H288 H 0.44652 0.21768 0.9926 0.0
C289 C 0.52158 0.26169 0.98882 0.0
C290 C 0.49422 0.27726 0.9868 0.0
H291 H 0.54337 0.21885 0.99277 0.0
H292 H 0.54269 0.27371 0.98779 0.0
C293 C 0.46728 0.26094 0.98772 0.0
C294 C 0.26044 0.52605 0.50084 0.0
C295 C 0.27613 0.49873 0.50365 0.0
H296 H 0.21755 0.54762 0.49563 0.0
C297 C 0.25998 0.47167 0.50283 0.0
H298 H 0.27234 0.54726 0.50174 0.0
C299 C 0.22876 0.47187 0.4985 0.0
C300 C 0.21302 0.49915 0.49611 0.0
H301 H 0.27146 0.45026 0.50485 0.0
H302 H 0.21695 0.45062 0.49746 0.0
C303 C 0.22912 0.52626 0.49774 0.0
C304 C 0.04507 0.59279 0.70849 0.0
C305 C 0.01623 0.58627 0.73803 0.0
H306 H 0.07987 0.58121 0.62576 0.0
C307 C -0.00143 0.56497 0.69776 0.0
H308 H 0.05908 0.60944 0.73748 0.0
C309 C 0.01054 0.54884 0.63288 0.0
C310 C 0.04035 0.55371 0.60792 0.0
H311 H 0.97625 0.55955 0.7191 0.0
H312 H -0.00293 0.53136 0.60566 0.0
C313 C 0.05703 0.57662 0.64439 0.0
C314 C 0.91593 0.05638 0.13783 0.0
C315 C 0.939 0.03954 0.10258 0.0
H316 H 0.8826 0.05877 0.2297 0.0
C317 C 0.94369 0.00978 0.1285 0.0
H318 H 0.91147 0.07918 0.11845 0.0
C319 C 0.92714 -0.00199 0.19303 0.0
C320 C 0.90564 0.01585 0.23206 0.0
H321 H 0.96133 -0.00377 0.10229 0.0
H322 H 0.9324 0.97574 0.21516 0.0
C323 C 0.89937 0.04463 0.20163 0.0
C324 C 0.44155 0.89636 0.70931 0.0
C325 C 0.47054 0.90259 0.73788 0.0
H326 H 0.40666 0.90823 0.62742 0.0
C327 C 0.4883 0.92368 0.69682 0.0
H328 H 0.42745 0.87988 0.73894 0.0
C329 C 0.47634 0.93988 0.63206 0.0
C330 C 0.44642 0.93529 0.60799 0.0
H331 H 0.51074 0.92888 0.7174 0.0
H332 H 0.48993 0.95718 0.60416 0.0
C333 C 0.42958 0.9126 0.64533 0.0
C334 C 0.54379 0.47896 0.13178 0.0
C335 C 0.54815 0.44916 0.10598 0.0
H336 H 0.5556 0.51291 0.21781 0.0
C337 C 0.5711 0.43209 0.14086 0.0
H338 H 0.52624 0.49269 0.10585 0.0
C339 C 0.58791 0.44369 0.20412 0.0
C340 C 0.58201 0.47255 0.23439 0.0
H341 H 0.5753 0.40925 0.12156 0.0
H342 H 0.6046 0.42939 0.2319 0.0
C343 C 0.56059 0.49058 0.19577 0.0
C344 C 0.05481 0.91572 0.34647 0.0
C345 C 0.03825 0.93897 0.3819 0.0
H346 H 0.05674 0.88232 0.25487 0.0
C347 C 0.00854 0.94393 0.35654 0.0
H348 H 0.07756 0.91106 0.36542 0.0
C349 C -0.00347 0.92746 0.29243 0.0
C350 C 0.01407 0.90575 0.25325 0.0
H351 H -0.0048 0.9617 0.3829 0.0
H352 H 0.9743 0.93291 0.27075 0.0
C353 C 0.04282 0.89924 0.28309 0.0
C354 C 0.57481 0.05993 0.84279 0.0
C355 C 0.5524 0.04261 0.87965 0.0
H356 H 0.60764 0.06279 0.74968 0.0
C357 C 0.5484 0.0126 0.85519 0.0
H358 H 0.57873 0.08294 0.86102 0.0
C359 C 0.56492 0.001 0.79054 0.0
C360 C 0.58576 0.01922 0.74996 0.0
H361 H 0.53132 -0.00135 0.88272 0.0
H362 H 0.56019 0.97846 0.76966 0.0
C363 C 0.59138 0.04833 0.77892 0.0
C364 C 0.47913 0.54519 0.35884 0.0
C365 C 0.44942 0.55037 0.38418 0.0
H366 H 0.51351 0.55584 0.27269 0.0
C367 C 0.43303 0.57364 0.3483 0.0
H368 H 0.49235 0.5274 0.38555 0.0
C369 C 0.44518 0.58992 0.28452 0.0
C370 C 0.47391 0.58319 0.25472 0.0
H371 H 0.41028 0.57848 0.36721 0.0
H372 H 0.43138 0.60688 0.25598 0.0
C373 C 0.49129 0.56147 0.29433 0.0
C374 C 0.91264 0.42959 0.84803 0.0
C375 C 0.93526 0.44684 0.88382 0.0
H376 H 0.87968 0.42667 0.75563 0.0
C377 C 0.93946 0.47673 0.85835 0.0
H378 H 0.90856 0.40667 0.86708 0.0
C379 C 0.92295 0.48824 0.79363 0.0
C380 C 0.90194 0.47004 0.75403 0.0
H381 H 0.95671 0.49062 0.88505 0.0
H382 H 0.92786 0.51065 0.77187 0.0
C383 C 0.89609 0.4411 0.7841 0.0
C384 C 0.94233 0.39568 0.28345 0.0
C385 C 0.97115 0.4022 0.25376 0.0
H386 H 0.90757 0.40728 0.36627 0.0
C387 C 0.98881 0.42353 0.2939 0.0
H388 H 0.92832 0.37901 0.25455 0.0
C389 C 0.97688 0.43968 0.35878 0.0
C390 C 0.94708 0.43481 0.38388 0.0
H391 H 0.01112 0.42896 0.27245 0.0
H392 H 0.99035 0.45718 0.3859 0.0
C393 C 0.93039 0.41187 0.34754 0.0
C394 C 0.07134 0.93223 0.84654 0.0
C395 C 0.04835 0.94912 0.88202 0.0
H396 H 0.10464 0.92985 0.75459 0.0
C397 C 0.04376 0.97893 0.85637 0.0
H398 H 0.07573 0.9094 0.8657 0.0
C399 C 0.06033 0.99072 0.79192 0.0
C400 C 0.08177 0.97286 0.7527 0.0
H401 H 0.02619 0.99252 0.88277 0.0
H402 H 0.05516 0.01304 0.77003 0.0
C403 C 0.08792 0.94401 0.78282 0.0
C404 C 0.55803 0.07666 0.34267 0.0
C405 C 0.5412 0.05396 0.37999 0.0
H406 H 0.56017 0.10937 0.24903 0.0
C407 C 0.51129 0.04935 0.35588 0.0
H408 H 0.58095 0.08105 0.36061 0.0
C409 C 0.49933 0.06553 0.2911 0.0
C410 C 0.51709 0.08663 0.25004 0.0
H411 H 0.49771 0.03205 0.38378 0.0
H412 H 0.4769 0.06032 0.27049 0.0
C413 C 0.54607 0.09289 0.27866 0.0
C414 C 0.42704 0.49873 0.79399 0.0
C415 C 0.40561 0.51676 0.75539 0.0
H416 H 0.4614 0.49661 0.88386 0.0
C417 C 0.39974 0.54563 0.78563 0.0
H418 H 0.432 0.47639 0.77197 0.0
C419 C 0.41656 0.55723 0.84886 0.0
C420 C 0.43951 0.54015 0.88373 0.0
H421 H 0.38304 0.55993 0.75787 0.0
H422 H 0.41237 0.58007 0.86815 0.0
C423 C 0.44385 0.51034 0.85795 0.0
C424 C 0.93286 0.07333 0.63809 0.0
C425 C 0.9494 0.05002 0.6029 0.0
H426 H 0.93091 0.1068 0.72953 0.0
C427 C 0.97907 0.045 0.62851 0.0
H428 H 0.91014 0.07804 0.61894 0.0
C429 C 0.99105 0.06149 0.69265 0.0
C430 C 0.97351 0.08326 0.73161 0.0
H431 H 0.9924 0.02718 0.60235 0.0
H432 H 0.01324 0.05599 0.71454 0.0
C433 C 0.94482 0.08982 0.70149 0.0
C434 C 0.39629 0.94097 0.20889 0.0
C435 C 0.40193 0.97006 0.23788 0.0
H436 H 0.40891 0.90636 0.12675 0.0
C437 C 0.42277 0.98828 0.19731 0.0
H438 H 0.38003 0.92651 0.23814 0.0
C439 C 0.43927 0.97668 0.13262 0.0
C440 C 0.43526 0.94668 0.10814 0.0
H441 H 0.42751 0.01081 0.21821 0.0
H442 H 0.45636 0.99063 0.1051 0.0
C443 C 0.41284 0.92937 0.14499 0.0
C444 C 0.49622 0.42792 0.69561 0.0
C445 C 0.51358 0.40613 0.73501 0.0
H446 H 0.49519 0.46205 0.60456 0.0
C447 C 0.54227 0.39932 0.70499 0.0
H448 H 0.47404 0.43359 0.71743 0.0
C449 C 0.5544 0.41561 0.64119 0.0
C450 C 0.53805 0.43896 0.60555 0.0
H451 H 0.55604 0.38231 0.73336 0.0
H452 H 0.57711 0.41072 0.62212 0.0
C453 C 0.50837 0.4442 0.63109 0.0
C454 C 0.06439 0.50053 0.19824 0.0
C455 C 0.08535 0.51875 0.23796 0.0
H456 H 0.03064 0.49812 0.10678 0.0
C457 C 0.0911 0.54774 0.20813 0.0
H458 H 0.05956 0.47807 0.21982 0.0
C459 C 0.07451 0.55927 0.14428 0.0
C460 C 0.05195 0.54198 0.10832 0.0
H461 H 0.10746 0.56219 0.2367 0.0
H462 H 0.07852 0.58222 0.12539 0.0
C463 C 0.04785 0.51205 0.1336 0.0
C464 C 0.92845 0.58577 0.31143 0.0
C465 C 0.90783 0.56255 0.32572 0.0
H466 H 0.9534 0.61056 0.22388 0.0
C467 C 0.89286 0.54966 0.25958 0.0
H468 H 0.94016 0.59636 0.36094 0.0
C469 C 0.90077 0.55743 0.18074 0.0
C470 C 0.92345 0.57863 0.16644 0.0
H471 H 0.87665 0.53182 0.2683 0.0
H472 H 0.89047 0.54546 0.13123 0.0
C473 C 0.93599 0.59392 0.23259 0.0
C474 C 0.8914 0.93649 0.72771 0.0
C475 C 0.90696 0.92324 0.66291 0.0
H476 H 0.88803 0.94159 0.85568 0.0
C477 C 0.92747 0.90016 0.67929 0.0
H478 H 0.87522 0.9542 0.71739 0.0
C479 C 0.93444 0.89261 0.75886 0.0
C480 C 0.92141 0.90836 0.82365 0.0
H481 H 0.9396 0.88928 0.63088 0.0
H482 H 0.95183 0.87611 0.76917 0.0
C483 C 0.89873 0.9293 0.80728 0.0
C484 C 0.55143 0.8949 0.23075 0.0
C485 C 0.56388 0.91019 0.16425 0.0
H486 H 0.54746 0.89241 0.3592 0.0
C487 C 0.58659 0.93138 0.17795 0.0
H488 H 0.53399 0.87826 0.22249 0.0
C489 C 0.59464 0.93911 0.25658 0.0
C490 C 0.57976 0.9262 0.32311 0.0
H491 H 0.59682 0.94335 0.12816 0.0
H492 H 0.61087 0.95694 0.26485 0.0
C493 C 0.5591 0.90301 0.30938 0.0
C494 C 0.56111 0.58853 0.68002 0.0
C495 C 0.58145 0.5653 0.66367 0.0
H496 H 0.53685 0.61274 0.76989 0.0
C497 C 0.5969 0.55195 0.72846 0.0
H498 H 0.54907 0.5995 0.63161 0.0
C499 C 0.58957 0.55918 0.80802 0.0
C500 C 0.56702 0.58026 0.82439 0.0
H501 H 0.61296 0.53413 0.71815 0.0
H502 H 0.60016 0.5468 0.85644 0.0
C503 C 0.55415 0.59612 0.75958 0.0
C504 C 0.05903 0.4029 0.6805 0.0
C505 C 0.07962 0.42615 0.66624 0.0
H506 H 0.03403 0.37812 0.768 0.0
C507 C 0.09449 0.43913 0.73242 0.0
H508 H 0.04739 0.39225 0.63096 0.0
C509 C 0.08651 0.4314 0.81125 0.0
C510 C 0.06386 0.41016 0.82549 0.0
H511 H 0.11067 0.45699 0.72373 0.0
H512 H 0.09674 0.44342 0.86077 0.0
C513 C 0.05142 0.3948 0.75933 0.0
C514 C 0.08869 0.05944 0.17758 0.0
C515 C 0.06602 0.08039 0.16123 0.0
H516 H 0.11224 0.03458 0.26745 0.0
C517 C 0.05305 0.09619 0.22603 0.0
H518 H 0.09934 0.04711 0.12917 0.0
C519 C 0.06008 0.08869 0.30559 0.0
C520 C 0.08058 0.06561 0.32197 0.0
H521 H 0.03567 0.11271 0.21573 0.0
H522 H 0.04799 0.09961 0.35402 0.0
C523 C 0.09608 0.0523 0.25714 0.0
C524 C 0.39297 0.05017 0.73133 0.0
C525 C 0.40785 0.06309 0.66479 0.0
H526 H 0.3908 0.04593 0.85975 0.0
C527 C 0.42851 0.08628 0.67851 0.0
H528 H 0.37675 0.03235 0.72306 0.0
C529 C 0.43619 0.09439 0.75714 0.0
C530 C 0.42374 0.07909 0.82365 0.0
H531 H 0.44014 0.09688 0.62869 0.0
H532 H 0.45362 0.11102 0.76538 0.0
C533 C 0.40103 0.05791 0.80996 0.0
C534 C 0.43359 0.39321 0.2304 0.0
C535 C 0.42067 0.40902 0.16559 0.0
H536 H 0.43869 0.38986 0.35837 0.0
C537 C 0.39808 0.43007 0.18196 0.0
H538 H 0.45091 0.37662 0.22009 0.0
C539 C 0.39075 0.43729 0.26152 0.0
C540 C 0.40623 0.42398 0.32631 0.0
H541 H 0.38747 0.44241 0.13353 0.0
H542 H 0.37466 0.45508 0.27181 0.0
C543 C 0.42662 0.40079 0.30996 0.0
loop_
_geom_bond_atom_site_label_1
_geom_bond_atom_site_label_2
_geom_bond_distance
_geom_bond_site_symmetry_2
_ccdc_geom_bond_type
C0 O1 1.306 . S
C0 O3 1.160 . S
O1 C0 1.306 . S
O1 Cd2 2.228 1_655 S
Cd2 O1 2.228 1_455 S
Cd2 O6 2.273 . S
Cd2 O10 2.277 . S
O3 C0 1.160 . S
O3 Cd4 2.203 1_655 S
Cd4 O3 2.203 1_455 S
Cd4 O6 2.411 . S
Cd4 O7 2.333 . S
Cd4 O8 2.352 1_455 S
Cd4 O12 2.277 . S
Cd4 O13 2.356 . S
C5 O10 1.209 . S
C5 O12 1.226 . S
O6 Cd2 2.273 . S
O6 Cd4 2.411 . S
O6 C9 1.320 1_554 S
O7 Cd4 2.333 . S
O7 C9 1.214 1_554 S
O8 Cd4 2.352 1_655 S
O8 C11 1.258 1_655 S
C9 O6 1.320 1_556 S
C9 O7 1.214 1_556 S
O10 Cd2 2.277 . S
O10 C5 1.209 . S
C11 O8 1.258 1_455 S
C11 O13 1.282 . S
O12 Cd4 2.277 . S
O12 C5 1.226 . S
O13 Cd4 2.356 . S
O13 C11 1.282 . S
C14 O15 1.306 . S
C14 O17 1.160 . S
O15 C14 1.306 . S
O15 Cd16 2.228 1_565 S
Cd16 O15 2.228 1_545 S
Cd16 O20 2.273 . S
Cd16 O24 2.277 . S
O17 C14 1.160 . S
O17 Cd18 2.203 1_565 S
Cd18 O17 2.203 1_545 S
Cd18 O20 2.411 . S
Cd18 O21 2.333 . S
Cd18 O22 2.352 1_545 S
Cd18 O26 2.277 . S
Cd18 O27 2.356 . S
C19 O24 1.209 . S
C19 O26 1.226 . S
O20 Cd16 2.273 . S
O20 Cd18 2.411 . S
O20 C23 1.320 . S
O21 Cd18 2.333 . S
O21 C23 1.214 . S
O22 Cd18 2.352 1_565 S
O22 C25 1.258 1_565 S
C23 O20 1.320 . S
C23 O21 1.214 . S
O24 Cd16 2.277 . S
O24 C19 1.209 . S
C25 O22 1.258 1_545 S
C25 O27 1.282 . S
O26 Cd18 2.277 . S
O26 C19 1.226 . S
O27 Cd18 2.356 . S
O27 C25 1.282 . S
C28 O29 1.306 . S
C28 O31 1.160 . S
O29 C28 1.306 . S
O29 Cd30 2.228 . S
Cd30 O29 2.228 . S
Cd30 O34 2.273 . S
Cd30 O38 2.277 . S
O31 C28 1.160 . S
O31 Cd32 2.203 . S
Cd32 O31 2.203 . S
Cd32 O34 2.411 . S
Cd32 O35 2.333 . S
Cd32 O36 2.352 . S
Cd32 O40 2.277 . S
Cd32 O41 2.356 . S
C33 O38 1.209 . S
C33 O40 1.226 . S
O34 Cd30 2.273 . S
O34 Cd32 2.411 . S
O34 C37 1.320 1_554 S
O35 Cd32 2.333 . S
O35 C37 1.214 1_554 S
O36 Cd32 2.352 . S
O36 C39 1.258 . S
C37 O34 1.320 1_556 S
C37 O35 1.214 1_556 S
O38 Cd30 2.277 . S
O38 C33 1.209 . S
C39 O36 1.258 . S
C39 O41 1.282 . S
O40 Cd32 2.277 . S
O40 C33 1.226 . S
O41 Cd32 2.356 . S
O41 C39 1.282 . S
C42 O43 1.306 . S
C42 O45 1.160 . S
O43 C42 1.306 . S
O43 Cd44 2.228 . S
Cd44 O43 2.228 . S
Cd44 O48 2.273 . S
Cd44 O52 2.277 . S
O45 C42 1.160 . S
O45 Cd46 2.203 . S
Cd46 O45 2.203 . S
Cd46 O48 2.411 . S
Cd46 O49 2.333 . S
Cd46 O50 2.352 . S
Cd46 O54 2.277 . S
Cd46 O55 2.356 . S
C47 O52 1.209 . S
C47 O54 1.226 . S
O48 Cd44 2.273 . S
O48 Cd46 2.411 . S
O48 C51 1.320 . S
O49 Cd46 2.333 . S
O49 C51 1.214 . S
O50 Cd46 2.352 . S
O50 C53 1.258 . S
C51 O48 1.320 . S
C51 O49 1.214 . S
O52 Cd44 2.277 . S
O52 C47 1.209 . S
C53 O50 1.258 . S
C53 O55 1.282 . S
O54 Cd46 2.277 . S
O54 C47 1.226 . S
O55 Cd46 2.356 . S
O55 C53 1.282 . S
C56 O57 1.306 . S
C56 O59 1.160 . S
O57 C56 1.306 . S
O57 Cd58 2.228 1_655 S
Cd58 O57 2.228 1_455 S
Cd58 O62 2.273 . S
Cd58 O66 2.277 . S
O59 C56 1.160 . S
O59 Cd60 2.203 1_655 S
Cd60 O59 2.203 1_455 S
Cd60 O62 2.411 . S
Cd60 O63 2.333 . S
Cd60 O64 2.352 1_455 S
Cd60 O68 2.277 . S
Cd60 O69 2.356 . S
C61 O66 1.209 . S
C61 O68 1.226 . S
O62 Cd58 2.273 . S
O62 Cd60 2.411 . S
O62 C65 1.320 1_556 S
O63 Cd60 2.333 . S
O63 C65 1.214 1_556 S
O64 Cd60 2.352 1_655 S
O64 C67 1.258 1_655 S
C65 O62 1.320 1_554 S
C65 O63 1.214 1_554 S
O66 Cd58 2.277 . S
O66 C61 1.209 . S
C67 O64 1.258 1_455 S
C67 O69 1.282 . S
O68 Cd60 2.277 . S
O68 C61 1.226 . S
O69 Cd60 2.356 . S
O69 C67 1.282 . S
C70 O71 1.306 . S
C70 O73 1.160 . S
O71 C70 1.306 . S
O71 Cd72 2.228 1_565 S
Cd72 O71 2.228 1_545 S
Cd72 O76 2.273 . S
Cd72 O80 2.277 . S
O73 C70 1.160 . S
O73 Cd74 2.203 1_565 S
Cd74 O73 2.203 1_545 S
Cd74 O76 2.411 . S
Cd74 O77 2.333 . S
Cd74 O78 2.352 1_545 S
Cd74 O82 2.277 . S
Cd74 O83 2.356 . S
C75 O80 1.209 . S
C75 O82 1.226 . S
O76 Cd72 2.273 . S
O76 Cd74 2.411 . S
O76 C79 1.320 . S
O77 Cd74 2.333 . S
O77 C79 1.214 . S
O78 Cd74 2.352 1_565 S
O78 C81 1.258 1_565 S
C79 O76 1.320 . S
C79 O77 1.214 . S
O80 Cd72 2.277 . S
O80 C75 1.209 . S
C81 O78 1.258 1_545 S
C81 O83 1.282 . S
O82 Cd74 2.277 . S
O82 C75 1.226 . S
O83 Cd74 2.356 . S
O83 C81 1.282 . S
C84 O85 1.306 . S
C84 O87 1.160 . S
O85 C84 1.306 . S
O85 Cd86 2.228 . S
Cd86 O85 2.228 . S
Cd86 O90 2.273 . S
Cd86 O94 2.277 . S
O87 C84 1.160 . S
O87 Cd88 2.203 . S
Cd88 O87 2.203 . S
Cd88 O90 2.411 . S
Cd88 O91 2.333 . S
Cd88 O92 2.352 . S
Cd88 O96 2.277 . S
Cd88 O97 2.356 . S
C89 O94 1.209 . S
C89 O96 1.226 . S
O90 Cd86 2.273 . S
O90 Cd88 2.411 . S
O90 C93 1.320 1_556 S
O91 Cd88 2.333 . S
O91 C93 1.214 1_556 S
O92 Cd88 2.352 . S
O92 C95 1.258 . S
C93 O90 1.320 1_554 S
C93 O91 1.214 1_554 S
O94 Cd86 2.277 . S
O94 C89 1.209 . S
C95 O92 1.258 . S
C95 O97 1.282 . S
O96 Cd88 2.277 . S
O96 C89 1.226 . S
O97 Cd88 2.356 . S
O97 C95 1.282 . S
C98 O99 1.306 . S
C98 O101 1.160 . S
O99 C98 1.306 . S
O99 Cd100 2.228 . S
Cd100 O99 2.228 . S
Cd100 O104 2.273 . S
Cd100 O108 2.277 . S
O101 C98 1.160 . S
O101 Cd102 2.203 . S
Cd102 O101 2.203 . S
Cd102 O104 2.411 . S
Cd102 O105 2.333 . S
Cd102 O106 2.352 . S
Cd102 O110 2.277 . S
Cd102 O111 2.356 . S
C103 O108 1.209 . S
C103 O110 1.226 . S
O104 Cd100 2.273 . S
O104 Cd102 2.411 . S
O104 C107 1.320 . S
O105 Cd102 2.333 . S
O105 C107 1.214 . S
O106 Cd102 2.352 . S
O106 C109 1.258 . S
C107 O104 1.320 . S
C107 O105 1.214 . S
O108 Cd100 2.277 . S
O108 C103 1.209 . S
C109 O106 1.258 . S
C109 O111 1.282 . S
O110 Cd102 2.277 . S
O110 C103 1.226 . S
O111 Cd102 2.356 . S
O111 C109 1.282 . S
C112 O113 1.306 . S
C112 O115 1.160 . S
O113 C112 1.306 . S
O113 Cd114 2.228 1_455 S
Cd114 O113 2.228 1_655 S
Cd114 O118 2.273 . S
Cd114 O122 2.277 . S
O115 C112 1.160 . S
O115 Cd116 2.203 1_455 S
Cd116 O115 2.203 1_655 S
Cd116 O118 2.411 . S
Cd116 O119 2.333 . S
Cd116 O120 2.352 1_655 S
Cd116 O124 2.277 . S
Cd116 O125 2.356 . S
C117 O122 1.209 . S
C117 O124 1.226 . S
O118 Cd114 2.273 . S
O118 Cd116 2.411 . S
O118 C121 1.320 1_556 S
O119 Cd116 2.333 . S
O119 C121 1.214 1_556 S
O120 Cd116 2.352 1_455 S
O120 C123 1.258 1_455 S
C121 O118 1.320 1_554 S
C121 O119 1.214 1_554 S
O122 Cd114 2.277 . S
O122 C117 1.209 . S
C123 O120 1.258 1_655 S
C123 O125 1.282 . S
O124 Cd116 2.277 . S
O124 C117 1.226 . S
O125 Cd116 2.356 . S
O125 C123 1.282 . S
C126 O127 1.306 . S
C126 O129 1.160 . S
O127 C126 1.306 . S
O127 Cd128 2.228 1_545 S
Cd128 O127 2.228 1_565 S
Cd128 O132 2.273 . S
Cd128 O136 2.277 . S
O129 C126 1.160 . S
O129 Cd130 2.203 1_545 S
Cd130 O129 2.203 1_565 S
Cd130 O132 2.411 . S
Cd130 O133 2.333 . S
Cd130 O134 2.352 1_565 S
Cd130 O138 2.277 . S
Cd130 O139 2.356 . S
C131 O136 1.209 . S
C131 O138 1.226 . S
O132 Cd128 2.273 . S
O132 Cd130 2.411 . S
O132 C135 1.320 . S
O133 Cd130 2.333 . S
O133 C135 1.214 . S
O134 Cd130 2.352 1_545 S
O134 C137 1.258 1_545 S
C135 O132 1.320 . S
C135 O133 1.214 . S
O136 Cd128 2.277 . S
O136 C131 1.209 . S
C137 O134 1.258 1_565 S
C137 O139 1.282 . S
O138 Cd130 2.277 . S
O138 C131 1.226 . S
O139 Cd130 2.356 . S
O139 C137 1.282 . S
C140 O141 1.306 . S
C140 O143 1.160 . S
O141 C140 1.306 . S
O141 Cd142 2.228 . S
Cd142 O141 2.228 . S
Cd142 O146 2.273 . S
Cd142 O150 2.277 . S
O143 C140 1.160 . S
O143 Cd144 2.203 . S
Cd144 O143 2.203 . S
Cd144 O146 2.411 . S
Cd144 O147 2.333 . S
Cd144 O148 2.352 . S
Cd144 O152 2.277 . S
Cd144 O153 2.356 . S
C145 O150 1.209 . S
C145 O152 1.226 . S
O146 Cd142 2.273 . S
O146 Cd144 2.411 . S
O146 C149 1.320 1_556 S
O147 Cd144 2.333 . S
O147 C149 1.214 1_556 S
O148 Cd144 2.352 . S
O148 C151 1.258 . S
C149 O146 1.320 1_554 S
C149 O147 1.214 1_554 S
O150 Cd142 2.277 . S
O150 C145 1.209 . S
C151 O148 1.258 . S
C151 O153 1.282 . S
O152 Cd144 2.277 . S
O152 C145 1.226 . S
O153 Cd144 2.356 . S
O153 C151 1.282 . S
C154 O155 1.306 . S
C154 O157 1.160 . S
O155 C154 1.306 . S
O155 Cd156 2.228 . S
Cd156 O155 2.228 . S
Cd156 O160 2.273 . S
Cd156 O164 2.277 . S
O157 C154 1.160 . S
O157 Cd158 2.203 . S
Cd158 O157 2.203 . S
Cd158 O160 2.411 . S
Cd158 O161 2.333 . S
Cd158 O162 2.352 . S
Cd158 O166 2.277 . S
Cd158 O167 2.356 . S
C159 O164 1.209 . S
C159 O166 1.226 . S
O160 Cd156 2.273 . S
O160 Cd158 2.411 . S
O160 C163 1.320 . S
O161 Cd158 2.333 . S
O161 C163 1.214 . S
O162 Cd158 2.352 . S
O162 C165 1.258 . S
C163 O160 1.320 . S
C163 O161 1.214 . S
O164 Cd156 2.277 . S
O164 C159 1.209 . S
C165 O162 1.258 . S
C165 O167 1.282 . S
O166 Cd158 2.277 . S
O166 C159 1.226 . S
O167 Cd158 2.356 . S
O167 C165 1.282 . S
C168 O169 1.306 . S
C168 O171 1.160 . S
O169 C168 1.306 . S
O169 Cd170 2.228 1_455 S
Cd170 O169 2.228 1_655 S
Cd170 O174 2.273 . S
Cd170 O178 2.277 . S
O171 C168 1.160 . S
O171 Cd172 2.203 1_455 S
Cd172 O171 2.203 1_655 S
Cd172 O174 2.411 . S
Cd172 O175 2.333 . S
Cd172 O176 2.352 1_655 S
Cd172 O180 2.277 . S
Cd172 O181 2.356 . S
C173 O178 1.209 . S
C173 O180 1.226 . S
O174 Cd170 2.273 . S
O174 Cd172 2.411 . S
O174 C177 1.320 1_554 S
O175 Cd172 2.333 . S
O175 C177 1.214 1_554 S
O176 Cd172 2.352 1_455 S
O176 C179 1.258 1_455 S
C177 O174 1.320 1_556 S
C177 O175 1.214 1_556 S
O178 Cd170 2.277 . S
O178 C173 1.209 . S
C179 O176 1.258 1_655 S
C179 O181 1.282 . S
O180 Cd172 2.277 . S
O180 C173 1.226 . S
O181 Cd172 2.356 . S
O181 C179 1.282 . S
C182 O183 1.306 . S
C182 O185 1.160 . S
O183 C182 1.306 . S
O183 Cd184 2.228 1_545 S
Cd184 O183 2.228 1_565 S
Cd184 O188 2.273 . S
Cd184 O192 2.277 . S
O185 C182 1.160 . S
O185 Cd186 2.203 1_545 S
Cd186 O185 2.203 1_565 S
Cd186 O188 2.411 . S
Cd186 O189 2.333 . S
Cd186 O190 2.352 1_565 S
Cd186 O194 2.277 . S
Cd186 O195 2.356 . S
C187 O192 1.209 . S
C187 O194 1.226 . S
O188 Cd184 2.273 . S
O188 Cd186 2.411 . S
O188 C191 1.320 . S
O189 Cd186 2.333 . S
O189 C191 1.214 . S
O190 Cd186 2.352 1_545 S
O190 C193 1.258 1_545 S
C191 O188 1.320 . S
C191 O189 1.214 . S
O192 Cd184 2.277 . S
O192 C187 1.209 . S
C193 O190 1.258 1_565 S
C193 O195 1.282 . S
O194 Cd186 2.277 . S
O194 C187 1.226 . S
O195 Cd186 2.356 . S
O195 C193 1.282 . S
C196 O197 1.306 . S
C196 O199 1.160 . S
O197 C196 1.306 . S
O197 Cd198 2.228 . S
Cd198 O197 2.228 . S
Cd198 O202 2.273 . S
Cd198 O206 2.277 . S
O199 C196 1.160 . S
O199 Cd200 2.203 . S
Cd200 O199 2.203 . S
Cd200 O202 2.411 . S
Cd200 O203 2.333 . S
Cd200 O204 2.352 . S
Cd200 O208 2.277 . S
Cd200 O209 2.356 . S
C201 O206 1.209 . S
C201 O208 1.226 . S
O202 Cd198 2.273 . S
O202 Cd200 2.411 . S
O202 C205 1.320 1_554 S
O203 Cd200 2.333 . S
O203 C205 1.214 1_554 S
O204 Cd200 2.352 . S
O204 C207 1.258 . S
C205 O202 1.320 1_556 S
C205 O203 1.214 1_556 S
O206 Cd198 2.277 . S
O206 C201 1.209 . S
C207 O204 1.258 . S
C207 O209 1.282 . S
O208 Cd200 2.277 . S
O208 C201 1.226 . S
O209 Cd200 2.356 . S
O209 C207 1.282 . S
C210 O211 1.306 . S
C210 O213 1.160 . S
O211 C210 1.306 . S
O211 Cd212 2.228 . S
Cd212 O211 2.228 . S
Cd212 O216 2.273 . S
Cd212 O220 2.277 . S
O213 C210 1.160 . S
O213 Cd214 2.203 . S
Cd214 O213 2.203 . S
Cd214 O216 2.411 . S
Cd214 O217 2.333 . S
Cd214 O218 2.352 . S
Cd214 O222 2.277 . S
Cd214 O223 2.356 . S
C215 O220 1.209 . S
C215 O222 1.226 . S
O216 Cd212 2.273 . S
O216 Cd214 2.411 . S
O216 C219 1.320 . S
O217 Cd214 2.333 . S
O217 C219 1.214 . S
O218 Cd214 2.352 . S
O218 C221 1.258 . S
C219 O216 1.320 . S
C219 O217 1.214 . S
O220 Cd212 2.277 . S
O220 C215 1.209 . S
C221 O218 1.258 . S
C221 O223 1.282 . S
O222 Cd214 2.277 . S
O222 C215 1.226 . S
O223 Cd214 2.356 . S
O223 C221 1.282 . S
C224 C225 1.387 1_455 S
C224 H228 0.950 . S
C224 C233 1.390 1_554 S
C225 C224 1.387 1_655 S
C225 C227 1.387 . S
H226 C233 0.950 . S
C227 C225 1.387 . S
C227 C229 1.390 1_554 S
C227 H231 0.950 . S
H228 C224 0.950 . S
C229 C227 1.390 1_556 S
C229 C230 1.387 . S
C229 H232 0.950 . S
C230 C229 1.387 . S
C230 C233 1.387 1_655 S
H231 C227 0.950 . S
H232 C229 0.950 . S
C233 C224 1.390 1_556 S
C233 H226 0.950 . S
C233 C230 1.387 1_455 S
C234 C235 1.387 . S
C234 H238 0.950 . S
C234 C243 1.390 . S
C235 C234 1.387 . S
C235 C237 1.387 1_565 S
H236 C243 0.950 . S
C237 C235 1.387 1_545 S
C237 C239 1.390 . S
C237 H241 0.950 . S
H238 C234 0.950 . S
C239 C237 1.390 . S
C239 C240 1.387 1_545 S
C239 H242 0.950 . S
C240 C239 1.387 1_565 S
C240 C243 1.387 . S
H241 C237 0.950 . S
H242 C239 0.950 . S
C243 C234 1.390 . S
C243 H236 0.950 . S
C243 C240 1.387 . S
C244 C245 1.387 . S
C244 H248 0.950 . S
C244 C253 1.390 1_554 S
C245 C244 1.387 . S
C245 C247 1.387 . S
H246 C253 0.950 . S
C247 C245 1.387 . S
C247 C249 1.390 1_554 S
C247 H251 0.950 . S
H248 C244 0.950 . S
C249 C247 1.390 1_556 S
C249 C250 1.387 . S
C249 H252 0.950 . S
C250 C249 1.387 . S
C250 C253 1.387 . S
H251 C247 0.950 . S
H252 C249 0.950 . S
C253 C244 1.390 1_556 S
C253 H246 0.950 . S
C253 C250 1.387 . S
C254 C255 1.387 . S
C254 H258 0.950 . S
C254 C263 1.390 . S
C255 C254 1.387 . S
C255 C257 1.387 . S
H256 C263 0.950 . S
C257 C255 1.387 . S
C257 C259 1.390 . S
C257 H261 0.950 . S
H258 C254 0.950 . S
C259 C257 1.390 . S
C259 C260 1.387 . S
C259 H262 0.950 . S
C260 C259 1.387 . S
C260 C263 1.387 . S
H261 C257 0.950 . S
H262 C259 0.950 . S
C263 C254 1.390 . S
C263 H256 0.950 . S
C263 C260 1.387 . S
C264 C265 1.387 1_655 S
C264 H268 0.950 . S
C264 C273 1.390 1_556 S
C265 C264 1.387 1_455 S
C265 C267 1.387 . S
H266 C273 0.950 . S
C267 C265 1.387 . S
C267 C269 1.390 1_556 S
C267 H271 0.950 . S
H268 C264 0.950 . S
C269 C267 1.390 1_554 S
C269 C270 1.387 . S
C269 H272 0.950 . S
C270 C269 1.387 . S
C270 C273 1.387 1_455 S
H271 C267 0.950 . S
H272 C269 0.950 . S
C273 C264 1.390 1_554 S
C273 H266 0.950 . S
C273 C270 1.387 1_655 S
C274 C275 1.387 . S
C274 H278 0.950 . S
C274 C283 1.390 . S
C275 C274 1.387 . S
C275 C277 1.387 1_545 S
H276 C283 0.950 . S
C277 C275 1.387 1_565 S
C277 C279 1.390 . S
C277 H281 0.950 . S
H278 C274 0.950 . S
C279 C277 1.390 . S
C279 C280 1.387 1_565 S
C279 H282 0.950 . S
C280 C279 1.387 1_545 S
C280 C283 1.387 . S
H281 C277 0.950 . S
H282 C279 0.950 . S
C283 C274 1.390 . S
C283 H276 0.950 . S
C283 C280 1.387 . S
C284 C285 1.387 . S
C284 H288 0.950 . S
C284 C293 1.390 1_556 S
C285 C284 1.387 . S
C285 C287 1.387 . S
H286 C293 0.950 . S
C287 C285 1.387 . S
C287 C289 1.390 1_556 S
C287 H291 0.950 . S
H288 C284 0.950 . S
C289 C287 1.390 1_554 S
C289 C290 1.387 . S
C289 H292 0.950 . S
C290 C289 1.387 . S
C290 C293 1.387 . S
H291 C287 0.950 . S
H292 C289 0.950 . S
C293 C284 1.390 1_554 S
C293 H286 0.950 . S
C293 C290 1.387 . S
C294 C295 1.387 . S
C294 H298 0.950 . S
C294 C303 1.390 . S
C295 C294 1.387 . S
C295 C297 1.387 . S
H296 C303 0.950 . S
C297 C295 1.387 . S
C297 C299 1.390 . S
C297 H301 0.950 . S
H298 C294 0.950 . S
C299 C297 1.390 . S
C299 C300 1.387 . S
C299 H302 0.950 . S
C300 C299 1.387 . S
C300 C303 1.387 . S
H301 C297 0.950 . S
H302 C299 0.950 . S
C303 C294 1.390 . S
C303 H296 0.950 . S
C303 C300 1.387 . S
C304 C305 1.387 . S
C304 H308 0.950 . S
C304 C313 1.390 . S
C305 C304 1.387 . S
C305 C307 1.387 . S
H306 C313 0.950 . S
C307 C305 1.387 . S
C307 C309 1.390 . S
C307 H311 0.950 . S
H308 C304 0.950 . S
C309 C307 1.390 . S
C309 C310 1.387 . S
C309 H312 0.950 . S
C310 C309 1.387 . S
C310 C313 1.387 . S
H311 C307 0.950 . S
H312 C309 0.950 . S
C313 C304 1.390 . S
C313 H306 0.950 . S
C313 C310 1.387 . S
C314 C315 1.387 . S
C314 H318 0.950 . S
C314 C323 1.390 . S
C315 C314 1.387 . S
C315 C317 1.387 . S
H316 C323 0.950 . S
C317 C315 1.387 . S
C317 C319 1.390 . S
C317 H321 0.950 . S
H318 C314 0.950 . S
C319 C317 1.390 . S
C319 C320 1.387 . S
C319 H322 0.950 . S
C320 C319 1.387 . S
C320 C323 1.387 . S
H321 C317 0.950 . S
H322 C319 0.950 . S
C323 C314 1.390 . S
C323 H316 0.950 . S
C323 C320 1.387 . S
C324 C325 1.387 . S
C324 H328 0.950 . S
C324 C333 1.390 . S
C325 C324 1.387 . S
C325 C327 1.387 . S
H326 C333 0.950 . S
C327 C325 1.387 . S
C327 C329 1.390 . S
C327 H331 0.950 . S
H328 C324 0.950 . S
C329 C327 1.390 . S
C329 C330 1.387 . S
C329 H332 0.950 . S
C330 C329 1.387 . S
C330 C333 1.387 . S
H331 C327 0.950 . S
H332 C329 0.950 . S
C333 C324 1.390 . S
C333 H326 0.950 . S
C333 C330 1.387 . S
C334 C335 1.387 . S
C334 H338 0.950 . S
C334 C343 1.390 . S
C335 C334 1.387 . S
C335 C337 1.387 . S
H336 C343 0.950 . S
C337 C335 1.387 . S
C337 C339 1.390 . S
C337 H341 0.950 . S
H338 C334 0.950 . S
C339 C337 1.390 . S
C339 C340 1.387 . S
C339 H342 0.950 . S
C340 C339 1.387 . S
C340 C343 1.387 . S
H341 C337 0.950 . S
H342 C339 0.950 . S
C343 C334 1.390 . S
C343 H336 0.950 . S
C343 C340 1.387 . S
C344 C345 1.387 . S
C344 H348 0.950 . S
C344 C353 1.390 . S
C345 C344 1.387 . S
C345 C347 1.387 . S
H346 C353 0.950 . S
C347 C345 1.387 . S
C347 C349 1.390 . S
C347 H351 0.950 . S
H348 C344 0.950 . S
C349 C347 1.390 . S
C349 C350 1.387 . S
C349 H352 0.950 . S
C350 C349 1.387 . S
C350 C353 1.387 . S
H351 C347 0.950 . S
H352 C349 0.950 . S
C353 C344 1.390 . S
C353 H346 0.950 . S
C353 C350 1.387 . S
C354 C355 1.387 . S
C354 H358 0.950 . S
C354 C363 1.390 . S
C355 C354 1.387 . S
C355 C357 1.387 . S
H356 C363 0.950 . S
C357 C355 1.387 . S
C357 C359 1.390 . S
C357 H361 0.950 . S
H358 C354 0.950 . S
C359 C357 1.390 . S
C359 C360 1.387 . S
C359 H362 0.950 . S
C360 C359 1.387 . S
C360 C363 1.387 . S
H361 C357 0.950 . S
H362 C359 0.950 . S
C363 C354 1.390 . S
C363 H356 0.950 . S
C363 C360 1.387 . S
C364 C365 1.387 . S
C364 H368 0.950 . S
C364 C373 1.390 . S
C365 C364 1.387 . S
C365 C367 1.387 . S
H366 C373 0.950 . S
C367 C365 1.387 . S
C367 C369 1.390 . S
C367 H371 0.950 . S
H368 C364 0.950 . S
C369 C367 1.390 . S
C369 C370 1.387 . S
C369 H372 0.950 . S
C370 C369 1.387 . S
C370 C373 1.387 . S
H371 C367 0.950 . S
H372 C369 0.950 . S
C373 C364 1.390 . S
C373 H366 0.950 . S
C373 C370 1.387 . S
C374 C375 1.387 . S
C374 H378 0.950 . S
C374 C383 1.390 . S
C375 C374 1.387 . S
C375 C377 1.387 . S
H376 C383 0.950 . S
C377 C375 1.387 . S
C377 C379 1.390 . S
C377 H381 0.950 . S
H378 C374 0.950 . S
C379 C377 1.390 . S
C379 C380 1.387 . S
C379 H382 0.950 . S
C380 C379 1.387 . S
C380 C383 1.387 . S
H381 C377 0.950 . S
H382 C379 0.950 . S
C383 C374 1.390 . S
C383 H376 0.950 . S
C383 C380 1.387 . S
C384 C385 1.387 . S
C384 H388 0.950 1_554 S
C384 C393 1.390 . S
C385 C384 1.387 . S
C385 C387 1.387 . S
H386 C393 0.950 . S
C387 C385 1.387 . S
C387 C389 1.390 . S
C387 H391 0.950 . S
H388 C384 0.950 1_556 S
C389 C387 1.390 . S
C389 C390 1.387 . S
C389 H392 0.950 . S
C390 C389 1.387 . S
C390 C393 1.387 . S
H391 C387 0.950 . S
H392 C389 0.950 . S
C393 C384 1.390 . S
C393 H386 0.950 . S
C393 C390 1.387 . S
C394 C395 1.387 . S
C394 H398 0.950 . S
C394 C403 1.390 . S
C395 C394 1.387 . S
C395 C397 1.387 . S
H396 C403 0.950 . S
C397 C395 1.387 . S
C397 C399 1.390 . S
C397 H401 0.950 . S
H398 C394 0.950 . S
C399 C397 1.390 . S
C399 C400 1.387 . S
C399 H402 0.950 . S
C400 C399 1.387 . S
C400 C403 1.387 . S
H401 C397 0.950 . S
H402 C399 0.950 . S
C403 C394 1.390 . S
C403 H396 0.950 . S
C403 C400 1.387 . S
C404 C405 1.387 . S
C404 H408 0.950 . S
C404 C413 1.390 . S
C405 C404 1.387 . S
C405 C407 1.387 . S
H406 C413 0.950 . S
C407 C405 1.387 . S
C407 C409 1.390 . S
C407 H411 0.950 . S
H408 C404 0.950 . S
C409 C407 1.390 . S
C409 C410 1.387 . S
C409 H412 0.950 . S
C410 C409 1.387 . S
C410 C413 1.387 . S
H411 C407 0.950 . S
H412 C409 0.950 . S
C413 C404 1.390 . S
C413 H406 0.950 . S
C413 C410 1.387 . S
C414 C415 1.387 . S
C414 H418 0.950 . S
C414 C423 1.390 . S
C415 C414 1.387 . S
C415 C417 1.387 . S
H416 C423 0.950 . S
C417 C415 1.387 . S
C417 C419 1.390 . S
C417 H421 0.950 . S
H418 C414 0.950 . S
C419 C417 1.390 . S
C419 C420 1.387 . S
C419 H422 0.950 . S
C420 C419 1.387 . S
C420 C423 1.387 . S
H421 C417 0.950 . S
H422 C419 0.950 . S
C423 C414 1.390 . S
C423 H416 0.950 . S
C423 C420 1.387 . S
C424 C425 1.387 . S
C424 H428 0.950 . S
C424 C433 1.390 . S
C425 C424 1.387 . S
C425 C427 1.387 . S
H426 C433 0.950 . S
C427 C425 1.387 . S
C427 C429 1.390 . S
C427 H431 0.950 . S
H428 C424 0.950 . S
C429 C427 1.390 . S
C429 C430 1.387 . S
C429 H432 0.950 . S
C430 C429 1.387 . S
C430 C433 1.387 . S
H431 C427 0.950 . S
H432 C429 0.950 . S
C433 C424 1.390 . S
C433 H426 0.950 . S
C433 C430 1.387 . S
C434 C435 1.387 . S
C434 H438 0.950 . S
C434 C443 1.390 . S
C435 C434 1.387 . S
C435 C437 1.387 . S
H436 C443 0.950 . S
C437 C435 1.387 . S
C437 C439 1.390 . S
C437 H441 0.950 . S
H438 C434 0.950 . S
C439 C437 1.390 . S
C439 C440 1.387 . S
C439 H442 0.950 . S
C440 C439 1.387 . S
C440 C443 1.387 . S
H441 C437 0.950 . S
H442 C439 0.950 . S
C443 C434 1.390 . S
C443 H436 0.950 . S
C443 C440 1.387 . S
C444 C445 1.387 . S
C444 H448 0.950 . S
C444 C453 1.390 . S
C445 C444 1.387 . S
C445 C447 1.387 . S
H446 C453 0.950 . S
C447 C445 1.387 . S
C447 C449 1.390 . S
C447 H451 0.950 . S
H448 C444 0.950 . S
C449 C447 1.390 . S
C449 C450 1.387 . S
C449 H452 0.950 . S
C450 C449 1.387 . S
C450 C453 1.387 . S
H451 C447 0.950 . S
H452 C449 0.950 . S
C453 C444 1.390 . S
C453 H446 0.950 . S
C453 C450 1.387 . S
C454 C455 1.387 . S
C454 H458 0.950 . S
C454 C463 1.390 . S
C455 C454 1.387 . S
C455 C457 1.387 . S
H456 C463 0.950 . S
C457 C455 1.387 . S
C457 C459 1.390 . S
C457 H461 0.950 . S
H458 C454 0.950 . S
C459 C457 1.390 . S
C459 C460 1.387 . S
C459 H462 0.950 . S
C460 C459 1.387 . S
C460 C463 1.387 . S
H461 C457 0.950 . S
H462 C459 0.950 . S
C463 C454 1.390 . S
C463 H456 0.950 . S
C463 C460 1.387 . S
C464 C465 1.387 . S
C464 H468 0.950 . S
C464 C473 1.390 . S
C465 C464 1.387 . S
C465 C467 1.387 . S
H466 C473 0.950 . S
C467 C465 1.387 . S
C467 C469 1.390 . S
C467 H471 0.950 . S
H468 C464 0.950 . S
C469 C467 1.390 . S
C469 C470 1.387 . S
C469 H472 0.950 . S
C470 C469 1.387 . S
C470 C473 1.387 . S
H471 C467 0.950 . S
H472 C469 0.950 . S
C473 C464 1.390 . S
C473 H466 0.950 . S
C473 C470 1.387 . S
C474 C475 1.387 . S
C474 H478 0.950 . S
C474 C483 1.390 . S
C475 C474 1.387 . S
C475 C477 1.387 . S
H476 C483 0.950 . S
C477 C475 1.387 . S
C477 C479 1.390 . S
C477 H481 0.950 . S
H478 C474 0.950 . S
C479 C477 1.390 . S
C479 C480 1.387 . S
C479 H482 0.950 . S
C480 C479 1.387 . S
C480 C483 1.387 . S
H481 C477 0.950 . S
H482 C479 0.950 . S
C483 C474 1.390 . S
C483 H476 0.950 . S
C483 C480 1.387 . S
C484 C485 1.387 . S
C484 H488 0.950 . S
C484 C493 1.390 . S
C485 C484 1.387 . S
C485 C487 1.387 . S
H486 C493 0.950 . S
C487 C485 1.387 . S
C487 C489 1.390 . S
C487 H491 0.950 . S
H488 C484 0.950 . S
C489 C487 1.390 . S
C489 C490 1.387 . S
C489 H492 0.950 . S
C490 C489 1.387 . S
C490 C493 1.387 . S
H491 C487 0.950 . S
H492 C489 0.950 . S
C493 C484 1.390 . S
C493 H486 0.950 . S
C493 C490 1.387 . S
C494 C495 1.387 . S
C494 H498 0.950 . S
C494 C503 1.390 . S
C495 C494 1.387 . S
C495 C497 1.387 . S
H496 C503 0.950 . S
C497 C495 1.387 . S
C497 C499 1.390 . S
C497 H501 0.950 . S
H498 C494 0.950 . S
C499 C497 1.390 . S
C499 C500 1.387 . S
C499 H502 0.950 . S
C500 C499 1.387 . S
C500 C503 1.387 . S
H501 C497 0.950 . S
H502 C499 0.950 . S
C503 C494 1.390 . S
C503 H496 0.950 . S
C503 C500 1.387 . S
C504 C505 1.387 . S
C504 H508 0.950 . S
C504 C513 1.390 . S
C505 C504 1.387 . S
C505 C507 1.387 . S
H506 C513 0.950 . S
C507 C505 1.387 . S
C507 C509 1.390 . S
C507 H511 0.950 . S
H508 C504 0.950 . S
C509 C507 1.390 . S
C509 C510 1.387 . S
C509 H512 0.950 . S
C510 C509 1.387 . S
C510 C513 1.387 . S
H511 C507 0.950 . S
H512 C509 0.950 . S
C513 C504 1.390 . S
C513 H506 0.950 . S
C513 C510 1.387 . S
C514 C515 1.387 . S
C514 H518 0.950 . S
C514 C523 1.390 . S
C515 C514 1.387 . S
C515 C517 1.387 . S
H516 C523 0.950 . S
C517 C515 1.387 . S
C517 C519 1.390 . S
C517 H521 0.950 . S
H518 C514 0.950 . S
C519 C517 1.390 . S
C519 C520 1.387 . S
C519 H522 0.950 . S
C520 C519 1.387 . S
C520 C523 1.387 . S
H521 C517 0.950 . S
H522 C519 0.950 . S
C523 C514 1.390 . S
C523 H516 0.950 . S
C523 C520 1.387 . S
C524 C525 1.387 . S
C524 H528 0.950 . S
C524 C533 1.390 . S
C525 C524 1.387 . S
C525 C527 1.387 . S
H526 C533 0.950 . S
C527 C525 1.387 . S
C527 C529 1.390 . S
C527 H531 0.950 . S
H528 C524 0.950 . S
C529 C527 1.390 . S
C529 C530 1.387 . S
C529 H532 0.950 . S
C530 C529 1.387 . S
C530 C533 1.387 . S
H531 C527 0.950 . S
H532 C529 0.950 . S
C533 C524 1.390 . S
C533 H526 0.950 . S
C533 C530 1.387 . S
C534 C535 1.387 . S
C534 H538 0.950 . S
C534 C543 1.390 . S
C535 C534 1.387 . S
C535 C537 1.387 . S
H536 C543 0.950 . S
C537 C535 1.387 . S
C537 C539 1.390 . S
C537 H541 0.950 . S
H538 C534 0.950 . S
C539 C537 1.390 . S
C539 C540 1.387 . S
C539 H542 0.950 . S
C540 C539 1.387 . S
C540 C543 1.387 . S
H541 C537 0.950 . S
H542 C539 0.950 . S
C543 C534 1.390 . S
C543 H536 0.950 . S
C543 C540 1.387 . S
C225 C11 1.222 1_655 S
C230 C67 1.222 1_655 S
C235 C81 1.221 1_565 S
C240 C25 1.221 1_565 S
C245 C39 1.221 . S
C250 C95 1.221 . S
C255 C53 1.222 . S
C260 C109 1.222 . S
C265 C123 1.221 1_455 S
C270 C179 1.221 1_455 S
C275 C193 1.222 1_545 S
C280 C137 1.222 1_545 S
C285 C151 1.222 . S
C290 C207 1.222 . S
C295 C165 1.221 . S
C300 C221 1.221 . S
C305 C9 1.495 . S
C310 C215 1.486 . S
C315 C173 1.486 . S
C320 C23 1.495 . S
C325 C37 1.495 . S
C330 C187 1.486 . S
C335 C201 1.486 . S
C340 C51 1.494 . S
C345 C131 1.486 . S
C350 C65 1.495 . S
C355 C145 1.485 . S
C360 C79 1.494 . S
C365 C159 1.485 . S
C370 C93 1.494 . S
C375 C117 1.486 . S
C380 C107 1.494 . S
C385 C121 1.495 . S
C390 C103 1.486 . S
C395 C61 1.486 . S
C400 C135 1.494 . S
C405 C75 1.487 . S
C410 C149 1.495 . S
C415 C163 1.494 . S
C420 C89 1.485 . S
C425 C19 1.486 . S
C430 C177 1.495 . S
C435 C191 1.494 . S
C440 C33 1.486 . S
C445 C205 1.495 . S
C450 C47 1.486 . S
C455 C219 1.494 . S
C460 C5 1.485 . S
C465 C98 1.238 . S
C470 C0 1.235 . S
C475 C14 1.234 . S
C480 C56 1.238 . S
C485 C28 1.234 . S
C490 C70 1.238 . S
C495 C42 1.238 . S
C500 C84 1.234 . S
C505 C210 1.234 . S
C510 C112 1.238 . S
C515 C168 1.235 . S
C520 C126 1.237 . S
C525 C182 1.238 . S
C530 C140 1.235 . S
C535 C196 1.237 . S
C540 C154 1.236 . S
