# Generated by pormake.
# Topology zfp, (5)-cn, num edge types: 1
# Building blocks:
#     Node 0, Type 0, BuildingBlock: BEQFEK_clean_sbu_0, # of connection points: 5
#     Node 1, Type 0, BuildingBlock: BEQFEK_clean_sbu_0, # of connection points: 5
#     Node 2, Type 0, BuildingBlock: BEQFEK_clean_sbu_0, # of connection points: 5
#     Node 3, Type 0, BuildingBlock: BEQFEK_clean_sbu_0, # of connection points: 5
#     Node 4, Type 0, BuildingBlock: BEQFEK_clean_sbu_0, # of connection points: 5
#     Node 5, Type 0, BuildingBlock: BEQFEK_clean_sbu_0, # of connection points: 5
#     Node 6, Type 0, BuildingBlock: BEQFEK_clean_sbu_0, # of connection points: 5
#     Node 7, Type 0, BuildingBlock: BEQFEK_clean_sbu_0, # of connection points: 5
#     Node 8, Type 0, BuildingBlock: BEQFEK_clean_sbu_0, # of connection points: 5
#     Node 9, Type 0, BuildingBlock: BEQFEK_clean_sbu_0, # of connection points: 5
#     Node 10, Type 0, BuildingBlock: BEQFEK_clean_sbu_0, # of connection points: 5
#     Node 11, Type 0, BuildingBlock: BEQFEK_clean_sbu_0, # of connection points: 5
#     Node 12, Type 0, BuildingBlock: BEQFEK_clean_sbu_0, # of connection points: 5
#     Node 13, Type 0, BuildingBlock: BEQFEK_clean_sbu_0, # of connection points: 5
#     Node 14, Type 0, BuildingBlock: BEQFEK_clean_sbu_0, # of connection points: 5
#     Node 15, Type 0, BuildingBlock: BEQFEK_clean_sbu_0, # of connection points: 5
#     Edge 16, Type (0, 0), BuildingBlock: AJUNOK_clean_linker_0, # of connection points: 2
#     Edge 17, Type (0, 0), BuildingBlock: AJUNOK_clean_linker_0, # of connection points: 2
#     Edge 18, Type (0, 0), BuildingBlock: AJUNOK_clean_linker_0, # of connection points: 2
#     Edge 19, Type (0, 0), BuildingBlock: AJUNOK_clean_linker_0, # of connection points: 2
#     Edge 20, Type (0, 0), BuildingBlock: AJUNOK_clean_linker_0, # of connection points: 2
#     Edge 21, Type (0, 0), BuildingBlock: AJUNOK_clean_linker_0, # of connection points: 2
#     Edge 22, Type (0, 0), BuildingBlock: AJUNOK_clean_linker_0, # of connection points: 2
#     Edge 23, Type (0, 0), BuildingBlock: AJUNOK_clean_linker_0, # of connection points: 2
#     Edge 24, Type (0, 0), BuildingBlock: AJUNOK_clean_linker_0, # of connection points: 2
#     Edge 25, Type (0, 0), BuildingBlock: AJUNOK_clean_linker_0, # of connection points: 2
#     Edge 26, Type (0, 0), BuildingBlock: AJUNOK_clean_linker_0, # of connection points: 2
#     Edge 27, Type (0, 0), BuildingBlock: AJUNOK_clean_linker_0, # of connection points: 2
#     Edge 28, Type (0, 0), BuildingBlock: AJUNOK_clean_linker_0, # of connection points: 2
#     Edge 29, Type (0, 0), BuildingBlock: AJUNOK_clean_linker_0, # of connection points: 2
#     Edge 30, Type (0, 0), BuildingBlock: AJUNOK_clean_linker_0, # of connection points: 2
#     Edge 31, Type (0, 0), BuildingBlock: AJUNOK_clean_linker_0, # of connection points: 2
#     Edge 32, Type (0, 0), BuildingBlock: AJUNOK_clean_linker_0, # of connection points: 2
#     Edge 33, Type (0, 0), BuildingBlock: AJUNOK_clean_linker_0, # of connection points: 2
#     Edge 34, Type (0, 0), BuildingBlock: AJUNOK_clean_linker_0, # of connection points: 2
#     Edge 35, Type (0, 0), BuildingBlock: AJUNOK_clean_linker_0, # of connection points: 2
#     Edge 36, Type (0, 0), BuildingBlock: AJUNOK_clean_linker_0, # of connection points: 2
#     Edge 37, Type (0, 0), BuildingBlock: AJUNOK_clean_linker_0, # of connection points: 2
#     Edge 38, Type (0, 0), BuildingBlock: AJUNOK_clean_linker_0, # of connection points: 2
#     Edge 39, Type (0, 0), BuildingBlock: AJUNOK_clean_linker_0, # of connection points: 2
#     Edge 40, Type (0, 0), BuildingBlock: AJUNOK_clean_linker_0, # of connection points: 2
#     Edge 41, Type (0, 0), BuildingBlock: AJUNOK_clean_linker_0, # of connection points: 2
#     Edge 42, Type (0, 0), BuildingBlock: AJUNOK_clean_linker_0, # of connection points: 2
#     Edge 43, Type (0, 0), BuildingBlock: AJUNOK_clean_linker_0, # of connection points: 2
#     Edge 44, Type (0, 0), BuildingBlock: AJUNOK_clean_linker_0, # of connection points: 2
#     Edge 45, Type (0, 0), BuildingBlock: AJUNOK_clean_linker_0, # of connection points: 2
#     Edge 46, Type (0, 0), BuildingBlock: AJUNOK_clean_linker_0, # of connection points: 2
#     Edge 47, Type (0, 0), BuildingBlock: AJUNOK_clean_linker_0, # of connection points: 2
#     Edge 48, Type (0, 0), BuildingBlock: AJUNOK_clean_linker_0, # of connection points: 2
#     Edge 49, Type (0, 0), BuildingBlock: AJUNOK_clean_linker_0, # of connection points: 2
#     Edge 50, Type (0, 0), BuildingBlock: AJUNOK_clean_linker_0, # of connection points: 2
#     Edge 51, Type (0, 0), BuildingBlock: AJUNOK_clean_linker_0, # of connection points: 2
#     Edge 52, Type (0, 0), BuildingBlock: AJUNOK_clean_linker_0, # of connection points: 2
#     Edge 53, Type (0, 0), BuildingBlock: AJUNOK_clean_linker_0, # of connection points: 2
#     Edge 54, Type (0, 0), BuildingBlock: AJUNOK_clean_linker_0, # of connection points: 2
#     Edge 55, Type (0, 0), BuildingBlock: AJUNOK_clean_linker_0, # of connection points: 2
# Relax obj value: 0.102
# Max RMSD: 0.149
# Mean RMSD: 0.149
data_MOF--net-zfp--node1-BEQFEK_clean_sbu_0--edge1-AJUNOK_clean_linker_0
_symmetry_space_group_name_H-M    P1
_symmetry_Int_Tables_number       1
_symmetry_cell_setting            triclinic
loop_
_symmetry_equiv_pos_as_xyz
'x, y, z'
_cell_length_a     22.843181
_cell_length_b     22.832864
_cell_length_c     62.22296
_cell_angle_alpha  89.885295
_cell_angle_beta   89.951973
_cell_angle_gamma 89.992393
loop_
_atom_site_label
_atom_site_type_symbol
_atom_site_fract_x
_atom_site_fract_y
_atom_site_fract_z
_atom_type_partial_charge
Co0 Co 0.15916 0.31197 0.16392 0.0
Co1 Co 0.1423 0.30716 0.11411 0.0
C2 C 0.06966 0.23381 0.14167 0.0
O3 O 0.09464 0.2563 0.15799 0.0
O4 O 0.08974 0.24224 0.12279 0.0
C5 C 0.13971 0.32149 0.20774 0.0
O6 O 0.08836 0.33673 0.20008 0.0
C7 C 0.14853 0.28003 0.0676 0.0
C8 C 0.11783 0.36433 0.05415 0.0
C9 C 0.13497 0.30838 0.04852 0.0
N10 N 0.13913 0.31763 0.08385 0.0
N11 N 0.12089 0.36787 0.07565 0.0
C12 C 0.16636 0.21753 0.07042 0.0
H13 H 0.17195 0.20687 0.08772 0.0
H14 H 0.20801 0.20934 0.06176 0.0
H15 H 0.13259 0.18859 0.06327 0.0
C16 C 0.28369 0.30141 0.15101 0.0
N17 N 0.22624 0.30289 0.14614 0.0
N18 N 0.22 0.30388 0.12514 0.0
C19 C 0.27353 0.30536 0.11594 0.0
C20 C 0.31601 0.30327 0.13204 0.0
C21 C 0.3066 0.29653 0.17347 0.0
H22 H 0.27905 0.26571 0.18284 0.0
H23 H 0.3525 0.28074 0.17376 0.0
H24 H 0.30425 0.3401 0.1813 0.0
O25 O 0.12033 0.38873 0.15964 0.0
O26 O 0.10094 0.37506 0.12524 0.0
H27 H 0.32865 0.33102 0.08922 0.0
H28 H 0.27653 0.27352 0.08371 0.0
C29 C 0.28355 0.31519 0.09243 0.0
H30 H 0.25183 0.34783 0.08623 0.0
H31 H 0.11 0.40464 0.08473 0.0
O32 O 0.17986 0.30738 0.19462 0.0
C33 C 0.09383 0.4035 0.1425 0.0
Co34 Co 0.68861 0.14318 0.65678 0.0
Co35 Co 0.67229 0.14706 0.60659 0.0
C36 C 0.75415 0.06104 0.6289 0.0
O37 O 0.74641 0.08243 0.64767 0.0
O38 O 0.73076 0.08451 0.61236 0.0
C39 C 0.71883 0.1389 0.70305 0.0
O40 O 0.76462 0.10692 0.69804 0.0
C41 C 0.70141 0.15669 0.56015 0.0
C42 C 0.61593 0.18624 0.54751 0.0
C43 C 0.6728 0.17346 0.54147 0.0
N44 N 0.66319 0.16056 0.57657 0.0
N45 N 0.61208 0.17748 0.5688 0.0
C46 C 0.76391 0.13855 0.56248 0.0
H47 H 0.78098 0.15253 0.57836 0.0
H48 H 0.79107 0.15727 0.54935 0.0
H49 H 0.76652 0.09007 0.56166 0.0
C50 C 0.70363 0.27112 0.64956 0.0
N51 N 0.69539 0.2162 0.64218 0.0
N52 N 0.68621 0.21825 0.62136 0.0
C53 C 0.68693 0.27465 0.61485 0.0
C54 C 0.69782 0.31035 0.63252 0.0
C55 C 0.71972 0.28493 0.6723 0.0
H56 H 0.75044 0.25129 0.67851 0.0
H57 H 0.74032 0.32879 0.6736 0.0
H58 H 0.67967 0.28379 0.6824 0.0
O59 O 0.61311 0.10446 0.65089 0.0
O60 O 0.59892 0.11118 0.61582 0.0
H61 H 0.67196 0.34231 0.59077 0.0
H62 H 0.7052 0.27531 0.5811 0.0
C63 C 0.67275 0.29402 0.59245 0.0
H64 H 0.62886 0.27738 0.58807 0.0
H65 H 0.57462 0.18368 0.57814 0.0
O66 O 0.68539 0.15727 0.68821 0.0
C67 C 0.58285 0.09345 0.63426 0.0
Co68 Co 0.86864 0.69265 0.16271 0.0
Co69 Co 0.8828 0.68354 0.11212 0.0
C70 C 0.96074 0.76085 0.13884 0.0
O71 O 0.93507 0.7467 0.15635 0.0
O72 O 0.94231 0.74291 0.12065 0.0
C73 C 0.83945 0.73179 0.20733 0.0
O74 O 0.84282 0.78668 0.20108 0.0
C75 C 0.8765 0.71204 0.06512 0.0
C76 C 0.90062 0.6259 0.05162 0.0
C77 C 0.88714 0.68285 0.04591 0.0
N78 N 0.88398 0.67387 0.08146 0.0
N79 N 0.89828 0.62256 0.07315 0.0
C80 C 0.86341 0.77568 0.06798 0.0
H81 H 0.86363 0.78751 0.08528 0.0
H82 H 0.81984 0.78582 0.06105 0.0
H83 H 0.8963 0.80222 0.05913 0.0
C84 C 0.74387 0.70915 0.1494 0.0
N85 N 0.80116 0.70266 0.14458 0.0
N86 N 0.80663 0.69627 0.12364 0.0
C87 C 0.75292 0.6963 0.11461 0.0
C88 C 0.71102 0.70513 0.13059 0.0
C89 C 0.72164 0.72083 0.17161 0.0
H90 H 0.72713 0.68089 0.1816 0.0
H91 H 0.74783 0.75638 0.17891 0.0
H92 H 0.67504 0.7343 0.17166 0.0
O93 O 0.90453 0.61489 0.15871 0.0
O94 O 0.91389 0.60983 0.12331 0.0
H95 H 0.77137 0.64521 0.08652 0.0
H96 H 0.69573 0.66732 0.08902 0.0
C97 C 0.74177 0.68113 0.09158 0.0
H98 H 0.75104 0.71988 0.08138 0.0
H99 H 0.90714 0.58512 0.0822 0.0
O100 O 0.84749 0.69097 0.1938 0.0
C101 C 0.92117 0.58817 0.14191 0.0
Co102 Co 0.30044 0.86765 0.65947 0.0
Co103 Co 0.30823 0.85799 0.60908 0.0
C104 C 0.22997 0.94589 0.62949 0.0
O105 O 0.2432 0.92746 0.6483 0.0
O106 O 0.24908 0.92051 0.61263 0.0
C107 C 0.25598 0.83875 0.70251 0.0
O108 O 0.20783 0.82085 0.69304 0.0
C109 C 0.29154 0.8507 0.56161 0.0
C110 C 0.37088 0.80054 0.55295 0.0
C111 C 0.32171 0.82693 0.54427 0.0
N112 N 0.32182 0.83869 0.57967 0.0
N113 N 0.36925 0.80902 0.57429 0.0
C114 C 0.23389 0.88167 0.56133 0.0
H115 H 0.20719 0.86761 0.57533 0.0
H116 H 0.20978 0.87288 0.5462 0.0
H117 H 0.24154 0.9295 0.56281 0.0
C118 C 0.29812 0.73763 0.65489 0.0
N119 N 0.2965 0.7922 0.6465 0.0
N120 N 0.29401 0.78847 0.62544 0.0
C121 C 0.29054 0.73138 0.61985 0.0
C122 C 0.2933 0.69704 0.63833 0.0
C123 C 0.31307 0.72433 0.67782 0.0
H124 H 0.34301 0.75823 0.68427 0.0
H125 H 0.27258 0.72387 0.68762 0.0
H126 H 0.33429 0.68076 0.67929 0.0
O127 O 0.37605 0.90368 0.65376 0.0
O128 O 0.38111 0.89772 0.61829 0.0
H129 H 0.32683 0.70283 0.59002 0.0
H130 H 0.25889 0.66791 0.59704 0.0
C131 C 0.2831 0.71005 0.5973 0.0
H132 H 0.25901 0.74287 0.58758 0.0
H133 H 0.40053 0.79439 0.58528 0.0
O134 O 0.29681 0.86079 0.69123 0.0
C135 C 0.40199 0.91476 0.63618 0.0
Co136 Co 0.65667 0.17961 0.83811 0.0
Co137 Co 0.64387 0.18091 0.88844 0.0
C138 C 0.56694 0.25496 0.86053 0.0
O139 O 0.59139 0.23603 0.84342 0.0
O140 O 0.58642 0.24146 0.87912 0.0
C141 C 0.64525 0.17886 0.79171 0.0
O142 O 0.58907 0.18544 0.79557 0.0
C143 C 0.65323 0.21703 0.93416 0.0
C144 C 0.63753 0.13183 0.95011 0.0
C145 C 0.64803 0.19035 0.9541 0.0
N146 N 0.64555 0.17585 0.91898 0.0
N147 N 0.6363 0.12514 0.92869 0.0
C148 C 0.66326 0.28052 0.92962 0.0
H149 H 0.66791 0.28825 0.91207 0.0
H150 H 0.70317 0.29572 0.93808 0.0
H151 H 0.62575 0.30626 0.93589 0.0
C152 C 0.78165 0.19865 0.85018 0.0
N153 N 0.72468 0.19203 0.85548 0.0
N154 N 0.72007 0.18921 0.87651 0.0
C155 C 0.77415 0.19161 0.88524 0.0
C156 C 0.81532 0.19824 0.86883 0.0
C157 C 0.8031 0.20736 0.82768 0.0
H158 H 0.77113 0.23368 0.81838 0.0
H159 H 0.84607 0.22999 0.82741 0.0
H160 H 0.80791 0.16398 0.81989 0.0
O161 O 0.61841 0.10323 0.84392 0.0
O162 O 0.6071 0.10782 0.87924 0.0
H163 H 0.83284 0.16991 0.91139 0.0
H164 H 0.77598 0.22217 0.91767 0.0
C165 C 0.78633 0.18172 0.90861 0.0
H166 H 0.7581 0.14602 0.91482 0.0
H167 H 0.62952 0.0857 0.92069 0.0
O168 O 0.68069 0.17737 0.8074 0.0
C169 C 0.5985 0.08222 0.86144 0.0
Co170 Co 0.81938 0.64444 0.33998 0.0
Co171 Co 0.80829 0.65311 0.39039 0.0
C172 C 0.73795 0.56618 0.36662 0.0
O173 O 0.75866 0.58478 0.34876 0.0
O174 O 0.74902 0.59208 0.38433 0.0
C175 C 0.78447 0.6776 0.29662 0.0
O176 O 0.73828 0.7006 0.30595 0.0
C177 C 0.78853 0.6527 0.43783 0.0
C178 C 0.84974 0.72302 0.44729 0.0
C179 C 0.80991 0.68322 0.45547 0.0
N180 N 0.81378 0.67464 0.41999 0.0
N181 N 0.85071 0.71617 0.42586 0.0
C182 C 0.74602 0.60293 0.43784 0.0
H183 H 0.71194 0.61078 0.42547 0.0
H184 H 0.72506 0.59741 0.45382 0.0
H185 H 0.76942 0.56205 0.43346 0.0
C186 C 0.81832 0.77506 0.34505 0.0
N187 N 0.81315 0.71997 0.35286 0.0
N188 N 0.80063 0.72273 0.37343 0.0
C189 C 0.79296 0.77945 0.37898 0.0
C190 C 0.80553 0.81486 0.36131 0.0
C191 C 0.8409 0.78976 0.32311 0.0
H192 H 0.86883 0.75384 0.31691 0.0
H193 H 0.80352 0.79654 0.31203 0.0
H194 H 0.86668 0.83096 0.32351 0.0
O195 O 0.89091 0.60501 0.34912 0.0
O196 O 0.88179 0.6089 0.38467 0.0
H197 H 0.80078 0.81306 0.41106 0.0
H198 H 0.73669 0.83689 0.39702 0.0
C199 C 0.76615 0.79893 0.39976 0.0
H200 H 0.74099 0.76264 0.40723 0.0
H201 H 0.87757 0.73915 0.41521 0.0
O202 O 0.82254 0.65143 0.30804 0.0
C203 C 0.90787 0.59069 0.36787 0.0
Co204 Co 0.35192 0.82739 0.83402 0.0
Co205 Co 0.35344 0.8098 0.88397 0.0
C206 C 0.4376 0.74552 0.85883 0.0
O207 O 0.41641 0.77154 0.84234 0.0
O208 O 0.41249 0.74926 0.87714 0.0
C209 C 0.31389 0.78835 0.79185 0.0
O210 O 0.29708 0.74044 0.80182 0.0
C211 C 0.35155 0.78865 0.93164 0.0
C212 C 0.29242 0.86103 0.94089 0.0
C213 C 0.3237 0.81426 0.94915 0.0
N214 N 0.33641 0.81873 0.91382 0.0
N215 N 0.3016 0.86214 0.9196 0.0
C216 C 0.38989 0.73562 0.93164 0.0
H217 H 0.43629 0.74975 0.93056 0.0
H218 H 0.38022 0.70829 0.91735 0.0
H219 H 0.3838 0.70952 0.94655 0.0
C220 C 0.22375 0.81815 0.84177 0.0
N221 N 0.27987 0.81557 0.84845 0.0
N222 N 0.281 0.80142 0.8689 0.0
C223 C 0.22562 0.79101 0.87559 0.0
C224 C 0.18718 0.80147 0.85863 0.0
C225 C 0.20517 0.8442 0.82073 0.0
H226 H 0.23756 0.87732 0.81532 0.0
H227 H 0.2025 0.80953 0.80836 0.0
H228 H 0.16138 0.86493 0.82216 0.0
O229 O 0.38568 0.90269 0.8414 0.0
O230 O 0.39652 0.88266 0.87598 0.0
H231 H 0.19791 0.80633 0.90789 0.0
H232 H 0.17174 0.7389 0.89663 0.0
C233 C 0.20996 0.76882 0.89749 0.0
H234 H 0.24757 0.74536 0.90478 0.0
H235 H 0.28345 0.89225 0.90886 0.0
O236 O 0.33942 0.82839 0.80246 0.0
C237 C 0.40709 0.91485 0.85968 0.0
Co238 Co 0.15966 0.35266 0.34397 0.0
Co239 Co 0.18347 0.35096 0.39329 0.0
C240 C 0.24317 0.43792 0.36641 0.0
O241 O 0.2156 0.41726 0.35028 0.0
O242 O 0.24019 0.41319 0.38481 0.0
C243 C 0.19121 0.3394 0.2991 0.0
O244 O 0.24583 0.33918 0.3057 0.0
C245 C 0.21494 0.35851 0.43951 0.0
C246 C 0.15682 0.29003 0.45281 0.0
C247 C 0.1977 0.3318 0.45858 0.0
N248 N 0.18572 0.33315 0.42323 0.0
N249 N 0.15105 0.2924 0.43135 0.0
C250 C 0.2582 0.40705 0.43667 0.0
H251 H 0.29037 0.39467 0.4241 0.0
H252 H 0.28163 0.41669 0.45187 0.0
H253 H 0.23505 0.44693 0.43101 0.0
C254 C 0.17844 0.22575 0.34878 0.0
N255 N 0.1778 0.28049 0.35678 0.0
N256 N 0.19197 0.27923 0.37722 0.0
C257 C 0.20518 0.22326 0.38261 0.0
C258 C 0.19643 0.18731 0.36481 0.0
C259 C 0.15667 0.21032 0.32681 0.0
H260 H 0.11809 0.23766 0.32273 0.0
H261 H 0.1915 0.21949 0.31485 0.0
H262 H 0.14436 0.16339 0.32582 0.0
O263 O 0.08536 0.38124 0.35427 0.0
O264 O 0.10578 0.39073 0.38889 0.0
H265 H 0.19395 0.18836 0.41424 0.0
H266 H 0.26166 0.16844 0.40164 0.0
C267 C 0.22984 0.20472 0.40383 0.0
H268 H 0.2519 0.242 0.41184 0.0
H269 H 0.12221 0.26717 0.42224 0.0
O270 O 0.15035 0.34434 0.31277 0.0
C271 C 0.07191 0.39916 0.3729 0.0
Co272 Co 0.85271 0.6594 0.84107 0.0
Co273 Co 0.85379 0.68961 0.89036 0.0
C274 C 0.93741 0.74779 0.86164 0.0
O275 O 0.91516 0.71835 0.84627 0.0
O276 O 0.91441 0.74683 0.88038 0.0
C277 C 0.83204 0.68958 0.79659 0.0
O278 O 0.8285 0.74339 0.80391 0.0
C279 C 0.8662 0.72 0.93684 0.0
C280 C 0.7938 0.66754 0.95045 0.0
C281 C 0.83904 0.70465 0.9561 0.0
N282 N 0.83759 0.69355 0.92061 0.0
N283 N 0.79464 0.66209 0.92896 0.0
C284 C 0.91873 0.75822 0.93383 0.0
H285 H 0.95605 0.73103 0.92827 0.0
H286 H 0.90963 0.79114 0.92113 0.0
H287 H 0.93074 0.78086 0.94897 0.0
C288 C 0.726 0.67453 0.84687 0.0
N289 N 0.78111 0.67603 0.8545 0.0
N290 N 0.78078 0.69394 0.87455 0.0
C291 C 0.7249 0.70773 0.8799 0.0
C292 C 0.68817 0.69528 0.86259 0.0
C293 C 0.70969 0.64872 0.82559 0.0
H294 H 0.73842 0.61084 0.82195 0.0
H295 H 0.71593 0.68203 0.81281 0.0
H296 H 0.66331 0.63424 0.82548 0.0
O297 O 0.88672 0.58823 0.85231 0.0
O298 O 0.89691 0.61352 0.88652 0.0
H299 H 0.68869 0.70429 0.91157 0.0
H300 H 0.67254 0.77021 0.89713 0.0
C301 C 0.70718 0.73723 0.90034 0.0
H302 H 0.74528 0.75899 0.90795 0.0
H303 H 0.76698 0.6352 0.92 0.0
O304 O 0.8422 0.64813 0.80973 0.0
C305 C 0.90742 0.57887 0.87094 0.0
Co306 Co 0.32277 0.84847 0.33632 0.0
Co307 Co 0.31518 0.85457 0.38682 0.0
C308 C 0.24687 0.93699 0.36178 0.0
O309 O 0.26907 0.91407 0.34489 0.0
O310 O 0.25446 0.91386 0.38028 0.0
C311 C 0.34358 0.86032 0.29093 0.0
O312 O 0.37421 0.90597 0.29712 0.0
C313 C 0.29629 0.85265 0.43447 0.0
C314 C 0.3773 0.80642 0.44404 0.0
C315 C 0.32643 0.8307 0.45215 0.0
N316 N 0.32819 0.84142 0.41672 0.0
N317 N 0.37664 0.81428 0.42266 0.0
C318 C 0.23707 0.88045 0.43417 0.0
H319 H 0.21255 0.86597 0.41973 0.0
H320 H 0.21207 0.86952 0.44895 0.0
H321 H 0.24231 0.9287 0.43314 0.0
C322 C 0.31116 0.72183 0.346 0.0
N323 N 0.31223 0.77835 0.35218 0.0
N324 N 0.30432 0.78109 0.37304 0.0
C325 C 0.29565 0.7264 0.38074 0.0
C326 C 0.30052 0.68657 0.36386 0.0
C327 C 0.32346 0.70192 0.32356 0.0
H328 H 0.35678 0.73065 0.31599 0.0
H329 H 0.28252 0.70474 0.31405 0.0
H330 H 0.33937 0.656 0.32331 0.0
O331 O 0.40011 0.88236 0.34178 0.0
O332 O 0.3874 0.89436 0.37679 0.0
H333 H 0.31864 0.7089 0.41341 0.0
H334 H 0.25326 0.67195 0.40454 0.0
C335 C 0.2786 0.71333 0.40348 0.0
H336 H 0.25197 0.74976 0.41006 0.0
H337 H 0.40893 0.80018 0.41198 0.0
O338 O 0.3158 0.83098 0.30502 0.0
C339 C 0.41673 0.90328 0.35969 0.0
Co340 Co 0.14605 0.32048 0.84425 0.0
Co341 Co 0.15701 0.3101 0.89423 0.0
C342 C 0.06663 0.24206 0.8703 0.0
O343 O 0.08488 0.26083 0.85213 0.0
O344 O 0.09344 0.25417 0.8877 0.0
C345 C 0.15802 0.29028 0.79893 0.0
O346 O 0.16048 0.23547 0.80532 0.0
C347 C 0.15582 0.2769 0.94013 0.0
C348 C 0.21878 0.34105 0.95322 0.0
C349 C 0.18158 0.29595 0.95905 0.0
N350 N 0.17741 0.30904 0.92383 0.0
N351 N 0.2149 0.34733 0.93179 0.0
C352 C 0.1109 0.22981 0.93755 0.0
H353 H 0.12431 0.19995 0.92439 0.0
H354 H 0.10519 0.20436 0.95262 0.0
H355 H 0.06852 0.24996 0.93293 0.0
C356 C 0.27593 0.31061 0.84756 0.0
N357 N 0.22173 0.30948 0.85624 0.0
N358 N 0.22605 0.30075 0.87705 0.0
C359 C 0.28308 0.29274 0.88209 0.0
C360 C 0.31701 0.30031 0.86365 0.0
C361 C 0.28823 0.32579 0.82458 0.0
H362 H 0.25818 0.36096 0.81916 0.0
H363 H 0.28073 0.28657 0.81446 0.0
H364 H 0.33405 0.34075 0.82236 0.0
O365 O 0.11159 0.39311 0.85443 0.0
O366 O 0.11704 0.38683 0.88988 0.0
H367 H 0.31476 0.3096 0.91387 0.0
H368 H 0.3444 0.2448 0.90173 0.0
C369 C 0.30416 0.27163 0.90353 0.0
H370 H 0.26982 0.24508 0.91155 0.0
H371 H 0.2366 0.37893 0.92264 0.0
O372 O 0.15153 0.33041 0.81281 0.0
C373 C 0.09988 0.41315 0.87297 0.0
Co374 Co 0.68056 0.15124 0.33544 0.0
Co375 Co 0.68773 0.14331 0.38568 0.0
C376 C 0.76075 0.06538 0.35935 0.0
O377 O 0.73798 0.08753 0.34241 0.0
O378 O 0.75082 0.08724 0.37789 0.0
C379 C 0.71969 0.17978 0.29154 0.0
O380 O 0.7731 0.18415 0.29919 0.0
C381 C 0.71345 0.15158 0.43277 0.0
C382 C 0.62303 0.16499 0.44453 0.0
C383 C 0.68056 0.16095 0.45118 0.0
N384 N 0.67662 0.15062 0.41587 0.0
N385 N 0.62273 0.15802 0.42313 0.0
C386 C 0.77847 0.14643 0.43118 0.0
H387 H 0.79301 0.1509 0.41423 0.0
H388 H 0.79963 0.18036 0.4413 0.0
H389 H 0.79207 0.10293 0.43741 0.0
C390 C 0.69331 0.27934 0.34553 0.0
N391 N 0.69064 0.22229 0.3514 0.0
N392 N 0.69336 0.21875 0.37247 0.0
C393 C 0.69746 0.27334 0.38068 0.0
C394 C 0.6979 0.31388 0.3639 0.0
C395 C 0.69413 0.29987 0.32268 0.0
H396 H 0.73577 0.2859 0.31512 0.0
H397 H 0.69108 0.34812 0.32132 0.0
H398 H 0.6575 0.27941 0.31373 0.0
O399 O 0.6049 0.11301 0.3417 0.0
O400 O 0.61722 0.10118 0.37662 0.0
H401 H 0.69653 0.33424 0.40749 0.0
H402 H 0.73566 0.26623 0.41196 0.0
C403 C 0.69685 0.28651 0.40425 0.0
H404 H 0.6571 0.26721 0.4116 0.0
H405 H 0.58567 0.15962 0.41336 0.0
O406 O 0.6778 0.16704 0.30413 0.0
C407 C 0.58852 0.09141 0.35957 0.0
Co408 Co 0.38117 0.82225 0.15574 0.0
Co409 Co 0.37065 0.81979 0.10523 0.0
C410 C 0.4601 0.74745 0.12747 0.0
O411 O 0.44208 0.76437 0.14592 0.0
O412 O 0.4334 0.76171 0.11022 0.0
C413 C 0.36042 0.78846 0.20106 0.0
O414 O 0.34478 0.73645 0.19414 0.0
C415 C 0.36009 0.79469 0.05819 0.0
C416 C 0.30402 0.8694 0.04879 0.0
C417 C 0.33158 0.82009 0.04078 0.0
N418 N 0.3489 0.82733 0.07574 0.0
N419 N 0.31599 0.87217 0.06987 0.0
C420 C 0.39568 0.73979 0.05836 0.0
H421 H 0.38505 0.71361 0.07289 0.0
H422 H 0.38779 0.71341 0.04368 0.0
H423 H 0.44276 0.75156 0.05916 0.0
C424 C 0.25107 0.81506 0.15167 0.0
N425 N 0.30561 0.81406 0.14327 0.0
N426 N 0.30189 0.80782 0.12233 0.0
C427 C 0.24503 0.80105 0.11689 0.0
C428 C 0.21049 0.80675 0.13526 0.0
C429 C 0.23778 0.82947 0.17462 0.0
H430 H 0.27058 0.86075 0.18094 0.0
H431 H 0.23939 0.78879 0.18437 0.0
H432 H 0.19351 0.849 0.17624 0.0
O433 O 0.41524 0.89666 0.14735 0.0
O434 O 0.41073 0.89495 0.11182 0.0
H435 H 0.21717 0.8235 0.08509 0.0
H436 H 0.18342 0.75844 0.09577 0.0
C437 C 0.22487 0.78371 0.09491 0.0
H438 H 0.2588 0.75678 0.08686 0.0
H439 H 0.3011 0.90442 0.08041 0.0
O440 O 0.37702 0.82695 0.18761 0.0
C441 C 0.4271 0.91921 0.1292 0.0
Co442 Co 0.19138 0.35268 0.66408 0.0
Co443 Co 0.18858 0.37129 0.61407 0.0
C444 C 0.26561 0.44354 0.64089 0.0
O445 O 0.24676 0.41776 0.65775 0.0
O446 O 0.25422 0.42385 0.62219 0.0
C447 C 0.18342 0.36273 0.70949 0.0
O448 O 0.17052 0.4172 0.70455 0.0
C449 C 0.21224 0.36554 0.56721 0.0
C450 C 0.12798 0.39849 0.5546 0.0
C451 C 0.18303 0.37987 0.54837 0.0
N452 N 0.17601 0.37577 0.58385 0.0
N453 N 0.12578 0.39541 0.57614 0.0
C454 C 0.27448 0.34631 0.56948 0.0
H455 H 0.28729 0.34448 0.58667 0.0
H456 H 0.2801 0.30235 0.56223 0.0
H457 H 0.30349 0.37702 0.56062 0.0
C458 C 0.19909 0.2286 0.65024 0.0
N459 N 0.19731 0.28626 0.64556 0.0
N460 N 0.19257 0.29294 0.62465 0.0
C461 C 0.18861 0.23947 0.61544 0.0
C462 C 0.19228 0.19655 0.63139 0.0
C463 C 0.21091 0.20514 0.67227 0.0
H464 H 0.16951 0.20534 0.68158 0.0
H465 H 0.24306 0.23348 0.68061 0.0
H466 H 0.22843 0.15986 0.67169 0.0
O467 O 0.11496 0.39327 0.66134 0.0
O468 O 0.12191 0.41223 0.62656 0.0
H469 H 0.14672 0.2639 0.58588 0.0
H470 H 0.15703 0.186 0.58927 0.0
C471 C 0.17676 0.22973 0.59208 0.0
H472 H 0.21854 0.23248 0.58306 0.0
H473 H 0.08999 0.40728 0.58561 0.0
O474 O 0.19663 0.32744 0.69451 0.0
C475 C 0.09677 0.4194 0.64456 0.0
Co476 Co 0.64558 0.19742 0.15825 0.0
Co477 Co 0.65974 0.20681 0.10811 0.0
C478 C 0.56833 0.27497 0.13029 0.0
O479 O 0.5848 0.25521 0.14852 0.0
O480 O 0.59687 0.26404 0.11316 0.0
C481 C 0.67382 0.2339 0.2017 0.0
O482 O 0.69749 0.2801 0.19254 0.0
C483 C 0.66257 0.23374 0.06146 0.0
C484 C 0.72977 0.17083 0.05057 0.0
C485 C 0.69213 0.21407 0.04335 0.0
N486 N 0.68278 0.20414 0.07864 0.0
N487 N 0.72266 0.16641 0.07195 0.0
C488 C 0.61543 0.2791 0.06246 0.0
H489 H 0.62537 0.31069 0.07548 0.0
H490 H 0.61121 0.30299 0.04699 0.0
H491 H 0.57322 0.25754 0.06641 0.0
C492 C 0.77515 0.19843 0.15514 0.0
N493 N 0.72156 0.2056 0.14643 0.0
N494 N 0.72714 0.21715 0.12584 0.0
C495 C 0.78468 0.22255 0.12118 0.0
C496 C 0.81718 0.20994 0.13951 0.0
C497 C 0.78566 0.17116 0.17672 0.0
H498 H 0.74904 0.1414 0.18098 0.0
H499 H 0.78857 0.20577 0.18911 0.0
H500 H 0.82736 0.14617 0.17682 0.0
O501 O 0.61285 0.12338 0.14922 0.0
O502 O 0.61929 0.13065 0.11372 0.0
H503 H 0.8231 0.2054 0.09043 0.0
H504 H 0.84684 0.27218 0.10266 0.0
C505 C 0.80832 0.24341 0.10006 0.0
H506 H 0.77441 0.26794 0.09102 0.0
H507 H 0.74414 0.13666 0.08196 0.0
O508 O 0.64928 0.19539 0.19007 0.0
C509 C 0.60221 0.10362 0.13054 0.0
Co510 Co 0.80647 0.64952 0.66074 0.0
Co511 Co 0.83493 0.64276 0.61139 0.0
C512 C 0.75006 0.55979 0.63362 0.0
O513 O 0.75273 0.585 0.65188 0.0
O514 O 0.77764 0.58004 0.61743 0.0
C515 C 0.8065 0.63145 0.70578 0.0
O516 O 0.82059 0.57826 0.69962 0.0
C517 C 0.81018 0.65431 0.565 0.0
C518 C 0.8965 0.63194 0.55117 0.0
C519 C 0.83959 0.64626 0.54573 0.0
N520 N 0.84819 0.64507 0.58116 0.0
N521 N 0.89966 0.63178 0.57275 0.0
C522 C 0.7464 0.66643 0.56805 0.0
H523 H 0.73373 0.66044 0.58514 0.0
H524 H 0.73664 0.71212 0.56317 0.0
H525 H 0.7202 0.63699 0.55763 0.0
C526 C 0.79114 0.77563 0.64861 0.0
N527 N 0.80117 0.71911 0.64342 0.0
N528 N 0.81596 0.71646 0.62302 0.0
C529 C 0.81838 0.77107 0.61481 0.0
C530 C 0.8019 0.81077 0.63067 0.0
C531 C 0.77085 0.79521 0.6703 0.0
H532 H 0.74117 0.76193 0.67738 0.0
H533 H 0.74761 0.8378 0.66933 0.0
H534 H 0.80941 0.80007 0.68098 0.0
O535 O 0.88568 0.6125 0.65914 0.0
O536 O 0.90642 0.61386 0.62433 0.0
H537 H 0.88117 0.75575 0.58978 0.0
H538 H 0.85861 0.83131 0.59231 0.0
C539 C 0.84365 0.78513 0.59319 0.0
H540 H 0.80999 0.77777 0.58067 0.0
H541 H 0.93684 0.62169 0.58176 0.0
O542 O 0.79538 0.66967 0.69149 0.0
C543 C 0.91979 0.60061 0.64355 0.0
C544 C 0.20923 0.31994 0.23882 0.0
C545 C 0.15141 0.32384 0.23113 0.0
C546 C 0.22169 0.32477 0.26079 0.0
C547 C 0.17682 0.3334 0.27596 0.0
H548 H 0.2454 0.31398 0.22776 0.0
H549 H 0.26696 0.322 0.26587 0.0
S550 S 0.0175 0.34386 0.26422 0.0
N551 N 0.04855 0.33489 0.24051 0.0
N552 N 0.07173 0.34392 0.28171 0.0
C553 C 0.1186 0.33632 0.26851 0.0
C554 C 0.10598 0.33157 0.24614 0.0
C555 C 0.62977 0.18411 0.75194 0.0
C556 C 0.66663 0.17059 0.76933 0.0
C557 C 0.64764 0.17476 0.73068 0.0
C558 C 0.70301 0.15085 0.72583 0.0
H559 H 0.58648 0.20195 0.75472 0.0
H560 H 0.61713 0.18556 0.71795 0.0
S561 S 0.81682 0.10876 0.76552 0.0
N562 N 0.76178 0.13283 0.78026 0.0
N563 N 0.79522 0.11508 0.74031 0.0
C564 C 0.7407 0.13774 0.74305 0.0
C565 C 0.7226 0.14768 0.76476 0.0
C566 C 0.7763 0.74098 0.26383 0.0
C567 C 0.79651 0.68907 0.27357 0.0
C568 C 0.79089 0.75491 0.24248 0.0
C569 C 0.82511 0.71679 0.22994 0.0
H570 H 0.75021 0.77187 0.27292 0.0
H571 H 0.77481 0.79558 0.23571 0.0
S572 S 0.88756 0.57453 0.24772 0.0
N573 N 0.85207 0.59919 0.26898 0.0
N574 N 0.87827 0.62446 0.2288 0.0
C575 C 0.8447 0.66423 0.23939 0.0
C576 C 0.83076 0.65062 0.26121 0.0
C577 C 0.32723 0.84354 0.75751 0.0
C578 C 0.29805 0.79927 0.76906 0.0
C579 C 0.31241 0.85654 0.7362 0.0
C580 C 0.26721 0.82638 0.72557 0.0
H581 H 0.36229 0.86825 0.76492 0.0
H582 H 0.33681 0.89057 0.72799 0.0
S583 S 0.17604 0.70731 0.74874 0.0
N584 N 0.22104 0.72564 0.76836 0.0
N585 N 0.19292 0.75034 0.7283 0.0
C586 C 0.23704 0.78243 0.73698 0.0
C587 C 0.25262 0.76871 0.75868 0.0
C588 C 0.83191 0.6189 0.76592 0.0
C589 C 0.82317 0.67638 0.77343 0.0
C590 C 0.82513 0.6048 0.74417 0.0
C591 C 0.80915 0.64747 0.72892 0.0
H592 H 0.84481 0.5843 0.77687 0.0
H593 H 0.83334 0.56002 0.7393 0.0
S594 S 0.77814 0.80417 0.7403 0.0
N595 N 0.7956 0.77607 0.7639 0.0
N596 N 0.78267 0.74955 0.72304 0.0
C597 C 0.79901 0.70497 0.73624 0.0
C598 C 0.80611 0.71941 0.75845 0.0
C599 C 0.37736 0.87412 0.25298 0.0
C600 C 0.34529 0.84116 0.26807 0.0
C601 C 0.38215 0.85638 0.23152 0.0
C602 C 0.35543 0.80461 0.22413 0.0
H603 H 0.39935 0.91406 0.25774 0.0
H604 H 0.40744 0.88355 0.22065 0.0
S605 S 0.26478 0.70309 0.25686 0.0
N606 N 0.28487 0.75469 0.27387 0.0
N607 N 0.29452 0.72107 0.23358 0.0
C608 C 0.32293 0.77122 0.23897 0.0
C609 C 0.31763 0.78959 0.26087 0.0
C610 C 0.17503 0.3837 0.74875 0.0
C611 C 0.17917 0.34235 0.73212 0.0
C612 C 0.16845 0.36625 0.77019 0.0
C613 C 0.16538 0.30661 0.77597 0.0
H614 H 0.17682 0.43016 0.74523 0.0
H615 H 0.16563 0.40012 0.78231 0.0
S616 S 0.17301 0.18058 0.73846 0.0
N617 N 0.17936 0.23881 0.72288 0.0
N618 N 0.16666 0.20601 0.76316 0.0
C619 C 0.16964 0.26465 0.75952 0.0
C620 C 0.17664 0.2825 0.73763 0.0
C621 C 0.74464 0.23016 0.2569 0.0
C622 C 0.70713 0.19326 0.2687 0.0
C623 C 0.73254 0.24471 0.23542 0.0
C624 C 0.68305 0.22203 0.22485 0.0
H625 H 0.78338 0.24844 0.26435 0.0
H626 H 0.76298 0.2728 0.22691 0.0
S627 S 0.57094 0.12356 0.24856 0.0
N628 N 0.61805 0.13478 0.26823 0.0
N629 N 0.59597 0.16136 0.22786 0.0
C630 C 0.64518 0.18516 0.23647 0.0
C631 C 0.65702 0.17101 0.25839 0.0
C632 C 0.19806 0.27358 0.01864 0.0
C633 C 0.14211 0.28851 0.02622 0.0
C634 C 0.20959 0.27134 0.99653 0.0
C635 C 0.16529 0.28291 0.98143 0.0
H636 H 0.23419 0.26862 0.02976 0.0
H637 H 0.25416 0.264 0.99121 0.0
S638 S 0.0104 0.31883 0.99334 0.0
N639 N 0.04119 0.31084 0.01718 0.0
N640 N 0.06268 0.30617 0.9756 0.0
C641 C 0.10827 0.29368 0.98886 0.0
C642 C 0.09674 0.29663 0.01132 0.0
C643 C 0.71511 0.12099 0.48624 0.0
C644 C 0.69912 0.16947 0.47357 0.0
C645 C 0.71274 0.12404 0.50881 0.0
C646 C 0.69396 0.17553 0.51911 0.0
H647 H 0.72431 0.07924 0.4787 0.0
H648 H 0.72038 0.08458 0.51809 0.0
S649 S 0.65764 0.31685 0.49302 0.0
N650 N 0.67196 0.27214 0.47285 0.0
N651 N 0.6672 0.27786 0.51513 0.0
C652 C 0.68348 0.22558 0.50659 0.0
C653 C 0.68614 0.22254 0.48379 0.0
C654 C 0.81634 0.73109 0.99402 0.0
C655 C 0.85796 0.71395 0.97856 0.0
C656 C 0.82808 0.72634 0.01612 0.0
C657 C 0.8815 0.70326 0.02343 0.0
H658 H 0.77315 0.74513 0.98899 0.0
H659 H 0.7934 0.73623 0.02741 0.0
S660 S 0.00629 0.65543 0.9896 0.0
N661 N 0.95582 0.67612 0.97218 0.0
N662 N 0.97778 0.6669 0.01363 0.0
C663 C 0.92462 0.6891 0.00816 0.0
C664 C 0.91293 0.69455 0.98572 0.0
C665 C 0.31725 0.77736 0.48667 0.0
C666 C 0.3107 0.82999 0.47518 0.0
C667 C 0.31615 0.77648 0.50913 0.0
C668 C 0.30857 0.82821 0.521 0.0
H669 H 0.32618 0.73686 0.47821 0.0
H670 H 0.32421 0.73531 0.51731 0.0
S671 S 0.28809 0.97737 0.49856 0.0
N672 N 0.29437 0.93493 0.47721 0.0
N673 N 0.29274 0.93344 0.51963 0.0
C674 C 0.29891 0.88081 0.50975 0.0
C675 C 0.29987 0.88165 0.48675 0.0
C676 C 0.622 0.21666 0.01278 0.0
C677 C 0.67923 0.22495 0.02047 0.0
C678 C 0.61119 0.21092 0.99072 0.0
C679 C 0.65704 0.21439 0.97572 0.0
H680 H 0.58616 0.20959 0.0239 0.0
H681 H 0.56736 0.19982 0.98547 0.0
S682 S 0.81349 0.24148 0.98753 0.0
N683 N 0.78144 0.24081 0.01135 0.0
N684 N 0.76078 0.2308 0.96981 0.0
C685 C 0.71362 0.22706 0.98306 0.0
C686 C 0.72481 0.23208 0.00552 0.0
C687 C 0.82439 0.60676 0.50894 0.0
C688 C 0.81826 0.65329 0.52354 0.0
C689 C 0.81615 0.61543 0.48682 0.0
C690 C 0.80274 0.67124 0.47864 0.0
H691 H 0.83833 0.56404 0.51457 0.0
H692 H 0.82461 0.57932 0.47599 0.0
S693 S 0.77935 0.80659 0.51029 0.0
N694 N 0.79509 0.75614 0.52846 0.0
N695 N 0.78057 0.77281 0.48684 0.0
C696 C 0.79386 0.71739 0.49318 0.0
C697 C 0.80133 0.70833 0.51569 0.0
C698 C 0.38134 0.79709 0.00586 0.0
C699 C 0.32958 0.8023 0.01799 0.0
C700 C 0.37942 0.79563 0.98324 0.0
C701 C 0.32568 0.79931 0.97226 0.0
H702 H 0.42353 0.79867 0.01377 0.0
H703 H 0.4202 0.79621 0.97435 0.0
S704 S 0.17793 0.80281 0.99691 0.0
N705 N 0.22334 0.8033 0.01755 0.0
N706 N 0.21967 0.80034 0.97525 0.0
C707 C 0.27376 0.79941 0.98435 0.0
C708 C 0.27572 0.80098 0.00719 0.0
C709 C 0.21947 0.31755 0.51837 0.0
C710 C 0.20156 0.37276 0.52582 0.0
C711 C 0.22262 0.30586 0.49628 0.0
C712 C 0.20892 0.34922 0.48101 0.0
H713 H 0.22643 0.28187 0.52957 0.0
H714 H 0.23263 0.26168 0.49112 0.0
S715 S 0.16419 0.50205 0.49246 0.0
N716 N 0.17373 0.47217 0.51639 0.0
N717 N 0.17978 0.45023 0.47488 0.0
C718 C 0.19466 0.4056 0.48828 0.0
C719 C 0.19089 0.41731 0.51073 0.0
C720 C 0.04476 0.48977 0.15979 0.0
C721 C 0.04762 0.44887 0.14296 0.0
C722 C 1.00087 0.53274 0.16022 0.0
C723 C 0.95845 0.53596 0.14386 0.0
H724 H 0.07737 0.4895 0.17242 0.0
H725 H 1.00191 0.5653 0.17285 0.0
S726 S 0.94039 0.43366 0.09824 0.0
N727 N 0.99937 0.41032 0.11091 0.0
N728 N 0.91781 0.49134 0.11185 0.0
C729 C 0.95879 0.49349 0.12767 0.0
C730 C 0.00317 0.4499 0.12717 0.0
C731 C 0.46672 0.98529 0.61691 0.0
C732 C 0.45101 0.95716 0.6362 0.0
C733 C 0.50723 0.0311 0.61666 0.0
C734 C 0.53424 0.05063 0.63567 0.0
H735 H 0.44672 0.97279 0.60182 0.0
H736 H 0.51797 0.05069 0.60128 0.0
S737 S 0.50911 0.99095 0.69054 0.0
N738 N 0.46612 0.95167 0.67489 0.0
N739 N 0.54242 0.03784 0.67445 0.0
C740 C 0.51903 0.02285 0.65514 0.0
C741 C 0.47763 0.97605 0.65538 0.0
C742 C 0.47124 0.99018 0.84232 0.0
C743 C 0.45416 0.95954 0.86098 0.0
C744 C 0.52028 0.02697 0.84224 0.0
C745 C 0.55427 0.03489 0.86084 0.0
H746 H 0.44687 0.98548 0.82749 0.0
H747 H 0.53041 0.05079 0.82762 0.0
S748 S 0.53054 0.96306 0.91373 0.0
N749 N 0.47668 0.93871 0.89853 0.0
N750 N 0.56897 0.00735 0.8982 0.0
C751 C 0.53838 0.00392 0.87953 0.0
C752 C 0.48828 0.96663 0.87967 0.0
C753 C 0.02727 0.4895 0.38865 0.0
C754 C 0.02321 0.44155 0.37447 0.0
C755 C 0.98993 0.53812 0.38655 0.0
C756 C 0.94826 0.54064 0.36998 0.0
H757 H 0.06141 0.49094 0.40071 0.0
H758 H 0.99486 0.57461 0.3975 0.0
S759 S 0.91214 0.42151 0.33167 0.0
N760 N 0.96832 0.39615 0.34551 0.0
N761 N 0.89901 0.48744 0.34136 0.0
C762 C 0.94129 0.49137 0.35667 0.0
C763 C 0.97847 0.44181 0.35901 0.0
C764 C 0.98977 0.52491 0.85434 0.0
C765 C 0.9558 0.53603 0.87276 0.0
C766 C 0.03879 0.48873 0.85512 0.0
C767 C 0.0559 0.46087 0.87429 0.0
H768 H 0.97904 0.545 0.83905 0.0
H769 H 0.06244 0.4813 0.84027 0.0
S770 S 0.98359 0.47776 0.92746 0.0
N771 N 0.94438 0.51918 0.9111 0.0
N772 N 0.03598 0.44882 0.91255 0.0
C773 C 0.02342 0.47281 0.89309 0.0
C774 C 0.97351 0.51077 0.89232 0.0
C775 C 0.52083 0.02214 0.34076 0.0
C776 C 0.54202 0.04598 0.36009 0.0
C777 C 0.48268 0.97409 0.34075 0.0
C778 C 0.46392 0.94789 0.36008 0.0
H779 H 0.53444 0.04005 0.32541 0.0
H780 H 0.46688 0.95827 0.32542 0.0
S781 S 0.50674 0.99319 0.4152 0.0
N782 N 0.5411 0.03952 0.39921 0.0
N783 N 0.47017 0.94902 0.39914 0.0
C784 C 0.48499 0.97107 0.37955 0.0
C785 C 0.52361 0.02017 0.37957 0.0
C786 C 0.49887 0.98345 0.14766 0.0
C787 C 0.46948 0.96833 0.1286 0.0
C788 C 0.54371 0.02476 0.14774 0.0
C789 C 0.56104 0.05372 0.12882 0.0
H790 H 0.488 0.9626 0.1628 0.0
H791 H 0.56424 0.03465 0.163 0.0
S792 S 0.49817 0.03064 0.07443 0.0
N793 N 0.46123 0.9853 0.09008 0.0
N794 N 0.5452 0.06438 0.09029 0.0
C795 C 0.53237 0.03906 0.10951 0.0
C796 C 0.4866 0.9963 0.1094 0.0
C797 C 0.04902 0.50727 0.62899 0.0
C798 C 0.05252 0.46665 0.64601 0.0
C799 C 0.00932 0.55345 0.62936 0.0
C800 C 0.97044 0.56102 0.64663 0.0
H801 H 0.07707 0.50354 0.61501 0.0
H802 H 0.00763 0.58211 0.61547 0.0
S803 S 0.96571 0.47092 0.69639 0.0
N804 N 0.01743 0.44022 0.68165 0.0
N805 N 0.94103 0.52683 0.68216 0.0
C806 C 0.97536 0.52283 0.66438 0.0
C807 C 0.01661 0.47562 0.66408 0.0
C808 C 0.47871 0.33066 0.14207 0.0
C809 C 0.50577 0.29085 0.12802 0.0
C810 C 0.41734 0.33658 0.14257 0.0
C811 C 0.38091 0.30135 0.12964 0.0
H812 H 0.50501 0.35624 0.15307 0.0
H813 H 0.39818 0.36774 0.15363 0.0
S814 S 0.43034 0.18703 0.09144 0.0
N815 N 0.49142 0.21502 0.10113 0.0
N816 N 0.37678 0.22361 0.10311 0.0
C817 C 0.40763 0.26161 0.11551 0.0
C818 C 0.46985 0.25688 0.1145 0.0
C819 C 0.74395 0.40037 0.61739 0.0
C820 C 0.70608 0.37499 0.63253 0.0
C821 C 0.75417 0.46072 0.61704 0.0
C822 C 0.72825 0.49851 0.63223 0.0
H823 H 0.7671 0.37311 0.60596 0.0
H824 H 0.78524 0.47726 0.60534 0.0
S825 S 0.62243 0.45434 0.6745 0.0
N826 N 0.63892 0.39248 0.66215 0.0
N827 N 0.6609 0.50604 0.66237 0.0
C828 C 0.68938 0.47386 0.64729 0.0
C829 C 0.67782 0.41216 0.64729 0.0
C830 C 0.54663 0.68948 0.14094 0.0
C831 C 0.52194 0.72776 0.1257 0.0
C832 C 0.60759 0.68023 0.14184 0.0
C833 C 0.64623 0.71056 0.12806 0.0
H834 H 0.51881 0.66771 0.15258 0.0
H835 H 0.62473 0.65035 0.15382 0.0
S836 S 0.60399 0.81831 0.08616 0.0
N837 N 0.54122 0.79622 0.09651 0.0
N838 N 0.65515 0.78159 0.09917 0.0
C839 C 0.62196 0.74845 0.11265 0.0
C840 C 0.56006 0.75646 0.11127 0.0
C841 C 0.3188 0.53383 0.62785 0.0
C842 C 0.2809 0.50672 0.6427 0.0
C843 C 0.32396 0.59533 0.62683 0.0
C844 C 0.29025 0.63195 0.64022 0.0
H845 H 0.34354 0.50739 0.61662 0.0
H846 H 0.35381 0.61433 0.61523 0.0
S847 S 0.17997 0.58338 0.68025 0.0
N848 N 0.20744 0.52208 0.67055 0.0
N849 N 0.2151 0.63657 0.66774 0.0
C850 C 0.25205 0.60541 0.655 0.0
C851 C 0.24786 0.54315 0.65645 0.0
C852 C 0.97946 0.18372 0.8575 0.0
C853 C 0.00439 0.22375 0.87199 0.0
C854 C 0.91852 0.17393 0.85711 0.0
C855 C 0.88016 0.20525 0.87069 0.0
H856 H 0.0071 0.16059 0.84619 0.0
H857 H 0.90118 0.14247 0.84578 0.0
S858 S 0.92316 0.31937 0.90999 0.0
N859 N 0.98568 0.29631 0.89975 0.0
N860 N 0.87179 0.28042 0.89806 0.0
C861 C 0.90469 0.24563 0.8851 0.0
C862 C 0.96656 0.25435 0.88594 0.0
C863 C 0.77293 0.90645 0.34245 0.0
C864 C 0.80257 0.88011 0.35973 0.0
C865 C 0.76443 0.96729 0.34154 0.0
C866 C 0.78438 0.00454 0.35807 0.0
H867 H 0.75356 0.87967 0.33001 0.0
H868 H 0.73848 0.98456 0.32842 0.0
S869 S 0.87319 0.95848 0.40504 0.0
N870 N 0.85952 0.89684 0.39213 0.0
N871 N 0.84076 0.01083 0.39108 0.0
C872 C 0.8171 0.97909 0.37481 0.0
C873 C 0.82672 0.91708 0.37551 0.0
C874 C 0.02581 0.80315 0.87522 0.0
C875 C 0.9984 0.77068 0.8588 0.0
C876 C 0.08647 0.81449 0.87482 0.0
C877 C 0.12235 0.79317 0.85816 0.0
H878 H 1.00062 0.81832 0.88888 0.0
H879 H 0.10556 0.83924 0.88788 0.0
S880 S 0.07366 0.70513 0.81142 0.0
N881 N 0.01304 0.71885 0.82491 0.0
N882 N 0.1264 0.73714 0.82512 0.0
C883 C 0.09558 0.76167 0.84149 0.0
C884 C 0.03389 0.75128 0.84156 0.0
C885 C 0.18266 0.08422 0.37857 0.0
C886 C 0.20572 0.12287 0.36306 0.0
C887 C 0.193 0.02347 0.37745 0.0
C888 C 0.2261 0.99892 0.36058 0.0
H889 H 0.15697 0.10111 0.39181 0.0
H890 H 0.1762 0.99573 0.39018 0.0
S891 S 0.29831 0.08225 0.31643 0.0
N892 N 0.26511 0.13273 0.33093 0.0
N893 N 0.28253 0.01929 0.32811 0.0
C894 C 0.24821 0.03737 0.3447 0.0
C895 C 0.23861 0.09907 0.34613 0.0
C896 C 0.52444 0.69398 0.87542 0.0
C897 C 0.49957 0.72429 0.85787 0.0
C898 C 0.58523 0.68411 0.87678 0.0
C899 C 0.6237 0.70458 0.86077 0.0
H900 H 0.49696 0.67922 0.88856 0.0
H901 H 0.60227 0.66075 0.89059 0.0
S902 S 0.5825 0.78814 0.81189 0.0
N903 N 0.51968 0.77438 0.82397 0.0
N904 N 0.63312 0.75804 0.82723 0.0
C905 C 0.59965 0.73435 0.84309 0.0
C906 C 0.5379 0.74351 0.84144 0.0
C907 C 0.24342 0.53607 0.34869 0.0
C908 C 0.26652 0.4987 0.36465 0.0
C909 C 0.2551 0.59624 0.34859 0.0
C910 C 0.29141 0.6219 0.36415 0.0
H911 H 0.21339 0.51945 0.3367 0.0
H912 H 0.23384 0.62317 0.33656 0.0
S913 S 0.36903 0.54304 0.40788 0.0
N914 N 0.33067 0.49155 0.3957 0.0
N915 N 0.35518 0.60449 0.39477 0.0
C916 C 0.3173 0.5849 0.37959 0.0
C917 C 0.3044 0.52344 0.37998 0.0
C918 C 0.46783 0.25427 0.84367 0.0
C919 C 0.50618 0.27808 0.85911 0.0
C920 C 0.40705 0.26285 0.84497 0.0
C921 C 0.38207 0.29649 0.86152 0.0
H922 H 0.48435 0.22536 0.83128 0.0
H923 H 0.37927 0.24078 0.83345 0.0
S924 S 0.46391 0.37653 0.9038 0.0
N925 N 0.51512 0.34106 0.89031 0.0
N926 N 0.40131 0.36032 0.89194 0.0
C927 C 0.42022 0.32401 0.87613 0.0
C928 C 0.48208 0.31414 0.87511 0.0
C929 C 0.6666 0.41793 0.3554 0.0
C930 C 0.70596 0.37871 0.36538 0.0
C931 C 0.67536 0.47915 0.35622 0.0
C932 C 0.72251 0.50311 0.36775 0.0
H933 H 0.62917 0.40115 0.3467 0.0
H934 H 0.64543 0.50774 0.34771 0.0
S935 S 0.83966 0.41965 0.39558 0.0
N936 N 0.79573 0.36875 0.3859 0.0
N937 N 0.81001 0.48285 0.38866 0.0
C938 C 0.76155 0.46431 0.37797 0.0
C939 C 0.75375 0.40242 0.37654 0.0
C940 C 0.06006 0.75968 0.15525 0.0
C941 C 0.02151 0.78361 0.13991 0.0
C942 C 0.12074 0.76836 0.15381 0.0
C943 C 0.14543 0.8024 0.13725 0.0
H944 H 0.04371 0.73065 0.16767 0.0
H945 H 0.14864 0.74609 0.16526 0.0
S946 S 0.06265 0.8824 0.09507 0.0
N947 N 0.01181 0.84645 0.10862 0.0
N948 N 0.12548 0.86655 0.10685 0.0
C949 C 0.107 0.8299 0.12268 0.0
C950 C 0.04521 0.81965 0.12379 0.0
C951 C 0.22779 0.10532 0.61312 0.0
C952 C 0.19228 0.13147 0.62887 0.0
C953 C 0.23501 0.04432 0.61222 0.0
C954 C 0.20803 0.00692 0.62735 0.0
H955 H 0.25276 0.13228 0.6021 0.0
H956 H 0.26556 0.02685 0.60055 0.0
S957 S 0.10274 0.0524 0.66944 0.0
N958 N 0.12229 0.11436 0.65771 0.0
N959 N 0.13951 1.00006 0.65706 0.0
C960 C 0.16969 0.03214 0.64236 0.0
C961 C 0.16093 0.09424 0.64285 0.0
C962 C 0.91754 0.18201 0.12616 0.0
C963 C 0.88204 0.20888 0.14181 0.0
C964 C 0.97896 0.18574 0.12707 0.0
C965 C 0.00729 0.21548 0.14393 0.0
H966 H 0.89774 0.15916 0.11279 0.0
H967 H 0.0043 0.16737 0.114 0.0
S968 S 0.93354 0.29141 0.18944 0.0
N969 N 0.87948 0.26577 0.17467 0.0
N970 N 0.99399 0.26963 0.17737 0.0
C971 C 0.97194 0.23935 0.16041 0.0
C972 C 0.90961 0.23693 0.15909 0.0
C973 C 0.8085 0.97398 0.64391 0.0
C974 C 0.77667 0.99986 0.62697 0.0
C975 C 0.81842 0.91314 0.64465 0.0
C976 C 0.79594 0.87562 0.62872 0.0
H977 H 0.8241 1.00063 0.6571 0.0
H978 H 0.84265 0.89521 0.65809 0.0
S979 S 0.70988 0.92037 0.5809 0.0
N980 N 0.72478 0.98233 0.59332 0.0
N981 N 0.74055 0.86859 0.59558 0.0
C982 C 0.76551 0.90091 0.61144 0.0
C983 C 0.75667 0.96279 0.61034 0.0
loop_
_geom_bond_atom_site_label_1
_geom_bond_atom_site_label_2
_geom_bond_distance
_geom_bond_site_symmetry_2
_ccdc_geom_bond_type
Co0 O3 1.970 . S
Co0 N17 1.989 . S
Co0 O25 1.967 . S
Co0 O32 1.920 . S
Co1 O4 1.966 . S
Co1 N10 2.022 . S
Co1 N18 1.993 . S
Co1 O26 1.941 . S
C2 O3 1.258 . S
C2 O4 1.263 . S
O3 Co0 1.970 . S
O3 C2 1.258 . S
O4 Co1 1.966 . S
O4 C2 1.263 . S
C5 O6 1.235 . S
C5 O32 1.289 . S
O6 C5 1.235 . S
C7 C9 1.400 . S
C7 N10 1.351 . S
C7 C12 1.501 . S
C8 C9 1.387 . S
C8 N11 1.341 . S
C9 C7 1.400 . S
C9 C8 1.387 . S
N10 Co1 2.022 . S
N10 C7 1.351 . S
N10 N11 1.365 . S
N11 C8 1.341 . S
N11 N10 1.365 . S
N11 H31 0.862 . S
C12 C7 1.501 . S
C12 H13 0.961 . S
C12 H14 0.961 . S
C12 H15 0.960 . S
H13 C12 0.961 . S
H14 C12 0.961 . S
H15 C12 0.960 . S
C16 N17 1.342 . S
C16 C20 1.401 . S
C16 C21 1.499 . S
N17 Co0 1.989 . S
N17 C16 1.342 . S
N17 N18 1.388 . S
N18 Co1 1.993 . S
N18 N17 1.388 . S
N18 C19 1.346 . S
C19 N18 1.346 . S
C19 C20 1.396 . S
C19 C29 1.510 . S
C20 C16 1.401 . S
C20 C19 1.396 . S
C21 C16 1.499 . S
C21 H22 0.959 . S
C21 H23 0.960 . S
C21 H24 0.961 . S
H22 C21 0.959 . S
H23 C21 0.960 . S
H24 C21 0.961 . S
O25 Co0 1.967 . S
O25 C33 1.258 . S
O26 Co1 1.941 . S
O26 C33 1.266 . S
H27 C29 0.959 . S
H28 C29 0.961 . S
C29 C19 1.510 . S
C29 H27 0.959 . S
C29 H28 0.961 . S
C29 H30 0.960 . S
H30 C29 0.960 . S
H31 N11 0.862 . S
O32 Co0 1.920 . S
O32 C5 1.289 . S
C33 O25 1.258 . S
C33 O26 1.266 . S
Co34 O37 1.970 . S
Co34 N51 1.989 . S
Co34 O59 1.967 . S
Co34 O66 1.920 . S
Co35 O38 1.966 . S
Co35 N44 2.022 . S
Co35 N52 1.993 . S
Co35 O60 1.941 . S
C36 O37 1.258 . S
C36 O38 1.263 . S
O37 Co34 1.970 . S
O37 C36 1.258 . S
O38 Co35 1.966 . S
O38 C36 1.263 . S
C39 O40 1.235 . S
C39 O66 1.289 . S
O40 C39 1.235 . S
C41 C43 1.400 . S
C41 N44 1.351 . S
C41 C46 1.501 . S
C42 C43 1.387 . S
C42 N45 1.341 . S
C43 C41 1.400 . S
C43 C42 1.387 . S
N44 Co35 2.022 . S
N44 C41 1.351 . S
N44 N45 1.365 . S
N45 C42 1.341 . S
N45 N44 1.365 . S
N45 H65 0.862 . S
C46 C41 1.501 . S
C46 H47 0.961 . S
C46 H48 0.961 . S
C46 H49 0.960 . S
H47 C46 0.961 . S
H48 C46 0.961 . S
H49 C46 0.960 . S
C50 N51 1.342 . S
C50 C54 1.401 . S
C50 C55 1.499 . S
N51 Co34 1.989 . S
N51 C50 1.342 . S
N51 N52 1.388 . S
N52 Co35 1.993 . S
N52 N51 1.388 . S
N52 C53 1.346 . S
C53 N52 1.346 . S
C53 C54 1.396 . S
C53 C63 1.510 . S
C54 C50 1.401 . S
C54 C53 1.396 . S
C55 C50 1.499 . S
C55 H56 0.959 . S
C55 H57 0.960 . S
C55 H58 0.961 . S
H56 C55 0.959 . S
H57 C55 0.960 . S
H58 C55 0.961 . S
O59 Co34 1.967 . S
O59 C67 1.258 . S
O60 Co35 1.941 . S
O60 C67 1.266 . S
H61 C63 0.959 . S
H62 C63 0.961 . S
C63 C53 1.510 . S
C63 H61 0.959 . S
C63 H62 0.961 . S
C63 H64 0.960 . S
H64 C63 0.960 . S
H65 N45 0.862 . S
O66 Co34 1.920 . S
O66 C39 1.289 . S
C67 O59 1.258 . S
C67 O60 1.266 . S
Co68 O71 1.970 . S
Co68 N85 1.989 . S
Co68 O93 1.967 . S
Co68 O100 1.920 . S
Co69 O72 1.966 . S
Co69 N78 2.022 . S
Co69 N86 1.993 . S
Co69 O94 1.941 . S
C70 O71 1.258 . S
C70 O72 1.263 . S
O71 Co68 1.970 . S
O71 C70 1.258 . S
O72 Co69 1.966 . S
O72 C70 1.263 . S
C73 O74 1.235 . S
C73 O100 1.289 . S
O74 C73 1.235 . S
C75 C77 1.400 . S
C75 N78 1.351 . S
C75 C80 1.501 . S
C76 C77 1.387 . S
C76 N79 1.341 . S
C77 C75 1.400 . S
C77 C76 1.387 . S
N78 Co69 2.022 . S
N78 C75 1.351 . S
N78 N79 1.365 . S
N79 C76 1.341 . S
N79 N78 1.365 . S
N79 H99 0.862 . S
C80 C75 1.501 . S
C80 H81 0.961 . S
C80 H82 0.961 . S
C80 H83 0.960 . S
H81 C80 0.961 . S
H82 C80 0.961 . S
H83 C80 0.960 . S
C84 N85 1.342 . S
C84 C88 1.401 . S
C84 C89 1.499 . S
N85 Co68 1.989 . S
N85 C84 1.342 . S
N85 N86 1.388 . S
N86 Co69 1.993 . S
N86 N85 1.388 . S
N86 C87 1.346 . S
C87 N86 1.346 . S
C87 C88 1.396 . S
C87 C97 1.510 . S
C88 C84 1.401 . S
C88 C87 1.396 . S
C89 C84 1.499 . S
C89 H90 0.959 . S
C89 H91 0.960 . S
C89 H92 0.961 . S
H90 C89 0.959 . S
H91 C89 0.960 . S
H92 C89 0.961 . S
O93 Co68 1.967 . S
O93 C101 1.258 . S
O94 Co69 1.941 . S
O94 C101 1.266 . S
H95 C97 0.959 . S
H96 C97 0.961 . S
C97 C87 1.510 . S
C97 H95 0.959 . S
C97 H96 0.961 . S
C97 H98 0.960 . S
H98 C97 0.960 . S
H99 N79 0.862 . S
O100 Co68 1.920 . S
O100 C73 1.289 . S
C101 O93 1.258 . S
C101 O94 1.266 . S
Co102 O105 1.970 . S
Co102 N119 1.989 . S
Co102 O127 1.967 . S
Co102 O134 1.920 . S
Co103 O106 1.966 . S
Co103 N112 2.022 . S
Co103 N120 1.993 . S
Co103 O128 1.941 . S
C104 O105 1.258 . S
C104 O106 1.263 . S
O105 Co102 1.970 . S
O105 C104 1.258 . S
O106 Co103 1.966 . S
O106 C104 1.263 . S
C107 O108 1.235 . S
C107 O134 1.289 . S
O108 C107 1.235 . S
C109 C111 1.400 . S
C109 N112 1.351 . S
C109 C114 1.501 . S
C110 C111 1.387 . S
C110 N113 1.341 . S
C111 C109 1.400 . S
C111 C110 1.387 . S
N112 Co103 2.022 . S
N112 C109 1.351 . S
N112 N113 1.365 . S
N113 C110 1.341 . S
N113 N112 1.365 . S
N113 H133 0.862 . S
C114 C109 1.501 . S
C114 H115 0.961 . S
C114 H116 0.961 . S
C114 H117 0.960 . S
H115 C114 0.961 . S
H116 C114 0.961 . S
H117 C114 0.960 . S
C118 N119 1.342 . S
C118 C122 1.401 . S
C118 C123 1.499 . S
N119 Co102 1.989 . S
N119 C118 1.342 . S
N119 N120 1.388 . S
N120 Co103 1.993 . S
N120 N119 1.388 . S
N120 C121 1.346 . S
C121 N120 1.346 . S
C121 C122 1.396 . S
C121 C131 1.510 . S
C122 C118 1.401 . S
C122 C121 1.396 . S
C123 C118 1.499 . S
C123 H124 0.959 . S
C123 H125 0.960 . S
C123 H126 0.961 . S
H124 C123 0.959 . S
H125 C123 0.960 . S
H126 C123 0.961 . S
O127 Co102 1.967 . S
O127 C135 1.258 . S
O128 Co103 1.941 . S
O128 C135 1.266 . S
H129 C131 0.959 . S
H130 C131 0.961 . S
C131 C121 1.510 . S
C131 H129 0.959 . S
C131 H130 0.961 . S
C131 H132 0.960 . S
H132 C131 0.960 . S
H133 N113 0.862 . S
O134 Co102 1.920 . S
O134 C107 1.289 . S
C135 O127 1.258 . S
C135 O128 1.266 . S
Co136 O139 1.970 . S
Co136 N153 1.989 . S
Co136 O161 1.967 . S
Co136 O168 1.920 . S
Co137 O140 1.966 . S
Co137 N146 2.022 . S
Co137 N154 1.993 . S
Co137 O162 1.941 . S
C138 O139 1.258 . S
C138 O140 1.263 . S
O139 Co136 1.970 . S
O139 C138 1.258 . S
O140 Co137 1.966 . S
O140 C138 1.263 . S
C141 O142 1.235 . S
C141 O168 1.289 . S
O142 C141 1.235 . S
C143 C145 1.400 . S
C143 N146 1.351 . S
C143 C148 1.501 . S
C144 C145 1.387 . S
C144 N147 1.341 . S
C145 C143 1.400 . S
C145 C144 1.387 . S
N146 Co137 2.022 . S
N146 C143 1.351 . S
N146 N147 1.365 . S
N147 C144 1.341 . S
N147 N146 1.365 . S
N147 H167 0.862 . S
C148 C143 1.501 . S
C148 H149 0.961 . S
C148 H150 0.961 . S
C148 H151 0.960 . S
H149 C148 0.961 . S
H150 C148 0.961 . S
H151 C148 0.960 . S
C152 N153 1.342 . S
C152 C156 1.401 . S
C152 C157 1.499 . S
N153 Co136 1.989 . S
N153 C152 1.342 . S
N153 N154 1.388 . S
N154 Co137 1.993 . S
N154 N153 1.388 . S
N154 C155 1.346 . S
C155 N154 1.346 . S
C155 C156 1.396 . S
C155 C165 1.510 . S
C156 C152 1.401 . S
C156 C155 1.396 . S
C157 C152 1.499 . S
C157 H158 0.959 . S
C157 H159 0.960 . S
C157 H160 0.961 . S
H158 C157 0.959 . S
H159 C157 0.960 . S
H160 C157 0.961 . S
O161 Co136 1.967 . S
O161 C169 1.258 . S
O162 Co137 1.941 . S
O162 C169 1.266 . S
H163 C165 0.959 . S
H164 C165 0.961 . S
C165 C155 1.510 . S
C165 H163 0.959 . S
C165 H164 0.961 . S
C165 H166 0.960 . S
H166 C165 0.960 . S
H167 N147 0.862 . S
O168 Co136 1.920 . S
O168 C141 1.289 . S
C169 O161 1.258 . S
C169 O162 1.266 . S
Co170 O173 1.970 . S
Co170 N187 1.989 . S
Co170 O195 1.967 . S
Co170 O202 1.920 . S
Co171 O174 1.966 . S
Co171 N180 2.022 . S
Co171 N188 1.993 . S
Co171 O196 1.941 . S
C172 O173 1.258 . S
C172 O174 1.263 . S
O173 Co170 1.970 . S
O173 C172 1.258 . S
O174 Co171 1.966 . S
O174 C172 1.263 . S
C175 O176 1.235 . S
C175 O202 1.289 . S
O176 C175 1.235 . S
C177 C179 1.400 . S
C177 N180 1.351 . S
C177 C182 1.501 . S
C178 C179 1.387 . S
C178 N181 1.341 . S
C179 C177 1.400 . S
C179 C178 1.387 . S
N180 Co171 2.022 . S
N180 C177 1.351 . S
N180 N181 1.365 . S
N181 C178 1.341 . S
N181 N180 1.365 . S
N181 H201 0.862 . S
C182 C177 1.501 . S
C182 H183 0.961 . S
C182 H184 0.961 . S
C182 H185 0.960 . S
H183 C182 0.961 . S
H184 C182 0.961 . S
H185 C182 0.960 . S
C186 N187 1.342 . S
C186 C190 1.401 . S
C186 C191 1.499 . S
N187 Co170 1.989 . S
N187 C186 1.342 . S
N187 N188 1.388 . S
N188 Co171 1.993 . S
N188 N187 1.388 . S
N188 C189 1.346 . S
C189 N188 1.346 . S
C189 C190 1.396 . S
C189 C199 1.510 . S
C190 C186 1.401 . S
C190 C189 1.396 . S
C191 C186 1.499 . S
C191 H192 0.959 . S
C191 H193 0.960 . S
C191 H194 0.961 . S
H192 C191 0.959 . S
H193 C191 0.960 . S
H194 C191 0.961 . S
O195 Co170 1.967 . S
O195 C203 1.258 . S
O196 Co171 1.941 . S
O196 C203 1.266 . S
H197 C199 0.959 . S
H198 C199 0.961 . S
C199 C189 1.510 . S
C199 H197 0.959 . S
C199 H198 0.961 . S
C199 H200 0.960 . S
H200 C199 0.960 . S
H201 N181 0.862 . S
O202 Co170 1.920 . S
O202 C175 1.289 . S
C203 O195 1.258 . S
C203 O196 1.266 . S
Co204 O207 1.970 . S
Co204 N221 1.989 . S
Co204 O229 1.967 . S
Co204 O236 1.920 . S
Co205 O208 1.966 . S
Co205 N214 2.022 . S
Co205 N222 1.993 . S
Co205 O230 1.941 . S
C206 O207 1.258 . S
C206 O208 1.263 . S
O207 Co204 1.970 . S
O207 C206 1.258 . S
O208 Co205 1.966 . S
O208 C206 1.263 . S
C209 O210 1.235 . S
C209 O236 1.289 . S
O210 C209 1.235 . S
C211 C213 1.400 . S
C211 N214 1.351 . S
C211 C216 1.501 . S
C212 C213 1.387 . S
C212 N215 1.341 . S
C213 C211 1.400 . S
C213 C212 1.387 . S
N214 Co205 2.022 . S
N214 C211 1.351 . S
N214 N215 1.365 . S
N215 C212 1.341 . S
N215 N214 1.365 . S
N215 H235 0.862 . S
C216 C211 1.501 . S
C216 H217 0.961 . S
C216 H218 0.961 . S
C216 H219 0.960 . S
H217 C216 0.961 . S
H218 C216 0.961 . S
H219 C216 0.960 . S
C220 N221 1.342 . S
C220 C224 1.401 . S
C220 C225 1.499 . S
N221 Co204 1.989 . S
N221 C220 1.342 . S
N221 N222 1.388 . S
N222 Co205 1.993 . S
N222 N221 1.388 . S
N222 C223 1.346 . S
C223 N222 1.346 . S
C223 C224 1.396 . S
C223 C233 1.510 . S
C224 C220 1.401 . S
C224 C223 1.396 . S
C225 C220 1.499 . S
C225 H226 0.959 . S
C225 H227 0.960 . S
C225 H228 0.961 . S
H226 C225 0.959 . S
H227 C225 0.960 . S
H228 C225 0.961 . S
O229 Co204 1.967 . S
O229 C237 1.258 . S
O230 Co205 1.941 . S
O230 C237 1.266 . S
H231 C233 0.959 . S
H232 C233 0.961 . S
C233 C223 1.510 . S
C233 H231 0.959 . S
C233 H232 0.961 . S
C233 H234 0.960 . S
H234 C233 0.960 . S
H235 N215 0.862 . S
O236 Co204 1.920 . S
O236 C209 1.289 . S
C237 O229 1.258 . S
C237 O230 1.266 . S
Co238 O241 1.970 . S
Co238 N255 1.989 . S
Co238 O263 1.967 . S
Co238 O270 1.920 . S
Co239 O242 1.966 . S
Co239 N248 2.022 . S
Co239 N256 1.993 . S
Co239 O264 1.941 . S
C240 O241 1.258 . S
C240 O242 1.263 . S
O241 Co238 1.970 . S
O241 C240 1.258 . S
O242 Co239 1.966 . S
O242 C240 1.263 . S
C243 O244 1.235 . S
C243 O270 1.289 . S
O244 C243 1.235 . S
C245 C247 1.400 . S
C245 N248 1.351 . S
C245 C250 1.501 . S
C246 C247 1.387 . S
C246 N249 1.341 . S
C247 C245 1.400 . S
C247 C246 1.387 . S
N248 Co239 2.022 . S
N248 C245 1.351 . S
N248 N249 1.365 . S
N249 C246 1.341 . S
N249 N248 1.365 . S
N249 H269 0.862 . S
C250 C245 1.501 . S
C250 H251 0.961 . S
C250 H252 0.961 . S
C250 H253 0.960 . S
H251 C250 0.961 . S
H252 C250 0.961 . S
H253 C250 0.960 . S
C254 N255 1.342 . S
C254 C258 1.401 . S
C254 C259 1.499 . S
N255 Co238 1.989 . S
N255 C254 1.342 . S
N255 N256 1.388 . S
N256 Co239 1.993 . S
N256 N255 1.388 . S
N256 C257 1.346 . S
C257 N256 1.346 . S
C257 C258 1.396 . S
C257 C267 1.510 . S
C258 C254 1.401 . S
C258 C257 1.396 . S
C259 C254 1.499 . S
C259 H260 0.959 . S
C259 H261 0.960 . S
C259 H262 0.961 . S
H260 C259 0.959 . S
H261 C259 0.960 . S
H262 C259 0.961 . S
O263 Co238 1.967 . S
O263 C271 1.258 . S
O264 Co239 1.941 . S
O264 C271 1.266 . S
H265 C267 0.959 . S
H266 C267 0.961 . S
C267 C257 1.510 . S
C267 H265 0.959 . S
C267 H266 0.961 . S
C267 H268 0.960 . S
H268 C267 0.960 . S
H269 N249 0.862 . S
O270 Co238 1.920 . S
O270 C243 1.289 . S
C271 O263 1.258 . S
C271 O264 1.266 . S
Co272 O275 1.970 . S
Co272 N289 1.989 . S
Co272 O297 1.967 . S
Co272 O304 1.920 . S
Co273 O276 1.966 . S
Co273 N282 2.022 . S
Co273 N290 1.993 . S
Co273 O298 1.941 . S
C274 O275 1.258 . S
C274 O276 1.263 . S
O275 Co272 1.970 . S
O275 C274 1.258 . S
O276 Co273 1.966 . S
O276 C274 1.263 . S
C277 O278 1.235 . S
C277 O304 1.289 . S
O278 C277 1.235 . S
C279 C281 1.400 . S
C279 N282 1.351 . S
C279 C284 1.501 . S
C280 C281 1.387 . S
C280 N283 1.341 . S
C281 C279 1.400 . S
C281 C280 1.387 . S
N282 Co273 2.022 . S
N282 C279 1.351 . S
N282 N283 1.365 . S
N283 C280 1.341 . S
N283 N282 1.365 . S
N283 H303 0.862 . S
C284 C279 1.501 . S
C284 H285 0.961 . S
C284 H286 0.961 . S
C284 H287 0.960 . S
H285 C284 0.961 . S
H286 C284 0.961 . S
H287 C284 0.960 . S
C288 N289 1.342 . S
C288 C292 1.401 . S
C288 C293 1.499 . S
N289 Co272 1.989 . S
N289 C288 1.342 . S
N289 N290 1.388 . S
N290 Co273 1.993 . S
N290 N289 1.388 . S
N290 C291 1.346 . S
C291 N290 1.346 . S
C291 C292 1.396 . S
C291 C301 1.510 . S
C292 C288 1.401 . S
C292 C291 1.396 . S
C293 C288 1.499 . S
C293 H294 0.959 . S
C293 H295 0.960 . S
C293 H296 0.961 . S
H294 C293 0.959 . S
H295 C293 0.960 . S
H296 C293 0.961 . S
O297 Co272 1.967 . S
O297 C305 1.258 . S
O298 Co273 1.941 . S
O298 C305 1.266 . S
H299 C301 0.959 . S
H300 C301 0.961 . S
C301 C291 1.510 . S
C301 H299 0.959 . S
C301 H300 0.961 . S
C301 H302 0.960 . S
H302 C301 0.960 . S
H303 N283 0.862 . S
O304 Co272 1.920 . S
O304 C277 1.289 . S
C305 O297 1.258 . S
C305 O298 1.266 . S
Co306 O309 1.970 . S
Co306 N323 1.989 . S
Co306 O331 1.967 . S
Co306 O338 1.920 . S
Co307 O310 1.966 . S
Co307 N316 2.022 . S
Co307 N324 1.993 . S
Co307 O332 1.941 . S
C308 O309 1.258 . S
C308 O310 1.263 . S
O309 Co306 1.970 . S
O309 C308 1.258 . S
O310 Co307 1.966 . S
O310 C308 1.263 . S
C311 O312 1.235 . S
C311 O338 1.289 . S
O312 C311 1.235 . S
C313 C315 1.400 . S
C313 N316 1.351 . S
C313 C318 1.501 . S
C314 C315 1.387 . S
C314 N317 1.341 . S
C315 C313 1.400 . S
C315 C314 1.387 . S
N316 Co307 2.022 . S
N316 C313 1.351 . S
N316 N317 1.365 . S
N317 C314 1.341 . S
N317 N316 1.365 . S
N317 H337 0.862 . S
C318 C313 1.501 . S
C318 H319 0.961 . S
C318 H320 0.961 . S
C318 H321 0.960 . S
H319 C318 0.961 . S
H320 C318 0.961 . S
H321 C318 0.960 . S
C322 N323 1.342 . S
C322 C326 1.401 . S
C322 C327 1.499 . S
N323 Co306 1.989 . S
N323 C322 1.342 . S
N323 N324 1.388 . S
N324 Co307 1.993 . S
N324 N323 1.388 . S
N324 C325 1.346 . S
C325 N324 1.346 . S
C325 C326 1.396 . S
C325 C335 1.510 . S
C326 C322 1.401 . S
C326 C325 1.396 . S
C327 C322 1.499 . S
C327 H328 0.959 . S
C327 H329 0.960 . S
C327 H330 0.961 . S
H328 C327 0.959 . S
H329 C327 0.960 . S
H330 C327 0.961 . S
O331 Co306 1.967 . S
O331 C339 1.258 . S
O332 Co307 1.941 . S
O332 C339 1.266 . S
H333 C335 0.959 . S
H334 C335 0.961 . S
C335 C325 1.510 . S
C335 H333 0.959 . S
C335 H334 0.961 . S
C335 H336 0.960 . S
H336 C335 0.960 . S
H337 N317 0.862 . S
O338 Co306 1.920 . S
O338 C311 1.289 . S
C339 O331 1.258 . S
C339 O332 1.266 . S
Co340 O343 1.970 . S
Co340 N357 1.989 . S
Co340 O365 1.967 . S
Co340 O372 1.920 . S
Co341 O344 1.966 . S
Co341 N350 2.022 . S
Co341 N358 1.993 . S
Co341 O366 1.941 . S
C342 O343 1.258 . S
C342 O344 1.263 . S
O343 Co340 1.970 . S
O343 C342 1.258 . S
O344 Co341 1.966 . S
O344 C342 1.263 . S
C345 O346 1.235 . S
C345 O372 1.289 . S
O346 C345 1.235 . S
C347 C349 1.400 . S
C347 N350 1.351 . S
C347 C352 1.501 . S
C348 C349 1.387 . S
C348 N351 1.341 . S
C349 C347 1.400 . S
C349 C348 1.387 . S
N350 Co341 2.022 . S
N350 C347 1.351 . S
N350 N351 1.365 . S
N351 C348 1.341 . S
N351 N350 1.365 . S
N351 H371 0.862 . S
C352 C347 1.501 . S
C352 H353 0.961 . S
C352 H354 0.961 . S
C352 H355 0.960 . S
H353 C352 0.961 . S
H354 C352 0.961 . S
H355 C352 0.960 . S
C356 N357 1.342 . S
C356 C360 1.401 . S
C356 C361 1.499 . S
N357 Co340 1.989 . S
N357 C356 1.342 . S
N357 N358 1.388 . S
N358 Co341 1.993 . S
N358 N357 1.388 . S
N358 C359 1.346 . S
C359 N358 1.346 . S
C359 C360 1.396 . S
C359 C369 1.510 . S
C360 C356 1.401 . S
C360 C359 1.396 . S
C361 C356 1.499 . S
C361 H362 0.959 . S
C361 H363 0.960 . S
C361 H364 0.961 . S
H362 C361 0.959 . S
H363 C361 0.960 . S
H364 C361 0.961 . S
O365 Co340 1.967 . S
O365 C373 1.258 . S
O366 Co341 1.941 . S
O366 C373 1.266 . S
H367 C369 0.959 . S
H368 C369 0.961 . S
C369 C359 1.510 . S
C369 H367 0.959 . S
C369 H368 0.961 . S
C369 H370 0.960 . S
H370 C369 0.960 . S
H371 N351 0.862 . S
O372 Co340 1.920 . S
O372 C345 1.289 . S
C373 O365 1.258 . S
C373 O366 1.266 . S
Co374 O377 1.970 . S
Co374 N391 1.989 . S
Co374 O399 1.967 . S
Co374 O406 1.920 . S
Co375 O378 1.966 . S
Co375 N384 2.022 . S
Co375 N392 1.993 . S
Co375 O400 1.941 . S
C376 O377 1.258 . S
C376 O378 1.263 . S
O377 Co374 1.970 . S
O377 C376 1.258 . S
O378 Co375 1.966 . S
O378 C376 1.263 . S
C379 O380 1.235 . S
C379 O406 1.289 . S
O380 C379 1.235 . S
C381 C383 1.400 . S
C381 N384 1.351 . S
C381 C386 1.501 . S
C382 C383 1.387 . S
C382 N385 1.341 . S
C383 C381 1.400 . S
C383 C382 1.387 . S
N384 Co375 2.022 . S
N384 C381 1.351 . S
N384 N385 1.365 . S
N385 C382 1.341 . S
N385 N384 1.365 . S
N385 H405 0.862 . S
C386 C381 1.501 . S
C386 H387 0.961 . S
C386 H388 0.961 . S
C386 H389 0.960 . S
H387 C386 0.961 . S
H388 C386 0.961 . S
H389 C386 0.960 . S
C390 N391 1.342 . S
C390 C394 1.401 . S
C390 C395 1.499 . S
N391 Co374 1.989 . S
N391 C390 1.342 . S
N391 N392 1.388 . S
N392 Co375 1.993 . S
N392 N391 1.388 . S
N392 C393 1.346 . S
C393 N392 1.346 . S
C393 C394 1.396 . S
C393 C403 1.510 . S
C394 C390 1.401 . S
C394 C393 1.396 . S
C395 C390 1.499 . S
C395 H396 0.959 . S
C395 H397 0.960 . S
C395 H398 0.961 . S
H396 C395 0.959 . S
H397 C395 0.960 . S
H398 C395 0.961 . S
O399 Co374 1.967 . S
O399 C407 1.258 . S
O400 Co375 1.941 . S
O400 C407 1.266 . S
H401 C403 0.959 . S
H402 C403 0.961 . S
C403 C393 1.510 . S
C403 H401 0.959 . S
C403 H402 0.961 . S
C403 H404 0.960 . S
H404 C403 0.960 . S
H405 N385 0.862 . S
O406 Co374 1.920 . S
O406 C379 1.289 . S
C407 O399 1.258 . S
C407 O400 1.266 . S
Co408 O411 1.970 . S
Co408 N425 1.989 . S
Co408 O433 1.967 . S
Co408 O440 1.920 . S
Co409 O412 1.966 . S
Co409 N418 2.022 . S
Co409 N426 1.993 . S
Co409 O434 1.941 . S
C410 O411 1.258 . S
C410 O412 1.263 . S
O411 Co408 1.970 . S
O411 C410 1.258 . S
O412 Co409 1.966 . S
O412 C410 1.263 . S
C413 O414 1.235 . S
C413 O440 1.289 . S
O414 C413 1.235 . S
C415 C417 1.400 . S
C415 N418 1.351 . S
C415 C420 1.501 . S
C416 C417 1.387 . S
C416 N419 1.341 . S
C417 C415 1.400 . S
C417 C416 1.387 . S
N418 Co409 2.022 . S
N418 C415 1.351 . S
N418 N419 1.365 . S
N419 C416 1.341 . S
N419 N418 1.365 . S
N419 H439 0.862 . S
C420 C415 1.501 . S
C420 H421 0.961 . S
C420 H422 0.961 . S
C420 H423 0.960 . S
H421 C420 0.961 . S
H422 C420 0.961 . S
H423 C420 0.960 . S
C424 N425 1.342 . S
C424 C428 1.401 . S
C424 C429 1.499 . S
N425 Co408 1.989 . S
N425 C424 1.342 . S
N425 N426 1.388 . S
N426 Co409 1.993 . S
N426 N425 1.388 . S
N426 C427 1.346 . S
C427 N426 1.346 . S
C427 C428 1.396 . S
C427 C437 1.510 . S
C428 C424 1.401 . S
C428 C427 1.396 . S
C429 C424 1.499 . S
C429 H430 0.959 . S
C429 H431 0.960 . S
C429 H432 0.961 . S
H430 C429 0.959 . S
H431 C429 0.960 . S
H432 C429 0.961 . S
O433 Co408 1.967 . S
O433 C441 1.258 . S
O434 Co409 1.941 . S
O434 C441 1.266 . S
H435 C437 0.959 . S
H436 C437 0.961 . S
C437 C427 1.510 . S
C437 H435 0.959 . S
C437 H436 0.961 . S
C437 H438 0.960 . S
H438 C437 0.960 . S
H439 N419 0.862 . S
O440 Co408 1.920 . S
O440 C413 1.289 . S
C441 O433 1.258 . S
C441 O434 1.266 . S
Co442 O445 1.970 . S
Co442 N459 1.989 . S
Co442 O467 1.967 . S
Co442 O474 1.920 . S
Co443 O446 1.966 . S
Co443 N452 2.022 . S
Co443 N460 1.993 . S
Co443 O468 1.941 . S
C444 O445 1.258 . S
C444 O446 1.263 . S
O445 Co442 1.970 . S
O445 C444 1.258 . S
O446 Co443 1.966 . S
O446 C444 1.263 . S
C447 O448 1.235 . S
C447 O474 1.289 . S
O448 C447 1.235 . S
C449 C451 1.400 . S
C449 N452 1.351 . S
C449 C454 1.501 . S
C450 C451 1.387 . S
C450 N453 1.341 . S
C451 C449 1.400 . S
C451 C450 1.387 . S
N452 Co443 2.022 . S
N452 C449 1.351 . S
N452 N453 1.365 . S
N453 C450 1.341 . S
N453 N452 1.365 . S
N453 H473 0.862 . S
C454 C449 1.501 . S
C454 H455 0.961 . S
C454 H456 0.961 . S
C454 H457 0.960 . S
H455 C454 0.961 . S
H456 C454 0.961 . S
H457 C454 0.960 . S
C458 N459 1.342 . S
C458 C462 1.401 . S
C458 C463 1.499 . S
N459 Co442 1.989 . S
N459 C458 1.342 . S
N459 N460 1.388 . S
N460 Co443 1.993 . S
N460 N459 1.388 . S
N460 C461 1.346 . S
C461 N460 1.346 . S
C461 C462 1.396 . S
C461 C471 1.510 . S
C462 C458 1.401 . S
C462 C461 1.396 . S
C463 C458 1.499 . S
C463 H464 0.959 . S
C463 H465 0.960 . S
C463 H466 0.961 . S
H464 C463 0.959 . S
H465 C463 0.960 . S
H466 C463 0.961 . S
O467 Co442 1.967 . S
O467 C475 1.258 . S
O468 Co443 1.941 . S
O468 C475 1.266 . S
H469 C471 0.959 . S
H470 C471 0.961 . S
C471 C461 1.510 . S
C471 H469 0.959 . S
C471 H470 0.961 . S
C471 H472 0.960 . S
H472 C471 0.960 . S
H473 N453 0.862 . S
O474 Co442 1.920 . S
O474 C447 1.289 . S
C475 O467 1.258 . S
C475 O468 1.266 . S
Co476 O479 1.970 . S
Co476 N493 1.989 . S
Co476 O501 1.967 . S
Co476 O508 1.920 . S
Co477 O480 1.966 . S
Co477 N486 2.022 . S
Co477 N494 1.993 . S
Co477 O502 1.941 . S
C478 O479 1.258 . S
C478 O480 1.263 . S
O479 Co476 1.970 . S
O479 C478 1.258 . S
O480 Co477 1.966 . S
O480 C478 1.263 . S
C481 O482 1.235 . S
C481 O508 1.289 . S
O482 C481 1.235 . S
C483 C485 1.400 . S
C483 N486 1.351 . S
C483 C488 1.501 . S
C484 C485 1.387 . S
C484 N487 1.341 . S
C485 C483 1.400 . S
C485 C484 1.387 . S
N486 Co477 2.022 . S
N486 C483 1.351 . S
N486 N487 1.365 . S
N487 C484 1.341 . S
N487 N486 1.365 . S
N487 H507 0.862 . S
C488 C483 1.501 . S
C488 H489 0.961 . S
C488 H490 0.961 . S
C488 H491 0.960 . S
H489 C488 0.961 . S
H490 C488 0.961 . S
H491 C488 0.960 . S
C492 N493 1.342 . S
C492 C496 1.401 . S
C492 C497 1.499 . S
N493 Co476 1.989 . S
N493 C492 1.342 . S
N493 N494 1.388 . S
N494 Co477 1.993 . S
N494 N493 1.388 . S
N494 C495 1.346 . S
C495 N494 1.346 . S
C495 C496 1.396 . S
C495 C505 1.510 . S
C496 C492 1.401 . S
C496 C495 1.396 . S
C497 C492 1.499 . S
C497 H498 0.959 . S
C497 H499 0.960 . S
C497 H500 0.961 . S
H498 C497 0.959 . S
H499 C497 0.960 . S
H500 C497 0.961 . S
O501 Co476 1.967 . S
O501 C509 1.258 . S
O502 Co477 1.941 . S
O502 C509 1.266 . S
H503 C505 0.959 . S
H504 C505 0.961 . S
C505 C495 1.510 . S
C505 H503 0.959 . S
C505 H504 0.961 . S
C505 H506 0.960 . S
H506 C505 0.960 . S
H507 N487 0.862 . S
O508 Co476 1.920 . S
O508 C481 1.289 . S
C509 O501 1.258 . S
C509 O502 1.266 . S
Co510 O513 1.970 . S
Co510 N527 1.989 . S
Co510 O535 1.967 . S
Co510 O542 1.920 . S
Co511 O514 1.966 . S
Co511 N520 2.022 . S
Co511 N528 1.993 . S
Co511 O536 1.941 . S
C512 O513 1.258 . S
C512 O514 1.263 . S
O513 Co510 1.970 . S
O513 C512 1.258 . S
O514 Co511 1.966 . S
O514 C512 1.263 . S
C515 O516 1.235 . S
C515 O542 1.289 . S
O516 C515 1.235 . S
C517 C519 1.400 . S
C517 N520 1.351 . S
C517 C522 1.501 . S
C518 C519 1.387 . S
C518 N521 1.341 . S
C519 C517 1.400 . S
C519 C518 1.387 . S
N520 Co511 2.022 . S
N520 C517 1.351 . S
N520 N521 1.365 . S
N521 C518 1.341 . S
N521 N520 1.365 . S
N521 H541 0.862 . S
C522 C517 1.501 . S
C522 H523 0.961 . S
C522 H524 0.961 . S
C522 H525 0.960 . S
H523 C522 0.961 . S
H524 C522 0.961 . S
H525 C522 0.960 . S
C526 N527 1.342 . S
C526 C530 1.401 . S
C526 C531 1.499 . S
N527 Co510 1.989 . S
N527 C526 1.342 . S
N527 N528 1.388 . S
N528 Co511 1.993 . S
N528 N527 1.388 . S
N528 C529 1.346 . S
C529 N528 1.346 . S
C529 C530 1.396 . S
C529 C539 1.510 . S
C530 C526 1.401 . S
C530 C529 1.396 . S
C531 C526 1.499 . S
C531 H532 0.959 . S
C531 H533 0.960 . S
C531 H534 0.961 . S
H532 C531 0.959 . S
H533 C531 0.960 . S
H534 C531 0.961 . S
O535 Co510 1.967 . S
O535 C543 1.258 . S
O536 Co511 1.941 . S
O536 C543 1.266 . S
H537 C539 0.959 . S
H538 C539 0.961 . S
C539 C529 1.510 . S
C539 H537 0.959 . S
C539 H538 0.961 . S
C539 H540 0.960 . S
H540 C539 0.960 . S
H541 N521 0.862 . S
O542 Co510 1.920 . S
O542 C515 1.289 . S
C543 O535 1.258 . S
C543 O536 1.266 . S
C544 C545 1.369 . S
C544 C546 1.419 . S
C544 H548 0.930 . S
C545 C544 1.369 . S
C545 C554 1.429 . S
C546 C544 1.419 . S
C546 C547 1.363 . S
C546 H549 0.929 . S
C547 C546 1.363 . S
C547 C553 1.428 . S
H548 C544 0.930 . S
H549 C546 0.929 . S
S550 N551 1.613 . S
S550 N552 1.610 . S
N551 S550 1.613 . S
N551 C554 1.350 . S
N552 S550 1.610 . S
N552 C553 1.351 . S
C553 C547 1.428 . S
C553 N552 1.351 . S
C553 C554 1.434 . S
C554 C545 1.429 . S
C554 N551 1.350 . S
C554 C553 1.434 . S
C555 C556 1.369 . S
C555 C557 1.419 . S
C555 H559 0.930 . S
C556 C555 1.369 . S
C556 C565 1.429 . S
C557 C555 1.419 . S
C557 C558 1.363 . S
C557 H560 0.929 . S
C558 C557 1.363 . S
C558 C564 1.428 . S
H559 C555 0.930 . S
H560 C557 0.929 . S
S561 N562 1.613 . S
S561 N563 1.610 . S
N562 S561 1.613 . S
N562 C565 1.350 . S
N563 S561 1.610 . S
N563 C564 1.351 . S
C564 C558 1.428 . S
C564 N563 1.351 . S
C564 C565 1.434 . S
C565 C556 1.429 . S
C565 N562 1.350 . S
C565 C564 1.434 . S
C566 C567 1.369 . S
C566 C568 1.419 . S
C566 H570 0.930 . S
C567 C566 1.369 . S
C567 C576 1.429 . S
C568 C566 1.419 . S
C568 C569 1.363 . S
C568 H571 0.929 . S
C569 C568 1.363 . S
C569 C575 1.428 . S
H570 C566 0.930 . S
H571 C568 0.929 . S
S572 N573 1.613 . S
S572 N574 1.610 . S
N573 S572 1.613 . S
N573 C576 1.350 . S
N574 S572 1.610 . S
N574 C575 1.351 . S
C575 C569 1.428 . S
C575 N574 1.351 . S
C575 C576 1.434 . S
C576 C567 1.429 . S
C576 N573 1.350 . S
C576 C575 1.434 . S
C577 C578 1.369 . S
C577 C579 1.419 . S
C577 H581 0.930 . S
C578 C577 1.369 . S
C578 C587 1.429 . S
C579 C577 1.419 . S
C579 C580 1.363 . S
C579 H582 0.929 . S
C580 C579 1.363 . S
C580 C586 1.428 . S
H581 C577 0.930 . S
H582 C579 0.929 . S
S583 N584 1.613 . S
S583 N585 1.610 . S
N584 S583 1.613 . S
N584 C587 1.350 . S
N585 S583 1.610 . S
N585 C586 1.351 . S
C586 C580 1.428 . S
C586 N585 1.351 . S
C586 C587 1.434 . S
C587 C578 1.429 . S
C587 N584 1.350 . S
C587 C586 1.434 . S
C588 C589 1.369 . S
C588 C590 1.419 . S
C588 H592 0.930 . S
C589 C588 1.369 . S
C589 C598 1.429 . S
C590 C588 1.419 . S
C590 C591 1.363 . S
C590 H593 0.929 . S
C591 C590 1.363 . S
C591 C597 1.428 . S
H592 C588 0.930 . S
H593 C590 0.929 . S
S594 N595 1.613 . S
S594 N596 1.610 . S
N595 S594 1.613 . S
N595 C598 1.350 . S
N596 S594 1.610 . S
N596 C597 1.351 . S
C597 C591 1.428 . S
C597 N596 1.351 . S
C597 C598 1.434 . S
C598 C589 1.429 . S
C598 N595 1.350 . S
C598 C597 1.434 . S
C599 C600 1.369 . S
C599 C601 1.419 . S
C599 H603 0.930 . S
C600 C599 1.369 . S
C600 C609 1.429 . S
C601 C599 1.419 . S
C601 C602 1.363 . S
C601 H604 0.929 . S
C602 C601 1.363 . S
C602 C608 1.428 . S
H603 C599 0.930 . S
H604 C601 0.929 . S
S605 N606 1.613 . S
S605 N607 1.610 . S
N606 S605 1.613 . S
N606 C609 1.350 . S
N607 S605 1.610 . S
N607 C608 1.351 . S
C608 C602 1.428 . S
C608 N607 1.351 . S
C608 C609 1.434 . S
C609 C600 1.429 . S
C609 N606 1.350 . S
C609 C608 1.434 . S
C610 C611 1.369 . S
C610 C612 1.419 . S
C610 H614 0.930 . S
C611 C610 1.369 . S
C611 C620 1.429 . S
C612 C610 1.419 . S
C612 C613 1.363 . S
C612 H615 0.929 . S
C613 C612 1.363 . S
C613 C619 1.428 . S
H614 C610 0.930 . S
H615 C612 0.929 . S
S616 N617 1.613 . S
S616 N618 1.610 . S
N617 S616 1.613 . S
N617 C620 1.350 . S
N618 S616 1.610 . S
N618 C619 1.351 . S
C619 C613 1.428 . S
C619 N618 1.351 . S
C619 C620 1.434 . S
C620 C611 1.429 . S
C620 N617 1.350 . S
C620 C619 1.434 . S
C621 C622 1.369 . S
C621 C623 1.419 . S
C621 H625 0.930 . S
C622 C621 1.369 . S
C622 C631 1.429 . S
C623 C621 1.419 . S
C623 C624 1.363 . S
C623 H626 0.929 . S
C624 C623 1.363 . S
C624 C630 1.428 . S
H625 C621 0.930 . S
H626 C623 0.929 . S
S627 N628 1.613 . S
S627 N629 1.610 . S
N628 S627 1.613 . S
N628 C631 1.350 . S
N629 S627 1.610 . S
N629 C630 1.351 . S
C630 C624 1.428 . S
C630 N629 1.351 . S
C630 C631 1.434 . S
C631 C622 1.429 . S
C631 N628 1.350 . S
C631 C630 1.434 . S
C632 C633 1.369 . S
C632 C634 1.419 1_554 S
C632 H636 0.930 . S
C633 C632 1.369 . S
C633 C642 1.429 . S
C634 C632 1.419 1_556 S
C634 C635 1.363 . S
C634 H637 0.929 . S
C635 C634 1.363 . S
C635 C641 1.428 . S
H636 C632 0.930 . S
H637 C634 0.929 . S
S638 N639 1.617 1_656 S
S638 N640 1.606 1_655 S
N639 S638 1.617 1_454 S
N639 C642 1.350 . S
N640 S638 1.606 1_455 S
N640 C641 1.351 . S
C641 C635 1.428 . S
C641 N640 1.351 . S
C641 C642 1.434 1_556 S
C642 C633 1.429 . S
C642 N639 1.350 . S
C642 C641 1.434 1_554 S
C643 C644 1.369 . S
C643 C645 1.419 . S
C643 H647 0.930 . S
C644 C643 1.369 . S
C644 C653 1.429 . S
C645 C643 1.419 . S
C645 C646 1.363 . S
C645 H648 0.929 . S
C646 C645 1.363 . S
C646 C652 1.428 . S
H647 C643 0.930 . S
H648 C645 0.929 . S
S649 N650 1.613 . S
S649 N651 1.610 . S
N650 S649 1.613 . S
N650 C653 1.350 . S
N651 S649 1.610 . S
N651 C652 1.351 . S
C652 C646 1.428 . S
C652 N651 1.351 . S
C652 C653 1.434 . S
C653 C644 1.429 . S
C653 N650 1.350 . S
C653 C652 1.434 . S
C654 C655 1.369 . S
C654 C656 1.419 1_556 S
C654 H658 0.930 . S
C655 C654 1.369 . S
C655 C664 1.429 . S
C656 C654 1.419 1_554 S
C656 C657 1.363 . S
C656 H659 0.929 . S
C657 C656 1.363 . S
C657 C663 1.428 . S
H658 C654 0.930 . S
H659 C656 0.929 . S
S660 N661 1.617 1_554 S
S660 N662 1.606 . S
N661 S660 1.617 1_556 S
N661 C664 1.350 . S
N662 S660 1.606 . S
N662 C663 1.351 . S
C663 C657 1.428 . S
C663 N662 1.351 . S
C663 C664 1.434 1_554 S
C664 C655 1.429 . S
C664 N661 1.350 . S
C664 C663 1.434 1_556 S
C665 C666 1.369 . S
C665 C667 1.419 . S
C665 H669 0.930 . S
C666 C665 1.369 . S
C666 C675 1.429 . S
C667 C665 1.419 . S
C667 C668 1.363 . S
C667 H670 0.929 . S
C668 C667 1.363 . S
C668 C674 1.428 . S
H669 C665 0.930 . S
H670 C667 0.929 . S
S671 N672 1.613 . S
S671 N673 1.610 . S
N672 S671 1.613 . S
N672 C675 1.350 . S
N673 S671 1.610 . S
N673 C674 1.351 . S
C674 C668 1.428 . S
C674 N673 1.351 . S
C674 C675 1.434 . S
C675 C666 1.429 . S
C675 N672 1.350 . S
C675 C674 1.434 . S
C676 C677 1.369 . S
C676 C678 1.419 1_554 S
C676 H680 0.930 . S
C677 C676 1.369 . S
C677 C686 1.429 . S
C678 C676 1.419 1_556 S
C678 C679 1.363 . S
C678 H681 0.929 . S
C679 C678 1.363 . S
C679 C685 1.428 . S
H680 C676 0.930 . S
H681 C678 0.929 . S
S682 N683 1.617 1_556 S
S682 N684 1.606 . S
N683 S682 1.617 1_554 S
N683 C686 1.350 . S
N684 S682 1.606 . S
N684 C685 1.351 . S
C685 C679 1.428 . S
C685 N684 1.351 . S
C685 C686 1.434 1_556 S
C686 C677 1.429 . S
C686 N683 1.350 . S
C686 C685 1.434 1_554 S
C687 C688 1.369 . S
C687 C689 1.419 . S
C687 H691 0.930 . S
C688 C687 1.369 . S
C688 C697 1.429 . S
C689 C687 1.419 . S
C689 C690 1.363 . S
C689 H692 0.929 . S
C690 C689 1.363 . S
C690 C696 1.428 . S
H691 C687 0.930 . S
H692 C689 0.929 . S
S693 N694 1.613 . S
S693 N695 1.610 . S
N694 S693 1.613 . S
N694 C697 1.350 . S
N695 S693 1.610 . S
N695 C696 1.351 . S
C696 C690 1.428 . S
C696 N695 1.351 . S
C696 C697 1.434 . S
C697 C688 1.429 . S
C697 N694 1.350 . S
C697 C696 1.434 . S
C698 C699 1.369 . S
C698 C700 1.419 1_554 S
C698 H702 0.930 . S
C699 C698 1.369 . S
C699 C708 1.429 . S
C700 C698 1.419 1_556 S
C700 C701 1.363 . S
C700 H703 0.929 . S
C701 C700 1.363 . S
C701 C707 1.428 . S
H702 C698 0.930 . S
H703 C700 0.929 . S
S704 N705 1.617 1_556 S
S704 N706 1.606 . S
N705 S704 1.617 1_554 S
N705 C708 1.350 . S
N706 S704 1.606 . S
N706 C707 1.351 . S
C707 C701 1.428 . S
C707 N706 1.351 . S
C707 C708 1.434 1_556 S
C708 C699 1.429 . S
C708 N705 1.350 . S
C708 C707 1.434 1_554 S
C709 C710 1.369 . S
C709 C711 1.419 . S
C709 H713 0.930 . S
C710 C709 1.369 . S
C710 C719 1.429 . S
C711 C709 1.419 . S
C711 C712 1.363 . S
C711 H714 0.929 . S
C712 C711 1.363 . S
C712 C718 1.428 . S
H713 C709 0.930 . S
H714 C711 0.929 . S
S715 N716 1.613 . S
S715 N717 1.610 . S
N716 S715 1.613 . S
N716 C719 1.350 . S
N717 S715 1.610 . S
N717 C718 1.351 . S
C718 C712 1.428 . S
C718 N717 1.351 . S
C718 C719 1.434 . S
C719 C710 1.429 . S
C719 N716 1.350 . S
C719 C718 1.434 . S
C720 C721 1.369 . S
C720 C722 1.419 . S
C720 H724 0.930 . S
C721 C720 1.369 . S
C721 C730 1.429 1_455 S
C722 C720 1.419 . S
C722 C723 1.363 1_455 S
C722 H725 0.929 . S
C723 C722 1.363 1_655 S
C723 C729 1.428 . S
H724 C720 0.930 . S
H725 C722 0.929 . S
S726 N727 1.613 . S
S726 N728 1.610 . S
N727 S726 1.613 . S
N727 C730 1.350 . S
N728 S726 1.610 . S
N728 C729 1.351 . S
C729 C723 1.428 . S
C729 N728 1.351 . S
C729 C730 1.434 . S
C730 C721 1.429 1_655 S
C730 N727 1.350 . S
C730 C729 1.434 . S
C731 C732 1.369 1_545 S
C731 C733 1.419 . S
C731 H735 0.930 . S
C732 C731 1.369 1_565 S
C732 C741 1.429 . S
C733 C731 1.419 . S
C733 C734 1.363 . S
C733 H736 0.929 . S
C734 C733 1.363 . S
C734 C740 1.428 1_545 S
H735 C731 0.930 . S
H736 C733 0.929 . S
S737 N738 1.613 . S
S737 N739 1.610 . S
N738 S737 1.613 . S
N738 C741 1.350 . S
N739 S737 1.610 . S
N739 C740 1.351 . S
C740 C734 1.428 1_565 S
C740 N739 1.351 . S
C740 C741 1.434 . S
C741 C732 1.429 . S
C741 N738 1.350 . S
C741 C740 1.434 . S
C742 C743 1.369 1_545 S
C742 C744 1.419 . S
C742 H746 0.930 . S
C743 C742 1.369 1_565 S
C743 C752 1.429 . S
C744 C742 1.419 . S
C744 C745 1.363 . S
C744 H747 0.929 . S
C745 C744 1.363 . S
C745 C751 1.428 1_545 S
H746 C742 0.930 . S
H747 C744 0.929 . S
S748 N749 1.613 . S
S748 N750 1.610 . S
N749 S748 1.613 . S
N749 C752 1.350 . S
N750 S748 1.610 . S
N750 C751 1.351 . S
C751 C745 1.428 1_565 S
C751 N750 1.351 . S
C751 C752 1.434 . S
C752 C743 1.429 . S
C752 N749 1.350 . S
C752 C751 1.434 . S
C753 C754 1.369 . S
C753 C755 1.419 . S
C753 H757 0.930 . S
C754 C753 1.369 . S
C754 C763 1.429 1_455 S
C755 C753 1.419 . S
C755 C756 1.363 1_455 S
C755 H758 0.929 . S
C756 C755 1.363 1_655 S
C756 C762 1.428 . S
H757 C753 0.930 . S
H758 C755 0.929 . S
S759 N760 1.613 . S
S759 N761 1.610 . S
N760 S759 1.613 . S
N760 C763 1.350 . S
N761 S759 1.610 . S
N761 C762 1.351 . S
C762 C756 1.428 . S
C762 N761 1.351 . S
C762 C763 1.434 . S
C763 C754 1.429 1_655 S
C763 N760 1.350 . S
C763 C762 1.434 . S
C764 C765 1.369 . S
C764 C766 1.419 1_655 S
C764 H768 0.931 . S
C765 C764 1.369 . S
C765 C774 1.429 . S
C766 C764 1.419 1_455 S
C766 C767 1.363 . S
C766 H769 0.929 . S
C767 C766 1.363 . S
C767 C773 1.432 . S
H768 C764 0.931 . S
H769 C766 0.929 . S
S770 N771 1.613 . S
S770 N772 1.610 . S
N771 S770 1.613 . S
N771 C774 1.350 . S
N772 S770 1.610 . S
N772 C773 1.351 1_655 S
C773 C767 1.432 . S
C773 N772 1.351 1_455 S
C773 C774 1.430 1_455 S
C774 C765 1.429 . S
C774 N771 1.350 . S
C774 C773 1.430 1_655 S
C775 C776 1.369 . S
C775 C777 1.403 1_545 S
C775 H779 0.930 . S
C776 C775 1.369 . S
C776 C785 1.429 1_545 S
C777 C775 1.403 1_565 S
C777 C778 1.380 . S
C777 H780 0.928 1_565 S
C778 C777 1.380 . S
C778 C784 1.428 . S
H779 C775 0.930 . S
H780 C777 0.928 1_545 S
S781 N782 1.613 . S
S781 N783 1.610 . S
N782 S781 1.613 . S
N782 C785 1.350 . S
N783 S781 1.610 . S
N783 C784 1.351 . S
C784 C778 1.428 . S
C784 N783 1.351 . S
C784 C785 1.434 . S
C785 C776 1.429 1_565 S
C785 N782 1.350 . S
C785 C784 1.434 . S
C786 C787 1.369 . S
C786 C788 1.419 . S
C786 H790 0.930 . S
C787 C786 1.369 . S
C787 C796 1.429 1_565 S
C788 C786 1.419 . S
C788 C789 1.363 1_565 S
C788 H791 0.929 . S
C789 C788 1.363 1_545 S
C789 C795 1.428 . S
H790 C786 0.930 . S
H791 C788 0.929 . S
S792 N793 1.613 . S
S792 N794 1.610 . S
N793 S792 1.613 . S
N793 C796 1.350 . S
N794 S792 1.610 . S
N794 C795 1.351 . S
C795 C789 1.428 . S
C795 N794 1.351 . S
C795 C796 1.434 . S
C796 C787 1.429 1_545 S
C796 N793 1.350 . S
C796 C795 1.434 . S
C797 C798 1.369 . S
C797 C799 1.419 . S
C797 H801 0.930 . S
C798 C797 1.369 . S
C798 C807 1.429 1_455 S
C799 C797 1.419 . S
C799 C800 1.363 1_455 S
C799 H802 0.929 . S
C800 C799 1.363 1_655 S
C800 C806 1.428 . S
H801 C797 0.930 . S
H802 C799 0.929 . S
S803 N804 1.613 . S
S803 N805 1.610 . S
N804 S803 1.613 . S
N804 C807 1.350 . S
N805 S803 1.610 . S
N805 C806 1.351 . S
C806 C800 1.428 . S
C806 N805 1.351 . S
C806 C807 1.434 . S
C807 C798 1.429 1_655 S
C807 N804 1.350 . S
C807 C806 1.434 . S
C808 C809 1.369 . S
C808 C810 1.419 . S
C808 H812 0.930 . S
C809 C808 1.369 . S
C809 C818 1.429 . S
C810 C808 1.419 . S
C810 C811 1.363 . S
C810 H813 0.929 . S
C811 C810 1.363 . S
C811 C817 1.428 . S
H812 C808 0.930 . S
H813 C810 0.929 . S
S814 N815 1.613 . S
S814 N816 1.610 . S
N815 S814 1.613 . S
N815 C818 1.350 . S
N816 S814 1.610 . S
N816 C817 1.351 . S
C817 C811 1.428 . S
C817 N816 1.351 . S
C817 C818 1.434 . S
C818 C809 1.429 . S
C818 N815 1.350 . S
C818 C817 1.434 . S
C819 C820 1.369 . S
C819 C821 1.419 . S
C819 H823 0.930 . S
C820 C819 1.369 . S
C820 C829 1.429 . S
C821 C819 1.419 . S
C821 C822 1.363 . S
C821 H824 0.929 . S
C822 C821 1.363 . S
C822 C828 1.428 . S
H823 C819 0.930 . S
H824 C821 0.929 . S
S825 N826 1.613 . S
S825 N827 1.610 . S
N826 S825 1.613 . S
N826 C829 1.350 . S
N827 S825 1.610 . S
N827 C828 1.351 . S
C828 C822 1.428 . S
C828 N827 1.351 . S
C828 C829 1.434 . S
C829 C820 1.429 . S
C829 N826 1.350 . S
C829 C828 1.434 . S
C830 C831 1.369 . S
C830 C832 1.419 . S
C830 H834 0.930 . S
C831 C830 1.369 . S
C831 C840 1.429 . S
C832 C830 1.419 . S
C832 C833 1.363 . S
C832 H835 0.929 . S
C833 C832 1.363 . S
C833 C839 1.428 . S
H834 C830 0.930 . S
H835 C832 0.929 . S
S836 N837 1.613 . S
S836 N838 1.610 . S
N837 S836 1.613 . S
N837 C840 1.350 . S
N838 S836 1.610 . S
N838 C839 1.351 . S
C839 C833 1.428 . S
C839 N838 1.351 . S
C839 C840 1.434 . S
C840 C831 1.429 . S
C840 N837 1.350 . S
C840 C839 1.434 . S
C841 C842 1.369 . S
C841 C843 1.419 . S
C841 H845 0.930 . S
C842 C841 1.369 . S
C842 C851 1.429 . S
C843 C841 1.419 . S
C843 C844 1.363 . S
C843 H846 0.929 . S
C844 C843 1.363 . S
C844 C850 1.428 . S
H845 C841 0.930 . S
H846 C843 0.929 . S
S847 N848 1.613 . S
S847 N849 1.610 . S
N848 S847 1.613 . S
N848 C851 1.350 . S
N849 S847 1.610 . S
N849 C850 1.351 . S
C850 C844 1.428 . S
C850 N849 1.351 . S
C850 C851 1.434 . S
C851 C842 1.429 . S
C851 N848 1.350 . S
C851 C850 1.434 . S
C852 C853 1.369 . S
C852 C854 1.419 . S
C852 H856 0.930 . S
C853 C852 1.369 . S
C853 C862 1.429 . S
C854 C852 1.419 . S
C854 C855 1.363 . S
C854 H857 0.929 . S
C855 C854 1.363 . S
C855 C861 1.428 . S
H856 C852 0.930 . S
H857 C854 0.929 . S
S858 N859 1.613 . S
S858 N860 1.610 . S
N859 S858 1.613 . S
N859 C862 1.350 . S
N860 S858 1.610 . S
N860 C861 1.351 . S
C861 C855 1.428 . S
C861 N860 1.351 . S
C861 C862 1.434 . S
C862 C853 1.429 . S
C862 N859 1.350 . S
C862 C861 1.434 . S
C863 C864 1.369 . S
C863 C865 1.419 . S
C863 H867 0.930 . S
C864 C863 1.369 . S
C864 C873 1.429 . S
C865 C863 1.419 . S
C865 C866 1.363 . S
C865 H868 0.929 . S
C866 C865 1.363 . S
C866 C872 1.428 . S
H867 C863 0.930 . S
H868 C865 0.929 . S
S869 N870 1.613 . S
S869 N871 1.610 . S
N870 S869 1.613 . S
N870 C873 1.350 . S
N871 S869 1.610 . S
N871 C872 1.351 . S
C872 C866 1.428 . S
C872 N871 1.351 . S
C872 C873 1.434 . S
C873 C864 1.429 . S
C873 N870 1.350 . S
C873 C872 1.434 . S
C874 C875 1.369 . S
C874 C876 1.419 . S
C874 H878 0.930 . S
C875 C874 1.369 . S
C875 C884 1.429 . S
C876 C874 1.419 . S
C876 C877 1.363 . S
C876 H879 0.929 . S
C877 C876 1.363 . S
C877 C883 1.428 . S
H878 C874 0.930 . S
H879 C876 0.929 . S
S880 N881 1.613 . S
S880 N882 1.610 . S
N881 S880 1.613 . S
N881 C884 1.350 . S
N882 S880 1.610 . S
N882 C883 1.351 . S
C883 C877 1.428 . S
C883 N882 1.351 . S
C883 C884 1.434 . S
C884 C875 1.429 . S
C884 N881 1.350 . S
C884 C883 1.434 . S
C885 C886 1.369 . S
C885 C887 1.419 . S
C885 H889 0.930 . S
C886 C885 1.369 . S
C886 C895 1.429 . S
C887 C885 1.419 . S
C887 C888 1.363 . S
C887 H890 0.929 . S
C888 C887 1.363 . S
C888 C894 1.428 . S
H889 C885 0.930 . S
H890 C887 0.929 . S
S891 N892 1.613 . S
S891 N893 1.610 . S
N892 S891 1.613 . S
N892 C895 1.350 . S
N893 S891 1.610 . S
N893 C894 1.351 . S
C894 C888 1.428 . S
C894 N893 1.351 . S
C894 C895 1.434 . S
C895 C886 1.429 . S
C895 N892 1.350 . S
C895 C894 1.434 . S
C896 C897 1.369 . S
C896 C898 1.419 . S
C896 H900 0.930 . S
C897 C896 1.369 . S
C897 C906 1.429 . S
C898 C896 1.419 . S
C898 C899 1.363 . S
C898 H901 0.929 . S
C899 C898 1.363 . S
C899 C905 1.428 . S
H900 C896 0.930 . S
H901 C898 0.929 . S
S902 N903 1.613 . S
S902 N904 1.610 . S
N903 S902 1.613 . S
N903 C906 1.350 . S
N904 S902 1.610 . S
N904 C905 1.351 . S
C905 C899 1.428 . S
C905 N904 1.351 . S
C905 C906 1.434 . S
C906 C897 1.429 . S
C906 N903 1.350 . S
C906 C905 1.434 . S
C907 C908 1.369 . S
C907 C909 1.419 . S
C907 H911 0.930 . S
C908 C907 1.369 . S
C908 C917 1.429 . S
C909 C907 1.419 . S
C909 C910 1.363 . S
C909 H912 0.929 . S
C910 C909 1.363 . S
C910 C916 1.428 . S
H911 C907 0.930 . S
H912 C909 0.929 . S
S913 N914 1.613 . S
S913 N915 1.610 . S
N914 S913 1.613 . S
N914 C917 1.350 . S
N915 S913 1.610 . S
N915 C916 1.351 . S
C916 C910 1.428 . S
C916 N915 1.351 . S
C916 C917 1.434 . S
C917 C908 1.429 . S
C917 N914 1.350 . S
C917 C916 1.434 . S
C918 C919 1.369 . S
C918 C920 1.419 . S
C918 H922 0.930 . S
C919 C918 1.369 . S
C919 C928 1.429 . S
C920 C918 1.419 . S
C920 C921 1.363 . S
C920 H923 0.929 . S
C921 C920 1.363 . S
C921 C927 1.428 . S
H922 C918 0.930 . S
H923 C920 0.929 . S
S924 N925 1.613 . S
S924 N926 1.610 . S
N925 S924 1.613 . S
N925 C928 1.350 . S
N926 S924 1.610 . S
N926 C927 1.351 . S
C927 C921 1.428 . S
C927 N926 1.351 . S
C927 C928 1.434 . S
C928 C919 1.429 . S
C928 N925 1.350 . S
C928 C927 1.434 . S
C929 C930 1.369 . S
C929 C931 1.419 . S
C929 H933 0.930 . S
C930 C929 1.369 . S
C930 C939 1.429 . S
C931 C929 1.419 . S
C931 C932 1.363 . S
C931 H934 0.929 . S
C932 C931 1.363 . S
C932 C938 1.428 . S
H933 C929 0.930 . S
H934 C931 0.929 . S
S935 N936 1.613 . S
S935 N937 1.610 . S
N936 S935 1.613 . S
N936 C939 1.350 . S
N937 S935 1.610 . S
N937 C938 1.351 . S
C938 C932 1.428 . S
C938 N937 1.351 . S
C938 C939 1.434 . S
C939 C930 1.429 . S
C939 N936 1.350 . S
C939 C938 1.434 . S
C940 C941 1.369 . S
C940 C942 1.419 . S
C940 H944 0.930 . S
C941 C940 1.369 . S
C941 C950 1.429 . S
C942 C940 1.419 . S
C942 C943 1.363 . S
C942 H945 0.929 . S
C943 C942 1.363 . S
C943 C949 1.428 . S
H944 C940 0.930 . S
H945 C942 0.929 . S
S946 N947 1.613 . S
S946 N948 1.610 . S
N947 S946 1.613 . S
N947 C950 1.350 . S
N948 S946 1.610 . S
N948 C949 1.351 . S
C949 C943 1.428 . S
C949 N948 1.351 . S
C949 C950 1.434 . S
C950 C941 1.429 . S
C950 N947 1.350 . S
C950 C949 1.434 . S
C951 C952 1.369 . S
C951 C953 1.419 . S
C951 H955 0.930 . S
C952 C951 1.369 . S
C952 C961 1.429 . S
C953 C951 1.419 . S
C953 C954 1.363 . S
C953 H956 0.929 . S
C954 C953 1.363 . S
C954 C960 1.428 . S
H955 C951 0.930 . S
H956 C953 0.929 . S
S957 N958 1.613 . S
S957 N959 1.610 . S
N958 S957 1.613 . S
N958 C961 1.350 . S
N959 S957 1.610 . S
N959 C960 1.351 . S
C960 C954 1.428 . S
C960 N959 1.351 . S
C960 C961 1.434 . S
C961 C952 1.429 . S
C961 N958 1.350 . S
C961 C960 1.434 . S
C962 C963 1.369 . S
C962 C964 1.419 . S
C962 H966 0.930 . S
C963 C962 1.369 . S
C963 C972 1.429 . S
C964 C962 1.419 . S
C964 C965 1.363 . S
C964 H967 0.929 . S
C965 C964 1.363 . S
C965 C971 1.428 . S
H966 C962 0.930 . S
H967 C964 0.929 . S
S968 N969 1.613 . S
S968 N970 1.610 . S
N969 S968 1.613 . S
N969 C972 1.350 . S
N970 S968 1.610 . S
N970 C971 1.351 . S
C971 C965 1.428 . S
C971 N970 1.351 . S
C971 C972 1.434 . S
C972 C963 1.429 . S
C972 N969 1.350 . S
C972 C971 1.434 . S
C973 C974 1.369 . S
C973 C975 1.419 . S
C973 H977 0.930 . S
C974 C973 1.369 . S
C974 C983 1.429 . S
C975 C973 1.419 . S
C975 C976 1.363 . S
C975 H978 0.929 . S
C976 C975 1.363 . S
C976 C982 1.428 . S
H977 C973 0.930 . S
H978 C975 0.929 . S
S979 N980 1.613 . S
S979 N981 1.610 . S
N980 S979 1.613 . S
N980 C983 1.350 . S
N981 S979 1.610 . S
N981 C982 1.351 . S
C982 C976 1.428 . S
C982 N981 1.351 . S
C982 C983 1.434 . S
C983 C974 1.429 . S
C983 N980 1.350 . S
C983 C982 1.434 . S
C545 C5 1.785 . S
C547 C243 1.782 . S
C556 C141 1.780 . S
C558 C39 1.784 . S
C567 C175 1.782 . S
C569 C73 1.784 . S
C578 C209 1.785 . S
C580 C107 1.781 . S
C589 C277 1.784 . S
C591 C515 1.781 . S
C600 C311 1.780 . S
C602 C413 1.785 . S
C611 C447 1.781 . S
C613 C345 1.785 . S
C622 C379 1.783 . S
C624 C481 1.784 . S
C633 C9 1.493 . S
C635 C349 1.491 . S
C644 C383 1.488 . S
C646 C43 1.487 . S
C655 C281 1.481 . S
C657 C77 1.483 . S
C666 C315 1.491 . S
C668 C111 1.491 . S
C677 C485 1.484 . S
C679 C145 1.484 . S
C688 C519 1.485 . S
C690 C179 1.485 . S
C699 C417 1.489 . S
C701 C213 1.488 . S
C710 C451 1.489 . S
C712 C247 1.489 . S
C721 C33 0.970 . S
C723 C101 0.983 . S
C732 C135 0.985 . S
C734 C67 0.973 . S
C743 C237 0.975 . S
C745 C169 0.979 . S
C754 C271 0.986 . S
C756 C203 0.972 . S
C765 C305 0.981 . S
C767 C373 0.974 . S
C776 C407 0.970 . S
C778 C339 0.984 . S
C787 C441 0.985 . S
C789 C509 0.972 . S
C798 C475 0.984 . S
C800 C543 0.972 . S
C809 C478 1.421 . S
C811 C20 1.438 . S
C820 C54 1.436 . S
C822 C512 1.423 . S
C831 C410 1.419 . S
C833 C88 1.438 . S
C842 C444 1.419 . S
C844 C122 1.437 . S
C853 C342 1.419 1_655 S
C855 C156 1.438 . S
C864 C190 1.438 . S
C866 C376 1.423 1_565 S
C875 C274 1.418 1_455 S
C877 C224 1.437 . S
C886 C258 1.436 . S
C888 C308 1.421 1_545 S
C897 C206 1.419 . S
C899 C292 1.437 . S
C908 C240 1.420 . S
C910 C326 1.438 . S
C919 C138 1.420 . S
C921 C360 1.438 . S
C930 C394 1.438 . S
C932 C172 1.420 . S
C941 C70 1.420 1_455 S
C943 C428 1.438 . S
C952 C462 1.437 . S
C954 C104 1.423 1_545 S
C963 C496 1.437 . S
C965 C2 1.419 1_655 S
C974 C36 1.419 1_565 S
C976 C530 1.437 . S
