# Generated by pormake.
# Topology wje, (4)-cn, num edge types: 1
# Building blocks:
#     Node 0, Type 0, BuildingBlock: CEKHIL_clean_sbu_0, # of connection points: 4
#     Node 1, Type 0, BuildingBlock: CEKHIL_clean_sbu_0, # of connection points: 4
#     Node 2, Type 0, BuildingBlock: CEKHIL_clean_sbu_0, # of connection points: 4
#     Node 3, Type 0, BuildingBlock: CEKHIL_clean_sbu_0, # of connection points: 4
#     Node 4, Type 0, BuildingBlock: CEKHIL_clean_sbu_0, # of connection points: 4
#     Node 5, Type 0, BuildingBlock: CEKHIL_clean_sbu_0, # of connection points: 4
#     Node 6, Type 0, BuildingBlock: CEKHIL_clean_sbu_0, # of connection points: 4
#     Node 7, Type 0, BuildingBlock: CEKHIL_clean_sbu_0, # of connection points: 4
#     Node 8, Type 0, BuildingBlock: CEKHIL_clean_sbu_0, # of connection points: 4
#     Node 9, Type 0, BuildingBlock: CEKHIL_clean_sbu_0, # of connection points: 4
#     Node 10, Type 0, BuildingBlock: CEKHIL_clean_sbu_0, # of connection points: 4
#     Node 11, Type 0, BuildingBlock: CEKHIL_clean_sbu_0, # of connection points: 4
#     Edge 12, Type (0, 0), BuildingBlock: OJICUG_clean_linker_0, # of connection points: 2
#     Edge 13, Type (0, 0), BuildingBlock: OJICUG_clean_linker_0, # of connection points: 2
#     Edge 14, Type (0, 0), BuildingBlock: OJICUG_clean_linker_0, # of connection points: 2
#     Edge 15, Type (0, 0), BuildingBlock: OJICUG_clean_linker_0, # of connection points: 2
#     Edge 16, Type (0, 0), BuildingBlock: OJICUG_clean_linker_0, # of connection points: 2
#     Edge 17, Type (0, 0), BuildingBlock: OJICUG_clean_linker_0, # of connection points: 2
#     Edge 18, Type (0, 0), BuildingBlock: OJICUG_clean_linker_0, # of connection points: 2
#     Edge 19, Type (0, 0), BuildingBlock: OJICUG_clean_linker_0, # of connection points: 2
#     Edge 20, Type (0, 0), BuildingBlock: OJICUG_clean_linker_0, # of connection points: 2
#     Edge 21, Type (0, 0), BuildingBlock: OJICUG_clean_linker_0, # of connection points: 2
#     Edge 22, Type (0, 0), BuildingBlock: OJICUG_clean_linker_0, # of connection points: 2
#     Edge 23, Type (0, 0), BuildingBlock: OJICUG_clean_linker_0, # of connection points: 2
#     Edge 24, Type (0, 0), BuildingBlock: OJICUG_clean_linker_0, # of connection points: 2
#     Edge 25, Type (0, 0), BuildingBlock: OJICUG_clean_linker_0, # of connection points: 2
#     Edge 26, Type (0, 0), BuildingBlock: OJICUG_clean_linker_0, # of connection points: 2
#     Edge 27, Type (0, 0), BuildingBlock: OJICUG_clean_linker_0, # of connection points: 2
#     Edge 28, Type (0, 0), BuildingBlock: OJICUG_clean_linker_0, # of connection points: 2
#     Edge 29, Type (0, 0), BuildingBlock: OJICUG_clean_linker_0, # of connection points: 2
#     Edge 30, Type (0, 0), BuildingBlock: OJICUG_clean_linker_0, # of connection points: 2
#     Edge 31, Type (0, 0), BuildingBlock: OJICUG_clean_linker_0, # of connection points: 2
#     Edge 32, Type (0, 0), BuildingBlock: OJICUG_clean_linker_0, # of connection points: 2
#     Edge 33, Type (0, 0), BuildingBlock: OJICUG_clean_linker_0, # of connection points: 2
#     Edge 34, Type (0, 0), BuildingBlock: OJICUG_clean_linker_0, # of connection points: 2
#     Edge 35, Type (0, 0), BuildingBlock: OJICUG_clean_linker_0, # of connection points: 2
# Relax obj value: 0.156
# Max RMSD: 0.098
# Mean RMSD: 0.098
data_MOF--net-wje--node1-CEKHIL_clean_sbu_0--edge1-OJICUG_clean_linker_0
_symmetry_space_group_name_H-M    P1
_symmetry_Int_Tables_number       1
_symmetry_cell_setting            triclinic
loop_
_symmetry_equiv_pos_as_xyz
'x, y, z'
_cell_length_a     28.56516
_cell_length_b     28.543961
_cell_length_c     27.613301
_cell_angle_alpha  90.011727
_cell_angle_beta   90.008262
_cell_angle_gamma 120.00118
loop_
_atom_site_label
_atom_site_type_symbol
_atom_site_fract_x
_atom_site_fract_y
_atom_site_fract_z
_atom_type_partial_charge
Co0 Co 0.31209 0.02266 0.30534 0.0
O1 O 0.31179 0.0419 0.23819 0.0
O2 O 0.35606 0.10098 0.29599 0.0
C3 C 0.22225 0.96767 0.31171 0.0
O4 O 0.31891 0.01641 0.37942 0.0
Co5 Co 0.27248 0.90248 0.3318 0.0
O6 O 0.2756 0.9279 0.39915 0.0
C7 C 0.3814 0.96916 0.29076 0.0
C8 C 0.34182 0.09207 0.25056 0.0
C9 C 0.30011 0.97771 0.41119 0.0
O10 O 0.37582 0.01137 0.29274 0.0
O11 O 0.34333 0.92148 0.30119 0.0
O12 O 0.24296 0.01951 0.3166 0.0
O13 O 0.25528 0.9516 0.2987 0.0
Co14 Co 0.28634 0.30568 0.63774 0.0
O15 O 0.26587 0.30536 0.5708 0.0
O16 O 0.2511 0.34902 0.62909 0.0
C17 C 0.25237 0.21583 0.64362 0.0
O18 O 0.3003 0.31232 0.71179 0.0
Co19 Co 0.36772 0.26661 0.66279 0.0
O20 O 0.34584 0.26906 0.73043 0.0
C21 C 0.4089 0.3758 0.62239 0.0
C22 C 0.24532 0.33487 0.58361 0.0
C23 C 0.32059 0.2934 0.7431 0.0
O24 O 0.36103 0.36996 0.62481 0.0
O25 O 0.41878 0.33778 0.63227 0.0
O26 O 0.2209 0.23602 0.64922 0.0
O27 O 0.30117 0.24937 0.63028 0.0
Co28 Co 0.98123 0.2913 0.97148 0.0
O29 O 0.96331 0.27038 0.90422 0.0
O30 O 0.90299 0.24817 0.96237 0.0
C31 C 0.04664 0.26909 0.97915 0.0
O32 O 0.98563 0.30377 0.04578 0.0
Co33 Co 0.09621 0.38491 0.99723 0.0
O34 O 0.0718 0.3646 0.06508 0.0
C35 C 0.02169 0.41063 0.94956 0.0
C36 C 0.91285 0.24466 0.91685 0.0
C37 C 0.02347 0.33072 0.07733 0.0
O38 O 0.98222 0.36237 0.95878 0.0
O39 O 0.07118 0.42414 0.95517 0.0
O40 O 0.99619 0.23157 0.98225 0.0
O41 O 0.05466 0.31577 0.96572 0.0
Co42 Co 0.68567 0.97752 0.3049 0.0
O43 O 0.6872 0.95895 0.23759 0.0
O44 O 0.65505 0.89952 0.29701 0.0
C45 C 0.77166 0.04727 0.30921 0.0
O46 O 0.68024 0.98292 0.37926 0.0
Co47 Co 0.702 0.09077 0.3317 0.0
O48 O 0.71019 0.0702 0.39832 0.0
C49 C 0.59955 0.00957 0.28839 0.0
C50 C 0.6661 0.90893 0.25105 0.0
C51 C 0.69503 0.02166 0.41066 0.0
O52 O 0.6124 0.97245 0.29474 0.0
O53 O 0.63261 0.05981 0.29556 0.0
O54 O 0.76218 0.9979 0.31303 0.0
O55 O 0.73044 0.05171 0.29737 0.0
Co56 Co 0.70587 0.67908 0.63792 0.0
O57 O 0.72596 0.68025 0.57062 0.0
O58 O 0.7524 0.64744 0.63009 0.0
C59 C 0.72354 0.76559 0.6421 0.0
O60 O 0.69475 0.6739 0.71236 0.0
Co61 Co 0.61005 0.69722 0.66424 0.0
O62 O 0.63838 0.70513 0.731 0.0
C63 C 0.58728 0.59406 0.62127 0.0
C64 C 0.75429 0.65854 0.58411 0.0
C65 C 0.67114 0.68929 0.7436 0.0
O66 O 0.63705 0.6063 0.62764 0.0
O67 O 0.57075 0.62764 0.62837 0.0
O68 O 0.76285 0.75531 0.64607 0.0
O69 O 0.67759 0.72479 0.63017 0.0
Co70 Co 0.03189 0.71282 0.97233 0.0
O71 O 0.05187 0.73149 0.90516 0.0
O72 O 0.1105 0.75464 0.96493 0.0
C73 C 0.96759 0.73657 0.97376 0.0
O74 O 0.02479 0.70221 0.04689 0.0
Co75 Co 0.91395 0.6246 0.99928 0.0
O76 O 0.93634 0.65265 0.06586 0.0
C77 C 0.98754 0.59222 0.95613 0.0
C78 C 0.10192 0.75696 0.91885 0.0
C79 C 0.9857 0.68171 0.07832 0.0
O80 O 0.02859 0.64043 0.96224 0.0
O81 O 0.9387 0.58041 0.96366 0.0
O82 O 0.01787 0.77377 0.97956 0.0
O83 O 0.95975 0.68936 0.96328 0.0
Co84 Co 0.98149 0.69588 0.392 0.0
O85 O 0.96112 0.69593 0.4589 0.0
O86 O 0.90293 0.65251 0.40038 0.0
C87 C 0.03732 0.78576 0.38641 0.0
O88 O 0.98903 0.68952 0.31796 0.0
Co89 Co 0.10197 0.73508 0.36713 0.0
O90 O 0.07781 0.73284 0.29945 0.0
C91 C 0.03397 0.62572 0.40719 0.0
C92 C 0.91112 0.66647 0.44591 0.0
C93 C 0.02826 0.70852 0.28671 0.0
O94 O 0.99193 0.63156 0.40479 0.0
O95 O 0.08185 0.66378 0.39743 0.0
O96 O 0.98568 0.76557 0.38069 0.0
O97 O 0.05258 0.75218 0.39969 0.0
Co98 Co 0.29074 0.97921 0.72473 0.0
O99 O 0.27132 0.95993 0.79188 0.0
O100 O 0.25649 0.90089 0.73403 0.0
C101 C 0.25575 0.03413 0.7185 0.0
O102 O 0.30368 0.9855 0.65064 0.0
Co103 Co 0.37108 0.09941 0.69827 0.0
O104 O 0.34866 0.07402 0.63092 0.0
C105 C 0.41354 0.03278 0.73911 0.0
C106 C 0.25119 0.90976 0.77948 0.0
C107 C 0.32345 0.02421 0.61887 0.0
O108 O 0.36578 0.99055 0.73721 0.0
O109 O 0.42305 0.08045 0.7287 0.0
O110 O 0.2247 0.98229 0.71359 0.0
O111 O 0.30488 0.05024 0.73145 0.0
Co112 Co 0.31999 0.28928 0.05749 0.0
O113 O 0.32127 0.27064 0.12469 0.0
O114 O 0.35671 0.24736 0.06498 0.0
C115 C 0.23198 0.26561 0.05601 0.0
O116 O 0.32349 0.29985 0.98292 0.0
Co117 Co 0.29038 0.37761 0.0305 0.0
O118 O 0.28476 0.34959 0.96392 0.0
C119 C 0.39634 0.40989 0.07358 0.0
C120 C 0.34578 0.24507 0.11105 0.0
C121 C 0.30498 0.32044 0.95148 0.0
O122 O 0.38911 0.36163 0.06755 0.0
O123 O 0.35936 0.42179 0.06605 0.0
O124 O 0.24505 0.22838 0.05027 0.0
O125 O 0.27133 0.31281 0.0665 0.0
Co126 Co 0.02765 0.32233 0.39128 0.0
O127 O 0.04657 0.32111 0.45858 0.0
O128 O 0.10579 0.35384 0.39911 0.0
C129 C 0.95876 0.23587 0.3871 0.0
O130 O 0.0217 0.32755 0.31684 0.0
Co131 Co 0.91374 0.30434 0.36493 0.0
O132 O 0.93414 0.29641 0.29818 0.0
C133 C 0.99417 0.40743 0.40798 0.0
C134 C 0.09658 0.34275 0.4451 0.0
C135 C 0.98271 0.31222 0.28559 0.0
O136 O 0.03168 0.39515 0.40158 0.0
O137 O 0.94406 0.37389 0.40085 0.0
O138 O 0.0083 0.24605 0.38311 0.0
O139 O 0.95367 0.27672 0.39903 0.0
Co140 Co 0.70938 0.02433 0.72425 0.0
O141 O 0.72957 0.04294 0.79154 0.0
O142 O 0.75678 0.10233 0.73208 0.0
C143 C 0.72554 0.9545 0.71995 0.0
O144 O 0.69842 0.01888 0.6499 0.0
Co145 Co 0.61242 0.9111 0.69754 0.0
O146 O 0.64107 0.9316 0.63089 0.0
C147 C 0.59131 0.99238 0.74095 0.0
C148 C 0.75846 0.09294 0.77805 0.0
C149 C 0.67443 0.98013 0.61852 0.0
O150 O 0.64125 0.02949 0.7345 0.0
O151 O 0.57412 0.94213 0.7338 0.0
O152 O 0.76544 0.00384 0.71607 0.0
O153 O 0.67993 0.95014 0.73183 0.0
Co154 Co 0.6909 0.7107 0.05769 0.0
O155 O 0.69385 0.73165 0.12493 0.0
O156 O 0.65571 0.75378 0.06673 0.0
C157 C 0.77854 0.73298 0.05009 0.0
O158 O 0.68285 0.69817 0.98339 0.0
Co159 Co 0.71245 0.61714 0.03203 0.0
O160 O 0.70823 0.63733 0.96416 0.0
C161 C 0.61211 0.59133 0.07956 0.0
C162 C 0.66907 0.75733 0.11226 0.0
C163 C 0.69374 0.67119 0.95187 0.0
O164 O 0.62088 0.63961 0.0704 0.0
O165 O 0.64808 0.5778 0.07391 0.0
O166 O 0.76553 0.77046 0.04693 0.0
O167 O 0.73993 0.68629 0.06351 0.0
C168 C 0.35271 0.12616 0.16498 0.0
C169 C 0.35342 0.13596 0.21508 0.0
H170 H 0.35149 0.15363 0.09274 0.0
C171 C 0.35811 0.18511 0.23024 0.0
H172 H 0.34904 0.08862 0.15208 0.0
C173 C 0.35823 0.22178 0.1962 0.0
C174 C 0.35512 0.21086 0.14615 0.0
H175 H 0.3583 0.19374 0.26847 0.0
H176 H 0.35891 0.25793 0.20916 0.0
C177 C 0.35428 0.16349 0.13091 0.0
C178 C 0.22087 0.34529 0.49826 0.0
C179 C 0.21251 0.3463 0.54848 0.0
H180 H 0.19196 0.34496 0.4263 0.0
C181 C 0.16857 0.35164 0.56407 0.0
H182 H 0.25427 0.3411 0.48497 0.0
C183 C 0.13207 0.35254 0.53036 0.0
C184 C 0.13938 0.34956 0.48019 0.0
H185 H 0.16063 0.35207 0.60238 0.0
H186 H 0.09721 0.3541 0.54368 0.0
C187 C 0.1852 0.34763 0.46455 0.0
C188 C 0.84159 0.18218 0.79754 0.0
C189 C 0.79444 0.13566 0.81318 0.0
H190 H 0.91611 0.25268 0.81796 0.0
C191 C 0.78443 0.12789 0.86334 0.0
H192 H 0.85074 0.1893 0.75928 0.0
C193 C 0.82134 0.16485 0.89702 0.0
C194 C 0.86989 0.20982 0.88144 0.0
H195 H 0.74847 0.0925 0.87667 0.0
H196 H 0.81301 0.1568 0.93532 0.0
C197 C 0.87915 0.21842 0.83125 0.0
C198 C 0.66143 0.78349 0.19784 0.0
C199 C 0.66085 0.79214 0.14765 0.0
H200 H 0.66201 0.81254 0.26981 0.0
C201 C 0.65728 0.83713 0.13205 0.0
H202 H 0.66413 0.74921 0.21113 0.0
C203 C 0.65726 0.87406 0.16573 0.0
C204 C 0.65941 0.86624 0.2159 0.0
H205 H 0.65707 0.84522 0.09376 0.0
H206 H 0.6567 0.90947 0.15241 0.0
C207 C 0.66003 0.8197 0.23154 0.0
C208 C 0.81776 0.65021 0.46518 0.0
C209 C 0.86676 0.65495 0.48089 0.0
H210 H 0.74416 0.64823 0.48543 0.0
C211 C 0.87577 0.65535 0.53112 0.0
H212 H 0.8097 0.65027 0.42686 0.0
C213 C 0.83771 0.65302 0.56476 0.0
C214 C 0.79027 0.6517 0.54903 0.0
H215 H 0.91314 0.65908 0.54449 0.0
H216 H 0.84686 0.6552 0.60304 0.0
C217 C 0.78032 0.64931 0.49882 0.0
C218 C 0.17433 0.81682 0.79971 0.0
C219 C 0.21887 0.86587 0.81492 0.0
H220 H 0.10217 0.74415 0.82072 0.0
C221 C 0.22797 0.87559 0.86503 0.0
H222 H 0.16587 0.80825 0.76148 0.0
C223 C 0.19213 0.83832 0.89907 0.0
C224 C 0.14552 0.79108 0.88378 0.0
H225 H 0.2619 0.91305 0.87795 0.0
H226 H 0.1992 0.84812 0.93723 0.0
C227 C 0.13771 0.78021 0.83372 0.0
C228 C 0.44649 0.93389 0.28969 0.0
C229 C 0.43569 0.97627 0.28068 0.0
H230 H 0.50686 0.91078 0.29881 0.0
C231 C 0.47852 0.0268 0.26651 0.0
H232 H 0.4144 0.89417 0.30034 0.0
C233 C 0.5313 0.03597 0.26512 0.0
C234 C 0.54279 0.99502 0.2783 0.0
H235 H 0.47172 0.06009 0.25856 0.0
H236 H 0.56355 0.07628 0.25618 0.0
C237 C 0.49953 0.9432 0.28859 0.0
C238 C 0.49203 0.52632 0.5989 0.0
C239 C 0.54458 0.53743 0.61108 0.0
H240 H 0.40818 0.46698 0.59274 0.0
C241 C 0.55306 0.49386 0.62001 0.0
H242 H 0.484 0.55882 0.591 0.0
C243 C 0.50923 0.44083 0.62069 0.0
C244 C 0.456 0.43031 0.61265 0.0
H245 H 0.59288 0.50085 0.62938 0.0
H246 H 0.51689 0.40846 0.63023 0.0
C247 C 0.44831 0.47353 0.59988 0.0
C248 C 0.95125 0.49264 0.94559 0.0
C249 C 0.99571 0.546 0.94468 0.0
H250 H 0.92425 0.40785 0.94749 0.0
C251 C 0.04749 0.55356 0.93708 0.0
H252 H 0.91042 0.48498 0.95065 0.0
C253 C 0.0551 0.50894 0.93437 0.0
C254 C 0.0112 0.45572 0.93996 0.0
H255 H 0.08243 0.59386 0.93541 0.0
H256 H 0.09609 0.51658 0.93076 0.0
C257 C 0.95893 0.44804 0.9435 0.0
C258 C 0.97573 0.52797 0.42961 0.0
C259 C 0.02659 0.57119 0.41681 0.0
H260 H 0.92619 0.44268 0.43847 0.0
C261 C 0.06928 0.56066 0.40864 0.0
H262 H 0.94217 0.53453 0.43687 0.0
C263 C 0.0601 0.50763 0.40925 0.0
C264 C 0.0081 0.46406 0.41822 0.0
H265 H 0.10926 0.59303 0.39906 0.0
H266 H 0.0929 0.50063 0.39977 0.0
C267 C 0.96668 0.47517 0.43053 0.0
C268 C 0.49679 0.96604 0.76453 0.0
C269 C 0.54913 0.00696 0.75116 0.0
H270 H 0.41314 0.94193 0.77136 0.0
C271 C 0.55762 0.05876 0.74082 0.0
H272 H 0.4888 0.92576 0.77352 0.0
C273 C 0.51388 0.06807 0.73986 0.0
C274 C 0.46077 0.0257 0.74905 0.0
H275 H 0.59729 0.09115 0.73047 0.0
H276 H 0.52143 0.10775 0.72917 0.0
C277 C 0.45316 0.97521 0.76327 0.0
C278 C 0.45972 0.50947 0.08401 0.0
C279 C 0.45079 0.45608 0.08488 0.0
H280 H 0.51752 0.59423 0.08198 0.0
C281 C 0.495 0.44845 0.09226 0.0
H282 H 0.42655 0.51717 0.07912 0.0
C283 C 0.54725 0.49303 0.09479 0.0
C284 C 0.55657 0.54627 0.08925 0.0
H285 H 0.48963 0.40813 0.09388 0.0
H286 H 0.58059 0.48534 0.09822 0.0
C287 C 0.512 0.55402 0.08592 0.0
C288 C 0.08246 0.84776 0.31768 0.0
C289 C 0.07673 0.83909 0.36785 0.0
H290 H 0.13514 0.8958 0.26014 0.0
C291 C 0.11504 0.87777 0.39929 0.0
H292 H 0.05315 0.81825 0.29292 0.0
C293 C 0.16026 0.92339 0.38061 0.0
C294 C 0.1687 0.92914 0.33042 0.0
H295 H 0.11129 0.87141 0.43811 0.0
H296 H 0.19048 0.9519 0.40536 0.0
C297 C 0.129 0.89198 0.29898 0.0
C298 C 0.23588 0.15409 0.71249 0.0
C299 C 0.2385 0.16254 0.6623 0.0
H300 H 0.24089 0.10627 0.77007 0.0
C301 C 0.2379 0.12371 0.63091 0.0
H302 H 0.23624 0.1837 0.73721 0.0
C303 C 0.2376 0.07814 0.64964 0.0
C304 C 0.24064 0.07262 0.69982 0.0
H305 H 0.24026 0.12991 0.59207 0.0
H306 H 0.23915 0.04952 0.62491 0.0
C307 C 0.23831 0.10993 0.73123 0.0
C308 C 0.17635 0.30738 0.04304 0.0
C309 C 0.18012 0.26043 0.04076 0.0
H310 H 0.13639 0.34808 0.0214 0.0
C311 C 0.1372 0.21341 0.02007 0.0
H312 H 0.20746 0.34415 0.05977 0.0
C313 C 0.092 0.2147 1.00095 0.0
C314 C 0.09105 0.26359 1.00052 0.0
H315 H 0.13901 0.17647 0.01793 0.0
H316 H 0.05915 0.17848 0.98502 0.0
C317 C 0.13412 0.3095 0.02143 0.0
C318 C 0.91429 0.13878 0.35773 0.0
C319 C 0.91184 0.18572 0.36856 0.0
H320 H 0.8709 0.05674 0.33115 0.0
C321 C 0.8638 0.18603 0.35919 0.0
H322 H 0.95088 0.13737 0.36459 0.0
C323 C 0.82027 0.14216 0.33761 0.0
C324 C 0.82141 0.09458 0.32785 0.0
H325 H 0.85948 0.22056 0.36766 0.0
H326 H 0.78535 0.14588 0.32942 0.0
C327 C 0.86882 0.09296 0.33833 0.0
C328 C 0.67862 0.81555 0.67029 0.0
C329 C 0.72688 0.81579 0.66065 0.0
H330 H 0.64053 0.85582 0.70026 0.0
C331 C 0.77632 0.86275 0.67123 0.0
H332 H 0.63972 0.78099 0.66204 0.0
C333 C 0.77682 0.90866 0.69062 0.0
C334 C 0.72787 0.90711 0.70134 0.0
H335 H 0.81428 0.86412 0.66416 0.0
H336 H 0.81514 0.94489 0.69758 0.0
C337 C 0.6791 0.8595 0.69186 0.0
C338 C 0.82574 0.6927 1.00781 0.0
C339 C 0.8285 0.73854 0.02882 0.0
H340 H 0.86457 0.65812 0.96956 0.0
C341 C 0.87833 0.78741 0.0286 0.0
H342 H 0.78943 0.65414 1.00767 0.0
C343 C 0.9249 0.78873 1.00962 0.0
C344 C 0.92087 0.74176 0.98886 0.0
H345 H 0.88164 0.82358 0.04462 0.0
H346 H 0.96363 0.82564 1.01194 0.0
C347 C 0.87016 0.69486 0.98635 0.0
C348 C 0.33282 0.04354 0.48148 0.0
C349 C 0.30624 0.9901 0.46428 0.0
H350 H 0.35899 0.09609 0.54298 0.0
C351 C 0.28495 0.9477 0.49866 0.0
H352 H 0.34959 0.07723 0.45642 0.0
C353 C 0.29032 0.95839 0.54858 0.0
C354 C 0.31714 0.01183 0.56578 0.0
H355 H 0.26392 0.90584 0.48709 0.0
H356 H 0.27345 0.9247 0.57364 0.0
C357 C 0.33817 0.05423 0.53141 0.0
C358 C 0.28697 0.33401 0.86444 0.0
C359 C 0.30796 0.31201 0.89824 0.0
H360 H 0.27425 0.34567 0.78978 0.0
C361 C 0.33207 0.28309 0.88028 0.0
H362 H 0.26782 0.35646 0.87657 0.0
C363 C 0.33566 0.27695 0.8302 0.0
C364 C 0.31527 0.29953 0.79639 0.0
H365 H 0.34855 0.26546 0.90487 0.0
H366 H 0.3548 0.2545 0.81804 0.0
C367 C 0.29056 0.32786 0.81436 0.0
C368 C 0.04637 0.34093 0.21408 0.0
C369 C 0.99352 0.31429 0.2324 0.0
H370 H 0.09708 0.36689 0.15149 0.0
C371 C 0.95016 0.29089 0.19902 0.0
H372 H 0.08072 0.35928 0.23838 0.0
C373 C 0.95939 0.29511 0.14883 0.0
C374 C 0.01225 0.32317 0.13053 0.0
H375 H 0.90871 0.26954 0.2116 0.0
H376 H 0.92509 0.27722 0.12446 0.0
C377 C 0.05559 0.34543 0.16397 0.0
C378 C 0.66728 0.95751 0.48182 0.0
C379 C 0.69301 0.01053 0.46374 0.0
H380 H 0.64148 0.90644 0.54429 0.0
C381 C 0.71544 0.05376 0.49727 0.0
H382 H 0.64974 0.92325 0.45736 0.0
C383 C 0.71083 0.04425 0.54735 0.0
C384 C 0.68344 0.99123 0.56544 0.0
H385 H 0.73611 0.09532 0.48488 0.0
H386 H 0.72769 0.07851 0.57181 0.0
C387 C 0.66246 0.948 0.53191 0.0
C388 C 0.71103 0.65632 0.86525 0.0
C389 C 0.68998 0.67864 0.89866 0.0
H390 H 0.72221 0.64234 0.79085 0.0
C391 C 0.66512 0.70665 0.88033 0.0
H392 H 0.73112 0.63491 0.87775 0.0
C393 C 0.66001 0.71076 0.83015 0.0
C394 C 0.67994 0.6873 0.79679 0.0
H395 H 0.64872 0.72457 0.90468 0.0
H396 H 0.63986 0.73207 0.81754 0.0
C397 C 0.70623 0.66072 0.81514 0.0
C398 C 0.05986 0.72473 0.19964 0.0
C399 C 0.01687 0.70246 0.23341 0.0
H400 H 0.08426 0.73601 0.12498 0.0
C401 C 0.96384 0.67453 0.21541 0.0
H402 H 0.10144 0.74685 0.21182 0.0
C403 C 0.95412 0.66846 0.16533 0.0
C404 C 0.99712 0.69012 0.13155 0.0
H405 H 0.92971 0.657 0.23996 0.0
H406 H 0.91253 0.64633 0.15317 0.0
C407 C 0.05014 0.71865 0.14954 0.0
loop_
_geom_bond_atom_site_label_1
_geom_bond_atom_site_label_2
_geom_bond_distance
_geom_bond_site_symmetry_2
_ccdc_geom_bond_type
Co0 O1 2.216 . S
Co0 O2 2.091 . S
Co0 O4 2.004 . S
Co0 O10 2.021 . S
Co0 O12 2.137 1_545 S
Co0 O13 2.244 1_545 S
O1 Co0 2.216 . S
O1 C8 1.247 . S
O2 Co0 2.091 . S
O2 C8 1.261 . S
C3 O12 1.247 . S
C3 O13 1.272 . S
O4 Co0 2.004 . S
O4 C9 1.259 . S
Co5 O6 2.061 . S
Co5 O11 2.052 . S
Co5 O13 2.135 . S
O6 Co5 2.061 . S
O6 C9 1.235 1_565 S
C7 O10 1.238 . S
C7 O11 1.241 1_545 S
C8 O1 1.247 . S
C8 O2 1.261 . S
C9 O4 1.259 . S
C9 O6 1.235 1_545 S
O10 Co0 2.021 . S
O10 C7 1.238 . S
O11 Co5 2.052 . S
O11 C7 1.241 1_565 S
O12 Co0 2.137 1_565 S
O12 C3 1.247 . S
O13 Co0 2.244 1_565 S
O13 C3 1.272 . S
O13 Co5 2.135 . S
Co14 O15 2.216 . S
Co14 O16 2.091 . S
Co14 O18 2.004 . S
Co14 O24 2.021 . S
Co14 O26 2.137 . S
Co14 O27 2.244 . S
O15 Co14 2.216 . S
O15 C22 1.247 . S
O16 Co14 2.091 . S
O16 C22 1.261 . S
C17 O26 1.247 . S
C17 O27 1.272 . S
O18 Co14 2.004 . S
O18 C23 1.259 . S
Co19 O20 2.061 . S
Co19 O25 2.052 . S
Co19 O27 2.135 . S
O20 Co19 2.061 . S
O20 C23 1.235 . S
C21 O24 1.238 . S
C21 O25 1.241 . S
C22 O15 1.247 . S
C22 O16 1.261 . S
C23 O18 1.259 . S
C23 O20 1.235 . S
O24 Co14 2.021 . S
O24 C21 1.238 . S
O25 Co19 2.052 . S
O25 C21 1.241 . S
O26 Co14 2.137 . S
O26 C17 1.247 . S
O27 Co14 2.244 . S
O27 C17 1.272 . S
O27 Co19 2.135 . S
Co28 O29 2.216 . S
Co28 O30 2.091 . S
Co28 O32 2.004 1_556 S
Co28 O38 2.021 . S
Co28 O40 2.137 1_655 S
Co28 O41 2.244 1_655 S
O29 Co28 2.216 . S
O29 C36 1.247 . S
O30 Co28 2.091 . S
O30 C36 1.261 . S
C31 O40 1.247 . S
C31 O41 1.272 . S
O32 Co28 2.004 1_554 S
O32 C37 1.259 . S
Co33 O34 2.061 . S
Co33 O39 2.052 1_554 S
Co33 O41 2.135 1_554 S
O34 Co33 2.061 . S
O34 C37 1.235 1_455 S
C35 O38 1.238 . S
C35 O39 1.241 1_655 S
C36 O29 1.247 . S
C36 O30 1.261 . S
C37 O32 1.259 . S
C37 O34 1.235 1_655 S
O38 Co28 2.021 . S
O38 C35 1.238 . S
O39 Co33 2.052 1_556 S
O39 C35 1.241 1_455 S
O40 Co28 2.137 1_455 S
O40 C31 1.247 . S
O41 Co28 2.244 1_455 S
O41 C31 1.272 . S
O41 Co33 2.135 1_556 S
Co42 O43 2.216 . S
Co42 O44 2.091 . S
Co42 O46 2.004 . S
Co42 O52 2.021 . S
Co42 O54 2.137 1_565 S
Co42 O55 2.244 1_565 S
O43 Co42 2.216 . S
O43 C50 1.247 . S
O44 Co42 2.091 . S
O44 C50 1.261 . S
C45 O54 1.247 . S
C45 O55 1.272 . S
O46 Co42 2.004 . S
O46 C51 1.259 . S
Co47 O48 2.061 . S
Co47 O53 2.052 . S
Co47 O55 2.135 . S
O48 Co47 2.061 . S
O48 C51 1.235 1_545 S
C49 O52 1.238 . S
C49 O53 1.241 1_565 S
C50 O43 1.247 . S
C50 O44 1.261 . S
C51 O46 1.259 . S
C51 O48 1.235 1_565 S
O52 Co42 2.021 . S
O52 C49 1.238 . S
O53 Co47 2.052 . S
O53 C49 1.241 1_545 S
O54 Co42 2.137 1_545 S
O54 C45 1.247 . S
O55 Co42 2.244 1_545 S
O55 C45 1.272 . S
O55 Co47 2.135 . S
Co56 O57 2.216 . S
Co56 O58 2.091 . S
Co56 O60 2.004 . S
Co56 O66 2.021 . S
Co56 O68 2.137 . S
Co56 O69 2.244 . S
O57 Co56 2.216 . S
O57 C64 1.247 . S
O58 Co56 2.091 . S
O58 C64 1.261 . S
C59 O68 1.247 . S
C59 O69 1.272 . S
O60 Co56 2.004 . S
O60 C65 1.259 . S
Co61 O62 2.061 . S
Co61 O67 2.052 . S
Co61 O69 2.135 . S
O62 Co61 2.061 . S
O62 C65 1.235 . S
C63 O66 1.238 . S
C63 O67 1.241 . S
C64 O57 1.247 . S
C64 O58 1.261 . S
C65 O60 1.259 . S
C65 O62 1.235 . S
O66 Co56 2.021 . S
O66 C63 1.238 . S
O67 Co61 2.052 . S
O67 C63 1.241 . S
O68 Co56 2.137 . S
O68 C59 1.247 . S
O69 Co56 2.244 . S
O69 C59 1.272 . S
O69 Co61 2.135 . S
Co70 O71 2.216 . S
Co70 O72 2.091 . S
Co70 O74 2.004 1_556 S
Co70 O80 2.021 . S
Co70 O82 2.137 1_455 S
Co70 O83 2.244 1_455 S
O71 Co70 2.216 . S
O71 C78 1.247 . S
O72 Co70 2.091 . S
O72 C78 1.261 . S
C73 O82 1.247 . S
C73 O83 1.272 . S
O74 Co70 2.004 1_554 S
O74 C79 1.259 . S
Co75 O76 2.061 . S
Co75 O81 2.052 1_554 S
Co75 O83 2.135 1_554 S
O76 Co75 2.061 . S
O76 C79 1.235 1_655 S
C77 O80 1.238 . S
C77 O81 1.241 1_455 S
C78 O71 1.247 . S
C78 O72 1.261 . S
C79 O74 1.259 . S
C79 O76 1.235 1_455 S
O80 Co70 2.021 . S
O80 C77 1.238 . S
O81 Co75 2.052 1_556 S
O81 C77 1.241 1_655 S
O82 Co70 2.137 1_655 S
O82 C73 1.247 . S
O83 Co70 2.244 1_655 S
O83 C73 1.272 . S
O83 Co75 2.135 1_556 S
Co84 O85 2.216 . S
Co84 O86 2.091 . S
Co84 O88 2.004 . S
Co84 O94 2.021 . S
Co84 O96 2.137 1_655 S
Co84 O97 2.244 1_655 S
O85 Co84 2.216 . S
O85 C92 1.247 . S
O86 Co84 2.091 . S
O86 C92 1.261 . S
C87 O96 1.247 . S
C87 O97 1.272 . S
O88 Co84 2.004 . S
O88 C93 1.259 . S
Co89 O90 2.061 . S
Co89 O95 2.052 . S
Co89 O97 2.135 . S
O90 Co89 2.061 . S
O90 C93 1.235 1_455 S
C91 O94 1.238 . S
C91 O95 1.241 1_655 S
C92 O85 1.247 . S
C92 O86 1.261 . S
C93 O88 1.259 . S
C93 O90 1.235 1_655 S
O94 Co84 2.021 . S
O94 C91 1.238 . S
O95 Co89 2.052 . S
O95 C91 1.241 1_455 S
O96 Co84 2.137 1_455 S
O96 C87 1.247 . S
O97 Co84 2.244 1_455 S
O97 C87 1.272 . S
O97 Co89 2.135 . S
Co98 O99 2.216 . S
Co98 O100 2.091 . S
Co98 O102 2.004 . S
Co98 O108 2.021 . S
Co98 O110 2.137 1_565 S
Co98 O111 2.244 1_565 S
O99 Co98 2.216 . S
O99 C106 1.247 . S
O100 Co98 2.091 . S
O100 C106 1.261 . S
C101 O110 1.247 . S
C101 O111 1.272 . S
O102 Co98 2.004 . S
O102 C107 1.259 . S
Co103 O104 2.061 . S
Co103 O109 2.052 . S
Co103 O111 2.135 . S
O104 Co103 2.061 . S
O104 C107 1.235 1_545 S
C105 O108 1.238 . S
C105 O109 1.241 1_565 S
C106 O99 1.247 . S
C106 O100 1.261 . S
C107 O102 1.259 . S
C107 O104 1.235 1_565 S
O108 Co98 2.021 . S
O108 C105 1.238 . S
O109 Co103 2.052 . S
O109 C105 1.241 1_545 S
O110 Co98 2.137 1_545 S
O110 C101 1.247 . S
O111 Co98 2.244 1_545 S
O111 C101 1.272 . S
O111 Co103 2.135 . S
Co112 O113 2.216 . S
Co112 O114 2.091 . S
Co112 O116 2.004 1_554 S
Co112 O122 2.021 . S
Co112 O124 2.137 . S
Co112 O125 2.244 . S
O113 Co112 2.216 . S
O113 C120 1.247 . S
O114 Co112 2.091 . S
O114 C120 1.261 . S
C115 O124 1.247 . S
C115 O125 1.272 . S
O116 Co112 2.004 1_556 S
O116 C121 1.259 . S
Co117 O118 2.061 . S
Co117 O123 2.052 1_556 S
Co117 O125 2.135 1_556 S
O118 Co117 2.061 . S
O118 C121 1.235 . S
C119 O122 1.238 . S
C119 O123 1.241 . S
C120 O113 1.247 . S
C120 O114 1.261 . S
C121 O116 1.259 . S
C121 O118 1.235 . S
O122 Co112 2.021 . S
O122 C119 1.238 . S
O123 Co117 2.052 1_554 S
O123 C119 1.241 . S
O124 Co112 2.137 . S
O124 C115 1.247 . S
O125 Co112 2.244 . S
O125 C115 1.272 . S
O125 Co117 2.135 1_554 S
Co126 O127 2.216 . S
Co126 O128 2.091 . S
Co126 O130 2.004 . S
Co126 O136 2.021 . S
Co126 O138 2.137 1_455 S
Co126 O139 2.244 1_455 S
O127 Co126 2.216 . S
O127 C134 1.247 . S
O128 Co126 2.091 . S
O128 C134 1.261 . S
C129 O138 1.247 . S
C129 O139 1.272 . S
O130 Co126 2.004 . S
O130 C135 1.259 . S
Co131 O132 2.061 . S
Co131 O137 2.052 . S
Co131 O139 2.135 . S
O132 Co131 2.061 . S
O132 C135 1.235 1_655 S
C133 O136 1.238 . S
C133 O137 1.241 1_455 S
C134 O127 1.247 . S
C134 O128 1.261 . S
C135 O130 1.259 . S
C135 O132 1.235 1_455 S
O136 Co126 2.021 . S
O136 C133 1.238 . S
O137 Co131 2.052 . S
O137 C133 1.241 1_655 S
O138 Co126 2.137 1_655 S
O138 C129 1.247 . S
O139 Co126 2.244 1_655 S
O139 C129 1.272 . S
O139 Co131 2.135 . S
Co140 O141 2.216 . S
Co140 O142 2.091 . S
Co140 O144 2.004 . S
Co140 O150 2.021 . S
Co140 O152 2.137 1_545 S
Co140 O153 2.244 1_545 S
O141 Co140 2.216 . S
O141 C148 1.247 . S
O142 Co140 2.091 . S
O142 C148 1.261 . S
C143 O152 1.247 . S
C143 O153 1.272 . S
O144 Co140 2.004 . S
O144 C149 1.259 . S
Co145 O146 2.061 . S
Co145 O151 2.052 . S
Co145 O153 2.135 . S
O146 Co145 2.061 . S
O146 C149 1.235 1_565 S
C147 O150 1.238 . S
C147 O151 1.241 1_545 S
C148 O141 1.247 . S
C148 O142 1.261 . S
C149 O144 1.259 . S
C149 O146 1.235 1_545 S
O150 Co140 2.021 . S
O150 C147 1.238 . S
O151 Co145 2.052 . S
O151 C147 1.241 1_565 S
O152 Co140 2.137 1_565 S
O152 C143 1.247 . S
O153 Co140 2.244 1_565 S
O153 C143 1.272 . S
O153 Co145 2.135 . S
Co154 O155 2.216 . S
Co154 O156 2.091 . S
Co154 O158 2.004 1_554 S
Co154 O164 2.021 . S
Co154 O166 2.137 . S
Co154 O167 2.244 . S
O155 Co154 2.216 . S
O155 C162 1.247 . S
O156 Co154 2.091 . S
O156 C162 1.261 . S
C157 O166 1.247 . S
C157 O167 1.272 . S
O158 Co154 2.004 1_556 S
O158 C163 1.259 . S
Co159 O160 2.061 . S
Co159 O165 2.052 1_556 S
Co159 O167 2.135 1_556 S
O160 Co159 2.061 . S
O160 C163 1.235 . S
C161 O164 1.238 . S
C161 O165 1.241 . S
C162 O155 1.247 . S
C162 O156 1.261 . S
C163 O158 1.259 . S
C163 O160 1.235 . S
O164 Co154 2.021 . S
O164 C161 1.238 . S
O165 Co159 2.052 1_554 S
O165 C161 1.241 . S
O166 Co154 2.137 . S
O166 C157 1.247 . S
O167 Co154 2.244 . S
O167 C157 1.272 . S
O167 Co159 2.135 1_554 S
C168 C169 1.387 . S
C168 H172 0.950 . S
C168 C177 1.390 . S
C169 C168 1.387 . S
C169 C171 1.387 . S
H170 C177 0.950 . S
C171 C169 1.387 . S
C171 C173 1.390 . S
C171 H175 0.950 . S
H172 C168 0.950 . S
C173 C171 1.390 . S
C173 C174 1.387 . S
C173 H176 0.950 . S
C174 C173 1.387 . S
C174 C177 1.387 . S
H175 C171 0.950 . S
H176 C173 0.950 . S
C177 C168 1.390 . S
C177 H170 0.950 . S
C177 C174 1.387 . S
C178 C179 1.387 . S
C178 H182 0.950 . S
C178 C187 1.390 . S
C179 C178 1.387 . S
C179 C181 1.387 . S
H180 C187 0.950 . S
C181 C179 1.387 . S
C181 C183 1.390 . S
C181 H185 0.950 . S
H182 C178 0.950 . S
C183 C181 1.390 . S
C183 C184 1.387 . S
C183 H186 0.950 . S
C184 C183 1.387 . S
C184 C187 1.387 . S
H185 C181 0.950 . S
H186 C183 0.950 . S
C187 C178 1.390 . S
C187 H180 0.950 . S
C187 C184 1.387 . S
C188 C189 1.387 . S
C188 H192 0.950 . S
C188 C197 1.390 . S
C189 C188 1.387 . S
C189 C191 1.387 . S
H190 C197 0.950 . S
C191 C189 1.387 . S
C191 C193 1.390 . S
C191 H195 0.950 . S
H192 C188 0.950 . S
C193 C191 1.390 . S
C193 C194 1.387 . S
C193 H196 0.950 . S
C194 C193 1.387 . S
C194 C197 1.387 . S
H195 C191 0.950 . S
H196 C193 0.950 . S
C197 C188 1.390 . S
C197 H190 0.950 . S
C197 C194 1.387 . S
C198 C199 1.387 . S
C198 H202 0.950 . S
C198 C207 1.390 . S
C199 C198 1.387 . S
C199 C201 1.387 . S
H200 C207 0.950 . S
C201 C199 1.387 . S
C201 C203 1.390 . S
C201 H205 0.950 . S
H202 C198 0.950 . S
C203 C201 1.390 . S
C203 C204 1.387 . S
C203 H206 0.950 . S
C204 C203 1.387 . S
C204 C207 1.387 . S
H205 C201 0.950 . S
H206 C203 0.950 . S
C207 C198 1.390 . S
C207 H200 0.950 . S
C207 C204 1.387 . S
C208 C209 1.387 . S
C208 H212 0.950 . S
C208 C217 1.390 . S
C209 C208 1.387 . S
C209 C211 1.387 . S
H210 C217 0.950 . S
C211 C209 1.387 . S
C211 C213 1.390 . S
C211 H215 0.950 . S
H212 C208 0.950 . S
C213 C211 1.390 . S
C213 C214 1.387 . S
C213 H216 0.950 . S
C214 C213 1.387 . S
C214 C217 1.387 . S
H215 C211 0.950 . S
H216 C213 0.950 . S
C217 C208 1.390 . S
C217 H210 0.950 . S
C217 C214 1.387 . S
C218 C219 1.387 . S
C218 H222 0.950 . S
C218 C227 1.390 . S
C219 C218 1.387 . S
C219 C221 1.387 . S
H220 C227 0.950 . S
C221 C219 1.387 . S
C221 C223 1.390 . S
C221 H225 0.950 . S
H222 C218 0.950 . S
C223 C221 1.390 . S
C223 C224 1.387 . S
C223 H226 0.950 . S
C224 C223 1.387 . S
C224 C227 1.387 . S
H225 C221 0.950 . S
H226 C223 0.950 . S
C227 C218 1.390 . S
C227 H220 0.950 . S
C227 C224 1.387 . S
C228 C229 1.387 . S
C228 H232 0.950 . S
C228 C237 1.390 1_545 S
C229 C228 1.387 . S
C229 C231 1.387 . S
H230 C237 0.950 . S
C231 C229 1.387 . S
C231 C233 1.390 1_545 S
C231 H235 0.950 . S
H232 C228 0.950 . S
C233 C231 1.390 1_565 S
C233 C234 1.387 . S
C233 H236 0.950 . S
C234 C233 1.387 . S
C234 C237 1.387 . S
H235 C231 0.950 . S
H236 C233 0.950 . S
C237 C228 1.390 1_565 S
C237 H230 0.950 . S
C237 C234 1.387 . S
C238 C239 1.387 . S
C238 H242 0.950 . S
C238 C247 1.390 . S
C239 C238 1.387 . S
C239 C241 1.387 . S
H240 C247 0.950 . S
C241 C239 1.387 . S
C241 C243 1.390 . S
C241 H245 0.950 . S
H242 C238 0.950 . S
C243 C241 1.390 . S
C243 C244 1.387 . S
C243 H246 0.950 . S
C244 C243 1.387 . S
C244 C247 1.387 . S
H245 C241 0.950 . S
H246 C243 0.950 . S
C247 C238 1.390 . S
C247 H240 0.950 . S
C247 C244 1.387 . S
C248 C249 1.387 1_554 S
C248 H252 0.950 . S
C248 C257 1.390 1_455 S
C249 C248 1.387 1_556 S
C249 C251 1.387 . S
H250 C257 0.950 . S
C251 C249 1.387 . S
C251 C253 1.390 1_455 S
C251 H255 0.950 . S
H252 C248 0.950 . S
C253 C251 1.390 1_655 S
C253 C254 1.387 . S
C253 H256 0.950 . S
C254 C253 1.387 . S
C254 C257 1.387 1_556 S
H255 C251 0.950 . S
H256 C253 0.950 . S
C257 C248 1.390 1_655 S
C257 H250 0.950 . S
C257 C254 1.387 1_554 S
C258 C259 1.387 . S
C258 H262 0.950 . S
C258 C267 1.390 1_655 S
C259 C258 1.387 . S
C259 C261 1.387 . S
H260 C267 0.950 . S
C261 C259 1.387 . S
C261 C263 1.390 1_655 S
C261 H265 0.950 . S
H262 C258 0.950 . S
C263 C261 1.390 1_455 S
C263 C264 1.387 . S
C263 H266 0.950 . S
C264 C263 1.387 . S
C264 C267 1.387 . S
H265 C261 0.950 . S
H266 C263 0.950 . S
C267 C258 1.390 1_455 S
C267 H260 0.950 . S
C267 C264 1.387 . S
C268 C269 1.387 . S
C268 H272 0.950 . S
C268 C277 1.390 1_545 S
C269 C268 1.387 . S
C269 C271 1.387 . S
H270 C277 0.950 . S
C271 C269 1.387 . S
C271 C273 1.390 1_545 S
C271 H275 0.950 . S
H272 C268 0.950 . S
C273 C271 1.390 1_565 S
C273 C274 1.387 . S
C273 H276 0.950 . S
C274 C273 1.387 . S
C274 C277 1.387 . S
H275 C271 0.950 . S
H276 C273 0.950 . S
C277 C268 1.390 1_565 S
C277 H270 0.950 . S
C277 C274 1.387 . S
C278 C279 1.387 1_556 S
C278 H282 0.950 . S
C278 C287 1.390 . S
C279 C278 1.387 1_554 S
C279 C281 1.387 . S
H280 C287 0.950 . S
C281 C279 1.387 . S
C281 C283 1.390 . S
C281 H285 0.950 . S
H282 C278 0.950 . S
C283 C281 1.390 . S
C283 C284 1.387 . S
C283 H286 0.950 . S
C284 C283 1.387 . S
C284 C287 1.387 1_554 S
H285 C281 0.950 . S
H286 C283 0.950 . S
C287 C278 1.390 . S
C287 H280 0.950 . S
C287 C284 1.387 1_556 S
C288 C289 1.387 . S
C288 H292 0.950 . S
C288 C297 1.390 . S
C289 C288 1.387 . S
C289 C291 1.387 . S
H290 C297 0.950 . S
C291 C289 1.387 . S
C291 C293 1.390 . S
C291 H295 0.950 . S
H292 C288 0.950 . S
C293 C291 1.390 . S
C293 C294 1.387 . S
C293 H296 0.950 . S
C294 C293 1.387 . S
C294 C297 1.387 . S
H295 C291 0.950 . S
H296 C293 0.950 . S
C297 C288 1.390 . S
C297 H290 0.950 . S
C297 C294 1.387 . S
C298 C299 1.387 . S
C298 H302 0.950 . S
C298 C307 1.390 . S
C299 C298 1.387 . S
C299 C301 1.387 . S
H300 C307 0.950 . S
C301 C299 1.387 . S
C301 C303 1.390 . S
C301 H305 0.950 . S
H302 C298 0.950 . S
C303 C301 1.390 . S
C303 C304 1.387 . S
C303 H306 0.950 . S
C304 C303 1.387 . S
C304 C307 1.387 . S
H305 C301 0.950 . S
H306 C303 0.950 . S
C307 C298 1.390 . S
C307 H300 0.950 . S
C307 C304 1.387 . S
C308 C309 1.387 . S
C308 H312 0.950 . S
C308 C317 1.390 1_554 S
C309 C308 1.387 . S
C309 C311 1.387 . S
H310 C317 0.950 . S
C311 C309 1.387 . S
C311 C313 1.390 1_554 S
C311 H315 0.950 . S
H312 C308 0.950 . S
C313 C311 1.390 1_556 S
C313 C314 1.387 . S
C313 H316 0.950 . S
C314 C313 1.387 . S
C314 C317 1.387 . S
H315 C311 0.950 . S
H316 C313 0.950 . S
C317 C308 1.390 1_556 S
C317 H310 0.950 . S
C317 C314 1.387 . S
C318 C319 1.387 . S
C318 H322 0.950 . S
C318 C327 1.390 . S
C319 C318 1.387 . S
C319 C321 1.387 . S
H320 C327 0.950 . S
C321 C319 1.387 . S
C321 C323 1.390 . S
C321 H325 0.950 . S
H322 C318 0.950 . S
C323 C321 1.390 . S
C323 C324 1.387 . S
C323 H326 0.950 . S
C324 C323 1.387 . S
C324 C327 1.387 . S
H325 C321 0.950 . S
H326 C323 0.950 . S
C327 C318 1.390 . S
C327 H320 0.950 . S
C327 C324 1.387 . S
C328 C329 1.387 . S
C328 H332 0.950 . S
C328 C337 1.390 . S
C329 C328 1.387 . S
C329 C331 1.387 . S
H330 C337 0.950 . S
C331 C329 1.387 . S
C331 C333 1.390 . S
C331 H335 0.950 . S
H332 C328 0.950 . S
C333 C331 1.390 . S
C333 C334 1.387 . S
C333 H336 0.950 . S
C334 C333 1.387 . S
C334 C337 1.387 . S
H335 C331 0.950 . S
H336 C333 0.950 . S
C337 C328 1.390 . S
C337 H330 0.950 . S
C337 C334 1.387 . S
C338 C339 1.387 . S
C338 H342 0.950 . S
C338 C347 1.390 1_554 S
C339 C338 1.387 . S
C339 C341 1.387 . S
H340 C347 0.950 . S
C341 C339 1.387 . S
C341 C343 1.390 1_554 S
C341 H345 0.950 . S
H342 C338 0.950 . S
C343 C341 1.390 1_556 S
C343 C344 1.387 . S
C343 H346 0.950 . S
C344 C343 1.387 . S
C344 C347 1.387 . S
H345 C341 0.950 . S
H346 C343 0.950 . S
C347 C338 1.390 1_556 S
C347 H340 0.950 . S
C347 C344 1.387 . S
C348 C349 1.387 . S
C348 H352 0.950 . S
C348 C357 1.390 1_545 S
C349 C348 1.387 . S
C349 C351 1.387 . S
H350 C357 0.950 . S
C351 C349 1.387 . S
C351 C353 1.390 1_545 S
C351 H355 0.950 . S
H352 C348 0.950 . S
C353 C351 1.390 1_565 S
C353 C354 1.387 . S
C353 H356 0.950 . S
C354 C353 1.387 . S
C354 C357 1.387 . S
H355 C351 0.950 . S
H356 C353 0.950 . S
C357 C348 1.390 1_565 S
C357 H350 0.950 . S
C357 C354 1.387 . S
C358 C359 1.387 . S
C358 H362 0.950 . S
C358 C367 1.390 . S
C359 C358 1.387 . S
C359 C361 1.387 . S
H360 C367 0.950 . S
C361 C359 1.387 . S
C361 C363 1.390 . S
C361 H365 0.950 . S
H362 C358 0.950 . S
C363 C361 1.390 . S
C363 C364 1.387 . S
C363 H366 0.950 . S
C364 C363 1.387 . S
C364 C367 1.387 . S
H365 C361 0.950 . S
H366 C363 0.950 . S
C367 C358 1.390 . S
C367 H360 0.950 . S
C367 C364 1.387 . S
C368 C369 1.387 . S
C368 H372 0.950 . S
C368 C377 1.390 . S
C369 C368 1.387 . S
C369 C371 1.387 1_455 S
H370 C377 0.950 . S
C371 C369 1.387 1_655 S
C371 C373 1.390 . S
C371 H375 0.950 . S
H372 C368 0.950 . S
C373 C371 1.390 . S
C373 C374 1.387 . S
C373 H376 0.950 . S
C374 C373 1.387 . S
C374 C377 1.387 1_655 S
H375 C371 0.950 . S
H376 C373 0.950 . S
C377 C368 1.390 . S
C377 H370 0.950 . S
C377 C374 1.387 1_455 S
C378 C379 1.387 . S
C378 H382 0.950 . S
C378 C387 1.390 1_565 S
C379 C378 1.387 . S
C379 C381 1.387 . S
H380 C387 0.950 . S
C381 C379 1.387 . S
C381 C383 1.390 1_565 S
C381 H385 0.950 . S
H382 C378 0.950 . S
C383 C381 1.390 1_545 S
C383 C384 1.387 . S
C383 H386 0.950 . S
C384 C383 1.387 . S
C384 C387 1.387 . S
H385 C381 0.950 . S
H386 C383 0.950 . S
C387 C378 1.390 1_545 S
C387 H380 0.950 . S
C387 C384 1.387 . S
C388 C389 1.387 . S
C388 H392 0.950 . S
C388 C397 1.390 . S
C389 C388 1.387 . S
C389 C391 1.387 . S
H390 C397 0.950 . S
C391 C389 1.387 . S
C391 C393 1.390 . S
C391 H395 0.950 . S
H392 C388 0.950 . S
C393 C391 1.390 . S
C393 C394 1.387 . S
C393 H396 0.950 . S
C394 C393 1.387 . S
C394 C397 1.387 . S
H395 C391 0.950 . S
H396 C393 0.950 . S
C397 C388 1.390 . S
C397 H390 0.950 . S
C397 C394 1.387 . S
C398 C399 1.387 . S
C398 H402 0.950 . S
C398 C407 1.390 1_655 S
C399 C398 1.387 . S
C399 C401 1.387 . S
H400 C407 0.950 . S
C401 C399 1.387 . S
C401 C403 1.390 1_655 S
C401 H405 0.950 . S
H402 C398 0.950 . S
C403 C401 1.390 1_455 S
C403 C404 1.387 . S
C403 H406 0.950 . S
C404 C403 1.387 . S
C404 C407 1.387 . S
H405 C401 0.950 . S
H406 C403 0.950 . S
C407 C398 1.390 1_455 S
C407 H400 0.950 . S
C407 C404 1.387 . S
C169 C8 1.702 . S
C174 C120 1.702 . S
C179 C22 1.702 . S
C184 C134 1.702 . S
C189 C148 1.701 . S
C194 C36 1.702 . S
C199 C162 1.702 . S
C204 C50 1.701 . S
C209 C92 1.702 . S
C214 C64 1.702 . S
C219 C106 1.702 . S
C224 C78 1.702 . S
C229 C7 1.511 . S
C234 C49 1.511 . S
C239 C63 1.507 . S
C244 C21 1.507 . S
C249 C77 1.511 . S
C254 C35 1.511 . S
C259 C91 1.507 . S
C264 C133 1.507 . S
C269 C147 1.507 . S
C274 C105 1.507 . S
C279 C119 1.510 . S
C284 C161 1.510 . S
C289 C87 1.113 . S
C294 C3 1.113 . S
C299 C17 1.112 . S
C304 C101 1.112 . S
C309 C115 1.115 . S
C314 C31 1.115 . S
C319 C129 1.111 . S
C324 C45 1.111 . S
C329 C59 1.114 . S
C334 C143 1.114 . S
C339 C157 1.115 . S
C344 C73 1.115 . S
C349 C9 1.168 . S
C354 C107 1.168 . S
C359 C121 1.168 . S
C364 C23 1.168 . S
C369 C135 1.168 . S
C374 C37 1.169 . S
C379 C51 1.168 . S
C384 C149 1.168 . S
C389 C163 1.169 . S
C394 C65 1.168 . S
C399 C93 1.168 . S
C404 C79 1.168 . S
