# Generated by pormake.
# Topology sme, (6)-cn, num edge types: 1
# Building blocks:
#     Node 0, Type 0, BuildingBlock: OJICUG_clean_sbu_0, # of connection points: 6
#     Node 1, Type 0, BuildingBlock: OJICUG_clean_sbu_0, # of connection points: 6
#     Node 2, Type 0, BuildingBlock: OJICUG_clean_sbu_0, # of connection points: 6
#     Node 3, Type 0, BuildingBlock: OJICUG_clean_sbu_0, # of connection points: 6
#     Node 4, Type 0, BuildingBlock: OJICUG_clean_sbu_0, # of connection points: 6
#     Node 5, Type 0, BuildingBlock: OJICUG_clean_sbu_0, # of connection points: 6
#     Node 6, Type 0, BuildingBlock: OJICUG_clean_sbu_0, # of connection points: 6
#     Node 7, Type 0, BuildingBlock: OJICUG_clean_sbu_0, # of connection points: 6
#     Node 8, Type 0, BuildingBlock: OJICUG_clean_sbu_0, # of connection points: 6
#     Node 9, Type 0, BuildingBlock: OJICUG_clean_sbu_0, # of connection points: 6
#     Node 10, Type 0, BuildingBlock: OJICUG_clean_sbu_0, # of connection points: 6
#     Node 11, Type 0, BuildingBlock: OJICUG_clean_sbu_0, # of connection points: 6
#     Node 12, Type 0, BuildingBlock: OJICUG_clean_sbu_0, # of connection points: 6
#     Node 13, Type 0, BuildingBlock: OJICUG_clean_sbu_0, # of connection points: 6
#     Node 14, Type 0, BuildingBlock: OJICUG_clean_sbu_0, # of connection points: 6
#     Node 15, Type 0, BuildingBlock: OJICUG_clean_sbu_0, # of connection points: 6
#     Node 16, Type 0, BuildingBlock: OJICUG_clean_sbu_0, # of connection points: 6
#     Node 17, Type 0, BuildingBlock: OJICUG_clean_sbu_0, # of connection points: 6
#     Edge 18, Type (0, 0), BuildingBlock: XIVTED_clean_linker_0, # of connection points: 2
#     Edge 19, Type (0, 0), BuildingBlock: XIVTED_clean_linker_0, # of connection points: 2
#     Edge 20, Type (0, 0), BuildingBlock: XIVTED_clean_linker_0, # of connection points: 2
#     Edge 21, Type (0, 0), BuildingBlock: XIVTED_clean_linker_0, # of connection points: 2
#     Edge 22, Type (0, 0), BuildingBlock: XIVTED_clean_linker_0, # of connection points: 2
#     Edge 23, Type (0, 0), BuildingBlock: XIVTED_clean_linker_0, # of connection points: 2
#     Edge 24, Type (0, 0), BuildingBlock: XIVTED_clean_linker_0, # of connection points: 2
#     Edge 25, Type (0, 0), BuildingBlock: XIVTED_clean_linker_0, # of connection points: 2
#     Edge 26, Type (0, 0), BuildingBlock: XIVTED_clean_linker_0, # of connection points: 2
#     Edge 27, Type (0, 0), BuildingBlock: XIVTED_clean_linker_0, # of connection points: 2
#     Edge 28, Type (0, 0), BuildingBlock: XIVTED_clean_linker_0, # of connection points: 2
#     Edge 29, Type (0, 0), BuildingBlock: XIVTED_clean_linker_0, # of connection points: 2
#     Edge 30, Type (0, 0), BuildingBlock: XIVTED_clean_linker_0, # of connection points: 2
#     Edge 31, Type (0, 0), BuildingBlock: XIVTED_clean_linker_0, # of connection points: 2
#     Edge 32, Type (0, 0), BuildingBlock: XIVTED_clean_linker_0, # of connection points: 2
#     Edge 33, Type (0, 0), BuildingBlock: XIVTED_clean_linker_0, # of connection points: 2
#     Edge 34, Type (0, 0), BuildingBlock: XIVTED_clean_linker_0, # of connection points: 2
#     Edge 35, Type (0, 0), BuildingBlock: XIVTED_clean_linker_0, # of connection points: 2
#     Edge 36, Type (0, 0), BuildingBlock: XIVTED_clean_linker_0, # of connection points: 2
#     Edge 37, Type (0, 0), BuildingBlock: XIVTED_clean_linker_0, # of connection points: 2
#     Edge 38, Type (0, 0), BuildingBlock: XIVTED_clean_linker_0, # of connection points: 2
#     Edge 39, Type (0, 0), BuildingBlock: XIVTED_clean_linker_0, # of connection points: 2
#     Edge 40, Type (0, 0), BuildingBlock: XIVTED_clean_linker_0, # of connection points: 2
#     Edge 41, Type (0, 0), BuildingBlock: XIVTED_clean_linker_0, # of connection points: 2
#     Edge 42, Type (0, 0), BuildingBlock: XIVTED_clean_linker_0, # of connection points: 2
#     Edge 43, Type (0, 0), BuildingBlock: XIVTED_clean_linker_0, # of connection points: 2
#     Edge 44, Type (0, 0), BuildingBlock: XIVTED_clean_linker_0, # of connection points: 2
#     Edge 45, Type (0, 0), BuildingBlock: XIVTED_clean_linker_0, # of connection points: 2
#     Edge 46, Type (0, 0), BuildingBlock: XIVTED_clean_linker_0, # of connection points: 2
#     Edge 47, Type (0, 0), BuildingBlock: XIVTED_clean_linker_0, # of connection points: 2
#     Edge 48, Type (0, 0), BuildingBlock: XIVTED_clean_linker_0, # of connection points: 2
#     Edge 49, Type (0, 0), BuildingBlock: XIVTED_clean_linker_0, # of connection points: 2
#     Edge 50, Type (0, 0), BuildingBlock: XIVTED_clean_linker_0, # of connection points: 2
#     Edge 51, Type (0, 0), BuildingBlock: XIVTED_clean_linker_0, # of connection points: 2
#     Edge 52, Type (0, 0), BuildingBlock: XIVTED_clean_linker_0, # of connection points: 2
#     Edge 53, Type (0, 0), BuildingBlock: XIVTED_clean_linker_0, # of connection points: 2
#     Edge 54, Type (0, 0), BuildingBlock: XIVTED_clean_linker_0, # of connection points: 2
#     Edge 55, Type (0, 0), BuildingBlock: XIVTED_clean_linker_0, # of connection points: 2
#     Edge 56, Type (0, 0), BuildingBlock: XIVTED_clean_linker_0, # of connection points: 2
#     Edge 57, Type (0, 0), BuildingBlock: XIVTED_clean_linker_0, # of connection points: 2
#     Edge 58, Type (0, 0), BuildingBlock: XIVTED_clean_linker_0, # of connection points: 2
#     Edge 59, Type (0, 0), BuildingBlock: XIVTED_clean_linker_0, # of connection points: 2
#     Edge 60, Type (0, 0), BuildingBlock: XIVTED_clean_linker_0, # of connection points: 2
#     Edge 61, Type (0, 0), BuildingBlock: XIVTED_clean_linker_0, # of connection points: 2
#     Edge 62, Type (0, 0), BuildingBlock: XIVTED_clean_linker_0, # of connection points: 2
#     Edge 63, Type (0, 0), BuildingBlock: XIVTED_clean_linker_0, # of connection points: 2
#     Edge 64, Type (0, 0), BuildingBlock: XIVTED_clean_linker_0, # of connection points: 2
#     Edge 65, Type (0, 0), BuildingBlock: XIVTED_clean_linker_0, # of connection points: 2
#     Edge 66, Type (0, 0), BuildingBlock: XIVTED_clean_linker_0, # of connection points: 2
#     Edge 67, Type (0, 0), BuildingBlock: XIVTED_clean_linker_0, # of connection points: 2
#     Edge 68, Type (0, 0), BuildingBlock: XIVTED_clean_linker_0, # of connection points: 2
#     Edge 69, Type (0, 0), BuildingBlock: XIVTED_clean_linker_0, # of connection points: 2
#     Edge 70, Type (0, 0), BuildingBlock: XIVTED_clean_linker_0, # of connection points: 2
#     Edge 71, Type (0, 0), BuildingBlock: XIVTED_clean_linker_0, # of connection points: 2
# Relax obj value: 0.180
# Max RMSD: 0.201
# Mean RMSD: 0.201
data_MOF--net-sme--node1-OJICUG_clean_sbu_0--edge1-XIVTED_clean_linker_0
_symmetry_space_group_name_H-M    P1
_symmetry_Int_Tables_number       1
_symmetry_cell_setting            triclinic
loop_
_symmetry_equiv_pos_as_xyz
'x, y, z'
_cell_length_a     46.528826
_cell_length_b     46.545979
_cell_length_c     39.747552
_cell_angle_alpha  90.047582
_cell_angle_beta   89.984611
_cell_angle_gamma 120.01155
loop_
_atom_site_label
_atom_site_type_symbol
_atom_site_fract_x
_atom_site_fract_y
_atom_site_fract_z
_atom_type_partial_charge
Sc0 Sc 0.06142 0.31369 0.70773 0.0
Sc1 Sc 0.05002 0.24612 0.65799 0.0
Sc2 Sc 0.05389 0.24285 0.74606 0.0
O3 O 0.05544 0.2676 0.70376 0.0
C4 C 0.11389 0.31747 0.75875 0.0
C5 C 0.09626 0.3211 0.63615 0.0
C6 C 0.09933 0.22846 0.69576 0.0
C7 C -0.0007 0.27367 0.66 0.0
C8 C 0.01872 0.27984 0.77441 0.0
C9 C 0.00091 0.18278 0.70182 0.0
O10 O 0.107 0.33109 0.73468 0.0
O11 O 0.08578 0.2904 0.63257 0.0
O12 O 0.0885 0.23022 0.72469 0.0
O13 O 0.01521 0.2961 0.68198 0.0
O14 O 0.01885 0.25279 0.7715 0.0
O15 O 0.01281 0.19785 0.67436 0.0
O16 O 0.03532 0.30439 0.75507 0.0
O17 O 0.0101 0.25574 0.647 0.0
O18 O 0.01233 0.19609 0.73024 0.0
O19 O 0.08889 0.33262 0.66154 0.0
O20 O 0.0956 0.28704 0.76684 0.0
O21 O 0.0887 0.23425 0.66841 0.0
Sc22 Sc 0.85366 0.87126 0.65943 0.0
Sc23 Sc 0.85599 0.88015 0.74725 0.0
Sc24 Sc 0.78734 0.81253 0.7091 0.0
O25 O 0.83212 0.85474 0.70523 0.0
C26 C 0.77743 0.83886 0.63822 0.0
C27 C 0.86829 0.93789 0.69476 0.0
C28 C 0.78051 0.8613 0.75967 0.0
C29 C 0.91711 0.88848 0.70487 0.0
C30 C 0.83011 0.79407 0.66061 0.0
C31 C 0.82302 0.80697 0.77608 0.0
O32 O 0.80822 0.85793 0.63323 0.0
O33 O 0.86885 0.92653 0.7237 0.0
O34 O 0.76746 0.83711 0.73902 0.0
O35 O 0.90287 0.8867 0.67712 0.0
O36 O 0.80582 0.78611 0.68054 0.0
O37 O 0.84579 0.83716 0.77642 0.0
O38 O 0.84877 0.8235 0.64977 0.0
O39 O 0.90267 0.88436 0.73305 0.0
O40 O 0.80042 0.79524 0.75381 0.0
O41 O 0.86112 0.92052 0.66797 0.0
O42 O 0.76627 0.82177 0.66485 0.0
O43 O 0.81157 0.87811 0.76539 0.0
Sc44 Sc 0.28775 0.04311 0.7195 0.0
Sc45 Sc 0.22854 0.04634 0.66671 0.0
Sc46 Sc 0.21845 0.04285 0.75465 0.0
O47 O 0.2448 0.04382 0.71358 0.0
C48 C 0.23904 0.98804 0.77035 0.0
C49 C 0.26378 0.00447 0.64933 0.0
C50 C 0.16175 -0.00507 0.70225 0.0
C51 C 0.30535 0.1018 0.66817 0.0
C52 C 0.29085 0.08529 0.78477 0.0
C53 C 0.20929 0.09313 0.70879 0.0
O54 O 0.2634 -0.00093 0.74992 0.0
O55 O 0.24267 0.01342 0.64312 0.0
O56 O 0.17265 0.00772 0.73104 0.0
O57 O 0.31347 0.08744 0.69036 0.0
O58 O 0.26054 0.07745 0.78416 0.0
O59 O 0.21222 0.0802 0.68182 0.0
O60 O 0.30321 0.07409 0.76363 0.0
O61 O 0.27612 0.08936 0.65606 0.0
O62 O 0.21304 0.08389 0.73775 0.0
O63 O 0.28113 0.01303 0.67594 0.0
O64 O 0.22166 0.00186 0.77505 0.0
O65 O 0.17945 0.00453 0.67568 0.0
Sc66 Sc 0.02555 0.79712 0.29944 0.0
Sc67 Sc 0.03585 0.86413 0.34953 0.0
Sc68 Sc 0.03277 0.86803 0.26145 0.0
O69 O 0.03107 0.843 0.30362 0.0
C70 C 0.06872 0.83162 0.23315 0.0
C71 C 0.0874 0.8377 0.34769 0.0
C72 C 0.08467 0.9281 0.30614 0.0
C73 C -0.00969 0.78867 0.37086 0.0
C74 C 0.97334 0.79342 0.2478 0.0
C75 C 0.98602 0.88074 0.31175 0.0
O76 O 0.05257 0.80722 0.25276 0.0
O77 O 0.07657 0.85578 0.36024 0.0
O78 O 0.07421 0.91461 0.2776 0.0
O79 O -0.00272 0.77742 0.34499 0.0
O80 O -0.0087 0.82406 0.24041 0.0
O81 O -0.00385 0.8744 0.33911 0.0
O82 O 0.98034 0.77949 0.27149 0.0
O83 O 0.0011 0.81937 0.37505 0.0
O84 O -0.00215 0.88025 0.28297 0.0
O85 O 0.07145 0.81487 0.32607 0.0
O86 O 0.0679 0.85837 0.23566 0.0
O87 O 0.07213 0.91304 0.33347 0.0
Sc88 Sc 0.23403 0.24042 0.34538 0.0
Sc89 Sc 0.23167 0.2304 0.25766 0.0
Sc90 Sc 0.30056 0.29826 0.29548 0.0
O91 O 0.25559 0.25626 0.29953 0.0
C92 C 0.25812 0.31774 0.34321 0.0
C93 C 0.17045 0.22234 0.2998 0.0
C94 C 0.26496 0.30335 0.22816 0.0
C95 C 0.21912 0.17321 0.31102 0.0
C96 C 0.31013 0.27252 0.36683 0.0
C97 C 0.30719 0.249 0.24558 0.0
O98 O 0.23926 0.28846 0.35431 0.0
O99 O 0.18467 0.22585 0.27157 0.0
O100 O 0.28762 0.31507 0.25037 0.0
O101 O 0.22613 0.1909 0.33758 0.0
O102 O 0.32148 0.28941 0.34011 0.0
O103 O 0.27615 0.23238 0.23967 0.0
O104 O 0.27931 0.25364 0.37172 0.0
O105 O 0.2189 0.18427 0.28181 0.0
O106 O 0.32025 0.27317 0.26623 0.0
O107 O 0.18502 0.22507 0.32754 0.0
O108 O 0.28238 0.32531 0.32337 0.0
O109 O 0.2419 0.27325 0.22806 0.0
Sc110 Sc 0.85817 0.06163 0.34346 0.0
Sc111 Sc 0.86433 0.06294 0.2553 0.0
Sc112 Sc 0.80134 0.07142 0.29321 0.0
O113 O 0.84152 0.06563 0.29748 0.0
C114 C 0.77986 0.01087 0.34287 0.0
C115 C 0.87179 0.01125 0.30097 0.0
C116 C 0.79189 0.0272 0.22752 0.0
C117 C 0.92469 0.10983 0.30443 0.0
C118 C 0.82935 0.10823 0.36385 0.0
C119 C 0.84988 0.12266 0.24116 0.0
O120 O 0.80882 0.0219 0.35543 0.0
O121 O 0.86923 0.02163 0.27224 0.0
O122 O 0.78396 0.04398 0.24664 0.0
O123 O 0.90852 0.10027 0.33204 0.0
O124 O 0.81041 0.10026 0.33845 0.0
O125 O 0.86206 0.10429 0.23358 0.0
O126 O 0.84955 0.09781 0.36803 0.0
O127 O 0.91184 0.09785 0.27589 0.0
O128 O 0.82925 0.11613 0.26504 0.0
O129 O 0.86936 0.02418 0.32809 0.0
O130 O 0.77306 0.02613 0.32042 0.0
O131 O 0.8192 0.02756 0.23038 0.0
Sc132 Sc 0.72825 0.64688 0.04473 0.0
Sc133 Sc 0.71997 0.58106 0.99367 0.0
Sc134 Sc 0.72556 0.57689 0.08144 0.0
O135 O 0.72491 0.60181 0.03992 0.0
C136 C 0.78253 0.65186 0.09605 0.0
C137 C 0.76492 0.65749 0.97394 0.0
C138 C 0.77102 0.56482 0.02866 0.0
C139 C 0.6674 0.606 0.99514 0.0
C140 C 0.68564 0.61 0.11068 0.0
C141 C 0.67286 0.51685 0.03762 0.0
O142 O 0.77234 0.66564 0.07524 0.0
O143 O 0.75296 0.62675 0.96854 0.0
O144 O 0.75927 0.5643 0.05772 0.0
O145 O 0.68368 0.62965 0.01578 0.0
O146 O 0.69237 0.58674 0.11046 0.0
O147 O 0.68535 0.53177 0.01018 0.0
O148 O 0.69742 0.63326 0.08914 0.0
O149 O 0.67785 0.58718 0.98398 0.0
O150 O 0.68324 0.53054 0.06612 0.0
O151 O 0.75902 0.66846 1.00076 0.0
O152 O 0.7677 0.62067 0.10102 0.0
O153 O 0.76096 0.57235 1.00203 0.0
Sc154 Sc 0.45486 0.14679 0.04892 0.0
Sc155 Sc 0.51951 0.20544 0.9977 0.0
Sc156 Sc 0.5252 0.21389 0.08566 0.0
O157 O 0.49968 0.1888 0.04409 0.0
C158 C 0.45035 0.19525 0.10175 0.0
C159 C 0.44264 0.17418 0.97985 0.0
C160 C 0.53621 0.27211 0.03452 0.0
C161 C 0.49481 0.12794 0.99713 0.0
C162 C 0.49277 0.14046 0.11364 0.0
C163 C 0.58452 0.2219 0.03999 0.0
O164 O 0.43663 0.17144 0.08077 0.0
O165 O 0.47327 0.19315 0.97392 0.0
O166 O 0.53741 0.26051 0.06312 0.0
O167 O 0.47156 0.12014 0.01836 0.0
O168 O 0.51579 0.17055 0.11374 0.0
O169 O 0.56912 0.21998 0.01302 0.0
O170 O 0.46936 0.12903 0.09224 0.0
O171 O 0.51339 0.15742 0.9864 0.0
O172 O 0.57133 0.21808 0.06887 0.0
O173 O 0.43233 0.15662 0.00628 0.0
O174 O 0.4816 0.21195 0.1065 0.0
O175 O 0.52821 0.25493 0.00756 0.0
Sc176 Sc 0.95416 0.37461 0.04726 0.0
Sc177 Sc 0.89613 0.37951 0.99381 0.0
Sc178 Sc 0.88489 0.37484 0.08157 0.0
O179 O 0.9116 0.37602 0.04081 0.0
C180 C 0.90456 0.31928 0.0971 0.0
C181 C 0.93087 0.33718 0.97635 0.0
C182 C 0.82868 0.32781 0.02843 0.0
C183 C 0.97323 0.43433 0.99696 0.0
C184 C 0.95671 0.41623 0.11287 0.0
C185 C 0.87708 0.42626 0.0361 0.0
O186 O 0.92892 0.32999 0.07672 0.0
O187 O 0.90991 0.34634 0.97013 0.0
O188 O 0.83947 0.34 0.05742 0.0
O189 O 0.98071 0.41945 0.01914 0.0
O190 O 0.92665 0.40911 0.11141 0.0
O191 O 0.88037 0.41384 0.00895 0.0
O192 O 0.96915 0.40471 0.09215 0.0
O193 O 0.94429 0.4223 0.98419 0.0
O194 O 0.87992 0.41615 0.06491 0.0
O195 O 0.94798 0.34537 0.00312 0.0
O196 O 0.88769 0.33362 0.1019 0.0
O197 O 0.84646 0.338 1.00191 0.0
Sc198 Sc 0.70252 0.19676 0.67677 0.0
Sc199 Sc 0.6996 0.20188 0.58882 0.0
Sc200 Sc 0.69638 0.1318 0.62573 0.0
O201 O 0.69921 0.17664 0.63048 0.0
C202 C 0.7557 0.17246 0.67683 0.0
C203 C 0.75083 0.26154 0.63421 0.0
C204 C 0.7404 0.16942 0.56069 0.0
C205 C 0.65222 0.21299 0.63967 0.0
C206 C 0.65737 0.12017 0.6953 0.0
C207 C 0.64322 0.1268 0.57331 0.0
O208 O 0.74436 0.19051 0.68813 0.0
O209 O 0.74107 0.2483 0.60543 0.0
O210 O 0.72765 0.14556 0.58153 0.0
O211 O 0.66184 0.20568 0.66676 0.0
O212 O 0.665 0.10977 0.66917 0.0
O213 O 0.65836 0.15796 0.56801 0.0
O214 O 0.66842 0.15077 0.70074 0.0
O215 O 0.6647 0.21361 0.61101 0.0
O216 O 0.65277 0.11306 0.59484 0.0
O217 O 0.73779 0.24621 0.6613 0.0
O218 O 0.74046 0.14937 0.65536 0.0
O219 O 0.73419 0.19302 0.56135 0.0
Sc220 Sc 0.90388 0.57243 0.68265 0.0
Sc221 Sc 0.90058 0.56463 0.5947 0.0
Sc222 Sc 0.97023 0.63108 0.63292 0.0
O223 O 0.92509 0.58928 0.63679 0.0
C224 C 0.92885 0.64993 0.68301 0.0
C225 C 0.8402 0.55652 0.63827 0.0
C226 C 0.934 0.63832 0.56727 0.0
C227 C 0.88797 0.50597 0.64601 0.0
C228 C 0.98021 0.60324 0.70276 0.0
C229 C 0.97555 0.58263 0.58069 0.0
O230 O 0.9098 0.62042 0.69343 0.0
O231 O 0.8543 0.56068 0.6099 0.0
O232 O 0.95699 0.64944 0.58913 0.0
O233 O 0.8954 0.52297 0.67307 0.0
O234 O -0.00862 0.62064 0.67632 0.0
O235 O 0.94442 0.56633 0.57534 0.0
O236 O 0.94939 0.58462 0.70799 0.0
O237 O 0.8875 0.51781 0.61731 0.0
O238 O 0.98914 0.60642 0.60174 0.0
O239 O 0.85466 0.55799 0.66578 0.0
O240 O 0.95286 0.65773 0.66274 0.0
O241 O 0.91092 0.60826 0.56669 0.0
Sc242 Sc 0.52829 0.398 0.67815 0.0
Sc243 Sc 0.53736 0.40264 0.59025 0.0
Sc244 Sc 0.4703 0.40563 0.62744 0.0
O245 O 0.51208 0.40235 0.63196 0.0
C246 C 0.45069 0.34553 0.67766 0.0
C247 C 0.54479 0.35022 0.63444 0.0
C248 C 0.46413 0.36277 0.56148 0.0
C249 C 0.59536 0.44853 0.64234 0.0
C250 C 0.49708 0.44315 0.69776 0.0
C251 C 0.51935 0.45958 0.57583 0.0
O252 O 0.48005 0.35622 0.68872 0.0
O253 O 0.54144 0.36039 0.60584 0.0
O254 O 0.45285 0.37469 0.58312 0.0
O255 O 0.57795 0.43873 0.6691 0.0
O256 O 0.47967 0.43659 0.67127 0.0
O257 O 0.53564 0.44471 0.57053 0.0
O258 O 0.51619 0.43155 0.703 0.0
O259 O 0.58393 0.4365 0.61343 0.0
O260 O 0.49557 0.44946 0.59688 0.0
O261 O 0.5425 0.36298 0.66178 0.0
O262 O 0.44317 0.36133 0.65661 0.0
O263 O 0.49408 0.36933 0.56156 0.0
Sc264 Sc 0.39299 0.98058 0.37998 0.0
Sc265 Sc 0.38191 0.91348 0.32991 0.0
Sc266 Sc 0.38481 0.90937 0.41799 0.0
O267 O 0.38689 0.9345 0.3758 0.0
C268 C 0.44525 0.98371 0.43069 0.0
C269 C 0.42861 0.98835 0.30874 0.0
C270 C 0.4302 0.89459 0.36816 0.0
C271 C 0.33142 0.94135 0.33169 0.0
C272 C 0.35022 0.94672 0.44657 0.0
C273 C 0.33161 0.85014 0.37301 0.0
O274 O 0.43857 -0.00251 0.40661 0.0
O275 O 0.41879 0.95776 0.30538 0.0
O276 O 0.41937 0.89648 0.39702 0.0
O277 O 0.34675 0.96309 0.35442 0.0
O278 O 0.34976 0.91942 0.4432 0.0
O279 O 0.34376 0.8655 0.34573 0.0
O280 O 0.36722 0.97141 0.42752 0.0
O281 O 0.34274 0.92408 0.31816 0.0
O282 O 0.34317 0.8629 0.4016 0.0
O283 O 0.42028 -0.00042 0.33367 0.0
O284 O 0.42661 0.95337 0.43897 0.0
O285 O 0.41979 0.90057 0.34078 0.0
Sc286 Sc 0.1845 0.54034 0.32683 0.0
Sc287 Sc 0.18957 0.54741 0.4148 0.0
Sc288 Sc 0.11941 0.48093 0.37719 0.0
O289 O 0.1643 0.52297 0.37292 0.0
C290 C 0.10782 0.50878 0.30812 0.0
C291 C 0.19993 0.60613 0.36475 0.0
C292 C 0.1146 0.52851 0.4308 0.0
C293 C 0.24932 0.55667 0.36926 0.0
C294 C 0.1602 0.46296 0.32541 0.0
C295 C 0.15715 0.47372 0.44167 0.0
O296 O 0.13848 0.52792 0.30267 0.0
O297 O 0.20127 0.5942 0.3931 0.0
O298 O 0.1008 0.50521 0.40925 0.0
O299 O 0.23409 0.5551 0.3423 0.0
O300 O 0.13665 0.45483 0.34639 0.0
O301 O 0.18042 0.5037 0.44187 0.0
O302 O 0.17887 0.49259 0.31507 0.0
O303 O 0.23593 0.55233 0.39806 0.0
O304 O 0.13357 0.4627 0.42047 0.0
O305 O 0.19245 0.58946 0.33746 0.0
O306 O 0.09719 0.49103 0.3344 0.0
O307 O 0.1458 0.54476 0.4358 0.0
Sc308 Sc 0.55972 0.71417 0.32601 0.0
Sc309 Sc 0.55197 0.70913 0.41399 0.0
Sc310 Sc 0.61889 0.7071 0.37535 0.0
O311 O 0.57676 0.70985 0.37176 0.0
C312 C 0.59189 0.67011 0.30492 0.0
C313 C 0.49363 0.66261 0.36243 0.0
C314 C 0.57107 0.65279 0.42729 0.0
C315 C 0.54229 0.76065 0.37084 0.0
C316 C 0.63695 0.76762 0.32607 0.0
C317 C 0.62558 0.74974 0.44165 0.0
O318 O 0.57279 0.68179 0.30002 0.0
O319 O 0.50532 0.67485 0.39123 0.0
O320 O 0.59461 0.66314 0.40594 0.0
O321 O 0.5443 0.74801 0.34331 0.0
O322 O 0.64508 0.75153 0.34611 0.0
O323 O 0.59551 0.74281 0.44218 0.0
O324 O 0.60737 0.75684 0.31563 0.0
O325 O 0.54682 0.75094 0.39919 0.0
O326 O 0.63673 0.73806 0.41962 0.0
O327 O 0.51062 0.67255 0.3354 0.0
O328 O 0.60917 0.67621 0.33144 0.0
O329 O 0.55462 0.6674 0.43303 0.0
Sc330 Sc 0.362 0.46464 0.95923 0.0
Sc331 Sc 0.36982 0.5302 0.01044 0.0
Sc332 Sc 0.36265 0.53374 0.92276 0.0
O333 O 0.3645 0.50933 0.96418 0.0
C334 C 0.40334 0.50179 0.89274 0.0
C335 C 0.42323 0.50633 0.00808 0.0
C336 C 0.41565 0.5944 0.96591 0.0
C337 C 0.32583 0.45368 0.03039 0.0
C338 C 0.30654 0.45827 0.90878 0.0
C339 C 0.3175 0.54529 0.97636 0.0
O340 O 0.39231 0.47864 0.9144 0.0
O341 O 0.41247 0.52478 0.01956 0.0
O342 O 0.40473 0.58055 0.93756 0.0
O343 O 0.33186 0.44287 0.00353 0.0
O344 O 0.32072 0.48941 0.90368 0.0
O345 O 0.32838 0.53838 1.00279 0.0
O346 O 0.31748 0.44502 0.92938 0.0
O347 O 0.3374 0.48438 0.03577 0.0
O348 O 0.32868 0.54562 0.94706 0.0
O349 O 0.407 0.48261 0.98752 0.0
O350 O 0.39595 0.52458 0.89315 0.0
O351 O 0.40387 0.57954 0.99354 0.0
Sc352 Sc 0.57084 0.90606 0.00858 0.0
Sc353 Sc 0.56312 0.89642 0.92061 0.0
Sc354 Sc 0.63323 0.96486 0.95554 0.0
O355 O 0.58923 0.92232 0.9616 0.0
C356 C 0.59348 0.98321 0.00784 0.0
C357 C 0.50463 0.88825 0.96765 0.0
C358 C 0.59393 0.96901 0.89099 0.0
C359 C 0.55398 0.83913 0.97223 0.0
C360 C 0.64803 0.94007 0.0251 0.0
C361 C 0.63811 0.91595 0.9037 0.0
O362 O 0.57639 0.95398 0.01984 0.0
O363 O 0.5171 0.89173 0.93844 0.0
O364 O 0.61775 0.98094 0.91185 0.0
O365 O 0.56252 0.85664 0.99898 0.0
O366 O 0.65681 0.95758 0.99861 0.0
O367 O 0.60682 0.89898 0.89922 0.0
O368 O 0.61792 0.91925 0.03147 0.0
O369 O 0.55205 0.85036 0.94368 0.0
O370 O 0.65187 0.94003 0.92442 0.0
O371 O 0.52076 0.89078 0.99427 0.0
O372 O 0.61567 0.99108 0.98537 0.0
O373 O 0.57101 0.93889 0.89166 0.0
Sc374 Sc 0.1941 0.73194 0.01661 0.0
Sc375 Sc 0.20294 0.73463 0.92851 0.0
Sc376 Sc 0.13469 0.73571 0.96446 0.0
O377 O 0.17737 0.73437 0.96992 0.0
C378 C 0.11693 0.67726 0.01612 0.0
C379 C 0.21184 0.68412 0.97444 0.0
C380 C 0.13013 0.69254 0.89947 0.0
C381 C 0.26058 0.7827 0.9799 0.0
C382 C 0.16016 0.77504 0.03413 0.0
C383 C 0.18303 0.78993 0.91281 0.0
O384 O 0.14626 0.68944 0.02793 0.0
O385 O 0.20818 0.69355 0.94556 0.0
O386 O 0.11829 0.70437 0.92052 0.0
O387 O 0.24349 0.77318 0.00689 0.0
O388 O 0.1424 0.76632 0.0078 0.0
O389 O 0.1999 0.77563 0.9078 0.0
O390 O 0.18102 0.76571 0.04019 0.0
O391 O 0.24906 0.76986 0.95129 0.0
O392 O 0.15909 0.77945 0.93371 0.0
O393 O 0.20936 0.69723 1.00149 0.0
O394 O 0.10886 0.69171 0.994 0.0
O395 O 0.16029 0.69987 0.8999 0.0
H396 H 0.20336 0.13007 0.75941 0.0
H397 H 0.1174 0.20405 0.64152 0.0
H398 H 0.19348 0.11534 0.65177 0.0
H399 H 0.1361 0.22542 0.7476 0.0
H400 H 0.15033 0.17632 0.64327 0.0
H401 H 0.18334 0.16934 0.75442 0.0
C402 C 0.19719 0.13521 0.7347 0.0
C403 C 0.19975 0.119 0.70605 0.0
C404 C 0.14754 0.18746 0.66605 0.0
C405 C 0.17665 0.16393 0.70014 0.0
C406 C 0.12885 0.20342 0.66502 0.0
C407 C 0.12347 0.21659 0.69456 0.0
C408 C 0.16082 0.18464 0.69684 0.0
C409 C 0.13902 0.21509 0.7243 0.0
C410 C 0.18581 0.15772 0.73184 0.0
C411 C 0.19166 0.12698 0.67464 0.0
N412 N 0.15661 0.19906 0.72474 0.0
N413 N 0.18016 0.1486 0.67257 0.0
H414 H 0.96606 0.1411 0.75402 0.0
H415 H 0.88925 0.97902 0.63934 0.0
H416 H 0.97475 0.14402 0.6457 0.0
H417 H 0.87171 0.97829 0.74612 0.0
H418 H 0.91533 0.03963 0.63979 0.0
H419 H 0.92658 0.0817 0.75063 0.0
C420 C 0.95948 0.12936 0.72951 0.0
C421 C 0.97417 0.14759 0.70018 0.0
C422 C 0.90535 0.0261 0.66301 0.0
C423 C 0.9291 0.07943 0.69608 0.0
C424 C 0.89034 0.99149 0.66272 0.0
C425 C 0.87884 0.97358 0.69283 0.0
C426 C 0.90889 0.04278 0.69363 0.0
C427 C 0.88084 0.99109 0.72239 0.0
C428 C 0.93687 0.0954 0.72756 0.0
C429 C 0.96437 0.13099 0.66906 0.0
N430 N 0.89595 0.02466 0.72211 0.0
N431 N 0.94279 0.09781 0.66788 0.0
H432 H 0.95734 0.89345 0.75784 0.0
H433 H 0.1217 0.97436 0.64611 0.0
H434 H 0.95726 0.90254 0.64968 0.0
H435 H 0.12013 0.95917 0.75341 0.0
H436 H 0.06099 0.9415 0.64558 0.0
H437 H 0.01643 0.9116 0.75568 0.0
C438 C 0.96964 0.89905 0.73362 0.0
C439 C 0.95231 0.8969 0.70398 0.0
C440 C 0.074 0.94499 0.66916 0.0
C441 C 0.02009 0.91779 0.7013 0.0
C442 C 0.10867 0.9636 0.66942 0.0
C443 C 0.126 0.97006 0.69993 0.0
C444 C 0.05666 0.93287 0.69961 0.0
C445 C 0.1078 0.95541 0.72938 0.0
C446 C 0.00341 0.90935 0.73238 0.0
C447 C 0.9696 0.90417 0.67327 0.0
N448 N 0.07417 0.93791 0.72854 0.0
N449 N 0.00257 0.91461 0.67278 0.0
H450 H 0.96449 0.90127 0.36644 0.0
H451 H 0.87803 0.97521 0.2496 0.0
H452 H 0.95024 0.88451 0.25932 0.0
H453 H 0.885 0.98643 0.3577 0.0
H454 H 0.89842 0.9362 0.2538 0.0
H455 H 0.92927 0.92653 0.36512 0.0
C456 C 0.95359 0.90242 0.34277 0.0
C457 C 0.96088 0.89133 0.31286 0.0
C458 C 0.89517 0.94694 0.27665 0.0
C459 C 0.92084 0.92037 0.31111 0.0
C460 C 0.88353 0.96927 0.27424 0.0
C461 C 0.88027 0.98459 0.30326 0.0
C462 C 0.9039 0.94006 0.30826 0.0
C463 C 0.88747 0.97557 0.33456 0.0
C464 C 0.93355 0.91692 0.342 0.0
C465 C 0.9459 0.89333 0.28293 0.0
N466 N 0.89934 0.95424 0.33619 0.0
N467 N 0.92696 0.90793 0.28276 0.0
H468 H 0.12142 0.96912 0.25434 0.0
H469 H 0.19669 0.13278 0.36687 0.0
H470 H 0.10852 0.96768 0.36208 0.0
H471 H 0.21608 0.13195 0.26072 0.0
H472 H 0.16976 0.0721 0.36729 0.0
H473 H 0.16107 0.02846 0.25751 0.0
C474 C 0.12708 0.98118 0.2787 0.0
C475 C 0.11122 0.96337 0.30789 0.0
C476 C 0.18034 0.08529 0.34403 0.0
C477 C 0.15654 0.0315 0.31172 0.0
C478 C 0.19584 0.11994 0.34383 0.0
C479 C 0.20814 0.13745 0.31361 0.0
C480 C 0.17711 0.06817 0.3138 0.0
C481 C 0.20638 0.11948 0.2845 0.0
C482 C 0.1498 0.01511 0.28052 0.0
C483 C 0.11987 0.98038 0.33882 0.0
N484 N 0.1908 0.08588 0.28525 0.0
N485 N 0.14163 0.01354 0.33986 0.0
H486 H 0.1324 0.21365 0.35557 0.0
H487 H 0.9642 0.14341 0.25106 0.0
H488 H 0.1274 0.20966 0.24699 0.0
H489 H 0.96744 0.13196 0.35859 0.0
H490 H 0.02442 0.17697 0.25024 0.0
H491 H 0.0729 0.19284 0.3577 0.0
C492 C 0.1189 0.20866 0.3321 0.0
C493 C 0.13499 0.213 0.30099 0.0
C494 C 0.01199 0.16738 0.27407 0.0
C495 C 0.06662 0.18914 0.30344 0.0
C496 C 0.97753 0.14819 0.27463 0.0
C497 C 0.96067 0.13429 0.30492 0.0
C498 C 0.02992 0.1728 0.30399 0.0
C499 C 0.97936 0.14192 0.33464 0.0
C500 C 0.08485 0.19675 0.33341 0.0
C501 C 0.11609 0.20643 0.27153 0.0
N502 N 0.01305 0.16036 0.33337 0.0
N503 N 0.08285 0.19458 0.2735 0.0
H504 H 0.87346 0.46398 0.08721 0.0
H505 H 0.7884 0.54143 0.97311 0.0
H506 H 0.86104 0.44922 0.97971 0.0
H507 H 0.80886 0.56154 0.07913 0.0
H508 H 0.82085 0.51312 0.97319 0.0
H509 H 0.8551 0.50458 0.08328 0.0
C510 C 0.86704 0.46937 0.06275 0.0
C511 C 0.8684 0.45278 0.03384 0.0
C512 C 0.81859 0.52416 0.99631 0.0
C513 C 0.8472 0.49929 0.02913 0.0
C514 C 0.80022 0.54048 0.99622 0.0
C515 C 0.7954 0.55334 0.02627 0.0
C516 C 0.83212 0.52073 0.02666 0.0
C517 C 0.81135 0.55141 0.05548 0.0
C518 C 0.85664 0.49267 0.06048 0.0
C519 C 0.86012 0.46115 1.00275 0.0
N520 N 0.8286 0.53505 0.05502 0.0
N521 N 0.84953 0.48354 1.00128 0.0
H522 H 0.54015 0.31223 0.08641 0.0
H523 H 0.64579 0.47864 0.98132 0.0
H524 H 0.5578 0.31372 0.9796 0.0
H525 H 0.63892 0.47459 0.0898 0.0
H526 H 0.6056 0.41947 0.97892 0.0
H527 H 0.56738 0.37249 0.08624 0.0
C528 C 0.54943 0.32522 0.06278 0.0
C529 C 0.54722 0.30789 0.03304 0.0
C530 C 0.61268 0.43159 0.00322 0.0
C531 C 0.57874 0.37713 0.03281 0.0
C532 C 0.63568 0.46543 0.00468 0.0
C533 C 0.6462 0.48165 0.0359 0.0
C534 C 0.59999 0.41373 0.03315 0.0
C535 C 0.63188 0.46316 0.0652 0.0
C536 C 0.56503 0.35969 0.06275 0.0
C537 C 0.55916 0.32606 0.00313 0.0
N538 N 0.60971 0.43014 0.0631 0.0
N539 N 0.57486 0.35979 0.00386 0.0
H540 H 0.62665 0.22538 0.09039 0.0
H541 H 0.78717 0.31091 0.97351 0.0
H542 H 0.62256 0.2373 0.98303 0.0
H543 H 0.78871 0.28821 0.07855 0.0
H544 H 0.72639 0.27818 0.97459 0.0
H545 H 0.68555 0.24332 0.0852 0.0
C546 C 0.63803 0.23155 0.06571 0.0
C547 C 0.61962 0.23022 0.03722 0.0
C548 C 0.7401 0.27996 0.99725 0.0
C549 C 0.68718 0.25092 0.03105 0.0
C550 C 0.7748 0.29847 0.99656 0.0
C551 C 0.79299 0.3028 0.02612 0.0
C552 C 0.72366 0.26585 0.02773 0.0
C553 C 0.77565 0.28611 0.05531 0.0
C554 C 0.67169 0.24172 0.06272 0.0
C555 C 0.63574 0.23823 0.0058 0.0
N556 N 0.74201 0.2688 0.05549 0.0
N557 N 0.66863 0.24858 0.00363 0.0
H558 H 0.61546 0.21588 0.58778 0.0
H559 H 0.5556 0.32342 0.69107 0.0
H560 H 0.63272 0.23565 0.69422 0.0
H561 H 0.55316 0.31581 0.58264 0.0
H562 H 0.57437 0.28312 0.69406 0.0
H563 H 0.58262 0.24332 0.58744 0.0
C564 C 0.61202 0.22565 0.61123 0.0
C565 C 0.62741 0.22398 0.641 0.0
C566 C 0.56947 0.29006 0.66964 0.0
C567 C 0.58989 0.25574 0.64063 0.0
C568 C 0.55874 0.31313 0.66784 0.0
C569 C 0.55321 0.32348 0.63646 0.0
C570 C 0.57468 0.27711 0.6399 0.0
C571 C 0.55742 0.30891 0.60735 0.0
C572 C 0.59327 0.24138 0.61096 0.0
C573 C 0.62152 0.23657 0.67067 0.0
N574 N 0.56815 0.28667 0.60978 0.0
N575 N 0.60358 0.25236 0.66964 0.0
H576 H 0.78776 0.30373 0.58316 0.0
H577 H 0.86541 0.46404 0.70068 0.0
H578 H 0.77492 0.29958 0.69104 0.0
H579 H 0.88457 0.4661 0.59414 0.0
H580 H 0.83778 0.40335 0.69918 0.0
H581 H 0.82823 0.36277 0.58783 0.0
C582 C 0.79357 0.31513 0.60784 0.0
C583 C 0.7775 0.29668 0.63666 0.0
C584 C 0.84846 0.41716 0.67624 0.0
C585 C 0.82379 0.36439 0.64223 0.0
C586 C 0.86437 0.45181 0.67714 0.0
C587 C 0.87676 0.47014 0.64739 0.0
C588 C 0.84492 0.40088 0.64538 0.0
C589 C 0.87477 0.45296 0.6176 0.0
C590 C 0.81677 0.34887 0.61053 0.0
C591 C 0.78638 0.31282 0.66804 0.0
N592 N 0.85878 0.41935 0.61728 0.0
N593 N 0.80863 0.34579 0.66994 0.0
H594 H 0.63577 0.4686 0.69824 0.0
H595 H 0.79972 0.55217 0.58587 0.0
H596 H 0.63683 0.48418 0.59104 0.0
H597 H 0.80035 0.54176 0.69383 0.0
H598 H 0.74053 0.53336 0.58847 0.0
H599 H 0.69645 0.50188 0.69857 0.0
C600 C 0.64867 0.47946 0.6749 0.0
C601 C 0.63121 0.47307 0.64448 0.0
C602 C 0.75368 0.53548 0.61164 0.0
C603 C 0.70051 0.5108 0.64459 0.0
C604 C 0.78752 0.54617 0.61015 0.0
C605 C 0.80502 0.5481 0.63959 0.0
C606 C 0.73712 0.5264 0.64276 0.0
C607 C 0.78786 0.54031 0.67039 0.0
C608 C 0.68333 0.49834 0.67506 0.0
C609 C 0.64925 0.48788 0.61501 0.0
N610 N 0.75481 0.52947 0.67111 0.0
N611 N 0.68287 0.50568 0.61575 0.0
H612 H 0.52985 0.78701 0.31486 0.0
H613 H 0.46546 0.88956 0.42049 0.0
H614 H 0.53248 0.79335 0.42338 0.0
H615 H 0.44975 0.87195 0.31358 0.0
H616 H 0.49857 0.86242 0.42043 0.0
H617 H 0.50882 0.82553 0.31286 0.0
C618 C 0.52627 0.79666 0.33833 0.0
C619 C 0.53258 0.78649 0.36943 0.0
C620 C 0.48813 0.86471 0.39692 0.0
C621 C 0.50846 0.83078 0.36714 0.0
C622 C 0.46919 0.88025 0.39687 0.0
C623 C 0.45427 0.8826 0.36703 0.0
C624 C 0.49224 0.85126 0.36696 0.0
C625 C 0.46054 0.87052 0.3372 0.0
C626 C 0.51423 0.81869 0.33709 0.0
C627 C 0.52771 0.80018 0.39886 0.0
N628 N 0.47876 0.85502 0.33799 0.0
N629 N 0.51571 0.82143 0.39699 0.0
H630 H 0.30227 0.81381 0.31619 0.0
H631 H 0.20185 0.64432 0.41762 0.0
H632 H 0.29878 0.80659 0.42465 0.0
H633 H 0.22044 0.64898 0.31076 0.0
H634 H 0.22683 0.70436 0.41887 0.0
H635 H 0.26255 0.75457 0.31267 0.0
C636 C 0.29294 0.7999 0.33933 0.0
C637 C 0.30442 0.81521 0.37084 0.0
C638 C 0.22516 0.69228 0.39507 0.0
C639 C 0.25878 0.74725 0.36678 0.0
C640 C 0.21089 0.65795 0.39428 0.0
C641 C 0.20968 0.64162 0.36411 0.0
C642 C 0.23851 0.7106 0.36552 0.0
C643 C 0.22114 0.66056 0.3346 0.0
C644 C 0.27023 0.76603 0.33722 0.0
C645 C 0.29102 0.79586 0.39984 0.0
N646 N 0.23555 0.69418 0.33613 0.0
N647 N 0.26915 0.76283 0.39709 0.0
H648 H 0.28678 0.56957 0.31214 0.0
H649 H 0.45411 0.62435 0.41363 0.0
H650 H 0.29209 0.5628 0.42014 0.0
H651 H 0.4515 0.64461 0.30804 0.0
H652 H 0.39377 0.59175 0.41401 0.0
H653 H 0.3457 0.58773 0.30836 0.0
C654 C 0.30022 0.57166 0.3351 0.0
C655 C 0.28444 0.56508 0.36663 0.0
C656 C 0.40635 0.60299 0.39065 0.0
C657 C 0.35207 0.5858 0.36229 0.0
C658 C 0.44084 0.62159 0.39036 0.0
C659 C 0.45787 0.63776 0.36086 0.0
C660 C 0.3886 0.60062 0.36128 0.0
C661 C 0.43938 0.63277 0.33138 0.0
C662 C 0.33391 0.58201 0.33285 0.0
C663 C 0.3032 0.56794 0.39536 0.0
N664 N 0.40565 0.61501 0.33245 0.0
N665 N 0.33608 0.57833 0.3925 0.0
H666 H 0.22748 0.66118 0.03114 0.0
H667 H 0.27688 0.54557 0.92719 0.0
H668 H 0.21595 0.64636 0.92358 0.0
H669 H 0.30239 0.5709 0.03167 0.0
H670 H 0.24463 0.57363 0.92849 0.0
H671 H 0.24586 0.62047 0.03421 0.0
C672 C 0.22854 0.64922 0.00816 0.0
C673 C 0.22055 0.65762 0.97694 0.0
C674 C 0.25695 0.57278 0.95127 0.0
C675 C 0.24149 0.61083 0.98044 0.0
C676 C 0.27534 0.55668 0.9506 0.0
C677 C 0.29286 0.55639 0.97924 0.0
C678 C 0.25615 0.58896 0.98074 0.0
C679 C 0.28945 0.5707 0.00896 0.0
C680 C 0.23905 0.62595 0.01 0.0
C681 C 0.22221 0.64104 0.94814 0.0
N682 N 0.27186 0.58688 0.00881 0.0
N683 N 0.23269 0.61863 0.95058 0.0
H684 H 0.53385 0.79824 0.02774 0.0
H685 H 0.4502 0.63566 0.91331 0.0
H686 H 0.54817 0.7982 0.92041 0.0
H687 H 0.44209 0.63363 0.02168 0.0
H688 H 0.49093 0.69476 0.9163 0.0
H689 H 0.50575 0.7375 0.02726 0.0
C690 C 0.53168 0.78554 0.00422 0.0
C691 C 0.54284 0.80331 0.974 0.0
C692 C 0.48045 0.68131 0.93946 0.0
C693 C 0.51041 0.73397 0.97316 0.0
C694 C 0.45709 0.64753 0.93774 0.0
C695 C 0.4423 0.62964 0.96722 0.0
C696 C 0.48893 0.69743 0.97085 0.0
C697 C 0.45254 0.6464 0.99821 0.0
C698 C 0.51548 0.75086 0.00391 0.0
C699 C 0.53938 0.78552 0.94424 0.0
N700 N 0.47493 0.67939 0.99918 0.0
N701 N 0.52313 0.75189 0.94452 0.0
H702 H 0.29906 0.82195 0.9288 0.0
H703 H 0.46853 0.87553 0.02577 0.0
H704 H 0.3036 0.80007 0.03353 0.0
H705 H 0.46055 0.88177 0.91804 0.0
H706 H 0.40972 0.85752 0.03117 0.0
H707 H 0.3594 0.85437 0.92727 0.0
C708 C 0.31277 0.82437 0.95167 0.0
C709 C 0.29628 0.80777 0.98122 0.0
C710 C 0.4209 0.86308 0.0064 0.0
C711 C 0.36555 0.84466 0.97946 0.0
C712 C 0.45453 0.87336 0.00321 0.0
C713 C 0.46954 0.87977 0.97127 0.0
C714 C 0.40205 0.85924 0.9775 0.0
C715 C 0.45006 0.87677 0.94311 0.0
C716 C 0.34726 0.84284 0.95071 0.0
C717 C 0.31531 0.81229 0.01018 0.0
N718 N 0.41729 0.86651 0.94688 0.0
N719 N 0.34904 0.82993 0.00845 0.0
H720 H 0.10089 0.30444 0.57102 0.0
H721 H 0.18819 0.49093 0.50299 0.0
H722 H 0.13153 0.38932 0.63593 0.0
H723 H 0.1228 0.40565 0.44283 0.0
H724 H 0.18009 0.45397 0.5503 0.0
H725 H 0.12185 0.34167 0.5226 0.0
C726 C 0.1126 0.33093 0.57525 0.0
C727 C 0.1141 0.34371 0.60767 0.0
C728 C 0.16785 0.44339 0.5266 0.0
C729 C 0.1381 0.3864 0.55218 0.0
C730 C 0.17256 0.46441 0.49951 0.0
C731 C 0.15588 0.45139 0.46894 0.0
C732 C 0.1467 0.40906 0.52298 0.0
C733 C 0.13586 0.41681 0.46602 0.0
C734 C 0.12435 0.35212 0.54751 0.0
C735 C 0.12953 0.37831 0.61142 0.0
N736 N 0.13174 0.39685 0.49273 0.0
N737 N 0.14075 0.39844 0.58398 0.0
H738 H 0.69352 0.78513 0.44151 0.0
H739 H 0.70908 0.80542 0.63949 0.0
H740 H 0.60889 0.76018 0.50488 0.0
H741 H 0.79239 0.8589 0.57257 0.0
H742 H 0.67169 0.78938 0.59104 0.0
H743 H 0.73012 0.81288 0.4893 0.0
C744 C 0.68264 0.78576 0.4654 0.0
C745 C 0.64805 0.7701 0.46922 0.0
C746 C 0.69813 0.80503 0.58707 0.0
C747 C 0.68986 0.80148 0.52424 0.0
C748 C 0.71953 0.81421 0.61473 0.0
C749 C 0.75405 0.83333 0.61019 0.0
C750 C 0.71133 0.81458 0.55454 0.0
C751 C 0.76603 0.84405 0.57742 0.0
C752 C 0.70356 0.80171 0.49267 0.0
C753 C 0.63539 0.77193 0.50076 0.0
N754 N 0.74478 0.83412 0.55087 0.0
N755 N 0.65625 0.78688 0.52718 0.0
H756 H 0.32162 0.0037 0.64199 0.0
H757 H 0.2901 0.90242 0.47517 0.0
H758 H 0.2264 0.96899 0.5944 0.0
H759 H 0.37332 0.00169 0.48541 0.0
H760 H 0.26527 0.91155 0.52623 0.0
H761 H 0.34008 0.98617 0.59256 0.0
C762 C 0.30424 0.99164 0.62157 0.0
C763 C 0.27241 0.98803 0.62232 0.0
C764 C 0.28888 0.93119 0.51701 0.0
C765 C 0.29353 0.96769 0.5659 0.0
C766 C 0.30303 0.92605 0.48811 0.0
C767 C 0.33364 0.95147 0.47603 0.0
C768 C 0.30621 0.9614 0.53438 0.0
C769 C 0.34952 0.98161 0.49367 0.0
C770 C 0.31495 0.98189 0.59333 0.0
C771 C 0.25119 0.97243 0.59479 0.0
N772 N 0.33585 0.98557 0.52221 0.0
N773 N 0.26215 0.96283 0.56754 0.0
H774 H 0.37431 0.13779 0.98216 0.0
H775 H 0.35817 0.1255 0.78434 0.0
H776 H 0.45571 0.19863 0.91553 0.0
H777 H 0.27257 0.09217 0.8486 0.0
H778 H 0.39406 0.15384 0.83234 0.0
H779 H 0.33611 0.12235 0.93445 0.0
C780 C 0.38414 0.14835 0.95769 0.0
C781 C 0.41844 0.16924 0.9529 0.0
C782 C 0.36742 0.14074 0.83591 0.0
C783 C 0.37482 0.15124 0.8981 0.0
C784 C 0.34691 0.12448 0.80851 0.0
C785 C 0.31234 0.10626 0.81253 0.0
C786 C 0.35335 0.13823 0.86782 0.0
C787 C 0.2991 0.10597 0.84439 0.0
C788 C 0.36227 0.13951 0.93044 0.0
C789 C 0.42958 0.18225 0.92053 0.0
N790 N 0.31965 0.12122 0.87097 0.0
N791 N 0.40795 0.17262 0.89435 0.0
H792 H 0.95915 0.23485 0.80352 0.0
H793 H 0.98861 0.3362 0.96925 0.0
H794 H 0.04046 0.33537 0.81213 0.0
H795 H 0.89383 0.3023 0.92099 0.0
H796 H 0.00725 0.31878 0.91987 0.0
H797 H 0.93378 0.24393 0.85419 0.0
C798 C 0.97154 0.25875 0.816 0.0
C799 C 0.00179 0.28451 0.8036 0.0
C800 C 0.98217 0.31464 0.92049 0.0
C801 C 0.97375 0.29443 0.86148 0.0
C802 C 0.97136 0.32434 0.94869 0.0
C803 C 0.93959 0.32091 0.94925 0.0
C804 C 0.96092 0.30066 0.89291 0.0
C805 C 0.91855 0.30558 0.92154 0.0
C806 C 0.95709 0.26386 0.84468 0.0
C807 C 0.01696 0.31499 0.82066 0.0
N808 N 0.92961 0.29601 0.89433 0.0
N809 N 0.00303 0.31895 0.849 0.0
H810 H 0.79817 0.72589 0.97488 0.0
H811 H 0.79134 0.73906 0.77691 0.0
H812 H 0.77114 0.64263 0.90857 0.0
H813 H 0.85023 0.8249 0.83915 0.0
H814 H 0.78385 0.70335 0.82508 0.0
H815 H 0.81829 0.76295 0.92612 0.0
C816 C 0.79693 0.71541 0.95022 0.0
C817 C 0.78259 0.68095 0.94592 0.0
C818 C 0.79875 0.73 0.82812 0.0
C819 C 0.80506 0.72325 0.88994 0.0
C820 C 0.80293 0.7504 0.80063 0.0
C821 C 0.82127 0.78504 0.80401 0.0
C822 C 0.81245 0.74427 0.85946 0.0
C823 C 0.83591 0.79833 0.83536 0.0
C824 C 0.80841 0.73661 0.92237 0.0
C825 C 0.78179 0.66893 0.91325 0.0
N826 N 0.83078 0.77795 0.862 0.0
N827 N 0.79233 0.68995 0.88653 0.0
H828 H 0.96759 0.70634 0.56698 0.0
H829 H 0.95486 0.72048 0.37006 0.0
H830 H 0.90434 0.62155 0.50522 0.0
H831 H 0.98686 0.8044 0.43665 0.0
H832 H 0.93511 0.68357 0.41888 0.0
H833 H 0.97455 0.74274 0.51957 0.0
C834 C 0.95494 0.69538 0.54355 0.0
C835 C 0.93555 0.66081 0.54003 0.0
C836 C 0.94598 0.71003 0.42273 0.0
C837 C 0.94373 0.70234 0.48551 0.0
C838 C 0.95726 0.73114 0.39485 0.0
C839 C 0.97283 0.76568 0.39919 0.0
C840 C 0.95082 0.72354 0.45524 0.0
C841 C 0.97511 0.77799 0.43199 0.0
C842 C 0.95882 0.71619 0.51652 0.0
C843 C 0.91954 0.64804 0.5091 0.0
N844 N 0.96477 0.75701 0.45876 0.0
N845 N 0.92437 0.66877 0.4829 0.0
H846 H 0.29457 0.25139 0.4321 0.0
H847 H 0.48169 0.35184 0.49889 0.0
H848 H 0.37855 0.30665 0.36639 0.0
H849 H 0.39616 0.32812 0.56037 0.0
H850 H 0.44468 0.32406 0.45113 0.0
H851 H 0.33236 0.26778 0.47997 0.0
C852 C 0.32098 0.26651 0.42756 0.0
C853 C 0.33329 0.27794 0.39505 0.0
C854 C 0.43408 0.32467 0.4752 0.0
C855 C 0.37672 0.29682 0.45005 0.0
C856 C 0.45513 0.34034 0.50252 0.0
C857 C 0.44202 0.34255 0.53364 0.0
C858 C 0.39965 0.31068 0.47915 0.0
C859 C 0.40738 0.32731 0.53678 0.0
C860 C 0.34252 0.276 0.45502 0.0
C861 C 0.36786 0.29748 0.39096 0.0
N862 N 0.38743 0.31211 0.50987 0.0
N863 N 0.38835 0.30647 0.41817 0.0
H864 H 0.76116 0.20764 0.50354 0.0
H865 H 0.79776 0.14465 0.36168 0.0
H866 H 0.76673 0.12841 0.55396 0.0
H867 H 0.8486 0.11277 0.42973 0.0
H868 H 0.78158 0.16631 0.40951 0.0
H869 H 0.78926 0.20068 0.45496 0.0
C870 C 0.76847 0.18892 0.50455 0.0
C871 C 0.76101 0.1682 0.53278 0.0
C872 C 0.79707 0.15546 0.41395 0.0
C873 C 0.79271 0.15973 0.47683 0.0
C874 C 0.80617 0.14286 0.38659 0.0
C875 C 0.82453 0.12676 0.39161 0.0
C876 C 0.80608 0.15161 0.44669 0.0
C877 C 0.83455 0.12507 0.42457 0.0
C878 C 0.78423 0.18475 0.47659 0.0
C879 C 0.77146 0.14462 0.53262 0.0
N880 N 0.82466 0.13675 0.45088 0.0
N881 N 0.78665 0.14095 0.50504 0.0
H882 H 0.77859 0.96815 0.19801 0.0
H883 H 0.70731 -0.00272 0.03216 0.0
H884 H 0.75689 0.04783 0.19027 0.0
H885 H 0.64556 0.90251 0.08 0.0
H886 H 0.74311 0.01552 0.08175 0.0
H887 H 0.74473 0.94274 0.14702 0.0
C888 C 0.76663 0.98015 0.18569 0.0
C889 C 0.77027 0.00997 0.19842 0.0
C890 C 0.72206 0.99051 0.08095 0.0
C891 C 0.73302 0.98192 0.14015 0.0
C892 C 0.7017 0.97992 0.05264 0.0
C893 C 0.67315 0.94832 0.05194 0.0
C894 C 0.7144 0.96918 0.10849 0.0
C895 C 0.66717 0.92713 0.07955 0.0
C896 C 0.74742 0.96568 0.15681 0.0
C897 C 0.75441 0.02465 0.18152 0.0
N898 N 0.68761 0.93799 0.1069 0.0
N899 N 0.7369 0.01075 0.15298 0.0
H900 H 0.19777 0.80927 0.08948 0.0
H901 H 0.04938 0.7748 0.19843 0.0
H902 H 0.10379 0.7787 0.04084 0.0
H903 H 0.1266 0.87761 0.20167 0.0
H904 H 0.07528 0.76694 0.14838 0.0
H905 H 0.17872 0.82817 0.13821 0.0
C906 C 0.17349 0.80711 0.08871 0.0
C907 C 0.15232 0.79223 0.06101 0.0
C908 C 0.08661 0.79112 0.16028 0.0
C909 C 0.13045 0.81293 0.11662 0.0
C910 C 0.07205 0.79563 0.18887 0.0
C911 C 0.08591 0.82692 0.20419 0.0
C912 C 0.11573 0.8178 0.14737 0.0
C913 C 0.11514 0.85315 0.19045 0.0
C914 C 0.16277 0.81793 0.11642 0.0
C915 C 0.12105 0.79 0.06148 0.0
N916 N 0.12939 0.84796 0.16282 0.0
N917 N 0.11079 0.79948 0.08915 0.0
H918 H 0.29311 0.38529 0.02924 0.0
H919 H 0.29626 0.37118 0.22753 0.0
H920 H 0.31901 0.46817 0.09574 0.0
H921 H 0.23898 0.28552 0.16455 0.0
H922 H 0.30467 0.40704 0.17926 0.0
H923 H 0.27238 0.34796 0.07777 0.0
C924 C 0.29402 0.39564 0.05389 0.0
C925 C 0.30817 0.43006 0.05831 0.0
C926 C 0.28992 0.38041 0.17606 0.0
C927 C 0.28493 0.38744 0.11405 0.0
C928 C 0.2852 0.35991 0.20361 0.0
C929 C 0.26704 0.32527 0.20007 0.0
C930 C 0.27695 0.36625 0.14449 0.0
C931 C 0.25311 0.31209 0.16846 0.0
C932 C 0.28216 0.37427 0.08161 0.0
C933 C 0.30851 0.4419 0.09097 0.0
N934 N 0.25877 0.33257 0.14177 0.0
N935 N 0.29758 0.42073 0.11756 0.0
H936 H 0.12212 0.53407 0.24418 0.0
H937 H 0.93674 0.42448 0.17529 0.0
H938 H 0.03945 0.47127 0.30864 0.0
H939 H 0.02435 0.45448 0.11495 0.0
H940 H 0.97236 0.4533 0.22372 0.0
H941 H 0.08429 0.5173 0.19638 0.0
C942 C 0.09594 0.51722 0.24852 0.0
C943 C 0.08412 0.5037 0.28058 0.0
C944 C 0.98368 0.45385 0.19974 0.0
C945 C 0.04066 0.4844 0.22562 0.0
C946 C 0.96343 0.43759 0.17207 0.0
C947 C 0.97763 0.43685 0.14111 0.0
C948 C 0.01832 0.46995 0.19623 0.0
C949 C 0.01236 0.45412 0.13843 0.0
C950 C 0.0744 0.50754 0.22108 0.0
C951 C 0.0498 0.48208 0.2844 0.0
N952 N 0.0315 0.46989 0.16564 0.0
N953 N 0.02931 0.47287 0.25718 0.0
H954 H 0.57082 0.66435 0.23958 0.0
H955 H 0.67442 0.58098 0.17298 0.0
H956 H 0.62638 0.63623 0.30552 0.0
H957 H 0.65047 0.64278 0.11189 0.0
H958 H 0.64561 0.58905 0.22053 0.0
H959 H 0.58817 0.64382 0.19168 0.0
C960 C 0.58617 0.65332 0.24416 0.0
C961 C 0.59744 0.65241 0.27675 0.0
C962 C 0.64641 0.60053 0.19659 0.0
C963 C 0.61744 0.62892 0.22173 0.0
C964 C 0.66268 0.59583 0.16939 0.0
C965 C 0.66511 0.61148 0.13845 0.0
C966 C 0.63201 0.62059 0.1927 0.0
C967 C 0.64953 0.63054 0.13535 0.0
C968 C 0.59622 0.6418 0.2167 0.0
C969 C 0.61731 0.63776 0.28089 0.0
N970 N 0.63372 0.63461 0.16214 0.0
N971 N 0.62686 0.62679 0.25368 0.0
H972 H 0.52206 0.15832 0.17577 0.0
H973 H 0.4358 0.97201 0.24425 0.0
H974 H 0.45988 0.07245 0.11482 0.0
H975 H 0.46261 0.05659 0.3085 0.0
H976 H 0.45785 0.0093 0.19597 0.0
H977 H 0.51326 0.12164 0.22359 0.0
C978 C 0.50704 0.13175 0.17224 0.0
C979 C 0.49141 0.11845 0.14129 0.0
C980 C 0.45927 0.01968 0.22073 0.0
C981 C 0.48142 0.07646 0.19588 0.0
C982 C 0.44688 -0.00155 0.24839 0.0
C983 C 0.44698 0.01111 0.28054 0.0
C984 C 0.47225 0.05388 0.22521 0.0
C985 C 0.46167 0.04567 0.28418 0.0
C986 C 0.5019 0.11088 0.19961 0.0
C987 C 0.47211 0.0838 0.1383 0.0
N988 N 0.47354 0.06583 0.25682 0.0
N989 N 0.46757 0.06402 0.16527 0.0
H990 H 0.62523 0.05185 0.69344 0.0
H991 H 0.62265 0.03652 0.8912 0.0
H992 H 0.64678 0.13381 0.75972 0.0
H993 H 0.56786 0.95091 0.82749 0.0
H994 H 0.63063 0.07243 0.84313 0.0
H995 H 0.60254 0.014 0.74141 0.0
C996 C 0.62474 0.06188 0.7179 0.0
C997 C 0.63835 0.09621 0.7225 0.0
C998 C 0.61644 0.04579 0.83972 0.0
C999 C 0.61285 0.05301 0.77758 0.0
C1000 C 0.61195 0.02528 0.86715 0.0
C1001 C 0.59473 0.99068 0.8633 0.0
C1002 C 0.60427 0.03168 0.80794 0.0
C1003 C 0.58125 0.97747 0.83158 0.0
C1004 C 0.61176 0.04022 0.74528 0.0
C1005 C 0.63683 0.10763 0.75485 0.0
N1006 N 0.58679 -0.00201 0.80496 0.0
N1007 N 0.62487 0.08619 0.78118 0.0
H1008 H 0.06241 0.65501 0.89928 0.0
H1009 H 0.04858 0.63728 0.70153 0.0
H1010 H 0.14812 0.68278 0.83661 0.0
H1011 H 0.96532 0.58091 0.76774 0.0
H1012 H 0.08585 0.65277 0.75002 0.0
H1013 H 0.02654 0.62649 0.85129 0.0
C1014 C 0.07368 0.6548 0.87549 0.0
C1015 C 0.10832 0.67151 0.87189 0.0
C1016 C 0.05946 0.63657 0.7538 0.0
C1017 C 0.06736 0.6393 0.81664 0.0
C1018 C 0.03813 0.62771 0.72611 0.0
C1019 C 0.00363 0.60805 0.7305 0.0
C1020 C 0.04619 0.62614 0.78618 0.0
C1021 C -0.00835 0.59628 0.76302 0.0
C1022 C 0.05318 0.63842 0.84811 0.0
C1023 C 0.12154 0.6702 0.84051 0.0
N1024 N 0.01281 0.60594 0.78962 0.0
N1025 N 0.10105 0.65486 0.81393 0.0
H1026 H 0.52026 0.45157 0.76249 0.0
H1027 H 0.41253 0.52992 0.83019 0.0
H1028 H 0.46071 0.47515 0.69722 0.0
H1029 H 0.44033 0.47093 0.89106 0.0
H1030 H 0.44138 0.52259 0.7822 0.0
H1031 H 0.50289 0.47202 0.81038 0.0
C1032 C 0.50401 0.46159 0.75802 0.0
C1033 C 0.49161 0.46117 0.72566 0.0
C1034 C 0.44142 0.51158 0.80618 0.0
C1035 C 0.47159 0.48459 0.78071 0.0
C1036 C 0.42512 0.51586 0.83363 0.0
C1037 C 0.42377 0.50076 0.86465 0.0
C1038 C 0.45694 0.49254 0.80992 0.0
C1039 C 0.44042 0.48271 0.86755 0.0
C1040 C 0.49397 0.47307 0.7855 0.0
C1041 C 0.47067 0.47464 0.72168 0.0
N1042 N 0.45625 0.47906 0.84054 0.0
N1043 N 0.46112 0.48557 0.74892 0.0
H1044 H 0.1557 0.3847 0.75533 0.0
H1045 H 0.26908 0.39016 0.9091 0.0
H1046 H 0.13946 0.29744 0.80971 0.0
H1047 H 0.27681 0.47717 0.86134 0.0
H1048 H 0.22262 0.35538 0.87193 0.0
H1049 H 0.20226 0.41869 0.79236 0.0
C1050 C 0.162 0.37264 0.77491 0.0
C1051 C 0.1435 0.33816 0.77948 0.0
C1052 C 0.23448 0.3821 0.86973 0.0
C1053 C 0.19669 0.37699 0.82212 0.0
C1054 C 0.26094 0.40197 0.89099 0.0
C1055 C 0.27699 0.43666 0.88831 0.0
C1056 C 0.22412 0.39705 0.84561 0.0
C1057 C 0.26533 0.45056 0.86433 0.0
C1058 C 0.18852 0.39209 0.79616 0.0
C1059 C 0.15289 0.32395 0.80534 0.0
N1060 N 0.23971 0.43071 0.84386 0.0
N1061 N 0.17881 0.34345 0.82574 0.0
H1062 H 0.71236 0.82929 0.7601 0.0
H1063 H 0.70605 0.94766 0.90224 0.0
H1064 H 0.79914 0.91276 0.80362 0.0
H1065 H 0.61864 0.86575 0.85772 0.0
H1066 H 0.74051 0.9349 0.86617 0.0
H1067 H 0.67737 0.84252 0.79509 0.0
C1068 C 0.72407 0.85046 0.77684 0.0
C1069 C 0.75875 0.86982 0.77903 0.0
C1070 C 0.71378 0.91971 0.86431 0.0
C1071 C 0.71891 0.88494 0.81918 0.0
C1072 C 0.69407 0.92693 0.88498 0.0
C1073 C 0.65937 0.9078 0.883 0.0
C1074 C 0.69871 0.89315 0.84152 0.0
C1075 C 0.64528 0.88124 0.8601 0.0
C1076 C 0.70408 0.85795 0.79686 0.0
C1077 C 0.77253 0.89698 0.80118 0.0
N1078 N 0.66503 0.87473 0.84022 0.0
N1079 N 0.75256 0.90365 0.82045 0.0
H1080 H 0.1516 0.82649 0.91222 0.0
H1081 H 0.27101 0.95197 0.77129 0.0
H1082 H 0.23355 0.82124 0.86745 0.0
H1083 H 0.18822 0.95623 0.81525 0.0
H1084 H 0.25764 0.90388 0.80636 0.0
H1085 H 0.16509 0.87459 0.87719 0.0
C1086 C 0.17246 0.83546 0.89512 0.0
C1087 C 0.19139 0.81971 0.89272 0.0
C1088 C 0.24241 0.91536 0.80826 0.0
C1089 C 0.20687 0.87464 0.85252 0.0
C1090 C 0.24999 0.94278 0.7882 0.0
C1091 C 0.23078 0.95824 0.79036 0.0
C1092 C 0.21545 0.90336 0.8306 0.0
C1093 C 0.20382 0.94522 0.81276 0.0
C1094 C 0.18012 0.86289 0.87508 0.0
C1095 C 0.21816 0.83247 0.87011 0.0
N1096 N 0.19701 0.91857 0.83204 0.0
N1097 N 0.22507 0.85917 0.85084 0.0
H1098 H 0.45897 0.29922 0.71212 0.0
H1099 H 0.2935 0.14741 0.63705 0.0
H1100 H 0.38654 0.31103 0.65489 0.0
H1101 H 0.37047 0.13742 0.68721 0.0
H1102 H 0.3273 0.20746 0.64257 0.0
H1103 H 0.42438 0.23935 0.70672 0.0
C1104 C 0.43546 0.28929 0.69908 0.0
C1105 C 0.42598 0.31031 0.68343 0.0
C1106 C 0.33691 0.1921 0.65204 0.0
C1107 C 0.38672 0.24176 0.67642 0.0
C1108 C 0.31784 0.15779 0.64845 0.0
C1109 C 0.32894 0.13724 0.66211 0.0
C1110 C 0.36721 0.20586 0.66939 0.0
C1111 C 0.36069 0.15222 0.67666 0.0
C1112 C 0.41593 0.25506 0.69559 0.0
C1113 C 0.39511 0.29586 0.66702 0.0
N1114 N 0.37852 0.18562 0.68032 0.0
N1115 N 0.37677 0.26245 0.66355 0.0
H1116 H 0.78977 0.14093 0.65893 0.0
H1117 H 0.96595 0.30484 0.68178 0.0
H1118 H 0.80289 0.23065 0.70555 0.0
H1119 H 0.95133 0.21684 0.62994 0.0
H1120 H 0.90618 0.2786 0.68989 0.0
H1121 H 0.8496 0.16737 0.65168 0.0
C1122 C 0.80524 0.16591 0.66839 0.0
C1123 C 0.79114 0.18375 0.68237 0.0
C1124 C 0.91605 0.26519 0.67643 0.0
C1125 C 0.85962 0.21443 0.67332 0.0
C1126 C 0.95017 0.28031 0.67139 0.0
C1127 C 0.96382 0.26286 0.65559 0.0
C1128 C 0.89547 0.2324 0.66563 0.0
C1129 C 0.94205 0.23123 0.64247 0.0
C1130 C 0.83941 0.18115 0.66381 0.0
C1131 C 0.81254 0.21596 0.6944 0.0
N1132 N 0.90897 0.21683 0.64824 0.0
N1133 N 0.84572 0.23045 0.68914 0.0
H1134 H 0.88766 0.80404 0.63109 0.0
H1135 H 0.87217 0.64075 0.71394 0.0
H1136 H 0.80003 0.72973 0.68267 0.0
H1137 H 0.95953 0.71449 0.66154 0.0
H1138 H 0.84657 0.67473 0.70546 0.0
H1139 H 0.91373 0.77057 0.64036 0.0
C1140 C 0.87353 0.78033 0.64363 0.0
C1141 C 0.84173 0.76999 0.65658 0.0
C1142 C 0.87148 0.68362 0.69612 0.0
C1143 C 0.87189 0.73206 0.66809 0.0
C1144 C 0.88637 0.66445 0.7014 0.0
C1145 C 0.91788 0.67442 0.68789 0.0
C1146 C 0.88824 0.71296 0.67729 0.0
C1147 C 0.93502 0.70551 0.67201 0.0
C1148 C 0.88867 0.76146 0.64936 0.0
C1149 C 0.82472 0.73896 0.67256 0.0
N1150 N 0.91976 0.72344 0.66671 0.0
N1151 N 0.84019 0.7213 0.67827 0.0
H1152 H 0.9464 0.81473 0.19953 0.0
H1153 H 0.81284 0.63151 0.14135 0.0
H1154 H 0.93368 0.72571 0.24728 0.0
H1155 H 0.81915 0.71995 0.09887 0.0
H1156 H 0.85858 0.66596 0.1788 0.0
H1157 H 0.90057 0.78061 0.16178 0.0
C1158 C 0.9339 0.788 0.2022 0.0
C1159 C 0.94403 0.77305 0.22656 0.0
C1160 C 0.85001 0.67786 0.16127 0.0
C1161 C 0.89164 0.7339 0.18321 0.0
C1162 C 0.8239 0.65821 0.13974 0.0
C1163 C 0.81195 0.67284 0.11696 0.0
C1164 C 0.8644 0.71245 0.16008 0.0
C1165 C 0.82749 0.70758 0.11602 0.0
C1166 C 0.90774 0.76856 0.18058 0.0
C1167 C 0.92675 0.73833 0.22892 0.0
N1168 N 0.85289 0.72623 0.13738 0.0
N1169 N 0.90148 0.71993 0.20738 0.0
H1170 H 0.37529 0.28051 0.24605 0.0
H1171 H 0.38244 0.16387 0.10251 0.0
H1172 H 0.28874 0.19795 0.20109 0.0
H1173 H 0.4696 0.24477 0.14854 0.0
H1174 H 0.34777 0.17626 0.13864 0.0
H1175 H 0.41047 0.26743 0.21122 0.0
C1176 C 0.36366 0.25955 0.22903 0.0
C1177 C 0.32899 0.24042 0.22638 0.0
C1178 C 0.37449 0.19131 0.14082 0.0
C1179 C 0.36906 0.22549 0.1864 0.0
C1180 C 0.39433 0.18431 0.12011 0.0
C1181 C 0.42901 0.20327 0.12249 0.0
C1182 C 0.38942 0.21748 0.16406 0.0
C1183 C 0.44297 0.22943 0.14584 0.0
C1184 C 0.38376 0.25216 0.20909 0.0
C1185 C 0.31533 0.21354 0.20389 0.0
N1186 N 0.4231 0.23574 0.16575 0.0
N1187 N 0.33542 0.20696 0.1847 0.0
H1188 H 0.89691 0.14839 0.19149 0.0
H1189 H 0.85395 0.28873 0.14233 0.0
H1190 H 0.82421 0.16422 0.24317 0.0
H1191 H 0.93506 0.28173 0.09789 0.0
H1192 H 0.84117 0.2412 0.17743 0.0
H1193 H 0.91017 0.19585 0.15554 0.0
C1194 C 0.88378 0.16187 0.19537 0.0
C1195 C 0.85931 0.15224 0.22035 0.0
C1196 C 0.86177 0.25003 0.16003 0.0
C1197 C 0.87433 0.20641 0.17919 0.0
C1198 C 0.86909 0.27718 0.13985 0.0
C1199 C 0.89578 0.2894 0.11718 0.0
C1200 C 0.8812 0.23485 0.15756 0.0
C1201 C 0.91432 0.27321 0.11506 0.0
C1202 C 0.89139 0.18895 0.17481 0.0
C1203 C 0.84324 0.17072 0.22427 0.0
N1204 N 0.9067 0.24673 0.13509 0.0
N1205 N 0.85098 0.19686 0.2038 0.0
H1206 H 0.71462 0.97767 0.32356 0.0
H1207 H 0.70222 0.80147 0.34532 0.0
H1208 H 0.78921 0.96332 0.37304 0.0
H1209 H 0.62632 0.81526 0.298 0.0
H1210 H 0.7355 0.86116 0.35349 0.0
H1211 H 0.68067 0.91787 0.31628 0.0
C1212 C 0.72355 0.96194 0.33364 0.0
C1213 C 0.75512 0.97565 0.3484 0.0
C1214 C 0.71169 0.85114 0.34104 0.0
C1215 C 0.71676 0.90728 0.33931 0.0
C1216 C 0.69283 0.81705 0.33592 0.0
C1217 C 0.66112 0.80317 0.32142 0.0
C1218 C 0.6988 0.87148 0.33154 0.0
C1219 C 0.65047 0.82472 0.30955 0.0
C1220 C 0.70431 0.9278 0.32907 0.0
C1221 C 0.76519 0.95397 0.36124 0.0
N1222 N 0.6691 0.8578 0.3153 0.0
N1223 N 0.74627 0.92085 0.35591 0.0
H1224 H 0.12168 0.8081 0.32416 0.0
H1225 H 0.29709 0.97111 0.35451 0.0
H1226 H 0.13461 0.89356 0.37992 0.0
H1227 H 0.28441 0.88538 0.29948 0.0
H1228 H 0.23718 0.94401 0.36171 0.0
H1229 H 0.18156 0.83521 0.31673 0.0
C1230 C 0.13709 0.83223 0.33553 0.0
C1231 C 0.12293 0.84876 0.35223 0.0
C1232 C 0.2475 0.93128 0.34776 0.0
C1233 C 0.19146 0.88025 0.34301 0.0
C1234 C 0.28171 0.94692 0.34324 0.0
C1235 C 0.29594 0.93032 0.32681 0.0
C1236 C 0.22739 0.89884 0.33577 0.0
C1237 C 0.27466 0.8991 0.31254 0.0
C1238 C 0.17129 0.84788 0.33088 0.0
C1239 C 0.14428 0.87991 0.3666 0.0
N1240 N 0.24146 0.88416 0.31778 0.0
N1241 N 0.17747 0.89484 0.36124 0.0
H1242 H 0.1269 0.39669 0.34053 0.0
H1243 H 0.29046 0.3829 0.32357 0.0
H1244 H 0.21898 0.47389 0.29835 0.0
H1245 H 0.19942 0.3078 0.3695 0.0
H1246 H 0.26497 0.41695 0.31462 0.0
H1247 H 0.15207 0.36211 0.34743 0.0
C1248 C 0.15216 0.40611 0.33196 0.0
C1249 C 0.17101 0.43852 0.31938 0.0
C1250 C 0.2507 0.39316 0.32695 0.0
C1251 C 0.20019 0.39933 0.32805 0.0
C1252 C 0.26538 0.37384 0.33249 0.0
C1253 C 0.24695 0.34219 0.34695 0.0
C1254 C 0.21739 0.38075 0.33593 0.0
C1255 C 0.21459 0.33193 0.3581 0.0
C1256 C 0.16664 0.38648 0.33632 0.0
C1257 C 0.20352 0.44919 0.30842 0.0
N1258 N 0.2007 0.35099 0.35195 0.0
N1259 N 0.21726 0.42982 0.3135 0.0
H1260 H 0.96163 0.48137 0.96908 0.0
H1261 H 0.12915 0.63065 0.04408 0.0
H1262 H 0.03854 0.46879 0.01569 0.0
H1263 H 0.05107 0.64267 0.99956 0.0
H1264 H 0.09517 0.5709 0.03627 0.0
H1265 H -0.00458 0.54101 0.97768 0.0
C1266 C 0.98598 0.49115 0.98029 0.0
C1267 C -0.00296 0.46993 0.99211 0.0
C1268 C 0.08533 0.58661 0.02857 0.0
C1269 C 0.03532 0.53807 1.00299 0.0
C1270 C 0.10451 0.62073 0.03354 0.0
C1271 C 0.09318 0.64182 0.02195 0.0
C1272 C 0.05469 0.57356 0.01197 0.0
C1273 C 0.06103 0.62742 0.00843 0.0
C1274 C 0.00503 0.52521 0.98571 0.0
C1275 C 0.02881 0.48415 0.00655 0.0
N1276 N 0.0431 0.5942 0.00334 0.0
N1277 N 0.04666 0.51732 0.01199 0.0
H1278 H 0.45709 0.47564 0.98648 0.0
H1279 H 0.63382 0.63701 0.01673 0.0
H1280 H 0.47083 0.56324 0.03851 0.0
H1281 H 0.61982 0.54979 0.9637 0.0
H1282 H 0.57392 0.61125 0.02289 0.0
H1283 H 0.51697 0.50171 0.97989 0.0
C1284 C 0.47267 0.50006 0.99719 0.0
C1285 C 0.45876 0.51741 0.01269 0.0
C1286 C 0.58396 0.5979 0.00961 0.0
C1287 C 0.52734 0.54769 0.00443 0.0
C1288 C 0.61819 0.61277 0.00569 0.0
C1289 C 0.63202 0.59537 0.99011 0.0
C1290 C 0.56341 0.56544 0.99787 0.0
C1291 C 0.61039 0.56409 0.97616 0.0
C1292 C 0.50689 0.51509 0.99302 0.0
C1293 C 0.48032 0.54893 0.02619 0.0
N1294 N 0.57717 0.54994 0.98078 0.0
N1295 N 0.51354 0.56323 0.02136 0.0
H1296 H 0.46209 0.06205 0.01403 0.0
H1297 H 0.62597 0.04947 0.99325 0.0
H1298 H 0.55273 0.13826 0.9685 0.0
H1299 H 0.53429 0.97105 0.03477 0.0
H1300 H 0.60021 0.08359 0.98707 0.0
H1301 H 0.48746 0.02758 0.0204 0.0
C1302 C 0.48704 0.07127 0.00462 0.0
C1303 C 0.50547 0.10338 0.99119 0.0
C1304 C 0.58583 0.05904 0.99786 0.0
C1305 C 0.53488 0.06434 0.99926 0.0
C1306 C 0.60066 0.03969 1.00183 0.0
C1307 C 0.58214 0.00716 0.01413 0.0
C1308 C 0.55226 0.04577 0.00625 0.0
C1309 C 0.54952 -0.00407 0.02506 0.0
C1310 C 0.50165 0.0517 0.00868 0.0
C1311 C 0.5376 0.11381 0.97923 0.0
N1312 N 0.53545 0.01507 0.0204 0.0
N1313 N 0.55147 0.09451 0.98402 0.0
H1314 H 0.616 0.14654 0.52393 0.0
H1315 H 0.47039 0.96328 0.48169 0.0
H1316 H 0.60323 0.05906 0.5753 0.0
H1317 H 0.48862 0.05051 0.42591 0.0
H1318 H 0.51861 -0.00218 0.51662 0.0
H1319 H 0.56851 0.11153 0.48866 0.0
C1320 C 0.60319 0.11996 0.5279 0.0
C1321 C 0.61371 0.10573 0.55264 0.0
C1322 C 0.51209 0.00936 0.49668 0.0
C1323 C 0.55925 0.06547 0.51212 0.0
C1324 C 0.48455 0.98967 0.47669 0.0
C1325 C 0.47533 0.00403 0.45088 0.0
C1326 C 0.53046 0.04365 0.49089 0.0
C1327 C 0.49474 0.03833 0.44552 0.0
C1328 C 0.57608 0.09997 0.50763 0.0
C1329 C 0.59604 0.07112 0.55654 0.0
N1330 N 0.52133 0.05699 0.46546 0.0
N1331 N 0.56964 0.05215 0.53644 0.0
H1332 H 0.04362 0.61391 0.57909 0.0
H1333 H 0.0466 0.49712 0.43302 0.0
H1334 H 0.95563 0.53181 0.53563 0.0
H1335 H 0.13481 0.5783 0.47723 0.0
H1336 H 0.01279 0.5097 0.47042 0.0
H1337 H 0.07762 0.60081 0.54244 0.0
C1338 C 0.03144 0.59305 0.56201 0.0
C1339 C -0.00329 0.57406 0.56034 0.0
C1340 C 0.03955 0.52476 0.47188 0.0
C1341 C 0.03542 0.55908 0.51826 0.0
C1342 C 0.05887 0.51765 0.45045 0.0
C1343 C 0.0936 0.53661 0.45201 0.0
C1344 C 0.05508 0.55101 0.49498 0.0
C1345 C 0.10812 0.56291 0.47518 0.0
C1346 C 0.05086 0.58564 0.54102 0.0
C1347 C 0.9823 0.5473 0.5377 0.0
N1348 N 0.08877 0.56929 0.49578 0.0
N1349 N 0.00173 0.54069 0.51749 0.0
H1350 H 0.60305 0.61667 0.42829 0.0
H1351 H 0.48828 0.49646 0.57499 0.0
H1352 H 0.52088 0.6216 0.47292 0.0
H1353 H 0.56924 0.48989 0.52957 0.0
H1354 H 0.50056 0.54307 0.53818 0.0
H1355 H 0.59097 0.56991 0.465 0.0
C1356 C 0.58239 0.60785 0.44563 0.0
C1357 C 0.56306 0.62321 0.4476 0.0
C1358 C 0.51566 0.53145 0.53633 0.0
C1359 C 0.54928 0.56995 0.48976 0.0
C1360 C 0.50874 0.50489 0.55743 0.0
C1361 C 0.52766 0.48912 0.55532 0.0
C1362 C 0.5417 0.54232 0.51296 0.0
C1363 C 0.55387 0.50117 0.53203 0.0
C1364 C 0.57557 0.58123 0.46666 0.0
C1365 C 0.5366 0.6107 0.47059 0.0
N1366 N 0.56005 0.527 0.51171 0.0
N1367 N 0.53057 0.58487 0.49081 0.0
loop_
_geom_bond_atom_site_label_1
_geom_bond_atom_site_label_2
_geom_bond_distance
_geom_bond_site_symmetry_2
_ccdc_geom_bond_type
Sc0 O3 2.025 . S
Sc0 O10 2.105 . S
Sc0 O13 2.105 . S
Sc0 O16 2.105 . S
Sc0 O19 2.105 . S
Sc1 O3 2.025 . S
Sc1 O11 2.105 . S
Sc1 O15 2.105 . S
Sc1 O17 2.105 1_455 S
Sc1 O21 2.105 . S
Sc2 O3 2.025 . S
Sc2 O12 2.105 . S
Sc2 O14 2.105 . S
Sc2 O18 2.105 . S
Sc2 O20 2.105 . S
O3 Sc0 2.025 . S
O3 Sc1 2.025 . S
O3 Sc2 2.025 . S
C4 O10 1.268 . S
C4 O20 1.268 . S
C5 O11 1.268 . S
C5 O19 1.268 . S
C6 O12 1.268 . S
C6 O21 1.268 . S
C7 O13 1.268 1_655 S
C7 O17 1.268 . S
C8 O14 1.268 . S
C8 O16 1.268 . S
C9 O15 1.268 . S
C9 O18 1.268 . S
O10 Sc0 2.105 . S
O10 C4 1.268 . S
O11 Sc1 2.105 . S
O11 C5 1.268 . S
O12 Sc2 2.105 . S
O12 C6 1.268 . S
O13 Sc0 2.105 . S
O13 C7 1.268 1_455 S
O14 Sc2 2.105 . S
O14 C8 1.268 . S
O15 Sc1 2.105 . S
O15 C9 1.268 . S
O16 Sc0 2.105 . S
O16 C8 1.268 . S
O17 Sc1 2.105 1_655 S
O17 C7 1.268 . S
O18 Sc2 2.105 . S
O18 C9 1.268 . S
O19 Sc0 2.105 . S
O19 C5 1.268 . S
O20 Sc2 2.105 . S
O20 C4 1.268 . S
O21 Sc1 2.105 . S
O21 C6 1.268 . S
Sc22 O25 2.025 . S
Sc22 O32 2.105 . S
Sc22 O35 2.105 . S
Sc22 O38 2.105 . S
Sc22 O41 2.105 . S
Sc23 O25 2.025 . S
Sc23 O33 2.105 . S
Sc23 O37 2.105 . S
Sc23 O39 2.105 . S
Sc23 O43 2.105 . S
Sc24 O25 2.025 . S
Sc24 O34 2.105 . S
Sc24 O36 2.105 . S
Sc24 O40 2.105 . S
Sc24 O42 2.105 . S
O25 Sc22 2.025 . S
O25 Sc23 2.025 . S
O25 Sc24 2.025 . S
C26 O32 1.268 . S
C26 O42 1.268 . S
C27 O33 1.268 . S
C27 O41 1.268 . S
C28 O34 1.268 . S
C28 O43 1.268 . S
C29 O35 1.268 . S
C29 O39 1.268 . S
C30 O36 1.268 . S
C30 O38 1.268 . S
C31 O37 1.268 . S
C31 O40 1.268 . S
O32 Sc22 2.105 . S
O32 C26 1.268 . S
O33 Sc23 2.105 . S
O33 C27 1.268 . S
O34 Sc24 2.105 . S
O34 C28 1.268 . S
O35 Sc22 2.105 . S
O35 C29 1.268 . S
O36 Sc24 2.105 . S
O36 C30 1.268 . S
O37 Sc23 2.105 . S
O37 C31 1.268 . S
O38 Sc22 2.105 . S
O38 C30 1.268 . S
O39 Sc23 2.105 . S
O39 C29 1.268 . S
O40 Sc24 2.105 . S
O40 C31 1.268 . S
O41 Sc22 2.105 . S
O41 C27 1.268 . S
O42 Sc24 2.105 . S
O42 C26 1.268 . S
O43 Sc23 2.105 . S
O43 C28 1.268 . S
Sc44 O47 2.025 . S
Sc44 O54 2.105 . S
Sc44 O57 2.105 . S
Sc44 O60 2.105 . S
Sc44 O63 2.105 . S
Sc45 O47 2.025 . S
Sc45 O55 2.105 . S
Sc45 O59 2.105 . S
Sc45 O61 2.105 . S
Sc45 O65 2.105 . S
Sc46 O47 2.025 . S
Sc46 O56 2.105 . S
Sc46 O58 2.105 . S
Sc46 O62 2.105 . S
Sc46 O64 2.105 . S
O47 Sc44 2.025 . S
O47 Sc45 2.025 . S
O47 Sc46 2.025 . S
C48 O54 1.268 1_565 S
C48 O64 1.268 1_565 S
C49 O55 1.268 . S
C49 O63 1.268 . S
C50 O56 1.268 . S
C50 O65 1.268 . S
C51 O57 1.268 . S
C51 O61 1.268 . S
C52 O58 1.268 . S
C52 O60 1.268 . S
C53 O59 1.268 . S
C53 O62 1.268 . S
O54 Sc44 2.105 . S
O54 C48 1.268 1_545 S
O55 Sc45 2.105 . S
O55 C49 1.268 . S
O56 Sc46 2.105 . S
O56 C50 1.268 . S
O57 Sc44 2.105 . S
O57 C51 1.268 . S
O58 Sc46 2.105 . S
O58 C52 1.268 . S
O59 Sc45 2.105 . S
O59 C53 1.268 . S
O60 Sc44 2.105 . S
O60 C52 1.268 . S
O61 Sc45 2.105 . S
O61 C51 1.268 . S
O62 Sc46 2.105 . S
O62 C53 1.268 . S
O63 Sc44 2.105 . S
O63 C49 1.268 . S
O64 Sc46 2.105 . S
O64 C48 1.268 1_545 S
O65 Sc45 2.105 . S
O65 C50 1.268 . S
Sc66 O69 2.025 . S
Sc66 O76 2.105 . S
Sc66 O79 2.105 . S
Sc66 O82 2.105 . S
Sc66 O85 2.105 . S
Sc67 O69 2.025 . S
Sc67 O77 2.105 . S
Sc67 O81 2.105 . S
Sc67 O83 2.105 . S
Sc67 O87 2.105 . S
Sc68 O69 2.025 . S
Sc68 O78 2.105 . S
Sc68 O80 2.105 1_455 S
Sc68 O84 2.105 . S
Sc68 O86 2.105 . S
O69 Sc66 2.025 . S
O69 Sc67 2.025 . S
O69 Sc68 2.025 . S
C70 O76 1.268 . S
C70 O86 1.268 . S
C71 O77 1.268 . S
C71 O85 1.268 . S
C72 O78 1.268 . S
C72 O87 1.268 . S
C73 O79 1.268 . S
C73 O83 1.268 . S
C74 O80 1.268 . S
C74 O82 1.268 1_655 S
C75 O81 1.268 . S
C75 O84 1.268 . S
O76 Sc66 2.105 . S
O76 C70 1.268 . S
O77 Sc67 2.105 . S
O77 C71 1.268 . S
O78 Sc68 2.105 . S
O78 C72 1.268 . S
O79 Sc66 2.105 . S
O79 C73 1.268 . S
O80 Sc68 2.105 1_655 S
O80 C74 1.268 . S
O81 Sc67 2.105 . S
O81 C75 1.268 . S
O82 Sc66 2.105 . S
O82 C74 1.268 1_455 S
O83 Sc67 2.105 . S
O83 C73 1.268 . S
O84 Sc68 2.105 . S
O84 C75 1.268 . S
O85 Sc66 2.105 . S
O85 C71 1.268 . S
O86 Sc68 2.105 . S
O86 C70 1.268 . S
O87 Sc67 2.105 . S
O87 C72 1.268 . S
Sc88 O91 2.025 . S
Sc88 O98 2.105 . S
Sc88 O101 2.105 . S
Sc88 O104 2.105 . S
Sc88 O107 2.105 . S
Sc89 O91 2.025 . S
Sc89 O99 2.105 . S
Sc89 O103 2.105 . S
Sc89 O105 2.105 . S
Sc89 O109 2.105 . S
Sc90 O91 2.025 . S
Sc90 O100 2.105 . S
Sc90 O102 2.105 . S
Sc90 O106 2.105 . S
Sc90 O108 2.105 . S
O91 Sc88 2.025 . S
O91 Sc89 2.025 . S
O91 Sc90 2.025 . S
C92 O98 1.268 . S
C92 O108 1.268 . S
C93 O99 1.268 . S
C93 O107 1.268 . S
C94 O100 1.268 . S
C94 O109 1.268 . S
C95 O101 1.268 . S
C95 O105 1.268 . S
C96 O102 1.268 . S
C96 O104 1.268 . S
C97 O103 1.268 . S
C97 O106 1.268 . S
O98 Sc88 2.105 . S
O98 C92 1.268 . S
O99 Sc89 2.105 . S
O99 C93 1.268 . S
O100 Sc90 2.105 . S
O100 C94 1.268 . S
O101 Sc88 2.105 . S
O101 C95 1.268 . S
O102 Sc90 2.105 . S
O102 C96 1.268 . S
O103 Sc89 2.105 . S
O103 C97 1.268 . S
O104 Sc88 2.105 . S
O104 C96 1.268 . S
O105 Sc89 2.105 . S
O105 C95 1.268 . S
O106 Sc90 2.105 . S
O106 C97 1.268 . S
O107 Sc88 2.105 . S
O107 C93 1.268 . S
O108 Sc90 2.105 . S
O108 C92 1.268 . S
O109 Sc89 2.105 . S
O109 C94 1.268 . S
Sc110 O113 2.025 . S
Sc110 O120 2.105 . S
Sc110 O123 2.105 . S
Sc110 O126 2.105 . S
Sc110 O129 2.105 . S
Sc111 O113 2.025 . S
Sc111 O121 2.105 . S
Sc111 O125 2.105 . S
Sc111 O127 2.105 . S
Sc111 O131 2.105 . S
Sc112 O113 2.025 . S
Sc112 O122 2.105 . S
Sc112 O124 2.105 . S
Sc112 O128 2.105 . S
Sc112 O130 2.105 . S
O113 Sc110 2.025 . S
O113 Sc111 2.025 . S
O113 Sc112 2.025 . S
C114 O120 1.268 1_565 S
C114 O130 1.268 1_565 S
C115 O121 1.268 . S
C115 O129 1.268 . S
C116 O122 1.268 . S
C116 O131 1.268 . S
C117 O123 1.268 . S
C117 O127 1.268 . S
C118 O124 1.268 . S
C118 O126 1.268 . S
C119 O125 1.268 . S
C119 O128 1.268 . S
O120 Sc110 2.105 . S
O120 C114 1.268 1_545 S
O121 Sc111 2.105 . S
O121 C115 1.268 . S
O122 Sc112 2.105 . S
O122 C116 1.268 . S
O123 Sc110 2.105 . S
O123 C117 1.268 . S
O124 Sc112 2.105 . S
O124 C118 1.268 . S
O125 Sc111 2.105 . S
O125 C119 1.268 . S
O126 Sc110 2.105 . S
O126 C118 1.268 . S
O127 Sc111 2.105 . S
O127 C117 1.268 . S
O128 Sc112 2.105 . S
O128 C119 1.268 . S
O129 Sc110 2.105 . S
O129 C115 1.268 . S
O130 Sc112 2.105 . S
O130 C114 1.268 1_545 S
O131 Sc111 2.105 . S
O131 C116 1.268 . S
Sc132 O135 2.025 . S
Sc132 O142 2.105 . S
Sc132 O145 2.105 . S
Sc132 O148 2.105 . S
Sc132 O151 2.105 . S
Sc133 O135 2.025 . S
Sc133 O143 2.105 . S
Sc133 O147 2.105 . S
Sc133 O149 2.105 . S
Sc133 O153 2.105 . S
Sc134 O135 2.025 . S
Sc134 O144 2.105 . S
Sc134 O146 2.105 . S
Sc134 O150 2.105 . S
Sc134 O152 2.105 . S
O135 Sc132 2.025 . S
O135 Sc133 2.025 . S
O135 Sc134 2.025 . S
C136 O142 1.268 . S
C136 O152 1.268 . S
C137 O143 1.268 . S
C137 O151 1.268 . S
C138 O144 1.268 . S
C138 O153 1.268 . S
C139 O145 1.268 . S
C139 O149 1.268 . S
C140 O146 1.268 . S
C140 O148 1.268 . S
C141 O147 1.268 . S
C141 O150 1.268 . S
O142 Sc132 2.105 . S
O142 C136 1.268 . S
O143 Sc133 2.105 . S
O143 C137 1.268 . S
O144 Sc134 2.105 . S
O144 C138 1.268 . S
O145 Sc132 2.105 . S
O145 C139 1.268 . S
O146 Sc134 2.105 . S
O146 C140 1.268 . S
O147 Sc133 2.105 . S
O147 C141 1.268 . S
O148 Sc132 2.105 . S
O148 C140 1.268 . S
O149 Sc133 2.105 . S
O149 C139 1.268 . S
O150 Sc134 2.105 . S
O150 C141 1.268 . S
O151 Sc132 2.105 . S
O151 C137 1.268 . S
O152 Sc134 2.105 . S
O152 C136 1.268 . S
O153 Sc133 2.105 . S
O153 C138 1.268 . S
Sc154 O157 2.025 . S
Sc154 O164 2.105 . S
Sc154 O167 2.105 . S
Sc154 O170 2.105 . S
Sc154 O173 2.105 . S
Sc155 O157 2.025 . S
Sc155 O165 2.105 . S
Sc155 O169 2.105 . S
Sc155 O171 2.105 . S
Sc155 O175 2.105 . S
Sc156 O157 2.025 . S
Sc156 O166 2.105 . S
Sc156 O168 2.105 . S
Sc156 O172 2.105 . S
Sc156 O174 2.105 . S
O157 Sc154 2.025 . S
O157 Sc155 2.025 . S
O157 Sc156 2.025 . S
C158 O164 1.268 . S
C158 O174 1.268 . S
C159 O165 1.268 . S
C159 O173 1.268 . S
C160 O166 1.268 . S
C160 O175 1.268 . S
C161 O167 1.268 . S
C161 O171 1.268 . S
C162 O168 1.268 . S
C162 O170 1.268 . S
C163 O169 1.268 . S
C163 O172 1.268 . S
O164 Sc154 2.105 . S
O164 C158 1.268 . S
O165 Sc155 2.105 . S
O165 C159 1.268 . S
O166 Sc156 2.105 . S
O166 C160 1.268 . S
O167 Sc154 2.105 . S
O167 C161 1.268 . S
O168 Sc156 2.105 . S
O168 C162 1.268 . S
O169 Sc155 2.105 . S
O169 C163 1.268 . S
O170 Sc154 2.105 . S
O170 C162 1.268 . S
O171 Sc155 2.105 . S
O171 C161 1.268 . S
O172 Sc156 2.105 . S
O172 C163 1.268 . S
O173 Sc154 2.105 . S
O173 C159 1.268 . S
O174 Sc156 2.105 . S
O174 C158 1.268 . S
O175 Sc155 2.105 . S
O175 C160 1.268 . S
Sc176 O179 2.025 . S
Sc176 O186 2.105 . S
Sc176 O189 2.105 . S
Sc176 O192 2.105 . S
Sc176 O195 2.105 . S
Sc177 O179 2.025 . S
Sc177 O187 2.105 . S
Sc177 O191 2.105 . S
Sc177 O193 2.105 . S
Sc177 O197 2.105 . S
Sc178 O179 2.025 . S
Sc178 O188 2.105 . S
Sc178 O190 2.105 . S
Sc178 O194 2.105 . S
Sc178 O196 2.105 . S
O179 Sc176 2.025 . S
O179 Sc177 2.025 . S
O179 Sc178 2.025 . S
C180 O186 1.268 . S
C180 O196 1.268 . S
C181 O187 1.268 . S
C181 O195 1.268 . S
C182 O188 1.268 . S
C182 O197 1.268 . S
C183 O189 1.268 . S
C183 O193 1.268 . S
C184 O190 1.268 . S
C184 O192 1.268 . S
C185 O191 1.268 . S
C185 O194 1.268 . S
O186 Sc176 2.105 . S
O186 C180 1.268 . S
O187 Sc177 2.105 . S
O187 C181 1.268 . S
O188 Sc178 2.105 . S
O188 C182 1.268 . S
O189 Sc176 2.105 . S
O189 C183 1.268 . S
O190 Sc178 2.105 . S
O190 C184 1.268 . S
O191 Sc177 2.105 . S
O191 C185 1.268 . S
O192 Sc176 2.105 . S
O192 C184 1.268 . S
O193 Sc177 2.105 . S
O193 C183 1.268 . S
O194 Sc178 2.105 . S
O194 C185 1.268 . S
O195 Sc176 2.105 . S
O195 C181 1.268 . S
O196 Sc178 2.105 . S
O196 C180 1.268 . S
O197 Sc177 2.105 . S
O197 C182 1.268 . S
Sc198 O201 2.025 . S
Sc198 O208 2.105 . S
Sc198 O211 2.105 . S
Sc198 O214 2.105 . S
Sc198 O217 2.105 . S
Sc199 O201 2.025 . S
Sc199 O209 2.105 . S
Sc199 O213 2.105 . S
Sc199 O215 2.105 . S
Sc199 O219 2.105 . S
Sc200 O201 2.025 . S
Sc200 O210 2.105 . S
Sc200 O212 2.105 . S
Sc200 O216 2.105 . S
Sc200 O218 2.105 . S
O201 Sc198 2.025 . S
O201 Sc199 2.025 . S
O201 Sc200 2.025 . S
C202 O208 1.268 . S
C202 O218 1.268 . S
C203 O209 1.268 . S
C203 O217 1.268 . S
C204 O210 1.268 . S
C204 O219 1.268 . S
C205 O211 1.268 . S
C205 O215 1.268 . S
C206 O212 1.268 . S
C206 O214 1.268 . S
C207 O213 1.268 . S
C207 O216 1.268 . S
O208 Sc198 2.105 . S
O208 C202 1.268 . S
O209 Sc199 2.105 . S
O209 C203 1.268 . S
O210 Sc200 2.105 . S
O210 C204 1.268 . S
O211 Sc198 2.105 . S
O211 C205 1.268 . S
O212 Sc200 2.105 . S
O212 C206 1.268 . S
O213 Sc199 2.105 . S
O213 C207 1.268 . S
O214 Sc198 2.105 . S
O214 C206 1.268 . S
O215 Sc199 2.105 . S
O215 C205 1.268 . S
O216 Sc200 2.105 . S
O216 C207 1.268 . S
O217 Sc198 2.105 . S
O217 C203 1.268 . S
O218 Sc200 2.105 . S
O218 C202 1.268 . S
O219 Sc199 2.105 . S
O219 C204 1.268 . S
Sc220 O223 2.025 . S
Sc220 O230 2.105 . S
Sc220 O233 2.105 . S
Sc220 O236 2.105 . S
Sc220 O239 2.105 . S
Sc221 O223 2.025 . S
Sc221 O231 2.105 . S
Sc221 O235 2.105 . S
Sc221 O237 2.105 . S
Sc221 O241 2.105 . S
Sc222 O223 2.025 . S
Sc222 O232 2.105 . S
Sc222 O234 2.105 . S
Sc222 O238 2.105 . S
Sc222 O240 2.105 . S
O223 Sc220 2.025 . S
O223 Sc221 2.025 . S
O223 Sc222 2.025 . S
C224 O230 1.268 . S
C224 O240 1.268 . S
C225 O231 1.268 . S
C225 O239 1.268 . S
C226 O232 1.268 . S
C226 O241 1.268 . S
C227 O233 1.268 . S
C227 O237 1.268 . S
C228 O234 1.268 . S
C228 O236 1.268 . S
C229 O235 1.268 . S
C229 O238 1.268 . S
O230 Sc220 2.105 . S
O230 C224 1.268 . S
O231 Sc221 2.105 . S
O231 C225 1.268 . S
O232 Sc222 2.105 . S
O232 C226 1.268 . S
O233 Sc220 2.105 . S
O233 C227 1.268 . S
O234 Sc222 2.105 . S
O234 C228 1.268 . S
O235 Sc221 2.105 . S
O235 C229 1.268 . S
O236 Sc220 2.105 . S
O236 C228 1.268 . S
O237 Sc221 2.105 . S
O237 C227 1.268 . S
O238 Sc222 2.105 . S
O238 C229 1.268 . S
O239 Sc220 2.105 . S
O239 C225 1.268 . S
O240 Sc222 2.105 . S
O240 C224 1.268 . S
O241 Sc221 2.105 . S
O241 C226 1.268 . S
Sc242 O245 2.025 . S
Sc242 O252 2.105 . S
Sc242 O255 2.105 . S
Sc242 O258 2.105 . S
Sc242 O261 2.105 . S
Sc243 O245 2.025 . S
Sc243 O253 2.105 . S
Sc243 O257 2.105 . S
Sc243 O259 2.105 . S
Sc243 O263 2.105 . S
Sc244 O245 2.025 . S
Sc244 O254 2.105 . S
Sc244 O256 2.105 . S
Sc244 O260 2.105 . S
Sc244 O262 2.105 . S
O245 Sc242 2.025 . S
O245 Sc243 2.025 . S
O245 Sc244 2.025 . S
C246 O252 1.268 . S
C246 O262 1.268 . S
C247 O253 1.268 . S
C247 O261 1.268 . S
C248 O254 1.268 . S
C248 O263 1.268 . S
C249 O255 1.268 . S
C249 O259 1.268 . S
C250 O256 1.268 . S
C250 O258 1.268 . S
C251 O257 1.268 . S
C251 O260 1.268 . S
O252 Sc242 2.105 . S
O252 C246 1.268 . S
O253 Sc243 2.105 . S
O253 C247 1.268 . S
O254 Sc244 2.105 . S
O254 C248 1.268 . S
O255 Sc242 2.105 . S
O255 C249 1.268 . S
O256 Sc244 2.105 . S
O256 C250 1.268 . S
O257 Sc243 2.105 . S
O257 C251 1.268 . S
O258 Sc242 2.105 . S
O258 C250 1.268 . S
O259 Sc243 2.105 . S
O259 C249 1.268 . S
O260 Sc244 2.105 . S
O260 C251 1.268 . S
O261 Sc242 2.105 . S
O261 C247 1.268 . S
O262 Sc244 2.105 . S
O262 C246 1.268 . S
O263 Sc243 2.105 . S
O263 C248 1.268 . S
Sc264 O267 2.025 . S
Sc264 O274 2.105 . S
Sc264 O277 2.105 . S
Sc264 O280 2.105 . S
Sc264 O283 2.105 . S
Sc265 O267 2.025 . S
Sc265 O275 2.105 . S
Sc265 O279 2.105 . S
Sc265 O281 2.105 . S
Sc265 O285 2.105 . S
Sc266 O267 2.025 . S
Sc266 O276 2.105 . S
Sc266 O278 2.105 . S
Sc266 O282 2.105 . S
Sc266 O284 2.105 . S
O267 Sc264 2.025 . S
O267 Sc265 2.025 . S
O267 Sc266 2.025 . S
C268 O274 1.271 . S
C268 O284 1.268 . S
C269 O275 1.268 . S
C269 O283 1.268 . S
C270 O276 1.268 . S
C270 O285 1.268 . S
C271 O277 1.268 . S
C271 O281 1.268 . S
C272 O278 1.268 . S
C272 O280 1.268 . S
C273 O279 1.268 . S
C273 O282 1.268 . S
O274 Sc264 2.105 . S
O274 C268 1.271 . S
O275 Sc265 2.105 . S
O275 C269 1.268 . S
O276 Sc266 2.105 . S
O276 C270 1.268 . S
O277 Sc264 2.105 . S
O277 C271 1.268 . S
O278 Sc266 2.105 . S
O278 C272 1.268 . S
O279 Sc265 2.105 . S
O279 C273 1.268 . S
O280 Sc264 2.105 . S
O280 C272 1.268 . S
O281 Sc265 2.105 . S
O281 C271 1.268 . S
O282 Sc266 2.105 . S
O282 C273 1.268 . S
O283 Sc264 2.105 . S
O283 C269 1.268 . S
O284 Sc266 2.105 . S
O284 C268 1.268 . S
O285 Sc265 2.105 . S
O285 C270 1.268 . S
Sc286 O289 2.025 . S
Sc286 O296 2.105 . S
Sc286 O299 2.105 . S
Sc286 O302 2.105 . S
Sc286 O305 2.105 . S
Sc287 O289 2.025 . S
Sc287 O297 2.105 . S
Sc287 O301 2.105 . S
Sc287 O303 2.105 . S
Sc287 O307 2.105 . S
Sc288 O289 2.025 . S
Sc288 O298 2.105 . S
Sc288 O300 2.105 . S
Sc288 O304 2.105 . S
Sc288 O306 2.105 . S
O289 Sc286 2.025 . S
O289 Sc287 2.025 . S
O289 Sc288 2.025 . S
C290 O296 1.268 . S
C290 O306 1.268 . S
C291 O297 1.268 . S
C291 O305 1.268 . S
C292 O298 1.268 . S
C292 O307 1.268 . S
C293 O299 1.268 . S
C293 O303 1.268 . S
C294 O300 1.268 . S
C294 O302 1.268 . S
C295 O301 1.268 . S
C295 O304 1.268 . S
O296 Sc286 2.105 . S
O296 C290 1.268 . S
O297 Sc287 2.105 . S
O297 C291 1.268 . S
O298 Sc288 2.105 . S
O298 C292 1.268 . S
O299 Sc286 2.105 . S
O299 C293 1.268 . S
O300 Sc288 2.105 . S
O300 C294 1.268 . S
O301 Sc287 2.105 . S
O301 C295 1.268 . S
O302 Sc286 2.105 . S
O302 C294 1.268 . S
O303 Sc287 2.105 . S
O303 C293 1.268 . S
O304 Sc288 2.105 . S
O304 C295 1.268 . S
O305 Sc286 2.105 . S
O305 C291 1.268 . S
O306 Sc288 2.105 . S
O306 C290 1.268 . S
O307 Sc287 2.105 . S
O307 C292 1.268 . S
Sc308 O311 2.025 . S
Sc308 O318 2.105 . S
Sc308 O321 2.105 . S
Sc308 O324 2.105 . S
Sc308 O327 2.105 . S
Sc309 O311 2.025 . S
Sc309 O319 2.105 . S
Sc309 O323 2.105 . S
Sc309 O325 2.105 . S
Sc309 O329 2.105 . S
Sc310 O311 2.025 . S
Sc310 O320 2.105 . S
Sc310 O322 2.105 . S
Sc310 O326 2.105 . S
Sc310 O328 2.105 . S
O311 Sc308 2.025 . S
O311 Sc309 2.025 . S
O311 Sc310 2.025 . S
C312 O318 1.268 . S
C312 O328 1.268 . S
C313 O319 1.268 . S
C313 O327 1.268 . S
C314 O320 1.268 . S
C314 O329 1.268 . S
C315 O321 1.268 . S
C315 O325 1.268 . S
C316 O322 1.268 . S
C316 O324 1.268 . S
C317 O323 1.268 . S
C317 O326 1.268 . S
O318 Sc308 2.105 . S
O318 C312 1.268 . S
O319 Sc309 2.105 . S
O319 C313 1.268 . S
O320 Sc310 2.105 . S
O320 C314 1.268 . S
O321 Sc308 2.105 . S
O321 C315 1.268 . S
O322 Sc310 2.105 . S
O322 C316 1.268 . S
O323 Sc309 2.105 . S
O323 C317 1.268 . S
O324 Sc308 2.105 . S
O324 C316 1.268 . S
O325 Sc309 2.105 . S
O325 C315 1.268 . S
O326 Sc310 2.105 . S
O326 C317 1.268 . S
O327 Sc308 2.105 . S
O327 C313 1.268 . S
O328 Sc310 2.105 . S
O328 C312 1.268 . S
O329 Sc309 2.105 . S
O329 C314 1.268 . S
Sc330 O333 2.025 . S
Sc330 O340 2.105 . S
Sc330 O343 2.105 . S
Sc330 O346 2.105 . S
Sc330 O349 2.105 . S
Sc331 O333 2.025 . S
Sc331 O341 2.105 . S
Sc331 O345 2.105 . S
Sc331 O347 2.105 . S
Sc331 O351 2.105 . S
Sc332 O333 2.025 . S
Sc332 O342 2.105 . S
Sc332 O344 2.105 . S
Sc332 O348 2.105 . S
Sc332 O350 2.105 . S
O333 Sc330 2.025 . S
O333 Sc331 2.025 . S
O333 Sc332 2.025 . S
C334 O340 1.268 . S
C334 O350 1.268 . S
C335 O341 1.268 . S
C335 O349 1.268 . S
C336 O342 1.268 . S
C336 O351 1.268 . S
C337 O343 1.268 . S
C337 O347 1.268 . S
C338 O344 1.268 . S
C338 O346 1.268 . S
C339 O345 1.268 . S
C339 O348 1.268 . S
O340 Sc330 2.105 . S
O340 C334 1.268 . S
O341 Sc331 2.105 . S
O341 C335 1.268 . S
O342 Sc332 2.105 . S
O342 C336 1.268 . S
O343 Sc330 2.105 . S
O343 C337 1.268 . S
O344 Sc332 2.105 . S
O344 C338 1.268 . S
O345 Sc331 2.105 . S
O345 C339 1.268 . S
O346 Sc330 2.105 . S
O346 C338 1.268 . S
O347 Sc331 2.105 . S
O347 C337 1.268 . S
O348 Sc332 2.105 . S
O348 C339 1.268 . S
O349 Sc330 2.105 . S
O349 C335 1.268 . S
O350 Sc332 2.105 . S
O350 C334 1.268 . S
O351 Sc331 2.105 . S
O351 C336 1.268 . S
Sc352 O355 2.025 . S
Sc352 O362 2.105 . S
Sc352 O365 2.105 . S
Sc352 O368 2.105 . S
Sc352 O371 2.105 . S
Sc353 O355 2.025 . S
Sc353 O363 2.105 . S
Sc353 O367 2.105 . S
Sc353 O369 2.105 . S
Sc353 O373 2.105 . S
Sc354 O355 2.025 . S
Sc354 O364 2.105 . S
Sc354 O366 2.105 . S
Sc354 O370 2.105 . S
Sc354 O372 2.108 . S
O355 Sc352 2.025 . S
O355 Sc353 2.025 . S
O355 Sc354 2.025 . S
C356 O362 1.268 . S
C356 O372 1.267 . S
C357 O363 1.268 . S
C357 O371 1.268 . S
C358 O364 1.268 . S
C358 O373 1.268 . S
C359 O365 1.268 . S
C359 O369 1.268 . S
C360 O366 1.268 . S
C360 O368 1.268 . S
C361 O367 1.268 . S
C361 O370 1.268 . S
O362 Sc352 2.105 . S
O362 C356 1.268 . S
O363 Sc353 2.105 . S
O363 C357 1.268 . S
O364 Sc354 2.105 . S
O364 C358 1.268 . S
O365 Sc352 2.105 . S
O365 C359 1.268 . S
O366 Sc354 2.105 . S
O366 C360 1.268 . S
O367 Sc353 2.105 . S
O367 C361 1.268 . S
O368 Sc352 2.105 . S
O368 C360 1.268 . S
O369 Sc353 2.105 . S
O369 C359 1.268 . S
O370 Sc354 2.105 . S
O370 C361 1.268 . S
O371 Sc352 2.105 . S
O371 C357 1.268 . S
O372 Sc354 2.108 . S
O372 C356 1.267 . S
O373 Sc353 2.105 . S
O373 C358 1.268 . S
Sc374 O377 2.025 . S
Sc374 O384 2.105 . S
Sc374 O387 2.105 . S
Sc374 O390 2.105 . S
Sc374 O393 2.105 . S
Sc375 O377 2.025 . S
Sc375 O385 2.105 . S
Sc375 O389 2.105 . S
Sc375 O391 2.105 . S
Sc375 O395 2.105 . S
Sc376 O377 2.025 . S
Sc376 O386 2.105 . S
Sc376 O388 2.105 . S
Sc376 O392 2.105 . S
Sc376 O394 2.105 . S
O377 Sc374 2.025 . S
O377 Sc375 2.025 . S
O377 Sc376 2.025 . S
C378 O384 1.268 . S
C378 O394 1.268 . S
C379 O385 1.268 . S
C379 O393 1.268 . S
C380 O386 1.268 . S
C380 O395 1.268 . S
C381 O387 1.268 . S
C381 O391 1.268 . S
C382 O388 1.268 . S
C382 O390 1.268 . S
C383 O389 1.268 . S
C383 O392 1.268 . S
O384 Sc374 2.105 . S
O384 C378 1.268 . S
O385 Sc375 2.105 . S
O385 C379 1.268 . S
O386 Sc376 2.105 . S
O386 C380 1.268 . S
O387 Sc374 2.105 . S
O387 C381 1.268 . S
O388 Sc376 2.105 . S
O388 C382 1.268 . S
O389 Sc375 2.105 . S
O389 C383 1.268 . S
O390 Sc374 2.105 . S
O390 C382 1.268 . S
O391 Sc375 2.105 . S
O391 C381 1.268 . S
O392 Sc376 2.105 . S
O392 C383 1.268 . S
O393 Sc374 2.105 . S
O393 C379 1.268 . S
O394 Sc376 2.105 . S
O394 C378 1.268 . S
O395 Sc375 2.105 . S
O395 C380 1.268 . S
H396 C402 0.930 . S
H397 C406 0.930 . S
H398 C411 0.929 . S
H399 C409 0.929 . S
H400 C404 0.929 . S
H401 C410 0.929 . S
C402 H396 0.930 . S
C402 C403 1.367 . S
C402 C410 1.378 . S
C403 C402 1.367 . S
C403 C411 1.433 . S
C404 H400 0.929 . S
C404 C406 1.378 . S
C404 C408 1.350 . S
C405 C408 1.463 . S
C405 C410 1.350 . S
C405 N413 1.427 . S
C406 H397 0.930 . S
C406 C404 1.378 . S
C406 C407 1.367 . S
C407 C406 1.367 . S
C407 C409 1.433 . S
C408 C404 1.350 . S
C408 C405 1.463 . S
C408 N412 1.427 . S
C409 H399 0.929 . S
C409 C407 1.433 . S
C409 N412 1.384 . S
C410 H401 0.929 . S
C410 C402 1.378 . S
C410 C405 1.350 . S
C411 H398 0.929 . S
C411 C403 1.433 . S
C411 N413 1.384 . S
N412 C408 1.427 . S
N412 C409 1.384 . S
N413 C405 1.427 . S
N413 C411 1.384 . S
H414 C420 0.930 1_455 S
H415 C424 0.930 . S
H416 C429 0.929 . S
H417 C427 0.929 . S
H418 C422 0.929 . S
H419 C428 0.929 . S
C420 H414 0.930 1_655 S
C420 C421 1.367 . S
C420 C428 1.378 . S
C421 C420 1.367 . S
C421 C429 1.433 . S
C422 H418 0.929 . S
C422 C424 1.378 1_545 S
C422 C426 1.350 . S
C423 C426 1.463 . S
C423 C428 1.350 . S
C423 N431 1.427 . S
C424 H415 0.930 . S
C424 C422 1.378 1_565 S
C424 C425 1.367 . S
C425 C424 1.367 . S
C425 C427 1.433 . S
C426 C422 1.350 . S
C426 C423 1.463 . S
C426 N430 1.427 . S
C427 H417 0.929 . S
C427 C425 1.433 . S
C427 N430 1.384 1_565 S
C428 H419 0.929 . S
C428 C420 1.378 . S
C428 C423 1.350 . S
C429 H416 0.929 . S
C429 C421 1.433 . S
C429 N431 1.384 . S
N430 C426 1.427 . S
N430 C427 1.384 1_545 S
N431 C423 1.427 . S
N431 C429 1.384 . S
H432 C438 0.930 . S
H433 C442 0.931 1_545 S
H434 C447 0.929 . S
H435 C445 0.929 . S
H436 C440 0.929 . S
H437 C446 0.929 . S
C438 H432 0.930 . S
C438 C439 1.367 . S
C438 C446 1.378 1_655 S
C439 C438 1.367 . S
C439 C447 1.433 . S
C440 H436 0.929 . S
C440 C442 1.378 . S
C440 C444 1.350 . S
C441 C444 1.463 . S
C441 C446 1.350 . S
C441 N449 1.427 . S
C442 H433 0.931 1_565 S
C442 C440 1.378 . S
C442 C443 1.366 . S
C443 C442 1.366 . S
C443 C445 1.433 . S
C444 C440 1.350 . S
C444 C441 1.463 . S
C444 N448 1.427 . S
C445 H435 0.929 . S
C445 C443 1.433 . S
C445 N448 1.384 . S
C446 H437 0.929 . S
C446 C438 1.378 1_455 S
C446 C441 1.350 . S
C447 H434 0.929 . S
C447 C439 1.433 . S
C447 N449 1.384 1_655 S
N448 C444 1.427 . S
N448 C445 1.384 . S
N449 C441 1.427 . S
N449 C447 1.384 1_455 S
H450 C456 0.930 . S
H451 C460 0.936 . S
H452 C465 0.914 1_455 S
H453 C463 0.929 . S
H454 C458 0.929 . S
H455 C464 0.929 . S
C456 H450 0.930 . S
C456 C457 1.367 . S
C456 C464 1.378 . S
C457 C456 1.367 . S
C457 C465 1.433 . S
C458 H454 0.929 . S
C458 C460 1.378 . S
C458 C462 1.350 . S
C459 C462 1.463 . S
C459 C464 1.350 . S
C459 N467 1.427 . S
C460 H451 0.936 . S
C460 C458 1.378 . S
C460 C461 1.367 . S
C461 C460 1.367 . S
C461 C463 1.433 . S
C462 C458 1.350 . S
C462 C459 1.463 . S
C462 N466 1.427 . S
C463 H453 0.929 . S
C463 C461 1.433 . S
C463 N466 1.384 . S
C464 H455 0.929 . S
C464 C456 1.378 . S
C464 C459 1.350 . S
C465 H452 0.914 1_655 S
C465 C457 1.433 . S
C465 N467 1.384 . S
N466 C462 1.427 . S
N466 C463 1.384 . S
N467 C459 1.427 . S
N467 C465 1.384 . S
H468 C474 0.936 . S
H469 C478 0.930 . S
H470 C483 0.929 . S
H471 C481 0.929 . S
H472 C476 0.929 . S
H473 C482 0.929 . S
C474 H468 0.936 . S
C474 C475 1.389 . S
C474 C482 1.351 1_565 S
C475 C474 1.389 . S
C475 C483 1.433 . S
C476 H472 0.929 . S
C476 C478 1.378 . S
C476 C480 1.350 . S
C477 C480 1.463 . S
C477 C482 1.350 . S
C477 N485 1.427 . S
C478 H469 0.930 . S
C478 C476 1.378 . S
C478 C479 1.367 . S
C479 C478 1.367 . S
C479 C481 1.433 . S
C480 C476 1.350 . S
C480 C477 1.463 . S
C480 N484 1.427 . S
C481 H471 0.929 . S
C481 C479 1.433 . S
C481 N484 1.384 . S
C482 H473 0.929 . S
C482 C474 1.351 1_545 S
C482 C477 1.350 . S
C483 H470 0.929 . S
C483 C475 1.433 . S
C483 N485 1.384 1_565 S
N484 C480 1.427 . S
N484 C481 1.384 . S
N485 C477 1.427 . S
N485 C483 1.384 1_545 S
H486 C492 0.930 . S
H487 C496 0.930 . S
H488 C501 0.929 . S
H489 C499 0.929 . S
H490 C494 0.929 . S
H491 C500 0.929 . S
C492 H486 0.930 . S
C492 C493 1.367 . S
C492 C500 1.378 . S
C493 C492 1.367 . S
C493 C501 1.433 . S
C494 H490 0.929 . S
C494 C496 1.378 1_455 S
C494 C498 1.350 . S
C495 C498 1.463 . S
C495 C500 1.350 . S
C495 N503 1.427 . S
C496 H487 0.930 . S
C496 C494 1.378 1_655 S
C496 C497 1.367 . S
C497 C496 1.367 . S
C497 C499 1.433 . S
C498 C494 1.350 . S
C498 C495 1.463 . S
C498 N502 1.427 . S
C499 H489 0.929 . S
C499 C497 1.433 . S
C499 N502 1.384 1_655 S
C500 H491 0.929 . S
C500 C492 1.378 . S
C500 C495 1.350 . S
C501 H488 0.929 . S
C501 C493 1.433 . S
C501 N503 1.384 . S
N502 C498 1.427 . S
N502 C499 1.384 1_455 S
N503 C495 1.427 . S
N503 C501 1.384 . S
H504 C510 0.930 . S
H505 C514 0.930 . S
H506 C519 0.929 . S
H507 C517 0.929 . S
H508 C512 0.929 . S
H509 C518 0.929 . S
C510 H504 0.930 . S
C510 C511 1.367 . S
C510 C518 1.378 . S
C511 C510 1.367 . S
C511 C519 1.433 . S
C512 H508 0.929 . S
C512 C514 1.378 . S
C512 C516 1.350 . S
C513 C516 1.463 . S
C513 C518 1.350 . S
C513 N521 1.427 . S
C514 H505 0.930 . S
C514 C512 1.378 . S
C514 C515 1.367 . S
C515 C514 1.367 . S
C515 C517 1.433 . S
C516 C512 1.350 . S
C516 C513 1.463 . S
C516 N520 1.427 . S
C517 H507 0.929 . S
C517 C515 1.433 . S
C517 N520 1.384 . S
C518 H509 0.929 . S
C518 C510 1.378 . S
C518 C513 1.350 . S
C519 H506 0.929 . S
C519 C511 1.433 . S
C519 N521 1.384 . S
N520 C516 1.427 . S
N520 C517 1.384 . S
N521 C513 1.427 . S
N521 C519 1.384 . S
H522 C528 0.930 . S
H523 C532 0.930 . S
H524 C537 0.929 . S
H525 C535 0.929 . S
H526 C530 0.929 . S
H527 C536 0.929 . S
C528 H522 0.930 . S
C528 C529 1.367 . S
C528 C536 1.378 . S
C529 C528 1.367 . S
C529 C537 1.433 . S
C530 H526 0.929 . S
C530 C532 1.378 . S
C530 C534 1.350 . S
C531 C534 1.463 . S
C531 C536 1.350 . S
C531 N539 1.427 . S
C532 H523 0.930 . S
C532 C530 1.378 . S
C532 C533 1.367 . S
C533 C532 1.367 . S
C533 C535 1.433 . S
C534 C530 1.350 . S
C534 C531 1.463 . S
C534 N538 1.427 . S
C535 H525 0.929 . S
C535 C533 1.433 . S
C535 N538 1.384 . S
C536 H527 0.929 . S
C536 C528 1.378 . S
C536 C531 1.350 . S
C537 H524 0.929 . S
C537 C529 1.433 . S
C537 N539 1.384 . S
N538 C534 1.427 . S
N538 C535 1.384 . S
N539 C531 1.427 . S
N539 C537 1.384 . S
H540 C546 0.930 . S
H541 C550 0.930 . S
H542 C555 0.929 . S
H543 C553 0.929 . S
H544 C548 0.929 . S
H545 C554 0.929 . S
C546 H540 0.930 . S
C546 C547 1.367 . S
C546 C554 1.378 . S
C547 C546 1.367 . S
C547 C555 1.433 . S
C548 H544 0.929 . S
C548 C550 1.378 . S
C548 C552 1.350 . S
C549 C552 1.463 . S
C549 C554 1.350 . S
C549 N557 1.427 . S
C550 H541 0.930 . S
C550 C548 1.378 . S
C550 C551 1.367 . S
C551 C550 1.367 . S
C551 C553 1.433 . S
C552 C548 1.350 . S
C552 C549 1.463 . S
C552 N556 1.427 . S
C553 H543 0.929 . S
C553 C551 1.433 . S
C553 N556 1.384 . S
C554 H545 0.929 . S
C554 C546 1.378 . S
C554 C549 1.350 . S
C555 H542 0.929 . S
C555 C547 1.433 . S
C555 N557 1.384 . S
N556 C552 1.427 . S
N556 C553 1.384 . S
N557 C549 1.427 . S
N557 C555 1.384 . S
H558 C564 0.930 . S
H559 C568 0.930 . S
H560 C573 0.929 . S
H561 C571 0.929 . S
H562 C566 0.929 . S
H563 C572 0.929 . S
C564 H558 0.930 . S
C564 C565 1.367 . S
C564 C572 1.378 . S
C565 C564 1.367 . S
C565 C573 1.433 . S
C566 H562 0.929 . S
C566 C568 1.378 . S
C566 C570 1.350 . S
C567 C570 1.463 . S
C567 C572 1.350 . S
C567 N575 1.427 . S
C568 H559 0.930 . S
C568 C566 1.378 . S
C568 C569 1.367 . S
C569 C568 1.367 . S
C569 C571 1.433 . S
C570 C566 1.350 . S
C570 C567 1.463 . S
C570 N574 1.427 . S
C571 H561 0.929 . S
C571 C569 1.433 . S
C571 N574 1.384 . S
C572 H563 0.929 . S
C572 C564 1.378 . S
C572 C567 1.350 . S
C573 H560 0.929 . S
C573 C565 1.433 . S
C573 N575 1.384 . S
N574 C570 1.427 . S
N574 C571 1.384 . S
N575 C567 1.427 . S
N575 C573 1.384 . S
H576 C582 0.930 . S
H577 C586 0.930 . S
H578 C591 0.929 . S
H579 C589 0.929 . S
H580 C584 0.929 . S
H581 C590 0.929 . S
C582 H576 0.930 . S
C582 C583 1.367 . S
C582 C590 1.378 . S
C583 C582 1.367 . S
C583 C591 1.433 . S
C584 H580 0.929 . S
C584 C586 1.378 . S
C584 C588 1.350 . S
C585 C588 1.463 . S
C585 C590 1.350 . S
C585 N593 1.427 . S
C586 H577 0.930 . S
C586 C584 1.378 . S
C586 C587 1.367 . S
C587 C586 1.367 . S
C587 C589 1.433 . S
C588 C584 1.350 . S
C588 C585 1.463 . S
C588 N592 1.427 . S
C589 H579 0.929 . S
C589 C587 1.433 . S
C589 N592 1.384 . S
C590 H581 0.929 . S
C590 C582 1.378 . S
C590 C585 1.350 . S
C591 H578 0.929 . S
C591 C583 1.433 . S
C591 N593 1.384 . S
N592 C588 1.427 . S
N592 C589 1.384 . S
N593 C585 1.427 . S
N593 C591 1.384 . S
H594 C600 0.930 . S
H595 C604 0.930 . S
H596 C609 0.929 . S
H597 C607 0.929 . S
H598 C602 0.929 . S
H599 C608 0.929 . S
C600 H594 0.930 . S
C600 C601 1.367 . S
C600 C608 1.378 . S
C601 C600 1.367 . S
C601 C609 1.433 . S
C602 H598 0.929 . S
C602 C604 1.378 . S
C602 C606 1.350 . S
C603 C606 1.463 . S
C603 C608 1.350 . S
C603 N611 1.427 . S
C604 H595 0.930 . S
C604 C602 1.378 . S
C604 C605 1.367 . S
C605 C604 1.367 . S
C605 C607 1.433 . S
C606 C602 1.350 . S
C606 C603 1.463 . S
C606 N610 1.427 . S
C607 H597 0.929 . S
C607 C605 1.433 . S
C607 N610 1.384 . S
C608 H599 0.929 . S
C608 C600 1.378 . S
C608 C603 1.350 . S
C609 H596 0.929 . S
C609 C601 1.433 . S
C609 N611 1.384 . S
N610 C606 1.427 . S
N610 C607 1.384 . S
N611 C603 1.427 . S
N611 C609 1.384 . S
H612 C618 0.930 . S
H613 C622 0.930 . S
H614 C627 0.929 . S
H615 C625 0.929 . S
H616 C620 0.929 . S
H617 C626 0.929 . S
C618 H612 0.930 . S
C618 C619 1.367 . S
C618 C626 1.378 . S
C619 C618 1.367 . S
C619 C627 1.433 . S
C620 H616 0.929 . S
C620 C622 1.378 . S
C620 C624 1.350 . S
C621 C624 1.463 . S
C621 C626 1.350 . S
C621 N629 1.427 . S
C622 H613 0.930 . S
C622 C620 1.378 . S
C622 C623 1.367 . S
C623 C622 1.367 . S
C623 C625 1.433 . S
C624 C620 1.350 . S
C624 C621 1.463 . S
C624 N628 1.427 . S
C625 H615 0.929 . S
C625 C623 1.433 . S
C625 N628 1.384 . S
C626 H617 0.929 . S
C626 C618 1.378 . S
C626 C621 1.350 . S
C627 H614 0.929 . S
C627 C619 1.433 . S
C627 N629 1.384 . S
N628 C624 1.427 . S
N628 C625 1.384 . S
N629 C621 1.427 . S
N629 C627 1.384 . S
H630 C636 0.930 . S
H631 C640 0.930 . S
H632 C645 0.929 . S
H633 C643 0.929 . S
H634 C638 0.929 . S
H635 C644 0.929 . S
C636 H630 0.930 . S
C636 C637 1.367 . S
C636 C644 1.378 . S
C637 C636 1.367 . S
C637 C645 1.433 . S
C638 H634 0.929 . S
C638 C640 1.378 . S
C638 C642 1.350 . S
C639 C642 1.463 . S
C639 C644 1.350 . S
C639 N647 1.427 . S
C640 H631 0.930 . S
C640 C638 1.378 . S
C640 C641 1.367 . S
C641 C640 1.367 . S
C641 C643 1.433 . S
C642 C638 1.350 . S
C642 C639 1.463 . S
C642 N646 1.427 . S
C643 H633 0.929 . S
C643 C641 1.433 . S
C643 N646 1.384 . S
C644 H635 0.929 . S
C644 C636 1.378 . S
C644 C639 1.350 . S
C645 H632 0.929 . S
C645 C637 1.433 . S
C645 N647 1.384 . S
N646 C642 1.427 . S
N646 C643 1.384 . S
N647 C639 1.427 . S
N647 C645 1.384 . S
H648 C654 0.930 . S
H649 C658 0.930 . S
H650 C663 0.929 . S
H651 C661 0.929 . S
H652 C656 0.929 . S
H653 C662 0.929 . S
C654 H648 0.930 . S
C654 C655 1.367 . S
C654 C662 1.378 . S
C655 C654 1.367 . S
C655 C663 1.433 . S
C656 H652 0.929 . S
C656 C658 1.378 . S
C656 C660 1.350 . S
C657 C660 1.463 . S
C657 C662 1.350 . S
C657 N665 1.427 . S
C658 H649 0.930 . S
C658 C656 1.378 . S
C658 C659 1.367 . S
C659 C658 1.367 . S
C659 C661 1.433 . S
C660 C656 1.350 . S
C660 C657 1.463 . S
C660 N664 1.427 . S
C661 H651 0.929 . S
C661 C659 1.433 . S
C661 N664 1.384 . S
C662 H653 0.929 . S
C662 C654 1.378 . S
C662 C657 1.350 . S
C663 H650 0.929 . S
C663 C655 1.433 . S
C663 N665 1.384 . S
N664 C660 1.427 . S
N664 C661 1.384 . S
N665 C657 1.427 . S
N665 C663 1.384 . S
H666 C672 0.930 . S
H667 C676 0.930 . S
H668 C681 0.929 . S
H669 C679 0.929 . S
H670 C674 0.929 . S
H671 C680 0.929 . S
C672 H666 0.930 . S
C672 C673 1.367 . S
C672 C680 1.378 . S
C673 C672 1.367 . S
C673 C681 1.433 . S
C674 H670 0.929 . S
C674 C676 1.378 . S
C674 C678 1.350 . S
C675 C678 1.463 . S
C675 C680 1.350 . S
C675 N683 1.427 . S
C676 H667 0.930 . S
C676 C674 1.378 . S
C676 C677 1.367 . S
C677 C676 1.367 . S
C677 C679 1.433 . S
C678 C674 1.350 . S
C678 C675 1.463 . S
C678 N682 1.427 . S
C679 H669 0.929 . S
C679 C677 1.433 . S
C679 N682 1.384 . S
C680 H671 0.929 . S
C680 C672 1.378 . S
C680 C675 1.350 . S
C681 H668 0.929 . S
C681 C673 1.433 . S
C681 N683 1.384 . S
N682 C678 1.427 . S
N682 C679 1.384 . S
N683 C675 1.427 . S
N683 C681 1.384 . S
H684 C690 0.930 . S
H685 C694 0.930 . S
H686 C699 0.929 . S
H687 C697 0.929 . S
H688 C692 0.929 . S
H689 C698 0.929 . S
C690 H684 0.930 . S
C690 C691 1.367 . S
C690 C698 1.378 . S
C691 C690 1.367 . S
C691 C699 1.433 . S
C692 H688 0.929 . S
C692 C694 1.378 . S
C692 C696 1.350 . S
C693 C696 1.463 . S
C693 C698 1.350 . S
C693 N701 1.427 . S
C694 H685 0.930 . S
C694 C692 1.378 . S
C694 C695 1.367 . S
C695 C694 1.367 . S
C695 C697 1.433 . S
C696 C692 1.350 . S
C696 C693 1.463 . S
C696 N700 1.427 . S
C697 H687 0.929 . S
C697 C695 1.433 . S
C697 N700 1.384 . S
C698 H689 0.929 . S
C698 C690 1.378 . S
C698 C693 1.350 . S
C699 H686 0.929 . S
C699 C691 1.433 . S
C699 N701 1.384 . S
N700 C696 1.427 . S
N700 C697 1.384 . S
N701 C693 1.427 . S
N701 C699 1.384 . S
H702 C708 0.930 . S
H703 C712 0.930 . S
H704 C717 0.929 . S
H705 C715 0.929 . S
H706 C710 0.929 . S
H707 C716 0.929 . S
C708 H702 0.930 . S
C708 C709 1.367 . S
C708 C716 1.378 . S
C709 C708 1.367 . S
C709 C717 1.433 . S
C710 H706 0.929 . S
C710 C712 1.378 . S
C710 C714 1.350 . S
C711 C714 1.463 . S
C711 C716 1.350 . S
C711 N719 1.427 . S
C712 H703 0.930 . S
C712 C710 1.378 . S
C712 C713 1.367 . S
C713 C712 1.367 . S
C713 C715 1.433 . S
C714 C710 1.350 . S
C714 C711 1.463 . S
C714 N718 1.427 . S
C715 H705 0.929 . S
C715 C713 1.433 . S
C715 N718 1.384 . S
C716 H707 0.929 . S
C716 C708 1.378 . S
C716 C711 1.350 . S
C717 H704 0.929 . S
C717 C709 1.433 . S
C717 N719 1.384 . S
N718 C714 1.427 . S
N718 C715 1.384 . S
N719 C711 1.427 . S
N719 C717 1.384 . S
H720 C726 0.930 . S
H721 C730 0.930 . S
H722 C735 0.929 . S
H723 C733 0.929 . S
H724 C728 0.929 . S
H725 C734 0.929 . S
C726 H720 0.930 . S
C726 C727 1.367 . S
C726 C734 1.378 . S
C727 C726 1.367 . S
C727 C735 1.433 . S
C728 H724 0.929 . S
C728 C730 1.378 . S
C728 C732 1.350 . S
C729 C732 1.463 . S
C729 C734 1.350 . S
C729 N737 1.427 . S
C730 H721 0.930 . S
C730 C728 1.378 . S
C730 C731 1.367 . S
C731 C730 1.367 . S
C731 C733 1.433 . S
C732 C728 1.350 . S
C732 C729 1.463 . S
C732 N736 1.427 . S
C733 H723 0.929 . S
C733 C731 1.433 . S
C733 N736 1.384 . S
C734 H725 0.929 . S
C734 C726 1.378 . S
C734 C729 1.350 . S
C735 H722 0.929 . S
C735 C727 1.433 . S
C735 N737 1.384 . S
N736 C732 1.427 . S
N736 C733 1.384 . S
N737 C729 1.427 . S
N737 C735 1.384 . S
H738 C744 0.930 . S
H739 C748 0.930 . S
H740 C753 0.929 . S
H741 C751 0.929 . S
H742 C746 0.929 . S
H743 C752 0.929 . S
C744 H738 0.930 . S
C744 C745 1.367 . S
C744 C752 1.378 . S
C745 C744 1.367 . S
C745 C753 1.433 . S
C746 H742 0.929 . S
C746 C748 1.378 . S
C746 C750 1.350 . S
C747 C750 1.463 . S
C747 C752 1.350 . S
C747 N755 1.427 . S
C748 H739 0.930 . S
C748 C746 1.378 . S
C748 C749 1.367 . S
C749 C748 1.367 . S
C749 C751 1.433 . S
C750 C746 1.350 . S
C750 C747 1.463 . S
C750 N754 1.427 . S
C751 H741 0.929 . S
C751 C749 1.433 . S
C751 N754 1.384 . S
C752 H743 0.929 . S
C752 C744 1.378 . S
C752 C747 1.350 . S
C753 H740 0.929 . S
C753 C745 1.433 . S
C753 N755 1.384 . S
N754 C750 1.427 . S
N754 C751 1.384 . S
N755 C747 1.427 . S
N755 C753 1.384 . S
H756 C762 0.930 . S
H757 C766 0.930 . S
H758 C771 0.929 . S
H759 C769 0.929 . S
H760 C764 0.929 . S
H761 C770 0.929 . S
C762 H756 0.930 . S
C762 C763 1.367 . S
C762 C770 1.378 . S
C763 C762 1.367 . S
C763 C771 1.433 1_545 S
C764 H760 0.929 . S
C764 C766 1.378 . S
C764 C768 1.350 . S
C765 C768 1.463 . S
C765 C770 1.350 1_565 S
C765 N773 1.427 . S
C766 H757 0.930 . S
C766 C764 1.378 . S
C766 C767 1.367 . S
C767 C766 1.367 . S
C767 C769 1.433 . S
C768 C764 1.350 . S
C768 C765 1.463 . S
C768 N772 1.427 . S
C769 H759 0.929 . S
C769 C767 1.433 . S
C769 N772 1.384 . S
C770 H761 0.929 . S
C770 C762 1.378 . S
C770 C765 1.350 1_545 S
C771 H758 0.929 . S
C771 C763 1.433 1_565 S
C771 N773 1.384 . S
N772 C768 1.427 . S
N772 C769 1.384 . S
N773 C765 1.427 . S
N773 C771 1.384 . S
H774 C780 0.930 1_554 S
H775 C784 0.930 . S
H776 C789 0.929 . S
H777 C787 0.929 . S
H778 C782 0.929 . S
H779 C788 0.929 . S
C780 H774 0.930 1_556 S
C780 C781 1.367 . S
C780 C788 1.378 . S
C781 C780 1.367 . S
C781 C789 1.433 . S
C782 H778 0.929 . S
C782 C784 1.378 . S
C782 C786 1.350 . S
C783 C786 1.463 . S
C783 C788 1.350 . S
C783 N791 1.427 . S
C784 H775 0.930 . S
C784 C782 1.378 . S
C784 C785 1.367 . S
C785 C784 1.367 . S
C785 C787 1.433 . S
C786 C782 1.350 . S
C786 C783 1.463 . S
C786 N790 1.427 . S
C787 H777 0.929 . S
C787 C785 1.433 . S
C787 N790 1.384 . S
C788 H779 0.929 . S
C788 C780 1.378 . S
C788 C783 1.350 . S
C789 H776 0.929 . S
C789 C781 1.433 . S
C789 N791 1.384 . S
N790 C786 1.427 . S
N790 C787 1.384 . S
N791 C783 1.427 . S
N791 C789 1.384 . S
H792 C798 0.930 . S
H793 C802 0.930 . S
H794 C807 0.929 . S
H795 C805 0.929 . S
H796 C800 0.929 1_455 S
H797 C806 0.929 . S
C798 H792 0.930 . S
C798 C799 1.392 . S
C798 C806 1.378 . S
C799 C798 1.392 . S
C799 C807 1.427 1_655 S
C800 H796 0.929 1_655 S
C800 C802 1.378 . S
C800 C804 1.350 . S
C801 C804 1.463 . S
C801 C806 1.350 . S
C801 N809 1.427 1_655 S
C802 H793 0.930 . S
C802 C800 1.378 . S
C802 C803 1.367 . S
C803 C802 1.367 . S
C803 C805 1.433 . S
C804 C800 1.350 . S
C804 C801 1.463 . S
C804 N808 1.427 . S
C805 H795 0.929 . S
C805 C803 1.433 . S
C805 N808 1.384 . S
C806 H797 0.929 . S
C806 C798 1.378 . S
C806 C801 1.350 . S
C807 H794 0.929 . S
C807 C799 1.427 1_455 S
C807 N809 1.384 . S
N808 C804 1.427 . S
N808 C805 1.384 . S
N809 C801 1.427 1_455 S
N809 C807 1.384 . S
H810 C816 0.930 1_554 S
H811 C820 0.930 . S
H812 C825 0.929 . S
H813 C823 0.929 . S
H814 C818 0.929 . S
H815 C824 0.929 . S
C816 H810 0.930 1_556 S
C816 C817 1.367 . S
C816 C824 1.378 . S
C817 C816 1.367 . S
C817 C825 1.433 . S
C818 H814 0.929 . S
C818 C820 1.378 . S
C818 C822 1.350 . S
C819 C822 1.463 . S
C819 C824 1.350 . S
C819 N827 1.427 . S
C820 H811 0.930 . S
C820 C818 1.378 . S
C820 C821 1.367 . S
C821 C820 1.367 . S
C821 C823 1.433 . S
C822 C818 1.350 . S
C822 C819 1.463 . S
C822 N826 1.427 . S
C823 H813 0.929 . S
C823 C821 1.433 . S
C823 N826 1.384 . S
C824 H815 0.929 . S
C824 C816 1.378 . S
C824 C819 1.350 . S
C825 H812 0.929 . S
C825 C817 1.433 . S
C825 N827 1.384 . S
N826 C822 1.427 . S
N826 C823 1.384 . S
N827 C819 1.427 . S
N827 C825 1.384 . S
H828 C834 0.930 . S
H829 C838 0.930 . S
H830 C843 0.929 . S
H831 C841 0.929 . S
H832 C836 0.929 . S
H833 C842 0.929 1_455 S
C834 H828 0.930 . S
C834 C835 1.367 . S
C834 C842 1.378 . S
C835 C834 1.367 . S
C835 C843 1.433 . S
C836 H832 0.929 . S
C836 C838 1.378 . S
C836 C840 1.350 . S
C837 C840 1.463 . S
C837 C842 1.350 . S
C837 N845 1.427 . S
C838 H829 0.930 . S
C838 C836 1.378 . S
C838 C839 1.381 . S
C839 C838 1.381 . S
C839 C841 1.419 1_655 S
C840 C836 1.350 . S
C840 C837 1.463 . S
C840 N844 1.427 1_655 S
C841 H831 0.929 . S
C841 C839 1.419 1_455 S
C841 N844 1.384 . S
C842 H833 0.929 1_655 S
C842 C834 1.378 . S
C842 C837 1.350 . S
C843 H830 0.929 . S
C843 C835 1.433 . S
C843 N845 1.384 . S
N844 C840 1.427 1_455 S
N844 C841 1.384 . S
N845 C837 1.427 . S
N845 C843 1.384 . S
H846 C852 0.930 . S
H847 C856 0.930 . S
H848 C861 0.929 . S
H849 C859 0.929 . S
H850 C854 0.929 . S
H851 C860 0.929 . S
C852 H846 0.930 . S
C852 C853 1.367 . S
C852 C860 1.378 . S
C853 C852 1.367 . S
C853 C861 1.433 . S
C854 H850 0.929 . S
C854 C856 1.378 . S
C854 C858 1.350 . S
C855 C858 1.463 . S
C855 C860 1.350 . S
C855 N863 1.427 . S
C856 H847 0.930 . S
C856 C854 1.378 . S
C856 C857 1.367 . S
C857 C856 1.367 . S
C857 C859 1.433 . S
C858 C854 1.350 . S
C858 C855 1.463 . S
C858 N862 1.427 . S
C859 H849 0.929 . S
C859 C857 1.433 . S
C859 N862 1.384 . S
C860 H851 0.929 . S
C860 C852 1.378 . S
C860 C855 1.350 . S
C861 H848 0.929 . S
C861 C853 1.433 . S
C861 N863 1.384 . S
N862 C858 1.427 . S
N862 C859 1.384 . S
N863 C855 1.427 . S
N863 C861 1.384 . S
H864 C870 0.930 . S
H865 C874 0.930 . S
H866 C879 0.929 . S
H867 C877 0.929 . S
H868 C872 0.929 . S
H869 C878 0.929 . S
C870 H864 0.930 . S
C870 C871 1.367 . S
C870 C878 1.378 . S
C871 C870 1.367 . S
C871 C879 1.433 . S
C872 H868 0.929 . S
C872 C874 1.378 . S
C872 C876 1.350 . S
C873 C876 1.463 . S
C873 C878 1.350 . S
C873 N881 1.427 . S
C874 H865 0.930 . S
C874 C872 1.378 . S
C874 C875 1.367 . S
C875 C874 1.367 . S
C875 C877 1.433 . S
C876 C872 1.350 . S
C876 C873 1.463 . S
C876 N880 1.427 . S
C877 H867 0.929 . S
C877 C875 1.433 . S
C877 N880 1.384 . S
C878 H869 0.929 . S
C878 C870 1.378 . S
C878 C873 1.350 . S
C879 H866 0.929 . S
C879 C871 1.433 . S
C879 N881 1.384 . S
N880 C876 1.427 . S
N880 C877 1.384 . S
N881 C873 1.427 . S
N881 C879 1.384 . S
H882 C888 0.930 . S
H883 C892 0.930 . S
H884 C897 0.929 . S
H885 C895 0.929 . S
H886 C890 0.929 1_545 S
H887 C896 0.929 . S
C888 H882 0.930 . S
C888 C889 1.367 1_565 S
C888 C896 1.378 . S
C889 C888 1.367 1_545 S
C889 C897 1.433 . S
C890 H886 0.929 1_565 S
C890 C892 1.378 . S
C890 C894 1.350 . S
C891 C894 1.463 . S
C891 C896 1.350 . S
C891 N899 1.427 1_565 S
C892 H883 0.930 . S
C892 C890 1.378 . S
C892 C893 1.367 . S
C893 C892 1.367 . S
C893 C895 1.433 . S
C894 C890 1.350 . S
C894 C891 1.463 . S
C894 N898 1.427 . S
C895 H885 0.929 . S
C895 C893 1.433 . S
C895 N898 1.384 . S
C896 H887 0.929 . S
C896 C888 1.378 . S
C896 C891 1.350 . S
C897 H884 0.929 . S
C897 C889 1.433 . S
C897 N899 1.384 . S
N898 C894 1.427 . S
N898 C895 1.384 . S
N899 C891 1.427 1_545 S
N899 C897 1.384 . S
H900 C906 0.930 . S
H901 C910 0.930 . S
H902 C915 0.929 . S
H903 C913 0.929 . S
H904 C908 0.929 . S
H905 C914 0.929 . S
C906 H900 0.930 . S
C906 C907 1.367 . S
C906 C914 1.378 . S
C907 C906 1.367 . S
C907 C915 1.433 . S
C908 H904 0.929 . S
C908 C910 1.378 . S
C908 C912 1.350 . S
C909 C912 1.463 . S
C909 C914 1.350 . S
C909 N917 1.427 . S
C910 H901 0.930 . S
C910 C908 1.378 . S
C910 C911 1.367 . S
C911 C910 1.367 . S
C911 C913 1.433 . S
C912 C908 1.350 . S
C912 C909 1.463 . S
C912 N916 1.427 . S
C913 H903 0.929 . S
C913 C911 1.433 . S
C913 N916 1.384 . S
C914 H905 0.929 . S
C914 C906 1.378 . S
C914 C909 1.350 . S
C915 H902 0.929 . S
C915 C907 1.433 . S
C915 N917 1.384 . S
N916 C912 1.427 . S
N916 C913 1.384 . S
N917 C909 1.427 . S
N917 C915 1.384 . S
H918 C924 0.930 . S
H919 C928 0.930 . S
H920 C933 0.929 . S
H921 C931 0.929 . S
H922 C926 0.929 . S
H923 C932 0.929 . S
C924 H918 0.930 . S
C924 C925 1.367 . S
C924 C932 1.378 . S
C925 C924 1.367 . S
C925 C933 1.433 . S
C926 H922 0.929 . S
C926 C928 1.378 . S
C926 C930 1.350 . S
C927 C930 1.463 . S
C927 C932 1.350 . S
C927 N935 1.427 . S
C928 H919 0.930 . S
C928 C926 1.378 . S
C928 C929 1.367 . S
C929 C928 1.367 . S
C929 C931 1.433 . S
C930 C926 1.350 . S
C930 C927 1.463 . S
C930 N934 1.427 . S
C931 H921 0.929 . S
C931 C929 1.433 . S
C931 N934 1.384 . S
C932 H923 0.929 . S
C932 C924 1.378 . S
C932 C927 1.350 . S
C933 H920 0.929 . S
C933 C925 1.433 . S
C933 N935 1.384 . S
N934 C930 1.427 . S
N934 C931 1.384 . S
N935 C927 1.427 . S
N935 C933 1.384 . S
H936 C942 0.930 . S
H937 C946 0.930 . S
H938 C951 0.929 . S
H939 C949 0.929 . S
H940 C944 0.929 . S
H941 C950 0.929 . S
C942 H936 0.930 . S
C942 C943 1.367 . S
C942 C950 1.378 . S
C943 C942 1.367 . S
C943 C951 1.433 . S
C944 H940 0.929 . S
C944 C946 1.378 1_455 S
C944 C948 1.350 . S
C945 C948 1.463 . S
C945 C950 1.350 . S
C945 N953 1.427 . S
C946 H937 0.930 . S
C946 C944 1.378 1_655 S
C946 C947 1.367 . S
C947 C946 1.367 . S
C947 C949 1.433 1_655 S
C948 C944 1.350 . S
C948 C945 1.463 . S
C948 N952 1.427 . S
C949 H939 0.929 . S
C949 C947 1.433 1_455 S
C949 N952 1.384 . S
C950 H941 0.929 . S
C950 C942 1.378 . S
C950 C945 1.350 . S
C951 H938 0.929 . S
C951 C943 1.433 . S
C951 N953 1.384 . S
N952 C948 1.427 . S
N952 C949 1.384 . S
N953 C945 1.427 . S
N953 C951 1.384 . S
H954 C960 0.930 . S
H955 C964 0.930 . S
H956 C969 0.929 . S
H957 C967 0.929 . S
H958 C962 0.929 . S
H959 C968 0.929 . S
C960 H954 0.930 . S
C960 C961 1.367 . S
C960 C968 1.378 . S
C961 C960 1.367 . S
C961 C969 1.433 . S
C962 H958 0.929 . S
C962 C964 1.378 . S
C962 C966 1.350 . S
C963 C966 1.463 . S
C963 C968 1.350 . S
C963 N971 1.427 . S
C964 H955 0.930 . S
C964 C962 1.378 . S
C964 C965 1.367 . S
C965 C964 1.367 . S
C965 C967 1.433 . S
C966 C962 1.350 . S
C966 C963 1.463 . S
C966 N970 1.427 . S
C967 H957 0.929 . S
C967 C965 1.433 . S
C967 N970 1.384 . S
C968 H959 0.929 . S
C968 C960 1.378 . S
C968 C963 1.350 . S
C969 H956 0.929 . S
C969 C961 1.433 . S
C969 N971 1.384 . S
N970 C966 1.427 . S
N970 C967 1.384 . S
N971 C963 1.427 . S
N971 C969 1.384 . S
H972 C978 0.930 . S
H973 C982 0.930 . S
H974 C987 0.929 . S
H975 C985 0.929 . S
H976 C980 0.929 . S
H977 C986 0.929 . S
C978 H972 0.930 . S
C978 C979 1.367 . S
C978 C986 1.378 . S
C979 C978 1.367 . S
C979 C987 1.433 . S
C980 H976 0.929 . S
C980 C982 1.378 1_545 S
C980 C984 1.350 . S
C981 C984 1.463 . S
C981 C986 1.350 . S
C981 N989 1.427 . S
C982 H973 0.930 . S
C982 C980 1.378 1_565 S
C982 C983 1.367 1_565 S
C983 C982 1.367 1_545 S
C983 C985 1.433 . S
C984 C980 1.350 . S
C984 C981 1.463 . S
C984 N988 1.427 . S
C985 H975 0.929 . S
C985 C983 1.433 . S
C985 N988 1.384 . S
C986 H977 0.929 . S
C986 C978 1.378 . S
C986 C981 1.350 . S
C987 H974 0.929 . S
C987 C979 1.433 . S
C987 N989 1.384 . S
N988 C984 1.427 . S
N988 C985 1.384 . S
N989 C981 1.427 . S
N989 C987 1.384 . S
H990 C996 0.930 . S
H991 C1000 0.930 . S
H992 C1005 0.929 . S
H993 C1003 0.929 1_565 S
H994 C998 0.929 . S
H995 C1004 0.929 . S
C996 H990 0.930 . S
C996 C997 1.367 . S
C996 C1004 1.378 . S
C997 C996 1.367 . S
C997 C1005 1.433 . S
C998 H994 0.929 . S
C998 C1000 1.378 . S
C998 C1002 1.350 . S
C999 C1002 1.463 . S
C999 C1004 1.350 . S
C999 N1007 1.427 . S
C1000 H991 0.930 . S
C1000 C998 1.378 . S
C1000 C1001 1.367 . S
C1001 C1000 1.367 . S
C1001 C1003 1.433 . S
C1002 C998 1.350 . S
C1002 C999 1.463 . S
C1002 N1006 1.427 . S
C1003 H993 0.929 1_545 S
C1003 C1001 1.433 . S
C1003 N1006 1.384 . S
C1004 H995 0.929 . S
C1004 C996 1.378 . S
C1004 C999 1.350 . S
C1005 H992 0.929 . S
C1005 C997 1.433 . S
C1005 N1007 1.384 . S
N1006 C1002 1.427 . S
N1006 C1003 1.384 . S
N1007 C999 1.427 . S
N1007 C1005 1.384 . S
H1008 C1014 0.930 . S
H1009 C1018 0.930 . S
H1010 C1023 0.929 . S
H1011 C1021 0.929 . S
H1012 C1016 0.929 . S
H1013 C1022 0.929 . S
C1014 H1008 0.930 . S
C1014 C1015 1.367 . S
C1014 C1022 1.378 . S
C1015 C1014 1.367 . S
C1015 C1023 1.433 . S
C1016 H1012 0.929 . S
C1016 C1018 1.378 . S
C1016 C1020 1.350 . S
C1017 C1020 1.463 . S
C1017 C1022 1.350 . S
C1017 N1025 1.427 . S
C1018 H1009 0.930 . S
C1018 C1016 1.378 . S
C1018 C1019 1.367 1_455 S
C1019 C1018 1.367 1_655 S
C1019 C1021 1.433 . S
C1020 C1016 1.350 . S
C1020 C1017 1.463 . S
C1020 N1024 1.427 . S
C1021 H1011 0.929 . S
C1021 C1019 1.433 . S
C1021 N1024 1.384 1_655 S
C1022 H1013 0.929 . S
C1022 C1014 1.378 . S
C1022 C1017 1.350 . S
C1023 H1010 0.929 . S
C1023 C1015 1.433 . S
C1023 N1025 1.384 . S
N1024 C1020 1.427 . S
N1024 C1021 1.384 1_455 S
N1025 C1017 1.427 . S
N1025 C1023 1.384 . S
H1026 C1032 0.930 . S
H1027 C1036 0.930 . S
H1028 C1041 0.929 . S
H1029 C1039 0.929 . S
H1030 C1034 0.929 . S
H1031 C1040 0.929 . S
C1032 H1026 0.930 . S
C1032 C1033 1.367 . S
C1032 C1040 1.378 . S
C1033 C1032 1.367 . S
C1033 C1041 1.433 . S
C1034 H1030 0.929 . S
C1034 C1036 1.378 . S
C1034 C1038 1.350 . S
C1035 C1038 1.463 . S
C1035 C1040 1.350 . S
C1035 N1043 1.427 . S
C1036 H1027 0.930 . S
C1036 C1034 1.378 . S
C1036 C1037 1.367 . S
C1037 C1036 1.367 . S
C1037 C1039 1.433 . S
C1038 C1034 1.350 . S
C1038 C1035 1.463 . S
C1038 N1042 1.427 . S
C1039 H1029 0.929 . S
C1039 C1037 1.433 . S
C1039 N1042 1.384 . S
C1040 H1031 0.929 . S
C1040 C1032 1.378 . S
C1040 C1035 1.350 . S
C1041 H1028 0.929 . S
C1041 C1033 1.433 . S
C1041 N1043 1.384 . S
N1042 C1038 1.427 . S
N1042 C1039 1.384 . S
N1043 C1035 1.427 . S
N1043 C1041 1.384 . S
H1044 C1050 0.930 . S
H1045 C1054 0.930 . S
H1046 C1059 0.929 . S
H1047 C1057 0.929 . S
H1048 C1052 0.929 . S
H1049 C1058 0.929 . S
C1050 H1044 0.930 . S
C1050 C1051 1.367 . S
C1050 C1058 1.378 . S
C1051 C1050 1.367 . S
C1051 C1059 1.433 . S
C1052 H1048 0.929 . S
C1052 C1054 1.378 . S
C1052 C1056 1.350 . S
C1053 C1056 1.463 . S
C1053 C1058 1.350 . S
C1053 N1061 1.427 . S
C1054 H1045 0.930 . S
C1054 C1052 1.378 . S
C1054 C1055 1.367 . S
C1055 C1054 1.367 . S
C1055 C1057 1.433 . S
C1056 C1052 1.350 . S
C1056 C1053 1.463 . S
C1056 N1060 1.427 . S
C1057 H1047 0.929 . S
C1057 C1055 1.433 . S
C1057 N1060 1.384 . S
C1058 H1049 0.929 . S
C1058 C1050 1.378 . S
C1058 C1053 1.350 . S
C1059 H1046 0.929 . S
C1059 C1051 1.433 . S
C1059 N1061 1.384 . S
N1060 C1056 1.427 . S
N1060 C1057 1.384 . S
N1061 C1053 1.427 . S
N1061 C1059 1.384 . S
H1062 C1068 0.930 . S
H1063 C1072 0.930 . S
H1064 C1077 0.929 . S
H1065 C1075 0.929 . S
H1066 C1070 0.929 . S
H1067 C1076 0.929 . S
C1068 H1062 0.930 . S
C1068 C1069 1.367 . S
C1068 C1076 1.378 . S
C1069 C1068 1.367 . S
C1069 C1077 1.433 . S
C1070 H1066 0.929 . S
C1070 C1072 1.378 . S
C1070 C1074 1.350 . S
C1071 C1074 1.463 . S
C1071 C1076 1.350 . S
C1071 N1079 1.427 . S
C1072 H1063 0.930 . S
C1072 C1070 1.378 . S
C1072 C1073 1.367 . S
C1073 C1072 1.367 . S
C1073 C1075 1.433 . S
C1074 C1070 1.350 . S
C1074 C1071 1.463 . S
C1074 N1078 1.427 . S
C1075 H1065 0.929 . S
C1075 C1073 1.433 . S
C1075 N1078 1.384 . S
C1076 H1067 0.929 . S
C1076 C1068 1.378 . S
C1076 C1071 1.350 . S
C1077 H1064 0.929 . S
C1077 C1069 1.433 . S
C1077 N1079 1.384 . S
N1078 C1074 1.427 . S
N1078 C1075 1.384 . S
N1079 C1071 1.427 . S
N1079 C1077 1.384 . S
H1080 C1086 0.930 . S
H1081 C1090 0.930 . S
H1082 C1095 0.929 . S
H1083 C1093 0.929 . S
H1084 C1088 0.929 . S
H1085 C1094 0.929 . S
C1086 H1080 0.930 . S
C1086 C1087 1.367 . S
C1086 C1094 1.378 . S
C1087 C1086 1.367 . S
C1087 C1095 1.433 . S
C1088 H1084 0.929 . S
C1088 C1090 1.378 . S
C1088 C1092 1.350 . S
C1089 C1092 1.463 . S
C1089 C1094 1.350 . S
C1089 N1097 1.427 . S
C1090 H1081 0.930 . S
C1090 C1088 1.378 . S
C1090 C1091 1.367 . S
C1091 C1090 1.367 . S
C1091 C1093 1.433 . S
C1092 C1088 1.350 . S
C1092 C1089 1.463 . S
C1092 N1096 1.427 . S
C1093 H1083 0.929 . S
C1093 C1091 1.433 . S
C1093 N1096 1.384 . S
C1094 H1085 0.929 . S
C1094 C1086 1.378 . S
C1094 C1089 1.350 . S
C1095 H1082 0.929 . S
C1095 C1087 1.433 . S
C1095 N1097 1.384 . S
N1096 C1092 1.427 . S
N1096 C1093 1.384 . S
N1097 C1089 1.427 . S
N1097 C1095 1.384 . S
H1098 C1104 0.930 . S
H1099 C1108 0.930 . S
H1100 C1113 0.929 . S
H1101 C1111 0.929 . S
H1102 C1106 0.929 . S
H1103 C1112 0.929 . S
C1104 H1098 0.930 . S
C1104 C1105 1.367 . S
C1104 C1112 1.378 . S
C1105 C1104 1.367 . S
C1105 C1113 1.433 . S
C1106 H1102 0.929 . S
C1106 C1108 1.378 . S
C1106 C1110 1.350 . S
C1107 C1110 1.463 . S
C1107 C1112 1.350 . S
C1107 N1115 1.427 . S
C1108 H1099 0.930 . S
C1108 C1106 1.378 . S
C1108 C1109 1.367 . S
C1109 C1108 1.367 . S
C1109 C1111 1.433 . S
C1110 C1106 1.350 . S
C1110 C1107 1.463 . S
C1110 N1114 1.427 . S
C1111 H1101 0.929 . S
C1111 C1109 1.433 . S
C1111 N1114 1.384 . S
C1112 H1103 0.929 . S
C1112 C1104 1.378 . S
C1112 C1107 1.350 . S
C1113 H1100 0.929 . S
C1113 C1105 1.433 . S
C1113 N1115 1.384 . S
N1114 C1110 1.427 . S
N1114 C1111 1.384 . S
N1115 C1107 1.427 . S
N1115 C1113 1.384 . S
H1116 C1122 0.930 . S
H1117 C1126 0.930 . S
H1118 C1131 0.929 . S
H1119 C1129 0.929 . S
H1120 C1124 0.929 . S
H1121 C1130 0.929 . S
C1122 H1116 0.930 . S
C1122 C1123 1.367 . S
C1122 C1130 1.378 . S
C1123 C1122 1.367 . S
C1123 C1131 1.433 . S
C1124 H1120 0.929 . S
C1124 C1126 1.378 . S
C1124 C1128 1.350 . S
C1125 C1128 1.463 . S
C1125 C1130 1.350 . S
C1125 N1133 1.427 . S
C1126 H1117 0.930 . S
C1126 C1124 1.378 . S
C1126 C1127 1.367 . S
C1127 C1126 1.367 . S
C1127 C1129 1.433 . S
C1128 C1124 1.350 . S
C1128 C1125 1.463 . S
C1128 N1132 1.427 . S
C1129 H1119 0.929 . S
C1129 C1127 1.433 . S
C1129 N1132 1.384 . S
C1130 H1121 0.929 . S
C1130 C1122 1.378 . S
C1130 C1125 1.350 . S
C1131 H1118 0.929 . S
C1131 C1123 1.433 . S
C1131 N1133 1.384 . S
N1132 C1128 1.427 . S
N1132 C1129 1.384 . S
N1133 C1125 1.427 . S
N1133 C1131 1.384 . S
H1134 C1140 0.930 . S
H1135 C1144 0.930 . S
H1136 C1149 0.929 . S
H1137 C1147 0.929 . S
H1138 C1142 0.929 . S
H1139 C1148 0.929 . S
C1140 H1134 0.930 . S
C1140 C1141 1.367 . S
C1140 C1148 1.378 . S
C1141 C1140 1.367 . S
C1141 C1149 1.433 . S
C1142 H1138 0.929 . S
C1142 C1144 1.378 . S
C1142 C1146 1.350 . S
C1143 C1146 1.463 . S
C1143 C1148 1.350 . S
C1143 N1151 1.427 . S
C1144 H1135 0.930 . S
C1144 C1142 1.378 . S
C1144 C1145 1.367 . S
C1145 C1144 1.367 . S
C1145 C1147 1.433 . S
C1146 C1142 1.350 . S
C1146 C1143 1.463 . S
C1146 N1150 1.427 . S
C1147 H1137 0.929 . S
C1147 C1145 1.433 . S
C1147 N1150 1.384 . S
C1148 H1139 0.929 . S
C1148 C1140 1.378 . S
C1148 C1143 1.350 . S
C1149 H1136 0.929 . S
C1149 C1141 1.433 . S
C1149 N1151 1.384 . S
N1150 C1146 1.427 . S
N1150 C1147 1.384 . S
N1151 C1143 1.427 . S
N1151 C1149 1.384 . S
H1152 C1158 0.930 . S
H1153 C1162 0.930 . S
H1154 C1167 0.929 . S
H1155 C1165 0.929 . S
H1156 C1160 0.929 . S
H1157 C1166 0.929 . S
C1158 H1152 0.930 . S
C1158 C1159 1.367 . S
C1158 C1166 1.378 . S
C1159 C1158 1.367 . S
C1159 C1167 1.433 . S
C1160 H1156 0.929 . S
C1160 C1162 1.378 . S
C1160 C1164 1.350 . S
C1161 C1164 1.463 . S
C1161 C1166 1.350 . S
C1161 N1169 1.427 . S
C1162 H1153 0.930 . S
C1162 C1160 1.378 . S
C1162 C1163 1.367 . S
C1163 C1162 1.367 . S
C1163 C1165 1.433 . S
C1164 C1160 1.350 . S
C1164 C1161 1.463 . S
C1164 N1168 1.427 . S
C1165 H1155 0.929 . S
C1165 C1163 1.433 . S
C1165 N1168 1.384 . S
C1166 H1157 0.929 . S
C1166 C1158 1.378 . S
C1166 C1161 1.350 . S
C1167 H1154 0.929 . S
C1167 C1159 1.433 . S
C1167 N1169 1.384 . S
N1168 C1164 1.427 . S
N1168 C1165 1.384 . S
N1169 C1161 1.427 . S
N1169 C1167 1.384 . S
H1170 C1176 0.930 . S
H1171 C1180 0.930 . S
H1172 C1185 0.929 . S
H1173 C1183 0.929 . S
H1174 C1178 0.929 . S
H1175 C1184 0.929 . S
C1176 H1170 0.930 . S
C1176 C1177 1.367 . S
C1176 C1184 1.378 . S
C1177 C1176 1.367 . S
C1177 C1185 1.433 . S
C1178 H1174 0.929 . S
C1178 C1180 1.378 . S
C1178 C1182 1.350 . S
C1179 C1182 1.463 . S
C1179 C1184 1.350 . S
C1179 N1187 1.427 . S
C1180 H1171 0.930 . S
C1180 C1178 1.378 . S
C1180 C1181 1.367 . S
C1181 C1180 1.367 . S
C1181 C1183 1.433 . S
C1182 C1178 1.350 . S
C1182 C1179 1.463 . S
C1182 N1186 1.427 . S
C1183 H1173 0.929 . S
C1183 C1181 1.433 . S
C1183 N1186 1.384 . S
C1184 H1175 0.929 . S
C1184 C1176 1.378 . S
C1184 C1179 1.350 . S
C1185 H1172 0.929 . S
C1185 C1177 1.433 . S
C1185 N1187 1.384 . S
N1186 C1182 1.427 . S
N1186 C1183 1.384 . S
N1187 C1179 1.427 . S
N1187 C1185 1.384 . S
H1188 C1194 0.930 . S
H1189 C1198 0.930 . S
H1190 C1203 0.929 . S
H1191 C1201 0.929 . S
H1192 C1196 0.929 . S
H1193 C1202 0.929 . S
C1194 H1188 0.930 . S
C1194 C1195 1.367 . S
C1194 C1202 1.378 . S
C1195 C1194 1.367 . S
C1195 C1203 1.433 . S
C1196 H1192 0.929 . S
C1196 C1198 1.378 . S
C1196 C1200 1.350 . S
C1197 C1200 1.463 . S
C1197 C1202 1.350 . S
C1197 N1205 1.427 . S
C1198 H1189 0.930 . S
C1198 C1196 1.378 . S
C1198 C1199 1.367 . S
C1199 C1198 1.367 . S
C1199 C1201 1.433 . S
C1200 C1196 1.350 . S
C1200 C1197 1.463 . S
C1200 N1204 1.427 . S
C1201 H1191 0.929 . S
C1201 C1199 1.433 . S
C1201 N1204 1.384 . S
C1202 H1193 0.929 . S
C1202 C1194 1.378 . S
C1202 C1197 1.350 . S
C1203 H1190 0.929 . S
C1203 C1195 1.433 . S
C1203 N1205 1.384 . S
N1204 C1200 1.427 . S
N1204 C1201 1.384 . S
N1205 C1197 1.427 . S
N1205 C1203 1.384 . S
H1206 C1212 0.930 . S
H1207 C1216 0.930 . S
H1208 C1221 0.929 . S
H1209 C1219 0.929 . S
H1210 C1214 0.929 . S
H1211 C1220 0.929 . S
C1212 H1206 0.930 . S
C1212 C1213 1.367 . S
C1212 C1220 1.378 . S
C1213 C1212 1.367 . S
C1213 C1221 1.433 . S
C1214 H1210 0.929 . S
C1214 C1216 1.378 . S
C1214 C1218 1.350 . S
C1215 C1218 1.463 . S
C1215 C1220 1.350 . S
C1215 N1223 1.427 . S
C1216 H1207 0.930 . S
C1216 C1214 1.378 . S
C1216 C1217 1.367 . S
C1217 C1216 1.367 . S
C1217 C1219 1.433 . S
C1218 C1214 1.350 . S
C1218 C1215 1.463 . S
C1218 N1222 1.427 . S
C1219 H1209 0.929 . S
C1219 C1217 1.433 . S
C1219 N1222 1.384 . S
C1220 H1211 0.929 . S
C1220 C1212 1.378 . S
C1220 C1215 1.350 . S
C1221 H1208 0.929 . S
C1221 C1213 1.433 . S
C1221 N1223 1.384 . S
N1222 C1218 1.427 . S
N1222 C1219 1.384 . S
N1223 C1215 1.427 . S
N1223 C1221 1.384 . S
H1224 C1230 0.930 . S
H1225 C1234 0.930 . S
H1226 C1239 0.929 . S
H1227 C1237 0.929 . S
H1228 C1232 0.929 . S
H1229 C1238 0.929 . S
C1230 H1224 0.930 . S
C1230 C1231 1.367 . S
C1230 C1238 1.378 . S
C1231 C1230 1.367 . S
C1231 C1239 1.433 . S
C1232 H1228 0.929 . S
C1232 C1234 1.378 . S
C1232 C1236 1.350 . S
C1233 C1236 1.463 . S
C1233 C1238 1.350 . S
C1233 N1241 1.427 . S
C1234 H1225 0.930 . S
C1234 C1232 1.378 . S
C1234 C1235 1.367 . S
C1235 C1234 1.367 . S
C1235 C1237 1.433 . S
C1236 C1232 1.350 . S
C1236 C1233 1.463 . S
C1236 N1240 1.427 . S
C1237 H1227 0.929 . S
C1237 C1235 1.433 . S
C1237 N1240 1.384 . S
C1238 H1229 0.929 . S
C1238 C1230 1.378 . S
C1238 C1233 1.350 . S
C1239 H1226 0.929 . S
C1239 C1231 1.433 . S
C1239 N1241 1.384 . S
N1240 C1236 1.427 . S
N1240 C1237 1.384 . S
N1241 C1233 1.427 . S
N1241 C1239 1.384 . S
H1242 C1248 0.930 . S
H1243 C1252 0.930 . S
H1244 C1257 0.929 . S
H1245 C1255 0.929 . S
H1246 C1250 0.929 . S
H1247 C1256 0.929 . S
C1248 H1242 0.930 . S
C1248 C1249 1.367 . S
C1248 C1256 1.378 . S
C1249 C1248 1.367 . S
C1249 C1257 1.433 . S
C1250 H1246 0.929 . S
C1250 C1252 1.378 . S
C1250 C1254 1.350 . S
C1251 C1254 1.463 . S
C1251 C1256 1.350 . S
C1251 N1259 1.427 . S
C1252 H1243 0.930 . S
C1252 C1250 1.378 . S
C1252 C1253 1.367 . S
C1253 C1252 1.367 . S
C1253 C1255 1.433 . S
C1254 C1250 1.350 . S
C1254 C1251 1.463 . S
C1254 N1258 1.427 . S
C1255 H1245 0.929 . S
C1255 C1253 1.433 . S
C1255 N1258 1.384 . S
C1256 H1247 0.929 . S
C1256 C1248 1.378 . S
C1256 C1251 1.350 . S
C1257 H1244 0.929 . S
C1257 C1249 1.433 . S
C1257 N1259 1.384 . S
N1258 C1254 1.427 . S
N1258 C1255 1.384 . S
N1259 C1251 1.427 . S
N1259 C1257 1.384 . S
H1260 C1266 0.930 . S
H1261 C1270 0.930 . S
H1262 C1275 0.929 . S
H1263 C1273 0.929 . S
H1264 C1268 0.929 . S
H1265 C1274 0.951 . S
C1266 H1260 0.930 . S
C1266 C1267 1.363 1_655 S
C1266 C1274 1.372 1_654 S
C1267 C1266 1.363 1_455 S
C1267 C1275 1.439 . S
C1268 H1264 0.929 . S
C1268 C1270 1.378 1_554 S
C1268 C1272 1.350 1_554 S
C1269 C1272 1.463 1_554 S
C1269 C1274 1.347 1_554 S
C1269 N1277 1.427 . S
C1270 H1261 0.930 . S
C1270 C1268 1.378 1_556 S
C1270 C1271 1.367 . S
C1271 C1270 1.367 . S
C1271 C1273 1.433 . S
C1272 C1268 1.350 1_556 S
C1272 C1269 1.463 1_556 S
C1272 N1276 1.427 . S
C1273 H1263 0.929 . S
C1273 C1271 1.433 . S
C1273 N1276 1.384 . S
C1274 H1265 0.951 . S
C1274 C1266 1.372 1_456 S
C1274 C1269 1.347 1_556 S
C1275 H1262 0.929 . S
C1275 C1267 1.439 . S
C1275 N1277 1.384 . S
N1276 C1272 1.427 . S
N1276 C1273 1.384 . S
N1277 C1269 1.427 . S
N1277 C1275 1.384 . S
H1278 C1284 0.930 . S
H1279 C1288 0.930 . S
H1280 C1293 0.929 . S
H1281 C1291 0.929 . S
H1282 C1286 0.929 . S
H1283 C1292 0.929 . S
C1284 H1278 0.930 . S
C1284 C1285 1.367 . S
C1284 C1292 1.378 . S
C1285 C1284 1.367 . S
C1285 C1293 1.433 . S
C1286 H1282 0.929 . S
C1286 C1288 1.378 . S
C1286 C1290 1.350 . S
C1287 C1290 1.463 1_556 S
C1287 C1292 1.350 . S
C1287 N1295 1.423 1_556 S
C1288 H1279 0.930 . S
C1288 C1286 1.378 . S
C1288 C1289 1.367 . S
C1289 C1288 1.367 . S
C1289 C1291 1.433 . S
C1290 C1286 1.350 . S
C1290 C1287 1.463 1_554 S
C1290 N1294 1.428 . S
C1291 H1281 0.929 . S
C1291 C1289 1.433 . S
C1291 N1294 1.385 . S
C1292 H1283 0.929 . S
C1292 C1284 1.378 . S
C1292 C1287 1.350 . S
C1293 H1280 0.929 . S
C1293 C1285 1.433 . S
C1293 N1295 1.376 1_556 S
N1294 C1290 1.428 . S
N1294 C1291 1.385 . S
N1295 C1287 1.423 1_554 S
N1295 C1293 1.376 1_554 S
H1296 C1302 0.930 . S
H1297 C1306 0.930 . S
H1298 C1311 0.929 1_556 S
H1299 C1309 0.929 1_564 S
H1300 C1304 0.929 . S
H1301 C1310 0.929 . S
C1302 H1296 0.930 . S
C1302 C1303 1.367 . S
C1302 C1310 1.378 . S
C1303 C1302 1.367 . S
C1303 C1311 1.433 . S
C1304 H1300 0.929 . S
C1304 C1306 1.378 . S
C1304 C1308 1.350 . S
C1305 C1308 1.463 1_554 S
C1305 C1310 1.350 . S
C1305 N1313 1.427 1_554 S
C1306 H1297 0.930 . S
C1306 C1304 1.378 . S
C1306 C1307 1.367 . S
C1307 C1306 1.367 . S
C1307 C1309 1.433 . S
C1308 C1304 1.350 . S
C1308 C1305 1.463 1_556 S
C1308 N1312 1.427 1_556 S
C1309 H1299 0.929 1_546 S
C1309 C1307 1.433 . S
C1309 N1312 1.384 1_556 S
C1310 H1301 0.929 . S
C1310 C1302 1.378 . S
C1310 C1305 1.350 . S
C1311 H1298 0.929 1_554 S
C1311 C1303 1.433 . S
C1311 N1313 1.384 1_554 S
N1312 C1308 1.427 1_554 S
N1312 C1309 1.384 1_554 S
N1313 C1305 1.427 1_556 S
N1313 C1311 1.384 1_556 S
H1314 C1320 0.930 . S
H1315 C1324 0.930 . S
H1316 C1329 0.929 . S
H1317 C1327 0.929 . S
H1318 C1322 0.929 . S
H1319 C1328 0.929 . S
C1320 H1314 0.930 . S
C1320 C1321 1.367 . S
C1320 C1328 1.378 . S
C1321 C1320 1.367 . S
C1321 C1329 1.433 . S
C1322 H1318 0.929 . S
C1322 C1324 1.378 1_545 S
C1322 C1326 1.350 . S
C1323 C1326 1.463 . S
C1323 C1328 1.350 . S
C1323 N1331 1.427 . S
C1324 H1315 0.930 . S
C1324 C1322 1.378 1_565 S
C1324 C1325 1.367 1_565 S
C1325 C1324 1.367 1_545 S
C1325 C1327 1.433 . S
C1326 C1322 1.350 . S
C1326 C1323 1.463 . S
C1326 N1330 1.427 . S
C1327 H1317 0.929 . S
C1327 C1325 1.433 . S
C1327 N1330 1.384 . S
C1328 H1319 0.929 . S
C1328 C1320 1.378 . S
C1328 C1323 1.350 . S
C1329 H1316 0.929 . S
C1329 C1321 1.433 . S
C1329 N1331 1.384 . S
N1330 C1326 1.427 . S
N1330 C1327 1.384 . S
N1331 C1323 1.427 . S
N1331 C1329 1.384 . S
H1332 C1338 0.930 . S
H1333 C1342 0.930 . S
H1334 C1347 0.929 . S
H1335 C1345 0.929 . S
H1336 C1340 0.929 . S
H1337 C1346 0.929 . S
C1338 H1332 0.930 . S
C1338 C1339 1.367 . S
C1338 C1346 1.378 . S
C1339 C1338 1.367 . S
C1339 C1347 1.433 1_455 S
C1340 H1336 0.929 . S
C1340 C1342 1.378 . S
C1340 C1344 1.350 . S
C1341 C1344 1.463 . S
C1341 C1346 1.350 . S
C1341 N1349 1.427 . S
C1342 H1333 0.930 . S
C1342 C1340 1.378 . S
C1342 C1343 1.367 . S
C1343 C1342 1.367 . S
C1343 C1345 1.433 . S
C1344 C1340 1.350 . S
C1344 C1341 1.463 . S
C1344 N1348 1.427 . S
C1345 H1335 0.929 . S
C1345 C1343 1.433 . S
C1345 N1348 1.384 . S
C1346 H1337 0.929 . S
C1346 C1338 1.378 . S
C1346 C1341 1.350 . S
C1347 H1334 0.929 . S
C1347 C1339 1.433 1_655 S
C1347 N1349 1.384 1_655 S
N1348 C1344 1.427 . S
N1348 C1345 1.384 . S
N1349 C1341 1.427 . S
N1349 C1347 1.384 1_455 S
H1350 C1356 0.930 . S
H1351 C1360 0.930 . S
H1352 C1365 0.929 . S
H1353 C1363 0.929 . S
H1354 C1358 0.929 . S
H1355 C1364 0.929 . S
C1356 H1350 0.930 . S
C1356 C1357 1.367 . S
C1356 C1364 1.378 . S
C1357 C1356 1.367 . S
C1357 C1365 1.433 . S
C1358 H1354 0.929 . S
C1358 C1360 1.378 . S
C1358 C1362 1.350 . S
C1359 C1362 1.463 . S
C1359 C1364 1.350 . S
C1359 N1367 1.427 . S
C1360 H1351 0.930 . S
C1360 C1358 1.378 . S
C1360 C1361 1.367 . S
C1361 C1360 1.367 . S
C1361 C1363 1.433 . S
C1362 C1358 1.350 . S
C1362 C1359 1.463 . S
C1362 N1366 1.427 . S
C1363 H1353 0.929 . S
C1363 C1361 1.433 . S
C1363 N1366 1.384 . S
C1364 H1355 0.929 . S
C1364 C1356 1.378 . S
C1364 C1359 1.350 . S
C1365 H1352 0.929 . S
C1365 C1357 1.433 . S
C1365 N1367 1.384 . S
N1366 C1362 1.427 . S
N1366 C1363 1.384 . S
N1367 C1359 1.427 . S
N1367 C1365 1.384 . S
C403 C53 1.411 . S
C407 C6 1.400 . S
C421 C9 1.399 1_655 S
C425 C27 1.411 . S
C439 C29 1.411 . S
C443 C50 1.400 1_565 S
C457 C75 1.411 1_655 S
C461 C115 1.405 1_565 S
C475 C72 1.406 . S
C479 C95 1.410 . S
C493 C93 1.406 . S
C497 C117 1.393 . S
C511 C185 1.411 . S
C515 C138 1.399 . S
C529 C160 1.408 . S
C533 C141 1.394 . S
C547 C163 1.409 . S
C551 C182 1.395 . S
C565 C205 1.393 . S
C569 C247 1.402 . S
C583 C203 1.404 . S
C587 C227 1.411 . S
C601 C249 1.411 . S
C605 C225 1.403 . S
C619 C315 1.399 . S
C623 C270 1.393 . S
C637 C273 1.393 . S
C641 C291 1.404 . S
C655 C293 1.394 . S
C659 C313 1.399 . S
C673 C379 1.393 . S
C677 C339 1.400 . S
C691 C359 1.398 . S
C695 C336 1.411 . S
C709 C381 1.405 . S
C713 C357 1.393 . S
C727 C5 1.822 . S
C731 C295 1.830 . S
C745 C317 1.821 . S
C749 C26 1.830 . S
C763 C49 1.820 . S
C767 C272 1.831 . S
C781 C159 1.827 1_556 S
C785 C52 1.824 . S
C799 C8 1.809 1_655 S
C803 C181 1.820 1_556 S
C817 C137 1.826 1_556 S
C821 C31 1.825 . S
C835 C226 1.823 . S
C839 C73 1.823 1_655 S
C853 C96 1.824 . S
C857 C248 1.828 . S
C871 C204 1.831 . S
C875 C118 1.820 . S
C889 C116 1.831 . S
C893 C360 1.820 1_554 S
C907 C382 1.830 1_554 S
C911 C70 1.821 . S
C925 C337 1.830 1_554 S
C929 C94 1.821 . S
C943 C290 1.825 . S
C947 C184 1.827 . S
C961 C312 1.826 . S
C965 C140 1.827 . S
C979 C162 1.823 . S
C983 C269 1.829 1_545 S
C997 C206 1.821 . S
C1001 C358 1.830 1_545 S
C1015 C380 1.828 . S
C1019 C228 1.823 . S
C1033 C250 1.823 . S
C1037 C334 1.830 . S
C1051 C4 1.063 . S
C1055 C338 1.063 . S
C1069 C28 1.061 . S
C1073 C361 1.061 . S
C1087 C383 1.062 . S
C1091 C48 1.062 . S
C1105 C246 1.059 . S
C1109 C51 1.059 . S
C1123 C202 1.062 . S
C1127 C7 1.062 . S
C1141 C30 1.058 . S
C1145 C224 1.058 . S
C1159 C74 1.058 . S
C1163 C136 1.058 . S
C1177 C97 1.058 . S
C1181 C158 1.058 . S
C1195 C119 1.067 . S
C1199 C180 1.067 . S
C1213 C114 1.064 . S
C1217 C316 1.064 . S
C1231 C71 1.063 . S
C1235 C271 1.063 . S
C1249 C294 1.061 . S
C1253 C92 1.061 . S
C1267 C183 1.059 1_455 S
C1271 C378 1.060 . S
C1285 C335 1.067 . S
C1289 C139 1.067 . S
C1303 C161 1.069 . S
C1307 C356 1.069 1_545 S
C1321 C207 1.059 . S
C1325 C268 1.059 1_545 S
C1339 C229 1.067 1_455 S
C1343 C292 1.067 . S
C1357 C314 1.069 . S
C1361 C251 1.069 . S
