# Generated by pormake.
# Topology fcu, (12)-cn, num edge types: 1
# Building blocks:
#     Node 0, Type 0, BuildingBlock: EZIPEK_clean_sbu_0, # of connection points: 12
#     Node 1, Type 0, BuildingBlock: EZIPEK_clean_sbu_0, # of connection points: 12
#     Node 2, Type 0, BuildingBlock: EZIPEK_clean_sbu_0, # of connection points: 12
#     Node 3, Type 0, BuildingBlock: EZIPEK_clean_sbu_0, # of connection points: 12
#     Edge 4, Type (0, 0), BuildingBlock: EZIPEK_clean_linker_0, # of connection points: 2
#     Edge 5, Type (0, 0), BuildingBlock: EZIPEK_clean_linker_0, # of connection points: 2
#     Edge 6, Type (0, 0), BuildingBlock: EZIPEK_clean_linker_0, # of connection points: 2
#     Edge 7, Type (0, 0), BuildingBlock: EZIPEK_clean_linker_0, # of connection points: 2
#     Edge 8, Type (0, 0), BuildingBlock: EZIPEK_clean_linker_0, # of connection points: 2
#     Edge 9, Type (0, 0), BuildingBlock: EZIPEK_clean_linker_0, # of connection points: 2
#     Edge 10, Type (0, 0), BuildingBlock: EZIPEK_clean_linker_0, # of connection points: 2
#     Edge 11, Type (0, 0), BuildingBlock: EZIPEK_clean_linker_0, # of connection points: 2
#     Edge 12, Type (0, 0), BuildingBlock: EZIPEK_clean_linker_0, # of connection points: 2
#     Edge 13, Type (0, 0), BuildingBlock: EZIPEK_clean_linker_0, # of connection points: 2
#     Edge 14, Type (0, 0), BuildingBlock: EZIPEK_clean_linker_0, # of connection points: 2
#     Edge 15, Type (0, 0), BuildingBlock: EZIPEK_clean_linker_0, # of connection points: 2
#     Edge 16, Type (0, 0), BuildingBlock: EZIPEK_clean_linker_0, # of connection points: 2
#     Edge 17, Type (0, 0), BuildingBlock: EZIPEK_clean_linker_0, # of connection points: 2
#     Edge 18, Type (0, 0), BuildingBlock: EZIPEK_clean_linker_0, # of connection points: 2
#     Edge 19, Type (0, 0), BuildingBlock: EZIPEK_clean_linker_0, # of connection points: 2
#     Edge 20, Type (0, 0), BuildingBlock: EZIPEK_clean_linker_0, # of connection points: 2
#     Edge 21, Type (0, 0), BuildingBlock: EZIPEK_clean_linker_0, # of connection points: 2
#     Edge 22, Type (0, 0), BuildingBlock: EZIPEK_clean_linker_0, # of connection points: 2
#     Edge 23, Type (0, 0), BuildingBlock: EZIPEK_clean_linker_0, # of connection points: 2
#     Edge 24, Type (0, 0), BuildingBlock: EZIPEK_clean_linker_0, # of connection points: 2
#     Edge 25, Type (0, 0), BuildingBlock: EZIPEK_clean_linker_0, # of connection points: 2
#     Edge 26, Type (0, 0), BuildingBlock: EZIPEK_clean_linker_0, # of connection points: 2
#     Edge 27, Type (0, 0), BuildingBlock: EZIPEK_clean_linker_0, # of connection points: 2
# Relax obj value: 0.000
# Max RMSD: 0.000
# Mean RMSD: 0.000
data_MOF--net-fcu--node1-EZIPEK_clean_sbu_0--edge1-EZIPEK_clean_linker_0
_symmetry_space_group_name_H-M    P1
_symmetry_Int_Tables_number       1
_symmetry_cell_setting            triclinic
loop_
_symmetry_equiv_pos_as_xyz
'x, y, z'
_cell_length_a     21.140473
_cell_length_b     21.17598
_cell_length_c     21.224232
_cell_angle_alpha  89.875436
_cell_angle_beta   89.859757
_cell_angle_gamma 90.020781
loop_
_atom_site_label
_atom_site_type_symbol
_atom_site_fract_x
_atom_site_fract_y
_atom_site_fract_z
_atom_type_partial_charge
C0 C 1.01156 0.86279 0.17092 0.0
C1 C 1.00956 0.85274 0.86394 0.0
C2 C 0.01791 0.16626 0.16284 0.0
C3 C 0.01793 0.16148 0.85668 0.0
C4 C 0.85993 0.16478 0.01252 0.0
C5 C 0.8611 0.85659 0.01136 0.0
C6 C 0.16624 0.16398 0.01694 0.0
C7 C 0.16474 0.85621 1.00657 0.0
C8 C 0.16576 1.00774 0.8568 0.0
C9 C 0.85941 1.01192 0.85824 0.0
C10 C 0.1665 0.013 0.16324 0.0
C11 C 0.85559 1.01009 0.16039 0.0
Eu12 Eu 1.01256 0.89128 0.01538 0.0
O13 O 0.95682 0.95344 0.95705 0.0
O14 O 0.06936 0.956 0.06922 0.0
Eu15 Eu 0.89307 1.0113 1.01064 0.0
Eu16 Eu 0.133 1.01073 1.01049 0.0
O17 O 0.9559 0.95624 0.06898 0.0
O18 O 0.06892 0.95311 0.95709 0.0
Eu19 Eu 1.01206 0.01311 0.13139 0.0
Eu20 Eu 0.01311 1.00751 0.89202 0.0
O21 O 0.95584 0.06849 0.0671 0.0
O22 O 0.95753 0.06602 0.95418 0.0
O23 O 0.06894 0.066 0.95407 0.0
O24 O 0.06831 0.06663 0.0657 0.0
Eu25 Eu 1.01299 0.13053 1.01008 0.0
O26 O 1.01297 0.84162 0.11149 0.0
O27 O 1.00455 0.83589 0.92436 0.0
O28 O 0.0141 0.18515 0.10277 0.0
O29 O 0.01716 0.18209 0.91612 0.0
O30 O 0.84025 0.10484 0.01465 0.0
O31 O 0.84137 0.91654 1.00752 0.0
O32 O 0.18625 0.10428 0.0122 0.0
O33 O 0.18496 0.91612 1.00712 0.0
O34 O 0.10594 0.99865 0.83923 0.0
O35 O 0.91928 1.00358 0.83946 0.0
O36 O 0.10645 0.01235 0.18333 0.0
O37 O 0.9154 0.01386 0.18111 0.0
O38 O 0.10596 0.18253 0.01854 0.0
O39 O 0.91998 0.18399 1.00914 0.0
O40 O 0.10472 0.83728 1.01012 0.0
O41 O 0.92083 0.83739 0.01573 0.0
O42 O 0.01474 0.91206 0.84268 0.0
O43 O 0.01613 0.10107 0.8383 0.0
O44 O 1.01088 0.92309 0.18846 0.0
O45 O 0.01852 0.10643 0.18266 0.0
O46 O 0.83728 1.00837 0.10059 0.0
O47 O 0.84081 0.01958 0.91783 0.0
O48 O 0.18572 0.01285 0.10325 0.0
O49 O 0.18485 0.01701 0.91612 0.0
C50 C 0.01489 0.35382 0.66156 0.0
C51 C 0.01394 0.66288 0.66651 0.0
C52 C 0.01689 0.35778 0.35963 0.0
C53 C 1.01112 0.66475 0.35984 0.0
C54 C 0.16115 0.50834 0.3525 0.0
C55 C 0.17325 0.50804 0.65903 0.0
C56 C 0.85609 0.50957 0.36391 0.0
C57 C 0.86726 0.51491 0.67222 0.0
C58 C 0.86378 0.6699 0.51872 0.0
C59 C 0.167 0.66632 0.51593 0.0
C60 C 0.85503 0.36463 0.50859 0.0
C61 C 0.16462 0.3582 0.51241 0.0
Eu62 Eu 0.01798 0.5099 0.63185 0.0
O63 O 0.07285 0.56666 0.5671 0.0
O64 O 0.95753 0.45665 0.56972 0.0
Eu65 Eu 0.13417 0.51144 0.50774 0.0
Eu66 Eu 0.89318 0.51556 0.51614 0.0
O67 O 0.07075 0.45515 0.565 0.0
O68 O 0.96059 0.56781 0.57068 0.0
Eu69 Eu 1.01116 0.39257 0.51159 0.0
Eu70 Eu 0.01537 0.63115 0.51349 0.0
O71 O 0.06745 0.45562 0.45488 0.0
O72 O 0.06885 0.56778 0.45412 0.0
O73 O 0.95663 0.56966 0.45774 0.0
O74 O 0.95398 0.45733 0.45846 0.0
Eu75 Eu 1.00985 0.51117 0.3931 0.0
O76 O 0.01888 0.41355 0.68217 0.0
O77 O 0.0147 0.60261 0.68527 0.0
O78 O 1.01034 0.41749 0.34003 0.0
O79 O 1.0086 0.60488 0.34015 0.0
O80 O 0.18332 0.51246 0.41146 0.0
O81 O 0.18991 0.50332 0.59853 0.0
O82 O 0.83858 0.52145 0.42337 0.0
O83 O 0.84512 0.51643 0.61308 0.0
O84 O 0.92445 0.68662 0.52146 0.0
O85 O 0.10701 0.68504 0.51851 0.0
O86 O 0.91466 0.34314 0.50719 0.0
O87 O 0.10431 0.33976 0.51605 0.0
O88 O 0.91533 0.49894 0.34514 0.0
O89 O 0.10033 0.50481 0.33667 0.0
O90 O 0.92783 0.51169 0.68913 0.0
O91 O 0.11393 0.51336 0.68052 0.0
O92 O 0.01551 0.68312 0.60692 0.0
O93 O 0.01455 0.68382 0.41976 0.0
O94 O 1.01042 0.33607 0.60167 0.0
O95 O 0.02135 0.33963 0.41961 0.0
O96 O 0.18543 0.41746 0.50647 0.0
O97 O 0.18684 0.60634 0.51137 0.0
O98 O 0.8374 0.42487 0.51288 0.0
O99 O 0.84237 0.61057 0.51522 0.0
C100 C 0.5172 0.86053 0.66252 0.0
C101 C 0.51391 0.16869 0.66019 0.0
C102 C 0.50878 0.86166 0.35588 0.0
C103 C 0.51317 0.16569 0.35629 0.0
C104 C 0.66683 1.00948 0.35722 0.0
C105 C 0.6668 0.01781 0.66211 0.0
C106 C 0.3627 0.01524 0.35336 0.0
C107 C 0.3584 1.00589 0.66028 0.0
C108 C 0.35409 0.16106 0.51291 0.0
C109 C 0.65927 0.17397 0.50454 0.0
C110 C 0.36431 0.85616 0.51364 0.0
C111 C 0.67261 0.86699 0.51772 0.0
Eu112 Eu 0.51306 0.01424 0.62877 0.0
O113 O 0.56773 0.07204 0.56532 0.0
O114 O 0.45941 0.95685 0.56445 0.0
Eu115 Eu 0.63315 0.01801 0.50946 0.0
Eu116 Eu 0.39341 1.01 0.50832 0.0
O117 O 0.57024 0.95999 0.56464 0.0
O118 O 0.45482 0.06813 0.56499 0.0
Eu119 Eu 0.51682 0.89342 0.50952 0.0
Eu120 Eu 0.50926 0.13306 0.50883 0.0
O121 O 0.57166 0.95889 0.45351 0.0
O122 O 0.56769 0.07145 0.45321 0.0
O123 O 0.45503 0.06852 0.45257 0.0
O124 O 0.45865 0.95507 0.45328 0.0
Eu125 Eu 0.51335 0.01343 0.39048 0.0
O126 O 0.52644 0.92041 0.67979 0.0
O127 O 0.50829 0.10887 0.68023 0.0
O128 O 0.4994 0.92147 0.33922 0.0
O129 O 0.5138 0.10585 0.3369 0.0
O130 O 0.68658 0.01342 0.41676 0.0
O131 O 0.68619 0.01701 0.60221 0.0
O132 O 0.34212 1.01134 0.41305 0.0
O133 O 0.33962 1.00598 0.60035 0.0
O134 O 0.41355 0.1827 0.51137 0.0
O135 O 0.59866 0.19077 0.50473 0.0
O136 O 0.42474 0.83772 0.51178 0.0
O137 O 0.61323 0.84492 0.51635 0.0
O138 O 0.42283 0.01764 0.33503 0.0
O139 O 0.60679 1.00857 0.33802 0.0
O140 O 0.41838 1.00734 0.68043 0.0
O141 O 0.60656 0.01856 0.68154 0.0
O142 O 0.51952 0.18619 0.60025 0.0
O143 O 0.51118 0.18518 0.41595 0.0
O144 O 0.50677 0.84225 0.60332 0.0
O145 O 0.52004 0.84171 0.41479 0.0
O146 O 0.68966 0.9276 0.51578 0.0
O147 O 0.68161 0.1148 0.50668 0.0
O148 O 0.34346 0.91557 0.51153 0.0
O149 O 0.33701 0.10047 0.51417 0.0
C150 C 0.51602 0.66275 0.85568 0.0
C151 C 0.50539 0.66846 0.16093 0.0
C152 C 0.51686 0.35487 0.86203 0.0
C153 C 0.51527 0.36354 0.16755 0.0
C154 C 0.66725 0.35981 0.01317 0.0
C155 C 0.66452 0.6671 0.01148 0.0
C156 C 0.35763 0.36177 0.01985 0.0
C157 C 0.36048 0.66564 1.00264 0.0
C158 C 0.35754 0.50947 0.1608 0.0
C159 C 0.66663 0.5093 0.16411 0.0
C160 C 0.36423 0.50561 0.85529 0.0
C161 C 0.66923 0.51494 0.86007 0.0
Eu162 Eu 0.51301 0.63175 1.00889 0.0
O163 O 0.57006 0.57059 0.06724 0.0
O164 O 0.45859 0.56727 0.95283 0.0
Eu165 Eu 0.633 0.51238 0.01208 0.0
Eu166 Eu 0.39425 0.5129 1.00943 0.0
O167 O 0.56998 0.56712 0.9548 0.0
O168 O 0.45639 0.56979 0.06599 0.0
Eu169 Eu 0.51587 0.5097 0.89148 0.0
Eu170 Eu 0.51277 0.51522 0.13074 0.0
O171 O 0.57039 0.45439 0.95678 0.0
O172 O 0.56762 0.45772 0.06759 0.0
O173 O 0.45771 0.45844 0.06702 0.0
O174 O 0.4575 0.4548 0.95474 0.0
Eu175 Eu 0.51231 0.39211 0.01318 0.0
O176 O 0.51857 0.68271 0.91523 0.0
O177 O 0.50338 0.68598 0.10047 0.0
O178 O 0.50811 0.33718 0.92176 0.0
O179 O 0.50833 0.34276 0.10848 0.0
O180 O 0.68659 0.41976 0.01186 0.0
O181 O 0.68455 0.60717 0.01319 0.0
O182 O 0.34115 0.42203 0.02527 0.0
O183 O 0.34089 0.60581 1.00555 0.0
O184 O 0.41733 0.50822 0.18154 0.0
O185 O 0.60686 0.51758 0.18339 0.0
O186 O 0.42455 0.50635 0.83699 0.0
O187 O 0.60966 0.51387 0.83953 0.0
O188 O 0.41699 0.34101 0.01219 0.0
O189 O 0.60707 0.33996 0.0134 0.0
O190 O 0.42042 0.68516 1.00261 0.0
O191 O 0.60458 0.68624 1.01073 0.0
O192 O 0.51002 0.60916 0.18195 0.0
O193 O 0.52203 0.42367 0.18448 0.0
O194 O 0.51287 0.60248 0.83724 0.0
O195 O 0.52305 0.41458 0.84208 0.0
O196 O 0.68766 0.51388 0.92012 0.0
O197 O 0.68493 0.50216 0.10444 0.0
O198 O 0.34329 0.50644 0.91486 0.0
O199 O 0.33945 0.5139 0.10083 0.0
C200 C 0.06811 0.2611 0.21522 0.0
C201 C 0.01885 0.21555 0.21292 0.0
C202 C 0.97554 0.25642 0.31237 0.0
C203 C 0.01968 0.30713 0.31067 0.0
N204 N 0.1103 0.35674 0.26193 0.0
N205 N 0.92118 0.17466 0.25505 0.0
C206 C 0.06637 0.3094 0.26213 0.0
C207 C 0.97177 0.21431 0.26062 0.0
N208 N 0.11856 0.25577 0.17509 0.0
N209 N 0.93733 0.24737 0.36366 0.0
H210 H 0.91618 0.14309 0.21795 0.0
H211 H 0.88143 0.17699 0.28395 0.0
H212 H 0.93372 0.27874 0.40094 0.0
H213 H 0.91196 0.20593 0.37168 0.0
H214 H 0.1594 0.28301 0.17815 0.0
H215 H 0.12219 0.22004 0.14161 0.0
H216 H 0.14003 0.36659 0.224 0.0
H217 H 0.11614 0.38749 0.29965 0.0
C218 C 0.77165 0.95236 0.22231 0.0
C219 C 0.80419 1.00919 0.20781 0.0
C220 C 0.74709 0.06477 0.29055 0.0
C221 C 0.71573 1.00807 0.30726 0.0
N222 N 0.69937 0.89652 0.29209 0.0
N223 N 0.7972 0.12226 0.20606 0.0
C224 C 0.72776 0.95145 0.27342 0.0
C225 C 0.78494 0.06637 0.23572 0.0
N226 N 0.77965 0.90086 0.18448 0.0
N227 N 0.74224 0.11694 0.32776 0.0
H228 H 0.82091 0.12441 0.16295 0.0
H229 H 0.77798 0.16516 0.22071 0.0
H230 H 0.71528 0.11765 0.36887 0.0
H231 H 0.76958 0.15729 0.32048 0.0
H232 H 0.75293 0.85974 0.18775 0.0
H233 H 0.81053 0.9009 0.14615 0.0
H234 H 0.71066 0.85217 0.27438 0.0
H235 H 0.66616 0.89468 0.32846 0.0
C236 C 0.95346 0.79447 0.24902 0.0
C237 C 1.01135 0.81511 0.22235 0.0
C238 C 0.06915 0.73895 0.2873 0.0
C239 C 1.01095 0.71514 0.31095 0.0
N240 N 0.89695 0.71419 0.30787 0.0
N241 N 0.12374 0.8249 0.23489 0.0
C242 C 0.95284 0.74136 0.29014 0.0
C243 C 0.06924 0.79221 0.24649 0.0
N244 N 0.89997 0.82919 0.23948 0.0
N245 N 0.12436 0.70906 0.30179 0.0
H246 H 0.12459 0.8661 0.20787 0.0
H247 H 0.16653 0.81527 0.25717 0.0
H248 H 0.12642 0.67092 0.33288 0.0
H249 H 0.16741 0.71942 0.28009 0.0
H250 H 0.85763 0.82122 0.26342 0.0
H251 H 0.89993 0.87009 0.21208 0.0
H252 H 0.85356 0.72582 0.28778 0.0
H253 H 0.89438 0.67724 0.34032 0.0
C254 C 0.30314 0.95912 0.26772 0.0
C255 C 0.31504 0.01516 0.30215 0.0
C256 C 0.22957 0.06924 0.24629 0.0
C257 C 0.21714 0.01339 0.21164 0.0
N258 N 0.25216 0.91045 0.17806 0.0
N259 N 0.30937 0.12849 0.30226 0.0
C260 C 0.25701 0.95982 0.21896 0.0
C261 C 0.28388 0.07182 0.28539 0.0
N262 N 0.33625 0.90538 0.28129 0.0
N263 N 0.19019 0.12015 0.24154 0.0
H264 H 0.35099 0.13172 0.32836 0.0
H265 H 0.2926 0.17165 0.28549 0.0
H266 H 0.15119 0.12116 0.2116 0.0
H267 H 0.19423 0.15977 0.27032 0.0
H268 H 0.325 0.86107 0.26333 0.0
H269 H 0.37369 0.90449 0.31311 0.0
H270 H 0.28504 0.874 0.17547 0.0
H271 H 0.21781 0.90844 0.1431 0.0
C272 C 0.0535 0.75214 0.81655 0.0
C273 C 1.00769 0.80146 0.81574 0.0
C274 C 0.96158 0.75599 0.7194 0.0
C275 C 1.01199 0.71158 0.71679 0.0
N276 N 0.1127 0.67554 0.75609 0.0
N277 N 0.91699 0.85028 0.76666 0.0
C278 C 0.05959 0.71172 0.76364 0.0
C279 C 0.96164 0.80355 0.7669 0.0
N280 N 0.09087 0.74258 0.86807 0.0
N281 N 0.91198 0.75076 0.67846 0.0
H282 H 0.9099 0.8808 0.80445 0.0
H283 H 0.88798 0.86023 0.72835 0.0
H284 H 0.9097 0.71628 0.64367 0.0
H285 H 0.87038 0.77678 0.68195 0.0
H286 H 0.11863 0.70238 0.87412 0.0
H287 H 0.09102 0.77177 0.90722 0.0
H288 H 0.15261 0.67976 0.78449 0.0
H289 H 0.11978 0.64575 0.71769 0.0
C290 C 0.26599 0.96354 0.80785 0.0
C291 C 0.21479 1.00723 0.8058 0.0
C292 C 0.26058 0.05293 0.70933 0.0
C293 C 0.3076 1.00531 0.70873 0.0
N294 N 0.33711 0.90159 0.74392 0.0
N295 N 0.15584 0.08254 0.74213 0.0
C296 C 0.3054 0.95667 0.75418 0.0
C297 C 0.20949 0.04836 0.75266 0.0
N298 N 0.27784 0.92825 0.86031 0.0
N299 N 0.26542 0.10385 0.67003 0.0
H300 H 0.1175 0.08351 0.77262 0.0
H301 H 0.14748 0.10666 0.70009 0.0
H302 H 0.30209 0.10906 0.6377 0.0
H303 H 0.23636 0.14345 0.67368 0.0
H304 H 0.31849 0.90071 0.86485 0.0
H305 H 0.2502 0.92965 0.90077 0.0
H306 H 0.33086 0.86175 0.77226 0.0
H307 H 0.36404 0.89386 0.7034 0.0
C308 C 0.95911 0.27643 0.73224 0.0
C309 C 0.01643 0.302 0.70901 0.0
C310 C 0.07601 0.22992 0.77783 0.0
C311 C 0.0182 0.2103 0.80622 0.0
N312 N 0.90562 0.22454 0.81858 0.0
N313 N 0.12845 0.28926 0.69436 0.0
C314 C 0.96001 0.23628 0.78571 0.0
C315 C 0.07492 0.27511 0.72778 0.0
N316 N 0.90428 0.2859 0.69986 0.0
N317 N 0.13195 0.20693 0.80031 0.0
H318 H 0.12824 0.32035 0.65619 0.0
H319 H 0.17193 0.26726 0.70082 0.0
H320 H 0.13412 0.172 0.83493 0.0
H321 H 0.17622 0.22405 0.78729 0.0
H322 H 0.86233 0.2622 0.71046 0.0
H323 H 0.90274 0.31196 0.65817 0.0
H324 H 0.86312 0.24767 0.80926 0.0
H325 H 0.90428 0.19557 0.85836 0.0
C326 C 0.76555 0.06235 0.71216 0.0
C327 C 0.71667 0.01631 0.71162 0.0
C328 C 0.75682 0.9723 0.81082 0.0
C329 C 0.80944 0.01433 0.80847 0.0
N330 N 0.86634 0.09687 0.75332 0.0
N331 N 0.67573 0.91786 0.75192 0.0
C332 C 0.81471 0.05826 0.75778 0.0
C333 C 0.71488 0.96881 0.75874 0.0
N334 N 0.76348 0.11196 0.67095 0.0
N335 N 0.74602 0.93559 0.8627 0.0
H336 H 0.64624 0.91195 0.71317 0.0
H337 H 0.67764 0.87808 0.78085 0.0
H338 H 0.77658 0.93285 0.90078 0.0
H339 H 0.70398 0.91085 0.86993 0.0
H340 H 0.79288 0.15129 0.67384 0.0
H341 H 0.72885 0.11648 0.63655 0.0
H342 H 0.87763 0.12284 0.71312 0.0
H343 H 0.89985 0.10113 0.78878 0.0
C344 C 0.25032 0.32011 0.98594 0.0
C345 C 0.30567 0.3139 0.02376 0.0
C346 C 0.26366 0.21338 0.06552 0.0
C347 C 0.21469 0.21508 0.01979 0.0
N348 N 0.16703 0.26697 0.93026 0.0
N349 N 0.36199 0.25696 0.1049 0.0
C350 C 0.20938 0.26774 0.97877 0.0
C351 C 0.31167 0.26083 0.06476 0.0
N352 N 0.23478 0.37597 0.9575 0.0
N353 N 0.2619 0.16894 0.11231 0.0
H354 H 0.39194 0.29494 0.11386 0.0
H355 H 0.37464 0.21591 0.12882 0.0
H356 H 0.22617 0.13529 0.11587 0.0
H357 H 0.29211 0.16864 0.15093 0.0
H358 H 0.19004 0.38469 0.93884 0.0
H359 H 0.26334 0.41562 0.95527 0.0
H360 H 0.16724 0.30003 0.89379 0.0
H361 H 0.13542 0.23028 0.92278 0.0
C362 C 0.27954 0.73113 0.94526 0.0
C363 C 0.31104 0.71496 1.00205 0.0
C364 C 0.23743 0.78077 0.06092 0.0
C365 C 0.2133 0.80573 1.00406 0.0
N366 N 0.21367 0.80719 0.89046 0.0
N367 N 0.32844 0.7359 0.11248 0.0
C368 C 0.2352 0.7818 0.94553 0.0
C369 C 0.2928 0.74349 0.05945 0.0
N370 N 0.29074 0.6972 0.89174 0.0
N371 N 0.20526 0.78907 0.11591 0.0
H372 H 0.36994 0.7093 0.11324 0.0
H373 H 0.31922 0.76026 0.15416 0.0
H374 H 0.16221 0.81295 0.11757 0.0
H375 H 0.21809 0.76666 0.15776 0.0
H376 H 0.26485 0.70276 0.85042 0.0
H377 H 0.32285 0.65987 0.89037 0.0
H378 H 0.23255 0.79601 0.84649 0.0
H379 H 0.17928 0.84251 0.88917 0.0
C380 C 0.75295 0.29886 0.06884 0.0
C381 C 0.71764 0.31088 0.01325 0.0
C382 C 0.77327 0.22519 0.95878 0.0
C383 C 0.81069 0.21477 0.01324 0.0
N384 N 0.84374 0.24771 0.11689 0.0
N385 N 0.70743 0.29853 0.90113 0.0
C386 C 0.80287 0.25354 0.06736 0.0
C387 C 0.73141 0.27759 0.95704 0.0
N388 N 0.73806 0.33006 0.12324 0.0
N389 N 0.77739 0.18498 0.90862 0.0
H390 H 0.67683 0.33699 0.89828 0.0
H391 H 0.72164 0.28105 0.85749 0.0
H392 H 0.80929 0.14752 0.90665 0.0
H393 H 0.74613 0.18617 0.87075 0.0
H394 H 0.75658 0.31843 0.16715 0.0
H395 H 0.70371 0.36534 0.12533 0.0
H396 H 0.84509 0.27878 0.15479 0.0
H397 H 0.87938 0.21374 0.11849 0.0
C398 C 0.78083 0.79155 0.95402 0.0
C399 C 0.8123 0.80651 1.01087 0.0
C400 C 0.74575 0.73111 0.06833 0.0
C401 C 0.71337 0.7171 0.01173 0.0
N402 N 0.68846 0.74622 0.90459 0.0
N403 N 0.83729 0.77756 0.11781 0.0
C404 C 0.72753 0.75079 0.95557 0.0
C405 C 0.79822 0.77279 0.06693 0.0
N406 N 0.80527 0.81192 0.89791 0.0
N407 N 0.72354 0.70812 0.12431 0.0
H408 H 0.87634 0.80748 0.11864 0.0
H409 H 0.83427 0.74791 0.15693 0.0
H410 H 0.68592 0.67638 0.12726 0.0
H411 H 0.73924 0.7239 0.16803 0.0
H412 H 0.78885 0.79658 0.8543 0.0
H413 H 0.84588 0.83983 0.89509 0.0
H414 H 0.69255 0.77513 0.86499 0.0
H415 H 0.64878 0.717 0.90378 0.0
C416 C 0.75407 0.57308 0.80014 0.0
C417 C 0.71994 0.51642 0.81201 0.0
C418 C 0.79411 0.4586 0.7459 0.0
C419 C 0.82029 0.51596 0.72425 0.0
N420 N 0.83115 0.62842 0.73504 0.0
N421 N 0.70212 0.40636 0.78851 0.0
C422 C 0.80196 0.57365 0.75268 0.0
C423 C 0.73818 0.45952 0.78241 0.0
N424 N 0.74155 0.62561 0.83516 0.0
N425 N 0.82572 0.40353 0.73628 0.0
H426 H 0.6599 0.40542 0.81398 0.0
H427 H 0.71136 0.36508 0.76344 0.0
H428 H 0.86931 0.40253 0.71328 0.0
H429 H 0.81224 0.36113 0.7575 0.0
H430 H 0.76851 0.66668 0.83346 0.0
H431 H 0.70604 0.62651 0.86926 0.0
H432 H 0.81604 0.67314 0.74866 0.0
H433 H 0.86947 0.62898 0.70403 0.0
C434 C 0.27505 0.54981 0.70626 0.0
C435 C 0.22486 0.50493 0.70689 0.0
C436 C 0.27467 0.45323 0.79787 0.0
C437 C 0.31661 0.5049 0.80416 0.0
N438 N 0.35178 0.60728 0.76797 0.0
N439 N 0.17572 0.41442 0.75697 0.0
C440 C 0.31558 0.55448 0.75926 0.0
C441 C 0.22408 0.45704 0.75408 0.0
N442 N 0.2858 0.58702 0.65481 0.0
N443 N 0.28566 0.39867 0.83041 0.0
H444 H 0.14022 0.4119 0.72326 0.0
H445 H 0.16921 0.3837 0.79489 0.0
H446 H 0.3234 0.39355 0.86157 0.0
H447 H 0.26119 0.35681 0.82193 0.0
H448 H 0.32653 0.61433 0.64952 0.0
H449 H 0.25742 0.58709 0.615 0.0
H450 H 0.34706 0.64791 0.74056 0.0
H451 H 0.38229 0.61291 0.80605 0.0
C452 C 0.25211 0.45464 0.29633 0.0
C453 C 0.20813 0.50534 0.29994 0.0
C454 C 0.26283 0.55826 0.21275 0.0
C455 C 0.30579 0.50727 0.2082 0.0
N456 N 0.32268 0.39659 0.22749 0.0
N457 N 0.15749 0.58975 0.24129 0.0
C458 C 0.29546 0.45231 0.24494 0.0
C459 C 0.20894 0.55249 0.25211 0.0
N460 N 0.25157 0.40775 0.34057 0.0
N461 N 0.27357 0.61283 0.18014 0.0
H462 H 0.11548 0.58624 0.26645 0.0
H463 H 0.15412 0.61961 0.20231 0.0
H464 H 0.31207 0.61859 0.15 0.0
H465 H 0.24724 0.65379 0.18747 0.0
H466 H 0.28674 0.37335 0.3433 0.0
H467 H 0.21771 0.405 0.37622 0.0
H468 H 0.31118 0.35347 0.24836 0.0
H469 H 0.35221 0.39283 0.18817 0.0
C470 C 0.77194 0.54543 0.208 0.0
C471 C 0.71708 0.50685 0.21327 0.0
C472 C 0.75128 0.47196 0.31851 0.0
C473 C 0.80685 0.50984 0.31315 0.0
N474 N 0.87377 0.57654 0.24803 0.0
N475 N 0.66628 0.41845 0.26379 0.0
C476 C 0.81832 0.54428 0.25634 0.0
C477 C 0.70976 0.46624 0.26604 0.0
N478 N 0.77901 0.58571 0.15807 0.0
N479 N 0.73816 0.44025 0.37311 0.0
H480 H 0.63856 0.40983 0.22422 0.0
H481 H 0.66301 0.38273 0.29744 0.0
H482 H 0.76942 0.43687 0.41059 0.0
H483 H 0.69447 0.41946 0.38253 0.0
H484 H 0.81309 0.6211 0.15575 0.0
H485 H 0.74867 0.58742 0.11985 0.0
H486 H 0.89093 0.59091 0.20426 0.0
H487 H 0.90453 0.58736 0.28433 0.0
C488 C 0.27632 0.79843 0.46094 0.0
C489 C 0.31481 0.80668 0.51481 0.0
C490 C 0.24973 0.73006 0.57298 0.0
C491 C 0.2155 0.71731 0.51712 0.0
N492 N 0.17845 0.75908 0.41838 0.0
N493 N 0.34134 0.77862 0.62173 0.0
C494 C 0.22382 0.75691 0.46384 0.0
C495 C 0.30242 0.77202 0.57086 0.0
N496 N 0.29128 0.82869 0.40598 0.0
N497 N 0.22755 0.70739 0.6291 0.0
H498 H 0.37898 0.81042 0.62255 0.0
H499 H 0.33897 0.74973 0.66144 0.0
H500 H 0.18737 0.67891 0.63211 0.0
H501 H 0.2454 0.72085 0.67275 0.0
H502 H 0.27026 0.81811 0.36294 0.0
H503 H 0.32856 0.86064 0.40239 0.0
H504 H 0.17724 0.79341 0.3832 0.0
H505 H 0.13765 0.73181 0.42045 0.0
C506 C 0.25437 0.30149 0.56533 0.0
C507 C 0.21259 0.30747 0.51338 0.0
C508 C 0.2575 0.21235 0.46545 0.0
C509 C 0.30254 0.20882 0.51493 0.0
N510 N 0.33066 0.23691 0.62096 0.0
N511 N 0.18026 0.27525 0.40942 0.0
C512 C 0.29774 0.25018 0.56723 0.0
C513 C 0.2153 0.26435 0.4625 0.0
N514 N 0.25353 0.34563 0.61226 0.0
N515 N 0.25268 0.16454 0.42277 0.0
H516 H 0.14905 0.31309 0.40498 0.0
H517 H 0.18631 0.25048 0.36749 0.0
H518 H 0.2832 0.12615 0.42171 0.0
H519 H 0.21478 0.15987 0.39188 0.0
H520 H 0.28798 0.34897 0.64705 0.0
H521 H 0.21986 0.38142 0.61476 0.0
H522 H 0.32286 0.25939 0.66385 0.0
H523 H 0.36241 0.19938 0.62433 0.0
C524 C 0.77103 0.72594 0.56915 0.0
C525 C 0.81648 0.72219 0.51977 0.0
C526 C 0.76893 0.81572 0.47003 0.0
C527 C 0.72476 0.81995 0.52018 0.0
N528 N 0.70162 0.79488 0.62821 0.0
N529 N 0.86833 0.77483 0.43219 0.0
C530 C 0.7307 0.77947 0.57288 0.0
C531 C 0.81859 0.77067 0.47314 0.0
N532 N 0.76629 0.67895 0.61299 0.0
N533 N 0.76262 0.85353 0.41826 0.0
H534 H 0.90415 0.74151 0.42947 0.0
H535 H 0.87668 0.81411 0.40371 0.0
H536 H 0.72894 0.88913 0.41529 0.0
H537 H 0.7881 0.84694 0.37672 0.0
H538 H 0.72941 0.67648 0.64555 0.0
H539 H 0.79665 0.64035 0.61437 0.0
H540 H 0.71002 0.77113 0.67044 0.0
H541 H 0.67374 0.83525 0.63292 0.0
C542 C 0.72359 0.25388 0.56315 0.0
C543 C 0.7056 0.22645 0.50508 0.0
C544 C 0.78132 0.29356 0.44849 0.0
C545 C 0.80273 0.31782 0.50696 0.0
N546 N 0.78064 0.3372 0.61649 0.0
N547 N 0.69716 0.23947 0.39289 0.0
C548 C 0.76986 0.30265 0.56342 0.0
C549 C 0.7287 0.25167 0.44761 0.0
N550 N 0.69556 0.234 0.61784 0.0
N551 N 0.81037 0.31146 0.39375 0.0
H552 H 0.65666 0.21135 0.39155 0.0
H553 H 0.70719 0.26177 0.35025 0.0
H554 H 0.84556 0.34601 0.39212 0.0
H555 H 0.80168 0.29004 0.35049 0.0
H556 H 0.71125 0.24638 0.66259 0.0
H557 H 0.65782 0.20225 0.6187 0.0
H558 H 0.75309 0.33392 0.65699 0.0
H559 H 0.81388 0.37342 0.61809 0.0
C560 C 0.55424 0.2505 0.81501 0.0
C561 C 0.51509 0.30517 0.81214 0.0
C562 C 0.48085 0.2753 0.70564 0.0
C563 C 0.51789 0.21915 0.70934 0.0
N564 N 0.60653 0.16662 0.75758 0.0
N565 N 0.42712 0.35786 0.76271 0.0
C566 C 0.55879 0.21008 0.76163 0.0
C567 C 0.47502 0.31456 0.75942 0.0
N568 N 0.58579 0.23551 0.8691 0.0
N569 N 0.45315 0.29374 0.65048 0.0
H570 H 0.41838 0.3849 0.80266 0.0
H571 H 0.39125 0.36138 0.72928 0.0
H572 H 0.45265 0.26749 0.60936 0.0
H573 H 0.4343 0.33871 0.64373 0.0
H574 H 0.60734 0.19195 0.87669 0.0
H575 H 0.58704 0.26417 0.90866 0.0
H576 H 0.64269 0.16245 0.79055 0.0
H577 H 0.615 0.14009 0.71714 0.0
C578 C 0.551 0.75154 0.70273 0.0
C579 C 0.51851 0.81016 0.71288 0.0
C580 C 0.47719 0.76626 0.81229 0.0
C581 C 0.5163 0.71247 0.80593 0.0
N582 N 0.60429 0.66371 0.75253 0.0
N583 N 0.46345 0.87623 0.79019 0.0
C584 C 0.55696 0.70767 0.75319 0.0
C585 C 0.48608 0.81878 0.77161 0.0
N586 N 0.57709 0.73665 0.64576 0.0
N587 N 0.42877 0.76635 0.85506 0.0
H588 H 0.46202 0.91656 0.76259 0.0
H589 H 0.44812 0.8846 0.83618 0.0
H590 H 0.41794 0.72742 0.88308 0.0
H591 H 0.39486 0.80204 0.85716 0.0
H592 H 0.59241 0.69113 0.63492 0.0
H593 H 0.58203 0.76772 0.60832 0.0
H594 H 0.63952 0.66268 0.71813 0.0
H595 H 0.61295 0.63318 0.79003 0.0
C596 C 0.45898 0.71688 0.25924 0.0
C597 C 0.50334 0.71962 0.20895 0.0
C598 C 0.54179 0.82146 0.24827 0.0
C599 C 0.50506 0.81379 0.30426 0.0
N600 N 0.42637 0.7541 0.3621 0.0
N601 N 0.59324 0.77115 0.16052 0.0
C602 C 0.46331 0.76115 0.30964 0.0
C603 C 0.54598 0.77118 0.20456 0.0
N604 N 0.41025 0.67444 0.25685 0.0
N605 N 0.57234 0.87689 0.23522 0.0
H606 H 0.59832 0.73638 0.12653 0.0
H607 H 0.63103 0.80278 0.16115 0.0
H608 H 0.57652 0.91435 0.2662 0.0
H609 H 0.59069 0.88763 0.19084 0.0
H610 H 0.37225 0.67439 0.28814 0.0
H611 H 0.40419 0.64301 0.21964 0.0
H612 H 0.40186 0.71277 0.37285 0.0
H613 H 0.42162 0.78887 0.3963 0.0
C614 C 0.46846 0.26414 0.30966 0.0
C615 C 0.51432 0.21556 0.30747 0.0
C616 C 0.56176 0.2641 0.21355 0.0
C617 C 0.51811 0.3151 0.21841 0.0
N618 N 0.44362 0.37185 0.285 0.0
N619 N 0.61285 0.17595 0.26558 0.0
C620 C 0.47586 0.3179 0.27069 0.0
C621 C 0.56315 0.21706 0.26146 0.0
N622 N 0.41588 0.25791 0.34689 0.0
N623 N 0.60316 0.26133 0.1641 0.0
H624 H 0.61654 0.1418 0.30074 0.0
H625 H 0.65344 0.17927 0.2379 0.0
H626 H 0.60989 0.29851 0.13269 0.0
H627 H 0.62951 0.22132 0.15296 0.0
H628 H 0.37753 0.28875 0.34453 0.0
H629 H 0.40729 0.21851 0.37517 0.0
H630 H 0.41922 0.3777 0.32734 0.0
H631 H 0.44461 0.4127 0.25801 0.0
loop_
_geom_bond_atom_site_label_1
_geom_bond_atom_site_label_2
_geom_bond_distance
_geom_bond_site_symmetry_2
_ccdc_geom_bond_type
C0 O26 1.283 . S
C0 O44 1.283 . S
C1 O27 1.283 . S
C1 O42 1.283 . S
C2 O28 1.283 . S
C2 O45 1.283 . S
C3 O29 1.283 . S
C3 O43 1.283 . S
C4 O30 1.283 . S
C4 O39 1.283 . S
C5 O31 1.283 . S
C5 O41 1.283 . S
C6 O32 1.283 . S
C6 O38 1.283 . S
C7 O33 1.283 . S
C7 O40 1.283 . S
C8 O34 1.283 . S
C8 O49 1.283 . S
C9 O35 1.283 . S
C9 O47 1.283 . S
C10 O36 1.283 . S
C10 O48 1.283 . S
C11 O37 1.283 . S
C11 O46 1.283 . S
Eu12 O13 2.370 1_454 S
Eu12 O14 2.370 . S
Eu12 O17 2.370 1_455 S
Eu12 O18 2.370 1_554 S
Eu12 O26 2.363 . S
Eu12 O27 2.363 1_554 S
Eu12 O40 2.363 . S
Eu12 O41 2.363 1_455 S
O13 Eu12 2.370 1_656 S
O13 Eu15 2.370 1_566 S
O13 Eu20 2.370 1_665 S
O14 Eu12 2.370 . S
O14 Eu16 2.370 1_565 S
O14 Eu19 2.370 1_565 S
Eu15 O13 2.370 1_544 S
Eu15 O17 2.370 1_545 S
Eu15 O21 2.370 . S
Eu15 O22 2.370 1_554 S
Eu15 O30 2.363 . S
Eu15 O31 2.363 1_545 S
Eu15 O46 2.363 . S
Eu15 O47 2.363 1_554 S
Eu16 O14 2.370 1_545 S
Eu16 O18 2.370 1_544 S
Eu16 O23 2.370 1_554 S
Eu16 O24 2.370 . S
Eu16 O32 2.363 . S
Eu16 O33 2.363 1_545 S
Eu16 O48 2.363 . S
Eu16 O49 2.363 1_554 S
O17 Eu12 2.370 1_655 S
O17 Eu15 2.370 1_565 S
O17 Eu19 2.370 1_665 S
O18 Eu12 2.370 1_556 S
O18 Eu16 2.370 1_566 S
O18 Eu20 2.370 1_565 S
Eu19 O14 2.370 1_545 S
Eu19 O17 2.370 1_445 S
Eu19 O21 2.370 1_455 S
Eu19 O24 2.370 . S
Eu19 O36 2.363 . S
Eu19 O37 2.363 1_455 S
Eu19 O44 2.363 1_545 S
Eu19 O45 2.363 . S
Eu20 O13 2.370 1_445 S
Eu20 O18 2.370 1_545 S
Eu20 O22 2.370 1_455 S
Eu20 O23 2.370 . S
Eu20 O34 2.363 . S
Eu20 O35 2.363 1_455 S
Eu20 O42 2.363 1_545 S
Eu20 O43 2.363 . S
O21 Eu15 2.370 . S
O21 Eu19 2.370 1_655 S
O21 Eu25 2.370 1_655 S
O22 Eu15 2.370 1_556 S
O22 Eu20 2.370 1_655 S
O22 Eu25 2.370 1_656 S
O23 Eu16 2.370 1_556 S
O23 Eu20 2.370 . S
O23 Eu25 2.370 1_556 S
O24 Eu16 2.370 . S
O24 Eu19 2.370 . S
O24 Eu25 2.370 . S
Eu25 O21 2.370 1_455 S
Eu25 O22 2.370 1_454 S
Eu25 O23 2.370 1_554 S
Eu25 O24 2.370 . S
Eu25 O28 2.363 . S
Eu25 O29 2.363 1_554 S
Eu25 O38 2.363 . S
Eu25 O39 2.363 1_455 S
O26 C0 1.283 . S
O26 Eu12 2.363 . S
O27 C1 1.283 . S
O27 Eu12 2.363 1_556 S
O28 C2 1.283 . S
O28 Eu25 2.363 . S
O29 C3 1.283 . S
O29 Eu25 2.363 1_556 S
O30 C4 1.283 . S
O30 Eu15 2.363 . S
O31 C5 1.283 . S
O31 Eu15 2.363 1_565 S
O32 C6 1.283 . S
O32 Eu16 2.363 . S
O33 C7 1.283 . S
O33 Eu16 2.363 1_565 S
O34 C8 1.283 . S
O34 Eu20 2.363 . S
O35 C9 1.283 . S
O35 Eu20 2.363 1_655 S
O36 C10 1.283 . S
O36 Eu19 2.363 . S
O37 C11 1.283 . S
O37 Eu19 2.363 1_655 S
O38 C6 1.283 . S
O38 Eu25 2.363 . S
O39 C4 1.283 . S
O39 Eu25 2.363 1_655 S
O40 C7 1.283 . S
O40 Eu12 2.363 . S
O41 C5 1.283 . S
O41 Eu12 2.363 1_655 S
O42 C1 1.283 . S
O42 Eu20 2.363 1_565 S
O43 C3 1.283 . S
O43 Eu20 2.363 . S
O44 C0 1.283 . S
O44 Eu19 2.363 1_565 S
O45 C2 1.283 . S
O45 Eu19 2.363 . S
O46 C11 1.283 . S
O46 Eu15 2.363 . S
O47 C9 1.283 . S
O47 Eu15 2.363 1_556 S
O48 C10 1.283 . S
O48 Eu16 2.363 . S
O49 C8 1.283 . S
O49 Eu16 2.363 1_556 S
C50 O76 1.283 . S
C50 O94 1.283 . S
C51 O77 1.283 . S
C51 O92 1.283 . S
C52 O78 1.283 . S
C52 O95 1.283 . S
C53 O79 1.283 . S
C53 O93 1.283 . S
C54 O80 1.283 . S
C54 O89 1.283 . S
C55 O81 1.283 . S
C55 O91 1.283 . S
C56 O82 1.283 . S
C56 O88 1.283 . S
C57 O83 1.283 . S
C57 O90 1.283 . S
C58 O84 1.283 . S
C58 O99 1.283 . S
C59 O85 1.283 . S
C59 O97 1.283 . S
C60 O86 1.283 . S
C60 O98 1.283 . S
C61 O87 1.283 . S
C61 O96 1.283 . S
Eu62 O63 2.370 . S
Eu62 O64 2.370 1_455 S
Eu62 O67 2.370 . S
Eu62 O68 2.370 1_455 S
Eu62 O76 2.363 . S
Eu62 O77 2.363 . S
Eu62 O90 2.363 1_455 S
Eu62 O91 2.363 . S
O63 Eu62 2.370 . S
O63 Eu65 2.370 . S
O63 Eu70 2.370 . S
O64 Eu62 2.370 1_655 S
O64 Eu66 2.370 . S
O64 Eu69 2.370 1_655 S
Eu65 O63 2.370 . S
Eu65 O67 2.370 . S
Eu65 O71 2.370 . S
Eu65 O72 2.370 . S
Eu65 O80 2.363 . S
Eu65 O81 2.363 . S
Eu65 O96 2.363 . S
Eu65 O97 2.363 . S
Eu66 O64 2.370 . S
Eu66 O68 2.370 . S
Eu66 O73 2.370 . S
Eu66 O74 2.370 . S
Eu66 O82 2.363 . S
Eu66 O83 2.363 . S
Eu66 O98 2.363 . S
Eu66 O99 2.363 . S
O67 Eu62 2.370 . S
O67 Eu65 2.370 . S
O67 Eu69 2.370 . S
O68 Eu62 2.370 1_655 S
O68 Eu66 2.370 . S
O68 Eu70 2.370 1_655 S
Eu69 O64 2.370 1_455 S
Eu69 O67 2.370 . S
Eu69 O71 2.370 . S
Eu69 O74 2.370 1_455 S
Eu69 O86 2.363 1_455 S
Eu69 O87 2.363 . S
Eu69 O94 2.363 . S
Eu69 O95 2.363 . S
Eu70 O63 2.370 . S
Eu70 O68 2.370 1_455 S
Eu70 O72 2.370 . S
Eu70 O73 2.370 1_455 S
Eu70 O84 2.363 1_455 S
Eu70 O85 2.363 . S
Eu70 O92 2.363 . S
Eu70 O93 2.363 . S
O71 Eu65 2.370 . S
O71 Eu69 2.370 . S
O71 Eu75 2.370 . S
O72 Eu65 2.370 . S
O72 Eu70 2.370 . S
O72 Eu75 2.370 . S
O73 Eu66 2.370 . S
O73 Eu70 2.370 1_655 S
O73 Eu75 2.370 1_655 S
O74 Eu66 2.370 . S
O74 Eu69 2.370 1_655 S
O74 Eu75 2.370 1_655 S
Eu75 O71 2.370 . S
Eu75 O72 2.370 . S
Eu75 O73 2.370 1_455 S
Eu75 O74 2.370 1_455 S
Eu75 O78 2.363 . S
Eu75 O79 2.363 . S
Eu75 O88 2.363 1_455 S
Eu75 O89 2.363 . S
O76 C50 1.283 . S
O76 Eu62 2.363 . S
O77 C51 1.283 . S
O77 Eu62 2.363 . S
O78 C52 1.283 . S
O78 Eu75 2.363 . S
O79 C53 1.283 . S
O79 Eu75 2.363 . S
O80 C54 1.283 . S
O80 Eu65 2.363 . S
O81 C55 1.283 . S
O81 Eu65 2.363 . S
O82 C56 1.283 . S
O82 Eu66 2.363 . S
O83 C57 1.283 . S
O83 Eu66 2.363 . S
O84 C58 1.283 . S
O84 Eu70 2.363 1_655 S
O85 C59 1.283 . S
O85 Eu70 2.363 . S
O86 C60 1.283 . S
O86 Eu69 2.363 1_655 S
O87 C61 1.283 . S
O87 Eu69 2.363 . S
O88 C56 1.283 . S
O88 Eu75 2.363 1_655 S
O89 C54 1.283 . S
O89 Eu75 2.363 . S
O90 C57 1.283 . S
O90 Eu62 2.363 1_655 S
O91 C55 1.283 . S
O91 Eu62 2.363 . S
O92 C51 1.283 . S
O92 Eu70 2.363 . S
O93 C53 1.283 . S
O93 Eu70 2.363 . S
O94 C50 1.283 . S
O94 Eu69 2.363 . S
O95 C52 1.283 . S
O95 Eu69 2.363 . S
O96 C61 1.283 . S
O96 Eu65 2.363 . S
O97 C59 1.283 . S
O97 Eu65 2.363 . S
O98 C60 1.283 . S
O98 Eu66 2.363 . S
O99 C58 1.283 . S
O99 Eu66 2.363 . S
C100 O126 1.283 . S
C100 O144 1.283 . S
C101 O127 1.283 . S
C101 O142 1.283 . S
C102 O128 1.283 . S
C102 O145 1.283 . S
C103 O129 1.283 . S
C103 O143 1.283 . S
C104 O130 1.283 . S
C104 O139 1.283 . S
C105 O131 1.283 . S
C105 O141 1.283 . S
C106 O132 1.283 . S
C106 O138 1.283 . S
C107 O133 1.283 . S
C107 O140 1.283 . S
C108 O134 1.283 . S
C108 O149 1.283 . S
C109 O135 1.283 . S
C109 O147 1.283 . S
C110 O136 1.283 . S
C110 O148 1.283 . S
C111 O137 1.283 . S
C111 O146 1.283 . S
Eu112 O113 2.370 . S
Eu112 O114 2.370 1_545 S
Eu112 O117 2.370 1_545 S
Eu112 O118 2.370 . S
Eu112 O126 2.363 1_545 S
Eu112 O127 2.363 . S
Eu112 O140 2.363 . S
Eu112 O141 2.363 . S
O113 Eu112 2.370 . S
O113 Eu115 2.370 . S
O113 Eu120 2.370 . S
O114 Eu112 2.370 1_565 S
O114 Eu116 2.370 1_565 S
O114 Eu119 2.370 . S
Eu115 O113 2.370 . S
Eu115 O117 2.370 1_545 S
Eu115 O121 2.370 1_545 S
Eu115 O122 2.370 . S
Eu115 O130 2.363 . S
Eu115 O131 2.363 . S
Eu115 O146 2.363 1_545 S
Eu115 O147 2.363 . S
Eu116 O114 2.370 1_545 S
Eu116 O118 2.370 . S
Eu116 O123 2.370 . S
Eu116 O124 2.370 1_545 S
Eu116 O132 2.363 . S
Eu116 O133 2.363 . S
Eu116 O148 2.363 1_545 S
Eu116 O149 2.363 . S
O117 Eu112 2.370 1_565 S
O117 Eu115 2.370 1_565 S
O117 Eu119 2.370 . S
O118 Eu112 2.370 . S
O118 Eu116 2.370 . S
O118 Eu120 2.370 . S
Eu119 O114 2.370 . S
Eu119 O117 2.370 . S
Eu119 O121 2.370 . S
Eu119 O124 2.370 . S
Eu119 O136 2.363 . S
Eu119 O137 2.363 . S
Eu119 O144 2.363 . S
Eu119 O145 2.363 . S
Eu120 O113 2.370 . S
Eu120 O118 2.370 . S
Eu120 O122 2.370 . S
Eu120 O123 2.370 . S
Eu120 O134 2.363 . S
Eu120 O135 2.363 . S
Eu120 O142 2.363 . S
Eu120 O143 2.363 . S
O121 Eu115 2.370 1_565 S
O121 Eu119 2.370 . S
O121 Eu125 2.370 1_565 S
O122 Eu115 2.370 . S
O122 Eu120 2.370 . S
O122 Eu125 2.370 . S
O123 Eu116 2.370 . S
O123 Eu120 2.370 . S
O123 Eu125 2.370 . S
O124 Eu116 2.370 1_565 S
O124 Eu119 2.370 . S
O124 Eu125 2.370 1_565 S
Eu125 O121 2.370 1_545 S
Eu125 O122 2.370 . S
Eu125 O123 2.370 . S
Eu125 O124 2.370 1_545 S
Eu125 O128 2.363 1_545 S
Eu125 O129 2.363 . S
Eu125 O138 2.363 . S
Eu125 O139 2.363 . S
O126 C100 1.283 . S
O126 Eu112 2.363 1_565 S
O127 C101 1.283 . S
O127 Eu112 2.363 . S
O128 C102 1.283 . S
O128 Eu125 2.363 1_565 S
O129 C103 1.283 . S
O129 Eu125 2.363 . S
O130 C104 1.283 . S
O130 Eu115 2.363 . S
O131 C105 1.283 . S
O131 Eu115 2.363 . S
O132 C106 1.283 . S
O132 Eu116 2.363 . S
O133 C107 1.283 . S
O133 Eu116 2.363 . S
O134 C108 1.283 . S
O134 Eu120 2.363 . S
O135 C109 1.283 . S
O135 Eu120 2.363 . S
O136 C110 1.283 . S
O136 Eu119 2.363 . S
O137 C111 1.283 . S
O137 Eu119 2.363 . S
O138 C106 1.283 . S
O138 Eu125 2.363 . S
O139 C104 1.283 . S
O139 Eu125 2.363 . S
O140 C107 1.283 . S
O140 Eu112 2.363 . S
O141 C105 1.283 . S
O141 Eu112 2.363 . S
O142 C101 1.283 . S
O142 Eu120 2.363 . S
O143 C103 1.283 . S
O143 Eu120 2.363 . S
O144 C100 1.283 . S
O144 Eu119 2.363 . S
O145 C102 1.283 . S
O145 Eu119 2.363 . S
O146 C111 1.283 . S
O146 Eu115 2.363 1_565 S
O147 C109 1.283 . S
O147 Eu115 2.363 . S
O148 C110 1.283 . S
O148 Eu116 2.363 1_565 S
O149 C108 1.283 . S
O149 Eu116 2.363 . S
C150 O176 1.283 . S
C150 O194 1.283 . S
C151 O177 1.283 . S
C151 O192 1.283 . S
C152 O178 1.283 . S
C152 O195 1.283 . S
C153 O179 1.283 . S
C153 O193 1.283 . S
C154 O180 1.283 . S
C154 O189 1.283 . S
C155 O181 1.283 . S
C155 O191 1.283 . S
C156 O182 1.283 . S
C156 O188 1.283 . S
C157 O183 1.283 . S
C157 O190 1.283 . S
C158 O184 1.283 . S
C158 O199 1.283 . S
C159 O185 1.283 . S
C159 O197 1.283 . S
C160 O186 1.283 . S
C160 O198 1.283 . S
C161 O187 1.283 . S
C161 O196 1.283 . S
Eu162 O163 2.370 . S
Eu162 O164 2.370 1_554 S
Eu162 O167 2.370 1_554 S
Eu162 O168 2.370 . S
Eu162 O176 2.363 1_554 S
Eu162 O177 2.363 . S
Eu162 O190 2.363 . S
Eu162 O191 2.363 . S
O163 Eu162 2.370 . S
O163 Eu165 2.370 . S
O163 Eu170 2.370 . S
O164 Eu162 2.370 1_556 S
O164 Eu166 2.370 1_556 S
O164 Eu169 2.370 . S
Eu165 O163 2.370 . S
Eu165 O167 2.370 1_554 S
Eu165 O171 2.370 1_554 S
Eu165 O172 2.370 . S
Eu165 O180 2.363 . S
Eu165 O181 2.363 . S
Eu165 O196 2.363 1_554 S
Eu165 O197 2.363 . S
Eu166 O164 2.370 1_554 S
Eu166 O168 2.370 . S
Eu166 O173 2.370 . S
Eu166 O174 2.370 1_554 S
Eu166 O182 2.363 . S
Eu166 O183 2.363 . S
Eu166 O198 2.363 1_554 S
Eu166 O199 2.363 . S
O167 Eu162 2.370 1_556 S
O167 Eu165 2.370 1_556 S
O167 Eu169 2.370 . S
O168 Eu162 2.370 . S
O168 Eu166 2.370 . S
O168 Eu170 2.370 . S
Eu169 O164 2.370 . S
Eu169 O167 2.370 . S
Eu169 O171 2.370 . S
Eu169 O174 2.370 . S
Eu169 O186 2.363 . S
Eu169 O187 2.363 . S
Eu169 O194 2.363 . S
Eu169 O195 2.363 . S
Eu170 O163 2.370 . S
Eu170 O168 2.370 . S
Eu170 O172 2.370 . S
Eu170 O173 2.370 . S
Eu170 O184 2.363 . S
Eu170 O185 2.363 . S
Eu170 O192 2.363 . S
Eu170 O193 2.363 . S
O171 Eu165 2.370 1_556 S
O171 Eu169 2.370 . S
O171 Eu175 2.370 1_556 S
O172 Eu165 2.370 . S
O172 Eu170 2.370 . S
O172 Eu175 2.370 . S
O173 Eu166 2.370 . S
O173 Eu170 2.370 . S
O173 Eu175 2.370 . S
O174 Eu166 2.370 1_556 S
O174 Eu169 2.370 . S
O174 Eu175 2.370 1_556 S
Eu175 O171 2.370 1_554 S
Eu175 O172 2.370 . S
Eu175 O173 2.370 . S
Eu175 O174 2.370 1_554 S
Eu175 O178 2.363 1_554 S
Eu175 O179 2.363 . S
Eu175 O188 2.363 . S
Eu175 O189 2.363 . S
O176 C150 1.283 . S
O176 Eu162 2.363 1_556 S
O177 C151 1.283 . S
O177 Eu162 2.363 . S
O178 C152 1.283 . S
O178 Eu175 2.363 1_556 S
O179 C153 1.283 . S
O179 Eu175 2.363 . S
O180 C154 1.283 . S
O180 Eu165 2.363 . S
O181 C155 1.283 . S
O181 Eu165 2.363 . S
O182 C156 1.283 . S
O182 Eu166 2.363 . S
O183 C157 1.283 . S
O183 Eu166 2.363 . S
O184 C158 1.283 . S
O184 Eu170 2.363 . S
O185 C159 1.283 . S
O185 Eu170 2.363 . S
O186 C160 1.283 . S
O186 Eu169 2.363 . S
O187 C161 1.283 . S
O187 Eu169 2.363 . S
O188 C156 1.283 . S
O188 Eu175 2.363 . S
O189 C154 1.283 . S
O189 Eu175 2.363 . S
O190 C157 1.283 . S
O190 Eu162 2.363 . S
O191 C155 1.283 . S
O191 Eu162 2.363 . S
O192 C151 1.283 . S
O192 Eu170 2.363 . S
O193 C153 1.283 . S
O193 Eu170 2.363 . S
O194 C150 1.283 . S
O194 Eu169 2.363 . S
O195 C152 1.283 . S
O195 Eu169 2.363 . S
O196 C161 1.283 . S
O196 Eu165 2.363 1_556 S
O197 C159 1.283 . S
O197 Eu165 2.363 . S
O198 C160 1.283 . S
O198 Eu166 2.363 1_556 S
O199 C158 1.283 . S
O199 Eu166 2.363 . S
C200 C201 1.363 . S
C200 C206 1.379 . S
C200 N208 1.356 . S
C201 C200 1.363 . S
C201 C207 1.363 1_455 S
C202 C203 1.363 1_655 S
C202 C207 1.379 . S
C202 N209 1.356 . S
C203 C202 1.363 1_455 S
C203 C206 1.363 . S
N204 C206 1.356 . S
N204 H216 0.984 . S
N204 H217 0.985 . S
N205 C207 1.356 . S
N205 H210 0.984 . S
N205 H211 0.985 . S
C206 C200 1.379 . S
C206 C203 1.363 . S
C206 N204 1.356 . S
C207 C201 1.363 1_655 S
C207 C202 1.379 . S
C207 N205 1.356 . S
N208 C200 1.356 . S
N208 H214 0.984 . S
N208 H215 0.984 . S
N209 C202 1.356 . S
N209 H212 0.984 . S
N209 H213 0.985 . S
H210 N205 0.984 . S
H211 N205 0.985 . S
H212 N209 0.984 . S
H213 N209 0.985 . S
H214 N208 0.984 . S
H215 N208 0.984 . S
H216 N204 0.984 . S
H217 N204 0.985 . S
C218 C219 1.363 1_565 S
C218 C224 1.379 . S
C218 N226 1.356 . S
C219 C218 1.363 1_545 S
C219 C225 1.363 . S
C220 C221 1.363 . S
C220 C225 1.379 . S
C220 N227 1.356 . S
C221 C220 1.363 . S
C221 C224 1.363 1_545 S
N222 C224 1.356 . S
N222 H234 0.984 . S
N222 H235 0.985 . S
N223 C225 1.356 . S
N223 H228 0.984 . S
N223 H229 0.985 . S
C224 C218 1.379 . S
C224 C221 1.363 1_565 S
C224 N222 1.356 . S
C225 C219 1.363 . S
C225 C220 1.379 . S
C225 N223 1.356 . S
N226 C218 1.356 . S
N226 H232 0.984 . S
N226 H233 0.984 . S
N227 C220 1.356 . S
N227 H230 0.984 . S
N227 H231 0.985 . S
H228 N223 0.984 . S
H229 N223 0.985 . S
H230 N227 0.984 . S
H231 N227 0.985 . S
H232 N226 0.984 . S
H233 N226 0.984 . S
H234 N222 0.984 . S
H235 N222 0.985 . S
C236 C237 1.363 1_655 S
C236 C242 1.379 . S
C236 N244 1.356 . S
C237 C236 1.363 1_455 S
C237 C243 1.363 . S
C238 C239 1.363 . S
C238 C243 1.379 . S
C238 N245 1.356 . S
C239 C238 1.363 . S
C239 C242 1.363 1_455 S
N240 C242 1.356 . S
N240 H252 0.984 . S
N240 H253 0.985 . S
N241 C243 1.356 . S
N241 H246 0.984 . S
N241 H247 0.985 . S
C242 C236 1.379 . S
C242 C239 1.363 1_655 S
C242 N240 1.356 . S
C243 C237 1.363 . S
C243 C238 1.379 . S
C243 N241 1.356 . S
N244 C236 1.356 . S
N244 H250 0.984 . S
N244 H251 0.984 . S
N245 C238 1.356 . S
N245 H248 0.984 . S
N245 H249 0.985 . S
H246 N241 0.984 . S
H247 N241 0.985 . S
H248 N245 0.984 . S
H249 N245 0.985 . S
H250 N244 0.984 . S
H251 N244 0.984 . S
H252 N240 0.984 . S
H253 N240 0.985 . S
C254 C255 1.363 1_565 S
C254 C260 1.379 . S
C254 N262 1.356 . S
C255 C254 1.363 1_545 S
C255 C261 1.363 . S
C256 C257 1.363 . S
C256 C261 1.379 . S
C256 N263 1.356 . S
C257 C256 1.363 . S
C257 C260 1.363 1_545 S
N258 C260 1.356 . S
N258 H270 0.984 . S
N258 H271 0.985 . S
N259 C261 1.356 . S
N259 H264 0.984 . S
N259 H265 0.985 . S
C260 C254 1.379 . S
C260 C257 1.363 1_565 S
C260 N258 1.356 . S
C261 C255 1.363 . S
C261 C256 1.379 . S
C261 N259 1.356 . S
N262 C254 1.356 . S
N262 H268 0.984 . S
N262 H269 0.984 . S
N263 C256 1.356 . S
N263 H266 0.984 . S
N263 H267 0.985 . S
H264 N259 0.984 . S
H265 N259 0.985 . S
H266 N263 0.984 . S
H267 N263 0.985 . S
H268 N262 0.984 . S
H269 N262 0.984 . S
H270 N258 0.984 . S
H271 N258 0.985 . S
C272 C273 1.363 . S
C272 C278 1.379 . S
C272 N280 1.356 . S
C273 C272 1.363 . S
C273 C279 1.363 1_455 S
C274 C275 1.363 1_655 S
C274 C279 1.379 . S
C274 N281 1.356 . S
C275 C274 1.363 1_455 S
C275 C278 1.363 . S
N276 C278 1.356 . S
N276 H288 0.984 . S
N276 H289 0.985 . S
N277 C279 1.356 . S
N277 H282 0.984 . S
N277 H283 0.985 . S
C278 C272 1.379 . S
C278 C275 1.363 . S
C278 N276 1.356 . S
C279 C273 1.363 1_655 S
C279 C274 1.379 . S
C279 N277 1.356 . S
N280 C272 1.356 . S
N280 H286 0.984 . S
N280 H287 0.984 . S
N281 C274 1.356 . S
N281 H284 0.984 . S
N281 H285 0.985 . S
H282 N277 0.984 . S
H283 N277 0.985 . S
H284 N281 0.984 . S
H285 N281 0.985 . S
H286 N280 0.984 . S
H287 N280 0.984 . S
H288 N276 0.984 . S
H289 N276 0.985 . S
C290 C291 1.363 1_565 S
C290 C296 1.379 . S
C290 N298 1.356 . S
C291 C290 1.363 1_545 S
C291 C297 1.363 . S
C292 C293 1.363 . S
C292 C297 1.379 . S
C292 N299 1.356 . S
C293 C292 1.363 . S
C293 C296 1.363 1_545 S
N294 C296 1.356 . S
N294 H306 0.984 . S
N294 H307 0.985 . S
N295 C297 1.356 . S
N295 H300 0.984 . S
N295 H301 0.985 . S
C296 C290 1.379 . S
C296 C293 1.363 1_565 S
C296 N294 1.356 . S
C297 C291 1.363 . S
C297 C292 1.379 . S
C297 N295 1.356 . S
N298 C290 1.356 . S
N298 H304 0.984 . S
N298 H305 0.984 . S
N299 C292 1.356 . S
N299 H302 0.984 . S
N299 H303 0.985 . S
H300 N295 0.984 . S
H301 N295 0.985 . S
H302 N299 0.984 . S
H303 N299 0.985 . S
H304 N298 0.984 . S
H305 N298 0.984 . S
H306 N294 0.984 . S
H307 N294 0.985 . S
C308 C309 1.363 1_655 S
C308 C314 1.379 . S
C308 N316 1.356 . S
C309 C308 1.363 1_455 S
C309 C315 1.363 . S
C310 C311 1.363 . S
C310 C315 1.379 . S
C310 N317 1.356 . S
C311 C310 1.363 . S
C311 C314 1.363 1_455 S
N312 C314 1.356 . S
N312 H324 0.984 . S
N312 H325 0.985 . S
N313 C315 1.356 . S
N313 H318 0.984 . S
N313 H319 0.985 . S
C314 C308 1.379 . S
C314 C311 1.363 1_655 S
C314 N312 1.356 . S
C315 C309 1.363 . S
C315 C310 1.379 . S
C315 N313 1.356 . S
N316 C308 1.356 . S
N316 H322 0.984 . S
N316 H323 0.984 . S
N317 C310 1.356 . S
N317 H320 0.984 . S
N317 H321 0.985 . S
H318 N313 0.984 . S
H319 N313 0.985 . S
H320 N317 0.984 . S
H321 N317 0.985 . S
H322 N316 0.984 . S
H323 N316 0.984 . S
H324 N312 0.984 . S
H325 N312 0.985 . S
C326 C327 1.363 . S
C326 C332 1.379 . S
C326 N334 1.356 . S
C327 C326 1.363 . S
C327 C333 1.363 1_545 S
C328 C329 1.363 1_565 S
C328 C333 1.379 . S
C328 N335 1.356 . S
C329 C328 1.363 1_545 S
C329 C332 1.363 . S
N330 C332 1.356 . S
N330 H342 0.984 . S
N330 H343 0.985 . S
N331 C333 1.356 . S
N331 H336 0.984 . S
N331 H337 0.985 . S
C332 C326 1.379 . S
C332 C329 1.363 . S
C332 N330 1.356 . S
C333 C327 1.363 1_565 S
C333 C328 1.379 . S
C333 N331 1.356 . S
N334 C326 1.356 . S
N334 H340 0.984 . S
N334 H341 0.984 . S
N335 C328 1.356 . S
N335 H338 0.984 . S
N335 H339 0.985 . S
H336 N331 0.984 . S
H337 N331 0.985 . S
H338 N335 0.984 . S
H339 N335 0.985 . S
H340 N334 0.984 . S
H341 N334 0.984 . S
H342 N330 0.984 . S
H343 N330 0.985 . S
C344 C345 1.363 1_556 S
C344 C350 1.379 . S
C344 N352 1.356 . S
C345 C344 1.363 1_554 S
C345 C351 1.363 . S
C346 C347 1.363 . S
C346 C351 1.379 . S
C346 N353 1.356 . S
C347 C346 1.363 . S
C347 C350 1.363 1_554 S
N348 C350 1.356 . S
N348 H360 0.984 . S
N348 H361 0.985 . S
N349 C351 1.356 . S
N349 H354 0.984 . S
N349 H355 0.985 . S
C350 C344 1.379 . S
C350 C347 1.363 1_556 S
C350 N348 1.356 . S
C351 C345 1.363 . S
C351 C346 1.379 . S
C351 N349 1.356 . S
N352 C344 1.356 . S
N352 H358 0.984 . S
N352 H359 0.984 . S
N353 C346 1.356 . S
N353 H356 0.984 . S
N353 H357 0.985 . S
H354 N349 0.984 . S
H355 N349 0.985 . S
H356 N353 0.984 . S
H357 N353 0.985 . S
H358 N352 0.984 . S
H359 N352 0.984 . S
H360 N348 0.984 . S
H361 N348 0.985 . S
C362 C363 1.363 1_556 S
C362 C368 1.379 . S
C362 N370 1.356 . S
C363 C362 1.363 1_554 S
C363 C369 1.363 . S
C364 C365 1.363 . S
C364 C369 1.379 . S
C364 N371 1.356 . S
C365 C364 1.363 . S
C365 C368 1.363 1_554 S
N366 C368 1.356 . S
N366 H378 0.984 . S
N366 H379 0.985 . S
N367 C369 1.356 . S
N367 H372 0.984 . S
N367 H373 0.985 . S
C368 C362 1.379 . S
C368 C365 1.363 1_556 S
C368 N366 1.356 . S
C369 C363 1.363 . S
C369 C364 1.379 . S
C369 N367 1.356 . S
N370 C362 1.356 . S
N370 H376 0.984 . S
N370 H377 0.984 . S
N371 C364 1.356 . S
N371 H374 0.984 . S
N371 H375 0.985 . S
H372 N367 0.984 . S
H373 N367 0.985 . S
H374 N371 0.984 . S
H375 N371 0.985 . S
H376 N370 0.984 . S
H377 N370 0.984 . S
H378 N366 0.984 . S
H379 N366 0.985 . S
C380 C381 1.363 . S
C380 C386 1.379 . S
C380 N388 1.356 . S
C381 C380 1.363 . S
C381 C387 1.363 1_554 S
C382 C383 1.363 1_556 S
C382 C387 1.379 . S
C382 N389 1.356 . S
C383 C382 1.363 1_554 S
C383 C386 1.363 . S
N384 C386 1.356 . S
N384 H396 0.984 . S
N384 H397 0.985 . S
N385 C387 1.356 . S
N385 H390 0.984 . S
N385 H391 0.985 . S
C386 C380 1.379 . S
C386 C383 1.363 . S
C386 N384 1.356 . S
C387 C381 1.363 1_556 S
C387 C382 1.379 . S
C387 N385 1.356 . S
N388 C380 1.356 . S
N388 H394 0.984 . S
N388 H395 0.984 . S
N389 C382 1.356 . S
N389 H392 0.984 . S
N389 H393 0.985 . S
H390 N385 0.984 . S
H391 N385 0.985 . S
H392 N389 0.984 . S
H393 N389 0.985 . S
H394 N388 0.984 . S
H395 N388 0.984 . S
H396 N384 0.984 . S
H397 N384 0.985 . S
C398 C399 1.363 1_556 S
C398 C404 1.379 . S
C398 N406 1.356 . S
C399 C398 1.363 1_554 S
C399 C405 1.363 . S
C400 C401 1.363 . S
C400 C405 1.379 . S
C400 N407 1.356 . S
C401 C400 1.363 . S
C401 C404 1.363 1_554 S
N402 C404 1.356 . S
N402 H414 0.984 . S
N402 H415 0.985 . S
N403 C405 1.356 . S
N403 H408 0.984 . S
N403 H409 0.985 . S
C404 C398 1.379 . S
C404 C401 1.363 1_556 S
C404 N402 1.356 . S
C405 C399 1.363 . S
C405 C400 1.379 . S
C405 N403 1.356 . S
N406 C398 1.356 . S
N406 H412 0.984 . S
N406 H413 0.984 . S
N407 C400 1.356 . S
N407 H410 0.984 . S
N407 H411 0.985 . S
H408 N403 0.984 . S
H409 N403 0.985 . S
H410 N407 0.984 . S
H411 N407 0.985 . S
H412 N406 0.984 . S
H413 N406 0.984 . S
H414 N402 0.984 . S
H415 N402 0.985 . S
C416 C417 1.363 . S
C416 C422 1.379 . S
C416 N424 1.356 . S
C417 C416 1.363 . S
C417 C423 1.363 . S
C418 C419 1.363 . S
C418 C423 1.379 . S
C418 N425 1.356 . S
C419 C418 1.363 . S
C419 C422 1.363 . S
N420 C422 1.356 . S
N420 H432 0.984 . S
N420 H433 0.985 . S
N421 C423 1.356 . S
N421 H426 0.984 . S
N421 H427 0.985 . S
C422 C416 1.379 . S
C422 C419 1.363 . S
C422 N420 1.356 . S
C423 C417 1.363 . S
C423 C418 1.379 . S
C423 N421 1.356 . S
N424 C416 1.356 . S
N424 H430 0.984 . S
N424 H431 0.984 . S
N425 C418 1.356 . S
N425 H428 0.984 . S
N425 H429 0.985 . S
H426 N421 0.984 . S
H427 N421 0.985 . S
H428 N425 0.984 . S
H429 N425 0.985 . S
H430 N424 0.984 . S
H431 N424 0.984 . S
H432 N420 0.984 . S
H433 N420 0.985 . S
C434 C435 1.363 . S
C434 C440 1.379 . S
C434 N442 1.356 . S
C435 C434 1.363 . S
C435 C441 1.363 . S
C436 C437 1.363 . S
C436 C441 1.379 . S
C436 N443 1.356 . S
C437 C436 1.363 . S
C437 C440 1.363 . S
N438 C440 1.356 . S
N438 H450 0.984 . S
N438 H451 0.985 . S
N439 C441 1.356 . S
N439 H444 0.984 . S
N439 H445 0.985 . S
C440 C434 1.379 . S
C440 C437 1.363 . S
C440 N438 1.356 . S
C441 C435 1.363 . S
C441 C436 1.379 . S
C441 N439 1.356 . S
N442 C434 1.356 . S
N442 H448 0.984 . S
N442 H449 0.984 . S
N443 C436 1.356 . S
N443 H446 0.984 . S
N443 H447 0.985 . S
H444 N439 0.984 . S
H445 N439 0.985 . S
H446 N443 0.984 . S
H447 N443 0.985 . S
H448 N442 0.984 . S
H449 N442 0.984 . S
H450 N438 0.984 . S
H451 N438 0.985 . S
C452 C453 1.363 . S
C452 C458 1.379 . S
C452 N460 1.356 . S
C453 C452 1.363 . S
C453 C459 1.363 . S
C454 C455 1.363 . S
C454 C459 1.379 . S
C454 N461 1.356 . S
C455 C454 1.363 . S
C455 C458 1.363 . S
N456 C458 1.356 . S
N456 H468 0.984 . S
N456 H469 0.985 . S
N457 C459 1.356 . S
N457 H462 0.984 . S
N457 H463 0.985 . S
C458 C452 1.379 . S
C458 C455 1.363 . S
C458 N456 1.356 . S
C459 C453 1.363 . S
C459 C454 1.379 . S
C459 N457 1.356 . S
N460 C452 1.356 . S
N460 H466 0.984 . S
N460 H467 0.984 . S
N461 C454 1.356 . S
N461 H464 0.984 . S
N461 H465 0.985 . S
H462 N457 0.984 . S
H463 N457 0.985 . S
H464 N461 0.984 . S
H465 N461 0.985 . S
H466 N460 0.984 . S
H467 N460 0.984 . S
H468 N456 0.984 . S
H469 N456 0.985 . S
C470 C471 1.363 . S
C470 C476 1.379 . S
C470 N478 1.356 . S
C471 C470 1.363 . S
C471 C477 1.363 . S
C472 C473 1.363 . S
C472 C477 1.379 . S
C472 N479 1.356 . S
C473 C472 1.363 . S
C473 C476 1.363 . S
N474 C476 1.356 . S
N474 H486 0.984 . S
N474 H487 0.985 . S
N475 C477 1.356 . S
N475 H480 0.984 . S
N475 H481 0.985 . S
C476 C470 1.379 . S
C476 C473 1.363 . S
C476 N474 1.356 . S
C477 C471 1.363 . S
C477 C472 1.379 . S
C477 N475 1.356 . S
N478 C470 1.356 . S
N478 H484 0.984 . S
N478 H485 0.984 . S
N479 C472 1.356 . S
N479 H482 0.984 . S
N479 H483 0.985 . S
H480 N475 0.984 . S
H481 N475 0.985 . S
H482 N479 0.984 . S
H483 N479 0.985 . S
H484 N478 0.984 . S
H485 N478 0.984 . S
H486 N474 0.984 . S
H487 N474 0.985 . S
C488 C489 1.363 . S
C488 C494 1.379 . S
C488 N496 1.356 . S
C489 C488 1.363 . S
C489 C495 1.363 . S
C490 C491 1.363 . S
C490 C495 1.379 . S
C490 N497 1.356 . S
C491 C490 1.363 . S
C491 C494 1.363 . S
N492 C494 1.356 . S
N492 H504 0.984 . S
N492 H505 0.985 . S
N493 C495 1.356 . S
N493 H498 0.984 . S
N493 H499 0.985 . S
C494 C488 1.379 . S
C494 C491 1.363 . S
C494 N492 1.356 . S
C495 C489 1.363 . S
C495 C490 1.379 . S
C495 N493 1.356 . S
N496 C488 1.356 . S
N496 H502 0.984 . S
N496 H503 0.984 . S
N497 C490 1.356 . S
N497 H500 0.984 . S
N497 H501 0.985 . S
H498 N493 0.984 . S
H499 N493 0.985 . S
H500 N497 0.984 . S
H501 N497 0.985 . S
H502 N496 0.984 . S
H503 N496 0.984 . S
H504 N492 0.984 . S
H505 N492 0.985 . S
C506 C507 1.363 . S
C506 C512 1.379 . S
C506 N514 1.356 . S
C507 C506 1.363 . S
C507 C513 1.363 . S
C508 C509 1.363 . S
C508 C513 1.379 . S
C508 N515 1.356 . S
C509 C508 1.363 . S
C509 C512 1.363 . S
N510 C512 1.356 . S
N510 H522 0.984 . S
N510 H523 0.985 . S
N511 C513 1.356 . S
N511 H516 0.984 . S
N511 H517 0.985 . S
C512 C506 1.379 . S
C512 C509 1.363 . S
C512 N510 1.356 . S
C513 C507 1.363 . S
C513 C508 1.379 . S
C513 N511 1.356 . S
N514 C506 1.356 . S
N514 H520 0.984 . S
N514 H521 0.984 . S
N515 C508 1.356 . S
N515 H518 0.984 . S
N515 H519 0.985 . S
H516 N511 0.984 . S
H517 N511 0.985 . S
H518 N515 0.984 . S
H519 N515 0.985 . S
H520 N514 0.984 . S
H521 N514 0.984 . S
H522 N510 0.984 . S
H523 N510 0.985 . S
C524 C525 1.363 . S
C524 C530 1.379 . S
C524 N532 1.356 . S
C525 C524 1.363 . S
C525 C531 1.363 . S
C526 C527 1.363 . S
C526 C531 1.379 . S
C526 N533 1.356 . S
C527 C526 1.363 . S
C527 C530 1.363 . S
N528 C530 1.356 . S
N528 H540 0.984 . S
N528 H541 0.985 . S
N529 C531 1.356 . S
N529 H534 0.984 . S
N529 H535 0.985 . S
C530 C524 1.379 . S
C530 C527 1.363 . S
C530 N528 1.356 . S
C531 C525 1.363 . S
C531 C526 1.379 . S
C531 N529 1.356 . S
N532 C524 1.356 . S
N532 H538 0.984 . S
N532 H539 0.984 . S
N533 C526 1.356 . S
N533 H536 0.984 . S
N533 H537 0.985 . S
H534 N529 0.984 . S
H535 N529 0.985 . S
H536 N533 0.984 . S
H537 N533 0.985 . S
H538 N532 0.984 . S
H539 N532 0.984 . S
H540 N528 0.984 . S
H541 N528 0.985 . S
C542 C543 1.363 . S
C542 C548 1.379 . S
C542 N550 1.356 . S
C543 C542 1.363 . S
C543 C549 1.363 . S
C544 C545 1.363 . S
C544 C549 1.379 . S
C544 N551 1.356 . S
C545 C544 1.363 . S
C545 C548 1.363 . S
N546 C548 1.356 . S
N546 H558 0.984 . S
N546 H559 0.985 . S
N547 C549 1.356 . S
N547 H552 0.984 . S
N547 H553 0.985 . S
C548 C542 1.379 . S
C548 C545 1.363 . S
C548 N546 1.356 . S
C549 C543 1.363 . S
C549 C544 1.379 . S
C549 N547 1.356 . S
N550 C542 1.356 . S
N550 H556 0.984 . S
N550 H557 0.984 . S
N551 C544 1.356 . S
N551 H554 0.984 . S
N551 H555 0.985 . S
H552 N547 0.984 . S
H553 N547 0.985 . S
H554 N551 0.984 . S
H555 N551 0.985 . S
H556 N550 0.984 . S
H557 N550 0.984 . S
H558 N546 0.984 . S
H559 N546 0.985 . S
C560 C561 1.363 . S
C560 C566 1.379 . S
C560 N568 1.356 . S
C561 C560 1.363 . S
C561 C567 1.363 . S
C562 C563 1.363 . S
C562 C567 1.379 . S
C562 N569 1.356 . S
C563 C562 1.363 . S
C563 C566 1.363 . S
N564 C566 1.356 . S
N564 H576 0.984 . S
N564 H577 0.985 . S
N565 C567 1.356 . S
N565 H570 0.984 . S
N565 H571 0.985 . S
C566 C560 1.379 . S
C566 C563 1.363 . S
C566 N564 1.356 . S
C567 C561 1.363 . S
C567 C562 1.379 . S
C567 N565 1.356 . S
N568 C560 1.356 . S
N568 H574 0.984 . S
N568 H575 0.984 . S
N569 C562 1.356 . S
N569 H572 0.984 . S
N569 H573 0.985 . S
H570 N565 0.984 . S
H571 N565 0.985 . S
H572 N569 0.984 . S
H573 N569 0.985 . S
H574 N568 0.984 . S
H575 N568 0.984 . S
H576 N564 0.984 . S
H577 N564 0.985 . S
C578 C579 1.363 . S
C578 C584 1.379 . S
C578 N586 1.356 . S
C579 C578 1.363 . S
C579 C585 1.363 . S
C580 C581 1.363 . S
C580 C585 1.379 . S
C580 N587 1.356 . S
C581 C580 1.363 . S
C581 C584 1.363 . S
N582 C584 1.356 . S
N582 H594 0.984 . S
N582 H595 0.985 . S
N583 C585 1.356 . S
N583 H588 0.984 . S
N583 H589 0.985 . S
C584 C578 1.379 . S
C584 C581 1.363 . S
C584 N582 1.356 . S
C585 C579 1.363 . S
C585 C580 1.379 . S
C585 N583 1.356 . S
N586 C578 1.356 . S
N586 H592 0.984 . S
N586 H593 0.984 . S
N587 C580 1.356 . S
N587 H590 0.984 . S
N587 H591 0.985 . S
H588 N583 0.984 . S
H589 N583 0.985 . S
H590 N587 0.984 . S
H591 N587 0.985 . S
H592 N586 0.984 . S
H593 N586 0.984 . S
H594 N582 0.984 . S
H595 N582 0.985 . S
C596 C597 1.363 . S
C596 C602 1.379 . S
C596 N604 1.356 . S
C597 C596 1.363 . S
C597 C603 1.363 . S
C598 C599 1.363 . S
C598 C603 1.379 . S
C598 N605 1.356 . S
C599 C598 1.363 . S
C599 C602 1.363 . S
N600 C602 1.356 . S
N600 H612 0.984 . S
N600 H613 0.985 . S
N601 C603 1.356 . S
N601 H606 0.984 . S
N601 H607 0.985 . S
C602 C596 1.379 . S
C602 C599 1.363 . S
C602 N600 1.356 . S
C603 C597 1.363 . S
C603 C598 1.379 . S
C603 N601 1.356 . S
N604 C596 1.356 . S
N604 H610 0.984 . S
N604 H611 0.984 . S
N605 C598 1.356 . S
N605 H608 0.984 . S
N605 H609 0.985 . S
H606 N601 0.984 . S
H607 N601 0.985 . S
H608 N605 0.984 . S
H609 N605 0.985 . S
H610 N604 0.984 . S
H611 N604 0.984 . S
H612 N600 0.984 . S
H613 N600 0.985 . S
C614 C615 1.363 . S
C614 C620 1.379 . S
C614 N622 1.356 . S
C615 C614 1.363 . S
C615 C621 1.363 . S
C616 C617 1.363 . S
C616 C621 1.379 . S
C616 N623 1.356 . S
C617 C616 1.363 . S
C617 C620 1.363 . S
N618 C620 1.356 . S
N618 H630 0.984 . S
N618 H631 0.985 . S
N619 C621 1.356 . S
N619 H624 0.984 . S
N619 H625 0.985 . S
C620 C614 1.379 . S
C620 C617 1.363 . S
C620 N618 1.356 . S
C621 C615 1.363 . S
C621 C616 1.379 . S
C621 N619 1.356 . S
N622 C614 1.356 . S
N622 H628 0.984 . S
N622 H629 0.984 . S
N623 C616 1.356 . S
N623 H626 0.984 . S
N623 H627 0.985 . S
H624 N619 0.984 . S
H625 N619 0.985 . S
H626 N623 0.984 . S
H627 N623 0.985 . S
H628 N622 0.984 . S
H629 N622 0.984 . S
H630 N618 0.984 . S
H631 N618 0.985 . S
C201 C2 1.500 . S
C203 C52 1.497 . S
C219 C11 1.500 . S
C221 C104 1.500 . S
C237 C0 1.500 . S
C239 C53 1.500 . S
C255 C106 1.500 . S
C257 C10 1.497 . S
C273 C1 1.500 . S
C275 C51 1.503 . S
C291 C8 1.500 . S
C293 C107 1.500 . S
C309 C50 1.500 . S
C311 C3 1.500 . S
C327 C105 1.500 . S
C329 C9 1.503 . S
C345 C156 1.500 . S
C347 C6 1.497 . S
C363 C157 1.500 . S
C365 C7 1.500 . S
C381 C154 1.500 . S
C383 C4 1.500 . S
C399 C5 1.500 . S
C401 C155 1.503 . S
C417 C161 1.500 . S
C419 C57 1.503 . S
C435 C55 1.500 . S
C437 C160 1.500 . S
C453 C54 1.500 . S
C455 C158 1.497 . S
C471 C159 1.500 . S
C473 C56 1.500 . S
C489 C110 1.500 . S
C491 C59 1.500 . S
C507 C61 1.500 . S
C509 C108 1.497 . S
C525 C58 1.500 . S
C527 C111 1.503 . S
C543 C109 1.500 . S
C545 C60 1.500 . S
C561 C152 1.500 . S
C563 C101 1.500 . S
C579 C100 1.500 . S
C581 C150 1.503 . S
C597 C151 1.500 . S
C599 C102 1.500 . S
C615 C103 1.500 . S
C617 C153 1.497 . S
