# Generated by pormake.
# Topology snp, (6)-cn, num edge types: 1
# Building blocks:
#     Node 0, Type 0, BuildingBlock: BETDEL_clean_sbu_0, # of connection points: 6
#     Node 1, Type 0, BuildingBlock: BETDEL_clean_sbu_0, # of connection points: 6
#     Node 2, Type 0, BuildingBlock: BETDEL_clean_sbu_0, # of connection points: 6
#     Node 3, Type 0, BuildingBlock: BETDEL_clean_sbu_0, # of connection points: 6
#     Edge 4, Type (0, 0), BuildingBlock: XUDNAN_clean_linker_2, # of connection points: 2
#     Edge 5, Type (0, 0), BuildingBlock: XUDNAN_clean_linker_2, # of connection points: 2
#     Edge 6, Type (0, 0), BuildingBlock: XUDNAN_clean_linker_2, # of connection points: 2
#     Edge 7, Type (0, 0), BuildingBlock: XUDNAN_clean_linker_2, # of connection points: 2
#     Edge 8, Type (0, 0), BuildingBlock: XUDNAN_clean_linker_2, # of connection points: 2
#     Edge 9, Type (0, 0), BuildingBlock: XUDNAN_clean_linker_2, # of connection points: 2
#     Edge 10, Type (0, 0), BuildingBlock: XUDNAN_clean_linker_2, # of connection points: 2
#     Edge 11, Type (0, 0), BuildingBlock: XUDNAN_clean_linker_2, # of connection points: 2
#     Edge 12, Type (0, 0), BuildingBlock: XUDNAN_clean_linker_2, # of connection points: 2
#     Edge 13, Type (0, 0), BuildingBlock: XUDNAN_clean_linker_2, # of connection points: 2
#     Edge 14, Type (0, 0), BuildingBlock: XUDNAN_clean_linker_2, # of connection points: 2
#     Edge 15, Type (0, 0), BuildingBlock: XUDNAN_clean_linker_2, # of connection points: 2
# Relax obj value: 0.335
# Max RMSD: 0.193
# Mean RMSD: 0.191
data_MOF--net-snp--node1-BETDEL_clean_sbu_0--edge1-XUDNAN_clean_linker_2
_symmetry_space_group_name_H-M    P1
_symmetry_Int_Tables_number       1
_symmetry_cell_setting            triclinic
loop_
_symmetry_equiv_pos_as_xyz
'x, y, z'
_cell_length_a     25.477087
_cell_length_b     25.428605
_cell_length_c     26.019894
_cell_angle_alpha  92.945004
_cell_angle_beta   91.399144
_cell_angle_gamma 96.731284
loop_
_atom_site_label
_atom_site_type_symbol
_atom_site_fract_x
_atom_site_fract_y
_atom_site_fract_z
_atom_type_partial_charge
Dy0 Dy 0.22114 0.06001 0.10611 0.0
C1 C 0.2328 0.861 0.99387 0.0
C2 C 0.21807 0.15159 0.16571 0.0
Dy3 Dy 0.20771 0.95146 1.04287 0.0
O4 O 0.26072 0.1339 0.14924 0.0
O5 O 0.17703 0.12063 0.14714 0.0
O6 O 0.30105 0.04244 0.13269 0.0
O7 O 0.27189 0.01495 1.05885 0.0
C8 C 0.30928 0.01433 0.09139 0.0
C9 C 0.11967 -0.00449 1.05745 0.0
O10 O 0.20775 0.92309 0.12461 0.0
O11 O 0.20114 0.00371 0.16951 0.0
O12 O 0.18558 0.86887 1.00803 0.0
O13 O 0.26602 0.90243 1.00699 0.0
O14 O 0.12519 0.96196 1.01883 0.0
O15 O 0.15833 -0.00309 0.08875 0.0
O16 O 0.20651 0.08703 1.02465 0.0
O17 O 0.20543 0.00647 0.97653 0.0
C18 C 0.20168 0.95133 0.16824 0.0
C19 C 0.20207 0.05863 0.97947 0.0
Dy20 Dy 0.92351 0.20469 0.60949 0.0
C21 C 0.11035 0.27294 0.49498 0.0
C22 C 0.82989 0.17582 0.65507 0.0
Dy23 Dy 0.02326 0.23246 0.54604 0.0
O24 O 0.84357 0.22136 0.63594 0.0
O25 O 0.86711 0.14539 0.64842 0.0
O26 O 0.95043 0.27504 0.66396 0.0
O27 O 0.96946 0.27738 0.58644 0.0
C28 C -0.02231 0.30077 0.62997 0.0
C29 C 0.97008 0.14037 0.51818 0.0
O30 O 0.05788 0.21763 0.62592 0.0
O31 O -0.01629 0.17194 0.66083 0.0
O32 O 0.10617 0.22937 0.51942 0.0
O33 O 0.06762 0.29568 0.5013 0.0
O34 O 0.00296 0.16604 0.48861 0.0
O35 O 0.9753 0.15964 0.56407 0.0
O36 O 0.88579 0.20568 0.52974 0.0
O37 O 0.95836 0.24523 0.48734 0.0
C38 C 0.03538 0.18823 0.66264 0.0
C39 C 0.90738 0.22549 0.48773 0.0
Dy40 Dy 0.78603 0.97311 0.09145 0.0
C41 C 0.66443 0.08486 0.96177 0.0
C42 C 0.83026 0.90375 0.15061 0.0
Dy43 Dy 0.73315 0.04083 1.0252 0.0
O44 O 0.79597 0.89029 0.11325 0.0
O45 O 0.84237 0.95484 0.15341 0.0
O46 O 0.70586 0.95744 0.12739 0.0
O47 O 0.7107 0.96217 1.04824 0.0
C48 C 0.67957 0.95388 0.08405 0.0
C49 C 0.8344 0.07146 1.02557 0.0
O50 O 0.72823 0.08167 0.10831 0.0
O51 O 0.79253 0.04 0.14859 0.0
O52 O 0.70224 0.11074 0.9905 0.0
O53 O 0.66105 0.03547 0.97304 0.0
O54 O 0.8033 0.07296 0.98565 0.0
O55 O 0.80999 0.05396 1.0644 0.0
O56 O 0.82491 0.95096 1.0199 0.0
O57 O 0.76722 -0.015 0.9645 0.0
C58 C 0.76093 0.07725 0.14924 0.0
C59 C 0.80745 0.95671 0.97267 0.0
Dy60 Dy 0.9724 0.75892 0.55181 0.0
C61 C 0.15891 0.73478 0.66991 0.0
C62 C 0.89164 0.76773 0.48358 0.0
Dy63 Dy 0.08348 0.7656 0.60618 0.0
O64 O 0.91139 0.72406 0.49197 0.0
O65 O 0.91474 0.80599 0.51419 0.0
O66 O 0.95252 0.68008 0.58445 0.0
O67 O 0.03109 0.70434 0.56347 0.0
C68 C 0.00107 0.66898 0.58417 0.0
C69 C 0.05254 0.85595 0.58002 0.0
O70 O 0.1094 0.76098 0.52436 0.0
O71 O 0.02994 0.78017 0.48786 0.0
O72 O 0.16406 0.77811 0.645 0.0
O73 O 0.11281 0.70839 0.65941 0.0
O74 O 0.10274 0.85009 0.58153 0.0
O75 O 0.02574 0.81635 0.59566 0.0
O76 O 0.94603 0.78439 0.63076 0.0
O77 O 0.02676 0.77724 0.67288 0.0
C78 C 0.08144 0.77579 0.48482 0.0
C79 C 0.97566 0.78606 0.67397 0.0
H80 H 0.89248 0.10242 0.11197 0.0
H81 H 0.88485 0.12153 0.9483 0.0
H82 H 0.97725 0.1592 0.95077 0.0
H83 H 0.0458 0.21194 0.12333 0.0
H84 H 0.0486 0.17786 0.18208 0.0
H85 H -0.01091 0.20327 0.16298 0.0
H86 H 0.95124 0.10244 0.18053 0.0
H87 H 0.01596 0.08276 0.18637 0.0
H88 H 0.96996 0.0501 0.13768 0.0
H89 H 0.04911 0.11188 0.9539 0.0
H90 H 0.09032 0.03259 0.96777 0.0
H91 H 0.08106 0.05753 0.1319 0.0
C92 C 0.91051 0.11735 0.07764 0.0
C93 C 0.88368 0.1068 1.02993 0.0
C94 C 0.90598 0.12744 0.98518 0.0
C95 C 0.95833 0.15002 0.98655 0.0
C96 C -0.01219 0.14974 1.03246 0.0
C97 C 0.96349 0.1394 0.07881 0.0
C98 C 0.00407 0.13063 0.11978 0.0
C99 C 0.02319 0.18404 0.14857 0.0
C100 C -0.01593 0.08881 0.15817 0.0
C101 C 0.04638 0.11333 0.08515 0.0
C102 C 0.03834 0.12909 1.0352 0.0
C103 C 0.05811 0.10245 0.99298 0.0
C104 C 0.08129 0.05677 1.00089 0.0
C105 C 0.09142 0.0415 1.05087 0.0
C106 C 0.07561 0.07099 0.09354 0.0
H107 H 0.96927 0.89812 0.61286 0.0
H108 H 0.07583 0.89604 0.48634 0.0
H109 H 0.01699 0.94531 0.43551 0.0
H110 H 0.84026 0.91145 0.52137 0.0
H111 H 0.81682 0.95294 0.57195 0.0
H112 H 0.84966 0.89644 0.58761 0.0
H113 H 0.91452 0.95637 0.64757 0.0
H114 H 0.88341 0.01307 0.63216 0.0
H115 H 0.95355 0.01291 0.623 0.0
H116 H 0.95809 0.00435 0.40437 0.0
H117 H 0.96216 0.09884 0.42083 0.0
H118 H 0.90208 0.07632 0.57244 0.0
C119 C -0.02072 0.90767 0.57391 0.0
C120 C 0.02633 0.89402 0.55295 0.0
C121 C 0.03975 0.90694 0.50276 0.0
C122 C 0.00531 0.93283 0.4731 0.0
C123 C 0.95769 0.94488 0.49424 0.0
C124 C 0.94564 0.93378 0.54444 0.0
C125 C 0.90268 0.96458 0.56422 0.0
C126 C 0.84923 0.92926 0.56102 0.0
C127 C 0.91446 -0.01177 0.61992 0.0
C128 C 0.9043 0.00523 0.52358 0.0
C129 C 0.92708 -0.01379 0.47899 0.0
C130 C 0.94079 0.01898 0.43896 0.0
C131 C 0.94406 0.07323 0.44913 0.0
C132 C 0.93634 0.09281 0.49957 0.0
C133 C 0.90931 0.06017 0.53437 0.0
H134 H 0.60698 0.97122 0.15729 0.0
H135 H 0.62234 0.93002 0.99501 0.0
H136 H 0.52673 0.93331 0.98023 0.0
H137 H 0.47292 0.8985 0.17024 0.0
H138 H 0.45288 0.94952 0.21359 0.0
H139 H 0.52124 0.9377 0.21248 0.0
H140 H 0.54859 0.0365 0.1953 0.0
H141 H 0.48043 0.04856 0.19609 0.0
H142 H 0.51935 0.06468 0.14088 0.0
H143 H 0.432 0.95016 0.9813 0.0
H144 H 0.34431 0.97857 0.99873 0.0
H145 H 0.3897 0.00721 0.1604 0.0
C146 C 0.58983 0.96166 0.11897 0.0
C147 C 0.62172 0.95031 0.07725 0.0
C148 C 0.59836 0.93894 1.02741 0.0
C149 C 0.54413 0.9405 1.01868 0.0
C150 C 0.5138 0.95314 1.06032 0.0
C151 C 0.53567 0.9632 0.10956 0.0
C152 C 0.49505 0.97956 0.14682 0.0
C153 C 0.48493 0.93888 0.18823 0.0
C154 C 0.51187 0.03565 0.17118 0.0
C155 C 0.44746 0.97847 0.11057 0.0
C156 C 0.45893 0.96261 1.06095 0.0
C157 C 0.42216 0.96161 1.02019 0.0
C158 C 0.3724 0.97754 1.03044 0.0
C159 C 0.36002 -0.00598 0.081 0.0
C160 C 0.39795 -0.00593 0.12148 0.0
H161 H 0.93541 0.38206 0.67773 0.0
H162 H 0.07179 0.34252 0.59483 0.0
H163 H 0.10328 0.43785 0.59002 0.0
H164 H 0.90657 0.47556 0.60148 0.0
H165 H 0.88404 0.52066 0.64953 0.0
H166 H 0.88067 0.4514 0.66087 0.0
H167 H 0.93635 0.47304 0.74562 0.0
H168 H 0.93941 0.54282 0.73485 0.0
H169 H -0.0005 0.51316 0.74461 0.0
H170 H 0.11073 0.53497 0.5798 0.0
H171 H 0.09103 0.62509 0.56076 0.0
H172 H 0.94668 0.60069 0.64557 0.0
C173 C 0.97318 0.39381 0.66091 0.0
C174 C 0.00179 0.35577 0.63715 0.0
C175 C 0.04976 0.37172 0.61327 0.0
C176 C 0.06807 0.42562 0.61085 0.0
C177 C 0.03764 0.46272 0.6324 0.0
C178 C -0.00877 0.44749 0.65723 0.0
C179 C 0.96082 0.49417 0.66857 0.0
C180 C 0.90477 0.48487 0.64359 0.0
C181 C 0.95894 0.50652 0.72689 0.0
C182 C -0.00458 0.53713 0.64319 0.0
C183 C 0.04056 0.5188 0.62427 0.0
C184 C 0.07612 0.55013 0.59537 0.0
C185 C 0.06457 0.60106 0.58454 0.0
C186 C 0.0173 0.61924 0.6016 0.0
C187 C -0.01681 0.5875 0.63233 0.0
H188 H 0.06939 0.26615 0.39911 0.0
H189 H 0.21825 0.28205 0.48521 0.0
H190 H 0.26543 0.26945 0.4038 0.0
H191 H 0.09927 0.15779 0.3278 0.0
H192 H 0.06237 0.17054 0.27088 0.0
H193 H 0.04366 0.19522 0.33274 0.0
H194 H 0.0519 0.2907 0.30037 0.0
H195 H 0.07143 0.26644 0.2383 0.0
H196 H 0.11321 0.31853 0.27406 0.0
H197 H 0.29419 0.24324 0.31404 0.0
H198 H 0.30082 0.19661 0.22892 0.0
H199 H 0.13181 0.1893 0.20488 0.0
C200 C 0.11223 0.26981 0.40035 0.0
C201 C 0.14071 0.27748 0.44776 0.0
C202 C 0.19623 0.27813 0.44881 0.0
C203 C 0.22315 0.27094 0.40279 0.0
C204 C 0.19361 0.26183 0.35649 0.0
C205 C 0.13915 0.26068 0.35525 0.0
C206 C 0.1151 0.23947 0.30346 0.0
C207 C 0.07796 0.18775 0.30902 0.0
C208 C 0.08622 0.2813 0.27751 0.0
C209 C 0.16444 0.22912 0.27533 0.0
C210 C 0.20948 0.24305 0.3061 0.0
C211 C 0.25923 0.23303 0.28945 0.0
C212 C 0.26268 0.20672 0.24094 0.0
C213 C 0.21655 0.18997 0.21017 0.0
C214 C 0.16738 0.20273 0.2272 0.0
H215 H 0.79854 0.08369 0.70075 0.0
H216 H 0.76058 0.24407 0.68634 0.0
H217 H 0.6958 0.23144 0.75503 0.0
H218 H 0.66303 0.02165 0.73614 0.0
H219 H 0.69185 0.98094 0.78128 0.0
H220 H 0.72649 -0.00056 0.72413 0.0
H221 H 0.80883 0.03997 0.78098 0.0
H222 H 0.77389 0.02025 0.83727 0.0
H223 H 0.8002 0.08854 0.83192 0.0
H224 H 0.65415 0.2094 0.83891 0.0
H225 H 0.63451 0.17671 0.92537 0.0
H226 H 0.69025 0.02754 0.87935 0.0
C227 C 0.77501 0.11534 0.71069 0.0
C228 C 0.78419 0.16466 0.68819 0.0
C229 C 0.75371 0.20574 0.70289 0.0
C230 C 0.71676 0.1989 0.74184 0.0
C231 C 0.71002 0.15037 0.76491 0.0
C232 C 0.73767 0.10894 0.74916 0.0
C233 C 0.72848 0.06329 0.78408 0.0
C234 C 0.70078 0.01337 0.75464 0.0
C235 C 0.78091 0.05238 0.81007 0.0
C236 C 0.69243 0.08587 0.8227 0.0
C237 C 0.68241 0.13636 0.81137 0.0
C238 C 0.65939 0.16901 0.84706 0.0
C239 C 0.64804 0.15019 0.89597 0.0
C240 C 0.65851 0.09884 0.90799 0.0
C241 C 0.67884 0.06576 0.87006 0.0
H242 H 0.88364 0.86208 0.44366 0.0
H243 H 0.84174 0.69314 0.4132 0.0
H244 H 0.81711 0.70877 0.3229 0.0
H245 H 0.78992 0.91417 0.35536 0.0
H246 H 0.84014 0.96551 0.3377 0.0
H247 H 0.84208 0.94013 0.40098 0.0
H248 H 0.93882 0.91441 0.38481 0.0
H249 H 0.93469 0.94413 0.32361 0.0
H250 H 0.9495 0.87682 0.32699 0.0
H251 H 0.8067 0.74396 0.23271 0.0
H252 H 0.80738 0.79558 0.15407 0.0
H253 H 0.86723 0.93822 0.2457 0.0
C254 C 0.86715 0.82856 0.41868 0.0
C255 C 0.86366 0.77661 0.43536 0.0
C256 C 0.84377 0.73343 0.40109 0.0
C257 C 0.83005 0.74193 0.34976 0.0
C258 C 0.83716 0.7937 0.33363 0.0
C259 C 0.85505 0.83619 0.36737 0.0
C260 C 0.86675 0.88674 0.33983 0.0
C261 C 0.83268 0.92914 0.35962 0.0
C262 C 0.92596 0.90692 0.34403 0.0
C263 C 0.85141 0.86678 0.28557 0.0
C264 C 0.8345 0.81304 0.28225 0.0
C265 C 0.81976 0.7861 0.23507 0.0
C266 C 0.82093 0.81544 0.19063 0.0
C267 C 0.83796 0.87058 0.19399 0.0
C268 C 0.85449 0.89599 0.24187 0.0
H269 H 0.12344 0.69384 0.75711 0.0
H270 H 0.26471 0.76422 0.68652 0.0
H271 H 0.31081 0.77597 0.77158 0.0
H272 H 0.12259 0.78747 0.84254 0.0
H273 H 0.09685 0.75059 0.89564 0.0
H274 H 0.08324 0.72402 0.83118 0.0
H275 H 0.12364 0.63862 0.85264 0.0
H276 H 0.13707 0.6649 0.91798 0.0
H277 H 0.18973 0.64329 0.88022 0.0
H278 H 0.33234 0.80397 0.86132 0.0
H279 H 0.32413 0.85463 0.94323 0.0
H280 H 0.16543 0.7759 0.95741 0.0
C281 C 0.16512 0.70858 0.75949 0.0
C282 C 0.1912 0.72704 0.71567 0.0
C283 C 0.2447 0.74888 0.71984 0.0
C284 C 0.27112 0.75542 0.76804 0.0
C285 C 0.24303 0.74079 0.81157 0.0
C286 C 0.19093 0.71768 0.80765 0.0
C287 C 0.16476 0.71928 0.85929 0.0
C288 C 0.11399 0.74704 0.85697 0.0
C289 C 0.15314 0.66318 0.87868 0.0
C290 C 0.20834 0.75161 0.89169 0.0
C291 C 0.25419 0.76085 0.86432 0.0
C292 C 0.29725 0.79587 0.88355 0.0
C293 C 0.29221 0.82462 0.93015 0.0
C294 C 0.24398 0.81906 0.95614 0.0
C295 C 0.20287 0.78004 0.93833 0.0
H296 H 0.7801 0.92956 0.86643 0.0
H297 H 0.90647 0.92976 0.98195 0.0
H298 H 0.95884 0.88545 0.91991 0.0
H299 H 0.79545 0.8015 0.80463 0.0
H300 H 0.78479 0.82028 0.73967 0.0
H301 H 0.75508 0.85347 0.7924 0.0
H302 H 0.79841 0.94288 0.76386 0.0
H303 H 0.83008 0.91114 0.71167 0.0
H304 H 0.86926 0.9546 0.75856 0.0
H305 H -0.00199 0.83742 0.84911 0.0
H306 H 0.02546 0.7953 0.76874 0.0
H307 H 0.87928 0.82625 0.69266 0.0
C308 C 0.81899 0.92085 0.87838 0.0
C309 C 0.83824 0.93314 0.93008 0.0
C310 C 0.88958 0.92045 0.9435 0.0
C311 C 0.9202 0.89515 0.90827 0.0
C312 C 0.89998 0.8825 0.85859 0.0
C313 C 0.851 0.89536 0.84294 0.0
C314 C 0.84012 0.87685 0.7863 0.0
C315 C 0.79093 0.83557 0.78042 0.0
C316 C 0.83417 0.92422 0.75314 0.0
C317 C 0.89035 0.8517 0.77344 0.0
C318 C 0.9239 0.85534 0.81619 0.0
C319 C 0.97224 0.83466 0.81515 0.0
C320 C -0.01252 0.81049 0.76905 0.0
C321 C 0.95491 0.80704 0.72374 0.0
C322 C 0.90523 0.82773 0.72641 0.0
H323 H 0.12207 0.87366 0.19455 0.0
H324 H 0.2639 0.96974 0.25501 0.0
H325 H 0.25191 0.92972 0.33933 0.0
H326 H 0.0473 0.88733 0.30848 0.0
H327 H 0.01364 0.82061 0.30233 0.0
H328 H 0.03636 0.85334 0.24588 0.0
H329 H 0.0884 0.77414 0.2226 0.0
H330 H 0.06615 0.74246 0.27991 0.0
H331 H 0.13588 0.75525 0.26859 0.0
H332 H 0.22515 0.87851 0.41736 0.0
H333 H 0.17985 0.8303 0.4866 0.0
H334 H 0.04858 0.77422 0.38092 0.0
C335 C 0.15102 0.88546 0.22539 0.0
C336 C 0.19475 0.92413 0.21779 0.0
C337 C 0.2307 0.93977 0.25962 0.0
C338 C 0.22418 0.91712 0.30769 0.0
C339 C 0.18074 0.87932 0.31414 0.0
C340 C 0.14427 0.86409 0.27438 0.0
C341 C 0.09896 0.8257 0.29305 0.0
C342 C 0.04592 0.84817 0.28708 0.0
C343 C 0.09725 0.77115 0.26432 0.0
C344 C 0.11494 0.82276 0.3497 0.0
C345 C 0.16317 0.85278 0.3604 0.0
C346 C 0.18729 0.85512 0.40932 0.0
C347 C 0.16129 0.82711 0.4485 0.0
C348 C 0.11065 0.79793 0.43962 0.0
C349 C 0.0873 0.79585 0.38917 0.0
H350 H 0.03417 0.09432 0.71537 0.0
H351 H 0.11169 0.25542 0.71647 0.0
H352 H 0.16282 0.24027 0.79542 0.0
H353 H 0.02729 0.0828 0.85321 0.0
H354 H 0.04282 0.01545 0.85239 0.0
H355 H 0.0106 0.03892 0.79707 0.0
H356 H 0.08504 0.01165 0.73926 0.0
H357 H 0.11737 -0.01225 0.7943 0.0
H358 H 0.15287 0.03639 0.75598 0.0
H359 H 0.20002 0.20945 0.88095 0.0
H360 H 0.22869 0.16277 0.95609 0.0
H361 H 0.14005 0.01691 0.89301 0.0
C362 C 0.06205 0.12638 0.73215 0.0
C363 C 0.06835 0.1765 0.70925 0.0
C364 C 0.1059 0.21681 0.73261 0.0
C365 C 0.13509 0.20855 0.77788 0.0
C366 C 0.12792 0.15902 0.7995 0.0
C367 C 0.09312 0.11814 0.77667 0.0
C368 C 0.09497 0.06789 0.8064 0.0
C369 C 0.0407 0.05023 0.82856 0.0
C370 C 0.11368 0.02328 0.77192 0.0
C371 C 0.13584 0.0869 0.84951 0.0
C372 C 0.15329 0.14002 0.84556 0.0
C373 C 0.18732 0.16757 0.88352 0.0
C374 C 0.20364 0.14057 0.92632 0.0
C375 C 0.18775 0.08568 0.93094 0.0
C376 C 0.15409 0.05857 0.89082 0.0
H377 H 0.85512 0.1156 0.19515 0.0
H378 H 0.68726 0.12101 0.21236 0.0
H379 H 0.70611 0.16585 0.29957 0.0
H380 H 0.88383 0.08391 0.32321 0.0
H381 H 0.94833 0.12175 0.32511 0.0
H382 H 0.91898 0.09399 0.26475 0.0
H383 H 0.93147 0.1891 0.22987 0.0
H384 H 0.95943 0.21589 0.29128 0.0
H385 H 0.9031 0.24207 0.26354 0.0
H386 H 0.74585 0.20003 0.39203 0.0
H387 H 0.7998 0.22548 0.4721 0.0
H388 H 0.94168 0.20049 0.39062 0.0
C389 C 0.82214 0.12757 0.2164 0.0
C390 C 0.76953 0.11549 0.19583 0.0
C391 C 0.72786 0.13092 0.22608 0.0
C392 C 0.7384 0.15588 0.27612 0.0
C393 C 0.79088 0.16553 0.29556 0.0
C394 C 0.832 0.15222 0.2659 0.0
C395 C 0.88481 0.1641 0.29537 0.0
C396 C 0.91047 0.11294 0.3025 0.0
C397 C 0.92195 0.20529 0.26845 0.0
C398 C 0.8677 0.18664 0.34656 0.0
C399 C 0.8133 0.18656 0.34652 0.0
C400 C 0.78843 0.2012 0.39154 0.0
C401 C 0.81953 0.21577 0.43707 0.0
C402 C 0.87542 0.21677 0.43777 0.0
C403 C 0.89944 0.20233 0.39133 0.0
loop_
_geom_bond_atom_site_label_1
_geom_bond_atom_site_label_2
_geom_bond_distance
_geom_bond_site_symmetry_2
_ccdc_geom_bond_type
Dy0 O4 2.398 . S
Dy0 O5 2.491 . S
Dy0 O6 2.403 . S
Dy0 O7 2.664 1_554 S
Dy0 O11 2.326 . S
Dy0 O15 2.310 . S
Dy0 O16 2.351 1_554 S
C1 O12 1.185 . S
C1 O13 1.355 . S
C2 O4 1.185 . S
C2 O5 1.355 . S
Dy3 O7 2.310 1_565 S
Dy3 O10 2.351 1_556 S
Dy3 O12 2.398 . S
Dy3 O13 2.491 . S
Dy3 O14 2.403 . S
Dy3 O15 2.664 1_566 S
Dy3 O17 2.326 1_565 S
O4 Dy0 2.398 . S
O4 C2 1.185 . S
O5 Dy0 2.491 . S
O5 C2 1.355 . S
O6 Dy0 2.403 . S
O6 C8 1.254 . S
O7 Dy0 2.664 1_556 S
O7 Dy3 2.310 1_545 S
O7 C8 1.268 1_556 S
C8 O6 1.254 . S
C8 O7 1.268 1_554 S
C9 O14 1.240 1_544 S
C9 O15 1.276 . S
O10 Dy3 2.351 1_554 S
O10 C18 1.249 . S
O11 Dy0 2.326 . S
O11 C18 1.267 1_545 S
O12 C1 1.185 . S
O12 Dy3 2.398 . S
O13 C1 1.355 . S
O13 Dy3 2.491 . S
O14 Dy3 2.403 . S
O14 C9 1.240 1_566 S
O15 Dy0 2.310 . S
O15 Dy3 2.664 1_544 S
O15 C9 1.276 . S
O16 Dy0 2.351 1_556 S
O16 C19 1.249 . S
O17 Dy3 2.326 1_545 S
O17 C19 1.267 . S
C18 O10 1.249 . S
C18 O11 1.267 1_565 S
C19 O16 1.249 . S
C19 O17 1.267 . S
Dy20 O24 2.398 . S
Dy20 O25 2.491 . S
Dy20 O26 2.403 . S
Dy20 O27 2.664 1_655 S
Dy20 O31 2.326 1_655 S
Dy20 O35 2.310 1_655 S
Dy20 O36 2.351 . S
C21 O32 1.185 . S
C21 O33 1.355 . S
C22 O24 1.185 . S
C22 O25 1.355 . S
Dy23 O27 2.310 . S
Dy23 O30 2.351 . S
Dy23 O32 2.398 . S
Dy23 O33 2.491 . S
Dy23 O34 2.403 . S
Dy23 O35 2.664 . S
Dy23 O37 2.326 . S
O24 Dy20 2.398 . S
O24 C22 1.185 . S
O25 Dy20 2.491 . S
O25 C22 1.355 . S
O26 Dy20 2.403 . S
O26 C28 1.254 1_655 S
O27 Dy20 2.664 1_455 S
O27 Dy23 2.310 . S
O27 C28 1.268 . S
C28 O26 1.254 1_455 S
C28 O27 1.268 . S
C29 O34 1.254 . S
C29 O35 1.268 . S
O30 Dy23 2.351 . S
O30 C38 1.249 . S
O31 Dy20 2.326 1_455 S
O31 C38 1.267 . S
O32 C21 1.185 . S
O32 Dy23 2.398 . S
O33 C21 1.355 . S
O33 Dy23 2.491 . S
O34 Dy23 2.403 . S
O34 C29 1.254 . S
O35 Dy20 2.310 1_455 S
O35 Dy23 2.664 . S
O35 C29 1.268 . S
O36 Dy20 2.351 . S
O36 C39 1.249 . S
O37 Dy23 2.326 . S
O37 C39 1.267 1_455 S
C38 O30 1.249 . S
C38 O31 1.267 . S
C39 O36 1.249 . S
C39 O37 1.267 1_655 S
Dy40 O44 2.398 . S
Dy40 O45 2.491 . S
Dy40 O46 2.403 . S
Dy40 O47 2.664 1_564 S
Dy40 O51 2.326 1_565 S
Dy40 O55 2.310 . S
Dy40 O56 2.351 1_554 S
C41 O52 1.185 . S
C41 O53 1.355 . S
C42 O44 1.185 . S
C42 O45 1.355 . S
Dy43 O47 2.310 . S
Dy43 O50 2.351 1_556 S
Dy43 O52 2.398 . S
Dy43 O53 2.491 . S
Dy43 O54 2.403 . S
Dy43 O55 2.664 1_546 S
Dy43 O57 2.326 1_545 S
O44 Dy40 2.398 . S
O44 C42 1.185 . S
O45 Dy40 2.491 . S
O45 C42 1.355 . S
O46 Dy40 2.403 . S
O46 C48 1.254 . S
O47 Dy40 2.664 1_546 S
O47 Dy43 2.310 . S
O47 C48 1.268 1_546 S
C48 O46 1.254 . S
C48 O47 1.268 1_564 S
C49 O54 1.247 1_554 S
C49 O55 1.271 1_545 S
O50 Dy43 2.351 1_554 S
O50 C58 1.249 . S
O51 Dy40 2.326 1_545 S
O51 C58 1.267 . S
O52 C41 1.185 . S
O52 Dy43 2.398 . S
O53 C41 1.355 . S
O53 Dy43 2.491 . S
O54 Dy43 2.403 . S
O54 C49 1.247 1_556 S
O55 Dy40 2.310 . S
O55 Dy43 2.664 1_564 S
O55 C49 1.271 1_565 S
O56 Dy40 2.351 1_556 S
O56 C59 1.249 . S
O57 Dy43 2.326 1_565 S
O57 C59 1.267 . S
C58 O50 1.249 . S
C58 O51 1.267 . S
C59 O56 1.249 . S
C59 O57 1.267 . S
Dy60 O64 2.398 . S
Dy60 O65 2.491 . S
Dy60 O66 2.403 . S
Dy60 O67 2.664 1_655 S
Dy60 O71 2.326 1_655 S
Dy60 O75 2.302 1_655 S
Dy60 O76 2.351 . S
C61 O72 1.185 . S
C61 O73 1.355 . S
C62 O64 1.185 . S
C62 O65 1.355 . S
Dy63 O67 2.310 . S
Dy63 O70 2.351 . S
Dy63 O72 2.398 . S
Dy63 O73 2.491 . S
Dy63 O74 2.403 . S
Dy63 O75 2.674 . S
Dy63 O77 2.327 1_455 S
O64 Dy60 2.398 . S
O64 C62 1.185 . S
O65 Dy60 2.491 . S
O65 C62 1.355 . S
O66 Dy60 2.403 . S
O66 C68 1.254 . S
O67 Dy60 2.664 1_455 S
O67 Dy63 2.310 . S
O67 C68 1.268 1_455 S
C68 O66 1.254 . S
C68 O67 1.268 1_655 S
C69 O74 1.254 . S
C69 O75 1.272 . S
O70 Dy63 2.351 . S
O70 C78 1.249 . S
O71 Dy60 2.326 1_455 S
O71 C78 1.267 . S
O72 C61 1.185 . S
O72 Dy63 2.398 . S
O73 C61 1.355 . S
O73 Dy63 2.491 . S
O74 Dy63 2.403 . S
O74 C69 1.254 . S
O75 Dy60 2.302 1_455 S
O75 Dy63 2.674 . S
O75 C69 1.272 . S
O76 Dy60 2.351 . S
O76 C79 1.249 . S
O77 Dy63 2.327 1_655 S
O77 C79 1.267 . S
C78 O70 1.249 . S
C78 O71 1.267 . S
C79 O76 1.249 . S
C79 O77 1.267 . S
H80 C92 0.930 . S
H81 C94 0.930 . S
H82 C95 0.930 . S
H83 C99 0.959 . S
H84 C99 0.959 . S
H85 C99 0.961 1_655 S
H86 C100 0.960 1_655 S
H87 C100 0.961 . S
H88 C100 0.959 . S
H89 C103 0.929 1_565 S
H90 C104 0.931 . S
H91 C106 0.930 . S
C92 H80 0.930 . S
C92 C93 1.399 1_545 S
C92 C97 1.399 . S
C93 C92 1.399 1_565 S
C93 C94 1.376 1_554 S
C94 H81 0.930 . S
C94 C93 1.376 1_556 S
C94 C95 1.388 . S
C95 H82 0.930 . S
C95 C94 1.388 . S
C95 C96 1.390 . S
C96 C95 1.390 . S
C96 C97 1.394 1_566 S
C96 C102 1.465 1_665 S
C97 C92 1.399 . S
C97 C96 1.394 1_544 S
C97 C98 1.516 1_655 S
C98 C97 1.516 1_455 S
C98 C99 1.502 . S
C98 C100 1.561 1_545 S
C98 C101 1.526 . S
C99 H83 0.959 . S
C99 H84 0.959 . S
C99 H85 0.961 1_455 S
C99 C98 1.502 . S
C100 H86 0.960 1_455 S
C100 H87 0.961 . S
C100 H88 0.959 . S
C100 C98 1.561 1_565 S
C101 C98 1.526 . S
C101 C102 1.396 1_554 S
C101 C106 1.390 . S
C102 C96 1.465 1_445 S
C102 C101 1.396 1_556 S
C102 C103 1.399 . S
C103 H89 0.929 1_545 S
C103 C102 1.399 . S
C103 C104 1.385 . S
C104 H90 0.931 . S
C104 C103 1.385 . S
C104 C105 1.389 1_556 S
C105 C104 1.389 1_554 S
C105 C106 1.387 . S
C106 H91 0.930 . S
C106 C101 1.390 . S
C106 C105 1.387 . S
H107 C119 0.930 . S
H108 C121 0.930 . S
H109 C122 0.930 . S
H110 C126 0.959 . S
H111 C126 0.959 . S
H112 C126 0.961 1_565 S
H113 C127 0.960 1_565 S
H114 C127 0.961 . S
H115 C127 0.959 . S
H116 C130 0.929 . S
H117 C131 0.931 . S
H118 C133 0.930 1_655 S
C119 H107 0.930 . S
C119 C120 1.399 1_655 S
C119 C124 1.399 1_655 S
C120 C119 1.399 1_455 S
C120 C121 1.376 . S
C121 H108 0.930 . S
C121 C120 1.376 . S
C121 C122 1.388 . S
C122 H109 0.930 . S
C122 C121 1.388 . S
C122 C123 1.390 . S
C123 C122 1.390 . S
C123 C124 1.394 . S
C123 C129 1.465 1_565 S
C124 C119 1.399 1_455 S
C124 C123 1.394 . S
C124 C125 1.516 1_465 S
C125 C124 1.516 1_645 S
C125 C126 1.502 . S
C125 C127 1.561 1_655 S
C125 C128 1.526 1_655 S
C126 H110 0.959 . S
C126 H111 0.959 . S
C126 H112 0.961 1_545 S
C126 C125 1.502 . S
C127 H113 0.960 1_545 S
C127 H114 0.961 . S
C127 H115 0.959 . S
C127 C125 1.561 1_455 S
C128 C125 1.526 1_455 S
C128 C129 1.396 . S
C128 C133 1.390 . S
C129 C123 1.465 1_545 S
C129 C128 1.396 . S
C129 C130 1.399 . S
C130 H116 0.929 . S
C130 C129 1.399 . S
C130 C131 1.385 . S
C131 H117 0.931 . S
C131 C130 1.385 . S
C131 C132 1.389 . S
C132 C131 1.389 . S
C132 C133 1.387 . S
C133 H118 0.930 1_455 S
C133 C128 1.390 . S
C133 C132 1.387 . S
H134 C146 0.930 . S
H135 C148 0.930 . S
H136 C149 0.930 . S
H137 C153 0.959 1_554 S
H138 C153 0.959 . S
H139 C153 0.961 . S
H140 C154 0.960 . S
H141 C154 0.961 . S
H142 C154 0.959 . S
H143 C157 0.929 . S
H144 C158 0.931 . S
H145 C160 0.930 . S
C146 H134 0.930 . S
C146 C147 1.399 1_545 S
C146 C151 1.399 . S
C147 C146 1.399 1_565 S
C147 C148 1.376 1_556 S
C148 H135 0.930 . S
C148 C147 1.376 1_554 S
C148 C149 1.388 . S
C149 H136 0.930 . S
C149 C148 1.388 . S
C149 C150 1.390 . S
C150 C149 1.390 . S
C150 C151 1.394 1_564 S
C150 C156 1.465 . S
C151 C146 1.399 . S
C151 C150 1.394 1_546 S
C151 C152 1.516 . S
C152 C151 1.516 . S
C152 C153 1.502 . S
C152 C154 1.561 . S
C152 C155 1.526 . S
C153 H137 0.959 1_556 S
C153 H138 0.959 . S
C153 H139 0.961 . S
C153 C152 1.502 . S
C154 H140 0.960 . S
C154 H141 0.961 . S
C154 H142 0.959 . S
C154 C152 1.561 . S
C155 C152 1.526 . S
C155 C156 1.396 1_546 S
C155 C160 1.390 . S
C156 C150 1.465 . S
C156 C155 1.396 1_564 S
C156 C157 1.399 . S
C157 H143 0.929 . S
C157 C156 1.399 . S
C157 C158 1.385 . S
C158 H144 0.931 . S
C158 C157 1.385 . S
C158 C159 1.391 1_565 S
C159 C158 1.391 1_545 S
C159 C160 1.385 1_554 S
C160 H145 0.930 . S
C160 C155 1.390 . S
C160 C159 1.385 1_556 S
H161 C173 0.930 . S
H162 C175 0.930 . S
H163 C176 0.930 . S
H164 C180 0.959 . S
H165 C180 0.959 . S
H166 C180 0.961 . S
H167 C181 0.960 . S
H168 C181 0.961 . S
H169 C181 0.959 . S
H170 C184 0.929 . S
H171 C185 0.931 . S
H172 C187 0.930 . S
C173 H161 0.930 . S
C173 C174 1.399 1_655 S
C173 C178 1.399 1_655 S
C174 C173 1.399 1_455 S
C174 C175 1.376 . S
C175 H162 0.930 . S
C175 C174 1.376 . S
C175 C176 1.388 . S
C176 H163 0.930 . S
C176 C175 1.388 . S
C176 C177 1.390 . S
C177 C176 1.390 . S
C177 C178 1.394 . S
C177 C183 1.465 . S
C178 C173 1.399 1_455 S
C178 C177 1.394 . S
C178 C179 1.516 1_455 S
C179 C178 1.516 1_655 S
C179 C180 1.502 . S
C179 C181 1.561 1_655 S
C179 C182 1.526 1_655 S
C180 H164 0.959 . S
C180 H165 0.959 . S
C180 H166 0.961 . S
C180 C179 1.502 . S
C181 H167 0.960 . S
C181 H168 0.961 . S
C181 H169 0.959 . S
C181 C179 1.561 1_455 S
C182 C179 1.526 1_455 S
C182 C183 1.396 . S
C182 C187 1.390 1_455 S
C183 C177 1.465 . S
C183 C182 1.396 . S
C183 C184 1.399 . S
C184 H170 0.929 . S
C184 C183 1.399 . S
C184 C185 1.385 . S
C185 H171 0.931 . S
C185 C184 1.385 . S
C185 C186 1.389 . S
C186 C185 1.389 . S
C186 C187 1.387 1_455 S
C187 H172 0.930 . S
C187 C182 1.390 1_655 S
C187 C186 1.387 1_655 S
H188 C200 0.930 . S
H189 C202 0.930 . S
H190 C203 0.930 . S
H191 C207 0.959 . S
H192 C207 0.959 . S
H193 C207 0.961 . S
H194 C208 0.960 . S
H195 C208 0.961 . S
H196 C208 0.959 . S
H197 C211 0.929 . S
H198 C212 0.931 . S
H199 C214 0.930 . S
C200 H188 0.930 . S
C200 C201 1.399 . S
C200 C205 1.399 . S
C201 C200 1.399 . S
C201 C202 1.376 . S
C202 H189 0.930 . S
C202 C201 1.376 . S
C202 C203 1.388 . S
C203 H190 0.930 . S
C203 C202 1.388 . S
C203 C204 1.390 . S
C204 C203 1.390 . S
C204 C205 1.394 . S
C204 C210 1.465 . S
C205 C200 1.399 . S
C205 C204 1.394 . S
C205 C206 1.516 . S
C206 C205 1.516 . S
C206 C207 1.502 . S
C206 C208 1.561 . S
C206 C209 1.526 . S
C207 H191 0.959 . S
C207 H192 0.959 . S
C207 H193 0.961 . S
C207 C206 1.502 . S
C208 H194 0.960 . S
C208 H195 0.961 . S
C208 H196 0.959 . S
C208 C206 1.561 . S
C209 C206 1.526 . S
C209 C210 1.396 . S
C209 C214 1.390 . S
C210 C204 1.465 . S
C210 C209 1.396 . S
C210 C211 1.399 . S
C211 H197 0.929 . S
C211 C210 1.399 . S
C211 C212 1.385 . S
C212 H198 0.931 . S
C212 C211 1.385 . S
C212 C213 1.389 . S
C213 C212 1.389 . S
C213 C214 1.387 . S
C214 H199 0.930 . S
C214 C209 1.390 . S
C214 C213 1.387 . S
H215 C227 0.930 . S
H216 C229 0.930 . S
H217 C230 0.930 . S
H218 C234 0.959 . S
H219 C234 0.959 . S
H220 C234 0.961 . S
H221 C235 0.960 . S
H222 C235 0.961 . S
H223 C235 0.959 . S
H224 C238 0.929 . S
H225 C239 0.931 . S
H226 C241 0.930 . S
C227 H215 0.930 . S
C227 C228 1.399 . S
C227 C232 1.399 . S
C228 C227 1.399 . S
C228 C229 1.376 . S
C229 H216 0.930 . S
C229 C228 1.376 . S
C229 C230 1.388 . S
C230 H217 0.930 . S
C230 C229 1.388 . S
C230 C231 1.390 . S
C231 C230 1.390 . S
C231 C232 1.394 . S
C231 C237 1.465 . S
C232 C227 1.399 . S
C232 C231 1.394 . S
C232 C233 1.516 . S
C233 C232 1.516 . S
C233 C234 1.502 . S
C233 C235 1.561 . S
C233 C236 1.526 . S
C234 H218 0.959 . S
C234 H219 0.959 . S
C234 H220 0.961 . S
C234 C233 1.502 . S
C235 H221 0.960 . S
C235 H222 0.961 . S
C235 H223 0.959 . S
C235 C233 1.561 . S
C236 C233 1.526 . S
C236 C237 1.396 . S
C236 C241 1.390 . S
C237 C231 1.465 . S
C237 C236 1.396 . S
C237 C238 1.399 . S
C238 H224 0.929 . S
C238 C237 1.399 . S
C238 C239 1.385 . S
C239 H225 0.931 . S
C239 C238 1.385 . S
C239 C240 1.389 . S
C240 C239 1.389 . S
C240 C241 1.387 . S
C241 H226 0.930 . S
C241 C236 1.390 . S
C241 C240 1.387 . S
H242 C254 0.930 . S
H243 C256 0.930 . S
H244 C257 0.930 . S
H245 C261 0.959 . S
H246 C261 0.959 . S
H247 C261 0.961 . S
H248 C262 0.960 . S
H249 C262 0.961 . S
H250 C262 0.959 . S
H251 C265 0.929 . S
H252 C266 0.931 . S
H253 C268 0.930 . S
C254 H242 0.930 . S
C254 C255 1.399 . S
C254 C259 1.399 . S
C255 C254 1.399 . S
C255 C256 1.376 . S
C256 H243 0.930 . S
C256 C255 1.376 . S
C256 C257 1.388 . S
C257 H244 0.930 . S
C257 C256 1.388 . S
C257 C258 1.390 . S
C258 C257 1.390 . S
C258 C259 1.394 . S
C258 C264 1.465 . S
C259 C254 1.399 . S
C259 C258 1.394 . S
C259 C260 1.516 . S
C260 C259 1.516 . S
C260 C261 1.502 . S
C260 C262 1.561 . S
C260 C263 1.526 . S
C261 H245 0.959 . S
C261 H246 0.959 . S
C261 H247 0.961 . S
C261 C260 1.502 . S
C262 H248 0.960 . S
C262 H249 0.961 . S
C262 H250 0.959 . S
C262 C260 1.561 . S
C263 C260 1.526 . S
C263 C264 1.396 . S
C263 C268 1.390 . S
C264 C258 1.465 . S
C264 C263 1.396 . S
C264 C265 1.399 . S
C265 H251 0.929 . S
C265 C264 1.399 . S
C265 C266 1.385 . S
C266 H252 0.931 . S
C266 C265 1.385 . S
C266 C267 1.389 . S
C267 C266 1.389 . S
C267 C268 1.387 . S
C268 H253 0.930 . S
C268 C263 1.390 . S
C268 C267 1.387 . S
H269 C281 0.930 . S
H270 C283 0.930 . S
H271 C284 0.930 . S
H272 C288 0.959 . S
H273 C288 0.959 . S
H274 C288 0.961 . S
H275 C289 0.960 . S
H276 C289 0.961 . S
H277 C289 0.959 . S
H278 C292 0.929 . S
H279 C293 0.927 1_545 S
H280 C295 0.930 . S
C281 H269 0.930 . S
C281 C282 1.399 . S
C281 C286 1.399 . S
C282 C281 1.399 . S
C282 C283 1.376 . S
C283 H270 0.930 . S
C283 C282 1.376 . S
C283 C284 1.388 . S
C284 H271 0.930 . S
C284 C283 1.388 . S
C284 C285 1.390 . S
C285 C284 1.390 . S
C285 C286 1.394 . S
C285 C291 1.465 . S
C286 C281 1.399 . S
C286 C285 1.394 . S
C286 C287 1.516 . S
C287 C286 1.516 . S
C287 C288 1.502 . S
C287 C289 1.561 . S
C287 C290 1.526 . S
C288 H272 0.959 . S
C288 H273 0.959 . S
C288 H274 0.961 . S
C288 C287 1.502 . S
C289 H275 0.960 . S
C289 H276 0.961 . S
C289 H277 0.959 . S
C289 C287 1.561 . S
C290 C287 1.526 . S
C290 C291 1.396 . S
C290 C295 1.390 . S
C291 C285 1.465 . S
C291 C290 1.396 . S
C291 C292 1.399 . S
C292 H278 0.929 . S
C292 C291 1.399 . S
C292 C293 1.385 . S
C293 H279 0.927 1_565 S
C293 C292 1.385 . S
C293 C294 1.389 . S
C294 C293 1.389 . S
C294 C295 1.387 . S
C295 H280 0.930 . S
C295 C290 1.390 . S
C295 C294 1.387 . S
H296 C308 0.930 . S
H297 C310 0.930 . S
H298 C311 0.930 . S
H299 C315 0.959 . S
H300 C315 0.959 . S
H301 C315 0.961 . S
H302 C316 0.960 . S
H303 C316 0.961 . S
H304 C316 0.959 . S
H305 C319 0.929 . S
H306 C320 0.931 . S
H307 C322 0.930 . S
C308 H296 0.930 . S
C308 C309 1.399 . S
C308 C313 1.399 . S
C309 C308 1.399 . S
C309 C310 1.376 . S
C310 H297 0.930 . S
C310 C309 1.376 . S
C310 C311 1.388 . S
C311 H298 0.930 . S
C311 C310 1.388 . S
C311 C312 1.390 . S
C312 C311 1.390 . S
C312 C313 1.394 . S
C312 C318 1.465 . S
C313 C308 1.399 . S
C313 C312 1.394 . S
C313 C314 1.516 . S
C314 C313 1.516 . S
C314 C315 1.502 . S
C314 C316 1.561 . S
C314 C317 1.526 . S
C315 H299 0.959 . S
C315 H300 0.959 . S
C315 H301 0.961 . S
C315 C314 1.502 . S
C316 H302 0.960 . S
C316 H303 0.961 . S
C316 H304 0.959 . S
C316 C314 1.561 . S
C317 C314 1.526 . S
C317 C318 1.396 . S
C317 C322 1.390 . S
C318 C312 1.465 . S
C318 C317 1.396 . S
C318 C319 1.399 . S
C319 H305 0.929 . S
C319 C318 1.399 . S
C319 C320 1.385 . S
C320 H306 0.931 . S
C320 C319 1.385 . S
C320 C321 1.389 . S
C321 C320 1.389 . S
C321 C322 1.387 . S
C322 H307 0.930 . S
C322 C317 1.390 . S
C322 C321 1.387 . S
H323 C335 0.930 . S
H324 C337 0.930 1_545 S
H325 C338 0.930 1_545 S
H326 C342 0.959 . S
H327 C342 0.959 . S
H328 C342 0.961 . S
H329 C343 0.960 . S
H330 C343 0.961 . S
H331 C343 0.959 . S
H332 C346 0.929 . S
H333 C347 0.931 . S
H334 C349 0.930 . S
C335 H323 0.930 . S
C335 C336 1.399 . S
C335 C340 1.399 . S
C336 C335 1.399 . S
C336 C337 1.376 . S
C337 H324 0.930 1_565 S
C337 C336 1.376 . S
C337 C338 1.388 . S
C338 H325 0.930 1_565 S
C338 C337 1.388 . S
C338 C339 1.390 . S
C339 C338 1.390 . S
C339 C340 1.394 . S
C339 C345 1.465 . S
C340 C335 1.399 . S
C340 C339 1.394 . S
C340 C341 1.516 . S
C341 C340 1.516 . S
C341 C342 1.502 . S
C341 C343 1.561 . S
C341 C344 1.526 . S
C342 H326 0.959 . S
C342 H327 0.959 . S
C342 H328 0.961 . S
C342 C341 1.502 . S
C343 H329 0.960 . S
C343 H330 0.961 . S
C343 H331 0.959 . S
C343 C341 1.561 . S
C344 C341 1.526 . S
C344 C345 1.396 . S
C344 C349 1.390 . S
C345 C339 1.465 . S
C345 C344 1.396 . S
C345 C346 1.399 . S
C346 H332 0.929 . S
C346 C345 1.399 . S
C346 C347 1.385 . S
C347 H333 0.931 . S
C347 C346 1.385 . S
C347 C348 1.389 . S
C348 C347 1.389 . S
C348 C349 1.387 . S
C349 H334 0.930 . S
C349 C344 1.390 . S
C349 C348 1.387 . S
H350 C362 0.930 . S
H351 C364 0.930 . S
H352 C365 0.930 . S
H353 C369 0.959 . S
H354 C369 0.959 . S
H355 C369 0.961 . S
H356 C370 0.960 . S
H357 C370 0.961 . S
H358 C370 0.959 . S
H359 C373 0.929 . S
H360 C374 0.931 . S
H361 C376 0.930 . S
C362 H350 0.930 . S
C362 C363 1.399 . S
C362 C367 1.399 . S
C363 C362 1.399 . S
C363 C364 1.376 . S
C364 H351 0.930 . S
C364 C363 1.376 . S
C364 C365 1.388 . S
C365 H352 0.930 . S
C365 C364 1.388 . S
C365 C366 1.390 . S
C366 C365 1.390 . S
C366 C367 1.394 . S
C366 C372 1.465 . S
C367 C362 1.399 . S
C367 C366 1.394 . S
C367 C368 1.516 . S
C368 C367 1.516 . S
C368 C369 1.502 . S
C368 C370 1.561 . S
C368 C371 1.526 . S
C369 H353 0.959 . S
C369 H354 0.959 . S
C369 H355 0.961 . S
C369 C368 1.502 . S
C370 H356 0.960 . S
C370 H357 0.961 . S
C370 H358 0.959 . S
C370 C368 1.561 . S
C371 C368 1.526 . S
C371 C372 1.396 . S
C371 C376 1.390 . S
C372 C366 1.465 . S
C372 C371 1.396 . S
C372 C373 1.399 . S
C373 H359 0.929 . S
C373 C372 1.399 . S
C373 C374 1.385 . S
C374 H360 0.931 . S
C374 C373 1.385 . S
C374 C375 1.389 . S
C375 C374 1.389 . S
C375 C376 1.387 . S
C376 H361 0.930 . S
C376 C371 1.390 . S
C376 C375 1.387 . S
H377 C389 0.930 . S
H378 C391 0.930 . S
H379 C392 0.930 . S
H380 C396 0.959 . S
H381 C396 0.959 . S
H382 C396 0.961 . S
H383 C397 0.960 . S
H384 C397 0.961 . S
H385 C397 0.959 . S
H386 C400 0.929 . S
H387 C401 0.931 . S
H388 C403 0.930 . S
C389 H377 0.930 . S
C389 C390 1.399 . S
C389 C394 1.399 . S
C390 C389 1.399 . S
C390 C391 1.376 . S
C391 H378 0.930 . S
C391 C390 1.376 . S
C391 C392 1.388 . S
C392 H379 0.930 . S
C392 C391 1.388 . S
C392 C393 1.390 . S
C393 C392 1.390 . S
C393 C394 1.394 . S
C393 C399 1.465 . S
C394 C389 1.399 . S
C394 C393 1.394 . S
C394 C395 1.516 . S
C395 C394 1.516 . S
C395 C396 1.502 . S
C395 C397 1.561 . S
C395 C398 1.526 . S
C396 H380 0.959 . S
C396 H381 0.959 . S
C396 H382 0.961 . S
C396 C395 1.502 . S
C397 H383 0.960 . S
C397 H384 0.961 . S
C397 H385 0.959 . S
C397 C395 1.561 . S
C398 C395 1.526 . S
C398 C399 1.396 . S
C398 C403 1.390 . S
C399 C393 1.465 . S
C399 C398 1.396 . S
C399 C400 1.399 . S
C400 H386 0.929 . S
C400 C399 1.399 . S
C400 C401 1.385 . S
C401 H387 0.931 . S
C401 C400 1.385 . S
C401 C402 1.389 . S
C402 C401 1.389 . S
C402 C403 1.387 . S
C403 H388 0.930 . S
C403 C398 1.390 . S
C403 C402 1.387 . S
C93 C49 0.903 1_565 S
C105 C9 0.823 . S
C120 C69 0.834 . S
C132 C29 0.756 . S
C147 C48 0.991 1_556 S
C159 C8 1.037 . S
C174 C28 1.041 . S
C186 C68 1.007 1_455 S
C201 C21 0.678 . S
C213 C2 0.789 . S
C228 C22 0.883 . S
C240 C41 0.781 . S
C255 C62 0.781 . S
C267 C42 0.862 . S
C282 C61 0.716 . S
C294 C1 0.836 . S
C309 C59 2.298 . S
C321 C79 2.303 . S
C336 C18 2.484 . S
C348 C78 2.475 . S
C363 C38 2.518 . S
C375 C19 2.433 . S
C390 C58 2.373 . S
C402 C39 2.276 . S
