# Generated by pormake.
# Topology uof, (4)-cn, num edge types: 1
# Building blocks:
#     Node 0, Type 0, BuildingBlock: KUFVIS_clean_sbu_0, # of connection points: 4
#     Node 1, Type 0, BuildingBlock: KUFVIS_clean_sbu_0, # of connection points: 4
#     Node 2, Type 0, BuildingBlock: KUFVIS_clean_sbu_0, # of connection points: 4
#     Node 3, Type 0, BuildingBlock: KUFVIS_clean_sbu_0, # of connection points: 4
#     Node 4, Type 0, BuildingBlock: KUFVIS_clean_sbu_0, # of connection points: 4
#     Node 5, Type 0, BuildingBlock: KUFVIS_clean_sbu_0, # of connection points: 4
#     Node 6, Type 0, BuildingBlock: KUFVIS_clean_sbu_0, # of connection points: 4
#     Node 7, Type 0, BuildingBlock: KUFVIS_clean_sbu_0, # of connection points: 4
#     Node 8, Type 0, BuildingBlock: KUFVIS_clean_sbu_0, # of connection points: 4
#     Node 9, Type 0, BuildingBlock: KUFVIS_clean_sbu_0, # of connection points: 4
#     Node 10, Type 0, BuildingBlock: KUFVIS_clean_sbu_0, # of connection points: 4
#     Node 11, Type 0, BuildingBlock: KUFVIS_clean_sbu_0, # of connection points: 4
#     Edge 12, Type (0, 0), BuildingBlock: AJUNOK_clean_linker_0, # of connection points: 2
#     Edge 13, Type (0, 0), BuildingBlock: AJUNOK_clean_linker_0, # of connection points: 2
#     Edge 14, Type (0, 0), BuildingBlock: AJUNOK_clean_linker_0, # of connection points: 2
#     Edge 15, Type (0, 0), BuildingBlock: AJUNOK_clean_linker_0, # of connection points: 2
#     Edge 16, Type (0, 0), BuildingBlock: AJUNOK_clean_linker_0, # of connection points: 2
#     Edge 17, Type (0, 0), BuildingBlock: AJUNOK_clean_linker_0, # of connection points: 2
#     Edge 18, Type (0, 0), BuildingBlock: AJUNOK_clean_linker_0, # of connection points: 2
#     Edge 19, Type (0, 0), BuildingBlock: AJUNOK_clean_linker_0, # of connection points: 2
#     Edge 20, Type (0, 0), BuildingBlock: AJUNOK_clean_linker_0, # of connection points: 2
#     Edge 21, Type (0, 0), BuildingBlock: AJUNOK_clean_linker_0, # of connection points: 2
#     Edge 22, Type (0, 0), BuildingBlock: AJUNOK_clean_linker_0, # of connection points: 2
#     Edge 23, Type (0, 0), BuildingBlock: AJUNOK_clean_linker_0, # of connection points: 2
#     Edge 24, Type (0, 0), BuildingBlock: AJUNOK_clean_linker_0, # of connection points: 2
#     Edge 25, Type (0, 0), BuildingBlock: AJUNOK_clean_linker_0, # of connection points: 2
#     Edge 26, Type (0, 0), BuildingBlock: AJUNOK_clean_linker_0, # of connection points: 2
#     Edge 27, Type (0, 0), BuildingBlock: AJUNOK_clean_linker_0, # of connection points: 2
#     Edge 28, Type (0, 0), BuildingBlock: AJUNOK_clean_linker_0, # of connection points: 2
#     Edge 29, Type (0, 0), BuildingBlock: AJUNOK_clean_linker_0, # of connection points: 2
#     Edge 30, Type (0, 0), BuildingBlock: AJUNOK_clean_linker_0, # of connection points: 2
#     Edge 31, Type (0, 0), BuildingBlock: AJUNOK_clean_linker_0, # of connection points: 2
#     Edge 32, Type (0, 0), BuildingBlock: AJUNOK_clean_linker_0, # of connection points: 2
#     Edge 33, Type (0, 0), BuildingBlock: AJUNOK_clean_linker_0, # of connection points: 2
#     Edge 34, Type (0, 0), BuildingBlock: AJUNOK_clean_linker_0, # of connection points: 2
#     Edge 35, Type (0, 0), BuildingBlock: AJUNOK_clean_linker_0, # of connection points: 2
# Relax obj value: 0.171
# Max RMSD: 0.138
# Mean RMSD: 0.138
data_MOF--net-uof--node1-KUFVIS_clean_sbu_0--edge1-AJUNOK_clean_linker_0
_symmetry_space_group_name_H-M    P1
_symmetry_Int_Tables_number       1
_symmetry_cell_setting            triclinic
loop_
_symmetry_equiv_pos_as_xyz
'x, y, z'
_cell_length_a     23.851634
_cell_length_b     23.768634
_cell_length_c     47.428129
_cell_angle_alpha  89.980093
_cell_angle_beta   90.259449
_cell_angle_gamma 119.77407
loop_
_atom_site_label
_atom_site_type_symbol
_atom_site_fract_x
_atom_site_fract_y
_atom_site_fract_z
_atom_type_partial_charge
Mn0 Mn 0.26096 0.33189 0.19358 0.0
Mn1 Mn 0.38542 0.30668 0.21532 0.0
C2 C 0.28258 0.26303 0.169 0.0
C3 C 0.15003 0.29941 0.18166 0.0
C4 C 0.40758 0.43429 0.19433 0.0
O5 O 0.26098 0.34169 0.23718 0.0
O6 O 0.34359 0.32187 0.24672 0.0
C7 C 0.33535 0.19547 0.25343 0.0
N8 N 0.35542 0.21946 0.227 0.0
C9 C 0.35361 0.12185 0.21257 0.0
C10 C 0.33193 0.09593 0.23954 0.0
C11 C 0.32291 0.13296 0.26007 0.0
C12 C 0.36579 0.18484 0.20727 0.0
H13 H 0.33087 0.22466 0.26967 0.0
C14 C 0.29913 0.33356 0.25417 0.0
O15 O 0.1956 0.35961 0.18205 0.0
O16 O 0.16659 0.25939 0.19214 0.0
N17 N 0.43067 0.29381 0.18485 0.0
C18 C 0.4882 0.35245 0.16725 0.0
C19 C 0.52427 0.34364 0.13769 0.0
C20 C 0.50411 0.26849 0.12483 0.0
C21 C 0.41386 0.17954 0.15809 0.0
C22 C 0.39668 0.2173 0.18337 0.0
H23 H 0.45169 0.32351 0.18103 0.0
O24 O 0.26645 0.30063 0.15565 0.0
O25 O 0.30138 0.27791 0.19494 0.0
O26 O 0.34907 0.41989 0.18921 0.0
O27 O 0.42267 0.39522 0.20478 0.0
C28 C 0.38969 0.11197 0.16509 0.0
C29 C 0.36343 0.08619 0.19157 0.0
H30 H 0.32216 0.0475 0.24475 0.0
H31 H 0.30695 0.11361 0.281 0.0
H32 H 0.5619 0.3863 0.12747 0.0
H33 H 0.53029 0.26517 0.10662 0.0
H34 H 0.39419 0.0777 0.1517 0.0
H35 H 0.35088 0.03649 0.19585 0.0
Mn36 Mn 0.94704 0.24269 0.53036 0.0
Mn37 Mn 0.10014 0.36998 0.54436 0.0
C38 C 0.02863 0.26438 0.50049 0.0
C39 C 0.87019 0.12943 0.52076 0.0
C40 C 0.98895 0.38946 0.53038 0.0
O41 O 0.95013 0.24524 0.57421 0.0
O42 O 0.05226 0.33166 0.5786 0.0
C43 C 0.16906 0.32101 0.5785 0.0
N44 N 0.15903 0.34014 0.55275 0.0
C45 C 0.24813 0.33411 0.53298 0.0
C46 C 0.25882 0.31366 0.55925 0.0
C47 C 0.21927 0.30732 0.58212 0.0
C48 C 0.19782 0.34818 0.53073 0.0
H49 H 0.13998 0.31783 0.59643 0.0
C50 C 0.99971 0.2865 0.58884 0.0
O51 O 0.85273 0.173 0.52324 0.0
O52 O 0.92936 0.14935 0.52815 0.0
N53 N 0.14985 0.41162 0.51122 0.0
C54 C 0.14442 0.46691 0.49466 0.0
C55 C 0.17843 0.50194 0.46322 0.0
C56 C 0.23143 0.47933 0.44604 0.0
C57 C 0.23791 0.39125 0.47952 0.0
C58 C 0.1905 0.37799 0.50738 0.0
H59 H 0.11525 0.48514 0.50365 0.0
O60 O 0.97173 0.24744 0.49041 0.0
O61 O 0.04019 0.28463 0.52633 0.0
O62 O 0.94381 0.33008 0.52812 0.0
O63 O 0.04622 0.40597 0.53667 0.0
C64 C 0.28096 0.36539 0.48373 0.0
C65 C 0.28686 0.34075 0.50973 0.0
H66 H 0.29745 0.30263 0.5621 0.0
H67 H 0.22757 0.29212 0.60248 0.0
H68 H 0.20718 0.49665 0.45084 0.0
H69 H 0.25911 0.49841 0.42368 0.0
H70 H 0.31488 0.36737 0.46826 0.0
H71 H 0.32364 0.32682 0.51176 0.0
Mn72 Mn 0.72302 0.93834 0.86287 0.0
Mn73 Mn 0.7422 0.09038 0.87511 0.0
C74 C 0.78287 0.02048 0.83331 0.0
C75 C 0.76582 0.86651 0.8533 0.0
C76 C 0.61547 0.97598 0.85968 0.0
O77 O 0.72075 0.9415 0.90661 0.0
O78 O 0.72916 0.04144 0.9099 0.0
C79 C 0.85683 0.1572 0.91151 0.0
N80 N 0.82905 0.15088 0.88565 0.0
C81 C 0.92562 0.24153 0.86776 0.0
C82 C 0.9554 0.24793 0.89408 0.0
C83 C 0.92082 0.20577 0.91605 0.0
C84 C 0.86146 0.19195 0.86444 0.0
H85 H 0.83023 0.12588 0.92877 0.0
C86 C 0.7241 0.98982 0.92075 0.0
O87 O 0.70408 0.84489 0.8555 0.0
O88 O 0.80103 0.92539 0.86214 0.0
N89 N 0.75359 0.14134 0.84163 0.0
C90 C 0.69514 0.1339 0.82268 0.0
C91 C 0.69789 0.16689 0.79036 0.0
C92 C 0.7751 0.22125 0.77504 0.0
C93 C 0.86505 0.23139 0.8123 0.0
C94 C 0.82771 0.18413 0.83994 0.0
H95 H 0.64685 0.10314 0.83026 0.0
O96 O 0.74459 0.96338 0.82298 0.0
O97 O 0.77141 0.03186 0.85872 0.0
O98 O 0.63156 0.93176 0.85974 0.0
O99 O 0.65428 0.03459 0.86494 0.0
C100 C 0.93272 0.27563 0.81815 0.0
C101 C 0.95967 0.28199 0.84512 0.0
H102 H 1.00509 0.28524 0.89766 0.0
H103 H 0.94333 0.21085 0.93647 0.0
H104 H 0.7332 0.19609 0.7787 0.0
H105 H 0.78628 0.24833 0.75236 0.0
H106 H 0.96624 0.3095 0.80309 0.0
H107 H 1.00984 0.31877 0.84812 0.0
Mn108 Mn 0.8102 0.73661 0.20245 0.0
Mn109 Mn 0.70214 0.7827 0.22332 0.0
C110 C 0.8005 0.81059 0.17584 0.0
C111 C 0.91909 0.76091 0.19315 0.0
C112 C 0.66435 0.64682 0.20653 0.0
O113 O 0.80176 0.72225 0.246 0.0
O114 O 0.74876 0.77795 0.256 0.0
C115 C 0.76087 0.90641 0.2531 0.0
N116 N 0.73598 0.87333 0.22852 0.0
C117 C 0.73447 0.96463 0.20785 0.0
C118 C 0.76059 0.99965 0.23291 0.0
C119 C 0.77363 0.97034 0.25565 0.0
C120 C 0.72132 0.9003 0.20677 0.0
H121 H 0.76912 0.88349 0.27105 0.0
C122 C 0.77995 0.74933 0.26318 0.0
O123 O 0.87085 0.70176 0.19246 0.0
O124 O 0.90562 0.8023 0.2044 0.0
N125 N 0.65316 0.78614 0.19125 0.0
C126 C 0.5946 0.72398 0.17689 0.0
C127 C 0.55494 0.72089 0.14631 0.0
C128 C 0.57347 0.79044 0.12845 0.0
C129 C 0.66719 0.88985 0.15712 0.0
C130 C 0.68617 0.85974 0.18519 0.0
H131 H 0.5761 0.67824 0.18725 0.0
O132 O 0.81373 0.76942 0.16411 0.0
O133 O 0.78114 0.79963 0.20188 0.0
O134 O 0.71727 0.65725 0.19513 0.0
O135 O 0.6601 0.68956 0.2206 0.0
C136 C 0.69162 0.95878 0.15988 0.0
C137 C 0.72126 0.99289 0.1847 0.0
H138 H 0.77102 0.04935 0.23489 0.0
H139 H 0.79325 0.99685 0.27511 0.0
H140 H 0.51641 0.67487 0.13872 0.0
H141 H 0.54569 0.78758 0.1096 0.0
H142 H 0.68508 0.98814 0.14429 0.0
H143 H 0.73416 0.04349 0.18583 0.0
Mn144 Mn 0.08778 0.79458 0.53308 0.0
Mn145 Mn 0.94072 0.68756 0.56114 0.0
C146 C 0.99724 0.77854 0.50987 0.0
C147 C 0.16687 0.90361 0.51968 0.0
C148 C 0.03534 0.64881 0.54037 0.0
O149 O 0.10482 0.79382 0.5762 0.0
O150 O 0.9996 0.73992 0.5906 0.0
C151 C 0.88356 0.75144 0.59285 0.0
N152 N 0.88524 0.72203 0.56843 0.0
C153 C 0.78773 0.71696 0.55192 0.0
C154 C 0.78543 0.74765 0.57684 0.0
C155 C 0.83348 0.76484 0.5974 0.0
C156 C 0.83833 0.70366 0.54878 0.0
H157 H 0.91915 0.76281 0.60924 0.0
C158 C 0.06017 0.77404 0.59521 0.0
O159 O 0.1799 0.85657 0.51886 0.0
O160 O 0.11458 0.88957 0.53313 0.0
N161 N 0.88033 0.63252 0.53251 0.0
C162 C 0.8797 0.57044 0.51924 0.0
C163 C 0.83407 0.52452 0.49141 0.0
C164 C 0.77875 0.54056 0.47571 0.0
C165 C 0.78165 0.63981 0.50204 0.0
C166 C 0.83826 0.66467 0.52755 0.0
H167 H 0.90987 0.55392 0.52859 0.0
O168 O 0.0489 0.79144 0.49602 0.0
O169 O 0.99568 0.76327 0.53628 0.0
O170 O 0.07469 0.70083 0.52728 0.0
O171 O 0.99162 0.6456 0.55632 0.0
C172 C 0.73824 0.6652 0.50652 0.0
C173 C 0.74053 0.69965 0.5309 0.0
H174 H 0.74692 0.75848 0.58037 0.0
H175 H 0.83174 0.78803 0.61675 0.0
H176 H 0.83886 0.48394 0.48424 0.0
H177 H 0.7484 0.50853 0.45879 0.0
H178 H 0.69817 0.65601 0.49289 0.0
H179 H 0.70349 0.71302 0.53346 0.0
Mn180 Mn 0.30867 0.06927 0.86956 0.0
Mn181 Mn 0.26637 0.91854 0.89526 0.0
C182 C 0.23637 0.98099 0.84452 0.0
C183 C 0.28109 0.15143 0.8576 0.0
C184 C 0.40055 0.01499 0.87666 0.0
O185 O 0.3233 0.08202 0.91295 0.0
O186 O 0.27165 0.97509 0.9254 0.0
C187 C 0.14421 0.86007 0.92555 0.0
N188 N 0.17645 0.86328 0.90138 0.0
C189 C 0.08476 0.76798 0.88306 0.0
C190 C 0.05059 0.76406 0.90771 0.0
C191 C 0.0805 0.81022 0.92906 0.0
C192 C 0.14886 0.8181 0.88098 0.0
H193 H 0.16759 0.89424 0.94252 0.0
C194 C 0.29736 0.03526 0.93107 0.0
O195 O 0.34056 0.16336 0.85715 0.0
O196 O 0.2414 0.0972 0.86951 0.0
N197 N 0.26203 0.8599 0.86599 0.0
C198 C 0.32392 0.86028 0.85339 0.0
C199 C 0.32842 0.81882 0.82492 0.0
C200 C 0.25529 0.76271 0.80677 0.0
C201 C 0.15802 0.76523 0.83362 0.0
C202 C 0.18869 0.81913 0.86003 0.0
H203 H 0.36942 0.88942 0.86368 0.0
O204 O 0.27586 0.03421 0.83173 0.0
O205 O 0.24794 0.97665 0.871 0.0
O206 O 0.38886 0.05599 0.86418 0.0
O207 O 0.35903 0.96925 0.89149 0.0
C208 C 0.08907 0.72235 0.83708 0.0
C209 C 0.05582 0.72282 0.86127 0.0
H210 H 1.00106 0.72575 0.91041 0.0
H211 H 0.05464 0.80723 0.94821 0.0
H212 H 0.29602 0.78764 0.81254 0.0
H213 H 0.24954 0.72932 0.78637 0.0
H214 H 0.05873 0.68381 0.82268 0.0
H215 H 1.00532 0.6861 0.86299 0.0
Mn216 Mn 0.71276 0.78217 0.43697 0.0
Mn217 Mn 0.73863 0.65465 0.42159 0.0
C218 C 0.77786 0.76301 0.46497 0.0
C219 C 0.74825 0.89512 0.44692 0.0
C220 C 0.60937 0.63502 0.43778 0.0
O221 O 0.7076 0.77813 0.39322 0.0
O222 O 0.72526 0.69251 0.38754 0.0
C223 C 0.85452 0.70742 0.38622 0.0
N224 N 0.82655 0.68372 0.41174 0.0
C225 C 0.92338 0.68834 0.42929 0.0
C226 C 0.95326 0.71391 0.40334 0.0
C227 C 0.91866 0.72331 0.38171 0.0
C228 C 0.85917 0.67342 0.43257 0.0
H229 H 0.82791 0.71349 0.36919 0.0
C230 C 0.7153 0.73715 0.37798 0.0
O231 O 0.68754 0.85109 0.4456 0.0
O232 O 0.7871 0.87598 0.43786 0.0
N233 N 0.74972 0.61351 0.45466 0.0
C234 C 0.69 0.56126 0.47342 0.0
C235 C 0.69477 0.53035 0.50535 0.0
C236 C 0.77232 0.55256 0.52062 0.0
C237 C 0.86228 0.63378 0.4841 0.0
C238 C 0.82562 0.6456 0.45666 0.0
H239 H 0.72009 0.5943 0.45871 0.0
O240 O 0.73867 0.77945 0.4763 0.0
O241 O 0.76522 0.74087 0.43938 0.0
O242 O 0.62362 0.69453 0.44037 0.0
O243 O 0.64944 0.61825 0.43056 0.0
C244 C 0.92999 0.65733 0.47838 0.0
C245 C 0.95726 0.68011 0.4517 0.0
H246 H 1.00303 0.72665 0.39979 0.0
H247 H 0.94127 0.74246 0.36157 0.0
H248 H 0.73047 0.53622 0.51686 0.0
H249 H 0.78364 0.53564 0.54308 0.0
H250 H 0.96345 0.65584 0.49331 0.0
H251 H 1.00749 0.69369 0.44879 0.0
Mn252 Mn 0.9517 0.70599 0.76661 0.0
Mn253 Mn 0.10371 0.72841 0.75288 0.0
C254 C 0.03419 0.76689 0.7961 0.0
C255 C 0.88003 0.7487 0.77661 0.0
C256 C 0.99151 0.5994 0.76764 0.0
O257 O 0.9534 0.70411 0.72281 0.0
O258 O 0.05514 0.7185 0.71852 0.0
C259 C 0.16995 0.84703 0.71881 0.0
N260 N 0.16404 0.81693 0.74401 0.0
C261 C 0.25547 0.91213 0.76304 0.0
C262 C 0.26139 0.94419 0.73744 0.0
C263 C 0.21859 0.91148 0.71523 0.0
C264 C 0.20569 0.84778 0.7654 0.0
H265 H 0.13824 0.82192 0.70133 0.0
C266 C 1.00245 0.71138 0.70823 0.0
O267 O 0.85864 0.68673 0.7745 0.0
O268 O 0.93826 0.78388 0.76752 0.0
N269 N 0.15385 0.73621 0.78619 0.0
C270 C 0.14569 0.675 0.80455 0.0
C271 C 0.18185 0.67982 0.83645 0.0
C272 C 0.23448 0.75306 0.85146 0.0
C273 C 0.24598 0.84635 0.81707 0.0
C274 C 0.19826 0.81224 0.78907 0.0
H275 H 0.14299 0.70592 0.78994 0.0
O276 O 0.97764 0.72811 0.80645 0.0
O277 O 0.04493 0.75575 0.77051 0.0
O278 O 0.94692 0.61468 0.76975 0.0
O279 O 0.04877 0.63896 0.76108 0.0
C280 C 0.29086 0.91447 0.81233 0.0
C281 C 0.29656 0.94402 0.78601 0.0
H282 H 0.29878 0.99418 0.73459 0.0
H283 H 0.22328 0.93577 0.69534 0.0
H284 H 0.17246 0.63569 0.847 0.0
H285 H 0.25757 0.75359 0.8715 0.0
H286 H 0.32539 0.94652 0.82772 0.0
H287 H 0.33354 0.99443 0.78379 0.0
Mn288 Mn 0.2582 0.95181 0.10566 0.0
Mn289 Mn 0.37704 0.1012 0.08143 0.0
C290 C 0.2785 0.04298 0.12982 0.0
C291 C 0.1479 0.87373 0.11753 0.0
C292 C 0.40518 0.99927 0.10281 0.0
O293 O 0.25728 0.93807 0.06232 0.0
O294 O 0.33166 0.0423 0.05114 0.0
C295 C 0.31324 0.15441 0.04593 0.0
N296 N 0.34425 0.157 0.07054 0.0
C297 C 0.34485 0.25436 0.08459 0.0
C298 C 0.31185 0.25177 0.05961 0.0
C299 C 0.29608 0.20167 0.0402 0.0
C300 C 0.36041 0.20557 0.08919 0.0
H301 H 0.3023 0.11697 0.03052 0.0
C302 C 0.29035 0.98423 0.04464 0.0
O303 O 0.1933 0.85861 0.11738 0.0
O304 O 0.16437 0.92976 0.10668 0.0
N305 N 0.42698 0.16172 0.11068 0.0
C306 C 0.48499 0.15978 0.12784 0.0
C307 C 0.52331 0.20506 0.15715 0.0
C308 C 0.50529 0.26148 0.17014 0.0
C309 C 0.41423 0.26163 0.13748 0.0
C310 C 0.39471 0.20586 0.1123 0.0
H311 H 0.44772 0.15242 0.11439 0.0
O312 O 0.26329 0.98987 0.14336 0.0
O313 O 0.29642 0.04586 0.10378 0.0
O314 O 0.34831 0.95556 0.11036 0.0
O315 O 0.41678 0.05097 0.09079 0.0
C316 C 0.39015 0.30541 0.13075 0.0
C317 C 0.35988 0.30286 0.1049 0.0
H318 H 0.29823 0.28809 0.05513 0.0
H319 H 0.27114 0.19973 0.02079 0.0
H320 H 0.56108 0.1994 0.1671 0.0
H321 H 0.53281 0.29106 0.1882 0.0
H322 H 0.39653 0.34509 0.14404 0.0
H323 H 0.3459 0.3392 0.10104 0.0
Mn324 Mn 0.30155 0.23451 0.4267 0.0
Mn325 Mn 0.25837 0.34278 0.40151 0.0
C326 C 0.22726 0.24758 0.45167 0.0
C327 C 0.27407 0.12502 0.43821 0.0
C328 C 0.39309 0.37997 0.42047 0.0
O329 O 0.31836 0.24004 0.38332 0.0
O330 O 0.26161 0.29064 0.37123 0.0
C331 C 0.13321 0.27512 0.3724 0.0
N332 N 0.16821 0.30961 0.39531 0.0
C333 C 0.07762 0.31569 0.41347 0.0
C334 C 0.04059 0.27928 0.3903 0.0
C335 C 0.06851 0.25902 0.36967 0.0
C336 C 0.14216 0.33041 0.41502 0.0
H337 H 0.15462 0.26052 0.35602 0.0
C338 C 0.29103 0.25985 0.36525 0.0
O339 O 0.33363 0.17218 0.43893 0.0
O340 O 0.23481 0.13941 0.4255 0.0
N341 N 0.25584 0.39796 0.43093 0.0
C342 C 0.31826 0.45696 0.44499 0.0
C343 C 0.3211 0.50013 0.47425 0.0
C344 C 0.25158 0.485 0.49082 0.0
C345 C 0.15277 0.39108 0.46293 0.0
C346 C 0.18243 0.36804 0.43609 0.0
H347 H 0.3641 0.4731 0.43535 0.0
O348 O 0.2669 0.23369 0.46442 0.0
O349 O 0.24011 0.26586 0.42549 0.0
O350 O 0.38111 0.32771 0.43333 0.0
O351 O 0.35147 0.38364 0.40516 0.0
C352 C 0.08422 0.36731 0.4595 0.0
C353 C 0.05022 0.33438 0.4351 0.0
H354 H 0.99031 0.26625 0.3882 0.0
H355 H 0.04033 0.23136 0.35164 0.0
H356 H 0.36709 0.53857 0.48185 0.0
H357 H 0.25483 0.51499 0.50892 0.0
H358 H 0.05494 0.37598 0.47426 0.0
H359 H 0.99968 0.32086 0.4336 0.0
Mn360 Mn 0.09115 0.29419 0.7638 0.0
Mn361 Mn 0.94316 0.2524 0.73545 0.0
C362 C 1.00131 0.22136 0.78741 0.0
C363 C 0.17235 0.26684 0.77756 0.0
C364 C 0.03739 0.3865 0.7556 0.0
O365 O 0.1069 0.30994 0.72057 0.0
O366 O 1.00135 0.25723 0.70623 0.0
C367 C 0.88606 0.12967 0.70485 0.0
N368 N 0.88786 0.16211 0.72887 0.0
C369 C 0.79075 0.07062 0.74574 0.0
C370 C 0.78835 0.03631 0.72124 0.0
C371 C 0.83613 0.06601 0.7007 0.0
C372 C 0.84119 0.13467 0.74847 0.0
H373 H 0.92143 0.15289 0.68845 0.0
C374 C 0.06182 0.28394 0.7016 0.0
O375 O 0.18408 0.32646 0.77768 0.0
O376 O 0.11927 0.22669 0.76485 0.0
N377 N 0.88318 0.24845 0.7638 0.0
C378 C 0.88257 0.31046 0.77631 0.0
C379 C 0.83728 0.31255 0.80364 0.0
C380 C 0.78206 0.2425 0.81971 0.0
C381 C 0.78474 0.14426 0.79447 0.0
C382 C 0.84118 0.17467 0.76919 0.0
H383 H 0.91228 0.35642 0.76659 0.0
O384 O 0.05343 0.26065 0.80106 0.0
O385 O 0.99905 0.23333 0.76083 0.0
O386 O 0.07723 0.37445 0.76887 0.0
O387 O 0.99396 0.34562 0.73946 0.0
C388 C 0.74159 0.07535 0.79066 0.0
C389 C 0.74382 0.04187 0.76674 0.0
H390 H 0.74996 0.98684 0.71801 0.0
H391 H 0.8343 0.04003 0.68166 0.0
H392 H 0.84221 0.35834 0.81025 0.0
H393 H 0.75201 0.24518 0.83642 0.0
H394 H 0.70187 0.04544 0.80445 0.0
H395 H 0.70697 0.99136 0.76454 0.0
Mn396 Mn 0.81017 0.0987 0.09663 0.0
Mn397 Mn 0.69841 0.94394 0.07637 0.0
C398 C 0.80018 0.01548 0.12344 0.0
C399 C 0.91922 0.18368 0.10641 0.0
C400 C 0.66356 0.04451 0.09261 0.0
O401 O 0.80276 0.10339 0.0528 0.0
O402 O 0.7433 0.99447 0.0435 0.0
C403 C 0.76118 0.88156 0.04719 0.0
N404 N 0.73127 0.88623 0.07079 0.0
C405 C 0.72997 0.79319 0.09121 0.0
C406 C 0.76171 0.7883 0.06728 0.0
C407 C 0.7773 0.83258 0.04518 0.0
C408 C 0.71495 0.84314 0.09198 0.0
H409 H 0.77196 0.91448 0.02975 0.0
C410 C 0.77773 0.05358 0.03597 0.0
O411 O 0.87048 0.19389 0.10658 0.0
O412 O 0.90641 0.12841 0.09577 0.0
N413 N 0.65007 0.89204 0.10848 0.0
C414 C 0.59428 0.89859 0.12384 0.0
C415 C 0.55783 0.86469 0.15514 0.0
C416 C 0.57656 0.81325 0.17266 0.0
C417 C 0.66481 0.80219 0.14227 0.0
C418 C 0.68149 0.84961 0.11384 0.0
H419 H 0.57637 0.92712 0.11401 0.0
O420 O 0.81339 0.06995 0.13511 0.0
O421 O 0.77931 1.00619 0.09748 0.0
O422 O 0.71761 0.08743 0.10321 0.0
O423 O 0.65723 0.99547 0.07961 0.0
C424 C 0.688 0.75668 0.13928 0.0
C425 C 0.71601 0.75108 0.11421 0.0
H426 H 0.77471 0.75074 0.0657 0.0
H427 H 0.80133 0.82875 0.02658 0.0
H428 H 0.52132 0.87435 0.16349 0.0
H429 H 0.55094 0.79029 0.19208 0.0
H430 H 0.68235 0.72149 0.15502 0.0
H431 H 0.72939 0.71369 0.11318 0.0
C432 C 0.04162 0.24848 0.115 0.0
C433 C 0.978 0.22086 0.12538 0.0
C434 C 0.09635 0.27615 0.1333 0.0
C435 C 0.09047 0.2757 0.16302 0.0
H436 H 0.04923 0.24804 0.09253 0.0
H437 H 0.14391 0.29613 0.12407 0.0
S438 S 0.93499 0.20537 0.20139 0.0
N439 N 0.91309 0.19408 0.16783 0.0
N440 N 1.01477 0.24242 0.20175 0.0
C441 C 0.02721 0.24738 0.17368 0.0
C442 C 0.9716 0.22104 0.15505 0.0
C443 C 0.84407 0.07362 0.47281 0.0
C444 C 0.83359 0.06941 0.50232 0.0
C445 C 0.81534 0.01816 0.45488 0.0
C446 C 0.7732 0.95546 0.46535 0.0
H447 H 0.8763 0.12034 0.46351 0.0
H448 H 0.82681 0.02444 0.43263 0.0
S449 S 0.73346 0.9161 0.54112 0.0
N450 N 0.78095 0.99568 0.54113 0.0
N451 N 0.7257 0.89284 0.50781 0.0
C452 C 0.76245 0.95065 0.49482 0.0
C453 C 0.79276 1.00693 0.51313 0.0
C454 C 0.75845 0.76986 0.82466 0.0
C455 C 0.79497 0.83421 0.83503 0.0
C456 C 0.78483 0.7425 0.80557 0.0
C457 C 0.84861 0.77856 0.79499 0.0
H458 H 0.70886 0.74015 0.83135 0.0
H459 H 0.75479 0.69256 0.79903 0.0
S460 S 0.96506 0.9496 0.81473 0.0
N461 N 0.8996 0.93261 0.83276 0.0
N462 N 0.94709 0.88325 0.79687 0.0
C463 C 0.8851 0.84312 0.80499 0.0
C464 C 0.85903 0.87021 0.82484 0.0
C465 C 0.02723 0.85127 0.17599 0.0
C466 C 0.98036 0.78463 0.17572 0.0
C467 C 0.07967 0.87844 0.15699 0.0
C468 C 0.08959 0.84077 0.13674 0.0
H469 H 0.02255 0.88369 0.19061 0.0
H470 H 0.11316 0.93004 0.15824 0.0
S471 S 0.98139 0.66423 0.12584 0.0
N472 N 0.94744 0.68181 0.15216 0.0
N473 N 0.04722 0.7326 0.1175 0.0
C474 C 0.04422 0.77387 0.1364 0.0
C475 C 0.98963 0.74607 0.1555 0.0
C476 C 0.28464 0.03904 0.46806 0.0
C477 C 0.24772 0.06685 0.4581 0.0
C478 C 0.25951 0.98702 0.48798 0.0
C479 C 0.19723 0.96206 0.49992 0.0
H480 H 0.33315 0.0571 0.4602 0.0
H481 H 0.28934 0.96655 0.49421 0.0
S482 S 0.08129 0.01904 0.48203 0.0
N483 N 0.14498 0.06446 0.46247 0.0
N484 N 0.0999 0.97094 0.49983 0.0
C485 C 0.16066 0.99054 0.49042 0.0
C486 C 0.18522 0.04156 0.46971 0.0
C487 C 0.29585 0.24013 0.82179 0.0
C488 C 0.25569 0.18757 0.83969 0.0
C489 C 0.27005 0.2671 0.8021 0.0
C490 C 0.20271 0.24136 0.79867 0.0
H491 H 0.34765 0.25983 0.82255 0.0
H492 H 0.30302 0.30701 0.78893 0.0
S493 S 0.0763 0.10831 0.84166 0.0
N494 N 0.14448 0.11535 0.85364 0.0
N495 N 0.09722 0.16291 0.81651 0.0
C496 C 0.16258 0.1901 0.81686 0.0
C497 C 0.18855 0.16414 0.83727 0.0
C498 C 0.5541 0.5712 0.22365 0.0
C499 C 0.6003 0.58732 0.20206 0.0
C500 C 0.48798 0.53 0.21897 0.0
C501 C 0.46412 0.49996 0.19276 0.0
H502 H 0.56915 0.59228 0.2445 0.0
H503 H 0.45573 0.51703 0.23685 0.0
S504 S 0.56287 0.52512 0.12876 0.0
N505 N 0.6162 0.5721 0.15272 0.0
N506 N 0.49198 0.48904 0.14466 0.0
C507 C 0.50934 0.51528 0.17085 0.0
C508 C 0.57716 0.55941 0.17537 0.0
C509 C 1.01002 0.54188 0.55952 0.0
C510 C 0.03061 0.58433 0.53616 0.0
C511 C 0.98417 0.47484 0.55648 0.0
C512 C 0.97925 0.44619 0.53002 0.0
H513 H 1.01227 0.5607 0.58056 0.0
H514 H 0.97283 0.44571 0.57543 0.0
S515 S 0.02459 0.53385 0.46175 0.0
N516 N 0.04087 0.5915 0.4852 0.0
N517 N 0.99683 0.46559 0.47972 0.0
C518 C 0.99905 0.48759 0.50634 0.0
C519 C 0.02431 0.55636 0.50936 0.0
C520 C 0.48298 1.01151 0.84448 0.0
C521 C 0.45966 1.00981 0.87186 0.0
C522 C 0.52708 0.98932 0.8391 0.0
C523 C 0.54838 0.9631 0.86067 0.0
H524 H 0.46626 0.02891 0.82706 0.0
H525 H 0.54774 0.9963 0.81822 0.0
S526 S 0.50077 0.94606 0.93567 0.0
N527 N 0.46146 0.97908 0.9207 0.0
N528 N 0.54142 0.93571 0.9101 0.0
C529 C 0.52313 0.95867 0.88768 0.0
C530 C 0.48047 0.98314 0.89344 0.0
C531 C 0.52522 0.53047 0.45788 0.0
C532 C 0.543 0.57916 0.43711 0.0
C533 C 0.48004 0.46458 0.45224 0.0
C534 C 0.45271 0.44427 0.42519 0.0
H535 H 0.54897 0.54305 0.47829 0.0
H536 H 0.46581 0.42969 0.46921 0.0
S537 S 0.486 0.55193 0.363 0.0
N538 N 0.5296 0.6017 0.38859 0.0
N539 N 0.4491 0.47902 0.37719 0.0
C540 C 0.47126 0.49267 0.40421 0.0
C541 C 0.51449 0.55949 0.4104 0.0
C542 C 0.98071 0.50663 0.74159 0.0
C543 C 0.98099 0.53278 0.76817 0.0
C544 C 1.00629 0.46537 0.73761 0.0
C545 C 0.03147 0.44558 0.76017 0.0
H546 H 0.96571 0.52279 0.72312 0.0
H547 H 1.00481 0.44726 0.71649 0.0
S548 S 0.03965 0.49657 0.83464 0.0
N549 N 1.00856 0.5356 0.8177 0.0
N550 N 0.05138 0.45306 0.81065 0.0
C551 C 0.03019 0.46952 0.78714 0.0
C552 C 1.0056 0.51339 0.79105 0.0
C553 C 0.48901 0.9896 0.07813 0.0
C554 C 0.46367 0.99295 0.10435 0.0
C555 C 0.55531 0.01468 0.07419 0.0
C556 C 0.60041 0.04229 0.09651 0.0
H557 H 0.4576 0.97174 0.05979 0.0
H558 H 0.57139 1.01025 0.05338 0.0
S559 S 0.55934 0.0605 0.16999 0.0
N560 N 0.48922 0.02753 0.15316 0.0
N561 N 0.61383 0.0688 0.14642 0.0
C562 C 0.57592 0.04485 0.12314 0.0
C563 C 0.50784 0.02104 0.12693 0.0
C564 C 0.24194 0.12351 0.12087 0.0
C565 C 0.25283 0.08459 0.13981 0.0
C566 C 0.24279 0.17942 0.13073 0.0
C567 C 0.25473 0.19541 0.15934 0.0
H568 H 0.23733 0.11339 0.09852 0.0
H569 H 0.23881 0.21186 0.11594 0.0
S570 S 0.19524 0.06658 0.2133 0.0
N571 N 0.21383 0.03572 0.18599 0.0
N572 N 0.21543 0.14169 0.20453 0.0
C573 C 0.23666 0.14331 0.17787 0.0
C574 C 0.23564 0.08646 0.16789 0.0
C575 C 0.05884 0.21731 0.46005 0.0
C576 C 0.06276 0.2326 0.48874 0.0
C577 C 0.10992 0.21348 0.44755 0.0
C578 C 0.16318 0.22458 0.4641 0.0
H579 H 1.01945 0.21306 0.44718 0.0
H580 H 0.10967 0.20619 0.42508 0.0
S581 S 0.14177 0.17477 0.53898 0.0
N582 N 0.08689 0.19663 0.53294 0.0
N583 N 0.18315 0.18867 0.50941 0.0
C584 C 0.15108 0.21018 0.49287 0.0
C585 C 0.09969 0.21454 0.5055 0.0
C586 C 0.95394 0.15152 0.82928 0.0
C587 C 0.95886 0.15782 0.79994 0.0
C588 C 0.89905 0.1 0.841 0.0
C589 C 0.84989 0.05581 0.82316 0.0
H590 H 0.98973 0.18822 0.84298 0.0
H591 H 0.89303 0.09788 0.86362 0.0
S592 S 0.89156 1.01203 0.75479 0.0
N593 N 0.94614 0.08934 0.7595 0.0
N594 N 0.8411 0.99117 0.78169 0.0
C595 C 0.86934 0.04774 0.79633 0.0
C596 C 0.92545 0.10032 0.78441 0.0
C597 C 0.83674 0.93393 0.12007 0.0
C598 C 0.8277 0.97805 0.1361 0.0
C599 C 0.83651 0.88162 0.13358 0.0
C600 C 0.82683 0.87461 0.16278 0.0
H601 H 0.83943 0.93724 0.09736 0.0
H602 H 0.83907 0.84489 0.12114 0.0
S603 S 0.89458 0.0194 0.20843 0.0
N604 N 0.87307 0.04155 0.17907 0.0
N605 N 0.87203 0.94177 0.20458 0.0
C606 C 0.84736 0.93184 0.17805 0.0
C607 C 0.84805 0.9852 0.16434 0.0
C608 C 0.89438 0.80099 0.45713 0.0
C609 C 0.84517 0.79454 0.47514 0.0
C610 C 0.94979 0.80422 0.46861 0.0
C611 C 0.95484 0.80078 0.4979 0.0
H612 H 0.8881 0.7985 0.4345 0.0
H613 H 0.98564 0.80436 0.45472 0.0
S614 S 0.88735 0.87638 0.54451 0.0
N615 N 0.83659 0.84808 0.51745 0.0
N616 N 0.94211 0.85403 0.53922 0.0
C617 C 0.92124 0.82366 0.51398 0.0
C618 C 0.86483 0.82058 0.50228 0.0
C619 C 0.16593 0.93788 0.8023 0.0
C620 C 0.17269 0.94045 0.83167 0.0
C621 C 0.11411 0.88381 0.78991 0.0
C622 C 0.07006 0.83351 0.80714 0.0
H623 H 0.2026 0.97453 0.78904 0.0
H624 H 0.11156 0.87925 0.76721 0.0
S625 S 0.028 0.8714 0.87675 0.0
N626 N 0.10526 0.92566 0.87249 0.0
N627 N 1.00634 0.82268 0.84898 0.0
C628 C 0.0626 0.85138 0.83444 0.0
C629 C 0.11555 0.90638 0.84706 0.0
C630 C 0.35061 0.32479 0.32596 0.0
C631 C 0.30194 0.26353 0.335 0.0
C632 C 0.34267 0.35388 0.30175 0.0
C633 C 0.28751 0.3214 0.28436 0.0
H634 H 0.39248 0.35332 0.33925 0.0
H635 H 0.3824 0.40043 0.29533 0.0
S636 S 0.14881 0.15731 0.29707 0.0
N637 N 0.19728 0.17061 0.32432 0.0
N638 N 0.18517 0.22273 0.27714 0.0
C639 C 0.23945 0.25928 0.29264 0.0
C640 C 0.24685 0.23032 0.31776 0.0
C641 C 0.03391 0.33778 0.63515 0.0
C642 C 1.00714 0.28011 0.61916 0.0
C643 C 0.06747 0.34452 0.66034 0.0
C644 C 0.07329 0.29283 0.6714 0.0
H645 H 0.03106 0.37924 0.62742 0.0
H646 H 0.08289 0.38813 0.67275 0.0
S647 S 1.01811 0.13405 0.63663 0.0
N648 N 0.99539 0.1731 0.61469 0.0
N649 N 0.05398 0.18379 0.66343 0.0
C650 C 0.04955 0.23608 0.65501 0.0
C651 C 1.01632 0.22961 0.629 0.0
C652 C 0.72301 0.0528 -0.00732 0.0
C653 C 0.77903 0.0585 0.00525 0.0
C654 C 0.70092 0.02238 0.96648 0.0
C655 C 0.73417 0.9968 0.95146 0.0
H656 H 0.69329 0.06764 0.00417 0.0
H657 H 0.65828 0.02057 0.95737 0.0
S658 S 0.88549 1.00251 0.97443 0.0
N659 N 0.8679 0.03696 0.00059 0.0
N660 N 0.82819 0.98279 0.95045 0.0
C661 C 0.79113 1.00363 0.96341 0.0
C662 C 0.81342 0.03433 -0.00973 0.0
C663 C 0.80651 0.79586 0.31063 0.0
C664 C 0.77678 0.73972 0.29362 0.0
C665 C 0.78153 0.79791 0.33715 0.0
C666 C 0.72529 0.74417 0.34741 0.0
H667 H 0.84728 0.83977 0.3026 0.0
H668 H 0.80766 0.8409 0.35009 0.0
S669 S 0.62893 0.58596 0.3111 0.0
N670 N 0.68812 0.62957 0.28898 0.0
N671 N 0.64129 0.633 0.33876 0.0
C672 C 0.69547 0.6878 0.33064 0.0
C673 C 0.7215 0.68542 0.30399 0.0
C674 C 0.06863 0.72078 0.63656 0.0
C675 C 0.0726 0.77734 0.62539 0.0
C676 C 0.03653 0.69439 0.66192 0.0
C677 C 1.00918 0.72472 0.67788 0.0
H678 H 0.08445 0.69294 0.62416 0.0
H679 H 0.03512 0.65085 0.66976 0.0
S680 S 1.01493 0.87908 0.65991 0.0
N681 N 0.05082 0.86557 0.63314 0.0
N682 N 0.99451 0.81831 0.68205 0.0
C683 C 1.01634 0.78342 0.66785 0.0
C684 C 0.04832 0.80984 0.64174 0.0
C685 C 0.23533 0.98928 0.00223 0.0
C686 C 0.28299 0.97813 0.01414 0.0
C687 C 0.24546 0.02152 0.97632 0.0
C688 C 0.30378 0.04424 0.96142 0.0
H689 H 0.19161 0.9766 0.01384 0.0
H690 H 0.20574 0.02489 0.96691 0.0
S691 S 0.445 0.03043 -0.01557 0.0
N692 N 0.39079 0.99316 0.00929 0.0
N693 N 0.41057 0.05575 0.96124 0.0
C694 C 0.35225 0.03502 0.97361 0.0
C695 C 0.34092 0.99976 -0.00082 0.0
loop_
_geom_bond_atom_site_label_1
_geom_bond_atom_site_label_2
_geom_bond_distance
_geom_bond_site_symmetry_2
_ccdc_geom_bond_type
Mn0 O5 2.095 . S
Mn0 O15 2.162 . S
Mn0 O16 2.297 . S
Mn0 O24 2.385 . S
Mn0 O25 2.209 . S
Mn0 O26 2.094 . S
Mn1 O6 2.121 . S
Mn1 N8 2.257 . S
Mn1 N17 2.282 . S
Mn1 O25 2.215 . S
Mn1 O27 2.117 . S
C2 O24 1.234 . S
C2 O25 1.283 . S
C3 O15 1.281 . S
C3 O16 1.236 . S
C4 O26 1.240 . S
C4 O27 1.264 . S
O5 Mn0 2.095 . S
O5 C14 1.250 . S
O6 Mn1 2.121 . S
O6 C14 1.258 . S
C7 N8 1.326 . S
C7 C11 1.460 . S
C7 H13 0.929 . S
N8 Mn1 2.257 . S
N8 C7 1.326 . S
N8 C12 1.362 . S
C9 C10 1.258 . S
C9 C12 1.431 . S
C9 C29 1.449 . S
C10 C9 1.258 . S
C10 C11 1.477 . S
C10 H30 0.931 . S
C11 C7 1.460 . S
C11 C10 1.477 . S
C11 H31 0.930 . S
C12 N8 1.362 . S
C12 C9 1.431 . S
C12 C22 1.476 . S
H13 C7 0.929 . S
C14 O5 1.250 . S
C14 O6 1.258 . S
O15 Mn0 2.162 . S
O15 C3 1.281 . S
O16 Mn0 2.297 . S
O16 C3 1.236 . S
N17 Mn1 2.282 . S
N17 C18 1.328 . S
N17 C22 1.318 . S
C18 N17 1.328 . S
C18 C19 1.457 . S
C18 H23 0.929 . S
C19 C18 1.457 . S
C19 C20 1.291 . S
C19 H32 0.931 . S
C20 C19 1.291 . S
C20 C21 1.373 . S
C20 H33 0.929 . S
C21 C20 1.373 . S
C21 C22 1.396 . S
C21 C28 1.403 . S
C22 C12 1.476 . S
C22 N17 1.318 . S
C22 C21 1.396 . S
H23 C18 0.929 . S
O24 Mn0 2.385 . S
O24 C2 1.234 . S
O25 Mn0 2.209 . S
O25 Mn1 2.215 . S
O25 C2 1.283 . S
O26 Mn0 2.094 . S
O26 C4 1.240 . S
O27 Mn1 2.117 . S
O27 C4 1.264 . S
C28 C21 1.403 . S
C28 C29 1.399 . S
C28 H34 0.929 . S
C29 C9 1.449 . S
C29 C28 1.399 . S
C29 H35 0.930 . S
H30 C10 0.931 . S
H31 C11 0.930 . S
H32 C19 0.931 . S
H33 C20 0.929 . S
H34 C28 0.929 . S
H35 C29 0.930 . S
Mn36 O41 2.095 . S
Mn36 O51 2.162 . S
Mn36 O52 2.297 . S
Mn36 O60 2.385 1_655 S
Mn36 O61 2.209 1_655 S
Mn36 O62 2.094 . S
Mn37 O42 2.121 . S
Mn37 N44 2.257 . S
Mn37 N53 2.282 . S
Mn37 O61 2.215 . S
Mn37 O63 2.117 . S
C38 O60 1.234 . S
C38 O61 1.283 . S
C39 O51 1.281 . S
C39 O52 1.236 . S
C40 O62 1.240 . S
C40 O63 1.264 1_655 S
O41 Mn36 2.095 . S
O41 C50 1.250 . S
O42 Mn37 2.121 . S
O42 C50 1.258 1_455 S
C43 N44 1.326 . S
C43 C47 1.460 . S
C43 H49 0.929 . S
N44 Mn37 2.257 . S
N44 C43 1.326 . S
N44 C48 1.362 . S
C45 C46 1.258 . S
C45 C48 1.431 . S
C45 C65 1.449 . S
C46 C45 1.258 . S
C46 C47 1.477 . S
C46 H66 0.931 . S
C47 C43 1.460 . S
C47 C46 1.477 . S
C47 H67 0.930 . S
C48 N44 1.362 . S
C48 C45 1.431 . S
C48 C58 1.476 . S
H49 C43 0.929 . S
C50 O41 1.250 . S
C50 O42 1.258 1_655 S
O51 Mn36 2.162 . S
O51 C39 1.281 . S
O52 Mn36 2.297 . S
O52 C39 1.236 . S
N53 Mn37 2.282 . S
N53 C54 1.328 . S
N53 C58 1.318 . S
C54 N53 1.328 . S
C54 C55 1.457 . S
C54 H59 0.929 . S
C55 C54 1.457 . S
C55 C56 1.291 . S
C55 H68 0.931 . S
C56 C55 1.291 . S
C56 C57 1.373 . S
C56 H69 0.929 . S
C57 C56 1.373 . S
C57 C58 1.396 . S
C57 C64 1.403 . S
C58 C48 1.476 . S
C58 N53 1.318 . S
C58 C57 1.396 . S
H59 C54 0.929 . S
O60 Mn36 2.385 1_455 S
O60 C38 1.234 . S
O61 Mn36 2.209 1_455 S
O61 Mn37 2.215 . S
O61 C38 1.283 . S
O62 Mn36 2.094 . S
O62 C40 1.240 . S
O63 Mn37 2.117 . S
O63 C40 1.264 1_455 S
C64 C57 1.403 . S
C64 C65 1.399 . S
C64 H70 0.929 . S
C65 C45 1.449 . S
C65 C64 1.399 . S
C65 H71 0.930 . S
H66 C46 0.931 . S
H67 C47 0.930 . S
H68 C55 0.931 . S
H69 C56 0.929 . S
H70 C64 0.929 . S
H71 C65 0.930 . S
Mn72 O77 2.095 . S
Mn72 O87 2.162 . S
Mn72 O88 2.297 . S
Mn72 O96 2.385 1_565 S
Mn72 O97 2.209 1_565 S
Mn72 O98 2.094 . S
Mn73 O78 2.121 . S
Mn73 N80 2.257 . S
Mn73 N89 2.282 . S
Mn73 O97 2.215 . S
Mn73 O99 2.117 . S
C74 O96 1.234 . S
C74 O97 1.283 . S
C75 O87 1.281 . S
C75 O88 1.236 . S
C76 O98 1.240 . S
C76 O99 1.264 1_565 S
O77 Mn72 2.095 . S
O77 C86 1.250 . S
O78 Mn73 2.121 . S
O78 C86 1.258 1_545 S
C79 N80 1.326 . S
C79 C83 1.460 . S
C79 H85 0.929 . S
N80 Mn73 2.257 . S
N80 C79 1.326 . S
N80 C84 1.362 . S
C81 C82 1.258 . S
C81 C84 1.431 . S
C81 C101 1.449 . S
C82 C81 1.258 . S
C82 C83 1.477 . S
C82 H102 0.931 . S
C83 C79 1.460 . S
C83 C82 1.477 . S
C83 H103 0.930 . S
C84 N80 1.362 . S
C84 C81 1.431 . S
C84 C94 1.476 . S
H85 C79 0.929 . S
C86 O77 1.250 . S
C86 O78 1.258 1_565 S
O87 Mn72 2.162 . S
O87 C75 1.281 . S
O88 Mn72 2.297 . S
O88 C75 1.236 . S
N89 Mn73 2.282 . S
N89 C90 1.328 . S
N89 C94 1.318 . S
C90 N89 1.328 . S
C90 C91 1.457 . S
C90 H95 0.929 . S
C91 C90 1.457 . S
C91 C92 1.291 . S
C91 H104 0.931 . S
C92 C91 1.291 . S
C92 C93 1.373 . S
C92 H105 0.929 . S
C93 C92 1.373 . S
C93 C94 1.396 . S
C93 C100 1.403 . S
C94 C84 1.476 . S
C94 N89 1.318 . S
C94 C93 1.396 . S
H95 C90 0.929 . S
O96 Mn72 2.385 1_545 S
O96 C74 1.234 . S
O97 Mn72 2.209 1_545 S
O97 Mn73 2.215 . S
O97 C74 1.283 . S
O98 Mn72 2.094 . S
O98 C76 1.240 . S
O99 Mn73 2.117 . S
O99 C76 1.264 1_545 S
C100 C93 1.403 . S
C100 C101 1.399 . S
C100 H106 0.929 . S
C101 C81 1.449 . S
C101 C100 1.399 . S
C101 H107 0.930 . S
H102 C82 0.931 . S
H103 C83 0.930 . S
H104 C91 0.931 . S
H105 C92 0.929 . S
H106 C100 0.929 . S
H107 C101 0.930 . S
Mn108 O113 2.095 . S
Mn108 O123 2.162 . S
Mn108 O124 2.297 . S
Mn108 O132 2.385 . S
Mn108 O133 2.209 . S
Mn108 O134 2.094 . S
Mn109 O114 2.121 . S
Mn109 N116 2.257 . S
Mn109 N125 2.282 . S
Mn109 O133 2.215 . S
Mn109 O135 2.117 . S
C110 O132 1.234 . S
C110 O133 1.283 . S
C111 O123 1.281 . S
C111 O124 1.236 . S
C112 O134 1.240 . S
C112 O135 1.264 . S
O113 Mn108 2.095 . S
O113 C122 1.250 . S
O114 Mn109 2.121 . S
O114 C122 1.258 . S
C115 N116 1.326 . S
C115 C119 1.460 . S
C115 H121 0.929 . S
N116 Mn109 2.257 . S
N116 C115 1.326 . S
N116 C120 1.362 . S
C117 C118 1.258 . S
C117 C120 1.431 . S
C117 C137 1.449 . S
C118 C117 1.258 . S
C118 C119 1.477 . S
C118 H138 0.931 . S
C119 C115 1.460 . S
C119 C118 1.477 . S
C119 H139 0.930 . S
C120 N116 1.362 . S
C120 C117 1.431 . S
C120 C130 1.476 . S
H121 C115 0.929 . S
C122 O113 1.250 . S
C122 O114 1.258 . S
O123 Mn108 2.162 . S
O123 C111 1.281 . S
O124 Mn108 2.297 . S
O124 C111 1.236 . S
N125 Mn109 2.282 . S
N125 C126 1.328 . S
N125 C130 1.318 . S
C126 N125 1.328 . S
C126 C127 1.457 . S
C126 H131 0.929 . S
C127 C126 1.457 . S
C127 C128 1.291 . S
C127 H140 0.931 . S
C128 C127 1.291 . S
C128 C129 1.373 . S
C128 H141 0.929 . S
C129 C128 1.373 . S
C129 C130 1.396 . S
C129 C136 1.403 . S
C130 C120 1.476 . S
C130 N125 1.318 . S
C130 C129 1.396 . S
H131 C126 0.929 . S
O132 Mn108 2.385 . S
O132 C110 1.234 . S
O133 Mn108 2.209 . S
O133 Mn109 2.215 . S
O133 C110 1.283 . S
O134 Mn108 2.094 . S
O134 C112 1.240 . S
O135 Mn109 2.117 . S
O135 C112 1.264 . S
C136 C129 1.403 . S
C136 C137 1.399 . S
C136 H142 0.929 . S
C137 C117 1.449 . S
C137 C136 1.399 . S
C137 H143 0.930 . S
H138 C118 0.931 . S
H139 C119 0.930 . S
H140 C127 0.931 . S
H141 C128 0.929 . S
H142 C136 0.929 . S
H143 C137 0.930 . S
Mn144 O149 2.095 . S
Mn144 O159 2.162 . S
Mn144 O160 2.297 . S
Mn144 O168 2.385 1_455 S
Mn144 O169 2.209 1_455 S
Mn144 O170 2.094 . S
Mn145 O150 2.121 . S
Mn145 N152 2.257 . S
Mn145 N161 2.282 . S
Mn145 O169 2.215 . S
Mn145 O171 2.117 . S
C146 O168 1.234 . S
C146 O169 1.283 . S
C147 O159 1.281 . S
C147 O160 1.236 . S
C148 O170 1.240 . S
C148 O171 1.264 1_455 S
O149 Mn144 2.095 . S
O149 C158 1.250 . S
O150 Mn145 2.121 . S
O150 C158 1.258 1_655 S
C151 N152 1.326 . S
C151 C155 1.460 . S
C151 H157 0.929 . S
N152 Mn145 2.257 . S
N152 C151 1.326 . S
N152 C156 1.362 . S
C153 C154 1.258 . S
C153 C156 1.431 . S
C153 C173 1.449 . S
C154 C153 1.258 . S
C154 C155 1.477 . S
C154 H174 0.931 . S
C155 C151 1.460 . S
C155 C154 1.477 . S
C155 H175 0.930 . S
C156 N152 1.362 . S
C156 C153 1.431 . S
C156 C166 1.476 . S
H157 C151 0.929 . S
C158 O149 1.250 . S
C158 O150 1.258 1_455 S
O159 Mn144 2.162 . S
O159 C147 1.281 . S
O160 Mn144 2.297 . S
O160 C147 1.236 . S
N161 Mn145 2.282 . S
N161 C162 1.328 . S
N161 C166 1.318 . S
C162 N161 1.328 . S
C162 C163 1.457 . S
C162 H167 0.929 . S
C163 C162 1.457 . S
C163 C164 1.291 . S
C163 H176 0.931 . S
C164 C163 1.291 . S
C164 C165 1.373 . S
C164 H177 0.929 . S
C165 C164 1.373 . S
C165 C166 1.396 . S
C165 C172 1.403 . S
C166 C156 1.476 . S
C166 N161 1.318 . S
C166 C165 1.396 . S
H167 C162 0.929 . S
O168 Mn144 2.385 1_655 S
O168 C146 1.234 . S
O169 Mn144 2.209 1_655 S
O169 Mn145 2.215 . S
O169 C146 1.283 . S
O170 Mn144 2.094 . S
O170 C148 1.240 . S
O171 Mn145 2.117 . S
O171 C148 1.264 1_655 S
C172 C165 1.403 . S
C172 C173 1.399 . S
C172 H178 0.929 . S
C173 C153 1.449 . S
C173 C172 1.399 . S
C173 H179 0.930 . S
H174 C154 0.931 . S
H175 C155 0.930 . S
H176 C163 0.931 . S
H177 C164 0.929 . S
H178 C172 0.929 . S
H179 C173 0.930 . S
Mn180 O185 2.095 . S
Mn180 O195 2.162 . S
Mn180 O196 2.297 . S
Mn180 O204 2.385 1_545 S
Mn180 O205 2.209 1_545 S
Mn180 O206 2.094 . S
Mn181 O186 2.121 . S
Mn181 N188 2.257 . S
Mn181 N197 2.282 . S
Mn181 O205 2.215 . S
Mn181 O207 2.117 . S
C182 O204 1.234 . S
C182 O205 1.283 . S
C183 O195 1.281 . S
C183 O196 1.236 . S
C184 O206 1.240 . S
C184 O207 1.264 1_545 S
O185 Mn180 2.095 . S
O185 C194 1.250 . S
O186 Mn181 2.121 . S
O186 C194 1.258 1_565 S
C187 N188 1.326 . S
C187 C191 1.460 . S
C187 H193 0.929 . S
N188 Mn181 2.257 . S
N188 C187 1.326 . S
N188 C192 1.362 . S
C189 C190 1.258 . S
C189 C192 1.431 . S
C189 C209 1.449 . S
C190 C189 1.258 . S
C190 C191 1.477 . S
C190 H210 0.931 . S
C191 C187 1.460 . S
C191 C190 1.477 . S
C191 H211 0.930 . S
C192 N188 1.362 . S
C192 C189 1.431 . S
C192 C202 1.476 . S
H193 C187 0.929 . S
C194 O185 1.250 . S
C194 O186 1.258 1_545 S
O195 Mn180 2.162 . S
O195 C183 1.281 . S
O196 Mn180 2.297 . S
O196 C183 1.236 . S
N197 Mn181 2.282 . S
N197 C198 1.328 . S
N197 C202 1.318 . S
C198 N197 1.328 . S
C198 C199 1.457 . S
C198 H203 0.929 . S
C199 C198 1.457 . S
C199 C200 1.291 . S
C199 H212 0.931 . S
C200 C199 1.291 . S
C200 C201 1.373 . S
C200 H213 0.929 . S
C201 C200 1.373 . S
C201 C202 1.396 . S
C201 C208 1.403 . S
C202 C192 1.476 . S
C202 N197 1.318 . S
C202 C201 1.396 . S
H203 C198 0.929 . S
O204 Mn180 2.385 1_565 S
O204 C182 1.234 . S
O205 Mn180 2.209 1_565 S
O205 Mn181 2.215 . S
O205 C182 1.283 . S
O206 Mn180 2.094 . S
O206 C184 1.240 . S
O207 Mn181 2.117 . S
O207 C184 1.264 1_565 S
C208 C201 1.403 . S
C208 C209 1.399 . S
C208 H214 0.929 . S
C209 C189 1.449 . S
C209 C208 1.399 . S
C209 H215 0.930 . S
H210 C190 0.931 . S
H211 C191 0.930 . S
H212 C199 0.931 . S
H213 C200 0.929 . S
H214 C208 0.929 . S
H215 C209 0.930 . S
Mn216 O221 2.095 . S
Mn216 O231 2.162 . S
Mn216 O232 2.297 . S
Mn216 O240 2.385 . S
Mn216 O241 2.209 . S
Mn216 O242 2.094 . S
Mn217 O222 2.121 . S
Mn217 N224 2.257 . S
Mn217 N233 2.282 . S
Mn217 O241 2.215 . S
Mn217 O243 2.117 . S
C218 O240 1.234 . S
C218 O241 1.283 . S
C219 O231 1.281 . S
C219 O232 1.236 . S
C220 O242 1.240 . S
C220 O243 1.264 . S
O221 Mn216 2.095 . S
O221 C230 1.250 . S
O222 Mn217 2.121 . S
O222 C230 1.258 . S
C223 N224 1.326 . S
C223 C227 1.460 . S
C223 H229 0.929 . S
N224 Mn217 2.257 . S
N224 C223 1.326 . S
N224 C228 1.362 . S
C225 C226 1.258 . S
C225 C228 1.431 . S
C225 C245 1.449 . S
C226 C225 1.258 . S
C226 C227 1.477 . S
C226 H246 0.931 . S
C227 C223 1.460 . S
C227 C226 1.477 . S
C227 H247 0.930 . S
C228 N224 1.362 . S
C228 C225 1.431 . S
C228 C238 1.476 . S
H229 C223 0.929 . S
C230 O221 1.250 . S
C230 O222 1.258 . S
O231 Mn216 2.162 . S
O231 C219 1.281 . S
O232 Mn216 2.297 . S
O232 C219 1.236 . S
N233 Mn217 2.282 . S
N233 C234 1.328 . S
N233 C238 1.318 . S
C234 N233 1.328 . S
C234 C235 1.457 . S
C234 H239 0.929 . S
C235 C234 1.457 . S
C235 C236 1.291 . S
C235 H248 0.931 . S
C236 C235 1.291 . S
C236 C237 1.373 . S
C236 H249 0.929 . S
C237 C236 1.373 . S
C237 C238 1.396 . S
C237 C244 1.403 . S
C238 C228 1.476 . S
C238 N233 1.318 . S
C238 C237 1.396 . S
H239 C234 0.929 . S
O240 Mn216 2.385 . S
O240 C218 1.234 . S
O241 Mn216 2.209 . S
O241 Mn217 2.215 . S
O241 C218 1.283 . S
O242 Mn216 2.094 . S
O242 C220 1.240 . S
O243 Mn217 2.117 . S
O243 C220 1.264 . S
C244 C237 1.403 . S
C244 C245 1.399 . S
C244 H250 0.929 . S
C245 C225 1.449 . S
C245 C244 1.399 . S
C245 H251 0.930 . S
H246 C226 0.931 . S
H247 C227 0.930 . S
H248 C235 0.931 . S
H249 C236 0.929 . S
H250 C244 0.929 . S
H251 C245 0.930 . S
Mn252 O257 2.095 . S
Mn252 O267 2.162 . S
Mn252 O268 2.297 . S
Mn252 O276 2.385 1_655 S
Mn252 O277 2.209 1_655 S
Mn252 O278 2.094 . S
Mn253 O258 2.121 . S
Mn253 N260 2.257 . S
Mn253 N269 2.282 . S
Mn253 O277 2.215 . S
Mn253 O279 2.117 . S
C254 O276 1.234 . S
C254 O277 1.283 . S
C255 O267 1.281 . S
C255 O268 1.236 . S
C256 O278 1.240 . S
C256 O279 1.264 1_655 S
O257 Mn252 2.095 . S
O257 C266 1.250 . S
O258 Mn253 2.121 . S
O258 C266 1.258 1_455 S
C259 N260 1.326 . S
C259 C263 1.460 . S
C259 H265 0.929 . S
N260 Mn253 2.257 . S
N260 C259 1.326 . S
N260 C264 1.362 . S
C261 C262 1.258 . S
C261 C264 1.431 . S
C261 C281 1.449 . S
C262 C261 1.258 . S
C262 C263 1.477 . S
C262 H282 0.931 . S
C263 C259 1.460 . S
C263 C262 1.477 . S
C263 H283 0.930 . S
C264 N260 1.362 . S
C264 C261 1.431 . S
C264 C274 1.476 . S
H265 C259 0.929 . S
C266 O257 1.250 . S
C266 O258 1.258 1_655 S
O267 Mn252 2.162 . S
O267 C255 1.281 . S
O268 Mn252 2.297 . S
O268 C255 1.236 . S
N269 Mn253 2.282 . S
N269 C270 1.328 . S
N269 C274 1.318 . S
C270 N269 1.328 . S
C270 C271 1.457 . S
C270 H275 0.929 . S
C271 C270 1.457 . S
C271 C272 1.291 . S
C271 H284 0.931 . S
C272 C271 1.291 . S
C272 C273 1.373 . S
C272 H285 0.929 . S
C273 C272 1.373 . S
C273 C274 1.396 . S
C273 C280 1.403 . S
C274 C264 1.476 . S
C274 N269 1.318 . S
C274 C273 1.396 . S
H275 C270 0.929 . S
O276 Mn252 2.385 1_455 S
O276 C254 1.234 . S
O277 Mn252 2.209 1_455 S
O277 Mn253 2.215 . S
O277 C254 1.283 . S
O278 Mn252 2.094 . S
O278 C256 1.240 . S
O279 Mn253 2.117 . S
O279 C256 1.264 1_455 S
C280 C273 1.403 . S
C280 C281 1.399 . S
C280 H286 0.929 . S
C281 C261 1.449 . S
C281 C280 1.399 . S
C281 H287 0.930 . S
H282 C262 0.931 . S
H283 C263 0.930 . S
H284 C271 0.931 . S
H285 C272 0.929 . S
H286 C280 0.929 . S
H287 C281 0.930 . S
Mn288 O293 2.095 . S
Mn288 O303 2.162 . S
Mn288 O304 2.297 . S
Mn288 O312 2.385 1_565 S
Mn288 O313 2.209 1_565 S
Mn288 O314 2.094 . S
Mn289 O294 2.121 . S
Mn289 N296 2.257 . S
Mn289 N305 2.282 . S
Mn289 O313 2.215 . S
Mn289 O315 2.117 . S
C290 O312 1.234 . S
C290 O313 1.283 . S
C291 O303 1.281 . S
C291 O304 1.236 . S
C292 O314 1.240 . S
C292 O315 1.264 1_565 S
O293 Mn288 2.095 . S
O293 C302 1.250 . S
O294 Mn289 2.121 . S
O294 C302 1.258 1_545 S
C295 N296 1.326 . S
C295 C299 1.460 . S
C295 H301 0.929 . S
N296 Mn289 2.257 . S
N296 C295 1.326 . S
N296 C300 1.362 . S
C297 C298 1.258 . S
C297 C300 1.431 . S
C297 C317 1.449 . S
C298 C297 1.258 . S
C298 C299 1.477 . S
C298 H318 0.931 . S
C299 C295 1.460 . S
C299 C298 1.477 . S
C299 H319 0.930 . S
C300 N296 1.362 . S
C300 C297 1.431 . S
C300 C310 1.476 . S
H301 C295 0.929 . S
C302 O293 1.250 . S
C302 O294 1.258 1_565 S
O303 Mn288 2.162 . S
O303 C291 1.281 . S
O304 Mn288 2.297 . S
O304 C291 1.236 . S
N305 Mn289 2.282 . S
N305 C306 1.328 . S
N305 C310 1.318 . S
C306 N305 1.328 . S
C306 C307 1.457 . S
C306 H311 0.929 . S
C307 C306 1.457 . S
C307 C308 1.291 . S
C307 H320 0.931 . S
C308 C307 1.291 . S
C308 C309 1.373 . S
C308 H321 0.929 . S
C309 C308 1.373 . S
C309 C310 1.396 . S
C309 C316 1.403 . S
C310 C300 1.476 . S
C310 N305 1.318 . S
C310 C309 1.396 . S
H311 C306 0.929 . S
O312 Mn288 2.385 1_545 S
O312 C290 1.234 . S
O313 Mn288 2.209 1_545 S
O313 Mn289 2.215 . S
O313 C290 1.283 . S
O314 Mn288 2.094 . S
O314 C292 1.240 . S
O315 Mn289 2.117 . S
O315 C292 1.264 1_545 S
C316 C309 1.403 . S
C316 C317 1.399 . S
C316 H322 0.929 . S
C317 C297 1.449 . S
C317 C316 1.399 . S
C317 H323 0.930 . S
H318 C298 0.931 . S
H319 C299 0.930 . S
H320 C307 0.931 . S
H321 C308 0.929 . S
H322 C316 0.929 . S
H323 C317 0.930 . S
Mn324 O329 2.095 . S
Mn324 O339 2.162 . S
Mn324 O340 2.297 . S
Mn324 O348 2.385 . S
Mn324 O349 2.209 . S
Mn324 O350 2.094 . S
Mn325 O330 2.121 . S
Mn325 N332 2.257 . S
Mn325 N341 2.282 . S
Mn325 O349 2.215 . S
Mn325 O351 2.117 . S
C326 O348 1.234 . S
C326 O349 1.283 . S
C327 O339 1.281 . S
C327 O340 1.236 . S
C328 O350 1.240 . S
C328 O351 1.264 . S
O329 Mn324 2.095 . S
O329 C338 1.250 . S
O330 Mn325 2.121 . S
O330 C338 1.258 . S
C331 N332 1.326 . S
C331 C335 1.460 . S
C331 H337 0.929 . S
N332 Mn325 2.257 . S
N332 C331 1.326 . S
N332 C336 1.362 . S
C333 C334 1.258 . S
C333 C336 1.431 . S
C333 C353 1.449 . S
C334 C333 1.258 . S
C334 C335 1.477 . S
C334 H354 0.931 . S
C335 C331 1.460 . S
C335 C334 1.477 . S
C335 H355 0.930 . S
C336 N332 1.362 . S
C336 C333 1.431 . S
C336 C346 1.476 . S
H337 C331 0.929 . S
C338 O329 1.250 . S
C338 O330 1.258 . S
O339 Mn324 2.162 . S
O339 C327 1.281 . S
O340 Mn324 2.297 . S
O340 C327 1.236 . S
N341 Mn325 2.282 . S
N341 C342 1.328 . S
N341 C346 1.318 . S
C342 N341 1.328 . S
C342 C343 1.457 . S
C342 H347 0.929 . S
C343 C342 1.457 . S
C343 C344 1.291 . S
C343 H356 0.931 . S
C344 C343 1.291 . S
C344 C345 1.373 . S
C344 H357 0.929 . S
C345 C344 1.373 . S
C345 C346 1.396 . S
C345 C352 1.403 . S
C346 C336 1.476 . S
C346 N341 1.318 . S
C346 C345 1.396 . S
H347 C342 0.929 . S
O348 Mn324 2.385 . S
O348 C326 1.234 . S
O349 Mn324 2.209 . S
O349 Mn325 2.215 . S
O349 C326 1.283 . S
O350 Mn324 2.094 . S
O350 C328 1.240 . S
O351 Mn325 2.117 . S
O351 C328 1.264 . S
C352 C345 1.403 . S
C352 C353 1.399 . S
C352 H358 0.929 . S
C353 C333 1.449 . S
C353 C352 1.399 . S
C353 H359 0.930 . S
H354 C334 0.931 . S
H355 C335 0.930 . S
H356 C343 0.931 . S
H357 C344 0.929 . S
H358 C352 0.929 . S
H359 C353 0.930 . S
Mn360 O365 2.095 . S
Mn360 O375 2.162 . S
Mn360 O376 2.297 . S
Mn360 O384 2.385 1_455 S
Mn360 O385 2.209 1_455 S
Mn360 O386 2.094 . S
Mn361 O366 2.121 . S
Mn361 N368 2.257 . S
Mn361 N377 2.282 . S
Mn361 O385 2.215 . S
Mn361 O387 2.117 . S
C362 O384 1.234 . S
C362 O385 1.283 . S
C363 O375 1.281 . S
C363 O376 1.236 . S
C364 O386 1.240 . S
C364 O387 1.264 1_455 S
O365 Mn360 2.095 . S
O365 C374 1.250 . S
O366 Mn361 2.121 . S
O366 C374 1.258 1_655 S
C367 N368 1.326 . S
C367 C371 1.460 . S
C367 H373 0.929 . S
N368 Mn361 2.257 . S
N368 C367 1.326 . S
N368 C372 1.362 . S
C369 C370 1.258 . S
C369 C372 1.431 . S
C369 C389 1.449 . S
C370 C369 1.258 . S
C370 C371 1.477 . S
C370 H390 0.931 . S
C371 C367 1.460 . S
C371 C370 1.477 . S
C371 H391 0.930 . S
C372 N368 1.362 . S
C372 C369 1.431 . S
C372 C382 1.476 . S
H373 C367 0.929 . S
C374 O365 1.250 . S
C374 O366 1.258 1_455 S
O375 Mn360 2.162 . S
O375 C363 1.281 . S
O376 Mn360 2.297 . S
O376 C363 1.236 . S
N377 Mn361 2.282 . S
N377 C378 1.328 . S
N377 C382 1.318 . S
C378 N377 1.328 . S
C378 C379 1.457 . S
C378 H383 0.929 . S
C379 C378 1.457 . S
C379 C380 1.291 . S
C379 H392 0.931 . S
C380 C379 1.291 . S
C380 C381 1.373 . S
C380 H393 0.929 . S
C381 C380 1.373 . S
C381 C382 1.396 . S
C381 C388 1.403 . S
C382 C372 1.476 . S
C382 N377 1.318 . S
C382 C381 1.396 . S
H383 C378 0.929 . S
O384 Mn360 2.385 1_655 S
O384 C362 1.234 . S
O385 Mn360 2.209 1_655 S
O385 Mn361 2.215 . S
O385 C362 1.283 . S
O386 Mn360 2.094 . S
O386 C364 1.240 . S
O387 Mn361 2.117 . S
O387 C364 1.264 1_655 S
C388 C381 1.403 . S
C388 C389 1.399 . S
C388 H394 0.929 . S
C389 C369 1.449 . S
C389 C388 1.399 . S
C389 H395 0.930 . S
H390 C370 0.931 . S
H391 C371 0.930 . S
H392 C379 0.931 . S
H393 C380 0.929 . S
H394 C388 0.929 . S
H395 C389 0.930 . S
Mn396 O401 2.095 . S
Mn396 O411 2.162 . S
Mn396 O412 2.297 . S
Mn396 O420 2.385 1_545 S
Mn396 O421 2.209 1_545 S
Mn396 O422 2.094 . S
Mn397 O402 2.121 . S
Mn397 N404 2.257 . S
Mn397 N413 2.282 . S
Mn397 O421 2.215 . S
Mn397 O423 2.117 . S
C398 O420 1.234 . S
C398 O421 1.283 . S
C399 O411 1.281 . S
C399 O412 1.236 . S
C400 O422 1.240 . S
C400 O423 1.264 1_545 S
O401 Mn396 2.095 . S
O401 C410 1.250 . S
O402 Mn397 2.121 . S
O402 C410 1.258 1_565 S
C403 N404 1.326 . S
C403 C407 1.460 . S
C403 H409 0.929 . S
N404 Mn397 2.257 . S
N404 C403 1.326 . S
N404 C408 1.362 . S
C405 C406 1.258 . S
C405 C408 1.431 . S
C405 C425 1.449 . S
C406 C405 1.258 . S
C406 C407 1.477 . S
C406 H426 0.931 . S
C407 C403 1.460 . S
C407 C406 1.477 . S
C407 H427 0.930 . S
C408 N404 1.362 . S
C408 C405 1.431 . S
C408 C418 1.476 . S
H409 C403 0.929 . S
C410 O401 1.250 . S
C410 O402 1.258 1_545 S
O411 Mn396 2.162 . S
O411 C399 1.281 . S
O412 Mn396 2.297 . S
O412 C399 1.236 . S
N413 Mn397 2.282 . S
N413 C414 1.328 . S
N413 C418 1.318 . S
C414 N413 1.328 . S
C414 C415 1.457 . S
C414 H419 0.929 . S
C415 C414 1.457 . S
C415 C416 1.291 . S
C415 H428 0.931 . S
C416 C415 1.291 . S
C416 C417 1.373 . S
C416 H429 0.929 . S
C417 C416 1.373 . S
C417 C418 1.396 . S
C417 C424 1.403 . S
C418 C408 1.476 . S
C418 N413 1.318 . S
C418 C417 1.396 . S
H419 C414 0.929 . S
O420 Mn396 2.385 1_565 S
O420 C398 1.234 . S
O421 Mn396 2.209 1_565 S
O421 Mn397 2.215 . S
O421 C398 1.283 . S
O422 Mn396 2.094 . S
O422 C400 1.240 . S
O423 Mn397 2.117 . S
O423 C400 1.264 1_565 S
C424 C417 1.403 . S
C424 C425 1.399 . S
C424 H430 0.929 . S
C425 C405 1.449 . S
C425 C424 1.399 . S
C425 H431 0.930 . S
H426 C406 0.931 . S
H427 C407 0.930 . S
H428 C415 0.931 . S
H429 C416 0.929 . S
H430 C424 0.929 . S
H431 C425 0.930 . S
C432 C433 1.369 . S
C432 C434 1.419 1_655 S
C432 H436 0.930 . S
C433 C432 1.369 . S
C433 C442 1.429 . S
C434 C432 1.419 1_455 S
C434 C435 1.363 . S
C434 H437 0.929 . S
C435 C434 1.363 . S
C435 C441 1.428 . S
H436 C432 0.930 . S
H437 C434 0.929 . S
S438 N439 1.613 . S
S438 N440 1.610 . S
N439 S438 1.613 . S
N439 C442 1.350 . S
N440 S438 1.610 . S
N440 C441 1.351 1_655 S
C441 C435 1.428 . S
C441 N440 1.351 1_455 S
C441 C442 1.434 1_455 S
C442 C433 1.429 . S
C442 N439 1.350 . S
C442 C441 1.434 1_655 S
C443 C444 1.369 . S
C443 C445 1.419 1_545 S
C443 H447 0.930 . S
C444 C443 1.369 . S
C444 C453 1.429 . S
C445 C443 1.419 1_565 S
C445 C446 1.363 . S
C445 H448 0.929 . S
C446 C445 1.363 . S
C446 C452 1.428 . S
H447 C443 0.930 . S
H448 C445 0.929 . S
S449 N450 1.613 . S
S449 N451 1.610 . S
N450 S449 1.613 . S
N450 C453 1.350 1_565 S
N451 S449 1.610 . S
N451 C452 1.351 . S
C452 C446 1.428 . S
C452 N451 1.351 . S
C452 C453 1.434 1_565 S
C453 C444 1.429 . S
C453 N450 1.350 1_545 S
C453 C452 1.434 1_545 S
C454 C455 1.369 . S
C454 C456 1.419 . S
C454 H458 0.930 . S
C455 C454 1.369 . S
C455 C464 1.429 . S
C456 C454 1.419 . S
C456 C457 1.363 . S
C456 H459 0.929 . S
C457 C456 1.363 . S
C457 C463 1.428 . S
H458 C454 0.930 . S
H459 C456 0.929 . S
S460 N461 1.613 . S
S460 N462 1.610 . S
N461 S460 1.613 . S
N461 C464 1.350 . S
N462 S460 1.610 . S
N462 C463 1.351 . S
C463 C457 1.428 . S
C463 N462 1.351 . S
C463 C464 1.434 . S
C464 C455 1.429 . S
C464 N461 1.350 . S
C464 C463 1.434 . S
C465 C466 1.369 . S
C465 C467 1.419 1_655 S
C465 H469 0.930 . S
C466 C465 1.369 . S
C466 C475 1.429 . S
C467 C465 1.419 1_455 S
C467 C468 1.363 . S
C467 H470 0.929 . S
C468 C467 1.363 . S
C468 C474 1.428 . S
H469 C465 0.930 . S
H470 C467 0.929 . S
S471 N472 1.613 . S
S471 N473 1.610 . S
N472 S471 1.613 . S
N472 C475 1.350 . S
N473 S471 1.610 . S
N473 C474 1.351 1_655 S
C474 C468 1.428 . S
C474 N473 1.351 1_455 S
C474 C475 1.434 1_455 S
C475 C466 1.429 . S
C475 N472 1.350 . S
C475 C474 1.434 1_655 S
C476 C477 1.369 . S
C476 C478 1.419 1_545 S
C476 H480 0.930 . S
C477 C476 1.369 . S
C477 C486 1.429 . S
C478 C476 1.419 1_565 S
C478 C479 1.363 . S
C478 H481 0.929 . S
C479 C478 1.363 . S
C479 C485 1.428 . S
H480 C476 0.930 . S
H481 C478 0.929 . S
S482 N483 1.613 1_565 S
S482 N484 1.610 . S
N483 S482 1.613 1_545 S
N483 C486 1.350 . S
N484 S482 1.610 . S
N484 C485 1.351 . S
C485 C479 1.428 . S
C485 N484 1.351 . S
C485 C486 1.434 1_565 S
C486 C477 1.429 . S
C486 N483 1.350 . S
C486 C485 1.434 1_545 S
C487 C488 1.369 . S
C487 C489 1.419 . S
C487 H491 0.930 . S
C488 C487 1.369 . S
C488 C497 1.429 . S
C489 C487 1.419 . S
C489 C490 1.363 . S
C489 H492 0.929 . S
C490 C489 1.363 . S
C490 C496 1.428 . S
H491 C487 0.930 . S
H492 C489 0.929 . S
S493 N494 1.613 . S
S493 N495 1.610 . S
N494 S493 1.613 . S
N494 C497 1.350 . S
N495 S493 1.610 . S
N495 C496 1.351 . S
C496 C490 1.428 . S
C496 N495 1.351 . S
C496 C497 1.434 . S
C497 C488 1.429 . S
C497 N494 1.350 . S
C497 C496 1.434 . S
C498 C499 1.369 . S
C498 C500 1.419 . S
C498 H502 0.930 . S
C499 C498 1.369 . S
C499 C508 1.429 . S
C500 C498 1.419 . S
C500 C501 1.363 . S
C500 H503 0.929 . S
C501 C500 1.363 . S
C501 C507 1.428 . S
H502 C498 0.930 . S
H503 C500 0.929 . S
S504 N505 1.613 . S
S504 N506 1.610 . S
N505 S504 1.613 . S
N505 C508 1.350 . S
N506 S504 1.610 . S
N506 C507 1.351 . S
C507 C501 1.428 . S
C507 N506 1.351 . S
C507 C508 1.434 . S
C508 C499 1.429 . S
C508 N505 1.350 . S
C508 C507 1.434 . S
C509 C510 1.369 . S
C509 C511 1.419 1_455 S
C509 H513 0.928 1_455 S
C510 C509 1.369 . S
C510 C519 1.429 . S
C511 C509 1.419 1_655 S
C511 C512 1.363 . S
C511 H514 0.929 . S
C512 C511 1.363 . S
C512 C518 1.429 . S
H513 C509 0.928 1_655 S
H514 C511 0.929 . S
S515 N516 1.613 . S
S515 N517 1.610 . S
N516 S515 1.613 . S
N516 C519 1.350 . S
N517 S515 1.610 . S
N517 C518 1.346 1_455 S
C518 C512 1.429 . S
C518 N517 1.346 1_655 S
C518 C519 1.434 1_655 S
C519 C510 1.429 . S
C519 N516 1.350 . S
C519 C518 1.434 1_455 S
C520 C521 1.369 . S
C520 C522 1.419 . S
C520 H524 0.930 . S
C521 C520 1.369 . S
C521 C530 1.429 1_545 S
C522 C520 1.419 . S
C522 C523 1.363 1_545 S
C522 H525 0.929 . S
C523 C522 1.363 1_565 S
C523 C529 1.428 . S
H524 C520 0.930 . S
H525 C522 0.929 . S
S526 N527 1.613 . S
S526 N528 1.610 . S
N527 S526 1.613 . S
N527 C530 1.350 . S
N528 S526 1.610 . S
N528 C529 1.351 . S
C529 C523 1.428 . S
C529 N528 1.351 . S
C529 C530 1.434 . S
C530 C521 1.429 1_565 S
C530 N527 1.350 . S
C530 C529 1.434 . S
C531 C532 1.369 . S
C531 C533 1.419 . S
C531 H535 0.930 . S
C532 C531 1.369 . S
C532 C541 1.429 . S
C533 C531 1.419 . S
C533 C534 1.363 . S
C533 H536 0.929 . S
C534 C533 1.363 . S
C534 C540 1.428 . S
H535 C531 0.930 . S
H536 C533 0.929 . S
S537 N538 1.613 . S
S537 N539 1.610 . S
N538 S537 1.613 . S
N538 C541 1.350 . S
N539 S537 1.610 . S
N539 C540 1.351 . S
C540 C534 1.428 . S
C540 N539 1.351 . S
C540 C541 1.434 . S
C541 C532 1.429 . S
C541 N538 1.350 . S
C541 C540 1.434 . S
C542 C543 1.369 . S
C542 C544 1.419 . S
C542 H546 0.930 . S
C543 C542 1.369 . S
C543 C552 1.429 1_655 S
C544 C542 1.419 . S
C544 C545 1.363 1_655 S
C544 H547 0.929 . S
C545 C544 1.363 1_455 S
C545 C551 1.428 . S
H546 C542 0.930 . S
H547 C544 0.929 . S
S548 N549 1.613 . S
S548 N550 1.610 . S
N549 S548 1.613 . S
N549 C552 1.350 . S
N550 S548 1.610 . S
N550 C551 1.351 . S
C551 C545 1.428 . S
C551 N550 1.351 . S
C551 C552 1.434 . S
C552 C543 1.429 1_455 S
C552 N549 1.350 . S
C552 C551 1.434 . S
C553 C554 1.369 . S
C553 C555 1.419 . S
C553 H557 0.930 . S
C554 C553 1.369 . S
C554 C563 1.429 1_565 S
C555 C553 1.419 . S
C555 C556 1.363 1_565 S
C555 H558 0.929 . S
C556 C555 1.363 1_545 S
C556 C562 1.428 . S
H557 C553 0.930 . S
H558 C555 0.929 . S
S559 N560 1.613 . S
S559 N561 1.610 . S
N560 S559 1.613 . S
N560 C563 1.350 . S
N561 S559 1.610 . S
N561 C562 1.351 . S
C562 C556 1.428 . S
C562 N561 1.351 . S
C562 C563 1.434 . S
C563 C554 1.429 1_545 S
C563 N560 1.350 . S
C563 C562 1.434 . S
C564 C565 1.369 . S
C564 C566 1.419 . S
C564 H568 0.930 . S
C565 C564 1.369 . S
C565 C574 1.429 . S
C566 C564 1.419 . S
C566 C567 1.363 . S
C566 H569 0.929 . S
C567 C566 1.363 . S
C567 C573 1.428 . S
H568 C564 0.930 . S
H569 C566 0.929 . S
S570 N571 1.613 . S
S570 N572 1.610 . S
N571 S570 1.613 . S
N571 C574 1.350 . S
N572 S570 1.610 . S
N572 C573 1.351 . S
C573 C567 1.428 . S
C573 N572 1.351 . S
C573 C574 1.434 . S
C574 C565 1.429 . S
C574 N571 1.350 . S
C574 C573 1.434 . S
C575 C576 1.369 . S
C575 C577 1.419 . S
C575 H579 0.930 . S
C576 C575 1.369 . S
C576 C585 1.429 . S
C577 C575 1.419 . S
C577 C578 1.363 . S
C577 H580 0.929 . S
C578 C577 1.363 . S
C578 C584 1.428 . S
H579 C575 0.930 . S
H580 C577 0.929 . S
S581 N582 1.613 . S
S581 N583 1.610 . S
N582 S581 1.613 . S
N582 C585 1.350 . S
N583 S581 1.610 . S
N583 C584 1.351 . S
C584 C578 1.428 . S
C584 N583 1.351 . S
C584 C585 1.434 . S
C585 C576 1.429 . S
C585 N582 1.350 . S
C585 C584 1.434 . S
C586 C587 1.369 . S
C586 C588 1.419 . S
C586 H590 0.930 . S
C587 C586 1.369 . S
C587 C596 1.429 . S
C588 C586 1.419 . S
C588 C589 1.363 . S
C588 H591 0.929 . S
C589 C588 1.363 . S
C589 C595 1.428 . S
H590 C586 0.930 . S
H591 C588 0.929 . S
S592 N593 1.613 . S
S592 N594 1.610 . S
N593 S592 1.613 . S
N593 C596 1.350 . S
N594 S592 1.610 . S
N594 C595 1.351 . S
C595 C589 1.428 . S
C595 N594 1.351 . S
C595 C596 1.434 . S
C596 C587 1.429 . S
C596 N593 1.350 . S
C596 C595 1.434 . S
C597 C598 1.369 . S
C597 C599 1.419 . S
C597 H601 0.930 . S
C598 C597 1.369 . S
C598 C607 1.429 . S
C599 C597 1.419 . S
C599 C600 1.363 . S
C599 H602 0.929 . S
C600 C599 1.363 . S
C600 C606 1.428 . S
H601 C597 0.930 . S
H602 C599 0.929 . S
S603 N604 1.613 . S
S603 N605 1.610 . S
N604 S603 1.613 . S
N604 C607 1.350 . S
N605 S603 1.610 . S
N605 C606 1.351 . S
C606 C600 1.428 . S
C606 N605 1.351 . S
C606 C607 1.434 . S
C607 C598 1.429 . S
C607 N604 1.350 . S
C607 C606 1.434 . S
C608 C609 1.369 . S
C608 C610 1.419 . S
C608 H612 0.930 . S
C609 C608 1.369 . S
C609 C618 1.429 . S
C610 C608 1.419 . S
C610 C611 1.363 . S
C610 H613 0.929 . S
C611 C610 1.363 . S
C611 C617 1.428 . S
H612 C608 0.930 . S
H613 C610 0.929 . S
S614 N615 1.613 . S
S614 N616 1.610 . S
N615 S614 1.613 . S
N615 C618 1.350 . S
N616 S614 1.610 . S
N616 C617 1.351 . S
C617 C611 1.428 . S
C617 N616 1.351 . S
C617 C618 1.434 . S
C618 C609 1.429 . S
C618 N615 1.350 . S
C618 C617 1.434 . S
C619 C620 1.369 . S
C619 C621 1.419 . S
C619 H623 0.930 . S
C620 C619 1.369 . S
C620 C629 1.429 . S
C621 C619 1.419 . S
C621 C622 1.363 . S
C621 H624 0.929 . S
C622 C621 1.363 . S
C622 C628 1.428 . S
H623 C619 0.930 . S
H624 C621 0.929 . S
S625 N626 1.613 . S
S625 N627 1.610 . S
N626 S625 1.613 . S
N626 C629 1.350 . S
N627 S625 1.610 . S
N627 C628 1.351 . S
C628 C622 1.428 . S
C628 N627 1.351 . S
C628 C629 1.434 . S
C629 C620 1.429 . S
C629 N626 1.350 . S
C629 C628 1.434 . S
C630 C631 1.369 . S
C630 C632 1.419 . S
C630 H634 0.930 . S
C631 C630 1.369 . S
C631 C640 1.429 . S
C632 C630 1.419 . S
C632 C633 1.363 . S
C632 H635 0.929 . S
C633 C632 1.363 . S
C633 C639 1.428 . S
H634 C630 0.930 . S
H635 C632 0.929 . S
S636 N637 1.613 . S
S636 N638 1.610 . S
N637 S636 1.613 . S
N637 C640 1.350 . S
N638 S636 1.610 . S
N638 C639 1.351 . S
C639 C633 1.428 . S
C639 N638 1.351 . S
C639 C640 1.434 . S
C640 C631 1.429 . S
C640 N637 1.350 . S
C640 C639 1.434 . S
C641 C642 1.369 . S
C641 C643 1.419 1_655 S
C641 H645 0.930 . S
C642 C641 1.369 . S
C642 C651 1.429 . S
C643 C641 1.419 1_455 S
C643 C644 1.363 . S
C643 H646 0.929 . S
C644 C643 1.363 . S
C644 C650 1.428 . S
H645 C641 0.930 . S
H646 C643 0.929 . S
S647 N648 1.613 . S
S647 N649 1.610 1_655 S
N648 S647 1.613 . S
N648 C651 1.350 . S
N649 S647 1.610 1_455 S
N649 C650 1.351 . S
C650 C644 1.428 . S
C650 N649 1.351 . S
C650 C651 1.434 1_455 S
C651 C642 1.429 . S
C651 N648 1.350 . S
C651 C650 1.434 1_655 S
C652 C653 1.369 . S
C652 C654 1.419 1_544 S
C652 H656 0.930 . S
C653 C652 1.369 . S
C653 C662 1.429 . S
C654 C652 1.419 1_566 S
C654 C655 1.363 . S
C654 H657 0.929 . S
C655 C654 1.363 . S
C655 C661 1.428 . S
H656 C652 0.930 . S
H657 C654 0.929 . S
S658 N659 1.613 1_565 S
S658 N660 1.610 1_554 S
N659 S658 1.613 1_545 S
N659 C662 1.350 . S
N660 S658 1.610 1_556 S
N660 C661 1.351 . S
C661 C655 1.428 . S
C661 N660 1.351 . S
C661 C662 1.434 1_566 S
C662 C653 1.429 . S
C662 N659 1.350 . S
C662 C661 1.434 1_544 S
C663 C664 1.369 . S
C663 C665 1.419 . S
C663 H667 0.930 . S
C664 C663 1.369 . S
C664 C673 1.429 . S
C665 C663 1.419 . S
C665 C666 1.363 . S
C665 H668 0.929 . S
C666 C665 1.363 . S
C666 C672 1.428 . S
H667 C663 0.930 . S
H668 C665 0.929 . S
S669 N670 1.613 . S
S669 N671 1.610 . S
N670 S669 1.613 . S
N670 C673 1.350 . S
N671 S669 1.610 . S
N671 C672 1.351 . S
C672 C666 1.428 . S
C672 N671 1.351 . S
C672 C673 1.434 . S
C673 C664 1.429 . S
C673 N670 1.350 . S
C673 C672 1.434 . S
C674 C675 1.369 1_655 S
C674 C676 1.419 . S
C674 H678 0.930 . S
C675 C674 1.369 1_455 S
C675 C684 1.429 . S
C676 C674 1.419 . S
C676 C677 1.363 . S
C676 H679 0.929 . S
C677 C676 1.363 . S
C677 C683 1.428 1_655 S
H678 C674 0.930 . S
H679 C676 0.929 . S
S680 N681 1.613 . S
S680 N682 1.610 . S
N681 S680 1.613 . S
N681 C684 1.350 . S
N682 S680 1.610 . S
N682 C683 1.351 . S
C683 C677 1.428 1_455 S
C683 N682 1.351 . S
C683 C684 1.434 . S
C684 C675 1.429 . S
C684 N681 1.350 . S
C684 C683 1.434 . S
C685 C686 1.369 1_545 S
C685 C687 1.419 1_554 S
C685 H689 0.930 . S
C686 C685 1.369 1_565 S
C686 C695 1.429 . S
C687 C685 1.419 1_556 S
C687 C688 1.363 . S
C687 H690 0.929 . S
C688 C687 1.363 . S
C688 C694 1.428 1_545 S
H689 C685 0.930 . S
H690 C687 0.929 . S
S691 N692 1.613 1_556 S
S691 N693 1.610 . S
N692 S691 1.613 1_554 S
N692 C695 1.350 . S
N693 S691 1.610 . S
N693 C694 1.351 . S
C694 C688 1.428 1_565 S
C694 N693 1.351 . S
C694 C695 1.434 1_556 S
C695 C686 1.429 . S
C695 N692 1.350 . S
C695 C694 1.434 1_554 S
C433 C399 1.596 . S
C435 C3 1.598 . S
C444 C39 1.597 . S
C446 C219 1.596 . S
C455 C75 1.596 . S
C457 C255 1.596 . S
C466 C111 1.597 . S
C468 C291 1.599 . S
C477 C327 1.596 . S
C479 C147 1.596 . S
C488 C183 1.597 . S
C490 C363 1.596 . S
C499 C112 1.311 . S
C501 C4 1.304 . S
C510 C148 1.307 . S
C512 C40 1.307 . S
C521 C184 1.303 . S
C523 C76 1.305 . S
C532 C220 1.311 . S
C534 C328 1.302 . S
C543 C256 1.301 . S
C545 C364 1.310 . S
C554 C292 1.301 . S
C556 C400 1.310 . S
C565 C290 0.821 . S
C567 C2 0.818 . S
C576 C38 0.819 . S
C578 C326 0.820 . S
C587 C362 0.816 . S
C589 C74 0.818 . S
C598 C398 0.820 . S
C600 C110 0.817 . S
C609 C218 0.816 . S
C611 C146 0.817 . S
C620 C182 0.817 . S
C622 C254 0.819 . S
C631 C338 1.487 . S
C633 C14 1.489 . S
C642 C50 1.491 . S
C644 C374 1.486 . S
C653 C410 1.490 . S
C655 C86 1.487 . S
C664 C122 1.490 . S
C666 C230 1.480 . S
C675 C158 1.492 . S
C677 C266 1.484 . S
C686 C302 1.485 . S
C688 C194 1.481 . S
