# Generated by pormake.
# Topology uoc, (4)-cn, num edge types: 1
# Building blocks:
#     Node 0, Type 0, BuildingBlock: CEKHIL_clean_sbu_0, # of connection points: 4
#     Node 1, Type 0, BuildingBlock: CEKHIL_clean_sbu_0, # of connection points: 4
#     Node 2, Type 0, BuildingBlock: CEKHIL_clean_sbu_0, # of connection points: 4
#     Node 3, Type 0, BuildingBlock: CEKHIL_clean_sbu_0, # of connection points: 4
#     Node 4, Type 0, BuildingBlock: CEKHIL_clean_sbu_0, # of connection points: 4
#     Node 5, Type 0, BuildingBlock: CEKHIL_clean_sbu_0, # of connection points: 4
#     Node 6, Type 0, BuildingBlock: CEKHIL_clean_sbu_0, # of connection points: 4
#     Node 7, Type 0, BuildingBlock: CEKHIL_clean_sbu_0, # of connection points: 4
#     Edge 8, Type (0, 0), BuildingBlock: CIFDUS_clean_linker_0, # of connection points: 2
#     Edge 9, Type (0, 0), BuildingBlock: CIFDUS_clean_linker_0, # of connection points: 2
#     Edge 10, Type (0, 0), BuildingBlock: CIFDUS_clean_linker_0, # of connection points: 2
#     Edge 11, Type (0, 0), BuildingBlock: CIFDUS_clean_linker_0, # of connection points: 2
#     Edge 12, Type (0, 0), BuildingBlock: CIFDUS_clean_linker_0, # of connection points: 2
#     Edge 13, Type (0, 0), BuildingBlock: CIFDUS_clean_linker_0, # of connection points: 2
#     Edge 14, Type (0, 0), BuildingBlock: CIFDUS_clean_linker_0, # of connection points: 2
#     Edge 15, Type (0, 0), BuildingBlock: CIFDUS_clean_linker_0, # of connection points: 2
#     Edge 16, Type (0, 0), BuildingBlock: CIFDUS_clean_linker_0, # of connection points: 2
#     Edge 17, Type (0, 0), BuildingBlock: CIFDUS_clean_linker_0, # of connection points: 2
#     Edge 18, Type (0, 0), BuildingBlock: CIFDUS_clean_linker_0, # of connection points: 2
#     Edge 19, Type (0, 0), BuildingBlock: CIFDUS_clean_linker_0, # of connection points: 2
#     Edge 20, Type (0, 0), BuildingBlock: CIFDUS_clean_linker_0, # of connection points: 2
#     Edge 21, Type (0, 0), BuildingBlock: CIFDUS_clean_linker_0, # of connection points: 2
#     Edge 22, Type (0, 0), BuildingBlock: CIFDUS_clean_linker_0, # of connection points: 2
#     Edge 23, Type (0, 0), BuildingBlock: CIFDUS_clean_linker_0, # of connection points: 2
# Relax obj value: 0.097
# Max RMSD: 0.107
# Mean RMSD: 0.107
data_MOF--net-uoc--node1-CEKHIL_clean_sbu_0--edge1-CIFDUS_clean_linker_0
_symmetry_space_group_name_H-M    P1
_symmetry_Int_Tables_number       1
_symmetry_cell_setting            triclinic
loop_
_symmetry_equiv_pos_as_xyz
'x, y, z'
_cell_length_a     23.747
_cell_length_b     23.77679
_cell_length_c     47.150823
_cell_angle_alpha  90.006024
_cell_angle_beta   90.004374
_cell_angle_gamma 92.532868
loop_
_atom_site_label
_atom_site_type_symbol
_atom_site_fract_x
_atom_site_fract_y
_atom_site_fract_z
_atom_type_partial_charge
Co0 Co 0.09782 0.2772 0.11964 0.0
O1 O 0.11366 0.35682 0.11712 0.0
O2 O 0.03442 0.31827 0.13419 0.0
C3 C 0.12593 0.25727 0.07542 0.0
O4 O 0.06865 0.19455 0.12417 0.0
Co5 Co 0.20087 0.20197 0.11681 0.0
O6 O 0.14284 0.13973 0.11731 0.0
C7 C 0.18051 0.26544 0.16871 0.0
C8 C 0.06469 0.36386 0.12819 0.0
C9 C 0.09055 0.14576 0.12188 0.0
O10 O 0.13247 0.27773 0.15853 0.0
O11 O 0.21683 0.23892 0.1545 0.0
O12 O 0.07565 0.27444 0.08005 0.0
O13 O 0.15945 0.25865 0.0971 0.0
Co14 Co 0.79031 0.61447 0.37852 0.0
O15 O 0.87063 0.631 0.37923 0.0
O16 O 0.83047 0.54783 0.36892 0.0
C17 C 0.77049 0.65629 0.41993 0.0
O18 O 0.70997 0.58006 0.37698 0.0
Co19 Co 0.70396 0.70832 0.37614 0.0
O20 O 0.64749 0.64668 0.3846 0.0
C21 C 0.76632 0.67941 0.32438 0.0
C22 C 0.87656 0.57864 0.37248 0.0
C23 C 0.65932 0.59529 0.38156 0.0
O24 O 0.7875 0.63762 0.33736 0.0
O25 O 0.73508 0.71459 0.33665 0.0
O26 O 0.78888 0.60562 0.41958 0.0
O27 O 0.76949 0.68179 0.39576 0.0
Co28 Co 0.3935 0.21854 0.62132 0.0
O29 O 0.38571 0.13716 0.62173 0.0
O30 O 0.46361 0.1881 0.63191 0.0
C31 C 0.3513 0.23353 0.57946 0.0
O32 O 0.42199 0.29963 0.62186 0.0
Co33 Co 0.29522 0.29959 0.62219 0.0
O34 O 0.35369 0.35945 0.61351 0.0
C35 C 0.32548 0.24037 0.67465 0.0
C36 C 0.43895 0.13885 0.6286 0.0
C37 C 0.40547 0.34912 0.61667 0.0
O38 O 0.3692 0.22173 0.66225 0.0
O39 O 0.28883 0.26901 0.66181 0.0
O40 O 0.40303 0.21791 0.58037 0.0
O41 O 0.32497 0.23416 0.60349 0.0
Co42 Co 0.71615 0.89311 0.87744 0.0
O43 O 0.63659 0.87532 0.8765 0.0
O44 O 0.67724 0.95735 0.86393 0.0
C45 C 0.73155 0.85937 0.92096 0.0
O46 O 0.79647 0.92725 0.87681 0.0
Co47 Co 0.7998 0.79805 0.87903 0.0
O48 O 0.8571 0.85962 0.88599 0.0
C49 C 0.7409 0.82052 0.82591 0.0
C50 C 0.63125 0.92624 0.86731 0.0
C51 C 0.84652 0.91108 0.88203 0.0
O52 O 0.72246 0.86482 0.83756 0.0
O53 O 0.77011 0.78522 0.83937 0.0
O54 O 0.71239 0.90917 0.91752 0.0
O55 O 0.73533 0.82894 0.89823 0.0
Co56 Co 0.61701 0.75873 0.61417 0.0
O57 O 0.62423 0.8401 0.61382 0.0
O58 O 0.55012 0.78904 0.62936 0.0
C59 C 0.64784 0.74362 0.56981 0.0
O60 O 0.58957 0.67758 0.61695 0.0
Co61 Co 0.71524 0.67851 0.6084 0.0
O62 O 0.65611 0.61678 0.60709 0.0
C63 C 0.69863 0.7375 0.66258 0.0
C64 C 0.57337 0.83833 0.62428 0.0
C65 C 0.60524 0.62746 0.61273 0.0
O66 O 0.65218 0.75641 0.65314 0.0
O67 O 0.73171 0.70906 0.64732 0.0
O68 O 0.5964 0.75793 0.57413 0.0
O69 O 0.68029 0.74347 0.59183 0.0
Co70 Co 0.26349 0.12003 0.88478 0.0
O71 O 0.343 0.13837 0.88396 0.0
O72 O 0.30233 0.05853 0.86824 0.0
C73 C 0.24888 0.14677 0.92968 0.0
O74 O 0.18333 0.08564 0.88319 0.0
Co75 Co 0.17883 0.21406 0.89178 0.0
O76 O 0.1221 0.15082 0.89555 0.0
C77 C 0.23606 0.20122 0.83713 0.0
C78 C 0.34828 0.0892 0.87256 0.0
C79 C 0.13311 0.10044 0.8891 0.0
O80 O 0.25567 0.15517 0.84633 0.0
O81 O 0.20729 0.23358 0.85262 0.0
O82 O 0.2683 0.09773 0.92427 0.0
O83 O 0.2444 0.18016 0.90816 0.0
Co84 Co 0.87965 0.74029 0.11283 0.0
O85 O 0.86584 0.66028 0.11356 0.0
O86 O 0.94361 0.70348 0.12975 0.0
C87 C 0.85268 0.75168 0.06752 0.0
O88 O 0.90627 0.82424 0.11428 0.0
Co89 Co 0.77478 0.81205 0.1049 0.0
O90 O 0.83286 0.87318 0.09902 0.0
C91 C 0.79482 0.76014 0.16024 0.0
C92 C 0.91463 0.65637 0.12534 0.0
C93 C 0.88434 0.8708 0.10646 0.0
O94 O 0.84302 0.74548 0.15115 0.0
O95 O 0.75901 0.78401 0.14448 0.0
O96 O 0.90336 0.737 0.07335 0.0
O97 O 0.81865 0.75311 0.08891 0.0
Co98 Co 0.24649 0.37517 0.38274 0.0
O99 O 0.16635 0.35672 0.38199 0.0
O100 O 0.2056 0.44028 0.37167 0.0
C101 C 0.26425 0.33506 0.425 0.0
O102 O 0.32619 0.41164 0.38229 0.0
Co103 Co 0.33568 0.28309 0.38329 0.0
O104 O 0.39036 0.34677 0.39041 0.0
C105 C 0.27604 0.30797 0.33012 0.0
C106 C 0.15987 0.40875 0.37471 0.0
C107 C 0.3773 0.39767 0.38682 0.0
O108 O 0.25335 0.3504 0.34187 0.0
O109 O 0.30653 0.27394 0.34366 0.0
O110 O 0.24379 0.38482 0.42394 0.0
O111 O 0.26825 0.30952 0.40098 0.0
H112 H 0.20751 0.18643 0.06021 0.0
H113 H 0.08451 0.29625 0.02618 0.0
H114 H 0.11345 0.274 0.97797 0.0
H115 H 0.1728 0.22232 0.94534 0.0
H116 H 0.29021 0.10619 0.97891 0.0
H117 H 0.26463 0.13173 0.02732 0.0
C118 C 0.18736 0.2055 0.04218 0.0
C119 C 0.14427 0.24302 0.04661 0.0
C120 C 0.20316 0.19134 0.01445 0.0
C121 C 0.11775 0.26703 0.02319 0.0
C122 C 0.13432 0.25448 0.99563 0.0
C123 C 0.19289 0.20291 0.96329 0.0
C124 C 0.23348 0.16286 0.9587 0.0
C125 C 0.17685 0.21658 0.99099 0.0
C126 C 0.25872 0.13721 0.98204 0.0
C127 C 0.2442 0.15181 0.0097 0.0
H128 H 0.71132 0.74512 0.28722 0.0
H129 H 0.84767 0.63121 0.29249 0.0
H130 H 0.86799 0.64587 0.24218 0.0
H131 H 0.84796 0.69194 0.19697 0.0
H132 H 0.71035 0.80435 0.19156 0.0
H133 H 0.6896 0.78905 0.24175 0.0
C134 C 0.7456 0.72352 0.27743 0.0
C135 C 0.77811 0.68735 0.29372 0.0
C136 C 0.75682 0.7318 0.24848 0.0
C137 C 0.82191 0.65925 0.28052 0.0
C138 C 0.83364 0.66768 0.25174 0.0
C139 C 0.81343 0.71321 0.20673 0.0
C140 C 0.78098 0.74953 0.19048 0.0
C141 C 0.80151 0.70402 0.23556 0.0
C142 C 0.736 0.77614 0.20349 0.0
C143 C 0.72417 0.76753 0.23222 0.0
H144 H 0.38333 0.21252 0.52565 0.0
H145 H 0.26457 0.30468 0.57445 0.0
H146 H 0.22829 0.34598 0.53101 0.0
H147 H 0.23128 0.35677 0.47892 0.0
H148 H 0.34509 0.25832 0.43027 0.0
H149 H 0.38238 0.21878 0.47373 0.0
C150 C 0.34942 0.24156 0.52673 0.0
C151 C 0.32698 0.25589 0.55318 0.0
C152 C 0.328 0.26417 0.50166 0.0
C153 C 0.28258 0.29299 0.55432 0.0
C154 C 0.26192 0.31676 0.52949 0.0
C155 C 0.2643 0.32673 0.47793 0.0
C156 C 0.28579 0.31089 0.45148 0.0
C157 C 0.28451 0.30288 0.50303 0.0
C158 C 0.32792 0.27129 0.45037 0.0
C159 C 0.34932 0.24865 0.47522 0.0
H160 H 0.79058 0.75015 0.78847 0.0
H161 H 0.65871 0.86884 0.7953 0.0
H162 H 0.63423 0.85389 0.74568 0.0
H163 H 0.6497 0.8073 0.70025 0.0
H164 H 0.78277 0.69009 0.69279 0.0
H165 H 0.80718 0.70458 0.74254 0.0
C166 C 0.75642 0.77261 0.77912 0.0
C167 C 0.72665 0.81051 0.79567 0.0
C168 C 0.7427 0.76428 0.75036 0.0
C169 C 0.68269 0.8396 0.78309 0.0
C170 C 0.66847 0.83104 0.75468 0.0
C171 C 0.68404 0.78486 0.70946 0.0
C172 C 0.71414 0.74758 0.6927 0.0
C173 C 0.69817 0.79354 0.73809 0.0
C174 C 0.75881 0.7192 0.70507 0.0
C175 C 0.77281 0.72732 0.7336 0.0
H176 H 0.19654 0.35129 0.29546 0.0
H177 H 0.33568 0.24026 0.29572 0.0
H178 H 0.31986 0.21912 0.2458 0.0
H179 H 0.26502 0.22948 0.20233 0.0
H180 H 0.12424 0.3384 0.20206 0.0
H181 H 0.14246 0.36294 0.25152 0.0
C182 C 0.22362 0.32276 0.28455 0.0
C183 C 0.26706 0.29733 0.29944 0.0
C184 C 0.21397 0.31014 0.25578 0.0
C185 C 0.30158 0.2602 0.28493 0.0
C186 C 0.29269 0.24807 0.25631 0.0
C187 C 0.2385 0.25885 0.213 0.0
C188 C 0.19326 0.2818 0.19844 0.0
C189 C 0.24874 0.2724 0.24157 0.0
C190 C 0.15919 0.31967 0.21274 0.0
C191 C 0.16958 0.33387 0.24106 0.0
H192 H 0.69251 0.79943 0.5246 0.0
H193 H 0.64028 0.63406 0.55433 0.0
H194 H 0.6752 0.59191 0.5109 0.0
H195 H 0.72255 0.60201 0.46476 0.0
H196 H 0.76838 0.76765 0.43289 0.0
H197 H 0.73399 0.81006 0.4766 0.0
C198 C 0.68873 0.75425 0.52135 0.0
C199 C 0.6652 0.71954 0.5427 0.0
C200 C 0.70787 0.73051 0.49599 0.0
C201 C 0.65963 0.66123 0.53841 0.0
C202 C 0.6793 0.6372 0.51351 0.0
C203 C 0.72507 0.64736 0.46748 0.0
C204 C 0.74851 0.68173 0.44594 0.0
C205 C 0.70407 0.67136 0.4923 0.0
C206 C 0.75058 0.74046 0.44934 0.0
C207 C 0.731 0.76467 0.47429 0.0
H208 H 0.25147 0.28787 0.71066 0.0
H209 H 0.38007 0.16505 0.70745 0.0
H210 H 0.36393 0.14278 0.75738 0.0
H211 H 0.31245 0.15684 0.8016 0.0
H212 H 0.18491 0.28065 0.8052 0.0
H213 H 0.20179 0.30389 0.75537 0.0
C214 C 0.276 0.25617 0.72083 0.0
C215 C 0.31674 0.22801 0.7052 0.0
C216 C 0.26673 0.2437 0.7496 0.0
C217 C 0.34848 0.18747 0.71889 0.0
C218 C 0.33921 0.17459 0.74746 0.0
C219 C 0.28819 0.18888 0.79153 0.0
C220 C 0.24717 0.21668 0.80713 0.0
C221 C 0.29827 0.20223 0.76295 0.0
C222 C 0.21673 0.25857 0.79375 0.0
C223 C 0.22627 0.27182 0.76522 0.0
H224 H 0.76265 0.80951 0.05083 0.0
H225 H 0.90469 0.72224 0.01871 0.0
H226 H 0.87738 0.7437 0.97006 0.0
H227 H 0.81457 0.7904 0.93653 0.0
H228 H 0.67756 0.88413 0.96932 0.0
H229 H 0.70089 0.85671 0.01765 0.0
C230 C 0.78738 0.795 0.03315 0.0
C231 C 0.83543 0.76435 0.03828 0.0
C232 C 0.77222 0.80859 0.0053 0.0
C233 C 0.86754 0.74619 0.01524 0.0
C234 C 0.85191 0.75829 0.98742 0.0
C235 C 0.78965 0.80414 0.95431 0.0
C236 C 0.74437 0.83885 0.94954 0.0
C237 C 0.80451 0.7898 0.98217 0.0
C238 C 0.71274 0.85736 0.97263 0.0
C239 C 0.72603 0.84178 0.00024 0.0
H240 H 0.98563 0.12204 0.0999 0.0
H241 H 0.11808 0.04984 0.14847 0.0
H242 H 0.06767 0.95806 0.14782 0.0
H243 H 0.98684 0.89675 0.13205 0.0
H244 H 0.8565 0.96921 0.0817 0.0
H245 H 0.90507 0.06099 0.08421 0.0
C246 C 0.00281 0.0864 0.11075 0.0
C247 C 0.05519 0.09294 0.12442 0.0
C248 C 0.97431 0.03308 0.10961 0.0
C249 C 0.07761 0.04598 0.13787 0.0
C250 C 0.04896 0.99331 0.13739 0.0
C251 C 0.96929 0.93249 0.12148 0.0
C252 C 0.91784 0.92547 0.1068 0.0
C253 C 0.99758 0.986 0.12295 0.0
C254 C 0.89581 0.97281 0.09335 0.0
C255 C 0.92352 0.02575 0.09478 0.0
H256 H 0.13319 0.51861 0.37032 0.0
H257 H 0.05859 0.34991 0.37231 0.0
H258 H 0.96442 0.38724 0.3701 0.0
H259 H 0.90287 0.46813 0.3699 0.0
H260 H 0.97788 0.63675 0.37008 0.0
H261 H 0.07189 0.59923 0.36903 0.0
C262 C 0.09635 0.48998 0.37001 0.0
C263 C 0.10301 0.43153 0.37149 0.0
C264 C 0.04222 0.51179 0.36926 0.0
C265 C 0.05474 0.39508 0.37126 0.0
C266 C 0.0008 0.41641 0.37002 0.0
C267 C 0.93979 0.49664 0.36946 0.0
C268 C 0.93326 0.55519 0.37009 0.0
C269 C 0.99396 0.47472 0.36935 0.0
C270 C 0.98161 0.59152 0.3697 0.0
C271 C 0.03548 0.57009 0.3691 0.0
H272 H 0.39076 0.46191 0.61887 0.0
H273 H 0.51845 0.33933 0.60986 0.0
H274 H 0.59149 0.41429 0.60764 0.0
H275 H 0.61957 0.51459 0.60885 0.0
H276 H 0.49187 0.63705 0.61881 0.0
H277 H 0.41884 0.56222 0.62008 0.0
C278 C 0.43452 0.45164 0.6163 0.0
C279 C 0.44901 0.39518 0.61461 0.0
C280 C 0.47655 0.4949 0.61531 0.0
C281 C 0.50604 0.38251 0.61142 0.0
C282 C 0.54796 0.42533 0.6101 0.0
C283 C 0.57581 0.52493 0.61131 0.0
C284 C 0.56148 0.58135 0.6138 0.0
C285 C 0.53375 0.48167 0.61218 0.0
C286 C 0.5044 0.59395 0.61697 0.0
C287 C 0.46238 0.55119 0.61765 0.0
H288 H 0.60433 0.03557 0.86359 0.0
H289 H 0.53206 0.86593 0.8612 0.0
H290 H 0.43741 0.90188 0.85942 0.0
H291 H 0.37515 0.98117 0.86319 0.0
H292 H 0.44743 0.1505 0.86881 0.0
H293 H 0.54201 0.11517 0.86441 0.0
C294 C 0.56786 0.00657 0.86224 0.0
C295 C 0.57501 0.94831 0.86272 0.0
C296 C 0.51355 0.02748 0.86201 0.0
C297 C 0.52749 0.91107 0.86109 0.0
C298 C 0.47338 0.93155 0.86009 0.0
C299 C 0.41159 0.01034 0.86302 0.0
C300 C 0.40447 0.06821 0.86651 0.0
C301 C 0.46587 0.98963 0.86125 0.0
C302 C 0.45197 0.10562 0.86638 0.0
C303 C 0.50604 0.08549 0.86388 0.0
H304 H 0.02358 0.62437 0.13002 0.0
H305 H 0.85087 0.56128 0.13524 0.0
H306 H 0.88156 0.46515 0.1394 0.0
H307 H 0.95718 0.39758 0.13683 0.0
H308 H 0.12969 0.4605 0.12929 0.0
H309 H 0.09967 0.55708 0.13099 0.0
C310 C 0.99286 0.58963 0.13261 0.0
C311 C 0.93512 0.59997 0.13214 0.0
C312 C 0.01075 0.53396 0.13427 0.0
C313 C 0.89567 0.55443 0.13528 0.0
C314 C 0.91314 0.49931 0.13764 0.0
C315 C 0.98815 0.43246 0.13599 0.0
C316 C 0.04545 0.42171 0.13268 0.0
C317 C 0.97052 0.48831 0.1364 0.0
C318 C 0.08513 0.46747 0.13154 0.0
C319 C 0.06807 0.5229 0.13252 0.0
H320 H 0.49027 0.38272 0.38605 0.0
H321 H 0.36855 0.5124 0.38734 0.0
H322 H 0.44496 0.58471 0.38625 0.0
H323 H 0.54617 0.61105 0.3843 0.0
H324 H 0.66732 0.48081 0.38197 0.0
H325 H 0.59099 0.40888 0.38408 0.0
C326 C 0.48023 0.42678 0.38623 0.0
C327 C 0.42351 0.44193 0.38683 0.0
C328 C 0.52429 0.46811 0.38532 0.0
C329 C 0.41167 0.49936 0.38684 0.0
C330 C 0.45539 0.54079 0.38622 0.0
C331 C 0.55604 0.56695 0.38431 0.0
C332 C 0.61267 0.55157 0.38296 0.0
C333 C 0.51185 0.52564 0.38535 0.0
C334 C 0.62432 0.49408 0.3829 0.0
C335 C 0.58063 0.45282 0.38415 0.0
H336 H 0.39931 0.03 0.63298 0.0
H337 H 0.55284 0.13369 0.6283 0.0
H338 H 0.60851 0.05008 0.62743 0.0
H339 H 0.61357 0.9472 0.62548 0.0
H340 H 0.46042 0.84341 0.63211 0.0
H341 H 0.40494 0.92705 0.63492 0.0
C342 C 0.44494 0.03417 0.63196 0.0
C343 C 0.47182 0.08781 0.63048 0.0
C344 C 0.4769 0.98587 0.63173 0.0
C345 C 0.53104 0.09276 0.62946 0.0
C346 C 0.56301 0.04498 0.62886 0.0
C347 C 0.56811 0.943 0.62773 0.0
C348 C 0.54117 0.88933 0.62834 0.0
C349 C 0.53638 0.9913 0.6296 0.0
C350 C 0.48225 0.88437 0.63156 0.0
C351 C 0.45038 0.93217 0.63308 0.0
H352 H 0.95882 0.89235 0.88253 0.0
H353 H 0.84116 0.02576 0.8844 0.0
H354 H 0.91941 0.09567 0.88714 0.0
H355 H 0.02086 0.11895 0.88901 0.0
H356 H 0.13868 0.98578 0.886 0.0
H357 H 0.06041 0.91573 0.88371 0.0
C358 C 0.95014 0.9367 0.88358 0.0
C359 C 0.89402 0.95365 0.88332 0.0
C360 C 0.99532 0.97673 0.88496 0.0
C361 C 0.88382 0.01141 0.88449 0.0
C362 C 0.92857 0.05146 0.88611 0.0
C363 C 0.02958 0.0746 0.88795 0.0
C364 C 0.08572 0.05775 0.88778 0.0
C365 C 0.98444 0.03458 0.88638 0.0
C366 C 0.09599 5e-05 0.88612 0.0
C367 C 0.05123 0.95993 0.88485 0.0
loop_
_geom_bond_atom_site_label_1
_geom_bond_atom_site_label_2
_geom_bond_distance
_geom_bond_site_symmetry_2
_ccdc_geom_bond_type
Co0 O1 2.216 . S
Co0 O2 2.091 . S
Co0 O4 2.004 . S
Co0 O10 2.021 . S
Co0 O12 2.137 . S
Co0 O13 2.244 . S
O1 Co0 2.216 . S
O1 C8 1.247 . S
O2 Co0 2.091 . S
O2 C8 1.261 . S
C3 O12 1.247 . S
C3 O13 1.272 . S
O4 Co0 2.004 . S
O4 C9 1.259 . S
Co5 O6 2.061 . S
Co5 O11 2.052 . S
Co5 O13 2.135 . S
O6 Co5 2.061 . S
O6 C9 1.235 . S
C7 O10 1.238 . S
C7 O11 1.241 . S
C8 O1 1.247 . S
C8 O2 1.261 . S
C9 O4 1.259 . S
C9 O6 1.235 . S
O10 Co0 2.021 . S
O10 C7 1.238 . S
O11 Co5 2.052 . S
O11 C7 1.241 . S
O12 Co0 2.137 . S
O12 C3 1.247 . S
O13 Co0 2.244 . S
O13 C3 1.272 . S
O13 Co5 2.135 . S
Co14 O15 2.216 . S
Co14 O16 2.091 . S
Co14 O18 2.004 . S
Co14 O24 2.021 . S
Co14 O26 2.137 . S
Co14 O27 2.244 . S
O15 Co14 2.216 . S
O15 C22 1.247 . S
O16 Co14 2.091 . S
O16 C22 1.261 . S
C17 O26 1.247 . S
C17 O27 1.272 . S
O18 Co14 2.004 . S
O18 C23 1.259 . S
Co19 O20 2.061 . S
Co19 O25 2.052 . S
Co19 O27 2.135 . S
O20 Co19 2.061 . S
O20 C23 1.235 . S
C21 O24 1.238 . S
C21 O25 1.241 . S
C22 O15 1.247 . S
C22 O16 1.261 . S
C23 O18 1.259 . S
C23 O20 1.235 . S
O24 Co14 2.021 . S
O24 C21 1.238 . S
O25 Co19 2.052 . S
O25 C21 1.241 . S
O26 Co14 2.137 . S
O26 C17 1.247 . S
O27 Co14 2.244 . S
O27 C17 1.272 . S
O27 Co19 2.135 . S
Co28 O29 2.216 . S
Co28 O30 2.091 . S
Co28 O32 2.004 . S
Co28 O38 2.021 . S
Co28 O40 2.137 . S
Co28 O41 2.244 . S
O29 Co28 2.216 . S
O29 C36 1.247 . S
O30 Co28 2.091 . S
O30 C36 1.261 . S
C31 O40 1.247 . S
C31 O41 1.272 . S
O32 Co28 2.004 . S
O32 C37 1.259 . S
Co33 O34 2.061 . S
Co33 O39 2.052 . S
Co33 O41 2.135 . S
O34 Co33 2.061 . S
O34 C37 1.235 . S
C35 O38 1.238 . S
C35 O39 1.241 . S
C36 O29 1.247 . S
C36 O30 1.261 . S
C37 O32 1.259 . S
C37 O34 1.235 . S
O38 Co28 2.021 . S
O38 C35 1.238 . S
O39 Co33 2.052 . S
O39 C35 1.241 . S
O40 Co28 2.137 . S
O40 C31 1.247 . S
O41 Co28 2.244 . S
O41 C31 1.272 . S
O41 Co33 2.135 . S
Co42 O43 2.216 . S
Co42 O44 2.091 . S
Co42 O46 2.004 . S
Co42 O52 2.021 . S
Co42 O54 2.137 . S
Co42 O55 2.244 . S
O43 Co42 2.216 . S
O43 C50 1.247 . S
O44 Co42 2.091 . S
O44 C50 1.261 . S
C45 O54 1.247 . S
C45 O55 1.272 . S
O46 Co42 2.004 . S
O46 C51 1.259 . S
Co47 O48 2.061 . S
Co47 O53 2.052 . S
Co47 O55 2.135 . S
O48 Co47 2.061 . S
O48 C51 1.235 . S
C49 O52 1.238 . S
C49 O53 1.241 . S
C50 O43 1.247 . S
C50 O44 1.261 . S
C51 O46 1.259 . S
C51 O48 1.235 . S
O52 Co42 2.021 . S
O52 C49 1.238 . S
O53 Co47 2.052 . S
O53 C49 1.241 . S
O54 Co42 2.137 . S
O54 C45 1.247 . S
O55 Co42 2.244 . S
O55 C45 1.272 . S
O55 Co47 2.135 . S
Co56 O57 2.216 . S
Co56 O58 2.091 . S
Co56 O60 2.004 . S
Co56 O66 2.021 . S
Co56 O68 2.137 . S
Co56 O69 2.244 . S
O57 Co56 2.216 . S
O57 C64 1.247 . S
O58 Co56 2.091 . S
O58 C64 1.261 . S
C59 O68 1.247 . S
C59 O69 1.272 . S
O60 Co56 2.004 . S
O60 C65 1.259 . S
Co61 O62 2.061 . S
Co61 O67 2.052 . S
Co61 O69 2.135 . S
O62 Co61 2.061 . S
O62 C65 1.235 . S
C63 O66 1.238 . S
C63 O67 1.241 . S
C64 O57 1.247 . S
C64 O58 1.261 . S
C65 O60 1.259 . S
C65 O62 1.235 . S
O66 Co56 2.021 . S
O66 C63 1.238 . S
O67 Co61 2.052 . S
O67 C63 1.241 . S
O68 Co56 2.137 . S
O68 C59 1.247 . S
O69 Co56 2.244 . S
O69 C59 1.272 . S
O69 Co61 2.135 . S
Co70 O71 2.216 . S
Co70 O72 2.091 . S
Co70 O74 2.004 . S
Co70 O80 2.021 . S
Co70 O82 2.137 . S
Co70 O83 2.244 . S
O71 Co70 2.216 . S
O71 C78 1.247 . S
O72 Co70 2.091 . S
O72 C78 1.261 . S
C73 O82 1.247 . S
C73 O83 1.272 . S
O74 Co70 2.004 . S
O74 C79 1.259 . S
Co75 O76 2.061 . S
Co75 O81 2.052 . S
Co75 O83 2.135 . S
O76 Co75 2.061 . S
O76 C79 1.235 . S
C77 O80 1.238 . S
C77 O81 1.241 . S
C78 O71 1.247 . S
C78 O72 1.261 . S
C79 O74 1.259 . S
C79 O76 1.235 . S
O80 Co70 2.021 . S
O80 C77 1.238 . S
O81 Co75 2.052 . S
O81 C77 1.241 . S
O82 Co70 2.137 . S
O82 C73 1.247 . S
O83 Co70 2.244 . S
O83 C73 1.272 . S
O83 Co75 2.135 . S
Co84 O85 2.216 . S
Co84 O86 2.091 . S
Co84 O88 2.004 . S
Co84 O94 2.021 . S
Co84 O96 2.137 . S
Co84 O97 2.244 . S
O85 Co84 2.216 . S
O85 C92 1.247 . S
O86 Co84 2.091 . S
O86 C92 1.261 . S
C87 O96 1.247 . S
C87 O97 1.272 . S
O88 Co84 2.004 . S
O88 C93 1.259 . S
Co89 O90 2.061 . S
Co89 O95 2.052 . S
Co89 O97 2.135 . S
O90 Co89 2.061 . S
O90 C93 1.235 . S
C91 O94 1.238 . S
C91 O95 1.241 . S
C92 O85 1.247 . S
C92 O86 1.261 . S
C93 O88 1.259 . S
C93 O90 1.235 . S
O94 Co84 2.021 . S
O94 C91 1.238 . S
O95 Co89 2.052 . S
O95 C91 1.241 . S
O96 Co84 2.137 . S
O96 C87 1.247 . S
O97 Co84 2.244 . S
O97 C87 1.272 . S
O97 Co89 2.135 . S
Co98 O99 2.216 . S
Co98 O100 2.091 . S
Co98 O102 2.004 . S
Co98 O108 2.021 . S
Co98 O110 2.137 . S
Co98 O111 2.244 . S
O99 Co98 2.216 . S
O99 C106 1.247 . S
O100 Co98 2.091 . S
O100 C106 1.261 . S
C101 O110 1.247 . S
C101 O111 1.272 . S
O102 Co98 2.004 . S
O102 C107 1.259 . S
Co103 O104 2.061 . S
Co103 O109 2.052 . S
Co103 O111 2.135 . S
O104 Co103 2.061 . S
O104 C107 1.235 . S
C105 O108 1.238 . S
C105 O109 1.241 . S
C106 O99 1.247 . S
C106 O100 1.261 . S
C107 O102 1.259 . S
C107 O104 1.235 . S
O108 Co98 2.021 . S
O108 C105 1.238 . S
O109 Co103 2.052 . S
O109 C105 1.241 . S
O110 Co98 2.137 . S
O110 C101 1.247 . S
O111 Co98 2.244 . S
O111 C101 1.272 . S
O111 Co103 2.135 . S
H112 C118 0.930 . S
H113 C121 0.930 . S
H114 C122 0.930 1_556 S
H115 C123 0.930 . S
H116 C126 0.930 . S
H117 C127 0.930 1_554 S
C118 H112 0.930 . S
C118 C119 1.355 . S
C118 C120 1.415 . S
C119 C118 1.355 . S
C119 C121 1.419 . S
C120 C118 1.415 . S
C120 C125 1.425 1_554 S
C120 C127 1.409 1_554 S
C121 H113 0.930 . S
C121 C119 1.419 . S
C121 C122 1.362 . S
C122 H114 0.930 1_554 S
C122 C121 1.362 . S
C122 C125 1.409 1_554 S
C123 H115 0.930 . S
C123 C124 1.355 . S
C123 C125 1.415 . S
C124 C123 1.355 . S
C124 C126 1.419 . S
C125 C120 1.425 1_556 S
C125 C122 1.409 1_556 S
C125 C123 1.415 . S
C126 H116 0.930 . S
C126 C124 1.419 . S
C126 C127 1.362 . S
C127 H117 0.930 1_556 S
C127 C120 1.409 1_556 S
C127 C126 1.362 . S
H128 C134 0.930 . S
H129 C137 0.930 . S
H130 C138 0.930 . S
H131 C139 0.930 . S
H132 C142 0.930 . S
H133 C143 0.930 . S
C134 H128 0.930 . S
C134 C135 1.355 . S
C134 C136 1.415 . S
C135 C134 1.355 . S
C135 C137 1.419 . S
C136 C134 1.415 . S
C136 C141 1.425 . S
C136 C143 1.409 . S
C137 H129 0.930 . S
C137 C135 1.419 . S
C137 C138 1.362 . S
C138 H130 0.930 . S
C138 C137 1.362 . S
C138 C141 1.409 . S
C139 H131 0.930 . S
C139 C140 1.355 . S
C139 C141 1.415 . S
C140 C139 1.355 . S
C140 C142 1.419 . S
C141 C136 1.425 . S
C141 C138 1.409 . S
C141 C139 1.415 . S
C142 H132 0.930 . S
C142 C140 1.419 . S
C142 C143 1.362 . S
C143 H133 0.930 . S
C143 C136 1.409 . S
C143 C142 1.362 . S
H144 C150 0.930 . S
H145 C153 0.930 . S
H146 C154 0.930 . S
H147 C155 0.930 . S
H148 C158 0.930 . S
H149 C159 0.930 . S
C150 H144 0.930 . S
C150 C151 1.355 . S
C150 C152 1.415 . S
C151 C150 1.355 . S
C151 C153 1.419 . S
C152 C150 1.415 . S
C152 C157 1.425 . S
C152 C159 1.409 . S
C153 H145 0.930 . S
C153 C151 1.419 . S
C153 C154 1.362 . S
C154 H146 0.930 . S
C154 C153 1.362 . S
C154 C157 1.409 . S
C155 H147 0.930 . S
C155 C156 1.355 . S
C155 C157 1.415 . S
C156 C155 1.355 . S
C156 C158 1.419 . S
C157 C152 1.425 . S
C157 C154 1.409 . S
C157 C155 1.415 . S
C158 H148 0.930 . S
C158 C156 1.419 . S
C158 C159 1.362 . S
C159 H149 0.930 . S
C159 C152 1.409 . S
C159 C158 1.362 . S
H160 C166 0.930 . S
H161 C169 0.930 . S
H162 C170 0.930 . S
H163 C171 0.930 . S
H164 C174 0.930 . S
H165 C175 0.930 . S
C166 H160 0.930 . S
C166 C167 1.355 . S
C166 C168 1.415 . S
C167 C166 1.355 . S
C167 C169 1.419 . S
C168 C166 1.415 . S
C168 C173 1.425 . S
C168 C175 1.409 . S
C169 H161 0.930 . S
C169 C167 1.419 . S
C169 C170 1.362 . S
C170 H162 0.930 . S
C170 C169 1.362 . S
C170 C173 1.409 . S
C171 H163 0.930 . S
C171 C172 1.355 . S
C171 C173 1.415 . S
C172 C171 1.355 . S
C172 C174 1.419 . S
C173 C168 1.425 . S
C173 C170 1.409 . S
C173 C171 1.415 . S
C174 H164 0.930 . S
C174 C172 1.419 . S
C174 C175 1.362 . S
C175 H165 0.930 . S
C175 C168 1.409 . S
C175 C174 1.362 . S
H176 C182 0.930 . S
H177 C185 0.930 . S
H178 C186 0.930 . S
H179 C187 0.930 . S
H180 C190 0.930 . S
H181 C191 0.930 . S
C182 H176 0.930 . S
C182 C183 1.355 . S
C182 C184 1.415 . S
C183 C182 1.355 . S
C183 C185 1.419 . S
C184 C182 1.415 . S
C184 C189 1.425 . S
C184 C191 1.409 . S
C185 H177 0.930 . S
C185 C183 1.419 . S
C185 C186 1.362 . S
C186 H178 0.930 . S
C186 C185 1.362 . S
C186 C189 1.409 . S
C187 H179 0.930 . S
C187 C188 1.355 . S
C187 C189 1.415 . S
C188 C187 1.355 . S
C188 C190 1.419 . S
C189 C184 1.425 . S
C189 C186 1.409 . S
C189 C187 1.415 . S
C190 H180 0.930 . S
C190 C188 1.419 . S
C190 C191 1.362 . S
C191 H181 0.930 . S
C191 C184 1.409 . S
C191 C190 1.362 . S
H192 C198 0.930 . S
H193 C201 0.930 . S
H194 C202 0.930 . S
H195 C203 0.930 . S
H196 C206 0.930 . S
H197 C207 0.930 . S
C198 H192 0.930 . S
C198 C199 1.355 . S
C198 C200 1.415 . S
C199 C198 1.355 . S
C199 C201 1.419 . S
C200 C198 1.415 . S
C200 C205 1.425 . S
C200 C207 1.409 . S
C201 H193 0.930 . S
C201 C199 1.419 . S
C201 C202 1.362 . S
C202 H194 0.930 . S
C202 C201 1.362 . S
C202 C205 1.409 . S
C203 H195 0.930 . S
C203 C204 1.355 . S
C203 C205 1.415 . S
C204 C203 1.355 . S
C204 C206 1.419 . S
C205 C200 1.425 . S
C205 C202 1.409 . S
C205 C203 1.415 . S
C206 H196 0.930 . S
C206 C204 1.419 . S
C206 C207 1.362 . S
C207 H197 0.930 . S
C207 C200 1.409 . S
C207 C206 1.362 . S
H208 C214 0.930 . S
H209 C217 0.930 . S
H210 C218 0.930 . S
H211 C219 0.930 . S
H212 C222 0.930 . S
H213 C223 0.930 . S
C214 H208 0.930 . S
C214 C215 1.355 . S
C214 C216 1.415 . S
C215 C214 1.355 . S
C215 C217 1.419 . S
C216 C214 1.415 . S
C216 C221 1.425 . S
C216 C223 1.409 . S
C217 H209 0.930 . S
C217 C215 1.419 . S
C217 C218 1.362 . S
C218 H210 0.930 . S
C218 C217 1.362 . S
C218 C221 1.409 . S
C219 H211 0.930 . S
C219 C220 1.355 . S
C219 C221 1.415 . S
C220 C219 1.355 . S
C220 C222 1.419 . S
C221 C216 1.425 . S
C221 C218 1.409 . S
C221 C219 1.415 . S
C222 H212 0.930 . S
C222 C220 1.419 . S
C222 C223 1.362 . S
C223 H213 0.930 . S
C223 C216 1.409 . S
C223 C222 1.362 . S
H224 C230 0.930 . S
H225 C233 0.930 . S
H226 C234 0.930 . S
H227 C235 0.930 . S
H228 C238 0.930 . S
H229 C239 0.930 . S
C230 H224 0.930 . S
C230 C231 1.355 . S
C230 C232 1.415 . S
C231 C230 1.355 . S
C231 C233 1.419 . S
C232 C230 1.415 . S
C232 C237 1.425 1_554 S
C232 C239 1.409 1_554 S
C233 H225 0.930 . S
C233 C231 1.419 . S
C233 C234 1.362 . S
C234 H226 0.930 . S
C234 C233 1.362 . S
C234 C237 1.409 1_554 S
C235 H227 0.930 . S
C235 C236 1.355 . S
C235 C237 1.415 . S
C236 C235 1.355 . S
C236 C238 1.419 . S
C237 C232 1.425 1_556 S
C237 C234 1.409 1_556 S
C237 C235 1.415 . S
C238 H228 0.930 . S
C238 C236 1.419 . S
C238 C239 1.362 . S
C239 H229 0.930 . S
C239 C232 1.409 1_556 S
C239 C238 1.362 . S
H240 C246 0.930 . S
H241 C249 0.930 . S
H242 C250 0.931 . S
H243 C251 0.930 . S
H244 C254 0.930 . S
H245 C255 0.931 . S
C246 H240 0.930 . S
C246 C247 1.355 . S
C246 C248 1.415 1_455 S
C247 C246 1.355 . S
C247 C249 1.419 . S
C248 C246 1.415 1_655 S
C248 C253 1.425 1_645 S
C248 C255 1.410 . S
C249 H241 0.930 . S
C249 C247 1.419 . S
C249 C250 1.361 1_545 S
C250 H242 0.931 . S
C250 C249 1.361 1_565 S
C250 C253 1.410 . S
C251 H243 0.930 . S
C251 C252 1.355 . S
C251 C253 1.415 1_655 S
C252 C251 1.355 . S
C252 C254 1.419 . S
C253 C248 1.425 1_465 S
C253 C250 1.410 . S
C253 C251 1.415 1_455 S
C254 H244 0.930 . S
C254 C252 1.419 . S
C254 C255 1.361 1_565 S
C255 H245 0.931 . S
C255 C248 1.410 . S
C255 C254 1.361 1_545 S
H256 C262 0.930 . S
H257 C265 0.930 . S
H258 C266 0.930 . S
H259 C267 0.930 . S
H260 C270 0.930 . S
H261 C271 0.930 . S
C262 H256 0.930 . S
C262 C263 1.355 . S
C262 C264 1.415 . S
C263 C262 1.355 . S
C263 C265 1.419 . S
C264 C262 1.415 . S
C264 C269 1.425 1_455 S
C264 C271 1.409 . S
C265 H257 0.930 . S
C265 C263 1.419 . S
C265 C266 1.362 1_455 S
C266 H258 0.930 . S
C266 C265 1.362 1_655 S
C266 C269 1.409 . S
C267 H259 0.930 . S
C267 C268 1.355 . S
C267 C269 1.415 . S
C268 C267 1.355 . S
C268 C270 1.419 . S
C269 C264 1.425 1_655 S
C269 C266 1.409 . S
C269 C267 1.415 . S
C270 H260 0.930 . S
C270 C268 1.419 . S
C270 C271 1.362 1_655 S
C271 H261 0.930 . S
C271 C264 1.409 . S
C271 C270 1.362 1_455 S
H272 C278 0.930 . S
H273 C281 0.930 . S
H274 C282 0.930 . S
H275 C283 0.930 . S
H276 C286 0.930 . S
H277 C287 0.930 . S
C278 H272 0.930 . S
C278 C279 1.355 . S
C278 C280 1.415 . S
C279 C278 1.355 . S
C279 C281 1.419 . S
C280 C278 1.415 . S
C280 C285 1.425 . S
C280 C287 1.409 . S
C281 H273 0.930 . S
C281 C279 1.419 . S
C281 C282 1.362 . S
C282 H274 0.930 . S
C282 C281 1.362 . S
C282 C285 1.409 . S
C283 H275 0.930 . S
C283 C284 1.355 . S
C283 C285 1.415 . S
C284 C283 1.355 . S
C284 C286 1.419 . S
C285 C280 1.425 . S
C285 C282 1.409 . S
C285 C283 1.415 . S
C286 H276 0.930 . S
C286 C284 1.419 . S
C286 C287 1.362 . S
C287 H277 0.930 . S
C287 C280 1.409 . S
C287 C286 1.362 . S
H288 C294 0.930 1_545 S
H289 C297 0.930 . S
H290 C298 0.930 . S
H291 C299 0.930 1_565 S
H292 C302 0.930 . S
H293 C303 0.930 . S
C294 H288 0.930 1_565 S
C294 C295 1.355 . S
C294 C296 1.415 1_565 S
C295 C294 1.355 . S
C295 C297 1.419 . S
C296 C294 1.415 1_545 S
C296 C301 1.425 1_545 S
C296 C303 1.409 . S
C297 H289 0.930 . S
C297 C295 1.419 . S
C297 C298 1.362 . S
C298 H290 0.930 . S
C298 C297 1.362 . S
C298 C301 1.409 . S
C299 H291 0.930 1_545 S
C299 C300 1.355 . S
C299 C301 1.415 1_545 S
C300 C299 1.355 . S
C300 C302 1.419 . S
C301 C296 1.425 1_565 S
C301 C298 1.409 . S
C301 C299 1.415 1_565 S
C302 H292 0.930 . S
C302 C300 1.419 . S
C302 C303 1.362 . S
C303 H293 0.930 . S
C303 C296 1.409 . S
C303 C302 1.362 . S
H304 C310 0.930 1_455 S
H305 C313 0.930 . S
H306 C314 0.930 . S
H307 C315 0.930 1_655 S
H308 C318 0.930 . S
H309 C319 0.930 . S
C310 H304 0.930 1_655 S
C310 C311 1.355 . S
C310 C312 1.415 1_655 S
C311 C310 1.355 . S
C311 C313 1.419 . S
C312 C310 1.415 1_455 S
C312 C317 1.425 1_455 S
C312 C319 1.409 . S
C313 H305 0.930 . S
C313 C311 1.419 . S
C313 C314 1.362 . S
C314 H306 0.930 . S
C314 C313 1.362 . S
C314 C317 1.409 . S
C315 H307 0.930 1_455 S
C315 C316 1.355 . S
C315 C317 1.415 1_455 S
C316 C315 1.355 . S
C316 C318 1.419 . S
C317 C312 1.425 1_655 S
C317 C314 1.409 . S
C317 C315 1.415 1_655 S
C318 H308 0.930 . S
C318 C316 1.419 . S
C318 C319 1.362 . S
C319 H309 0.930 . S
C319 C312 1.409 . S
C319 C318 1.362 . S
H320 C326 0.930 . S
H321 C329 0.930 . S
H322 C330 0.930 . S
H323 C331 0.930 . S
H324 C334 0.930 . S
H325 C335 0.930 . S
C326 H320 0.930 . S
C326 C327 1.355 . S
C326 C328 1.415 . S
C327 C326 1.355 . S
C327 C329 1.419 . S
C328 C326 1.415 . S
C328 C333 1.425 . S
C328 C335 1.409 . S
C329 H321 0.930 . S
C329 C327 1.419 . S
C329 C330 1.362 . S
C330 H322 0.930 . S
C330 C329 1.362 . S
C330 C333 1.409 . S
C331 H323 0.930 . S
C331 C332 1.355 . S
C331 C333 1.415 . S
C332 C331 1.355 . S
C332 C334 1.419 . S
C333 C328 1.425 . S
C333 C330 1.409 . S
C333 C331 1.415 . S
C334 H324 0.930 . S
C334 C332 1.419 . S
C334 C335 1.362 . S
C335 H325 0.930 . S
C335 C328 1.409 . S
C335 C334 1.362 . S
H336 C342 0.930 . S
H337 C345 0.930 . S
H338 C346 0.930 . S
H339 C347 0.930 . S
H340 C350 0.930 . S
H341 C351 0.930 . S
C342 H336 0.930 . S
C342 C343 1.355 . S
C342 C344 1.415 1_545 S
C343 C342 1.355 . S
C343 C345 1.419 . S
C344 C342 1.415 1_565 S
C344 C349 1.425 1_565 S
C344 C351 1.409 . S
C345 H337 0.930 . S
C345 C343 1.419 . S
C345 C346 1.362 . S
C346 H338 0.930 . S
C346 C345 1.362 . S
C346 C349 1.409 . S
C347 H339 0.930 . S
C347 C348 1.355 . S
C347 C349 1.415 1_565 S
C348 C347 1.355 . S
C348 C350 1.419 . S
C349 C344 1.425 1_545 S
C349 C346 1.409 . S
C349 C347 1.415 1_545 S
C350 H340 0.930 . S
C350 C348 1.419 . S
C350 C351 1.362 . S
C351 H341 0.930 . S
C351 C344 1.409 . S
C351 C350 1.362 . S
H352 C358 0.930 . S
H353 C361 0.930 . S
H354 C362 0.930 . S
H355 C363 0.930 . S
H356 C366 0.930 . S
H357 C367 0.930 . S
C358 H352 0.930 . S
C358 C359 1.355 . S
C358 C360 1.415 . S
C359 C358 1.355 . S
C359 C361 1.419 . S
C360 C358 1.415 . S
C360 C365 1.425 1_665 S
C360 C367 1.409 1_655 S
C361 H353 0.930 . S
C361 C359 1.419 . S
C361 C362 1.362 1_565 S
C362 H354 0.930 . S
C362 C361 1.362 1_545 S
C362 C365 1.409 1_655 S
C363 H355 0.930 . S
C363 C364 1.355 . S
C363 C365 1.415 . S
C364 C363 1.355 . S
C364 C366 1.419 . S
C365 C360 1.425 1_445 S
C365 C362 1.409 1_455 S
C365 C363 1.415 . S
C366 H356 0.930 . S
C366 C364 1.419 . S
C366 C367 1.362 1_545 S
C367 H357 0.930 . S
C367 C360 1.409 1_455 S
C367 C366 1.362 1_565 S
C119 C3 1.240 . S
C124 C73 1.232 . S
C135 C21 1.274 . S
C140 C91 1.256 . S
C151 C31 1.290 . S
C156 C101 1.253 . S
C167 C49 1.301 . S
C172 C63 1.290 . S
C183 C105 1.261 . S
C188 C7 1.284 . S
C199 C59 1.230 . S
C204 C17 1.272 . S
C215 C35 1.275 . S
C220 C77 1.256 . S
C231 C87 1.227 . S
C236 C45 1.254 . S
C247 C9 1.579 . S
C252 C93 1.565 . S
C263 C106 1.586 . S
C268 C22 1.585 . S
C279 C37 1.576 . S
C284 C65 1.582 . S
C295 C50 1.585 . S
C300 C78 1.583 . S
C311 C92 1.585 . S
C316 C8 1.584 . S
C327 C107 1.565 . S
C332 C23 1.578 . S
C343 C36 1.558 . S
C348 C64 1.561 . S
C359 C51 1.567 . S
C364 C79 1.582 . S
