# Generated by pormake.
# Topology snk, (6)-cn, num edge types: 1
# Building blocks:
#     Node 0, Type 0, BuildingBlock: KUMBUR_clean_sbu_1, # of connection points: 6
#     Node 1, Type 0, BuildingBlock: KUMBUR_clean_sbu_1, # of connection points: 6
#     Node 2, Type 0, BuildingBlock: KUMBUR_clean_sbu_1, # of connection points: 6
#     Node 3, Type 0, BuildingBlock: KUMBUR_clean_sbu_1, # of connection points: 6
#     Node 4, Type 0, BuildingBlock: KUMBUR_clean_sbu_1, # of connection points: 6
#     Node 5, Type 0, BuildingBlock: KUMBUR_clean_sbu_1, # of connection points: 6
#     Node 6, Type 0, BuildingBlock: KUMBUR_clean_sbu_1, # of connection points: 6
#     Node 7, Type 0, BuildingBlock: KUMBUR_clean_sbu_1, # of connection points: 6
#     Edge 8, Type (0, 0), BuildingBlock: KIFKEQ_clean_linker_1, # of connection points: 2
#     Edge 9, Type (0, 0), BuildingBlock: KIFKEQ_clean_linker_1, # of connection points: 2
#     Edge 10, Type (0, 0), BuildingBlock: KIFKEQ_clean_linker_1, # of connection points: 2
#     Edge 11, Type (0, 0), BuildingBlock: KIFKEQ_clean_linker_1, # of connection points: 2
#     Edge 12, Type (0, 0), BuildingBlock: KIFKEQ_clean_linker_1, # of connection points: 2
#     Edge 13, Type (0, 0), BuildingBlock: KIFKEQ_clean_linker_1, # of connection points: 2
#     Edge 14, Type (0, 0), BuildingBlock: KIFKEQ_clean_linker_1, # of connection points: 2
#     Edge 15, Type (0, 0), BuildingBlock: KIFKEQ_clean_linker_1, # of connection points: 2
#     Edge 16, Type (0, 0), BuildingBlock: KIFKEQ_clean_linker_1, # of connection points: 2
#     Edge 17, Type (0, 0), BuildingBlock: KIFKEQ_clean_linker_1, # of connection points: 2
#     Edge 18, Type (0, 0), BuildingBlock: KIFKEQ_clean_linker_1, # of connection points: 2
#     Edge 19, Type (0, 0), BuildingBlock: KIFKEQ_clean_linker_1, # of connection points: 2
#     Edge 20, Type (0, 0), BuildingBlock: KIFKEQ_clean_linker_1, # of connection points: 2
#     Edge 21, Type (0, 0), BuildingBlock: KIFKEQ_clean_linker_1, # of connection points: 2
#     Edge 22, Type (0, 0), BuildingBlock: KIFKEQ_clean_linker_1, # of connection points: 2
#     Edge 23, Type (0, 0), BuildingBlock: KIFKEQ_clean_linker_1, # of connection points: 2
#     Edge 24, Type (0, 0), BuildingBlock: KIFKEQ_clean_linker_1, # of connection points: 2
#     Edge 25, Type (0, 0), BuildingBlock: KIFKEQ_clean_linker_1, # of connection points: 2
#     Edge 26, Type (0, 0), BuildingBlock: KIFKEQ_clean_linker_1, # of connection points: 2
#     Edge 27, Type (0, 0), BuildingBlock: KIFKEQ_clean_linker_1, # of connection points: 2
#     Edge 28, Type (0, 0), BuildingBlock: KIFKEQ_clean_linker_1, # of connection points: 2
#     Edge 29, Type (0, 0), BuildingBlock: KIFKEQ_clean_linker_1, # of connection points: 2
#     Edge 30, Type (0, 0), BuildingBlock: KIFKEQ_clean_linker_1, # of connection points: 2
#     Edge 31, Type (0, 0), BuildingBlock: KIFKEQ_clean_linker_1, # of connection points: 2
# Relax obj value: 0.008
# Max RMSD: 0.071
# Mean RMSD: 0.071
data_MOF--net-snk--node1-KUMBUR_clean_sbu_1--edge1-KIFKEQ_clean_linker_1
_symmetry_space_group_name_H-M    P1
_symmetry_Int_Tables_number       1
_symmetry_cell_setting            triclinic
loop_
_symmetry_equiv_pos_as_xyz
'x, y, z'
_cell_length_a     38.926295
_cell_length_b     38.909928
_cell_length_c     24.865515
_cell_angle_alpha  90.303887
_cell_angle_beta   89.975809
_cell_angle_gamma 89.865463
loop_
_atom_site_label
_atom_site_type_symbol
_atom_site_fract_x
_atom_site_fract_y
_atom_site_fract_z
_atom_type_partial_charge
Tb0 Tb 1.005 0.03431 0.58728 0.0
C1 C 0.98828 0.90178 0.44518 0.0
N2 N 0.01672 0.92172 0.45071 0.0
C3 C 0.05233 0.87136 0.4536 0.0
C4 C 0.99076 0.86565 0.44436 0.0
C5 C 0.04859 0.90712 0.4543 0.0
C6 C 0.0233 0.85052 0.44874 0.0
C7 C 0.92624 0.89801 0.4372 0.0
C8 C 0.95641 0.91774 0.44165 0.0
C9 C 0.92859 0.86198 0.43613 0.0
C10 C 0.96076 0.84584 0.43969 0.0
Tb11 Tb 0.00699 0.97956 0.45137 0.0
N12 N 0.95501 0.95267 0.44512 0.0
C13 C 0.89463 0.91511 0.43438 0.0
C14 C 0.9244 0.96949 0.43993 0.0
C15 C 0.89376 0.951 0.43528 0.0
H16 H 0.07129 0.92297 0.45657 0.0
H17 H 0.86949 0.96447 0.43201 0.0
H18 H 0.94097 0.09112 0.58401 0.0
H19 H 0.14284 0.04884 0.6023 0.0
H20 H 0.92337 0.99705 0.43877 0.0
H21 H 0.87083 0.90089 0.43098 0.0
H22 H 0.08874 0.0165 0.59747 0.0
H23 H 0.07761 0.8599 0.45652 0.0
H24 H 0.90568 0.84635 0.4328 0.0
H25 H 0.96213 0.81803 0.43903 0.0
H26 H 0.93489 0.15423 0.5842 0.0
H27 H 0.0263 0.82283 0.44826 0.0
H28 H 0.14181 0.11243 0.60302 0.0
N29 N 0.9956 0.09218 0.58817 0.0
C30 C 0.02418 0.11202 0.59273 0.0
C31 C 0.96017 0.14267 0.58635 0.0
C32 C 0.02187 0.14816 0.59346 0.0
C33 C 0.96375 0.10689 0.58566 0.0
C34 C 0.98933 0.16341 0.59012 0.0
N35 N 0.0572 0.061 0.59204 0.0
C36 C 0.08781 0.04406 0.59627 0.0
C37 C 0.08633 0.11554 0.59866 0.0
C38 C 0.05601 0.09593 0.59531 0.0
C39 C 0.1179 0.0983 0.60052 0.0
C40 C 0.11859 0.06241 0.59979 0.0
H41 H 0.98645 0.19111 0.59055 0.0
H42 H 0.05076 0.19567 0.59756 0.0
H43 H 0.10718 0.16711 0.60204 0.0
O44 O 0.02377 0.01909 0.6625 0.0
O45 O 0.0287 0.05769 0.51511 0.0
O46 O 0.05146 0.01294 0.46554 0.0
O47 O 0.97908 0.05134 0.65709 0.0
O48 O 0.03022 0.98353 0.5864 0.0
O49 O 0.0531 0.97665 0.50143 0.0
O50 O 0.99155 0.99866 0.37615 0.0
O51 O 0.98223 0.95616 0.5224 0.0
O52 O 0.96062 1.00041 0.57457 0.0
O53 O 0.03065 0.95979 0.38173 0.0
O54 O 0.98052 0.02976 0.45227 0.0
O55 O 0.95863 0.03759 0.53791 0.0
C56 C 0.05064 0.04562 0.47929 0.0
C57 C 0.98255 0.01281 0.73006 0.0
C58 C 0.97556 0.9975 0.82459 0.0
C59 C 0.95569 0.96899 0.80861 0.0
C60 C 0.96313 0.9841 0.71516 0.0
C61 C 0.94941 0.96252 0.75423 0.0
C62 C 0.9885 0.01962 0.78468 0.0
C63 C 0.05225 0.96916 0.55291 0.0
C64 C 0.99913 0.03416 0.68902 0.0
C65 C 0.05202 0.16785 0.59701 0.0
C66 C 0.08416 0.15158 0.59958 0.0
C67 C 0.96088 0.96798 0.55922 0.0
C68 C 0.03432 0.99845 0.30949 0.0
C69 C 0.04301 0.01555 0.21633 0.0
C70 C 0.07355 0.03222 0.23147 0.0
C71 C 0.06493 0.01498 0.32378 0.0
C72 C 0.02327 0.999 0.25583 0.0
C73 C 0.08431 0.03205 0.28503 0.0
C74 C 0.95891 0.04444 0.48618 0.0
C75 C 0.01389 0.98017 0.34985 0.0
H76 H 0.94583 0.95104 0.8379 0.0
H77 H 0.95928 0.97806 0.67338 0.0
H78 H 0.93456 0.94026 0.74226 0.0
H79 H 1.00365 0.04187 0.79584 0.0
H80 H 0.08905 0.0454 0.20186 0.0
H81 H 0.0739 0.01422 0.36473 0.0
H82 H 0.99982 0.98579 0.24462 0.0
H83 H 0.10788 0.04486 0.29642 0.0
Tb84 Tb 0.22647 0.75612 0.84372 0.0
C85 C 0.35814 0.73573 0.69933 0.0
N86 N 0.34058 0.76548 0.70785 0.0
C87 C 0.3936 0.79642 0.71507 0.0
C88 C 0.39434 0.73506 0.69938 0.0
C89 C 0.35768 0.79573 0.71483 0.0
C90 C 0.41204 0.76592 0.70757 0.0
C91 C 0.35681 0.67428 0.68302 0.0
C92 C 0.33958 0.70577 0.69128 0.0
C93 C 0.3929 0.67339 0.68333 0.0
C94 C 0.41162 0.70371 0.69142 0.0
Tb95 Tb 0.28217 0.76153 0.70595 0.0
N96 N 0.30462 0.70754 0.69264 0.0
C97 C 0.33726 0.64466 0.67445 0.0
C98 C 0.28559 0.67901 0.68109 0.0
C99 C 0.30151 0.64714 0.67285 0.0
H100 H 0.34363 0.81948 0.71851 0.0
H101 H 0.28617 0.62458 0.66444 0.0
H102 H 0.15959 0.70775 0.81026 0.0
H103 H 0.23541 0.88699 0.91948 0.0
H104 H 0.2583 0.68049 0.67644 0.0
H105 H 0.34949 0.61995 0.66792 0.0
H106 H 0.25784 0.83051 0.89492 0.0
H107 H 0.40702 0.82051 0.72059 0.0
H108 H 0.40658 0.64941 0.67717 0.0
H109 H 0.43944 0.70265 0.69144 0.0
H110 H 0.09659 0.71366 0.80768 0.0
H111 H 0.43986 0.76653 0.70776 0.0
H112 H 0.17299 0.89833 0.9156 0.0
N113 N 0.16811 0.75886 0.83755 0.0
C114 C 0.15355 0.78869 0.85488 0.0
C115 C 0.11232 0.73507 0.82059 0.0
C116 C 0.11758 0.79311 0.85463 0.0
C117 C 0.1481 0.73197 0.8212 0.0
C118 C 0.09696 0.7658 0.83725 0.0
N119 N 0.20967 0.81053 0.86858 0.0
C120 C 0.23104 0.83532 0.88859 0.0
C121 C 0.16075 0.84729 0.8865 0.0
C122 C 0.175 0.81551 0.87017 0.0
C123 C 0.1829 0.87356 0.90281 0.0
C124 C 0.21816 0.86735 0.90457 0.0
H125 H 0.06923 0.76818 0.83652 0.0
H126 H 0.07583 0.82866 0.87067 0.0
H127 H 0.11359 0.87603 0.89881 0.0
O128 O 0.24058 0.75748 0.92734 0.0
O129 O 0.20224 0.78271 0.77492 0.0
O130 O 0.24801 0.80425 0.72726 0.0
O131 O 0.20147 0.72307 0.89611 0.0
O132 O 0.27722 0.7816 0.84632 0.0
O133 O 0.28563 0.80523 0.76182 0.0
O134 O 0.26637 0.75231 0.62579 0.0
O135 O 0.30631 0.73636 0.77598 0.0
O136 O 0.26075 0.71356 0.82202 0.0
O137 O 0.30003 0.79415 0.64502 0.0
O138 O 0.2317 0.7361 0.70315 0.0
O139 O 0.22252 0.7127 0.78733 0.0
C140 C 0.21491 0.80276 0.73723 0.0
C141 C 0.21023 0.71951 0.9918 0.0
C142 C 0.21928 0.71547 0.08912 0.0
C143 C 0.19278 0.69099 0.09161 0.0
C144 C 0.18406 0.69476 0.99594 0.0
C145 C 0.17543 0.68076 0.04542 0.0
C146 C 0.22777 0.73005 0.03882 0.0
C147 C 0.2925 0.80364 0.81375 0.0
C148 C 0.21771 0.73412 0.93812 0.0
C149 C 0.1034 0.82475 0.87068 0.0
C150 C 0.12492 0.85176 0.88652 0.0
C151 C 0.29384 0.7156 0.81277 0.0
C152 C 0.30648 0.76892 0.55871 0.0
C153 C 0.31118 0.76208 0.461 0.0
C154 C 0.34691 0.75824 0.46646 0.0
C155 C 0.34228 0.76512 0.56288 0.0
C156 C 0.29098 0.76703 0.50756 0.0
C157 C 0.36225 0.75958 0.51708 0.0
C158 C 0.21597 0.71439 0.73538 0.0
C159 C 0.28532 0.77689 0.60664 0.0
H160 H 0.18513 0.67992 0.12965 0.0
H161 H 0.16991 0.68625 0.96083 0.0
H162 H 0.15507 0.66193 0.04802 0.0
H163 H 0.24799 0.74906 0.03627 0.0
H164 H 0.36299 0.75384 0.43151 0.0
H165 H 0.35504 0.76703 0.60125 0.0
H166 H 0.26341 0.77029 0.50388 0.0
H167 H 0.3898 0.75663 0.52081 0.0
Tb168 Tb 0.50571 0.98113 0.08719 0.0
C169 C 0.54886 0.10478 0.95295 0.0
N170 N 0.51647 0.09332 0.96215 0.0
C171 C 0.49786 0.15067 0.9826 0.0
C172 C 0.55742 0.13962 0.96051 0.0
C173 C 0.49074 0.11573 0.97513 0.0
C174 C 0.53142 0.16263 0.97577 0.0
C175 C 0.60755 0.09184 0.92764 0.0
C176 C 0.5735 0.08112 0.93695 0.0
C177 C 0.61655 0.12637 0.93656 0.0
C178 C 0.59152 0.15023 0.95283 0.0
Tb179 Tb 0.50731 0.03619 0.94866 0.0
N180 N 0.56375 0.04791 0.92878 0.0
C181 C 0.63129 0.06773 0.90832 0.0
C182 C 0.58612 0.02524 0.90526 0.0
C183 C 0.62034 0.03446 0.89613 0.0
H184 H 0.46472 0.10673 0.9796 0.0
H185 H 0.63807 0.01609 0.8786 0.0
H186 H 0.57026 0.92431 0.07931 0.0
H187 H 0.37408 0.9611 0.14499 0.0
H188 H 0.57768 1.0004 0.89158 0.0
H189 H 0.65772 0.07489 0.9007 0.0
H190 H 0.42703 0.99493 0.12955 0.0
H191 H 0.47748 0.16834 0.99354 0.0
H192 H 0.64266 0.13501 0.93004 0.0
H193 H 0.59873 0.17685 0.95894 0.0
H194 H 0.57686 0.86218 0.06299 0.0
H195 H 0.5369 0.18965 0.9819 0.0
H196 H 0.37354 0.8987 0.12465 0.0
N197 N 0.51555 0.92326 0.07672 0.0
C198 C 0.48735 0.90282 0.0785 0.0
C199 C 0.55144 0.87334 0.06633 0.0
C200 C 0.4899 0.86689 0.07203 0.0
C201 C 0.54755 0.90876 0.07429 0.0
C202 C 0.52242 0.85235 0.06414 0.0
N203 N 0.45542 0.95222 0.09946 0.0
C204 C 0.42683 0.96772 0.12058 0.0
C205 C 0.4268 0.89742 0.09939 0.0
C206 C 0.45627 0.91774 0.09161 0.0
C207 C 0.39672 0.91341 0.11792 0.0
C208 C 0.39693 0.94864 0.12946 0.0
H209 H 0.52553 0.82485 0.05895 0.0
H210 H 0.46155 0.81897 0.07084 0.0
H211 H 0.40622 0.84577 0.09505 0.0
O212 O 0.49433 1.00515 0.1608 0.0
O213 O 0.46319 0.97609 0.02845 0.0
O214 O 0.48789 0.98344 0.9454 0.0
O215 O 0.52648 0.96066 0.15906 0.0
O216 O 0.48179 0.03196 0.0858 0.0
O217 O 0.46127 0.04279 0.99976 0.0
O218 O 0.51463 0.04351 0.8654 0.0
O219 O 0.52692 0.05781 0.02481 0.0
O220 O 0.55124 0.01247 0.06967 0.0
O221 O 0.46527 0.05183 0.90156 0.0
O222 O 0.53038 0.98469 0.94756 0.0
O223 O 0.55086 0.97503 0.03374 0.0
C224 C 0.46453 0.96953 0.9765 0.0
C225 C 0.53345 1.00017 0.23173 0.0
C226 C 0.54047 0.01656 0.32626 0.0
C227 C 0.56817 0.03764 0.31168 0.0
C228 C 0.56148 0.02089 0.21825 0.0
C229 C 0.57878 0.0395 0.25804 0.0
C230 C 0.52328 0.99766 0.28597 0.0
C231 C 0.45921 0.04574 0.05279 0.0
C232 C 0.51238 0.98404 0.1894 0.0
C233 C 0.46019 0.84659 0.07622 0.0
C234 C 0.42869 0.86183 0.09009 0.0
C235 C 0.55098 0.04513 0.05612 0.0
C236 C 0.46634 0.02804 0.81306 0.0
C237 C 0.46488 0.00905 0.71843 0.0
C238 C 0.4357 0.98912 0.73061 0.0
C239 C 0.43762 0.00737 0.82371 0.0
C240 C 0.48001 0.02858 0.7604 0.0
C241 C 0.42251 0.98811 0.78274 0.0
C242 C 0.55108 0.9689 0.98143 0.0
C243 C 0.48222 0.04893 0.85655 0.0
H244 H 0.58174 0.05246 0.3419 0.0
H245 H 0.56943 0.02308 0.17687 0.0
H246 H 0.60021 0.05573 0.24717 0.0
H247 H 0.50131 0.982 0.29658 0.0
H248 H 0.42252 0.97456 0.69974 0.0
H249 H 0.42668 1.00608 0.8637 0.0
H250 H 0.50262 0.04394 0.75255 0.0
H251 H 0.40023 0.97247 0.79135 0.0
Tb252 Tb 0.22708 0.25996 0.19999 0.0
C253 C 0.36324 0.27198 0.33765 0.0
N254 N 0.34208 0.24431 0.33443 0.0
C255 C 0.39081 0.20646 0.33397 0.0
C256 C 0.39922 0.26797 0.33832 0.0
C257 C 0.35525 0.21176 0.33341 0.0
C258 C 0.41291 0.23469 0.33621 0.0
C259 C 0.36965 0.33395 0.34254 0.0
C260 C 0.34868 0.30453 0.33978 0.0
C261 C 0.40554 0.33013 0.34305 0.0
C262 C 0.42029 0.29722 0.34097 0.0
Tb263 Tb 0.28474 0.25634 0.33321 0.0
N264 N 0.31386 0.30727 0.33715 0.0
C265 C 0.35386 0.36629 0.34449 0.0
C266 C 0.29831 0.33864 0.34166 0.0
C267 C 0.31804 0.3686 0.34458 0.0
H268 H 0.33834 0.18982 0.33338 0.0
H269 H 0.30559 0.39346 0.34719 0.0
H270 H 0.16842 0.32184 0.21019 0.0
H271 H 0.21622 0.12215 0.17347 0.0
H272 H 0.27082 0.34078 0.34315 0.0
H273 H 0.36905 0.38956 0.34656 0.0
H274 H 0.24691 0.17699 0.1793 0.0
H275 H 0.40113 0.18062 0.33304 0.0
H276 H 0.42211 0.35244 0.34502 0.0
H277 H 0.44801 0.29468 0.34143 0.0
H278 H 0.10525 0.32595 0.21557 0.0
H279 H 0.44043 0.23049 0.33668 0.0
H280 H 0.15279 0.12106 0.17902 0.0
N281 N 0.16898 0.26737 0.20376 0.0
C282 C 0.14996 0.23827 0.19865 0.0
C283 C 0.11752 0.30109 0.21127 0.0
C284 C 0.11379 0.23941 0.20076 0.0
C285 C 0.15334 0.29865 0.20912 0.0
C286 C 0.09764 0.27134 0.20733 0.0
N287 N 0.20194 0.20697 0.19275 0.0
C288 C 0.21954 0.17707 0.18399 0.0
C289 C 0.14818 0.17624 0.18832 0.0
C290 C 0.16694 0.20707 0.19253 0.0
C291 C 0.16624 0.14533 0.18234 0.0
C292 C 0.20205 0.14582 0.17957 0.0
H293 H 0.06989 0.27332 0.20908 0.0
H294 H 0.06717 0.20908 0.19828 0.0
H295 H 0.09728 0.15378 0.18745 0.0
O296 O 0.24343 0.24533 0.1225 0.0
O297 O 0.20554 0.23507 0.27231 0.0
O298 O 0.25096 0.21194 0.31963 0.0
O299 O 0.20579 0.28525 0.13327 0.0
O300 O 0.27737 0.23425 0.1973 0.0
O301 O 0.28771 0.21094 0.28115 0.0
O302 O 0.26893 0.27599 0.408 0.0
O303 O 0.30679 0.28131 0.26133 0.0
O304 O 0.26169 0.30387 0.21238 0.0
O305 O 0.30091 0.23104 0.40369 0.0
O306 O 0.23434 0.28174 0.33428 0.0
O307 O 0.22459 0.30591 0.25112 0.0
C308 C 0.21823 0.21241 0.30615 0.0
C309 C 0.24233 0.28916 0.05779 0.0
C310 C 0.25914 0.29677 0.96378 0.0
C311 C 0.27461 0.32824 0.97807 0.0
C312 C 0.25775 0.32057 0.07096 0.0
C313 C 0.27405 0.33986 0.03133 0.0
C314 C 0.24339 0.27719 1.00447 0.0
C315 C 0.29276 0.21188 0.22877 0.0
C316 C 0.2248 0.2686 0.09892 0.0
C317 C 0.09498 0.20873 0.19663 0.0
C318 C 0.11213 0.17723 0.19045 0.0
C319 C 0.29449 0.30277 0.22526 0.0
C320 C 0.26184 0.23546 0.47625 0.0
C321 C 0.24365 0.23059 0.56988 0.0
C322 C 0.21705 0.20846 0.55358 0.0
C323 C 0.23505 0.21357 0.46098 0.0
C324 C 0.26624 0.24382 0.53085 0.0
C325 C 0.21291 0.19993 0.4994 0.0
C326 C 0.22059 0.3056 0.30376 0.0
C327 C 0.28363 0.25156 0.43517 0.0
H328 H 0.28645 0.34437 0.94801 0.0
H329 H 0.25682 0.33026 0.11169 0.0
H330 H 0.28583 0.36417 0.04177 0.0
H331 H 0.23187 0.25257 0.9949 0.0
H332 H 0.1995 0.1977 0.58279 0.0
H333 H 0.23111 0.20755 0.41927 0.0
H334 H 0.28648 0.2614 0.54268 0.0
H335 H 0.19228 0.18303 0.48709 0.0
Tb336 Tb 0.7296 0.25612 0.33251 0.0
C337 C 0.86233 0.23947 0.1834 0.0
N338 N 0.84297 0.26788 0.19369 0.0
C339 C 0.89376 0.30261 0.19682 0.0
C340 C 0.8984 0.24153 0.17983 0.0
C341 C 0.85804 0.29932 0.1998 0.0
C342 C 0.91405 0.2736 0.18687 0.0
C343 C 0.86511 0.17789 0.16775 0.0
C344 C 0.84588 0.20803 0.17755 0.0
C345 C 0.90104 0.17988 0.16361 0.0
C346 C 0.91764 0.21159 0.16971 0.0
Tb347 Tb 0.78513 0.25907 0.19586 0.0
N348 N 0.81118 0.20683 0.18437 0.0
C349 C 0.84769 0.1466 0.16331 0.0
C350 C 0.794 0.17652 0.17807 0.0
C351 C 0.81198 0.14597 0.16819 0.0
H352 H 0.84251 0.32207 0.20525 0.0
H353 H 0.79822 0.12197 0.16388 0.0
H354 H 0.65955 0.21269 0.30033 0.0
H355 H 0.7476 0.38714 0.40322 0.0
H356 H 0.7665 0.17555 0.17977 0.0
H357 H 0.86153 0.12285 0.15586 0.0
H358 H 0.76443 0.32714 0.38858 0.0
H359 H 0.9056 0.32758 0.20163 0.0
H360 H 0.91626 0.15698 0.15617 0.0
H361 H 0.94539 0.21266 0.16679 0.0
H362 H 0.59774 0.22482 0.28802 0.0
H363 H 0.94171 0.27625 0.18446 0.0
H364 H 0.68811 0.40578 0.38398 0.0
N365 N 0.67196 0.26419 0.32152 0.0
C366 C 0.65996 0.29642 0.33159 0.0
C367 C 0.615 0.24522 0.30001 0.0
C368 C 0.62494 0.30456 0.32486 0.0
C369 C 0.65005 0.23848 0.30667 0.0
C370 C 0.6024 0.27844 0.30888 0.0
N371 N 0.717 0.31253 0.35233 0.0
C372 C 0.73935 0.33519 0.37565 0.0
C373 C 0.67198 0.35536 0.35695 0.0
C374 C 0.68335 0.32152 0.34661 0.0
C375 C 0.69578 0.37952 0.3755 0.0
C376 C 0.72945 0.36917 0.38597 0.0
H377 H 0.57528 0.28363 0.30333 0.0
H378 H 0.58691 0.34527 0.32847 0.0
H379 H 0.62802 0.38971 0.3571 0.0
O380 O 0.7421 0.2591 0.41632 0.0
O381 O 0.70714 0.2781 0.25865 0.0
O382 O 0.7523 0.30347 0.21502 0.0
O383 O 0.70229 0.22515 0.38587 0.0
O384 O 0.78148 0.27887 0.33415 0.0
O385 O 0.78895 0.30336 0.25049 0.0
O386 O 0.76368 0.24768 0.12002 0.0
O387 O 0.80857 0.23107 0.26399 0.0
O388 O 0.76361 0.21236 0.31679 0.0
O389 O 0.80498 0.28378 0.12756 0.0
O390 O 0.73562 0.23178 0.19466 0.0
O391 O 0.72446 0.21088 0.28017 0.0
C392 C 0.71938 0.3018 0.22646 0.0
C393 C 0.71197 0.22212 0.48173 0.0
C394 C 0.71902 0.22259 0.57966 0.0
C395 C 0.70043 0.19172 0.58232 0.0
C396 C 0.69331 0.19135 0.48593 0.0
C397 C 0.6876 0.17636 0.53584 0.0
C398 C 0.72461 0.23795 0.52902 0.0
C399 C 0.79653 0.30118 0.30204 0.0
C400 C 0.71913 0.23599 0.42752 0.0
C401 C 0.6137 0.33844 0.33369 0.0
C402 C 0.63715 0.36378 0.34973 0.0
C403 C 0.7963 0.21227 0.30361 0.0
C404 C 0.76662 0.29169 0.0552 0.0
C405 C 0.7494 0.3029 0.96215 0.0
C406 C 0.73549 0.33462 0.97909 0.0
C407 C 0.75296 0.32352 0.0708 0.0
C408 C 0.76481 0.28143 1.00092 0.0
C409 C 0.73724 0.34474 0.03301 0.0
C410 C 0.71961 0.21072 0.22767 0.0
C411 C 0.78342 0.26922 0.09481 0.0
H412 H 0.69538 0.17964 0.62067 0.0
H413 H 0.68343 0.1785 0.45043 0.0
H414 H 0.67325 0.15263 0.53849 0.0
H415 H 0.73909 0.26164 0.52644 0.0
H416 H 0.72385 0.35201 0.9505 0.0
H417 H 0.75494 0.33203 0.11207 0.0
H418 H 0.77528 0.25668 0.98908 0.0
H419 H 0.72674 0.36932 0.04541 0.0
Tb420 Tb 0.72951 0.75513 0.70035 0.0
C421 C 0.86077 0.77812 0.8312 0.0
N422 N 0.84134 0.74917 0.82923 0.0
C423 C 0.89243 0.71506 0.81845 0.0
C424 C 0.89671 0.77684 0.8244 0.0
C425 C 0.85696 0.7177 0.82665 0.0
C426 C 0.91234 0.74482 0.81623 0.0
C427 C 0.86416 0.83895 0.85208 0.0
C428 C 0.84487 0.80872 0.84468 0.0
C429 C 0.89972 0.83828 0.84248 0.0
C430 C 0.91596 0.80728 0.82849 0.0
Tb431 Tb 0.78328 0.75712 0.84008 0.0
N432 N 0.8104 0.80845 0.85272 0.0
C433 C 0.84722 0.8686 0.87036 0.0
C434 C 0.79405 0.83661 0.87378 0.0
C435 C 0.81211 0.86725 0.88212 0.0
H436 H 0.8423 0.69448 0.83194 0.0
H437 H 0.79895 0.88977 0.89753 0.0
H438 H 0.65783 0.79606 0.72945 0.0
H439 H 0.75232 0.62644 0.62236 0.0
H440 H 0.76697 0.83548 0.8831 0.0
H441 H 0.86114 0.89236 0.87674 0.0
H442 H 0.76668 0.68687 0.63947 0.0
H443 H 0.90447 0.69004 0.81501 0.0
H444 H 0.915 0.86135 0.84719 0.0
H445 H 0.94357 0.80688 0.82285 0.0
H446 H 0.5963 0.7821 0.74032 0.0
H447 H 0.93989 0.74269 0.8108 0.0
H448 H 0.69384 0.60514 0.64199 0.0
N449 N 0.67237 0.74474 0.7108 0.0
C450 C 0.6616 0.71229 0.69991 0.0
C451 C 0.61446 0.76214 0.72941 0.0
C452 C 0.62683 0.70305 0.70556 0.0
C453 C 0.64934 0.76994 0.72368 0.0
C454 C 0.60318 0.72846 0.72086 0.0
N455 N 0.71881 0.69897 0.67661 0.0
C456 C 0.74199 0.67758 0.65211 0.0
C457 C 0.67579 0.65436 0.67172 0.0
C458 C 0.68581 0.68839 0.68345 0.0
C459 C 0.70044 0.63152 0.65149 0.0
C460 C 0.73352 0.6434 0.64065 0.0
H461 H 0.57619 0.72245 0.72557 0.0
H462 H 0.59035 0.66116 0.70039 0.0
H463 H 0.63324 0.61847 0.67065 0.0
O464 O 0.72361 0.74942 0.61598 0.0
O465 O 0.7071 0.73481 0.77524 0.0
O466 O 0.75229 0.71123 0.82184 0.0
O467 O 0.71561 0.79891 0.65543 0.0
O468 O 0.78102 0.73181 0.7013 0.0
O469 O 0.79026 0.71149 0.78762 0.0
O470 O 0.75796 0.76525 0.91389 0.0
O471 O 0.7876 0.79985 0.78151 0.0
O472 O 0.78246 0.77382 0.6992 0.0
O473 O 0.80607 0.73885 0.91157 0.0
O474 O 0.73221 0.78029 0.8389 0.0
O475 O 0.7211 0.8006 0.75287 0.0
C476 C 0.71969 0.71117 0.80747 0.0
C477 C 0.70822 0.79757 0.55764 0.0
C478 C 0.71228 0.79875 0.45899 0.0
C479 C 0.69519 0.83065 0.45953 0.0
C480 C 0.69135 0.82948 0.55655 0.0
C481 C 0.68476 0.84574 0.50783 0.0
C482 C 0.71833 0.78199 0.5085 0.0
C483 C 0.79613 0.71066 0.73528 0.0
C484 C 0.71617 0.78174 0.61033 0.0
C485 C 0.6169 0.66891 0.69575 0.0
C486 C 0.64136 0.64458 0.679 0.0
C487 C 0.79542 0.79794 0.73009 0.0
C488 C 0.76806 0.72554 0.98312 0.0
C489 C 0.7513 0.71455 0.07671 0.0
C490 C 0.74134 0.68115 0.06121 0.0
C491 C 0.75808 0.69216 0.96898 0.0
C492 C 0.76468 0.73665 0.03694 0.0
C493 C 0.7447 0.67015 1.00783 0.0
C494 C 0.71791 0.8025 0.80594 0.0
C495 C 0.78107 0.74945 0.94206 0.0
H496 H 0.68957 0.8439 0.42234 0.0
H497 H 0.68324 0.84196 0.5935 0.0
H498 H 0.6716 0.87028 0.5075 0.0
H499 H 0.73171 0.75754 0.50884 0.0
H500 H 0.73137 0.66324 0.0905 0.0
H501 H 0.7607 0.68321 0.92794 0.0
H502 H 0.77195 0.76269 0.04753 0.0
H503 H 0.73701 0.64438 0.99658 0.0
Tb504 Tb 0.50944 0.53547 0.09044 0.0
C505 C 0.48361 0.40507 0.95916 0.0
N506 N 0.51266 0.42435 0.95992 0.0
C507 C 0.54664 0.37305 0.96862 0.0
C508 C 0.48479 0.36911 0.96558 0.0
C509 C 0.54408 0.40856 0.96089 0.0
C510 C 0.51682 0.3533 0.97207 0.0
C511 C 0.42249 0.40202 0.94103 0.0
C512 C 0.45291 0.42115 0.94722 0.0
C513 C 0.4231 0.36645 0.95037 0.0
C514 C 0.45421 0.35003 0.96278 0.0
Tb515 Tb 0.50478 0.48252 0.95047 0.0
N516 N 0.45328 0.4556 0.93927 0.0
C517 C 0.39271 0.41912 0.92412 0.0
C518 C 0.42498 0.47209 0.91942 0.0
C519 C 0.39413 0.45421 0.91237 0.0
H520 H 0.56734 0.42313 0.95509 0.0
H521 H 0.37149 0.46748 0.89798 0.0
H522 H 0.4679 0.60757 0.06633 0.0
H523 H 0.64097 0.51141 0.15364 0.0
H524 H 0.42615 0.49919 0.91022 0.0
H525 H 0.3688 0.40533 0.91874 0.0
H526 H 0.58004 0.4973 0.14303 0.0
H527 H 0.57162 0.36088 0.97089 0.0
H528 H 0.3999 0.35129 0.94658 0.0
H529 H 0.45454 0.32242 0.96818 0.0
H530 H 0.48192 0.66901 0.055 0.0
H531 H 0.51889 0.32573 0.97717 0.0
H532 H 0.66163 0.56996 0.13317 0.0
N533 N 0.51969 0.59258 0.07983 0.0
C534 C 0.55255 0.60309 0.08785 0.0
C535 C 0.50209 0.65068 0.06374 0.0
C536 C 0.5618 0.63784 0.08181 0.0
C537 C 0.49425 0.61582 0.06968 0.0
C538 C 0.53607 0.6617 0.06929 0.0
N539 N 0.56652 0.54554 0.10842 0.0
C540 C 0.58877 0.5221 0.12995 0.0
C541 C 0.61139 0.58841 0.10949 0.0
C542 C 0.57692 0.57861 0.10132 0.0
C543 C 0.63489 0.56352 0.1265 0.0
C544 C 0.62337 0.5304 0.13778 0.0
H545 H 0.54209 0.68867 0.06437 0.0
H546 H 0.60402 0.67404 0.08323 0.0
H547 H 0.64748 0.63078 0.10754 0.0
O548 O 0.51855 0.54362 0.1731 0.0
O549 O 0.52805 0.55766 1.01425 0.0
O550 O 0.55139 0.51236 0.96765 0.0
O551 O 0.46795 0.54942 0.14049 0.0
O552 O 0.5317 0.48342 0.08872 0.0
O553 O 0.55079 0.47472 1.00145 0.0
O554 O 0.49794 0.50948 0.87807 0.0
O555 O 0.4627 0.47923 1.01026 0.0
O556 O 0.48905 0.48301 0.09228 0.0
O557 O 0.52027 0.45929 0.87744 0.0
O558 O 0.48049 0.53332 0.95324 0.0
O559 O 0.46299 0.54509 0.04112 0.0
C560 C 0.55163 0.545 0.98176 0.0
C561 C 0.47297 0.52519 0.22789 0.0
C562 C 0.47542 0.50549 0.32137 0.0
C563 C 0.45192 0.47937 0.30844 0.0
C564 C 0.44914 0.49907 0.21642 0.0
C565 C 0.43873 0.4764 0.25648 0.0
C566 C 0.48572 0.52858 0.28084 0.0
C567 C 0.55161 0.46764 0.05334 0.0
C568 C 0.4862 0.54742 0.1843 0.0
C569 C 0.59629 0.64752 0.08825 0.0
C570 C 0.62106 0.62284 0.1019 0.0
C571 C 0.46517 0.4701 0.06092 0.0
C572 C 0.53592 0.49686 0.80703 0.0
C573 C 0.54869 0.50895 0.7125 0.0
C574 C 0.5821 0.51875 0.72769 0.0
C575 C 0.56935 0.50657 0.82108 0.0
C576 C 0.52556 0.49829 0.75279 0.0
C577 C 0.59224 0.51768 0.78159 0.0
C578 C 0.46014 0.54887 0.98828 0.0
C579 C 0.51142 0.48548 0.8484 0.0
H580 H 0.44347 0.46139 0.33881 0.0
H581 H 0.43878 0.49591 0.17633 0.0
H582 H 0.42049 0.45628 0.24712 0.0
H583 H 0.50428 0.54848 0.29009 0.0
H584 H 0.60035 0.52748 0.69786 0.0
H585 H 0.57769 0.50543 0.86249 0.0
H586 H 0.49975 0.49051 0.7419 0.0
H587 H 0.61798 0.52535 0.79278 0.0
Tb588 Tb 0.00817 0.47747 0.58641 0.0
C589 C 0.02176 0.61341 0.44871 0.0
N590 N 0.99381 0.59268 0.45238 0.0
C591 C 0.95674 0.64202 0.45305 0.0
C592 C 0.0183 0.64946 0.44806 0.0
C593 C 0.9615 0.60638 0.45354 0.0
C594 C 0.98526 0.66368 0.4506 0.0
C595 C 0.08372 0.61885 0.44254 0.0
C596 C 0.05403 0.59833 0.44592 0.0
C597 C 0.08045 0.65481 0.44216 0.0
C598 C 0.04782 0.67008 0.44489 0.0
Tb599 Tb 1.00494 0.5351 0.45355 0.0
N600 N 0.05625 0.56346 0.44847 0.0
C601 C 0.11577 0.60257 0.43988 0.0
C602 C 0.08732 0.54744 0.44319 0.0
C603 C 0.11753 0.56671 0.43967 0.0
H604 H 0.93936 0.58979 0.45312 0.0
H605 H 0.14215 0.55388 0.43646 0.0
H606 H 0.07326 0.4222 0.58748 0.0
H607 H 0.87049 0.4599 0.5967 0.0
H608 H 0.08908 0.51993 0.44143 0.0
H609 H 0.13923 0.6174 0.43732 0.0
H610 H 0.92397 0.4934 0.59526 0.0
H611 H 0.93106 0.65274 0.45404 0.0
H612 H 0.10298 0.67103 0.43975 0.0
H613 H 0.04569 0.69785 0.44447 0.0
H614 H 0.08092 0.35919 0.5853 0.0
H615 H 0.98149 0.69128 0.45013 0.0
H616 H 0.87284 0.39637 0.59401 0.0
N617 N 0.01875 0.41983 0.58646 0.0
C618 C 0.99054 0.39935 0.58834 0.0
C619 C 0.05534 0.37016 0.58573 0.0
C620 C 0.99364 0.36326 0.58795 0.0
C621 C 0.05094 0.40585 0.58615 0.0
C622 C 0.02657 0.34875 0.58635 0.0
N623 N 0.95649 0.44963 0.58863 0.0
C624 C 0.92548 0.46589 0.59281 0.0
C625 C 0.92842 0.39445 0.59139 0.0
C626 C 0.95835 0.41471 0.59011 0.0
C627 C 0.89648 0.411 0.59305 0.0
C628 C 0.89505 0.44687 0.5943 0.0
H629 H 0.03007 0.32111 0.58604 0.0
H630 H 0.96572 0.31511 0.58866 0.0
H631 H 0.90863 0.34242 0.59157 0.0
O632 O 0.98763 0.49121 0.66145 0.0
O633 O 0.98454 0.45575 0.51288 0.0
O634 O 0.9608 0.50131 0.46708 0.0
O635 O 0.03408 0.46149 0.65656 0.0
O636 O 0.98377 0.52834 0.58827 0.0
O637 O 0.95936 0.53845 0.5053 0.0
O638 O 0.02194 0.51621 0.37876 0.0
O639 O 0.03068 0.5569 0.52494 0.0
O640 O 0.05233 0.51179 0.57493 0.0
O641 O 0.98103 0.5533 0.38335 0.0
O642 O 0.03168 0.48525 0.45211 0.0
O643 O 0.05432 0.47413 0.53633 0.0
C644 C 0.9624 0.46833 0.47805 0.0
C645 C 0.02801 0.50034 0.72932 0.0
C646 C 0.03372 0.5178 0.82318 0.0
C647 C 0.05208 0.54702 0.80678 0.0
C648 C 0.04577 0.52993 0.71386 0.0
C649 C 0.05816 0.55292 0.75235 0.0
C650 C 0.02213 0.49419 0.78413 0.0
C651 C 0.96024 0.54283 0.55794 0.0
C652 C 0.01286 0.47764 0.68832 0.0
C653 C 0.96387 0.3429 0.58907 0.0
C654 C 0.93135 0.35845 0.59076 0.0
C655 C 0.05215 0.54438 0.56082 0.0
C656 C 0.98015 0.51402 0.31082 0.0
C657 C 0.97432 0.49542 0.21726 0.0
C658 C 0.94437 0.47733 0.23145 0.0
C659 C 0.95013 0.49622 0.32386 0.0
C660 C 0.99236 0.51331 0.25777 0.0
C661 C 0.93252 0.47765 0.28449 0.0
C662 C 0.0545 0.47045 0.48358 0.0
C663 C 0.99908 0.5335 0.35191 0.0
H664 H 0.06149 0.56541 0.8361 0.0
H665 H 0.04927 0.53556 0.67201 0.0
H666 H 0.07193 0.57568 0.7399 0.0
H667 H 0.00741 0.47189 0.79616 0.0
H668 H 0.9295 0.4637 0.20141 0.0
H669 H 0.94024 0.49713 0.36431 0.0
H670 H 0.01588 0.52683 0.24822 0.0
H671 H 0.90929 0.46395 0.29489 0.0
H672 H 0.11319 0.03026 0.43387 0.0
H673 H 0.04689 0.11574 0.47347 0.0
H674 H 0.15322 0.06931 0.3903 0.0
H675 H 0.08803 0.15519 0.43378 0.0
H676 H 0.14802 0.21526 0.31086 0.0
H677 H 0.10872 0.17458 0.35141 0.0
H678 H 0.19484 0.11193 0.40088 0.0
H679 H 0.23402 0.15165 0.35668 0.0
C680 C 0.10714 0.05744 0.43326 0.0
C681 C 0.07632 0.06968 0.4559 0.0
C682 C 0.13044 0.08002 0.40897 0.0
C683 C 0.12396 0.11566 0.40765 0.0
C684 C 0.09368 0.12795 0.43237 0.0
C685 C 0.07016 0.10529 0.45587 0.0
C686 C 0.15862 0.19253 0.32956 0.0
C687 C 0.19431 0.18682 0.3303 0.0
C688 C 0.136 0.16933 0.35377 0.0
C689 C 0.14833 0.13988 0.38032 0.0
C690 C 0.18409 0.13397 0.38047 0.0
C691 C 0.20671 0.15696 0.35543 0.0
H692 H 0.03666 0.91653 0.61904 0.0
H693 H 0.12136 0.963 0.5352 0.0
H694 H 0.07528 0.8745 0.65824 0.0
H695 H 0.16114 0.92292 0.57801 0.0
H696 H 0.22471 0.83259 0.63862 0.0
H697 H 0.18563 0.87021 0.58964 0.0
H698 H 0.11416 0.86605 0.72284 0.0
H699 H 0.15157 0.82661 0.76807 0.0
C700 C 0.06381 0.91788 0.60961 0.0
C701 C 0.07613 0.94307 0.57452 0.0
C702 C 0.08623 0.89398 0.63258 0.0
C703 C 0.12193 0.89535 0.62277 0.0
C704 C 0.13402 0.92042 0.58653 0.0
C705 C 0.11128 0.94367 0.56212 0.0
C706 C 0.2005 0.83967 0.65714 0.0
C707 C 0.19144 0.82646 0.70776 0.0
C708 C 0.17803 0.86155 0.62915 0.0
C709 C 0.14617 0.87149 0.65159 0.0
C710 C 0.13766 0.85854 0.7027 0.0
C711 C 0.1596 0.836 0.72962 0.0
H712 H 0.32402 0.80081 0.9122 0.0
H713 H 0.31733 0.86326 0.7694 0.0
H714 H 0.36512 0.84144 0.95095 0.0
H715 H 0.35987 0.90273 0.80721 0.0
H716 H 0.46788 0.93738 0.87816 0.0
H717 H 0.42605 0.89796 0.83803 0.0
H718 H 0.36183 0.90818 0.9786 0.0
H719 H 0.40232 0.94941 1.01687 0.0
C720 C 0.33144 0.82301 0.88884 0.0
C721 C 0.31769 0.82836 0.83718 0.0
C722 C 0.355 0.84624 0.9111 0.0
C723 C 0.36587 0.87506 0.88188 0.0
C724 C 0.35228 0.88046 0.83029 0.0
C725 C 0.32807 0.85769 0.80856 0.0
C726 C 0.44477 0.93139 0.90047 0.0
C727 C 0.43897 0.94585 0.95173 0.0
C728 C 0.42086 0.90879 0.87743 0.0
C729 C 0.39094 0.89964 0.90555 0.0
C730 C 0.38499 0.91426 0.95646 0.0
C731 C 0.40842 0.93755 0.97876 0.0
H732 H 0.40498 0.07894 1.00363 0.0
H733 H 0.45413 0.06528 0.158 0.0
H734 H 0.36328 0.11794 0.04561 0.0
H735 H 0.41317 0.10413 0.19912 0.0
H736 H 0.32279 0.21636 0.13 0.0
H737 H 0.36106 0.17523 0.08638 0.0
H738 H 0.35333 0.10859 0.22426 0.0
H739 H 0.31499 0.14987 0.26803 0.0
C740 C 0.40696 0.08419 0.04633 0.0
C741 C 0.43303 0.06891 0.07721 0.0
C742 C 0.38314 0.10663 0.07038 0.0
C743 C 0.38481 0.1141 0.12584 0.0
C744 C 0.4107 0.09855 0.15658 0.0
C745 C 0.4344 0.07631 0.13268 0.0
C746 C 0.32917 0.19289 0.15105 0.0
C747 C 0.31621 0.18663 0.20293 0.0
C748 C 0.35097 0.1692 0.12581 0.0
C749 C 0.36034 0.1386 0.15175 0.0
C750 C 0.34707 0.13216 0.20344 0.0
C751 C 0.3252 0.15588 0.22869 0.0
H752 H 0.96493 0.89783 0.56197 0.0
H753 H 0.90034 0.98247 0.61194 0.0
H754 H 0.92542 0.85754 0.60341 0.0
H755 H 0.86037 0.94204 0.65317 0.0
H756 H 0.81227 0.86272 0.76615 0.0
H757 H 0.85259 0.90333 0.72637 0.0
H758 H 0.87053 0.83227 0.59515 0.0
H759 H 0.83197 0.7911 0.63685 0.0
C760 C 0.94205 0.90787 0.5813 0.0
C761 C 0.93587 0.94348 0.58344 0.0
C762 C 0.91925 0.88466 0.60514 0.0
C763 C 0.88946 0.8963 0.63188 0.0
C764 C 0.88319 0.93199 0.63374 0.0
C765 C 0.90603 0.95523 0.60974 0.0
C766 C 0.82545 0.8555 0.72954 0.0
C767 C 0.8194 0.82329 0.70555 0.0
C768 C 0.84816 0.87907 0.70604 0.0
C769 C 0.86513 0.87126 0.65735 0.0
C770 C 0.8586 0.83914 0.63306 0.0
C771 C 0.83613 0.81555 0.65679 0.0
H772 H 0.9752 0.10041 0.42759 0.0
H773 H 0.8891 0.04725 0.49669 0.0
H774 H 0.93672 0.1427 0.38874 0.0
H775 H 0.84967 0.08736 0.45361 0.0
H776 H 0.78381 0.17555 0.39566 0.0
H777 H 0.82273 0.13792 0.44402 0.0
H778 H 0.90074 0.15566 0.32313 0.0
H779 H 0.86339 0.19617 0.27967 0.0
C780 C 0.94778 0.09767 0.43378 0.0
C781 C 0.93503 0.07059 0.46477 0.0
C782 C 0.92543 0.12172 0.41087 0.0
C783 C 0.88945 0.11861 0.41645 0.0
C784 C 0.87693 0.09143 0.44847 0.0
C785 C 0.8995 0.06809 0.47303 0.0
C786 C 0.80937 0.17145 0.37956 0.0
C787 C 0.81997 0.18843 0.33257 0.0
C788 C 0.83182 0.14944 0.4072 0.0
C789 C 0.86538 0.14297 0.38799 0.0
C790 C 0.87569 0.16001 0.34072 0.0
C791 C 0.8537 0.1829 0.3144 0.0
H792 H 0.68632 0.21594 0.13163 0.0
H793 H 0.69674 0.14953 0.26933 0.0
H794 H 0.64588 0.17562 0.09108 0.0
H795 H 0.65626 0.10887 0.22818 0.0
H796 H 0.61399 0.02984 0.09939 0.0
H797 H 0.65443 0.06934 0.14305 0.0
H798 H 0.58531 0.1539 0.11277 0.0
H799 H 0.5443 0.11437 0.07178 0.0
C800 C 0.6801 0.19265 0.15321 0.0
C801 C 0.69486 0.18593 0.20372 0.0
C802 C 0.65675 0.16966 0.13005 0.0
C803 C 0.64793 0.13906 0.15638 0.0
C804 C 0.6628 0.13213 0.20676 0.0
C805 C 0.6858 0.15548 0.23042 0.0
C806 C 0.60736 0.05684 0.10238 0.0
C807 C 0.576 0.06897 0.08168 0.0
C808 C 0.63048 0.07941 0.12745 0.0
C809 C 0.62309 0.11474 0.13123 0.0
C810 C 0.5919 0.12689 0.11004 0.0
C811 C 0.56851 0.10424 0.08615 0.0
H812 H 0.68098 0.85446 0.75685 0.0
H813 H 0.70179 0.80964 0.91229 0.0
H814 H 0.64143 0.89532 0.79976 0.0
H815 H 0.6627 0.85 0.95434 0.0
H816 H 0.61469 0.94986 0.01943 0.0
H817 H 0.65616 0.91121 0.97606 0.0
H818 H 0.58498 0.89416 0.84547 0.0
H819 H 0.54368 0.93237 0.88882 0.0
C820 C 0.67721 0.85324 0.79994 0.0
C821 C 0.69455 0.82848 0.83078 0.0
C822 C 0.65449 0.8766 0.82456 0.0
C823 C 0.64892 0.87594 0.88058 0.0
C824 C 0.66669 0.85159 0.91131 0.0
C825 C 0.68906 0.82821 0.88684 0.0
C826 C 0.60778 0.93744 0.9819 0.0
C827 C 0.57584 0.94399 0.95782 0.0
C828 C 0.63156 0.91545 0.95685 0.0
C829 C 0.62398 0.89977 0.90701 0.0
C830 C 0.59193 0.90626 0.88325 0.0
C831 C 0.56816 0.92798 0.90838 0.0
H832 H 0.54674 0.6147 0.97129 0.0
H833 H 0.61346 0.52919 0.93413 0.0
H834 H 0.58813 0.65408 0.93306 0.0
H835 H 0.65363 0.56818 0.89048 0.0
H836 H 0.73493 0.64971 0.85629 0.0
H837 H 0.69546 0.61007 0.9001 0.0
H838 H 0.61013 0.6752 0.8549 0.0
H839 H 0.64991 0.71611 0.81664 0.0
C840 C 0.57032 0.60425 0.95487 0.0
C841 C 0.57681 0.56874 0.95636 0.0
C842 C 0.59394 0.62688 0.93174 0.0
C843 C 0.6245 0.61466 0.9078 0.0
C844 C 0.63083 0.57894 0.90897 0.0
C845 C 0.60746 0.55638 0.93333 0.0
C846 C 0.70777 0.65576 0.85656 0.0
C847 C 0.69569 0.68618 0.83277 0.0
C848 C 0.68493 0.63269 0.881 0.0
C849 C 0.64922 0.63907 0.88148 0.0
C850 C 0.63729 0.66936 0.85676 0.0
C851 C 0.66018 0.69269 0.83356 0.0
H852 H 0.73225 0.36598 0.18588 0.0
H853 H 0.65099 0.29206 0.20737 0.0
H854 H 0.69207 0.40449 0.14007 0.0
H855 H 0.61071 0.33081 0.16318 0.0
H856 H 0.54248 0.42668 0.14011 0.0
H857 H 0.58302 0.38664 0.18046 0.0
H858 H 0.6567 0.40923 0.05578 0.0
H859 H 0.61586 0.44988 1.01545 0.0
C860 C 0.70588 0.35784 0.18051 0.0
C861 C 0.69495 0.32579 0.19988 0.0
C862 C 0.68285 0.37991 0.15425 0.0
C863 C 0.64814 0.37073 0.14764 0.0
C864 C 0.63716 0.33885 0.1678 0.0
C865 C 0.66027 0.31665 0.19334 0.0
C866 C 0.56725 0.42299 0.12103 0.0
C867 C 0.57591 0.44141 0.07446 0.0
C868 C 0.59045 0.39986 0.14406 0.0
C869 C 0.62318 0.39467 0.12148 0.0
C870 C 0.63181 0.41284 0.07448 0.0
C871 C 0.60834 0.43585 0.05105 0.0
H872 H 0.89889 0.48247 0.43493 0.0
H873 H 0.96953 0.39905 0.4648 0.0
H874 H 0.85938 0.44235 0.39099 0.0
H875 H 0.92997 0.35899 0.42188 0.0
H876 H 0.83466 0.2923 0.39283 0.0
H877 H 0.87384 0.33283 0.43571 0.0
H878 H 0.85455 0.40599 0.3092 0.0
H879 H 0.8146 0.36554 0.26684 0.0
C880 C 0.9061 0.45563 0.43178 0.0
C881 C 0.93766 0.44412 0.45254 0.0
C882 C 0.88346 0.43263 0.4066 0.0
C883 C 0.89153 0.39742 0.4025 0.0
C884 C 0.92276 0.38585 0.4245 0.0
C885 C 0.94551 0.40888 0.44908 0.0
C886 C 0.83882 0.317 0.37403 0.0
C887 C 0.82167 0.32556 0.32616 0.0
C888 C 0.86146 0.34019 0.3985 0.0
C889 C 0.86745 0.37272 0.37595 0.0
C890 C 0.85031 0.3813 0.32796 0.0
C891 C 0.82773 0.35797 0.30331 0.0
H892 H 0.81741 0.64853 0.77667 0.0
H893 H 0.83107 0.71607 0.64102 0.0
H894 H 0.85689 0.60693 0.73491 0.0
H895 H 0.86915 0.67413 0.59883 0.0
H896 H 0.96182 0.56633 0.6617 0.0
H897 H 0.92187 0.60548 0.70626 0.0
H898 H 0.86186 0.61173 0.56085 0.0
H899 H 0.90088 0.57113 0.51663 0.0
C900 C 0.82902 0.65465 0.73833 0.0
C901 C 0.82115 0.68567 0.71233 0.0
C902 C 0.85142 0.63077 0.7143 0.0
C903 C 0.86576 0.63719 0.66337 0.0
C904 C 0.85807 0.66827 0.63768 0.0
C905 C 0.83632 0.69232 0.66204 0.0
C906 C 0.94001 0.57578 0.63907 0.0
C907 C 0.93514 0.56616 0.58486 0.0
C908 C 0.91709 0.59817 0.66484 0.0
C909 C 0.88896 0.61185 0.63692 0.0
C910 C 0.88368 0.60193 0.58308 0.0
C911 C 0.90625 0.57895 0.55756 0.0
H912 H 0.28075 0.36612 0.18117 0.0
H913 H 0.36398 0.29608 0.21498 0.0
H914 H 0.32142 0.40637 0.1412 0.0
H915 H 0.40457 0.336 0.17517 0.0
H916 H 0.47364 0.42856 0.14816 0.0
H917 H 0.4323 0.38933 0.18822 0.0
H918 H 0.35818 0.41641 0.06612 0.0
H919 H 0.39906 0.4572 0.02833 0.0
C920 C 0.30765 0.35908 0.17939 0.0
C921 C 0.31894 0.32761 0.20062 0.0
C922 C 0.33108 0.38221 0.15651 0.0
C923 C 0.3665 0.37461 0.15459 0.0
C924 C 0.37769 0.34317 0.17635 0.0
C925 C 0.3543 0.32009 0.19906 0.0
C926 C 0.4485 0.42616 0.12989 0.0
C927 C 0.4399 0.44566 0.08437 0.0
C928 C 0.42479 0.40338 0.15262 0.0
C929 C 0.39174 0.39927 0.13039 0.0
C930 C 0.38316 0.41894 0.08486 0.0
C931 C 0.40684 0.44195 0.06245 0.0
H932 H 0.45715 0.57291 0.88563 0.0
H933 H 0.40562 0.58153 0.03915 0.0
H934 H 0.41682 0.61309 0.84679 0.0
H935 H 0.36495 0.62268 0.99963 0.0
H936 H 0.27803 0.66507 0.88571 0.0
H937 H 0.31749 0.6258 0.93128 0.0
H938 H 0.40324 0.67424 0.85207 0.0
H939 H 0.36415 0.71348 0.8072 0.0
C940 C 0.43722 0.58337 0.91138 0.0
C941 C 0.43482 0.57382 0.96583 0.0
C942 C 0.41415 0.60676 0.88896 0.0
C943 C 0.38774 0.62141 0.92005 0.0
C944 C 0.38493 0.61175 0.97445 0.0
C945 C 0.40833 0.58832 0.99718 0.0
C946 C 0.30532 0.66738 0.87801 0.0
C947 C 0.31775 0.69209 0.84169 0.0
C948 C 0.32795 0.64497 0.90449 0.0
C949 C 0.36355 0.64659 0.89505 0.0
C950 C 0.37595 0.67178 0.85961 0.0
C951 C 0.35343 0.6943 0.8336 0.0
H952 H 0.18523 0.71779 0.63686 0.0
H953 H 0.19326 0.65298 0.77679 0.0
H954 H 0.14712 0.67613 0.59457 0.0
H955 H 0.15434 0.61148 0.73475 0.0
H956 H 0.11122 0.5293 0.61705 0.0
H957 H 0.15102 0.5697 0.65979 0.0
H958 H 0.089 0.6546 0.60445 0.0
H959 H 0.04929 0.61453 0.56261 0.0
C960 C 0.17878 0.69468 0.65875 0.0
C961 C 0.19219 0.68891 0.71045 0.0
C962 C 0.15671 0.67085 0.63457 0.0
C963 C 0.14748 0.64044 0.66125 0.0
C964 C 0.16112 0.63446 0.71281 0.0
C965 C 0.18319 0.65841 0.73713 0.0
C966 C 0.10615 0.5566 0.61398 0.0
C967 C 0.07714 0.56858 0.58594 0.0
C968 C 0.12887 0.57976 0.63872 0.0
C969 C 0.12334 0.61548 0.63548 0.0
C970 C 0.09443 0.62735 0.60715 0.0
C971 C 0.07162 0.60427 0.58298 0.0
H972 H 0.19528 0.36603 0.26226 0.0
H973 H 0.19488 0.30394 0.40589 0.0
H974 H 0.15618 0.40686 0.30579 0.0
H975 H 0.15652 0.34496 0.44936 0.0
H976 H 0.11419 0.4443 0.5267 0.0
H977 H 0.15541 0.40548 0.48354 0.0
H978 H 0.0953 0.40733 0.33773 0.0
H979 H 0.05384 0.44534 0.38086 0.0
C980 C 0.1867 0.36092 0.30286 0.0
C981 C 0.19778 0.33134 0.33009 0.0
C982 C 0.16441 0.38439 0.32788 0.0
C983 C 0.15319 0.3791 0.38101 0.0
C984 C 0.16494 0.34997 0.40863 0.0
C985 C 0.18687 0.32637 0.38349 0.0
C986 C 0.10948 0.43603 0.48574 0.0
C987 C 0.08033 0.44752 0.45771 0.0
C988 C 0.13322 0.41395 0.4609 0.0
C989 C 0.12861 0.40331 0.4072 0.0
C990 C 0.09982 0.41533 0.37891 0.0
C991 C 0.07596 0.43707 0.40385 0.0
H992 H 0.93479 0.98638 0.91309 0.0
H993 H 0.03614 0.02085 0.86737 0.0
H994 H 0.95075 0.9909 1.00738 0.0
H995 H 0.05109 0.02802 0.96136 0.0
H996 H 0.08227 0.99791 0.13009 0.0
H997 H 0.06514 0.99464 0.03613 0.0
H998 H 0.9628 0.02842 0.07953 0.0
H999 H 0.97989 0.03021 0.17403 0.0
C1000 C 0.9604 0.99516 0.92305 0.0
C1001 C 0.9842 1.00302 0.88235 0.0
C1002 C 0.9694 0.99825 0.97728 0.0
C1003 C 1.00232 0.00967 0.99225 0.0
C1004 C 0.02574 0.0185 0.95153 0.0
C1005 C 0.01691 0.01497 0.89738 0.0
C1006 C 0.05619 1.0048 0.11937 0.0
C1007 C 0.03244 0.01443 0.15917 0.0
C1008 C 0.04634 1.00311 0.06546 0.0
C1009 C 0.0126 0.01152 0.04991 0.0
C1010 C 0.98886 0.02129 0.08995 0.0
C1011 C 0.99863 0.02249 0.14406 0.0
H1012 H 0.25619 0.72368 0.4287 0.0
H1013 H 0.33111 0.79609 0.37033 0.0
H1014 H 0.23506 0.7153 0.33689 0.0
H1015 H 0.30998 0.7877 0.2784 0.0
H1016 H 0.23532 0.78017 0.12722 0.0
H1017 H 0.25652 0.79505 0.21756 0.0
H1018 H 0.26363 0.68722 0.25592 0.0
H1019 H 0.24327 0.67245 0.16627 0.0
C1020 C 0.26773 0.73821 0.39637 0.0
C1021 C 0.29548 0.76027 0.40657 0.0
C1022 C 0.25586 0.73323 0.34379 0.0
C1023 C 0.2712 0.75053 0.30038 0.0
C1024 C 0.2977 0.77401 0.31097 0.0
C1025 C 0.30989 0.77864 0.36349 0.0
C1026 C 0.24211 0.75973 0.15468 0.0
C1027 C 0.23715 0.72515 0.13991 0.0
C1028 C 0.254 0.76823 0.20642 0.0
C1029 C 0.26089 0.74227 0.2442 0.0
C1030 C 0.2576 0.70779 0.22827 0.0
C1031 C 0.24609 0.69935 0.17679 0.0
H1032 H 0.49662 0.06231 0.66438 0.0
H1033 H 0.46502 0.95668 0.64326 0.0
H1034 H 0.51673 0.0633 0.57204 0.0
H1035 H 0.48153 0.95884 0.54983 0.0
H1036 H 0.53804 0.96035 0.39116 0.0
H1037 H 0.52316 0.95821 0.48632 0.0
H1038 H 0.50087 0.06727 0.48402 0.0
H1039 H 0.51832 0.06931 0.38995 0.0
C1040 C 0.49386 0.03924 0.6403 0.0
C1041 C 0.4787 0.00954 0.66195 0.0
C1042 C 0.50485 0.04001 0.58654 0.0
C1043 C 0.5005 0.01132 0.55226 0.0
C1044 C 0.48587 0.98148 0.57432 0.0
C1045 C 0.47562 0.98046 0.62825 0.0
C1046 C 0.52992 0.98376 0.4113 0.0
C1047 C 0.52934 0.01496 0.38336 0.0
C1048 C 0.52112 0.98262 0.46596 0.0
C1049 C 0.51063 0.01258 0.49387 0.0
C1050 C 0.50954 0.04372 0.46505 0.0
C1051 C 0.51918 0.04493 0.41077 0.0
H1052 H 0.30881 0.30488 0.88598 0.0
H1053 H 0.20764 0.2622 0.91103 0.0
H1054 H 0.30547 0.28975 0.79117 0.0
H1055 H 0.20556 0.24456 0.8175 0.0
H1056 H 0.19309 0.25261 0.63747 0.0
H1057 H 0.19785 0.26796 0.7321 0.0
H1058 H 0.30659 0.245 0.72726 0.0
H1059 H 0.30179 0.23093 0.63169 0.0
C1060 C 0.2859 0.29213 0.87148 0.0
C1061 C 0.25838 0.28511 0.90647 0.0
C1062 C 0.28421 0.28294 0.81707 0.0
C1063 C 0.25513 0.26608 0.79625 0.0
C1064 C 0.22809 0.25815 0.83161 0.0
C1065 C 0.22956 0.26776 0.88577 0.0
C1066 C 0.21798 0.2508 0.65675 0.0
C1067 C 0.24704 0.24044 0.62734 0.0
C1068 C 0.22073 0.2594 0.71116 0.0
C1069 C 0.25257 0.25743 0.73783 0.0
C1070 C 0.28173 0.24727 0.70811 0.0
C1071 C 0.27902 0.23909 0.65337 0.0
H1072 H 0.79916 0.27023 0.90206 0.0
H1073 H 0.69668 0.31243 0.89054 0.0
H1074 H 0.797 0.25421 0.80703 0.0
H1075 H 0.69474 0.29677 0.79569 0.0
H1076 H 0.70889 0.28833 0.6163 0.0
H1077 H 0.71975 0.31019 0.70738 0.0
H1078 H 0.76655 0.21325 0.74963 0.0
H1079 H 0.7561 0.19183 0.65877 0.0
C1080 C 0.77609 0.27594 0.87944 0.0
C1081 C 0.7481 0.29267 0.90418 0.0
C1082 C 0.77494 0.26691 0.82483 0.0
C1083 C 0.74581 0.27447 0.7935 0.0
C1084 C 0.71789 0.29125 0.81822 0.0
C1085 C 0.71898 0.30015 0.87277 0.0
C1086 C 0.72227 0.27212 0.64475 0.0
C1087 C 0.73142 0.23833 0.63065 0.0
C1088 C 0.72814 0.28443 0.69706 0.0
C1089 C 0.74357 0.26329 0.73611 0.0
C1090 C 0.75472 0.23028 0.72071 0.0
C1091 C 0.74861 0.21794 0.66869 0.0
H1092 H 0.7044 0.73251 0.42161 0.0
H1093 H 0.74503 0.83136 0.37671 0.0
H1094 H 0.71635 0.71066 0.33085 0.0
H1095 H 0.75617 0.81002 0.28615 0.0
H1096 H 0.79564 0.75424 0.13674 0.0
H1097 H 0.78997 0.77208 0.23058 0.0
H1098 H 0.69317 0.71853 0.24092 0.0
H1099 H 0.69876 0.70081 0.14725 0.0
C1100 C 0.71629 0.74942 0.39262 0.0
C1101 C 0.72342 0.78377 0.4063 0.0
C1102 C 0.72279 0.73705 0.34037 0.0
C1103 C 0.73688 0.75866 0.30071 0.0
C1104 C 0.74547 0.79252 0.31539 0.0
C1105 C 0.73881 0.80487 0.36734 0.0
C1106 C 0.77299 0.74647 0.15884 0.0
C1107 C 0.7477 0.72601 0.13409 0.0
C1108 C 0.76978 0.75663 0.21285 0.0
C1109 C 0.74117 0.74664 0.24373 0.0
C1110 C 0.71592 0.72615 0.21896 0.0
C1111 C 0.7191 0.71604 0.165 0.0
H1112 H 0.58494 0.48427 0.62646 0.0
H1113 H 0.48942 0.53445 0.66767 0.0
H1114 H 0.56895 0.48512 0.53148 0.0
H1115 H 0.47335 0.53527 0.5723 0.0
H1116 H 0.47533 0.56124 0.38926 0.0
H1117 H 0.49328 0.56305 0.48398 0.0
H1118 H 0.52392 0.45652 0.47364 0.0
H1119 H 0.50572 0.45471 0.37958 0.0
C1120 C 0.56058 0.49564 0.61518 0.0
C1121 C 0.53847 0.50931 0.65466 0.0
C1122 C 0.55134 0.49595 0.56079 0.0
C1123 C 0.51992 0.51034 0.5443 0.0
C1124 C 0.49787 0.52429 0.58367 0.0
C1125 C 0.50692 0.52352 0.63829 0.0
C1126 C 0.48626 0.53839 0.40722 0.0
C1127 C 0.48914 0.50785 0.37713 0.0
C1128 C 0.49623 0.53931 0.46148 0.0
C1129 C 0.50991 0.50989 0.48638 0.0
C1130 C 0.51366 0.47967 0.45565 0.0
C1131 C 0.50316 0.47859 0.40186 0.0
H1132 H 1.006 0.56488 0.89155 0.0
H1133 H 0.04222 0.46008 0.88419 0.0
H1134 H 0.99267 0.55818 0.98642 0.0
H1135 H 0.03015 0.45348 0.98014 0.0
H1136 H 0.97174 0.44448 0.14013 0.0
H1137 H 0.9858 0.44905 0.04504 0.0
H1138 H 0.01914 0.55376 0.07069 0.0
H1139 H 1.00264 0.55009 0.16441 0.0
C1140 C 0.01147 0.54049 0.91058 0.0
C1141 C 0.02537 0.51308 0.88075 0.0
C1142 C 1.00403 0.53665 0.96507 0.0
C1143 C 0.01072 0.5054 0.99136 0.0
C1144 C 0.02433 0.47781 0.96122 0.0
C1145 C 0.03137 0.48156 0.90635 0.0
C1146 C 0.98173 0.46861 0.12537 0.0
C1147 C 0.98572 0.49699 0.16011 0.0
C1148 C 0.99028 0.47107 0.07088 0.0
C1149 C 1.00334 0.50189 0.04986 0.0
C1150 C 0.00844 0.52984 0.08504 0.0
C1151 C 0.99951 0.52752 0.13925 0.0
loop_
_geom_bond_atom_site_label_1
_geom_bond_atom_site_label_2
_geom_bond_distance
_geom_bond_site_symmetry_2
_ccdc_geom_bond_type
Tb0 N29 2.619 . S
Tb0 N35 2.547 1_655 S
Tb0 O44 2.460 1_655 S
Tb0 O45 2.371 1_655 S
Tb0 O47 2.443 . S
Tb0 O48 2.289 1_645 S
Tb0 O52 2.367 1_545 S
Tb0 O55 2.415 . S
Tb0 C64 2.808 . S
C1 N2 1.379 1_655 S
C1 C4 1.416 . S
C1 C8 1.424 . S
N2 C1 1.379 1_455 S
N2 C5 1.334 . S
N2 Tb11 2.617 . S
C3 C5 1.390 . S
C3 C6 1.339 . S
C3 H23 0.930 . S
C4 C1 1.416 . S
C4 C6 1.416 1_655 S
C4 C10 1.448 . S
C5 N2 1.334 . S
C5 C3 1.390 . S
C5 H16 0.930 . S
C6 C3 1.339 . S
C6 C4 1.416 1_455 S
C6 H27 0.930 . S
C7 C8 1.413 . S
C7 C9 1.427 . S
C7 C13 1.416 . S
C8 C1 1.424 . S
C8 C7 1.413 . S
C8 N12 1.361 . S
C9 C7 1.427 . S
C9 C10 1.328 . S
C9 H24 0.929 . S
C10 C4 1.448 . S
C10 C9 1.328 . S
C10 H25 0.930 . S
Tb11 N2 2.617 . S
Tb11 N12 2.572 1_455 S
Tb11 O46 2.349 1_565 S
Tb11 O49 2.393 . S
Tb11 O50 2.465 1_455 S
Tb11 O51 2.387 1_455 S
Tb11 O53 2.428 . S
Tb11 O54 2.308 1_465 S
Tb11 C75 2.802 . S
N12 C8 1.361 . S
N12 Tb11 2.572 1_655 S
N12 C14 1.340 . S
C13 C7 1.416 . S
C13 C15 1.332 . S
C13 H21 0.931 . S
C14 N12 1.340 . S
C14 C15 1.407 . S
C14 H20 0.930 . S
C15 C13 1.332 . S
C15 C14 1.407 . S
C15 H17 0.929 . S
H16 C5 0.930 . S
H17 C15 0.929 . S
H18 C33 0.930 . S
H19 C40 0.929 . S
H20 C14 0.930 . S
H21 C13 0.931 . S
H22 C36 0.930 . S
H23 C3 0.930 . S
H24 C9 0.929 . S
H25 C10 0.930 . S
H26 C31 0.930 . S
H27 C6 0.930 . S
H28 C39 0.931 . S
N29 Tb0 2.619 . S
N29 C30 1.379 1_655 S
N29 C33 1.334 . S
C30 N29 1.379 1_455 S
C30 C32 1.416 . S
C30 C38 1.424 . S
C31 H26 0.930 . S
C31 C33 1.390 . S
C31 C34 1.339 . S
C32 C30 1.416 . S
C32 C34 1.416 1_455 S
C32 C65 1.448 . S
C33 H18 0.930 . S
C33 N29 1.334 . S
C33 C31 1.390 . S
C34 C31 1.339 . S
C34 C32 1.416 1_655 S
C34 H41 0.930 . S
N35 Tb0 2.547 1_455 S
N35 C36 1.340 . S
N35 C38 1.361 . S
C36 H22 0.930 . S
C36 N35 1.340 . S
C36 C40 1.407 . S
C37 C38 1.413 . S
C37 C39 1.416 . S
C37 C66 1.427 . S
C38 C30 1.424 . S
C38 N35 1.361 . S
C38 C37 1.413 . S
C39 H28 0.931 . S
C39 C37 1.416 . S
C39 C40 1.332 . S
C40 H19 0.929 . S
C40 C36 1.407 . S
C40 C39 1.332 . S
H41 C34 0.930 . S
H42 C65 0.930 . S
H43 C66 0.929 . S
O44 Tb0 2.460 1_455 S
O44 C64 1.264 1_455 S
O45 Tb0 2.371 1_455 S
O45 C56 1.264 . S
O46 Tb11 2.349 1_545 S
O46 C56 1.243 . S
O47 Tb0 2.443 . S
O47 C64 1.256 . S
O48 Tb0 2.289 1_465 S
O48 C63 1.266 . S
O49 Tb11 2.393 . S
O49 C63 1.248 . S
O50 Tb11 2.465 1_655 S
O50 C75 1.264 1_655 S
O51 Tb11 2.387 1_655 S
O51 C67 1.264 . S
O52 Tb0 2.367 1_565 S
O52 C67 1.243 . S
O53 Tb11 2.428 . S
O53 C75 1.256 . S
O54 Tb11 2.308 1_645 S
O54 C74 1.266 . S
O55 Tb0 2.415 . S
O55 C74 1.248 . S
C56 O45 1.264 . S
C56 O46 1.243 . S
C57 C60 1.399 . S
C57 C62 1.383 . S
C57 C64 1.496 . S
C58 C59 1.399 . S
C58 C62 1.389 . S
C59 C58 1.399 . S
C59 C61 1.380 . S
C59 H76 0.929 . S
C60 C57 1.399 . S
C60 C61 1.392 . S
C60 H77 0.929 . S
C61 C59 1.380 . S
C61 C60 1.392 . S
C61 H78 0.929 . S
C62 C57 1.383 . S
C62 C58 1.389 . S
C62 H79 0.931 1_645 S
C63 O48 1.266 . S
C63 O49 1.248 . S
C64 Tb0 2.808 . S
C64 O44 1.264 1_655 S
C64 O47 1.256 . S
C64 C57 1.496 . S
C65 C32 1.448 . S
C65 H42 0.930 . S
C65 C66 1.328 . S
C66 C37 1.427 . S
C66 H43 0.929 . S
C66 C65 1.328 . S
C67 O51 1.264 . S
C67 O52 1.243 . S
C68 C71 1.399 . S
C68 C72 1.383 . S
C68 C75 1.496 . S
C69 C70 1.399 . S
C69 C72 1.389 . S
C70 C69 1.399 . S
C70 C73 1.380 . S
C70 H80 0.929 . S
C71 C68 1.399 . S
C71 C73 1.392 . S
C71 H81 0.929 . S
C72 C68 1.383 . S
C72 C69 1.389 . S
C72 H82 0.931 1_465 S
C73 C70 1.380 . S
C73 C71 1.392 . S
C73 H83 0.929 . S
C74 O54 1.266 . S
C74 O55 1.248 . S
C75 Tb11 2.802 . S
C75 O50 1.264 1_455 S
C75 O53 1.256 . S
C75 C68 1.496 . S
H76 C59 0.929 . S
H77 C60 0.929 . S
H78 C61 0.929 . S
H79 C62 0.931 1_465 S
H80 C70 0.929 . S
H81 C71 0.929 . S
H82 C72 0.931 1_645 S
H83 C73 0.929 . S
Tb84 N113 2.617 . S
Tb84 N119 2.572 . S
Tb84 O128 2.465 . S
Tb84 O129 2.387 . S
Tb84 O131 2.428 . S
Tb84 O132 2.308 . S
Tb84 O136 2.349 . S
Tb84 O139 2.393 . S
Tb84 C148 2.802 . S
C85 N86 1.379 . S
C85 C88 1.416 . S
C85 C92 1.424 . S
N86 C85 1.379 . S
N86 C89 1.334 . S
N86 Tb95 2.617 . S
C87 C89 1.390 . S
C87 C90 1.339 . S
C87 H107 0.930 . S
C88 C85 1.416 . S
C88 C90 1.416 . S
C88 C94 1.448 . S
C89 N86 1.334 . S
C89 C87 1.390 . S
C89 H100 0.930 . S
C90 C87 1.339 . S
C90 C88 1.416 . S
C90 H111 0.930 . S
C91 C92 1.413 . S
C91 C93 1.427 . S
C91 C97 1.416 . S
C92 C85 1.424 . S
C92 C91 1.413 . S
C92 N96 1.361 . S
C93 C91 1.427 . S
C93 C94 1.328 . S
C93 H108 0.929 . S
C94 C88 1.448 . S
C94 C93 1.328 . S
C94 H109 0.930 . S
Tb95 N86 2.617 . S
Tb95 N96 2.572 . S
Tb95 O130 2.349 . S
Tb95 O133 2.393 . S
Tb95 O134 2.465 . S
Tb95 O135 2.387 . S
Tb95 O137 2.428 . S
Tb95 O138 2.308 . S
Tb95 C159 2.802 . S
N96 C92 1.361 . S
N96 Tb95 2.572 . S
N96 C98 1.340 . S
C97 C91 1.416 . S
C97 C99 1.332 . S
C97 H105 0.931 . S
C98 N96 1.340 . S
C98 C99 1.407 . S
C98 H104 0.930 . S
C99 C97 1.332 . S
C99 C98 1.407 . S
C99 H101 0.929 . S
H100 C89 0.930 . S
H101 C99 0.929 . S
H102 C117 0.930 . S
H103 C124 0.929 . S
H104 C98 0.930 . S
H105 C97 0.931 . S
H106 C120 0.930 . S
H107 C87 0.930 . S
H108 C93 0.929 . S
H109 C94 0.930 . S
H110 C115 0.930 . S
H111 C90 0.930 . S
H112 C123 0.931 . S
N113 Tb84 2.617 . S
N113 C114 1.379 . S
N113 C117 1.334 . S
C114 N113 1.379 . S
C114 C116 1.416 . S
C114 C122 1.424 . S
C115 H110 0.930 . S
C115 C117 1.390 . S
C115 C118 1.339 . S
C116 C114 1.416 . S
C116 C118 1.416 . S
C116 C149 1.448 . S
C117 H102 0.930 . S
C117 N113 1.334 . S
C117 C115 1.390 . S
C118 C115 1.339 . S
C118 C116 1.416 . S
C118 H125 0.930 . S
N119 Tb84 2.572 . S
N119 C120 1.340 . S
N119 C122 1.361 . S
C120 H106 0.930 . S
C120 N119 1.340 . S
C120 C124 1.407 . S
C121 C122 1.413 . S
C121 C123 1.416 . S
C121 C150 1.427 . S
C122 C114 1.424 . S
C122 N119 1.361 . S
C122 C121 1.413 . S
C123 H112 0.931 . S
C123 C121 1.416 . S
C123 C124 1.332 . S
C124 H103 0.929 . S
C124 C120 1.407 . S
C124 C123 1.332 . S
H125 C118 0.930 . S
H126 C149 0.930 . S
H127 C150 0.929 . S
O128 Tb84 2.465 . S
O128 C148 1.264 . S
O129 Tb84 2.387 . S
O129 C140 1.264 . S
O130 Tb95 2.349 . S
O130 C140 1.243 . S
O131 Tb84 2.428 . S
O131 C148 1.256 . S
O132 Tb84 2.308 . S
O132 C147 1.266 . S
O133 Tb95 2.393 . S
O133 C147 1.248 . S
O134 Tb95 2.465 . S
O134 C159 1.264 . S
O135 Tb95 2.387 . S
O135 C151 1.264 . S
O136 Tb84 2.349 . S
O136 C151 1.243 . S
O137 Tb95 2.428 . S
O137 C159 1.256 . S
O138 Tb95 2.308 . S
O138 C158 1.266 . S
O139 Tb84 2.393 . S
O139 C158 1.248 . S
C140 O129 1.264 . S
C140 O130 1.243 . S
C141 C144 1.404 . S
C141 C146 1.383 1_556 S
C141 C148 1.496 . S
C142 C143 1.399 . S
C142 C146 1.389 . S
C143 C142 1.399 . S
C143 C145 1.380 . S
C143 H160 0.929 . S
C144 C141 1.404 . S
C144 C145 1.379 1_556 S
C144 H161 0.938 . S
C145 C143 1.380 . S
C145 C144 1.379 1_554 S
C145 H162 0.929 . S
C146 C141 1.383 1_554 S
C146 C142 1.389 . S
C146 H163 0.931 1_554 S
C147 O132 1.266 . S
C147 O133 1.248 . S
C148 Tb84 2.802 . S
C148 O128 1.264 . S
C148 O131 1.256 . S
C148 C141 1.496 . S
C149 C116 1.448 . S
C149 H126 0.930 . S
C149 C150 1.328 . S
C150 C121 1.427 . S
C150 H127 0.929 . S
C150 C149 1.328 . S
C151 O135 1.264 . S
C151 O136 1.243 . S
C152 C155 1.399 . S
C152 C156 1.383 . S
C152 C159 1.496 . S
C153 C154 1.399 . S
C153 C156 1.389 . S
C154 C153 1.399 . S
C154 C157 1.380 . S
C154 H164 0.929 . S
C155 C152 1.399 . S
C155 C157 1.392 . S
C155 H165 0.929 . S
C156 C152 1.383 . S
C156 C153 1.389 . S
C156 H166 0.931 . S
C157 C154 1.380 . S
C157 C155 1.392 . S
C157 H167 0.929 . S
C158 O138 1.266 . S
C158 O139 1.248 . S
C159 Tb95 2.802 . S
C159 O134 1.264 . S
C159 O137 1.256 . S
C159 C152 1.496 . S
H160 C143 0.929 . S
H161 C144 0.938 . S
H162 C145 0.929 . S
H163 C146 0.931 1_556 S
H164 C154 0.929 . S
H165 C155 0.929 . S
H166 C156 0.931 . S
H167 C157 0.929 . S
Tb168 N197 2.617 . S
Tb168 N203 2.572 . S
Tb168 O212 2.465 . S
Tb168 O213 2.387 1_554 S
Tb168 O215 2.428 . S
Tb168 O216 2.308 1_565 S
Tb168 O220 2.349 1_565 S
Tb168 O223 2.393 . S
Tb168 C232 2.802 . S
C169 N170 1.379 . S
C169 C172 1.416 . S
C169 C176 1.424 . S
N170 C169 1.379 . S
N170 C173 1.334 . S
N170 Tb179 2.617 . S
C171 C173 1.390 . S
C171 C174 1.339 . S
C171 H191 0.930 . S
C172 C169 1.416 . S
C172 C174 1.416 . S
C172 C178 1.448 . S
C173 N170 1.334 . S
C173 C171 1.390 . S
C173 H184 0.930 . S
C174 C171 1.339 . S
C174 C172 1.416 . S
C174 H195 0.930 . S
C175 C176 1.413 . S
C175 C177 1.427 . S
C175 C181 1.416 . S
C176 C169 1.424 . S
C176 C175 1.413 . S
C176 N180 1.361 . S
C177 C175 1.427 . S
C177 C178 1.328 . S
C177 H192 0.929 . S
C178 C172 1.448 . S
C178 C177 1.328 . S
C178 H193 0.930 . S
Tb179 N170 2.617 . S
Tb179 N180 2.572 . S
Tb179 O214 2.349 1_545 S
Tb179 O217 2.393 . S
Tb179 O218 2.465 . S
Tb179 O219 2.387 1_556 S
Tb179 O221 2.428 . S
Tb179 O222 2.308 1_545 S
Tb179 C243 2.802 . S
N180 C176 1.361 . S
N180 Tb179 2.572 . S
N180 C182 1.340 . S
C181 C175 1.416 . S
C181 C183 1.332 . S
C181 H189 0.931 . S
C182 N180 1.340 . S
C182 C183 1.407 . S
C182 H188 0.930 . S
C183 C181 1.332 . S
C183 C182 1.407 . S
C183 H185 0.929 . S
H184 C173 0.930 . S
H185 C183 0.929 . S
H186 C201 0.930 . S
H187 C208 0.929 . S
H188 C182 0.930 . S
H189 C181 0.931 . S
H190 C204 0.930 . S
H191 C171 0.930 . S
H192 C177 0.929 . S
H193 C178 0.930 . S
H194 C199 0.930 . S
H195 C174 0.930 . S
H196 C207 0.931 . S
N197 Tb168 2.617 . S
N197 C198 1.379 . S
N197 C201 1.334 . S
C198 N197 1.379 . S
C198 C200 1.416 . S
C198 C206 1.424 . S
C199 H194 0.930 . S
C199 C201 1.390 . S
C199 C202 1.339 . S
C200 C198 1.416 . S
C200 C202 1.416 . S
C200 C233 1.448 . S
C201 H186 0.930 . S
C201 N197 1.334 . S
C201 C199 1.390 . S
C202 C199 1.339 . S
C202 C200 1.416 . S
C202 H209 0.930 . S
N203 Tb168 2.572 . S
N203 C204 1.340 . S
N203 C206 1.361 . S
C204 H190 0.930 . S
C204 N203 1.340 . S
C204 C208 1.407 . S
C205 C206 1.413 . S
C205 C207 1.416 . S
C205 C234 1.427 . S
C206 C198 1.424 . S
C206 N203 1.361 . S
C206 C205 1.413 . S
C207 H196 0.931 . S
C207 C205 1.416 . S
C207 C208 1.332 . S
C208 H187 0.929 . S
C208 C204 1.407 . S
C208 C207 1.332 . S
H209 C202 0.930 . S
H210 C233 0.930 . S
H211 C234 0.929 . S
O212 Tb168 2.465 . S
O212 C232 1.264 . S
O213 Tb168 2.387 1_556 S
O213 C224 1.264 . S
O214 Tb179 2.349 1_565 S
O214 C224 1.243 . S
O215 Tb168 2.428 . S
O215 C232 1.256 . S
O216 Tb168 2.308 1_545 S
O216 C231 1.266 . S
O217 Tb179 2.393 . S
O217 C231 1.248 1_556 S
O218 Tb179 2.465 . S
O218 C243 1.264 . S
O219 Tb179 2.387 1_554 S
O219 C235 1.264 . S
O220 Tb168 2.349 1_545 S
O220 C235 1.243 . S
O221 Tb179 2.428 . S
O221 C243 1.256 . S
O222 Tb179 2.308 1_565 S
O222 C242 1.266 . S
O223 Tb168 2.393 . S
O223 C242 1.248 1_554 S
C224 O213 1.264 . S
C224 O214 1.243 . S
C225 C228 1.399 . S
C225 C230 1.383 . S
C225 C232 1.496 . S
C226 C227 1.399 . S
C226 C230 1.389 . S
C227 C226 1.399 . S
C227 C229 1.380 . S
C227 H244 0.929 . S
C228 C225 1.399 . S
C228 C229 1.392 . S
C228 H245 0.929 . S
C229 C227 1.380 . S
C229 C228 1.392 . S
C229 H246 0.929 . S
C230 C225 1.383 . S
C230 C226 1.389 . S
C230 H247 0.931 1_565 S
C231 O216 1.266 . S
C231 O217 1.248 1_554 S
C232 Tb168 2.802 . S
C232 O212 1.264 . S
C232 O215 1.256 . S
C232 C225 1.496 . S
C233 C200 1.448 . S
C233 H210 0.930 . S
C233 C234 1.328 . S
C234 C205 1.427 . S
C234 H211 0.929 . S
C234 C233 1.328 . S
C235 O219 1.264 . S
C235 O220 1.243 . S
C236 C239 1.399 . S
C236 C240 1.383 . S
C236 C243 1.496 . S
C237 C238 1.399 . S
C237 C240 1.389 . S
C238 C237 1.399 . S
C238 C241 1.380 . S
C238 H248 0.929 . S
C239 C236 1.399 . S
C239 C241 1.392 . S
C239 H249 0.929 . S
C240 C236 1.383 . S
C240 C237 1.389 . S
C240 H250 0.931 1_545 S
C241 C238 1.380 . S
C241 C239 1.392 . S
C241 H251 0.929 . S
C242 O222 1.266 . S
C242 O223 1.248 1_556 S
C243 Tb179 2.802 . S
C243 O218 1.264 . S
C243 O221 1.256 . S
C243 C236 1.496 . S
H244 C227 0.929 . S
H245 C228 0.929 . S
H246 C229 0.929 . S
H247 C230 0.931 1_545 S
H248 C238 0.929 . S
H249 C239 0.929 . S
H250 C240 0.931 1_565 S
H251 C241 0.929 . S
Tb252 N281 2.617 . S
Tb252 N287 2.572 . S
Tb252 O296 2.465 . S
Tb252 O297 2.387 . S
Tb252 O299 2.428 . S
Tb252 O300 2.308 . S
Tb252 O304 2.349 . S
Tb252 O307 2.393 . S
Tb252 C316 2.802 . S
C253 N254 1.379 . S
C253 C256 1.416 . S
C253 C260 1.424 . S
N254 C253 1.379 . S
N254 C257 1.334 . S
N254 Tb263 2.617 . S
C255 C257 1.390 . S
C255 C258 1.339 . S
C255 H275 0.930 . S
C256 C253 1.416 . S
C256 C258 1.416 . S
C256 C262 1.448 . S
C257 N254 1.334 . S
C257 C255 1.390 . S
C257 H268 0.930 . S
C258 C255 1.339 . S
C258 C256 1.416 . S
C258 H279 0.930 . S
C259 C260 1.413 . S
C259 C261 1.427 . S
C259 C265 1.416 . S
C260 C253 1.424 . S
C260 C259 1.413 . S
C260 N264 1.361 . S
C261 C259 1.427 . S
C261 C262 1.328 . S
C261 H276 0.929 . S
C262 C256 1.448 . S
C262 C261 1.328 . S
C262 H277 0.930 . S
Tb263 N254 2.617 . S
Tb263 N264 2.572 . S
Tb263 O298 2.349 . S
Tb263 O301 2.393 . S
Tb263 O302 2.465 . S
Tb263 O303 2.387 . S
Tb263 O305 2.428 . S
Tb263 O306 2.308 . S
Tb263 C327 2.802 . S
N264 C260 1.361 . S
N264 Tb263 2.572 . S
N264 C266 1.340 . S
C265 C259 1.416 . S
C265 C267 1.332 . S
C265 H273 0.931 . S
C266 N264 1.340 . S
C266 C267 1.407 . S
C266 H272 0.930 . S
C267 C265 1.332 . S
C267 C266 1.407 . S
C267 H269 0.929 . S
H268 C257 0.930 . S
H269 C267 0.929 . S
H270 C285 0.930 . S
H271 C292 0.929 . S
H272 C266 0.930 . S
H273 C265 0.931 . S
H274 C288 0.930 . S
H275 C255 0.930 . S
H276 C261 0.929 . S
H277 C262 0.930 . S
H278 C283 0.930 . S
H279 C258 0.930 . S
H280 C291 0.931 . S
N281 Tb252 2.617 . S
N281 C282 1.379 . S
N281 C285 1.334 . S
C282 N281 1.379 . S
C282 C284 1.416 . S
C282 C290 1.424 . S
C283 H278 0.930 . S
C283 C285 1.390 . S
C283 C286 1.339 . S
C284 C282 1.416 . S
C284 C286 1.416 . S
C284 C317 1.448 . S
C285 H270 0.930 . S
C285 N281 1.334 . S
C285 C283 1.390 . S
C286 C283 1.339 . S
C286 C284 1.416 . S
C286 H293 0.930 . S
N287 Tb252 2.572 . S
N287 C288 1.340 . S
N287 C290 1.361 . S
C288 H274 0.930 . S
C288 N287 1.340 . S
C288 C292 1.407 . S
C289 C290 1.413 . S
C289 C291 1.416 . S
C289 C318 1.427 . S
C290 C282 1.424 . S
C290 N287 1.361 . S
C290 C289 1.413 . S
C291 H280 0.931 . S
C291 C289 1.416 . S
C291 C292 1.332 . S
C292 H271 0.929 . S
C292 C288 1.407 . S
C292 C291 1.332 . S
H293 C286 0.930 . S
H294 C317 0.930 . S
H295 C318 0.929 . S
O296 Tb252 2.465 . S
O296 C316 1.264 . S
O297 Tb252 2.387 . S
O297 C308 1.264 . S
O298 Tb263 2.349 . S
O298 C308 1.243 . S
O299 Tb252 2.428 . S
O299 C316 1.256 . S
O300 Tb252 2.308 . S
O300 C315 1.266 . S
O301 Tb263 2.393 . S
O301 C315 1.248 . S
O302 Tb263 2.465 . S
O302 C327 1.264 . S
O303 Tb263 2.387 . S
O303 C319 1.264 . S
O304 Tb252 2.349 . S
O304 C319 1.243 . S
O305 Tb263 2.428 . S
O305 C327 1.256 . S
O306 Tb263 2.308 . S
O306 C326 1.266 . S
O307 Tb252 2.393 . S
O307 C326 1.248 . S
C308 O297 1.264 . S
C308 O298 1.243 . S
C309 C312 1.406 . S
C309 C314 1.383 1_554 S
C309 C316 1.496 . S
C310 C311 1.399 . S
C310 C314 1.389 . S
C311 C310 1.399 . S
C311 C313 1.380 . S
C311 H328 0.929 . S
C312 C309 1.406 . S
C312 C313 1.375 1_554 S
C312 H329 0.940 . S
C313 C311 1.380 . S
C313 C312 1.375 1_556 S
C313 H330 0.929 . S
C314 C309 1.383 1_556 S
C314 C310 1.389 . S
C314 H331 0.931 1_556 S
C315 O300 1.266 . S
C315 O301 1.248 . S
C316 Tb252 2.802 . S
C316 O296 1.264 . S
C316 O299 1.256 . S
C316 C309 1.496 . S
C317 C284 1.448 . S
C317 H294 0.930 . S
C317 C318 1.328 . S
C318 C289 1.427 . S
C318 H295 0.929 . S
C318 C317 1.328 . S
C319 O303 1.264 . S
C319 O304 1.243 . S
C320 C323 1.399 . S
C320 C324 1.383 . S
C320 C327 1.496 . S
C321 C322 1.399 . S
C321 C324 1.389 . S
C322 C321 1.399 . S
C322 C325 1.380 . S
C322 H332 0.929 . S
C323 C320 1.399 . S
C323 C325 1.392 . S
C323 H333 0.929 . S
C324 C320 1.383 . S
C324 C321 1.389 . S
C324 H334 0.931 . S
C325 C322 1.380 . S
C325 C323 1.392 . S
C325 H335 0.929 . S
C326 O306 1.266 . S
C326 O307 1.248 . S
C327 Tb263 2.802 . S
C327 O302 1.264 . S
C327 O305 1.256 . S
C327 C320 1.496 . S
H328 C311 0.929 . S
H329 C312 0.940 . S
H330 C313 0.929 . S
H331 C314 0.931 1_554 S
H332 C322 0.929 . S
H333 C323 0.929 . S
H334 C324 0.931 . S
H335 C325 0.929 . S
Tb336 N365 2.617 . S
Tb336 N371 2.572 . S
Tb336 O380 2.465 . S
Tb336 O381 2.387 . S
Tb336 O383 2.428 . S
Tb336 O384 2.308 . S
Tb336 O388 2.349 . S
Tb336 O391 2.393 . S
Tb336 C400 2.802 . S
C337 N338 1.379 . S
C337 C340 1.416 . S
C337 C344 1.424 . S
N338 C337 1.379 . S
N338 C341 1.334 . S
N338 Tb347 2.617 . S
C339 C341 1.390 . S
C339 C342 1.339 . S
C339 H359 0.930 . S
C340 C337 1.416 . S
C340 C342 1.416 . S
C340 C346 1.448 . S
C341 N338 1.334 . S
C341 C339 1.390 . S
C341 H352 0.930 . S
C342 C339 1.339 . S
C342 C340 1.416 . S
C342 H363 0.930 . S
C343 C344 1.413 . S
C343 C345 1.427 . S
C343 C349 1.416 . S
C344 C337 1.424 . S
C344 C343 1.413 . S
C344 N348 1.361 . S
C345 C343 1.427 . S
C345 C346 1.328 . S
C345 H360 0.929 . S
C346 C340 1.448 . S
C346 C345 1.328 . S
C346 H361 0.930 . S
Tb347 N338 2.617 . S
Tb347 N348 2.572 . S
Tb347 O382 2.349 . S
Tb347 O385 2.393 . S
Tb347 O386 2.465 . S
Tb347 O387 2.387 . S
Tb347 O389 2.428 . S
Tb347 O390 2.308 . S
Tb347 C411 2.802 . S
N348 C344 1.361 . S
N348 Tb347 2.572 . S
N348 C350 1.340 . S
C349 C343 1.416 . S
C349 C351 1.332 . S
C349 H357 0.931 . S
C350 N348 1.340 . S
C350 C351 1.407 . S
C350 H356 0.930 . S
C351 C349 1.332 . S
C351 C350 1.407 . S
C351 H353 0.929 . S
H352 C341 0.930 . S
H353 C351 0.929 . S
H354 C369 0.930 . S
H355 C376 0.929 . S
H356 C350 0.930 . S
H357 C349 0.931 . S
H358 C372 0.930 . S
H359 C339 0.930 . S
H360 C345 0.929 . S
H361 C346 0.930 . S
H362 C367 0.930 . S
H363 C342 0.930 . S
H364 C375 0.931 . S
N365 Tb336 2.617 . S
N365 C366 1.379 . S
N365 C369 1.334 . S
C366 N365 1.379 . S
C366 C368 1.416 . S
C366 C374 1.424 . S
C367 H362 0.930 . S
C367 C369 1.390 . S
C367 C370 1.339 . S
C368 C366 1.416 . S
C368 C370 1.416 . S
C368 C401 1.448 . S
C369 H354 0.930 . S
C369 N365 1.334 . S
C369 C367 1.390 . S
C370 C367 1.339 . S
C370 C368 1.416 . S
C370 H377 0.930 . S
N371 Tb336 2.572 . S
N371 C372 1.340 . S
N371 C374 1.361 . S
C372 H358 0.930 . S
C372 N371 1.340 . S
C372 C376 1.407 . S
C373 C374 1.413 . S
C373 C375 1.416 . S
C373 C402 1.427 . S
C374 C366 1.424 . S
C374 N371 1.361 . S
C374 C373 1.413 . S
C375 H364 0.931 . S
C375 C373 1.416 . S
C375 C376 1.332 . S
C376 H355 0.929 . S
C376 C372 1.407 . S
C376 C375 1.332 . S
H377 C370 0.930 . S
H378 C401 0.930 . S
H379 C402 0.929 . S
O380 Tb336 2.465 . S
O380 C400 1.264 . S
O381 Tb336 2.387 . S
O381 C392 1.264 . S
O382 Tb347 2.349 . S
O382 C392 1.243 . S
O383 Tb336 2.428 . S
O383 C400 1.256 . S
O384 Tb336 2.308 . S
O384 C399 1.266 . S
O385 Tb347 2.393 . S
O385 C399 1.248 . S
O386 Tb347 2.465 . S
O386 C411 1.264 . S
O387 Tb347 2.387 . S
O387 C403 1.264 . S
O388 Tb336 2.349 . S
O388 C403 1.243 . S
O389 Tb347 2.428 . S
O389 C411 1.256 . S
O390 Tb347 2.308 . S
O390 C410 1.266 . S
O391 Tb336 2.393 . S
O391 C410 1.248 . S
C392 O381 1.264 . S
C392 O382 1.243 . S
C393 C396 1.399 . S
C393 C398 1.383 . S
C393 C400 1.496 . S
C394 C395 1.399 . S
C394 C398 1.389 . S
C395 C394 1.399 . S
C395 C397 1.380 . S
C395 H412 0.929 . S
C396 C393 1.399 . S
C396 C397 1.392 . S
C396 H413 0.929 . S
C397 C395 1.380 . S
C397 C396 1.392 . S
C397 H414 0.929 . S
C398 C393 1.383 . S
C398 C394 1.389 . S
C398 H415 0.931 . S
C399 O384 1.266 . S
C399 O385 1.248 . S
C400 Tb336 2.802 . S
C400 O380 1.264 . S
C400 O383 1.256 . S
C400 C393 1.496 . S
C401 C368 1.448 . S
C401 H378 0.930 . S
C401 C402 1.328 . S
C402 C373 1.427 . S
C402 H379 0.929 . S
C402 C401 1.328 . S
C403 O387 1.264 . S
C403 O388 1.243 . S
C404 C407 1.404 . S
C404 C408 1.383 1_554 S
C404 C411 1.496 . S
C405 C406 1.399 . S
C405 C408 1.389 . S
C406 C405 1.399 . S
C406 C409 1.380 . S
C406 H416 0.929 . S
C407 C404 1.404 . S
C407 C409 1.379 1_554 S
C407 H417 0.938 . S
C408 C404 1.383 1_556 S
C408 C405 1.389 . S
C408 H418 0.931 1_556 S
C409 C406 1.380 . S
C409 C407 1.379 1_556 S
C409 H419 0.929 . S
C410 O390 1.266 . S
C410 O391 1.248 . S
C411 Tb347 2.802 . S
C411 O386 1.264 . S
C411 O389 1.256 . S
C411 C404 1.496 . S
H412 C395 0.929 . S
H413 C396 0.929 . S
H414 C397 0.929 . S
H415 C398 0.931 . S
H416 C406 0.929 . S
H417 C407 0.938 . S
H418 C408 0.931 1_554 S
H419 C409 0.929 . S
Tb420 N449 2.617 . S
Tb420 N455 2.572 . S
Tb420 O464 2.465 . S
Tb420 O465 2.387 . S
Tb420 O467 2.428 . S
Tb420 O468 2.308 . S
Tb420 O472 2.349 . S
Tb420 O475 2.393 . S
Tb420 C484 2.802 . S
C421 N422 1.379 . S
C421 C424 1.416 . S
C421 C428 1.424 . S
N422 C421 1.379 . S
N422 C425 1.334 . S
N422 Tb431 2.617 . S
C423 C425 1.390 . S
C423 C426 1.339 . S
C423 H443 0.930 . S
C424 C421 1.416 . S
C424 C426 1.416 . S
C424 C430 1.448 . S
C425 N422 1.334 . S
C425 C423 1.390 . S
C425 H436 0.930 . S
C426 C423 1.339 . S
C426 C424 1.416 . S
C426 H447 0.930 . S
C427 C428 1.413 . S
C427 C429 1.427 . S
C427 C433 1.416 . S
C428 C421 1.424 . S
C428 C427 1.413 . S
C428 N432 1.361 . S
C429 C427 1.427 . S
C429 C430 1.328 . S
C429 H444 0.929 . S
C430 C424 1.448 . S
C430 C429 1.328 . S
C430 H445 0.930 . S
Tb431 N422 2.617 . S
Tb431 N432 2.572 . S
Tb431 O466 2.349 . S
Tb431 O469 2.393 . S
Tb431 O470 2.465 . S
Tb431 O471 2.387 . S
Tb431 O473 2.428 . S
Tb431 O474 2.308 . S
Tb431 C495 2.802 . S
N432 C428 1.361 . S
N432 Tb431 2.572 . S
N432 C434 1.340 . S
C433 C427 1.416 . S
C433 C435 1.332 . S
C433 H441 0.931 . S
C434 N432 1.340 . S
C434 C435 1.407 . S
C434 H440 0.930 . S
C435 C433 1.332 . S
C435 C434 1.407 . S
C435 H437 0.929 . S
H436 C425 0.930 . S
H437 C435 0.929 . S
H438 C453 0.930 . S
H439 C460 0.929 . S
H440 C434 0.930 . S
H441 C433 0.931 . S
H442 C456 0.930 . S
H443 C423 0.930 . S
H444 C429 0.929 . S
H445 C430 0.930 . S
H446 C451 0.930 . S
H447 C426 0.930 . S
H448 C459 0.931 . S
N449 Tb420 2.617 . S
N449 C450 1.379 . S
N449 C453 1.334 . S
C450 N449 1.379 . S
C450 C452 1.416 . S
C450 C458 1.424 . S
C451 H446 0.930 . S
C451 C453 1.390 . S
C451 C454 1.339 . S
C452 C450 1.416 . S
C452 C454 1.416 . S
C452 C485 1.448 . S
C453 H438 0.930 . S
C453 N449 1.334 . S
C453 C451 1.390 . S
C454 C451 1.339 . S
C454 C452 1.416 . S
C454 H461 0.930 . S
N455 Tb420 2.572 . S
N455 C456 1.340 . S
N455 C458 1.361 . S
C456 H442 0.930 . S
C456 N455 1.340 . S
C456 C460 1.407 . S
C457 C458 1.413 . S
C457 C459 1.416 . S
C457 C486 1.427 . S
C458 C450 1.424 . S
C458 N455 1.361 . S
C458 C457 1.413 . S
C459 H448 0.931 . S
C459 C457 1.416 . S
C459 C460 1.332 . S
C460 H439 0.929 . S
C460 C456 1.407 . S
C460 C459 1.332 . S
H461 C454 0.930 . S
H462 C485 0.930 . S
H463 C486 0.929 . S
O464 Tb420 2.465 . S
O464 C484 1.264 . S
O465 Tb420 2.387 . S
O465 C476 1.264 . S
O466 Tb431 2.349 . S
O466 C476 1.243 . S
O467 Tb420 2.428 . S
O467 C484 1.256 . S
O468 Tb420 2.308 . S
O468 C483 1.266 . S
O469 Tb431 2.393 . S
O469 C483 1.248 . S
O470 Tb431 2.465 . S
O470 C495 1.264 . S
O471 Tb431 2.387 . S
O471 C487 1.264 . S
O472 Tb420 2.349 . S
O472 C487 1.243 . S
O473 Tb431 2.428 . S
O473 C495 1.256 . S
O474 Tb431 2.308 . S
O474 C494 1.266 . S
O475 Tb420 2.393 . S
O475 C494 1.248 . S
C476 O465 1.264 . S
C476 O466 1.243 . S
C477 C480 1.399 . S
C477 C482 1.383 . S
C477 C484 1.496 . S
C478 C479 1.399 . S
C478 C482 1.389 . S
C479 C478 1.399 . S
C479 C481 1.380 . S
C479 H496 0.929 . S
C480 C477 1.399 . S
C480 C481 1.392 . S
C480 H497 0.929 . S
C481 C479 1.380 . S
C481 C480 1.392 . S
C481 H498 0.929 . S
C482 C477 1.383 . S
C482 C478 1.389 . S
C482 H499 0.931 . S
C483 O468 1.266 . S
C483 O469 1.248 . S
C484 Tb420 2.802 . S
C484 O464 1.264 . S
C484 O467 1.256 . S
C484 C477 1.496 . S
C485 C452 1.448 . S
C485 H462 0.930 . S
C485 C486 1.328 . S
C486 C457 1.427 . S
C486 H463 0.929 . S
C486 C485 1.328 . S
C487 O471 1.264 . S
C487 O472 1.243 . S
C488 C491 1.406 . S
C488 C492 1.383 1_556 S
C488 C495 1.496 . S
C489 C490 1.399 . S
C489 C492 1.389 . S
C490 C489 1.399 . S
C490 C493 1.380 . S
C490 H500 0.929 . S
C491 C488 1.406 . S
C491 C493 1.375 1_556 S
C491 H501 0.940 . S
C492 C488 1.383 1_554 S
C492 C489 1.389 . S
C492 H502 0.931 1_554 S
C493 C490 1.380 . S
C493 C491 1.375 1_554 S
C493 H503 0.929 . S
C494 O474 1.266 . S
C494 O475 1.248 . S
C495 Tb431 2.802 . S
C495 O470 1.264 . S
C495 O473 1.256 . S
C495 C488 1.496 . S
H496 C479 0.929 . S
H497 C480 0.929 . S
H498 C481 0.929 . S
H499 C482 0.931 . S
H500 C490 0.929 . S
H501 C491 0.940 . S
H502 C492 0.931 1_556 S
H503 C493 0.929 . S
Tb504 N533 2.617 . S
Tb504 N539 2.572 . S
Tb504 O548 2.465 . S
Tb504 O549 2.387 1_554 S
Tb504 O551 2.428 . S
Tb504 O552 2.308 . S
Tb504 O556 2.349 . S
Tb504 O559 2.393 . S
Tb504 C568 2.802 . S
C505 N506 1.379 . S
C505 C508 1.416 . S
C505 C512 1.424 . S
N506 C505 1.379 . S
N506 C509 1.334 . S
N506 Tb515 2.617 . S
C507 C509 1.390 . S
C507 C510 1.339 . S
C507 H527 0.930 . S
C508 C505 1.416 . S
C508 C510 1.416 . S
C508 C514 1.448 . S
C509 N506 1.334 . S
C509 C507 1.390 . S
C509 H520 0.930 . S
C510 C507 1.339 . S
C510 C508 1.416 . S
C510 H531 0.930 . S
C511 C512 1.413 . S
C511 C513 1.427 . S
C511 C517 1.416 . S
C512 C505 1.424 . S
C512 C511 1.413 . S
C512 N516 1.361 . S
C513 C511 1.427 . S
C513 C514 1.328 . S
C513 H528 0.929 . S
C514 C508 1.448 . S
C514 C513 1.328 . S
C514 H529 0.930 . S
Tb515 N506 2.617 . S
Tb515 N516 2.572 . S
Tb515 O550 2.349 . S
Tb515 O553 2.393 . S
Tb515 O554 2.465 . S
Tb515 O555 2.387 1_556 S
Tb515 O557 2.428 . S
Tb515 O558 2.308 . S
Tb515 C579 2.802 . S
N516 C512 1.361 . S
N516 Tb515 2.572 . S
N516 C518 1.340 . S
C517 C511 1.416 . S
C517 C519 1.332 . S
C517 H525 0.931 . S
C518 N516 1.340 . S
C518 C519 1.407 . S
C518 H524 0.930 . S
C519 C517 1.332 . S
C519 C518 1.407 . S
C519 H521 0.929 . S
H520 C509 0.930 . S
H521 C519 0.929 . S
H522 C537 0.930 . S
H523 C544 0.929 . S
H524 C518 0.930 . S
H525 C517 0.931 . S
H526 C540 0.930 . S
H527 C507 0.930 . S
H528 C513 0.929 . S
H529 C514 0.930 . S
H530 C535 0.930 . S
H531 C510 0.930 . S
H532 C543 0.931 . S
N533 Tb504 2.617 . S
N533 C534 1.379 . S
N533 C537 1.334 . S
C534 N533 1.379 . S
C534 C536 1.416 . S
C534 C542 1.424 . S
C535 H530 0.930 . S
C535 C537 1.390 . S
C535 C538 1.339 . S
C536 C534 1.416 . S
C536 C538 1.416 . S
C536 C569 1.448 . S
C537 H522 0.930 . S
C537 N533 1.334 . S
C537 C535 1.390 . S
C538 C535 1.339 . S
C538 C536 1.416 . S
C538 H545 0.930 . S
N539 Tb504 2.572 . S
N539 C540 1.340 . S
N539 C542 1.361 . S
C540 H526 0.930 . S
C540 N539 1.340 . S
C540 C544 1.407 . S
C541 C542 1.413 . S
C541 C543 1.416 . S
C541 C570 1.427 . S
C542 C534 1.424 . S
C542 N539 1.361 . S
C542 C541 1.413 . S
C543 H532 0.931 . S
C543 C541 1.416 . S
C543 C544 1.332 . S
C544 H523 0.929 . S
C544 C540 1.407 . S
C544 C543 1.332 . S
H545 C538 0.930 . S
H546 C569 0.930 . S
H547 C570 0.929 . S
O548 Tb504 2.465 . S
O548 C568 1.264 . S
O549 Tb504 2.387 1_556 S
O549 C560 1.264 . S
O550 Tb515 2.349 . S
O550 C560 1.243 . S
O551 Tb504 2.428 . S
O551 C568 1.256 . S
O552 Tb504 2.308 . S
O552 C567 1.266 . S
O553 Tb515 2.393 . S
O553 C567 1.248 1_556 S
O554 Tb515 2.465 . S
O554 C579 1.264 . S
O555 Tb515 2.387 1_554 S
O555 C571 1.264 . S
O556 Tb504 2.349 . S
O556 C571 1.243 . S
O557 Tb515 2.428 . S
O557 C579 1.256 . S
O558 Tb515 2.308 . S
O558 C578 1.266 . S
O559 Tb504 2.393 . S
O559 C578 1.248 1_554 S
C560 O549 1.264 . S
C560 O550 1.243 . S
C561 C564 1.399 . S
C561 C566 1.383 . S
C561 C568 1.496 . S
C562 C563 1.399 . S
C562 C566 1.389 . S
C563 C562 1.399 . S
C563 C565 1.380 . S
C563 H580 0.929 . S
C564 C561 1.399 . S
C564 C565 1.392 . S
C564 H581 0.929 . S
C565 C563 1.380 . S
C565 C564 1.392 . S
C565 H582 0.929 . S
C566 C561 1.383 . S
C566 C562 1.389 . S
C566 H583 0.931 . S
C567 O552 1.266 . S
C567 O553 1.248 1_554 S
C568 Tb504 2.802 . S
C568 O548 1.264 . S
C568 O551 1.256 . S
C568 C561 1.496 . S
C569 C536 1.448 . S
C569 H546 0.930 . S
C569 C570 1.328 . S
C570 C541 1.427 . S
C570 H547 0.929 . S
C570 C569 1.328 . S
C571 O555 1.264 . S
C571 O556 1.243 . S
C572 C575 1.399 . S
C572 C576 1.383 . S
C572 C579 1.496 . S
C573 C574 1.399 . S
C573 C576 1.389 . S
C574 C573 1.399 . S
C574 C577 1.380 . S
C574 H584 0.929 . S
C575 C572 1.399 . S
C575 C577 1.392 . S
C575 H585 0.929 . S
C576 C572 1.383 . S
C576 C573 1.389 . S
C576 H586 0.931 . S
C577 C574 1.380 . S
C577 C575 1.392 . S
C577 H587 0.929 . S
C578 O558 1.266 . S
C578 O559 1.248 1_556 S
C579 Tb515 2.802 . S
C579 O554 1.264 . S
C579 O557 1.256 . S
C579 C572 1.496 . S
H580 C563 0.929 . S
H581 C564 0.929 . S
H582 C565 0.929 . S
H583 C566 0.931 . S
H584 C574 0.929 . S
H585 C575 0.929 . S
H586 C576 0.931 . S
H587 C577 0.929 . S
Tb588 N617 2.617 . S
Tb588 N623 2.572 1_455 S
Tb588 O632 2.465 1_455 S
Tb588 O633 2.387 1_455 S
Tb588 O635 2.428 . S
Tb588 O636 2.308 1_455 S
Tb588 O640 2.349 . S
Tb588 O643 2.393 . S
Tb588 C652 2.802 . S
C589 N590 1.379 1_455 S
C589 C592 1.416 . S
C589 C596 1.424 . S
N590 C589 1.379 1_655 S
N590 C593 1.334 . S
N590 Tb599 2.619 . S
C591 C593 1.390 . S
C591 C594 1.339 . S
C591 H611 0.930 . S
C592 C589 1.416 . S
C592 C594 1.416 1_455 S
C592 C598 1.448 . S
C593 N590 1.334 . S
C593 C591 1.390 . S
C593 H604 0.930 . S
C594 C591 1.339 . S
C594 C592 1.416 1_655 S
C594 H615 0.930 . S
C595 C596 1.413 . S
C595 C597 1.427 . S
C595 C601 1.416 . S
C596 C589 1.424 . S
C596 C595 1.413 . S
C596 N600 1.361 . S
C597 C595 1.427 . S
C597 C598 1.328 . S
C597 H612 0.929 . S
C598 C592 1.448 . S
C598 C597 1.328 . S
C598 H613 0.930 . S
Tb599 N590 2.619 . S
Tb599 N600 2.547 1_655 S
Tb599 O634 2.367 . S
Tb599 O637 2.415 . S
Tb599 O638 2.461 1_655 S
Tb599 O639 2.371 1_655 S
Tb599 O641 2.443 . S
Tb599 O642 2.289 1_655 S
Tb599 C663 2.808 . S
N600 C596 1.361 . S
N600 Tb599 2.547 1_455 S
N600 C602 1.340 . S
C601 C595 1.416 . S
C601 C603 1.332 . S
C601 H609 0.931 . S
C602 N600 1.340 . S
C602 C603 1.407 . S
C602 H608 0.930 . S
C603 C601 1.332 . S
C603 C602 1.407 . S
C603 H605 0.929 . S
H604 C593 0.930 . S
H605 C603 0.929 . S
H606 C621 0.930 . S
H607 C628 0.929 . S
H608 C602 0.930 . S
H609 C601 0.931 . S
H610 C624 0.930 . S
H611 C591 0.930 . S
H612 C597 0.929 . S
H613 C598 0.930 . S
H614 C619 0.930 . S
H615 C594 0.930 . S
H616 C627 0.931 . S
N617 Tb588 2.617 . S
N617 C618 1.379 1_455 S
N617 C621 1.334 . S
C618 N617 1.379 1_655 S
C618 C620 1.416 . S
C618 C626 1.424 . S
C619 H614 0.930 . S
C619 C621 1.390 . S
C619 C622 1.339 . S
C620 C618 1.416 . S
C620 C622 1.416 1_655 S
C620 C653 1.448 . S
C621 H606 0.930 . S
C621 N617 1.334 . S
C621 C619 1.390 . S
C622 C619 1.339 . S
C622 C620 1.416 1_455 S
C622 H629 0.930 . S
N623 Tb588 2.572 1_655 S
N623 C624 1.340 . S
N623 C626 1.361 . S
C624 H610 0.930 . S
C624 N623 1.340 . S
C624 C628 1.407 . S
C625 C626 1.413 . S
C625 C627 1.416 . S
C625 C654 1.427 . S
C626 C618 1.424 . S
C626 N623 1.361 . S
C626 C625 1.413 . S
C627 H616 0.931 . S
C627 C625 1.416 . S
C627 C628 1.332 . S
C628 H607 0.929 . S
C628 C624 1.407 . S
C628 C627 1.332 . S
H629 C622 0.930 . S
H630 C653 0.930 . S
H631 C654 0.929 . S
O632 Tb588 2.465 1_655 S
O632 C652 1.264 1_655 S
O633 Tb588 2.387 1_655 S
O633 C644 1.264 . S
O634 Tb599 2.367 . S
O634 C644 1.243 . S
O635 Tb588 2.428 . S
O635 C652 1.256 . S
O636 Tb588 2.308 1_655 S
O636 C651 1.266 . S
O637 Tb599 2.415 . S
O637 C651 1.248 . S
O638 Tb599 2.461 1_455 S
O638 C663 1.264 1_455 S
O639 Tb599 2.371 1_455 S
O639 C655 1.264 . S
O640 Tb588 2.349 . S
O640 C655 1.243 . S
O641 Tb599 2.443 . S
O641 C663 1.256 . S
O642 Tb599 2.289 1_455 S
O642 C662 1.266 . S
O643 Tb588 2.393 . S
O643 C662 1.248 . S
C644 O633 1.264 . S
C644 O634 1.243 . S
C645 C648 1.399 . S
C645 C650 1.383 . S
C645 C652 1.496 . S
C646 C647 1.399 . S
C646 C650 1.389 . S
C647 C646 1.399 . S
C647 C649 1.380 . S
C647 H664 0.929 . S
C648 C645 1.399 . S
C648 C649 1.392 . S
C648 H665 0.929 . S
C649 C647 1.380 . S
C649 C648 1.392 . S
C649 H666 0.929 . S
C650 C645 1.383 . S
C650 C646 1.389 . S
C650 H667 0.931 1_455 S
C651 O636 1.266 . S
C651 O637 1.248 . S
C652 Tb588 2.802 . S
C652 O632 1.264 1_455 S
C652 O635 1.256 . S
C652 C645 1.496 . S
C653 C620 1.448 . S
C653 H630 0.930 . S
C653 C654 1.328 . S
C654 C625 1.427 . S
C654 H631 0.929 . S
C654 C653 1.328 . S
C655 O639 1.264 . S
C655 O640 1.243 . S
C656 C659 1.399 . S
C656 C660 1.383 . S
C656 C663 1.496 . S
C657 C658 1.399 . S
C657 C660 1.389 . S
C658 C657 1.399 . S
C658 C661 1.380 . S
C658 H668 0.929 . S
C659 C656 1.399 . S
C659 C661 1.392 . S
C659 H669 0.929 . S
C660 C656 1.383 . S
C660 C657 1.389 . S
C660 H670 0.931 1_655 S
C661 C658 1.380 . S
C661 C659 1.392 . S
C661 H671 0.929 . S
C662 O642 1.266 . S
C662 O643 1.248 . S
C663 Tb599 2.808 . S
C663 O638 1.264 1_655 S
C663 O641 1.256 . S
C663 C656 1.496 . S
H664 C647 0.929 . S
H665 C648 0.929 . S
H666 C649 0.929 . S
H667 C650 0.931 1_655 S
H668 C658 0.929 . S
H669 C659 0.929 . S
H670 C660 0.931 1_455 S
H671 C661 0.929 . S
H672 C680 0.950 . S
H673 C685 0.950 . S
H674 C682 0.950 . S
H675 C684 0.950 . S
H676 C686 0.950 . S
H677 C688 0.950 . S
H678 C690 0.950 . S
H679 C691 0.950 . S
C680 H672 0.950 . S
C680 C681 1.386 . S
C680 C682 1.391 . S
C681 C680 1.386 . S
C681 C685 1.393 . S
C682 H674 0.950 . S
C682 C680 1.391 . S
C682 C683 1.400 . S
C683 C682 1.400 . S
C683 C684 1.398 . S
C683 C689 1.491 . S
C684 H675 0.950 . S
C684 C683 1.398 . S
C684 C685 1.391 . S
C685 H673 0.950 . S
C685 C681 1.393 . S
C685 C684 1.391 . S
C686 H676 0.950 . S
C686 C687 1.386 . S
C686 C688 1.391 . S
C687 C686 1.386 . S
C687 C691 1.393 . S
C688 H677 0.950 . S
C688 C686 1.391 . S
C688 C689 1.400 . S
C689 C683 1.491 . S
C689 C688 1.400 . S
C689 C690 1.398 . S
C690 H678 0.950 . S
C690 C689 1.398 . S
C690 C691 1.391 . S
C691 H679 0.950 . S
C691 C687 1.393 . S
C691 C690 1.391 . S
H692 C700 0.950 . S
H693 C705 0.950 . S
H694 C702 0.950 . S
H695 C704 0.950 . S
H696 C706 0.950 . S
H697 C708 0.950 . S
H698 C710 0.950 . S
H699 C711 0.950 . S
C700 H692 0.950 . S
C700 C701 1.386 . S
C700 C702 1.391 . S
C701 C700 1.386 . S
C701 C705 1.393 . S
C702 H694 0.950 . S
C702 C700 1.391 . S
C702 C703 1.400 . S
C703 C702 1.400 . S
C703 C704 1.398 . S
C703 C709 1.491 . S
C704 H695 0.950 . S
C704 C703 1.398 . S
C704 C705 1.391 . S
C705 H693 0.950 . S
C705 C701 1.393 . S
C705 C704 1.391 . S
C706 H696 0.950 . S
C706 C707 1.386 . S
C706 C708 1.391 . S
C707 C706 1.386 . S
C707 C711 1.393 . S
C708 H697 0.950 . S
C708 C706 1.391 . S
C708 C709 1.400 . S
C709 C703 1.491 . S
C709 C708 1.400 . S
C709 C710 1.398 . S
C710 H698 0.950 . S
C710 C709 1.398 . S
C710 C711 1.391 . S
C711 H699 0.950 . S
C711 C707 1.393 . S
C711 C710 1.391 . S
H712 C720 0.950 . S
H713 C725 0.950 . S
H714 C722 0.950 . S
H715 C724 0.950 . S
H716 C726 0.950 . S
H717 C728 0.950 . S
H718 C730 0.950 . S
H719 C731 0.950 . S
C720 H712 0.950 . S
C720 C721 1.386 . S
C720 C722 1.391 . S
C721 C720 1.386 . S
C721 C725 1.393 . S
C722 H714 0.950 . S
C722 C720 1.391 . S
C722 C723 1.400 . S
C723 C722 1.400 . S
C723 C724 1.398 . S
C723 C729 1.491 . S
C724 H715 0.950 . S
C724 C723 1.398 . S
C724 C725 1.391 . S
C725 H713 0.950 . S
C725 C721 1.393 . S
C725 C724 1.391 . S
C726 H716 0.950 . S
C726 C727 1.386 . S
C726 C728 1.391 . S
C727 C726 1.386 . S
C727 C731 1.393 . S
C728 H717 0.950 . S
C728 C726 1.391 . S
C728 C729 1.400 . S
C729 C723 1.491 . S
C729 C728 1.400 . S
C729 C730 1.398 . S
C730 H718 0.950 . S
C730 C729 1.398 . S
C730 C731 1.391 . S
C731 H719 0.950 . S
C731 C727 1.393 . S
C731 C730 1.391 . S
H732 C740 0.950 . S
H733 C745 0.950 . S
H734 C742 0.950 . S
H735 C744 0.950 . S
H736 C746 0.950 . S
H737 C748 0.950 . S
H738 C750 0.950 . S
H739 C751 0.950 . S
C740 H732 0.950 . S
C740 C741 1.386 . S
C740 C742 1.391 . S
C741 C740 1.386 . S
C741 C745 1.393 . S
C742 H734 0.950 . S
C742 C740 1.391 . S
C742 C743 1.400 . S
C743 C742 1.400 . S
C743 C744 1.398 . S
C743 C749 1.491 . S
C744 H735 0.950 . S
C744 C743 1.398 . S
C744 C745 1.391 . S
C745 H733 0.950 . S
C745 C741 1.393 . S
C745 C744 1.391 . S
C746 H736 0.950 . S
C746 C747 1.386 . S
C746 C748 1.391 . S
C747 C746 1.386 . S
C747 C751 1.393 . S
C748 H737 0.950 . S
C748 C746 1.391 . S
C748 C749 1.400 . S
C749 C743 1.491 . S
C749 C748 1.400 . S
C749 C750 1.398 . S
C750 H738 0.950 . S
C750 C749 1.398 . S
C750 C751 1.391 . S
C751 H739 0.950 . S
C751 C747 1.393 . S
C751 C750 1.391 . S
H752 C760 0.950 . S
H753 C765 0.950 . S
H754 C762 0.950 . S
H755 C764 0.950 . S
H756 C766 0.950 . S
H757 C768 0.950 . S
H758 C770 0.950 . S
H759 C771 0.950 . S
C760 H752 0.950 . S
C760 C761 1.386 . S
C760 C762 1.391 . S
C761 C760 1.386 . S
C761 C765 1.393 . S
C762 H754 0.950 . S
C762 C760 1.391 . S
C762 C763 1.400 . S
C763 C762 1.400 . S
C763 C764 1.398 . S
C763 C769 1.491 . S
C764 H755 0.950 . S
C764 C763 1.398 . S
C764 C765 1.391 . S
C765 H753 0.950 . S
C765 C761 1.393 . S
C765 C764 1.391 . S
C766 H756 0.950 . S
C766 C767 1.386 . S
C766 C768 1.391 . S
C767 C766 1.386 . S
C767 C771 1.393 . S
C768 H757 0.950 . S
C768 C766 1.391 . S
C768 C769 1.400 . S
C769 C763 1.491 . S
C769 C768 1.400 . S
C769 C770 1.398 . S
C770 H758 0.950 . S
C770 C769 1.398 . S
C770 C771 1.391 . S
C771 H759 0.950 . S
C771 C767 1.393 . S
C771 C770 1.391 . S
H772 C780 0.950 . S
H773 C785 0.950 . S
H774 C782 0.950 . S
H775 C784 0.950 . S
H776 C786 0.950 . S
H777 C788 0.950 . S
H778 C790 0.950 . S
H779 C791 0.950 . S
C780 H772 0.950 . S
C780 C781 1.386 . S
C780 C782 1.391 . S
C781 C780 1.386 . S
C781 C785 1.393 . S
C782 H774 0.950 . S
C782 C780 1.391 . S
C782 C783 1.400 . S
C783 C782 1.400 . S
C783 C784 1.398 . S
C783 C789 1.491 . S
C784 H775 0.950 . S
C784 C783 1.398 . S
C784 C785 1.391 . S
C785 H773 0.950 . S
C785 C781 1.393 . S
C785 C784 1.391 . S
C786 H776 0.950 . S
C786 C787 1.386 . S
C786 C788 1.391 . S
C787 C786 1.386 . S
C787 C791 1.393 . S
C788 H777 0.950 . S
C788 C786 1.391 . S
C788 C789 1.400 . S
C789 C783 1.491 . S
C789 C788 1.400 . S
C789 C790 1.398 . S
C790 H778 0.950 . S
C790 C789 1.398 . S
C790 C791 1.391 . S
C791 H779 0.950 . S
C791 C787 1.393 . S
C791 C790 1.391 . S
H792 C800 0.950 . S
H793 C805 0.950 . S
H794 C802 0.950 . S
H795 C804 0.950 . S
H796 C806 0.950 . S
H797 C808 0.950 . S
H798 C810 0.950 . S
H799 C811 0.950 . S
C800 H792 0.950 . S
C800 C801 1.386 . S
C800 C802 1.391 . S
C801 C800 1.386 . S
C801 C805 1.393 . S
C802 H794 0.950 . S
C802 C800 1.391 . S
C802 C803 1.400 . S
C803 C802 1.400 . S
C803 C804 1.398 . S
C803 C809 1.491 . S
C804 H795 0.950 . S
C804 C803 1.398 . S
C804 C805 1.391 . S
C805 H793 0.950 . S
C805 C801 1.393 . S
C805 C804 1.391 . S
C806 H796 0.950 . S
C806 C807 1.386 . S
C806 C808 1.391 . S
C807 C806 1.386 . S
C807 C811 1.393 . S
C808 H797 0.950 . S
C808 C806 1.391 . S
C808 C809 1.400 . S
C809 C803 1.491 . S
C809 C808 1.400 . S
C809 C810 1.398 . S
C810 H798 0.950 . S
C810 C809 1.398 . S
C810 C811 1.391 . S
C811 H799 0.950 . S
C811 C807 1.393 . S
C811 C810 1.391 . S
H812 C820 0.950 . S
H813 C825 0.950 . S
H814 C822 0.950 . S
H815 C824 0.950 . S
H816 C826 0.928 1_554 S
H817 C828 0.950 . S
H818 C830 0.950 . S
H819 C831 0.950 . S
C820 H812 0.950 . S
C820 C821 1.386 . S
C820 C822 1.391 . S
C821 C820 1.386 . S
C821 C825 1.393 . S
C822 H814 0.950 . S
C822 C820 1.391 . S
C822 C823 1.400 . S
C823 C822 1.400 . S
C823 C824 1.398 . S
C823 C829 1.491 . S
C824 H815 0.950 . S
C824 C823 1.398 . S
C824 C825 1.391 . S
C825 H813 0.950 . S
C825 C821 1.393 . S
C825 C824 1.391 . S
C826 H816 0.928 1_556 S
C826 C827 1.386 . S
C826 C828 1.391 . S
C827 C826 1.386 . S
C827 C831 1.393 . S
C828 H817 0.950 . S
C828 C826 1.391 . S
C828 C829 1.400 . S
C829 C823 1.491 . S
C829 C828 1.400 . S
C829 C830 1.398 . S
C830 H818 0.950 . S
C830 C829 1.398 . S
C830 C831 1.391 . S
C831 H819 0.950 . S
C831 C827 1.393 . S
C831 C830 1.391 . S
H832 C840 0.950 . S
H833 C845 0.950 . S
H834 C842 0.950 . S
H835 C844 0.950 . S
H836 C846 0.950 . S
H837 C848 0.950 . S
H838 C850 0.950 . S
H839 C851 0.950 . S
C840 H832 0.950 . S
C840 C841 1.386 . S
C840 C842 1.391 . S
C841 C840 1.386 . S
C841 C845 1.393 . S
C842 H834 0.950 . S
C842 C840 1.391 . S
C842 C843 1.400 . S
C843 C842 1.400 . S
C843 C844 1.398 . S
C843 C849 1.491 . S
C844 H835 0.950 . S
C844 C843 1.398 . S
C844 C845 1.391 . S
C845 H833 0.950 . S
C845 C841 1.393 . S
C845 C844 1.391 . S
C846 H836 0.950 . S
C846 C847 1.386 . S
C846 C848 1.391 . S
C847 C846 1.386 . S
C847 C851 1.393 . S
C848 H837 0.950 . S
C848 C846 1.391 . S
C848 C849 1.400 . S
C849 C843 1.491 . S
C849 C848 1.400 . S
C849 C850 1.398 . S
C850 H838 0.950 . S
C850 C849 1.398 . S
C850 C851 1.391 . S
C851 H839 0.950 . S
C851 C847 1.393 . S
C851 C850 1.391 . S
H852 C860 0.950 . S
H853 C865 0.950 . S
H854 C862 0.950 . S
H855 C864 0.950 . S
H856 C866 0.950 . S
H857 C868 0.950 . S
H858 C870 0.950 . S
H859 C871 0.950 . S
C860 H852 0.950 . S
C860 C861 1.386 . S
C860 C862 1.391 . S
C861 C860 1.386 . S
C861 C865 1.393 . S
C862 H854 0.950 . S
C862 C860 1.391 . S
C862 C863 1.400 . S
C863 C862 1.400 . S
C863 C864 1.398 . S
C863 C869 1.491 . S
C864 H855 0.950 . S
C864 C863 1.398 . S
C864 C865 1.391 . S
C865 H853 0.950 . S
C865 C861 1.393 . S
C865 C864 1.391 . S
C866 H856 0.950 . S
C866 C867 1.386 . S
C866 C868 1.391 . S
C867 C866 1.386 . S
C867 C871 1.393 . S
C868 H857 0.950 . S
C868 C866 1.391 . S
C868 C869 1.400 . S
C869 C863 1.491 . S
C869 C868 1.400 . S
C869 C870 1.398 . S
C870 H858 0.950 . S
C870 C869 1.398 . S
C870 C871 1.391 . S
C871 H859 0.950 . S
C871 C867 1.393 . S
C871 C870 1.391 . S
H872 C880 0.950 . S
H873 C885 0.950 . S
H874 C882 0.950 . S
H875 C884 0.950 . S
H876 C886 0.950 . S
H877 C888 0.950 . S
H878 C890 0.950 . S
H879 C891 0.950 . S
C880 H872 0.950 . S
C880 C881 1.386 . S
C880 C882 1.391 . S
C881 C880 1.386 . S
C881 C885 1.393 . S
C882 H874 0.950 . S
C882 C880 1.391 . S
C882 C883 1.400 . S
C883 C882 1.400 . S
C883 C884 1.398 . S
C883 C889 1.491 . S
C884 H875 0.950 . S
C884 C883 1.398 . S
C884 C885 1.391 . S
C885 H873 0.950 . S
C885 C881 1.393 . S
C885 C884 1.391 . S
C886 H876 0.950 . S
C886 C887 1.386 . S
C886 C888 1.391 . S
C887 C886 1.386 . S
C887 C891 1.393 . S
C888 H877 0.950 . S
C888 C886 1.391 . S
C888 C889 1.400 . S
C889 C883 1.491 . S
C889 C888 1.400 . S
C889 C890 1.398 . S
C890 H878 0.950 . S
C890 C889 1.398 . S
C890 C891 1.391 . S
C891 H879 0.950 . S
C891 C887 1.393 . S
C891 C890 1.391 . S
H892 C900 0.950 . S
H893 C905 0.950 . S
H894 C902 0.950 . S
H895 C904 0.950 . S
H896 C906 0.950 . S
H897 C908 0.950 . S
H898 C910 0.950 . S
H899 C911 0.950 . S
C900 H892 0.950 . S
C900 C901 1.386 . S
C900 C902 1.391 . S
C901 C900 1.386 . S
C901 C905 1.393 . S
C902 H894 0.950 . S
C902 C900 1.391 . S
C902 C903 1.400 . S
C903 C902 1.400 . S
C903 C904 1.398 . S
C903 C909 1.491 . S
C904 H895 0.950 . S
C904 C903 1.398 . S
C904 C905 1.391 . S
C905 H893 0.950 . S
C905 C901 1.393 . S
C905 C904 1.391 . S
C906 H896 0.950 . S
C906 C907 1.386 . S
C906 C908 1.391 . S
C907 C906 1.386 . S
C907 C911 1.393 . S
C908 H897 0.950 . S
C908 C906 1.391 . S
C908 C909 1.400 . S
C909 C903 1.491 . S
C909 C908 1.400 . S
C909 C910 1.398 . S
C910 H898 0.950 . S
C910 C909 1.398 . S
C910 C911 1.391 . S
C911 H899 0.950 . S
C911 C907 1.393 . S
C911 C910 1.391 . S
H912 C920 0.950 . S
H913 C925 0.950 . S
H914 C922 0.950 . S
H915 C924 0.950 . S
H916 C926 0.950 . S
H917 C928 0.950 . S
H918 C930 0.950 . S
H919 C931 0.950 . S
C920 H912 0.950 . S
C920 C921 1.386 . S
C920 C922 1.391 . S
C921 C920 1.386 . S
C921 C925 1.393 . S
C922 H914 0.950 . S
C922 C920 1.391 . S
C922 C923 1.400 . S
C923 C922 1.400 . S
C923 C924 1.398 . S
C923 C929 1.491 . S
C924 H915 0.950 . S
C924 C923 1.398 . S
C924 C925 1.391 . S
C925 H913 0.950 . S
C925 C921 1.393 . S
C925 C924 1.391 . S
C926 H916 0.950 . S
C926 C927 1.386 . S
C926 C928 1.391 . S
C927 C926 1.386 . S
C927 C931 1.393 . S
C928 H917 0.950 . S
C928 C926 1.391 . S
C928 C929 1.400 . S
C929 C923 1.491 . S
C929 C928 1.400 . S
C929 C930 1.398 . S
C930 H918 0.950 . S
C930 C929 1.398 . S
C930 C931 1.391 . S
C931 H919 0.950 . S
C931 C927 1.393 . S
C931 C930 1.391 . S
H932 C940 0.950 . S
H933 C945 0.950 . S
H934 C942 0.950 . S
H935 C944 0.950 . S
H936 C946 0.950 . S
H937 C948 0.950 . S
H938 C950 0.950 . S
H939 C951 0.950 . S
C940 H932 0.950 . S
C940 C941 1.386 . S
C940 C942 1.391 . S
C941 C940 1.386 . S
C941 C945 1.393 . S
C942 H934 0.950 . S
C942 C940 1.391 . S
C942 C943 1.400 . S
C943 C942 1.400 . S
C943 C944 1.398 . S
C943 C949 1.491 . S
C944 H935 0.950 . S
C944 C943 1.398 . S
C944 C945 1.391 . S
C945 H933 0.950 . S
C945 C941 1.393 . S
C945 C944 1.391 . S
C946 H936 0.950 . S
C946 C947 1.386 . S
C946 C948 1.391 . S
C947 C946 1.386 . S
C947 C951 1.393 . S
C948 H937 0.950 . S
C948 C946 1.391 . S
C948 C949 1.400 . S
C949 C943 1.491 . S
C949 C948 1.400 . S
C949 C950 1.398 . S
C950 H938 0.950 . S
C950 C949 1.398 . S
C950 C951 1.391 . S
C951 H939 0.950 . S
C951 C947 1.393 . S
C951 C950 1.391 . S
H952 C960 0.950 . S
H953 C965 0.950 . S
H954 C962 0.950 . S
H955 C964 0.950 . S
H956 C966 0.950 . S
H957 C968 0.950 . S
H958 C970 0.950 . S
H959 C971 0.950 . S
C960 H952 0.950 . S
C960 C961 1.386 . S
C960 C962 1.391 . S
C961 C960 1.386 . S
C961 C965 1.393 . S
C962 H954 0.950 . S
C962 C960 1.391 . S
C962 C963 1.400 . S
C963 C962 1.400 . S
C963 C964 1.398 . S
C963 C969 1.491 . S
C964 H955 0.950 . S
C964 C963 1.398 . S
C964 C965 1.391 . S
C965 H953 0.950 . S
C965 C961 1.393 . S
C965 C964 1.391 . S
C966 H956 0.950 . S
C966 C967 1.386 . S
C966 C968 1.391 . S
C967 C966 1.386 . S
C967 C971 1.393 . S
C968 H957 0.950 . S
C968 C966 1.391 . S
C968 C969 1.400 . S
C969 C963 1.491 . S
C969 C968 1.400 . S
C969 C970 1.398 . S
C970 H958 0.950 . S
C970 C969 1.398 . S
C970 C971 1.391 . S
C971 H959 0.950 . S
C971 C967 1.393 . S
C971 C970 1.391 . S
H972 C980 0.950 . S
H973 C985 0.950 . S
H974 C982 0.950 . S
H975 C984 0.950 . S
H976 C986 0.950 . S
H977 C988 0.950 . S
H978 C990 0.950 . S
H979 C991 0.950 . S
C980 H972 0.950 . S
C980 C981 1.386 . S
C980 C982 1.391 . S
C981 C980 1.386 . S
C981 C985 1.393 . S
C982 H974 0.950 . S
C982 C980 1.391 . S
C982 C983 1.400 . S
C983 C982 1.400 . S
C983 C984 1.398 . S
C983 C989 1.491 . S
C984 H975 0.950 . S
C984 C983 1.398 . S
C984 C985 1.391 . S
C985 H973 0.950 . S
C985 C981 1.393 . S
C985 C984 1.391 . S
C986 H976 0.950 . S
C986 C987 1.386 . S
C986 C988 1.391 . S
C987 C986 1.386 . S
C987 C991 1.393 . S
C988 H977 0.950 . S
C988 C986 1.391 . S
C988 C989 1.400 . S
C989 C983 1.491 . S
C989 C988 1.400 . S
C989 C990 1.398 . S
C990 H978 0.950 . S
C990 C989 1.398 . S
C990 C991 1.391 . S
C991 H979 0.950 . S
C991 C987 1.393 . S
C991 C990 1.391 . S
H992 C1000 0.950 . S
H993 C1005 0.950 . S
H994 C1002 0.950 . S
H995 C1004 0.950 . S
H996 C1006 0.950 . S
H997 C1008 0.950 . S
H998 C1010 0.950 . S
H999 C1011 0.950 . S
C1000 H992 0.950 . S
C1000 C1001 1.386 1_545 S
C1000 C1002 1.391 . S
C1001 C1000 1.386 1_565 S
C1001 C1005 1.393 1_655 S
C1002 H994 0.950 . S
C1002 C1000 1.391 . S
C1002 C1003 1.416 1_545 S
C1003 C1002 1.416 1_565 S
C1003 C1004 1.384 1_655 S
C1003 C1009 1.489 1_666 S
C1004 H995 0.950 . S
C1004 C1003 1.384 1_455 S
C1004 C1005 1.391 . S
C1005 H993 0.950 . S
C1005 C1001 1.393 1_455 S
C1005 C1004 1.391 . S
C1006 H996 0.950 . S
C1006 C1007 1.386 1_565 S
C1006 C1008 1.391 . S
C1007 C1006 1.386 1_545 S
C1007 C1011 1.393 1_455 S
C1008 H997 0.950 . S
C1008 C1006 1.391 . S
C1008 C1009 1.421 1_565 S
C1009 C1003 1.489 1_444 S
C1009 C1008 1.421 1_545 S
C1009 C1010 1.380 1_455 S
C1010 H998 0.950 . S
C1010 C1009 1.380 1_655 S
C1010 C1011 1.391 . S
C1011 H999 0.950 . S
C1011 C1007 1.393 1_655 S
C1011 C1010 1.391 . S
H1012 C1020 0.950 . S
H1013 C1025 0.950 . S
H1014 C1022 0.950 . S
H1015 C1024 0.950 . S
H1016 C1026 0.950 . S
H1017 C1028 0.950 . S
H1018 C1030 0.950 . S
H1019 C1031 0.950 . S
C1020 H1012 0.950 . S
C1020 C1021 1.386 . S
C1020 C1022 1.391 . S
C1021 C1020 1.386 . S
C1021 C1025 1.393 . S
C1022 H1014 0.950 . S
C1022 C1020 1.391 . S
C1022 C1023 1.400 . S
C1023 C1022 1.400 . S
C1023 C1024 1.398 . S
C1023 C1029 1.491 . S
C1024 H1015 0.950 . S
C1024 C1023 1.398 . S
C1024 C1025 1.391 . S
C1025 H1013 0.950 . S
C1025 C1021 1.393 . S
C1025 C1024 1.391 . S
C1026 H1016 0.950 . S
C1026 C1027 1.386 . S
C1026 C1028 1.391 . S
C1027 C1026 1.386 . S
C1027 C1031 1.393 . S
C1028 H1017 0.950 . S
C1028 C1026 1.391 . S
C1028 C1029 1.400 . S
C1029 C1023 1.491 . S
C1029 C1028 1.400 . S
C1029 C1030 1.398 . S
C1030 H1018 0.950 . S
C1030 C1029 1.398 . S
C1030 C1031 1.391 . S
C1031 H1019 0.950 . S
C1031 C1027 1.393 . S
C1031 C1030 1.391 . S
H1032 C1040 0.950 . S
H1033 C1045 0.950 . S
H1034 C1042 0.950 . S
H1035 C1044 0.950 . S
H1036 C1046 0.950 . S
H1037 C1048 0.950 . S
H1038 C1050 0.950 . S
H1039 C1051 0.950 . S
C1040 H1032 0.950 . S
C1040 C1041 1.386 1_545 S
C1040 C1042 1.391 . S
C1041 C1040 1.386 1_565 S
C1041 C1045 1.393 . S
C1042 H1034 0.950 . S
C1042 C1040 1.391 . S
C1042 C1043 1.400 1_545 S
C1043 C1042 1.400 1_565 S
C1043 C1044 1.398 . S
C1043 C1049 1.491 1_565 S
C1044 H1035 0.950 . S
C1044 C1043 1.398 . S
C1044 C1045 1.391 . S
C1045 H1033 0.950 . S
C1045 C1041 1.393 . S
C1045 C1044 1.391 . S
C1046 H1036 0.950 . S
C1046 C1047 1.386 1_565 S
C1046 C1048 1.391 . S
C1047 C1046 1.386 1_545 S
C1047 C1051 1.393 . S
C1048 H1037 0.950 . S
C1048 C1046 1.391 . S
C1048 C1049 1.400 1_565 S
C1049 C1043 1.491 1_545 S
C1049 C1048 1.400 1_545 S
C1049 C1050 1.398 . S
C1050 H1038 0.950 . S
C1050 C1049 1.398 . S
C1050 C1051 1.391 . S
C1051 H1039 0.950 . S
C1051 C1047 1.393 . S
C1051 C1050 1.391 . S
H1052 C1060 0.950 . S
H1053 C1065 0.950 . S
H1054 C1062 0.950 . S
H1055 C1064 0.950 . S
H1056 C1066 0.950 . S
H1057 C1068 0.950 . S
H1058 C1070 0.950 . S
H1059 C1071 0.950 . S
C1060 H1052 0.950 . S
C1060 C1061 1.386 . S
C1060 C1062 1.391 . S
C1061 C1060 1.386 . S
C1061 C1065 1.393 . S
C1062 H1054 0.950 . S
C1062 C1060 1.391 . S
C1062 C1063 1.400 . S
C1063 C1062 1.400 . S
C1063 C1064 1.398 . S
C1063 C1069 1.491 . S
C1064 H1055 0.950 . S
C1064 C1063 1.398 . S
C1064 C1065 1.391 . S
C1065 H1053 0.950 . S
C1065 C1061 1.393 . S
C1065 C1064 1.391 . S
C1066 H1056 0.950 . S
C1066 C1067 1.386 . S
C1066 C1068 1.391 . S
C1067 C1066 1.386 . S
C1067 C1071 1.393 . S
C1068 H1057 0.950 . S
C1068 C1066 1.391 . S
C1068 C1069 1.400 . S
C1069 C1063 1.491 . S
C1069 C1068 1.400 . S
C1069 C1070 1.398 . S
C1070 H1058 0.950 . S
C1070 C1069 1.398 . S
C1070 C1071 1.391 . S
C1071 H1059 0.950 . S
C1071 C1067 1.393 . S
C1071 C1070 1.391 . S
H1072 C1080 0.950 . S
H1073 C1085 0.950 . S
H1074 C1082 0.950 . S
H1075 C1084 0.950 . S
H1076 C1086 0.950 . S
H1077 C1088 0.950 . S
H1078 C1090 0.950 . S
H1079 C1091 0.950 . S
C1080 H1072 0.950 . S
C1080 C1081 1.386 . S
C1080 C1082 1.391 . S
C1081 C1080 1.386 . S
C1081 C1085 1.393 . S
C1082 H1074 0.950 . S
C1082 C1080 1.391 . S
C1082 C1083 1.400 . S
C1083 C1082 1.400 . S
C1083 C1084 1.398 . S
C1083 C1089 1.491 . S
C1084 H1075 0.950 . S
C1084 C1083 1.398 . S
C1084 C1085 1.391 . S
C1085 H1073 0.950 . S
C1085 C1081 1.393 . S
C1085 C1084 1.391 . S
C1086 H1076 0.950 . S
C1086 C1087 1.386 . S
C1086 C1088 1.391 . S
C1087 C1086 1.386 . S
C1087 C1091 1.393 . S
C1088 H1077 0.950 . S
C1088 C1086 1.391 . S
C1088 C1089 1.400 . S
C1089 C1083 1.491 . S
C1089 C1088 1.400 . S
C1089 C1090 1.398 . S
C1090 H1078 0.950 . S
C1090 C1089 1.398 . S
C1090 C1091 1.391 . S
C1091 H1079 0.950 . S
C1091 C1087 1.393 . S
C1091 C1090 1.391 . S
H1092 C1100 0.950 . S
H1093 C1105 0.950 . S
H1094 C1102 0.950 . S
H1095 C1104 0.950 . S
H1096 C1106 0.950 . S
H1097 C1108 0.950 . S
H1098 C1110 0.950 . S
H1099 C1111 0.950 . S
C1100 H1092 0.950 . S
C1100 C1101 1.386 . S
C1100 C1102 1.391 . S
C1101 C1100 1.386 . S
C1101 C1105 1.393 . S
C1102 H1094 0.950 . S
C1102 C1100 1.391 . S
C1102 C1103 1.400 . S
C1103 C1102 1.400 . S
C1103 C1104 1.398 . S
C1103 C1109 1.491 . S
C1104 H1095 0.950 . S
C1104 C1103 1.398 . S
C1104 C1105 1.391 . S
C1105 H1093 0.950 . S
C1105 C1101 1.393 . S
C1105 C1104 1.391 . S
C1106 H1096 0.950 . S
C1106 C1107 1.386 . S
C1106 C1108 1.391 . S
C1107 C1106 1.386 . S
C1107 C1111 1.393 . S
C1108 H1097 0.950 . S
C1108 C1106 1.391 . S
C1108 C1109 1.400 . S
C1109 C1103 1.491 . S
C1109 C1108 1.400 . S
C1109 C1110 1.398 . S
C1110 H1098 0.950 . S
C1110 C1109 1.398 . S
C1110 C1111 1.391 . S
C1111 H1099 0.950 . S
C1111 C1107 1.393 . S
C1111 C1110 1.391 . S
H1112 C1120 0.950 . S
H1113 C1125 0.950 . S
H1114 C1122 0.950 . S
H1115 C1124 0.950 . S
H1116 C1126 0.950 . S
H1117 C1128 0.950 . S
H1118 C1130 0.950 . S
H1119 C1131 0.950 . S
C1120 H1112 0.950 . S
C1120 C1121 1.386 . S
C1120 C1122 1.391 . S
C1121 C1120 1.386 . S
C1121 C1125 1.393 . S
C1122 H1114 0.950 . S
C1122 C1120 1.391 . S
C1122 C1123 1.400 . S
C1123 C1122 1.400 . S
C1123 C1124 1.398 . S
C1123 C1129 1.491 . S
C1124 H1115 0.950 . S
C1124 C1123 1.398 . S
C1124 C1125 1.391 . S
C1125 H1113 0.950 . S
C1125 C1121 1.393 . S
C1125 C1124 1.391 . S
C1126 H1116 0.950 . S
C1126 C1127 1.386 . S
C1126 C1128 1.391 . S
C1127 C1126 1.386 . S
C1127 C1131 1.393 . S
C1128 H1117 0.950 . S
C1128 C1126 1.391 . S
C1128 C1129 1.400 . S
C1129 C1123 1.491 . S
C1129 C1128 1.400 . S
C1129 C1130 1.398 . S
C1130 H1118 0.950 . S
C1130 C1129 1.398 . S
C1130 C1131 1.391 . S
C1131 H1119 0.950 . S
C1131 C1127 1.393 . S
C1131 C1130 1.391 . S
H1132 C1140 0.950 . S
H1133 C1145 0.950 . S
H1134 C1142 0.950 . S
H1135 C1144 0.950 . S
H1136 C1146 0.950 . S
H1137 C1148 0.950 . S
H1138 C1150 0.950 . S
H1139 C1151 0.950 . S
C1140 H1132 0.950 . S
C1140 C1141 1.386 1_655 S
C1140 C1142 1.391 . S
C1141 C1140 1.386 1_455 S
C1141 C1145 1.393 . S
C1142 H1134 0.950 . S
C1142 C1140 1.391 . S
C1142 C1143 1.402 1_655 S
C1143 C1142 1.402 1_455 S
C1143 C1144 1.397 . S
C1143 C1149 1.491 1_556 S
C1144 H1135 0.950 . S
C1144 C1143 1.397 . S
C1144 C1145 1.391 . S
C1145 H1133 0.950 . S
C1145 C1141 1.393 . S
C1145 C1144 1.391 . S
C1146 H1136 0.950 . S
C1146 C1147 1.368 1_455 S
C1146 C1148 1.391 . S
C1147 C1146 1.368 1_655 S
C1147 C1151 1.410 . S
C1148 H1137 0.950 . S
C1148 C1146 1.391 . S
C1148 C1149 1.402 . S
C1149 C1143 1.491 1_554 S
C1149 C1148 1.402 . S
C1149 C1150 1.397 1_455 S
C1150 H1138 0.950 . S
C1150 C1149 1.397 1_655 S
C1150 C1151 1.391 . S
C1151 H1139 0.950 . S
C1151 C1147 1.410 . S
C1151 C1150 1.391 . S
C681 C56 1.497 . S
C687 C308 1.498 . S
C701 C63 1.491 . S
C707 C140 1.503 . S
C721 C147 1.496 . S
C727 C224 1.507 . S
C741 C231 1.500 . S
C747 C315 1.497 . S
C761 C67 1.496 . S
C767 C487 1.511 . S
C781 C74 1.495 . S
C787 C403 1.496 . S
C801 C410 1.495 . S
C807 C235 1.490 . S
C821 C494 1.496 . S
C827 C242 1.498 . S
C841 C560 1.504 . S
C847 C476 1.503 . S
C861 C392 1.496 . S
C867 C567 1.499 . S
C881 C644 1.493 . S
C887 C399 1.496 . S
C901 C483 1.499 . S
C907 C651 1.502 . S
C921 C319 1.507 . S
C927 C571 1.498 . S
C941 C578 1.500 . S
C947 C151 1.497 . S
C961 C158 1.500 . S
C967 C655 1.493 . S
C981 C326 1.495 . S
C987 C662 1.491 . S
C1001 C58 1.361 1_565 S
C1007 C69 1.361 1_545 S
C1021 C153 1.364 . S
C1027 C142 1.364 . S
C1041 C237 1.371 1_565 S
C1047 C226 1.371 1_545 S
C1061 C310 1.367 . S
C1067 C321 1.367 . S
C1081 C405 1.368 . S
C1087 C394 1.368 . S
C1101 C478 1.330 . S
C1107 C489 1.330 . S
C1121 C573 1.359 . S
C1127 C562 1.359 . S
C1141 C646 1.353 . S
C1147 C657 1.364 . S
