# Generated by pormake.
# Topology wkj, (6)-cn, num edge types: 1
# Building blocks:
#     Node 0, Type 0, BuildingBlock: CUWYAW_clean_sbu_0, # of connection points: 6
#     Node 1, Type 0, BuildingBlock: CUWYAW_clean_sbu_0, # of connection points: 6
#     Node 2, Type 0, BuildingBlock: CUWYAW_clean_sbu_0, # of connection points: 6
#     Node 3, Type 0, BuildingBlock: CUWYAW_clean_sbu_0, # of connection points: 6
#     Node 4, Type 0, BuildingBlock: CUWYAW_clean_sbu_0, # of connection points: 6
#     Node 5, Type 0, BuildingBlock: CUWYAW_clean_sbu_0, # of connection points: 6
#     Node 6, Type 0, BuildingBlock: CUWYAW_clean_sbu_0, # of connection points: 6
#     Node 7, Type 0, BuildingBlock: CUWYAW_clean_sbu_0, # of connection points: 6
#     Node 8, Type 0, BuildingBlock: CUWYAW_clean_sbu_0, # of connection points: 6
#     Node 9, Type 0, BuildingBlock: CUWYAW_clean_sbu_0, # of connection points: 6
#     Node 10, Type 0, BuildingBlock: CUWYAW_clean_sbu_0, # of connection points: 6
#     Node 11, Type 0, BuildingBlock: CUWYAW_clean_sbu_0, # of connection points: 6
#     Edge 12, Type (0, 0), BuildingBlock: OJICUG_clean_linker_0, # of connection points: 2
#     Edge 13, Type (0, 0), BuildingBlock: OJICUG_clean_linker_0, # of connection points: 2
#     Edge 14, Type (0, 0), BuildingBlock: OJICUG_clean_linker_0, # of connection points: 2
#     Edge 15, Type (0, 0), BuildingBlock: OJICUG_clean_linker_0, # of connection points: 2
#     Edge 16, Type (0, 0), BuildingBlock: OJICUG_clean_linker_0, # of connection points: 2
#     Edge 17, Type (0, 0), BuildingBlock: OJICUG_clean_linker_0, # of connection points: 2
#     Edge 18, Type (0, 0), BuildingBlock: OJICUG_clean_linker_0, # of connection points: 2
#     Edge 19, Type (0, 0), BuildingBlock: OJICUG_clean_linker_0, # of connection points: 2
#     Edge 20, Type (0, 0), BuildingBlock: OJICUG_clean_linker_0, # of connection points: 2
#     Edge 21, Type (0, 0), BuildingBlock: OJICUG_clean_linker_0, # of connection points: 2
#     Edge 22, Type (0, 0), BuildingBlock: OJICUG_clean_linker_0, # of connection points: 2
#     Edge 23, Type (0, 0), BuildingBlock: OJICUG_clean_linker_0, # of connection points: 2
#     Edge 24, Type (0, 0), BuildingBlock: OJICUG_clean_linker_0, # of connection points: 2
#     Edge 25, Type (0, 0), BuildingBlock: OJICUG_clean_linker_0, # of connection points: 2
#     Edge 26, Type (0, 0), BuildingBlock: OJICUG_clean_linker_0, # of connection points: 2
#     Edge 27, Type (0, 0), BuildingBlock: OJICUG_clean_linker_0, # of connection points: 2
#     Edge 28, Type (0, 0), BuildingBlock: OJICUG_clean_linker_0, # of connection points: 2
#     Edge 29, Type (0, 0), BuildingBlock: OJICUG_clean_linker_0, # of connection points: 2
#     Edge 30, Type (0, 0), BuildingBlock: OJICUG_clean_linker_0, # of connection points: 2
#     Edge 31, Type (0, 0), BuildingBlock: OJICUG_clean_linker_0, # of connection points: 2
#     Edge 32, Type (0, 0), BuildingBlock: OJICUG_clean_linker_0, # of connection points: 2
#     Edge 33, Type (0, 0), BuildingBlock: OJICUG_clean_linker_0, # of connection points: 2
#     Edge 34, Type (0, 0), BuildingBlock: OJICUG_clean_linker_0, # of connection points: 2
#     Edge 35, Type (0, 0), BuildingBlock: OJICUG_clean_linker_0, # of connection points: 2
#     Edge 36, Type (0, 0), BuildingBlock: OJICUG_clean_linker_0, # of connection points: 2
#     Edge 37, Type (0, 0), BuildingBlock: OJICUG_clean_linker_0, # of connection points: 2
#     Edge 38, Type (0, 0), BuildingBlock: OJICUG_clean_linker_0, # of connection points: 2
#     Edge 39, Type (0, 0), BuildingBlock: OJICUG_clean_linker_0, # of connection points: 2
#     Edge 40, Type (0, 0), BuildingBlock: OJICUG_clean_linker_0, # of connection points: 2
#     Edge 41, Type (0, 0), BuildingBlock: OJICUG_clean_linker_0, # of connection points: 2
#     Edge 42, Type (0, 0), BuildingBlock: OJICUG_clean_linker_0, # of connection points: 2
#     Edge 43, Type (0, 0), BuildingBlock: OJICUG_clean_linker_0, # of connection points: 2
#     Edge 44, Type (0, 0), BuildingBlock: OJICUG_clean_linker_0, # of connection points: 2
#     Edge 45, Type (0, 0), BuildingBlock: OJICUG_clean_linker_0, # of connection points: 2
#     Edge 46, Type (0, 0), BuildingBlock: OJICUG_clean_linker_0, # of connection points: 2
#     Edge 47, Type (0, 0), BuildingBlock: OJICUG_clean_linker_0, # of connection points: 2
# Relax obj value: 1.157
# Max RMSD: 0.183
# Mean RMSD: 0.183
data_MOF--net-wkj--node1-CUWYAW_clean_sbu_0--edge1-OJICUG_clean_linker_0
_symmetry_space_group_name_H-M    P1
_symmetry_Int_Tables_number       1
_symmetry_cell_setting            triclinic
loop_
_symmetry_equiv_pos_as_xyz
'x, y, z'
_cell_length_a     38.028137
_cell_length_b     38.235031
_cell_length_c     21.058845
_cell_angle_alpha  89.902069
_cell_angle_beta   89.392502
_cell_angle_gamma 119.57819
loop_
_atom_site_label
_atom_site_type_symbol
_atom_site_fract_x
_atom_site_fract_y
_atom_site_fract_z
_atom_type_partial_charge
C0 C 0.59712 0.13488 0.37712 0.0
Eu1 Eu 0.52779 0.10014 0.43794 0.0
C2 C 0.63353 0.17453 0.372 0.0
C3 C 0.65974 0.18212 0.3204 0.0
C4 C 0.68637 0.22159 0.30139 0.0
C5 C 0.68632 0.25425 0.33281 0.0
C6 C 0.66583 0.24615 0.39204 0.0
C7 C 0.63862 0.2065 0.41056 0.0
C8 C 0.49541 0.03655 0.51096 0.0
C9 C 0.451 0.03086 0.34365 0.0
C10 C 0.37914 0.06916 0.51694 0.0
Eu11 Eu 0.44765 0.07965 0.47067 0.0
C12 C 0.37091 0.09074 0.56692 0.0
C13 C 0.3326 0.07321 0.59541 0.0
C14 C 0.32747 0.08695 0.65418 0.0
C15 C 0.36087 0.11803 0.68554 0.0
C16 C 0.39789 0.13909 0.65235 0.0
C17 C 0.40298 0.12525 0.59356 0.0
C18 C 0.49078 0.15418 0.41244 0.0
C19 C 0.51507 0.11064 0.59024 0.0
O20 O 0.59101 0.11475 0.43001 0.0
O21 O 0.56413 0.13317 0.35578 0.0
O22 O 0.53424 0.06 0.50741 0.0
O23 O 0.47657 0.04242 0.46659 0.0
O24 O 0.49102 0.05631 0.3509 0.0
O25 O 0.42677 0.03183 0.38912 0.0
O26 O 0.39662 0.04924 0.53641 0.0
O27 O 0.39586 0.0895 0.46518 0.0
O28 O 0.45739 0.12468 0.39208 0.0
O29 O 0.50254 0.14092 0.4578 0.0
O30 O 0.47619 0.09379 0.57338 0.0
O31 O 0.54274 0.12155 0.54348 0.0
H32 H 0.65684 0.15765 0.2909 0.0
H33 H 0.70267 0.22558 0.25725 0.0
H34 H 0.66708 0.27021 0.4205 0.0
H35 H 0.61924 0.20107 0.45179 0.0
H36 H 0.30756 0.04665 0.5752 0.0
H37 H 0.29848 0.0698 0.67812 0.0
H38 H 0.42402 0.16338 0.67482 0.0
H39 H 0.43282 0.13921 0.57177 0.0
C40 C 0.39002 0.57822 0.71549 0.0
Eu41 Eu 0.36614 0.50766 0.76577 0.0
C42 C 0.37885 0.60922 0.72772 0.0
C43 C 0.34687 0.60155 0.76966 0.0
C44 C 0.32794 0.62493 0.76645 0.0
C45 C 0.33955 0.65485 0.71893 0.0
C46 C 0.37684 0.66719 0.68676 0.0
C47 C 0.39574 0.64392 0.69013 0.0
C48 C 0.40437 0.48379 0.84181 0.0
C49 C 0.37455 0.43932 0.67054 0.0
C50 C 0.26583 0.35084 0.82937 0.0
Eu51 Eu 0.31679 0.42499 0.79744 0.0
C52 C 0.24711 0.32129 0.88019 0.0
C53 C 0.22265 0.28078 0.86431 0.0
C54 C 0.20611 0.25146 0.9119 0.0
C55 C 0.21392 0.26249 0.97589 0.0
C56 C 0.23654 0.3036 0.99142 0.0
C57 C 0.2531 0.33282 0.9438 0.0
C58 C 0.27771 0.45472 0.72398 0.0
C59 C 0.34243 0.49026 0.9187 0.0
O60 O 0.40974 0.5719 0.76013 0.0
O61 O 0.36113 0.5448 0.69211 0.0
O62 O 0.41297 0.52104 0.83924 0.0
O63 O 0.38236 0.4631 0.79664 0.0
O64 O 0.38307 0.47776 0.67856 0.0
O65 O 0.35086 0.41275 0.71461 0.0
O66 O 0.30388 0.36347 0.81579 0.0
O67 O 0.25667 0.37948 0.82772 0.0
O68 O 0.28291 0.42478 0.70961 0.0
O69 O 0.29861 0.47132 0.77285 0.0
O70 O 0.32819 0.45178 0.90176 0.0
O71 O 0.35291 0.51747 0.8717 0.0
H72 H 0.33416 0.57534 0.80057 0.0
H73 H 0.30101 0.61594 0.79521 0.0
H74 H 0.38877 0.69127 0.65193 0.0
H75 H 0.42122 0.65093 0.65882 0.0
H76 H 0.21738 0.27171 0.81502 0.0
H77 H 0.18896 0.2201 0.89869 0.0
H78 H 0.24392 0.31309 1.04021 0.0
H79 H 0.27168 0.36415 0.95649 0.0
C80 C 0.78728 0.42421 1.05878 0.0
Eu81 Eu 0.82955 0.39288 1.10289 0.0
C82 C 0.7433 0.40685 1.05189 0.0
C83 C 0.71976 0.36594 1.03866 0.0
C84 C 0.67934 0.34984 1.02334 0.0
C85 C 0.66043 0.37371 1.02274 0.0
C86 C 0.68338 0.41405 1.04241 0.0
C87 C 0.72464 0.4306 1.05621 0.0
C88 C 0.90076 0.42334 1.15727 0.0
C89 C 0.89419 0.38597 0.99484 0.0
C90 C 0.87326 0.27844 1.15515 0.0
Eu91 Eu 0.85376 0.33354 1.12971 0.0
C92 C 0.88085 0.25477 1.20184 0.0
C93 C 0.89614 0.23004 1.18083 0.0
C94 C 0.90559 0.20847 1.22444 0.0
C95 C 0.89978 0.21136 0.28974 0.0
C96 C 0.88252 0.23482 0.31008 0.0
C97 C 0.87314 0.25636 0.26644 0.0
C98 C 0.77967 0.30181 1.07107 0.0
C99 C 0.83074 0.3754 0.25634 0.0
O100 O 0.80034 0.4294 1.1168 0.0
O101 O 0.804 0.40842 1.02286 0.0
O102 O 0.87879 0.44054 1.16296 0.0
O103 O 0.88782 0.39731 1.11528 0.0
O104 O 0.86935 0.40099 1.00821 0.0
O105 O 0.89501 0.36045 1.0378 0.0
O106 O 0.89979 0.31662 1.14927 0.0
O107 O 0.83614 0.27124 1.15046 0.0
O108 O 0.81037 0.2991 1.05064 0.0
O109 O 0.79151 0.32596 1.11755 0.0
O110 O 0.84696 0.35274 0.23623 0.0
O111 O 0.81691 0.39036 1.21195 0.0
H112 H 0.73323 0.34676 1.0361 0.0
H113 H 0.66447 0.31944 1.00594 0.0
H114 H 0.67021 0.43352 1.043 0.0
H115 H 0.74226 0.4622 1.06774 0.0
H116 H 0.90176 0.22824 1.1307 0.0
H117 H 0.91887 0.19083 1.20732 0.0
H118 H 0.87852 0.23865 0.36009 0.0
H119 H 0.86109 0.27517 0.28319 0.0
C120 C 0.3203 0.78289 0.37278 0.0
Eu121 Eu 0.3884 0.82588 0.43181 0.0
C122 C 0.29011 0.74002 0.37145 0.0
C123 C 0.26357 0.72512 0.3205 0.0
C124 C 0.24392 0.68409 0.30715 0.0
C125 C 0.25144 0.6575 0.34383 0.0
C126 C 0.27277 0.67196 0.40077 0.0
C127 C 0.29254 0.71309 0.41399 0.0
C128 C 0.41364 0.89216 0.49606 0.0
C129 C 0.46286 0.90111 0.33916 0.0
C130 C 0.54224 0.88278 0.5101 0.0
Eu131 Eu 0.4689 0.85518 0.46871 0.0
C132 C 0.57709 0.9224 0.52154 0.0
C133 C 0.57884 0.95737 0.49695 0.0
C134 C 0.61077 -0.00484 0.51288 0.0
C135 C 0.64112 -0.0016 0.55414 0.0
C136 C 0.6403 0.96295 0.57502 0.0
C137 C 0.60855 0.92532 0.55881 0.0
C138 C 0.43686 0.77972 0.41186 0.0
C139 C 0.39997 0.82452 0.58825 0.0
O140 O 0.32315 0.8018 0.42556 0.0
O141 O 0.35568 0.79173 0.34914 0.0
O142 O 0.37554 0.86573 0.49411 0.0
O143 O 0.43462 0.88627 0.45538 0.0
O144 O 0.42411 0.87074 0.34305 0.0
O145 O 0.48579 0.90437 0.38883 0.0
O146 O 0.53222 0.87451 0.45085 0.0
O147 O 0.51092 0.87167 0.54774 0.0
O148 O 0.47026 0.81151 0.3971 0.0
O149 O 0.41955 0.79008 0.45384 0.0
O150 O 0.43924 0.84362 0.57169 0.0
O151 O 0.37323 0.80949 0.54088 0.0
H152 H 0.26108 0.74554 0.28748 0.0
H153 H 0.22744 0.67462 0.26314 0.0
H154 H 0.27853 0.65242 0.43061 0.0
H155 H 0.31274 0.7243 0.45394 0.0
H156 H 0.55483 0.95548 0.46738 0.0
H157 H 0.61057 0.02176 0.49567 0.0
H158 H 0.66252 0.96399 0.60784 0.0
H159 H 0.60769 0.89851 0.57765 0.0
C160 C 0.51848 0.33777 0.6993 0.0
Eu161 Eu 0.53293 0.40376 0.75714 0.0
C162 C 0.53795 0.31285 0.69733 0.0
C163 C 0.51766 0.27405 0.67227 0.0
C164 C 0.5395 0.25516 0.65315 0.0
C165 C 0.5823 0.27621 0.65468 0.0
C166 C 0.60092 0.31187 0.69089 0.0
C167 C 0.57881 0.32978 0.71229 0.0
C168 C 0.48445 0.42013 0.82267 0.0
C169 C 0.52158 0.47269 0.66586 0.0
C170 C 0.60633 0.55764 0.84746 0.0
Eu171 Eu 0.57455 0.48622 0.79763 0.0
C172 C 0.64226 0.59397 0.87058 0.0
C173 C 0.65197 0.63142 0.84399 0.0
C174 C 0.67515 0.66677 0.87789 0.0
C175 C 0.68813 0.66497 0.9395 0.0
C176 C 0.68387 0.62814 0.96114 0.0
C177 C 0.66093 0.59288 0.92708 0.0
C178 C 0.62722 0.46293 0.74253 0.0
C179 C 0.54508 0.41647 0.91366 0.0
O180 O 0.50102 0.33805 0.7527 0.0
O181 O 0.5397 0.37376 0.67426 0.0
O182 O 0.47758 0.38353 0.81783 0.0
O183 O 0.51054 0.44391 0.78322 0.0
O184 O 0.51818 0.43573 0.66942 0.0
O185 O 0.53925 0.49675 0.71516 0.0
O186 O 0.59218 0.52446 0.88084 0.0
O187 O 0.60197 0.55144 0.78641 0.0
O188 O 0.62768 0.49654 0.73352 0.0
O189 O 0.59843 0.44262 0.78139 0.0
O190 O 0.55909 0.45511 0.89847 0.0
O191 O 0.53754 0.39061 0.86577 0.0
H192 H 0.48555 0.25967 0.66294 0.0
H193 H 0.52297 0.22624 0.63045 0.0
H194 H 0.63327 0.32914 0.69626 0.0
H195 H 0.59449 0.35892 0.73473 0.0
H196 H 0.63826 0.63309 0.80006 0.0
H197 H 0.67873 0.69477 0.85917 0.0
H198 H 0.69356 0.62537 1.00814 0.0
H199 H 0.65449 0.56447 0.94835 0.0
C200 C 0.18036 0.60747 1.05748 0.0
Eu201 Eu 0.10801 0.58075 1.1054 0.0
C202 C 0.19841 0.62092 0.99455 0.0
C203 C 0.16975 0.60978 0.94718 0.0
C204 C 0.1636 0.5772 0.91073 0.0
C205 C 0.19191 0.56311 0.91299 0.0
C206 C 0.23052 0.59014 0.937 0.0
C207 C 0.23321 0.61836 0.98143 0.0
C208 C 0.05151 0.51582 1.16043 0.0
C209 C 0.02413 0.55306 1.01102 0.0
C210 C -0.01284 0.60677 1.19925 0.0
Eu211 Eu 0.04406 0.59515 1.15185 0.0
C212 C -0.01794 0.63893 1.2275 0.0
C213 C 0.94301 0.63128 0.24211 0.0
C214 C 0.93719 0.65937 0.27573 0.0
C215 C -0.02951 0.69577 0.29569 0.0
C216 C 0.00957 0.70481 0.27547 0.0
C217 C 0.01534 0.67642 0.24185 0.0
C218 C 0.11537 0.66289 1.11357 0.0
C219 C 0.09513 0.57587 0.26225 0.0
O220 O 0.16802 0.6302 1.08393 0.0
O221 O 0.15357 0.56893 1.06292 0.0
O222 O 0.08864 0.52265 1.15605 0.0
O223 O 0.04462 0.53942 1.12675 0.0
O224 O 0.06444 0.56489 1.01207 0.0
O225 O 0.00832 0.55708 1.06523 0.0
O226 O 0.0067 0.59309 0.2326 0.0
O227 O -0.00283 0.61122 1.13917 0.0
O228 O 0.0801 0.65501 1.09433 0.0
O229 O 0.11046 0.63417 1.14813 0.0
O230 O 0.06523 0.58367 0.25004 0.0
O231 O 0.11854 0.57625 1.21402 0.0
H232 H 0.14488 0.61586 0.95258 0.0
H233 H 0.13441 0.56145 0.88922 0.0
H234 H 0.25457 0.58271 0.93498 0.0
H235 H 0.25814 0.63032 1.01414 0.0
H236 H 0.917 0.60263 1.23042 0.0
H237 H 0.90662 0.65068 0.29071 0.0
H238 H 0.03585 0.73266 0.28915 0.0
H239 H 0.04574 0.68299 1.22955 0.0
C240 C 0.76941 0.35018 0.74872 0.0
Eu241 Eu 0.82474 0.4155 0.69339 0.0
C242 C 0.73247 0.34538 0.77991 0.0
C243 C 0.7327 0.37967 0.80336 0.0
C244 C 0.69748 0.3776 0.82678 0.0
C245 C 0.66055 0.34097 0.82776 0.0
C246 C 0.66034 0.30638 0.80395 0.0
C247 C 0.69598 0.30871 0.77947 0.0
C248 C 0.8947 0.44017 0.63576 0.0
C249 C 0.9006 0.48596 0.78802 0.0
C250 C 0.89992 0.57185 0.60561 0.0
Eu251 Eu 0.86281 0.49924 0.65286 0.0
C252 C 0.89609 0.60687 0.58642 0.0
C253 C 0.92292 0.64467 0.61165 0.0
C254 C 0.92987 0.67979 0.58024 0.0
C255 C 0.91092 0.67741 0.52214 0.0
C256 C 0.87902 0.63965 0.50351 0.0
C257 C 0.87188 0.60462 0.53516 0.0
C258 C 0.78659 0.47272 0.70794 0.0
C259 C 0.83233 0.42811 0.53589 0.0
O260 O 0.77075 0.35643 0.68773 0.0
O261 O 0.80358 0.37499 0.77578 0.0
O262 O 0.86755 0.40211 0.63585 0.0
O263 O 0.8859 0.4595 0.67393 0.0
O264 O 0.86719 0.44885 0.78488 0.0
O265 O 0.90759 0.50964 0.73709 0.0
O266 O 0.88258 0.53943 0.57083 0.0
O267 O 0.89876 0.56411 0.66618 0.0
O268 O 0.81851 0.50688 0.71775 0.0
O269 O 0.79648 0.45361 0.66929 0.0
O270 O 0.85108 0.46739 0.55137 0.0
O271 O 0.81692 0.40123 0.58366 0.0
H272 H 0.76033 0.40846 0.80341 0.0
H273 H 0.70006 0.40491 0.84634 0.0
H274 H 0.63272 0.27763 0.80409 0.0
H275 H 0.69501 0.28206 0.75994 0.0
H276 H 0.94145 0.64711 0.65198 0.0
H277 H 0.95373 0.70841 0.59703 0.0
H278 H 0.86316 0.63624 0.45957 0.0
H279 H 0.85028 0.57583 0.51552 0.0
C280 C 0.37919 0.77742 1.08119 0.0
Eu281 Eu 0.36582 0.83058 1.02441 0.0
C282 C 0.35448 0.73406 1.0943 0.0
C283 C 0.37267 0.71124 1.11095 0.0
C284 C 0.34908 0.67214 1.13524 0.0
C285 C 0.30709 0.65588 1.14538 0.0
C286 C 0.28889 0.67767 1.12157 0.0
C287 C 0.31232 0.71605 1.09574 0.0
C288 C 0.4143 0.89514 0.95864 0.0
C289 C 0.38003 0.91035 1.1183 0.0
C290 C 0.29028 0.91277 0.94731 0.0
Eu291 Eu 0.3257 0.87366 0.98838 0.0
C292 C 0.301 0.95452 0.93506 0.0
C293 C 0.33646 -0.01345 0.95947 0.0
C294 C 0.34756 0.02617 0.94317 0.0
C295 C 0.3235 0.03417 0.90178 0.0
C296 C 0.28665 0.00178 0.88108 0.0
C297 C 0.27559 0.96237 0.89762 0.0
C298 C 0.27439 0.80132 1.04977 0.0
C299 C 0.35291 0.83226 0.86852 0.0
O300 O 0.38854 0.78796 1.02192 0.0
O301 O 0.36771 0.8002 1.11071 0.0
O302 O 0.42086 0.86502 0.96205 0.0
O303 O 0.38943 0.89342 1.0 0.0
O304 O 0.38138 0.87569 1.1139 0.0
O305 O 0.36403 0.91908 1.06864 0.0
O306 O 0.29065 0.9034 1.00664 0.0
O307 O 0.30636 0.89728 0.90952 0.0
O308 O 0.27761 0.83565 1.06198 0.0
O309 O 0.29978 0.80662 1.0061 0.0
O310 O 0.33862 0.85687 0.88513 0.0
O311 O 0.36118 0.81398 0.91577 0.0
H312 H 0.40525 0.72441 1.10857 0.0
H313 H 0.36429 0.6561 1.15076 0.0
H314 H 0.25692 0.66705 1.12774 0.0
H315 H 0.2977 0.73286 1.08121 0.0
H316 H 0.35617 -0.01915 0.98927 0.0
H317 H 0.37595 0.05032 0.96026 0.0
H318 H 0.26761 0.00638 0.84815 0.0
H319 H 0.24792 0.93788 0.87899 0.0
C320 C 0.58908 0.42252 0.39807 0.0
Eu321 Eu 0.51834 0.39151 0.34642 0.0
C322 C 0.61256 0.40203 0.40796 0.0
C323 C 0.63849 0.41209 0.45961 0.0
C324 C 0.64995 0.38479 0.48213 0.0
C325 C 0.6349 0.34652 0.45404 0.0
C326 C 0.61209 0.33864 0.39832 0.0
C327 C 0.60134 0.36618 0.37533 0.0
C328 C 0.47918 0.41858 0.27894 0.0
C329 C 0.44402 0.38431 0.4482 0.0
C330 C 0.36744 0.26814 0.29748 0.0
Eu331 Eu 0.43833 0.32888 0.32288 0.0
C332 C 0.33428 0.24872 0.2529 0.0
C333 C 0.29459 0.22727 0.27689 0.0
C334 C 0.26201 0.21031 0.23556 0.0
C335 C 0.2689 0.21444 1.16972 0.0
C336 C 0.30897 0.23415 1.14605 0.0
C337 C 0.34144 0.25131 1.18736 0.0
C338 C 0.4845 0.30265 0.38579 0.0
C339 C 0.50104 0.36848 1.19505 0.0
O340 O 0.584 0.42959 0.33914 0.0
O341 O 0.55533 0.40667 0.43094 0.0
O342 O 0.5185 0.43719 0.27908 0.0
O343 O 0.46393 0.39368 0.32381 0.0
O344 O 0.48399 0.40137 0.43534 0.0
O345 O 0.41927 0.35601 0.4081 0.0
O346 O 0.37252 0.30096 0.32457 0.0
O347 O 0.40153 0.26953 0.28264 0.0
O348 O 0.45061 0.29857 0.40649 0.0
O349 O 0.4949 0.32539 0.33749 0.0
O350 O 0.46242 0.34678 1.21585 0.0
O351 O 0.52977 0.38465 0.23902 0.0
H352 H 0.64695 0.43938 0.48595 0.0
H353 H 0.66695 0.3923 0.52565 0.0
H354 H 0.59961 0.3099 0.37494 0.0
H355 H 0.58094 0.35764 0.33555 0.0
H356 H 0.28876 0.22474 0.32766 0.0
H357 H 0.23149 0.19561 0.25489 0.0
H358 H 0.31529 0.23877 1.09551 0.0
H359 H 0.37195 0.26771 1.1681 0.0
C360 C 0.15232 0.54551 0.75843 0.0
Eu361 Eu 0.09645 0.5059 0.67853 0.0
C362 C 0.15943 0.52431 0.81067 0.0
C363 C 0.11653 0.49257 0.8653 0.0
C364 C 0.11933 0.4583 0.92343 0.0
C365 C 0.16971 0.45447 0.92435 0.0
C366 C 0.21577 0.49117 0.86895 0.0
C367 C 0.20788 0.52386 0.81328 0.0
C368 C 0.03655 0.50489 0.61824 0.0
C369 C 0.01312 0.43819 0.76353 0.0
C370 C 0.00195 0.36056 0.56285 0.0
Eu371 Eu 0.04593 0.4276 0.62214 0.0
C372 C 0.00488 0.3255 0.54066 0.0
C373 C -0.01461 0.28899 0.57471 0.0
C374 C -0.02055 0.25341 0.54663 0.0
C375 C -0.00838 0.25363 0.48322 0.0
C376 C 0.01658 0.2912 0.45346 0.0
C377 C 0.02282 0.32667 0.48168 0.0
C378 C 0.11915 0.43835 0.66576 0.0
C379 C 0.09519 0.50766 0.5224 0.0
O380 O 0.16043 0.53663 0.70235 0.0
O381 O 0.1179 0.54566 0.76051 0.0
O382 O 0.06978 0.53899 0.62843 0.0
O383 O 0.03406 0.47568 0.65052 0.0
O384 O 0.05068 0.47 0.76456 0.0
O385 O 0.00205 0.41866 0.70847 0.0
O386 O 0.02411 0.39494 0.53357 0.0
O387 O 0.0 0.3644 0.62415 0.0
O388 O 0.08478 0.40626 0.67561 0.0
O389 O 0.1125 0.46274 0.63569 0.0
O390 O 0.0691 0.46824 0.52985 0.0
O391 O 0.11309 0.52991 0.57384 0.0
H392 H 0.08884 0.49375 0.86265 0.0
H393 H 0.09273 0.43745 0.95038 0.0
H394 H 0.24262 0.48829 0.86501 0.0
H395 H 0.23156 0.54184 0.77932 0.0
H396 H -0.02797 0.28734 0.62108 0.0
H397 H -0.03852 0.22532 0.57204 0.0
H398 H 0.02731 0.29337 0.40504 0.0
H399 H 0.03883 0.35447 0.45475 0.0
C400 C 0.52363 0.15592 1.0891 0.0
Eu401 Eu 0.53878 0.10605 1.02617 0.0
C402 C 0.55049 0.19869 1.10281 0.0
C403 C 0.54387 0.21563 1.15719 0.0
C404 C 0.57533 0.25099 1.18231 0.0
C405 C 0.61455 0.2697 1.15429 0.0
C406 C 0.619 0.25466 1.0954 0.0
C407 C 0.58739 0.21972 1.06996 0.0
C408 C 0.49678 0.04169 0.96015 0.0
C409 C 0.53282 0.02851 1.11986 0.0
C410 C 0.6379 0.05014 0.94371 0.0
Eu411 Eu 0.58832 0.07231 0.9913 0.0
C412 C 0.66639 0.06626 0.89018 0.0
C413 C 0.68104 0.0427 0.86263 0.0
C414 C 0.69789 0.05181 0.80161 0.0
C415 C 0.69963 0.0843 0.7671 0.0
C416 C 0.68984 0.11085 0.79848 0.0
C417 C 0.67306 0.10173 0.85965 0.0
C418 C 0.63008 0.14729 1.04634 0.0
C419 C 0.5565 0.10865 0.87149 0.0
O420 O 0.51347 0.14651 1.02991 0.0
O421 O 0.53484 0.13219 1.11576 0.0
O422 O 0.48554 0.06864 0.96595 0.0
O423 O 0.52254 0.04511 1.00082 0.0
O424 O 0.52409 0.05865 1.11289 0.0
O425 O 0.556 0.02563 1.07432 0.0
O426 O 0.60009 0.03411 0.92806 0.0
O427 O 0.64629 0.07339 0.99283 0.0
O428 O 0.62969 0.11527 1.06718 0.0
O429 O 0.60453 0.13707 1.00248 0.0
O430 O 0.57533 0.08836 0.88868 0.0
O431 O 0.543 0.12313 0.91789 0.0
H432 H 0.51551 0.19975 1.18331 0.0
H433 H 0.56935 0.26067 1.2273 0.0
H434 H 0.6477 0.2674 1.07096 0.0
H435 H 0.59304 0.20717 1.02754 0.0
H436 H 0.67615 0.01529 0.88578 0.0
H437 H 0.70486 0.03049 0.77904 0.0
H438 H 0.69118 0.13626 0.77341 0.0
H439 H 0.66204 0.1204 0.88071 0.0
C440 C 0.31609 0.52736 0.41104 0.0
Eu441 Eu 0.38187 0.5373 0.35417 0.0
C442 C 0.30687 0.55412 0.44871 0.0
C443 C 0.33847 0.59058 0.47042 0.0
C444 C 0.33019 0.61672 0.50504 0.0
C445 C 0.28999 0.60684 0.51909 0.0
C446 C 0.25827 0.57081 0.49516 0.0
C447 C 0.26671 0.54473 0.45986 0.0
C448 C 0.39752 0.48673 0.29251 0.0
C449 C 0.45386 0.53114 0.4446 0.0
C450 C 0.53511 0.60661 0.25204 0.0
Eu451 Eu 0.46444 0.57761 0.30713 0.0
C452 C 0.57345 0.64198 0.23298 0.0
C453 C 0.6081 0.63808 0.23206 0.0
C454 C 0.64215 0.66507 1.1972 0.0
C455 C 0.64212 0.69655 1.1622 0.0
C456 C 0.60955 0.70392 1.17196 0.0
C457 C 0.57509 0.67639 1.20626 0.0
C458 C 0.44368 0.6304 0.36631 0.0
C459 C 0.392 0.54199 1.19543 0.0
O460 O 0.32527 0.53836 0.3519 0.0
O461 O 0.34061 0.51655 0.43626 0.0
O462 O 0.36066 0.4798 0.29936 0.0
O463 O 0.42178 0.51448 0.32781 0.0
O464 O 0.41763 0.53014 0.44432 0.0
O465 O 0.47573 0.54421 0.39114 0.0
O466 O 0.50235 0.59969 1.22219 0.0
O467 O 0.52886 0.59688 0.31211 0.0
O468 O 0.47767 0.63079 0.37148 0.0
O469 O 0.42201 0.6022 0.32889 0.0
O470 O 0.43142 0.56022 1.20844 0.0
O471 O 0.36597 0.53223 0.24461 0.0
H472 H 0.36966 0.59849 0.46153 0.0
H473 H 0.35551 0.64365 0.52374 0.0
H474 H 0.22706 0.56234 0.5052 0.0
H475 H 0.24194 0.517 0.44213 0.0
H476 H 0.60753 0.61193 0.2532 0.0
H477 H 0.66627 0.65797 1.19206 0.0
H478 H 0.60897 0.72873 1.14814 0.0
H479 H 0.54881 0.68039 1.20774 0.0
C480 C 0.50645 0.21697 0.34995 0.0
C481 C 0.49737 0.19623 0.40848 0.0
H482 H 0.51127 0.26755 0.29725 0.0
C483 C 0.48844 0.21346 0.4609 0.0
H484 H 0.51295 0.20433 0.30848 0.0
C485 C 0.48645 0.24916 0.45419 0.0
C486 C 0.49411 0.26922 0.39514 0.0
H487 H 0.48083 0.19816 0.50647 0.0
H488 H 0.47743 0.26033 0.49487 0.0
C489 C 0.5055 0.25329 0.34358 0.0
C490 C 0.23467 0.48398 0.68252 0.0
C491 C 0.23769 0.452 0.71004 0.0
H492 H 0.19558 0.50426 0.64371 0.0
C493 C 0.20162 0.41522 0.71967 0.0
H494 H 0.26176 0.51246 0.67308 0.0
C495 C 0.1637 0.4107 0.70389 0.0
C496 C 0.16035 0.44267 0.6772 0.0
H497 H 0.20268 0.38973 0.74004 0.0
H498 H 0.13679 0.38212 0.71353 0.0
C499 C 0.19659 0.47919 0.66557 0.0
C500 C 0.726 0.23493 1.11549 0.0
C501 C 0.73855 0.2649 1.06808 0.0
H502 H 0.68227 0.17513 1.14627 0.0
C503 C 0.71385 0.25655 1.01448 0.0
H504 H 0.74475 0.23983 1.15654 0.0
C505 C 0.67774 0.21926 1.00849 0.0
C506 C 0.66568 0.18891 1.05542 0.0
H507 H 0.72288 0.27857 0.97649 0.0
H508 H 0.65999 0.2137 0.96602 0.0
C509 C 0.69023 0.19764 1.1093 0.0
C510 C 0.40373 0.66908 0.36862 0.0
C511 C 0.43886 0.66669 0.38233 0.0
H512 H 0.37454 0.70561 0.36839 0.0
C513 C 0.47108 0.70068 0.41049 0.0
H514 H 0.37819 0.64367 0.34721 0.0
C515 C 0.46916 0.73601 0.42212 0.0
C516 C 0.43464 0.73901 0.40737 0.0
H517 H 0.49864 0.70048 0.42223 0.0
H518 H 0.49543 0.76163 0.44183 0.0
C519 C 0.40152 0.70459 0.38128 0.0
C520 C 0.7009 0.49019 0.76981 0.0
C521 C 0.66627 0.46126 0.7382 0.0
H522 H 0.7646 0.51591 0.78595 0.0
C523 C 0.6711 0.43422 0.69813 0.0
H524 H 0.69876 0.51177 0.80058 0.0
C525 C 0.7094 0.43656 0.68953 0.0
C526 C 0.74426 0.46636 0.72019 0.0
H527 H 0.64563 0.41223 0.67144 0.0
H528 H 0.7119 0.41579 0.6574 0.0
C529 C 0.73892 0.4926 0.76119 0.0
C530 C 0.2283 0.74175 1.11916 0.0
C531 C 0.2349 0.76344 1.06211 0.0
H532 H 0.18607 0.69354 1.1797 0.0
C533 C 0.20136 0.75248 1.02254 0.0
H534 H 0.25297 0.75006 1.1518 0.0
C535 C 0.16249 0.72055 1.03931 0.0
C536 C 0.15602 0.69852 1.0961 0.0
H537 H 0.20503 0.76927 0.97917 0.0
H538 H 0.13755 0.71294 1.00757 0.0
C539 C 0.18968 0.70964 1.13556 0.0
C540 C 0.68826 0.29756 1.18181 0.0
C541 C 0.65106 0.29642 1.19343 0.0
H542 H 0.73546 0.29036 1.22329 0.0
C543 C 0.64609 0.30909 0.25394 0.0
H544 H 0.69745 0.29408 1.13489 0.0
C545 C 0.66819 0.30664 0.3048 0.0
C546 C 0.69422 0.2908 0.29463 0.0
H547 H 0.62158 0.315 0.26396 0.0
H548 H 0.65922 0.30967 0.35212 0.0
C549 C 0.7106 0.29583 0.23294 0.0
C550 C 0.30974 0.67183 0.57445 0.0
C551 C 0.28252 0.63037 0.56816 0.0
H552 H 0.34628 0.71813 0.63945 0.0
C553 C 0.25804 0.60976 0.62096 0.0
H554 H 0.32749 0.68957 0.5341 0.0
C555 C 0.26969 0.62659 0.68121 0.0
C556 C 0.30789 0.66136 0.68734 0.0
H557 H 0.23468 0.57857 0.61776 0.0
H558 H 0.25437 0.6074 0.72167 0.0
C559 C 0.32048 0.68819 0.63528 0.0
C560 C 0.62323 0.38548 0.93839 0.0
C561 C 0.62189 0.35931 0.9866 0.0
H562 H 0.63507 0.39802 0.83913 0.0
C563 C 0.60068 0.31813 0.97116 0.0
H564 H 0.63299 0.41671 0.94827 0.0
C565 C 0.60554 0.30771 0.90914 0.0
C566 C 0.62541 0.33873 0.86383 0.0
H567 H 0.59253 0.29571 1.00825 0.0
H568 H 0.60128 0.27791 0.90124 0.0
C569 C 0.6248 0.37478 0.87532 0.0
C570 C 0.24245 0.60593 1.20007 0.0
C571 C 0.28486 0.62377 1.1946 0.0
H572 H 0.19462 0.60056 0.26101 0.0
C573 C 0.30569 0.62454 0.24999 0.0
H574 H 0.22423 0.60028 1.15825 0.0
C575 C 0.28797 0.62274 0.30921 0.0
C576 C 0.2508 0.62244 0.31152 0.0
H577 H 0.33764 0.63426 0.24876 0.0
H578 H 0.30733 0.63128 0.35021 0.0
C579 C 0.22515 0.60534 0.25941 0.0
C580 C 0.59938 0.2745 0.49082 0.0
C581 C 0.63424 0.31284 0.49133 0.0
H582 H 0.55691 0.22524 0.54696 0.0
C583 C 0.66154 0.32088 0.54119 0.0
H584 H 0.57885 0.26441 0.45139 0.0
C585 C 0.64798 0.29781 0.59702 0.0
C586 C 0.60646 0.2695 0.60365 0.0
H587 H 0.6909 0.34784 0.54082 0.0
H588 H 0.66744 0.30794 0.63792 0.0
C589 C 0.58648 0.25177 0.54677 0.0
C590 C 0.18923 0.51075 0.98045 0.0
C591 C 0.17888 0.51766 0.91289 0.0
H592 H 0.1901 0.45878 1.0306 0.0
C593 C 0.15182 0.46179 0.83033 0.0
H594 H 0.19998 0.53134 1.02006 0.0
C595 C 0.15166 0.42428 0.86455 0.0
C596 C 0.16584 0.42454 0.93497 0.0
H597 H 0.14015 0.45841 0.78277 0.0
H598 H 0.14058 0.39662 0.83784 0.0
C599 C 0.18211 0.46467 0.98266 0.0
C600 C 0.42132 -0.01627 1.16829 0.0
C601 C 0.39824 0.941 1.17656 0.0
H602 H 0.45633 0.04358 1.20902 0.0
C603 C 0.3924 0.92908 0.24195 0.0
H604 H 0.42717 -0.00417 1.12041 0.0
C605 C 0.40832 0.95735 0.29419 0.0
C606 C 0.43288 -6e-05 0.28576 0.0
H607 H 0.37489 0.89734 0.25332 0.0
H608 H 0.40203 0.94533 0.34213 0.0
C609 C 0.43855 0.01186 1.22041 0.0
C610 C 0.40285 0.41788 0.49612 0.0
C611 C 0.42626 0.39841 0.50539 0.0
H612 H 0.37052 0.44673 0.53616 0.0
C613 C 0.43122 0.39211 0.57073 0.0
H614 H 0.39725 0.42366 0.44798 0.0
C615 C 0.41439 0.40445 0.62241 0.0
C616 C 0.39245 0.42546 0.6132 0.0
H617 H 0.44818 0.37713 0.5824 0.0
H618 H 0.41956 0.39821 0.67053 0.0
C619 C 0.38722 0.43149 0.54784 0.0
C620 C 0.94022 0.41117 0.8171 0.0
C621 C -0.01739 0.42547 0.82298 0.0
H622 H 0.88092 0.38966 0.86177 0.0
C623 C -0.00532 0.42688 0.88732 0.0
H624 H 0.92818 0.40926 0.77007 0.0
C625 C -0.03328 0.41418 0.94087 0.0
C626 C 0.92447 0.40038 0.93512 0.0
H627 H 0.02612 0.43696 0.89675 0.0
H628 H -0.02133 0.41565 0.98784 0.0
C629 C 0.91245 0.39979 0.87094 0.0
C630 C 0.47387 0.92378 1.21658 0.0
C631 C 0.48047 0.93356 0.28243 0.0
H632 H 0.48437 0.94315 1.11731 0.0
C633 C 0.50575 -0.02423 0.2928 0.0
H634 H 0.4555 0.89251 1.20371 0.0
C635 C 0.52149 0.00569 0.24213 0.0
C636 C 0.51472 -0.00406 1.17632 0.0
H637 H 0.51281 -0.01382 0.34122 0.0
H638 H 0.53963 0.03699 0.255 0.0
C639 C 0.49091 0.95358 1.16579 0.0
C640 C 0.50957 0.48241 0.54322 0.0
C641 C 0.50376 0.48723 0.60904 0.0
H642 H 0.50068 0.4919 0.44397 0.0
C643 C 0.48137 0.50791 0.61917 0.0
H644 H 0.52664 0.46764 0.53042 0.0
C645 C 0.46473 0.52093 0.56824 0.0
C646 C 0.47042 0.51593 0.50235 0.0
H647 H 0.47568 0.51341 0.66759 0.0
H648 H 0.44755 0.53558 0.58102 0.0
C649 C 0.49431 0.49681 0.49234 0.0
C650 C 0.95147 0.50688 0.96127 0.0
C651 C -0.00597 0.53371 0.95199 0.0
H652 H 0.89091 0.47082 0.92277 0.0
C653 C 0.00471 0.54297 0.8864 0.0
H654 H 0.94012 0.49793 1.00935 0.0
C655 C -0.02473 0.5278 0.83543 0.0
C656 C 0.9327 0.501 0.84495 0.0
H657 H 0.03607 0.56325 0.87403 0.0
H658 H -0.01367 0.53734 0.78738 0.0
C659 C 0.92232 0.49081 0.91027 0.0
C660 C 0.49563 -0.01944 0.56289 0.0
C661 C 0.47648 0.0033 0.555 0.0
H662 H 0.48788 0.92261 0.54666 0.0
C663 C 0.43466 -0.01444 0.56449 0.0
H664 H 0.52827 -0.00572 0.5595 0.0
C665 C 0.41128 0.94432 0.55821 0.0
C666 C 0.43114 0.92298 0.54325 0.0
H667 H 0.41994 0.00339 0.56343 0.0
H668 H 0.37894 0.9312 0.55213 0.0
C669 C 0.47248 0.93948 0.55535 0.0
C670 C 0.40138 0.42612 0.89438 0.0
C671 C 0.4203 0.46809 0.88888 0.0
H672 H 0.40968 0.37601 0.8742 0.0
C673 C 0.4617 0.49135 0.89886 0.0
H674 H 0.36881 0.40788 0.89157 0.0
C675 C 0.48504 0.47361 0.88628 0.0
C676 C 0.4657 0.43286 0.86995 0.0
H677 H 0.47638 0.52391 0.89908 0.0
H678 H 0.51704 0.49288 0.87828 0.0
C679 C 0.42466 0.40797 0.88375 0.0
C680 C 0.95361 0.46795 1.22956 0.0
C681 C 0.93863 0.43562 1.18806 0.0
H682 H 0.00631 0.51981 0.25866 0.0
C683 C -0.03631 0.42097 1.16513 0.0
H684 H 0.93414 0.47822 0.25037 0.0
C685 C 0.00518 0.44497 1.16969 0.0
C686 C 0.02013 0.48295 1.19623 0.0
H687 H 0.95209 0.39476 1.13507 0.0
H688 H 0.02458 0.43747 1.14166 0.0
C689 C -0.00498 0.49161 0.23443 0.0
C690 C -0.01088 0.52295 0.57781 0.0
C691 C 0.00727 0.49937 0.57006 0.0
H692 H 0.93488 0.51999 0.60989 0.0
C693 C -0.01588 0.4601 0.54656 0.0
H694 H 0.00675 0.55423 0.59142 0.0
C695 C 0.9429 0.43976 0.55851 0.0
C696 C 0.92654 0.46065 0.58918 0.0
H697 H -0.0023 0.44216 0.53444 0.0
H698 H 0.92614 0.40729 0.55452 0.0
C699 C 0.94785 0.50301 0.58934 0.0
C700 C 0.47459 0.94441 0.90354 0.0
C701 C 0.43309 0.92754 0.91314 0.0
H702 H 0.52977 -0.00115 0.91183 0.0
C703 C 0.41421 0.95058 0.90269 0.0
H704 H 0.48936 0.9265 0.9083 0.0
C705 C 0.4374 -0.00799 0.90459 0.0
C706 C 0.47846 0.00843 0.91694 0.0
H707 H 0.38181 0.93733 0.90675 0.0
H708 H 0.42238 0.0097 0.90939 0.0
C709 C 0.49774 -0.01419 0.90618 0.0
C710 C 0.45017 0.48824 1.22425 0.0
C711 C 0.41042 0.4666 0.24806 0.0
H712 H 0.50525 0.48735 1.21202 0.0
C713 C 0.39004 0.42467 0.24874 0.0
H714 H 0.46602 0.52063 1.22157 0.0
C715 C 0.41294 0.40562 0.24428 0.0
C716 C 0.45519 0.42942 0.23965 0.0
H717 H 0.35887 0.40759 0.26493 0.0
H718 H 0.39884 0.37402 0.25687 0.0
C719 C 0.4728 0.46915 1.21884 0.0
C720 C 0.31383 0.08639 0.84478 0.0
C721 C 0.34011 0.07358 0.86852 0.0
H722 H 0.30066 0.11313 0.76579 0.0
C723 C 0.37985 0.09167 0.84419 0.0
H724 H 0.28361 0.0745 0.86451 0.0
C725 C 0.38979 0.11431 0.78835 0.0
C726 C 0.3599 0.11854 0.75599 0.0
H727 H 0.40143 0.08347 0.86195 0.0
H728 H 0.41854 0.12234 0.76578 0.0
C729 C 0.32368 0.10877 0.78843 0.0
C730 C 0.21259 0.22534 1.13817 0.0
C731 C 0.2359 0.20677 1.1259 0.0
H732 H 0.18524 0.25719 1.0974 0.0
C733 C 0.23652 0.19297 1.06444 0.0
H734 H 0.21089 0.23566 1.18539 0.0
C735 C 0.22222 0.20577 1.01394 0.0
C736 C 0.20712 0.23218 1.02511 0.0
H737 H 0.25336 0.17754 1.05425 0.0
H738 H 0.22885 0.20006 0.96615 0.0
C739 C 0.19807 0.23794 1.08769 0.0
C740 C 0.90116 0.18586 0.39816 0.0
C741 C 0.91863 0.1973 0.3373 0.0
H742 H 0.91209 0.19346 0.49697 0.0
C743 C -0.04062 0.20759 0.32905 0.0
H744 H 0.86925 0.17545 0.40559 0.0
C745 C -0.0159 0.21666 0.38205 0.0
C746 C -0.03161 0.21776 0.44235 0.0
H747 H -0.02633 0.21493 0.28249 0.0
H748 H 0.01645 0.23032 0.37435 0.0
C749 C 0.92605 0.19595 0.45092 0.0
C750 C 0.72112 0.06708 0.66461 0.0
C751 C 0.69897 0.08222 0.69679 0.0
H752 H 0.72045 0.02886 0.59004 0.0
C753 C 0.66643 0.08219 0.66559 0.0
H754 H 0.74718 0.06792 0.68649 0.0
C755 C 0.65079 0.0594 0.61104 0.0
C756 C 0.66781 0.03677 0.58684 0.0
H757 H 0.64897 0.09419 0.68822 0.0
H758 H 0.62208 0.05499 0.59418 0.0
C759 C 0.70563 0.0445 0.60958 0.0
C760 C 0.70472 0.71051 1.09975 0.0
C761 C 0.66862 0.71232 1.10428 0.0
H762 H 0.74056 0.69411 1.04097 0.0
C763 C 0.65158 0.71617 1.04749 0.0
H764 H 0.72048 0.71025 1.14211 0.0
C765 C 0.66379 0.70799 0.98943 0.0
C766 C 0.69298 0.69558 0.98742 0.0
H767 H 0.62468 0.71906 1.04774 0.0
H768 H 0.6456 0.70503 0.94843 0.0
C769 C 0.71654 0.70158 1.0416 0.0
C770 C 0.92701 0.71581 0.35881 0.0
C771 C -0.03541 0.71758 0.34966 0.0
H772 H 0.87933 0.70294 0.42575 0.0
C773 C -0.0099 0.72687 0.40221 0.0
H774 H 0.90752 0.71126 0.31887 0.0
C775 C -0.02587 0.72272 0.4634 0.0
C776 C 0.93248 0.70862 0.47207 0.0
H777 H 0.02 0.73026 0.39741 0.0
H778 H -0.00731 0.72311 0.50232 0.0
C779 C 0.91087 0.71127 0.42022 0.0
C780 C 0.50317 0.11489 0.71337 0.0
C781 C 0.52713 0.11308 0.66237 0.0
H782 H 0.49331 0.1163 0.81504 0.0
C783 C 0.56169 0.11087 0.68237 0.0
H784 H 0.47612 0.11625 0.70239 0.0
C785 C 0.57109 0.10969 0.74827 0.0
C786 C 0.54741 0.11196 0.79929 0.0
H787 H 0.58124 0.10878 0.64664 0.0
H788 H 0.59739 0.10695 0.75924 0.0
C789 C 0.5133 0.11501 0.77929 0.0
C790 C 0.33121 0.47989 1.0437 0.0
C791 C 0.35299 0.50407 0.99014 0.0
H792 H 0.32431 0.47228 1.14648 0.0
C793 C 0.38728 0.54142 1.00654 0.0
H794 H 0.30496 0.45078 1.03559 0.0
C795 C 0.39942 0.55332 1.07119 0.0
C796 C 0.37732 0.52956 1.12479 0.0
H797 H 0.40596 0.56143 0.96876 0.0
H798 H 0.42656 0.58176 1.07913 0.0
C799 C 0.3425 0.49252 1.10858 0.0
C800 C 0.83219 0.42471 0.34567 0.0
C801 C 0.83066 0.38779 0.32867 0.0
H802 H 0.83496 0.46637 0.41844 0.0
C803 C 0.82943 0.36439 0.38239 0.0
H804 H 0.83347 0.44466 0.30806 0.0
C805 C 0.82899 0.37666 0.4475 0.0
C806 C 0.83111 0.41392 0.46431 0.0
H807 H 0.82826 0.33588 0.37432 0.0
H808 H 0.82773 0.35681 0.48525 0.0
C809 C 0.83311 0.43754 0.41054 0.0
C810 C 0.40791 0.82106 0.71304 0.0
C811 C 0.38625 0.82381 0.66014 0.0
H812 H 0.41468 0.81985 0.81543 0.0
C813 C 0.35262 0.82869 0.67811 0.0
H814 H 0.43417 0.81772 0.70399 0.0
C815 C 0.34207 0.83147 0.74352 0.0
C816 C 0.36332 0.828 0.79646 0.0
H817 H 0.33477 0.83171 0.64103 0.0
H818 H 0.31667 0.83622 0.75255 0.0
C819 C 0.39643 0.82227 0.77843 0.0
C820 C 0.55776 0.4269 1.03671 0.0
C821 C 0.53488 0.40228 0.9854 0.0
H822 H 0.56678 0.43602 1.13825 0.0
C823 C 0.50043 0.36543 1.00503 0.0
H824 H 0.58425 0.45561 1.02609 0.0
C825 C 0.4893 0.35453 1.07103 0.0
C826 C 0.51261 0.37904 1.12231 0.0
H827 H 0.48097 0.34517 0.96898 0.0
H828 H 0.46215 0.32641 1.0818 0.0
C829 C 0.54749 0.41539 1.10242 0.0
C830 C 0.1071 0.51271 0.39955 0.0
C831 C 0.09913 0.52767 0.45629 0.0
H832 H 0.11394 0.51642 0.29698 0.0
C833 C 0.09121 0.56 0.44783 0.0
H834 H 0.11281 0.48768 0.4024 0.0
C835 C 0.09024 0.57566 0.38631 0.0
C836 C 0.09877 0.56107 0.3296 0.0
H837 H 0.0841 0.57236 0.48905 0.0
H838 H 0.08265 0.59942 0.38325 0.0
C839 C 0.10779 0.52948 0.33827 0.0
loop_
_geom_bond_atom_site_label_1
_geom_bond_atom_site_label_2
_geom_bond_distance
_geom_bond_site_symmetry_2
_ccdc_geom_bond_type
C0 Eu1 2.835 . S
C0 C2 1.500 . S
C0 O20 1.257 . S
C0 O21 1.260 . S
Eu1 C0 2.835 . S
Eu1 O20 2.473 . S
Eu1 O21 2.480 . S
Eu1 O22 2.430 . S
Eu1 O23 2.670 . S
Eu1 O24 2.394 . S
Eu1 O29 2.355 . S
Eu1 O31 2.374 . S
C2 C0 1.500 . S
C2 C3 1.377 . S
C2 C7 1.377 . S
C3 C2 1.377 . S
C3 C4 1.395 . S
C3 H32 0.931 . S
C4 C3 1.395 . S
C4 C5 1.383 1_554 S
C4 H33 0.931 . S
C5 C4 1.383 1_556 S
C5 C6 1.394 1_556 S
C6 C5 1.394 1_554 S
C6 C7 1.378 . S
C6 H34 0.931 1_554 S
C7 C2 1.377 . S
C7 C6 1.378 . S
C7 H35 0.931 . S
C8 O22 1.259 . S
C8 O23 1.270 . S
C9 O24 1.251 . S
C9 O25 1.251 . S
C10 Eu11 2.835 . S
C10 C12 1.500 . S
C10 O26 1.257 . S
C10 O27 1.260 . S
Eu11 C10 2.835 . S
Eu11 O23 2.355 . S
Eu11 O25 2.374 . S
Eu11 O26 2.473 . S
Eu11 O27 2.480 . S
Eu11 O28 2.430 . S
Eu11 O29 2.670 . S
Eu11 O30 2.394 . S
C12 C10 1.500 . S
C12 C13 1.377 . S
C12 C17 1.377 . S
C13 C12 1.377 . S
C13 C14 1.395 . S
C13 H36 0.931 . S
C14 C13 1.395 . S
C14 C15 1.383 . S
C14 H37 0.931 . S
C15 C14 1.383 . S
C15 C16 1.394 . S
C16 C15 1.394 . S
C16 C17 1.378 . S
C16 H38 0.931 . S
C17 C12 1.377 . S
C17 C16 1.378 . S
C17 H39 0.931 . S
C18 O28 1.259 . S
C18 O29 1.270 . S
C19 O30 1.251 . S
C19 O31 1.251 . S
O20 C0 1.257 . S
O20 Eu1 2.473 . S
O21 C0 1.260 . S
O21 Eu1 2.480 . S
O22 Eu1 2.430 . S
O22 C8 1.259 . S
O23 Eu1 2.670 . S
O23 C8 1.270 . S
O23 Eu11 2.355 . S
O24 Eu1 2.394 . S
O24 C9 1.251 . S
O25 C9 1.251 . S
O25 Eu11 2.374 . S
O26 C10 1.257 . S
O26 Eu11 2.473 . S
O27 C10 1.260 . S
O27 Eu11 2.480 . S
O28 Eu11 2.430 . S
O28 C18 1.259 . S
O29 Eu1 2.355 . S
O29 Eu11 2.670 . S
O29 C18 1.270 . S
O30 Eu11 2.394 . S
O30 C19 1.251 . S
O31 Eu1 2.374 . S
O31 C19 1.251 . S
H32 C3 0.931 . S
H33 C4 0.931 . S
H34 C6 0.931 1_556 S
H35 C7 0.931 . S
H36 C13 0.931 . S
H37 C14 0.931 . S
H38 C16 0.931 . S
H39 C17 0.931 . S
C40 Eu41 2.835 . S
C40 C42 1.500 . S
C40 O60 1.257 . S
C40 O61 1.260 . S
Eu41 C40 2.835 . S
Eu41 O60 2.473 . S
Eu41 O61 2.480 . S
Eu41 O62 2.430 . S
Eu41 O63 2.670 . S
Eu41 O64 2.394 . S
Eu41 O69 2.355 . S
Eu41 O71 2.374 . S
C42 C40 1.500 . S
C42 C43 1.377 . S
C42 C47 1.377 . S
C43 C42 1.377 . S
C43 C44 1.395 . S
C43 H72 0.931 . S
C44 C43 1.395 . S
C44 C45 1.383 . S
C44 H73 0.931 . S
C45 C44 1.383 . S
C45 C46 1.394 . S
C46 C45 1.394 . S
C46 C47 1.378 . S
C46 H74 0.931 . S
C47 C42 1.377 . S
C47 C46 1.378 . S
C47 H75 0.931 . S
C48 O62 1.259 . S
C48 O63 1.270 . S
C49 O64 1.251 . S
C49 O65 1.251 . S
C50 Eu51 2.835 . S
C50 C52 1.500 . S
C50 O66 1.257 . S
C50 O67 1.260 . S
Eu51 C50 2.835 . S
Eu51 O63 2.355 . S
Eu51 O65 2.374 . S
Eu51 O66 2.473 . S
Eu51 O67 2.480 . S
Eu51 O68 2.430 . S
Eu51 O69 2.670 . S
Eu51 O70 2.394 . S
C52 C50 1.500 . S
C52 C53 1.377 . S
C52 C57 1.377 . S
C53 C52 1.377 . S
C53 C54 1.395 . S
C53 H76 0.931 . S
C54 C53 1.395 . S
C54 C55 1.383 . S
C54 H77 0.931 . S
C55 C54 1.383 . S
C55 C56 1.394 . S
C56 C55 1.394 . S
C56 C57 1.378 . S
C56 H78 0.931 . S
C57 C52 1.377 . S
C57 C56 1.378 . S
C57 H79 0.931 . S
C58 O68 1.259 . S
C58 O69 1.270 . S
C59 O70 1.251 . S
C59 O71 1.251 . S
O60 C40 1.257 . S
O60 Eu41 2.473 . S
O61 C40 1.260 . S
O61 Eu41 2.480 . S
O62 Eu41 2.430 . S
O62 C48 1.259 . S
O63 Eu41 2.670 . S
O63 C48 1.270 . S
O63 Eu51 2.355 . S
O64 Eu41 2.394 . S
O64 C49 1.251 . S
O65 C49 1.251 . S
O65 Eu51 2.374 . S
O66 C50 1.257 . S
O66 Eu51 2.473 . S
O67 C50 1.260 . S
O67 Eu51 2.480 . S
O68 Eu51 2.430 . S
O68 C58 1.259 . S
O69 Eu41 2.355 . S
O69 Eu51 2.670 . S
O69 C58 1.270 . S
O70 Eu51 2.394 . S
O70 C59 1.251 . S
O71 Eu41 2.374 . S
O71 C59 1.251 . S
H72 C43 0.931 . S
H73 C44 0.931 . S
H74 C46 0.931 . S
H75 C47 0.931 . S
H76 C53 0.931 . S
H77 C54 0.931 . S
H78 C56 0.931 . S
H79 C57 0.931 . S
C80 Eu81 2.835 . S
C80 C82 1.500 . S
C80 O100 1.257 . S
C80 O101 1.260 . S
Eu81 C80 2.835 . S
Eu81 O100 2.473 . S
Eu81 O101 2.480 . S
Eu81 O102 2.430 . S
Eu81 O103 2.670 . S
Eu81 O104 2.394 . S
Eu81 O109 2.355 . S
Eu81 O111 2.374 . S
C82 C80 1.500 . S
C82 C83 1.377 . S
C82 C87 1.377 . S
C83 C82 1.377 . S
C83 C84 1.395 . S
C83 H112 0.931 . S
C84 C83 1.395 . S
C84 C85 1.383 . S
C84 H113 0.931 . S
C85 C84 1.383 . S
C85 C86 1.394 . S
C86 C85 1.394 . S
C86 C87 1.378 . S
C86 H114 0.931 . S
C87 C82 1.377 . S
C87 C86 1.378 . S
C87 H115 0.931 . S
C88 O102 1.259 . S
C88 O103 1.270 . S
C89 O104 1.251 . S
C89 O105 1.251 . S
C90 Eu91 2.835 1_554 S
C90 C92 1.500 . S
C90 O106 1.257 . S
C90 O107 1.260 . S
Eu91 C90 2.835 1_556 S
Eu91 O103 2.355 . S
Eu91 O105 2.374 . S
Eu91 O106 2.473 1_556 S
Eu91 O107 2.480 1_556 S
Eu91 O108 2.430 . S
Eu91 O109 2.670 . S
Eu91 O110 2.394 . S
C92 C90 1.500 . S
C92 C93 1.377 . S
C92 C97 1.377 . S
C93 C92 1.377 . S
C93 C94 1.395 . S
C93 H116 0.931 . S
C94 C93 1.395 . S
C94 C95 1.383 . S
C94 H117 0.931 . S
C95 C94 1.383 . S
C95 C96 1.394 . S
C96 C95 1.394 . S
C96 C97 1.378 . S
C96 H118 0.931 . S
C97 C92 1.377 . S
C97 C96 1.378 . S
C97 H119 0.931 . S
C98 O108 1.259 . S
C98 O109 1.270 . S
C99 O110 1.251 . S
C99 O111 1.251 . S
O100 C80 1.257 . S
O100 Eu81 2.473 . S
O101 C80 1.260 . S
O101 Eu81 2.480 . S
O102 Eu81 2.430 . S
O102 C88 1.259 . S
O103 Eu81 2.670 . S
O103 C88 1.270 . S
O103 Eu91 2.355 . S
O104 Eu81 2.394 . S
O104 C89 1.251 . S
O105 C89 1.251 . S
O105 Eu91 2.374 . S
O106 C90 1.257 . S
O106 Eu91 2.473 1_554 S
O107 C90 1.260 . S
O107 Eu91 2.480 1_554 S
O108 Eu91 2.430 . S
O108 C98 1.259 . S
O109 Eu81 2.355 . S
O109 Eu91 2.670 . S
O109 C98 1.270 . S
O110 Eu91 2.394 . S
O110 C99 1.251 . S
O111 Eu81 2.374 . S
O111 C99 1.251 . S
H112 C83 0.931 . S
H113 C84 0.931 . S
H114 C86 0.931 . S
H115 C87 0.931 . S
H116 C93 0.931 . S
H117 C94 0.931 . S
H118 C96 0.931 . S
H119 C97 0.931 . S
C120 Eu121 2.835 . S
C120 C122 1.500 . S
C120 O140 1.257 . S
C120 O141 1.260 . S
Eu121 C120 2.835 . S
Eu121 O140 2.473 . S
Eu121 O141 2.480 . S
Eu121 O142 2.430 . S
Eu121 O143 2.670 . S
Eu121 O144 2.394 . S
Eu121 O149 2.355 . S
Eu121 O151 2.374 . S
C122 C120 1.500 . S
C122 C123 1.377 . S
C122 C127 1.377 . S
C123 C122 1.377 . S
C123 C124 1.395 . S
C123 H152 0.931 . S
C124 C123 1.395 . S
C124 C125 1.383 1_554 S
C124 H153 0.931 . S
C125 C124 1.383 1_556 S
C125 C126 1.394 1_556 S
C126 C125 1.394 1_554 S
C126 C127 1.378 . S
C126 H154 0.931 1_554 S
C127 C122 1.377 . S
C127 C126 1.378 . S
C127 H155 0.931 . S
C128 O142 1.259 . S
C128 O143 1.270 . S
C129 O144 1.251 . S
C129 O145 1.251 . S
C130 Eu131 2.835 . S
C130 C132 1.500 . S
C130 O146 1.257 . S
C130 O147 1.260 . S
Eu131 C130 2.835 . S
Eu131 O143 2.355 . S
Eu131 O145 2.374 . S
Eu131 O146 2.473 . S
Eu131 O147 2.480 . S
Eu131 O148 2.430 . S
Eu131 O149 2.670 . S
Eu131 O150 2.394 . S
C132 C130 1.500 . S
C132 C133 1.377 . S
C132 C137 1.377 . S
C133 C132 1.377 . S
C133 C134 1.395 . S
C133 H156 0.931 . S
C134 C133 1.395 . S
C134 C135 1.383 . S
C134 H157 0.931 . S
C135 C134 1.383 . S
C135 C136 1.394 . S
C136 C135 1.394 . S
C136 C137 1.378 . S
C136 H158 0.931 . S
C137 C132 1.377 . S
C137 C136 1.378 . S
C137 H159 0.931 . S
C138 O148 1.259 . S
C138 O149 1.270 . S
C139 O150 1.251 . S
C139 O151 1.251 . S
O140 C120 1.257 . S
O140 Eu121 2.473 . S
O141 C120 1.260 . S
O141 Eu121 2.480 . S
O142 Eu121 2.430 . S
O142 C128 1.259 . S
O143 Eu121 2.670 . S
O143 C128 1.270 . S
O143 Eu131 2.355 . S
O144 Eu121 2.394 . S
O144 C129 1.251 . S
O145 C129 1.251 . S
O145 Eu131 2.374 . S
O146 C130 1.257 . S
O146 Eu131 2.473 . S
O147 C130 1.260 . S
O147 Eu131 2.480 . S
O148 Eu131 2.430 . S
O148 C138 1.259 . S
O149 Eu121 2.355 . S
O149 Eu131 2.670 . S
O149 C138 1.270 . S
O150 Eu131 2.394 . S
O150 C139 1.251 . S
O151 Eu121 2.374 . S
O151 C139 1.251 . S
H152 C123 0.931 . S
H153 C124 0.931 . S
H154 C126 0.931 1_556 S
H155 C127 0.931 . S
H156 C133 0.931 . S
H157 C134 0.931 . S
H158 C136 0.931 . S
H159 C137 0.931 . S
C160 Eu161 2.835 . S
C160 C162 1.500 . S
C160 O180 1.257 . S
C160 O181 1.260 . S
Eu161 C160 2.835 . S
Eu161 O180 2.473 . S
Eu161 O181 2.480 . S
Eu161 O182 2.430 . S
Eu161 O183 2.670 . S
Eu161 O184 2.394 . S
Eu161 O189 2.355 . S
Eu161 O191 2.374 . S
C162 C160 1.500 . S
C162 C163 1.377 . S
C162 C167 1.377 . S
C163 C162 1.377 . S
C163 C164 1.395 . S
C163 H192 0.931 . S
C164 C163 1.395 . S
C164 C165 1.383 . S
C164 H193 0.931 . S
C165 C164 1.383 . S
C165 C166 1.394 . S
C166 C165 1.394 . S
C166 C167 1.378 . S
C166 H194 0.931 . S
C167 C162 1.377 . S
C167 C166 1.378 . S
C167 H195 0.931 . S
C168 O182 1.259 . S
C168 O183 1.270 . S
C169 O184 1.251 . S
C169 O185 1.251 . S
C170 Eu171 2.835 . S
C170 C172 1.500 . S
C170 O186 1.257 . S
C170 O187 1.260 . S
Eu171 C170 2.835 . S
Eu171 O183 2.355 . S
Eu171 O185 2.374 . S
Eu171 O186 2.473 . S
Eu171 O187 2.480 . S
Eu171 O188 2.430 . S
Eu171 O189 2.670 . S
Eu171 O190 2.394 . S
C172 C170 1.500 . S
C172 C173 1.377 . S
C172 C177 1.377 . S
C173 C172 1.377 . S
C173 C174 1.395 . S
C173 H196 0.931 . S
C174 C173 1.395 . S
C174 C175 1.383 . S
C174 H197 0.931 . S
C175 C174 1.383 . S
C175 C176 1.394 . S
C176 C175 1.394 . S
C176 C177 1.378 . S
C176 H198 0.931 . S
C177 C172 1.377 . S
C177 C176 1.378 . S
C177 H199 0.931 . S
C178 O188 1.259 . S
C178 O189 1.270 . S
C179 O190 1.251 . S
C179 O191 1.251 . S
O180 C160 1.257 . S
O180 Eu161 2.473 . S
O181 C160 1.260 . S
O181 Eu161 2.480 . S
O182 Eu161 2.430 . S
O182 C168 1.259 . S
O183 Eu161 2.670 . S
O183 C168 1.270 . S
O183 Eu171 2.355 . S
O184 Eu161 2.394 . S
O184 C169 1.251 . S
O185 C169 1.251 . S
O185 Eu171 2.374 . S
O186 C170 1.257 . S
O186 Eu171 2.473 . S
O187 C170 1.260 . S
O187 Eu171 2.480 . S
O188 Eu171 2.430 . S
O188 C178 1.259 . S
O189 Eu161 2.355 . S
O189 Eu171 2.670 . S
O189 C178 1.270 . S
O190 Eu171 2.394 . S
O190 C179 1.251 . S
O191 Eu161 2.374 . S
O191 C179 1.251 . S
H192 C163 0.931 . S
H193 C164 0.931 . S
H194 C166 0.931 . S
H195 C167 0.931 . S
H196 C173 0.931 . S
H197 C174 0.931 . S
H198 C176 0.931 . S
H199 C177 0.931 . S
C200 Eu201 2.835 . S
C200 C202 1.500 . S
C200 O220 1.257 . S
C200 O221 1.260 . S
Eu201 C200 2.835 . S
Eu201 O220 2.473 . S
Eu201 O221 2.480 . S
Eu201 O222 2.430 . S
Eu201 O223 2.670 . S
Eu201 O224 2.394 . S
Eu201 O229 2.355 . S
Eu201 O231 2.374 . S
C202 C200 1.500 . S
C202 C203 1.377 . S
C202 C207 1.377 . S
C203 C202 1.377 . S
C203 C204 1.395 . S
C203 H232 0.931 . S
C204 C203 1.395 . S
C204 C205 1.383 . S
C204 H233 0.931 . S
C205 C204 1.383 . S
C205 C206 1.394 . S
C206 C205 1.394 . S
C206 C207 1.378 . S
C206 H234 0.931 . S
C207 C202 1.377 . S
C207 C206 1.378 . S
C207 H235 0.931 . S
C208 O222 1.259 . S
C208 O223 1.270 . S
C209 O224 1.251 . S
C209 O225 1.251 . S
C210 Eu211 2.835 1_554 S
C210 C212 1.500 . S
C210 O226 1.257 . S
C210 O227 1.260 . S
Eu211 C210 2.835 1_556 S
Eu211 O223 2.355 . S
Eu211 O225 2.374 . S
Eu211 O226 2.473 1_556 S
Eu211 O227 2.480 1_556 S
Eu211 O228 2.430 . S
Eu211 O229 2.670 . S
Eu211 O230 2.394 . S
C212 C210 1.500 . S
C212 C213 1.377 . S
C212 C217 1.377 . S
C213 C212 1.377 . S
C213 C214 1.395 . S
C213 H236 0.931 . S
C214 C213 1.395 . S
C214 C215 1.383 . S
C214 H237 0.931 . S
C215 C214 1.383 . S
C215 C216 1.394 . S
C216 C215 1.394 . S
C216 C217 1.378 . S
C216 H238 0.931 . S
C217 C212 1.377 . S
C217 C216 1.378 . S
C217 H239 0.931 . S
C218 O228 1.259 . S
C218 O229 1.270 . S
C219 O230 1.251 . S
C219 O231 1.251 . S
O220 C200 1.257 . S
O220 Eu201 2.473 . S
O221 C200 1.260 . S
O221 Eu201 2.480 . S
O222 Eu201 2.430 . S
O222 C208 1.259 . S
O223 Eu201 2.670 . S
O223 C208 1.270 . S
O223 Eu211 2.355 . S
O224 Eu201 2.394 . S
O224 C209 1.251 . S
O225 C209 1.251 . S
O225 Eu211 2.374 . S
O226 C210 1.257 . S
O226 Eu211 2.473 1_554 S
O227 C210 1.260 . S
O227 Eu211 2.480 1_554 S
O228 Eu211 2.430 . S
O228 C218 1.259 . S
O229 Eu201 2.355 . S
O229 Eu211 2.670 . S
O229 C218 1.270 . S
O230 Eu211 2.394 . S
O230 C219 1.251 . S
O231 Eu201 2.374 . S
O231 C219 1.251 . S
H232 C203 0.931 . S
H233 C204 0.931 . S
H234 C206 0.931 . S
H235 C207 0.931 . S
H236 C213 0.931 . S
H237 C214 0.931 . S
H238 C216 0.931 . S
H239 C217 0.931 . S
C240 Eu241 2.835 . S
C240 C242 1.500 . S
C240 O260 1.257 . S
C240 O261 1.260 . S
Eu241 C240 2.835 . S
Eu241 O260 2.473 . S
Eu241 O261 2.480 . S
Eu241 O262 2.430 . S
Eu241 O263 2.670 . S
Eu241 O264 2.394 . S
Eu241 O269 2.355 . S
Eu241 O271 2.374 . S
C242 C240 1.500 . S
C242 C243 1.377 . S
C242 C247 1.377 . S
C243 C242 1.377 . S
C243 C244 1.395 . S
C243 H272 0.931 . S
C244 C243 1.395 . S
C244 C245 1.383 . S
C244 H273 0.931 . S
C245 C244 1.383 . S
C245 C246 1.394 . S
C246 C245 1.394 . S
C246 C247 1.378 . S
C246 H274 0.931 . S
C247 C242 1.377 . S
C247 C246 1.378 . S
C247 H275 0.931 . S
C248 O262 1.259 . S
C248 O263 1.270 . S
C249 O264 1.251 . S
C249 O265 1.251 . S
C250 Eu251 2.835 . S
C250 C252 1.500 . S
C250 O266 1.257 . S
C250 O267 1.260 . S
Eu251 C250 2.835 . S
Eu251 O263 2.355 . S
Eu251 O265 2.374 . S
Eu251 O266 2.473 . S
Eu251 O267 2.480 . S
Eu251 O268 2.430 . S
Eu251 O269 2.670 . S
Eu251 O270 2.394 . S
C252 C250 1.500 . S
C252 C253 1.377 . S
C252 C257 1.377 . S
C253 C252 1.377 . S
C253 C254 1.395 . S
C253 H276 0.931 . S
C254 C253 1.395 . S
C254 C255 1.383 . S
C254 H277 0.931 . S
C255 C254 1.383 . S
C255 C256 1.394 . S
C256 C255 1.394 . S
C256 C257 1.378 . S
C256 H278 0.931 . S
C257 C252 1.377 . S
C257 C256 1.378 . S
C257 H279 0.931 . S
C258 O268 1.259 . S
C258 O269 1.270 . S
C259 O270 1.251 . S
C259 O271 1.251 . S
O260 C240 1.257 . S
O260 Eu241 2.473 . S
O261 C240 1.260 . S
O261 Eu241 2.480 . S
O262 Eu241 2.430 . S
O262 C248 1.259 . S
O263 Eu241 2.670 . S
O263 C248 1.270 . S
O263 Eu251 2.355 . S
O264 Eu241 2.394 . S
O264 C249 1.251 . S
O265 C249 1.251 . S
O265 Eu251 2.374 . S
O266 C250 1.257 . S
O266 Eu251 2.473 . S
O267 C250 1.260 . S
O267 Eu251 2.480 . S
O268 Eu251 2.430 . S
O268 C258 1.259 . S
O269 Eu241 2.355 . S
O269 Eu251 2.670 . S
O269 C258 1.270 . S
O270 Eu251 2.394 . S
O270 C259 1.251 . S
O271 Eu241 2.374 . S
O271 C259 1.251 . S
H272 C243 0.931 . S
H273 C244 0.931 . S
H274 C246 0.931 . S
H275 C247 0.931 . S
H276 C253 0.931 . S
H277 C254 0.931 . S
H278 C256 0.931 . S
H279 C257 0.931 . S
C280 Eu281 2.835 . S
C280 C282 1.500 . S
C280 O300 1.257 . S
C280 O301 1.260 . S
Eu281 C280 2.835 . S
Eu281 O300 2.473 . S
Eu281 O301 2.480 . S
Eu281 O302 2.430 . S
Eu281 O303 2.670 . S
Eu281 O304 2.394 . S
Eu281 O309 2.355 . S
Eu281 O311 2.374 . S
C282 C280 1.500 . S
C282 C283 1.377 . S
C282 C287 1.377 . S
C283 C282 1.377 . S
C283 C284 1.395 . S
C283 H312 0.931 . S
C284 C283 1.395 . S
C284 C285 1.383 1_556 S
C284 H313 0.931 . S
C285 C284 1.383 1_554 S
C285 C286 1.394 1_554 S
C286 C285 1.394 1_556 S
C286 C287 1.378 . S
C286 H314 0.931 1_556 S
C287 C282 1.377 . S
C287 C286 1.378 . S
C287 H315 0.931 . S
C288 O302 1.259 . S
C288 O303 1.270 . S
C289 O304 1.251 . S
C289 O305 1.251 . S
C290 Eu291 2.835 . S
C290 C292 1.500 . S
C290 O306 1.257 . S
C290 O307 1.260 . S
Eu291 C290 2.835 . S
Eu291 O303 2.355 . S
Eu291 O305 2.374 . S
Eu291 O306 2.473 . S
Eu291 O307 2.480 . S
Eu291 O308 2.430 . S
Eu291 O309 2.670 . S
Eu291 O310 2.394 . S
C292 C290 1.500 . S
C292 C293 1.377 . S
C292 C297 1.377 . S
C293 C292 1.377 . S
C293 C294 1.395 . S
C293 H316 0.931 . S
C294 C293 1.395 . S
C294 C295 1.383 . S
C294 H317 0.931 . S
C295 C294 1.383 . S
C295 C296 1.394 . S
C296 C295 1.394 . S
C296 C297 1.378 . S
C296 H318 0.931 . S
C297 C292 1.377 . S
C297 C296 1.378 . S
C297 H319 0.931 . S
C298 O308 1.259 . S
C298 O309 1.270 . S
C299 O310 1.251 . S
C299 O311 1.251 . S
O300 C280 1.257 . S
O300 Eu281 2.473 . S
O301 C280 1.260 . S
O301 Eu281 2.480 . S
O302 Eu281 2.430 . S
O302 C288 1.259 . S
O303 Eu281 2.670 . S
O303 C288 1.270 . S
O303 Eu291 2.355 . S
O304 Eu281 2.394 . S
O304 C289 1.251 . S
O305 C289 1.251 . S
O305 Eu291 2.374 . S
O306 C290 1.257 . S
O306 Eu291 2.473 . S
O307 C290 1.260 . S
O307 Eu291 2.480 . S
O308 Eu291 2.430 . S
O308 C298 1.259 . S
O309 Eu281 2.355 . S
O309 Eu291 2.670 . S
O309 C298 1.270 . S
O310 Eu291 2.394 . S
O310 C299 1.251 . S
O311 Eu281 2.374 . S
O311 C299 1.251 . S
H312 C283 0.931 . S
H313 C284 0.931 . S
H314 C286 0.931 1_554 S
H315 C287 0.931 . S
H316 C293 0.931 . S
H317 C294 0.931 . S
H318 C296 0.931 . S
H319 C297 0.931 . S
C320 Eu321 2.835 . S
C320 C322 1.500 . S
C320 O340 1.257 . S
C320 O341 1.260 . S
Eu321 C320 2.835 . S
Eu321 O340 2.473 . S
Eu321 O341 2.480 . S
Eu321 O342 2.430 . S
Eu321 O343 2.670 . S
Eu321 O344 2.394 . S
Eu321 O349 2.355 . S
Eu321 O351 2.374 . S
C322 C320 1.500 . S
C322 C323 1.377 . S
C322 C327 1.377 . S
C323 C322 1.377 . S
C323 C324 1.395 . S
C323 H352 0.931 . S
C324 C323 1.395 . S
C324 C325 1.383 . S
C324 H353 0.931 . S
C325 C324 1.383 . S
C325 C326 1.394 . S
C326 C325 1.394 . S
C326 C327 1.378 . S
C326 H354 0.931 . S
C327 C322 1.377 . S
C327 C326 1.378 . S
C327 H355 0.931 . S
C328 O342 1.259 . S
C328 O343 1.270 . S
C329 O344 1.251 . S
C329 O345 1.251 . S
C330 Eu331 2.835 1_556 S
C330 C332 1.500 . S
C330 O346 1.257 . S
C330 O347 1.260 . S
Eu331 C330 2.835 1_554 S
Eu331 O343 2.355 . S
Eu331 O345 2.374 . S
Eu331 O346 2.473 1_554 S
Eu331 O347 2.480 1_554 S
Eu331 O348 2.430 . S
Eu331 O349 2.670 . S
Eu331 O350 2.394 . S
C332 C330 1.500 . S
C332 C333 1.377 . S
C332 C337 1.377 . S
C333 C332 1.377 . S
C333 C334 1.395 . S
C333 H356 0.931 . S
C334 C333 1.395 . S
C334 C335 1.383 . S
C334 H357 0.931 . S
C335 C334 1.383 . S
C335 C336 1.394 . S
C336 C335 1.394 . S
C336 C337 1.378 . S
C336 H358 0.931 . S
C337 C332 1.377 . S
C337 C336 1.378 . S
C337 H359 0.931 . S
C338 O348 1.259 . S
C338 O349 1.270 . S
C339 O350 1.251 . S
C339 O351 1.251 . S
O340 C320 1.257 . S
O340 Eu321 2.473 . S
O341 C320 1.260 . S
O341 Eu321 2.480 . S
O342 Eu321 2.430 . S
O342 C328 1.259 . S
O343 Eu321 2.670 . S
O343 C328 1.270 . S
O343 Eu331 2.355 . S
O344 Eu321 2.394 . S
O344 C329 1.251 . S
O345 C329 1.251 . S
O345 Eu331 2.374 . S
O346 C330 1.257 . S
O346 Eu331 2.473 1_556 S
O347 C330 1.260 . S
O347 Eu331 2.480 1_556 S
O348 Eu331 2.430 . S
O348 C338 1.259 . S
O349 Eu321 2.355 . S
O349 Eu331 2.670 . S
O349 C338 1.270 . S
O350 Eu331 2.394 . S
O350 C339 1.251 . S
O351 Eu321 2.374 . S
O351 C339 1.251 . S
H352 C323 0.931 . S
H353 C324 0.931 . S
H354 C326 0.931 . S
H355 C327 0.931 . S
H356 C333 0.931 . S
H357 C334 0.931 . S
H358 C336 0.931 . S
H359 C337 0.931 . S
C360 Eu361 2.835 . S
C360 C362 1.500 . S
C360 O380 1.257 . S
C360 O381 1.260 . S
Eu361 C360 2.835 . S
Eu361 O380 2.473 . S
Eu361 O381 2.480 . S
Eu361 O382 2.430 . S
Eu361 O383 2.670 . S
Eu361 O384 2.394 . S
Eu361 O389 2.355 . S
Eu361 O391 2.374 . S
C362 C360 1.500 . S
C362 C363 1.377 . S
C362 C367 1.377 . S
C363 C362 1.377 . S
C363 C364 1.395 . S
C363 H392 0.931 . S
C364 C363 1.395 . S
C364 C365 1.383 . S
C364 H393 0.931 . S
C365 C364 1.383 . S
C365 C366 1.394 . S
C366 C365 1.394 . S
C366 C367 1.378 . S
C366 H394 0.931 . S
C367 C362 1.377 . S
C367 C366 1.378 . S
C367 H395 0.931 . S
C368 O382 1.259 . S
C368 O383 1.270 . S
C369 O384 1.251 . S
C369 O385 1.251 . S
C370 Eu371 2.835 . S
C370 C372 1.500 . S
C370 O386 1.257 . S
C370 O387 1.260 . S
Eu371 C370 2.835 . S
Eu371 O383 2.355 . S
Eu371 O385 2.374 . S
Eu371 O386 2.473 . S
Eu371 O387 2.480 . S
Eu371 O388 2.430 . S
Eu371 O389 2.670 . S
Eu371 O390 2.394 . S
C372 C370 1.500 . S
C372 C373 1.377 . S
C372 C377 1.377 . S
C373 C372 1.377 . S
C373 C374 1.395 . S
C373 H396 0.931 . S
C374 C373 1.395 . S
C374 C375 1.383 . S
C374 H397 0.931 . S
C375 C374 1.383 . S
C375 C376 1.394 . S
C376 C375 1.394 . S
C376 C377 1.378 . S
C376 H398 0.931 . S
C377 C372 1.377 . S
C377 C376 1.378 . S
C377 H399 0.931 . S
C378 O388 1.259 . S
C378 O389 1.270 . S
C379 O390 1.251 . S
C379 O391 1.251 . S
O380 C360 1.257 . S
O380 Eu361 2.473 . S
O381 C360 1.260 . S
O381 Eu361 2.480 . S
O382 Eu361 2.430 . S
O382 C368 1.259 . S
O383 Eu361 2.670 . S
O383 C368 1.270 . S
O383 Eu371 2.355 . S
O384 Eu361 2.394 . S
O384 C369 1.251 . S
O385 C369 1.251 . S
O385 Eu371 2.374 . S
O386 C370 1.257 . S
O386 Eu371 2.473 . S
O387 C370 1.260 . S
O387 Eu371 2.480 . S
O388 Eu371 2.430 . S
O388 C378 1.259 . S
O389 Eu361 2.355 . S
O389 Eu371 2.670 . S
O389 C378 1.270 . S
O390 Eu371 2.394 . S
O390 C379 1.251 . S
O391 Eu361 2.374 . S
O391 C379 1.251 . S
H392 C363 0.931 . S
H393 C364 0.931 . S
H394 C366 0.931 . S
H395 C367 0.931 . S
H396 C373 0.931 . S
H397 C374 0.931 . S
H398 C376 0.931 . S
H399 C377 0.931 . S
C400 Eu401 2.835 . S
C400 C402 1.500 . S
C400 O420 1.257 . S
C400 O421 1.260 . S
Eu401 C400 2.835 . S
Eu401 O420 2.473 . S
Eu401 O421 2.480 . S
Eu401 O422 2.430 . S
Eu401 O423 2.670 . S
Eu401 O424 2.394 . S
Eu401 O429 2.355 . S
Eu401 O431 2.374 . S
C402 C400 1.500 . S
C402 C403 1.377 . S
C402 C407 1.377 . S
C403 C402 1.377 . S
C403 C404 1.395 . S
C403 H432 0.931 . S
C404 C403 1.395 . S
C404 C405 1.383 1_556 S
C404 H433 0.931 . S
C405 C404 1.383 1_554 S
C405 C406 1.394 1_554 S
C406 C405 1.394 1_556 S
C406 C407 1.378 . S
C406 H434 0.931 1_556 S
C407 C402 1.377 . S
C407 C406 1.378 . S
C407 H435 0.931 . S
C408 O422 1.259 . S
C408 O423 1.270 . S
C409 O424 1.251 . S
C409 O425 1.251 . S
C410 Eu411 2.835 . S
C410 C412 1.500 . S
C410 O426 1.257 . S
C410 O427 1.260 . S
Eu411 C410 2.835 . S
Eu411 O423 2.355 . S
Eu411 O425 2.374 . S
Eu411 O426 2.473 . S
Eu411 O427 2.480 . S
Eu411 O428 2.430 . S
Eu411 O429 2.670 . S
Eu411 O430 2.394 . S
C412 C410 1.500 . S
C412 C413 1.377 . S
C412 C417 1.377 . S
C413 C412 1.377 . S
C413 C414 1.395 . S
C413 H436 0.931 . S
C414 C413 1.395 . S
C414 C415 1.383 . S
C414 H437 0.931 . S
C415 C414 1.383 . S
C415 C416 1.394 . S
C416 C415 1.394 . S
C416 C417 1.378 . S
C416 H438 0.931 . S
C417 C412 1.377 . S
C417 C416 1.378 . S
C417 H439 0.931 . S
C418 O428 1.259 . S
C418 O429 1.270 . S
C419 O430 1.251 . S
C419 O431 1.251 . S
O420 C400 1.257 . S
O420 Eu401 2.473 . S
O421 C400 1.260 . S
O421 Eu401 2.480 . S
O422 Eu401 2.430 . S
O422 C408 1.259 . S
O423 Eu401 2.670 . S
O423 C408 1.270 . S
O423 Eu411 2.355 . S
O424 Eu401 2.394 . S
O424 C409 1.251 . S
O425 C409 1.251 . S
O425 Eu411 2.374 . S
O426 C410 1.257 . S
O426 Eu411 2.473 . S
O427 C410 1.260 . S
O427 Eu411 2.480 . S
O428 Eu411 2.430 . S
O428 C418 1.259 . S
O429 Eu401 2.355 . S
O429 Eu411 2.670 . S
O429 C418 1.270 . S
O430 Eu411 2.394 . S
O430 C419 1.251 . S
O431 Eu401 2.374 . S
O431 C419 1.251 . S
H432 C403 0.931 . S
H433 C404 0.931 . S
H434 C406 0.931 1_554 S
H435 C407 0.931 . S
H436 C413 0.931 . S
H437 C414 0.931 . S
H438 C416 0.931 . S
H439 C417 0.931 . S
C440 Eu441 2.835 . S
C440 C442 1.500 . S
C440 O460 1.257 . S
C440 O461 1.260 . S
Eu441 C440 2.835 . S
Eu441 O460 2.473 . S
Eu441 O461 2.480 . S
Eu441 O462 2.430 . S
Eu441 O463 2.670 . S
Eu441 O464 2.394 . S
Eu441 O469 2.355 . S
Eu441 O471 2.374 . S
C442 C440 1.500 . S
C442 C443 1.377 . S
C442 C447 1.377 . S
C443 C442 1.377 . S
C443 C444 1.395 . S
C443 H472 0.931 . S
C444 C443 1.395 . S
C444 C445 1.383 . S
C444 H473 0.931 . S
C445 C444 1.383 . S
C445 C446 1.394 . S
C446 C445 1.394 . S
C446 C447 1.378 . S
C446 H474 0.931 . S
C447 C442 1.377 . S
C447 C446 1.378 . S
C447 H475 0.931 . S
C448 O462 1.259 . S
C448 O463 1.270 . S
C449 O464 1.251 . S
C449 O465 1.251 . S
C450 Eu451 2.835 1_556 S
C450 C452 1.500 . S
C450 O466 1.257 . S
C450 O467 1.260 . S
Eu451 C450 2.835 1_554 S
Eu451 O463 2.355 . S
Eu451 O465 2.374 . S
Eu451 O466 2.473 1_554 S
Eu451 O467 2.480 1_554 S
Eu451 O468 2.430 . S
Eu451 O469 2.670 . S
Eu451 O470 2.394 . S
C452 C450 1.500 . S
C452 C453 1.377 . S
C452 C457 1.377 . S
C453 C452 1.377 . S
C453 C454 1.395 . S
C453 H476 0.931 . S
C454 C453 1.395 . S
C454 C455 1.383 . S
C454 H477 0.931 . S
C455 C454 1.383 . S
C455 C456 1.394 . S
C456 C455 1.394 . S
C456 C457 1.378 . S
C456 H478 0.931 . S
C457 C452 1.377 . S
C457 C456 1.378 . S
C457 H479 0.931 . S
C458 O468 1.259 . S
C458 O469 1.270 . S
C459 O470 1.251 . S
C459 O471 1.251 . S
O460 C440 1.257 . S
O460 Eu441 2.473 . S
O461 C440 1.260 . S
O461 Eu441 2.480 . S
O462 Eu441 2.430 . S
O462 C448 1.259 . S
O463 Eu441 2.670 . S
O463 C448 1.270 . S
O463 Eu451 2.355 . S
O464 Eu441 2.394 . S
O464 C449 1.251 . S
O465 C449 1.251 . S
O465 Eu451 2.374 . S
O466 C450 1.257 . S
O466 Eu451 2.473 1_556 S
O467 C450 1.260 . S
O467 Eu451 2.480 1_556 S
O468 Eu451 2.430 . S
O468 C458 1.259 . S
O469 Eu441 2.355 . S
O469 Eu451 2.670 . S
O469 C458 1.270 . S
O470 Eu451 2.394 . S
O470 C459 1.251 . S
O471 Eu441 2.374 . S
O471 C459 1.251 . S
H472 C443 0.931 . S
H473 C444 0.931 . S
H474 C446 0.931 . S
H475 C447 0.931 . S
H476 C453 0.931 . S
H477 C454 0.931 . S
H478 C456 0.931 . S
H479 C457 0.931 . S
C480 C481 1.387 . S
C480 H484 0.950 . S
C480 C489 1.390 . S
C481 C480 1.387 . S
C481 C483 1.387 . S
H482 C489 0.950 . S
C483 C481 1.387 . S
C483 C485 1.390 . S
C483 H487 0.950 . S
H484 C480 0.950 . S
C485 C483 1.390 . S
C485 C486 1.387 . S
C485 H488 0.950 . S
C486 C485 1.387 . S
C486 C489 1.387 . S
H487 C483 0.950 . S
H488 C485 0.950 . S
C489 C480 1.390 . S
C489 H482 0.950 . S
C489 C486 1.387 . S
C490 C491 1.387 . S
C490 H494 0.950 . S
C490 C499 1.390 . S
C491 C490 1.387 . S
C491 C493 1.387 . S
H492 C499 0.950 . S
C493 C491 1.387 . S
C493 C495 1.390 . S
C493 H497 0.950 . S
H494 C490 0.950 . S
C495 C493 1.390 . S
C495 C496 1.387 . S
C495 H498 0.950 . S
C496 C495 1.387 . S
C496 C499 1.387 . S
H497 C493 0.950 . S
H498 C495 0.950 . S
C499 C490 1.390 . S
C499 H492 0.950 . S
C499 C496 1.387 . S
C500 C501 1.387 . S
C500 H504 0.950 . S
C500 C509 1.390 . S
C501 C500 1.387 . S
C501 C503 1.387 . S
H502 C509 0.950 . S
C503 C501 1.387 . S
C503 C505 1.390 . S
C503 H507 0.950 . S
H504 C500 0.950 . S
C505 C503 1.390 . S
C505 C506 1.387 . S
C505 H508 0.950 . S
C506 C505 1.387 . S
C506 C509 1.387 . S
H507 C503 0.950 . S
H508 C505 0.950 . S
C509 C500 1.390 . S
C509 H502 0.950 . S
C509 C506 1.387 . S
C510 C511 1.387 . S
C510 H514 0.950 . S
C510 C519 1.390 . S
C511 C510 1.387 . S
C511 C513 1.387 . S
H512 C519 0.950 . S
C513 C511 1.387 . S
C513 C515 1.390 . S
C513 H517 0.950 . S
H514 C510 0.950 . S
C515 C513 1.390 . S
C515 C516 1.387 . S
C515 H518 0.950 . S
C516 C515 1.387 . S
C516 C519 1.387 . S
H517 C513 0.950 . S
H518 C515 0.950 . S
C519 C510 1.390 . S
C519 H512 0.950 . S
C519 C516 1.387 . S
C520 C521 1.387 . S
C520 H524 0.950 . S
C520 C529 1.390 . S
C521 C520 1.387 . S
C521 C523 1.387 . S
H522 C529 0.950 . S
C523 C521 1.387 . S
C523 C525 1.390 . S
C523 H527 0.950 . S
H524 C520 0.950 . S
C525 C523 1.390 . S
C525 C526 1.387 . S
C525 H528 0.950 . S
C526 C525 1.387 . S
C526 C529 1.387 . S
H527 C523 0.950 . S
H528 C525 0.950 . S
C529 C520 1.390 . S
C529 H522 0.950 . S
C529 C526 1.387 . S
C530 C531 1.387 . S
C530 H534 0.950 . S
C530 C539 1.390 . S
C531 C530 1.387 . S
C531 C533 1.387 . S
H532 C539 0.950 . S
C533 C531 1.387 . S
C533 C535 1.390 . S
C533 H537 0.950 . S
H534 C530 0.950 . S
C535 C533 1.390 . S
C535 C536 1.387 . S
C535 H538 0.950 . S
C536 C535 1.387 . S
C536 C539 1.387 . S
H537 C533 0.950 . S
H538 C535 0.950 . S
C539 C530 1.390 . S
C539 H532 0.950 . S
C539 C536 1.387 . S
C540 C541 1.387 . S
C540 H544 0.950 . S
C540 C549 1.390 1_554 S
C541 C540 1.387 . S
C541 C543 1.387 . S
H542 C549 0.950 . S
C543 C541 1.387 . S
C543 C545 1.390 1_554 S
C543 H547 0.950 . S
H544 C540 0.950 . S
C545 C543 1.390 1_556 S
C545 C546 1.387 . S
C545 H548 0.950 . S
C546 C545 1.387 . S
C546 C549 1.387 . S
H547 C543 0.950 . S
H548 C545 0.950 . S
C549 C540 1.390 1_556 S
C549 H542 0.950 . S
C549 C546 1.387 . S
C550 C551 1.387 . S
C550 H554 0.950 . S
C550 C559 1.390 . S
C551 C550 1.387 . S
C551 C553 1.387 . S
H552 C559 0.950 . S
C553 C551 1.387 . S
C553 C555 1.390 . S
C553 H557 0.950 . S
H554 C550 0.950 . S
C555 C553 1.390 . S
C555 C556 1.387 . S
C555 H558 0.950 . S
C556 C555 1.387 . S
C556 C559 1.387 . S
H557 C553 0.950 . S
H558 C555 0.950 . S
C559 C550 1.390 . S
C559 H552 0.950 . S
C559 C556 1.387 . S
C560 C561 1.387 . S
C560 H564 0.950 . S
C560 C569 1.390 . S
C561 C560 1.387 . S
C561 C563 1.387 . S
H562 C569 0.950 . S
C563 C561 1.387 . S
C563 C565 1.390 . S
C563 H567 0.950 . S
H564 C560 0.950 . S
C565 C563 1.390 . S
C565 C566 1.387 . S
C565 H568 0.950 . S
C566 C565 1.387 . S
C566 C569 1.387 . S
H567 C563 0.950 . S
H568 C565 0.950 . S
C569 C560 1.390 . S
C569 H562 0.950 . S
C569 C566 1.387 . S
C570 C571 1.387 . S
C570 H574 0.950 . S
C570 C579 1.390 1_554 S
C571 C570 1.387 . S
C571 C573 1.387 . S
H572 C579 0.950 . S
C573 C571 1.387 . S
C573 C575 1.390 1_554 S
C573 H577 0.950 . S
H574 C570 0.950 . S
C575 C573 1.390 1_556 S
C575 C576 1.387 . S
C575 H578 0.950 . S
C576 C575 1.387 . S
C576 C579 1.387 . S
H577 C573 0.950 . S
H578 C575 0.950 . S
C579 C570 1.390 1_556 S
C579 H572 0.950 . S
C579 C576 1.387 . S
C580 C581 1.387 . S
C580 H584 0.950 . S
C580 C589 1.390 . S
C581 C580 1.387 . S
C581 C583 1.387 . S
H582 C589 0.950 . S
C583 C581 1.387 . S
C583 C585 1.390 . S
C583 H587 0.950 . S
H584 C580 0.950 . S
C585 C583 1.390 . S
C585 C586 1.387 . S
C585 H588 0.950 . S
C586 C585 1.387 . S
C586 C589 1.387 . S
H587 C583 0.950 . S
H588 C585 0.950 . S
C589 C580 1.390 . S
C589 H582 0.950 . S
C589 C586 1.387 . S
C590 C591 1.387 . S
C590 H594 0.950 . S
C590 C599 1.390 . S
C591 C590 1.387 . S
C591 C593 1.387 . S
H592 C599 0.950 . S
C593 C591 1.387 . S
C593 C595 1.390 . S
C593 H597 0.950 . S
H594 C590 0.950 . S
C595 C593 1.390 . S
C595 C596 1.387 . S
C595 H598 0.950 . S
C596 C595 1.387 . S
C596 C599 1.387 . S
H597 C593 0.950 . S
H598 C595 0.950 . S
C599 C590 1.390 . S
C599 H592 0.950 . S
C599 C596 1.387 . S
C600 C601 1.387 . S
C600 H604 0.950 . S
C600 C609 1.390 1_566 S
C601 C600 1.387 . S
C601 C603 1.387 . S
H602 C609 0.950 . S
C603 C601 1.387 . S
C603 C605 1.390 1_566 S
C603 H607 0.950 . S
H604 C600 0.950 . S
C605 C603 1.390 1_544 S
C605 C606 1.387 . S
C605 H608 0.950 . S
C606 C605 1.387 . S
C606 C609 1.387 . S
H607 C603 0.950 . S
H608 C605 0.950 . S
C609 C600 1.390 1_544 S
C609 H602 0.950 . S
C609 C606 1.387 . S
C610 C611 1.387 . S
C610 H614 0.950 . S
C610 C619 1.390 . S
C611 C610 1.387 . S
C611 C613 1.387 . S
H612 C619 0.950 . S
C613 C611 1.387 . S
C613 C615 1.390 . S
C613 H617 0.950 . S
H614 C610 0.950 . S
C615 C613 1.390 . S
C615 C616 1.387 . S
C615 H618 0.950 . S
C616 C615 1.387 . S
C616 C619 1.387 . S
H617 C613 0.950 . S
H618 C615 0.950 . S
C619 C610 1.390 . S
C619 H612 0.950 . S
C619 C616 1.387 . S
C620 C621 1.387 1_655 S
C620 H624 0.950 . S
C620 C629 1.390 . S
C621 C620 1.387 1_455 S
C621 C623 1.387 . S
H622 C629 0.950 . S
C623 C621 1.387 . S
C623 C625 1.390 . S
C623 H627 0.950 . S
H624 C620 0.950 . S
C625 C623 1.390 . S
C625 C626 1.387 1_455 S
C625 H628 0.950 . S
C626 C625 1.387 1_655 S
C626 C629 1.387 . S
H627 C623 0.950 . S
H628 C625 0.950 . S
C629 C620 1.390 . S
C629 H622 0.950 . S
C629 C626 1.387 . S
C630 C631 1.387 . S
C630 H634 0.950 . S
C630 C639 1.390 1_564 S
C631 C630 1.387 . S
C631 C633 1.387 . S
H632 C639 0.950 . S
C633 C631 1.387 . S
C633 C635 1.390 1_564 S
C633 H637 0.950 . S
H634 C630 0.950 . S
C635 C633 1.390 1_546 S
C635 C636 1.387 . S
C635 H638 0.950 . S
C636 C635 1.387 . S
C636 C639 1.387 . S
H637 C633 0.950 . S
H638 C635 0.950 . S
C639 C630 1.390 1_546 S
C639 H632 0.950 . S
C639 C636 1.387 . S
C640 C641 1.387 . S
C640 H644 0.950 . S
C640 C649 1.390 . S
C641 C640 1.387 . S
C641 C643 1.387 . S
H642 C649 0.950 . S
C643 C641 1.387 . S
C643 C645 1.390 . S
C643 H647 0.950 . S
H644 C640 0.950 . S
C645 C643 1.390 . S
C645 C646 1.387 . S
C645 H648 0.950 . S
C646 C645 1.387 . S
C646 C649 1.387 . S
H647 C643 0.950 . S
H648 C645 0.950 . S
C649 C640 1.390 . S
C649 H642 0.950 . S
C649 C646 1.387 . S
C650 C651 1.387 . S
C650 H654 0.950 . S
C650 C659 1.390 1_455 S
C651 C650 1.387 . S
C651 C653 1.387 . S
H652 C659 0.950 . S
C653 C651 1.387 . S
C653 C655 1.390 1_455 S
C653 H657 0.950 . S
H654 C650 0.950 . S
C655 C653 1.390 1_655 S
C655 C656 1.387 . S
C655 H658 0.950 . S
C656 C655 1.387 . S
C656 C659 1.387 . S
H657 C653 0.950 . S
H658 C655 0.950 . S
C659 C650 1.390 1_655 S
C659 H652 0.950 . S
C659 C656 1.387 . S
C660 C661 1.387 . S
C660 H664 0.950 . S
C660 C669 1.390 1_545 S
C661 C660 1.387 . S
C661 C663 1.387 . S
H662 C669 0.950 . S
C663 C661 1.387 . S
C663 C665 1.390 1_545 S
C663 H667 0.950 . S
H664 C660 0.950 . S
C665 C663 1.390 1_565 S
C665 C666 1.387 . S
C665 H668 0.950 . S
C666 C665 1.387 . S
C666 C669 1.387 . S
H667 C663 0.950 . S
H668 C665 0.950 . S
C669 C660 1.390 1_565 S
C669 H662 0.950 . S
C669 C666 1.387 . S
C670 C671 1.387 . S
C670 H674 0.950 . S
C670 C679 1.390 . S
C671 C670 1.387 . S
C671 C673 1.387 . S
H672 C679 0.950 . S
C673 C671 1.387 . S
C673 C675 1.390 . S
C673 H677 0.950 . S
H674 C670 0.950 . S
C675 C673 1.390 . S
C675 C676 1.387 . S
C675 H678 0.950 . S
C676 C675 1.387 . S
C676 C679 1.387 . S
H677 C673 0.950 . S
H678 C675 0.950 . S
C679 C670 1.390 . S
C679 H672 0.950 . S
C679 C676 1.387 . S
C680 C681 1.387 . S
C680 H684 0.950 . S
C680 C689 1.390 1_655 S
C681 C680 1.387 . S
C681 C683 1.387 . S
H682 C689 0.950 . S
C683 C681 1.387 . S
C683 C685 1.390 1_655 S
C683 H687 0.950 . S
H684 C680 0.950 . S
C685 C683 1.390 1_455 S
C685 C686 1.387 . S
C685 H688 0.950 . S
C686 C685 1.387 . S
C686 C689 1.387 . S
H687 C683 0.950 . S
H688 C685 0.950 . S
C689 C680 1.390 1_455 S
C689 H682 0.950 . S
C689 C686 1.387 . S
C690 C691 1.387 . S
C690 H694 0.950 . S
C690 C699 1.390 1_455 S
C691 C690 1.387 . S
C691 C693 1.387 . S
H692 C699 0.950 . S
C693 C691 1.387 . S
C693 C695 1.390 1_455 S
C693 H697 0.950 . S
H694 C690 0.950 . S
C695 C693 1.390 1_655 S
C695 C696 1.387 . S
C695 H698 0.950 . S
C696 C695 1.387 . S
C696 C699 1.387 . S
H697 C693 0.950 . S
H698 C695 0.950 . S
C699 C690 1.390 1_655 S
C699 H692 0.950 . S
C699 C696 1.387 . S
C700 C701 1.387 . S
C700 H704 0.950 . S
C700 C709 1.390 1_565 S
C701 C700 1.387 . S
C701 C703 1.387 . S
H702 C709 0.950 . S
C703 C701 1.387 . S
C703 C705 1.390 1_565 S
C703 H707 0.950 . S
H704 C700 0.950 . S
C705 C703 1.390 1_545 S
C705 C706 1.387 . S
C705 H708 0.950 . S
C706 C705 1.387 . S
C706 C709 1.387 . S
H707 C703 0.950 . S
H708 C705 0.950 . S
C709 C700 1.390 1_545 S
C709 H702 0.950 . S
C709 C706 1.387 . S
C710 C711 1.387 . S
C710 H714 0.950 . S
C710 C719 1.390 . S
C711 C710 1.387 . S
C711 C713 1.387 . S
H712 C719 0.950 . S
C713 C711 1.387 . S
C713 C715 1.390 . S
C713 H717 0.950 . S
H714 C710 0.950 . S
C715 C713 1.390 . S
C715 C716 1.387 . S
C715 H718 0.950 . S
C716 C715 1.387 . S
C716 C719 1.387 . S
H717 C713 0.950 . S
H718 C715 0.950 . S
C719 C710 1.390 . S
C719 H712 0.950 . S
C719 C716 1.387 . S
C720 C721 1.387 . S
C720 H724 0.950 . S
C720 C729 1.390 1_565 S
C721 C720 1.387 . S
C721 C723 1.387 . S
H722 C729 0.950 . S
C723 C721 1.387 . S
C723 C725 1.390 1_565 S
C723 H727 0.950 . S
H724 C720 0.950 . S
C725 C723 1.390 1_545 S
C725 C726 1.387 . S
C725 H728 0.950 . S
C726 C725 1.387 . S
C726 C729 1.387 . S
H727 C723 0.950 . S
H728 C725 0.950 . S
C729 C720 1.390 1_545 S
C729 H722 0.950 . S
C729 C726 1.387 . S
C730 C731 1.387 . S
C730 H734 0.950 . S
C730 C739 1.390 . S
C731 C730 1.387 . S
C731 C733 1.387 . S
H732 C739 0.950 . S
C733 C731 1.387 . S
C733 C735 1.390 . S
C733 H737 0.950 . S
H734 C730 0.950 . S
C735 C733 1.390 . S
C735 C736 1.387 . S
C735 H738 0.950 . S
C736 C735 1.387 . S
C736 C739 1.387 . S
H737 C733 0.950 . S
H738 C735 0.950 . S
C739 C730 1.390 . S
C739 H732 0.950 . S
C739 C736 1.387 . S
C740 C741 1.387 . S
C740 H744 0.950 . S
C740 C749 1.390 1_655 S
C741 C740 1.387 . S
C741 C743 1.387 . S
H742 C749 0.950 . S
C743 C741 1.387 . S
C743 C745 1.390 1_655 S
C743 H747 0.950 . S
H744 C740 0.950 . S
C745 C743 1.390 1_455 S
C745 C746 1.387 . S
C745 H748 0.950 . S
C746 C745 1.387 . S
C746 C749 1.387 . S
H747 C743 0.950 . S
H748 C745 0.950 . S
C749 C740 1.390 1_455 S
C749 H742 0.950 . S
C749 C746 1.387 . S
C750 C751 1.387 . S
C750 H754 0.950 . S
C750 C759 1.390 1_545 S
C751 C750 1.387 . S
C751 C753 1.387 . S
H752 C759 0.950 . S
C753 C751 1.387 . S
C753 C755 1.390 1_545 S
C753 H757 0.950 . S
H754 C750 0.950 . S
C755 C753 1.390 1_565 S
C755 C756 1.387 . S
C755 H758 0.950 . S
C756 C755 1.387 . S
C756 C759 1.387 . S
H757 C753 0.950 . S
H758 C755 0.950 . S
C759 C750 1.390 1_565 S
C759 H752 0.950 . S
C759 C756 1.387 . S
C760 C761 1.387 . S
C760 H764 0.950 . S
C760 C769 1.390 . S
C761 C760 1.387 . S
C761 C763 1.387 . S
H762 C769 0.950 . S
C763 C761 1.387 . S
C763 C765 1.390 . S
C763 H767 0.950 . S
H764 C760 0.950 . S
C765 C763 1.390 . S
C765 C766 1.387 . S
C765 H768 0.950 . S
C766 C765 1.387 . S
C766 C769 1.387 . S
H767 C763 0.950 . S
H768 C765 0.950 . S
C769 C760 1.390 . S
C769 H762 0.950 . S
C769 C766 1.387 . S
C770 C771 1.387 . S
C770 H774 0.950 . S
C770 C779 1.390 1_455 S
C771 C770 1.387 . S
C771 C773 1.387 . S
H772 C779 0.950 . S
C773 C771 1.387 . S
C773 C775 1.390 1_455 S
C773 H777 0.950 . S
H774 C770 0.950 . S
C775 C773 1.390 1_655 S
C775 C776 1.387 . S
C775 H778 0.950 . S
C776 C775 1.387 . S
C776 C779 1.387 . S
H777 C773 0.950 . S
H778 C775 0.950 . S
C779 C770 1.390 1_655 S
C779 H772 0.950 . S
C779 C776 1.387 . S
C780 C781 1.387 . S
C780 H784 0.950 . S
C780 C789 1.390 . S
C781 C780 1.387 . S
C781 C783 1.387 . S
H782 C789 0.950 . S
C783 C781 1.387 . S
C783 C785 1.390 . S
C783 H787 0.950 . S
H784 C780 0.950 . S
C785 C783 1.390 . S
C785 C786 1.387 . S
C785 H788 0.950 . S
C786 C785 1.387 . S
C786 C789 1.387 . S
H787 C783 0.950 . S
H788 C785 0.950 . S
C789 C780 1.390 . S
C789 H782 0.950 . S
C789 C786 1.387 . S
C790 C791 1.387 . S
C790 H794 0.950 . S
C790 C799 1.390 . S
C791 C790 1.387 . S
C791 C793 1.387 . S
H792 C799 0.950 . S
C793 C791 1.387 . S
C793 C795 1.390 . S
C793 H797 0.950 . S
H794 C790 0.950 . S
C795 C793 1.390 . S
C795 C796 1.387 . S
C795 H798 0.950 . S
C796 C795 1.387 . S
C796 C799 1.387 . S
H797 C793 0.950 . S
H798 C795 0.950 . S
C799 C790 1.390 . S
C799 H792 0.950 . S
C799 C796 1.387 . S
C800 C801 1.387 . S
C800 H804 0.950 . S
C800 C809 1.390 . S
C801 C800 1.387 . S
C801 C803 1.387 . S
H802 C809 0.950 . S
C803 C801 1.387 . S
C803 C805 1.390 . S
C803 H807 0.950 . S
H804 C800 0.950 . S
C805 C803 1.390 . S
C805 C806 1.387 . S
C805 H808 0.950 . S
C806 C805 1.387 . S
C806 C809 1.387 . S
H807 C803 0.950 . S
H808 C805 0.950 . S
C809 C800 1.390 . S
C809 H802 0.950 . S
C809 C806 1.387 . S
C810 C811 1.387 . S
C810 H814 0.950 . S
C810 C819 1.390 . S
C811 C810 1.387 . S
C811 C813 1.387 . S
H812 C819 0.950 . S
C813 C811 1.387 . S
C813 C815 1.390 . S
C813 H817 0.950 . S
H814 C810 0.950 . S
C815 C813 1.390 . S
C815 C816 1.387 . S
C815 H818 0.950 . S
C816 C815 1.387 . S
C816 C819 1.387 . S
H817 C813 0.950 . S
H818 C815 0.950 . S
C819 C810 1.390 . S
C819 H812 0.950 . S
C819 C816 1.387 . S
C820 C821 1.387 . S
C820 H824 0.950 . S
C820 C829 1.390 . S
C821 C820 1.387 . S
C821 C823 1.387 . S
H822 C829 0.950 . S
C823 C821 1.387 . S
C823 C825 1.390 . S
C823 H827 0.950 . S
H824 C820 0.950 . S
C825 C823 1.390 . S
C825 C826 1.387 . S
C825 H828 0.950 . S
C826 C825 1.387 . S
C826 C829 1.387 . S
H827 C823 0.950 . S
H828 C825 0.950 . S
C829 C820 1.390 . S
C829 H822 0.950 . S
C829 C826 1.387 . S
C830 C831 1.387 . S
C830 H834 0.950 . S
C830 C839 1.390 . S
C831 C830 1.387 . S
C831 C833 1.387 . S
H832 C839 0.950 . S
C833 C831 1.387 . S
C833 C835 1.390 . S
C833 H837 0.950 . S
H834 C830 0.950 . S
C835 C833 1.390 . S
C835 C836 1.387 . S
C835 H838 0.950 . S
C836 C835 1.387 . S
C836 C839 1.387 . S
H837 C833 0.950 . S
H838 C835 0.950 . S
C839 C830 1.390 . S
C839 H832 0.950 . S
C839 C836 1.387 . S
C481 C18 1.312 . S
C486 C338 1.310 . S
C491 C58 1.312 . S
C496 C378 1.312 . S
C501 C98 1.306 . S
C506 C418 1.308 . S
C511 C458 1.308 . S
C516 C138 1.310 . S
C521 C178 1.307 . S
C526 C258 1.307 . S
C531 C298 1.310 . S
C536 C218 1.311 . S
C541 C405 1.258 . S
C546 C5 1.258 . S
C551 C445 1.261 . S
C556 C45 1.260 . S
C561 C85 1.260 . S
C566 C245 1.258 . S
C571 C285 1.261 . S
C576 C125 1.261 . S
C581 C325 1.258 . S
C586 C165 1.258 . S
C591 C205 1.261 . S
C596 C365 1.259 . S
C601 C289 4.412 . S
C606 C9 4.412 . S
C611 C329 4.413 . S
C616 C49 4.413 . S
C621 C369 4.412 . S
C626 C89 4.412 . S
C631 C129 4.412 . S
C636 C409 4.412 . S
C641 C169 4.412 . S
C646 C449 4.413 . S
C651 C209 4.413 . S
C656 C249 4.413 . S
C661 C8 1.291 . S
C666 C128 1.291 . S
C671 C48 1.291 . S
C676 C168 1.291 . S
C681 C88 1.291 . S
C686 C208 1.291 . S
C691 C368 1.287 . S
C696 C248 1.287 . S
C701 C288 1.287 . S
C706 C408 1.287 . S
C711 C448 1.287 . S
C716 C328 1.287 . S
C721 C295 0.816 . S
C726 C15 0.816 . S
C731 C335 0.813 . S
C736 C55 0.809 . S
C741 C95 0.807 . S
C746 C375 0.811 . S
C751 C415 0.816 . S
C756 C135 0.816 . S
C761 C455 0.815 . S
C766 C175 0.813 . S
C771 C215 0.814 . S
C776 C255 0.811 . S
C781 C19 4.782 . S
C786 C419 4.782 . S
C791 C59 4.782 . S
C796 C459 4.782 1_556 S
C801 C99 4.782 1_554 S
C806 C259 4.782 . S
C811 C139 4.782 . S
C816 C299 4.782 . S
C821 C179 4.782 . S
C826 C339 4.782 1_556 S
C831 C379 4.782 . S
C836 C219 4.782 1_554 S
