# Generated by pormake.
# Topology whd, (6)-cn, num edge types: 1
# Building blocks:
#     Node 0, Type 0, BuildingBlock: OJICUG_clean_sbu_0, # of connection points: 6
#     Node 1, Type 0, BuildingBlock: OJICUG_clean_sbu_0, # of connection points: 6
#     Node 2, Type 0, BuildingBlock: OJICUG_clean_sbu_0, # of connection points: 6
#     Node 3, Type 0, BuildingBlock: OJICUG_clean_sbu_0, # of connection points: 6
#     Node 4, Type 0, BuildingBlock: OJICUG_clean_sbu_0, # of connection points: 6
#     Node 5, Type 0, BuildingBlock: OJICUG_clean_sbu_0, # of connection points: 6
#     Node 6, Type 0, BuildingBlock: OJICUG_clean_sbu_0, # of connection points: 6
#     Node 7, Type 0, BuildingBlock: OJICUG_clean_sbu_0, # of connection points: 6
#     Node 8, Type 0, BuildingBlock: OJICUG_clean_sbu_0, # of connection points: 6
#     Node 9, Type 0, BuildingBlock: OJICUG_clean_sbu_0, # of connection points: 6
#     Node 10, Type 0, BuildingBlock: OJICUG_clean_sbu_0, # of connection points: 6
#     Node 11, Type 0, BuildingBlock: OJICUG_clean_sbu_0, # of connection points: 6
#     Node 12, Type 0, BuildingBlock: OJICUG_clean_sbu_0, # of connection points: 6
#     Node 13, Type 0, BuildingBlock: OJICUG_clean_sbu_0, # of connection points: 6
#     Node 14, Type 0, BuildingBlock: OJICUG_clean_sbu_0, # of connection points: 6
#     Node 15, Type 0, BuildingBlock: OJICUG_clean_sbu_0, # of connection points: 6
#     Edge 16, Type (0, 0), BuildingBlock: XIVTED_clean_linker_0, # of connection points: 2
#     Edge 17, Type (0, 0), BuildingBlock: XIVTED_clean_linker_0, # of connection points: 2
#     Edge 18, Type (0, 0), BuildingBlock: XIVTED_clean_linker_0, # of connection points: 2
#     Edge 19, Type (0, 0), BuildingBlock: XIVTED_clean_linker_0, # of connection points: 2
#     Edge 20, Type (0, 0), BuildingBlock: XIVTED_clean_linker_0, # of connection points: 2
#     Edge 21, Type (0, 0), BuildingBlock: XIVTED_clean_linker_0, # of connection points: 2
#     Edge 22, Type (0, 0), BuildingBlock: XIVTED_clean_linker_0, # of connection points: 2
#     Edge 23, Type (0, 0), BuildingBlock: XIVTED_clean_linker_0, # of connection points: 2
#     Edge 24, Type (0, 0), BuildingBlock: XIVTED_clean_linker_0, # of connection points: 2
#     Edge 25, Type (0, 0), BuildingBlock: XIVTED_clean_linker_0, # of connection points: 2
#     Edge 26, Type (0, 0), BuildingBlock: XIVTED_clean_linker_0, # of connection points: 2
#     Edge 27, Type (0, 0), BuildingBlock: XIVTED_clean_linker_0, # of connection points: 2
#     Edge 28, Type (0, 0), BuildingBlock: XIVTED_clean_linker_0, # of connection points: 2
#     Edge 29, Type (0, 0), BuildingBlock: XIVTED_clean_linker_0, # of connection points: 2
#     Edge 30, Type (0, 0), BuildingBlock: XIVTED_clean_linker_0, # of connection points: 2
#     Edge 31, Type (0, 0), BuildingBlock: XIVTED_clean_linker_0, # of connection points: 2
#     Edge 32, Type (0, 0), BuildingBlock: XIVTED_clean_linker_0, # of connection points: 2
#     Edge 33, Type (0, 0), BuildingBlock: XIVTED_clean_linker_0, # of connection points: 2
#     Edge 34, Type (0, 0), BuildingBlock: XIVTED_clean_linker_0, # of connection points: 2
#     Edge 35, Type (0, 0), BuildingBlock: XIVTED_clean_linker_0, # of connection points: 2
#     Edge 36, Type (0, 0), BuildingBlock: XIVTED_clean_linker_0, # of connection points: 2
#     Edge 37, Type (0, 0), BuildingBlock: XIVTED_clean_linker_0, # of connection points: 2
#     Edge 38, Type (0, 0), BuildingBlock: XIVTED_clean_linker_0, # of connection points: 2
#     Edge 39, Type (0, 0), BuildingBlock: XIVTED_clean_linker_0, # of connection points: 2
#     Edge 40, Type (0, 0), BuildingBlock: XIVTED_clean_linker_0, # of connection points: 2
#     Edge 41, Type (0, 0), BuildingBlock: XIVTED_clean_linker_0, # of connection points: 2
#     Edge 42, Type (0, 0), BuildingBlock: XIVTED_clean_linker_0, # of connection points: 2
#     Edge 43, Type (0, 0), BuildingBlock: XIVTED_clean_linker_0, # of connection points: 2
#     Edge 44, Type (0, 0), BuildingBlock: XIVTED_clean_linker_0, # of connection points: 2
#     Edge 45, Type (0, 0), BuildingBlock: XIVTED_clean_linker_0, # of connection points: 2
#     Edge 46, Type (0, 0), BuildingBlock: XIVTED_clean_linker_0, # of connection points: 2
#     Edge 47, Type (0, 0), BuildingBlock: XIVTED_clean_linker_0, # of connection points: 2
#     Edge 48, Type (0, 0), BuildingBlock: XIVTED_clean_linker_0, # of connection points: 2
#     Edge 49, Type (0, 0), BuildingBlock: XIVTED_clean_linker_0, # of connection points: 2
#     Edge 50, Type (0, 0), BuildingBlock: XIVTED_clean_linker_0, # of connection points: 2
#     Edge 51, Type (0, 0), BuildingBlock: XIVTED_clean_linker_0, # of connection points: 2
#     Edge 52, Type (0, 0), BuildingBlock: XIVTED_clean_linker_0, # of connection points: 2
#     Edge 53, Type (0, 0), BuildingBlock: XIVTED_clean_linker_0, # of connection points: 2
#     Edge 54, Type (0, 0), BuildingBlock: XIVTED_clean_linker_0, # of connection points: 2
#     Edge 55, Type (0, 0), BuildingBlock: XIVTED_clean_linker_0, # of connection points: 2
#     Edge 56, Type (0, 0), BuildingBlock: XIVTED_clean_linker_0, # of connection points: 2
#     Edge 57, Type (0, 0), BuildingBlock: XIVTED_clean_linker_0, # of connection points: 2
#     Edge 58, Type (0, 0), BuildingBlock: XIVTED_clean_linker_0, # of connection points: 2
#     Edge 59, Type (0, 0), BuildingBlock: XIVTED_clean_linker_0, # of connection points: 2
#     Edge 60, Type (0, 0), BuildingBlock: XIVTED_clean_linker_0, # of connection points: 2
#     Edge 61, Type (0, 0), BuildingBlock: XIVTED_clean_linker_0, # of connection points: 2
#     Edge 62, Type (0, 0), BuildingBlock: XIVTED_clean_linker_0, # of connection points: 2
#     Edge 63, Type (0, 0), BuildingBlock: XIVTED_clean_linker_0, # of connection points: 2
# Relax obj value: 0.256
# Max RMSD: 0.229
# Mean RMSD: 0.229
data_MOF--net-whd--node1-OJICUG_clean_sbu_0--edge1-XIVTED_clean_linker_0
_symmetry_space_group_name_H-M    P1
_symmetry_Int_Tables_number       1
_symmetry_cell_setting            triclinic
loop_
_symmetry_equiv_pos_as_xyz
'x, y, z'
_cell_length_a     52.582799
_cell_length_b     52.58179
_cell_length_c     30.762906
_cell_angle_alpha  89.879002
_cell_angle_beta   90.01433
_cell_angle_gamma 90.121756
loop_
_atom_site_label
_atom_site_type_symbol
_atom_site_fract_x
_atom_site_fract_y
_atom_site_fract_z
_atom_type_partial_charge
Sc0 Sc 0.16398 0.34867 0.33624 0.0
Sc1 Sc 0.19839 0.40231 0.29934 0.0
Sc2 Sc 0.15079 0.40854 0.37895 0.0
O3 O 0.17101 0.3865 0.33792 0.0
C4 C 0.10822 0.37264 0.34015 0.0
C5 C 0.17406 0.36081 0.23662 0.0
C6 C 0.15687 0.44499 0.29624 0.0
C7 C 0.22447 0.35194 0.3329 0.0
C8 C 0.15678 0.35826 0.43613 0.0
C9 C 0.20643 0.43005 0.39022 0.0
O10 O 0.12357 0.35425 0.33454 0.0
O11 O 0.1877 0.38037 0.24328 0.0
O12 O 0.14858 0.43959 0.33388 0.0
O13 O 0.20361 0.34026 0.33908 0.0
O14 O 0.15058 0.38134 0.431 0.0
O15 O 0.21266 0.42627 0.35084 0.0
O16 O 0.16336 0.34403 0.40506 0.0
O17 O 0.22601 0.3745 0.3184 0.0
O18 O 0.1852 0.42327 0.4063 0.0
O19 O 0.16371 0.34816 0.26696 0.0
O20 O 0.11509 0.39448 0.35367 0.0
O21 O 0.17344 0.43177 0.27665 0.0
Sc22 Sc 0.34465 0.81395 0.65673 0.0
Sc23 Sc 0.40051 0.78379 0.69361 0.0
Sc24 Sc 0.40356 0.83089 0.61312 0.0
O25 O 0.38284 0.8096 0.65477 0.0
C26 C 0.35325 0.82201 0.55688 0.0
C27 C 0.3517 0.75388 0.66282 0.0
C28 C 0.42769 0.77662 0.60194 0.0
C29 C 0.35834 0.80687 0.75675 0.0
C30 C 0.36543 0.87124 0.64949 0.0
C31 C 0.44073 0.82772 0.69518 0.0
O32 O 0.34018 0.81225 0.58725 0.0
O33 O 0.37458 0.75409 0.67583 0.0
O34 O 0.4193 0.79712 0.58532 0.0
O35 O 0.34436 0.81593 0.72677 0.0
O36 O 0.38804 0.86547 0.63856 0.0
O37 O 0.42817 0.81084 0.71539 0.0
O38 O 0.34777 0.85486 0.65469 0.0
O39 O 0.37838 0.79416 0.74937 0.0
O40 O 0.43529 0.83482 0.65684 0.0
O41 O 0.33851 0.77381 0.65707 0.0
O42 O 0.37539 0.83095 0.5627 0.0
O43 O 0.42498 0.77075 0.64183 0.0
Sc44 Sc 0.81252 0.62864 0.33283 0.0
Sc45 Sc 0.77892 0.57398 0.29861 0.0
Sc46 Sc 0.83073 0.5684 0.37074 0.0
O47 O 0.80747 0.59031 0.33392 0.0
C48 C 0.8695 0.60838 0.32987 0.0
C49 C 0.79987 0.61608 0.23371 0.0
C50 C 0.82336 0.53371 0.28685 0.0
C51 C 0.7525 0.6232 0.33678 0.0
C52 C 0.82352 0.61655 0.43214 0.0
C53 C 0.77585 0.5443 0.388 0.0
O54 O 0.85274 0.62531 0.32297 0.0
O55 O 0.78933 0.5948 0.24136 0.0
O56 O 0.83563 0.54045 0.32048 0.0
O57 O 0.77306 0.63506 0.34426 0.0
O58 O 0.82872 0.5933 0.42584 0.0
O59 O 0.76588 0.55129 0.35237 0.0
O60 O 0.81762 0.63169 0.40168 0.0
O61 O 0.75152 0.60179 0.318 0.0
O62 O 0.79881 0.54879 0.39842 0.0
O63 O 0.80814 0.63068 0.26338 0.0
O64 O 0.86454 0.58678 0.34656 0.0
O65 O 0.80263 0.544 0.27538 0.0
Sc66 Sc 0.6271 0.16613 0.66008 0.0
Sc67 Sc 0.57185 0.20066 0.686 0.0
Sc68 Sc 0.56817 0.14686 0.61813 0.0
O69 O 0.58898 0.17115 0.65484 0.0
C70 C 0.61793 0.15162 0.56067 0.0
C71 C 0.62262 0.22558 0.6493 0.0
C72 C 0.54496 0.20138 0.59417 0.0
C73 C 0.6116 0.18254 0.75665 0.0
C74 C 0.60636 0.1098 0.66787 0.0
C75 C 0.53078 0.1565 0.69751 0.0
O76 O 0.63249 0.15662 0.59245 0.0
O77 O 0.60131 0.22707 0.66847 0.0
O78 O 0.54861 0.17783 0.58723 0.0
O79 O 0.62755 0.17478 0.72866 0.0
O80 O 0.58662 0.11366 0.64486 0.0
O81 O 0.54018 0.17806 0.70675 0.0
O82 O 0.62228 0.12708 0.67769 0.0
O83 O 0.58985 0.19116 0.74649 0.0
O84 O 0.53931 0.14258 0.66717 0.0
O85 O 0.63402 0.20473 0.64233 0.0
O86 O 0.59415 0.14858 0.56482 0.0
O87 O 0.55202 0.21273 0.6285 0.0
Sc88 Sc 0.14581 0.57284 0.6106 0.0
Sc89 Sc 0.19398 0.57618 0.68887 0.0
Sc90 Sc 0.16269 0.63183 0.65394 0.0
O91 O 0.16746 0.5937 0.6514 0.0
C92 C 0.1523 0.62369 0.55454 0.0
C93 C 0.20045 0.55029 0.59594 0.0
C94 C 0.2229 0.62555 0.65726 0.0
C95 C 0.1512 0.53487 0.69124 0.0
C96 C 0.10572 0.60973 0.65157 0.0
C97 C 0.17162 0.61773 0.75364 0.0
O98 O 0.14384 0.6014 0.5607 0.0
O99 O 0.20676 0.55269 0.63568 0.0
O100 O 0.20281 0.63849 0.65131 0.0
O101 O 0.14355 0.54038 0.65326 0.0
O102 O 0.12178 0.62783 0.6553 0.0
O103 O 0.18392 0.59754 0.74552 0.0
O104 O 0.11164 0.58738 0.63934 0.0
O105 O 0.1678 0.54784 0.71118 0.0
O106 O 0.16242 0.63199 0.72417 0.0
O107 O 0.17948 0.55828 0.58041 0.0
O108 O 0.16262 0.63668 0.58439 0.0
O109 O 0.22297 0.6028 0.67097 0.0
Sc110 Sc 0.57375 0.82915 0.37585 0.0
Sc111 Sc 0.57703 0.77837 0.30129 0.0
Sc112 Sc 0.63266 0.81104 0.33323 0.0
O113 O 0.59443 0.80626 0.33659 0.0
C114 C 0.61147 0.86761 0.32816 0.0
C115 C 0.53643 0.82228 0.29469 0.0
C116 C 0.61916 0.79711 0.23498 0.0
C117 C 0.54953 0.77478 0.39329 0.0
C118 C 0.62389 0.82375 0.43259 0.0
C119 C 0.62619 0.75119 0.3392 0.0
O120 O 0.59083 0.86305 0.3485 0.0
O121 O 0.54765 0.80322 0.2784 0.0
O122 O 0.6336 0.80557 0.26458 0.0
O123 O 0.55603 0.79688 0.40581 0.0
O124 O 0.63814 0.81758 0.40127 0.0
O125 O 0.60449 0.7506 0.32109 0.0
O126 O 0.60043 0.82829 0.42812 0.0
O127 O 0.55411 0.76616 0.35555 0.0
O128 O 0.63866 0.77154 0.34603 0.0
O129 O 0.54325 0.83273 0.32997 0.0
O130 O 0.62829 0.85085 0.32042 0.0
O131 O 0.59766 0.78714 0.2428 0.0
Sc132 Sc 0.83211 0.40528 0.62211 0.0
Sc133 Sc 0.7809 0.39701 0.69525 0.0
Sc134 Sc 0.81431 0.34398 0.65477 0.0
O135 O 0.80917 0.38212 0.65754 0.0
C136 C 0.82609 0.35861 0.55706 0.0
C137 C 0.77705 0.42882 0.60767 0.0
C138 C 0.7542 0.34906 0.65269 0.0
C139 C 0.82449 0.43776 0.70897 0.0
C140 C 0.87111 0.36533 0.65992 0.0
C141 C 0.80264 0.35282 0.75544 0.0
O142 O 0.83247 0.38126 0.56595 0.0
O143 O 0.76807 0.42199 0.64421 0.0
O144 O 0.77469 0.33726 0.64475 0.0
O145 O 0.8356 0.43278 0.67337 0.0
O146 O 0.85458 0.34779 0.66395 0.0
O147 O 0.79084 0.37368 0.75031 0.0
O148 O 0.8661 0.38755 0.646 0.0
O149 O 0.80487 0.42593 0.72194 0.0
O150 O 0.81153 0.34004 0.72398 0.0
O151 O 0.79951 0.42385 0.59501 0.0
O152 O 0.81807 0.34302 0.58538 0.0
O153 O 0.75337 0.37019 0.67238 0.0
Sc154 Sc 0.40272 0.14488 0.3833 0.0
Sc155 Sc 0.39625 0.18688 0.29583 0.0
Sc156 Sc 0.34296 0.15427 0.33683 0.0
O157 O 0.38058 0.16194 0.33854 0.0
C158 C 0.36755 0.09963 0.35429 0.0
C159 C 0.43813 0.14513 0.29873 0.0
C160 C 0.3554 0.15799 0.23695 0.0
C161 C 0.4246 0.2003 0.38423 0.0
C162 C 0.35194 0.15505 0.43759 0.0
C163 C 0.34599 0.21445 0.32275 0.0
O164 O 0.38954 0.10774 0.3646 0.0
O165 O 0.42414 0.15975 0.27627 0.0
O166 O 0.34379 0.14736 0.26825 0.0
O167 O 0.41657 0.18092 0.40471 0.0
O168 O 0.33803 0.16005 0.40505 0.0
O169 O 0.36936 0.21548 0.31269 0.0
O170 O 0.37479 0.14758 0.43417 0.0
O171 O 0.42181 0.20326 0.34348 0.0
O172 O 0.33381 0.19376 0.32834 0.0
O173 O 0.4341 0.14037 0.33871 0.0
O174 O 0.34878 0.11418 0.3465 0.0
O175 O 0.3731 0.17414 0.24238 0.0
Sc176 Sc 0.66335 0.84641 0.83402 0.0
Sc177 Sc 0.69654 0.90136 0.79982 0.0
Sc178 Sc 0.64665 0.90568 0.8762 0.0
O179 O 0.6688 0.88454 0.83648 0.0
C180 C 0.6072 0.86831 0.83021 0.0
C181 C 0.67719 0.85874 0.73523 0.0
C182 C 0.65242 0.94195 0.79316 0.0
C183 C 0.72327 0.85208 0.83884 0.0
C184 C 0.65189 0.85596 0.9338 0.0
C185 C 0.70135 0.92986 0.89056 0.0
O186 O 0.62366 0.8514 0.82132 0.0
O187 O 0.68722 0.88031 0.74214 0.0
O188 O 0.64238 0.93532 0.82895 0.0
O189 O 0.70275 0.84006 0.84655 0.0
O190 O 0.64831 0.8796 0.9294 0.0
O191 O 0.70957 0.92474 0.85278 0.0
O192 O 0.6568 0.84144 0.90221 0.0
O193 O 0.72414 0.87358 0.81986 0.0
O194 O 0.67935 0.92369 0.90404 0.0
O195 O 0.66875 0.8447 0.76543 0.0
O196 O 0.61222 0.8886 0.85113 0.0
O197 O 0.67159 0.93084 0.77682 0.0
Sc198 Sc 0.85052 0.31179 0.15795 0.0
Sc199 Sc 0.90435 0.27714 0.19262 0.0
Sc200 Sc 0.91107 0.32829 0.11908 0.0
O201 O 0.88867 0.3058 0.15667 0.0
C202 C 0.86232 0.32238 0.05826 0.0
C203 C 0.85424 0.25163 0.15493 0.0
C204 C 0.93374 0.27281 0.10325 0.0
C205 C 0.86275 0.29893 0.25719 0.0
C206 C 0.87248 0.36819 0.15979 0.0
C207 C 0.94567 0.32098 0.20351 0.0
O208 O 0.84727 0.31696 0.08909 0.0
O209 O 0.87574 0.25019 0.17349 0.0
O210 O 0.92961 0.2957 0.09197 0.0
O211 O 0.84841 0.30757 0.22743 0.0
O212 O 0.89381 0.36268 0.1428 0.0
O213 O 0.93482 0.30061 0.21573 0.0
O214 O 0.85513 0.35188 0.16728 0.0
O215 O 0.88378 0.28801 0.24967 0.0
O216 O 0.93935 0.33285 0.16918 0.0
O217 O 0.84298 0.27246 0.14716 0.0
O218 O 0.88583 0.32674 0.06404 0.0
O219 O 0.92679 0.2634 0.13935 0.0
Sc220 Sc 0.30763 0.12685 0.83537 0.0
Sc221 Sc 0.27254 0.07617 0.78956 0.0
Sc222 Sc 0.3252 0.06405 0.85791 0.0
O223 O 0.30184 0.08899 0.82744 0.0
C224 C 0.3641 0.10639 0.82487 0.0
C225 C 0.29233 0.12359 0.73512 0.0
C226 C 0.31668 0.03742 0.76601 0.0
C227 C 0.24761 0.12168 0.84177 0.0
C228 C 0.32009 0.10659 0.93051 0.0
C229 C 0.2705 0.03864 0.86981 0.0
O230 O 0.34752 0.12386 0.82197 0.0
O231 O 0.28141 0.10209 0.73776 0.0
O232 O 0.3291 0.04127 0.80076 0.0
O233 O 0.26846 0.13271 0.85067 0.0
O234 O 0.3242 0.0838 0.91907 0.0
O235 O 0.26009 0.04909 0.83725 0.0
O236 O 0.3143 0.12399 0.90374 0.0
O237 O 0.24602 0.10207 0.81799 0.0
O238 O 0.29353 0.0421 0.8808 0.0
O239 O 0.30203 0.13482 0.76764 0.0
O240 O 0.359 0.08394 0.83768 0.0
O241 O 0.29575 0.04835 0.75744 0.0
Sc242 Sc 0.13116 0.66986 0.15651 0.0
Sc243 Sc 0.07569 0.70278 0.18747 0.0
Sc244 Sc 0.07148 0.64819 0.12126 0.0
O245 O 0.09275 0.67351 0.15526 0.0
C246 C 0.11958 0.65339 0.0591 0.0
C247 C 0.12405 0.72932 0.14559 0.0
C248 C 0.04684 0.70178 0.09711 0.0
C249 C 0.11838 0.68569 0.25455 0.0
C250 C 0.11185 0.61262 0.16756 0.0
C251 C 0.03593 0.65828 0.20357 0.0
O252 O 0.13433 0.66249 0.08778 0.0
O253 O 0.10271 0.73023 0.16467 0.0
O254 O 0.05213 0.67869 0.08884 0.0
O255 O 0.13319 0.67685 0.22563 0.0
O256 O 0.09017 0.6161 0.15022 0.0
O257 O 0.04618 0.67929 0.21369 0.0
O258 O 0.12849 0.63005 0.17186 0.0
O259 O 0.09682 0.69526 0.24575 0.0
O260 O 0.04289 0.64527 0.17101 0.0
O261 O 0.13656 0.70897 0.14034 0.0
O262 O 0.09679 0.64702 0.0669 0.0
O263 O 0.05284 0.71291 0.13224 0.0
Sc264 Sc 0.64404 0.07326 0.11637 0.0
Sc265 Sc 0.69381 0.07823 0.19199 0.0
Sc266 Sc 0.66132 0.13293 0.15615 0.0
O267 O 0.66638 0.09487 0.15503 0.0
C268 C 0.64779 0.12331 0.05783 0.0
C269 C 0.69849 0.05088 0.09976 0.0
C270 C 0.72151 0.12716 0.15427 0.0
C271 C 0.65155 0.03651 0.19842 0.0
C272 C 0.60503 0.10975 0.16202 0.0
C273 C 0.67335 0.12105 0.25588 0.0
O274 O 0.64062 0.10069 0.065 0.0
O275 O 0.70555 0.05394 0.13901 0.0
O276 O 0.70119 0.13974 0.14808 0.0
O277 O 0.64311 0.04163 0.16078 0.0
O278 O 0.62093 0.12804 0.16463 0.0
O279 O 0.6852 0.10044 0.24891 0.0
O280 O 0.61039 0.08793 0.14666 0.0
O281 O 0.66839 0.04984 0.21714 0.0
O282 O 0.66387 0.13441 0.22559 0.0
O283 O 0.67721 0.05853 0.08499 0.0
O284 O 0.65795 0.13705 0.08679 0.0
O285 O 0.72196 0.10497 0.1706 0.0
Sc286 Sc 0.07346 0.32915 0.87245 0.0
Sc287 Sc 0.07894 0.27907 0.79722 0.0
Sc288 Sc 0.13358 0.31157 0.83471 0.0
O289 O 0.09531 0.30669 0.83452 0.0
C290 C 0.11218 0.36803 0.82841 0.0
C291 C 0.0387 0.32305 0.78784 0.0
C292 C 0.12321 0.29806 0.7353 0.0
C293 C 0.04905 0.27462 0.88662 0.0
C294 C 0.12174 0.32359 0.93339 0.0
C295 C 0.12672 0.25174 0.83997 0.0
O296 O 0.09105 0.36321 0.84702 0.0
O297 O 0.05035 0.30417 0.77174 0.0
O298 O 0.13671 0.3065 0.76616 0.0
O299 O 0.05531 0.29652 0.90036 0.0
O300 O 0.13696 0.3177 0.90327 0.0
O301 O 0.10563 0.25128 0.81982 0.0
O302 O 0.09847 0.32816 0.92684 0.0
O303 O 0.05426 0.2665 0.84883 0.0
O304 O 0.13916 0.27201 0.84764 0.0
O305 O 0.04452 0.33289 0.8241 0.0
O306 O 0.1294 0.35147 0.82196 0.0
O307 O 0.10154 0.28799 0.74109 0.0
Sc308 Sc 0.33195 0.90618 0.12875 0.0
Sc309 Sc 0.27672 0.90101 0.19328 0.0
Sc310 Sc 0.30944 0.84591 0.15966 0.0
O311 O 0.30612 0.88436 0.16074 0.0
C312 C 0.32639 0.85979 0.06318 0.0
C313 C 0.27905 0.93228 0.10546 0.0
C314 C 0.25003 0.85403 0.14762 0.0
C315 C 0.32208 0.93886 0.21449 0.0
C316 C 0.36682 0.86429 0.17244 0.0
C317 C 0.29241 0.85634 0.25776 0.0
O318 O 0.33293 0.88233 0.0725 0.0
O319 O 0.26751 0.92566 0.13986 0.0
O320 O 0.27027 0.84121 0.14291 0.0
O321 O 0.33504 0.93301 0.18117 0.0
O322 O 0.34924 0.84774 0.17575 0.0
O323 O 0.2828 0.87799 0.24985 0.0
O324 O 0.36359 0.88633 0.15639 0.0
O325 O 0.3007 0.92887 0.22304 0.0
O326 O 0.30203 0.84235 0.22842 0.0
O327 O 0.30206 0.92676 0.09727 0.0
O328 O 0.31715 0.84442 0.09086 0.0
O329 O 0.24924 0.87524 0.16707 0.0
Sc330 Sc 0.90773 0.64632 0.8676 0.0
Sc331 Sc 0.89743 0.6963 0.79339 0.0
Sc332 Sc 0.8458 0.66172 0.83725 0.0
O333 O 0.88365 0.66807 0.83247 0.0
C334 C 0.86887 0.60537 0.83439 0.0
C335 C 0.93895 0.65414 0.77921 0.0
C336 C 0.85279 0.67233 0.73624 0.0
C337 C 0.92997 0.7018 0.87979 0.0
C338 C 0.86152 0.65203 0.93419 0.0
C339 C 0.84935 0.72221 0.83563 0.0
O340 O 0.89165 0.61182 0.84285 0.0
O341 O 0.92561 0.67232 0.76469 0.0
O342 O 0.84151 0.66174 0.768 0.0
O343 O 0.92458 0.67983 0.89454 0.0
O344 O 0.846 0.66108 0.90677 0.0
O345 O 0.87111 0.72353 0.81811 0.0
O346 O 0.88359 0.6444 0.92398 0.0
O347 O 0.92381 0.70954 0.84208 0.0
O348 O 0.83763 0.70145 0.84235 0.0
O349 O 0.9355 0.64431 0.81647 0.0
O350 O 0.8504 0.621 0.83394 0.0
O351 O 0.87249 0.68615 0.74063 0.0
H352 H 0.14254 0.48793 0.338 0.0
H353 H 0.09766 0.56658 0.13441 0.0
H354 H 0.15207 0.45637 0.20956 0.0
H355 H 0.13946 0.60135 0.23953 0.0
H356 H 0.1079 0.52444 0.16459 0.0
H357 H 0.13088 0.52862 0.30531 0.0
C358 C 0.14187 0.4895 0.3029 0.0
C359 C 0.14829 0.46886 0.27631 0.0
C360 C 0.11479 0.54139 0.18076 0.0
C361 C 0.13483 0.5151 0.23909 0.0
C362 C 0.10891 0.56529 0.16384 0.0
C363 C 0.11783 0.58728 0.18462 0.0
C364 C 0.12898 0.53975 0.21922 0.0
C365 C 0.13241 0.58476 0.22248 0.0
C366 C 0.13541 0.51271 0.2844 0.0
C367 C 0.14737 0.47195 0.23104 0.0
N368 N 0.13732 0.56136 0.23891 0.0
N369 N 0.14057 0.49474 0.21367 0.0
H370 H 0.4823 0.84775 0.65495 0.0
H371 H 0.56142 0.88119 0.8668 0.0
H372 H 0.4515 0.8313 0.78212 0.0
H373 H 0.59513 0.84817 0.7522 0.0
H374 H 0.51897 0.8746 0.83446 0.0
H375 H 0.52221 0.86082 0.68903 0.0
C376 C 0.48379 0.84726 0.69007 0.0
C377 C 0.46372 0.83818 0.7158 0.0
C378 C 0.53578 0.86893 0.81662 0.0
C379 C 0.50906 0.85328 0.75466 0.0
C380 C 0.55983 0.87269 0.83487 0.0
C381 C 0.58159 0.86493 0.81219 0.0
C382 C 0.53383 0.85815 0.77506 0.0
C383 C 0.57873 0.85406 0.77092 0.0
C384 C 0.50656 0.8546 0.70937 0.0
C385 C 0.4667 0.83789 0.76117 0.0
N386 N 0.55526 0.85115 0.75351 0.0
N387 N 0.48907 0.84533 0.77931 0.0
H388 H 0.90668 0.40477 0.18449 0.0
H389 H 0.79883 0.5089 0.22116 0.0
H390 H 0.82666 0.39176 0.16206 0.0
H391 H 0.86943 0.50939 0.29321 0.0
H392 H 0.81281 0.4708 0.18339 0.0
H393 H 0.89672 0.44799 0.20946 0.0
C394 C 0.8871 0.41114 0.18436 0.0
C395 C 0.86739 0.39472 0.1717 0.0
C396 C 0.82529 0.47938 0.20726 0.0
C397 C 0.85606 0.44375 0.19945 0.0
C398 C 0.81738 0.50117 0.22882 0.0
C399 C 0.83282 0.51213 0.26098 0.0
C400 C 0.84885 0.46856 0.21765 0.0
C401 C 0.85676 0.50133 0.26913 0.0
C402 C 0.88146 0.43565 0.19869 0.0
C403 C 0.84235 0.40375 0.17214 0.0
N404 N 0.86402 0.47997 0.24774 0.0
N405 N 0.83739 0.42769 0.18583 0.0
H406 H 0.40164 0.0733 0.80045 0.0
H407 H 0.50249 0.18381 0.75536 0.0
H408 H 0.38627 0.15319 0.81924 0.0
H409 H 0.50769 0.10959 0.69594 0.0
H410 H 0.46357 0.17049 0.79173 0.0
H411 H 0.44428 0.0843 0.7743 0.0
C412 C 0.40731 0.09311 0.79947 0.0
C413 C 0.39036 0.1124 0.81171 0.0
C414 C 0.47331 0.1571 0.77087 0.0
C415 C 0.43891 0.12498 0.78218 0.0
C416 C 0.49558 0.16464 0.75015 0.0
C417 C 0.50824 0.14788 0.7221 0.0
C418 C 0.46367 0.13258 0.7638 0.0
C419 C 0.49839 0.12322 0.71688 0.0
C420 C 0.43156 0.09934 0.7844 0.0
C421 C 0.39864 0.13774 0.80969 0.0
N422 N 0.47658 0.11632 0.73745 0.0
N423 N 0.42234 0.14329 0.79516 0.0
H424 H 0.13493 0.49182 0.65094 0.0
H425 H 0.09699 0.41391 0.86159 0.0
H426 H 0.14626 0.52462 0.77806 0.0
H427 H 0.13621 0.37976 0.75324 0.0
H428 H 0.10399 0.4561 0.82849 0.0
H429 H 0.12324 0.45148 0.68544 0.0
C430 C 0.13458 0.49062 0.6861 0.0
C431 C 0.14174 0.51143 0.71179 0.0
C432 C 0.11098 0.43926 0.81222 0.0
C433 C 0.1282 0.46567 0.75108 0.0
C434 C 0.107 0.41535 0.8309 0.0
C435 C 0.11629 0.39353 0.81019 0.0
C436 C 0.12354 0.44102 0.77211 0.0
C437 C 0.12908 0.39621 0.77047 0.0
C438 C 0.12807 0.46764 0.70564 0.0
C439 C 0.14109 0.50886 0.75721 0.0
N440 N 0.13215 0.41955 0.75248 0.0
N441 N 0.13438 0.4863 0.77557 0.0
H442 H 0.52449 0.82328 0.20811 0.0
H443 H 0.3781 0.83718 0.24509 0.0
H444 H 0.49456 0.84026 0.33543 0.0
H445 H 0.41266 0.87711 0.13747 0.0
H446 H 0.42063 0.82837 0.27423 0.0
H447 H 0.48297 0.83443 0.17638 0.0
C448 C 0.50924 0.82953 0.22921 0.0
C449 C 0.5128 0.83101 0.2743 0.0
C450 C 0.41877 0.839 0.24418 0.0
C451 C 0.46573 0.84283 0.23875 0.0
C452 C 0.39468 0.84385 0.22749 0.0
C453 C 0.39211 0.8579 0.18904 0.0
C454 C 0.44024 0.84767 0.22155 0.0
C455 C 0.41404 0.86634 0.16742 0.0
C456 C 0.48575 0.83587 0.21118 0.0
C457 C 0.49257 0.83913 0.30045 0.0
N458 N 0.43738 0.86087 0.18381 0.0
N459 N 0.46969 0.84438 0.28232 0.0
H460 H 0.82335 0.58048 0.83831 0.0
H461 H 0.87016 0.4626 0.70221 0.0
H462 H 0.90241 0.5695 0.8054 0.0
H463 H 0.79979 0.46235 0.77472 0.0
H464 H 0.88277 0.50152 0.73979 0.0
H465 H 0.81437 0.53709 0.81494 0.0
C466 C 0.83884 0.56888 0.82635 0.0
C467 C 0.86361 0.57864 0.82338 0.0
C468 C 0.86473 0.49272 0.74784 0.0
C469 C 0.85345 0.52911 0.79643 0.0
C470 C 0.85747 0.47058 0.72631 0.0
C471 C 0.83374 0.45941 0.73493 0.0
C472 C 0.84797 0.50391 0.77765 0.0
C473 C 0.81819 0.4704 0.76682 0.0
C474 C 0.83373 0.54408 0.81328 0.0
C475 C 0.88303 0.56271 0.80813 0.0
N476 N 0.82543 0.49227 0.78658 0.0
N477 N 0.87746 0.53877 0.79464 0.0
H478 H 0.59376 0.13794 0.2329 0.0
H479 H 0.44598 0.13398 0.21309 0.0
H480 H 0.55947 0.08967 0.13573 0.0
H481 H 0.48303 0.13424 0.33836 0.0
H482 H 0.48662 0.12245 0.17916 0.0
H483 H 0.55221 0.14289 0.26729 0.0
C484 C 0.57739 0.12859 0.21861 0.0
C485 C 0.57985 0.11352 0.18135 0.0
C486 C 0.48562 0.12471 0.21411 0.0
C487 C 0.53257 0.11913 0.22037 0.0
C488 C 0.4626 0.13134 0.23341 0.0
C489 C 0.46132 0.13516 0.27848 0.0
C490 C 0.50743 0.12264 0.24005 0.0
C491 C 0.48326 0.13141 0.30351 0.0
C492 C 0.55384 0.13119 0.23849 0.0
C493 C 0.5582 0.10146 0.16446 0.0
N494 N 0.5056 0.12579 0.28382 0.0
N495 N 0.53523 0.10477 0.18387 0.0
H496 H 0.65538 0.9553 0.70689 0.0
H497 H 0.62383 0.09803 0.74801 0.0
H498 H 0.62701 0.98091 0.83105 0.0
H499 H 0.59912 0.06398 0.62763 0.0
H500 H 0.63236 0.05561 0.77718 0.0
H501 H 0.64125 -0.00433 0.67429 0.0
C502 C 0.64606 0.9693 0.72712 0.0
C503 C 0.64242 0.96487 0.7717 0.0
C504 C 0.62496 0.05746 0.74446 0.0
C505 C 0.62683 0.01069 0.73508 0.0
C506 C 0.62024 0.08155 0.72778 0.0
C507 C 0.6108 0.08429 0.68549 0.0
C508 C 0.62082 0.03609 0.71824 0.0
C509 C 0.60629 0.06245 0.66053 0.0
C510 C 0.63793 -0.00787 0.70852 0.0
C511 C 0.63013 0.98351 0.79654 0.0
N512 N 0.6117 0.03909 0.67712 0.0
N513 N 0.62313 0.0058 0.77801 0.0
H514 H 0.07376 0.40637 0.30613 0.0
H515 H 0.96826 0.29839 0.27367 0.0
H516 H 0.08203 0.32842 0.34783 0.0
H517 H 0.97143 0.36627 0.19438 0.0
H518 H 0.00497 0.31356 0.31433 0.0
H519 H 0.03112 0.39604 0.27826 0.0
C520 C 0.0664 0.38725 0.31011 0.0
C521 C 0.08141 0.36812 0.32881 0.0
C522 C -0.00247 0.32519 0.28818 0.0
C523 C 0.03307 0.3563 0.29743 0.0
C524 C 0.97655 0.31656 0.2649 0.0
C525 C 0.96694 0.33088 0.23004 0.0
C526 C 0.009 0.34837 0.27676 0.0
C527 C 0.97841 0.35442 0.22059 0.0
C528 C 0.04223 0.38135 0.29401 0.0
C529 C 0.07115 0.34362 0.33308 0.0
N530 N -0.00102 0.36239 0.24369 0.0
N531 N 0.04765 0.3384 0.31736 0.0
H532 H 0.31853 0.8932 0.64796 0.0
H533 H 0.36509 0.01928 0.75913 0.0
H534 H 0.39811 0.91065 0.66628 0.0
H535 H 0.28962 0.01038 0.7058 0.0
H536 H 0.37852 0.98134 0.71999 0.0
H537 H 0.30808 0.93723 0.66446 0.0
C538 C 0.33383 0.90634 0.65533 0.0
C539 C 0.35919 0.89819 0.65654 0.0
C540 C 0.35914 0.98793 0.71622 0.0
C541 C 0.34736 0.94859 0.6754 0.0
C542 C 0.35144 0.00953 0.73866 0.0
C543 C 0.32607 0.01763 0.73637 0.0
C544 C 0.34122 0.97414 0.69199 0.0
C545 C 0.3093 0.00461 0.70881 0.0
C546 C 0.32786 0.93153 0.66436 0.0
C547 C 0.37828 0.91611 0.66541 0.0
N548 N 0.31705 0.98316 0.68832 0.0
N549 N 0.37193 0.94044 0.67519 0.0
H550 H 0.00881 0.68504 0.2638 0.0
H551 H 0.9075 0.57497 0.30904 0.0
H552 H 0.01303 0.61135 0.20229 0.0
H553 H 0.8915 0.65508 0.32275 0.0
H554 H 0.95056 0.58575 0.28425 0.0
H555 H 0.97011 0.67155 0.30089 0.0
C556 C 0.00178 0.66592 0.2584 0.0
C557 C 0.014 0.6494 0.2294 0.0
C558 C 0.9376 0.60087 0.293 0.0
C559 C 0.96976 0.63394 0.27186 0.0
C560 C 0.91313 0.59478 0.30724 0.0
C561 C 0.89591 0.6142 0.31751 0.0
C562 C 0.94487 0.6265 0.28983 0.0
C563 C 0.9041 0.63954 0.3146 0.0
C564 C 0.97964 0.6583 0.27949 0.0
C565 C 0.00402 0.62481 0.22391 0.0
N566 N 0.92802 0.64496 0.30101 0.0
N567 N 0.98235 0.61784 0.24483 0.0
H568 H 0.64998 0.02549 0.28566 0.0
H569 H 0.63341 0.87912 0.25115 0.0
H570 H 0.63315 -0.00598 0.15931 0.0
H571 H 0.59907 0.91378 0.36377 0.0
H572 H 0.64072 0.92135 0.22036 0.0
H573 H 0.6377 0.98467 0.31897 0.0
C574 C 0.64359 0.01007 0.26504 0.0
C575 C 0.64263 0.01303 0.21971 0.0
C576 C 0.63153 0.91968 0.25176 0.0
C577 C 0.62915 0.96669 0.25727 0.0
C578 C 0.62752 0.89569 0.26944 0.0
C579 C 0.61569 0.89312 0.31002 0.0
C580 C 0.62422 0.94125 0.27527 0.0
C581 C 0.60818 0.91511 0.33229 0.0
C582 C 0.63649 0.98697 0.28403 0.0
C583 C 0.63409 -0.00743 0.19439 0.0
N584 N 0.61287 0.93845 0.3148 0.0
N585 N 0.62804 0.97012 0.21348 0.0
H586 H 0.91612 0.38067 0.62355 0.0
H587 H -0.00186 0.34549 0.82586 0.0
H588 H 0.8844 0.33807 0.73076 0.0
H589 H 0.02682 0.32168 0.70081 0.0
H590 H 0.95799 0.35711 0.79153 0.0
H591 H 0.95915 0.37177 0.65186 0.0
C592 C 0.91829 0.36949 0.65294 0.0
C593 C 0.89694 0.35996 0.67497 0.0
C594 C 0.97326 0.34962 0.77169 0.0
C595 C 0.94523 0.35052 0.70742 0.0
C596 C -0.00384 0.34312 0.79104 0.0
C597 C 0.01571 0.33247 0.76606 0.0
C598 C 0.97011 0.34598 0.72701 0.0
C599 C 0.01204 0.32964 0.72112 0.0
C600 C 0.94264 0.36439 0.66877 0.0
C601 C 0.90049 0.34554 0.71278 0.0
N602 N -0.01048 0.33644 0.70278 0.0
N603 N 0.92424 0.34153 0.72821 0.0
H604 H 0.32411 0.07261 0.36678 0.0
H605 H 0.36878 0.96229 0.21283 0.0
H606 H 0.40208 0.06475 0.32539 0.0
H607 H 0.29793 0.96039 0.28396 0.0
H608 H 0.38287 -0.0023 0.2581 0.0
H609 H 0.31556 0.02939 0.34237 0.0
C610 C 0.33952 0.06156 0.35313 0.0
C611 C 0.36371 0.07227 0.34743 0.0
C612 C 0.36439 -0.01072 0.26415 0.0
C613 C 0.35401 0.02306 0.31866 0.0
C614 C 0.35625 0.96917 0.23813 0.0
C615 C 0.33191 0.95868 0.24399 0.0
C616 C 0.34795 -0.00088 0.29585 0.0
C617 C 0.31669 0.96811 0.27777 0.0
C618 C 0.33467 0.03689 0.33927 0.0
C619 C 0.38313 0.05714 0.33011 0.0
N620 N 0.32483 -0.01198 0.30201 0.0
N621 N 0.37773 0.03339 0.31543 0.0
H622 H 0.08159 0.65551 0.64996 0.0
H623 H 0.96396 0.6088 0.78638 0.0
H624 H 0.06931 0.576 0.67864 0.0
H625 H 0.96293 0.67868 0.71235 0.0
H626 H 0.00258 0.59616 0.74801 0.0
H627 H 0.03828 0.66456 0.67369 0.0
C628 C 0.06971 0.63995 0.66109 0.0
C629 C 0.07907 0.61502 0.6628 0.0
C630 C -0.00632 0.61408 0.73978 0.0
C631 C 0.02966 0.62526 0.69014 0.0
C632 C 0.97173 0.62137 0.76178 0.0
C633 C 0.96043 0.64497 0.75289 0.0
C634 C 0.00458 0.63072 0.70932 0.0
C635 C 0.9711 0.66038 0.72036 0.0
C636 C 0.04497 0.6451 0.67432 0.0
C637 C 0.0628 0.5955 0.67693 0.0
N638 N -0.00715 0.65316 0.70019 0.0
N639 N 0.03893 0.6011 0.69071 0.0
H640 H 0.23065 0.50984 0.61648 0.0
H641 H 0.23222 0.47316 0.36825 0.0
H642 H 0.20834 0.55815 0.50962 0.0
H643 H 0.21791 0.42186 0.47504 0.0
H644 H 0.2475 0.50509 0.42011 0.0
H645 H 0.24948 0.48008 0.56444 0.0
C646 C 0.23046 0.51455 0.58218 0.0
C647 C 0.2172 0.53588 0.56692 0.0
C648 C 0.24199 0.48645 0.43192 0.0
C649 C 0.23882 0.50239 0.50789 0.0
C650 C 0.23332 0.46827 0.40244 0.0
C651 C 0.22314 0.44535 0.41789 0.0
C652 C 0.24046 0.48135 0.47668 0.0
C653 C 0.22502 0.43973 0.46226 0.0
C654 C 0.24125 0.49766 0.55263 0.0
C655 C 0.2177 0.54139 0.52238 0.0
N656 N 0.23302 0.45786 0.49035 0.0
N657 N 0.22793 0.52447 0.49424 0.0
H658 H 0.4708 0.75091 0.62405 0.0
H659 H 0.50782 0.74579 0.37519 0.0
H660 H 0.42008 0.76561 0.51673 0.0
H661 H 0.55714 0.76904 0.47989 0.0
H662 H 0.47698 0.73015 0.42893 0.0
H663 H 0.50235 0.73443 0.57266 0.0
C664 C 0.46598 0.74979 0.58986 0.0
C665 C 0.4433 0.7603 0.57414 0.0
C666 C 0.49499 0.73783 0.43996 0.0
C667 C 0.47885 0.74145 0.51588 0.0
C668 C 0.51251 0.74674 0.40945 0.0
C669 C 0.53451 0.75932 0.42352 0.0
C670 C 0.49986 0.7414 0.48442 0.0
C671 C 0.53995 0.76003 0.46805 0.0
C672 C 0.48392 0.7404 0.56066 0.0
C673 C 0.43776 0.75831 0.52975 0.0
N674 N 0.52249 0.75158 0.49708 0.0
N675 N 0.45566 0.74951 0.50194 0.0
H676 H 0.7511 0.47235 0.62542 0.0
H677 H 0.7473 0.50188 0.3731 0.0
H678 H 0.76739 0.41889 0.52321 0.0
H679 H 0.76996 0.55437 0.4734 0.0
H680 H 0.73159 0.47259 0.42947 0.0
H681 H 0.73484 0.50233 0.57068 0.0
C682 C 0.75033 0.46664 0.59163 0.0
C683 C 0.76109 0.44365 0.57821 0.0
C684 C 0.73913 0.49096 0.4389 0.0
C685 C 0.74253 0.47723 0.51631 0.0
C686 C 0.74808 0.50756 0.40691 0.0
C687 C 0.76045 0.53001 0.41916 0.0
C688 C 0.74248 0.49723 0.48292 0.0
C689 C 0.76103 0.5368 0.4631 0.0
C690 C 0.74107 0.48363 0.56056 0.0
C691 C 0.75972 0.43684 0.53434 0.0
N692 N 0.75253 0.52024 0.4936 0.0
N693 N 0.75099 0.45377 0.50469 0.0
H694 H 0.41585 0.21929 0.46466 0.0
H695 H 0.55366 0.2001 0.50763 0.0
H696 H 0.4701 0.22056 0.35972 0.0
H697 H 0.50609 0.23521 0.60441 0.0
H698 H 0.52581 0.2165 0.45085 0.0
H699 H 0.44847 0.23541 0.51374 0.0
C700 C 0.43448 0.22387 0.45173 0.0
C701 C 0.44066 0.21804 0.40863 0.0
C702 C 0.52176 0.22132 0.48434 0.0
C703 C 0.47821 0.23547 0.46459 0.0
C704 C 0.53754 0.21176 0.5167 0.0
C705 C 0.53161 0.21582 0.56047 0.0
C706 C 0.49937 0.23411 0.49608 0.0
C707 C 0.51093 0.23139 0.57084 0.0
C708 C 0.45312 0.23311 0.47968 0.0
C709 C 0.46483 0.22451 0.39305 0.0
N710 N 0.495 0.23936 0.53883 0.0
N711 N 0.48309 0.23208 0.42146 0.0
H712 H 0.72691 0.00912 0.11968 0.0
H713 H 0.72829 0.9726 0.87054 0.0
H714 H 0.70639 0.05874 0.01355 0.0
H715 H 0.70963 0.92209 0.97645 0.0
H716 H 0.74361 0.00406 0.92336 0.0
H717 H 0.74386 0.97854 0.06706 0.0
C718 C 0.72679 0.01393 0.08542 0.0
C719 C 0.71457 0.03594 0.07052 0.0
C720 C 0.73707 0.98567 0.9348 0.0
C721 C 0.73403 0.00155 0.01089 0.0
C722 C 0.72836 0.9678 0.90481 0.0
C723 C 0.71712 0.94523 0.91963 0.0
C724 C 0.73463 0.98059 0.97944 0.0
C725 C 0.71763 0.93968 0.96412 0.0
C726 C 0.73648 -0.00344 0.05554 0.0
C727 C 0.71503 0.04152 0.026 0.0
N728 N 0.72584 0.95747 0.99267 0.0
N729 N 0.7242 0.02417 -0.00244 0.0
H730 H 0.97569 0.24407 0.11963 0.0
H731 H 0.00615 0.2475 0.8682 0.0
H732 H 0.92364 0.26592 0.01801 0.0
H733 H 0.05866 0.26525 0.97148 0.0
H734 H 0.97633 0.23033 0.92233 0.0
H735 H 0.00508 0.22787 0.06412 0.0
C736 C 0.97011 0.24454 0.08573 0.0
C737 C 0.9478 0.25689 0.07281 0.0
C738 C -0.00519 0.2371 0.93282 0.0
C739 C 0.9807 0.23838 0.01005 0.0
C740 C 0.01171 0.24692 0.9021 0.0
C741 C 0.03432 0.25841 0.91598 0.0
C742 C 0.00091 0.23872 0.97719 0.0
C743 C 0.04095 0.25713 0.95997 0.0
C744 C 0.98676 0.2353 0.05423 0.0
C745 C 0.94112 0.25704 0.0288 0.0
N746 N 0.02409 0.24784 0.98926 0.0
N747 N 0.95775 0.24831 -0.00124 0.0
H748 H 0.24733 0.0522 0.94429 0.0
H749 H 0.27328 0.91536 0.02385 0.0
H750 H 0.26065 -0.01151 0.85969 0.0
H751 H 0.25173 0.97643 0.10931 0.0
H752 H 0.25531 0.93858 0.96259 0.0
H753 H 0.23482 0.02287 0.00226 0.0
C754 C 0.24663 0.03197 0.93764 0.0
C755 C 0.25522 0.02244 0.89789 0.0
C756 C 0.25401 0.94685 0.99473 0.0
C757 C 0.24206 -0.01106 0.96383 0.0
C758 C 0.26442 0.93365 0.02954 0.0
C759 C 0.26455 0.94455 0.07094 0.0
C760 C 0.24459 0.97151 0.00128 0.0
C761 C 0.25235 0.96782 0.07738 0.0
C762 C 0.2396 0.01523 0.97064 0.0
C763 C 0.25424 -0.00369 0.89032 0.0
N764 N 0.24342 0.98096 0.04252 0.0
N765 N 0.24835 0.98033 0.92346 0.0
H766 H 0.91959 0.715 0.96261 0.0
H767 H 0.05659 0.70264 0.01094 0.0
H768 H 0.97471 0.7253 0.86046 0.0
H769 H 0.00634 0.73351 0.10802 0.0
H770 H 0.02891 0.71933 0.95417 0.0
H771 H 0.95034 0.73116 0.01511 0.0
C772 C 0.93801 0.72148 0.95122 0.0
C773 C 0.94508 0.71835 0.90774 0.0
C774 C 0.02423 0.72317 0.9878 0.0
C775 C 0.98048 0.7359 0.96732 0.0
C776 C 0.03988 0.7134 0.02012 0.0
C777 C 0.03313 0.71613 0.06383 0.0
C778 C 0.00122 0.7348 -0.00052 0.0
C779 C 0.01176 0.73066 0.07443 0.0
C780 C 0.95552 0.73082 0.98105 0.0
C781 C 0.96888 0.72717 0.89405 0.0
N782 N -0.004 0.73882 0.04233 0.0
N783 N 0.98617 0.7348 0.92412 0.0
H784 H 0.19862 0.37603 0.16218 0.0
H785 H 0.09515 0.31586 0.00776 0.0
H786 H 0.13826 0.32711 0.20864 0.0
H787 H 0.16983 0.33586 0.96023 0.0
H788 H 0.11006 0.32216 0.08193 0.0
H789 H 0.18801 0.36378 0.08754 0.0
C790 C 0.18326 0.36266 0.15673 0.0
C791 C 0.16916 0.35274 0.19162 0.0
C792 C 0.12327 0.32495 0.05532 0.0
C793 C 0.157 0.33885 0.10685 0.0
C794 C 0.11474 0.3215 0.01305 0.0
C795 C 0.13128 0.32555 0.97803 0.0
C796 C 0.14838 0.33295 0.06254 0.0
C797 C 0.15654 0.33255 0.98653 0.0
C798 C 0.17735 0.35559 0.11425 0.0
C799 C 0.1496 0.33531 0.18278 0.0
N800 N 0.1643 0.33639 0.02812 0.0
N801 N 0.14393 0.32913 0.14121 0.0
H802 H 0.36511 0.87303 0.00951 0.0
H803 H 0.31138 0.81456 0.79356 0.0
H804 H 0.29713 0.82702 0.01509 0.0
H805 H 0.3916 0.81308 0.82333 0.0
H806 H 0.30264 0.8262 0.86967 0.0
H807 H 0.37217 0.85877 0.93486 0.0
C808 C 0.35163 0.85998 0.99489 0.0
C809 C 0.33057 0.85107 0.01834 0.0
C810 C 0.32208 0.8231 0.85931 0.0
C811 C 0.33831 0.83513 0.93311 0.0
C812 C 0.32708 0.81662 0.8161 0.0
C813 C 0.35222 0.8128 0.80234 0.0
C814 C 0.34244 0.8265 0.8882 0.0
C815 C 0.37192 0.81565 0.83272 0.0
C816 C 0.35573 0.85181 0.95251 0.0
C817 C 0.3137 0.83412 -0.00197 0.0
N818 N 0.36664 0.82265 0.87411 0.0
N819 N 0.31778 0.82684 0.95618 0.0
H820 H 0.87576 0.6148 0.99039 0.0
H821 H 0.80483 0.66364 0.19806 0.0
H822 H 0.82721 0.68063 0.97964 0.0
H823 H 0.80837 0.58373 0.16665 0.0
H824 H 0.81924 0.67373 0.12391 0.0
H825 H 0.8586 0.6067 0.06301 0.0
C826 C 0.86172 0.62771 0.00357 0.0
C827 C 0.85281 0.64837 0.97915 0.0
C828 C 0.81654 0.65406 0.13338 0.0
C829 C 0.83335 0.63928 0.06179 0.0
C830 C 0.80838 0.6483 0.17544 0.0
C831 C 0.80539 0.62284 0.18828 0.0
C832 C 0.82242 0.63419 0.10483 0.0
C833 C 0.81025 0.60361 0.1579 0.0
C834 C 0.85182 0.62294 0.04469 0.0
C835 C 0.83443 0.66442 -0.00248 0.0
N836 N 0.81893 0.60967 0.11772 0.0
N837 N 0.82536 0.65964 0.03809 0.0
H838 H 0.6079 0.11284 0.00492 0.0
H839 H 0.65862 0.17994 0.79508 0.0
H840 H 0.67582 0.15881 0.01289 0.0
H841 H 0.57831 0.17615 0.82368 0.0
H842 H 0.66778 0.16835 0.8709 0.0
H843 H 0.59901 0.13105 0.9334 0.0
C844 C 0.621 0.12671 0.99147 0.0
C845 C 0.64266 0.13431 0.01464 0.0
C846 C 0.64821 0.17045 0.86052 0.0
C847 C 0.63269 0.15499 0.9329 0.0
C848 C 0.64295 0.17697 0.8174 0.0
C849 C 0.61766 0.17893 0.8031 0.0
C850 C 0.62802 0.1652 0.88895 0.0
C851 C 0.59808 0.17494 0.83334 0.0
C852 C 0.61579 0.13722 0.95091 0.0
C853 C 0.65888 0.15254 -0.00405 0.0
N854 N 0.60367 0.16782 0.87467 0.0
N855 N 0.65375 0.16208 0.95573 0.0
H856 H 0.16731 0.5843 0.82061 0.0
H857 H 0.15238 0.68322 0.01182 0.0
H858 H 0.16392 0.66454 0.79106 0.0
H859 H 0.10869 0.61375 0.00626 0.0
H860 H 0.16685 0.67552 0.93669 0.0
H861 H 0.15635 0.59369 0.89603 0.0
C862 C 0.16455 0.60394 0.83012 0.0
C863 C 0.16643 0.6237 0.79959 0.0
C864 C 0.15414 0.66205 0.95221 0.0
C865 C 0.15421 0.63445 0.88574 0.0
C866 C 0.14603 0.66631 0.99488 0.0
C867 C 0.12931 0.64908 0.01492 0.0
C868 C 0.14601 0.64007 0.93042 0.0
C869 C 0.12145 0.62754 0.99174 0.0
C870 C 0.15819 0.60921 0.87302 0.0
C871 C 0.16246 0.64878 0.81363 0.0
N872 N 0.13006 0.62351 0.95081 0.0
N873 N 0.15663 0.65351 0.85595 0.0
H874 H 0.59818 0.77714 0.16048 0.0
H875 H 0.6629 0.87919 0.01023 0.0
H876 H 0.65797 0.827 0.20594 0.0
H877 H 0.63662 0.80802 0.95661 0.0
H878 H 0.65783 0.86163 0.08321 0.0
H879 H 0.60902 0.78887 0.08547 0.0
C880 C 0.61372 0.79029 0.15473 0.0
C881 C 0.62703 0.80128 0.18953 0.0
C882 C 0.65339 0.84978 0.05545 0.0
C883 C 0.63915 0.81487 0.10446 0.0
C884 C 0.65611 0.85983 0.01392 0.0
C885 C 0.65006 0.84501 0.97759 0.0
C886 C 0.64403 0.82496 0.06064 0.0
C887 C 0.64154 0.81997 0.98398 0.0
C888 C 0.61991 0.79687 0.11203 0.0
C889 C 0.64709 0.8181 0.18023 0.0
N890 N 0.63842 0.81077 0.02493 0.0
N891 N 0.65229 0.82465 0.13861 0.0
H892 H 0.83982 0.31979 0.78057 0.0
H893 H 0.81315 0.3318 0.03447 0.0
H894 H 0.77963 0.36678 0.83186 0.0
H895 H 0.88763 0.31703 0.9812 0.0
H896 H 0.79648 0.33629 0.96051 0.0
H897 H 0.85303 0.30978 0.85467 0.0
C898 C 0.8291 0.32769 0.80738 0.0
C899 C 0.80863 0.34427 0.80002 0.0
C900 C 0.81643 0.33197 0.96516 0.0
C901 C 0.82376 0.33286 0.88475 0.0
C902 C 0.82595 0.32932 0.00722 0.0
C903 C 0.85185 0.3242 0.0139 0.0
C904 C 0.83284 0.32902 0.92964 0.0
C905 C 0.8676 0.32123 0.97747 0.0
C906 C 0.8368 0.3221 0.84962 0.0
C907 C 0.7956 0.35406 0.83609 0.0
N908 N 0.85781 0.32362 0.93683 0.0
N909 N 0.80342 0.34822 0.87702 0.0
H910 H 0.32185 0.07507 0.00178 0.0
H911 H 0.36379 0.18518 0.16273 0.0
H912 H 0.32535 0.15422 0.96414 0.0
H913 H 0.33143 0.11466 0.20934 0.0
H914 H 0.35352 0.17258 0.08849 0.0
H915 H 0.32881 0.08769 0.07754 0.0
C916 C 0.32401 0.09506 0.00943 0.0
C917 C 0.32311 0.11362 0.9766 0.0
C918 C 0.34854 0.15993 0.11501 0.0
C919 C 0.33122 0.12804 0.0627 0.0
C920 C 0.35448 0.16706 0.15733 0.0
C921 C 0.34844 0.15093 0.19219 0.0
C922 C 0.33683 0.13635 0.10742 0.0
C923 C 0.33628 0.12771 0.18335 0.0
C924 C 0.32786 0.10223 0.0526 0.0
C925 C 0.32587 0.13926 0.98835 0.0
N926 N 0.33105 0.12098 0.14169 0.0
N927 N 0.33002 0.14568 0.03039 0.0
H928 H 0.67207 0.83853 0.45487 0.0
H929 H 0.64748 0.81946 0.70779 0.0
H930 H 0.60052 0.81365 0.50921 0.0
H931 H 0.69789 0.87826 0.66001 0.0
H932 H 0.63759 0.80783 0.63325 0.0
H933 H 0.68863 0.8444 0.52899 0.0
C934 C 0.66 0.83406 0.4824 0.0
C935 C 0.63487 0.82582 0.47624 0.0
C936 C 0.65098 0.82312 0.63916 0.0
C937 C 0.65366 0.83204 0.56003 0.0
C938 C 0.65675 0.82976 0.68167 0.0
C939 C 0.67333 0.85011 0.69016 0.0
C940 C 0.66203 0.83673 0.60484 0.0
C941 C 0.68477 0.86266 0.65487 0.0
C942 C 0.6694 0.8375 0.52441 0.0
C943 C 0.61991 0.82033 0.51272 0.0
N944 N 0.6788 0.85582 0.61351 0.0
N945 N 0.62957 0.82349 0.55314 0.0
H946 H 0.86308 0.37334 0.50104 0.0
H947 H 0.81513 0.30381 0.29234 0.0
H948 H 0.79839 0.32307 0.5123 0.0
H949 H 0.89497 0.30658 0.32485 0.0
H950 H 0.80494 0.31711 0.36699 0.0
H951 H 0.87139 0.35637 0.4285 0.0
C952 C 0.85048 0.35892 0.48799 0.0
C953 C 0.83004 0.34952 0.51247 0.0
C954 C 0.82461 0.31447 0.35762 0.0
C955 C 0.83934 0.33032 0.42989 0.0
C956 C 0.83043 0.30698 0.31528 0.0
C957 C 0.85591 0.30411 0.30263 0.0
C958 C 0.84445 0.31981 0.38665 0.0
C959 C 0.87509 0.30842 0.33343 0.0
C960 C 0.85536 0.34914 0.44692 0.0
C961 C 0.81441 0.33066 0.49432 0.0
N962 N 0.86897 0.31648 0.3739 0.0
N963 N 0.81924 0.32176 0.4537 0.0
H964 H 0.26682 0.11273 0.65974 0.0
H965 H 0.37669 0.16436 0.5137 0.0
H966 H 0.32701 0.15979 0.71157 0.0
H967 H 0.30203 0.14995 0.46069 0.0
H968 H 0.35865 0.16304 0.58681 0.0
H969 H 0.27848 0.12655 0.58646 0.0
C970 C 0.28222 0.12625 0.65576 0.0
C971 C 0.29621 0.13484 0.69171 0.0
C972 C 0.34614 0.16056 0.55915 0.0
C973 C 0.30977 0.15038 0.60825 0.0
C974 C 0.35646 0.16112 0.51751 0.0
C975 C 0.34084 0.15694 0.4813 0.0
C976 C 0.32018 0.1552 0.56455 0.0
C977 C 0.3147 0.15315 0.48788 0.0
C978 C 0.28879 0.13419 0.61399 0.0
C979 C 0.31582 0.15254 0.68476 0.0
N980 N 0.30522 0.1519 0.52887 0.0
N981 N 0.32235 0.15936 0.64372 0.0
H982 H 0.11149 0.61727 0.5022 0.0
H983 H 0.16573 0.67773 0.2902 0.0
H984 H 0.18343 0.65664 0.50958 0.0
H985 H 0.08633 0.68459 0.32408 0.0
H986 H 0.17504 0.66571 0.36587 0.0
H987 H 0.104 0.63644 0.43098 0.0
C988 C 0.12576 0.62989 0.48866 0.0
C989 C 0.14813 0.63538 0.51158 0.0
C990 C 0.1557 0.67029 0.35662 0.0
C991 C 0.13977 0.65711 0.43013 0.0
C992 C 0.15035 0.67705 0.3136 0.0
C993 C 0.12519 0.68205 0.30077 0.0
C994 C 0.13566 0.66788 0.38642 0.0
C995 C 0.106 0.68095 0.33244 0.0
C996 C 0.12138 0.64095 0.44828 0.0
C997 C 0.16592 0.65205 0.4928 0.0
N998 N 0.11157 0.67352 0.37358 0.0
N999 N 0.16153 0.66213 0.45267 0.0
H1000 H 0.66626 0.13741 0.53731 0.0
H1001 H 0.63989 0.15698 0.28418 0.0
H1002 H 0.5942 0.16134 0.48403 0.0
H1003 H 0.69557 0.10314 0.33098 0.0
H1004 H 0.62884 0.16699 0.35901 0.0
H1005 H 0.68266 0.13242 0.46291 0.0
C1006 C 0.654 0.14178 0.51001 0.0
C1007 C 0.62879 0.14957 0.51668 0.0
C1008 C 0.64361 0.15312 0.35287 0.0
C1009 C 0.64742 0.1443 0.43228 0.0
C1010 C 0.65005 0.14746 0.31015 0.0
C1011 C 0.66857 0.129 0.30121 0.0
C1012 C 0.65587 0.14045 0.38705 0.0
C1013 C 0.68102 0.11732 0.33638 0.0
C1014 C 0.66332 0.13885 0.46776 0.0
C1015 C 0.61365 0.15499 0.48031 0.0
N1016 N 0.67438 0.12319 0.3779 0.0
N1017 N 0.62323 0.15231 0.43969 0.0
H1018 H 0.10632 0.27597 0.65978 0.0
H1019 H 0.16429 0.38288 0.51268 0.0
H1020 H 0.16043 0.33074 0.70923 0.0
H1021 H 0.14673 0.3091 0.45899 0.0
H1022 H 0.15999 0.36506 0.58574 0.0
H1023 H 0.11829 0.28822 0.58559 0.0
C1024 C 0.12089 0.2903 0.65505 0.0
C1025 C 0.13223 0.30251 0.69065 0.0
C1026 C 0.15735 0.35273 0.55793 0.0
C1027 C 0.1456 0.31671 0.60653 0.0
C1028 C 0.15961 0.36291 0.51638 0.0
C1029 C 0.15571 0.34741 0.48003 0.0
C1030 C 0.15057 0.32708 0.56299 0.0
C1031 C 0.14991 0.32161 0.48638 0.0
C1032 C 0.12775 0.29718 0.61285 0.0
C1033 C 0.15113 0.32085 0.68277 0.0
N1034 N 0.14712 0.31226 0.52726 0.0
N1035 N 0.15693 0.32769 0.6415 0.0
H1036 H 0.35819 0.86296 0.5047 0.0
H1037 H 0.30322 0.80884 0.29083 0.0
H1038 H 0.32178 0.78945 0.51192 0.0
H1039 H 0.28868 0.88642 0.32942 0.0
H1040 H 0.31456 0.79876 0.36651 0.0
H1041 H 0.33871 0.86986 0.43366 0.0
C1042 C 0.34618 0.84821 0.49111 0.0
C1043 C 0.34159 0.82558 0.5139 0.0
C1044 C 0.30839 0.81781 0.35823 0.0
C1045 C 0.3195 0.83329 0.43276 0.0
C1046 C 0.30202 0.82361 0.31521 0.0
C1047 C 0.29523 0.84858 0.30369 0.0
C1048 C 0.30856 0.83726 0.3893 0.0
C1049 C 0.29388 0.86696 0.33665 0.0
C1050 C 0.33493 0.85225 0.45087 0.0
C1051 C 0.32566 0.80716 0.49515 0.0
N1052 N 0.301 0.86104 0.37776 0.0
N1053 N 0.31538 0.81125 0.45509 0.0
H1054 H 0.82198 0.63324 0.71069 0.0
H1055 H 0.82994 0.66587 0.45792 0.0
H1056 H 0.86338 0.6981 0.66084 0.0
H1057 H 0.81922 0.58979 0.50792 0.0
H1058 H 0.83329 0.68156 0.53259 0.0
H1059 H 0.81142 0.62108 0.63631 0.0
C1060 C 0.82855 0.64515 0.68417 0.0
C1061 C 0.8438 0.66661 0.69193 0.0
C1062 C 0.83009 0.66147 0.52706 0.0
C1063 C 0.83176 0.65273 0.607 0.0
C1064 C 0.82812 0.65251 0.4846 0.0
C1065 C 0.82456 0.62646 0.47682 0.0
C1066 C 0.82806 0.6443 0.56183 0.0
C1067 C 0.82231 0.60997 0.51251 0.0
C1068 C 0.82263 0.63808 0.64179 0.0
C1069 C 0.85181 0.68126 0.65627 0.0
N1070 N 0.82408 0.61919 0.55355 0.0
N1071 N 0.84575 0.674 0.61523 0.0
H1072 H 0.35681 0.26186 0.29034 0.0
H1073 H 0.23181 0.31833 0.39805 0.0
H1074 H 0.3052 0.22128 0.375 0.0
H1075 H 0.26987 0.35409 0.28968 0.0
H1076 H 0.26718 0.28889 0.4054 0.0
H1077 H 0.33252 0.30094 0.30329 0.0
C1078 C 0.34049 0.26125 0.31181 0.0
C1079 C 0.33253 0.23831 0.33084 0.0
C1080 C 0.26801 0.30337 0.38034 0.0
C1081 C 0.30534 0.2826 0.34639 0.0
C1082 C 0.24786 0.32011 0.37615 0.0
C1083 C 0.2478 0.33801 0.34244 0.0
C1084 C 0.28788 0.30423 0.34997 0.0
C1085 C 0.26921 0.34016 0.31563 0.0
C1086 C 0.32678 0.28349 0.31929 0.0
C1087 C 0.31155 0.23846 0.3588 0.0
N1088 N 0.2883 0.32295 0.31929 0.0
N1089 N 0.29861 0.26025 0.36553 0.0
H1090 H 0.23269 0.65788 0.59108 0.0
H1091 H 0.35847 0.70766 0.70256 0.0
H1092 H 0.26812 0.62029 0.70009 0.0
H1093 H 0.31828 0.74501 0.5982 0.0
H1094 H 0.3328 0.66928 0.69007 0.0
H1095 H 0.27112 0.6829 0.58036 0.0
C1096 C 0.24874 0.65486 0.61258 0.0
C1097 C 0.24718 0.63772 0.64728 0.0
C1098 C 0.33 0.68574 0.66941 0.0
C1099 C 0.29091 0.66652 0.63597 0.0
C1100 C 0.34456 0.70755 0.67658 0.0
C1101 C 0.33973 0.72957 0.65227 0.0
C1102 C 0.3108 0.68622 0.63761 0.0
C1103 C 0.3219 0.72858 0.61857 0.0
C1104 C 0.27071 0.669 0.60639 0.0
C1105 C 0.26861 0.63377 0.67345 0.0
N1106 N 0.30786 0.70735 0.61259 0.0
N1107 N 0.28953 0.64861 0.66796 0.0
H1108 H 0.61605 0.70356 0.30781 0.0
H1109 H 0.74579 0.65521 0.4047 0.0
H1110 H 0.66243 0.74394 0.40087 0.0
H1111 H 0.7052 0.61759 0.3011 0.0
H1112 H 0.70796 0.68003 0.42071 0.0
H1113 H 0.64087 0.66513 0.32179 0.0
C1114 C 0.63117 0.7042 0.33171 0.0
C1115 C 0.63792 0.72708 0.35206 0.0
C1116 C 0.70715 0.66611 0.39483 0.0
C1117 C 0.66607 0.68348 0.36824 0.0
C1118 C 0.72878 0.6521 0.38552 0.0
C1119 C 0.72874 0.63514 0.35051 0.0
C1120 C 0.68564 0.66357 0.36817 0.0
C1121 C 0.70606 0.63101 0.3277 0.0
C1122 C 0.64525 0.68229 0.33974 0.0
C1123 C 0.65726 0.72686 0.38333 0.0
N1124 N 0.68548 0.64568 0.33623 0.0
N1125 N 0.67094 0.70547 0.38997 0.0
H1126 H 0.7474 0.31571 0.58639 0.0
H1127 H 0.61437 0.27387 0.67923 0.0
H1128 H 0.70657 0.35668 0.68576 0.0
H1129 H 0.65932 0.23093 0.58778 0.0
H1130 H 0.64109 0.31105 0.66508 0.0
H1131 H 0.70887 0.29201 0.56967 0.0
C1132 C 0.73023 0.31978 0.60452 0.0
C1133 C 0.73028 0.33741 0.63858 0.0
C1134 C 0.64476 0.29362 0.64751 0.0
C1135 C 0.68631 0.3103 0.61998 0.0
C1136 C 0.62958 0.27241 0.65563 0.0
C1137 C 0.63536 0.24913 0.63586 0.0
C1138 C 0.66574 0.29131 0.61958 0.0
C1139 C 0.65486 0.24832 0.60492 0.0
C1140 C 0.70819 0.30641 0.59476 0.0
C1141 C 0.70739 0.34273 0.65995 0.0
N1142 N 0.66965 0.26903 0.59827 0.0
N1143 N 0.68636 0.32873 0.651 0.0
H1144 H 0.77084 0.86009 0.8051 0.0
H1145 H 0.81478 0.72835 0.9002 0.0
H1146 H 0.73009 0.81657 0.90189 0.0
H1147 H 0.85626 0.76983 0.80179 0.0
H1148 H 0.79018 0.76637 0.91566 0.0
H1149 H 0.80831 0.83364 0.81788 0.0
C1150 C 0.76995 0.84529 0.82959 0.0
C1151 C 0.74717 0.8398 0.85136 0.0
C1152 C 0.80486 0.76732 0.89102 0.0
C1153 C 0.78964 0.8097 0.86606 0.0
C1154 C 0.81875 0.74557 0.88199 0.0
C1155 C 0.83688 0.74585 0.8487 0.0
C1156 C 0.80872 0.78928 0.86578 0.0
C1157 C 0.84199 0.76879 0.8271 0.0
C1158 C 0.79131 0.83024 0.83691 0.0
C1159 C 0.74707 0.82079 0.88329 0.0
N1160 N 0.82751 0.78954 0.83533 0.0
N1161 N 0.76788 0.80613 0.88917 0.0
H1162 H 0.76899 0.11651 0.18594 0.0
H1163 H 0.82151 0.24538 0.08778 0.0
H1164 H 0.72906 0.16495 0.09535 0.0
H1165 H 0.85786 0.20457 0.19256 0.0
H1166 H 0.79456 0.2086 0.07411 0.0
H1167 H 0.80775 0.14128 0.17316 0.0
C1168 C 0.7685 0.1321 0.16287 0.0
C1169 C 0.7457 0.13929 0.14266 0.0
C1170 C 0.80864 0.2075 0.09974 0.0
C1171 C 0.78969 0.16734 0.12777 0.0
C1172 C 0.82392 0.22852 0.10767 0.0
C1173 C 0.84123 0.22816 0.14226 0.0
C1174 C 0.81032 0.18627 0.12727 0.0
C1175 C 0.84429 0.20566 0.16613 0.0
C1176 C 0.79059 0.14615 0.15556 0.0
C1177 C 0.7461 0.15931 0.11261 0.0
N1178 N 0.82847 0.18569 0.15886 0.0
N1179 N 0.76769 0.17286 0.1065 0.0
H1180 H 0.11397 0.20357 0.81402 0.0
H1181 H 0.24226 0.15324 0.91119 0.0
H1182 H 0.16319 0.24481 0.90164 0.0
H1183 H 0.19934 0.11546 0.81045 0.0
H1184 H 0.20504 0.17873 0.92843 0.0
H1185 H 0.13654 0.16444 0.83228 0.0
C1186 C 0.12929 0.20433 0.83753 0.0
C1187 C 0.1375 0.22756 0.85499 0.0
C1188 C 0.20359 0.16454 0.90307 0.0
C1189 C 0.1631 0.18309 0.87611 0.0
C1190 C 0.22487 0.15012 0.89304 0.0
C1191 C 0.22409 0.13311 0.85809 0.0
C1192 C 0.18172 0.1623 0.8772 0.0
C1193 C 0.20089 0.12899 0.8368 0.0
C1194 C 0.14205 0.182 0.8481 0.0
C1195 C 0.15695 0.22743 0.88611 0.0
N1196 N 0.18072 0.14405 0.84591 0.0
N1197 N 0.1694 0.20557 0.89512 0.0
H1198 H 0.15676 0.73491 0.07799 0.0
H1199 H 0.20133 0.86592 0.17141 0.0
H1200 H 0.11595 0.77761 0.17515 0.0
H1201 H 0.24461 0.81826 0.08457 0.0
H1202 H 0.16302 0.84199 0.15265 0.0
H1203 H 0.18087 0.77299 0.05949 0.0
C1204 C 0.15276 0.75243 0.09516 0.0
C1205 C 0.13523 0.75302 0.12938 0.0
C1206 C 0.18081 0.83715 0.13701 0.0
C1207 C 0.16283 0.79639 0.1089 0.0
C1208 C 0.20267 0.85072 0.14781 0.0
C1209 C 0.22625 0.84323 0.13092 0.0
C1210 C 0.18278 0.81603 0.10938 0.0
C1211 C 0.22691 0.82391 0.09971 0.0
C1212 C 0.16635 0.77419 0.08438 0.0
C1213 C 0.12991 0.77631 0.14939 0.0
N1214 N 0.20553 0.81063 0.09054 0.0
N1215 N 0.14422 0.79702 0.13966 0.0
loop_
_geom_bond_atom_site_label_1
_geom_bond_atom_site_label_2
_geom_bond_distance
_geom_bond_site_symmetry_2
_ccdc_geom_bond_type
Sc0 O3 2.025 . S
Sc0 O10 2.105 . S
Sc0 O13 2.105 . S
Sc0 O16 2.105 . S
Sc0 O19 2.105 . S
Sc1 O3 2.025 . S
Sc1 O11 2.105 . S
Sc1 O15 2.105 . S
Sc1 O17 2.105 . S
Sc1 O21 2.105 . S
Sc2 O3 2.025 . S
Sc2 O12 2.105 . S
Sc2 O14 2.105 . S
Sc2 O18 2.105 . S
Sc2 O20 2.105 . S
O3 Sc0 2.025 . S
O3 Sc1 2.025 . S
O3 Sc2 2.025 . S
C4 O10 1.268 . S
C4 O20 1.268 . S
C5 O11 1.268 . S
C5 O19 1.268 . S
C6 O12 1.268 . S
C6 O21 1.268 . S
C7 O13 1.268 . S
C7 O17 1.268 . S
C8 O14 1.268 . S
C8 O16 1.268 . S
C9 O15 1.268 . S
C9 O18 1.268 . S
O10 Sc0 2.105 . S
O10 C4 1.268 . S
O11 Sc1 2.105 . S
O11 C5 1.268 . S
O12 Sc2 2.105 . S
O12 C6 1.268 . S
O13 Sc0 2.105 . S
O13 C7 1.268 . S
O14 Sc2 2.105 . S
O14 C8 1.268 . S
O15 Sc1 2.105 . S
O15 C9 1.268 . S
O16 Sc0 2.105 . S
O16 C8 1.268 . S
O17 Sc1 2.105 . S
O17 C7 1.268 . S
O18 Sc2 2.105 . S
O18 C9 1.268 . S
O19 Sc0 2.105 . S
O19 C5 1.268 . S
O20 Sc2 2.105 . S
O20 C4 1.268 . S
O21 Sc1 2.105 . S
O21 C6 1.268 . S
Sc22 O25 2.025 . S
Sc22 O32 2.105 . S
Sc22 O35 2.105 . S
Sc22 O38 2.105 . S
Sc22 O41 2.105 . S
Sc23 O25 2.025 . S
Sc23 O33 2.105 . S
Sc23 O37 2.105 . S
Sc23 O39 2.105 . S
Sc23 O43 2.105 . S
Sc24 O25 2.025 . S
Sc24 O34 2.105 . S
Sc24 O36 2.105 . S
Sc24 O40 2.105 . S
Sc24 O42 2.105 . S
O25 Sc22 2.025 . S
O25 Sc23 2.025 . S
O25 Sc24 2.025 . S
C26 O32 1.268 . S
C26 O42 1.268 . S
C27 O33 1.268 . S
C27 O41 1.268 . S
C28 O34 1.268 . S
C28 O43 1.268 . S
C29 O35 1.268 . S
C29 O39 1.268 . S
C30 O36 1.268 . S
C30 O38 1.268 . S
C31 O37 1.268 . S
C31 O40 1.268 . S
O32 Sc22 2.105 . S
O32 C26 1.268 . S
O33 Sc23 2.105 . S
O33 C27 1.268 . S
O34 Sc24 2.105 . S
O34 C28 1.268 . S
O35 Sc22 2.105 . S
O35 C29 1.268 . S
O36 Sc24 2.105 . S
O36 C30 1.268 . S
O37 Sc23 2.105 . S
O37 C31 1.268 . S
O38 Sc22 2.105 . S
O38 C30 1.268 . S
O39 Sc23 2.105 . S
O39 C29 1.268 . S
O40 Sc24 2.105 . S
O40 C31 1.268 . S
O41 Sc22 2.105 . S
O41 C27 1.268 . S
O42 Sc24 2.105 . S
O42 C26 1.268 . S
O43 Sc23 2.105 . S
O43 C28 1.268 . S
Sc44 O47 2.025 . S
Sc44 O54 2.105 . S
Sc44 O57 2.105 . S
Sc44 O60 2.105 . S
Sc44 O63 2.105 . S
Sc45 O47 2.025 . S
Sc45 O55 2.105 . S
Sc45 O59 2.105 . S
Sc45 O61 2.105 . S
Sc45 O65 2.105 . S
Sc46 O47 2.025 . S
Sc46 O56 2.105 . S
Sc46 O58 2.105 . S
Sc46 O62 2.105 . S
Sc46 O64 2.105 . S
O47 Sc44 2.025 . S
O47 Sc45 2.025 . S
O47 Sc46 2.025 . S
C48 O54 1.268 . S
C48 O64 1.268 . S
C49 O55 1.268 . S
C49 O63 1.268 . S
C50 O56 1.268 . S
C50 O65 1.268 . S
C51 O57 1.268 . S
C51 O61 1.268 . S
C52 O58 1.268 . S
C52 O60 1.268 . S
C53 O59 1.268 . S
C53 O62 1.268 . S
O54 Sc44 2.105 . S
O54 C48 1.268 . S
O55 Sc45 2.105 . S
O55 C49 1.268 . S
O56 Sc46 2.105 . S
O56 C50 1.268 . S
O57 Sc44 2.105 . S
O57 C51 1.268 . S
O58 Sc46 2.105 . S
O58 C52 1.268 . S
O59 Sc45 2.105 . S
O59 C53 1.268 . S
O60 Sc44 2.105 . S
O60 C52 1.268 . S
O61 Sc45 2.105 . S
O61 C51 1.268 . S
O62 Sc46 2.105 . S
O62 C53 1.268 . S
O63 Sc44 2.105 . S
O63 C49 1.268 . S
O64 Sc46 2.105 . S
O64 C48 1.268 . S
O65 Sc45 2.105 . S
O65 C50 1.268 . S
Sc66 O69 2.025 . S
Sc66 O76 2.105 . S
Sc66 O79 2.105 . S
Sc66 O82 2.105 . S
Sc66 O85 2.105 . S
Sc67 O69 2.025 . S
Sc67 O77 2.105 . S
Sc67 O81 2.105 . S
Sc67 O83 2.105 . S
Sc67 O87 2.105 . S
Sc68 O69 2.025 . S
Sc68 O78 2.105 . S
Sc68 O80 2.105 . S
Sc68 O84 2.105 . S
Sc68 O86 2.105 . S
O69 Sc66 2.025 . S
O69 Sc67 2.025 . S
O69 Sc68 2.025 . S
C70 O76 1.268 . S
C70 O86 1.268 . S
C71 O77 1.268 . S
C71 O85 1.268 . S
C72 O78 1.268 . S
C72 O87 1.268 . S
C73 O79 1.268 . S
C73 O83 1.268 . S
C74 O80 1.268 . S
C74 O82 1.268 . S
C75 O81 1.268 . S
C75 O84 1.268 . S
O76 Sc66 2.105 . S
O76 C70 1.268 . S
O77 Sc67 2.105 . S
O77 C71 1.268 . S
O78 Sc68 2.105 . S
O78 C72 1.268 . S
O79 Sc66 2.105 . S
O79 C73 1.268 . S
O80 Sc68 2.105 . S
O80 C74 1.268 . S
O81 Sc67 2.105 . S
O81 C75 1.268 . S
O82 Sc66 2.105 . S
O82 C74 1.268 . S
O83 Sc67 2.105 . S
O83 C73 1.268 . S
O84 Sc68 2.105 . S
O84 C75 1.268 . S
O85 Sc66 2.105 . S
O85 C71 1.268 . S
O86 Sc68 2.105 . S
O86 C70 1.268 . S
O87 Sc67 2.105 . S
O87 C72 1.268 . S
Sc88 O91 2.025 . S
Sc88 O98 2.105 . S
Sc88 O101 2.105 . S
Sc88 O104 2.105 . S
Sc88 O107 2.105 . S
Sc89 O91 2.025 . S
Sc89 O99 2.105 . S
Sc89 O103 2.105 . S
Sc89 O105 2.105 . S
Sc89 O109 2.105 . S
Sc90 O91 2.025 . S
Sc90 O100 2.105 . S
Sc90 O102 2.105 . S
Sc90 O106 2.105 . S
Sc90 O108 2.105 . S
O91 Sc88 2.025 . S
O91 Sc89 2.025 . S
O91 Sc90 2.025 . S
C92 O98 1.268 . S
C92 O108 1.268 . S
C93 O99 1.268 . S
C93 O107 1.268 . S
C94 O100 1.268 . S
C94 O109 1.268 . S
C95 O101 1.268 . S
C95 O105 1.268 . S
C96 O102 1.268 . S
C96 O104 1.268 . S
C97 O103 1.268 . S
C97 O106 1.268 . S
O98 Sc88 2.105 . S
O98 C92 1.268 . S
O99 Sc89 2.105 . S
O99 C93 1.268 . S
O100 Sc90 2.105 . S
O100 C94 1.268 . S
O101 Sc88 2.105 . S
O101 C95 1.268 . S
O102 Sc90 2.105 . S
O102 C96 1.268 . S
O103 Sc89 2.105 . S
O103 C97 1.268 . S
O104 Sc88 2.105 . S
O104 C96 1.268 . S
O105 Sc89 2.105 . S
O105 C95 1.268 . S
O106 Sc90 2.105 . S
O106 C97 1.268 . S
O107 Sc88 2.105 . S
O107 C93 1.268 . S
O108 Sc90 2.105 . S
O108 C92 1.268 . S
O109 Sc89 2.105 . S
O109 C94 1.268 . S
Sc110 O113 2.025 . S
Sc110 O120 2.105 . S
Sc110 O123 2.105 . S
Sc110 O126 2.105 . S
Sc110 O129 2.105 . S
Sc111 O113 2.025 . S
Sc111 O121 2.105 . S
Sc111 O125 2.105 . S
Sc111 O127 2.105 . S
Sc111 O131 2.105 . S
Sc112 O113 2.025 . S
Sc112 O122 2.105 . S
Sc112 O124 2.105 . S
Sc112 O128 2.105 . S
Sc112 O130 2.105 . S
O113 Sc110 2.025 . S
O113 Sc111 2.025 . S
O113 Sc112 2.025 . S
C114 O120 1.268 . S
C114 O130 1.268 . S
C115 O121 1.268 . S
C115 O129 1.268 . S
C116 O122 1.268 . S
C116 O131 1.268 . S
C117 O123 1.268 . S
C117 O127 1.268 . S
C118 O124 1.268 . S
C118 O126 1.268 . S
C119 O125 1.268 . S
C119 O128 1.268 . S
O120 Sc110 2.105 . S
O120 C114 1.268 . S
O121 Sc111 2.105 . S
O121 C115 1.268 . S
O122 Sc112 2.105 . S
O122 C116 1.268 . S
O123 Sc110 2.105 . S
O123 C117 1.268 . S
O124 Sc112 2.105 . S
O124 C118 1.268 . S
O125 Sc111 2.105 . S
O125 C119 1.268 . S
O126 Sc110 2.105 . S
O126 C118 1.268 . S
O127 Sc111 2.105 . S
O127 C117 1.268 . S
O128 Sc112 2.105 . S
O128 C119 1.268 . S
O129 Sc110 2.105 . S
O129 C115 1.268 . S
O130 Sc112 2.105 . S
O130 C114 1.268 . S
O131 Sc111 2.105 . S
O131 C116 1.268 . S
Sc132 O135 2.025 . S
Sc132 O142 2.105 . S
Sc132 O145 2.105 . S
Sc132 O148 2.105 . S
Sc132 O151 2.105 . S
Sc133 O135 2.025 . S
Sc133 O143 2.105 . S
Sc133 O147 2.105 . S
Sc133 O149 2.105 . S
Sc133 O153 2.105 . S
Sc134 O135 2.025 . S
Sc134 O144 2.105 . S
Sc134 O146 2.105 . S
Sc134 O150 2.105 . S
Sc134 O152 2.105 . S
O135 Sc132 2.025 . S
O135 Sc133 2.025 . S
O135 Sc134 2.025 . S
C136 O142 1.268 . S
C136 O152 1.268 . S
C137 O143 1.268 . S
C137 O151 1.268 . S
C138 O144 1.268 . S
C138 O153 1.268 . S
C139 O145 1.268 . S
C139 O149 1.268 . S
C140 O146 1.268 . S
C140 O148 1.268 . S
C141 O147 1.268 . S
C141 O150 1.268 . S
O142 Sc132 2.105 . S
O142 C136 1.268 . S
O143 Sc133 2.105 . S
O143 C137 1.268 . S
O144 Sc134 2.105 . S
O144 C138 1.268 . S
O145 Sc132 2.105 . S
O145 C139 1.268 . S
O146 Sc134 2.105 . S
O146 C140 1.268 . S
O147 Sc133 2.105 . S
O147 C141 1.268 . S
O148 Sc132 2.105 . S
O148 C140 1.268 . S
O149 Sc133 2.105 . S
O149 C139 1.268 . S
O150 Sc134 2.105 . S
O150 C141 1.268 . S
O151 Sc132 2.105 . S
O151 C137 1.268 . S
O152 Sc134 2.105 . S
O152 C136 1.268 . S
O153 Sc133 2.105 . S
O153 C138 1.268 . S
Sc154 O157 2.025 . S
Sc154 O164 2.105 . S
Sc154 O167 2.105 . S
Sc154 O170 2.105 . S
Sc154 O173 2.105 . S
Sc155 O157 2.025 . S
Sc155 O165 2.105 . S
Sc155 O169 2.105 . S
Sc155 O171 2.105 . S
Sc155 O175 2.105 . S
Sc156 O157 2.025 . S
Sc156 O166 2.105 . S
Sc156 O168 2.105 . S
Sc156 O172 2.105 . S
Sc156 O174 2.105 . S
O157 Sc154 2.025 . S
O157 Sc155 2.025 . S
O157 Sc156 2.025 . S
C158 O164 1.268 . S
C158 O174 1.268 . S
C159 O165 1.268 . S
C159 O173 1.268 . S
C160 O166 1.268 . S
C160 O175 1.268 . S
C161 O167 1.268 . S
C161 O171 1.268 . S
C162 O168 1.268 . S
C162 O170 1.268 . S
C163 O169 1.268 . S
C163 O172 1.268 . S
O164 Sc154 2.105 . S
O164 C158 1.268 . S
O165 Sc155 2.105 . S
O165 C159 1.268 . S
O166 Sc156 2.105 . S
O166 C160 1.268 . S
O167 Sc154 2.105 . S
O167 C161 1.268 . S
O168 Sc156 2.105 . S
O168 C162 1.268 . S
O169 Sc155 2.105 . S
O169 C163 1.268 . S
O170 Sc154 2.105 . S
O170 C162 1.268 . S
O171 Sc155 2.105 . S
O171 C161 1.268 . S
O172 Sc156 2.105 . S
O172 C163 1.268 . S
O173 Sc154 2.105 . S
O173 C159 1.268 . S
O174 Sc156 2.105 . S
O174 C158 1.268 . S
O175 Sc155 2.105 . S
O175 C160 1.268 . S
Sc176 O179 2.025 . S
Sc176 O186 2.105 . S
Sc176 O189 2.105 . S
Sc176 O192 2.105 . S
Sc176 O195 2.105 . S
Sc177 O179 2.025 . S
Sc177 O187 2.105 . S
Sc177 O191 2.105 . S
Sc177 O193 2.105 . S
Sc177 O197 2.105 . S
Sc178 O179 2.025 . S
Sc178 O188 2.105 . S
Sc178 O190 2.105 . S
Sc178 O194 2.105 . S
Sc178 O196 2.105 . S
O179 Sc176 2.025 . S
O179 Sc177 2.025 . S
O179 Sc178 2.025 . S
C180 O186 1.268 . S
C180 O196 1.268 . S
C181 O187 1.268 . S
C181 O195 1.268 . S
C182 O188 1.268 . S
C182 O197 1.268 . S
C183 O189 1.268 . S
C183 O193 1.268 . S
C184 O190 1.268 . S
C184 O192 1.268 . S
C185 O191 1.268 . S
C185 O194 1.268 . S
O186 Sc176 2.105 . S
O186 C180 1.268 . S
O187 Sc177 2.105 . S
O187 C181 1.268 . S
O188 Sc178 2.105 . S
O188 C182 1.268 . S
O189 Sc176 2.105 . S
O189 C183 1.268 . S
O190 Sc178 2.105 . S
O190 C184 1.268 . S
O191 Sc177 2.105 . S
O191 C185 1.268 . S
O192 Sc176 2.105 . S
O192 C184 1.268 . S
O193 Sc177 2.105 . S
O193 C183 1.268 . S
O194 Sc178 2.105 . S
O194 C185 1.268 . S
O195 Sc176 2.105 . S
O195 C181 1.268 . S
O196 Sc178 2.105 . S
O196 C180 1.268 . S
O197 Sc177 2.105 . S
O197 C182 1.268 . S
Sc198 O201 2.025 . S
Sc198 O208 2.105 . S
Sc198 O211 2.105 . S
Sc198 O214 2.105 . S
Sc198 O217 2.105 . S
Sc199 O201 2.025 . S
Sc199 O209 2.105 . S
Sc199 O213 2.105 . S
Sc199 O215 2.105 . S
Sc199 O219 2.105 . S
Sc200 O201 2.025 . S
Sc200 O210 2.105 . S
Sc200 O212 2.105 . S
Sc200 O216 2.105 . S
Sc200 O218 2.105 . S
O201 Sc198 2.025 . S
O201 Sc199 2.025 . S
O201 Sc200 2.025 . S
C202 O208 1.268 . S
C202 O218 1.268 . S
C203 O209 1.268 . S
C203 O217 1.268 . S
C204 O210 1.268 . S
C204 O219 1.268 . S
C205 O211 1.268 . S
C205 O215 1.268 . S
C206 O212 1.268 . S
C206 O214 1.268 . S
C207 O213 1.268 . S
C207 O216 1.268 . S
O208 Sc198 2.105 . S
O208 C202 1.268 . S
O209 Sc199 2.105 . S
O209 C203 1.268 . S
O210 Sc200 2.105 . S
O210 C204 1.268 . S
O211 Sc198 2.105 . S
O211 C205 1.268 . S
O212 Sc200 2.105 . S
O212 C206 1.268 . S
O213 Sc199 2.105 . S
O213 C207 1.268 . S
O214 Sc198 2.105 . S
O214 C206 1.268 . S
O215 Sc199 2.105 . S
O215 C205 1.268 . S
O216 Sc200 2.105 . S
O216 C207 1.268 . S
O217 Sc198 2.105 . S
O217 C203 1.268 . S
O218 Sc200 2.105 . S
O218 C202 1.268 . S
O219 Sc199 2.105 . S
O219 C204 1.268 . S
Sc220 O223 2.025 . S
Sc220 O230 2.105 . S
Sc220 O233 2.105 . S
Sc220 O236 2.105 . S
Sc220 O239 2.105 . S
Sc221 O223 2.025 . S
Sc221 O231 2.105 . S
Sc221 O235 2.105 . S
Sc221 O237 2.105 . S
Sc221 O241 2.105 . S
Sc222 O223 2.025 . S
Sc222 O232 2.105 . S
Sc222 O234 2.105 . S
Sc222 O238 2.105 . S
Sc222 O240 2.105 . S
O223 Sc220 2.025 . S
O223 Sc221 2.025 . S
O223 Sc222 2.025 . S
C224 O230 1.268 . S
C224 O240 1.268 . S
C225 O231 1.268 . S
C225 O239 1.268 . S
C226 O232 1.268 . S
C226 O241 1.268 . S
C227 O233 1.268 . S
C227 O237 1.268 . S
C228 O234 1.268 . S
C228 O236 1.268 . S
C229 O235 1.268 . S
C229 O238 1.268 . S
O230 Sc220 2.105 . S
O230 C224 1.268 . S
O231 Sc221 2.105 . S
O231 C225 1.268 . S
O232 Sc222 2.105 . S
O232 C226 1.268 . S
O233 Sc220 2.105 . S
O233 C227 1.268 . S
O234 Sc222 2.105 . S
O234 C228 1.268 . S
O235 Sc221 2.105 . S
O235 C229 1.268 . S
O236 Sc220 2.105 . S
O236 C228 1.268 . S
O237 Sc221 2.105 . S
O237 C227 1.268 . S
O238 Sc222 2.105 . S
O238 C229 1.268 . S
O239 Sc220 2.105 . S
O239 C225 1.268 . S
O240 Sc222 2.105 . S
O240 C224 1.268 . S
O241 Sc221 2.105 . S
O241 C226 1.268 . S
Sc242 O245 2.025 . S
Sc242 O252 2.105 . S
Sc242 O255 2.105 . S
Sc242 O258 2.105 . S
Sc242 O261 2.105 . S
Sc243 O245 2.025 . S
Sc243 O253 2.105 . S
Sc243 O257 2.105 . S
Sc243 O259 2.105 . S
Sc243 O263 2.105 . S
Sc244 O245 2.025 . S
Sc244 O254 2.105 . S
Sc244 O256 2.105 . S
Sc244 O260 2.105 . S
Sc244 O262 2.105 . S
O245 Sc242 2.025 . S
O245 Sc243 2.025 . S
O245 Sc244 2.025 . S
C246 O252 1.268 . S
C246 O262 1.268 . S
C247 O253 1.268 . S
C247 O261 1.268 . S
C248 O254 1.268 . S
C248 O263 1.268 . S
C249 O255 1.268 . S
C249 O259 1.268 . S
C250 O256 1.268 . S
C250 O258 1.268 . S
C251 O257 1.268 . S
C251 O260 1.268 . S
O252 Sc242 2.105 . S
O252 C246 1.268 . S
O253 Sc243 2.105 . S
O253 C247 1.268 . S
O254 Sc244 2.105 . S
O254 C248 1.268 . S
O255 Sc242 2.105 . S
O255 C249 1.268 . S
O256 Sc244 2.105 . S
O256 C250 1.268 . S
O257 Sc243 2.105 . S
O257 C251 1.268 . S
O258 Sc242 2.105 . S
O258 C250 1.268 . S
O259 Sc243 2.105 . S
O259 C249 1.268 . S
O260 Sc244 2.105 . S
O260 C251 1.268 . S
O261 Sc242 2.105 . S
O261 C247 1.268 . S
O262 Sc244 2.105 . S
O262 C246 1.268 . S
O263 Sc243 2.105 . S
O263 C248 1.268 . S
Sc264 O267 2.025 . S
Sc264 O274 2.105 . S
Sc264 O277 2.105 . S
Sc264 O280 2.105 . S
Sc264 O283 2.105 . S
Sc265 O267 2.025 . S
Sc265 O275 2.105 . S
Sc265 O279 2.105 . S
Sc265 O281 2.105 . S
Sc265 O285 2.105 . S
Sc266 O267 2.025 . S
Sc266 O276 2.105 . S
Sc266 O278 2.105 . S
Sc266 O282 2.105 . S
Sc266 O284 2.105 . S
O267 Sc264 2.025 . S
O267 Sc265 2.025 . S
O267 Sc266 2.025 . S
C268 O274 1.268 . S
C268 O284 1.268 . S
C269 O275 1.268 . S
C269 O283 1.268 . S
C270 O276 1.268 . S
C270 O285 1.268 . S
C271 O277 1.268 . S
C271 O281 1.268 . S
C272 O278 1.268 . S
C272 O280 1.268 . S
C273 O279 1.268 . S
C273 O282 1.268 . S
O274 Sc264 2.105 . S
O274 C268 1.268 . S
O275 Sc265 2.105 . S
O275 C269 1.268 . S
O276 Sc266 2.105 . S
O276 C270 1.268 . S
O277 Sc264 2.105 . S
O277 C271 1.268 . S
O278 Sc266 2.105 . S
O278 C272 1.268 . S
O279 Sc265 2.105 . S
O279 C273 1.268 . S
O280 Sc264 2.105 . S
O280 C272 1.268 . S
O281 Sc265 2.105 . S
O281 C271 1.268 . S
O282 Sc266 2.105 . S
O282 C273 1.268 . S
O283 Sc264 2.105 . S
O283 C269 1.268 . S
O284 Sc266 2.105 . S
O284 C268 1.268 . S
O285 Sc265 2.105 . S
O285 C270 1.268 . S
Sc286 O289 2.025 . S
Sc286 O296 2.105 . S
Sc286 O299 2.105 . S
Sc286 O302 2.105 . S
Sc286 O305 2.105 . S
Sc287 O289 2.025 . S
Sc287 O297 2.105 . S
Sc287 O301 2.105 . S
Sc287 O303 2.105 . S
Sc287 O307 2.105 . S
Sc288 O289 2.025 . S
Sc288 O298 2.105 . S
Sc288 O300 2.105 . S
Sc288 O304 2.105 . S
Sc288 O306 2.105 . S
O289 Sc286 2.025 . S
O289 Sc287 2.025 . S
O289 Sc288 2.025 . S
C290 O296 1.268 . S
C290 O306 1.268 . S
C291 O297 1.268 . S
C291 O305 1.268 . S
C292 O298 1.268 . S
C292 O307 1.268 . S
C293 O299 1.268 . S
C293 O303 1.268 . S
C294 O300 1.268 . S
C294 O302 1.268 . S
C295 O301 1.268 . S
C295 O304 1.268 . S
O296 Sc286 2.105 . S
O296 C290 1.268 . S
O297 Sc287 2.105 . S
O297 C291 1.268 . S
O298 Sc288 2.105 . S
O298 C292 1.268 . S
O299 Sc286 2.105 . S
O299 C293 1.268 . S
O300 Sc288 2.105 . S
O300 C294 1.268 . S
O301 Sc287 2.105 . S
O301 C295 1.268 . S
O302 Sc286 2.105 . S
O302 C294 1.268 . S
O303 Sc287 2.105 . S
O303 C293 1.268 . S
O304 Sc288 2.105 . S
O304 C295 1.268 . S
O305 Sc286 2.105 . S
O305 C291 1.268 . S
O306 Sc288 2.105 . S
O306 C290 1.268 . S
O307 Sc287 2.105 . S
O307 C292 1.268 . S
Sc308 O311 2.025 . S
Sc308 O318 2.105 . S
Sc308 O321 2.105 . S
Sc308 O324 2.105 . S
Sc308 O327 2.105 . S
Sc309 O311 2.025 . S
Sc309 O319 2.105 . S
Sc309 O323 2.105 . S
Sc309 O325 2.105 . S
Sc309 O329 2.105 . S
Sc310 O311 2.025 . S
Sc310 O320 2.105 . S
Sc310 O322 2.105 . S
Sc310 O326 2.105 . S
Sc310 O328 2.105 . S
O311 Sc308 2.025 . S
O311 Sc309 2.025 . S
O311 Sc310 2.025 . S
C312 O318 1.268 . S
C312 O328 1.268 . S
C313 O319 1.268 . S
C313 O327 1.268 . S
C314 O320 1.268 . S
C314 O329 1.268 . S
C315 O321 1.268 . S
C315 O325 1.268 . S
C316 O322 1.268 . S
C316 O324 1.268 . S
C317 O323 1.268 . S
C317 O326 1.268 . S
O318 Sc308 2.105 . S
O318 C312 1.268 . S
O319 Sc309 2.105 . S
O319 C313 1.268 . S
O320 Sc310 2.105 . S
O320 C314 1.268 . S
O321 Sc308 2.105 . S
O321 C315 1.268 . S
O322 Sc310 2.105 . S
O322 C316 1.268 . S
O323 Sc309 2.105 . S
O323 C317 1.268 . S
O324 Sc308 2.105 . S
O324 C316 1.268 . S
O325 Sc309 2.105 . S
O325 C315 1.268 . S
O326 Sc310 2.105 . S
O326 C317 1.268 . S
O327 Sc308 2.105 . S
O327 C313 1.268 . S
O328 Sc310 2.105 . S
O328 C312 1.268 . S
O329 Sc309 2.105 . S
O329 C314 1.268 . S
Sc330 O333 2.025 . S
Sc330 O340 2.105 . S
Sc330 O343 2.105 . S
Sc330 O346 2.105 . S
Sc330 O349 2.105 . S
Sc331 O333 2.025 . S
Sc331 O341 2.105 . S
Sc331 O345 2.105 . S
Sc331 O347 2.105 . S
Sc331 O351 2.105 . S
Sc332 O333 2.025 . S
Sc332 O342 2.105 . S
Sc332 O344 2.105 . S
Sc332 O348 2.105 . S
Sc332 O350 2.105 . S
O333 Sc330 2.025 . S
O333 Sc331 2.025 . S
O333 Sc332 2.025 . S
C334 O340 1.268 . S
C334 O350 1.268 . S
C335 O341 1.268 . S
C335 O349 1.268 . S
C336 O342 1.268 . S
C336 O351 1.268 . S
C337 O343 1.268 . S
C337 O347 1.268 . S
C338 O344 1.268 . S
C338 O346 1.268 . S
C339 O345 1.268 . S
C339 O348 1.268 . S
O340 Sc330 2.105 . S
O340 C334 1.268 . S
O341 Sc331 2.105 . S
O341 C335 1.268 . S
O342 Sc332 2.105 . S
O342 C336 1.268 . S
O343 Sc330 2.105 . S
O343 C337 1.268 . S
O344 Sc332 2.105 . S
O344 C338 1.268 . S
O345 Sc331 2.105 . S
O345 C339 1.268 . S
O346 Sc330 2.105 . S
O346 C338 1.268 . S
O347 Sc331 2.105 . S
O347 C337 1.268 . S
O348 Sc332 2.105 . S
O348 C339 1.268 . S
O349 Sc330 2.105 . S
O349 C335 1.268 . S
O350 Sc332 2.105 . S
O350 C334 1.268 . S
O351 Sc331 2.105 . S
O351 C336 1.268 . S
H352 C358 0.930 . S
H353 C362 0.930 . S
H354 C367 0.929 . S
H355 C365 0.929 . S
H356 C360 0.929 . S
H357 C366 0.929 . S
C358 H352 0.930 . S
C358 C359 1.367 . S
C358 C366 1.378 . S
C359 C358 1.367 . S
C359 C367 1.433 . S
C360 H356 0.929 . S
C360 C362 1.378 . S
C360 C364 1.350 . S
C361 C364 1.463 . S
C361 C366 1.350 . S
C361 N369 1.427 . S
C362 H353 0.930 . S
C362 C360 1.378 . S
C362 C363 1.367 . S
C363 C362 1.367 . S
C363 C365 1.433 . S
C364 C360 1.350 . S
C364 C361 1.463 . S
C364 N368 1.427 . S
C365 H355 0.929 . S
C365 C363 1.433 . S
C365 N368 1.384 . S
C366 H357 0.929 . S
C366 C358 1.378 . S
C366 C361 1.350 . S
C367 H354 0.929 . S
C367 C359 1.433 . S
C367 N369 1.384 . S
N368 C364 1.427 . S
N368 C365 1.384 . S
N369 C361 1.427 . S
N369 C367 1.384 . S
H370 C376 0.930 . S
H371 C380 0.930 . S
H372 C385 0.929 . S
H373 C383 0.929 . S
H374 C378 0.929 . S
H375 C384 0.929 . S
C376 H370 0.930 . S
C376 C377 1.367 . S
C376 C384 1.378 . S
C377 C376 1.367 . S
C377 C385 1.433 . S
C378 H374 0.929 . S
C378 C380 1.378 . S
C378 C382 1.350 . S
C379 C382 1.463 . S
C379 C384 1.350 . S
C379 N387 1.427 . S
C380 H371 0.930 . S
C380 C378 1.378 . S
C380 C381 1.367 . S
C381 C380 1.367 . S
C381 C383 1.433 . S
C382 C378 1.350 . S
C382 C379 1.463 . S
C382 N386 1.427 . S
C383 H373 0.929 . S
C383 C381 1.433 . S
C383 N386 1.384 . S
C384 H375 0.929 . S
C384 C376 1.378 . S
C384 C379 1.350 . S
C385 H372 0.929 . S
C385 C377 1.433 . S
C385 N387 1.384 . S
N386 C382 1.427 . S
N386 C383 1.384 . S
N387 C379 1.427 . S
N387 C385 1.384 . S
H388 C394 0.930 . S
H389 C398 0.930 . S
H390 C403 0.929 . S
H391 C401 0.929 . S
H392 C396 0.929 . S
H393 C402 0.929 . S
C394 H388 0.930 . S
C394 C395 1.367 . S
C394 C402 1.378 . S
C395 C394 1.367 . S
C395 C403 1.433 . S
C396 H392 0.929 . S
C396 C398 1.378 . S
C396 C400 1.350 . S
C397 C400 1.463 . S
C397 C402 1.350 . S
C397 N405 1.427 . S
C398 H389 0.930 . S
C398 C396 1.378 . S
C398 C399 1.367 . S
C399 C398 1.367 . S
C399 C401 1.433 . S
C400 C396 1.350 . S
C400 C397 1.463 . S
C400 N404 1.427 . S
C401 H391 0.929 . S
C401 C399 1.433 . S
C401 N404 1.384 . S
C402 H393 0.929 . S
C402 C394 1.378 . S
C402 C397 1.350 . S
C403 H390 0.929 . S
C403 C395 1.433 . S
C403 N405 1.384 . S
N404 C400 1.427 . S
N404 C401 1.384 . S
N405 C397 1.427 . S
N405 C403 1.384 . S
H406 C412 0.930 . S
H407 C416 0.930 . S
H408 C421 0.929 . S
H409 C419 0.929 . S
H410 C414 0.929 . S
H411 C420 0.929 . S
C412 H406 0.930 . S
C412 C413 1.367 . S
C412 C420 1.378 . S
C413 C412 1.367 . S
C413 C421 1.433 . S
C414 H410 0.929 . S
C414 C416 1.378 . S
C414 C418 1.350 . S
C415 C418 1.463 . S
C415 C420 1.350 . S
C415 N423 1.427 . S
C416 H407 0.930 . S
C416 C414 1.378 . S
C416 C417 1.367 . S
C417 C416 1.367 . S
C417 C419 1.433 . S
C418 C414 1.350 . S
C418 C415 1.463 . S
C418 N422 1.427 . S
C419 H409 0.929 . S
C419 C417 1.433 . S
C419 N422 1.384 . S
C420 H411 0.929 . S
C420 C412 1.378 . S
C420 C415 1.350 . S
C421 H408 0.929 . S
C421 C413 1.433 . S
C421 N423 1.384 . S
N422 C418 1.427 . S
N422 C419 1.384 . S
N423 C415 1.427 . S
N423 C421 1.384 . S
H424 C430 0.930 . S
H425 C434 0.930 . S
H426 C439 0.929 . S
H427 C437 0.929 . S
H428 C432 0.929 . S
H429 C438 0.929 . S
C430 H424 0.930 . S
C430 C431 1.367 . S
C430 C438 1.378 . S
C431 C430 1.367 . S
C431 C439 1.433 . S
C432 H428 0.929 . S
C432 C434 1.378 . S
C432 C436 1.350 . S
C433 C436 1.463 . S
C433 C438 1.350 . S
C433 N441 1.427 . S
C434 H425 0.930 . S
C434 C432 1.378 . S
C434 C435 1.367 . S
C435 C434 1.367 . S
C435 C437 1.433 . S
C436 C432 1.350 . S
C436 C433 1.463 . S
C436 N440 1.427 . S
C437 H427 0.929 . S
C437 C435 1.433 . S
C437 N440 1.384 . S
C438 H429 0.929 . S
C438 C430 1.378 . S
C438 C433 1.350 . S
C439 H426 0.929 . S
C439 C431 1.433 . S
C439 N441 1.384 . S
N440 C436 1.427 . S
N440 C437 1.384 . S
N441 C433 1.427 . S
N441 C439 1.384 . S
H442 C448 0.930 . S
H443 C452 0.930 . S
H444 C457 0.929 . S
H445 C455 0.929 . S
H446 C450 0.929 . S
H447 C456 0.929 . S
C448 H442 0.930 . S
C448 C449 1.367 . S
C448 C456 1.378 . S
C449 C448 1.367 . S
C449 C457 1.433 . S
C450 H446 0.929 . S
C450 C452 1.378 . S
C450 C454 1.350 . S
C451 C454 1.463 . S
C451 C456 1.350 . S
C451 N459 1.427 . S
C452 H443 0.930 . S
C452 C450 1.378 . S
C452 C453 1.367 . S
C453 C452 1.367 . S
C453 C455 1.433 . S
C454 C450 1.350 . S
C454 C451 1.463 . S
C454 N458 1.427 . S
C455 H445 0.929 . S
C455 C453 1.433 . S
C455 N458 1.384 . S
C456 H447 0.929 . S
C456 C448 1.378 . S
C456 C451 1.350 . S
C457 H444 0.929 . S
C457 C449 1.433 . S
C457 N459 1.384 . S
N458 C454 1.427 . S
N458 C455 1.384 . S
N459 C451 1.427 . S
N459 C457 1.384 . S
H460 C466 0.930 . S
H461 C470 0.930 . S
H462 C475 0.929 . S
H463 C473 0.929 . S
H464 C468 0.929 . S
H465 C474 0.929 . S
C466 H460 0.930 . S
C466 C467 1.367 . S
C466 C474 1.378 . S
C467 C466 1.367 . S
C467 C475 1.433 . S
C468 H464 0.929 . S
C468 C470 1.378 . S
C468 C472 1.350 . S
C469 C472 1.463 . S
C469 C474 1.350 . S
C469 N477 1.427 . S
C470 H461 0.930 . S
C470 C468 1.378 . S
C470 C471 1.367 . S
C471 C470 1.367 . S
C471 C473 1.433 . S
C472 C468 1.350 . S
C472 C469 1.463 . S
C472 N476 1.427 . S
C473 H463 0.929 . S
C473 C471 1.433 . S
C473 N476 1.384 . S
C474 H465 0.929 . S
C474 C466 1.378 . S
C474 C469 1.350 . S
C475 H462 0.929 . S
C475 C467 1.433 . S
C475 N477 1.384 . S
N476 C472 1.427 . S
N476 C473 1.384 . S
N477 C469 1.427 . S
N477 C475 1.384 . S
H478 C484 0.930 . S
H479 C488 0.930 . S
H480 C493 0.929 . S
H481 C491 0.929 . S
H482 C486 0.929 . S
H483 C492 0.929 . S
C484 H478 0.930 . S
C484 C485 1.367 . S
C484 C492 1.378 . S
C485 C484 1.367 . S
C485 C493 1.433 . S
C486 H482 0.929 . S
C486 C488 1.378 . S
C486 C490 1.350 . S
C487 C490 1.463 . S
C487 C492 1.350 . S
C487 N495 1.427 . S
C488 H479 0.930 . S
C488 C486 1.378 . S
C488 C489 1.367 . S
C489 C488 1.367 . S
C489 C491 1.433 . S
C490 C486 1.350 . S
C490 C487 1.463 . S
C490 N494 1.427 . S
C491 H481 0.929 . S
C491 C489 1.433 . S
C491 N494 1.384 . S
C492 H483 0.929 . S
C492 C484 1.378 . S
C492 C487 1.350 . S
C493 H480 0.929 . S
C493 C485 1.433 . S
C493 N495 1.384 . S
N494 C490 1.427 . S
N494 C491 1.384 . S
N495 C487 1.427 . S
N495 C493 1.384 . S
H496 C502 0.930 . S
H497 C506 0.930 . S
H498 C511 0.929 . S
H499 C509 0.929 . S
H500 C504 0.929 . S
H501 C510 0.929 . S
C502 H496 0.930 . S
C502 C503 1.367 . S
C502 C510 1.378 1_565 S
C503 C502 1.367 . S
C503 C511 1.433 . S
C504 H500 0.929 . S
C504 C506 1.378 . S
C504 C508 1.350 . S
C505 C508 1.463 . S
C505 C510 1.350 . S
C505 N513 1.427 . S
C506 H497 0.930 . S
C506 C504 1.378 . S
C506 C507 1.367 . S
C507 C506 1.367 . S
C507 C509 1.433 . S
C508 C504 1.350 . S
C508 C505 1.463 . S
C508 N512 1.427 . S
C509 H499 0.929 . S
C509 C507 1.433 . S
C509 N512 1.384 . S
C510 H501 0.929 . S
C510 C502 1.378 1_545 S
C510 C505 1.350 . S
C511 H498 0.929 . S
C511 C503 1.433 . S
C511 N513 1.384 1_565 S
N512 C508 1.427 . S
N512 C509 1.384 . S
N513 C505 1.427 . S
N513 C511 1.384 1_545 S
H514 C520 0.930 . S
H515 C524 0.930 . S
H516 C529 0.929 . S
H517 C527 0.929 . S
H518 C522 0.929 . S
H519 C528 0.929 . S
C520 H514 0.930 . S
C520 C521 1.367 . S
C520 C528 1.378 . S
C521 C520 1.367 . S
C521 C529 1.433 . S
C522 H518 0.929 . S
C522 C524 1.378 1_455 S
C522 C526 1.350 . S
C523 C526 1.463 . S
C523 C528 1.350 . S
C523 N531 1.427 . S
C524 H515 0.930 . S
C524 C522 1.378 1_655 S
C524 C525 1.367 . S
C525 C524 1.367 . S
C525 C527 1.433 . S
C526 C522 1.350 . S
C526 C523 1.463 . S
C526 N530 1.427 . S
C527 H517 0.929 . S
C527 C525 1.433 . S
C527 N530 1.384 1_655 S
C528 H519 0.929 . S
C528 C520 1.378 . S
C528 C523 1.350 . S
C529 H516 0.929 . S
C529 C521 1.433 . S
C529 N531 1.384 . S
N530 C526 1.427 . S
N530 C527 1.384 1_455 S
N531 C523 1.427 . S
N531 C529 1.384 . S
H532 C538 0.930 . S
H533 C542 0.930 . S
H534 C547 0.929 . S
H535 C545 0.929 . S
H536 C540 0.929 . S
H537 C546 0.929 . S
C538 H532 0.930 . S
C538 C539 1.367 . S
C538 C546 1.378 . S
C539 C538 1.367 . S
C539 C547 1.433 . S
C540 H536 0.929 . S
C540 C542 1.378 1_565 S
C540 C544 1.350 . S
C541 C544 1.463 . S
C541 C546 1.350 . S
C541 N549 1.427 . S
C542 H533 0.930 . S
C542 C540 1.378 1_545 S
C542 C543 1.367 . S
C543 C542 1.367 . S
C543 C545 1.433 . S
C544 C540 1.350 . S
C544 C541 1.463 . S
C544 N548 1.427 . S
C545 H535 0.929 . S
C545 C543 1.433 . S
C545 N548 1.384 1_545 S
C546 H537 0.929 . S
C546 C538 1.378 . S
C546 C541 1.350 . S
C547 H534 0.929 . S
C547 C539 1.433 . S
C547 N549 1.384 . S
N548 C544 1.427 . S
N548 C545 1.384 1_565 S
N549 C541 1.427 . S
N549 C547 1.384 . S
H550 C556 0.930 . S
H551 C560 0.930 . S
H552 C565 0.929 . S
H553 C563 0.929 . S
H554 C558 0.929 . S
H555 C564 0.929 . S
C556 H550 0.930 . S
C556 C557 1.367 . S
C556 C564 1.378 1_455 S
C557 C556 1.367 . S
C557 C565 1.433 . S
C558 H554 0.929 . S
C558 C560 1.378 . S
C558 C562 1.350 . S
C559 C562 1.463 . S
C559 C564 1.350 . S
C559 N567 1.427 . S
C560 H551 0.930 . S
C560 C558 1.378 . S
C560 C561 1.367 . S
C561 C560 1.367 . S
C561 C563 1.433 . S
C562 C558 1.350 . S
C562 C559 1.463 . S
C562 N566 1.427 . S
C563 H553 0.929 . S
C563 C561 1.433 . S
C563 N566 1.384 . S
C564 H555 0.929 . S
C564 C556 1.378 1_655 S
C564 C559 1.350 . S
C565 H552 0.929 . S
C565 C557 1.433 . S
C565 N567 1.384 1_455 S
N566 C562 1.427 . S
N566 C563 1.384 . S
N567 C559 1.427 . S
N567 C565 1.384 1_655 S
H568 C574 0.930 . S
H569 C578 0.930 . S
H570 C583 0.929 . S
H571 C581 0.929 . S
H572 C576 0.929 . S
H573 C582 0.929 . S
C574 H568 0.930 . S
C574 C575 1.367 . S
C574 C582 1.378 1_545 S
C575 C574 1.367 . S
C575 C583 1.433 . S
C576 H572 0.929 . S
C576 C578 1.378 . S
C576 C580 1.350 . S
C577 C580 1.463 . S
C577 C582 1.350 . S
C577 N585 1.427 . S
C578 H569 0.930 . S
C578 C576 1.378 . S
C578 C579 1.367 . S
C579 C578 1.367 . S
C579 C581 1.433 . S
C580 C576 1.350 . S
C580 C577 1.463 . S
C580 N584 1.427 . S
C581 H571 0.929 . S
C581 C579 1.433 . S
C581 N584 1.384 . S
C582 H573 0.929 . S
C582 C574 1.378 1_565 S
C582 C577 1.350 . S
C583 H570 0.929 . S
C583 C575 1.433 . S
C583 N585 1.384 1_545 S
N584 C580 1.427 . S
N584 C581 1.384 . S
N585 C577 1.427 . S
N585 C583 1.384 1_565 S
H586 C592 0.930 . S
H587 C596 0.930 . S
H588 C601 0.929 . S
H589 C599 0.929 . S
H590 C594 0.929 . S
H591 C600 0.929 . S
C592 H586 0.930 . S
C592 C593 1.367 . S
C592 C600 1.378 . S
C593 C592 1.367 . S
C593 C601 1.433 . S
C594 H590 0.929 . S
C594 C596 1.378 1_655 S
C594 C598 1.350 . S
C595 C598 1.463 . S
C595 C600 1.350 . S
C595 N603 1.427 . S
C596 H587 0.930 . S
C596 C594 1.378 1_455 S
C596 C597 1.367 . S
C597 C596 1.367 . S
C597 C599 1.433 . S
C598 C594 1.350 . S
C598 C595 1.463 . S
C598 N602 1.427 . S
C599 H589 0.929 . S
C599 C597 1.433 . S
C599 N602 1.384 1_455 S
C600 H591 0.929 . S
C600 C592 1.378 . S
C600 C595 1.350 . S
C601 H588 0.929 . S
C601 C593 1.433 . S
C601 N603 1.384 . S
N602 C598 1.427 . S
N602 C599 1.384 1_655 S
N603 C595 1.427 . S
N603 C601 1.384 . S
H604 C610 0.930 . S
H605 C614 0.930 . S
H606 C619 0.929 . S
H607 C617 0.929 . S
H608 C612 0.929 . S
H609 C618 0.929 . S
C610 H604 0.930 . S
C610 C611 1.367 . S
C610 C618 1.378 . S
C611 C610 1.367 . S
C611 C619 1.433 . S
C612 H608 0.929 . S
C612 C614 1.378 1_545 S
C612 C616 1.350 . S
C613 C616 1.463 . S
C613 C618 1.350 . S
C613 N621 1.427 . S
C614 H605 0.930 . S
C614 C612 1.378 1_565 S
C614 C615 1.367 . S
C615 C614 1.367 . S
C615 C617 1.433 . S
C616 C612 1.350 . S
C616 C613 1.463 . S
C616 N620 1.427 . S
C617 H607 0.929 . S
C617 C615 1.433 . S
C617 N620 1.384 1_565 S
C618 H609 0.929 . S
C618 C610 1.378 . S
C618 C613 1.350 . S
C619 H606 0.929 . S
C619 C611 1.433 . S
C619 N621 1.384 . S
N620 C616 1.427 . S
N620 C617 1.384 1_545 S
N621 C613 1.427 . S
N621 C619 1.384 . S
H622 C628 0.930 . S
H623 C632 0.930 . S
H624 C637 0.929 . S
H625 C635 0.929 . S
H626 C630 0.929 . S
H627 C636 0.929 . S
C628 H622 0.930 . S
C628 C629 1.367 . S
C628 C636 1.378 . S
C629 C628 1.367 . S
C629 C637 1.433 . S
C630 H626 0.929 . S
C630 C632 1.378 1_455 S
C630 C634 1.350 . S
C631 C634 1.463 . S
C631 C636 1.350 . S
C631 N639 1.427 . S
C632 H623 0.930 . S
C632 C630 1.378 1_655 S
C632 C633 1.367 . S
C633 C632 1.367 . S
C633 C635 1.433 . S
C634 C630 1.350 . S
C634 C631 1.463 . S
C634 N638 1.427 . S
C635 H625 0.929 . S
C635 C633 1.433 . S
C635 N638 1.384 1_655 S
C636 H627 0.929 . S
C636 C628 1.378 . S
C636 C631 1.350 . S
C637 H624 0.929 . S
C637 C629 1.433 . S
C637 N639 1.384 . S
N638 C634 1.427 . S
N638 C635 1.384 1_455 S
N639 C631 1.427 . S
N639 C637 1.384 . S
H640 C646 0.930 . S
H641 C650 0.930 . S
H642 C655 0.929 . S
H643 C653 0.929 . S
H644 C648 0.929 . S
H645 C654 0.929 . S
C646 H640 0.930 . S
C646 C647 1.367 . S
C646 C654 1.378 . S
C647 C646 1.367 . S
C647 C655 1.433 . S
C648 H644 0.929 . S
C648 C650 1.378 . S
C648 C652 1.350 . S
C649 C652 1.463 . S
C649 C654 1.350 . S
C649 N657 1.427 . S
C650 H641 0.930 . S
C650 C648 1.378 . S
C650 C651 1.367 . S
C651 C650 1.367 . S
C651 C653 1.433 . S
C652 C648 1.350 . S
C652 C649 1.463 . S
C652 N656 1.427 . S
C653 H643 0.929 . S
C653 C651 1.433 . S
C653 N656 1.384 . S
C654 H645 0.929 . S
C654 C646 1.378 . S
C654 C649 1.350 . S
C655 H642 0.929 . S
C655 C647 1.433 . S
C655 N657 1.384 . S
N656 C652 1.427 . S
N656 C653 1.384 . S
N657 C649 1.427 . S
N657 C655 1.384 . S
H658 C664 0.930 . S
H659 C668 0.930 . S
H660 C673 0.929 . S
H661 C671 0.929 . S
H662 C666 0.929 . S
H663 C672 0.929 . S
C664 H658 0.930 . S
C664 C665 1.367 . S
C664 C672 1.378 . S
C665 C664 1.367 . S
C665 C673 1.433 . S
C666 H662 0.929 . S
C666 C668 1.378 . S
C666 C670 1.350 . S
C667 C670 1.463 . S
C667 C672 1.350 . S
C667 N675 1.427 . S
C668 H659 0.930 . S
C668 C666 1.378 . S
C668 C669 1.367 . S
C669 C668 1.367 . S
C669 C671 1.433 . S
C670 C666 1.350 . S
C670 C667 1.463 . S
C670 N674 1.427 . S
C671 H661 0.929 . S
C671 C669 1.433 . S
C671 N674 1.384 . S
C672 H663 0.929 . S
C672 C664 1.378 . S
C672 C667 1.350 . S
C673 H660 0.929 . S
C673 C665 1.433 . S
C673 N675 1.384 . S
N674 C670 1.427 . S
N674 C671 1.384 . S
N675 C667 1.427 . S
N675 C673 1.384 . S
H676 C682 0.930 . S
H677 C686 0.930 . S
H678 C691 0.929 . S
H679 C689 0.929 . S
H680 C684 0.929 . S
H681 C690 0.929 . S
C682 H676 0.930 . S
C682 C683 1.367 . S
C682 C690 1.378 . S
C683 C682 1.367 . S
C683 C691 1.433 . S
C684 H680 0.929 . S
C684 C686 1.378 . S
C684 C688 1.350 . S
C685 C688 1.463 . S
C685 C690 1.350 . S
C685 N693 1.427 . S
C686 H677 0.930 . S
C686 C684 1.378 . S
C686 C687 1.367 . S
C687 C686 1.367 . S
C687 C689 1.433 . S
C688 C684 1.350 . S
C688 C685 1.463 . S
C688 N692 1.427 . S
C689 H679 0.929 . S
C689 C687 1.433 . S
C689 N692 1.384 . S
C690 H681 0.929 . S
C690 C682 1.378 . S
C690 C685 1.350 . S
C691 H678 0.929 . S
C691 C683 1.433 . S
C691 N693 1.384 . S
N692 C688 1.427 . S
N692 C689 1.384 . S
N693 C685 1.427 . S
N693 C691 1.384 . S
H694 C700 0.930 . S
H695 C704 0.930 . S
H696 C709 0.929 . S
H697 C707 0.929 . S
H698 C702 0.929 . S
H699 C708 0.929 . S
C700 H694 0.930 . S
C700 C701 1.367 . S
C700 C708 1.378 . S
C701 C700 1.367 . S
C701 C709 1.433 . S
C702 H698 0.929 . S
C702 C704 1.378 . S
C702 C706 1.350 . S
C703 C706 1.463 . S
C703 C708 1.350 . S
C703 N711 1.427 . S
C704 H695 0.930 . S
C704 C702 1.378 . S
C704 C705 1.367 . S
C705 C704 1.367 . S
C705 C707 1.433 . S
C706 C702 1.350 . S
C706 C703 1.463 . S
C706 N710 1.427 . S
C707 H697 0.929 . S
C707 C705 1.433 . S
C707 N710 1.384 . S
C708 H699 0.929 . S
C708 C700 1.378 . S
C708 C703 1.350 . S
C709 H696 0.929 . S
C709 C701 1.433 . S
C709 N711 1.384 . S
N710 C706 1.427 . S
N710 C707 1.384 . S
N711 C703 1.427 . S
N711 C709 1.384 . S
H712 C718 0.930 . S
H713 C722 0.930 . S
H714 C727 0.929 . S
H715 C725 0.929 . S
H716 C720 0.929 1_545 S
H717 C726 0.929 1_565 S
C718 H712 0.930 . S
C718 C719 1.367 . S
C718 C726 1.378 . S
C719 C718 1.367 . S
C719 C727 1.433 . S
C720 H716 0.929 1_565 S
C720 C722 1.378 . S
C720 C724 1.350 . S
C721 C724 1.463 1_544 S
C721 C726 1.350 . S
C721 N729 1.427 . S
C722 H713 0.930 . S
C722 C720 1.378 . S
C722 C723 1.367 . S
C723 C722 1.367 . S
C723 C725 1.433 . S
C724 C720 1.350 . S
C724 C721 1.463 1_566 S
C724 N728 1.427 . S
C725 H715 0.929 . S
C725 C723 1.433 . S
C725 N728 1.384 . S
C726 H717 0.929 1_545 S
C726 C718 1.378 . S
C726 C721 1.350 . S
C727 H714 0.929 . S
C727 C719 1.433 . S
C727 N729 1.384 . S
N728 C724 1.427 . S
N728 C725 1.384 . S
N729 C721 1.427 . S
N729 C727 1.384 . S
H730 C736 0.930 . S
H731 C740 0.930 . S
H732 C745 0.929 . S
H733 C743 0.929 . S
H734 C738 0.929 . S
H735 C744 0.929 . S
C736 H730 0.930 . S
C736 C737 1.367 . S
C736 C744 1.378 . S
C737 C736 1.367 . S
C737 C745 1.433 . S
C738 H734 0.929 . S
C738 C740 1.378 . S
C738 C742 1.350 . S
C739 C742 1.463 1_654 S
C739 C744 1.350 . S
C739 N747 1.427 . S
C740 H731 0.930 . S
C740 C738 1.378 . S
C740 C741 1.367 . S
C741 C740 1.367 . S
C741 C743 1.433 . S
C742 C738 1.350 . S
C742 C739 1.463 1_456 S
C742 N746 1.427 . S
C743 H733 0.929 . S
C743 C741 1.433 . S
C743 N746 1.384 . S
C744 H735 0.929 . S
C744 C736 1.378 . S
C744 C739 1.350 . S
C745 H732 0.929 . S
C745 C737 1.433 . S
C745 N747 1.384 . S
N746 C742 1.427 . S
N746 C743 1.384 . S
N747 C739 1.427 . S
N747 C745 1.384 . S
H748 C754 0.930 . S
H749 C758 0.930 . S
H750 C763 0.929 . S
H751 C761 0.929 . S
H752 C756 0.929 1_556 S
H753 C762 0.929 1_554 S
C754 H748 0.930 . S
C754 C755 1.367 . S
C754 C762 1.378 . S
C755 C754 1.367 . S
C755 C763 1.433 . S
C756 H752 0.929 1_554 S
C756 C758 1.378 . S
C756 C760 1.350 . S
C757 C760 1.463 1_546 S
C757 C762 1.350 . S
C757 N765 1.427 . S
C758 H749 0.930 . S
C758 C756 1.378 . S
C758 C759 1.367 . S
C759 C758 1.367 . S
C759 C761 1.433 . S
C760 C756 1.350 . S
C760 C757 1.463 1_564 S
C760 N764 1.427 . S
C761 H751 0.929 . S
C761 C759 1.433 . S
C761 N764 1.384 . S
C762 H753 0.929 1_556 S
C762 C754 1.378 . S
C762 C757 1.350 . S
C763 H750 0.929 . S
C763 C755 1.433 . S
C763 N765 1.384 . S
N764 C760 1.427 . S
N764 C761 1.384 . S
N765 C757 1.427 . S
N765 C763 1.384 . S
H766 C772 0.930 . S
H767 C776 0.930 . S
H768 C781 0.929 . S
H769 C779 0.929 . S
H770 C774 0.929 . S
H771 C780 0.929 . S
C772 H766 0.930 . S
C772 C773 1.367 . S
C772 C780 1.378 . S
C773 C772 1.367 . S
C773 C781 1.433 . S
C774 H770 0.929 . S
C774 C776 1.378 . S
C774 C778 1.350 . S
C775 C778 1.463 1_656 S
C775 C780 1.350 . S
C775 N783 1.427 . S
C776 H767 0.930 . S
C776 C774 1.378 . S
C776 C777 1.367 . S
C777 C776 1.367 . S
C777 C779 1.433 . S
C778 C774 1.350 . S
C778 C775 1.463 1_454 S
C778 N782 1.427 . S
C779 H769 0.929 . S
C779 C777 1.433 . S
C779 N782 1.384 . S
C780 H771 0.929 . S
C780 C772 1.378 . S
C780 C775 1.350 . S
C781 H768 0.929 . S
C781 C773 1.433 . S
C781 N783 1.384 . S
N782 C778 1.427 . S
N782 C779 1.384 . S
N783 C775 1.427 . S
N783 C781 1.384 . S
H784 C790 0.930 . S
H785 C794 0.930 . S
H786 C799 0.929 . S
H787 C797 0.929 . S
H788 C792 0.929 . S
H789 C798 0.929 . S
C790 H784 0.930 . S
C790 C791 1.367 . S
C790 C798 1.378 . S
C791 C790 1.367 . S
C791 C799 1.433 . S
C792 H788 0.929 . S
C792 C794 1.378 . S
C792 C796 1.350 . S
C793 C796 1.463 . S
C793 C798 1.350 . S
C793 N801 1.427 . S
C794 H785 0.930 . S
C794 C792 1.378 . S
C794 C795 1.367 1_554 S
C795 C794 1.367 1_556 S
C795 C797 1.433 . S
C796 C792 1.350 . S
C796 C793 1.463 . S
C796 N800 1.427 . S
C797 H787 0.929 . S
C797 C795 1.433 . S
C797 N800 1.384 1_556 S
C798 H789 0.929 . S
C798 C790 1.378 . S
C798 C793 1.350 . S
C799 H786 0.929 . S
C799 C791 1.433 . S
C799 N801 1.384 . S
N800 C796 1.427 . S
N800 C797 1.384 1_554 S
N801 C793 1.427 . S
N801 C799 1.384 . S
H802 C808 0.930 . S
H803 C812 0.930 . S
H804 C817 0.929 1_554 S
H805 C815 0.929 . S
H806 C810 0.929 . S
H807 C816 0.929 . S
C808 H802 0.930 . S
C808 C809 1.367 . S
C808 C816 1.378 1_554 S
C809 C808 1.367 . S
C809 C817 1.433 1_554 S
C810 H806 0.929 . S
C810 C812 1.378 . S
C810 C814 1.350 . S
C811 C814 1.463 . S
C811 C816 1.350 . S
C811 N819 1.427 . S
C812 H803 0.930 . S
C812 C810 1.378 . S
C812 C813 1.367 . S
C813 C812 1.367 . S
C813 C815 1.433 . S
C814 C810 1.350 . S
C814 C811 1.463 . S
C814 N818 1.427 . S
C815 H805 0.929 . S
C815 C813 1.433 . S
C815 N818 1.384 . S
C816 H807 0.929 . S
C816 C808 1.378 1_556 S
C816 C811 1.350 . S
C817 H804 0.929 1_556 S
C817 C809 1.433 1_556 S
C817 N819 1.384 . S
N818 C814 1.427 . S
N818 C815 1.384 . S
N819 C811 1.427 . S
N819 C817 1.384 . S
H820 C826 0.930 . S
H821 C830 0.930 . S
H822 C835 0.929 . S
H823 C833 0.929 . S
H824 C828 0.929 . S
H825 C834 0.929 . S
C826 H820 0.930 . S
C826 C827 1.367 . S
C826 C834 1.378 1_556 S
C827 C826 1.367 . S
C827 C835 1.433 . S
C828 H824 0.929 . S
C828 C830 1.378 . S
C828 C832 1.350 . S
C829 C832 1.463 . S
C829 C834 1.350 . S
C829 N837 1.427 . S
C830 H821 0.930 . S
C830 C828 1.378 . S
C830 C831 1.367 . S
C831 C830 1.367 . S
C831 C833 1.433 . S
C832 C828 1.350 . S
C832 C829 1.463 . S
C832 N836 1.427 . S
C833 H823 0.929 . S
C833 C831 1.433 . S
C833 N836 1.384 . S
C834 H825 0.929 . S
C834 C826 1.378 1_554 S
C834 C829 1.350 . S
C835 H822 0.929 . S
C835 C827 1.433 . S
C835 N837 1.384 1_556 S
N836 C832 1.427 . S
N836 C833 1.384 . S
N837 C829 1.427 . S
N837 C835 1.384 1_554 S
H838 C844 0.930 1_554 S
H839 C848 0.930 . S
H840 C853 0.929 . S
H841 C851 0.929 . S
H842 C846 0.929 . S
H843 C852 0.929 . S
C844 H838 0.930 1_556 S
C844 C845 1.367 1_556 S
C844 C852 1.378 . S
C845 C844 1.367 1_554 S
C845 C853 1.433 . S
C846 H842 0.929 . S
C846 C848 1.378 . S
C846 C850 1.350 . S
C847 C850 1.463 . S
C847 C852 1.350 . S
C847 N855 1.427 . S
C848 H839 0.930 . S
C848 C846 1.378 . S
C848 C849 1.367 . S
C849 C848 1.367 . S
C849 C851 1.433 . S
C850 C846 1.350 . S
C850 C847 1.463 . S
C850 N854 1.427 . S
C851 H841 0.929 . S
C851 C849 1.433 . S
C851 N854 1.384 . S
C852 H843 0.929 . S
C852 C844 1.378 . S
C852 C847 1.350 . S
C853 H840 0.929 . S
C853 C845 1.433 . S
C853 N855 1.384 1_554 S
N854 C850 1.427 . S
N854 C851 1.384 . S
N855 C847 1.427 . S
N855 C853 1.384 1_556 S
H856 C862 0.930 . S
H857 C866 0.930 1_554 S
H858 C871 0.929 . S
H859 C869 0.929 . S
H860 C864 0.929 . S
H861 C870 0.929 . S
C862 H856 0.930 . S
C862 C863 1.367 . S
C862 C870 1.378 . S
C863 C862 1.367 . S
C863 C871 1.433 . S
C864 H860 0.929 . S
C864 C866 1.378 . S
C864 C868 1.350 . S
C865 C868 1.463 . S
C865 C870 1.350 . S
C865 N873 1.427 . S
C866 H857 0.930 1_556 S
C866 C864 1.378 . S
C866 C867 1.366 1_556 S
C867 C866 1.366 1_554 S
C867 C869 1.433 . S
C868 C864 1.350 . S
C868 C865 1.463 . S
C868 N872 1.427 . S
C869 H859 0.929 . S
C869 C867 1.433 . S
C869 N872 1.384 1_554 S
C870 H861 0.929 . S
C870 C862 1.378 . S
C870 C865 1.350 . S
C871 H858 0.929 . S
C871 C863 1.433 . S
C871 N873 1.384 . S
N872 C868 1.427 . S
N872 C869 1.384 1_556 S
N873 C865 1.427 . S
N873 C871 1.384 . S
H874 C880 0.930 . S
H875 C884 0.930 . S
H876 C889 0.929 . S
H877 C887 0.929 . S
H878 C882 0.929 . S
H879 C888 0.929 . S
C880 H874 0.930 . S
C880 C881 1.367 . S
C880 C888 1.378 . S
C881 C880 1.367 . S
C881 C889 1.433 . S
C882 H878 0.929 . S
C882 C884 1.378 . S
C882 C886 1.350 . S
C883 C886 1.463 . S
C883 C888 1.350 . S
C883 N891 1.427 . S
C884 H875 0.930 . S
C884 C882 1.378 . S
C884 C885 1.367 1_554 S
C885 C884 1.367 1_556 S
C885 C887 1.433 . S
C886 C882 1.350 . S
C886 C883 1.463 . S
C886 N890 1.427 . S
C887 H877 0.929 . S
C887 C885 1.433 . S
C887 N890 1.384 1_556 S
C888 H879 0.929 . S
C888 C880 1.378 . S
C888 C883 1.350 . S
C889 H876 0.929 . S
C889 C881 1.433 . S
C889 N891 1.384 . S
N890 C886 1.427 . S
N890 C887 1.384 1_554 S
N891 C883 1.427 . S
N891 C889 1.384 . S
H892 C898 0.930 . S
H893 C902 0.930 . S
H894 C907 0.929 . S
H895 C905 0.929 . S
H896 C900 0.929 . S
H897 C906 0.929 . S
C898 H892 0.930 . S
C898 C899 1.367 . S
C898 C906 1.378 . S
C899 C898 1.367 . S
C899 C907 1.433 . S
C900 H896 0.929 . S
C900 C902 1.378 1_556 S
C900 C904 1.350 . S
C901 C904 1.463 . S
C901 C906 1.350 . S
C901 N909 1.427 . S
C902 H893 0.930 . S
C902 C900 1.378 1_554 S
C902 C903 1.367 . S
C903 C902 1.367 . S
C903 C905 1.433 1_554 S
C904 C900 1.350 . S
C904 C901 1.463 . S
C904 N908 1.427 . S
C905 H895 0.929 . S
C905 C903 1.433 1_556 S
C905 N908 1.384 . S
C906 H897 0.929 . S
C906 C898 1.378 . S
C906 C901 1.350 . S
C907 H894 0.929 . S
C907 C899 1.433 . S
C907 N909 1.384 . S
N908 C904 1.427 . S
N908 C905 1.384 . S
N909 C901 1.427 . S
N909 C907 1.384 . S
H910 C916 0.930 1_556 S
H911 C920 0.930 . S
H912 C925 0.929 . S
H913 C923 0.929 . S
H914 C918 0.929 . S
H915 C924 0.929 . S
C916 H910 0.930 1_554 S
C916 C917 1.367 1_554 S
C916 C924 1.378 . S
C917 C916 1.367 1_556 S
C917 C925 1.433 . S
C918 H914 0.929 . S
C918 C920 1.378 . S
C918 C922 1.350 . S
C919 C922 1.463 . S
C919 C924 1.350 . S
C919 N927 1.427 . S
C920 H911 0.930 . S
C920 C918 1.378 . S
C920 C921 1.367 . S
C921 C920 1.367 . S
C921 C923 1.433 . S
C922 C918 1.350 . S
C922 C919 1.463 . S
C922 N926 1.427 . S
C923 H913 0.929 . S
C923 C921 1.433 . S
C923 N926 1.384 . S
C924 H915 0.929 . S
C924 C916 1.378 . S
C924 C919 1.350 . S
C925 H912 0.929 . S
C925 C917 1.433 . S
C925 N927 1.384 1_556 S
N926 C922 1.427 . S
N926 C923 1.384 . S
N927 C919 1.427 . S
N927 C925 1.384 1_554 S
H928 C934 0.930 . S
H929 C938 0.930 . S
H930 C943 0.929 . S
H931 C941 0.929 . S
H932 C936 0.929 . S
H933 C942 0.929 . S
C934 H928 0.930 . S
C934 C935 1.367 . S
C934 C942 1.378 . S
C935 C934 1.367 . S
C935 C943 1.433 . S
C936 H932 0.929 . S
C936 C938 1.378 . S
C936 C940 1.350 . S
C937 C940 1.463 . S
C937 C942 1.350 . S
C937 N945 1.427 . S
C938 H929 0.930 . S
C938 C936 1.378 . S
C938 C939 1.367 . S
C939 C938 1.367 . S
C939 C941 1.433 . S
C940 C936 1.350 . S
C940 C937 1.463 . S
C940 N944 1.427 . S
C941 H931 0.929 . S
C941 C939 1.433 . S
C941 N944 1.384 . S
C942 H933 0.929 . S
C942 C934 1.378 . S
C942 C937 1.350 . S
C943 H930 0.929 . S
C943 C935 1.433 . S
C943 N945 1.384 . S
N944 C940 1.427 . S
N944 C941 1.384 . S
N945 C937 1.427 . S
N945 C943 1.384 . S
H946 C952 0.930 . S
H947 C956 0.930 . S
H948 C961 0.929 . S
H949 C959 0.929 . S
H950 C954 0.929 . S
H951 C960 0.929 . S
C952 H946 0.930 . S
C952 C953 1.367 . S
C952 C960 1.378 . S
C953 C952 1.367 . S
C953 C961 1.433 . S
C954 H950 0.929 . S
C954 C956 1.378 . S
C954 C958 1.350 . S
C955 C958 1.463 . S
C955 C960 1.350 . S
C955 N963 1.427 . S
C956 H947 0.930 . S
C956 C954 1.378 . S
C956 C957 1.367 . S
C957 C956 1.367 . S
C957 C959 1.433 . S
C958 C954 1.350 . S
C958 C955 1.463 . S
C958 N962 1.427 . S
C959 H949 0.929 . S
C959 C957 1.433 . S
C959 N962 1.384 . S
C960 H951 0.929 . S
C960 C952 1.378 . S
C960 C955 1.350 . S
C961 H948 0.929 . S
C961 C953 1.433 . S
C961 N963 1.384 . S
N962 C958 1.427 . S
N962 C959 1.384 . S
N963 C955 1.427 . S
N963 C961 1.384 . S
H964 C970 0.930 . S
H965 C974 0.930 . S
H966 C979 0.929 . S
H967 C977 0.929 . S
H968 C972 0.929 . S
H969 C978 0.929 . S
C970 H964 0.930 . S
C970 C971 1.367 . S
C970 C978 1.378 . S
C971 C970 1.367 . S
C971 C979 1.433 . S
C972 H968 0.929 . S
C972 C974 1.378 . S
C972 C976 1.350 . S
C973 C976 1.463 . S
C973 C978 1.350 . S
C973 N981 1.427 . S
C974 H965 0.930 . S
C974 C972 1.378 . S
C974 C975 1.367 . S
C975 C974 1.367 . S
C975 C977 1.433 . S
C976 C972 1.350 . S
C976 C973 1.463 . S
C976 N980 1.427 . S
C977 H967 0.929 . S
C977 C975 1.433 . S
C977 N980 1.384 . S
C978 H969 0.929 . S
C978 C970 1.378 . S
C978 C973 1.350 . S
C979 H966 0.929 . S
C979 C971 1.433 . S
C979 N981 1.384 . S
N980 C976 1.427 . S
N980 C977 1.384 . S
N981 C973 1.427 . S
N981 C979 1.384 . S
H982 C988 0.930 . S
H983 C992 0.930 . S
H984 C997 0.929 . S
H985 C995 0.929 . S
H986 C990 0.929 . S
H987 C996 0.929 . S
C988 H982 0.930 . S
C988 C989 1.367 . S
C988 C996 1.378 . S
C989 C988 1.367 . S
C989 C997 1.433 . S
C990 H986 0.929 . S
C990 C992 1.378 . S
C990 C994 1.350 . S
C991 C994 1.463 . S
C991 C996 1.350 . S
C991 N999 1.427 . S
C992 H983 0.930 . S
C992 C990 1.378 . S
C992 C993 1.367 . S
C993 C992 1.367 . S
C993 C995 1.433 . S
C994 C990 1.350 . S
C994 C991 1.463 . S
C994 N998 1.427 . S
C995 H985 0.929 . S
C995 C993 1.433 . S
C995 N998 1.384 . S
C996 H987 0.929 . S
C996 C988 1.378 . S
C996 C991 1.350 . S
C997 H984 0.929 . S
C997 C989 1.433 . S
C997 N999 1.384 . S
N998 C994 1.427 . S
N998 C995 1.384 . S
N999 C991 1.427 . S
N999 C997 1.384 . S
H1000 C1006 0.930 . S
H1001 C1010 0.930 . S
H1002 C1015 0.929 . S
H1003 C1013 0.929 . S
H1004 C1008 0.929 . S
H1005 C1014 0.929 . S
C1006 H1000 0.930 . S
C1006 C1007 1.367 . S
C1006 C1014 1.378 . S
C1007 C1006 1.367 . S
C1007 C1015 1.433 . S
C1008 H1004 0.929 . S
C1008 C1010 1.378 . S
C1008 C1012 1.350 . S
C1009 C1012 1.463 . S
C1009 C1014 1.350 . S
C1009 N1017 1.427 . S
C1010 H1001 0.930 . S
C1010 C1008 1.378 . S
C1010 C1011 1.367 . S
C1011 C1010 1.367 . S
C1011 C1013 1.433 . S
C1012 C1008 1.350 . S
C1012 C1009 1.463 . S
C1012 N1016 1.427 . S
C1013 H1003 0.929 . S
C1013 C1011 1.433 . S
C1013 N1016 1.384 . S
C1014 H1005 0.929 . S
C1014 C1006 1.378 . S
C1014 C1009 1.350 . S
C1015 H1002 0.929 . S
C1015 C1007 1.433 . S
C1015 N1017 1.384 . S
N1016 C1012 1.427 . S
N1016 C1013 1.384 . S
N1017 C1009 1.427 . S
N1017 C1015 1.384 . S
H1018 C1024 0.930 . S
H1019 C1028 0.930 . S
H1020 C1033 0.929 . S
H1021 C1031 0.929 . S
H1022 C1026 0.929 . S
H1023 C1032 0.929 . S
C1024 H1018 0.930 . S
C1024 C1025 1.367 . S
C1024 C1032 1.378 . S
C1025 C1024 1.367 . S
C1025 C1033 1.433 . S
C1026 H1022 0.929 . S
C1026 C1028 1.378 . S
C1026 C1030 1.350 . S
C1027 C1030 1.463 . S
C1027 C1032 1.350 . S
C1027 N1035 1.427 . S
C1028 H1019 0.930 . S
C1028 C1026 1.378 . S
C1028 C1029 1.367 . S
C1029 C1028 1.367 . S
C1029 C1031 1.433 . S
C1030 C1026 1.350 . S
C1030 C1027 1.463 . S
C1030 N1034 1.427 . S
C1031 H1021 0.929 . S
C1031 C1029 1.433 . S
C1031 N1034 1.384 . S
C1032 H1023 0.929 . S
C1032 C1024 1.378 . S
C1032 C1027 1.350 . S
C1033 H1020 0.929 . S
C1033 C1025 1.433 . S
C1033 N1035 1.384 . S
N1034 C1030 1.427 . S
N1034 C1031 1.384 . S
N1035 C1027 1.427 . S
N1035 C1033 1.384 . S
H1036 C1042 0.930 . S
H1037 C1046 0.930 . S
H1038 C1051 0.929 . S
H1039 C1049 0.929 . S
H1040 C1044 0.929 . S
H1041 C1050 0.929 . S
C1042 H1036 0.930 . S
C1042 C1043 1.367 . S
C1042 C1050 1.378 . S
C1043 C1042 1.367 . S
C1043 C1051 1.433 . S
C1044 H1040 0.929 . S
C1044 C1046 1.378 . S
C1044 C1048 1.350 . S
C1045 C1048 1.463 . S
C1045 C1050 1.350 . S
C1045 N1053 1.427 . S
C1046 H1037 0.930 . S
C1046 C1044 1.378 . S
C1046 C1047 1.367 . S
C1047 C1046 1.367 . S
C1047 C1049 1.433 . S
C1048 C1044 1.350 . S
C1048 C1045 1.463 . S
C1048 N1052 1.427 . S
C1049 H1039 0.929 . S
C1049 C1047 1.433 . S
C1049 N1052 1.384 . S
C1050 H1041 0.929 . S
C1050 C1042 1.378 . S
C1050 C1045 1.350 . S
C1051 H1038 0.929 . S
C1051 C1043 1.433 . S
C1051 N1053 1.384 . S
N1052 C1048 1.427 . S
N1052 C1049 1.384 . S
N1053 C1045 1.427 . S
N1053 C1051 1.384 . S
H1054 C1060 0.930 . S
H1055 C1064 0.930 . S
H1056 C1069 0.929 . S
H1057 C1067 0.929 . S
H1058 C1062 0.929 . S
H1059 C1068 0.929 . S
C1060 H1054 0.930 . S
C1060 C1061 1.367 . S
C1060 C1068 1.378 . S
C1061 C1060 1.367 . S
C1061 C1069 1.433 . S
C1062 H1058 0.929 . S
C1062 C1064 1.378 . S
C1062 C1066 1.350 . S
C1063 C1066 1.463 . S
C1063 C1068 1.350 . S
C1063 N1071 1.427 . S
C1064 H1055 0.930 . S
C1064 C1062 1.378 . S
C1064 C1065 1.367 . S
C1065 C1064 1.367 . S
C1065 C1067 1.433 . S
C1066 C1062 1.350 . S
C1066 C1063 1.463 . S
C1066 N1070 1.427 . S
C1067 H1057 0.929 . S
C1067 C1065 1.433 . S
C1067 N1070 1.384 . S
C1068 H1059 0.929 . S
C1068 C1060 1.378 . S
C1068 C1063 1.350 . S
C1069 H1056 0.929 . S
C1069 C1061 1.433 . S
C1069 N1071 1.384 . S
N1070 C1066 1.427 . S
N1070 C1067 1.384 . S
N1071 C1063 1.427 . S
N1071 C1069 1.384 . S
H1072 C1078 0.930 . S
H1073 C1082 0.930 . S
H1074 C1087 0.929 . S
H1075 C1085 0.929 . S
H1076 C1080 0.929 . S
H1077 C1086 0.929 . S
C1078 H1072 0.930 . S
C1078 C1079 1.367 . S
C1078 C1086 1.378 . S
C1079 C1078 1.367 . S
C1079 C1087 1.433 . S
C1080 H1076 0.929 . S
C1080 C1082 1.378 . S
C1080 C1084 1.350 . S
C1081 C1084 1.463 . S
C1081 C1086 1.350 . S
C1081 N1089 1.427 . S
C1082 H1073 0.930 . S
C1082 C1080 1.378 . S
C1082 C1083 1.367 . S
C1083 C1082 1.367 . S
C1083 C1085 1.433 . S
C1084 C1080 1.350 . S
C1084 C1081 1.463 . S
C1084 N1088 1.427 . S
C1085 H1075 0.929 . S
C1085 C1083 1.433 . S
C1085 N1088 1.384 . S
C1086 H1077 0.929 . S
C1086 C1078 1.378 . S
C1086 C1081 1.350 . S
C1087 H1074 0.929 . S
C1087 C1079 1.433 . S
C1087 N1089 1.384 . S
N1088 C1084 1.427 . S
N1088 C1085 1.384 . S
N1089 C1081 1.427 . S
N1089 C1087 1.384 . S
H1090 C1096 0.930 . S
H1091 C1100 0.930 . S
H1092 C1105 0.929 . S
H1093 C1103 0.929 . S
H1094 C1098 0.929 . S
H1095 C1104 0.929 . S
C1096 H1090 0.930 . S
C1096 C1097 1.367 . S
C1096 C1104 1.378 . S
C1097 C1096 1.367 . S
C1097 C1105 1.433 . S
C1098 H1094 0.929 . S
C1098 C1100 1.378 . S
C1098 C1102 1.350 . S
C1099 C1102 1.463 . S
C1099 C1104 1.350 . S
C1099 N1107 1.427 . S
C1100 H1091 0.930 . S
C1100 C1098 1.378 . S
C1100 C1101 1.367 . S
C1101 C1100 1.367 . S
C1101 C1103 1.433 . S
C1102 C1098 1.350 . S
C1102 C1099 1.463 . S
C1102 N1106 1.427 . S
C1103 H1093 0.929 . S
C1103 C1101 1.433 . S
C1103 N1106 1.384 . S
C1104 H1095 0.929 . S
C1104 C1096 1.378 . S
C1104 C1099 1.350 . S
C1105 H1092 0.929 . S
C1105 C1097 1.433 . S
C1105 N1107 1.384 . S
N1106 C1102 1.427 . S
N1106 C1103 1.384 . S
N1107 C1099 1.427 . S
N1107 C1105 1.384 . S
H1108 C1114 0.930 . S
H1109 C1118 0.930 . S
H1110 C1123 0.929 . S
H1111 C1121 0.929 . S
H1112 C1116 0.929 . S
H1113 C1122 0.929 . S
C1114 H1108 0.930 . S
C1114 C1115 1.367 . S
C1114 C1122 1.378 . S
C1115 C1114 1.367 . S
C1115 C1123 1.433 . S
C1116 H1112 0.929 . S
C1116 C1118 1.378 . S
C1116 C1120 1.350 . S
C1117 C1120 1.463 . S
C1117 C1122 1.350 . S
C1117 N1125 1.427 . S
C1118 H1109 0.930 . S
C1118 C1116 1.378 . S
C1118 C1119 1.367 . S
C1119 C1118 1.367 . S
C1119 C1121 1.433 . S
C1120 C1116 1.350 . S
C1120 C1117 1.463 . S
C1120 N1124 1.427 . S
C1121 H1111 0.929 . S
C1121 C1119 1.433 . S
C1121 N1124 1.384 . S
C1122 H1113 0.929 . S
C1122 C1114 1.378 . S
C1122 C1117 1.350 . S
C1123 H1110 0.929 . S
C1123 C1115 1.433 . S
C1123 N1125 1.384 . S
N1124 C1120 1.427 . S
N1124 C1121 1.384 . S
N1125 C1117 1.427 . S
N1125 C1123 1.384 . S
H1126 C1132 0.930 . S
H1127 C1136 0.930 . S
H1128 C1141 0.929 . S
H1129 C1139 0.929 . S
H1130 C1134 0.929 . S
H1131 C1140 0.929 . S
C1132 H1126 0.930 . S
C1132 C1133 1.367 . S
C1132 C1140 1.378 . S
C1133 C1132 1.367 . S
C1133 C1141 1.433 . S
C1134 H1130 0.929 . S
C1134 C1136 1.378 . S
C1134 C1138 1.350 . S
C1135 C1138 1.463 . S
C1135 C1140 1.350 . S
C1135 N1143 1.427 . S
C1136 H1127 0.930 . S
C1136 C1134 1.378 . S
C1136 C1137 1.367 . S
C1137 C1136 1.367 . S
C1137 C1139 1.433 . S
C1138 C1134 1.350 . S
C1138 C1135 1.463 . S
C1138 N1142 1.427 . S
C1139 H1129 0.929 . S
C1139 C1137 1.433 . S
C1139 N1142 1.384 . S
C1140 H1131 0.929 . S
C1140 C1132 1.378 . S
C1140 C1135 1.350 . S
C1141 H1128 0.929 . S
C1141 C1133 1.433 . S
C1141 N1143 1.384 . S
N1142 C1138 1.427 . S
N1142 C1139 1.384 . S
N1143 C1135 1.427 . S
N1143 C1141 1.384 . S
H1144 C1150 0.930 . S
H1145 C1154 0.930 . S
H1146 C1159 0.929 . S
H1147 C1157 0.929 . S
H1148 C1152 0.929 . S
H1149 C1158 0.929 . S
C1150 H1144 0.930 . S
C1150 C1151 1.367 . S
C1150 C1158 1.378 . S
C1151 C1150 1.367 . S
C1151 C1159 1.433 . S
C1152 H1148 0.929 . S
C1152 C1154 1.378 . S
C1152 C1156 1.350 . S
C1153 C1156 1.463 . S
C1153 C1158 1.350 . S
C1153 N1161 1.427 . S
C1154 H1145 0.930 . S
C1154 C1152 1.378 . S
C1154 C1155 1.367 . S
C1155 C1154 1.367 . S
C1155 C1157 1.433 . S
C1156 C1152 1.350 . S
C1156 C1153 1.463 . S
C1156 N1160 1.427 . S
C1157 H1147 0.929 . S
C1157 C1155 1.433 . S
C1157 N1160 1.384 . S
C1158 H1149 0.929 . S
C1158 C1150 1.378 . S
C1158 C1153 1.350 . S
C1159 H1146 0.929 . S
C1159 C1151 1.433 . S
C1159 N1161 1.384 . S
N1160 C1156 1.427 . S
N1160 C1157 1.384 . S
N1161 C1153 1.427 . S
N1161 C1159 1.384 . S
H1162 C1168 0.930 . S
H1163 C1172 0.930 . S
H1164 C1177 0.929 . S
H1165 C1175 0.929 . S
H1166 C1170 0.929 . S
H1167 C1176 0.929 . S
C1168 H1162 0.930 . S
C1168 C1169 1.367 . S
C1168 C1176 1.378 . S
C1169 C1168 1.367 . S
C1169 C1177 1.433 . S
C1170 H1166 0.929 . S
C1170 C1172 1.378 . S
C1170 C1174 1.350 . S
C1171 C1174 1.463 . S
C1171 C1176 1.350 . S
C1171 N1179 1.427 . S
C1172 H1163 0.930 . S
C1172 C1170 1.378 . S
C1172 C1173 1.367 . S
C1173 C1172 1.367 . S
C1173 C1175 1.433 . S
C1174 C1170 1.350 . S
C1174 C1171 1.463 . S
C1174 N1178 1.427 . S
C1175 H1165 0.929 . S
C1175 C1173 1.433 . S
C1175 N1178 1.384 . S
C1176 H1167 0.929 . S
C1176 C1168 1.378 . S
C1176 C1171 1.350 . S
C1177 H1164 0.929 . S
C1177 C1169 1.433 . S
C1177 N1179 1.384 . S
N1178 C1174 1.427 . S
N1178 C1175 1.384 . S
N1179 C1171 1.427 . S
N1179 C1177 1.384 . S
H1180 C1186 0.930 . S
H1181 C1190 0.930 . S
H1182 C1195 0.929 . S
H1183 C1193 0.929 . S
H1184 C1188 0.929 . S
H1185 C1194 0.929 . S
C1186 H1180 0.930 . S
C1186 C1187 1.367 . S
C1186 C1194 1.378 . S
C1187 C1186 1.367 . S
C1187 C1195 1.433 . S
C1188 H1184 0.929 . S
C1188 C1190 1.378 . S
C1188 C1192 1.350 . S
C1189 C1192 1.463 . S
C1189 C1194 1.350 . S
C1189 N1197 1.427 . S
C1190 H1181 0.930 . S
C1190 C1188 1.378 . S
C1190 C1191 1.367 . S
C1191 C1190 1.367 . S
C1191 C1193 1.433 . S
C1192 C1188 1.350 . S
C1192 C1189 1.463 . S
C1192 N1196 1.427 . S
C1193 H1183 0.929 . S
C1193 C1191 1.433 . S
C1193 N1196 1.384 . S
C1194 H1185 0.929 . S
C1194 C1186 1.378 . S
C1194 C1189 1.350 . S
C1195 H1182 0.929 . S
C1195 C1187 1.433 . S
C1195 N1197 1.384 . S
N1196 C1192 1.427 . S
N1196 C1193 1.384 . S
N1197 C1189 1.427 . S
N1197 C1195 1.384 . S
H1198 C1204 0.930 . S
H1199 C1208 0.930 . S
H1200 C1213 0.929 . S
H1201 C1211 0.929 . S
H1202 C1206 0.929 . S
H1203 C1212 0.929 . S
C1204 H1198 0.930 . S
C1204 C1205 1.367 . S
C1204 C1212 1.378 . S
C1205 C1204 1.367 . S
C1205 C1213 1.433 . S
C1206 H1202 0.929 . S
C1206 C1208 1.378 . S
C1206 C1210 1.350 . S
C1207 C1210 1.463 . S
C1207 C1212 1.350 . S
C1207 N1215 1.427 . S
C1208 H1199 0.930 . S
C1208 C1206 1.378 . S
C1208 C1209 1.367 . S
C1209 C1208 1.367 . S
C1209 C1211 1.433 . S
C1210 C1206 1.350 . S
C1210 C1207 1.463 . S
C1210 N1214 1.427 . S
C1211 H1201 0.929 . S
C1211 C1209 1.433 . S
C1211 N1214 1.384 . S
C1212 H1203 0.929 . S
C1212 C1204 1.378 . S
C1212 C1207 1.350 . S
C1213 H1200 0.929 . S
C1213 C1205 1.433 . S
C1213 N1215 1.384 . S
N1214 C1210 1.427 . S
N1214 C1211 1.384 . S
N1215 C1207 1.427 . S
N1215 C1213 1.384 . S
C359 C6 1.300 . S
C363 C250 1.322 . S
C377 C31 1.300 . S
C381 C180 1.324 . S
C395 C206 1.329 . S
C399 C50 1.309 . S
C413 C224 1.329 . S
C417 C75 1.308 . S
C431 C95 1.300 . S
C435 C290 1.324 . S
C449 C115 1.313 . S
C453 C316 1.327 . S
C467 C334 1.320 . S
C471 C139 1.305 . S
C485 C272 1.327 . S
C489 C159 1.313 . S
C503 C182 1.313 . S
C507 C74 1.327 . S
C521 C4 1.327 . S
C525 C207 1.302 . S
C539 C30 1.322 . S
C543 C226 1.311 . S
C557 C251 1.301 . S
C561 C48 1.326 . S
C575 C271 1.313 . S
C579 C114 1.327 . S
C593 C140 1.322 . S
C597 C291 1.300 . S
C611 C158 1.321 . S
C615 C315 1.301 . S
C629 C96 1.320 . S
C633 C335 1.303 . S
C647 C93 0.909 . S
C651 C9 0.932 . S
C665 C28 0.911 . S
C669 C117 0.921 . S
C683 C137 0.911 . S
C687 C53 0.923 . S
C701 C161 0.937 . S
C705 C72 0.921 . S
C719 C269 0.916 . S
C723 C185 0.915 . S
C737 C204 0.909 . S
C741 C293 0.934 . S
C755 C229 0.937 . S
C759 C313 0.923 . S
C773 C337 0.938 . S
C777 C248 0.915 . S
C791 C5 1.673 . S
C795 C294 1.658 . S
C809 C312 1.651 . S
C813 C29 1.668 . S
C827 C338 1.651 . S
C831 C49 1.669 . S
C845 C268 1.653 . S
C849 C73 1.671 . S
C863 C97 1.671 . S
C867 C246 1.660 . S
C881 C116 1.673 . S
C885 C184 1.656 . S
C899 C141 1.667 . S
C903 C202 1.652 . S
C917 C228 1.652 . S
C921 C160 1.671 . S
C935 C118 1.651 . S
C939 C181 1.667 . S
C953 C136 1.651 . S
C957 C205 1.670 . S
C971 C225 1.673 . S
C975 C162 1.659 . S
C989 C92 1.652 . S
C993 C249 1.670 . S
C1007 C70 1.658 . S
C1011 C273 1.669 . S
C1025 C292 1.673 . S
C1029 C8 1.658 . S
C1043 C26 1.651 . S
C1047 C317 1.669 . S
C1061 C336 1.667 . S
C1065 C52 1.653 . S
C1079 C163 1.230 . S
C1083 C7 1.216 . S
C1097 C94 1.229 . S
C1101 C27 1.217 . S
C1115 C119 1.214 . S
C1119 C51 1.232 . S
C1133 C138 1.229 . S
C1137 C71 1.217 . S
C1151 C183 1.216 . S
C1155 C339 1.230 . S
C1169 C270 1.218 . S
C1173 C203 1.228 . S
C1187 C295 1.217 . S
C1191 C227 1.229 . S
C1205 C247 1.232 . S
C1209 C314 1.214 . S
