# Generated by pormake.
# Topology tfs, (6)-cn, num edge types: 1
# Building blocks:
#     Node 0, Type 0, BuildingBlock: PAMTOO_clean_sbu_0, # of connection points: 6
#     Node 1, Type 0, BuildingBlock: PAMTOO_clean_sbu_0, # of connection points: 6
#     Node 2, Type 0, BuildingBlock: PAMTOO_clean_sbu_0, # of connection points: 6
#     Node 3, Type 0, BuildingBlock: PAMTOO_clean_sbu_0, # of connection points: 6
#     Node 4, Type 0, BuildingBlock: PAMTOO_clean_sbu_0, # of connection points: 6
#     Node 5, Type 0, BuildingBlock: PAMTOO_clean_sbu_0, # of connection points: 6
#     Edge 6, Type (0, 0), BuildingBlock: KIFKEQ_clean_linker_1, # of connection points: 2
#     Edge 7, Type (0, 0), BuildingBlock: KIFKEQ_clean_linker_1, # of connection points: 2
#     Edge 8, Type (0, 0), BuildingBlock: KIFKEQ_clean_linker_1, # of connection points: 2
#     Edge 9, Type (0, 0), BuildingBlock: KIFKEQ_clean_linker_1, # of connection points: 2
#     Edge 10, Type (0, 0), BuildingBlock: KIFKEQ_clean_linker_1, # of connection points: 2
#     Edge 11, Type (0, 0), BuildingBlock: KIFKEQ_clean_linker_1, # of connection points: 2
#     Edge 12, Type (0, 0), BuildingBlock: KIFKEQ_clean_linker_1, # of connection points: 2
#     Edge 13, Type (0, 0), BuildingBlock: KIFKEQ_clean_linker_1, # of connection points: 2
#     Edge 14, Type (0, 0), BuildingBlock: KIFKEQ_clean_linker_1, # of connection points: 2
#     Edge 15, Type (0, 0), BuildingBlock: KIFKEQ_clean_linker_1, # of connection points: 2
#     Edge 16, Type (0, 0), BuildingBlock: KIFKEQ_clean_linker_1, # of connection points: 2
#     Edge 17, Type (0, 0), BuildingBlock: KIFKEQ_clean_linker_1, # of connection points: 2
#     Edge 18, Type (0, 0), BuildingBlock: KIFKEQ_clean_linker_1, # of connection points: 2
#     Edge 19, Type (0, 0), BuildingBlock: KIFKEQ_clean_linker_1, # of connection points: 2
#     Edge 20, Type (0, 0), BuildingBlock: KIFKEQ_clean_linker_1, # of connection points: 2
#     Edge 21, Type (0, 0), BuildingBlock: KIFKEQ_clean_linker_1, # of connection points: 2
#     Edge 22, Type (0, 0), BuildingBlock: KIFKEQ_clean_linker_1, # of connection points: 2
#     Edge 23, Type (0, 0), BuildingBlock: KIFKEQ_clean_linker_1, # of connection points: 2
# Relax obj value: 0.574
# Max RMSD: 0.443
# Mean RMSD: 0.335
data_MOF--net-tfs--node1-PAMTOO_clean_sbu_0--edge1-KIFKEQ_clean_linker_1
_symmetry_space_group_name_H-M    P1
_symmetry_Int_Tables_number       1
_symmetry_cell_setting            triclinic
loop_
_symmetry_equiv_pos_as_xyz
'x, y, z'
_cell_length_a     53.355569
_cell_length_b     46.423517
_cell_length_c     13.716346
_cell_angle_alpha  100.14433
_cell_angle_beta   98.094415
_cell_angle_gamma 123.71361
loop_
_atom_site_label
_atom_site_type_symbol
_atom_site_fract_x
_atom_site_fract_y
_atom_site_fract_z
_atom_type_partial_charge
Dy0 Dy 0.35612 0.53415 0.7494 0.0
Dy1 Dy 0.36204 0.47395 0.6153 0.0
C2 C 0.3654 0.53694 0.5286 0.0
O3 O 0.30628 0.49142 0.64794 0.0
O4 O 0.309 0.44339 0.59958 0.0
O5 O 0.33574 0.56189 0.788 0.0
O6 O 0.37088 0.56715 0.9076 0.0
O7 O 0.37708 0.48139 0.78284 0.0
O8 O 0.33851 0.48535 0.8017 0.0
O9 O 0.40991 0.52651 0.63836 0.0
O10 O 0.4091 0.56544 0.76545 0.0
O11 O 0.38596 0.44892 0.60854 0.0
O12 O 0.34517 0.42815 0.48185 0.0
C13 C 0.29216 0.4562 0.60771 0.0
O14 O 0.36454 0.55375 0.61383 0.0
O15 O 0.36223 0.50607 0.51254 0.0
C16 C 0.36752 0.61633 0.92407 0.0
C17 C 0.38623 0.68806 -0.0227 0.0
C18 C 0.39752 0.67657 0.90466 0.0
C19 C 0.38818 0.64086 0.87809 0.0
C20 C 0.35756 0.62814 0.00034 0.0
C21 C 0.36683 0.66376 0.02688 0.0
C22 C 0.35309 0.57754 0.88447 0.0
C23 C 0.35787 0.47839 0.8355 0.0
C24 C 0.42433 0.55894 0.70671 0.0
C25 C 0.35604 0.3863 0.51082 0.0
C26 C 0.34539 0.31802 0.47908 0.0
C27 C 0.35958 0.34317 0.57906 0.0
C28 C 0.36479 0.37697 0.59491 0.0
C29 C 0.34068 0.36057 0.41204 0.0
C30 C 0.33532 0.32681 0.39632 0.0
C31 C 0.36616 0.4238 0.52111 0.0
H32 H 0.41258 0.69476 0.8656 0.0
H33 H 0.39589 0.63192 0.81852 0.0
H34 H 0.34134 0.60931 0.03563 0.0
H35 H 0.35721 0.67152 0.08152 0.0
H36 H 0.3675 0.33716 0.64444 0.0
H37 H 0.37675 0.39625 0.67219 0.0
H38 H 0.3341 0.36724 0.3458 0.0
H39 H 0.32491 0.30844 0.31802 0.0
Dy40 Dy 0.79662 0.15398 0.19371 0.0
Dy41 Dy 0.88182 0.19932 0.27559 0.0
C42 C 0.83467 0.14292 0.04217 0.0
O43 O 0.80349 0.11838 0.26703 0.0
O44 O 0.85714 0.1433 0.30644 0.0
O45 O 0.75426 0.13344 0.0738 0.0
O46 O 0.75152 0.12891 0.22684 0.0
O47 O 0.87021 0.22434 0.39701 0.0
O48 O 0.81811 0.1971 0.34521 0.0
O49 O 0.87359 0.23916 0.22796 0.0
O50 O 0.81928 0.20549 0.15281 0.0
O51 O 0.92622 0.22084 0.39078 0.0
O52 O 0.9264 0.22689 0.23715 0.0
C53 C 0.82737 0.11753 0.30284 0.0
O54 O 0.808 0.13066 0.06528 0.0
O55 O 0.86285 0.16848 0.10766 0.0
C56 C 0.70924 0.12603 0.12023 0.0
C57 C 0.65184 0.11965 0.08272 0.0
C58 C 0.6676 0.12333 0.0062 0.0
C59 C 0.69574 0.1263 0.0245 0.0
C60 C 0.69387 0.1232 0.19731 0.0
C61 C 0.6658 0.12021 0.17907 0.0
C62 C 0.73607 0.12299 0.13397 0.0
C63 C 0.8428 0.20591 0.41436 0.0
C64 C 0.84821 0.2355 0.17745 0.0
C65 C 0.97886 0.25377 0.35668 0.0
C66 C 1.04706 0.29448 0.41129 0.0
C67 C 1.03025 0.28308 0.48463 0.0
C68 C 0.99699 0.26323 0.45795 0.0
C69 C 0.99547 0.26486 0.28314 0.0
C70 C 1.0287 0.28465 0.30965 0.0
C71 C 0.94325 0.23376 0.32845 0.0
H72 H 0.65763 0.12261 0.9306 0.0
H73 H 0.70637 0.12759 0.96216 0.0
H74 H 0.70307 0.12226 0.27134 0.0
H75 H 0.6549 0.11806 0.24091 0.0
H76 H 1.0427 0.28915 0.56336 0.0
H77 H 0.98546 0.25547 0.51742 0.0
H78 H 0.98276 0.2585 0.20441 0.0
H79 H 1.03998 0.29289 0.25005 0.0
Dy80 Dy 0.68222 0.8586 0.68374 0.0
Dy81 Dy 0.71121 0.81256 0.60858 0.0
C82 C 0.73136 0.8575 0.84193 0.0
O83 O 0.7151 0.89424 0.60685 0.0
O84 O 0.7413 0.8689 0.57537 0.0
O85 O 0.69347 0.90838 0.77989 0.0
O86 O 0.64478 0.86386 0.69345 0.0
O87 O 0.66923 0.79546 0.4884 0.0
O88 O 0.67058 0.84547 0.51127 0.0
O89 O 0.66599 0.76948 0.64559 0.0
O90 O 0.64783 0.80314 0.69712 0.0
O91 O 0.70995 0.77013 0.50374 0.0
O92 O 0.75126 0.81017 0.63698 0.0
C93 C 0.73788 0.89557 0.57701 0.0
O94 O 0.72411 0.87759 0.81028 0.0
O95 O 0.72252 0.82674 0.77925 0.0
C96 C 0.65491 0.90483 0.85061 0.0
C97 C 0.63484 0.92217 0.01455 0.0
C98 C 0.63151 0.8893 -0.01005 0.0
C99 C 0.64184 0.88078 0.90869 0.0
C100 C 0.65957 0.93825 0.8785 0.0
C101 C 0.64971 0.94693 0.95989 0.0
C102 C 0.66415 0.89642 0.76066 0.0
C103 C 0.66908 0.81914 0.44996 0.0
C104 C 0.64451 0.77216 0.67724 0.0
C105 C 0.7537 0.76473 0.52367 0.0
C106 C 0.78368 0.73189 0.46234 0.0
C107 C 0.76181 0.73117 0.38876 0.0
C108 C 0.74703 0.74718 0.41896 0.0
C109 C 0.77586 0.7661 0.59751 0.0
C110 C 0.79048 0.74976 0.56746 0.0
C111 C 0.73819 0.78221 0.55475 0.0
H112 H 0.61996 0.86981 0.03101 0.0
H113 H 0.63876 0.85514 0.88921 0.0
H114 H 0.66998 0.95724 0.83504 0.0
H115 H 0.65193 0.97209 -0.02428 0.0
H116 H 0.75546 0.7175 0.30729 0.0
H117 H 0.73039 0.74597 0.35988 0.0
H118 H 0.78175 0.7796 0.67888 0.0
H119 H 0.80736 0.7515 0.62688 0.0
Dy120 Dy 0.80773 0.4812 0.06015 0.0
Dy121 Dy 0.88323 0.53467 0.1464 0.0
C122 C 0.84192 0.49437 0.28371 0.0
O123 O 0.8197 0.53721 0.11497 0.0
O124 O 0.86939 0.56868 0.22657 0.0
O125 O 0.76084 0.43506 0.04468 0.0
O126 O 0.76824 0.47258 0.95742 0.0
O127 O 0.86447 0.5468 0.01707 0.0
O128 O 0.83138 0.48753 0.94003 0.0
O129 O 0.87163 0.47884 0.07979 0.0
O130 O 0.81904 0.44188 0.06914 0.0
O131 O 0.92371 0.55838 0.08853 0.0
O132 O 0.92949 0.57119 0.2547 0.0
C133 C 0.84371 0.56611 0.19003 0.0
O134 O 0.82022 0.49467 0.22734 0.0
O135 O 0.86868 0.50592 0.26353 0.0
C136 C 0.72972 0.41018 0.87027 0.0
C137 C 0.6941 0.35181 0.68435 0.0
C138 C 0.7 0.34592 0.77984 0.0
C139 C 0.71761 0.37472 0.87137 0.0
C140 C 0.72466 0.41644 0.77526 0.0
C141 C 0.70769 0.38769 0.68304 0.0
C142 C 0.74858 0.44062 0.96726 0.0
C143 C 0.8452 0.52006 0.93291 0.0
C144 C 0.84581 0.44657 0.07049 0.0
C145 C 0.96002 0.61938 0.19 0.0
C146 C 0.99611 0.6948 0.22147 0.0
C147 C 1.00118 0.67278 0.15522 0.0
C148 C 0.98346 0.63534 0.14059 0.0
C149 C 0.95255 0.64047 0.24608 0.0
C150 C 0.97057 0.67773 0.26273 0.0
C151 C 0.94248 0.58065 0.18087 0.0
H152 H 0.68929 0.31879 0.78594 0.0
H153 H 0.72094 0.36896 0.94335 0.0
H154 H 0.73333 0.44348 0.7721 0.0
H155 H 0.70357 0.39329 0.61146 0.0
H156 H 1.01982 0.68461 0.11875 0.0
H157 H 0.98859 0.61908 0.09322 0.0
H158 H 0.93363 0.62851 0.28149 0.0
H159 H 0.96562 0.69311 0.31457 0.0
Dy160 Dy 0.36948 0.95258 -0.01071 0.0
Dy161 Dy 0.29466 0.88332 0.91394 0.0
C162 C 0.34235 0.89161 0.78223 0.0
O163 O 0.34521 0.9601 0.86006 0.0
O164 O 0.30077 0.93388 0.90771 0.0
O165 O 0.41092 0.99551 0.96039 0.0
O166 O 0.411 0.99304 0.11693 0.0
O167 O 0.31182 0.90216 0.08398 0.0
O168 O 0.34558 0.96148 0.09723 0.0
O169 O 0.31699 0.85709 0.95209 0.0
O170 O 0.36787 0.9083 0.04095 0.0
O171 O 0.25077 0.85801 0.95184 0.0
O172 O 0.25169 0.8378 0.79834 0.0
C173 C 0.31728 0.95234 0.8516 0.0
O174 O 0.36587 0.91137 0.86722 0.0
O175 O 0.31432 0.88356 0.78007 0.0
C176 C 0.45599 1.00722 0.07008 0.0
C177 C 0.50342 0.99737 0.10436 0.0
C178 C 0.48474 0.98636 0.00329 0.0
C179 C 0.46124 0.99125 -0.01378 0.0
C180 C 0.47555 1.01969 0.1706 0.0
C181 C 0.49913 1.01484 0.18767 0.0
C182 C 0.42801 1.00677 0.05563 0.0
C183 C 0.3288 0.93641 0.13848 0.0
C184 C 0.34594 0.87266 0.00808 0.0
C185 C 0.21069 0.84356 0.81177 0.0
C186 C 0.16763 0.85663 0.73123 0.0
C187 C 0.17204 0.85486 0.83281 0.0
C188 C 0.19359 0.84864 0.873 0.0
C189 C 0.20629 0.84551 0.71056 0.0
C190 C 0.18538 0.85245 0.67134 0.0
C191 C 0.23434 0.83849 0.85578 0.0
H192 H 0.4873 0.97245 0.93767 0.0
H193 H 0.44639 0.98109 0.90786 0.0
H194 H 0.47191 1.03217 0.23625 0.0
H195 H 0.51367 1.02422 0.26607 0.0
H196 H 0.15836 0.85747 0.88014 0.0
H197 H 0.19666 0.84741 0.95158 0.0
H198 H 0.21858 0.84109 0.66049 0.0
H199 H 0.18187 0.85245 0.59161 0.0
Dy200 Dy 0.42811 0.15473 0.03427 0.0
Dy201 Dy 0.38497 0.0773 0.06219 0.0
C202 C 0.37552 0.08766 0.84546 0.0
O203 O 0.38708 0.15231 0.05636 0.0
O204 O 0.37382 0.11301 0.14998 0.0
O205 O 0.44289 0.19163 0.94395 0.0
O206 O 0.46569 0.21178 0.10897 0.0
O207 O 0.42922 0.10573 0.18471 0.0
O208 O 0.43777 0.15992 0.2041 0.0
O209 O 0.42553 0.07641 0.0399 0.0
O210 O 0.45138 0.12808 -0.01096 0.0
O211 O 0.36742 1.03475 0.13354 0.0
O212 O 0.33754 1.02864 -0.00642 0.0
C213 C 0.37363 0.13893 0.12508 0.0
O214 O 0.3863 0.12089 0.89418 0.0
O215 O 0.37987 0.0689 0.89595 0.0
C216 C 0.49665 0.23527 -0.00023 0.0
C217 C 0.54161 0.25372 0.89442 0.0
C218 C 0.53074 0.22389 0.93179 0.0
C219 C 0.50827 0.21469 -0.01568 0.0
C220 C 0.51027 0.26755 -0.02618 0.0
C221 C 0.53269 0.27671 0.92043 0.0
C222 C 0.46655 0.21891 0.02134 0.0
C223 C 0.44103 0.13806 0.2439 0.0
C224 C 0.44879 0.09972 0.00721 0.0
C225 C 0.31349 1.00649 0.11951 0.0
C226 C 0.26657 0.9816 0.22063 0.0
C227 C 0.29658 1.01479 0.26974 0.0
C228 C 0.31991 1.02702 0.21984 0.0
C229 C 0.28259 0.9759 0.06576 0.0
C230 C 0.2593 0.96316 0.11641 0.0
C231 C 0.33885 1.01642 0.07125 0.0
H232 H 0.53749 0.20595 0.91261 0.0
H233 H 0.49819 0.18992 0.00524 0.0
H234 H 0.50176 0.28391 -0.0129 0.0
H235 H 0.54145 0.30023 0.89336 0.0
H236 H 0.3031 1.02956 0.35038 0.0
H237 H 0.34335 0.05147 0.26178 0.0
H238 H 0.2767 0.96091 -0.01377 0.0
H239 H 0.23634 0.93767 0.07663 0.0
H240 H 0.32957 0.11542 0.23502 0.0
H241 H 0.40094 0.21052 0.16637 0.0
H242 H 0.31873 0.15343 0.34424 0.0
H243 H 0.39091 0.24764 0.27587 0.0
H244 H 0.39186 0.31204 0.55557 0.0
H245 H 0.39535 0.26248 0.48812 0.0
H246 H 0.30093 0.19964 0.28361 0.0
H247 H 0.29716 0.24917 0.35125 0.0
C248 C 0.34288 0.14421 0.24334 0.0
C249 C 0.3657 0.15986 0.19073 0.0
C250 C 0.33679 0.16584 0.30578 0.0
C251 C 0.35431 0.20343 0.31895 0.0
C252 C 0.37734 0.21884 0.26781 0.0
C253 C 0.38279 0.19737 0.20407 0.0
C254 C 0.37134 0.28715 0.4993 0.0
C255 C 0.34438 0.28476 0.45762 0.0
C256 C 0.37338 0.2588 0.46074 0.0
C257 C 0.3484 0.22738 0.38078 0.0
C258 C 0.32035 0.22345 0.346 0.0
C259 C 0.31838 0.25196 0.38393 0.0
H260 H 0.24958 0.38526 0.47064 0.0
H261 H 0.25235 0.46881 0.67869 0.0
H262 H 0.19172 0.34583 0.42427 0.0
H263 H 0.19512 0.42991 0.63327 0.0
H264 H 0.09203 0.34351 0.6012 0.0
H265 H 0.14911 0.37903 0.64767 0.0
H266 H 0.14316 0.33376 0.33524 0.0
H267 H 0.08581 0.29693 0.28943 0.0
C268 C 0.238 0.39533 0.50685 0.0
C269 C 0.25625 0.43073 0.57828 0.0
C270 C 0.20452 0.37266 0.47968 0.0
C271 C 0.18785 0.38411 0.52437 0.0
C272 C 0.20634 0.41932 0.59702 0.0
C273 C 0.23959 0.44207 0.62271 0.0
C274 C 0.10251 0.34047 0.54189 0.0
C275 C 0.0832 0.31672 0.44062 0.0
C276 C 0.13581 0.36157 0.56864 0.0
C277 C 0.1517 0.36009 0.49571 0.0
C278 C 0.13246 0.33598 0.39482 0.0
C279 C 0.0991 0.31493 0.36791 0.0
H280 H 0.7768 0.07821 0.37386 0.0
H281 H 0.85776 0.08392 0.33092 0.0
H282 H 0.75974 1.02663 0.43676 0.0
H283 H 0.8403 1.03106 0.39564 0.0
H284 H 0.77312 0.90803 0.42981 0.0
H285 H 0.79737 0.96132 0.36431 0.0
H286 H 0.7737 1.01336 0.58622 0.0
H287 H 0.74989 0.96148 0.64916 0.0
C288 C 0.7912 0.06855 0.37749 0.0
C289 C 0.8189 0.08599 0.3461 0.0
C290 C 0.78134 1.03862 0.41488 0.0
C291 C 0.79841 1.02392 0.42275 0.0
C292 C 0.82616 1.04102 0.39079 0.0
C293 C 0.8364 0.07173 0.35424 0.0
C294 C 0.77346 0.93102 0.46536 0.0
C295 C 0.75868 0.92939 0.54435 0.0
C296 C 0.78743 0.96184 0.42762 0.0
C297 C 0.78709 0.99202 0.46754 0.0
C298 C 0.77392 0.99082 0.55013 0.0
C299 C 0.76023 0.9606 0.58717 0.0
H300 H 0.87177 0.61602 0.3867 0.0
H301 H 0.80859 0.58358 0.08934 0.0
H302 H 0.86187 0.66015 0.45694 0.0
H303 H 0.79882 0.62726 0.15838 0.0
H304 H 0.80148 0.7257 0.28419 0.0
H305 H 0.82024 0.69061 0.22271 0.0
H306 H 0.81927 0.66088 0.50364 0.0
H307 H 0.80001 0.69556 0.56487 0.0
C308 C 0.8561 0.61858 0.33596 0.0
C309 C 0.84081 0.59591 0.23242 0.0
C310 C 0.85019 0.64371 0.37641 0.0
C311 C 0.82931 0.64738 0.3139 0.0
C312 C 0.81517 0.62566 0.20932 0.0
C313 C 0.82063 0.60026 0.16964 0.0
C314 C 0.805 0.71156 0.33305 0.0
C315 C 0.79841 0.71319 0.42916 0.0
C316 C 0.81594 0.6914 0.29764 0.0
C317 C 0.82096 0.67223 0.35713 0.0
C318 C 0.81591 0.67529 0.45543 0.0
C319 C 0.80479 0.69534 0.49074 0.0
H320 H 0.16726 0.89446 0.59961 0.0
H321 H 0.10738 0.81558 0.74136 0.0
H322 H 0.12147 0.86964 0.45453 0.0
H323 H 0.0618 0.79217 0.59904 0.0
H324 H 0.05985 0.73326 0.25243 0.0
H325 H 0.09937 0.7918 0.37879 0.0
H326 H 1.02824 0.80557 0.42941 0.0
H327 H 0.98822 0.74816 0.29294 0.0
C328 C 0.14413 0.8734 0.603 0.0
C329 C 0.14096 0.85589 0.67923 0.0
C330 C 0.11797 0.85952 0.52048 0.0
C331 C 0.08848 0.82883 0.51563 0.0
C332 C 0.08442 0.8161 0.60185 0.0
C333 C 0.11063 0.8295 0.68344 0.0
C334 C 1.05241 0.74936 0.28427 0.0
C335 C 1.02037 0.73492 0.26491 0.0
C336 C 0.07529 0.78309 0.3576 0.0
C337 C 0.06656 0.80263 0.41421 0.0
C338 C 1.03531 0.7907 0.38653 0.0
C339 C 1.01247 0.75754 0.30964 0.0
H340 H 0.26997 0.89296 0.69828 0.0
H341 H 0.32634 1.00971 0.79229 0.0
H342 H 0.23867 0.88934 0.54201 0.0
H343 H 0.29672 1.00711 0.6345 0.0
H344 H 0.24845 1.00718 0.37063 0.0
H345 H 0.24893 0.9925 0.53271 0.0
H346 H 0.24599 0.89986 0.38535 0.0
H347 H 0.24318 0.91312 0.22359 0.0
C348 C 0.27524 0.91784 0.68551 0.0
C349 C 0.30006 0.9516 0.75705 0.0
C350 C 0.25754 0.91588 0.59605 0.0
C351 C 0.26471 0.94788 0.57589 0.0
C352 C 0.28975 0.98178 0.64852 0.0
C353 C 0.30726 0.98353 0.73818 0.0
C354 C 0.24587 0.9824 0.37175 0.0
C355 C 0.24772 0.9625 0.28698 0.0
C356 C 0.24677 0.97435 0.46497 0.0
C357 C 0.24972 0.94655 0.4737 0.0
C358 C 0.24459 0.92211 0.38272 0.0
C359 C 0.24291 0.9297 0.28915 0.0
H360 H 0.31454 0.80227 0.89456 0.0
H361 H 0.39903 0.88933 0.1408 0.0
H362 H 0.33218 0.76424 0.89284 0.0
H363 H 0.41658 0.85025 0.13926 0.0
H364 H 0.39892 0.73642 0.15784 0.0
H365 H 0.39413 0.78636 0.17338 0.0
H366 H 0.37905 0.76867 0.84435 0.0
H367 H 0.38287 0.71832 0.82776 0.0
C368 C 0.33669 0.81316 0.94967 0.0
C369 C 0.35536 0.84877 0.01839 0.0
C370 C 0.34695 0.79148 0.94746 0.0
C371 C 0.37592 0.80471 0.01463 0.0
C372 C 0.39424 0.83976 0.08627 0.0
C373 C 0.38416 0.8619 0.0874 0.0
C374 C 0.39524 0.74374 0.08928 0.0
C375 C 0.3909 0.72321 -0.00853 0.0
C376 C 0.39281 0.77245 0.09844 0.0
C377 C 0.38593 0.78085 0.00989 0.0
C378 C 0.38416 0.76235 0.91354 0.0
C379 C 0.38662 0.73375 0.90433 0.0
H380 H 0.4792 0.08938 0.15665 0.0
H381 H 0.48119 0.10926 0.86197 0.0
H382 H 0.52741 0.09429 0.17113 0.0
H383 H 0.52856 0.11169 0.87175 0.0
H384 H 0.63144 0.15024 0.96766 0.0
H385 H 0.58209 0.1435 0.94294 0.0
H386 H 0.55182 0.06937 0.12464 0.0
H387 H 0.60084 0.0763 0.14965 0.0
C388 C 0.48944 0.09354 0.093 0.0
C389 C 0.47581 0.09786 0.00688 0.0
C390 C 0.51726 0.0963 0.10095 0.0
C391 C 0.53223 0.10281 0.02197 0.0
C392 C 0.51829 0.10693 0.93505 0.0
C393 C 0.49077 0.10504 0.92844 0.0
C394 C 0.61413 0.13223 0.0017 0.0
C395 C 0.62075 0.11435 0.06235 0.0
C396 C 0.58553 0.12821 -0.01282 0.0
C397 C 0.5624 0.10598 0.03227 0.0
C398 C 0.56883 0.08737 0.09022 0.0
C399 C 0.59733 0.09146 0.10497 0.0
H400 H 0.62209 0.69884 0.653 0.0
H401 H 0.59577 0.77076 0.72729 0.0
H402 H 0.57183 0.64874 0.66792 0.0
H403 H 0.54598 0.72155 0.73728 0.0
H404 H 0.45965 0.63352 0.80597 0.0
H405 H 0.5121 0.68245 0.80675 0.0
H406 H 0.51887 0.60389 0.61576 0.0
H407 H 0.46669 0.55503 0.61851 0.0
C408 C 0.6058 0.70424 0.67234 0.0
C409 C 0.61396 0.73973 0.68871 0.0
C410 C 0.57638 0.67508 0.68028 0.0
C411 C 0.55351 0.67985 0.70423 0.0
C412 C 0.5621 0.71553 0.72095 0.0
C413 C 0.59131 0.74441 0.71406 0.0
C414 C 0.47236 0.62647 0.76491 0.0
C415 C 0.45816 0.58961 0.71236 0.0
C416 C 0.50286 0.65502 0.76393 0.0
C417 C 0.52095 0.64843 0.70988 0.0
C418 C 0.50681 0.61128 0.65921 0.0
C419 C 0.47629 0.58275 0.66026 0.0
H420 H 0.89625 0.44305 0.07605 0.0
H421 H 0.79844 0.37839 0.06919 0.0
H422 H 0.89861 0.39283 0.09278 0.0
H423 H 0.80099 0.32926 0.08936 0.0
H424 H 0.80279 0.23329 0.0478 0.0
H425 H 0.80344 0.28275 0.01208 0.0
H426 H 0.89954 0.35961 0.20703 0.0
H427 H 0.89914 0.3092 0.2413 0.0
C428 C 0.87518 0.41814 0.07747 0.0
C429 C 0.84713 0.41505 0.07088 0.0
C430 C 0.87661 0.38933 0.08818 0.0
C431 C 0.85005 0.35653 0.09284 0.0
C432 C 0.82194 0.35346 0.08435 0.0
C433 C 0.82048 0.38202 0.07317 0.0
C434 C 0.82432 0.26062 0.08318 0.0
C435 C 0.85087 0.26687 0.14894 0.0
C436 C 0.82456 0.28933 0.06299 0.0
C437 C 0.8513 0.32575 0.108 0.0
C438 C 0.87842 0.33209 0.17043 0.0
C439 C 0.87821 0.30308 0.19051 0.0
H440 H 0.54349 1.00375 -0.0077 0.0
H441 H 0.51413 0.97126 0.25613 0.0
H442 H 0.57654 0.98295 0.00986 0.0
H443 H 0.54787 0.951 0.27399 0.0
H444 H 0.65835 0.98278 0.17453 0.0
H445 H 0.62688 1.00222 0.22919 0.0
H446 H 0.54179 0.89618 0.05366 0.0
H447 H 0.57299 0.87664 -0.00159 0.0
C448 C 0.54435 0.99252 0.05451 0.0
C449 C 0.52618 0.98892 0.12253 0.0
C450 C 0.56334 0.98092 0.06485 0.0
C451 C 0.56446 0.96565 0.14333 0.0
C452 C 0.54721 0.96294 0.21346 0.0
C453 C 0.5282 0.97469 0.20339 0.0
C454 C 0.63297 0.96307 0.15239 0.0
C455 C 0.61798 0.92839 0.08162 0.0
C456 C 0.6151 0.97418 0.1836 0.0
C457 C 0.58223 0.95054 0.14512 0.0
C458 C 0.56721 0.91448 0.08518 0.0
C459 C 0.58506 0.90333 0.054 0.0
H460 H 0.67617 0.28123 0.61358 0.0
H461 H 0.64932 0.34955 0.54873 0.0
H462 H 0.62249 0.23512 0.6092 0.0
H463 H 0.59643 0.30424 0.54419 0.0
H464 H 0.524 0.25477 0.70145 0.0
H465 H 0.54925 0.25629 0.56509 0.0
H466 H 0.62115 0.26175 0.77737 0.0
H467 H 0.59503 0.25869 0.91059 0.0
C468 C 0.65845 0.28548 0.59112 0.0
C469 C 0.66742 0.32059 0.59583 0.0
C470 C 0.62762 0.25902 0.58909 0.0
C471 C 0.60637 0.26796 0.58741 0.0
C472 C 0.61288 0.29747 0.55266 0.0
C473 C 0.64368 0.32381 0.5552 0.0
C474 C 0.54518 0.25615 0.71784 0.0
C475 C 0.55809 0.25717 0.81593 0.0
C476 C 0.55928 0.25641 0.63964 0.0
C477 C 0.58677 0.25827 0.65904 0.0
C478 C 0.5993 0.25883 0.75773 0.0
C479 C 0.58492 0.25801 0.83514 0.0
H480 H 0.32936 0.54107 0.3796 0.0
H481 H 0.42217 0.57005 0.49832 0.0
H482 H 0.33347 0.53058 0.20395 0.0
H483 H 0.42529 0.55604 0.32435 0.0
H484 H 0.41565 0.52301 -0.02465 0.0
H485 H 0.42426 0.55378 0.15321 0.0
H486 H 0.32542 0.47551 0.12178 0.0
H487 H 0.3168 0.44647 0.94266 0.0
C488 C 0.35127 0.54705 0.36824 0.0
C489 C 0.37493 0.5548 0.45038 0.0
C490 C 0.35334 0.53999 0.2679 0.0
C491 C 0.37864 0.53972 0.25054 0.0
C492 C 0.40505 0.55491 0.33462 0.0
C493 C 0.40341 0.56333 0.43473 0.0
C494 C 0.39612 0.51168 0.00826 0.0
C495 C 0.36549 0.48314 0.94582 0.0
C496 C 0.4009 0.52966 0.10944 0.0
C497 C 0.37511 0.51853 0.14907 0.0
C498 C 0.34541 0.48623 0.09111 0.0
C499 C 0.34059 0.46878 -0.0102 0.0
H500 H 0.88392 0.16559 0.96061 0.0
H501 H 0.78217 0.0963 0.87149 0.0
H502 H 0.88289 0.16869 0.78817 0.0
H503 H 0.78091 0.09668 0.69355 0.0
H504 H 0.79208 0.16937 0.48626 0.0
H505 H 0.78685 0.13849 0.61578 0.0
H506 H 0.8763 0.15764 0.61949 0.0
H507 H 0.88305 0.19242 0.50092 0.0
C508 C 0.86115 0.14978 0.90308 0.0
C509 C 0.83317 0.13235 0.93162 0.0
C510 C 0.86048 0.15123 0.80231 0.0
C511 C 0.8317 0.13443 0.72636 0.0
C512 C 0.80359 0.11176 0.751 0.0
C513 C 0.80428 0.11108 0.85306 0.0
C514 C 0.81061 0.167 0.51542 0.0
C515 C 0.83824 0.18403 0.48523 0.0
C516 C 0.80743 0.14863 0.58864 0.0
C517 C 0.8315 0.14599 0.63124 0.0
C518 C 0.85783 0.16033 0.59307 0.0
C519 C 0.86166 0.18018 0.52402 0.0
H520 H 0.70536 0.80028 0.38624 0.0
H521 H 0.66894 0.86067 0.33156 0.0
H522 H 0.73924 0.82479 0.27973 0.0
H523 H 0.7 0.88194 0.21213 0.0
H524 H 0.74994 0.9173 -0.00146 0.0
H525 H 0.74697 0.91683 0.17368 0.0
H526 H 0.73521 0.81462 0.11113 0.0
H527 H 0.74031 0.81657 0.941 0.0
C528 C 0.70388 0.81801 0.34907 0.0
C529 C 0.68414 0.82814 0.36686 0.0
C530 C 0.72349 0.83225 0.28744 0.0
C531 C 0.72244 0.85525 0.2359 0.0
C532 C 0.70221 0.865 0.25216 0.0
C533 C 0.68362 0.85199 0.31822 0.0
C534 C 0.74796 0.89551 0.02404 0.0
C535 C 0.74313 0.8656 0.9542 0.0
C536 C 0.74591 0.89504 0.12408 0.0
C537 C 0.73835 0.86431 0.15383 0.0
C538 C 0.73995 0.83828 0.09067 0.0
C539 C 0.74265 0.83917 -0.00824 0.0
H540 H 0.78774 0.47079 0.79582 0.0
H541 H 0.87007 0.58199 0.87502 0.0
H542 H 0.77287 0.47012 0.62341 0.0
H543 H 0.85553 0.5808 0.69657 0.0
H544 H 0.88682 0.532 0.46976 0.0
H545 H 0.87459 0.54935 0.6227 0.0
H546 H 0.77478 0.46821 0.46342 0.0
H547 H 0.78792 0.44742 0.31943 0.0
C548 C 0.80202 0.49569 0.77709 0.0
C549 C 0.83133 0.52536 0.84523 0.0
C550 C 0.7934 0.49556 0.67732 0.0
C551 C 0.81592 0.52359 0.64451 0.0
C552 C 0.83963 0.55737 0.71958 0.0
C553 C 0.84828 0.55792 0.82094 0.0
C554 C 0.8625 0.51665 0.47092 0.0
C555 C 0.83809 0.48969 0.38284 0.0
C556 C 0.85519 0.52778 0.55602 0.0
C557 C 0.82344 0.51224 0.55261 0.0
C558 C 0.79943 0.48174 0.46855 0.0
C559 C 0.80694 0.46922 0.38698 0.0
H560 H 0.38714 0.96706 0.25815 0.0
H561 H 0.29146 0.91924 0.2629 0.0
H562 H 0.39695 0.95022 0.40975 0.0
H563 H 0.30151 0.90448 0.41866 0.0
H564 H 0.39785 0.93955 0.74891 0.0
H565 H 0.40017 0.95621 0.59105 0.0
H566 H 0.30722 0.85642 0.43332 0.0
H567 H 0.304 0.84098 0.59415 0.0
C568 C 0.3688 0.9549 0.29553 0.0
C569 C 0.33848 0.9441 0.24956 0.0
C570 C 0.37423 0.94465 0.38103 0.0
C571 C 0.34945 0.92429 0.42198 0.0
C572 C 0.32053 0.91844 0.38479 0.0
C573 C 0.31498 0.92792 0.29812 0.0
C574 C 0.37843 0.92033 0.67949 0.0
C575 C 0.35 0.88997 0.68418 0.0
C576 C 0.37976 0.93005 0.58904 0.0
C577 C 0.35302 0.90869 0.50266 0.0
C578 C 0.32742 0.87432 0.50147 0.0
C579 C 0.32574 0.86513 0.59264 0.0
H580 H 0.34749 0.10246 0.69937 0.0
H581 H 0.39248 0.04994 0.73904 0.0
H582 H 0.36232 0.11091 0.54153 0.0
H583 H 0.41132 0.06279 0.59422 0.0
H584 H 0.456 0.10394 0.35169 0.0
H585 H 0.42756 0.07643 0.46682 0.0
H586 H 0.40434 0.15308 0.51012 0.0
H587 H 0.42863 0.176 0.37949 0.0
C588 C 0.36028 0.09241 0.67325 0.0
C589 C 0.37072 0.07781 0.73397 0.0
C590 C 0.36978 0.09829 0.58478 0.0
C591 C 0.39147 0.0918 0.56102 0.0
C592 C 0.39635 0.07052 0.61107 0.0
C593 C 0.38527 0.06276 0.6954 0.0
C594 C 0.44535 0.1154 0.38803 0.0
C595 C 0.44302 0.14061 0.3528 0.0
C596 C 0.42843 0.09921 0.45423 0.0
C597 C 0.4113 0.11045 0.4947 0.0
C598 C 0.4147 0.14114 0.47487 0.0
C599 C 0.43008 0.1558 0.40335 0.0
loop_
_geom_bond_atom_site_label_1
_geom_bond_atom_site_label_2
_geom_bond_distance
_geom_bond_site_symmetry_2
_ccdc_geom_bond_type
Dy0 O3 2.307 . S
Dy0 O5 2.395 . S
Dy0 O6 2.379 1_556 S
Dy0 O8 2.339 1_556 S
Dy0 O10 2.298 . S
Dy0 O14 2.275 . S
Dy0 C22 2.738 . S
Dy1 O4 2.298 . S
Dy1 O7 2.275 . S
Dy1 O9 2.307 . S
Dy1 O11 2.395 . S
Dy1 O12 2.379 . S
Dy1 O15 2.339 . S
Dy1 C31 2.738 . S
C2 O14 1.254 . S
C2 O15 1.257 . S
O3 Dy0 2.307 . S
O3 C13 1.266 . S
O4 Dy1 2.298 . S
O4 C13 1.236 . S
O5 Dy0 2.395 . S
O5 C22 1.255 . S
O6 Dy0 2.379 1_554 S
O6 C22 1.249 1_554 S
O7 Dy1 2.275 . S
O7 C23 1.254 1_556 S
O8 Dy0 2.339 1_554 S
O8 C23 1.257 . S
O9 Dy1 2.307 . S
O9 C24 1.266 . S
O10 Dy0 2.298 . S
O10 C24 1.236 . S
O11 Dy1 2.395 . S
O11 C31 1.255 . S
O12 Dy1 2.379 . S
O12 C31 1.249 . S
C13 O3 1.266 . S
C13 O4 1.236 . S
O14 Dy0 2.275 . S
O14 C2 1.254 . S
O15 Dy1 2.339 . S
O15 C2 1.257 . S
C16 C19 1.344 . S
C16 C20 1.328 1_556 S
C16 C22 1.516 . S
C17 C18 1.304 . S
C17 C21 1.323 1_556 S
C18 C17 1.304 . S
C18 C19 1.371 . S
C18 H32 0.930 . S
C19 C16 1.344 . S
C19 C18 1.371 . S
C19 H33 0.931 . S
C20 C16 1.328 1_554 S
C20 C21 1.433 . S
C20 H34 0.931 . S
C21 C17 1.323 1_554 S
C21 C20 1.433 . S
C21 H35 0.933 . S
C22 Dy0 2.738 . S
C22 O5 1.255 . S
C22 O6 1.249 1_556 S
C22 C16 1.516 . S
C23 O7 1.254 1_554 S
C23 O8 1.257 . S
C24 O9 1.266 . S
C24 O10 1.236 . S
C25 C28 1.344 . S
C25 C29 1.328 . S
C25 C31 1.516 . S
C26 C27 1.304 . S
C26 C30 1.323 . S
C27 C26 1.304 . S
C27 C28 1.371 . S
C27 H36 0.930 . S
C28 C25 1.344 . S
C28 C27 1.371 . S
C28 H37 0.931 . S
C29 C25 1.328 . S
C29 C30 1.433 . S
C29 H38 0.931 . S
C30 C26 1.323 . S
C30 C29 1.433 . S
C30 H39 0.933 . S
C31 Dy1 2.738 . S
C31 O11 1.255 . S
C31 O12 1.249 . S
C31 C25 1.516 . S
H32 C18 0.930 . S
H33 C19 0.931 . S
H34 C20 0.931 . S
H35 C21 0.933 . S
H36 C27 0.930 . S
H37 C28 0.931 . S
H38 C29 0.931 . S
H39 C30 0.933 . S
Dy40 O43 2.307 . S
Dy40 O45 2.395 1_554 S
Dy40 O46 2.379 . S
Dy40 O48 2.339 . S
Dy40 O50 2.298 . S
Dy40 O54 2.275 1_554 S
Dy40 C62 2.738 1_554 S
Dy41 O44 2.298 . S
Dy41 O47 2.275 . S
Dy41 O49 2.307 . S
Dy41 O51 2.395 . S
Dy41 O52 2.379 . S
Dy41 O55 2.339 1_554 S
Dy41 C71 2.738 . S
C42 O54 1.254 . S
C42 O55 1.257 . S
O43 Dy40 2.307 . S
O43 C53 1.266 . S
O44 Dy41 2.298 . S
O44 C53 1.236 . S
O45 Dy40 2.395 1_556 S
O45 C62 1.255 . S
O46 Dy40 2.379 . S
O46 C62 1.249 1_554 S
O47 Dy41 2.275 . S
O47 C63 1.254 . S
O48 Dy40 2.339 . S
O48 C63 1.257 . S
O49 Dy41 2.307 . S
O49 C64 1.266 . S
O50 Dy40 2.298 . S
O50 C64 1.236 . S
O51 Dy41 2.395 . S
O51 C71 1.255 . S
O52 Dy41 2.379 . S
O52 C71 1.249 . S
C53 O43 1.266 . S
C53 O44 1.236 . S
O54 Dy40 2.275 1_556 S
O54 C42 1.254 . S
O55 Dy41 2.339 1_556 S
O55 C42 1.257 . S
C56 C59 1.344 . S
C56 C60 1.328 1_556 S
C56 C62 1.516 . S
C57 C58 1.304 . S
C57 C61 1.323 . S
C58 C57 1.304 . S
C58 C59 1.371 . S
C58 H72 0.930 . S
C59 C56 1.344 . S
C59 C58 1.371 . S
C59 H73 0.931 . S
C60 C56 1.328 1_554 S
C60 C61 1.433 1_554 S
C60 H74 0.931 . S
C61 C57 1.323 . S
C61 C60 1.433 1_556 S
C61 H75 0.933 . S
C62 Dy40 2.738 1_556 S
C62 O45 1.255 . S
C62 O46 1.249 1_556 S
C62 C56 1.516 . S
C63 O47 1.254 . S
C63 O48 1.257 . S
C64 O49 1.266 . S
C64 O50 1.236 . S
C65 C68 1.344 . S
C65 C69 1.328 . S
C65 C71 1.516 . S
C66 C67 1.304 . S
C66 C70 1.323 . S
C67 C66 1.304 . S
C67 C68 1.371 . S
C67 H76 0.930 . S
C68 C65 1.344 . S
C68 C67 1.371 . S
C68 H77 0.931 . S
C69 C65 1.328 . S
C69 C70 1.433 . S
C69 H78 0.931 . S
C70 C66 1.323 . S
C70 C69 1.433 . S
C70 H79 0.933 . S
C71 Dy41 2.738 . S
C71 O51 1.255 . S
C71 O52 1.249 . S
C71 C65 1.516 . S
H72 C58 0.930 . S
H73 C59 0.931 . S
H74 C60 0.931 . S
H75 C61 0.933 . S
H76 C67 0.930 . S
H77 C68 0.931 . S
H78 C69 0.931 . S
H79 C70 0.933 . S
Dy80 O83 2.307 . S
Dy80 O85 2.395 1_556 S
Dy80 O86 2.379 . S
Dy80 O88 2.339 . S
Dy80 O90 2.298 . S
Dy80 O94 2.275 1_556 S
Dy80 C102 2.738 . S
Dy81 O84 2.298 . S
Dy81 O87 2.275 . S
Dy81 O89 2.307 . S
Dy81 O91 2.395 . S
Dy81 O92 2.379 . S
Dy81 O95 2.339 1_556 S
Dy81 C111 2.738 . S
C82 O94 1.254 . S
C82 O95 1.257 . S
O83 Dy80 2.307 . S
O83 C93 1.266 . S
O84 Dy81 2.298 . S
O84 C93 1.236 . S
O85 Dy80 2.395 1_554 S
O85 C102 1.255 1_554 S
O86 Dy80 2.379 . S
O86 C102 1.249 . S
O87 Dy81 2.275 . S
O87 C103 1.254 . S
O88 Dy80 2.339 . S
O88 C103 1.257 . S
O89 Dy81 2.307 . S
O89 C104 1.266 . S
O90 Dy80 2.298 . S
O90 C104 1.236 . S
O91 Dy81 2.395 . S
O91 C111 1.255 . S
O92 Dy81 2.379 . S
O92 C111 1.249 . S
C93 O83 1.266 . S
C93 O84 1.236 . S
O94 Dy80 2.275 1_554 S
O94 C82 1.254 . S
O95 Dy81 2.339 1_554 S
O95 C82 1.257 . S
C96 C99 1.344 1_556 S
C96 C100 1.328 . S
C96 C102 1.516 . S
C97 C98 1.304 . S
C97 C101 1.323 1_554 S
C98 C97 1.304 . S
C98 C99 1.371 . S
C98 H112 0.930 . S
C99 C96 1.344 1_554 S
C99 C98 1.371 . S
C99 H113 0.931 . S
C100 C96 1.328 . S
C100 C101 1.433 . S
C100 H114 0.931 . S
C101 C97 1.323 1_556 S
C101 C100 1.433 . S
C101 H115 0.933 . S
C102 Dy80 2.738 . S
C102 O85 1.255 1_556 S
C102 O86 1.249 . S
C102 C96 1.516 . S
C103 O87 1.254 . S
C103 O88 1.257 . S
C104 O89 1.266 . S
C104 O90 1.236 . S
C105 C108 1.344 . S
C105 C109 1.328 . S
C105 C111 1.516 . S
C106 C107 1.304 . S
C106 C110 1.323 . S
C107 C106 1.304 . S
C107 C108 1.371 . S
C107 H116 0.930 . S
C108 C105 1.344 . S
C108 C107 1.371 . S
C108 H117 0.931 . S
C109 C105 1.328 . S
C109 C110 1.433 . S
C109 H118 0.931 . S
C110 C106 1.323 . S
C110 C109 1.433 . S
C110 H119 0.933 . S
C111 Dy81 2.738 . S
C111 O91 1.255 . S
C111 O92 1.249 . S
C111 C105 1.516 . S
H112 C98 0.930 . S
H113 C99 0.931 . S
H114 C100 0.931 . S
H115 C101 0.933 . S
H116 C107 0.930 . S
H117 C108 0.931 . S
H118 C109 0.931 . S
H119 C110 0.933 . S
Dy120 O123 2.307 . S
Dy120 O125 2.395 . S
Dy120 O126 2.379 . S
Dy120 O128 2.339 . S
Dy120 O130 2.298 . S
Dy120 O134 2.275 1_556 S
Dy120 C142 2.738 . S
Dy121 O124 2.298 . S
Dy121 O127 2.275 1_554 S
Dy121 O129 2.307 . S
Dy121 O131 2.395 . S
Dy121 O132 2.379 . S
Dy121 O135 2.339 . S
Dy121 C151 2.738 . S
C122 O134 1.254 . S
C122 O135 1.257 . S
O123 Dy120 2.307 . S
O123 C133 1.266 1_556 S
O124 Dy121 2.298 . S
O124 C133 1.236 . S
O125 Dy120 2.395 . S
O125 C142 1.255 . S
O126 Dy120 2.379 . S
O126 C142 1.249 . S
O127 Dy121 2.275 1_556 S
O127 C143 1.254 . S
O128 Dy120 2.339 . S
O128 C143 1.257 . S
O129 Dy121 2.307 . S
O129 C144 1.266 1_554 S
O130 Dy120 2.298 . S
O130 C144 1.236 . S
O131 Dy121 2.395 . S
O131 C151 1.255 . S
O132 Dy121 2.379 . S
O132 C151 1.249 . S
C133 O123 1.266 1_554 S
C133 O124 1.236 . S
O134 Dy120 2.275 1_554 S
O134 C122 1.254 . S
O135 Dy121 2.339 . S
O135 C122 1.257 . S
C136 C139 1.344 . S
C136 C140 1.328 . S
C136 C142 1.516 . S
C137 C138 1.304 . S
C137 C141 1.323 . S
C138 C137 1.304 . S
C138 C139 1.371 . S
C138 H152 0.930 . S
C139 C136 1.344 . S
C139 C138 1.371 . S
C139 H153 0.924 1_556 S
C140 C136 1.328 . S
C140 C141 1.433 . S
C140 H154 0.931 . S
C141 C137 1.323 . S
C141 C140 1.433 . S
C141 H155 0.933 . S
C142 Dy120 2.738 . S
C142 O125 1.255 . S
C142 O126 1.249 . S
C142 C136 1.516 . S
C143 O127 1.254 . S
C143 O128 1.257 . S
C144 O129 1.266 1_556 S
C144 O130 1.236 . S
C145 C148 1.344 . S
C145 C149 1.328 . S
C145 C151 1.516 . S
C146 C147 1.304 . S
C146 C150 1.323 . S
C147 C146 1.304 . S
C147 C148 1.371 . S
C147 H156 0.930 . S
C148 C145 1.344 . S
C148 C147 1.371 . S
C148 H157 0.925 1_554 S
C149 C145 1.328 . S
C149 C150 1.433 . S
C149 H158 0.931 . S
C150 C146 1.323 . S
C150 C149 1.433 . S
C150 H159 0.933 . S
C151 Dy121 2.738 . S
C151 O131 1.255 . S
C151 O132 1.249 . S
C151 C145 1.516 . S
H152 C138 0.930 . S
H153 C139 0.924 1_554 S
H154 C140 0.931 . S
H155 C141 0.933 . S
H156 C147 0.930 . S
H157 C148 0.925 1_556 S
H158 C149 0.931 . S
H159 C150 0.933 . S
Dy160 O163 2.307 . S
Dy160 O165 2.395 . S
Dy160 O166 2.379 . S
Dy160 O168 2.339 . S
Dy160 O170 2.298 . S
Dy160 O174 2.275 1_554 S
Dy160 C182 2.738 . S
Dy161 O164 2.298 . S
Dy161 O167 2.275 1_556 S
Dy161 O169 2.307 . S
Dy161 O171 2.395 . S
Dy161 O172 2.379 . S
Dy161 O175 2.339 . S
Dy161 C191 2.738 . S
C162 O174 1.254 . S
C162 O175 1.257 . S
O163 Dy160 2.307 . S
O163 C173 1.266 1_554 S
O164 Dy161 2.298 . S
O164 C173 1.236 . S
O165 Dy160 2.395 . S
O165 C182 1.255 . S
O166 Dy160 2.379 . S
O166 C182 1.249 . S
O167 Dy161 2.275 1_554 S
O167 C183 1.254 . S
O168 Dy160 2.339 . S
O168 C183 1.257 . S
O169 Dy161 2.307 . S
O169 C184 1.266 1_556 S
O170 Dy160 2.298 . S
O170 C184 1.236 . S
O171 Dy161 2.395 . S
O171 C191 1.255 . S
O172 Dy161 2.379 . S
O172 C191 1.249 . S
C173 O163 1.266 1_556 S
C173 O164 1.236 . S
O174 Dy160 2.275 1_556 S
O174 C162 1.254 . S
O175 Dy161 2.339 . S
O175 C162 1.257 . S
C176 C179 1.344 . S
C176 C180 1.328 . S
C176 C182 1.516 . S
C177 C178 1.304 . S
C177 C181 1.323 . S
C178 C177 1.304 . S
C178 C179 1.371 . S
C178 H192 0.930 1_554 S
C179 C176 1.344 . S
C179 C178 1.371 . S
C179 H193 0.931 1_554 S
C180 C176 1.328 . S
C180 C181 1.433 . S
C180 H194 0.931 . S
C181 C177 1.323 . S
C181 C180 1.433 . S
C181 H195 0.933 . S
C182 Dy160 2.738 . S
C182 O165 1.255 . S
C182 O166 1.249 . S
C182 C176 1.516 . S
C183 O167 1.254 . S
C183 O168 1.257 . S
C184 O169 1.266 1_554 S
C184 O170 1.236 . S
C185 C188 1.344 . S
C185 C189 1.328 . S
C185 C191 1.516 . S
C186 C187 1.304 . S
C186 C190 1.323 . S
C187 C186 1.304 . S
C187 C188 1.371 . S
C187 H196 0.930 1_556 S
C188 C185 1.344 . S
C188 C187 1.371 . S
C188 H197 0.931 1_556 S
C189 C185 1.328 . S
C189 C190 1.433 . S
C189 H198 0.931 . S
C190 C186 1.323 . S
C190 C189 1.433 . S
C190 H199 0.933 . S
C191 Dy161 2.738 . S
C191 O171 1.255 . S
C191 O172 1.249 . S
C191 C185 1.516 . S
H192 C178 0.930 1_556 S
H193 C179 0.931 1_556 S
H194 C180 0.931 . S
H195 C181 0.933 . S
H196 C187 0.930 1_554 S
H197 C188 0.931 1_554 S
H198 C189 0.931 . S
H199 C190 0.933 . S
Dy200 O203 2.307 . S
Dy200 O205 2.395 1_554 S
Dy200 O206 2.379 . S
Dy200 O208 2.339 . S
Dy200 O210 2.298 . S
Dy200 O214 2.275 1_554 S
Dy200 C222 2.738 1_554 S
Dy201 O204 2.298 1_565 S
Dy201 O207 2.275 1_566 S
Dy201 O209 2.307 1_565 S
Dy201 O211 2.395 1_556 S
Dy201 O212 2.379 . S
Dy201 O215 2.339 . S
Dy201 C231 2.738 1_556 S
C202 O214 1.254 . S
C202 O215 1.257 1_545 S
O203 Dy200 2.307 . S
O203 C213 1.266 . S
O204 Dy201 2.298 1_545 S
O204 C213 1.236 1_556 S
O205 Dy200 2.395 1_556 S
O205 C222 1.255 . S
O206 Dy200 2.379 . S
O206 C222 1.249 1_554 S
O207 Dy201 2.275 1_544 S
O207 C223 1.254 . S
O208 Dy200 2.339 . S
O208 C223 1.257 . S
O209 Dy201 2.307 1_545 S
O209 C224 1.266 . S
O210 Dy200 2.298 . S
O210 C224 1.236 1_554 S
O211 Dy201 2.395 1_554 S
O211 C231 1.255 . S
O212 Dy201 2.379 . S
O212 C231 1.249 1_556 S
C213 O203 1.266 . S
C213 O204 1.236 1_554 S
O214 Dy200 2.275 1_556 S
O214 C202 1.254 . S
O215 Dy201 2.339 . S
O215 C202 1.257 1_565 S
C216 C219 1.344 . S
C216 C220 1.328 1_556 S
C216 C222 1.516 . S
C217 C218 1.304 . S
C217 C221 1.323 1_556 S
C218 C217 1.304 . S
C218 C219 1.371 . S
C218 H232 0.930 . S
C219 C216 1.344 . S
C219 C218 1.371 . S
C219 H233 0.931 . S
C220 C216 1.328 1_554 S
C220 C221 1.433 . S
C220 H234 0.931 . S
C221 C217 1.323 1_554 S
C221 C220 1.433 . S
C221 H235 0.933 . S
C222 Dy200 2.738 1_556 S
C222 O205 1.255 . S
C222 O206 1.249 1_556 S
C222 C216 1.516 . S
C223 O207 1.254 . S
C223 O208 1.257 . S
C224 O209 1.266 . S
C224 O210 1.236 1_556 S
C225 C228 1.344 . S
C225 C229 1.328 1_554 S
C225 C231 1.516 . S
C226 C227 1.304 . S
C226 C230 1.323 1_554 S
C227 C226 1.304 . S
C227 C228 1.371 . S
C227 H236 0.930 . S
C228 C225 1.344 . S
C228 C227 1.371 . S
C228 H237 0.931 . S
C229 C225 1.328 1_556 S
C229 C230 1.433 . S
C229 H238 0.931 . S
C230 C226 1.323 1_556 S
C230 C229 1.433 . S
C230 H239 0.933 . S
C231 Dy201 2.738 1_554 S
C231 O211 1.255 . S
C231 O212 1.249 1_554 S
C231 C225 1.516 . S
H232 C218 0.930 . S
H233 C219 0.931 . S
H234 C220 0.931 . S
H235 C221 0.933 . S
H236 C227 0.930 . S
H237 C228 0.931 . S
H238 C229 0.931 . S
H239 C230 0.933 . S
H240 C248 0.950 . S
H241 C253 0.950 . S
H242 C250 0.950 . S
H243 C252 0.950 . S
H244 C254 0.950 . S
H245 C256 0.950 . S
H246 C258 0.950 . S
H247 C259 0.950 . S
C248 H240 0.950 . S
C248 C249 1.386 . S
C248 C250 1.391 . S
C249 C248 1.386 . S
C249 C253 1.393 . S
C250 H242 0.950 . S
C250 C248 1.391 . S
C250 C251 1.400 . S
C251 C250 1.400 . S
C251 C252 1.398 . S
C251 C257 1.491 . S
C252 H243 0.950 . S
C252 C251 1.398 . S
C252 C253 1.391 . S
C253 H241 0.950 . S
C253 C249 1.393 . S
C253 C252 1.391 . S
C254 H244 0.950 . S
C254 C255 1.386 . S
C254 C256 1.391 . S
C255 C254 1.386 . S
C255 C259 1.393 . S
C256 H245 0.950 . S
C256 C254 1.391 . S
C256 C257 1.400 . S
C257 C251 1.491 . S
C257 C256 1.400 . S
C257 C258 1.398 . S
C258 H246 0.950 . S
C258 C257 1.398 . S
C258 C259 1.391 . S
C259 H247 0.950 . S
C259 C255 1.393 . S
C259 C258 1.391 . S
H260 C268 0.950 . S
H261 C273 0.950 . S
H262 C270 0.950 . S
H263 C272 0.950 . S
H264 C274 0.950 . S
H265 C276 0.950 . S
H266 C278 0.950 . S
H267 C279 0.950 . S
C268 H260 0.950 . S
C268 C269 1.386 . S
C268 C270 1.391 . S
C269 C268 1.386 . S
C269 C273 1.393 . S
C270 H262 0.950 . S
C270 C268 1.391 . S
C270 C271 1.400 . S
C271 C270 1.400 . S
C271 C272 1.398 . S
C271 C277 1.491 . S
C272 H263 0.950 . S
C272 C271 1.398 . S
C272 C273 1.391 . S
C273 H261 0.950 . S
C273 C269 1.393 . S
C273 C272 1.391 . S
C274 H264 0.950 . S
C274 C275 1.386 . S
C274 C276 1.391 . S
C275 C274 1.386 . S
C275 C279 1.393 . S
C276 H265 0.950 . S
C276 C274 1.391 . S
C276 C277 1.400 . S
C277 C271 1.491 . S
C277 C276 1.400 . S
C277 C278 1.398 . S
C278 H266 0.950 . S
C278 C277 1.398 . S
C278 C279 1.391 . S
C279 H267 0.950 . S
C279 C275 1.393 . S
C279 C278 1.391 . S
H280 C288 0.950 . S
H281 C293 0.950 . S
H282 C290 0.950 . S
H283 C292 0.950 . S
H284 C294 0.950 . S
H285 C296 0.950 . S
H286 C298 0.950 . S
H287 C299 0.950 . S
C288 H280 0.950 . S
C288 C289 1.386 . S
C288 C290 1.391 . S
C289 C288 1.386 . S
C289 C293 1.393 1_545 S
C290 H282 0.950 . S
C290 C288 1.391 . S
C290 C291 1.400 1_545 S
C291 C290 1.400 1_565 S
C291 C292 1.398 . S
C291 C297 1.491 . S
C292 H283 0.950 . S
C292 C291 1.398 . S
C292 C293 1.391 . S
C293 H281 0.950 . S
C293 C289 1.393 1_565 S
C293 C292 1.391 . S
C294 H284 0.950 . S
C294 C295 1.386 . S
C294 C296 1.391 . S
C295 C294 1.386 . S
C295 C299 1.393 . S
C296 H285 0.950 . S
C296 C294 1.391 . S
C296 C297 1.400 . S
C297 C291 1.491 . S
C297 C296 1.400 . S
C297 C298 1.398 . S
C298 H286 0.950 . S
C298 C297 1.398 . S
C298 C299 1.391 . S
C299 H287 0.950 . S
C299 C295 1.393 . S
C299 C298 1.391 . S
H300 C308 0.950 . S
H301 C313 0.950 . S
H302 C310 0.950 . S
H303 C312 0.950 . S
H304 C314 0.950 . S
H305 C316 0.950 . S
H306 C318 0.950 . S
H307 C319 0.950 . S
C308 H300 0.950 . S
C308 C309 1.386 . S
C308 C310 1.391 . S
C309 C308 1.386 . S
C309 C313 1.393 . S
C310 H302 0.950 . S
C310 C308 1.391 . S
C310 C311 1.400 . S
C311 C310 1.400 . S
C311 C312 1.398 . S
C311 C317 1.491 . S
C312 H303 0.950 . S
C312 C311 1.398 . S
C312 C313 1.391 . S
C313 H301 0.950 . S
C313 C309 1.393 . S
C313 C312 1.391 . S
C314 H304 0.950 . S
C314 C315 1.386 . S
C314 C316 1.391 . S
C315 C314 1.386 . S
C315 C319 1.393 . S
C316 H305 0.950 . S
C316 C314 1.391 . S
C316 C317 1.400 . S
C317 C311 1.491 . S
C317 C316 1.400 . S
C317 C318 1.398 . S
C318 H306 0.950 . S
C318 C317 1.398 . S
C318 C319 1.391 . S
C319 H307 0.950 . S
C319 C315 1.393 . S
C319 C318 1.391 . S
H320 C328 0.950 . S
H321 C333 0.950 . S
H322 C330 0.950 . S
H323 C332 0.950 . S
H324 C334 0.950 . S
H325 C336 0.933 1_455 S
H326 C338 0.946 . S
H327 C339 0.950 . S
C328 H320 0.950 . S
C328 C329 1.386 . S
C328 C330 1.391 . S
C329 C328 1.386 . S
C329 C333 1.393 . S
C330 H322 0.950 . S
C330 C328 1.391 . S
C330 C331 1.400 . S
C331 C330 1.400 . S
C331 C332 1.398 . S
C331 C337 1.491 . S
C332 H323 0.950 . S
C332 C331 1.398 . S
C332 C333 1.391 . S
C333 H321 0.950 . S
C333 C329 1.393 . S
C333 C332 1.391 . S
C334 H324 0.950 . S
C334 C335 1.386 . S
C334 C336 1.405 . S
C335 C334 1.386 . S
C335 C339 1.393 . S
C336 H325 0.933 1_655 S
C336 C334 1.405 . S
C336 C337 1.404 1_655 S
C337 C331 1.491 . S
C337 C336 1.404 1_455 S
C337 C338 1.413 . S
C338 H326 0.946 . S
C338 C337 1.413 . S
C338 C339 1.381 1_455 S
C339 H327 0.950 . S
C339 C335 1.393 . S
C339 C338 1.381 1_655 S
H340 C348 0.950 . S
H341 C353 0.950 . S
H342 C350 0.950 . S
H343 C352 0.950 . S
H344 C354 0.950 . S
H345 C356 0.950 . S
H346 C358 0.950 . S
H347 C359 0.950 . S
C348 H340 0.950 . S
C348 C349 1.386 . S
C348 C350 1.391 . S
C349 C348 1.386 . S
C349 C353 1.393 . S
C350 H342 0.950 . S
C350 C348 1.391 . S
C350 C351 1.400 . S
C351 C350 1.400 . S
C351 C352 1.398 . S
C351 C357 1.491 . S
C352 H343 0.950 . S
C352 C351 1.398 . S
C352 C353 1.391 . S
C353 H341 0.950 . S
C353 C349 1.393 . S
C353 C352 1.391 . S
C354 H344 0.950 . S
C354 C355 1.386 . S
C354 C356 1.391 . S
C355 C354 1.386 . S
C355 C359 1.393 . S
C356 H345 0.950 . S
C356 C354 1.391 . S
C356 C357 1.400 . S
C357 C351 1.491 . S
C357 C356 1.400 . S
C357 C358 1.398 . S
C358 H346 0.950 . S
C358 C357 1.398 . S
C358 C359 1.391 . S
C359 H347 0.950 . S
C359 C355 1.393 . S
C359 C358 1.391 . S
H360 C368 0.950 . S
H361 C373 0.950 . S
H362 C370 0.950 . S
H363 C372 0.950 . S
H364 C374 0.950 . S
H365 C376 0.950 . S
H366 C378 0.950 . S
H367 C379 0.950 . S
C368 H360 0.950 . S
C368 C369 1.386 1_556 S
C368 C370 1.391 . S
C369 C368 1.386 1_554 S
C369 C373 1.393 . S
C370 H362 0.950 . S
C370 C368 1.391 . S
C370 C371 1.400 1_556 S
C371 C370 1.400 1_554 S
C371 C372 1.398 . S
C371 C377 1.491 . S
C372 H363 0.950 . S
C372 C371 1.398 . S
C372 C373 1.391 . S
C373 H361 0.950 . S
C373 C369 1.393 . S
C373 C372 1.391 . S
C374 H364 0.950 . S
C374 C375 1.386 . S
C374 C376 1.391 . S
C375 C374 1.386 . S
C375 C379 1.393 1_554 S
C376 H365 0.950 . S
C376 C374 1.391 . S
C376 C377 1.400 . S
C377 C371 1.491 . S
C377 C376 1.400 . S
C377 C378 1.398 1_554 S
C378 H366 0.950 . S
C378 C377 1.398 1_556 S
C378 C379 1.391 . S
C379 H367 0.950 . S
C379 C375 1.393 1_556 S
C379 C378 1.391 . S
H380 C388 0.950 . S
H381 C393 0.950 . S
H382 C390 0.950 1_554 S
H383 C392 0.950 . S
H384 C394 0.950 . S
H385 C396 0.950 . S
H386 C398 0.950 1_554 S
H387 C399 0.950 1_554 S
C388 H380 0.950 . S
C388 C389 1.386 1_554 S
C388 C390 1.391 1_554 S
C389 C388 1.386 1_556 S
C389 C393 1.393 . S
C390 H382 0.950 1_556 S
C390 C388 1.391 1_556 S
C390 C391 1.400 . S
C391 C390 1.400 . S
C391 C392 1.398 . S
C391 C397 1.491 . S
C392 H383 0.950 . S
C392 C391 1.398 . S
C392 C393 1.391 . S
C393 H381 0.950 . S
C393 C389 1.393 . S
C393 C392 1.391 . S
C394 H384 0.950 . S
C394 C395 1.386 . S
C394 C396 1.391 . S
C395 C394 1.386 . S
C395 C399 1.393 . S
C396 H385 0.950 . S
C396 C394 1.391 . S
C396 C397 1.400 . S
C397 C391 1.491 . S
C397 C396 1.400 . S
C397 C398 1.398 . S
C398 H386 0.950 1_556 S
C398 C397 1.398 . S
C398 C399 1.391 . S
C399 H387 0.950 1_556 S
C399 C395 1.393 . S
C399 C398 1.391 . S
H400 C408 0.950 . S
H401 C413 0.950 . S
H402 C410 0.950 . S
H403 C412 0.950 . S
H404 C414 0.950 . S
H405 C416 0.950 . S
H406 C418 0.950 . S
H407 C419 0.950 . S
C408 H400 0.950 . S
C408 C409 1.386 . S
C408 C410 1.391 . S
C409 C408 1.386 . S
C409 C413 1.393 . S
C410 H402 0.950 . S
C410 C408 1.391 . S
C410 C411 1.400 . S
C411 C410 1.400 . S
C411 C412 1.398 . S
C411 C417 1.491 . S
C412 H403 0.950 . S
C412 C411 1.398 . S
C412 C413 1.391 . S
C413 H401 0.950 . S
C413 C409 1.393 . S
C413 C412 1.391 . S
C414 H404 0.950 . S
C414 C415 1.386 . S
C414 C416 1.391 . S
C415 C414 1.386 . S
C415 C419 1.393 . S
C416 H405 0.950 . S
C416 C414 1.391 . S
C416 C417 1.400 . S
C417 C411 1.491 . S
C417 C416 1.400 . S
C417 C418 1.398 . S
C418 H406 0.950 . S
C418 C417 1.398 . S
C418 C419 1.391 . S
C419 H407 0.950 . S
C419 C415 1.393 . S
C419 C418 1.391 . S
H420 C428 0.950 1_554 S
H421 C433 0.950 . S
H422 C430 0.950 . S
H423 C432 0.950 . S
H424 C434 0.950 1_556 S
H425 C436 0.950 . S
H426 C438 0.950 . S
H427 C439 0.950 . S
C428 H420 0.950 1_556 S
C428 C429 1.386 . S
C428 C430 1.391 1_556 S
C429 C428 1.386 . S
C429 C433 1.393 . S
C430 H422 0.950 . S
C430 C428 1.391 1_554 S
C430 C431 1.402 1_554 S
C431 C430 1.402 1_556 S
C431 C432 1.399 . S
C431 C437 1.489 1_556 S
C432 H423 0.950 . S
C432 C431 1.399 . S
C432 C433 1.391 . S
C433 H421 0.950 . S
C433 C429 1.393 . S
C433 C432 1.391 . S
C434 H424 0.950 1_554 S
C434 C435 1.386 . S
C434 C436 1.391 1_554 S
C435 C434 1.386 . S
C435 C439 1.393 . S
C436 H425 0.950 . S
C436 C434 1.391 1_556 S
C436 C437 1.400 1_556 S
C437 C431 1.489 1_554 S
C437 C436 1.400 1_554 S
C437 C438 1.398 . S
C438 H426 0.950 . S
C438 C437 1.398 . S
C438 C439 1.391 . S
C439 H427 0.950 . S
C439 C435 1.393 . S
C439 C438 1.391 . S
H440 C448 0.950 1_556 S
H441 C453 0.950 . S
H442 C450 0.950 1_556 S
H443 C452 0.950 . S
H444 C454 0.950 . S
H445 C456 0.950 . S
H446 C458 0.950 . S
H447 C459 0.950 . S
C448 H440 0.950 1_554 S
C448 C449 1.386 . S
C448 C450 1.391 . S
C449 C448 1.386 . S
C449 C453 1.393 . S
C450 H442 0.950 1_554 S
C450 C448 1.391 . S
C450 C451 1.400 . S
C451 C450 1.400 . S
C451 C452 1.398 . S
C451 C457 1.491 . S
C452 H443 0.950 . S
C452 C451 1.398 . S
C452 C453 1.391 . S
C453 H441 0.950 . S
C453 C449 1.393 . S
C453 C452 1.391 . S
C454 H444 0.950 . S
C454 C455 1.386 . S
C454 C456 1.391 . S
C455 C454 1.386 . S
C455 C459 1.393 1_554 S
C456 H445 0.950 . S
C456 C454 1.391 . S
C456 C457 1.400 . S
C457 C451 1.491 . S
C457 C456 1.400 . S
C457 C458 1.398 1_554 S
C458 H446 0.950 . S
C458 C457 1.398 1_556 S
C458 C459 1.391 . S
C459 H447 0.950 . S
C459 C455 1.393 1_556 S
C459 C458 1.391 . S
H460 C468 0.950 . S
H461 C473 0.950 . S
H462 C470 0.950 . S
H463 C472 0.950 . S
H464 C474 0.950 . S
H465 C476 0.950 . S
H466 C478 0.950 1_554 S
H467 C479 0.950 1_554 S
C468 H460 0.950 . S
C468 C469 1.386 . S
C468 C470 1.391 . S
C469 C468 1.386 . S
C469 C473 1.393 . S
C470 H462 0.950 . S
C470 C468 1.391 . S
C470 C471 1.400 . S
C471 C470 1.400 . S
C471 C472 1.398 . S
C471 C477 1.491 . S
C472 H463 0.950 . S
C472 C471 1.398 . S
C472 C473 1.391 . S
C473 H461 0.950 . S
C473 C469 1.393 . S
C473 C472 1.391 . S
C474 H464 0.950 . S
C474 C475 1.386 . S
C474 C476 1.391 . S
C475 C474 1.386 . S
C475 C479 1.393 . S
C476 H465 0.950 . S
C476 C474 1.391 . S
C476 C477 1.400 . S
C477 C471 1.491 . S
C477 C476 1.400 . S
C477 C478 1.398 . S
C478 H466 0.950 1_556 S
C478 C477 1.398 . S
C478 C479 1.391 . S
C479 H467 0.950 1_556 S
C479 C475 1.393 . S
C479 C478 1.391 . S
H480 C488 0.950 . S
H481 C493 0.950 . S
H482 C490 0.950 . S
H483 C492 0.950 . S
H484 C494 0.950 . S
H485 C496 0.950 . S
H486 C498 0.950 . S
H487 C499 0.950 . S
C488 H480 0.950 . S
C488 C489 1.386 . S
C488 C490 1.391 . S
C489 C488 1.386 . S
C489 C493 1.393 . S
C490 H482 0.950 . S
C490 C488 1.391 . S
C490 C491 1.400 . S
C491 C490 1.400 . S
C491 C492 1.398 . S
C491 C497 1.491 . S
C492 H483 0.950 . S
C492 C491 1.398 . S
C492 C493 1.391 . S
C493 H481 0.950 . S
C493 C489 1.393 . S
C493 C492 1.391 . S
C494 H484 0.950 . S
C494 C495 1.386 . S
C494 C496 1.391 . S
C495 C494 1.386 . S
C495 C499 1.393 . S
C496 H485 0.950 . S
C496 C494 1.391 . S
C496 C497 1.400 . S
C497 C491 1.491 . S
C497 C496 1.400 . S
C497 C498 1.398 . S
C498 H486 0.950 . S
C498 C497 1.398 . S
C498 C499 1.391 . S
C499 H487 0.950 . S
C499 C495 1.393 . S
C499 C498 1.391 . S
H500 C508 0.950 . S
H501 C513 0.950 . S
H502 C510 0.950 . S
H503 C512 0.950 . S
H504 C514 0.950 . S
H505 C516 0.950 . S
H506 C518 0.950 . S
H507 C519 0.950 . S
C508 H500 0.950 . S
C508 C509 1.386 . S
C508 C510 1.391 . S
C509 C508 1.386 . S
C509 C513 1.393 . S
C510 H502 0.950 . S
C510 C508 1.391 . S
C510 C511 1.400 . S
C511 C510 1.400 . S
C511 C512 1.398 . S
C511 C517 1.491 . S
C512 H503 0.950 . S
C512 C511 1.398 . S
C512 C513 1.391 . S
C513 H501 0.950 . S
C513 C509 1.393 . S
C513 C512 1.391 . S
C514 H504 0.950 . S
C514 C515 1.386 . S
C514 C516 1.391 . S
C515 C514 1.386 . S
C515 C519 1.393 . S
C516 H505 0.950 . S
C516 C514 1.391 . S
C516 C517 1.400 . S
C517 C511 1.491 . S
C517 C516 1.400 . S
C517 C518 1.398 . S
C518 H506 0.950 . S
C518 C517 1.398 . S
C518 C519 1.391 . S
C519 H507 0.950 . S
C519 C515 1.393 . S
C519 C518 1.391 . S
H520 C528 0.950 . S
H521 C533 0.950 . S
H522 C530 0.950 . S
H523 C532 0.950 . S
H524 C534 0.950 . S
H525 C536 0.950 . S
H526 C538 0.950 . S
H527 C539 0.950 . S
C528 H520 0.950 . S
C528 C529 1.386 . S
C528 C530 1.391 . S
C529 C528 1.386 . S
C529 C533 1.393 . S
C530 H522 0.950 . S
C530 C528 1.391 . S
C530 C531 1.400 . S
C531 C530 1.400 . S
C531 C532 1.398 . S
C531 C537 1.491 . S
C532 H523 0.950 . S
C532 C531 1.398 . S
C532 C533 1.391 . S
C533 H521 0.950 . S
C533 C529 1.393 . S
C533 C532 1.391 . S
C534 H524 0.950 . S
C534 C535 1.386 . S
C534 C536 1.391 . S
C535 C534 1.386 . S
C535 C539 1.393 . S
C536 H525 0.950 . S
C536 C534 1.391 . S
C536 C537 1.400 . S
C537 C531 1.491 . S
C537 C536 1.400 . S
C537 C538 1.398 . S
C538 H526 0.950 . S
C538 C537 1.398 . S
C538 C539 1.391 . S
C539 H527 0.950 . S
C539 C535 1.393 . S
C539 C538 1.391 . S
H540 C548 0.950 . S
H541 C553 0.950 . S
H542 C550 0.950 . S
H543 C552 0.950 . S
H544 C554 0.950 . S
H545 C556 0.950 . S
H546 C558 0.950 . S
H547 C559 0.950 . S
C548 H540 0.950 . S
C548 C549 1.386 . S
C548 C550 1.391 . S
C549 C548 1.386 . S
C549 C553 1.393 . S
C550 H542 0.950 . S
C550 C548 1.391 . S
C550 C551 1.400 . S
C551 C550 1.400 . S
C551 C552 1.398 . S
C551 C557 1.491 . S
C552 H543 0.950 . S
C552 C551 1.398 . S
C552 C553 1.391 . S
C553 H541 0.950 . S
C553 C549 1.393 . S
C553 C552 1.391 . S
C554 H544 0.950 . S
C554 C555 1.386 . S
C554 C556 1.391 . S
C555 C554 1.386 . S
C555 C559 1.393 . S
C556 H545 0.950 . S
C556 C554 1.391 . S
C556 C557 1.400 . S
C557 C551 1.491 . S
C557 C556 1.400 . S
C557 C558 1.398 . S
C558 H546 0.950 . S
C558 C557 1.398 . S
C558 C559 1.391 . S
C559 H547 0.950 . S
C559 C555 1.393 . S
C559 C558 1.391 . S
H560 C568 0.950 . S
H561 C573 0.950 . S
H562 C570 0.950 . S
H563 C572 0.950 . S
H564 C574 0.950 . S
H565 C576 0.950 . S
H566 C578 0.950 . S
H567 C579 0.950 . S
C568 H560 0.950 . S
C568 C569 1.386 . S
C568 C570 1.391 . S
C569 C568 1.386 . S
C569 C573 1.393 . S
C570 H562 0.950 . S
C570 C568 1.391 . S
C570 C571 1.400 . S
C571 C570 1.400 . S
C571 C572 1.398 . S
C571 C577 1.491 . S
C572 H563 0.950 . S
C572 C571 1.398 . S
C572 C573 1.391 . S
C573 H561 0.950 . S
C573 C569 1.393 . S
C573 C572 1.391 . S
C574 H564 0.950 . S
C574 C575 1.386 . S
C574 C576 1.391 . S
C575 C574 1.386 . S
C575 C579 1.393 . S
C576 H565 0.950 . S
C576 C574 1.391 . S
C576 C577 1.400 . S
C577 C571 1.491 . S
C577 C576 1.400 . S
C577 C578 1.398 . S
C578 H566 0.950 . S
C578 C577 1.398 . S
C578 C579 1.391 . S
C579 H567 0.950 . S
C579 C575 1.393 . S
C579 C578 1.391 . S
H580 C588 0.950 . S
H581 C593 0.950 . S
H582 C590 0.950 . S
H583 C592 0.950 . S
H584 C594 0.950 . S
H585 C596 0.950 . S
H586 C598 0.950 . S
H587 C599 0.950 . S
C588 H580 0.950 . S
C588 C589 1.386 . S
C588 C590 1.391 . S
C589 C588 1.386 . S
C589 C593 1.393 . S
C590 H582 0.950 . S
C590 C588 1.391 . S
C590 C591 1.400 . S
C591 C590 1.400 . S
C591 C592 1.398 . S
C591 C597 1.491 . S
C592 H583 0.950 . S
C592 C591 1.398 . S
C592 C593 1.391 . S
C593 H581 0.950 . S
C593 C589 1.393 . S
C593 C592 1.391 . S
C594 H584 0.950 . S
C594 C595 1.386 . S
C594 C596 1.391 . S
C595 C594 1.386 . S
C595 C599 1.393 . S
C596 H585 0.950 . S
C596 C594 1.391 . S
C596 C597 1.400 . S
C597 C591 1.491 . S
C597 C596 1.400 . S
C597 C598 1.398 . S
C598 H586 0.950 . S
C598 C597 1.398 . S
C598 C599 1.391 . S
C599 H587 0.950 . S
C599 C595 1.393 . S
C599 C598 1.391 . S
C249 C213 2.741 . S
C255 C26 2.761 . S
C269 C13 3.877 . S
C275 C66 3.784 1_455 S
C289 C53 3.248 . S
C295 C93 3.140 . S
C309 C133 2.905 . S
C315 C106 2.715 . S
C329 C186 1.933 . S
C335 C146 2.022 . S
C349 C173 2.648 . S
C355 C226 2.402 . S
C369 C184 1.420 . S
C375 C17 1.395 1_554 S
C389 C224 3.331 . S
C395 C57 3.321 . S
C409 C104 4.530 . S
C415 C24 4.524 . S
C429 C144 3.431 . S
C435 C64 3.443 . S
C449 C177 0.828 . S
C455 C97 0.823 . S
C469 C137 0.540 . S
C475 C217 0.324 . S
C489 C2 0.577 . S
C495 C23 0.577 . S
C509 C42 0.644 . S
C515 C63 0.644 . S
C529 C103 0.702 . S
C535 C82 0.702 . S
C549 C143 0.547 . S
C555 C122 0.547 . S
C569 C183 0.743 . S
C575 C162 0.743 . S
C589 C202 0.685 . S
C595 C223 0.685 . S
