# Generated by pormake.
# Topology umj, (4)-cn, num edge types: 1
# Building blocks:
#     Node 0, Type 0, BuildingBlock: KOZSID_clean_sbu_0, # of connection points: 4
#     Node 1, Type 0, BuildingBlock: KOZSID_clean_sbu_0, # of connection points: 4
#     Node 2, Type 0, BuildingBlock: KOZSID_clean_sbu_0, # of connection points: 4
#     Node 3, Type 0, BuildingBlock: KOZSID_clean_sbu_0, # of connection points: 4
#     Node 4, Type 0, BuildingBlock: KOZSID_clean_sbu_0, # of connection points: 4
#     Node 5, Type 0, BuildingBlock: KOZSID_clean_sbu_0, # of connection points: 4
#     Node 6, Type 0, BuildingBlock: KOZSID_clean_sbu_0, # of connection points: 4
#     Node 7, Type 0, BuildingBlock: KOZSID_clean_sbu_0, # of connection points: 4
#     Node 8, Type 0, BuildingBlock: KOZSID_clean_sbu_0, # of connection points: 4
#     Node 9, Type 0, BuildingBlock: KOZSID_clean_sbu_0, # of connection points: 4
#     Node 10, Type 0, BuildingBlock: KOZSID_clean_sbu_0, # of connection points: 4
#     Node 11, Type 0, BuildingBlock: KOZSID_clean_sbu_0, # of connection points: 4
#     Edge 12, Type (0, 0), BuildingBlock: XUDNAN_clean_linker_2, # of connection points: 2
#     Edge 13, Type (0, 0), BuildingBlock: XUDNAN_clean_linker_2, # of connection points: 2
#     Edge 14, Type (0, 0), BuildingBlock: XUDNAN_clean_linker_2, # of connection points: 2
#     Edge 15, Type (0, 0), BuildingBlock: XUDNAN_clean_linker_2, # of connection points: 2
#     Edge 16, Type (0, 0), BuildingBlock: XUDNAN_clean_linker_2, # of connection points: 2
#     Edge 17, Type (0, 0), BuildingBlock: XUDNAN_clean_linker_2, # of connection points: 2
#     Edge 18, Type (0, 0), BuildingBlock: XUDNAN_clean_linker_2, # of connection points: 2
#     Edge 19, Type (0, 0), BuildingBlock: XUDNAN_clean_linker_2, # of connection points: 2
#     Edge 20, Type (0, 0), BuildingBlock: XUDNAN_clean_linker_2, # of connection points: 2
#     Edge 21, Type (0, 0), BuildingBlock: XUDNAN_clean_linker_2, # of connection points: 2
#     Edge 22, Type (0, 0), BuildingBlock: XUDNAN_clean_linker_2, # of connection points: 2
#     Edge 23, Type (0, 0), BuildingBlock: XUDNAN_clean_linker_2, # of connection points: 2
#     Edge 24, Type (0, 0), BuildingBlock: XUDNAN_clean_linker_2, # of connection points: 2
#     Edge 25, Type (0, 0), BuildingBlock: XUDNAN_clean_linker_2, # of connection points: 2
#     Edge 26, Type (0, 0), BuildingBlock: XUDNAN_clean_linker_2, # of connection points: 2
#     Edge 27, Type (0, 0), BuildingBlock: XUDNAN_clean_linker_2, # of connection points: 2
#     Edge 28, Type (0, 0), BuildingBlock: XUDNAN_clean_linker_2, # of connection points: 2
#     Edge 29, Type (0, 0), BuildingBlock: XUDNAN_clean_linker_2, # of connection points: 2
#     Edge 30, Type (0, 0), BuildingBlock: XUDNAN_clean_linker_2, # of connection points: 2
#     Edge 31, Type (0, 0), BuildingBlock: XUDNAN_clean_linker_2, # of connection points: 2
#     Edge 32, Type (0, 0), BuildingBlock: XUDNAN_clean_linker_2, # of connection points: 2
#     Edge 33, Type (0, 0), BuildingBlock: XUDNAN_clean_linker_2, # of connection points: 2
#     Edge 34, Type (0, 0), BuildingBlock: XUDNAN_clean_linker_2, # of connection points: 2
#     Edge 35, Type (0, 0), BuildingBlock: XUDNAN_clean_linker_2, # of connection points: 2
# Relax obj value: 0.054
# Max RMSD: 0.159
# Mean RMSD: 0.159
data_MOF--net-umj--node1-KOZSID_clean_sbu_0--edge1-XUDNAN_clean_linker_2
_symmetry_space_group_name_H-M    P1
_symmetry_Int_Tables_number       1
_symmetry_cell_setting            triclinic
loop_
_symmetry_equiv_pos_as_xyz
'x, y, z'
_cell_length_a     38.898212
_cell_length_b     38.997219
_cell_length_c     93.84782
_cell_angle_alpha  89.919958
_cell_angle_beta   89.980818
_cell_angle_gamma 119.95353
loop_
_atom_site_label
_atom_site_type_symbol
_atom_site_fract_x
_atom_site_fract_y
_atom_site_fract_z
_atom_type_partial_charge
C0 C 0.03789 0.26172 0.04896 0.0
C1 C 1.0086 0.25304 0.03889 0.0
C2 C 0.97707 0.25172 0.04601 0.0
C3 C 0.98881 0.25974 0.06001 0.0
N4 N 0.02567 0.26596 0.0621 0.0
Co5 Co 0.05361 0.27741 0.08071 0.0
N6 N 1.00372 0.25855 0.09179 0.0
C7 C 0.96939 0.25367 0.08646 0.0
C8 C 0.94033 0.2426 0.09662 0.0
C9 C 0.95765 0.24114 0.10917 0.0
C10 C 0.9965 0.2515 0.10598 0.0
N11 N 0.08224 0.28813 0.09922 0.0
C12 C 0.06831 0.27645 0.11265 0.0
C13 C 0.09933 0.29109 0.12243 0.0
C14 C 0.13353 0.31323 0.11492 0.0
C15 C 0.12172 0.31087 0.10105 0.0
N16 N 0.10377 0.29744 0.06968 0.0
C17 C 0.14073 0.32011 0.07482 0.0
C18 C 0.16979 0.32745 0.06506 0.0
C19 C 0.15005 0.30826 0.05298 0.0
C20 C 0.10971 0.29077 0.05596 0.0
N21 N 0.05958 0.33148 0.08081 0.0
C22 C 0.05457 0.40205 0.0812 0.0
C23 C 0.05275 0.38165 0.09376 0.0
C24 C 0.05503 0.34683 0.09335 0.0
C25 C 0.06001 0.38665 0.06838 0.0
C26 C 0.06305 0.35187 0.06844 0.0
N27 N 0.04553 0.22278 0.08061 0.0
C28 C 0.06857 0.1751 0.08162 0.0
C29 C 0.02996 0.14319 0.0791 0.0
C30 C 0.99962 0.15264 0.07789 0.0
C31 C 1.00796 0.19188 0.07844 0.0
C32 C 0.07567 0.21452 0.08239 0.0
H33 H 0.98351 0.19698 0.07692 0.0
H34 H 0.10557 0.23828 0.08424 0.0
H35 H 0.05184 0.33184 0.10329 0.0
H36 H 0.06738 0.3411 0.0584 0.0
C37 C 0.96445 0.25546 0.0717 0.0
C38 C 0.07796 0.26888 0.04553 0.0
C39 C 0.0264 0.25787 0.11689 0.0
C40 C 0.14712 0.32605 0.08941 0.0
H41 H 1.01003 0.2484 0.02758 0.0
H42 H 0.9485 0.24435 0.04159 0.0
H43 H 0.91002 0.23587 0.09509 0.0
H44 H 0.94358 0.23407 0.11955 0.0
H45 H 0.09753 0.28759 0.13389 0.0
H46 H 0.16346 0.3289 0.11908 0.0
H47 H 0.20153 0.34251 0.0668 0.0
H48 H 0.16424 0.30673 0.04329 0.0
H49 H 0.0487 0.39211 0.10397 0.0
H50 H 0.06244 0.40164 0.0584 0.0
H51 H 0.09332 0.16993 0.08268 0.0
H52 H 0.96901 0.12978 0.07647 0.0
C53 C 0.78754 0.02467 0.38456 0.0
C54 C 0.77549 0.99101 0.3763 0.0
C55 C 0.74706 0.95961 0.38396 0.0
C56 C 0.74389 0.97525 0.39664 0.0
N57 N 0.76882 0.01454 0.39745 0.0
Co58 Co 0.77965 0.04736 0.41486 0.0
N59 N 0.75415 1.00048 0.42763 0.0
C60 C 0.72908 0.96314 0.42342 0.0
C61 C 0.71468 0.93683 0.43457 0.0
C62 C 0.73133 0.95912 0.44657 0.0
C63 C 0.75507 0.99795 0.44205 0.0
N64 N 0.79181 0.08099 0.4321 0.0
C65 C 0.79148 0.07197 0.44607 0.0
C66 C 0.8018 0.1049 0.45458 0.0
C67 C 0.80777 0.13512 0.44564 0.0
C68 C 0.80106 0.1192 0.43222 0.0
N69 N 0.80403 0.09436 0.40217 0.0
C70 C 0.80876 0.13009 0.4054 0.0
C71 C 0.82177 0.1559 0.39412 0.0
C72 C 0.8255 0.13515 0.38307 0.0
C73 C 0.81525 0.09785 0.38833 0.0
N74 N 0.72735 0.0448 0.41297 0.0
C75 C 0.65006 0.03564 0.41005 0.0
C76 C 0.66624 0.03589 0.4235 0.0
C77 C 0.70438 0.04022 0.42471 0.0
C78 C 0.67423 0.04031 0.39814 0.0
C79 C 0.71244 0.04527 0.39981 0.0
N80 N 0.83101 0.04842 0.41673 0.0
C81 C 0.90256 0.08313 0.41922 0.0
C82 C 0.90349 0.04735 0.41891 0.0
C83 C 0.86689 0.01236 0.41743 0.0
C84 C 0.83155 0.01355 0.41629 0.0
C85 C 0.86625 0.083 0.4182 0.0
H86 H 0.80451 0.9858 0.41506 0.0
H87 H 0.86666 0.11089 0.41854 0.0
H88 H 0.71502 0.03949 0.43524 0.0
H89 H 0.7297 0.04889 0.39034 0.0
C90 C 0.72503 0.9533 0.40892 0.0
C91 C 0.81469 0.06602 0.37974 0.0
C92 C 0.77559 0.0318 0.4518 0.0
C93 C 0.80665 0.14 0.41952 0.0
H94 H 0.78652 0.9887 0.366 0.0
H95 H 0.73257 0.92868 0.381 0.0
H96 H 0.69538 0.90507 0.43404 0.0
H97 H 0.72635 0.94815 0.45741 0.0
H98 H 0.80332 0.10655 0.46609 0.0
H99 H 0.81624 0.16515 0.44857 0.0
H100 H 0.82877 0.18647 0.39403 0.0
H101 H 0.83446 0.14634 0.37236 0.0
H102 H 0.64985 0.03307 0.43316 0.0
H103 H 0.66375 0.03951 0.38741 0.0
H104 H 0.92968 0.11131 0.4201 0.0
H105 H 0.8651 0.98377 0.41739 0.0
C106 C 0.77144 0.77577 0.71623 0.0
C107 C 0.78912 0.75915 0.70803 0.0
C108 C 0.7892 0.72972 0.71609 0.0
C109 C 0.77272 0.73043 0.72895 0.0
N110 N 0.76259 0.75873 0.72941 0.0
Co111 Co 0.74653 0.77622 0.74676 0.0
N112 N 0.76642 0.74986 0.75975 0.0
C113 C 0.7735 0.72065 0.75604 0.0
C114 C 0.78578 0.70708 0.76737 0.0
C115 C 0.78592 0.72884 0.7789 0.0
C116 C 0.77373 0.75461 0.77396 0.0
N117 N 0.73095 0.79501 0.76386 0.0
C118 C 0.74248 0.7973 0.7776 0.0
C119 C 0.72302 0.81115 0.78625 0.0
C120 C 0.698 0.81699 0.77762 0.0
C121 C 0.70362 0.80657 0.76423 0.0
N122 N 0.72511 0.80126 0.73397 0.0
C123 C 0.69616 0.80914 0.73736 0.0
C124 C 0.68311 0.82135 0.72591 0.0
C125 C 0.70533 0.82116 0.71461 0.0
C126 C 0.73139 0.80957 0.71991 0.0
N127 N 0.69407 0.72653 0.74673 0.0
C128 C 0.62288 0.65187 0.74722 0.0
C129 C 0.64263 0.67094 0.75982 0.0
C130 C 0.67777 0.70769 0.75935 0.0
C131 C 0.63979 0.67136 0.7343 0.0
C132 C 0.67502 0.70867 0.73429 0.0
N133 N 0.79977 0.82466 0.74678 0.0
C134 C 0.84453 0.89587 0.74598 0.0
C135 C 0.87784 0.89071 0.74472 0.0
C136 C 0.87076 0.85182 0.74515 0.0
C137 C 0.83223 0.81982 0.74603 0.0
C138 C 0.80572 0.86243 0.747 0.0
H139 H 0.82904 0.79086 0.74577 0.0
H140 H 0.78057 0.86702 0.74768 0.0
H141 H 0.69208 0.72043 0.76933 0.0
H142 H 0.68705 0.72286 0.72417 0.0
C143 C 0.77545 0.71246 0.74158 0.0
C144 C 0.76096 0.80578 0.71132 0.0
C145 C 0.76713 0.7815 0.78307 0.0
C146 C 0.68681 0.81078 0.75164 0.0
H147 H 0.80214 0.76784 0.69757 0.0
H148 H 0.80265 0.71215 0.71329 0.0
H149 H 0.79506 0.68513 0.76718 0.0
H150 H 0.79397 0.72602 0.7897 0.0
H151 H 0.72553 0.81524 0.79769 0.0
H152 H 0.67835 0.82784 0.78072 0.0
H153 H 0.66103 0.83051 0.72584 0.0
H154 H 0.70259 0.82875 0.70374 0.0
H155 H 0.63128 0.65725 0.77009 0.0
H156 H 0.62557 0.65824 0.72427 0.0
H157 H 0.84824 0.92528 0.74575 0.0
H158 H 0.89505 0.84579 0.7446 0.0
C159 C 0.99101 0.75294 0.05022 0.0
C160 C 1.01989 0.76342 0.0398 0.0
C161 C 0.05404 0.77055 0.04668 0.0
C162 C 0.04422 0.76398 0.06089 0.0
N163 N 1.00611 0.7534 0.06335 0.0
Co164 Co 0.97988 0.74067 0.08231 0.0
N165 N 0.03121 0.76643 0.09267 0.0
C166 C 0.06652 0.7751 0.08709 0.0
C167 C 0.09676 0.79176 0.09689 0.0
C168 C 0.07922 0.79329 0.10941 0.0
C169 C 0.03915 0.7775 0.10655 0.0
N170 N 0.95291 0.72802 0.10115 0.0
C171 C 0.96725 0.74328 0.11418 0.0
C172 C 0.93786 0.72586 0.12454 0.0
C173 C 0.90427 0.6983 0.11776 0.0
C174 C 0.91485 0.70054 0.10371 0.0
N175 N 0.92832 0.71427 0.0721 0.0
C176 C 0.89282 0.68853 0.07782 0.0
C177 C 0.86189 0.67713 0.06852 0.0
C178 C 0.87887 0.69661 0.05611 0.0
C179 C 0.9196 0.71842 0.05846 0.0
N180 N 0.98106 0.68997 0.08276 0.0
C181 C 0.9978 0.62647 0.08327 0.0
C182 C 0.99855 0.64698 0.0957 0.0
C183 C 0.99053 0.6783 0.09522 0.0
C184 C 0.98547 0.63697 0.07068 0.0
C185 C 0.97705 0.66846 0.07067 0.0
N186 N 0.98061 0.79201 0.08193 0.0
C187 C 0.94821 0.83113 0.08408 0.0
C188 C 0.98389 0.86646 0.0812 0.0
C189 C 1.01781 0.8634 0.07883 0.0
C190 C 1.01546 0.82623 0.07906 0.0
C191 C 0.94729 0.79447 0.08457 0.0
H192 H 0.04212 0.82536 0.07675 0.0
H193 H 0.91955 0.7681 0.08699 0.0
H194 H 0.99374 0.6941 0.10497 0.0
H195 H 0.96878 0.67632 0.06073 0.0
C196 C 0.07066 0.77255 0.07231 0.0
C197 C 0.94897 0.73969 0.04717 0.0
C198 C 1.00907 0.77093 0.11737 0.0
C199 C 0.88858 0.68224 0.09249 0.0
H200 H 1.01649 0.76538 0.02844 0.0
H201 H 0.08284 0.78042 0.04192 0.0
H202 H 0.128 0.80259 0.09507 0.0
H203 H 0.09407 0.80442 0.11951 0.0
H204 H 0.94046 0.73193 0.13585 0.0
H205 H 0.87528 0.67981 0.12244 0.0
H206 H 0.83052 0.65862 0.0707 0.0
H207 H 0.86287 0.69485 0.04646 0.0
H208 H 1.00631 0.63963 0.10588 0.0
H209 H 0.98391 0.62217 0.06075 0.0
H210 H 0.92109 0.83179 0.08601 0.0
H211 H 0.0459 0.88949 0.07632 0.0
C212 C 0.23911 0.98427 0.38455 0.0
C213 C 0.25849 1.01118 0.37364 0.0
C214 C 0.28845 0.04467 0.37985 0.0
C215 C 0.28584 0.03645 0.39418 0.0
N216 N 0.25583 1.00004 0.39739 0.0
Co217 Co 0.24353 0.97611 0.41681 0.0
N218 N 0.27589 0.0282 0.42629 0.0
C219 C 0.30379 0.06148 0.41993 0.0
C220 C 0.3219 0.0928 0.42921 0.0
C221 C 0.30449 0.07814 0.44223 0.0
C222 C 0.27662 0.0386 0.44015 0.0
N223 N 0.2311 0.95169 0.43611 0.0
C224 C 0.23534 0.96848 0.44909 0.0
C225 C 0.22272 0.94021 0.45985 0.0
C226 C 0.21076 0.90465 0.45338 0.0
C227 C 0.21648 0.91308 0.4391 0.0
N228 N 0.21105 0.92379 0.40748 0.0
C229 C 0.19737 0.88814 0.41371 0.0
C230 C 0.1733 0.85709 0.40505 0.0
C231 C 0.172 0.87406 0.39248 0.0
C232 C 0.19611 0.91476 0.39408 0.0
N233 N 0.2917 0.97049 0.41586 0.0
C234 C 0.36859 0.97967 0.41253 0.0
C235 C 0.35591 0.98663 0.42568 0.0
C236 C 0.31766 0.98194 0.42711 0.0
C237 C 0.34051 0.96511 0.40144 0.0
C238 C 0.30243 0.96034 0.40334 0.0
N239 N 0.19667 0.98359 0.41766 0.0
C240 C 0.12757 0.96145 0.42304 0.0
C241 C 0.13283 0.99899 0.41971 0.0
C242 C 0.17043 0.02796 0.41498 0.0
C243 C 0.20146 0.0197 0.41394 0.0
C244 C 0.15991 0.95445 0.42205 0.0
H245 H 0.2297 0.04312 0.41028 0.0
H246 H 0.15532 0.92571 0.42502 0.0
H247 H 0.30997 0.98957 0.43719 0.0
H248 H 0.28235 0.95017 0.39441 0.0
C249 C 0.30776 0.06329 0.40504 0.0
C250 C 0.20772 0.94292 0.38214 0.0
C251 C 0.25362 1.01106 0.45169 0.0
C252 C 0.20209 0.88504 0.42827 0.0
H253 H 0.25206 1.00677 0.36235 0.0
H254 H 0.3092 0.07196 0.37456 0.0
H255 H 0.34428 0.12296 0.42674 0.0
H256 H 0.31173 0.09446 0.45213 0.0
H257 H 0.22224 0.94467 0.47121 0.0
H258 H 0.19786 0.87589 0.45844 0.0
H259 H 0.15734 0.82591 0.40771 0.0
H260 H 0.15564 0.85811 0.38311 0.0
H261 H 0.37612 0.99775 0.43463 0.0
H262 H 0.3482 0.95828 0.39115 0.0
H263 H 0.09911 0.9381 0.42681 0.0
H264 H 0.17605 0.05726 0.41215 0.0
C265 C 0.2528 0.24265 0.71575 0.0
C266 C 0.23262 0.25671 0.7076 0.0
C267 C 0.22864 0.28364 0.71583 0.0
C268 C 0.24546 0.284 0.72872 0.0
N269 N 0.25952 0.25873 0.72907 0.0
Co270 Co 0.27819 0.24359 0.74636 0.0
N271 N 0.25375 0.26527 0.75946 0.0
C272 C 0.24265 0.29171 0.75585 0.0
C273 C 0.22784 0.30249 0.76722 0.0
C274 C 0.23021 0.28179 0.77868 0.0
C275 C 0.24628 0.25937 0.77365 0.0
N276 N 0.29655 0.22725 0.76344 0.0
C277 C 0.28446 0.22329 0.77718 0.0
C278 C 0.3062 0.21196 0.78576 0.0
C279 C 0.33329 0.20958 0.77709 0.0
C280 C 0.32651 0.21935 0.76375 0.0
N281 N 0.30381 0.223 0.73343 0.0
C282 C 0.33484 0.21836 0.73683 0.0
C283 C 0.34978 0.2082 0.72538 0.0
C284 C 0.32662 0.20629 0.71407 0.0
C285 C 0.29821 0.21471 0.71934 0.0
N286 N 0.32773 0.29617 0.74651 0.0
C287 C 0.39211 0.37545 0.74731 0.0
C288 C 0.37396 0.35422 0.75982 0.0
C289 C 0.34218 0.31526 0.75921 0.0
C290 C 0.37847 0.35491 0.73434 0.0
C291 C 0.34639 0.31545 0.73417 0.0
N292 N 0.22798 0.19206 0.7463 0.0
C293 C 0.19109 0.1204 0.74628 0.0
C294 C 0.1546 0.11989 0.7455 0.0
C295 C 0.15608 0.15648 0.74527 0.0
C296 C 0.19263 0.19178 0.74556 0.0
C297 C 0.22731 0.15666 0.7468 0.0
H298 H 0.19198 0.21897 0.74496 0.0
H299 H 0.25476 0.15613 0.74748 0.0
H300 H 0.32851 0.30113 0.76913 0.0
H301 H 0.33594 0.30098 0.72401 0.0
C302 C 0.23998 0.29976 0.74143 0.0
C303 C 0.26737 0.21597 0.71064 0.0
C304 C 0.25644 0.23489 0.78272 0.0
C305 C 0.3446 0.21743 0.75112 0.0
H306 H 0.22052 0.24782 0.69703 0.0
H307 H 0.21257 0.29875 0.71309 0.0
H308 H 0.2154 0.32188 0.7671 0.0
H309 H 0.22129 0.28312 0.7895 0.0
H310 H 0.30363 0.20711 0.79717 0.0
H311 H 0.35495 0.20124 0.78013 0.0
H312 H 0.37376 0.20168 0.72532 0.0
H313 H 0.33038 0.19952 0.70321 0.0
H314 H 0.3837 0.36789 0.77018 0.0
H315 H 0.39133 0.36965 0.72434 0.0
H316 H 0.19171 0.09295 0.74655 0.0
H317 H 0.12911 0.158 0.7444 0.0
C318 C 0.78575 0.99743 0.62362 0.0
C319 C 0.81092 0.02567 0.6333 0.0
C320 C 0.83227 0.0602 0.62586 0.0
C321 C 0.81929 0.05124 0.61206 0.0
N322 N 0.79021 0.0134 0.61028 0.0
Co323 Co 0.76865 0.98736 0.59135 0.0
N324 N 0.79622 0.0387 0.58075 0.0
C325 C 0.82438 0.07358 0.58604 0.0
C326 C 0.83817 0.10388 0.57628 0.0
C327 C 0.81759 0.08703 0.564 0.0
C328 C 0.79239 0.0473 0.56698 0.0
N329 N 0.74792 0.96063 0.57263 0.0
C330 C 0.74924 0.976 0.55955 0.0
C331 C 0.73219 0.94647 0.54929 0.0
C332 C 0.71938 0.91135 0.55619 0.0
C333 C 0.72943 0.92132 0.57018 0.0
N334 N 0.74005 0.93602 0.60187 0.0
C335 C 0.71808 0.8998 0.5961 0.0
C336 C 0.69696 0.87069 0.60592 0.0
C337 C 0.70689 0.88944 0.61879 0.0
C338 C 0.73437 0.92889 0.61607 0.0
N339 N 0.72146 0.99449 0.59364 0.0
C340 C 0.65615 1.00837 0.5963 0.0
C341 C 0.65089 0.97201 0.59129 0.0
C342 C 0.68367 0.96571 0.59006 0.0
C343 C 0.69524 0.03754 0.59965 0.0
C344 C 0.72687 0.03007 0.59835 0.0
N345 N 0.81689 0.98214 0.58891 0.0
C346 C 0.87177 0.97962 0.60012 0.0
C347 C 0.89596 0.99682 0.58817 0.0
C348 C 0.87862 1.00319 0.57612 0.0
C349 C 0.83912 0.99538 0.57666 0.0
C350 C 0.83236 0.97181 0.60014 0.0
H351 H 0.82759 1.00238 0.56737 0.0
H352 H 0.81543 0.95946 0.60961 0.0
H353 H 0.67815 0.93745 0.58618 0.0
H354 H 0.75594 0.05365 0.60108 0.0
C355 C 0.83423 0.07724 0.60048 0.0
C356 C 0.76178 0.9549 0.62704 0.0
C357 C 0.76737 0.01816 0.55626 0.0
C358 C 0.71603 0.89456 0.58143 0.0
H359 H 0.81484 0.02162 0.64445 0.0
H360 H 0.85546 0.08821 0.62996 0.0
H361 H 0.86008 0.13467 0.57795 0.0
H362 H 0.82105 0.10207 0.55394 0.0
H363 H 0.72901 0.94985 0.538 0.0
H364 H 0.70316 0.88198 0.55165 0.0
H365 H 0.67708 0.83951 0.60398 0.0
H366 H 0.6977 0.87522 0.6291 0.0
H367 H 0.62156 0.94821 0.58857 0.0
H368 H 0.70183 0.0666 0.60319 0.0
H369 H 0.88371 0.97367 0.60963 0.0
H370 H 0.8961 0.0162 0.56659 0.0
C371 C 0.79686 0.76057 0.95478 0.0
C372 C 0.7898 0.78091 0.96544 0.0
C373 C 0.77808 0.80466 0.95881 0.0
C374 C 0.77823 0.79728 0.94452 0.0
N375 N 0.78863 0.76982 0.94166 0.0
Co376 Co 0.79234 0.75078 0.92217 0.0
N377 N 0.76614 0.77798 0.91288 0.0
C378 C 0.7593 0.80518 0.91908 0.0
C379 C 0.7427 0.82056 0.91005 0.0
C380 C 0.73946 0.80254 0.89722 0.0
C381 C 0.75441 0.77717 0.89916 0.0
N382 N 0.79559 0.73092 0.90282 0.0
C383 C 0.77889 0.7319 0.89022 0.0
C384 C 0.78859 0.71356 0.87949 0.0
C385 C 0.81267 0.70146 0.88544 0.0
C386 C 0.81628 0.71284 0.89939 0.0
N387 N 0.8198 0.72459 0.93128 0.0
C388 C 0.83961 0.70953 0.92431 0.0
C389 C 0.85965 0.69738 0.93302 0.0
C390 C 0.85251 0.70542 0.94644 0.0
C391 C 0.82782 0.7216 0.94518 0.0
N392 N 0.73923 0.70248 0.92501 0.0
C393 C 0.66069 0.63626 0.92772 0.0
C394 C 0.69254 0.63166 0.92291 0.0
C395 C 0.7314 0.66496 0.92167 0.0
C396 C 0.66968 0.67506 0.93094 0.0
C397 C 0.70842 0.70703 0.92968 0.0
N398 N 0.84451 0.80001 0.9193 0.0
C399 C 0.88547 0.85725 0.90457 0.0
C400 C 0.90896 0.87878 0.91625 0.0
C401 C 0.90135 0.85825 0.92926 0.0
C402 C 0.86959 0.819 0.93048 0.0
C403 C 0.85369 0.81856 0.90631 0.0
H404 H 0.86457 0.80487 0.94074 0.0
H405 H 0.83573 0.80455 0.89716 0.0
H406 H 0.75494 0.66025 0.91795 0.0
H407 H 0.713 0.73574 0.93238 0.0
C408 C 0.76607 0.81325 0.93363 0.0
C409 C 0.8151 0.73595 0.95743 0.0
C410 C 0.76012 0.75579 0.88735 0.0
C411 C 0.83703 0.70506 0.90965 0.0
H412 H 0.79362 0.7795 0.9768 0.0
H413 H 0.77012 0.82472 0.96382 0.0
H414 H 0.73384 0.84216 0.91249 0.0
H415 H 0.72822 0.80806 0.88745 0.0
H416 H 0.78069 0.71057 0.86834 0.0
H417 H 0.82611 0.68633 0.8802 0.0
H418 H 0.87748 0.68437 0.92997 0.0
H419 H 0.86517 0.70077 0.95599 0.0
H420 H 0.68773 0.60254 0.92032 0.0
H421 H 0.64671 0.6812 0.93433 0.0
H422 H 0.89076 0.87038 0.89405 0.0
H423 H 0.91859 0.87273 0.93865 0.0
C424 C 0.04888 0.77934 0.28814 0.0
C425 C 0.02046 0.76122 0.29872 0.0
C426 C 0.98701 0.73183 0.29222 0.0
C427 C 0.99675 0.73345 0.27806 0.0
N428 N 0.03412 0.76222 0.27527 0.0
Co429 Co 0.06012 0.77365 0.25629 0.0
N430 N 1.0088 0.74456 0.24612 0.0
C431 C 0.9741 0.71763 0.25195 0.0
C432 C 0.9436 0.70243 0.24221 0.0
C433 C 0.96041 0.72092 0.2295 0.0
C434 C 1.00029 0.74646 0.23221 0.0
N435 N 0.08664 0.78525 0.23744 0.0
C436 C 0.07169 0.78366 0.22431 0.0
C437 C 0.10071 0.79411 0.21391 0.0
C438 C 0.13486 0.80209 0.22084 0.0
C439 C 0.12488 0.79625 0.23501 0.0
N440 N 0.11175 0.80292 0.26632 0.0
C441 C 0.1476 0.81337 0.26074 0.0
C442 C 0.17835 0.83591 0.26978 0.0
C443 C 0.16084 0.8396 0.28187 0.0
C444 C 0.12004 0.81835 0.27963 0.0
N445 N 0.06221 0.72354 0.25749 0.0
C446 C 0.05707 0.64795 0.26022 0.0
C447 C 0.06827 0.67481 0.27171 0.0
C448 C 0.07108 0.71207 0.2701 0.0
C449 C 0.04893 0.66068 0.24724 0.0
C450 C 0.05161 0.69814 0.24611 0.0
N451 N 0.05645 0.82262 0.25519 0.0
C452 C 0.08517 0.89328 0.25137 0.0
C453 C 0.0494 0.89157 0.25524 0.0
C454 C 1.01731 0.85456 0.25885 0.0
C455 C 0.02133 0.82076 0.25871 0.0
C456 C 0.08803 0.8585 0.25135 0.0
H457 H 0.99592 0.79309 0.26177 0.0
H458 H 0.11597 0.86074 0.24848 0.0
H459 H 0.07964 0.7313 0.27925 0.0
H460 H 0.04449 0.70626 0.236 0.0
C461 C 0.97043 0.71288 0.26684 0.0
C462 C 0.09039 0.81021 0.29086 0.0
C463 C 0.02994 0.77023 0.22132 0.0
C464 C 0.15176 0.80808 0.24627 0.0
H465 H 0.02371 0.76829 0.30996 0.0
H466 H 0.95865 0.71241 0.29718 0.0
H467 H 0.91259 0.68158 0.2442 0.0
H468 H 0.94522 0.71611 0.21941 0.0
H469 H 0.09767 0.79586 0.20251 0.0
H470 H 0.16389 0.81272 0.21616 0.0
H471 H 0.20982 0.84964 0.26762 0.0
H472 H 0.1765 0.85593 0.29127 0.0
H473 H 0.07418 0.66709 0.28213 0.0
H474 H 0.04075 0.64203 0.23789 0.0
H475 H 0.11098 0.92141 0.24871 0.0
H476 H 0.98934 0.85186 0.26211 0.0
C477 C 0.27101 0.03984 0.62203 0.0
C478 C 0.25233 1.00859 0.63155 0.0
C479 C 0.24938 0.97575 0.62486 0.0
C480 C 0.26605 0.98844 0.61159 0.0
N481 N 0.2792 0.02718 0.60964 0.0
Co482 Co 0.30014 0.05667 0.59155 0.0
N483 N 0.27679 1.00784 0.58001 0.0
C484 C 0.26519 0.97132 0.58499 0.0
C485 C 0.25011 0.94327 0.57438 0.0
C486 C 0.25273 0.96369 0.56205 0.0
C487 C 0.2692 1.00315 0.56582 0.0
N488 N 0.3209 0.08705 0.57369 0.0
C489 C 0.30935 0.07592 0.56009 0.0
C490 C 0.33246 0.10638 0.55068 0.0
C491 C 0.35968 0.13739 0.55876 0.0
C492 C 0.35164 0.12424 0.57261 0.0
N493 N 0.32452 0.10558 0.60296 0.0
C494 C 0.35603 0.14033 0.59911 0.0
C495 C 0.36805 0.1683 0.60969 0.0
C496 C 0.34239 0.14982 0.62082 0.0
C497 C 0.3159 0.11162 0.61632 0.0
N498 N 0.34951 0.05347 0.59356 0.0
C499 C 0.41892 0.04666 0.59671 0.0
C500 C 0.4007 0.0424 0.58336 0.0
C501 C 0.36629 0.04573 0.58204 0.0
C502 C 0.40072 0.05398 0.60843 0.0
C503 C 0.3667 0.05757 0.60664 0.0
N504 N 0.25023 0.05837 0.58962 0.0
C505 C 0.21375 0.09336 0.58696 0.0
C506 C 0.17709 0.05797 0.58853 0.0
C507 C 0.17835 0.02301 0.59048 0.0
C508 C 0.21473 0.02387 0.59107 0.0
C509 C 0.24985 0.09289 0.58743 0.0
H510 H 0.21387 0.99627 0.593 0.0
H511 H 0.27745 0.12042 0.5862 0.0
H512 H 0.35328 0.042 0.5716 0.0
H513 H 0.35412 0.06345 0.61593 0.0
C514 C 0.26156 0.96408 0.59981 0.0
C515 C 0.28302 0.08173 0.62493 0.0
C516 C 0.27923 0.0359 0.55578 0.0
C517 C 0.36818 0.1474 0.58483 0.0
H518 H 0.24128 1.00892 0.64207 0.0
H519 H 0.23445 0.94571 0.62888 0.0
H520 H 0.23703 0.91156 0.57555 0.0
H521 H 0.24352 0.95108 0.55152 0.0
H522 H 0.33032 0.10604 0.53917 0.0
H523 H 0.38189 0.16637 0.55501 0.0
H524 H 0.3914 0.19894 0.60915 0.0
H525 H 0.34274 0.16301 0.631 0.0
H526 H 0.41316 0.03711 0.57387 0.0
H527 H 0.41227 0.05659 0.6191 0.0
H528 H 0.21461 0.12127 0.58534 0.0
H529 H 0.15131 0.995 0.59204 0.0
C530 C 0.24407 0.26213 0.95358 0.0
C531 C 0.25947 0.24914 0.96427 0.0
C532 C 0.28941 0.24501 0.95818 0.0
C533 C 0.29083 0.25582 0.94414 0.0
N534 N 0.26357 0.26634 0.9411 0.0
Co535 Co 0.25516 0.28345 0.92219 0.0
N536 N 0.2829 0.25963 0.91213 0.0
C537 C 0.30826 0.2499 0.91814 0.0
C538 C 0.32288 0.23389 0.90846 0.0
C539 C 0.30572 0.23386 0.89562 0.0
C540 C 0.28145 0.2498 0.89819 0.0
N541 N 0.24629 0.30062 0.90333 0.0
C542 C 0.2478 0.28744 0.89015 0.0
C543 C 0.23922 0.30757 0.8798 0.0
C544 C 0.23278 0.33465 0.88681 0.0
C545 C 0.23752 0.32944 0.90099 0.0
N546 N 0.22756 0.30765 0.93218 0.0
C547 C 0.22026 0.33537 0.92675 0.0
C548 C 0.19817 0.34454 0.93569 0.0
C549 C 0.19131 0.32135 0.9475 0.0
C550 C 0.21039 0.29969 0.94526 0.0
N551 N 0.30669 0.33389 0.92393 0.0
C552 C 0.38297 0.40307 0.9271 0.0
C553 C 0.35589 0.38684 0.93855 0.0
C554 C 0.31826 0.35306 0.93673 0.0
C555 C 0.37025 0.38322 0.91396 0.0
C556 C 0.33248 0.34895 0.91263 0.0
N557 N 0.20466 0.23262 0.92051 0.0
C558 C 0.13448 0.19464 0.91523 0.0
C559 C 0.13345 0.15856 0.91808 0.0
C560 C 0.16922 0.16102 0.92232 0.0
C561 C 0.20403 0.1979 0.92351 0.0
C562 C 0.17017 0.23107 0.91643 0.0
H563 H 0.23065 0.19812 0.92679 0.0
H564 H 0.16989 0.25802 0.91405 0.0
H565 H 0.29869 0.34204 0.94582 0.0
H566 H 0.32436 0.33446 0.9024 0.0
C567 C 0.31168 0.24973 0.93308 0.0
C568 C 0.21324 0.27317 0.95583 0.0
C569 C 0.25961 0.25788 0.88712 0.0
C570 C 0.22679 0.34538 0.91231 0.0
H571 H 0.25015 0.24343 0.9753 0.0
H572 H 0.30689 0.23391 0.96327 0.0
H573 H 0.34241 0.22218 0.91057 0.0
H574 H 0.31058 0.22351 0.88554 0.0
H575 H 0.23771 0.30327 0.86838 0.0
H576 H 0.2239 0.35445 0.88216 0.0
H577 H 0.1862 0.36381 0.93352 0.0
H578 H 0.17352 0.32031 0.95651 0.0
H579 H 0.36363 0.39956 0.9491 0.0
H580 H 0.38907 0.39409 0.90463 0.0
H581 H 0.10786 0.19501 0.91216 0.0
H582 H 0.17083 0.13458 0.92445 0.0
C583 C 0.99807 0.22855 0.28927 0.0
C584 C 0.02666 0.23128 0.29876 0.0
C585 C 0.06076 0.24366 0.29109 0.0
C586 C 0.05122 0.24757 0.27735 0.0
N587 N 1.01341 0.23949 0.27582 0.0
Co588 Co 0.98636 0.23444 0.25703 0.0
N589 N 0.03702 0.25618 0.24599 0.0
C590 C 0.07215 0.26291 0.25111 0.0
C591 C 0.10186 0.27791 0.24109 0.0
C592 C 0.08434 0.28058 0.22879 0.0
C593 C 0.04483 0.26698 0.23204 0.0
N594 N 0.95842 0.22743 0.23849 0.0
C595 C 0.97296 0.23919 0.22515 0.0
C596 C 0.94263 0.22667 0.21518 0.0
C597 C 0.90784 0.20664 0.22251 0.0
C598 C 0.91879 0.2079 0.23646 0.0
N599 N 0.93576 0.21414 0.26802 0.0
C600 C 0.89926 0.20093 0.26257 0.0
C601 C 0.87107 0.19454 0.2726 0.0
C602 C 0.89069 0.20331 0.28531 0.0
C603 C 0.92966 0.21365 0.28228 0.0
N604 N 0.99536 0.28961 0.25879 0.0
C605 C 1.0119 0.36983 0.26085 0.0
C606 C 0.97468 0.33905 0.25627 0.0
C607 C 0.9671 0.29951 0.2553 0.0
C608 C 0.04053 0.35894 0.26407 0.0
C609 C 0.03173 0.31941 0.2631 0.0
N610 N 0.97934 0.18009 0.25518 0.0
C611 C 0.97024 0.12094 0.26712 0.0
C612 C 0.99007 0.11297 0.25623 0.0
C613 C 1.00047 0.13721 0.24406 0.0
C614 C 0.9944 0.17007 0.24368 0.0
C615 C 0.96512 0.15408 0.26635 0.0
H616 H 1.00382 0.18832 0.23427 0.0
H617 H 0.95123 0.15936 0.27518 0.0
H618 H 0.93824 0.27716 0.25171 0.0
H619 H 0.05497 0.31331 0.26578 0.0
C620 C 0.07653 0.25757 0.26558 0.0
C621 C 0.95584 0.21165 0.29309 0.0
C622 C 1.015 0.26161 0.22137 0.0
C623 C 0.8929 0.19671 0.24796 0.0
H624 H 0.02313 0.22373 0.30994 0.0
H625 H 0.08883 0.24798 0.29499 0.0
H626 H 0.13268 0.28629 0.24257 0.0
H627 H 0.09872 0.29065 0.21854 0.0
H628 H 0.94527 0.23182 0.2038 0.0
H629 H 0.87811 0.1941 0.21826 0.0
H630 H 0.83987 0.18419 0.27091 0.0
H631 H 0.87723 0.19927 0.29573 0.0
H632 H 0.95117 0.34517 0.25365 0.0
H633 H 0.07023 0.38095 0.26723 0.0
H634 H 0.95962 0.10233 0.27651 0.0
H635 H 1.01504 0.13218 0.23514 0.0
H636 H 0.02735 0.21905 0.20082 0.0
H637 H 0.02098 0.32551 0.20752 0.0
H638 H 0.02055 0.33471 0.1814 0.0
H639 H 0.09076 0.25384 0.16825 0.0
H640 H 0.06514 0.20551 0.16018 0.0
H641 H 0.06905 0.21011 0.17929 0.0
H642 H 0.99253 0.16747 0.18117 0.0
H643 H 0.98829 0.16375 0.16206 0.0
H644 H 0.96197 0.18305 0.17196 0.0
H645 H 1.01531 0.32921 0.15463 0.0
H646 H 1.0145 0.31435 0.12895 0.0
H647 H 0.02382 0.21108 0.13937 0.0
C648 C 0.02747 0.24508 0.19671 0.0
C649 C 0.02532 0.27229 0.20609 0.0
C650 C 0.02379 0.30512 0.20045 0.0
C651 C 0.02304 0.31023 0.18565 0.0
C652 C 0.02376 0.28215 0.17664 0.0
C653 C 0.02673 0.25061 0.18193 0.0
C654 C 0.02592 0.22411 0.16993 0.0
C655 C 0.06505 0.22336 0.16938 0.0
C656 C 0.99004 0.18211 0.17137 0.0
C657 C 0.02162 0.24538 0.15709 0.0
C658 C 0.02022 0.27869 0.16122 0.0
C659 C 1.01643 0.30324 0.15129 0.0
C660 C 1.01549 0.29434 0.13675 0.0
C661 C 1.01825 0.26118 0.13224 0.0
C662 C 0.02072 0.23607 0.14258 0.0
H663 H 0.82509 0.03714 0.47375 0.0
H664 H 0.70707 0.01651 0.46476 0.0
H665 H 0.69448 0.01698 0.49061 0.0
H666 H 0.79753 0.97481 0.50566 0.0
H667 H 0.84327 1.00717 0.51476 0.0
H668 H 0.84229 1.00467 0.49559 0.0
H669 H 0.87158 0.08064 0.49447 0.0
H670 H 0.87167 0.08318 0.51364 0.0
H671 H 0.84607 0.10253 0.50332 0.0
H672 H 0.69521 0.02113 0.51734 0.0
H673 H 0.70599 0.01997 0.54331 0.0
H674 H 0.82311 0.037 0.53529 0.0
C675 C 0.79642 0.03201 0.47732 0.0
C676 C 0.76673 0.02619 0.46737 0.0
C677 C 0.72979 0.02031 0.4723 0.0
C678 C 0.7226 0.02095 0.48693 0.0
C679 C 0.75268 0.02749 0.4965 0.0
C680 C 0.78862 0.03224 0.49194 0.0
C681 C 0.81546 0.03775 0.50452 0.0
C682 C 0.8252 1.00409 0.50517 0.0
C683 C 0.85345 0.07845 0.50395 0.0
C684 C 0.78901 0.03534 0.51684 0.0
C685 C 0.75309 0.02988 0.51195 0.0
C686 C 0.72331 0.02565 0.52129 0.0
C687 C 0.72978 0.02548 0.536 0.0
C688 C 0.76569 0.02949 0.54123 0.0
C689 C 0.79594 0.03521 0.53153 0.0
H690 H 0.7243 0.72548 0.80329 0.0
H691 H 0.82431 0.84375 0.79789 0.0
H692 H 0.83053 0.85196 0.82415 0.0
H693 H 0.68098 0.74747 0.83288 0.0
H694 H 0.66504 0.70116 0.84196 0.0
H695 H 0.66953 0.70367 0.82283 0.0
H696 H 0.71744 0.67559 0.82384 0.0
H697 H 0.71233 0.67211 0.84295 0.0
H698 H 0.7609 0.69942 0.835 0.0
H699 H 0.8252 0.84722 0.85099 0.0
H700 H 0.81226 0.82814 0.8764 0.0
H701 H 0.71391 0.71375 0.86449 0.0
C702 C 0.74804 0.75267 0.80772 0.0
C703 C 0.77454 0.78374 0.79869 0.0
C704 C 0.80443 0.81944 0.80472 0.0
C705 C 0.80787 0.82441 0.81958 0.0
C706 C 0.78085 0.79349 0.82823 0.0
C707 C 0.75171 0.75817 0.82253 0.0
C708 C 0.72626 0.72975 0.83418 0.0
C709 C 0.68288 0.71995 0.83288 0.0
C710 C 0.72944 0.69199 0.83398 0.0
C711 C 0.74575 0.75444 0.84734 0.0
C712 C 0.77708 0.7912 0.84366 0.0
C713 C 0.80061 0.81863 0.85397 0.0
C714 C 0.79286 0.8077 0.86838 0.0
C715 C 0.76184 0.7697 0.87237 0.0
C716 C 0.7373 0.74324 0.86171 0.0
H717 H 1.01907 0.72726 0.13796 0.0
H718 H 1.0189 0.83687 0.13101 0.0
H719 H 0.02084 0.84739 0.15715 0.0
H720 H 0.95401 0.69554 0.16715 0.0
H721 H 0.97802 0.67343 0.17687 0.0
H722 H 0.98143 0.67665 0.15772 0.0
H723 H 0.05825 0.71463 0.15902 0.0
H724 H 0.05507 0.71037 0.17815 0.0
H725 H 0.08321 0.75837 0.16992 0.0
H726 H 1.01981 0.844 0.18424 0.0
H727 H 0.0216 0.82978 0.20993 0.0
H728 H 1.01806 0.72024 0.19912 0.0
C729 C 0.02094 0.75415 0.142 0.0
C730 C 1.01995 0.78191 0.13257 0.0
C731 C 0.02072 0.81595 0.13812 0.0
C732 C 0.02134 0.82183 0.15293 0.0
C733 C 0.02075 0.79313 0.162 0.0
C734 C 0.02104 0.76016 0.15674 0.0
C735 C 1.01866 0.73288 0.16871 0.0
C736 C 0.98077 0.69222 0.16753 0.0
C737 C 0.05602 0.72884 0.16896 0.0
C738 C 1.01699 0.75554 0.18155 0.0
C739 C 1.01824 0.79025 0.17748 0.0
C740 C 1.01852 0.81677 0.18752 0.0
C741 C 1.01904 0.8083 0.20207 0.0
C742 C 1.01883 0.77349 0.20642 0.0
C743 C 1.0169 0.74641 0.19602 0.0
H744 H 0.31437 0.01988 0.53341 0.0
H745 H 0.21749 0.03985 0.54402 0.0
H746 H 0.20268 0.04005 0.5183 0.0
H747 H 0.34844 0.08324 0.5032 0.0
H748 H 0.3611 0.05227 0.4928 0.0
H749 H 0.36245 0.0509 0.51197 0.0
H750 H 0.31389 0.97517 0.51186 0.0
H751 H 0.31327 0.97619 0.49268 0.0
H752 H 0.26738 0.95567 0.50251 0.0
H753 H 0.19941 0.03908 0.49123 0.0
H754 H 0.20489 0.03207 0.46516 0.0
H755 H 0.30589 0.01598 0.47217 0.0
C756 C 0.28943 0.02324 0.53026 0.0
C757 C 0.26636 0.02894 0.54061 0.0
C758 C 0.2348 0.03458 0.53619 0.0
C759 C 0.2265 0.0351 0.52163 0.0
C760 C 0.25035 0.03035 0.51162 0.0
C761 C 0.28096 0.02415 0.51575 0.0
C762 C 0.30258 0.02051 0.50289 0.0
C763 C 0.34623 0.05371 0.50271 0.0
C764 C 0.29905 0.97944 0.50246 0.0
C765 C 0.27939 0.02556 0.49087 0.0
C766 C 0.24939 0.03126 0.49612 0.0
C767 C 0.22301 0.03498 0.48702 0.0
C768 C 0.22653 0.03141 0.47224 0.0
C769 C 0.25634 0.02452 0.46672 0.0
C770 C 0.28361 0.02246 0.47615 0.0
H771 H 0.30106 0.28799 0.80339 0.0
H772 H 0.19585 0.17382 0.79715 0.0
H773 H 0.18717 0.16494 0.82338 0.0
H774 H 0.33826 0.26038 0.83352 0.0
H775 H 0.3568 0.30704 0.84259 0.0
H776 H 0.35379 0.30512 0.82343 0.0
H777 H 0.31057 0.33857 0.8238 0.0
H778 H 0.31416 0.34132 0.84294 0.0
H779 H 0.26614 0.31732 0.83452 0.0
H780 H 0.19033 0.16912 0.85051 0.0
H781 H 0.203 0.18761 0.87607 0.0
H782 H 0.30783 0.29767 0.86454 0.0
C783 C 0.27588 0.26148 0.80762 0.0
C784 C 0.24865 0.23177 0.79836 0.0
C785 C 0.21654 0.19705 0.80414 0.0
C786 C 0.21162 0.19172 0.81899 0.0
C787 C 0.23935 0.22128 0.82789 0.0
C788 C 0.27074 0.25561 0.8224 0.0
C789 C 0.29655 0.28273 0.83423 0.0
C790 C 0.33886 0.28918 0.83339 0.0
C791 C 0.29685 0.32233 0.83385 0.0
C792 C 0.27477 0.25851 0.84725 0.0
C793 C 0.24185 0.2231 0.84339 0.0
C794 C 0.21621 0.1966 0.85362 0.0
C795 C 0.22373 0.2071 0.8681 0.0
C796 C 0.25667 0.24361 0.8722 0.0
C797 C 0.28295 0.26916 0.86165 0.0
H798 H 0.12642 0.32255 0.02534 0.0
H799 H 0.05379 0.19675 0.03312 0.0
H800 H 0.07957 0.18309 0.01087 0.0
H801 H 0.12422 0.32149 0.98637 0.0
H802 H 0.17564 0.3593 0.98493 0.0
H803 H 0.14691 0.3583 1.00015 0.0
H804 H 0.1989 0.3564 0.01689 0.0
H805 H 0.22751 0.35682 1.00173 0.0
H806 H 0.21108 0.31775 0.01477 0.0
H807 H 0.11649 0.1842 0.98771 0.0
H808 H 0.15959 0.19996 0.96633 0.0
H809 H 0.2152 0.32472 0.97638 0.0
C810 C 0.11551 0.29211 0.02223 0.0
C811 C 0.08823 0.26063 0.03098 0.0
C812 C 0.07458 0.22124 0.02654 0.0
C813 C 0.08932 0.21329 0.01398 0.0
C814 C 0.11803 0.2451 0.00603 0.0
C815 C 0.13097 0.28377 0.01005 0.0
C816 C 0.16425 0.31279 1.00045 0.0
C817 C 0.15201 0.33954 0.9925 0.0
C818 C 0.20271 0.33738 0.00897 0.0
C819 C 0.16804 0.28461 0.99032 0.0
C820 C 0.14079 0.24567 0.99352 0.0
C821 C 0.13792 0.21464 0.98518 0.0
C822 C 0.16266 0.22378 0.97311 0.0
C823 C 0.19024 0.26354 0.96954 0.0
C824 C 0.19382 0.29405 0.97865 0.0
H825 H 0.89026 0.12586 0.37308 0.0
H826 H 0.7821 0.03547 0.35328 0.0
H827 H 0.81322 0.05619 0.32973 0.0
H828 H 0.89565 0.19676 0.34816 0.0
H829 H 0.94905 0.22607 0.34806 0.0
H830 H 0.92359 0.19762 0.36361 0.0
H831 H 0.96507 0.16246 0.36262 0.0
H832 H 0.99053 0.19066 0.34698 0.0
H833 H 0.96536 0.13736 0.34654 0.0
H834 H 0.85564 0.08716 0.30821 0.0
H835 H 0.89664 0.13484 0.28991 0.0
H836 H 0.96907 0.21803 0.32276 0.0
C837 C 0.87357 0.10962 0.36379 0.0
C838 C 0.8346 0.07659 0.36529 0.0
C839 C 0.81305 0.05805 0.35275 0.0
C840 C 0.83032 0.07031 0.3392 0.0
C841 C 0.8685 0.1029 0.33817 0.0
C842 C 0.88926 0.12337 0.35009 0.0
C843 C 0.92585 0.16229 0.34586 0.0
C844 C 0.92338 0.19779 0.35177 0.0
C845 C 0.96397 0.16324 0.3508 0.0
C846 C 0.92245 0.16029 0.32968 0.0
C847 C 0.88993 0.12492 0.32558 0.0
C848 C 0.88083 0.11519 0.31131 0.0
C849 C 0.90459 0.14272 0.30095 0.0
C850 C 0.93638 0.18076 0.30471 0.0
C851 C 0.94565 0.18926 0.31939 0.0
H852 H 0.78047 0.88263 0.70573 0.0
H853 H 0.76052 0.77584 0.68431 0.0
H854 H 0.77473 0.81019 0.66134 0.0
H855 H 0.71651 0.89063 0.68116 0.0
H856 H 0.74033 0.94386 0.68179 0.0
H857 H 0.74282 0.91686 0.69695 0.0
H858 H 0.81954 0.95844 0.69639 0.0
H859 H 0.81729 0.98546 0.68114 0.0
H860 H 0.84574 0.96054 0.68026 0.0
H861 H 0.7899 0.85619 0.64045 0.0
H862 H 0.78339 0.89895 0.62279 0.0
H863 H 0.76806 0.96561 0.65679 0.0
C864 C 0.78039 0.86682 0.69624 0.0
C865 C 0.77297 0.82726 0.69718 0.0
C866 C 0.77054 0.80711 0.68432 0.0
C867 C 0.77754 0.82628 0.67106 0.0
C868 C 0.78424 0.8649 0.6706 0.0
C869 C 0.78376 0.88427 0.68281 0.0
C870 C 0.78133 0.92111 0.67915 0.0
C871 C 0.74297 0.91791 0.68511 0.0
C872 C 0.81818 0.95862 0.68456 0.0
C873 C 0.78069 0.91945 0.66294 0.0
C874 C 0.78438 0.88779 0.65834 0.0
C875 C 0.78619 0.88059 0.64395 0.0
C876 C 0.78241 0.90522 0.63397 0.0
C877 C 0.7745 0.93558 0.63826 0.0
C878 C 0.77449 0.94319 0.65304 0.0
H879 H 0.94816 0.79566 0.029 0.0
H880 H 0.9143 0.67181 0.03183 0.0
H881 H 0.87242 0.6575 0.01041 0.0
H882 H 0.85862 0.78559 0.01672 0.0
H883 H 0.87934 0.82499 0.00375 0.0
H884 H 0.9081 0.82686 0.01909 0.0
H885 H 0.96482 0.8333 0.00283 0.0
H886 H 0.9368 0.83278 0.98746 0.0
H887 H 0.95379 0.79755 0.98888 0.0
H888 H 0.82529 0.65475 0.99155 0.0
H889 H 0.79323 0.66612 0.97077 0.0
H890 H 0.86585 0.79287 0.97683 0.0
C891 C 0.93287 0.76583 0.0248 0.0
C892 C 0.93389 0.73462 0.03218 0.0
C893 C 0.91368 0.69599 0.02636 0.0
C894 C 0.88946 0.68753 0.01431 0.0
C895 C 0.88702 0.71835 0.00778 0.0
C896 C 0.90967 0.75706 0.01234 0.0
C897 C 0.90322 0.78476 0.00266 0.0
C898 C 0.88632 0.80686 0.01106 0.0
C899 C 0.94196 0.81382 0.995 0.0
C900 C 0.87268 0.75539 0.99226 0.0
C901 C 0.86295 0.71716 0.99575 0.0
C902 C 0.83348 0.68462 0.98846 0.0
C903 C 0.81507 0.69132 0.97678 0.0
C904 C 0.82719 0.73026 0.97207 0.0
C905 C 0.85577 0.76273 0.98018 0.0
H906 H 0.08529 0.86505 0.3084 0.0
H907 H 0.12992 0.78312 0.30682 0.0
H908 H 0.1687 0.81269 0.32871 0.0
H909 H 0.17065 0.94887 0.32185 0.0
H910 H 0.14542 0.96417 0.3342 0.0
H911 H 0.12021 0.93678 0.31845 0.0
H912 H 0.06342 0.88335 0.33384 0.0
H913 H 0.08791 0.91113 0.34961 0.0
H914 H 0.07516 0.86003 0.34815 0.0
H915 H 0.21017 0.8572 0.34835 0.0
H916 H 0.23615 0.89956 0.36966 0.0
H917 H 0.15792 0.94666 0.36159 0.0
C918 C 0.10252 0.85285 0.31291 0.0
C919 C 0.10532 0.82231 0.30578 0.0
C920 C 0.12778 0.80675 0.31205 0.0
C921 C 0.15019 0.82362 0.32439 0.0
C922 C 0.14868 0.85512 0.33073 0.0
C923 C 0.12411 0.86848 0.32564 0.0
C924 C 0.12634 0.90107 0.33523 0.0
C925 C 0.14156 0.94003 0.32693 0.0
C926 C 0.0858 0.88812 0.34212 0.0
C927 C 0.15657 0.90435 0.34627 0.0
C928 C 0.16977 0.87823 0.34314 0.0
C929 C 0.19932 0.87704 0.35113 0.0
C930 C 0.21421 0.90149 0.36312 0.0
C931 C 0.1986 0.92583 0.36739 0.0
C932 C 0.1702 0.92816 0.35861 0.0
H933 H 0.27346 0.06636 0.65444 0.0
H934 H 0.25662 0.13322 0.62091 0.0
H935 H 0.24567 0.17252 0.63901 0.0
H936 H 0.19208 0.0644 0.67814 0.0
H937 H 0.21883 0.06657 0.69411 0.0
H938 H 0.22268 0.04173 0.67851 0.0
H939 H 0.29912 0.08602 0.67926 0.0
H940 H 0.29553 0.11149 0.69466 0.0
H941 H 0.32089 0.1391 0.67892 0.0
H942 H 0.25635 0.21564 0.66055 0.0
H943 H 0.26732 0.24746 0.68394 0.0
H944 H 0.25401 0.14148 0.70412 0.0
C945 C 0.265 0.08742 0.65083 0.0
C946 C 0.26558 0.09625 0.63612 0.0
C947 C 0.25637 0.12582 0.63206 0.0
C948 C 0.25023 0.14846 0.64228 0.0
C949 C 0.25136 0.14009 0.65664 0.0
C950 C 0.25654 0.10903 0.66094 0.0
C951 C 0.256 0.10639 0.67713 0.0
C952 C 0.22027 0.06745 0.68228 0.0
C953 C 0.29521 0.11102 0.68282 0.0
C954 C 0.25154 0.14178 0.68118 0.0
C955 C 0.25009 0.16145 0.66917 0.0
C956 C 0.25436 0.1991 0.67008 0.0
C957 C 0.25957 0.21674 0.68357 0.0
C958 C 0.25793 0.19598 0.69621 0.0
C959 C 0.25336 0.15759 0.69481 0.0
H960 H 0.97203 0.55531 0.06772 0.0
H961 H 0.0582 0.6301 0.09946 0.0
H962 H 0.08134 0.58236 0.10171 0.0
H963 H 0.94816 0.46148 0.08354 0.0
H964 H 0.9449 0.43688 0.06693 0.0
H965 H 0.93442 0.47695 0.06744 0.0
H966 H 0.98734 0.51397 0.04797 0.0
H967 H 0.99795 0.47397 0.04739 0.0
H968 H 0.03733 0.5238 0.05069 0.0
H969 H 0.0945 0.52596 0.10162 0.0
H970 H 0.09814 0.46513 0.09847 0.0
H971 H 1.00684 0.42517 0.06601 0.0
C972 C 0.99596 0.56184 0.07507 0.0
C973 C 1.01237 0.59673 0.08366 0.0
C974 C 0.0438 0.60351 0.09307 0.0
C975 C 0.05763 0.57654 0.09435 0.0
C976 C 0.04045 0.54244 0.08603 0.0
C977 C 1.01052 0.53496 0.07646 0.0
C978 C 0.99758 0.49562 0.06886 0.0
C979 C 0.95365 0.46598 0.07187 0.0
C980 C 1.00552 0.50224 0.05277 0.0
C981 C 0.02462 0.48221 0.07578 0.0
C982 C 0.049 0.50993 0.08567 0.0
C983 C 0.07571 0.50421 0.09383 0.0
C984 C 0.07752 0.46936 0.09198 0.0
C985 C 0.05305 0.44009 0.08196 0.0
C986 C 0.02643 0.44703 0.07363 0.0
H987 H 0.583 0.99837 0.42815 0.0
H988 H 0.62245 0.06355 0.38823 0.0
H989 H 0.55608 0.05445 0.3846 0.0
H990 H 0.48323 0.92851 0.41764 0.0
H991 H 0.46095 0.92955 0.43436 0.0
H992 H 0.51152 0.93975 0.43389 0.0
H993 H 0.53474 1.00695 0.44633 0.0
H994 H 0.48423 0.99691 0.44687 0.0
H995 H 0.52221 0.04168 0.43864 0.0
H996 H 0.48442 0.03726 0.38464 0.0
H997 H 0.41458 0.01742 0.3893 0.0
H998 H 0.42036 0.96745 0.42996 0.0
C999 C 0.57814 1.01118 0.41868 0.0
C1000 C 0.60895 0.03108 0.40836 0.0
C1001 C 0.60001 0.04692 0.39616 0.0
C1002 C 0.56209 0.04228 0.39402 0.0
C1003 C 0.53271 0.02225 0.40424 0.0
C1004 C 0.54032 1.00738 0.41644 0.0
C1005 C 0.50341 0.98809 0.42593 0.0
C1006 C 0.48893 0.94385 0.42808 0.0
C1007 C 0.51165 1.0097 0.4403 0.0
C1008 C 0.47389 0.99412 0.41708 0.0
C1009 C 0.49154 0.0137 0.40455 0.0
C1010 C 0.47041 0.02202 0.39445 0.0
C1011 C 0.43043 1.0103 0.39716 0.0
C1012 C 0.41131 0.99053 0.40996 0.0
C1013 C 0.43379 0.98261 0.42009 0.0
H1014 H 0.46239 0.42032 0.73137 0.0
H1015 H 0.39137 0.43068 0.765 0.0
H1016 H 0.4411 0.50084 0.76788 0.0
H1017 H 0.55786 0.48543 0.74708 0.0
H1018 H 0.58231 0.5081 0.73054 0.0
H1019 H 0.54081 0.4583 0.73061 0.0
H1020 H 0.50457 0.47843 0.71221 0.0
H1021 H 0.54602 0.5283 0.71208 0.0
H1022 H 0.49687 0.5194 0.71604 0.0
H1023 H 0.4987 0.56941 0.76804 0.0
H1024 H 0.56071 0.63286 0.76515 0.0
H1025 H 0.59692 0.58238 0.73113 0.0
C1026 C 0.45713 0.43743 0.73925 0.0
C1027 C 0.42273 0.41911 0.74811 0.0
C1028 C 0.41752 0.44308 0.75829 0.0
C1029 C 0.44561 0.48334 0.75996 0.0
C1030 C 0.47924 0.50016 0.75132 0.0
C1031 C 0.48523 0.47821 0.74109 0.0
C1032 C 0.5246 0.50422 0.7334 0.0
C1033 C 0.55308 0.48804 0.73554 0.0
C1034 C 0.51759 0.50779 0.71748 0.0
C1035 C 0.53972 0.54386 0.74101 0.0
C1036 C 0.5128 0.54054 0.75129 0.0
C1037 C 0.51995 0.57235 0.76 0.0
C1038 C 0.55553 0.6084 0.75831 0.0
C1039 C 0.58417 0.61307 0.74796 0.0
C1040 C 0.57569 0.58017 0.73906 0.0
H1041 H 0.44728 1.00397 0.58093 0.0
H1042 H 0.47882 0.08603 0.61635 0.0
H1043 H 0.53916 0.08238 0.62025 0.0
H1044 H 0.48526 0.94359 0.59576 0.0
H1045 H 0.50509 0.9377 0.57917 0.0
H1046 H 0.46297 0.9452 0.57911 0.0
H1047 H 0.50053 1.00566 0.56246 0.0
H1048 H 0.54269 0.99823 0.5624 0.0
H1049 H 0.5487 0.04537 0.56763 0.0
H1050 H 0.59615 0.0697 0.62097 0.0
H1051 H 0.64807 0.05234 0.61751 0.0
H1052 H 0.58522 0.9818 0.58056 0.0
C1053 C 0.46685 0.02143 0.58948 0.0
C1054 C 0.45687 0.0447 0.5985 0.0
C1055 C 0.48409 0.06683 0.60951 0.0
C1056 C 0.51904 0.06528 0.61177 0.0
C1057 C 0.5275 0.04185 0.60287 0.0
C1058 C 0.50249 0.02056 0.59184 0.0
C1059 C 0.51968 0.99856 0.58366 0.0
C1060 C 0.49157 0.95359 0.58447 0.0
C1061 C 0.52842 0.01281 0.56811 0.0
C1062 C 0.55809 1.01081 0.59188 0.0
C1063 C 0.56162 0.03565 0.60295 0.0
C1064 C 0.59389 0.05069 0.61221 0.0
C1065 C 0.62365 0.04078 0.61004 0.0
C1066 C 0.62193 0.01622 0.59855 0.0
C1067 C 0.58799 1.00064 0.58946 0.0
H1068 H 0.45508 0.42927 0.91194 0.0
H1069 H 0.40369 0.46432 0.94618 0.0
H1070 H 0.46823 0.52309 0.95041 0.0
H1071 H 0.55232 0.46528 0.92751 0.0
H1072 H 0.57923 0.48433 0.91106 0.0
H1073 H 0.52918 0.44312 0.91077 0.0
H1074 H 0.50847 0.48142 0.89357 0.0
H1075 H 0.5585 0.52265 0.89373 0.0
H1076 H 0.51772 0.53 0.89845 0.0
H1077 H 0.53852 0.57763 0.95186 0.0
H1078 H 0.6083 0.62823 0.94881 0.0
H1079 H 0.61671 0.56499 0.9121 0.0
C1080 C 0.45705 0.44925 0.92029 0.0
C1081 C 0.42331 0.44048 0.92895 0.0
C1082 C 0.42839 0.46837 0.93968 0.0
C1083 C 0.46526 0.50252 0.94212 0.0
C1084 C 0.49759 0.50968 0.93364 0.0
C1085 C 0.49393 0.48428 0.92277 0.0
C1086 C 0.53361 0.50045 0.91491 0.0
C1087 C 0.54952 0.47157 0.91614 0.0
C1088 C 0.52931 0.50915 0.89923 0.0
C1089 C 0.55994 0.53874 0.92311 0.0
C1090 C 0.53828 0.54293 0.93394 0.0
C1091 C 0.55552 0.57496 0.94324 0.0
C1092 C 0.5955 0.60397 0.94131 0.0
C1093 C 0.61866 0.60193 0.92995 0.0
C1094 C 0.60037 0.56806 0.92087 0.0
H1095 H 1.00979 0.57559 0.24555 0.0
H1096 H 0.10022 0.62796 0.27843 0.0
H1097 H 0.09566 0.56379 0.28239 0.0
H1098 H 0.95102 0.4792 0.26193 0.0
H1099 H 0.94092 0.45172 0.24556 0.0
H1100 H 0.94963 0.50165 0.2453 0.0
H1101 H 1.00622 0.52152 0.22701 0.0
H1102 H 0.99755 0.4716 0.22716 0.0
H1103 H 0.04628 0.51242 0.23106 0.0
H1104 H 0.08077 0.49356 0.28368 0.0
H1105 H 0.06082 0.42367 0.28087 0.0
H1106 H 0.98379 0.41414 0.24572 0.0
C1107 C 0.02893 0.57389 0.25354 0.0
C1108 C 0.05479 0.60783 0.26189 0.0
C1109 C 0.079 0.60311 0.27217 0.0
C1110 C 0.07696 0.56645 0.27444 0.0
C1111 C 0.05096 0.53392 0.26627 0.0
C1112 C 0.02766 0.5372 0.25588 0.0
C1113 C 1.00315 0.4973 0.24835 0.0
C1114 C 0.95853 0.48154 0.25041 0.0
C1115 C 1.01394 0.50093 0.23245 0.0
C1116 C 1.0163 0.47128 0.25619 0.0
C1117 C 0.04372 0.49328 0.26654 0.0
C1118 C 0.05983 0.47629 0.27543 0.0
C1119 C 0.0484 0.4362 0.27361 0.0
C1120 C 0.0213 0.41255 0.2628 0.0
C1121 C 1.00465 0.43073 0.25409 0.0
H1122 H 0.06507 0.10195 0.09168 0.0
H1123 H 0.97332 0.08652 0.06167 0.0
H1124 H 0.95147 0.01601 0.05987 0.0
H1125 H 0.08868 0.03299 0.07289 0.0
H1126 H 0.09839 0.01421 0.08903 0.0
H1127 H 0.10708 0.06412 0.08843 0.0
H1128 H 0.06101 0.04928 0.11022 0.0
H1129 H 0.05197 0.99926 0.11083 0.0
H1130 H 1.01089 1.00824 0.10956 0.0
H1131 H 0.93577 0.94566 0.06213 0.0
H1132 H 0.93315 0.88178 0.06602 0.0
H1133 H 0.038 0.9404 0.09265 0.0
C1134 C 0.04063 0.08393 0.08462 0.0
C1135 C 0.02028 0.10052 0.07723 0.0
C1136 C 0.98864 0.07516 0.06802 0.0
C1137 C 0.97605 0.0347 0.06678 0.0
C1138 C 0.99572 0.01922 0.0745 0.0
C1139 C 0.0279 0.04305 0.08302 0.0
C1140 C 0.04438 0.01845 0.08971 0.0
C1141 C 0.08718 0.03334 0.08472 0.0
C1142 C 0.04191 0.01884 0.10605 0.0
C1143 C 1.01609 0.97726 0.08376 0.0
C1144 C 0.98804 0.97855 0.07512 0.0
C1145 C 0.95783 0.94438 0.06877 0.0
C1146 C 0.9564 0.90804 0.07113 0.0
C1147 C 0.98523 0.90565 0.07963 0.0
C1148 C 1.01559 0.94106 0.08601 0.0
H1149 H 0.92346 0.99255 0.40791 0.0
H1150 H 0.97121 0.0989 0.43382 0.0
H1151 H 0.03302 0.09701 0.43686 0.0
H1152 H 0.96521 0.94412 0.42916 0.0
H1153 H 0.97533 0.9221 0.41403 0.0
H1154 H 0.93481 0.93204 0.41341 0.0
H1155 H 0.96403 0.97355 0.39049 0.0
H1156 H 1.00458 0.96368 0.39101 0.0
H1157 H 1.0145 0.01402 0.39051 0.0
H1158 H 0.09059 0.08437 0.4371 0.0
H1159 H 0.13934 0.06186 0.43452 0.0
H1160 H 0.05459 0.96139 0.40964 0.0
C1161 C 0.94658 0.01536 0.41436 0.0
C1162 C 0.94174 0.04616 0.42052 0.0
C1163 C 0.97371 0.07546 0.42865 0.0
C1164 C 1.00909 0.07443 0.43059 0.0
C1165 C 1.01257 0.04371 0.42446 0.0
C1166 C 0.98216 0.01459 0.41654 0.0
C1167 C 0.99364 0.98467 0.41121 0.0
C1168 C 0.96557 0.94328 0.41732 0.0
C1169 C 0.99422 0.98395 0.39483 0.0
C1170 C 0.03534 1.00165 0.41731 0.0
C1171 C 0.04556 0.03581 0.42489 0.0
C1172 C 0.08276 0.05759 0.43123 0.0
C1173 C 0.11035 0.04454 0.42969 0.0
C1174 C 0.10101 1.00976 0.42193 0.0
C1175 C 0.0626 0.98779 0.4158 0.0
H1176 H 0.08177 0.09856 0.75831 0.0
H1177 H 0.13799 0.05529 0.7291 0.0
H1178 H 0.07349 0.99475 0.72523 0.0
H1179 H 1.01422 1.00291 0.77425 0.0
H1180 H 0.97374 0.01268 0.77597 0.0
H1181 H 0.02421 0.053 0.77642 0.0
H1182 H 1.00888 0.08717 0.75573 0.0
H1183 H 0.95842 0.0468 0.75513 0.0
H1184 H 0.98879 0.06066 0.73931 0.0
H1185 H 1.0028 0.94021 0.72356 0.0
H1186 H 0.93208 0.89131 0.72615 0.0
H1187 H 0.91936 0.96624 0.7574 0.0
C1188 C 0.08053 0.07634 0.75109 0.0
C1189 C 0.11544 0.082 0.74402 0.0
C1190 C 0.11221 0.05178 0.7348 0.0
C1191 C 0.07548 0.01732 0.73243 0.0
C1192 C 0.04181 0.01293 0.73942 0.0
C1193 C 0.04396 0.04131 0.74872 0.0
C1194 C 1.00316 0.02838 0.75515 0.0
C1195 C 1.00388 0.02398 0.77141 0.0
C1196 C 0.98898 0.05749 0.75109 0.0
C1197 C 0.97777 0.98831 0.748 0.0
C1198 C 1.00086 0.98045 0.73885 0.0
C1199 C 0.98464 0.94587 0.73084 0.0
C1200 C 0.9442 0.91807 0.73246 0.0
C1201 C 0.91974 0.9241 0.74221 0.0
C1202 C 0.93689 0.96041 0.74987 0.0
H1203 H 0.9407 0.96567 0.57678 0.0
H1204 H 0.95011 0.06333 0.60173 0.0
H1205 H 0.02271 0.09094 0.60377 0.0
H1206 H 1.01332 0.95372 0.59699 0.0
H1207 H 0.03317 0.94137 0.58174 0.0
H1208 H 0.98228 0.93014 0.58173 0.0
H1209 H 0.99472 0.96991 0.55833 0.0
H1210 H 0.04568 0.98128 0.55829 0.0
H1211 H 0.03424 0.02071 0.55758 0.0
H1212 H 0.095 0.10822 0.60309 0.0
H1213 H 0.15994 0.11157 0.60103 0.0
H1214 H 0.10447 1.0019 0.57704 0.0
C1215 C 0.95821 0.99297 0.58259 0.0
C1216 C 0.93979 0.01258 0.58903 0.0
C1217 C 0.96361 0.04796 0.59669 0.0
C1218 C 1.00491 0.06387 0.59788 0.0
C1219 C 0.02229 0.04396 0.59145 0.0
C1220 C 0.99967 1.00909 0.58403 0.0
C1221 C 0.0257 0.99293 0.57859 0.0
C1222 C 1.01285 0.95212 0.58516 0.0
C1223 C 0.02504 0.99111 0.56222 0.0
C1224 C 0.06635 0.02409 0.58406 0.0
C1225 C 0.06374 0.05343 0.59136 0.0
C1226 C 0.0973 0.08537 0.59737 0.0
C1227 C 0.13429 0.08721 0.59604 0.0
C1228 C 0.13787 0.05717 0.58885 0.0
C1229 C 0.1031 0.02532 0.58272 0.0
H1230 H 0.98053 0.92468 0.93116 0.0
H1231 H 0.90628 0.93371 0.89846 0.0
H1232 H 0.95487 1.00407 0.89542 0.0
H1233 H 1.01048 0.02116 0.94697 0.0
H1234 H 0.06013 0.03168 0.95097 0.0
H1235 H 1.01999 0.98118 0.95048 0.0
H1236 H 0.05846 0.96434 0.93189 0.0
H1237 H 0.09864 0.01481 0.93229 0.0
H1238 H 0.0751 0.99264 0.91561 0.0
H1239 H 1.01214 0.07399 0.89533 0.0
H1240 H 0.07265 0.13829 0.89881 0.0
H1241 H 0.10877 0.08733 0.93284 0.0
C1242 C 0.97419 0.94131 0.9234 0.0
C1243 C 0.93932 0.92244 0.91484 0.0
C1244 C 0.93293 0.94618 0.90486 0.0
C1245 C 0.96035 0.98668 0.90313 0.0
C1246 C 0.99428 1.004 0.91157 0.0
C1247 C 1.00123 0.98224 0.92161 0.0
C1248 C 0.03995 1.00868 0.92947 0.0
C1249 C 0.03216 1.01079 0.94542 0.0
C1250 C 0.0698 0.99425 0.92718 0.0
C1251 C 0.05373 0.04842 0.92215 0.0
C1252 C 0.02685 0.04491 0.91186 0.0
C1253 C 0.03318 0.07715 0.90349 0.0
C1254 C 0.06775 0.11392 0.90566 0.0
C1255 C 0.09602 0.11885 0.91622 0.0
C1256 C 0.08842 0.08518 0.92457 0.0
H1257 H 0.03039 0.93307 0.23545 0.0
H1258 H 0.05922 0.9312 0.27992 0.0
H1259 H 0.04852 0.98757 0.2847 0.0
H1260 H 0.07674 0.04183 0.23239 0.0
H1261 H 0.03877 0.0396 0.22079 0.0
H1262 H 0.05034 1.00024 0.22061 0.0
H1263 H 0.97674 0.94931 0.22576 0.0
H1264 H 0.96498 0.98851 0.226 0.0
H1265 H 0.95279 0.95588 0.24112 0.0
H1266 H 0.03269 0.04261 0.28498 0.0
H1267 H 1.01408 0.09341 0.28089 0.0
H1268 H 0.99405 0.06131 0.23612 0.0
C1269 C 0.03505 0.94508 0.24612 0.0
C1270 C 0.04626 0.92806 0.25732 0.0
C1271 C 0.05123 0.94405 0.27119 0.0
C1272 C 0.04507 0.97603 0.27399 0.0
C1273 C 0.03383 0.99202 0.26282 0.0
C1274 C 0.02903 0.97732 0.24913 0.0
C1275 C 1.016 0.99979 0.23918 0.0
C1276 C 0.04733 0.02166 0.22755 0.0
C1277 C 0.9752 0.97169 0.23263 0.0
C1278 C 1.01373 0.02896 0.24946 0.0
C1279 C 0.02428 0.02383 0.26302 0.0
C1280 C 0.02426 0.04672 0.2744 0.0
C1281 C 1.01316 0.07545 0.27196 0.0
C1282 C 1.00179 0.08153 0.25821 0.0
C1283 C 1.00253 0.05786 0.24677 0.0
loop_
_geom_bond_atom_site_label_1
_geom_bond_atom_site_label_2
_geom_bond_distance
_geom_bond_site_symmetry_2
_ccdc_geom_bond_type
C0 C1 1.443 1_455 S
C0 N4 1.376 1_455 S
C0 C38 1.389 . S
C1 C0 1.443 1_655 S
C1 C2 1.340 . S
C1 H41 0.951 . S
C2 C1 1.340 . S
C2 C3 1.439 . S
C2 H42 0.950 . S
C3 C2 1.439 . S
C3 N4 1.374 . S
C3 C37 1.395 . S
N4 C0 1.376 1_655 S
N4 C3 1.374 . S
N4 Co5 2.008 1_655 S
Co5 N4 2.008 1_455 S
Co5 N6 1.995 1_455 S
Co5 N11 2.008 . S
Co5 N16 1.995 . S
Co5 N21 2.282 . S
Co5 N27 2.282 . S
N6 Co5 1.995 1_655 S
N6 C7 1.376 . S
N6 C10 1.383 . S
C7 N6 1.376 . S
C7 C8 1.446 . S
C7 C37 1.391 . S
C8 C7 1.446 . S
C8 C9 1.339 . S
C8 H43 0.949 . S
C9 C8 1.339 . S
C9 C10 1.439 . S
C9 H44 0.950 . S
C10 N6 1.383 . S
C10 C9 1.439 . S
C10 C39 1.392 . S
N11 Co5 2.008 . S
N11 C12 1.376 . S
N11 C15 1.374 . S
C12 N11 1.376 . S
C12 C13 1.443 . S
C12 C39 1.389 1_455 S
C13 C12 1.443 . S
C13 C14 1.340 . S
C13 H45 0.951 . S
C14 C13 1.340 . S
C14 C15 1.439 . S
C14 H46 0.950 . S
C15 N11 1.374 . S
C15 C14 1.439 . S
C15 C40 1.395 . S
N16 Co5 1.995 . S
N16 C17 1.376 . S
N16 C20 1.383 . S
C17 N16 1.376 . S
C17 C18 1.446 . S
C17 C40 1.391 . S
C18 C17 1.446 . S
C18 C19 1.339 . S
C18 H47 0.949 . S
C19 C18 1.339 . S
C19 C20 1.439 . S
C19 H48 0.950 . S
C20 N16 1.383 . S
C20 C19 1.439 . S
C20 C38 1.392 . S
N21 Co5 2.282 . S
N21 C24 1.332 . S
N21 C26 1.332 1_455 S
C22 C23 1.386 . S
C22 C25 1.388 1_455 S
C23 C22 1.386 . S
C23 C24 1.382 . S
C23 H49 0.950 . S
C24 N21 1.332 . S
C24 C23 1.382 . S
C24 H35 0.952 . S
C25 C22 1.388 1_655 S
C25 C26 1.382 . S
C25 H50 0.950 . S
C26 N21 1.332 1_655 S
C26 C25 1.382 . S
C26 H36 0.948 . S
N27 Co5 2.282 . S
N27 C31 1.332 1_455 S
N27 C32 1.332 . S
C28 C29 1.388 . S
C28 C32 1.382 . S
C28 H51 0.950 . S
C29 C28 1.388 . S
C29 C30 1.386 1_455 S
C30 C29 1.386 1_655 S
C30 C31 1.382 . S
C30 H52 0.950 . S
C31 N27 1.332 1_655 S
C31 C30 1.382 . S
C31 H33 0.952 . S
C32 N27 1.332 . S
C32 C28 1.382 . S
C32 H34 0.948 . S
H33 C31 0.952 . S
H34 C32 0.948 . S
H35 C24 0.952 . S
H36 C26 0.948 . S
C37 C3 1.395 . S
C37 C7 1.391 . S
C38 C0 1.389 . S
C38 C20 1.392 . S
C39 C10 1.392 . S
C39 C12 1.389 1_655 S
C40 C15 1.395 . S
C40 C17 1.391 . S
H41 C1 0.951 . S
H42 C2 0.950 . S
H43 C8 0.949 . S
H44 C9 0.950 . S
H45 C13 0.951 . S
H46 C14 0.950 . S
H47 C18 0.949 . S
H48 C19 0.950 . S
H49 C23 0.950 . S
H50 C25 0.950 . S
H51 C28 0.950 . S
H52 C30 0.950 . S
C53 C54 1.443 1_545 S
C53 N57 1.376 1_545 S
C53 C91 1.389 . S
C54 C53 1.443 1_565 S
C54 C55 1.340 . S
C54 H94 0.951 . S
C55 C54 1.340 . S
C55 C56 1.439 . S
C55 H95 0.950 . S
C56 C55 1.439 . S
C56 N57 1.374 . S
C56 C90 1.395 . S
N57 C53 1.376 1_565 S
N57 C56 1.374 . S
N57 Co58 2.008 1_565 S
Co58 N57 2.008 1_545 S
Co58 N59 1.995 1_545 S
Co58 N64 2.008 . S
Co58 N69 1.995 . S
Co58 N74 2.282 . S
Co58 N80 2.282 . S
N59 Co58 1.995 1_565 S
N59 C60 1.376 . S
N59 C63 1.383 . S
C60 N59 1.376 . S
C60 C61 1.446 . S
C60 C90 1.391 . S
C61 C60 1.446 . S
C61 C62 1.339 . S
C61 H96 0.949 . S
C62 C61 1.339 . S
C62 C63 1.439 . S
C62 H97 0.950 . S
C63 N59 1.383 . S
C63 C62 1.439 . S
C63 C92 1.392 . S
N64 Co58 2.008 . S
N64 C65 1.376 . S
N64 C68 1.374 . S
C65 N64 1.376 . S
C65 C66 1.443 . S
C65 C92 1.389 1_545 S
C66 C65 1.443 . S
C66 C67 1.340 . S
C66 H98 0.951 . S
C67 C66 1.340 . S
C67 C68 1.439 . S
C67 H99 0.950 . S
C68 N64 1.374 . S
C68 C67 1.439 . S
C68 C93 1.395 . S
N69 Co58 1.995 . S
N69 C70 1.376 . S
N69 C73 1.383 . S
C70 N69 1.376 . S
C70 C71 1.446 . S
C70 C93 1.391 . S
C71 C70 1.446 . S
C71 C72 1.339 . S
C71 H100 0.949 . S
C72 C71 1.339 . S
C72 C73 1.439 . S
C72 H101 0.950 . S
C73 N69 1.383 . S
C73 C72 1.439 . S
C73 C91 1.392 . S
N74 Co58 2.282 . S
N74 C77 1.332 . S
N74 C79 1.332 1_545 S
C75 C76 1.386 . S
C75 C78 1.388 1_545 S
C76 C75 1.386 . S
C76 C77 1.382 . S
C76 H102 0.950 . S
C77 N74 1.332 . S
C77 C76 1.382 . S
C77 H88 0.952 . S
C78 C75 1.388 1_565 S
C78 C79 1.382 . S
C78 H103 0.950 . S
C79 N74 1.332 1_565 S
C79 C78 1.382 . S
C79 H89 0.948 . S
N80 Co58 2.282 . S
N80 C84 1.332 1_545 S
N80 C85 1.332 . S
C81 C82 1.388 . S
C81 C85 1.382 . S
C81 H104 0.950 . S
C82 C81 1.388 . S
C82 C83 1.386 1_545 S
C83 C82 1.386 1_565 S
C83 C84 1.382 . S
C83 H105 0.950 . S
C84 N80 1.332 1_565 S
C84 C83 1.382 . S
C84 H86 0.952 . S
C85 N80 1.332 . S
C85 C81 1.382 . S
C85 H87 0.948 . S
H86 C84 0.952 . S
H87 C85 0.948 . S
H88 C77 0.952 . S
H89 C79 0.948 . S
C90 C56 1.395 . S
C90 C60 1.391 . S
C91 C53 1.389 . S
C91 C73 1.392 . S
C92 C63 1.392 . S
C92 C65 1.389 1_565 S
C93 C68 1.395 . S
C93 C70 1.391 . S
H94 C54 0.951 . S
H95 C55 0.950 . S
H96 C61 0.949 . S
H97 C62 0.950 . S
H98 C66 0.951 . S
H99 C67 0.950 . S
H100 C71 0.949 . S
H101 C72 0.950 . S
H102 C76 0.950 . S
H103 C78 0.950 . S
H104 C81 0.950 . S
H105 C83 0.950 . S
C106 C107 1.443 . S
C106 N110 1.376 . S
C106 C144 1.389 . S
C107 C106 1.443 . S
C107 C108 1.340 . S
C107 H147 0.951 . S
C108 C107 1.340 . S
C108 C109 1.439 . S
C108 H148 0.950 . S
C109 C108 1.439 . S
C109 N110 1.374 . S
C109 C143 1.395 . S
N110 C106 1.376 . S
N110 C109 1.374 . S
N110 Co111 2.008 . S
Co111 N110 2.008 . S
Co111 N112 1.995 . S
Co111 N117 2.008 . S
Co111 N122 1.995 . S
Co111 N127 2.282 . S
Co111 N133 2.282 . S
N112 Co111 1.995 . S
N112 C113 1.376 . S
N112 C116 1.383 . S
C113 N112 1.376 . S
C113 C114 1.446 . S
C113 C143 1.391 . S
C114 C113 1.446 . S
C114 C115 1.339 . S
C114 H149 0.949 . S
C115 C114 1.339 . S
C115 C116 1.439 . S
C115 H150 0.950 . S
C116 N112 1.383 . S
C116 C115 1.439 . S
C116 C145 1.392 . S
N117 Co111 2.008 . S
N117 C118 1.376 . S
N117 C121 1.374 . S
C118 N117 1.376 . S
C118 C119 1.443 . S
C118 C145 1.389 . S
C119 C118 1.443 . S
C119 C120 1.340 . S
C119 H151 0.951 . S
C120 C119 1.340 . S
C120 C121 1.439 . S
C120 H152 0.950 . S
C121 N117 1.374 . S
C121 C120 1.439 . S
C121 C146 1.395 . S
N122 Co111 1.995 . S
N122 C123 1.376 . S
N122 C126 1.383 . S
C123 N122 1.376 . S
C123 C124 1.446 . S
C123 C146 1.391 . S
C124 C123 1.446 . S
C124 C125 1.339 . S
C124 H153 0.949 . S
C125 C124 1.339 . S
C125 C126 1.439 . S
C125 H154 0.950 . S
C126 N122 1.383 . S
C126 C125 1.439 . S
C126 C144 1.392 . S
N127 Co111 2.282 . S
N127 C130 1.332 . S
N127 C132 1.332 . S
C128 C129 1.386 . S
C128 C131 1.388 . S
C129 C128 1.386 . S
C129 C130 1.382 . S
C129 H155 0.950 . S
C130 N127 1.332 . S
C130 C129 1.382 . S
C130 H141 0.952 . S
C131 C128 1.388 . S
C131 C132 1.382 . S
C131 H156 0.950 . S
C132 N127 1.332 . S
C132 C131 1.382 . S
C132 H142 0.948 . S
N133 Co111 2.282 . S
N133 C137 1.332 . S
N133 C138 1.332 . S
C134 C135 1.388 . S
C134 C138 1.382 . S
C134 H157 0.950 . S
C135 C134 1.388 . S
C135 C136 1.386 . S
C136 C135 1.386 . S
C136 C137 1.382 . S
C136 H158 0.950 . S
C137 N133 1.332 . S
C137 C136 1.382 . S
C137 H139 0.952 . S
C138 N133 1.332 . S
C138 C134 1.382 . S
C138 H140 0.948 . S
H139 C137 0.952 . S
H140 C138 0.948 . S
H141 C130 0.952 . S
H142 C132 0.948 . S
C143 C109 1.395 . S
C143 C113 1.391 . S
C144 C106 1.389 . S
C144 C126 1.392 . S
C145 C116 1.392 . S
C145 C118 1.389 . S
C146 C121 1.395 . S
C146 C123 1.391 . S
H147 C107 0.951 . S
H148 C108 0.950 . S
H149 C114 0.949 . S
H150 C115 0.950 . S
H151 C119 0.951 . S
H152 C120 0.950 . S
H153 C124 0.949 . S
H154 C125 0.950 . S
H155 C129 0.950 . S
H156 C131 0.950 . S
H157 C134 0.950 . S
H158 C136 0.950 . S
C159 C160 1.443 1_655 S
C159 N163 1.376 1_655 S
C159 C197 1.389 . S
C160 C159 1.443 1_455 S
C160 C161 1.340 . S
C160 H200 0.951 . S
C161 C160 1.340 . S
C161 C162 1.439 . S
C161 H201 0.950 . S
C162 C161 1.439 . S
C162 N163 1.374 . S
C162 C196 1.395 . S
N163 C159 1.376 1_455 S
N163 C162 1.374 . S
N163 Co164 2.008 1_455 S
Co164 N163 2.008 1_655 S
Co164 N165 1.995 1_655 S
Co164 N170 2.008 . S
Co164 N175 1.995 . S
Co164 N180 2.282 . S
Co164 N186 2.282 . S
N165 Co164 1.995 1_455 S
N165 C166 1.376 . S
N165 C169 1.383 . S
C166 N165 1.376 . S
C166 C167 1.446 . S
C166 C196 1.391 . S
C167 C166 1.446 . S
C167 C168 1.339 . S
C167 H202 0.949 . S
C168 C167 1.339 . S
C168 C169 1.439 . S
C168 H203 0.950 . S
C169 N165 1.383 . S
C169 C168 1.439 . S
C169 C198 1.392 . S
N170 Co164 2.008 . S
N170 C171 1.376 . S
N170 C174 1.374 . S
C171 N170 1.376 . S
C171 C172 1.443 . S
C171 C198 1.389 1_655 S
C172 C171 1.443 . S
C172 C173 1.340 . S
C172 H204 0.951 . S
C173 C172 1.340 . S
C173 C174 1.439 . S
C173 H205 0.950 . S
C174 N170 1.374 . S
C174 C173 1.439 . S
C174 C199 1.395 . S
N175 Co164 1.995 . S
N175 C176 1.376 . S
N175 C179 1.383 . S
C176 N175 1.376 . S
C176 C177 1.446 . S
C176 C199 1.391 . S
C177 C176 1.446 . S
C177 C178 1.339 . S
C177 H206 0.949 . S
C178 C177 1.339 . S
C178 C179 1.439 . S
C178 H207 0.950 . S
C179 N175 1.383 . S
C179 C178 1.439 . S
C179 C197 1.392 . S
N180 Co164 2.282 . S
N180 C183 1.332 . S
N180 C185 1.332 1_655 S
C181 C182 1.386 . S
C181 C184 1.388 1_655 S
C182 C181 1.386 . S
C182 C183 1.382 . S
C182 H208 0.950 . S
C183 N180 1.332 . S
C183 C182 1.382 . S
C183 H194 0.952 . S
C184 C181 1.388 1_455 S
C184 C185 1.382 . S
C184 H209 0.950 . S
C185 N180 1.332 1_455 S
C185 C184 1.382 . S
C185 H195 0.948 . S
N186 Co164 2.282 . S
N186 C190 1.332 1_655 S
N186 C191 1.332 . S
C187 C188 1.388 . S
C187 C191 1.382 . S
C187 H210 0.950 . S
C188 C187 1.388 . S
C188 C189 1.386 1_655 S
C189 C188 1.386 1_455 S
C189 C190 1.382 . S
C189 H211 0.950 . S
C190 N186 1.332 1_455 S
C190 C189 1.382 . S
C190 H192 0.952 . S
C191 N186 1.332 . S
C191 C187 1.382 . S
C191 H193 0.948 . S
H192 C190 0.952 . S
H193 C191 0.948 . S
H194 C183 0.952 . S
H195 C185 0.948 . S
C196 C162 1.395 . S
C196 C166 1.391 . S
C197 C159 1.389 . S
C197 C179 1.392 . S
C198 C169 1.392 . S
C198 C171 1.389 1_455 S
C199 C174 1.395 . S
C199 C176 1.391 . S
H200 C160 0.951 . S
H201 C161 0.950 . S
H202 C167 0.949 . S
H203 C168 0.950 . S
H204 C172 0.951 . S
H205 C173 0.950 . S
H206 C177 0.949 . S
H207 C178 0.950 . S
H208 C182 0.950 . S
H209 C184 0.950 . S
H210 C187 0.950 . S
H211 C189 0.950 . S
C212 C213 1.443 1_565 S
C212 N216 1.376 1_565 S
C212 C250 1.389 . S
C213 C212 1.443 1_545 S
C213 C214 1.340 . S
C213 H253 0.951 . S
C214 C213 1.340 . S
C214 C215 1.439 . S
C214 H254 0.950 . S
C215 C214 1.439 . S
C215 N216 1.374 . S
C215 C249 1.395 . S
N216 C212 1.376 1_545 S
N216 C215 1.374 . S
N216 Co217 2.008 1_545 S
Co217 N216 2.008 1_565 S
Co217 N218 1.995 1_565 S
Co217 N223 2.008 . S
Co217 N228 1.995 . S
Co217 N233 2.282 . S
Co217 N239 2.282 . S
N218 Co217 1.995 1_545 S
N218 C219 1.376 . S
N218 C222 1.383 . S
C219 N218 1.376 . S
C219 C220 1.446 . S
C219 C249 1.391 . S
C220 C219 1.446 . S
C220 C221 1.339 . S
C220 H255 0.949 . S
C221 C220 1.339 . S
C221 C222 1.439 . S
C221 H256 0.950 . S
C222 N218 1.383 . S
C222 C221 1.439 . S
C222 C251 1.392 . S
N223 Co217 2.008 . S
N223 C224 1.376 . S
N223 C227 1.374 . S
C224 N223 1.376 . S
C224 C225 1.443 . S
C224 C251 1.389 1_565 S
C225 C224 1.443 . S
C225 C226 1.340 . S
C225 H257 0.951 . S
C226 C225 1.340 . S
C226 C227 1.439 . S
C226 H258 0.950 . S
C227 N223 1.374 . S
C227 C226 1.439 . S
C227 C252 1.395 . S
N228 Co217 1.995 . S
N228 C229 1.376 . S
N228 C232 1.383 . S
C229 N228 1.376 . S
C229 C230 1.446 . S
C229 C252 1.391 . S
C230 C229 1.446 . S
C230 C231 1.339 . S
C230 H259 0.949 . S
C231 C230 1.339 . S
C231 C232 1.439 . S
C231 H260 0.950 . S
C232 N228 1.383 . S
C232 C231 1.439 . S
C232 C250 1.392 . S
N233 Co217 2.282 . S
N233 C236 1.332 . S
N233 C238 1.332 1_565 S
C234 C235 1.386 . S
C234 C237 1.388 1_565 S
C235 C234 1.386 . S
C235 C236 1.382 . S
C235 H261 0.950 . S
C236 N233 1.332 . S
C236 C235 1.382 . S
C236 H247 0.952 . S
C237 C234 1.388 1_545 S
C237 C238 1.382 . S
C237 H262 0.950 . S
C238 N233 1.332 1_545 S
C238 C237 1.382 . S
C238 H248 0.948 . S
N239 Co217 2.282 . S
N239 C243 1.332 1_565 S
N239 C244 1.332 . S
C240 C241 1.388 . S
C240 C244 1.382 . S
C240 H263 0.950 . S
C241 C240 1.388 . S
C241 C242 1.386 1_565 S
C242 C241 1.386 1_545 S
C242 C243 1.382 . S
C242 H264 0.950 . S
C243 N239 1.332 1_545 S
C243 C242 1.382 . S
C243 H245 0.952 . S
C244 N239 1.332 . S
C244 C240 1.382 . S
C244 H246 0.948 . S
H245 C243 0.952 . S
H246 C244 0.948 . S
H247 C236 0.952 . S
H248 C238 0.948 . S
C249 C215 1.395 . S
C249 C219 1.391 . S
C250 C212 1.389 . S
C250 C232 1.392 . S
C251 C222 1.392 . S
C251 C224 1.389 1_545 S
C252 C227 1.395 . S
C252 C229 1.391 . S
H253 C213 0.951 . S
H254 C214 0.950 . S
H255 C220 0.949 . S
H256 C221 0.950 . S
H257 C225 0.951 . S
H258 C226 0.950 . S
H259 C230 0.949 . S
H260 C231 0.950 . S
H261 C235 0.950 . S
H262 C237 0.950 . S
H263 C240 0.950 . S
H264 C242 0.950 . S
C265 C266 1.443 . S
C265 N269 1.376 . S
C265 C303 1.389 . S
C266 C265 1.443 . S
C266 C267 1.340 . S
C266 H306 0.951 . S
C267 C266 1.340 . S
C267 C268 1.439 . S
C267 H307 0.950 . S
C268 C267 1.439 . S
C268 N269 1.374 . S
C268 C302 1.395 . S
N269 C265 1.376 . S
N269 C268 1.374 . S
N269 Co270 2.008 . S
Co270 N269 2.008 . S
Co270 N271 1.995 . S
Co270 N276 2.008 . S
Co270 N281 1.995 . S
Co270 N286 2.282 . S
Co270 N292 2.282 . S
N271 Co270 1.995 . S
N271 C272 1.376 . S
N271 C275 1.383 . S
C272 N271 1.376 . S
C272 C273 1.446 . S
C272 C302 1.391 . S
C273 C272 1.446 . S
C273 C274 1.339 . S
C273 H308 0.949 . S
C274 C273 1.339 . S
C274 C275 1.439 . S
C274 H309 0.950 . S
C275 N271 1.383 . S
C275 C274 1.439 . S
C275 C304 1.392 . S
N276 Co270 2.008 . S
N276 C277 1.376 . S
N276 C280 1.374 . S
C277 N276 1.376 . S
C277 C278 1.443 . S
C277 C304 1.389 . S
C278 C277 1.443 . S
C278 C279 1.340 . S
C278 H310 0.951 . S
C279 C278 1.340 . S
C279 C280 1.439 . S
C279 H311 0.950 . S
C280 N276 1.374 . S
C280 C279 1.439 . S
C280 C305 1.395 . S
N281 Co270 1.995 . S
N281 C282 1.376 . S
N281 C285 1.383 . S
C282 N281 1.376 . S
C282 C283 1.446 . S
C282 C305 1.391 . S
C283 C282 1.446 . S
C283 C284 1.339 . S
C283 H312 0.949 . S
C284 C283 1.339 . S
C284 C285 1.439 . S
C284 H313 0.950 . S
C285 N281 1.383 . S
C285 C284 1.439 . S
C285 C303 1.392 . S
N286 Co270 2.282 . S
N286 C289 1.332 . S
N286 C291 1.332 . S
C287 C288 1.386 . S
C287 C290 1.388 . S
C288 C287 1.386 . S
C288 C289 1.382 . S
C288 H314 0.950 . S
C289 N286 1.332 . S
C289 C288 1.382 . S
C289 H300 0.952 . S
C290 C287 1.388 . S
C290 C291 1.382 . S
C290 H315 0.950 . S
C291 N286 1.332 . S
C291 C290 1.382 . S
C291 H301 0.948 . S
N292 Co270 2.282 . S
N292 C296 1.332 . S
N292 C297 1.332 . S
C293 C294 1.388 . S
C293 C297 1.382 . S
C293 H316 0.950 . S
C294 C293 1.388 . S
C294 C295 1.386 . S
C295 C294 1.386 . S
C295 C296 1.382 . S
C295 H317 0.950 . S
C296 N292 1.332 . S
C296 C295 1.382 . S
C296 H298 0.952 . S
C297 N292 1.332 . S
C297 C293 1.382 . S
C297 H299 0.948 . S
H298 C296 0.952 . S
H299 C297 0.948 . S
H300 C289 0.952 . S
H301 C291 0.948 . S
C302 C268 1.395 . S
C302 C272 1.391 . S
C303 C265 1.389 . S
C303 C285 1.392 . S
C304 C275 1.392 . S
C304 C277 1.389 . S
C305 C280 1.395 . S
C305 C282 1.391 . S
H306 C266 0.951 . S
H307 C267 0.950 . S
H308 C273 0.949 . S
H309 C274 0.950 . S
H310 C278 0.951 . S
H311 C279 0.950 . S
H312 C283 0.949 . S
H313 C284 0.950 . S
H314 C288 0.950 . S
H315 C290 0.950 . S
H316 C293 0.950 . S
H317 C295 0.950 . S
C318 C319 1.443 1_565 S
C318 N322 1.376 1_565 S
C318 C356 1.389 . S
C319 C318 1.443 1_545 S
C319 C320 1.340 . S
C319 H359 0.951 . S
C320 C319 1.340 . S
C320 C321 1.439 . S
C320 H360 0.950 . S
C321 C320 1.439 . S
C321 N322 1.374 . S
C321 C355 1.395 . S
N322 C318 1.376 1_545 S
N322 C321 1.374 . S
N322 Co323 2.008 1_545 S
Co323 N322 2.008 1_565 S
Co323 N324 1.995 1_565 S
Co323 N329 2.008 . S
Co323 N334 1.995 . S
Co323 N339 2.282 . S
Co323 N345 2.282 . S
N324 Co323 1.995 1_545 S
N324 C325 1.376 . S
N324 C328 1.383 . S
C325 N324 1.376 . S
C325 C326 1.446 . S
C325 C355 1.391 . S
C326 C325 1.446 . S
C326 C327 1.339 . S
C326 H361 0.949 . S
C327 C326 1.339 . S
C327 C328 1.439 . S
C327 H362 0.950 . S
C328 N324 1.383 . S
C328 C327 1.439 . S
C328 C357 1.392 . S
N329 Co323 2.008 . S
N329 C330 1.376 . S
N329 C333 1.374 . S
C330 N329 1.376 . S
C330 C331 1.443 . S
C330 C357 1.389 1_565 S
C331 C330 1.443 . S
C331 C332 1.340 . S
C331 H363 0.951 . S
C332 C331 1.340 . S
C332 C333 1.439 . S
C332 H364 0.950 . S
C333 N329 1.374 . S
C333 C332 1.439 . S
C333 C358 1.395 . S
N334 Co323 1.995 . S
N334 C335 1.376 . S
N334 C338 1.383 . S
C335 N334 1.376 . S
C335 C336 1.446 . S
C335 C358 1.391 . S
C336 C335 1.446 . S
C336 C337 1.339 . S
C336 H365 0.949 . S
C337 C336 1.339 . S
C337 C338 1.439 . S
C337 H366 0.950 . S
C338 N334 1.383 . S
C338 C337 1.439 . S
C338 C356 1.392 . S
N339 Co323 2.282 . S
N339 C342 1.332 . S
N339 C344 1.332 1_565 S
C340 C341 1.386 . S
C340 C343 1.388 1_565 S
C341 C340 1.386 . S
C341 C342 1.382 . S
C341 H367 0.950 . S
C342 N339 1.332 . S
C342 C341 1.382 . S
C342 H353 0.952 . S
C343 C340 1.388 1_545 S
C343 C344 1.382 . S
C343 H368 0.950 . S
C344 N339 1.332 1_545 S
C344 C343 1.382 . S
C344 H354 0.948 . S
N345 Co323 2.282 . S
N345 C349 1.332 1_565 S
N345 C350 1.332 . S
C346 C347 1.388 . S
C346 C350 1.382 . S
C346 H369 0.950 . S
C347 C346 1.388 . S
C347 C348 1.386 1_565 S
C348 C347 1.386 1_545 S
C348 C349 1.382 . S
C348 H370 0.950 . S
C349 N345 1.332 1_545 S
C349 C348 1.382 . S
C349 H351 0.952 . S
C350 N345 1.332 . S
C350 C346 1.382 . S
C350 H352 0.948 . S
H351 C349 0.952 . S
H352 C350 0.948 . S
H353 C342 0.952 . S
H354 C344 0.948 . S
C355 C321 1.395 . S
C355 C325 1.391 . S
C356 C318 1.389 . S
C356 C338 1.392 . S
C357 C328 1.392 . S
C357 C330 1.389 1_545 S
C358 C333 1.395 . S
C358 C335 1.391 . S
H359 C319 0.951 . S
H360 C320 0.950 . S
H361 C326 0.949 . S
H362 C327 0.950 . S
H363 C331 0.951 . S
H364 C332 0.950 . S
H365 C336 0.949 . S
H366 C337 0.950 . S
H367 C341 0.950 . S
H368 C343 0.950 . S
H369 C346 0.950 . S
H370 C348 0.950 . S
C371 C372 1.443 . S
C371 N375 1.376 . S
C371 C409 1.389 . S
C372 C371 1.443 . S
C372 C373 1.340 . S
C372 H412 0.951 . S
C373 C372 1.340 . S
C373 C374 1.439 . S
C373 H413 0.950 . S
C374 C373 1.439 . S
C374 N375 1.374 . S
C374 C408 1.395 . S
N375 C371 1.376 . S
N375 C374 1.374 . S
N375 Co376 2.008 . S
Co376 N375 2.008 . S
Co376 N377 1.995 . S
Co376 N382 2.008 . S
Co376 N387 1.995 . S
Co376 N392 2.282 . S
Co376 N398 2.282 . S
N377 Co376 1.995 . S
N377 C378 1.376 . S
N377 C381 1.383 . S
C378 N377 1.376 . S
C378 C379 1.446 . S
C378 C408 1.391 . S
C379 C378 1.446 . S
C379 C380 1.339 . S
C379 H414 0.949 . S
C380 C379 1.339 . S
C380 C381 1.439 . S
C380 H415 0.950 . S
C381 N377 1.383 . S
C381 C380 1.439 . S
C381 C410 1.392 . S
N382 Co376 2.008 . S
N382 C383 1.376 . S
N382 C386 1.374 . S
C383 N382 1.376 . S
C383 C384 1.443 . S
C383 C410 1.389 . S
C384 C383 1.443 . S
C384 C385 1.340 . S
C384 H416 0.951 . S
C385 C384 1.340 . S
C385 C386 1.439 . S
C385 H417 0.950 . S
C386 N382 1.374 . S
C386 C385 1.439 . S
C386 C411 1.395 . S
N387 Co376 1.995 . S
N387 C388 1.376 . S
N387 C391 1.383 . S
C388 N387 1.376 . S
C388 C389 1.446 . S
C388 C411 1.391 . S
C389 C388 1.446 . S
C389 C390 1.339 . S
C389 H418 0.949 . S
C390 C389 1.339 . S
C390 C391 1.439 . S
C390 H419 0.950 . S
C391 N387 1.383 . S
C391 C390 1.439 . S
C391 C409 1.392 . S
N392 Co376 2.282 . S
N392 C395 1.332 . S
N392 C397 1.332 . S
C393 C394 1.386 . S
C393 C396 1.388 . S
C394 C393 1.386 . S
C394 C395 1.382 . S
C394 H420 0.950 . S
C395 N392 1.332 . S
C395 C394 1.382 . S
C395 H406 0.952 . S
C396 C393 1.388 . S
C396 C397 1.382 . S
C396 H421 0.950 . S
C397 N392 1.332 . S
C397 C396 1.382 . S
C397 H407 0.948 . S
N398 Co376 2.282 . S
N398 C402 1.332 . S
N398 C403 1.332 . S
C399 C400 1.388 . S
C399 C403 1.382 . S
C399 H422 0.950 . S
C400 C399 1.388 . S
C400 C401 1.386 . S
C401 C400 1.386 . S
C401 C402 1.382 . S
C401 H423 0.950 . S
C402 N398 1.332 . S
C402 C401 1.382 . S
C402 H404 0.952 . S
C403 N398 1.332 . S
C403 C399 1.382 . S
C403 H405 0.948 . S
H404 C402 0.952 . S
H405 C403 0.948 . S
H406 C395 0.952 . S
H407 C397 0.948 . S
C408 C374 1.395 . S
C408 C378 1.391 . S
C409 C371 1.389 . S
C409 C391 1.392 . S
C410 C381 1.392 . S
C410 C383 1.389 . S
C411 C386 1.395 . S
C411 C388 1.391 . S
H412 C372 0.951 . S
H413 C373 0.950 . S
H414 C379 0.949 . S
H415 C380 0.950 . S
H416 C384 0.951 . S
H417 C385 0.950 . S
H418 C389 0.949 . S
H419 C390 0.950 . S
H420 C394 0.950 . S
H421 C396 0.950 . S
H422 C399 0.950 . S
H423 C401 0.950 . S
C424 C425 1.443 1_455 S
C424 N428 1.376 1_455 S
C424 C462 1.389 . S
C425 C424 1.443 1_655 S
C425 C426 1.340 . S
C425 H465 0.951 . S
C426 C425 1.340 . S
C426 C427 1.439 . S
C426 H466 0.950 . S
C427 C426 1.439 . S
C427 N428 1.374 . S
C427 C461 1.395 . S
N428 C424 1.376 1_655 S
N428 C427 1.374 . S
N428 Co429 2.008 1_655 S
Co429 N428 2.008 1_455 S
Co429 N430 1.995 1_455 S
Co429 N435 2.008 . S
Co429 N440 1.995 . S
Co429 N445 2.282 . S
Co429 N451 2.282 . S
N430 Co429 1.995 1_655 S
N430 C431 1.376 . S
N430 C434 1.383 . S
C431 N430 1.376 . S
C431 C432 1.446 . S
C431 C461 1.391 . S
C432 C431 1.446 . S
C432 C433 1.339 . S
C432 H467 0.949 . S
C433 C432 1.339 . S
C433 C434 1.439 . S
C433 H468 0.950 . S
C434 N430 1.383 . S
C434 C433 1.439 . S
C434 C463 1.392 . S
N435 Co429 2.008 . S
N435 C436 1.376 . S
N435 C439 1.374 . S
C436 N435 1.376 . S
C436 C437 1.443 . S
C436 C463 1.389 1_455 S
C437 C436 1.443 . S
C437 C438 1.340 . S
C437 H469 0.951 . S
C438 C437 1.340 . S
C438 C439 1.439 . S
C438 H470 0.950 . S
C439 N435 1.374 . S
C439 C438 1.439 . S
C439 C464 1.395 . S
N440 Co429 1.995 . S
N440 C441 1.376 . S
N440 C444 1.383 . S
C441 N440 1.376 . S
C441 C442 1.446 . S
C441 C464 1.391 . S
C442 C441 1.446 . S
C442 C443 1.339 . S
C442 H471 0.949 . S
C443 C442 1.339 . S
C443 C444 1.439 . S
C443 H472 0.950 . S
C444 N440 1.383 . S
C444 C443 1.439 . S
C444 C462 1.392 . S
N445 Co429 2.282 . S
N445 C448 1.332 . S
N445 C450 1.332 1_455 S
C446 C447 1.386 . S
C446 C449 1.388 1_455 S
C447 C446 1.386 . S
C447 C448 1.382 . S
C447 H473 0.950 . S
C448 N445 1.332 . S
C448 C447 1.382 . S
C448 H459 0.952 . S
C449 C446 1.388 1_655 S
C449 C450 1.382 . S
C449 H474 0.950 . S
C450 N445 1.332 1_655 S
C450 C449 1.382 . S
C450 H460 0.948 . S
N451 Co429 2.282 . S
N451 C455 1.332 1_455 S
N451 C456 1.332 . S
C452 C453 1.388 . S
C452 C456 1.382 . S
C452 H475 0.950 . S
C453 C452 1.388 . S
C453 C454 1.386 1_455 S
C454 C453 1.386 1_655 S
C454 C455 1.382 . S
C454 H476 0.950 . S
C455 N451 1.332 1_655 S
C455 C454 1.382 . S
C455 H457 0.952 . S
C456 N451 1.332 . S
C456 C452 1.382 . S
C456 H458 0.948 . S
H457 C455 0.952 . S
H458 C456 0.948 . S
H459 C448 0.952 . S
H460 C450 0.948 . S
C461 C427 1.395 . S
C461 C431 1.391 . S
C462 C424 1.389 . S
C462 C444 1.392 . S
C463 C434 1.392 . S
C463 C436 1.389 1_655 S
C464 C439 1.395 . S
C464 C441 1.391 . S
H465 C425 0.951 . S
H466 C426 0.950 . S
H467 C432 0.949 . S
H468 C433 0.950 . S
H469 C437 0.951 . S
H470 C438 0.950 . S
H471 C442 0.949 . S
H472 C443 0.950 . S
H473 C447 0.950 . S
H474 C449 0.950 . S
H475 C452 0.950 . S
H476 C454 0.950 . S
C477 C478 1.443 1_545 S
C477 N481 1.376 1_545 S
C477 C515 1.389 . S
C478 C477 1.443 1_565 S
C478 C479 1.340 . S
C478 H518 0.951 . S
C479 C478 1.340 . S
C479 C480 1.439 . S
C479 H519 0.950 . S
C480 C479 1.439 . S
C480 N481 1.374 . S
C480 C514 1.395 . S
N481 C477 1.376 1_565 S
N481 C480 1.374 . S
N481 Co482 2.008 1_565 S
Co482 N481 2.008 1_545 S
Co482 N483 1.995 1_545 S
Co482 N488 2.008 . S
Co482 N493 1.995 . S
Co482 N498 2.282 . S
Co482 N504 2.282 . S
N483 Co482 1.995 1_565 S
N483 C484 1.376 . S
N483 C487 1.383 . S
C484 N483 1.376 . S
C484 C485 1.446 . S
C484 C514 1.391 . S
C485 C484 1.446 . S
C485 C486 1.339 . S
C485 H520 0.949 . S
C486 C485 1.339 . S
C486 C487 1.439 . S
C486 H521 0.950 . S
C487 N483 1.383 . S
C487 C486 1.439 . S
C487 C516 1.392 . S
N488 Co482 2.008 . S
N488 C489 1.376 . S
N488 C492 1.374 . S
C489 N488 1.376 . S
C489 C490 1.443 . S
C489 C516 1.389 1_545 S
C490 C489 1.443 . S
C490 C491 1.340 . S
C490 H522 0.951 . S
C491 C490 1.340 . S
C491 C492 1.439 . S
C491 H523 0.950 . S
C492 N488 1.374 . S
C492 C491 1.439 . S
C492 C517 1.395 . S
N493 Co482 1.995 . S
N493 C494 1.376 . S
N493 C497 1.383 . S
C494 N493 1.376 . S
C494 C495 1.446 . S
C494 C517 1.391 . S
C495 C494 1.446 . S
C495 C496 1.339 . S
C495 H524 0.949 . S
C496 C495 1.339 . S
C496 C497 1.439 . S
C496 H525 0.950 . S
C497 N493 1.383 . S
C497 C496 1.439 . S
C497 C515 1.392 . S
N498 Co482 2.282 . S
N498 C501 1.332 . S
N498 C503 1.332 1_545 S
C499 C500 1.386 . S
C499 C502 1.388 1_545 S
C500 C499 1.386 . S
C500 C501 1.382 . S
C500 H526 0.950 . S
C501 N498 1.332 . S
C501 C500 1.382 . S
C501 H512 0.952 . S
C502 C499 1.388 1_565 S
C502 C503 1.382 . S
C502 H527 0.950 . S
C503 N498 1.332 1_565 S
C503 C502 1.382 . S
C503 H513 0.948 . S
N504 Co482 2.282 . S
N504 C508 1.332 1_545 S
N504 C509 1.332 . S
C505 C506 1.388 . S
C505 C509 1.382 . S
C505 H528 0.950 . S
C506 C505 1.388 . S
C506 C507 1.386 1_545 S
C507 C506 1.386 1_565 S
C507 C508 1.382 . S
C507 H529 0.950 . S
C508 N504 1.332 1_565 S
C508 C507 1.382 . S
C508 H510 0.952 . S
C509 N504 1.332 . S
C509 C505 1.382 . S
C509 H511 0.948 . S
H510 C508 0.952 . S
H511 C509 0.948 . S
H512 C501 0.952 . S
H513 C503 0.948 . S
C514 C480 1.395 . S
C514 C484 1.391 . S
C515 C477 1.389 . S
C515 C497 1.392 . S
C516 C487 1.392 . S
C516 C489 1.389 1_565 S
C517 C492 1.395 . S
C517 C494 1.391 . S
H518 C478 0.951 . S
H519 C479 0.950 . S
H520 C485 0.949 . S
H521 C486 0.950 . S
H522 C490 0.951 . S
H523 C491 0.950 . S
H524 C495 0.949 . S
H525 C496 0.950 . S
H526 C500 0.950 . S
H527 C502 0.950 . S
H528 C505 0.950 . S
H529 C507 0.950 . S
C530 C531 1.443 . S
C530 N534 1.376 . S
C530 C568 1.389 . S
C531 C530 1.443 . S
C531 C532 1.340 . S
C531 H571 0.951 . S
C532 C531 1.340 . S
C532 C533 1.439 . S
C532 H572 0.950 . S
C533 C532 1.439 . S
C533 N534 1.374 . S
C533 C567 1.395 . S
N534 C530 1.376 . S
N534 C533 1.374 . S
N534 Co535 2.008 . S
Co535 N534 2.008 . S
Co535 N536 1.995 . S
Co535 N541 2.008 . S
Co535 N546 1.995 . S
Co535 N551 2.282 . S
Co535 N557 2.282 . S
N536 Co535 1.995 . S
N536 C537 1.376 . S
N536 C540 1.383 . S
C537 N536 1.376 . S
C537 C538 1.446 . S
C537 C567 1.391 . S
C538 C537 1.446 . S
C538 C539 1.339 . S
C538 H573 0.949 . S
C539 C538 1.339 . S
C539 C540 1.439 . S
C539 H574 0.950 . S
C540 N536 1.383 . S
C540 C539 1.439 . S
C540 C569 1.392 . S
N541 Co535 2.008 . S
N541 C542 1.376 . S
N541 C545 1.374 . S
C542 N541 1.376 . S
C542 C543 1.443 . S
C542 C569 1.389 . S
C543 C542 1.443 . S
C543 C544 1.340 . S
C543 H575 0.951 . S
C544 C543 1.340 . S
C544 C545 1.439 . S
C544 H576 0.950 . S
C545 N541 1.374 . S
C545 C544 1.439 . S
C545 C570 1.395 . S
N546 Co535 1.995 . S
N546 C547 1.376 . S
N546 C550 1.383 . S
C547 N546 1.376 . S
C547 C548 1.446 . S
C547 C570 1.391 . S
C548 C547 1.446 . S
C548 C549 1.339 . S
C548 H577 0.949 . S
C549 C548 1.339 . S
C549 C550 1.439 . S
C549 H578 0.950 . S
C550 N546 1.383 . S
C550 C549 1.439 . S
C550 C568 1.392 . S
N551 Co535 2.282 . S
N551 C554 1.332 . S
N551 C556 1.332 . S
C552 C553 1.386 . S
C552 C555 1.388 . S
C553 C552 1.386 . S
C553 C554 1.382 . S
C553 H579 0.950 . S
C554 N551 1.332 . S
C554 C553 1.382 . S
C554 H565 0.952 . S
C555 C552 1.388 . S
C555 C556 1.382 . S
C555 H580 0.950 . S
C556 N551 1.332 . S
C556 C555 1.382 . S
C556 H566 0.948 . S
N557 Co535 2.282 . S
N557 C561 1.332 . S
N557 C562 1.332 . S
C558 C559 1.388 . S
C558 C562 1.382 . S
C558 H581 0.950 . S
C559 C558 1.388 . S
C559 C560 1.386 . S
C560 C559 1.386 . S
C560 C561 1.382 . S
C560 H582 0.950 . S
C561 N557 1.332 . S
C561 C560 1.382 . S
C561 H563 0.952 . S
C562 N557 1.332 . S
C562 C558 1.382 . S
C562 H564 0.948 . S
H563 C561 0.952 . S
H564 C562 0.948 . S
H565 C554 0.952 . S
H566 C556 0.948 . S
C567 C533 1.395 . S
C567 C537 1.391 . S
C568 C530 1.389 . S
C568 C550 1.392 . S
C569 C540 1.392 . S
C569 C542 1.389 . S
C570 C545 1.395 . S
C570 C547 1.391 . S
H571 C531 0.951 . S
H572 C532 0.950 . S
H573 C538 0.949 . S
H574 C539 0.950 . S
H575 C543 0.951 . S
H576 C544 0.950 . S
H577 C548 0.949 . S
H578 C549 0.950 . S
H579 C553 0.950 . S
H580 C555 0.950 . S
H581 C558 0.950 . S
H582 C560 0.950 . S
C583 C584 1.443 1_655 S
C583 N587 1.376 1_655 S
C583 C621 1.389 . S
C584 C583 1.443 1_455 S
C584 C585 1.340 . S
C584 H624 0.951 . S
C585 C584 1.340 . S
C585 C586 1.439 . S
C585 H625 0.950 . S
C586 C585 1.439 . S
C586 N587 1.374 . S
C586 C620 1.395 . S
N587 C583 1.376 1_455 S
N587 C586 1.374 . S
N587 Co588 2.008 1_455 S
Co588 N587 2.008 1_655 S
Co588 N589 1.995 1_655 S
Co588 N594 2.008 . S
Co588 N599 1.995 . S
Co588 N604 2.282 . S
Co588 N610 2.282 . S
N589 Co588 1.995 1_455 S
N589 C590 1.376 . S
N589 C593 1.383 . S
C590 N589 1.376 . S
C590 C591 1.446 . S
C590 C620 1.391 . S
C591 C590 1.446 . S
C591 C592 1.339 . S
C591 H626 0.949 . S
C592 C591 1.339 . S
C592 C593 1.439 . S
C592 H627 0.950 . S
C593 N589 1.383 . S
C593 C592 1.439 . S
C593 C622 1.392 . S
N594 Co588 2.008 . S
N594 C595 1.376 . S
N594 C598 1.374 . S
C595 N594 1.376 . S
C595 C596 1.443 . S
C595 C622 1.389 1_655 S
C596 C595 1.443 . S
C596 C597 1.340 . S
C596 H628 0.951 . S
C597 C596 1.340 . S
C597 C598 1.439 . S
C597 H629 0.950 . S
C598 N594 1.374 . S
C598 C597 1.439 . S
C598 C623 1.395 . S
N599 Co588 1.995 . S
N599 C600 1.376 . S
N599 C603 1.383 . S
C600 N599 1.376 . S
C600 C601 1.446 . S
C600 C623 1.391 . S
C601 C600 1.446 . S
C601 C602 1.339 . S
C601 H630 0.949 . S
C602 C601 1.339 . S
C602 C603 1.439 . S
C602 H631 0.950 . S
C603 N599 1.383 . S
C603 C602 1.439 . S
C603 C621 1.392 . S
N604 Co588 2.282 . S
N604 C607 1.332 . S
N604 C609 1.332 1_655 S
C605 C606 1.386 . S
C605 C608 1.388 1_655 S
C606 C605 1.386 . S
C606 C607 1.382 . S
C606 H632 0.950 . S
C607 N604 1.332 . S
C607 C606 1.382 . S
C607 H618 0.952 . S
C608 C605 1.388 1_455 S
C608 C609 1.382 . S
C608 H633 0.950 . S
C609 N604 1.332 1_455 S
C609 C608 1.382 . S
C609 H619 0.948 . S
N610 Co588 2.282 . S
N610 C614 1.332 1_655 S
N610 C615 1.332 . S
C611 C612 1.388 . S
C611 C615 1.382 . S
C611 H634 0.950 . S
C612 C611 1.388 . S
C612 C613 1.386 1_655 S
C613 C612 1.386 1_455 S
C613 C614 1.382 . S
C613 H635 0.950 . S
C614 N610 1.332 1_455 S
C614 C613 1.382 . S
C614 H616 0.952 . S
C615 N610 1.332 . S
C615 C611 1.382 . S
C615 H617 0.948 . S
H616 C614 0.952 . S
H617 C615 0.948 . S
H618 C607 0.952 . S
H619 C609 0.948 . S
C620 C586 1.395 . S
C620 C590 1.391 . S
C621 C583 1.389 . S
C621 C603 1.392 . S
C622 C593 1.392 . S
C622 C595 1.389 1_455 S
C623 C598 1.395 . S
C623 C600 1.391 . S
H624 C584 0.951 . S
H625 C585 0.950 . S
H626 C591 0.949 . S
H627 C592 0.950 . S
H628 C596 0.951 . S
H629 C597 0.950 . S
H630 C601 0.949 . S
H631 C602 0.950 . S
H632 C606 0.950 . S
H633 C608 0.950 . S
H634 C611 0.950 . S
H635 C613 0.950 . S
H636 C648 0.930 . S
H637 C650 0.930 . S
H638 C651 0.936 . S
H639 C655 0.959 . S
H640 C655 0.959 . S
H641 C655 0.961 . S
H642 C656 0.960 . S
H643 C656 0.961 . S
H644 C656 0.959 . S
H645 C659 0.929 . S
H646 C660 0.931 . S
H647 C662 0.930 . S
C648 H636 0.930 . S
C648 C649 1.399 . S
C648 C653 1.396 1_455 S
C649 C648 1.399 . S
C649 C650 1.376 . S
C650 H637 0.930 . S
C650 C649 1.376 . S
C650 C651 1.388 . S
C651 H638 0.936 . S
C651 C650 1.388 . S
C651 C652 1.390 1_455 S
C652 C651 1.390 1_655 S
C652 C653 1.401 . S
C652 C658 1.465 . S
C653 C648 1.396 1_655 S
C653 C652 1.401 . S
C653 C654 1.513 . S
C654 C653 1.513 . S
C654 C655 1.502 1_655 S
C654 C656 1.561 . S
C654 C657 1.526 . S
C655 H639 0.959 . S
C655 H640 0.959 . S
C655 H641 0.961 . S
C655 C654 1.502 1_455 S
C656 H642 0.960 . S
C656 H643 0.961 . S
C656 H644 0.959 . S
C656 C654 1.561 . S
C657 C654 1.526 . S
C657 C658 1.396 . S
C657 C662 1.390 . S
C658 C652 1.465 . S
C658 C657 1.396 . S
C658 C659 1.399 . S
C659 H645 0.929 . S
C659 C658 1.399 . S
C659 C660 1.385 . S
C660 H646 0.931 . S
C660 C659 1.385 . S
C660 C661 1.389 . S
C661 C660 1.389 . S
C661 C662 1.387 . S
C662 H647 0.930 . S
C662 C657 1.390 . S
C662 C661 1.387 . S
H663 C675 0.930 . S
H664 C677 0.930 . S
H665 C678 0.930 . S
H666 C682 0.959 1_565 S
H667 C682 0.959 . S
H668 C682 0.961 . S
H669 C683 0.960 . S
H670 C683 0.961 . S
H671 C683 0.959 . S
H672 C686 0.929 . S
H673 C687 0.931 . S
H674 C689 0.930 . S
C675 H663 0.930 . S
C675 C676 1.399 1_545 S
C675 C680 1.399 . S
C676 C675 1.399 1_565 S
C676 C677 1.376 . S
C677 H664 0.930 . S
C677 C676 1.376 . S
C677 C678 1.388 . S
C678 H665 0.930 . S
C678 C677 1.388 . S
C678 C679 1.390 . S
C679 C678 1.390 . S
C679 C680 1.394 1_565 S
C679 C685 1.465 . S
C680 C675 1.399 . S
C680 C679 1.394 1_545 S
C680 C681 1.516 . S
C681 C680 1.516 . S
C681 C682 1.502 . S
C681 C683 1.561 . S
C681 C684 1.526 . S
C682 H666 0.959 1_545 S
C682 H667 0.959 . S
C682 H668 0.961 . S
C682 C681 1.502 . S
C683 H669 0.960 . S
C683 H670 0.961 . S
C683 H671 0.959 . S
C683 C681 1.561 . S
C684 C681 1.526 . S
C684 C685 1.396 1_545 S
C684 C689 1.390 . S
C685 C679 1.465 . S
C685 C684 1.396 1_565 S
C685 C686 1.399 . S
C686 H672 0.929 . S
C686 C685 1.399 . S
C686 C687 1.385 . S
C687 H673 0.931 . S
C687 C686 1.385 . S
C687 C688 1.389 1_565 S
C688 C687 1.389 1_545 S
C688 C689 1.387 . S
C689 H674 0.930 . S
C689 C684 1.390 . S
C689 C688 1.387 . S
H690 C702 0.930 . S
H691 C704 0.930 . S
H692 C705 0.930 . S
H693 C709 0.959 . S
H694 C709 0.959 . S
H695 C709 0.961 . S
H696 C710 0.960 . S
H697 C710 0.961 . S
H698 C710 0.959 . S
H699 C713 0.929 . S
H700 C714 0.931 . S
H701 C716 0.930 . S
C702 H690 0.930 . S
C702 C703 1.399 . S
C702 C707 1.399 . S
C703 C702 1.399 . S
C703 C704 1.376 . S
C704 H691 0.930 . S
C704 C703 1.376 . S
C704 C705 1.388 . S
C705 H692 0.930 . S
C705 C704 1.388 . S
C705 C706 1.390 . S
C706 C705 1.390 . S
C706 C707 1.394 . S
C706 C712 1.465 . S
C707 C702 1.399 . S
C707 C706 1.394 . S
C707 C708 1.516 . S
C708 C707 1.516 . S
C708 C709 1.502 . S
C708 C710 1.561 . S
C708 C711 1.526 . S
C709 H693 0.959 . S
C709 H694 0.959 . S
C709 H695 0.961 . S
C709 C708 1.502 . S
C710 H696 0.960 . S
C710 H697 0.961 . S
C710 H698 0.959 . S
C710 C708 1.561 . S
C711 C708 1.526 . S
C711 C712 1.396 . S
C711 C716 1.390 . S
C712 C706 1.465 . S
C712 C711 1.396 . S
C712 C713 1.399 . S
C713 H699 0.929 . S
C713 C712 1.399 . S
C713 C714 1.385 . S
C714 H700 0.931 . S
C714 C713 1.385 . S
C714 C715 1.389 . S
C715 C714 1.389 . S
C715 C716 1.387 . S
C716 H701 0.930 . S
C716 C711 1.390 . S
C716 C715 1.387 . S
H717 C729 0.930 . S
H718 C731 0.930 . S
H719 C732 0.930 . S
H720 C736 0.959 . S
H721 C736 0.959 . S
H722 C736 0.961 . S
H723 C737 0.960 . S
H724 C737 0.961 . S
H725 C737 0.959 . S
H726 C740 0.929 . S
H727 C741 0.931 . S
H728 C743 0.930 . S
C729 H717 0.930 . S
C729 C730 1.399 1_655 S
C729 C734 1.399 . S
C730 C729 1.399 1_455 S
C730 C731 1.376 . S
C731 H718 0.930 . S
C731 C730 1.376 . S
C731 C732 1.388 . S
C732 H719 0.930 . S
C732 C731 1.388 . S
C732 C733 1.390 . S
C733 C732 1.390 . S
C733 C734 1.394 1_455 S
C733 C739 1.465 . S
C734 C729 1.399 . S
C734 C733 1.394 1_655 S
C734 C735 1.516 . S
C735 C734 1.516 . S
C735 C736 1.502 . S
C735 C737 1.561 . S
C735 C738 1.526 . S
C736 H720 0.959 . S
C736 H721 0.959 . S
C736 H722 0.961 . S
C736 C735 1.502 . S
C737 H723 0.960 . S
C737 H724 0.961 . S
C737 H725 0.959 . S
C737 C735 1.561 . S
C738 C735 1.526 . S
C738 C739 1.396 1_655 S
C738 C743 1.390 . S
C739 C733 1.465 . S
C739 C738 1.396 1_455 S
C739 C740 1.399 . S
C740 H726 0.929 . S
C740 C739 1.399 . S
C740 C741 1.385 . S
C741 H727 0.931 . S
C741 C740 1.385 . S
C741 C742 1.389 1_455 S
C742 C741 1.389 1_655 S
C742 C743 1.387 . S
C743 H728 0.930 . S
C743 C738 1.390 . S
C743 C742 1.387 . S
H744 C756 0.930 . S
H745 C758 0.930 . S
H746 C759 0.930 . S
H747 C763 0.959 . S
H748 C763 0.959 . S
H749 C763 0.961 . S
H750 C764 0.960 . S
H751 C764 0.961 . S
H752 C764 0.959 . S
H753 C767 0.929 . S
H754 C768 0.931 . S
H755 C770 0.930 . S
C756 H744 0.930 . S
C756 C757 1.399 . S
C756 C761 1.399 . S
C757 C756 1.399 . S
C757 C758 1.376 1_565 S
C758 H745 0.930 . S
C758 C757 1.376 1_545 S
C758 C759 1.388 . S
C759 H746 0.930 . S
C759 C758 1.388 . S
C759 C760 1.390 . S
C760 C759 1.390 . S
C760 C761 1.394 1_545 S
C760 C766 1.465 . S
C761 C756 1.399 . S
C761 C760 1.394 1_565 S
C761 C762 1.516 . S
C762 C761 1.516 . S
C762 C763 1.502 . S
C762 C764 1.561 . S
C762 C765 1.526 . S
C763 H747 0.959 . S
C763 H748 0.959 . S
C763 H749 0.961 . S
C763 C762 1.502 . S
C764 H750 0.960 . S
C764 H751 0.961 . S
C764 H752 0.959 . S
C764 C762 1.561 . S
C765 C762 1.526 . S
C765 C766 1.396 1_565 S
C765 C770 1.390 . S
C766 C760 1.465 . S
C766 C765 1.396 1_545 S
C766 C767 1.399 . S
C767 H753 0.929 . S
C767 C766 1.399 . S
C767 C768 1.385 . S
C768 H754 0.931 . S
C768 C767 1.385 . S
C768 C769 1.389 . S
C769 C768 1.389 . S
C769 C770 1.387 1_545 S
C770 H755 0.930 . S
C770 C765 1.390 . S
C770 C769 1.387 1_565 S
H771 C783 0.930 . S
H772 C785 0.930 . S
H773 C786 0.930 . S
H774 C790 0.959 . S
H775 C790 0.959 . S
H776 C790 0.961 . S
H777 C791 0.960 . S
H778 C791 0.961 . S
H779 C791 0.959 . S
H780 C794 0.929 . S
H781 C795 0.931 . S
H782 C797 0.930 . S
C783 H771 0.930 . S
C783 C784 1.399 . S
C783 C788 1.399 . S
C784 C783 1.399 . S
C784 C785 1.376 . S
C785 H772 0.930 . S
C785 C784 1.376 . S
C785 C786 1.388 . S
C786 H773 0.930 . S
C786 C785 1.388 . S
C786 C787 1.390 . S
C787 C786 1.390 . S
C787 C788 1.394 . S
C787 C793 1.465 . S
C788 C783 1.399 . S
C788 C787 1.394 . S
C788 C789 1.516 . S
C789 C788 1.516 . S
C789 C790 1.502 . S
C789 C791 1.561 . S
C789 C792 1.526 . S
C790 H774 0.959 . S
C790 H775 0.959 . S
C790 H776 0.961 . S
C790 C789 1.502 . S
C791 H777 0.960 . S
C791 H778 0.961 . S
C791 H779 0.959 . S
C791 C789 1.561 . S
C792 C789 1.526 . S
C792 C793 1.396 . S
C792 C797 1.390 . S
C793 C787 1.465 . S
C793 C792 1.396 . S
C793 C794 1.399 . S
C794 H780 0.929 . S
C794 C793 1.399 . S
C794 C795 1.385 . S
C795 H781 0.931 . S
C795 C794 1.385 . S
C795 C796 1.389 . S
C796 C795 1.389 . S
C796 C797 1.387 . S
C797 H782 0.930 . S
C797 C792 1.390 . S
C797 C796 1.387 . S
H798 C810 0.930 . S
H799 C812 0.930 . S
H800 C813 0.930 . S
H801 C817 0.959 . S
H802 C817 0.959 . S
H803 C817 0.961 . S
H804 C818 0.960 . S
H805 C818 0.961 . S
H806 C818 0.959 . S
H807 C821 0.929 . S
H808 C822 0.931 . S
H809 C824 0.930 . S
C810 H798 0.930 . S
C810 C811 1.399 . S
C810 C815 1.399 . S
C811 C810 1.399 . S
C811 C812 1.376 . S
C812 H799 0.930 . S
C812 C811 1.376 . S
C812 C813 1.388 . S
C813 H800 0.930 . S
C813 C812 1.388 . S
C813 C814 1.390 . S
C814 C813 1.390 . S
C814 C815 1.394 . S
C814 C820 1.465 1_554 S
C815 C810 1.399 . S
C815 C814 1.394 . S
C815 C816 1.531 . S
C816 C815 1.531 . S
C816 C817 1.488 1_554 S
C816 C818 1.576 . S
C816 C819 1.511 1_554 S
C817 H801 0.959 . S
C817 H802 0.959 . S
C817 H803 0.961 . S
C817 C816 1.488 1_556 S
C818 H804 0.960 . S
C818 H805 0.961 . S
C818 H806 0.959 . S
C818 C816 1.576 . S
C819 C816 1.511 1_556 S
C819 C820 1.396 . S
C819 C824 1.390 . S
C820 C814 1.465 1_556 S
C820 C819 1.396 . S
C820 C821 1.399 . S
C821 H807 0.929 . S
C821 C820 1.399 . S
C821 C822 1.385 . S
C822 H808 0.931 . S
C822 C821 1.385 . S
C822 C823 1.389 . S
C823 C822 1.389 . S
C823 C824 1.387 . S
C824 H809 0.930 . S
C824 C819 1.390 . S
C824 C823 1.387 . S
H825 C837 0.930 . S
H826 C839 0.930 . S
H827 C840 0.930 . S
H828 C844 0.959 . S
H829 C844 0.959 . S
H830 C844 0.961 . S
H831 C845 0.960 . S
H832 C845 0.961 . S
H833 C845 0.959 . S
H834 C848 0.929 . S
H835 C849 0.931 . S
H836 C851 0.930 . S
C837 H825 0.930 . S
C837 C838 1.399 . S
C837 C842 1.399 . S
C838 C837 1.399 . S
C838 C839 1.376 . S
C839 H826 0.930 . S
C839 C838 1.376 . S
C839 C840 1.388 . S
C840 H827 0.930 . S
C840 C839 1.388 . S
C840 C841 1.390 . S
C841 C840 1.390 . S
C841 C842 1.394 . S
C841 C847 1.465 . S
C842 C837 1.399 . S
C842 C841 1.394 . S
C842 C843 1.516 . S
C843 C842 1.516 . S
C843 C844 1.502 . S
C843 C845 1.561 . S
C843 C846 1.526 . S
C844 H828 0.959 . S
C844 H829 0.959 . S
C844 H830 0.961 . S
C844 C843 1.502 . S
C845 H831 0.960 . S
C845 H832 0.961 . S
C845 H833 0.959 . S
C845 C843 1.561 . S
C846 C843 1.526 . S
C846 C847 1.396 . S
C846 C851 1.390 . S
C847 C841 1.465 . S
C847 C846 1.396 . S
C847 C848 1.399 . S
C848 H834 0.929 . S
C848 C847 1.399 . S
C848 C849 1.385 . S
C849 H835 0.931 . S
C849 C848 1.385 . S
C849 C850 1.389 . S
C850 C849 1.389 . S
C850 C851 1.387 . S
C851 H836 0.930 . S
C851 C846 1.390 . S
C851 C850 1.387 . S
H852 C864 0.930 . S
H853 C866 0.930 . S
H854 C867 0.930 . S
H855 C871 0.959 . S
H856 C871 0.959 . S
H857 C871 0.961 . S
H858 C872 0.960 . S
H859 C872 0.961 . S
H860 C872 0.959 . S
H861 C875 0.929 . S
H862 C876 0.931 . S
H863 C878 0.930 . S
C864 H852 0.930 . S
C864 C865 1.399 . S
C864 C869 1.399 . S
C865 C864 1.399 . S
C865 C866 1.376 . S
C866 H853 0.930 . S
C866 C865 1.376 . S
C866 C867 1.388 . S
C867 H854 0.930 . S
C867 C866 1.388 . S
C867 C868 1.390 . S
C868 C867 1.390 . S
C868 C869 1.394 . S
C868 C874 1.465 . S
C869 C864 1.399 . S
C869 C868 1.394 . S
C869 C870 1.516 . S
C870 C869 1.516 . S
C870 C871 1.502 . S
C870 C872 1.561 . S
C870 C873 1.526 . S
C871 H855 0.959 . S
C871 H856 0.959 . S
C871 H857 0.961 . S
C871 C870 1.502 . S
C872 H858 0.960 . S
C872 H859 0.961 . S
C872 H860 0.959 . S
C872 C870 1.561 . S
C873 C870 1.526 . S
C873 C874 1.396 . S
C873 C878 1.390 . S
C874 C868 1.465 . S
C874 C873 1.396 . S
C874 C875 1.399 . S
C875 H861 0.929 . S
C875 C874 1.399 . S
C875 C876 1.385 . S
C876 H862 0.931 . S
C876 C875 1.385 . S
C876 C877 1.389 . S
C877 C876 1.389 . S
C877 C878 1.387 . S
C878 H863 0.930 . S
C878 C873 1.390 . S
C878 C877 1.387 . S
H879 C891 0.930 . S
H880 C893 0.930 . S
H881 C894 0.930 . S
H882 C898 0.959 . S
H883 C898 0.959 . S
H884 C898 0.961 . S
H885 C899 0.927 1_554 S
H886 C899 0.961 . S
H887 C899 0.959 . S
H888 C902 0.929 . S
H889 C903 0.931 . S
H890 C905 0.930 . S
C891 H879 0.930 . S
C891 C892 1.399 . S
C891 C896 1.399 . S
C892 C891 1.399 . S
C892 C893 1.376 . S
C893 H880 0.930 . S
C893 C892 1.376 . S
C893 C894 1.388 . S
C894 H881 0.930 . S
C894 C893 1.388 . S
C894 C895 1.390 . S
C895 C894 1.390 . S
C895 C896 1.394 . S
C895 C901 1.465 1_554 S
C896 C891 1.399 . S
C896 C895 1.394 . S
C896 C897 1.516 . S
C897 C896 1.516 . S
C897 C898 1.502 . S
C897 C899 1.561 1_554 S
C897 C900 1.526 1_554 S
C898 H882 0.959 . S
C898 H883 0.959 . S
C898 H884 0.961 . S
C898 C897 1.502 . S
C899 H885 0.927 1_556 S
C899 H886 0.961 . S
C899 H887 0.959 . S
C899 C897 1.561 1_556 S
C900 C897 1.526 1_556 S
C900 C901 1.396 . S
C900 C905 1.390 . S
C901 C895 1.465 1_556 S
C901 C900 1.396 . S
C901 C902 1.399 . S
C902 H888 0.929 . S
C902 C901 1.399 . S
C902 C903 1.385 . S
C903 H889 0.931 . S
C903 C902 1.385 . S
C903 C904 1.389 . S
C904 C903 1.389 . S
C904 C905 1.387 . S
C905 H890 0.930 . S
C905 C900 1.390 . S
C905 C904 1.387 . S
H906 C918 0.930 . S
H907 C920 0.930 . S
H908 C921 0.930 . S
H909 C925 0.959 . S
H910 C925 0.959 . S
H911 C925 0.961 . S
H912 C926 0.960 . S
H913 C926 0.961 . S
H914 C926 0.959 . S
H915 C929 0.929 . S
H916 C930 0.931 . S
H917 C932 0.930 . S
C918 H906 0.930 . S
C918 C919 1.399 . S
C918 C923 1.399 . S
C919 C918 1.399 . S
C919 C920 1.376 . S
C920 H907 0.930 . S
C920 C919 1.376 . S
C920 C921 1.388 . S
C921 H908 0.930 . S
C921 C920 1.388 . S
C921 C922 1.390 . S
C922 C921 1.390 . S
C922 C923 1.394 . S
C922 C928 1.465 . S
C923 C918 1.399 . S
C923 C922 1.394 . S
C923 C924 1.516 . S
C924 C923 1.516 . S
C924 C925 1.502 . S
C924 C926 1.561 . S
C924 C927 1.526 . S
C925 H909 0.959 . S
C925 H910 0.959 . S
C925 H911 0.961 . S
C925 C924 1.502 . S
C926 H912 0.960 . S
C926 H913 0.961 . S
C926 H914 0.959 . S
C926 C924 1.561 . S
C927 C924 1.526 . S
C927 C928 1.396 . S
C927 C932 1.390 . S
C928 C922 1.465 . S
C928 C927 1.396 . S
C928 C929 1.399 . S
C929 H915 0.929 . S
C929 C928 1.399 . S
C929 C930 1.385 . S
C930 H916 0.931 . S
C930 C929 1.385 . S
C930 C931 1.389 . S
C931 C930 1.389 . S
C931 C932 1.387 . S
C932 H917 0.930 . S
C932 C927 1.390 . S
C932 C931 1.387 . S
H933 C945 0.930 . S
H934 C947 0.930 . S
H935 C948 0.930 . S
H936 C952 0.959 . S
H937 C952 0.959 . S
H938 C952 0.961 . S
H939 C953 0.960 . S
H940 C953 0.961 . S
H941 C953 0.959 . S
H942 C956 0.929 . S
H943 C957 0.931 . S
H944 C959 0.930 . S
C945 H933 0.930 . S
C945 C946 1.399 . S
C945 C950 1.399 . S
C946 C945 1.399 . S
C946 C947 1.376 . S
C947 H934 0.930 . S
C947 C946 1.376 . S
C947 C948 1.388 . S
C948 H935 0.930 . S
C948 C947 1.388 . S
C948 C949 1.390 . S
C949 C948 1.390 . S
C949 C950 1.394 . S
C949 C955 1.465 . S
C950 C945 1.399 . S
C950 C949 1.394 . S
C950 C951 1.516 . S
C951 C950 1.516 . S
C951 C952 1.502 . S
C951 C953 1.561 . S
C951 C954 1.526 . S
C952 H936 0.959 . S
C952 H937 0.959 . S
C952 H938 0.961 . S
C952 C951 1.502 . S
C953 H939 0.960 . S
C953 H940 0.961 . S
C953 H941 0.959 . S
C953 C951 1.561 . S
C954 C951 1.526 . S
C954 C955 1.396 . S
C954 C959 1.390 . S
C955 C949 1.465 . S
C955 C954 1.396 . S
C955 C956 1.399 . S
C956 H942 0.929 . S
C956 C955 1.399 . S
C956 C957 1.385 . S
C957 H943 0.931 . S
C957 C956 1.385 . S
C957 C958 1.389 . S
C958 C957 1.389 . S
C958 C959 1.387 . S
C959 H944 0.930 . S
C959 C954 1.390 . S
C959 C958 1.387 . S
H960 C972 0.930 . S
H961 C974 0.930 . S
H962 C975 0.930 . S
H963 C979 0.959 . S
H964 C979 0.959 . S
H965 C979 0.961 . S
H966 C980 0.960 . S
H967 C980 0.961 . S
H968 C980 0.959 1_455 S
H969 C983 0.929 . S
H970 C984 0.931 . S
H971 C986 0.930 . S
C972 H960 0.930 . S
C972 C973 1.399 . S
C972 C977 1.399 . S
C973 C972 1.399 . S
C973 C974 1.376 1_655 S
C974 H961 0.930 . S
C974 C973 1.376 1_455 S
C974 C975 1.388 . S
C975 H962 0.930 . S
C975 C974 1.388 . S
C975 C976 1.390 . S
C976 C975 1.390 . S
C976 C977 1.394 1_455 S
C976 C982 1.465 . S
C977 C972 1.399 . S
C977 C976 1.394 1_655 S
C977 C978 1.516 . S
C978 C977 1.516 . S
C978 C979 1.502 . S
C978 C980 1.561 . S
C978 C981 1.526 . S
C979 H963 0.959 . S
C979 H964 0.959 . S
C979 H965 0.961 . S
C979 C978 1.502 . S
C980 H966 0.960 . S
C980 H967 0.961 . S
C980 H968 0.959 1_655 S
C980 C978 1.561 . S
C981 C978 1.526 . S
C981 C982 1.396 1_655 S
C981 C986 1.390 . S
C982 C976 1.465 . S
C982 C981 1.396 1_455 S
C982 C983 1.399 . S
C983 H969 0.929 . S
C983 C982 1.399 . S
C983 C984 1.385 . S
C984 H970 0.931 . S
C984 C983 1.385 . S
C984 C985 1.389 . S
C985 C984 1.389 . S
C985 C986 1.387 1_455 S
C986 H971 0.930 . S
C986 C981 1.390 . S
C986 C985 1.387 1_655 S
H987 C999 0.930 1_565 S
H988 C1001 0.930 . S
H989 C1002 0.930 . S
H990 C1006 0.959 . S
H991 C1006 0.959 . S
H992 C1006 0.961 . S
H993 C1007 0.960 . S
H994 C1007 0.961 . S
H995 C1007 0.959 . S
H996 C1010 0.929 . S
H997 C1011 0.931 . S
H998 C1013 0.930 . S
C999 H987 0.930 1_545 S
C999 C1000 1.399 . S
C999 C1004 1.389 . S
C1000 C999 1.399 . S
C1000 C1001 1.376 . S
C1001 H988 0.930 . S
C1001 C1000 1.376 . S
C1001 C1002 1.388 . S
C1002 H989 0.930 . S
C1002 C1001 1.388 . S
C1002 C1003 1.390 . S
C1003 C1002 1.390 . S
C1003 C1004 1.404 . S
C1003 C1009 1.465 . S
C1004 C999 1.389 . S
C1004 C1003 1.404 . S
C1004 C1005 1.519 1_545 S
C1005 C1004 1.519 1_565 S
C1005 C1006 1.502 . S
C1005 C1007 1.561 1_565 S
C1005 C1008 1.526 . S
C1006 H990 0.959 . S
C1006 H991 0.959 . S
C1006 H992 0.961 . S
C1006 C1005 1.502 . S
C1007 H993 0.960 . S
C1007 H994 0.961 . S
C1007 H995 0.959 . S
C1007 C1005 1.561 1_545 S
C1008 C1005 1.526 . S
C1008 C1009 1.396 1_565 S
C1008 C1013 1.390 . S
C1009 C1003 1.465 . S
C1009 C1008 1.396 1_545 S
C1009 C1010 1.399 . S
C1010 H996 0.929 . S
C1010 C1009 1.399 . S
C1010 C1011 1.385 . S
C1011 H997 0.931 . S
C1011 C1010 1.385 . S
C1011 C1012 1.389 1_545 S
C1012 C1011 1.389 1_565 S
C1012 C1013 1.387 . S
C1013 H998 0.930 . S
C1013 C1008 1.390 . S
C1013 C1012 1.387 . S
H1014 C1026 0.930 . S
H1015 C1028 0.930 . S
H1016 C1029 0.930 . S
H1017 C1033 0.959 . S
H1018 C1033 0.959 . S
H1019 C1033 0.961 . S
H1020 C1034 0.960 . S
H1021 C1034 0.961 . S
H1022 C1034 0.959 . S
H1023 C1037 0.929 . S
H1024 C1038 0.931 . S
H1025 C1040 0.930 . S
C1026 H1014 0.930 . S
C1026 C1027 1.399 . S
C1026 C1031 1.399 . S
C1027 C1026 1.399 . S
C1027 C1028 1.376 . S
C1028 H1015 0.930 . S
C1028 C1027 1.376 . S
C1028 C1029 1.388 . S
C1029 H1016 0.930 . S
C1029 C1028 1.388 . S
C1029 C1030 1.390 . S
C1030 C1029 1.390 . S
C1030 C1031 1.394 . S
C1030 C1036 1.465 . S
C1031 C1026 1.399 . S
C1031 C1030 1.394 . S
C1031 C1032 1.516 . S
C1032 C1031 1.516 . S
C1032 C1033 1.502 . S
C1032 C1034 1.561 . S
C1032 C1035 1.526 . S
C1033 H1017 0.959 . S
C1033 H1018 0.959 . S
C1033 H1019 0.961 . S
C1033 C1032 1.502 . S
C1034 H1020 0.960 . S
C1034 H1021 0.961 . S
C1034 H1022 0.959 . S
C1034 C1032 1.561 . S
C1035 C1032 1.526 . S
C1035 C1036 1.396 . S
C1035 C1040 1.390 . S
C1036 C1030 1.465 . S
C1036 C1035 1.396 . S
C1036 C1037 1.399 . S
C1037 H1023 0.929 . S
C1037 C1036 1.399 . S
C1037 C1038 1.385 . S
C1038 H1024 0.931 . S
C1038 C1037 1.385 . S
C1038 C1039 1.389 . S
C1039 C1038 1.389 . S
C1039 C1040 1.387 . S
C1040 H1025 0.930 . S
C1040 C1035 1.390 . S
C1040 C1039 1.387 . S
H1041 C1053 0.930 . S
H1042 C1055 0.930 . S
H1043 C1056 0.930 . S
H1044 C1060 0.959 . S
H1045 C1060 0.959 . S
H1046 C1060 0.961 . S
H1047 C1061 0.960 . S
H1048 C1061 0.939 1_565 S
H1049 C1061 0.959 . S
H1050 C1064 0.929 . S
H1051 C1065 0.931 . S
H1052 C1067 0.930 . S
C1053 H1041 0.930 . S
C1053 C1054 1.399 1_565 S
C1053 C1058 1.399 . S
C1054 C1053 1.399 1_545 S
C1054 C1055 1.376 . S
C1055 H1042 0.930 . S
C1055 C1054 1.376 . S
C1055 C1056 1.388 . S
C1056 H1043 0.930 . S
C1056 C1055 1.388 . S
C1056 C1057 1.390 . S
C1057 C1056 1.390 . S
C1057 C1058 1.394 1_545 S
C1057 C1063 1.465 . S
C1058 C1053 1.399 . S
C1058 C1057 1.394 1_565 S
C1058 C1059 1.516 . S
C1059 C1058 1.516 . S
C1059 C1060 1.502 . S
C1059 C1061 1.561 1_565 S
C1059 C1062 1.526 . S
C1060 H1044 0.959 . S
C1060 H1045 0.959 . S
C1060 H1046 0.961 . S
C1060 C1059 1.502 . S
C1061 H1047 0.960 . S
C1061 H1048 0.939 1_545 S
C1061 H1049 0.959 . S
C1061 C1059 1.561 1_545 S
C1062 C1059 1.526 . S
C1062 C1063 1.396 1_565 S
C1062 C1067 1.390 . S
C1063 C1057 1.465 . S
C1063 C1062 1.396 1_545 S
C1063 C1064 1.399 . S
C1064 H1050 0.929 . S
C1064 C1063 1.399 . S
C1064 C1065 1.385 . S
C1065 H1051 0.931 . S
C1065 C1064 1.385 . S
C1065 C1066 1.389 1_545 S
C1066 C1065 1.389 1_565 S
C1066 C1067 1.387 . S
C1067 H1052 0.930 . S
C1067 C1062 1.390 . S
C1067 C1066 1.387 . S
H1068 C1080 0.930 . S
H1069 C1082 0.930 . S
H1070 C1083 0.930 . S
H1071 C1087 0.959 . S
H1072 C1087 0.959 . S
H1073 C1087 0.961 . S
H1074 C1088 0.960 . S
H1075 C1088 0.961 . S
H1076 C1088 0.959 . S
H1077 C1091 0.929 . S
H1078 C1092 0.931 . S
H1079 C1094 0.930 . S
C1080 H1068 0.930 . S
C1080 C1081 1.399 . S
C1080 C1085 1.399 . S
C1081 C1080 1.399 . S
C1081 C1082 1.376 . S
C1082 H1069 0.930 . S
C1082 C1081 1.376 . S
C1082 C1083 1.388 . S
C1083 H1070 0.930 . S
C1083 C1082 1.388 . S
C1083 C1084 1.390 . S
C1084 C1083 1.390 . S
C1084 C1085 1.394 . S
C1084 C1090 1.465 . S
C1085 C1080 1.399 . S
C1085 C1084 1.394 . S
C1085 C1086 1.516 . S
C1086 C1085 1.516 . S
C1086 C1087 1.502 . S
C1086 C1088 1.561 . S
C1086 C1089 1.526 . S
C1087 H1071 0.959 . S
C1087 H1072 0.959 . S
C1087 H1073 0.961 . S
C1087 C1086 1.502 . S
C1088 H1074 0.960 . S
C1088 H1075 0.961 . S
C1088 H1076 0.959 . S
C1088 C1086 1.561 . S
C1089 C1086 1.526 . S
C1089 C1090 1.396 . S
C1089 C1094 1.390 . S
C1090 C1084 1.465 . S
C1090 C1089 1.396 . S
C1090 C1091 1.399 . S
C1091 H1077 0.929 . S
C1091 C1090 1.399 . S
C1091 C1092 1.385 . S
C1092 H1078 0.931 . S
C1092 C1091 1.385 . S
C1092 C1093 1.389 . S
C1093 C1092 1.389 . S
C1093 C1094 1.387 . S
C1094 H1079 0.930 . S
C1094 C1089 1.390 . S
C1094 C1093 1.387 . S
H1095 C1107 0.930 1_655 S
H1096 C1109 0.930 . S
H1097 C1110 0.930 . S
H1098 C1114 0.959 . S
H1099 C1114 0.959 . S
H1100 C1114 0.961 . S
H1101 C1115 0.960 . S
H1102 C1115 0.961 . S
H1103 C1115 0.959 . S
H1104 C1118 0.929 . S
H1105 C1119 0.931 . S
H1106 C1121 0.930 . S
C1107 H1095 0.930 1_455 S
C1107 C1108 1.399 . S
C1107 C1112 1.388 . S
C1108 C1107 1.399 . S
C1108 C1109 1.376 . S
C1109 H1096 0.930 . S
C1109 C1108 1.376 . S
C1109 C1110 1.388 . S
C1110 H1097 0.930 . S
C1110 C1109 1.388 . S
C1110 C1111 1.390 . S
C1111 C1110 1.390 . S
C1111 C1112 1.404 . S
C1111 C1117 1.465 . S
C1112 C1107 1.388 . S
C1112 C1111 1.404 . S
C1112 C1113 1.519 1_455 S
C1113 C1112 1.519 1_655 S
C1113 C1114 1.502 . S
C1113 C1115 1.561 1_655 S
C1113 C1116 1.526 . S
C1114 H1098 0.959 . S
C1114 H1099 0.959 . S
C1114 H1100 0.961 . S
C1114 C1113 1.502 . S
C1115 H1101 0.960 . S
C1115 H1102 0.961 . S
C1115 H1103 0.959 . S
C1115 C1113 1.561 1_455 S
C1116 C1113 1.526 . S
C1116 C1117 1.396 1_655 S
C1116 C1121 1.390 . S
C1117 C1111 1.465 . S
C1117 C1116 1.396 1_455 S
C1117 C1118 1.399 . S
C1118 H1104 0.929 . S
C1118 C1117 1.399 . S
C1118 C1119 1.385 . S
C1119 H1105 0.931 . S
C1119 C1118 1.385 . S
C1119 C1120 1.389 1_455 S
C1120 C1119 1.389 1_655 S
C1120 C1121 1.387 . S
C1121 H1106 0.930 . S
C1121 C1116 1.390 . S
C1121 C1120 1.387 . S
H1122 C1134 0.930 . S
H1123 C1136 0.930 . S
H1124 C1137 0.930 . S
H1125 C1141 0.959 . S
H1126 C1141 0.959 1_565 S
H1127 C1141 0.961 . S
H1128 C1142 0.960 1_545 S
H1129 C1142 0.961 . S
H1130 C1142 0.959 . S
H1131 C1145 0.929 . S
H1132 C1146 0.931 . S
H1133 C1148 0.930 1_455 S
C1134 H1122 0.930 . S
C1134 C1135 1.399 . S
C1134 C1139 1.399 . S
C1135 C1134 1.399 . S
C1135 C1136 1.376 1_455 S
C1136 H1123 0.930 . S
C1136 C1135 1.376 1_655 S
C1136 C1137 1.388 . S
C1137 H1124 0.930 . S
C1137 C1136 1.388 . S
C1137 C1138 1.390 . S
C1138 C1137 1.390 . S
C1138 C1139 1.394 1_655 S
C1138 C1144 1.465 1_545 S
C1139 C1134 1.399 . S
C1139 C1138 1.394 1_455 S
C1139 C1140 1.516 . S
C1140 C1139 1.516 . S
C1140 C1141 1.502 . S
C1140 C1142 1.561 1_445 S
C1140 C1143 1.526 1_445 S
C1141 H1125 0.959 . S
C1141 H1126 0.959 1_545 S
C1141 H1127 0.961 . S
C1141 C1140 1.502 . S
C1142 H1128 0.960 1_565 S
C1142 H1129 0.961 . S
C1142 H1130 0.959 . S
C1142 C1140 1.561 1_665 S
C1143 C1140 1.526 1_665 S
C1143 C1144 1.396 . S
C1143 C1148 1.390 . S
C1144 C1138 1.465 1_565 S
C1144 C1143 1.396 . S
C1144 C1145 1.399 . S
C1145 H1131 0.929 . S
C1145 C1144 1.399 . S
C1145 C1146 1.385 . S
C1146 H1132 0.931 . S
C1146 C1145 1.385 . S
C1146 C1147 1.389 . S
C1147 C1146 1.389 . S
C1147 C1148 1.387 . S
C1148 H1133 0.930 1_655 S
C1148 C1143 1.390 . S
C1148 C1147 1.387 . S
H1149 C1161 0.930 . S
H1150 C1163 0.930 . S
H1151 C1164 0.930 . S
H1152 C1168 0.959 . S
H1153 C1168 0.959 . S
H1154 C1168 0.961 . S
H1155 C1169 0.960 1_655 S
H1156 C1169 0.961 . S
H1157 C1169 0.959 . S
H1158 C1172 0.929 . S
H1159 C1173 0.922 . S
H1160 C1175 0.930 . S
C1161 H1149 0.930 . S
C1161 C1162 1.399 . S
C1161 C1166 1.399 . S
C1162 C1161 1.399 . S
C1162 C1163 1.376 . S
C1163 H1150 0.930 . S
C1163 C1162 1.376 . S
C1163 C1164 1.388 . S
C1164 H1151 0.930 . S
C1164 C1163 1.388 . S
C1164 C1165 1.390 . S
C1165 C1164 1.390 . S
C1165 C1166 1.394 . S
C1165 C1171 1.465 1_655 S
C1166 C1161 1.399 . S
C1166 C1165 1.394 . S
C1166 C1167 1.516 1_545 S
C1167 C1166 1.516 1_565 S
C1167 C1168 1.502 . S
C1167 C1169 1.561 1_665 S
C1167 C1170 1.526 1_655 S
C1168 H1152 0.959 . S
C1168 H1153 0.959 . S
C1168 H1154 0.961 . S
C1168 C1167 1.502 . S
C1169 H1155 0.960 1_455 S
C1169 H1156 0.961 . S
C1169 H1157 0.959 . S
C1169 C1167 1.561 1_445 S
C1170 C1167 1.526 1_455 S
C1170 C1171 1.396 1_565 S
C1170 C1175 1.390 . S
C1171 C1165 1.465 1_455 S
C1171 C1170 1.396 1_545 S
C1171 C1172 1.399 . S
C1172 H1158 0.929 . S
C1172 C1171 1.399 . S
C1172 C1173 1.385 1_545 S
C1173 H1159 0.922 . S
C1173 C1172 1.385 1_565 S
C1173 C1174 1.389 . S
C1174 C1173 1.389 . S
C1174 C1175 1.387 . S
C1175 H1160 0.930 . S
C1175 C1170 1.390 . S
C1175 C1174 1.387 . S
H1176 C1188 0.930 . S
H1177 C1190 0.930 . S
H1178 C1191 0.930 . S
H1179 C1195 0.959 . S
H1180 C1195 0.959 1_655 S
H1181 C1195 0.961 1_545 S
H1182 C1196 0.960 1_455 S
H1183 C1196 0.961 . S
H1184 C1196 0.959 . S
H1185 C1199 0.929 . S
H1186 C1200 0.931 . S
H1187 C1202 0.930 . S
C1188 H1176 0.930 . S
C1188 C1189 1.399 . S
C1188 C1193 1.399 . S
C1189 C1188 1.399 . S
C1189 C1190 1.376 . S
C1190 H1177 0.930 . S
C1190 C1189 1.376 . S
C1190 C1191 1.388 . S
C1191 H1178 0.930 . S
C1191 C1190 1.388 . S
C1191 C1192 1.390 . S
C1192 C1191 1.390 . S
C1192 C1193 1.394 . S
C1192 C1198 1.465 1_445 S
C1193 C1188 1.399 . S
C1193 C1192 1.394 . S
C1193 C1194 1.516 1_455 S
C1194 C1193 1.516 1_655 S
C1194 C1195 1.502 1_645 S
C1194 C1196 1.561 . S
C1194 C1197 1.526 1_545 S
C1195 H1179 0.959 . S
C1195 H1180 0.959 1_455 S
C1195 H1181 0.961 1_565 S
C1195 C1194 1.502 1_465 S
C1196 H1182 0.960 1_655 S
C1196 H1183 0.961 . S
C1196 H1184 0.959 . S
C1196 C1194 1.561 . S
C1197 C1194 1.526 1_565 S
C1197 C1198 1.396 . S
C1197 C1202 1.390 . S
C1198 C1192 1.465 1_665 S
C1198 C1197 1.396 . S
C1198 C1199 1.399 . S
C1199 H1185 0.929 . S
C1199 C1198 1.399 . S
C1199 C1200 1.385 . S
C1200 H1186 0.931 . S
C1200 C1199 1.385 . S
C1200 C1201 1.389 . S
C1201 C1200 1.389 . S
C1201 C1202 1.387 . S
C1202 H1187 0.930 . S
C1202 C1197 1.390 . S
C1202 C1201 1.387 . S
H1203 C1215 0.930 . S
H1204 C1217 0.930 . S
H1205 C1218 0.930 . S
H1206 C1222 0.959 . S
H1207 C1222 0.959 1_455 S
H1208 C1222 0.961 . S
H1209 C1223 0.960 1_655 S
H1210 C1223 0.961 . S
H1211 C1223 0.959 . S
H1212 C1226 0.929 . S
H1213 C1227 0.931 . S
H1214 C1229 0.930 . S
C1215 H1203 0.930 . S
C1215 C1216 1.399 . S
C1215 C1220 1.399 . S
C1216 C1215 1.399 . S
C1216 C1217 1.376 . S
C1217 H1204 0.930 . S
C1217 C1216 1.376 . S
C1217 C1218 1.388 1_565 S
C1218 H1205 0.930 . S
C1218 C1217 1.388 1_545 S
C1218 C1219 1.390 . S
C1219 C1218 1.390 . S
C1219 C1220 1.394 1_545 S
C1219 C1225 1.465 1_655 S
C1220 C1215 1.399 . S
C1220 C1219 1.394 1_565 S
C1220 C1221 1.516 . S
C1221 C1220 1.516 . S
C1221 C1222 1.502 . S
C1221 C1223 1.561 1_665 S
C1221 C1224 1.526 1_665 S
C1222 H1206 0.959 . S
C1222 H1207 0.959 1_655 S
C1222 H1208 0.961 . S
C1222 C1221 1.502 . S
C1223 H1209 0.960 1_455 S
C1223 H1210 0.961 . S
C1223 H1211 0.959 . S
C1223 C1221 1.561 1_445 S
C1224 C1221 1.526 1_445 S
C1224 C1225 1.396 . S
C1224 C1229 1.390 . S
C1225 C1219 1.465 1_455 S
C1225 C1224 1.396 . S
C1225 C1226 1.399 . S
C1226 H1212 0.929 . S
C1226 C1225 1.399 . S
C1226 C1227 1.385 . S
C1227 H1213 0.931 . S
C1227 C1226 1.385 . S
C1227 C1228 1.389 . S
C1228 C1227 1.389 . S
C1228 C1229 1.387 . S
C1229 H1214 0.930 . S
C1229 C1224 1.390 . S
C1229 C1228 1.387 . S
H1230 C1242 0.930 . S
H1231 C1244 0.930 . S
H1232 C1245 0.930 . S
H1233 C1249 0.959 . S
H1234 C1249 0.959 . S
H1235 C1249 0.961 1_565 S
H1236 C1250 0.960 1_655 S
H1237 C1250 0.961 1_545 S
H1238 C1250 0.959 . S
H1239 C1253 0.929 . S
H1240 C1254 0.931 . S
H1241 C1256 0.930 . S
C1242 H1230 0.930 . S
C1242 C1243 1.399 . S
C1242 C1247 1.399 . S
C1243 C1242 1.399 . S
C1243 C1244 1.376 . S
C1244 H1231 0.930 . S
C1244 C1243 1.376 . S
C1244 C1245 1.388 . S
C1245 H1232 0.930 . S
C1245 C1244 1.388 . S
C1245 C1246 1.390 . S
C1246 C1245 1.390 . S
C1246 C1247 1.394 . S
C1246 C1252 1.465 1_665 S
C1247 C1242 1.399 . S
C1247 C1246 1.394 . S
C1247 C1248 1.516 1_565 S
C1248 C1247 1.516 1_545 S
C1248 C1249 1.502 . S
C1248 C1250 1.561 1_645 S
C1248 C1251 1.526 1_655 S
C1249 H1233 0.959 . S
C1249 H1234 0.959 . S
C1249 H1235 0.961 1_545 S
C1249 C1248 1.502 . S
C1250 H1236 0.960 1_455 S
C1250 H1237 0.961 1_565 S
C1250 H1238 0.959 . S
C1250 C1248 1.561 1_465 S
C1251 C1248 1.526 1_455 S
C1251 C1252 1.396 . S
C1251 C1256 1.390 . S
C1252 C1246 1.465 1_445 S
C1252 C1251 1.396 . S
C1252 C1253 1.399 . S
C1253 H1239 0.929 . S
C1253 C1252 1.399 . S
C1253 C1254 1.385 . S
C1254 H1240 0.931 . S
C1254 C1253 1.385 . S
C1254 C1255 1.389 . S
C1255 C1254 1.389 . S
C1255 C1256 1.387 . S
C1256 H1241 0.930 . S
C1256 C1251 1.390 . S
C1256 C1255 1.387 . S
H1257 C1269 0.930 . S
H1258 C1271 0.934 1_655 S
H1259 C1272 0.930 . S
H1260 C1276 0.959 . S
H1261 C1276 0.959 . S
H1262 C1276 0.961 . S
H1263 C1277 0.960 . S
H1264 C1277 0.961 1_545 S
H1265 C1277 0.959 . S
H1266 C1280 0.929 . S
H1267 C1281 0.931 . S
H1268 C1283 0.930 . S
C1269 H1257 0.930 . S
C1269 C1270 1.399 . S
C1269 C1274 1.399 . S
C1270 C1269 1.399 . S
C1270 C1271 1.382 . S
C1271 H1258 0.934 1_455 S
C1271 C1270 1.382 . S
C1271 C1272 1.379 1_455 S
C1272 H1259 0.930 . S
C1272 C1271 1.379 1_655 S
C1272 C1273 1.390 . S
C1273 C1272 1.390 . S
C1273 C1274 1.394 1_655 S
C1273 C1279 1.465 1_565 S
C1274 C1269 1.399 . S
C1274 C1273 1.394 1_455 S
C1274 C1275 1.516 1_565 S
C1275 C1274 1.516 1_545 S
C1275 C1276 1.502 . S
C1275 C1277 1.561 1_445 S
C1275 C1278 1.526 1_455 S
C1276 H1260 0.959 . S
C1276 H1261 0.959 . S
C1276 H1262 0.961 . S
C1276 C1275 1.502 . S
C1277 H1263 0.960 . S
C1277 H1264 0.961 1_565 S
C1277 H1265 0.959 . S
C1277 C1275 1.561 1_665 S
C1278 C1275 1.526 1_655 S
C1278 C1279 1.396 . S
C1278 C1283 1.390 . S
C1279 C1273 1.465 1_545 S
C1279 C1278 1.396 . S
C1279 C1280 1.399 . S
C1280 H1266 0.929 . S
C1280 C1279 1.399 . S
C1280 C1281 1.385 . S
C1281 H1267 0.931 . S
C1281 C1280 1.385 . S
C1281 C1282 1.389 . S
C1282 C1281 1.389 . S
C1282 C1283 1.387 . S
C1283 H1268 0.930 . S
C1283 C1278 1.390 . S
C1283 C1282 1.387 . S
C649 C622 1.837 . S
C661 C39 1.849 . S
C676 C92 1.848 . S
C688 C357 1.837 . S
C703 C145 1.822 . S
C715 C410 1.815 . S
C730 C198 1.854 . S
C742 C463 1.806 . S
C757 C516 1.804 . S
C769 C251 1.842 . S
C784 C304 1.820 . S
C796 C569 1.817 . S
C811 C38 1.817 . S
C823 C568 1.832 . S
C838 C91 1.839 . S
C850 C621 1.808 . S
C865 C144 1.843 . S
C877 C356 1.802 . S
C892 C197 1.831 . S
C904 C409 1.809 . S
C919 C462 1.833 . S
C931 C250 1.807 . S
C946 C515 1.802 . S
C958 C303 1.840 . S
C973 C181 1.526 . S
C985 C22 1.544 . S
C1000 C75 1.532 . S
C1012 C234 1.520 . S
C1027 C287 1.533 . S
C1039 C128 1.544 . S
C1054 C499 1.533 . S
C1066 C340 1.520 . S
C1081 C552 1.533 . S
C1093 C393 1.520 . S
C1108 C446 1.532 . S
C1120 C605 1.520 . S
C1135 C29 1.576 . S
C1147 C188 1.592 . S
C1162 C82 1.580 . S
C1174 C241 1.566 . S
C1189 C294 1.581 . S
C1201 C135 1.589 . S
C1216 C347 1.578 . S
C1228 C506 1.591 . S
C1243 C400 1.581 . S
C1255 C559 1.566 . S
C1270 C453 1.577 . S
C1282 C612 1.592 . S
