# Generated by pormake.
# Topology umm, (4)-cn, num edge types: 1
# Building blocks:
#     Node 0, Type 0, BuildingBlock: ICAMEG_clean_sbu_1, # of connection points: 4
#     Node 1, Type 0, BuildingBlock: ICAMEG_clean_sbu_1, # of connection points: 4
#     Node 2, Type 0, BuildingBlock: ICAMEG_clean_sbu_1, # of connection points: 4
#     Node 3, Type 0, BuildingBlock: ICAMEG_clean_sbu_1, # of connection points: 4
#     Node 4, Type 0, BuildingBlock: ICAMEG_clean_sbu_1, # of connection points: 4
#     Node 5, Type 0, BuildingBlock: ICAMEG_clean_sbu_1, # of connection points: 4
#     Node 6, Type 0, BuildingBlock: ICAMEG_clean_sbu_1, # of connection points: 4
#     Node 7, Type 0, BuildingBlock: ICAMEG_clean_sbu_1, # of connection points: 4
#     Node 8, Type 0, BuildingBlock: ICAMEG_clean_sbu_1, # of connection points: 4
#     Node 9, Type 0, BuildingBlock: ICAMEG_clean_sbu_1, # of connection points: 4
#     Node 10, Type 0, BuildingBlock: ICAMEG_clean_sbu_1, # of connection points: 4
#     Node 11, Type 0, BuildingBlock: ICAMEG_clean_sbu_1, # of connection points: 4
#     Edge 12, Type (0, 0), BuildingBlock: OJICUG_clean_linker_0, # of connection points: 2
#     Edge 13, Type (0, 0), BuildingBlock: OJICUG_clean_linker_0, # of connection points: 2
#     Edge 14, Type (0, 0), BuildingBlock: OJICUG_clean_linker_0, # of connection points: 2
#     Edge 15, Type (0, 0), BuildingBlock: OJICUG_clean_linker_0, # of connection points: 2
#     Edge 16, Type (0, 0), BuildingBlock: OJICUG_clean_linker_0, # of connection points: 2
#     Edge 17, Type (0, 0), BuildingBlock: OJICUG_clean_linker_0, # of connection points: 2
#     Edge 18, Type (0, 0), BuildingBlock: OJICUG_clean_linker_0, # of connection points: 2
#     Edge 19, Type (0, 0), BuildingBlock: OJICUG_clean_linker_0, # of connection points: 2
#     Edge 20, Type (0, 0), BuildingBlock: OJICUG_clean_linker_0, # of connection points: 2
#     Edge 21, Type (0, 0), BuildingBlock: OJICUG_clean_linker_0, # of connection points: 2
#     Edge 22, Type (0, 0), BuildingBlock: OJICUG_clean_linker_0, # of connection points: 2
#     Edge 23, Type (0, 0), BuildingBlock: OJICUG_clean_linker_0, # of connection points: 2
#     Edge 24, Type (0, 0), BuildingBlock: OJICUG_clean_linker_0, # of connection points: 2
#     Edge 25, Type (0, 0), BuildingBlock: OJICUG_clean_linker_0, # of connection points: 2
#     Edge 26, Type (0, 0), BuildingBlock: OJICUG_clean_linker_0, # of connection points: 2
#     Edge 27, Type (0, 0), BuildingBlock: OJICUG_clean_linker_0, # of connection points: 2
#     Edge 28, Type (0, 0), BuildingBlock: OJICUG_clean_linker_0, # of connection points: 2
#     Edge 29, Type (0, 0), BuildingBlock: OJICUG_clean_linker_0, # of connection points: 2
#     Edge 30, Type (0, 0), BuildingBlock: OJICUG_clean_linker_0, # of connection points: 2
#     Edge 31, Type (0, 0), BuildingBlock: OJICUG_clean_linker_0, # of connection points: 2
#     Edge 32, Type (0, 0), BuildingBlock: OJICUG_clean_linker_0, # of connection points: 2
#     Edge 33, Type (0, 0), BuildingBlock: OJICUG_clean_linker_0, # of connection points: 2
#     Edge 34, Type (0, 0), BuildingBlock: OJICUG_clean_linker_0, # of connection points: 2
#     Edge 35, Type (0, 0), BuildingBlock: OJICUG_clean_linker_0, # of connection points: 2
# Relax obj value: 0.059
# Max RMSD: 0.165
# Mean RMSD: 0.164
data_MOF--net-umm--node1-ICAMEG_clean_sbu_1--edge1-OJICUG_clean_linker_0
_symmetry_space_group_name_H-M    P1
_symmetry_Int_Tables_number       1
_symmetry_cell_setting            triclinic
loop_
_symmetry_equiv_pos_as_xyz
'x, y, z'
_cell_length_a     44.950475
_cell_length_b     44.97812
_cell_length_c     22.559282
_cell_angle_alpha  90.005366
_cell_angle_beta   89.998723
_cell_angle_gamma 119.98523
loop_
_atom_site_label
_atom_site_type_symbol
_atom_site_fract_x
_atom_site_fract_y
_atom_site_fract_z
_atom_type_partial_charge
Co0 Co 0.37759 0.5014 0.03856 0.0
Co1 Co 0.44054 0.58327 0.07926 0.0
O2 O 0.39478 0.54302 0.08602 0.0
C3 C 0.33198 0.52901 0.01224 0.0
O4 O 0.36053 0.55856 0.00754 0.0
C5 C 0.43435 0.55892 0.20182 0.0
O6 O 0.41957 0.52782 0.17963 0.0
O7 O 0.46248 0.55443 0.07591 0.0
O8 O 0.42174 0.50083 0.05093 0.0
H9 H 0.55885 0.65432 0.99347 0.0
H10 H 0.33544 0.50344 0.1379 0.0
O11 O 0.33339 0.50203 0.02476 0.0
H12 H 0.35796 0.40958 0.18645 0.0
H13 H 0.28657 0.38475 0.96819 0.0
H14 H 0.40724 0.47659 0.9468 0.0
H15 H 0.38009 0.4425 0.09372 0.0
H16 H 0.30964 0.43743 0.02864 0.0
O17 O 0.44492 0.58493 0.16786 0.0
H18 H 0.50088 0.60358 0.00138 0.0
H19 H 0.47777 0.64902 0.1461 0.0
H20 H 0.38533 0.42425 0.88579 0.0
H21 H 0.31257 0.47101 0.2309 0.0
H22 H 0.32458 0.37789 0.8963 0.0
H23 H 0.32392 0.42378 0.25576 0.0
O24 O 0.39665 0.52831 0.96472 0.0
H25 H 0.36018 0.62051 0.16051 0.0
H26 H 0.44661 0.64153 0.00691 0.0
H27 H 0.41859 0.67673 0.00837 0.0
H28 H 0.37506 0.66632 0.08565 0.0
H29 H 0.38864 0.58575 0.15714 0.0
H30 H 0.5356 0.70015 0.14012 0.0
H31 H 0.57653 0.70307 0.06321 0.0
O32 O 0.4371 0.58175 0.99092 0.0
C33 C 0.45279 0.52318 0.06399 0.0
C34 C 0.5412 0.65341 0.02703 0.0
C35 C 0.52817 0.67911 0.10939 0.0
N36 N 0.48588 0.62351 0.07376 0.0
C37 C 0.50831 0.62481 0.03158 0.0
C38 C 0.49549 0.65008 0.11263 0.0
C39 C 0.55112 0.68074 0.06621 0.0
C40 C 0.34015 0.48267 0.14813 0.0
N41 N 0.35891 0.47474 0.11033 0.0
C42 C 0.32727 0.4645 0.20096 0.0
C43 C 0.3337 0.43805 0.21494 0.0
C44 C 0.35282 0.43008 0.17609 0.0
C45 C 0.36534 0.44884 0.12371 0.0
C46 C 0.31311 0.40474 0.96331 0.0
C47 C 0.38085 0.45641 0.95191 0.0
C48 C 0.32629 0.43463 -0.00267 0.0
N49 N 0.35982 0.45988 0.99158 0.0
C50 C 0.36856 0.42689 0.91712 0.0
C51 C 0.33445 0.4009 0.92299 0.0
C52 C 0.41961 0.55897 0.95209 0.0
C53 C 0.3792 0.62537 0.12676 0.0
C54 C 0.42768 0.63684 0.04065 0.0
C55 C 0.41193 0.65688 0.0413 0.0
C56 C 0.38752 0.65104 0.08468 0.0
N57 N 0.41943 0.61177 0.08215 0.0
C58 C 0.39551 0.60587 0.12479 0.0
Co59 Co 0.88021 0.3744 0.37284 0.0
Co60 Co 0.86024 0.43663 0.41352 0.0
O61 O 0.85533 0.39113 0.42025 0.0
C62 C 0.80724 0.32853 0.34581 0.0
O63 O 0.80609 0.357 0.34131 0.0
C64 C 0.87869 0.4307 0.53602 0.0
O65 O 0.89528 0.4162 0.51376 0.0
O66 O 0.91105 0.45905 0.41004 0.0
O67 O 0.92465 0.41875 0.38554 0.0
H68 H 0.90615 0.5547 0.32773 0.0
H69 H 0.83602 0.33183 0.47179 0.0
O70 O 0.83565 0.33003 0.35863 0.0
H71 H 0.95272 0.35545 0.52117 0.0
H72 H 0.90717 0.2843 0.30242 0.0
H73 H 0.93486 0.4046 0.28146 0.0
H74 H 0.94182 0.37747 0.4284 0.0
H75 H 0.87701 0.30683 0.36275 0.0
O76 O 0.863 0.44103 0.50213 0.0
H77 H 0.89964 0.49704 0.33555 0.0
H78 H 0.83111 0.47328 0.48051 0.0
H79 H 0.96585 0.38323 0.22057 0.0
H80 H 0.8457 0.30906 0.56482 0.0
H81 H 0.95203 0.32266 0.23087 0.0
H82 H 0.90443 0.32096 0.5901 0.0
O83 O 0.87229 0.39343 0.29901 0.0
H84 H 0.743 0.35542 0.49503 0.0
H85 H 0.80758 0.44202 0.34131 0.0
H86 H 0.74431 0.41344 0.34295 0.0
H87 H 0.7116 0.36983 0.42028 0.0
H88 H 0.80625 0.38443 0.49148 0.0
H89 H 0.83709 0.5308 0.47461 0.0
H90 H 0.87473 0.5719 0.39762 0.0
O91 O 0.8583 0.43319 0.32516 0.0
C92 C 0.93292 0.4497 0.39836 0.0
C93 C 0.88957 0.53698 0.36132 0.0
C94 C 0.85085 0.52358 0.44381 0.0
N95 N 0.86477 0.48173 0.40806 0.0
C96 C 0.88569 0.50425 0.36583 0.0
C97 C 0.84761 0.49108 0.44701 0.0
C98 C 0.87196 0.54662 0.40059 0.0
C99 C 0.86156 0.33678 0.4822 0.0
N100 N 0.88829 0.35579 0.44461 0.0
C101 C 0.86692 0.32396 0.53505 0.0
C102 C 0.8999 0.33069 0.54925 0.0
C103 C 0.92701 0.35006 0.51062 0.0
C104 C 0.9207 0.36252 0.45822 0.0
C105 C 0.91347 0.31076 0.29763 0.0
C106 C 0.9289 0.37829 0.28648 0.0
C107 C 0.89644 0.32363 0.33159 0.0
N108 N 0.90441 0.35706 0.32596 0.0
C109 C 0.94644 0.3663 0.25176 0.0
C110 C 0.93865 0.3323 0.25751 0.0
C111 C 0.8641 0.41603 0.28635 0.0
C112 C 0.75697 0.37447 0.46125 0.0
C113 C 0.79351 0.42305 0.37508 0.0
C114 C 0.7577 0.40699 0.37583 0.0
C115 C 0.73936 0.38253 0.41924 0.0
N116 N 0.81059 0.41506 0.41652 0.0
C117 C 0.79279 0.39109 0.45918 0.0
Co118 Co 0.50907 0.87909 0.70324 0.0
Co119 Co 0.42721 0.8586 0.74671 0.0
O120 O 0.46845 0.85492 0.75299 0.0
C121 C 0.48231 0.80587 0.68022 0.0
O122 O 0.4526 0.80458 0.67613 0.0
C123 C 0.45164 0.88181 0.86838 0.0
O124 O 0.48146 0.90342 0.84492 0.0
O125 O 0.45484 0.90954 0.74108 0.0
O126 O 0.50847 0.92327 0.71365 0.0
H127 H 0.35204 0.90147 0.66254 0.0
H128 H 0.5095 0.83746 0.80481 0.0
O129 O 0.50931 0.83454 0.69133 0.0
H130 H 0.60254 0.9555 0.84543 0.0
H131 H 0.62549 0.90602 0.62901 0.0
H132 H 0.53148 0.93184 0.60878 0.0
H133 H 0.56798 0.94218 0.75409 0.0
H134 H 0.57377 0.87656 0.69186 0.0
O135 O 0.42647 0.86156 0.8356 0.0
H136 H 0.4041 0.8964 0.66903 0.0
H137 H 0.36209 0.82877 0.81577 0.0
H138 H 0.58283 0.9621 0.54535 0.0
H139 H 0.54358 0.84955 0.89652 0.0
H140 H 0.63029 0.94922 0.55527 0.0
H141 H 0.59043 0.90896 0.91733 0.0
O142 O 0.481 0.86937 0.63027 0.0
H143 H 0.39451 0.74267 0.83059 0.0
H144 H 0.36894 0.8046 0.67678 0.0
H145 H 0.33539 0.74134 0.68011 0.0
H146 H 0.34809 0.70996 0.7575 0.0
H147 H 0.42761 0.80588 0.82535 0.0
H148 H 0.30965 0.83331 0.81119 0.0
H149 H 0.30435 0.86977 0.73398 0.0
O150 O 0.42769 0.85596 0.65818 0.0
C151 C 0.48574 0.93142 0.72702 0.0
C152 C 0.35399 0.8854 0.69624 0.0
C153 C 0.33022 0.84719 0.77973 0.0
N154 N 0.38597 0.86205 0.74236 0.0
C155 C 0.38335 0.88234 0.70001 0.0
C156 C 0.35999 0.84476 0.78217 0.0
C157 C 0.32726 0.86764 0.73638 0.0
C158 C 0.53004 0.8633 0.81337 0.0
N159 N 0.53689 0.88905 0.77405 0.0
C160 C 0.54916 0.87003 0.86545 0.0
C161 C 0.57542 0.90338 0.87714 0.0
C162 C 0.58222 0.9295 0.83682 0.0
C163 C 0.56253 0.92183 0.78525 0.0
C164 C 0.60502 0.9119 0.62436 0.0
C165 C 0.55214 0.92629 0.61362 0.0
C166 C 0.57566 0.89526 0.65973 0.0
N167 N 0.54981 0.90271 0.65428 0.0
C168 C 0.5811 0.94342 0.57746 0.0
C169 C 0.6077 0.93615 0.583 0.0
C170 C 0.45007 0.86112 0.61856 0.0
C171 C 0.38865 0.75605 0.7968 0.0
C172 C 0.37462 0.79112 0.71056 0.0
C173 C 0.35551 0.7553 0.71227 0.0
C174 C 0.36264 0.73772 0.75572 0.0
N175 N 0.40005 0.80893 0.75109 0.0
C176 C 0.4072 0.79186 0.79379 0.0
Co177 Co 0.6327 0.50494 0.03992 0.0
Co178 Co 0.56956 0.42315 0.08053 0.0
O179 O 0.61536 0.46331 0.08738 0.0
C180 C 0.67813 0.4771 0.01374 0.0
O181 O 0.64953 0.44759 0.00911 0.0
C182 C 0.57571 0.44762 0.203 0.0
O183 O 0.59054 0.4787 0.18071 0.0
O184 O 0.54774 0.4521 0.07691 0.0
O185 O 0.58861 0.50568 0.05213 0.0
H186 H 0.45129 0.35229 0.99444 0.0
H187 H 0.67471 0.50275 0.13936 0.0
O188 O 0.67682 0.50414 0.02621 0.0
H189 H 0.65249 0.59682 0.18783 0.0
H190 H 0.72404 0.62146 0.96971 0.0
H191 H 0.60327 0.52991 0.94803 0.0
H192 H 0.63035 0.56394 0.09505 0.0
H193 H 0.70076 0.56877 0.03016 0.0
O194 O 0.56509 0.42157 0.16913 0.0
H195 H 0.50932 0.40292 0.0024 0.0
H196 H 0.5321 0.35747 0.1475 0.0
H197 H 0.62539 0.58226 0.88701 0.0
H198 H 0.69758 0.53515 0.2324 0.0
H199 H 0.6862 0.62848 0.89767 0.0
H200 H 0.68638 0.58247 0.25723 0.0
O201 O 0.61361 0.47805 0.96609 0.0
H202 H 0.64947 0.38555 0.16253 0.0
H203 H 0.56339 0.36477 0.0084 0.0
H204 H 0.59117 0.32936 0.01028 0.0
H205 H 0.63452 0.33963 0.08783 0.0
H206 H 0.62126 0.42053 0.15874 0.0
H207 H 0.4742 0.30644 0.14147 0.0
H208 H 0.43341 0.30359 0.06434 0.0
O209 O 0.57308 0.42461 0.99218 0.0
C210 C 0.55752 0.48336 0.06498 0.0
C211 C 0.46888 0.35317 0.02809 0.0
C212 C 0.48172 0.32746 0.11067 0.0
N213 N 0.52416 0.38298 0.07498 0.0
C214 C 0.50181 0.38172 0.03267 0.0
C215 C 0.51444 0.35643 0.11393 0.0
C216 C 0.45885 0.32587 0.06737 0.0
C217 C 0.67007 0.52357 0.14957 0.0
N218 N 0.65139 0.53158 0.11172 0.0
C219 C 0.68294 0.54171 0.20243 0.0
C220 C 0.6766 0.56823 0.21638 0.0
C221 C 0.65757 0.57628 0.17748 0.0
C222 C 0.64505 0.55753 0.12508 0.0
C223 C 0.69748 0.60153 0.96476 0.0
C224 C 0.62969 0.55003 0.95321 0.0
C225 C 0.68418 0.57164 -0.00121 0.0
N226 N 0.65063 0.54647 0.99296 0.0
C227 C 0.6421 0.57956 0.91841 0.0
C228 C 0.67623 0.60546 0.92436 0.0
C229 C 0.59062 0.44742 0.9534 0.0
C230 C 0.63054 0.38074 0.12866 0.0
C231 C 0.58225 0.36941 0.04225 0.0
C232 C 0.59786 0.34925 0.04314 0.0
C233 C 0.62217 0.35502 0.08667 0.0
N234 N 0.59053 0.39453 0.08367 0.0
C235 C 0.61436 0.40037 0.12645 0.0
Co236 Co 0.12931 0.63123 0.37238 0.0
Co237 Co 0.14959 0.56924 0.41328 0.0
O238 O 0.15433 0.61469 0.41988 0.0
C239 C 0.20223 0.6774 0.34535 0.0
O240 O 0.20358 0.64903 0.34093 0.0
C241 C 0.13112 0.57518 0.53579 0.0
O242 O 0.11446 0.5896 0.51353 0.0
O243 O 0.09875 0.54664 0.40986 0.0
O244 O 0.085 0.58679 0.38511 0.0
H245 H 0.10406 0.45114 0.32786 0.0
H246 H 0.17336 0.67397 0.47133 0.0
O247 O 0.17374 0.67572 0.35816 0.0
H248 H 0.05646 0.64987 0.52045 0.0
H249 H 0.10179 0.72088 0.30159 0.0
H250 H 0.07472 0.60075 0.28095 0.0
H251 H 0.06754 0.62789 0.42777 0.0
H252 H 0.13214 0.69862 0.36209 0.0
O253 O 0.14687 0.56492 0.5019 0.0
H254 H 0.11032 0.5087 0.33552 0.0
H255 H 0.179 0.53289 0.48038 0.0
H256 H 0.04355 0.62184 0.21989 0.0
H257 H 0.1635 0.69668 0.56427 0.0
H258 H 0.05706 0.68232 0.23002 0.0
H259 H 0.10467 0.68454 0.58942 0.0
O260 O 0.13738 0.61225 0.29862 0.0
H261 H 0.26676 0.65087 0.49465 0.0
H262 H 0.20237 0.56404 0.34112 0.0
H263 H 0.26566 0.59284 0.34272 0.0
H264 H 0.29826 0.63657 0.41997 0.0
H265 H 0.20348 0.62164 0.49113 0.0
H266 H 0.17327 0.47547 0.47464 0.0
H267 H 0.13568 0.4342 0.39778 0.0
O268 O 0.15149 0.5726 0.32492 0.0
C269 C 0.07682 0.55588 0.39809 0.0
C270 C 0.12062 0.46893 0.36139 0.0
C271 C 0.15943 0.48258 0.44383 0.0
N272 N 0.14526 0.52422 0.40796 0.0
C273 C 0.12436 0.5016 0.3658 0.0
C274 C 0.16253 0.51502 0.44693 0.0
C275 C 0.13834 0.45944 0.40068 0.0
C276 C 0.14777 0.66891 0.48169 0.0
N277 N 0.12109 0.6498 0.44408 0.0
C278 C 0.14231 0.68171 0.53448 0.0
C279 C 0.10928 0.67483 0.54861 0.0
C280 C 0.08221 0.65536 0.50996 0.0
C281 C 0.08862 0.64293 0.45761 0.0
C282 C 0.09563 0.69446 0.29687 0.0
C283 C 0.08054 0.62702 0.2859 0.0
C284 C 0.11276 0.68174 0.33093 0.0
N285 N 0.10497 0.64835 0.32539 0.0
C286 C 0.0629 0.63885 0.25107 0.0
C287 C 0.07052 0.6728 0.25674 0.0
C288 C 0.14566 0.5897 0.28605 0.0
C289 C 0.25283 0.63177 0.46091 0.0
C290 C 0.21639 0.58306 0.37484 0.0
C291 C 0.25222 0.59925 0.37557 0.0
C292 C 0.2705 0.62377 0.41893 0.0
N293 N 0.19926 0.591 0.41624 0.0
C294 C 0.217 0.61503 0.45886 0.0
Co295 Co 0.50023 0.12768 0.7043 0.0
Co296 Co 0.58201 0.14798 0.74795 0.0
O297 O 0.54081 0.15173 0.75416 0.0
C298 C 0.52715 0.20093 0.68161 0.0
O299 O 0.55683 0.20215 0.67755 0.0
C300 C 0.55737 0.12473 0.86949 0.0
O301 O 0.52757 0.10317 0.84587 0.0
O302 O 0.55432 0.09705 0.74212 0.0
O303 O 0.50076 0.08344 0.7145 0.0
H304 H 0.65714 0.10501 0.66396 0.0
H305 H 0.49977 0.16919 0.80604 0.0
O306 O 0.5001 0.17229 0.69258 0.0
H307 H 0.40659 0.05115 0.84608 0.0
H308 H 0.38396 0.10106 0.62981 0.0
H309 H 0.47785 0.07507 0.60957 0.0
H310 H 0.44123 0.06455 0.75483 0.0
H311 H 0.43562 0.13034 0.69288 0.0
O312 O 0.58262 0.14494 0.83684 0.0
H313 H 0.60515 0.11021 0.67024 0.0
H314 H 0.64702 0.17762 0.8173 0.0
H315 H 0.42657 0.04499 0.54593 0.0
H316 H 0.46562 0.157 0.89768 0.0
H317 H 0.37918 0.05796 0.55585 0.0
H318 H 0.41869 0.09759 0.9182 0.0
O319 O 0.52838 0.13745 0.63143 0.0
H320 H 0.61485 0.26388 0.83222 0.0
H321 H 0.64043 0.20199 0.67831 0.0
H322 H 0.67411 0.26525 0.68194 0.0
H323 H 0.66141 0.29659 0.75938 0.0
H324 H 0.58161 0.20068 0.82669 0.0
H325 H 0.69939 0.17296 0.81292 0.0
H326 H 0.70473 0.13654 0.73567 0.0
O327 O 0.58164 0.15071 0.65939 0.0
C328 C 0.52344 0.07522 0.72787 0.0
C329 C 0.65518 0.12106 0.69768 0.0
C330 C 0.67887 0.15916 0.78134 0.0
N331 N 0.62321 0.14445 0.74372 0.0
C332 C 0.62585 0.12419 0.70133 0.0
C333 C 0.64914 0.16165 0.78367 0.0
C334 C 0.68185 0.13873 0.73797 0.0
C335 C 0.4792 0.14335 0.81447 0.0
N336 N 0.47235 0.11765 0.77504 0.0
C337 C 0.46004 0.13657 0.86651 0.0
C338 C 0.43374 0.10322 0.87804 0.0
C339 C 0.42695 0.07714 0.83761 0.0
C340 C 0.44668 0.08486 0.78608 0.0
C341 C 0.40441 0.09514 0.62516 0.0
C342 C 0.45722 0.08065 0.61442 0.0
C343 C 0.43372 0.11167 0.66066 0.0
N344 N 0.45955 0.10418 0.6552 0.0
C345 C 0.4283 0.06363 0.57814 0.0
C346 C 0.40174 0.07095 0.58369 0.0
C347 C 0.55929 0.14565 0.61976 0.0
C348 C 0.62071 0.2505 0.79841 0.0
C349 C 0.63474 0.21546 0.7121 0.0
C350 C 0.65392 0.25127 0.71399 0.0
C351 C 0.6468 0.26885 0.75747 0.0
N352 N 0.60924 0.19765 0.7525 0.0
C353 C 0.60208 0.21471 0.79523 0.0
Co354 Co 0.50892 0.63198 0.61779 0.0
Co355 Co 0.4267 0.56979 0.57706 0.0
O356 O 0.46731 0.61528 0.57036 0.0
C357 C 0.48195 0.67796 0.64476 0.0
O358 O 0.45229 0.64952 0.6493 0.0
C359 C 0.45105 0.5757 0.45453 0.0
O360 O 0.48215 0.59019 0.47677 0.0
O361 O 0.45505 0.54733 0.58049 0.0
O362 O 0.50893 0.58759 0.60516 0.0
H363 H 0.35444 0.45169 0.66269 0.0
H364 H 0.5074 0.67456 0.51879 0.0
O365 O 0.50882 0.67639 0.63194 0.0
H366 H 0.60037 0.65074 0.46953 0.0
H367 H 0.62605 0.72197 0.68819 0.0
H368 H 0.53327 0.60173 0.70925 0.0
H369 H 0.56741 0.62878 0.5623 0.0
H370 H 0.57336 0.69949 0.62785 0.0
O371 O 0.42504 0.56541 0.48845 0.0
H372 H 0.40564 0.50933 0.65492 0.0
H373 H 0.3609 0.53323 0.51009 0.0
H374 H 0.58562 0.62304 0.77014 0.0
H375 H 0.53987 0.69726 0.42575 0.0
H376 H 0.63246 0.68357 0.7598 0.0
H377 H 0.58664 0.68526 0.40054 0.0
O378 O 0.48195 0.61298 0.69161 0.0
H379 H 0.39078 0.65111 0.49567 0.0
H380 H 0.36868 0.56445 0.64931 0.0
H381 H 0.33405 0.59309 0.64774 0.0
H382 H 0.345 0.63673 0.57045 0.0
H383 H 0.42497 0.62204 0.49916 0.0
H384 H 0.30931 0.47573 0.51595 0.0
H385 H 0.30581 0.43457 0.59285 0.0
O386 O 0.42821 0.5732 0.66541 0.0
C387 C 0.48625 0.55665 0.59227 0.0
C388 C 0.3556 0.46944 0.62914 0.0
C389 C 0.33029 0.48292 0.54673 0.0
N390 N 0.38609 0.52471 0.58248 0.0
C391 C 0.38447 0.50215 0.62467 0.0
C392 C 0.35958 0.51541 0.54356 0.0
C393 C 0.32834 0.45984 0.5899 0.0
C394 C 0.52797 0.66957 0.5084 0.0
N395 N 0.53564 0.65054 0.54602 0.0
C396 C 0.54616 0.68235 0.45555 0.0
C397 C 0.57237 0.67556 0.44139 0.0
C398 C 0.58006 0.65617 0.48005 0.0
C399 C 0.56129 0.64375 0.53246 0.0
C400 C 0.60586 0.69552 0.693 0.0
C401 C 0.55366 0.62803 0.70421 0.0
C402 C 0.57596 0.68268 0.65904 0.0
N403 N 0.55044 0.64927 0.66469 0.0
C404 C 0.58319 0.63998 0.73894 0.0
C405 C 0.60944 0.67396 0.73316 0.0
C406 C 0.45115 0.59035 0.70424 0.0
C407 C 0.38569 0.63205 0.52944 0.0
C408 C 0.3736 0.58343 0.61557 0.0
C409 C 0.35389 0.59953 0.61486 0.0
C410 C 0.36004 0.62401 0.57147 0.0
N411 N 0.39866 0.59141 0.57411 0.0
C412 C 0.40486 0.61539 0.53146 0.0
Co413 Co 0.87911 0.5046 0.95191 0.0
Co414 Co 0.8603 0.42276 0.91128 0.0
O415 O 0.85473 0.46297 0.90445 0.0
C416 C 0.80586 0.4769 0.97815 0.0
O417 O 0.80487 0.44736 0.98276 0.0
C418 C 0.87861 0.44719 0.7888 0.0
O419 O 0.8949 0.47827 0.81107 0.0
O420 O 0.91108 0.45164 0.91484 0.0
O421 O 0.92388 0.50524 0.93964 0.0
H422 H 0.90754 0.35177 -0.00266 0.0
H423 H 0.83493 0.50248 0.85251 0.0
O424 O 0.83424 0.5039 0.96566 0.0
H425 H 0.95129 0.59642 0.80399 0.0
H426 H 0.90456 0.6212 0.02218 0.0
H427 H 0.93353 0.52948 0.04376 0.0
H428 H 0.9405 0.56353 0.89677 0.0
H429 H 0.87505 0.56852 0.96172 0.0
O430 O 0.86314 0.42115 0.82268 0.0
H431 H 0.90026 0.40246 0.98938 0.0
H432 H 0.83194 0.35705 0.84434 0.0
H433 H 0.96387 0.58182 0.10479 0.0
H434 H 0.84449 0.53488 0.75947 0.0
H435 H 0.94941 0.62813 0.09418 0.0
H436 H 0.90306 0.58214 0.73462 0.0
O437 O 0.87127 0.4777 0.02575 0.0
H438 H 0.74278 0.38533 0.82942 0.0
H439 H 0.80805 0.36444 0.98346 0.0
H440 H 0.74483 0.32912 0.98165 0.0
H441 H 0.71178 0.33946 0.90415 0.0
H442 H 0.80599 0.42022 0.83314 0.0
H443 H 0.8387 0.30596 0.85038 0.0
H444 H 0.87663 0.30306 0.92748 0.0
O445 O 0.85826 0.42424 -0.00037 0.0
C446 C 0.93261 0.4829 0.92674 0.0
C447 C 0.89084 0.35267 0.9637 0.0
C448 C 0.85224 0.32699 0.88116 0.0
N449 N 0.86544 0.38255 0.91683 0.0
C450 C 0.88652 0.38125 0.95912 0.0
C451 C 0.84856 0.35599 0.87789 0.0
C452 C 0.87352 0.32537 0.92445 0.0
C453 C 0.8604 0.52327 0.84229 0.0
N454 N 0.88709 0.53124 0.88012 0.0
C455 C 0.86569 0.54142 0.78943 0.0
C456 C 0.89857 0.56789 0.77547 0.0
C457 C 0.92565 0.5759 0.81435 0.0
C458 C 0.91941 0.55716 0.86675 0.0
C459 C 0.91114 0.60124 0.02711 0.0
C460 C 0.92729 0.54964 0.0386 0.0
C461 C 0.89448 0.57134 0.99308 0.0
N462 N 0.9028 0.54613 -0.00112 0.0
C463 C 0.94447 0.57916 0.07341 0.0
C464 C 0.93632 0.60511 0.06748 0.0
C465 C 0.86356 0.44705 0.03842 0.0
C466 C 0.7569 0.3805 0.86328 0.0
C467 C 0.79384 0.3691 0.94963 0.0
C468 C 0.75805 0.34899 0.94879 0.0
C469 C 0.73952 0.3548 0.90528 0.0
N470 N 0.81069 0.39421 0.90819 0.0
C471 C 0.7927 0.40007 0.86544 0.0
Co472 Co 0.37566 0.87888 0.28684 0.0
Co473 Co 0.43721 0.8587 0.24306 0.0
O474 O 0.39223 0.85488 0.23692 0.0
C475 C 0.32944 0.80561 0.30965 0.0
O476 O 0.35793 0.80446 0.31365 0.0
C477 C 0.43583 0.8819 0.12145 0.0
O478 O 0.42759 0.90348 0.14497 0.0
O479 O 0.46037 0.90963 0.24881 0.0
O480 O 0.42038 0.92316 0.27654 0.0
H481 H 0.55541 0.90197 0.32684 0.0
H482 H 0.33364 0.83728 0.18519 0.0
O483 O 0.33097 0.83422 0.29865 0.0
H484 H 0.35826 0.95524 0.14513 0.0
H485 H 0.2859 0.90529 0.36151 0.0
H486 H 0.40589 0.93154 0.38148 0.0
H487 H 0.37963 0.94193 0.2363 0.0
H488 H 0.30832 0.87607 0.29841 0.0
O489 O 0.44083 0.8617 0.15417 0.0
H490 H 0.49816 0.89663 0.32064 0.0
H491 H 0.47263 0.82911 0.17374 0.0
H492 H 0.38464 0.96156 0.44516 0.0
H493 H 0.31152 0.84937 0.09364 0.0
H494 H 0.32423 0.94847 0.43537 0.0
H495 H 0.32388 0.90874 0.07311 0.0
O496 O 0.39412 0.86918 0.35968 0.0
H497 H 0.35419 0.74271 0.15908 0.0
H498 H 0.44176 0.8048 0.31276 0.0
H499 H 0.41223 0.74154 0.30929 0.0
H500 H 0.36813 0.71009 0.23197 0.0
H501 H 0.38412 0.80592 0.16445 0.0
H502 H 0.52973 0.83391 0.17804 0.0
H503 H 0.57151 0.87045 0.25518 0.0
O504 O 0.43417 0.85602 0.33161 0.0
C505 C 0.45128 0.93142 0.26308 0.0
C506 C 0.53739 0.88586 0.29317 0.0
C507 C 0.52299 0.8477 0.2096 0.0
N508 N 0.48198 0.86232 0.24725 0.0
C509 C 0.50489 0.88265 0.28957 0.0
C510 C 0.49073 0.84513 0.20732 0.0
C511 C 0.54641 0.8682 0.25291 0.0
C512 C 0.33886 0.86311 0.17675 0.0
N513 N 0.35772 0.88883 0.21613 0.0
C514 C 0.32639 0.86983 0.12476 0.0
C515 C 0.33337 0.90316 0.11323 0.0
C516 C 0.35267 0.92926 0.15361 0.0
C517 C 0.36476 0.9216 0.20509 0.0
C518 C 0.31229 0.91127 0.3661 0.0
C519 C 0.37965 0.9259 0.37669 0.0
C520 C 0.3251 0.89477 0.33059 0.0
N521 N 0.35844 0.90233 0.33597 0.0
C522 C 0.36773 0.94289 0.413 0.0
C523 C 0.33382 0.9355 0.40753 0.0
C524 C 0.41689 0.86106 0.37129 0.0
C525 C 0.37345 0.75613 0.19284 0.0
C526 C 0.42258 0.79128 0.27901 0.0
C527 C 0.40598 0.75547 0.27722 0.0
C528 C 0.38125 0.73784 0.23381 0.0
N529 N 0.41484 0.80904 0.23859 0.0
C530 C 0.3906 0.79193 0.19592 0.0
Co531 Co 0.50109 0.37511 0.61891 0.0
Co532 Co 0.5834 0.43715 0.57831 0.0
O533 O 0.54273 0.3917 0.57159 0.0
C534 C 0.5279 0.32902 0.64613 0.0
O535 O 0.55759 0.35742 0.65065 0.0
C536 C 0.55909 0.43123 0.45577 0.0
O537 O 0.528 0.41682 0.478 0.0
O538 O 0.55513 0.45971 0.58163 0.0
O539 O 0.50119 0.41953 0.60609 0.0
H540 H 0.65582 0.5552 0.66407 0.0
H541 H 0.5026 0.33243 0.52005 0.0
O542 O 0.50108 0.33065 0.63321 0.0
H543 H 0.40981 0.35642 0.47034 0.0
H544 H 0.38384 0.28534 0.68919 0.0
H545 H 0.47678 0.40551 0.71015 0.0
H546 H 0.4427 0.37838 0.56318 0.0
H547 H 0.43656 0.30767 0.62897 0.0
O548 O 0.5851 0.44151 0.48969 0.0
H549 H 0.60454 0.49762 0.65619 0.0
H550 H 0.64924 0.47361 0.51143 0.0
H551 H 0.42441 0.38434 0.77093 0.0
H552 H 0.4702 0.30972 0.42696 0.0
H553 H 0.37749 0.32384 0.76063 0.0
H554 H 0.42351 0.32181 0.40152 0.0
O555 O 0.52803 0.39409 0.69278 0.0
H556 H 0.61913 0.35565 0.49713 0.0
H557 H 0.64133 0.44238 0.65069 0.0
H558 H 0.67586 0.41364 0.64924 0.0
H559 H 0.66486 0.36995 0.57199 0.0
H560 H 0.58504 0.38482 0.50049 0.0
H561 H 0.70091 0.53105 0.51739 0.0
H562 H 0.70447 0.57223 0.59431 0.0
O563 O 0.58184 0.43374 0.66666 0.0
C564 C 0.52393 0.45045 0.59321 0.0
C565 C 0.65463 0.53744 0.63051 0.0
C566 C 0.67992 0.5239 0.54813 0.0
N567 N 0.62406 0.48219 0.58379 0.0
C568 C 0.62572 0.50476 0.62597 0.0
C569 C 0.65058 0.49144 0.5449 0.0
C570 C 0.6819 0.54699 0.59131 0.0
C571 C 0.48207 0.33746 0.50957 0.0
N572 N 0.47441 0.35654 0.5471 0.0
C573 C 0.46391 0.32467 0.45669 0.0
C574 C 0.43776 0.33151 0.44239 0.0
C575 C 0.43007 0.35095 0.48097 0.0
C576 C 0.44881 0.36337 0.53341 0.0
C577 C 0.40407 0.31177 0.69398 0.0
C578 C 0.45636 0.37923 0.70513 0.0
C579 C 0.43399 0.32453 0.66008 0.0
N580 N 0.45955 0.35793 0.66571 0.0
C581 C 0.42682 0.36735 0.7398 0.0
C582 C 0.40052 0.33339 0.73404 0.0
C583 C 0.55886 0.41663 0.70546 0.0
C584 C 0.62425 0.37472 0.53088 0.0
C585 C 0.63639 0.42339 0.61696 0.0
C586 C 0.65604 0.40723 0.61632 0.0
C587 C 0.64987 0.38273 0.57295 0.0
N588 N 0.61135 0.41544 0.57546 0.0
C589 C 0.60513 0.39144 0.53284 0.0
Co590 Co 0.13072 0.50107 0.95158 0.0
Co591 Co 0.14945 0.58289 0.91105 0.0
O592 O 0.15503 0.5427 0.90412 0.0
C593 C 0.204 0.52883 0.97756 0.0
O594 O 0.20493 0.55835 0.98233 0.0
C595 C 0.13112 0.55852 0.78853 0.0
O596 O 0.11485 0.52743 0.81074 0.0
O597 O 0.09868 0.55399 0.91462 0.0
O598 O 0.08592 0.5004 0.93948 0.0
H599 H 0.10216 0.65379 -0.00263 0.0
H600 H 0.17482 0.50321 0.852 0.0
O601 O 0.17562 0.50181 0.96514 0.0
H602 H 0.05842 0.40924 0.80373 0.0
H603 H 0.10541 0.38449 0.02163 0.0
H604 H 0.07637 0.47614 0.04357 0.0
H605 H 0.06929 0.44212 0.89654 0.0
H606 H 0.13485 0.43719 0.96122 0.0
O607 O 0.14659 0.58454 0.82246 0.0
H608 H 0.10947 0.60312 0.98924 0.0
H609 H 0.17777 0.64863 0.84424 0.0
H610 H 0.04611 0.42378 0.10456 0.0
H611 H 0.16517 0.47082 0.75892 0.0
H612 H 0.0606 0.37751 0.09377 0.0
H613 H 0.10659 0.42355 0.7342 0.0
O614 O 0.1386 0.52796 0.02547 0.0
H615 H 0.26697 0.62036 0.82916 0.0
H616 H 0.20169 0.6412 0.98328 0.0
H617 H 0.26491 0.67651 0.98152 0.0
H618 H 0.29796 0.66619 0.90398 0.0
H619 H 0.20376 0.58548 0.83284 0.0
H620 H 0.17099 0.69971 0.85044 0.0
H621 H 0.13306 0.70255 0.9276 0.0
O622 O 0.1515 0.58138 -0.00062 0.0
C623 C 0.07717 0.52273 0.92658 0.0
C624 C 0.11886 0.65292 0.9637 0.0
C625 C 0.15746 0.67867 0.88118 0.0
N626 N 0.14428 0.62309 0.9167 0.0
C627 C 0.1232 0.62435 0.95903 0.0
C628 C 0.16115 0.64967 0.87782 0.0
C629 C 0.13618 0.68025 0.9245 0.0
C630 C 0.14934 0.48242 0.84183 0.0
N631 N 0.12268 0.47444 0.87975 0.0
C632 C 0.144 0.46428 0.78895 0.0
C633 C 0.11111 0.43779 0.77506 0.0
C634 C 0.08407 0.42977 0.81403 0.0
C635 C 0.09036 0.44851 0.86646 0.0
C636 C 0.09882 0.40444 0.02664 0.0
C637 C 0.08263 0.456 0.03834 0.0
C638 C 0.11543 0.43434 0.99264 0.0
N639 N 0.1071 0.45954 -0.00146 0.0
C640 C 0.06549 0.42647 0.07312 0.0
C641 C 0.07367 0.40053 0.06709 0.0
C642 C 0.14626 0.55859 0.03816 0.0
C643 C 0.25284 0.62518 0.86303 0.0
C644 C 0.21591 0.63655 0.94943 0.0
C645 C 0.25169 0.65665 0.94861 0.0
C646 C 0.27022 0.65086 0.90508 0.0
N647 N 0.19905 0.61146 0.90795 0.0
C648 C 0.21704 0.60562 0.86517 0.0
Co649 Co 0.63301 0.12758 0.28742 0.0
Co650 Co 0.57161 0.14808 0.24429 0.0
O651 O 0.61651 0.15176 0.23783 0.0
C652 C 0.67954 0.20078 0.31037 0.0
O653 O 0.65114 0.20211 0.31455 0.0
C654 C 0.57276 0.12484 0.12266 0.0
O655 O 0.58105 0.10329 0.14615 0.0
O656 O 0.54827 0.09714 0.24998 0.0
O657 O 0.5882 0.08341 0.27713 0.0
H658 H 0.45369 0.10532 0.32901 0.0
H659 H 0.67493 0.1692 0.18573 0.0
O660 O 0.67782 0.1721 0.29921 0.0
H661 H 0.64977 0.05114 0.14486 0.0
H662 H 0.72255 0.10057 0.36105 0.0
H663 H 0.60277 0.07484 0.38193 0.0
H664 H 0.62873 0.06448 0.23641 0.0
H665 H 0.70022 0.13005 0.29841 0.0
O666 O 0.56781 0.14508 0.15541 0.0
H667 H 0.5108 0.11036 0.32224 0.0
H668 H 0.53622 0.17786 0.17537 0.0
H669 H 0.62392 0.04456 0.44515 0.0
H670 H 0.69672 0.15709 0.0938 0.0
H671 H 0.68422 0.05739 0.4349 0.0
H672 H 0.68408 0.09767 0.07285 0.0
O673 O 0.61475 0.13731 0.3605 0.0
H674 H 0.6547 0.26398 0.16006 0.0
H675 H 0.56743 0.20211 0.31428 0.0
H676 H 0.59711 0.26538 0.31081 0.0
H677 H 0.64106 0.29671 0.23321 0.0
H678 H 0.62462 0.20076 0.16545 0.0
H679 H 0.47927 0.17336 0.18023 0.0
H680 H 0.43761 0.13699 0.25765 0.0
O681 O 0.57485 0.15076 0.33282 0.0
C682 C 0.5573 0.07525 0.26393 0.0
C683 C 0.47166 0.12136 0.29522 0.0
C684 C 0.486 0.1595 0.21166 0.0
N685 N 0.52692 0.14464 0.24883 0.0
C686 C 0.50408 0.1244 0.2913 0.0
C687 C 0.51818 0.16191 0.20905 0.0
C688 C 0.46265 0.1391 0.25512 0.0
C689 C 0.66959 0.14335 0.17712 0.0
N690 N 0.65076 0.11761 0.21648 0.0
C691 C 0.68188 0.13662 0.12491 0.0
C692 C 0.67474 0.10326 0.11315 0.0
C693 C 0.65548 0.07714 0.15352 0.0
C694 C 0.64358 0.08482 0.20521 0.0
C695 C 0.6962 0.09471 0.36584 0.0
C696 C 0.62896 0.08037 0.37694 0.0
C697 C 0.68345 0.11136 0.33059 0.0
N698 N 0.65016 0.10394 0.33622 0.0
C699 C 0.64083 0.06323 0.41299 0.0
C700 C 0.67468 0.07047 0.40726 0.0
C701 C 0.59212 0.1456 0.37234 0.0
C702 C 0.63551 0.25061 0.19394 0.0
C703 C 0.58655 0.21558 0.28042 0.0
C704 C 0.60323 0.25139 0.27862 0.0
C705 C 0.62788 0.26896 0.23506 0.0
N706 N 0.59412 0.19776 0.23985 0.0
C707 C 0.61827 0.2148 0.19704 0.0
C708 C 0.41358 0.53897 0.30448 0.0
C709 C 0.43831 0.56362 0.26638 0.0
H710 H 0.39787 0.52401 0.39448 0.0
C711 C 0.46694 0.59252 0.29048 0.0
H712 H 0.39119 0.51655 0.28679 0.0
C713 C 0.47122 0.59627 0.35187 0.0
C714 C 0.44637 0.57173 0.38997 0.0
H715 H 0.48636 0.61181 0.26187 0.0
H716 H 0.49376 0.61853 0.36956 0.0
C717 C 0.41731 0.54328 0.36587 0.0
C718 C 0.87822 0.41001 0.63862 0.0
C719 C 0.87794 0.4346 0.6006 0.0
H720 H 0.87774 0.39436 0.72857 0.0
C721 C 0.87733 0.46303 0.62479 0.0
H722 H 0.8785 0.38777 0.62086 0.0
C723 C 0.87787 0.46727 0.6862 0.0
C724 C 0.87791 0.44256 0.72422 0.0
H725 H 0.87719 0.48233 0.59625 0.0
H726 H 0.87789 0.48966 0.70396 0.0
C727 C 0.87764 0.41369 0.70003 0.0
C728 C 0.46114 0.91264 0.96419 0.0
C729 C 0.44723 0.88154 0.93299 0.0
H730 H 0.46748 0.93697 0.04866 0.0
C731 C 0.42958 0.85041 0.96407 0.0
H732 H 0.47478 0.93693 0.94098 0.0
C733 C 0.42649 0.85044 0.02581 0.0
C734 C 0.43987 0.88159 0.05681 0.0
H735 H 0.4188 0.82615 0.94076 0.0
H736 H 0.41311 0.82619 0.0492 0.0
C737 C 0.45691 0.91266 0.02552 0.0
C738 C 0.59655 0.4677 0.3056 0.0
C739 C 0.57177 0.44301 0.26758 0.0
H740 H 0.61232 0.48277 0.39554 0.0
C741 C 0.54313 0.41418 0.29177 0.0
H742 H 0.61896 0.49006 0.28783 0.0
C743 C 0.53887 0.41053 0.35317 0.0
C744 C 0.56377 0.43509 0.39119 0.0
H745 H 0.52368 0.39487 0.26323 0.0
H746 H 0.51631 0.38832 0.37094 0.0
C747 C 0.59285 0.46348 0.367 0.0
C748 C 0.13249 0.54282 0.62449 0.0
C749 C 0.13184 0.57125 0.60037 0.0
H750 H 0.13194 0.51615 0.70359 0.0
C751 C 0.1315 0.59577 0.63845 0.0
H752 H 0.13269 0.52356 0.59589 0.0
C753 C 0.13205 0.59206 0.69984 0.0
C754 C 0.13183 0.56319 0.72396 0.0
H755 H 0.13118 0.61801 0.62073 0.0
H756 H 0.1319 0.61134 0.72844 0.0
C757 C 0.13192 0.53854 0.68588 0.0
C758 C 0.55159 0.09402 0.02683 0.0
C759 C 0.56871 0.12512 0.05804 0.0
H760 H 0.5338 0.06968 0.94231 0.0
C761 C 0.58227 0.15625 0.02693 0.0
H762 H 0.5409 0.06973 0.05006 0.0
C763 C 0.5793 0.15622 0.96516 0.0
C764 C 0.56161 0.12506 0.93415 0.0
H765 H 0.59571 0.18051 0.05026 0.0
H766 H 0.59022 0.18046 0.94176 0.0
C767 C 0.54749 0.09399 0.96546 0.0
C768 C 0.2983 0.55887 -0.00101 0.0
C769 C 0.2987 0.52791 0.00365 0.0
H770 H 0.26853 0.58332 0.98711 0.0
C771 C 0.2674 0.49674 -0.00056 0.0
H772 H 0.32181 0.58339 0.00218 0.0
C773 C 0.23643 0.49669 0.99043 0.0
C774 C 0.23623 0.52782 0.98604 0.0
H775 H 0.26688 0.47246 0.00274 0.0
H776 H 0.21269 0.47238 0.98731 0.0
C777 C 0.26757 0.55882 0.99046 0.0
C778 C 0.74393 0.29497 0.33043 0.0
C779 C 0.77517 0.29527 0.33665 0.0
H780 H 0.68986 0.2654 0.31711 0.0
C781 C 0.775 0.26391 0.33355 0.0
H782 H 0.74293 0.31853 0.33266 0.0
C783 C 0.74408 0.23296 0.32429 0.0
C784 C 0.71287 0.2329 0.3185 0.0
H785 H 0.79868 0.2633 0.33806 0.0
H786 H 0.74457 0.20914 0.32221 0.0
C787 C 0.7133 0.26432 0.32159 0.0
C788 C 0.45242 0.74232 0.66899 0.0
C789 C 0.48345 0.77371 0.67206 0.0
H790 H 0.42774 0.68811 0.65795 0.0
C791 C 0.51457 0.77358 0.66623 0.0
H792 H 0.42792 0.74129 0.6735 0.0
C793 C 0.51445 0.74259 0.65696 0.0
C794 C 0.48323 0.71127 0.6539 0.0
H795 H 0.5389 0.79737 0.66828 0.0
H796 H 0.53871 0.74314 0.65243 0.0
C797 C 0.45231 0.71163 0.66016 0.0
C798 C 0.71167 0.4471 0.00039 0.0
C799 C 0.71135 0.4781 0.00501 0.0
H800 H 0.7413 0.42252 0.98829 0.0
C801 C 0.74267 0.50922 0.00056 0.0
H802 H 0.68812 0.4226 0.00376 0.0
C803 C 0.77359 0.50918 0.99131 0.0
C804 C 0.77369 0.478 0.98692 0.0
H805 H 0.74327 0.53354 0.00383 0.0
H806 H 0.79735 0.53346 0.98799 0.0
C807 C 0.74233 0.44705 0.99162 0.0
C808 C 0.26551 0.71129 0.32968 0.0
C809 C 0.23416 0.71077 0.33609 0.0
H810 H 0.31953 0.74114 0.31615 0.0
C811 C 0.23411 0.74202 0.3331 0.0
H812 H 0.26668 0.68782 0.33181 0.0
C813 C 0.2649 0.77308 0.32378 0.0
C814 C 0.29622 0.77337 0.31781 0.0
H815 H 0.21035 0.74245 0.33776 0.0
H816 H 0.26424 0.79681 0.32181 0.0
C817 C 0.29601 0.74205 0.32077 0.0
C818 C 0.55718 0.2645 0.67075 0.0
C819 C 0.5261 0.23314 0.67354 0.0
H820 H 0.58199 0.31873 0.6599 0.0
C821 C 0.49504 0.23335 0.66747 0.0
H822 H 0.58163 0.26547 0.67546 0.0
C823 C 0.49525 0.26438 0.65819 0.0
C824 C 0.52652 0.29568 0.65537 0.0
H825 H 0.47068 0.20959 0.6693 0.0
H826 H 0.47103 0.26389 0.65344 0.0
C827 C 0.55738 0.29523 0.66191 0.0
C828 C 0.51463 0.53792 0.06524 0.0
C829 C 0.47946 0.51282 0.0649 0.0
H830 H 0.56673 0.5485 0.065 0.0
C831 C 0.47034 0.47806 0.06482 0.0
H832 H 0.52271 0.56499 0.06498 0.0
C833 C 0.49569 0.46865 0.06549 0.0
C834 C 0.53086 0.49374 0.06545 0.0
H835 H 0.4436 0.45806 0.06451 0.0
H836 H 0.4876 0.44157 0.0654 0.0
C837 C 0.53999 0.52851 0.0651 0.0
C838 C 0.99582 0.46811 0.39895 0.0
C839 C 0.9698 0.47672 0.3991 0.0
H840 H 0.04975 0.48614 0.39914 0.0
C841 C 0.97932 0.51173 0.3992 0.0
H842 H 0.9895 0.4415 0.39883 0.0
C843 C 0.01393 0.53743 0.39873 0.0
C844 C 0.03995 0.52883 0.39896 0.0
H845 H 0.96002 0.51943 0.39897 0.0
H846 H 0.02024 0.56404 0.39843 0.0
C847 C 0.03044 0.49381 0.39929 0.0
C848 C 0.47899 0.0124 0.72705 0.0
C849 C 0.51365 0.03839 0.72761 0.0
H850 H 0.44305 0.95849 0.727 0.0
C851 C 0.53913 0.02885 0.72768 0.0
H852 H 0.4587 0.01874 0.72694 0.0
C853 C 0.53018 0.99425 0.72701 0.0
C854 C 0.49552 0.96826 0.72714 0.0
H855 H 0.56612 0.04815 0.72775 0.0
H856 H 0.55047 0.98791 0.7269 0.0
C857 C 0.47004 0.97779 0.72725 0.0
C858 C 0.47059 0.4946 0.5914 0.0
C859 C 0.49608 0.52961 0.59165 0.0
H860 H 0.45918 0.44229 0.59224 0.0
C861 C 0.53072 0.53822 0.59214 0.0
H862 H 0.44359 0.48691 0.59137 0.0
C863 C 0.53962 0.51251 0.592 0.0
C864 C 0.51411 0.4775 0.59219 0.0
H865 H 0.55102 0.56483 0.5924 0.0
H866 H 0.56661 0.52019 0.59242 0.0
C867 C 0.47948 0.46889 0.59207 0.0
C868 C 0.03005 0.53744 0.9258 0.0
C869 C 0.04013 0.51235 0.92597 0.0
H870 H 0.98855 0.54803 0.92645 0.0
C871 C 0.01449 0.47759 0.92622 0.0
H872 H 0.04905 0.56452 0.92595 0.0
C873 C 0.97972 0.46817 0.92585 0.0
C874 C 0.96965 0.49327 0.92605 0.0
H875 H 0.02123 0.45759 0.92642 0.0
H876 H 0.96072 0.4411 0.92605 0.0
C877 C 0.99529 0.52803 0.92624 0.0
C878 C 0.46959 0.99423 0.26405 0.0
C879 C 0.47829 0.96827 0.26333 0.0
H880 H 0.48752 0.04814 0.26423 0.0
C881 C 0.51332 0.97784 0.2631 0.0
H882 H 0.44295 0.98786 0.26428 0.0
C883 C 0.53896 0.01245 0.26378 0.0
C884 C 0.53026 0.03842 0.26381 0.0
H885 H 0.52104 0.95857 0.26291 0.0
H886 H 0.56559 0.01882 0.26377 0.0
C887 C 0.49523 0.02885 0.26385 0.0
C888 C 0.41137 0.55404 0.78498 0.0
C889 C 0.44178 0.58357 0.76755 0.0
H890 H 0.38056 0.52304 0.85689 0.0
C891 C 0.46392 0.60594 0.81138 0.0
H892 H 0.39372 0.53633 0.75238 0.0
C893 C 0.45623 0.59849 0.87135 0.0
C894 C 0.42645 0.56831 0.88879 0.0
H895 H 0.48745 0.62907 0.79945 0.0
H896 H 0.47411 0.61597 0.90394 0.0
C897 C 0.40388 0.54639 0.84496 0.0
C898 C 0.86114 0.4003 0.17926 0.0
C899 C 0.86142 0.42272 0.22303 0.0
H900 H 0.86116 0.39013 0.08672 0.0
C901 C 0.86046 0.45219 0.20552 0.0
H902 H 0.8616 0.37721 0.19125 0.0
C903 C 0.86049 0.45974 0.14553 0.0
C904 C 0.8611 0.43777 0.10175 0.0
H905 H 0.86055 0.46994 0.23807 0.0
H906 H 0.86046 0.48304 0.13353 0.0
C907 C 0.86079 0.40765 0.11927 0.0
C908 C 0.40947 0.85711 0.5387 0.0
C909 C 0.44002 0.85801 0.55542 0.0
H910 H 0.37825 0.85744 0.46757 0.0
C911 C 0.46178 0.85762 0.51095 0.0
H912 H 0.39208 0.85729 0.57175 0.0
C913 C 0.4537 0.8574 0.45112 0.0
C914 C 0.42389 0.85796 0.43441 0.0
H915 H 0.48541 0.85803 0.52226 0.0
H916 H 0.47138 0.85781 0.41806 0.0
C917 C 0.4016 0.85729 0.47888 0.0
C918 C 0.54608 0.40085 0.81253 0.0
C919 C 0.56824 0.42326 0.76878 0.0
H920 H 0.53594 0.39062 0.90507 0.0
C921 C 0.59876 0.45265 0.7863 0.0
H922 H 0.52247 0.37782 0.80053 0.0
C923 C 0.60633 0.46012 0.8463 0.0
C924 C 0.58374 0.43817 0.89006 0.0
H925 H 0.61644 0.47039 0.75376 0.0
H926 H 0.62973 0.48337 0.8583 0.0
C927 C 0.55385 0.40813 0.87253 0.0
C928 C 0.14907 0.59804 0.11897 0.0
C929 C 0.14872 0.56789 0.10149 0.0
H930 H 0.14827 0.62852 0.1909 0.0
C931 C 0.14928 0.54592 0.1453 0.0
H932 H 0.14874 0.61557 0.0864 0.0
C933 C 0.14931 0.55349 0.20529 0.0
C934 C 0.14837 0.58299 0.22275 0.0
H935 H 0.14928 0.52259 0.13334 0.0
H936 H 0.14917 0.53574 0.23787 0.0
C937 C 0.1487 0.60541 0.17895 0.0
C938 C 0.59968 0.14931 0.53976 0.0
C939 C 0.56934 0.14878 0.55661 0.0
H940 H 0.63064 0.14863 0.46846 0.0
C941 C 0.5477 0.14952 0.51225 0.0
H942 H 0.61696 0.14886 0.57273 0.0
C943 C 0.55568 0.14969 0.45239 0.0
C944 C 0.58527 0.14874 0.43552 0.0
H945 H 0.52423 0.1494 0.52367 0.0
H946 H 0.53809 0.14955 0.41943 0.0
C947 C 0.60746 0.14909 0.47989 0.0
loop_
_geom_bond_atom_site_label_1
_geom_bond_atom_site_label_2
_geom_bond_distance
_geom_bond_site_symmetry_2
_ccdc_geom_bond_type
Co0 O2 2.143 . S
Co0 O8 2.074 . S
Co0 O11 2.094 . S
Co0 O24 2.097 1_554 S
Co0 N41 2.151 . S
Co0 N49 2.214 1_554 S
Co1 O2 2.160 . S
Co1 O7 2.058 . S
Co1 O17 2.057 . S
Co1 O32 2.037 1_554 S
Co1 N36 2.145 . S
Co1 N57 2.257 . S
O2 Co0 2.143 . S
O2 Co1 2.160 . S
C3 O4 1.278 . S
C3 O11 1.235 . S
O4 C3 1.278 . S
C5 O6 1.245 . S
C5 O17 1.232 . S
O6 C5 1.245 . S
O7 Co1 2.058 . S
O7 C33 1.269 . S
O8 Co0 2.074 . S
O8 C33 1.257 . S
H9 C34 0.942 . S
H10 C40 0.930 . S
O11 Co0 2.094 . S
O11 C3 1.235 . S
H12 C44 0.929 . S
H13 C46 0.930 . S
H14 C47 0.930 . S
H15 C45 0.929 . S
H16 C48 0.928 . S
O17 Co1 2.057 . S
O17 C5 1.232 . S
H18 C37 0.929 1_556 S
H19 C38 0.929 . S
H20 C50 0.931 . S
H21 C42 0.929 . S
H22 C51 0.930 . S
H23 C43 0.931 . S
O24 Co0 2.097 1_556 S
O24 C52 1.214 . S
H25 C53 0.929 . S
H26 C54 0.929 1_556 S
H27 C55 0.930 1_556 S
H28 C56 0.929 . S
H29 C58 0.930 . S
H30 C35 0.930 . S
H31 C39 0.930 . S
O32 Co1 2.037 1_556 S
O32 C52 1.234 . S
C33 O7 1.269 . S
C33 O8 1.257 . S
C34 H9 0.942 . S
C34 C37 1.388 . S
C34 C39 1.418 . S
C35 H30 0.930 . S
C35 C38 1.404 . S
C35 C39 1.353 . S
N36 Co1 2.145 . S
N36 C37 1.397 . S
N36 C38 1.334 . S
C37 H18 0.929 1_554 S
C37 C34 1.388 . S
C37 N36 1.397 . S
C38 H19 0.929 . S
C38 C35 1.404 . S
C38 N36 1.334 . S
C39 H31 0.930 . S
C39 C34 1.418 . S
C39 C35 1.353 . S
C40 H10 0.930 . S
C40 N41 1.330 . S
C40 C42 1.446 . S
N41 Co0 2.151 . S
N41 C40 1.330 . S
N41 C45 1.418 . S
C42 H21 0.929 . S
C42 C40 1.446 . S
C42 C43 1.332 . S
C43 H23 0.931 . S
C43 C42 1.332 . S
C43 C44 1.267 . S
C44 H12 0.929 . S
C44 C43 1.267 . S
C44 C45 1.251 . S
C45 H15 0.929 . S
C45 N41 1.418 . S
C45 C44 1.251 . S
C46 H13 0.930 . S
C46 C48 1.406 . S
C46 C51 1.261 . S
C47 H14 0.930 . S
C47 N49 1.325 . S
C47 C50 1.357 . S
C48 H16 0.928 . S
C48 C46 1.406 . S
C48 N49 1.261 . S
N49 Co0 2.214 1_556 S
N49 C47 1.325 . S
N49 C48 1.261 . S
C50 H20 0.931 . S
C50 C47 1.357 . S
C50 C51 1.312 . S
C51 H22 0.930 . S
C51 C46 1.261 . S
C51 C50 1.312 . S
C52 O24 1.214 . S
C52 O32 1.234 . S
C53 H25 0.929 . S
C53 C56 1.391 . S
C53 C58 1.391 . S
C54 H26 0.929 1_554 S
C54 C55 1.390 . S
C54 N57 1.391 . S
C55 H27 0.930 1_554 S
C55 C54 1.390 . S
C55 C56 1.392 . S
C56 H28 0.929 . S
C56 C53 1.391 . S
C56 C55 1.392 . S
N57 Co1 2.257 . S
N57 C54 1.391 . S
N57 C58 1.388 . S
C58 H29 0.930 . S
C58 C53 1.391 . S
C58 N57 1.388 . S
Co59 O61 2.143 . S
Co59 O67 2.074 . S
Co59 O70 2.093 . S
Co59 O83 2.097 . S
Co59 N100 2.151 . S
Co59 N108 2.214 . S
Co60 O61 2.160 . S
Co60 O66 2.058 . S
Co60 O76 2.057 . S
Co60 O91 2.037 . S
Co60 N95 2.145 . S
Co60 N116 2.257 . S
O61 Co59 2.143 . S
O61 Co60 2.160 . S
C62 O63 1.278 . S
C62 O70 1.224 . S
O63 C62 1.278 . S
C64 O65 1.245 . S
C64 O76 1.232 . S
O65 C64 1.245 . S
O66 Co60 2.058 . S
O66 C92 1.269 . S
O67 Co59 2.074 . S
O67 C92 1.257 . S
H68 C93 0.930 . S
H69 C99 0.930 . S
O70 Co59 2.093 . S
O70 C62 1.224 . S
H71 C103 0.929 . S
H72 C105 0.930 . S
H73 C106 0.930 . S
H74 C104 0.929 . S
H75 C107 0.928 . S
O76 Co60 2.057 . S
O76 C64 1.232 . S
H77 C96 0.929 . S
H78 C97 0.929 . S
H79 C109 0.931 . S
H80 C101 0.929 . S
H81 C110 0.930 . S
H82 C102 0.931 . S
O83 Co59 2.097 . S
O83 C111 1.214 . S
H84 C112 0.929 . S
H85 C113 0.929 . S
H86 C114 0.930 . S
H87 C115 0.929 . S
H88 C117 0.930 . S
H89 C94 0.930 . S
H90 C98 0.930 . S
O91 Co60 2.037 . S
O91 C111 1.234 . S
C92 O66 1.269 . S
C92 O67 1.257 . S
C93 H68 0.930 . S
C93 C96 1.388 . S
C93 C98 1.418 . S
C94 H89 0.930 . S
C94 C97 1.404 . S
C94 C98 1.353 . S
N95 Co60 2.145 . S
N95 C96 1.397 . S
N95 C97 1.334 . S
C96 H77 0.929 . S
C96 C93 1.388 . S
C96 N95 1.397 . S
C97 H78 0.929 . S
C97 C94 1.404 . S
C97 N95 1.334 . S
C98 H90 0.930 . S
C98 C93 1.418 . S
C98 C94 1.353 . S
C99 H69 0.930 . S
C99 N100 1.330 . S
C99 C101 1.446 . S
N100 Co59 2.151 . S
N100 C99 1.330 . S
N100 C104 1.418 . S
C101 H80 0.929 . S
C101 C99 1.446 . S
C101 C102 1.332 . S
C102 H82 0.931 . S
C102 C101 1.332 . S
C102 C103 1.267 . S
C103 H71 0.929 . S
C103 C102 1.267 . S
C103 C104 1.251 . S
C104 H74 0.929 . S
C104 N100 1.418 . S
C104 C103 1.251 . S
C105 H72 0.930 . S
C105 C107 1.406 . S
C105 C110 1.261 . S
C106 H73 0.930 . S
C106 N108 1.325 . S
C106 C109 1.357 . S
C107 H75 0.928 . S
C107 C105 1.406 . S
C107 N108 1.261 . S
N108 Co59 2.214 . S
N108 C106 1.325 . S
N108 C107 1.261 . S
C109 H79 0.931 . S
C109 C106 1.357 . S
C109 C110 1.312 . S
C110 H81 0.930 . S
C110 C105 1.261 . S
C110 C109 1.312 . S
C111 O83 1.214 . S
C111 O91 1.234 . S
C112 H84 0.929 . S
C112 C115 1.391 . S
C112 C117 1.391 . S
C113 H85 0.929 . S
C113 C114 1.390 . S
C113 N116 1.391 . S
C114 H86 0.930 . S
C114 C113 1.390 . S
C114 C115 1.392 . S
C115 H87 0.929 . S
C115 C112 1.391 . S
C115 C114 1.392 . S
N116 Co60 2.257 . S
N116 C113 1.391 . S
N116 C117 1.388 . S
C117 H88 0.930 . S
C117 C112 1.391 . S
C117 N116 1.388 . S
Co118 O120 2.143 . S
Co118 O126 2.074 . S
Co118 O129 2.093 . S
Co118 O142 2.097 . S
Co118 N159 2.151 . S
Co118 N167 2.214 . S
Co119 O120 2.160 . S
Co119 O125 2.058 . S
Co119 O135 2.057 . S
Co119 O150 2.037 . S
Co119 N154 2.145 . S
Co119 N175 2.257 . S
O120 Co118 2.143 . S
O120 Co119 2.160 . S
C121 O122 1.278 . S
C121 O129 1.224 . S
O122 C121 1.278 . S
C123 O124 1.245 . S
C123 O135 1.232 . S
O124 C123 1.245 . S
O125 Co119 2.058 . S
O125 C151 1.269 . S
O126 Co118 2.074 . S
O126 C151 1.257 . S
H127 C152 0.930 . S
H128 C158 0.930 . S
O129 Co118 2.093 . S
O129 C121 1.224 . S
H130 C162 0.929 . S
H131 C164 0.930 . S
H132 C165 0.930 . S
H133 C163 0.929 . S
H134 C166 0.928 . S
O135 Co119 2.057 . S
O135 C123 1.232 . S
H136 C155 0.929 . S
H137 C156 0.929 . S
H138 C168 0.931 . S
H139 C160 0.929 . S
H140 C169 0.930 . S
H141 C161 0.931 . S
O142 Co118 2.097 . S
O142 C170 1.214 . S
H143 C171 0.929 . S
H144 C172 0.929 . S
H145 C173 0.930 . S
H146 C174 0.929 . S
H147 C176 0.930 . S
H148 C153 0.930 . S
H149 C157 0.930 . S
O150 Co119 2.037 . S
O150 C170 1.234 . S
C151 O125 1.269 . S
C151 O126 1.257 . S
C152 H127 0.930 . S
C152 C155 1.388 . S
C152 C157 1.418 . S
C153 H148 0.930 . S
C153 C156 1.404 . S
C153 C157 1.353 . S
N154 Co119 2.145 . S
N154 C155 1.397 . S
N154 C156 1.334 . S
C155 H136 0.929 . S
C155 C152 1.388 . S
C155 N154 1.397 . S
C156 H137 0.929 . S
C156 C153 1.404 . S
C156 N154 1.334 . S
C157 H149 0.930 . S
C157 C152 1.418 . S
C157 C153 1.353 . S
C158 H128 0.930 . S
C158 N159 1.330 . S
C158 C160 1.446 . S
N159 Co118 2.151 . S
N159 C158 1.330 . S
N159 C163 1.418 . S
C160 H139 0.929 . S
C160 C158 1.446 . S
C160 C161 1.332 . S
C161 H141 0.931 . S
C161 C160 1.332 . S
C161 C162 1.267 . S
C162 H130 0.929 . S
C162 C161 1.267 . S
C162 C163 1.251 . S
C163 H133 0.929 . S
C163 N159 1.418 . S
C163 C162 1.251 . S
C164 H131 0.930 . S
C164 C166 1.406 . S
C164 C169 1.261 . S
C165 H132 0.930 . S
C165 N167 1.325 . S
C165 C168 1.357 . S
C166 H134 0.928 . S
C166 C164 1.406 . S
C166 N167 1.261 . S
N167 Co118 2.214 . S
N167 C165 1.325 . S
N167 C166 1.261 . S
C168 H138 0.931 . S
C168 C165 1.357 . S
C168 C169 1.312 . S
C169 H140 0.930 . S
C169 C164 1.261 . S
C169 C168 1.312 . S
C170 O142 1.214 . S
C170 O150 1.234 . S
C171 H143 0.929 . S
C171 C174 1.391 . S
C171 C176 1.391 . S
C172 H144 0.929 . S
C172 C173 1.390 . S
C172 N175 1.391 . S
C173 H145 0.930 . S
C173 C172 1.390 . S
C173 C174 1.392 . S
C174 H146 0.929 . S
C174 C171 1.391 . S
C174 C173 1.392 . S
N175 Co119 2.257 . S
N175 C172 1.391 . S
N175 C176 1.388 . S
C176 H147 0.930 . S
C176 C171 1.391 . S
C176 N175 1.388 . S
Co177 O179 2.143 . S
Co177 O185 2.074 . S
Co177 O188 2.094 . S
Co177 O201 2.097 1_554 S
Co177 N218 2.151 . S
Co177 N226 2.214 1_554 S
Co178 O179 2.160 . S
Co178 O184 2.058 . S
Co178 O194 2.057 . S
Co178 O209 2.037 1_554 S
Co178 N213 2.145 . S
Co178 N234 2.257 . S
O179 Co177 2.143 . S
O179 Co178 2.160 . S
C180 O181 1.278 . S
C180 O188 1.235 . S
O181 C180 1.278 . S
C182 O183 1.245 . S
C182 O194 1.232 . S
O183 C182 1.245 . S
O184 Co178 2.058 . S
O184 C210 1.269 . S
O185 Co177 2.074 . S
O185 C210 1.257 . S
H186 C211 0.942 . S
H187 C217 0.930 . S
O188 Co177 2.094 . S
O188 C180 1.235 . S
H189 C221 0.929 . S
H190 C223 0.930 . S
H191 C224 0.930 . S
H192 C222 0.929 . S
H193 C225 0.928 . S
O194 Co178 2.057 . S
O194 C182 1.232 . S
H195 C214 0.929 1_556 S
H196 C215 0.929 . S
H197 C227 0.931 . S
H198 C219 0.929 . S
H199 C228 0.930 . S
H200 C220 0.931 . S
O201 Co177 2.097 1_556 S
O201 C229 1.214 . S
H202 C230 0.929 . S
H203 C231 0.929 1_556 S
H204 C232 0.930 1_556 S
H205 C233 0.929 . S
H206 C235 0.930 . S
H207 C212 0.930 . S
H208 C216 0.930 . S
O209 Co178 2.037 1_556 S
O209 C229 1.234 . S
C210 O184 1.269 . S
C210 O185 1.257 . S
C211 H186 0.942 . S
C211 C214 1.388 . S
C211 C216 1.418 . S
C212 H207 0.930 . S
C212 C215 1.404 . S
C212 C216 1.353 . S
N213 Co178 2.145 . S
N213 C214 1.397 . S
N213 C215 1.334 . S
C214 H195 0.929 1_554 S
C214 C211 1.388 . S
C214 N213 1.397 . S
C215 H196 0.929 . S
C215 C212 1.404 . S
C215 N213 1.334 . S
C216 H208 0.930 . S
C216 C211 1.418 . S
C216 C212 1.353 . S
C217 H187 0.930 . S
C217 N218 1.330 . S
C217 C219 1.446 . S
N218 Co177 2.151 . S
N218 C217 1.330 . S
N218 C222 1.418 . S
C219 H198 0.929 . S
C219 C217 1.446 . S
C219 C220 1.332 . S
C220 H200 0.931 . S
C220 C219 1.332 . S
C220 C221 1.267 . S
C221 H189 0.929 . S
C221 C220 1.267 . S
C221 C222 1.251 . S
C222 H192 0.929 . S
C222 N218 1.418 . S
C222 C221 1.251 . S
C223 H190 0.930 . S
C223 C225 1.406 . S
C223 C228 1.261 . S
C224 H191 0.930 . S
C224 N226 1.325 . S
C224 C227 1.357 . S
C225 H193 0.928 . S
C225 C223 1.406 . S
C225 N226 1.261 . S
N226 Co177 2.214 1_556 S
N226 C224 1.325 . S
N226 C225 1.261 . S
C227 H197 0.931 . S
C227 C224 1.357 . S
C227 C228 1.312 . S
C228 H199 0.930 . S
C228 C223 1.261 . S
C228 C227 1.312 . S
C229 O201 1.214 . S
C229 O209 1.234 . S
C230 H202 0.929 . S
C230 C233 1.391 . S
C230 C235 1.391 . S
C231 H203 0.929 1_554 S
C231 C232 1.390 . S
C231 N234 1.391 . S
C232 H204 0.930 1_554 S
C232 C231 1.390 . S
C232 C233 1.392 . S
C233 H205 0.929 . S
C233 C230 1.391 . S
C233 C232 1.392 . S
N234 Co178 2.257 . S
N234 C231 1.391 . S
N234 C235 1.388 . S
C235 H206 0.930 . S
C235 C230 1.391 . S
C235 N234 1.388 . S
Co236 O238 2.143 . S
Co236 O244 2.074 . S
Co236 O247 2.093 . S
Co236 O260 2.097 . S
Co236 N277 2.151 . S
Co236 N285 2.214 . S
Co237 O238 2.160 . S
Co237 O243 2.058 . S
Co237 O253 2.057 . S
Co237 O268 2.037 . S
Co237 N272 2.145 . S
Co237 N293 2.257 . S
O238 Co236 2.143 . S
O238 Co237 2.160 . S
C239 O240 1.278 . S
C239 O247 1.224 . S
O240 C239 1.278 . S
C241 O242 1.245 . S
C241 O253 1.232 . S
O242 C241 1.245 . S
O243 Co237 2.058 . S
O243 C269 1.269 . S
O244 Co236 2.074 . S
O244 C269 1.257 . S
H245 C270 0.930 . S
H246 C276 0.930 . S
O247 Co236 2.093 . S
O247 C239 1.224 . S
H248 C280 0.929 . S
H249 C282 0.930 . S
H250 C283 0.930 . S
H251 C281 0.929 . S
H252 C284 0.928 . S
O253 Co237 2.057 . S
O253 C241 1.232 . S
H254 C273 0.929 . S
H255 C274 0.929 . S
H256 C286 0.931 . S
H257 C278 0.929 . S
H258 C287 0.930 . S
H259 C279 0.931 . S
O260 Co236 2.097 . S
O260 C288 1.214 . S
H261 C289 0.929 . S
H262 C290 0.929 . S
H263 C291 0.930 . S
H264 C292 0.929 . S
H265 C294 0.930 . S
H266 C271 0.930 . S
H267 C275 0.930 . S
O268 Co237 2.037 . S
O268 C288 1.234 . S
C269 O243 1.269 . S
C269 O244 1.257 . S
C270 H245 0.930 . S
C270 C273 1.388 . S
C270 C275 1.418 . S
C271 H266 0.930 . S
C271 C274 1.404 . S
C271 C275 1.353 . S
N272 Co237 2.145 . S
N272 C273 1.397 . S
N272 C274 1.334 . S
C273 H254 0.929 . S
C273 C270 1.388 . S
C273 N272 1.397 . S
C274 H255 0.929 . S
C274 C271 1.404 . S
C274 N272 1.334 . S
C275 H267 0.930 . S
C275 C270 1.418 . S
C275 C271 1.353 . S
C276 H246 0.930 . S
C276 N277 1.330 . S
C276 C278 1.446 . S
N277 Co236 2.151 . S
N277 C276 1.330 . S
N277 C281 1.418 . S
C278 H257 0.929 . S
C278 C276 1.446 . S
C278 C279 1.332 . S
C279 H259 0.931 . S
C279 C278 1.332 . S
C279 C280 1.267 . S
C280 H248 0.929 . S
C280 C279 1.267 . S
C280 C281 1.251 . S
C281 H251 0.929 . S
C281 N277 1.418 . S
C281 C280 1.251 . S
C282 H249 0.930 . S
C282 C284 1.406 . S
C282 C287 1.261 . S
C283 H250 0.930 . S
C283 N285 1.325 . S
C283 C286 1.357 . S
C284 H252 0.928 . S
C284 C282 1.406 . S
C284 N285 1.261 . S
N285 Co236 2.214 . S
N285 C283 1.325 . S
N285 C284 1.261 . S
C286 H256 0.931 . S
C286 C283 1.357 . S
C286 C287 1.312 . S
C287 H258 0.930 . S
C287 C282 1.261 . S
C287 C286 1.312 . S
C288 O260 1.214 . S
C288 O268 1.234 . S
C289 H261 0.929 . S
C289 C292 1.391 . S
C289 C294 1.391 . S
C290 H262 0.929 . S
C290 C291 1.390 . S
C290 N293 1.391 . S
C291 H263 0.930 . S
C291 C290 1.390 . S
C291 C292 1.392 . S
C292 H264 0.929 . S
C292 C289 1.391 . S
C292 C291 1.392 . S
N293 Co237 2.257 . S
N293 C290 1.391 . S
N293 C294 1.388 . S
C294 H265 0.930 . S
C294 C289 1.391 . S
C294 N293 1.388 . S
Co295 O297 2.143 . S
Co295 O303 2.074 . S
Co295 O306 2.093 . S
Co295 O319 2.097 . S
Co295 N336 2.151 . S
Co295 N344 2.214 . S
Co296 O297 2.160 . S
Co296 O302 2.058 . S
Co296 O312 2.057 . S
Co296 O327 2.037 . S
Co296 N331 2.145 . S
Co296 N352 2.257 . S
O297 Co295 2.143 . S
O297 Co296 2.160 . S
C298 O299 1.278 . S
C298 O306 1.224 . S
O299 C298 1.278 . S
C300 O301 1.245 . S
C300 O312 1.232 . S
O301 C300 1.245 . S
O302 Co296 2.058 . S
O302 C328 1.269 . S
O303 Co295 2.074 . S
O303 C328 1.257 . S
H304 C329 0.930 . S
H305 C335 0.930 . S
O306 Co295 2.093 . S
O306 C298 1.224 . S
H307 C339 0.929 . S
H308 C341 0.930 . S
H309 C342 0.930 . S
H310 C340 0.929 . S
H311 C343 0.928 . S
O312 Co296 2.057 . S
O312 C300 1.232 . S
H313 C332 0.929 . S
H314 C333 0.929 . S
H315 C345 0.931 . S
H316 C337 0.929 . S
H317 C346 0.930 . S
H318 C338 0.931 . S
O319 Co295 2.097 . S
O319 C347 1.214 . S
H320 C348 0.929 . S
H321 C349 0.929 . S
H322 C350 0.930 . S
H323 C351 0.929 . S
H324 C353 0.930 . S
H325 C330 0.930 . S
H326 C334 0.930 . S
O327 Co296 2.037 . S
O327 C347 1.234 . S
C328 O302 1.269 . S
C328 O303 1.257 . S
C329 H304 0.930 . S
C329 C332 1.388 . S
C329 C334 1.418 . S
C330 H325 0.930 . S
C330 C333 1.404 . S
C330 C334 1.353 . S
N331 Co296 2.145 . S
N331 C332 1.397 . S
N331 C333 1.334 . S
C332 H313 0.929 . S
C332 C329 1.388 . S
C332 N331 1.397 . S
C333 H314 0.929 . S
C333 C330 1.404 . S
C333 N331 1.334 . S
C334 H326 0.930 . S
C334 C329 1.418 . S
C334 C330 1.353 . S
C335 H305 0.930 . S
C335 N336 1.330 . S
C335 C337 1.446 . S
N336 Co295 2.151 . S
N336 C335 1.330 . S
N336 C340 1.418 . S
C337 H316 0.929 . S
C337 C335 1.446 . S
C337 C338 1.332 . S
C338 H318 0.931 . S
C338 C337 1.332 . S
C338 C339 1.267 . S
C339 H307 0.929 . S
C339 C338 1.267 . S
C339 C340 1.251 . S
C340 H310 0.929 . S
C340 N336 1.418 . S
C340 C339 1.251 . S
C341 H308 0.930 . S
C341 C343 1.406 . S
C341 C346 1.261 . S
C342 H309 0.930 . S
C342 N344 1.325 . S
C342 C345 1.357 . S
C343 H311 0.928 . S
C343 C341 1.406 . S
C343 N344 1.261 . S
N344 Co295 2.214 . S
N344 C342 1.325 . S
N344 C343 1.261 . S
C345 H315 0.931 . S
C345 C342 1.357 . S
C345 C346 1.312 . S
C346 H317 0.930 . S
C346 C341 1.261 . S
C346 C345 1.312 . S
C347 O319 1.214 . S
C347 O327 1.234 . S
C348 H320 0.929 . S
C348 C351 1.391 . S
C348 C353 1.391 . S
C349 H321 0.929 . S
C349 C350 1.390 . S
C349 N352 1.391 . S
C350 H322 0.930 . S
C350 C349 1.390 . S
C350 C351 1.392 . S
C351 H323 0.929 . S
C351 C348 1.391 . S
C351 C350 1.392 . S
N352 Co296 2.257 . S
N352 C349 1.391 . S
N352 C353 1.388 . S
C353 H324 0.930 . S
C353 C348 1.391 . S
C353 N352 1.388 . S
Co354 O356 2.143 . S
Co354 O362 2.074 . S
Co354 O365 2.093 . S
Co354 O378 2.097 . S
Co354 N395 2.151 . S
Co354 N403 2.214 . S
Co355 O356 2.160 . S
Co355 O361 2.058 . S
Co355 O371 2.057 . S
Co355 O386 2.037 . S
Co355 N390 2.145 . S
Co355 N411 2.257 . S
O356 Co354 2.143 . S
O356 Co355 2.160 . S
C357 O358 1.278 . S
C357 O365 1.224 . S
O358 C357 1.278 . S
C359 O360 1.245 . S
C359 O371 1.232 . S
O360 C359 1.245 . S
O361 Co355 2.058 . S
O361 C387 1.269 . S
O362 Co354 2.074 . S
O362 C387 1.257 . S
H363 C388 0.930 . S
H364 C394 0.930 . S
O365 Co354 2.093 . S
O365 C357 1.224 . S
H366 C398 0.929 . S
H367 C400 0.930 . S
H368 C401 0.930 . S
H369 C399 0.929 . S
H370 C402 0.928 . S
O371 Co355 2.057 . S
O371 C359 1.232 . S
H372 C391 0.929 . S
H373 C392 0.929 . S
H374 C404 0.931 . S
H375 C396 0.929 . S
H376 C405 0.930 . S
H377 C397 0.931 . S
O378 Co354 2.097 . S
O378 C406 1.214 . S
H379 C407 0.929 . S
H380 C408 0.929 . S
H381 C409 0.930 . S
H382 C410 0.929 . S
H383 C412 0.930 . S
H384 C389 0.930 . S
H385 C393 0.930 . S
O386 Co355 2.037 . S
O386 C406 1.234 . S
C387 O361 1.269 . S
C387 O362 1.257 . S
C388 H363 0.930 . S
C388 C391 1.388 . S
C388 C393 1.418 . S
C389 H384 0.930 . S
C389 C392 1.404 . S
C389 C393 1.353 . S
N390 Co355 2.145 . S
N390 C391 1.397 . S
N390 C392 1.334 . S
C391 H372 0.929 . S
C391 C388 1.388 . S
C391 N390 1.397 . S
C392 H373 0.929 . S
C392 C389 1.404 . S
C392 N390 1.334 . S
C393 H385 0.930 . S
C393 C388 1.418 . S
C393 C389 1.353 . S
C394 H364 0.930 . S
C394 N395 1.330 . S
C394 C396 1.446 . S
N395 Co354 2.151 . S
N395 C394 1.330 . S
N395 C399 1.418 . S
C396 H375 0.929 . S
C396 C394 1.446 . S
C396 C397 1.332 . S
C397 H377 0.931 . S
C397 C396 1.332 . S
C397 C398 1.267 . S
C398 H366 0.929 . S
C398 C397 1.267 . S
C398 C399 1.251 . S
C399 H369 0.929 . S
C399 N395 1.418 . S
C399 C398 1.251 . S
C400 H367 0.930 . S
C400 C402 1.406 . S
C400 C405 1.261 . S
C401 H368 0.930 . S
C401 N403 1.325 . S
C401 C404 1.357 . S
C402 H370 0.928 . S
C402 C400 1.406 . S
C402 N403 1.261 . S
N403 Co354 2.214 . S
N403 C401 1.325 . S
N403 C402 1.261 . S
C404 H374 0.931 . S
C404 C401 1.357 . S
C404 C405 1.312 . S
C405 H376 0.930 . S
C405 C400 1.261 . S
C405 C404 1.312 . S
C406 O378 1.214 . S
C406 O386 1.234 . S
C407 H379 0.929 . S
C407 C410 1.391 . S
C407 C412 1.391 . S
C408 H380 0.929 . S
C408 C409 1.390 . S
C408 N411 1.391 . S
C409 H381 0.930 . S
C409 C408 1.390 . S
C409 C410 1.392 . S
C410 H382 0.929 . S
C410 C407 1.391 . S
C410 C409 1.392 . S
N411 Co355 2.257 . S
N411 C408 1.391 . S
N411 C412 1.388 . S
C412 H383 0.930 . S
C412 C407 1.391 . S
C412 N411 1.388 . S
Co413 O415 2.143 . S
Co413 O421 2.074 . S
Co413 O424 2.094 . S
Co413 O437 2.097 1_556 S
Co413 N454 2.151 . S
Co413 N462 2.214 1_556 S
Co414 O415 2.160 . S
Co414 O420 2.058 . S
Co414 O430 2.057 . S
Co414 O445 2.037 1_556 S
Co414 N449 2.145 . S
Co414 N470 2.257 . S
O415 Co413 2.143 . S
O415 Co414 2.160 . S
C416 O417 1.278 . S
C416 O424 1.234 . S
O417 C416 1.278 . S
C418 O419 1.245 . S
C418 O430 1.232 . S
O419 C418 1.245 . S
O420 Co414 2.058 . S
O420 C446 1.269 . S
O421 Co413 2.074 . S
O421 C446 1.257 . S
H422 C447 0.941 . S
H423 C453 0.930 . S
O424 Co413 2.094 . S
O424 C416 1.234 . S
H425 C457 0.929 . S
H426 C459 0.930 . S
H427 C460 0.930 . S
H428 C458 0.929 . S
H429 C461 0.928 . S
O430 Co414 2.057 . S
O430 C418 1.232 . S
H431 C450 0.929 1_554 S
H432 C451 0.929 . S
H433 C463 0.931 . S
H434 C455 0.929 . S
H435 C464 0.930 . S
H436 C456 0.931 . S
O437 Co413 2.097 1_554 S
O437 C465 1.214 . S
H438 C466 0.929 . S
H439 C467 0.929 1_554 S
H440 C468 0.930 1_554 S
H441 C469 0.929 . S
H442 C471 0.930 . S
H443 C448 0.930 . S
H444 C452 0.930 . S
O445 Co414 2.037 1_554 S
O445 C465 1.234 . S
C446 O420 1.269 . S
C446 O421 1.257 . S
C447 H422 0.941 . S
C447 C450 1.388 . S
C447 C452 1.418 . S
C448 H443 0.930 . S
C448 C451 1.404 . S
C448 C452 1.353 . S
N449 Co414 2.145 . S
N449 C450 1.397 . S
N449 C451 1.334 . S
C450 H431 0.929 1_556 S
C450 C447 1.388 . S
C450 N449 1.397 . S
C451 H432 0.929 . S
C451 C448 1.404 . S
C451 N449 1.334 . S
C452 H444 0.930 . S
C452 C447 1.418 . S
C452 C448 1.353 . S
C453 H423 0.930 . S
C453 N454 1.330 . S
C453 C455 1.446 . S
N454 Co413 2.151 . S
N454 C453 1.330 . S
N454 C458 1.418 . S
C455 H434 0.929 . S
C455 C453 1.446 . S
C455 C456 1.332 . S
C456 H436 0.931 . S
C456 C455 1.332 . S
C456 C457 1.267 . S
C457 H425 0.929 . S
C457 C456 1.267 . S
C457 C458 1.251 . S
C458 H428 0.929 . S
C458 N454 1.418 . S
C458 C457 1.251 . S
C459 H426 0.930 . S
C459 C461 1.406 . S
C459 C464 1.261 . S
C460 H427 0.930 . S
C460 N462 1.325 . S
C460 C463 1.357 . S
C461 H429 0.928 . S
C461 C459 1.406 . S
C461 N462 1.261 . S
N462 Co413 2.214 1_554 S
N462 C460 1.325 . S
N462 C461 1.261 . S
C463 H433 0.931 . S
C463 C460 1.357 . S
C463 C464 1.312 . S
C464 H435 0.930 . S
C464 C459 1.261 . S
C464 C463 1.312 . S
C465 O437 1.214 . S
C465 O445 1.234 . S
C466 H438 0.929 . S
C466 C469 1.391 . S
C466 C471 1.391 . S
C467 H439 0.929 1_556 S
C467 C468 1.390 . S
C467 N470 1.391 . S
C468 H440 0.930 1_556 S
C468 C467 1.390 . S
C468 C469 1.392 . S
C469 H441 0.929 . S
C469 C466 1.391 . S
C469 C468 1.392 . S
N470 Co414 2.257 . S
N470 C467 1.391 . S
N470 C471 1.388 . S
C471 H442 0.930 . S
C471 C466 1.391 . S
C471 N470 1.388 . S
Co472 O474 2.143 . S
Co472 O480 2.074 . S
Co472 O483 2.093 . S
Co472 O496 2.097 . S
Co472 N513 2.151 . S
Co472 N521 2.214 . S
Co473 O474 2.160 . S
Co473 O479 2.058 . S
Co473 O489 2.057 . S
Co473 O504 2.037 . S
Co473 N508 2.145 . S
Co473 N529 2.257 . S
O474 Co472 2.143 . S
O474 Co473 2.160 . S
C475 O476 1.278 . S
C475 O483 1.224 . S
O476 C475 1.278 . S
C477 O478 1.245 . S
C477 O489 1.232 . S
O478 C477 1.245 . S
O479 Co473 2.058 . S
O479 C505 1.269 . S
O480 Co472 2.074 . S
O480 C505 1.257 . S
H481 C506 0.930 . S
H482 C512 0.930 . S
O483 Co472 2.093 . S
O483 C475 1.224 . S
H484 C516 0.929 . S
H485 C518 0.930 . S
H486 C519 0.930 . S
H487 C517 0.929 . S
H488 C520 0.928 . S
O489 Co473 2.057 . S
O489 C477 1.232 . S
H490 C509 0.929 . S
H491 C510 0.929 . S
H492 C522 0.931 . S
H493 C514 0.929 . S
H494 C523 0.930 . S
H495 C515 0.931 . S
O496 Co472 2.097 . S
O496 C524 1.214 . S
H497 C525 0.929 . S
H498 C526 0.929 . S
H499 C527 0.930 . S
H500 C528 0.929 . S
H501 C530 0.930 . S
H502 C507 0.930 . S
H503 C511 0.930 . S
O504 Co473 2.037 . S
O504 C524 1.234 . S
C505 O479 1.269 . S
C505 O480 1.257 . S
C506 H481 0.930 . S
C506 C509 1.388 . S
C506 C511 1.418 . S
C507 H502 0.930 . S
C507 C510 1.404 . S
C507 C511 1.353 . S
N508 Co473 2.145 . S
N508 C509 1.397 . S
N508 C510 1.334 . S
C509 H490 0.929 . S
C509 C506 1.388 . S
C509 N508 1.397 . S
C510 H491 0.929 . S
C510 C507 1.404 . S
C510 N508 1.334 . S
C511 H503 0.930 . S
C511 C506 1.418 . S
C511 C507 1.353 . S
C512 H482 0.930 . S
C512 N513 1.330 . S
C512 C514 1.446 . S
N513 Co472 2.151 . S
N513 C512 1.330 . S
N513 C517 1.418 . S
C514 H493 0.929 . S
C514 C512 1.446 . S
C514 C515 1.332 . S
C515 H495 0.931 . S
C515 C514 1.332 . S
C515 C516 1.267 . S
C516 H484 0.929 . S
C516 C515 1.267 . S
C516 C517 1.251 . S
C517 H487 0.929 . S
C517 N513 1.418 . S
C517 C516 1.251 . S
C518 H485 0.930 . S
C518 C520 1.406 . S
C518 C523 1.261 . S
C519 H486 0.930 . S
C519 N521 1.325 . S
C519 C522 1.357 . S
C520 H488 0.928 . S
C520 C518 1.406 . S
C520 N521 1.261 . S
N521 Co472 2.214 . S
N521 C519 1.325 . S
N521 C520 1.261 . S
C522 H492 0.931 . S
C522 C519 1.357 . S
C522 C523 1.312 . S
C523 H494 0.930 . S
C523 C518 1.261 . S
C523 C522 1.312 . S
C524 O496 1.214 . S
C524 O504 1.234 . S
C525 H497 0.929 . S
C525 C528 1.391 . S
C525 C530 1.391 . S
C526 H498 0.929 . S
C526 C527 1.390 . S
C526 N529 1.391 . S
C527 H499 0.930 . S
C527 C526 1.390 . S
C527 C528 1.392 . S
C528 H500 0.929 . S
C528 C525 1.391 . S
C528 C527 1.392 . S
N529 Co473 2.257 . S
N529 C526 1.391 . S
N529 C530 1.388 . S
C530 H501 0.930 . S
C530 C525 1.391 . S
C530 N529 1.388 . S
Co531 O533 2.143 . S
Co531 O539 2.074 . S
Co531 O542 2.093 . S
Co531 O555 2.097 . S
Co531 N572 2.151 . S
Co531 N580 2.214 . S
Co532 O533 2.160 . S
Co532 O538 2.058 . S
Co532 O548 2.057 . S
Co532 O563 2.037 . S
Co532 N567 2.145 . S
Co532 N588 2.257 . S
O533 Co531 2.143 . S
O533 Co532 2.160 . S
C534 O535 1.278 . S
C534 O542 1.224 . S
O535 C534 1.278 . S
C536 O537 1.245 . S
C536 O548 1.232 . S
O537 C536 1.245 . S
O538 Co532 2.058 . S
O538 C564 1.269 . S
O539 Co531 2.074 . S
O539 C564 1.257 . S
H540 C565 0.930 . S
H541 C571 0.930 . S
O542 Co531 2.093 . S
O542 C534 1.224 . S
H543 C575 0.929 . S
H544 C577 0.930 . S
H545 C578 0.930 . S
H546 C576 0.929 . S
H547 C579 0.928 . S
O548 Co532 2.057 . S
O548 C536 1.232 . S
H549 C568 0.929 . S
H550 C569 0.929 . S
H551 C581 0.931 . S
H552 C573 0.929 . S
H553 C582 0.930 . S
H554 C574 0.931 . S
O555 Co531 2.097 . S
O555 C583 1.214 . S
H556 C584 0.929 . S
H557 C585 0.929 . S
H558 C586 0.930 . S
H559 C587 0.929 . S
H560 C589 0.930 . S
H561 C566 0.930 . S
H562 C570 0.930 . S
O563 Co532 2.037 . S
O563 C583 1.234 . S
C564 O538 1.269 . S
C564 O539 1.257 . S
C565 H540 0.930 . S
C565 C568 1.388 . S
C565 C570 1.418 . S
C566 H561 0.930 . S
C566 C569 1.404 . S
C566 C570 1.353 . S
N567 Co532 2.145 . S
N567 C568 1.397 . S
N567 C569 1.334 . S
C568 H549 0.929 . S
C568 C565 1.388 . S
C568 N567 1.397 . S
C569 H550 0.929 . S
C569 C566 1.404 . S
C569 N567 1.334 . S
C570 H562 0.930 . S
C570 C565 1.418 . S
C570 C566 1.353 . S
C571 H541 0.930 . S
C571 N572 1.330 . S
C571 C573 1.446 . S
N572 Co531 2.151 . S
N572 C571 1.330 . S
N572 C576 1.418 . S
C573 H552 0.929 . S
C573 C571 1.446 . S
C573 C574 1.332 . S
C574 H554 0.931 . S
C574 C573 1.332 . S
C574 C575 1.267 . S
C575 H543 0.929 . S
C575 C574 1.267 . S
C575 C576 1.251 . S
C576 H546 0.929 . S
C576 N572 1.418 . S
C576 C575 1.251 . S
C577 H544 0.930 . S
C577 C579 1.406 . S
C577 C582 1.261 . S
C578 H545 0.930 . S
C578 N580 1.325 . S
C578 C581 1.357 . S
C579 H547 0.928 . S
C579 C577 1.406 . S
C579 N580 1.261 . S
N580 Co531 2.214 . S
N580 C578 1.325 . S
N580 C579 1.261 . S
C581 H551 0.931 . S
C581 C578 1.357 . S
C581 C582 1.312 . S
C582 H553 0.930 . S
C582 C577 1.261 . S
C582 C581 1.312 . S
C583 O555 1.214 . S
C583 O563 1.234 . S
C584 H556 0.929 . S
C584 C587 1.391 . S
C584 C589 1.391 . S
C585 H557 0.929 . S
C585 C586 1.390 . S
C585 N588 1.391 . S
C586 H558 0.930 . S
C586 C585 1.390 . S
C586 C587 1.392 . S
C587 H559 0.929 . S
C587 C584 1.391 . S
C587 C586 1.392 . S
N588 Co532 2.257 . S
N588 C585 1.391 . S
N588 C589 1.388 . S
C589 H560 0.930 . S
C589 C584 1.391 . S
C589 N588 1.388 . S
Co590 O592 2.143 . S
Co590 O598 2.074 . S
Co590 O601 2.094 . S
Co590 O614 2.097 1_556 S
Co590 N631 2.151 . S
Co590 N639 2.214 1_556 S
Co591 O592 2.160 . S
Co591 O597 2.058 . S
Co591 O607 2.057 . S
Co591 O622 2.037 1_556 S
Co591 N626 2.145 . S
Co591 N647 2.257 . S
O592 Co590 2.143 . S
O592 Co591 2.160 . S
C593 O594 1.278 . S
C593 O601 1.234 . S
O594 C593 1.278 . S
C595 O596 1.245 . S
C595 O607 1.232 . S
O596 C595 1.245 . S
O597 Co591 2.058 . S
O597 C623 1.269 . S
O598 Co590 2.074 . S
O598 C623 1.257 . S
H599 C624 0.941 . S
H600 C630 0.930 . S
O601 Co590 2.094 . S
O601 C593 1.234 . S
H602 C634 0.929 . S
H603 C636 0.930 . S
H604 C637 0.930 . S
H605 C635 0.929 . S
H606 C638 0.928 . S
O607 Co591 2.057 . S
O607 C595 1.232 . S
H608 C627 0.929 1_554 S
H609 C628 0.929 . S
H610 C640 0.931 . S
H611 C632 0.929 . S
H612 C641 0.930 . S
H613 C633 0.931 . S
O614 Co590 2.097 1_554 S
O614 C642 1.214 . S
H615 C643 0.929 . S
H616 C644 0.929 1_554 S
H617 C645 0.930 1_554 S
H618 C646 0.929 . S
H619 C648 0.930 . S
H620 C625 0.930 . S
H621 C629 0.930 . S
O622 Co591 2.037 1_554 S
O622 C642 1.234 . S
C623 O597 1.269 . S
C623 O598 1.257 . S
C624 H599 0.941 . S
C624 C627 1.388 . S
C624 C629 1.418 . S
C625 H620 0.930 . S
C625 C628 1.404 . S
C625 C629 1.353 . S
N626 Co591 2.145 . S
N626 C627 1.397 . S
N626 C628 1.334 . S
C627 H608 0.929 1_556 S
C627 C624 1.388 . S
C627 N626 1.397 . S
C628 H609 0.929 . S
C628 C625 1.404 . S
C628 N626 1.334 . S
C629 H621 0.930 . S
C629 C624 1.418 . S
C629 C625 1.353 . S
C630 H600 0.930 . S
C630 N631 1.330 . S
C630 C632 1.446 . S
N631 Co590 2.151 . S
N631 C630 1.330 . S
N631 C635 1.418 . S
C632 H611 0.929 . S
C632 C630 1.446 . S
C632 C633 1.332 . S
C633 H613 0.931 . S
C633 C632 1.332 . S
C633 C634 1.267 . S
C634 H602 0.929 . S
C634 C633 1.267 . S
C634 C635 1.251 . S
C635 H605 0.929 . S
C635 N631 1.418 . S
C635 C634 1.251 . S
C636 H603 0.930 . S
C636 C638 1.406 . S
C636 C641 1.261 . S
C637 H604 0.930 . S
C637 N639 1.325 . S
C637 C640 1.357 . S
C638 H606 0.928 . S
C638 C636 1.406 . S
C638 N639 1.261 . S
N639 Co590 2.214 1_554 S
N639 C637 1.325 . S
N639 C638 1.261 . S
C640 H610 0.931 . S
C640 C637 1.357 . S
C640 C641 1.312 . S
C641 H612 0.930 . S
C641 C636 1.261 . S
C641 C640 1.312 . S
C642 O614 1.214 . S
C642 O622 1.234 . S
C643 H615 0.929 . S
C643 C646 1.391 . S
C643 C648 1.391 . S
C644 H616 0.929 1_556 S
C644 C645 1.390 . S
C644 N647 1.391 . S
C645 H617 0.930 1_556 S
C645 C644 1.390 . S
C645 C646 1.392 . S
C646 H618 0.929 . S
C646 C643 1.391 . S
C646 C645 1.392 . S
N647 Co591 2.257 . S
N647 C644 1.391 . S
N647 C648 1.388 . S
C648 H619 0.930 . S
C648 C643 1.391 . S
C648 N647 1.388 . S
Co649 O651 2.143 . S
Co649 O657 2.074 . S
Co649 O660 2.093 . S
Co649 O673 2.097 . S
Co649 N690 2.151 . S
Co649 N698 2.214 . S
Co650 O651 2.160 . S
Co650 O656 2.058 . S
Co650 O666 2.057 . S
Co650 O681 2.037 . S
Co650 N685 2.145 . S
Co650 N706 2.257 . S
O651 Co649 2.143 . S
O651 Co650 2.160 . S
C652 O653 1.278 . S
C652 O660 1.224 . S
O653 C652 1.278 . S
C654 O655 1.245 . S
C654 O666 1.232 . S
O655 C654 1.245 . S
O656 Co650 2.058 . S
O656 C682 1.269 . S
O657 Co649 2.074 . S
O657 C682 1.257 . S
H658 C683 0.930 . S
H659 C689 0.930 . S
O660 Co649 2.093 . S
O660 C652 1.224 . S
H661 C693 0.929 . S
H662 C695 0.930 . S
H663 C696 0.930 . S
H664 C694 0.929 . S
H665 C697 0.928 . S
O666 Co650 2.057 . S
O666 C654 1.232 . S
H667 C686 0.929 . S
H668 C687 0.929 . S
H669 C699 0.931 . S
H670 C691 0.929 . S
H671 C700 0.930 . S
H672 C692 0.931 . S
O673 Co649 2.097 . S
O673 C701 1.214 . S
H674 C702 0.929 . S
H675 C703 0.929 . S
H676 C704 0.930 . S
H677 C705 0.929 . S
H678 C707 0.930 . S
H679 C684 0.930 . S
H680 C688 0.930 . S
O681 Co650 2.037 . S
O681 C701 1.234 . S
C682 O656 1.269 . S
C682 O657 1.257 . S
C683 H658 0.930 . S
C683 C686 1.388 . S
C683 C688 1.418 . S
C684 H679 0.930 . S
C684 C687 1.404 . S
C684 C688 1.353 . S
N685 Co650 2.145 . S
N685 C686 1.397 . S
N685 C687 1.334 . S
C686 H667 0.929 . S
C686 C683 1.388 . S
C686 N685 1.397 . S
C687 H668 0.929 . S
C687 C684 1.404 . S
C687 N685 1.334 . S
C688 H680 0.930 . S
C688 C683 1.418 . S
C688 C684 1.353 . S
C689 H659 0.930 . S
C689 N690 1.330 . S
C689 C691 1.446 . S
N690 Co649 2.151 . S
N690 C689 1.330 . S
N690 C694 1.418 . S
C691 H670 0.929 . S
C691 C689 1.446 . S
C691 C692 1.332 . S
C692 H672 0.931 . S
C692 C691 1.332 . S
C692 C693 1.267 . S
C693 H661 0.929 . S
C693 C692 1.267 . S
C693 C694 1.251 . S
C694 H664 0.929 . S
C694 N690 1.418 . S
C694 C693 1.251 . S
C695 H662 0.930 . S
C695 C697 1.406 . S
C695 C700 1.261 . S
C696 H663 0.930 . S
C696 N698 1.325 . S
C696 C699 1.357 . S
C697 H665 0.928 . S
C697 C695 1.406 . S
C697 N698 1.261 . S
N698 Co649 2.214 . S
N698 C696 1.325 . S
N698 C697 1.261 . S
C699 H669 0.931 . S
C699 C696 1.357 . S
C699 C700 1.312 . S
C700 H671 0.930 . S
C700 C695 1.261 . S
C700 C699 1.312 . S
C701 O673 1.214 . S
C701 O681 1.234 . S
C702 H674 0.929 . S
C702 C705 1.391 . S
C702 C707 1.391 . S
C703 H675 0.929 . S
C703 C704 1.390 . S
C703 N706 1.391 . S
C704 H676 0.930 . S
C704 C703 1.390 . S
C704 C705 1.392 . S
C705 H677 0.929 . S
C705 C702 1.391 . S
C705 C704 1.392 . S
N706 Co650 2.257 . S
N706 C703 1.391 . S
N706 C707 1.388 . S
C707 H678 0.930 . S
C707 C702 1.391 . S
C707 N706 1.388 . S
C708 C709 1.387 . S
C708 H712 0.950 . S
C708 C717 1.390 . S
C709 C708 1.387 . S
C709 C711 1.387 . S
H710 C717 0.950 . S
C711 C709 1.387 . S
C711 C713 1.390 . S
C711 H715 0.950 . S
H712 C708 0.950 . S
C713 C711 1.390 . S
C713 C714 1.387 . S
C713 H716 0.950 . S
C714 C713 1.387 . S
C714 C717 1.387 . S
H715 C711 0.950 . S
H716 C713 0.950 . S
C717 C708 1.390 . S
C717 H710 0.950 . S
C717 C714 1.387 . S
C718 C719 1.387 . S
C718 H722 0.950 . S
C718 C727 1.390 . S
C719 C718 1.387 . S
C719 C721 1.387 . S
H720 C727 0.950 . S
C721 C719 1.387 . S
C721 C723 1.390 . S
C721 H725 0.950 . S
H722 C718 0.950 . S
C723 C721 1.390 . S
C723 C724 1.387 . S
C723 H726 0.950 . S
C724 C723 1.387 . S
C724 C727 1.387 . S
H725 C721 0.950 . S
H726 C723 0.950 . S
C727 C718 1.390 . S
C727 H720 0.950 . S
C727 C724 1.387 . S
C728 C729 1.387 . S
C728 H732 0.950 . S
C728 C737 1.390 1_556 S
C729 C728 1.387 . S
C729 C731 1.387 . S
H730 C737 0.950 . S
C731 C729 1.387 . S
C731 C733 1.390 1_556 S
C731 H735 0.950 . S
H732 C728 0.950 . S
C733 C731 1.390 1_554 S
C733 C734 1.387 . S
C733 H736 0.950 . S
C734 C733 1.387 . S
C734 C737 1.387 . S
H735 C731 0.950 . S
H736 C733 0.950 . S
C737 C728 1.390 1_554 S
C737 H730 0.950 . S
C737 C734 1.387 . S
C738 C739 1.387 . S
C738 H742 0.950 . S
C738 C747 1.390 . S
C739 C738 1.387 . S
C739 C741 1.387 . S
H740 C747 0.950 . S
C741 C739 1.387 . S
C741 C743 1.390 . S
C741 H745 0.950 . S
H742 C738 0.950 . S
C743 C741 1.390 . S
C743 C744 1.387 . S
C743 H746 0.950 . S
C744 C743 1.387 . S
C744 C747 1.387 . S
H745 C741 0.950 . S
H746 C743 0.950 . S
C747 C738 1.390 . S
C747 H740 0.950 . S
C747 C744 1.387 . S
C748 C749 1.387 . S
C748 H752 0.950 . S
C748 C757 1.390 . S
C749 C748 1.387 . S
C749 C751 1.387 . S
H750 C757 0.950 . S
C751 C749 1.387 . S
C751 C753 1.390 . S
C751 H755 0.950 . S
H752 C748 0.950 . S
C753 C751 1.390 . S
C753 C754 1.387 . S
C753 H756 0.950 . S
C754 C753 1.387 . S
C754 C757 1.387 . S
H755 C751 0.950 . S
H756 C753 0.950 . S
C757 C748 1.390 . S
C757 H750 0.950 . S
C757 C754 1.387 . S
C758 C759 1.387 . S
C758 H762 0.950 . S
C758 C767 1.390 1_554 S
C759 C758 1.387 . S
C759 C761 1.387 . S
H760 C767 0.950 . S
C761 C759 1.387 . S
C761 C763 1.390 1_554 S
C761 H765 0.950 . S
H762 C758 0.950 . S
C763 C761 1.390 1_556 S
C763 C764 1.387 . S
C763 H766 0.950 . S
C764 C763 1.387 . S
C764 C767 1.387 . S
H765 C761 0.950 . S
H766 C763 0.950 . S
C767 C758 1.390 1_556 S
C767 H760 0.950 . S
C767 C764 1.387 . S
C768 C769 1.387 . S
C768 H772 0.950 . S
C768 C777 1.390 1_554 S
C769 C768 1.387 . S
C769 C771 1.387 . S
H770 C777 0.950 . S
C771 C769 1.387 . S
C771 C773 1.390 1_554 S
C771 H775 0.950 . S
H772 C768 0.950 . S
C773 C771 1.390 1_556 S
C773 C774 1.387 . S
C773 H776 0.950 . S
C774 C773 1.387 . S
C774 C777 1.387 . S
H775 C771 0.950 . S
H776 C773 0.950 . S
C777 C768 1.390 1_556 S
C777 H770 0.950 . S
C777 C774 1.387 . S
C778 C779 1.387 . S
C778 H782 0.950 . S
C778 C787 1.390 . S
C779 C778 1.387 . S
C779 C781 1.387 . S
H780 C787 0.950 . S
C781 C779 1.387 . S
C781 C783 1.390 . S
C781 H785 0.950 . S
H782 C778 0.950 . S
C783 C781 1.390 . S
C783 C784 1.387 . S
C783 H786 0.950 . S
C784 C783 1.387 . S
C784 C787 1.387 . S
H785 C781 0.950 . S
H786 C783 0.950 . S
C787 C778 1.390 . S
C787 H780 0.950 . S
C787 C784 1.387 . S
C788 C789 1.387 . S
C788 H792 0.950 . S
C788 C797 1.390 . S
C789 C788 1.387 . S
C789 C791 1.387 . S
H790 C797 0.950 . S
C791 C789 1.387 . S
C791 C793 1.390 . S
C791 H795 0.950 . S
H792 C788 0.950 . S
C793 C791 1.390 . S
C793 C794 1.387 . S
C793 H796 0.950 . S
C794 C793 1.387 . S
C794 C797 1.387 . S
H795 C791 0.950 . S
H796 C793 0.950 . S
C797 C788 1.390 . S
C797 H790 0.950 . S
C797 C794 1.387 . S
C798 C799 1.387 . S
C798 H802 0.950 . S
C798 C807 1.390 . S
C799 C798 1.387 . S
C799 C801 1.387 1_554 S
H800 C807 0.950 . S
C801 C799 1.387 1_556 S
C801 C803 1.390 . S
C801 H805 0.950 . S
H802 C798 0.950 . S
C803 C801 1.390 . S
C803 C804 1.387 . S
C803 H806 0.950 . S
C804 C803 1.387 . S
C804 C807 1.387 1_556 S
H805 C801 0.950 . S
H806 C803 0.950 . S
C807 C798 1.390 . S
C807 H800 0.950 . S
C807 C804 1.387 1_554 S
C808 C809 1.387 . S
C808 H812 0.950 . S
C808 C817 1.390 . S
C809 C808 1.387 . S
C809 C811 1.387 . S
H810 C817 0.950 . S
C811 C809 1.387 . S
C811 C813 1.390 . S
C811 H815 0.950 . S
H812 C808 0.950 . S
C813 C811 1.390 . S
C813 C814 1.387 . S
C813 H816 0.950 . S
C814 C813 1.387 . S
C814 C817 1.387 . S
H815 C811 0.950 . S
H816 C813 0.950 . S
C817 C808 1.390 . S
C817 H810 0.950 . S
C817 C814 1.387 . S
C818 C819 1.387 . S
C818 H822 0.950 . S
C818 C827 1.390 . S
C819 C818 1.387 . S
C819 C821 1.387 . S
H820 C827 0.950 . S
C821 C819 1.387 . S
C821 C823 1.390 . S
C821 H825 0.950 . S
H822 C818 0.950 . S
C823 C821 1.390 . S
C823 C824 1.387 . S
C823 H826 0.950 . S
C824 C823 1.387 . S
C824 C827 1.387 . S
H825 C821 0.950 . S
H826 C823 0.950 . S
C827 C818 1.390 . S
C827 H820 0.950 . S
C827 C824 1.387 . S
C828 C829 1.387 . S
C828 H832 0.950 . S
C828 C837 1.390 . S
C829 C828 1.387 . S
C829 C831 1.387 1_554 S
H830 C837 0.950 . S
C831 C829 1.387 1_556 S
C831 C833 1.390 . S
C831 H835 0.950 . S
H832 C828 0.950 . S
C833 C831 1.390 . S
C833 C834 1.387 1_556 S
C833 H836 0.950 . S
C834 C833 1.387 1_554 S
C834 C837 1.387 . S
H835 C831 0.950 . S
H836 C833 0.950 . S
C837 C828 1.390 . S
C837 H830 0.950 . S
C837 C834 1.387 . S
C838 C839 1.387 . S
C838 H842 0.950 . S
C838 C847 1.390 1_655 S
C839 C838 1.387 . S
C839 C841 1.387 . S
H840 C847 0.950 . S
C841 C839 1.387 . S
C841 C843 1.390 1_655 S
C841 H845 0.950 . S
H842 C838 0.950 . S
C843 C841 1.390 1_455 S
C843 C844 1.387 . S
C843 H846 0.950 . S
C844 C843 1.387 . S
C844 C847 1.387 . S
H845 C841 0.950 . S
H846 C843 0.950 . S
C847 C838 1.390 1_455 S
C847 H840 0.950 . S
C847 C844 1.387 . S
C848 C849 1.387 . S
C848 H852 0.950 . S
C848 C857 1.390 1_545 S
C849 C848 1.387 . S
C849 C851 1.387 . S
H850 C857 0.950 . S
C851 C849 1.387 . S
C851 C853 1.390 1_545 S
C851 H855 0.950 . S
H852 C848 0.950 . S
C853 C851 1.390 1_565 S
C853 C854 1.387 . S
C853 H856 0.950 . S
C854 C853 1.387 . S
C854 C857 1.387 . S
H855 C851 0.950 . S
H856 C853 0.950 . S
C857 C848 1.390 1_565 S
C857 H850 0.950 . S
C857 C854 1.387 . S
C858 C859 1.387 . S
C858 H862 0.950 . S
C858 C867 1.390 . S
C859 C858 1.387 . S
C859 C861 1.387 . S
H860 C867 0.950 . S
C861 C859 1.387 . S
C861 C863 1.390 . S
C861 H865 0.950 . S
H862 C858 0.950 . S
C863 C861 1.390 . S
C863 C864 1.387 . S
C863 H866 0.950 . S
C864 C863 1.387 . S
C864 C867 1.387 . S
H865 C861 0.950 . S
H866 C863 0.950 . S
C867 C858 1.390 . S
C867 H860 0.950 . S
C867 C864 1.387 . S
C868 C869 1.387 1_554 S
C868 H872 0.950 . S
C868 C877 1.390 1_455 S
C869 C868 1.387 1_556 S
C869 C871 1.387 . S
H870 C877 0.950 . S
C871 C869 1.387 . S
C871 C873 1.390 1_455 S
C871 H875 0.950 . S
H872 C868 0.950 . S
C873 C871 1.390 1_655 S
C873 C874 1.387 . S
C873 H876 0.950 . S
C874 C873 1.387 . S
C874 C877 1.387 1_556 S
H875 C871 0.950 . S
H876 C873 0.950 . S
C877 C868 1.390 1_655 S
C877 H870 0.950 . S
C877 C874 1.387 1_554 S
C878 C879 1.387 . S
C878 H882 0.950 . S
C878 C887 1.390 1_565 S
C879 C878 1.387 . S
C879 C881 1.387 . S
H880 C887 0.950 . S
C881 C879 1.387 . S
C881 C883 1.390 1_565 S
C881 H885 0.950 . S
H882 C878 0.950 . S
C883 C881 1.390 1_545 S
C883 C884 1.387 . S
C883 H886 0.950 . S
C884 C883 1.387 . S
C884 C887 1.387 . S
H885 C881 0.950 . S
H886 C883 0.950 . S
C887 C878 1.390 1_545 S
C887 H880 0.950 . S
C887 C884 1.387 . S
C888 C889 1.387 . S
C888 H892 0.950 . S
C888 C897 1.390 . S
C889 C888 1.387 . S
C889 C891 1.387 . S
H890 C897 0.950 . S
C891 C889 1.387 . S
C891 C893 1.390 . S
C891 H895 0.950 . S
H892 C888 0.950 . S
C893 C891 1.390 . S
C893 C894 1.387 . S
C893 H896 0.950 . S
C894 C893 1.387 . S
C894 C897 1.387 . S
H895 C891 0.950 . S
H896 C893 0.950 . S
C897 C888 1.390 . S
C897 H890 0.950 . S
C897 C894 1.387 . S
C898 C899 1.387 . S
C898 H902 0.950 . S
C898 C907 1.390 . S
C899 C898 1.387 . S
C899 C901 1.387 . S
H900 C907 0.950 . S
C901 C899 1.387 . S
C901 C903 1.390 . S
C901 H905 0.950 . S
H902 C898 0.950 . S
C903 C901 1.390 . S
C903 C904 1.387 . S
C903 H906 0.950 . S
C904 C903 1.387 . S
C904 C907 1.387 . S
H905 C901 0.950 . S
H906 C903 0.950 . S
C907 C898 1.390 . S
C907 H900 0.950 . S
C907 C904 1.387 . S
C908 C909 1.387 . S
C908 H912 0.950 . S
C908 C917 1.390 . S
C909 C908 1.387 . S
C909 C911 1.387 . S
H910 C917 0.950 . S
C911 C909 1.387 . S
C911 C913 1.390 . S
C911 H915 0.950 . S
H912 C908 0.950 . S
C913 C911 1.390 . S
C913 C914 1.387 . S
C913 H916 0.950 . S
C914 C913 1.387 . S
C914 C917 1.387 . S
H915 C911 0.950 . S
H916 C913 0.950 . S
C917 C908 1.390 . S
C917 H910 0.950 . S
C917 C914 1.387 . S
C918 C919 1.387 . S
C918 H922 0.950 . S
C918 C927 1.390 . S
C919 C918 1.387 . S
C919 C921 1.387 . S
H920 C927 0.950 . S
C921 C919 1.387 . S
C921 C923 1.390 . S
C921 H925 0.950 . S
H922 C918 0.950 . S
C923 C921 1.390 . S
C923 C924 1.387 . S
C923 H926 0.950 . S
C924 C923 1.387 . S
C924 C927 1.387 . S
H925 C921 0.950 . S
H926 C923 0.950 . S
C927 C918 1.390 . S
C927 H920 0.950 . S
C927 C924 1.387 . S
C928 C929 1.387 . S
C928 H932 0.950 . S
C928 C937 1.390 . S
C929 C928 1.387 . S
C929 C931 1.387 . S
H930 C937 0.950 . S
C931 C929 1.387 . S
C931 C933 1.390 . S
C931 H935 0.950 . S
H932 C928 0.950 . S
C933 C931 1.390 . S
C933 C934 1.387 . S
C933 H936 0.950 . S
C934 C933 1.387 . S
C934 C937 1.387 . S
H935 C931 0.950 . S
H936 C933 0.950 . S
C937 C928 1.390 . S
C937 H930 0.950 . S
C937 C934 1.387 . S
C938 C939 1.387 . S
C938 H942 0.950 . S
C938 C947 1.390 . S
C939 C938 1.387 . S
C939 C941 1.387 . S
H940 C947 0.950 . S
C941 C939 1.387 . S
C941 C943 1.390 . S
C941 H945 0.950 . S
H942 C938 0.950 . S
C943 C941 1.390 . S
C943 C944 1.387 . S
C943 H946 0.950 . S
C944 C943 1.387 . S
C944 C947 1.387 . S
H945 C941 0.950 . S
H946 C943 0.950 . S
C947 C938 1.390 . S
C947 H940 0.950 . S
C947 C944 1.387 . S
C709 C5 1.565 . S
C714 C359 1.564 . S
C719 C64 1.566 . S
C724 C418 1.565 . S
C729 C123 1.565 . S
C734 C477 1.565 . S
C739 C182 1.565 . S
C744 C536 1.564 . S
C749 C241 1.565 . S
C754 C595 1.566 . S
C759 C654 1.565 . S
C764 C300 1.565 . S
C769 C3 1.426 . S
C774 C593 1.426 . S
C779 C62 1.426 . S
C784 C652 1.425 . S
C789 C121 1.427 . S
C794 C357 1.425 . S
C799 C180 1.426 . S
C804 C416 1.425 . S
C809 C239 1.426 . S
C814 C475 1.425 . S
C819 C298 1.427 . S
C824 C534 1.425 . S
C829 C33 1.450 . S
C834 C210 1.450 . S
C839 C92 1.455 . S
C844 C269 1.455 . S
C849 C328 1.453 . S
C854 C151 1.453 . S
C859 C387 1.456 . S
C864 C564 1.456 . S
C869 C623 1.455 . S
C874 C446 1.455 . S
C879 C505 1.457 . S
C884 C682 1.457 . S
C889 C406 1.111 . S
C894 C52 1.111 . S
C899 C111 1.108 . S
C904 C465 1.108 . S
C909 C170 1.109 . S
C914 C524 1.109 . S
C919 C583 1.111 . S
C924 C229 1.111 . S
C929 C642 1.109 . S
C934 C288 1.110 . S
C939 C347 1.111 . S
C944 C701 1.111 . S
