# Generated by pormake.
# Topology uno, (4)-cn, num edge types: 1
# Building blocks:
#     Node 0, Type 0, BuildingBlock: NAWXER_clean_sbu_0, # of connection points: 4
#     Node 1, Type 0, BuildingBlock: NAWXER_clean_sbu_0, # of connection points: 4
#     Node 2, Type 0, BuildingBlock: NAWXER_clean_sbu_0, # of connection points: 4
#     Node 3, Type 0, BuildingBlock: NAWXER_clean_sbu_0, # of connection points: 4
#     Node 4, Type 0, BuildingBlock: NAWXER_clean_sbu_0, # of connection points: 4
#     Node 5, Type 0, BuildingBlock: NAWXER_clean_sbu_0, # of connection points: 4
#     Node 6, Type 0, BuildingBlock: NAWXER_clean_sbu_0, # of connection points: 4
#     Node 7, Type 0, BuildingBlock: NAWXER_clean_sbu_0, # of connection points: 4
#     Node 8, Type 0, BuildingBlock: NAWXER_clean_sbu_0, # of connection points: 4
#     Node 9, Type 0, BuildingBlock: NAWXER_clean_sbu_0, # of connection points: 4
#     Node 10, Type 0, BuildingBlock: NAWXER_clean_sbu_0, # of connection points: 4
#     Node 11, Type 0, BuildingBlock: NAWXER_clean_sbu_0, # of connection points: 4
#     Node 12, Type 0, BuildingBlock: NAWXER_clean_sbu_0, # of connection points: 4
#     Node 13, Type 0, BuildingBlock: NAWXER_clean_sbu_0, # of connection points: 4
#     Node 14, Type 0, BuildingBlock: NAWXER_clean_sbu_0, # of connection points: 4
#     Node 15, Type 0, BuildingBlock: NAWXER_clean_sbu_0, # of connection points: 4
#     Node 16, Type 0, BuildingBlock: NAWXER_clean_sbu_0, # of connection points: 4
#     Node 17, Type 0, BuildingBlock: NAWXER_clean_sbu_0, # of connection points: 4
#     Node 18, Type 0, BuildingBlock: NAWXER_clean_sbu_0, # of connection points: 4
#     Node 19, Type 0, BuildingBlock: NAWXER_clean_sbu_0, # of connection points: 4
#     Node 20, Type 0, BuildingBlock: NAWXER_clean_sbu_0, # of connection points: 4
#     Node 21, Type 0, BuildingBlock: NAWXER_clean_sbu_0, # of connection points: 4
#     Node 22, Type 0, BuildingBlock: NAWXER_clean_sbu_0, # of connection points: 4
#     Node 23, Type 0, BuildingBlock: NAWXER_clean_sbu_0, # of connection points: 4
#     Edge 24, Type (0, 0), BuildingBlock: UVAHIK_clean_linker_0, # of connection points: 2
#     Edge 25, Type (0, 0), BuildingBlock: UVAHIK_clean_linker_0, # of connection points: 2
#     Edge 26, Type (0, 0), BuildingBlock: UVAHIK_clean_linker_0, # of connection points: 2
#     Edge 27, Type (0, 0), BuildingBlock: UVAHIK_clean_linker_0, # of connection points: 2
#     Edge 28, Type (0, 0), BuildingBlock: UVAHIK_clean_linker_0, # of connection points: 2
#     Edge 29, Type (0, 0), BuildingBlock: UVAHIK_clean_linker_0, # of connection points: 2
#     Edge 30, Type (0, 0), BuildingBlock: UVAHIK_clean_linker_0, # of connection points: 2
#     Edge 31, Type (0, 0), BuildingBlock: UVAHIK_clean_linker_0, # of connection points: 2
#     Edge 32, Type (0, 0), BuildingBlock: UVAHIK_clean_linker_0, # of connection points: 2
#     Edge 33, Type (0, 0), BuildingBlock: UVAHIK_clean_linker_0, # of connection points: 2
#     Edge 34, Type (0, 0), BuildingBlock: UVAHIK_clean_linker_0, # of connection points: 2
#     Edge 35, Type (0, 0), BuildingBlock: UVAHIK_clean_linker_0, # of connection points: 2
#     Edge 36, Type (0, 0), BuildingBlock: UVAHIK_clean_linker_0, # of connection points: 2
#     Edge 37, Type (0, 0), BuildingBlock: UVAHIK_clean_linker_0, # of connection points: 2
#     Edge 38, Type (0, 0), BuildingBlock: UVAHIK_clean_linker_0, # of connection points: 2
#     Edge 39, Type (0, 0), BuildingBlock: UVAHIK_clean_linker_0, # of connection points: 2
#     Edge 40, Type (0, 0), BuildingBlock: UVAHIK_clean_linker_0, # of connection points: 2
#     Edge 41, Type (0, 0), BuildingBlock: UVAHIK_clean_linker_0, # of connection points: 2
#     Edge 42, Type (0, 0), BuildingBlock: UVAHIK_clean_linker_0, # of connection points: 2
#     Edge 43, Type (0, 0), BuildingBlock: UVAHIK_clean_linker_0, # of connection points: 2
#     Edge 44, Type (0, 0), BuildingBlock: UVAHIK_clean_linker_0, # of connection points: 2
#     Edge 45, Type (0, 0), BuildingBlock: UVAHIK_clean_linker_0, # of connection points: 2
#     Edge 46, Type (0, 0), BuildingBlock: UVAHIK_clean_linker_0, # of connection points: 2
#     Edge 47, Type (0, 0), BuildingBlock: UVAHIK_clean_linker_0, # of connection points: 2
#     Edge 48, Type (0, 0), BuildingBlock: UVAHIK_clean_linker_0, # of connection points: 2
#     Edge 49, Type (0, 0), BuildingBlock: UVAHIK_clean_linker_0, # of connection points: 2
#     Edge 50, Type (0, 0), BuildingBlock: UVAHIK_clean_linker_0, # of connection points: 2
#     Edge 51, Type (0, 0), BuildingBlock: UVAHIK_clean_linker_0, # of connection points: 2
#     Edge 52, Type (0, 0), BuildingBlock: UVAHIK_clean_linker_0, # of connection points: 2
#     Edge 53, Type (0, 0), BuildingBlock: UVAHIK_clean_linker_0, # of connection points: 2
#     Edge 54, Type (0, 0), BuildingBlock: UVAHIK_clean_linker_0, # of connection points: 2
#     Edge 55, Type (0, 0), BuildingBlock: UVAHIK_clean_linker_0, # of connection points: 2
#     Edge 56, Type (0, 0), BuildingBlock: UVAHIK_clean_linker_0, # of connection points: 2
#     Edge 57, Type (0, 0), BuildingBlock: UVAHIK_clean_linker_0, # of connection points: 2
#     Edge 58, Type (0, 0), BuildingBlock: UVAHIK_clean_linker_0, # of connection points: 2
#     Edge 59, Type (0, 0), BuildingBlock: UVAHIK_clean_linker_0, # of connection points: 2
#     Edge 60, Type (0, 0), BuildingBlock: UVAHIK_clean_linker_0, # of connection points: 2
#     Edge 61, Type (0, 0), BuildingBlock: UVAHIK_clean_linker_0, # of connection points: 2
#     Edge 62, Type (0, 0), BuildingBlock: UVAHIK_clean_linker_0, # of connection points: 2
#     Edge 63, Type (0, 0), BuildingBlock: UVAHIK_clean_linker_0, # of connection points: 2
#     Edge 64, Type (0, 0), BuildingBlock: UVAHIK_clean_linker_0, # of connection points: 2
#     Edge 65, Type (0, 0), BuildingBlock: UVAHIK_clean_linker_0, # of connection points: 2
#     Edge 66, Type (0, 0), BuildingBlock: UVAHIK_clean_linker_0, # of connection points: 2
#     Edge 67, Type (0, 0), BuildingBlock: UVAHIK_clean_linker_0, # of connection points: 2
#     Edge 68, Type (0, 0), BuildingBlock: UVAHIK_clean_linker_0, # of connection points: 2
#     Edge 69, Type (0, 0), BuildingBlock: UVAHIK_clean_linker_0, # of connection points: 2
#     Edge 70, Type (0, 0), BuildingBlock: UVAHIK_clean_linker_0, # of connection points: 2
#     Edge 71, Type (0, 0), BuildingBlock: UVAHIK_clean_linker_0, # of connection points: 2
# Relax obj value: 0.465
# Max RMSD: 0.255
# Mean RMSD: 0.237
data_MOF--net-uno--node1-NAWXER_clean_sbu_0--edge1-UVAHIK_clean_linker_0
_symmetry_space_group_name_H-M    P1
_symmetry_Int_Tables_number       1
_symmetry_cell_setting            triclinic
loop_
_symmetry_equiv_pos_as_xyz
'x, y, z'
_cell_length_a     65.137134
_cell_length_b     65.134687
_cell_length_c     65.143353
_cell_angle_alpha  89.759032
_cell_angle_beta   89.752357
_cell_angle_gamma 89.748595
loop_
_atom_site_label
_atom_site_type_symbol
_atom_site_fract_x
_atom_site_fract_y
_atom_site_fract_z
_atom_type_partial_charge
C0 C 0.06721 0.30148 0.28121 0.0
C1 C 0.12355 0.3336 0.24506 0.0
O2 O 0.07022 0.30336 0.26206 0.0
Zn3 Zn 0.09386 0.32045 0.26326 0.0
O4 O 0.07814 0.31204 0.29369 0.0
Zn5 Zn 0.10379 0.33345 0.29059 0.0
O6 O 0.09406 0.36054 0.29807 0.0
O7 O 0.08225 0.35079 0.26811 0.0
O8 O 0.12371 0.33864 0.26412 0.0
O9 O 0.1087 0.32319 0.23818 0.0
O10 O 0.11492 0.30201 0.2818 0.0
O11 O 0.12303 0.32059 0.30892 0.0
C12 C 0.0837 0.36447 0.2821 0.0
C13 C 0.12467 0.30401 0.29879 0.0
C14 C 0.96503 0.82324 0.55749 0.0
C15 C 0.95733 0.87341 0.50271 0.0
O16 O 0.9636 0.81488 0.53977 0.0
Zn17 Zn 0.95879 0.82446 0.50851 0.0
O18 O 0.9609 0.84224 0.55953 0.0
Zn19 Zn 0.95667 0.84819 0.53079 0.0
O20 O 0.92757 0.83505 0.52339 0.0
O21 O 0.93368 0.81162 0.49983 0.0
O22 O 0.95554 0.87654 0.52188 0.0
O23 O 0.95808 0.85495 0.49599 0.0
O24 O 0.98517 0.81511 0.49738 0.0
O25 O 0.98691 0.84011 0.52029 0.0
C26 C 0.92098 0.8212 0.51115 0.0
C27 C 0.99572 0.82749 0.50808 0.0
C28 C 0.42066 0.71497 0.79421 0.0
C29 C 0.37388 0.67234 0.7568 0.0
O30 O 0.41855 0.71196 0.77519 0.0
Zn31 Zn 0.39855 0.69097 0.77639 0.0
O32 O 0.4112 0.70321 0.80699 0.0
Zn33 Zn 0.39065 0.67683 0.80343 0.0
O34 O 0.40511 0.65258 0.81232 0.0
O35 O 0.41515 0.66285 0.78179 0.0
O36 O 0.37332 0.66729 0.77593 0.0
O37 O 0.38672 0.68562 0.75069 0.0
O38 O 0.37228 0.70432 0.79344 0.0
O39 O 0.36861 0.68459 0.82089 0.0
C40 C 0.41594 0.64967 0.79642 0.0
C41 C 0.36269 0.69982 0.81021 0.0
C42 C 0.595 0.20061 0.97899 0.0
C43 C 0.52086 0.19017 0.97242 0.0
O44 O 0.5883 0.18612 0.99054 0.0
Zn45 Zn 0.55948 0.17263 0.99788 0.0
O46 O 0.58245 0.21078 0.96802 0.0
Zn47 Zn 0.55732 0.19656 0.97524 0.0
O48 O 0.5502 0.20596 0.00585 0.0
O49 O 0.55361 0.17915 0.02637 0.0
O50 O 0.53089 0.2037 0.96239 0.0
O51 O 0.52991 0.1785 0.98537 0.0
O52 O 0.56204 0.14431 0.98945 0.0
O53 O 0.56061 0.16595 0.96326 0.0
C54 C 0.54865 0.19789 0.02375 0.0
C55 C 0.56146 0.14748 0.97016 0.0
C56 C 0.02191 0.02552 0.36265 0.0
C57 C 0.01727 0.09603 0.33681 0.0
O58 O 0.00447 0.03413 0.36559 0.0
Zn59 Zn 0.98924 0.06265 0.35989 0.0
O60 O 0.03614 0.035 0.35312 0.0
Zn61 Zn 0.02 0.05993 0.34813 0.0
O62 O 0.01735 0.06989 0.37913 0.0
O63 O 0.98467 0.07039 0.38846 0.0
O64 O 0.03191 0.08332 0.33427 0.0
O65 O 0.00081 0.09014 0.34594 0.0
O66 O 0.96665 0.05369 0.34278 0.0
O67 O 0.99682 0.04883 0.32806 0.0
C68 C 0.00354 0.07276 0.39287 0.0
C69 C 0.97724 0.04698 0.32777 0.0
C70 C 0.21072 0.71514 0.55966 0.0
C71 C 0.20514 0.75441 0.62173 0.0
O72 O 0.21377 0.73403 0.56278 0.0
Zn73 Zn 0.20386 0.73553 0.59032 0.0
O74 O 0.20098 0.70465 0.57327 0.0
Zn75 Zn 0.18741 0.71184 0.60302 0.0
O76 O 0.158 0.71171 0.60035 0.0
O77 O 0.1712 0.74047 0.58876 0.0
O78 O 0.195 0.73757 0.6237 0.0
O79 O 0.2125 0.75929 0.60432 0.0
O80 O 0.22142 0.71186 0.60745 0.0
O81 O 0.19825 0.68983 0.61893 0.0
C82 C 0.15542 0.7296 0.59316 0.0
C83 C 0.21685 0.69553 0.6177 0.0
C84 C 0.48055 0.92424 0.8241 0.0
C85 C 0.48412 0.99815 0.83748 0.0
O86 O 0.49617 0.92934 0.83484 0.0
Zn87 Zn 0.50994 0.95682 0.84601 0.0
O88 O 0.46882 0.93817 0.81697 0.0
Zn89 Zn 0.48219 0.96187 0.82867 0.0
O90 O 0.50978 0.96594 0.8116 0.0
O91 O 0.53615 0.95972 0.83185 0.0
O92 O 0.47016 0.98957 0.82692 0.0
O93 O 0.49902 0.98757 0.84466 0.0
O94 O 0.50835 0.95388 0.8758 0.0
O95 O 0.47815 0.95739 0.86077 0.0
C96 C 0.52922 0.96513 0.81441 0.0
C97 C 0.48886 0.95518 0.87704 0.0
C98 C 0.35848 0.28069 0.08507 0.0
C99 C 0.29756 0.30562 0.12102 0.0
O100 O 0.35456 0.29868 0.09137 0.0
Zn101 Zn 0.32688 0.29392 0.10158 0.0
O102 O 0.34431 0.26714 0.08566 0.0
Zn103 Zn 0.31315 0.26565 0.09572 0.0
O104 O 0.29652 0.26186 0.07194 0.0
O105 O 0.30604 0.29401 0.07554 0.0
O106 O 0.2952 0.28749 0.11371 0.0
O107 O 0.31433 0.31515 0.118 0.0
O108 O 0.33061 0.27043 0.12533 0.0
O109 O 0.31451 0.2429 0.1141 0.0
C110 C 0.29522 0.28047 0.06631 0.0
C111 C 0.32496 0.2517 0.12789 0.0
C112 C 0.29803 0.12975 0.30394 0.0
C113 C 0.28 0.08569 0.36162 0.0
O114 O 0.30853 0.12617 0.31999 0.0
Zn115 Zn 0.28993 0.10628 0.33127 0.0
O116 O 0.28109 0.12015 0.30101 0.0
Zn117 Zn 0.26287 0.09703 0.31724 0.0
O118 O 0.23755 0.11139 0.31971 0.0
O119 O 0.26302 0.12598 0.33645 0.0
O120 O 0.26634 0.08498 0.34757 0.0
O121 O 0.29654 0.09531 0.35814 0.0
O122 O 0.29398 0.08225 0.3086 0.0
O123 O 0.26278 0.0741 0.29889 0.0
C124 C 0.24412 0.12594 0.33078 0.0
C125 C 0.28201 0.07161 0.29726 0.0
C126 C 0.15532 0.94996 0.56465 0.0
C127 C 0.20094 0.00526 0.54764 0.0
O128 O 0.17252 0.95005 0.55551 0.0
Zn129 Zn 0.17867 0.97793 0.5598 0.0
O130 O 0.14886 0.96649 0.57341 0.0
Zn131 Zn 0.16117 0.99803 0.57622 0.0
O132 O 0.1385 0.0133 0.5667 0.0
O133 O 0.15312 0.99376 0.54311 0.0
O134 O 0.18605 0.0124 0.55853 0.0
O135 O 0.20288 0.98604 0.54577 0.0
O136 O 0.18646 0.97843 0.59213 0.0
O137 O 0.16656 0.00257 0.60466 0.0
C138 C 0.13912 0.00683 0.54837 0.0
C139 C 0.18032 0.98914 0.60747 0.0
C140 C 0.26625 0.87257 0.79631 0.0
C141 C 0.28156 0.91439 0.85629 0.0
O142 O 0.25042 0.87745 0.80698 0.0
Zn143 Zn 0.24247 0.89561 0.83322 0.0
O144 O 0.28373 0.87997 0.80075 0.0
Zn145 Zn 0.27415 0.89546 0.82455 0.0
O146 O 0.26404 0.87059 0.84382 0.0
O147 O 0.23066 0.87373 0.84974 0.0
O148 O 0.29367 0.90934 0.84182 0.0
O149 O 0.26234 0.91049 0.8547 0.0
O150 O 0.22471 0.91637 0.82113 0.0
O151 O 0.25643 0.91852 0.80952 0.0
C152 C 0.24743 0.86387 0.85202 0.0
C153 C 0.23772 0.92463 0.80912 0.0
C154 C 0.39424 0.05087 0.06055 0.0
C155 C 0.35571 0.98883 0.046 0.0
O156 O 0.37502 0.05424 0.058 0.0
Zn157 Zn 0.34763 0.03698 0.05316 0.0
O158 O 0.40079 0.03251 0.06226 0.0
Zn159 Zn 0.37484 0.01883 0.0579 0.0
O160 O 0.36938 0.02948 0.02751 0.0
O161 O 0.34052 0.04757 0.02569 0.0
O162 O 0.37419 0.9896 0.05222 0.0
O163 O 0.34445 0.005 0.04669 0.0
O164 O 0.33049 0.04238 0.07688 0.0
O165 O 0.35734 0.02345 0.08523 0.0
C166 C 0.35641 0.03991 0.01709 0.0
C167 C 0.34076 0.0328 0.09045 0.0
C168 C 0.80183 0.24971 0.93543 0.0
C169 C 0.83101 0.27647 0.87287 0.0
O170 O 0.80253 0.26796 0.92871 0.0
Zn171 Zn 0.81961 0.26336 0.90541 0.0
O172 O 0.81354 0.23605 0.92724 0.0
Zn173 Zn 0.83549 0.23604 0.90169 0.0
O174 O 0.86303 0.23365 0.91265 0.0
O175 O 0.85071 0.26494 0.91548 0.0
O176 O 0.83832 0.25844 0.87648 0.0
O177 O 0.8192 0.28487 0.88593 0.0
O178 O 0.80389 0.23911 0.88858 0.0
O179 O 0.82563 0.21297 0.88646 0.0
C180 C 0.86572 0.25233 0.91726 0.0
C181 C 0.80817 0.22082 0.88253 0.0
C182 C 0.96676 0.5194 0.16305 0.0
C183 C 0.96974 0.59318 0.17669 0.0
O184 O 0.98371 0.52802 0.15827 0.0
Zn185 Zn 0.99802 0.55734 0.15836 0.0
O186 O 0.95235 0.52972 0.17146 0.0
Zn187 Zn 0.96791 0.5555 0.17178 0.0
O188 O 0.96878 0.55958 0.13927 0.0
O189 O 0.00103 0.55956 0.1286 0.0
O190 O 0.95575 0.58065 0.18192 0.0
O191 O 0.98604 0.58637 0.16791 0.0
O192 O 0.02161 0.55154 0.17546 0.0
O193 O 0.9924 0.54761 0.19222 0.0
C194 C 0.98191 0.55989 0.12459 0.0
C195 C 0.01205 0.5463 0.1917 0.0
C196 C 0.71872 0.76179 0.4676 0.0
C197 C 0.70352 0.72173 0.40769 0.0
O198 O 0.71981 0.74251 0.46528 0.0
Zn199 Zn 0.70655 0.74081 0.43904 0.0
O200 O 0.70801 0.77242 0.4549 0.0
Zn201 Zn 0.69098 0.76584 0.42723 0.0
O202 O 0.66203 0.76847 0.43256 0.0
O203 O 0.67393 0.73914 0.44424 0.0
O204 O 0.69487 0.7395 0.40652 0.0
O205 O 0.71163 0.71601 0.42447 0.0
O206 O 0.72426 0.76244 0.41961 0.0
O207 O 0.70232 0.78673 0.41011 0.0
C208 C 0.6587 0.75117 0.44077 0.0
C209 C 0.72035 0.77917 0.40973 0.0
C210 C 0.87416 0.83381 0.2675 0.0
C211 C 0.92389 0.80159 0.22319 0.0
O212 O 0.88927 0.82233 0.27195 0.0
Zn213 Zn 0.90058 0.82096 0.24516 0.0
O214 O 0.8719 0.84037 0.249 0.0
Zn215 Zn 0.88914 0.83683 0.22017 0.0
O216 O 0.86748 0.82786 0.2029 0.0
O217 O 0.87563 0.80615 0.22782 0.0
O218 O 0.91238 0.81369 0.21261 0.0
O219 O 0.92308 0.80237 0.24259 0.0
O220 O 0.91311 0.85109 0.24219 0.0
O221 O 0.89981 0.86384 0.21397 0.0
C222 C 0.86462 0.81084 0.21208 0.0
C223 C 0.91125 0.86601 0.22947 0.0
C224 C 0.64022 0.17624 0.76089 0.0
C225 C 0.58093 0.20448 0.72655 0.0
O226 O 0.62473 0.18561 0.76816 0.0
Zn227 Zn 0.60962 0.18789 0.7434 0.0
O228 O 0.64068 0.17165 0.74173 0.0
Zn229 Zn 0.62028 0.17601 0.71568 0.0
O230 O 0.63815 0.19075 0.69728 0.0
O231 O 0.62881 0.20821 0.72484 0.0
O232 O 0.59258 0.1951 0.7136 0.0
O233 O 0.58467 0.20289 0.74557 0.0
O234 O 0.60026 0.15702 0.73807 0.0
O235 O 0.61287 0.1483 0.70796 0.0
C236 C 0.63855 0.20723 0.70766 0.0
C237 C 0.60275 0.14361 0.72396 0.0
C238 C 0.47171 0.46626 0.6616 0.0
C239 C 0.49867 0.40392 0.69193 0.0
O240 O 0.46331 0.44877 0.66344 0.0
Zn241 Zn 0.48488 0.43673 0.67884 0.0
O242 O 0.48921 0.46961 0.6701 0.0
Zn243 Zn 0.51112 0.45103 0.6885 0.0
O244 O 0.53522 0.4544 0.6726 0.0
O245 O 0.51005 0.43917 0.656 0.0
O246 O 0.51155 0.41852 0.69435 0.0
O247 O 0.48122 0.40802 0.68451 0.0
O248 O 0.4811 0.45372 0.70726 0.0
O249 O 0.51218 0.4643 0.71453 0.0
C250 C 0.52827 0.44679 0.65616 0.0
C251 C 0.49329 0.46362 0.71903 0.0
C252 C 0.05035 0.34775 0.96856 0.0
C253 C 0.06365 0.40125 0.01878 0.0
O254 O 0.05025 0.34128 0.98715 0.0
Zn255 Zn 0.05613 0.35261 0.01711 0.0
O256 O 0.05622 0.36595 0.96457 0.0
Zn257 Zn 0.0611 0.37453 0.99267 0.0
O258 O 0.08843 0.35926 0.00255 0.0
O259 O 0.07961 0.33704 0.02666 0.0
O260 O 0.06499 0.40332 0.99937 0.0
O261 O 0.06155 0.38334 0.02667 0.0
O262 O 0.02868 0.34968 0.02967 0.0
O263 O 0.03072 0.37231 0.00427 0.0
C264 C 0.09341 0.34522 0.01549 0.0
C265 C 0.02023 0.36301 0.01801 0.0
C266 C 0.39601 0.64972 0.47167 0.0
C267 C 0.45224 0.60358 0.45508 0.0
O268 O 0.39967 0.64001 0.45524 0.0
Zn269 Zn 0.42621 0.62869 0.46261 0.0
O270 O 0.40986 0.65029 0.48554 0.0
Zn271 Zn 0.44004 0.63776 0.48938 0.0
O272 O 0.45824 0.66035 0.48998 0.0
O273 O 0.4494 0.65264 0.45843 0.0
O274 O 0.45589 0.61344 0.47177 0.0
O275 O 0.43636 0.608 0.44467 0.0
O276 O 0.42009 0.60962 0.49015 0.0
O277 O 0.4368 0.62504 0.51518 0.0
C278 C 0.46021 0.66332 0.4709 0.0
C279 C 0.42535 0.6106 0.50915 0.0
C280 C 0.61754 0.48576 0.41639 0.0
C281 C 0.68536 0.48468 0.44837 0.0
O282 O 0.62343 0.50304 0.42347 0.0
Zn283 Zn 0.64892 0.51649 0.43838 0.0
O284 O 0.6293 0.47012 0.41737 0.0
Zn285 Zn 0.65226 0.48462 0.43008 0.0
O286 O 0.63884 0.49054 0.45945 0.0
O287 O 0.63595 0.52395 0.46445 0.0
O288 O 0.67731 0.47028 0.43803 0.0
O289 O 0.67644 0.50224 0.44903 0.0
O290 O 0.65704 0.53727 0.41856 0.0
O291 O 0.6611 0.50588 0.40657 0.0
C292 C 0.63332 0.50561 0.4708 0.0
C293 C 0.66193 0.52538 0.40388 0.0
C294 C 0.80297 0.39026 0.69318 0.0
C295 C 0.78344 0.43104 0.63371 0.0
O296 O 0.81238 0.39201 0.67612 0.0
Zn297 Zn 0.79339 0.4114 0.66468 0.0
O298 O 0.78607 0.40011 0.69622 0.0
Zn299 Zn 0.76661 0.42154 0.67873 0.0
O300 O 0.74152 0.40659 0.67775 0.0
O301 O 0.76698 0.39118 0.66148 0.0
O302 O 0.76986 0.43278 0.64789 0.0
O303 O 0.79964 0.42086 0.63728 0.0
O304 O 0.79748 0.43658 0.6865 0.0
O305 O 0.76615 0.44514 0.69607 0.0
C306 C 0.74821 0.39134 0.66763 0.0
C307 C 0.78538 0.44755 0.69767 0.0
C308 C 0.88388 0.49987 0.93679 0.0
C309 C 0.81791 0.52776 0.95878 0.0
O310 O 0.86952 0.48655 0.93757 0.0
Zn311 Zn 0.83766 0.48478 0.94474 0.0
O312 O 0.87956 0.51888 0.93859 0.0
Zn313 Zn 0.85022 0.51514 0.94331 0.0
O314 O 0.8537 0.49895 0.97165 0.0
O315 O 0.84114 0.4675 0.96939 0.0
O316 O 0.83322 0.53796 0.95222 0.0
O317 O 0.81766 0.50823 0.95636 0.0
O318 O 0.82544 0.4741 0.91993 0.0
O319 O 0.83843 0.50483 0.91455 0.0
C320 C 0.8503 0.48134 0.97964 0.0
C321 C 0.82939 0.48882 0.90769 0.0
C322 C 0.74246 0.62513 0.21645 0.0
C323 C 0.73659 0.5916 0.14981 0.0
O324 O 0.72622 0.62996 0.20649 0.0
Zn325 Zn 0.71081 0.62232 0.17857 0.0
O326 O 0.75482 0.61174 0.20925 0.0
Zn327 Zn 0.7392 0.60687 0.18423 0.0
O328 O 0.74133 0.6366 0.16979 0.0
O329 O 0.71002 0.64953 0.16654 0.0
O330 O 0.74979 0.58838 0.16376 0.0
O331 O 0.72135 0.60364 0.15344 0.0
O332 O 0.68572 0.61036 0.18965 0.0
O333 O 0.71323 0.59223 0.19749 0.0
C334 C 0.72935 0.65128 0.16427 0.0
C335 C 0.69388 0.5953 0.19909 0.0
C336 C 0.26033 0.30858 0.12924 0.0
C337 C 0.28053 0.31519 0.1326 0.0
C338 C 0.2441 0.31674 0.14062 0.0
C339 C 0.23192 0.33707 0.19044 0.0
H340 H 0.18 0.35137 0.16507 0.0
C341 C 0.1585 0.34875 0.23907 0.0
C342 C 0.14114 0.33857 0.23148 0.0
C343 C 0.17589 0.35146 0.22665 0.0
C344 C 0.19437 0.3474 0.17242 0.0
H345 H 0.29959 0.33574 0.15027 0.0
H346 H 0.27102 0.34966 0.17076 0.0
H347 H 0.21028 0.34567 0.14362 0.0
H348 H 0.12814 0.32401 0.20463 0.0
H349 H 0.15835 0.32831 0.18327 0.0
H350 H 0.21584 0.33749 0.21913 0.0
C351 C 0.26787 0.33831 0.15909 0.0
C352 C 0.2117 0.34425 0.16013 0.0
C353 C 0.28415 0.3304 0.14737 0.0
C354 C 0.14123 0.33191 0.211 0.0
C355 C 0.15856 0.33455 0.19865 0.0
C356 C 0.21451 0.34 0.20274 0.0
C357 C 0.24771 0.33147 0.15583 0.0
C358 C 0.23047 0.33844 0.16898 0.0
C359 C 0.17626 0.34403 0.2064 0.0
C360 C 0.19537 0.34453 0.19381 0.0
H361 H 0.25706 0.29698 0.11786 0.0
H362 H 0.22875 0.31102 0.13796 0.0
H363 H 0.24619 0.33247 0.19763 0.0
H364 H 0.15889 0.35416 0.25477 0.0
H365 H 0.18916 0.35906 0.23302 0.0
C366 C 0.96001 0.88765 0.46716 0.0
C367 C 0.96213 0.89044 0.48841 0.0
C368 C 0.96825 0.90186 0.4533 0.0
C369 C 0.99103 0.95423 0.4493 0.0
H370 H 0.01469 0.93194 0.39931 0.0
C371 C 0.03422 0.00604 0.39268 0.0
C372 C 0.02534 0.00586 0.3731 0.0
C373 C 0.03017 0.99017 0.40664 0.0
C374 C 0.00822 0.93834 0.41325 0.0
H375 H 0.97394 0.91069 0.51183 0.0
H376 H 0.98874 0.93525 0.48773 0.0
H377 H 0.99858 0.90894 0.42419 0.0
H378 H 0.00632 0.98869 0.35224 0.0
H379 H 0.99998 0.96045 0.37625 0.0
H380 H 0.00093 0.98361 0.43833 0.0
C381 C 0.98037 0.92232 0.48166 0.0
C382 C 0.99876 0.92522 0.42743 0.0
C383 C 0.97183 0.90824 0.49553 0.0
C384 C 0.01383 0.98879 0.36705 0.0
C385 C 0.01007 0.97276 0.38087 0.0
C386 C 0.00075 0.96728 0.43524 0.0
C387 C 0.97915 0.91904 0.46034 0.0
C388 C 0.98974 0.93302 0.44552 0.0
C389 C 0.01733 0.97382 0.40112 0.0
C390 C 0.00922 0.95951 0.41696 0.0
H391 H 0.95253 0.87411 0.4612 0.0
H392 H 0.96641 0.8991 0.43704 0.0
H393 H 0.98407 0.96089 0.46285 0.0
H394 H 0.04259 0.01938 0.39788 0.0
H395 H 0.03604 0.99131 0.42213 0.0
C396 C 0.2273 0.67011 0.64466 0.0
C397 C 0.23285 0.68436 0.62935 0.0
C398 C 0.24218 0.66144 0.65745 0.0
C399 C 0.29779 0.65276 0.66382 0.0
H400 H 0.28711 0.66299 0.7215 0.0
C401 C 0.36155 0.66834 0.72093 0.0
C402 C 0.35888 0.66421 0.74196 0.0
C403 C 0.34614 0.66381 0.70695 0.0
C404 C 0.29023 0.65942 0.70557 0.0
H405 H 0.2585 0.69974 0.61466 0.0
H406 H 0.28452 0.68443 0.63689 0.0
H407 H 0.25979 0.66795 0.69662 0.0
H408 H 0.33851 0.65066 0.76461 0.0
H409 H 0.3115 0.64243 0.73999 0.0
H410 H 0.32837 0.64468 0.67266 0.0
C411 C 0.26863 0.68002 0.639 0.0
C412 C 0.27455 0.66237 0.69128 0.0
C413 C 0.25372 0.68889 0.62637 0.0
C414 C 0.34097 0.65413 0.74852 0.0
C415 C 0.32545 0.64955 0.73443 0.0
C416 C 0.31341 0.64956 0.67813 0.0
C417 C 0.26295 0.66662 0.65499 0.0
C418 C 0.27841 0.65981 0.67021 0.0
C419 C 0.32763 0.65492 0.71356 0.0
C420 C 0.31006 0.6537 0.69909 0.0
H421 H 0.21135 0.66625 0.64733 0.0
H422 H 0.23742 0.65106 0.66959 0.0
H423 H 0.30105 0.65038 0.64769 0.0
H424 H 0.37524 0.67594 0.71532 0.0
H425 H 0.34834 0.66844 0.69111 0.0
C426 C 0.56075 0.13325 0.93464 0.0
C427 C 0.55719 0.13053 0.95578 0.0
C428 C 0.55222 0.11978 0.92039 0.0
C429 C 0.53864 0.0827 0.8947 0.0
H430 H 0.48022 0.0737 0.9019 0.0
C431 C 0.49569 0.03414 0.83622 0.0
C432 C 0.48258 0.01934 0.84474 0.0
C433 C 0.50216 0.05082 0.84799 0.0
C434 C 0.49654 0.07588 0.8997 0.0
H435 H 0.54263 0.11105 0.97859 0.0
H436 H 0.52762 0.08759 0.95363 0.0
H437 H 0.49891 0.09411 0.92692 0.0
H438 H 0.46509 0.01077 0.87169 0.0
H439 H 0.47638 0.0395 0.89232 0.0
H440 H 0.53667 0.0639 0.86803 0.0
C441 C 0.53703 0.10015 0.94814 0.0
C442 C 0.50725 0.08756 0.91408 0.0
C443 C 0.54587 0.11341 0.96243 0.0
C444 C 0.47465 0.0224 0.86455 0.0
C445 C 0.48135 0.03884 0.87645 0.0
C446 C 0.52802 0.07077 0.88048 0.0
C447 C 0.53966 0.10355 0.92697 0.0
C448 C 0.52843 0.09097 0.91179 0.0
C449 C 0.49606 0.05267 0.8687 0.0
C450 C 0.50682 0.06708 0.88281 0.0
H451 H 0.56931 0.14638 0.92906 0.0
H452 H 0.55451 0.12276 0.90416 0.0
H453 H 0.55497 0.08503 0.8926 0.0
H454 H 0.50242 0.03178 0.82117 0.0
H455 H 0.51303 0.06145 0.84127 0.0
C456 C 0.21046 0.14417 0.32765 0.0
C457 C 0.23059 0.14369 0.33528 0.0
C458 C 0.19852 0.16191 0.32925 0.0
C459 C 0.20444 0.21782 0.33327 0.0
H460 H 0.14498 0.21608 0.33591 0.0
C461 C 0.15184 0.28951 0.32202 0.0
C462 C 0.13687 0.28661 0.30684 0.0
C463 C 0.16317 0.27279 0.32953 0.0
C464 C 0.16159 0.21679 0.33526 0.0
H465 H 0.25356 0.16111 0.3517 0.0
H466 H 0.2325 0.19206 0.35483 0.0
H467 H 0.16483 0.18511 0.34335 0.0
H468 H 0.12173 0.26394 0.28792 0.0
H469 H 0.14126 0.23487 0.3012 0.0
H470 H 0.20102 0.24952 0.32489 0.0
C471 C 0.22612 0.1788 0.34723 0.0
C472 C 0.17296 0.19907 0.33944 0.0
C473 C 0.23813 0.16102 0.34555 0.0
C474 C 0.13326 0.2667 0.29952 0.0
C475 C 0.14429 0.25002 0.30725 0.0
C476 C 0.19303 0.23562 0.32931 0.0
C477 C 0.20635 0.17962 0.33864 0.0
C478 C 0.1945 0.19918 0.33779 0.0
C479 C 0.15938 0.25289 0.32227 0.0
C480 C 0.1715 0.23507 0.32962 0.0
H481 H 0.20415 0.1311 0.31965 0.0
H482 H 0.1835 0.16201 0.32219 0.0
H483 H 0.22097 0.21844 0.33165 0.0
H484 H 0.15493 0.3047 0.32794 0.0
H485 H 0.17475 0.27537 0.34112 0.0
C486 C 0.02775 0.81916 0.52593 0.0
C487 C 0.01816 0.82718 0.50836 0.0
C488 C 0.04689 0.82649 0.532 0.0
C489 C 0.07209 0.86078 0.55021 0.0
H490 H 0.1167 0.88 0.51572 0.0
C491 C 0.12131 0.93214 0.56829 0.0
C492 C 0.14225 0.93149 0.56305 0.0
C493 C 0.10848 0.91564 0.56352 0.0
C494 C 0.10451 0.87452 0.52565 0.0
H495 H 0.02142 0.84786 0.48256 0.0
H496 H 0.05512 0.86039 0.49278 0.0
H497 H 0.09185 0.85578 0.50192 0.0
H498 H 0.16638 0.91241 0.54997 0.0
H499 H 0.14405 0.8838 0.54177 0.0
H500 H 0.08436 0.88003 0.57373 0.0
C501 C 0.04805 0.84833 0.50181 0.0
C502 C 0.09023 0.86074 0.51769 0.0
C503 C 0.02884 0.84103 0.49581 0.0
C504 C 0.15027 0.91354 0.55404 0.0
C505 C 0.13748 0.89715 0.54923 0.0
C506 C 0.08627 0.87468 0.55811 0.0
C507 C 0.05667 0.84203 0.52061 0.0
C508 C 0.07366 0.854 0.52977 0.0
C509 C 0.11636 0.89823 0.55339 0.0
C510 C 0.10242 0.88199 0.5458 0.0
H511 H 0.0195 0.80885 0.53611 0.0
H512 H 0.05327 0.82116 0.54641 0.0
H513 H 0.05932 0.85613 0.55984 0.0
H514 H 0.11465 0.94574 0.57519 0.0
H515 H 0.09222 0.91696 0.56683 0.0
C516 C 0.26548 0.83632 0.87081 0.0
C517 C 0.24791 0.84284 0.86022 0.0
C518 C 0.27107 0.81564 0.871 0.0
C519 C 0.28182 0.77066 0.86794 0.0
H520 H 0.28098 0.75584 0.81035 0.0
C521 C 0.33433 0.70689 0.83532 0.0
C522 C 0.34492 0.71224 0.81721 0.0
C523 C 0.31793 0.71887 0.84238 0.0
C524 C 0.2813 0.75969 0.8265 0.0
H525 H 0.22101 0.83281 0.84374 0.0
H526 H 0.23066 0.79647 0.84417 0.0
H527 H 0.25857 0.78309 0.82271 0.0
H528 H 0.3463 0.73415 0.79211 0.0
H529 H 0.31792 0.75525 0.80458 0.0
H530 H 0.30566 0.74824 0.87137 0.0
C531 C 0.24024 0.80736 0.85216 0.0
C532 C 0.26817 0.77509 0.8337 0.0
C533 C 0.23455 0.82811 0.85216 0.0
C534 C 0.33848 0.72961 0.8061 0.0
C535 C 0.32208 0.74159 0.81317 0.0
C536 C 0.29497 0.75526 0.86073 0.0
C537 C 0.25925 0.80115 0.86038 0.0
C538 C 0.26888 0.78134 0.85434 0.0
C539 C 0.31173 0.73646 0.83149 0.0
C540 C 0.29542 0.75019 0.83976 0.0
H541 H 0.27605 0.84746 0.87706 0.0
H542 H 0.28581 0.81149 0.87746 0.0
H543 H 0.2826 0.775 0.88395 0.0
H544 H 0.33879 0.69351 0.8442 0.0
H545 H 0.31017 0.71439 0.85643 0.0
C546 C 0.42544 0.06437 0.04315 0.0
C547 C 0.40841 0.0679 0.05598 0.0
C548 C 0.43497 0.08076 0.03303 0.0
C549 C 0.44446 0.13541 0.03213 0.0
H550 H 0.44302 0.13036 0.97283 0.0
C551 C 0.48554 0.19532 0.98429 0.0
C552 C 0.4989 0.1865 0.96984 0.0
C553 C 0.4689 0.18408 0.99197 0.0
C554 C 0.44369 0.13204 0.98933 0.0
H555 H 0.38904 0.09135 0.06959 0.0
H556 H 0.40651 0.12013 0.05274 0.0
H557 H 0.4286 0.10323 0.99435 0.0
H558 H 0.50389 0.16046 0.95 0.0
H559 H 0.47531 0.14085 0.96319 0.0
H560 H 0.46066 0.16342 0.02746 0.0
C561 C 0.41213 0.10466 0.0502 0.0
C562 C 0.43543 0.11647 0.00164 0.0
C563 C 0.40228 0.08824 0.05994 0.0
C564 C 0.49356 0.16775 0.96088 0.0
C565 C 0.47719 0.15636 0.96874 0.0
C566 C 0.45314 0.15079 0.01986 0.0
C567 C 0.42794 0.10096 0.03598 0.0
C568 C 0.43606 0.11787 0.02312 0.0
C569 C 0.46563 0.16374 0.9855 0.0
C570 C 0.45323 0.14917 0.99825 0.0
H571 H 0.43027 0.04886 0.03952 0.0
H572 H 0.44728 0.0776 0.02226 0.0
H573 H 0.44504 0.13683 0.04868 0.0
H574 H 0.48951 0.20965 0.99165 0.0
H575 H 0.45986 0.19063 0.00432 0.0
C576 C 0.00362 0.05987 0.42879 0.0
C577 C 0.01067 0.07416 0.41421 0.0
C578 C 0.01567 0.05499 0.44591 0.0
C579 C 0.04364 0.04956 0.48341 0.0
H580 H 0.10062 0.04358 0.46669 0.0
C581 C 0.10817 0.0281 0.54018 0.0
C582 C 0.12363 0.01446 0.53354 0.0
C583 C 0.09351 0.03566 0.52651 0.0
C584 C 0.08476 0.04499 0.47157 0.0
H585 H 0.03444 0.09621 0.40714 0.0
H586 H 0.05493 0.0885 0.43745 0.0
H587 H 0.07583 0.05811 0.44286 0.0
H588 H 0.13564 0.99794 0.50726 0.0
H589 H 0.1099 0.01114 0.48327 0.0
H590 H 0.0526 0.0359 0.51199 0.0
C591 C 0.04055 0.0805 0.43539 0.0
C592 C 0.07057 0.05365 0.45802 0.0
C593 C 0.02866 0.08518 0.41822 0.0
C594 C 0.12399 0.00846 0.51286 0.0
C595 C 0.10929 0.0161 0.49911 0.0
C596 C 0.05788 0.04091 0.49701 0.0
C597 C 0.03482 0.06449 0.44874 0.0
C598 C 0.04985 0.05612 0.46377 0.0
C599 C 0.09391 0.02982 0.5058 0.0
C600 C 0.07861 0.03852 0.49123 0.0
H601 H 0.99 0.05088 0.42583 0.0
H602 H 0.0108 0.04258 0.45589 0.0
H603 H 0.02781 0.05119 0.48829 0.0
H604 H 0.10738 0.0331 0.556 0.0
H605 H 0.0821 0.04642 0.53212 0.0
C606 C 0.20273 0.76198 0.65947 0.0
C607 C 0.2101 0.76712 0.63981 0.0
C608 C 0.2092 0.77295 0.67668 0.0
C609 C 0.25199 0.80438 0.69497 0.0
H610 H 0.21324 0.82322 0.73611 0.0
C611 C 0.27391 0.8603 0.76058 0.0
C612 C 0.26347 0.85802 0.77932 0.0
C613 C 0.26852 0.84817 0.74371 0.0
C614 C 0.22436 0.81777 0.72497 0.0
H615 H 0.22968 0.78816 0.6228 0.0
H616 H 0.2409 0.80714 0.65276 0.0
H617 H 0.2009 0.80425 0.70656 0.0
H618 H 0.24051 0.84037 0.79576 0.0
H619 H 0.23177 0.81875 0.76684 0.0
H620 H 0.27551 0.81768 0.71347 0.0
C621 C 0.23028 0.79454 0.65488 0.0
C622 C 0.21722 0.80697 0.708 0.0
C623 C 0.22368 0.78375 0.6377 0.0
C624 C 0.24855 0.84265 0.78134 0.0
C625 C 0.24343 0.83038 0.7647 0.0
C626 C 0.25918 0.81503 0.71207 0.0
C627 C 0.22331 0.78912 0.67456 0.0
C628 C 0.23095 0.80023 0.69279 0.0
C629 C 0.25282 0.83341 0.74548 0.0
C630 C 0.24544 0.82187 0.72729 0.0
H631 H 0.19231 0.74922 0.66162 0.0
H632 H 0.20363 0.76842 0.69171 0.0
H633 H 0.26295 0.79915 0.68355 0.0
H634 H 0.2854 0.87213 0.75866 0.0
H635 H 0.27603 0.85098 0.72912 0.0
C636 C 0.35491 0.02451 0.98305 0.0
C637 C 0.36064 0.04134 0.99508 0.0
C638 C 0.36783 0.01758 0.9673 0.0
C639 C 0.42306 0.01548 0.96001 0.0
H640 H 0.41014 0.98613 0.91017 0.0
C641 C 0.48437 0.97664 0.90795 0.0
C642 C 0.47827 0.95953 0.89651 0.0
C643 C 0.47026 0.98674 0.92071 0.0
C644 C 0.41396 0.99399 0.92425 0.0
H645 H 0.38275 0.06573 0.99851 0.0
H646 H 0.40488 0.05424 0.97049 0.0
H647 H 0.3836 0.00656 0.92707 0.0
H648 H 0.45349 0.93835 0.89081 0.0
H649 H 0.42927 0.95506 0.91407 0.0
H650 H 0.45323 0.00252 0.95758 0.0
C651 C 0.39072 0.04606 0.97346 0.0
C652 C 0.39877 0.00588 0.93378 0.0
C653 C 0.37779 0.05295 0.98917 0.0
C654 C 0.45861 0.95138 0.89969 0.0
C655 C 0.44462 0.96126 0.91264 0.0
C656 C 0.43821 0.00348 0.95057 0.0
C657 C 0.38661 0.02748 0.9634 0.0
C658 C 0.40312 0.01668 0.95183 0.0
C659 C 0.44989 0.97972 0.92238 0.0
C660 C 0.43381 0.99241 0.93267 0.0
H661 H 0.34208 0.01498 0.98768 0.0
H662 H 0.3642 0.00322 0.95985 0.0
H663 H 0.4268 0.02322 0.97418 0.0
H664 H 0.49926 0.98356 0.90533 0.0
H665 H 0.47488 0.00093 0.92791 0.0
C666 C 0.29062 0.15443 0.27564 0.0
C667 C 0.305 0.14494 0.28861 0.0
C668 C 0.29699 0.16836 0.26064 0.0
C669 C 0.33873 0.17953 0.22646 0.0
H670 H 0.31031 0.2314 0.21835 0.0
C671 C 0.32779 0.21933 0.14837 0.0
C672 C 0.32942 0.24081 0.14728 0.0
C673 C 0.32979 0.20914 0.16714 0.0
C674 C 0.31865 0.21714 0.22059 0.0
H675 H 0.3373 0.14258 0.29618 0.0
H676 H 0.34856 0.16663 0.26929 0.0
H677 H 0.30373 0.21119 0.24936 0.0
H678 H 0.33523 0.26839 0.16483 0.0
H679 H 0.33826 0.25051 0.19781 0.0
H680 H 0.35278 0.18495 0.19711 0.0
C681 C 0.33235 0.16342 0.27105 0.0
C682 C 0.31478 0.20555 0.23824 0.0
C683 C 0.32591 0.14976 0.2864 0.0
C684 C 0.33391 0.25182 0.16521 0.0
C685 C 0.33559 0.24163 0.18406 0.0
C686 C 0.34237 0.19098 0.20863 0.0
C687 C 0.31791 0.17281 0.25806 0.0
C688 C 0.32442 0.18644 0.24108 0.0
C689 C 0.33318 0.22024 0.18523 0.0
C690 C 0.332 0.20966 0.20534 0.0
H691 H 0.27439 0.15109 0.27706 0.0
H692 H 0.28559 0.17524 0.25065 0.0
H693 H 0.34625 0.16477 0.22829 0.0
H694 H 0.32445 0.21043 0.13478 0.0
H695 H 0.32767 0.19265 0.16764 0.0
C696 C 0.82545 0.3615 0.70574 0.0
C697 C 0.81171 0.37769 0.70988 0.0
C698 C 0.83343 0.34962 0.72182 0.0
C699 C 0.84409 0.35102 0.77682 0.0
H700 H 0.83173 0.29284 0.77811 0.0
C701 C 0.83005 0.30811 0.85134 0.0
C702 C 0.83572 0.2874 0.85351 0.0
C703 C 0.833 0.31834 0.83278 0.0
C704 C 0.83582 0.30894 0.77781 0.0
H705 H 0.79598 0.39454 0.73396 0.0
H706 H 0.81018 0.37411 0.76193 0.0
H707 H 0.82606 0.31256 0.74658 0.0
H708 H 0.84954 0.2613 0.83806 0.0
H709 H 0.85465 0.27934 0.80533 0.0
H710 H 0.85323 0.3477 0.80812 0.0
C711 C 0.81467 0.3705 0.74632 0.0
C712 C 0.83252 0.32021 0.75979 0.0
C713 C 0.80641 0.38205 0.73031 0.0
C714 C 0.845 0.27727 0.83683 0.0
C715 C 0.84785 0.28755 0.8181 0.0
C716 C 0.84757 0.33977 0.79472 0.0
C717 C 0.82817 0.35414 0.74224 0.0
C718 C 0.8358 0.34149 0.75947 0.0
C719 C 0.84168 0.30816 0.81586 0.0
C720 C 0.84257 0.31881 0.7957 0.0
H721 H 0.82975 0.35783 0.6901 0.0
H722 H 0.84377 0.33702 0.71836 0.0
H723 H 0.84701 0.36739 0.7768 0.0
H724 H 0.82293 0.3164 0.86389 0.0
H725 H 0.8277 0.33408 0.8315 0.0
C726 C 0.9545 0.56264 0.09858 0.0
C727 C 0.97403 0.55528 0.10393 0.0
C728 C 0.94315 0.55302 0.08331 0.0
C729 C 0.93773 0.50193 0.05944 0.0
H730 H 0.8957 0.53068 0.02858 0.0
C731 C 0.88013 0.46842 0.99884 0.0
C732 C 0.86045 0.47737 0.99931 0.0
C733 C 0.89507 0.47444 0.01302 0.0
C734 C 0.90724 0.52241 0.03728 0.0
H735 H 0.99756 0.53284 0.09664 0.0
H736 H 0.97795 0.51634 0.06934 0.0
H737 H 0.9217 0.5502 0.04649 0.0
H738 H 0.84021 0.49762 0.01617 0.0
H739 H 0.86595 0.50764 0.04123 0.0
H740 H 0.92318 0.47405 0.04962 0.0
C741 C 0.97127 0.52941 0.07718 0.0
C742 C 0.92221 0.53361 0.04753 0.0
C743 C 0.98271 0.53914 0.09251 0.0
C744 C 0.85514 0.49021 0.01573 0.0
C745 C 0.87001 0.49625 0.02981 0.0
C746 C 0.9228 0.49067 0.04889 0.0
C747 C 0.95102 0.53575 0.07294 0.0
C748 C 0.93729 0.5236 0.05932 0.0
C749 C 0.89044 0.48955 0.02768 0.0
C750 C 0.90705 0.50086 0.03826 0.0
H751 H 0.94731 0.57481 0.10738 0.0
H752 H 0.92757 0.55828 0.08078 0.0
H753 H 0.94908 0.49363 0.0683 0.0
H754 H 0.88478 0.45894 0.98599 0.0
H755 H 0.91068 0.46894 0.01112 0.0
C756 C 0.70211 0.71755 0.36957 0.0
C757 C 0.70661 0.70925 0.38898 0.0
C758 C 0.7082 0.70732 0.35175 0.0
C759 C 0.72462 0.65752 0.33069 0.0
H760 H 0.75048 0.69163 0.28913 0.0
C761 C 0.75328 0.62407 0.25339 0.0
C762 C 0.74572 0.63505 0.23643 0.0
C763 C 0.75223 0.63268 0.27308 0.0
C764 C 0.7433 0.68189 0.30058 0.0
H765 H 0.71998 0.68309 0.40487 0.0
H766 H 0.7304 0.66515 0.37367 0.0
H767 H 0.73914 0.70694 0.32132 0.0
H768 H 0.73248 0.66394 0.22635 0.0
H769 H 0.73086 0.67893 0.26032 0.0
H770 H 0.72825 0.63257 0.30962 0.0
C771 C 0.72228 0.67963 0.37229 0.0
C772 C 0.73671 0.69068 0.31897 0.0
C773 C 0.7163 0.68993 0.39015 0.0
C774 C 0.73838 0.65514 0.23921 0.0
C775 C 0.73756 0.66377 0.25869 0.0
C776 C 0.73114 0.64872 0.3122 0.0
C777 C 0.7188 0.6885 0.35293 0.0
C778 C 0.72688 0.6787 0.33402 0.0
C779 C 0.74392 0.65247 0.27594 0.0
C780 C 0.74012 0.66093 0.29675 0.0
H781 H 0.69465 0.73238 0.3681 0.0
H782 H 0.70494 0.71433 0.337 0.0
H783 H 0.71709 0.64792 0.34203 0.0
H784 H 0.75884 0.60848 0.25162 0.0
H785 H 0.75739 0.62367 0.28611 0.0
C786 C 0.75808 0.67123 0.1492 0.0
C787 C 0.73877 0.67108 0.15881 0.0
C788 C 0.77026 0.68877 0.14971 0.0
C789 C 0.79832 0.71715 0.17202 0.0
H790 H 0.78132 0.77421 0.17415 0.0
C791 C 0.8462 0.77723 0.21405 0.0
C792 C 0.84902 0.79634 0.2044 0.0
C793 C 0.83203 0.76323 0.20636 0.0
C794 C 0.78634 0.75836 0.17343 0.0
H795 H 0.71619 0.68958 0.17485 0.0
H796 H 0.73764 0.72018 0.1762 0.0
H797 H 0.75745 0.74829 0.16146 0.0
H798 H 0.83886 0.81589 0.17932 0.0
H799 H 0.81422 0.79133 0.16583 0.0
H800 H 0.82709 0.72704 0.18396 0.0
C801 C 0.74332 0.70689 0.16798 0.0
C802 C 0.77263 0.74351 0.16628 0.0
C803 C 0.73098 0.68937 0.16717 0.0
C804 C 0.83708 0.80128 0.18711 0.0
C805 C 0.82287 0.78727 0.17943 0.0
C806 C 0.81193 0.73192 0.17914 0.0
C807 C 0.76353 0.70638 0.16023 0.0
C808 C 0.77842 0.7227 0.16568 0.0
C809 C 0.82037 0.76799 0.18884 0.0
C810 C 0.80603 0.75263 0.18023 0.0
H811 H 0.76435 0.65733 0.14252 0.0
H812 H 0.78551 0.68807 0.14304 0.0
H813 H 0.80323 0.70125 0.17217 0.0
H814 H 0.85504 0.77298 0.22746 0.0
H815 H 0.8302 0.74864 0.21417 0.0
C816 C 0.66409 0.22389 0.68393 0.0
C817 C 0.64948 0.22553 0.6998 0.0
C818 C 0.67425 0.24137 0.67659 0.0
C819 C 0.66947 0.29745 0.67295 0.0
H820 H 0.72897 0.29782 0.67143 0.0
C821 C 0.71571 0.37215 0.67445 0.0
C822 C 0.73512 0.37299 0.66501 0.0
C823 C 0.70449 0.35394 0.67465 0.0
C824 C 0.71235 0.29791 0.67128 0.0
H825 H 0.63384 0.24678 0.72018 0.0
H826 H 0.65135 0.27719 0.70722 0.0
H827 H 0.71093 0.26603 0.67948 0.0
H828 H 0.75745 0.35565 0.6473 0.0
H829 H 0.7376 0.32395 0.64719 0.0
H830 H 0.67074 0.32926 0.66485 0.0
C831 C 0.65498 0.26243 0.70049 0.0
C832 C 0.70204 0.27969 0.67599 0.0
C833 C 0.64509 0.24498 0.70802 0.0
C834 C 0.74259 0.35548 0.65482 0.0
C835 C 0.73128 0.33726 0.6549 0.0
C836 C 0.67974 0.3156 0.66801 0.0
C837 C 0.66969 0.26081 0.68475 0.0
C838 C 0.68053 0.27942 0.67738 0.0
C839 C 0.71231 0.33612 0.66526 0.0
C840 C 0.70134 0.31622 0.66766 0.0
H841 H 0.6678 0.20911 0.67729 0.0
H842 H 0.68551 0.23973 0.66442 0.0
H843 H 0.65285 0.29757 0.6736 0.0
H844 H 0.70948 0.38532 0.68249 0.0
H845 H 0.6901 0.35365 0.68303 0.0
C846 C 0.4185 0.59875 0.54478 0.0
C847 C 0.42006 0.59418 0.52379 0.0
C848 C 0.41812 0.58302 0.55935 0.0
C849 C 0.41326 0.54535 0.58721 0.0
H850 H 0.46218 0.512 0.57962 0.0
C851 C 0.44152 0.48042 0.64257 0.0
C852 C 0.46234 0.48181 0.64801 0.0
C853 C 0.43327 0.49354 0.62768 0.0
C854 C 0.44843 0.52115 0.58187 0.0
H855 H 0.42103 0.56972 0.50137 0.0
H856 H 0.42084 0.54204 0.52702 0.0
H857 H 0.4507 0.53466 0.55199 0.0
H858 H 0.4907 0.49833 0.64258 0.0
H859 H 0.47632 0.52103 0.61632 0.0
H860 H 0.41133 0.53202 0.61735 0.0
C861 C 0.41973 0.55782 0.53212 0.0
C862 C 0.44171 0.53389 0.566 0.0
C863 C 0.41972 0.5736 0.51748 0.0
C864 C 0.47459 0.49697 0.63878 0.0
C865 C 0.46643 0.50983 0.62365 0.0
C866 C 0.41981 0.53231 0.60301 0.0
C867 C 0.41966 0.56246 0.55319 0.0
C868 C 0.42434 0.54646 0.56867 0.0
C869 C 0.44581 0.50797 0.61774 0.0
C870 C 0.43776 0.52052 0.60062 0.0
H871 H 0.41866 0.61452 0.54999 0.0
H872 H 0.4182 0.58703 0.57548 0.0
H873 H 0.39985 0.55495 0.58963 0.0
H874 H 0.43172 0.46889 0.64948 0.0
H875 H 0.41733 0.49186 0.62335 0.0
C876 C 0.7717 0.21353 0.87424 0.0
C877 C 0.79259 0.20901 0.87133 0.0
C878 C 0.75678 0.20302 0.86325 0.0
C879 C 0.74792 0.18007 0.81445 0.0
H880 H 0.69793 0.16028 0.84015 0.0
C881 C 0.67611 0.16305 0.76626 0.0
C882 C 0.65805 0.1719 0.77422 0.0
C883 C 0.69361 0.16109 0.77853 0.0
C884 C 0.71178 0.16572 0.83271 0.0
H885 H 0.81434 0.1898 0.8549 0.0
H886 H 0.78805 0.17181 0.83499 0.0
H887 H 0.72725 0.16935 0.86142 0.0
H888 H 0.64389 0.18469 0.80157 0.0
H889 H 0.67425 0.18177 0.82265 0.0
H890 H 0.73209 0.17799 0.78588 0.0
C891 C 0.78334 0.18329 0.84606 0.0
C892 C 0.72857 0.17078 0.84489 0.0
C893 C 0.79831 0.19354 0.85742 0.0
C894 C 0.65755 0.17785 0.79491 0.0
C895 C 0.67498 0.17597 0.80711 0.0
C896 C 0.73102 0.17527 0.80225 0.0
C897 C 0.76247 0.18802 0.84888 0.0
C898 C 0.7465 0.17868 0.83591 0.0
C899 C 0.69336 0.16796 0.79898 0.0
C900 C 0.71248 0.16881 0.81133 0.0
H901 H 0.76686 0.22528 0.88497 0.0
H902 H 0.74079 0.20711 0.86551 0.0
H903 H 0.76157 0.18625 0.80719 0.0
H904 H 0.67694 0.15818 0.7504 0.0
H905 H 0.70744 0.15462 0.77188 0.0
C906 C 0.9559 0.49901 0.1339 0.0
C907 C 0.96367 0.49915 0.15398 0.0
C908 C 0.96445 0.4859 0.11918 0.0
C909 C 0.01574 0.46451 0.11098 0.0
H910 H 0.99341 0.44369 0.06019 0.0
C911 C 0.06318 0.41746 0.05308 0.0
C912 C 0.05833 0.4187 0.03214 0.0
C913 C 0.05195 0.42866 0.06752 0.0
C914 C 0.9999 0.44973 0.07418 0.0
H915 H 0.98362 0.48344 0.17535 0.0
H916 H 0.99747 0.45952 0.15012 0.0
H917 H 0.97014 0.45596 0.08705 0.0
H918 H 0.03889 0.43376 0.00971 0.0
H919 H 0.0195 0.45377 0.03493 0.0
H920 H 0.04542 0.45857 0.09815 0.0
C921 C 0.98558 0.47019 0.14539 0.0
C922 C 0.98654 0.45657 0.08965 0.0
C923 C 0.97724 0.4835 0.16001 0.0
C924 C 0.04326 0.4328 0.02572 0.0
C925 C 0.03184 0.44391 0.04021 0.0
C926 C 0.02904 0.45773 0.09556 0.0
C927 C 0.98056 0.47248 0.12451 0.0
C928 C 0.99431 0.46386 0.10834 0.0
C929 C 0.0355 0.44129 0.06134 0.0
C930 C 0.02132 0.45012 0.07702 0.0
H931 H 0.94574 0.5112 0.12876 0.0
H932 H 0.9601 0.48802 0.10331 0.0
H933 H 0.02234 0.47071 0.12486 0.0
H934 H 0.0745 0.40647 0.05846 0.0
H935 H 0.05516 0.42616 0.08364 0.0
C936 C 0.73423 0.80953 0.39054 0.0
C937 C 0.73663 0.78923 0.39753 0.0
C938 C 0.74942 0.81876 0.37845 0.0
C939 C 0.80389 0.81226 0.36179 0.0
H940 H 0.78706 0.84648 0.31599 0.0
C941 C 0.83747 0.83691 0.27803 0.0
C942 C 0.85833 0.83761 0.28321 0.0
C943 C 0.8225 0.83591 0.29345 0.0
C944 C 0.79204 0.83689 0.32864 0.0
H945 H 0.75678 0.76266 0.39732 0.0
H946 H 0.78284 0.77835 0.37572 0.0
H947 H 0.76138 0.83381 0.34005 0.0
H948 H 0.87994 0.83989 0.30823 0.0
H949 H 0.85386 0.8395 0.33512 0.0
H950 H 0.83422 0.81391 0.34967 0.0
C951 C 0.76959 0.78748 0.38003 0.0
C952 C 0.77732 0.82984 0.34265 0.0
C953 C 0.75456 0.77838 0.39233 0.0
C954 C 0.86392 0.8391 0.30391 0.0
C955 C 0.84896 0.83865 0.31929 0.0
C956 C 0.81852 0.819 0.34764 0.0
C957 C 0.76723 0.80778 0.37289 0.0
C958 C 0.78301 0.81706 0.35916 0.0
C959 C 0.82813 0.83602 0.31432 0.0
C960 C 0.81278 0.83111 0.33064 0.0
H961 H 0.72061 0.81834 0.39444 0.0
H962 H 0.7472 0.8345 0.37351 0.0
H963 H 0.80894 0.80285 0.37456 0.0
H964 H 0.83282 0.83559 0.26215 0.0
H965 H 0.8067 0.83372 0.28892 0.0
C966 C 0.56082 0.45547 0.6378 0.0
C967 C 0.54018 0.44934 0.63693 0.0
C968 C 0.57134 0.46121 0.62 0.0
C969 C 0.59306 0.46346 0.57887 0.0
H970 H 0.56458 0.4984 0.5398 0.0
C971 C 0.62571 0.48093 0.499 0.0
C972 C 0.62387 0.50093 0.49097 0.0
C973 C 0.61603 0.4755 0.51729 0.0
C974 C 0.57278 0.48884 0.55069 0.0
H975 H 0.5146 0.44373 0.61655 0.0
H976 H 0.53313 0.45353 0.58529 0.0
H977 H 0.54645 0.48589 0.57032 0.0
H978 H 0.61059 0.53104 0.49608 0.0
H979 H 0.59347 0.52147 0.52842 0.0
H980 H 0.61941 0.46653 0.55944 0.0
C981 C 0.54105 0.45413 0.59986 0.0
C982 C 0.56232 0.48142 0.568 0.0
C983 C 0.53053 0.44826 0.61772 0.0
C984 C 0.61232 0.51554 0.50192 0.0
C985 C 0.60243 0.51002 0.52031 0.0
C986 C 0.60346 0.47081 0.5616 0.0
C987 C 0.56146 0.46102 0.60087 0.0
C988 C 0.57234 0.46858 0.58224 0.0
C989 C 0.60416 0.48989 0.52812 0.0
C990 C 0.59341 0.48346 0.54723 0.0
H991 H 0.5687 0.45651 0.65237 0.0
H992 H 0.58699 0.46657 0.62135 0.0
H993 H 0.60119 0.45353 0.58948 0.0
H994 H 0.63453 0.46927 0.49102 0.0
H995 H 0.61746 0.45982 0.52272 0.0
C996 C 0.98526 0.36625 0.0049 0.0
C997 C 0.99915 0.37038 0.02072 0.0
C998 C 0.97046 0.38082 0.99936 0.0
C999 C 0.96713 0.43697 0.99875 0.0
H1000 H 0.91633 0.4266 0.96997 0.0
C1001 C 0.91476 0.4985 0.95871 0.0
C1002 C 0.90464 0.49187 0.94091 0.0
C1003 C 0.92783 0.48508 0.9694 0.0
C1004 C 0.93062 0.42969 0.97779 0.0
H1005 H 0.0072 0.3919 0.04453 0.0
H1006 H 0.9808 0.41704 0.03545 0.0
H1007 H 0.93186 0.39937 0.9905 0.0
H1008 H 0.90241 0.46728 0.91883 0.0
H1009 H 0.92573 0.44422 0.93696 0.0
H1010 H 0.9658 0.46735 0.98584 0.0
C1011 C 0.98153 0.40275 0.02705 0.0
C1012 C 0.93944 0.41412 0.98968 0.0
C1013 C 0.9963 0.3881 0.03261 0.0
C1014 C 0.91009 0.47281 0.93245 0.0
C1015 C 0.92309 0.45945 0.94308 0.0
C1016 C 0.9582 0.45263 0.98693 0.0
C1017 C 0.96935 0.39984 0.00952 0.0
C1018 C 0.95809 0.41736 0.9999 0.0
C1019 C 0.93096 0.46493 0.96233 0.0
C1020 C 0.94017 0.44894 0.97583 0.0
H1021 H 0.98755 0.353 0.99513 0.0
H1022 H 0.96145 0.37801 0.98573 0.0
H1023 H 0.98164 0.43999 0.00618 0.0
H1024 H 0.91057 0.51294 0.96581 0.0
H1025 H 0.93382 0.4898 0.98412 0.0
C1026 C 0.58204 0.47327 0.42144 0.0
C1027 C 0.59612 0.48458 0.40968 0.0
C1028 C 0.56138 0.47932 0.42219 0.0
C1029 C 0.52402 0.51883 0.40236 0.0
H1030 H 0.51211 0.52583 0.46028 0.0
C1031 C 0.46069 0.57448 0.43136 0.0
C1032 C 0.46588 0.58658 0.4484 0.0
C1033 C 0.47319 0.55805 0.42535 0.0
C1034 C 0.5152 0.52404 0.44404 0.0
H1035 H 0.59953 0.50918 0.38757 0.0
H1036 H 0.56378 0.51957 0.38855 0.0
H1037 H 0.53872 0.50186 0.4497 0.0
H1038 H 0.48836 0.59091 0.47242 0.0
H1039 H 0.51042 0.56261 0.46168 0.0
H1040 H 0.50148 0.54217 0.39686 0.0
C1041 C 0.56828 0.5061 0.39725 0.0
C1042 C 0.53022 0.50996 0.43791 0.0
C1043 C 0.58885 0.5001 0.39658 0.0
C1044 C 0.48389 0.58189 0.45926 0.0
C1045 C 0.49643 0.56551 0.4532 0.0
C1046 C 0.50905 0.53302 0.40852 0.0
C1047 C 0.55463 0.49674 0.41118 0.0
C1048 C 0.53536 0.5077 0.41703 0.0
C1049 C 0.49122 0.55334 0.4362 0.0
C1050 C 0.50499 0.53631 0.42948 0.0
H1051 H 0.58737 0.46142 0.43188 0.0
H1052 H 0.55114 0.47151 0.43275 0.0
H1053 H 0.5274 0.51731 0.38615 0.0
H1054 H 0.44684 0.57757 0.42271 0.0
H1055 H 0.46861 0.54891 0.41231 0.0
C1056 C 0.00417 0.13228 0.33536 0.0
C1057 C 0.01941 0.11777 0.33027 0.0
C1058 C 0.00656 0.15299 0.33018 0.0
C1059 C 0.02228 0.19714 0.3289 0.0
H1060 H 0.04432 0.2122 0.27559 0.0
C1061 C 0.05663 0.27694 0.30904 0.0
C1062 C 0.05439 0.28428 0.28883 0.0
C1063 C 0.0488 0.25772 0.31469 0.0
C1064 C 0.03789 0.20831 0.29045 0.0
H1065 H 0.04903 0.11369 0.31548 0.0
H1066 H 0.05317 0.14983 0.30636 0.0
H1067 H 0.0382 0.17619 0.28363 0.0
H1068 H 0.04047 0.27806 0.25932 0.0
H1069 H 0.02658 0.24481 0.26928 0.0
H1070 H 0.02213 0.22934 0.33573 0.0
C1071 C 0.0393 0.14513 0.31429 0.0
C1072 C 0.03464 0.18763 0.29515 0.0
C1073 C 0.03697 0.12443 0.31959 0.0
C1074 C 0.04264 0.2728 0.27496 0.0
C1075 C 0.03483 0.25364 0.28061 0.0
C1076 C 0.02565 0.21787 0.32423 0.0
C1077 C 0.02419 0.15968 0.31966 0.0
C1078 C 0.02694 0.18177 0.31447 0.0
C1079 C 0.03856 0.2455 0.30026 0.0
C1080 C 0.03359 0.22369 0.30498 0.0
H1081 H 0.99044 0.12771 0.3436 0.0
H1082 H 0.99454 0.16376 0.33432 0.0
H1083 H 0.01647 0.19312 0.34398 0.0
H1084 H 0.06565 0.28533 0.3201 0.0
H1085 H 0.05197 0.2519 0.32995 0.0
C1086 C 0.11726 0.72525 0.59184 0.0
C1087 C 0.13444 0.73824 0.59135 0.0
C1088 C 0.09738 0.73342 0.59153 0.0
C1089 C 0.06757 0.77932 0.60445 0.0
H1090 H 0.02841 0.75915 0.56483 0.0
C1091 C 0.99393 0.82327 0.5821 0.0
C1092 C 0.97788 0.81247 0.57276 0.0
C1093 C 0.01141 0.81285 0.58902 0.0
C1094 C 0.03888 0.76466 0.57641 0.0
H1095 H 0.14421 0.77001 0.59017 0.0
H1096 H 0.10939 0.78429 0.58988 0.0
H1097 H 0.06245 0.74386 0.56653 0.0
H1098 H 0.96626 0.78222 0.56585 0.0
H1099 H 0.99601 0.76388 0.57934 0.0
H1100 H 0.04403 0.80001 0.61453 0.0
C1101 C 0.11139 0.76778 0.59046 0.0
C1102 C 0.0585 0.75597 0.57721 0.0
C1103 C 0.1313 0.75959 0.59043 0.0
C1104 C 0.97842 0.79093 0.57298 0.0
C1105 C 0.9957 0.78047 0.58033 0.0
C1106 C 0.0478 0.78782 0.6039 0.0
C1107 C 0.09425 0.75476 0.59108 0.0
C1108 C 0.07314 0.76341 0.591 0.0
C1109 C 0.01299 0.79137 0.58715 0.0
C1110 C 0.03324 0.78082 0.58965 0.0
H1111 H 0.11917 0.70873 0.59259 0.0
H1112 H 0.08443 0.72305 0.59206 0.0
H1113 H 0.07852 0.78515 0.61543 0.0
H1114 H 0.9941 0.8399 0.58188 0.0
H1115 H 0.02433 0.82188 0.59409 0.0
C1116 C 0.45866 0.89607 0.8097 0.0
C1117 C 0.47582 0.90219 0.82113 0.0
C1118 C 0.45381 0.87524 0.80779 0.0
C1119 C 0.45457 0.82997 0.79638 0.0
H1120 H 0.45875 0.79371 0.84362 0.0
C1121 C 0.4452 0.74337 0.78712 0.0
C1122 C 0.43173 0.73357 0.8009 0.0
C1123 C 0.45238 0.7631 0.79106 0.0
C1124 C 0.45746 0.80365 0.83032 0.0
H1125 H 0.5014 0.89111 0.83942 0.0
H1126 H 0.49301 0.8549 0.83594 0.0
H1127 H 0.46678 0.83019 0.84721 0.0
H1128 H 0.41629 0.73629 0.8303 0.0
H1129 H 0.42887 0.77097 0.83723 0.0
H1130 H 0.44496 0.80364 0.77954 0.0
C1131 C 0.48317 0.8662 0.82865 0.0
C1132 C 0.46221 0.82451 0.83232 0.0
C1133 C 0.48806 0.88698 0.83049 0.0
C1134 C 0.42675 0.74339 0.81945 0.0
C1135 C 0.43391 0.76328 0.82337 0.0
C1136 C 0.44993 0.80916 0.79437 0.0
C1137 C 0.46595 0.86006 0.81734 0.0
C1138 C 0.46081 0.83791 0.81536 0.0
C1139 C 0.44619 0.77362 0.80883 0.0
C1140 C 0.45137 0.79572 0.81128 0.0
H1141 H 0.44885 0.90736 0.80238 0.0
H1142 H 0.44033 0.87105 0.79912 0.0
H1143 H 0.4535 0.8398 0.78297 0.0
H1144 H 0.44951 0.73612 0.77279 0.0
H1145 H 0.46226 0.7704 0.77981 0.0
C1146 C 0.38499 0.2536 0.07858 0.0
C1147 C 0.37973 0.27455 0.07948 0.0
C1148 C 0.40535 0.24747 0.07563 0.0
C1149 C 0.45441 0.26293 0.05409 0.0
H1150 H 0.47689 0.22115 0.0903 0.0
C1151 C 0.53454 0.23042 0.03818 0.0
C1152 C 0.5361 0.20892 0.03915 0.0
C1153 C 0.51799 0.24062 0.04739 0.0
C1154 C 0.47086 0.23272 0.07995 0.0
H1155 H 0.39173 0.30549 0.07733 0.0
H1156 H 0.42739 0.29466 0.07148 0.0
H1157 H 0.44233 0.23446 0.09639 0.0
H1158 H 0.52242 0.1814 0.0519 0.0
H1159 H 0.49338 0.19896 0.06748 0.0
H1160 H 0.48227 0.26051 0.0369 0.0
C1161 C 0.41566 0.28307 0.07336 0.0
C1162 C 0.45107 0.24038 0.0835 0.0
C1163 C 0.39527 0.28924 0.07667 0.0
C1164 C 0.52181 0.19801 0.0511 0.0
C1165 C 0.50504 0.20816 0.06 0.0
C1166 C 0.47408 0.25506 0.05033 0.0
C1167 C 0.42092 0.26211 0.07319 0.0
C1168 C 0.44253 0.25532 0.07042 0.0
C1169 C 0.50238 0.2295 0.05742 0.0
C1170 C 0.48249 0.2396 0.06302 0.0
H1171 H 0.37346 0.24185 0.08077 0.0
H1172 H 0.40893 0.23121 0.07526 0.0
H1173 H 0.44814 0.27433 0.04368 0.0
H1174 H 0.54537 0.23923 0.02911 0.0
H1175 H 0.51687 0.25712 0.04564 0.0
C1176 C 0.27748 0.04678 0.26839 0.0
C1177 C 0.29035 0.05974 0.27971 0.0
C1178 C 0.28363 0.03944 0.24918 0.0
C1179 C 0.32806 0.03634 0.21255 0.0
H1180 H 0.28496 0.03987 0.1718 0.0
C1181 C 0.31848 0.04609 0.11906 0.0
C1182 C 0.33415 0.03285 0.11227 0.0
C1183 C 0.31302 0.04681 0.13985 0.0
C1184 C 0.29723 0.03893 0.18293 0.0
H1185 H 0.32035 0.07402 0.28029 0.0
H1186 H 0.33091 0.06162 0.24672 0.0
H1187 H 0.27661 0.04489 0.20778 0.0
H1188 H 0.35599 0.00955 0.12196 0.0
H1189 H 0.34614 0.01041 0.15804 0.0
H1190 H 0.34885 0.03151 0.18751 0.0
C1191 C 0.31617 0.05682 0.25271 0.0
C1192 C 0.29238 0.04146 0.20369 0.0
C1193 C 0.3101 0.06396 0.27205 0.0
C1194 C 0.34394 0.02004 0.12668 0.0
C1195 C 0.33837 0.02064 0.14743 0.0
C1196 C 0.33294 0.03396 0.19174 0.0
C1197 C 0.30271 0.04508 0.24068 0.0
C1198 C 0.30775 0.04044 0.2188 0.0
C1199 C 0.32297 0.03417 0.15435 0.0
C1200 C 0.31762 0.03549 0.17662 0.0
H1201 H 0.26222 0.04311 0.27394 0.0
H1202 H 0.27308 0.02995 0.24064 0.0
H1203 H 0.34028 0.03521 0.22371 0.0
H1204 H 0.3107 0.05625 0.10839 0.0
H1205 H 0.30132 0.05768 0.14459 0.0
C1206 C 0.20744 0.03856 0.52919 0.0
C1207 C 0.21403 0.01877 0.53482 0.0
C1208 C 0.21738 0.04922 0.51329 0.0
C1209 C 0.26323 0.04809 0.47833 0.0
H1210 H 0.22465 0.06964 0.43847 0.0
C1211 C 0.25709 0.06657 0.38591 0.0
C1212 C 0.27538 0.07742 0.38236 0.0
C1213 C 0.25125 0.06102 0.40582 0.0
C1214 C 0.23564 0.0636 0.44939 0.0
H1215 H 0.2373 0.99544 0.52952 0.0
H1216 H 0.2544 0.01378 0.50192 0.0
H1217 H 0.21232 0.05874 0.47203 0.0
H1218 H 0.30223 0.09033 0.39698 0.0
H1219 H 0.29196 0.0807 0.4318 0.0
H1220 H 0.28639 0.05208 0.45521 0.0
C1221 C 0.24166 0.02123 0.50966 0.0
C1222 C 0.22861 0.05767 0.46881 0.0
C1223 C 0.23174 0.01062 0.52545 0.0
C1224 C 0.28808 0.0819 0.39916 0.0
C1225 C 0.28219 0.07639 0.41913 0.0
C1226 C 0.27026 0.05399 0.45884 0.0
C1227 C 0.23413 0.0403 0.5028 0.0
C1228 C 0.24223 0.04944 0.4834 0.0
C1229 C 0.26349 0.06625 0.42273 0.0
C1230 C 0.25646 0.06137 0.44398 0.0
H1231 H 0.19384 0.04527 0.53612 0.0
H1232 H 0.21141 0.06406 0.50864 0.0
H1233 H 0.27418 0.04203 0.48927 0.0
H1234 H 0.247 0.06275 0.37334 0.0
H1235 H 0.23701 0.05275 0.40796 0.0
C1236 C 0.24582 0.94869 0.78026 0.0
C1237 C 0.23106 0.93825 0.7921 0.0
C1238 C 0.24057 0.95752 0.7614 0.0
C1239 C 0.19665 0.97153 0.7275 0.0
H1240 H 0.23618 0.96048 0.68418 0.0
C1241 C 0.20004 0.96792 0.63312 0.0
C1242 C 0.18825 0.98544 0.62848 0.0
C1243 C 0.206 0.96382 0.65338 0.0
C1244 C 0.22491 0.96358 0.69605 0.0
H1245 H 0.19888 0.9301 0.79403 0.0
H1246 H 0.18972 0.94529 0.76105 0.0
H1247 H 0.24437 0.95131 0.71945 0.0
H1248 H 0.17418 0.0128 0.64137 0.0
H1249 H 0.18493 0.00591 0.67641 0.0
H1250 H 0.17685 0.983 0.70396 0.0
C1251 C 0.20536 0.94684 0.76638 0.0
C1252 C 0.22973 0.95861 0.71637 0.0
C1253 C 0.2106 0.93814 0.78536 0.0
C1254 C 0.1831 0.99905 0.64442 0.0
C1255 C 0.18915 0.99503 0.66458 0.0
C1256 C 0.1918 0.97643 0.70716 0.0
C1257 C 0.22045 0.95598 0.75383 0.0
C1258 C 0.21563 0.96243 0.73238 0.0
C1259 C 0.20041 0.97721 0.66941 0.0
C1260 C 0.20583 0.97243 0.69114 0.0
H1261 H 0.26171 0.94921 0.78509 0.0
H1262 H 0.25246 0.96493 0.75242 0.0
H1263 H 0.18548 0.97482 0.73941 0.0
H1264 H 0.20418 0.95709 0.62122 0.0
H1265 H 0.21449 0.94984 0.65653 0.0
C1266 C 0.31091 0.92294 0.87967 0.0
C1267 C 0.28967 0.92252 0.87589 0.0
C1268 C 0.31835 0.9282 0.89909 0.0
C1269 C 0.30357 0.95421 0.94736 0.0
H1270 H 0.34749 0.92176 0.97134 0.0
C1271 C 0.32753 0.96918 0.02978 0.0
C1272 C 0.34868 0.97198 0.03268 0.0
C1273 C 0.32027 0.95954 0.01215 0.0
C1274 C 0.33528 0.93101 0.96482 0.0
H1275 H 0.25965 0.92787 0.88945 0.0
H1276 H 0.27258 0.93708 0.92313 0.0
H1277 H 0.33542 0.91395 0.93673 0.0
H1278 H 0.37888 0.96513 0.02034 0.0
H1279 H 0.36624 0.94837 0.9895 0.0
H1280 H 0.30353 0.97148 0.97514 0.0
C1281 C 0.28353 0.93343 0.91111 0.0
C1282 C 0.32842 0.9266 0.94496 0.0
C1283 C 0.2761 0.92811 0.89177 0.0
C1284 C 0.36249 0.96298 0.01868 0.0
C1285 C 0.35521 0.9535 0.00088 0.0
C1286 C 0.31041 0.95862 0.96712 0.0
C1287 C 0.30473 0.93327 0.91511 0.0
C1288 C 0.31244 0.93814 0.93602 0.0
C1289 C 0.33401 0.95268 0.99691 0.0
C1290 C 0.3263 0.94705 0.97618 0.0
H1291 H 0.3218 0.91866 0.86781 0.0
H1292 H 0.33478 0.92822 0.90158 0.0
H1293 H 0.2915 0.96364 0.94082 0.0
H1294 H 0.31653 0.97594 0.04033 0.0
H1295 H 0.30384 0.9586 0.00987 0.0
C1296 C 0.12044 0.31954 0.02559 0.0
C1297 C 0.11517 0.33882 0.01736 0.0
C1298 C 0.14105 0.31354 0.02704 0.0
C1299 C 0.19225 0.3336 0.03358 0.0
H1300 H 0.21125 0.28149 0.01195 0.0
C1301 C 0.27556 0.30766 0.0471 0.0
C1302 C 0.27824 0.28693 0.05256 0.0
C1303 C 0.25708 0.31446 0.03843 0.0
C1304 C 0.20622 0.29601 0.0183 0.0
H1305 H 0.12736 0.36701 0.0044 0.0
H1306 H 0.16337 0.35673 0.0076 0.0
H1307 H 0.17566 0.29211 0.0068 0.0
H1308 H 0.26409 0.25684 0.05176 0.0
H1309 H 0.23195 0.26864 0.03748 0.0
H1310 H 0.22219 0.33716 0.04618 0.0
C1311 C 0.15153 0.3462 0.01263 0.0
C1312 C 0.18583 0.30209 0.01524 0.0
C1313 C 0.13093 0.35202 0.01076 0.0
C1314 C 0.26262 0.27294 0.04775 0.0
C1315 C 0.24407 0.27976 0.03942 0.0
C1316 C 0.21252 0.32736 0.03702 0.0
C1317 C 0.15677 0.32688 0.0207 0.0
C1318 C 0.17861 0.32084 0.02302 0.0
C1319 C 0.24073 0.30073 0.0353 0.0
C1320 C 0.21977 0.30833 0.02965 0.0
H1321 H 0.10864 0.30901 0.03072 0.0
H1322 H 0.14474 0.29861 0.03347 0.0
H1323 H 0.187 0.3481 0.03985 0.0
H1324 H 0.28733 0.31884 0.05046 0.0
H1325 H 0.25539 0.33063 0.03489 0.0
C1326 C 0.77007 0.25861 0.95512 0.0
C1327 C 0.7846 0.24373 0.94916 0.0
C1328 C 0.75104 0.25283 0.96311 0.0
C1329 C 0.71587 0.20821 0.96179 0.0
H1330 H 0.68126 0.24451 0.99405 0.0
C1331 C 0.63153 0.18991 0.98439 0.0
C1332 C 0.61728 0.20503 0.97834 0.0
C1333 C 0.65261 0.19378 0.98353 0.0
C1334 C 0.69079 0.23424 0.98505 0.0
H1335 H 0.79126 0.2111 0.94898 0.0
H1336 H 0.75841 0.20098 0.96394 0.0
H1337 H 0.71777 0.25196 0.99034 0.0
H1338 H 0.61395 0.2362 0.96701 0.0
H1339 H 0.65091 0.24315 0.96604 0.0
H1340 H 0.68875 0.19033 0.95693 0.0
C1341 C 0.76137 0.21716 0.96157 0.0
C1342 C 0.71172 0.23851 0.98281 0.0
C1343 C 0.78039 0.22297 0.95327 0.0
C1344 C 0.62456 0.22423 0.9717 0.0
C1345 C 0.64566 0.22825 0.97126 0.0
C1346 C 0.69504 0.20373 0.96441 0.0
C1347 C 0.74607 0.23197 0.96573 0.0
C1348 C 0.72449 0.22585 0.9707 0.0
C1349 C 0.65987 0.213 0.97702 0.0
C1350 C 0.68223 0.21695 0.97566 0.0
H1351 H 0.77277 0.27478 0.95226 0.0
H1352 H 0.73979 0.26478 0.9659 0.0
H1353 H 0.72494 0.19824 0.95204 0.0
H1354 H 0.62641 0.17493 0.98951 0.0
H1355 H 0.66327 0.18179 0.98807 0.0
C1356 C 0.08161 0.40213 0.29005 0.0
C1357 C 0.07481 0.38517 0.27867 0.0
C1358 C 0.07494 0.42201 0.28511 0.0
C1359 C 0.03439 0.45075 0.25789 0.0
H1360 H 0.07608 0.49222 0.24883 0.0
C1361 C 0.04227 0.52642 0.20508 0.0
C1362 C 0.02265 0.53492 0.20835 0.0
C1363 C 0.04986 0.51115 0.21825 0.0
C1364 C 0.06426 0.48085 0.25143 0.0
H1365 H 0.05508 0.3757 0.25374 0.0
H1366 H 0.04323 0.41025 0.24537 0.0
H1367 H 0.08579 0.45872 0.26308 0.0
H1368 H 0.99665 0.5357 0.22927 0.0
H1369 H 0.01001 0.50935 0.25229 0.0
H1370 H 0.01297 0.47241 0.24559 0.0
C1371 C 0.05375 0.40822 0.25806 0.0
C1372 C 0.06979 0.46174 0.25972 0.0
C1373 C 0.06061 0.38843 0.2628 0.0
C1374 C 0.01171 0.52929 0.22615 0.0
C1375 C 0.0193 0.51408 0.23929 0.0
C1376 C 0.02885 0.46986 0.24979 0.0
C1377 C 0.0611 0.42526 0.26892 0.0
C1378 C 0.05496 0.44634 0.26258 0.0
C1379 C 0.038 0.50415 0.23495 0.0
C1380 C 0.04377 0.485 0.24607 0.0
H1381 H 0.09263 0.40014 0.30231 0.0
H1382 H 0.08074 0.43485 0.29382 0.0
H1383 H 0.02262 0.43925 0.26007 0.0
H1384 H 0.0511 0.53038 0.19152 0.0
H1385 H 0.06433 0.5038 0.21446 0.0
C1386 C 0.88515 0.82363 0.5254 0.0
C1387 C 0.89872 0.81673 0.51001 0.0
C1388 C 0.86408 0.81967 0.5241 0.0
C1389 C 0.82372 0.80954 0.48673 0.0
H1390 H 0.79332 0.78517 0.53195 0.0
C1391 C 0.74653 0.76035 0.49402 0.0
C1392 C 0.7337 0.77209 0.48116 0.0
C1393 C 0.76467 0.76868 0.50178 0.0
C1394 C 0.80159 0.79214 0.51927 0.0
H1395 H 0.90077 0.80023 0.48122 0.0
H1396 H 0.86399 0.79366 0.4788 0.0
H1397 H 0.82976 0.79352 0.53622 0.0
H1398 H 0.72878 0.80249 0.46828 0.0
H1399 H 0.76036 0.81695 0.48185 0.0
H1400 H 0.79586 0.80786 0.4696 0.0
C1401 C 0.86969 0.80208 0.49188 0.0
C1402 C 0.82239 0.79697 0.52173 0.0
C1403 C 0.89076 0.80575 0.49334 0.0
C1404 C 0.73832 0.79295 0.47804 0.0
C1405 C 0.75653 0.80122 0.48566 0.0
C1406 C 0.80293 0.80501 0.48437 0.0
C1407 C 0.85613 0.80904 0.50721 0.0
C1408 C 0.83374 0.80534 0.50533 0.0
C1409 C 0.77037 0.78887 0.49675 0.0
C1410 C 0.7917 0.79595 0.50048 0.0
H1411 H 0.89081 0.83208 0.53848 0.0
H1412 H 0.85396 0.82527 0.53609 0.0
H1413 H 0.83204 0.81616 0.47389 0.0
H1414 H 0.7434 0.74425 0.49682 0.0
H1415 H 0.775 0.75878 0.51031 0.0
C1416 C 0.23179 0.71689 0.52759 0.0
C1417 C 0.22202 0.70493 0.54274 0.0
C1418 C 0.24722 0.70846 0.51525 0.0
C1419 C 0.28683 0.66937 0.5208 0.0
H1420 H 0.30304 0.68693 0.46614 0.0
C1421 C 0.35906 0.65531 0.46197 0.0
C1422 C 0.3752 0.65797 0.47601 0.0
C1423 C 0.33883 0.66033 0.46748 0.0
C1424 C 0.29863 0.68175 0.48135 0.0
H1425 H 0.21921 0.67416 0.55525 0.0
H1426 H 0.24601 0.65935 0.53349 0.0
H1427 H 0.26844 0.6948 0.47884 0.0
H1428 H 0.38282 0.66901 0.50641 0.0
H1429 H 0.34772 0.67782 0.51587 0.0
H1430 H 0.31702 0.65667 0.52352 0.0
C1431 C 0.242 0.67539 0.53147 0.0
C1432 C 0.27887 0.68631 0.48865 0.0
C1433 C 0.2265 0.68383 0.5438 0.0
C1434 C 0.37079 0.66664 0.49525 0.0
C1435 C 0.35063 0.67154 0.50076 0.0
C1436 C 0.30654 0.66494 0.51358 0.0
C1437 C 0.25324 0.68786 0.5178 0.0
C1438 C 0.27287 0.68048 0.50862 0.0
C1439 C 0.33436 0.66796 0.48715 0.0
C1440 C 0.31284 0.67146 0.49396 0.0
H1441 H 0.22858 0.73318 0.52628 0.0
H1442 H 0.25553 0.71853 0.50491 0.0
H1443 H 0.28289 0.66488 0.53635 0.0
H1444 H 0.36191 0.64865 0.44702 0.0
H1445 H 0.32661 0.65743 0.45666 0.0
C1446 C 0.97974 0.0283 0.29447 0.0
C1447 C 0.96788 0.03422 0.31155 0.0
C1448 C 0.97308 0.01273 0.28148 0.0
C1449 C 0.929 0.97984 0.2674 0.0
H1450 H 0.97139 0.93864 0.25894 0.0
C1451 C 0.91383 0.90406 0.22385 0.0
C1452 C 0.92039 0.88622 0.23422 0.0
C1453 C 0.92025 0.92345 0.23032 0.0
C1454 C 0.9594 0.95002 0.26111 0.0
H1455 H 0.93895 0.02952 0.32743 0.0
H1456 H 0.9273 0.00223 0.3047 0.0
H1457 H 0.98003 0.97103 0.27526 0.0
H1458 H 0.93956 0.87475 0.25891 0.0
H1459 H 0.95093 0.90851 0.26999 0.0
H1460 H 0.90825 0.95841 0.2538 0.0
C1461 C 0.94176 0.00969 0.30136 0.0
C1462 C 0.96438 0.96868 0.27027 0.0
C1463 C 0.94843 0.02535 0.31439 0.0
C1464 C 0.93424 0.88816 0.25057 0.0
C1465 C 0.9408 0.90752 0.2569 0.0
C1466 C 0.92405 0.96118 0.25807 0.0
C1467 C 0.9544 0.00268 0.28525 0.0
C1468 C 0.94919 0.98371 0.27379 0.0
C1469 C 0.93355 0.9254 0.24712 0.0
C1470 C 0.93914 0.94594 0.25515 0.0
H1471 H 0.99471 0.03498 0.29169 0.0
H1472 H 0.98296 0.00799 0.26893 0.0
H1473 H 0.91699 0.99114 0.26981 0.0
H1474 H 0.90312 0.90311 0.21122 0.0
H1475 H 0.91459 0.93695 0.22235 0.0
C1476 C 0.53504 0.9777 0.77872 0.0
C1477 C 0.54267 0.97455 0.79865 0.0
C1478 C 0.54419 0.99199 0.76558 0.0
C1479 C 0.58805 0.02765 0.75818 0.0
H1480 H 0.54533 0.06556 0.74081 0.0
C1481 C 0.57965 0.11875 0.74182 0.0
C1482 C 0.59517 0.12247 0.72726 0.0
C1483 C 0.57378 0.09871 0.7466 0.0
C1484 C 0.55742 0.05505 0.74539 0.0
H1485 H 0.56719 0.98227 0.81959 0.0
H1486 H 0.58318 0.00732 0.79662 0.0
H1487 H 0.53594 0.03254 0.75566 0.0
H1488 H 0.61655 0.1081 0.70608 0.0
H1489 H 0.60647 0.07286 0.7148 0.0
H1490 H 0.60948 0.05073 0.74847 0.0
C1491 C 0.57012 0.99871 0.79115 0.0
C1492 C 0.55208 0.03603 0.75373 0.0
C1493 C 0.56098 0.98432 0.80432 0.0
C1494 C 0.60444 0.1057 0.71726 0.0
C1495 C 0.5988 0.08556 0.72234 0.0
C1496 C 0.59341 0.04666 0.74957 0.0
C1497 C 0.56113 0.00349 0.7721 0.0
C1498 C 0.56729 0.02228 0.76064 0.0
C1499 C 0.58351 0.0819 0.73717 0.0
C1500 C 0.5781 0.06072 0.74359 0.0
H1501 H 0.52108 0.97023 0.7738 0.0
H1502 H 0.53719 0.995 0.7508 0.0
H1503 H 0.60009 0.01736 0.76333 0.0
H1504 H 0.57224 0.13135 0.74979 0.0
H1505 H 0.56207 0.09633 0.75822 0.0
C1506 C 0.55256 0.22932 0.73393 0.0
C1507 C 0.56582 0.22004 0.71959 0.0
C1508 C 0.54199 0.24736 0.72897 0.0
C1509 C 0.54883 0.29232 0.69594 0.0
H1510 H 0.49569 0.30838 0.71778 0.0
C1511 C 0.49035 0.36639 0.69315 0.0
C1512 C 0.50453 0.38231 0.6962 0.0
C1513 C 0.49629 0.34586 0.6954 0.0
C1514 C 0.51049 0.3041 0.71143 0.0
H1515 H 0.57703 0.22146 0.68823 0.0
H1516 H 0.55832 0.25285 0.67947 0.0
H1517 H 0.50706 0.27272 0.72078 0.0
H1518 H 0.53596 0.3891 0.70457 0.0
H1519 H 0.54627 0.35327 0.70872 0.0
H1520 H 0.5523 0.32365 0.6866 0.0
C1521 C 0.55641 0.24635 0.69468 0.0
C1522 C 0.51705 0.28369 0.71326 0.0
C1523 C 0.56695 0.22823 0.69963 0.0
C1524 C 0.52466 0.37723 0.70207 0.0
C1525 C 0.53061 0.35668 0.70427 0.0
C1526 C 0.5423 0.31271 0.69416 0.0
C1527 C 0.54446 0.25654 0.70956 0.0
C1528 C 0.5364 0.27761 0.70573 0.0
C1529 C 0.51657 0.34075 0.70069 0.0
C1530 C 0.52317 0.3189 0.7021 0.0
H1531 H 0.55129 0.22336 0.74943 0.0
H1532 H 0.53298 0.2548 0.74083 0.0
H1533 H 0.56394 0.28826 0.69023 0.0
H1534 H 0.47471 0.36975 0.68859 0.0
H1535 H 0.48513 0.33398 0.69239 0.0
C1536 C 0.8904 0.28132 0.92106 0.0
C1537 C 0.88652 0.2601 0.92192 0.0
C1538 C 0.91039 0.28875 0.92281 0.0
C1539 C 0.96093 0.2771 0.94339 0.0
H1540 H 0.97982 0.31794 0.90419 0.0
C1541 C 0.03896 0.31409 0.95507 0.0
C1542 C 0.03898 0.33558 0.9534 0.0
C1543 C 0.02313 0.30263 0.94644 0.0
C1544 C 0.9748 0.30663 0.91534 0.0
H1545 H 0.90057 0.23011 0.92593 0.0
H1546 H 0.93555 0.24325 0.9296 0.0
H1547 H 0.9459 0.30268 0.90024 0.0
H1548 H 0.02351 0.36183 0.93995 0.0
H1549 H 0.99562 0.34206 0.92539 0.0
H1550 H 0.98911 0.28169 0.95921 0.0
C1551 C 0.92304 0.25403 0.92732 0.0
C1552 C 0.95537 0.29788 0.91304 0.0
C1553 C 0.90304 0.24654 0.92527 0.0
C1554 C 0.02403 0.34524 0.94123 0.0
C1555 C 0.00794 0.33383 0.93295 0.0
C1556 C 0.98022 0.28604 0.94587 0.0
C1557 C 0.92694 0.27519 0.92572 0.0
C1558 C 0.94813 0.28327 0.92723 0.0
C1559 C 0.00671 0.31249 0.9364 0.0
C1560 C 0.98733 0.30117 0.93206 0.0
H1561 H 0.87808 0.29221 0.91839 0.0
H1562 H 0.91291 0.30516 0.92185 0.0
H1563 H 0.95567 0.26599 0.95465 0.0
H1564 H 0.05035 0.30629 0.96437 0.0
H1565 H 0.02312 0.28617 0.9488 0.0
C1566 C 0.92925 0.77727 0.19388 0.0
C1567 C 0.93497 0.78425 0.21342 0.0
C1568 C 0.93583 0.75801 0.1869 0.0
C1569 C 0.97168 0.71447 0.19761 0.0
H1570 H 0.92708 0.68126 0.17696 0.0
C1571 C 0.94882 0.6235 0.18844 0.0
C1572 C 0.96708 0.61558 0.17997 0.0
C1573 C 0.94612 0.6447 0.19079 0.0
C1574 C 0.93969 0.6903 0.18278 0.0
H1575 H 0.95349 0.77727 0.24017 0.0
H1576 H 0.96497 0.74389 0.22802 0.0
H1577 H 0.92156 0.71776 0.18299 0.0
H1578 H 0.99689 0.62381 0.16748 0.0
H1579 H 0.99214 0.6607 0.17154 0.0
H1580 H 0.98957 0.68681 0.19809 0.0
C1581 C 0.95539 0.75317 0.21805 0.0
C1582 C 0.93662 0.71131 0.18594 0.0
C1583 C 0.94875 0.77233 0.22505 0.0
C1584 C 0.98264 0.62935 0.17411 0.0
C1585 C 0.97996 0.65053 0.17651 0.0
C1586 C 0.97476 0.69344 0.19439 0.0
C1587 C 0.94837 0.74542 0.19925 0.0
C1588 C 0.95248 0.72362 0.19368 0.0
C1589 C 0.96163 0.65848 0.18478 0.0
C1590 C 0.9587 0.68104 0.18723 0.0
H1591 H 0.91861 0.78604 0.18455 0.0
H1592 H 0.93043 0.75263 0.17217 0.0
H1593 H 0.98426 0.72352 0.20345 0.0
H1594 H 0.93653 0.61335 0.19315 0.0
H1595 H 0.93194 0.65027 0.19752 0.0
C1596 C 0.48631 0.67423 0.44453 0.0
C1597 C 0.4767 0.67718 0.46364 0.0
C1598 C 0.50459 0.68454 0.43975 0.0
C1599 C 0.53873 0.72714 0.45645 0.0
H1600 H 0.58226 0.69223 0.43537 0.0
C1601 C 0.63317 0.72421 0.45124 0.0
C1602 C 0.63729 0.74428 0.4444 0.0
C1603 C 0.61295 0.71713 0.45262 0.0
C1604 C 0.57031 0.70216 0.44138 0.0
H1605 H 0.47787 0.69431 0.49209 0.0
H1606 H 0.50945 0.7122 0.48381 0.0
H1607 H 0.54742 0.67894 0.43805 0.0
H1608 H 0.62326 0.77279 0.43413 0.0
H1609 H 0.58812 0.76043 0.43646 0.0
H1610 H 0.56174 0.75012 0.46046 0.0
C1611 C 0.50304 0.70201 0.47245 0.0
C1612 C 0.55025 0.69464 0.44261 0.0
C1613 C 0.48494 0.69165 0.47725 0.0
C1614 C 0.62067 0.75726 0.43952 0.0
C1615 C 0.60048 0.75019 0.4409 0.0
C1616 C 0.55878 0.73467 0.45521 0.0
C1617 C 0.51346 0.69812 0.45393 0.0
C1618 C 0.53426 0.70694 0.45042 0.0
C1619 C 0.59636 0.72995 0.44721 0.0
C1620 C 0.57488 0.72218 0.44792 0.0
H1621 H 0.48038 0.66311 0.43377 0.0
H1622 H 0.51211 0.68142 0.42523 0.0
H1623 H 0.52676 0.73709 0.46239 0.0
H1624 H 0.64559 0.71381 0.45513 0.0
H1625 H 0.61032 0.70157 0.45789 0.0
C1626 C 0.67511 0.52066 0.36812 0.0
C1627 C 0.6663 0.53353 0.38305 0.0
C1628 C 0.67684 0.52716 0.34773 0.0
C1629 C 0.65344 0.56205 0.31011 0.0
H1630 H 0.70311 0.55148 0.27888 0.0
C1631 C 0.66941 0.59537 0.22865 0.0
C1632 C 0.68287 0.58444 0.21575 0.0
C1633 C 0.6647 0.58788 0.2483 0.0
C1634 C 0.68893 0.55419 0.28719 0.0
H1635 H 0.65276 0.56353 0.38831 0.0
H1636 H 0.65578 0.5749 0.35253 0.0
H1637 H 0.7017 0.54225 0.31502 0.0
H1638 H 0.70008 0.55615 0.2123 0.0
H1639 H 0.69099 0.54254 0.246 0.0
H1640 H 0.6406 0.57386 0.28218 0.0
C1641 C 0.66127 0.55973 0.35669 0.0
C1642 C 0.68821 0.54903 0.30801 0.0
C1643 C 0.65976 0.55331 0.37721 0.0
C1644 C 0.68972 0.56493 0.22196 0.0
C1645 C 0.68477 0.55731 0.24143 0.0
C1646 C 0.65408 0.56709 0.28917 0.0
C1647 C 0.66962 0.54662 0.34169 0.0
C1648 C 0.67048 0.55286 0.31972 0.0
C1649 C 0.67318 0.5692 0.2553 0.0
C1650 C 0.67184 0.56316 0.27741 0.0
H1651 H 0.68026 0.50532 0.37208 0.0
H1652 H 0.68323 0.51664 0.33653 0.0
H1653 H 0.63945 0.56496 0.31869 0.0
H1654 H 0.66411 0.61058 0.22438 0.0
H1655 H 0.65573 0.59749 0.2585 0.0
C1656 C 0.71266 0.46141 0.46316 0.0
C1657 C 0.70279 0.48063 0.46245 0.0
C1658 C 0.72642 0.45671 0.47902 0.0
C1659 C 0.75335 0.48004 0.52456 0.0
H1660 H 0.74901 0.42474 0.54634 0.0
C1661 C 0.76488 0.45477 0.60962 0.0
C1662 C 0.77928 0.43894 0.61279 0.0
C1663 C 0.75945 0.46072 0.58969 0.0
C1664 C 0.75051 0.44018 0.54028 0.0
H1665 H 0.70055 0.51033 0.47733 0.0
H1666 H 0.72347 0.50198 0.50507 0.0
H1667 H 0.73285 0.43319 0.51372 0.0
H1668 H 0.79945 0.41714 0.59758 0.0
H1669 H 0.78932 0.42712 0.56276 0.0
H1670 H 0.76977 0.48715 0.55215 0.0
C1671 C 0.72125 0.49057 0.49327 0.0
C1672 C 0.74141 0.44505 0.52146 0.0
C1673 C 0.70786 0.49536 0.47729 0.0
C1674 C 0.78843 0.4295 0.59563 0.0
C1675 C 0.78261 0.4351 0.57573 0.0
C1676 C 0.76201 0.47525 0.54363 0.0
C1677 C 0.73037 0.471 0.49473 0.0
C1678 C 0.74235 0.46517 0.51346 0.0
C1679 C 0.76794 0.45063 0.57262 0.0
C1680 C 0.76042 0.45536 0.55173 0.0
H1681 H 0.70919 0.44975 0.45191 0.0
H1682 H 0.73351 0.44165 0.47924 0.0
H1683 H 0.75498 0.49554 0.51878 0.0
H1684 H 0.75757 0.4623 0.62253 0.0
H1685 H 0.74801 0.47267 0.58761 0.0
C1686 C 0.82861 0.50371 0.87205 0.0
C1687 C 0.82472 0.48716 0.88544 0.0
C1688 C 0.82545 0.5018 0.8509 0.0
C1689 C 0.80694 0.49667 0.80809 0.0
H1690 H 0.82369 0.44582 0.78209 0.0
C1691 C 0.78009 0.47114 0.72752 0.0
C1692 C 0.79346 0.45918 0.71543 0.0
C1693 C 0.78591 0.47762 0.7471 0.0
C1694 C 0.81918 0.46024 0.78902 0.0
H1695 H 0.81407 0.45568 0.88702 0.0
H1696 H 0.80847 0.45238 0.85017 0.0
H1697 H 0.82918 0.45039 0.81874 0.0
H1698 H 0.82409 0.44605 0.71388 0.0
H1699 H 0.83431 0.45757 0.74792 0.0
H1700 H 0.79686 0.50646 0.77831 0.0
C1701 C 0.8142 0.4668 0.85602 0.0
C1702 C 0.82206 0.46274 0.81012 0.0
C1703 C 0.81726 0.46874 0.87718 0.0
C1704 C 0.8134 0.45527 0.72272 0.0
C1705 C 0.81918 0.46165 0.74237 0.0
C1706 C 0.80396 0.49413 0.78697 0.0
C1707 C 0.81843 0.48324 0.84258 0.0
C1708 C 0.81581 0.4809 0.81998 0.0
C1709 C 0.80521 0.47221 0.7551 0.0
C1710 C 0.80991 0.47581 0.77718 0.0
H1711 H 0.83439 0.51813 0.87785 0.0
H1712 H 0.82901 0.51471 0.841 0.0
H1713 H 0.80187 0.51082 0.8152 0.0
H1714 H 0.76462 0.47445 0.72239 0.0
H1715 H 0.77474 0.48568 0.75646 0.0
C1716 C 0.72824 0.59061 0.11225 0.0
C1717 C 0.73988 0.58326 0.12889 0.0
C1718 C 0.73293 0.58461 0.09216 0.0
C1719 C 0.76049 0.54526 0.06185 0.0
H1720 H 0.76532 0.58816 0.02062 0.0
C1721 C 0.78599 0.52556 0.98011 0.0
C1722 C 0.80253 0.5373 0.97268 0.0
C1723 C 0.77448 0.53218 0.997 0.0
C1724 C 0.76397 0.57601 0.03194 0.0
H1725 H 0.76512 0.56321 0.13749 0.0
H1726 H 0.77317 0.5526 0.10251 0.0
H1727 H 0.75291 0.59665 0.05507 0.0
H1728 H 0.81876 0.56608 0.97612 0.0
H1729 H 0.79864 0.57763 0.00559 0.0
H1730 H 0.77214 0.52472 0.03906 0.0
C1731 C 0.76039 0.56302 0.10499 0.0
C1732 C 0.7567 0.58083 0.05162 0.0
C1733 C 0.75582 0.56915 0.12505 0.0
C1734 C 0.80612 0.55666 0.98141 0.0
C1735 C 0.79458 0.56329 0.99835 0.0
C1736 C 0.7676 0.54042 0.04218 0.0
C1737 C 0.74924 0.57094 0.08828 0.0
C1738 C 0.75521 0.56556 0.06689 0.0
C1739 C 0.7792 0.5507 0.00686 0.0
C1740 C 0.76971 0.55577 0.02706 0.0
H1741 H 0.71588 0.60154 0.11464 0.0
H1742 H 0.72392 0.5908 0.07963 0.0
H1743 H 0.75935 0.53312 0.07321 0.0
H1744 H 0.78265 0.51066 0.97364 0.0
H1745 H 0.76243 0.52235 0.00289 0.0
C1746 C 0.42544 0.61422 0.8083 0.0
C1747 C 0.42753 0.63021 0.79387 0.0
C1748 C 0.4341 0.5949 0.80457 0.0
C1749 C 0.44015 0.55303 0.78439 0.0
H1750 H 0.49351 0.54661 0.75861 0.0
C1751 C 0.46436 0.48288 0.73573 0.0
C1752 C 0.48522 0.47724 0.73535 0.0
C1753 C 0.45774 0.49957 0.74754 0.0
C1754 C 0.4787 0.54803 0.76611 0.0
H1755 H 0.44118 0.63868 0.76462 0.0
H1756 H 0.45636 0.60505 0.75817 0.0
H1757 H 0.48246 0.58038 0.77024 0.0
H1758 H 0.51504 0.48331 0.74867 0.0
H1759 H 0.5034 0.51212 0.76947 0.0
H1760 H 0.43626 0.52069 0.7799 0.0
C1761 C 0.44805 0.60745 0.7724 0.0
C1762 C 0.47229 0.56746 0.77255 0.0
C1763 C 0.43928 0.62672 0.77607 0.0
C1764 C 0.49891 0.48742 0.74843 0.0
C1765 C 0.49228 0.50403 0.76025 0.0
C1766 C 0.44653 0.53358 0.77785 0.0
C1767 C 0.44519 0.5912 0.78641 0.0
C1768 C 0.45281 0.57026 0.78145 0.0
C1769 C 0.47182 0.51087 0.75923 0.0
C1770 C 0.46576 0.53091 0.76835 0.0
H1771 H 0.4165 0.61638 0.8222 0.0
H1772 H 0.43186 0.58277 0.81576 0.0
H1773 H 0.42497 0.55471 0.79106 0.0
H1774 H 0.45343 0.4754 0.7258 0.0
H1775 H 0.44187 0.50446 0.74636 0.0
loop_
_geom_bond_atom_site_label_1
_geom_bond_atom_site_label_2
_geom_bond_distance
_geom_bond_site_symmetry_2
_ccdc_geom_bond_type
C0 O2 1.247 . S
C0 O4 1.258 . S
C1 O8 1.247 . S
C1 O9 1.258 . S
O2 C0 1.247 . S
O2 Zn3 2.028 . S
Zn3 O2 2.028 . S
Zn3 O7 2.035 . S
Zn3 O9 2.035 . S
Zn3 O10 2.028 . S
O4 C0 1.258 . S
O4 Zn5 2.035 . S
Zn5 O4 2.035 . S
Zn5 O6 2.028 . S
Zn5 O8 2.028 . S
Zn5 O11 2.035 . S
O6 Zn5 2.028 . S
O6 C12 1.247 . S
O7 Zn3 2.035 . S
O7 C12 1.258 . S
O8 C1 1.247 . S
O8 Zn5 2.028 . S
O9 C1 1.258 . S
O9 Zn3 2.035 . S
O10 Zn3 2.028 . S
O10 C13 1.247 . S
O11 Zn5 2.035 . S
O11 C13 1.258 . S
C12 O6 1.247 . S
C12 O7 1.258 . S
C13 O10 1.247 . S
C13 O11 1.258 . S
C14 O16 1.247 . S
C14 O18 1.258 . S
C15 O22 1.247 . S
C15 O23 1.258 . S
O16 C14 1.247 . S
O16 Zn17 2.028 . S
Zn17 O16 2.028 . S
Zn17 O21 2.035 1_455 S
Zn17 O23 2.035 1_455 S
Zn17 O24 2.028 . S
O18 C14 1.258 . S
O18 Zn19 2.035 1_455 S
Zn19 O18 2.035 1_655 S
Zn19 O20 2.028 . S
Zn19 O22 2.028 . S
Zn19 O25 2.035 1_655 S
O20 Zn19 2.028 . S
O20 C26 1.247 . S
O21 Zn17 2.035 1_655 S
O21 C26 1.258 . S
O22 C15 1.247 . S
O22 Zn19 2.028 . S
O23 C15 1.258 . S
O23 Zn17 2.035 1_655 S
O24 Zn17 2.028 . S
O24 C27 1.247 . S
O25 Zn19 2.035 1_455 S
O25 C27 1.258 . S
C26 O20 1.247 . S
C26 O21 1.258 . S
C27 O24 1.247 . S
C27 O25 1.258 . S
C28 O30 1.247 . S
C28 O32 1.258 . S
C29 O36 1.247 . S
C29 O37 1.258 . S
O30 C28 1.247 . S
O30 Zn31 2.028 . S
Zn31 O30 2.028 . S
Zn31 O35 2.035 . S
Zn31 O37 2.035 . S
Zn31 O38 2.028 . S
O32 C28 1.258 . S
O32 Zn33 2.035 . S
Zn33 O32 2.035 . S
Zn33 O34 2.028 . S
Zn33 O36 2.028 . S
Zn33 O39 2.035 . S
O34 Zn33 2.028 . S
O34 C40 1.247 . S
O35 Zn31 2.035 . S
O35 C40 1.258 . S
O36 C29 1.247 . S
O36 Zn33 2.028 . S
O37 C29 1.258 . S
O37 Zn31 2.035 . S
O38 Zn31 2.028 . S
O38 C41 1.247 . S
O39 Zn33 2.035 . S
O39 C41 1.258 . S
C40 O34 1.247 . S
C40 O35 1.258 . S
C41 O38 1.247 . S
C41 O39 1.258 . S
C42 O44 1.247 1_556 S
C42 O46 1.258 . S
C43 O50 1.247 1_554 S
C43 O51 1.258 . S
O44 C42 1.247 1_554 S
O44 Zn45 2.028 . S
Zn45 O44 2.028 . S
Zn45 O49 2.035 . S
Zn45 O51 2.035 . S
Zn45 O52 2.028 1_554 S
O46 C42 1.258 . S
O46 Zn47 2.035 . S
Zn47 O46 2.035 . S
Zn47 O48 2.028 1_556 S
Zn47 O50 2.028 . S
Zn47 O53 2.035 . S
O48 Zn47 2.028 1_554 S
O48 C54 1.247 . S
O49 Zn45 2.035 . S
O49 C54 1.258 . S
O50 C43 1.247 1_556 S
O50 Zn47 2.028 . S
O51 C43 1.258 . S
O51 Zn45 2.035 . S
O52 Zn45 2.028 1_556 S
O52 C55 1.247 . S
O53 Zn47 2.035 . S
O53 C55 1.258 . S
C54 O48 1.247 . S
C54 O49 1.258 . S
C55 O52 1.247 . S
C55 O53 1.258 . S
C56 O58 1.247 . S
C56 O60 1.258 1_655 S
C57 O64 1.247 . S
C57 O65 1.258 1_455 S
O58 C56 1.247 . S
O58 Zn59 2.028 1_565 S
Zn59 O58 2.028 1_545 S
Zn59 O63 2.035 1_655 S
Zn59 O65 2.035 . S
Zn59 O66 2.028 1_545 S
O60 C56 1.258 1_455 S
O60 Zn61 2.035 . S
Zn61 O60 2.035 . S
Zn61 O62 2.009 1_565 S
Zn61 O64 2.028 1_565 S
Zn61 O67 2.035 1_455 S
O62 Zn61 2.009 1_545 S
O62 C68 1.280 . S
O63 Zn59 2.035 1_455 S
O63 C68 1.258 . S
O64 C57 1.247 . S
O64 Zn61 2.028 1_545 S
O65 C57 1.258 1_655 S
O65 Zn59 2.035 . S
O66 Zn59 2.028 1_565 S
O66 C69 1.247 . S
O67 Zn61 2.035 1_655 S
O67 C69 1.258 . S
C68 O62 1.280 . S
C68 O63 1.258 . S
C69 O66 1.247 . S
C69 O67 1.258 . S
C70 O72 1.247 . S
C70 O74 1.258 . S
C71 O78 1.247 . S
C71 O79 1.258 . S
O72 C70 1.247 . S
O72 Zn73 2.028 . S
Zn73 O72 2.028 . S
Zn73 O77 2.035 . S
Zn73 O79 2.035 . S
Zn73 O80 2.028 . S
O74 C70 1.258 . S
O74 Zn75 2.035 . S
Zn75 O74 2.035 . S
Zn75 O76 2.028 . S
Zn75 O78 2.028 . S
Zn75 O81 2.035 . S
O76 Zn75 2.028 . S
O76 C82 1.247 . S
O77 Zn73 2.035 . S
O77 C82 1.258 . S
O78 C71 1.247 . S
O78 Zn75 2.028 . S
O79 C71 1.258 . S
O79 Zn73 2.035 . S
O80 Zn73 2.028 . S
O80 C83 1.247 . S
O81 Zn75 2.035 . S
O81 C83 1.258 . S
C82 O76 1.247 . S
C82 O77 1.258 . S
C83 O80 1.247 . S
C83 O81 1.258 . S
C84 O86 1.247 . S
C84 O88 1.258 . S
C85 O92 1.247 . S
C85 O93 1.258 . S
O86 C84 1.247 . S
O86 Zn87 2.028 . S
Zn87 O86 2.028 . S
Zn87 O91 2.035 1_565 S
Zn87 O93 2.035 1_565 S
Zn87 O94 2.028 . S
O88 C84 1.258 . S
O88 Zn89 2.035 1_565 S
Zn89 O88 2.035 1_545 S
Zn89 O90 2.028 . S
Zn89 O92 2.028 . S
Zn89 O95 2.035 1_545 S
O90 Zn89 2.028 . S
O90 C96 1.247 . S
O91 Zn87 2.035 1_545 S
O91 C96 1.258 . S
O92 C85 1.247 . S
O92 Zn89 2.028 . S
O93 C85 1.258 . S
O93 Zn87 2.035 1_545 S
O94 Zn87 2.028 . S
O94 C97 1.247 . S
O95 Zn89 2.035 1_565 S
O95 C97 1.258 . S
C96 O90 1.247 . S
C96 O91 1.258 . S
C97 O94 1.247 . S
C97 O95 1.258 . S
C98 O100 1.247 . S
C98 O102 1.258 . S
C99 O106 1.247 . S
C99 O107 1.258 . S
O100 C98 1.247 . S
O100 Zn101 2.028 . S
Zn101 O100 2.028 . S
Zn101 O105 2.035 . S
Zn101 O107 2.035 . S
Zn101 O108 2.028 . S
O102 C98 1.258 . S
O102 Zn103 2.035 . S
Zn103 O102 2.035 . S
Zn103 O104 2.028 . S
Zn103 O106 2.028 . S
Zn103 O109 2.035 . S
O104 Zn103 2.028 . S
O104 C110 1.247 . S
O105 Zn101 2.035 . S
O105 C110 1.258 . S
O106 C99 1.247 . S
O106 Zn103 2.028 . S
O107 C99 1.258 . S
O107 Zn101 2.035 . S
O108 Zn101 2.028 . S
O108 C111 1.247 . S
O109 Zn103 2.035 . S
O109 C111 1.258 . S
C110 O104 1.247 . S
C110 O105 1.258 . S
C111 O108 1.247 . S
C111 O109 1.258 . S
C112 O114 1.247 . S
C112 O116 1.258 . S
C113 O120 1.247 . S
C113 O121 1.258 . S
O114 C112 1.247 . S
O114 Zn115 2.028 . S
Zn115 O114 2.028 . S
Zn115 O119 2.035 . S
Zn115 O121 2.035 . S
Zn115 O122 2.028 . S
O116 C112 1.258 . S
O116 Zn117 2.035 . S
Zn117 O116 2.035 . S
Zn117 O118 2.028 . S
Zn117 O120 2.028 . S
Zn117 O123 2.035 . S
O118 Zn117 2.028 . S
O118 C124 1.247 . S
O119 Zn115 2.035 . S
O119 C124 1.258 . S
O120 C113 1.247 . S
O120 Zn117 2.028 . S
O121 C113 1.258 . S
O121 Zn115 2.035 . S
O122 Zn115 2.028 . S
O122 C125 1.247 . S
O123 Zn117 2.035 . S
O123 C125 1.258 . S
C124 O118 1.247 . S
C124 O119 1.258 . S
C125 O122 1.247 . S
C125 O123 1.258 . S
C126 O128 1.247 . S
C126 O130 1.258 . S
C127 O134 1.247 . S
C127 O135 1.258 . S
O128 C126 1.247 . S
O128 Zn129 2.028 . S
Zn129 O128 2.028 . S
Zn129 O133 2.035 . S
Zn129 O135 2.035 1_565 S
Zn129 O136 2.028 . S
O130 C126 1.258 . S
O130 Zn131 2.035 1_565 S
Zn131 O130 2.035 1_545 S
Zn131 O132 2.028 . S
Zn131 O134 2.028 . S
Zn131 O137 2.035 . S
O132 Zn131 2.028 . S
O132 C138 1.247 . S
O133 Zn129 2.035 . S
O133 C138 1.258 1_565 S
O134 C127 1.247 . S
O134 Zn131 2.028 . S
O135 C127 1.258 . S
O135 Zn129 2.035 1_545 S
O136 Zn129 2.028 . S
O136 C139 1.247 . S
O137 Zn131 2.035 . S
O137 C139 1.258 1_545 S
C138 O132 1.247 . S
C138 O133 1.258 1_545 S
C139 O136 1.247 . S
C139 O137 1.258 1_565 S
C140 O142 1.247 . S
C140 O144 1.258 . S
C141 O148 1.247 . S
C141 O149 1.258 . S
O142 C140 1.247 . S
O142 Zn143 2.028 . S
Zn143 O142 2.028 . S
Zn143 O147 2.035 . S
Zn143 O149 2.035 . S
Zn143 O150 2.028 . S
O144 C140 1.258 . S
O144 Zn145 2.035 . S
Zn145 O144 2.035 . S
Zn145 O146 2.028 . S
Zn145 O148 2.028 . S
Zn145 O151 2.035 . S
O146 Zn145 2.028 . S
O146 C152 1.247 . S
O147 Zn143 2.035 . S
O147 C152 1.258 . S
O148 C141 1.247 . S
O148 Zn145 2.028 . S
O149 C141 1.258 . S
O149 Zn143 2.035 . S
O150 Zn143 2.028 . S
O150 C153 1.247 . S
O151 Zn145 2.035 . S
O151 C153 1.258 . S
C152 O146 1.247 . S
C152 O147 1.258 . S
C153 O150 1.247 . S
C153 O151 1.258 . S
C154 O156 1.280 . S
C154 O158 1.258 . S
C155 O162 1.247 . S
C155 O163 1.258 . S
O156 C154 1.280 . S
O156 Zn157 2.009 1_554 S
Zn157 O156 2.009 1_556 S
Zn157 O161 2.035 . S
Zn157 O163 2.035 1_545 S
Zn157 O164 2.028 1_556 S
O158 C154 1.258 . S
O158 Zn159 2.035 1_545 S
Zn159 O158 2.035 1_565 S
Zn159 O160 2.028 1_554 S
Zn159 O162 2.028 1_554 S
Zn159 O165 2.035 . S
O160 Zn159 2.028 1_556 S
O160 C166 1.247 . S
O161 Zn157 2.035 . S
O161 C166 1.258 1_545 S
O162 C155 1.247 . S
O162 Zn159 2.028 1_556 S
O163 C155 1.258 . S
O163 Zn157 2.035 1_565 S
O164 Zn157 2.028 1_554 S
O164 C167 1.247 . S
O165 Zn159 2.035 . S
O165 C167 1.258 1_565 S
C166 O160 1.247 . S
C166 O161 1.258 1_565 S
C167 O164 1.247 . S
C167 O165 1.258 1_545 S
C168 O170 1.247 . S
C168 O172 1.258 . S
C169 O176 1.247 . S
C169 O177 1.258 . S
O170 C168 1.247 . S
O170 Zn171 2.028 . S
Zn171 O170 2.028 . S
Zn171 O175 2.035 . S
Zn171 O177 2.035 . S
Zn171 O178 2.028 . S
O172 C168 1.258 . S
O172 Zn173 2.035 . S
Zn173 O172 2.035 . S
Zn173 O174 2.028 . S
Zn173 O176 2.028 . S
Zn173 O179 2.035 . S
O174 Zn173 2.028 . S
O174 C180 1.247 . S
O175 Zn171 2.035 . S
O175 C180 1.258 . S
O176 C169 1.247 . S
O176 Zn173 2.028 . S
O177 C169 1.258 . S
O177 Zn171 2.035 . S
O178 Zn171 2.028 . S
O178 C181 1.247 . S
O179 Zn173 2.035 . S
O179 C181 1.258 . S
C180 O174 1.247 . S
C180 O175 1.258 . S
C181 O178 1.247 . S
C181 O179 1.258 . S
C182 O184 1.247 . S
C182 O186 1.258 1_455 S
C183 O190 1.247 . S
C183 O191 1.258 1_655 S
O184 C182 1.247 . S
O184 Zn185 2.028 . S
Zn185 O184 2.028 . S
Zn185 O189 2.035 1_455 S
Zn185 O191 2.035 . S
Zn185 O192 2.028 . S
O186 C182 1.258 1_655 S
O186 Zn187 2.035 . S
Zn187 O186 2.035 . S
Zn187 O188 2.028 . S
Zn187 O190 2.028 . S
Zn187 O193 2.035 1_655 S
O188 Zn187 2.028 . S
O188 C194 1.247 . S
O189 Zn185 2.035 1_655 S
O189 C194 1.258 . S
O190 C183 1.247 . S
O190 Zn187 2.028 . S
O191 C183 1.258 1_455 S
O191 Zn185 2.035 . S
O192 Zn185 2.028 . S
O192 C195 1.247 . S
O193 Zn187 2.035 1_455 S
O193 C195 1.258 . S
C194 O188 1.247 . S
C194 O189 1.258 . S
C195 O192 1.247 . S
C195 O193 1.258 . S
C196 O198 1.247 . S
C196 O200 1.258 . S
C197 O204 1.247 . S
C197 O205 1.258 . S
O198 C196 1.247 . S
O198 Zn199 2.028 . S
Zn199 O198 2.028 . S
Zn199 O203 2.035 . S
Zn199 O205 2.035 . S
Zn199 O206 2.028 . S
O200 C196 1.258 . S
O200 Zn201 2.035 . S
Zn201 O200 2.035 . S
Zn201 O202 2.028 . S
Zn201 O204 2.028 . S
Zn201 O207 2.035 . S
O202 Zn201 2.028 . S
O202 C208 1.247 . S
O203 Zn199 2.035 . S
O203 C208 1.258 . S
O204 C197 1.247 . S
O204 Zn201 2.028 . S
O205 C197 1.258 . S
O205 Zn199 2.035 . S
O206 Zn199 2.028 . S
O206 C209 1.247 . S
O207 Zn201 2.035 . S
O207 C209 1.258 . S
C208 O202 1.247 . S
C208 O203 1.258 . S
C209 O206 1.247 . S
C209 O207 1.258 . S
C210 O212 1.247 . S
C210 O214 1.258 . S
C211 O218 1.247 . S
C211 O219 1.258 . S
O212 C210 1.247 . S
O212 Zn213 2.028 . S
Zn213 O212 2.028 . S
Zn213 O217 2.035 . S
Zn213 O219 2.035 . S
Zn213 O220 2.028 . S
O214 C210 1.258 . S
O214 Zn215 2.035 . S
Zn215 O214 2.035 . S
Zn215 O216 2.028 . S
Zn215 O218 2.028 . S
Zn215 O221 2.035 . S
O216 Zn215 2.028 . S
O216 C222 1.247 . S
O217 Zn213 2.035 . S
O217 C222 1.258 . S
O218 C211 1.247 . S
O218 Zn215 2.028 . S
O219 C211 1.258 . S
O219 Zn213 2.035 . S
O220 Zn213 2.028 . S
O220 C223 1.247 . S
O221 Zn215 2.035 . S
O221 C223 1.258 . S
C222 O216 1.247 . S
C222 O217 1.258 . S
C223 O220 1.247 . S
C223 O221 1.258 . S
C224 O226 1.247 . S
C224 O228 1.258 . S
C225 O232 1.247 . S
C225 O233 1.258 . S
O226 C224 1.247 . S
O226 Zn227 2.028 . S
Zn227 O226 2.028 . S
Zn227 O231 2.035 . S
Zn227 O233 2.035 . S
Zn227 O234 2.028 . S
O228 C224 1.258 . S
O228 Zn229 2.035 . S
Zn229 O228 2.035 . S
Zn229 O230 2.028 . S
Zn229 O232 2.028 . S
Zn229 O235 2.035 . S
O230 Zn229 2.028 . S
O230 C236 1.247 . S
O231 Zn227 2.035 . S
O231 C236 1.258 . S
O232 C225 1.247 . S
O232 Zn229 2.028 . S
O233 C225 1.258 . S
O233 Zn227 2.035 . S
O234 Zn227 2.028 . S
O234 C237 1.247 . S
O235 Zn229 2.035 . S
O235 C237 1.258 . S
C236 O230 1.247 . S
C236 O231 1.258 . S
C237 O234 1.247 . S
C237 O235 1.258 . S
C238 O240 1.247 . S
C238 O242 1.258 . S
C239 O246 1.247 . S
C239 O247 1.258 . S
O240 C238 1.247 . S
O240 Zn241 2.028 . S
Zn241 O240 2.028 . S
Zn241 O245 2.035 . S
Zn241 O247 2.035 . S
Zn241 O248 2.028 . S
O242 C238 1.258 . S
O242 Zn243 2.035 . S
Zn243 O242 2.035 . S
Zn243 O244 2.028 . S
Zn243 O246 2.028 . S
Zn243 O249 2.035 . S
O244 Zn243 2.028 . S
O244 C250 1.247 . S
O245 Zn241 2.035 . S
O245 C250 1.258 . S
O246 C239 1.247 . S
O246 Zn243 2.028 . S
O247 C239 1.258 . S
O247 Zn241 2.035 . S
O248 Zn241 2.028 . S
O248 C251 1.247 . S
O249 Zn243 2.035 . S
O249 C251 1.258 . S
C250 O244 1.247 . S
C250 O245 1.258 . S
C251 O248 1.247 . S
C251 O249 1.258 . S
C252 O254 1.247 . S
C252 O256 1.258 . S
C253 O260 1.247 . S
C253 O261 1.258 . S
O254 C252 1.247 . S
O254 Zn255 2.028 1_556 S
Zn255 O254 2.028 1_554 S
Zn255 O259 2.035 1_655 S
Zn255 O261 2.035 1_655 S
Zn255 O262 2.028 . S
O256 C252 1.258 . S
O256 Zn257 2.035 1_655 S
Zn257 O256 2.035 1_455 S
Zn257 O258 2.028 . S
Zn257 O260 2.028 1_556 S
Zn257 O263 2.035 1_455 S
O258 Zn257 2.028 . S
O258 C264 1.247 1_556 S
O259 Zn255 2.035 1_455 S
O259 C264 1.258 . S
O260 C253 1.247 . S
O260 Zn257 2.028 1_554 S
O261 C253 1.258 . S
O261 Zn255 2.035 1_455 S
O262 Zn255 2.028 . S
O262 C265 1.247 1_554 S
O263 Zn257 2.035 1_655 S
O263 C265 1.258 . S
C264 O258 1.247 1_554 S
C264 O259 1.258 . S
C265 O262 1.247 1_556 S
C265 O263 1.258 . S
C266 O268 1.247 . S
C266 O270 1.258 . S
C267 O274 1.247 . S
C267 O275 1.258 . S
O268 C266 1.247 . S
O268 Zn269 2.028 . S
Zn269 O268 2.028 . S
Zn269 O273 2.035 . S
Zn269 O275 2.035 . S
Zn269 O276 2.028 . S
O270 C266 1.258 . S
O270 Zn271 2.035 . S
Zn271 O270 2.035 . S
Zn271 O272 2.028 . S
Zn271 O274 2.028 . S
Zn271 O277 2.035 . S
O272 Zn271 2.028 . S
O272 C278 1.247 . S
O273 Zn269 2.035 . S
O273 C278 1.258 . S
O274 C267 1.247 . S
O274 Zn271 2.028 . S
O275 C267 1.258 . S
O275 Zn269 2.035 . S
O276 Zn269 2.028 . S
O276 C279 1.247 . S
O277 Zn271 2.035 . S
O277 C279 1.258 . S
C278 O272 1.247 . S
C278 O273 1.258 . S
C279 O276 1.247 . S
C279 O277 1.258 . S
C280 O282 1.247 . S
C280 O284 1.258 . S
C281 O288 1.247 . S
C281 O289 1.258 . S
O282 C280 1.247 . S
O282 Zn283 2.028 . S
Zn283 O282 2.028 . S
Zn283 O287 2.035 . S
Zn283 O289 2.035 . S
Zn283 O290 2.028 . S
O284 C280 1.258 . S
O284 Zn285 2.035 . S
Zn285 O284 2.035 . S
Zn285 O286 2.028 . S
Zn285 O288 2.028 . S
Zn285 O291 2.035 . S
O286 Zn285 2.028 . S
O286 C292 1.247 . S
O287 Zn283 2.035 . S
O287 C292 1.258 . S
O288 C281 1.247 . S
O288 Zn285 2.028 . S
O289 C281 1.258 . S
O289 Zn283 2.035 . S
O290 Zn283 2.028 . S
O290 C293 1.247 . S
O291 Zn285 2.035 . S
O291 C293 1.258 . S
C292 O286 1.247 . S
C292 O287 1.258 . S
C293 O290 1.247 . S
C293 O291 1.258 . S
C294 O296 1.247 . S
C294 O298 1.258 . S
C295 O302 1.247 . S
C295 O303 1.258 . S
O296 C294 1.247 . S
O296 Zn297 2.028 . S
Zn297 O296 2.028 . S
Zn297 O301 2.035 . S
Zn297 O303 2.035 . S
Zn297 O304 2.028 . S
O298 C294 1.258 . S
O298 Zn299 2.035 . S
Zn299 O298 2.035 . S
Zn299 O300 2.028 . S
Zn299 O302 2.028 . S
Zn299 O305 2.035 . S
O300 Zn299 2.028 . S
O300 C306 1.247 . S
O301 Zn297 2.035 . S
O301 C306 1.258 . S
O302 C295 1.247 . S
O302 Zn299 2.028 . S
O303 C295 1.258 . S
O303 Zn297 2.035 . S
O304 Zn297 2.028 . S
O304 C307 1.247 . S
O305 Zn299 2.035 . S
O305 C307 1.258 . S
C306 O300 1.247 . S
C306 O301 1.258 . S
C307 O304 1.247 . S
C307 O305 1.258 . S
C308 O310 1.247 . S
C308 O312 1.258 . S
C309 O316 1.247 . S
C309 O317 1.258 . S
O310 C308 1.247 . S
O310 Zn311 2.028 1_556 S
Zn311 O310 2.028 1_554 S
Zn311 O315 2.035 . S
Zn311 O317 2.035 . S
Zn311 O318 2.028 1_554 S
O312 C308 1.258 . S
O312 Zn313 2.035 . S
Zn313 O312 2.035 . S
Zn313 O314 2.028 1_556 S
Zn313 O316 2.028 1_556 S
Zn313 O319 2.035 . S
O314 Zn313 2.028 1_554 S
O314 C320 1.247 . S
O315 Zn311 2.035 . S
O315 C320 1.258 . S
O316 C309 1.247 . S
O316 Zn313 2.028 1_554 S
O317 C309 1.258 . S
O317 Zn311 2.035 . S
O318 Zn311 2.028 1_556 S
O318 C321 1.247 . S
O319 Zn313 2.035 . S
O319 C321 1.258 . S
C320 O314 1.247 . S
C320 O315 1.258 . S
C321 O318 1.247 . S
C321 O319 1.258 . S
C322 O324 1.247 . S
C322 O326 1.258 . S
C323 O330 1.247 . S
C323 O331 1.258 . S
O324 C322 1.247 . S
O324 Zn325 2.028 . S
Zn325 O324 2.028 . S
Zn325 O329 2.035 . S
Zn325 O331 2.035 . S
Zn325 O332 2.028 . S
O326 C322 1.258 . S
O326 Zn327 2.035 . S
Zn327 O326 2.035 . S
Zn327 O328 2.028 . S
Zn327 O330 2.028 . S
Zn327 O333 2.035 . S
O328 Zn327 2.028 . S
O328 C334 1.247 . S
O329 Zn325 2.035 . S
O329 C334 1.258 . S
O330 C323 1.247 . S
O330 Zn327 2.028 . S
O331 C323 1.258 . S
O331 Zn325 2.035 . S
O332 Zn325 2.028 . S
O332 C335 1.247 . S
O333 Zn327 2.035 . S
O333 C335 1.258 . S
C334 O328 1.247 . S
C334 O329 1.258 . S
C335 O332 1.247 . S
C335 O333 1.258 . S
C336 C337 1.349 . S
C336 C338 1.327 . S
C336 H361 0.950 . S
C337 C336 1.349 . S
C337 C353 1.349 . S
C338 C336 1.327 . S
C338 C357 1.429 . S
C338 H362 0.950 . S
C339 C356 1.574 . S
C339 C358 1.368 . S
C339 H363 0.949 . S
H340 C344 0.949 . S
C341 C342 1.349 . S
C341 C343 1.327 . S
C341 H364 0.950 . S
C342 C341 1.349 . S
C342 C354 1.349 . S
C343 C341 1.327 . S
C343 C359 1.429 . S
C343 H365 0.950 . S
C344 H340 0.949 . S
C344 C352 1.574 . S
C344 C360 1.368 . S
H345 C353 0.950 . S
H346 C351 0.950 . S
H347 C352 0.949 . S
H348 C354 0.950 . S
H349 C355 0.950 . S
H350 C356 0.949 . S
C351 H346 0.950 . S
C351 C353 1.327 . S
C351 C357 1.429 . S
C352 C344 1.574 . S
C352 H347 0.949 . S
C352 C358 1.368 . S
C353 C337 1.349 . S
C353 H345 0.950 . S
C353 C351 1.327 . S
C354 C342 1.349 . S
C354 H348 0.950 . S
C354 C355 1.327 . S
C355 H349 0.950 . S
C355 C354 1.327 . S
C355 C359 1.429 . S
C356 C339 1.574 . S
C356 H350 0.949 . S
C356 C360 1.368 . S
C357 C338 1.429 . S
C357 C351 1.429 . S
C357 C358 1.523 . S
C358 C339 1.368 . S
C358 C352 1.368 . S
C358 C357 1.523 . S
C359 C343 1.429 . S
C359 C355 1.429 . S
C359 C360 1.523 . S
C360 C344 1.368 . S
C360 C356 1.368 . S
C360 C359 1.523 . S
H361 C336 0.950 . S
H362 C338 0.950 . S
H363 C339 0.949 . S
H364 C341 0.950 . S
H365 C343 0.950 . S
C366 C367 1.349 . S
C366 C368 1.327 . S
C366 H391 0.950 . S
C367 C366 1.349 . S
C367 C383 1.349 . S
C368 C366 1.327 . S
C368 C387 1.429 . S
C368 H392 0.950 . S
C369 C386 1.574 . S
C369 C388 1.368 . S
C369 H393 0.949 . S
H370 C374 0.949 . S
C371 C372 1.349 . S
C371 C373 1.327 . S
C371 H394 0.950 . S
C372 C371 1.349 . S
C372 C384 1.349 . S
C373 C371 1.327 . S
C373 C389 1.429 . S
C373 H395 0.950 . S
C374 H370 0.949 . S
C374 C382 1.574 . S
C374 C390 1.368 . S
H375 C383 0.950 . S
H376 C381 0.950 . S
H377 C382 0.949 . S
H378 C384 0.950 . S
H379 C385 0.950 . S
H380 C386 0.949 . S
C381 H376 0.950 . S
C381 C383 1.327 . S
C381 C387 1.429 . S
C382 C374 1.574 . S
C382 H377 0.949 . S
C382 C388 1.368 . S
C383 C367 1.349 . S
C383 H375 0.950 . S
C383 C381 1.327 . S
C384 C372 1.349 . S
C384 H378 0.950 . S
C384 C385 1.327 . S
C385 H379 0.950 . S
C385 C384 1.327 . S
C385 C389 1.429 . S
C386 C369 1.574 . S
C386 H380 0.949 . S
C386 C390 1.368 . S
C387 C368 1.429 . S
C387 C381 1.429 . S
C387 C388 1.523 . S
C388 C369 1.368 . S
C388 C382 1.368 . S
C388 C387 1.523 . S
C389 C373 1.429 . S
C389 C385 1.429 . S
C389 C390 1.523 . S
C390 C374 1.368 . S
C390 C386 1.368 . S
C390 C389 1.523 . S
H391 C366 0.950 . S
H392 C368 0.950 . S
H393 C369 0.949 . S
H394 C371 0.950 . S
H395 C373 0.950 . S
C396 C397 1.349 . S
C396 C398 1.327 . S
C396 H421 0.950 . S
C397 C396 1.349 . S
C397 C413 1.349 . S
C398 C396 1.327 . S
C398 C417 1.429 . S
C398 H422 0.950 . S
C399 C416 1.574 . S
C399 C418 1.368 . S
C399 H423 0.949 . S
H400 C404 0.949 . S
C401 C402 1.349 . S
C401 C403 1.327 . S
C401 H424 0.950 . S
C402 C401 1.349 . S
C402 C414 1.349 . S
C403 C401 1.327 . S
C403 C419 1.429 . S
C403 H425 0.950 . S
C404 H400 0.949 . S
C404 C412 1.574 . S
C404 C420 1.368 . S
H405 C413 0.950 . S
H406 C411 0.950 . S
H407 C412 0.949 . S
H408 C414 0.950 . S
H409 C415 0.950 . S
H410 C416 0.949 . S
C411 H406 0.950 . S
C411 C413 1.327 . S
C411 C417 1.429 . S
C412 C404 1.574 . S
C412 H407 0.949 . S
C412 C418 1.368 . S
C413 C397 1.349 . S
C413 H405 0.950 . S
C413 C411 1.327 . S
C414 C402 1.349 . S
C414 H408 0.950 . S
C414 C415 1.327 . S
C415 H409 0.950 . S
C415 C414 1.327 . S
C415 C419 1.429 . S
C416 C399 1.574 . S
C416 H410 0.949 . S
C416 C420 1.368 . S
C417 C398 1.429 . S
C417 C411 1.429 . S
C417 C418 1.523 . S
C418 C399 1.368 . S
C418 C412 1.368 . S
C418 C417 1.523 . S
C419 C403 1.429 . S
C419 C415 1.429 . S
C419 C420 1.523 . S
C420 C404 1.368 . S
C420 C416 1.368 . S
C420 C419 1.523 . S
H421 C396 0.950 . S
H422 C398 0.950 . S
H423 C399 0.949 . S
H424 C401 0.950 . S
H425 C403 0.950 . S
C426 C427 1.349 . S
C426 C428 1.327 . S
C426 H451 0.950 . S
C427 C426 1.349 . S
C427 C443 1.349 . S
C428 C426 1.327 . S
C428 C447 1.429 . S
C428 H452 0.950 . S
C429 C446 1.574 . S
C429 C448 1.368 . S
C429 H453 0.949 . S
H430 C434 0.949 . S
C431 C432 1.349 . S
C431 C433 1.327 . S
C431 H454 0.950 . S
C432 C431 1.349 . S
C432 C444 1.349 . S
C433 C431 1.327 . S
C433 C449 1.429 . S
C433 H455 0.950 . S
C434 H430 0.949 . S
C434 C442 1.574 . S
C434 C450 1.368 . S
H435 C443 0.950 . S
H436 C441 0.950 . S
H437 C442 0.949 . S
H438 C444 0.950 . S
H439 C445 0.950 . S
H440 C446 0.949 . S
C441 H436 0.950 . S
C441 C443 1.327 . S
C441 C447 1.429 . S
C442 C434 1.574 . S
C442 H437 0.949 . S
C442 C448 1.368 . S
C443 C427 1.349 . S
C443 H435 0.950 . S
C443 C441 1.327 . S
C444 C432 1.349 . S
C444 H438 0.950 . S
C444 C445 1.327 . S
C445 H439 0.950 . S
C445 C444 1.327 . S
C445 C449 1.429 . S
C446 C429 1.574 . S
C446 H440 0.949 . S
C446 C450 1.368 . S
C447 C428 1.429 . S
C447 C441 1.429 . S
C447 C448 1.523 . S
C448 C429 1.368 . S
C448 C442 1.368 . S
C448 C447 1.523 . S
C449 C433 1.429 . S
C449 C445 1.429 . S
C449 C450 1.523 . S
C450 C434 1.368 . S
C450 C446 1.368 . S
C450 C449 1.523 . S
H451 C426 0.950 . S
H452 C428 0.950 . S
H453 C429 0.949 . S
H454 C431 0.950 . S
H455 C433 0.950 . S
C456 C457 1.349 . S
C456 C458 1.327 . S
C456 H481 0.950 . S
C457 C456 1.349 . S
C457 C473 1.349 . S
C458 C456 1.327 . S
C458 C477 1.429 . S
C458 H482 0.950 . S
C459 C476 1.574 . S
C459 C478 1.368 . S
C459 H483 0.949 . S
H460 C464 0.949 . S
C461 C462 1.349 . S
C461 C463 1.327 . S
C461 H484 0.950 . S
C462 C461 1.349 . S
C462 C474 1.349 . S
C463 C461 1.327 . S
C463 C479 1.429 . S
C463 H485 0.950 . S
C464 H460 0.949 . S
C464 C472 1.574 . S
C464 C480 1.368 . S
H465 C473 0.950 . S
H466 C471 0.950 . S
H467 C472 0.949 . S
H468 C474 0.950 . S
H469 C475 0.950 . S
H470 C476 0.949 . S
C471 H466 0.950 . S
C471 C473 1.327 . S
C471 C477 1.429 . S
C472 C464 1.574 . S
C472 H467 0.949 . S
C472 C478 1.368 . S
C473 C457 1.349 . S
C473 H465 0.950 . S
C473 C471 1.327 . S
C474 C462 1.349 . S
C474 H468 0.950 . S
C474 C475 1.327 . S
C475 H469 0.950 . S
C475 C474 1.327 . S
C475 C479 1.429 . S
C476 C459 1.574 . S
C476 H470 0.949 . S
C476 C480 1.368 . S
C477 C458 1.429 . S
C477 C471 1.429 . S
C477 C478 1.523 . S
C478 C459 1.368 . S
C478 C472 1.368 . S
C478 C477 1.523 . S
C479 C463 1.429 . S
C479 C475 1.429 . S
C479 C480 1.523 . S
C480 C464 1.368 . S
C480 C476 1.368 . S
C480 C479 1.523 . S
H481 C456 0.950 . S
H482 C458 0.950 . S
H483 C459 0.949 . S
H484 C461 0.950 . S
H485 C463 0.950 . S
C486 C487 1.349 . S
C486 C488 1.327 . S
C486 H511 0.950 . S
C487 C486 1.349 . S
C487 C503 1.349 . S
C488 C486 1.327 . S
C488 C507 1.429 . S
C488 H512 0.950 . S
C489 C506 1.574 . S
C489 C508 1.368 . S
C489 H513 0.949 . S
H490 C494 0.949 . S
C491 C492 1.349 . S
C491 C493 1.327 . S
C491 H514 0.950 . S
C492 C491 1.349 . S
C492 C504 1.349 . S
C493 C491 1.327 . S
C493 C509 1.429 . S
C493 H515 0.950 . S
C494 H490 0.949 . S
C494 C502 1.574 . S
C494 C510 1.368 . S
H495 C503 0.950 . S
H496 C501 0.950 . S
H497 C502 0.949 . S
H498 C504 0.950 . S
H499 C505 0.950 . S
H500 C506 0.949 . S
C501 H496 0.950 . S
C501 C503 1.327 . S
C501 C507 1.429 . S
C502 C494 1.574 . S
C502 H497 0.949 . S
C502 C508 1.368 . S
C503 C487 1.349 . S
C503 H495 0.950 . S
C503 C501 1.327 . S
C504 C492 1.349 . S
C504 H498 0.950 . S
C504 C505 1.327 . S
C505 H499 0.950 . S
C505 C504 1.327 . S
C505 C509 1.429 . S
C506 C489 1.574 . S
C506 H500 0.949 . S
C506 C510 1.368 . S
C507 C488 1.429 . S
C507 C501 1.429 . S
C507 C508 1.523 . S
C508 C489 1.368 . S
C508 C502 1.368 . S
C508 C507 1.523 . S
C509 C493 1.429 . S
C509 C505 1.429 . S
C509 C510 1.523 . S
C510 C494 1.368 . S
C510 C506 1.368 . S
C510 C509 1.523 . S
H511 C486 0.950 . S
H512 C488 0.950 . S
H513 C489 0.949 . S
H514 C491 0.950 . S
H515 C493 0.950 . S
C516 C517 1.349 . S
C516 C518 1.327 . S
C516 H541 0.950 . S
C517 C516 1.349 . S
C517 C533 1.349 . S
C518 C516 1.327 . S
C518 C537 1.429 . S
C518 H542 0.950 . S
C519 C536 1.574 . S
C519 C538 1.368 . S
C519 H543 0.949 . S
H520 C524 0.949 . S
C521 C522 1.349 . S
C521 C523 1.327 . S
C521 H544 0.950 . S
C522 C521 1.349 . S
C522 C534 1.349 . S
C523 C521 1.327 . S
C523 C539 1.429 . S
C523 H545 0.950 . S
C524 H520 0.949 . S
C524 C532 1.574 . S
C524 C540 1.368 . S
H525 C533 0.950 . S
H526 C531 0.950 . S
H527 C532 0.949 . S
H528 C534 0.950 . S
H529 C535 0.950 . S
H530 C536 0.949 . S
C531 H526 0.950 . S
C531 C533 1.327 . S
C531 C537 1.429 . S
C532 C524 1.574 . S
C532 H527 0.949 . S
C532 C538 1.368 . S
C533 C517 1.349 . S
C533 H525 0.950 . S
C533 C531 1.327 . S
C534 C522 1.349 . S
C534 H528 0.950 . S
C534 C535 1.327 . S
C535 H529 0.950 . S
C535 C534 1.327 . S
C535 C539 1.429 . S
C536 C519 1.574 . S
C536 H530 0.949 . S
C536 C540 1.368 . S
C537 C518 1.429 . S
C537 C531 1.429 . S
C537 C538 1.523 . S
C538 C519 1.368 . S
C538 C532 1.368 . S
C538 C537 1.523 . S
C539 C523 1.429 . S
C539 C535 1.429 . S
C539 C540 1.523 . S
C540 C524 1.368 . S
C540 C536 1.368 . S
C540 C539 1.523 . S
H541 C516 0.950 . S
H542 C518 0.950 . S
H543 C519 0.949 . S
H544 C521 0.950 . S
H545 C523 0.950 . S
C546 C547 1.349 . S
C546 C548 1.329 . S
C546 H571 0.950 1_554 S
C547 C546 1.349 . S
C547 C563 1.349 . S
C548 C546 1.329 . S
C548 C567 1.453 . S
C548 H572 0.924 1_554 S
C549 C566 1.574 . S
C549 C568 1.368 . S
C549 H573 0.949 . S
H550 C554 0.949 . S
C551 C552 1.349 . S
C551 C553 1.327 . S
C551 H574 0.950 . S
C552 C551 1.349 . S
C552 C564 1.349 1_554 S
C553 C551 1.327 . S
C553 C569 1.429 . S
C553 H575 0.950 . S
C554 H550 0.949 . S
C554 C562 1.574 . S
C554 C570 1.368 1_556 S
H555 C563 0.950 . S
H556 C561 0.950 . S
H557 C562 0.949 . S
H558 C564 0.950 . S
H559 C565 0.950 . S
H560 C566 0.949 . S
C561 H556 0.950 . S
C561 C563 1.327 . S
C561 C567 1.429 . S
C562 C554 1.574 . S
C562 H557 0.949 . S
C562 C568 1.368 1_556 S
C563 C547 1.349 . S
C563 H555 0.950 . S
C563 C561 1.327 . S
C564 C552 1.349 1_556 S
C564 H558 0.950 . S
C564 C565 1.327 . S
C565 H559 0.950 . S
C565 C564 1.327 . S
C565 C569 1.429 1_556 S
C566 C549 1.574 . S
C566 H560 0.949 . S
C566 C570 1.368 . S
C567 C548 1.453 . S
C567 C561 1.429 . S
C567 C568 1.523 . S
C568 C549 1.368 . S
C568 C562 1.368 1_554 S
C568 C567 1.523 . S
C569 C553 1.429 . S
C569 C565 1.429 1_554 S
C569 C570 1.523 . S
C570 C554 1.368 1_554 S
C570 C566 1.368 . S
C570 C569 1.523 . S
H571 C546 0.950 1_556 S
H572 C548 0.924 1_556 S
H573 C549 0.949 . S
H574 C551 0.950 . S
H575 C553 0.950 . S
C576 C577 1.349 . S
C576 C578 1.330 . S
C576 H601 0.950 1_545 S
C577 C576 1.349 . S
C577 C593 1.349 . S
C578 C576 1.330 . S
C578 C597 1.463 . S
C578 H602 0.913 1_545 S
C579 C596 1.574 . S
C579 C598 1.368 . S
C579 H603 0.949 . S
H580 C584 0.949 . S
C581 C582 1.349 . S
C581 C583 1.327 . S
C581 H604 0.950 . S
C582 C581 1.349 . S
C582 C594 1.349 1_545 S
C583 C581 1.327 . S
C583 C599 1.429 . S
C583 H605 0.950 . S
C584 H580 0.949 . S
C584 C592 1.574 . S
C584 C600 1.368 1_565 S
H585 C593 0.950 . S
H586 C591 0.950 . S
H587 C592 0.949 . S
H588 C594 0.950 . S
H589 C595 0.950 . S
H590 C596 0.949 . S
C591 H586 0.950 . S
C591 C593 1.327 . S
C591 C597 1.429 . S
C592 C584 1.574 . S
C592 H587 0.949 . S
C592 C598 1.368 1_565 S
C593 C577 1.349 . S
C593 H585 0.950 . S
C593 C591 1.327 . S
C594 C582 1.349 1_565 S
C594 H588 0.950 . S
C594 C595 1.327 . S
C595 H589 0.950 . S
C595 C594 1.327 . S
C595 C599 1.429 1_565 S
C596 C579 1.574 . S
C596 H590 0.949 . S
C596 C600 1.368 . S
C597 C578 1.463 . S
C597 C591 1.429 . S
C597 C598 1.523 . S
C598 C579 1.368 . S
C598 C592 1.368 1_545 S
C598 C597 1.523 . S
C599 C583 1.429 . S
C599 C595 1.429 1_545 S
C599 C600 1.523 . S
C600 C584 1.368 1_545 S
C600 C596 1.368 . S
C600 C599 1.523 . S
H601 C576 0.950 1_565 S
H602 C578 0.913 1_565 S
H603 C579 0.949 . S
H604 C581 0.950 . S
H605 C583 0.950 . S
C606 C607 1.349 . S
C606 C608 1.327 . S
C606 H631 0.950 . S
C607 C606 1.349 . S
C607 C623 1.349 . S
C608 C606 1.327 . S
C608 C627 1.429 . S
C608 H632 0.950 . S
C609 C626 1.574 . S
C609 C628 1.368 . S
C609 H633 0.949 . S
H610 C614 0.949 . S
C611 C612 1.349 . S
C611 C613 1.327 . S
C611 H634 0.950 . S
C612 C611 1.349 . S
C612 C624 1.349 . S
C613 C611 1.327 . S
C613 C629 1.429 . S
C613 H635 0.950 . S
C614 H610 0.949 . S
C614 C622 1.574 . S
C614 C630 1.368 . S
H615 C623 0.950 . S
H616 C621 0.950 . S
H617 C622 0.949 . S
H618 C624 0.950 . S
H619 C625 0.950 . S
H620 C626 0.949 . S
C621 H616 0.950 . S
C621 C623 1.327 . S
C621 C627 1.429 . S
C622 C614 1.574 . S
C622 H617 0.949 . S
C622 C628 1.368 . S
C623 C607 1.349 . S
C623 H615 0.950 . S
C623 C621 1.327 . S
C624 C612 1.349 . S
C624 H618 0.950 . S
C624 C625 1.327 . S
C625 H619 0.950 . S
C625 C624 1.327 . S
C625 C629 1.429 . S
C626 C609 1.574 . S
C626 H620 0.949 . S
C626 C630 1.368 . S
C627 C608 1.429 . S
C627 C621 1.429 . S
C627 C628 1.523 . S
C628 C609 1.368 . S
C628 C622 1.368 . S
C628 C627 1.523 . S
C629 C613 1.429 . S
C629 C625 1.429 . S
C629 C630 1.523 . S
C630 C614 1.368 . S
C630 C626 1.368 . S
C630 C629 1.523 . S
H631 C606 0.950 . S
H632 C608 0.950 . S
H633 C609 0.949 . S
H634 C611 0.950 . S
H635 C613 0.950 . S
C636 C637 1.349 . S
C636 C638 1.327 . S
C636 H661 0.950 . S
C637 C636 1.349 . S
C637 C653 1.349 1_565 S
C638 C636 1.327 . S
C638 C657 1.429 . S
C638 H662 0.950 . S
C639 C656 1.574 . S
C639 C658 1.368 1_545 S
C639 H663 0.949 . S
H640 C644 0.949 . S
C641 C642 1.349 . S
C641 C643 1.329 . S
C641 H664 0.950 1_565 S
C642 C641 1.349 . S
C642 C654 1.349 . S
C643 C641 1.329 . S
C643 C659 1.445 . S
C643 H665 0.932 1_565 S
C644 H640 0.949 . S
C644 C652 1.574 . S
C644 C660 1.368 . S
H645 C653 0.950 . S
H646 C651 0.950 . S
H647 C652 0.949 . S
H648 C654 0.950 . S
H649 C655 0.950 . S
H650 C656 0.949 . S
C651 H646 0.950 . S
C651 C653 1.327 . S
C651 C657 1.429 1_545 S
C652 C644 1.574 . S
C652 H647 0.949 . S
C652 C658 1.368 . S
C653 C637 1.349 1_545 S
C653 H645 0.950 . S
C653 C651 1.327 . S
C654 C642 1.349 . S
C654 H648 0.950 . S
C654 C655 1.327 . S
C655 H649 0.950 . S
C655 C654 1.327 . S
C655 C659 1.429 . S
C656 C639 1.574 . S
C656 H650 0.949 . S
C656 C660 1.368 1_545 S
C657 C638 1.429 . S
C657 C651 1.429 1_565 S
C657 C658 1.523 . S
C658 C639 1.368 1_565 S
C658 C652 1.368 . S
C658 C657 1.523 . S
C659 C643 1.445 . S
C659 C655 1.429 . S
C659 C660 1.523 . S
C660 C644 1.368 . S
C660 C656 1.368 1_565 S
C660 C659 1.523 . S
H661 C636 0.950 . S
H662 C638 0.950 . S
H663 C639 0.949 . S
H664 C641 0.950 1_545 S
H665 C643 0.932 1_545 S
C666 C667 1.349 . S
C666 C668 1.327 . S
C666 H691 0.950 . S
C667 C666 1.349 . S
C667 C683 1.349 . S
C668 C666 1.327 . S
C668 C687 1.429 . S
C668 H692 0.950 . S
C669 C686 1.574 . S
C669 C688 1.368 . S
C669 H693 0.949 . S
H670 C674 0.949 . S
C671 C672 1.349 . S
C671 C673 1.327 . S
C671 H694 0.950 . S
C672 C671 1.349 . S
C672 C684 1.349 . S
C673 C671 1.327 . S
C673 C689 1.429 . S
C673 H695 0.950 . S
C674 H670 0.949 . S
C674 C682 1.574 . S
C674 C690 1.368 . S
H675 C683 0.950 . S
H676 C681 0.950 . S
H677 C682 0.949 . S
H678 C684 0.950 . S
H679 C685 0.950 . S
H680 C686 0.949 . S
C681 H676 0.950 . S
C681 C683 1.327 . S
C681 C687 1.429 . S
C682 C674 1.574 . S
C682 H677 0.949 . S
C682 C688 1.368 . S
C683 C667 1.349 . S
C683 H675 0.950 . S
C683 C681 1.327 . S
C684 C672 1.349 . S
C684 H678 0.950 . S
C684 C685 1.327 . S
C685 H679 0.950 . S
C685 C684 1.327 . S
C685 C689 1.429 . S
C686 C669 1.574 . S
C686 H680 0.949 . S
C686 C690 1.368 . S
C687 C668 1.429 . S
C687 C681 1.429 . S
C687 C688 1.523 . S
C688 C669 1.368 . S
C688 C682 1.368 . S
C688 C687 1.523 . S
C689 C673 1.429 . S
C689 C685 1.429 . S
C689 C690 1.523 . S
C690 C674 1.368 . S
C690 C686 1.368 . S
C690 C689 1.523 . S
H691 C666 0.950 . S
H692 C668 0.950 . S
H693 C669 0.949 . S
H694 C671 0.950 . S
H695 C673 0.950 . S
C696 C697 1.349 . S
C696 C698 1.327 . S
C696 H721 0.950 . S
C697 C696 1.349 . S
C697 C713 1.349 . S
C698 C696 1.327 . S
C698 C717 1.429 . S
C698 H722 0.950 . S
C699 C716 1.574 . S
C699 C718 1.368 . S
C699 H723 0.949 . S
H700 C704 0.949 . S
C701 C702 1.349 . S
C701 C703 1.327 . S
C701 H724 0.950 . S
C702 C701 1.349 . S
C702 C714 1.349 . S
C703 C701 1.327 . S
C703 C719 1.429 . S
C703 H725 0.950 . S
C704 H700 0.949 . S
C704 C712 1.574 . S
C704 C720 1.368 . S
H705 C713 0.950 . S
H706 C711 0.950 . S
H707 C712 0.949 . S
H708 C714 0.950 . S
H709 C715 0.950 . S
H710 C716 0.949 . S
C711 H706 0.950 . S
C711 C713 1.327 . S
C711 C717 1.429 . S
C712 C704 1.574 . S
C712 H707 0.949 . S
C712 C718 1.368 . S
C713 C697 1.349 . S
C713 H705 0.950 . S
C713 C711 1.327 . S
C714 C702 1.349 . S
C714 H708 0.950 . S
C714 C715 1.327 . S
C715 H709 0.950 . S
C715 C714 1.327 . S
C715 C719 1.429 . S
C716 C699 1.574 . S
C716 H710 0.949 . S
C716 C720 1.368 . S
C717 C698 1.429 . S
C717 C711 1.429 . S
C717 C718 1.523 . S
C718 C699 1.368 . S
C718 C712 1.368 . S
C718 C717 1.523 . S
C719 C703 1.429 . S
C719 C715 1.429 . S
C719 C720 1.523 . S
C720 C704 1.368 . S
C720 C716 1.368 . S
C720 C719 1.523 . S
H721 C696 0.950 . S
H722 C698 0.950 . S
H723 C699 0.949 . S
H724 C701 0.950 . S
H725 C703 0.950 . S
C726 C727 1.349 . S
C726 C728 1.327 . S
C726 H751 0.950 . S
C727 C726 1.349 . S
C727 C743 1.349 . S
C728 C726 1.327 . S
C728 C747 1.429 . S
C728 H752 0.950 . S
C729 C746 1.574 . S
C729 C748 1.368 . S
C729 H753 0.949 . S
H730 C734 0.949 . S
C731 C732 1.349 . S
C731 C733 1.327 . S
C731 H754 0.950 . S
C732 C731 1.349 . S
C732 C744 1.349 . S
C733 C731 1.327 . S
C733 C749 1.429 . S
C733 H755 0.950 . S
C734 H730 0.949 . S
C734 C742 1.574 . S
C734 C750 1.368 . S
H735 C743 0.950 . S
H736 C741 0.950 . S
H737 C742 0.949 . S
H738 C744 0.950 . S
H739 C745 0.950 . S
H740 C746 0.949 . S
C741 H736 0.950 . S
C741 C743 1.327 . S
C741 C747 1.429 . S
C742 C734 1.574 . S
C742 H737 0.949 . S
C742 C748 1.368 . S
C743 C727 1.349 . S
C743 H735 0.950 . S
C743 C741 1.327 . S
C744 C732 1.349 . S
C744 H738 0.950 . S
C744 C745 1.327 . S
C745 H739 0.950 . S
C745 C744 1.327 . S
C745 C749 1.429 . S
C746 C729 1.574 . S
C746 H740 0.949 . S
C746 C750 1.368 . S
C747 C728 1.429 . S
C747 C741 1.429 . S
C747 C748 1.523 . S
C748 C729 1.368 . S
C748 C742 1.368 . S
C748 C747 1.523 . S
C749 C733 1.429 . S
C749 C745 1.429 . S
C749 C750 1.523 . S
C750 C734 1.368 . S
C750 C746 1.368 . S
C750 C749 1.523 . S
H751 C726 0.950 . S
H752 C728 0.950 . S
H753 C729 0.949 . S
H754 C731 0.950 . S
H755 C733 0.950 . S
C756 C757 1.349 . S
C756 C758 1.327 . S
C756 H781 0.950 . S
C757 C756 1.349 . S
C757 C773 1.349 . S
C758 C756 1.327 . S
C758 C777 1.429 . S
C758 H782 0.950 . S
C759 C776 1.574 . S
C759 C778 1.368 . S
C759 H783 0.949 . S
H760 C764 0.949 . S
C761 C762 1.349 . S
C761 C763 1.327 . S
C761 H784 0.950 . S
C762 C761 1.349 . S
C762 C774 1.349 . S
C763 C761 1.327 . S
C763 C779 1.429 . S
C763 H785 0.950 . S
C764 H760 0.949 . S
C764 C772 1.574 . S
C764 C780 1.368 . S
H765 C773 0.950 . S
H766 C771 0.950 . S
H767 C772 0.949 . S
H768 C774 0.950 . S
H769 C775 0.950 . S
H770 C776 0.949 . S
C771 H766 0.950 . S
C771 C773 1.327 . S
C771 C777 1.429 . S
C772 C764 1.574 . S
C772 H767 0.949 . S
C772 C778 1.368 . S
C773 C757 1.349 . S
C773 H765 0.950 . S
C773 C771 1.327 . S
C774 C762 1.349 . S
C774 H768 0.950 . S
C774 C775 1.327 . S
C775 H769 0.950 . S
C775 C774 1.327 . S
C775 C779 1.429 . S
C776 C759 1.574 . S
C776 H770 0.949 . S
C776 C780 1.368 . S
C777 C758 1.429 . S
C777 C771 1.429 . S
C777 C778 1.523 . S
C778 C759 1.368 . S
C778 C772 1.368 . S
C778 C777 1.523 . S
C779 C763 1.429 . S
C779 C775 1.429 . S
C779 C780 1.523 . S
C780 C764 1.368 . S
C780 C776 1.368 . S
C780 C779 1.523 . S
H781 C756 0.950 . S
H782 C758 0.950 . S
H783 C759 0.949 . S
H784 C761 0.950 . S
H785 C763 0.950 . S
C786 C787 1.349 . S
C786 C788 1.327 . S
C786 H811 0.950 . S
C787 C786 1.349 . S
C787 C803 1.349 . S
C788 C786 1.327 . S
C788 C807 1.429 . S
C788 H812 0.950 . S
C789 C806 1.574 . S
C789 C808 1.368 . S
C789 H813 0.949 . S
H790 C794 0.949 . S
C791 C792 1.349 . S
C791 C793 1.327 . S
C791 H814 0.950 . S
C792 C791 1.349 . S
C792 C804 1.349 . S
C793 C791 1.327 . S
C793 C809 1.429 . S
C793 H815 0.950 . S
C794 H790 0.949 . S
C794 C802 1.574 . S
C794 C810 1.368 . S
H795 C803 0.950 . S
H796 C801 0.950 . S
H797 C802 0.949 . S
H798 C804 0.950 . S
H799 C805 0.950 . S
H800 C806 0.949 . S
C801 H796 0.950 . S
C801 C803 1.327 . S
C801 C807 1.429 . S
C802 C794 1.574 . S
C802 H797 0.949 . S
C802 C808 1.368 . S
C803 C787 1.349 . S
C803 H795 0.950 . S
C803 C801 1.327 . S
C804 C792 1.349 . S
C804 H798 0.950 . S
C804 C805 1.327 . S
C805 H799 0.950 . S
C805 C804 1.327 . S
C805 C809 1.429 . S
C806 C789 1.574 . S
C806 H800 0.949 . S
C806 C810 1.368 . S
C807 C788 1.429 . S
C807 C801 1.429 . S
C807 C808 1.523 . S
C808 C789 1.368 . S
C808 C802 1.368 . S
C808 C807 1.523 . S
C809 C793 1.429 . S
C809 C805 1.429 . S
C809 C810 1.523 . S
C810 C794 1.368 . S
C810 C806 1.368 . S
C810 C809 1.523 . S
H811 C786 0.950 . S
H812 C788 0.950 . S
H813 C789 0.949 . S
H814 C791 0.950 . S
H815 C793 0.950 . S
C816 C817 1.349 . S
C816 C818 1.327 . S
C816 H841 0.950 . S
C817 C816 1.349 . S
C817 C833 1.349 . S
C818 C816 1.327 . S
C818 C837 1.429 . S
C818 H842 0.950 . S
C819 C836 1.574 . S
C819 C838 1.368 . S
C819 H843 0.949 . S
H820 C824 0.949 . S
C821 C822 1.349 . S
C821 C823 1.327 . S
C821 H844 0.950 . S
C822 C821 1.349 . S
C822 C834 1.349 . S
C823 C821 1.327 . S
C823 C839 1.429 . S
C823 H845 0.950 . S
C824 H820 0.949 . S
C824 C832 1.574 . S
C824 C840 1.368 . S
H825 C833 0.950 . S
H826 C831 0.950 . S
H827 C832 0.949 . S
H828 C834 0.950 . S
H829 C835 0.950 . S
H830 C836 0.949 . S
C831 H826 0.950 . S
C831 C833 1.327 . S
C831 C837 1.429 . S
C832 C824 1.574 . S
C832 H827 0.949 . S
C832 C838 1.368 . S
C833 C817 1.349 . S
C833 H825 0.950 . S
C833 C831 1.327 . S
C834 C822 1.349 . S
C834 H828 0.950 . S
C834 C835 1.327 . S
C835 H829 0.950 . S
C835 C834 1.327 . S
C835 C839 1.429 . S
C836 C819 1.574 . S
C836 H830 0.949 . S
C836 C840 1.368 . S
C837 C818 1.429 . S
C837 C831 1.429 . S
C837 C838 1.523 . S
C838 C819 1.368 . S
C838 C832 1.368 . S
C838 C837 1.523 . S
C839 C823 1.429 . S
C839 C835 1.429 . S
C839 C840 1.523 . S
C840 C824 1.368 . S
C840 C836 1.368 . S
C840 C839 1.523 . S
H841 C816 0.950 . S
H842 C818 0.950 . S
H843 C819 0.949 . S
H844 C821 0.950 . S
H845 C823 0.950 . S
C846 C847 1.349 . S
C846 C848 1.327 . S
C846 H871 0.950 . S
C847 C846 1.349 . S
C847 C863 1.349 . S
C848 C846 1.327 . S
C848 C867 1.429 . S
C848 H872 0.950 . S
C849 C866 1.574 . S
C849 C868 1.368 . S
C849 H873 0.949 . S
H850 C854 0.949 . S
C851 C852 1.349 . S
C851 C853 1.327 . S
C851 H874 0.950 . S
C852 C851 1.349 . S
C852 C864 1.349 . S
C853 C851 1.327 . S
C853 C869 1.429 . S
C853 H875 0.950 . S
C854 H850 0.949 . S
C854 C862 1.574 . S
C854 C870 1.368 . S
H855 C863 0.950 . S
H856 C861 0.950 . S
H857 C862 0.949 . S
H858 C864 0.950 . S
H859 C865 0.950 . S
H860 C866 0.949 . S
C861 H856 0.950 . S
C861 C863 1.327 . S
C861 C867 1.429 . S
C862 C854 1.574 . S
C862 H857 0.949 . S
C862 C868 1.368 . S
C863 C847 1.349 . S
C863 H855 0.950 . S
C863 C861 1.327 . S
C864 C852 1.349 . S
C864 H858 0.950 . S
C864 C865 1.327 . S
C865 H859 0.950 . S
C865 C864 1.327 . S
C865 C869 1.429 . S
C866 C849 1.574 . S
C866 H860 0.949 . S
C866 C870 1.368 . S
C867 C848 1.429 . S
C867 C861 1.429 . S
C867 C868 1.523 . S
C868 C849 1.368 . S
C868 C862 1.368 . S
C868 C867 1.523 . S
C869 C853 1.429 . S
C869 C865 1.429 . S
C869 C870 1.523 . S
C870 C854 1.368 . S
C870 C866 1.368 . S
C870 C869 1.523 . S
H871 C846 0.950 . S
H872 C848 0.950 . S
H873 C849 0.949 . S
H874 C851 0.950 . S
H875 C853 0.950 . S
C876 C877 1.349 . S
C876 C878 1.327 . S
C876 H901 0.950 . S
C877 C876 1.349 . S
C877 C893 1.349 . S
C878 C876 1.327 . S
C878 C897 1.429 . S
C878 H902 0.950 . S
C879 C896 1.574 . S
C879 C898 1.368 . S
C879 H903 0.949 . S
H880 C884 0.949 . S
C881 C882 1.349 . S
C881 C883 1.327 . S
C881 H904 0.950 . S
C882 C881 1.349 . S
C882 C894 1.349 . S
C883 C881 1.327 . S
C883 C899 1.429 . S
C883 H905 0.950 . S
C884 H880 0.949 . S
C884 C892 1.574 . S
C884 C900 1.368 . S
H885 C893 0.950 . S
H886 C891 0.950 . S
H887 C892 0.949 . S
H888 C894 0.950 . S
H889 C895 0.950 . S
H890 C896 0.949 . S
C891 H886 0.950 . S
C891 C893 1.327 . S
C891 C897 1.429 . S
C892 C884 1.574 . S
C892 H887 0.949 . S
C892 C898 1.368 . S
C893 C877 1.349 . S
C893 H885 0.950 . S
C893 C891 1.327 . S
C894 C882 1.349 . S
C894 H888 0.950 . S
C894 C895 1.327 . S
C895 H889 0.950 . S
C895 C894 1.327 . S
C895 C899 1.429 . S
C896 C879 1.574 . S
C896 H890 0.949 . S
C896 C900 1.368 . S
C897 C878 1.429 . S
C897 C891 1.429 . S
C897 C898 1.523 . S
C898 C879 1.368 . S
C898 C892 1.368 . S
C898 C897 1.523 . S
C899 C883 1.429 . S
C899 C895 1.429 . S
C899 C900 1.523 . S
C900 C884 1.368 . S
C900 C896 1.368 . S
C900 C899 1.523 . S
H901 C876 0.950 . S
H902 C878 0.950 . S
H903 C879 0.949 . S
H904 C881 0.950 . S
H905 C883 0.950 . S
C906 C907 1.348 . S
C906 C908 1.327 . S
C906 H931 0.951 1_455 S
C907 C906 1.348 . S
C907 C923 1.349 . S
C908 C906 1.327 . S
C908 C927 1.440 . S
C908 H932 0.938 1_455 S
C909 C926 1.574 . S
C909 C928 1.368 . S
C909 H933 0.949 . S
H910 C914 0.949 1_655 S
C911 C912 1.349 . S
C911 C913 1.327 . S
C911 H934 0.950 . S
C912 C911 1.349 . S
C912 C924 1.349 . S
C913 C911 1.327 . S
C913 C929 1.429 . S
C913 H935 0.950 . S
C914 H910 0.949 1_455 S
C914 C922 1.574 . S
C914 C930 1.368 . S
H915 C923 0.950 . S
H916 C921 0.950 . S
H917 C922 0.949 1_655 S
H918 C924 0.950 1_655 S
H919 C925 0.950 1_655 S
H920 C926 0.949 . S
C921 H916 0.950 . S
C921 C923 1.327 . S
C921 C927 1.429 . S
C922 C914 1.574 . S
C922 H917 0.949 1_455 S
C922 C928 1.368 . S
C923 C907 1.349 . S
C923 H915 0.950 . S
C923 C921 1.327 . S
C924 C912 1.349 . S
C924 H918 0.950 1_455 S
C924 C925 1.327 . S
C925 H919 0.950 1_455 S
C925 C924 1.327 . S
C925 C929 1.429 . S
C926 C909 1.574 . S
C926 H920 0.949 . S
C926 C930 1.368 . S
C927 C908 1.440 . S
C927 C921 1.429 . S
C927 C928 1.523 . S
C928 C909 1.368 . S
C928 C922 1.368 . S
C928 C927 1.523 . S
C929 C913 1.429 . S
C929 C925 1.429 . S
C929 C930 1.523 . S
C930 C914 1.368 . S
C930 C926 1.368 . S
C930 C929 1.523 . S
H931 C906 0.951 1_655 S
H932 C908 0.938 1_655 S
H933 C909 0.949 . S
H934 C911 0.950 . S
H935 C913 0.950 . S
C936 C937 1.349 . S
C936 C938 1.327 . S
C936 H961 0.950 . S
C937 C936 1.349 . S
C937 C953 1.349 . S
C938 C936 1.327 . S
C938 C957 1.429 . S
C938 H962 0.950 . S
C939 C956 1.574 . S
C939 C958 1.368 . S
C939 H963 0.949 . S
H940 C944 0.949 . S
C941 C942 1.349 . S
C941 C943 1.327 . S
C941 H964 0.950 . S
C942 C941 1.349 . S
C942 C954 1.349 . S
C943 C941 1.327 . S
C943 C959 1.429 . S
C943 H965 0.950 . S
C944 H940 0.949 . S
C944 C952 1.574 . S
C944 C960 1.368 . S
H945 C953 0.950 . S
H946 C951 0.950 . S
H947 C952 0.949 . S
H948 C954 0.950 . S
H949 C955 0.950 . S
H950 C956 0.949 . S
C951 H946 0.950 . S
C951 C953 1.327 . S
C951 C957 1.429 . S
C952 C944 1.574 . S
C952 H947 0.949 . S
C952 C958 1.368 . S
C953 C937 1.349 . S
C953 H945 0.950 . S
C953 C951 1.327 . S
C954 C942 1.349 . S
C954 H948 0.950 . S
C954 C955 1.327 . S
C955 H949 0.950 . S
C955 C954 1.327 . S
C955 C959 1.429 . S
C956 C939 1.574 . S
C956 H950 0.949 . S
C956 C960 1.368 . S
C957 C938 1.429 . S
C957 C951 1.429 . S
C957 C958 1.523 . S
C958 C939 1.368 . S
C958 C952 1.368 . S
C958 C957 1.523 . S
C959 C943 1.429 . S
C959 C955 1.429 . S
C959 C960 1.523 . S
C960 C944 1.368 . S
C960 C956 1.368 . S
C960 C959 1.523 . S
H961 C936 0.950 . S
H962 C938 0.950 . S
H963 C939 0.949 . S
H964 C941 0.950 . S
H965 C943 0.950 . S
C966 C967 1.349 . S
C966 C968 1.327 . S
C966 H991 0.950 . S
C967 C966 1.349 . S
C967 C983 1.349 . S
C968 C966 1.327 . S
C968 C987 1.429 . S
C968 H992 0.950 . S
C969 C986 1.574 . S
C969 C988 1.368 . S
C969 H993 0.949 . S
H970 C974 0.949 . S
C971 C972 1.349 . S
C971 C973 1.327 . S
C971 H994 0.950 . S
C972 C971 1.349 . S
C972 C984 1.349 . S
C973 C971 1.327 . S
C973 C989 1.429 . S
C973 H995 0.950 . S
C974 H970 0.949 . S
C974 C982 1.574 . S
C974 C990 1.368 . S
H975 C983 0.950 . S
H976 C981 0.950 . S
H977 C982 0.949 . S
H978 C984 0.950 . S
H979 C985 0.950 . S
H980 C986 0.949 . S
C981 H976 0.950 . S
C981 C983 1.327 . S
C981 C987 1.429 . S
C982 C974 1.574 . S
C982 H977 0.949 . S
C982 C988 1.368 . S
C983 C967 1.349 . S
C983 H975 0.950 . S
C983 C981 1.327 . S
C984 C972 1.349 . S
C984 H978 0.950 . S
C984 C985 1.327 . S
C985 H979 0.950 . S
C985 C984 1.327 . S
C985 C989 1.429 . S
C986 C969 1.574 . S
C986 H980 0.949 . S
C986 C990 1.368 . S
C987 C968 1.429 . S
C987 C981 1.429 . S
C987 C988 1.523 . S
C988 C969 1.368 . S
C988 C982 1.368 . S
C988 C987 1.523 . S
C989 C973 1.429 . S
C989 C985 1.429 . S
C989 C990 1.523 . S
C990 C974 1.368 . S
C990 C986 1.368 . S
C990 C989 1.523 . S
H991 C966 0.950 . S
H992 C968 0.950 . S
H993 C969 0.949 . S
H994 C971 0.950 . S
H995 C973 0.950 . S
C996 C997 1.349 . S
C996 C998 1.327 . S
C996 H1021 0.950 . S
C997 C996 1.349 . S
C997 C1013 1.349 1_556 S
C998 C996 1.327 . S
C998 C1017 1.429 . S
C998 H1022 0.950 . S
C999 C1016 1.575 . S
C999 C1018 1.368 1_554 S
C999 H1023 0.949 . S
H1000 C1004 0.949 . S
C1001 C1002 1.349 . S
C1001 C1003 1.327 . S
C1001 H1024 0.950 1_556 S
C1002 C1001 1.349 . S
C1002 C1014 1.349 . S
C1003 C1001 1.327 . S
C1003 C1019 1.429 . S
C1003 H1025 0.950 1_556 S
C1004 H1000 0.949 . S
C1004 C1012 1.574 . S
C1004 C1020 1.368 . S
H1005 C1013 0.950 . S
H1006 C1011 0.950 . S
H1007 C1012 0.949 . S
H1008 C1014 0.950 . S
H1009 C1015 0.950 . S
H1010 C1016 0.966 . S
C1011 H1006 0.950 . S
C1011 C1013 1.327 . S
C1011 C1017 1.429 1_554 S
C1012 C1004 1.574 . S
C1012 H1007 0.949 . S
C1012 C1018 1.368 . S
C1013 C997 1.349 1_554 S
C1013 H1005 0.950 . S
C1013 C1011 1.327 . S
C1014 C1002 1.349 . S
C1014 H1008 0.950 . S
C1014 C1015 1.327 . S
C1015 H1009 0.950 . S
C1015 C1014 1.327 . S
C1015 C1019 1.429 . S
C1016 C999 1.575 . S
C1016 H1010 0.966 . S
C1016 C1020 1.349 1_554 S
C1017 C998 1.429 . S
C1017 C1011 1.429 1_556 S
C1017 C1018 1.523 . S
C1018 C999 1.368 1_556 S
C1018 C1012 1.368 . S
C1018 C1017 1.523 . S
C1019 C1003 1.429 . S
C1019 C1015 1.429 . S
C1019 C1020 1.523 . S
C1020 C1004 1.368 . S
C1020 C1016 1.349 1_556 S
C1020 C1019 1.523 . S
H1021 C996 0.950 . S
H1022 C998 0.950 . S
H1023 C999 0.949 . S
H1024 C1001 0.950 1_554 S
H1025 C1003 0.950 1_554 S
C1026 C1027 1.349 . S
C1026 C1028 1.327 . S
C1026 H1051 0.950 . S
C1027 C1026 1.349 . S
C1027 C1043 1.349 . S
C1028 C1026 1.327 . S
C1028 C1047 1.429 . S
C1028 H1052 0.950 . S
C1029 C1046 1.574 . S
C1029 C1048 1.368 . S
C1029 H1053 0.949 . S
H1030 C1034 0.949 . S
C1031 C1032 1.349 . S
C1031 C1033 1.327 . S
C1031 H1054 0.950 . S
C1032 C1031 1.349 . S
C1032 C1044 1.349 . S
C1033 C1031 1.327 . S
C1033 C1049 1.429 . S
C1033 H1055 0.950 . S
C1034 H1030 0.949 . S
C1034 C1042 1.574 . S
C1034 C1050 1.368 . S
H1035 C1043 0.950 . S
H1036 C1041 0.950 . S
H1037 C1042 0.949 . S
H1038 C1044 0.950 . S
H1039 C1045 0.950 . S
H1040 C1046 0.949 . S
C1041 H1036 0.950 . S
C1041 C1043 1.327 . S
C1041 C1047 1.429 . S
C1042 C1034 1.574 . S
C1042 H1037 0.949 . S
C1042 C1048 1.368 . S
C1043 C1027 1.349 . S
C1043 H1035 0.950 . S
C1043 C1041 1.327 . S
C1044 C1032 1.349 . S
C1044 H1038 0.950 . S
C1044 C1045 1.327 . S
C1045 H1039 0.950 . S
C1045 C1044 1.327 . S
C1045 C1049 1.429 . S
C1046 C1029 1.574 . S
C1046 H1040 0.949 . S
C1046 C1050 1.368 . S
C1047 C1028 1.429 . S
C1047 C1041 1.429 . S
C1047 C1048 1.523 . S
C1048 C1029 1.368 . S
C1048 C1042 1.368 . S
C1048 C1047 1.523 . S
C1049 C1033 1.429 . S
C1049 C1045 1.429 . S
C1049 C1050 1.523 . S
C1050 C1034 1.368 . S
C1050 C1046 1.368 . S
C1050 C1049 1.523 . S
H1051 C1026 0.950 . S
H1052 C1028 0.950 . S
H1053 C1029 0.949 . S
H1054 C1031 0.950 . S
H1055 C1033 0.950 . S
C1056 C1057 1.349 . S
C1056 C1058 1.327 . S
C1056 H1081 0.950 . S
C1057 C1056 1.349 . S
C1057 C1073 1.349 . S
C1058 C1056 1.327 . S
C1058 C1077 1.429 . S
C1058 H1082 0.950 . S
C1059 C1076 1.574 . S
C1059 C1078 1.368 . S
C1059 H1083 0.949 . S
H1060 C1064 0.949 . S
C1061 C1062 1.349 . S
C1061 C1063 1.327 . S
C1061 H1084 0.950 . S
C1062 C1061 1.349 . S
C1062 C1074 1.349 . S
C1063 C1061 1.327 . S
C1063 C1079 1.429 . S
C1063 H1085 0.950 . S
C1064 H1060 0.949 . S
C1064 C1072 1.574 . S
C1064 C1080 1.368 . S
H1065 C1073 0.950 . S
H1066 C1071 0.950 . S
H1067 C1072 0.949 . S
H1068 C1074 0.950 . S
H1069 C1075 0.950 . S
H1070 C1076 0.949 . S
C1071 H1066 0.950 . S
C1071 C1073 1.327 . S
C1071 C1077 1.429 . S
C1072 C1064 1.574 . S
C1072 H1067 0.949 . S
C1072 C1078 1.368 . S
C1073 C1057 1.349 . S
C1073 H1065 0.950 . S
C1073 C1071 1.327 . S
C1074 C1062 1.349 . S
C1074 H1068 0.950 . S
C1074 C1075 1.327 . S
C1075 H1069 0.950 . S
C1075 C1074 1.327 . S
C1075 C1079 1.429 . S
C1076 C1059 1.574 . S
C1076 H1070 0.949 . S
C1076 C1080 1.368 . S
C1077 C1058 1.429 . S
C1077 C1071 1.429 . S
C1077 C1078 1.523 . S
C1078 C1059 1.368 . S
C1078 C1072 1.368 . S
C1078 C1077 1.523 . S
C1079 C1063 1.429 . S
C1079 C1075 1.429 . S
C1079 C1080 1.523 . S
C1080 C1064 1.368 . S
C1080 C1076 1.368 . S
C1080 C1079 1.523 . S
H1081 C1056 0.950 . S
H1082 C1058 0.950 . S
H1083 C1059 0.949 . S
H1084 C1061 0.950 . S
H1085 C1063 0.950 . S
C1086 C1087 1.349 . S
C1086 C1088 1.327 . S
C1086 H1111 0.950 . S
C1087 C1086 1.349 . S
C1087 C1103 1.349 . S
C1088 C1086 1.327 . S
C1088 C1107 1.429 . S
C1088 H1112 0.950 . S
C1089 C1106 1.574 . S
C1089 C1108 1.368 . S
C1089 H1113 0.949 . S
H1090 C1094 0.949 . S
C1091 C1092 1.349 . S
C1091 C1093 1.327 . S
C1091 H1114 0.950 . S
C1092 C1091 1.349 . S
C1092 C1104 1.349 . S
C1093 C1091 1.327 . S
C1093 C1109 1.429 . S
C1093 H1115 0.950 . S
C1094 H1090 0.949 . S
C1094 C1102 1.574 . S
C1094 C1110 1.368 . S
H1095 C1103 0.950 . S
H1096 C1101 0.950 . S
H1097 C1102 0.949 . S
H1098 C1104 0.950 . S
H1099 C1105 0.950 . S
H1100 C1106 0.949 . S
C1101 H1096 0.950 . S
C1101 C1103 1.327 . S
C1101 C1107 1.429 . S
C1102 C1094 1.574 . S
C1102 H1097 0.949 . S
C1102 C1108 1.368 . S
C1103 C1087 1.349 . S
C1103 H1095 0.950 . S
C1103 C1101 1.327 . S
C1104 C1092 1.349 . S
C1104 H1098 0.950 . S
C1104 C1105 1.327 . S
C1105 H1099 0.950 . S
C1105 C1104 1.327 . S
C1105 C1109 1.429 . S
C1106 C1089 1.574 . S
C1106 H1100 0.949 . S
C1106 C1110 1.368 . S
C1107 C1088 1.429 . S
C1107 C1101 1.429 . S
C1107 C1108 1.523 . S
C1108 C1089 1.368 . S
C1108 C1102 1.368 . S
C1108 C1107 1.523 . S
C1109 C1093 1.429 . S
C1109 C1105 1.429 . S
C1109 C1110 1.523 . S
C1110 C1094 1.368 . S
C1110 C1106 1.368 . S
C1110 C1109 1.523 . S
H1111 C1086 0.950 . S
H1112 C1088 0.950 . S
H1113 C1089 0.949 . S
H1114 C1091 0.950 . S
H1115 C1093 0.950 . S
C1116 C1117 1.349 . S
C1116 C1118 1.327 . S
C1116 H1141 0.950 . S
C1117 C1116 1.349 . S
C1117 C1133 1.349 . S
C1118 C1116 1.327 . S
C1118 C1137 1.429 . S
C1118 H1142 0.950 . S
C1119 C1136 1.574 . S
C1119 C1138 1.368 . S
C1119 H1143 0.949 . S
H1120 C1124 0.949 . S
C1121 C1122 1.349 . S
C1121 C1123 1.327 . S
C1121 H1144 0.950 . S
C1122 C1121 1.349 . S
C1122 C1134 1.349 . S
C1123 C1121 1.327 . S
C1123 C1139 1.429 . S
C1123 H1145 0.950 . S
C1124 H1120 0.949 . S
C1124 C1132 1.574 . S
C1124 C1140 1.368 . S
H1125 C1133 0.950 . S
H1126 C1131 0.950 . S
H1127 C1132 0.949 . S
H1128 C1134 0.950 . S
H1129 C1135 0.950 . S
H1130 C1136 0.949 . S
C1131 H1126 0.950 . S
C1131 C1133 1.327 . S
C1131 C1137 1.429 . S
C1132 C1124 1.574 . S
C1132 H1127 0.949 . S
C1132 C1138 1.368 . S
C1133 C1117 1.349 . S
C1133 H1125 0.950 . S
C1133 C1131 1.327 . S
C1134 C1122 1.349 . S
C1134 H1128 0.950 . S
C1134 C1135 1.327 . S
C1135 H1129 0.950 . S
C1135 C1134 1.327 . S
C1135 C1139 1.429 . S
C1136 C1119 1.574 . S
C1136 H1130 0.949 . S
C1136 C1140 1.368 . S
C1137 C1118 1.429 . S
C1137 C1131 1.429 . S
C1137 C1138 1.523 . S
C1138 C1119 1.368 . S
C1138 C1132 1.368 . S
C1138 C1137 1.523 . S
C1139 C1123 1.429 . S
C1139 C1135 1.429 . S
C1139 C1140 1.523 . S
C1140 C1124 1.368 . S
C1140 C1136 1.368 . S
C1140 C1139 1.523 . S
H1141 C1116 0.950 . S
H1142 C1118 0.950 . S
H1143 C1119 0.949 . S
H1144 C1121 0.950 . S
H1145 C1123 0.950 . S
C1146 C1147 1.349 . S
C1146 C1148 1.327 . S
C1146 H1171 0.950 . S
C1147 C1146 1.349 . S
C1147 C1163 1.349 . S
C1148 C1146 1.327 . S
C1148 C1167 1.429 . S
C1148 H1172 0.950 . S
C1149 C1166 1.574 . S
C1149 C1168 1.368 . S
C1149 H1173 0.949 . S
H1150 C1154 0.949 . S
C1151 C1152 1.349 . S
C1151 C1153 1.327 . S
C1151 H1174 0.950 . S
C1152 C1151 1.349 . S
C1152 C1164 1.349 . S
C1153 C1151 1.327 . S
C1153 C1169 1.429 . S
C1153 H1175 0.950 . S
C1154 H1150 0.949 . S
C1154 C1162 1.574 . S
C1154 C1170 1.368 . S
H1155 C1163 0.950 . S
H1156 C1161 0.950 . S
H1157 C1162 0.949 . S
H1158 C1164 0.950 . S
H1159 C1165 0.950 . S
H1160 C1166 0.949 . S
C1161 H1156 0.950 . S
C1161 C1163 1.327 . S
C1161 C1167 1.429 . S
C1162 C1154 1.574 . S
C1162 H1157 0.949 . S
C1162 C1168 1.368 . S
C1163 C1147 1.349 . S
C1163 H1155 0.950 . S
C1163 C1161 1.327 . S
C1164 C1152 1.349 . S
C1164 H1158 0.950 . S
C1164 C1165 1.327 . S
C1165 H1159 0.950 . S
C1165 C1164 1.327 . S
C1165 C1169 1.429 . S
C1166 C1149 1.574 . S
C1166 H1160 0.949 . S
C1166 C1170 1.368 . S
C1167 C1148 1.429 . S
C1167 C1161 1.429 . S
C1167 C1168 1.523 . S
C1168 C1149 1.368 . S
C1168 C1162 1.368 . S
C1168 C1167 1.523 . S
C1169 C1153 1.429 . S
C1169 C1165 1.429 . S
C1169 C1170 1.523 . S
C1170 C1154 1.368 . S
C1170 C1166 1.368 . S
C1170 C1169 1.523 . S
H1171 C1146 0.950 . S
H1172 C1148 0.950 . S
H1173 C1149 0.949 . S
H1174 C1151 0.950 . S
H1175 C1153 0.950 . S
C1176 C1177 1.349 . S
C1176 C1178 1.327 . S
C1176 H1201 0.950 . S
C1177 C1176 1.349 . S
C1177 C1193 1.349 . S
C1178 C1176 1.327 . S
C1178 C1197 1.429 . S
C1178 H1202 0.950 . S
C1179 C1196 1.574 . S
C1179 C1198 1.368 . S
C1179 H1203 0.949 . S
H1180 C1184 0.949 . S
C1181 C1182 1.349 . S
C1181 C1183 1.327 . S
C1181 H1204 0.950 . S
C1182 C1181 1.349 . S
C1182 C1194 1.349 . S
C1183 C1181 1.327 . S
C1183 C1199 1.429 . S
C1183 H1205 0.950 . S
C1184 H1180 0.949 . S
C1184 C1192 1.574 . S
C1184 C1200 1.368 . S
H1185 C1193 0.950 . S
H1186 C1191 0.950 . S
H1187 C1192 0.949 . S
H1188 C1194 0.936 1_565 S
H1189 C1195 0.950 . S
H1190 C1196 0.949 . S
C1191 H1186 0.950 . S
C1191 C1193 1.327 . S
C1191 C1197 1.429 . S
C1192 C1184 1.574 . S
C1192 H1187 0.949 . S
C1192 C1198 1.368 . S
C1193 C1177 1.349 . S
C1193 H1185 0.950 . S
C1193 C1191 1.327 . S
C1194 C1182 1.349 . S
C1194 H1188 0.936 1_545 S
C1194 C1195 1.327 . S
C1195 H1189 0.950 . S
C1195 C1194 1.327 . S
C1195 C1199 1.429 . S
C1196 C1179 1.574 . S
C1196 H1190 0.949 . S
C1196 C1200 1.368 . S
C1197 C1178 1.429 . S
C1197 C1191 1.429 . S
C1197 C1198 1.523 . S
C1198 C1179 1.368 . S
C1198 C1192 1.368 . S
C1198 C1197 1.523 . S
C1199 C1183 1.429 . S
C1199 C1195 1.429 . S
C1199 C1200 1.523 . S
C1200 C1184 1.368 . S
C1200 C1196 1.368 . S
C1200 C1199 1.523 . S
H1201 C1176 0.950 . S
H1202 C1178 0.950 . S
H1203 C1179 0.949 . S
H1204 C1181 0.950 . S
H1205 C1183 0.950 . S
C1206 C1207 1.349 . S
C1206 C1208 1.327 . S
C1206 H1231 0.950 . S
C1207 C1206 1.349 . S
C1207 C1223 1.349 . S
C1208 C1206 1.327 . S
C1208 C1227 1.429 . S
C1208 H1232 0.950 . S
C1209 C1226 1.574 . S
C1209 C1228 1.368 . S
C1209 H1233 0.949 . S
H1210 C1214 0.949 . S
C1211 C1212 1.349 . S
C1211 C1213 1.327 . S
C1211 H1234 0.950 . S
C1212 C1211 1.349 . S
C1212 C1224 1.349 . S
C1213 C1211 1.327 . S
C1213 C1229 1.429 . S
C1213 H1235 0.950 . S
C1214 H1210 0.949 . S
C1214 C1222 1.574 . S
C1214 C1230 1.368 . S
H1215 C1223 0.950 . S
H1216 C1221 0.950 . S
H1217 C1222 0.949 . S
H1218 C1224 0.950 . S
H1219 C1225 0.950 . S
H1220 C1226 0.949 . S
C1221 H1216 0.950 . S
C1221 C1223 1.327 . S
C1221 C1227 1.429 . S
C1222 C1214 1.574 . S
C1222 H1217 0.949 . S
C1222 C1228 1.368 . S
C1223 C1207 1.349 . S
C1223 H1215 0.950 . S
C1223 C1221 1.327 . S
C1224 C1212 1.349 . S
C1224 H1218 0.950 . S
C1224 C1225 1.327 . S
C1225 H1219 0.950 . S
C1225 C1224 1.327 . S
C1225 C1229 1.429 . S
C1226 C1209 1.574 . S
C1226 H1220 0.949 . S
C1226 C1230 1.368 . S
C1227 C1208 1.429 . S
C1227 C1221 1.429 . S
C1227 C1228 1.523 . S
C1228 C1209 1.368 . S
C1228 C1222 1.368 . S
C1228 C1227 1.523 . S
C1229 C1213 1.429 . S
C1229 C1225 1.429 . S
C1229 C1230 1.523 . S
C1230 C1214 1.368 . S
C1230 C1226 1.368 . S
C1230 C1229 1.523 . S
H1231 C1206 0.950 . S
H1232 C1208 0.950 . S
H1233 C1209 0.949 . S
H1234 C1211 0.950 . S
H1235 C1213 0.950 . S
C1236 C1237 1.349 . S
C1236 C1238 1.327 . S
C1236 H1261 0.950 . S
C1237 C1236 1.349 . S
C1237 C1253 1.349 . S
C1238 C1236 1.327 . S
C1238 C1257 1.429 . S
C1238 H1262 0.950 . S
C1239 C1256 1.574 . S
C1239 C1258 1.368 . S
C1239 H1263 0.949 . S
H1240 C1244 0.949 . S
C1241 C1242 1.349 . S
C1241 C1243 1.327 . S
C1241 H1264 0.950 . S
C1242 C1241 1.349 . S
C1242 C1254 1.349 . S
C1243 C1241 1.327 . S
C1243 C1259 1.429 . S
C1243 H1265 0.950 . S
C1244 H1240 0.949 . S
C1244 C1252 1.574 . S
C1244 C1260 1.368 . S
H1245 C1253 0.950 . S
H1246 C1251 0.950 . S
H1247 C1252 0.949 . S
H1248 C1254 0.950 . S
H1249 C1255 0.950 . S
H1250 C1256 0.949 . S
C1251 H1246 0.950 . S
C1251 C1253 1.327 . S
C1251 C1257 1.429 . S
C1252 C1244 1.574 . S
C1252 H1247 0.949 . S
C1252 C1258 1.368 . S
C1253 C1237 1.349 . S
C1253 H1245 0.950 . S
C1253 C1251 1.327 . S
C1254 C1242 1.349 . S
C1254 H1248 0.950 . S
C1254 C1255 1.327 . S
C1255 H1249 0.950 . S
C1255 C1254 1.327 . S
C1255 C1259 1.429 . S
C1256 C1239 1.574 . S
C1256 H1250 0.949 . S
C1256 C1260 1.368 . S
C1257 C1238 1.429 . S
C1257 C1251 1.429 . S
C1257 C1258 1.523 . S
C1258 C1239 1.368 . S
C1258 C1252 1.368 . S
C1258 C1257 1.523 . S
C1259 C1243 1.429 . S
C1259 C1255 1.429 . S
C1259 C1260 1.523 . S
C1260 C1244 1.368 . S
C1260 C1256 1.368 . S
C1260 C1259 1.523 . S
H1261 C1236 0.950 . S
H1262 C1238 0.950 . S
H1263 C1239 0.949 . S
H1264 C1241 0.950 . S
H1265 C1243 0.950 . S
C1266 C1267 1.349 . S
C1266 C1268 1.327 . S
C1266 H1291 0.950 . S
C1267 C1266 1.349 . S
C1267 C1283 1.349 . S
C1268 C1266 1.327 . S
C1268 C1287 1.429 . S
C1268 H1292 0.950 . S
C1269 C1286 1.574 . S
C1269 C1288 1.368 . S
C1269 H1293 0.949 . S
H1270 C1274 0.949 . S
C1271 C1272 1.349 . S
C1271 C1273 1.327 . S
C1271 H1294 0.950 . S
C1272 C1271 1.349 . S
C1272 C1284 1.349 . S
C1273 C1271 1.327 . S
C1273 C1289 1.429 . S
C1273 H1295 0.950 . S
C1274 H1270 0.949 . S
C1274 C1282 1.574 . S
C1274 C1290 1.368 . S
H1275 C1283 0.950 . S
H1276 C1281 0.950 . S
H1277 C1282 0.949 . S
H1278 C1284 0.950 . S
H1279 C1285 0.950 . S
H1280 C1286 0.949 . S
C1281 H1276 0.950 . S
C1281 C1283 1.327 . S
C1281 C1287 1.429 . S
C1282 C1274 1.574 . S
C1282 H1277 0.949 . S
C1282 C1288 1.368 . S
C1283 C1267 1.349 . S
C1283 H1275 0.950 . S
C1283 C1281 1.327 . S
C1284 C1272 1.349 . S
C1284 H1278 0.950 . S
C1284 C1285 1.327 . S
C1285 H1279 0.950 . S
C1285 C1284 1.327 . S
C1285 C1289 1.429 . S
C1286 C1269 1.574 . S
C1286 H1280 0.949 . S
C1286 C1290 1.368 . S
C1287 C1268 1.429 . S
C1287 C1281 1.429 . S
C1287 C1288 1.523 . S
C1288 C1269 1.368 . S
C1288 C1282 1.368 . S
C1288 C1287 1.523 . S
C1289 C1273 1.429 . S
C1289 C1285 1.429 . S
C1289 C1290 1.523 . S
C1290 C1274 1.368 . S
C1290 C1286 1.368 . S
C1290 C1289 1.523 . S
H1291 C1266 0.950 . S
H1292 C1268 0.950 . S
H1293 C1269 0.949 . S
H1294 C1271 0.950 . S
H1295 C1273 0.950 . S
C1296 C1297 1.349 . S
C1296 C1298 1.327 . S
C1296 H1321 0.950 . S
C1297 C1296 1.349 . S
C1297 C1313 1.349 . S
C1298 C1296 1.327 . S
C1298 C1317 1.429 . S
C1298 H1322 0.950 . S
C1299 C1316 1.574 . S
C1299 C1318 1.368 . S
C1299 H1323 0.949 . S
H1300 C1304 0.949 . S
C1301 C1302 1.349 . S
C1301 C1303 1.327 . S
C1301 H1324 0.950 . S
C1302 C1301 1.349 . S
C1302 C1314 1.349 . S
C1303 C1301 1.327 . S
C1303 C1319 1.429 . S
C1303 H1325 0.950 . S
C1304 H1300 0.949 . S
C1304 C1312 1.574 . S
C1304 C1320 1.368 . S
H1305 C1313 0.950 . S
H1306 C1311 0.950 . S
H1307 C1312 0.949 . S
H1308 C1314 0.950 . S
H1309 C1315 0.950 . S
H1310 C1316 0.949 . S
C1311 H1306 0.950 . S
C1311 C1313 1.327 . S
C1311 C1317 1.429 . S
C1312 C1304 1.574 . S
C1312 H1307 0.949 . S
C1312 C1318 1.368 . S
C1313 C1297 1.349 . S
C1313 H1305 0.950 . S
C1313 C1311 1.327 . S
C1314 C1302 1.349 . S
C1314 H1308 0.950 . S
C1314 C1315 1.327 . S
C1315 H1309 0.950 . S
C1315 C1314 1.327 . S
C1315 C1319 1.429 . S
C1316 C1299 1.574 . S
C1316 H1310 0.949 . S
C1316 C1320 1.368 . S
C1317 C1298 1.429 . S
C1317 C1311 1.429 . S
C1317 C1318 1.523 . S
C1318 C1299 1.368 . S
C1318 C1312 1.368 . S
C1318 C1317 1.523 . S
C1319 C1303 1.429 . S
C1319 C1315 1.429 . S
C1319 C1320 1.523 . S
C1320 C1304 1.368 . S
C1320 C1316 1.368 . S
C1320 C1319 1.523 . S
H1321 C1296 0.950 . S
H1322 C1298 0.950 . S
H1323 C1299 0.949 . S
H1324 C1301 0.950 . S
H1325 C1303 0.950 . S
C1326 C1327 1.349 . S
C1326 C1328 1.327 . S
C1326 H1351 0.950 . S
C1327 C1326 1.349 . S
C1327 C1343 1.349 . S
C1328 C1326 1.327 . S
C1328 C1347 1.429 . S
C1328 H1352 0.950 . S
C1329 C1346 1.574 . S
C1329 C1348 1.368 . S
C1329 H1353 0.949 . S
H1330 C1334 0.949 . S
C1331 C1332 1.349 . S
C1331 C1333 1.327 . S
C1331 H1354 0.950 . S
C1332 C1331 1.349 . S
C1332 C1344 1.349 . S
C1333 C1331 1.327 . S
C1333 C1349 1.429 . S
C1333 H1355 0.950 . S
C1334 H1330 0.949 . S
C1334 C1342 1.574 . S
C1334 C1350 1.368 . S
H1335 C1343 0.950 . S
H1336 C1341 0.950 . S
H1337 C1342 0.949 . S
H1338 C1344 0.950 . S
H1339 C1345 0.950 . S
H1340 C1346 0.949 . S
C1341 H1336 0.950 . S
C1341 C1343 1.327 . S
C1341 C1347 1.429 . S
C1342 C1334 1.574 . S
C1342 H1337 0.949 . S
C1342 C1348 1.368 . S
C1343 C1327 1.349 . S
C1343 H1335 0.950 . S
C1343 C1341 1.327 . S
C1344 C1332 1.349 . S
C1344 H1338 0.950 . S
C1344 C1345 1.327 . S
C1345 H1339 0.950 . S
C1345 C1344 1.327 . S
C1345 C1349 1.429 . S
C1346 C1329 1.574 . S
C1346 H1340 0.949 . S
C1346 C1350 1.368 . S
C1347 C1328 1.429 . S
C1347 C1341 1.429 . S
C1347 C1348 1.523 . S
C1348 C1329 1.368 . S
C1348 C1342 1.368 . S
C1348 C1347 1.523 . S
C1349 C1333 1.429 . S
C1349 C1345 1.429 . S
C1349 C1350 1.523 . S
C1350 C1334 1.368 . S
C1350 C1346 1.368 . S
C1350 C1349 1.523 . S
H1351 C1326 0.950 . S
H1352 C1328 0.950 . S
H1353 C1329 0.949 . S
H1354 C1331 0.950 . S
H1355 C1333 0.950 . S
C1356 C1357 1.349 . S
C1356 C1358 1.327 . S
C1356 H1381 0.950 . S
C1357 C1356 1.349 . S
C1357 C1373 1.349 . S
C1358 C1356 1.327 . S
C1358 C1377 1.429 . S
C1358 H1382 0.950 . S
C1359 C1376 1.574 . S
C1359 C1378 1.368 . S
C1359 H1383 0.949 . S
H1360 C1364 0.949 . S
C1361 C1362 1.349 . S
C1361 C1363 1.327 . S
C1361 H1384 0.950 . S
C1362 C1361 1.349 . S
C1362 C1374 1.349 . S
C1363 C1361 1.327 . S
C1363 C1379 1.429 . S
C1363 H1385 0.950 . S
C1364 H1360 0.949 . S
C1364 C1372 1.574 . S
C1364 C1380 1.368 . S
H1365 C1373 0.950 . S
H1366 C1371 0.950 . S
H1367 C1372 0.949 . S
H1368 C1374 0.950 . S
H1369 C1375 0.950 . S
H1370 C1376 0.949 . S
C1371 H1366 0.950 . S
C1371 C1373 1.327 . S
C1371 C1377 1.429 . S
C1372 C1364 1.574 . S
C1372 H1367 0.949 . S
C1372 C1378 1.368 . S
C1373 C1357 1.349 . S
C1373 H1365 0.950 . S
C1373 C1371 1.327 . S
C1374 C1362 1.349 . S
C1374 H1368 0.950 . S
C1374 C1375 1.327 . S
C1375 H1369 0.950 . S
C1375 C1374 1.327 . S
C1375 C1379 1.429 . S
C1376 C1359 1.574 . S
C1376 H1370 0.949 . S
C1376 C1380 1.368 . S
C1377 C1358 1.429 . S
C1377 C1371 1.429 . S
C1377 C1378 1.523 . S
C1378 C1359 1.368 . S
C1378 C1372 1.368 . S
C1378 C1377 1.523 . S
C1379 C1363 1.429 . S
C1379 C1375 1.429 . S
C1379 C1380 1.523 . S
C1380 C1364 1.368 . S
C1380 C1376 1.368 . S
C1380 C1379 1.523 . S
H1381 C1356 0.950 . S
H1382 C1358 0.950 . S
H1383 C1359 0.949 . S
H1384 C1361 0.950 . S
H1385 C1363 0.950 . S
C1386 C1387 1.349 . S
C1386 C1388 1.327 . S
C1386 H1411 0.950 . S
C1387 C1386 1.349 . S
C1387 C1403 1.349 . S
C1388 C1386 1.327 . S
C1388 C1407 1.429 . S
C1388 H1412 0.950 . S
C1389 C1406 1.574 . S
C1389 C1408 1.368 . S
C1389 H1413 0.949 . S
H1390 C1394 0.949 . S
C1391 C1392 1.349 . S
C1391 C1393 1.327 . S
C1391 H1414 0.950 . S
C1392 C1391 1.349 . S
C1392 C1404 1.349 . S
C1393 C1391 1.327 . S
C1393 C1409 1.429 . S
C1393 H1415 0.950 . S
C1394 H1390 0.949 . S
C1394 C1402 1.574 . S
C1394 C1410 1.368 . S
H1395 C1403 0.950 . S
H1396 C1401 0.950 . S
H1397 C1402 0.949 . S
H1398 C1404 0.950 . S
H1399 C1405 0.950 . S
H1400 C1406 0.949 . S
C1401 H1396 0.950 . S
C1401 C1403 1.327 . S
C1401 C1407 1.429 . S
C1402 C1394 1.574 . S
C1402 H1397 0.949 . S
C1402 C1408 1.368 . S
C1403 C1387 1.349 . S
C1403 H1395 0.950 . S
C1403 C1401 1.327 . S
C1404 C1392 1.349 . S
C1404 H1398 0.950 . S
C1404 C1405 1.327 . S
C1405 H1399 0.950 . S
C1405 C1404 1.327 . S
C1405 C1409 1.429 . S
C1406 C1389 1.574 . S
C1406 H1400 0.949 . S
C1406 C1410 1.368 . S
C1407 C1388 1.429 . S
C1407 C1401 1.429 . S
C1407 C1408 1.523 . S
C1408 C1389 1.368 . S
C1408 C1402 1.368 . S
C1408 C1407 1.523 . S
C1409 C1393 1.429 . S
C1409 C1405 1.429 . S
C1409 C1410 1.523 . S
C1410 C1394 1.368 . S
C1410 C1406 1.368 . S
C1410 C1409 1.523 . S
H1411 C1386 0.950 . S
H1412 C1388 0.950 . S
H1413 C1389 0.949 . S
H1414 C1391 0.950 . S
H1415 C1393 0.950 . S
C1416 C1417 1.349 . S
C1416 C1418 1.327 . S
C1416 H1441 0.950 . S
C1417 C1416 1.349 . S
C1417 C1433 1.349 . S
C1418 C1416 1.327 . S
C1418 C1437 1.429 . S
C1418 H1442 0.950 . S
C1419 C1436 1.574 . S
C1419 C1438 1.368 . S
C1419 H1443 0.949 . S
H1420 C1424 0.949 . S
C1421 C1422 1.349 . S
C1421 C1423 1.327 . S
C1421 H1444 0.950 . S
C1422 C1421 1.349 . S
C1422 C1434 1.349 . S
C1423 C1421 1.327 . S
C1423 C1439 1.429 . S
C1423 H1445 0.950 . S
C1424 H1420 0.949 . S
C1424 C1432 1.574 . S
C1424 C1440 1.368 . S
H1425 C1433 0.950 . S
H1426 C1431 0.950 . S
H1427 C1432 0.949 . S
H1428 C1434 0.950 . S
H1429 C1435 0.950 . S
H1430 C1436 0.949 . S
C1431 H1426 0.950 . S
C1431 C1433 1.327 . S
C1431 C1437 1.429 . S
C1432 C1424 1.574 . S
C1432 H1427 0.949 . S
C1432 C1438 1.368 . S
C1433 C1417 1.349 . S
C1433 H1425 0.950 . S
C1433 C1431 1.327 . S
C1434 C1422 1.349 . S
C1434 H1428 0.950 . S
C1434 C1435 1.327 . S
C1435 H1429 0.950 . S
C1435 C1434 1.327 . S
C1435 C1439 1.429 . S
C1436 C1419 1.574 . S
C1436 H1430 0.949 . S
C1436 C1440 1.368 . S
C1437 C1418 1.429 . S
C1437 C1431 1.429 . S
C1437 C1438 1.523 . S
C1438 C1419 1.368 . S
C1438 C1432 1.368 . S
C1438 C1437 1.523 . S
C1439 C1423 1.429 . S
C1439 C1435 1.429 . S
C1439 C1440 1.523 . S
C1440 C1424 1.368 . S
C1440 C1436 1.368 . S
C1440 C1439 1.523 . S
H1441 C1416 0.950 . S
H1442 C1418 0.950 . S
H1443 C1419 0.949 . S
H1444 C1421 0.950 . S
H1445 C1423 0.950 . S
C1446 C1447 1.349 . S
C1446 C1448 1.327 . S
C1446 H1471 0.950 . S
C1447 C1446 1.349 . S
C1447 C1463 1.349 . S
C1448 C1446 1.327 . S
C1448 C1467 1.429 . S
C1448 H1472 0.950 . S
C1449 C1466 1.574 . S
C1449 C1468 1.368 . S
C1449 H1473 0.949 . S
H1450 C1454 0.949 . S
C1451 C1452 1.349 . S
C1451 C1453 1.327 . S
C1451 H1474 0.950 . S
C1452 C1451 1.349 . S
C1452 C1464 1.349 . S
C1453 C1451 1.327 . S
C1453 C1469 1.429 . S
C1453 H1475 0.950 . S
C1454 H1450 0.949 . S
C1454 C1462 1.574 . S
C1454 C1470 1.368 . S
H1455 C1463 0.950 . S
H1456 C1461 0.950 . S
H1457 C1462 0.949 . S
H1458 C1464 0.950 . S
H1459 C1465 0.950 . S
H1460 C1466 0.949 . S
C1461 H1456 0.950 . S
C1461 C1463 1.327 . S
C1461 C1467 1.429 . S
C1462 C1454 1.574 . S
C1462 H1457 0.949 . S
C1462 C1468 1.368 . S
C1463 C1447 1.349 . S
C1463 H1455 0.950 . S
C1463 C1461 1.327 . S
C1464 C1452 1.349 . S
C1464 H1458 0.950 . S
C1464 C1465 1.327 . S
C1465 H1459 0.950 . S
C1465 C1464 1.327 . S
C1465 C1469 1.429 . S
C1466 C1449 1.574 . S
C1466 H1460 0.949 . S
C1466 C1470 1.368 . S
C1467 C1448 1.429 . S
C1467 C1461 1.429 . S
C1467 C1468 1.523 . S
C1468 C1449 1.368 . S
C1468 C1462 1.368 . S
C1468 C1467 1.523 . S
C1469 C1453 1.429 . S
C1469 C1465 1.429 . S
C1469 C1470 1.523 . S
C1470 C1454 1.368 . S
C1470 C1466 1.368 . S
C1470 C1469 1.523 . S
H1471 C1446 0.950 . S
H1472 C1448 0.950 . S
H1473 C1449 0.949 . S
H1474 C1451 0.950 . S
H1475 C1453 0.950 . S
C1476 C1477 1.349 . S
C1476 C1478 1.327 . S
C1476 H1501 0.950 . S
C1477 C1476 1.349 . S
C1477 C1493 1.349 . S
C1478 C1476 1.327 . S
C1478 C1497 1.429 . S
C1478 H1502 0.950 . S
C1479 C1496 1.574 . S
C1479 C1498 1.368 . S
C1479 H1503 0.949 . S
H1480 C1484 0.949 . S
C1481 C1482 1.349 . S
C1481 C1483 1.327 . S
C1481 H1504 0.950 . S
C1482 C1481 1.349 . S
C1482 C1494 1.349 . S
C1483 C1481 1.327 . S
C1483 C1499 1.429 . S
C1483 H1505 0.950 . S
C1484 H1480 0.949 . S
C1484 C1492 1.574 . S
C1484 C1500 1.368 . S
H1485 C1493 0.950 . S
H1486 C1491 0.950 . S
H1487 C1492 0.949 . S
H1488 C1494 0.950 . S
H1489 C1495 0.950 . S
H1490 C1496 0.949 . S
C1491 H1486 0.950 . S
C1491 C1493 1.327 . S
C1491 C1497 1.429 . S
C1492 C1484 1.574 . S
C1492 H1487 0.949 . S
C1492 C1498 1.368 . S
C1493 C1477 1.349 . S
C1493 H1485 0.950 . S
C1493 C1491 1.327 . S
C1494 C1482 1.349 . S
C1494 H1488 0.950 . S
C1494 C1495 1.327 . S
C1495 H1489 0.950 . S
C1495 C1494 1.327 . S
C1495 C1499 1.429 . S
C1496 C1479 1.574 . S
C1496 H1490 0.949 . S
C1496 C1500 1.368 . S
C1497 C1478 1.429 . S
C1497 C1491 1.429 . S
C1497 C1498 1.523 . S
C1498 C1479 1.368 . S
C1498 C1492 1.368 . S
C1498 C1497 1.523 . S
C1499 C1483 1.429 . S
C1499 C1495 1.429 . S
C1499 C1500 1.523 . S
C1500 C1484 1.368 . S
C1500 C1496 1.368 . S
C1500 C1499 1.523 . S
H1501 C1476 0.950 . S
H1502 C1478 0.950 . S
H1503 C1479 0.949 . S
H1504 C1481 0.950 . S
H1505 C1483 0.950 . S
C1506 C1507 1.349 . S
C1506 C1508 1.327 . S
C1506 H1531 0.950 . S
C1507 C1506 1.349 . S
C1507 C1523 1.349 . S
C1508 C1506 1.327 . S
C1508 C1527 1.429 . S
C1508 H1532 0.950 . S
C1509 C1526 1.574 . S
C1509 C1528 1.368 . S
C1509 H1533 0.949 . S
H1510 C1514 0.949 . S
C1511 C1512 1.349 . S
C1511 C1513 1.327 . S
C1511 H1534 0.950 . S
C1512 C1511 1.349 . S
C1512 C1524 1.349 . S
C1513 C1511 1.327 . S
C1513 C1529 1.429 . S
C1513 H1535 0.950 . S
C1514 H1510 0.949 . S
C1514 C1522 1.574 . S
C1514 C1530 1.368 . S
H1515 C1523 0.950 . S
H1516 C1521 0.950 . S
H1517 C1522 0.949 . S
H1518 C1524 0.950 . S
H1519 C1525 0.950 . S
H1520 C1526 0.949 . S
C1521 H1516 0.950 . S
C1521 C1523 1.327 . S
C1521 C1527 1.429 . S
C1522 C1514 1.574 . S
C1522 H1517 0.949 . S
C1522 C1528 1.368 . S
C1523 C1507 1.349 . S
C1523 H1515 0.950 . S
C1523 C1521 1.327 . S
C1524 C1512 1.349 . S
C1524 H1518 0.950 . S
C1524 C1525 1.327 . S
C1525 H1519 0.950 . S
C1525 C1524 1.327 . S
C1525 C1529 1.429 . S
C1526 C1509 1.574 . S
C1526 H1520 0.949 . S
C1526 C1530 1.368 . S
C1527 C1508 1.429 . S
C1527 C1521 1.429 . S
C1527 C1528 1.523 . S
C1528 C1509 1.368 . S
C1528 C1522 1.368 . S
C1528 C1527 1.523 . S
C1529 C1513 1.429 . S
C1529 C1525 1.429 . S
C1529 C1530 1.523 . S
C1530 C1514 1.368 . S
C1530 C1526 1.368 . S
C1530 C1529 1.523 . S
H1531 C1506 0.950 . S
H1532 C1508 0.950 . S
H1533 C1509 0.949 . S
H1534 C1511 0.950 . S
H1535 C1513 0.950 . S
C1536 C1537 1.349 . S
C1536 C1538 1.327 . S
C1536 H1561 0.950 . S
C1537 C1536 1.349 . S
C1537 C1553 1.349 . S
C1538 C1536 1.327 . S
C1538 C1557 1.429 . S
C1538 H1562 0.950 . S
C1539 C1556 1.574 . S
C1539 C1558 1.368 . S
C1539 H1563 0.949 . S
H1540 C1544 0.949 . S
C1541 C1542 1.349 . S
C1541 C1543 1.327 . S
C1541 H1564 0.950 . S
C1542 C1541 1.349 . S
C1542 C1554 1.349 . S
C1543 C1541 1.327 . S
C1543 C1559 1.429 . S
C1543 H1565 0.950 . S
C1544 H1540 0.949 . S
C1544 C1552 1.574 . S
C1544 C1560 1.368 . S
H1545 C1553 0.950 . S
H1546 C1551 0.950 . S
H1547 C1552 0.949 . S
H1548 C1554 0.950 . S
H1549 C1555 0.950 . S
H1550 C1556 0.949 . S
C1551 H1546 0.950 . S
C1551 C1553 1.327 . S
C1551 C1557 1.429 . S
C1552 C1544 1.574 . S
C1552 H1547 0.949 . S
C1552 C1558 1.368 . S
C1553 C1537 1.349 . S
C1553 H1545 0.950 . S
C1553 C1551 1.327 . S
C1554 C1542 1.349 . S
C1554 H1548 0.950 . S
C1554 C1555 1.327 . S
C1555 H1549 0.950 . S
C1555 C1554 1.327 . S
C1555 C1559 1.429 . S
C1556 C1539 1.574 . S
C1556 H1550 0.949 . S
C1556 C1560 1.368 . S
C1557 C1538 1.429 . S
C1557 C1551 1.429 . S
C1557 C1558 1.523 . S
C1558 C1539 1.368 . S
C1558 C1552 1.368 . S
C1558 C1557 1.523 . S
C1559 C1543 1.429 . S
C1559 C1555 1.429 . S
C1559 C1560 1.523 . S
C1560 C1544 1.368 . S
C1560 C1556 1.368 . S
C1560 C1559 1.523 . S
H1561 C1536 0.950 . S
H1562 C1538 0.950 . S
H1563 C1539 0.949 . S
H1564 C1541 0.950 . S
H1565 C1543 0.950 . S
C1566 C1567 1.349 . S
C1566 C1568 1.327 . S
C1566 H1591 0.950 . S
C1567 C1566 1.349 . S
C1567 C1583 1.349 . S
C1568 C1566 1.327 . S
C1568 C1587 1.429 . S
C1568 H1592 0.950 . S
C1569 C1586 1.574 . S
C1569 C1588 1.368 . S
C1569 H1593 0.949 . S
H1570 C1574 0.949 . S
C1571 C1572 1.349 . S
C1571 C1573 1.327 . S
C1571 H1594 0.950 . S
C1572 C1571 1.349 . S
C1572 C1584 1.349 . S
C1573 C1571 1.327 . S
C1573 C1589 1.429 . S
C1573 H1595 0.950 . S
C1574 H1570 0.949 . S
C1574 C1582 1.574 . S
C1574 C1590 1.368 . S
H1575 C1583 0.950 . S
H1576 C1581 0.950 . S
H1577 C1582 0.949 . S
H1578 C1584 0.950 . S
H1579 C1585 0.950 . S
H1580 C1586 0.949 . S
C1581 H1576 0.950 . S
C1581 C1583 1.327 . S
C1581 C1587 1.429 . S
C1582 C1574 1.574 . S
C1582 H1577 0.949 . S
C1582 C1588 1.368 . S
C1583 C1567 1.349 . S
C1583 H1575 0.950 . S
C1583 C1581 1.327 . S
C1584 C1572 1.349 . S
C1584 H1578 0.950 . S
C1584 C1585 1.327 . S
C1585 H1579 0.950 . S
C1585 C1584 1.327 . S
C1585 C1589 1.429 . S
C1586 C1569 1.574 . S
C1586 H1580 0.949 . S
C1586 C1590 1.368 . S
C1587 C1568 1.429 . S
C1587 C1581 1.429 . S
C1587 C1588 1.523 . S
C1588 C1569 1.368 . S
C1588 C1582 1.368 . S
C1588 C1587 1.523 . S
C1589 C1573 1.429 . S
C1589 C1585 1.429 . S
C1589 C1590 1.523 . S
C1590 C1574 1.368 . S
C1590 C1586 1.368 . S
C1590 C1589 1.523 . S
H1591 C1566 0.950 . S
H1592 C1568 0.950 . S
H1593 C1569 0.949 . S
H1594 C1571 0.950 . S
H1595 C1573 0.950 . S
C1596 C1597 1.349 . S
C1596 C1598 1.327 . S
C1596 H1621 0.950 . S
C1597 C1596 1.349 . S
C1597 C1613 1.349 . S
C1598 C1596 1.327 . S
C1598 C1617 1.429 . S
C1598 H1622 0.950 . S
C1599 C1616 1.574 . S
C1599 C1618 1.368 . S
C1599 H1623 0.949 . S
H1600 C1604 0.949 . S
C1601 C1602 1.349 . S
C1601 C1603 1.327 . S
C1601 H1624 0.950 . S
C1602 C1601 1.349 . S
C1602 C1614 1.349 . S
C1603 C1601 1.327 . S
C1603 C1619 1.429 . S
C1603 H1625 0.950 . S
C1604 H1600 0.949 . S
C1604 C1612 1.574 . S
C1604 C1620 1.368 . S
H1605 C1613 0.950 . S
H1606 C1611 0.950 . S
H1607 C1612 0.949 . S
H1608 C1614 0.950 . S
H1609 C1615 0.950 . S
H1610 C1616 0.949 . S
C1611 H1606 0.950 . S
C1611 C1613 1.327 . S
C1611 C1617 1.429 . S
C1612 C1604 1.574 . S
C1612 H1607 0.949 . S
C1612 C1618 1.368 . S
C1613 C1597 1.349 . S
C1613 H1605 0.950 . S
C1613 C1611 1.327 . S
C1614 C1602 1.349 . S
C1614 H1608 0.950 . S
C1614 C1615 1.327 . S
C1615 H1609 0.950 . S
C1615 C1614 1.327 . S
C1615 C1619 1.429 . S
C1616 C1599 1.574 . S
C1616 H1610 0.949 . S
C1616 C1620 1.368 . S
C1617 C1598 1.429 . S
C1617 C1611 1.429 . S
C1617 C1618 1.523 . S
C1618 C1599 1.368 . S
C1618 C1612 1.368 . S
C1618 C1617 1.523 . S
C1619 C1603 1.429 . S
C1619 C1615 1.429 . S
C1619 C1620 1.523 . S
C1620 C1604 1.368 . S
C1620 C1616 1.368 . S
C1620 C1619 1.523 . S
H1621 C1596 0.950 . S
H1622 C1598 0.950 . S
H1623 C1599 0.949 . S
H1624 C1601 0.950 . S
H1625 C1603 0.950 . S
C1626 C1627 1.349 . S
C1626 C1628 1.327 . S
C1626 H1651 0.950 . S
C1627 C1626 1.349 . S
C1627 C1643 1.349 . S
C1628 C1626 1.327 . S
C1628 C1647 1.429 . S
C1628 H1652 0.950 . S
C1629 C1646 1.574 . S
C1629 C1648 1.368 . S
C1629 H1653 0.949 . S
H1630 C1634 0.949 . S
C1631 C1632 1.349 . S
C1631 C1633 1.327 . S
C1631 H1654 0.950 . S
C1632 C1631 1.349 . S
C1632 C1644 1.349 . S
C1633 C1631 1.327 . S
C1633 C1649 1.429 . S
C1633 H1655 0.950 . S
C1634 H1630 0.949 . S
C1634 C1642 1.574 . S
C1634 C1650 1.368 . S
H1635 C1643 0.950 . S
H1636 C1641 0.950 . S
H1637 C1642 0.949 . S
H1638 C1644 0.950 . S
H1639 C1645 0.950 . S
H1640 C1646 0.949 . S
C1641 H1636 0.950 . S
C1641 C1643 1.327 . S
C1641 C1647 1.429 . S
C1642 C1634 1.574 . S
C1642 H1637 0.949 . S
C1642 C1648 1.368 . S
C1643 C1627 1.349 . S
C1643 H1635 0.950 . S
C1643 C1641 1.327 . S
C1644 C1632 1.349 . S
C1644 H1638 0.950 . S
C1644 C1645 1.327 . S
C1645 H1639 0.950 . S
C1645 C1644 1.327 . S
C1645 C1649 1.429 . S
C1646 C1629 1.574 . S
C1646 H1640 0.949 . S
C1646 C1650 1.368 . S
C1647 C1628 1.429 . S
C1647 C1641 1.429 . S
C1647 C1648 1.523 . S
C1648 C1629 1.368 . S
C1648 C1642 1.368 . S
C1648 C1647 1.523 . S
C1649 C1633 1.429 . S
C1649 C1645 1.429 . S
C1649 C1650 1.523 . S
C1650 C1634 1.368 . S
C1650 C1646 1.368 . S
C1650 C1649 1.523 . S
H1651 C1626 0.950 . S
H1652 C1628 0.950 . S
H1653 C1629 0.949 . S
H1654 C1631 0.950 . S
H1655 C1633 0.950 . S
C1656 C1657 1.349 . S
C1656 C1658 1.327 . S
C1656 H1681 0.950 . S
C1657 C1656 1.349 . S
C1657 C1673 1.349 . S
C1658 C1656 1.327 . S
C1658 C1677 1.429 . S
C1658 H1682 0.950 . S
C1659 C1676 1.574 . S
C1659 C1678 1.368 . S
C1659 H1683 0.949 . S
H1660 C1664 0.949 . S
C1661 C1662 1.349 . S
C1661 C1663 1.327 . S
C1661 H1684 0.950 . S
C1662 C1661 1.349 . S
C1662 C1674 1.349 . S
C1663 C1661 1.327 . S
C1663 C1679 1.429 . S
C1663 H1685 0.950 . S
C1664 H1660 0.949 . S
C1664 C1672 1.574 . S
C1664 C1680 1.368 . S
H1665 C1673 0.950 . S
H1666 C1671 0.950 . S
H1667 C1672 0.949 . S
H1668 C1674 0.950 . S
H1669 C1675 0.950 . S
H1670 C1676 0.949 . S
C1671 H1666 0.950 . S
C1671 C1673 1.327 . S
C1671 C1677 1.429 . S
C1672 C1664 1.574 . S
C1672 H1667 0.949 . S
C1672 C1678 1.368 . S
C1673 C1657 1.349 . S
C1673 H1665 0.950 . S
C1673 C1671 1.327 . S
C1674 C1662 1.349 . S
C1674 H1668 0.950 . S
C1674 C1675 1.327 . S
C1675 H1669 0.950 . S
C1675 C1674 1.327 . S
C1675 C1679 1.429 . S
C1676 C1659 1.574 . S
C1676 H1670 0.949 . S
C1676 C1680 1.368 . S
C1677 C1658 1.429 . S
C1677 C1671 1.429 . S
C1677 C1678 1.523 . S
C1678 C1659 1.368 . S
C1678 C1672 1.368 . S
C1678 C1677 1.523 . S
C1679 C1663 1.429 . S
C1679 C1675 1.429 . S
C1679 C1680 1.523 . S
C1680 C1664 1.368 . S
C1680 C1676 1.368 . S
C1680 C1679 1.523 . S
H1681 C1656 0.950 . S
H1682 C1658 0.950 . S
H1683 C1659 0.949 . S
H1684 C1661 0.950 . S
H1685 C1663 0.950 . S
C1686 C1687 1.349 . S
C1686 C1688 1.327 . S
C1686 H1711 0.950 . S
C1687 C1686 1.349 . S
C1687 C1703 1.349 . S
C1688 C1686 1.327 . S
C1688 C1707 1.429 . S
C1688 H1712 0.950 . S
C1689 C1706 1.574 . S
C1689 C1708 1.368 . S
C1689 H1713 0.949 . S
H1690 C1694 0.949 . S
C1691 C1692 1.349 . S
C1691 C1693 1.327 . S
C1691 H1714 0.950 . S
C1692 C1691 1.349 . S
C1692 C1704 1.349 . S
C1693 C1691 1.327 . S
C1693 C1709 1.429 . S
C1693 H1715 0.950 . S
C1694 H1690 0.949 . S
C1694 C1702 1.574 . S
C1694 C1710 1.368 . S
H1695 C1703 0.950 . S
H1696 C1701 0.950 . S
H1697 C1702 0.949 . S
H1698 C1704 0.950 . S
H1699 C1705 0.950 . S
H1700 C1706 0.949 . S
C1701 H1696 0.950 . S
C1701 C1703 1.327 . S
C1701 C1707 1.429 . S
C1702 C1694 1.574 . S
C1702 H1697 0.949 . S
C1702 C1708 1.368 . S
C1703 C1687 1.349 . S
C1703 H1695 0.950 . S
C1703 C1701 1.327 . S
C1704 C1692 1.349 . S
C1704 H1698 0.950 . S
C1704 C1705 1.327 . S
C1705 H1699 0.950 . S
C1705 C1704 1.327 . S
C1705 C1709 1.429 . S
C1706 C1689 1.574 . S
C1706 H1700 0.949 . S
C1706 C1710 1.368 . S
C1707 C1688 1.429 . S
C1707 C1701 1.429 . S
C1707 C1708 1.523 . S
C1708 C1689 1.368 . S
C1708 C1702 1.368 . S
C1708 C1707 1.523 . S
C1709 C1693 1.429 . S
C1709 C1705 1.429 . S
C1709 C1710 1.523 . S
C1710 C1694 1.368 . S
C1710 C1706 1.368 . S
C1710 C1709 1.523 . S
H1711 C1686 0.950 . S
H1712 C1688 0.950 . S
H1713 C1689 0.949 . S
H1714 C1691 0.950 . S
H1715 C1693 0.950 . S
C1716 C1717 1.349 . S
C1716 C1718 1.327 . S
C1716 H1741 0.950 . S
C1717 C1716 1.349 . S
C1717 C1733 1.349 . S
C1718 C1716 1.327 . S
C1718 C1737 1.429 . S
C1718 H1742 0.950 . S
C1719 C1736 1.574 . S
C1719 C1738 1.368 . S
C1719 H1743 0.949 . S
H1720 C1724 0.949 . S
C1721 C1722 1.349 . S
C1721 C1723 1.327 . S
C1721 H1744 0.950 . S
C1722 C1721 1.349 . S
C1722 C1734 1.349 . S
C1723 C1721 1.327 . S
C1723 C1739 1.429 . S
C1723 H1745 0.950 . S
C1724 H1720 0.949 . S
C1724 C1732 1.574 . S
C1724 C1740 1.368 . S
H1725 C1733 0.950 . S
H1726 C1731 0.950 . S
H1727 C1732 0.949 . S
H1728 C1734 0.950 . S
H1729 C1735 0.950 . S
H1730 C1736 0.949 . S
C1731 H1726 0.950 . S
C1731 C1733 1.327 . S
C1731 C1737 1.429 . S
C1732 C1724 1.574 . S
C1732 H1727 0.949 . S
C1732 C1738 1.368 . S
C1733 C1717 1.349 . S
C1733 H1725 0.950 . S
C1733 C1731 1.327 . S
C1734 C1722 1.349 . S
C1734 H1728 0.950 . S
C1734 C1735 1.327 . S
C1735 H1729 0.950 . S
C1735 C1734 1.327 . S
C1735 C1739 1.429 . S
C1736 C1719 1.574 . S
C1736 H1730 0.949 . S
C1736 C1740 1.368 . S
C1737 C1718 1.429 . S
C1737 C1731 1.429 . S
C1737 C1738 1.523 . S
C1738 C1719 1.368 . S
C1738 C1732 1.368 . S
C1738 C1737 1.523 . S
C1739 C1723 1.429 . S
C1739 C1735 1.429 . S
C1739 C1740 1.523 . S
C1740 C1724 1.368 . S
C1740 C1736 1.368 . S
C1740 C1739 1.523 . S
H1741 C1716 0.950 . S
H1742 C1718 0.950 . S
H1743 C1719 0.949 . S
H1744 C1721 0.950 . S
H1745 C1723 0.950 . S
C1746 C1747 1.349 . S
C1746 C1748 1.327 . S
C1746 H1771 0.950 . S
C1747 C1746 1.349 . S
C1747 C1763 1.349 . S
C1748 C1746 1.327 . S
C1748 C1767 1.429 . S
C1748 H1772 0.950 . S
C1749 C1766 1.574 . S
C1749 C1768 1.368 . S
C1749 H1773 0.949 . S
H1750 C1754 0.949 . S
C1751 C1752 1.349 . S
C1751 C1753 1.327 . S
C1751 H1774 0.950 . S
C1752 C1751 1.349 . S
C1752 C1764 1.349 . S
C1753 C1751 1.327 . S
C1753 C1769 1.429 . S
C1753 H1775 0.950 . S
C1754 H1750 0.949 . S
C1754 C1762 1.574 . S
C1754 C1770 1.368 . S
H1755 C1763 0.950 . S
H1756 C1761 0.950 . S
H1757 C1762 0.949 . S
H1758 C1764 0.950 . S
H1759 C1765 0.950 . S
H1760 C1766 0.949 . S
C1761 H1756 0.950 . S
C1761 C1763 1.327 . S
C1761 C1767 1.429 . S
C1762 C1754 1.574 . S
C1762 H1757 0.949 . S
C1762 C1768 1.368 . S
C1763 C1747 1.349 . S
C1763 H1755 0.950 . S
C1763 C1761 1.327 . S
C1764 C1752 1.349 . S
C1764 H1758 0.950 . S
C1764 C1765 1.327 . S
C1765 H1759 0.950 . S
C1765 C1764 1.327 . S
C1765 C1769 1.429 . S
C1766 C1749 1.574 . S
C1766 H1760 0.949 . S
C1766 C1770 1.368 . S
C1767 C1748 1.429 . S
C1767 C1761 1.429 . S
C1767 C1768 1.523 . S
C1768 C1749 1.368 . S
C1768 C1762 1.368 . S
C1768 C1767 1.523 . S
C1769 C1753 1.429 . S
C1769 C1765 1.429 . S
C1769 C1770 1.523 . S
C1770 C1754 1.368 . S
C1770 C1766 1.368 . S
C1770 C1769 1.523 . S
H1771 C1746 0.950 . S
H1772 C1748 0.950 . S
H1773 C1749 0.949 . S
H1774 C1751 0.950 . S
H1775 C1753 0.950 . S
C337 C99 1.194 . S
C342 C1 1.162 . S
C367 C15 0.591 . S
C372 C56 0.589 . S
C397 C83 1.057 . S
C402 C29 1.038 . S
C427 C55 0.882 . S
C432 C85 0.872 . S
C457 C124 1.160 . S
C462 C13 1.194 . S
C487 C27 0.881 . S
C492 C126 0.873 . S
C517 C152 1.167 . S
C522 C41 1.207 . S
C547 C154 0.573 . S
C552 C43 0.579 . S
C577 C68 0.574 . S
C582 C138 0.579 . S
C607 C71 0.941 . S
C612 C140 0.966 . S
C637 C166 0.595 . S
C642 C97 0.587 . S
C667 C112 1.194 . S
C672 C111 1.162 . S
C697 C294 1.207 . S
C702 C169 1.169 . S
C727 C194 0.881 . S
C732 C320 0.872 . S
C757 C197 1.038 . S
C762 C322 1.057 . S
C787 C334 0.940 . S
C792 C222 0.966 . S
C817 C236 1.057 . S
C822 C306 1.036 . S
C847 C279 0.731 . S
C852 C238 0.729 . S
C877 C181 0.966 . S
C882 C224 0.940 . S
C907 C182 0.581 . S
C912 C253 0.569 . S
C937 C209 1.207 . S
C942 C210 1.167 . S
C967 C250 0.731 . S
C972 C292 0.729 . S
C997 C265 0.595 . S
C1002 C308 0.588 . S
C1027 C280 0.731 . S
C1032 C267 0.729 . S
C1057 C57 2.631 . S
C1062 C0 2.556 . S
C1087 C82 1.278 . S
C1092 C14 1.245 . S
C1117 C84 2.814 . S
C1122 C28 2.755 . S
C1147 C98 2.168 . S
C1152 C54 2.126 . S
C1177 C125 2.557 . S
C1182 C167 2.635 . S
C1207 C127 2.126 . S
C1212 C113 2.170 . S
C1237 C153 2.057 . S
C1242 C139 2.123 . S
C1267 C141 1.088 . S
C1272 C155 1.072 . S
C1297 C264 2.630 . S
C1302 C110 2.556 . S
C1327 C168 2.052 . S
C1332 C42 2.121 . S
C1357 C12 2.168 . S
C1362 C195 2.129 . S
C1387 C26 2.814 . S
C1392 C196 2.755 . S
C1417 C70 2.070 . S
C1422 C266 2.122 . S
C1447 C69 1.072 . S
C1452 C223 1.087 . S
C1477 C96 1.249 . S
C1482 C237 1.272 . S
C1507 C225 2.074 . S
C1512 C239 2.121 . S
C1537 C180 1.088 . S
C1542 C252 1.071 . S
C1567 C211 2.056 . S
C1572 C183 2.123 . S
C1597 C278 2.404 . S
C1602 C208 2.447 . S
C1627 C293 2.121 . S
C1632 C335 2.074 . S
C1657 C281 2.408 . S
C1662 C295 2.446 . S
C1687 C321 2.816 . S
C1692 C307 2.759 . S
C1717 C323 1.278 . S
C1722 C309 1.246 . S
C1747 C40 2.447 . S
C1752 C251 2.408 . S
