# Generated by pormake.
# Topology umx, (4)-cn, num edge types: 1
# Building blocks:
#     Node 0, Type 0, BuildingBlock: MUDLON_clean_sbu_0, # of connection points: 4
#     Node 1, Type 0, BuildingBlock: MUDLON_clean_sbu_0, # of connection points: 4
#     Node 2, Type 0, BuildingBlock: MUDLON_clean_sbu_0, # of connection points: 4
#     Node 3, Type 0, BuildingBlock: MUDLON_clean_sbu_0, # of connection points: 4
#     Node 4, Type 0, BuildingBlock: MUDLON_clean_sbu_0, # of connection points: 4
#     Node 5, Type 0, BuildingBlock: MUDLON_clean_sbu_0, # of connection points: 4
#     Node 6, Type 0, BuildingBlock: MUDLON_clean_sbu_0, # of connection points: 4
#     Node 7, Type 0, BuildingBlock: MUDLON_clean_sbu_0, # of connection points: 4
#     Edge 8, Type (0, 0), BuildingBlock: KIFKEQ_clean_linker_1, # of connection points: 2
#     Edge 9, Type (0, 0), BuildingBlock: KIFKEQ_clean_linker_1, # of connection points: 2
#     Edge 10, Type (0, 0), BuildingBlock: KIFKEQ_clean_linker_1, # of connection points: 2
#     Edge 11, Type (0, 0), BuildingBlock: KIFKEQ_clean_linker_1, # of connection points: 2
#     Edge 12, Type (0, 0), BuildingBlock: KIFKEQ_clean_linker_1, # of connection points: 2
#     Edge 13, Type (0, 0), BuildingBlock: KIFKEQ_clean_linker_1, # of connection points: 2
#     Edge 14, Type (0, 0), BuildingBlock: KIFKEQ_clean_linker_1, # of connection points: 2
#     Edge 15, Type (0, 0), BuildingBlock: KIFKEQ_clean_linker_1, # of connection points: 2
#     Edge 16, Type (0, 0), BuildingBlock: KIFKEQ_clean_linker_1, # of connection points: 2
#     Edge 17, Type (0, 0), BuildingBlock: KIFKEQ_clean_linker_1, # of connection points: 2
#     Edge 18, Type (0, 0), BuildingBlock: KIFKEQ_clean_linker_1, # of connection points: 2
#     Edge 19, Type (0, 0), BuildingBlock: KIFKEQ_clean_linker_1, # of connection points: 2
#     Edge 20, Type (0, 0), BuildingBlock: KIFKEQ_clean_linker_1, # of connection points: 2
#     Edge 21, Type (0, 0), BuildingBlock: KIFKEQ_clean_linker_1, # of connection points: 2
#     Edge 22, Type (0, 0), BuildingBlock: KIFKEQ_clean_linker_1, # of connection points: 2
#     Edge 23, Type (0, 0), BuildingBlock: KIFKEQ_clean_linker_1, # of connection points: 2
# Relax obj value: 0.023
# Max RMSD: 0.223
# Mean RMSD: 0.222
data_MOF--net-umx--node1-MUDLON_clean_sbu_0--edge1-KIFKEQ_clean_linker_1
_symmetry_space_group_name_H-M    P1
_symmetry_Int_Tables_number       1
_symmetry_cell_setting            triclinic
loop_
_symmetry_equiv_pos_as_xyz
'x, y, z'
_cell_length_a     41.44016
_cell_length_b     41.272849
_cell_length_c     30.008977
_cell_angle_alpha  90.320394
_cell_angle_beta   89.961987
_cell_angle_gamma 89.88041
loop_
_atom_site_label
_atom_site_type_symbol
_atom_site_fract_x
_atom_site_fract_y
_atom_site_fract_z
_atom_type_partial_charge
Mg0 Mg 0.18852 0.45981 0.04103 0.0
C1 C 0.11929 0.46374 1.00871 0.0
O2 O 0.13357 0.46303 0.96962 0.0
C3 C 0.23965 0.41273 0.05399 0.0
O4 O 0.25381 0.44118 0.05547 0.0
C5 C 0.20011 0.46936 0.13588 0.0
O6 O 0.18894 0.4397 0.13199 0.0
O7 O 0.20377 0.48602 0.10063 0.0
O8 O 0.13625 0.46088 0.04374 0.0
O9 O 0.20365 0.47915 0.97666 0.0
C10 C 0.20897 0.45812 0.94628 0.0
O11 O 0.20679 0.4273 0.95646 0.0
O12 O 0.20937 0.41174 0.04749 0.0
Mg13 Mg 0.55576 0.18356 0.54716 0.0
C14 C 0.54999 0.19978 0.45096 0.0
O15 O 0.58132 0.19664 0.45604 0.0
C16 C 0.51312 0.18594 0.62991 0.0
O17 O 0.50148 0.15913 0.61249 0.0
C18 C 0.59963 0.23697 0.54402 0.0
O19 O 0.57035 0.24909 0.54113 0.0
O20 O 0.60276 0.2064 0.54669 0.0
O21 O 0.53183 0.19649 0.48491 0.0
O22 O 0.55614 0.13115 0.55231 0.0
C23 C 0.55528 0.11333 0.51765 0.0
O24 O 0.55732 0.12689 0.47827 0.0
O25 O 0.53385 0.20204 0.60807 0.0
Mg26 Mg 0.82146 0.5537 0.04602 0.0
C27 C 0.88373 0.52375 1.03028 0.0
O28 O 0.86231 0.50162 1.01954 0.0
C29 C 0.76905 0.59868 0.0387 0.0
O30 O 0.75737 0.56959 0.03103 0.0
C31 C 0.79726 0.54648 0.13902 0.0
O32 O 0.79686 0.5781 0.13431 0.0
O33 O 0.80587 0.52887 0.10612 0.0
O34 O 0.87377 0.55119 0.04421 0.0
O35 O 0.80622 0.53132 0.98381 0.0
C36 C 0.81108 0.54901 0.94989 0.0
O37 O 0.82298 0.57818 0.95599 0.0
O38 O 0.79909 0.60136 0.04646 0.0
Mg39 Mg 0.44295 0.82236 0.54974 0.0
C40 C 0.44724 0.80736 0.4543 0.0
O41 O 0.41967 0.82283 0.45867 0.0
C42 C 0.4835 0.81 0.63321 0.0
O43 O 0.50349 0.8302 0.61388 0.0
C44 C 0.37496 0.80457 0.57778 0.0
O45 O 0.38834 0.80489 0.61746 0.0
O46 O 0.39155 0.81342 0.54438 0.0
O47 O 0.46382 0.80178 0.48915 0.0
O48 O 0.45548 0.87343 0.55003 0.0
C49 C 0.4825 0.88067 0.53261 0.0
O50 O 0.50046 0.85736 0.51575 0.0
O51 O 0.45819 0.80121 0.61257 0.0
Mg52 Mg 0.18796 0.56323 0.54519 0.0
C53 C 0.19389 0.55821 0.44783 0.0
O54 O 0.17522 0.5836 0.45425 0.0
C55 C 0.19474 0.51626 0.62223 0.0
O56 O 0.17149 0.50151 0.60047 0.0
C57 C 0.22734 0.62159 0.52683 0.0
O58 O 0.2429 0.599 0.50446 0.0
O59 O 0.20179 0.61397 0.54771 0.0
O60 O 0.20456 0.54323 0.48177 0.0
O61 O 0.13598 0.55672 0.54633 0.0
C62 C 0.12478 0.5316 0.52706 0.0
O63 O 0.1449 0.51159 0.50711 0.0
O64 O 0.20753 0.54132 0.6053 0.0
Mg65 Mg 0.44573 0.1848 0.04518 0.0
C66 C 0.46174 0.18348 0.13902 0.0
O67 O 0.4369 0.16409 0.13363 0.0
C68 C 0.48849 0.19725 0.96189 0.0
O69 O 0.51148 0.18277 0.98441 0.0
C70 C 0.39561 0.2295 0.08021 0.0
O71 O 0.42164 0.23902 0.10142 0.0
O72 O 0.39756 0.20524 0.054 0.0
O73 O 0.47324 0.1975 0.10481 0.0
O74 O 0.4477 0.13222 0.04197 0.0
C75 C 0.4754 0.12035 0.05037 0.0
O76 O 0.49916 0.14022 0.05998 0.0
O77 O 0.46139 0.20247 0.98047 0.0
Mg78 Mg 0.82358 0.45129 0.54127 0.0
C79 C 0.88656 0.48081 0.53442 0.0
O80 O 0.86585 0.50496 0.53352 0.0
C81 C 0.77336 0.40508 0.56289 0.0
O82 O 0.76242 0.43326 0.57684 0.0
C83 C 0.79593 0.45742 0.44967 0.0
O84 O 0.79429 0.42594 0.4554 0.0
O85 O 0.80609 0.47511 0.48155 0.0
O86 O 0.87572 0.45209 0.53731 0.0
O87 O 0.81196 0.47609 0.60326 0.0
C88 C 0.8203 0.46032 0.6377 0.0
O89 O 0.83462 0.43213 0.63226 0.0
O90 O 0.8012 0.40385 0.54513 0.0
Mg91 Mg 0.54687 0.81453 0.04823 0.0
C92 C 0.5375 0.80829 0.14417 0.0
O93 O 0.56526 0.82327 0.13962 0.0
C94 C 0.50424 0.80701 0.96523 0.0
O95 O 0.48643 0.82905 0.98528 0.0
C96 C 0.59558 0.76632 0.0689 0.0
O97 O 0.56796 0.75333 0.08065 0.0
O98 O 0.59541 0.7949 0.05329 0.0
O99 O 0.52205 0.8003 0.10914 0.0
O100 O 0.54417 0.86702 0.04545 0.0
C101 C 0.51789 0.87946 0.05939 0.0
O102 O 0.4954 0.86022 0.07504 0.0
O103 O 0.52869 0.79555 0.98531 0.0
H104 H 0.1981 0.43749 0.21487 0.0
H105 H 0.21493 0.53223 0.15898 0.0
H106 H 0.20171 0.46008 0.28948 0.0
H107 H 0.21928 0.5549 0.23429 0.0
H108 H 0.17485 0.58621 0.37015 0.0
H109 H 0.18185 0.56577 0.2947 0.0
H110 H 0.23607 0.48437 0.34527 0.0
H111 H 0.22839 0.50455 0.42129 0.0
C112 C 0.20303 0.46314 0.21848 0.0
C113 C 0.20589 0.48313 0.18089 0.0
C114 C 0.20539 0.47606 0.26143 0.0
C115 C 0.21068 0.50934 0.268 0.0
C116 C 0.21477 0.5292 0.23039 0.0
C117 C 0.21245 0.51621 0.18724 0.0
C118 C 0.1885 0.56407 0.36527 0.0
C119 C 0.20078 0.54683 0.40186 0.0
C120 C 0.19277 0.55249 0.32184 0.0
C121 C 0.20945 0.52337 0.31382 0.0
C122 C 0.22272 0.50667 0.35032 0.0
C123 C 0.21844 0.51829 0.39388 0.0
H124 H 0.46489 0.16277 0.68307 0.0
H125 H 0.54694 0.22721 0.68404 0.0
H126 H 0.4584 0.17091 0.76328 0.0
H127 H 0.54056 0.23499 0.76436 0.0
H128 H 0.54361 0.1936 0.91151 0.0
H129 H 0.54791 0.19611 0.83032 0.0
H130 H 0.44568 0.21502 0.82108 0.0
H131 H 0.44128 0.21286 0.90208 0.0
C132 C 0.48124 0.17902 0.70025 0.0
C133 C 0.50647 0.19424 0.67717 0.0
C134 C 0.47746 0.18375 0.74616 0.0
C135 C 0.49911 0.20344 0.77007 0.0
C136 C 0.52371 0.21949 0.7468 0.0
C137 C 0.52718 0.21517 0.70077 0.0
C138 C 0.52214 0.19881 0.89223 0.0
C139 C 0.4921 0.20285 0.91334 0.0
C140 C 0.52463 0.20035 0.84576 0.0
C141 C 0.49707 0.20555 0.81941 0.0
C142 C 0.46725 0.21069 0.84055 0.0
C143 C 0.46483 0.20961 0.88699 0.0
H144 H 0.80686 0.5195 0.42189 0.0
H145 H 0.77163 0.4266 0.37628 0.0
H146 H 0.80288 0.54032 0.34634 0.0
H147 H 0.76685 0.44768 0.30088 0.0
H148 H 0.80769 0.48402 0.16621 0.0
H149 H 0.80293 0.46283 0.24162 0.0
H150 H 0.76704 0.55563 0.28732 0.0
H151 H 0.77262 0.57701 0.21231 0.0
C152 C 0.79772 0.50369 0.3959 0.0
C153 C 0.78981 0.47132 0.40507 0.0
C154 C 0.79529 0.51566 0.35255 0.0
C155 C 0.78473 0.49561 0.31739 0.0
C156 C 0.77562 0.46361 0.32697 0.0
C157 C 0.77816 0.4516 0.37029 0.0
C158 C 0.79843 0.49977 0.19226 0.0
C159 C 0.79085 0.53228 0.18334 0.0
C160 C 0.79555 0.48759 0.2355 0.0
C161 C 0.78486 0.50762 0.2707 0.0
C162 C 0.77597 0.53973 0.26125 0.0
C163 C 0.779 0.55192 0.21813 0.0
H164 H 0.45216 0.82256 0.91355 0.0
H165 H 0.54535 0.77551 0.90813 0.0
H166 H 0.44735 0.81722 0.83274 0.0
H167 H 0.54052 0.7704 0.82732 0.0
H168 H 0.53673 0.81943 0.68551 0.0
H169 H 0.54084 0.81265 0.76609 0.0
H170 H 0.44338 0.77603 0.76976 0.0
H171 H 0.43923 0.78259 0.68915 0.0
C172 C 0.47137 0.81063 0.89525 0.0
C173 C 0.4992 0.79965 0.91731 0.0
C174 C 0.46857 0.80746 0.84897 0.0
C175 C 0.49368 0.79358 0.8237 0.0
C176 C 0.52094 0.78147 0.84591 0.0
C177 C 0.52357 0.78425 0.89224 0.0
C178 C 0.51637 0.80943 0.70336 0.0
C179 C 0.48761 0.80174 0.68089 0.0
C180 C 0.51876 0.80542 0.7495 0.0
C181 C 0.49234 0.79399 0.77424 0.0
C182 C 0.46402 0.78516 0.75159 0.0
C183 C 0.46175 0.78876 0.70538 0.0
H184 H 0.79147 0.5177 0.6621 0.0
H185 H 0.83572 0.43161 0.71632 0.0
H186 H 0.78368 0.5389 0.73758 0.0
H187 H 0.82863 0.45299 0.79123 0.0
H188 H 0.7921 0.48809 0.92397 0.0
H189 H 0.78935 0.46657 0.84805 0.0
H190 H 0.81758 0.55992 0.79666 0.0
H191 H 0.81956 0.58153 0.87206 0.0
C192 C 0.79947 0.50329 0.69006 0.0
C193 C 0.81439 0.47307 0.68317 0.0
C194 C 0.7951 0.51546 0.73329 0.0
C195 C 0.80554 0.49764 0.77048 0.0
C196 C 0.81984 0.46714 0.76347 0.0
C197 C 0.82418 0.45501 0.72039 0.0
C198 C 0.79729 0.50409 0.8964 0.0
C199 C 0.80631 0.53643 0.90409 0.0
C200 C 0.7959 0.49173 0.85292 0.0
C201 C 0.80348 0.51146 0.81627 0.0
C202 C 0.81125 0.54412 0.824 0.0
C203 C 0.81262 0.55645 0.86736 0.0
H204 H 0.56658 0.8215 0.22346 0.0
H205 H 0.47942 0.78101 0.1674 0.0
H206 H 0.5447 0.81529 0.29792 0.0
H207 H 0.45766 0.77405 0.24254 0.0
H208 H 0.41578 0.81462 0.3754 0.0
H209 H 0.4377 0.80947 0.30067 0.0
H210 H 0.52883 0.77782 0.35533 0.0
H211 H 0.50699 0.7838 0.43066 0.0
C212 C 0.54284 0.81089 0.22702 0.0
C213 C 0.52461 0.80204 0.18938 0.0
C214 C 0.53041 0.80703 0.2699 0.0
C215 C 0.4994 0.79417 0.27635 0.0
C216 C 0.4815 0.78439 0.23874 0.0
C217 C 0.49398 0.78826 0.19569 0.0
C218 C 0.44041 0.80621 0.3716 0.0
C219 C 0.45976 0.79998 0.40908 0.0
C220 C 0.45291 0.80299 0.32859 0.0
C221 C 0.48511 0.79342 0.32189 0.0
C222 C 0.50406 0.78573 0.35934 0.0
C223 C 0.49151 0.78895 0.40251 0.0
H224 H 0.2227 0.41838 0.87606 0.0
H225 H 0.20548 0.51893 0.90943 0.0
H226 H 0.22417 0.432 0.79736 0.0
H227 H 0.20663 0.53251 0.83018 0.0
H228 H 0.23235 0.5484 0.68332 0.0
H229 H 0.24059 0.5347 0.76168 0.0
H230 H 0.18272 0.44869 0.74401 0.0
H231 H 0.1747 0.46213 0.66595 0.0
C232 C 0.21949 0.44349 0.86667 0.0
C233 C 0.21365 0.46753 0.89909 0.0
C234 C 0.2202 0.45124 0.82146 0.0
C235 C 0.21514 0.48325 0.80744 0.0
C236 C 0.2108 0.50763 0.83991 0.0
C237 C 0.21003 0.49984 0.88532 0.0
C238 C 0.22176 0.52633 0.69603 0.0
C239 C 0.20281 0.50637 0.66835 0.0
C240 C 0.22629 0.51864 0.741 0.0
C241 C 0.21225 0.49068 0.75913 0.0
C242 C 0.19419 0.47023 0.73104 0.0
C243 C 0.18947 0.47801 0.68626 0.0
H244 H 0.58299 0.20468 0.37262 0.0
H245 H 0.48626 0.20274 0.42638 0.0
H246 H 0.56127 0.20422 0.29739 0.0
H247 H 0.46444 0.20314 0.35082 0.0
H248 H 0.44138 0.15593 0.21607 0.0
H249 H 0.46184 0.1643 0.29087 0.0
H250 H 0.53125 0.23308 0.24072 0.0
H251 H 0.51102 0.22411 0.16497 0.0
C252 C 0.55703 0.20466 0.36843 0.0
C253 C 0.53635 0.20337 0.40559 0.0
C254 C 0.54457 0.20462 0.32517 0.0
C255 C 0.51111 0.20335 0.31795 0.0
C256 C 0.49038 0.20353 0.35517 0.0
C257 C 0.50285 0.2035 0.39851 0.0
C258 C 0.46098 0.17293 0.22081 0.0
C259 C 0.47464 0.18928 0.18442 0.0
C260 C 0.47252 0.17797 0.26393 0.0
C261 C 0.49804 0.19955 0.27199 0.0
C262 C 0.51169 0.21609 0.23564 0.0
C263 C 0.50009 0.21103 0.19226 0.0
H264 H 0.91075 0.47284 0.98622 0.0
H265 H 0.93522 0.55701 0.06549 0.0
H266 H 0.96756 0.45829 0.98118 0.0
H267 H 0.99246 0.54224 0.06038 0.0
H268 H 0.08508 0.48047 0.08338 0.0
H269 H 0.02832 0.4962 0.08804 0.0
H270 H 0.0181 0.48039 0.94642 0.0
H271 H 0.07483 0.4647 0.94158 0.0
C272 C 0.92828 0.48831 1.00252 0.0
C273 C 0.91849 0.51608 1.02634 0.0
C274 C 0.96085 0.48002 0.9994 0.0
C275 C 0.9844 0.4991 1.02039 0.0
C276 C 0.97472 0.52695 0.04417 0.0
C277 C 0.94205 0.53551 0.04686 0.0
C278 C 0.07069 0.48014 0.05326 0.0
C279 C 0.08444 0.47125 1.01209 0.0
C280 C 0.03829 0.48945 0.05592 0.0
C281 C 0.01888 0.48967 1.01758 0.0
C282 C 0.03248 0.48029 0.97656 0.0
C283 C 0.06496 0.47134 0.9738 0.0
H284 H 0.45537 0.93421 0.57228 0.0
H285 H 0.53593 0.90377 0.4905 0.0
H286 H 0.47492 0.99002 0.56991 0.0
H287 H 0.55546 0.95934 0.48849 0.0
H288 H 0.55511 0.06794 0.4511 0.0
H289 H 0.53816 0.01154 0.45577 0.0
H290 H 0.52146 0.02318 0.59703 0.0
H291 H 0.53822 0.07974 0.59243 0.0
C292 C 0.47723 0.9394 0.55388 0.0
C293 C 0.49404 0.91457 0.5315 0.0
C294 C 0.48855 0.9713 0.55278 0.0
C295 C 0.51674 0.97903 0.52902 0.0
C296 C 0.53351 0.95419 0.50671 0.0
C297 C 0.52235 0.92232 0.50805 0.0
C298 C 0.54812 0.05842 0.48325 0.0
C299 C 0.54799 0.07836 0.52137 0.0
C300 C 0.53849 0.02607 0.48593 0.0
C301 C 0.52832 0.01299 0.52673 0.0
C302 C 0.52879 0.03272 0.56503 0.0
C303 C 0.53866 0.06503 0.56243 0.0
H304 H 0.0767 0.56544 0.56942 0.0
H305 H 0.09391 0.48074 0.4874 0.0
H306 H 0.01937 0.55233 0.57205 0.0
H307 H 0.03658 0.46805 0.48927 0.0
H308 H 0.93679 0.43757 0.54058 0.0
H309 H 0.99451 0.44968 0.53975 0.0
H310 H 0.97296 0.55138 0.52324 0.0
H311 H 0.9156 0.53945 0.525 0.0
C312 C 0.06824 0.54414 0.55177 0.0
C313 C 0.08987 0.52418 0.52816 0.0
C314 C 0.03537 0.53668 0.55312 0.0
C315 C 0.02338 0.50913 0.53084 0.0
C316 C 0.04506 0.48918 0.50729 0.0
C317 C 0.07791 0.49661 0.50598 0.0
C318 C 0.94443 0.46248 0.53675 0.0
C319 C 0.92161 0.48753 0.53294 0.0
C320 C 0.97748 0.46942 0.53609 0.0
C321 C 0.98834 0.50153 0.53159 0.0
C322 C 0.96544 0.52647 0.52752 0.0
C323 C 0.93251 0.51956 0.52823 0.0
H324 H 0.55751 0.92642 1.02544 0.0
H325 H 0.46452 0.91239 0.08764 0.0
H326 H 0.54674 0.98449 1.02078 0.0
H327 H 0.4541 0.97032 0.08382 0.0
H328 H 0.4326 0.0716 0.03086 0.0
H329 H 0.44301 0.01328 0.03087 0.0
H330 H 0.54178 0.03105 0.06989 0.0
H331 H 0.53165 0.08903 0.06897 0.0
C332 C 0.53486 0.93572 0.03828 0.0
C333 C 0.51192 0.91478 0.05697 0.0
C334 C 0.52872 0.969 0.03575 0.0
C335 C 0.49952 0.98205 0.05189 0.0
C336 C 0.4766 0.96104 0.07046 0.0
C337 C 0.48272 0.92782 0.07297 0.0
C338 C 0.45653 0.06301 0.0393 0.0
C339 C 0.48126 0.08496 0.04994 0.0
C340 C 0.46248 0.02961 0.03952 0.0
C341 C 0.49326 0.0175 0.05036 0.0
C342 C 0.51795 0.03953 0.06073 0.0
C343 C 0.51204 0.07282 0.06049 0.0
H344 H 0.30261 0.40904 0.07788 0.0
H345 H 0.22059 0.34917 0.04433 0.0
H346 H 0.33543 0.361 0.08794 0.0
H347 H 0.25389 0.3005 0.05483 0.0
H348 H 0.34481 0.23174 1.02138 0.0
H349 H 0.30292 0.27369 1.01804 0.0
H350 H 0.33883 0.3153 0.14064 0.0
H351 H 0.38069 0.27402 0.14366 0.0
C352 C 0.29149 0.38558 0.07283 0.0
C353 C 0.25895 0.38295 0.06038 0.0
C354 C 0.3103 0.35799 0.07895 0.0
C355 C 0.29713 0.32696 0.0727 0.0
C356 C 0.26463 0.32414 0.05989 0.0
C357 C 0.2456 0.35194 0.05404 0.0
C358 C 0.34321 0.24942 0.04811 0.0
C359 C 0.36636 0.24999 0.08235 0.0
C360 C 0.31923 0.27338 0.04623 0.0
C361 C 0.31807 0.29812 0.07861 0.0
C362 C 0.33961 0.29697 0.11467 0.0
C363 C 0.36352 0.27325 0.11645 0.0
H364 H 0.77982 0.34676 0.51875 0.0
H365 H 0.71865 0.39887 0.61137 0.0
H366 H 0.73973 0.3031 0.5149 0.0
H367 H 0.67925 0.35551 0.60788 0.0
H368 H 0.59854 0.30246 0.53848 0.0
H369 H 0.64328 0.33982 0.54511 0.0
H370 H 0.70934 0.25961 0.56033 0.0
H371 H 0.66405 0.22157 0.55331 0.0
C372 C 0.75817 0.34861 0.53884 0.0
C373 C 0.75209 0.37645 0.56478 0.0
C374 C 0.73531 0.32364 0.5367 0.0
C375 C 0.70616 0.32626 0.56046 0.0
C376 C 0.70118 0.35319 0.58842 0.0
C377 C 0.72381 0.378 0.59048 0.0
C378 C 0.62253 0.29259 0.54315 0.0
C379 C 0.62768 0.25901 0.54579 0.0
C380 C 0.64818 0.31408 0.54718 0.0
C381 C 0.6797 0.30263 0.55396 0.0
C382 C 0.68522 0.26903 0.55519 0.0
C383 C 0.65934 0.24734 0.55131 0.0
H384 H 0.7827 0.66234 0.06021 0.0
H385 H 0.70468 0.59816 1.02338 0.0
H386 H 0.74358 0.70674 0.0703 0.0
H387 H 0.66633 0.64195 0.03348 0.0
H388 H 0.60357 0.70899 0.11091 0.0
H389 H 0.64861 0.67157 0.10446 0.0
H390 H 0.69999 0.74023 1.02304 0.0
H391 H 0.65449 0.77828 1.02957 0.0
C392 C 0.75738 0.65777 0.05393 0.0
C393 C 0.74675 0.62665 0.04148 0.0
C394 C 0.7351 0.68313 0.05963 0.0
C395 C 0.70197 0.67753 0.05337 0.0
C396 C 0.69167 0.64675 0.03939 0.0
C397 C 0.71374 0.62168 0.03345 0.0
C398 C 0.62455 0.71642 0.09202 0.0
C399 C 0.62523 0.74637 0.07008 0.0
C400 C 0.65033 0.69493 0.08833 0.0
C401 C 0.67746 0.70282 0.0626 0.0
C402 C 0.67927 0.73361 0.04301 0.0
C403 C 0.65325 0.75529 0.04669 0.0
H404 H 0.33794 0.77329 0.63955 0.0
H405 H 0.34255 0.79598 0.49924 0.0
H406 H 0.29514 0.73438 0.62464 0.0
H407 H 0.29935 0.75743 0.48454 0.0
H408 H 0.27473 0.64736 0.47565 0.0
H409 H 0.30293 0.69822 0.48687 0.0
H410 H 0.24011 0.72134 0.59758 0.0
H411 H 0.21181 0.66987 0.5865 0.0
C412 C 0.32921 0.77069 0.60571 0.0
C413 C 0.34415 0.78723 0.57047 0.0
C414 C 0.30452 0.74846 0.59719 0.0
C415 C 0.29427 0.74242 0.55329 0.0
C416 C 0.3072 0.76112 0.51862 0.0
C417 C 0.33187 0.78331 0.5271 0.0
C418 C 0.26657 0.66345 0.50201 0.0
C419 C 0.24127 0.65445 0.53047 0.0
C420 C 0.28257 0.69281 0.50819 0.0
C421 C 0.27377 0.71385 0.54315 0.0
C422 C 0.24754 0.70551 0.57053 0.0
C423 C 0.23129 0.67614 0.56408 0.0
loop_
_geom_bond_atom_site_label_1
_geom_bond_atom_site_label_2
_geom_bond_distance
_geom_bond_site_symmetry_2
_ccdc_geom_bond_type
Mg0 O7 2.141 . S
Mg0 O8 2.048 . S
Mg0 O9 2.048 1_554 S
Mg0 O12 2.141 . S
C1 O2 1.313 . S
C1 O8 1.195 . S
O2 C1 1.313 . S
C3 O4 1.245 . S
C3 O12 1.289 . S
O4 C3 1.245 . S
C5 O6 1.245 . S
C5 O7 1.289 . S
O6 C5 1.245 . S
O7 Mg0 2.141 . S
O7 C5 1.289 . S
O8 Mg0 2.048 . S
O8 C1 1.195 . S
O9 Mg0 2.048 1_556 S
O9 C10 1.195 . S
C10 O9 1.195 . S
C10 O11 1.313 . S
O11 C10 1.313 . S
O12 Mg0 2.141 . S
O12 C3 1.289 . S
Mg13 O20 2.141 . S
Mg13 O21 2.048 . S
Mg13 O22 2.048 . S
Mg13 O25 2.141 . S
C14 O15 1.313 . S
C14 O21 1.195 . S
O15 C14 1.313 . S
C16 O17 1.245 . S
C16 O25 1.289 . S
O17 C16 1.245 . S
C18 O19 1.245 . S
C18 O20 1.289 . S
O19 C18 1.245 . S
O20 Mg13 2.141 . S
O20 C18 1.289 . S
O21 Mg13 2.048 . S
O21 C14 1.195 . S
O22 Mg13 2.048 . S
O22 C23 1.195 . S
C23 O22 1.195 . S
C23 O24 1.313 . S
O24 C23 1.313 . S
O25 Mg13 2.141 . S
O25 C16 1.289 . S
Mg26 O33 2.141 . S
Mg26 O34 2.048 . S
Mg26 O35 2.048 1_554 S
Mg26 O38 2.141 . S
C27 O28 1.313 . S
C27 O34 1.195 . S
O28 C27 1.313 . S
C29 O30 1.245 . S
C29 O38 1.289 . S
O30 C29 1.245 . S
C31 O32 1.245 . S
C31 O33 1.289 . S
O32 C31 1.245 . S
O33 Mg26 2.141 . S
O33 C31 1.289 . S
O34 Mg26 2.048 . S
O34 C27 1.195 . S
O35 Mg26 2.048 1_556 S
O35 C36 1.195 . S
C36 O35 1.195 . S
C36 O37 1.313 . S
O37 C36 1.313 . S
O38 Mg26 2.141 . S
O38 C29 1.289 . S
Mg39 O46 2.141 . S
Mg39 O47 2.048 . S
Mg39 O48 2.048 . S
Mg39 O51 2.141 . S
C40 O41 1.313 . S
C40 O47 1.195 . S
O41 C40 1.313 . S
C42 O43 1.245 . S
C42 O51 1.289 . S
O43 C42 1.245 . S
C44 O45 1.245 . S
C44 O46 1.289 . S
O45 C44 1.245 . S
O46 Mg39 2.141 . S
O46 C44 1.289 . S
O47 Mg39 2.048 . S
O47 C40 1.195 . S
O48 Mg39 2.048 . S
O48 C49 1.195 . S
C49 O48 1.195 . S
C49 O50 1.313 . S
O50 C49 1.313 . S
O51 Mg39 2.141 . S
O51 C42 1.289 . S
Mg52 O59 2.141 . S
Mg52 O60 2.048 . S
Mg52 O61 2.048 . S
Mg52 O64 2.141 . S
C53 O54 1.313 . S
C53 O60 1.195 . S
O54 C53 1.313 . S
C55 O56 1.245 . S
C55 O64 1.289 . S
O56 C55 1.245 . S
C57 O58 1.245 . S
C57 O59 1.289 . S
O58 C57 1.245 . S
O59 Mg52 2.141 . S
O59 C57 1.289 . S
O60 Mg52 2.048 . S
O60 C53 1.195 . S
O61 Mg52 2.048 . S
O61 C62 1.195 . S
C62 O61 1.195 . S
C62 O63 1.313 . S
O63 C62 1.313 . S
O64 Mg52 2.141 . S
O64 C55 1.289 . S
Mg65 O72 2.141 . S
Mg65 O73 2.048 . S
Mg65 O74 2.048 . S
Mg65 O77 2.141 1_554 S
C66 O67 1.313 . S
C66 O73 1.195 . S
O67 C66 1.313 . S
C68 O69 1.245 . S
C68 O77 1.289 . S
O69 C68 1.245 . S
C70 O71 1.245 . S
C70 O72 1.289 . S
O71 C70 1.245 . S
O72 Mg65 2.141 . S
O72 C70 1.289 . S
O73 Mg65 2.048 . S
O73 C66 1.195 . S
O74 Mg65 2.048 . S
O74 C75 1.195 . S
C75 O74 1.195 . S
C75 O76 1.313 . S
O76 C75 1.313 . S
O77 Mg65 2.141 1_556 S
O77 C68 1.289 . S
Mg78 O85 2.141 . S
Mg78 O86 2.048 . S
Mg78 O87 2.048 . S
Mg78 O90 2.141 . S
C79 O80 1.313 . S
C79 O86 1.195 . S
O80 C79 1.313 . S
C81 O82 1.245 . S
C81 O90 1.289 . S
O82 C81 1.245 . S
C83 O84 1.245 . S
C83 O85 1.289 . S
O84 C83 1.245 . S
O85 Mg78 2.141 . S
O85 C83 1.289 . S
O86 Mg78 2.048 . S
O86 C79 1.195 . S
O87 Mg78 2.048 . S
O87 C88 1.195 . S
C88 O87 1.195 . S
C88 O89 1.313 . S
O89 C88 1.313 . S
O90 Mg78 2.141 . S
O90 C81 1.289 . S
Mg91 O98 2.141 . S
Mg91 O99 2.048 . S
Mg91 O100 2.048 . S
Mg91 O103 2.141 1_554 S
C92 O93 1.313 . S
C92 O99 1.195 . S
O93 C92 1.313 . S
C94 O95 1.245 . S
C94 O103 1.289 . S
O95 C94 1.245 . S
C96 O97 1.245 . S
C96 O98 1.289 . S
O97 C96 1.245 . S
O98 Mg91 2.141 . S
O98 C96 1.289 . S
O99 Mg91 2.048 . S
O99 C92 1.195 . S
O100 Mg91 2.048 . S
O100 C101 1.195 . S
C101 O100 1.195 . S
C101 O102 1.313 . S
O102 C101 1.313 . S
O103 Mg91 2.141 1_556 S
O103 C94 1.289 . S
H104 C112 0.950 . S
H105 C117 0.950 . S
H106 C114 0.950 . S
H107 C116 0.950 . S
H108 C118 0.950 . S
H109 C120 0.950 . S
H110 C122 0.950 . S
H111 C123 0.950 . S
C112 H104 0.950 . S
C112 C113 1.386 . S
C112 C114 1.391 . S
C113 C112 1.386 . S
C113 C117 1.393 . S
C114 H106 0.950 . S
C114 C112 1.391 . S
C114 C115 1.400 . S
C115 C114 1.400 . S
C115 C116 1.398 . S
C115 C121 1.491 . S
C116 H107 0.950 . S
C116 C115 1.398 . S
C116 C117 1.391 . S
C117 H105 0.950 . S
C117 C113 1.393 . S
C117 C116 1.391 . S
C118 H108 0.950 . S
C118 C119 1.386 . S
C118 C120 1.391 . S
C119 C118 1.386 . S
C119 C123 1.393 . S
C120 H109 0.950 . S
C120 C118 1.391 . S
C120 C121 1.400 . S
C121 C115 1.491 . S
C121 C120 1.400 . S
C121 C122 1.398 . S
C122 H110 0.950 . S
C122 C121 1.398 . S
C122 C123 1.391 . S
C123 H111 0.950 . S
C123 C119 1.393 . S
C123 C122 1.391 . S
H124 C132 0.950 . S
H125 C137 0.950 . S
H126 C134 0.950 . S
H127 C136 0.950 . S
H128 C138 0.950 . S
H129 C140 0.950 . S
H130 C142 0.950 . S
H131 C143 0.950 . S
C132 H124 0.950 . S
C132 C133 1.386 . S
C132 C134 1.391 . S
C133 C132 1.386 . S
C133 C137 1.393 . S
C134 H126 0.950 . S
C134 C132 1.391 . S
C134 C135 1.400 . S
C135 C134 1.400 . S
C135 C136 1.398 . S
C135 C141 1.491 . S
C136 H127 0.950 . S
C136 C135 1.398 . S
C136 C137 1.391 . S
C137 H125 0.950 . S
C137 C133 1.393 . S
C137 C136 1.391 . S
C138 H128 0.950 . S
C138 C139 1.386 . S
C138 C140 1.391 . S
C139 C138 1.386 . S
C139 C143 1.393 . S
C140 H129 0.950 . S
C140 C138 1.391 . S
C140 C141 1.400 . S
C141 C135 1.491 . S
C141 C140 1.400 . S
C141 C142 1.398 . S
C142 H130 0.950 . S
C142 C141 1.398 . S
C142 C143 1.391 . S
C143 H131 0.950 . S
C143 C139 1.393 . S
C143 C142 1.391 . S
H144 C152 0.950 . S
H145 C157 0.950 . S
H146 C154 0.950 . S
H147 C156 0.950 . S
H148 C158 0.950 . S
H149 C160 0.950 . S
H150 C162 0.950 . S
H151 C163 0.950 . S
C152 H144 0.950 . S
C152 C153 1.386 . S
C152 C154 1.391 . S
C153 C152 1.386 . S
C153 C157 1.393 . S
C154 H146 0.950 . S
C154 C152 1.391 . S
C154 C155 1.400 . S
C155 C154 1.400 . S
C155 C156 1.398 . S
C155 C161 1.491 . S
C156 H147 0.950 . S
C156 C155 1.398 . S
C156 C157 1.391 . S
C157 H145 0.950 . S
C157 C153 1.393 . S
C157 C156 1.391 . S
C158 H148 0.950 . S
C158 C159 1.386 . S
C158 C160 1.391 . S
C159 C158 1.386 . S
C159 C163 1.393 . S
C160 H149 0.950 . S
C160 C158 1.391 . S
C160 C161 1.400 . S
C161 C155 1.491 . S
C161 C160 1.400 . S
C161 C162 1.398 . S
C162 H150 0.950 . S
C162 C161 1.398 . S
C162 C163 1.391 . S
C163 H151 0.950 . S
C163 C159 1.393 . S
C163 C162 1.391 . S
H164 C172 0.950 . S
H165 C177 0.950 . S
H166 C174 0.950 . S
H167 C176 0.950 . S
H168 C178 0.950 . S
H169 C180 0.950 . S
H170 C182 0.950 . S
H171 C183 0.950 . S
C172 H164 0.950 . S
C172 C173 1.386 . S
C172 C174 1.391 . S
C173 C172 1.386 . S
C173 C177 1.393 . S
C174 H166 0.950 . S
C174 C172 1.391 . S
C174 C175 1.400 . S
C175 C174 1.400 . S
C175 C176 1.398 . S
C175 C181 1.491 . S
C176 H167 0.950 . S
C176 C175 1.398 . S
C176 C177 1.391 . S
C177 H165 0.950 . S
C177 C173 1.393 . S
C177 C176 1.391 . S
C178 H168 0.950 . S
C178 C179 1.386 . S
C178 C180 1.391 . S
C179 C178 1.386 . S
C179 C183 1.393 . S
C180 H169 0.950 . S
C180 C178 1.391 . S
C180 C181 1.400 . S
C181 C175 1.491 . S
C181 C180 1.400 . S
C181 C182 1.398 . S
C182 H170 0.950 . S
C182 C181 1.398 . S
C182 C183 1.391 . S
C183 H171 0.950 . S
C183 C179 1.393 . S
C183 C182 1.391 . S
H184 C192 0.950 . S
H185 C197 0.950 . S
H186 C194 0.950 . S
H187 C196 0.950 . S
H188 C198 0.950 . S
H189 C200 0.950 . S
H190 C202 0.950 . S
H191 C203 0.950 . S
C192 H184 0.950 . S
C192 C193 1.386 . S
C192 C194 1.391 . S
C193 C192 1.386 . S
C193 C197 1.393 . S
C194 H186 0.950 . S
C194 C192 1.391 . S
C194 C195 1.400 . S
C195 C194 1.400 . S
C195 C196 1.398 . S
C195 C201 1.491 . S
C196 H187 0.950 . S
C196 C195 1.398 . S
C196 C197 1.391 . S
C197 H185 0.950 . S
C197 C193 1.393 . S
C197 C196 1.391 . S
C198 H188 0.950 . S
C198 C199 1.386 . S
C198 C200 1.391 . S
C199 C198 1.386 . S
C199 C203 1.393 . S
C200 H189 0.950 . S
C200 C198 1.391 . S
C200 C201 1.400 . S
C201 C195 1.491 . S
C201 C200 1.400 . S
C201 C202 1.398 . S
C202 H190 0.950 . S
C202 C201 1.398 . S
C202 C203 1.391 . S
C203 H191 0.950 . S
C203 C199 1.393 . S
C203 C202 1.391 . S
H204 C212 0.950 . S
H205 C217 0.950 . S
H206 C214 0.950 . S
H207 C216 0.950 . S
H208 C218 0.950 . S
H209 C220 0.950 . S
H210 C222 0.950 . S
H211 C223 0.950 . S
C212 H204 0.950 . S
C212 C213 1.386 . S
C212 C214 1.391 . S
C213 C212 1.386 . S
C213 C217 1.393 . S
C214 H206 0.950 . S
C214 C212 1.391 . S
C214 C215 1.400 . S
C215 C214 1.400 . S
C215 C216 1.398 . S
C215 C221 1.491 . S
C216 H207 0.950 . S
C216 C215 1.398 . S
C216 C217 1.391 . S
C217 H205 0.950 . S
C217 C213 1.393 . S
C217 C216 1.391 . S
C218 H208 0.950 . S
C218 C219 1.386 . S
C218 C220 1.391 . S
C219 C218 1.386 . S
C219 C223 1.393 . S
C220 H209 0.950 . S
C220 C218 1.391 . S
C220 C221 1.400 . S
C221 C215 1.491 . S
C221 C220 1.400 . S
C221 C222 1.398 . S
C222 H210 0.950 . S
C222 C221 1.398 . S
C222 C223 1.391 . S
C223 H211 0.950 . S
C223 C219 1.393 . S
C223 C222 1.391 . S
H224 C232 0.950 . S
H225 C237 0.950 . S
H226 C234 0.950 . S
H227 C236 0.950 . S
H228 C238 0.950 . S
H229 C240 0.950 . S
H230 C242 0.950 . S
H231 C243 0.950 . S
C232 H224 0.950 . S
C232 C233 1.386 . S
C232 C234 1.391 . S
C233 C232 1.386 . S
C233 C237 1.393 . S
C234 H226 0.950 . S
C234 C232 1.391 . S
C234 C235 1.400 . S
C235 C234 1.400 . S
C235 C236 1.398 . S
C235 C241 1.491 . S
C236 H227 0.950 . S
C236 C235 1.398 . S
C236 C237 1.391 . S
C237 H225 0.950 . S
C237 C233 1.393 . S
C237 C236 1.391 . S
C238 H228 0.950 . S
C238 C239 1.386 . S
C238 C240 1.391 . S
C239 C238 1.386 . S
C239 C243 1.393 . S
C240 H229 0.950 . S
C240 C238 1.391 . S
C240 C241 1.400 . S
C241 C235 1.491 . S
C241 C240 1.400 . S
C241 C242 1.398 . S
C242 H230 0.950 . S
C242 C241 1.398 . S
C242 C243 1.391 . S
C243 H231 0.950 . S
C243 C239 1.393 . S
C243 C242 1.391 . S
H244 C252 0.950 . S
H245 C257 0.950 . S
H246 C254 0.950 . S
H247 C256 0.950 . S
H248 C258 0.950 . S
H249 C260 0.950 . S
H250 C262 0.950 . S
H251 C263 0.950 . S
C252 H244 0.950 . S
C252 C253 1.386 . S
C252 C254 1.391 . S
C253 C252 1.386 . S
C253 C257 1.393 . S
C254 H246 0.950 . S
C254 C252 1.391 . S
C254 C255 1.400 . S
C255 C254 1.400 . S
C255 C256 1.398 . S
C255 C261 1.491 . S
C256 H247 0.950 . S
C256 C255 1.398 . S
C256 C257 1.391 . S
C257 H245 0.950 . S
C257 C253 1.393 . S
C257 C256 1.391 . S
C258 H248 0.950 . S
C258 C259 1.386 . S
C258 C260 1.391 . S
C259 C258 1.386 . S
C259 C263 1.393 . S
C260 H249 0.950 . S
C260 C258 1.391 . S
C260 C261 1.400 . S
C261 C255 1.491 . S
C261 C260 1.400 . S
C261 C262 1.398 . S
C262 H250 0.950 . S
C262 C261 1.398 . S
C262 C263 1.391 . S
C263 H251 0.950 . S
C263 C259 1.393 . S
C263 C262 1.391 . S
H264 C272 0.950 . S
H265 C277 0.950 . S
H266 C274 0.950 . S
H267 C276 0.950 . S
H268 C278 0.950 . S
H269 C280 0.950 . S
H270 C282 0.951 1_556 S
H271 C283 0.950 1_556 S
C272 H264 0.950 . S
C272 C273 1.386 1_556 S
C272 C274 1.391 . S
C273 C272 1.386 1_554 S
C273 C277 1.393 . S
C274 H266 0.950 . S
C274 C272 1.391 . S
C274 C275 1.400 1_556 S
C275 C274 1.400 1_554 S
C275 C276 1.398 . S
C275 C281 1.491 1_655 S
C276 H267 0.950 . S
C276 C275 1.398 . S
C276 C277 1.391 . S
C277 H265 0.950 . S
C277 C273 1.393 . S
C277 C276 1.391 . S
C278 H268 0.950 . S
C278 C279 1.386 . S
C278 C280 1.391 . S
C279 C278 1.386 . S
C279 C283 1.392 . S
C280 H269 0.950 . S
C280 C278 1.391 . S
C280 C281 1.400 . S
C281 C275 1.491 1_455 S
C281 C280 1.400 . S
C281 C282 1.397 . S
C282 H270 0.951 1_554 S
C282 C281 1.397 . S
C282 C283 1.391 . S
C283 H271 0.950 1_554 S
C283 C279 1.392 . S
C283 C282 1.391 . S
H284 C292 0.950 . S
H285 C297 0.950 . S
H286 C294 0.950 . S
H287 C296 0.950 . S
H288 C298 0.950 . S
H289 C300 0.950 . S
H290 C302 0.950 . S
H291 C303 0.950 . S
C292 H284 0.950 . S
C292 C293 1.386 . S
C292 C294 1.391 . S
C293 C292 1.386 . S
C293 C297 1.393 . S
C294 H286 0.950 . S
C294 C292 1.391 . S
C294 C295 1.400 . S
C295 C294 1.400 . S
C295 C296 1.398 . S
C295 C301 1.491 1_565 S
C296 H287 0.950 . S
C296 C295 1.398 . S
C296 C297 1.391 . S
C297 H285 0.950 . S
C297 C293 1.393 . S
C297 C296 1.391 . S
C298 H288 0.950 . S
C298 C299 1.386 . S
C298 C300 1.391 . S
C299 C298 1.386 . S
C299 C303 1.393 . S
C300 H289 0.950 . S
C300 C298 1.391 . S
C300 C301 1.400 . S
C301 C295 1.491 1_545 S
C301 C300 1.400 . S
C301 C302 1.398 . S
C302 H290 0.950 . S
C302 C301 1.398 . S
C302 C303 1.391 . S
C303 H291 0.950 . S
C303 C299 1.393 . S
C303 C302 1.391 . S
H304 C312 0.950 . S
H305 C317 0.950 . S
H306 C314 0.950 . S
H307 C316 0.950 . S
H308 C318 0.950 . S
H309 C320 0.950 . S
H310 C322 0.950 . S
H311 C323 0.950 . S
C312 H304 0.950 . S
C312 C313 1.386 . S
C312 C314 1.391 . S
C313 C312 1.386 . S
C313 C317 1.393 . S
C314 H306 0.950 . S
C314 C312 1.391 . S
C314 C315 1.400 . S
C315 C314 1.400 . S
C315 C316 1.398 . S
C315 C321 1.491 1_455 S
C316 H307 0.950 . S
C316 C315 1.398 . S
C316 C317 1.391 . S
C317 H305 0.950 . S
C317 C313 1.393 . S
C317 C316 1.391 . S
C318 H308 0.950 . S
C318 C319 1.386 . S
C318 C320 1.391 . S
C319 C318 1.386 . S
C319 C323 1.393 . S
C320 H309 0.950 . S
C320 C318 1.391 . S
C320 C321 1.400 . S
C321 C315 1.491 1_655 S
C321 C320 1.400 . S
C321 C322 1.398 . S
C322 H310 0.950 . S
C322 C321 1.398 . S
C322 C323 1.391 . S
C323 H311 0.950 . S
C323 C319 1.393 . S
C323 C322 1.391 . S
H324 C332 0.950 . S
H325 C337 0.950 . S
H326 C334 0.950 . S
H327 C336 0.950 . S
H328 C338 0.950 . S
H329 C340 0.950 . S
H330 C342 0.950 . S
H331 C343 0.950 . S
C332 H324 0.950 . S
C332 C333 1.386 1_556 S
C332 C334 1.391 . S
C333 C332 1.386 1_554 S
C333 C337 1.393 . S
C334 H326 0.950 . S
C334 C332 1.391 . S
C334 C335 1.400 1_556 S
C335 C334 1.400 1_554 S
C335 C336 1.398 . S
C335 C341 1.491 1_565 S
C336 H327 0.950 . S
C336 C335 1.398 . S
C336 C337 1.391 . S
C337 H325 0.950 . S
C337 C333 1.393 . S
C337 C336 1.391 . S
C338 H328 0.950 . S
C338 C339 1.386 . S
C338 C340 1.391 . S
C339 C338 1.386 . S
C339 C343 1.393 1_554 S
C340 H329 0.950 . S
C340 C338 1.391 . S
C340 C341 1.400 . S
C341 C335 1.491 1_545 S
C341 C340 1.400 . S
C341 C342 1.398 1_554 S
C342 H330 0.950 . S
C342 C341 1.398 1_556 S
C342 C343 1.391 . S
C343 H331 0.950 . S
C343 C339 1.393 1_556 S
C343 C342 1.391 . S
H344 C352 0.950 . S
H345 C357 0.950 . S
H346 C354 0.950 . S
H347 C356 0.950 . S
H348 C358 0.950 . S
H349 C360 0.950 . S
H350 C362 0.950 . S
H351 C363 0.950 . S
C352 H344 0.950 . S
C352 C353 1.386 1_556 S
C352 C354 1.391 . S
C353 C352 1.386 1_554 S
C353 C357 1.393 . S
C354 H346 0.950 . S
C354 C352 1.391 . S
C354 C355 1.400 1_556 S
C355 C354 1.400 1_554 S
C355 C356 1.398 . S
C355 C361 1.491 . S
C356 H347 0.950 . S
C356 C355 1.398 . S
C356 C357 1.391 . S
C357 H345 0.950 . S
C357 C353 1.393 . S
C357 C356 1.391 . S
C358 H348 0.950 . S
C358 C359 1.386 . S
C358 C360 1.391 . S
C359 C358 1.386 . S
C359 C363 1.393 1_554 S
C360 H349 0.950 . S
C360 C358 1.391 . S
C360 C361 1.400 . S
C361 C355 1.491 . S
C361 C360 1.400 . S
C361 C362 1.398 1_554 S
C362 H350 0.950 . S
C362 C361 1.398 1_556 S
C362 C363 1.391 . S
C363 H351 0.950 . S
C363 C359 1.393 1_556 S
C363 C362 1.391 . S
H364 C372 0.950 . S
H365 C377 0.950 . S
H366 C374 0.950 . S
H367 C376 0.950 . S
H368 C378 0.950 . S
H369 C380 0.950 . S
H370 C382 0.950 . S
H371 C383 0.950 . S
C372 H364 0.950 . S
C372 C373 1.386 . S
C372 C374 1.391 . S
C373 C372 1.386 . S
C373 C377 1.393 . S
C374 H366 0.950 . S
C374 C372 1.391 . S
C374 C375 1.400 . S
C375 C374 1.400 . S
C375 C376 1.398 . S
C375 C381 1.491 . S
C376 H367 0.950 . S
C376 C375 1.398 . S
C376 C377 1.391 . S
C377 H365 0.950 . S
C377 C373 1.393 . S
C377 C376 1.391 . S
C378 H368 0.950 . S
C378 C379 1.386 . S
C378 C380 1.391 . S
C379 C378 1.386 . S
C379 C383 1.393 . S
C380 H369 0.950 . S
C380 C378 1.391 . S
C380 C381 1.400 . S
C381 C375 1.491 . S
C381 C380 1.400 . S
C381 C382 1.398 . S
C382 H370 0.950 . S
C382 C381 1.398 . S
C382 C383 1.391 . S
C383 H371 0.950 . S
C383 C379 1.393 . S
C383 C382 1.391 . S
H384 C392 0.950 . S
H385 C397 0.950 . S
H386 C394 0.950 . S
H387 C396 0.950 . S
H388 C398 0.950 . S
H389 C400 0.950 . S
H390 C402 0.950 . S
H391 C403 0.950 . S
C392 H384 0.950 . S
C392 C393 1.386 . S
C392 C394 1.391 . S
C393 C392 1.386 . S
C393 C397 1.393 1_554 S
C394 H386 0.950 . S
C394 C392 1.391 . S
C394 C395 1.400 . S
C395 C394 1.400 . S
C395 C396 1.398 1_554 S
C395 C401 1.491 . S
C396 H387 0.950 . S
C396 C395 1.398 1_556 S
C396 C397 1.391 . S
C397 H385 0.950 . S
C397 C393 1.393 1_556 S
C397 C396 1.391 . S
C398 H388 0.950 . S
C398 C399 1.386 1_556 S
C398 C400 1.391 . S
C399 C398 1.386 1_554 S
C399 C403 1.393 . S
C400 H389 0.950 . S
C400 C398 1.391 . S
C400 C401 1.400 1_556 S
C401 C395 1.491 . S
C401 C400 1.400 1_554 S
C401 C402 1.398 . S
C402 H390 0.950 . S
C402 C401 1.398 . S
C402 C403 1.391 . S
C403 H391 0.950 . S
C403 C399 1.393 . S
C403 C402 1.391 . S
H404 C412 0.950 . S
H405 C417 0.950 . S
H406 C414 0.950 . S
H407 C416 0.950 . S
H408 C418 0.950 . S
H409 C420 0.950 . S
H410 C422 0.950 . S
H411 C423 0.950 . S
C412 H404 0.950 . S
C412 C413 1.386 . S
C412 C414 1.391 . S
C413 C412 1.386 . S
C413 C417 1.393 . S
C414 H406 0.950 . S
C414 C412 1.391 . S
C414 C415 1.400 . S
C415 C414 1.400 . S
C415 C416 1.398 . S
C415 C421 1.491 . S
C416 H407 0.950 . S
C416 C415 1.398 . S
C416 C417 1.391 . S
C417 H405 0.950 . S
C417 C413 1.393 . S
C417 C416 1.391 . S
C418 H408 0.950 . S
C418 C419 1.386 . S
C418 C420 1.391 . S
C419 C418 1.386 . S
C419 C423 1.393 . S
C420 H409 0.950 . S
C420 C418 1.391 . S
C420 C421 1.400 . S
C421 C415 1.491 . S
C421 C420 1.400 . S
C421 C422 1.398 . S
C422 H410 0.950 . S
C422 C421 1.398 . S
C422 C423 1.391 . S
C423 H411 0.950 . S
C423 C419 1.393 . S
C423 C422 1.391 . S
C113 C5 1.524 . S
C119 C53 1.520 . S
C133 C16 1.488 . S
C139 C68 1.480 . S
C153 C83 1.514 . S
C159 C31 1.516 . S
C173 C94 1.484 . S
C179 C42 1.476 . S
C193 C88 1.637 . S
C199 C36 1.632 . S
C213 C92 1.597 . S
C219 C40 1.596 . S
C233 C10 1.622 . S
C239 C55 1.629 . S
C253 C14 1.611 . S
C259 C66 1.611 . S
C273 C27 1.938 . S
C279 C1 1.940 . S
C293 C49 2.050 . S
C299 C23 2.051 . S
C313 C62 1.940 . S
C319 C79 1.940 . S
C333 C101 2.049 . S
C339 C75 2.047 . S
C353 C3 1.868 . S
C359 C70 1.934 . S
C373 C81 1.858 . S
C379 C18 1.938 . S
C393 C29 1.855 . S
C399 C96 1.938 . S
C413 C44 1.934 . S
C419 C57 1.868 . S
