# Generated by pormake.
# Topology unl, (4)-cn, num edge types: 1
# Building blocks:
#     Node 0, Type 0, BuildingBlock: AZAVOO_clean_sbu_0, # of connection points: 4
#     Node 1, Type 0, BuildingBlock: AZAVOO_clean_sbu_0, # of connection points: 4
#     Node 2, Type 0, BuildingBlock: AZAVOO_clean_sbu_0, # of connection points: 4
#     Node 3, Type 0, BuildingBlock: AZAVOO_clean_sbu_0, # of connection points: 4
#     Node 4, Type 0, BuildingBlock: AZAVOO_clean_sbu_0, # of connection points: 4
#     Node 5, Type 0, BuildingBlock: AZAVOO_clean_sbu_0, # of connection points: 4
#     Node 6, Type 0, BuildingBlock: AZAVOO_clean_sbu_0, # of connection points: 4
#     Node 7, Type 0, BuildingBlock: AZAVOO_clean_sbu_0, # of connection points: 4
#     Node 8, Type 0, BuildingBlock: AZAVOO_clean_sbu_0, # of connection points: 4
#     Node 9, Type 0, BuildingBlock: AZAVOO_clean_sbu_0, # of connection points: 4
#     Node 10, Type 0, BuildingBlock: AZAVOO_clean_sbu_0, # of connection points: 4
#     Node 11, Type 0, BuildingBlock: AZAVOO_clean_sbu_0, # of connection points: 4
#     Node 12, Type 0, BuildingBlock: AZAVOO_clean_sbu_0, # of connection points: 4
#     Node 13, Type 0, BuildingBlock: AZAVOO_clean_sbu_0, # of connection points: 4
#     Node 14, Type 0, BuildingBlock: AZAVOO_clean_sbu_0, # of connection points: 4
#     Node 15, Type 0, BuildingBlock: AZAVOO_clean_sbu_0, # of connection points: 4
#     Node 16, Type 0, BuildingBlock: AZAVOO_clean_sbu_0, # of connection points: 4
#     Node 17, Type 0, BuildingBlock: AZAVOO_clean_sbu_0, # of connection points: 4
#     Node 18, Type 0, BuildingBlock: AZAVOO_clean_sbu_0, # of connection points: 4
#     Node 19, Type 0, BuildingBlock: AZAVOO_clean_sbu_0, # of connection points: 4
#     Node 20, Type 0, BuildingBlock: AZAVOO_clean_sbu_0, # of connection points: 4
#     Node 21, Type 0, BuildingBlock: AZAVOO_clean_sbu_0, # of connection points: 4
#     Node 22, Type 0, BuildingBlock: AZAVOO_clean_sbu_0, # of connection points: 4
#     Node 23, Type 0, BuildingBlock: AZAVOO_clean_sbu_0, # of connection points: 4
#     Node 24, Type 0, BuildingBlock: AZAVOO_clean_sbu_0, # of connection points: 4
#     Node 25, Type 0, BuildingBlock: AZAVOO_clean_sbu_0, # of connection points: 4
#     Node 26, Type 0, BuildingBlock: AZAVOO_clean_sbu_0, # of connection points: 4
#     Node 27, Type 0, BuildingBlock: AZAVOO_clean_sbu_0, # of connection points: 4
#     Node 28, Type 0, BuildingBlock: AZAVOO_clean_sbu_0, # of connection points: 4
#     Node 29, Type 0, BuildingBlock: AZAVOO_clean_sbu_0, # of connection points: 4
#     Node 30, Type 0, BuildingBlock: AZAVOO_clean_sbu_0, # of connection points: 4
#     Node 31, Type 0, BuildingBlock: AZAVOO_clean_sbu_0, # of connection points: 4
#     Node 32, Type 0, BuildingBlock: AZAVOO_clean_sbu_0, # of connection points: 4
#     Node 33, Type 0, BuildingBlock: AZAVOO_clean_sbu_0, # of connection points: 4
#     Node 34, Type 0, BuildingBlock: AZAVOO_clean_sbu_0, # of connection points: 4
#     Node 35, Type 0, BuildingBlock: AZAVOO_clean_sbu_0, # of connection points: 4
#     Edge 36, Type (0, 0), BuildingBlock: OJICUG_clean_linker_0, # of connection points: 2
#     Edge 37, Type (0, 0), BuildingBlock: OJICUG_clean_linker_0, # of connection points: 2
#     Edge 38, Type (0, 0), BuildingBlock: OJICUG_clean_linker_0, # of connection points: 2
#     Edge 39, Type (0, 0), BuildingBlock: OJICUG_clean_linker_0, # of connection points: 2
#     Edge 40, Type (0, 0), BuildingBlock: OJICUG_clean_linker_0, # of connection points: 2
#     Edge 41, Type (0, 0), BuildingBlock: OJICUG_clean_linker_0, # of connection points: 2
#     Edge 42, Type (0, 0), BuildingBlock: OJICUG_clean_linker_0, # of connection points: 2
#     Edge 43, Type (0, 0), BuildingBlock: OJICUG_clean_linker_0, # of connection points: 2
#     Edge 44, Type (0, 0), BuildingBlock: OJICUG_clean_linker_0, # of connection points: 2
#     Edge 45, Type (0, 0), BuildingBlock: OJICUG_clean_linker_0, # of connection points: 2
#     Edge 46, Type (0, 0), BuildingBlock: OJICUG_clean_linker_0, # of connection points: 2
#     Edge 47, Type (0, 0), BuildingBlock: OJICUG_clean_linker_0, # of connection points: 2
#     Edge 48, Type (0, 0), BuildingBlock: OJICUG_clean_linker_0, # of connection points: 2
#     Edge 49, Type (0, 0), BuildingBlock: OJICUG_clean_linker_0, # of connection points: 2
#     Edge 50, Type (0, 0), BuildingBlock: OJICUG_clean_linker_0, # of connection points: 2
#     Edge 51, Type (0, 0), BuildingBlock: OJICUG_clean_linker_0, # of connection points: 2
#     Edge 52, Type (0, 0), BuildingBlock: OJICUG_clean_linker_0, # of connection points: 2
#     Edge 53, Type (0, 0), BuildingBlock: OJICUG_clean_linker_0, # of connection points: 2
#     Edge 54, Type (0, 0), BuildingBlock: OJICUG_clean_linker_0, # of connection points: 2
#     Edge 55, Type (0, 0), BuildingBlock: OJICUG_clean_linker_0, # of connection points: 2
#     Edge 56, Type (0, 0), BuildingBlock: OJICUG_clean_linker_0, # of connection points: 2
#     Edge 57, Type (0, 0), BuildingBlock: OJICUG_clean_linker_0, # of connection points: 2
#     Edge 58, Type (0, 0), BuildingBlock: OJICUG_clean_linker_0, # of connection points: 2
#     Edge 59, Type (0, 0), BuildingBlock: OJICUG_clean_linker_0, # of connection points: 2
#     Edge 60, Type (0, 0), BuildingBlock: OJICUG_clean_linker_0, # of connection points: 2
#     Edge 61, Type (0, 0), BuildingBlock: OJICUG_clean_linker_0, # of connection points: 2
#     Edge 62, Type (0, 0), BuildingBlock: OJICUG_clean_linker_0, # of connection points: 2
#     Edge 63, Type (0, 0), BuildingBlock: OJICUG_clean_linker_0, # of connection points: 2
#     Edge 64, Type (0, 0), BuildingBlock: OJICUG_clean_linker_0, # of connection points: 2
#     Edge 65, Type (0, 0), BuildingBlock: OJICUG_clean_linker_0, # of connection points: 2
#     Edge 66, Type (0, 0), BuildingBlock: OJICUG_clean_linker_0, # of connection points: 2
#     Edge 67, Type (0, 0), BuildingBlock: OJICUG_clean_linker_0, # of connection points: 2
#     Edge 68, Type (0, 0), BuildingBlock: OJICUG_clean_linker_0, # of connection points: 2
#     Edge 69, Type (0, 0), BuildingBlock: OJICUG_clean_linker_0, # of connection points: 2
#     Edge 70, Type (0, 0), BuildingBlock: OJICUG_clean_linker_0, # of connection points: 2
#     Edge 71, Type (0, 0), BuildingBlock: OJICUG_clean_linker_0, # of connection points: 2
#     Edge 72, Type (0, 0), BuildingBlock: OJICUG_clean_linker_0, # of connection points: 2
#     Edge 73, Type (0, 0), BuildingBlock: OJICUG_clean_linker_0, # of connection points: 2
#     Edge 74, Type (0, 0), BuildingBlock: OJICUG_clean_linker_0, # of connection points: 2
#     Edge 75, Type (0, 0), BuildingBlock: OJICUG_clean_linker_0, # of connection points: 2
#     Edge 76, Type (0, 0), BuildingBlock: OJICUG_clean_linker_0, # of connection points: 2
#     Edge 77, Type (0, 0), BuildingBlock: OJICUG_clean_linker_0, # of connection points: 2
#     Edge 78, Type (0, 0), BuildingBlock: OJICUG_clean_linker_0, # of connection points: 2
#     Edge 79, Type (0, 0), BuildingBlock: OJICUG_clean_linker_0, # of connection points: 2
#     Edge 80, Type (0, 0), BuildingBlock: OJICUG_clean_linker_0, # of connection points: 2
#     Edge 81, Type (0, 0), BuildingBlock: OJICUG_clean_linker_0, # of connection points: 2
#     Edge 82, Type (0, 0), BuildingBlock: OJICUG_clean_linker_0, # of connection points: 2
#     Edge 83, Type (0, 0), BuildingBlock: OJICUG_clean_linker_0, # of connection points: 2
#     Edge 84, Type (0, 0), BuildingBlock: OJICUG_clean_linker_0, # of connection points: 2
#     Edge 85, Type (0, 0), BuildingBlock: OJICUG_clean_linker_0, # of connection points: 2
#     Edge 86, Type (0, 0), BuildingBlock: OJICUG_clean_linker_0, # of connection points: 2
#     Edge 87, Type (0, 0), BuildingBlock: OJICUG_clean_linker_0, # of connection points: 2
#     Edge 88, Type (0, 0), BuildingBlock: OJICUG_clean_linker_0, # of connection points: 2
#     Edge 89, Type (0, 0), BuildingBlock: OJICUG_clean_linker_0, # of connection points: 2
#     Edge 90, Type (0, 0), BuildingBlock: OJICUG_clean_linker_0, # of connection points: 2
#     Edge 91, Type (0, 0), BuildingBlock: OJICUG_clean_linker_0, # of connection points: 2
#     Edge 92, Type (0, 0), BuildingBlock: OJICUG_clean_linker_0, # of connection points: 2
#     Edge 93, Type (0, 0), BuildingBlock: OJICUG_clean_linker_0, # of connection points: 2
#     Edge 94, Type (0, 0), BuildingBlock: OJICUG_clean_linker_0, # of connection points: 2
#     Edge 95, Type (0, 0), BuildingBlock: OJICUG_clean_linker_0, # of connection points: 2
#     Edge 96, Type (0, 0), BuildingBlock: OJICUG_clean_linker_0, # of connection points: 2
#     Edge 97, Type (0, 0), BuildingBlock: OJICUG_clean_linker_0, # of connection points: 2
#     Edge 98, Type (0, 0), BuildingBlock: OJICUG_clean_linker_0, # of connection points: 2
#     Edge 99, Type (0, 0), BuildingBlock: OJICUG_clean_linker_0, # of connection points: 2
#     Edge 100, Type (0, 0), BuildingBlock: OJICUG_clean_linker_0, # of connection points: 2
#     Edge 101, Type (0, 0), BuildingBlock: OJICUG_clean_linker_0, # of connection points: 2
#     Edge 102, Type (0, 0), BuildingBlock: OJICUG_clean_linker_0, # of connection points: 2
#     Edge 103, Type (0, 0), BuildingBlock: OJICUG_clean_linker_0, # of connection points: 2
#     Edge 104, Type (0, 0), BuildingBlock: OJICUG_clean_linker_0, # of connection points: 2
#     Edge 105, Type (0, 0), BuildingBlock: OJICUG_clean_linker_0, # of connection points: 2
#     Edge 106, Type (0, 0), BuildingBlock: OJICUG_clean_linker_0, # of connection points: 2
#     Edge 107, Type (0, 0), BuildingBlock: OJICUG_clean_linker_0, # of connection points: 2
# Relax obj value: 0.204
# Max RMSD: 0.223
# Mean RMSD: 0.216
data_MOF--net-unl--node1-AZAVOO_clean_sbu_0--edge1-OJICUG_clean_linker_0
_symmetry_space_group_name_H-M    P1
_symmetry_Int_Tables_number       1
_symmetry_cell_setting            triclinic
loop_
_symmetry_equiv_pos_as_xyz
'x, y, z'
_cell_length_a     47.59783
_cell_length_b     46.961331
_cell_length_c     27.36993
_cell_angle_alpha  90.612699
_cell_angle_beta   89.953653
_cell_angle_gamma 120.46723
loop_
_atom_site_label
_atom_site_type_symbol
_atom_site_fract_x
_atom_site_fract_y
_atom_site_fract_z
_atom_type_partial_charge
Mg0 Mg 0.21634 0.10948 0.08017 0.0
O1 O 0.19208 0.11051 0.15145 0.0
O2 O 0.13826 0.07842 0.14296 0.0
Mg3 Mg 0.12769 0.05922 0.06423 0.0
C4 C 0.16331 0.09785 0.16846 0.0
C5 C 0.27762 0.15551 0.14755 0.0
O6 O 0.26367 0.17341 0.15183 0.0
O7 O 0.20529 0.05655 0.08918 0.0
O8 O 0.15231 0.02861 0.07022 0.0
O9 O 0.21371 0.15307 0.05334 0.0
O10 O 0.17532 0.10103 0.04133 0.0
C11 C 0.17907 0.02951 0.07913 0.0
C12 C 0.1853 0.13183 0.03572 0.0
O13 O 0.26438 0.12954 0.12092 0.0
Mg14 Mg 0.92223 0.08441 0.16832 0.0
O15 O 0.88292 0.04983 0.11487 0.0
O16 O 0.83955 0.01055 0.15382 0.0
Mg17 Mg 0.85092 0.02228 0.23547 0.0
C18 C 0.8545 0.02429 0.11446 0.0
C19 C 0.97564 0.12369 0.09051 0.0
O20 O 0.98996 0.11117 0.11637 0.0
O21 O 0.89229 0.10873 0.18333 0.0
O22 O 0.84908 0.06958 0.22327 0.0
O23 O 0.94037 0.04883 0.16965 0.0
O24 O 0.90377 0.0478 0.22082 0.0
C25 C 0.86485 0.09825 0.20442 0.0
C26 C 0.91956 0.03424 0.20432 0.0
O27 O 0.94778 0.11831 0.10369 0.0
Mg28 Mg 0.9112 0.83187 0.15535 0.0
O29 O 0.94423 0.83021 0.09533 0.0
O30 O 0.97382 0.81036 0.12787 0.0
Mg31 Mg 0.96056 0.80046 0.20896 0.0
C32 C 0.96571 0.82163 0.0916 0.0
C33 C 0.86438 0.85192 0.10219 0.0
O34 O 0.86939 0.87015 0.1416 0.0
O35 O 0.87921 0.77626 0.15321 0.0
O36 O 0.90883 0.75794 0.18996 0.0
O37 O 0.95003 0.88339 0.17681 0.0
O38 O 0.94519 0.83755 0.20686 0.0
C39 C 0.88243 0.75278 0.16974 0.0
C40 C 0.96143 0.86924 0.2043 0.0
O41 O 0.87878 0.83549 0.09769 0.0
Mg42 Mg 0.12594 0.20643 0.36477 0.0
O43 O 0.15243 0.2004 0.4307 0.0
O44 O 0.20353 0.21729 0.40757 0.0
Mg45 Mg 0.20922 0.23232 0.32712 0.0
C46 C 0.18106 0.20569 0.43973 0.0
C47 C 0.05528 0.1804 0.40141 0.0
O48 O 0.04973 0.16263 0.36134 0.0
O49 O 0.1541 0.26241 0.37373 0.0
O50 O 0.20354 0.27734 0.3448 0.0
O51 O 0.11004 0.1551 0.34011 0.0
O52 O 0.15613 0.19915 0.3178 0.0
C53 C 0.18292 0.28463 0.36179 0.0
C54 C 0.13737 0.16747 0.3168 0.0
O55 O 0.08459 0.20118 0.41345 0.0
Mg56 Mg 0.79917 0.86278 0.32367 0.0
O57 O 0.80704 0.90694 0.37043 0.0
O58 O 0.80447 0.9443 0.3239 0.0
Mg59 Mg 0.79146 0.92177 0.24671 0.0
C60 C 0.80879 0.93478 0.36529 0.0
C61 C 0.81563 0.82685 0.403 0.0
O62 O 0.83805 0.83296 0.37008 0.0
O63 O 0.74483 0.84387 0.32136 0.0
O64 O 0.74141 0.88063 0.27425 0.0
O65 O 0.85228 0.89048 0.30783 0.0
O66 O 0.815 0.89249 0.26199 0.0
C67 C 0.72813 0.85462 0.30028 0.0
C68 C 0.84529 0.90363 0.27199 0.0
O69 O 0.79454 0.83514 0.39424 0.0
Mg70 Mg 0.10115 0.89711 0.42234 0.0
O71 O 0.07349 0.90486 0.36096 0.0
O72 O 0.05269 0.93504 0.38873 0.0
Mg73 Mg 0.06539 0.94507 0.46995 0.0
C74 C 0.05723 0.91928 0.35436 0.0
C75 C 0.1094 0.85335 0.34154 0.0
O76 O 0.0777 0.83479 0.34682 0.0
O77 O 0.14351 0.95045 0.42067 0.0
O78 O 0.11997 0.97619 0.45606 0.0
O79 O 0.05532 0.85159 0.44692 0.0
O80 O 0.0723 0.90219 0.47397 0.0
C81 C 0.14502 0.97638 0.43888 0.0
C82 C 0.05096 0.87131 0.4752 0.0
O83 O 0.12497 0.8799 0.36659 0.0
Mg84 Mg 0.7672 0.89511 0.87112 0.0
O85 O 0.78256 0.87351 0.93305 0.0
O86 O 0.77019 0.82223 0.91353 0.0
Mg87 Mg 0.74662 0.81092 0.83743 0.0
C88 C 0.78241 0.84697 0.94286 0.0
C89 C 0.80174 0.96089 0.92876 0.0
O90 O 0.82281 0.96729 0.89352 0.0
O91 O 0.71317 0.86353 0.89019 0.0
O92 O 0.70314 0.81367 0.8659 0.0
O93 O 0.81629 0.91317 0.83695 0.0
O94 O 0.77269 0.86439 0.82143 0.0
C95 C 0.69366 0.83261 0.88361 0.0
C96 C 0.80352 0.8843 0.81644 0.0
O97 O 0.77427 0.9344 0.92652 0.0
Mg98 Mg 0.11063 0.88525 0.861 0.0
O99 O 0.1402 0.91876 0.92452 0.0
O100 O 0.19163 0.95285 0.90255 0.0
Mg101 Mg 0.19518 0.94068 0.82214 0.0
C102 C 0.16913 0.9417 0.93458 0.0
C103 C 0.04516 0.85812 0.91778 0.0
O104 O 0.04148 0.87603 0.88465 0.0
O105 O 0.13524 0.8545 0.87215 0.0
O106 O 0.18526 0.88994 0.8447 0.0
O107 O 0.10089 0.92479 0.83323 0.0
O108 O 0.14246 0.91945 0.81087 0.0
C109 C 0.16441 0.86186 0.86185 0.0
C110 C 0.12741 0.93559 0.80827 0.0
O111 O 0.07042 0.8554 0.91631 0.0
Mg112 Mg 0.09061 0.19424 0.82665 0.0
O113 O 0.05627 0.18223 0.89081 0.0
O114 O 0.01664 0.19281 0.87535 0.0
Mg115 Mg 0.02702 0.21306 0.79678 0.0
C116 C 0.03086 0.18269 0.90388 0.0
C117 C 0.11185 0.16242 0.90168 0.0
O118 O 0.08138 0.13999 0.8922 0.0
O119 O 0.1139 0.24894 0.84359 0.0
O120 O 0.07482 0.25928 0.82081 0.0
O121 O 0.05774 0.14366 0.79377 0.0
O122 O 0.05488 0.18834 0.77889 0.0
C123 C 0.10357 0.26894 0.83674 0.0
C124 C 0.0437 0.15737 0.77153 0.0
O125 O 0.12493 0.18918 0.87804 0.0
Mg126 Mg 0.8855 0.79024 0.67311 0.0
O127 O 0.85705 0.79167 0.60753 0.0
O128 O 0.8057 0.77535 0.62735 0.0
Mg129 Mg 0.80125 0.76145 0.70869 0.0
C130 C 0.82869 0.78593 0.59615 0.0
C131 C 0.9499 0.82732 0.62013 0.0
O132 O 0.95123 0.8489 0.65234 0.0
O133 O 0.86097 0.73433 0.66674 0.0
O134 O 0.81061 0.71895 0.69223 0.0
O135 O 0.89614 0.84112 0.69567 0.0
O136 O 0.85399 0.79432 0.72055 0.0
C137 C 0.832 0.71198 0.67781 0.0
C138 C 0.8696 0.82602 0.72076 0.0
O139 O 0.92549 0.79822 0.62028 0.0
Mg140 Mg 0.23465 0.11298 0.66537 0.0
O141 O 0.22607 0.08163 0.59673 0.0
O142 O 0.24005 0.04367 0.61057 0.0
Mg143 Mg 0.25616 0.04958 0.69089 0.0
C144 C 0.22971 0.05781 0.58213 0.0
C145 C 0.20252 0.1479 0.61054 0.0
O146 O 0.17713 0.12577 0.63491 0.0
O147 O 0.28965 0.13859 0.65236 0.0
O148 O 0.30062 0.09929 0.67308 0.0
O149 O 0.18387 0.07722 0.69212 0.0
O150 O 0.22715 0.0731 0.70782 0.0
C151 C 0.30979 0.12856 0.65922 0.0
C152 C 0.19611 0.06065 0.71072 0.0
O153 O 0.22998 0.15004 0.61729 0.0
Mg154 Mg 0.88575 0.08931 0.59115 0.0
O155 O 0.92747 0.12238 0.53855 0.0
O156 O 0.95909 0.17116 0.57538 0.0
Mg157 Mg 0.9391 0.16922 0.65188 0.0
C158 C 0.9524 0.15155 0.53897 0.0
C159 C 0.85089 0.02386 0.53225 0.0
O160 O 0.85666 0.01424 0.57406 0.0
O161 O 0.85919 0.11835 0.57948 0.0
O162 O 0.89325 0.16502 0.61981 0.0
O163 O 0.91791 0.07158 0.62274 0.0
O164 O 0.91595 0.11502 0.64998 0.0
C165 C 0.86718 0.14722 0.59535 0.0
C166 C 0.9294 0.09721 0.65131 0.0
O167 O 0.859 0.05397 0.5276 0.0
Mg168 Mg 0.84001 0.42174 0.39701 0.0
O169 O 0.81 0.41703 0.465 0.0
O170 O 0.7572 0.38771 0.44535 0.0
Mg171 Mg 0.75315 0.37566 0.36384 0.0
C172 C 0.77996 0.40353 0.47654 0.0
C173 C 0.90199 0.42575 0.44727 0.0
O174 O 0.89132 0.39726 0.42464 0.0
O175 O 0.82639 0.3677 0.4001 0.0
O176 O 0.77494 0.34253 0.37301 0.0
O177 O 0.84127 0.46802 0.37534 0.0
O178 O 0.80282 0.41791 0.35246 0.0
C179 C 0.80024 0.34174 0.38627 0.0
C180 C 0.81434 0.44932 0.35182 0.0
O181 O 0.88581 0.44039 0.44397 0.0
Mg182 Mg 0.59977 0.46986 0.53018 0.0
O183 O 0.5662 0.42687 0.47982 0.0
O184 O 0.5253 0.38675 0.52163 0.0
Mg185 Mg 0.53195 0.40626 0.60063 0.0
C186 C 0.54051 0.39844 0.48167 0.0
C187 C 0.64935 0.5026 0.44558 0.0
O188 O 0.66333 0.48939 0.47062 0.0
O189 O 0.56242 0.48605 0.53249 0.0
O190 O 0.52138 0.44687 0.57575 0.0
O191 O 0.62691 0.4439 0.54564 0.0
O192 O 0.58523 0.43817 0.58952 0.0
C193 C 0.53424 0.47376 0.55173 0.0
C194 C 0.60604 0.42902 0.58015 0.0
O195 O 0.62316 0.50014 0.46165 0.0
Mg196 Mg 0.55769 0.11752 0.51004 0.0
O197 O 0.59064 0.12156 0.4463 0.0
O198 O 0.62588 0.10656 0.47116 0.0
Mg199 Mg 0.6161 0.09407 0.55246 0.0
C200 C 0.6141 0.11642 0.4379 0.0
C201 C 0.51799 0.14549 0.4614 0.0
O202 O 0.52944 0.16458 0.50042 0.0
O203 O 0.53085 0.06169 0.5033 0.0
O204 O 0.56638 0.04842 0.53332 0.0
O205 O 0.59233 0.16925 0.53253 0.0
O206 O 0.59463 0.12612 0.55913 0.0
C207 C 0.53839 0.04024 0.5157 0.0
C208 C 0.6072 0.15773 0.55799 0.0
O209 O 0.52391 0.12212 0.45572 0.0
Mg210 Mg 0.73858 0.49772 0.68744 0.0
O211 O 0.76598 0.4922 0.75185 0.0
O212 O 0.81653 0.50747 0.72803 0.0
Mg213 Mg 0.82058 0.52036 0.64662 0.0
C214 C 0.79443 0.49707 0.76072 0.0
C215 C 0.6709 0.47661 0.73925 0.0
O216 O 0.65903 0.45277 0.70626 0.0
O217 O 0.7683 0.55341 0.69353 0.0
O218 O 0.81685 0.56649 0.66284 0.0
O219 O 0.72084 0.4455 0.66264 0.0
O220 O 0.76709 0.48907 0.63972 0.0
C221 C 0.79702 0.57476 0.68009 0.0
C222 C 0.74786 0.45759 0.6385 0.0
O223 O 0.70132 0.49728 0.74017 0.0
Mg224 Mg 0.52095 0.24919 0.69115 0.0
O225 O 0.50705 0.2817 0.73513 0.0
O226 O 0.49795 0.31376 0.68571 0.0
Mg227 Mg 0.50254 0.29841 0.6078 0.0
C228 C 0.49967 0.30397 0.72837 0.0
C229 C 0.54221 0.2201 0.77389 0.0
O230 O 0.56767 0.23312 0.74497 0.0
O231 O 0.46719 0.21572 0.67287 0.0
O232 O 0.45784 0.24784 0.6237 0.0
O233 O 0.57229 0.29116 0.69134 0.0
O234 O 0.53602 0.28233 0.63369 0.0
C235 C 0.44802 0.22093 0.64674 0.0
C236 C 0.56439 0.30113 0.65261 0.0
O237 O 0.51715 0.22134 0.76131 0.0
Mg238 Mg 0.78802 0.25249 0.72955 0.0
O239 O 0.74267 0.23748 0.68141 0.0
O240 O 0.71475 0.26122 0.70864 0.0
Mg241 Mg 0.7478 0.30011 0.7641 0.0
C242 C 0.71798 0.24146 0.67987 0.0
C243 C 0.78909 0.19893 0.65771 0.0
O244 O 0.75837 0.18044 0.67011 0.0
O245 O 0.81891 0.30195 0.69203 0.0
O246 O 0.7838 0.31721 0.70113 0.0
O247 O 0.75596 0.2142 0.78271 0.0
O248 O 0.76542 0.26543 0.78554 0.0
C249 C 0.8116 0.32174 0.71223 0.0
C250 C 0.75032 0.23593 0.80274 0.0
O251 O 0.80596 0.22784 0.676 0.0
Mg252 Mg 0.48252 0.25649 0.24174 0.0
O253 O 0.48154 0.21886 0.29601 0.0
O254 O 0.4703 0.17283 0.25517 0.0
Mg255 Mg 0.46565 0.18136 0.17426 0.0
C256 C 0.47673 0.1895 0.2949 0.0
C257 C 0.50374 0.31795 0.30575 0.0
O258 O 0.52218 0.32981 0.26689 0.0
O259 O 0.42659 0.2273 0.23466 0.0
O260 O 0.42007 0.18391 0.19074 0.0
O261 O 0.53586 0.27563 0.22843 0.0
O262 O 0.49564 0.23499 0.18633 0.0
C263 C 0.40844 0.20004 0.21185 0.0
C264 C 0.52632 0.25252 0.1956 0.0
O265 O 0.48235 0.2874 0.30638 0.0
Mg266 Mg 0.73917 0.18531 0.18387 0.0
O267 O 0.76535 0.22231 0.2459 0.0
O268 O 0.81526 0.26058 0.22257 0.0
Mg269 Mg 0.81966 0.25021 0.1417 0.0
C270 C 0.79305 0.24778 0.25493 0.0
C271 C 0.67833 0.15453 0.25075 0.0
O272 O 0.67229 0.17343 0.22291 0.0
O273 O 0.77257 0.16393 0.196 0.0
O274 O 0.81956 0.20409 0.16571 0.0
O275 O 0.71922 0.21685 0.15634 0.0
O276 O 0.76611 0.22218 0.13343 0.0
C277 C 0.80256 0.17574 0.18491 0.0
C278 C 0.74622 0.23311 0.13264 0.0
O279 O 0.70311 0.15188 0.24157 0.0
Mg280 Mg 0.73822 0.54104 0.15961 0.0
O281 O 0.71308 0.53946 0.23102 0.0
O282 O 0.68192 0.56203 0.22423 0.0
Mg283 Mg 0.68794 0.57888 0.14428 0.0
C284 C 0.69362 0.5477 0.24943 0.0
C285 C 0.75322 0.50028 0.22687 0.0
O286 O 0.72138 0.4836 0.22165 0.0
O287 O 0.77382 0.59585 0.17094 0.0
O288 O 0.74215 0.6173 0.15645 0.0
O289 O 0.69586 0.49276 0.1358 0.0
O290 O 0.70044 0.54119 0.1213 0.0
C291 C 0.76997 0.62065 0.16592 0.0
C292 C 0.6832 0.50939 0.11893 0.0
O293 O 0.76972 0.52696 0.20344 0.0
Mg294 Mg 0.60538 0.1638 0.03551 0.0
O295 O 0.57986 0.17418 0.97389 0.0
O296 O 0.5292 0.16047 0.99355 0.0
Mg297 Mg 0.52215 0.14002 0.07163 0.0
C298 C 0.55276 0.17191 0.96329 0.0
C299 C 0.65983 0.20234 0.96249 0.0
O300 O 0.65219 0.22413 0.97795 0.0
O301 O 0.57586 0.10821 0.01762 0.0
O302 O 0.52658 0.09634 0.04398 0.0
O303 O 0.62029 0.21343 0.07018 0.0
O304 O 0.575 0.16682 0.08657 0.0
C305 C 0.54577 0.08747 0.02588 0.0
C306 C 0.59303 0.19808 0.0936 0.0
O307 O 0.64522 0.17357 0.98069 0.0
Mg308 Mg 0.84526 0.41196 0.99951 0.0
O309 O 0.83893 0.38134 0.93189 0.0
O310 O 0.84995 0.3413 0.94495 0.0
Mg311 Mg 0.86275 0.34616 0.02715 0.0
C312 C 0.84162 0.35718 0.91656 0.0
C313 C 0.81531 0.44643 0.93978 0.0
O314 O 0.78961 0.42523 0.96455 0.0
O315 O 0.90074 0.43678 0.9915 0.0
O316 O 0.90884 0.39551 0.01263 0.0
O317 O 0.7934 0.37518 0.02214 0.0
O318 O 0.83705 0.37316 0.04363 0.0
C319 C 0.91965 0.4254 1.00002 0.0
C320 C 0.80603 0.36033 0.04503 0.0
O321 O 0.84256 0.44859 0.94842 0.0
Mg322 Mg 0.51947 0.43997 0.95035 0.0
O323 O 0.56107 0.45963 0.89557 0.0
O324 O 0.60062 0.51006 0.917 0.0
Mg325 Mg 0.58274 0.52385 0.98605 0.0
C326 C 0.58897 0.48496 0.88844 0.0
C327 C 0.49203 0.37264 0.89871 0.0
O328 O 0.50228 0.36721 0.94018 0.0
O329 O 0.50027 0.47215 0.92007 0.0
O330 O 0.5397 0.5219 0.94589 0.0
O331 O 0.54702 0.42268 0.99594 0.0
O332 O 0.55084 0.47131 0.0048 0.0
C333 C 0.51243 0.50338 0.9244 0.0
C334 C 0.56072 0.45148 0.01692 0.0
O335 O 0.49194 0.39945 0.89382 0.0
Mg336 Mg 0.50238 0.72152 0.77166 0.0
O337 O 0.47679 0.7416 0.82082 0.0
O338 O 0.42471 0.72105 0.79764 0.0
Mg339 Mg 0.41378 0.68033 0.74195 0.0
C340 C 0.44927 0.74012 0.82451 0.0
C341 C 0.55992 0.77442 0.8366 0.0
O342 O 0.54746 0.79253 0.82333 0.0
O343 O 0.48049 0.67298 0.81255 0.0
O344 O 0.43076 0.66024 0.80353 0.0
O345 O 0.51129 0.75985 0.71738 0.0
O346 O 0.46615 0.71085 0.71769 0.0
C347 C 0.45315 0.65437 0.79214 0.0
C348 C 0.48265 0.73994 0.69922 0.0
O349 O 0.54667 0.74463 0.82159 0.0
Mg350 Mg 0.25126 0.73924 0.81812 0.0
O351 O 0.20833 0.70822 0.76716 0.0
O352 O 0.164 0.67283 0.80859 0.0
Mg353 Mg 0.17893 0.6838 0.88946 0.0
C354 C 0.17851 0.68532 0.76844 0.0
C355 C 0.30392 0.77142 0.73893 0.0
O356 O 0.31494 0.75599 0.76549 0.0
O357 O 0.22828 0.76993 0.83721 0.0
O358 O 0.1844 0.73511 0.88057 0.0
O359 O 0.2637 0.69939 0.81739 0.0
O360 O 0.23068 0.70315 0.87093 0.0
C361 C 0.20272 0.76333 0.86138 0.0
C362 C 0.24374 0.68702 0.85359 0.0
O363 O 0.27817 0.771 0.75245 0.0
Mg364 Mg 0.21184 0.4848 0.83185 0.0
O365 O 0.24632 0.48777 0.77129 0.0
O366 O 0.28283 0.476 0.80111 0.0
Mg367 Mg 0.27217 0.46681 0.8832 0.0
C368 C 0.27068 0.48371 0.76559 0.0
C369 C 0.17165 0.50658 0.76713 0.0
O370 O 0.18364 0.53133 0.79863 0.0
O371 O 0.1869 0.42901 0.83113 0.0
O372 O 0.22356 0.41936 0.86647 0.0
O373 O 0.24505 0.53812 0.85083 0.0
O374 O 0.24829 0.4967 0.88273 0.0
C375 C 0.19544 0.40919 0.84766 0.0
C376 C 0.26021 0.52801 0.87857 0.0
O377 O 0.1778 0.48347 0.77266 0.0
Mg378 Mg 0.42931 0.87202 0.00232 0.0
O379 O 0.45215 0.86122 0.06793 0.0
O380 O 0.50197 0.87177 0.04802 0.0
Mg381 Mg 0.50986 0.88708 0.9674 0.0
C382 C 0.47893 0.86272 0.07891 0.0
C383 C 0.36106 0.84861 0.04546 0.0
O384 O 0.35363 0.82967 0.0063 0.0
O385 O 0.46307 0.92719 0.01332 0.0
O386 O 0.51113 0.93574 0.98657 0.0
O387 O 0.40765 0.82032 0.97633 0.0
O388 O 0.45648 0.86062 0.95462 0.0
C389 C 0.49307 0.94653 0.00306 0.0
C390 C 0.43448 0.82969 0.95277 0.0
O391 O 0.39071 0.87048 0.05325 0.0
Mg392 Mg 0.13295 0.52159 0.9986 0.0
O393 O 0.13802 0.56633 0.04017 0.0
O394 O 0.13042 0.59951 0.99117 0.0
Mg395 Mg 0.11735 0.57334 0.9163 0.0
C396 C 0.13671 0.59243 0.03313 0.0
C397 C 0.15919 0.49719 0.08115 0.0
O398 O 0.18043 0.50383 0.04608 0.0
O399 O 0.07789 0.49873 1.00018 0.0
O400 O 0.07028 0.5312 0.94912 0.0
O401 O 0.18512 0.55165 0.9768 0.0
O402 O 0.14397 0.54746 0.93341 0.0
C403 C 0.05924 0.5067 0.97807 0.0
C404 C 0.17494 0.56103 0.93992 0.0
O405 O 0.13451 0.50008 0.07256 0.0
Mg406 Mg 0.44135 0.61482 0.04417 0.0
O407 O 0.39604 0.60415 0.99893 0.0
O408 O 0.36707 0.62359 0.0364 0.0
Mg409 Mg 0.40106 0.65831 0.09549 0.0
C410 C 0.37088 0.6073 0.00189 0.0
C411 C 0.4406 0.56486 0.9657 0.0
O412 O 0.41012 0.54731 0.97975 0.0
O413 O 0.47252 0.66692 0.01451 0.0
O414 O 0.43566 0.67883 0.0312 0.0
O415 O 0.40942 0.57223 0.09089 0.0
O416 O 0.41927 0.62284 0.10657 0.0
C417 C 0.46442 0.68482 0.03858 0.0
C418 C 0.40414 0.59192 0.11767 0.0
O419 O 0.45859 0.59356 0.98405 0.0
Mg420 Mg 0.10503 0.56927 0.51675 0.0
O421 O 0.11577 0.54315 0.57716 0.0
O422 O 0.11527 0.49836 0.54845 0.0
Mg423 Mg 0.1049 0.49652 0.46633 0.0
C424 C 0.11866 0.51794 0.58359 0.0
C425 C 0.12162 0.62904 0.5813 0.0
O426 O 0.14042 0.64254 0.54322 0.0
O427 O 0.05098 0.52908 0.51671 0.0
O428 O 0.05375 0.48701 0.48284 0.0
O429 O 0.15844 0.598 0.50013 0.0
O430 O 0.12355 0.55022 0.46501 0.0
C431 C 0.03732 0.49932 0.50055 0.0
C432 C 0.15314 0.57375 0.47139 0.0
O433 O 0.09965 0.59874 0.57864 0.0
Mg434 Mg 0.39956 0.55032 0.51581 0.0
O435 O 0.42251 0.58652 0.5784 0.0
O436 O 0.47203 0.62833 0.56145 0.0
Mg437 Mg 0.48028 0.61852 0.48139 0.0
C438 C 0.4483 0.61302 0.59087 0.0
C439 C 0.33767 0.51971 0.58038 0.0
O440 O 0.33239 0.53892 0.55203 0.0
O441 O 0.43382 0.53014 0.53132 0.0
O442 O 0.48113 0.57281 0.50621 0.0
O443 O 0.38056 0.58209 0.48493 0.0
O444 O 0.42769 0.58666 0.46568 0.0
C445 C 0.46445 0.54367 0.52321 0.0
C446 C 0.40761 0.59706 0.46097 0.0
O447 O 0.36232 0.51666 0.57221 0.0
Mg448 Mg 0.41868 0.82457 0.47323 0.0
O449 O 0.3843 0.81577 0.53635 0.0
O450 O 0.35029 0.83403 0.52103 0.0
Mg451 Mg 0.36406 0.85593 0.44393 0.0
C452 C 0.36114 0.82028 0.54921 0.0
C453 C 0.4302 0.78136 0.54322 0.0
O454 O 0.39981 0.76203 0.52918 0.0
O455 O 0.44855 0.87951 0.49454 0.0
O456 O 0.41383 0.89601 0.4722 0.0
O457 O 0.38086 0.77709 0.43633 0.0
O458 O 0.38638 0.82612 0.42485 0.0
C459 C 0.4414 0.90216 0.48909 0.0
C460 C 0.37084 0.795 0.41557 0.0
O461 O 0.44653 0.81001 0.52493 0.0
Mg462 Mg 0.25882 0.50038 0.34788 0.0
O463 O 0.22364 0.49246 0.2859 0.0
O464 O 0.17285 0.47199 0.31279 0.0
Mg465 Mg 0.1755 0.46406 0.39522 0.0
C466 C 0.19362 0.48242 0.27822 0.0
C467 C 0.31899 0.54328 0.28513 0.0
O468 O 0.31918 0.56454 0.31686 0.0
O469 O 0.24048 0.44446 0.3477 0.0
O470 O 0.1908 0.42594 0.37903 0.0
O471 O 0.26297 0.5494 0.36486 0.0
O472 O 0.22734 0.50232 0.39895 0.0
C473 C 0.21309 0.42085 0.36288 0.0
C474 C 0.23866 0.53341 0.39398 0.0
O475 O 0.29773 0.5128 0.28946 0.0
Mg476 Mg 0.5159 0.77401 0.32745 0.0
O477 O 0.5045 0.74349 0.25802 0.0
O478 O 0.51222 0.70079 0.26618 0.0
Mg479 Mg 0.5268 0.70282 0.34702 0.0
C480 C 0.50449 0.71831 0.24041 0.0
C481 C 0.48915 0.80805 0.2616 0.0
O482 O 0.46219 0.78253 0.27756 0.0
O483 O 0.57064 0.79443 0.31532 0.0
O484 O 0.5749 0.75031 0.33247 0.0
O485 O 0.46382 0.74171 0.35268 0.0
O486 O 0.50374 0.73194 0.36762 0.0
C487 C 0.58772 0.78068 0.32112 0.0
C488 C 0.47325 0.72238 0.36992 0.0
O489 O 0.51631 0.8136 0.27884 0.0
Mg490 Mg 0.2059 0.74488 0.25714 0.0
O491 O 0.24517 0.7806 0.20375 0.0
O492 O 0.27939 0.82712 0.24415 0.0
Mg493 Mg 0.26258 0.82138 0.32338 0.0
C494 C 0.27033 0.80959 0.20509 0.0
C495 C 0.16858 0.68166 0.19822 0.0
O496 O 0.17371 0.67243 0.24084 0.0
O497 O 0.17998 0.77505 0.25545 0.0
O498 O 0.21612 0.81945 0.29839 0.0
O499 O 0.23824 0.72495 0.27819 0.0
O500 O 0.23875 0.76747 0.31459 0.0
C501 C 0.1892 0.8033 0.27515 0.0
C502 C 0.25145 0.74909 0.30945 0.0
O503 O 0.17717 0.71183 0.19263 0.0
C504 C 0.20886 0.00761 0.03245 0.0
C505 C 0.18138 0.00121 0.06013 0.0
H506 H 0.22646 0.99381 0.96988 0.0
C507 C 0.15264 0.97046 0.05436 0.0
H508 H 0.23149 0.03097 0.0362 0.0
C509 C 0.14967 0.94922 0.01606 0.0
C510 C 0.17544 0.95841 0.98298 0.0
H511 H 0.13118 0.96464 0.0756 0.0
H512 H 0.12616 0.92722 0.00978 0.0
C513 C 0.20583 0.98649 0.99381 0.0
C514 C 0.97387 0.15137 0.01316 0.0
C515 C 0.99056 0.14126 0.04445 0.0
H516 H 0.97341 0.17246 0.94418 0.0
C517 C 0.02117 0.14655 0.03016 0.0
H518 H 0.95022 0.14765 0.02309 0.0
C519 C 0.03438 0.16069 0.98515 0.0
C520 C 0.01736 0.16993 0.95305 0.0
H521 H 0.03478 0.13923 0.05337 0.0
H522 H 0.05784 0.16386 0.97529 0.0
C523 C 0.98715 0.16558 0.9679 0.0
C524 C 0.81126 0.87152 0.02259 0.0
C525 C 0.80041 0.84641 0.98666 0.0
H526 H 0.83986 0.89289 0.08756 0.0
C527 C 0.80956 0.82239 0.99058 0.0
H528 H 0.80466 0.89043 0.02064 0.0
C529 C 0.83009 0.82415 0.02834 0.0
C530 C 0.84164 0.8497 0.0635 0.0
H531 H 0.80183 0.80281 0.96349 0.0
H532 H 0.83717 0.80558 0.02966 0.0
C533 C 0.83148 0.873 0.06086 0.0
C534 C 0.00795 0.18984 0.50538 0.0
C535 C 0.977 0.16133 0.49961 0.0
H536 H 0.05689 0.21806 0.47928 0.0
C537 C 0.97138 0.14056 0.45889 0.0
H538 H 0.01328 0.20645 0.53627 0.0
C539 C -0.00348 0.14739 0.42601 0.0
C540 C 0.02789 0.17492 0.43341 0.0
H541 H 0.94787 0.11843 0.45325 0.0
H542 H 0.99163 0.1304 0.39578 0.0
C543 C 0.03312 0.19645 0.47284 0.0
C544 C 0.79329 0.80678 0.48708 0.0
C545 C 0.81695 0.81342 0.45116 0.0
H546 H 0.77817 0.79254 0.56107 0.0
C547 C 0.84311 0.80877 0.46252 0.0
H548 H 0.77277 0.81003 0.47944 0.0
C549 C 0.84629 0.79899 0.50916 0.0
C550 C 0.82326 0.79333 0.54564 0.0
H551 H 0.86172 0.81352 0.43575 0.0
H552 H 0.86721 0.7964 0.5168 0.0
C553 C 0.79633 0.79668 0.53382 0.0
C554 C 0.17939 0.03441 0.46707 0.0
C555 C 0.17671 0.00384 0.45605 0.0
H556 H 0.19866 0.07587 0.51592 0.0
C557 C 0.19877 0.99619 0.47786 0.0
H558 H 0.1629 0.04109 0.45042 0.0
C559 C 0.21877 0.01571 0.51641 0.0
C560 C 0.21736 0.04342 0.53288 0.0
H561 H 0.19743 0.97287 0.46998 0.0
H562 H 0.23291 0.0073 0.53607 0.0
C563 C 0.19961 0.05411 0.50518 0.0
C564 C 0.80791 0.98163 0.0636 0.0
C565 C 0.83913 0.0099 0.06657 0.0
H566 H 0.77121 0.94425 0.01743 0.0
C567 C 0.8562 0.02389 0.0231 0.0
H568 H 0.79399 0.97039 0.09629 0.0
C569 C 0.84314 0.00897 0.97795 0.0
C570 C 0.81267 0.97982 0.97517 0.0
H571 H 0.88017 0.04587 0.02389 0.0
H572 H 0.85749 0.01966 0.94539 0.0
C573 C 0.79476 0.96679 0.01831 0.0
C574 C 0.00923 0.8207 0.04063 0.0
C575 C 0.98357 0.82728 0.04482 0.0
H576 H 0.04863 0.82501 0.99724 0.0
C577 C 0.97666 0.84142 0.00493 0.0
H578 H 0.0152 0.80969 0.07047 0.0
C579 C -0.00414 0.85018 0.96288 0.0
C580 C 0.02244 0.84501 0.95966 0.0
H581 H 0.95701 0.84669 0.00666 0.0
H582 H 0.99043 0.86194 0.93351 0.0
C583 C 0.02843 0.82946 0.99856 0.0
C584 C 0.11538 0.12589 0.9632 0.0
C585 C 0.13025 0.15628 0.93922 0.0
H586 H 0.12086 0.09465 0.01283 0.0
C587 C 0.16263 0.18016 0.95113 0.0
H588 H 0.09035 0.10711 0.95539 0.0
C589 C 0.18021 0.17303 0.98492 0.0
C590 C 0.1657 0.14188 0.0069 0.0
H591 H 0.1746 0.204 0.93357 0.0
H592 H 0.20549 0.19131 0.99214 0.0
C593 C 0.13293 0.11875 0.99646 0.0
C594 C 0.97497 0.81528 0.5477 0.0
C595 C 0.97528 0.83778 0.5824 0.0
H596 H -0.00123 0.80824 0.4859 0.0
C597 C -0.00019 0.8711 0.58019 0.0
H598 H 0.95622 0.78942 0.54843 0.0
C599 C 0.02365 0.88179 0.54445 0.0
C600 C 0.02374 0.85943 0.51001 0.0
H601 H 0.00071 0.88912 0.60616 0.0
H602 H 0.04245 0.90763 0.54464 0.0
C603 C -0.00084 0.82603 0.51181 0.0
C604 C 0.16222 0.17701 0.52036 0.0
C605 C 0.18764 0.19505 0.48722 0.0
H606 H 0.14702 0.14817 0.58539 0.0
C607 C 0.21884 0.20028 0.49797 0.0
H608 H 0.13791 0.17257 0.51345 0.0
C609 C 0.22407 0.18631 0.53933 0.0
C610 C 0.19821 0.16668 0.5709 0.0
H611 H 0.23907 0.21424 0.47352 0.0
H612 H 0.24812 0.18985 0.54545 0.0
C613 C 0.16744 0.16295 0.56166 0.0
C614 C 0.83368 0.01109 0.44416 0.0
C615 C 0.83775 0.00056 0.49017 0.0
H616 H 0.82129 -0.00135 0.36865 0.0
C617 C 0.83065 0.96782 0.49514 0.0
H618 H 0.83892 0.03615 0.43909 0.0
C619 C 0.82062 0.94636 0.45483 0.0
C620 C 0.81736 0.95707 0.40849 0.0
H621 H 0.83343 0.95885 0.53005 0.0
H622 H 0.8159 0.92147 0.45998 0.0
C623 C 0.82357 0.98956 0.40376 0.0
C624 C 0.77047 0.25892 0.33043 0.0
C625 C 0.79764 0.26593 0.30155 0.0
H626 H 0.75028 0.27788 0.38236 0.0
C627 C 0.82798 0.29378 0.31333 0.0
H628 H 0.74685 0.23729 0.32313 0.0
C629 C 0.83004 0.31669 0.34826 0.0
C630 C 0.80166 0.31229 0.37105 0.0
H631 H 0.84956 0.29944 0.29258 0.0
H632 H 0.85299 0.33968 0.35254 0.0
C633 C 0.77245 0.28205 0.36478 0.0
C634 C 0.68922 0.51644 0.37775 0.0
C635 C 0.66221 0.51707 0.39707 0.0
H636 H 0.7203 0.52563 0.31646 0.0
C637 C 0.6467 0.52988 0.36845 0.0
H638 H 0.70183 0.50686 0.39876 0.0
C639 C 0.65741 0.54084 0.32093 0.0
C640 C 0.68371 0.53901 0.30104 0.0
H641 H 0.62583 0.53076 0.38233 0.0
H642 H 0.64452 0.54984 0.29937 0.0
C643 C 0.69979 0.52718 0.33036 0.0
C644 C 0.50097 0.18307 0.42443 0.0
C645 C 0.50269 0.15407 0.42147 0.0
H646 H 0.4912 0.21694 0.38702 0.0
C647 C 0.49226 0.13498 0.37829 0.0
H648 H 0.50863 0.19827 0.45726 0.0
C649 C 0.48213 0.14562 0.33803 0.0
C650 C 0.48233 0.17568 0.33992 0.0
H651 H 0.49305 0.11239 0.37489 0.0
H652 H 0.47548 0.1309 0.30474 0.0
C653 C 0.49096 0.19379 0.38409 0.0
C654 C 0.59671 0.45666 0.81562 0.0
C655 C 0.60921 0.48399 0.8479 0.0
H656 H 0.60632 0.43282 0.75622 0.0
C657 C 0.64181 0.50937 0.84279 0.0
H658 H 0.5717 0.43661 0.81845 0.0
C659 C 0.66165 0.50707 0.80718 0.0
C660 C 0.64935 0.47943 0.77564 0.0
H661 H 0.65228 0.53074 0.86698 0.0
H662 H 0.68677 0.52689 0.80474 0.0
C663 C 0.61655 0.45444 0.77986 0.0
C664 C 0.5722 0.20608 0.83496 0.0
C665 C 0.54381 0.20626 0.8216 0.0
H666 H 0.59727 0.19528 0.88958 0.0
C667 C 0.51782 0.19429 0.85489 0.0
H668 H 0.59271 0.21507 0.8103 0.0
C669 C 0.52042 0.18283 0.90082 0.0
C670 C 0.5491 0.18315 0.91438 0.0
H671 H 0.4956 0.19413 0.84572 0.0
H672 H 0.50011 0.17404 0.9258 0.0
C673 C 0.57483 0.19472 0.88067 0.0
C674 C 0.82118 0.36251 0.83528 0.0
C675 C 0.83515 0.34818 0.86401 0.0
H676 H 0.80343 0.36563 0.76513 0.0
C677 C 0.84327 0.32621 0.84164 0.0
H678 H 0.81481 0.37975 0.85101 0.0
C679 C 0.83701 0.31838 0.79173 0.0
C680 C 0.82183 0.33184 0.76369 0.0
H681 H 0.85443 0.31509 0.86261 0.0
H682 H 0.84306 0.30103 0.77561 0.0
C683 C 0.81469 0.35449 0.7859 0.0
C684 C 0.54443 0.39177 0.39148 0.0
C685 C 0.52895 0.37827 0.43612 0.0
H686 H 0.54837 0.38353 0.31554 0.0
C687 C 0.50337 0.34518 0.43678 0.0
H688 H 0.56407 0.41722 0.38941 0.0
C689 C 0.4943 0.32576 0.39408 0.0
C690 C 0.51062 0.33906 0.34989 0.0
H691 H 0.49085 0.33401 0.47047 0.0
H692 H 0.47512 0.30012 0.39603 0.0
C693 C 0.53537 0.37243 0.34895 0.0
C694 C 0.67018 0.12714 0.332 0.0
C695 C 0.65962 0.14101 0.29633 0.0
H696 H 0.66423 0.10856 0.40467 0.0
C697 C 0.63263 0.1446 0.30646 0.0
H698 H 0.69093 0.12406 0.32538 0.0
C699 C 0.61735 0.13578 0.3519 0.0
C700 C 0.62874 0.12322 0.38841 0.0
H701 H 0.62377 0.15509 0.27976 0.0
H702 H 0.59708 0.13963 0.35872 0.0
C703 C 0.65494 0.11838 0.37757 0.0
C704 C 0.76597 0.44297 0.30679 0.0
C705 C 0.79815 0.46335 0.32311 0.0
H706 H 0.72662 0.43872 0.26382 0.0
C707 C 0.81547 0.49651 0.30842 0.0
H708 H 0.75195 0.41738 0.31725 0.0
C709 C 0.80106 0.5087 0.27679 0.0
C710 C 0.76897 0.48804 0.26008 0.0
H711 H 0.84043 0.51274 0.32018 0.0
H712 H 0.81501 0.53421 0.26545 0.0
C713 C 0.75145 0.45523 0.27595 0.0
C714 C 0.68845 0.1866 0.90024 0.0
C715 C 0.68357 0.21085 0.92248 0.0
H716 H 0.71316 0.17544 0.84457 0.0
C717 C 0.70087 0.24336 0.90506 0.0
H718 H 0.67541 0.16132 0.91274 0.0
C719 C 0.72242 0.25143 0.86607 0.0
C720 C 0.72707 0.22715 0.84348 0.0
H721 H 0.69777 0.26267 0.9215 0.0
H722 H 0.73552 0.27677 0.85381 0.0
C723 C 0.70996 0.19467 0.86106 0.0
C724 C 0.83704 0.48024 0.86398 0.0
C725 C 0.81147 0.46354 0.89738 0.0
H726 H 0.85182 0.50399 0.79472 0.0
C727 C 0.7812 0.46074 0.88747 0.0
H728 H 0.86069 0.48288 0.87052 0.0
C729 C 0.77611 0.47289 0.84404 0.0
C730 C 0.80113 0.48801 0.80934 0.0
H731 H 0.76104 0.44819 0.91255 0.0
H732 H 0.75214 0.46935 0.83699 0.0
C733 C 0.83191 0.49228 0.82039 0.0
C734 C 0.49138 0.32394 0.86005 0.0
C735 C 0.48851 0.35209 0.85525 0.0
H736 H 0.49716 0.28672 0.82396 0.0
C737 C 0.48654 0.36268 0.80816 0.0
H738 H 0.49286 0.31506 0.89578 0.0
C739 C 0.48922 0.34652 0.76678 0.0
C740 C 0.49386 0.31941 0.77169 0.0
H741 H 0.4844 0.38436 0.80317 0.0
H742 H 0.48873 0.35597 0.73106 0.0
C743 C 0.49404 0.30779 0.81877 0.0
C744 C 0.48058 0.64585 0.66459 0.0
C745 C 0.45041 0.62506 0.64168 0.0
H746 H 0.50548 0.67085 0.73067 0.0
C747 C 0.42167 0.61386 0.66881 0.0
H748 H 0.50314 0.6545 0.6448 0.0
C749 C 0.42295 0.62328 0.71753 0.0
C750 C 0.45297 0.64413 0.74063 0.0
H751 H 0.39799 0.59768 0.65239 0.0
H752 H 0.40029 0.61419 0.73726 0.0
C753 C 0.48189 0.65497 0.71387 0.0
C754 C 0.31985 0.81128 0.61407 0.0
C755 C 0.34691 0.80919 0.59846 0.0
H756 H 0.28504 0.80115 0.67087 0.0
C757 C 0.36044 0.79601 0.63045 0.0
H758 H 0.30889 0.82138 0.59045 0.0
C759 C 0.34694 0.78464 0.6764 0.0
C760 C 0.31948 0.78603 0.69166 0.0
H761 H 0.3814 0.79415 0.61995 0.0
H762 H 0.3578 0.77424 0.69964 0.0
C763 C 0.30624 0.79978 0.66022 0.0
C764 C 0.13332 0.48611 0.64095 0.0
C765 C 0.12875 0.51295 0.63247 0.0
H766 H 0.15012 0.46286 0.69023 0.0
C767 C 0.13595 0.53623 0.67034 0.0
H768 H 0.12792 0.46766 0.61275 0.0
C769 C 0.14879 0.53354 0.71479 0.0
C770 C 0.15461 0.50745 0.72245 0.0
H771 H 0.13261 0.55718 0.66522 0.0
H772 H 0.15498 0.55243 0.7426 0.0
C773 C 0.14605 0.48336 0.68547 0.0
C774 C 0.30491 0.81311 0.07903 0.0
C775 C 0.33613 0.84133 0.0833 0.0
H776 H 0.25952 0.78096 0.11396 0.0
C777 C 0.34412 0.86084 0.12597 0.0
H778 H 0.29789 0.7976 0.04653 0.0
C779 C 0.32206 0.85139 0.16456 0.0
C780 C 0.29154 0.82208 0.16149 0.0
H781 H 0.36788 0.88285 0.13031 0.0
H782 H 0.32954 0.86641 0.19757 0.0
C783 C 0.28288 0.80353 0.11775 0.0
C784 C 0.14458 0.48447 0.16995 0.0
C785 C 0.16617 0.49036 0.13108 0.0
H786 H 0.13614 0.47713 0.24707 0.0
C787 C 0.19583 0.49178 0.14082 0.0
H788 H 0.12152 0.48324 0.16366 0.0
C789 C 0.20428 0.48859 0.18839 0.0
C790 C 0.18319 0.48361 0.22757 0.0
H791 H 0.21304 0.4962 0.11185 0.0
H792 H 0.22764 0.49044 0.19446 0.0
C793 C 0.15295 0.48098 0.21773 0.0
C794 C 0.50152 0.68747 0.16287 0.0
C795 C 0.49508 0.70965 0.18846 0.0
H796 H 0.49759 0.66255 0.09487 0.0
C797 C 0.47975 0.72423 0.16371 0.0
H798 H 0.51353 0.67604 0.18083 0.0
C799 C 0.4705 0.7164 0.11493 0.0
C800 C 0.47649 0.69397 0.08941 0.0
H801 H 0.47445 0.7415 0.18216 0.0
H802 H 0.45833 0.72773 0.09714 0.0
C803 C 0.49262 0.67995 0.11357 0.0
C804 C 0.15958 0.67748 0.63319 0.0
C805 C 0.13196 0.6457 0.62964 0.0
H806 H 0.1959 0.71479 0.67963 0.0
C807 C 0.11761 0.62842 0.67287 0.0
H808 H 0.17117 0.69158 0.60072 0.0
C809 C 0.13188 0.6418 0.7184 0.0
C810 C 0.16084 0.67261 0.72147 0.0
H811 H 0.09632 0.60384 0.67144 0.0
H812 H 0.12108 0.62733 0.75086 0.0
C813 C 0.17392 0.69071 0.67851 0.0
C814 C 0.27445 0.50055 0.67808 0.0
C815 C 0.28602 0.48961 0.71664 0.0
H816 H 0.28143 0.51822 0.60484 0.0
C817 C 0.31313 0.48581 0.70834 0.0
H818 H 0.25352 0.50358 0.6829 0.0
C819 C 0.32905 0.49405 0.6632 0.0
C820 C 0.3183 0.50641 0.6255 0.0
H821 H 0.3226 0.47727 0.73707 0.0
H822 H 0.3505 0.49189 0.65853 0.0
C823 C 0.29044 0.50891 0.63316 0.0
C824 C 0.48737 0.78259 0.64049 0.0
C825 C 0.46924 0.75053 0.65934 0.0
H826 H 0.48941 0.81746 0.58877 0.0
C827 C 0.43856 0.7285 0.63893 0.0
H828 H 0.51118 0.8001 0.65529 0.0
C829 C 0.42612 0.73845 0.6008 0.0
C830 C 0.44414 0.77058 0.58214 0.0
H831 H 0.42414 0.70352 0.65226 0.0
H832 H 0.40229 0.72092 0.58608 0.0
C833 C 0.47497 0.79251 0.60223 0.0
C834 C 0.36115 0.58957 0.23517 0.0
C835 C 0.34125 0.55539 0.24273 0.0
H836 H 0.39623 0.62786 0.18952 0.0
C837 C 0.34193 0.5333 0.2084 0.0
H838 H 0.36117 0.60732 0.26079 0.0
C839 C 0.36216 0.54516 0.1675 0.0
C840 C 0.38186 0.57934 0.15988 0.0
H841 H 0.32682 0.50686 0.21306 0.0
H842 H 0.3623 0.52753 0.1418 0.0
C843 C 0.38111 0.6014 0.19411 0.0
C844 C 0.45801 0.82255 0.20339 0.0
C845 C 0.48785 0.82609 0.21839 0.0
H846 H 0.43183 0.83153 0.14811 0.0
C847 C 0.51542 0.84402 0.18886 0.0
H848 H 0.43632 0.80894 0.22536 0.0
C849 C 0.51279 0.85668 0.14409 0.0
C850 C 0.48261 0.85201 0.12818 0.0
H851 H 0.53875 0.84706 0.19927 0.0
H852 H 0.53427 0.86948 0.12148 0.0
C853 C 0.45545 0.83551 0.15899 0.0
C854 C 0.15132 0.62598 0.16274 0.0
C855 C 0.15739 0.65825 0.15623 0.0
H856 H 0.14021 0.58015 0.12933 0.0
C857 C 0.15504 0.66834 0.10894 0.0
H858 H 0.15284 0.61733 0.19862 0.0
C859 C 0.14769 0.64683 0.06886 0.0
C860 C 0.14276 0.61493 0.07532 0.0
H861 H 0.15962 0.69307 0.10271 0.0
H862 H 0.14665 0.65549 0.03276 0.0
C863 C 0.14421 0.60465 0.12284 0.0
C864 C 0.17741 0.15864 0.26964 0.0
C865 C 0.14562 0.14628 0.28716 0.0
H866 H 0.20827 0.15239 0.21948 0.0
C867 C 0.12096 0.11476 0.27165 0.0
H868 H 0.19705 0.18256 0.28144 0.0
C869 C 0.12728 0.09744 0.23563 0.0
C870 C 0.1585 0.11117 0.21497 0.0
H871 H 0.09625 0.10444 0.28482 0.0
H872 H 0.10726 0.07426 0.22193 0.0
C873 C 0.18386 0.14114 0.23425 0.0
C874 C 0.86694 0.94246 0.20233 0.0
C875 C 0.87023 0.935 0.25076 0.0
H876 H 0.88172 0.98036 0.14876 0.0
C877 C 0.89429 0.95968 0.28095 0.0
H878 H 0.8484 0.92381 0.17855 0.0
C879 C 0.91269 0.99209 0.26431 0.0
C880 C 0.90804 -0.00015 0.21681 0.0
H881 H 0.89693 0.95458 0.31866 0.0
H882 H 0.92908 0.01142 0.28941 0.0
C883 C 0.88604 0.97465 0.18526 0.0
C884 C -0.00416 0.91496 0.26252 0.0
C885 C 0.99133 0.88819 0.23344 0.0
H886 H 0.02066 0.94617 0.32418 0.0
C887 C 0.01275 0.87616 0.23855 0.0
H888 H 0.97954 0.92461 0.25907 0.0
C889 C 0.03643 0.88857 0.27526 0.0
C890 C 0.0387 0.91289 0.30813 0.0
H891 H 0.01016 0.85599 0.21572 0.0
H892 H 0.05127 0.87734 0.27997 0.0
C893 C 0.01927 0.92713 0.29989 0.0
C894 C 0.86348 0.87572 0.73549 0.0
C895 C 0.85609 0.84361 0.74757 0.0
H896 H 0.85218 0.91419 0.74836 0.0
C897 C 0.83408 0.82699 0.78532 0.0
H898 H 0.88064 0.88913 0.7067 0.0
C899 C 0.81837 0.84121 0.80885 0.0
C900 C 0.82388 0.8722 0.795 0.0
H901 H 0.8286 0.80262 0.79645 0.0
H902 H 0.80177 0.82764 0.83781 0.0
C903 C 0.84735 0.89 0.75923 0.0
C904 C 0.14938 0.02079 0.76298 0.0
C905 C 0.17541 0.02757 0.73161 0.0
H906 H 0.11355 0.9861 0.81266 0.0
C907 C 0.18314 0.00293 0.72259 0.0
H908 H 0.14284 0.03941 0.77025 0.0
C909 C 0.16673 0.97289 0.74659 0.0
C910 C 0.14198 0.96658 0.78021 0.0
H911 H 0.202 0.00679 0.69699 0.0
H912 H 0.17383 0.95471 0.73916 0.0
C913 C 0.13275 0.99043 0.78727 0.0
C914 C 0.96485 0.09069 0.71304 0.0
C915 C 0.96031 0.1096 0.67786 0.0
H916 H -0.00449 0.09117 0.77145 0.0
C917 C 0.98475 0.14242 0.67088 0.0
H918 H 0.94623 0.06518 0.71884 0.0
C919 C 0.01212 0.15712 0.70058 0.0
C920 C 0.01601 0.13923 0.73788 0.0
H921 H 0.98256 0.15717 0.64304 0.0
H922 H 0.03005 0.18291 0.69484 0.0
C923 C 0.99281 0.1055 0.74304 0.0
C924 C 0.73061 0.41133 0.57856 0.0
C925 C 0.75541 0.43702 0.6064 0.0
H926 H 0.71894 0.38023 0.51516 0.0
C927 C 0.78801 0.44676 0.59682 0.0
H928 H 0.70525 0.40333 0.58536 0.0
C929 C 0.79594 0.43358 0.55686 0.0
C930 C 0.77135 0.41062 0.52541 0.0
H931 H 0.80754 0.4659 0.61858 0.0
H932 H 0.82145 0.44319 0.54876 0.0
C933 C 0.73853 0.39829 0.53818 0.0
C934 C 0.58174 0.3596 0.66843 0.0
C935 C 0.58265 0.33579 0.63823 0.0
H936 H 0.58793 0.40805 0.67284 0.0
C937 C 0.59499 0.34413 0.59074 0.0
H938 H 0.57167 0.35333 0.70488 0.0
C939 C 0.60527 0.37571 0.57297 0.0
C940 C 0.602 0.39872 0.60193 0.0
H941 H 0.59522 0.32577 0.56669 0.0
H942 H 0.61344 0.38124 0.53549 0.0
C943 C 0.59086 0.39072 0.6501 0.0
C944 C 0.65893 0.16991 0.59982 0.0
C945 C 0.63715 0.18016 0.58554 0.0
H946 H 0.70201 0.18159 0.64019 0.0
C947 C 0.64328 0.21159 0.60001 0.0
H948 H 0.65505 0.146 0.58895 0.0
C949 C 0.66993 0.23182 0.63 0.0
C950 C 0.69132 0.22125 0.64519 0.0
H951 H 0.62685 0.22012 0.58959 0.0
H952 H 0.67359 0.25558 0.64171 0.0
C953 C 0.68597 0.19041 0.62897 0.0
C954 C 0.55747 0.19663 0.16023 0.0
C955 C 0.58081 0.21513 0.1248 0.0
H956 H 0.52288 0.19469 0.21129 0.0
C957 C 0.58959 0.24823 0.11753 0.0
H958 H 0.55068 0.17127 0.16732 0.0
C959 C 0.57327 0.26165 0.14302 0.0
C960 C 0.54834 0.24204 0.17589 0.0
H961 H 0.6076 0.26299 0.09043 0.0
H962 H 0.57879 0.28652 0.13512 0.0
C963 C 0.54147 0.20997 0.18545 0.0
C964 C 0.80111 0.32339 0.11153 0.0
C965 C 0.78664 0.32905 0.07109 0.0
H966 H 0.79886 0.28894 0.16322 0.0
C967 C 0.75605 0.30371 0.05429 0.0
H968 H 0.8244 0.34265 0.12579 0.0
C969 C 0.74143 0.27235 0.07592 0.0
C970 C 0.75738 0.26647 0.11434 0.0
H971 H 0.74447 0.30755 0.02303 0.0
H972 H 0.71874 0.25243 0.06111 0.0
C973 C 0.7866 0.29255 0.1329 0.0
C974 C 0.6022 0.49416 0.07257 0.0
C975 C 0.58992 0.46367 0.04812 0.0
H976 H 0.64101 0.53232 0.11412 0.0
C977 C 0.60707 0.44668 0.0512 0.0
H978 H 0.58914 0.50748 0.07207 0.0
C979 C 0.63694 0.46096 0.07612 0.0
C980 C 0.65012 0.4925 0.09776 0.0
H981 H 0.59808 0.42302 0.03294 0.0
H982 H 0.65036 0.44799 0.07662 0.0
C983 C 0.63206 0.50851 0.09675 0.0
C984 C 0.46986 0.81378 0.90606 0.0
C985 C 0.43895 0.80579 0.92331 0.0
H986 H 0.49743 0.79898 0.86178 0.0
C987 C 0.41171 0.77531 0.90976 0.0
H988 H 0.49129 0.83703 0.91584 0.0
C989 C 0.41514 0.75378 0.87812 0.0
C990 C 0.44597 0.76202 0.86015 0.0
H991 H 0.38754 0.76849 0.92235 0.0
H992 H 0.3936 0.73078 0.86746 0.0
C993 C 0.47338 0.79193 0.87516 0.0
C994 C 0.2042 0.62743 0.84552 0.0
C995 C 0.2315 0.65312 0.86918 0.0
H996 H 0.1649 0.57745 0.84952 0.0
C997 C 0.24299 0.64703 0.91264 0.0
H998 H 0.19491 0.63192 0.81213 0.0
C999 C 0.2261 0.61583 0.93387 0.0
C1000 C 0.19713 0.59079 0.91231 0.0
H1001 H 0.26386 0.66685 0.93154 0.0
H1002 H 0.23431 0.61213 0.96887 0.0
C1003 C 0.18706 0.59644 0.86701 0.0
C1004 C 0.31928 0.59714 0.96129 0.0
C1005 C 0.34434 0.58972 0.96574 0.0
H1006 H 0.27301 0.58356 0.92884 0.0
C1007 C 0.34291 0.56401 0.93708 0.0
H1008 H 0.31987 0.61705 0.98248 0.0
C1009 C 0.31605 0.54481 0.90702 0.0
C1010 C 0.2904 0.55127 0.9044 0.0
H1011 H 0.36191 0.55782 0.93921 0.0
H1012 H 0.31517 0.52461 0.88637 0.0
C1013 C 0.29262 0.57821 0.93043 0.0
C1014 C 0.19708 0.58312 0.41265 0.0
C1015 C 0.17984 0.56893 0.45572 0.0
H1016 H 0.23024 0.58321 0.35911 0.0
C1017 C 0.18512 0.54628 0.48085 0.0
H1018 H 0.19305 0.60054 0.39268 0.0
C1019 C 0.20562 0.53604 0.46157 0.0
C1020 C 0.2216 0.54869 0.41713 0.0
H1021 H 0.17243 0.53551 0.51448 0.0
H1022 H 0.20817 0.51737 0.48068 0.0
C1023 C 0.21821 0.57323 0.39357 0.0
C1024 C 0.43688 0.63189 0.3907 0.0
C1025 C 0.41756 0.62691 0.43204 0.0
H1026 H 0.46838 0.66581 0.33734 0.0
C1027 C 0.41224 0.65231 0.44813 0.0
H1028 H 0.44094 0.6125 0.37713 0.0
C1029 C 0.42856 0.68331 0.42551 0.0
C1030 C 0.45006 0.68883 0.38672 0.0
H1031 H 0.3975 0.649 0.4801 0.0
H1032 H 0.42615 0.70344 0.44038 0.0
C1033 C 0.4528 0.66245 0.36815 0.0
C1034 C 0.33672 0.80279 0.35566 0.0
C1035 C 0.34133 0.78108 0.38479 0.0
H1036 H 0.30517 0.80931 0.30846 0.0
C1037 C 0.31713 0.74744 0.38537 0.0
H1038 H 0.35526 0.82867 0.35324 0.0
C1039 C 0.28794 0.73629 0.35915 0.0
C1040 C 0.28288 0.75879 0.33265 0.0
H1041 H 0.32024 0.73015 0.40727 0.0
H1042 H 0.26893 0.71058 0.36118 0.0
C1043 C 0.30786 0.79178 0.33007 0.0
C1044 C 0.32883 0.19816 0.19056 0.0
C1045 C 0.30943 0.16606 0.17112 0.0
H1046 H 0.37571 0.23429 0.21941 0.0
C1047 C 0.32144 0.14426 0.17185 0.0
H1048 H 0.32009 0.21543 0.19087 0.0
C1049 C 0.35289 0.15489 0.18845 0.0
C1050 C 0.37328 0.18765 0.2046 0.0
H1051 H 0.30691 0.11916 0.15806 0.0
H1052 H 0.36172 0.13769 0.18665 0.0
C1053 C 0.36059 0.20891 0.20718 0.0
C1054 C 0.80164 0.12448 0.21311 0.0
C1055 C 0.81869 0.15634 0.19347 0.0
H1056 H 0.80295 0.08116 0.23246 0.0
C1057 C 0.85163 0.16962 0.18063 0.0
H1058 H 0.77634 0.11361 0.22362 0.0
C1059 C 0.86685 0.15114 0.18563 0.0
C1060 C 0.84959 0.11891 0.20378 0.0
H1061 H 0.86569 0.19421 0.16574 0.0
H1062 H 0.89201 0.16196 0.17435 0.0
C1063 C 0.81697 0.10596 0.2183 0.0
C1064 C 0.82956 0.65977 0.18203 0.0
C1065 C 0.7988 0.65441 0.1681 0.0
H1066 H 0.88017 0.695 0.19333 0.0
C1067 C 0.79598 0.68158 0.15415 0.0
H1068 H 0.8326 0.63938 0.19286 0.0
C1069 C 0.82323 0.71332 0.1539 0.0
C1070 C 0.85398 0.71878 0.16797 0.0
H1071 H 0.77273 0.67839 0.14289 0.0
H1072 H 0.82003 0.73362 0.14305 0.0
C1073 C 0.85685 0.69165 0.18215 0.0
C1074 C 0.22921 0.37802 0.34606 0.0
C1075 C 0.20641 0.38631 0.36329 0.0
H1076 H 0.23989 0.33947 0.33239 0.0
C1077 C 0.17658 0.36105 0.38185 0.0
H1078 H 0.25245 0.39684 0.33177 0.0
C1079 C 0.16946 0.32837 0.38246 0.0
C1080 C 0.1919 0.31987 0.36449 0.0
H1081 H 0.15841 0.36636 0.3958 0.0
H1082 H 0.14605 0.30971 0.3965 0.0
C1083 C 0.22202 0.34513 0.34665 0.0
C1084 C 0.64271 0.78688 0.33145 0.0
C1085 C 0.62363 0.80015 0.31565 0.0
H1086 H 0.69031 0.79355 0.33932 0.0
C1087 C 0.63926 0.83176 0.295 0.0
H1088 H 0.63158 0.76267 0.34781 0.0
C1089 C 0.67321 0.84952 0.28986 0.0
C1090 C 0.69221 0.83614 0.30574 0.0
H1091 H 0.62528 0.84268 0.28245 0.0
H1092 H 0.68455 0.87377 0.27362 0.0
C1093 C 0.67652 0.80467 0.32676 0.0
C1094 C 0.18034 0.85068 0.28603 0.0
C1095 C 0.16701 0.81662 0.27782 0.0
H1096 H 0.17243 0.88903 0.31217 0.0
C1097 C 0.13318 0.79548 0.28215 0.0
H1098 H 0.20629 0.86765 0.28231 0.0
C1099 C 0.11364 0.80782 0.29953 0.0
C1100 C 0.12777 0.84139 0.31277 0.0
H1101 H 0.12227 0.76912 0.27613 0.0
H1102 H 0.08803 0.79067 0.30593 0.0
C1103 C 0.16095 0.86293 0.30336 0.0
C1104 C 0.64453 0.83871 0.87856 0.0
C1105 C 0.65813 0.81875 0.88728 0.0
H1106 H 0.60229 0.84016 0.85549 0.0
C1107 C 0.63746 0.78429 0.88881 0.0
H1108 H 0.65984 0.86534 0.87725 0.0
C1109 C 0.60467 0.7699 0.87604 0.0
C1110 C 0.5919 0.78969 0.86156 0.0
H1111 H 0.64716 0.76829 0.89617 0.0
H1112 H 0.58992 0.7432 0.87436 0.0
C1113 C 0.61159 0.82425 0.86572 0.0
C1114 C 0.16193 0.78068 0.88102 0.0
C1115 C 0.1934 0.78885 0.86578 0.0
H1116 H 0.12788 0.79732 0.89178 0.0
C1117 C 0.21563 0.82154 0.85281 0.0
H1118 H 0.14423 0.75567 0.89136 0.0
C1119 C 0.20638 0.84529 0.85342 0.0
C1120 C 0.17453 0.83696 0.86662 0.0
H1121 H 0.24014 0.82877 0.84144 0.0
H1122 H 0.22415 0.87009 0.84226 0.0
C1123 C 0.15254 0.80452 0.88128 0.0
C1124 C 0.13946 0.36143 0.83086 0.0
C1125 C 0.17172 0.37331 0.84625 0.0
H1126 H 0.09256 0.31933 0.81659 0.0
C1127 C 0.18092 0.35058 0.861 0.0
H1128 H 0.13145 0.37825 0.81965 0.0
C1129 C 0.15854 0.31669 0.85936 0.0
C1130 C 0.12645 0.3048 0.84307 0.0
H1131 H 0.20554 0.35889 0.87333 0.0
H1132 H 0.1666 0.29983 0.87011 0.0
C1133 C 0.11707 0.32759 0.82941 0.0
C1134 C 0.79226 0.65241 0.69338 0.0
C1135 C 0.82321 0.6769 0.67733 0.0
H1136 H 0.75996 0.60132 0.70758 0.0
C1137 C 0.84589 0.66762 0.66326 0.0
H1138 H 0.7742 0.65862 0.7048 0.0
C1139 C 0.83768 0.63453 0.66503 0.0
C1140 C 0.80667 0.61008 0.68102 0.0
H1141 H 0.87 0.68587 0.65098 0.0
H1142 H 0.8556 0.62814 0.65355 0.0
C1143 C 0.78413 0.61946 0.6953 0.0
C1144 C 0.35675 0.18268 0.63186 0.0
C1145 C 0.34512 0.15155 0.65278 0.0
H1146 H 0.39838 0.22885 0.61288 0.0
C1147 C 0.36769 0.14269 0.66902 0.0
H1148 H 0.34003 0.19018 0.61875 0.0
C1149 C 0.40112 0.16486 0.66591 0.0
C1150 C 0.41277 0.19629 0.64608 0.0
H1151 H 0.3596 0.11885 0.68528 0.0
H1152 H 0.41779 0.15752 0.67978 0.0
C1153 C 0.39023 0.20477 0.62831 0.0
C1154 C 0.81095 0.13779 0.60544 0.0
C1155 C 0.84388 0.15913 0.5939 0.0
H1156 H 0.76738 0.1338 0.63514 0.0
C1157 C 0.8562 0.19336 0.59408 0.0
H1158 H 0.80093 0.1113 0.60591 0.0
C1159 C 0.83727 0.20621 0.6112 0.0
C1160 C 0.80561 0.18507 0.62847 0.0
H1161 H 0.88146 0.21034 0.58501 0.0
H1162 H 0.84829 0.23279 0.61408 0.0
C1163 C 0.79188 0.15071 0.62267 0.0
C1164 C 0.98201 0.49385 0.49971 0.0
C1165 C 0.00135 0.47915 0.49672 0.0
H1166 H 0.93517 0.48839 0.48659 0.0
C1167 C 0.98643 0.44545 0.4839 0.0
H1168 H 0.9927 0.5197 0.50965 0.0
C1169 C 0.95359 0.42757 0.47059 0.0
C1170 C 0.93487 0.44295 0.46979 0.0
H1171 H 0.00049 0.43317 0.48191 0.0
H1172 H 0.94333 0.40211 0.45875 0.0
C1173 C 0.94905 0.4759 0.48633 0.0
C1174 C 0.51471 0.53972 0.51856 0.0
C1175 C 0.48179 0.5254 0.53213 0.0
H1176 H 0.55677 0.53486 0.51397 0.0
C1177 C 0.46617 0.49387 0.55308 0.0
H1178 H 0.52768 0.56396 0.50228 0.0
C1179 C 0.48317 0.47704 0.56 0.0
C1180 C 0.51601 0.49138 0.54579 0.0
H1181 H 0.44086 0.48216 0.56396 0.0
H1182 H 0.47049 0.4527 0.57599 0.0
C1183 C 0.53151 0.52294 0.52517 0.0
C1184 C 0.48156 0.99514 0.49705 0.0
C1185 C 0.51365 0.00475 0.51042 0.0
H1186 H 0.43374 0.95558 0.48077 0.0
C1187 C 0.5216 0.98015 0.51907 0.0
H1188 H 0.47445 0.01334 0.49053 0.0
C1189 C 0.49806 0.94667 0.51341 0.0
C1190 C 0.4661 0.93718 0.49918 0.0
H1191 H 0.54611 0.98672 0.52964 0.0
H1192 H 0.50504 0.92833 0.51941 0.0
C1193 C 0.45811 0.96185 0.49165 0.0
C1194 C 0.55266 0.03924 0.00284 0.0
C1195 C 0.53254 0.05161 0.01757 0.0
H1196 H 0.55612 -0.00366 0.98702 0.0
C1197 C 0.49947 0.02911 0.02714 0.0
H1198 H 0.57824 0.05584 0.99537 0.0
C1199 C 0.48689 0.99517 0.02279 0.0
C1200 C 0.50696 0.98268 0.00854 0.0
H1201 H 0.48314 0.03761 0.03856 0.0
H1202 H 0.46132 0.97875 0.03061 0.0
C1203 C 0.53998 0.00511 0.99833 0.0
C1204 C 0.97624 0.43671 0.01432 0.0
C1205 C 0.95536 0.44705 0.99558 0.0
H1206 H 0.02519 0.44739 0.02386 0.0
C1207 C 0.96899 0.47769 0.97229 0.0
H1208 H 0.96659 0.41334 0.03285 0.0
C1209 C 0.00277 0.49722 0.96694 0.0
C1210 C 0.02359 0.48662 0.98518 0.0
H1211 H 0.95359 0.48636 0.95751 0.0
H1212 H 0.01254 0.52057 0.94831 0.0
C1213 C 0.00992 0.45631 0.00935 0.0
C1214 C 0.50658 0.55257 0.91305 0.0
C1215 C 0.49182 0.51803 0.91539 0.0
H1216 H 0.50161 0.59468 0.92665 0.0
C1217 C 0.45793 0.49899 0.92214 0.0
H1218 H 0.53257 0.56788 0.90706 0.0
C1219 C 0.44014 0.51442 0.93371 0.0
C1220 C 0.45604 0.54902 0.9385 0.0
H1221 H 0.4458 0.47231 0.92388 0.0
H1222 H 0.41471 0.49914 0.94339 0.0
C1223 C 0.48885 0.56794 0.92456 0.0
loop_
_geom_bond_atom_site_label_1
_geom_bond_atom_site_label_2
_geom_bond_distance
_geom_bond_site_symmetry_2
_ccdc_geom_bond_type
Mg0 O1 2.028 . S
Mg0 O7 1.986 . S
Mg0 O9 2.114 . S
Mg0 O10 2.251 . S
Mg0 O13 2.010 . S
O1 Mg0 2.028 . S
O1 C4 1.250 . S
O2 Mg3 2.028 . S
O2 C4 1.248 . S
Mg3 O2 2.028 . S
Mg3 O8 2.032 . S
Mg3 O10 2.079 . S
C4 O1 1.250 . S
C4 O2 1.248 . S
C5 O6 1.264 . S
C5 O13 1.249 . S
O6 C5 1.264 . S
O7 Mg0 1.986 . S
O7 C11 1.246 . S
O8 Mg3 2.032 . S
O8 C11 1.259 . S
O9 Mg0 2.114 . S
O9 C12 1.252 . S
O10 Mg0 2.251 . S
O10 Mg3 2.079 . S
O10 C12 1.273 . S
C11 O7 1.246 . S
C11 O8 1.259 . S
C12 O9 1.252 . S
C12 O10 1.273 . S
O13 Mg0 2.010 . S
O13 C5 1.249 . S
Mg14 O15 2.028 . S
Mg14 O21 1.986 . S
Mg14 O23 2.114 . S
Mg14 O24 2.251 . S
Mg14 O27 2.010 . S
O15 Mg14 2.028 . S
O15 C18 1.250 . S
O16 Mg17 2.028 . S
O16 C18 1.248 . S
Mg17 O16 2.028 . S
Mg17 O22 2.032 . S
Mg17 O24 2.079 . S
C18 O15 1.250 . S
C18 O16 1.248 . S
C19 O20 1.264 1_655 S
C19 O27 1.249 . S
O20 C19 1.264 1_455 S
O21 Mg14 1.986 . S
O21 C25 1.246 . S
O22 Mg17 2.032 . S
O22 C25 1.259 . S
O23 Mg14 2.114 . S
O23 C26 1.252 . S
O24 Mg14 2.251 . S
O24 Mg17 2.079 . S
O24 C26 1.273 . S
C25 O21 1.246 . S
C25 O22 1.259 . S
C26 O23 1.252 . S
C26 O24 1.273 . S
O27 Mg14 2.010 . S
O27 C19 1.249 . S
Mg28 O29 2.028 . S
Mg28 O35 1.986 . S
Mg28 O37 2.114 . S
Mg28 O38 2.251 . S
Mg28 O41 2.010 . S
O29 Mg28 2.028 . S
O29 C32 1.250 . S
O30 Mg31 2.028 . S
O30 C32 1.248 . S
Mg31 O30 2.028 . S
Mg31 O36 2.032 . S
Mg31 O38 2.079 . S
C32 O29 1.250 . S
C32 O30 1.248 . S
C33 O34 1.264 . S
C33 O41 1.249 . S
O34 C33 1.264 . S
O35 Mg28 1.986 . S
O35 C39 1.246 . S
O36 Mg31 2.032 . S
O36 C39 1.259 . S
O37 Mg28 2.114 . S
O37 C40 1.252 . S
O38 Mg28 2.251 . S
O38 Mg31 2.079 . S
O38 C40 1.273 . S
C39 O35 1.246 . S
C39 O36 1.259 . S
C40 O37 1.252 . S
C40 O38 1.273 . S
O41 Mg28 2.010 . S
O41 C33 1.249 . S
Mg42 O43 2.028 . S
Mg42 O49 1.986 . S
Mg42 O51 2.114 . S
Mg42 O52 2.251 . S
Mg42 O55 2.010 . S
O43 Mg42 2.028 . S
O43 C46 1.250 . S
O44 Mg45 2.028 . S
O44 C46 1.248 . S
Mg45 O44 2.028 . S
Mg45 O50 2.032 . S
Mg45 O52 2.079 . S
C46 O43 1.250 . S
C46 O44 1.248 . S
C47 O48 1.264 1_455 S
C47 O55 1.249 . S
O48 C47 1.264 1_655 S
O49 Mg42 1.986 . S
O49 C53 1.246 . S
O50 Mg45 2.032 . S
O50 C53 1.259 . S
O51 Mg42 2.114 . S
O51 C54 1.252 . S
O52 Mg42 2.251 . S
O52 Mg45 2.079 . S
O52 C54 1.273 . S
C53 O49 1.246 . S
C53 O50 1.259 . S
C54 O51 1.252 . S
C54 O52 1.273 . S
O55 Mg42 2.010 . S
O55 C47 1.249 . S
Mg56 O57 2.028 . S
Mg56 O63 1.986 . S
Mg56 O65 2.114 . S
Mg56 O66 2.251 . S
Mg56 O69 2.010 . S
O57 Mg56 2.028 . S
O57 C60 1.250 . S
O58 Mg59 2.028 . S
O58 C60 1.248 . S
Mg59 O58 2.028 . S
Mg59 O64 2.032 . S
Mg59 O66 2.079 . S
C60 O57 1.250 . S
C60 O58 1.248 . S
C61 O62 1.264 . S
C61 O69 1.249 . S
O62 C61 1.264 . S
O63 Mg56 1.986 . S
O63 C67 1.246 . S
O64 Mg59 2.032 . S
O64 C67 1.259 . S
O65 Mg56 2.114 . S
O65 C68 1.252 . S
O66 Mg56 2.251 . S
O66 Mg59 2.079 . S
O66 C68 1.273 . S
C67 O63 1.246 . S
C67 O64 1.259 . S
C68 O65 1.252 . S
C68 O66 1.273 . S
O69 Mg56 2.010 . S
O69 C61 1.249 . S
Mg70 O71 2.028 . S
Mg70 O77 1.986 . S
Mg70 O79 2.114 . S
Mg70 O80 2.251 . S
Mg70 O83 2.010 . S
O71 Mg70 2.028 . S
O71 C74 1.250 . S
O72 Mg73 2.028 . S
O72 C74 1.248 . S
Mg73 O72 2.028 . S
Mg73 O78 2.032 . S
Mg73 O80 2.079 . S
C74 O71 1.250 . S
C74 O72 1.248 . S
C75 O76 1.264 . S
C75 O83 1.249 . S
O76 C75 1.264 . S
O77 Mg70 1.986 . S
O77 C81 1.246 . S
O78 Mg73 2.032 . S
O78 C81 1.259 . S
O79 Mg70 2.114 . S
O79 C82 1.252 . S
O80 Mg70 2.251 . S
O80 Mg73 2.079 . S
O80 C82 1.273 . S
C81 O77 1.246 . S
C81 O78 1.259 . S
C82 O79 1.252 . S
C82 O80 1.273 . S
O83 Mg70 2.010 . S
O83 C75 1.249 . S
Mg84 O85 2.028 . S
Mg84 O91 1.986 . S
Mg84 O93 2.114 . S
Mg84 O94 2.251 . S
Mg84 O97 2.010 . S
O85 Mg84 2.028 . S
O85 C88 1.250 . S
O86 Mg87 2.028 . S
O86 C88 1.248 . S
Mg87 O86 2.028 . S
Mg87 O92 2.032 . S
Mg87 O94 2.079 . S
C88 O85 1.250 . S
C88 O86 1.248 . S
C89 O90 1.264 1_565 S
C89 O97 1.249 . S
O90 C89 1.264 1_545 S
O91 Mg84 1.986 . S
O91 C95 1.246 . S
O92 Mg87 2.032 . S
O92 C95 1.259 . S
O93 Mg84 2.114 . S
O93 C96 1.252 . S
O94 Mg84 2.251 . S
O94 Mg87 2.079 . S
O94 C96 1.273 . S
C95 O91 1.246 . S
C95 O92 1.259 . S
C96 O93 1.252 . S
C96 O94 1.273 . S
O97 Mg84 2.010 . S
O97 C89 1.249 . S
Mg98 O99 2.028 . S
Mg98 O105 1.986 . S
Mg98 O107 2.114 . S
Mg98 O108 2.251 . S
Mg98 O111 2.010 . S
O99 Mg98 2.028 . S
O99 C102 1.250 . S
O100 Mg101 2.028 . S
O100 C102 1.248 . S
Mg101 O100 2.028 . S
Mg101 O106 2.032 . S
Mg101 O108 2.079 . S
C102 O99 1.250 . S
C102 O100 1.248 . S
C103 O104 1.264 1_455 S
C103 O111 1.249 . S
O104 C103 1.264 1_655 S
O105 Mg98 1.986 . S
O105 C109 1.246 . S
O106 Mg101 2.032 . S
O106 C109 1.259 . S
O107 Mg98 2.114 . S
O107 C110 1.252 . S
O108 Mg98 2.251 . S
O108 Mg101 2.079 . S
O108 C110 1.273 . S
C109 O105 1.246 . S
C109 O106 1.259 . S
C110 O107 1.252 . S
C110 O108 1.273 . S
O111 Mg98 2.010 . S
O111 C103 1.249 . S
Mg112 O113 2.028 . S
Mg112 O119 1.986 . S
Mg112 O121 2.114 . S
Mg112 O122 2.251 . S
Mg112 O125 2.010 . S
O113 Mg112 2.028 . S
O113 C116 1.250 . S
O114 Mg115 2.028 . S
O114 C116 1.248 . S
Mg115 O114 2.028 . S
Mg115 O120 2.032 . S
Mg115 O122 2.079 . S
C116 O113 1.250 . S
C116 O114 1.248 . S
C117 O118 1.264 . S
C117 O125 1.249 . S
O118 C117 1.264 . S
O119 Mg112 1.986 . S
O119 C123 1.246 . S
O120 Mg115 2.032 . S
O120 C123 1.259 . S
O121 Mg112 2.114 . S
O121 C124 1.252 . S
O122 Mg112 2.251 . S
O122 Mg115 2.079 . S
O122 C124 1.273 . S
C123 O119 1.246 . S
C123 O120 1.259 . S
C124 O121 1.252 . S
C124 O122 1.273 . S
O125 Mg112 2.010 . S
O125 C117 1.249 . S
Mg126 O127 2.028 . S
Mg126 O133 1.986 . S
Mg126 O135 2.114 . S
Mg126 O136 2.251 . S
Mg126 O139 2.010 . S
O127 Mg126 2.028 . S
O127 C130 1.250 . S
O128 Mg129 2.028 . S
O128 C130 1.248 . S
Mg129 O128 2.028 . S
Mg129 O134 2.032 . S
Mg129 O136 2.079 . S
C130 O127 1.250 . S
C130 O128 1.248 . S
C131 O132 1.246 1_655 S
C131 O139 1.249 . S
O132 C131 1.246 1_455 S
O133 Mg126 1.986 . S
O133 C137 1.246 . S
O134 Mg129 2.032 . S
O134 C137 1.259 . S
O135 Mg126 2.114 . S
O135 C138 1.252 . S
O136 Mg126 2.251 . S
O136 Mg129 2.079 . S
O136 C138 1.273 . S
C137 O133 1.246 . S
C137 O134 1.259 . S
C138 O135 1.252 . S
C138 O136 1.273 . S
O139 Mg126 2.010 . S
O139 C131 1.249 . S
Mg140 O141 2.028 . S
Mg140 O147 1.986 . S
Mg140 O149 2.114 . S
Mg140 O150 2.251 . S
Mg140 O153 2.010 . S
O141 Mg140 2.028 . S
O141 C144 1.250 . S
O142 Mg143 2.028 . S
O142 C144 1.248 . S
Mg143 O142 2.028 . S
Mg143 O148 2.032 . S
Mg143 O150 2.079 . S
C144 O141 1.250 . S
C144 O142 1.248 . S
C145 O146 1.264 . S
C145 O153 1.249 . S
O146 C145 1.264 . S
O147 Mg140 1.986 . S
O147 C151 1.246 . S
O148 Mg143 2.032 . S
O148 C151 1.259 . S
O149 Mg140 2.114 . S
O149 C152 1.252 . S
O150 Mg140 2.251 . S
O150 Mg143 2.079 . S
O150 C152 1.273 . S
C151 O147 1.246 . S
C151 O148 1.259 . S
C152 O149 1.252 . S
C152 O150 1.273 . S
O153 Mg140 2.010 . S
O153 C145 1.249 . S
Mg154 O155 2.028 . S
Mg154 O161 1.986 . S
Mg154 O163 2.114 . S
Mg154 O164 2.251 . S
Mg154 O167 2.010 . S
O155 Mg154 2.028 . S
O155 C158 1.250 . S
O156 Mg157 2.028 . S
O156 C158 1.248 . S
Mg157 O156 2.028 . S
Mg157 O162 2.032 . S
Mg157 O164 2.079 . S
C158 O155 1.250 . S
C158 O156 1.248 . S
C159 O160 1.264 1_545 S
C159 O167 1.249 . S
O160 C159 1.264 1_565 S
O161 Mg154 1.986 . S
O161 C165 1.246 . S
O162 Mg157 2.032 . S
O162 C165 1.259 . S
O163 Mg154 2.114 . S
O163 C166 1.252 . S
O164 Mg154 2.251 . S
O164 Mg157 2.079 . S
O164 C166 1.273 . S
C165 O161 1.246 . S
C165 O162 1.259 . S
C166 O163 1.252 . S
C166 O164 1.273 . S
O167 Mg154 2.010 . S
O167 C159 1.249 . S
Mg168 O169 2.028 . S
Mg168 O175 1.986 . S
Mg168 O177 2.114 . S
Mg168 O178 2.251 . S
Mg168 O181 2.010 . S
O169 Mg168 2.028 . S
O169 C172 1.250 . S
O170 Mg171 2.028 . S
O170 C172 1.248 . S
Mg171 O170 2.028 . S
Mg171 O176 2.032 . S
Mg171 O178 2.079 . S
C172 O169 1.250 . S
C172 O170 1.248 . S
C173 O174 1.264 . S
C173 O181 1.249 . S
O174 C173 1.264 . S
O175 Mg168 1.986 . S
O175 C179 1.246 . S
O176 Mg171 2.032 . S
O176 C179 1.259 . S
O177 Mg168 2.114 . S
O177 C180 1.252 . S
O178 Mg168 2.251 . S
O178 Mg171 2.079 . S
O178 C180 1.273 . S
C179 O175 1.246 . S
C179 O176 1.259 . S
C180 O177 1.252 . S
C180 O178 1.273 . S
O181 Mg168 2.010 . S
O181 C173 1.249 . S
Mg182 O183 2.028 . S
Mg182 O189 1.986 . S
Mg182 O191 2.114 . S
Mg182 O192 2.251 . S
Mg182 O195 2.010 . S
O183 Mg182 2.028 . S
O183 C186 1.250 . S
O184 Mg185 2.028 . S
O184 C186 1.248 . S
Mg185 O184 2.028 . S
Mg185 O190 2.032 . S
Mg185 O192 2.079 . S
C186 O183 1.250 . S
C186 O184 1.248 . S
C187 O188 1.264 . S
C187 O195 1.249 . S
O188 C187 1.264 . S
O189 Mg182 1.986 . S
O189 C193 1.246 . S
O190 Mg185 2.032 . S
O190 C193 1.259 . S
O191 Mg182 2.114 . S
O191 C194 1.252 . S
O192 Mg182 2.251 . S
O192 Mg185 2.079 . S
O192 C194 1.273 . S
C193 O189 1.246 . S
C193 O190 1.259 . S
C194 O191 1.252 . S
C194 O192 1.273 . S
O195 Mg182 2.010 . S
O195 C187 1.249 . S
Mg196 O197 2.028 . S
Mg196 O203 1.986 . S
Mg196 O205 2.114 . S
Mg196 O206 2.251 . S
Mg196 O209 2.010 . S
O197 Mg196 2.028 . S
O197 C200 1.250 . S
O198 Mg199 2.028 . S
O198 C200 1.248 . S
Mg199 O198 2.028 . S
Mg199 O204 2.032 . S
Mg199 O206 2.079 . S
C200 O197 1.250 . S
C200 O198 1.248 . S
C201 O202 1.264 . S
C201 O209 1.249 . S
O202 C201 1.264 . S
O203 Mg196 1.986 . S
O203 C207 1.246 . S
O204 Mg199 2.032 . S
O204 C207 1.259 . S
O205 Mg196 2.114 . S
O205 C208 1.252 . S
O206 Mg196 2.251 . S
O206 Mg199 2.079 . S
O206 C208 1.273 . S
C207 O203 1.246 . S
C207 O204 1.259 . S
C208 O205 1.252 . S
C208 O206 1.273 . S
O209 Mg196 2.010 . S
O209 C201 1.249 . S
Mg210 O211 2.028 . S
Mg210 O217 1.986 . S
Mg210 O219 2.114 . S
Mg210 O220 2.251 . S
Mg210 O223 2.010 . S
O211 Mg210 2.028 . S
O211 C214 1.250 . S
O212 Mg213 2.028 . S
O212 C214 1.248 . S
Mg213 O212 2.028 . S
Mg213 O218 2.032 . S
Mg213 O220 2.079 . S
C214 O211 1.250 . S
C214 O212 1.248 . S
C215 O216 1.264 . S
C215 O223 1.249 . S
O216 C215 1.264 . S
O217 Mg210 1.986 . S
O217 C221 1.246 . S
O218 Mg213 2.032 . S
O218 C221 1.259 . S
O219 Mg210 2.114 . S
O219 C222 1.252 . S
O220 Mg210 2.251 . S
O220 Mg213 2.079 . S
O220 C222 1.273 . S
C221 O217 1.246 . S
C221 O218 1.259 . S
C222 O219 1.252 . S
C222 O220 1.273 . S
O223 Mg210 2.010 . S
O223 C215 1.249 . S
Mg224 O225 2.028 . S
Mg224 O231 1.986 . S
Mg224 O233 2.114 . S
Mg224 O234 2.251 . S
Mg224 O237 2.010 . S
O225 Mg224 2.028 . S
O225 C228 1.250 . S
O226 Mg227 2.028 . S
O226 C228 1.248 . S
Mg227 O226 2.028 . S
Mg227 O232 2.032 . S
Mg227 O234 2.079 . S
C228 O225 1.250 . S
C228 O226 1.248 . S
C229 O230 1.264 . S
C229 O237 1.249 . S
O230 C229 1.264 . S
O231 Mg224 1.986 . S
O231 C235 1.246 . S
O232 Mg227 2.032 . S
O232 C235 1.259 . S
O233 Mg224 2.114 . S
O233 C236 1.252 . S
O234 Mg224 2.251 . S
O234 Mg227 2.079 . S
O234 C236 1.273 . S
C235 O231 1.246 . S
C235 O232 1.259 . S
C236 O233 1.252 . S
C236 O234 1.273 . S
O237 Mg224 2.010 . S
O237 C229 1.249 . S
Mg238 O239 2.028 . S
Mg238 O245 1.986 . S
Mg238 O247 2.114 . S
Mg238 O248 2.251 . S
Mg238 O251 2.010 . S
O239 Mg238 2.028 . S
O239 C242 1.250 . S
O240 Mg241 2.028 . S
O240 C242 1.248 . S
Mg241 O240 2.028 . S
Mg241 O246 2.032 . S
Mg241 O248 2.079 . S
C242 O239 1.250 . S
C242 O240 1.248 . S
C243 O244 1.264 . S
C243 O251 1.249 . S
O244 C243 1.264 . S
O245 Mg238 1.986 . S
O245 C249 1.246 . S
O246 Mg241 2.032 . S
O246 C249 1.259 . S
O247 Mg238 2.114 . S
O247 C250 1.252 . S
O248 Mg238 2.251 . S
O248 Mg241 2.079 . S
O248 C250 1.273 . S
C249 O245 1.246 . S
C249 O246 1.259 . S
C250 O247 1.252 . S
C250 O248 1.273 . S
O251 Mg238 2.010 . S
O251 C243 1.249 . S
Mg252 O253 2.028 . S
Mg252 O259 1.986 . S
Mg252 O261 2.114 . S
Mg252 O262 2.251 . S
Mg252 O265 2.010 . S
O253 Mg252 2.028 . S
O253 C256 1.250 . S
O254 Mg255 2.028 . S
O254 C256 1.248 . S
Mg255 O254 2.028 . S
Mg255 O260 2.032 . S
Mg255 O262 2.079 . S
C256 O253 1.250 . S
C256 O254 1.248 . S
C257 O258 1.264 . S
C257 O265 1.249 . S
O258 C257 1.264 . S
O259 Mg252 1.986 . S
O259 C263 1.246 . S
O260 Mg255 2.032 . S
O260 C263 1.259 . S
O261 Mg252 2.114 . S
O261 C264 1.252 . S
O262 Mg252 2.251 . S
O262 Mg255 2.079 . S
O262 C264 1.273 . S
C263 O259 1.246 . S
C263 O260 1.259 . S
C264 O261 1.252 . S
C264 O262 1.273 . S
O265 Mg252 2.010 . S
O265 C257 1.249 . S
Mg266 O267 2.028 . S
Mg266 O273 1.986 . S
Mg266 O275 2.114 . S
Mg266 O276 2.251 . S
Mg266 O279 2.010 . S
O267 Mg266 2.028 . S
O267 C270 1.250 . S
O268 Mg269 2.028 . S
O268 C270 1.248 . S
Mg269 O268 2.028 . S
Mg269 O274 2.032 . S
Mg269 O276 2.079 . S
C270 O267 1.250 . S
C270 O268 1.248 . S
C271 O272 1.264 . S
C271 O279 1.249 . S
O272 C271 1.264 . S
O273 Mg266 1.986 . S
O273 C277 1.246 . S
O274 Mg269 2.032 . S
O274 C277 1.259 . S
O275 Mg266 2.114 . S
O275 C278 1.252 . S
O276 Mg266 2.251 . S
O276 Mg269 2.079 . S
O276 C278 1.273 . S
C277 O273 1.246 . S
C277 O274 1.259 . S
C278 O275 1.252 . S
C278 O276 1.273 . S
O279 Mg266 2.010 . S
O279 C271 1.249 . S
Mg280 O281 2.028 . S
Mg280 O287 1.986 . S
Mg280 O289 2.114 . S
Mg280 O290 2.251 . S
Mg280 O293 2.010 . S
O281 Mg280 2.028 . S
O281 C284 1.250 . S
O282 Mg283 2.028 . S
O282 C284 1.248 . S
Mg283 O282 2.028 . S
Mg283 O288 2.032 . S
Mg283 O290 2.079 . S
C284 O281 1.250 . S
C284 O282 1.248 . S
C285 O286 1.264 . S
C285 O293 1.249 . S
O286 C285 1.264 . S
O287 Mg280 1.986 . S
O287 C291 1.246 . S
O288 Mg283 2.032 . S
O288 C291 1.259 . S
O289 Mg280 2.114 . S
O289 C292 1.252 . S
O290 Mg280 2.251 . S
O290 Mg283 2.079 . S
O290 C292 1.273 . S
C291 O287 1.246 . S
C291 O288 1.259 . S
C292 O289 1.252 . S
C292 O290 1.273 . S
O293 Mg280 2.010 . S
O293 C285 1.249 . S
Mg294 O295 2.028 . S
Mg294 O301 1.986 . S
Mg294 O303 2.114 1_556 S
Mg294 O304 2.251 1_556 S
Mg294 O307 2.010 . S
O295 Mg294 2.028 . S
O295 C298 1.250 . S
O296 Mg297 2.028 . S
O296 C298 1.248 . S
Mg297 O296 2.028 . S
Mg297 O302 2.032 . S
Mg297 O304 2.079 1_556 S
C298 O295 1.250 . S
C298 O296 1.248 . S
C299 O300 1.264 . S
C299 O307 1.249 . S
O300 C299 1.264 . S
O301 Mg294 1.986 . S
O301 C305 1.246 . S
O302 Mg297 2.032 . S
O302 C305 1.259 . S
O303 Mg294 2.114 1_554 S
O303 C306 1.252 . S
O304 Mg294 2.251 1_554 S
O304 Mg297 2.079 1_554 S
O304 C306 1.273 . S
C305 O301 1.246 . S
C305 O302 1.259 . S
C306 O303 1.252 . S
C306 O304 1.273 . S
O307 Mg294 2.010 . S
O307 C299 1.249 . S
Mg308 O309 2.028 . S
Mg308 O315 1.986 . S
Mg308 O317 2.114 1_556 S
Mg308 O318 2.251 1_556 S
Mg308 O321 2.010 . S
O309 Mg308 2.028 . S
O309 C312 1.250 . S
O310 Mg311 2.028 . S
O310 C312 1.248 . S
Mg311 O310 2.028 . S
Mg311 O316 2.032 . S
Mg311 O318 2.079 1_556 S
C312 O309 1.250 . S
C312 O310 1.248 . S
C313 O314 1.264 . S
C313 O321 1.249 . S
O314 C313 1.264 . S
O315 Mg308 1.986 . S
O315 C319 1.246 . S
O316 Mg311 2.032 . S
O316 C319 1.259 . S
O317 Mg308 2.114 1_554 S
O317 C320 1.252 . S
O318 Mg308 2.251 1_554 S
O318 Mg311 2.079 1_554 S
O318 C320 1.273 . S
C319 O315 1.246 . S
C319 O316 1.259 . S
C320 O317 1.252 . S
C320 O318 1.273 . S
O321 Mg308 2.010 . S
O321 C313 1.249 . S
Mg322 O323 2.028 . S
Mg322 O329 1.986 . S
Mg322 O331 2.114 . S
Mg322 O332 2.251 1_556 S
Mg322 O335 2.010 . S
O323 Mg322 2.028 . S
O323 C326 1.250 . S
O324 Mg325 2.028 . S
O324 C326 1.248 . S
Mg325 O324 2.028 . S
Mg325 O330 2.032 . S
Mg325 O332 2.079 1_556 S
C326 O323 1.250 . S
C326 O324 1.248 . S
C327 O328 1.264 . S
C327 O335 1.249 . S
O328 C327 1.264 . S
O329 Mg322 1.986 . S
O329 C333 1.246 . S
O330 Mg325 2.032 . S
O330 C333 1.259 . S
O331 Mg322 2.114 . S
O331 C334 1.252 1_556 S
O332 Mg322 2.251 1_554 S
O332 Mg325 2.079 1_554 S
O332 C334 1.273 . S
C333 O329 1.246 . S
C333 O330 1.259 . S
C334 O331 1.252 1_554 S
C334 O332 1.273 . S
O335 Mg322 2.010 . S
O335 C327 1.249 . S
Mg336 O337 2.028 . S
Mg336 O343 1.986 . S
Mg336 O345 2.114 . S
Mg336 O346 2.251 . S
Mg336 O349 2.010 . S
O337 Mg336 2.028 . S
O337 C340 1.250 . S
O338 Mg339 2.028 . S
O338 C340 1.248 . S
Mg339 O338 2.028 . S
Mg339 O344 2.032 . S
Mg339 O346 2.079 . S
C340 O337 1.250 . S
C340 O338 1.248 . S
C341 O342 1.264 . S
C341 O349 1.249 . S
O342 C341 1.264 . S
O343 Mg336 1.986 . S
O343 C347 1.246 . S
O344 Mg339 2.032 . S
O344 C347 1.259 . S
O345 Mg336 2.114 . S
O345 C348 1.252 . S
O346 Mg336 2.251 . S
O346 Mg339 2.079 . S
O346 C348 1.273 . S
C347 O343 1.246 . S
C347 O344 1.259 . S
C348 O345 1.252 . S
C348 O346 1.273 . S
O349 Mg336 2.010 . S
O349 C341 1.249 . S
Mg350 O351 2.028 . S
Mg350 O357 1.986 . S
Mg350 O359 2.114 . S
Mg350 O360 2.251 . S
Mg350 O363 2.010 . S
O351 Mg350 2.028 . S
O351 C354 1.250 . S
O352 Mg353 2.028 . S
O352 C354 1.248 . S
Mg353 O352 2.028 . S
Mg353 O358 2.032 . S
Mg353 O360 2.079 . S
C354 O351 1.250 . S
C354 O352 1.248 . S
C355 O356 1.264 . S
C355 O363 1.249 . S
O356 C355 1.264 . S
O357 Mg350 1.986 . S
O357 C361 1.246 . S
O358 Mg353 2.032 . S
O358 C361 1.259 . S
O359 Mg350 2.114 . S
O359 C362 1.252 . S
O360 Mg350 2.251 . S
O360 Mg353 2.079 . S
O360 C362 1.273 . S
C361 O357 1.246 . S
C361 O358 1.259 . S
C362 O359 1.252 . S
C362 O360 1.273 . S
O363 Mg350 2.010 . S
O363 C355 1.249 . S
Mg364 O365 2.028 . S
Mg364 O371 1.986 . S
Mg364 O373 2.114 . S
Mg364 O374 2.251 . S
Mg364 O377 2.010 . S
O365 Mg364 2.028 . S
O365 C368 1.250 . S
O366 Mg367 2.028 . S
O366 C368 1.248 . S
Mg367 O366 2.028 . S
Mg367 O372 2.032 . S
Mg367 O374 2.079 . S
C368 O365 1.250 . S
C368 O366 1.248 . S
C369 O370 1.264 . S
C369 O377 1.249 . S
O370 C369 1.264 . S
O371 Mg364 1.986 . S
O371 C375 1.246 . S
O372 Mg367 2.032 . S
O372 C375 1.259 . S
O373 Mg364 2.114 . S
O373 C376 1.252 . S
O374 Mg364 2.251 . S
O374 Mg367 2.079 . S
O374 C376 1.273 . S
C375 O371 1.246 . S
C375 O372 1.259 . S
C376 O373 1.252 . S
C376 O374 1.273 . S
O377 Mg364 2.010 . S
O377 C369 1.249 . S
Mg378 O379 2.028 . S
Mg378 O385 1.986 . S
Mg378 O387 2.114 1_554 S
Mg378 O388 2.251 1_554 S
Mg378 O391 2.010 . S
O379 Mg378 2.028 . S
O379 C382 1.250 . S
O380 Mg381 2.028 . S
O380 C382 1.248 . S
Mg381 O380 2.028 . S
Mg381 O386 2.032 . S
Mg381 O388 2.079 1_554 S
C382 O379 1.250 . S
C382 O380 1.248 . S
C383 O384 1.264 . S
C383 O391 1.249 . S
O384 C383 1.264 . S
O385 Mg378 1.986 . S
O385 C389 1.246 . S
O386 Mg381 2.032 . S
O386 C389 1.259 . S
O387 Mg378 2.114 1_556 S
O387 C390 1.252 . S
O388 Mg378 2.251 1_556 S
O388 Mg381 2.079 1_556 S
O388 C390 1.273 . S
C389 O385 1.246 . S
C389 O386 1.259 . S
C390 O387 1.252 . S
C390 O388 1.273 . S
O391 Mg378 2.010 . S
O391 C383 1.249 . S
Mg392 O393 2.028 . S
Mg392 O399 1.986 . S
Mg392 O401 2.114 1_554 S
Mg392 O402 2.251 1_554 S
Mg392 O405 2.010 . S
O393 Mg392 2.028 . S
O393 C396 1.250 . S
O394 Mg395 2.028 . S
O394 C396 1.248 . S
Mg395 O394 2.028 . S
Mg395 O400 2.032 . S
Mg395 O402 2.079 1_554 S
C396 O393 1.250 . S
C396 O394 1.248 . S
C397 O398 1.264 . S
C397 O405 1.249 . S
O398 C397 1.264 . S
O399 Mg392 1.986 . S
O399 C403 1.246 . S
O400 Mg395 2.032 . S
O400 C403 1.259 . S
O401 Mg392 2.114 1_556 S
O401 C404 1.252 . S
O402 Mg392 2.251 1_556 S
O402 Mg395 2.079 1_556 S
O402 C404 1.273 . S
C403 O399 1.246 . S
C403 O400 1.259 . S
C404 O401 1.252 . S
C404 O402 1.273 . S
O405 Mg392 2.010 . S
O405 C397 1.249 . S
Mg406 O407 2.028 . S
Mg406 O413 1.986 . S
Mg406 O415 2.114 . S
Mg406 O416 2.251 . S
Mg406 O419 2.010 . S
O407 Mg406 2.028 . S
O407 C410 1.250 1_554 S
O408 Mg409 2.028 . S
O408 C410 1.248 1_554 S
Mg409 O408 2.028 . S
Mg409 O414 2.032 . S
Mg409 O416 2.079 . S
C410 O407 1.250 1_556 S
C410 O408 1.248 1_556 S
C411 O412 1.264 . S
C411 O419 1.249 . S
O412 C411 1.264 . S
O413 Mg406 1.986 . S
O413 C417 1.246 . S
O414 Mg409 2.032 . S
O414 C417 1.259 . S
O415 Mg406 2.114 . S
O415 C418 1.252 . S
O416 Mg406 2.251 . S
O416 Mg409 2.079 . S
O416 C418 1.273 . S
C417 O413 1.246 . S
C417 O414 1.259 . S
C418 O415 1.252 . S
C418 O416 1.273 . S
O419 Mg406 2.010 . S
O419 C411 1.249 . S
Mg420 O421 2.028 . S
Mg420 O427 1.986 . S
Mg420 O429 2.114 . S
Mg420 O430 2.251 . S
Mg420 O433 2.010 . S
O421 Mg420 2.028 . S
O421 C424 1.250 . S
O422 Mg423 2.028 . S
O422 C424 1.248 . S
Mg423 O422 2.028 . S
Mg423 O428 2.032 . S
Mg423 O430 2.079 . S
C424 O421 1.250 . S
C424 O422 1.248 . S
C425 O426 1.264 . S
C425 O433 1.249 . S
O426 C425 1.264 . S
O427 Mg420 1.986 . S
O427 C431 1.246 . S
O428 Mg423 2.032 . S
O428 C431 1.259 . S
O429 Mg420 2.114 . S
O429 C432 1.252 . S
O430 Mg420 2.251 . S
O430 Mg423 2.079 . S
O430 C432 1.273 . S
C431 O427 1.246 . S
C431 O428 1.259 . S
C432 O429 1.252 . S
C432 O430 1.273 . S
O433 Mg420 2.010 . S
O433 C425 1.249 . S
Mg434 O435 2.028 . S
Mg434 O441 1.986 . S
Mg434 O443 2.114 . S
Mg434 O444 2.251 . S
Mg434 O447 2.010 . S
O435 Mg434 2.028 . S
O435 C438 1.250 . S
O436 Mg437 2.028 . S
O436 C438 1.248 . S
Mg437 O436 2.028 . S
Mg437 O442 2.032 . S
Mg437 O444 2.079 . S
C438 O435 1.250 . S
C438 O436 1.248 . S
C439 O440 1.264 . S
C439 O447 1.249 . S
O440 C439 1.264 . S
O441 Mg434 1.986 . S
O441 C445 1.246 . S
O442 Mg437 2.032 . S
O442 C445 1.259 . S
O443 Mg434 2.114 . S
O443 C446 1.252 . S
O444 Mg434 2.251 . S
O444 Mg437 2.079 . S
O444 C446 1.273 . S
C445 O441 1.246 . S
C445 O442 1.259 . S
C446 O443 1.252 . S
C446 O444 1.273 . S
O447 Mg434 2.010 . S
O447 C439 1.249 . S
Mg448 O449 2.028 . S
Mg448 O455 1.986 . S
Mg448 O457 2.114 . S
Mg448 O458 2.251 . S
Mg448 O461 2.010 . S
O449 Mg448 2.028 . S
O449 C452 1.250 . S
O450 Mg451 2.028 . S
O450 C452 1.248 . S
Mg451 O450 2.028 . S
Mg451 O456 2.032 . S
Mg451 O458 2.079 . S
C452 O449 1.250 . S
C452 O450 1.248 . S
C453 O454 1.264 . S
C453 O461 1.249 . S
O454 C453 1.264 . S
O455 Mg448 1.986 . S
O455 C459 1.246 . S
O456 Mg451 2.032 . S
O456 C459 1.259 . S
O457 Mg448 2.114 . S
O457 C460 1.252 . S
O458 Mg448 2.251 . S
O458 Mg451 2.079 . S
O458 C460 1.273 . S
C459 O455 1.246 . S
C459 O456 1.259 . S
C460 O457 1.252 . S
C460 O458 1.273 . S
O461 Mg448 2.010 . S
O461 C453 1.249 . S
Mg462 O463 2.028 . S
Mg462 O469 1.986 . S
Mg462 O471 2.114 . S
Mg462 O472 2.251 . S
Mg462 O475 2.010 . S
O463 Mg462 2.028 . S
O463 C466 1.250 . S
O464 Mg465 2.028 . S
O464 C466 1.248 . S
Mg465 O464 2.028 . S
Mg465 O470 2.032 . S
Mg465 O472 2.079 . S
C466 O463 1.250 . S
C466 O464 1.248 . S
C467 O468 1.264 . S
C467 O475 1.249 . S
O468 C467 1.264 . S
O469 Mg462 1.986 . S
O469 C473 1.246 . S
O470 Mg465 2.032 . S
O470 C473 1.259 . S
O471 Mg462 2.114 . S
O471 C474 1.252 . S
O472 Mg462 2.251 . S
O472 Mg465 2.079 . S
O472 C474 1.273 . S
C473 O469 1.246 . S
C473 O470 1.259 . S
C474 O471 1.252 . S
C474 O472 1.273 . S
O475 Mg462 2.010 . S
O475 C467 1.249 . S
Mg476 O477 2.028 . S
Mg476 O483 1.986 . S
Mg476 O485 2.114 . S
Mg476 O486 2.251 . S
Mg476 O489 2.010 . S
O477 Mg476 2.028 . S
O477 C480 1.250 . S
O478 Mg479 2.028 . S
O478 C480 1.248 . S
Mg479 O478 2.028 . S
Mg479 O484 2.032 . S
Mg479 O486 2.079 . S
C480 O477 1.250 . S
C480 O478 1.248 . S
C481 O482 1.264 . S
C481 O489 1.249 . S
O482 C481 1.264 . S
O483 Mg476 1.986 . S
O483 C487 1.246 . S
O484 Mg479 2.032 . S
O484 C487 1.259 . S
O485 Mg476 2.114 . S
O485 C488 1.252 . S
O486 Mg476 2.251 . S
O486 Mg479 2.079 . S
O486 C488 1.273 . S
C487 O483 1.246 . S
C487 O484 1.259 . S
C488 O485 1.252 . S
C488 O486 1.273 . S
O489 Mg476 2.010 . S
O489 C481 1.249 . S
Mg490 O491 2.028 . S
Mg490 O497 1.986 . S
Mg490 O499 2.114 . S
Mg490 O500 2.251 . S
Mg490 O503 2.010 . S
O491 Mg490 2.028 . S
O491 C494 1.250 . S
O492 Mg493 2.028 . S
O492 C494 1.248 . S
Mg493 O492 2.028 . S
Mg493 O498 2.032 . S
Mg493 O500 2.079 . S
C494 O491 1.250 . S
C494 O492 1.248 . S
C495 O496 1.264 . S
C495 O503 1.249 . S
O496 C495 1.264 . S
O497 Mg490 1.986 . S
O497 C501 1.246 . S
O498 Mg493 2.032 . S
O498 C501 1.259 . S
O499 Mg490 2.114 . S
O499 C502 1.252 . S
O500 Mg490 2.251 . S
O500 Mg493 2.079 . S
O500 C502 1.273 . S
C501 O497 1.246 . S
C501 O498 1.259 . S
C502 O499 1.252 . S
C502 O500 1.273 . S
O503 Mg490 2.010 . S
O503 C495 1.249 . S
C504 C505 1.387 . S
C504 H508 0.950 . S
C504 C513 1.407 1_554 S
C505 C504 1.387 . S
C505 C507 1.387 1_545 S
H506 C513 0.960 . S
C507 C505 1.387 1_565 S
C507 C509 1.390 . S
C507 H511 0.950 . S
H508 C504 0.950 . S
C509 C507 1.390 . S
C509 C510 1.387 1_554 S
C509 H512 0.950 . S
C510 C509 1.387 1_556 S
C510 C513 1.361 1_565 S
H511 C507 0.950 . S
H512 C509 0.950 . S
C513 C504 1.407 1_556 S
C513 H506 0.960 . S
C513 C510 1.361 1_545 S
C514 C515 1.387 1_455 S
C514 H518 0.950 . S
C514 C523 1.390 . S
C515 C514 1.387 1_655 S
C515 C517 1.387 . S
H516 C523 0.950 . S
C517 C515 1.387 . S
C517 C519 1.390 1_654 S
C517 H521 0.950 . S
H518 C514 0.950 . S
C519 C517 1.390 1_456 S
C519 C520 1.387 . S
C519 H522 0.950 . S
C520 C519 1.387 . S
C520 C523 1.387 1_556 S
H521 C517 0.950 . S
H522 C519 0.950 . S
C523 C514 1.390 . S
C523 H516 0.950 . S
C523 C520 1.387 1_554 S
C524 C525 1.387 1_554 S
C524 H528 0.950 . S
C524 C533 1.390 . S
C525 C524 1.387 1_556 S
C525 C527 1.387 . S
H526 C533 0.950 . S
C527 C525 1.387 . S
C527 C529 1.390 1_556 S
C527 H531 0.950 . S
H528 C524 0.950 . S
C529 C527 1.390 1_554 S
C529 C530 1.387 . S
C529 H532 0.950 . S
C530 C529 1.387 . S
C530 C533 1.387 . S
H531 C527 0.950 . S
H532 C529 0.950 . S
C533 C524 1.390 . S
C533 H526 0.950 . S
C533 C530 1.387 . S
C534 C535 1.387 . S
C534 H538 0.950 . S
C534 C543 1.390 1_655 S
C535 C534 1.387 . S
C535 C537 1.387 . S
H536 C543 0.950 . S
C537 C535 1.387 . S
C537 C539 1.390 . S
C537 H541 0.950 . S
H538 C534 0.950 . S
C539 C537 1.390 . S
C539 C540 1.387 1_655 S
C539 H542 0.950 . S
C540 C539 1.387 1_455 S
C540 C543 1.387 . S
H541 C537 0.950 . S
H542 C539 0.950 . S
C543 C534 1.390 1_455 S
C543 H536 0.950 . S
C543 C540 1.387 . S
C544 C545 1.387 . S
C544 H548 0.950 . S
C544 C553 1.390 . S
C545 C544 1.387 . S
C545 C547 1.387 . S
H546 C553 0.950 . S
C547 C545 1.387 . S
C547 C549 1.390 . S
C547 H551 0.950 . S
H548 C544 0.950 . S
C549 C547 1.390 . S
C549 C550 1.387 . S
C549 H552 0.950 . S
C550 C549 1.387 . S
C550 C553 1.387 . S
H551 C547 0.950 . S
H552 C549 0.950 . S
C553 C544 1.390 . S
C553 H546 0.950 . S
C553 C550 1.387 . S
C554 C555 1.387 1_545 S
C554 H558 0.950 . S
C554 C563 1.390 . S
C555 C554 1.387 1_565 S
C555 C557 1.387 . S
H556 C563 0.950 . S
C557 C555 1.387 . S
C557 C559 1.381 1_565 S
C557 H561 0.950 . S
H558 C554 0.950 . S
C559 C557 1.381 1_545 S
C559 C560 1.408 . S
C559 H562 0.939 1_545 S
C560 C559 1.408 . S
C560 C563 1.387 . S
H561 C557 0.950 . S
H562 C559 0.939 1_565 S
C563 C554 1.390 . S
C563 H556 0.950 . S
C563 C560 1.387 . S
C564 C565 1.387 . S
C564 H568 0.950 . S
C564 C573 1.390 1_545 S
C565 C564 1.387 . S
C565 C567 1.387 1_554 S
H566 C573 0.950 . S
C567 C565 1.387 1_556 S
C567 C569 1.390 . S
C567 H571 0.950 . S
H568 C564 0.950 . S
C569 C567 1.390 . S
C569 C570 1.387 1_545 S
C569 H572 0.950 . S
C570 C569 1.387 1_565 S
C570 C573 1.387 1_556 S
H571 C567 0.950 . S
H572 C569 0.950 . S
C573 C564 1.390 1_565 S
C573 H566 0.950 . S
C573 C570 1.387 1_554 S
C574 C575 1.387 1_556 S
C574 H578 0.950 . S
C574 C583 1.390 . S
C575 C574 1.387 1_554 S
C575 C577 1.387 . S
H576 C583 0.950 . S
C577 C575 1.387 . S
C577 C579 1.390 1_654 S
C577 H581 0.950 . S
H578 C574 0.950 . S
C579 C577 1.390 1_456 S
C579 C580 1.387 . S
C579 H582 0.950 . S
C580 C579 1.387 . S
C580 C583 1.387 1_455 S
H581 C577 0.950 . S
H582 C579 0.950 . S
C583 C574 1.390 . S
C583 H576 0.950 . S
C583 C580 1.387 1_655 S
C584 C585 1.387 . S
C584 H588 0.950 . S
C584 C593 1.390 . S
C585 C584 1.387 . S
C585 C587 1.387 . S
H586 C593 0.950 . S
C587 C585 1.387 . S
C587 C589 1.390 1_556 S
C587 H591 0.950 . S
H588 C584 0.950 . S
C589 C587 1.390 1_554 S
C589 C590 1.387 . S
C589 H592 0.950 . S
C590 C589 1.387 . S
C590 C593 1.387 1_554 S
H591 C587 0.950 . S
H592 C589 0.950 . S
C593 C584 1.390 . S
C593 H586 0.950 . S
C593 C590 1.387 1_556 S
C594 C595 1.387 . S
C594 H598 0.950 . S
C594 C603 1.390 1_655 S
C595 C594 1.387 . S
C595 C597 1.387 1_655 S
H596 C603 0.950 . S
C597 C595 1.387 1_455 S
C597 C599 1.390 . S
C597 H601 0.950 1_455 S
H598 C594 0.950 . S
C599 C597 1.390 . S
C599 C600 1.387 . S
C599 H602 0.950 . S
C600 C599 1.387 . S
C600 C603 1.387 . S
H601 C597 0.950 1_655 S
H602 C599 0.950 . S
C603 C594 1.390 1_455 S
C603 H596 0.950 . S
C603 C600 1.387 . S
C604 C605 1.387 . S
C604 H608 0.950 . S
C604 C613 1.390 . S
C605 C604 1.387 . S
C605 C607 1.387 . S
H606 C613 0.950 . S
C607 C605 1.387 . S
C607 C609 1.390 . S
C607 H611 0.950 . S
H608 C604 0.950 . S
C609 C607 1.390 . S
C609 C610 1.387 . S
C609 H612 0.950 . S
C610 C609 1.387 . S
C610 C613 1.387 . S
H611 C607 0.950 . S
H612 C609 0.950 . S
C613 C604 1.390 . S
C613 H606 0.950 . S
C613 C610 1.387 . S
C614 C615 1.387 1_565 S
C614 H618 0.976 . S
C614 C623 1.390 . S
C615 C614 1.387 1_545 S
C615 C617 1.387 1_545 S
H616 C623 0.950 . S
C617 C615 1.387 1_565 S
C617 C619 1.390 . S
C617 H621 0.950 1_565 S
H618 C614 0.976 . S
C619 C617 1.390 . S
C619 C620 1.387 . S
C619 H622 0.950 . S
C620 C619 1.387 . S
C620 C623 1.387 . S
H621 C617 0.950 1_545 S
H622 C619 0.950 . S
C623 C614 1.390 . S
C623 H616 0.950 . S
C623 C620 1.387 . S
C624 C625 1.387 . S
C624 H628 0.950 . S
C624 C633 1.390 . S
C625 C624 1.387 . S
C625 C627 1.387 . S
H626 C633 0.950 . S
C627 C625 1.387 . S
C627 C629 1.390 . S
C627 H631 0.950 . S
H628 C624 0.950 . S
C629 C627 1.390 . S
C629 C630 1.387 . S
C629 H632 0.950 . S
C630 C629 1.387 . S
C630 C633 1.387 . S
H631 C627 0.950 . S
H632 C629 0.950 . S
C633 C624 1.390 . S
C633 H626 0.950 . S
C633 C630 1.387 . S
C634 C635 1.387 . S
C634 H638 0.950 . S
C634 C643 1.390 . S
C635 C634 1.387 . S
C635 C637 1.387 . S
H636 C643 0.950 . S
C637 C635 1.387 . S
C637 C639 1.390 . S
C637 H641 0.950 . S
H638 C634 0.950 . S
C639 C637 1.390 . S
C639 C640 1.387 . S
C639 H642 0.950 . S
C640 C639 1.387 . S
C640 C643 1.387 . S
H641 C637 0.950 . S
H642 C639 0.950 . S
C643 C634 1.390 . S
C643 H636 0.950 . S
C643 C640 1.387 . S
C644 C645 1.387 . S
C644 H648 0.950 . S
C644 C653 1.390 . S
C645 C644 1.387 . S
C645 C647 1.387 . S
H646 C653 0.950 . S
C647 C645 1.387 . S
C647 C649 1.390 . S
C647 H651 0.950 . S
H648 C644 0.950 . S
C649 C647 1.390 . S
C649 C650 1.387 . S
C649 H652 0.950 . S
C650 C649 1.387 . S
C650 C653 1.387 . S
H651 C647 0.950 . S
H652 C649 0.950 . S
C653 C644 1.390 . S
C653 H646 0.950 . S
C653 C650 1.387 . S
C654 C655 1.387 . S
C654 H658 0.950 . S
C654 C663 1.390 . S
C655 C654 1.387 . S
C655 C657 1.387 . S
H656 C663 0.950 . S
C657 C655 1.387 . S
C657 C659 1.390 . S
C657 H661 0.950 . S
H658 C654 0.950 . S
C659 C657 1.390 . S
C659 C660 1.387 . S
C659 H662 0.950 . S
C660 C659 1.387 . S
C660 C663 1.387 . S
H661 C657 0.950 . S
H662 C659 0.950 . S
C663 C654 1.390 . S
C663 H656 0.950 . S
C663 C660 1.387 . S
C664 C665 1.387 . S
C664 H668 0.950 . S
C664 C673 1.390 . S
C665 C664 1.387 . S
C665 C667 1.387 . S
H666 C673 0.950 . S
C667 C665 1.387 . S
C667 C669 1.390 . S
C667 H671 0.950 . S
H668 C664 0.950 . S
C669 C667 1.390 . S
C669 C670 1.387 . S
C669 H672 0.950 . S
C670 C669 1.387 . S
C670 C673 1.387 . S
H671 C667 0.950 . S
H672 C669 0.950 . S
C673 C664 1.390 . S
C673 H666 0.950 . S
C673 C670 1.387 . S
C674 C675 1.387 . S
C674 H678 0.950 . S
C674 C683 1.390 . S
C675 C674 1.387 . S
C675 C677 1.387 . S
H676 C683 0.950 . S
C677 C675 1.387 . S
C677 C679 1.390 . S
C677 H681 0.950 . S
H678 C674 0.950 . S
C679 C677 1.390 . S
C679 C680 1.387 . S
C679 H682 0.950 . S
C680 C679 1.387 . S
C680 C683 1.387 . S
H681 C677 0.950 . S
H682 C679 0.950 . S
C683 C674 1.390 . S
C683 H676 0.950 . S
C683 C680 1.387 . S
C684 C685 1.387 . S
C684 H688 0.950 . S
C684 C693 1.390 . S
C685 C684 1.387 . S
C685 C687 1.387 . S
H686 C693 0.950 . S
C687 C685 1.387 . S
C687 C689 1.390 . S
C687 H691 0.950 . S
H688 C684 0.950 . S
C689 C687 1.390 . S
C689 C690 1.387 . S
C689 H692 0.950 . S
C690 C689 1.387 . S
C690 C693 1.387 . S
H691 C687 0.950 . S
H692 C689 0.950 . S
C693 C684 1.390 . S
C693 H686 0.950 . S
C693 C690 1.387 . S
C694 C695 1.387 . S
C694 H698 0.950 . S
C694 C703 1.390 . S
C695 C694 1.387 . S
C695 C697 1.387 . S
H696 C703 0.950 . S
C697 C695 1.387 . S
C697 C699 1.390 . S
C697 H701 0.950 . S
H698 C694 0.950 . S
C699 C697 1.390 . S
C699 C700 1.387 . S
C699 H702 0.950 . S
C700 C699 1.387 . S
C700 C703 1.387 . S
H701 C697 0.950 . S
H702 C699 0.950 . S
C703 C694 1.390 . S
C703 H696 0.950 . S
C703 C700 1.387 . S
C704 C705 1.387 . S
C704 H708 0.950 . S
C704 C713 1.390 . S
C705 C704 1.387 . S
C705 C707 1.387 . S
H706 C713 0.950 . S
C707 C705 1.387 . S
C707 C709 1.390 . S
C707 H711 0.950 . S
H708 C704 0.950 . S
C709 C707 1.390 . S
C709 C710 1.387 . S
C709 H712 0.950 . S
C710 C709 1.387 . S
C710 C713 1.387 . S
H711 C707 0.950 . S
H712 C709 0.950 . S
C713 C704 1.390 . S
C713 H706 0.950 . S
C713 C710 1.387 . S
C714 C715 1.387 . S
C714 H718 0.950 . S
C714 C723 1.390 . S
C715 C714 1.387 . S
C715 C717 1.387 . S
H716 C723 0.950 . S
C717 C715 1.387 . S
C717 C719 1.390 . S
C717 H721 0.950 . S
H718 C714 0.950 . S
C719 C717 1.390 . S
C719 C720 1.387 . S
C719 H722 0.950 . S
C720 C719 1.387 . S
C720 C723 1.387 . S
H721 C717 0.950 . S
H722 C719 0.950 . S
C723 C714 1.390 . S
C723 H716 0.950 . S
C723 C720 1.387 . S
C724 C725 1.387 . S
C724 H728 0.950 . S
C724 C733 1.390 . S
C725 C724 1.387 . S
C725 C727 1.387 . S
H726 C733 0.950 . S
C727 C725 1.387 . S
C727 C729 1.390 . S
C727 H731 0.950 . S
H728 C724 0.950 . S
C729 C727 1.390 . S
C729 C730 1.387 . S
C729 H732 0.950 . S
C730 C729 1.387 . S
C730 C733 1.387 . S
H731 C727 0.950 . S
H732 C729 0.950 . S
C733 C724 1.390 . S
C733 H726 0.950 . S
C733 C730 1.387 . S
C734 C735 1.387 . S
C734 H738 0.950 . S
C734 C743 1.390 . S
C735 C734 1.387 . S
C735 C737 1.387 . S
H736 C743 0.950 . S
C737 C735 1.387 . S
C737 C739 1.390 . S
C737 H741 0.950 . S
H738 C734 0.950 . S
C739 C737 1.390 . S
C739 C740 1.387 . S
C739 H742 0.950 . S
C740 C739 1.387 . S
C740 C743 1.387 . S
H741 C737 0.950 . S
H742 C739 0.950 . S
C743 C734 1.390 . S
C743 H736 0.950 . S
C743 C740 1.387 . S
C744 C745 1.387 . S
C744 H748 0.950 . S
C744 C753 1.390 . S
C745 C744 1.387 . S
C745 C747 1.387 . S
H746 C753 0.950 . S
C747 C745 1.387 . S
C747 C749 1.390 . S
C747 H751 0.950 . S
H748 C744 0.950 . S
C749 C747 1.390 . S
C749 C750 1.387 . S
C749 H752 0.950 . S
C750 C749 1.387 . S
C750 C753 1.387 . S
H751 C747 0.950 . S
H752 C749 0.950 . S
C753 C744 1.390 . S
C753 H746 0.950 . S
C753 C750 1.387 . S
C754 C755 1.387 . S
C754 H758 0.950 . S
C754 C763 1.390 . S
C755 C754 1.387 . S
C755 C757 1.387 . S
H756 C763 0.950 . S
C757 C755 1.387 . S
C757 C759 1.390 . S
C757 H761 0.950 . S
H758 C754 0.950 . S
C759 C757 1.390 . S
C759 C760 1.387 . S
C759 H762 0.950 . S
C760 C759 1.387 . S
C760 C763 1.387 . S
H761 C757 0.950 . S
H762 C759 0.950 . S
C763 C754 1.390 . S
C763 H756 0.950 . S
C763 C760 1.387 . S
C764 C765 1.387 . S
C764 H768 0.950 . S
C764 C773 1.390 . S
C765 C764 1.387 . S
C765 C767 1.387 . S
H766 C773 0.950 . S
C767 C765 1.387 . S
C767 C769 1.390 . S
C767 H771 0.950 . S
H768 C764 0.950 . S
C769 C767 1.390 . S
C769 C770 1.387 . S
C769 H772 0.950 . S
C770 C769 1.387 . S
C770 C773 1.387 . S
H771 C767 0.950 . S
H772 C769 0.950 . S
C773 C764 1.390 . S
C773 H766 0.950 . S
C773 C770 1.387 . S
C774 C775 1.387 . S
C774 H778 0.950 . S
C774 C783 1.390 . S
C775 C774 1.387 . S
C775 C777 1.387 . S
H776 C783 0.950 . S
C777 C775 1.387 . S
C777 C779 1.390 . S
C777 H781 0.950 . S
H778 C774 0.950 . S
C779 C777 1.390 . S
C779 C780 1.387 . S
C779 H782 0.950 . S
C780 C779 1.387 . S
C780 C783 1.387 . S
H781 C777 0.950 . S
H782 C779 0.950 . S
C783 C774 1.390 . S
C783 H776 0.950 . S
C783 C780 1.387 . S
C784 C785 1.387 . S
C784 H788 0.950 . S
C784 C793 1.390 . S
C785 C784 1.387 . S
C785 C787 1.387 . S
H786 C793 0.950 . S
C787 C785 1.387 . S
C787 C789 1.390 . S
C787 H791 0.950 . S
H788 C784 0.950 . S
C789 C787 1.390 . S
C789 C790 1.387 . S
C789 H792 0.950 . S
C790 C789 1.387 . S
C790 C793 1.387 . S
H791 C787 0.950 . S
H792 C789 0.950 . S
C793 C784 1.390 . S
C793 H786 0.950 . S
C793 C790 1.387 . S
C794 C795 1.387 . S
C794 H798 0.950 . S
C794 C803 1.390 . S
C795 C794 1.387 . S
C795 C797 1.387 . S
H796 C803 0.950 . S
C797 C795 1.387 . S
C797 C799 1.390 . S
C797 H801 0.950 . S
H798 C794 0.950 . S
C799 C797 1.390 . S
C799 C800 1.387 . S
C799 H802 0.950 . S
C800 C799 1.387 . S
C800 C803 1.387 . S
H801 C797 0.950 . S
H802 C799 0.950 . S
C803 C794 1.390 . S
C803 H796 0.950 . S
C803 C800 1.387 . S
C804 C805 1.387 . S
C804 H808 0.950 . S
C804 C813 1.390 . S
C805 C804 1.387 . S
C805 C807 1.387 . S
H806 C813 0.950 . S
C807 C805 1.387 . S
C807 C809 1.390 . S
C807 H811 0.950 . S
H808 C804 0.950 . S
C809 C807 1.390 . S
C809 C810 1.387 . S
C809 H812 0.950 . S
C810 C809 1.387 . S
C810 C813 1.387 . S
H811 C807 0.950 . S
H812 C809 0.950 . S
C813 C804 1.390 . S
C813 H806 0.950 . S
C813 C810 1.387 . S
C814 C815 1.387 . S
C814 H818 0.950 . S
C814 C823 1.390 . S
C815 C814 1.387 . S
C815 C817 1.387 . S
H816 C823 0.950 . S
C817 C815 1.387 . S
C817 C819 1.390 . S
C817 H821 0.950 . S
H818 C814 0.950 . S
C819 C817 1.390 . S
C819 C820 1.387 . S
C819 H822 0.950 . S
C820 C819 1.387 . S
C820 C823 1.387 . S
H821 C817 0.950 . S
H822 C819 0.950 . S
C823 C814 1.390 . S
C823 H816 0.950 . S
C823 C820 1.387 . S
C824 C825 1.387 . S
C824 H828 0.950 . S
C824 C833 1.390 . S
C825 C824 1.387 . S
C825 C827 1.387 . S
H826 C833 0.950 . S
C827 C825 1.387 . S
C827 C829 1.390 . S
C827 H831 0.950 . S
H828 C824 0.950 . S
C829 C827 1.390 . S
C829 C830 1.387 . S
C829 H832 0.950 . S
C830 C829 1.387 . S
C830 C833 1.387 . S
H831 C827 0.950 . S
H832 C829 0.950 . S
C833 C824 1.390 . S
C833 H826 0.950 . S
C833 C830 1.387 . S
C834 C835 1.387 . S
C834 H838 0.950 . S
C834 C843 1.390 . S
C835 C834 1.387 . S
C835 C837 1.387 . S
H836 C843 0.950 . S
C837 C835 1.387 . S
C837 C839 1.390 . S
C837 H841 0.950 . S
H838 C834 0.950 . S
C839 C837 1.390 . S
C839 C840 1.387 . S
C839 H842 0.950 . S
C840 C839 1.387 . S
C840 C843 1.387 . S
H841 C837 0.950 . S
H842 C839 0.950 . S
C843 C834 1.390 . S
C843 H836 0.950 . S
C843 C840 1.387 . S
C844 C845 1.387 . S
C844 H848 0.950 . S
C844 C853 1.390 . S
C845 C844 1.387 . S
C845 C847 1.387 . S
H846 C853 0.950 . S
C847 C845 1.387 . S
C847 C849 1.390 . S
C847 H851 0.950 . S
H848 C844 0.950 . S
C849 C847 1.390 . S
C849 C850 1.387 . S
C849 H852 0.950 . S
C850 C849 1.387 . S
C850 C853 1.387 . S
H851 C847 0.950 . S
H852 C849 0.950 . S
C853 C844 1.390 . S
C853 H846 0.950 . S
C853 C850 1.387 . S
C854 C855 1.387 . S
C854 H858 0.950 . S
C854 C863 1.390 . S
C855 C854 1.387 . S
C855 C857 1.387 . S
H856 C863 0.950 . S
C857 C855 1.387 . S
C857 C859 1.390 . S
C857 H861 0.950 . S
H858 C854 0.950 . S
C859 C857 1.390 . S
C859 C860 1.387 . S
C859 H862 0.950 . S
C860 C859 1.387 . S
C860 C863 1.387 . S
H861 C857 0.950 . S
H862 C859 0.950 . S
C863 C854 1.390 . S
C863 H856 0.950 . S
C863 C860 1.387 . S
C864 C865 1.387 . S
C864 H868 0.950 . S
C864 C873 1.390 . S
C865 C864 1.387 . S
C865 C867 1.387 . S
H866 C873 0.950 . S
C867 C865 1.387 . S
C867 C869 1.390 . S
C867 H871 0.950 . S
H868 C864 0.950 . S
C869 C867 1.390 . S
C869 C870 1.387 . S
C869 H872 0.950 . S
C870 C869 1.387 . S
C870 C873 1.387 . S
H871 C867 0.950 . S
H872 C869 0.950 . S
C873 C864 1.390 . S
C873 H866 0.950 . S
C873 C870 1.387 . S
C874 C875 1.387 . S
C874 H878 0.950 . S
C874 C883 1.390 1_565 S
C875 C874 1.387 . S
C875 C877 1.387 . S
H876 C883 0.950 . S
C877 C875 1.387 . S
C877 C879 1.390 1_565 S
C877 H881 0.950 . S
H878 C874 0.950 . S
C879 C877 1.390 1_545 S
C879 C880 1.387 . S
C879 H882 0.950 . S
C880 C879 1.387 . S
C880 C883 1.387 . S
H881 C877 0.950 . S
H882 C879 0.950 . S
C883 C874 1.390 1_545 S
C883 H876 0.950 . S
C883 C880 1.387 . S
C884 C885 1.387 1_455 S
C884 H888 0.940 1_455 S
C884 C893 1.390 . S
C885 C884 1.387 1_655 S
C885 C887 1.387 . S
H886 C893 0.950 . S
C887 C885 1.387 . S
C887 C889 1.390 1_655 S
C887 H891 0.950 . S
H888 C884 0.940 1_655 S
C889 C887 1.390 1_455 S
C889 C890 1.387 . S
C889 H892 0.950 . S
C890 C889 1.387 . S
C890 C893 1.387 . S
H891 C887 0.950 . S
H892 C889 0.950 . S
C893 C884 1.390 . S
C893 H886 0.950 . S
C893 C890 1.387 . S
C894 C895 1.387 . S
C894 H898 0.950 . S
C894 C903 1.390 . S
C895 C894 1.387 . S
C895 C897 1.387 . S
H896 C903 0.950 . S
C897 C895 1.387 . S
C897 C899 1.390 . S
C897 H901 0.950 . S
H898 C894 0.950 . S
C899 C897 1.390 . S
C899 C900 1.387 . S
C899 H902 0.950 . S
C900 C899 1.387 . S
C900 C903 1.387 . S
H901 C897 0.950 . S
H902 C899 0.950 . S
C903 C894 1.390 . S
C903 H896 0.950 . S
C903 C900 1.387 . S
C904 C905 1.387 . S
C904 H908 0.950 . S
C904 C913 1.390 1_545 S
C905 C904 1.387 . S
C905 C907 1.387 . S
H906 C913 0.950 . S
C907 C905 1.387 . S
C907 C909 1.390 1_545 S
C907 H911 0.950 . S
H908 C904 0.950 . S
C909 C907 1.390 1_565 S
C909 C910 1.387 . S
C909 H912 0.950 . S
C910 C909 1.387 . S
C910 C913 1.387 . S
H911 C907 0.950 . S
H912 C909 0.950 . S
C913 C904 1.390 1_565 S
C913 H906 0.950 . S
C913 C910 1.387 . S
C914 C915 1.387 . S
C914 H918 0.950 . S
C914 C923 1.390 1_655 S
C915 C914 1.387 . S
C915 C917 1.387 . S
H916 C923 0.950 . S
C917 C915 1.387 . S
C917 C919 1.390 1_655 S
C917 H921 0.950 . S
H918 C914 0.950 . S
C919 C917 1.390 1_455 S
C919 C920 1.387 . S
C919 H922 0.950 . S
C920 C919 1.387 . S
C920 C923 1.387 . S
H921 C917 0.950 . S
H922 C919 0.950 . S
C923 C914 1.390 1_455 S
C923 H916 0.950 . S
C923 C920 1.387 . S
C924 C925 1.387 . S
C924 H928 0.950 . S
C924 C933 1.390 . S
C925 C924 1.387 . S
C925 C927 1.387 . S
H926 C933 0.950 . S
C927 C925 1.387 . S
C927 C929 1.390 . S
C927 H931 0.950 . S
H928 C924 0.950 . S
C929 C927 1.390 . S
C929 C930 1.387 . S
C929 H932 0.950 . S
C930 C929 1.387 . S
C930 C933 1.387 . S
H931 C927 0.950 . S
H932 C929 0.950 . S
C933 C924 1.390 . S
C933 H926 0.950 . S
C933 C930 1.387 . S
C934 C935 1.387 . S
C934 H938 0.950 . S
C934 C943 1.390 . S
C935 C934 1.387 . S
C935 C937 1.387 . S
H936 C943 0.950 . S
C937 C935 1.387 . S
C937 C939 1.390 . S
C937 H941 0.950 . S
H938 C934 0.950 . S
C939 C937 1.390 . S
C939 C940 1.387 . S
C939 H942 0.950 . S
C940 C939 1.387 . S
C940 C943 1.387 . S
H941 C937 0.950 . S
H942 C939 0.950 . S
C943 C934 1.390 . S
C943 H936 0.950 . S
C943 C940 1.387 . S
C944 C945 1.387 . S
C944 H948 0.950 . S
C944 C953 1.390 . S
C945 C944 1.387 . S
C945 C947 1.387 . S
H946 C953 0.950 . S
C947 C945 1.387 . S
C947 C949 1.390 . S
C947 H951 0.950 . S
H948 C944 0.950 . S
C949 C947 1.390 . S
C949 C950 1.387 . S
C949 H952 0.950 . S
C950 C949 1.387 . S
C950 C953 1.387 . S
H951 C947 0.950 . S
H952 C949 0.950 . S
C953 C944 1.390 . S
C953 H946 0.950 . S
C953 C950 1.387 . S
C954 C955 1.387 . S
C954 H958 0.950 . S
C954 C963 1.390 . S
C955 C954 1.387 . S
C955 C957 1.387 . S
H956 C963 0.950 . S
C957 C955 1.387 . S
C957 C959 1.390 . S
C957 H961 0.950 . S
H958 C954 0.950 . S
C959 C957 1.390 . S
C959 C960 1.387 . S
C959 H962 0.950 . S
C960 C959 1.387 . S
C960 C963 1.387 . S
H961 C957 0.950 . S
H962 C959 0.950 . S
C963 C954 1.390 . S
C963 H956 0.950 . S
C963 C960 1.387 . S
C964 C965 1.387 . S
C964 H968 0.950 . S
C964 C973 1.390 . S
C965 C964 1.387 . S
C965 C967 1.387 . S
H966 C973 0.950 . S
C967 C965 1.387 . S
C967 C969 1.390 . S
C967 H971 0.950 . S
H968 C964 0.950 . S
C969 C967 1.390 . S
C969 C970 1.387 . S
C969 H972 0.950 . S
C970 C969 1.387 . S
C970 C973 1.387 . S
H971 C967 0.950 . S
H972 C969 0.950 . S
C973 C964 1.390 . S
C973 H966 0.950 . S
C973 C970 1.387 . S
C974 C975 1.387 . S
C974 H978 0.950 . S
C974 C983 1.390 . S
C975 C974 1.387 . S
C975 C977 1.387 . S
H976 C983 0.950 . S
C977 C975 1.387 . S
C977 C979 1.390 . S
C977 H981 0.950 . S
H978 C974 0.950 . S
C979 C977 1.390 . S
C979 C980 1.387 . S
C979 H982 0.950 . S
C980 C979 1.387 . S
C980 C983 1.387 . S
H981 C977 0.950 . S
H982 C979 0.950 . S
C983 C974 1.390 . S
C983 H976 0.950 . S
C983 C980 1.387 . S
C984 C985 1.387 . S
C984 H988 0.950 . S
C984 C993 1.390 . S
C985 C984 1.387 . S
C985 C987 1.387 . S
H986 C993 0.950 . S
C987 C985 1.387 . S
C987 C989 1.390 . S
C987 H991 0.950 . S
H988 C984 0.950 . S
C989 C987 1.390 . S
C989 C990 1.387 . S
C989 H992 0.950 . S
C990 C989 1.387 . S
C990 C993 1.387 . S
H991 C987 0.950 . S
H992 C989 0.950 . S
C993 C984 1.390 . S
C993 H986 0.950 . S
C993 C990 1.387 . S
C994 C995 1.387 . S
C994 H998 0.950 . S
C994 C1003 1.390 . S
C995 C994 1.387 . S
C995 C997 1.387 . S
H996 C1003 0.950 . S
C997 C995 1.387 . S
C997 C999 1.390 . S
C997 H1001 0.950 . S
H998 C994 0.950 . S
C999 C997 1.390 . S
C999 C1000 1.387 . S
C999 H1002 0.950 . S
C1000 C999 1.387 . S
C1000 C1003 1.387 . S
H1001 C997 0.950 . S
H1002 C999 0.950 . S
C1003 C994 1.390 . S
C1003 H996 0.950 . S
C1003 C1000 1.387 . S
C1004 C1005 1.387 . S
C1004 H1008 0.950 . S
C1004 C1013 1.390 . S
C1005 C1004 1.387 . S
C1005 C1007 1.387 . S
H1006 C1013 0.950 . S
C1007 C1005 1.387 . S
C1007 C1009 1.390 . S
C1007 H1011 0.950 . S
H1008 C1004 0.950 . S
C1009 C1007 1.390 . S
C1009 C1010 1.387 . S
C1009 H1012 0.950 . S
C1010 C1009 1.387 . S
C1010 C1013 1.387 . S
H1011 C1007 0.950 . S
H1012 C1009 0.950 . S
C1013 C1004 1.390 . S
C1013 H1006 0.950 . S
C1013 C1010 1.387 . S
C1014 C1015 1.387 . S
C1014 H1018 0.950 . S
C1014 C1023 1.390 . S
C1015 C1014 1.387 . S
C1015 C1017 1.387 . S
H1016 C1023 0.950 . S
C1017 C1015 1.387 . S
C1017 C1019 1.390 . S
C1017 H1021 0.950 . S
H1018 C1014 0.950 . S
C1019 C1017 1.390 . S
C1019 C1020 1.387 . S
C1019 H1022 0.950 . S
C1020 C1019 1.387 . S
C1020 C1023 1.387 . S
H1021 C1017 0.950 . S
H1022 C1019 0.950 . S
C1023 C1014 1.390 . S
C1023 H1016 0.950 . S
C1023 C1020 1.387 . S
C1024 C1025 1.387 . S
C1024 H1028 0.950 . S
C1024 C1033 1.390 . S
C1025 C1024 1.387 . S
C1025 C1027 1.387 . S
H1026 C1033 0.950 . S
C1027 C1025 1.387 . S
C1027 C1029 1.390 . S
C1027 H1031 0.950 . S
H1028 C1024 0.950 . S
C1029 C1027 1.390 . S
C1029 C1030 1.387 . S
C1029 H1032 0.950 . S
C1030 C1029 1.387 . S
C1030 C1033 1.387 . S
H1031 C1027 0.950 . S
H1032 C1029 0.950 . S
C1033 C1024 1.390 . S
C1033 H1026 0.950 . S
C1033 C1030 1.387 . S
C1034 C1035 1.387 . S
C1034 H1038 0.950 . S
C1034 C1043 1.390 . S
C1035 C1034 1.387 . S
C1035 C1037 1.387 . S
H1036 C1043 0.950 . S
C1037 C1035 1.387 . S
C1037 C1039 1.390 . S
C1037 H1041 0.950 . S
H1038 C1034 0.950 . S
C1039 C1037 1.390 . S
C1039 C1040 1.387 . S
C1039 H1042 0.950 . S
C1040 C1039 1.387 . S
C1040 C1043 1.387 . S
H1041 C1037 0.950 . S
H1042 C1039 0.950 . S
C1043 C1034 1.390 . S
C1043 H1036 0.950 . S
C1043 C1040 1.387 . S
C1044 C1045 1.387 . S
C1044 H1048 0.950 . S
C1044 C1053 1.390 . S
C1045 C1044 1.387 . S
C1045 C1047 1.387 . S
H1046 C1053 0.950 . S
C1047 C1045 1.387 . S
C1047 C1049 1.390 . S
C1047 H1051 0.950 . S
H1048 C1044 0.950 . S
C1049 C1047 1.390 . S
C1049 C1050 1.387 . S
C1049 H1052 0.950 . S
C1050 C1049 1.387 . S
C1050 C1053 1.387 . S
H1051 C1047 0.950 . S
H1052 C1049 0.950 . S
C1053 C1044 1.390 . S
C1053 H1046 0.950 . S
C1053 C1050 1.387 . S
C1054 C1055 1.387 . S
C1054 H1058 0.950 . S
C1054 C1063 1.390 . S
C1055 C1054 1.387 . S
C1055 C1057 1.387 . S
H1056 C1063 0.950 . S
C1057 C1055 1.387 . S
C1057 C1059 1.390 . S
C1057 H1061 0.950 . S
H1058 C1054 0.950 . S
C1059 C1057 1.390 . S
C1059 C1060 1.387 . S
C1059 H1062 0.950 . S
C1060 C1059 1.387 . S
C1060 C1063 1.387 . S
H1061 C1057 0.950 . S
H1062 C1059 0.950 . S
C1063 C1054 1.390 . S
C1063 H1056 0.950 . S
C1063 C1060 1.387 . S
C1064 C1065 1.387 . S
C1064 H1068 0.950 . S
C1064 C1073 1.390 . S
C1065 C1064 1.387 . S
C1065 C1067 1.387 . S
H1066 C1073 0.950 . S
C1067 C1065 1.387 . S
C1067 C1069 1.390 . S
C1067 H1071 0.950 . S
H1068 C1064 0.950 . S
C1069 C1067 1.390 . S
C1069 C1070 1.387 . S
C1069 H1072 0.950 . S
C1070 C1069 1.387 . S
C1070 C1073 1.387 . S
H1071 C1067 0.950 . S
H1072 C1069 0.950 . S
C1073 C1064 1.390 . S
C1073 H1066 0.950 . S
C1073 C1070 1.387 . S
C1074 C1075 1.387 . S
C1074 H1078 0.950 . S
C1074 C1083 1.390 . S
C1075 C1074 1.387 . S
C1075 C1077 1.387 . S
H1076 C1083 0.950 . S
C1077 C1075 1.387 . S
C1077 C1079 1.390 . S
C1077 H1081 0.950 . S
H1078 C1074 0.950 . S
C1079 C1077 1.390 . S
C1079 C1080 1.387 . S
C1079 H1082 0.950 . S
C1080 C1079 1.387 . S
C1080 C1083 1.387 . S
H1081 C1077 0.950 . S
H1082 C1079 0.950 . S
C1083 C1074 1.390 . S
C1083 H1076 0.950 . S
C1083 C1080 1.387 . S
C1084 C1085 1.387 . S
C1084 H1088 0.950 . S
C1084 C1093 1.390 . S
C1085 C1084 1.387 . S
C1085 C1087 1.387 . S
H1086 C1093 0.950 . S
C1087 C1085 1.387 . S
C1087 C1089 1.390 . S
C1087 H1091 0.950 . S
H1088 C1084 0.950 . S
C1089 C1087 1.390 . S
C1089 C1090 1.387 . S
C1089 H1092 0.950 . S
C1090 C1089 1.387 . S
C1090 C1093 1.387 . S
H1091 C1087 0.950 . S
H1092 C1089 0.950 . S
C1093 C1084 1.390 . S
C1093 H1086 0.950 . S
C1093 C1090 1.387 . S
C1094 C1095 1.387 . S
C1094 H1098 0.950 . S
C1094 C1103 1.390 . S
C1095 C1094 1.387 . S
C1095 C1097 1.387 . S
H1096 C1103 0.950 . S
C1097 C1095 1.387 . S
C1097 C1099 1.390 . S
C1097 H1101 0.950 . S
H1098 C1094 0.950 . S
C1099 C1097 1.390 . S
C1099 C1100 1.387 . S
C1099 H1102 0.950 . S
C1100 C1099 1.387 . S
C1100 C1103 1.387 . S
H1101 C1097 0.950 . S
H1102 C1099 0.950 . S
C1103 C1094 1.390 . S
C1103 H1096 0.950 . S
C1103 C1100 1.387 . S
C1104 C1105 1.387 . S
C1104 H1108 0.950 . S
C1104 C1113 1.390 . S
C1105 C1104 1.387 . S
C1105 C1107 1.387 . S
H1106 C1113 0.950 . S
C1107 C1105 1.387 . S
C1107 C1109 1.390 . S
C1107 H1111 0.950 . S
H1108 C1104 0.950 . S
C1109 C1107 1.390 . S
C1109 C1110 1.387 . S
C1109 H1112 0.950 . S
C1110 C1109 1.387 . S
C1110 C1113 1.387 . S
H1111 C1107 0.950 . S
H1112 C1109 0.950 . S
C1113 C1104 1.390 . S
C1113 H1106 0.950 . S
C1113 C1110 1.387 . S
C1114 C1115 1.387 . S
C1114 H1118 0.950 . S
C1114 C1123 1.390 . S
C1115 C1114 1.387 . S
C1115 C1117 1.387 . S
H1116 C1123 0.950 . S
C1117 C1115 1.387 . S
C1117 C1119 1.390 . S
C1117 H1121 0.950 . S
H1118 C1114 0.950 . S
C1119 C1117 1.390 . S
C1119 C1120 1.387 . S
C1119 H1122 0.950 . S
C1120 C1119 1.387 . S
C1120 C1123 1.387 . S
H1121 C1117 0.950 . S
H1122 C1119 0.950 . S
C1123 C1114 1.390 . S
C1123 H1116 0.950 . S
C1123 C1120 1.387 . S
C1124 C1125 1.387 . S
C1124 H1128 0.950 . S
C1124 C1133 1.390 . S
C1125 C1124 1.387 . S
C1125 C1127 1.387 . S
H1126 C1133 0.950 . S
C1127 C1125 1.387 . S
C1127 C1129 1.390 . S
C1127 H1131 0.950 . S
H1128 C1124 0.950 . S
C1129 C1127 1.390 . S
C1129 C1130 1.387 . S
C1129 H1132 0.950 . S
C1130 C1129 1.387 . S
C1130 C1133 1.387 . S
H1131 C1127 0.950 . S
H1132 C1129 0.950 . S
C1133 C1124 1.390 . S
C1133 H1126 0.950 . S
C1133 C1130 1.387 . S
C1134 C1135 1.387 . S
C1134 H1138 0.950 . S
C1134 C1143 1.390 . S
C1135 C1134 1.387 . S
C1135 C1137 1.387 . S
H1136 C1143 0.950 . S
C1137 C1135 1.387 . S
C1137 C1139 1.390 . S
C1137 H1141 0.950 . S
H1138 C1134 0.950 . S
C1139 C1137 1.390 . S
C1139 C1140 1.387 . S
C1139 H1142 0.950 . S
C1140 C1139 1.387 . S
C1140 C1143 1.387 . S
H1141 C1137 0.950 . S
H1142 C1139 0.950 . S
C1143 C1134 1.390 . S
C1143 H1136 0.950 . S
C1143 C1140 1.387 . S
C1144 C1145 1.387 . S
C1144 H1148 0.950 . S
C1144 C1153 1.390 . S
C1145 C1144 1.387 . S
C1145 C1147 1.387 . S
H1146 C1153 0.950 . S
C1147 C1145 1.387 . S
C1147 C1149 1.390 . S
C1147 H1151 0.950 . S
H1148 C1144 0.950 . S
C1149 C1147 1.390 . S
C1149 C1150 1.387 . S
C1149 H1152 0.950 . S
C1150 C1149 1.387 . S
C1150 C1153 1.387 . S
H1151 C1147 0.950 . S
H1152 C1149 0.950 . S
C1153 C1144 1.390 . S
C1153 H1146 0.950 . S
C1153 C1150 1.387 . S
C1154 C1155 1.387 . S
C1154 H1158 0.950 . S
C1154 C1163 1.390 . S
C1155 C1154 1.387 . S
C1155 C1157 1.387 . S
H1156 C1163 0.950 . S
C1157 C1155 1.387 . S
C1157 C1159 1.390 . S
C1157 H1161 0.950 . S
H1158 C1154 0.950 . S
C1159 C1157 1.390 . S
C1159 C1160 1.387 . S
C1159 H1162 0.950 . S
C1160 C1159 1.387 . S
C1160 C1163 1.387 . S
H1161 C1157 0.950 . S
H1162 C1159 0.950 . S
C1163 C1154 1.390 . S
C1163 H1156 0.950 . S
C1163 C1160 1.387 . S
C1164 C1165 1.387 . S
C1164 H1168 0.950 . S
C1164 C1173 1.390 1_455 S
C1165 C1164 1.387 . S
C1165 C1167 1.387 . S
H1166 C1173 0.950 . S
C1167 C1165 1.387 . S
C1167 C1169 1.390 1_455 S
C1167 H1171 0.950 . S
H1168 C1164 0.950 . S
C1169 C1167 1.390 1_655 S
C1169 C1170 1.387 . S
C1169 H1172 0.950 . S
C1170 C1169 1.387 . S
C1170 C1173 1.387 . S
H1171 C1167 0.950 . S
H1172 C1169 0.950 . S
C1173 C1164 1.390 1_655 S
C1173 H1166 0.950 . S
C1173 C1170 1.387 . S
C1174 C1175 1.387 . S
C1174 H1178 0.950 . S
C1174 C1183 1.390 . S
C1175 C1174 1.387 . S
C1175 C1177 1.387 . S
H1176 C1183 0.950 . S
C1177 C1175 1.387 . S
C1177 C1179 1.390 . S
C1177 H1181 0.950 . S
H1178 C1174 0.950 . S
C1179 C1177 1.390 . S
C1179 C1180 1.387 . S
C1179 H1182 0.950 . S
C1180 C1179 1.387 . S
C1180 C1183 1.387 . S
H1181 C1177 0.950 . S
H1182 C1179 0.950 . S
C1183 C1174 1.390 . S
C1183 H1176 0.950 . S
C1183 C1180 1.387 . S
C1184 C1185 1.387 . S
C1184 H1188 0.950 . S
C1184 C1193 1.390 1_545 S
C1185 C1184 1.387 . S
C1185 C1187 1.387 . S
H1186 C1193 0.950 . S
C1187 C1185 1.387 . S
C1187 C1189 1.390 1_545 S
C1187 H1191 0.950 . S
H1188 C1184 0.950 . S
C1189 C1187 1.390 1_565 S
C1189 C1190 1.387 . S
C1189 H1192 0.950 . S
C1190 C1189 1.387 . S
C1190 C1193 1.387 . S
H1191 C1187 0.950 . S
H1192 C1189 0.950 . S
C1193 C1184 1.390 1_565 S
C1193 H1186 0.950 . S
C1193 C1190 1.387 . S
C1194 C1195 1.387 1_554 S
C1194 H1198 0.950 . S
C1194 C1203 1.390 1_545 S
C1195 C1194 1.387 1_556 S
C1195 C1197 1.387 . S
H1196 C1203 0.950 . S
C1197 C1195 1.387 . S
C1197 C1199 1.390 1_545 S
C1197 H1201 0.950 . S
H1198 C1194 0.950 . S
C1199 C1197 1.390 1_565 S
C1199 C1200 1.387 1_556 S
C1199 H1202 0.950 . S
C1200 C1199 1.387 1_554 S
C1200 C1203 1.387 . S
H1201 C1197 0.950 . S
H1202 C1199 0.950 . S
C1203 C1194 1.390 1_565 S
C1203 H1196 0.950 . S
C1203 C1200 1.387 . S
C1204 C1205 1.387 . S
C1204 H1208 0.950 . S
C1204 C1213 1.390 1_655 S
C1205 C1204 1.387 . S
C1205 C1207 1.387 . S
H1206 C1213 0.950 . S
C1207 C1205 1.387 . S
C1207 C1209 1.390 1_656 S
C1207 H1211 0.950 1_556 S
H1208 C1204 0.950 . S
C1209 C1207 1.390 1_454 S
C1209 C1210 1.387 . S
C1209 H1212 0.950 . S
C1210 C1209 1.387 . S
C1210 C1213 1.387 1_554 S
H1211 C1207 0.950 1_554 S
H1212 C1209 0.950 . S
C1213 C1204 1.390 1_455 S
C1213 H1206 0.950 . S
C1213 C1210 1.387 1_556 S
C1214 C1215 1.387 . S
C1214 H1218 0.950 . S
C1214 C1223 1.390 . S
C1215 C1214 1.387 . S
C1215 C1217 1.387 1_556 S
H1216 C1223 0.950 . S
C1217 C1215 1.387 1_554 S
C1217 C1219 1.390 . S
C1217 H1221 0.950 . S
H1218 C1214 0.950 . S
C1219 C1217 1.390 . S
C1219 C1220 1.387 . S
C1219 H1222 0.950 . S
C1220 C1219 1.387 . S
C1220 C1223 1.387 1_554 S
H1221 C1217 0.950 . S
H1222 C1219 0.950 . S
C1223 C1214 1.390 . S
C1223 H1216 0.950 . S
C1223 C1220 1.387 1_556 S
C505 C11 1.255 . S
C510 C102 1.335 . S
C515 C19 1.295 . S
C520 C116 1.368 . S
C525 C88 1.334 . S
C530 C33 1.248 . S
C535 C158 1.335 . S
C540 C47 1.253 . S
C545 C61 1.296 . S
C550 C130 1.368 . S
C555 C81 1.259 . S
C560 C144 1.335 . S
C565 C18 1.217 . S
C570 C89 1.145 . S
C575 C32 1.310 . S
C580 C103 1.241 . S
C585 C117 1.151 . S
C590 C12 1.213 . S
C595 C131 1.147 . S
C600 C82 1.214 . S
C605 C46 1.310 . S
C610 C145 1.242 . S
C615 C159 1.145 . S
C620 C60 1.216 . S
C625 C270 1.334 . S
C630 C179 1.259 . S
C635 C187 1.294 . S
C640 C284 1.367 . S
C645 C201 1.248 . S
C650 C256 1.335 . S
C655 C326 1.334 . S
C660 C215 1.248 . S
C665 C229 1.294 . S
C670 C298 1.368 . S
C675 C312 1.334 . S
C680 C249 1.258 . S
C685 C186 1.217 . S
C690 C257 1.149 . S
C695 C271 1.241 . S
C700 C200 1.310 . S
C705 C180 1.213 . S
C710 C285 1.151 . S
C715 C299 1.146 . S
C720 C250 1.214 . S
C725 C313 1.241 . S
C730 C214 1.311 . S
C735 C327 1.149 . S
C740 C228 1.217 . S
C745 C438 1.335 . S
C750 C347 1.255 . S
C755 C452 1.367 . S
C760 C355 1.295 . S
C765 C424 1.335 . S
C770 C369 1.253 . S
C775 C383 1.248 . S
C780 C494 1.334 . S
C785 C397 1.295 . S
C790 C466 1.367 . S
C795 C480 1.335 . S
C800 C417 1.255 . S
C805 C425 1.148 . S
C810 C354 1.218 . S
C815 C368 1.310 . S
C820 C439 1.242 . S
C825 C348 1.214 . S
C830 C453 1.146 . S
C835 C467 1.151 . S
C840 C418 1.215 . S
C845 C481 1.244 . S
C850 C382 1.310 . S
C855 C495 1.149 . S
C860 C396 1.217 . S
C865 C54 1.601 . S
C870 C4 1.492 . S
C875 C68 1.589 . S
C880 C26 1.589 . S
C885 C40 1.599 . S
C890 C74 1.489 . S
C895 C138 1.505 . S
C900 C96 1.498 . S
C905 C152 1.574 . S
C910 C110 1.574 . S
C915 C166 1.498 . S
C920 C124 1.505 . S
C925 C222 1.599 . S
C930 C172 1.488 . S
C935 C236 1.586 . S
C940 C194 1.586 . S
C945 C208 1.602 . S
C950 C242 1.492 . S
C955 C306 1.502 . S
C960 C264 1.496 . S
C965 C320 1.570 . S
C970 C278 1.570 . S
C975 C334 1.496 . S
C980 C292 1.502 . S
C985 C390 1.601 . S
C990 C340 1.492 . S
C995 C362 1.586 . S
C1000 C404 1.586 . S
C1005 C410 1.488 . S
C1010 C376 1.598 . S
C1015 C432 1.496 . S
C1020 C474 1.503 . S
C1025 C446 1.570 . S
C1030 C488 1.570 . S
C1035 C460 1.502 . S
C1040 C502 1.497 . S
C1045 C5 1.288 . S
C1050 C263 1.424 . S
C1055 C277 1.427 . S
C1060 C25 1.430 . S
C1065 C291 1.453 . S
C1070 C39 1.452 . S
C1075 C473 1.452 . S
C1080 C53 1.452 . S
C1085 C487 1.429 . S
C1090 C67 1.432 . S
C1095 C501 1.420 . S
C1100 C75 1.292 . S
C1105 C95 1.424 . S
C1110 C341 1.288 . S
C1115 C361 1.430 . S
C1120 C109 1.427 . S
C1125 C375 1.451 . S
C1130 C123 1.452 . S
C1135 C137 1.451 . S
C1140 C221 1.451 . S
C1145 C151 1.428 . S
C1150 C235 1.431 . S
C1155 C165 1.423 . S
C1160 C243 1.288 . S
C1165 C431 1.422 . S
C1170 C173 1.289 . S
C1175 C445 1.429 . S
C1180 C193 1.431 . S
C1185 C207 1.453 . S
C1190 C459 1.453 . S
C1195 C305 1.454 . S
C1200 C389 1.453 . S
C1205 C319 1.427 . S
C1210 C403 1.430 . S
C1215 C333 1.421 . S
C1220 C411 1.292 . S
