# Generated by pormake.
# Topology mok, (4)-cn, num edge types: 1
# Building blocks:
#     Node 0, Type 0, BuildingBlock: AZAVOO_clean_sbu_0, # of connection points: 4
#     Node 1, Type 0, BuildingBlock: AZAVOO_clean_sbu_0, # of connection points: 4
#     Node 2, Type 0, BuildingBlock: AZAVOO_clean_sbu_0, # of connection points: 4
#     Node 3, Type 0, BuildingBlock: AZAVOO_clean_sbu_0, # of connection points: 4
#     Node 4, Type 0, BuildingBlock: AZAVOO_clean_sbu_0, # of connection points: 4
#     Node 5, Type 0, BuildingBlock: AZAVOO_clean_sbu_0, # of connection points: 4
#     Node 6, Type 0, BuildingBlock: AZAVOO_clean_sbu_0, # of connection points: 4
#     Node 7, Type 0, BuildingBlock: AZAVOO_clean_sbu_0, # of connection points: 4
#     Edge 8, Type (0, 0), BuildingBlock: TEMPAE_clean_linker_10, # of connection points: 2
#     Edge 9, Type (0, 0), BuildingBlock: TEMPAE_clean_linker_10, # of connection points: 2
#     Edge 10, Type (0, 0), BuildingBlock: TEMPAE_clean_linker_10, # of connection points: 2
#     Edge 11, Type (0, 0), BuildingBlock: TEMPAE_clean_linker_10, # of connection points: 2
#     Edge 12, Type (0, 0), BuildingBlock: TEMPAE_clean_linker_10, # of connection points: 2
#     Edge 13, Type (0, 0), BuildingBlock: TEMPAE_clean_linker_10, # of connection points: 2
#     Edge 14, Type (0, 0), BuildingBlock: TEMPAE_clean_linker_10, # of connection points: 2
#     Edge 15, Type (0, 0), BuildingBlock: TEMPAE_clean_linker_10, # of connection points: 2
#     Edge 16, Type (0, 0), BuildingBlock: TEMPAE_clean_linker_10, # of connection points: 2
#     Edge 17, Type (0, 0), BuildingBlock: TEMPAE_clean_linker_10, # of connection points: 2
#     Edge 18, Type (0, 0), BuildingBlock: TEMPAE_clean_linker_10, # of connection points: 2
#     Edge 19, Type (0, 0), BuildingBlock: TEMPAE_clean_linker_10, # of connection points: 2
#     Edge 20, Type (0, 0), BuildingBlock: TEMPAE_clean_linker_10, # of connection points: 2
#     Edge 21, Type (0, 0), BuildingBlock: TEMPAE_clean_linker_10, # of connection points: 2
#     Edge 22, Type (0, 0), BuildingBlock: TEMPAE_clean_linker_10, # of connection points: 2
#     Edge 23, Type (0, 0), BuildingBlock: TEMPAE_clean_linker_10, # of connection points: 2
# Relax obj value: 0.033
# Max RMSD: 0.042
# Mean RMSD: 0.042
data_MOF--net-mok--node1-AZAVOO_clean_sbu_0--edge1-TEMPAE_clean_linker_10
_symmetry_space_group_name_H-M    P1
_symmetry_Int_Tables_number       1
_symmetry_cell_setting            triclinic
loop_
_symmetry_equiv_pos_as_xyz
'x, y, z'
_cell_length_a     43.695525
_cell_length_b     21.786348
_cell_length_c     27.346146
_cell_angle_alpha  90.084561
_cell_angle_beta   89.999019
_cell_angle_gamma 90.01237
loop_
_atom_site_label
_atom_site_type_symbol
_atom_site_fract_x
_atom_site_fract_y
_atom_site_fract_z
_atom_type_partial_charge
Mg0 Mg 0.57829 0.33028 0.02159 0.0
O1 O 0.62852 0.29886 0.02567 0.0
O2 O 0.63337 0.24359 0.094 0.0
Mg3 Mg 0.58725 0.23958 0.13289 0.0
C4 C 0.64462 0.2668 0.05511 0.0
C5 C 0.56747 0.40892 0.93464 0.0
O6 O 0.54922 0.42932 0.96925 0.0
O7 O 0.5635 0.23456 -0.00248 0.0
O8 O 0.56884 0.18366 0.06805 0.0
O9 O 0.58936 0.41315 0.06555 0.0
O10 O 0.57365 0.32513 0.097 0.0
C11 C 0.56167 0.18542 0.02275 0.0
C12 C 0.58292 0.38057 0.10374 0.0
O13 O 0.58445 0.36303 0.94377 0.0
Mg14 Mg 0.42512 0.66553 0.0021 0.0
O15 O 0.37571 0.69861 0.01623 0.0
O16 O 0.3756 0.74186 0.09049 0.0
Mg17 Mg 0.4235 0.73722 0.12309 0.0
C18 C 0.36187 0.72604 0.05122 0.0
C19 C 0.42981 0.59801 0.90899 0.0
O20 O 0.44767 0.57087 0.94103 0.0
O21 O 0.44038 0.76371 0.98657 0.0
O22 O 0.43966 0.80217 0.06245 0.0
O23 O 0.41433 0.57665 0.03806 0.0
O24 O 0.43291 0.65767 0.07668 0.0
C25 C 0.44446 0.80793 0.01658 0.0
C26 C 0.42247 0.60249 0.07866 0.0
O27 O 0.4152 0.64563 0.92227 0.0
Mg28 Mg 0.56407 0.65847 0.50357 0.0
O29 O 0.61427 0.68799 0.4919 0.0
O30 O 0.61679 0.72972 0.41733 0.0
Mg31 Mg 0.56946 0.72818 0.3824 0.0
C32 C 0.62938 0.71361 0.45744 0.0
C33 C 0.55672 0.594 0.59808 0.0
O34 O 0.53853 0.56686 0.56645 0.0
O35 O 0.55013 0.75778 0.5176 0.0
O36 O 0.55328 0.7954 0.44172 0.0
O37 O 0.57451 0.56855 0.46897 0.0
O38 O 0.55771 0.64978 0.42865 0.0
C39 C 0.54756 0.80199 0.48727 0.0
C40 C 0.5677 0.5942 0.42774 0.0
O41 O 0.57231 0.63991 0.58394 0.0
Mg42 Mg 0.42074 0.33449 0.48362 0.0
O43 O 0.37099 0.30158 0.47433 0.0
O44 O 0.36862 0.24933 0.40398 0.0
Mg45 Mg 0.41599 0.2482 0.36912 0.0
C46 C 0.35604 0.27056 0.4426 0.0
C47 C 0.4275 0.41157 0.57237 0.0
O48 O 0.44627 0.4338 0.53927 0.0
O49 O 0.43555 0.23818 0.50625 0.0
O50 O 0.43236 0.19016 0.43399 0.0
O51 O 0.40996 0.41854 0.44135 0.0
O52 O 0.42759 0.33264 0.40849 0.0
C53 C 0.43818 0.19012 0.4798 0.0
C54 C 0.41758 0.38771 0.40274 0.0
O55 O 0.41173 0.36441 0.56163 0.0
Mg56 Mg 0.06611 0.83158 0.03617 0.0
O57 O 0.1171 0.8065 0.04375 0.0
O58 O 0.12196 0.74922 0.11106 0.0
Mg59 Mg 0.07495 0.73613 0.14548 0.0
C60 C 0.13346 0.7757 0.07371 0.0
C61 C 0.08915 0.91899 0.95565 0.0
O62 O 0.10147 0.94336 -0.00505 0.0
O63 O 0.05578 0.73511 0.00772 0.0
O64 O 0.06136 0.68169 0.07699 0.0
O65 O 0.0732 0.91286 0.08411 0.0
O66 O 0.05954 0.82144 0.11136 0.0
C67 C 0.05555 0.6845 0.03124 0.0
C68 C 0.06741 0.87713 0.12067 0.0
O69 O 0.07421 0.86913 0.95966 0.0
Mg70 Mg 0.93713 0.14783 -0.00495 0.0
O71 O 0.88706 0.18049 0.00414 0.0
O72 O 0.88425 0.22299 0.0786 0.0
Mg73 Mg 0.93071 0.21898 0.11587 0.0
C74 C 0.87197 0.20753 0.03802 0.0
C75 C 0.94687 0.08191 0.90178 0.0
O76 O 0.9642 0.05559 0.93497 0.0
O77 O 0.9525 0.2465 0.98111 0.0
O78 O 0.94833 0.28453 0.05681 0.0
O79 O 0.92485 0.05869 0.02958 0.0
O80 O 0.94161 0.13967 0.07028 0.0
C81 C 0.95485 0.29077 0.01154 0.0
C82 C 0.93089 0.08465 0.07105 0.0
O83 O 0.93082 0.128 0.91432 0.0
Mg84 Mg 0.06716 0.14552 0.52434 0.0
O85 O 0.11575 0.17475 0.50188 0.0
O86 O 0.11367 0.21043 0.42536 0.0
Mg87 Mg 0.06414 0.20553 0.39946 0.0
C88 C 0.12863 0.19761 0.46411 0.0
C89 C 0.06349 0.14141 0.63733 0.0
O90 O 0.0357 0.16031 0.62681 0.0
O91 O 0.05364 0.2459 0.53565 0.0
O92 O 0.05217 0.27721 0.45775 0.0
O93 O 0.07537 0.05303 0.49175 0.0
O94 O 0.0554 0.1315 0.45174 0.0
C95 C 0.04931 0.28751 0.50354 0.0
C96 C 0.06541 0.07598 0.45112 0.0
O97 O 0.08264 0.13444 0.60286 0.0
Mg98 Mg 0.92464 0.82083 0.4757 0.0
O99 O 0.87428 0.78988 0.47197 0.0
O100 O 0.86915 0.73468 0.40348 0.0
Mg101 Mg 0.91523 0.72983 0.36448 0.0
C102 C 0.85801 0.75816 0.44242 0.0
C103 C 0.93865 0.89398 0.56504 0.0
O104 O 0.95853 0.91114 0.53167 0.0
O105 O 0.93937 0.72508 0.49936 0.0
O106 O 0.93374 0.67363 0.42909 0.0
O107 O 0.91309 0.90365 0.43225 0.0
O108 O 0.92879 0.81579 0.40016 0.0
C109 C 0.94107 0.6757 0.47433 0.0
C110 C 0.91908 0.87099 0.39384 0.0
O111 O 0.91922 0.85284 0.55401 0.0
C112 C 0.82439 0.2632 0.06189 0.0
C113 C 0.83893 0.22035 0.03137 0.0
C114 C 0.7927 0.27234 0.05977 0.0
C115 C 0.77495 0.23745 0.02658 0.0
C116 C 0.78956 0.19598 -0.00584 0.0
C117 C 0.82147 0.18809 -0.00322 0.0
C118 C 0.77808 0.31754 0.09463 0.0
C119 C 0.77135 0.15789 0.95836 0.0
C120 C 0.69379 0.21152 0.07046 0.0
C121 C 0.67751 0.25639 0.04447 0.0
C122 C 0.72525 0.20306 0.06318 0.0
C123 C 0.74098 0.24071 0.02935 0.0
C124 C 0.72458 0.28471 0.00175 0.0
C125 C 0.69297 0.29189 0.0095 0.0
C126 C 0.74186 0.15523 0.09307 0.0
C127 C 0.74061 0.32585 0.96552 0.0
H128 H 0.83774 0.28901 0.08825 0.0
H129 H 0.83254 0.15496 0.97305 0.0
H130 H 0.76297 0.3496 0.07441 0.0
H131 H 0.7636 0.29251 0.12131 0.0
H132 H 0.79532 0.34477 0.11519 0.0
H133 H 0.7863 0.13289 0.93218 0.0
H134 H 0.75739 0.12383 0.97863 0.0
H135 H 0.75531 0.18731 0.93745 0.0
H136 H 0.68202 0.18328 0.09709 0.0
H137 H 0.68057 0.32656 0.98916 0.0
H138 H 0.75805 0.17809 0.11851 0.0
H139 H 0.75549 0.12483 0.06886 0.0
H140 H 0.72593 0.12643 0.11486 0.0
H141 H 0.75604 0.3578 0.98534 0.0
H142 H 0.72423 0.35335 0.94353 0.0
H143 H 0.75502 0.29827 0.94035 0.0
C144 C 0.18372 0.72539 0.09064 0.0
C145 C 0.16681 0.76957 0.06492 0.0
C146 C 0.21536 0.71933 0.08382 0.0
C147 C 0.23063 0.75879 0.05079 0.0
C148 C 0.21372 0.80293 0.02412 0.0
C149 C 0.18194 0.80762 0.03132 0.0
C150 C 0.23252 0.67132 0.11271 0.0
C151 C 0.2293 0.84614 0.98891 0.0
C152 C 0.31471 0.78007 0.07981 0.0
C153 C 0.32861 0.73862 0.04735 0.0
C154 C 0.28296 0.78917 0.07967 0.0
C155 C 0.26454 0.75561 0.04655 0.0
C156 C 0.27845 0.71538 0.01242 0.0
C157 C 0.31039 0.70757 0.01306 0.0
C158 C 0.26905 0.83298 0.11632 0.0
C159 C 0.25951 0.67857 0.97672 0.0
H160 H 0.17224 0.69532 0.1163 0.0
H161 H 0.16907 0.84189 0.0113 0.0
H162 H 0.24579 0.64132 0.08766 0.0
H163 H 0.24912 0.69393 0.1376 0.0
H164 H 0.21702 0.64211 0.13493 0.0
H165 H 0.21271 0.87569 0.96911 0.0
H166 H 0.24551 0.87606 0.00913 0.0
H167 H 0.24285 0.8198 0.96175 0.0
H168 H 0.32862 0.80489 0.10605 0.0
H169 H 0.32093 0.6755 0.98783 0.0
H170 H 0.25513 0.80692 0.14314 0.0
H171 H 0.25351 0.86571 0.09768 0.0
H172 H 0.28669 0.85949 0.13659 0.0
H173 H 0.24546 0.64464 -0.00301 0.0
H174 H 0.27391 0.65356 0.94978 0.0
H175 H 0.2435 0.70898 0.95666 0.0
C176 C 0.80846 0.70412 0.42715 0.0
C177 C 0.82496 0.74932 0.45254 0.0
C178 C 0.77679 0.69762 0.43345 0.0
C179 C 0.76108 0.73767 0.46558 0.0
C180 C 0.77768 0.78208 0.49261 0.0
C181 C 0.80949 0.78719 0.48595 0.0
C182 C 0.75999 0.64921 0.40433 0.0
C183 C 0.76169 0.82582 0.52699 0.0
C184 C 0.67813 0.76342 0.43106 0.0
C185 C 0.66276 0.72361 0.46304 0.0
C186 C 0.71 0.77026 0.433 0.0
C187 C 0.72706 0.73607 0.46748 0.0
C188 C 0.71167 0.69733 0.50099 0.0
C189 C 0.67964 0.69177 0.49854 0.0
C190 C 0.72549 0.81257 0.39693 0.0
C191 C 0.72913 0.65992 0.5381 0.0
H192 H 0.82025 0.67412 0.40171 0.0
H193 H 0.82204 0.82222 0.50574 0.0
H194 H 0.74562 0.62073 0.42887 0.0
H195 H 0.74447 0.6716 0.37766 0.0
H196 H 0.77584 0.61857 0.38398 0.0
H197 H 0.7781 0.8539 0.54853 0.0
H198 H 0.74679 0.85719 0.50571 0.0
H199 H 0.74674 0.80021 0.55263 0.0
H200 H 0.66528 0.78879 0.40388 0.0
H201 H 0.66796 0.6609 0.52337 0.0
H202 H 0.73993 0.78531 0.37156 0.0
H203 H 0.74078 0.8451 0.4164 0.0
H204 H 0.70879 0.83934 0.37497 0.0
H205 H 0.74314 0.62485 0.51896 0.0
H206 H 0.71369 0.63621 0.56425 0.0
H207 H 0.74509 0.68964 0.55897 0.0
C208 C 0.18088 0.18177 0.49997 0.0
C209 C 0.162 0.20971 0.46497 0.0
C210 C 0.21268 0.19132 0.49975 0.0
C211 C 0.22581 0.2304 0.46413 0.0
C212 C 0.20678 0.25989 0.42949 0.0
C213 C 0.17517 0.24887 0.43012 0.0
C214 C 0.23231 0.15845 0.53684 0.0
C215 C 0.21987 0.30246 0.39127 0.0
C216 C 0.30576 0.29557 0.48218 0.0
C217 C 0.32302 0.2587 0.45038 0.0
C218 C 0.27412 0.28631 0.48771 0.0
C219 C 0.25956 0.23848 0.4614 0.0
C220 C 0.27704 0.19997 0.43045 0.0
C221 C 0.30848 0.21083 0.42503 0.0
C222 C 0.25614 0.32877 0.52059 0.0
C223 C 0.26244 0.14791 0.40232 0.0
H224 H 0.1709 0.15131 0.52692 0.0
H225 H 0.16074 0.27113 0.40322 0.0
H226 H 0.24833 0.12695 0.5178 0.0
H227 H 0.24639 0.19197 0.55753 0.0
H228 H 0.21847 0.13137 0.5632 0.0
H229 H 0.20179 0.32438 0.3687 0.0
H230 H 0.23365 0.33902 0.40901 0.0
H231 H 0.2354 0.27654 0.36668 0.0
H232 H 0.31683 0.33272 0.50179 0.0
H233 H 0.32171 0.18168 0.40081 0.0
H234 H 0.24314 0.30187 0.54803 0.0
H235 H 0.23921 0.35472 0.49855 0.0
H236 H 0.27105 0.36206 0.54009 0.0
H237 H 0.24962 0.11751 0.42758 0.0
H238 H 0.27955 0.11986 0.3822 0.0
H239 H 0.24576 0.1665 0.37559 0.0
C240 C 0.60352 0.45775 0.16259 0.0
C241 C 0.58482 0.40685 0.15327 0.0
C242 C 0.60328 0.4865 0.20851 0.0
C243 C 0.58323 0.46474 0.24527 0.0
C244 C 0.56477 0.41252 0.23632 0.0
C245 C 0.56612 0.38366 0.19054 0.0
C246 C 0.62377 0.54126 0.21719 0.0
C247 C 0.5426 0.38884 0.27426 0.0
C248 C 0.59318 0.51316 0.37766 0.0
C249 C 0.57239 0.56193 0.38099 0.0
C250 C 0.59751 0.48184 0.33333 0.0
C251 C 0.58004 0.49889 0.29194 0.0
C252 C 0.55894 0.54802 0.29524 0.0
C253 C 0.55563 0.57944 0.33965 0.0
C254 C 0.6207 0.43057 0.33075 0.0
C255 C 0.53942 0.56663 0.25213 0.0
H256 H 0.61811 0.47547 0.13382 0.0
H257 H 0.55145 0.34456 0.18322 0.0
H258 H 0.60963 0.5832 0.22156 0.0
H259 H 0.63697 0.5352 0.25152 0.0
H260 H 0.64008 0.54871 0.18659 0.0
H261 H 0.53072 0.34637 0.26215 0.0
H262 H 0.55476 0.37914 0.30899 0.0
H263 H 0.52512 0.42444 0.2822 0.0
H264 H 0.60631 0.4999 0.40957 0.0
H265 H 0.53936 0.61686 0.34233 0.0
H266 H 0.63741 0.43977 0.3011 0.0
H267 H 0.60909 0.3867 0.32181 0.0
H268 H 0.63337 0.4248 0.36566 0.0
H269 H 0.52453 0.60656 0.26059 0.0
H270 H 0.52476 0.52754 0.24075 0.0
H271 H 0.55413 0.57858 0.22049 0.0
C272 C 0.43544 0.59147 0.16681 0.0
C273 C 0.41924 0.57054 0.12583 0.0
C274 C 0.43384 0.56015 0.21143 0.0
C275 C 0.41514 0.50734 0.21527 0.0
C276 C 0.39822 0.4867 0.1743 0.0
C277 C 0.4007 0.51829 0.12982 0.0
C278 C 0.45249 0.58306 0.25424 0.0
C279 C 0.37768 0.43109 0.17741 0.0
C280 C 0.43482 0.39554 0.3164 0.0
C281 C 0.41507 0.41487 0.3537 0.0
C282 C 0.43478 0.4247 0.27077 0.0
C283 C 0.41391 0.47315 0.26205 0.0
C284 C 0.39303 0.49107 0.29898 0.0
C285 C 0.39417 0.46222 0.34474 0.0
C286 C 0.45795 0.40544 0.23271 0.0
C287 C 0.36997 0.54158 0.29052 0.0
H288 H 0.44997 0.63162 0.16375 0.0
H289 H 0.38803 0.5022 0.09822 0.0
H290 H 0.43713 0.59562 0.28494 0.0
H291 H 0.46785 0.54614 0.26757 0.0
H292 H 0.46659 0.62376 0.24471 0.0
H293 H 0.36503 0.42265 0.14281 0.0
H294 H 0.3915 0.38979 0.18603 0.0
H295 H 0.36088 0.43702 0.20748 0.0
H296 H 0.45119 0.35924 0.32354 0.0
H297 H 0.37875 0.47682 0.37357 0.0
H298 H 0.47427 0.4436 0.22616 0.0
H299 H 0.44644 0.39542 0.19744 0.0
H300 H 0.47112 0.36425 0.24403 0.0
H301 H 0.38202 0.58594 0.28547 0.0
H302 H 0.35369 0.54638 0.3215 0.0
H303 H 0.35678 0.53246 0.25661 0.0
C304 C 0.40915 0.60184 0.82339 0.0
C305 C 0.42685 0.5724 0.85912 0.0
C306 C 0.40672 0.5774 0.77596 0.0
C307 C 0.4225 0.52257 0.76411 0.0
C308 C 0.43996 0.49224 0.80033 0.0
C309 C 0.44185 0.51745 0.84732 0.0
C310 C 0.38744 0.61031 0.73845 0.0
C311 C 0.45639 0.43255 0.79022 0.0
C312 C 0.40251 0.42356 0.65434 0.0
C313 C 0.42504 0.44148 0.62075 0.0
C314 C 0.40055 0.45144 0.70057 0.0
C315 C 0.42178 0.49781 0.7135 0.0
C316 C 0.44411 0.51697 0.67927 0.0
C317 C 0.44547 0.48854 0.63338 0.0
C318 C 0.37623 0.43032 0.73595 0.0
C319 C 0.46765 0.56522 0.6918 0.0
H320 H 0.39732 0.6441 0.83238 0.0
H321 H 0.45528 0.49387 0.87483 0.0
H322 H 0.4021 0.62606 0.7078 0.0
H323 H 0.37019 0.57839 0.72288 0.0
H324 H 0.3754 0.65071 0.75411 0.0
H325 H 0.47578 0.42548 0.81589 0.0
H326 H 0.44011 0.39398 0.79516 0.0
H327 H 0.4652 0.43032 0.75228 0.0
H328 H 0.38651 0.38753 0.64465 0.0
H329 H 0.46304 0.50254 0.60771 0.0
H330 H 0.36396 0.47035 0.75165 0.0
H331 H 0.38713 0.40541 0.76671 0.0
H332 H 0.35929 0.39931 0.71837 0.0
H333 H 0.45698 0.60498 0.71055 0.0
H334 H 0.48002 0.582 0.65892 0.0
H335 H 0.48463 0.54507 0.71715 0.0
C336 C 0.54645 0.48512 0.87566 0.0
C337 C 0.56785 0.43907 0.88628 0.0
C338 C 0.54587 0.51357 0.82979 0.0
C339 C 0.56717 0.49543 0.79357 0.0
C340 C 0.58929 0.44995 0.80437 0.0
C341 C 0.58931 0.4221 0.85063 0.0
C342 C 0.52141 0.56075 0.81955 0.0
C343 C 0.61251 0.42983 0.76676 0.0
C344 C 0.54424 0.51531 0.66094 0.0
C345 C 0.55949 0.56966 0.64831 0.0
C346 C 0.54665 0.49062 0.708 0.0
C347 C 0.56486 0.52089 0.74338 0.0
C348 C 0.58047 0.57564 0.73089 0.0
C349 C 0.57757 0.59948 0.68342 0.0
C350 C 0.53017 0.4313 0.71904 0.0
C351 C 0.60022 0.60888 0.76767 0.0
H352 H 0.52968 0.49833 0.90293 0.0
H353 H 0.60603 0.3868 0.85873 0.0
H354 H 0.51032 0.57753 0.8536 0.0
H355 H 0.53085 0.6006 0.79938 0.0
H356 H 0.50357 0.53947 0.79633 0.0
H357 H 0.62987 0.39813 0.7823 0.0
H358 H 0.6007 0.40615 0.73619 0.0
H359 H 0.62443 0.47034 0.75121 0.0
H360 H 0.5304 0.49162 0.63396 0.0
H361 H 0.58949 0.6414 0.67383 0.0
H362 H 0.52149 0.43026 0.7571 0.0
H363 H 0.54638 0.39251 0.71465 0.0
H364 H 0.51068 0.42364 0.69364 0.0
H365 H 0.58614 0.6233 0.79943 0.0
H366 H 0.6114 0.65014 0.75187 0.0
H367 H 0.61822 0.57755 0.78167 0.0
C368 C 0.05245 0.87353 0.20847 0.0
C369 C 0.07051 0.89904 0.17136 0.0
C370 C 0.0531 0.89772 0.25602 0.0
C371 C 0.07281 0.94758 0.26668 0.0
C372 C 0.09228 0.97124 0.22988 0.0
C373 C 0.09056 0.94723 0.18238 0.0
C374 C 0.03147 0.87226 0.294 0.0
C375 C 0.11416 0.02333 0.24023 0.0
C376 C 0.04939 0.06072 0.36482 0.0
C377 C 0.06711 0.04168 0.40468 0.0
C378 C 0.0508 0.02981 0.31999 0.0
C379 C 0.07077 0.97915 0.31467 0.0
C380 C 0.08878 0.9596 0.35476 0.0
C381 C 0.08652 0.99084 0.3996 0.0
C382 C 0.03105 0.05172 0.2782 0.0
C383 C 0.11074 0.90646 0.35 0.0
H384 H 0.0368 0.83643 0.19983 0.0
H385 H 0.10479 0.96646 0.15375 0.0
H386 H 0.04361 0.8638 0.32895 0.0
H387 H 0.01319 0.90638 0.30149 0.0
H388 H 0.02059 0.82875 0.28187 0.0
H389 H 0.13026 0.0313 0.20944 0.0
H390 H 0.10109 0.0662 0.24676 0.0
H391 H 0.1276 0.01376 0.27379 0.0
H392 H 0.03417 0.09972 0.36872 0.0
H393 H 0.10037 0.97623 0.43034 0.0
H394 H 0.01747 0.013 0.26319 0.0
H395 H 0.04571 0.0692 0.24819 0.0
H396 H 0.01521 0.08898 0.28951 0.0
H397 H 0.09825 0.86445 0.33871 0.0
H398 H 0.12307 0.89689 0.38469 0.0
H399 H 0.12782 0.91647 0.32105 0.0
C400 C 0.93588 0.87825 0.30735 0.0
C401 C 0.91577 0.89669 0.34443 0.0
C402 C 0.93558 0.90716 0.26162 0.0
C403 C 0.91404 0.95436 0.25251 0.0
C404 C 0.89249 0.97059 0.28896 0.0
C405 C 0.894 0.94228 0.33495 0.0
C406 C 0.95962 0.88992 0.22434 0.0
C407 C 0.86849 0.0191 0.27999 0.0
C408 C 0.93818 0.07518 0.16097 0.0
C409 C 0.92483 0.05322 0.11779 0.0
C410 C 0.93427 0.04406 0.2053 0.0
C411 C 0.91609 0.9903 0.20659 0.0
C412 C 0.90151 0.96927 0.1635 0.0
C413 C 0.90635 0.00065 0.11937 0.0
C414 C 0.94991 0.06846 0.25058 0.0
C415 C 0.88124 0.91316 0.16391 0.0
H416 H 0.95293 0.84336 0.31491 0.0
H417 H 0.87828 0.9561 0.36361 0.0
H418 H 0.94934 0.884 0.18758 0.0
H419 H 0.97673 0.92746 0.22176 0.0
H420 H 0.97172 0.84687 0.23422 0.0
H421 H 0.85032 0.01847 0.3084 0.0
H422 H 0.87934 0.06511 0.28025 0.0
H423 H 0.85771 0.01263 0.2436 0.0
H424 H 0.95242 0.1159 0.15995 0.0
H425 H 0.89569 0.98394 0.08612 0.0
H426 H 0.962 0.03105 0.27012 0.0
H427 H 0.93253 0.0874 0.27598 0.0
H428 H 0.96655 0.10544 0.24196 0.0
H429 H 0.89515 0.87181 0.17201 0.0
H430 H 0.8694 0.90607 0.12839 0.0
H431 H 0.86378 0.91727 0.19321 0.0
C432 C 0.96202 0.96514 0.62603 0.0
C433 C 0.9391 0.92256 0.61411 0.0
C434 C 0.9631 0.99262 0.67233 0.0
C435 C 0.94063 0.97745 0.70753 0.0
C436 C 0.91731 0.93481 0.69572 0.0
C437 C 0.91685 0.90774 0.6491 0.0
C438 C 0.98861 0.03704 0.68391 0.0
C439 C 0.89303 0.91744 0.73246 0.0
C440 C 0.96055 0.00102 0.84108 0.0
C441 C 0.94546 0.05628 0.85174 0.0
C442 C 0.9592 0.97497 0.79429 0.0
C443 C 0.94222 0.00475 0.75724 0.0
C444 C 0.92707 0.06075 0.76758 0.0
C445 C 0.92884 0.08587 0.81482 0.0
C446 C 0.97554 0.91499 0.78488 0.0
C447 C 0.90896 0.09397 0.72877 0.0
H448 H 0.97936 0.97677 0.59926 0.0
H449 H 0.89905 0.87495 0.6401 0.0
H450 H 0.97895 0.08192 0.69532 0.0
H451 H 0.00232 0.01935 0.71496 0.0
H452 H 0.00412 0.04451 0.65229 0.0
H453 H 0.87594 0.88498 0.71706 0.0
H454 H 0.90386 0.89585 0.76484 0.0
H455 H 0.88091 0.95914 0.74543 0.0
H456 H 0.97339 0.9777 0.86943 0.0
H457 H 0.91718 0.12863 0.82281 0.0
H458 H 0.98885 0.91707 0.7504 0.0
H459 H 0.95841 0.87775 0.78073 0.0
H460 H 0.99128 0.90258 0.8152 0.0
H461 H 0.92407 0.10564 0.69753 0.0
H462 H 0.89838 0.13689 0.74279 0.0
H463 H 0.8906 0.06367 0.71451 0.0
C464 C 0.10049 0.01349 0.90721 0.0
C465 C 0.08941 0.95304 0.90888 0.0
C466 C 0.09833 0.04853 0.86434 0.0
C467 C 0.08498 0.0223 0.8221 0.0
C468 C 0.07456 0.96076 0.82311 0.0
C469 C 0.07684 0.92688 0.86653 0.0
C470 C 0.10965 0.11402 0.8646 0.0
C471 C 0.06061 0.93097 0.77846 0.0
C472 C 0.04896 0.12229 0.72441 0.0
C473 C 0.07082 0.11882 0.68698 0.0
C474 C 0.05363 0.09241 0.76919 0.0
C475 C 0.08112 0.05944 0.77702 0.0
C476 C 0.10406 0.05891 0.74052 0.0
C477 C 0.09861 0.08854 0.69587 0.0
C478 C 0.02859 0.09379 0.80724 0.0
C479 C 0.13377 0.0247 0.74772 0.0
H480 H 0.11019 0.03414 0.93979 0.0
H481 H 0.06836 0.88014 0.86746 0.0
H482 H 0.12618 0.1213 0.83438 0.0
H483 H 0.09017 0.14572 0.85841 0.0
H484 H 0.12087 0.12656 0.89968 0.0
H485 H 0.05185 0.88409 0.7861 0.0
H486 H 0.04153 0.95943 0.7644 0.0
H487 H 0.078 0.92795 0.74899 0.0
H488 H 0.02761 0.14629 0.71806 0.0
H489 H 0.11576 0.086 0.66729 0.0
H490 H 0.03728 0.1151 0.84138 0.0
H491 H 0.02149 0.04628 0.81634 0.0
H492 H 0.00811 0.11965 0.79479 0.0
H493 H 0.1445 0.0379 0.78297 0.0
H494 H 0.15035 0.03354 0.71775 0.0
H495 H 0.12917 0.97465 0.74924 0.0
C496 C 0.45291 0.91972 0.02772 0.0
C497 C 0.45717 0.86688 -0.00072 0.0
C498 C 0.46941 0.97337 0.01826 0.0
C499 C 0.49085 0.97417 0.97945 0.0
C500 C 0.49319 0.92292 0.94775 0.0
C501 C 0.47623 0.8696 0.95805 0.0
C502 C 0.46576 0.02733 0.05258 0.0
C503 C 0.51532 0.92242 0.90543 0.0
C504 C 0.52483 0.13288 0.96647 0.0
C505 C 0.54851 0.12934 0.00096 0.0
C506 C 0.5073 0.08071 0.95489 0.0
C507 C 0.5139 0.02426 0.97823 0.0
C508 C 0.53996 0.01936 0.00874 0.0
C509 C 0.55683 0.07209 0.01995 0.0
C510 C 0.48009 0.08749 0.92141 0.0
C511 C 0.54828 0.95976 0.03359 0.0
H512 H 0.43768 0.91824 0.05902 0.0
H513 H 0.47943 0.82897 0.93569 0.0
H514 H 0.48668 0.03216 0.07529 0.0
H515 H 0.46288 0.0705 0.03165 0.0
H516 H 0.44582 0.02185 0.0774 0.0
H517 H 0.50892 0.88736 0.87771 0.0
H518 H 0.51645 0.96802 0.88751 0.0
H519 H 0.53857 0.91132 0.91913 0.0
H520 H 0.51847 0.1771 0.95145 0.0
H521 H 0.57556 0.06909 0.04587 0.0
H522 H 0.45906 0.09301 0.94373 0.0
H523 H 0.47708 0.0461 0.89821 0.0
H524 H 0.48235 0.1284 0.89746 0.0
H525 H 0.53128 0.94968 0.06265 0.0
H526 H 0.57135 0.96162 0.05061 0.0
H527 H 0.54775 0.92119 0.0071 0.0
C528 C 0.5415 0.91434 0.47546 0.0
C529 C 0.53573 0.8621 0.50381 0.0
C530 C 0.52619 0.96954 0.48449 0.0
C531 C 0.50437 0.97254 0.52271 0.0
C532 C 0.50043 0.92166 0.55425 0.0
C533 C 0.51626 0.86678 0.54445 0.0
C534 C 0.53153 0.02302 0.4504 0.0
C535 C 0.47781 0.92339 0.59588 0.0
C536 C 0.47371 0.13414 0.536 0.0
C537 C 0.45026 0.13286 0.50103 0.0
C538 C 0.49011 0.08048 0.54738 0.0
C539 C 0.48255 0.02482 0.52341 0.0
C540 C 0.45672 0.02241 0.49219 0.0
C541 C 0.44105 0.07659 0.48112 0.0
C542 C 0.51715 0.0847 0.58149 0.0
C543 C 0.44739 0.96379 0.46664 0.0
H544 H 0.55704 0.91133 0.44463 0.0
H545 H 0.5119 0.82662 0.56676 0.0
H546 H 0.51105 0.02972 0.427 0.0
H547 H 0.53512 0.06593 0.4715 0.0
H548 H 0.55165 0.01565 0.42626 0.0
H549 H 0.48279 0.88738 0.62349 0.0
H550 H 0.47784 0.96888 0.61417 0.0
H551 H 0.45444 0.91529 0.58137 0.0
H552 H 0.48077 0.17767 0.55163 0.0
H553 H 0.42251 0.07543 0.45476 0.0
H554 H 0.53847 0.08845 0.55965 0.0
H555 H 0.51905 0.04298 0.6045 0.0
H556 H 0.51559 0.12565 0.60563 0.0
H557 H 0.46449 0.95241 0.43802 0.0
H558 H 0.42459 0.9678 0.44896 0.0
H559 H 0.44675 0.92502 0.49285 0.0
C560 C 0.05668 0.57101 0.02522 0.0
C561 C 0.04622 0.6271 0.00667 0.0
C562 C 0.04293 0.51568 0.01142 0.0
C563 C 0.01791 0.5166 0.97855 0.0
C564 C 0.00963 0.57227 0.95534 0.0
C565 C 0.02397 0.62724 0.96972 0.0
C566 C 0.05303 0.45721 0.03627 0.0
C567 C 0.98372 0.57481 0.91898 0.0
C568 C 0.98691 0.3564 0.956 0.0
C569 C 0.96656 0.35109 -0.00455 0.0
C570 C 0.00218 0.41211 0.94685 0.0
C571 C 0.99684 0.46306 0.97795 0.0
C572 C 0.9742 0.45918 0.01486 0.0
C573 C 0.95941 0.40329 0.02314 0.0
C574 C 0.02559 0.41476 0.90638 0.0
C575 C 0.96734 0.51257 0.0485 0.0
H576 H 0.07443 0.57069 0.05293 0.0
H577 H 0.01607 0.67053 0.95485 0.0
H578 H 0.03559 0.44343 0.06365 0.0
H579 H 0.05515 0.41935 0.00935 0.0
H580 H 0.07531 0.4628 0.05535 0.0
H581 H 0.98526 0.6163 0.89553 0.0
H582 H 0.98352 0.53338 0.89533 0.0
H583 H 0.96163 0.57641 0.93894 0.0
H584 H 0.9923 0.31627 0.93415 0.0
H585 H 0.94313 0.39978 0.05295 0.0
H586 H 0.0486 0.40519 0.92174 0.0
H587 H 0.02628 0.46085 0.88922 0.0
H588 H 0.02081 0.37987 0.8777 0.0
H589 H 0.98737 0.52131 0.07249 0.0
H590 H 0.94709 0.50386 0.07207 0.0
H591 H 0.96311 0.55487 0.02703 0.0
C592 C 0.04643 0.39957 0.48935 0.0
C593 C 0.03859 0.34897 0.51826 0.0
C594 C 0.03139 0.45578 0.49485 0.0
C595 C 0.0076 0.46123 0.52973 0.0
C596 C 0.00161 0.4121 0.56225 0.0
C597 C 0.01735 0.35627 0.55623 0.0
C598 C 0.03901 0.50736 0.46004 0.0
C599 C 0.97676 0.41645 0.60038 0.0
C600 C 0.97558 0.62279 0.53418 0.0
C601 C 0.95373 0.61948 0.49667 0.0
C602 C 0.99188 0.57022 0.54869 0.0
C603 C 0.98592 0.51346 0.52527 0.0
C604 C 0.96187 0.5091 0.49071 0.0
C605 C 0.94622 0.56222 0.47667 0.0
C606 C 0.01706 0.5766 0.58609 0.0
C607 C 0.95432 0.44926 0.46544 0.0
H608 H 0.06328 0.39421 0.46052 0.0
H609 H 0.01134 0.31718 0.57877 0.0
H610 H 0.02021 0.51259 0.43308 0.0
H611 H 0.04122 0.55144 0.48007 0.0
H612 H 0.06061 0.49871 0.43973 0.0
H613 H 0.97975 0.3814 0.62947 0.0
H614 H 0.97631 0.46267 0.61745 0.0
H615 H 0.95422 0.40875 0.58274 0.0
H616 H 0.98135 0.66698 0.54997 0.0
H617 H 0.9289 0.55929 0.44835 0.0
H618 H 0.03942 0.57978 0.56702 0.0
H619 H 0.01793 0.53601 0.61049 0.0
H620 H 0.01412 0.61858 0.60873 0.0
H621 H 0.97316 0.43685 0.44006 0.0
H622 H 0.93274 0.45208 0.44407 0.0
H623 H 0.95211 0.41168 0.49252 0.0
loop_
_geom_bond_atom_site_label_1
_geom_bond_atom_site_label_2
_geom_bond_distance
_geom_bond_site_symmetry_2
_ccdc_geom_bond_type
Mg0 O1 2.028 . S
Mg0 O7 1.986 . S
Mg0 O9 2.114 . S
Mg0 O10 2.251 . S
Mg0 O13 2.010 1_554 S
O1 Mg0 2.028 . S
O1 C4 1.250 . S
O2 Mg3 2.028 . S
O2 C4 1.248 . S
Mg3 O2 2.028 . S
Mg3 O8 2.032 . S
Mg3 O10 2.079 . S
C4 O1 1.250 . S
C4 O2 1.248 . S
C5 O6 1.264 . S
C5 O13 1.249 . S
O6 C5 1.264 . S
O7 Mg0 1.986 . S
O7 C11 1.246 . S
O8 Mg3 2.032 . S
O8 C11 1.259 . S
O9 Mg0 2.114 . S
O9 C12 1.252 . S
O10 Mg0 2.251 . S
O10 Mg3 2.079 . S
O10 C12 1.273 . S
C11 O7 1.246 . S
C11 O8 1.259 . S
C12 O9 1.252 . S
C12 O10 1.273 . S
O13 Mg0 2.010 1_556 S
O13 C5 1.249 . S
Mg14 O15 2.028 . S
Mg14 O21 1.986 . S
Mg14 O23 2.114 . S
Mg14 O24 2.251 . S
Mg14 O27 2.010 1_554 S
O15 Mg14 2.028 . S
O15 C18 1.250 . S
O16 Mg17 2.028 . S
O16 C18 1.248 . S
Mg17 O16 2.028 . S
Mg17 O22 2.032 . S
Mg17 O24 2.079 . S
C18 O15 1.250 . S
C18 O16 1.248 . S
C19 O20 1.264 . S
C19 O27 1.249 . S
O20 C19 1.264 . S
O21 Mg14 1.986 . S
O21 C25 1.246 . S
O22 Mg17 2.032 . S
O22 C25 1.259 . S
O23 Mg14 2.114 . S
O23 C26 1.252 . S
O24 Mg14 2.251 . S
O24 Mg17 2.079 . S
O24 C26 1.273 . S
C25 O21 1.246 . S
C25 O22 1.259 . S
C26 O23 1.252 . S
C26 O24 1.273 . S
O27 Mg14 2.010 1_556 S
O27 C19 1.249 . S
Mg28 O29 2.028 . S
Mg28 O35 1.986 . S
Mg28 O37 2.114 . S
Mg28 O38 2.251 . S
Mg28 O41 2.010 . S
O29 Mg28 2.028 . S
O29 C32 1.250 . S
O30 Mg31 2.028 . S
O30 C32 1.248 . S
Mg31 O30 2.028 . S
Mg31 O36 2.032 . S
Mg31 O38 2.079 . S
C32 O29 1.250 . S
C32 O30 1.248 . S
C33 O34 1.264 . S
C33 O41 1.249 . S
O34 C33 1.264 . S
O35 Mg28 1.986 . S
O35 C39 1.246 . S
O36 Mg31 2.032 . S
O36 C39 1.259 . S
O37 Mg28 2.114 . S
O37 C40 1.252 . S
O38 Mg28 2.251 . S
O38 Mg31 2.079 . S
O38 C40 1.273 . S
C39 O35 1.246 . S
C39 O36 1.259 . S
C40 O37 1.252 . S
C40 O38 1.273 . S
O41 Mg28 2.010 . S
O41 C33 1.249 . S
Mg42 O43 2.028 . S
Mg42 O49 1.986 . S
Mg42 O51 2.114 . S
Mg42 O52 2.251 . S
Mg42 O55 2.010 . S
O43 Mg42 2.028 . S
O43 C46 1.250 . S
O44 Mg45 2.028 . S
O44 C46 1.248 . S
Mg45 O44 2.028 . S
Mg45 O50 2.032 . S
Mg45 O52 2.079 . S
C46 O43 1.250 . S
C46 O44 1.248 . S
C47 O48 1.264 . S
C47 O55 1.249 . S
O48 C47 1.264 . S
O49 Mg42 1.986 . S
O49 C53 1.246 . S
O50 Mg45 2.032 . S
O50 C53 1.259 . S
O51 Mg42 2.114 . S
O51 C54 1.252 . S
O52 Mg42 2.251 . S
O52 Mg45 2.079 . S
O52 C54 1.273 . S
C53 O49 1.246 . S
C53 O50 1.259 . S
C54 O51 1.252 . S
C54 O52 1.273 . S
O55 Mg42 2.010 . S
O55 C47 1.249 . S
Mg56 O57 2.028 . S
Mg56 O63 1.986 . S
Mg56 O65 2.114 . S
Mg56 O66 2.251 . S
Mg56 O69 2.010 1_554 S
O57 Mg56 2.028 . S
O57 C60 1.250 . S
O58 Mg59 2.028 . S
O58 C60 1.248 . S
Mg59 O58 2.028 . S
Mg59 O64 2.032 . S
Mg59 O66 2.079 . S
C60 O57 1.250 . S
C60 O58 1.248 . S
C61 O62 1.264 . S
C61 O69 1.249 . S
O62 C61 1.264 . S
O63 Mg56 1.986 . S
O63 C67 1.246 . S
O64 Mg59 2.032 . S
O64 C67 1.259 . S
O65 Mg56 2.114 . S
O65 C68 1.252 . S
O66 Mg56 2.251 . S
O66 Mg59 2.079 . S
O66 C68 1.273 . S
C67 O63 1.246 . S
C67 O64 1.259 . S
C68 O65 1.252 . S
C68 O66 1.273 . S
O69 Mg56 2.010 1_556 S
O69 C61 1.249 . S
Mg70 O71 2.028 . S
Mg70 O77 1.986 . S
Mg70 O79 2.114 . S
Mg70 O80 2.251 . S
Mg70 O83 2.010 1_554 S
O71 Mg70 2.028 . S
O71 C74 1.250 . S
O72 Mg73 2.028 . S
O72 C74 1.248 . S
Mg73 O72 2.028 . S
Mg73 O78 2.032 . S
Mg73 O80 2.079 . S
C74 O71 1.250 . S
C74 O72 1.248 . S
C75 O76 1.264 . S
C75 O83 1.249 . S
O76 C75 1.264 . S
O77 Mg70 1.986 . S
O77 C81 1.246 . S
O78 Mg73 2.032 . S
O78 C81 1.259 . S
O79 Mg70 2.114 . S
O79 C82 1.252 . S
O80 Mg70 2.251 . S
O80 Mg73 2.079 . S
O80 C82 1.273 . S
C81 O77 1.246 . S
C81 O78 1.259 . S
C82 O79 1.252 . S
C82 O80 1.273 . S
O83 Mg70 2.010 1_556 S
O83 C75 1.249 . S
Mg84 O85 2.028 . S
Mg84 O91 1.986 . S
Mg84 O93 2.114 . S
Mg84 O94 2.251 . S
Mg84 O97 2.010 . S
O85 Mg84 2.028 . S
O85 C88 1.250 . S
O86 Mg87 2.028 . S
O86 C88 1.248 . S
Mg87 O86 2.028 . S
Mg87 O92 2.032 . S
Mg87 O94 2.079 . S
C88 O85 1.250 . S
C88 O86 1.248 . S
C89 O90 1.264 . S
C89 O97 1.249 . S
O90 C89 1.264 . S
O91 Mg84 1.986 . S
O91 C95 1.246 . S
O92 Mg87 2.032 . S
O92 C95 1.259 . S
O93 Mg84 2.114 . S
O93 C96 1.252 . S
O94 Mg84 2.251 . S
O94 Mg87 2.079 . S
O94 C96 1.273 . S
C95 O91 1.246 . S
C95 O92 1.259 . S
C96 O93 1.252 . S
C96 O94 1.273 . S
O97 Mg84 2.010 . S
O97 C89 1.249 . S
Mg98 O99 2.028 . S
Mg98 O105 1.986 . S
Mg98 O107 2.114 . S
Mg98 O108 2.251 . S
Mg98 O111 2.010 . S
O99 Mg98 2.028 . S
O99 C102 1.250 . S
O100 Mg101 2.028 . S
O100 C102 1.248 . S
Mg101 O100 2.028 . S
Mg101 O106 2.032 . S
Mg101 O108 2.079 . S
C102 O99 1.250 . S
C102 O100 1.248 . S
C103 O104 1.264 . S
C103 O111 1.249 . S
O104 C103 1.264 . S
O105 Mg98 1.986 . S
O105 C109 1.246 . S
O106 Mg101 2.032 . S
O106 C109 1.259 . S
O107 Mg98 2.114 . S
O107 C110 1.252 . S
O108 Mg98 2.251 . S
O108 Mg101 2.079 . S
O108 C110 1.273 . S
C109 O105 1.246 . S
C109 O106 1.259 . S
C110 O107 1.252 . S
C110 O108 1.273 . S
O111 Mg98 2.010 . S
O111 C103 1.249 . S
C112 C113 1.391 . S
C112 C114 1.394 . S
C112 H128 0.931 . S
C113 C112 1.391 . S
C113 C117 1.376 1_554 S
C114 C112 1.394 . S
C114 C115 1.369 . S
C114 C118 1.531 . S
C115 C114 1.369 . S
C115 C116 1.410 1_554 S
C115 C123 1.503 . S
C116 C115 1.410 1_556 S
C116 C117 1.392 . S
C116 C119 1.511 . S
C117 C113 1.376 1_556 S
C117 C116 1.392 . S
C117 H129 0.929 . S
C118 C114 1.531 . S
C118 H130 0.960 . S
C118 H131 0.962 . S
C118 H132 0.960 . S
C119 C116 1.511 . S
C119 H133 0.961 . S
C119 H134 0.961 . S
C119 H135 0.961 . S
C120 C121 1.370 . S
C120 C122 1.363 . S
C120 H136 0.931 . S
C121 C120 1.370 . S
C121 C125 1.408 . S
C122 C120 1.363 . S
C122 C123 1.370 . S
C122 C126 1.524 . S
C123 C115 1.503 . S
C123 C122 1.370 . S
C123 C124 1.403 . S
C124 C123 1.403 . S
C124 C125 1.404 . S
C124 C127 1.539 1_554 S
C125 C121 1.408 . S
C125 C124 1.404 . S
C125 H137 0.926 1_554 S
C126 C122 1.524 . S
C126 H138 0.956 . S
C126 H139 0.961 . S
C126 H140 0.961 . S
C127 C124 1.539 1_556 S
C127 H141 0.958 1_556 S
C127 H142 0.961 . S
C127 H143 0.960 . S
H128 C112 0.931 . S
H129 C117 0.929 . S
H130 C118 0.960 . S
H131 C118 0.962 . S
H132 C118 0.960 . S
H133 C119 0.961 . S
H134 C119 0.961 . S
H135 C119 0.961 . S
H136 C120 0.931 . S
H137 C125 0.926 1_556 S
H138 C126 0.956 . S
H139 C126 0.961 . S
H140 C126 0.961 . S
H141 C127 0.958 1_554 S
H142 C127 0.961 . S
H143 C127 0.960 . S
C144 C145 1.391 1_556 S
C144 C146 1.394 . S
C144 H160 0.931 . S
C145 C144 1.391 1_554 S
C145 C149 1.376 . S
C146 C144 1.394 . S
C146 C147 1.369 1_556 S
C146 C150 1.531 . S
C147 C146 1.369 1_554 S
C147 C148 1.410 . S
C147 C155 1.503 . S
C148 C147 1.410 . S
C148 C149 1.392 . S
C148 C151 1.511 . S
C149 C145 1.376 . S
C149 C148 1.392 . S
C149 H161 0.929 . S
C150 C146 1.531 . S
C150 H162 0.960 . S
C150 H163 0.962 . S
C150 H164 0.960 . S
C151 C148 1.511 . S
C151 H165 0.961 . S
C151 H166 0.961 . S
C151 H167 0.961 . S
C152 C153 1.370 . S
C152 C154 1.363 . S
C152 H168 0.931 . S
C153 C152 1.370 . S
C153 C157 1.408 1_554 S
C154 C152 1.363 . S
C154 C155 1.370 . S
C154 C158 1.524 . S
C155 C147 1.503 . S
C155 C154 1.370 . S
C155 C156 1.403 1_554 S
C156 C155 1.403 1_556 S
C156 C157 1.404 . S
C156 C159 1.539 . S
C157 C153 1.408 1_556 S
C157 C156 1.404 . S
C157 H169 0.930 . S
C158 C154 1.524 . S
C158 H170 0.956 . S
C158 H171 0.961 . S
C158 H172 0.961 . S
C159 C156 1.539 . S
C159 H173 0.958 . S
C159 H174 0.961 . S
C159 H175 0.960 . S
H160 C144 0.931 . S
H161 C149 0.929 . S
H162 C150 0.960 . S
H163 C150 0.962 . S
H164 C150 0.960 . S
H165 C151 0.961 . S
H166 C151 0.961 . S
H167 C151 0.961 . S
H168 C152 0.931 . S
H169 C157 0.930 . S
H170 C158 0.956 . S
H171 C158 0.961 . S
H172 C158 0.961 . S
H173 C159 0.958 . S
H174 C159 0.961 . S
H175 C159 0.960 . S
C176 C177 1.391 . S
C176 C178 1.394 . S
C176 H192 0.931 . S
C177 C176 1.391 . S
C177 C181 1.376 . S
C178 C176 1.394 . S
C178 C179 1.369 . S
C178 C182 1.531 . S
C179 C178 1.369 . S
C179 C180 1.410 . S
C179 C187 1.503 . S
C180 C179 1.410 . S
C180 C181 1.392 . S
C180 C183 1.511 . S
C181 C177 1.376 . S
C181 C180 1.392 . S
C181 H193 0.929 . S
C182 C178 1.531 . S
C182 H194 0.960 . S
C182 H195 0.962 . S
C182 H196 0.960 . S
C183 C180 1.511 . S
C183 H197 0.961 . S
C183 H198 0.961 . S
C183 H199 0.961 . S
C184 C185 1.370 . S
C184 C186 1.363 . S
C184 H200 0.931 . S
C185 C184 1.370 . S
C185 C189 1.408 . S
C186 C184 1.363 . S
C186 C187 1.370 . S
C186 C190 1.524 . S
C187 C179 1.503 . S
C187 C186 1.370 . S
C187 C188 1.403 . S
C188 C187 1.403 . S
C188 C189 1.404 . S
C188 C191 1.539 . S
C189 C185 1.408 . S
C189 C188 1.404 . S
C189 H201 0.930 . S
C190 C186 1.524 . S
C190 H202 0.956 . S
C190 H203 0.961 . S
C190 H204 0.961 . S
C191 C188 1.539 . S
C191 H205 0.958 . S
C191 H206 0.961 . S
C191 H207 0.960 . S
H192 C176 0.931 . S
H193 C181 0.929 . S
H194 C182 0.960 . S
H195 C182 0.962 . S
H196 C182 0.960 . S
H197 C183 0.961 . S
H198 C183 0.961 . S
H199 C183 0.961 . S
H200 C184 0.931 . S
H201 C189 0.930 . S
H202 C190 0.956 . S
H203 C190 0.961 . S
H204 C190 0.961 . S
H205 C191 0.958 . S
H206 C191 0.961 . S
H207 C191 0.960 . S
C208 C209 1.391 . S
C208 C210 1.394 . S
C208 H224 0.931 . S
C209 C208 1.391 . S
C209 C213 1.376 . S
C210 C208 1.394 . S
C210 C211 1.369 . S
C210 C214 1.531 . S
C211 C210 1.369 . S
C211 C212 1.410 . S
C211 C219 1.503 . S
C212 C211 1.410 . S
C212 C213 1.392 . S
C212 C215 1.511 . S
C213 C209 1.376 . S
C213 C212 1.392 . S
C213 H225 0.929 . S
C214 C210 1.531 . S
C214 H226 0.960 . S
C214 H227 0.962 . S
C214 H228 0.960 . S
C215 C212 1.511 . S
C215 H229 0.961 . S
C215 H230 0.961 . S
C215 H231 0.961 . S
C216 C217 1.370 . S
C216 C218 1.363 . S
C216 H232 0.931 . S
C217 C216 1.370 . S
C217 C221 1.408 . S
C218 C216 1.363 . S
C218 C219 1.370 . S
C218 C222 1.524 . S
C219 C211 1.503 . S
C219 C218 1.370 . S
C219 C220 1.403 . S
C220 C219 1.403 . S
C220 C221 1.404 . S
C220 C223 1.539 . S
C221 C217 1.408 . S
C221 C220 1.404 . S
C221 H233 0.930 . S
C222 C218 1.524 . S
C222 H234 0.956 . S
C222 H235 0.961 . S
C222 H236 0.961 . S
C223 C220 1.539 . S
C223 H237 0.958 . S
C223 H238 0.961 . S
C223 H239 0.960 . S
H224 C208 0.931 . S
H225 C213 0.929 . S
H226 C214 0.960 . S
H227 C214 0.962 . S
H228 C214 0.960 . S
H229 C215 0.961 . S
H230 C215 0.961 . S
H231 C215 0.961 . S
H232 C216 0.931 . S
H233 C221 0.930 . S
H234 C222 0.956 . S
H235 C222 0.961 . S
H236 C222 0.961 . S
H237 C223 0.958 . S
H238 C223 0.961 . S
H239 C223 0.960 . S
C240 C241 1.391 . S
C240 C242 1.394 . S
C240 H256 0.931 . S
C241 C240 1.391 . S
C241 C245 1.376 . S
C242 C240 1.394 . S
C242 C243 1.369 . S
C242 C246 1.531 . S
C243 C242 1.369 . S
C243 C244 1.410 . S
C243 C251 1.503 . S
C244 C243 1.410 . S
C244 C245 1.392 . S
C244 C247 1.511 . S
C245 C241 1.376 . S
C245 C244 1.392 . S
C245 H257 0.929 . S
C246 C242 1.531 . S
C246 H258 0.960 . S
C246 H259 0.962 . S
C246 H260 0.960 . S
C247 C244 1.511 . S
C247 H261 0.961 . S
C247 H262 0.961 . S
C247 H263 0.961 . S
C248 C249 1.370 . S
C248 C250 1.363 . S
C248 H264 0.931 . S
C249 C248 1.370 . S
C249 C253 1.408 . S
C250 C248 1.363 . S
C250 C251 1.370 . S
C250 C254 1.524 . S
C251 C243 1.503 . S
C251 C250 1.370 . S
C251 C252 1.403 . S
C252 C251 1.403 . S
C252 C253 1.404 . S
C252 C255 1.539 . S
C253 C249 1.408 . S
C253 C252 1.404 . S
C253 H265 0.930 . S
C254 C250 1.524 . S
C254 H266 0.956 . S
C254 H267 0.961 . S
C254 H268 0.961 . S
C255 C252 1.539 . S
C255 H269 0.958 . S
C255 H270 0.961 . S
C255 H271 0.960 . S
H256 C240 0.931 . S
H257 C245 0.929 . S
H258 C246 0.960 . S
H259 C246 0.962 . S
H260 C246 0.960 . S
H261 C247 0.961 . S
H262 C247 0.961 . S
H263 C247 0.961 . S
H264 C248 0.931 . S
H265 C253 0.930 . S
H266 C254 0.956 . S
H267 C254 0.961 . S
H268 C254 0.961 . S
H269 C255 0.958 . S
H270 C255 0.961 . S
H271 C255 0.960 . S
C272 C273 1.391 . S
C272 C274 1.394 . S
C272 H288 0.931 . S
C273 C272 1.391 . S
C273 C277 1.376 . S
C274 C272 1.394 . S
C274 C275 1.369 . S
C274 C278 1.531 . S
C275 C274 1.369 . S
C275 C276 1.410 . S
C275 C283 1.503 . S
C276 C275 1.410 . S
C276 C277 1.392 . S
C276 C279 1.511 . S
C277 C273 1.376 . S
C277 C276 1.392 . S
C277 H289 0.929 . S
C278 C274 1.531 . S
C278 H290 0.960 . S
C278 H291 0.962 . S
C278 H292 0.960 . S
C279 C276 1.511 . S
C279 H293 0.961 . S
C279 H294 0.961 . S
C279 H295 0.961 . S
C280 C281 1.370 . S
C280 C282 1.363 . S
C280 H296 0.931 . S
C281 C280 1.370 . S
C281 C285 1.408 . S
C282 C280 1.363 . S
C282 C283 1.370 . S
C282 C286 1.524 . S
C283 C275 1.503 . S
C283 C282 1.370 . S
C283 C284 1.403 . S
C284 C283 1.403 . S
C284 C285 1.404 . S
C284 C287 1.539 . S
C285 C281 1.408 . S
C285 C284 1.404 . S
C285 H297 0.930 . S
C286 C282 1.524 . S
C286 H298 0.956 . S
C286 H299 0.961 . S
C286 H300 0.961 . S
C287 C284 1.539 . S
C287 H301 0.958 . S
C287 H302 0.961 . S
C287 H303 0.960 . S
H288 C272 0.931 . S
H289 C277 0.929 . S
H290 C278 0.960 . S
H291 C278 0.962 . S
H292 C278 0.960 . S
H293 C279 0.961 . S
H294 C279 0.961 . S
H295 C279 0.961 . S
H296 C280 0.931 . S
H297 C285 0.930 . S
H298 C286 0.956 . S
H299 C286 0.961 . S
H300 C286 0.961 . S
H301 C287 0.958 . S
H302 C287 0.961 . S
H303 C287 0.960 . S
C304 C305 1.391 . S
C304 C306 1.394 . S
C304 H320 0.931 . S
C305 C304 1.391 . S
C305 C309 1.376 . S
C306 C304 1.394 . S
C306 C307 1.369 . S
C306 C310 1.531 . S
C307 C306 1.369 . S
C307 C308 1.410 . S
C307 C315 1.503 . S
C308 C307 1.410 . S
C308 C309 1.392 . S
C308 C311 1.511 . S
C309 C305 1.376 . S
C309 C308 1.392 . S
C309 H321 0.929 . S
C310 C306 1.531 . S
C310 H322 0.960 . S
C310 H323 0.962 . S
C310 H324 0.960 . S
C311 C308 1.511 . S
C311 H325 0.961 . S
C311 H326 0.961 . S
C311 H327 0.961 . S
C312 C313 1.370 . S
C312 C314 1.363 . S
C312 H328 0.931 . S
C313 C312 1.370 . S
C313 C317 1.408 . S
C314 C312 1.363 . S
C314 C315 1.370 . S
C314 C318 1.524 . S
C315 C307 1.503 . S
C315 C314 1.370 . S
C315 C316 1.403 . S
C316 C315 1.403 . S
C316 C317 1.404 . S
C316 C319 1.539 . S
C317 C313 1.408 . S
C317 C316 1.404 . S
C317 H329 0.930 . S
C318 C314 1.524 . S
C318 H330 0.956 . S
C318 H331 0.961 . S
C318 H332 0.961 . S
C319 C316 1.539 . S
C319 H333 0.958 . S
C319 H334 0.961 . S
C319 H335 0.960 . S
H320 C304 0.931 . S
H321 C309 0.929 . S
H322 C310 0.960 . S
H323 C310 0.962 . S
H324 C310 0.960 . S
H325 C311 0.961 . S
H326 C311 0.961 . S
H327 C311 0.961 . S
H328 C312 0.931 . S
H329 C317 0.930 . S
H330 C318 0.956 . S
H331 C318 0.961 . S
H332 C318 0.961 . S
H333 C319 0.958 . S
H334 C319 0.961 . S
H335 C319 0.960 . S
C336 C337 1.391 . S
C336 C338 1.394 . S
C336 H352 0.931 . S
C337 C336 1.391 . S
C337 C341 1.376 . S
C338 C336 1.394 . S
C338 C339 1.369 . S
C338 C342 1.531 . S
C339 C338 1.369 . S
C339 C340 1.410 . S
C339 C347 1.503 . S
C340 C339 1.410 . S
C340 C341 1.392 . S
C340 C343 1.511 . S
C341 C337 1.376 . S
C341 C340 1.392 . S
C341 H353 0.929 . S
C342 C338 1.531 . S
C342 H354 0.960 . S
C342 H355 0.962 . S
C342 H356 0.960 . S
C343 C340 1.511 . S
C343 H357 0.961 . S
C343 H358 0.961 . S
C343 H359 0.961 . S
C344 C345 1.370 . S
C344 C346 1.363 . S
C344 H360 0.931 . S
C345 C344 1.370 . S
C345 C349 1.408 . S
C346 C344 1.363 . S
C346 C347 1.370 . S
C346 C350 1.524 . S
C347 C339 1.503 . S
C347 C346 1.370 . S
C347 C348 1.403 . S
C348 C347 1.403 . S
C348 C349 1.404 . S
C348 C351 1.539 . S
C349 C345 1.408 . S
C349 C348 1.404 . S
C349 H361 0.930 . S
C350 C346 1.524 . S
C350 H362 0.956 . S
C350 H363 0.961 . S
C350 H364 0.961 . S
C351 C348 1.539 . S
C351 H365 0.958 . S
C351 H366 0.961 . S
C351 H367 0.960 . S
H352 C336 0.931 . S
H353 C341 0.929 . S
H354 C342 0.960 . S
H355 C342 0.962 . S
H356 C342 0.960 . S
H357 C343 0.961 . S
H358 C343 0.961 . S
H359 C343 0.961 . S
H360 C344 0.931 . S
H361 C349 0.930 . S
H362 C350 0.956 . S
H363 C350 0.961 . S
H364 C350 0.961 . S
H365 C351 0.958 . S
H366 C351 0.961 . S
H367 C351 0.960 . S
C368 C369 1.391 . S
C368 C370 1.394 . S
C368 H384 0.931 . S
C369 C368 1.391 . S
C369 C373 1.376 . S
C370 C368 1.394 . S
C370 C371 1.369 . S
C370 C374 1.531 . S
C371 C370 1.369 . S
C371 C372 1.410 1_565 S
C371 C379 1.503 1_565 S
C372 C371 1.410 1_545 S
C372 C373 1.392 1_545 S
C372 C375 1.511 . S
C373 C369 1.376 . S
C373 C372 1.392 1_565 S
C373 H385 0.929 . S
C374 C370 1.531 . S
C374 H386 0.960 . S
C374 H387 0.962 . S
C374 H388 0.960 . S
C375 C372 1.511 . S
C375 H389 0.961 . S
C375 H390 0.961 . S
C375 H391 0.961 . S
C376 C377 1.370 . S
C376 C378 1.363 . S
C376 H392 0.931 . S
C377 C376 1.370 . S
C377 C381 1.408 . S
C378 C376 1.363 . S
C378 C379 1.370 . S
C378 C382 1.524 . S
C379 C371 1.503 1_545 S
C379 C378 1.370 . S
C379 C380 1.403 . S
C380 C379 1.403 . S
C380 C381 1.404 . S
C380 C383 1.539 1_545 S
C381 C377 1.408 . S
C381 C380 1.404 . S
C381 H393 0.930 . S
C382 C378 1.524 . S
C382 H394 0.956 . S
C382 H395 0.961 . S
C382 H396 0.961 . S
C383 C380 1.539 1_565 S
C383 H397 0.958 . S
C383 H398 0.961 1_565 S
C383 H399 0.960 . S
H384 C368 0.931 . S
H385 C373 0.929 . S
H386 C374 0.960 . S
H387 C374 0.962 . S
H388 C374 0.960 . S
H389 C375 0.961 . S
H390 C375 0.961 . S
H391 C375 0.961 . S
H392 C376 0.931 . S
H393 C381 0.930 . S
H394 C382 0.956 . S
H395 C382 0.961 . S
H396 C382 0.961 . S
H397 C383 0.958 . S
H398 C383 0.961 1_545 S
H399 C383 0.960 . S
C400 C401 1.391 . S
C400 C402 1.394 . S
C400 H416 0.931 . S
C401 C400 1.391 . S
C401 C405 1.376 . S
C402 C400 1.394 . S
C402 C403 1.369 . S
C402 C406 1.531 . S
C403 C402 1.369 . S
C403 C404 1.410 1_565 S
C403 C411 1.503 1_565 S
C404 C403 1.410 1_545 S
C404 C405 1.392 1_545 S
C404 C407 1.511 . S
C405 C401 1.376 . S
C405 C404 1.392 1_565 S
C405 H417 0.929 . S
C406 C402 1.531 . S
C406 H418 0.960 . S
C406 H419 0.962 . S
C406 H420 0.960 . S
C407 C404 1.511 . S
C407 H421 0.961 . S
C407 H422 0.961 . S
C407 H423 0.961 . S
C408 C409 1.370 . S
C408 C410 1.363 . S
C408 H424 0.931 . S
C409 C408 1.370 . S
C409 C413 1.408 . S
C410 C408 1.363 . S
C410 C411 1.370 . S
C410 C414 1.524 . S
C411 C403 1.503 1_545 S
C411 C410 1.370 . S
C411 C412 1.403 . S
C412 C411 1.403 . S
C412 C413 1.404 . S
C412 C415 1.539 1_545 S
C413 C409 1.408 . S
C413 C412 1.404 . S
C413 H425 0.930 . S
C414 C410 1.524 . S
C414 H426 0.956 . S
C414 H427 0.961 . S
C414 H428 0.961 . S
C415 C412 1.539 1_565 S
C415 H429 0.958 . S
C415 H430 0.961 1_565 S
C415 H431 0.960 . S
H416 C400 0.931 . S
H417 C405 0.929 . S
H418 C406 0.960 . S
H419 C406 0.962 . S
H420 C406 0.960 . S
H421 C407 0.961 . S
H422 C407 0.961 . S
H423 C407 0.961 . S
H424 C408 0.931 . S
H425 C413 0.930 . S
H426 C414 0.956 . S
H427 C414 0.961 . S
H428 C414 0.961 . S
H429 C415 0.958 . S
H430 C415 0.961 1_545 S
H431 C415 0.960 . S
C432 C433 1.391 . S
C432 C434 1.394 1_565 S
C432 H448 0.931 1_565 S
C433 C432 1.391 . S
C433 C437 1.376 . S
C434 C432 1.394 1_545 S
C434 C435 1.369 1_545 S
C434 C438 1.531 . S
C435 C434 1.369 1_565 S
C435 C436 1.410 . S
C435 C443 1.503 1_565 S
C436 C435 1.410 . S
C436 C437 1.392 . S
C436 C439 1.511 . S
C437 C433 1.376 . S
C437 C436 1.392 . S
C437 H449 0.929 . S
C438 C434 1.531 . S
C438 H450 0.960 . S
C438 H451 0.962 . S
C438 H452 0.960 . S
C439 C436 1.511 . S
C439 H453 0.961 . S
C439 H454 0.961 . S
C439 H455 0.961 . S
C440 C441 1.370 . S
C440 C442 1.363 . S
C440 H456 0.931 . S
C441 C440 1.370 . S
C441 C445 1.408 . S
C442 C440 1.363 . S
C442 C443 1.370 . S
C442 C446 1.524 1_545 S
C443 C435 1.503 1_545 S
C443 C442 1.370 . S
C443 C444 1.403 . S
C444 C443 1.403 . S
C444 C445 1.404 . S
C444 C447 1.539 . S
C445 C441 1.408 . S
C445 C444 1.404 . S
C445 H457 0.930 . S
C446 C442 1.524 1_565 S
C446 H458 0.956 . S
C446 H459 0.961 . S
C446 H460 0.961 . S
C447 C444 1.539 . S
C447 H461 0.958 . S
C447 H462 0.961 . S
C447 H463 0.960 . S
H448 C432 0.931 1_545 S
H449 C437 0.929 . S
H450 C438 0.960 . S
H451 C438 0.962 . S
H452 C438 0.960 . S
H453 C439 0.961 . S
H454 C439 0.961 . S
H455 C439 0.961 . S
H456 C440 0.931 . S
H457 C445 0.930 . S
H458 C446 0.956 . S
H459 C446 0.961 . S
H460 C446 0.961 . S
H461 C447 0.958 . S
H462 C447 0.961 . S
H463 C447 0.960 . S
C464 C465 1.391 . S
C464 C466 1.394 1_565 S
C464 H480 0.931 1_565 S
C465 C464 1.391 . S
C465 C469 1.376 . S
C466 C464 1.394 1_545 S
C466 C467 1.369 1_545 S
C466 C470 1.531 . S
C467 C466 1.369 1_565 S
C467 C468 1.410 . S
C467 C475 1.503 1_565 S
C468 C467 1.410 . S
C468 C469 1.392 . S
C468 C471 1.511 . S
C469 C465 1.376 . S
C469 C468 1.392 . S
C469 H481 0.929 . S
C470 C466 1.531 . S
C470 H482 0.960 . S
C470 H483 0.962 . S
C470 H484 0.960 . S
C471 C468 1.511 . S
C471 H485 0.961 . S
C471 H486 0.961 . S
C471 H487 0.961 . S
C472 C473 1.370 . S
C472 C474 1.363 . S
C472 H488 0.931 . S
C473 C472 1.370 . S
C473 C477 1.408 . S
C474 C472 1.363 . S
C474 C475 1.370 . S
C474 C478 1.524 . S
C475 C467 1.503 1_545 S
C475 C474 1.370 . S
C475 C476 1.403 . S
C476 C475 1.403 . S
C476 C477 1.404 . S
C476 C479 1.539 1_545 S
C477 C473 1.408 . S
C477 C476 1.404 . S
C477 H489 0.930 . S
C478 C474 1.524 . S
C478 H490 0.956 . S
C478 H491 0.961 . S
C478 H492 0.961 . S
C479 C476 1.539 1_565 S
C479 H493 0.958 . S
C479 H494 0.961 . S
C479 H495 0.960 . S
H480 C464 0.931 1_545 S
H481 C469 0.929 . S
H482 C470 0.960 . S
H483 C470 0.962 . S
H484 C470 0.960 . S
H485 C471 0.961 . S
H486 C471 0.961 . S
H487 C471 0.961 . S
H488 C472 0.931 . S
H489 C477 0.930 . S
H490 C478 0.956 . S
H491 C478 0.961 . S
H492 C478 0.961 . S
H493 C479 0.958 . S
H494 C479 0.961 . S
H495 C479 0.960 . S
C496 C497 1.391 . S
C496 C498 1.394 . S
C496 H512 0.931 . S
C497 C496 1.391 . S
C497 C501 1.376 1_554 S
C498 C496 1.394 . S
C498 C499 1.369 . S
C498 C502 1.531 . S
C499 C498 1.369 . S
C499 C500 1.410 1_554 S
C499 C507 1.503 1_565 S
C500 C499 1.410 1_556 S
C500 C501 1.392 . S
C500 C503 1.511 . S
C501 C497 1.376 1_556 S
C501 C500 1.392 . S
C501 H513 0.929 . S
C502 C498 1.531 . S
C502 H514 0.960 . S
C502 H515 0.962 . S
C502 H516 0.960 . S
C503 C500 1.511 . S
C503 H517 0.961 . S
C503 H518 0.961 1_565 S
C503 H519 0.961 . S
C504 C505 1.370 . S
C504 C506 1.363 . S
C504 H520 0.931 . S
C505 C504 1.370 . S
C505 C509 1.415 . S
C506 C504 1.363 . S
C506 C507 1.370 . S
C506 C510 1.524 . S
C507 C499 1.503 1_545 S
C507 C506 1.370 . S
C507 C508 1.395 1_554 S
C508 C507 1.395 1_556 S
C508 C509 1.403 1_556 S
C508 C511 1.548 1_545 S
C509 C505 1.415 . S
C509 C508 1.403 1_554 S
C509 H521 0.924 1_554 S
C510 C506 1.524 . S
C510 H522 0.956 . S
C510 H523 0.961 . S
C510 H524 0.961 . S
C511 C508 1.548 1_565 S
C511 H525 0.958 . S
C511 H526 0.961 1_565 S
C511 H527 0.960 . S
H512 C496 0.931 . S
H513 C501 0.929 . S
H514 C502 0.960 . S
H515 C502 0.962 . S
H516 C502 0.960 . S
H517 C503 0.961 . S
H518 C503 0.961 1_545 S
H519 C503 0.961 . S
H520 C504 0.931 . S
H521 C509 0.924 1_556 S
H522 C510 0.956 . S
H523 C510 0.961 . S
H524 C510 0.961 . S
H525 C511 0.958 . S
H526 C511 0.961 1_545 S
H527 C511 0.960 . S
C528 C529 1.391 . S
C528 C530 1.394 . S
C528 H544 0.931 . S
C529 C528 1.391 . S
C529 C533 1.376 . S
C530 C528 1.394 . S
C530 C531 1.369 . S
C530 C534 1.531 . S
C531 C530 1.369 . S
C531 C532 1.410 . S
C531 C539 1.503 1_565 S
C532 C531 1.410 . S
C532 C533 1.392 . S
C532 C535 1.511 . S
C533 C529 1.376 . S
C533 C532 1.392 . S
C533 H545 0.929 . S
C534 C530 1.531 . S
C534 H546 0.960 . S
C534 H547 0.962 . S
C534 H548 0.960 . S
C535 C532 1.511 . S
C535 H549 0.961 . S
C535 H550 0.961 1_565 S
C535 H551 0.961 . S
C536 C537 1.370 . S
C536 C538 1.363 . S
C536 H552 0.931 . S
C537 C536 1.370 . S
C537 C541 1.408 . S
C538 C536 1.363 . S
C538 C539 1.370 . S
C538 C542 1.524 . S
C539 C531 1.503 1_545 S
C539 C538 1.370 . S
C539 C540 1.403 . S
C540 C539 1.403 . S
C540 C541 1.404 . S
C540 C543 1.539 1_545 S
C541 C537 1.408 . S
C541 C540 1.404 . S
C541 H553 0.930 . S
C542 C538 1.524 . S
C542 H554 0.956 . S
C542 H555 0.961 . S
C542 H556 0.961 . S
C543 C540 1.539 1_565 S
C543 H557 0.958 . S
C543 H558 0.961 1_565 S
C543 H559 0.960 . S
H544 C528 0.931 . S
H545 C533 0.929 . S
H546 C534 0.960 . S
H547 C534 0.962 . S
H548 C534 0.960 . S
H549 C535 0.961 . S
H550 C535 0.961 1_545 S
H551 C535 0.961 . S
H552 C536 0.931 . S
H553 C541 0.930 . S
H554 C542 0.956 . S
H555 C542 0.961 . S
H556 C542 0.961 . S
H557 C543 0.958 . S
H558 C543 0.961 1_545 S
H559 C543 0.960 . S
C560 C561 1.391 . S
C560 C562 1.394 . S
C560 H576 0.931 . S
C561 C560 1.391 . S
C561 C565 1.376 . S
C562 C560 1.394 . S
C562 C563 1.369 . S
C562 C566 1.531 . S
C563 C562 1.369 . S
C563 C564 1.410 1_455 S
C563 C571 1.503 1_455 S
C564 C563 1.410 1_655 S
C564 C565 1.392 1_655 S
C564 C567 1.511 1_554 S
C565 C561 1.376 . S
C565 C564 1.392 1_455 S
C565 H577 0.929 1_454 S
C566 C562 1.531 . S
C566 H578 0.960 . S
C566 H579 0.962 . S
C566 H580 0.960 . S
C567 C564 1.511 1_556 S
C567 H581 0.961 . S
C567 H582 0.961 . S
C567 H583 0.961 1_556 S
C568 C569 1.370 1_556 S
C568 C570 1.363 . S
C568 H584 0.931 . S
C569 C568 1.370 1_554 S
C569 C573 1.408 . S
C570 C568 1.363 . S
C570 C571 1.370 1_556 S
C570 C574 1.524 1_655 S
C571 C563 1.503 1_655 S
C571 C570 1.370 1_554 S
C571 C572 1.403 . S
C572 C571 1.403 . S
C572 C573 1.404 . S
C572 C575 1.539 . S
C573 C569 1.408 . S
C573 C572 1.404 . S
C573 H585 0.930 . S
C574 C570 1.524 1_455 S
C574 H586 0.956 . S
C574 H587 0.961 . S
C574 H588 0.961 . S
C575 C572 1.539 . S
C575 H589 0.958 . S
C575 H590 0.961 . S
C575 H591 0.960 . S
H576 C560 0.931 . S
H577 C565 0.929 1_656 S
H578 C566 0.960 . S
H579 C566 0.962 . S
H580 C566 0.960 . S
H581 C567 0.961 . S
H582 C567 0.961 . S
H583 C567 0.961 1_554 S
H584 C568 0.931 . S
H585 C573 0.930 . S
H586 C574 0.956 . S
H587 C574 0.961 . S
H588 C574 0.961 . S
H589 C575 0.958 . S
H590 C575 0.961 . S
H591 C575 0.960 . S
C592 C593 1.391 . S
C592 C594 1.394 . S
C592 H608 0.931 . S
C593 C592 1.391 . S
C593 C597 1.376 . S
C594 C592 1.394 . S
C594 C595 1.369 . S
C594 C598 1.531 . S
C595 C594 1.369 . S
C595 C596 1.410 1_455 S
C595 C603 1.503 1_455 S
C596 C595 1.410 1_655 S
C596 C597 1.392 1_655 S
C596 C599 1.511 . S
C597 C593 1.376 . S
C597 C596 1.392 1_455 S
C597 H609 0.929 1_455 S
C598 C594 1.531 . S
C598 H610 0.960 . S
C598 H611 0.962 . S
C598 H612 0.960 . S
C599 C596 1.511 . S
C599 H613 0.961 . S
C599 H614 0.961 . S
C599 H615 0.961 . S
C600 C601 1.370 . S
C600 C602 1.363 . S
C600 H616 0.931 . S
C601 C600 1.370 . S
C601 C605 1.408 . S
C602 C600 1.363 . S
C602 C603 1.370 . S
C602 C606 1.524 1_655 S
C603 C595 1.503 1_655 S
C603 C602 1.370 . S
C603 C604 1.403 . S
C604 C603 1.403 . S
C604 C605 1.404 . S
C604 C607 1.539 . S
C605 C601 1.408 . S
C605 C604 1.404 . S
C605 H617 0.930 . S
C606 C602 1.524 1_455 S
C606 H618 0.956 . S
C606 H619 0.961 . S
C606 H620 0.961 . S
C607 C604 1.539 . S
C607 H621 0.958 . S
C607 H622 0.961 . S
C607 H623 0.960 . S
H608 C592 0.931 . S
H609 C597 0.929 1_655 S
H610 C598 0.960 . S
H611 C598 0.962 . S
H612 C598 0.960 . S
H613 C599 0.961 . S
H614 C599 0.961 . S
H615 C599 0.961 . S
H616 C600 0.931 . S
H617 C605 0.930 . S
H618 C606 0.956 . S
H619 C606 0.961 . S
H620 C606 0.961 . S
H621 C607 0.958 . S
H622 C607 0.961 . S
H623 C607 0.960 . S
C113 C74 1.480 . S
C121 C4 1.490 . S
C145 C60 1.501 . S
C153 C18 1.487 . S
C177 C102 1.476 . S
C185 C32 1.488 . S
C209 C88 1.461 . S
C217 C46 1.472 . S
C241 C12 1.403 . S
C249 C40 1.403 . S
C273 C26 1.389 . S
C281 C54 1.397 . S
C305 C19 1.194 . S
C313 C47 1.223 . S
C337 C5 1.289 . S
C345 C33 1.273 . S
C369 C68 1.389 . S
C377 C96 1.397 . S
C401 C110 1.389 . S
C409 C82 1.397 . S
C433 C103 1.287 . S
C441 C75 1.273 . S
C465 C61 1.304 . S
C473 C89 1.265 . S
C497 C25 1.522 . S
C505 C11 1.503 . S
C529 C39 1.521 . S
C537 C53 1.501 . S
C561 C67 1.494 . S
C569 C81 1.493 . S
C593 C95 1.492 . S
C601 C109 1.493 . S
