# Generated by pormake.
# Topology umy, (4)-cn, num edge types: 1
# Building blocks:
#     Node 0, Type 0, BuildingBlock: KUFVIS_clean_sbu_0, # of connection points: 4
#     Node 1, Type 0, BuildingBlock: KUFVIS_clean_sbu_0, # of connection points: 4
#     Node 2, Type 0, BuildingBlock: KUFVIS_clean_sbu_0, # of connection points: 4
#     Node 3, Type 0, BuildingBlock: KUFVIS_clean_sbu_0, # of connection points: 4
#     Node 4, Type 0, BuildingBlock: KUFVIS_clean_sbu_0, # of connection points: 4
#     Node 5, Type 0, BuildingBlock: KUFVIS_clean_sbu_0, # of connection points: 4
#     Node 6, Type 0, BuildingBlock: KUFVIS_clean_sbu_0, # of connection points: 4
#     Node 7, Type 0, BuildingBlock: KUFVIS_clean_sbu_0, # of connection points: 4
#     Node 8, Type 0, BuildingBlock: KUFVIS_clean_sbu_0, # of connection points: 4
#     Node 9, Type 0, BuildingBlock: KUFVIS_clean_sbu_0, # of connection points: 4
#     Node 10, Type 0, BuildingBlock: KUFVIS_clean_sbu_0, # of connection points: 4
#     Node 11, Type 0, BuildingBlock: KUFVIS_clean_sbu_0, # of connection points: 4
#     Edge 12, Type (0, 0), BuildingBlock: OJICUG_clean_linker_0, # of connection points: 2
#     Edge 13, Type (0, 0), BuildingBlock: OJICUG_clean_linker_0, # of connection points: 2
#     Edge 14, Type (0, 0), BuildingBlock: OJICUG_clean_linker_0, # of connection points: 2
#     Edge 15, Type (0, 0), BuildingBlock: OJICUG_clean_linker_0, # of connection points: 2
#     Edge 16, Type (0, 0), BuildingBlock: OJICUG_clean_linker_0, # of connection points: 2
#     Edge 17, Type (0, 0), BuildingBlock: OJICUG_clean_linker_0, # of connection points: 2
#     Edge 18, Type (0, 0), BuildingBlock: OJICUG_clean_linker_0, # of connection points: 2
#     Edge 19, Type (0, 0), BuildingBlock: OJICUG_clean_linker_0, # of connection points: 2
#     Edge 20, Type (0, 0), BuildingBlock: OJICUG_clean_linker_0, # of connection points: 2
#     Edge 21, Type (0, 0), BuildingBlock: OJICUG_clean_linker_0, # of connection points: 2
#     Edge 22, Type (0, 0), BuildingBlock: OJICUG_clean_linker_0, # of connection points: 2
#     Edge 23, Type (0, 0), BuildingBlock: OJICUG_clean_linker_0, # of connection points: 2
#     Edge 24, Type (0, 0), BuildingBlock: OJICUG_clean_linker_0, # of connection points: 2
#     Edge 25, Type (0, 0), BuildingBlock: OJICUG_clean_linker_0, # of connection points: 2
#     Edge 26, Type (0, 0), BuildingBlock: OJICUG_clean_linker_0, # of connection points: 2
#     Edge 27, Type (0, 0), BuildingBlock: OJICUG_clean_linker_0, # of connection points: 2
#     Edge 28, Type (0, 0), BuildingBlock: OJICUG_clean_linker_0, # of connection points: 2
#     Edge 29, Type (0, 0), BuildingBlock: OJICUG_clean_linker_0, # of connection points: 2
#     Edge 30, Type (0, 0), BuildingBlock: OJICUG_clean_linker_0, # of connection points: 2
#     Edge 31, Type (0, 0), BuildingBlock: OJICUG_clean_linker_0, # of connection points: 2
#     Edge 32, Type (0, 0), BuildingBlock: OJICUG_clean_linker_0, # of connection points: 2
#     Edge 33, Type (0, 0), BuildingBlock: OJICUG_clean_linker_0, # of connection points: 2
#     Edge 34, Type (0, 0), BuildingBlock: OJICUG_clean_linker_0, # of connection points: 2
#     Edge 35, Type (0, 0), BuildingBlock: OJICUG_clean_linker_0, # of connection points: 2
# Relax obj value: 0.090
# Max RMSD: 0.078
# Mean RMSD: 0.078
data_MOF--net-umy--node1-KUFVIS_clean_sbu_0--edge1-OJICUG_clean_linker_0
_symmetry_space_group_name_H-M    P1
_symmetry_Int_Tables_number       1
_symmetry_cell_setting            triclinic
loop_
_symmetry_equiv_pos_as_xyz
'x, y, z'
_cell_length_a     27.478279
_cell_length_b     27.477006
_cell_length_c     38.306639
_cell_angle_alpha  90.047993
_cell_angle_beta   90.169063
_cell_angle_gamma 119.97686
loop_
_atom_site_label
_atom_site_type_symbol
_atom_site_fract_x
_atom_site_fract_y
_atom_site_fract_z
_atom_type_partial_charge
Mn0 Mn 0.11214 0.36755 0.12515 0.0
Mn1 Mn 0.23978 0.48453 0.12431 0.0
C2 C 0.17764 0.37812 0.16756 0.0
C3 C 1.01977 0.31579 0.14558 0.0
C4 C 0.20219 0.38977 0.07133 0.0
O5 O 0.09706 0.42283 0.09804 0.0
O6 O 0.18225 0.50088 0.10468 0.0
C7 C 0.23767 0.57433 0.16509 0.0
N8 N 0.2586 0.53919 0.16034 0.0
C9 C 0.34203 0.60075 0.19325 0.0
C10 C 0.32174 0.63809 0.19758 0.0
C11 C 0.2689 0.62434 0.18399 0.0
C12 C 0.30947 0.55209 0.17359 0.0
H13 H 0.19882 0.56574 0.1531 0.0
C14 C 0.13027 0.47584 0.09568 0.0
O15 O 0.03468 0.30206 0.11679 0.0
O16 O 0.05727 0.36076 0.16134 0.0
N17 N 0.29744 0.47319 0.14383 0.0
C18 C 0.31154 0.43346 0.13595 0.0
C19 C 0.36044 0.43763 0.15053 0.0
C20 C 0.39486 0.48323 0.17241 0.0
C21 C 0.37929 0.52352 0.1801 0.0
C22 C 0.329 0.51588 0.16586 0.0
H23 H 0.28583 0.3991 0.11853 0.0
O24 O 0.13908 0.32931 0.15636 0.0
O25 O 0.18014 0.42144 0.15158 0.0
O26 O 0.15414 0.356 0.08394 0.0
O27 O 0.23325 0.438 0.08427 0.0
C28 C 0.41213 0.57152 0.20074 0.0
C29 C 0.39419 0.61084 0.20654 0.0
H30 H 0.34645 0.67771 0.21102 0.0
H31 H 0.25301 0.65302 0.18723 0.0
H32 H 0.37212 0.40638 0.1444 0.0
H33 H 0.43319 0.487 0.183 0.0
H34 H 0.45179 0.57924 0.21164 0.0
H35 H 0.42086 0.64867 0.22128 0.0
Mn36 Mn 0.76719 0.108 0.29115 0.0
Mn37 Mn 0.76756 0.2302 0.28542 0.0
C38 C 0.81703 0.17987 0.33163 0.0
C39 C 0.73183 1.01739 0.31368 0.0
C40 C 0.82775 0.19442 0.23418 0.0
O41 O 0.69569 0.08712 0.26233 0.0
O42 O 0.69451 0.16886 0.26805 0.0
C43 C 0.6769 0.22443 0.32896 0.0
N44 N 0.7329 0.24721 0.32291 0.0
C45 C 0.75411 0.32923 0.35695 0.0
C46 C 0.69651 0.30723 0.36253 0.0
C47 C 0.65786 0.25398 0.34929 0.0
C48 C 0.77065 0.29763 0.33672 0.0
H49 H 0.64675 0.18538 0.31691 0.0
C50 C 0.67157 0.11677 0.25955 0.0
O51 O 0.76157 0.0327 0.28539 0.0
O52 O 0.72042 0.05341 0.3278 0.0
N53 N 0.83687 0.29065 0.30292 0.0
C54 C 0.89046 0.30819 0.29236 0.0
C55 C 0.93491 0.35819 0.30601 0.0
C56 C 0.92363 0.39038 0.32961 0.0
C57 C 0.86811 0.37146 0.33996 0.0
C58 C 0.82596 0.31973 0.32695 0.0
H59 H 0.89935 0.28439 0.27366 0.0
O60 O 0.83167 0.14264 0.32495 0.0
O61 O 0.77518 0.1751 0.31341 0.0
O62 O 0.82023 0.15061 0.25017 0.0
O63 O 0.8054 0.22265 0.24432 0.0
C64 C 0.85259 0.40305 0.36137 0.0
C65 C 0.79546 0.38281 0.3688 0.0
H66 H 0.6813 0.33118 0.3765 0.0
H67 H 0.61332 0.23678 0.35358 0.0
H68 H 0.97757 0.3725 0.29772 0.0
H69 H 0.95778 0.42987 0.33923 0.0
H70 H 0.88398 0.44394 0.37107 0.0
H71 H 0.78384 0.40935 0.38316 0.0
Mn72 Mn 0.6867 0.76014 0.45873 0.0
Mn73 Mn 0.57294 0.77703 0.45906 0.0
C74 C 0.6811 0.81939 0.49969 0.0
C75 C 0.73572 0.71692 0.4805 0.0
C76 C 0.66489 0.82796 0.40424 0.0
O77 O 0.62788 0.68993 0.43284 0.0
O78 O 0.55265 0.70208 0.43938 0.0
C79 C 0.48289 0.68813 0.50105 0.0
N80 N 0.52052 0.74363 0.4963 0.0
C81 C 0.46822 0.77031 0.53453 0.0
C82 C 0.42835 0.71348 0.53894 0.0
C83 C 0.43607 0.67219 0.52249 0.0
C84 C 0.51288 0.78367 0.51179 0.0
H85 H 0.48698 0.6563 0.48727 0.0
C86 C 0.57531 0.67292 0.43037 0.0
O87 O 0.74964 0.74372 0.45102 0.0
O88 O 0.69184 0.71238 0.49593 0.0
N89 N 0.58877 0.8475 0.47874 0.0
C90 C 0.62905 0.90047 0.4697 0.0
C91 C 0.63016 0.94678 0.48606 0.0
C92 C 0.58929 0.93811 0.51106 0.0
C93 C 0.54826 0.88317 0.51987 0.0
C94 C 0.55034 0.83874 0.50344 0.0
H95 H 0.66005 0.90729 0.45015 0.0
O96 O 0.72888 0.82653 0.48883 0.0
O97 O 0.63637 0.77868 0.48477 0.0
O98 O 0.69796 0.81214 0.41646 0.0
O99 O 0.61829 0.81439 0.41838 0.0
C100 C 0.50495 0.87068 0.54397 0.0
C101 C 0.46428 0.81427 0.55074 0.0
H102 H 0.39139 0.70095 0.55471 0.0
H103 H 0.40536 0.62818 0.52575 0.0
H104 H 0.66199 0.98903 0.47909 0.0
H105 H 0.58966 0.97388 0.52324 0.0
H106 H 0.50187 0.90412 0.55688 0.0
H107 H 0.43009 0.8052 0.5684 0.0
Mn108 Mn 0.9459 0.67356 0.62806 0.0
Mn109 Mn 0.82237 0.55244 0.625 0.0
C110 C 0.87715 0.65499 0.66983 0.0
C111 C 0.03775 0.72665 0.64955 0.0
C112 C 0.85561 0.64772 0.57314 0.0
O113 O 0.96432 0.62215 0.59881 0.0
O114 O 0.88216 0.54032 0.60528 0.0
C115 C 0.8335 0.46957 0.66805 0.0
N116 N 0.80853 0.50091 0.66212 0.0
C117 C 0.72984 0.44004 0.69821 0.0
C118 C 0.75428 0.40658 0.70406 0.0
C119 C 0.80698 0.42218 0.68966 0.0
C120 C 0.75881 0.48746 0.67709 0.0
H121 H 0.87222 0.47938 0.65533 0.0
C122 C 0.93373 0.56867 0.59583 0.0
O123 O 1.02221 0.74189 0.62154 0.0
O124 O 1.0011 0.68005 0.66398 0.0
N125 N 0.76293 0.56066 0.64456 0.0
C126 C 0.74413 0.59624 0.63513 0.0
C127 C 0.69445 0.58955 0.64987 0.0
C128 C 0.66396 0.54561 0.67345 0.0
C129 C 0.68426 0.50962 0.68269 0.0
C130 C 0.73541 0.52003 0.66844 0.0
H131 H 0.76657 0.62914 0.61632 0.0
O132 O 0.91469 0.70612 0.66184 0.0
O133 O 0.8794 0.61603 0.65196 0.0
O134 O 0.90173 0.6837 0.58743 0.0
O135 O 0.82671 0.59798 0.58458 0.0
C136 C 0.65457 0.46237 0.70422 0.0
C137 C 0.67651 0.42663 0.71096 0.0
H138 H 0.73257 0.36831 0.71909 0.0
H139 H 0.82606 0.39649 0.69409 0.0
H140 H 0.67889 0.6172 0.64241 0.0
H141 H 0.62473 0.53949 0.68394 0.0
H142 H 0.61395 0.45202 0.7147 0.0
H143 H 0.65134 0.38831 0.72535 0.0
Mn144 Mn 0.29619 0.92441 0.79807 0.0
Mn145 Mn 0.26638 0.78963 0.8001 0.0
C146 C 0.23181 0.86241 0.83857 0.0
C147 C 0.33875 1.0167 0.81923 0.0
C148 C 0.22365 0.83543 0.74357 0.0
O149 O 0.36783 0.93129 0.77618 0.0
O150 O 0.34022 0.83911 0.77854 0.0
C151 C 0.35628 0.79137 0.84327 0.0
N152 N 0.30067 0.7708 0.8369 0.0
C153 C 0.27547 0.68801 0.87083 0.0
C154 C 0.33274 0.70612 0.87516 0.0
C155 C 0.37329 0.75873 0.86217 0.0
C156 C 0.26126 0.72144 0.8507 0.0
H157 H 0.38739 0.83151 0.83303 0.0
C158 C 0.37681 0.89018 0.77168 0.0
O159 O 0.31759 1.00433 0.78802 0.0
O160 O 0.33983 0.97698 0.83676 0.0
N161 N 0.19672 0.73753 0.82122 0.0
C162 C 0.14371 0.72592 0.81315 0.0
C163 C 0.09773 0.67895 0.82827 0.0
C164 C 0.10687 0.64367 0.85063 0.0
C165 C 0.162 0.65639 0.85821 0.0
C166 C 0.20598 0.70488 0.84342 0.0
H167 H 0.13675 0.75193 0.79498 0.0
O168 O 0.22724 0.90341 0.82535 0.0
O169 O 0.27099 0.85472 0.82509 0.0
O170 O 0.24829 0.88646 0.75366 0.0
O171 O 0.22759 0.79784 0.76018 0.0
C172 C 0.1752 0.62238 0.87916 0.0
C173 C 0.2319 0.63749 0.88476 0.0
H174 H 0.34623 0.68022 0.88852 0.0
H175 H 0.41753 0.77361 0.8662 0.0
H176 H 0.05539 0.66926 0.82202 0.0
H177 H 0.07133 0.6067 0.86158 0.0
H178 H 0.14213 0.58401 0.89055 0.0
H179 H 0.2415 0.61018 0.90001 0.0
Mn180 Mn 0.37397 0.2759 0.96012 0.0
Mn181 Mn 0.49369 0.27229 0.95133 0.0
C182 C 0.39741 0.22845 0.00157 0.0
C183 C 0.3225 0.3158 0.98268 0.0
C184 C 0.39314 0.20989 0.90358 0.0
O185 O 0.42256 0.34378 0.92839 0.0
O186 O 0.50533 0.34467 0.93314 0.0
C187 C 0.58208 0.36477 -0.00749 0.0
N188 N 0.54839 0.30852 0.98727 0.0
C189 C 0.6105 0.28835 0.02071 0.0
C190 C 0.64653 0.34614 0.02552 0.0
C191 C 0.63164 0.38444 0.01206 0.0
C192 C 0.56152 0.27119 0.00111 0.0
H193 H 0.5726 0.39455 0.9805 0.0
C194 C 0.47596 0.36715 0.92431 0.0
O195 O 0.30494 0.28314 0.95553 0.0
O196 O 0.37083 0.32738 -0.00449 0.0
N197 N 0.48572 0.20364 0.96918 0.0
C198 C 0.44968 0.14974 0.95892 0.0
C199 C 0.45642 0.10585 0.97219 0.0
C200 C 0.50103 0.11796 -0.00488 0.0
C201 C 0.53788 0.17379 0.00501 0.0
C202 C 0.52751 0.2155 -0.00783 0.0
H203 H 0.41622 0.14016 0.94063 0.0
O204 O 0.34561 0.21501 -0.00425 0.0
O205 O 0.43391 0.26782 0.98156 0.0
O206 O 0.35874 0.21806 0.92125 0.0
O207 O 0.44486 0.23287 0.91129 0.0
C208 C 0.58577 0.18996 0.0259 0.0
C209 C 0.62287 0.2473 0.03289 0.0
H210 H 0.6861 0.36176 0.0392 0.0
H211 H 0.65928 0.42911 0.01576 0.0
H212 H 0.42803 0.06296 0.96418 0.0
H213 H 0.50705 0.08418 0.00458 0.0
H214 H 0.59557 0.15884 0.03567 0.0
H215 H 0.66123 0.2593 0.04724 0.0
Mn216 Mn 0.6896 0.94606 0.68811 0.0
Mn217 Mn 0.58955 0.80937 0.68719 0.0
C218 C 0.6864 0.88803 0.64301 0.0
C219 C 0.73193 0.03923 0.66922 0.0
C220 C 0.69046 0.85493 0.73393 0.0
O221 O 0.62935 0.94895 0.71771 0.0
O222 O 0.57147 0.85514 0.71884 0.0
C223 C 0.48903 0.8113 0.66126 0.0
N224 N 0.52588 0.79198 0.6586 0.0
C225 C 0.4598 0.71196 0.62484 0.0
C226 C 0.42079 0.73051 0.62778 0.0
C227 C 0.43589 0.78096 0.64546 0.0
C228 C 0.51221 0.74424 0.64078 0.0
H229 H 0.49936 0.84854 0.67622 0.0
C230 C 0.58422 0.90528 0.72744 0.0
O231 O 0.74874 0.02598 0.69747 0.0
O232 O 0.68782 0.9996 0.65386 0.0
N233 N 0.60043 0.76028 0.65714 0.0
C234 C 0.64469 0.75127 0.65486 0.0
C235 C 0.63989 0.70709 0.63393 0.0
C236 C 0.58891 0.6715 0.61669 0.0
C237 C 0.54398 0.68187 0.61951 0.0
C238 C 0.55231 0.72812 0.63937 0.0
H239 H 0.6833 0.77794 0.66869 0.0
O240 O 0.73336 0.92972 0.65419 0.0
O241 O 0.64145 0.87726 0.66058 0.0
O242 O 0.70931 0.90689 0.72779 0.0
O243 O 0.64872 0.81622 0.71802 0.0
C244 C 0.49118 0.64817 0.60363 0.0
C245 C 0.44858 0.66228 0.60724 0.0
H246 H 0.37922 0.70656 0.61645 0.0
H247 H 0.40606 0.79561 0.64769 0.0
H248 H 0.67514 0.70017 0.63146 0.0
H249 H 0.58491 0.63668 0.6012 0.0
H250 H 0.48275 0.61115 0.58881 0.0
H251 H 0.40769 0.63526 0.59569 0.0
Mn252 Mn 0.76546 0.66118 0.85316 0.0
Mn253 Mn 0.76668 0.54008 0.8614 0.0
C254 C 0.82285 0.64432 0.81612 0.0
C255 C 0.73869 0.7201 0.82494 0.0
C256 C 0.81943 0.63499 0.91438 0.0
O257 O 0.68851 0.60989 0.87528 0.0
O258 O 0.6927 0.52964 0.8762 0.0
C259 C 0.67734 0.45479 0.81672 0.0
N260 N 0.73292 0.48607 0.82482 0.0
C261 C 0.75271 0.41999 0.79588 0.0
C262 C 0.69546 0.38654 0.78806 0.0
C263 C 0.65774 0.40442 0.79807 0.0
C264 C 0.76959 0.46927 0.81502 0.0
H265 H 0.64784 0.46689 0.82575 0.0
C266 C 0.66669 0.55706 0.88065 0.0
O267 O 0.75859 0.73079 0.85652 0.0
O268 O 0.72991 0.67326 0.8113 0.0
N269 N 0.83565 0.54517 0.84738 0.0
C270 C 0.88892 0.58112 0.85864 0.0
C271 C 0.9327 0.57175 0.84871 0.0
C272 C 0.92107 0.52508 0.82781 0.0
C273 C 0.8658 0.48872 0.8166 0.0
C274 C 0.82423 0.50111 0.82658 0.0
H275 H 0.89779 0.61629 0.87535 0.0
O276 O 0.83732 0.69419 0.82765 0.0
O277 O 0.77838 0.60355 0.83099 0.0
O278 O 0.80826 0.66931 0.89915 0.0
O279 O 0.80355 0.58659 0.90216 0.0
C280 C 0.85009 0.44028 0.79633 0.0
C281 C 0.79336 0.40524 0.78668 0.0
H282 H 0.6799 0.34701 0.77433 0.0
H283 H 0.61346 0.37879 0.79206 0.0
H284 H 0.97504 0.59979 0.85776 0.0
H285 H 0.95482 0.51748 0.82067 0.0
H286 H 0.88107 0.429 0.7886 0.0
H287 H 0.78149 0.36703 0.7722 0.0
Mn288 Mn 0.10123 0.75445 0.02638 0.0
Mn289 Mn 0.22983 0.76684 0.02733 0.0
C290 C 0.1657 0.80808 0.98349 0.0
C291 C 1.00832 0.71156 0.00632 0.0
C292 C 0.19289 0.82561 0.07916 0.0
O293 O 0.08779 0.68552 0.05459 0.0
O294 O 0.17402 0.69486 0.04916 0.0
C295 C 0.22603 0.67174 0.98968 0.0
N296 N 0.24699 0.72815 -0.0075 0.0
C297 C 0.33019 0.74721 0.96072 0.0
C298 C 0.31018 0.6893 0.95879 0.0
C299 C 0.25734 0.65141 0.97259 0.0
C300 C 0.29748 0.76496 0.97856 0.0
H301 H 0.18719 0.64252 0.00199 0.0
C302 C 0.12231 0.66745 0.05826 0.0
O303 O 1.02346 0.7416 0.03463 0.0
O304 O 0.046 0.70427 0.99082 0.0
N305 N 0.28634 0.83417 0.0059 0.0
C306 C 0.30107 0.88855 0.01253 0.0
C307 C 0.3498 0.93204 -0.0028 0.0
C308 C 0.38364 0.91907 0.97614 0.0
C309 C 0.36761 0.86266 0.96996 0.0
C310 C 0.3172 0.82127 0.98456 0.0
H311 H 0.27608 0.89852 0.02964 0.0
O312 O 0.12665 0.81811 -0.00618 0.0
O313 O 0.16881 0.76821 0.00024 0.0
O314 O 0.144 0.80986 0.06705 0.0
O315 O 0.22446 0.80942 0.06596 0.0
C316 C 0.40041 0.84576 0.95088 0.0
C317 C 0.38248 0.78809 0.94718 0.0
H318 H 0.33531 0.67332 0.94727 0.0
H319 H 0.24164 0.60665 0.97113 0.0
H320 H 0.36199 0.97542 0.0023 0.0
H321 H 0.42206 0.95272 0.96518 0.0
H322 H 0.44024 0.87672 0.93984 0.0
H323 H 0.40933 0.77566 0.93394 0.0
Mn324 Mn 0.37743 0.11139 0.18732 0.0
Mn325 Mn 0.50053 0.23255 0.19161 0.0
C326 C 0.39967 0.18214 0.1461 0.0
C327 C 0.32034 0.02032 0.16574 0.0
C328 C 0.40619 0.19985 0.2437 0.0
O329 O 0.42778 0.09016 0.21602 0.0
O330 O 0.5113 0.17084 0.20943 0.0
C331 C 0.58249 0.22274 0.14726 0.0
N332 N 0.55052 0.24689 0.15354 0.0
C333 C 0.60919 0.32542 0.11662 0.0
C334 C 0.6435 0.302 0.11069 0.0
C335 C 0.62933 0.2498 0.12534 0.0
C336 C 0.56283 0.29635 0.13855 0.0
H337 H 0.57396 0.18451 0.16019 0.0
C338 C 0.48162 0.11908 0.2184 0.0
O339 O 0.30717 0.03703 0.194 0.0
O340 O 0.36757 0.0552 0.15109 0.0
N341 N 0.49258 0.29324 0.17364 0.0
C342 C 0.45827 0.31273 0.18464 0.0
C343 C 0.46395 0.36223 0.17019 0.0
C344 C 0.50568 0.39188 0.14518 0.0
C345 C 0.54054 0.37104 0.13439 0.0
C346 C 0.5311 0.32006 0.14851 0.0
H347 H 0.42679 0.29079 0.20426 0.0
O348 O 0.34778 0.1459 0.15334 0.0
O349 O 0.43663 0.17723 0.16434 0.0
O350 O 0.36916 0.15583 0.22812 0.0
O351 O 0.45653 0.2274 0.23308 0.0
C352 C 0.58576 0.40001 0.1113 0.0
C353 C 0.62107 0.37806 0.10332 0.0
H354 H 0.68141 0.32412 0.09539 0.0
H355 H 0.6557 0.23152 0.12081 0.0
H356 H 0.43695 0.37804 0.17879 0.0
H357 H 0.51102 0.4309 0.13478 0.0
H358 H 0.59503 0.44021 0.10058 0.0
H359 H 0.65784 0.40262 0.08745 0.0
Mn360 Mn 0.29381 0.36959 0.35564 0.0
Mn361 Mn 0.27978 0.48471 0.3561 0.0
C362 C 0.23831 0.37868 0.31304 0.0
C363 C 0.33687 0.32001 0.33503 0.0
C364 C 0.22306 0.38971 0.40861 0.0
O365 O 0.36284 0.42578 0.38355 0.0
O366 O 0.35266 0.50216 0.37766 0.0
C367 C 0.37315 0.57394 0.31619 0.0
N368 N 0.31693 0.53924 0.32045 0.0
C369 C 0.29612 0.60031 0.28641 0.0
C370 C 0.3539 0.63739 0.28263 0.0
C371 C 0.39253 0.62357 0.29692 0.0
C372 C 0.27938 0.55176 0.30614 0.0
H373 H 0.40301 0.56512 0.32867 0.0
C374 C 0.38046 0.47828 0.38705 0.0
O375 O 0.30781 0.30524 0.36363 0.0
O376 O 0.34341 0.36483 0.31971 0.0
N377 N 0.21154 0.47271 0.33505 0.0
C378 C 0.15751 0.43312 0.34236 0.0
C379 C 0.11326 0.43717 0.32689 0.0
C380 C 0.12514 0.48265 0.30485 0.0
C381 C 0.18122 0.52295 0.2979 0.0
C382 C 0.22339 0.51534 0.31293 0.0
H383 H 0.14834 0.39905 0.36006 0.0
O384 O 0.22936 0.33017 0.3238 0.0
O385 O 0.27841 0.42232 0.32926 0.0
O386 O 0.23925 0.35694 0.39654 0.0
O387 O 0.2385 0.4373 0.3953 0.0
C388 C 0.19706 0.5711 0.27742 0.0
C389 C 0.25448 0.6105 0.27251 0.0
H390 H 0.36927 0.67684 0.26903 0.0
H391 H 0.43719 0.65196 0.29398 0.0
H392 H 0.07016 0.40602 0.33254 0.0
H393 H 0.09093 0.4864 0.29364 0.0
H394 H 0.16549 0.5789 0.26601 0.0
H395 H 0.26609 0.64852 0.25799 0.0
Mn396 Mn 0.93752 0.28205 0.51765 0.0
Mn397 Mn 0.81632 0.28377 0.52211 0.0
C398 C 0.86684 0.23258 0.47598 0.0
C399 C 1.02874 0.31777 0.49587 0.0
C400 C 0.85064 0.22341 0.57441 0.0
O401 O 0.95859 0.35315 0.54661 0.0
O402 O 0.87855 0.35672 0.53883 0.0
C403 C 0.82357 0.37427 0.47773 0.0
N404 N 0.79956 0.31829 0.48439 0.0
C405 C 0.71648 0.29871 0.45195 0.0
C406 C 0.73978 0.35635 0.44581 0.0
C407 C 0.79407 0.39414 0.45803 0.0
C408 C 0.74793 0.28134 0.47173 0.0
H409 H 0.86369 0.40385 0.48887 0.0
C410 C 0.93009 0.37849 0.54828 0.0
O411 O 1.01286 0.28757 0.524 0.0
O412 O 0.99287 0.32911 0.48146 0.0
N413 N 0.75438 0.2148 0.50564 0.0
C414 C 0.73547 0.1614 0.51716 0.0
C415 C 0.68369 0.11769 0.50504 0.0
C416 C 0.65121 0.12957 0.48196 0.0
C417 C 0.6715 0.18492 0.47065 0.0
C418 C 0.72468 0.22626 0.48229 0.0
H419 H 0.75955 0.15214 0.53548 0.0
O420 O 0.90364 0.21789 0.48395 0.0
O421 O 0.87077 0.27426 0.49418 0.0
O422 O 0.89388 0.22921 0.55855 0.0
O423 O 0.82341 0.24653 0.56373 0.0
C424 C 0.64014 0.20112 0.44946 0.0
C425 C 0.66192 0.25819 0.44102 0.0
H426 H 0.7162 0.37227 0.43203 0.0
H427 H 0.81231 0.43871 0.45329 0.0
H428 H 0.66835 0.0752 0.51406 0.0
H429 H 0.61052 0.09602 0.47344 0.0
H430 H 0.5984 0.17037 0.4406 0.0
H431 H 0.63595 0.27047 0.42651 0.0
C432 C 0.09606 0.5699 0.04294 0.0
C433 C 0.10172 0.60889 0.06878 0.0
H434 H 0.10163 0.49629 0.03114 0.0
C435 C 0.10322 0.59584 0.1039 0.0
H436 H 0.0941 0.57894 0.01562 0.0
C437 C 0.10487 0.54729 0.11276 0.0
C438 C 0.10743 0.51263 0.0866 0.0
H439 H 0.1078 0.62529 0.12424 0.0
H440 H 0.10868 0.53926 0.13999 0.0
C441 C 0.09991 0.52245 0.05171 0.0
C442 C 0.57324 0.08722 0.2743 0.0
C443 C 0.61207 0.09063 0.24912 0.0
H444 H 0.49944 0.09317 0.28416 0.0
C445 C 0.59785 0.08721 0.21373 0.0
H446 H 0.58344 0.08983 0.30182 0.0
C447 C 0.54882 0.08731 0.20372 0.0
C448 C 0.51425 0.09219 0.2289 0.0
H449 H 0.62737 0.09065 0.19386 0.0
H450 H 0.54125 0.08982 0.17619 0.0
C451 C 0.5249 0.08867 0.26429 0.0
C452 C 0.52704 0.59994 0.38437 0.0
C453 C 0.53622 0.6146 0.41974 0.0
H454 H 0.47035 0.54175 0.34638 0.0
C455 C 0.49933 0.57675 0.44474 0.0
H456 H 0.55479 0.62858 0.36469 0.0
C457 C 0.45026 0.52814 0.43433 0.0
C458 C 0.43841 0.51621 0.39879 0.0
H459 H 0.50637 0.58684 0.47227 0.0
H460 H 0.41973 0.50242 0.45383 0.0
C461 C 0.4786 0.55061 0.37399 0.0
C462 C 0.95955 0.52583 0.54752 0.0
C463 C 0.95827 0.53504 0.58335 0.0
H464 H 0.95523 0.46854 0.50807 0.0
C465 C 0.96376 0.49904 0.60714 0.0
H466 H 0.9547 0.5526 0.52875 0.0
C467 C 0.96251 0.45015 0.59543 0.0
C468 C 0.95672 0.43742 0.55974 0.0
H469 H 0.96308 0.50564 0.63496 0.0
H470 H 0.95988 0.41966 0.61436 0.0
C471 C 0.95935 0.47749 0.5358 0.0
C472 C 0.49658 0.86141 0.76124 0.0
C473 C 0.53865 0.90986 0.74506 0.0
H474 H 0.41314 0.81561 0.77869 0.0
C475 C 0.52918 0.95528 0.73959 0.0
H476 H 0.50211 0.8256 0.76608 0.0
C477 C 0.47715 0.95055 0.74872 0.0
C478 C 0.43363 0.89976 0.76234 0.0
H479 H 0.56055 0.99299 0.72667 0.0
H480 H 0.47027 0.98547 0.74384 0.0
C481 C 0.44482 0.85579 0.76859 0.0
C482 C 0.5438 0.46663 0.93683 0.0
C483 C 0.50886 0.42572 0.91234 0.0
H484 H 0.62249 0.54222 0.94571 0.0
C485 C 0.51991 0.43706 0.87669 0.0
H486 H 0.53643 0.45834 0.96453 0.0
C487 C 0.56857 0.48576 0.86595 0.0
C488 C 0.60723 0.52298 0.89071 0.0
H489 H 0.49431 0.40573 0.85739 0.0
H490 H 0.57881 0.49132 0.83844 0.0
C491 C 0.59296 0.51475 0.92613 0.0
C492 C 0.28596 0.40807 0.0359 0.0
C493 C 0.22861 0.37208 0.04374 0.0
H494 H 0.36001 0.41814 0.01102 0.0
C495 C 0.20068 0.31881 0.0277 0.0
H496 H 0.30946 0.44957 0.04741 0.0
C497 C 0.23023 0.30144 0.00568 0.0
C498 C 0.2883 0.33654 8e-05 0.0
H499 H 0.15677 0.28997 0.03308 0.0
H500 H 0.20848 0.25946 -0.0053 0.0
C501 C 0.31539 0.39024 0.01491 0.0
C502 C 0.8872 0.27542 0.19498 0.0
C503 C 0.87046 0.22017 0.20591 0.0
H504 H 0.9479 0.34882 0.16777 0.0
C505 C 0.89945 0.19413 0.19252 0.0
H506 H 0.86621 0.29728 0.20447 0.0
C507 C 0.94578 0.22385 0.17029 0.0
C508 C 0.96443 0.28028 0.16181 0.0
H509 H 0.8879 0.15185 0.20033 0.0
H510 H 0.9692 0.20399 0.16164 0.0
C511 C 0.9341 0.3053 0.17379 0.0
C512 C 0.73644 0.89909 0.36196 0.0
C513 C 0.6814 0.86936 0.37515 0.0
H514 H 0.79556 0.96939 0.33106 0.0
C515 C 0.64209 0.88476 0.36352 0.0
H516 H 0.76778 0.88863 0.3703 0.0
C517 C 0.65826 0.9313 0.34216 0.0
C518 C 0.71363 0.96275 0.33062 0.0
H519 H 0.599 0.8628 0.3725 0.0
H520 H 0.62773 0.94387 0.33559 0.0
C521 C 0.75229 0.94524 0.33953 0.0
C522 C 0.82774 0.73248 0.5046 0.0
C523 C 0.77006 0.69647 0.49807 0.0
H524 H 0.90057 0.74611 0.53399 0.0
C525 C 0.743 0.64341 0.51361 0.0
H526 H 0.8493 0.77416 0.49333 0.0
C527 C 0.77217 0.62702 0.53609 0.0
C528 C 0.82908 0.66397 0.54472 0.0
H529 H 0.69851 0.61514 0.50929 0.0
H530 H 0.74878 0.58604 0.54813 0.0
C531 C 0.85695 0.71661 0.52807 0.0
C532 C 0.1123 0.8167 0.67683 0.0
C533 C 0.09334 0.76102 0.66605 0.0
H534 H 0.16907 0.88488 0.71031 0.0
C535 C 0.12307 0.73456 0.67659 0.0
H536 H 0.0894 0.83767 0.66925 0.0
C537 C 0.16872 0.76155 0.69923 0.0
C538 C 0.18496 0.81526 0.71291 0.0
H539 H 0.10928 0.69172 0.66862 0.0
H540 H 0.18913 0.73853 0.70772 0.0
C541 C 0.15778 0.84366 0.70032 0.0
C542 C 0.31294 0.06516 0.86397 0.0
C543 C 0.34915 0.06868 0.83702 0.0
H544 H 0.29711 0.10811 0.90529 0.0
C545 C 0.39553 0.12098 0.82883 0.0
H546 H 0.27669 0.02507 0.87057 0.0
C547 C 0.40762 0.16842 0.84898 0.0
C548 C 0.37266 0.16454 0.87701 0.0
H549 H 0.42386 0.12457 0.80809 0.0
H550 H 0.44569 0.20768 0.84364 0.0
C551 C 0.32414 0.11278 0.8835 0.0
C552 C 0.74191 0.76184 0.76703 0.0
C553 C 0.73365 0.76197 0.80315 0.0
H554 H 0.73976 0.79544 0.71733 0.0
C555 C 0.72128 0.80194 0.81718 0.0
H556 H 0.75213 0.73221 0.75533 0.0
C557 C 0.71265 0.83777 0.79486 0.0
C558 C 0.71832 0.83522 0.7585 0.0
H559 H 0.71517 0.80326 0.845 0.0
H560 H 0.69798 0.86454 0.80572 0.0
C561 C 0.73535 0.79857 0.74517 0.0
C562 C 0.87641 0.6154 0.95716 0.0
C563 C 0.85952 0.65292 0.94439 0.0
H564 H 0.93714 0.60504 0.98641 0.0
C565 C 0.88725 0.70843 0.95718 0.0
H566 H 0.85616 0.57216 0.94832 0.0
C567 C 0.93317 0.72667 0.98019 0.0
C568 C 0.95249 0.68997 0.99016 0.0
H569 H 0.87558 0.73847 0.94796 0.0
H570 H 0.95605 0.7704 0.98806 0.0
C571 C 0.92284 0.63397 0.97918 0.0
C572 C 0.30583 0.93241 0.13865 0.0
C573 C 0.28292 0.96513 0.14959 0.0
H574 H 0.2947 0.86172 0.10977 0.0
C575 C 0.22671 0.94796 0.14099 0.0
H576 H 0.34894 0.94471 0.14501 0.0
C577 C 0.19525 0.9006 0.11951 0.0
C578 C 0.21944 0.86936 0.10699 0.0
H579 H 0.20839 0.9731 0.14902 0.0
H580 H 0.15333 0.89017 0.11144 0.0
C581 C 0.27435 0.88476 0.11825 0.0
C582 C 0.42808 0.28219 0.28207 0.0
C583 C 0.39026 0.22605 0.27232 0.0
H584 H 0.44039 0.35571 0.30921 0.0
C585 C 0.33659 0.19887 0.28764 0.0
H586 H 0.46986 0.30491 0.27104 0.0
C587 C 0.32048 0.22816 0.3107 0.0
C588 C 0.35729 0.28532 0.31811 0.0
H589 H 0.30644 0.15582 0.28082 0.0
H590 H 0.27806 0.20726 0.32084 0.0
C591 C 0.41145 0.31161 0.30411 0.0
C592 C 0.15095 0.31701 0.45009 0.0
C593 C 0.17945 0.37187 0.43645 0.0
H594 H 0.08083 0.25686 0.48071 0.0
C595 C 0.16148 0.40977 0.44673 0.0
H596 H 0.16339 0.28672 0.4428 0.0
C597 C 0.11409 0.39242 0.46741 0.0
C598 C 0.08408 0.33724 0.47956 0.0
H599 H 0.18224 0.45262 0.4373 0.0
H600 H 0.09979 0.4219 0.47303 0.0
C601 C 0.10382 0.29998 0.47182 0.0
C602 C 0.85213 0.15721 0.62013 0.0
C603 C 0.82468 0.18255 0.60361 0.0
H604 H 0.84428 0.09266 0.65532 0.0
C605 C 0.76858 0.16478 0.61307 0.0
H606 H 0.89512 0.16974 0.61357 0.0
C607 C 0.73947 0.12026 0.63613 0.0
C608 C 0.76607 0.09357 0.65147 0.0
H609 H 0.74564 0.18302 0.60111 0.0
H610 H 0.69538 0.10527 0.64098 0.0
C611 C 0.82318 0.11346 0.64423 0.0
C612 C 0.2424 0.43119 0.25775 0.0
C613 C 0.22034 0.38102 0.2767 0.0
H614 H 0.2399 0.47035 0.21047 0.0
C615 C 0.18642 0.33031 0.25875 0.0
H616 H 0.27203 0.47039 0.26945 0.0
C617 C 0.17632 0.32997 0.22306 0.0
C618 C 0.19652 0.38049 0.20435 0.0
H619 H 0.16907 0.29024 0.27196 0.0
H620 H 0.15101 0.28961 0.21045 0.0
C621 C 0.22762 0.43103 0.22271 0.0
C622 C 0.89188 0.25586 0.41374 0.0
C623 C 0.84997 0.22658 0.43891 0.0
H624 H 0.91458 0.26369 0.35955 0.0
C625 C 0.7958 0.18704 0.42774 0.0
H626 H 0.93435 0.28596 0.42174 0.0
C627 C 0.78399 0.17637 0.39207 0.0
C628 C 0.82681 0.2032 0.36717 0.0
H629 H 0.76354 0.16198 0.44636 0.0
H630 H 0.74241 0.14379 0.38412 0.0
C631 C 0.88069 0.24355 0.37819 0.0
C632 C 0.73334 0.8929 0.58632 0.0
C633 C 0.68389 0.86995 0.60626 0.0
H634 H 0.77028 0.89889 0.53642 0.0
C635 C 0.6327 0.83486 0.58951 0.0
H636 H 0.77378 0.92169 0.59782 0.0
C637 C 0.63149 0.81704 0.55526 0.0
C638 C 0.68026 0.84102 0.53497 0.0
H639 H 0.59361 0.82097 0.60272 0.0
H640 H 0.59285 0.7831 0.54538 0.0
C641 C 0.73128 0.88005 0.5509 0.0
C642 C 0.84832 0.60094 0.726 0.0
C643 C 0.8518 0.64455 0.705 0.0
H644 H 0.8371 0.5666 0.77708 0.0
C645 C 0.84301 0.68565 0.72049 0.0
H646 H 0.85781 0.5702 0.71535 0.0
C647 C 0.83355 0.68469 0.7563 0.0
C648 C 0.83161 0.64206 0.7778 0.0
H649 H 0.84637 0.72036 0.70519 0.0
H650 H 0.82895 0.71847 0.76723 0.0
C651 C 0.83751 0.59936 0.76189 0.0
C652 C 0.22943 0.81363 0.89471 0.0
C653 C 0.21242 0.84554 0.87509 0.0
H654 H 0.22144 0.77025 0.94205 0.0
C655 C 0.18308 0.86821 0.89237 0.0
H656 H 0.256 0.79972 0.88366 0.0
C657 C 0.17159 0.85912 0.92809 0.0
C658 C 0.18641 0.82461 0.9472 0.0
H659 H 0.17031 0.89446 0.87861 0.0
H660 H 0.14948 0.8779 0.94042 0.0
C661 C 0.21352 0.8004 0.92951 0.0
C662 C 0.40511 0.24729 0.09889 0.0
C663 C 0.41262 0.20306 0.11006 0.0
H664 H 0.39772 0.29163 0.05515 0.0
C665 C 0.42233 0.17121 0.08514 0.0
H666 H 0.39606 0.27134 0.11751 0.0
C667 C 0.42062 0.18097 0.04941 0.0
C668 C 0.41177 0.22438 0.03816 0.0
H669 H 0.42678 0.13586 0.09325 0.0
H670 H 0.42273 0.1525 0.03085 0.0
C671 C 0.40583 0.25857 0.06323 0.0
loop_
_geom_bond_atom_site_label_1
_geom_bond_atom_site_label_2
_geom_bond_distance
_geom_bond_site_symmetry_2
_ccdc_geom_bond_type
Mn0 O5 2.095 . S
Mn0 O15 2.162 1_455 S
Mn0 O16 2.297 . S
Mn0 O24 2.385 . S
Mn0 O25 2.209 . S
Mn0 O26 2.094 . S
Mn1 O6 2.121 . S
Mn1 N8 2.257 . S
Mn1 N17 2.282 . S
Mn1 O25 2.215 . S
Mn1 O27 2.117 . S
C2 O24 1.234 . S
C2 O25 1.283 . S
C3 O15 1.281 . S
C3 O16 1.236 1_655 S
C4 O26 1.240 . S
C4 O27 1.264 . S
O5 Mn0 2.095 . S
O5 C14 1.250 . S
O6 Mn1 2.121 . S
O6 C14 1.258 . S
C7 N8 1.326 . S
C7 C11 1.460 . S
C7 H13 0.929 . S
N8 Mn1 2.257 . S
N8 C7 1.326 . S
N8 C12 1.362 . S
C9 C10 1.258 . S
C9 C12 1.431 . S
C9 C29 1.449 . S
C10 C9 1.258 . S
C10 C11 1.477 . S
C10 H30 0.931 . S
C11 C7 1.460 . S
C11 C10 1.477 . S
C11 H31 0.930 . S
C12 N8 1.362 . S
C12 C9 1.431 . S
C12 C22 1.476 . S
H13 C7 0.929 . S
C14 O5 1.250 . S
C14 O6 1.258 . S
O15 Mn0 2.162 1_655 S
O15 C3 1.281 . S
O16 Mn0 2.297 . S
O16 C3 1.236 1_455 S
N17 Mn1 2.282 . S
N17 C18 1.328 . S
N17 C22 1.318 . S
C18 N17 1.328 . S
C18 C19 1.457 . S
C18 H23 0.929 . S
C19 C18 1.457 . S
C19 C20 1.291 . S
C19 H32 0.931 . S
C20 C19 1.291 . S
C20 C21 1.373 . S
C20 H33 0.929 . S
C21 C20 1.373 . S
C21 C22 1.396 . S
C21 C28 1.403 . S
C22 C12 1.476 . S
C22 N17 1.318 . S
C22 C21 1.396 . S
H23 C18 0.929 . S
O24 Mn0 2.385 . S
O24 C2 1.234 . S
O25 Mn0 2.209 . S
O25 Mn1 2.215 . S
O25 C2 1.283 . S
O26 Mn0 2.094 . S
O26 C4 1.240 . S
O27 Mn1 2.117 . S
O27 C4 1.264 . S
C28 C21 1.403 . S
C28 C29 1.399 . S
C28 H34 0.929 . S
C29 C9 1.449 . S
C29 C28 1.399 . S
C29 H35 0.930 . S
H30 C10 0.931 . S
H31 C11 0.930 . S
H32 C19 0.931 . S
H33 C20 0.929 . S
H34 C28 0.929 . S
H35 C29 0.930 . S
Mn36 O41 2.095 . S
Mn36 O51 2.162 1_545 S
Mn36 O52 2.297 . S
Mn36 O60 2.385 . S
Mn36 O61 2.209 . S
Mn36 O62 2.094 . S
Mn37 O42 2.121 . S
Mn37 N44 2.257 . S
Mn37 N53 2.282 . S
Mn37 O61 2.215 . S
Mn37 O63 2.117 . S
C38 O60 1.234 . S
C38 O61 1.283 . S
C39 O51 1.281 . S
C39 O52 1.236 1_565 S
C40 O62 1.240 . S
C40 O63 1.264 . S
O41 Mn36 2.095 . S
O41 C50 1.250 . S
O42 Mn37 2.121 . S
O42 C50 1.258 . S
C43 N44 1.326 . S
C43 C47 1.460 . S
C43 H49 0.929 . S
N44 Mn37 2.257 . S
N44 C43 1.326 . S
N44 C48 1.362 . S
C45 C46 1.258 . S
C45 C48 1.431 . S
C45 C65 1.449 . S
C46 C45 1.258 . S
C46 C47 1.477 . S
C46 H66 0.931 . S
C47 C43 1.460 . S
C47 C46 1.477 . S
C47 H67 0.930 . S
C48 N44 1.362 . S
C48 C45 1.431 . S
C48 C58 1.476 . S
H49 C43 0.929 . S
C50 O41 1.250 . S
C50 O42 1.258 . S
O51 Mn36 2.162 1_565 S
O51 C39 1.281 . S
O52 Mn36 2.297 . S
O52 C39 1.236 1_545 S
N53 Mn37 2.282 . S
N53 C54 1.328 . S
N53 C58 1.318 . S
C54 N53 1.328 . S
C54 C55 1.457 . S
C54 H59 0.929 . S
C55 C54 1.457 . S
C55 C56 1.291 . S
C55 H68 0.931 . S
C56 C55 1.291 . S
C56 C57 1.373 . S
C56 H69 0.929 . S
C57 C56 1.373 . S
C57 C58 1.396 . S
C57 C64 1.403 . S
C58 C48 1.476 . S
C58 N53 1.318 . S
C58 C57 1.396 . S
H59 C54 0.929 . S
O60 Mn36 2.385 . S
O60 C38 1.234 . S
O61 Mn36 2.209 . S
O61 Mn37 2.215 . S
O61 C38 1.283 . S
O62 Mn36 2.094 . S
O62 C40 1.240 . S
O63 Mn37 2.117 . S
O63 C40 1.264 . S
C64 C57 1.403 . S
C64 C65 1.399 . S
C64 H70 0.929 . S
C65 C45 1.449 . S
C65 C64 1.399 . S
C65 H71 0.930 . S
H66 C46 0.931 . S
H67 C47 0.930 . S
H68 C55 0.931 . S
H69 C56 0.929 . S
H70 C64 0.929 . S
H71 C65 0.930 . S
Mn72 O77 2.095 . S
Mn72 O87 2.162 . S
Mn72 O88 2.297 . S
Mn72 O96 2.385 . S
Mn72 O97 2.209 . S
Mn72 O98 2.094 . S
Mn73 O78 2.121 . S
Mn73 N80 2.257 . S
Mn73 N89 2.282 . S
Mn73 O97 2.215 . S
Mn73 O99 2.117 . S
C74 O96 1.234 . S
C74 O97 1.283 . S
C75 O87 1.281 . S
C75 O88 1.236 . S
C76 O98 1.240 . S
C76 O99 1.264 . S
O77 Mn72 2.095 . S
O77 C86 1.250 . S
O78 Mn73 2.121 . S
O78 C86 1.258 . S
C79 N80 1.326 . S
C79 C83 1.460 . S
C79 H85 0.929 . S
N80 Mn73 2.257 . S
N80 C79 1.326 . S
N80 C84 1.362 . S
C81 C82 1.258 . S
C81 C84 1.431 . S
C81 C101 1.449 . S
C82 C81 1.258 . S
C82 C83 1.477 . S
C82 H102 0.931 . S
C83 C79 1.460 . S
C83 C82 1.477 . S
C83 H103 0.930 . S
C84 N80 1.362 . S
C84 C81 1.431 . S
C84 C94 1.476 . S
H85 C79 0.929 . S
C86 O77 1.250 . S
C86 O78 1.258 . S
O87 Mn72 2.162 . S
O87 C75 1.281 . S
O88 Mn72 2.297 . S
O88 C75 1.236 . S
N89 Mn73 2.282 . S
N89 C90 1.328 . S
N89 C94 1.318 . S
C90 N89 1.328 . S
C90 C91 1.457 . S
C90 H95 0.929 . S
C91 C90 1.457 . S
C91 C92 1.291 . S
C91 H104 0.931 . S
C92 C91 1.291 . S
C92 C93 1.373 . S
C92 H105 0.929 . S
C93 C92 1.373 . S
C93 C94 1.396 . S
C93 C100 1.403 . S
C94 C84 1.476 . S
C94 N89 1.318 . S
C94 C93 1.396 . S
H95 C90 0.929 . S
O96 Mn72 2.385 . S
O96 C74 1.234 . S
O97 Mn72 2.209 . S
O97 Mn73 2.215 . S
O97 C74 1.283 . S
O98 Mn72 2.094 . S
O98 C76 1.240 . S
O99 Mn73 2.117 . S
O99 C76 1.264 . S
C100 C93 1.403 . S
C100 C101 1.399 . S
C100 H106 0.929 . S
C101 C81 1.449 . S
C101 C100 1.399 . S
C101 H107 0.930 . S
H102 C82 0.931 . S
H103 C83 0.930 . S
H104 C91 0.931 . S
H105 C92 0.929 . S
H106 C100 0.929 . S
H107 C101 0.930 . S
Mn108 O113 2.095 . S
Mn108 O123 2.162 1_655 S
Mn108 O124 2.297 . S
Mn108 O132 2.385 . S
Mn108 O133 2.209 . S
Mn108 O134 2.094 . S
Mn109 O114 2.121 . S
Mn109 N116 2.257 . S
Mn109 N125 2.282 . S
Mn109 O133 2.215 . S
Mn109 O135 2.117 . S
C110 O132 1.234 . S
C110 O133 1.283 . S
C111 O123 1.281 . S
C111 O124 1.236 1_455 S
C112 O134 1.240 . S
C112 O135 1.264 . S
O113 Mn108 2.095 . S
O113 C122 1.250 . S
O114 Mn109 2.121 . S
O114 C122 1.258 . S
C115 N116 1.326 . S
C115 C119 1.460 . S
C115 H121 0.929 . S
N116 Mn109 2.257 . S
N116 C115 1.326 . S
N116 C120 1.362 . S
C117 C118 1.258 . S
C117 C120 1.431 . S
C117 C137 1.449 . S
C118 C117 1.258 . S
C118 C119 1.477 . S
C118 H138 0.931 . S
C119 C115 1.460 . S
C119 C118 1.477 . S
C119 H139 0.930 . S
C120 N116 1.362 . S
C120 C117 1.431 . S
C120 C130 1.476 . S
H121 C115 0.929 . S
C122 O113 1.250 . S
C122 O114 1.258 . S
O123 Mn108 2.162 1_455 S
O123 C111 1.281 . S
O124 Mn108 2.297 . S
O124 C111 1.236 1_655 S
N125 Mn109 2.282 . S
N125 C126 1.328 . S
N125 C130 1.318 . S
C126 N125 1.328 . S
C126 C127 1.457 . S
C126 H131 0.929 . S
C127 C126 1.457 . S
C127 C128 1.291 . S
C127 H140 0.931 . S
C128 C127 1.291 . S
C128 C129 1.373 . S
C128 H141 0.929 . S
C129 C128 1.373 . S
C129 C130 1.396 . S
C129 C136 1.403 . S
C130 C120 1.476 . S
C130 N125 1.318 . S
C130 C129 1.396 . S
H131 C126 0.929 . S
O132 Mn108 2.385 . S
O132 C110 1.234 . S
O133 Mn108 2.209 . S
O133 Mn109 2.215 . S
O133 C110 1.283 . S
O134 Mn108 2.094 . S
O134 C112 1.240 . S
O135 Mn109 2.117 . S
O135 C112 1.264 . S
C136 C129 1.403 . S
C136 C137 1.399 . S
C136 H142 0.929 . S
C137 C117 1.449 . S
C137 C136 1.399 . S
C137 H143 0.930 . S
H138 C118 0.931 . S
H139 C119 0.930 . S
H140 C127 0.931 . S
H141 C128 0.929 . S
H142 C136 0.929 . S
H143 C137 0.930 . S
Mn144 O149 2.095 . S
Mn144 O159 2.162 1_565 S
Mn144 O160 2.297 . S
Mn144 O168 2.385 . S
Mn144 O169 2.209 . S
Mn144 O170 2.094 . S
Mn145 O150 2.121 . S
Mn145 N152 2.257 . S
Mn145 N161 2.282 . S
Mn145 O169 2.215 . S
Mn145 O171 2.117 . S
C146 O168 1.234 . S
C146 O169 1.283 . S
C147 O159 1.281 . S
C147 O160 1.236 1_545 S
C148 O170 1.240 . S
C148 O171 1.264 . S
O149 Mn144 2.095 . S
O149 C158 1.250 . S
O150 Mn145 2.121 . S
O150 C158 1.258 . S
C151 N152 1.326 . S
C151 C155 1.460 . S
C151 H157 0.929 . S
N152 Mn145 2.257 . S
N152 C151 1.326 . S
N152 C156 1.362 . S
C153 C154 1.258 . S
C153 C156 1.431 . S
C153 C173 1.449 . S
C154 C153 1.258 . S
C154 C155 1.477 . S
C154 H174 0.931 . S
C155 C151 1.460 . S
C155 C154 1.477 . S
C155 H175 0.930 . S
C156 N152 1.362 . S
C156 C153 1.431 . S
C156 C166 1.476 . S
H157 C151 0.929 . S
C158 O149 1.250 . S
C158 O150 1.258 . S
O159 Mn144 2.162 1_545 S
O159 C147 1.281 . S
O160 Mn144 2.297 . S
O160 C147 1.236 1_565 S
N161 Mn145 2.282 . S
N161 C162 1.328 . S
N161 C166 1.318 . S
C162 N161 1.328 . S
C162 C163 1.457 . S
C162 H167 0.929 . S
C163 C162 1.457 . S
C163 C164 1.291 . S
C163 H176 0.931 . S
C164 C163 1.291 . S
C164 C165 1.373 . S
C164 H177 0.929 . S
C165 C164 1.373 . S
C165 C166 1.396 . S
C165 C172 1.403 . S
C166 C156 1.476 . S
C166 N161 1.318 . S
C166 C165 1.396 . S
H167 C162 0.929 . S
O168 Mn144 2.385 . S
O168 C146 1.234 . S
O169 Mn144 2.209 . S
O169 Mn145 2.215 . S
O169 C146 1.283 . S
O170 Mn144 2.094 . S
O170 C148 1.240 . S
O171 Mn145 2.117 . S
O171 C148 1.264 . S
C172 C165 1.403 . S
C172 C173 1.399 . S
C172 H178 0.929 . S
C173 C153 1.449 . S
C173 C172 1.399 . S
C173 H179 0.930 . S
H174 C154 0.931 . S
H175 C155 0.930 . S
H176 C163 0.931 . S
H177 C164 0.929 . S
H178 C172 0.929 . S
H179 C173 0.930 . S
Mn180 O185 2.095 . S
Mn180 O195 2.162 . S
Mn180 O196 2.297 1_556 S
Mn180 O204 2.385 1_556 S
Mn180 O205 2.209 1_556 S
Mn180 O206 2.094 . S
Mn181 O186 2.121 . S
Mn181 N188 2.257 1_556 S
Mn181 N197 2.282 . S
Mn181 O205 2.215 1_556 S
Mn181 O207 2.117 . S
C182 O204 1.234 . S
C182 O205 1.283 . S
C183 O195 1.281 . S
C183 O196 1.236 1_556 S
C184 O206 1.240 . S
C184 O207 1.264 . S
O185 Mn180 2.095 . S
O185 C194 1.250 . S
O186 Mn181 2.121 . S
O186 C194 1.258 . S
C187 N188 1.326 . S
C187 C191 1.460 . S
C187 H193 0.929 1_554 S
N188 Mn181 2.257 1_554 S
N188 C187 1.326 . S
N188 C192 1.362 . S
C189 C190 1.258 . S
C189 C192 1.431 . S
C189 C209 1.449 . S
C190 C189 1.258 . S
C190 C191 1.477 . S
C190 H210 0.931 . S
C191 C187 1.460 . S
C191 C190 1.477 . S
C191 H211 0.930 . S
C192 N188 1.362 . S
C192 C189 1.431 . S
C192 C202 1.476 . S
H193 C187 0.929 1_556 S
C194 O185 1.250 . S
C194 O186 1.258 . S
O195 Mn180 2.162 . S
O195 C183 1.281 . S
O196 Mn180 2.297 1_554 S
O196 C183 1.236 1_554 S
N197 Mn181 2.282 . S
N197 C198 1.328 . S
N197 C202 1.318 1_556 S
C198 N197 1.328 . S
C198 C199 1.457 1_556 S
C198 H203 0.929 . S
C199 C198 1.457 1_554 S
C199 C200 1.291 . S
C199 H212 0.931 . S
C200 C199 1.291 . S
C200 C201 1.373 . S
C200 H213 0.929 . S
C201 C200 1.373 . S
C201 C202 1.396 . S
C201 C208 1.403 . S
C202 C192 1.476 . S
C202 N197 1.318 1_554 S
C202 C201 1.396 . S
H203 C198 0.929 . S
O204 Mn180 2.385 1_554 S
O204 C182 1.234 . S
O205 Mn180 2.209 1_554 S
O205 Mn181 2.215 1_554 S
O205 C182 1.283 . S
O206 Mn180 2.094 . S
O206 C184 1.240 . S
O207 Mn181 2.117 . S
O207 C184 1.264 . S
C208 C201 1.403 . S
C208 C209 1.399 . S
C208 H214 0.929 . S
C209 C189 1.449 . S
C209 C208 1.399 . S
C209 H215 0.930 . S
H210 C190 0.931 . S
H211 C191 0.930 . S
H212 C199 0.931 . S
H213 C200 0.929 . S
H214 C208 0.929 . S
H215 C209 0.930 . S
Mn216 O221 2.095 . S
Mn216 O231 2.162 1_565 S
Mn216 O232 2.297 . S
Mn216 O240 2.385 . S
Mn216 O241 2.209 . S
Mn216 O242 2.094 . S
Mn217 O222 2.121 . S
Mn217 N224 2.257 . S
Mn217 N233 2.282 . S
Mn217 O241 2.215 . S
Mn217 O243 2.117 . S
C218 O240 1.234 . S
C218 O241 1.283 . S
C219 O231 1.281 . S
C219 O232 1.236 1_545 S
C220 O242 1.240 . S
C220 O243 1.264 . S
O221 Mn216 2.095 . S
O221 C230 1.250 . S
O222 Mn217 2.121 . S
O222 C230 1.258 . S
C223 N224 1.326 . S
C223 C227 1.460 . S
C223 H229 0.929 . S
N224 Mn217 2.257 . S
N224 C223 1.326 . S
N224 C228 1.362 . S
C225 C226 1.258 . S
C225 C228 1.431 . S
C225 C245 1.449 . S
C226 C225 1.258 . S
C226 C227 1.477 . S
C226 H246 0.931 . S
C227 C223 1.460 . S
C227 C226 1.477 . S
C227 H247 0.930 . S
C228 N224 1.362 . S
C228 C225 1.431 . S
C228 C238 1.476 . S
H229 C223 0.929 . S
C230 O221 1.250 . S
C230 O222 1.258 . S
O231 Mn216 2.162 1_545 S
O231 C219 1.281 . S
O232 Mn216 2.297 . S
O232 C219 1.236 1_565 S
N233 Mn217 2.282 . S
N233 C234 1.328 . S
N233 C238 1.318 . S
C234 N233 1.328 . S
C234 C235 1.457 . S
C234 H239 0.929 . S
C235 C234 1.457 . S
C235 C236 1.291 . S
C235 H248 0.931 . S
C236 C235 1.291 . S
C236 C237 1.373 . S
C236 H249 0.929 . S
C237 C236 1.373 . S
C237 C238 1.396 . S
C237 C244 1.403 . S
C238 C228 1.476 . S
C238 N233 1.318 . S
C238 C237 1.396 . S
H239 C234 0.929 . S
O240 Mn216 2.385 . S
O240 C218 1.234 . S
O241 Mn216 2.209 . S
O241 Mn217 2.215 . S
O241 C218 1.283 . S
O242 Mn216 2.094 . S
O242 C220 1.240 . S
O243 Mn217 2.117 . S
O243 C220 1.264 . S
C244 C237 1.403 . S
C244 C245 1.399 . S
C244 H250 0.929 . S
C245 C225 1.449 . S
C245 C244 1.399 . S
C245 H251 0.930 . S
H246 C226 0.931 . S
H247 C227 0.930 . S
H248 C235 0.931 . S
H249 C236 0.929 . S
H250 C244 0.929 . S
H251 C245 0.930 . S
Mn252 O257 2.095 . S
Mn252 O267 2.162 . S
Mn252 O268 2.297 . S
Mn252 O276 2.385 . S
Mn252 O277 2.209 . S
Mn252 O278 2.094 . S
Mn253 O258 2.121 . S
Mn253 N260 2.257 . S
Mn253 N269 2.282 . S
Mn253 O277 2.215 . S
Mn253 O279 2.117 . S
C254 O276 1.234 . S
C254 O277 1.283 . S
C255 O267 1.281 . S
C255 O268 1.236 . S
C256 O278 1.240 . S
C256 O279 1.264 . S
O257 Mn252 2.095 . S
O257 C266 1.250 . S
O258 Mn253 2.121 . S
O258 C266 1.258 . S
C259 N260 1.326 . S
C259 C263 1.460 . S
C259 H265 0.929 . S
N260 Mn253 2.257 . S
N260 C259 1.326 . S
N260 C264 1.362 . S
C261 C262 1.258 . S
C261 C264 1.431 . S
C261 C281 1.449 . S
C262 C261 1.258 . S
C262 C263 1.477 . S
C262 H282 0.931 . S
C263 C259 1.460 . S
C263 C262 1.477 . S
C263 H283 0.930 . S
C264 N260 1.362 . S
C264 C261 1.431 . S
C264 C274 1.476 . S
H265 C259 0.929 . S
C266 O257 1.250 . S
C266 O258 1.258 . S
O267 Mn252 2.162 . S
O267 C255 1.281 . S
O268 Mn252 2.297 . S
O268 C255 1.236 . S
N269 Mn253 2.282 . S
N269 C270 1.328 . S
N269 C274 1.318 . S
C270 N269 1.328 . S
C270 C271 1.457 . S
C270 H275 0.929 . S
C271 C270 1.457 . S
C271 C272 1.291 . S
C271 H284 0.931 . S
C272 C271 1.291 . S
C272 C273 1.373 . S
C272 H285 0.929 . S
C273 C272 1.373 . S
C273 C274 1.396 . S
C273 C280 1.403 . S
C274 C264 1.476 . S
C274 N269 1.318 . S
C274 C273 1.396 . S
H275 C270 0.929 . S
O276 Mn252 2.385 . S
O276 C254 1.234 . S
O277 Mn252 2.209 . S
O277 Mn253 2.215 . S
O277 C254 1.283 . S
O278 Mn252 2.094 . S
O278 C256 1.240 . S
O279 Mn253 2.117 . S
O279 C256 1.264 . S
C280 C273 1.403 . S
C280 C281 1.399 . S
C280 H286 0.929 . S
C281 C261 1.449 . S
C281 C280 1.399 . S
C281 H287 0.930 . S
H282 C262 0.931 . S
H283 C263 0.930 . S
H284 C271 0.931 . S
H285 C272 0.929 . S
H286 C280 0.929 . S
H287 C281 0.930 . S
Mn288 O293 2.095 . S
Mn288 O303 2.162 1_455 S
Mn288 O304 2.297 1_554 S
Mn288 O312 2.385 1_554 S
Mn288 O313 2.209 1_554 S
Mn288 O314 2.094 . S
Mn289 O294 2.121 . S
Mn289 N296 2.257 1_554 S
Mn289 N305 2.282 . S
Mn289 O313 2.215 1_554 S
Mn289 O315 2.117 . S
C290 O312 1.234 . S
C290 O313 1.283 . S
C291 O303 1.281 . S
C291 O304 1.236 1_654 S
C292 O314 1.240 . S
C292 O315 1.264 . S
O293 Mn288 2.095 . S
O293 C302 1.250 . S
O294 Mn289 2.121 . S
O294 C302 1.258 . S
C295 N296 1.326 . S
C295 C299 1.460 . S
C295 H301 0.929 1_556 S
N296 Mn289 2.257 1_556 S
N296 C295 1.326 . S
N296 C300 1.362 . S
C297 C298 1.258 . S
C297 C300 1.431 . S
C297 C317 1.449 . S
C298 C297 1.258 . S
C298 C299 1.477 . S
C298 H318 0.931 . S
C299 C295 1.460 . S
C299 C298 1.477 . S
C299 H319 0.930 . S
C300 N296 1.362 . S
C300 C297 1.431 . S
C300 C310 1.476 . S
H301 C295 0.929 1_554 S
C302 O293 1.250 . S
C302 O294 1.258 . S
O303 Mn288 2.162 1_655 S
O303 C291 1.281 . S
O304 Mn288 2.297 1_556 S
O304 C291 1.236 1_456 S
N305 Mn289 2.282 . S
N305 C306 1.328 . S
N305 C310 1.318 1_554 S
C306 N305 1.328 . S
C306 C307 1.457 1_554 S
C306 H311 0.929 . S
C307 C306 1.457 1_556 S
C307 C308 1.291 . S
C307 H320 0.931 . S
C308 C307 1.291 . S
C308 C309 1.373 . S
C308 H321 0.929 . S
C309 C308 1.373 . S
C309 C310 1.396 . S
C309 C316 1.403 . S
C310 C300 1.476 . S
C310 N305 1.318 1_556 S
C310 C309 1.396 . S
H311 C306 0.929 . S
O312 Mn288 2.385 1_556 S
O312 C290 1.234 . S
O313 Mn288 2.209 1_556 S
O313 Mn289 2.215 1_556 S
O313 C290 1.283 . S
O314 Mn288 2.094 . S
O314 C292 1.240 . S
O315 Mn289 2.117 . S
O315 C292 1.264 . S
C316 C309 1.403 . S
C316 C317 1.399 . S
C316 H322 0.929 . S
C317 C297 1.449 . S
C317 C316 1.399 . S
C317 H323 0.930 . S
H318 C298 0.931 . S
H319 C299 0.930 . S
H320 C307 0.931 . S
H321 C308 0.929 . S
H322 C316 0.929 . S
H323 C317 0.930 . S
Mn324 O329 2.095 . S
Mn324 O339 2.162 1_545 S
Mn324 O340 2.297 . S
Mn324 O348 2.385 . S
Mn324 O349 2.209 . S
Mn324 O350 2.094 . S
Mn325 O330 2.121 . S
Mn325 N332 2.257 . S
Mn325 N341 2.282 . S
Mn325 O349 2.215 . S
Mn325 O351 2.117 . S
C326 O348 1.234 . S
C326 O349 1.283 . S
C327 O339 1.281 . S
C327 O340 1.236 1_565 S
C328 O350 1.240 . S
C328 O351 1.264 . S
O329 Mn324 2.095 . S
O329 C338 1.250 . S
O330 Mn325 2.121 . S
O330 C338 1.258 . S
C331 N332 1.326 . S
C331 C335 1.460 . S
C331 H337 0.929 . S
N332 Mn325 2.257 . S
N332 C331 1.326 . S
N332 C336 1.362 . S
C333 C334 1.258 . S
C333 C336 1.431 . S
C333 C353 1.449 . S
C334 C333 1.258 . S
C334 C335 1.477 . S
C334 H354 0.931 . S
C335 C331 1.460 . S
C335 C334 1.477 . S
C335 H355 0.930 . S
C336 N332 1.362 . S
C336 C333 1.431 . S
C336 C346 1.476 . S
H337 C331 0.929 . S
C338 O329 1.250 . S
C338 O330 1.258 . S
O339 Mn324 2.162 1_565 S
O339 C327 1.281 . S
O340 Mn324 2.297 . S
O340 C327 1.236 1_545 S
N341 Mn325 2.282 . S
N341 C342 1.328 . S
N341 C346 1.318 . S
C342 N341 1.328 . S
C342 C343 1.457 . S
C342 H347 0.929 . S
C343 C342 1.457 . S
C343 C344 1.291 . S
C343 H356 0.931 . S
C344 C343 1.291 . S
C344 C345 1.373 . S
C344 H357 0.929 . S
C345 C344 1.373 . S
C345 C346 1.396 . S
C345 C352 1.403 . S
C346 C336 1.476 . S
C346 N341 1.318 . S
C346 C345 1.396 . S
H347 C342 0.929 . S
O348 Mn324 2.385 . S
O348 C326 1.234 . S
O349 Mn324 2.209 . S
O349 Mn325 2.215 . S
O349 C326 1.283 . S
O350 Mn324 2.094 . S
O350 C328 1.240 . S
O351 Mn325 2.117 . S
O351 C328 1.264 . S
C352 C345 1.403 . S
C352 C353 1.399 . S
C352 H358 0.929 . S
C353 C333 1.449 . S
C353 C352 1.399 . S
C353 H359 0.930 . S
H354 C334 0.931 . S
H355 C335 0.930 . S
H356 C343 0.931 . S
H357 C344 0.929 . S
H358 C352 0.929 . S
H359 C353 0.930 . S
Mn360 O365 2.095 . S
Mn360 O375 2.162 . S
Mn360 O376 2.297 . S
Mn360 O384 2.385 . S
Mn360 O385 2.209 . S
Mn360 O386 2.094 . S
Mn361 O366 2.121 . S
Mn361 N368 2.257 . S
Mn361 N377 2.282 . S
Mn361 O385 2.215 . S
Mn361 O387 2.117 . S
C362 O384 1.234 . S
C362 O385 1.283 . S
C363 O375 1.281 . S
C363 O376 1.236 . S
C364 O386 1.240 . S
C364 O387 1.264 . S
O365 Mn360 2.095 . S
O365 C374 1.250 . S
O366 Mn361 2.121 . S
O366 C374 1.258 . S
C367 N368 1.326 . S
C367 C371 1.460 . S
C367 H373 0.929 . S
N368 Mn361 2.257 . S
N368 C367 1.326 . S
N368 C372 1.362 . S
C369 C370 1.258 . S
C369 C372 1.431 . S
C369 C389 1.449 . S
C370 C369 1.258 . S
C370 C371 1.477 . S
C370 H390 0.931 . S
C371 C367 1.460 . S
C371 C370 1.477 . S
C371 H391 0.930 . S
C372 N368 1.362 . S
C372 C369 1.431 . S
C372 C382 1.476 . S
H373 C367 0.929 . S
C374 O365 1.250 . S
C374 O366 1.258 . S
O375 Mn360 2.162 . S
O375 C363 1.281 . S
O376 Mn360 2.297 . S
O376 C363 1.236 . S
N377 Mn361 2.282 . S
N377 C378 1.328 . S
N377 C382 1.318 . S
C378 N377 1.328 . S
C378 C379 1.457 . S
C378 H383 0.929 . S
C379 C378 1.457 . S
C379 C380 1.291 . S
C379 H392 0.931 . S
C380 C379 1.291 . S
C380 C381 1.373 . S
C380 H393 0.929 . S
C381 C380 1.373 . S
C381 C382 1.396 . S
C381 C388 1.403 . S
C382 C372 1.476 . S
C382 N377 1.318 . S
C382 C381 1.396 . S
H383 C378 0.929 . S
O384 Mn360 2.385 . S
O384 C362 1.234 . S
O385 Mn360 2.209 . S
O385 Mn361 2.215 . S
O385 C362 1.283 . S
O386 Mn360 2.094 . S
O386 C364 1.240 . S
O387 Mn361 2.117 . S
O387 C364 1.264 . S
C388 C381 1.403 . S
C388 C389 1.399 . S
C388 H394 0.929 . S
C389 C369 1.449 . S
C389 C388 1.399 . S
C389 H395 0.930 . S
H390 C370 0.931 . S
H391 C371 0.930 . S
H392 C379 0.931 . S
H393 C380 0.929 . S
H394 C388 0.929 . S
H395 C389 0.930 . S
Mn396 O401 2.095 . S
Mn396 O411 2.162 1_655 S
Mn396 O412 2.297 . S
Mn396 O420 2.385 . S
Mn396 O421 2.209 . S
Mn396 O422 2.094 . S
Mn397 O402 2.121 . S
Mn397 N404 2.257 . S
Mn397 N413 2.282 . S
Mn397 O421 2.215 . S
Mn397 O423 2.117 . S
C398 O420 1.234 . S
C398 O421 1.283 . S
C399 O411 1.281 . S
C399 O412 1.236 1_455 S
C400 O422 1.240 . S
C400 O423 1.264 . S
O401 Mn396 2.095 . S
O401 C410 1.250 . S
O402 Mn397 2.121 . S
O402 C410 1.258 . S
C403 N404 1.326 . S
C403 C407 1.460 . S
C403 H409 0.929 . S
N404 Mn397 2.257 . S
N404 C403 1.326 . S
N404 C408 1.362 . S
C405 C406 1.258 . S
C405 C408 1.431 . S
C405 C425 1.449 . S
C406 C405 1.258 . S
C406 C407 1.477 . S
C406 H426 0.931 . S
C407 C403 1.460 . S
C407 C406 1.477 . S
C407 H427 0.930 . S
C408 N404 1.362 . S
C408 C405 1.431 . S
C408 C418 1.476 . S
H409 C403 0.929 . S
C410 O401 1.250 . S
C410 O402 1.258 . S
O411 Mn396 2.162 1_455 S
O411 C399 1.281 . S
O412 Mn396 2.297 . S
O412 C399 1.236 1_655 S
N413 Mn397 2.282 . S
N413 C414 1.328 . S
N413 C418 1.318 . S
C414 N413 1.328 . S
C414 C415 1.457 . S
C414 H419 0.929 . S
C415 C414 1.457 . S
C415 C416 1.291 . S
C415 H428 0.931 . S
C416 C415 1.291 . S
C416 C417 1.373 . S
C416 H429 0.929 . S
C417 C416 1.373 . S
C417 C418 1.396 . S
C417 C424 1.403 . S
C418 C408 1.476 . S
C418 N413 1.318 . S
C418 C417 1.396 . S
H419 C414 0.929 . S
O420 Mn396 2.385 . S
O420 C398 1.234 . S
O421 Mn396 2.209 . S
O421 Mn397 2.215 . S
O421 C398 1.283 . S
O422 Mn396 2.094 . S
O422 C400 1.240 . S
O423 Mn397 2.117 . S
O423 C400 1.264 . S
C424 C417 1.403 . S
C424 C425 1.399 . S
C424 H430 0.929 . S
C425 C405 1.449 . S
C425 C424 1.399 . S
C425 H431 0.930 . S
H426 C406 0.931 . S
H427 C407 0.930 . S
H428 C415 0.931 . S
H429 C416 0.929 . S
H430 C424 0.929 . S
H431 C425 0.930 . S
C432 C433 1.387 . S
C432 H436 0.950 . S
C432 C441 1.390 . S
C433 C432 1.387 . S
C433 C435 1.387 . S
H434 C441 0.950 . S
C435 C433 1.387 . S
C435 C437 1.390 . S
C435 H439 0.950 . S
H436 C432 0.950 . S
C437 C435 1.390 . S
C437 C438 1.387 . S
C437 H440 0.950 . S
C438 C437 1.387 . S
C438 C441 1.387 . S
H439 C435 0.950 . S
H440 C437 0.950 . S
C441 C432 1.390 . S
C441 H434 0.950 . S
C441 C438 1.387 . S
C442 C443 1.387 . S
C442 H446 0.968 . S
C442 C451 1.390 . S
C443 C442 1.387 . S
C443 C445 1.387 . S
H444 C451 0.959 . S
C445 C443 1.387 . S
C445 C447 1.390 . S
C445 H449 0.950 . S
H446 C442 0.968 . S
C447 C445 1.390 . S
C447 C448 1.387 . S
C447 H450 0.950 . S
C448 C447 1.387 . S
C448 C451 1.387 . S
H449 C445 0.950 . S
H450 C447 0.950 . S
C451 C442 1.390 . S
C451 H444 0.959 . S
C451 C448 1.387 . S
C452 C453 1.387 . S
C452 H456 0.950 . S
C452 C461 1.390 . S
C453 C452 1.387 . S
C453 C455 1.387 . S
H454 C461 0.950 . S
C455 C453 1.387 . S
C455 C457 1.390 . S
C455 H459 0.950 . S
H456 C452 0.950 . S
C457 C455 1.390 . S
C457 C458 1.387 . S
C457 H460 0.950 . S
C458 C457 1.387 . S
C458 C461 1.387 . S
H459 C455 0.950 . S
H460 C457 0.950 . S
C461 C452 1.390 . S
C461 H454 0.950 . S
C461 C458 1.387 . S
C462 C463 1.387 . S
C462 H466 0.950 . S
C462 C471 1.390 . S
C463 C462 1.387 . S
C463 C465 1.387 . S
H464 C471 0.950 . S
C465 C463 1.387 . S
C465 C467 1.390 . S
C465 H469 0.950 . S
H466 C462 0.950 . S
C467 C465 1.390 . S
C467 C468 1.387 . S
C467 H470 0.950 . S
C468 C467 1.387 . S
C468 C471 1.387 . S
H469 C465 0.950 . S
H470 C467 0.950 . S
C471 C462 1.390 . S
C471 H464 0.950 . S
C471 C468 1.387 . S
C472 C473 1.387 . S
C472 H476 0.950 . S
C472 C481 1.390 . S
C473 C472 1.387 . S
C473 C475 1.387 . S
H474 C481 0.950 . S
C475 C473 1.387 . S
C475 C477 1.390 . S
C475 H479 0.960 . S
H476 C472 0.950 . S
C477 C475 1.390 . S
C477 C478 1.387 . S
C477 H480 0.968 . S
C478 C477 1.387 . S
C478 C481 1.387 . S
H479 C475 0.960 . S
H480 C477 0.968 . S
C481 C472 1.390 . S
C481 H474 0.950 . S
C481 C478 1.387 . S
C482 C483 1.387 . S
C482 H486 0.950 . S
C482 C491 1.390 . S
C483 C482 1.387 . S
C483 C485 1.387 . S
H484 C491 0.950 . S
C485 C483 1.387 . S
C485 C487 1.390 . S
C485 H489 0.950 . S
H486 C482 0.950 . S
C487 C485 1.390 . S
C487 C488 1.387 . S
C487 H490 0.950 . S
C488 C487 1.387 . S
C488 C491 1.387 . S
H489 C485 0.950 . S
H490 C487 0.950 . S
C491 C482 1.390 . S
C491 H484 0.950 . S
C491 C488 1.387 . S
C492 C493 1.387 . S
C492 H496 0.950 . S
C492 C501 1.390 . S
C493 C492 1.387 . S
C493 C495 1.387 . S
H494 C501 0.950 . S
C495 C493 1.387 . S
C495 C497 1.390 . S
C495 H499 0.950 . S
H496 C492 0.950 . S
C497 C495 1.390 . S
C497 C498 1.387 . S
C497 H500 0.950 . S
C498 C497 1.387 . S
C498 C501 1.387 . S
H499 C495 0.950 . S
H500 C497 0.950 . S
C501 C492 1.390 . S
C501 H494 0.950 . S
C501 C498 1.387 . S
C502 C503 1.387 . S
C502 H506 0.950 . S
C502 C511 1.390 . S
C503 C502 1.387 . S
C503 C505 1.387 . S
H504 C511 0.950 . S
C505 C503 1.387 . S
C505 C507 1.390 . S
C505 H509 0.950 . S
H506 C502 0.950 . S
C507 C505 1.390 . S
C507 C508 1.387 . S
C507 H510 0.950 . S
C508 C507 1.387 . S
C508 C511 1.387 . S
H509 C505 0.950 . S
H510 C507 0.950 . S
C511 C502 1.390 . S
C511 H504 0.950 . S
C511 C508 1.387 . S
C512 C513 1.387 . S
C512 H516 0.950 . S
C512 C521 1.390 . S
C513 C512 1.387 . S
C513 C515 1.387 . S
H514 C521 0.950 . S
C515 C513 1.387 . S
C515 C517 1.390 . S
C515 H519 0.950 . S
H516 C512 0.950 . S
C517 C515 1.390 . S
C517 C518 1.387 . S
C517 H520 0.950 . S
C518 C517 1.387 . S
C518 C521 1.387 . S
H519 C515 0.950 . S
H520 C517 0.950 . S
C521 C512 1.390 . S
C521 H514 0.950 . S
C521 C518 1.387 . S
C522 C523 1.387 . S
C522 H526 0.950 . S
C522 C531 1.390 . S
C523 C522 1.387 . S
C523 C525 1.387 . S
H524 C531 0.950 . S
C525 C523 1.387 . S
C525 C527 1.390 . S
C525 H529 0.950 . S
H526 C522 0.950 . S
C527 C525 1.390 . S
C527 C528 1.387 . S
C527 H530 0.950 . S
C528 C527 1.387 . S
C528 C531 1.387 . S
H529 C525 0.950 . S
H530 C527 0.950 . S
C531 C522 1.390 . S
C531 H524 0.950 . S
C531 C528 1.387 . S
C532 C533 1.387 . S
C532 H536 0.950 . S
C532 C541 1.390 . S
C533 C532 1.387 . S
C533 C535 1.387 . S
H534 C541 0.950 . S
C535 C533 1.387 . S
C535 C537 1.390 . S
C535 H539 0.950 . S
H536 C532 0.950 . S
C537 C535 1.390 . S
C537 C538 1.387 . S
C537 H540 0.950 . S
C538 C537 1.387 . S
C538 C541 1.387 . S
H539 C535 0.950 . S
H540 C537 0.950 . S
C541 C532 1.390 . S
C541 H534 0.950 . S
C541 C538 1.387 . S
C542 C543 1.387 . S
C542 H546 0.950 . S
C542 C551 1.390 . S
C543 C542 1.387 . S
C543 C545 1.387 . S
H544 C551 0.950 . S
C545 C543 1.387 . S
C545 C547 1.390 . S
C545 H549 0.950 . S
H546 C542 0.950 . S
C547 C545 1.390 . S
C547 C548 1.387 . S
C547 H550 0.950 . S
C548 C547 1.387 . S
C548 C551 1.387 . S
H549 C545 0.950 . S
H550 C547 0.950 . S
C551 C542 1.390 . S
C551 H544 0.950 . S
C551 C548 1.387 . S
C552 C553 1.387 . S
C552 H556 0.950 . S
C552 C561 1.390 . S
C553 C552 1.387 . S
C553 C555 1.387 . S
H554 C561 0.950 . S
C555 C553 1.387 . S
C555 C557 1.390 . S
C555 H559 0.950 . S
H556 C552 0.950 . S
C557 C555 1.390 . S
C557 C558 1.387 . S
C557 H560 0.950 . S
C558 C557 1.387 . S
C558 C561 1.387 . S
H559 C555 0.950 . S
H560 C557 0.950 . S
C561 C552 1.390 . S
C561 H554 0.950 . S
C561 C558 1.387 . S
C562 C563 1.387 . S
C562 H566 0.950 . S
C562 C571 1.390 . S
C563 C562 1.387 . S
C563 C565 1.387 . S
H564 C571 0.950 . S
C565 C563 1.387 . S
C565 C567 1.390 . S
C565 H569 0.950 . S
H566 C562 0.950 . S
C567 C565 1.390 . S
C567 C568 1.387 . S
C567 H570 0.950 . S
C568 C567 1.387 . S
C568 C571 1.387 . S
H569 C565 0.950 . S
H570 C567 0.950 . S
C571 C562 1.390 . S
C571 H564 0.950 . S
C571 C568 1.387 . S
C572 C573 1.387 . S
C572 H576 0.950 . S
C572 C581 1.390 . S
C573 C572 1.387 . S
C573 C575 1.387 . S
H574 C581 0.950 . S
C575 C573 1.387 . S
C575 C577 1.390 . S
C575 H579 0.950 . S
H576 C572 0.950 . S
C577 C575 1.390 . S
C577 C578 1.387 . S
C577 H580 0.950 . S
C578 C577 1.387 . S
C578 C581 1.387 . S
H579 C575 0.950 . S
H580 C577 0.950 . S
C581 C572 1.390 . S
C581 H574 0.950 . S
C581 C578 1.387 . S
C582 C583 1.387 . S
C582 H586 0.950 . S
C582 C591 1.390 . S
C583 C582 1.387 . S
C583 C585 1.387 . S
H584 C591 0.950 . S
C585 C583 1.387 . S
C585 C587 1.390 . S
C585 H589 0.950 . S
H586 C582 0.950 . S
C587 C585 1.390 . S
C587 C588 1.387 . S
C587 H590 0.950 . S
C588 C587 1.387 . S
C588 C591 1.387 . S
H589 C585 0.950 . S
H590 C587 0.950 . S
C591 C582 1.390 . S
C591 H584 0.950 . S
C591 C588 1.387 . S
C592 C593 1.387 . S
C592 H596 0.950 . S
C592 C601 1.390 . S
C593 C592 1.387 . S
C593 C595 1.387 . S
H594 C601 0.950 . S
C595 C593 1.387 . S
C595 C597 1.390 . S
C595 H599 0.950 . S
H596 C592 0.950 . S
C597 C595 1.390 . S
C597 C598 1.387 . S
C597 H600 0.950 . S
C598 C597 1.387 . S
C598 C601 1.387 . S
H599 C595 0.950 . S
H600 C597 0.950 . S
C601 C592 1.390 . S
C601 H594 0.950 . S
C601 C598 1.387 . S
C602 C603 1.387 . S
C602 H606 0.950 . S
C602 C611 1.390 . S
C603 C602 1.387 . S
C603 C605 1.387 . S
H604 C611 0.950 . S
C605 C603 1.387 . S
C605 C607 1.390 . S
C605 H609 0.950 . S
H606 C602 0.950 . S
C607 C605 1.390 . S
C607 C608 1.387 . S
C607 H610 0.950 . S
C608 C607 1.387 . S
C608 C611 1.387 . S
H609 C605 0.950 . S
H610 C607 0.950 . S
C611 C602 1.390 . S
C611 H604 0.950 . S
C611 C608 1.387 . S
C612 C613 1.387 . S
C612 H616 0.950 . S
C612 C621 1.390 . S
C613 C612 1.387 . S
C613 C615 1.387 . S
H614 C621 0.950 . S
C615 C613 1.387 . S
C615 C617 1.390 . S
C615 H619 0.950 . S
H616 C612 0.950 . S
C617 C615 1.390 . S
C617 C618 1.387 . S
C617 H620 0.950 . S
C618 C617 1.387 . S
C618 C621 1.387 . S
H619 C615 0.950 . S
H620 C617 0.950 . S
C621 C612 1.390 . S
C621 H614 0.950 . S
C621 C618 1.387 . S
C622 C623 1.387 . S
C622 H626 0.950 . S
C622 C631 1.390 . S
C623 C622 1.387 . S
C623 C625 1.387 . S
H624 C631 0.950 . S
C625 C623 1.387 . S
C625 C627 1.390 . S
C625 H629 0.950 . S
H626 C622 0.950 . S
C627 C625 1.390 . S
C627 C628 1.387 . S
C627 H630 0.950 . S
C628 C627 1.387 . S
C628 C631 1.387 . S
H629 C625 0.950 . S
H630 C627 0.950 . S
C631 C622 1.390 . S
C631 H624 0.950 . S
C631 C628 1.387 . S
C632 C633 1.387 . S
C632 H636 0.950 . S
C632 C641 1.390 . S
C633 C632 1.387 . S
C633 C635 1.387 . S
H634 C641 0.950 . S
C635 C633 1.387 . S
C635 C637 1.390 . S
C635 H639 0.950 . S
H636 C632 0.950 . S
C637 C635 1.390 . S
C637 C638 1.387 . S
C637 H640 0.950 . S
C638 C637 1.387 . S
C638 C641 1.387 . S
H639 C635 0.950 . S
H640 C637 0.950 . S
C641 C632 1.390 . S
C641 H634 0.950 . S
C641 C638 1.387 . S
C642 C643 1.387 . S
C642 H646 0.950 . S
C642 C651 1.390 . S
C643 C642 1.387 . S
C643 C645 1.387 . S
H644 C651 0.950 . S
C645 C643 1.387 . S
C645 C647 1.390 . S
C645 H649 0.950 . S
H646 C642 0.950 . S
C647 C645 1.390 . S
C647 C648 1.387 . S
C647 H650 0.950 . S
C648 C647 1.387 . S
C648 C651 1.387 . S
H649 C645 0.950 . S
H650 C647 0.950 . S
C651 C642 1.390 . S
C651 H644 0.950 . S
C651 C648 1.387 . S
C652 C653 1.387 . S
C652 H656 0.950 . S
C652 C661 1.390 . S
C653 C652 1.387 . S
C653 C655 1.387 . S
H654 C661 0.950 . S
C655 C653 1.387 . S
C655 C657 1.390 . S
C655 H659 0.950 . S
H656 C652 0.950 . S
C657 C655 1.390 . S
C657 C658 1.387 . S
C657 H660 0.950 . S
C658 C657 1.387 . S
C658 C661 1.387 . S
H659 C655 0.950 . S
H660 C657 0.950 . S
C661 C652 1.390 . S
C661 H654 0.950 . S
C661 C658 1.387 . S
C662 C663 1.387 . S
C662 H666 0.950 . S
C662 C671 1.390 . S
C663 C662 1.387 . S
C663 C665 1.387 . S
H664 C671 0.950 . S
C665 C663 1.387 . S
C665 C667 1.390 . S
C665 H669 0.950 . S
H666 C662 0.950 . S
C667 C665 1.390 . S
C667 C668 1.387 . S
C667 H670 0.950 . S
C668 C667 1.387 . S
C668 C671 1.387 . S
H669 C665 0.950 . S
H670 C667 0.950 . S
C671 C662 1.390 . S
C671 H664 0.950 . S
C671 C668 1.387 . S
C433 C302 1.289 . S
C438 C14 1.286 . S
C443 C50 1.288 . S
C448 C338 1.288 . S
C453 C86 1.285 . S
C458 C374 1.289 . S
C463 C122 1.286 . S
C468 C410 1.289 . S
C473 C230 1.287 . S
C478 C158 1.287 . S
C483 C194 1.289 . S
C488 C266 1.286 . S
C493 C4 1.530 . S
C498 C183 1.544 1_554 S
C503 C40 1.530 . S
C508 C3 1.545 . S
C513 C76 1.529 . S
C518 C39 1.545 . S
C523 C75 1.545 . S
C528 C112 1.528 . S
C533 C111 1.545 . S
C538 C148 1.529 . S
C543 C147 1.544 . S
C548 C184 1.528 . S
C553 C255 1.544 . S
C558 C220 1.528 . S
C563 C256 1.530 . S
C568 C291 1.544 1_556 S
C573 C327 1.544 . S
C578 C292 1.530 . S
C583 C328 1.529 . S
C588 C363 1.544 . S
C593 C364 1.528 . S
C598 C399 1.545 . S
C603 C400 1.529 . S
C608 C219 1.545 . S
C613 C362 1.312 . S
C618 C2 1.312 . S
C623 C398 1.313 . S
C628 C38 1.311 . S
C633 C218 1.312 . S
C638 C74 1.312 . S
C643 C110 1.312 . S
C648 C254 1.312 . S
C653 C146 1.311 . S
C658 C290 1.313 . S
C663 C326 1.311 . S
C668 C182 1.313 . S
