# Generated by pormake.
# Topology smm, (6)-cn, num edge types: 1
# Building blocks:
#     Node 0, Type 0, BuildingBlock: GEDQOX_clean_sbu_0, # of connection points: 6
#     Node 1, Type 0, BuildingBlock: GEDQOX_clean_sbu_0, # of connection points: 6
#     Node 2, Type 0, BuildingBlock: GEDQOX_clean_sbu_0, # of connection points: 6
#     Node 3, Type 0, BuildingBlock: GEDQOX_clean_sbu_0, # of connection points: 6
#     Node 4, Type 0, BuildingBlock: GEDQOX_clean_sbu_0, # of connection points: 6
#     Node 5, Type 0, BuildingBlock: GEDQOX_clean_sbu_0, # of connection points: 6
#     Node 6, Type 0, BuildingBlock: GEDQOX_clean_sbu_0, # of connection points: 6
#     Node 7, Type 0, BuildingBlock: GEDQOX_clean_sbu_0, # of connection points: 6
#     Node 8, Type 0, BuildingBlock: GEDQOX_clean_sbu_0, # of connection points: 6
#     Edge 9, Type (0, 0), BuildingBlock: CIFDUS_clean_linker_0, # of connection points: 2
#     Edge 10, Type (0, 0), BuildingBlock: CIFDUS_clean_linker_0, # of connection points: 2
#     Edge 11, Type (0, 0), BuildingBlock: CIFDUS_clean_linker_0, # of connection points: 2
#     Edge 12, Type (0, 0), BuildingBlock: CIFDUS_clean_linker_0, # of connection points: 2
#     Edge 13, Type (0, 0), BuildingBlock: CIFDUS_clean_linker_0, # of connection points: 2
#     Edge 14, Type (0, 0), BuildingBlock: CIFDUS_clean_linker_0, # of connection points: 2
#     Edge 15, Type (0, 0), BuildingBlock: CIFDUS_clean_linker_0, # of connection points: 2
#     Edge 16, Type (0, 0), BuildingBlock: CIFDUS_clean_linker_0, # of connection points: 2
#     Edge 17, Type (0, 0), BuildingBlock: CIFDUS_clean_linker_0, # of connection points: 2
#     Edge 18, Type (0, 0), BuildingBlock: CIFDUS_clean_linker_0, # of connection points: 2
#     Edge 19, Type (0, 0), BuildingBlock: CIFDUS_clean_linker_0, # of connection points: 2
#     Edge 20, Type (0, 0), BuildingBlock: CIFDUS_clean_linker_0, # of connection points: 2
#     Edge 21, Type (0, 0), BuildingBlock: CIFDUS_clean_linker_0, # of connection points: 2
#     Edge 22, Type (0, 0), BuildingBlock: CIFDUS_clean_linker_0, # of connection points: 2
#     Edge 23, Type (0, 0), BuildingBlock: CIFDUS_clean_linker_0, # of connection points: 2
#     Edge 24, Type (0, 0), BuildingBlock: CIFDUS_clean_linker_0, # of connection points: 2
#     Edge 25, Type (0, 0), BuildingBlock: CIFDUS_clean_linker_0, # of connection points: 2
#     Edge 26, Type (0, 0), BuildingBlock: CIFDUS_clean_linker_0, # of connection points: 2
#     Edge 27, Type (0, 0), BuildingBlock: CIFDUS_clean_linker_0, # of connection points: 2
#     Edge 28, Type (0, 0), BuildingBlock: CIFDUS_clean_linker_0, # of connection points: 2
#     Edge 29, Type (0, 0), BuildingBlock: CIFDUS_clean_linker_0, # of connection points: 2
#     Edge 30, Type (0, 0), BuildingBlock: CIFDUS_clean_linker_0, # of connection points: 2
#     Edge 31, Type (0, 0), BuildingBlock: CIFDUS_clean_linker_0, # of connection points: 2
#     Edge 32, Type (0, 0), BuildingBlock: CIFDUS_clean_linker_0, # of connection points: 2
#     Edge 33, Type (0, 0), BuildingBlock: CIFDUS_clean_linker_0, # of connection points: 2
#     Edge 34, Type (0, 0), BuildingBlock: CIFDUS_clean_linker_0, # of connection points: 2
#     Edge 35, Type (0, 0), BuildingBlock: CIFDUS_clean_linker_0, # of connection points: 2
# Relax obj value: 0.048
# Max RMSD: 0.128
# Mean RMSD: 0.128
data_MOF--net-smm--node1-GEDQOX_clean_sbu_0--edge1-CIFDUS_clean_linker_0
_symmetry_space_group_name_H-M    P1
_symmetry_Int_Tables_number       1
_symmetry_cell_setting            triclinic
loop_
_symmetry_equiv_pos_as_xyz
'x, y, z'
_cell_length_a     64.210745
_cell_length_b     64.299673
_cell_length_c     12.712467
_cell_angle_alpha  90.033999
_cell_angle_beta   90.264364
_cell_angle_gamma 120.12505
loop_
_atom_site_label
_atom_site_type_symbol
_atom_site_fract_x
_atom_site_fract_y
_atom_site_fract_z
_atom_type_partial_charge
Nd0 Nd 0.08495 0.23871 0.02815 0.0
Nd1 Nd 1.04097 0.19126 -0.00084 0.0
C2 C 0.1186 0.28428 0.06484 0.0
C3 C 0.12631 0.30879 0.02284 0.0
C4 C 0.12551 0.32606 0.08779 0.0
C5 C 0.1334 0.34943 0.05123 0.0
C6 C 0.14245 0.35632 0.94849 0.0
C7 C 0.14335 0.33903 0.88354 0.0
C8 C 0.13536 0.31559 0.92008 0.0
C9 C 0.0768 0.22319 0.82228 0.0
C10 C 1.03225 0.23594 0.00963 0.0
C11 C 1.00728 0.14708 0.94095 0.0
C12 C 0.99901 0.12116 0.95319 0.0
C13 C 0.97443 0.10444 0.94038 0.0
C14 C 0.96573 0.07976 0.95147 0.0
C15 C 0.98141 0.07108 0.97583 0.0
C16 C 1.00614 0.08796 -0.01116 0.0
C17 C 1.01485 0.11276 -0.02211 0.0
C18 C 0.0483 0.2064 0.20518 0.0
C19 C 0.09304 0.19383 0.04594 0.0
O20 O 0.09827 0.27323 0.11612 0.0
O21 O 0.12187 0.26961 0.00539 0.0
O22 O 0.09752 0.23316 0.86862 0.0
O23 O 0.06067 0.22167 0.88386 0.0
O24 O 0.05478 0.24798 0.04258 0.0
O25 O 1.02291 0.21392 0.9717 0.0
O26 O 1.02686 0.16041 0.88706 0.0
O27 O 1.00549 0.15825 0.023 0.0
O28 O 1.0275 0.19521 0.1592 0.0
O29 O 0.06482 0.2085 0.14436 0.0
O30 O 0.07158 0.18191 0.00052 0.0
O31 O 0.10097 0.21573 0.08342 0.0
H32 H 0.11893 0.32152 0.1676 0.0
H33 H 0.13273 0.36224 0.10439 0.0
H34 H 0.14993 0.3435 0.80374 0.0
H35 H 0.13634 0.30284 0.86762 0.0
H36 H 0.96188 0.1105 0.92117 0.0
H37 H 0.9467 0.06744 0.93898 0.0
H38 H 1.01876 0.08204 0.00859 0.0
H39 H 1.03389 0.12532 -0.01114 0.0
Nd40 Nd 0.86296 0.87428 0.00531 0.0
Nd41 Nd 0.90968 0.87679 -0.02085 0.0
C42 C 0.81756 0.86321 0.03631 0.0
C43 C 0.79348 0.84735 -0.01263 0.0
C44 C 0.77506 0.82913 0.04732 0.0
C45 C 0.75223 0.81407 0.00338 0.0
C46 C 0.74709 0.81684 0.89807 0.0
C47 C 0.76546 0.8353 0.83833 0.0
C48 C 0.78839 0.85032 0.88225 0.0
C49 C 0.87851 0.88141 0.80013 0.0
C50 C 0.86428 0.8236 -0.00846 0.0
C51 C 0.95409 0.88784 0.92437 0.0
C52 C 0.97994 0.90646 0.93935 0.0
C53 C 0.993 0.92206 0.8567 0.0
C54 C 1.01784 0.93811 0.8665 0.0
C55 C 1.03039 0.93887 0.959 0.0
C56 C 1.01722 0.92352 0.04229 0.0
C57 C 0.99239 0.90754 0.03261 0.0
C58 C 0.89463 0.86914 0.18451 0.0
C59 C 0.9083 0.9268 0.0271 0.0
O60 O 0.82768 0.8528 0.08642 0.0
O61 O 0.83309 0.88183 -0.01744 0.0
O62 O 0.86916 0.89265 0.84601 0.0
O63 O 0.87952 0.86653 0.86189 0.0
O64 O 0.85285 0.83467 0.02378 0.0
O65 O 0.88627 0.83591 0.953 0.0
O66 O 0.94047 0.89318 0.86683 0.0
O67 O 0.94261 0.87449 0.00499 0.0
O68 O 0.9054 0.85917 0.13899 0.0
O69 O 0.89289 0.8838 0.12362 0.0
O70 O 0.91981 0.91704 -0.01895 0.0
O71 O 0.88639 0.91296 0.0641 0.0
H72 H 0.77832 0.82652 0.12865 0.0
H73 H 0.73849 0.80033 0.05252 0.0
H74 H 0.76228 0.83786 0.75689 0.0
H75 H 0.80213 0.86418 0.83354 0.0
H76 H 0.98409 0.92148 0.78328 0.0
H77 H 1.02735 0.94942 0.80015 0.0
H78 H 1.02612 0.9238 0.11527 0.0
H79 H 0.98305 0.89573 0.09789 0.0
Nd80 Nd 0.22767 1.01569 0.05187 0.0
Nd81 Nd 0.22474 0.06133 0.02987 0.0
C82 C 0.23835 0.98131 0.0868 0.0
C83 C 0.25465 0.97335 0.04145 0.0
C84 C 0.27517 0.97711 0.09767 0.0
C85 C 0.29058 0.96961 0.05648 0.0
C86 C 0.28589 0.95802 0.95789 0.0
C87 C 0.26517 0.95396 0.90222 0.0
C88 C 0.24977 0.96153 0.94334 0.0
C89 C 0.22896 0.03056 0.84896 0.0
C90 C 0.27698 0.06852 0.08092 0.0
C91 C 0.21544 0.09562 0.97158 0.0
C92 C 0.19704 0.1032 -0.01751 0.0
C93 C 0.18164 0.10042 0.89796 0.0
C94 C 0.16557 0.10916 0.90456 0.0
C95 C 0.16454 0.1211 -0.0043 0.0
C96 C 0.17984 0.12371 0.08056 0.0
C97 C 0.19587 0.11493 0.07404 0.0
C98 C 0.22427 0.04762 0.2336 0.0
C99 C 0.17442 1.00795 0.03854 0.0
O100 O 0.24833 1.00168 0.13857 0.0
O101 O 0.22012 0.97829 0.02927 0.0
O102 O 0.21795 1.00835 0.87771 0.0
O103 O 0.24002 0.04432 0.92487 0.0
O104 O 0.26483 0.04562 0.1077 0.0
O105 O 0.26625 0.07858 0.03006 0.0
O106 O 0.21019 0.0768 0.91314 0.0
O107 O 0.22798 0.09694 0.05515 0.0
O108 O 0.234 0.06982 0.20405 0.0
O109 O 0.21326 0.03337 0.15876 0.0
O110 O 0.18509 0.03034 0.00278 0.0
O111 O 0.18727 0.99923 0.08125 0.0
H112 H 0.27931 0.98585 0.17393 0.0
H113 H 0.30609 0.97272 0.10269 0.0
H114 H 0.26104 0.94531 0.82579 0.0
H115 H 0.23409 0.95817 0.89776 0.0
H116 H 0.1823 0.09184 0.82569 0.0
H117 H 0.15437 0.10707 0.8369 0.0
H118 H 0.17941 0.13251 0.1525 0.0
H119 H 0.20757 0.11764 0.14059 0.0
Nd120 Nd 0.74969 0.57619 0.33254 0.0
Nd121 Nd 0.70548 0.52902 0.30488 0.0
C122 C 0.78451 0.62141 0.36813 0.0
C123 C 0.79543 0.64524 0.31625 0.0
C124 C 0.81709 0.66426 0.35564 0.0
C125 C 0.82823 0.68679 0.30645 0.0
C126 C 0.81801 0.69094 0.21618 0.0
C127 C 0.7961 0.67181 0.17735 0.0
C128 C 0.78497 0.64919 0.22668 0.0
C129 C 0.74134 0.56049 0.12681 0.0
C130 C 0.69734 0.57417 0.31826 0.0
C131 C 0.67206 0.4844 0.25011 0.0
C132 C 0.66487 0.45853 0.26296 0.0
C133 C 0.66883 0.44606 0.1818 0.0
C134 C 0.66014 0.42124 0.18936 0.0
C135 C 0.64705 0.40809 0.27803 0.0
C136 C 0.64332 0.42066 0.35968 0.0
C137 C 0.65205 0.44547 0.3522 0.0
C138 C 0.71285 0.54448 0.51029 0.0
C139 C 0.7572 0.53116 0.35484 0.0
O140 O 0.76259 0.61235 0.40363 0.0
O141 O 0.78802 0.60521 0.32302 0.0
O142 O 0.76208 0.57053 0.17278 0.0
O143 O 0.72533 0.55915 0.1884 0.0
O144 O 0.71982 0.58571 0.35225 0.0
O145 O 0.6878 0.55223 0.2785 0.0
O146 O 0.69071 0.49817 0.19171 0.0
O147 O 0.67053 0.49577 0.33214 0.0
O148 O 0.69205 0.53343 0.46417 0.0
O149 O 0.72934 0.54633 0.44991 0.0
O150 O 0.73601 0.51942 0.30705 0.0
O151 O 0.76483 0.55291 0.39319 0.0
H152 H 0.82548 0.66167 0.42466 0.0
H153 H 0.8448 0.70108 0.34007 0.0
H154 H 0.78775 0.67417 0.10769 0.0
H155 H 0.76831 0.63473 0.19446 0.0
H156 H 0.67824 0.45539 0.11117 0.0
H157 H 0.66314 0.41225 0.12411 0.0
H158 H 0.63365 0.41133 0.42982 0.0
H159 H 0.64838 0.45432 0.41601 0.0
Nd160 Nd 0.53124 0.20904 0.35644 0.0
Nd161 Nd 0.58158 0.21563 0.33373 0.0
C162 C 0.48597 0.19734 0.39589 0.0
C163 C 0.46169 0.18359 0.34637 0.0
C164 C 0.44203 0.16719 0.40687 0.0
C165 C 0.41879 0.1547 0.36322 0.0
C166 C 0.41456 0.15837 0.25783 0.0
C167 C 0.43431 0.17478 0.19716 0.0
C168 C 0.4576 0.18716 0.24071 0.0
C169 C 0.54514 0.20909 0.15273 0.0
C170 C 0.53841 0.16187 0.37532 0.0
C171 C 0.62581 0.22669 0.27729 0.0
C172 C 0.65172 0.24511 0.29283 0.0
C173 C 0.66358 0.26454 0.22311 0.0
C174 C 0.68839 0.28072 0.23316 0.0
C175 C 0.70208 0.27786 0.31283 0.0
C176 C 0.69012 0.25853 0.38307 0.0
C177 C 0.66535 0.24236 0.37301 0.0
C178 C 0.56765 0.21471 0.53779 0.0
C179 C 0.57547 0.26375 0.34336 0.0
O180 O 0.49572 0.18514 0.43211 0.0
O181 O 0.50166 0.21733 0.35048 0.0
O182 O 0.53203 0.21803 0.18176 0.0
O183 O 0.54907 0.19891 0.2282 0.0
O184 O 0.52636 0.1723 0.4088 0.0
O185 O 0.55881 0.17436 0.32314 0.0
O186 O 0.61221 0.23239 0.22132 0.0
O187 O 0.61438 0.21298 0.35731 0.0
O188 O 0.58136 0.20642 0.50795 0.0
O189 O 0.56356 0.22506 0.46336 0.0
O190 O 0.5882 0.25428 0.30693 0.0
O191 O 0.55402 0.24988 0.38561 0.0
H192 H 0.4446 0.1642 0.48859 0.0
H193 H 0.40403 0.14245 0.4128 0.0
H194 H 0.43182 0.17786 0.11551 0.0
H195 H 0.47238 0.19961 0.19167 0.0
H196 H 0.65379 0.26702 0.15938 0.0
H197 H 0.69694 0.29513 0.17652 0.0
H198 H 0.6999 0.25585 0.44622 0.0
H199 H 0.65694 0.22748 0.42752 0.0
Nd200 Nd 0.90045 0.36099 0.3179 0.0
Nd201 Nd 0.89557 0.40435 0.32818 0.0
C202 C 0.91596 0.3303 0.28804 0.0
C203 C 0.92551 0.31422 0.25807 0.0
C204 C 0.92495 0.29675 0.32634 0.0
C205 C 0.9354 0.2829 0.29638 0.0
C206 C 0.94672 0.28635 0.19781 0.0
C207 C 0.94664 0.30342 0.1292 0.0
C208 C 0.93623 0.31707 0.15871 0.0
C209 C 0.88683 0.37231 0.13208 0.0
C210 C 0.94936 0.41372 0.33728 0.0
C211 C 0.88475 0.43904 0.3035 0.0
C212 C 0.86574 0.44564 0.29977 0.0
C213 C 0.87233 0.4694 0.2749 0.0
C214 C 0.8555 0.47715 0.27973 0.0
C215 C 0.83154 0.46129 0.30947 0.0
C216 C 0.82479 0.43723 0.3321 0.0
C217 C 0.84178 0.4295 0.32787 0.0
C218 C 0.90767 0.39385 0.51904 0.0
C219 C 0.84682 0.34965 0.35362 0.0
O220 O 0.90243 0.32798 0.36955 0.0
O221 O 0.92087 0.34858 0.2279 0.0
O222 O 0.87621 0.35113 0.17337 0.0
O223 O 0.90344 0.3873 0.19158 0.0
O224 O 0.93853 0.39086 0.36395 0.0
O225 O 0.93672 0.42352 0.30367 0.0
O226 O 0.88675 0.42705 0.22475 0.0
O227 O 0.88895 0.43239 0.39428 0.0
O228 O 0.91644 0.41536 0.48175 0.0
O229 O 0.89238 0.37816 0.45658 0.0
O230 O 0.85578 0.37271 0.32991 0.0
O231 O 0.86103 0.34047 0.36689 0.0
H232 H 0.91683 0.29408 0.40329 0.0
H233 H 0.93516 0.26993 0.35141 0.0
H234 H 0.95467 0.30627 0.05196 0.0
H235 H 0.93682 0.33012 0.10314 0.0
H236 H 0.89072 0.48219 0.25342 0.0
H237 H 0.8613 0.49565 0.25993 0.0
H238 H 0.80655 0.42453 0.35577 0.0
H239 H 0.83633 0.41112 0.34829 0.0
Nd240 Nd 0.41315 0.90726 0.6702 0.0
Nd241 Nd 0.37286 0.8565 0.66378 0.0
C242 C 0.45147 0.95138 0.68114 0.0
C243 C 0.45918 0.9764 0.6453 0.0
C244 C 0.45737 0.9928 0.71255 0.0
C245 C 0.4654 1.01653 0.68059 0.0
C246 C 0.47562 1.02471 0.58046 0.0
C247 C 0.47758 1.00832 0.51346 0.0
C248 C 0.46953 0.98456 0.54543 0.0
C249 C 0.39095 0.89316 0.47576 0.0
C250 C 0.36059 0.89974 0.71218 0.0
C251 C 0.33417 0.81353 0.62872 0.0
C252 C 0.32625 0.78757 0.62991 0.0
C253 C 0.34191 0.77923 0.65883 0.0
C254 C 0.33361 0.75442 0.66258 0.0
C255 C 0.30944 0.73744 0.63782 0.0
C256 C 0.29397 0.74605 0.60817 0.0
C257 C 0.30229 0.77078 0.60437 0.0
C258 C 0.39422 0.86984 0.85974 0.0
C259 C 0.4257 0.86345 0.653 0.0
O260 O 0.43528 0.94203 0.75523 0.0
O261 O 0.44855 0.93556 0.60941 0.0
O262 O 0.39643 0.91328 0.52137 0.0
O263 O 0.39644 0.88084 0.53452 0.0
O264 O 0.3837 0.91396 0.73182 0.0
O265 O 0.35264 0.87816 0.67 0.0
O266 O 0.34908 0.82668 0.55483 0.0
O267 O 0.33937 0.82454 0.71956 0.0
O268 O 0.3876 0.84925 0.81537 0.0
O269 O 0.38959 0.88278 0.80035 0.0
O270 O 0.40321 0.84933 0.62283 0.0
O271 O 0.43295 0.88539 0.68966 0.0
H272 H 0.4499 0.98736 0.79061 0.0
H273 H 0.46392 0.02861 0.73544 0.0
H274 H 0.4851 1.01374 0.43551 0.0
H275 H 0.4715 0.9726 0.49166 0.0
H276 H 0.36047 0.79188 0.67935 0.0
H277 H 0.34603 0.74856 0.68671 0.0
H278 H 0.27541 0.73367 0.58676 0.0
H279 H 0.28989 0.77682 0.58175 0.0
Nd280 Nd 0.19616 0.53795 0.69574 0.0
Nd281 Nd 0.2469 0.54508 0.67224 0.0
C282 C 0.15089 0.52624 0.73679 0.0
C283 C 0.12718 0.51532 0.68297 0.0
C284 C 0.10791 0.51575 0.73229 0.0
C285 C 0.08536 0.50586 0.68263 0.0
C286 C 0.08149 0.49525 0.58209 0.0
C287 C 0.10092 0.4948 0.53292 0.0
C288 C 0.12354 0.5048 0.58272 0.0
C289 C 0.21008 0.53809 0.49184 0.0
C290 C 0.2041 0.49158 0.72197 0.0
C291 C 0.29051 0.55535 0.60935 0.0
C292 C 0.31651 0.5733 0.61796 0.0
C293 C 0.33331 0.56575 0.60207 0.0
C294 C 0.35807 0.58208 0.60935 0.0
C295 C 0.36674 0.60648 0.63287 0.0
C296 C 0.34978 0.61401 0.64908 0.0
C297 C 0.32491 0.59758 0.64191 0.0
C298 C 0.23315 0.54409 0.87671 0.0
C299 C 0.24029 0.59291 0.68486 0.0
O300 O 0.15968 0.5122 0.75674 0.0
O301 O 0.16734 0.54744 0.70433 0.0
O302 O 0.19665 0.54669 0.52071 0.0
O303 O 0.21422 0.52813 0.56756 0.0
O304 O 0.1923 0.50222 0.75596 0.0
O305 O 0.22407 0.50372 0.66655 0.0
O306 O 0.27668 0.56118 0.55602 0.0
O307 O 0.28007 0.54283 0.69346 0.0
O308 O 0.2474 0.53642 0.84695 0.0
O309 O 0.22863 0.55409 0.80204 0.0
O310 O 0.25346 0.58385 0.64922 0.0
O311 O 0.21867 0.57873 0.72491 0.0
H312 H 0.11029 0.52374 0.80966 0.0
H313 H 0.07084 0.50623 0.72392 0.0
H314 H 0.09875 0.48703 0.45527 0.0
H315 H 0.13821 0.50439 0.54287 0.0
H316 H 0.32725 0.54711 0.58332 0.0
H317 H 0.37044 0.57561 0.59454 0.0
H318 H 0.3557 0.63257 0.66836 0.0
H319 H 0.31229 0.60381 0.65513 0.0
Nd320 Nd 0.56518 0.6904 0.65157 0.0
Nd321 Nd 0.56033 0.73317 0.61981 0.0
C322 C 0.57786 0.65737 0.68907 0.0
C323 C 0.58905 0.64512 0.63343 0.0
C324 C 0.58556 0.62315 0.67169 0.0
C325 C 0.59628 0.61139 0.62209 0.0
C326 C 0.61084 0.6213 0.53256 0.0
C327 C 0.61421 0.64336 0.49403 0.0
C328 C 0.6034 0.6551 0.54374 0.0
C329 C 0.5583 0.69776 0.44344 0.0
C330 C 0.61389 0.7436 0.64809 0.0
C331 C 0.54868 0.76575 0.55883 0.0
C332 C 0.53075 0.77382 0.57398 0.0
C333 C 0.51198 0.76745 0.50085 0.0
C334 C 0.4963 0.77661 0.50978 0.0
C335 C 0.49898 0.79256 0.59181 0.0
C336 C 0.51772 0.79886 0.66517 0.0
C337 C 0.53339 0.78968 0.65629 0.0
C338 C 0.56766 0.72687 0.82804 0.0
C339 C 0.51158 0.68085 0.66787 0.0
O340 O 0.55633 0.65214 0.65877 0.0
O341 O 0.59159 0.68023 0.70965 0.0
O342 O 0.5483 0.67715 0.48927 0.0
O343 O 0.57224 0.71417 0.5062 0.0
O344 O 0.60311 0.72191 0.68967 0.0
O345 O 0.60123 0.75106 0.59433 0.0
O346 O 0.54206 0.74569 0.5077 0.0
O347 O 0.56333 0.76892 0.63663 0.0
O348 O 0.57651 0.7475 0.78204 0.0
O349 O 0.554 0.70993 0.76634 0.0
O350 O 0.52055 0.70186 0.61998 0.0
O351 O 0.52616 0.6739 0.70744 0.0
H352 H 0.57466 0.61512 0.74089 0.0
H353 H 0.59351 0.5947 0.65544 0.0
H354 H 0.62504 0.65148 0.4248 0.0
H355 H 0.60629 0.672 0.5123 0.0
H356 H 0.50965 0.75568 0.43532 0.0
H357 H 0.48238 0.77158 0.45065 0.0
H358 H 0.52025 0.81084 0.73008 0.0
H359 H 0.5478 0.79529 0.71346 0.0
H360 H 0.18158 0.38542 0.82473 0.0
H361 H 0.12154 0.38376 -0.016 0.0
H362 H 0.13498 0.42478 0.92736 0.0
H363 H 0.16399 0.46153 0.83524 0.0
H364 H 0.22401 0.46357 0.67431 0.0
H365 H 0.21018 0.42211 0.72762 0.0
C366 C 0.17127 0.39391 0.84626 0.0
C367 C 0.1506 0.38133 0.90968 0.0
C368 C 0.1791 0.4177 0.81296 0.0
C369 C 0.13773 0.39294 0.93722 0.0
C370 C 0.14533 0.41644 0.9042 0.0
C371 C 0.17407 0.45296 0.81124 0.0
C372 C 0.19511 0.46588 0.75059 0.0
C373 C 0.16606 0.42907 0.84265 0.0
C374 C 0.20778 0.45423 0.72073 0.0
C375 C 0.19988 0.43045 0.75143 0.0
H376 H 0.71951 0.82736 0.76525 0.0
H377 H 0.71997 0.76826 0.92397 0.0
H378 H 0.67981 0.74063 0.8561 0.0
H379 H 0.64392 0.73317 0.75793 0.0
H380 H 0.64233 0.79167 0.5993 0.0
H381 H 0.68361 0.81936 0.65894 0.0
C382 C 0.71093 0.8084 0.7841 0.0
C383 C 0.72283 0.80007 0.85105 0.0
C384 C 0.68758 0.79241 0.74455 0.0
C385 C 0.71122 0.77538 0.87477 0.0
C386 C 0.68823 0.75947 0.83532 0.0
C387 C 0.65257 0.75194 0.73533 0.0
C388 C 0.63984 0.76022 0.67401 0.0
C389 C 0.67614 0.7678 0.77117 0.0
C390 C 0.65158 0.78467 0.64597 0.0
C391 C 0.6752 0.80057 0.68059 0.0
H392 H 0.27508 0.91668 0.84898 0.0
H393 H 0.33513 0.98294 0.96478 0.0
H394 H 0.36314 0.9711 0.89715 0.0
H395 H 0.37087 0.94184 0.80818 0.0
H396 H 0.31124 0.87546 0.6912 0.0
H397 H 0.283 0.88765 0.75453 0.0
C398 C 0.2943 0.92866 0.85859 0.0
C399 C 0.30283 0.95066 0.91308 0.0
C400 C 0.31048 0.92175 0.81894 0.0
C401 C 0.32788 0.96573 0.92529 0.0
C402 C 0.34399 0.95905 0.88587 0.0
C403 C 0.35171 0.93002 0.79569 0.0
C404 C 0.34332 0.9077 0.74456 0.0
C405 C 0.33553 0.93705 0.83315 0.0
C406 C 0.31834 0.89274 0.72985 0.0
C407 C 0.30213 0.89969 0.7664 0.0
H408 H 0.3809 0.11112 0.28251 0.0
H409 H 0.39211 0.17564 0.12874 0.0
H410 H 0.351 0.15394 0.05782 0.0
H411 H 0.311 0.11639 0.04339 0.0
H412 H 0.30135 0.05232 0.19818 0.0
H413 H 0.34222 0.07407 0.26449 0.0
C414 C 0.37435 0.12053 0.23405 0.0
C415 C 0.38965 0.14506 0.21189 0.0
C416 C 0.35073 0.10796 0.1934 0.0
C417 C 0.38087 0.15673 0.14686 0.0
C418 C 0.35726 0.14434 0.10659 0.0
C419 C 0.31788 0.10719 0.09116 0.0
C420 C 0.30277 0.08263 0.11532 0.0
C421 C 0.34189 0.1199 0.1297 0.0
C422 C 0.31224 0.07112 0.17752 0.0
C423 C 0.33578 0.08357 0.21609 0.0
H424 H 0.98995 0.30388 0.09968 0.0
H425 H 0.93138 0.23827 0.22435 0.0
H426 H 0.95141 0.21623 0.16803 0.0
H427 H 0.98643 0.21587 0.08669 0.0
H428 H 0.04549 0.28228 0.97103 0.0
H429 H 1.02417 0.30352 0.01734 0.0
C430 C 0.98138 0.2847 0.11365 0.0
C431 C 0.95906 0.27279 0.16597 0.0
C432 C 0.99303 0.27218 0.08134 0.0
C433 C 0.9486 0.24799 0.18522 0.0
C434 C 0.95999 0.23533 0.15223 0.0
C435 C 0.99432 0.23487 0.06964 0.0
C436 C 1.01734 0.24742 0.0237 0.0
C437 C 0.98226 0.24723 0.10024 0.0
C438 C 1.02769 0.27219 0.0051 0.0
C439 C 1.01557 0.28438 0.03225 0.0
H440 H 0.88534 0.79664 0.03894 0.0
H441 H 0.81633 0.79143 -0.00826 0.0
H442 H 0.79589 0.74974 0.05103 0.0
H443 H 0.79746 0.71569 0.13081 0.0
H444 H 0.86639 0.72096 0.1831 0.0
H445 H 0.88678 0.76141 0.10899 0.0
C446 C 0.86583 0.78619 0.03934 0.0
C447 C 0.85243 0.7972 0.01015 0.0
C448 C 0.85408 0.76224 0.07667 0.0
C449 C 0.82713 0.78346 0.01343 0.0
C450 C 0.81538 0.75959 0.04791 0.0
C451 C 0.81692 0.72549 0.12459 0.0
C452 C 0.83025 0.71515 0.16381 0.0
C453 C 0.82865 0.74892 0.08203 0.0
C454 C 0.85555 0.72846 0.15573 0.0
C455 C 0.86729 0.75163 0.11255 0.0
H456 H 0.05771 0.45345 0.46819 0.0
H457 H 0.05033 0.51283 0.57901 0.0
H458 H 1.00974 0.49424 0.50443 0.0
H459 H 0.97503 0.45966 0.41628 0.0
H460 H 0.98242 0.39992 0.31178 0.0
H461 H 1.02421 0.42027 0.37229 0.0
C462 C 0.04743 0.46256 0.47466 0.0
C463 C 0.05721 0.48451 0.53007 0.0
C464 C 1.02394 0.45168 0.43195 0.0
C465 C 0.04326 0.49576 0.53854 0.0
C466 C 1.02002 0.48519 0.49521 0.0
C467 C 0.98601 0.45141 0.40462 0.0
C468 C 0.97566 0.42838 0.35862 0.0
C469 C 1.00999 0.46297 0.4428 0.0
C470 C 0.98996 0.41767 0.34647 0.0
C471 C 1.01386 0.42925 0.38159 0.0
H472 H 0.65631 0.64137 0.44987 0.0
H473 H 0.59214 0.57281 0.50001 0.0
H474 H 0.61218 0.55212 0.42907 0.0
H475 H 0.64904 0.55325 0.36265 0.0
H476 H 0.71321 0.62199 0.31711 0.0
H477 H 0.69198 0.64262 0.37319 0.0
C478 C 0.6465 0.62192 0.44378 0.0
C479 C 0.6227 0.6088 0.48151 0.0
C480 C 0.6582 0.61003 0.40303 0.0
C481 C 0.61057 0.58351 0.47374 0.0
C482 C 0.622 0.5716 0.43239 0.0
C483 C 0.65818 0.57273 0.36274 0.0
C484 C 0.68271 0.586 0.33508 0.0
C485 C 0.64596 0.58462 0.39808 0.0
C486 C 0.69437 0.61128 0.3378 0.0
C487 C 0.68225 0.62314 0.3704 0.0
H488 H 0.49758 0.13087 0.48298 0.0
H489 H 0.55862 0.13429 0.32551 0.0
H490 H 0.54464 0.09251 0.37311 0.0
H491 H 0.51562 0.05511 0.46396 0.0
H492 H 0.45439 0.05182 0.61924 0.0
H493 H 0.46808 0.09328 0.56906 0.0
C494 C 0.50783 0.12252 0.45847 0.0
C495 C 0.52922 0.13595 0.40044 0.0
C496 C 0.49973 0.0984 0.48657 0.0
C497 C 0.54213 0.12458 0.36993 0.0
C498 C 0.53414 0.10061 0.39738 0.0
C499 C 0.50509 0.06332 0.486 0.0
C500 C 0.48399 0.05011 0.54635 0.0
C501 C 0.51302 0.08734 0.45621 0.0
C502 C 0.47089 0.06143 0.57479 0.0
C503 C 0.47863 0.0852 0.5454 0.0
H504 H 0.17301 0.16377 0.08292 0.0
H505 H 0.11816 0.10079 0.92134 0.0
H506 H 0.09122 0.11728 0.9249 0.0
H507 H 0.08334 0.14993 0.97054 0.0
H508 H 0.13809 0.21281 0.13318 0.0
H509 H 0.16461 0.19582 0.13395 0.0
C510 C 0.15507 0.15347 0.04957 0.0
C511 C 0.14781 0.13102 0.00145 0.0
C512 C 0.13954 0.16305 0.05211 0.0
C513 C 0.12452 0.11824 0.95739 0.0
C514 C 0.10899 0.12761 0.95994 0.0
C515 C 0.10101 0.1599 0.00683 0.0
C516 C 0.1086 0.18271 0.05171 0.0
C517 C 0.11633 0.15007 0.00645 0.0
C518 C 0.13164 0.19526 0.09805 0.0
C519 C 0.14691 0.18555 0.09836 0.0
H520 H 0.9527 0.96104 0.95548 0.0
H521 H 0.88966 0.95295 0.11325 0.0
H522 H 0.90694 0.9965 0.11462 0.0
H523 H 0.9393 0.03696 0.06623 0.0
H524 H 1.00207 0.0452 0.90573 0.0
H525 H 0.98574 1.00176 0.91206 0.0
C526 C 0.94277 0.96877 -0.00916 0.0
C527 C 0.91978 0.95353 0.03391 0.0
C528 C 0.95279 0.99398 -0.00901 0.0
C529 C 0.90732 0.96405 0.07937 0.0
C530 C 0.91719 0.98904 0.08007 0.0
C531 C 0.94941 0.0293 0.0321 0.0
C532 C 0.97192 0.04455 -0.01496 0.0
C533 C 0.93979 1.00419 0.03508 0.0
C534 C 0.98486 0.03413 0.94337 0.0
C535 C 0.97543 1.00918 0.94629 0.0
H536 H 0.06351 0.92909 0.04693 0.0
H537 H 0.0577 0.98544 0.88985 0.0
H538 H 0.10137 1.01171 0.90054 0.0
H539 H 0.1415 1.01875 0.95393 0.0
H540 H 0.14683 0.96215 0.11187 0.0
H541 H 0.10327 0.93626 0.10246 0.0
C542 C 0.07171 0.94721 0.01606 0.0
C543 C 0.05713 0.95515 0.96765 0.0
C544 C 0.0969 0.96229 0.02261 0.0
C545 C 0.06834 0.97862 0.92644 0.0
C546 C 0.09337 0.99375 0.93301 0.0
C547 C 0.13315 1.00078 -0.01343 0.0
C548 C 0.14764 0.99254 0.03361 0.0
C549 C 0.10788 0.98578 -0.01934 0.0
C550 C 0.13634 0.96911 0.07517 0.0
C551 C 0.11132 0.9542 0.06984 0.0
H552 H 0.74765 0.48652 0.28788 0.0
H553 H 0.80267 0.55149 0.43709 0.0
H554 H 0.82994 0.53547 0.43854 0.0
H555 H 0.83894 0.50369 0.39271 0.0
H556 H 0.78432 0.43862 0.24364 0.0
H557 H 0.7562 0.45383 0.24834 0.0
C558 C 0.76554 0.49714 0.32138 0.0
C559 C 0.773 0.52031 0.36197 0.0
C560 C 0.78132 0.48779 0.32194 0.0
C561 C 0.7963 0.53367 0.4052 0.0
C562 C 0.81201 0.52452 0.4059 0.0
C563 C 0.82092 0.49284 0.36074 0.0
C564 C 0.81392 0.47006 0.31703 0.0
C565 C 0.80484 0.50174 0.36347 0.0
C566 C 0.79025 0.45612 0.27824 0.0
C567 C 0.77417 0.46489 0.2804 0.0
H568 H 0.60342 0.37353 0.3562 0.0
H569 H 0.66827 0.38224 0.2145 0.0
H570 H 0.65204 0.33885 0.22152 0.0
H571 H 0.61939 0.29817 0.26763 0.0
H572 H 0.55477 0.28959 0.41137 0.0
H573 H 0.57109 0.33299 0.4049 0.0
C574 C 0.61417 0.36604 0.32784 0.0
C575 C 0.63712 0.3814 0.28462 0.0
C576 C 0.60474 0.34093 0.33249 0.0
C577 C 0.65046 0.37104 0.2468 0.0
C578 C 0.64123 0.34615 0.25133 0.0
C579 C 0.60884 0.30574 0.29774 0.0
C580 C 0.58578 0.2904 0.33998 0.0
C581 C 0.61836 0.33087 0.29374 0.0
C582 C 0.57251 0.30076 0.37844 0.0
C583 C 0.58185 0.32567 0.37475 0.0
H584 H 0.73728 0.26708 0.36129 0.0
H585 H 0.72714 0.32677 0.28381 0.0
H586 H 0.77059 0.35414 0.29226 0.0
H587 H 0.81168 0.36117 0.31825 0.0
H588 H 0.8217 0.30147 0.39752 0.0
H589 H 0.77821 0.27434 0.39375 0.0
C590 C 0.74447 0.28611 0.34758 0.0
C591 C 0.72873 0.29469 0.32148 0.0
C592 C 0.76958 0.30187 0.35308 0.0
C593 C 0.73867 0.31946 0.30236 0.0
C594 C 0.76358 0.33521 0.30785 0.0
C595 C 0.8044 0.34226 0.33545 0.0
C596 C 0.82015 0.33349 0.35803 0.0
C597 C 0.77925 0.32661 0.3325 0.0
C598 C 0.81019 0.30885 0.37986 0.0
C599 C 0.78524 0.29325 0.37751 0.0
H600 H 0.50965 0.83824 0.64888 0.0
H601 H 0.45033 0.76913 0.55487 0.0
H602 H 0.42293 0.78494 0.56435 0.0
H603 H 0.41551 0.81818 0.59898 0.0
H604 H 0.47429 0.88724 0.6965 0.0
H605 H 0.50196 0.87154 0.68724 0.0
C606 C 0.49069 0.82653 0.63144 0.0
C607 C 0.48225 0.80245 0.60051 0.0
C608 C 0.47484 0.83573 0.6377 0.0
C609 C 0.45758 0.78779 0.57703 0.0
C610 C 0.44179 0.79679 0.58308 0.0
C611 C 0.43437 0.8299 0.61823 0.0
C612 C 0.44271 0.85397 0.64821 0.0
C613 C 0.45021 0.82074 0.61294 0.0
C614 C 0.46726 0.86869 0.67318 0.0
C615 C 0.48314 0.85969 0.66784 0.0
H616 H 0.2849 0.62847 0.61973 0.0
H617 H 0.21799 0.61743 0.74855 0.0
H618 H 0.23344 0.66064 0.74671 0.0
H619 H 0.26576 0.70173 0.70849 0.0
H620 H 0.33258 0.71315 0.57767 0.0
H621 H 0.3175 0.6699 0.5821 0.0
C622 C 0.27367 0.63548 0.64746 0.0
C623 C 0.25021 0.61949 0.68406 0.0
C624 C 0.2827 0.66056 0.64634 0.0
C625 C 0.23607 0.62911 0.71987 0.0
C626 C 0.2449 0.65391 0.71886 0.0
C627 C 0.27701 0.69481 0.67998 0.0
C628 C 0.30033 0.71091 0.64248 0.0
C629 C 0.26815 0.66982 0.682 0.0
C630 C 0.31469 0.70141 0.60807 0.0
C631 C 0.306 0.67657 0.60992 0.0
H632 H 0.47612 0.68955 0.59913 0.0
H633 H 0.48685 0.63589 0.75405 0.0
H634 H 0.44338 0.60869 0.7596 0.0
H635 H 0.4022 0.59954 0.71692 0.0
H636 H 0.39137 0.65287 0.55976 0.0
H637 H 0.43477 0.68075 0.56049 0.0
C638 C 0.469 0.67195 0.63462 0.0
C639 C 0.48494 0.66486 0.67585 0.0
C640 C 0.44384 0.65626 0.63741 0.0
C641 C 0.47518 0.64194 0.72161 0.0
C642 C 0.45024 0.6263 0.72472 0.0
C643 C 0.40929 0.61721 0.68224 0.0
C644 C 0.39332 0.62392 0.63796 0.0
C645 C 0.43439 0.63316 0.68206 0.0
C646 C 0.40302 0.64716 0.59543 0.0
C647 C 0.42793 0.66311 0.59512 0.0
H648 H 1.03847 0.21424 0.6962 0.0
H649 H 0.11018 0.22448 0.68954 0.0
H650 H 0.10838 0.22116 0.49829 0.0
H651 H 0.08655 0.21555 0.33136 0.0
H652 H 1.01478 0.20514 0.33738 0.0
H653 H 1.01658 0.20858 0.52886 0.0
C654 C 0.0536 0.21559 0.65272 0.0
C655 C 0.0744 0.21961 0.70694 0.0
C656 C 0.05254 0.21385 0.5421 0.0
C657 C 0.09394 0.22144 0.64959 0.0
C658 C 0.09298 0.2196 0.54006 0.0
C659 C 0.07141 0.2142 0.37472 0.0
C660 C 0.05059 0.21009 0.32041 0.0
C661 C 0.07244 0.21594 0.48525 0.0
C662 C 1.03102 0.20824 0.37756 0.0
C663 C 1.03199 0.21016 0.48715 0.0
H664 H 0.88664 0.85155 0.67533 0.0
H665 H 0.87794 0.91383 0.66675 0.0
H666 H 0.88122 0.91525 0.47564 0.0
H667 H 0.88634 0.89872 0.30949 0.0
H668 H 0.89524 0.83658 0.31735 0.0
H669 H 0.89184 0.83502 0.50872 0.0
C670 C 0.8856 0.86547 0.63145 0.0
C671 C 0.88203 0.88251 0.68502 0.0
C672 C 0.88733 0.86611 0.52096 0.0
C673 C 0.88063 0.90043 0.62725 0.0
C674 C 0.88245 0.90126 0.51782 0.0
C675 C 0.88737 0.88478 0.35323 0.0
C676 C 0.89104 0.86782 0.29954 0.0
C677 C 0.88566 0.88412 0.46363 0.0
C678 C 0.89248 0.84991 0.35711 0.0
C679 C 0.89059 0.84901 0.46661 0.0
H680 H 0.2095 1.00152 0.68166 0.0
H681 H 0.25187 0.07624 0.77098 0.0
H682 H 0.2543 0.0881 0.58625 0.0
H683 H 0.24424 0.07698 0.4005 0.0
H684 H 0.20192 1.00217 0.31221 0.0
H685 H 0.19967 0.99042 0.49664 0.0
C686 C 0.21927 1.02041 0.66064 0.0
C687 C 0.23053 0.03804 0.73902 0.0
C688 C 0.2206 1.02697 0.55509 0.0
C689 C 0.24313 0.06242 0.71135 0.0
C690 C 0.2445 0.06916 0.60609 0.0
C691 C 0.23453 0.05811 0.4218 0.0
C692 C 0.22315 0.04041 0.34369 0.0
C693 C 0.23331 0.05157 0.52748 0.0
C694 C 0.21071 1.01604 0.37157 0.0
C695 C 0.20943 1.00935 0.4767 0.0
H696 H 0.75092 0.55312 0.63606 0.0
H697 H 0.67946 0.54347 0.64262 0.0
H698 H 0.68127 0.5467 0.8342 0.0
H699 H 0.70311 0.55198 0.00133 0.0
H700 H 0.77452 0.56146 -0.00609 0.0
H701 H 0.77268 0.55832 0.80262 0.0
C702 C 0.73585 0.5519 0.67956 0.0
C703 C 0.71512 0.54806 0.62546 0.0
C704 C 0.73689 0.55351 0.79003 0.0
C705 C 0.69563 0.54636 0.68271 0.0
C706 C 0.69661 0.54815 0.79232 0.0
C707 C 0.71815 0.5532 0.95765 0.0
C708 C 0.7389 0.55696 0.01159 0.0
C709 C 0.71708 0.55157 0.84707 0.0
C710 C 0.75834 0.55862 0.9541 0.0
C711 C 0.75735 0.55688 0.84458 0.0
H712 H 0.57938 0.19702 0.70576 0.0
H713 H 0.54126 0.23363 0.615 0.0
H714 H 0.53102 0.23514 0.79883 0.0
H715 H 0.53322 0.2263 -0.01557 0.0
H716 H 0.57128 0.1897 0.07598 0.0
H717 H 0.58142 0.188 0.89188 0.0
C718 C 0.56883 0.20532 0.72641 0.0
C719 C 0.56113 0.21529 0.64771 0.0
C720 C 0.5631 0.20615 0.83184 0.0
C721 C 0.54742 0.22592 0.67479 0.0
C722 C 0.54158 0.22679 0.77961 0.0
C723 C 0.54373 0.21795 0.96398 0.0
C724 C 0.55149 0.20809 0.04289 0.0
C725 C 0.54939 0.21703 0.85863 0.0
C726 C 0.5651 0.19735 0.01597 0.0
C727 C 0.57088 0.19638 0.91103 0.0
H728 H 0.87164 0.36135 0.64221 0.0
H729 H 0.94488 0.42023 0.64963 0.0
H730 H 0.94454 0.42018 0.84193 0.0
H731 H 0.923 0.40408 0.00777 0.0
H732 H 0.84967 0.34532 0.00086 0.0
H733 H 0.85013 0.34505 0.80854 0.0
C734 C 0.88762 0.3738 0.68629 0.0
C735 C 0.90833 0.39059 0.63284 0.0
C736 C 0.88704 0.37413 0.79658 0.0
C737 C 0.92882 0.40702 0.69004 0.0
C738 C 0.92856 0.40716 0.79965 0.0
C739 C 0.90703 0.39152 0.9639 0.0
C740 C 0.88627 0.37491 0.0176 0.0
C741 C 0.90764 0.39107 0.85371 0.0
C742 C 0.8658 0.35839 0.96044 0.0
C743 C 0.86612 0.35808 0.85077 0.0
H744 H 0.39758 0.86206 0.35424 0.0
H745 H 0.38084 0.91908 0.33686 0.0
H746 H 0.38165 0.91794 0.14466 0.0
H747 H 0.38761 0.90105 -0.01898 0.0
H748 H 0.40433 0.84401 -0.00137 0.0
H749 H 0.40353 0.84517 0.19078 0.0
C750 C 0.39388 0.87407 0.30831 0.0
C751 C 0.38907 0.89058 0.35973 0.0
C752 C 0.39477 0.87358 0.19775 0.0
C753 C 0.38452 0.90616 0.29912 0.0
C754 C 0.38512 0.90561 0.18921 0.0
C755 C 0.39134 0.88907 0.02701 0.0
C756 C 0.39614 0.87253 0.97568 0.0
C757 C 0.39045 0.88956 0.13761 0.0
C758 C 0.40066 0.85694 0.03634 0.0
C759 C 0.40008 0.85751 0.14621 0.0
H760 H 0.24539 0.52697 0.04537 0.0
H761 H 0.20586 0.56205 0.95335 0.0
H762 H 0.19532 0.56331 0.13692 0.0
H763 H 0.19765 0.5547 0.3228 0.0
H764 H 0.23706 0.51957 0.41569 0.0
H765 H 0.24752 0.51813 0.23183 0.0
C766 C 0.23446 0.53488 0.0657 0.0
C767 C 0.22646 0.5445 -0.01336 0.0
C768 C 0.22855 0.53556 0.17107 0.0
C769 C 0.21226 0.55462 0.01335 0.0
C770 C 0.20625 0.55534 0.11806 0.0
C771 C 0.20852 0.54673 0.3027 0.0
C772 C 0.21658 0.53722 0.38199 0.0
C773 C 0.21436 0.54593 0.19743 0.0
C774 C 0.23065 0.52695 0.35545 0.0
C775 C 0.23661 0.52613 0.25061 0.0
H776 H 0.58504 0.73728 0.32018 0.0
H777 H 0.52866 0.66293 0.30764 0.0
H778 H 0.52684 0.66484 0.11665 0.0
H779 H 0.54128 0.68753 0.95154 0.0
H780 H 0.59752 0.76191 0.9632 0.0
H781 H 0.5995 0.76004 0.15449 0.0
C782 C 0.57233 0.72157 0.27546 0.0
C783 C 0.55707 0.70002 0.32803 0.0
C784 C 0.57142 0.72272 0.16493 0.0
C785 C 0.54069 0.67976 0.26907 0.0
C786 C 0.53963 0.68079 0.15964 0.0
C787 C 0.55402 0.70326 -0.00391 0.0
C788 C 0.56917 0.7248 0.94337 0.0
C789 C 0.55496 0.70213 0.1065 0.0
C790 C 0.58557 0.74509 0.00207 0.0
C791 C 0.58672 0.74407 0.11159 0.0
loop_
_geom_bond_atom_site_label_1
_geom_bond_atom_site_label_2
_geom_bond_distance
_geom_bond_site_symmetry_2
_ccdc_geom_bond_type
Nd0 C2 2.836 . S
Nd0 O20 2.500 1_556 S
Nd0 O21 2.492 . S
Nd0 O22 2.487 . S
Nd0 O23 2.682 . S
Nd0 O24 2.410 . S
Nd0 O29 2.414 1_556 S
Nd0 O31 2.424 . S
Nd1 C11 2.836 . S
Nd1 O23 2.414 1_654 S
Nd1 O25 2.424 . S
Nd1 O26 2.500 1_554 S
Nd1 O27 2.492 . S
Nd1 O28 2.487 . S
Nd1 O29 2.682 1_655 S
Nd1 O30 2.410 1_655 S
C2 Nd0 2.836 . S
C2 C3 1.498 . S
C2 O20 1.258 1_556 S
C2 O21 1.239 . S
C3 C2 1.498 . S
C3 C4 1.364 1_556 S
C3 C8 1.409 . S
C4 C3 1.364 1_554 S
C4 C5 1.392 . S
C4 H32 0.930 . S
C5 C4 1.392 . S
C5 C6 1.398 . S
C5 H33 0.929 . S
C6 C5 1.398 . S
C6 C7 1.352 1_554 S
C7 C6 1.352 1_556 S
C7 C8 1.384 . S
C7 H34 0.930 . S
C8 C3 1.409 . S
C8 C7 1.384 . S
C8 H35 0.929 . S
C9 O22 1.241 . S
C9 O23 1.273 . S
C10 O24 1.251 1_654 S
C10 O25 1.268 . S
C11 Nd1 2.836 . S
C11 C12 1.498 . S
C11 O26 1.258 1_554 S
C11 O27 1.239 . S
C12 C11 1.498 . S
C12 C13 1.366 1_554 S
C12 C17 1.407 . S
C13 C12 1.366 1_556 S
C13 C14 1.392 . S
C13 H36 0.930 . S
C14 C13 1.392 . S
C14 C15 1.398 1_556 S
C14 H37 0.929 . S
C15 C14 1.398 1_554 S
C15 C16 1.352 . S
C16 C15 1.352 . S
C16 C17 1.384 . S
C16 H38 0.930 . S
C17 C12 1.407 . S
C17 C16 1.384 . S
C17 H39 0.929 . S
C18 O28 1.241 1_455 S
C18 O29 1.273 . S
C19 O30 1.251 1_556 S
C19 O31 1.268 . S
O20 Nd0 2.500 1_554 S
O20 C2 1.258 1_554 S
O21 Nd0 2.492 . S
O21 C2 1.239 . S
O22 Nd0 2.487 . S
O22 C9 1.241 . S
O23 Nd0 2.682 . S
O23 Nd1 2.414 1_456 S
O23 C9 1.273 . S
O24 Nd0 2.410 . S
O24 C10 1.251 1_456 S
O25 Nd1 2.424 . S
O25 C10 1.268 . S
O26 Nd1 2.500 1_556 S
O26 C11 1.258 1_556 S
O27 Nd1 2.492 . S
O27 C11 1.239 . S
O28 Nd1 2.487 . S
O28 C18 1.241 1_655 S
O29 Nd0 2.414 1_554 S
O29 Nd1 2.682 1_455 S
O29 C18 1.273 . S
O30 Nd1 2.410 1_455 S
O30 C19 1.251 1_554 S
O31 Nd0 2.424 . S
O31 C19 1.268 . S
H32 C4 0.930 . S
H33 C5 0.929 . S
H34 C7 0.930 . S
H35 C8 0.929 . S
H36 C13 0.930 . S
H37 C14 0.929 . S
H38 C16 0.930 . S
H39 C17 0.929 . S
Nd40 C42 2.836 . S
Nd40 O60 2.500 1_556 S
Nd40 O61 2.492 . S
Nd40 O62 2.487 . S
Nd40 O63 2.682 . S
Nd40 O64 2.410 . S
Nd40 O69 2.414 1_556 S
Nd40 O71 2.424 . S
Nd41 C51 2.836 . S
Nd41 O63 2.414 1_554 S
Nd41 O65 2.424 . S
Nd41 O66 2.500 1_554 S
Nd41 O67 2.492 . S
Nd41 O68 2.487 . S
Nd41 O69 2.682 . S
Nd41 O70 2.410 . S
C42 Nd40 2.836 . S
C42 C43 1.498 . S
C42 O60 1.258 1_556 S
C42 O61 1.239 . S
C43 C42 1.498 . S
C43 C44 1.365 1_556 S
C43 C48 1.409 . S
C44 C43 1.365 1_554 S
C44 C45 1.392 . S
C44 H72 0.930 . S
C45 C44 1.392 . S
C45 C46 1.398 . S
C45 H73 0.929 . S
C46 C45 1.398 . S
C46 C47 1.352 1_554 S
C47 C46 1.352 1_556 S
C47 C48 1.384 . S
C47 H74 0.930 . S
C48 C43 1.409 . S
C48 C47 1.384 . S
C48 H75 0.929 . S
C49 O62 1.241 . S
C49 O63 1.273 . S
C50 O64 1.251 1_554 S
C50 O65 1.268 . S
C51 Nd41 2.836 . S
C51 C52 1.498 . S
C51 O66 1.258 1_554 S
C51 O67 1.239 . S
C52 C51 1.498 . S
C52 C53 1.366 1_554 S
C52 C57 1.407 . S
C53 C52 1.366 1_556 S
C53 C54 1.392 . S
C53 H76 0.930 . S
C54 C53 1.392 . S
C54 C55 1.398 1_556 S
C54 H77 0.929 . S
C55 C54 1.398 1_554 S
C55 C56 1.352 . S
C56 C55 1.352 . S
C56 C57 1.384 . S
C56 H78 0.930 . S
C57 C52 1.407 . S
C57 C56 1.384 . S
C57 H79 0.929 . S
C58 O68 1.241 . S
C58 O69 1.273 . S
C59 O70 1.251 1_556 S
C59 O71 1.268 . S
O60 Nd40 2.500 1_554 S
O60 C42 1.258 1_554 S
O61 Nd40 2.492 . S
O61 C42 1.239 . S
O62 Nd40 2.487 . S
O62 C49 1.241 . S
O63 Nd40 2.682 . S
O63 Nd41 2.414 1_556 S
O63 C49 1.273 . S
O64 Nd40 2.410 . S
O64 C50 1.251 1_556 S
O65 Nd41 2.424 . S
O65 C50 1.268 . S
O66 Nd41 2.500 1_556 S
O66 C51 1.258 1_556 S
O67 Nd41 2.492 . S
O67 C51 1.239 . S
O68 Nd41 2.487 . S
O68 C58 1.241 . S
O69 Nd40 2.414 1_554 S
O69 Nd41 2.682 . S
O69 C58 1.273 . S
O70 Nd41 2.410 . S
O70 C59 1.251 1_554 S
O71 Nd40 2.424 . S
O71 C59 1.268 . S
H72 C44 0.930 . S
H73 C45 0.929 . S
H74 C47 0.930 . S
H75 C48 0.929 . S
H76 C53 0.930 . S
H77 C54 0.929 . S
H78 C56 0.930 . S
H79 C57 0.929 . S
Nd80 C82 2.836 . S
Nd80 O100 2.500 1_556 S
Nd80 O101 2.492 . S
Nd80 O102 2.501 . S
Nd80 O103 2.682 1_565 S
Nd80 O104 2.410 1_565 S
Nd80 O109 2.414 1_566 S
Nd80 O111 2.424 . S
Nd81 C91 2.836 . S
Nd81 O103 2.414 1_554 S
Nd81 O105 2.424 . S
Nd81 O106 2.500 1_554 S
Nd81 O107 2.492 . S
Nd81 O108 2.487 . S
Nd81 O109 2.682 . S
Nd81 O110 2.410 . S
C82 Nd80 2.836 . S
C82 C83 1.498 . S
C82 O100 1.258 1_556 S
C82 O101 1.239 . S
C83 C82 1.498 . S
C83 C84 1.365 1_556 S
C83 C88 1.409 . S
C84 C83 1.365 1_554 S
C84 C85 1.392 . S
C84 H112 0.930 . S
C85 C84 1.392 . S
C85 C86 1.398 . S
C85 H113 0.929 . S
C86 C85 1.398 . S
C86 C87 1.352 1_554 S
C87 C86 1.352 1_556 S
C87 C88 1.384 . S
C87 H114 0.930 . S
C88 C83 1.409 . S
C88 C87 1.384 . S
C88 H115 0.929 . S
C89 O102 1.188 1_545 S
C89 O103 1.273 . S
C90 O104 1.251 1_554 S
C90 O105 1.268 . S
C91 Nd81 2.836 . S
C91 C92 1.498 . S
C91 O106 1.258 1_554 S
C91 O107 1.239 . S
C92 C91 1.498 . S
C92 C93 1.366 1_554 S
C92 C97 1.407 . S
C93 C92 1.366 1_556 S
C93 C94 1.392 . S
C93 H116 0.930 . S
C94 C93 1.392 . S
C94 C95 1.398 1_556 S
C94 H117 0.929 . S
C95 C94 1.398 1_554 S
C95 C96 1.352 . S
C96 C95 1.352 . S
C96 C97 1.384 . S
C96 H118 0.930 . S
C97 C92 1.407 . S
C97 C96 1.384 . S
C97 H119 0.929 . S
C98 O108 1.241 . S
C98 O109 1.273 . S
C99 O110 1.251 1_566 S
C99 O111 1.268 . S
O100 Nd80 2.500 1_554 S
O100 C82 1.258 1_554 S
O101 Nd80 2.492 . S
O101 C82 1.239 . S
O102 Nd80 2.501 . S
O102 C89 1.188 1_565 S
O103 Nd80 2.682 1_545 S
O103 Nd81 2.414 1_556 S
O103 C89 1.273 . S
O104 Nd80 2.410 1_545 S
O104 C90 1.251 1_556 S
O105 Nd81 2.424 . S
O105 C90 1.268 . S
O106 Nd81 2.500 1_556 S
O106 C91 1.258 1_556 S
O107 Nd81 2.492 . S
O107 C91 1.239 . S
O108 Nd81 2.487 . S
O108 C98 1.241 . S
O109 Nd80 2.414 1_544 S
O109 Nd81 2.682 . S
O109 C98 1.273 . S
O110 Nd81 2.410 . S
O110 C99 1.251 1_544 S
O111 Nd80 2.424 . S
O111 C99 1.268 . S
H112 C84 0.930 . S
H113 C85 0.929 . S
H114 C87 0.930 . S
H115 C88 0.929 . S
H116 C93 0.930 . S
H117 C94 0.929 . S
H118 C96 0.930 . S
H119 C97 0.929 . S
Nd120 C122 2.836 . S
Nd120 O140 2.500 . S
Nd120 O141 2.492 . S
Nd120 O142 2.487 . S
Nd120 O143 2.682 . S
Nd120 O144 2.410 . S
Nd120 O149 2.414 . S
Nd120 O151 2.424 . S
Nd121 C131 2.836 . S
Nd121 O143 2.414 . S
Nd121 O145 2.424 . S
Nd121 O146 2.500 . S
Nd121 O147 2.492 . S
Nd121 O148 2.487 . S
Nd121 O149 2.682 . S
Nd121 O150 2.410 . S
C122 Nd120 2.836 . S
C122 C123 1.498 . S
C122 O140 1.258 . S
C122 O141 1.239 . S
C123 C122 1.498 . S
C123 C124 1.366 . S
C123 C128 1.407 . S
C124 C123 1.366 . S
C124 C125 1.392 . S
C124 H152 0.930 . S
C125 C124 1.392 . S
C125 C126 1.398 . S
C125 H153 0.929 . S
C126 C125 1.398 . S
C126 C127 1.352 . S
C127 C126 1.352 . S
C127 C128 1.384 . S
C127 H154 0.930 . S
C128 C123 1.407 . S
C128 C127 1.384 . S
C128 H155 0.929 . S
C129 O142 1.241 . S
C129 O143 1.273 . S
C130 O144 1.251 . S
C130 O145 1.268 . S
C131 Nd121 2.836 . S
C131 C132 1.498 . S
C131 O146 1.258 . S
C131 O147 1.239 . S
C132 C131 1.498 . S
C132 C133 1.366 . S
C132 C137 1.407 . S
C133 C132 1.366 . S
C133 C134 1.392 . S
C133 H156 0.930 . S
C134 C133 1.392 . S
C134 C135 1.398 . S
C134 H157 0.929 . S
C135 C134 1.398 . S
C135 C136 1.352 . S
C136 C135 1.352 . S
C136 C137 1.384 . S
C136 H158 0.930 . S
C137 C132 1.407 . S
C137 C136 1.384 . S
C137 H159 0.929 . S
C138 O148 1.241 . S
C138 O149 1.273 . S
C139 O150 1.251 . S
C139 O151 1.268 . S
O140 Nd120 2.500 . S
O140 C122 1.258 . S
O141 Nd120 2.492 . S
O141 C122 1.239 . S
O142 Nd120 2.487 . S
O142 C129 1.241 . S
O143 Nd120 2.682 . S
O143 Nd121 2.414 . S
O143 C129 1.273 . S
O144 Nd120 2.410 . S
O144 C130 1.251 . S
O145 Nd121 2.424 . S
O145 C130 1.268 . S
O146 Nd121 2.500 . S
O146 C131 1.258 . S
O147 Nd121 2.492 . S
O147 C131 1.239 . S
O148 Nd121 2.487 . S
O148 C138 1.241 . S
O149 Nd120 2.414 . S
O149 Nd121 2.682 . S
O149 C138 1.273 . S
O150 Nd121 2.410 . S
O150 C139 1.251 . S
O151 Nd120 2.424 . S
O151 C139 1.268 . S
H152 C124 0.930 . S
H153 C125 0.929 . S
H154 C127 0.930 . S
H155 C128 0.929 . S
H156 C133 0.930 . S
H157 C134 0.929 . S
H158 C136 0.930 . S
H159 C137 0.929 . S
Nd160 C162 2.836 . S
Nd160 O180 2.500 . S
Nd160 O181 2.492 . S
Nd160 O182 2.487 . S
Nd160 O183 2.682 . S
Nd160 O184 2.410 . S
Nd160 O189 2.414 . S
Nd160 O191 2.424 . S
Nd161 C171 2.836 . S
Nd161 O183 2.414 . S
Nd161 O185 2.424 . S
Nd161 O186 2.500 . S
Nd161 O187 2.492 . S
Nd161 O188 2.487 . S
Nd161 O189 2.682 . S
Nd161 O190 2.410 . S
C162 Nd160 2.836 . S
C162 C163 1.498 . S
C162 O180 1.258 . S
C162 O181 1.239 . S
C163 C162 1.498 . S
C163 C164 1.366 . S
C163 C168 1.407 . S
C164 C163 1.366 . S
C164 C165 1.392 . S
C164 H192 0.930 . S
C165 C164 1.392 . S
C165 C166 1.398 . S
C165 H193 0.929 . S
C166 C165 1.398 . S
C166 C167 1.352 . S
C167 C166 1.352 . S
C167 C168 1.384 . S
C167 H194 0.930 . S
C168 C163 1.407 . S
C168 C167 1.384 . S
C168 H195 0.929 . S
C169 O182 1.241 . S
C169 O183 1.273 . S
C170 O184 1.251 . S
C170 O185 1.268 . S
C171 Nd161 2.836 . S
C171 C172 1.498 . S
C171 O186 1.258 . S
C171 O187 1.239 . S
C172 C171 1.498 . S
C172 C173 1.366 . S
C172 C177 1.407 . S
C173 C172 1.366 . S
C173 C174 1.392 . S
C173 H196 0.930 . S
C174 C173 1.392 . S
C174 C175 1.398 . S
C174 H197 0.929 . S
C175 C174 1.398 . S
C175 C176 1.352 . S
C176 C175 1.352 . S
C176 C177 1.384 . S
C176 H198 0.930 . S
C177 C172 1.407 . S
C177 C176 1.384 . S
C177 H199 0.929 . S
C178 O188 1.241 . S
C178 O189 1.273 . S
C179 O190 1.251 . S
C179 O191 1.268 . S
O180 Nd160 2.500 . S
O180 C162 1.258 . S
O181 Nd160 2.492 . S
O181 C162 1.239 . S
O182 Nd160 2.487 . S
O182 C169 1.241 . S
O183 Nd160 2.682 . S
O183 Nd161 2.414 . S
O183 C169 1.273 . S
O184 Nd160 2.410 . S
O184 C170 1.251 . S
O185 Nd161 2.424 . S
O185 C170 1.268 . S
O186 Nd161 2.500 . S
O186 C171 1.258 . S
O187 Nd161 2.492 . S
O187 C171 1.239 . S
O188 Nd161 2.487 . S
O188 C178 1.241 . S
O189 Nd160 2.414 . S
O189 Nd161 2.682 . S
O189 C178 1.273 . S
O190 Nd161 2.410 . S
O190 C179 1.251 . S
O191 Nd160 2.424 . S
O191 C179 1.268 . S
H192 C164 0.930 . S
H193 C165 0.929 . S
H194 C167 0.930 . S
H195 C168 0.929 . S
H196 C173 0.930 . S
H197 C174 0.929 . S
H198 C176 0.930 . S
H199 C177 0.929 . S
Nd200 C202 2.836 . S
Nd200 O220 2.500 . S
Nd200 O221 2.492 . S
Nd200 O222 2.487 . S
Nd200 O223 2.682 . S
Nd200 O224 2.410 . S
Nd200 O229 2.414 . S
Nd200 O231 2.424 . S
Nd201 C211 2.836 . S
Nd201 O223 2.414 . S
Nd201 O225 2.424 . S
Nd201 O226 2.500 . S
Nd201 O227 2.492 . S
Nd201 O228 2.487 . S
Nd201 O229 2.682 . S
Nd201 O230 2.410 . S
C202 Nd200 2.836 . S
C202 C203 1.498 . S
C202 O220 1.258 . S
C202 O221 1.239 . S
C203 C202 1.498 . S
C203 C204 1.366 . S
C203 C208 1.407 . S
C204 C203 1.366 . S
C204 C205 1.392 . S
C204 H232 0.930 . S
C205 C204 1.392 . S
C205 C206 1.398 . S
C205 H233 0.929 . S
C206 C205 1.398 . S
C206 C207 1.352 . S
C207 C206 1.352 . S
C207 C208 1.384 . S
C207 H234 0.930 . S
C208 C203 1.407 . S
C208 C207 1.384 . S
C208 H235 0.929 . S
C209 O222 1.241 . S
C209 O223 1.273 . S
C210 O224 1.251 . S
C210 O225 1.268 . S
C211 Nd201 2.836 . S
C211 C212 1.498 . S
C211 O226 1.258 . S
C211 O227 1.239 . S
C212 C211 1.498 . S
C212 C213 1.366 . S
C212 C217 1.407 . S
C213 C212 1.366 . S
C213 C214 1.392 . S
C213 H236 0.930 . S
C214 C213 1.392 . S
C214 C215 1.398 . S
C214 H237 0.929 . S
C215 C214 1.398 . S
C215 C216 1.352 . S
C216 C215 1.352 . S
C216 C217 1.384 . S
C216 H238 0.930 . S
C217 C212 1.407 . S
C217 C216 1.384 . S
C217 H239 0.929 . S
C218 O228 1.241 . S
C218 O229 1.273 . S
C219 O230 1.251 . S
C219 O231 1.268 . S
O220 Nd200 2.500 . S
O220 C202 1.258 . S
O221 Nd200 2.492 . S
O221 C202 1.239 . S
O222 Nd200 2.487 . S
O222 C209 1.241 . S
O223 Nd200 2.682 . S
O223 Nd201 2.414 . S
O223 C209 1.273 . S
O224 Nd200 2.410 . S
O224 C210 1.251 . S
O225 Nd201 2.424 . S
O225 C210 1.268 . S
O226 Nd201 2.500 . S
O226 C211 1.258 . S
O227 Nd201 2.492 . S
O227 C211 1.239 . S
O228 Nd201 2.487 . S
O228 C218 1.241 . S
O229 Nd200 2.414 . S
O229 Nd201 2.682 . S
O229 C218 1.273 . S
O230 Nd201 2.410 . S
O230 C219 1.251 . S
O231 Nd200 2.424 . S
O231 C219 1.268 . S
H232 C204 0.930 . S
H233 C205 0.929 . S
H234 C207 0.930 . S
H235 C208 0.929 . S
H236 C213 0.930 . S
H237 C214 0.929 . S
H238 C216 0.930 . S
H239 C217 0.929 . S
Nd240 C242 2.836 . S
Nd240 O260 2.500 . S
Nd240 O261 2.492 . S
Nd240 O262 2.487 . S
Nd240 O263 2.682 . S
Nd240 O264 2.410 . S
Nd240 O269 2.414 . S
Nd240 O271 2.424 . S
Nd241 C251 2.836 . S
Nd241 O263 2.414 . S
Nd241 O265 2.424 . S
Nd241 O266 2.500 . S
Nd241 O267 2.492 . S
Nd241 O268 2.487 . S
Nd241 O269 2.682 . S
Nd241 O270 2.410 . S
C242 Nd240 2.836 . S
C242 C243 1.498 . S
C242 O260 1.258 . S
C242 O261 1.239 . S
C243 C242 1.498 . S
C243 C244 1.366 . S
C243 C248 1.407 . S
C244 C243 1.366 . S
C244 C245 1.392 . S
C244 H272 0.930 . S
C245 C244 1.392 . S
C245 C246 1.409 . S
C245 H273 0.929 . S
C246 C245 1.409 . S
C246 C247 1.366 . S
C247 C246 1.366 . S
C247 C248 1.384 . S
C247 H274 0.941 . S
C248 C243 1.407 . S
C248 C247 1.384 . S
C248 H275 0.929 . S
C249 O262 1.241 . S
C249 O263 1.273 . S
C250 O264 1.251 . S
C250 O265 1.268 . S
C251 Nd241 2.836 . S
C251 C252 1.498 . S
C251 O266 1.258 . S
C251 O267 1.239 . S
C252 C251 1.498 . S
C252 C253 1.366 . S
C252 C257 1.407 . S
C253 C252 1.366 . S
C253 C254 1.392 . S
C253 H276 0.930 . S
C254 C253 1.392 . S
C254 C255 1.398 . S
C254 H277 0.929 . S
C255 C254 1.398 . S
C255 C256 1.352 . S
C256 C255 1.352 . S
C256 C257 1.384 . S
C256 H278 0.930 . S
C257 C252 1.407 . S
C257 C256 1.384 . S
C257 H279 0.929 . S
C258 O268 1.241 . S
C258 O269 1.273 . S
C259 O270 1.251 . S
C259 O271 1.268 . S
O260 Nd240 2.500 . S
O260 C242 1.258 . S
O261 Nd240 2.492 . S
O261 C242 1.239 . S
O262 Nd240 2.487 . S
O262 C249 1.241 . S
O263 Nd240 2.682 . S
O263 Nd241 2.414 . S
O263 C249 1.273 . S
O264 Nd240 2.410 . S
O264 C250 1.251 . S
O265 Nd241 2.424 . S
O265 C250 1.268 . S
O266 Nd241 2.500 . S
O266 C251 1.258 . S
O267 Nd241 2.492 . S
O267 C251 1.239 . S
O268 Nd241 2.487 . S
O268 C258 1.241 . S
O269 Nd240 2.414 . S
O269 Nd241 2.682 . S
O269 C258 1.273 . S
O270 Nd241 2.410 . S
O270 C259 1.251 . S
O271 Nd240 2.424 . S
O271 C259 1.268 . S
H272 C244 0.930 . S
H273 C245 0.929 . S
H274 C247 0.941 . S
H275 C248 0.929 . S
H276 C253 0.930 . S
H277 C254 0.929 . S
H278 C256 0.930 . S
H279 C257 0.929 . S
Nd280 C282 2.836 . S
Nd280 O300 2.500 . S
Nd280 O301 2.492 . S
Nd280 O302 2.487 . S
Nd280 O303 2.682 . S
Nd280 O304 2.410 . S
Nd280 O309 2.414 . S
Nd280 O311 2.424 . S
Nd281 C291 2.836 . S
Nd281 O303 2.414 . S
Nd281 O305 2.424 . S
Nd281 O306 2.500 . S
Nd281 O307 2.492 . S
Nd281 O308 2.487 . S
Nd281 O309 2.682 . S
Nd281 O310 2.410 . S
C282 Nd280 2.836 . S
C282 C283 1.498 . S
C282 O300 1.258 . S
C282 O301 1.239 . S
C283 C282 1.498 . S
C283 C284 1.366 . S
C283 C288 1.407 . S
C284 C283 1.366 . S
C284 C285 1.392 . S
C284 H312 0.930 . S
C285 C284 1.392 . S
C285 C286 1.398 . S
C285 H313 0.929 . S
C286 C285 1.398 . S
C286 C287 1.352 . S
C287 C286 1.352 . S
C287 C288 1.384 . S
C287 H314 0.930 . S
C288 C283 1.407 . S
C288 C287 1.384 . S
C288 H315 0.929 . S
C289 O302 1.241 . S
C289 O303 1.273 . S
C290 O304 1.251 . S
C290 O305 1.268 . S
C291 Nd281 2.836 . S
C291 C292 1.498 . S
C291 O306 1.258 . S
C291 O307 1.239 . S
C292 C291 1.498 . S
C292 C293 1.366 . S
C292 C297 1.407 . S
C293 C292 1.366 . S
C293 C294 1.392 . S
C293 H316 0.930 . S
C294 C293 1.392 . S
C294 C295 1.398 . S
C294 H317 0.929 . S
C295 C294 1.398 . S
C295 C296 1.352 . S
C296 C295 1.352 . S
C296 C297 1.384 . S
C296 H318 0.930 . S
C297 C292 1.407 . S
C297 C296 1.384 . S
C297 H319 0.929 . S
C298 O308 1.241 . S
C298 O309 1.273 . S
C299 O310 1.251 . S
C299 O311 1.268 . S
O300 Nd280 2.500 . S
O300 C282 1.258 . S
O301 Nd280 2.492 . S
O301 C282 1.239 . S
O302 Nd280 2.487 . S
O302 C289 1.241 . S
O303 Nd280 2.682 . S
O303 Nd281 2.414 . S
O303 C289 1.273 . S
O304 Nd280 2.410 . S
O304 C290 1.251 . S
O305 Nd281 2.424 . S
O305 C290 1.268 . S
O306 Nd281 2.500 . S
O306 C291 1.258 . S
O307 Nd281 2.492 . S
O307 C291 1.239 . S
O308 Nd281 2.487 . S
O308 C298 1.241 . S
O309 Nd280 2.414 . S
O309 Nd281 2.682 . S
O309 C298 1.273 . S
O310 Nd281 2.410 . S
O310 C299 1.251 . S
O311 Nd280 2.424 . S
O311 C299 1.268 . S
H312 C284 0.930 . S
H313 C285 0.929 . S
H314 C287 0.930 . S
H315 C288 0.929 . S
H316 C293 0.930 . S
H317 C294 0.929 . S
H318 C296 0.930 . S
H319 C297 0.929 . S
Nd320 C322 2.836 . S
Nd320 O340 2.500 . S
Nd320 O341 2.492 . S
Nd320 O342 2.487 . S
Nd320 O343 2.682 . S
Nd320 O344 2.410 . S
Nd320 O349 2.414 . S
Nd320 O351 2.424 . S
Nd321 C331 2.836 . S
Nd321 O343 2.414 . S
Nd321 O345 2.424 . S
Nd321 O346 2.500 . S
Nd321 O347 2.492 . S
Nd321 O348 2.487 . S
Nd321 O349 2.682 . S
Nd321 O350 2.410 . S
C322 Nd320 2.836 . S
C322 C323 1.498 . S
C322 O340 1.258 . S
C322 O341 1.239 . S
C323 C322 1.498 . S
C323 C324 1.366 . S
C323 C328 1.407 . S
C324 C323 1.366 . S
C324 C325 1.392 . S
C324 H352 0.930 . S
C325 C324 1.392 . S
C325 C326 1.398 . S
C325 H353 0.929 . S
C326 C325 1.398 . S
C326 C327 1.352 . S
C327 C326 1.352 . S
C327 C328 1.384 . S
C327 H354 0.930 . S
C328 C323 1.407 . S
C328 C327 1.384 . S
C328 H355 0.929 . S
C329 O342 1.241 . S
C329 O343 1.273 . S
C330 O344 1.251 . S
C330 O345 1.268 . S
C331 Nd321 2.836 . S
C331 C332 1.498 . S
C331 O346 1.258 . S
C331 O347 1.239 . S
C332 C331 1.498 . S
C332 C333 1.366 . S
C332 C337 1.407 . S
C333 C332 1.366 . S
C333 C334 1.392 . S
C333 H356 0.930 . S
C334 C333 1.392 . S
C334 C335 1.398 . S
C334 H357 0.929 . S
C335 C334 1.398 . S
C335 C336 1.352 . S
C336 C335 1.352 . S
C336 C337 1.384 . S
C336 H358 0.930 . S
C337 C332 1.407 . S
C337 C336 1.384 . S
C337 H359 0.929 . S
C338 O348 1.241 . S
C338 O349 1.273 . S
C339 O350 1.251 . S
C339 O351 1.268 . S
O340 Nd320 2.500 . S
O340 C322 1.258 . S
O341 Nd320 2.492 . S
O341 C322 1.239 . S
O342 Nd320 2.487 . S
O342 C329 1.241 . S
O343 Nd320 2.682 . S
O343 Nd321 2.414 . S
O343 C329 1.273 . S
O344 Nd320 2.410 . S
O344 C330 1.251 . S
O345 Nd321 2.424 . S
O345 C330 1.268 . S
O346 Nd321 2.500 . S
O346 C331 1.258 . S
O347 Nd321 2.492 . S
O347 C331 1.239 . S
O348 Nd321 2.487 . S
O348 C338 1.241 . S
O349 Nd320 2.414 . S
O349 Nd321 2.682 . S
O349 C338 1.273 . S
O350 Nd321 2.410 . S
O350 C339 1.251 . S
O351 Nd320 2.424 . S
O351 C339 1.268 . S
H352 C324 0.930 . S
H353 C325 0.929 . S
H354 C327 0.930 . S
H355 C328 0.929 . S
H356 C333 0.930 . S
H357 C334 0.929 . S
H358 C336 0.930 . S
H359 C337 0.929 . S
H360 C366 0.930 . S
H361 C369 0.930 . S
H362 C370 0.930 . S
H363 C371 0.930 . S
H364 C374 0.930 . S
H365 C375 0.930 . S
C366 H360 0.930 . S
C366 C367 1.355 . S
C366 C368 1.415 . S
C367 C366 1.355 . S
C367 C369 1.419 1_556 S
C368 C366 1.415 . S
C368 C373 1.425 . S
C368 C375 1.409 . S
C369 H361 0.930 . S
C369 C367 1.419 1_554 S
C369 C370 1.362 . S
C370 H362 0.930 . S
C370 C369 1.362 . S
C370 C373 1.409 1_554 S
C371 H363 0.930 . S
C371 C372 1.355 . S
C371 C373 1.415 . S
C372 C371 1.355 . S
C372 C374 1.419 . S
C373 C368 1.425 . S
C373 C370 1.409 1_556 S
C373 C371 1.415 . S
C374 H364 0.930 . S
C374 C372 1.419 . S
C374 C375 1.362 . S
C375 H365 0.930 . S
C375 C368 1.409 . S
C375 C374 1.362 . S
H376 C382 0.930 . S
H377 C385 0.930 . S
H378 C386 0.930 . S
H379 C387 0.930 . S
H380 C390 0.930 . S
H381 C391 0.930 . S
C382 H376 0.930 . S
C382 C383 1.355 . S
C382 C384 1.415 . S
C383 C382 1.355 . S
C383 C385 1.419 1_556 S
C384 C382 1.415 . S
C384 C389 1.425 . S
C384 C391 1.409 . S
C385 H377 0.930 . S
C385 C383 1.419 1_554 S
C385 C386 1.362 . S
C386 H378 0.930 . S
C386 C385 1.362 . S
C386 C389 1.409 1_554 S
C387 H379 0.930 . S
C387 C388 1.355 . S
C387 C389 1.415 . S
C388 C387 1.355 . S
C388 C390 1.419 . S
C389 C384 1.425 . S
C389 C386 1.409 1_556 S
C389 C387 1.415 . S
C390 H380 0.930 . S
C390 C388 1.419 . S
C390 C391 1.362 . S
C391 H381 0.930 . S
C391 C384 1.409 . S
C391 C390 1.362 . S
H392 C398 0.930 . S
H393 C401 0.930 1_554 S
H394 C402 0.930 . S
H395 C403 0.930 . S
H396 C406 0.930 . S
H397 C407 0.930 . S
C398 H392 0.930 . S
C398 C399 1.355 . S
C398 C400 1.415 . S
C399 C398 1.355 . S
C399 C401 1.419 . S
C400 C398 1.415 . S
C400 C405 1.425 . S
C400 C407 1.409 . S
C401 H393 0.930 1_556 S
C401 C399 1.419 . S
C401 C402 1.362 . S
C402 H394 0.930 . S
C402 C401 1.362 . S
C402 C405 1.409 . S
C403 H395 0.930 . S
C403 C404 1.355 . S
C403 C405 1.415 . S
C404 C403 1.355 . S
C404 C406 1.419 . S
C405 C400 1.425 . S
C405 C402 1.409 . S
C405 C403 1.415 . S
C406 H396 0.930 . S
C406 C404 1.419 . S
C406 C407 1.362 . S
C407 H397 0.930 . S
C407 C400 1.409 . S
C407 C406 1.362 . S
H408 C414 0.930 . S
H409 C417 0.930 . S
H410 C418 0.930 . S
H411 C419 0.930 . S
H412 C422 0.930 . S
H413 C423 0.930 . S
C414 H408 0.930 . S
C414 C415 1.355 . S
C414 C416 1.415 . S
C415 C414 1.355 . S
C415 C417 1.419 . S
C416 C414 1.415 . S
C416 C421 1.425 . S
C416 C423 1.409 . S
C417 H409 0.930 . S
C417 C415 1.419 . S
C417 C418 1.362 . S
C418 H410 0.930 . S
C418 C417 1.362 . S
C418 C421 1.409 . S
C419 H411 0.930 . S
C419 C420 1.355 . S
C419 C421 1.415 . S
C420 C419 1.355 . S
C420 C422 1.419 . S
C421 C416 1.425 . S
C421 C418 1.409 . S
C421 C419 1.415 . S
C422 H412 0.930 . S
C422 C420 1.419 . S
C422 C423 1.362 . S
C423 H413 0.930 . S
C423 C416 1.409 . S
C423 C422 1.362 . S
H424 C430 0.930 . S
H425 C433 0.930 . S
H426 C434 0.930 . S
H427 C435 0.930 . S
H428 C438 0.930 1_556 S
H429 C439 0.930 . S
C430 H424 0.930 . S
C430 C431 1.355 . S
C430 C432 1.415 . S
C431 C430 1.355 . S
C431 C433 1.419 . S
C432 C430 1.415 . S
C432 C437 1.425 . S
C432 C439 1.409 . S
C433 H425 0.930 . S
C433 C431 1.419 . S
C433 C434 1.362 . S
C434 H426 0.930 . S
C434 C433 1.362 . S
C434 C437 1.409 . S
C435 H427 0.930 . S
C435 C436 1.355 . S
C435 C437 1.415 . S
C436 C435 1.355 . S
C436 C438 1.419 . S
C437 C432 1.425 . S
C437 C434 1.409 . S
C437 C435 1.415 . S
C438 H428 0.930 1_554 S
C438 C436 1.419 . S
C438 C439 1.362 . S
C439 H429 0.930 . S
C439 C432 1.409 . S
C439 C438 1.362 . S
H440 C446 0.930 . S
H441 C449 0.930 . S
H442 C450 0.930 1_556 S
H443 C451 0.930 . S
H444 C454 0.930 . S
H445 C455 0.930 . S
C446 H440 0.930 . S
C446 C447 1.355 . S
C446 C448 1.415 . S
C447 C446 1.355 . S
C447 C449 1.419 1_554 S
C448 C446 1.415 . S
C448 C453 1.425 . S
C448 C455 1.409 . S
C449 H441 0.930 . S
C449 C447 1.419 1_556 S
C449 C450 1.362 1_556 S
C450 H442 0.930 1_554 S
C450 C449 1.362 1_554 S
C450 C453 1.409 . S
C451 H443 0.930 . S
C451 C452 1.355 . S
C451 C453 1.415 . S
C452 C451 1.355 . S
C452 C454 1.419 . S
C453 C448 1.425 . S
C453 C450 1.409 . S
C453 C451 1.415 . S
C454 H444 0.930 . S
C454 C452 1.419 . S
C454 C455 1.362 . S
C455 H445 0.930 . S
C455 C448 1.409 . S
C455 C454 1.362 . S
H456 C462 0.930 1_455 S
H457 C465 0.930 . S
H458 C466 0.930 . S
H459 C467 0.930 . S
H460 C470 0.930 . S
H461 C471 0.930 . S
C462 H456 0.930 1_655 S
C462 C463 1.355 1_655 S
C462 C464 1.415 . S
C463 C462 1.355 1_455 S
C463 C465 1.419 1_455 S
C464 C462 1.415 . S
C464 C469 1.425 . S
C464 C471 1.409 . S
C465 H457 0.930 . S
C465 C463 1.419 1_655 S
C465 C466 1.362 . S
C466 H458 0.930 . S
C466 C465 1.362 . S
C466 C469 1.409 . S
C467 H459 0.930 . S
C467 C468 1.355 . S
C467 C469 1.415 . S
C468 C467 1.355 . S
C468 C470 1.419 . S
C469 C464 1.425 . S
C469 C466 1.409 . S
C469 C467 1.415 . S
C470 H460 0.930 . S
C470 C468 1.419 . S
C470 C471 1.362 . S
C471 H461 0.930 . S
C471 C464 1.409 . S
C471 C470 1.362 . S
H472 C478 0.930 . S
H473 C481 0.930 . S
H474 C482 0.930 . S
H475 C483 0.930 . S
H476 C486 0.930 . S
H477 C487 0.930 . S
C478 H472 0.930 . S
C478 C479 1.355 . S
C478 C480 1.415 . S
C479 C478 1.355 . S
C479 C481 1.419 . S
C480 C478 1.415 . S
C480 C485 1.425 . S
C480 C487 1.409 . S
C481 H473 0.930 . S
C481 C479 1.419 . S
C481 C482 1.362 . S
C482 H474 0.930 . S
C482 C481 1.362 . S
C482 C485 1.409 . S
C483 H475 0.930 . S
C483 C484 1.355 . S
C483 C485 1.415 . S
C484 C483 1.355 . S
C484 C486 1.419 . S
C485 C480 1.425 . S
C485 C482 1.409 . S
C485 C483 1.415 . S
C486 H476 0.930 . S
C486 C484 1.419 . S
C486 C487 1.362 . S
C487 H477 0.930 . S
C487 C480 1.409 . S
C487 C486 1.362 . S
H488 C494 0.930 . S
H489 C497 0.930 . S
H490 C498 0.930 . S
H491 C499 0.930 . S
H492 C502 0.930 . S
H493 C503 0.930 . S
C494 H488 0.930 . S
C494 C495 1.355 . S
C494 C496 1.415 . S
C495 C494 1.355 . S
C495 C497 1.419 . S
C496 C494 1.415 . S
C496 C501 1.425 . S
C496 C503 1.409 . S
C497 H489 0.930 . S
C497 C495 1.419 . S
C497 C498 1.362 . S
C498 H490 0.930 . S
C498 C497 1.362 . S
C498 C501 1.409 . S
C499 H491 0.930 . S
C499 C500 1.355 . S
C499 C501 1.415 . S
C500 C499 1.355 . S
C500 C502 1.419 . S
C501 C496 1.425 . S
C501 C498 1.409 . S
C501 C499 1.415 . S
C502 H492 0.930 . S
C502 C500 1.419 . S
C502 C503 1.362 . S
C503 H493 0.930 . S
C503 C496 1.409 . S
C503 C502 1.362 . S
H504 C510 0.930 . S
H505 C513 0.930 . S
H506 C514 0.930 . S
H507 C515 0.930 . S
H508 C518 0.930 . S
H509 C519 0.930 . S
C510 H504 0.930 . S
C510 C511 1.355 1_556 S
C510 C512 1.415 . S
C511 C510 1.355 1_554 S
C511 C513 1.419 . S
C512 C510 1.415 . S
C512 C517 1.425 . S
C512 C519 1.409 . S
C513 H505 0.930 . S
C513 C511 1.419 . S
C513 C514 1.362 . S
C514 H506 0.930 . S
C514 C513 1.362 . S
C514 C517 1.409 1_554 S
C515 H507 0.930 . S
C515 C516 1.355 . S
C515 C517 1.415 . S
C516 C515 1.355 . S
C516 C518 1.419 . S
C517 C512 1.425 . S
C517 C514 1.409 1_556 S
C517 C515 1.415 . S
C518 H508 0.930 . S
C518 C516 1.419 . S
C518 C519 1.362 . S
C519 H509 0.930 . S
C519 C512 1.409 . S
C519 C518 1.362 . S
H520 C526 0.930 . S
H521 C529 0.930 . S
H522 C530 0.930 . S
H523 C531 0.930 1_545 S
H524 C534 0.930 . S
H525 C535 0.930 . S
C526 H520 0.930 . S
C526 C527 1.355 1_554 S
C526 C528 1.415 . S
C527 C526 1.355 1_556 S
C527 C529 1.419 . S
C528 C526 1.415 . S
C528 C533 1.425 1_554 S
C528 C535 1.409 . S
C529 H521 0.930 . S
C529 C527 1.419 . S
C529 C530 1.362 . S
C530 H522 0.930 . S
C530 C529 1.362 . S
C530 C533 1.409 . S
C531 H523 0.930 1_565 S
C531 C532 1.355 1_566 S
C531 C533 1.415 . S
C532 C531 1.355 1_544 S
C532 C534 1.419 . S
C533 C528 1.425 1_556 S
C533 C530 1.409 . S
C533 C531 1.415 . S
C534 H524 0.930 . S
C534 C532 1.419 . S
C534 C535 1.362 1_545 S
C535 H525 0.930 . S
C535 C528 1.409 . S
C535 C534 1.362 1_565 S
H536 C542 0.930 . S
H537 C545 0.930 . S
H538 C546 0.977 . S
H539 C547 0.930 1_545 S
H540 C550 0.930 . S
H541 C551 0.930 . S
C542 H536 0.930 . S
C542 C543 1.355 1_556 S
C542 C544 1.415 . S
C543 C542 1.355 1_554 S
C543 C545 1.419 . S
C544 C542 1.415 . S
C544 C549 1.425 1_556 S
C544 C551 1.409 . S
C545 H537 0.930 . S
C545 C543 1.419 . S
C545 C546 1.362 . S
C546 H538 0.977 . S
C546 C545 1.362 . S
C546 C549 1.409 . S
C547 H539 0.930 1_565 S
C547 C548 1.355 1_554 S
C547 C549 1.415 . S
C548 C547 1.355 1_556 S
C548 C550 1.419 . S
C549 C544 1.425 1_554 S
C549 C546 1.409 . S
C549 C547 1.415 . S
C550 H540 0.930 . S
C550 C548 1.419 . S
C550 C551 1.362 . S
C551 H541 0.930 . S
C551 C544 1.409 . S
C551 C550 1.362 . S
H552 C558 0.930 . S
H553 C561 0.930 . S
H554 C562 0.930 . S
H555 C563 0.930 . S
H556 C566 0.930 . S
H557 C567 0.930 . S
C558 H552 0.930 . S
C558 C559 1.355 . S
C558 C560 1.415 . S
C559 C558 1.355 . S
C559 C561 1.419 . S
C560 C558 1.415 . S
C560 C565 1.425 . S
C560 C567 1.409 . S
C561 H553 0.930 . S
C561 C559 1.419 . S
C561 C562 1.362 . S
C562 H554 0.930 . S
C562 C561 1.362 . S
C562 C565 1.409 . S
C563 H555 0.930 . S
C563 C564 1.355 . S
C563 C565 1.415 . S
C564 C563 1.355 . S
C564 C566 1.419 . S
C565 C560 1.425 . S
C565 C562 1.409 . S
C565 C563 1.415 . S
C566 H556 0.930 . S
C566 C564 1.419 . S
C566 C567 1.362 . S
C567 H557 0.930 . S
C567 C560 1.409 . S
C567 C566 1.362 . S
H568 C574 0.930 . S
H569 C577 0.930 . S
H570 C578 0.930 . S
H571 C579 0.930 . S
H572 C582 0.930 . S
H573 C583 0.930 . S
C574 H568 0.930 . S
C574 C575 1.355 . S
C574 C576 1.415 . S
C575 C574 1.355 . S
C575 C577 1.419 . S
C576 C574 1.415 . S
C576 C581 1.425 . S
C576 C583 1.409 . S
C577 H569 0.930 . S
C577 C575 1.419 . S
C577 C578 1.362 . S
C578 H570 0.930 . S
C578 C577 1.362 . S
C578 C581 1.409 . S
C579 H571 0.930 . S
C579 C580 1.355 . S
C579 C581 1.415 . S
C580 C579 1.355 . S
C580 C582 1.419 . S
C581 C576 1.425 . S
C581 C578 1.409 . S
C581 C579 1.415 . S
C582 H572 0.930 . S
C582 C580 1.419 . S
C582 C583 1.362 . S
C583 H573 0.930 . S
C583 C576 1.409 . S
C583 C582 1.362 . S
H584 C590 0.930 . S
H585 C593 0.930 . S
H586 C594 0.930 . S
H587 C595 0.930 . S
H588 C598 0.930 . S
H589 C599 0.930 . S
C590 H584 0.930 . S
C590 C591 1.355 . S
C590 C592 1.415 . S
C591 C590 1.355 . S
C591 C593 1.419 . S
C592 C590 1.415 . S
C592 C597 1.425 . S
C592 C599 1.409 . S
C593 H585 0.930 . S
C593 C591 1.419 . S
C593 C594 1.362 . S
C594 H586 0.930 . S
C594 C593 1.362 . S
C594 C597 1.409 . S
C595 H587 0.930 . S
C595 C596 1.355 . S
C595 C597 1.415 . S
C596 C595 1.355 . S
C596 C598 1.419 . S
C597 C592 1.425 . S
C597 C594 1.409 . S
C597 C595 1.415 . S
C598 H588 0.930 . S
C598 C596 1.419 . S
C598 C599 1.362 . S
C599 H589 0.930 . S
C599 C592 1.409 . S
C599 C598 1.362 . S
H600 C606 0.930 . S
H601 C609 0.930 . S
H602 C610 0.930 . S
H603 C611 0.930 . S
H604 C614 0.930 . S
H605 C615 0.930 . S
C606 H600 0.930 . S
C606 C607 1.355 . S
C606 C608 1.415 . S
C607 C606 1.355 . S
C607 C609 1.419 . S
C608 C606 1.415 . S
C608 C613 1.425 . S
C608 C615 1.409 . S
C609 H601 0.930 . S
C609 C607 1.419 . S
C609 C610 1.362 . S
C610 H602 0.930 . S
C610 C609 1.362 . S
C610 C613 1.409 . S
C611 H603 0.930 . S
C611 C612 1.355 . S
C611 C613 1.415 . S
C612 C611 1.355 . S
C612 C614 1.419 . S
C613 C608 1.425 . S
C613 C610 1.409 . S
C613 C611 1.415 . S
C614 H604 0.930 . S
C614 C612 1.419 . S
C614 C615 1.362 . S
C615 H605 0.930 . S
C615 C608 1.409 . S
C615 C614 1.362 . S
H616 C622 0.930 . S
H617 C625 0.930 . S
H618 C626 0.930 . S
H619 C627 0.930 . S
H620 C630 0.930 . S
H621 C631 0.930 . S
C622 H616 0.930 . S
C622 C623 1.355 . S
C622 C624 1.415 . S
C623 C622 1.355 . S
C623 C625 1.419 . S
C624 C622 1.415 . S
C624 C629 1.425 . S
C624 C631 1.409 . S
C625 H617 0.930 . S
C625 C623 1.419 . S
C625 C626 1.362 . S
C626 H618 0.930 . S
C626 C625 1.362 . S
C626 C629 1.409 . S
C627 H619 0.930 . S
C627 C628 1.355 . S
C627 C629 1.415 . S
C628 C627 1.355 . S
C628 C630 1.419 . S
C629 C624 1.425 . S
C629 C626 1.409 . S
C629 C627 1.415 . S
C630 H620 0.930 . S
C630 C628 1.419 . S
C630 C631 1.362 . S
C631 H621 0.930 . S
C631 C624 1.409 . S
C631 C630 1.362 . S
H632 C638 0.930 . S
H633 C641 0.930 . S
H634 C642 0.930 . S
H635 C643 0.930 . S
H636 C646 0.930 . S
H637 C647 0.930 . S
C638 H632 0.930 . S
C638 C639 1.355 . S
C638 C640 1.415 . S
C639 C638 1.355 . S
C639 C641 1.419 . S
C640 C638 1.415 . S
C640 C645 1.425 . S
C640 C647 1.409 . S
C641 H633 0.930 . S
C641 C639 1.419 . S
C641 C642 1.362 . S
C642 H634 0.930 . S
C642 C641 1.362 . S
C642 C645 1.409 . S
C643 H635 0.930 . S
C643 C644 1.355 . S
C643 C645 1.415 . S
C644 C643 1.355 . S
C644 C646 1.419 . S
C645 C640 1.425 . S
C645 C642 1.409 . S
C645 C643 1.415 . S
C646 H636 0.930 . S
C646 C644 1.419 . S
C646 C647 1.362 . S
C647 H637 0.930 . S
C647 C640 1.409 . S
C647 C646 1.362 . S
H648 C654 0.930 1_655 S
H649 C657 0.930 . S
H650 C658 0.930 . S
H651 C659 0.930 . S
H652 C662 0.930 . S
H653 C663 0.930 . S
C654 H648 0.930 1_455 S
C654 C655 1.355 . S
C654 C656 1.415 . S
C655 C654 1.355 . S
C655 C657 1.419 . S
C656 C654 1.415 . S
C656 C661 1.425 . S
C656 C663 1.409 1_455 S
C657 H649 0.930 . S
C657 C655 1.419 . S
C657 C658 1.362 . S
C658 H650 0.930 . S
C658 C657 1.362 . S
C658 C661 1.409 . S
C659 H651 0.930 . S
C659 C660 1.355 . S
C659 C661 1.415 . S
C660 C659 1.355 . S
C660 C662 1.419 1_455 S
C661 C656 1.425 . S
C661 C658 1.409 . S
C661 C659 1.415 . S
C662 H652 0.930 . S
C662 C660 1.419 1_655 S
C662 C663 1.362 . S
C663 H653 0.930 . S
C663 C656 1.409 1_655 S
C663 C662 1.362 . S
H664 C670 0.930 . S
H665 C673 0.930 . S
H666 C674 0.930 . S
H667 C675 0.930 . S
H668 C678 0.930 . S
H669 C679 0.930 . S
C670 H664 0.930 . S
C670 C671 1.355 . S
C670 C672 1.415 . S
C671 C670 1.355 . S
C671 C673 1.419 . S
C672 C670 1.415 . S
C672 C677 1.425 . S
C672 C679 1.409 . S
C673 H665 0.930 . S
C673 C671 1.419 . S
C673 C674 1.362 . S
C674 H666 0.930 . S
C674 C673 1.362 . S
C674 C677 1.409 . S
C675 H667 0.930 . S
C675 C676 1.355 . S
C675 C677 1.415 . S
C676 C675 1.355 . S
C676 C678 1.419 . S
C677 C672 1.425 . S
C677 C674 1.409 . S
C677 C675 1.415 . S
C678 H668 0.930 . S
C678 C676 1.419 . S
C678 C679 1.362 . S
C679 H669 0.930 . S
C679 C672 1.409 . S
C679 C678 1.362 . S
H680 C686 0.930 . S
H681 C689 0.930 . S
H682 C690 0.930 . S
H683 C691 0.930 . S
H684 C694 0.930 1_565 S
H685 C695 0.930 1_565 S
C686 H680 0.930 . S
C686 C687 1.355 . S
C686 C688 1.415 . S
C687 C686 1.355 . S
C687 C689 1.419 . S
C688 C686 1.415 . S
C688 C693 1.425 . S
C688 C695 1.409 . S
C689 H681 0.930 . S
C689 C687 1.419 . S
C689 C690 1.362 . S
C690 H682 0.930 . S
C690 C689 1.362 . S
C690 C693 1.409 . S
C691 H683 0.930 . S
C691 C692 1.355 . S
C691 C693 1.415 . S
C692 C691 1.355 . S
C692 C694 1.419 . S
C693 C688 1.425 . S
C693 C690 1.409 . S
C693 C691 1.415 . S
C694 H684 0.930 1_545 S
C694 C692 1.419 . S
C694 C695 1.362 . S
C695 H685 0.930 1_545 S
C695 C688 1.409 . S
C695 C694 1.362 . S
H696 C702 0.930 . S
H697 C705 0.930 . S
H698 C706 0.930 . S
H699 C707 0.930 1_554 S
H700 C710 0.930 1_554 S
H701 C711 0.930 . S
C702 H696 0.930 . S
C702 C703 1.355 . S
C702 C704 1.415 . S
C703 C702 1.355 . S
C703 C705 1.419 . S
C704 C702 1.415 . S
C704 C709 1.425 . S
C704 C711 1.409 . S
C705 H697 0.930 . S
C705 C703 1.419 . S
C705 C706 1.362 . S
C706 H698 0.930 . S
C706 C705 1.362 . S
C706 C709 1.409 . S
C707 H699 0.930 1_556 S
C707 C708 1.355 1_556 S
C707 C709 1.415 . S
C708 C707 1.355 1_554 S
C708 C710 1.419 1_554 S
C709 C704 1.425 . S
C709 C706 1.409 . S
C709 C707 1.415 . S
C710 H700 0.930 1_556 S
C710 C708 1.419 1_556 S
C710 C711 1.362 . S
C711 H701 0.930 . S
C711 C704 1.409 . S
C711 C710 1.362 . S
H712 C718 0.930 . S
H713 C721 0.930 . S
H714 C722 0.930 . S
H715 C723 0.930 1_554 S
H716 C726 0.930 1_554 S
H717 C727 0.930 . S
C718 H712 0.930 . S
C718 C719 1.355 . S
C718 C720 1.415 . S
C719 C718 1.355 . S
C719 C721 1.419 . S
C720 C718 1.415 . S
C720 C725 1.425 . S
C720 C727 1.409 . S
C721 H713 0.930 . S
C721 C719 1.419 . S
C721 C722 1.362 . S
C722 H714 0.930 . S
C722 C721 1.362 . S
C722 C725 1.409 . S
C723 H715 0.930 1_556 S
C723 C724 1.355 1_556 S
C723 C725 1.415 . S
C724 C723 1.355 1_554 S
C724 C726 1.419 1_554 S
C725 C720 1.425 . S
C725 C722 1.409 . S
C725 C723 1.415 . S
C726 H716 0.930 1_556 S
C726 C724 1.419 1_556 S
C726 C727 1.362 . S
C727 H717 0.930 . S
C727 C720 1.409 . S
C727 C726 1.362 . S
H728 C734 0.930 . S
H729 C737 0.930 . S
H730 C738 0.930 . S
H731 C739 0.930 . S
H732 C742 0.930 . S
H733 C743 0.930 . S
C734 H728 0.930 . S
C734 C735 1.355 . S
C734 C736 1.415 . S
C735 C734 1.355 . S
C735 C737 1.419 . S
C736 C734 1.415 . S
C736 C741 1.425 . S
C736 C743 1.409 . S
C737 H729 0.930 . S
C737 C735 1.419 . S
C737 C738 1.362 . S
C738 H730 0.930 . S
C738 C737 1.362 . S
C738 C741 1.409 . S
C739 H731 0.930 . S
C739 C740 1.355 1_556 S
C739 C741 1.415 . S
C740 C739 1.355 1_554 S
C740 C742 1.419 . S
C741 C736 1.425 . S
C741 C738 1.409 . S
C741 C739 1.415 . S
C742 H732 0.930 . S
C742 C740 1.419 . S
C742 C743 1.362 1_554 S
C743 H733 0.930 . S
C743 C736 1.409 . S
C743 C742 1.362 1_556 S
H744 C750 0.930 . S
H745 C753 0.930 . S
H746 C754 0.930 . S
H747 C755 0.930 . S
H748 C758 0.930 . S
H749 C759 0.930 . S
C750 H744 0.930 . S
C750 C751 1.355 . S
C750 C752 1.415 . S
C751 C750 1.355 . S
C751 C753 1.419 . S
C752 C750 1.415 . S
C752 C757 1.425 . S
C752 C759 1.409 . S
C753 H745 0.930 . S
C753 C751 1.419 . S
C753 C754 1.362 . S
C754 H746 0.930 . S
C754 C753 1.362 . S
C754 C757 1.409 . S
C755 H747 0.930 . S
C755 C756 1.355 1_554 S
C755 C757 1.415 . S
C756 C755 1.355 1_556 S
C756 C758 1.419 . S
C757 C752 1.425 . S
C757 C754 1.409 . S
C757 C755 1.415 . S
C758 H748 0.930 . S
C758 C756 1.419 . S
C758 C759 1.362 1_556 S
C759 H749 0.930 . S
C759 C752 1.409 . S
C759 C758 1.362 1_554 S
H760 C766 0.930 . S
H761 C769 0.930 1_556 S
H762 C770 0.930 . S
H763 C771 0.930 . S
H764 C774 0.930 . S
H765 C775 0.930 . S
C766 H760 0.930 . S
C766 C767 1.355 1_554 S
C766 C768 1.415 . S
C767 C766 1.355 1_556 S
C767 C769 1.419 1_556 S
C768 C766 1.415 . S
C768 C773 1.425 . S
C768 C775 1.409 . S
C769 H761 0.930 1_554 S
C769 C767 1.419 1_554 S
C769 C770 1.362 . S
C770 H762 0.930 . S
C770 C769 1.362 . S
C770 C773 1.409 . S
C771 H763 0.930 . S
C771 C772 1.355 . S
C771 C773 1.415 . S
C772 C771 1.355 . S
C772 C774 1.419 . S
C773 C768 1.425 . S
C773 C770 1.409 . S
C773 C771 1.415 . S
C774 H764 0.930 . S
C774 C772 1.419 . S
C774 C775 1.362 . S
C775 H765 0.930 . S
C775 C768 1.409 . S
C775 C774 1.362 . S
H776 C782 0.930 . S
H777 C785 0.930 . S
H778 C786 0.930 . S
H779 C787 0.930 . S
H780 C790 0.930 1_556 S
H781 C791 0.930 . S
C782 H776 0.930 . S
C782 C783 1.355 . S
C782 C784 1.415 . S
C783 C782 1.355 . S
C783 C785 1.419 . S
C784 C782 1.415 . S
C784 C789 1.425 . S
C784 C791 1.409 . S
C785 H777 0.930 . S
C785 C783 1.419 . S
C785 C786 1.362 . S
C786 H778 0.930 . S
C786 C785 1.362 . S
C786 C789 1.409 . S
C787 H779 0.930 . S
C787 C788 1.355 1_554 S
C787 C789 1.415 . S
C788 C787 1.355 1_556 S
C788 C790 1.419 1_556 S
C789 C784 1.425 . S
C789 C786 1.409 . S
C789 C787 1.415 . S
C790 H780 0.930 1_554 S
C790 C788 1.419 1_554 S
C790 C791 1.362 . S
C791 H781 0.930 . S
C791 C784 1.409 . S
C791 C790 1.362 . S
C367 C6 1.986 1_556 S
C372 C290 2.043 . S
C383 C46 1.985 1_556 S
C388 C330 2.043 . S
C399 C86 1.991 1_556 S
C404 C250 2.035 . S
C415 C166 1.938 . S
C420 C90 2.025 . S
C431 C206 1.971 . S
C436 C10 2.041 . S
C447 C50 2.040 . S
C452 C126 1.993 . S
C463 C286 1.978 . S
C468 C210 2.042 . S
C479 C326 1.958 . S
C484 C130 2.037 . S
C495 C170 2.015 . S
C500 C246 1.930 1_545 S
C511 C95 1.676 . S
C516 C19 1.655 . S
C527 C59 1.670 . S
C532 C15 1.665 . S
C543 C55 1.674 1_455 S
C548 C99 1.658 . S
C559 C139 1.651 . S
C564 C215 1.677 . S
C575 C135 1.676 . S
C580 C179 1.653 . S
C591 C175 1.673 . S
C596 C219 1.660 . S
C607 C335 1.677 . S
C612 C259 1.651 . S
C623 C299 1.646 . S
C628 C255 1.658 . S
C639 C339 1.666 . S
C644 C295 1.670 . S
C655 C9 0.997 . S
C660 C18 0.997 . S
C671 C49 1.015 . S
C676 C58 1.015 . S
C687 C89 1.069 . S
C692 C98 1.069 . S
C703 C138 1.014 . S
C708 C129 1.014 . S
C719 C178 1.067 . S
C724 C169 1.067 . S
C735 C218 0.960 . S
C740 C209 0.960 . S
C751 C249 0.946 . S
C756 C258 0.946 . S
C767 C298 1.069 . S
C772 C289 1.069 . S
C783 C329 1.015 . S
C788 C338 1.015 . S
