# Generated by pormake.
# Topology cag, (4)-cn, num edge types: 1
# Building blocks:
#     Node 0, Type 0, BuildingBlock: NAHDIM_clean_sbu_0, # of connection points: 4
#     Node 1, Type 0, BuildingBlock: NAHDIM_clean_sbu_0, # of connection points: 4
#     Node 2, Type 0, BuildingBlock: NAHDIM_clean_sbu_0, # of connection points: 4
#     Node 3, Type 0, BuildingBlock: NAHDIM_clean_sbu_0, # of connection points: 4
#     Node 4, Type 0, BuildingBlock: NAHDIM_clean_sbu_0, # of connection points: 4
#     Node 5, Type 0, BuildingBlock: NAHDIM_clean_sbu_0, # of connection points: 4
#     Node 6, Type 0, BuildingBlock: NAHDIM_clean_sbu_0, # of connection points: 4
#     Node 7, Type 0, BuildingBlock: NAHDIM_clean_sbu_0, # of connection points: 4
#     Node 8, Type 0, BuildingBlock: NAHDIM_clean_sbu_0, # of connection points: 4
#     Node 9, Type 0, BuildingBlock: NAHDIM_clean_sbu_0, # of connection points: 4
#     Node 10, Type 0, BuildingBlock: NAHDIM_clean_sbu_0, # of connection points: 4
#     Node 11, Type 0, BuildingBlock: NAHDIM_clean_sbu_0, # of connection points: 4
#     Node 12, Type 0, BuildingBlock: NAHDIM_clean_sbu_0, # of connection points: 4
#     Node 13, Type 0, BuildingBlock: NAHDIM_clean_sbu_0, # of connection points: 4
#     Node 14, Type 0, BuildingBlock: NAHDIM_clean_sbu_0, # of connection points: 4
#     Node 15, Type 0, BuildingBlock: NAHDIM_clean_sbu_0, # of connection points: 4
#     Edge 16, Type (0, 0), BuildingBlock: CIFDUS_clean_linker_0, # of connection points: 2
#     Edge 17, Type (0, 0), BuildingBlock: CIFDUS_clean_linker_0, # of connection points: 2
#     Edge 18, Type (0, 0), BuildingBlock: CIFDUS_clean_linker_0, # of connection points: 2
#     Edge 19, Type (0, 0), BuildingBlock: CIFDUS_clean_linker_0, # of connection points: 2
#     Edge 20, Type (0, 0), BuildingBlock: CIFDUS_clean_linker_0, # of connection points: 2
#     Edge 21, Type (0, 0), BuildingBlock: CIFDUS_clean_linker_0, # of connection points: 2
#     Edge 22, Type (0, 0), BuildingBlock: CIFDUS_clean_linker_0, # of connection points: 2
#     Edge 23, Type (0, 0), BuildingBlock: CIFDUS_clean_linker_0, # of connection points: 2
#     Edge 24, Type (0, 0), BuildingBlock: CIFDUS_clean_linker_0, # of connection points: 2
#     Edge 25, Type (0, 0), BuildingBlock: CIFDUS_clean_linker_0, # of connection points: 2
#     Edge 26, Type (0, 0), BuildingBlock: CIFDUS_clean_linker_0, # of connection points: 2
#     Edge 27, Type (0, 0), BuildingBlock: CIFDUS_clean_linker_0, # of connection points: 2
#     Edge 28, Type (0, 0), BuildingBlock: CIFDUS_clean_linker_0, # of connection points: 2
#     Edge 29, Type (0, 0), BuildingBlock: CIFDUS_clean_linker_0, # of connection points: 2
#     Edge 30, Type (0, 0), BuildingBlock: CIFDUS_clean_linker_0, # of connection points: 2
#     Edge 31, Type (0, 0), BuildingBlock: CIFDUS_clean_linker_0, # of connection points: 2
#     Edge 32, Type (0, 0), BuildingBlock: CIFDUS_clean_linker_0, # of connection points: 2
#     Edge 33, Type (0, 0), BuildingBlock: CIFDUS_clean_linker_0, # of connection points: 2
#     Edge 34, Type (0, 0), BuildingBlock: CIFDUS_clean_linker_0, # of connection points: 2
#     Edge 35, Type (0, 0), BuildingBlock: CIFDUS_clean_linker_0, # of connection points: 2
#     Edge 36, Type (0, 0), BuildingBlock: CIFDUS_clean_linker_0, # of connection points: 2
#     Edge 37, Type (0, 0), BuildingBlock: CIFDUS_clean_linker_0, # of connection points: 2
#     Edge 38, Type (0, 0), BuildingBlock: CIFDUS_clean_linker_0, # of connection points: 2
#     Edge 39, Type (0, 0), BuildingBlock: CIFDUS_clean_linker_0, # of connection points: 2
#     Edge 40, Type (0, 0), BuildingBlock: CIFDUS_clean_linker_0, # of connection points: 2
#     Edge 41, Type (0, 0), BuildingBlock: CIFDUS_clean_linker_0, # of connection points: 2
#     Edge 42, Type (0, 0), BuildingBlock: CIFDUS_clean_linker_0, # of connection points: 2
#     Edge 43, Type (0, 0), BuildingBlock: CIFDUS_clean_linker_0, # of connection points: 2
#     Edge 44, Type (0, 0), BuildingBlock: CIFDUS_clean_linker_0, # of connection points: 2
#     Edge 45, Type (0, 0), BuildingBlock: CIFDUS_clean_linker_0, # of connection points: 2
#     Edge 46, Type (0, 0), BuildingBlock: CIFDUS_clean_linker_0, # of connection points: 2
#     Edge 47, Type (0, 0), BuildingBlock: CIFDUS_clean_linker_0, # of connection points: 2
# Relax obj value: 0.039
# Max RMSD: 0.071
# Mean RMSD: 0.071
data_MOF--net-cag--node1-NAHDIM_clean_sbu_0--edge1-CIFDUS_clean_linker_0
_symmetry_space_group_name_H-M    P1
_symmetry_Int_Tables_number       1
_symmetry_cell_setting            triclinic
loop_
_symmetry_equiv_pos_as_xyz
'x, y, z'
_cell_length_a     36.613024
_cell_length_b     44.116559
_cell_length_c     37.672636
_cell_angle_alpha  90.024864
_cell_angle_beta   90.005854
_cell_angle_gamma 90.017299
loop_
_atom_site_label
_atom_site_type_symbol
_atom_site_fract_x
_atom_site_fract_y
_atom_site_fract_z
_atom_type_partial_charge
C0 C 0.26374 0.18598 0.07912 0.0
O1 O 0.26378 0.18277 0.11378 0.0
O2 O 0.35915 0.14064 0.08907 0.0
Zn3 Zn 0.30545 0.131 0.08428 0.0
O4 O 0.2843 0.12416 0.13308 0.0
C5 C 0.32076 0.07039 0.06985 0.0
O6 O 0.33885 0.0756 0.09937 0.0
O7 O 0.27952 0.16603 0.0601 0.0
C8 C 0.25519 0.10886 0.13722 0.0
O9 O 0.23906 0.09717 0.10922 0.0
C10 C 0.3726 0.16713 0.09153 0.0
O11 O 0.35067 0.19069 0.09147 0.0
O12 O 0.30203 0.09182 0.05648 0.0
C13 C 0.20664 0.79283 0.56794 0.0
O14 O 0.18578 0.79143 0.59628 0.0
O15 O 0.13195 0.844 0.57463 0.0
Zn16 Zn 0.1855 0.85396 0.57521 0.0
O17 O 0.20116 0.85967 0.62612 0.0
C18 C 0.2122 0.9146 0.55473 0.0
O19 O 0.23219 0.91308 0.58361 0.0
O20 O 0.21201 0.81848 0.55345 0.0
C21 C 0.23436 0.85807 0.63574 0.0
O22 O 0.25968 0.85297 0.61175 0.0
C23 C 0.10959 0.85908 0.5934 0.0
O24 O 0.12202 0.88105 0.61363 0.0
O25 O 0.19196 0.89228 0.54634 0.0
C26 C 0.29148 0.82812 0.96215 0.0
O27 O 0.31376 0.84532 0.98061 0.0
O28 O 0.36659 0.86204 0.90769 0.0
Zn29 Zn 0.31223 0.86894 0.90544 0.0
O30 O 0.29692 0.87025 0.8539 0.0
C31 C 0.32171 0.91821 0.95434 0.0
O32 O 0.34977 0.90139 0.96345 0.0
O33 O 0.28624 0.83408 0.92953 0.0
C34 C 0.31973 0.87708 0.82971 0.0
O35 O 0.35325 0.88441 0.83868 0.0
C36 C 0.38199 0.83698 0.90043 0.0
O37 O 0.3618 0.81358 0.89142 0.0
O38 O 0.30068 0.90899 0.92968 0.0
C39 C 0.21129 0.18071 0.42949 0.0
O40 O 0.20085 0.18497 0.3965 0.0
O41 O 0.12767 0.12822 0.41497 0.0
Zn42 Zn 0.18225 0.12149 0.41551 0.0
O43 O 0.20344 0.12199 0.36598 0.0
C44 C 0.17076 0.05894 0.43308 0.0
O45 O 0.14292 0.06293 0.41158 0.0
O46 O 0.20602 0.15496 0.44378 0.0
C47 C 0.19015 0.10756 0.33977 0.0
O48 O 0.16075 0.09096 0.3444 0.0
C49 C 0.11007 0.14246 0.39114 0.0
O50 O 0.12785 0.15446 0.36432 0.0
O51 O 0.19224 0.08105 0.43895 0.0
C52 C 0.69868 0.85372 0.84799 0.0
O53 O 0.69274 0.82939 0.86724 0.0
O54 O 0.61754 0.87888 0.91079 0.0
Zn55 Zn 0.67241 0.88195 0.91143 0.0
O56 O 0.69411 0.84761 0.93988 0.0
C57 C 0.69927 0.92651 0.96317 0.0
O58 O 0.71008 0.90272 0.98129 0.0
O59 O 0.69175 0.87961 0.86124 0.0
C60 C 0.67906 0.83628 0.96723 0.0
O61 O 0.64826 0.84791 0.97885 0.0
C62 C 0.59919 0.85492 0.90497 0.0
O63 O 0.61639 0.8294 0.89844 0.0
O64 O 0.68427 0.92272 0.93304 0.0
C65 C 0.78995 0.15755 0.34068 0.0
O66 O 0.79478 0.18462 0.35447 0.0
O67 O 0.87649 0.14256 0.40354 0.0
Zn68 Zn 0.82163 0.13853 0.40721 0.0
O69 O 0.80099 0.17544 0.43176 0.0
C70 C 0.82583 0.07623 0.42642 0.0
O71 O 0.84774 0.0763 0.39879 0.0
O72 O 0.79968 0.13439 0.35835 0.0
C73 C 0.79533 0.17602 0.46504 0.0
O74 O 0.80291 0.15186 0.48404 0.0
C75 C 0.89568 0.13721 0.43096 0.0
O76 O 0.87912 0.13001 0.46073 0.0
O77 O 0.81017 0.10079 0.43532 0.0
C78 C 0.69184 0.16657 0.15131 0.0
O79 O 0.67889 0.19055 0.13492 0.0
O80 O 0.61127 0.13739 0.09256 0.0
Zn81 Zn 0.66607 0.13843 0.08783 0.0
O82 O 0.68183 0.17484 0.05921 0.0
C83 C 0.67032 0.09611 0.03108 0.0
O84 O 0.65141 0.11777 0.01574 0.0
O85 O 0.68932 0.14083 0.1363 0.0
C86 C 0.71183 0.17444 0.04227 0.0
O87 O 0.73195 0.14979 0.04293 0.0
C88 C 0.59084 0.16067 0.09267 0.0
O89 O 0.60569 0.1877 0.09024 0.0
O90 O 0.68094 0.09986 0.06292 0.0
C91 C 0.78517 0.86399 0.65356 0.0
O92 O 0.79982 0.83794 0.64441 0.0
O93 O 0.87019 0.87629 0.60155 0.0
Zn94 Zn 0.81715 0.87977 0.58775 0.0
O95 O 0.79983 0.84092 0.56422 0.0
C96 C 0.83696 0.91906 0.53092 0.0
O97 O 0.86249 0.89831 0.52785 0.0
O98 O 0.78836 0.88645 0.63267 0.0
C99 C 0.79258 0.83842 0.53133 0.0
O100 O 0.79579 0.86223 0.51067 0.0
C101 C 0.89183 0.8565 0.58894 0.0
O102 O 0.87923 0.8362 0.56654 0.0
O103 O 0.81281 0.916 0.55495 0.0
C104 C 0.7884 0.69093 0.03614 0.0
O105 O 0.81762 0.67809 0.02256 0.0
O106 O 0.85126 0.64761 0.08671 0.0
Zn107 Zn 0.79653 0.64264 0.08647 0.0
O108 O 0.77668 0.63842 0.13628 0.0
C109 C 0.80321 0.58158 0.06105 0.0
O110 O 0.82877 0.58098 0.08551 0.0
O111 O 0.77408 0.67954 0.06382 0.0
C112 C 0.79375 0.62513 0.16121 0.0
O113 O 0.82573 0.61287 0.15462 0.0
C114 C 0.86937 0.66373 0.10845 0.0
O115 O 0.85211 0.67855 0.13363 0.0
O116 O 0.78466 0.60569 0.0569 0.0
C117 C 0.71696 0.31028 0.58561 0.0
O118 O 0.70911 0.3099 0.61964 0.0
O119 O 0.63552 0.36696 0.59326 0.0
Zn120 Zn 0.69042 0.37108 0.59274 0.0
O121 O 0.71233 0.37371 0.64199 0.0
C122 C 0.70884 0.4342 0.5787 0.0
O123 O 0.71017 0.43611 0.61347 0.0
O124 O 0.71142 0.33444 0.56802 0.0
C125 C 0.69582 0.38287 0.66967 0.0
O126 O 0.66181 0.39208 0.6672 0.0
C127 C 0.61643 0.34986 0.61311 0.0
O128 O 0.63261 0.33306 0.63721 0.0
O129 O 0.702 0.40873 0.56434 0.0
C130 C 0.81043 0.30578 0.93222 0.0
O131 O 0.83486 0.30324 0.90685 0.0
O132 O 0.8787 0.35781 0.91319 0.0
Zn133 Zn 0.82544 0.36815 0.91974 0.0
O134 O 0.80149 0.37573 0.87228 0.0
C135 C 0.80681 0.42955 0.94555 0.0
O136 O 0.79054 0.43317 0.91478 0.0
O137 O 0.80115 0.33208 0.94264 0.0
C138 C 0.76685 0.37683 0.87016 0.0
O139 O 0.74738 0.37397 0.89926 0.0
C140 C 0.90252 0.37732 0.90425 0.0
O141 O 0.89217 0.40531 0.89789 0.0
O142 O 0.82232 0.40445 0.95253 0.0
C143 C 0.72121 0.67283 0.48019 0.0
O144 O 0.70799 0.65164 0.50106 0.0
O145 O 0.64049 0.64077 0.42582 0.0
Zn146 Zn 0.6947 0.63322 0.42449 0.0
O147 O 0.71223 0.62903 0.37396 0.0
C148 C 0.69911 0.56933 0.43813 0.0
O149 O 0.68734 0.56823 0.40521 0.0
O150 O 0.71932 0.66934 0.44675 0.0
C151 C 0.74386 0.61844 0.36763 0.0
O152 O 0.76456 0.61009 0.39438 0.0
C153 C 0.61826 0.63015 0.40309 0.0
O154 O 0.6308 0.61365 0.37674 0.0
O155 O 0.7051 0.59503 0.45226 0.0
C156 C 0.21679 0.3691 0.84069 0.0
O157 O 0.18612 0.35363 0.84062 0.0
O158 O 0.14361 0.3825 0.9022 0.0
Zn159 Zn 0.19743 0.37911 0.91389 0.0
O160 O 0.20986 0.3391 0.937 0.0
C161 C 0.18649 0.42715 0.96426 0.0
O162 O 0.15364 0.41518 0.9651 0.0
O163 O 0.22691 0.38222 0.86906 0.0
C164 C 0.20292 0.33249 0.96912 0.0
O165 O 0.18617 0.35246 0.98922 0.0
C166 C 0.11994 0.36176 0.90665 0.0
O167 O 0.1304 0.33509 0.91834 0.0
O168 O 0.21091 0.41472 0.94518 0.0
C169 C 0.28966 0.64338 0.33666 0.0
O170 O 0.30206 0.66889 0.35004 0.0
O171 O 0.37763 0.62034 0.38792 0.0
Zn172 Zn 0.32374 0.61929 0.39906 0.0
O173 O 0.3093 0.65652 0.42717 0.0
C174 C 0.3304 0.57517 0.45478 0.0
O175 O 0.35315 0.59557 0.46732 0.0
O176 O 0.29563 0.61875 0.35316 0.0
C177 C 0.28784 0.65587 0.45368 0.0
O178 O 0.27422 0.62979 0.46406 0.0
C179 C 0.40019 0.63523 0.40674 0.0
O180 O 0.38802 0.6512 0.4337 0.0
O181 O 0.31357 0.58063 0.42598 0.0
C182 C 0.18682 0.67062 0.1523 0.0
O183 O 0.17942 0.69633 0.13624 0.0
O184 O 0.10253 0.65722 0.09217 0.0
Zn185 Zn 0.15614 0.64693 0.08828 0.0
O186 O 0.18234 0.6787 0.05929 0.0
C187 C 0.18644 0.59066 0.05567 0.0
O188 O 0.21897 0.60311 0.05768 0.0
O189 O 0.17875 0.64585 0.13694 0.0
C190 C 0.18354 0.68007 0.02561 0.0
O191 O 0.16717 0.65903 0.00673 0.0
C192 C 0.08241 0.65012 0.06593 0.0
O193 O 0.0977 0.6381 0.0377 0.0
O194 O 0.1587 0.60529 0.06647 0.0
C195 C 0.31601 0.36422 0.6519 0.0
O196 O 0.35021 0.37309 0.65378 0.0
O197 O 0.38431 0.3526 0.58396 0.0
Zn198 Zn 0.33033 0.35912 0.57588 0.0
O199 O 0.31044 0.32622 0.54409 0.0
C200 C 0.3402 0.42277 0.56879 0.0
O201 O 0.35963 0.41762 0.59747 0.0
O202 O 0.30253 0.35721 0.62192 0.0
C203 C 0.30212 0.32998 0.51164 0.0
O204 O 0.30725 0.35664 0.49694 0.0
C205 C 0.40571 0.35996 0.55883 0.0
O206 O 0.39162 0.36998 0.52898 0.0
O207 O 0.3237 0.40071 0.55412 0.0
H208 H 0.26694 0.20403 0.00985 0.0
H209 H 0.22476 0.23028 0.11238 0.0
H210 H 0.20135 0.27733 0.08727 0.0
H211 H 0.19464 0.31197 0.03681 0.0
H212 H 0.23746 0.28623 0.93437 0.0
H213 H 0.25866 0.23816 0.95886 0.0
C214 C 0.25241 0.21994 0.02665 0.0
C215 C 0.24775 0.2136 0.06298 0.0
C216 C 0.23922 0.24718 0.01212 0.0
C217 C 0.22889 0.23455 0.08435 0.0
C218 C 0.21548 0.26153 0.07004 0.0
C219 C 0.20848 0.29583 0.01977 0.0
C220 C 0.21454 0.30284 0.98384 0.0
C221 C 0.2208 0.26823 0.03405 0.0
C222 C 0.23249 0.28154 0.96218 0.0
C223 C 0.24465 0.25399 0.97615 0.0
H224 H 0.24901 0.66183 0.51477 0.0
H225 H 0.3033 0.71401 0.43348 0.0
H226 H 0.28406 0.761 0.46221 0.0
H227 H 0.25009 0.78733 0.50939 0.0
H228 H 0.19624 0.73485 0.59075 0.0
H229 H 0.21723 0.68806 0.56309 0.0
C230 C 0.25672 0.68347 0.50335 0.0
C231 C 0.27738 0.68434 0.4719 0.0
C232 C 0.24563 0.71042 0.52001 0.0
C233 C 0.28736 0.71263 0.45765 0.0
C234 C 0.27633 0.73955 0.47403 0.0
C235 C 0.2431 0.76567 0.52118 0.0
C236 C 0.22144 0.76467 0.55202 0.0
C237 C 0.25521 0.73872 0.50508 0.0
C238 C 0.21277 0.73636 0.56698 0.0
C239 C 0.22472 0.70953 0.55115 0.0
H240 H 0.25226 0.78321 0.93005 0.0
H241 H 0.28966 0.81408 0.03258 0.0
H242 H 0.25986 0.77103 0.06104 0.0
H243 H 0.2231 0.7248 0.05703 0.0
H244 H 0.1863 0.69316 0.95462 0.0
H245 H 0.21609 0.73627 0.92597 0.0
C246 C 0.25383 0.78056 0.95863 0.0
C247 C 0.27311 0.80194 0.97913 0.0
C248 C 0.23682 0.75557 0.97487 0.0
C249 C 0.27505 0.79801 0.01611 0.0
C250 C 0.258 0.77338 0.03245 0.0
C251 C 0.22158 0.72726 0.02842 0.0
C252 C 0.20239 0.70576 0.00805 0.0
C253 C 0.23882 0.75204 0.01211 0.0
C254 C 0.20089 0.70933 0.97099 0.0
C255 C 0.21787 0.73402 0.95456 0.0
H256 H 0.28675 0.27293 0.53476 0.0
H257 H 0.2803 0.3304 0.44222 0.0
H258 H 0.2518 0.28932 0.40873 0.0
H259 H 0.22811 0.2373 0.40586 0.0
H260 H 0.23454 0.17991 0.49847 0.0
H261 H 0.26362 0.22082 0.53174 0.0
C262 C 0.27921 0.2765 0.50724 0.0
C263 C 0.28567 0.30478 0.49108 0.0
C264 C 0.26273 0.25281 0.48814 0.0
C265 C 0.27568 0.30891 0.45537 0.0
C266 C 0.25933 0.28543 0.43618 0.0
C267 C 0.23586 0.2337 0.43332 0.0
C268 C 0.22906 0.20554 0.44962 0.0
C269 C 0.25261 0.25732 0.45233 0.0
C270 C 0.23939 0.20132 0.48523 0.0
C271 C 0.25604 0.22472 0.5043 0.0
H272 H 0.72836 0.72267 0.05731 0.0
H273 H 0.81284 0.72084 0.97736 0.0
H274 H 0.78685 0.76583 0.9495 0.0
H275 H 0.73996 0.80538 0.94739 0.0
H276 H 0.65515 0.80722 0.02699 0.0
H277 H 0.68158 0.76258 0.05543 0.0
C278 C 0.74112 0.7321 0.0338 0.0
C279 C 0.7725 0.71832 0.01945 0.0
C280 C 0.72602 0.758 0.01784 0.0
C281 C 0.78866 0.73091 0.98898 0.0
C282 C 0.77383 0.75667 0.973 0.0
C283 C 0.72727 0.79611 0.97103 0.0
C284 C 0.6956 0.80968 0.98502 0.0
C285 C 0.7425 0.77037 0.98717 0.0
C286 C 0.67953 0.79727 0.01563 0.0
C287 C 0.69461 0.7717 0.03191 0.0
H288 H 0.77914 0.18406 0.53484 0.0
H289 H 0.77826 0.23014 0.43376 0.0
H290 H 0.75415 0.27572 0.46209 0.0
H291 H 0.73329 0.30255 0.51557 0.0
H292 H 0.73396 0.25618 0.61649 0.0
H293 H 0.75817 0.21074 0.58814 0.0
C294 C 0.77369 0.20405 0.51896 0.0
C295 C 0.78054 0.20363 0.48222 0.0
C296 C 0.75978 0.23019 0.53539 0.0
C297 C 0.77325 0.22978 0.46209 0.0
C298 C 0.75946 0.2559 0.47827 0.0
C299 C 0.73876 0.28252 0.53139 0.0
C300 C 0.73182 0.28284 0.56813 0.0
C301 C 0.75264 0.25637 0.5149 0.0
C302 C 0.73901 0.25663 0.58817 0.0
C303 C 0.75288 0.23058 0.57198 0.0
H304 H 0.75234 0.30211 0.9773 0.0
H305 H 0.83414 0.2476 0.92498 0.0
H306 H 0.81056 0.20225 0.95399 0.0
H307 H 0.76767 0.17812 0.99512 0.0
H308 H 0.68479 0.23209 0.04651 0.0
H309 H 0.70775 0.27752 0.01685 0.0
C310 C 0.76497 0.2803 0.97224 0.0
C311 C 0.79509 0.27831 0.94914 0.0
C312 C 0.7511 0.25419 0.98883 0.0
C313 C 0.81093 0.24982 0.94262 0.0
C314 C 0.79751 0.22384 0.95924 0.0
C315 C 0.75458 0.19981 0.99982 0.0
C316 C 0.7247 0.20172 0.02314 0.0
C317 C 0.76776 0.22578 0.98254 0.0
C318 C 0.70784 0.22997 0.02866 0.0
C319 C 0.721 0.25598 0.01177 0.0
H320 H 0.77602 0.78656 0.56723 0.0
H321 H 0.78256 0.82409 0.46157 0.0
H322 H 0.76246 0.77592 0.4365 0.0
H323 H 0.74181 0.72356 0.44446 0.0
H324 H 0.73372 0.68616 0.55005 0.0
H325 H 0.75579 0.73383 0.57516 0.0
C326 C 0.77314 0.78419 0.53871 0.0
C327 C 0.78073 0.80897 0.51635 0.0
C328 C 0.76129 0.75645 0.52441 0.0
C329 C 0.77677 0.80548 0.47945 0.0
C330 C 0.76531 0.7779 0.46504 0.0
C331 C 0.74504 0.72573 0.47297 0.0
C332 C 0.73611 0.70127 0.49531 0.0
C333 C 0.75734 0.75329 0.48727 0.0
C334 C 0.74035 0.7046 0.5322 0.0
C335 C 0.75294 0.73188 0.54661 0.0
H336 H 0.28298 0.04929 0.01197 0.0
H337 H 0.36525 0.02384 0.08856 0.0
H338 H 0.37216 0.9748 0.05993 0.0
H339 H 0.35605 0.93934 0.01289 0.0
H340 H 0.27336 0.96329 0.93627 0.0
H341 H 0.26534 0.01255 0.96526 0.0
C342 C 0.30236 0.03298 0.02239 0.0
C343 C 0.32363 0.04038 0.05233 0.0
C344 C 0.30617 0.00451 0.00582 0.0
C345 C 0.34849 0.01888 0.06559 0.0
C346 C 0.35254 0.99075 0.04921 0.0
C347 C 0.33621 0.95527 0.00246 0.0
C348 C 0.31549 0.94766 0.97233 0.0
C349 C 0.33169 0.98339 0.01926 0.0
C350 C 0.2897 0.96855 0.95943 0.0
C351 C 0.28515 0.99676 0.97596 0.0
H352 H 0.16759 0.92755 0.49905 0.0
H353 H 0.2543 0.9654 0.56285 0.0
H354 H 0.25017 0.01302 0.53001 0.0
H355 H 0.22032 0.04461 0.48461 0.0
H356 H 0.13264 0.00673 0.42202 0.0
H357 H 0.13891 0.95851 0.45293 0.0
C358 C 0.1858 0.94611 0.50566 0.0
C359 C 0.21117 0.94286 0.53346 0.0
C360 C 0.18301 0.97354 0.48696 0.0
C361 C 0.23444 0.96725 0.54166 0.0
C362 C 0.23209 0.99453 0.5229 0.0
C363 C 0.20271 0.02576 0.47759 0.0
C364 C 0.17597 0.02938 0.45108 0.0
C365 C 0.20622 0.99805 0.49573 0.0
C366 C 0.15337 0.00469 0.44239 0.0
C367 C 0.15692 0.97704 0.46005 0.0
H368 H 0.67542 0.9795 0.93446 0.0
H369 H 0.72647 0.94247 0.02821 0.0
H370 H 0.7239 0.9921 0.05683 0.0
H371 H 0.70372 0.04529 0.05661 0.0
H372 H 0.65164 0.08176 0.96306 0.0
H373 H 0.65824 0.03311 0.93306 0.0
C374 C 0.68629 0.98228 0.96104 0.0
C375 C 0.70089 0.95718 0.9792 0.0
C376 C 0.68436 0.01079 0.97751 0.0
C377 C 0.71495 0.96132 0.01361 0.0
C378 C 0.71342 0.98971 0.03006 0.0
C379 C 0.69405 0.04268 0.02956 0.0
C380 C 0.67696 0.06713 0.01225 0.0
C381 C 0.69764 0.01449 0.01248 0.0
C382 C 0.66472 0.06332 0.97715 0.0
C383 C 0.66845 0.03547 0.95993 0.0
H384 H 0.86174 0.0229 0.41868 0.0
H385 H 0.78026 0.06728 0.48313 0.0
H386 H 0.77529 0.0221 0.52039 0.0
H387 H 0.79573 0.9705 0.53587 0.0
H388 H 0.87857 0.92725 0.47191 0.0
H389 H 0.88121 0.97144 0.43329 0.0
C390 C 0.84271 0.02269 0.44073 0.0
C391 C 0.82144 0.04847 0.44808 0.0
C392 C 0.8403 0.99683 0.46226 0.0
C393 C 0.79702 0.04776 0.47688 0.0
C394 C 0.79416 0.02194 0.49824 0.0
C395 C 0.81418 0.97069 0.51335 0.0
C396 C 0.83696 0.9456 0.50689 0.0
C397 C 0.81591 0.99641 0.49135 0.0
C398 C 0.86083 0.94627 0.47765 0.0
C399 C 0.86237 0.97155 0.45549 0.0
H400 H 0.77087 0.48363 0.94263 0.0
H401 H 0.84637 0.43224 0.00689 0.0
H402 H 0.85098 0.47432 0.04863 0.0
H403 H 0.83511 0.52616 0.0661 0.0
H404 H 0.75923 0.57764 0.00244 0.0
H405 H 0.75313 0.535 0.96144 0.0
C406 C 0.78828 0.4816 0.9658 0.0
C407 C 0.80837 0.45482 0.97146 0.0
C408 C 0.79076 0.5059 0.98985 0.0
C409 C 0.83059 0.45255 0.0018 0.0
C410 C 0.83331 0.47664 0.02571 0.0
C411 C 0.81711 0.52806 0.04334 0.0
C412 C 0.7978 0.55515 0.03731 0.0
C413 C 0.81373 0.50348 0.01987 0.0
C414 C 0.77444 0.55708 0.00776 0.0
C415 C 0.77099 0.53272 0.98423 0.0
H416 H 0.69975 0.43909 0.50721 0.0
H417 H 0.72515 0.49168 0.60069 0.0
H418 H 0.72621 0.53794 0.56516 0.0
H419 H 0.71685 0.56382 0.50813 0.0
H420 H 0.69014 0.51119 0.41502 0.0
H421 H 0.69282 0.46467 0.44985 0.0
C422 C 0.70581 0.46062 0.51982 0.0
C423 C 0.71219 0.46187 0.55663 0.0
C424 C 0.70598 0.4872 0.49932 0.0
C425 C 0.72 0.49002 0.57245 0.0
C426 C 0.72057 0.51653 0.55215 0.0
C427 C 0.71186 0.54217 0.49538 0.0
C428 C 0.70312 0.54107 0.45902 0.0
C429 C 0.71311 0.51545 0.51565 0.0
C430 C 0.69678 0.51277 0.44297 0.0
C431 C 0.69829 0.4861 0.46288 0.0
H432 H 0.23816 0.55325 0.02669 0.0
H433 H 0.12325 0.55829 0.0521 0.0
H434 H 0.11383 0.5078 0.02788 0.0
H435 H 0.13737 0.46281 0.9981 0.0
H436 H 0.25167 0.45737 0.97083 0.0
H437 H 0.26212 0.50724 0.99743 0.0
C438 C 0.21109 0.54327 0.027 0.0
C439 C 0.1815 0.55968 0.04116 0.0
C440 C 0.20569 0.5141 0.01276 0.0
C441 C 0.14658 0.54633 0.04132 0.0
C442 C 0.1411 0.51737 0.02749 0.0
C443 C 0.16468 0.47236 0.99816 0.0
C444 C 0.19366 0.45634 0.98246 0.0
C445 C 0.17037 0.50114 0.01299 0.0
C446 C 0.22882 0.46921 0.98271 0.0
C447 C 0.23481 0.49777 0.99785 0.0
H448 H 0.36094 0.5576 0.51712 0.0
H449 H 0.29 0.52624 0.43326 0.0
H450 H 0.28573 0.47658 0.46166 0.0
H451 H 0.30411 0.44141 0.50919 0.0
H452 H 0.37521 0.47326 0.59275 0.0
H453 H 0.3773 0.5233 0.56557 0.0
C454 C 0.34439 0.53998 0.50509 0.0
C455 C 0.32599 0.54564 0.47301 0.0
C456 C 0.34215 0.51147 0.52145 0.0
C457 C 0.30453 0.52253 0.45793 0.0
C458 C 0.30211 0.49407 0.47411 0.0
C459 C 0.31991 0.45934 0.52155 0.0
C460 C 0.33959 0.45347 0.5529 0.0
C461 C 0.32111 0.48818 0.50571 0.0
C462 C 0.35984 0.47703 0.56859 0.0
C463 C 0.36111 0.50572 0.55305 0.0
H464 H 0.53909 0.20519 0.09385 0.0
H465 H 0.55206 0.10788 0.09471 0.0
H466 H 0.48597 0.10145 0.09514 0.0
H467 H 0.42453 0.12319 0.09395 0.0
H468 H 0.41097 0.22039 0.09307 0.0
H469 H 0.47722 0.22703 0.09408 0.0
C470 C 0.52748 0.18257 0.09424 0.0
C471 C 0.55061 0.15709 0.09415 0.0
C472 C 0.48932 0.17897 0.09443 0.0
C473 C 0.53501 0.12794 0.09474 0.0
C474 C 0.49716 0.1242 0.09495 0.0
C475 C 0.436 0.14586 0.09406 0.0
C476 C 0.41274 0.17124 0.09331 0.0
C477 C 0.47407 0.14953 0.09459 0.0
C478 C 0.42818 0.20043 0.09359 0.0
C479 C 0.46609 0.20427 0.09414 0.0
H480 H 0.94646 0.82259 0.56024 0.0
H481 H 0.92625 0.89515 0.63465 0.0
H482 H 0.99177 0.90142 0.64372 0.0
H483 H 0.05481 0.88813 0.6283 0.0
H484 H 0.07514 0.81614 0.55318 0.0
H485 H 0.00958 0.80782 0.54677 0.0
C486 C 0.95634 0.83961 0.57867 0.0
C487 C 0.93143 0.85846 0.59657 0.0
C488 C 0.99411 0.84334 0.58352 0.0
C489 C 0.94478 0.88039 0.62038 0.0
C490 C 0.98228 0.88404 0.62557 0.0
C491 C 0.04495 0.87051 0.61066 0.0
C492 C 0.0699 0.85295 0.5911 0.0
C493 C 0.0072 0.86594 0.6069 0.0
C494 C 0.05658 0.83011 0.56846 0.0
C495 C 0.01906 0.82532 0.56475 0.0
H496 H 0.4304 0.88191 0.91476 0.0
H497 H 0.42436 0.78717 0.88664 0.0
H498 H 0.49104 0.7842 0.88579 0.0
H499 H 0.55113 0.80879 0.89236 0.0
H500 H 0.55628 0.90374 0.92 0.0
H501 H 0.48988 0.90623 0.92165 0.0
C502 C 0.44359 0.86054 0.90851 0.0
C503 C 0.42235 0.83481 0.90076 0.0
C504 C 0.48184 0.85903 0.9079 0.0
C505 C 0.44001 0.80735 0.89271 0.0
C506 C 0.47816 0.80563 0.89219 0.0
C507 C 0.53774 0.83002 0.89877 0.0
C508 C 0.55876 0.85603 0.90598 0.0
C509 C 0.49937 0.83138 0.89962 0.0
C510 C 0.54088 0.88335 0.91425 0.0
C511 C 0.50285 0.88483 0.91524 0.0
H512 H 0.06673 0.12668 0.44663 0.0
H513 H 0.06273 0.16311 0.34038 0.0
H514 H 0.99607 0.16507 0.34335 0.0
H515 H 0.93879 0.15546 0.3758 0.0
H516 H 0.94352 0.11977 0.48242 0.0
H517 H 0.00998 0.1186 0.47956 0.0
C518 C 0.05133 0.1351 0.4241 0.0
C519 C 0.06974 0.14462 0.39328 0.0
C520 C 0.01308 0.13629 0.42603 0.0
C521 C 0.04929 0.15565 0.36445 0.0
C522 C 0.01115 0.15674 0.3661 0.0
C523 C 0.95436 0.14749 0.39843 0.0
C524 C 0.93611 0.13763 0.42922 0.0
C525 C 0.99273 0.14696 0.3967 0.0
C526 C 0.95676 0.12751 0.45837 0.0
C527 C 0.99483 0.12678 0.45677 0.0
H528 H 0.04128 0.67342 0.12007 0.0
H529 H 0.03291 0.63291 0.01597 0.0
H530 H 0.96659 0.6341 0.01985 0.0
H531 H 0.91097 0.64487 0.05328 0.0
H532 H 0.91825 0.68593 0.15702 0.0
H533 H 0.98494 0.68635 0.1527 0.0
C534 C 0.02494 0.66502 0.09816 0.0
C535 C 0.04215 0.65295 0.06786 0.0
C536 C 0.9866 0.66573 0.10051 0.0
C537 C 0.02051 0.64227 0.03966 0.0
C538 C 0.9825 0.64287 0.04184 0.0
C539 C 0.92709 0.65395 0.07498 0.0
C540 C 0.90965 0.66515 0.10553 0.0
C541 C 0.96528 0.65423 0.07226 0.0
C542 C 0.93098 0.67714 0.1332 0.0
C543 C 0.96913 0.67734 0.13078 0.0
H544 H 0.57729 0.37167 0.55768 0.0
H545 H 0.56541 0.32526 0.65783 0.0
H546 H 0.49907 0.32397 0.64988 0.0
H547 H 0.44435 0.33663 0.61459 0.0
H548 H 0.45738 0.38191 0.51375 0.0
H549 H 0.52334 0.3829 0.5219 0.0
C550 C 0.56023 0.36131 0.57786 0.0
C551 C 0.57629 0.34874 0.6084 0.0
C552 C 0.52228 0.36038 0.57296 0.0
C553 C 0.55376 0.33511 0.63406 0.0
C554 C 0.51582 0.33439 0.62955 0.0
C555 C 0.46164 0.34663 0.59437 0.0
C556 C 0.44585 0.35923 0.56364 0.0
C557 C 0.49976 0.34702 0.59911 0.0
C558 C 0.4687 0.372 0.53764 0.0
C559 C 0.50649 0.37265 0.54229 0.0
H560 H 0.06203 0.32376 0.91613 0.0
H561 H 0.08942 0.41529 0.88552 0.0
H562 H 0.02474 0.42779 0.88067 0.0
H563 H 0.96036 0.4135 0.88769 0.0
H564 H 0.93289 0.3221 0.91875 0.0
H565 H 0.99755 0.30886 0.92067 0.0
C566 C 0.05389 0.34639 0.90816 0.0
C567 C 0.08064 0.36855 0.90137 0.0
C568 C 0.01657 0.35353 0.90562 0.0
C569 C 0.0695 0.39775 0.891 0.0
C570 C 0.03246 0.40498 0.88826 0.0
C571 C 0.96846 0.39063 0.89469 0.0
C572 C 0.94173 0.36892 0.90325 0.0
C573 C 0.00575 0.38316 0.89592 0.0
C574 C 0.95282 0.33934 0.91213 0.0
C575 C 0.98984 0.33172 0.91329 0.0
H576 H 0.56315 0.60844 0.36163 0.0
H577 H 0.584 0.66386 0.45396 0.0
H578 H 0.51858 0.6712 0.46235 0.0
H579 H 0.45541 0.66065 0.44474 0.0
H580 H 0.4343 0.6047 0.35295 0.0
H581 H 0.49983 0.59898 0.34307 0.0
C582 C 0.55342 0.62223 0.38351 0.0
C583 C 0.57852 0.63547 0.40717 0.0
C584 C 0.51568 0.62626 0.38835 0.0
C585 C 0.56536 0.65331 0.43536 0.0
C586 C 0.5279 0.65753 0.44022 0.0
C587 C 0.46509 0.64733 0.42245 0.0
C588 C 0.43991 0.63307 0.39971 0.0
C589 C 0.50281 0.64393 0.41706 0.0
C590 C 0.45303 0.61589 0.37095 0.0
C591 C 0.49053 0.61256 0.36528 0.0
H592 H 0.27898 0.13336 0.19936 0.0
H593 H 0.19524 0.07546 0.15555 0.0
H594 H 0.16807 0.06961 0.21432 0.0
H595 H 0.16758 0.08143 0.27803 0.0
H596 H 0.25108 0.13974 0.3216 0.0
H597 H 0.27879 0.14485 0.26304 0.0
C598 C 0.25484 0.11939 0.20264 0.0
C599 C 0.23919 0.1049 0.17303 0.0
C600 C 0.23925 0.1162 0.23648 0.0
C601 C 0.20785 0.08693 0.17783 0.0
C602 C 0.19227 0.08355 0.21145 0.0
C603 C 0.19188 0.09522 0.27477 0.0
C604 C 0.20717 0.11017 0.30423 0.0
C605 C 0.20766 0.09817 0.24095 0.0
C606 C 0.23868 0.12796 0.29943 0.0
C607 C 0.25458 0.13092 0.26592 0.0
H608 H 0.25154 0.8698 0.802 0.0
H609 H 0.36468 0.88026 0.77211 0.0
H610 H 0.3483 0.87528 0.70962 0.0
H611 H 0.30208 0.86705 0.66341 0.0
H612 H 0.18874 0.85792 0.69306 0.0
H613 H 0.20501 0.8633 0.7556 0.0
C614 C 0.27261 0.87105 0.78182 0.0
C615 C 0.30929 0.87528 0.79179 0.0
C616 C 0.263 0.86834 0.74585 0.0
C617 C 0.33621 0.87705 0.76524 0.0
C618 C 0.3269 0.87413 0.72945 0.0
C619 C 0.28093 0.86621 0.68355 0.0
C620 C 0.24429 0.86192 0.67356 0.0
C621 C 0.29042 0.8696 0.71946 0.0
C622 C 0.21718 0.8612 0.69999 0.0
C623 C 0.22645 0.86424 0.73579 0.0
H624 H 0.7102 0.89857 0.79926 0.0
H625 H 0.72195 0.80214 0.81533 0.0
H626 H 0.7489 0.79687 0.75655 0.0
H627 H 0.77032 0.81952 0.70111 0.0
H628 H 0.75845 0.91578 0.6842 0.0
H629 H 0.73022 0.92114 0.74268 0.0
C630 C 0.7186 0.8764 0.78988 0.0
C631 C 0.71415 0.85082 0.81181 0.0
C632 C 0.73407 0.87345 0.75588 0.0
C633 C 0.72504 0.82224 0.79912 0.0
C634 C 0.74051 0.81917 0.76546 0.0
C635 C 0.7615 0.8417 0.71012 0.0
C636 C 0.76665 0.86721 0.68832 0.0
C637 C 0.74532 0.84462 0.74371 0.0
C638 C 0.75484 0.89574 0.70042 0.0
C639 C 0.73875 0.89884 0.73391 0.0
H640 H 0.76258 0.202 0.2984 0.0
H641 H 0.77864 0.10515 0.30338 0.0
H642 H 0.74982 0.09936 0.24531 0.0
H643 H 0.71982 0.12177 0.19315 0.0
H644 H 0.70348 0.21863 0.18869 0.0
H645 H 0.73261 0.22434 0.2465 0.0
C646 C 0.75986 0.17961 0.28681 0.0
C647 C 0.77281 0.15408 0.30527 0.0
C648 C 0.74314 0.17641 0.25347 0.0
C649 C 0.76893 0.12523 0.2898 0.0
C650 C 0.75243 0.12187 0.25657 0.0
C651 C 0.72262 0.14414 0.20481 0.0
C652 C 0.70944 0.16972 0.18654 0.0
C653 C 0.73939 0.1473 0.23817 0.0
C654 C 0.7133 0.19852 0.20211 0.0
C655 C 0.73 0.20184 0.2352 0.0
H656 H 0.7101 0.63738 0.30714 0.0
H657 H 0.80856 0.59441 0.34514 0.0
H658 H 0.83213 0.59187 0.28463 0.0
H659 H 0.82555 0.60295 0.22112 0.0
H660 H 0.7275 0.64663 0.18322 0.0
H661 H 0.70308 0.64768 0.24348 0.0
C662 C 0.73667 0.62736 0.30221 0.0
C663 C 0.75754 0.61619 0.33071 0.0
C664 C 0.75021 0.62613 0.26734 0.0
C665 C 0.79192 0.60329 0.32376 0.0
C666 C 0.80546 0.60181 0.28913 0.0
C667 C 0.79877 0.61259 0.22597 0.0
C668 C 0.77846 0.62473 0.19763 0.0
C669 C 0.78495 0.61333 0.26075 0.0
C670 C 0.7438 0.63717 0.2045 0.0
C671 C 0.72978 0.6378 0.23898 0.0
H672 H 0.66591 0.39097 0.73517 0.0
H673 H 0.76836 0.37354 0.68227 0.0
H674 H 0.79955 0.3713 0.73944 0.0
H675 H 0.79759 0.37296 0.80453 0.0
H676 H 0.69483 0.38865 0.8576 0.0
H677 H 0.66404 0.39299 0.80034 0.0
C678 C 0.69509 0.38684 0.73613 0.0
C679 C 0.71472 0.38244 0.70444 0.0
C680 C 0.71284 0.3852 0.76915 0.0
C681 C 0.75252 0.37693 0.70622 0.0
C682 C 0.77042 0.37566 0.73892 0.0
C683 C 0.76849 0.3775 0.80359 0.0
C684 C 0.74858 0.38047 0.83534 0.0
C685 C 0.75083 0.37957 0.77057 0.0
C686 C 0.71084 0.38617 0.83359 0.0
C687 C 0.69317 0.38867 0.80084 0.0
H688 H 0.3327 0.38493 0.71798 0.0
H689 H 0.24766 0.34011 0.65835 0.0
H690 H 0.20959 0.33764 0.71141 0.0
H691 H 0.20034 0.34818 0.7747 0.0
H692 H 0.28486 0.39386 0.83412 0.0
H693 H 0.32312 0.39604 0.78116 0.0
C694 C 0.30588 0.37456 0.71659 0.0
C695 C 0.29314 0.36267 0.68424 0.0
C696 C 0.28396 0.3734 0.74716 0.0
C697 C 0.25819 0.34947 0.68289 0.0
C698 C 0.23636 0.34803 0.71323 0.0
C699 C 0.22712 0.35861 0.7761 0.0
C700 C 0.23969 0.37078 0.80837 0.0
C701 C 0.24896 0.35993 0.7455 0.0
C702 C 0.27444 0.38434 0.80963 0.0
C703 C 0.2964 0.38557 0.77935 0.0
H704 H 0.26963 0.69211 0.29708 0.0
H705 H 0.26396 0.59438 0.29982 0.0
H706 H 0.23126 0.59422 0.24334 0.0
H707 H 0.20495 0.62174 0.1928 0.0
H708 H 0.21049 0.7195 0.19032 0.0
H709 H 0.24248 0.71964 0.24712 0.0
C710 C 0.26124 0.67075 0.28537 0.0
C711 C 0.26935 0.64331 0.30266 0.0
C712 C 0.2424 0.6708 0.25292 0.0
C713 C 0.25812 0.61586 0.28711 0.0
C714 C 0.23942 0.61573 0.25478 0.0
C715 C 0.21307 0.6431 0.2047 0.0
C716 C 0.20535 0.67056 0.18724 0.0
C717 C 0.2315 0.64305 0.2374 0.0
C718 C 0.21605 0.69801 0.20312 0.0
C719 C 0.2344 0.69814 0.23562 0.0
loop_
_geom_bond_atom_site_label_1
_geom_bond_atom_site_label_2
_geom_bond_distance
_geom_bond_site_symmetry_2
_ccdc_geom_bond_type
C0 O1 1.160 . S
C0 O7 1.185 . S
O1 C0 1.160 . S
O2 Zn3 1.899 . S
O2 C10 1.284 . S
Zn3 O2 1.899 . S
Zn3 O4 2.032 . S
Zn3 O7 2.086 . S
Zn3 O12 1.977 . S
O4 Zn3 2.032 . S
O4 C8 1.278 . S
C5 O6 1.203 . S
C5 O12 1.267 . S
O6 C5 1.203 . S
O7 C0 1.185 . S
O7 Zn3 2.086 . S
C8 O4 1.278 . S
C8 O9 1.211 . S
O9 C8 1.211 . S
C10 O2 1.284 . S
C10 O11 1.273 . S
O11 C10 1.273 . S
O12 Zn3 1.977 . S
O12 C5 1.267 . S
C13 O14 1.160 . S
C13 O20 1.185 . S
O14 C13 1.160 . S
O15 Zn16 1.899 . S
O15 C23 1.284 . S
Zn16 O15 1.899 . S
Zn16 O17 2.032 . S
Zn16 O20 2.086 . S
Zn16 O25 1.977 . S
O17 Zn16 2.032 . S
O17 C21 1.278 . S
C18 O19 1.203 . S
C18 O25 1.267 . S
O19 C18 1.203 . S
O20 C13 1.185 . S
O20 Zn16 2.086 . S
C21 O17 1.278 . S
C21 O22 1.211 . S
O22 C21 1.211 . S
C23 O15 1.284 . S
C23 O24 1.273 . S
O24 C23 1.273 . S
O25 Zn16 1.977 . S
O25 C18 1.267 . S
C26 O27 1.160 . S
C26 O33 1.185 . S
O27 C26 1.160 . S
O28 Zn29 1.899 . S
O28 C36 1.284 . S
Zn29 O28 1.899 . S
Zn29 O30 2.032 . S
Zn29 O33 2.086 . S
Zn29 O38 1.977 . S
O30 Zn29 2.032 . S
O30 C34 1.278 . S
C31 O32 1.203 . S
C31 O38 1.267 . S
O32 C31 1.203 . S
O33 C26 1.185 . S
O33 Zn29 2.086 . S
C34 O30 1.278 . S
C34 O35 1.211 . S
O35 C34 1.211 . S
C36 O28 1.284 . S
C36 O37 1.273 . S
O37 C36 1.273 . S
O38 Zn29 1.977 . S
O38 C31 1.267 . S
C39 O40 1.160 . S
C39 O46 1.185 . S
O40 C39 1.160 . S
O41 Zn42 1.899 . S
O41 C49 1.284 . S
Zn42 O41 1.899 . S
Zn42 O43 2.032 . S
Zn42 O46 2.086 . S
Zn42 O51 1.977 . S
O43 Zn42 2.032 . S
O43 C47 1.278 . S
C44 O45 1.203 . S
C44 O51 1.267 . S
O45 C44 1.203 . S
O46 C39 1.185 . S
O46 Zn42 2.086 . S
C47 O43 1.278 . S
C47 O48 1.211 . S
O48 C47 1.211 . S
C49 O41 1.284 . S
C49 O50 1.273 . S
O50 C49 1.273 . S
O51 Zn42 1.977 . S
O51 C44 1.267 . S
C52 O53 1.160 . S
C52 O59 1.185 . S
O53 C52 1.160 . S
O54 Zn55 1.899 . S
O54 C62 1.284 . S
Zn55 O54 1.899 . S
Zn55 O56 2.032 . S
Zn55 O59 2.086 . S
Zn55 O64 1.977 . S
O56 Zn55 2.032 . S
O56 C60 1.278 . S
C57 O58 1.203 . S
C57 O64 1.267 . S
O58 C57 1.203 . S
O59 C52 1.185 . S
O59 Zn55 2.086 . S
C60 O56 1.278 . S
C60 O61 1.211 . S
O61 C60 1.211 . S
C62 O54 1.284 . S
C62 O63 1.273 . S
O63 C62 1.273 . S
O64 Zn55 1.977 . S
O64 C57 1.267 . S
C65 O66 1.160 . S
C65 O72 1.185 . S
O66 C65 1.160 . S
O67 Zn68 1.899 . S
O67 C75 1.284 . S
Zn68 O67 1.899 . S
Zn68 O69 2.032 . S
Zn68 O72 2.086 . S
Zn68 O77 1.977 . S
O69 Zn68 2.032 . S
O69 C73 1.278 . S
C70 O71 1.203 . S
C70 O77 1.267 . S
O71 C70 1.203 . S
O72 C65 1.185 . S
O72 Zn68 2.086 . S
C73 O69 1.278 . S
C73 O74 1.211 . S
O74 C73 1.211 . S
C75 O67 1.284 . S
C75 O76 1.273 . S
O76 C75 1.273 . S
O77 Zn68 1.977 . S
O77 C70 1.267 . S
C78 O79 1.160 . S
C78 O85 1.185 . S
O79 C78 1.160 . S
O80 Zn81 1.899 . S
O80 C88 1.284 . S
Zn81 O80 1.899 . S
Zn81 O82 2.032 . S
Zn81 O85 2.086 . S
Zn81 O90 1.977 . S
O82 Zn81 2.032 . S
O82 C86 1.278 . S
C83 O84 1.203 . S
C83 O90 1.267 . S
O84 C83 1.203 . S
O85 C78 1.185 . S
O85 Zn81 2.086 . S
C86 O82 1.278 . S
C86 O87 1.211 . S
O87 C86 1.211 . S
C88 O80 1.284 . S
C88 O89 1.273 . S
O89 C88 1.273 . S
O90 Zn81 1.977 . S
O90 C83 1.267 . S
C91 O92 1.160 . S
C91 O98 1.185 . S
O92 C91 1.160 . S
O93 Zn94 1.899 . S
O93 C101 1.284 . S
Zn94 O93 1.899 . S
Zn94 O95 2.032 . S
Zn94 O98 2.086 . S
Zn94 O103 1.977 . S
O95 Zn94 2.032 . S
O95 C99 1.278 . S
C96 O97 1.203 . S
C96 O103 1.267 . S
O97 C96 1.203 . S
O98 C91 1.185 . S
O98 Zn94 2.086 . S
C99 O95 1.278 . S
C99 O100 1.211 . S
O100 C99 1.211 . S
C101 O93 1.284 . S
C101 O102 1.273 . S
O102 C101 1.273 . S
O103 Zn94 1.977 . S
O103 C96 1.267 . S
C104 O105 1.160 . S
C104 O111 1.185 . S
O105 C104 1.160 . S
O106 Zn107 1.899 . S
O106 C114 1.284 . S
Zn107 O106 1.899 . S
Zn107 O108 2.032 . S
Zn107 O111 2.086 . S
Zn107 O116 1.977 . S
O108 Zn107 2.032 . S
O108 C112 1.278 . S
C109 O110 1.203 . S
C109 O116 1.267 . S
O110 C109 1.203 . S
O111 C104 1.185 . S
O111 Zn107 2.086 . S
C112 O108 1.278 . S
C112 O113 1.211 . S
O113 C112 1.211 . S
C114 O106 1.284 . S
C114 O115 1.273 . S
O115 C114 1.273 . S
O116 Zn107 1.977 . S
O116 C109 1.267 . S
C117 O118 1.160 . S
C117 O124 1.185 . S
O118 C117 1.160 . S
O119 Zn120 1.899 . S
O119 C127 1.284 . S
Zn120 O119 1.899 . S
Zn120 O121 2.032 . S
Zn120 O124 2.086 . S
Zn120 O129 1.977 . S
O121 Zn120 2.032 . S
O121 C125 1.278 . S
C122 O123 1.203 . S
C122 O129 1.267 . S
O123 C122 1.203 . S
O124 C117 1.185 . S
O124 Zn120 2.086 . S
C125 O121 1.278 . S
C125 O126 1.211 . S
O126 C125 1.211 . S
C127 O119 1.284 . S
C127 O128 1.273 . S
O128 C127 1.273 . S
O129 Zn120 1.977 . S
O129 C122 1.267 . S
C130 O131 1.160 . S
C130 O137 1.185 . S
O131 C130 1.160 . S
O132 Zn133 1.899 . S
O132 C140 1.284 . S
Zn133 O132 1.899 . S
Zn133 O134 2.032 . S
Zn133 O137 2.086 . S
Zn133 O142 1.977 . S
O134 Zn133 2.032 . S
O134 C138 1.278 . S
C135 O136 1.203 . S
C135 O142 1.267 . S
O136 C135 1.203 . S
O137 C130 1.185 . S
O137 Zn133 2.086 . S
C138 O134 1.278 . S
C138 O139 1.211 . S
O139 C138 1.211 . S
C140 O132 1.284 . S
C140 O141 1.273 . S
O141 C140 1.273 . S
O142 Zn133 1.977 . S
O142 C135 1.267 . S
C143 O144 1.160 . S
C143 O150 1.185 . S
O144 C143 1.160 . S
O145 Zn146 1.899 . S
O145 C153 1.284 . S
Zn146 O145 1.899 . S
Zn146 O147 2.032 . S
Zn146 O150 2.086 . S
Zn146 O155 1.977 . S
O147 Zn146 2.032 . S
O147 C151 1.278 . S
C148 O149 1.203 . S
C148 O155 1.267 . S
O149 C148 1.203 . S
O150 C143 1.185 . S
O150 Zn146 2.086 . S
C151 O147 1.278 . S
C151 O152 1.211 . S
O152 C151 1.211 . S
C153 O145 1.284 . S
C153 O154 1.273 . S
O154 C153 1.273 . S
O155 Zn146 1.977 . S
O155 C148 1.267 . S
C156 O157 1.160 . S
C156 O163 1.185 . S
O157 C156 1.160 . S
O158 Zn159 1.899 . S
O158 C166 1.284 . S
Zn159 O158 1.899 . S
Zn159 O160 2.032 . S
Zn159 O163 2.086 . S
Zn159 O168 1.977 . S
O160 Zn159 2.032 . S
O160 C164 1.278 . S
C161 O162 1.203 . S
C161 O168 1.267 . S
O162 C161 1.203 . S
O163 C156 1.185 . S
O163 Zn159 2.086 . S
C164 O160 1.278 . S
C164 O165 1.211 . S
O165 C164 1.211 . S
C166 O158 1.284 . S
C166 O167 1.273 . S
O167 C166 1.273 . S
O168 Zn159 1.977 . S
O168 C161 1.267 . S
C169 O170 1.160 . S
C169 O176 1.185 . S
O170 C169 1.160 . S
O171 Zn172 1.899 . S
O171 C179 1.284 . S
Zn172 O171 1.899 . S
Zn172 O173 2.032 . S
Zn172 O176 2.086 . S
Zn172 O181 1.977 . S
O173 Zn172 2.032 . S
O173 C177 1.278 . S
C174 O175 1.203 . S
C174 O181 1.267 . S
O175 C174 1.203 . S
O176 C169 1.185 . S
O176 Zn172 2.086 . S
C177 O173 1.278 . S
C177 O178 1.211 . S
O178 C177 1.211 . S
C179 O171 1.284 . S
C179 O180 1.273 . S
O180 C179 1.273 . S
O181 Zn172 1.977 . S
O181 C174 1.267 . S
C182 O183 1.160 . S
C182 O189 1.185 . S
O183 C182 1.160 . S
O184 Zn185 1.899 . S
O184 C192 1.284 . S
Zn185 O184 1.899 . S
Zn185 O186 2.032 . S
Zn185 O189 2.086 . S
Zn185 O194 1.977 . S
O186 Zn185 2.032 . S
O186 C190 1.278 . S
C187 O188 1.203 . S
C187 O194 1.267 . S
O188 C187 1.203 . S
O189 C182 1.185 . S
O189 Zn185 2.086 . S
C190 O186 1.278 . S
C190 O191 1.211 . S
O191 C190 1.211 . S
C192 O184 1.284 . S
C192 O193 1.273 . S
O193 C192 1.273 . S
O194 Zn185 1.977 . S
O194 C187 1.267 . S
C195 O196 1.160 . S
C195 O202 1.185 . S
O196 C195 1.160 . S
O197 Zn198 1.899 . S
O197 C205 1.284 . S
Zn198 O197 1.899 . S
Zn198 O199 2.032 . S
Zn198 O202 2.086 . S
Zn198 O207 1.977 . S
O199 Zn198 2.032 . S
O199 C203 1.278 . S
C200 O201 1.203 . S
C200 O207 1.267 . S
O201 C200 1.203 . S
O202 C195 1.185 . S
O202 Zn198 2.086 . S
C203 O199 1.278 . S
C203 O204 1.211 . S
O204 C203 1.211 . S
C205 O197 1.284 . S
C205 O206 1.273 . S
O206 C205 1.273 . S
O207 Zn198 1.977 . S
O207 C200 1.267 . S
H208 C214 0.930 1_556 S
H209 C217 0.930 . S
H210 C218 0.930 . S
H211 C219 0.930 1_554 S
H212 C222 0.930 . S
H213 C223 0.930 . S
C214 H208 0.930 1_554 S
C214 C215 1.355 . S
C214 C216 1.415 1_554 S
C215 C214 1.355 . S
C215 C217 1.419 . S
C216 C214 1.415 1_556 S
C216 C221 1.425 1_556 S
C216 C223 1.409 . S
C217 H209 0.930 . S
C217 C215 1.419 . S
C217 C218 1.362 . S
C218 H210 0.930 . S
C218 C217 1.362 . S
C218 C221 1.409 . S
C219 H211 0.930 1_556 S
C219 C220 1.355 . S
C219 C221 1.415 1_556 S
C220 C219 1.355 . S
C220 C222 1.419 . S
C221 C216 1.425 1_554 S
C221 C218 1.409 . S
C221 C219 1.415 1_554 S
C222 H212 0.930 . S
C222 C220 1.419 . S
C222 C223 1.362 . S
C223 H213 0.930 . S
C223 C216 1.409 . S
C223 C222 1.362 . S
H224 C230 0.930 . S
H225 C233 0.930 . S
H226 C234 0.930 . S
H227 C235 0.930 . S
H228 C238 0.930 . S
H229 C239 0.930 . S
C230 H224 0.930 . S
C230 C231 1.355 . S
C230 C232 1.415 . S
C231 C230 1.355 . S
C231 C233 1.419 . S
C232 C230 1.415 . S
C232 C237 1.425 . S
C232 C239 1.409 . S
C233 H225 0.930 . S
C233 C231 1.419 . S
C233 C234 1.362 . S
C234 H226 0.930 . S
C234 C233 1.362 . S
C234 C237 1.409 . S
C235 H227 0.930 . S
C235 C236 1.355 . S
C235 C237 1.415 . S
C236 C235 1.355 . S
C236 C238 1.419 . S
C237 C232 1.425 . S
C237 C234 1.409 . S
C237 C235 1.415 . S
C238 H228 0.930 . S
C238 C236 1.419 . S
C238 C239 1.362 . S
C239 H229 0.930 . S
C239 C232 1.409 . S
C239 C238 1.362 . S
H240 C246 0.930 . S
H241 C249 0.930 . S
H242 C250 0.930 . S
H243 C251 0.930 . S
H244 C254 0.930 . S
H245 C255 0.930 . S
C246 H240 0.930 . S
C246 C247 1.355 . S
C246 C248 1.415 . S
C247 C246 1.355 . S
C247 C249 1.419 . S
C248 C246 1.415 . S
C248 C253 1.425 1_556 S
C248 C255 1.409 . S
C249 H241 0.930 . S
C249 C247 1.419 . S
C249 C250 1.362 1_556 S
C250 H242 0.930 . S
C250 C249 1.362 1_554 S
C250 C253 1.409 . S
C251 H243 0.930 . S
C251 C252 1.355 . S
C251 C253 1.415 . S
C252 C251 1.355 . S
C252 C254 1.419 . S
C253 C248 1.425 1_554 S
C253 C250 1.409 . S
C253 C251 1.415 . S
C254 H244 0.930 . S
C254 C252 1.419 . S
C254 C255 1.362 1_554 S
C255 H245 0.930 . S
C255 C248 1.409 . S
C255 C254 1.362 1_556 S
H256 C262 0.930 . S
H257 C265 0.930 . S
H258 C266 0.930 . S
H259 C267 0.930 . S
H260 C270 0.930 . S
H261 C271 0.930 . S
C262 H256 0.930 . S
C262 C263 1.355 . S
C262 C264 1.415 . S
C263 C262 1.355 . S
C263 C265 1.419 . S
C264 C262 1.415 . S
C264 C269 1.425 . S
C264 C271 1.409 . S
C265 H257 0.930 . S
C265 C263 1.419 . S
C265 C266 1.362 . S
C266 H258 0.930 . S
C266 C265 1.362 . S
C266 C269 1.409 . S
C267 H259 0.930 . S
C267 C268 1.355 . S
C267 C269 1.415 . S
C268 C267 1.355 . S
C268 C270 1.419 . S
C269 C264 1.425 . S
C269 C266 1.409 . S
C269 C267 1.415 . S
C270 H260 0.930 . S
C270 C268 1.419 . S
C270 C271 1.362 . S
C271 H261 0.930 . S
C271 C264 1.409 . S
C271 C270 1.362 . S
H272 C278 0.930 . S
H273 C281 0.930 . S
H274 C282 0.930 . S
H275 C283 0.930 . S
H276 C286 0.930 . S
H277 C287 0.930 . S
C278 H272 0.930 . S
C278 C279 1.355 . S
C278 C280 1.415 . S
C279 C278 1.355 . S
C279 C281 1.419 . S
C280 C278 1.415 . S
C280 C285 1.425 1_554 S
C280 C287 1.409 . S
C281 H273 0.930 . S
C281 C279 1.419 . S
C281 C282 1.362 1_554 S
C282 H274 0.930 . S
C282 C281 1.362 1_556 S
C282 C285 1.409 . S
C283 H275 0.930 . S
C283 C284 1.355 . S
C283 C285 1.415 . S
C284 C283 1.355 . S
C284 C286 1.419 . S
C285 C280 1.425 1_556 S
C285 C282 1.409 . S
C285 C283 1.415 . S
C286 H276 0.930 . S
C286 C284 1.419 . S
C286 C287 1.362 1_556 S
C287 H277 0.930 . S
C287 C280 1.409 . S
C287 C286 1.362 1_554 S
H288 C294 0.930 . S
H289 C297 0.930 . S
H290 C298 0.930 . S
H291 C299 0.930 . S
H292 C302 0.930 . S
H293 C303 0.930 . S
C294 H288 0.930 . S
C294 C295 1.355 . S
C294 C296 1.415 . S
C295 C294 1.355 . S
C295 C297 1.419 . S
C296 C294 1.415 . S
C296 C301 1.425 . S
C296 C303 1.409 . S
C297 H289 0.930 . S
C297 C295 1.419 . S
C297 C298 1.362 . S
C298 H290 0.930 . S
C298 C297 1.362 . S
C298 C301 1.409 . S
C299 H291 0.930 . S
C299 C300 1.355 . S
C299 C301 1.415 . S
C300 C299 1.355 . S
C300 C302 1.419 . S
C301 C296 1.425 . S
C301 C298 1.409 . S
C301 C299 1.415 . S
C302 H292 0.930 . S
C302 C300 1.419 . S
C302 C303 1.362 . S
C303 H293 0.930 . S
C303 C296 1.409 . S
C303 C302 1.362 . S
H304 C310 0.930 . S
H305 C313 0.930 . S
H306 C314 0.930 . S
H307 C315 0.930 . S
H308 C318 0.930 . S
H309 C319 0.930 . S
C310 H304 0.930 . S
C310 C311 1.355 . S
C310 C312 1.415 1_556 S
C311 C310 1.355 . S
C311 C313 1.419 . S
C312 C310 1.415 1_554 S
C312 C317 1.425 1_554 S
C312 C319 1.409 . S
C313 H305 0.930 . S
C313 C311 1.419 . S
C313 C314 1.362 . S
C314 H306 0.930 . S
C314 C313 1.362 . S
C314 C317 1.409 . S
C315 H307 0.930 . S
C315 C316 1.355 . S
C315 C317 1.415 1_554 S
C316 C315 1.355 . S
C316 C318 1.419 . S
C317 C312 1.425 1_556 S
C317 C314 1.409 . S
C317 C315 1.415 1_556 S
C318 H308 0.930 . S
C318 C316 1.419 . S
C318 C319 1.362 . S
C319 H309 0.930 . S
C319 C312 1.409 . S
C319 C318 1.362 . S
H320 C326 0.930 . S
H321 C329 0.930 . S
H322 C330 0.930 . S
H323 C331 0.930 . S
H324 C334 0.930 . S
H325 C335 0.930 . S
C326 H320 0.930 . S
C326 C327 1.355 . S
C326 C328 1.415 . S
C327 C326 1.355 . S
C327 C329 1.419 . S
C328 C326 1.415 . S
C328 C333 1.425 . S
C328 C335 1.409 . S
C329 H321 0.930 . S
C329 C327 1.419 . S
C329 C330 1.362 . S
C330 H322 0.930 . S
C330 C329 1.362 . S
C330 C333 1.409 . S
C331 H323 0.930 . S
C331 C332 1.355 . S
C331 C333 1.415 . S
C332 C331 1.355 . S
C332 C334 1.419 . S
C333 C328 1.425 . S
C333 C330 1.409 . S
C333 C331 1.415 . S
C334 H324 0.930 . S
C334 C332 1.419 . S
C334 C335 1.362 . S
C335 H325 0.930 . S
C335 C328 1.409 . S
C335 C334 1.362 . S
H336 C342 0.930 1_556 S
H337 C345 0.930 . S
H338 C346 0.930 . S
H339 C347 0.930 1_554 S
H340 C350 0.930 . S
H341 C351 0.930 . S
C342 H336 0.930 1_554 S
C342 C343 1.355 . S
C342 C344 1.415 1_554 S
C343 C342 1.355 . S
C343 C345 1.419 . S
C344 C342 1.415 1_556 S
C344 C349 1.425 1_546 S
C344 C351 1.409 . S
C345 H337 0.930 . S
C345 C343 1.419 . S
C345 C346 1.362 1_545 S
C346 H338 0.930 . S
C346 C345 1.362 1_565 S
C346 C349 1.409 . S
C347 H339 0.930 1_556 S
C347 C348 1.355 . S
C347 C349 1.415 1_556 S
C348 C347 1.355 . S
C348 C350 1.419 . S
C349 C344 1.425 1_564 S
C349 C346 1.409 . S
C349 C347 1.415 1_554 S
C350 H340 0.930 . S
C350 C348 1.419 . S
C350 C351 1.362 1_565 S
C351 H341 0.930 . S
C351 C344 1.409 . S
C351 C350 1.362 1_545 S
H352 C358 0.930 . S
H353 C361 0.930 . S
H354 C362 0.930 . S
H355 C363 0.930 . S
H356 C366 0.930 . S
H357 C367 0.930 . S
C358 H352 0.930 . S
C358 C359 1.355 . S
C358 C360 1.415 . S
C359 C358 1.355 . S
C359 C361 1.419 . S
C360 C358 1.415 . S
C360 C365 1.425 1_565 S
C360 C367 1.409 . S
C361 H353 0.930 . S
C361 C359 1.419 . S
C361 C362 1.362 1_565 S
C362 H354 0.930 . S
C362 C361 1.362 1_545 S
C362 C365 1.409 . S
C363 H355 0.930 . S
C363 C364 1.355 . S
C363 C365 1.415 . S
C364 C363 1.355 . S
C364 C366 1.419 . S
C365 C360 1.425 1_545 S
C365 C362 1.409 . S
C365 C363 1.415 . S
C366 H356 0.930 . S
C366 C364 1.419 . S
C366 C367 1.362 1_545 S
C367 H357 0.930 . S
C367 C360 1.409 . S
C367 C366 1.362 1_565 S
H368 C374 0.930 . S
H369 C377 0.930 . S
H370 C378 0.930 . S
H371 C379 0.930 . S
H372 C382 0.930 . S
H373 C383 0.930 . S
C374 H368 0.930 . S
C374 C375 1.355 . S
C374 C376 1.415 1_565 S
C375 C374 1.355 . S
C375 C377 1.419 1_556 S
C376 C374 1.415 1_545 S
C376 C381 1.425 1_546 S
C376 C383 1.409 . S
C377 H369 0.930 . S
C377 C375 1.419 1_554 S
C377 C378 1.362 . S
C378 H370 0.930 . S
C378 C377 1.362 . S
C378 C381 1.409 . S
C379 H371 0.930 . S
C379 C380 1.355 . S
C379 C381 1.415 1_545 S
C380 C379 1.355 . S
C380 C382 1.419 1_554 S
C381 C376 1.425 1_564 S
C381 C378 1.409 . S
C381 C379 1.415 1_565 S
C382 H372 0.930 . S
C382 C380 1.419 1_556 S
C382 C383 1.362 . S
C383 H373 0.930 . S
C383 C376 1.409 . S
C383 C382 1.362 . S
H384 C390 0.930 . S
H385 C393 0.930 . S
H386 C394 0.930 . S
H387 C395 0.930 . S
H388 C398 0.930 . S
H389 C399 0.930 . S
C390 H384 0.930 . S
C390 C391 1.355 . S
C390 C392 1.415 . S
C391 C390 1.355 . S
C391 C393 1.419 . S
C392 C390 1.415 . S
C392 C397 1.425 1_545 S
C392 C399 1.409 1_545 S
C393 H385 0.930 . S
C393 C391 1.419 . S
C393 C394 1.362 . S
C394 H386 0.930 . S
C394 C393 1.362 . S
C394 C397 1.409 1_545 S
C395 H387 0.930 . S
C395 C396 1.355 . S
C395 C397 1.415 . S
C396 C395 1.355 . S
C396 C398 1.419 . S
C397 C392 1.425 1_565 S
C397 C394 1.409 1_565 S
C397 C395 1.415 . S
C398 H388 0.930 . S
C398 C396 1.419 . S
C398 C399 1.362 . S
C399 H389 0.930 . S
C399 C392 1.409 1_565 S
C399 C398 1.362 . S
H400 C406 0.930 . S
H401 C409 0.930 . S
H402 C410 0.930 . S
H403 C411 0.930 . S
H404 C414 0.930 . S
H405 C415 0.930 . S
C406 H400 0.930 . S
C406 C407 1.355 . S
C406 C408 1.415 . S
C407 C406 1.355 . S
C407 C409 1.419 1_556 S
C408 C406 1.415 . S
C408 C413 1.425 1_556 S
C408 C415 1.409 . S
C409 H401 0.930 . S
C409 C407 1.419 1_554 S
C409 C410 1.362 . S
C410 H402 0.930 . S
C410 C409 1.362 . S
C410 C413 1.409 . S
C411 H403 0.930 . S
C411 C412 1.355 . S
C411 C413 1.415 . S
C412 C411 1.355 . S
C412 C414 1.419 1_554 S
C413 C408 1.425 1_554 S
C413 C410 1.409 . S
C413 C411 1.415 . S
C414 H404 0.930 . S
C414 C412 1.419 1_556 S
C414 C415 1.362 . S
C415 H405 0.930 . S
C415 C408 1.409 . S
C415 C414 1.362 . S
H416 C422 0.930 . S
H417 C425 0.930 . S
H418 C426 0.930 . S
H419 C427 0.930 . S
H420 C430 0.930 . S
H421 C431 0.930 . S
C422 H416 0.930 . S
C422 C423 1.355 . S
C422 C424 1.415 . S
C423 C422 1.355 . S
C423 C425 1.419 . S
C424 C422 1.415 . S
C424 C429 1.425 . S
C424 C431 1.409 . S
C425 H417 0.930 . S
C425 C423 1.419 . S
C425 C426 1.362 . S
C426 H418 0.930 . S
C426 C425 1.362 . S
C426 C429 1.409 . S
C427 H419 0.930 . S
C427 C428 1.355 . S
C427 C429 1.415 . S
C428 C427 1.355 . S
C428 C430 1.419 . S
C429 C424 1.425 . S
C429 C426 1.409 . S
C429 C427 1.415 . S
C430 H420 0.930 . S
C430 C428 1.419 . S
C430 C431 1.362 . S
C431 H421 0.930 . S
C431 C424 1.409 . S
C431 C430 1.362 . S
H432 C438 0.930 . S
H433 C441 0.930 . S
H434 C442 0.930 . S
H435 C443 0.930 . S
H436 C446 0.930 . S
H437 C447 0.930 . S
C438 H432 0.930 . S
C438 C439 1.355 1_556 S
C438 C440 1.415 . S
C439 C438 1.355 1_554 S
C439 C441 1.419 . S
C440 C438 1.415 . S
C440 C445 1.425 1_556 S
C440 C447 1.409 . S
C441 H433 0.930 . S
C441 C439 1.419 . S
C441 C442 1.362 . S
C442 H434 0.930 . S
C442 C441 1.362 . S
C442 C445 1.409 . S
C443 H435 0.930 . S
C443 C444 1.355 1_554 S
C443 C445 1.415 . S
C444 C443 1.355 1_556 S
C444 C446 1.419 . S
C445 C440 1.425 1_554 S
C445 C442 1.409 . S
C445 C443 1.415 . S
C446 H436 0.930 . S
C446 C444 1.419 . S
C446 C447 1.362 . S
C447 H437 0.930 . S
C447 C440 1.409 . S
C447 C446 1.362 . S
H448 C454 0.930 . S
H449 C457 0.930 . S
H450 C458 0.930 . S
H451 C459 0.930 . S
H452 C462 0.930 . S
H453 C463 0.930 . S
C454 H448 0.930 . S
C454 C455 1.355 . S
C454 C456 1.415 . S
C455 C454 1.355 . S
C455 C457 1.419 . S
C456 C454 1.415 . S
C456 C461 1.425 . S
C456 C463 1.409 . S
C457 H449 0.930 . S
C457 C455 1.419 . S
C457 C458 1.362 . S
C458 H450 0.930 . S
C458 C457 1.362 . S
C458 C461 1.409 . S
C459 H451 0.930 . S
C459 C460 1.355 . S
C459 C461 1.415 . S
C460 C459 1.355 . S
C460 C462 1.419 . S
C461 C456 1.425 . S
C461 C458 1.409 . S
C461 C459 1.415 . S
C462 H452 0.930 . S
C462 C460 1.419 . S
C462 C463 1.362 . S
C463 H453 0.930 . S
C463 C456 1.409 . S
C463 C462 1.362 . S
H464 C470 0.930 . S
H465 C473 0.930 . S
H466 C474 0.930 . S
H467 C475 0.930 . S
H468 C478 0.930 . S
H469 C479 0.930 . S
C470 H464 0.930 . S
C470 C471 1.355 . S
C470 C472 1.415 . S
C471 C470 1.355 . S
C471 C473 1.419 . S
C472 C470 1.415 . S
C472 C477 1.425 . S
C472 C479 1.409 . S
C473 H465 0.930 . S
C473 C471 1.419 . S
C473 C474 1.362 . S
C474 H466 0.930 . S
C474 C473 1.362 . S
C474 C477 1.409 . S
C475 H467 0.930 . S
C475 C476 1.355 . S
C475 C477 1.415 . S
C476 C475 1.355 . S
C476 C478 1.419 . S
C477 C472 1.425 . S
C477 C474 1.409 . S
C477 C475 1.415 . S
C478 H468 0.930 . S
C478 C476 1.419 . S
C478 C479 1.362 . S
C479 H469 0.930 . S
C479 C472 1.409 . S
C479 C478 1.362 . S
H480 C486 0.930 . S
H481 C489 0.930 . S
H482 C490 0.930 . S
H483 C491 0.930 . S
H484 C494 0.930 . S
H485 C495 0.930 . S
C486 H480 0.930 . S
C486 C487 1.355 . S
C486 C488 1.403 1_655 S
C487 C486 1.355 . S
C487 C489 1.419 . S
C488 C486 1.403 1_455 S
C488 C493 1.429 . S
C488 C495 1.417 . S
C489 H481 0.930 . S
C489 C487 1.419 . S
C489 C490 1.362 . S
C490 H482 0.930 . S
C490 C489 1.362 . S
C490 C493 1.409 1_655 S
C491 H483 0.930 . S
C491 C492 1.355 . S
C491 C493 1.415 . S
C492 C491 1.355 . S
C492 C494 1.419 . S
C493 C488 1.429 . S
C493 C490 1.409 1_455 S
C493 C491 1.415 . S
C494 H484 0.930 . S
C494 C492 1.419 . S
C494 C495 1.362 . S
C495 H485 0.930 . S
C495 C488 1.417 . S
C495 C494 1.362 . S
H496 C502 0.930 . S
H497 C505 0.930 . S
H498 C506 0.930 . S
H499 C507 0.930 . S
H500 C510 0.930 . S
H501 C511 0.930 . S
C502 H496 0.930 . S
C502 C503 1.355 . S
C502 C504 1.415 . S
C503 C502 1.355 . S
C503 C505 1.419 . S
C504 C502 1.415 . S
C504 C509 1.425 . S
C504 C511 1.409 . S
C505 H497 0.930 . S
C505 C503 1.419 . S
C505 C506 1.362 . S
C506 H498 0.930 . S
C506 C505 1.362 . S
C506 C509 1.409 . S
C507 H499 0.930 . S
C507 C508 1.355 . S
C507 C509 1.415 . S
C508 C507 1.355 . S
C508 C510 1.419 . S
C509 C504 1.425 . S
C509 C506 1.409 . S
C509 C507 1.415 . S
C510 H500 0.930 . S
C510 C508 1.419 . S
C510 C511 1.362 . S
C511 H501 0.930 . S
C511 C504 1.409 . S
C511 C510 1.362 . S
H512 C518 0.930 . S
H513 C521 0.930 . S
H514 C522 0.930 . S
H515 C523 0.930 . S
H516 C526 0.930 . S
H517 C527 0.930 . S
C518 H512 0.930 . S
C518 C519 1.355 . S
C518 C520 1.415 . S
C519 C518 1.355 . S
C519 C521 1.419 . S
C520 C518 1.415 . S
C520 C525 1.436 . S
C520 C527 1.409 1_455 S
C521 H513 0.930 . S
C521 C519 1.419 . S
C521 C522 1.362 . S
C522 H514 0.930 . S
C522 C521 1.362 . S
C522 C525 1.432 . S
C523 H515 0.930 . S
C523 C524 1.355 . S
C523 C525 1.382 1_655 S
C524 C523 1.355 . S
C524 C526 1.419 . S
C525 C520 1.436 . S
C525 C522 1.432 . S
C525 C523 1.382 1_455 S
C526 H516 0.930 . S
C526 C524 1.419 . S
C526 C527 1.362 . S
C527 H517 0.930 . S
C527 C520 1.409 1_655 S
C527 C526 1.362 . S
H528 C534 0.930 . S
H529 C537 0.930 . S
H530 C538 0.930 . S
H531 C539 0.930 . S
H532 C542 0.930 . S
H533 C543 0.930 . S
C534 H528 0.930 . S
C534 C535 1.355 . S
C534 C536 1.415 1_455 S
C535 C534 1.355 . S
C535 C537 1.419 . S
C536 C534 1.415 1_655 S
C536 C541 1.425 . S
C536 C543 1.409 . S
C537 H529 0.930 . S
C537 C535 1.419 . S
C537 C538 1.362 . S
C538 H530 0.930 . S
C538 C537 1.362 . S
C538 C541 1.409 1_455 S
C539 H531 0.930 . S
C539 C540 1.355 . S
C539 C541 1.415 . S
C540 C539 1.355 . S
C540 C542 1.419 . S
C541 C536 1.425 . S
C541 C538 1.409 1_655 S
C541 C539 1.415 . S
C542 H532 0.930 . S
C542 C540 1.419 . S
C542 C543 1.362 . S
C543 H533 0.930 . S
C543 C536 1.409 . S
C543 C542 1.362 . S
H544 C550 0.930 . S
H545 C553 0.930 . S
H546 C554 0.930 . S
H547 C555 0.930 . S
H548 C558 0.930 . S
H549 C559 0.930 . S
C550 H544 0.930 . S
C550 C551 1.355 . S
C550 C552 1.415 . S
C551 C550 1.355 . S
C551 C553 1.419 . S
C552 C550 1.415 . S
C552 C557 1.425 . S
C552 C559 1.409 . S
C553 H545 0.930 . S
C553 C551 1.419 . S
C553 C554 1.362 . S
C554 H546 0.930 . S
C554 C553 1.362 . S
C554 C557 1.409 . S
C555 H547 0.930 . S
C555 C556 1.355 . S
C555 C557 1.415 . S
C556 C555 1.355 . S
C556 C558 1.419 . S
C557 C552 1.425 . S
C557 C554 1.409 . S
C557 C555 1.415 . S
C558 H548 0.930 . S
C558 C556 1.419 . S
C558 C559 1.362 . S
C559 H549 0.930 . S
C559 C552 1.409 . S
C559 C558 1.362 . S
H560 C566 0.930 . S
H561 C569 0.930 . S
H562 C570 0.930 . S
H563 C571 0.930 . S
H564 C574 0.930 . S
H565 C575 0.930 . S
C566 H560 0.930 . S
C566 C567 1.355 . S
C566 C568 1.401 1_455 S
C567 C566 1.355 . S
C567 C569 1.419 . S
C568 C566 1.401 1_655 S
C568 C573 1.430 . S
C568 C575 1.418 . S
C569 H561 0.930 . S
C569 C567 1.419 . S
C569 C570 1.362 . S
C570 H562 0.930 . S
C570 C569 1.362 . S
C570 C573 1.409 1_455 S
C571 H563 0.930 . S
C571 C572 1.355 . S
C571 C573 1.415 . S
C572 C571 1.355 . S
C572 C574 1.419 . S
C573 C568 1.430 . S
C573 C570 1.409 1_655 S
C573 C571 1.415 . S
C574 H564 0.930 . S
C574 C572 1.419 . S
C574 C575 1.362 . S
C575 H565 0.930 . S
C575 C568 1.418 . S
C575 C574 1.362 . S
H576 C582 0.930 . S
H577 C585 0.930 . S
H578 C586 0.930 . S
H579 C587 0.930 . S
H580 C590 0.930 . S
H581 C591 0.930 . S
C582 H576 0.930 . S
C582 C583 1.355 . S
C582 C584 1.415 . S
C583 C582 1.355 . S
C583 C585 1.419 . S
C584 C582 1.415 . S
C584 C589 1.425 . S
C584 C591 1.409 . S
C585 H577 0.930 . S
C585 C583 1.419 . S
C585 C586 1.362 . S
C586 H578 0.930 . S
C586 C585 1.362 . S
C586 C589 1.409 . S
C587 H579 0.930 . S
C587 C588 1.355 . S
C587 C589 1.415 . S
C588 C587 1.355 . S
C588 C590 1.419 . S
C589 C584 1.425 . S
C589 C586 1.409 . S
C589 C587 1.415 . S
C590 H580 0.930 . S
C590 C588 1.419 . S
C590 C591 1.362 . S
C591 H581 0.930 . S
C591 C584 1.409 . S
C591 C590 1.362 . S
H592 C598 0.930 . S
H593 C601 0.930 . S
H594 C602 0.930 . S
H595 C603 0.930 . S
H596 C606 0.930 . S
H597 C607 0.930 . S
C598 H592 0.930 . S
C598 C599 1.355 . S
C598 C600 1.415 . S
C599 C598 1.355 . S
C599 C601 1.419 . S
C600 C598 1.415 . S
C600 C605 1.425 . S
C600 C607 1.409 . S
C601 H593 0.930 . S
C601 C599 1.419 . S
C601 C602 1.362 . S
C602 H594 0.930 . S
C602 C601 1.362 . S
C602 C605 1.409 . S
C603 H595 0.930 . S
C603 C604 1.355 . S
C603 C605 1.415 . S
C604 C603 1.355 . S
C604 C606 1.419 . S
C605 C600 1.425 . S
C605 C602 1.409 . S
C605 C603 1.415 . S
C606 H596 0.930 . S
C606 C604 1.419 . S
C606 C607 1.362 . S
C607 H597 0.930 . S
C607 C600 1.409 . S
C607 C606 1.362 . S
H608 C614 0.930 . S
H609 C617 0.930 . S
H610 C618 0.930 . S
H611 C619 0.930 . S
H612 C622 0.930 . S
H613 C623 0.930 . S
C614 H608 0.930 . S
C614 C615 1.355 . S
C614 C616 1.415 . S
C615 C614 1.355 . S
C615 C617 1.419 . S
C616 C614 1.415 . S
C616 C621 1.425 . S
C616 C623 1.409 . S
C617 H609 0.930 . S
C617 C615 1.419 . S
C617 C618 1.362 . S
C618 H610 0.930 . S
C618 C617 1.362 . S
C618 C621 1.409 . S
C619 H611 0.930 . S
C619 C620 1.355 . S
C619 C621 1.415 . S
C620 C619 1.355 . S
C620 C622 1.419 . S
C621 C616 1.425 . S
C621 C618 1.409 . S
C621 C619 1.415 . S
C622 H612 0.930 . S
C622 C620 1.419 . S
C622 C623 1.362 . S
C623 H613 0.930 . S
C623 C616 1.409 . S
C623 C622 1.362 . S
H624 C630 0.930 . S
H625 C633 0.930 . S
H626 C634 0.930 . S
H627 C635 0.930 . S
H628 C638 0.930 . S
H629 C639 0.930 . S
C630 H624 0.930 . S
C630 C631 1.355 . S
C630 C632 1.415 . S
C631 C630 1.355 . S
C631 C633 1.419 . S
C632 C630 1.415 . S
C632 C637 1.425 . S
C632 C639 1.409 . S
C633 H625 0.930 . S
C633 C631 1.419 . S
C633 C634 1.362 . S
C634 H626 0.930 . S
C634 C633 1.362 . S
C634 C637 1.409 . S
C635 H627 0.930 . S
C635 C636 1.355 . S
C635 C637 1.415 . S
C636 C635 1.355 . S
C636 C638 1.419 . S
C637 C632 1.425 . S
C637 C634 1.409 . S
C637 C635 1.415 . S
C638 H628 0.930 . S
C638 C636 1.419 . S
C638 C639 1.362 . S
C639 H629 0.930 . S
C639 C632 1.409 . S
C639 C638 1.362 . S
H640 C646 0.930 . S
H641 C649 0.930 . S
H642 C650 0.930 . S
H643 C651 0.930 . S
H644 C654 0.930 . S
H645 C655 0.930 . S
C646 H640 0.930 . S
C646 C647 1.355 . S
C646 C648 1.415 . S
C647 C646 1.355 . S
C647 C649 1.419 . S
C648 C646 1.415 . S
C648 C653 1.425 . S
C648 C655 1.409 . S
C649 H641 0.930 . S
C649 C647 1.419 . S
C649 C650 1.362 . S
C650 H642 0.930 . S
C650 C649 1.362 . S
C650 C653 1.409 . S
C651 H643 0.930 . S
C651 C652 1.355 . S
C651 C653 1.415 . S
C652 C651 1.355 . S
C652 C654 1.419 . S
C653 C648 1.425 . S
C653 C650 1.409 . S
C653 C651 1.415 . S
C654 H644 0.930 . S
C654 C652 1.419 . S
C654 C655 1.362 . S
C655 H645 0.930 . S
C655 C648 1.409 . S
C655 C654 1.362 . S
H656 C662 0.930 . S
H657 C665 0.930 . S
H658 C666 0.930 . S
H659 C667 0.930 . S
H660 C670 0.930 . S
H661 C671 0.930 . S
C662 H656 0.930 . S
C662 C663 1.355 . S
C662 C664 1.415 . S
C663 C662 1.355 . S
C663 C665 1.419 . S
C664 C662 1.415 . S
C664 C669 1.425 . S
C664 C671 1.409 . S
C665 H657 0.930 . S
C665 C663 1.419 . S
C665 C666 1.362 . S
C666 H658 0.930 . S
C666 C665 1.362 . S
C666 C669 1.409 . S
C667 H659 0.930 . S
C667 C668 1.355 . S
C667 C669 1.415 . S
C668 C667 1.355 . S
C668 C670 1.419 . S
C669 C664 1.425 . S
C669 C666 1.409 . S
C669 C667 1.415 . S
C670 H660 0.930 . S
C670 C668 1.419 . S
C670 C671 1.362 . S
C671 H661 0.930 . S
C671 C664 1.409 . S
C671 C670 1.362 . S
H672 C678 0.930 . S
H673 C681 0.930 . S
H674 C682 0.930 . S
H675 C683 0.930 . S
H676 C686 0.930 . S
H677 C687 0.930 . S
C678 H672 0.930 . S
C678 C679 1.355 . S
C678 C680 1.415 . S
C679 C678 1.355 . S
C679 C681 1.419 . S
C680 C678 1.415 . S
C680 C685 1.425 . S
C680 C687 1.409 . S
C681 H673 0.930 . S
C681 C679 1.419 . S
C681 C682 1.362 . S
C682 H674 0.930 . S
C682 C681 1.362 . S
C682 C685 1.409 . S
C683 H675 0.930 . S
C683 C684 1.355 . S
C683 C685 1.415 . S
C684 C683 1.355 . S
C684 C686 1.419 . S
C685 C680 1.425 . S
C685 C682 1.409 . S
C685 C683 1.415 . S
C686 H676 0.930 . S
C686 C684 1.419 . S
C686 C687 1.362 . S
C687 H677 0.930 . S
C687 C680 1.409 . S
C687 C686 1.362 . S
H688 C694 0.930 . S
H689 C697 0.930 . S
H690 C698 0.930 . S
H691 C699 0.930 . S
H692 C702 0.930 . S
H693 C703 0.930 . S
C694 H688 0.930 . S
C694 C695 1.355 . S
C694 C696 1.415 . S
C695 C694 1.355 . S
C695 C697 1.419 . S
C696 C694 1.415 . S
C696 C701 1.425 . S
C696 C703 1.409 . S
C697 H689 0.930 . S
C697 C695 1.419 . S
C697 C698 1.362 . S
C698 H690 0.930 . S
C698 C697 1.362 . S
C698 C701 1.409 . S
C699 H691 0.930 . S
C699 C700 1.355 . S
C699 C701 1.415 . S
C700 C699 1.355 . S
C700 C702 1.419 . S
C701 C696 1.425 . S
C701 C698 1.409 . S
C701 C699 1.415 . S
C702 H692 0.930 . S
C702 C700 1.419 . S
C702 C703 1.362 . S
C703 H693 0.930 . S
C703 C696 1.409 . S
C703 C702 1.362 . S
H704 C710 0.930 . S
H705 C713 0.930 . S
H706 C714 0.930 . S
H707 C715 0.930 . S
H708 C718 0.930 . S
H709 C719 0.930 . S
C710 H704 0.930 . S
C710 C711 1.355 . S
C710 C712 1.415 . S
C711 C710 1.355 . S
C711 C713 1.419 . S
C712 C710 1.415 . S
C712 C717 1.425 . S
C712 C719 1.409 . S
C713 H705 0.930 . S
C713 C711 1.419 . S
C713 C714 1.362 . S
C714 H706 0.930 . S
C714 C713 1.362 . S
C714 C717 1.409 . S
C715 H707 0.930 . S
C715 C716 1.355 . S
C715 C717 1.415 . S
C716 C715 1.355 . S
C716 C718 1.419 . S
C717 C712 1.425 . S
C717 C714 1.409 . S
C717 C715 1.415 . S
C718 H708 0.930 . S
C718 C716 1.419 . S
C718 C719 1.362 . S
C719 H709 0.930 . S
C719 C712 1.409 . S
C719 C718 1.362 . S
C215 C0 1.401 . S
C220 C164 1.436 . S
C231 C177 1.421 . S
C236 C13 1.431 . S
C247 C26 1.377 . S
C252 C190 1.400 . S
C263 C203 1.387 . S
C268 C39 1.391 . S
C279 C104 1.381 . S
C284 C60 1.393 . S
C295 C73 1.434 . S
C300 C117 1.418 . S
C311 C130 1.376 . S
C316 C86 1.419 . S
C327 C99 1.411 . S
C332 C143 1.374 . S
C343 C5 1.519 . S
C348 C31 1.528 . S
C359 C18 1.542 . S
C364 C44 1.506 . S
C375 C57 1.380 . S
C380 C83 1.348 . S
C391 C70 1.397 . S
C396 C96 1.336 . S
C407 C135 1.516 . S
C412 C109 1.543 . S
C423 C122 1.536 . S
C428 C148 1.512 . S
C439 C187 1.353 . S
C444 C161 1.390 . S
C455 C174 1.386 . S
C460 C200 1.357 . S
C471 C88 1.469 . S
C476 C10 1.469 . S
C487 C101 1.475 . S
C492 C23 1.475 . S
C503 C36 1.453 . S
C508 C62 1.454 . S
C519 C49 1.448 . S
C524 C75 1.448 . S
C535 C192 1.449 . S
C540 C114 1.449 . S
C551 C127 1.450 . S
C556 C205 1.450 . S
C567 C166 1.477 . S
C572 C140 1.477 . S
C583 C153 1.468 . S
C588 C179 1.468 . S
C599 C8 1.524 . S
C604 C47 1.568 . S
C615 C34 1.537 . S
C620 C21 1.552 . S
C631 C52 1.298 . S
C636 C91 1.298 . S
C647 C65 1.302 . S
C652 C78 1.302 . S
C663 C151 1.523 . S
C668 C112 1.569 . S
C679 C125 1.565 . S
C684 C138 1.531 . S
C695 C195 1.305 . S
C700 C156 1.305 . S
C711 C169 1.302 . S
C716 C182 1.302 . S
