# Generated by pormake.
# Topology flu-e, (6)-cn, num edge types: 1
# Building blocks:
#     Node 0, Type 0, BuildingBlock: OJICUG_clean_sbu_0, # of connection points: 6
#     Node 1, Type 0, BuildingBlock: OJICUG_clean_sbu_0, # of connection points: 6
#     Node 2, Type 0, BuildingBlock: OJICUG_clean_sbu_0, # of connection points: 6
#     Node 3, Type 0, BuildingBlock: OJICUG_clean_sbu_0, # of connection points: 6
#     Node 4, Type 0, BuildingBlock: OJICUG_clean_sbu_0, # of connection points: 6
#     Node 5, Type 0, BuildingBlock: OJICUG_clean_sbu_0, # of connection points: 6
#     Node 6, Type 0, BuildingBlock: OJICUG_clean_sbu_0, # of connection points: 6
#     Node 7, Type 0, BuildingBlock: OJICUG_clean_sbu_0, # of connection points: 6
#     Node 8, Type 0, BuildingBlock: OJICUG_clean_sbu_0, # of connection points: 6
#     Node 9, Type 0, BuildingBlock: OJICUG_clean_sbu_0, # of connection points: 6
#     Node 10, Type 0, BuildingBlock: OJICUG_clean_sbu_0, # of connection points: 6
#     Node 11, Type 0, BuildingBlock: OJICUG_clean_sbu_0, # of connection points: 6
#     Node 12, Type 0, BuildingBlock: OJICUG_clean_sbu_0, # of connection points: 6
#     Node 13, Type 0, BuildingBlock: OJICUG_clean_sbu_0, # of connection points: 6
#     Node 14, Type 0, BuildingBlock: OJICUG_clean_sbu_0, # of connection points: 6
#     Node 15, Type 0, BuildingBlock: OJICUG_clean_sbu_0, # of connection points: 6
#     Node 16, Type 0, BuildingBlock: OJICUG_clean_sbu_0, # of connection points: 6
#     Node 17, Type 0, BuildingBlock: OJICUG_clean_sbu_0, # of connection points: 6
#     Node 18, Type 0, BuildingBlock: OJICUG_clean_sbu_0, # of connection points: 6
#     Node 19, Type 0, BuildingBlock: OJICUG_clean_sbu_0, # of connection points: 6
#     Node 20, Type 0, BuildingBlock: OJICUG_clean_sbu_0, # of connection points: 6
#     Node 21, Type 0, BuildingBlock: OJICUG_clean_sbu_0, # of connection points: 6
#     Node 22, Type 0, BuildingBlock: OJICUG_clean_sbu_0, # of connection points: 6
#     Node 23, Type 0, BuildingBlock: OJICUG_clean_sbu_0, # of connection points: 6
#     Node 24, Type 0, BuildingBlock: OJICUG_clean_sbu_0, # of connection points: 6
#     Node 25, Type 0, BuildingBlock: OJICUG_clean_sbu_0, # of connection points: 6
#     Node 26, Type 0, BuildingBlock: OJICUG_clean_sbu_0, # of connection points: 6
#     Node 27, Type 0, BuildingBlock: OJICUG_clean_sbu_0, # of connection points: 6
#     Node 28, Type 0, BuildingBlock: OJICUG_clean_sbu_0, # of connection points: 6
#     Node 29, Type 0, BuildingBlock: OJICUG_clean_sbu_0, # of connection points: 6
#     Node 30, Type 0, BuildingBlock: OJICUG_clean_sbu_0, # of connection points: 6
#     Node 31, Type 0, BuildingBlock: OJICUG_clean_sbu_0, # of connection points: 6
#     Edge 32, Type (0, 0), BuildingBlock: OJICUG_clean_linker_0, # of connection points: 2
#     Edge 33, Type (0, 0), BuildingBlock: OJICUG_clean_linker_0, # of connection points: 2
#     Edge 34, Type (0, 0), BuildingBlock: OJICUG_clean_linker_0, # of connection points: 2
#     Edge 35, Type (0, 0), BuildingBlock: OJICUG_clean_linker_0, # of connection points: 2
#     Edge 36, Type (0, 0), BuildingBlock: OJICUG_clean_linker_0, # of connection points: 2
#     Edge 37, Type (0, 0), BuildingBlock: OJICUG_clean_linker_0, # of connection points: 2
#     Edge 38, Type (0, 0), BuildingBlock: OJICUG_clean_linker_0, # of connection points: 2
#     Edge 39, Type (0, 0), BuildingBlock: OJICUG_clean_linker_0, # of connection points: 2
#     Edge 40, Type (0, 0), BuildingBlock: OJICUG_clean_linker_0, # of connection points: 2
#     Edge 41, Type (0, 0), BuildingBlock: OJICUG_clean_linker_0, # of connection points: 2
#     Edge 42, Type (0, 0), BuildingBlock: OJICUG_clean_linker_0, # of connection points: 2
#     Edge 43, Type (0, 0), BuildingBlock: OJICUG_clean_linker_0, # of connection points: 2
#     Edge 44, Type (0, 0), BuildingBlock: OJICUG_clean_linker_0, # of connection points: 2
#     Edge 45, Type (0, 0), BuildingBlock: OJICUG_clean_linker_0, # of connection points: 2
#     Edge 46, Type (0, 0), BuildingBlock: OJICUG_clean_linker_0, # of connection points: 2
#     Edge 47, Type (0, 0), BuildingBlock: OJICUG_clean_linker_0, # of connection points: 2
#     Edge 48, Type (0, 0), BuildingBlock: OJICUG_clean_linker_0, # of connection points: 2
#     Edge 49, Type (0, 0), BuildingBlock: OJICUG_clean_linker_0, # of connection points: 2
#     Edge 50, Type (0, 0), BuildingBlock: OJICUG_clean_linker_0, # of connection points: 2
#     Edge 51, Type (0, 0), BuildingBlock: OJICUG_clean_linker_0, # of connection points: 2
#     Edge 52, Type (0, 0), BuildingBlock: OJICUG_clean_linker_0, # of connection points: 2
#     Edge 53, Type (0, 0), BuildingBlock: OJICUG_clean_linker_0, # of connection points: 2
#     Edge 54, Type (0, 0), BuildingBlock: OJICUG_clean_linker_0, # of connection points: 2
#     Edge 55, Type (0, 0), BuildingBlock: OJICUG_clean_linker_0, # of connection points: 2
#     Edge 56, Type (0, 0), BuildingBlock: OJICUG_clean_linker_0, # of connection points: 2
#     Edge 57, Type (0, 0), BuildingBlock: OJICUG_clean_linker_0, # of connection points: 2
#     Edge 58, Type (0, 0), BuildingBlock: OJICUG_clean_linker_0, # of connection points: 2
#     Edge 59, Type (0, 0), BuildingBlock: OJICUG_clean_linker_0, # of connection points: 2
#     Edge 60, Type (0, 0), BuildingBlock: OJICUG_clean_linker_0, # of connection points: 2
#     Edge 61, Type (0, 0), BuildingBlock: OJICUG_clean_linker_0, # of connection points: 2
#     Edge 62, Type (0, 0), BuildingBlock: OJICUG_clean_linker_0, # of connection points: 2
#     Edge 63, Type (0, 0), BuildingBlock: OJICUG_clean_linker_0, # of connection points: 2
#     Edge 64, Type (0, 0), BuildingBlock: OJICUG_clean_linker_0, # of connection points: 2
#     Edge 65, Type (0, 0), BuildingBlock: OJICUG_clean_linker_0, # of connection points: 2
#     Edge 66, Type (0, 0), BuildingBlock: OJICUG_clean_linker_0, # of connection points: 2
#     Edge 67, Type (0, 0), BuildingBlock: OJICUG_clean_linker_0, # of connection points: 2
#     Edge 68, Type (0, 0), BuildingBlock: OJICUG_clean_linker_0, # of connection points: 2
#     Edge 69, Type (0, 0), BuildingBlock: OJICUG_clean_linker_0, # of connection points: 2
#     Edge 70, Type (0, 0), BuildingBlock: OJICUG_clean_linker_0, # of connection points: 2
#     Edge 71, Type (0, 0), BuildingBlock: OJICUG_clean_linker_0, # of connection points: 2
#     Edge 72, Type (0, 0), BuildingBlock: OJICUG_clean_linker_0, # of connection points: 2
#     Edge 73, Type (0, 0), BuildingBlock: OJICUG_clean_linker_0, # of connection points: 2
#     Edge 74, Type (0, 0), BuildingBlock: OJICUG_clean_linker_0, # of connection points: 2
#     Edge 75, Type (0, 0), BuildingBlock: OJICUG_clean_linker_0, # of connection points: 2
#     Edge 76, Type (0, 0), BuildingBlock: OJICUG_clean_linker_0, # of connection points: 2
#     Edge 77, Type (0, 0), BuildingBlock: OJICUG_clean_linker_0, # of connection points: 2
#     Edge 78, Type (0, 0), BuildingBlock: OJICUG_clean_linker_0, # of connection points: 2
#     Edge 79, Type (0, 0), BuildingBlock: OJICUG_clean_linker_0, # of connection points: 2
#     Edge 80, Type (0, 0), BuildingBlock: OJICUG_clean_linker_0, # of connection points: 2
#     Edge 81, Type (0, 0), BuildingBlock: OJICUG_clean_linker_0, # of connection points: 2
#     Edge 82, Type (0, 0), BuildingBlock: OJICUG_clean_linker_0, # of connection points: 2
#     Edge 83, Type (0, 0), BuildingBlock: OJICUG_clean_linker_0, # of connection points: 2
#     Edge 84, Type (0, 0), BuildingBlock: OJICUG_clean_linker_0, # of connection points: 2
#     Edge 85, Type (0, 0), BuildingBlock: OJICUG_clean_linker_0, # of connection points: 2
#     Edge 86, Type (0, 0), BuildingBlock: OJICUG_clean_linker_0, # of connection points: 2
#     Edge 87, Type (0, 0), BuildingBlock: OJICUG_clean_linker_0, # of connection points: 2
#     Edge 88, Type (0, 0), BuildingBlock: OJICUG_clean_linker_0, # of connection points: 2
#     Edge 89, Type (0, 0), BuildingBlock: OJICUG_clean_linker_0, # of connection points: 2
#     Edge 90, Type (0, 0), BuildingBlock: OJICUG_clean_linker_0, # of connection points: 2
#     Edge 91, Type (0, 0), BuildingBlock: OJICUG_clean_linker_0, # of connection points: 2
#     Edge 92, Type (0, 0), BuildingBlock: OJICUG_clean_linker_0, # of connection points: 2
#     Edge 93, Type (0, 0), BuildingBlock: OJICUG_clean_linker_0, # of connection points: 2
#     Edge 94, Type (0, 0), BuildingBlock: OJICUG_clean_linker_0, # of connection points: 2
#     Edge 95, Type (0, 0), BuildingBlock: OJICUG_clean_linker_0, # of connection points: 2
#     Edge 96, Type (0, 0), BuildingBlock: OJICUG_clean_linker_0, # of connection points: 2
#     Edge 97, Type (0, 0), BuildingBlock: OJICUG_clean_linker_0, # of connection points: 2
#     Edge 98, Type (0, 0), BuildingBlock: OJICUG_clean_linker_0, # of connection points: 2
#     Edge 99, Type (0, 0), BuildingBlock: OJICUG_clean_linker_0, # of connection points: 2
#     Edge 100, Type (0, 0), BuildingBlock: OJICUG_clean_linker_0, # of connection points: 2
#     Edge 101, Type (0, 0), BuildingBlock: OJICUG_clean_linker_0, # of connection points: 2
#     Edge 102, Type (0, 0), BuildingBlock: OJICUG_clean_linker_0, # of connection points: 2
#     Edge 103, Type (0, 0), BuildingBlock: OJICUG_clean_linker_0, # of connection points: 2
#     Edge 104, Type (0, 0), BuildingBlock: OJICUG_clean_linker_0, # of connection points: 2
#     Edge 105, Type (0, 0), BuildingBlock: OJICUG_clean_linker_0, # of connection points: 2
#     Edge 106, Type (0, 0), BuildingBlock: OJICUG_clean_linker_0, # of connection points: 2
#     Edge 107, Type (0, 0), BuildingBlock: OJICUG_clean_linker_0, # of connection points: 2
#     Edge 108, Type (0, 0), BuildingBlock: OJICUG_clean_linker_0, # of connection points: 2
#     Edge 109, Type (0, 0), BuildingBlock: OJICUG_clean_linker_0, # of connection points: 2
#     Edge 110, Type (0, 0), BuildingBlock: OJICUG_clean_linker_0, # of connection points: 2
#     Edge 111, Type (0, 0), BuildingBlock: OJICUG_clean_linker_0, # of connection points: 2
#     Edge 112, Type (0, 0), BuildingBlock: OJICUG_clean_linker_0, # of connection points: 2
#     Edge 113, Type (0, 0), BuildingBlock: OJICUG_clean_linker_0, # of connection points: 2
#     Edge 114, Type (0, 0), BuildingBlock: OJICUG_clean_linker_0, # of connection points: 2
#     Edge 115, Type (0, 0), BuildingBlock: OJICUG_clean_linker_0, # of connection points: 2
#     Edge 116, Type (0, 0), BuildingBlock: OJICUG_clean_linker_0, # of connection points: 2
#     Edge 117, Type (0, 0), BuildingBlock: OJICUG_clean_linker_0, # of connection points: 2
#     Edge 118, Type (0, 0), BuildingBlock: OJICUG_clean_linker_0, # of connection points: 2
#     Edge 119, Type (0, 0), BuildingBlock: OJICUG_clean_linker_0, # of connection points: 2
#     Edge 120, Type (0, 0), BuildingBlock: OJICUG_clean_linker_0, # of connection points: 2
#     Edge 121, Type (0, 0), BuildingBlock: OJICUG_clean_linker_0, # of connection points: 2
#     Edge 122, Type (0, 0), BuildingBlock: OJICUG_clean_linker_0, # of connection points: 2
#     Edge 123, Type (0, 0), BuildingBlock: OJICUG_clean_linker_0, # of connection points: 2
#     Edge 124, Type (0, 0), BuildingBlock: OJICUG_clean_linker_0, # of connection points: 2
#     Edge 125, Type (0, 0), BuildingBlock: OJICUG_clean_linker_0, # of connection points: 2
#     Edge 126, Type (0, 0), BuildingBlock: OJICUG_clean_linker_0, # of connection points: 2
#     Edge 127, Type (0, 0), BuildingBlock: OJICUG_clean_linker_0, # of connection points: 2
# Relax obj value: 0.101
# Max RMSD: 0.123
# Mean RMSD: 0.123
data_MOF--net-flu-e--node1-OJICUG_clean_sbu_0--edge1-OJICUG_clean_linker_0
_symmetry_space_group_name_H-M    P1
_symmetry_Int_Tables_number       1
_symmetry_cell_setting            triclinic
loop_
_symmetry_equiv_pos_as_xyz
'x, y, z'
_cell_length_a     42.590749
_cell_length_b     42.602741
_cell_length_c     42.608015
_cell_angle_alpha  90.02565
_cell_angle_beta   90.007217
_cell_angle_gamma 90.019948
loop_
_atom_site_label
_atom_site_type_symbol
_atom_site_fract_x
_atom_site_fract_y
_atom_site_fract_z
_atom_type_partial_charge
Sc0 Sc 0.11516 0.17354 0.35813 0.0
Sc1 Sc 0.11524 0.1151 0.2995 0.0
Sc2 Sc 0.17369 0.11501 0.35811 0.0
O3 O 0.13462 0.13447 0.33867 0.0
C4 C 0.18842 0.18829 0.36426 0.0
C5 C 0.10922 0.1884 0.28488 0.0
C6 C 0.18854 0.1091 0.28485 0.0
C7 C 0.05425 0.13432 0.33868 0.0
C8 C 0.13442 0.13427 0.41904 0.0
C9 C 0.13453 0.05408 0.33857 0.0
O10 O 0.15983 0.19673 0.36295 0.0
O11 O 0.11051 0.15982 0.2764 0.0
O12 O 0.19696 0.11033 0.31346 0.0
O13 O 0.06819 0.15501 0.3551 0.0
O14 O 0.15512 0.1179 0.40507 0.0
O15 O 0.11819 0.06809 0.31788 0.0
O16 O 0.11809 0.155 0.40508 0.0
O17 O 0.06824 0.11801 0.31796 0.0
O18 O 0.1552 0.06802 0.35501 0.0
O19 O 0.11045 0.19681 0.31349 0.0
O20 O 0.19687 0.1597 0.36298 0.0
O21 O 0.15995 0.11041 0.27638 0.0
Sc22 Sc 0.79939 0.11467 0.35771 0.0
Sc23 Sc 0.85789 0.17327 0.35791 0.0
Sc24 Sc 0.85797 0.11487 0.29924 0.0
O25 O 0.8385 0.13419 0.33837 0.0
C26 C 0.83863 0.0538 0.3382 0.0
C27 C 0.83848 0.13397 0.41875 0.0
C28 C 0.91886 0.13415 0.33857 0.0
C29 C 0.7846 0.18793 0.3639 0.0
C30 C 0.78471 0.10876 0.28442 0.0
C31 C 0.864 0.18818 0.28468 0.0
O32 O 0.81793 0.0677 0.35463 0.0
O33 O 0.85485 0.15471 0.40485 0.0
O34 O 0.90493 0.11783 0.31781 0.0
O35 O 0.77617 0.15933 0.36255 0.0
O36 O 0.81331 0.11013 0.27599 0.0
O37 O 0.86269 0.19657 0.31329 0.0
O38 O 0.77624 0.10996 0.313 0.0
O39 O 0.81319 0.1964 0.36265 0.0
O40 O 0.86273 0.1596 0.27619 0.0
O41 O 0.81783 0.11758 0.40472 0.0
O42 O 0.855 0.06785 0.31756 0.0
O43 O 0.90487 0.15481 0.35497 0.0
Sc44 Sc 0.85786 0.79896 0.35643 0.0
Sc45 Sc 0.85791 0.85756 0.298 0.0
Sc46 Sc 0.79926 0.85738 0.35641 0.0
O47 O 0.83843 0.83805 0.33703 0.0
C48 C 0.78458 0.78409 0.36227 0.0
C49 C 0.864 0.78432 0.28314 0.0
C50 C 0.78465 0.86347 0.28312 0.0
C51 C 0.91882 0.83826 0.33728 0.0
C52 C 0.83834 0.83804 0.41741 0.0
C53 C 0.83846 0.91841 0.33732 0.0
O54 O 0.81319 0.77569 0.36105 0.0
O55 O 0.86271 0.81291 0.27473 0.0
O56 O 0.77616 0.86214 0.31169 0.0
O57 O 0.90483 0.81754 0.3536 0.0
O58 O 0.81765 0.85438 0.40342 0.0
O59 O 0.85488 0.90451 0.31661 0.0
O60 O 0.85477 0.81738 0.40345 0.0
O61 O 0.90487 0.85462 0.31657 0.0
O62 O 0.81773 0.90438 0.35358 0.0
O63 O 0.86271 0.77585 0.31172 0.0
O64 O 0.77611 0.81267 0.36102 0.0
O65 O 0.81326 0.86228 0.27472 0.0
Sc66 Sc 0.11528 0.85782 0.29861 0.0
Sc67 Sc 0.17373 0.85768 0.35725 0.0
Sc68 Sc 0.11514 0.79917 0.35697 0.0
O69 O 0.13463 0.8383 0.33769 0.0
C70 C 0.05424 0.83841 0.33762 0.0
C71 C 0.13459 0.91868 0.33801 0.0
C72 C 0.13438 0.83822 0.41806 0.0
C73 C 0.18861 0.86383 0.28403 0.0
C74 C 0.10922 0.78458 0.28366 0.0
C75 C 0.18842 0.78439 0.36309 0.0
O76 O 0.06825 0.85481 0.31699 0.0
O77 O 0.15527 0.90467 0.35436 0.0
O78 O 0.11805 0.81755 0.404 0.0
O79 O 0.16002 0.86261 0.27555 0.0
O80 O 0.11044 0.77609 0.31223 0.0
O81 O 0.19688 0.81299 0.36193 0.0
O82 O 0.11055 0.81318 0.27527 0.0
O83 O 0.19701 0.86249 0.31263 0.0
O84 O 0.15982 0.77596 0.36172 0.0
O85 O 0.11824 0.90476 0.31725 0.0
O86 O 0.06817 0.81769 0.35398 0.0
O87 O 0.15512 0.85462 0.40419 0.0
Sc88 Sc 0.17295 0.85726 0.61452 0.0
Sc89 Sc 0.11439 0.79872 0.61428 0.0
Sc90 Sc 0.11432 0.85714 0.67294 0.0
O91 O 0.1338 0.83779 0.63383 0.0
C92 C 0.18758 0.86318 0.68782 0.0
C93 C 0.18766 0.78398 0.60836 0.0
C94 C 0.10823 0.78385 0.68751 0.0
C95 C 0.13388 0.83802 0.55345 0.0
C96 C 0.13375 0.91818 0.63395 0.0
C97 C 0.05344 0.83791 0.63356 0.0
O98 O 0.19606 0.86193 0.65924 0.0
O99 O 0.15906 0.77554 0.60959 0.0
O100 O 0.10953 0.81242 0.69601 0.0
O101 O 0.15453 0.85438 0.56751 0.0
O102 O 0.11734 0.90416 0.65458 0.0
O103 O 0.06742 0.81725 0.61717 0.0
O104 O 0.15447 0.90424 0.61758 0.0
O105 O 0.11748 0.81728 0.56733 0.0
O106 O 0.06737 0.85421 0.65435 0.0
O107 O 0.19611 0.81257 0.6097 0.0
O108 O 0.15898 0.86187 0.69622 0.0
O109 O 0.10953 0.77545 0.65891 0.0
Sc110 Sc 0.11465 0.17304 0.61545 0.0
Sc111 Sc 0.11461 0.11444 0.67387 0.0
Sc112 Sc 0.17321 0.11456 0.61541 0.0
O113 O 0.13407 0.13393 0.63483 0.0
C114 C 0.1341 0.13398 0.55444 0.0
C115 C 0.05368 0.13378 0.63464 0.0
C116 C 0.13398 0.05357 0.63455 0.0
C117 C 0.10856 0.18768 0.68875 0.0
C118 C 0.18794 0.18785 0.60954 0.0
C119 C 0.18788 0.10846 0.68869 0.0
O120 O 0.1177 0.15464 0.56843 0.0
O121 O 0.06763 0.11742 0.65534 0.0
O122 O 0.15471 0.06757 0.61826 0.0
O123 O 0.10984 0.19614 0.66017 0.0
O124 O 0.1964 0.15926 0.61077 0.0
O125 O 0.15927 0.10968 0.6971 0.0
O126 O 0.15934 0.19627 0.61081 0.0
O127 O 0.10985 0.15908 0.69715 0.0
O128 O 0.19635 0.10978 0.66011 0.0
O129 O 0.06767 0.1545 0.61831 0.0
O130 O 0.15478 0.11759 0.56841 0.0
O131 O 0.11759 0.06749 0.65527 0.0
Sc132 Sc 0.85737 0.17309 0.61519 0.0
Sc133 Sc 0.79874 0.11465 0.615 0.0
Sc134 Sc 0.85725 0.11444 0.67357 0.0
O135 O 0.83787 0.13398 0.6345 0.0
C136 C 0.91826 0.13379 0.63448 0.0
C137 C 0.83803 0.13403 0.55414 0.0
C138 C 0.83784 0.05361 0.63417 0.0
C139 C 0.7841 0.18794 0.60917 0.0
C140 C 0.86336 0.18769 0.6885 0.0
C141 C 0.78394 0.10851 0.68824 0.0
O142 O 0.90433 0.15453 0.61815 0.0
O143 O 0.81728 0.11767 0.56805 0.0
O144 O 0.85423 0.0675 0.65492 0.0
O145 O 0.81272 0.19635 0.61048 0.0
O146 O 0.86204 0.15908 0.69689 0.0
O147 O 0.77551 0.10986 0.65965 0.0
O148 O 0.86212 0.19617 0.65993 0.0
O149 O 0.77562 0.15935 0.61035 0.0
O150 O 0.81254 0.1097 0.69669 0.0
O151 O 0.85442 0.15469 0.56817 0.0
O152 O 0.90426 0.1174 0.65513 0.0
O153 O 0.81716 0.06765 0.61785 0.0
Sc154 Sc 0.85714 0.79873 0.61374 0.0
Sc155 Sc 0.85703 0.85715 0.67238 0.0
Sc156 Sc 0.79865 0.85731 0.6137 0.0
O157 O 0.83769 0.83781 0.63319 0.0
C158 C 0.83797 0.83801 0.55281 0.0
C159 C 0.91805 0.8379 0.63327 0.0
C160 C 0.83783 0.91821 0.63334 0.0
C161 C 0.86301 0.78384 0.68699 0.0
C162 C 0.78386 0.78405 0.60752 0.0
C163 C 0.78372 0.86322 0.68694 0.0
O164 O 0.85426 0.81727 0.56679 0.0
O165 O 0.90405 0.85421 0.65399 0.0
O166 O 0.81718 0.9043 0.61684 0.0
O167 O 0.8618 0.77544 0.65838 0.0
O168 O 0.77544 0.81265 0.60879 0.0
O169 O 0.81229 0.86187 0.69544 0.0
O170 O 0.81245 0.77559 0.60888 0.0
O171 O 0.86171 0.81242 0.69548 0.0
O172 O 0.77532 0.862 0.65833 0.0
O173 O 0.90412 0.81722 0.61683 0.0
O174 O 0.81727 0.85441 0.56675 0.0
O175 O 0.85413 0.90416 0.65402 0.0
Sc176 Sc 0.35795 0.17336 0.11538 0.0
Sc177 Sc 0.29932 0.11491 0.11541 0.0
Sc178 Sc 0.35794 0.1148 0.17386 0.0
O179 O 0.33849 0.13428 0.1348 0.0
C180 C 0.41888 0.13408 0.1346 0.0
C181 C 0.33843 0.13424 0.05442 0.0
C182 C 0.33849 0.05392 0.13458 0.0
C183 C 0.28467 0.1882 0.10949 0.0
C184 C 0.36408 0.18806 0.18866 0.0
C185 C 0.28467 0.10887 0.18869 0.0
O186 O 0.40492 0.1548 0.11827 0.0
O187 O 0.31773 0.1179 0.06841 0.0
O188 O 0.35489 0.06784 0.1553 0.0
O189 O 0.31328 0.19661 0.11071 0.0
O190 O 0.36277 0.15947 0.19708 0.0
O191 O 0.2762 0.11016 0.16012 0.0
O192 O 0.36279 0.19651 0.16008 0.0
O193 O 0.27618 0.15962 0.11076 0.0
O194 O 0.31328 0.1101 0.1971 0.0
O195 O 0.35488 0.1549 0.06838 0.0
O196 O 0.40491 0.11773 0.15531 0.0
O197 O 0.31777 0.06792 0.11827 0.0
Sc198 Sc 0.85797 0.2989 0.11527 0.0
Sc199 Sc 0.8579 0.35755 0.17371 0.0
Sc200 Sc 0.79929 0.35726 0.11525 0.0
O201 O 0.83847 0.33799 0.13466 0.0
C202 C 0.83846 0.33793 0.05428 0.0
C203 C 0.91888 0.33825 0.13453 0.0
C204 C 0.83843 0.41834 0.13436 0.0
C205 C 0.86405 0.28432 0.18857 0.0
C206 C 0.7847 0.28396 0.10933 0.0
C207 C 0.78461 0.36342 0.18851 0.0
O208 O 0.85491 0.3173 0.06825 0.0
O209 O 0.90489 0.35462 0.15522 0.0
O210 O 0.8177 0.40427 0.11809 0.0
O211 O 0.8628 0.27584 0.15999 0.0
O212 O 0.7762 0.31253 0.11059 0.0
O213 O 0.81322 0.36228 0.19692 0.0
O214 O 0.81332 0.27558 0.11059 0.0
O215 O 0.86271 0.31293 0.19698 0.0
O216 O 0.77614 0.36203 0.15993 0.0
O217 O 0.90493 0.31752 0.11818 0.0
O218 O 0.81773 0.35426 0.06826 0.0
O219 O 0.85486 0.40448 0.15508 0.0
Sc220 Sc 0.67358 0.85718 0.11371 0.0
Sc221 Sc 0.61502 0.79861 0.11371 0.0
Sc222 Sc 0.61519 0.85702 0.17236 0.0
O223 O 0.63452 0.83769 0.13317 0.0
C224 C 0.68849 0.86307 0.18696 0.0
C225 C 0.68829 0.78391 0.10753 0.0
C226 C 0.60913 0.78371 0.18695 0.0
C227 C 0.63426 0.83789 0.0528 0.0
C228 C 0.63445 0.91808 0.13332 0.0
C229 C 0.55416 0.83783 0.13322 0.0
O230 O 0.69689 0.86189 0.15835 0.0
O231 O 0.6597 0.77545 0.10884 0.0
O232 O 0.61044 0.81229 0.19543 0.0
O233 O 0.65498 0.85426 0.06675 0.0
O234 O 0.61816 0.90404 0.15402 0.0
O235 O 0.56806 0.81713 0.1168 0.0
O236 O 0.65508 0.90416 0.11682 0.0
O237 O 0.61792 0.81717 0.06676 0.0
O238 O 0.56819 0.85413 0.15393 0.0
O239 O 0.69674 0.8125 0.10883 0.0
O240 O 0.65992 0.8617 0.19545 0.0
O241 O 0.61034 0.77531 0.15834 0.0
Sc242 Sc 0.11496 0.67355 0.11422 0.0
Sc243 Sc 0.11498 0.61511 0.1728 0.0
Sc244 Sc 0.17347 0.61499 0.11423 0.0
O245 O 0.13439 0.63446 0.13366 0.0
C246 C 0.13422 0.63426 0.0533 0.0
C247 C 0.05404 0.63432 0.13355 0.0
C248 C 0.13432 0.55406 0.13375 0.0
C249 C 0.10897 0.68841 0.18747 0.0
C250 C 0.18823 0.68827 0.10816 0.0
C251 C 0.18828 0.60911 0.1875 0.0
O252 O 0.11791 0.65501 0.06726 0.0
O253 O 0.068 0.618 0.15428 0.0
O254 O 0.15498 0.56799 0.11731 0.0
O255 O 0.11023 0.69682 0.15887 0.0
O256 O 0.19666 0.65968 0.1094 0.0
O257 O 0.15968 0.61043 0.19595 0.0
O258 O 0.15964 0.69672 0.10948 0.0
O259 O 0.11024 0.65983 0.19592 0.0
O260 O 0.1967 0.61033 0.1589 0.0
O261 O 0.068 0.65502 0.11719 0.0
O262 O 0.1549 0.61787 0.06726 0.0
O263 O 0.11796 0.56808 0.15441 0.0
Sc264 Sc 0.29854 0.8575 0.85724 0.0
Sc265 Sc 0.35709 0.79899 0.85709 0.0
Sc266 Sc 0.35702 0.85758 0.79866 0.0
O267 O 0.33763 0.83811 0.83774 0.0
C268 C 0.28371 0.86356 0.784 0.0
C269 C 0.28379 0.78423 0.86314 0.0
C270 C 0.36302 0.78432 0.78379 0.0
C271 C 0.33783 0.83812 0.91811 0.0
C272 C 0.33774 0.91847 0.838 0.0
C273 C 0.41803 0.83822 0.83772 0.0
O274 O 0.27529 0.86228 0.81259 0.0
O275 O 0.31239 0.7758 0.86185 0.0
O276 O 0.36174 0.81292 0.77539 0.0
O277 O 0.31709 0.85448 0.90419 0.0
O278 O 0.35407 0.90454 0.81724 0.0
O279 O 0.40409 0.81749 0.85407 0.0
O280 O 0.31705 0.90448 0.85435 0.0
O281 O 0.3542 0.81746 0.90409 0.0
O282 O 0.40403 0.85461 0.81708 0.0
O283 O 0.27534 0.81281 0.86191 0.0
O284 O 0.3123 0.86231 0.77554 0.0
O285 O 0.36176 0.77585 0.81237 0.0
Sc286 Sc 0.11471 0.35718 0.79946 0.0
Sc287 Sc 0.17324 0.35742 0.858 0.0
Sc288 Sc 0.11471 0.29884 0.85812 0.0
O289 O 0.13414 0.3379 0.83861 0.0
C290 C 0.05378 0.33797 0.83872 0.0
C291 C 0.134 0.41827 0.83847 0.0
C292 C 0.13411 0.33817 0.919 0.0
C293 C 0.18799 0.36326 0.78472 0.0
C294 C 0.10866 0.28388 0.78489 0.0
C295 C 0.18799 0.28417 0.86416 0.0
O296 O 0.06774 0.35425 0.81796 0.0
O297 O 0.1547 0.40438 0.85491 0.0
O298 O 0.11774 0.31743 0.90508 0.0
O299 O 0.1594 0.3619 0.77627 0.0
O300 O 0.10992 0.27551 0.8135 0.0
O301 O 0.19644 0.31276 0.86284 0.0
O302 O 0.10997 0.31244 0.77639 0.0
O303 O 0.19643 0.36209 0.81331 0.0
O304 O 0.1594 0.2757 0.86288 0.0
O305 O 0.11767 0.40421 0.81781 0.0
O306 O 0.06774 0.31733 0.85515 0.0
O307 O 0.15477 0.35455 0.90498 0.0
Sc308 Sc 0.6147 0.17326 0.85789 0.0
Sc309 Sc 0.61456 0.11486 0.79922 0.0
Sc310 Sc 0.67315 0.11464 0.85769 0.0
O311 O 0.63405 0.13417 0.83835 0.0
C312 C 0.688 0.18789 0.86389 0.0
C313 C 0.6086 0.18817 0.78467 0.0
C314 C 0.68781 0.10876 0.7844 0.0
C315 C 0.55369 0.13414 0.83855 0.0
C316 C 0.63408 0.13394 0.91874 0.0
C317 C 0.63385 0.05378 0.83818 0.0
O318 O 0.65942 0.19637 0.86265 0.0
O319 O 0.60983 0.1596 0.77617 0.0
O320 O 0.69628 0.10994 0.81298 0.0
O321 O 0.5677 0.1548 0.85494 0.0
O322 O 0.65472 0.11755 0.9047 0.0
O323 O 0.6175 0.06784 0.81753 0.0
O324 O 0.61772 0.15468 0.90483 0.0
O325 O 0.56761 0.11781 0.81779 0.0
O326 O 0.65456 0.06768 0.85461 0.0
O327 O 0.60992 0.19657 0.81327 0.0
O328 O 0.69641 0.15929 0.86254 0.0
O329 O 0.65921 0.11014 0.77597 0.0
Sc330 Sc 0.79856 0.61463 0.85657 0.0
Sc331 Sc 0.85713 0.67314 0.85644 0.0
Sc332 Sc 0.85711 0.61445 0.79805 0.0
O333 O 0.83768 0.63399 0.8371 0.0
C334 C 0.83775 0.55362 0.83742 0.0
C335 C 0.8378 0.63408 0.91746 0.0
C336 C 0.91807 0.63388 0.83723 0.0
C337 C 0.78385 0.68792 0.8624 0.0
C338 C 0.78381 0.60845 0.78331 0.0
C339 C 0.86313 0.6877 0.78313 0.0
O340 O 0.81703 0.56765 0.85371 0.0
O341 O 0.85416 0.65476 0.90346 0.0
O342 O 0.90411 0.61748 0.81654 0.0
O343 O 0.77539 0.65933 0.86121 0.0
O344 O 0.81242 0.60965 0.77488 0.0
O345 O 0.86188 0.69619 0.81171 0.0
O346 O 0.77536 0.60982 0.81189 0.0
O347 O 0.81245 0.69635 0.8611 0.0
O348 O 0.86185 0.65909 0.77474 0.0
O349 O 0.81708 0.61769 0.90353 0.0
O350 O 0.85414 0.56752 0.81669 0.0
O351 O 0.9041 0.65462 0.85354 0.0
Sc352 Sc 0.1738 0.35766 0.11529 0.0
Sc353 Sc 0.11526 0.29911 0.11543 0.0
Sc354 Sc 0.11527 0.35779 0.17383 0.0
O355 O 0.13469 0.33827 0.13477 0.0
C356 C 0.18857 0.36384 0.18854 0.0
C357 C 0.18855 0.28438 0.10942 0.0
C358 C 0.10926 0.28454 0.18873 0.0
C359 C 0.13455 0.33818 0.0544 0.0
C360 C 0.13459 0.41864 0.13448 0.0
C361 C 0.0543 0.33833 0.13468 0.0
O362 O 0.19701 0.36249 0.15995 0.0
O363 O 0.15995 0.27593 0.11073 0.0
O364 O 0.11054 0.31315 0.19713 0.0
O365 O 0.15527 0.35458 0.06832 0.0
O366 O 0.11822 0.40473 0.15521 0.0
O367 O 0.06827 0.3176 0.11836 0.0
O368 O 0.1553 0.40463 0.11816 0.0
O369 O 0.1182 0.3175 0.06841 0.0
O370 O 0.06827 0.35475 0.15535 0.0
O371 O 0.197 0.31297 0.11062 0.0
O372 O 0.15997 0.3626 0.19698 0.0
O373 O 0.11053 0.27604 0.16016 0.0
Sc374 Sc 0.11441 0.67309 0.85691 0.0
Sc375 Sc 0.11449 0.61446 0.79845 0.0
Sc376 Sc 0.17306 0.61471 0.85695 0.0
O377 O 0.1339 0.634 0.83752 0.0
C378 C 0.18768 0.688 0.8629 0.0
C379 C 0.10835 0.68769 0.78361 0.0
C380 C 0.18778 0.60855 0.78369 0.0
C381 C 0.0535 0.63377 0.83759 0.0
C382 C 0.13388 0.63405 0.9179 0.0
C383 C 0.13393 0.55365 0.83778 0.0
O384 O 0.15906 0.69639 0.86163 0.0
O385 O 0.10969 0.6591 0.77519 0.0
O386 O 0.19624 0.60993 0.81227 0.0
O387 O 0.06744 0.65449 0.85397 0.0
O388 O 0.15461 0.61772 0.90393 0.0
O389 O 0.11752 0.56752 0.81706 0.0
O390 O 0.11744 0.65468 0.90393 0.0
O391 O 0.06749 0.61741 0.81691 0.0
O392 O 0.15464 0.5677 0.85408 0.0
O393 O 0.10959 0.69617 0.8122 0.0
O394 O 0.19617 0.65943 0.86163 0.0
O395 O 0.15918 0.60973 0.77526 0.0
Sc396 Sc 0.29887 0.1148 0.85811 0.0
Sc397 Sc 0.3574 0.17338 0.85807 0.0
Sc398 Sc 0.35732 0.11488 0.79951 0.0
O399 O 0.33795 0.13427 0.83865 0.0
C400 C 0.33802 0.05387 0.83861 0.0
C401 C 0.33815 0.13417 0.91902 0.0
C402 C 0.41831 0.13418 0.83868 0.0
C403 C 0.28413 0.18806 0.8642 0.0
C404 C 0.28403 0.1088 0.78485 0.0
C405 C 0.36336 0.18817 0.78481 0.0
O406 O 0.31737 0.06782 0.85506 0.0
O407 O 0.35448 0.15488 0.90504 0.0
O408 O 0.40432 0.11782 0.81798 0.0
O409 O 0.27569 0.15947 0.86293 0.0
O410 O 0.31261 0.11014 0.77638 0.0
O411 O 0.3621 0.1966 0.81341 0.0
O412 O 0.27561 0.11004 0.81345 0.0
O413 O 0.31272 0.19653 0.86288 0.0
O414 O 0.36207 0.15958 0.77636 0.0
O415 O 0.31745 0.11777 0.90507 0.0
O416 O 0.35435 0.06788 0.81792 0.0
O417 O 0.40437 0.15489 0.85505 0.0
Sc418 Sc 0.85746 0.29871 0.85794 0.0
Sc419 Sc 0.85744 0.35715 0.79938 0.0
Sc420 Sc 0.79898 0.35729 0.85798 0.0
O421 O 0.83804 0.3378 0.83852 0.0
C422 C 0.7842 0.28401 0.86406 0.0
C423 C 0.86344 0.28385 0.78469 0.0
C424 C 0.78414 0.36319 0.78472 0.0
C425 C 0.91839 0.33791 0.83859 0.0
C426 C 0.83823 0.33797 0.91889 0.0
C427 C 0.83813 0.41821 0.83842 0.0
O428 O 0.81278 0.27555 0.8627 0.0
O429 O 0.86216 0.31243 0.77624 0.0
O430 O 0.77572 0.36196 0.81332 0.0
O431 O 0.90443 0.31722 0.85496 0.0
O432 O 0.81757 0.3544 0.90494 0.0
O433 O 0.85448 0.40417 0.81776 0.0
O434 O 0.85452 0.31722 0.90491 0.0
O435 O 0.90443 0.35423 0.81787 0.0
O436 O 0.81747 0.40429 0.85488 0.0
O437 O 0.86219 0.27544 0.81329 0.0
O438 O 0.77577 0.31261 0.86283 0.0
O439 O 0.81272 0.36186 0.77625 0.0
Sc440 Sc 0.61433 0.85755 0.79802 0.0
Sc441 Sc 0.67303 0.85738 0.85639 0.0
Sc442 Sc 0.61444 0.7989 0.85641 0.0
O443 O 0.63385 0.83803 0.83702 0.0
C444 C 0.55346 0.83817 0.83732 0.0
C445 C 0.63382 0.91839 0.83735 0.0
C446 C 0.63398 0.83796 0.9174 0.0
C447 C 0.68758 0.86352 0.7831 0.0
C448 C 0.60822 0.78431 0.78311 0.0
C449 C 0.68773 0.7841 0.86222 0.0
O450 O 0.56738 0.85458 0.81663 0.0
O451 O 0.65455 0.90436 0.85362 0.0
O452 O 0.61753 0.81731 0.90343 0.0
O453 O 0.65896 0.86229 0.77471 0.0
O454 O 0.60957 0.77582 0.81168 0.0
O455 O 0.6962 0.81269 0.86096 0.0
O456 O 0.60948 0.81291 0.77473 0.0
O457 O 0.69608 0.8622 0.81166 0.0
O458 O 0.65912 0.77568 0.86101 0.0
O459 O 0.6174 0.9045 0.81663 0.0
O460 O 0.56746 0.81742 0.85359 0.0
O461 O 0.65467 0.85433 0.90341 0.0
Sc462 Sc 0.85771 0.67316 0.11376 0.0
Sc463 Sc 0.79921 0.61455 0.11385 0.0
Sc464 Sc 0.8577 0.61481 0.17242 0.0
O465 O 0.83829 0.63409 0.13325 0.0
C466 C 0.91865 0.63406 0.1332 0.0
C467 C 0.83835 0.63385 0.05286 0.0
C468 C 0.83845 0.55371 0.1334 0.0
C469 C 0.78443 0.6878 0.10767 0.0
C470 C 0.86375 0.68811 0.187 0.0
C471 C 0.78442 0.60869 0.18711 0.0
O472 O 0.90469 0.65468 0.11675 0.0
O473 O 0.8177 0.61744 0.06686 0.0
O474 O 0.85478 0.56779 0.15407 0.0
O475 O 0.81301 0.69628 0.10898 0.0
O476 O 0.86242 0.65955 0.19549 0.0
O477 O 0.77598 0.60987 0.15852 0.0
O478 O 0.8625 0.69649 0.15839 0.0
O479 O 0.77599 0.65921 0.10898 0.0
O480 O 0.813 0.61007 0.19557 0.0
O481 O 0.8547 0.65459 0.0668 0.0
O482 O 0.90468 0.61777 0.15395 0.0
O483 O 0.81775 0.56759 0.11695 0.0
Sc484 Sc 0.35772 0.79901 0.11437 0.0
Sc485 Sc 0.35797 0.85749 0.17297 0.0
Sc486 Sc 0.2993 0.85764 0.11456 0.0
O487 O 0.33841 0.83813 0.13388 0.0
C488 C 0.3383 0.83826 0.0535 0.0
C489 C 0.41877 0.83812 0.13358 0.0
C490 C 0.33862 0.91852 0.13395 0.0
C491 C 0.36391 0.7842 0.18761 0.0
C492 C 0.28441 0.7844 0.10845 0.0
C493 C 0.28473 0.86362 0.18787 0.0
O494 O 0.35467 0.81753 0.06742 0.0
O495 O 0.4049 0.8545 0.15433 0.0
O496 O 0.31789 0.9046 0.11756 0.0
O497 O 0.36253 0.77577 0.15902 0.0
O498 O 0.27601 0.813 0.10979 0.0
O499 O 0.31334 0.86226 0.19627 0.0
O500 O 0.31299 0.77591 0.10968 0.0
O501 O 0.36272 0.81279 0.19608 0.0
O502 O 0.27623 0.8624 0.15929 0.0
O503 O 0.40473 0.81744 0.11725 0.0
O504 O 0.31768 0.85467 0.06753 0.0
O505 O 0.355 0.9045 0.15459 0.0
Sc506 Sc 0.61528 0.17299 0.11519 0.0
Sc507 Sc 0.61527 0.11432 0.17354 0.0
Sc508 Sc 0.6738 0.11447 0.115 0.0
O509 O 0.6347 0.13385 0.13449 0.0
C510 C 0.63454 0.13393 0.05413 0.0
C511 C 0.5543 0.13378 0.13444 0.0
C512 C 0.63458 0.05348 0.13413 0.0
C513 C 0.6093 0.18757 0.1885 0.0
C514 C 0.68858 0.18774 0.10918 0.0
C515 C 0.68857 0.10832 0.18824 0.0
O516 O 0.61819 0.1546 0.06817 0.0
O517 O 0.56827 0.11734 0.15507 0.0
O518 O 0.65529 0.0675 0.11782 0.0
O519 O 0.61058 0.19606 0.15994 0.0
O520 O 0.69702 0.15915 0.11037 0.0
O521 O 0.65997 0.10954 0.19669 0.0
O522 O 0.65998 0.19618 0.11048 0.0
O523 O 0.61055 0.15896 0.19687 0.0
O524 O 0.69701 0.10965 0.15966 0.0
O525 O 0.56828 0.15452 0.11814 0.0
O526 O 0.65527 0.11754 0.06803 0.0
O527 O 0.61822 0.06738 0.15488 0.0
Sc528 Sc 0.35711 0.67334 0.61432 0.0
Sc529 Sc 0.29871 0.61464 0.61427 0.0
Sc530 Sc 0.3572 0.61487 0.67285 0.0
O531 O 0.33775 0.6342 0.63373 0.0
C532 C 0.4181 0.63421 0.63359 0.0
C533 C 0.3379 0.63409 0.55335 0.0
C534 C 0.33796 0.55379 0.63376 0.0
C535 C 0.28382 0.68789 0.60825 0.0
C536 C 0.36313 0.68817 0.68758 0.0
C537 C 0.28393 0.60871 0.68755 0.0
O538 O 0.40411 0.65492 0.61728 0.0
O539 O 0.31725 0.61763 0.56729 0.0
O540 O 0.35426 0.56785 0.65446 0.0
O541 O 0.31239 0.6964 0.60958 0.0
O542 O 0.36193 0.65958 0.69601 0.0
O543 O 0.27549 0.60988 0.65895 0.0
O544 O 0.36182 0.69659 0.65899 0.0
O545 O 0.27542 0.65928 0.60949 0.0
O546 O 0.31251 0.61012 0.69601 0.0
O547 O 0.35419 0.65484 0.56735 0.0
O548 O 0.40417 0.61784 0.65431 0.0
O549 O 0.31729 0.56769 0.61729 0.0
Sc550 Sc 0.67334 0.35741 0.61527 0.0
Sc551 Sc 0.61473 0.29894 0.61525 0.0
Sc552 Sc 0.61472 0.35756 0.67371 0.0
O553 O 0.63418 0.33805 0.63466 0.0
C554 C 0.68799 0.36356 0.68855 0.0
C555 C 0.68802 0.28414 0.60935 0.0
C556 C 0.60864 0.28431 0.68854 0.0
C557 C 0.63421 0.338 0.55427 0.0
C558 C 0.63411 0.41839 0.63437 0.0
C559 C 0.55377 0.33817 0.6345 0.0
O560 O 0.69647 0.36224 0.65997 0.0
O561 O 0.65941 0.27572 0.61056 0.0
O562 O 0.60993 0.31292 0.69696 0.0
O563 O 0.65493 0.35434 0.56826 0.0
O564 O 0.61772 0.4045 0.65511 0.0
O565 O 0.56774 0.31745 0.61816 0.0
O566 O 0.65484 0.40437 0.61809 0.0
O567 O 0.61776 0.31737 0.56824 0.0
O568 O 0.56775 0.35457 0.65519 0.0
O569 O 0.6965 0.31272 0.61065 0.0
O570 O 0.65939 0.36232 0.69695 0.0
O571 O 0.60993 0.27583 0.65996 0.0
Sc572 Sc 0.35788 0.29908 0.35807 0.0
Sc573 Sc 0.35797 0.35752 0.29949 0.0
Sc574 Sc 0.29941 0.35767 0.35799 0.0
O575 O 0.3385 0.33818 0.3386 0.0
C576 C 0.28459 0.28442 0.36409 0.0
C577 C 0.36397 0.28423 0.28483 0.0
C578 C 0.2847 0.36361 0.28471 0.0
C579 C 0.41887 0.33822 0.33876 0.0
C580 C 0.33851 0.33833 0.41899 0.0
C581 C 0.33865 0.41856 0.33855 0.0
O582 O 0.31317 0.27596 0.36281 0.0
O583 O 0.36272 0.31281 0.27637 0.0
O584 O 0.27625 0.3624 0.31329 0.0
O585 O 0.40487 0.31754 0.35513 0.0
O586 O 0.31786 0.35473 0.40499 0.0
O587 O 0.355 0.40453 0.31789 0.0
O588 O 0.35488 0.31762 0.40504 0.0
O589 O 0.40493 0.35457 0.31804 0.0
O590 O 0.31796 0.40464 0.35498 0.0
O591 O 0.36264 0.27582 0.31342 0.0
O592 O 0.27616 0.31302 0.36277 0.0
O593 O 0.3133 0.36225 0.27627 0.0
Sc594 Sc 0.61514 0.67312 0.35643 0.0
Sc595 Sc 0.61502 0.61437 0.2981 0.0
Sc596 Sc 0.67366 0.6146 0.35655 0.0
O597 O 0.63452 0.63395 0.33711 0.0
C598 C 0.68844 0.68788 0.36236 0.0
C599 C 0.60906 0.68762 0.28313 0.0
C600 C 0.6883 0.60838 0.28328 0.0
C601 C 0.55412 0.63388 0.3373 0.0
C602 C 0.63445 0.63408 0.41745 0.0
C603 C 0.63444 0.55356 0.33747 0.0
O604 O 0.65984 0.69631 0.3611 0.0
O605 O 0.61025 0.65899 0.27476 0.0
O606 O 0.69678 0.60975 0.31186 0.0
O607 O 0.56814 0.65465 0.35354 0.0
O608 O 0.65518 0.61769 0.40353 0.0
O609 O 0.61802 0.56744 0.31675 0.0
O610 O 0.6181 0.65475 0.40344 0.0
O611 O 0.56804 0.6174 0.31666 0.0
O612 O 0.65517 0.56762 0.35374 0.0
O613 O 0.6104 0.69614 0.31169 0.0
O614 O 0.69687 0.65929 0.36116 0.0
O615 O 0.65969 0.60958 0.27487 0.0
Sc616 Sc 0.29912 0.61492 0.35694 0.0
Sc617 Sc 0.35779 0.67334 0.35702 0.0
Sc618 Sc 0.3577 0.61481 0.29847 0.0
O619 O 0.33829 0.63428 0.33756 0.0
C620 C 0.3383 0.55394 0.33774 0.0
C621 C 0.33828 0.63422 0.41795 0.0
C622 C 0.4187 0.63407 0.33766 0.0
C623 C 0.28451 0.6882 0.36296 0.0
C624 C 0.28442 0.60886 0.28366 0.0
C625 C 0.36385 0.68807 0.28374 0.0
O626 O 0.31759 0.56794 0.35405 0.0
O627 O 0.35476 0.65485 0.40401 0.0
O628 O 0.40468 0.61773 0.31696 0.0
O629 O 0.27601 0.65963 0.36162 0.0
O630 O 0.31303 0.6101 0.27525 0.0
O631 O 0.3626 0.69651 0.31233 0.0
O632 O 0.27597 0.61015 0.31224 0.0
O633 O 0.31313 0.6966 0.36176 0.0
O634 O 0.36251 0.65947 0.27529 0.0
O635 O 0.31754 0.61792 0.40393 0.0
O636 O 0.35468 0.56785 0.31701 0.0
O637 O 0.40477 0.65477 0.35406 0.0
Sc638 Sc 0.61519 0.35704 0.29932 0.0
Sc639 Sc 0.67365 0.35729 0.35793 0.0
Sc640 Sc 0.61517 0.29866 0.35794 0.0
O641 O 0.63459 0.33775 0.33849 0.0
C642 C 0.55425 0.33783 0.33856 0.0
C643 C 0.63445 0.41815 0.33835 0.0
C644 C 0.63442 0.33797 0.41887 0.0
C645 C 0.68848 0.36313 0.28466 0.0
C646 C 0.60919 0.28373 0.28471 0.0
C647 C 0.68845 0.28403 0.36405 0.0
O648 O 0.56822 0.35414 0.31783 0.0
O649 O 0.65511 0.40426 0.35484 0.0
O650 O 0.61811 0.31722 0.4049 0.0
O651 O 0.65989 0.36173 0.27619 0.0
O652 O 0.61045 0.27534 0.31331 0.0
O653 O 0.69687 0.31263 0.36278 0.0
O654 O 0.61045 0.3123 0.27624 0.0
O655 O 0.6969 0.36199 0.31327 0.0
O656 O 0.65986 0.27555 0.36274 0.0
O657 O 0.61815 0.40408 0.31766 0.0
O658 O 0.56819 0.31714 0.35494 0.0
O659 O 0.6551 0.35438 0.40491 0.0
Sc660 Sc 0.35738 0.29887 0.61535 0.0
Sc661 Sc 0.3574 0.35753 0.67378 0.0
Sc662 Sc 0.29881 0.35734 0.61529 0.0
O663 O 0.33795 0.338 0.63472 0.0
C664 C 0.33804 0.33798 0.55437 0.0
C665 C 0.41835 0.33814 0.6346 0.0
C666 C 0.33798 0.41838 0.63447 0.0
C667 C 0.36342 0.28427 0.68864 0.0
C668 C 0.28409 0.28406 0.60938 0.0
C669 C 0.28411 0.36347 0.68856 0.0
O670 O 0.35442 0.31731 0.56836 0.0
O671 O 0.40438 0.35457 0.65525 0.0
O672 O 0.31727 0.40434 0.61817 0.0
O673 O 0.36212 0.27578 0.66006 0.0
O674 O 0.27563 0.31264 0.61063 0.0
O675 O 0.31272 0.36227 0.69698 0.0
O676 O 0.31269 0.27564 0.61063 0.0
O677 O 0.36219 0.31288 0.69704 0.0
O678 O 0.27565 0.36213 0.65998 0.0
O679 O 0.40437 0.31739 0.6183 0.0
O680 O 0.3173 0.35432 0.56832 0.0
O681 O 0.35439 0.40449 0.65519 0.0
Sc682 Sc 0.61442 0.6732 0.61371 0.0
Sc683 Sc 0.61441 0.61484 0.67237 0.0
Sc684 Sc 0.67294 0.61465 0.61386 0.0
O685 O 0.63384 0.63415 0.63323 0.0
C686 C 0.63382 0.63389 0.55284 0.0
C687 C 0.55347 0.63403 0.63312 0.0
C688 C 0.63375 0.55376 0.63338 0.0
C689 C 0.60835 0.68815 0.68693 0.0
C690 C 0.6877 0.68791 0.60766 0.0
C691 C 0.68768 0.6088 0.68714 0.0
O692 O 0.61743 0.6546 0.56676 0.0
O693 O 0.56745 0.61773 0.65385 0.0
O694 O 0.65442 0.56768 0.61693 0.0
O695 O 0.60965 0.69653 0.65833 0.0
O696 O 0.69614 0.65932 0.60903 0.0
O697 O 0.65909 0.61017 0.69558 0.0
O698 O 0.65911 0.69636 0.60892 0.0
O699 O 0.60964 0.65958 0.69542 0.0
O700 O 0.69613 0.60998 0.65855 0.0
O701 O 0.56743 0.6547 0.61671 0.0
O702 O 0.65449 0.61753 0.56686 0.0
O703 O 0.6174 0.56781 0.65404 0.0
C704 C 0.10713 0.26818 0.24532 0.0
C705 C 0.10738 0.25998 0.21334 0.0
H706 H 0.10741 0.25223 0.29289 0.0
C707 C 0.10692 0.22799 0.20515 0.0
H708 H 0.10743 0.29256 0.25255 0.0
C709 C 0.10691 0.20481 0.22834 0.0
C710 C 0.10735 0.21301 0.26031 0.0
H711 H 0.10705 0.22075 0.18078 0.0
H712 H 0.10703 0.18043 0.2211 0.0
C713 C 0.10712 0.245 0.26851 0.0
C714 C 0.74516 0.10631 0.20465 0.0
C715 C 0.71317 0.1065 0.21283 0.0
H716 H 0.79273 0.10679 0.22063 0.0
C717 C 0.70496 0.10611 0.2448 0.0
H718 H 0.7524 0.10657 0.18028 0.0
C719 C 0.72814 0.10624 0.268 0.0
C720 C 0.76013 0.10677 0.25982 0.0
H721 H 0.68057 0.10619 0.25202 0.0
H722 H 0.7209 0.10641 0.29237 0.0
C723 C 0.76835 0.10645 0.22784 0.0
C724 C 0.86628 0.72776 0.26672 0.0
C725 C 0.86587 0.75974 0.25853 0.0
H726 H 0.86604 0.68019 0.25077 0.0
C727 C 0.86609 0.76792 0.22655 0.0
H728 H 0.86617 0.72054 0.29109 0.0
C729 C 0.86601 0.74472 0.20336 0.0
C730 C 0.86571 0.71274 0.21156 0.0
H731 H 0.86582 0.79229 0.21932 0.0
H732 H 0.86569 0.75193 0.17898 0.0
C733 C 0.8662 0.70456 0.24353 0.0
C734 C 0.24521 0.86577 0.26766 0.0
C735 C 0.21322 0.86571 0.25947 0.0
H736 H 0.29278 0.86526 0.25167 0.0
C737 C 0.20501 0.86629 0.22749 0.0
H738 H 0.25245 0.86536 0.29202 0.0
C739 C 0.22819 0.86623 0.2043 0.0
C740 C 0.26018 0.86558 0.21248 0.0
H741 H 0.18062 0.86631 0.22027 0.0
H742 H 0.22094 0.86621 0.17993 0.0
C743 C 0.2684 0.8657 0.24446 0.0
C744 C 0.10586 0.76743 0.74405 0.0
C745 C 0.10633 0.75923 0.71207 0.0
H746 H 0.10601 0.75148 0.79159 0.0
C747 C 0.10612 0.72725 0.70385 0.0
H748 H 0.10595 0.7918 0.75129 0.0
C749 C 0.10616 0.70406 0.72704 0.0
C750 C 0.1064 0.71226 0.75902 0.0
H751 H 0.10643 0.72003 0.67948 0.0
H752 H 0.10649 0.67969 0.7198 0.0
C753 C 0.10589 0.74424 0.76722 0.0
C754 C 0.20425 0.10632 0.74527 0.0
C755 C 0.21246 0.10662 0.71329 0.0
H756 H 0.22021 0.10666 0.79283 0.0
C757 C 0.24445 0.10633 0.70511 0.0
H758 H 0.17986 0.10649 0.75248 0.0
C759 C 0.26764 0.10643 0.7283 0.0
C760 C 0.25943 0.10683 0.76027 0.0
H761 H 0.25169 0.10651 0.68074 0.0
H762 H 0.29202 0.10668 0.72108 0.0
C763 C 0.22744 0.10642 0.76846 0.0
C764 C 0.86555 0.22726 0.7683 0.0
C765 C 0.86531 0.25924 0.76011 0.0
H766 H 0.86522 0.17969 0.75231 0.0
C767 C 0.86576 0.26743 0.72814 0.0
H768 H 0.86525 0.22003 0.79267 0.0
C769 C 0.86574 0.24424 0.70495 0.0
C770 C 0.86527 0.21226 0.71312 0.0
H771 H 0.86564 0.2918 0.72092 0.0
H772 H 0.86561 0.25147 0.68058 0.0
C773 C 0.86553 0.20406 0.7451 0.0
C774 C 0.72711 0.8654 0.7033 0.0
C775 C 0.7591 0.86517 0.7115 0.0
H776 H 0.67953 0.86517 0.71928 0.0
C777 C 0.76731 0.86573 0.74347 0.0
H778 H 0.71988 0.86502 0.67893 0.0
C779 C 0.74413 0.86583 0.76666 0.0
C780 C 0.71214 0.86536 0.75848 0.0
H781 H 0.79169 0.86563 0.7507 0.0
H782 H 0.75137 0.86579 0.79102 0.0
C783 C 0.70392 0.86549 0.7265 0.0
C784 C 0.26832 0.1068 0.24528 0.0
C785 C 0.2601 0.10704 0.2133 0.0
H786 H 0.25237 0.10716 0.29284 0.0
C787 C 0.22811 0.10666 0.20512 0.0
H788 H 0.2927 0.10704 0.25249 0.0
C789 C 0.20493 0.10673 0.22831 0.0
C790 C 0.21314 0.10718 0.26028 0.0
H791 H 0.22086 0.10679 0.18075 0.0
H792 H 0.18054 0.10691 0.22108 0.0
C793 C 0.24513 0.10687 0.26847 0.0
C794 C 0.86609 0.24478 0.26834 0.0
C795 C 0.86593 0.21279 0.26013 0.0
H796 H 0.86573 0.29234 0.25239 0.0
C797 C 0.86649 0.2046 0.22816 0.0
H798 H 0.86571 0.252 0.29271 0.0
C799 C 0.86651 0.22778 0.20498 0.0
C800 C 0.86596 0.25976 0.21318 0.0
H801 H 0.86644 0.18022 0.22091 0.0
H802 H 0.86647 0.22054 0.1806 0.0
C803 C 0.86611 0.26797 0.24516 0.0
C804 C 0.74509 0.86542 0.20333 0.0
C805 C 0.71311 0.86503 0.21152 0.0
H806 H 0.79267 0.86535 0.21932 0.0
C807 C 0.7049 0.86545 0.2435 0.0
H808 H 0.75232 0.86515 0.17896 0.0
C809 C 0.72809 0.86557 0.26669 0.0
C810 C 0.76008 0.86527 0.2585 0.0
H811 H 0.68052 0.86522 0.25072 0.0
H812 H 0.72085 0.86542 0.29105 0.0
C813 C 0.76829 0.86554 0.22653 0.0
C814 C 0.10675 0.72803 0.26721 0.0
C815 C 0.10729 0.76001 0.25903 0.0
H816 H 0.10673 0.68047 0.25124 0.0
C817 C 0.10707 0.76821 0.22706 0.0
H818 H 0.10685 0.7208 0.29158 0.0
C819 C 0.10699 0.74501 0.20386 0.0
C820 C 0.10714 0.71303 0.21205 0.0
H821 H 0.10743 0.79258 0.21985 0.0
H822 H 0.10731 0.75223 0.17949 0.0
C823 C 0.10668 0.70484 0.24402 0.0
C824 C 0.24414 0.86561 0.70424 0.0
C825 C 0.21215 0.86514 0.71242 0.0
H826 H 0.2917 0.8656 0.72022 0.0
C827 C 0.20393 0.86548 0.7444 0.0
H828 H 0.25138 0.86541 0.67988 0.0
C829 C 0.22712 0.8656 0.7676 0.0
C830 C 0.25911 0.86537 0.75941 0.0
H831 H 0.17955 0.86518 0.75161 0.0
H832 H 0.21988 0.86537 0.79196 0.0
C833 C 0.26732 0.86572 0.72744 0.0
C834 C 0.10622 0.26743 0.72835 0.0
C835 C 0.10673 0.25925 0.76033 0.0
H836 H 0.10628 0.25145 0.6808 0.0
C837 C 0.1065 0.22727 0.76853 0.0
H838 H 0.10633 0.2918 0.72112 0.0
C839 C 0.10647 0.20407 0.74534 0.0
C840 C 0.10667 0.21226 0.71336 0.0
H841 H 0.10684 0.22006 0.7929 0.0
H842 H 0.10679 0.1797 0.75256 0.0
C843 C 0.10619 0.24423 0.70517 0.0
C844 C 0.72735 0.10652 0.70463 0.0
C845 C 0.75934 0.10667 0.71282 0.0
H846 H 0.67978 0.10696 0.7206 0.0
C847 C 0.76756 0.1062 0.74479 0.0
H848 H 0.72011 0.10683 0.68026 0.0
C849 C 0.74437 0.10627 0.76798 0.0
C850 C 0.71238 0.10682 0.7598 0.0
H851 H 0.79194 0.10625 0.75201 0.0
H852 H 0.75161 0.10638 0.79235 0.0
C853 C 0.70416 0.10659 0.72782 0.0
C854 C 0.86544 0.74425 0.76671 0.0
C855 C 0.86498 0.71226 0.75852 0.0
H856 H 0.8653 0.7918 0.75077 0.0
C857 C 0.86516 0.70405 0.72653 0.0
H858 H 0.86536 0.75149 0.79108 0.0
C859 C 0.86512 0.72725 0.70335 0.0
C860 C 0.8649 0.75923 0.71155 0.0
H861 H 0.86484 0.67968 0.71931 0.0
H862 H 0.86478 0.72002 0.67897 0.0
C863 C 0.8654 0.76743 0.74353 0.0
C864 C 0.2281 0.20461 0.10729 0.0
C865 C 0.26009 0.2128 0.10762 0.0
H866 H 0.18053 0.22058 0.10748 0.0
C867 C 0.26832 0.24478 0.10725 0.0
H868 H 0.22085 0.18024 0.10752 0.0
C869 C 0.24513 0.26798 0.10723 0.0
C870 C 0.21314 0.25979 0.10758 0.0
H871 H 0.2927 0.252 0.10745 0.0
H872 H 0.25237 0.29235 0.10742 0.0
C873 C 0.20492 0.22781 0.10727 0.0
C874 C 0.20402 0.74459 0.86512 0.0
C875 C 0.21224 0.71262 0.86483 0.0
H876 H 0.21997 0.79217 0.86492 0.0
C877 C 0.24423 0.70445 0.86531 0.0
H878 H 0.17964 0.7518 0.8648 0.0
C879 C 0.26742 0.72766 0.86538 0.0
C880 C 0.2592 0.75963 0.86497 0.0
H881 H 0.25148 0.68009 0.86516 0.0
H882 H 0.2918 0.72045 0.86528 0.0
C883 C 0.22721 0.7678 0.86519 0.0
C884 C 0.26775 0.24462 0.86649 0.0
C885 C 0.25954 0.21264 0.86612 0.0
H886 H 0.2518 0.29218 0.86627 0.0
C887 C 0.22756 0.20443 0.86646 0.0
H888 H 0.29214 0.25185 0.86629 0.0
C889 C 0.20437 0.22761 0.86645 0.0
C890 C 0.21258 0.2596 0.8661 0.0
H891 H 0.22032 0.18006 0.86624 0.0
H892 H 0.17999 0.22038 0.86622 0.0
C893 C 0.24457 0.2678 0.86648 0.0
C894 C 0.70442 0.24444 0.86637 0.0
C895 C 0.71261 0.21246 0.86586 0.0
H896 H 0.7204 0.292 0.86633 0.0
C897 C 0.74459 0.20426 0.86611 0.0
H898 H 0.68004 0.25167 0.86625 0.0
C899 C 0.76779 0.22745 0.86616 0.0
C900 C 0.7596 0.25943 0.86595 0.0
H901 H 0.75181 0.17988 0.86577 0.0
H902 H 0.79217 0.22022 0.86585 0.0
C903 C 0.72762 0.26763 0.86642 0.0
C904 C 0.70409 0.72753 0.86454 0.0
C905 C 0.71231 0.75951 0.86408 0.0
H906 H 0.72003 0.67996 0.86448 0.0
C907 C 0.7443 0.7677 0.86435 0.0
H908 H 0.6797 0.72031 0.86439 0.0
C909 C 0.76748 0.7445 0.86441 0.0
C910 C 0.75926 0.71252 0.86419 0.0
H911 H 0.75155 0.79207 0.86405 0.0
H912 H 0.79187 0.75172 0.86414 0.0
C913 C 0.72727 0.70433 0.86459 0.0
C914 C 0.76805 0.74435 0.10533 0.0
C915 C 0.75984 0.71237 0.10569 0.0
H916 H 0.7521 0.79191 0.1055 0.0
C917 C 0.72785 0.70416 0.10528 0.0
H918 H 0.79243 0.75159 0.10557 0.0
C919 C 0.70466 0.72735 0.10524 0.0
C920 C 0.71287 0.75933 0.1056 0.0
H921 H 0.72062 0.67979 0.10549 0.0
H922 H 0.68028 0.72012 0.10542 0.0
C923 C 0.74486 0.76754 0.10528 0.0
C924 C 0.20462 0.74484 0.10614 0.0
C925 C 0.21282 0.71286 0.10631 0.0
H926 H 0.2206 0.79241 0.10658 0.0
C927 C 0.2448 0.70466 0.10586 0.0
H928 H 0.18024 0.75207 0.10644 0.0
C929 C 0.268 0.72785 0.10595 0.0
C930 C 0.2598 0.75983 0.10649 0.0
H931 H 0.25202 0.68029 0.10593 0.0
H932 H 0.29237 0.72062 0.10607 0.0
C933 C 0.22782 0.76803 0.10623 0.0
C934 C 0.70496 0.24431 0.10694 0.0
C935 C 0.71318 0.21234 0.10736 0.0
H936 H 0.7209 0.29188 0.10712 0.0
C937 C 0.74517 0.20416 0.10714 0.0
H938 H 0.68058 0.25152 0.10705 0.0
C939 C 0.76836 0.22736 0.10718 0.0
C940 C 0.76014 0.25934 0.10745 0.0
H941 H 0.75241 0.17979 0.10741 0.0
H942 H 0.79274 0.22016 0.10749 0.0
C943 C 0.72815 0.26751 0.10698 0.0
C944 C 0.74425 0.60629 0.70355 0.0
C945 C 0.71226 0.60685 0.71173 0.0
H946 H 0.79182 0.60623 0.71953 0.0
C947 C 0.70404 0.6066 0.74371 0.0
H948 H 0.75148 0.60641 0.67918 0.0
C949 C 0.72723 0.60648 0.7669 0.0
C950 C 0.75922 0.60662 0.75872 0.0
H951 H 0.67966 0.60697 0.75092 0.0
H952 H 0.71999 0.60678 0.79127 0.0
C953 C 0.76743 0.60618 0.72675 0.0
C954 C 0.24457 0.36558 0.76832 0.0
C955 C 0.21258 0.36518 0.76014 0.0
H956 H 0.29214 0.36547 0.75235 0.0
C957 C 0.20436 0.36555 0.72816 0.0
H958 H 0.25181 0.36536 0.79269 0.0
C959 C 0.22754 0.36562 0.70497 0.0
C960 C 0.25954 0.36532 0.71315 0.0
H961 H 0.17998 0.36531 0.72094 0.0
H962 H 0.2203 0.36542 0.6806 0.0
C963 C 0.26775 0.36565 0.74513 0.0
C964 C 0.26805 0.60679 0.22708 0.0
C965 C 0.25984 0.60704 0.25906 0.0
H966 H 0.2521 0.60715 0.17952 0.0
C967 C 0.22785 0.60668 0.26724 0.0
H968 H 0.29243 0.60702 0.21987 0.0
C969 C 0.20466 0.60676 0.24405 0.0
C970 C 0.21287 0.6072 0.21208 0.0
H971 H 0.22061 0.60682 0.29161 0.0
H972 H 0.18028 0.60694 0.25127 0.0
C973 C 0.24486 0.60687 0.20389 0.0
C974 C 0.74506 0.36556 0.26828 0.0
C975 C 0.71307 0.36507 0.26009 0.0
H976 H 0.79264 0.36554 0.2523 0.0
C977 C 0.70486 0.36536 0.22811 0.0
H978 H 0.7523 0.36539 0.29265 0.0
C979 C 0.72804 0.36545 0.20492 0.0
C980 C 0.76004 0.36524 0.21311 0.0
H981 H 0.68048 0.36505 0.22089 0.0
H982 H 0.7208 0.36519 0.18055 0.0
C983 C 0.76825 0.36564 0.24508 0.0
C984 C 0.24436 0.60649 0.76729 0.0
C985 C 0.21237 0.60669 0.7591 0.0
H986 H 0.29193 0.60686 0.75133 0.0
C987 C 0.20416 0.60623 0.72713 0.0
H988 H 0.2516 0.60679 0.79166 0.0
C989 C 0.22735 0.60627 0.70393 0.0
C990 C 0.25933 0.60678 0.71213 0.0
H991 H 0.17977 0.60632 0.71991 0.0
H992 H 0.22011 0.6064 0.67956 0.0
C993 C 0.26754 0.60653 0.7441 0.0
C994 C 0.76775 0.36565 0.72817 0.0
C995 C 0.75954 0.36515 0.76014 0.0
H996 H 0.7518 0.36567 0.68061 0.0
C997 C 0.72755 0.36547 0.76833 0.0
H998 H 0.79213 0.36548 0.72095 0.0
C999 C 0.70436 0.36559 0.74513 0.0
C1000 C 0.71257 0.36538 0.71316 0.0
H1001 H 0.72031 0.36515 0.7927 0.0
H1002 H 0.67997 0.36534 0.75235 0.0
C1003 C 0.74456 0.36577 0.70498 0.0
C1004 C 0.26834 0.36582 0.22814 0.0
C1005 C 0.26013 0.36556 0.26011 0.0
H1006 H 0.25239 0.3656 0.18057 0.0
C1007 C 0.22814 0.36609 0.26829 0.0
H1008 H 0.29272 0.36548 0.22092 0.0
C1009 C 0.20495 0.36616 0.2451 0.0
C1010 C 0.21316 0.36571 0.21313 0.0
H1011 H 0.2209 0.36596 0.29266 0.0
H1012 H 0.18057 0.36608 0.25232 0.0
C1013 C 0.24515 0.36589 0.20494 0.0
C1014 C 0.74486 0.60619 0.26686 0.0
C1015 C 0.71287 0.60653 0.25867 0.0
H1016 H 0.79243 0.60651 0.25088 0.0
C1017 C 0.70465 0.60625 0.2267 0.0
H1018 H 0.75211 0.60635 0.29122 0.0
C1019 C 0.72783 0.60635 0.2035 0.0
C1020 C 0.75983 0.60673 0.21169 0.0
H1021 H 0.68026 0.60646 0.21949 0.0
H1022 H 0.72059 0.60662 0.17913 0.0
C1023 C 0.76804 0.60629 0.24366 0.0
C1024 C 0.26741 0.74443 0.60592 0.0
C1025 C 0.25921 0.71245 0.60637 0.0
H1026 H 0.25145 0.79198 0.60609 0.0
C1027 C 0.22722 0.70423 0.60614 0.0
H1028 H 0.29179 0.75167 0.60603 0.0
C1029 C 0.20403 0.72741 0.60617 0.0
C1030 C 0.21223 0.7594 0.60643 0.0
H1031 H 0.22 0.67985 0.60643 0.0
H1032 H 0.17965 0.72018 0.60648 0.0
C1033 C 0.24422 0.76761 0.60595 0.0
C1034 C 0.26819 0.22788 0.36654 0.0
C1035 C 0.25999 0.25985 0.36604 0.0
H1036 H 0.25222 0.18031 0.36648 0.0
C1037 C 0.228 0.26805 0.36633 0.0
H1038 H 0.29257 0.22065 0.36639 0.0
C1039 C 0.20481 0.24486 0.36639 0.0
C1040 C 0.21301 0.21288 0.36616 0.0
H1041 H 0.22078 0.29242 0.36601 0.0
H1042 H 0.18043 0.25208 0.36611 0.0
C1043 C 0.24499 0.20468 0.36659 0.0
C1044 C 0.20477 0.72782 0.36517 0.0
C1045 C 0.213 0.7598 0.36494 0.0
H1046 H 0.22069 0.68026 0.36484 0.0
C1047 C 0.24499 0.76798 0.36536 0.0
H1048 H 0.18039 0.7206 0.3649 0.0
C1049 C 0.26817 0.74478 0.36532 0.0
C1050 C 0.25994 0.71281 0.36486 0.0
H1051 H 0.25224 0.79235 0.36524 0.0
H1052 H 0.29256 0.752 0.36517 0.0
C1053 C 0.22795 0.70462 0.36513 0.0
C1054 C 0.70483 0.74445 0.36456 0.0
C1055 C 0.71304 0.71248 0.36418 0.0
H1056 H 0.72077 0.79202 0.36437 0.0
C1057 C 0.74503 0.7043 0.36443 0.0
H1058 H 0.68044 0.75167 0.36442 0.0
C1059 C 0.76822 0.7275 0.3644 0.0
C1060 C 0.76 0.75948 0.36412 0.0
H1061 H 0.75226 0.67993 0.36418 0.0
H1062 H 0.7926 0.72029 0.36413 0.0
C1063 C 0.72801 0.76766 0.36454 0.0
C1064 C 0.74503 0.26767 0.36629 0.0
C1065 C 0.71304 0.25946 0.36595 0.0
H1066 H 0.7926 0.25172 0.36602 0.0
C1067 C 0.70484 0.22747 0.36628 0.0
H1068 H 0.75226 0.29204 0.3661 0.0
C1069 C 0.72803 0.20429 0.36623 0.0
C1070 C 0.76001 0.2125 0.36585 0.0
H1071 H 0.68046 0.22024 0.36608 0.0
H1072 H 0.7208 0.17991 0.366 0.0
C1073 C 0.76822 0.24448 0.36625 0.0
C1074 C 0.76777 0.24452 0.60716 0.0
C1075 C 0.75954 0.21255 0.60735 0.0
H1076 H 0.75185 0.29209 0.60753 0.0
C1077 C 0.72754 0.20437 0.60692 0.0
H1078 H 0.79216 0.25174 0.60745 0.0
C1079 C 0.70437 0.22757 0.60697 0.0
C1080 C 0.7126 0.25954 0.60746 0.0
H1081 H 0.72029 0.18 0.60701 0.0
H1082 H 0.67998 0.22035 0.6071 0.0
C1083 C 0.74459 0.26772 0.60721 0.0
C1084 C 0.26771 0.22747 0.60719 0.0
C1085 C 0.2595 0.25945 0.60756 0.0
H1086 H 0.25176 0.1799 0.60743 0.0
C1087 C 0.22751 0.26763 0.60729 0.0
H1088 H 0.29209 0.22026 0.60734 0.0
C1089 C 0.20432 0.24442 0.60734 0.0
C1090 C 0.21253 0.21245 0.60766 0.0
H1091 H 0.22027 0.29199 0.60753 0.0
H1092 H 0.17994 0.25164 0.60761 0.0
C1093 C 0.24452 0.20427 0.60724 0.0
C1094 C 0.76747 0.72749 0.60533 0.0
C1095 C 0.75927 0.75947 0.60559 0.0
H1096 H 0.75151 0.67993 0.60567 0.0
C1097 C 0.72728 0.76766 0.60517 0.0
H1098 H 0.79185 0.72026 0.60559 0.0
C1099 C 0.70409 0.74447 0.60521 0.0
C1100 C 0.71229 0.71249 0.60569 0.0
H1101 H 0.72006 0.79203 0.6053 0.0
H1102 H 0.67971 0.75169 0.60538 0.0
C1103 C 0.74428 0.7043 0.60537 0.0
C1104 C 0.60621 0.20459 0.72813 0.0
C1105 C 0.60671 0.21278 0.76011 0.0
H1106 H 0.60631 0.22053 0.68058 0.0
C1107 C 0.60651 0.24477 0.76832 0.0
H1108 H 0.60629 0.18021 0.72089 0.0
C1109 C 0.60652 0.26796 0.74513 0.0
C1110 C 0.60673 0.25975 0.71315 0.0
H1111 H 0.60684 0.252 0.79269 0.0
H1112 H 0.60686 0.29233 0.75236 0.0
C1113 C 0.60622 0.22777 0.70495 0.0
C1114 C 0.36517 0.76794 0.7272 0.0
C1115 C 0.3649 0.75974 0.75917 0.0
H1116 H 0.36493 0.75198 0.67963 0.0
C1117 C 0.36536 0.72776 0.76734 0.0
H1118 H 0.36487 0.79232 0.71999 0.0
C1119 C 0.3654 0.70457 0.74414 0.0
C1120 C 0.36497 0.71277 0.71217 0.0
H1121 H 0.36522 0.72052 0.79171 0.0
H1122 H 0.36528 0.6802 0.75136 0.0
C1123 C 0.3652 0.74476 0.70399 0.0
C1124 C 0.60697 0.70394 0.22652 0.0
C1125 C 0.60719 0.71216 0.2585 0.0
H1126 H 0.60732 0.71988 0.17895 0.0
C1127 C 0.60673 0.74415 0.26668 0.0
H1128 H 0.60728 0.67956 0.21931 0.0
C1129 C 0.60675 0.76732 0.24349 0.0
C1130 C 0.60723 0.75911 0.21151 0.0
H1131 H 0.60683 0.7514 0.29104 0.0
H1132 H 0.60687 0.79169 0.25072 0.0
C1133 C 0.607 0.72712 0.20332 0.0
C1134 C 0.36618 0.22764 0.26844 0.0
C1135 C 0.3659 0.25962 0.26025 0.0
H1136 H 0.36594 0.18008 0.25246 0.0
C1137 C 0.36638 0.26781 0.22828 0.0
H1138 H 0.36588 0.22042 0.29281 0.0
C1139 C 0.36641 0.24462 0.20508 0.0
C1140 C 0.36598 0.21264 0.21327 0.0
H1141 H 0.36623 0.29219 0.22105 0.0
H1142 H 0.36629 0.25185 0.18072 0.0
C1143 C 0.36622 0.20445 0.24524 0.0
C1144 C 0.36557 0.24475 0.76842 0.0
C1145 C 0.36525 0.21276 0.76023 0.0
H1146 H 0.36536 0.2923 0.75244 0.0
C1147 C 0.36565 0.20454 0.72826 0.0
H1148 H 0.36532 0.25199 0.79279 0.0
C1149 C 0.36568 0.22772 0.70507 0.0
C1150 C 0.3653 0.25971 0.71325 0.0
H1151 H 0.36547 0.18017 0.72103 0.0
H1152 H 0.36551 0.22047 0.6807 0.0
C1153 C 0.36559 0.26793 0.74523 0.0
C1154 C 0.60613 0.76794 0.72651 0.0
C1155 C 0.60632 0.75974 0.75849 0.0
H1156 H 0.60652 0.75197 0.67894 0.0
C1157 C 0.60583 0.72776 0.76667 0.0
H1158 H 0.60645 0.79232 0.7193 0.0
C1159 C 0.60587 0.70458 0.74347 0.0
C1160 C 0.6064 0.71277 0.7115 0.0
H1161 H 0.60591 0.72053 0.79103 0.0
H1162 H 0.60598 0.6802 0.7507 0.0
C1163 C 0.60617 0.74475 0.70331 0.0
C1164 C 0.60684 0.2673 0.22816 0.0
C1165 C 0.60733 0.25911 0.26013 0.0
H1166 H 0.60696 0.25135 0.1806 0.0
C1167 C 0.60717 0.22712 0.26831 0.0
H1168 H 0.60691 0.29167 0.22094 0.0
C1169 C 0.6072 0.20393 0.24511 0.0
C1170 C 0.6074 0.21213 0.21313 0.0
H1171 H 0.6075 0.2199 0.29268 0.0
H1172 H 0.60756 0.17955 0.25232 0.0
C1173 C 0.60688 0.24411 0.20496 0.0
C1174 C 0.36625 0.76781 0.24417 0.0
C1175 C 0.36581 0.75961 0.21219 0.0
H1176 H 0.36609 0.75186 0.29172 0.0
C1177 C 0.36606 0.72762 0.20399 0.0
H1178 H 0.36612 0.79219 0.2514 0.0
C1179 C 0.36605 0.70444 0.22717 0.0
C1180 C 0.36578 0.71265 0.25915 0.0
H1181 H 0.36578 0.72039 0.17961 0.0
H1182 H 0.36575 0.68007 0.21994 0.0
C1183 C 0.36624 0.74463 0.26735 0.0
C1184 C 0.11049 0.97002 0.32211 0.0
C1185 C 0.13127 0.95317 0.34145 0.0
H1186 H 0.09497 0.01498 0.30619 0.0
C1187 C 0.15066 0.96991 0.3623 0.0
H1188 H 0.09501 0.95795 0.30595 0.0
C1189 C 0.15064 0.0027 0.36245 0.0
C1190 C 0.13123 0.01956 0.34174 0.0
H1191 H 0.16678 0.95775 0.37775 0.0
H1192 H 0.16675 0.01477 0.37799 0.0
C1193 C 0.11047 0.00282 0.32226 0.0
C1194 C 0.97013 0.15021 0.36278 0.0
C1195 C 0.95336 0.13084 0.34194 0.0
H1196 H 0.01502 0.16635 0.37835 0.0
C1197 C 0.97019 0.11013 0.32249 0.0
H1198 H 0.95798 0.16627 0.37831 0.0
C1199 C 0.00299 0.11018 0.32252 0.0
C1200 C 0.01975 0.13093 0.34198 0.0
H1201 H 0.9581 0.09466 0.30633 0.0
H1202 H 0.01513 0.09474 0.30637 0.0
C1203 C 0.00293 0.15026 0.36281 0.0
C1204 C 0.86267 0.00258 0.3218 0.0
C1205 C 0.84191 0.01928 0.34131 0.0
H1206 H 0.8781 0.95776 0.30538 0.0
C1207 C 0.82246 0.00237 0.36194 0.0
H1208 H 0.8782 0.01478 0.30579 0.0
C1209 C 0.82241 0.96958 0.36171 0.0
C1210 C 0.8418 0.95289 0.34083 0.0
H1211 H 0.80635 0.01441 0.3775 0.0
H1212 H 0.80627 0.95739 0.3771 0.0
C1213 C 0.86261 0.96979 0.32156 0.0
C1214 C 0.97015 0.8624 0.32132 0.0
C1215 C 0.95332 0.84163 0.34069 0.0
H1216 H 0.01509 0.87792 0.30531 0.0
C1217 C 0.97008 0.82227 0.36152 0.0
H1218 H 0.95806 0.87786 0.30516 0.0
C1219 C 0.00288 0.82232 0.36161 0.0
C1220 C 0.01972 0.84171 0.34087 0.0
H1221 H 0.95794 0.80617 0.37699 0.0
H1222 H 0.01498 0.80624 0.37714 0.0
C1223 C 0.00295 0.86244 0.3214 0.0
C1224 C 0.10978 0.00223 0.65038 0.0
C1225 C 0.13062 0.01908 0.6311 0.0
H1226 H 0.09416 0.95728 0.66624 0.0
C1227 C 0.15004 0.00234 0.61029 0.0
H1228 H 0.09427 0.01431 0.66651 0.0
C1229 C 0.14998 0.96955 0.61013 0.0
C1230 C 0.13049 0.95269 0.63078 0.0
H1231 H 0.16621 0.0145 0.59489 0.0
H1232 H 0.1661 0.95747 0.59462 0.0
C1233 C 0.10971 0.96944 0.65022 0.0
C1234 C 0.9696 0.14984 0.61043 0.0
C1235 C 0.95278 0.13045 0.63119 0.0
H1236 H 0.01455 0.16594 0.59499 0.0
C1237 C 0.96955 0.10969 0.65062 0.0
H1238 H 0.95751 0.16594 0.59493 0.0
C1239 C 0.00235 0.10969 0.65065 0.0
C1240 C 0.01918 0.13045 0.63127 0.0
H1241 H 0.9574 0.09421 0.66672 0.0
H1242 H 0.01444 0.09421 0.66678 0.0
C1243 C 0.0024 0.14984 0.61047 0.0
C1244 C 0.82175 0.00243 0.60977 0.0
C1245 C 0.84114 0.01912 0.63067 0.0
H1246 H 0.80566 0.95761 0.59397 0.0
C1247 C 0.8619 0.00222 0.64999 0.0
H1248 H 0.80565 0.01463 0.59434 0.0
C1249 C 0.86191 0.96942 0.64976 0.0
C1250 C 0.84116 0.95273 0.63022 0.0
H1251 H 0.87738 0.01424 0.66619 0.0
H1252 H 0.87739 0.95722 0.66581 0.0
C1253 C 0.82176 0.96964 0.60955 0.0
C1254 C 0.96939 0.82194 0.60919 0.0
C1255 C 0.95256 0.84125 0.63002 0.0
H1256 H 0.01433 0.8059 0.59372 0.0
C1257 C 0.96932 0.86195 0.64954 0.0
H1258 H 0.9573 0.80589 0.5936 0.0
C1259 C 0.00212 0.86196 0.64961 0.0
C1260 C 0.01895 0.84126 0.63016 0.0
H1261 H 0.95717 0.87738 0.6657 0.0
H1262 H 0.01421 0.87738 0.66582 0.0
C1263 C 0.00219 0.82195 0.60926 0.0
C1264 C 0.32221 0.11014 0.00315 0.0
C1265 C 0.34167 0.13092 0.01991 0.0
H1266 H 0.30599 0.09462 0.95828 0.0
C1267 C 0.36241 0.15032 0.00307 0.0
H1268 H 0.30612 0.09465 0.0153 0.0
C1269 C 0.36234 0.1503 0.97028 0.0
C1270 C 0.34153 0.13088 0.95352 0.0
H1271 H 0.37794 0.16644 0.01515 0.0
H1272 H 0.37782 0.1664 0.95813 0.0
C1273 C 0.32214 0.11012 0.97036 0.0
C1274 C 0.82225 0.36205 0.97024 0.0
C1275 C 0.8416 0.34128 0.95339 0.0
H1276 H 0.80623 0.37754 0.01518 0.0
C1277 C 0.86238 0.32184 0.97014 0.0
H1278 H 0.80613 0.37757 0.95816 0.0
C1279 C 0.86243 0.32182 0.00293 0.0
C1280 C 0.84172 0.34124 0.01978 0.0
H1281 H 0.87783 0.30572 0.95799 0.0
H1282 H 0.87793 0.30569 0.01501 0.0
C1283 C 0.8223 0.36204 0.00303 0.0
C1284 C 0.60999 0.82184 0.96873 0.0
C1285 C 0.63075 0.84124 0.95192 0.0
H1286 H 0.59457 0.80572 0.01365 0.0
C1287 C 0.65022 0.86199 0.96869 0.0
H1288 H 0.59446 0.80574 0.95663 0.0
C1289 C 0.65028 0.86198 0.00148 0.0
C1290 C 0.63088 0.84122 0.0183 0.0
H1291 H 0.66632 0.87748 0.95656 0.0
H1292 H 0.66644 0.87745 0.01358 0.0
C1293 C 0.61006 0.82183 0.00152 0.0
C1294 C 0.11002 0.65028 0.00203 0.0
C1295 C 0.13083 0.6309 0.0188 0.0
H1296 H 0.09441 0.66632 0.95715 0.0
C1297 C 0.15019 0.6101 0.00198 0.0
H1298 H 0.09456 0.66641 0.01417 0.0
C1299 C 0.1501 0.61005 0.96919 0.0
C1300 C 0.13065 0.63079 0.95242 0.0
H1301 H 0.16633 0.59463 0.01407 0.0
H1302 H 0.16617 0.59453 0.95706 0.0
C1303 C 0.10993 0.65023 0.96924 0.0
C1304 C 0.32189 0.86223 0.96945 0.0
C1305 C 0.34124 0.84145 0.9526 0.0
H1306 H 0.30595 0.87778 0.0144 0.0
C1307 C 0.36208 0.82207 0.96934 0.0
H1308 H 0.30573 0.87771 0.95738 0.0
C1309 C 0.3622 0.82212 0.00213 0.0
C1310 C 0.3415 0.84154 0.01898 0.0
H1311 H 0.37753 0.80596 0.95718 0.0
H1312 H 0.37774 0.80603 0.0142 0.0
C1313 C 0.32202 0.86228 0.00224 0.0
C1314 C 0.15047 0.36226 0.00305 0.0
C1315 C 0.13114 0.34146 0.0199 0.0
H1316 H 0.16641 0.37779 0.9581 0.0
C1317 C 0.11032 0.32204 0.00316 0.0
H1318 H 0.16662 0.37777 0.01512 0.0
C1319 C 0.1102 0.32205 0.97037 0.0
C1320 C 0.13089 0.34149 0.95352 0.0
H1321 H 0.09488 0.30591 0.01532 0.0
H1322 H 0.09468 0.30592 0.9583 0.0
C1323 C 0.15035 0.36228 0.97026 0.0
C1324 C 0.65046 0.10986 0.00276 0.0
C1325 C 0.63113 0.13064 0.01963 0.0
H1326 H 0.66638 0.09433 0.9578 0.0
C1327 C 0.61032 0.15006 0.00291 0.0
H1328 H 0.6666 0.09435 0.01482 0.0
C1329 C 0.61019 0.15005 0.97012 0.0
C1330 C 0.63088 0.13062 0.95325 0.0
H1331 H 0.59488 0.16619 0.01508 0.0
H1332 H 0.59467 0.16617 0.95807 0.0
C1333 C 0.65033 0.10984 0.96997 0.0
C1334 C 0.86205 0.65016 0.96871 0.0
C1335 C 0.84123 0.63075 0.95195 0.0
H1336 H 0.87772 0.6662 0.01359 0.0
C1337 C 0.82193 0.6099 0.96878 0.0
H1338 H 0.87746 0.66633 0.95657 0.0
C1339 C 0.82209 0.60981 0.00157 0.0
C1340 C 0.84155 0.63058 0.01834 0.0
H1341 H 0.80579 0.59439 0.95669 0.0
H1342 H 0.80606 0.59426 0.01371 0.0
C1343 C 0.8622 0.65008 0.0015 0.0
C1344 C 0.00301 0.32223 0.11052 0.0
C1345 C 0.01979 0.34164 0.13132 0.0
H1346 H 0.95811 0.3061 0.09496 0.0
C1347 C 0.00297 0.3624 0.15072 0.0
H1348 H 0.01515 0.30613 0.09503 0.0
C1349 C 0.97016 0.36239 0.15067 0.0
C1350 C 0.95339 0.34161 0.13124 0.0
H1351 H 0.01507 0.37789 0.16685 0.0
H1352 H 0.95803 0.37787 0.16678 0.0
C1353 C 0.97021 0.32222 0.11048 0.0
C1354 C 0.00214 0.64985 0.86159 0.0
C1355 C 0.01897 0.63045 0.84084 0.0
H1356 H 0.9572 0.66599 0.87697 0.0
C1357 C 0.0022 0.60972 0.82135 0.0
H1358 H 0.01424 0.66593 0.87714 0.0
C1359 C 0.9694 0.60976 0.82124 0.0
C1360 C 0.95257 0.63053 0.84063 0.0
H1361 H 0.01434 0.59424 0.80525 0.0
H1362 H 0.9573 0.59431 0.80507 0.0
C1363 C 0.96934 0.64989 0.86148 0.0
C1364 C 0.3619 0.9698 0.82209 0.0
C1365 C 0.34112 0.95296 0.84145 0.0
H1366 H 0.37748 0.01475 0.80618 0.0
C1367 C 0.32179 0.96971 0.86233 0.0
H1368 H 0.37734 0.95773 0.8059 0.0
C1369 C 0.32187 0.0025 0.8625 0.0
C1370 C 0.34129 0.01935 0.84178 0.0
H1371 H 0.30567 0.95756 0.87779 0.0
H1372 H 0.30581 0.01458 0.87808 0.0
C1373 C 0.36198 0.0026 0.82226 0.0
C1374 C 0.00247 0.32198 0.86285 0.0
C1375 C 0.01928 0.34131 0.84202 0.0
H1376 H 0.95754 0.30591 0.87835 0.0
C1377 C 0.00249 0.36201 0.82254 0.0
H1378 H 0.01458 0.30594 0.87841 0.0
C1379 C 0.9697 0.36199 0.8225 0.0
C1380 C 0.95289 0.34127 0.84195 0.0
H1381 H 0.01462 0.37744 0.80639 0.0
H1382 H 0.95759 0.37741 0.80633 0.0
C1383 C 0.96967 0.32197 0.86281 0.0
C1384 C 0.60974 0.96978 0.82157 0.0
C1385 C 0.63052 0.95288 0.84086 0.0
H1386 H 0.59424 0.01478 0.80575 0.0
C1387 C 0.64993 0.96956 0.86174 0.0
H1388 H 0.59425 0.95775 0.80538 0.0
C1389 C 0.64993 0.00235 0.86196 0.0
C1390 C 0.63051 0.01926 0.8413 0.0
H1391 H 0.66604 0.95736 0.87716 0.0
H1392 H 0.66604 0.01438 0.87753 0.0
C1393 C 0.60974 0.00257 0.82179 0.0
C1394 C 0.96994 0.6101 0.14947 0.0
C1395 C 0.95316 0.63076 0.12994 0.0
H1396 H 0.01484 0.59477 0.16577 0.0
C1397 C 0.96998 0.65011 0.10915 0.0
H1398 H 0.95781 0.59465 0.1656 0.0
C1399 C 0.00278 0.65018 0.10924 0.0
C1400 C 0.01955 0.63091 0.13014 0.0
H1401 H 0.95787 0.66613 0.09356 0.0
H1402 H 0.01491 0.66625 0.09373 0.0
C1403 C 0.00274 0.61017 0.14956 0.0
C1404 C 0.36268 0.96978 0.15025 0.0
C1405 C 0.34192 0.95304 0.13077 0.0
H1406 H 0.37813 0.01464 0.16659 0.0
C1407 C 0.32247 0.9699 0.1101 0.0
H1408 H 0.3782 0.95762 0.16629 0.0
C1409 C 0.32243 0.00269 0.11027 0.0
C1410 C 0.34183 0.01943 0.13112 0.0
H1411 H 0.30636 0.95783 0.09455 0.0
H1412 H 0.30629 0.01485 0.09485 0.0
C1413 C 0.36264 0.00258 0.15042 0.0
C1414 C 0.65054 0.9695 0.10951 0.0
C1415 C 0.63115 0.9526 0.1302 0.0
H1416 H 0.66668 0.01449 0.09427 0.0
C1417 C 0.61044 0.96931 0.14976 0.0
H1418 H 0.66661 0.95746 0.09391 0.0
C1419 C 0.61048 0.0021 0.14997 0.0
C1420 C 0.63124 0.01899 0.13063 0.0
H1421 H 0.59497 0.95711 0.16582 0.0
H1422 H 0.59504 0.01413 0.16619 0.0
C1423 C 0.65058 0.0023 0.10972 0.0
C1424 C 0.10986 0.50224 0.82195 0.0
C1425 C 0.13064 0.51916 0.84126 0.0
H1426 H 0.09437 0.45723 0.8061 0.0
C1427 C 0.15006 0.5025 0.86212 0.0
H1428 H 0.09436 0.51426 0.80578 0.0
C1429 C 0.15007 0.46971 0.8623 0.0
C1430 C 0.13066 0.45278 0.84163 0.0
H1431 H 0.16617 0.51472 0.87754 0.0
H1432 H 0.1662 0.4577 0.87785 0.0
C1433 C 0.10987 0.46945 0.82214 0.0
C1434 C 0.86197 0.50226 0.82171 0.0
C1435 C 0.84113 0.51915 0.84096 0.0
H1436 H 0.87764 0.45728 0.80598 0.0
C1437 C 0.82176 0.50245 0.86184 0.0
H1438 H 0.87744 0.5143 0.80552 0.0
C1439 C 0.82188 0.46966 0.86211 0.0
C1440 C 0.84136 0.45276 0.84151 0.0
H1441 H 0.8056 0.51464 0.87723 0.0
H1442 H 0.80579 0.45761 0.87768 0.0
C1443 C 0.86209 0.46947 0.82198 0.0
C1444 C 0.15059 0.46985 0.11014 0.0
C1445 C 0.13123 0.45313 0.13101 0.0
H1446 H 0.1666 0.51471 0.09438 0.0
C1447 C 0.11042 0.46999 0.15032 0.0
H1448 H 0.16673 0.45768 0.09471 0.0
C1449 C 0.11034 0.50279 0.15012 0.0
C1450 C 0.13106 0.51952 0.13061 0.0
H1451 H 0.09496 0.45793 0.1665 0.0
H1452 H 0.09482 0.51496 0.16617 0.0
C1453 C 0.15051 0.50265 0.10994 0.0
C1454 C 0.86254 0.46976 0.15006 0.0
C1455 C 0.84173 0.45282 0.13082 0.0
H1456 H 0.87809 0.51479 0.16581 0.0
C1457 C 0.8223 0.46945 0.10994 0.0
H1458 H 0.87806 0.45776 0.16624 0.0
C1459 C 0.82232 0.50224 0.10969 0.0
C1460 C 0.84177 0.51919 0.1303 0.0
H1461 H 0.80617 0.45722 0.09456 0.0
H1462 H 0.80619 0.51424 0.09413 0.0
C1463 C 0.86257 0.50255 0.14981 0.0
C1464 C 0.36213 0.65023 0.50213 0.0
C1465 C 0.34129 0.63081 0.51885 0.0
H1466 H 0.37776 0.66639 0.4573 0.0
C1467 C 0.32191 0.61007 0.50196 0.0
H1468 H 0.3776 0.66632 0.51432 0.0
C1469 C 0.32201 0.61011 0.46917 0.0
C1470 C 0.34149 0.63088 0.45246 0.0
H1471 H 0.30575 0.59458 0.51401 0.0
H1472 H 0.30592 0.59463 0.45699 0.0
C1473 C 0.36222 0.65027 0.46934 0.0
C1474 C 0.86227 0.82192 0.46877 0.0
C1475 C 0.84156 0.84133 0.45193 0.0
H1476 H 0.87763 0.8058 0.51371 0.0
C1477 C 0.82211 0.86211 0.46869 0.0
H1478 H 0.87779 0.8058 0.45669 0.0
C1479 C 0.82202 0.8621 0.50148 0.0
C1480 C 0.84137 0.84133 0.51832 0.0
H1481 H 0.80604 0.87761 0.45654 0.0
H1482 H 0.80588 0.8776 0.51355 0.0
C1483 C 0.86218 0.82192 0.50156 0.0
C1484 C 0.6102 0.32189 0.50292 0.0
C1485 C 0.63097 0.34129 0.51976 0.0
H1486 H 0.59476 0.30579 0.45799 0.0
C1487 C 0.65043 0.36204 0.503 0.0
H1488 H 0.59467 0.3058 0.51501 0.0
C1489 C 0.65048 0.36204 0.47021 0.0
C1490 C 0.63107 0.34129 0.45337 0.0
H1491 H 0.66654 0.37753 0.51515 0.0
H1492 H 0.66663 0.37752 0.45813 0.0
C1493 C 0.61025 0.32189 0.47013 0.0
C1494 C 0.11016 0.1502 0.50312 0.0
C1495 C 0.13087 0.13074 0.51992 0.0
H1496 H 0.09479 0.16642 0.45822 0.0
C1497 C 0.15031 0.11001 0.50311 0.0
H1498 H 0.09464 0.16629 0.51524 0.0
C1499 C 0.15039 0.11008 0.47032 0.0
C1500 C 0.13104 0.1309 0.45353 0.0
H1501 H 0.16638 0.09448 0.51523 0.0
H1502 H 0.16653 0.09461 0.45821 0.0
C1503 C 0.11024 0.15027 0.47033 0.0
C1504 C 0.36229 0.32202 0.50311 0.0
C1505 C 0.34144 0.34136 0.51989 0.0
H1506 H 0.37798 0.30606 0.45822 0.0
C1507 C 0.32209 0.36216 0.50309 0.0
H1508 H 0.37775 0.30589 0.51523 0.0
C1509 C 0.32223 0.36227 0.4703 0.0
C1510 C 0.34172 0.34157 0.45351 0.0
H1511 H 0.30592 0.37761 0.51519 0.0
H1512 H 0.30615 0.37779 0.45817 0.0
C1513 C 0.36243 0.32213 0.47032 0.0
C1514 C 0.11013 0.82201 0.46924 0.0
C1515 C 0.13095 0.84147 0.45256 0.0
H1516 H 0.09448 0.80581 0.51405 0.0
C1517 C 0.15027 0.86224 0.46947 0.0
H1518 H 0.0947 0.80589 0.45703 0.0
C1519 C 0.15014 0.8622 0.50226 0.0
C1520 C 0.13068 0.84138 0.51894 0.0
H1521 H 0.16641 0.87778 0.45745 0.0
H1522 H 0.16619 0.8777 0.51446 0.0
C1523 C 0.11 0.82196 0.50203 0.0
C1524 C 0.61014 0.6501 0.46867 0.0
C1525 C 0.63102 0.63075 0.45194 0.0
H1526 H 0.59439 0.6661 0.51353 0.0
C1527 C 0.65035 0.60996 0.46879 0.0
H1528 H 0.59469 0.66621 0.45651 0.0
C1529 C 0.65017 0.60989 0.50158 0.0
C1530 C 0.63065 0.6306 0.51832 0.0
H1531 H 0.66654 0.59451 0.45672 0.0
H1532 H 0.66623 0.59439 0.51374 0.0
C1533 C 0.60996 0.65003 0.50146 0.0
C1534 C 0.86229 0.15011 0.50292 0.0
C1535 C 0.84144 0.13072 0.51965 0.0
H1536 H 0.87796 0.16618 0.45807 0.0
C1537 C 0.82208 0.10994 0.50279 0.0
H1538 H 0.87775 0.16622 0.51509 0.0
C1539 C 0.8222 0.10991 0.47 0.0
C1540 C 0.84169 0.13066 0.45327 0.0
H1541 H 0.80591 0.09446 0.51484 0.0
H1542 H 0.80612 0.09441 0.45783 0.0
C1543 C 0.86241 0.15008 0.47013 0.0
C1544 C 0.32236 0.50275 0.36214 0.0
C1545 C 0.34169 0.51946 0.34123 0.0
H1546 H 0.3064 0.4579 0.37795 0.0
C1547 C 0.36251 0.50261 0.32193 0.0
H1548 H 0.30623 0.51492 0.37757 0.0
C1549 C 0.36262 0.46982 0.32216 0.0
C1550 C 0.34191 0.45309 0.34169 0.0
H1551 H 0.37795 0.51466 0.30573 0.0
H1552 H 0.37814 0.45764 0.30612 0.0
C1553 C 0.32247 0.46996 0.36237 0.0
C1554 C 0.61038 0.50213 0.32167 0.0
C1555 C 0.63114 0.51907 0.34098 0.0
H1556 H 0.59489 0.4571 0.30587 0.0
C1557 C 0.65053 0.50243 0.36188 0.0
H1558 H 0.5949 0.51413 0.30547 0.0
C1559 C 0.65053 0.46963 0.36211 0.0
C1560 C 0.63113 0.45268 0.34145 0.0
H1561 H 0.66663 0.51466 0.37731 0.0
H1562 H 0.66663 0.45763 0.37769 0.0
C1563 C 0.61037 0.46934 0.32191 0.0
C1564 C 0.32191 0.50234 0.60992 0.0
C1565 C 0.34129 0.51927 0.63062 0.0
H1566 H 0.30581 0.45733 0.59466 0.0
C1567 C 0.36203 0.50259 0.65016 0.0
H1568 H 0.30582 0.51436 0.59434 0.0
C1569 C 0.36203 0.46979 0.65035 0.0
C1570 C 0.34128 0.45287 0.63101 0.0
H1571 H 0.37751 0.5148 0.66623 0.0
H1572 H 0.37749 0.45778 0.66655 0.0
C1573 C 0.32191 0.46955 0.61011 0.0
C1574 C 0.60989 0.46974 0.65011 0.0
C1575 C 0.63071 0.45286 0.63083 0.0
H1576 H 0.59426 0.51472 0.66586 0.0
C1577 C 0.65005 0.46955 0.60991 0.0
H1578 H 0.59445 0.4577 0.66632 0.0
C1579 C 0.64994 0.50234 0.60964 0.0
C1580 C 0.63049 0.51923 0.63028 0.0
H1581 H 0.66618 0.45736 0.5945 0.0
H1582 H 0.666 0.51438 0.59404 0.0
C1583 C 0.60978 0.50253 0.64984 0.0
C1584 C 0.46964 0.15024 0.86274 0.0
C1585 C 0.45281 0.13083 0.84198 0.0
H1586 H 0.51458 0.16635 0.87818 0.0
C1587 C 0.46957 0.11003 0.82258 0.0
H1588 H 0.45755 0.16637 0.87824 0.0
C1589 C 0.50237 0.11002 0.82255 0.0
C1590 C 0.51919 0.13081 0.84193 0.0
H1591 H 0.45742 0.09453 0.80649 0.0
H1592 H 0.51446 0.09451 0.80644 0.0
C1593 C 0.50243 0.15023 0.86271 0.0
C1594 C 0.50221 0.82203 0.8615 0.0
C1595 C 0.51896 0.8415 0.84076 0.0
H1596 H 0.45732 0.80588 0.87706 0.0
C1597 C 0.50211 0.86235 0.82149 0.0
H1598 H 0.51436 0.80585 0.87689 0.0
C1599 C 0.46931 0.86236 0.8216 0.0
C1600 C 0.45255 0.84153 0.84097 0.0
H1601 H 0.51419 0.87789 0.80541 0.0
H1602 H 0.45715 0.87792 0.80559 0.0
C1603 C 0.46941 0.82204 0.86161 0.0
C1604 C 0.47015 0.10984 0.15056 0.0
C1605 C 0.45338 0.13069 0.13123 0.0
H1606 H 0.51505 0.09421 0.16657 0.0
C1607 C 0.4702 0.15009 0.11049 0.0
H1608 H 0.45801 0.09434 0.16664 0.0
C1609 C 0.503 0.15001 0.11044 0.0
C1610 C 0.51978 0.13053 0.13114 0.0
H1611 H 0.4581 0.16626 0.09505 0.0
H1612 H 0.51514 0.16613 0.09498 0.0
C1613 C 0.50295 0.10976 0.15052 0.0
C1614 C 0.50297 0.86208 0.14939 0.0
C1615 C 0.51966 0.84123 0.12997 0.0
H1616 H 0.45814 0.8777 0.1656 0.0
C1617 C 0.50276 0.82184 0.10925 0.0
H1618 H 0.51517 0.87757 0.16545 0.0
C1619 C 0.46996 0.82192 0.10934 0.0
C1620 C 0.45327 0.84139 0.13014 0.0
H1621 H 0.51479 0.80568 0.09375 0.0
H1622 H 0.45776 0.80582 0.09389 0.0
C1623 C 0.47017 0.86216 0.14947 0.0
C1624 C 0.46967 0.36231 0.65057 0.0
C1625 C 0.45286 0.34146 0.63124 0.0
H1626 H 0.51461 0.37787 0.66659 0.0
C1627 C 0.46964 0.32199 0.61052 0.0
H1628 H 0.45757 0.37785 0.66664 0.0
C1629 C 0.50244 0.322 0.61049 0.0
C1630 C 0.51926 0.34148 0.63119 0.0
H1631 H 0.4575 0.30583 0.59508 0.0
H1632 H 0.51454 0.30584 0.59504 0.0
C1633 C 0.50248 0.36232 0.65054 0.0
C1634 C 0.4701 0.65016 0.36157 0.0
C1635 C 0.45321 0.6307 0.34092 0.0
H1636 H 0.51509 0.66626 0.37688 0.0
C1637 C 0.46992 0.60984 0.32153 0.0
H1638 H 0.45806 0.66634 0.37704 0.0
C1639 C 0.50272 0.60979 0.32143 0.0
C1640 C 0.51961 0.63061 0.34072 0.0
H1641 H 0.45773 0.5943 0.30551 0.0
H1642 H 0.51477 0.59423 0.30534 0.0
C1643 C 0.5029 0.65011 0.36148 0.0
C1644 C 0.50294 0.32191 0.36274 0.0
C1645 C 0.51976 0.34125 0.34194 0.0
H1646 H 0.458 0.30594 0.3783 0.0
C1647 C 0.503 0.36209 0.32259 0.0
H1648 H 0.51503 0.30576 0.3782 0.0
C1649 C 0.47021 0.3622 0.32266 0.0
C1650 C 0.45338 0.34148 0.34207 0.0
H1651 H 0.51515 0.37755 0.30647 0.0
H1652 H 0.45811 0.37774 0.30658 0.0
C1653 C 0.47014 0.32202 0.3628 0.0
C1654 C 0.46941 0.61001 0.64943 0.0
C1655 C 0.45258 0.63084 0.63014 0.0
H1656 H 0.51435 0.59441 0.66533 0.0
C1657 C 0.46933 0.65024 0.60933 0.0
H1658 H 0.45732 0.59451 0.66556 0.0
C1659 C 0.50212 0.65018 0.6092 0.0
C1660 C 0.51896 0.63073 0.62987 0.0
H1661 H 0.45718 0.66639 0.59392 0.0
H1662 H 0.51421 0.6663 0.59369 0.0
C1663 C 0.5022 0.60995 0.6493 0.0
loop_
_geom_bond_atom_site_label_1
_geom_bond_atom_site_label_2
_geom_bond_distance
_geom_bond_site_symmetry_2
_ccdc_geom_bond_type
Sc0 O3 2.025 . S
Sc0 O10 2.105 . S
Sc0 O13 2.105 . S
Sc0 O16 2.105 . S
Sc0 O19 2.105 . S
Sc1 O3 2.025 . S
Sc1 O11 2.105 . S
Sc1 O15 2.105 . S
Sc1 O17 2.105 . S
Sc1 O21 2.105 . S
Sc2 O3 2.025 . S
Sc2 O12 2.105 . S
Sc2 O14 2.105 . S
Sc2 O18 2.105 . S
Sc2 O20 2.105 . S
O3 Sc0 2.025 . S
O3 Sc1 2.025 . S
O3 Sc2 2.025 . S
C4 O10 1.268 . S
C4 O20 1.268 . S
C5 O11 1.268 . S
C5 O19 1.268 . S
C6 O12 1.268 . S
C6 O21 1.268 . S
C7 O13 1.268 . S
C7 O17 1.268 . S
C8 O14 1.268 . S
C8 O16 1.268 . S
C9 O15 1.268 . S
C9 O18 1.268 . S
O10 Sc0 2.105 . S
O10 C4 1.268 . S
O11 Sc1 2.105 . S
O11 C5 1.268 . S
O12 Sc2 2.105 . S
O12 C6 1.268 . S
O13 Sc0 2.105 . S
O13 C7 1.268 . S
O14 Sc2 2.105 . S
O14 C8 1.268 . S
O15 Sc1 2.105 . S
O15 C9 1.268 . S
O16 Sc0 2.105 . S
O16 C8 1.268 . S
O17 Sc1 2.105 . S
O17 C7 1.268 . S
O18 Sc2 2.105 . S
O18 C9 1.268 . S
O19 Sc0 2.105 . S
O19 C5 1.268 . S
O20 Sc2 2.105 . S
O20 C4 1.268 . S
O21 Sc1 2.105 . S
O21 C6 1.268 . S
Sc22 O25 2.025 . S
Sc22 O32 2.105 . S
Sc22 O35 2.105 . S
Sc22 O38 2.105 . S
Sc22 O41 2.105 . S
Sc23 O25 2.025 . S
Sc23 O33 2.105 . S
Sc23 O37 2.105 . S
Sc23 O39 2.105 . S
Sc23 O43 2.105 . S
Sc24 O25 2.025 . S
Sc24 O34 2.105 . S
Sc24 O36 2.105 . S
Sc24 O40 2.105 . S
Sc24 O42 2.105 . S
O25 Sc22 2.025 . S
O25 Sc23 2.025 . S
O25 Sc24 2.025 . S
C26 O32 1.268 . S
C26 O42 1.268 . S
C27 O33 1.268 . S
C27 O41 1.268 . S
C28 O34 1.268 . S
C28 O43 1.268 . S
C29 O35 1.268 . S
C29 O39 1.268 . S
C30 O36 1.268 . S
C30 O38 1.268 . S
C31 O37 1.268 . S
C31 O40 1.268 . S
O32 Sc22 2.105 . S
O32 C26 1.268 . S
O33 Sc23 2.105 . S
O33 C27 1.268 . S
O34 Sc24 2.105 . S
O34 C28 1.268 . S
O35 Sc22 2.105 . S
O35 C29 1.268 . S
O36 Sc24 2.105 . S
O36 C30 1.268 . S
O37 Sc23 2.105 . S
O37 C31 1.268 . S
O38 Sc22 2.105 . S
O38 C30 1.268 . S
O39 Sc23 2.105 . S
O39 C29 1.268 . S
O40 Sc24 2.105 . S
O40 C31 1.268 . S
O41 Sc22 2.105 . S
O41 C27 1.268 . S
O42 Sc24 2.105 . S
O42 C26 1.268 . S
O43 Sc23 2.105 . S
O43 C28 1.268 . S
Sc44 O47 2.025 . S
Sc44 O54 2.105 . S
Sc44 O57 2.105 . S
Sc44 O60 2.105 . S
Sc44 O63 2.105 . S
Sc45 O47 2.025 . S
Sc45 O55 2.105 . S
Sc45 O59 2.105 . S
Sc45 O61 2.105 . S
Sc45 O65 2.105 . S
Sc46 O47 2.025 . S
Sc46 O56 2.105 . S
Sc46 O58 2.105 . S
Sc46 O62 2.105 . S
Sc46 O64 2.105 . S
O47 Sc44 2.025 . S
O47 Sc45 2.025 . S
O47 Sc46 2.025 . S
C48 O54 1.268 . S
C48 O64 1.268 . S
C49 O55 1.268 . S
C49 O63 1.268 . S
C50 O56 1.268 . S
C50 O65 1.268 . S
C51 O57 1.268 . S
C51 O61 1.268 . S
C52 O58 1.268 . S
C52 O60 1.268 . S
C53 O59 1.268 . S
C53 O62 1.268 . S
O54 Sc44 2.105 . S
O54 C48 1.268 . S
O55 Sc45 2.105 . S
O55 C49 1.268 . S
O56 Sc46 2.105 . S
O56 C50 1.268 . S
O57 Sc44 2.105 . S
O57 C51 1.268 . S
O58 Sc46 2.105 . S
O58 C52 1.268 . S
O59 Sc45 2.105 . S
O59 C53 1.268 . S
O60 Sc44 2.105 . S
O60 C52 1.268 . S
O61 Sc45 2.105 . S
O61 C51 1.268 . S
O62 Sc46 2.105 . S
O62 C53 1.268 . S
O63 Sc44 2.105 . S
O63 C49 1.268 . S
O64 Sc46 2.105 . S
O64 C48 1.268 . S
O65 Sc45 2.105 . S
O65 C50 1.268 . S
Sc66 O69 2.025 . S
Sc66 O76 2.105 . S
Sc66 O79 2.105 . S
Sc66 O82 2.105 . S
Sc66 O85 2.105 . S
Sc67 O69 2.025 . S
Sc67 O77 2.105 . S
Sc67 O81 2.105 . S
Sc67 O83 2.105 . S
Sc67 O87 2.105 . S
Sc68 O69 2.025 . S
Sc68 O78 2.105 . S
Sc68 O80 2.105 . S
Sc68 O84 2.105 . S
Sc68 O86 2.105 . S
O69 Sc66 2.025 . S
O69 Sc67 2.025 . S
O69 Sc68 2.025 . S
C70 O76 1.268 . S
C70 O86 1.268 . S
C71 O77 1.268 . S
C71 O85 1.268 . S
C72 O78 1.268 . S
C72 O87 1.268 . S
C73 O79 1.268 . S
C73 O83 1.268 . S
C74 O80 1.268 . S
C74 O82 1.268 . S
C75 O81 1.268 . S
C75 O84 1.268 . S
O76 Sc66 2.105 . S
O76 C70 1.268 . S
O77 Sc67 2.105 . S
O77 C71 1.268 . S
O78 Sc68 2.105 . S
O78 C72 1.268 . S
O79 Sc66 2.105 . S
O79 C73 1.268 . S
O80 Sc68 2.105 . S
O80 C74 1.268 . S
O81 Sc67 2.105 . S
O81 C75 1.268 . S
O82 Sc66 2.105 . S
O82 C74 1.268 . S
O83 Sc67 2.105 . S
O83 C73 1.268 . S
O84 Sc68 2.105 . S
O84 C75 1.268 . S
O85 Sc66 2.105 . S
O85 C71 1.268 . S
O86 Sc68 2.105 . S
O86 C70 1.268 . S
O87 Sc67 2.105 . S
O87 C72 1.268 . S
Sc88 O91 2.025 . S
Sc88 O98 2.105 . S
Sc88 O101 2.105 . S
Sc88 O104 2.105 . S
Sc88 O107 2.105 . S
Sc89 O91 2.025 . S
Sc89 O99 2.105 . S
Sc89 O103 2.105 . S
Sc89 O105 2.105 . S
Sc89 O109 2.105 . S
Sc90 O91 2.025 . S
Sc90 O100 2.105 . S
Sc90 O102 2.105 . S
Sc90 O106 2.105 . S
Sc90 O108 2.105 . S
O91 Sc88 2.025 . S
O91 Sc89 2.025 . S
O91 Sc90 2.025 . S
C92 O98 1.268 . S
C92 O108 1.268 . S
C93 O99 1.268 . S
C93 O107 1.268 . S
C94 O100 1.268 . S
C94 O109 1.268 . S
C95 O101 1.268 . S
C95 O105 1.268 . S
C96 O102 1.268 . S
C96 O104 1.268 . S
C97 O103 1.268 . S
C97 O106 1.268 . S
O98 Sc88 2.105 . S
O98 C92 1.268 . S
O99 Sc89 2.105 . S
O99 C93 1.268 . S
O100 Sc90 2.105 . S
O100 C94 1.268 . S
O101 Sc88 2.105 . S
O101 C95 1.268 . S
O102 Sc90 2.105 . S
O102 C96 1.268 . S
O103 Sc89 2.105 . S
O103 C97 1.268 . S
O104 Sc88 2.105 . S
O104 C96 1.268 . S
O105 Sc89 2.105 . S
O105 C95 1.268 . S
O106 Sc90 2.105 . S
O106 C97 1.268 . S
O107 Sc88 2.105 . S
O107 C93 1.268 . S
O108 Sc90 2.105 . S
O108 C92 1.268 . S
O109 Sc89 2.105 . S
O109 C94 1.268 . S
Sc110 O113 2.025 . S
Sc110 O120 2.105 . S
Sc110 O123 2.105 . S
Sc110 O126 2.105 . S
Sc110 O129 2.105 . S
Sc111 O113 2.025 . S
Sc111 O121 2.105 . S
Sc111 O125 2.105 . S
Sc111 O127 2.105 . S
Sc111 O131 2.105 . S
Sc112 O113 2.025 . S
Sc112 O122 2.105 . S
Sc112 O124 2.105 . S
Sc112 O128 2.105 . S
Sc112 O130 2.105 . S
O113 Sc110 2.025 . S
O113 Sc111 2.025 . S
O113 Sc112 2.025 . S
C114 O120 1.268 . S
C114 O130 1.268 . S
C115 O121 1.268 . S
C115 O129 1.268 . S
C116 O122 1.268 . S
C116 O131 1.268 . S
C117 O123 1.268 . S
C117 O127 1.268 . S
C118 O124 1.268 . S
C118 O126 1.268 . S
C119 O125 1.268 . S
C119 O128 1.268 . S
O120 Sc110 2.105 . S
O120 C114 1.268 . S
O121 Sc111 2.105 . S
O121 C115 1.268 . S
O122 Sc112 2.105 . S
O122 C116 1.268 . S
O123 Sc110 2.105 . S
O123 C117 1.268 . S
O124 Sc112 2.105 . S
O124 C118 1.268 . S
O125 Sc111 2.105 . S
O125 C119 1.268 . S
O126 Sc110 2.105 . S
O126 C118 1.268 . S
O127 Sc111 2.105 . S
O127 C117 1.268 . S
O128 Sc112 2.105 . S
O128 C119 1.268 . S
O129 Sc110 2.105 . S
O129 C115 1.268 . S
O130 Sc112 2.105 . S
O130 C114 1.268 . S
O131 Sc111 2.105 . S
O131 C116 1.268 . S
Sc132 O135 2.025 . S
Sc132 O142 2.105 . S
Sc132 O145 2.105 . S
Sc132 O148 2.105 . S
Sc132 O151 2.105 . S
Sc133 O135 2.025 . S
Sc133 O143 2.105 . S
Sc133 O147 2.105 . S
Sc133 O149 2.105 . S
Sc133 O153 2.105 . S
Sc134 O135 2.025 . S
Sc134 O144 2.105 . S
Sc134 O146 2.105 . S
Sc134 O150 2.105 . S
Sc134 O152 2.105 . S
O135 Sc132 2.025 . S
O135 Sc133 2.025 . S
O135 Sc134 2.025 . S
C136 O142 1.268 . S
C136 O152 1.268 . S
C137 O143 1.268 . S
C137 O151 1.268 . S
C138 O144 1.268 . S
C138 O153 1.268 . S
C139 O145 1.268 . S
C139 O149 1.268 . S
C140 O146 1.268 . S
C140 O148 1.268 . S
C141 O147 1.268 . S
C141 O150 1.268 . S
O142 Sc132 2.105 . S
O142 C136 1.268 . S
O143 Sc133 2.105 . S
O143 C137 1.268 . S
O144 Sc134 2.105 . S
O144 C138 1.268 . S
O145 Sc132 2.105 . S
O145 C139 1.268 . S
O146 Sc134 2.105 . S
O146 C140 1.268 . S
O147 Sc133 2.105 . S
O147 C141 1.268 . S
O148 Sc132 2.105 . S
O148 C140 1.268 . S
O149 Sc133 2.105 . S
O149 C139 1.268 . S
O150 Sc134 2.105 . S
O150 C141 1.268 . S
O151 Sc132 2.105 . S
O151 C137 1.268 . S
O152 Sc134 2.105 . S
O152 C136 1.268 . S
O153 Sc133 2.105 . S
O153 C138 1.268 . S
Sc154 O157 2.025 . S
Sc154 O164 2.105 . S
Sc154 O167 2.105 . S
Sc154 O170 2.105 . S
Sc154 O173 2.105 . S
Sc155 O157 2.025 . S
Sc155 O165 2.105 . S
Sc155 O169 2.105 . S
Sc155 O171 2.105 . S
Sc155 O175 2.105 . S
Sc156 O157 2.025 . S
Sc156 O166 2.105 . S
Sc156 O168 2.105 . S
Sc156 O172 2.105 . S
Sc156 O174 2.105 . S
O157 Sc154 2.025 . S
O157 Sc155 2.025 . S
O157 Sc156 2.025 . S
C158 O164 1.268 . S
C158 O174 1.268 . S
C159 O165 1.268 . S
C159 O173 1.268 . S
C160 O166 1.268 . S
C160 O175 1.268 . S
C161 O167 1.268 . S
C161 O171 1.268 . S
C162 O168 1.268 . S
C162 O170 1.268 . S
C163 O169 1.268 . S
C163 O172 1.268 . S
O164 Sc154 2.105 . S
O164 C158 1.268 . S
O165 Sc155 2.105 . S
O165 C159 1.268 . S
O166 Sc156 2.105 . S
O166 C160 1.268 . S
O167 Sc154 2.105 . S
O167 C161 1.268 . S
O168 Sc156 2.105 . S
O168 C162 1.268 . S
O169 Sc155 2.105 . S
O169 C163 1.268 . S
O170 Sc154 2.105 . S
O170 C162 1.268 . S
O171 Sc155 2.105 . S
O171 C161 1.268 . S
O172 Sc156 2.105 . S
O172 C163 1.268 . S
O173 Sc154 2.105 . S
O173 C159 1.268 . S
O174 Sc156 2.105 . S
O174 C158 1.268 . S
O175 Sc155 2.105 . S
O175 C160 1.268 . S
Sc176 O179 2.025 . S
Sc176 O186 2.105 . S
Sc176 O189 2.105 . S
Sc176 O192 2.105 . S
Sc176 O195 2.105 . S
Sc177 O179 2.025 . S
Sc177 O187 2.105 . S
Sc177 O191 2.105 . S
Sc177 O193 2.105 . S
Sc177 O197 2.105 . S
Sc178 O179 2.025 . S
Sc178 O188 2.105 . S
Sc178 O190 2.105 . S
Sc178 O194 2.105 . S
Sc178 O196 2.105 . S
O179 Sc176 2.025 . S
O179 Sc177 2.025 . S
O179 Sc178 2.025 . S
C180 O186 1.268 . S
C180 O196 1.268 . S
C181 O187 1.268 . S
C181 O195 1.268 . S
C182 O188 1.268 . S
C182 O197 1.268 . S
C183 O189 1.268 . S
C183 O193 1.268 . S
C184 O190 1.268 . S
C184 O192 1.268 . S
C185 O191 1.268 . S
C185 O194 1.268 . S
O186 Sc176 2.105 . S
O186 C180 1.268 . S
O187 Sc177 2.105 . S
O187 C181 1.268 . S
O188 Sc178 2.105 . S
O188 C182 1.268 . S
O189 Sc176 2.105 . S
O189 C183 1.268 . S
O190 Sc178 2.105 . S
O190 C184 1.268 . S
O191 Sc177 2.105 . S
O191 C185 1.268 . S
O192 Sc176 2.105 . S
O192 C184 1.268 . S
O193 Sc177 2.105 . S
O193 C183 1.268 . S
O194 Sc178 2.105 . S
O194 C185 1.268 . S
O195 Sc176 2.105 . S
O195 C181 1.268 . S
O196 Sc178 2.105 . S
O196 C180 1.268 . S
O197 Sc177 2.105 . S
O197 C182 1.268 . S
Sc198 O201 2.025 . S
Sc198 O208 2.105 . S
Sc198 O211 2.105 . S
Sc198 O214 2.105 . S
Sc198 O217 2.105 . S
Sc199 O201 2.025 . S
Sc199 O209 2.105 . S
Sc199 O213 2.105 . S
Sc199 O215 2.105 . S
Sc199 O219 2.105 . S
Sc200 O201 2.025 . S
Sc200 O210 2.105 . S
Sc200 O212 2.105 . S
Sc200 O216 2.105 . S
Sc200 O218 2.105 . S
O201 Sc198 2.025 . S
O201 Sc199 2.025 . S
O201 Sc200 2.025 . S
C202 O208 1.268 . S
C202 O218 1.268 . S
C203 O209 1.268 . S
C203 O217 1.268 . S
C204 O210 1.268 . S
C204 O219 1.268 . S
C205 O211 1.268 . S
C205 O215 1.268 . S
C206 O212 1.268 . S
C206 O214 1.268 . S
C207 O213 1.268 . S
C207 O216 1.268 . S
O208 Sc198 2.105 . S
O208 C202 1.268 . S
O209 Sc199 2.105 . S
O209 C203 1.268 . S
O210 Sc200 2.105 . S
O210 C204 1.268 . S
O211 Sc198 2.105 . S
O211 C205 1.268 . S
O212 Sc200 2.105 . S
O212 C206 1.268 . S
O213 Sc199 2.105 . S
O213 C207 1.268 . S
O214 Sc198 2.105 . S
O214 C206 1.268 . S
O215 Sc199 2.105 . S
O215 C205 1.268 . S
O216 Sc200 2.105 . S
O216 C207 1.268 . S
O217 Sc198 2.105 . S
O217 C203 1.268 . S
O218 Sc200 2.105 . S
O218 C202 1.268 . S
O219 Sc199 2.105 . S
O219 C204 1.268 . S
Sc220 O223 2.025 . S
Sc220 O230 2.105 . S
Sc220 O233 2.105 . S
Sc220 O236 2.105 . S
Sc220 O239 2.105 . S
Sc221 O223 2.025 . S
Sc221 O231 2.105 . S
Sc221 O235 2.105 . S
Sc221 O237 2.105 . S
Sc221 O241 2.105 . S
Sc222 O223 2.025 . S
Sc222 O232 2.105 . S
Sc222 O234 2.105 . S
Sc222 O238 2.105 . S
Sc222 O240 2.105 . S
O223 Sc220 2.025 . S
O223 Sc221 2.025 . S
O223 Sc222 2.025 . S
C224 O230 1.268 . S
C224 O240 1.268 . S
C225 O231 1.268 . S
C225 O239 1.268 . S
C226 O232 1.268 . S
C226 O241 1.268 . S
C227 O233 1.268 . S
C227 O237 1.268 . S
C228 O234 1.268 . S
C228 O236 1.268 . S
C229 O235 1.268 . S
C229 O238 1.268 . S
O230 Sc220 2.105 . S
O230 C224 1.268 . S
O231 Sc221 2.105 . S
O231 C225 1.268 . S
O232 Sc222 2.105 . S
O232 C226 1.268 . S
O233 Sc220 2.105 . S
O233 C227 1.268 . S
O234 Sc222 2.105 . S
O234 C228 1.268 . S
O235 Sc221 2.105 . S
O235 C229 1.268 . S
O236 Sc220 2.105 . S
O236 C228 1.268 . S
O237 Sc221 2.105 . S
O237 C227 1.268 . S
O238 Sc222 2.105 . S
O238 C229 1.268 . S
O239 Sc220 2.105 . S
O239 C225 1.268 . S
O240 Sc222 2.105 . S
O240 C224 1.268 . S
O241 Sc221 2.105 . S
O241 C226 1.268 . S
Sc242 O245 2.025 . S
Sc242 O252 2.105 . S
Sc242 O255 2.105 . S
Sc242 O258 2.105 . S
Sc242 O261 2.105 . S
Sc243 O245 2.025 . S
Sc243 O253 2.105 . S
Sc243 O257 2.105 . S
Sc243 O259 2.105 . S
Sc243 O263 2.105 . S
Sc244 O245 2.025 . S
Sc244 O254 2.105 . S
Sc244 O256 2.105 . S
Sc244 O260 2.105 . S
Sc244 O262 2.105 . S
O245 Sc242 2.025 . S
O245 Sc243 2.025 . S
O245 Sc244 2.025 . S
C246 O252 1.268 . S
C246 O262 1.268 . S
C247 O253 1.268 . S
C247 O261 1.268 . S
C248 O254 1.268 . S
C248 O263 1.268 . S
C249 O255 1.268 . S
C249 O259 1.268 . S
C250 O256 1.268 . S
C250 O258 1.268 . S
C251 O257 1.268 . S
C251 O260 1.268 . S
O252 Sc242 2.105 . S
O252 C246 1.268 . S
O253 Sc243 2.105 . S
O253 C247 1.268 . S
O254 Sc244 2.105 . S
O254 C248 1.268 . S
O255 Sc242 2.105 . S
O255 C249 1.268 . S
O256 Sc244 2.105 . S
O256 C250 1.268 . S
O257 Sc243 2.105 . S
O257 C251 1.268 . S
O258 Sc242 2.105 . S
O258 C250 1.268 . S
O259 Sc243 2.105 . S
O259 C249 1.268 . S
O260 Sc244 2.105 . S
O260 C251 1.268 . S
O261 Sc242 2.105 . S
O261 C247 1.268 . S
O262 Sc244 2.105 . S
O262 C246 1.268 . S
O263 Sc243 2.105 . S
O263 C248 1.268 . S
Sc264 O267 2.025 . S
Sc264 O274 2.105 . S
Sc264 O277 2.105 . S
Sc264 O280 2.105 . S
Sc264 O283 2.105 . S
Sc265 O267 2.025 . S
Sc265 O275 2.105 . S
Sc265 O279 2.105 . S
Sc265 O281 2.105 . S
Sc265 O285 2.105 . S
Sc266 O267 2.025 . S
Sc266 O276 2.105 . S
Sc266 O278 2.105 . S
Sc266 O282 2.105 . S
Sc266 O284 2.105 . S
O267 Sc264 2.025 . S
O267 Sc265 2.025 . S
O267 Sc266 2.025 . S
C268 O274 1.268 . S
C268 O284 1.268 . S
C269 O275 1.268 . S
C269 O283 1.268 . S
C270 O276 1.268 . S
C270 O285 1.268 . S
C271 O277 1.268 . S
C271 O281 1.268 . S
C272 O278 1.268 . S
C272 O280 1.268 . S
C273 O279 1.268 . S
C273 O282 1.268 . S
O274 Sc264 2.105 . S
O274 C268 1.268 . S
O275 Sc265 2.105 . S
O275 C269 1.268 . S
O276 Sc266 2.105 . S
O276 C270 1.268 . S
O277 Sc264 2.105 . S
O277 C271 1.268 . S
O278 Sc266 2.105 . S
O278 C272 1.268 . S
O279 Sc265 2.105 . S
O279 C273 1.268 . S
O280 Sc264 2.105 . S
O280 C272 1.268 . S
O281 Sc265 2.105 . S
O281 C271 1.268 . S
O282 Sc266 2.105 . S
O282 C273 1.268 . S
O283 Sc264 2.105 . S
O283 C269 1.268 . S
O284 Sc266 2.105 . S
O284 C268 1.268 . S
O285 Sc265 2.105 . S
O285 C270 1.268 . S
Sc286 O289 2.025 . S
Sc286 O296 2.105 . S
Sc286 O299 2.105 . S
Sc286 O302 2.105 . S
Sc286 O305 2.105 . S
Sc287 O289 2.025 . S
Sc287 O297 2.105 . S
Sc287 O301 2.105 . S
Sc287 O303 2.105 . S
Sc287 O307 2.105 . S
Sc288 O289 2.025 . S
Sc288 O298 2.105 . S
Sc288 O300 2.105 . S
Sc288 O304 2.105 . S
Sc288 O306 2.105 . S
O289 Sc286 2.025 . S
O289 Sc287 2.025 . S
O289 Sc288 2.025 . S
C290 O296 1.268 . S
C290 O306 1.268 . S
C291 O297 1.268 . S
C291 O305 1.268 . S
C292 O298 1.268 . S
C292 O307 1.268 . S
C293 O299 1.268 . S
C293 O303 1.268 . S
C294 O300 1.268 . S
C294 O302 1.268 . S
C295 O301 1.268 . S
C295 O304 1.268 . S
O296 Sc286 2.105 . S
O296 C290 1.268 . S
O297 Sc287 2.105 . S
O297 C291 1.268 . S
O298 Sc288 2.105 . S
O298 C292 1.268 . S
O299 Sc286 2.105 . S
O299 C293 1.268 . S
O300 Sc288 2.105 . S
O300 C294 1.268 . S
O301 Sc287 2.105 . S
O301 C295 1.268 . S
O302 Sc286 2.105 . S
O302 C294 1.268 . S
O303 Sc287 2.105 . S
O303 C293 1.268 . S
O304 Sc288 2.105 . S
O304 C295 1.268 . S
O305 Sc286 2.105 . S
O305 C291 1.268 . S
O306 Sc288 2.105 . S
O306 C290 1.268 . S
O307 Sc287 2.105 . S
O307 C292 1.268 . S
Sc308 O311 2.025 . S
Sc308 O318 2.105 . S
Sc308 O321 2.105 . S
Sc308 O324 2.105 . S
Sc308 O327 2.105 . S
Sc309 O311 2.025 . S
Sc309 O319 2.105 . S
Sc309 O323 2.105 . S
Sc309 O325 2.105 . S
Sc309 O329 2.105 . S
Sc310 O311 2.025 . S
Sc310 O320 2.105 . S
Sc310 O322 2.105 . S
Sc310 O326 2.105 . S
Sc310 O328 2.105 . S
O311 Sc308 2.025 . S
O311 Sc309 2.025 . S
O311 Sc310 2.025 . S
C312 O318 1.268 . S
C312 O328 1.268 . S
C313 O319 1.268 . S
C313 O327 1.268 . S
C314 O320 1.268 . S
C314 O329 1.268 . S
C315 O321 1.268 . S
C315 O325 1.268 . S
C316 O322 1.268 . S
C316 O324 1.268 . S
C317 O323 1.268 . S
C317 O326 1.268 . S
O318 Sc308 2.105 . S
O318 C312 1.268 . S
O319 Sc309 2.105 . S
O319 C313 1.268 . S
O320 Sc310 2.105 . S
O320 C314 1.268 . S
O321 Sc308 2.105 . S
O321 C315 1.268 . S
O322 Sc310 2.105 . S
O322 C316 1.268 . S
O323 Sc309 2.105 . S
O323 C317 1.268 . S
O324 Sc308 2.105 . S
O324 C316 1.268 . S
O325 Sc309 2.105 . S
O325 C315 1.268 . S
O326 Sc310 2.105 . S
O326 C317 1.268 . S
O327 Sc308 2.105 . S
O327 C313 1.268 . S
O328 Sc310 2.105 . S
O328 C312 1.268 . S
O329 Sc309 2.105 . S
O329 C314 1.268 . S
Sc330 O333 2.025 . S
Sc330 O340 2.105 . S
Sc330 O343 2.105 . S
Sc330 O346 2.105 . S
Sc330 O349 2.105 . S
Sc331 O333 2.025 . S
Sc331 O341 2.105 . S
Sc331 O345 2.105 . S
Sc331 O347 2.105 . S
Sc331 O351 2.105 . S
Sc332 O333 2.025 . S
Sc332 O342 2.105 . S
Sc332 O344 2.105 . S
Sc332 O348 2.105 . S
Sc332 O350 2.105 . S
O333 Sc330 2.025 . S
O333 Sc331 2.025 . S
O333 Sc332 2.025 . S
C334 O340 1.268 . S
C334 O350 1.268 . S
C335 O341 1.268 . S
C335 O349 1.268 . S
C336 O342 1.268 . S
C336 O351 1.268 . S
C337 O343 1.268 . S
C337 O347 1.268 . S
C338 O344 1.268 . S
C338 O346 1.268 . S
C339 O345 1.268 . S
C339 O348 1.268 . S
O340 Sc330 2.105 . S
O340 C334 1.268 . S
O341 Sc331 2.105 . S
O341 C335 1.268 . S
O342 Sc332 2.105 . S
O342 C336 1.268 . S
O343 Sc330 2.105 . S
O343 C337 1.268 . S
O344 Sc332 2.105 . S
O344 C338 1.268 . S
O345 Sc331 2.105 . S
O345 C339 1.268 . S
O346 Sc330 2.105 . S
O346 C338 1.268 . S
O347 Sc331 2.105 . S
O347 C337 1.268 . S
O348 Sc332 2.105 . S
O348 C339 1.268 . S
O349 Sc330 2.105 . S
O349 C335 1.268 . S
O350 Sc332 2.105 . S
O350 C334 1.268 . S
O351 Sc331 2.105 . S
O351 C336 1.268 . S
Sc352 O355 2.025 . S
Sc352 O362 2.105 . S
Sc352 O365 2.105 . S
Sc352 O368 2.105 . S
Sc352 O371 2.105 . S
Sc353 O355 2.025 . S
Sc353 O363 2.105 . S
Sc353 O367 2.105 . S
Sc353 O369 2.105 . S
Sc353 O373 2.105 . S
Sc354 O355 2.025 . S
Sc354 O364 2.105 . S
Sc354 O366 2.105 . S
Sc354 O370 2.105 . S
Sc354 O372 2.105 . S
O355 Sc352 2.025 . S
O355 Sc353 2.025 . S
O355 Sc354 2.025 . S
C356 O362 1.268 . S
C356 O372 1.268 . S
C357 O363 1.268 . S
C357 O371 1.268 . S
C358 O364 1.268 . S
C358 O373 1.268 . S
C359 O365 1.268 . S
C359 O369 1.268 . S
C360 O366 1.268 . S
C360 O368 1.268 . S
C361 O367 1.268 . S
C361 O370 1.268 . S
O362 Sc352 2.105 . S
O362 C356 1.268 . S
O363 Sc353 2.105 . S
O363 C357 1.268 . S
O364 Sc354 2.105 . S
O364 C358 1.268 . S
O365 Sc352 2.105 . S
O365 C359 1.268 . S
O366 Sc354 2.105 . S
O366 C360 1.268 . S
O367 Sc353 2.105 . S
O367 C361 1.268 . S
O368 Sc352 2.105 . S
O368 C360 1.268 . S
O369 Sc353 2.105 . S
O369 C359 1.268 . S
O370 Sc354 2.105 . S
O370 C361 1.268 . S
O371 Sc352 2.105 . S
O371 C357 1.268 . S
O372 Sc354 2.105 . S
O372 C356 1.268 . S
O373 Sc353 2.105 . S
O373 C358 1.268 . S
Sc374 O377 2.025 . S
Sc374 O384 2.105 . S
Sc374 O387 2.105 . S
Sc374 O390 2.105 . S
Sc374 O393 2.105 . S
Sc375 O377 2.025 . S
Sc375 O385 2.105 . S
Sc375 O389 2.105 . S
Sc375 O391 2.105 . S
Sc375 O395 2.105 . S
Sc376 O377 2.025 . S
Sc376 O386 2.105 . S
Sc376 O388 2.105 . S
Sc376 O392 2.105 . S
Sc376 O394 2.105 . S
O377 Sc374 2.025 . S
O377 Sc375 2.025 . S
O377 Sc376 2.025 . S
C378 O384 1.268 . S
C378 O394 1.268 . S
C379 O385 1.268 . S
C379 O393 1.268 . S
C380 O386 1.268 . S
C380 O395 1.268 . S
C381 O387 1.268 . S
C381 O391 1.268 . S
C382 O388 1.268 . S
C382 O390 1.268 . S
C383 O389 1.268 . S
C383 O392 1.268 . S
O384 Sc374 2.105 . S
O384 C378 1.268 . S
O385 Sc375 2.105 . S
O385 C379 1.268 . S
O386 Sc376 2.105 . S
O386 C380 1.268 . S
O387 Sc374 2.105 . S
O387 C381 1.268 . S
O388 Sc376 2.105 . S
O388 C382 1.268 . S
O389 Sc375 2.105 . S
O389 C383 1.268 . S
O390 Sc374 2.105 . S
O390 C382 1.268 . S
O391 Sc375 2.105 . S
O391 C381 1.268 . S
O392 Sc376 2.105 . S
O392 C383 1.268 . S
O393 Sc374 2.105 . S
O393 C379 1.268 . S
O394 Sc376 2.105 . S
O394 C378 1.268 . S
O395 Sc375 2.105 . S
O395 C380 1.268 . S
Sc396 O399 2.025 . S
Sc396 O406 2.105 . S
Sc396 O409 2.105 . S
Sc396 O412 2.105 . S
Sc396 O415 2.105 . S
Sc397 O399 2.025 . S
Sc397 O407 2.105 . S
Sc397 O411 2.105 . S
Sc397 O413 2.105 . S
Sc397 O417 2.105 . S
Sc398 O399 2.025 . S
Sc398 O408 2.105 . S
Sc398 O410 2.105 . S
Sc398 O414 2.105 . S
Sc398 O416 2.105 . S
O399 Sc396 2.025 . S
O399 Sc397 2.025 . S
O399 Sc398 2.025 . S
C400 O406 1.268 . S
C400 O416 1.268 . S
C401 O407 1.268 . S
C401 O415 1.268 . S
C402 O408 1.268 . S
C402 O417 1.268 . S
C403 O409 1.268 . S
C403 O413 1.268 . S
C404 O410 1.268 . S
C404 O412 1.268 . S
C405 O411 1.268 . S
C405 O414 1.268 . S
O406 Sc396 2.105 . S
O406 C400 1.268 . S
O407 Sc397 2.105 . S
O407 C401 1.268 . S
O408 Sc398 2.105 . S
O408 C402 1.268 . S
O409 Sc396 2.105 . S
O409 C403 1.268 . S
O410 Sc398 2.105 . S
O410 C404 1.268 . S
O411 Sc397 2.105 . S
O411 C405 1.268 . S
O412 Sc396 2.105 . S
O412 C404 1.268 . S
O413 Sc397 2.105 . S
O413 C403 1.268 . S
O414 Sc398 2.105 . S
O414 C405 1.268 . S
O415 Sc396 2.105 . S
O415 C401 1.268 . S
O416 Sc398 2.105 . S
O416 C400 1.268 . S
O417 Sc397 2.105 . S
O417 C402 1.268 . S
Sc418 O421 2.025 . S
Sc418 O428 2.105 . S
Sc418 O431 2.105 . S
Sc418 O434 2.105 . S
Sc418 O437 2.105 . S
Sc419 O421 2.025 . S
Sc419 O429 2.105 . S
Sc419 O433 2.105 . S
Sc419 O435 2.105 . S
Sc419 O439 2.105 . S
Sc420 O421 2.025 . S
Sc420 O430 2.105 . S
Sc420 O432 2.105 . S
Sc420 O436 2.105 . S
Sc420 O438 2.105 . S
O421 Sc418 2.025 . S
O421 Sc419 2.025 . S
O421 Sc420 2.025 . S
C422 O428 1.268 . S
C422 O438 1.268 . S
C423 O429 1.268 . S
C423 O437 1.268 . S
C424 O430 1.268 . S
C424 O439 1.268 . S
C425 O431 1.268 . S
C425 O435 1.268 . S
C426 O432 1.268 . S
C426 O434 1.268 . S
C427 O433 1.268 . S
C427 O436 1.268 . S
O428 Sc418 2.105 . S
O428 C422 1.268 . S
O429 Sc419 2.105 . S
O429 C423 1.268 . S
O430 Sc420 2.105 . S
O430 C424 1.268 . S
O431 Sc418 2.105 . S
O431 C425 1.268 . S
O432 Sc420 2.105 . S
O432 C426 1.268 . S
O433 Sc419 2.105 . S
O433 C427 1.268 . S
O434 Sc418 2.105 . S
O434 C426 1.268 . S
O435 Sc419 2.105 . S
O435 C425 1.268 . S
O436 Sc420 2.105 . S
O436 C427 1.268 . S
O437 Sc418 2.105 . S
O437 C423 1.268 . S
O438 Sc420 2.105 . S
O438 C422 1.268 . S
O439 Sc419 2.105 . S
O439 C424 1.268 . S
Sc440 O443 2.025 . S
Sc440 O450 2.105 . S
Sc440 O453 2.105 . S
Sc440 O456 2.105 . S
Sc440 O459 2.105 . S
Sc441 O443 2.025 . S
Sc441 O451 2.105 . S
Sc441 O455 2.105 . S
Sc441 O457 2.105 . S
Sc441 O461 2.105 . S
Sc442 O443 2.025 . S
Sc442 O452 2.105 . S
Sc442 O454 2.105 . S
Sc442 O458 2.105 . S
Sc442 O460 2.105 . S
O443 Sc440 2.025 . S
O443 Sc441 2.025 . S
O443 Sc442 2.025 . S
C444 O450 1.268 . S
C444 O460 1.268 . S
C445 O451 1.268 . S
C445 O459 1.268 . S
C446 O452 1.268 . S
C446 O461 1.268 . S
C447 O453 1.268 . S
C447 O457 1.268 . S
C448 O454 1.268 . S
C448 O456 1.268 . S
C449 O455 1.268 . S
C449 O458 1.268 . S
O450 Sc440 2.105 . S
O450 C444 1.268 . S
O451 Sc441 2.105 . S
O451 C445 1.268 . S
O452 Sc442 2.105 . S
O452 C446 1.268 . S
O453 Sc440 2.105 . S
O453 C447 1.268 . S
O454 Sc442 2.105 . S
O454 C448 1.268 . S
O455 Sc441 2.105 . S
O455 C449 1.268 . S
O456 Sc440 2.105 . S
O456 C448 1.268 . S
O457 Sc441 2.105 . S
O457 C447 1.268 . S
O458 Sc442 2.105 . S
O458 C449 1.268 . S
O459 Sc440 2.105 . S
O459 C445 1.268 . S
O460 Sc442 2.105 . S
O460 C444 1.268 . S
O461 Sc441 2.105 . S
O461 C446 1.268 . S
Sc462 O465 2.025 . S
Sc462 O472 2.105 . S
Sc462 O475 2.105 . S
Sc462 O478 2.105 . S
Sc462 O481 2.105 . S
Sc463 O465 2.025 . S
Sc463 O473 2.105 . S
Sc463 O477 2.105 . S
Sc463 O479 2.105 . S
Sc463 O483 2.105 . S
Sc464 O465 2.025 . S
Sc464 O474 2.105 . S
Sc464 O476 2.105 . S
Sc464 O480 2.105 . S
Sc464 O482 2.105 . S
O465 Sc462 2.025 . S
O465 Sc463 2.025 . S
O465 Sc464 2.025 . S
C466 O472 1.268 . S
C466 O482 1.268 . S
C467 O473 1.268 . S
C467 O481 1.268 . S
C468 O474 1.268 . S
C468 O483 1.268 . S
C469 O475 1.268 . S
C469 O479 1.268 . S
C470 O476 1.268 . S
C470 O478 1.268 . S
C471 O477 1.268 . S
C471 O480 1.268 . S
O472 Sc462 2.105 . S
O472 C466 1.268 . S
O473 Sc463 2.105 . S
O473 C467 1.268 . S
O474 Sc464 2.105 . S
O474 C468 1.268 . S
O475 Sc462 2.105 . S
O475 C469 1.268 . S
O476 Sc464 2.105 . S
O476 C470 1.268 . S
O477 Sc463 2.105 . S
O477 C471 1.268 . S
O478 Sc462 2.105 . S
O478 C470 1.268 . S
O479 Sc463 2.105 . S
O479 C469 1.268 . S
O480 Sc464 2.105 . S
O480 C471 1.268 . S
O481 Sc462 2.105 . S
O481 C467 1.268 . S
O482 Sc464 2.105 . S
O482 C466 1.268 . S
O483 Sc463 2.105 . S
O483 C468 1.268 . S
Sc484 O487 2.025 . S
Sc484 O494 2.105 . S
Sc484 O497 2.105 . S
Sc484 O500 2.105 . S
Sc484 O503 2.105 . S
Sc485 O487 2.025 . S
Sc485 O495 2.105 . S
Sc485 O499 2.105 . S
Sc485 O501 2.105 . S
Sc485 O505 2.105 . S
Sc486 O487 2.025 . S
Sc486 O496 2.105 . S
Sc486 O498 2.105 . S
Sc486 O502 2.105 . S
Sc486 O504 2.105 . S
O487 Sc484 2.025 . S
O487 Sc485 2.025 . S
O487 Sc486 2.025 . S
C488 O494 1.268 . S
C488 O504 1.268 . S
C489 O495 1.268 . S
C489 O503 1.268 . S
C490 O496 1.268 . S
C490 O505 1.268 . S
C491 O497 1.268 . S
C491 O501 1.268 . S
C492 O498 1.268 . S
C492 O500 1.268 . S
C493 O499 1.268 . S
C493 O502 1.268 . S
O494 Sc484 2.105 . S
O494 C488 1.268 . S
O495 Sc485 2.105 . S
O495 C489 1.268 . S
O496 Sc486 2.105 . S
O496 C490 1.268 . S
O497 Sc484 2.105 . S
O497 C491 1.268 . S
O498 Sc486 2.105 . S
O498 C492 1.268 . S
O499 Sc485 2.105 . S
O499 C493 1.268 . S
O500 Sc484 2.105 . S
O500 C492 1.268 . S
O501 Sc485 2.105 . S
O501 C491 1.268 . S
O502 Sc486 2.105 . S
O502 C493 1.268 . S
O503 Sc484 2.105 . S
O503 C489 1.268 . S
O504 Sc486 2.105 . S
O504 C488 1.268 . S
O505 Sc485 2.105 . S
O505 C490 1.268 . S
Sc506 O509 2.025 . S
Sc506 O516 2.105 . S
Sc506 O519 2.105 . S
Sc506 O522 2.105 . S
Sc506 O525 2.105 . S
Sc507 O509 2.025 . S
Sc507 O517 2.105 . S
Sc507 O521 2.105 . S
Sc507 O523 2.105 . S
Sc507 O527 2.105 . S
Sc508 O509 2.025 . S
Sc508 O518 2.105 . S
Sc508 O520 2.105 . S
Sc508 O524 2.105 . S
Sc508 O526 2.105 . S
O509 Sc506 2.025 . S
O509 Sc507 2.025 . S
O509 Sc508 2.025 . S
C510 O516 1.268 . S
C510 O526 1.268 . S
C511 O517 1.268 . S
C511 O525 1.268 . S
C512 O518 1.268 . S
C512 O527 1.268 . S
C513 O519 1.268 . S
C513 O523 1.268 . S
C514 O520 1.268 . S
C514 O522 1.268 . S
C515 O521 1.268 . S
C515 O524 1.268 . S
O516 Sc506 2.105 . S
O516 C510 1.268 . S
O517 Sc507 2.105 . S
O517 C511 1.268 . S
O518 Sc508 2.105 . S
O518 C512 1.268 . S
O519 Sc506 2.105 . S
O519 C513 1.268 . S
O520 Sc508 2.105 . S
O520 C514 1.268 . S
O521 Sc507 2.105 . S
O521 C515 1.268 . S
O522 Sc506 2.105 . S
O522 C514 1.268 . S
O523 Sc507 2.105 . S
O523 C513 1.268 . S
O524 Sc508 2.105 . S
O524 C515 1.268 . S
O525 Sc506 2.105 . S
O525 C511 1.268 . S
O526 Sc508 2.105 . S
O526 C510 1.268 . S
O527 Sc507 2.105 . S
O527 C512 1.268 . S
Sc528 O531 2.025 . S
Sc528 O538 2.105 . S
Sc528 O541 2.105 . S
Sc528 O544 2.105 . S
Sc528 O547 2.105 . S
Sc529 O531 2.025 . S
Sc529 O539 2.105 . S
Sc529 O543 2.105 . S
Sc529 O545 2.105 . S
Sc529 O549 2.105 . S
Sc530 O531 2.025 . S
Sc530 O540 2.105 . S
Sc530 O542 2.105 . S
Sc530 O546 2.105 . S
Sc530 O548 2.105 . S
O531 Sc528 2.025 . S
O531 Sc529 2.025 . S
O531 Sc530 2.025 . S
C532 O538 1.268 . S
C532 O548 1.268 . S
C533 O539 1.268 . S
C533 O547 1.268 . S
C534 O540 1.268 . S
C534 O549 1.268 . S
C535 O541 1.268 . S
C535 O545 1.268 . S
C536 O542 1.268 . S
C536 O544 1.268 . S
C537 O543 1.268 . S
C537 O546 1.268 . S
O538 Sc528 2.105 . S
O538 C532 1.268 . S
O539 Sc529 2.105 . S
O539 C533 1.268 . S
O540 Sc530 2.105 . S
O540 C534 1.268 . S
O541 Sc528 2.105 . S
O541 C535 1.268 . S
O542 Sc530 2.105 . S
O542 C536 1.268 . S
O543 Sc529 2.105 . S
O543 C537 1.268 . S
O544 Sc528 2.105 . S
O544 C536 1.268 . S
O545 Sc529 2.105 . S
O545 C535 1.268 . S
O546 Sc530 2.105 . S
O546 C537 1.268 . S
O547 Sc528 2.105 . S
O547 C533 1.268 . S
O548 Sc530 2.105 . S
O548 C532 1.268 . S
O549 Sc529 2.105 . S
O549 C534 1.268 . S
Sc550 O553 2.025 . S
Sc550 O560 2.105 . S
Sc550 O563 2.105 . S
Sc550 O566 2.105 . S
Sc550 O569 2.105 . S
Sc551 O553 2.025 . S
Sc551 O561 2.105 . S
Sc551 O565 2.105 . S
Sc551 O567 2.105 . S
Sc551 O571 2.105 . S
Sc552 O553 2.025 . S
Sc552 O562 2.105 . S
Sc552 O564 2.105 . S
Sc552 O568 2.105 . S
Sc552 O570 2.105 . S
O553 Sc550 2.025 . S
O553 Sc551 2.025 . S
O553 Sc552 2.025 . S
C554 O560 1.268 . S
C554 O570 1.268 . S
C555 O561 1.268 . S
C555 O569 1.268 . S
C556 O562 1.268 . S
C556 O571 1.268 . S
C557 O563 1.268 . S
C557 O567 1.268 . S
C558 O564 1.268 . S
C558 O566 1.268 . S
C559 O565 1.268 . S
C559 O568 1.268 . S
O560 Sc550 2.105 . S
O560 C554 1.268 . S
O561 Sc551 2.105 . S
O561 C555 1.268 . S
O562 Sc552 2.105 . S
O562 C556 1.268 . S
O563 Sc550 2.105 . S
O563 C557 1.268 . S
O564 Sc552 2.105 . S
O564 C558 1.268 . S
O565 Sc551 2.105 . S
O565 C559 1.268 . S
O566 Sc550 2.105 . S
O566 C558 1.268 . S
O567 Sc551 2.105 . S
O567 C557 1.268 . S
O568 Sc552 2.105 . S
O568 C559 1.268 . S
O569 Sc550 2.105 . S
O569 C555 1.268 . S
O570 Sc552 2.105 . S
O570 C554 1.268 . S
O571 Sc551 2.105 . S
O571 C556 1.268 . S
Sc572 O575 2.025 . S
Sc572 O582 2.105 . S
Sc572 O585 2.105 . S
Sc572 O588 2.105 . S
Sc572 O591 2.105 . S
Sc573 O575 2.025 . S
Sc573 O583 2.105 . S
Sc573 O587 2.105 . S
Sc573 O589 2.105 . S
Sc573 O593 2.105 . S
Sc574 O575 2.025 . S
Sc574 O584 2.105 . S
Sc574 O586 2.105 . S
Sc574 O590 2.105 . S
Sc574 O592 2.105 . S
O575 Sc572 2.025 . S
O575 Sc573 2.025 . S
O575 Sc574 2.025 . S
C576 O582 1.268 . S
C576 O592 1.268 . S
C577 O583 1.268 . S
C577 O591 1.268 . S
C578 O584 1.268 . S
C578 O593 1.268 . S
C579 O585 1.268 . S
C579 O589 1.268 . S
C580 O586 1.268 . S
C580 O588 1.268 . S
C581 O587 1.268 . S
C581 O590 1.268 . S
O582 Sc572 2.105 . S
O582 C576 1.268 . S
O583 Sc573 2.105 . S
O583 C577 1.268 . S
O584 Sc574 2.105 . S
O584 C578 1.268 . S
O585 Sc572 2.105 . S
O585 C579 1.268 . S
O586 Sc574 2.105 . S
O586 C580 1.268 . S
O587 Sc573 2.105 . S
O587 C581 1.268 . S
O588 Sc572 2.105 . S
O588 C580 1.268 . S
O589 Sc573 2.105 . S
O589 C579 1.268 . S
O590 Sc574 2.105 . S
O590 C581 1.268 . S
O591 Sc572 2.105 . S
O591 C577 1.268 . S
O592 Sc574 2.105 . S
O592 C576 1.268 . S
O593 Sc573 2.105 . S
O593 C578 1.268 . S
Sc594 O597 2.025 . S
Sc594 O604 2.105 . S
Sc594 O607 2.105 . S
Sc594 O610 2.105 . S
Sc594 O613 2.105 . S
Sc595 O597 2.025 . S
Sc595 O605 2.105 . S
Sc595 O609 2.105 . S
Sc595 O611 2.105 . S
Sc595 O615 2.105 . S
Sc596 O597 2.025 . S
Sc596 O606 2.105 . S
Sc596 O608 2.105 . S
Sc596 O612 2.105 . S
Sc596 O614 2.105 . S
O597 Sc594 2.025 . S
O597 Sc595 2.025 . S
O597 Sc596 2.025 . S
C598 O604 1.268 . S
C598 O614 1.268 . S
C599 O605 1.268 . S
C599 O613 1.268 . S
C600 O606 1.268 . S
C600 O615 1.268 . S
C601 O607 1.268 . S
C601 O611 1.268 . S
C602 O608 1.268 . S
C602 O610 1.268 . S
C603 O609 1.268 . S
C603 O612 1.268 . S
O604 Sc594 2.105 . S
O604 C598 1.268 . S
O605 Sc595 2.105 . S
O605 C599 1.268 . S
O606 Sc596 2.105 . S
O606 C600 1.268 . S
O607 Sc594 2.105 . S
O607 C601 1.268 . S
O608 Sc596 2.105 . S
O608 C602 1.268 . S
O609 Sc595 2.105 . S
O609 C603 1.268 . S
O610 Sc594 2.105 . S
O610 C602 1.268 . S
O611 Sc595 2.105 . S
O611 C601 1.268 . S
O612 Sc596 2.105 . S
O612 C603 1.268 . S
O613 Sc594 2.105 . S
O613 C599 1.268 . S
O614 Sc596 2.105 . S
O614 C598 1.268 . S
O615 Sc595 2.105 . S
O615 C600 1.268 . S
Sc616 O619 2.025 . S
Sc616 O626 2.105 . S
Sc616 O629 2.105 . S
Sc616 O632 2.105 . S
Sc616 O635 2.105 . S
Sc617 O619 2.025 . S
Sc617 O627 2.105 . S
Sc617 O631 2.105 . S
Sc617 O633 2.105 . S
Sc617 O637 2.105 . S
Sc618 O619 2.025 . S
Sc618 O628 2.105 . S
Sc618 O630 2.105 . S
Sc618 O634 2.105 . S
Sc618 O636 2.105 . S
O619 Sc616 2.025 . S
O619 Sc617 2.025 . S
O619 Sc618 2.025 . S
C620 O626 1.268 . S
C620 O636 1.268 . S
C621 O627 1.268 . S
C621 O635 1.268 . S
C622 O628 1.268 . S
C622 O637 1.268 . S
C623 O629 1.268 . S
C623 O633 1.268 . S
C624 O630 1.268 . S
C624 O632 1.268 . S
C625 O631 1.268 . S
C625 O634 1.268 . S
O626 Sc616 2.105 . S
O626 C620 1.268 . S
O627 Sc617 2.105 . S
O627 C621 1.268 . S
O628 Sc618 2.105 . S
O628 C622 1.268 . S
O629 Sc616 2.105 . S
O629 C623 1.268 . S
O630 Sc618 2.105 . S
O630 C624 1.268 . S
O631 Sc617 2.105 . S
O631 C625 1.268 . S
O632 Sc616 2.105 . S
O632 C624 1.268 . S
O633 Sc617 2.105 . S
O633 C623 1.268 . S
O634 Sc618 2.105 . S
O634 C625 1.268 . S
O635 Sc616 2.105 . S
O635 C621 1.268 . S
O636 Sc618 2.105 . S
O636 C620 1.268 . S
O637 Sc617 2.105 . S
O637 C622 1.268 . S
Sc638 O641 2.025 . S
Sc638 O648 2.105 . S
Sc638 O651 2.105 . S
Sc638 O654 2.105 . S
Sc638 O657 2.105 . S
Sc639 O641 2.025 . S
Sc639 O649 2.105 . S
Sc639 O653 2.105 . S
Sc639 O655 2.105 . S
Sc639 O659 2.105 . S
Sc640 O641 2.025 . S
Sc640 O650 2.105 . S
Sc640 O652 2.105 . S
Sc640 O656 2.105 . S
Sc640 O658 2.105 . S
O641 Sc638 2.025 . S
O641 Sc639 2.025 . S
O641 Sc640 2.025 . S
C642 O648 1.268 . S
C642 O658 1.268 . S
C643 O649 1.268 . S
C643 O657 1.268 . S
C644 O650 1.268 . S
C644 O659 1.268 . S
C645 O651 1.268 . S
C645 O655 1.268 . S
C646 O652 1.268 . S
C646 O654 1.268 . S
C647 O653 1.268 . S
C647 O656 1.268 . S
O648 Sc638 2.105 . S
O648 C642 1.268 . S
O649 Sc639 2.105 . S
O649 C643 1.268 . S
O650 Sc640 2.105 . S
O650 C644 1.268 . S
O651 Sc638 2.105 . S
O651 C645 1.268 . S
O652 Sc640 2.105 . S
O652 C646 1.268 . S
O653 Sc639 2.105 . S
O653 C647 1.268 . S
O654 Sc638 2.105 . S
O654 C646 1.268 . S
O655 Sc639 2.105 . S
O655 C645 1.268 . S
O656 Sc640 2.105 . S
O656 C647 1.268 . S
O657 Sc638 2.105 . S
O657 C643 1.268 . S
O658 Sc640 2.105 . S
O658 C642 1.268 . S
O659 Sc639 2.105 . S
O659 C644 1.268 . S
Sc660 O663 2.025 . S
Sc660 O670 2.105 . S
Sc660 O673 2.105 . S
Sc660 O676 2.105 . S
Sc660 O679 2.105 . S
Sc661 O663 2.025 . S
Sc661 O671 2.105 . S
Sc661 O675 2.105 . S
Sc661 O677 2.105 . S
Sc661 O681 2.105 . S
Sc662 O663 2.025 . S
Sc662 O672 2.105 . S
Sc662 O674 2.105 . S
Sc662 O678 2.105 . S
Sc662 O680 2.105 . S
O663 Sc660 2.025 . S
O663 Sc661 2.025 . S
O663 Sc662 2.025 . S
C664 O670 1.268 . S
C664 O680 1.268 . S
C665 O671 1.268 . S
C665 O679 1.268 . S
C666 O672 1.268 . S
C666 O681 1.268 . S
C667 O673 1.268 . S
C667 O677 1.268 . S
C668 O674 1.268 . S
C668 O676 1.268 . S
C669 O675 1.268 . S
C669 O678 1.268 . S
O670 Sc660 2.105 . S
O670 C664 1.268 . S
O671 Sc661 2.105 . S
O671 C665 1.268 . S
O672 Sc662 2.105 . S
O672 C666 1.268 . S
O673 Sc660 2.105 . S
O673 C667 1.268 . S
O674 Sc662 2.105 . S
O674 C668 1.268 . S
O675 Sc661 2.105 . S
O675 C669 1.268 . S
O676 Sc660 2.105 . S
O676 C668 1.268 . S
O677 Sc661 2.105 . S
O677 C667 1.268 . S
O678 Sc662 2.105 . S
O678 C669 1.268 . S
O679 Sc660 2.105 . S
O679 C665 1.268 . S
O680 Sc662 2.105 . S
O680 C664 1.268 . S
O681 Sc661 2.105 . S
O681 C666 1.268 . S
Sc682 O685 2.025 . S
Sc682 O692 2.105 . S
Sc682 O695 2.105 . S
Sc682 O698 2.105 . S
Sc682 O701 2.105 . S
Sc683 O685 2.025 . S
Sc683 O693 2.105 . S
Sc683 O697 2.105 . S
Sc683 O699 2.105 . S
Sc683 O703 2.105 . S
Sc684 O685 2.025 . S
Sc684 O694 2.105 . S
Sc684 O696 2.105 . S
Sc684 O700 2.105 . S
Sc684 O702 2.105 . S
O685 Sc682 2.025 . S
O685 Sc683 2.025 . S
O685 Sc684 2.025 . S
C686 O692 1.268 . S
C686 O702 1.268 . S
C687 O693 1.268 . S
C687 O701 1.268 . S
C688 O694 1.268 . S
C688 O703 1.268 . S
C689 O695 1.268 . S
C689 O699 1.268 . S
C690 O696 1.268 . S
C690 O698 1.268 . S
C691 O697 1.268 . S
C691 O700 1.268 . S
O692 Sc682 2.105 . S
O692 C686 1.268 . S
O693 Sc683 2.105 . S
O693 C687 1.268 . S
O694 Sc684 2.105 . S
O694 C688 1.268 . S
O695 Sc682 2.105 . S
O695 C689 1.268 . S
O696 Sc684 2.105 . S
O696 C690 1.268 . S
O697 Sc683 2.105 . S
O697 C691 1.268 . S
O698 Sc682 2.105 . S
O698 C690 1.268 . S
O699 Sc683 2.105 . S
O699 C689 1.268 . S
O700 Sc684 2.105 . S
O700 C691 1.268 . S
O701 Sc682 2.105 . S
O701 C687 1.268 . S
O702 Sc684 2.105 . S
O702 C686 1.268 . S
O703 Sc683 2.105 . S
O703 C688 1.268 . S
C704 C705 1.387 . S
C704 H708 0.950 . S
C704 C713 1.390 . S
C705 C704 1.387 . S
C705 C707 1.387 . S
H706 C713 0.950 . S
C707 C705 1.387 . S
C707 C709 1.390 . S
C707 H711 0.950 . S
H708 C704 0.950 . S
C709 C707 1.390 . S
C709 C710 1.387 . S
C709 H712 0.950 . S
C710 C709 1.387 . S
C710 C713 1.387 . S
H711 C707 0.950 . S
H712 C709 0.950 . S
C713 C704 1.390 . S
C713 H706 0.950 . S
C713 C710 1.387 . S
C714 C715 1.387 . S
C714 H718 0.950 . S
C714 C723 1.390 . S
C715 C714 1.387 . S
C715 C717 1.387 . S
H716 C723 0.950 . S
C717 C715 1.387 . S
C717 C719 1.390 . S
C717 H721 0.950 . S
H718 C714 0.950 . S
C719 C717 1.390 . S
C719 C720 1.387 . S
C719 H722 0.950 . S
C720 C719 1.387 . S
C720 C723 1.387 . S
H721 C717 0.950 . S
H722 C719 0.950 . S
C723 C714 1.390 . S
C723 H716 0.950 . S
C723 C720 1.387 . S
C724 C725 1.387 . S
C724 H728 0.950 . S
C724 C733 1.390 . S
C725 C724 1.387 . S
C725 C727 1.387 . S
H726 C733 0.950 . S
C727 C725 1.387 . S
C727 C729 1.390 . S
C727 H731 0.950 . S
H728 C724 0.950 . S
C729 C727 1.390 . S
C729 C730 1.387 . S
C729 H732 0.950 . S
C730 C729 1.387 . S
C730 C733 1.387 . S
H731 C727 0.950 . S
H732 C729 0.950 . S
C733 C724 1.390 . S
C733 H726 0.950 . S
C733 C730 1.387 . S
C734 C735 1.387 . S
C734 H738 0.950 . S
C734 C743 1.390 . S
C735 C734 1.387 . S
C735 C737 1.387 . S
H736 C743 0.950 . S
C737 C735 1.387 . S
C737 C739 1.390 . S
C737 H741 0.950 . S
H738 C734 0.950 . S
C739 C737 1.390 . S
C739 C740 1.387 . S
C739 H742 0.950 . S
C740 C739 1.387 . S
C740 C743 1.387 . S
H741 C737 0.950 . S
H742 C739 0.950 . S
C743 C734 1.390 . S
C743 H736 0.950 . S
C743 C740 1.387 . S
C744 C745 1.387 . S
C744 H748 0.950 . S
C744 C753 1.390 . S
C745 C744 1.387 . S
C745 C747 1.387 . S
H746 C753 0.950 . S
C747 C745 1.387 . S
C747 C749 1.390 . S
C747 H751 0.950 . S
H748 C744 0.950 . S
C749 C747 1.390 . S
C749 C750 1.387 . S
C749 H752 0.950 . S
C750 C749 1.387 . S
C750 C753 1.387 . S
H751 C747 0.950 . S
H752 C749 0.950 . S
C753 C744 1.390 . S
C753 H746 0.950 . S
C753 C750 1.387 . S
C754 C755 1.387 . S
C754 H758 0.950 . S
C754 C763 1.390 . S
C755 C754 1.387 . S
C755 C757 1.387 . S
H756 C763 0.950 . S
C757 C755 1.387 . S
C757 C759 1.390 . S
C757 H761 0.950 . S
H758 C754 0.950 . S
C759 C757 1.390 . S
C759 C760 1.387 . S
C759 H762 0.950 . S
C760 C759 1.387 . S
C760 C763 1.387 . S
H761 C757 0.950 . S
H762 C759 0.950 . S
C763 C754 1.390 . S
C763 H756 0.950 . S
C763 C760 1.387 . S
C764 C765 1.387 . S
C764 H768 0.950 . S
C764 C773 1.390 . S
C765 C764 1.387 . S
C765 C767 1.387 . S
H766 C773 0.950 . S
C767 C765 1.387 . S
C767 C769 1.390 . S
C767 H771 0.950 . S
H768 C764 0.950 . S
C769 C767 1.390 . S
C769 C770 1.387 . S
C769 H772 0.950 . S
C770 C769 1.387 . S
C770 C773 1.387 . S
H771 C767 0.950 . S
H772 C769 0.950 . S
C773 C764 1.390 . S
C773 H766 0.950 . S
C773 C770 1.387 . S
C774 C775 1.387 . S
C774 H778 0.950 . S
C774 C783 1.390 . S
C775 C774 1.387 . S
C775 C777 1.387 . S
H776 C783 0.950 . S
C777 C775 1.387 . S
C777 C779 1.390 . S
C777 H781 0.950 . S
H778 C774 0.950 . S
C779 C777 1.390 . S
C779 C780 1.387 . S
C779 H782 0.950 . S
C780 C779 1.387 . S
C780 C783 1.387 . S
H781 C777 0.950 . S
H782 C779 0.950 . S
C783 C774 1.390 . S
C783 H776 0.950 . S
C783 C780 1.387 . S
C784 C785 1.387 . S
C784 H788 0.950 . S
C784 C793 1.390 . S
C785 C784 1.387 . S
C785 C787 1.387 . S
H786 C793 0.950 . S
C787 C785 1.387 . S
C787 C789 1.390 . S
C787 H791 0.950 . S
H788 C784 0.950 . S
C789 C787 1.390 . S
C789 C790 1.387 . S
C789 H792 0.950 . S
C790 C789 1.387 . S
C790 C793 1.387 . S
H791 C787 0.950 . S
H792 C789 0.950 . S
C793 C784 1.390 . S
C793 H786 0.950 . S
C793 C790 1.387 . S
C794 C795 1.387 . S
C794 H798 0.950 . S
C794 C803 1.390 . S
C795 C794 1.387 . S
C795 C797 1.387 . S
H796 C803 0.950 . S
C797 C795 1.387 . S
C797 C799 1.390 . S
C797 H801 0.950 . S
H798 C794 0.950 . S
C799 C797 1.390 . S
C799 C800 1.387 . S
C799 H802 0.950 . S
C800 C799 1.387 . S
C800 C803 1.387 . S
H801 C797 0.950 . S
H802 C799 0.950 . S
C803 C794 1.390 . S
C803 H796 0.950 . S
C803 C800 1.387 . S
C804 C805 1.387 . S
C804 H808 0.950 . S
C804 C813 1.390 . S
C805 C804 1.387 . S
C805 C807 1.387 . S
H806 C813 0.950 . S
C807 C805 1.387 . S
C807 C809 1.390 . S
C807 H811 0.950 . S
H808 C804 0.950 . S
C809 C807 1.390 . S
C809 C810 1.387 . S
C809 H812 0.950 . S
C810 C809 1.387 . S
C810 C813 1.387 . S
H811 C807 0.950 . S
H812 C809 0.950 . S
C813 C804 1.390 . S
C813 H806 0.950 . S
C813 C810 1.387 . S
C814 C815 1.387 . S
C814 H818 0.950 . S
C814 C823 1.390 . S
C815 C814 1.387 . S
C815 C817 1.387 . S
H816 C823 0.950 . S
C817 C815 1.387 . S
C817 C819 1.390 . S
C817 H821 0.950 . S
H818 C814 0.950 . S
C819 C817 1.390 . S
C819 C820 1.387 . S
C819 H822 0.950 . S
C820 C819 1.387 . S
C820 C823 1.387 . S
H821 C817 0.950 . S
H822 C819 0.950 . S
C823 C814 1.390 . S
C823 H816 0.950 . S
C823 C820 1.387 . S
C824 C825 1.387 . S
C824 H828 0.950 . S
C824 C833 1.390 . S
C825 C824 1.387 . S
C825 C827 1.387 . S
H826 C833 0.950 . S
C827 C825 1.387 . S
C827 C829 1.390 . S
C827 H831 0.950 . S
H828 C824 0.950 . S
C829 C827 1.390 . S
C829 C830 1.387 . S
C829 H832 0.950 . S
C830 C829 1.387 . S
C830 C833 1.387 . S
H831 C827 0.950 . S
H832 C829 0.950 . S
C833 C824 1.390 . S
C833 H826 0.950 . S
C833 C830 1.387 . S
C834 C835 1.387 . S
C834 H838 0.950 . S
C834 C843 1.390 . S
C835 C834 1.387 . S
C835 C837 1.387 . S
H836 C843 0.950 . S
C837 C835 1.387 . S
C837 C839 1.390 . S
C837 H841 0.950 . S
H838 C834 0.950 . S
C839 C837 1.390 . S
C839 C840 1.387 . S
C839 H842 0.950 . S
C840 C839 1.387 . S
C840 C843 1.387 . S
H841 C837 0.950 . S
H842 C839 0.950 . S
C843 C834 1.390 . S
C843 H836 0.950 . S
C843 C840 1.387 . S
C844 C845 1.387 . S
C844 H848 0.950 . S
C844 C853 1.390 . S
C845 C844 1.387 . S
C845 C847 1.387 . S
H846 C853 0.950 . S
C847 C845 1.387 . S
C847 C849 1.390 . S
C847 H851 0.950 . S
H848 C844 0.950 . S
C849 C847 1.390 . S
C849 C850 1.387 . S
C849 H852 0.950 . S
C850 C849 1.387 . S
C850 C853 1.387 . S
H851 C847 0.950 . S
H852 C849 0.950 . S
C853 C844 1.390 . S
C853 H846 0.950 . S
C853 C850 1.387 . S
C854 C855 1.387 . S
C854 H858 0.950 . S
C854 C863 1.390 . S
C855 C854 1.387 . S
C855 C857 1.387 . S
H856 C863 0.950 . S
C857 C855 1.387 . S
C857 C859 1.390 . S
C857 H861 0.950 . S
H858 C854 0.950 . S
C859 C857 1.390 . S
C859 C860 1.387 . S
C859 H862 0.950 . S
C860 C859 1.387 . S
C860 C863 1.387 . S
H861 C857 0.950 . S
H862 C859 0.950 . S
C863 C854 1.390 . S
C863 H856 0.950 . S
C863 C860 1.387 . S
C864 C865 1.387 . S
C864 H868 0.950 . S
C864 C873 1.390 . S
C865 C864 1.387 . S
C865 C867 1.387 . S
H866 C873 0.950 . S
C867 C865 1.387 . S
C867 C869 1.390 . S
C867 H871 0.950 . S
H868 C864 0.950 . S
C869 C867 1.390 . S
C869 C870 1.387 . S
C869 H872 0.950 . S
C870 C869 1.387 . S
C870 C873 1.387 . S
H871 C867 0.950 . S
H872 C869 0.950 . S
C873 C864 1.390 . S
C873 H866 0.950 . S
C873 C870 1.387 . S
C874 C875 1.387 . S
C874 H878 0.950 . S
C874 C883 1.390 . S
C875 C874 1.387 . S
C875 C877 1.387 . S
H876 C883 0.950 . S
C877 C875 1.387 . S
C877 C879 1.390 . S
C877 H881 0.950 . S
H878 C874 0.950 . S
C879 C877 1.390 . S
C879 C880 1.387 . S
C879 H882 0.950 . S
C880 C879 1.387 . S
C880 C883 1.387 . S
H881 C877 0.950 . S
H882 C879 0.950 . S
C883 C874 1.390 . S
C883 H876 0.950 . S
C883 C880 1.387 . S
C884 C885 1.387 . S
C884 H888 0.950 . S
C884 C893 1.390 . S
C885 C884 1.387 . S
C885 C887 1.387 . S
H886 C893 0.950 . S
C887 C885 1.387 . S
C887 C889 1.390 . S
C887 H891 0.950 . S
H888 C884 0.950 . S
C889 C887 1.390 . S
C889 C890 1.387 . S
C889 H892 0.950 . S
C890 C889 1.387 . S
C890 C893 1.387 . S
H891 C887 0.950 . S
H892 C889 0.950 . S
C893 C884 1.390 . S
C893 H886 0.950 . S
C893 C890 1.387 . S
C894 C895 1.387 . S
C894 H898 0.950 . S
C894 C903 1.390 . S
C895 C894 1.387 . S
C895 C897 1.387 . S
H896 C903 0.950 . S
C897 C895 1.387 . S
C897 C899 1.390 . S
C897 H901 0.950 . S
H898 C894 0.950 . S
C899 C897 1.390 . S
C899 C900 1.387 . S
C899 H902 0.950 . S
C900 C899 1.387 . S
C900 C903 1.387 . S
H901 C897 0.950 . S
H902 C899 0.950 . S
C903 C894 1.390 . S
C903 H896 0.950 . S
C903 C900 1.387 . S
C904 C905 1.387 . S
C904 H908 0.950 . S
C904 C913 1.390 . S
C905 C904 1.387 . S
C905 C907 1.387 . S
H906 C913 0.950 . S
C907 C905 1.387 . S
C907 C909 1.390 . S
C907 H911 0.950 . S
H908 C904 0.950 . S
C909 C907 1.390 . S
C909 C910 1.387 . S
C909 H912 0.950 . S
C910 C909 1.387 . S
C910 C913 1.387 . S
H911 C907 0.950 . S
H912 C909 0.950 . S
C913 C904 1.390 . S
C913 H906 0.950 . S
C913 C910 1.387 . S
C914 C915 1.387 . S
C914 H918 0.950 . S
C914 C923 1.390 . S
C915 C914 1.387 . S
C915 C917 1.387 . S
H916 C923 0.950 . S
C917 C915 1.387 . S
C917 C919 1.390 . S
C917 H921 0.950 . S
H918 C914 0.950 . S
C919 C917 1.390 . S
C919 C920 1.387 . S
C919 H922 0.950 . S
C920 C919 1.387 . S
C920 C923 1.387 . S
H921 C917 0.950 . S
H922 C919 0.950 . S
C923 C914 1.390 . S
C923 H916 0.950 . S
C923 C920 1.387 . S
C924 C925 1.387 . S
C924 H928 0.950 . S
C924 C933 1.390 . S
C925 C924 1.387 . S
C925 C927 1.387 . S
H926 C933 0.950 . S
C927 C925 1.387 . S
C927 C929 1.390 . S
C927 H931 0.950 . S
H928 C924 0.950 . S
C929 C927 1.390 . S
C929 C930 1.387 . S
C929 H932 0.950 . S
C930 C929 1.387 . S
C930 C933 1.387 . S
H931 C927 0.950 . S
H932 C929 0.950 . S
C933 C924 1.390 . S
C933 H926 0.950 . S
C933 C930 1.387 . S
C934 C935 1.387 . S
C934 H938 0.950 . S
C934 C943 1.390 . S
C935 C934 1.387 . S
C935 C937 1.387 . S
H936 C943 0.950 . S
C937 C935 1.387 . S
C937 C939 1.390 . S
C937 H941 0.950 . S
H938 C934 0.950 . S
C939 C937 1.390 . S
C939 C940 1.387 . S
C939 H942 0.950 . S
C940 C939 1.387 . S
C940 C943 1.387 . S
H941 C937 0.950 . S
H942 C939 0.950 . S
C943 C934 1.390 . S
C943 H936 0.950 . S
C943 C940 1.387 . S
C944 C945 1.387 . S
C944 H948 0.950 . S
C944 C953 1.390 . S
C945 C944 1.387 . S
C945 C947 1.387 . S
H946 C953 0.950 . S
C947 C945 1.387 . S
C947 C949 1.390 . S
C947 H951 0.950 . S
H948 C944 0.950 . S
C949 C947 1.390 . S
C949 C950 1.387 . S
C949 H952 0.950 . S
C950 C949 1.387 . S
C950 C953 1.387 . S
H951 C947 0.950 . S
H952 C949 0.950 . S
C953 C944 1.390 . S
C953 H946 0.950 . S
C953 C950 1.387 . S
C954 C955 1.387 . S
C954 H958 0.950 . S
C954 C963 1.390 . S
C955 C954 1.387 . S
C955 C957 1.387 . S
H956 C963 0.950 . S
C957 C955 1.387 . S
C957 C959 1.390 . S
C957 H961 0.950 . S
H958 C954 0.950 . S
C959 C957 1.390 . S
C959 C960 1.387 . S
C959 H962 0.950 . S
C960 C959 1.387 . S
C960 C963 1.387 . S
H961 C957 0.950 . S
H962 C959 0.950 . S
C963 C954 1.390 . S
C963 H956 0.950 . S
C963 C960 1.387 . S
C964 C965 1.387 . S
C964 H968 0.950 . S
C964 C973 1.390 . S
C965 C964 1.387 . S
C965 C967 1.387 . S
H966 C973 0.950 . S
C967 C965 1.387 . S
C967 C969 1.390 . S
C967 H971 0.950 . S
H968 C964 0.950 . S
C969 C967 1.390 . S
C969 C970 1.387 . S
C969 H972 0.950 . S
C970 C969 1.387 . S
C970 C973 1.387 . S
H971 C967 0.950 . S
H972 C969 0.950 . S
C973 C964 1.390 . S
C973 H966 0.950 . S
C973 C970 1.387 . S
C974 C975 1.387 . S
C974 H978 0.950 . S
C974 C983 1.390 . S
C975 C974 1.387 . S
C975 C977 1.387 . S
H976 C983 0.950 . S
C977 C975 1.387 . S
C977 C979 1.390 . S
C977 H981 0.950 . S
H978 C974 0.950 . S
C979 C977 1.390 . S
C979 C980 1.387 . S
C979 H982 0.950 . S
C980 C979 1.387 . S
C980 C983 1.387 . S
H981 C977 0.950 . S
H982 C979 0.950 . S
C983 C974 1.390 . S
C983 H976 0.950 . S
C983 C980 1.387 . S
C984 C985 1.387 . S
C984 H988 0.950 . S
C984 C993 1.390 . S
C985 C984 1.387 . S
C985 C987 1.387 . S
H986 C993 0.950 . S
C987 C985 1.387 . S
C987 C989 1.390 . S
C987 H991 0.950 . S
H988 C984 0.950 . S
C989 C987 1.390 . S
C989 C990 1.387 . S
C989 H992 0.950 . S
C990 C989 1.387 . S
C990 C993 1.387 . S
H991 C987 0.950 . S
H992 C989 0.950 . S
C993 C984 1.390 . S
C993 H986 0.950 . S
C993 C990 1.387 . S
C994 C995 1.387 . S
C994 H998 0.950 . S
C994 C1003 1.390 . S
C995 C994 1.387 . S
C995 C997 1.387 . S
H996 C1003 0.950 . S
C997 C995 1.387 . S
C997 C999 1.390 . S
C997 H1001 0.950 . S
H998 C994 0.950 . S
C999 C997 1.390 . S
C999 C1000 1.387 . S
C999 H1002 0.950 . S
C1000 C999 1.387 . S
C1000 C1003 1.387 . S
H1001 C997 0.950 . S
H1002 C999 0.950 . S
C1003 C994 1.390 . S
C1003 H996 0.950 . S
C1003 C1000 1.387 . S
C1004 C1005 1.387 . S
C1004 H1008 0.950 . S
C1004 C1013 1.390 . S
C1005 C1004 1.387 . S
C1005 C1007 1.387 . S
H1006 C1013 0.950 . S
C1007 C1005 1.387 . S
C1007 C1009 1.390 . S
C1007 H1011 0.950 . S
H1008 C1004 0.950 . S
C1009 C1007 1.390 . S
C1009 C1010 1.387 . S
C1009 H1012 0.950 . S
C1010 C1009 1.387 . S
C1010 C1013 1.387 . S
H1011 C1007 0.950 . S
H1012 C1009 0.950 . S
C1013 C1004 1.390 . S
C1013 H1006 0.950 . S
C1013 C1010 1.387 . S
C1014 C1015 1.387 . S
C1014 H1018 0.950 . S
C1014 C1023 1.390 . S
C1015 C1014 1.387 . S
C1015 C1017 1.387 . S
H1016 C1023 0.950 . S
C1017 C1015 1.387 . S
C1017 C1019 1.390 . S
C1017 H1021 0.950 . S
H1018 C1014 0.950 . S
C1019 C1017 1.390 . S
C1019 C1020 1.387 . S
C1019 H1022 0.950 . S
C1020 C1019 1.387 . S
C1020 C1023 1.387 . S
H1021 C1017 0.950 . S
H1022 C1019 0.950 . S
C1023 C1014 1.390 . S
C1023 H1016 0.950 . S
C1023 C1020 1.387 . S
C1024 C1025 1.387 . S
C1024 H1028 0.950 . S
C1024 C1033 1.390 . S
C1025 C1024 1.387 . S
C1025 C1027 1.387 . S
H1026 C1033 0.950 . S
C1027 C1025 1.387 . S
C1027 C1029 1.390 . S
C1027 H1031 0.950 . S
H1028 C1024 0.950 . S
C1029 C1027 1.390 . S
C1029 C1030 1.387 . S
C1029 H1032 0.950 . S
C1030 C1029 1.387 . S
C1030 C1033 1.387 . S
H1031 C1027 0.950 . S
H1032 C1029 0.950 . S
C1033 C1024 1.390 . S
C1033 H1026 0.950 . S
C1033 C1030 1.387 . S
C1034 C1035 1.387 . S
C1034 H1038 0.950 . S
C1034 C1043 1.390 . S
C1035 C1034 1.387 . S
C1035 C1037 1.387 . S
H1036 C1043 0.950 . S
C1037 C1035 1.387 . S
C1037 C1039 1.390 . S
C1037 H1041 0.950 . S
H1038 C1034 0.950 . S
C1039 C1037 1.390 . S
C1039 C1040 1.387 . S
C1039 H1042 0.950 . S
C1040 C1039 1.387 . S
C1040 C1043 1.387 . S
H1041 C1037 0.950 . S
H1042 C1039 0.950 . S
C1043 C1034 1.390 . S
C1043 H1036 0.950 . S
C1043 C1040 1.387 . S
C1044 C1045 1.387 . S
C1044 H1048 0.950 . S
C1044 C1053 1.390 . S
C1045 C1044 1.387 . S
C1045 C1047 1.387 . S
H1046 C1053 0.950 . S
C1047 C1045 1.387 . S
C1047 C1049 1.390 . S
C1047 H1051 0.950 . S
H1048 C1044 0.950 . S
C1049 C1047 1.390 . S
C1049 C1050 1.387 . S
C1049 H1052 0.950 . S
C1050 C1049 1.387 . S
C1050 C1053 1.387 . S
H1051 C1047 0.950 . S
H1052 C1049 0.950 . S
C1053 C1044 1.390 . S
C1053 H1046 0.950 . S
C1053 C1050 1.387 . S
C1054 C1055 1.387 . S
C1054 H1058 0.950 . S
C1054 C1063 1.390 . S
C1055 C1054 1.387 . S
C1055 C1057 1.387 . S
H1056 C1063 0.950 . S
C1057 C1055 1.387 . S
C1057 C1059 1.390 . S
C1057 H1061 0.950 . S
H1058 C1054 0.950 . S
C1059 C1057 1.390 . S
C1059 C1060 1.387 . S
C1059 H1062 0.950 . S
C1060 C1059 1.387 . S
C1060 C1063 1.387 . S
H1061 C1057 0.950 . S
H1062 C1059 0.950 . S
C1063 C1054 1.390 . S
C1063 H1056 0.950 . S
C1063 C1060 1.387 . S
C1064 C1065 1.387 . S
C1064 H1068 0.950 . S
C1064 C1073 1.390 . S
C1065 C1064 1.387 . S
C1065 C1067 1.387 . S
H1066 C1073 0.950 . S
C1067 C1065 1.387 . S
C1067 C1069 1.390 . S
C1067 H1071 0.950 . S
H1068 C1064 0.950 . S
C1069 C1067 1.390 . S
C1069 C1070 1.387 . S
C1069 H1072 0.950 . S
C1070 C1069 1.387 . S
C1070 C1073 1.387 . S
H1071 C1067 0.950 . S
H1072 C1069 0.950 . S
C1073 C1064 1.390 . S
C1073 H1066 0.950 . S
C1073 C1070 1.387 . S
C1074 C1075 1.387 . S
C1074 H1078 0.950 . S
C1074 C1083 1.390 . S
C1075 C1074 1.387 . S
C1075 C1077 1.387 . S
H1076 C1083 0.950 . S
C1077 C1075 1.387 . S
C1077 C1079 1.390 . S
C1077 H1081 0.950 . S
H1078 C1074 0.950 . S
C1079 C1077 1.390 . S
C1079 C1080 1.387 . S
C1079 H1082 0.950 . S
C1080 C1079 1.387 . S
C1080 C1083 1.387 . S
H1081 C1077 0.950 . S
H1082 C1079 0.950 . S
C1083 C1074 1.390 . S
C1083 H1076 0.950 . S
C1083 C1080 1.387 . S
C1084 C1085 1.387 . S
C1084 H1088 0.950 . S
C1084 C1093 1.390 . S
C1085 C1084 1.387 . S
C1085 C1087 1.387 . S
H1086 C1093 0.950 . S
C1087 C1085 1.387 . S
C1087 C1089 1.390 . S
C1087 H1091 0.950 . S
H1088 C1084 0.950 . S
C1089 C1087 1.390 . S
C1089 C1090 1.387 . S
C1089 H1092 0.950 . S
C1090 C1089 1.387 . S
C1090 C1093 1.387 . S
H1091 C1087 0.950 . S
H1092 C1089 0.950 . S
C1093 C1084 1.390 . S
C1093 H1086 0.950 . S
C1093 C1090 1.387 . S
C1094 C1095 1.387 . S
C1094 H1098 0.950 . S
C1094 C1103 1.390 . S
C1095 C1094 1.387 . S
C1095 C1097 1.387 . S
H1096 C1103 0.950 . S
C1097 C1095 1.387 . S
C1097 C1099 1.390 . S
C1097 H1101 0.950 . S
H1098 C1094 0.950 . S
C1099 C1097 1.390 . S
C1099 C1100 1.387 . S
C1099 H1102 0.950 . S
C1100 C1099 1.387 . S
C1100 C1103 1.387 . S
H1101 C1097 0.950 . S
H1102 C1099 0.950 . S
C1103 C1094 1.390 . S
C1103 H1096 0.950 . S
C1103 C1100 1.387 . S
C1104 C1105 1.387 . S
C1104 H1108 0.950 . S
C1104 C1113 1.390 . S
C1105 C1104 1.387 . S
C1105 C1107 1.387 . S
H1106 C1113 0.950 . S
C1107 C1105 1.387 . S
C1107 C1109 1.390 . S
C1107 H1111 0.950 . S
H1108 C1104 0.950 . S
C1109 C1107 1.390 . S
C1109 C1110 1.387 . S
C1109 H1112 0.950 . S
C1110 C1109 1.387 . S
C1110 C1113 1.387 . S
H1111 C1107 0.950 . S
H1112 C1109 0.950 . S
C1113 C1104 1.390 . S
C1113 H1106 0.950 . S
C1113 C1110 1.387 . S
C1114 C1115 1.387 . S
C1114 H1118 0.950 . S
C1114 C1123 1.390 . S
C1115 C1114 1.387 . S
C1115 C1117 1.387 . S
H1116 C1123 0.950 . S
C1117 C1115 1.387 . S
C1117 C1119 1.390 . S
C1117 H1121 0.950 . S
H1118 C1114 0.950 . S
C1119 C1117 1.390 . S
C1119 C1120 1.387 . S
C1119 H1122 0.950 . S
C1120 C1119 1.387 . S
C1120 C1123 1.387 . S
H1121 C1117 0.950 . S
H1122 C1119 0.950 . S
C1123 C1114 1.390 . S
C1123 H1116 0.950 . S
C1123 C1120 1.387 . S
C1124 C1125 1.387 . S
C1124 H1128 0.950 . S
C1124 C1133 1.390 . S
C1125 C1124 1.387 . S
C1125 C1127 1.387 . S
H1126 C1133 0.950 . S
C1127 C1125 1.387 . S
C1127 C1129 1.390 . S
C1127 H1131 0.950 . S
H1128 C1124 0.950 . S
C1129 C1127 1.390 . S
C1129 C1130 1.387 . S
C1129 H1132 0.950 . S
C1130 C1129 1.387 . S
C1130 C1133 1.387 . S
H1131 C1127 0.950 . S
H1132 C1129 0.950 . S
C1133 C1124 1.390 . S
C1133 H1126 0.950 . S
C1133 C1130 1.387 . S
C1134 C1135 1.387 . S
C1134 H1138 0.950 . S
C1134 C1143 1.390 . S
C1135 C1134 1.387 . S
C1135 C1137 1.387 . S
H1136 C1143 0.950 . S
C1137 C1135 1.387 . S
C1137 C1139 1.390 . S
C1137 H1141 0.950 . S
H1138 C1134 0.950 . S
C1139 C1137 1.390 . S
C1139 C1140 1.387 . S
C1139 H1142 0.950 . S
C1140 C1139 1.387 . S
C1140 C1143 1.387 . S
H1141 C1137 0.950 . S
H1142 C1139 0.950 . S
C1143 C1134 1.390 . S
C1143 H1136 0.950 . S
C1143 C1140 1.387 . S
C1144 C1145 1.387 . S
C1144 H1148 0.950 . S
C1144 C1153 1.390 . S
C1145 C1144 1.387 . S
C1145 C1147 1.387 . S
H1146 C1153 0.950 . S
C1147 C1145 1.387 . S
C1147 C1149 1.390 . S
C1147 H1151 0.950 . S
H1148 C1144 0.950 . S
C1149 C1147 1.390 . S
C1149 C1150 1.387 . S
C1149 H1152 0.950 . S
C1150 C1149 1.387 . S
C1150 C1153 1.387 . S
H1151 C1147 0.950 . S
H1152 C1149 0.950 . S
C1153 C1144 1.390 . S
C1153 H1146 0.950 . S
C1153 C1150 1.387 . S
C1154 C1155 1.387 . S
C1154 H1158 0.950 . S
C1154 C1163 1.390 . S
C1155 C1154 1.387 . S
C1155 C1157 1.387 . S
H1156 C1163 0.950 . S
C1157 C1155 1.387 . S
C1157 C1159 1.390 . S
C1157 H1161 0.950 . S
H1158 C1154 0.950 . S
C1159 C1157 1.390 . S
C1159 C1160 1.387 . S
C1159 H1162 0.950 . S
C1160 C1159 1.387 . S
C1160 C1163 1.387 . S
H1161 C1157 0.950 . S
H1162 C1159 0.950 . S
C1163 C1154 1.390 . S
C1163 H1156 0.950 . S
C1163 C1160 1.387 . S
C1164 C1165 1.387 . S
C1164 H1168 0.950 . S
C1164 C1173 1.390 . S
C1165 C1164 1.387 . S
C1165 C1167 1.387 . S
H1166 C1173 0.950 . S
C1167 C1165 1.387 . S
C1167 C1169 1.390 . S
C1167 H1171 0.950 . S
H1168 C1164 0.950 . S
C1169 C1167 1.390 . S
C1169 C1170 1.387 . S
C1169 H1172 0.950 . S
C1170 C1169 1.387 . S
C1170 C1173 1.387 . S
H1171 C1167 0.950 . S
H1172 C1169 0.950 . S
C1173 C1164 1.390 . S
C1173 H1166 0.950 . S
C1173 C1170 1.387 . S
C1174 C1175 1.387 . S
C1174 H1178 0.950 . S
C1174 C1183 1.390 . S
C1175 C1174 1.387 . S
C1175 C1177 1.387 . S
H1176 C1183 0.950 . S
C1177 C1175 1.387 . S
C1177 C1179 1.390 . S
C1177 H1181 0.950 . S
H1178 C1174 0.950 . S
C1179 C1177 1.390 . S
C1179 C1180 1.387 . S
C1179 H1182 0.950 . S
C1180 C1179 1.387 . S
C1180 C1183 1.387 . S
H1181 C1177 0.950 . S
H1182 C1179 0.950 . S
C1183 C1174 1.390 . S
C1183 H1176 0.950 . S
C1183 C1180 1.387 . S
C1184 C1185 1.387 . S
C1184 H1188 0.950 . S
C1184 C1193 1.390 1_565 S
C1185 C1184 1.387 . S
C1185 C1187 1.387 . S
H1186 C1193 0.950 . S
C1187 C1185 1.387 . S
C1187 C1189 1.390 1_565 S
C1187 H1191 0.950 . S
H1188 C1184 0.950 . S
C1189 C1187 1.390 1_545 S
C1189 C1190 1.387 . S
C1189 H1192 0.950 . S
C1190 C1189 1.387 . S
C1190 C1193 1.387 . S
H1191 C1187 0.950 . S
H1192 C1189 0.950 . S
C1193 C1184 1.390 1_545 S
C1193 H1186 0.950 . S
C1193 C1190 1.387 . S
C1194 C1195 1.387 . S
C1194 H1198 0.950 . S
C1194 C1203 1.390 1_655 S
C1195 C1194 1.387 . S
C1195 C1197 1.387 . S
H1196 C1203 0.950 . S
C1197 C1195 1.387 . S
C1197 C1199 1.390 1_655 S
C1197 H1201 0.950 . S
H1198 C1194 0.950 . S
C1199 C1197 1.390 1_455 S
C1199 C1200 1.387 . S
C1199 H1202 0.950 . S
C1200 C1199 1.387 . S
C1200 C1203 1.387 . S
H1201 C1197 0.950 . S
H1202 C1199 0.950 . S
C1203 C1194 1.390 1_455 S
C1203 H1196 0.950 . S
C1203 C1200 1.387 . S
C1204 C1205 1.387 . S
C1204 H1208 0.950 . S
C1204 C1213 1.390 1_545 S
C1205 C1204 1.387 . S
C1205 C1207 1.387 . S
H1206 C1213 0.950 . S
C1207 C1205 1.387 . S
C1207 C1209 1.390 1_545 S
C1207 H1211 0.950 . S
H1208 C1204 0.950 . S
C1209 C1207 1.390 1_565 S
C1209 C1210 1.387 . S
C1209 H1212 0.950 . S
C1210 C1209 1.387 . S
C1210 C1213 1.387 . S
H1211 C1207 0.950 . S
H1212 C1209 0.950 . S
C1213 C1204 1.390 1_565 S
C1213 H1206 0.950 . S
C1213 C1210 1.387 . S
C1214 C1215 1.387 . S
C1214 H1218 0.950 . S
C1214 C1223 1.390 1_655 S
C1215 C1214 1.387 . S
C1215 C1217 1.387 . S
H1216 C1223 0.950 . S
C1217 C1215 1.387 . S
C1217 C1219 1.390 1_655 S
C1217 H1221 0.950 . S
H1218 C1214 0.950 . S
C1219 C1217 1.390 1_455 S
C1219 C1220 1.387 . S
C1219 H1222 0.950 . S
C1220 C1219 1.387 . S
C1220 C1223 1.387 . S
H1221 C1217 0.950 . S
H1222 C1219 0.950 . S
C1223 C1214 1.390 1_455 S
C1223 H1216 0.950 . S
C1223 C1220 1.387 . S
C1224 C1225 1.387 . S
C1224 H1228 0.950 . S
C1224 C1233 1.390 1_545 S
C1225 C1224 1.387 . S
C1225 C1227 1.387 . S
H1226 C1233 0.950 . S
C1227 C1225 1.387 . S
C1227 C1229 1.390 1_545 S
C1227 H1231 0.950 . S
H1228 C1224 0.950 . S
C1229 C1227 1.390 1_565 S
C1229 C1230 1.387 . S
C1229 H1232 0.950 . S
C1230 C1229 1.387 . S
C1230 C1233 1.387 . S
H1231 C1227 0.950 . S
H1232 C1229 0.950 . S
C1233 C1224 1.390 1_565 S
C1233 H1226 0.950 . S
C1233 C1230 1.387 . S
C1234 C1235 1.387 . S
C1234 H1238 0.950 . S
C1234 C1243 1.390 1_655 S
C1235 C1234 1.387 . S
C1235 C1237 1.387 . S
H1236 C1243 0.950 . S
C1237 C1235 1.387 . S
C1237 C1239 1.390 1_655 S
C1237 H1241 0.950 . S
H1238 C1234 0.950 . S
C1239 C1237 1.390 1_455 S
C1239 C1240 1.387 . S
C1239 H1242 0.950 . S
C1240 C1239 1.387 . S
C1240 C1243 1.387 . S
H1241 C1237 0.950 . S
H1242 C1239 0.950 . S
C1243 C1234 1.390 1_455 S
C1243 H1236 0.950 . S
C1243 C1240 1.387 . S
C1244 C1245 1.387 . S
C1244 H1248 0.950 . S
C1244 C1253 1.390 1_545 S
C1245 C1244 1.387 . S
C1245 C1247 1.387 . S
H1246 C1253 0.950 . S
C1247 C1245 1.387 . S
C1247 C1249 1.390 1_545 S
C1247 H1251 0.950 . S
H1248 C1244 0.950 . S
C1249 C1247 1.390 1_565 S
C1249 C1250 1.387 . S
C1249 H1252 0.950 . S
C1250 C1249 1.387 . S
C1250 C1253 1.387 . S
H1251 C1247 0.950 . S
H1252 C1249 0.950 . S
C1253 C1244 1.390 1_565 S
C1253 H1246 0.950 . S
C1253 C1250 1.387 . S
C1254 C1255 1.387 . S
C1254 H1258 0.950 . S
C1254 C1263 1.390 1_655 S
C1255 C1254 1.387 . S
C1255 C1257 1.387 . S
H1256 C1263 0.950 . S
C1257 C1255 1.387 . S
C1257 C1259 1.390 1_655 S
C1257 H1261 0.950 . S
H1258 C1254 0.950 . S
C1259 C1257 1.390 1_455 S
C1259 C1260 1.387 . S
C1259 H1262 0.950 . S
C1260 C1259 1.387 . S
C1260 C1263 1.387 . S
H1261 C1257 0.950 . S
H1262 C1259 0.950 . S
C1263 C1254 1.390 1_455 S
C1263 H1256 0.950 . S
C1263 C1260 1.387 . S
C1264 C1265 1.387 . S
C1264 H1268 0.950 . S
C1264 C1273 1.390 1_554 S
C1265 C1264 1.387 . S
C1265 C1267 1.387 . S
H1266 C1273 0.950 . S
C1267 C1265 1.387 . S
C1267 C1269 1.390 1_554 S
C1267 H1271 0.950 . S
H1268 C1264 0.950 . S
C1269 C1267 1.390 1_556 S
C1269 C1270 1.387 . S
C1269 H1272 0.950 . S
C1270 C1269 1.387 . S
C1270 C1273 1.387 . S
H1271 C1267 0.950 . S
H1272 C1269 0.950 . S
C1273 C1264 1.390 1_556 S
C1273 H1266 0.950 . S
C1273 C1270 1.387 . S
C1274 C1275 1.387 . S
C1274 H1278 0.950 . S
C1274 C1283 1.390 1_556 S
C1275 C1274 1.387 . S
C1275 C1277 1.387 . S
H1276 C1283 0.950 . S
C1277 C1275 1.387 . S
C1277 C1279 1.390 1_556 S
C1277 H1281 0.950 . S
H1278 C1274 0.950 . S
C1279 C1277 1.390 1_554 S
C1279 C1280 1.387 . S
C1279 H1282 0.950 . S
C1280 C1279 1.387 . S
C1280 C1283 1.387 . S
H1281 C1277 0.950 . S
H1282 C1279 0.950 . S
C1283 C1274 1.390 1_554 S
C1283 H1276 0.950 . S
C1283 C1280 1.387 . S
C1284 C1285 1.387 . S
C1284 H1288 0.950 . S
C1284 C1293 1.390 1_556 S
C1285 C1284 1.387 . S
C1285 C1287 1.387 . S
H1286 C1293 0.950 . S
C1287 C1285 1.387 . S
C1287 C1289 1.390 1_556 S
C1287 H1291 0.950 . S
H1288 C1284 0.950 . S
C1289 C1287 1.390 1_554 S
C1289 C1290 1.387 . S
C1289 H1292 0.950 . S
C1290 C1289 1.387 . S
C1290 C1293 1.387 . S
H1291 C1287 0.950 . S
H1292 C1289 0.950 . S
C1293 C1284 1.390 1_554 S
C1293 H1286 0.950 . S
C1293 C1290 1.387 . S
C1294 C1295 1.387 . S
C1294 H1298 0.950 . S
C1294 C1303 1.390 1_554 S
C1295 C1294 1.387 . S
C1295 C1297 1.387 . S
H1296 C1303 0.950 . S
C1297 C1295 1.387 . S
C1297 C1299 1.390 1_554 S
C1297 H1301 0.950 . S
H1298 C1294 0.950 . S
C1299 C1297 1.390 1_556 S
C1299 C1300 1.387 . S
C1299 H1302 0.950 . S
C1300 C1299 1.387 . S
C1300 C1303 1.387 . S
H1301 C1297 0.950 . S
H1302 C1299 0.950 . S
C1303 C1294 1.390 1_556 S
C1303 H1296 0.950 . S
C1303 C1300 1.387 . S
C1304 C1305 1.387 . S
C1304 H1308 0.950 . S
C1304 C1313 1.390 1_556 S
C1305 C1304 1.387 . S
C1305 C1307 1.387 . S
H1306 C1313 0.950 . S
C1307 C1305 1.387 . S
C1307 C1309 1.390 1_556 S
C1307 H1311 0.950 . S
H1308 C1304 0.950 . S
C1309 C1307 1.390 1_554 S
C1309 C1310 1.387 . S
C1309 H1312 0.950 . S
C1310 C1309 1.387 . S
C1310 C1313 1.387 . S
H1311 C1307 0.950 . S
H1312 C1309 0.950 . S
C1313 C1304 1.390 1_554 S
C1313 H1306 0.950 . S
C1313 C1310 1.387 . S
C1314 C1315 1.387 . S
C1314 H1318 0.950 . S
C1314 C1323 1.390 1_554 S
C1315 C1314 1.387 . S
C1315 C1317 1.387 . S
H1316 C1323 0.950 . S
C1317 C1315 1.387 . S
C1317 C1319 1.390 1_554 S
C1317 H1321 0.950 . S
H1318 C1314 0.950 . S
C1319 C1317 1.390 1_556 S
C1319 C1320 1.387 . S
C1319 H1322 0.950 . S
C1320 C1319 1.387 . S
C1320 C1323 1.387 . S
H1321 C1317 0.950 . S
H1322 C1319 0.950 . S
C1323 C1314 1.390 1_556 S
C1323 H1316 0.950 . S
C1323 C1320 1.387 . S
C1324 C1325 1.387 . S
C1324 H1328 0.950 . S
C1324 C1333 1.390 1_554 S
C1325 C1324 1.387 . S
C1325 C1327 1.387 . S
H1326 C1333 0.950 . S
C1327 C1325 1.387 . S
C1327 C1329 1.390 1_554 S
C1327 H1331 0.950 . S
H1328 C1324 0.950 . S
C1329 C1327 1.390 1_556 S
C1329 C1330 1.387 . S
C1329 H1332 0.950 . S
C1330 C1329 1.387 . S
C1330 C1333 1.387 . S
H1331 C1327 0.950 . S
H1332 C1329 0.950 . S
C1333 C1324 1.390 1_556 S
C1333 H1326 0.950 . S
C1333 C1330 1.387 . S
C1334 C1335 1.387 . S
C1334 H1338 0.950 . S
C1334 C1343 1.390 1_556 S
C1335 C1334 1.387 . S
C1335 C1337 1.387 . S
H1336 C1343 0.950 . S
C1337 C1335 1.387 . S
C1337 C1339 1.390 1_556 S
C1337 H1341 0.950 . S
H1338 C1334 0.950 . S
C1339 C1337 1.390 1_554 S
C1339 C1340 1.387 . S
C1339 H1342 0.950 . S
C1340 C1339 1.387 . S
C1340 C1343 1.387 . S
H1341 C1337 0.950 . S
H1342 C1339 0.950 . S
C1343 C1334 1.390 1_554 S
C1343 H1336 0.950 . S
C1343 C1340 1.387 . S
C1344 C1345 1.387 . S
C1344 H1348 0.950 . S
C1344 C1353 1.390 1_455 S
C1345 C1344 1.387 . S
C1345 C1347 1.387 . S
H1346 C1353 0.950 . S
C1347 C1345 1.387 . S
C1347 C1349 1.390 1_455 S
C1347 H1351 0.950 . S
H1348 C1344 0.950 . S
C1349 C1347 1.390 1_655 S
C1349 C1350 1.387 . S
C1349 H1352 0.950 . S
C1350 C1349 1.387 . S
C1350 C1353 1.387 . S
H1351 C1347 0.950 . S
H1352 C1349 0.950 . S
C1353 C1344 1.390 1_655 S
C1353 H1346 0.950 . S
C1353 C1350 1.387 . S
C1354 C1355 1.387 . S
C1354 H1358 0.950 . S
C1354 C1363 1.390 1_455 S
C1355 C1354 1.387 . S
C1355 C1357 1.387 . S
H1356 C1363 0.950 . S
C1357 C1355 1.387 . S
C1357 C1359 1.390 1_455 S
C1357 H1361 0.950 . S
H1358 C1354 0.950 . S
C1359 C1357 1.390 1_655 S
C1359 C1360 1.387 . S
C1359 H1362 0.950 . S
C1360 C1359 1.387 . S
C1360 C1363 1.387 . S
H1361 C1357 0.950 . S
H1362 C1359 0.950 . S
C1363 C1354 1.390 1_655 S
C1363 H1356 0.950 . S
C1363 C1360 1.387 . S
C1364 C1365 1.387 . S
C1364 H1368 0.950 . S
C1364 C1373 1.390 1_565 S
C1365 C1364 1.387 . S
C1365 C1367 1.387 . S
H1366 C1373 0.950 . S
C1367 C1365 1.387 . S
C1367 C1369 1.390 1_565 S
C1367 H1371 0.950 . S
H1368 C1364 0.950 . S
C1369 C1367 1.390 1_545 S
C1369 C1370 1.387 . S
C1369 H1372 0.950 . S
C1370 C1369 1.387 . S
C1370 C1373 1.387 . S
H1371 C1367 0.950 . S
H1372 C1369 0.950 . S
C1373 C1364 1.390 1_545 S
C1373 H1366 0.950 . S
C1373 C1370 1.387 . S
C1374 C1375 1.387 . S
C1374 H1378 0.950 . S
C1374 C1383 1.390 1_455 S
C1375 C1374 1.387 . S
C1375 C1377 1.387 . S
H1376 C1383 0.950 . S
C1377 C1375 1.387 . S
C1377 C1379 1.390 1_455 S
C1377 H1381 0.950 . S
H1378 C1374 0.950 . S
C1379 C1377 1.390 1_655 S
C1379 C1380 1.387 . S
C1379 H1382 0.950 . S
C1380 C1379 1.387 . S
C1380 C1383 1.387 . S
H1381 C1377 0.950 . S
H1382 C1379 0.950 . S
C1383 C1374 1.390 1_655 S
C1383 H1376 0.950 . S
C1383 C1380 1.387 . S
C1384 C1385 1.387 . S
C1384 H1388 0.950 . S
C1384 C1393 1.390 1_565 S
C1385 C1384 1.387 . S
C1385 C1387 1.387 . S
H1386 C1393 0.950 . S
C1387 C1385 1.387 . S
C1387 C1389 1.390 1_565 S
C1387 H1391 0.950 . S
H1388 C1384 0.950 . S
C1389 C1387 1.390 1_545 S
C1389 C1390 1.387 . S
C1389 H1392 0.950 . S
C1390 C1389 1.387 . S
C1390 C1393 1.387 . S
H1391 C1387 0.950 . S
H1392 C1389 0.950 . S
C1393 C1384 1.390 1_545 S
C1393 H1386 0.950 . S
C1393 C1390 1.387 . S
C1394 C1395 1.387 . S
C1394 H1398 0.950 . S
C1394 C1403 1.390 1_655 S
C1395 C1394 1.387 . S
C1395 C1397 1.387 . S
H1396 C1403 0.950 . S
C1397 C1395 1.387 . S
C1397 C1399 1.390 1_655 S
C1397 H1401 0.950 . S
H1398 C1394 0.950 . S
C1399 C1397 1.390 1_455 S
C1399 C1400 1.387 . S
C1399 H1402 0.950 . S
C1400 C1399 1.387 . S
C1400 C1403 1.387 . S
H1401 C1397 0.950 . S
H1402 C1399 0.950 . S
C1403 C1394 1.390 1_455 S
C1403 H1396 0.950 . S
C1403 C1400 1.387 . S
C1404 C1405 1.387 . S
C1404 H1408 0.950 . S
C1404 C1413 1.390 1_565 S
C1405 C1404 1.387 . S
C1405 C1407 1.387 . S
H1406 C1413 0.950 . S
C1407 C1405 1.387 . S
C1407 C1409 1.390 1_565 S
C1407 H1411 0.950 . S
H1408 C1404 0.950 . S
C1409 C1407 1.390 1_545 S
C1409 C1410 1.387 . S
C1409 H1412 0.950 . S
C1410 C1409 1.387 . S
C1410 C1413 1.387 . S
H1411 C1407 0.950 . S
H1412 C1409 0.950 . S
C1413 C1404 1.390 1_545 S
C1413 H1406 0.950 . S
C1413 C1410 1.387 . S
C1414 C1415 1.387 . S
C1414 H1418 0.950 . S
C1414 C1423 1.390 1_565 S
C1415 C1414 1.387 . S
C1415 C1417 1.387 . S
H1416 C1423 0.950 . S
C1417 C1415 1.387 . S
C1417 C1419 1.390 1_565 S
C1417 H1421 0.950 . S
H1418 C1414 0.950 . S
C1419 C1417 1.390 1_545 S
C1419 C1420 1.387 . S
C1419 H1422 0.950 . S
C1420 C1419 1.387 . S
C1420 C1423 1.387 . S
H1421 C1417 0.950 . S
H1422 C1419 0.950 . S
C1423 C1414 1.390 1_545 S
C1423 H1416 0.950 . S
C1423 C1420 1.387 . S
C1424 C1425 1.387 . S
C1424 H1428 0.950 . S
C1424 C1433 1.390 . S
C1425 C1424 1.387 . S
C1425 C1427 1.387 . S
H1426 C1433 0.950 . S
C1427 C1425 1.387 . S
C1427 C1429 1.390 . S
C1427 H1431 0.950 . S
H1428 C1424 0.950 . S
C1429 C1427 1.390 . S
C1429 C1430 1.387 . S
C1429 H1432 0.950 . S
C1430 C1429 1.387 . S
C1430 C1433 1.387 . S
H1431 C1427 0.950 . S
H1432 C1429 0.950 . S
C1433 C1424 1.390 . S
C1433 H1426 0.950 . S
C1433 C1430 1.387 . S
C1434 C1435 1.387 . S
C1434 H1438 0.950 . S
C1434 C1443 1.390 . S
C1435 C1434 1.387 . S
C1435 C1437 1.387 . S
H1436 C1443 0.950 . S
C1437 C1435 1.387 . S
C1437 C1439 1.390 . S
C1437 H1441 0.950 . S
H1438 C1434 0.950 . S
C1439 C1437 1.390 . S
C1439 C1440 1.387 . S
C1439 H1442 0.950 . S
C1440 C1439 1.387 . S
C1440 C1443 1.387 . S
H1441 C1437 0.950 . S
H1442 C1439 0.950 . S
C1443 C1434 1.390 . S
C1443 H1436 0.950 . S
C1443 C1440 1.387 . S
C1444 C1445 1.387 . S
C1444 H1448 0.950 . S
C1444 C1453 1.390 . S
C1445 C1444 1.387 . S
C1445 C1447 1.387 . S
H1446 C1453 0.950 . S
C1447 C1445 1.387 . S
C1447 C1449 1.390 . S
C1447 H1451 0.950 . S
H1448 C1444 0.950 . S
C1449 C1447 1.390 . S
C1449 C1450 1.387 . S
C1449 H1452 0.950 . S
C1450 C1449 1.387 . S
C1450 C1453 1.387 . S
H1451 C1447 0.950 . S
H1452 C1449 0.950 . S
C1453 C1444 1.390 . S
C1453 H1446 0.950 . S
C1453 C1450 1.387 . S
C1454 C1455 1.387 . S
C1454 H1458 0.950 . S
C1454 C1463 1.390 . S
C1455 C1454 1.387 . S
C1455 C1457 1.387 . S
H1456 C1463 0.950 . S
C1457 C1455 1.387 . S
C1457 C1459 1.390 . S
C1457 H1461 0.950 . S
H1458 C1454 0.950 . S
C1459 C1457 1.390 . S
C1459 C1460 1.387 . S
C1459 H1462 0.950 . S
C1460 C1459 1.387 . S
C1460 C1463 1.387 . S
H1461 C1457 0.950 . S
H1462 C1459 0.950 . S
C1463 C1454 1.390 . S
C1463 H1456 0.950 . S
C1463 C1460 1.387 . S
C1464 C1465 1.387 . S
C1464 H1468 0.950 . S
C1464 C1473 1.390 . S
C1465 C1464 1.387 . S
C1465 C1467 1.387 . S
H1466 C1473 0.950 . S
C1467 C1465 1.387 . S
C1467 C1469 1.390 . S
C1467 H1471 0.950 . S
H1468 C1464 0.950 . S
C1469 C1467 1.390 . S
C1469 C1470 1.387 . S
C1469 H1472 0.950 . S
C1470 C1469 1.387 . S
C1470 C1473 1.387 . S
H1471 C1467 0.950 . S
H1472 C1469 0.950 . S
C1473 C1464 1.390 . S
C1473 H1466 0.950 . S
C1473 C1470 1.387 . S
C1474 C1475 1.387 . S
C1474 H1478 0.950 . S
C1474 C1483 1.390 . S
C1475 C1474 1.387 . S
C1475 C1477 1.387 . S
H1476 C1483 0.950 . S
C1477 C1475 1.387 . S
C1477 C1479 1.390 . S
C1477 H1481 0.950 . S
H1478 C1474 0.950 . S
C1479 C1477 1.390 . S
C1479 C1480 1.387 . S
C1479 H1482 0.950 . S
C1480 C1479 1.387 . S
C1480 C1483 1.387 . S
H1481 C1477 0.950 . S
H1482 C1479 0.950 . S
C1483 C1474 1.390 . S
C1483 H1476 0.950 . S
C1483 C1480 1.387 . S
C1484 C1485 1.387 . S
C1484 H1488 0.950 . S
C1484 C1493 1.390 . S
C1485 C1484 1.387 . S
C1485 C1487 1.387 . S
H1486 C1493 0.950 . S
C1487 C1485 1.387 . S
C1487 C1489 1.390 . S
C1487 H1491 0.950 . S
H1488 C1484 0.950 . S
C1489 C1487 1.390 . S
C1489 C1490 1.387 . S
C1489 H1492 0.950 . S
C1490 C1489 1.387 . S
C1490 C1493 1.387 . S
H1491 C1487 0.950 . S
H1492 C1489 0.950 . S
C1493 C1484 1.390 . S
C1493 H1486 0.950 . S
C1493 C1490 1.387 . S
C1494 C1495 1.387 . S
C1494 H1498 0.950 . S
C1494 C1503 1.390 . S
C1495 C1494 1.387 . S
C1495 C1497 1.387 . S
H1496 C1503 0.950 . S
C1497 C1495 1.387 . S
C1497 C1499 1.390 . S
C1497 H1501 0.950 . S
H1498 C1494 0.950 . S
C1499 C1497 1.390 . S
C1499 C1500 1.387 . S
C1499 H1502 0.950 . S
C1500 C1499 1.387 . S
C1500 C1503 1.387 . S
H1501 C1497 0.950 . S
H1502 C1499 0.950 . S
C1503 C1494 1.390 . S
C1503 H1496 0.950 . S
C1503 C1500 1.387 . S
C1504 C1505 1.387 . S
C1504 H1508 0.950 . S
C1504 C1513 1.390 . S
C1505 C1504 1.387 . S
C1505 C1507 1.387 . S
H1506 C1513 0.950 . S
C1507 C1505 1.387 . S
C1507 C1509 1.390 . S
C1507 H1511 0.950 . S
H1508 C1504 0.950 . S
C1509 C1507 1.390 . S
C1509 C1510 1.387 . S
C1509 H1512 0.950 . S
C1510 C1509 1.387 . S
C1510 C1513 1.387 . S
H1511 C1507 0.950 . S
H1512 C1509 0.950 . S
C1513 C1504 1.390 . S
C1513 H1506 0.950 . S
C1513 C1510 1.387 . S
C1514 C1515 1.387 . S
C1514 H1518 0.950 . S
C1514 C1523 1.390 . S
C1515 C1514 1.387 . S
C1515 C1517 1.387 . S
H1516 C1523 0.950 . S
C1517 C1515 1.387 . S
C1517 C1519 1.390 . S
C1517 H1521 0.950 . S
H1518 C1514 0.950 . S
C1519 C1517 1.390 . S
C1519 C1520 1.387 . S
C1519 H1522 0.950 . S
C1520 C1519 1.387 . S
C1520 C1523 1.387 . S
H1521 C1517 0.950 . S
H1522 C1519 0.950 . S
C1523 C1514 1.390 . S
C1523 H1516 0.950 . S
C1523 C1520 1.387 . S
C1524 C1525 1.387 . S
C1524 H1528 0.950 . S
C1524 C1533 1.390 . S
C1525 C1524 1.387 . S
C1525 C1527 1.387 . S
H1526 C1533 0.950 . S
C1527 C1525 1.387 . S
C1527 C1529 1.390 . S
C1527 H1531 0.950 . S
H1528 C1524 0.950 . S
C1529 C1527 1.390 . S
C1529 C1530 1.387 . S
C1529 H1532 0.950 . S
C1530 C1529 1.387 . S
C1530 C1533 1.387 . S
H1531 C1527 0.950 . S
H1532 C1529 0.950 . S
C1533 C1524 1.390 . S
C1533 H1526 0.950 . S
C1533 C1530 1.387 . S
C1534 C1535 1.387 . S
C1534 H1538 0.950 . S
C1534 C1543 1.390 . S
C1535 C1534 1.387 . S
C1535 C1537 1.387 . S
H1536 C1543 0.950 . S
C1537 C1535 1.387 . S
C1537 C1539 1.390 . S
C1537 H1541 0.950 . S
H1538 C1534 0.950 . S
C1539 C1537 1.390 . S
C1539 C1540 1.387 . S
C1539 H1542 0.950 . S
C1540 C1539 1.387 . S
C1540 C1543 1.387 . S
H1541 C1537 0.950 . S
H1542 C1539 0.950 . S
C1543 C1534 1.390 . S
C1543 H1536 0.950 . S
C1543 C1540 1.387 . S
C1544 C1545 1.387 . S
C1544 H1548 0.950 . S
C1544 C1553 1.390 . S
C1545 C1544 1.387 . S
C1545 C1547 1.387 . S
H1546 C1553 0.950 . S
C1547 C1545 1.387 . S
C1547 C1549 1.390 . S
C1547 H1551 0.950 . S
H1548 C1544 0.950 . S
C1549 C1547 1.390 . S
C1549 C1550 1.387 . S
C1549 H1552 0.950 . S
C1550 C1549 1.387 . S
C1550 C1553 1.387 . S
H1551 C1547 0.950 . S
H1552 C1549 0.950 . S
C1553 C1544 1.390 . S
C1553 H1546 0.950 . S
C1553 C1550 1.387 . S
C1554 C1555 1.387 . S
C1554 H1558 0.950 . S
C1554 C1563 1.390 . S
C1555 C1554 1.387 . S
C1555 C1557 1.387 . S
H1556 C1563 0.950 . S
C1557 C1555 1.387 . S
C1557 C1559 1.390 . S
C1557 H1561 0.950 . S
H1558 C1554 0.950 . S
C1559 C1557 1.390 . S
C1559 C1560 1.387 . S
C1559 H1562 0.950 . S
C1560 C1559 1.387 . S
C1560 C1563 1.387 . S
H1561 C1557 0.950 . S
H1562 C1559 0.950 . S
C1563 C1554 1.390 . S
C1563 H1556 0.950 . S
C1563 C1560 1.387 . S
C1564 C1565 1.387 . S
C1564 H1568 0.950 . S
C1564 C1573 1.390 . S
C1565 C1564 1.387 . S
C1565 C1567 1.387 . S
H1566 C1573 0.950 . S
C1567 C1565 1.387 . S
C1567 C1569 1.390 . S
C1567 H1571 0.950 . S
H1568 C1564 0.950 . S
C1569 C1567 1.390 . S
C1569 C1570 1.387 . S
C1569 H1572 0.950 . S
C1570 C1569 1.387 . S
C1570 C1573 1.387 . S
H1571 C1567 0.950 . S
H1572 C1569 0.950 . S
C1573 C1564 1.390 . S
C1573 H1566 0.950 . S
C1573 C1570 1.387 . S
C1574 C1575 1.387 . S
C1574 H1578 0.950 . S
C1574 C1583 1.390 . S
C1575 C1574 1.387 . S
C1575 C1577 1.387 . S
H1576 C1583 0.950 . S
C1577 C1575 1.387 . S
C1577 C1579 1.390 . S
C1577 H1581 0.950 . S
H1578 C1574 0.950 . S
C1579 C1577 1.390 . S
C1579 C1580 1.387 . S
C1579 H1582 0.950 . S
C1580 C1579 1.387 . S
C1580 C1583 1.387 . S
H1581 C1577 0.950 . S
H1582 C1579 0.950 . S
C1583 C1574 1.390 . S
C1583 H1576 0.950 . S
C1583 C1580 1.387 . S
C1584 C1585 1.387 . S
C1584 H1588 0.950 . S
C1584 C1593 1.390 . S
C1585 C1584 1.387 . S
C1585 C1587 1.387 . S
H1586 C1593 0.950 . S
C1587 C1585 1.387 . S
C1587 C1589 1.390 . S
C1587 H1591 0.950 . S
H1588 C1584 0.950 . S
C1589 C1587 1.390 . S
C1589 C1590 1.387 . S
C1589 H1592 0.950 . S
C1590 C1589 1.387 . S
C1590 C1593 1.387 . S
H1591 C1587 0.950 . S
H1592 C1589 0.950 . S
C1593 C1584 1.390 . S
C1593 H1586 0.950 . S
C1593 C1590 1.387 . S
C1594 C1595 1.387 . S
C1594 H1598 0.950 . S
C1594 C1603 1.390 . S
C1595 C1594 1.387 . S
C1595 C1597 1.387 . S
H1596 C1603 0.950 . S
C1597 C1595 1.387 . S
C1597 C1599 1.390 . S
C1597 H1601 0.950 . S
H1598 C1594 0.950 . S
C1599 C1597 1.390 . S
C1599 C1600 1.387 . S
C1599 H1602 0.950 . S
C1600 C1599 1.387 . S
C1600 C1603 1.387 . S
H1601 C1597 0.950 . S
H1602 C1599 0.950 . S
C1603 C1594 1.390 . S
C1603 H1596 0.950 . S
C1603 C1600 1.387 . S
C1604 C1605 1.387 . S
C1604 H1608 0.950 . S
C1604 C1613 1.390 . S
C1605 C1604 1.387 . S
C1605 C1607 1.387 . S
H1606 C1613 0.950 . S
C1607 C1605 1.387 . S
C1607 C1609 1.390 . S
C1607 H1611 0.950 . S
H1608 C1604 0.950 . S
C1609 C1607 1.390 . S
C1609 C1610 1.387 . S
C1609 H1612 0.950 . S
C1610 C1609 1.387 . S
C1610 C1613 1.387 . S
H1611 C1607 0.950 . S
H1612 C1609 0.950 . S
C1613 C1604 1.390 . S
C1613 H1606 0.950 . S
C1613 C1610 1.387 . S
C1614 C1615 1.387 . S
C1614 H1618 0.950 . S
C1614 C1623 1.390 . S
C1615 C1614 1.387 . S
C1615 C1617 1.387 . S
H1616 C1623 0.950 . S
C1617 C1615 1.387 . S
C1617 C1619 1.390 . S
C1617 H1621 0.950 . S
H1618 C1614 0.950 . S
C1619 C1617 1.390 . S
C1619 C1620 1.387 . S
C1619 H1622 0.950 . S
C1620 C1619 1.387 . S
C1620 C1623 1.387 . S
H1621 C1617 0.950 . S
H1622 C1619 0.950 . S
C1623 C1614 1.390 . S
C1623 H1616 0.950 . S
C1623 C1620 1.387 . S
C1624 C1625 1.387 . S
C1624 H1628 0.950 . S
C1624 C1633 1.390 . S
C1625 C1624 1.387 . S
C1625 C1627 1.387 . S
H1626 C1633 0.950 . S
C1627 C1625 1.387 . S
C1627 C1629 1.390 . S
C1627 H1631 0.950 . S
H1628 C1624 0.950 . S
C1629 C1627 1.390 . S
C1629 C1630 1.387 . S
C1629 H1632 0.950 . S
C1630 C1629 1.387 . S
C1630 C1633 1.387 . S
H1631 C1627 0.950 . S
H1632 C1629 0.950 . S
C1633 C1624 1.390 . S
C1633 H1626 0.950 . S
C1633 C1630 1.387 . S
C1634 C1635 1.387 . S
C1634 H1638 0.950 . S
C1634 C1643 1.390 . S
C1635 C1634 1.387 . S
C1635 C1637 1.387 . S
H1636 C1643 0.950 . S
C1637 C1635 1.387 . S
C1637 C1639 1.390 . S
C1637 H1641 0.950 . S
H1638 C1634 0.950 . S
C1639 C1637 1.390 . S
C1639 C1640 1.387 . S
C1639 H1642 0.950 . S
C1640 C1639 1.387 . S
C1640 C1643 1.387 . S
H1641 C1637 0.950 . S
H1642 C1639 0.950 . S
C1643 C1634 1.390 . S
C1643 H1636 0.950 . S
C1643 C1640 1.387 . S
C1644 C1645 1.387 . S
C1644 H1648 0.950 . S
C1644 C1653 1.390 . S
C1645 C1644 1.387 . S
C1645 C1647 1.387 . S
H1646 C1653 0.950 . S
C1647 C1645 1.387 . S
C1647 C1649 1.390 . S
C1647 H1651 0.950 . S
H1648 C1644 0.950 . S
C1649 C1647 1.390 . S
C1649 C1650 1.387 . S
C1649 H1652 0.950 . S
C1650 C1649 1.387 . S
C1650 C1653 1.387 . S
H1651 C1647 0.950 . S
H1652 C1649 0.950 . S
C1653 C1644 1.390 . S
C1653 H1646 0.950 . S
C1653 C1650 1.387 . S
C1654 C1655 1.387 . S
C1654 H1658 0.950 . S
C1654 C1663 1.390 . S
C1655 C1654 1.387 . S
C1655 C1657 1.387 . S
H1656 C1663 0.950 . S
C1657 C1655 1.387 . S
C1657 C1659 1.390 . S
C1657 H1661 0.950 . S
H1658 C1654 0.950 . S
C1659 C1657 1.390 . S
C1659 C1660 1.387 . S
C1659 H1662 0.950 . S
C1660 C1659 1.387 . S
C1660 C1663 1.387 . S
H1661 C1657 0.950 . S
H1662 C1659 0.950 . S
C1663 C1654 1.390 . S
C1663 H1656 0.950 . S
C1663 C1660 1.387 . S
C705 C358 1.255 . S
C710 C5 1.255 . S
C715 C515 1.255 . S
C720 C30 1.255 . S
C725 C49 1.255 . S
C730 C470 1.255 . S
C735 C73 1.255 . S
C740 C493 1.255 . S
C745 C94 1.255 . S
C750 C379 1.255 . S
C755 C119 1.255 . S
C760 C404 1.255 . S
C765 C423 1.255 . S
C770 C140 1.255 . S
C775 C163 1.255 . S
C780 C447 1.255 . S
C785 C185 1.255 . S
C790 C6 1.255 . S
C795 C31 1.255 . S
C800 C205 1.255 . S
C805 C224 1.255 . S
C810 C50 1.255 . S
C815 C74 1.255 . S
C820 C249 1.255 . S
C825 C92 1.255 . S
C830 C268 1.255 . S
C835 C294 1.255 . S
C840 C117 1.255 . S
C845 C141 1.255 . S
C850 C314 1.255 . S
C855 C339 1.255 . S
C860 C161 1.255 . S
C865 C183 1.255 . S
C870 C357 1.255 . S
C875 C378 1.255 . S
C880 C269 1.255 . S
C885 C403 1.255 . S
C890 C295 1.255 . S
C895 C312 1.255 . S
C900 C422 1.255 . S
C905 C449 1.255 . S
C910 C337 1.255 . S
C915 C469 1.255 . S
C920 C225 1.255 . S
C925 C250 1.255 . S
C930 C492 1.255 . S
C935 C514 1.255 . S
C940 C206 1.255 . S
C945 C691 1.255 . S
C950 C338 1.255 . S
C955 C293 1.255 . S
C960 C669 1.255 . S
C965 C624 1.255 . S
C970 C251 1.255 . S
C975 C645 1.255 . S
C980 C207 1.255 . S
C985 C380 1.255 . S
C990 C537 1.255 . S
C995 C424 1.255 . S
C1000 C554 1.255 . S
C1005 C578 1.255 . S
C1010 C356 1.255 . S
C1015 C600 1.255 . S
C1020 C471 1.255 . S
C1025 C535 1.255 . S
C1030 C93 1.255 . S
C1035 C576 1.255 . S
C1040 C4 1.255 . S
C1045 C75 1.255 . S
C1050 C623 1.255 . S
C1055 C598 1.255 . S
C1060 C48 1.255 . S
C1065 C647 1.255 . S
C1070 C29 1.255 . S
C1075 C139 1.255 . S
C1080 C555 1.255 . S
C1085 C668 1.255 . S
C1090 C118 1.255 . S
C1095 C162 1.255 . S
C1100 C690 1.255 . S
C1105 C313 1.255 . S
C1110 C556 1.255 . S
C1115 C270 1.255 . S
C1120 C536 1.255 . S
C1125 C599 1.255 . S
C1130 C226 1.255 . S
C1135 C577 1.255 . S
C1140 C184 1.255 . S
C1145 C405 1.255 . S
C1150 C667 1.255 . S
C1155 C448 1.255 . S
C1160 C689 1.255 . S
C1165 C646 1.255 . S
C1170 C513 1.255 . S
C1175 C491 1.255 . S
C1180 C625 1.255 . S
C1185 C71 1.572 . S
C1190 C9 1.573 . S
C1195 C28 1.572 . S
C1200 C7 1.573 . S
C1205 C26 1.571 . S
C1210 C53 1.573 . S
C1215 C51 1.571 . S
C1220 C70 1.573 . S
C1225 C116 1.572 . S
C1230 C96 1.572 . S
C1235 C136 1.573 . S
C1240 C115 1.571 . S
C1245 C138 1.571 . S
C1250 C160 1.573 . S
C1255 C159 1.572 . S
C1260 C97 1.573 . S
C1265 C181 1.573 . S
C1270 C401 1.571 . S
C1275 C426 1.572 . S
C1280 C202 1.572 . S
C1285 C446 1.572 . S
C1290 C227 1.572 . S
C1295 C246 1.573 . S
C1300 C382 1.571 . S
C1305 C271 1.573 . S
C1310 C488 1.571 . S
C1315 C359 1.573 . S
C1320 C292 1.571 . S
C1325 C510 1.571 . S
C1330 C316 1.573 . S
C1335 C335 1.573 . S
C1340 C467 1.572 . S
C1345 C361 1.572 . S
C1350 C203 1.572 . S
C1355 C381 1.572 . S
C1360 C336 1.572 . S
C1365 C272 1.573 . S
C1370 C400 1.571 . S
C1375 C290 1.571 . S
C1380 C425 1.573 . S
C1385 C445 1.572 . S
C1390 C317 1.573 . S
C1395 C466 1.571 . S
C1400 C247 1.573 . S
C1405 C490 1.571 . S
C1410 C182 1.573 . S
C1415 C228 1.571 . S
C1420 C512 1.573 . S
C1425 C383 1.573 . S
C1430 C291 1.571 . S
C1435 C334 1.572 . S
C1440 C427 1.572 . S
C1445 C360 1.571 . S
C1450 C248 1.573 . S
C1455 C204 1.571 . S
C1460 C468 1.573 . S
C1465 C533 1.572 . S
C1470 C621 1.572 . S
C1475 C52 1.571 . S
C1480 C158 1.573 . S
C1485 C557 1.571 . S
C1490 C644 1.573 . S
C1495 C114 1.573 . S
C1500 C8 1.571 . S
C1505 C664 1.573 . S
C1510 C580 1.572 . S
C1515 C72 1.573 . S
C1520 C95 1.571 . S
C1525 C602 1.571 . S
C1530 C686 1.573 . S
C1535 C137 1.572 . S
C1540 C27 1.572 . S
C1545 C620 1.573 . S
C1550 C581 1.571 . S
C1555 C603 1.573 . S
C1560 C643 1.572 . S
C1565 C534 1.571 . S
C1570 C666 1.573 . S
C1575 C558 1.573 . S
C1580 C688 1.572 . S
C1585 C402 1.571 . S
C1590 C315 1.573 . S
C1595 C444 1.571 . S
C1600 C273 1.573 . S
C1605 C180 1.571 . S
C1610 C511 1.573 . S
C1615 C229 1.572 . S
C1620 C489 1.573 . S
C1625 C665 1.573 . S
C1630 C559 1.572 . S
C1635 C622 1.572 . S
C1640 C601 1.573 . S
C1645 C642 1.572 . S
C1650 C579 1.573 . S
C1655 C532 1.571 . S
C1660 C687 1.573 . S
