# Generated by pormake.
# Topology qtz, (4)-cn, num edge types: 1
# Building blocks:
#     Node 0, Type 0, BuildingBlock: AZAVOO_clean_sbu_0, # of connection points: 4
#     Node 1, Type 0, BuildingBlock: AZAVOO_clean_sbu_0, # of connection points: 4
#     Node 2, Type 0, BuildingBlock: AZAVOO_clean_sbu_0, # of connection points: 4
#     Edge 3, Type (0, 0), BuildingBlock: MIFKUJ_clean_linker_0, # of connection points: 2
#     Edge 4, Type (0, 0), BuildingBlock: MIFKUJ_clean_linker_0, # of connection points: 2
#     Edge 5, Type (0, 0), BuildingBlock: MIFKUJ_clean_linker_0, # of connection points: 2
#     Edge 6, Type (0, 0), BuildingBlock: MIFKUJ_clean_linker_0, # of connection points: 2
#     Edge 7, Type (0, 0), BuildingBlock: MIFKUJ_clean_linker_0, # of connection points: 2
#     Edge 8, Type (0, 0), BuildingBlock: MIFKUJ_clean_linker_0, # of connection points: 2
# Relax obj value: 0.161
# Max RMSD: 0.223
# Mean RMSD: 0.200
data_MOF--net-qtz--node1-AZAVOO_clean_sbu_0--edge1-MIFKUJ_clean_linker_0
_symmetry_space_group_name_H-M    P1
_symmetry_Int_Tables_number       1
_symmetry_cell_setting            triclinic
loop_
_symmetry_equiv_pos_as_xyz
'x, y, z'
_cell_length_a     30.631245
_cell_length_b     31.463358
_cell_length_c     35.640797
_cell_angle_alpha  91.491922
_cell_angle_beta   94.421198
_cell_angle_gamma 123.52495
loop_
_atom_site_label
_atom_site_type_symbol
_atom_site_fract_x
_atom_site_fract_y
_atom_site_fract_z
_atom_type_partial_charge
Mg0 Mg 0.96456 0.49099 0.14984 0.0
O1 O 0.02614 0.564 0.18711 0.0
O2 O 0.98294 0.57652 0.2291 0.0
Mg3 Mg 0.8953 0.51361 0.21797 0.0
C4 C 0.02551 0.58949 0.21531 0.0
C5 C 0.01774 0.46388 0.09904 0.0
O6 O 0.97814 0.42121 0.10999 0.0
O7 O 0.93571 0.53368 0.11802 0.0
O8 O 0.89005 0.54256 0.1599 0.0
O9 O 0.97572 0.44447 0.18946 0.0
O10 O 0.91648 0.46348 0.19318 0.0
C11 C 0.90626 0.54826 0.12722 0.0
C12 C 0.93941 0.44234 0.20725 0.0
O13 O 0.02358 0.50583 0.10937 0.0
Mg14 Mg 0.56748 0.04575 0.51041 0.0
O15 O 0.50821 0.00113 0.45815 0.0
O16 O 0.50415 0.05641 0.42256 0.0
Mg17 Mg 0.56062 0.1364 0.45211 0.0
C18 C 0.48969 0.01089 0.42878 0.0
C19 C 0.54072 0.93667 0.51877 0.0
O20 O 0.55265 0.94265 0.48383 0.0
O21 O 0.50808 0.05607 0.53672 0.0
O22 O 0.50923 0.11406 0.50095 0.0
O23 O 0.63417 0.05919 0.47966 0.0
O24 O 0.60668 0.11095 0.48193 0.0
C25 C 0.49307 0.08568 0.52844 0.0
C26 C 0.63827 0.10039 0.46959 0.0
O27 O 0.54056 0.9718 0.53707 0.0
Mg28 Mg 0.42697 0.48047 0.81389 0.0
O29 O 0.50452 0.51684 0.85273 0.0
O30 O 0.51664 0.58451 0.88609 0.0
Mg31 Mg 0.44979 0.59361 0.8668 0.0
C32 C 0.53108 0.55471 0.87765 0.0
C33 C 0.40335 0.38529 0.77006 0.0
O34 O 0.35675 0.37503 0.77597 0.0
O35 O 0.46815 0.54314 0.7741 0.0
O36 O 0.47767 0.6092 0.80781 0.0
O37 O 0.38124 0.4342 0.85961 0.0
O38 O 0.39982 0.51138 0.85008 0.0
C39 C 0.48302 0.58989 0.77792 0.0
C40 C 0.37927 0.47274 0.87016 0.0
O41 O 0.44404 0.42866 0.7824 0.0
H42 H 0.32652 0.39466 0.91553 0.0
H43 H 0.2722 0.38988 0.96437 0.0
H44 H 0.31794 0.54406 0.94801 0.0
H45 H 0.37139 0.54901 0.89924 0.0
H46 H 0.30955 0.52172 0.02414 0.0
H47 H 0.21065 0.44988 0.89948 0.0
H48 H 0.17835 0.3903 0.84232 0.0
H49 H 0.10485 0.26241 0.91015 0.0
H50 H 0.13737 0.32136 0.96778 0.0
H51 H 0.10277 0.54382 0.06999 0.0
H52 H 0.17022 0.54181 0.03901 0.0
H53 H 0.09057 0.38032 0.05277 0.0
H54 H 0.02243 0.38168 0.08268 0.0
H55 H 0.11846 0.39853 0.98487 0.0
H56 H 0.20449 0.46934 0.10884 0.0
H57 H 0.23592 0.52815 0.16634 0.0
H58 H 0.33327 0.65563 0.1027 0.0
H59 H 0.30183 0.5977 0.04466 0.0
C60 C 0.32581 0.42787 0.92288 0.0
C61 C 0.35302 0.47211 0.90333 0.0
C62 C 0.29488 0.42509 0.95079 0.0
C63 C 0.29095 0.46654 0.95948 0.0
C64 C 0.32076 0.51181 0.94178 0.0
C65 C 0.35125 0.51447 0.91377 0.0
C66 C 0.25119 0.46118 0.98332 0.0
C67 C 0.26773 0.49485 0.01573 0.0
C68 C 0.19681 0.42533 0.97255 0.0
C69 C 0.17695 0.38997 0.93792 0.0
C70 C 0.18794 0.40906 0.9022 0.0
C71 C 0.16955 0.37542 0.86973 0.0
C72 C 0.13971 0.3226 0.87261 0.0
C73 C 0.12807 0.30333 0.90797 0.0
C74 C 0.14645 0.33682 0.94054 0.0
C75 C 0.09957 0.50788 0.06625 0.0
C76 C 0.05735 0.46293 0.07874 0.0
C77 C 0.13834 0.50687 0.04889 0.0
C78 C 0.13586 0.46107 0.04426 0.0
C79 C 0.09334 0.41608 0.05624 0.0
C80 C 0.0544 0.41696 0.07327 0.0
C81 C 0.17657 0.45964 0.02563 0.0
C82 C 0.16019 0.42476 -0.00599 0.0
C83 C 0.23102 0.49415 0.03738 0.0
C84 C 0.25047 0.52916 0.07231 0.0
C85 C 0.23233 0.50995 0.10703 0.0
C86 C 0.25018 0.54313 0.13974 0.0
C87 C 0.28648 0.59559 0.13815 0.0
C88 C 0.30512 0.61498 0.10387 0.0
C89 C 0.28735 0.58198 0.07107 0.0
H90 H 0.30022 0.62121 0.16349 0.0
H91 H 0.1255 0.29661 0.84744 0.0
H92 H 0.97119 0.38342 0.23642 0.0
H93 H 0.93596 0.3277 0.28776 0.0
H94 H 0.83663 0.3819 0.30649 0.0
H95 H 0.87095 0.43721 0.25481 0.0
H96 H 0.88628 0.36894 0.37435 0.0
H97 H 0.78503 0.27969 0.25287 0.0
H98 H 0.77615 0.24774 0.18694 0.0
H99 H 0.84015 0.16202 0.2235 0.0
H100 H 0.85009 0.19413 0.28965 0.0
H101 H 0.65839 0.19136 0.4485 0.0
H102 H 0.72546 0.25029 0.41019 0.0
H103 H 0.7774 0.14852 0.3983 0.0
H104 H 0.70868 0.08797 0.43621 0.0
H105 H 0.76952 0.18392 0.33215 0.0
H106 H 0.85306 0.25819 0.45486 0.0
H107 H 0.86204 0.28924 0.52103 0.0
H108 H 0.83491 0.40241 0.48424 0.0
H109 H 0.82496 0.37158 0.41783 0.0
C110 C 0.94249 0.38418 0.25186 0.0
C111 C 0.92348 0.41441 0.24142 0.0
C112 C 0.92251 0.35234 0.28114 0.0
C113 C 0.88365 0.35069 0.30056 0.0
C114 C 0.86681 0.38296 0.29173 0.0
C115 C 0.8863 0.41437 0.26215 0.0
C116 C 0.85673 0.31202 0.3276 0.0
C117 C 0.86072 0.32846 0.36532 0.0
C118 C 0.82512 0.25921 0.31578 0.0
C119 C 0.81898 0.23984 0.27608 0.0
C120 C 0.79768 0.25443 0.24679 0.0
C121 C 0.79236 0.23622 0.2094 0.0
C122 C 0.80776 0.20302 0.20101 0.0
C123 C 0.82837 0.18785 0.23002 0.0
C124 C 0.83385 0.20603 0.26746 0.0
C125 C 0.68361 0.18105 0.43755 0.0
C126 C 0.678 0.13481 0.44517 0.0
C127 C 0.72248 0.2152 0.41604 0.0
C128 C 0.75709 0.20425 0.40215 0.0
C129 C 0.75129 0.1578 0.40916 0.0
C130 C 0.71205 0.12331 0.43069 0.0
C131 C 0.79746 0.24086 0.37887 0.0
C132 C 0.79612 0.22415 0.34171 0.0
C133 C 0.83187 0.29339 0.39136 0.0
C134 C 0.83804 0.31237 0.4313 0.0
C135 C 0.84866 0.28949 0.46086 0.0
C136 C 0.85397 0.30708 0.49843 0.0
C137 C 0.849 0.34774 0.50684 0.0
C138 C 0.83878 0.37094 0.47768 0.0
C139 C 0.8334 0.35347 0.44006 0.0
H140 H 0.85312 0.3613 0.53594 0.0
H141 H 0.80358 0.18893 0.17205 0.0
H142 H 0.53323 0.92239 0.59365 0.0
H143 H 0.53366 0.85605 0.62714 0.0
H144 H 0.53554 0.7862 0.5221 0.0
H145 H 0.53556 0.85304 0.48804 0.0
H146 H 0.46306 0.71637 0.57418 0.0
H147 H 0.64457 0.84757 0.57075 0.0
H148 H 0.72257 0.93637 0.5763 0.0
H149 H 0.70667 0.95172 0.69366 0.0
H150 H 0.62807 0.86327 0.6887 0.0
H151 H 0.48857 0.56166 0.70556 0.0
H152 H 0.51101 0.61379 0.6514 0.0
H153 H 0.54385 0.74233 0.72403 0.0
H154 H 0.52318 0.69157 0.77793 0.0
H155 H 0.61165 0.7743 0.67373 0.0
H156 H 0.41998 0.65588 0.67256 0.0
H157 H 0.33795 0.56964 0.66881 0.0
H158 H 0.37051 0.53245 0.56219 0.0
H159 H 0.45304 0.61836 0.56557 0.0
C160 C 0.5332 0.89272 0.5775 0.0
C161 C 0.53478 0.89319 0.53822 0.0
C162 C 0.53369 0.855 0.59672 0.0
C163 C 0.53549 0.81692 0.57706 0.0
C164 C 0.53455 0.81564 0.53767 0.0
C165 C 0.53455 0.85379 0.51835 0.0
C166 C 0.53947 0.77945 0.59844 0.0
C167 C 0.49611 0.72852 0.5953 0.0
C168 C 0.58256 0.79569 0.626 0.0
C169 C 0.63028 0.84877 0.62929 0.0
C170 C 0.65751 0.86996 0.59769 0.0
C171 C 0.70186 0.92024 0.60074 0.0
C172 C 0.71954 0.94968 0.6353 0.0
C173 C 0.69295 0.92886 0.66691 0.0
C174 C 0.64855 0.87861 0.66401 0.0
C175 C 0.50156 0.60133 0.71005 0.0
C176 C 0.50331 0.62222 0.74599 0.0
C177 C 0.51416 0.63096 0.67906 0.0
C178 C 0.52827 0.68168 0.68359 0.0
C179 C 0.53303 0.70328 0.71981 0.0
C180 C 0.52081 0.67398 0.75065 0.0
C181 C 0.53398 0.71178 0.65089 0.0
C182 C 0.57935 0.7615 0.65179 0.0
C183 C 0.49245 0.69457 0.62158 0.0
C184 C 0.44287 0.64316 0.61954 0.0
C185 C 0.40975 0.62915 0.64845 0.0
C186 C 0.36318 0.58039 0.64638 0.0
C187 C 0.34912 0.54553 0.61535 0.0
C188 C 0.38152 0.55944 0.58626 0.0
C189 C 0.42817 0.60814 0.58823 0.0
H190 H 0.31306 0.50779 0.61379 0.0
H191 H 0.75387 0.98861 0.63759 0.0
H192 H 0.5971 0.52954 0.85335 0.0
H193 H 0.6759 0.54263 0.88872 0.0
H194 H 0.65132 0.61114 0.9844 0.0
H195 H 0.57448 0.60071 0.94846 0.0
H196 H 0.75061 0.66002 0.97999 0.0
H197 H 0.61082 0.48034 0.97488 0.0
H198 H 0.54238 0.39551 0.94326 0.0
H199 H 0.65914 0.39243 0.88613 0.0
H200 H 0.72818 0.47755 0.91711 0.0
H201 H 0.85006 0.5909 0.13665 0.0
H202 H 0.80239 0.60701 0.08728 0.0
H203 H 0.86604 0.56312 0.00207 0.0
H204 H 0.91397 0.54685 0.05123 0.0
H205 H 0.758 0.5076 -0.00615 0.0
H206 H 0.90002 0.68381 0.0109 0.0
H207 H 0.96529 0.76626 0.04693 0.0
H208 H 0.84065 0.77329 0.0871 0.0
H209 H 0.77459 0.69051 0.05175 0.0
C210 C 0.6088 0.54765 0.88186 0.0
C211 C 0.57948 0.56372 0.8983 0.0
C212 C 0.65373 0.55501 0.90209 0.0
C213 C 0.66905 0.57697 0.93954 0.0
C214 C 0.64044 0.59417 0.95557 0.0
C215 C 0.59634 0.58796 0.93506 0.0
C216 C 0.71317 0.58 0.96285 0.0
C217 C 0.75206 0.62661 0.98317 0.0
C218 C 0.71591 0.53677 0.96639 0.0
C219 C 0.67451 0.4855 0.94795 0.0
C220 C 0.62181 0.46168 0.95539 0.0
C221 C 0.58293 0.41355 0.93761 0.0
C222 C 0.59638 0.38867 0.91261 0.0
C223 C 0.64877 0.41179 0.90544 0.0
C224 C 0.68778 0.45996 0.9231 0.0
C225 C 0.85489 0.5857 0.10745 0.0
C226 C 0.88535 0.56698 0.09792 0.0
C227 C 0.82782 0.59522 0.07926 0.0
C228 C 0.83072 0.58623 0.04105 0.0
C229 C 0.86336 0.5703 0.03143 0.0
C230 C 0.89078 0.56111 0.05961 0.0
C231 C 0.79462 0.58724 0.01156 0.0
C232 C 0.75712 0.54127 0.99013 0.0
C233 C 0.79267 0.63076 0.00763 0.0
C234 C 0.83232 0.68073 0.02882 0.0
C235 C 0.8865 0.70273 0.02763 0.0
C236 C 0.92366 0.74958 0.0479 0.0
C237 C 0.90713 0.77496 0.06934 0.0
C238 C 0.8534 0.75359 0.07049 0.0
C239 C 0.81608 0.70674 0.05028 0.0
H240 H 0.93596 0.81122 0.08502 0.0
H241 H 0.56622 0.35142 0.89886 0.0
H242 H 0.44318 0.01628 0.36193 0.0
H243 H 0.36978 0.94557 0.32074 0.0
H244 H 0.36839 0.83764 0.39363 0.0
H245 H 0.44242 0.90805 0.4348 0.0
H246 H 0.34957 0.80264 0.31973 0.0
H247 H 0.28498 0.8739 0.40293 0.0
H248 H 0.28061 0.94291 0.43272 0.0
H249 H 0.23815 0.97367 0.32405 0.0
H250 H 0.243 0.90526 0.29355 0.0
H251 H 0.04336 0.63735 0.28501 0.0
H252 H 0.1264 0.70899 0.31677 0.0
H253 H 0.20455 0.71633 0.21905 0.0
H254 H 0.12154 0.64306 0.18745 0.0
H255 H 0.18744 0.80301 0.30315 0.0
H256 H 0.33386 0.76319 0.24696 0.0
H257 H 0.33543 0.69039 0.22156 0.0
H258 H 0.20868 0.58863 0.28501 0.0
H259 H 0.20686 0.66095 0.31118 0.0
C260 C 0.42771 0.97752 0.36909 0.0
C261 C 0.44834 0.96793 0.40199 0.0
C262 C 0.3857 0.93715 0.34547 0.0
C263 C 0.36318 0.88642 0.35443 0.0
C264 C 0.38518 0.87653 0.38623 0.0
C265 C 0.42736 0.91689 0.40983 0.0
C266 C 0.31447 0.84402 0.3322 0.0
C267 C 0.31414 0.80272 0.31592 0.0
C268 C 0.26809 0.84389 0.32766 0.0
C269 C 0.2649 0.88486 0.34594 0.0
C270 C 0.2751 0.89565 0.38537 0.0
C271 C 0.27248 0.9346 0.40238 0.0
C272 C 0.25926 0.96276 0.38028 0.0
C273 C 0.24848 0.9519 0.34112 0.0
C274 C 0.25113 0.91303 0.32396 0.0
C275 C 0.07813 0.65417 0.27016 0.0
C276 C 0.07582 0.63437 0.23371 0.0
C277 C 0.12565 0.69525 0.28838 0.0
C278 C 0.17192 0.71783 0.2705 0.0
C279 C 0.16961 0.69893 0.23373 0.0
C280 C 0.12209 0.65721 0.21563 0.0
C281 C 0.22216 0.76119 0.29069 0.0
C282 C 0.2229 0.80291 0.30657 0.0
C283 C 0.26844 0.76105 0.2955 0.0
C284 C 0.26988 0.7174 0.28067 0.0
C285 C 0.30649 0.7253 0.2556 0.0
C286 C 0.30738 0.68412 0.24104 0.0
C287 C 0.27201 0.63487 0.25152 0.0
C288 C 0.2359 0.62676 0.27679 0.0
C289 C 0.23491 0.66783 0.29147 0.0
H290 H 0.27267 0.60302 0.24013 0.0
H291 H 0.25724 0.9929 0.39351 0.0
H292 H 0.32373 0.29397 0.73389 0.0
H293 H 0.33128 0.23217 0.69719 0.0
H294 H 0.5004 0.32748 0.72264 0.0
H295 H 0.49324 0.39015 0.7587 0.0
H296 H 0.47554 0.29907 0.65081 0.0
H297 H 0.42367 0.21359 0.76371 0.0
H298 H 0.36889 0.17654 0.81598 0.0
H299 H 0.23588 0.07009 0.73684 0.0
H300 H 0.28969 0.10697 0.68402 0.0
H301 H 0.48904 0.07184 0.60386 0.0
H302 H 0.46174 0.11036 0.64908 0.0
H303 H 0.40215 0.15758 0.55716 0.0
H304 H 0.43019 0.12018 0.51191 0.0
H305 H 0.37516 0.11262 0.66596 0.0
H306 H 0.45674 0.28386 0.57418 0.0
H307 H 0.5176 0.32163 0.52523 0.0
H308 H 0.60314 0.25936 0.57002 0.0
H309 H 0.54334 0.22198 0.61956 0.0
C310 C 0.36254 0.30168 0.73187 0.0
C311 C 0.40794 0.34706 0.74906 0.0
C312 C 0.36674 0.2661 0.71109 0.0
C313 C 0.41635 0.27492 0.7075 0.0
C314 C 0.4617 0.3199 0.72507 0.0
C315 C 0.45756 0.35568 0.74565 0.0
C316 C 0.42122 0.23886 0.68349 0.0
C317 C 0.45361 0.25837 0.65428 0.0
C318 C 0.39306 0.18575 0.68819 0.0
C319 C 0.36062 0.16336 0.71988 0.0
C320 C 0.38263 0.18254 0.75743 0.0
C321 C 0.35177 0.16152 0.78716 0.0
C322 C 0.2989 0.12106 0.77973 0.0
C323 C 0.27682 0.10146 0.74255 0.0
C324 C 0.3075 0.12237 0.71271 0.0
C325 C 0.46842 0.0888 0.59324 0.0
C326 C 0.46275 0.09404 0.55443 0.0
C327 C 0.45284 0.11079 0.61913 0.0
C328 C 0.43119 0.13786 0.6064 0.0
C329 C 0.4197 0.13762 0.5675 0.0
C330 C 0.43574 0.11623 0.5417 0.0
C331 C 0.42856 0.17296 0.63312 0.0
C332 C 0.39683 0.15336 0.66269 0.0
C333 C 0.45823 0.22629 0.62941 0.0
C334 C 0.49523 0.24971 0.6003 0.0
C335 C 0.48871 0.27848 0.57367 0.0
C336 C 0.52299 0.29978 0.54582 0.0
C337 C 0.5641 0.29276 0.54444 0.0
C338 C 0.57119 0.26464 0.57104 0.0
C339 C 0.5371 0.24337 0.59899 0.0
H340 H 0.59053 0.30919 0.52281 0.0
H341 H 0.27507 0.10484 0.80279 0.0
loop_
_geom_bond_atom_site_label_1
_geom_bond_atom_site_label_2
_geom_bond_distance
_geom_bond_site_symmetry_2
_ccdc_geom_bond_type
Mg0 O1 2.028 1_655 S
Mg0 O7 1.986 . S
Mg0 O9 2.114 . S
Mg0 O10 2.251 . S
Mg0 O13 2.010 1_655 S
O1 Mg0 2.028 1_455 S
O1 C4 1.250 . S
O2 Mg3 2.028 1_455 S
O2 C4 1.248 . S
Mg3 O2 2.028 1_655 S
Mg3 O8 2.032 . S
Mg3 O10 2.079 . S
C4 O1 1.250 . S
C4 O2 1.248 . S
C5 O6 1.264 . S
C5 O13 1.249 . S
O6 C5 1.264 . S
O7 Mg0 1.986 . S
O7 C11 1.246 . S
O8 Mg3 2.032 . S
O8 C11 1.259 . S
O9 Mg0 2.114 . S
O9 C12 1.252 . S
O10 Mg0 2.251 . S
O10 Mg3 2.079 . S
O10 C12 1.273 . S
C11 O7 1.246 . S
C11 O8 1.259 . S
C12 O9 1.252 . S
C12 O10 1.273 . S
O13 Mg0 2.010 1_455 S
O13 C5 1.249 . S
Mg14 O15 2.028 1_545 S
Mg14 O21 1.986 . S
Mg14 O23 2.114 . S
Mg14 O24 2.251 . S
Mg14 O27 2.010 1_545 S
O15 Mg14 2.028 1_565 S
O15 C18 1.250 . S
O16 Mg17 2.028 . S
O16 C18 1.248 1_545 S
Mg17 O16 2.028 . S
Mg17 O22 2.032 . S
Mg17 O24 2.079 . S
C18 O15 1.250 . S
C18 O16 1.248 1_565 S
C19 O20 1.264 . S
C19 O27 1.249 . S
O20 C19 1.264 . S
O21 Mg14 1.986 . S
O21 C25 1.246 . S
O22 Mg17 2.032 . S
O22 C25 1.259 . S
O23 Mg14 2.114 . S
O23 C26 1.252 . S
O24 Mg14 2.251 . S
O24 Mg17 2.079 . S
O24 C26 1.273 . S
C25 O21 1.246 . S
C25 O22 1.259 . S
C26 O23 1.252 . S
C26 O24 1.273 . S
O27 Mg14 2.010 1_565 S
O27 C19 1.249 . S
Mg28 O29 2.028 . S
Mg28 O35 1.986 . S
Mg28 O37 2.114 . S
Mg28 O38 2.251 . S
Mg28 O41 2.010 . S
O29 Mg28 2.028 . S
O29 C32 1.250 . S
O30 Mg31 2.028 . S
O30 C32 1.248 . S
Mg31 O30 2.028 . S
Mg31 O36 2.032 . S
Mg31 O38 2.079 . S
C32 O29 1.250 . S
C32 O30 1.248 . S
C33 O34 1.264 . S
C33 O41 1.249 . S
O34 C33 1.264 . S
O35 Mg28 1.986 . S
O35 C39 1.246 . S
O36 Mg31 2.032 . S
O36 C39 1.259 . S
O37 Mg28 2.114 . S
O37 C40 1.252 . S
O38 Mg28 2.251 . S
O38 Mg31 2.079 . S
O38 C40 1.273 . S
C39 O35 1.246 . S
C39 O36 1.259 . S
C40 O37 1.252 . S
C40 O38 1.273 . S
O41 Mg28 2.010 . S
O41 C33 1.249 . S
H42 C60 0.951 . S
H43 C62 0.951 . S
H44 C64 0.950 . S
H45 C65 0.950 . S
H46 C67 0.952 1_554 S
H47 C70 0.950 . S
H48 C71 0.950 . S
H49 C73 0.950 . S
H50 C74 0.950 . S
H51 C75 0.951 . S
H52 C77 0.951 . S
H53 C79 0.950 . S
H54 C80 0.950 . S
H55 C82 0.950 . S
H56 C85 0.950 . S
H57 C86 0.950 . S
H58 C88 0.950 . S
H59 C89 0.950 . S
C60 H42 0.951 . S
C60 C61 1.366 . S
C60 C62 1.388 . S
C61 C60 1.366 . S
C61 C65 1.385 . S
C62 H43 0.951 . S
C62 C60 1.388 . S
C62 C63 1.366 . S
C63 C62 1.366 . S
C63 C64 1.414 . S
C63 C66 1.499 . S
C64 H44 0.950 . S
C64 C63 1.414 . S
C64 C65 1.374 . S
C65 H45 0.950 . S
C65 C61 1.385 . S
C65 C64 1.374 . S
C66 C63 1.499 . S
C66 C67 1.386 . S
C66 C68 1.389 . S
C67 H46 0.952 1_556 S
C67 C66 1.386 . S
C67 C83 1.363 1_556 S
C68 C66 1.389 . S
C68 C69 1.524 . S
C68 C82 1.377 . S
C69 C68 1.524 . S
C69 C70 1.397 . S
C69 C74 1.363 . S
C70 H47 0.950 . S
C70 C69 1.397 . S
C70 C71 1.334 . S
C71 H48 0.950 . S
C71 C70 1.334 . S
C71 C72 1.287 . S
C72 C71 1.287 . S
C72 C73 1.524 . S
C72 H91 0.913 . S
C73 H49 0.950 . S
C73 C72 1.524 . S
C73 C74 1.415 . S
C74 H50 0.950 . S
C74 C69 1.363 . S
C74 C73 1.415 . S
C75 H51 0.951 . S
C75 C76 1.366 . S
C75 C77 1.388 . S
C76 C75 1.366 . S
C76 C80 1.385 . S
C77 H52 0.951 . S
C77 C75 1.388 . S
C77 C78 1.366 . S
C78 C77 1.366 . S
C78 C79 1.414 . S
C78 C81 1.499 . S
C79 H53 0.950 . S
C79 C78 1.414 . S
C79 C80 1.374 . S
C80 H54 0.950 . S
C80 C76 1.385 . S
C80 C79 1.374 . S
C81 C78 1.499 . S
C81 C82 1.373 1_554 S
C81 C83 1.389 . S
C82 H55 0.950 . S
C82 C68 1.377 . S
C82 C81 1.373 1_556 S
C83 C67 1.363 1_554 S
C83 C81 1.389 . S
C83 C84 1.524 . S
C84 C83 1.524 . S
C84 C85 1.397 . S
C84 C89 1.363 . S
C85 H56 0.950 . S
C85 C84 1.397 . S
C85 C86 1.334 . S
C86 H57 0.950 . S
C86 C85 1.334 . S
C86 C87 1.287 . S
C87 C86 1.287 . S
C87 C88 1.524 . S
C87 H90 0.999 . S
C88 H58 0.950 . S
C88 C87 1.524 . S
C88 C89 1.415 . S
C89 H59 0.950 . S
C89 C84 1.363 . S
C89 C88 1.415 . S
H90 C87 0.999 . S
H91 C72 0.913 . S
H92 C110 0.951 . S
H93 C112 0.951 . S
H94 C114 0.950 . S
H95 C115 0.950 . S
H96 C117 0.950 . S
H97 C120 0.950 . S
H98 C121 0.950 . S
H99 C123 0.950 . S
H100 C124 0.950 . S
H101 C125 0.951 . S
H102 C127 0.951 . S
H103 C129 0.950 . S
H104 C130 0.950 . S
H105 C132 0.950 . S
H106 C135 0.950 . S
H107 C136 0.950 . S
H108 C138 0.950 . S
H109 C139 0.950 . S
C110 H92 0.951 . S
C110 C111 1.366 . S
C110 C112 1.388 . S
C111 C110 1.366 . S
C111 C115 1.385 . S
C112 H93 0.951 . S
C112 C110 1.388 . S
C112 C113 1.366 . S
C113 C112 1.366 . S
C113 C114 1.414 . S
C113 C116 1.499 . S
C114 H94 0.950 . S
C114 C113 1.414 . S
C114 C115 1.374 . S
C115 H95 0.950 . S
C115 C111 1.385 . S
C115 C114 1.374 . S
C116 C113 1.499 . S
C116 C117 1.373 . S
C116 C118 1.389 . S
C117 H96 0.950 . S
C117 C116 1.373 . S
C117 C133 1.377 . S
C118 C116 1.389 . S
C118 C119 1.524 . S
C118 C132 1.377 . S
C119 C118 1.524 . S
C119 C120 1.397 . S
C119 C124 1.363 . S
C120 H97 0.950 . S
C120 C119 1.397 . S
C120 C121 1.334 . S
C121 H98 0.950 . S
C121 C120 1.334 . S
C121 C122 1.287 . S
C122 C121 1.287 . S
C122 C123 1.524 . S
C122 H141 0.913 . S
C123 H99 0.950 . S
C123 C122 1.524 . S
C123 C124 1.415 . S
C124 H100 0.950 . S
C124 C119 1.363 . S
C124 C123 1.415 . S
C125 H101 0.951 . S
C125 C126 1.366 . S
C125 C127 1.388 . S
C126 C125 1.366 . S
C126 C130 1.385 . S
C127 H102 0.951 . S
C127 C125 1.388 . S
C127 C128 1.366 . S
C128 C127 1.366 . S
C128 C129 1.414 . S
C128 C131 1.499 . S
C129 H103 0.950 . S
C129 C128 1.414 . S
C129 C130 1.374 . S
C130 H104 0.950 . S
C130 C126 1.385 . S
C130 C129 1.374 . S
C131 C128 1.499 . S
C131 C132 1.373 . S
C131 C133 1.389 . S
C132 H105 0.950 . S
C132 C118 1.377 . S
C132 C131 1.373 . S
C133 C117 1.377 . S
C133 C131 1.389 . S
C133 C134 1.524 . S
C134 C133 1.524 . S
C134 C135 1.397 . S
C134 C139 1.363 . S
C135 H106 0.950 . S
C135 C134 1.397 . S
C135 C136 1.334 . S
C136 H107 0.950 . S
C136 C135 1.334 . S
C136 C137 1.287 . S
C137 C136 1.287 . S
C137 C138 1.524 . S
C137 H140 0.999 . S
C138 H108 0.950 . S
C138 C137 1.524 . S
C138 C139 1.415 . S
C139 H109 0.950 . S
C139 C134 1.363 . S
C139 C138 1.415 . S
H140 C137 0.999 . S
H141 C122 0.913 . S
H142 C160 0.951 . S
H143 C162 0.951 . S
H144 C164 0.950 . S
H145 C165 0.950 . S
H146 C167 0.950 . S
H147 C170 0.950 . S
H148 C171 0.945 1_545 S
H149 C173 0.950 . S
H150 C174 0.950 . S
H151 C175 0.951 . S
H152 C177 0.951 . S
H153 C179 0.950 . S
H154 C180 0.950 . S
H155 C182 0.950 . S
H156 C185 0.950 . S
H157 C186 0.950 . S
H158 C188 0.950 . S
H159 C189 0.950 . S
C160 H142 0.951 . S
C160 C161 1.366 . S
C160 C162 1.388 . S
C161 C160 1.366 . S
C161 C165 1.385 . S
C162 H143 0.951 . S
C162 C160 1.388 . S
C162 C163 1.366 . S
C163 C162 1.366 . S
C163 C164 1.414 . S
C163 C166 1.499 . S
C164 H144 0.950 . S
C164 C163 1.414 . S
C164 C165 1.374 . S
C165 H145 0.950 . S
C165 C161 1.385 . S
C165 C164 1.374 . S
C166 C163 1.499 . S
C166 C167 1.373 . S
C166 C168 1.389 . S
C167 H146 0.950 . S
C167 C166 1.373 . S
C167 C183 1.377 . S
C168 C166 1.389 . S
C168 C169 1.524 . S
C168 C182 1.377 . S
C169 C168 1.524 . S
C169 C170 1.397 . S
C169 C174 1.363 . S
C170 H147 0.950 . S
C170 C169 1.397 . S
C170 C171 1.334 . S
C171 H148 0.945 1_565 S
C171 C170 1.334 . S
C171 C172 1.287 . S
C172 C171 1.287 . S
C172 C173 1.524 . S
C172 H191 0.913 1_565 S
C173 H149 0.950 . S
C173 C172 1.524 . S
C173 C174 1.415 . S
C174 H150 0.950 . S
C174 C169 1.363 . S
C174 C173 1.415 . S
C175 H151 0.951 . S
C175 C176 1.366 . S
C175 C177 1.388 . S
C176 C175 1.366 . S
C176 C180 1.385 . S
C177 H152 0.951 . S
C177 C175 1.388 . S
C177 C178 1.366 . S
C178 C177 1.366 . S
C178 C179 1.414 . S
C178 C181 1.499 . S
C179 H153 0.950 . S
C179 C178 1.414 . S
C179 C180 1.374 . S
C180 H154 0.950 . S
C180 C176 1.385 . S
C180 C179 1.374 . S
C181 C178 1.499 . S
C181 C182 1.373 . S
C181 C183 1.389 . S
C182 H155 0.950 . S
C182 C168 1.377 . S
C182 C181 1.373 . S
C183 C167 1.377 . S
C183 C181 1.389 . S
C183 C184 1.524 . S
C184 C183 1.524 . S
C184 C185 1.397 . S
C184 C189 1.363 . S
C185 H156 0.950 . S
C185 C184 1.397 . S
C185 C186 1.334 . S
C186 H157 0.950 . S
C186 C185 1.334 . S
C186 C187 1.287 . S
C187 C186 1.287 . S
C187 C188 1.524 . S
C187 H190 0.999 . S
C188 H158 0.950 . S
C188 C187 1.524 . S
C188 C189 1.415 . S
C189 H159 0.950 . S
C189 C184 1.363 . S
C189 C188 1.415 . S
H190 C187 0.999 . S
H191 C172 0.913 1_545 S
H192 C210 0.951 . S
H193 C212 0.951 . S
H194 C214 0.950 . S
H195 C215 0.950 . S
H196 C217 0.950 . S
H197 C220 0.950 . S
H198 C221 0.950 . S
H199 C223 0.950 . S
H200 C224 0.950 . S
H201 C225 0.951 . S
H202 C227 0.951 . S
H203 C229 0.950 . S
H204 C230 0.950 . S
H205 C232 0.950 . S
H206 C235 0.950 . S
H207 C236 0.950 . S
H208 C238 0.950 . S
H209 C239 0.950 . S
C210 H192 0.951 . S
C210 C211 1.366 . S
C210 C212 1.388 . S
C211 C210 1.366 . S
C211 C215 1.385 . S
C212 H193 0.951 . S
C212 C210 1.388 . S
C212 C213 1.366 . S
C213 C212 1.366 . S
C213 C214 1.414 . S
C213 C216 1.499 . S
C214 H194 0.950 . S
C214 C213 1.414 . S
C214 C215 1.374 . S
C215 H195 0.950 . S
C215 C211 1.385 . S
C215 C214 1.374 . S
C216 C213 1.499 . S
C216 C217 1.373 1_556 S
C216 C218 1.389 . S
C217 H196 0.950 . S
C217 C216 1.373 1_554 S
C217 C233 1.377 . S
C218 C216 1.389 . S
C218 C219 1.524 . S
C218 C232 1.377 . S
C219 C218 1.524 . S
C219 C220 1.397 . S
C219 C224 1.363 . S
C220 H197 0.950 . S
C220 C219 1.397 . S
C220 C221 1.334 . S
C221 H198 0.950 . S
C221 C220 1.334 . S
C221 C222 1.287 . S
C222 C221 1.287 . S
C222 C223 1.524 . S
C222 H241 0.913 . S
C223 H199 0.950 . S
C223 C222 1.524 . S
C223 C224 1.415 . S
C224 H200 0.950 . S
C224 C219 1.363 . S
C224 C223 1.415 . S
C225 H201 0.951 . S
C225 C226 1.366 . S
C225 C227 1.388 . S
C226 C225 1.366 . S
C226 C230 1.385 . S
C227 H202 0.951 . S
C227 C225 1.388 . S
C227 C228 1.366 . S
C228 C227 1.366 . S
C228 C229 1.414 . S
C228 C231 1.499 . S
C229 H203 0.950 . S
C229 C228 1.414 . S
C229 C230 1.374 . S
C230 H204 0.950 . S
C230 C226 1.385 . S
C230 C229 1.374 . S
C231 C228 1.499 . S
C231 C232 1.373 1_554 S
C231 C233 1.389 . S
C232 H205 0.950 . S
C232 C218 1.377 . S
C232 C231 1.373 1_556 S
C233 C217 1.377 . S
C233 C231 1.389 . S
C233 C234 1.524 . S
C234 C233 1.524 . S
C234 C235 1.397 . S
C234 C239 1.363 . S
C235 H206 0.950 . S
C235 C234 1.397 . S
C235 C236 1.334 . S
C236 H207 0.950 . S
C236 C235 1.334 . S
C236 C237 1.287 . S
C237 C236 1.287 . S
C237 C238 1.524 . S
C237 H240 0.999 . S
C238 H208 0.950 . S
C238 C237 1.524 . S
C238 C239 1.415 . S
C239 H209 0.950 . S
C239 C234 1.363 . S
C239 C238 1.415 . S
H240 C237 0.999 . S
H241 C222 0.913 . S
H242 C260 0.951 . S
H243 C262 0.951 . S
H244 C264 0.950 . S
H245 C265 0.950 . S
H246 C267 0.950 . S
H247 C270 0.950 . S
H248 C271 0.950 . S
H249 C273 0.950 . S
H250 C274 0.950 . S
H251 C275 0.951 . S
H252 C277 0.951 . S
H253 C279 0.950 . S
H254 C280 0.950 . S
H255 C282 0.950 . S
H256 C285 0.950 . S
H257 C286 0.950 . S
H258 C288 0.950 . S
H259 C289 0.950 . S
C260 H242 0.951 . S
C260 C261 1.366 . S
C260 C262 1.388 . S
C261 C260 1.366 . S
C261 C265 1.385 . S
C262 H243 0.951 . S
C262 C260 1.388 . S
C262 C263 1.366 . S
C263 C262 1.366 . S
C263 C264 1.414 . S
C263 C266 1.499 . S
C264 H244 0.950 . S
C264 C263 1.414 . S
C264 C265 1.374 . S
C265 H245 0.950 . S
C265 C261 1.385 . S
C265 C264 1.374 . S
C266 C263 1.499 . S
C266 C267 1.373 . S
C266 C268 1.389 . S
C267 H246 0.950 . S
C267 C266 1.373 . S
C267 C283 1.377 . S
C268 C266 1.389 . S
C268 C269 1.524 . S
C268 C282 1.377 . S
C269 C268 1.524 . S
C269 C270 1.397 . S
C269 C274 1.363 . S
C270 H247 0.950 . S
C270 C269 1.397 . S
C270 C271 1.334 . S
C271 H248 0.950 . S
C271 C270 1.334 . S
C271 C272 1.287 . S
C272 C271 1.287 . S
C272 C273 1.524 . S
C272 H291 0.913 . S
C273 H249 0.950 . S
C273 C272 1.524 . S
C273 C274 1.415 . S
C274 H250 0.950 . S
C274 C269 1.363 . S
C274 C273 1.415 . S
C275 H251 0.951 . S
C275 C276 1.366 . S
C275 C277 1.388 . S
C276 C275 1.366 . S
C276 C280 1.385 . S
C277 H252 0.951 . S
C277 C275 1.388 . S
C277 C278 1.366 . S
C278 C277 1.366 . S
C278 C279 1.414 . S
C278 C281 1.499 . S
C279 H253 0.950 . S
C279 C278 1.414 . S
C279 C280 1.374 . S
C280 H254 0.950 . S
C280 C276 1.385 . S
C280 C279 1.374 . S
C281 C278 1.499 . S
C281 C282 1.373 . S
C281 C283 1.389 . S
C282 H255 0.950 . S
C282 C268 1.377 . S
C282 C281 1.373 . S
C283 C267 1.377 . S
C283 C281 1.389 . S
C283 C284 1.524 . S
C284 C283 1.524 . S
C284 C285 1.397 . S
C284 C289 1.363 . S
C285 H256 0.950 . S
C285 C284 1.397 . S
C285 C286 1.334 . S
C286 H257 0.950 . S
C286 C285 1.334 . S
C286 C287 1.287 . S
C287 C286 1.287 . S
C287 C288 1.524 . S
C287 H290 0.999 . S
C288 H258 0.950 . S
C288 C287 1.524 . S
C288 C289 1.415 . S
C289 H259 0.950 . S
C289 C284 1.363 . S
C289 C288 1.415 . S
H290 C287 0.999 . S
H291 C272 0.913 . S
H292 C310 0.951 . S
H293 C312 0.951 . S
H294 C314 0.950 . S
H295 C315 0.950 . S
H296 C317 0.950 . S
H297 C320 0.950 . S
H298 C321 0.950 . S
H299 C323 0.950 . S
H300 C324 0.950 . S
H301 C325 0.951 . S
H302 C327 0.951 . S
H303 C329 0.950 . S
H304 C330 0.950 . S
H305 C332 0.950 . S
H306 C335 0.950 . S
H307 C336 0.950 . S
H308 C338 0.950 . S
H309 C339 0.950 . S
C310 H292 0.951 . S
C310 C311 1.366 . S
C310 C312 1.388 . S
C311 C310 1.366 . S
C311 C315 1.385 . S
C312 H293 0.951 . S
C312 C310 1.388 . S
C312 C313 1.366 . S
C313 C312 1.366 . S
C313 C314 1.414 . S
C313 C316 1.499 . S
C314 H294 0.950 . S
C314 C313 1.414 . S
C314 C315 1.374 . S
C315 H295 0.950 . S
C315 C311 1.385 . S
C315 C314 1.374 . S
C316 C313 1.499 . S
C316 C317 1.373 . S
C316 C318 1.389 . S
C317 H296 0.950 . S
C317 C316 1.373 . S
C317 C333 1.377 . S
C318 C316 1.389 . S
C318 C319 1.524 . S
C318 C332 1.377 . S
C319 C318 1.524 . S
C319 C320 1.397 . S
C319 C324 1.363 . S
C320 H297 0.950 . S
C320 C319 1.397 . S
C320 C321 1.334 . S
C321 H298 0.950 . S
C321 C320 1.334 . S
C321 C322 1.287 . S
C322 C321 1.287 . S
C322 C323 1.524 . S
C322 H341 0.913 . S
C323 H299 0.950 . S
C323 C322 1.524 . S
C323 C324 1.415 . S
C324 H300 0.950 . S
C324 C319 1.363 . S
C324 C323 1.415 . S
C325 H301 0.951 . S
C325 C326 1.366 . S
C325 C327 1.388 . S
C326 C325 1.366 . S
C326 C330 1.385 . S
C327 H302 0.951 . S
C327 C325 1.388 . S
C327 C328 1.366 . S
C328 C327 1.366 . S
C328 C329 1.414 . S
C328 C331 1.499 . S
C329 H303 0.950 . S
C329 C328 1.414 . S
C329 C330 1.374 . S
C330 H304 0.950 . S
C330 C326 1.385 . S
C330 C329 1.374 . S
C331 C328 1.499 . S
C331 C332 1.373 . S
C331 C333 1.389 . S
C332 H305 0.950 . S
C332 C318 1.377 . S
C332 C331 1.373 . S
C333 C317 1.377 . S
C333 C331 1.389 . S
C333 C334 1.524 . S
C334 C333 1.524 . S
C334 C335 1.397 . S
C334 C339 1.363 . S
C335 H306 0.950 . S
C335 C334 1.397 . S
C335 C336 1.334 . S
C336 H307 0.950 . S
C336 C335 1.334 . S
C336 C337 1.287 . S
C337 C336 1.287 . S
C337 C338 1.524 . S
C337 H340 0.999 . S
C338 H308 0.950 . S
C338 C337 1.524 . S
C338 C339 1.415 . S
C339 H309 0.950 . S
C339 C334 1.363 . S
C339 C338 1.415 . S
H340 C337 0.999 . S
H341 C322 0.913 . S
C61 C40 1.249 . S
C76 C5 1.074 . S
C111 C12 1.284 . S
C126 C26 1.281 . S
C161 C19 1.006 . S
C176 C39 1.127 . S
C211 C32 1.139 . S
C226 C11 1.141 . S
C261 C18 1.233 . S
C276 C4 1.230 . S
C311 C33 1.008 . S
C326 C25 1.121 . S
