# Generated by pormake.
# Topology uoy, (4)-cn, num edge types: 1
# Building blocks:
#     Node 0, Type 0, BuildingBlock: CEKHIL_clean_sbu_0, # of connection points: 4
#     Node 1, Type 0, BuildingBlock: CEKHIL_clean_sbu_0, # of connection points: 4
#     Node 2, Type 0, BuildingBlock: CEKHIL_clean_sbu_0, # of connection points: 4
#     Node 3, Type 0, BuildingBlock: CEKHIL_clean_sbu_0, # of connection points: 4
#     Node 4, Type 0, BuildingBlock: CEKHIL_clean_sbu_0, # of connection points: 4
#     Node 5, Type 0, BuildingBlock: CEKHIL_clean_sbu_0, # of connection points: 4
#     Node 6, Type 0, BuildingBlock: CEKHIL_clean_sbu_0, # of connection points: 4
#     Node 7, Type 0, BuildingBlock: CEKHIL_clean_sbu_0, # of connection points: 4
#     Node 8, Type 0, BuildingBlock: CEKHIL_clean_sbu_0, # of connection points: 4
#     Node 9, Type 0, BuildingBlock: CEKHIL_clean_sbu_0, # of connection points: 4
#     Node 10, Type 0, BuildingBlock: CEKHIL_clean_sbu_0, # of connection points: 4
#     Node 11, Type 0, BuildingBlock: CEKHIL_clean_sbu_0, # of connection points: 4
#     Node 12, Type 0, BuildingBlock: CEKHIL_clean_sbu_0, # of connection points: 4
#     Node 13, Type 0, BuildingBlock: CEKHIL_clean_sbu_0, # of connection points: 4
#     Node 14, Type 0, BuildingBlock: CEKHIL_clean_sbu_0, # of connection points: 4
#     Node 15, Type 0, BuildingBlock: CEKHIL_clean_sbu_0, # of connection points: 4
#     Edge 16, Type (0, 0), BuildingBlock: XIVTED_clean_linker_0, # of connection points: 2
#     Edge 17, Type (0, 0), BuildingBlock: XIVTED_clean_linker_0, # of connection points: 2
#     Edge 18, Type (0, 0), BuildingBlock: XIVTED_clean_linker_0, # of connection points: 2
#     Edge 19, Type (0, 0), BuildingBlock: XIVTED_clean_linker_0, # of connection points: 2
#     Edge 20, Type (0, 0), BuildingBlock: XIVTED_clean_linker_0, # of connection points: 2
#     Edge 21, Type (0, 0), BuildingBlock: XIVTED_clean_linker_0, # of connection points: 2
#     Edge 22, Type (0, 0), BuildingBlock: XIVTED_clean_linker_0, # of connection points: 2
#     Edge 23, Type (0, 0), BuildingBlock: XIVTED_clean_linker_0, # of connection points: 2
#     Edge 24, Type (0, 0), BuildingBlock: XIVTED_clean_linker_0, # of connection points: 2
#     Edge 25, Type (0, 0), BuildingBlock: XIVTED_clean_linker_0, # of connection points: 2
#     Edge 26, Type (0, 0), BuildingBlock: XIVTED_clean_linker_0, # of connection points: 2
#     Edge 27, Type (0, 0), BuildingBlock: XIVTED_clean_linker_0, # of connection points: 2
#     Edge 28, Type (0, 0), BuildingBlock: XIVTED_clean_linker_0, # of connection points: 2
#     Edge 29, Type (0, 0), BuildingBlock: XIVTED_clean_linker_0, # of connection points: 2
#     Edge 30, Type (0, 0), BuildingBlock: XIVTED_clean_linker_0, # of connection points: 2
#     Edge 31, Type (0, 0), BuildingBlock: XIVTED_clean_linker_0, # of connection points: 2
#     Edge 32, Type (0, 0), BuildingBlock: XIVTED_clean_linker_0, # of connection points: 2
#     Edge 33, Type (0, 0), BuildingBlock: XIVTED_clean_linker_0, # of connection points: 2
#     Edge 34, Type (0, 0), BuildingBlock: XIVTED_clean_linker_0, # of connection points: 2
#     Edge 35, Type (0, 0), BuildingBlock: XIVTED_clean_linker_0, # of connection points: 2
#     Edge 36, Type (0, 0), BuildingBlock: XIVTED_clean_linker_0, # of connection points: 2
#     Edge 37, Type (0, 0), BuildingBlock: XIVTED_clean_linker_0, # of connection points: 2
#     Edge 38, Type (0, 0), BuildingBlock: XIVTED_clean_linker_0, # of connection points: 2
#     Edge 39, Type (0, 0), BuildingBlock: XIVTED_clean_linker_0, # of connection points: 2
#     Edge 40, Type (0, 0), BuildingBlock: XIVTED_clean_linker_0, # of connection points: 2
#     Edge 41, Type (0, 0), BuildingBlock: XIVTED_clean_linker_0, # of connection points: 2
#     Edge 42, Type (0, 0), BuildingBlock: XIVTED_clean_linker_0, # of connection points: 2
#     Edge 43, Type (0, 0), BuildingBlock: XIVTED_clean_linker_0, # of connection points: 2
#     Edge 44, Type (0, 0), BuildingBlock: XIVTED_clean_linker_0, # of connection points: 2
#     Edge 45, Type (0, 0), BuildingBlock: XIVTED_clean_linker_0, # of connection points: 2
#     Edge 46, Type (0, 0), BuildingBlock: XIVTED_clean_linker_0, # of connection points: 2
#     Edge 47, Type (0, 0), BuildingBlock: XIVTED_clean_linker_0, # of connection points: 2
# Relax obj value: 0.040
# Max RMSD: 0.061
# Mean RMSD: 0.061
data_MOF--net-uoy--node1-CEKHIL_clean_sbu_0--edge1-XIVTED_clean_linker_0
_symmetry_space_group_name_H-M    P1
_symmetry_Int_Tables_number       1
_symmetry_cell_setting            triclinic
loop_
_symmetry_equiv_pos_as_xyz
'x, y, z'
_cell_length_a     27.502536
_cell_length_b     27.504115
_cell_length_c     107.03918
_cell_angle_alpha  90.011663
_cell_angle_beta   90.005313
_cell_angle_gamma 90.0101
loop_
_atom_site_label
_atom_site_type_symbol
_atom_site_fract_x
_atom_site_fract_y
_atom_site_fract_z
_atom_type_partial_charge
Co0 Co 0.24134 0.11386 0.18574 0.0
O1 O 0.17235 0.12099 0.18813 0.0
O2 O 0.20697 0.05924 0.1783 0.0
C3 C 0.26274 0.13294 0.20546 0.0
O4 O 0.3117 0.09328 0.18225 0.0
Co5 Co 0.30903 0.20384 0.18885 0.0
O6 O 0.36147 0.1545 0.18793 0.0
C7 C 0.2481 0.19496 0.16642 0.0
C8 C 0.16739 0.07988 0.18235 0.0
C9 C 0.35456 0.11097 0.18422 0.0
O10 O 0.23757 0.1509 0.16946 0.0
O11 O 0.2722 0.22365 0.17351 0.0
O12 O 0.24798 0.08924 0.20281 0.0
O13 O 0.25926 0.16421 0.19652 0.0
Co14 Co 0.89108 0.74038 0.43578 0.0
O15 O 0.88268 0.67098 0.43687 0.0
O16 O 0.94637 0.70725 0.42837 0.0
C17 C 0.87024 0.75758 0.45564 0.0
O18 O 0.91277 0.81121 0.43352 0.0
Co19 Co 0.80146 0.80828 0.43933 0.0
O20 O 0.85113 0.86053 0.43916 0.0
C21 C 0.81136 0.75093 0.4163 0.0
C22 C 0.92454 0.66693 0.4314 0.0
C23 C 0.89506 0.85386 0.43575 0.0
O24 O 0.85562 0.74075 0.41924 0.0
O25 O 0.78223 0.77322 0.42367 0.0
O26 O 0.91395 0.7427 0.45307 0.0
O27 O 0.83981 0.75642 0.44647 0.0
Co28 Co 0.26398 0.39381 0.68562 0.0
O29 O 0.33332 0.3863 0.68702 0.0
O30 O 0.29698 0.44969 0.6784 0.0
C31 C 0.24629 0.3723 0.70537 0.0
O32 O 0.19311 0.41457 0.68307 0.0
Co33 Co 0.19698 0.30374 0.68891 0.0
O34 O 0.14423 0.35294 0.68891 0.0
C35 C 0.2549 0.31443 0.66598 0.0
C36 C 0.33733 0.42815 0.68155 0.0
C37 C 0.1506 0.3968 0.68541 0.0
O38 O 0.26525 0.35853 0.66905 0.0
O39 O 0.2321 0.28519 0.67321 0.0
O40 O 0.25958 0.4166 0.70289 0.0
O41 O 0.24869 0.34197 0.6962 0.0
Co42 Co 0.61273 0.76457 0.93556 0.0
O43 O 0.62031 0.83404 0.93677 0.0
O44 O 0.55704 0.79713 0.92822 0.0
C45 C 0.63391 0.74703 0.95536 0.0
O46 O 0.59164 0.69368 0.93317 0.0
Co47 Co 0.70275 0.69718 0.93889 0.0
O48 O 0.65349 0.64453 0.93871 0.0
C49 C 0.69253 0.75573 0.91608 0.0
C50 C 0.57837 0.83765 0.93131 0.0
C51 C 0.6095 0.65107 0.93534 0.0
O52 O 0.64809 0.76514 0.919 0.0
O53 O 0.72181 0.73338 0.92339 0.0
O54 O 0.59002 0.76152 0.95285 0.0
O55 O 0.66426 0.7487 0.94618 0.0
Co56 Co 0.24119 0.39212 0.05912 0.0
O57 O 0.17171 0.38418 0.05804 0.0
O58 O 0.20869 0.44826 0.06618 0.0
C59 C 0.25859 0.36929 0.03943 0.0
O60 O 0.31184 0.41387 0.06133 0.0
Co61 Co 0.30942 0.30257 0.05626 0.0
O62 O 0.3617 0.35225 0.05607 0.0
C63 C 0.2513 0.31438 0.0791 0.0
C64 C 0.16817 0.4266 0.06327 0.0
C65 C 0.35463 0.39641 0.05922 0.0
O66 O 0.24111 0.35832 0.07588 0.0
O67 O 0.27401 0.28469 0.07198 0.0
O68 O 0.24385 0.41329 0.04171 0.0
O69 O 0.25727 0.33971 0.04879 0.0
Co70 Co 0.61461 0.74225 0.3091 0.0
O71 O 0.62214 0.67276 0.30788 0.0
O72 O 0.55911 0.7097 0.31654 0.0
C73 C 0.63517 0.76 0.28927 0.0
O74 O 0.59365 0.81312 0.31151 0.0
Co75 Co 0.70472 0.80953 0.3056 0.0
O76 O 0.65545 0.86216 0.30584 0.0
C77 C 0.6947 0.75173 0.32853 0.0
C78 C 0.58033 0.66916 0.31342 0.0
C79 C 0.61154 0.85568 0.30929 0.0
O80 O 0.65035 0.74184 0.3256 0.0
O81 O 0.72388 0.77405 0.3212 0.0
O82 O 0.59141 0.74531 0.29185 0.0
O83 O 0.66582 0.75818 0.29838 0.0
Co84 Co 0.26474 0.11323 0.5591 0.0
O85 O 0.33416 0.1216 0.55802 0.0
O86 O 0.29783 0.05779 0.56644 0.0
C87 C 0.24756 0.13444 0.53926 0.0
O88 O 0.19391 0.09151 0.56134 0.0
Co89 Co 0.19685 0.20289 0.55568 0.0
O90 O 0.14461 0.15322 0.55575 0.0
C91 C 0.25408 0.19249 0.57871 0.0
C92 C 0.33818 0.07966 0.56345 0.0
C93 C 0.15126 0.10924 0.55912 0.0
O94 O 0.26442 0.14835 0.57569 0.0
O95 O 0.23167 0.22174 0.57141 0.0
O96 O 0.26241 0.09068 0.54178 0.0
O97 O 0.24872 0.1647 0.54847 0.0
Co98 Co 0.89318 0.76417 0.80964 0.0
O99 O 0.88686 0.83298 0.80696 0.0
O100 O 0.94822 0.79848 0.81697 0.0
C101 C 0.87373 0.74264 0.78998 0.0
O102 O 0.91303 0.69386 0.8134 0.0
Co103 Co 0.80319 0.69702 0.80656 0.0
O104 O 0.85216 0.64416 0.8075 0.0
C105 C 0.81154 0.75932 0.82879 0.0
C106 C 0.92792 0.83797 0.81274 0.0
C107 C 0.89552 0.65103 0.81134 0.0
O108 O 0.85584 0.76942 0.82585 0.0
O109 O 0.78309 0.73495 0.82169 0.0
O110 O 0.91798 0.75566 0.79263 0.0
O111 O 0.8425 0.74703 0.79889 0.0
Co112 Co 0.74124 0.61482 0.68612 0.0
O113 O 0.67191 0.6224 0.68759 0.0
O114 O 0.70808 0.55917 0.67883 0.0
C115 C 0.75927 0.63595 0.70588 0.0
O116 O 0.81202 0.59396 0.68348 0.0
Co117 Co 0.80851 0.70468 0.68948 0.0
O118 O 0.86127 0.6555 0.68919 0.0
C119 C 0.74992 0.69471 0.66664 0.0
C120 C 0.66779 0.5807 0.68204 0.0
C121 C 0.85466 0.61167 0.68569 0.0
O122 O 0.73981 0.65046 0.66961 0.0
O123 O 0.77273 0.72377 0.67392 0.0
O124 O 0.74585 0.59172 0.70336 0.0
O125 O 0.75681 0.66642 0.69675 0.0
Co126 Co 0.39178 0.24123 0.93538 0.0
O127 O 0.38415 0.17175 0.93657 0.0
O128 O 0.44784 0.20867 0.92823 0.0
C129 C 0.36954 0.2588 0.95511 0.0
O130 O 0.41301 0.31211 0.93305 0.0
Co131 Co 0.30165 0.3087 0.93842 0.0
O132 O 0.35089 0.36136 0.93834 0.0
C133 C 0.31289 0.2499 0.91567 0.0
C134 C 0.42636 0.16815 0.93124 0.0
C135 C 0.39506 0.35475 0.93513 0.0
O136 O 0.35725 0.24064 0.91871 0.0
O137 O 0.28327 0.27222 0.9229 0.0
O138 O 0.41356 0.24432 0.95276 0.0
O139 O 0.33971 0.25713 0.94582 0.0
Co140 Co 0.76323 0.89246 0.18527 0.0
O141 O 0.83197 0.88428 0.18783 0.0
O142 O 0.7987 0.94684 0.17803 0.0
C143 C 0.74091 0.87318 0.20489 0.0
O144 O 0.69323 0.91408 0.18166 0.0
Co145 Co 0.69437 0.80314 0.18811 0.0
O146 O 0.64262 0.85315 0.18707 0.0
C147 C 0.7568 0.81145 0.16594 0.0
C148 C 0.83779 0.92554 0.18217 0.0
C149 C 0.65013 0.89674 0.18348 0.0
O150 O 0.76711 0.85564 0.16894 0.0
O151 O 0.73244 0.78292 0.17302 0.0
O152 O 0.75631 0.91676 0.20237 0.0
O153 O 0.74428 0.84214 0.19591 0.0
Co154 Co 0.11301 0.26411 0.43553 0.0
O155 O 0.12146 0.33351 0.43661 0.0
O156 O 0.0575 0.29726 0.42823 0.0
C157 C 0.13443 0.24688 0.45534 0.0
O158 O 0.09121 0.19329 0.43329 0.0
Co159 Co 0.20268 0.19616 0.43887 0.0
O160 O 0.15299 0.14395 0.43881 0.0
C161 C 0.19207 0.25348 0.41586 0.0
C162 C 0.07943 0.33758 0.43122 0.0
C163 C 0.10896 0.15063 0.43549 0.0
O164 O 0.14795 0.26378 0.41891 0.0
O165 O 0.2214 0.23108 0.42315 0.0
O166 O 0.09066 0.26177 0.45286 0.0
O167 O 0.1646 0.24803 0.44612 0.0
Co168 Co 0.74101 0.89126 0.55945 0.0
O169 O 0.67161 0.88284 0.55833 0.0
O170 O 0.70782 0.94662 0.56682 0.0
C171 C 0.75833 0.87026 0.53961 0.0
O172 O 0.81182 0.91301 0.56172 0.0
Co173 Co 0.80896 0.80165 0.55599 0.0
O174 O 0.8612 0.85132 0.55615 0.0
C175 C 0.75126 0.81164 0.57895 0.0
C176 C 0.66752 0.92476 0.56378 0.0
C177 C 0.85449 0.8953 0.55952 0.0
O178 O 0.74124 0.85593 0.57601 0.0
O179 O 0.7736 0.78247 0.57161 0.0
O180 O 0.74342 0.91399 0.54215 0.0
O181 O 0.75712 0.83991 0.5488 0.0
Co182 Co 0.1136 0.24316 0.80913 0.0
O183 O 0.12017 0.17447 0.80631 0.0
O184 O 0.05871 0.20843 0.8164 0.0
C185 C 0.13288 0.26524 0.7895 0.0
O186 O 0.09353 0.31331 0.81303 0.0
Co187 Co 0.20339 0.31063 0.80616 0.0
O188 O 0.15428 0.36331 0.80721 0.0
C189 C 0.1953 0.24777 0.82828 0.0
C190 C 0.07914 0.16914 0.81209 0.0
C191 C 0.11094 0.35623 0.81104 0.0
O192 O 0.15103 0.23759 0.82532 0.0
O193 O 0.22366 0.27243 0.82122 0.0
O194 O 0.08869 0.25203 0.79215 0.0
O195 O 0.16417 0.26074 0.79839 0.0
Co196 Co 0.76532 0.61367 0.059 0.0
O197 O 0.83477 0.62164 0.05788 0.0
O198 O 0.79791 0.55818 0.06636 0.0
C199 C 0.74793 0.63478 0.03919 0.0
O200 O 0.69468 0.59197 0.0613 0.0
Co201 Co 0.69696 0.70287 0.05562 0.0
O202 O 0.64478 0.65308 0.05568 0.0
C203 C 0.75518 0.69321 0.07851 0.0
C204 C 0.83839 0.57965 0.06332 0.0
C205 C 0.65189 0.6092 0.05907 0.0
O206 O 0.7653 0.64895 0.07556 0.0
O207 O 0.73251 0.72224 0.0712 0.0
O208 O 0.76274 0.59101 0.04171 0.0
O209 O 0.74918 0.66514 0.04838 0.0
Co210 Co 0.3943 0.26554 0.30911 0.0
O211 O 0.38655 0.33503 0.30798 0.0
O212 O 0.44973 0.29813 0.31657 0.0
C213 C 0.37376 0.24814 0.28924 0.0
O214 O 0.41552 0.1947 0.31143 0.0
Co215 Co 0.30445 0.19801 0.30554 0.0
O216 O 0.35383 0.14551 0.30576 0.0
C217 C 0.31447 0.25511 0.3286 0.0
C218 C 0.42839 0.33865 0.3135 0.0
C219 C 0.39773 0.1521 0.30921 0.0
O220 O 0.35865 0.26551 0.32563 0.0
O221 O 0.28534 0.23271 0.32126 0.0
O222 O 0.41747 0.2629 0.29186 0.0
O223 O 0.3431 0.24964 0.29836 0.0
H224 H 0.22776 0.36972 0.0996 0.0
H225 H 0.22181 0.14116 0.14589 0.0
H226 H 0.24612 0.22087 0.08766 0.0
H227 H 0.24551 0.28898 0.15807 0.0
H228 H 0.21171 0.17065 0.12448 0.0
H229 H 0.21565 0.34099 0.12103 0.0
C230 C 0.22867 0.33101 0.10145 0.0
C231 C 0.23872 0.29771 0.09185 0.0
C232 C 0.21862 0.19662 0.13188 0.0
C233 C 0.22469 0.26469 0.1163 0.0
C234 C 0.22418 0.17985 0.14411 0.0
C235 C 0.23527 0.21256 0.15377 0.0
C236 C 0.22376 0.24645 0.12931 0.0
C237 C 0.23777 0.26235 0.15089 0.0
C238 C 0.22189 0.31467 0.11368 0.0
C239 C 0.23927 0.24793 0.09479 0.0
N240 N 0.23241 0.27773 0.13891 0.0
N241 N 0.23266 0.23297 0.10676 0.0
H242 H 0.71713 0.74599 0.40826 0.0
H243 H 0.78893 0.74632 0.33655 0.0
H244 H 0.86495 0.72942 0.39536 0.0
H245 H 0.64108 0.73 0.34945 0.0
H246 H 0.81753 0.73573 0.35794 0.0
H247 H 0.68852 0.73576 0.38686 0.0
C248 C 0.74361 0.73984 0.40094 0.0
C249 C 0.79361 0.73922 0.4036 0.0
C250 C 0.77887 0.73391 0.35609 0.0
C251 C 0.76098 0.72778 0.37902 0.0
C252 C 0.76245 0.74013 0.34387 0.0
C253 C 0.71243 0.73971 0.34122 0.0
C254 C 0.74506 0.72787 0.36578 0.0
C255 C 0.67992 0.73087 0.35107 0.0
C256 C 0.72718 0.73381 0.38872 0.0
C257 C 0.82611 0.73043 0.39374 0.0
N258 N 0.69677 0.72598 0.36294 0.0
N259 N 0.80926 0.72574 0.38186 0.0
H260 H 0.27785 0.13843 0.59942 0.0
H261 H 0.27811 0.36864 0.64526 0.0
H262 H 0.2573 0.28645 0.58704 0.0
H263 H 0.25893 0.22049 0.65768 0.0
H264 H 0.28827 0.3389 0.62386 0.0
H265 H 0.28859 0.16822 0.62079 0.0
C266 C 0.27617 0.17719 0.60115 0.0
C267 C 0.26594 0.20992 0.59144 0.0
C268 C 0.28228 0.31295 0.6313 0.0
C269 C 0.27832 0.24416 0.61585 0.0
C270 C 0.27667 0.32986 0.64353 0.0
C271 C 0.26694 0.29707 0.65326 0.0
C272 C 0.27858 0.2629 0.62882 0.0
C273 C 0.2656 0.24718 0.65045 0.0
C274 C 0.28215 0.19414 0.61336 0.0
C275 C 0.26436 0.2598 0.59426 0.0
N276 N 0.27104 0.23166 0.63849 0.0
N277 N 0.27018 0.27536 0.60621 0.0
H278 H 0.71698 0.76566 0.83648 0.0
H279 H 0.78686 0.76275 0.90823 0.0
H280 H 0.86426 0.78295 0.84971 0.0
H281 H 0.63913 0.7782 0.89517 0.0
H282 H 0.81585 0.77545 0.88696 0.0
H283 H 0.68758 0.77597 0.85781 0.0
C284 C 0.74315 0.77216 0.84386 0.0
C285 C 0.79325 0.77276 0.84132 0.0
C286 C 0.77712 0.77663 0.88875 0.0
C287 C 0.75975 0.78411 0.86582 0.0
C288 C 0.76047 0.76916 0.9009 0.0
C289 C 0.7104 0.76871 0.90347 0.0
C290 C 0.74349 0.78303 0.87903 0.0
C291 C 0.67802 0.77793 0.89361 0.0
C292 C 0.72629 0.77816 0.85604 0.0
C293 C 0.82537 0.78195 0.85124 0.0
N294 N 0.6951 0.78402 0.88179 0.0
N295 N 0.80811 0.7865 0.86308 0.0
H296 H 0.74604 0.7174 0.58696 0.0
H297 H 0.74411 0.78894 0.65867 0.0
H298 H 0.72917 0.86518 0.59987 0.0
H299 H 0.72832 0.64112 0.6457 0.0
H300 H 0.73393 0.81762 0.63728 0.0
H301 H 0.73499 0.68872 0.60832 0.0
C302 C 0.73965 0.74385 0.59427 0.0
C303 C 0.73919 0.79387 0.59163 0.0
C304 C 0.73211 0.77894 0.63912 0.0
C305 C 0.72679 0.76114 0.61617 0.0
C306 C 0.73809 0.76248 0.65134 0.0
C307 C 0.73773 0.71246 0.65397 0.0
C308 C 0.7264 0.74517 0.6294 0.0
C309 C 0.72912 0.67998 0.6441 0.0
C310 C 0.73315 0.72738 0.60647 0.0
C311 C 0.73009 0.82633 0.60147 0.0
N312 N 0.7245 0.69687 0.63222 0.0
N313 N 0.72492 0.80944 0.61334 0.0
H314 H 0.21888 0.2414 0.90771 0.0
H315 H 0.28988 0.24238 0.83604 0.0
H316 H 0.36705 0.22883 0.89479 0.0
H317 H 0.14267 0.22254 0.84909 0.0
H318 H 0.31914 0.23154 0.85736 0.0
H319 H 0.19044 0.22894 0.88638 0.0
C320 C 0.24548 0.23566 0.90039 0.0
C321 C 0.29549 0.23687 0.90302 0.0
C322 C 0.28049 0.2289 0.85555 0.0
C323 C 0.26305 0.22285 0.87851 0.0
C324 C 0.2637 0.23521 0.84337 0.0
C325 C 0.21364 0.23407 0.84079 0.0
C326 C 0.24699 0.22208 0.86528 0.0
C327 C 0.18153 0.22401 0.85065 0.0
C328 C 0.22916 0.22833 0.88821 0.0
C329 C 0.32818 0.22848 0.89318 0.0
N330 N 0.19871 0.21916 0.8625 0.0
N331 N 0.3114 0.22254 0.88133 0.0
H332 H 0.76079 0.78753 0.08645 0.0
H333 H 0.76321 0.71702 0.15815 0.0
H334 H 0.77791 0.63988 0.09941 0.0
H335 H 0.78014 0.86452 0.14506 0.0
H336 H 0.77381 0.68793 0.1368 0.0
H337 H 0.77273 0.81644 0.10776 0.0
C338 C 0.76741 0.76115 0.09376 0.0
C339 C 0.76767 0.71111 0.09115 0.0
C340 C 0.77585 0.72662 0.1386 0.0
C341 C 0.78111 0.7441 0.11564 0.0
C342 C 0.76966 0.74331 0.1508 0.0
C343 C 0.77011 0.79337 0.15338 0.0
C344 C 0.78182 0.76022 0.12886 0.0
C345 C 0.77926 0.82564 0.1435 0.0
C346 C 0.77444 0.77775 0.10594 0.0
C347 C 0.77712 0.67874 0.101 0.0
N348 N 0.784 0.80855 0.13164 0.0
N349 N 0.78277 0.69577 0.11284 0.0
H350 H 0.13787 0.27664 0.39513 0.0
H351 H 0.3683 0.27853 0.34937 0.0
H352 H 0.28601 0.25736 0.40756 0.0
H353 H 0.22041 0.25799 0.33688 0.0
H354 H 0.33835 0.28839 0.37076 0.0
H355 H 0.16764 0.28736 0.37375 0.0
C356 C 0.17665 0.27524 0.3934 0.0
C357 C 0.20943 0.26537 0.40313 0.0
C358 C 0.31249 0.28215 0.3633 0.0
C359 C 0.24365 0.27772 0.37872 0.0
C360 C 0.32953 0.27669 0.35109 0.0
C361 C 0.29689 0.2667 0.34133 0.0
C362 C 0.26246 0.27803 0.36576 0.0
C363 C 0.24699 0.26488 0.34412 0.0
C364 C 0.19359 0.2812 0.38119 0.0
C365 C 0.25933 0.26413 0.40033 0.0
N366 N 0.23134 0.27019 0.35608 0.0
N367 N 0.27487 0.26993 0.38838 0.0
H368 H 0.25037 0.08527 0.22763 0.0
H369 H 0.421 0.262 0.26709 0.0
H370 H 0.31999 0.21067 0.2113 0.0
H371 H 0.29679 0.18983 0.28329 0.0
H372 H 0.39696 0.23097 0.24649 0.0
H373 H 0.28015 0.11079 0.24824 0.0
C374 C 0.27225 0.1179 0.22837 0.0
C375 C 0.28252 0.14613 0.21779 0.0
C376 C 0.37516 0.22189 0.25459 0.0
C377 C 0.31699 0.17497 0.24118 0.0
C378 C 0.38887 0.23941 0.26632 0.0
C379 C 0.36062 0.22868 0.27686 0.0
C380 C 0.33355 0.19265 0.25349 0.0
C381 C 0.31934 0.19926 0.27537 0.0
C382 C 0.28899 0.13249 0.24011 0.0
C383 C 0.31095 0.18812 0.21925 0.0
N384 N 0.30713 0.18204 0.2639 0.0
N385 N 0.32738 0.20121 0.23073 0.0
H386 H 0.91715 0.7433 0.47783 0.0
H387 H 0.74396 0.91695 0.5174 0.0
H388 H 0.79264 0.81489 0.46161 0.0
H389 H 0.81561 0.79259 0.53367 0.0
H390 H 0.77363 0.89178 0.49676 0.0
H391 H 0.8922 0.77314 0.49848 0.0
C392 C 0.88476 0.76551 0.47861 0.0
C393 C 0.8567 0.77645 0.46805 0.0
C394 C 0.78288 0.87018 0.50488 0.0
C395 C 0.82856 0.81105 0.49147 0.0
C396 C 0.76616 0.88455 0.51663 0.0
C397 C 0.77715 0.8566 0.52721 0.0
C398 C 0.81156 0.82819 0.50379 0.0
C399 C 0.80602 0.81495 0.52573 0.0
C400 C 0.87052 0.78233 0.49036 0.0
C401 C 0.81507 0.80534 0.46954 0.0
N402 N 0.82245 0.80207 0.51423 0.0
N403 N 0.80233 0.82187 0.48105 0.0
H404 H 0.25655 0.28401 0.71625 0.0
H405 H 0.07878 0.31744 0.77268 0.0
H406 H 0.19523 0.42635 0.72238 0.0
H407 H 0.22003 0.25283 0.77823 0.0
H408 H 0.10564 0.34616 0.75194 0.0
H409 H 0.22751 0.259 0.73694 0.0
C410 C 0.23676 0.30986 0.72195 0.0
C411 C 0.2285 0.35734 0.71773 0.0
C412 C 0.1305 0.32573 0.75777 0.0
C413 C 0.19433 0.32867 0.74108 0.0
C414 C 0.11524 0.3092 0.7695 0.0
C415 C 0.14738 0.28286 0.77709 0.0
C416 C 0.17744 0.31425 0.75358 0.0
C417 C 0.19433 0.27324 0.77264 0.0
C418 C 0.2204 0.29564 0.7337 0.0
C419 C 0.20267 0.38956 0.72542 0.0
N420 N 0.20779 0.28836 0.76109 0.0
N421 N 0.18593 0.37448 0.73675 0.0
H422 H 0.76218 0.5882 0.01695 0.0
H423 H 0.58728 0.7608 0.97761 0.0
H424 H 0.69037 0.71231 0.03331 0.0
H425 H 0.71204 0.69026 0.96122 0.0
H426 H 0.61284 0.7311 -0.00179 0.0
H427 H 0.73206 0.61326 0.99634 0.0
C428 C 0.73987 0.62052 0.01621 0.0
C429 C 0.72894 0.64844 0.0268 0.0
C430 C 0.63444 0.72211 0.99007 0.0
C431 C 0.69401 0.6767 0.00342 0.0
C432 C 0.61985 0.73884 0.97835 0.0
C433 C 0.6478 0.72817 0.96774 0.0
C434 C 0.67665 0.69372 0.99112 0.0
C435 C 0.68968 0.69959 0.96918 0.0
C436 C 0.72288 0.63482 0.00448 0.0
C437 C 0.69991 0.68999 0.02535 0.0
N438 N 0.70277 0.68314 0.98067 0.0
N439 N 0.68321 0.70278 0.01387 0.0
H440 H 0.31565 0.2909 0.03395 0.0
H441 H 0.2911 0.31562 0.96064 0.0
H442 H 0.24453 0.41408 0.01695 0.0
H443 H 0.4146 0.24485 0.97758 0.0
H444 H 0.26628 0.34514 0.98124 0.0
H445 H 0.34544 0.26617 0.01335 0.0
C446 C 0.30632 0.31273 0.02588 0.0
C447 C 0.27754 0.35454 0.02712 0.0
C448 C 0.29893 0.32335 0.98042 0.0
C449 C 0.3109 0.32614 0.0036 0.0
C450 C 0.313 0.30632 0.96869 0.0
C451 C 0.35491 0.27771 0.96744 0.0
C452 C 0.32638 0.31076 0.99098 0.0
C453 C 0.38207 0.2669 0.97817 0.0
C454 C 0.32352 0.29873 0.01416 0.0
C455 C 0.2667 0.38163 0.01638 0.0
N456 N 0.36704 0.28302 0.98954 0.0
N457 N 0.28298 0.36667 0.00502 0.0
H458 H 0.71293 0.81743 0.28347 0.0
H459 H 0.68193 0.79646 0.21041 0.0
H460 H 0.58743 0.74807 0.26709 0.0
H461 H 0.75464 0.91903 0.22727 0.0
H462 H 0.65259 0.77193 0.23105 0.0
H463 H 0.73513 0.84898 0.26287 0.0
C464 C 0.69003 0.80887 0.27554 0.0
C465 C 0.64836 0.78 0.27695 0.0
C466 C 0.67465 0.80439 0.23021 0.0
C467 C 0.67385 0.81544 0.25341 0.0
C468 C 0.69156 0.81829 0.21846 0.0
C469 C 0.72085 0.85973 0.21718 0.0
C470 C 0.68809 0.83149 0.24076 0.0
C471 C 0.73207 0.88686 0.22789 0.0
C472 C 0.70258 0.8271 0.26382 0.0
C473 C 0.61985 0.77022 0.26638 0.0
N474 N 0.71618 0.8719 0.23928 0.0
N475 N 0.63344 0.78746 0.255 0.0
H476 H 0.08808 0.2613 0.4776 0.0
H477 H 0.26193 0.08789 0.51702 0.0
H478 H 0.21229 0.18971 0.46123 0.0
H479 H 0.19037 0.21221 0.53334 0.0
H480 H 0.23217 0.11311 0.4964 0.0
H481 H 0.11351 0.23167 0.49822 0.0
C482 C 0.12051 0.23914 0.47834 0.0
C483 C 0.14833 0.22814 0.46774 0.0
C484 C 0.22297 0.1347 0.50453 0.0
C485 C 0.17704 0.19376 0.49114 0.0
C486 C 0.23975 0.1203 0.51627 0.0
C487 C 0.22878 0.14821 0.52686 0.0
C488 C 0.19426 0.17668 0.50345 0.0
C489 C 0.19993 0.18988 0.52539 0.0
C490 C 0.13503 0.22244 0.49008 0.0
C491 C 0.19003 0.19931 0.46919 0.0
N492 N 0.18343 0.20277 0.5139 0.0
N493 N 0.20304 0.18289 0.48069 0.0
H494 H 0.74973 0.72433 0.71676 0.0
H495 H 0.92744 0.68993 0.77317 0.0
H496 H 0.80993 0.58152 0.72291 0.0
H497 H 0.78674 0.75577 0.77869 0.0
H498 H 0.9003 0.6612 0.75245 0.0
H499 H 0.77908 0.74923 0.73743 0.0
C500 C 0.76934 0.69835 0.72246 0.0
C501 C 0.77719 0.65077 0.71825 0.0
C502 C 0.87562 0.6819 0.75827 0.0
C503 C 0.81172 0.67932 0.74158 0.0
C504 C 0.89104 0.69845 0.76998 0.0
C505 C 0.85914 0.72513 0.77756 0.0
C506 C 0.82876 0.69372 0.75407 0.0
C507 C 0.81226 0.7351 0.77311 0.0
C508 C 0.78588 0.71251 0.7342 0.0
C509 C 0.8028 0.61839 0.72595 0.0
N510 N 0.79864 0.71995 0.76157 0.0
N511 N 0.81971 0.63342 0.73727 0.0
H512 H 0.13213 0.02123 0.16352 0.0
H513 H 0.91112 0.91691 0.19889 0.0
H514 H 0.09264 0.08651 0.19872 0.0
H515 H 0.87537 0.98491 0.16376 0.0
H516 H 0.99168 0.95496 0.1981 0.0
H517 H 0.0502 0.98423 0.16238 0.0
C518 C 0.10632 0.02765 0.17098 0.0
C519 C 0.11894 0.05697 0.18122 0.0
C520 C 0.96621 0.96113 0.19054 0.0
C521 C 0.02673 0.01441 0.18008 0.0
C522 C 0.92041 0.9395 0.19095 0.0
C523 C 0.88657 0.94798 0.18139 0.0
C524 C 0.97886 0.99022 0.18032 0.0
C525 C 0.90042 0.9778 0.17134 0.0
C526 C 0.05978 0.00691 0.17028 0.0
C527 C 0.08422 0.06438 0.19064 0.0
N528 N 0.9459 0.99764 0.17099 0.0
N529 N 0.03997 0.04262 0.18994 0.0
H530 H 0.12456 0.42589 0.43189 0.0
H531 H 0.87943 0.57862 0.43212 0.0
H532 H 0.98413 0.35988 0.426 0.0
H533 H 0.0197 0.64464 0.426 0.0
H534 H 0.91686 0.49832 0.43033 0.0
H535 H 0.08708 0.50619 0.43018 0.0
C536 C 0.08583 0.42828 0.43015 0.0
C537 C 0.05737 0.38607 0.42914 0.0
C538 C 0.93942 0.53032 0.42926 0.0
C539 C 0.01411 0.4781 0.42731 0.0
C540 C 0.91811 0.57623 0.43031 0.0
C541 C 0.94655 0.61844 0.42926 0.0
C542 C 0.98975 0.52642 0.42734 0.0
C543 C 0.99643 0.61308 0.42687 0.0
C544 C 0.0645 0.47419 0.42914 0.0
C545 C 0.00743 0.39144 0.42683 0.0
N546 N 0.01655 0.56791 0.42613 0.0
N547 N 0.98728 0.43661 0.42614 0.0
H548 H 0.42522 0.38249 0.68202 0.0
H549 H 0.57985 0.62627 0.68291 0.0
H550 H 0.36022 0.5236 0.67654 0.0
H551 H 0.64482 0.48576 0.67644 0.0
H552 H 0.49929 0.58958 0.68099 0.0
H553 H 0.50577 0.41937 0.68037 0.0
C554 C 0.4279 0.42127 0.68039 0.0
C555 C 0.38589 0.45008 0.67948 0.0
C556 C 0.53111 0.5668 0.67987 0.0
C557 C 0.47826 0.49266 0.67771 0.0
C558 C 0.57717 0.58767 0.68101 0.0
C559 C 0.61918 0.55896 0.6799 0.0
C560 C 0.5268 0.5166 0.67781 0.0
C561 C 0.61344 0.50923 0.67737 0.0
C562 C 0.47396 0.44226 0.67941 0.0
C563 C 0.39162 0.50005 0.67729 0.0
N564 N 0.56809 0.48951 0.67655 0.0
N565 N 0.43697 0.51987 0.67663 0.0
H566 H 0.52179 0.14747 0.92587 0.0
H567 H 0.48314 0.85836 0.92571 0.0
H568 H 0.3827 0.07907 0.93208 0.0
H569 H 0.622 0.92671 0.93229 0.0
H570 H 0.44582 0.93918 0.92405 0.0
H571 H 0.55915 0.06667 0.92424 0.0
C572 C 0.49905 0.1155 0.92676 0.0
C573 C 0.44913 0.11999 0.9292 0.0
C574 C 0.48452 0.93639 0.92578 0.0
C575 C 0.4915 0.02762 0.92729 0.0
C576 C 0.50584 0.89032 0.92667 0.0
C577 C 0.55567 0.88582 0.92923 0.0
C578 C 0.51336 0.9782 0.92729 0.0
C579 C 0.58337 0.92849 0.93042 0.0
C580 C 0.5204 0.06944 0.92588 0.0
C581 C 0.4214 0.0773 0.93029 0.0
N582 N 0.56187 0.97285 0.92945 0.0
N583 N 0.44293 0.03295 0.92934 0.0
H584 H 0.1479 0.52205 0.06862 0.0
H585 H 0.85879 0.48449 0.06898 0.0
H586 H 0.07893 0.38317 0.06248 0.0
H587 H 0.92758 0.62305 0.06228 0.0
H588 H 0.93945 0.4469 0.07061 0.0
H589 H 0.0673 0.55971 0.0703 0.0
C590 C 0.11584 0.49942 0.06775 0.0
C591 C 0.1201 0.44948 0.06532 0.0
C592 C 0.9368 0.48559 0.06886 0.0
C593 C 0.02797 0.4922 0.06729 0.0
C594 C 0.89082 0.50708 0.06798 0.0
C595 C 0.8865 0.55689 0.0654 0.0
C596 C 0.97869 0.51426 0.06731 0.0
C597 C 0.92924 0.58443 0.06418 0.0
C598 C 0.0699 0.52094 0.06866 0.0
C599 C 0.07732 0.42189 0.06426 0.0
N600 N 0.97352 0.56277 0.06513 0.0
N601 N 0.03307 0.44359 0.06524 0.0
H602 H 0.48514 0.64849 0.31908 0.0
H603 H 0.52362 0.35939 0.3191 0.0
H604 H 0.62392 0.58008 0.31247 0.0
H605 H 0.3847 0.42771 0.31261 0.0
H606 H 0.56096 0.44021 0.32076 0.0
H607 H 0.44779 0.56769 0.32079 0.0
C608 C 0.50782 0.61652 0.31812 0.0
C609 C 0.55764 0.62101 0.31554 0.0
C610 C 0.52224 0.43742 0.31906 0.0
C611 C 0.51529 0.52863 0.31755 0.0
C612 C 0.5009 0.39134 0.31816 0.0
C613 C 0.45106 0.38683 0.31563 0.0
C614 C 0.4934 0.47922 0.31757 0.0
C615 C 0.42335 0.4295 0.31448 0.0
C616 C 0.48648 0.57046 0.31905 0.0
C617 C 0.5853 0.57831 0.31437 0.0
N618 N 0.44487 0.47386 0.31545 0.0
N619 N 0.56379 0.53397 0.31537 0.0
H620 H 0.57922 0.87963 0.56306 0.0
H621 H 0.42651 0.12475 0.56278 0.0
H622 H 0.64519 0.02002 0.56904 0.0
H623 H 0.36041 0.98447 0.56883 0.0
H624 H 0.50679 0.08731 0.56462 0.0
H625 H 0.4989 0.9171 0.56473 0.0
C626 C 0.57681 0.91835 0.56481 0.0
C627 C 0.61901 0.9468 0.56586 0.0
C628 C 0.47477 0.06475 0.56566 0.0
C629 C 0.52697 0.99005 0.56764 0.0
C630 C 0.42888 0.08606 0.56458 0.0
C631 C 0.38665 0.05763 0.5656 0.0
C632 C 0.47865 0.01442 0.56758 0.0
C633 C 0.39198 0.00775 0.56798 0.0
C634 C 0.53089 0.93968 0.5658 0.0
C635 C 0.61363 0.99673 0.56818 0.0
N636 N 0.43714 0.98762 0.56875 0.0
N637 N 0.56845 0.01688 0.56885 0.0
H638 H 0.08282 0.09804 0.79471 0.0
H639 H 0.98451 0.87561 0.83174 0.0
H640 H 0.02423 0.12975 0.83118 0.0
H641 H 0.9233 0.91046 0.79574 0.0
H642 H 0.02034 0.95815 0.8326 0.0
H643 H 0.04589 0.01708 0.79565 0.0
C644 C 0.06238 0.0878 0.80296 0.0
C645 C 0.05626 0.12061 0.81286 0.0
C646 C 0.99885 0.9474 0.82458 0.0
C647 C 0.01536 0.02773 0.81411 0.0
C648 C 0.97884 0.90048 0.82403 0.0
C649 C 0.95096 0.88641 0.81365 0.0
C650 C 0.99213 0.97934 0.81449 0.0
C651 C 0.94437 0.91998 0.80393 0.0
C652 C 0.04138 0.04176 0.80346 0.0
C653 C 0.02933 0.10554 0.82332 0.0
N654 N 0.96539 0.96459 0.8045 0.0
N655 N 0.01014 0.05976 0.82375 0.0
H656 H 0.55488 0.86882 0.18182 0.0
H657 H 0.45003 0.13925 0.18385 0.0
H658 H 0.64605 0.99661 0.18115 0.0
H659 H 0.35926 0.01183 0.1804 0.0
H660 H 0.52188 0.08792 0.18218 0.0
H661 H 0.48326 0.92061 0.18056 0.0
C662 C 0.55997 0.90783 0.18135 0.0
C663 C 0.60682 0.92832 0.18168 0.0
C664 C 0.4863 0.07114 0.18171 0.0
C665 C 0.52429 0.9881 0.18029 0.0
C666 C 0.44506 0.10045 0.18269 0.0
C667 C 0.39823 0.0799 0.18236 0.0
C668 C 0.48102 0.02065 0.18046 0.0
C669 C 0.39447 0.02937 0.18073 0.0
C670 C 0.51887 0.93741 0.1806 0.0
C671 C 0.6108 0.97913 0.18093 0.0
N672 N 0.43529 1.00149 0.17994 0.0
N673 N 0.57007 0.00727 0.18038 0.0
H674 H 0.86686 0.94931 0.43566 0.0
H675 H 0.13713 0.05519 0.43529 0.0
H676 H 0.9947 0.85883 0.43286 0.0
H677 H 0.0092 0.1457 0.43286 0.0
H678 H 0.08567 0.98324 0.43428 0.0
H679 H 0.91827 0.02127 0.43453 0.0
C680 C 0.90579 0.94443 0.43478 0.0
C681 C 0.92641 0.89764 0.43443 0.0
C682 C 0.06879 0.01878 0.43391 0.0
C683 C 0.98573 0.98058 0.43315 0.0
C684 C 0.09817 0.06007 0.43451 0.0
C685 C 0.07754 0.10687 0.43423 0.0
C686 C 0.01816 0.02395 0.43311 0.0
C687 C 0.02679 0.11052 0.43312 0.0
C688 C 0.93513 0.98574 0.4341 0.0
C689 C 0.97711 0.894 0.43317 0.0
N690 N 0.99885 0.06963 0.43269 0.0
N691 N 0.00502 0.9349 0.43267 0.0
H692 H 0.05497 0.36897 0.68595 0.0
H693 H 0.95021 0.63965 0.68513 0.0
H694 H 0.14581 0.49616 0.68207 0.0
H695 H 0.85914 0.51199 0.68314 0.0
H696 H 0.02196 0.58784 0.684 0.0
H697 H 0.98316 0.42067 0.68493 0.0
C698 C 0.05995 0.40779 0.68484 0.0
C699 C 0.1068 0.42815 0.68415 0.0
C700 C 0.98633 0.57111 0.68374 0.0
C701 C 0.02409 0.48781 0.68302 0.0
C702 C 0.94518 0.60069 0.68442 0.0
C703 C 0.89831 0.58023 0.68429 0.0
C704 C 0.9809 0.52046 0.68304 0.0
C705 C 0.8944 0.52947 0.68326 0.0
C706 C 0.01875 0.43731 0.68424 0.0
C707 C 0.11058 0.47875 0.68265 0.0
N708 N 0.93513 0.50135 0.68276 0.0
N709 N 0.06981 0.50683 0.68222 0.0
H710 H 0.367 0.45028 0.93486 0.0
H711 H 0.63756 0.55554 0.93539 0.0
H712 H 0.49479 0.3595 0.9326 0.0
H713 H 0.50996 0.64624 0.93236 0.0
H714 H 0.58598 0.48367 0.93429 0.0
H715 H 0.41865 0.52212 0.93386 0.0
C716 C 0.40596 0.44532 0.93412 0.0
C717 C 0.42649 0.39848 0.93388 0.0
C718 C 0.56921 0.51923 0.9338 0.0
C719 C 0.48609 0.48124 0.93276 0.0
C720 C 0.59866 0.56048 0.93446 0.0
C721 C 0.57815 0.6073 0.93403 0.0
C722 C 0.51863 0.52451 0.9328 0.0
C723 C 0.52747 0.61103 0.93273 0.0
C724 C 0.43545 0.48654 0.93352 0.0
C725 C 0.47725 0.39471 0.93282 0.0
N726 N 0.49946 0.57022 0.93224 0.0
N727 N 0.50529 0.43552 0.93239 0.0
H728 H 0.64908 0.50976 0.06211 0.0
H729 H 0.35751 0.49591 0.06211 0.0
H730 H 0.55582 0.63543 0.05885 0.0
H731 H 0.45072 0.37016 0.05894 0.0
H732 H 0.42987 0.54765 0.0631 0.0
H733 H 0.57673 0.458 0.06315 0.0
C734 C 0.6135 0.52654 0.06168 0.0
C735 C 0.6087 0.57709 0.06032 0.0
C736 C 0.43442 0.50869 0.06222 0.0
C737 C 0.52565 0.518 0.06151 0.0
C738 C 0.39308 0.4791 0.06169 0.0
C739 C 0.39785 0.42853 0.06037 0.0
C740 C 0.48093 0.48761 0.06151 0.0
C741 C 0.44507 0.40893 0.05986 0.0
C742 C 0.57217 0.49694 0.06224 0.0
C743 C 0.56148 0.59667 0.05981 0.0
N744 N 0.48464 0.43845 0.06042 0.0
N745 N 0.52193 0.56715 0.06039 0.0
H746 H 0.36951 0.05665 0.30946 0.0
H747 H 0.63982 0.95113 0.30929 0.0
H748 H 0.49734 0.14732 0.31199 0.0
H749 H 0.51205 0.86061 0.31229 0.0
H750 H 0.58836 0.02308 0.31037 0.0
H751 H 0.42103 0.98477 0.31059 0.0
C752 C 0.40846 0.06157 0.31028 0.0
C753 C 0.42905 0.10837 0.31055 0.0
C754 C 0.57154 0.98753 0.31086 0.0
C755 C 0.48848 0.0256 0.31183 0.0
C756 C 0.60091 0.94626 0.31021 0.0
C757 C 0.5803 0.89947 0.31062 0.0
C758 C 0.52095 0.98232 0.31184 0.0
C759 C 0.52962 0.89579 0.31192 0.0
C760 C 0.43786 0.02033 0.31096 0.0
C761 C 0.47977 0.11212 0.31174 0.0
N762 N 0.50169 0.93664 0.3124 0.0
N763 N 0.50774 0.07129 0.31224 0.0
H764 H 0.94992 0.86711 0.55989 0.0
H765 H 0.05577 0.13735 0.55899 0.0
H766 H 0.85939 0.9951 0.56199 0.0
H767 H 0.14628 0.00967 0.56218 0.0
H768 H 0.98382 0.08596 0.56016 0.0
H769 H 0.02188 0.91859 0.56084 0.0
C770 C 0.94504 0.90609 0.56058 0.0
C771 C 0.89824 0.92672 0.56079 0.0
C772 C 0.01936 0.06912 0.56067 0.0
C773 C 0.98116 0.98614 0.56184 0.0
C774 C 0.06066 0.09846 0.55997 0.0
C775 C 0.10746 0.07789 0.56042 0.0
C776 C 0.02452 0.01857 0.56174 0.0
C777 C 0.1111 0.02723 0.56178 0.0
C778 C 0.98634 0.93548 0.56115 0.0
C779 C 0.89458 0.9775 0.56179 0.0
N780 N 0.07021 0.99932 0.56231 0.0
N781 N 0.93547 0.00545 0.56219 0.0
H782 H 0.86766 0.55543 0.81197 0.0
H783 H 0.13873 0.45181 0.81195 0.0
H784 H 0.99485 0.64686 0.8147 0.0
H785 H 0.01156 0.36021 0.81435 0.0
H786 H 0.08676 0.52332 0.81349 0.0
H787 H 0.91958 0.48383 0.81337 0.0
C788 C 0.90653 0.56057 0.81293 0.0
C789 C 0.92684 0.60751 0.81314 0.0
C790 C 0.07018 0.48762 0.81377 0.0
C791 C 0.98675 0.52507 0.81469 0.0
C792 C 0.09985 0.4466 0.81286 0.0
C793 C 0.07956 0.39966 0.81294 0.0
C794 C 0.01959 0.482 0.81465 0.0
C795 C 0.0289 0.39553 0.81424 0.0
C796 C 0.93617 0.51951 0.81375 0.0
C797 C 0.97748 0.61155 0.81449 0.0
N798 N 1.00067 0.43614 0.81494 0.0
N799 N 0.00569 0.57091 0.81511 0.0
loop_
_geom_bond_atom_site_label_1
_geom_bond_atom_site_label_2
_geom_bond_distance
_geom_bond_site_symmetry_2
_ccdc_geom_bond_type
Co0 O1 2.216 . S
Co0 O2 2.091 . S
Co0 O4 2.004 . S
Co0 O10 2.021 . S
Co0 O12 2.137 . S
Co0 O13 2.244 . S
O1 Co0 2.216 . S
O1 C8 1.247 . S
O2 Co0 2.091 . S
O2 C8 1.261 . S
C3 O12 1.247 . S
C3 O13 1.272 . S
O4 Co0 2.004 . S
O4 C9 1.259 . S
Co5 O6 2.061 . S
Co5 O11 2.052 . S
Co5 O13 2.135 . S
O6 Co5 2.061 . S
O6 C9 1.235 . S
C7 O10 1.238 . S
C7 O11 1.241 . S
C8 O1 1.247 . S
C8 O2 1.261 . S
C9 O4 1.259 . S
C9 O6 1.235 . S
O10 Co0 2.021 . S
O10 C7 1.238 . S
O11 Co5 2.052 . S
O11 C7 1.241 . S
O12 Co0 2.137 . S
O12 C3 1.247 . S
O13 Co0 2.244 . S
O13 C3 1.272 . S
O13 Co5 2.135 . S
Co14 O15 2.216 . S
Co14 O16 2.091 . S
Co14 O18 2.004 . S
Co14 O24 2.021 . S
Co14 O26 2.137 . S
Co14 O27 2.244 . S
O15 Co14 2.216 . S
O15 C22 1.247 . S
O16 Co14 2.091 . S
O16 C22 1.261 . S
C17 O26 1.247 . S
C17 O27 1.272 . S
O18 Co14 2.004 . S
O18 C23 1.259 . S
Co19 O20 2.061 . S
Co19 O25 2.052 . S
Co19 O27 2.135 . S
O20 Co19 2.061 . S
O20 C23 1.235 . S
C21 O24 1.238 . S
C21 O25 1.241 . S
C22 O15 1.247 . S
C22 O16 1.261 . S
C23 O18 1.259 . S
C23 O20 1.235 . S
O24 Co14 2.021 . S
O24 C21 1.238 . S
O25 Co19 2.052 . S
O25 C21 1.241 . S
O26 Co14 2.137 . S
O26 C17 1.247 . S
O27 Co14 2.244 . S
O27 C17 1.272 . S
O27 Co19 2.135 . S
Co28 O29 2.216 . S
Co28 O30 2.091 . S
Co28 O32 2.004 . S
Co28 O38 2.021 . S
Co28 O40 2.137 . S
Co28 O41 2.244 . S
O29 Co28 2.216 . S
O29 C36 1.247 . S
O30 Co28 2.091 . S
O30 C36 1.261 . S
C31 O40 1.247 . S
C31 O41 1.272 . S
O32 Co28 2.004 . S
O32 C37 1.259 . S
Co33 O34 2.061 . S
Co33 O39 2.052 . S
Co33 O41 2.135 . S
O34 Co33 2.061 . S
O34 C37 1.235 . S
C35 O38 1.238 . S
C35 O39 1.241 . S
C36 O29 1.247 . S
C36 O30 1.261 . S
C37 O32 1.259 . S
C37 O34 1.235 . S
O38 Co28 2.021 . S
O38 C35 1.238 . S
O39 Co33 2.052 . S
O39 C35 1.241 . S
O40 Co28 2.137 . S
O40 C31 1.247 . S
O41 Co28 2.244 . S
O41 C31 1.272 . S
O41 Co33 2.135 . S
Co42 O43 2.216 . S
Co42 O44 2.091 . S
Co42 O46 2.004 . S
Co42 O52 2.021 . S
Co42 O54 2.137 . S
Co42 O55 2.244 . S
O43 Co42 2.216 . S
O43 C50 1.247 . S
O44 Co42 2.091 . S
O44 C50 1.261 . S
C45 O54 1.247 . S
C45 O55 1.272 . S
O46 Co42 2.004 . S
O46 C51 1.259 . S
Co47 O48 2.061 . S
Co47 O53 2.052 . S
Co47 O55 2.135 . S
O48 Co47 2.061 . S
O48 C51 1.235 . S
C49 O52 1.238 . S
C49 O53 1.241 . S
C50 O43 1.247 . S
C50 O44 1.261 . S
C51 O46 1.259 . S
C51 O48 1.235 . S
O52 Co42 2.021 . S
O52 C49 1.238 . S
O53 Co47 2.052 . S
O53 C49 1.241 . S
O54 Co42 2.137 . S
O54 C45 1.247 . S
O55 Co42 2.244 . S
O55 C45 1.272 . S
O55 Co47 2.135 . S
Co56 O57 2.216 . S
Co56 O58 2.091 . S
Co56 O60 2.004 . S
Co56 O66 2.021 . S
Co56 O68 2.137 . S
Co56 O69 2.244 . S
O57 Co56 2.216 . S
O57 C64 1.247 . S
O58 Co56 2.091 . S
O58 C64 1.261 . S
C59 O68 1.247 . S
C59 O69 1.272 . S
O60 Co56 2.004 . S
O60 C65 1.259 . S
Co61 O62 2.061 . S
Co61 O67 2.052 . S
Co61 O69 2.135 . S
O62 Co61 2.061 . S
O62 C65 1.235 . S
C63 O66 1.238 . S
C63 O67 1.241 . S
C64 O57 1.247 . S
C64 O58 1.261 . S
C65 O60 1.259 . S
C65 O62 1.235 . S
O66 Co56 2.021 . S
O66 C63 1.238 . S
O67 Co61 2.052 . S
O67 C63 1.241 . S
O68 Co56 2.137 . S
O68 C59 1.247 . S
O69 Co56 2.244 . S
O69 C59 1.272 . S
O69 Co61 2.135 . S
Co70 O71 2.216 . S
Co70 O72 2.091 . S
Co70 O74 2.004 . S
Co70 O80 2.021 . S
Co70 O82 2.137 . S
Co70 O83 2.244 . S
O71 Co70 2.216 . S
O71 C78 1.247 . S
O72 Co70 2.091 . S
O72 C78 1.261 . S
C73 O82 1.247 . S
C73 O83 1.272 . S
O74 Co70 2.004 . S
O74 C79 1.259 . S
Co75 O76 2.061 . S
Co75 O81 2.052 . S
Co75 O83 2.135 . S
O76 Co75 2.061 . S
O76 C79 1.235 . S
C77 O80 1.238 . S
C77 O81 1.241 . S
C78 O71 1.247 . S
C78 O72 1.261 . S
C79 O74 1.259 . S
C79 O76 1.235 . S
O80 Co70 2.021 . S
O80 C77 1.238 . S
O81 Co75 2.052 . S
O81 C77 1.241 . S
O82 Co70 2.137 . S
O82 C73 1.247 . S
O83 Co70 2.244 . S
O83 C73 1.272 . S
O83 Co75 2.135 . S
Co84 O85 2.216 . S
Co84 O86 2.091 . S
Co84 O88 2.004 . S
Co84 O94 2.021 . S
Co84 O96 2.137 . S
Co84 O97 2.244 . S
O85 Co84 2.216 . S
O85 C92 1.247 . S
O86 Co84 2.091 . S
O86 C92 1.261 . S
C87 O96 1.247 . S
C87 O97 1.272 . S
O88 Co84 2.004 . S
O88 C93 1.259 . S
Co89 O90 2.061 . S
Co89 O95 2.052 . S
Co89 O97 2.135 . S
O90 Co89 2.061 . S
O90 C93 1.235 . S
C91 O94 1.238 . S
C91 O95 1.241 . S
C92 O85 1.247 . S
C92 O86 1.261 . S
C93 O88 1.259 . S
C93 O90 1.235 . S
O94 Co84 2.021 . S
O94 C91 1.238 . S
O95 Co89 2.052 . S
O95 C91 1.241 . S
O96 Co84 2.137 . S
O96 C87 1.247 . S
O97 Co84 2.244 . S
O97 C87 1.272 . S
O97 Co89 2.135 . S
Co98 O99 2.216 . S
Co98 O100 2.091 . S
Co98 O102 2.004 . S
Co98 O108 2.021 . S
Co98 O110 2.137 . S
Co98 O111 2.244 . S
O99 Co98 2.216 . S
O99 C106 1.247 . S
O100 Co98 2.091 . S
O100 C106 1.261 . S
C101 O110 1.247 . S
C101 O111 1.272 . S
O102 Co98 2.004 . S
O102 C107 1.259 . S
Co103 O104 2.061 . S
Co103 O109 2.052 . S
Co103 O111 2.135 . S
O104 Co103 2.061 . S
O104 C107 1.235 . S
C105 O108 1.238 . S
C105 O109 1.241 . S
C106 O99 1.247 . S
C106 O100 1.261 . S
C107 O102 1.259 . S
C107 O104 1.235 . S
O108 Co98 2.021 . S
O108 C105 1.238 . S
O109 Co103 2.052 . S
O109 C105 1.241 . S
O110 Co98 2.137 . S
O110 C101 1.247 . S
O111 Co98 2.244 . S
O111 C101 1.272 . S
O111 Co103 2.135 . S
Co112 O113 2.216 . S
Co112 O114 2.091 . S
Co112 O116 2.004 . S
Co112 O122 2.021 . S
Co112 O124 2.137 . S
Co112 O125 2.244 . S
O113 Co112 2.216 . S
O113 C120 1.247 . S
O114 Co112 2.091 . S
O114 C120 1.261 . S
C115 O124 1.247 . S
C115 O125 1.272 . S
O116 Co112 2.004 . S
O116 C121 1.259 . S
Co117 O118 2.061 . S
Co117 O123 2.052 . S
Co117 O125 2.135 . S
O118 Co117 2.061 . S
O118 C121 1.235 . S
C119 O122 1.238 . S
C119 O123 1.241 . S
C120 O113 1.247 . S
C120 O114 1.261 . S
C121 O116 1.259 . S
C121 O118 1.235 . S
O122 Co112 2.021 . S
O122 C119 1.238 . S
O123 Co117 2.052 . S
O123 C119 1.241 . S
O124 Co112 2.137 . S
O124 C115 1.247 . S
O125 Co112 2.244 . S
O125 C115 1.272 . S
O125 Co117 2.135 . S
Co126 O127 2.216 . S
Co126 O128 2.091 . S
Co126 O130 2.004 . S
Co126 O136 2.021 . S
Co126 O138 2.137 . S
Co126 O139 2.244 . S
O127 Co126 2.216 . S
O127 C134 1.247 . S
O128 Co126 2.091 . S
O128 C134 1.261 . S
C129 O138 1.247 . S
C129 O139 1.272 . S
O130 Co126 2.004 . S
O130 C135 1.259 . S
Co131 O132 2.061 . S
Co131 O137 2.052 . S
Co131 O139 2.135 . S
O132 Co131 2.061 . S
O132 C135 1.235 . S
C133 O136 1.238 . S
C133 O137 1.241 . S
C134 O127 1.247 . S
C134 O128 1.261 . S
C135 O130 1.259 . S
C135 O132 1.235 . S
O136 Co126 2.021 . S
O136 C133 1.238 . S
O137 Co131 2.052 . S
O137 C133 1.241 . S
O138 Co126 2.137 . S
O138 C129 1.247 . S
O139 Co126 2.244 . S
O139 C129 1.272 . S
O139 Co131 2.135 . S
Co140 O141 2.216 . S
Co140 O142 2.091 . S
Co140 O144 2.004 . S
Co140 O150 2.021 . S
Co140 O152 2.137 . S
Co140 O153 2.244 . S
O141 Co140 2.216 . S
O141 C148 1.247 . S
O142 Co140 2.091 . S
O142 C148 1.261 . S
C143 O152 1.247 . S
C143 O153 1.272 . S
O144 Co140 2.004 . S
O144 C149 1.259 . S
Co145 O146 2.061 . S
Co145 O151 2.052 . S
Co145 O153 2.135 . S
O146 Co145 2.061 . S
O146 C149 1.235 . S
C147 O150 1.238 . S
C147 O151 1.241 . S
C148 O141 1.247 . S
C148 O142 1.261 . S
C149 O144 1.259 . S
C149 O146 1.235 . S
O150 Co140 2.021 . S
O150 C147 1.238 . S
O151 Co145 2.052 . S
O151 C147 1.241 . S
O152 Co140 2.137 . S
O152 C143 1.247 . S
O153 Co140 2.244 . S
O153 C143 1.272 . S
O153 Co145 2.135 . S
Co154 O155 2.216 . S
Co154 O156 2.091 . S
Co154 O158 2.004 . S
Co154 O164 2.021 . S
Co154 O166 2.137 . S
Co154 O167 2.244 . S
O155 Co154 2.216 . S
O155 C162 1.247 . S
O156 Co154 2.091 . S
O156 C162 1.261 . S
C157 O166 1.247 . S
C157 O167 1.272 . S
O158 Co154 2.004 . S
O158 C163 1.259 . S
Co159 O160 2.061 . S
Co159 O165 2.052 . S
Co159 O167 2.135 . S
O160 Co159 2.061 . S
O160 C163 1.235 . S
C161 O164 1.238 . S
C161 O165 1.241 . S
C162 O155 1.247 . S
C162 O156 1.261 . S
C163 O158 1.259 . S
C163 O160 1.235 . S
O164 Co154 2.021 . S
O164 C161 1.238 . S
O165 Co159 2.052 . S
O165 C161 1.241 . S
O166 Co154 2.137 . S
O166 C157 1.247 . S
O167 Co154 2.244 . S
O167 C157 1.272 . S
O167 Co159 2.135 . S
Co168 O169 2.216 . S
Co168 O170 2.091 . S
Co168 O172 2.004 . S
Co168 O178 2.021 . S
Co168 O180 2.137 . S
Co168 O181 2.244 . S
O169 Co168 2.216 . S
O169 C176 1.247 . S
O170 Co168 2.091 . S
O170 C176 1.261 . S
C171 O180 1.247 . S
C171 O181 1.272 . S
O172 Co168 2.004 . S
O172 C177 1.259 . S
Co173 O174 2.061 . S
Co173 O179 2.052 . S
Co173 O181 2.135 . S
O174 Co173 2.061 . S
O174 C177 1.235 . S
C175 O178 1.238 . S
C175 O179 1.241 . S
C176 O169 1.247 . S
C176 O170 1.261 . S
C177 O172 1.259 . S
C177 O174 1.235 . S
O178 Co168 2.021 . S
O178 C175 1.238 . S
O179 Co173 2.052 . S
O179 C175 1.241 . S
O180 Co168 2.137 . S
O180 C171 1.247 . S
O181 Co168 2.244 . S
O181 C171 1.272 . S
O181 Co173 2.135 . S
Co182 O183 2.216 . S
Co182 O184 2.091 . S
Co182 O186 2.004 . S
Co182 O192 2.021 . S
Co182 O194 2.137 . S
Co182 O195 2.244 . S
O183 Co182 2.216 . S
O183 C190 1.247 . S
O184 Co182 2.091 . S
O184 C190 1.261 . S
C185 O194 1.247 . S
C185 O195 1.272 . S
O186 Co182 2.004 . S
O186 C191 1.259 . S
Co187 O188 2.061 . S
Co187 O193 2.052 . S
Co187 O195 2.135 . S
O188 Co187 2.061 . S
O188 C191 1.235 . S
C189 O192 1.238 . S
C189 O193 1.241 . S
C190 O183 1.247 . S
C190 O184 1.261 . S
C191 O186 1.259 . S
C191 O188 1.235 . S
O192 Co182 2.021 . S
O192 C189 1.238 . S
O193 Co187 2.052 . S
O193 C189 1.241 . S
O194 Co182 2.137 . S
O194 C185 1.247 . S
O195 Co182 2.244 . S
O195 C185 1.272 . S
O195 Co187 2.135 . S
Co196 O197 2.216 . S
Co196 O198 2.091 . S
Co196 O200 2.004 . S
Co196 O206 2.021 . S
Co196 O208 2.137 . S
Co196 O209 2.244 . S
O197 Co196 2.216 . S
O197 C204 1.247 . S
O198 Co196 2.091 . S
O198 C204 1.261 . S
C199 O208 1.247 . S
C199 O209 1.272 . S
O200 Co196 2.004 . S
O200 C205 1.259 . S
Co201 O202 2.061 . S
Co201 O207 2.052 . S
Co201 O209 2.135 . S
O202 Co201 2.061 . S
O202 C205 1.235 . S
C203 O206 1.238 . S
C203 O207 1.241 . S
C204 O197 1.247 . S
C204 O198 1.261 . S
C205 O200 1.259 . S
C205 O202 1.235 . S
O206 Co196 2.021 . S
O206 C203 1.238 . S
O207 Co201 2.052 . S
O207 C203 1.241 . S
O208 Co196 2.137 . S
O208 C199 1.247 . S
O209 Co196 2.244 . S
O209 C199 1.272 . S
O209 Co201 2.135 . S
Co210 O211 2.216 . S
Co210 O212 2.091 . S
Co210 O214 2.004 . S
Co210 O220 2.021 . S
Co210 O222 2.137 . S
Co210 O223 2.244 . S
O211 Co210 2.216 . S
O211 C218 1.247 . S
O212 Co210 2.091 . S
O212 C218 1.261 . S
C213 O222 1.247 . S
C213 O223 1.272 . S
O214 Co210 2.004 . S
O214 C219 1.259 . S
Co215 O216 2.061 . S
Co215 O221 2.052 . S
Co215 O223 2.135 . S
O216 Co215 2.061 . S
O216 C219 1.235 . S
C217 O220 1.238 . S
C217 O221 1.241 . S
C218 O211 1.247 . S
C218 O212 1.261 . S
C219 O214 1.259 . S
C219 O216 1.235 . S
O220 Co210 2.021 . S
O220 C217 1.238 . S
O221 Co215 2.052 . S
O221 C217 1.241 . S
O222 Co210 2.137 . S
O222 C213 1.247 . S
O223 Co210 2.244 . S
O223 C213 1.272 . S
O223 Co215 2.135 . S
H224 C230 0.930 . S
H225 C234 0.930 . S
H226 C239 0.929 . S
H227 C237 0.929 . S
H228 C232 0.929 . S
H229 C238 0.929 . S
C230 H224 0.930 . S
C230 C231 1.367 . S
C230 C238 1.378 . S
C231 C230 1.367 . S
C231 C239 1.433 . S
C232 H228 0.929 . S
C232 C234 1.378 . S
C232 C236 1.350 . S
C233 C236 1.463 . S
C233 C238 1.350 . S
C233 N241 1.427 . S
C234 H225 0.930 . S
C234 C232 1.378 . S
C234 C235 1.367 . S
C235 C234 1.367 . S
C235 C237 1.433 . S
C236 C232 1.350 . S
C236 C233 1.463 . S
C236 N240 1.427 . S
C237 H227 0.929 . S
C237 C235 1.433 . S
C237 N240 1.384 . S
C238 H229 0.929 . S
C238 C230 1.378 . S
C238 C233 1.350 . S
C239 H226 0.929 . S
C239 C231 1.433 . S
C239 N241 1.384 . S
N240 C236 1.427 . S
N240 C237 1.384 . S
N241 C233 1.427 . S
N241 C239 1.384 . S
H242 C248 0.930 . S
H243 C252 0.930 . S
H244 C257 0.929 . S
H245 C255 0.929 . S
H246 C250 0.929 . S
H247 C256 0.929 . S
C248 H242 0.930 . S
C248 C249 1.367 . S
C248 C256 1.378 . S
C249 C248 1.367 . S
C249 C257 1.433 . S
C250 H246 0.929 . S
C250 C252 1.378 . S
C250 C254 1.350 . S
C251 C254 1.463 . S
C251 C256 1.350 . S
C251 N259 1.427 . S
C252 H243 0.930 . S
C252 C250 1.378 . S
C252 C253 1.367 . S
C253 C252 1.367 . S
C253 C255 1.433 . S
C254 C250 1.350 . S
C254 C251 1.463 . S
C254 N258 1.427 . S
C255 H245 0.929 . S
C255 C253 1.433 . S
C255 N258 1.384 . S
C256 H247 0.929 . S
C256 C248 1.378 . S
C256 C251 1.350 . S
C257 H244 0.929 . S
C257 C249 1.433 . S
C257 N259 1.384 . S
N258 C254 1.427 . S
N258 C255 1.384 . S
N259 C251 1.427 . S
N259 C257 1.384 . S
H260 C266 0.930 . S
H261 C270 0.930 . S
H262 C275 0.929 . S
H263 C273 0.929 . S
H264 C268 0.929 . S
H265 C274 0.929 . S
C266 H260 0.930 . S
C266 C267 1.367 . S
C266 C274 1.378 . S
C267 C266 1.367 . S
C267 C275 1.433 . S
C268 H264 0.929 . S
C268 C270 1.378 . S
C268 C272 1.350 . S
C269 C272 1.463 . S
C269 C274 1.350 . S
C269 N277 1.427 . S
C270 H261 0.930 . S
C270 C268 1.378 . S
C270 C271 1.367 . S
C271 C270 1.367 . S
C271 C273 1.433 . S
C272 C268 1.350 . S
C272 C269 1.463 . S
C272 N276 1.427 . S
C273 H263 0.929 . S
C273 C271 1.433 . S
C273 N276 1.384 . S
C274 H265 0.929 . S
C274 C266 1.378 . S
C274 C269 1.350 . S
C275 H262 0.929 . S
C275 C267 1.433 . S
C275 N277 1.384 . S
N276 C272 1.427 . S
N276 C273 1.384 . S
N277 C269 1.427 . S
N277 C275 1.384 . S
H278 C284 0.930 . S
H279 C288 0.930 . S
H280 C293 0.929 . S
H281 C291 0.929 . S
H282 C286 0.929 . S
H283 C292 0.929 . S
C284 H278 0.930 . S
C284 C285 1.367 . S
C284 C292 1.378 . S
C285 C284 1.367 . S
C285 C293 1.433 . S
C286 H282 0.929 . S
C286 C288 1.378 . S
C286 C290 1.350 . S
C287 C290 1.463 . S
C287 C292 1.350 . S
C287 N295 1.427 . S
C288 H279 0.930 . S
C288 C286 1.378 . S
C288 C289 1.367 . S
C289 C288 1.367 . S
C289 C291 1.433 . S
C290 C286 1.350 . S
C290 C287 1.463 . S
C290 N294 1.427 . S
C291 H281 0.929 . S
C291 C289 1.433 . S
C291 N294 1.384 . S
C292 H283 0.929 . S
C292 C284 1.378 . S
C292 C287 1.350 . S
C293 H280 0.929 . S
C293 C285 1.433 . S
C293 N295 1.384 . S
N294 C290 1.427 . S
N294 C291 1.384 . S
N295 C287 1.427 . S
N295 C293 1.384 . S
H296 C302 0.930 . S
H297 C306 0.930 . S
H298 C311 0.929 . S
H299 C309 0.929 . S
H300 C304 0.929 . S
H301 C310 0.929 . S
C302 H296 0.930 . S
C302 C303 1.367 . S
C302 C310 1.378 . S
C303 C302 1.367 . S
C303 C311 1.433 . S
C304 H300 0.929 . S
C304 C306 1.378 . S
C304 C308 1.350 . S
C305 C308 1.463 . S
C305 C310 1.350 . S
C305 N313 1.427 . S
C306 H297 0.930 . S
C306 C304 1.378 . S
C306 C307 1.367 . S
C307 C306 1.367 . S
C307 C309 1.433 . S
C308 C304 1.350 . S
C308 C305 1.463 . S
C308 N312 1.427 . S
C309 H299 0.929 . S
C309 C307 1.433 . S
C309 N312 1.384 . S
C310 H301 0.929 . S
C310 C302 1.378 . S
C310 C305 1.350 . S
C311 H298 0.929 . S
C311 C303 1.433 . S
C311 N313 1.384 . S
N312 C308 1.427 . S
N312 C309 1.384 . S
N313 C305 1.427 . S
N313 C311 1.384 . S
H314 C320 0.930 . S
H315 C324 0.930 . S
H316 C329 0.929 . S
H317 C327 0.929 . S
H318 C322 0.929 . S
H319 C328 0.929 . S
C320 H314 0.930 . S
C320 C321 1.367 . S
C320 C328 1.378 . S
C321 C320 1.367 . S
C321 C329 1.433 . S
C322 H318 0.929 . S
C322 C324 1.378 . S
C322 C326 1.350 . S
C323 C326 1.463 . S
C323 C328 1.350 . S
C323 N331 1.427 . S
C324 H315 0.930 . S
C324 C322 1.378 . S
C324 C325 1.367 . S
C325 C324 1.367 . S
C325 C327 1.433 . S
C326 C322 1.350 . S
C326 C323 1.463 . S
C326 N330 1.427 . S
C327 H317 0.929 . S
C327 C325 1.433 . S
C327 N330 1.384 . S
C328 H319 0.929 . S
C328 C320 1.378 . S
C328 C323 1.350 . S
C329 H316 0.929 . S
C329 C321 1.433 . S
C329 N331 1.384 . S
N330 C326 1.427 . S
N330 C327 1.384 . S
N331 C323 1.427 . S
N331 C329 1.384 . S
H332 C338 0.930 . S
H333 C342 0.930 . S
H334 C347 0.929 . S
H335 C345 0.929 . S
H336 C340 0.929 . S
H337 C346 0.929 . S
C338 H332 0.930 . S
C338 C339 1.367 . S
C338 C346 1.378 . S
C339 C338 1.367 . S
C339 C347 1.433 . S
C340 H336 0.929 . S
C340 C342 1.378 . S
C340 C344 1.350 . S
C341 C344 1.463 . S
C341 C346 1.350 . S
C341 N349 1.427 . S
C342 H333 0.930 . S
C342 C340 1.378 . S
C342 C343 1.367 . S
C343 C342 1.367 . S
C343 C345 1.433 . S
C344 C340 1.350 . S
C344 C341 1.463 . S
C344 N348 1.427 . S
C345 H335 0.929 . S
C345 C343 1.433 . S
C345 N348 1.384 . S
C346 H337 0.929 . S
C346 C338 1.378 . S
C346 C341 1.350 . S
C347 H334 0.929 . S
C347 C339 1.433 . S
C347 N349 1.384 . S
N348 C344 1.427 . S
N348 C345 1.384 . S
N349 C341 1.427 . S
N349 C347 1.384 . S
H350 C356 0.930 . S
H351 C360 0.930 . S
H352 C365 0.929 . S
H353 C363 0.929 . S
H354 C358 0.929 . S
H355 C364 0.929 . S
C356 H350 0.930 . S
C356 C357 1.367 . S
C356 C364 1.378 . S
C357 C356 1.367 . S
C357 C365 1.433 . S
C358 H354 0.929 . S
C358 C360 1.378 . S
C358 C362 1.350 . S
C359 C362 1.463 . S
C359 C364 1.350 . S
C359 N367 1.427 . S
C360 H351 0.930 . S
C360 C358 1.378 . S
C360 C361 1.367 . S
C361 C360 1.367 . S
C361 C363 1.433 . S
C362 C358 1.350 . S
C362 C359 1.463 . S
C362 N366 1.427 . S
C363 H353 0.929 . S
C363 C361 1.433 . S
C363 N366 1.384 . S
C364 H355 0.929 . S
C364 C356 1.378 . S
C364 C359 1.350 . S
C365 H352 0.929 . S
C365 C357 1.433 . S
C365 N367 1.384 . S
N366 C362 1.427 . S
N366 C363 1.384 . S
N367 C359 1.427 . S
N367 C365 1.384 . S
H368 C374 0.930 . S
H369 C378 0.930 . S
H370 C383 0.929 . S
H371 C381 0.929 . S
H372 C376 0.929 . S
H373 C382 0.929 . S
C374 H368 0.930 . S
C374 C375 1.367 . S
C374 C382 1.378 . S
C375 C374 1.367 . S
C375 C383 1.433 . S
C376 H372 0.929 . S
C376 C378 1.378 . S
C376 C380 1.350 . S
C377 C380 1.463 . S
C377 C382 1.350 . S
C377 N385 1.427 . S
C378 H369 0.930 . S
C378 C376 1.378 . S
C378 C379 1.367 . S
C379 C378 1.367 . S
C379 C381 1.433 . S
C380 C376 1.350 . S
C380 C377 1.463 . S
C380 N384 1.427 . S
C381 H371 0.929 . S
C381 C379 1.433 . S
C381 N384 1.384 . S
C382 H373 0.929 . S
C382 C374 1.378 . S
C382 C377 1.350 . S
C383 H370 0.929 . S
C383 C375 1.433 . S
C383 N385 1.384 . S
N384 C380 1.427 . S
N384 C381 1.384 . S
N385 C377 1.427 . S
N385 C383 1.384 . S
H386 C392 0.930 . S
H387 C396 0.930 . S
H388 C401 0.929 . S
H389 C399 0.929 . S
H390 C394 0.929 . S
H391 C400 0.929 . S
C392 H386 0.930 . S
C392 C393 1.367 . S
C392 C400 1.378 . S
C393 C392 1.367 . S
C393 C401 1.433 . S
C394 H390 0.929 . S
C394 C396 1.378 . S
C394 C398 1.350 . S
C395 C398 1.463 . S
C395 C400 1.350 . S
C395 N403 1.427 . S
C396 H387 0.930 . S
C396 C394 1.378 . S
C396 C397 1.367 . S
C397 C396 1.367 . S
C397 C399 1.433 . S
C398 C394 1.350 . S
C398 C395 1.463 . S
C398 N402 1.427 . S
C399 H389 0.929 . S
C399 C397 1.433 . S
C399 N402 1.384 . S
C400 H391 0.929 . S
C400 C392 1.378 . S
C400 C395 1.350 . S
C401 H388 0.929 . S
C401 C393 1.433 . S
C401 N403 1.384 . S
N402 C398 1.427 . S
N402 C399 1.384 . S
N403 C395 1.427 . S
N403 C401 1.384 . S
H404 C410 0.930 . S
H405 C414 0.930 . S
H406 C419 0.929 . S
H407 C417 0.929 . S
H408 C412 0.929 . S
H409 C418 0.929 . S
C410 H404 0.930 . S
C410 C411 1.367 . S
C410 C418 1.378 . S
C411 C410 1.367 . S
C411 C419 1.433 . S
C412 H408 0.929 . S
C412 C414 1.378 . S
C412 C416 1.350 . S
C413 C416 1.463 . S
C413 C418 1.350 . S
C413 N421 1.427 . S
C414 H405 0.930 . S
C414 C412 1.378 . S
C414 C415 1.367 . S
C415 C414 1.367 . S
C415 C417 1.433 . S
C416 C412 1.350 . S
C416 C413 1.463 . S
C416 N420 1.427 . S
C417 H407 0.929 . S
C417 C415 1.433 . S
C417 N420 1.384 . S
C418 H409 0.929 . S
C418 C410 1.378 . S
C418 C413 1.350 . S
C419 H406 0.929 . S
C419 C411 1.433 . S
C419 N421 1.384 . S
N420 C416 1.427 . S
N420 C417 1.384 . S
N421 C413 1.427 . S
N421 C419 1.384 . S
H422 C428 0.930 . S
H423 C432 0.930 . S
H424 C437 0.929 . S
H425 C435 0.929 . S
H426 C430 0.929 . S
H427 C436 0.929 . S
C428 H422 0.930 . S
C428 C429 1.367 . S
C428 C436 1.378 . S
C429 C428 1.367 . S
C429 C437 1.433 . S
C430 H426 0.929 . S
C430 C432 1.378 . S
C430 C434 1.350 . S
C431 C434 1.463 1_554 S
C431 C436 1.350 . S
C431 N439 1.427 . S
C432 H423 0.930 . S
C432 C430 1.378 . S
C432 C433 1.367 . S
C433 C432 1.367 . S
C433 C435 1.433 . S
C434 C430 1.350 . S
C434 C431 1.463 1_556 S
C434 N438 1.427 . S
C435 H425 0.929 . S
C435 C433 1.433 . S
C435 N438 1.384 . S
C436 H427 0.929 . S
C436 C428 1.378 . S
C436 C431 1.350 . S
C437 H424 0.929 . S
C437 C429 1.433 . S
C437 N439 1.384 . S
N438 C434 1.427 . S
N438 C435 1.384 . S
N439 C431 1.427 . S
N439 C437 1.384 . S
H440 C446 0.930 . S
H441 C450 0.930 . S
H442 C455 0.929 . S
H443 C453 0.929 . S
H444 C448 0.929 . S
H445 C454 0.929 . S
C446 H440 0.930 . S
C446 C447 1.367 . S
C446 C454 1.378 . S
C447 C446 1.367 . S
C447 C455 1.433 . S
C448 H444 0.929 . S
C448 C450 1.378 . S
C448 C452 1.350 . S
C449 C452 1.463 1_554 S
C449 C454 1.350 . S
C449 N457 1.427 . S
C450 H441 0.930 . S
C450 C448 1.378 . S
C450 C451 1.367 . S
C451 C450 1.367 . S
C451 C453 1.433 . S
C452 C448 1.350 . S
C452 C449 1.463 1_556 S
C452 N456 1.427 . S
C453 H443 0.929 . S
C453 C451 1.433 . S
C453 N456 1.384 . S
C454 H445 0.929 . S
C454 C446 1.378 . S
C454 C449 1.350 . S
C455 H442 0.929 . S
C455 C447 1.433 . S
C455 N457 1.384 . S
N456 C452 1.427 . S
N456 C453 1.384 . S
N457 C449 1.427 . S
N457 C455 1.384 . S
H458 C464 0.930 . S
H459 C468 0.930 . S
H460 C473 0.929 . S
H461 C471 0.929 . S
H462 C466 0.929 . S
H463 C472 0.929 . S
C464 H458 0.930 . S
C464 C465 1.367 . S
C464 C472 1.378 . S
C465 C464 1.367 . S
C465 C473 1.433 . S
C466 H462 0.929 . S
C466 C468 1.378 . S
C466 C470 1.350 . S
C467 C470 1.463 . S
C467 C472 1.350 . S
C467 N475 1.427 . S
C468 H459 0.930 . S
C468 C466 1.378 . S
C468 C469 1.367 . S
C469 C468 1.367 . S
C469 C471 1.433 . S
C470 C466 1.350 . S
C470 C467 1.463 . S
C470 N474 1.427 . S
C471 H461 0.929 . S
C471 C469 1.433 . S
C471 N474 1.384 . S
C472 H463 0.929 . S
C472 C464 1.378 . S
C472 C467 1.350 . S
C473 H460 0.929 . S
C473 C465 1.433 . S
C473 N475 1.384 . S
N474 C470 1.427 . S
N474 C471 1.384 . S
N475 C467 1.427 . S
N475 C473 1.384 . S
H476 C482 0.930 . S
H477 C486 0.930 . S
H478 C491 0.929 . S
H479 C489 0.929 . S
H480 C484 0.929 . S
H481 C490 0.929 . S
C482 H476 0.930 . S
C482 C483 1.367 . S
C482 C490 1.378 . S
C483 C482 1.367 . S
C483 C491 1.433 . S
C484 H480 0.929 . S
C484 C486 1.378 . S
C484 C488 1.350 . S
C485 C488 1.463 . S
C485 C490 1.350 . S
C485 N493 1.427 . S
C486 H477 0.930 . S
C486 C484 1.378 . S
C486 C487 1.367 . S
C487 C486 1.367 . S
C487 C489 1.433 . S
C488 C484 1.350 . S
C488 C485 1.463 . S
C488 N492 1.427 . S
C489 H479 0.929 . S
C489 C487 1.433 . S
C489 N492 1.384 . S
C490 H481 0.929 . S
C490 C482 1.378 . S
C490 C485 1.350 . S
C491 H478 0.929 . S
C491 C483 1.433 . S
C491 N493 1.384 . S
N492 C488 1.427 . S
N492 C489 1.384 . S
N493 C485 1.427 . S
N493 C491 1.384 . S
H494 C500 0.930 . S
H495 C504 0.930 . S
H496 C509 0.929 . S
H497 C507 0.929 . S
H498 C502 0.929 . S
H499 C508 0.929 . S
C500 H494 0.930 . S
C500 C501 1.367 . S
C500 C508 1.378 . S
C501 C500 1.367 . S
C501 C509 1.433 . S
C502 H498 0.929 . S
C502 C504 1.378 . S
C502 C506 1.350 . S
C503 C506 1.463 . S
C503 C508 1.350 . S
C503 N511 1.427 . S
C504 H495 0.930 . S
C504 C502 1.378 . S
C504 C505 1.367 . S
C505 C504 1.367 . S
C505 C507 1.433 . S
C506 C502 1.350 . S
C506 C503 1.463 . S
C506 N510 1.427 . S
C507 H497 0.929 . S
C507 C505 1.433 . S
C507 N510 1.384 . S
C508 H499 0.929 . S
C508 C500 1.378 . S
C508 C503 1.350 . S
C509 H496 0.929 . S
C509 C501 1.433 . S
C509 N511 1.384 . S
N510 C506 1.427 . S
N510 C507 1.384 . S
N511 C503 1.427 . S
N511 C509 1.384 . S
H512 C518 0.930 . S
H513 C522 0.930 . S
H514 C527 0.929 . S
H515 C525 0.929 . S
H516 C520 0.929 . S
H517 C526 0.929 . S
C518 H512 0.930 . S
C518 C519 1.367 . S
C518 C526 1.378 . S
C519 C518 1.367 . S
C519 C527 1.433 . S
C520 H516 0.929 . S
C520 C522 1.378 . S
C520 C524 1.350 . S
C521 C524 1.463 1_445 S
C521 C526 1.350 . S
C521 N529 1.427 . S
C522 H513 0.930 . S
C522 C520 1.378 . S
C522 C523 1.367 . S
C523 C522 1.367 . S
C523 C525 1.433 . S
C524 C520 1.350 . S
C524 C521 1.463 1_665 S
C524 N528 1.427 . S
C525 H515 0.929 . S
C525 C523 1.433 . S
C525 N528 1.384 . S
C526 H517 0.929 . S
C526 C518 1.378 . S
C526 C521 1.350 . S
C527 H514 0.929 . S
C527 C519 1.433 . S
C527 N529 1.384 . S
N528 C524 1.427 . S
N528 C525 1.384 . S
N529 C521 1.427 . S
N529 C527 1.384 . S
H530 C536 0.930 . S
H531 C540 0.930 . S
H532 C545 0.929 . S
H533 C543 0.929 . S
H534 C538 0.929 . S
H535 C544 0.929 . S
C536 H530 0.930 . S
C536 C537 1.367 . S
C536 C544 1.378 . S
C537 C536 1.367 . S
C537 C545 1.433 . S
C538 H534 0.929 . S
C538 C540 1.378 . S
C538 C542 1.350 . S
C539 C542 1.463 1_455 S
C539 C544 1.350 . S
C539 N547 1.427 1_455 S
C540 H531 0.930 . S
C540 C538 1.378 . S
C540 C541 1.367 . S
C541 C540 1.367 . S
C541 C543 1.433 . S
C542 C538 1.350 . S
C542 C539 1.463 1_655 S
C542 N546 1.427 1_655 S
C543 H533 0.929 . S
C543 C541 1.433 . S
C543 N546 1.384 1_655 S
C544 H535 0.929 . S
C544 C536 1.378 . S
C544 C539 1.350 . S
C545 H532 0.929 . S
C545 C537 1.433 . S
C545 N547 1.384 1_455 S
N546 C542 1.427 1_455 S
N546 C543 1.384 1_455 S
N547 C539 1.427 1_655 S
N547 C545 1.384 1_655 S
H548 C554 0.930 . S
H549 C558 0.930 . S
H550 C563 0.929 . S
H551 C561 0.929 . S
H552 C556 0.929 . S
H553 C562 0.929 . S
C554 H548 0.930 . S
C554 C555 1.367 . S
C554 C562 1.378 . S
C555 C554 1.367 . S
C555 C563 1.433 . S
C556 H552 0.929 . S
C556 C558 1.378 . S
C556 C560 1.350 . S
C557 C560 1.463 . S
C557 C562 1.350 . S
C557 N565 1.427 . S
C558 H549 0.930 . S
C558 C556 1.378 . S
C558 C559 1.367 . S
C559 C558 1.367 . S
C559 C561 1.433 . S
C560 C556 1.350 . S
C560 C557 1.463 . S
C560 N564 1.427 . S
C561 H551 0.929 . S
C561 C559 1.433 . S
C561 N564 1.384 . S
C562 H553 0.929 . S
C562 C554 1.378 . S
C562 C557 1.350 . S
C563 H550 0.929 . S
C563 C555 1.433 . S
C563 N565 1.384 . S
N564 C560 1.427 . S
N564 C561 1.384 . S
N565 C557 1.427 . S
N565 C563 1.384 . S
H566 C572 0.930 . S
H567 C576 0.930 . S
H568 C581 0.929 . S
H569 C579 0.929 . S
H570 C574 0.929 . S
H571 C580 0.929 . S
C572 H566 0.930 . S
C572 C573 1.367 . S
C572 C580 1.378 . S
C573 C572 1.367 . S
C573 C581 1.433 . S
C574 H570 0.929 . S
C574 C576 1.378 . S
C574 C578 1.350 . S
C575 C578 1.463 1_545 S
C575 C580 1.350 . S
C575 N583 1.427 . S
C576 H567 0.930 . S
C576 C574 1.378 . S
C576 C577 1.367 . S
C577 C576 1.367 . S
C577 C579 1.433 . S
C578 C574 1.350 . S
C578 C575 1.463 1_565 S
C578 N582 1.427 . S
C579 H569 0.929 . S
C579 C577 1.433 . S
C579 N582 1.384 . S
C580 H571 0.929 . S
C580 C572 1.378 . S
C580 C575 1.350 . S
C581 H568 0.929 . S
C581 C573 1.433 . S
C581 N583 1.384 . S
N582 C578 1.427 . S
N582 C579 1.384 . S
N583 C575 1.427 . S
N583 C581 1.384 . S
H584 C590 0.930 . S
H585 C594 0.930 . S
H586 C599 0.929 . S
H587 C597 0.929 . S
H588 C592 0.929 . S
H589 C598 0.929 . S
C590 H584 0.930 . S
C590 C591 1.367 . S
C590 C598 1.378 . S
C591 C590 1.367 . S
C591 C599 1.433 . S
C592 H588 0.929 . S
C592 C594 1.378 . S
C592 C596 1.350 . S
C593 C596 1.463 1_455 S
C593 C598 1.350 . S
C593 N601 1.427 . S
C594 H585 0.930 . S
C594 C592 1.378 . S
C594 C595 1.367 . S
C595 C594 1.367 . S
C595 C597 1.433 . S
C596 C592 1.350 . S
C596 C593 1.463 1_655 S
C596 N600 1.427 . S
C597 H587 0.929 . S
C597 C595 1.433 . S
C597 N600 1.384 . S
C598 H589 0.929 . S
C598 C590 1.378 . S
C598 C593 1.350 . S
C599 H586 0.929 . S
C599 C591 1.433 . S
C599 N601 1.384 . S
N600 C596 1.427 . S
N600 C597 1.384 . S
N601 C593 1.427 . S
N601 C599 1.384 . S
H602 C608 0.930 . S
H603 C612 0.930 . S
H604 C617 0.929 . S
H605 C615 0.929 . S
H606 C610 0.929 . S
H607 C616 0.929 . S
C608 H602 0.930 . S
C608 C609 1.367 . S
C608 C616 1.378 . S
C609 C608 1.367 . S
C609 C617 1.433 . S
C610 H606 0.929 . S
C610 C612 1.378 . S
C610 C614 1.350 . S
C611 C614 1.463 . S
C611 C616 1.350 . S
C611 N619 1.427 . S
C612 H603 0.930 . S
C612 C610 1.378 . S
C612 C613 1.367 . S
C613 C612 1.367 . S
C613 C615 1.433 . S
C614 C610 1.350 . S
C614 C611 1.463 . S
C614 N618 1.427 . S
C615 H605 0.929 . S
C615 C613 1.433 . S
C615 N618 1.384 . S
C616 H607 0.929 . S
C616 C608 1.378 . S
C616 C611 1.350 . S
C617 H604 0.929 . S
C617 C609 1.433 . S
C617 N619 1.384 . S
N618 C614 1.427 . S
N618 C615 1.384 . S
N619 C611 1.427 . S
N619 C617 1.384 . S
H620 C626 0.930 . S
H621 C630 0.930 . S
H622 C635 0.929 . S
H623 C633 0.929 . S
H624 C628 0.929 . S
H625 C634 0.929 . S
C626 H620 0.930 . S
C626 C627 1.367 . S
C626 C634 1.378 . S
C627 C626 1.367 . S
C627 C635 1.433 . S
C628 H624 0.929 . S
C628 C630 1.378 . S
C628 C632 1.350 . S
C629 C632 1.463 1_565 S
C629 C634 1.350 . S
C629 N637 1.427 . S
C630 H621 0.930 . S
C630 C628 1.378 . S
C630 C631 1.367 . S
C631 C630 1.367 . S
C631 C633 1.433 . S
C632 C628 1.350 . S
C632 C629 1.463 1_545 S
C632 N636 1.427 . S
C633 H623 0.929 . S
C633 C631 1.433 . S
C633 N636 1.384 . S
C634 H625 0.929 . S
C634 C626 1.378 . S
C634 C629 1.350 . S
C635 H622 0.929 . S
C635 C627 1.433 . S
C635 N637 1.384 . S
N636 C632 1.427 . S
N636 C633 1.384 . S
N637 C629 1.427 . S
N637 C635 1.384 . S
H638 C644 0.930 . S
H639 C648 0.930 . S
H640 C653 0.929 . S
H641 C651 0.929 . S
H642 C646 0.929 . S
H643 C652 0.929 . S
C644 H638 0.930 . S
C644 C645 1.367 . S
C644 C652 1.378 . S
C645 C644 1.367 . S
C645 C653 1.433 . S
C646 H642 0.929 . S
C646 C648 1.378 . S
C646 C650 1.350 . S
C647 C650 1.463 1_445 S
C647 C652 1.350 . S
C647 N655 1.427 . S
C648 H639 0.930 . S
C648 C646 1.378 . S
C648 C649 1.367 . S
C649 C648 1.367 . S
C649 C651 1.433 . S
C650 C646 1.350 . S
C650 C647 1.463 1_665 S
C650 N654 1.427 . S
C651 H641 0.929 . S
C651 C649 1.433 . S
C651 N654 1.384 . S
C652 H643 0.929 . S
C652 C644 1.378 . S
C652 C647 1.350 . S
C653 H640 0.929 . S
C653 C645 1.433 . S
C653 N655 1.384 . S
N654 C650 1.427 . S
N654 C651 1.384 . S
N655 C647 1.427 . S
N655 C653 1.384 . S
H656 C662 0.930 . S
H657 C666 0.930 . S
H658 C671 0.929 . S
H659 C669 0.929 . S
H660 C664 0.929 . S
H661 C670 0.929 . S
C662 H656 0.930 . S
C662 C663 1.367 . S
C662 C670 1.378 . S
C663 C662 1.367 . S
C663 C671 1.433 . S
C664 H660 0.929 . S
C664 C666 1.378 . S
C664 C668 1.350 . S
C665 C668 1.463 1_565 S
C665 C670 1.350 . S
C665 N673 1.429 . S
C666 H657 0.930 . S
C666 C664 1.378 . S
C666 C667 1.367 . S
C667 C666 1.367 . S
C667 C669 1.433 . S
C668 C664 1.350 . S
C668 C665 1.463 1_545 S
C668 N672 1.430 . S
C669 H659 0.929 . S
C669 C667 1.433 . S
C669 N672 1.388 . S
C670 H661 0.929 . S
C670 C662 1.378 . S
C670 C665 1.350 . S
C671 H658 0.929 . S
C671 C663 1.433 . S
C671 N673 1.387 . S
N672 C668 1.430 . S
N672 C669 1.388 . S
N673 C665 1.429 . S
N673 C671 1.387 . S
H674 C680 0.930 . S
H675 C684 0.930 . S
H676 C689 0.929 1_455 S
H677 C687 0.929 1_655 S
H678 C682 0.929 1_565 S
H679 C688 0.929 1_545 S
C680 H674 0.930 . S
C680 C681 1.367 . S
C680 C688 1.378 . S
C681 C680 1.367 . S
C681 C689 1.433 . S
C682 H678 0.929 1_545 S
C682 C684 1.378 . S
C682 C686 1.350 . S
C683 C686 1.463 1_665 S
C683 C688 1.350 . S
C683 N691 1.427 1_655 S
C684 H675 0.930 . S
C684 C682 1.378 . S
C684 C685 1.367 . S
C685 C684 1.367 . S
C685 C687 1.433 . S
C686 C682 1.350 . S
C686 C683 1.463 1_445 S
C686 N690 1.427 1_455 S
C687 H677 0.929 1_455 S
C687 C685 1.433 . S
C687 N690 1.384 1_455 S
C688 H679 0.929 1_565 S
C688 C680 1.378 . S
C688 C683 1.350 . S
C689 H676 0.929 1_655 S
C689 C681 1.433 . S
C689 N691 1.384 1_655 S
N690 C686 1.427 1_655 S
N690 C687 1.384 1_655 S
N691 C683 1.427 1_455 S
N691 C689 1.384 1_455 S
H692 C698 0.930 . S
H693 C702 0.930 . S
H694 C707 0.929 . S
H695 C705 0.929 . S
H696 C700 0.929 . S
H697 C706 0.929 . S
C698 H692 0.930 . S
C698 C699 1.367 . S
C698 C706 1.378 . S
C699 C698 1.367 . S
C699 C707 1.433 . S
C700 H696 0.929 . S
C700 C702 1.378 . S
C700 C704 1.350 . S
C701 C704 1.463 1_455 S
C701 C706 1.350 . S
C701 N709 1.427 . S
C702 H693 0.930 . S
C702 C700 1.378 . S
C702 C703 1.367 . S
C703 C702 1.367 . S
C703 C705 1.433 . S
C704 C700 1.350 . S
C704 C701 1.463 1_655 S
C704 N708 1.427 . S
C705 H695 0.929 . S
C705 C703 1.433 . S
C705 N708 1.384 . S
C706 H697 0.929 . S
C706 C698 1.378 . S
C706 C701 1.350 . S
C707 H694 0.929 . S
C707 C699 1.433 . S
C707 N709 1.384 . S
N708 C704 1.427 . S
N708 C705 1.384 . S
N709 C701 1.427 . S
N709 C707 1.384 . S
H710 C716 0.930 . S
H711 C720 0.930 . S
H712 C725 0.929 . S
H713 C723 0.929 . S
H714 C718 0.929 . S
H715 C724 0.929 . S
C716 H710 0.930 . S
C716 C717 1.367 . S
C716 C724 1.378 . S
C717 C716 1.367 . S
C717 C725 1.433 . S
C718 H714 0.929 . S
C718 C720 1.378 . S
C718 C722 1.350 . S
C719 C722 1.463 . S
C719 C724 1.350 . S
C719 N727 1.427 . S
C720 H711 0.930 . S
C720 C718 1.378 . S
C720 C721 1.367 . S
C721 C720 1.367 . S
C721 C723 1.433 . S
C722 C718 1.350 . S
C722 C719 1.463 . S
C722 N726 1.427 . S
C723 H713 0.929 . S
C723 C721 1.433 . S
C723 N726 1.384 . S
C724 H715 0.929 . S
C724 C716 1.378 . S
C724 C719 1.350 . S
C725 H712 0.929 . S
C725 C717 1.433 . S
C725 N727 1.384 . S
N726 C722 1.427 . S
N726 C723 1.384 . S
N727 C719 1.427 . S
N727 C725 1.384 . S
H728 C734 0.930 . S
H729 C738 0.930 . S
H730 C743 0.929 . S
H731 C741 0.929 . S
H732 C736 0.929 . S
H733 C742 0.929 . S
C734 H728 0.930 . S
C734 C735 1.367 . S
C734 C742 1.378 . S
C735 C734 1.367 . S
C735 C743 1.433 . S
C736 H732 0.929 . S
C736 C738 1.378 . S
C736 C740 1.350 . S
C737 C740 1.463 . S
C737 C742 1.350 . S
C737 N745 1.427 . S
C738 H729 0.930 . S
C738 C736 1.378 . S
C738 C739 1.367 . S
C739 C738 1.367 . S
C739 C741 1.433 . S
C740 C736 1.350 . S
C740 C737 1.463 . S
C740 N744 1.427 . S
C741 H731 0.929 . S
C741 C739 1.433 . S
C741 N744 1.384 . S
C742 H733 0.929 . S
C742 C734 1.378 . S
C742 C737 1.350 . S
C743 H730 0.929 . S
C743 C735 1.433 . S
C743 N745 1.384 . S
N744 C740 1.427 . S
N744 C741 1.384 . S
N745 C737 1.427 . S
N745 C743 1.384 . S
H746 C752 0.930 . S
H747 C756 0.930 . S
H748 C761 0.929 . S
H749 C759 0.929 . S
H750 C754 0.929 . S
H751 C760 0.929 . S
C752 H746 0.930 . S
C752 C753 1.367 . S
C752 C760 1.378 . S
C753 C752 1.367 . S
C753 C761 1.433 . S
C754 H750 0.929 . S
C754 C756 1.378 . S
C754 C758 1.350 . S
C755 C758 1.463 1_545 S
C755 C760 1.350 . S
C755 N763 1.427 . S
C756 H747 0.930 . S
C756 C754 1.378 . S
C756 C757 1.367 . S
C757 C756 1.367 . S
C757 C759 1.433 . S
C758 C754 1.350 . S
C758 C755 1.463 1_565 S
C758 N762 1.427 . S
C759 H749 0.929 . S
C759 C757 1.433 . S
C759 N762 1.384 . S
C760 H751 0.929 . S
C760 C752 1.378 . S
C760 C755 1.350 . S
C761 H748 0.929 . S
C761 C753 1.433 . S
C761 N763 1.384 . S
N762 C758 1.427 . S
N762 C759 1.384 . S
N763 C755 1.427 . S
N763 C761 1.384 . S
H764 C770 0.930 . S
H765 C774 0.930 . S
H766 C779 0.929 . S
H767 C777 0.929 . S
H768 C772 0.929 . S
H769 C778 0.929 . S
C770 H764 0.930 . S
C770 C771 1.367 . S
C770 C778 1.378 . S
C771 C770 1.367 . S
C771 C779 1.433 . S
C772 H768 0.929 . S
C772 C774 1.378 . S
C772 C776 1.350 . S
C773 C776 1.463 1_665 S
C773 C778 1.350 . S
C773 N781 1.427 . S
C774 H765 0.930 . S
C774 C772 1.378 . S
C774 C775 1.367 . S
C775 C774 1.367 . S
C775 C777 1.433 . S
C776 C772 1.350 . S
C776 C773 1.463 1_445 S
C776 N780 1.427 . S
C777 H767 0.929 . S
C777 C775 1.433 . S
C777 N780 1.384 . S
C778 H769 0.929 . S
C778 C770 1.378 . S
C778 C773 1.350 . S
C779 H766 0.929 . S
C779 C771 1.433 . S
C779 N781 1.384 . S
N780 C776 1.427 . S
N780 C777 1.384 . S
N781 C773 1.427 . S
N781 C779 1.384 . S
H782 C788 0.930 . S
H783 C792 0.930 . S
H784 C797 0.929 . S
H785 C795 0.929 . S
H786 C790 0.929 . S
H787 C796 0.929 . S
C788 H782 0.930 . S
C788 C789 1.367 . S
C788 C796 1.378 . S
C789 C788 1.367 . S
C789 C797 1.433 . S
C790 H786 0.929 . S
C790 C792 1.378 . S
C790 C794 1.350 . S
C791 C794 1.463 1_655 S
C791 C796 1.350 . S
C791 N799 1.427 1_655 S
C792 H783 0.930 . S
C792 C790 1.378 . S
C792 C793 1.367 . S
C793 C792 1.367 . S
C793 C795 1.433 . S
C794 C790 1.350 . S
C794 C791 1.463 1_455 S
C794 N798 1.427 1_455 S
C795 H785 0.929 . S
C795 C793 1.433 . S
C795 N798 1.384 1_455 S
C796 H787 0.929 . S
C796 C788 1.378 . S
C796 C791 1.350 . S
C797 H784 0.929 . S
C797 C789 1.433 . S
C797 N799 1.384 1_655 S
N798 C794 1.427 1_655 S
N798 C795 1.384 1_655 S
N799 C791 1.427 1_455 S
N799 C797 1.384 1_455 S
C231 C63 1.353 . S
C235 C7 1.346 . S
C249 C21 1.349 . S
C253 C77 1.343 . S
C267 C91 1.353 . S
C271 C35 1.346 . S
C285 C105 1.348 . S
C289 C49 1.344 . S
C303 C175 1.344 . S
C307 C119 1.350 . S
C321 C133 1.350 . S
C325 C189 1.343 . S
C339 C203 1.343 . S
C343 C147 1.351 . S
C357 C161 1.347 . S
C361 C217 1.352 . S
C375 C3 1.413 . S
C379 C213 1.418 . S
C393 C17 1.416 . S
C397 C171 1.414 . S
C411 C31 1.419 . S
C415 C185 1.413 . S
C429 C199 1.417 . S
C433 C45 1.413 . S
C447 C59 1.416 . S
C451 C129 1.419 . S
C465 C73 1.416 . S
C469 C143 1.419 . S
C483 C157 1.415 . S
C487 C87 1.415 . S
C501 C115 1.419 . S
C505 C101 1.413 . S
C519 C8 1.621 . S
C523 C148 1.620 . S
C537 C162 1.622 . S
C541 C22 1.623 . S
C555 C36 1.623 . S
C559 C120 1.623 . S
C573 C134 1.618 . S
C577 C50 1.618 . S
C591 C64 1.619 . S
C595 C204 1.618 . S
C609 C78 1.620 . S
C613 C218 1.619 . S
C627 C176 1.622 . S
C631 C92 1.621 . S
C645 C190 1.620 . S
C649 C106 1.622 . S
C663 C149 1.380 . S
C667 C9 1.376 . S
C681 C23 1.377 . S
C685 C163 1.376 . S
C699 C37 1.377 . S
C703 C121 1.382 . S
C717 C135 1.378 . S
C721 C51 1.376 . S
C735 C205 1.380 . S
C739 C65 1.384 . S
C753 C219 1.379 . S
C757 C79 1.376 . S
C771 C177 1.381 . S
C775 C93 1.376 . S
C789 C107 1.378 . S
C793 C191 1.376 . S
