# Generated by pormake.
# Topology wjk, (5)-cn, num edge types: 1
# Building blocks:
#     Node 0, Type 0, BuildingBlock: XOMCOT_clean_sbu_0, # of connection points: 5
#     Node 1, Type 0, BuildingBlock: XOMCOT_clean_sbu_0, # of connection points: 5
#     Node 2, Type 0, BuildingBlock: XOMCOT_clean_sbu_0, # of connection points: 5
#     Node 3, Type 0, BuildingBlock: XOMCOT_clean_sbu_0, # of connection points: 5
#     Node 4, Type 0, BuildingBlock: XOMCOT_clean_sbu_0, # of connection points: 5
#     Node 5, Type 0, BuildingBlock: XOMCOT_clean_sbu_0, # of connection points: 5
#     Node 6, Type 0, BuildingBlock: XOMCOT_clean_sbu_0, # of connection points: 5
#     Node 7, Type 0, BuildingBlock: XOMCOT_clean_sbu_0, # of connection points: 5
#     Node 8, Type 0, BuildingBlock: XOMCOT_clean_sbu_0, # of connection points: 5
#     Node 9, Type 0, BuildingBlock: XOMCOT_clean_sbu_0, # of connection points: 5
#     Node 10, Type 0, BuildingBlock: XOMCOT_clean_sbu_0, # of connection points: 5
#     Node 11, Type 0, BuildingBlock: XOMCOT_clean_sbu_0, # of connection points: 5
#     Edge 12, Type (0, 0), BuildingBlock: AJUNOK_clean_linker_0, # of connection points: 2
#     Edge 13, Type (0, 0), BuildingBlock: AJUNOK_clean_linker_0, # of connection points: 2
#     Edge 14, Type (0, 0), BuildingBlock: AJUNOK_clean_linker_0, # of connection points: 2
#     Edge 15, Type (0, 0), BuildingBlock: AJUNOK_clean_linker_0, # of connection points: 2
#     Edge 16, Type (0, 0), BuildingBlock: AJUNOK_clean_linker_0, # of connection points: 2
#     Edge 17, Type (0, 0), BuildingBlock: AJUNOK_clean_linker_0, # of connection points: 2
#     Edge 18, Type (0, 0), BuildingBlock: AJUNOK_clean_linker_0, # of connection points: 2
#     Edge 19, Type (0, 0), BuildingBlock: AJUNOK_clean_linker_0, # of connection points: 2
#     Edge 20, Type (0, 0), BuildingBlock: AJUNOK_clean_linker_0, # of connection points: 2
#     Edge 21, Type (0, 0), BuildingBlock: AJUNOK_clean_linker_0, # of connection points: 2
#     Edge 22, Type (0, 0), BuildingBlock: AJUNOK_clean_linker_0, # of connection points: 2
#     Edge 23, Type (0, 0), BuildingBlock: AJUNOK_clean_linker_0, # of connection points: 2
#     Edge 24, Type (0, 0), BuildingBlock: AJUNOK_clean_linker_0, # of connection points: 2
#     Edge 25, Type (0, 0), BuildingBlock: AJUNOK_clean_linker_0, # of connection points: 2
#     Edge 26, Type (0, 0), BuildingBlock: AJUNOK_clean_linker_0, # of connection points: 2
#     Edge 27, Type (0, 0), BuildingBlock: AJUNOK_clean_linker_0, # of connection points: 2
#     Edge 28, Type (0, 0), BuildingBlock: AJUNOK_clean_linker_0, # of connection points: 2
#     Edge 29, Type (0, 0), BuildingBlock: AJUNOK_clean_linker_0, # of connection points: 2
#     Edge 30, Type (0, 0), BuildingBlock: AJUNOK_clean_linker_0, # of connection points: 2
#     Edge 31, Type (0, 0), BuildingBlock: AJUNOK_clean_linker_0, # of connection points: 2
#     Edge 32, Type (0, 0), BuildingBlock: AJUNOK_clean_linker_0, # of connection points: 2
#     Edge 33, Type (0, 0), BuildingBlock: AJUNOK_clean_linker_0, # of connection points: 2
#     Edge 34, Type (0, 0), BuildingBlock: AJUNOK_clean_linker_0, # of connection points: 2
#     Edge 35, Type (0, 0), BuildingBlock: AJUNOK_clean_linker_0, # of connection points: 2
#     Edge 36, Type (0, 0), BuildingBlock: AJUNOK_clean_linker_0, # of connection points: 2
#     Edge 37, Type (0, 0), BuildingBlock: AJUNOK_clean_linker_0, # of connection points: 2
#     Edge 38, Type (0, 0), BuildingBlock: AJUNOK_clean_linker_0, # of connection points: 2
#     Edge 39, Type (0, 0), BuildingBlock: AJUNOK_clean_linker_0, # of connection points: 2
#     Edge 40, Type (0, 0), BuildingBlock: AJUNOK_clean_linker_0, # of connection points: 2
#     Edge 41, Type (0, 0), BuildingBlock: AJUNOK_clean_linker_0, # of connection points: 2
# Relax obj value: 0.598
# Max RMSD: 0.268
# Mean RMSD: 0.268
data_MOF--net-wjk--node1-XOMCOT_clean_sbu_0--edge1-AJUNOK_clean_linker_0
_symmetry_space_group_name_H-M    P1
_symmetry_Int_Tables_number       1
_symmetry_cell_setting            triclinic
loop_
_symmetry_equiv_pos_as_xyz
'x, y, z'
_cell_length_a     24.821377
_cell_length_b     24.360866
_cell_length_c     48.690817
_cell_angle_alpha  89.655049
_cell_angle_beta   91.118211
_cell_angle_gamma 119.26728
loop_
_atom_site_label
_atom_site_type_symbol
_atom_site_fract_x
_atom_site_fract_y
_atom_site_fract_z
_atom_type_partial_charge
Co0 Co 0.26884 0.33858 0.27214 0.0
C1 C 0.38639 0.44173 0.29079 0.0
C2 C 0.33599 0.47854 0.26866 0.0
C3 C 0.39786 0.52462 0.27054 0.0
N4 N 0.32873 0.42587 0.28126 0.0
N5 N 0.42928 0.50057 0.28421 0.0
H6 H 0.39944 0.40902 0.2995 0.0
H7 H 0.30095 0.48104 0.25603 0.0
C8 C 0.14726 0.32581 0.25844 0.0
O9 O 0.13307 0.29618 0.28204 0.0
N10 N 0.21513 0.25218 0.26174 0.0
C11 C 0.19557 0.23067 0.23591 0.0
C12 C 0.15613 0.16697 0.23685 0.0
C13 C 0.18805 0.20136 0.27792 0.0
N14 N 0.15223 0.14924 0.26326 0.0
C15 C 0.35348 0.32701 0.2388 0.0
C16 C 0.33961 0.38488 0.19219 0.0
C17 C 0.37772 0.35737 0.19144 0.0
C18 C 0.38668 0.33127 0.2158 0.0
C19 C 0.30866 0.38179 0.2164 0.0
N20 N 0.31377 0.35028 0.23879 0.0
H21 H 0.35832 0.30255 0.25633 0.0
H22 H 0.27891 0.40246 0.21656 0.0
H23 H 0.20666 0.25959 0.21774 0.0
H24 H 0.19025 0.20232 0.30011 0.0
O25 O 0.3139 0.31076 0.29661 0.0
O26 O 0.23734 0.32455 0.30977 0.0
O27 O 0.20508 0.35706 0.25232 0.0
C28 C 0.27961 0.3097 0.31646 0.0
H29 H 0.41891 0.56953 0.26012 0.0
H30 H 0.12944 0.13674 0.21988 0.0
H31 H 0.33082 0.40481 0.17384 0.0
H32 H 0.41472 0.30854 0.2168 0.0
Co33 Co 0.94283 0.2381 0.63411 0.0
C34 C 0.92828 0.34637 0.64891 0.0
C35 C 0.86476 0.29299 0.61693 0.0
C36 C 0.87841 0.35504 0.61471 0.0
N37 N 0.89961 0.28775 0.63727 0.0
N38 N 0.92185 0.38972 0.63382 0.0
H39 H 0.96424 0.36086 0.66446 0.0
H40 H 0.83825 0.257 0.60198 0.0
C41 C 0.84752 0.14684 0.58931 0.0
O42 O 0.86051 0.19221 0.57157 0.0
N43 N 0.99021 0.19523 0.63114 0.0
C44 C 0.0525 0.22421 0.63067 0.0
C45 C 0.07028 0.1812 0.62351 0.0
C46 C 0.97088 0.13504 0.62431 0.0
N47 N 1.01885 0.12558 0.61912 0.0
C48 C 1.01599 0.34654 0.60276 0.0
C49 C 1.03297 0.28597 0.55915 0.0
C50 C 0.07263 0.35052 0.56321 0.0
C51 C 0.06014 0.38167 0.58371 0.0
C52 C 0.98807 0.2525 0.57849 0.0
N53 N 0.98087 0.28262 0.60052 0.0
H54 H 1.0181 0.37059 0.62133 0.0
H55 H 0.96541 0.20184 0.57755 0.0
H56 H 0.08299 0.274 0.63391 0.0
H57 H 0.92294 0.09944 0.62196 0.0
O58 O 1.0065 0.29504 0.65946 0.0
O59 O 0.92297 0.20881 0.67208 0.0
O60 O 0.86914 0.16082 0.61424 0.0
C61 C 0.97568 0.25731 0.67914 0.0
H62 H 0.86338 0.37407 0.59797 0.0
H63 H 0.1173 0.19037 0.62155 0.0
H64 H 0.04296 0.25998 0.54396 0.0
H65 H 0.0917 0.43096 0.58802 0.0
Co66 Co 0.75646 0.95107 0.95629 0.0
C67 C 0.63408 0.92695 0.9735 0.0
C68 C 0.62625 0.87139 0.93847 0.0
C69 C 0.57602 0.88138 0.93882 0.0
N70 N 0.6655 0.90369 0.95928 0.0
N71 N 0.58309 0.92023 0.95991 0.0
H72 H 0.65444 0.9604 0.99011 0.0
H73 H 0.63701 0.85003 0.9217 0.0
C74 C 0.75547 0.86307 0.90862 0.0
O75 O 0.72622 0.88243 0.89188 0.0
N76 N 0.84454 1.00152 0.95418 0.0
C77 C 0.8758 0.06504 0.95481 0.0
C78 C 0.93755 0.08505 0.95269 0.0
C79 C 0.88737 0.98343 0.95183 0.0
N80 N 0.94434 0.03371 0.95092 0.0
C81 C 0.71575 1.02489 0.92664 0.0
C82 C 0.80702 0.06708 0.88834 0.0
C83 C 0.77981 0.10376 0.8951 0.0
C84 C 0.72854 0.07819 0.91169 0.0
C85 C 0.79093 1.01196 0.90306 0.0
N86 N 0.74897 0.99416 0.92365 0.0
H87 H 0.68761 1.01729 0.94397 0.0
H88 H 0.81967 0.99035 0.901 0.0
H89 H 0.85491 0.09472 0.9564 0.0
H90 H 0.87748 0.93497 0.95125 0.0
O91 O 0.76072 1.01185 0.98312 0.0
O92 O 0.76635 0.92676 0.99385 0.0
O93 O 0.76276 0.88025 0.93422 0.0
C94 C 0.76856 0.97874 1.00212 0.0
H95 H 0.54148 0.86784 0.92255 0.0
H96 H 0.97457 0.13335 0.95232 0.0
H97 H 0.84746 0.08608 0.8756 0.0
H98 H 0.70729 0.10597 0.91759 0.0
Co99 Co 0.8446 0.75435 0.30808 0.0
C100 C 0.73332 0.62838 0.30743 0.0
C101 C 0.78557 0.64263 0.27123 0.0
C102 C 0.72562 0.59589 0.26616 0.0
N103 N 0.79019 0.66598 0.29676 0.0
N104 N 0.69197 0.58849 0.28866 0.0
H105 H 0.71898 0.63675 0.32702 0.0
H106 H 0.82048 0.66254 0.25591 0.0
C107 C 0.92907 0.77342 0.25753 0.0
O108 O 0.88504 0.76915 0.24083 0.0
N109 N 0.89493 0.84054 0.32037 0.0
C110 C 0.87356 0.8758 0.33246 0.0
C111 C 0.91874 0.93764 0.33208 0.0
C112 C 0.95337 0.88135 0.3136 0.0
N113 N 0.9682 0.9408 0.31977 0.0
C114 C 0.74515 0.75732 0.28038 0.0
C115 C 0.81365 0.87869 0.26223 0.0
C116 C 0.75112 0.85537 0.26818 0.0
C117 C 0.71588 0.79237 0.27514 0.0
C118 C 0.84148 0.84194 0.26813 0.0
N119 N 0.80803 0.78362 0.27957 0.0
H120 H 0.71716 0.71262 0.28938 0.0
H121 H 0.891 0.86364 0.26656 0.0
H122 H 0.82642 0.85914 0.33849 0.0
H123 H 0.98176 0.86965 0.30116 0.0
O124 O 0.78636 0.74533 0.3356 0.0
O125 O 0.86406 0.72796 0.34385 0.0
O126 O 0.91823 0.76415 0.28366 0.0
C127 C 0.81763 0.73271 0.35357 0.0
H128 H 0.70686 0.57533 0.24621 0.0
H129 H 0.91333 0.97768 0.33754 0.0
H130 H 0.8416 0.92636 0.25506 0.0
H131 H 0.66712 0.77186 0.27937 0.0
Co132 Co 0.09192 0.78521 0.60754 0.0
C133 C 0.1183 0.69107 0.63313 0.0
C134 C 0.1734 0.73079 0.59774 0.0
C135 C 0.16589 0.67124 0.60226 0.0
N136 N 0.14006 0.74204 0.61615 0.0
N137 N 0.12738 0.6443 0.6235 0.0
H138 H 0.0847 0.68163 0.64873 0.0
H139 H 0.19235 0.7582 0.5794 0.0
C140 C 0.1839 0.87505 0.56307 0.0
O141 O 0.16607 0.82964 0.54488 0.0
N142 N 0.04167 0.82371 0.6002 0.0
C143 C 0.97958 0.79287 0.5973 0.0
C144 C 0.95987 0.83606 0.59393 0.0
C145 C 0.05897 0.88513 0.59904 0.0
N146 N 1.00981 0.89379 0.59499 0.0
C147 C 1.03388 0.67049 0.57705 0.0
C148 C 0.98193 0.71331 0.53838 0.0
C149 C 0.95036 0.65016 0.54671 0.0
C150 C 0.98282 0.62746 0.56203 0.0
C151 C 1.03669 0.75503 0.55235 0.0
N152 N 0.05743 0.73398 0.57407 0.0
H153 H 0.04445 0.65138 0.59455 0.0
H154 H 0.05452 0.80487 0.54919 0.0
H155 H 0.95065 0.74247 0.59823 0.0
H156 H 0.1057 0.92248 0.60288 0.0
O157 O 1.02801 0.72971 0.63267 0.0
O158 O 0.10856 0.82051 0.64463 0.0
O159 O 0.16448 0.86145 0.58798 0.0
C160 C 0.05727 0.77132 0.65185 0.0
H161 H 0.18039 0.6467 0.58834 0.0
H162 H 0.91249 0.82623 0.59197 0.0
H163 H 0.95902 0.73235 0.5255 0.0
H164 H 0.96005 0.57867 0.56846 0.0
Co165 Co 0.35545 0.10079 0.95385 0.0
C166 C 0.47392 0.11648 0.9746 0.0
C167 C 0.48776 0.18122 0.94228 0.0
C168 C 0.53699 0.16957 0.94335 0.0
N169 N 0.44563 0.14473 0.96082 0.0
N170 N 0.5263 0.12541 0.96261 0.0
H171 H 0.45074 0.0791 0.98921 0.0
H172 H 0.47953 0.20672 0.9261 0.0
C173 C 0.362 0.20234 0.9114 0.0
O174 O 0.39375 0.19006 0.8936 0.0
N175 N 0.26799 0.05378 0.94756 0.0
C176 C 0.23488 0.99136 0.94264 0.0
C177 C 0.17359 0.97477 0.94053 0.0
C178 C 0.22702 0.07442 0.94865 0.0
N179 N 0.16902 1.02696 0.94459 0.0
C180 C 0.39946 0.03511 0.92138 0.0
C181 C 0.32037 1.01345 0.87746 0.0
C182 C 0.34642 0.97433 0.8819 0.0
C183 C 0.39295 0.9915 0.90169 0.0
C184 C 0.3305 0.05917 0.89703 0.0
N185 N 0.36688 0.06689 0.91969 0.0
H186 H 0.4225 0.03426 0.93994 0.0
H187 H 0.30163 0.08089 0.896 0.0
H188 H 0.25409 0.96012 0.94099 0.0
H189 H 0.23935 0.12291 0.95248 0.0
O190 O 0.34546 0.03264 0.97834 0.0
O191 O 0.34179 0.11756 0.99119 0.0
O192 O 0.35338 0.1778 0.93563 0.0
C193 C 0.33744 0.06375 0.99797 0.0
H194 H 0.57359 0.18634 0.92855 0.0
H195 H 0.13522 0.92783 0.93718 0.0
H196 H 0.28362 1.00121 0.86232 0.0
H197 H 0.41315 0.96154 0.90581 0.0
Co198 Co 0.73979 0.78607 0.50954 0.0
C199 C 0.62692 0.68864 0.48188 0.0
C200 C 0.60378 0.73671 0.51209 0.0
C201 C 0.55245 0.67865 0.50637 0.0
N202 N 0.65191 0.74185 0.49771 0.0
N203 N 0.56808 0.64701 0.48829 0.0
H204 H 0.65377 0.67415 0.46983 0.0
H205 H 0.60779 0.76757 0.52881 0.0
C206 C 0.72962 0.87915 0.55041 0.0
O207 O 0.70193 0.83493 0.56878 0.0
N208 N 0.82634 0.82647 0.51945 0.0
C209 C 0.85886 0.79699 0.52605 0.0
C210 C 0.92054 0.84016 0.52626 0.0
C211 C 0.8687 0.88669 0.5149 0.0
N212 N 0.92653 0.89609 0.51874 0.0
C213 C 0.6751 0.6758 0.54394 0.0
C214 C 0.77024 0.71687 0.58154 0.0
C215 C 0.73725 0.65294 0.57421 0.0
C216 C 0.68152 0.63223 0.56016 0.0
C217 C 0.75948 0.75956 0.5663 0.0
N218 N 0.71892 0.73833 0.54439 0.0
H219 H 0.6409 0.6556 0.52825 0.0
H220 H 0.79178 0.80918 0.56883 0.0
H221 H 0.83921 0.74694 0.52908 0.0
H222 H 0.8577 0.92136 0.5065 0.0
O223 O 0.75478 0.72866 0.48719 0.0
O224 O 0.76221 0.81798 0.47237 0.0
O225 O 0.7376 0.86381 0.52604 0.0
C226 C 0.76759 0.76852 0.46715 0.0
H227 H 0.50971 0.65834 0.51752 0.0
H228 H 0.95819 0.8306 0.53022 0.0
H229 H 0.81157 0.73479 0.59433 0.0
H230 H 0.65229 0.58259 0.55564 0.0
Co231 Co 0.96119 0.72188 0.8127 0.0
C232 C 0.9401 0.59538 0.79957 0.0
C233 C 0.89335 0.59478 0.83586 0.0
C234 C 0.90808 0.54701 0.83738 0.0
N235 N 0.91749 0.62877 0.81296 0.0
N236 N 0.9411 0.54964 0.81522 0.0
H237 H 0.96838 0.61288 0.78165 0.0
H238 H 0.87593 0.60952 0.85271 0.0
C239 C 0.88282 0.72881 0.86227 0.0
O240 O 0.90684 0.70578 0.88008 0.0
N241 N 1.00853 0.81237 0.81199 0.0
C242 C 0.06998 0.84548 0.80784 0.0
C243 C 0.09037 0.90763 0.8135 0.0
C244 C 0.99219 0.85484 0.81986 0.0
N245 N 1.0415 0.91299 0.82138 0.0
C246 C 0.04467 0.69188 0.84019 0.0
C247 C 0.08581 0.78626 0.87872 0.0
C248 C 0.12191 0.75847 0.87234 0.0
C249 C 0.09768 0.70636 0.85524 0.0
C250 C 1.0307 0.76788 0.86408 0.0
N251 N 1.01219 0.72316 0.84391 0.0
H252 H 1.03759 0.66372 0.82244 0.0
H253 H 1.00844 0.79611 0.86626 0.0
H254 H 0.09868 0.82548 0.8023 0.0
H255 H 0.94611 0.84354 0.82563 0.0
O256 O 1.01492 0.72239 0.78417 0.0
O257 O 0.92751 0.72278 0.77591 0.0
O258 O 0.895 0.72974 0.83639 0.0
C259 C 0.97733 0.72538 0.76616 0.0
H260 H 0.90305 0.51901 0.85549 0.0
H261 H 0.13741 0.9457 0.81214 0.0
H262 H 0.10432 0.82791 0.89161 0.0
H263 H 0.12559 0.68543 0.84936 0.0
Co264 Co 0.26077 0.96114 0.15753 0.0
C265 C 0.37433 0.95215 0.1534 0.0
C266 C 0.32839 0.90973 0.19065 0.0
C267 C 0.38953 0.92361 0.19297 0.0
N268 N 0.3193 0.93038 0.16615 0.0
N269 N 0.41909 0.95292 0.16984 0.0
H270 H 0.38525 0.97716 0.13419 0.0
H271 H 0.29586 0.8933 0.20714 0.0
C272 C 0.17934 0.89247 0.20757 0.0
O273 O 0.22389 0.93259 0.22381 0.0
N274 N 0.20492 0.99223 0.14707 0.0
C275 C 0.21949 0.04698 0.13419 0.0
C276 C 0.1673 0.05247 0.13139 0.0
C277 C 0.14389 0.96462 0.15118 0.0
N278 N 0.12033 1.00087 0.14232 0.0
C279 C 0.3584 0.05846 0.18696 0.0
C280 C 0.28915 0.11716 0.19 0.0
C281 C 0.34874 0.15057 0.1788 0.0
C282 C 0.38529 0.12149 0.17964 0.0
C283 C 0.26359 0.05259 0.19498 0.0
N284 N 0.29549 1.02267 0.18765 0.0
H285 H 0.38762 0.03772 0.18647 0.0
H286 H 0.21475 1.02581 0.19907 0.0
H287 H 0.26538 0.08235 0.12853 0.0
H288 H 0.11725 0.92034 0.16134 0.0
O289 O 0.31673 1.01724 0.13108 0.0
O290 O 0.24375 0.92178 0.12043 0.0
O291 O 0.1901 0.89244 0.18155 0.0
C292 C 0.28788 0.97633 0.11198 0.0
H293 H 0.41146 0.91801 0.21137 0.0
H294 H 0.1648 0.09299 0.12372 0.0
H295 H 0.26048 0.13889 0.19244 0.0
H296 H 0.43242 0.14435 0.17286 0.0
Co297 Co 0.32526 0.23096 0.47488 0.0
C298 C 0.44827 0.33993 0.46523 0.0
C299 C 0.45199 0.28427 0.49837 0.0
C300 C 0.49962 0.34529 0.50164 0.0
N301 N 0.41663 0.28118 0.47641 0.0
N302 N 0.49531 0.38135 0.48153 0.0
H303 H 0.43005 0.35618 0.44871 0.0
H304 H 0.44003 0.24754 0.51327 0.0
C305 C 0.323 0.14099 0.52224 0.0
O306 O 0.348 0.18742 0.54006 0.0
N307 N 0.23604 0.18639 0.47286 0.0
C308 C 0.20046 0.21368 0.469 0.0
C309 C 0.14005 0.16983 0.47342 0.0
C310 C 0.19672 0.12618 0.47932 0.0
N311 N 0.13796 0.11507 0.48 0.0
C312 C 0.34965 0.33861 0.50604 0.0
C313 C 0.25853 0.27701 0.54373 0.0
C314 C 0.28395 0.34195 0.54003 0.0
C315 C 0.33344 0.3735 0.5228 0.0
C316 C 0.2772 0.24374 0.52687 0.0
N317 N 0.32094 0.27435 0.50746 0.0
H318 H 0.37793 0.36372 0.48922 0.0
H319 H 0.25092 0.19306 0.52721 0.0
H320 H 0.21752 0.26303 0.46488 0.0
H321 H 0.21088 0.09237 0.48534 0.0
O322 O 0.32269 0.28909 0.44839 0.0
O323 O 0.32671 0.2036 0.43721 0.0
O324 O 0.32067 0.15375 0.49649 0.0
C325 C 0.32199 0.25235 0.42912 0.0
H326 H 0.53025 0.36304 0.51942 0.0
H327 H 0.10101 0.17816 0.47291 0.0
H328 H 0.21856 0.25123 0.55651 0.0
H329 H 0.35211 0.42335 0.51886 0.0
Co330 Co 0.12362 0.33097 0.83397 0.0
C331 C 0.14296 0.44837 0.80828 0.0
C332 C 0.20223 0.46727 0.84339 0.0
C333 C 0.19061 0.51694 0.83946 0.0
N334 N 0.16878 0.42164 0.82487 0.0
N335 N 0.1502 0.50344 0.81817 0.0
H336 H 0.10829 0.42261 0.79276 0.0
H337 H 0.22339 0.46033 0.8617 0.0
C338 C 0.22519 0.33698 0.87571 0.0
O339 O 0.21333 0.36798 0.89442 0.0
N340 N 0.0756 0.24293 0.84208 0.0
C341 C 1.0147 0.21256 0.8474 0.0
C342 C 0.9953 0.14982 0.85038 0.0
C343 C 0.09247 0.19839 0.8414 0.0
N344 N 0.04422 0.14119 0.84661 0.0
C345 C 0.06857 0.3872 0.86591 0.0
C346 C 1.03341 0.30026 0.90725 0.0
C347 C 0.99777 0.32913 0.90069 0.0
C348 C 1.02284 0.38105 0.88353 0.0
C349 C 0.08313 0.31192 0.89063 0.0
N350 N 0.09542 0.34986 0.86815 0.0
H351 H 0.07228 0.41303 0.84773 0.0
H352 H 0.10288 0.28119 0.89275 0.0
H353 H 0.98624 0.23456 0.84846 0.0
H354 H 0.13778 0.20699 0.83556 0.0
O355 O 0.05484 0.31975 0.81019 0.0
O356 O 0.13426 0.30982 0.79681 0.0
O357 O 0.19989 0.32887 0.85155 0.0
C358 C 0.08154 0.30661 0.79052 0.0
H359 H 0.20295 0.55486 0.85402 0.0
H360 H 0.94849 0.11297 0.85389 0.0
H361 H 1.01633 0.26059 0.92115 0.0
H362 H 0.99716 0.40533 0.87854 0.0
Co363 Co 0.81638 0.11671 0.15869 0.0
C364 C 0.71165 0.12463 0.1389 0.0
C365 C 0.77138 0.2063 0.16236 0.0
C366 C 0.71113 0.19418 0.16506 0.0
N367 N 0.77165 0.1603 0.14714 0.0
N368 N 0.67327 0.14102 0.15108 0.0
H369 H 0.6939 0.0796 0.12884 0.0
H370 H 0.80988 0.23923 0.175 0.0
C371 C 0.94275 0.21988 0.17547 0.0
O372 O 0.95962 0.21093 0.15128 0.0
N373 N 0.85484 0.06853 0.17139 0.0
C374 C 0.83593 1.02557 0.19183 0.0
C375 C 0.87059 0.99583 0.19185 0.0
C376 C 0.90124 0.06461 0.15956 0.0
N377 N 0.9117 1.02066 0.1716 0.0
C378 C 0.70733 0.03337 0.18689 0.0
C379 C 0.73861 0.09428 0.23686 0.0
C380 C 0.69243 1.03067 0.23579 0.0
C381 C 0.67109 1.00457 0.20944 0.0
C382 C 0.77384 0.12186 0.21365 0.0
N383 N 0.76169 0.08816 0.18986 0.0
H384 H 0.69369 1.00873 0.16753 0.0
H385 H 0.81165 0.16914 0.21534 0.0
H386 H 0.79864 1.01451 0.20566 0.0
H387 H 0.92655 0.0928 0.14226 0.0
O388 O 0.76783 0.04832 0.13279 0.0
O389 O 0.8558 0.13108 0.12262 0.0
O390 O 0.88447 0.19197 0.18076 0.0
C391 C 0.80949 0.07765 0.1146 0.0
H392 H 0.69614 0.21833 0.17895 0.0
H393 H 0.86433 0.9575 0.20512 0.0
H394 H 0.75149 0.12098 0.25577 0.0
H395 H 0.63208 0.95816 0.20617 0.0
C396 C 0.59961 0.59775 0.30149 0.0
C397 C 0.62544 0.56401 0.28873 0.0
C398 C 0.53594 0.5781 0.29927 0.0
C399 C 0.49527 0.52338 0.28466 0.0
H400 H 0.62875 0.64045 0.31288 0.0
H401 H 0.51818 0.60526 0.30939 0.0
S402 S 0.53784 0.4169 0.24835 0.0
N403 N 0.60396 0.47231 0.26146 0.0
N404 N 0.48499 0.43537 0.25756 0.0
C405 C 0.52014 0.48886 0.27217 0.0
C406 C 0.58485 0.50912 0.27415 0.0
C407 C 0.05409 0.5528 0.65166 0.0
C408 C 0.08044 0.57792 0.62597 0.0
C409 C 1.00166 0.49234 0.65405 0.0
C410 C 0.9715 0.45467 0.63079 0.0
H411 H 0.07395 0.5806 0.67011 0.0
H412 H 0.98424 0.47493 0.67431 0.0
S413 S 1.02156 0.49703 0.55852 0.0
N414 N 0.07212 0.55811 0.57668 0.0
N415 N 0.97358 0.44715 0.58104 0.0
C416 C 0.99733 0.47921 0.60495 0.0
C417 C 0.05167 0.53975 0.6026 0.0
C418 C 0.54707 0.04562 0.98584 0.0
C419 C 0.54466 0.07678 0.96168 0.0
C420 C 0.55752 0.99347 0.9851 0.0
C421 C 0.56432 0.9686 0.9601 0.0
H422 H 0.54076 0.06182 1.00556 0.0
H423 H 0.5605 0.97239 1.0043 0.0
S424 S 0.56102 0.03184 0.89064 0.0
N425 N 0.54952 0.07755 0.91179 0.0
N426 N 0.56861 0.98074 0.91039 0.0
C427 C 0.56144 0.99905 0.93574 0.0
C428 C 0.55193 0.05266 0.93653 0.0
C429 C 0.54784 0.55124 0.46162 0.0
C430 C 0.54328 0.57894 0.48627 0.0
C431 C 0.53268 0.48719 0.46019 0.0
C432 C 0.51418 0.44821 0.48357 0.0
H433 H 0.56398 0.57973 0.4433 0.0
H434 H 0.53625 0.46812 0.44071 0.0
S435 S 0.49349 0.49636 0.55319 0.0
N436 N 0.51738 0.56069 0.53461 0.0
N437 N 0.48994 0.44202 0.53202 0.0
C438 C 0.50895 0.47514 0.5083 0.0
C439 C 0.52316 0.5398 0.50963 0.0
C440 C 1.02443 0.53886 0.84001 0.0
C441 C 0.99167 0.53489 0.81536 0.0
C442 C 0.07775 0.5323 0.84049 0.0
C443 C 0.10133 0.52062 0.81638 0.0
H444 H 1.00976 0.54873 0.85926 0.0
H445 H 0.09939 0.53434 0.86024 0.0
S446 S 1.03414 0.50667 0.74621 0.0
N447 N 0.98793 0.51935 0.76599 0.0
N448 N 0.08757 0.50638 0.7669 0.0
C449 C 0.06937 0.51685 0.79152 0.0
C450 C 1.01506 0.52412 0.79101 0.0
C451 C 0.50978 1.00891 0.13979 0.0
C452 C 0.48457 0.99691 0.1663 0.0
C453 C 0.57038 0.05723 0.13492 0.0
C454 C 0.60879 0.09647 0.15625 0.0
H455 H 0.48203 0.98084 0.12253 0.0
H456 H 0.58758 0.06395 0.11421 0.0
S457 S 0.56702 0.08416 0.22977 0.0
N458 N 0.50413 1.02891 0.21437 0.0
N459 N 0.61803 0.11775 0.20534 0.0
C460 C 0.58472 0.08459 0.18297 0.0
C461 C 0.52288 0.03534 0.18796 0.0
C462 C 0.28286 0.30165 0.39455 0.0
C463 C 0.31085 0.2642 0.40002 0.0
C464 C 0.2713 0.3146 0.36758 0.0
C465 C 0.28838 0.29177 0.34484 0.0
H466 H 0.26929 0.32103 0.41132 0.0
H467 H 0.2501 0.34396 0.36456 0.0
S468 S 0.36121 0.18992 0.34763 0.0
N469 N 0.35333 0.20268 0.38021 0.0
N470 N 0.33327 0.22825 0.32952 0.0
C471 C 0.31593 0.2538 0.34993 0.0
C472 C 0.32665 0.23963 0.37747 0.0
C473 C 0.96459 0.25103 0.73071 0.0
C474 C 1.00235 0.26813 0.70753 0.0
C475 C 0.99048 0.26393 0.75753 0.0
C476 C 0.0549 0.29259 0.76212 0.0
H477 H 0.91488 0.22885 0.72812 0.0
H478 H 0.9598 0.25088 0.7748 0.0
S479 S 0.17369 0.34471 0.70837 0.0
N480 N 0.1075 0.31489 0.69106 0.0
N481 N 0.1555 0.33697 0.74112 0.0
C482 C 0.09288 0.30871 0.73911 0.0
C483 C 0.06678 0.29706 0.71192 0.0
C484 C 0.82335 0.09157 0.06344 0.0
C485 C 0.80297 0.05144 0.0863 0.0
C486 C 0.81218 0.06732 1.03645 0.0
C487 C 0.78172 1.00194 1.03115 0.0
H488 H 0.84626 0.1421 0.06635 0.0
H489 H 0.82757 0.10028 1.01952 0.0
S490 S 0.72276 0.87675 0.08395 0.0
N491 N 0.75245 0.94287 0.10187 0.0
N492 N 0.73373 0.89772 1.05132 0.0
C493 C 0.76317 0.96137 1.05387 0.0
C494 C 0.77313 0.986 0.08135 0.0
C495 C 0.74355 0.7556 0.417 0.0
C496 C 0.78042 0.755 0.43901 0.0
C497 C 0.75445 0.7446 0.38998 0.0
C498 C 0.80387 0.73393 0.38339 0.0
H499 H 0.7057 0.76472 0.42069 0.0
H500 H 0.72444 0.74642 0.37398 0.0
S501 S 0.91453 0.72793 0.43407 0.0
N502 N 0.86771 0.74162 0.45297 0.0
N503 N 0.88986 0.72299 0.4019 0.0
C504 C 0.8408 0.7323 0.4054 0.0
C505 C 0.82871 0.74237 0.43322 0.0
C506 C 0.07765 0.78407 0.70278 0.0
C507 C 1.03504 0.76087 0.68067 0.0
C508 C 0.05811 0.77179 0.73015 0.0
C509 C 0.99498 0.73726 0.73669 0.0
H510 H 0.12671 0.81068 0.69894 0.0
H511 H 0.093 0.79007 0.7464 0.0
S512 S 0.86445 0.66822 0.68636 0.0
N513 N 0.92648 0.70216 0.66715 0.0
N514 N 0.88984 0.68136 0.71859 0.0
C515 C 0.95172 0.7151 0.71481 0.0
C516 C 0.97173 0.72622 0.68684 0.0
C517 C 0.29125 0.97581 1.03293 0.0
C518 C 0.32626 0.04055 1.02679 0.0
C519 C 0.27864 0.95435 0.06039 0.0
C520 C 0.30212 0.99681 0.08265 0.0
H521 H 0.27221 0.94165 1.01638 0.0
H522 H 0.25041 0.90443 0.06416 0.0
S523 S 0.40001 0.17128 0.07715 0.0
N524 N 0.38546 0.14629 1.04506 0.0
N525 N 0.36468 0.10743 0.09605 0.0
C526 C 0.33879 0.06168 0.07647 0.0
C527 C 0.35009 0.08315 1.04874 0.0
C528 C 0.12179 0.05881 0.29338 0.0
C529 C 0.1055 0.09303 0.275 0.0
C530 C 0.07648 1.00901 0.30831 0.0
C531 C 1.01442 0.99407 0.30579 0.0
H532 H 0.16982 0.07138 0.29638 0.0
H533 H 0.08974 0.98248 0.32212 0.0
S534 S 0.94924 0.06975 0.25981 0.0
N535 N 1.02429 0.10882 0.25458 0.0
N536 N 0.93881 1.01551 0.28284 0.0
C537 C 0.99784 1.02787 0.28725 0.0
C538 C 0.04362 0.07751 0.27178 0.0
C539 C 0.96745 1.0107 0.62083 0.0
C540 C 1.01498 0.06756 0.61071 0.0
C541 C 0.96453 0.95368 0.61455 0.0
C542 C 1.00924 0.95168 0.59805 0.0
H543 H 0.9336 1.01045 0.63459 0.0
H544 H 0.92873 0.9112 0.62375 0.0
S545 S 0.13804 0.08587 0.56328 0.0
N546 N 0.10385 0.11772 0.58081 0.0
N547 N 0.09885 1.00961 0.56955 0.0
C548 C 0.05539 1.00758 0.58671 0.0
C549 C 0.05819 0.06586 0.59292 0.0
C550 C 0.06351 0.99372 0.92806 0.0
C551 C 0.1132 1.03011 0.94608 0.0
C552 C 1.00803 0.99499 0.92971 0.0
C553 C 1.00114 0.03291 0.94932 0.0
H554 H 0.06783 0.96453 0.91253 0.0
H555 H 0.97052 0.9668 0.91548 0.0
S556 S 0.115 0.13225 1.00265 0.0
N557 N 0.15043 0.10168 0.98522 0.0
N558 N 0.04616 0.1048 0.98787 0.0
C559 C 0.05006 0.06901 0.96753 0.0
C560 C 0.10626 0.06745 0.96602 0.0
C561 C 0.99038 1.01069 0.5159 0.0
C562 C 0.98186 0.95051 0.51033 0.0
C563 C 1.04147 0.06434 0.50586 0.0
C564 C 0.08557 0.05941 0.48989 0.0
H565 H 0.95715 1.01609 0.52805 0.0
H566 H 0.04691 0.10999 0.51095 0.0
S567 S 0.08214 0.9121 0.46825 0.0
N568 N 1.02013 0.88862 0.48706 0.0
N569 N 0.11635 0.98968 0.46822 0.0
C570 C 0.07756 0.99944 0.48423 0.0
C571 C 1.02562 0.94486 0.49446 0.0
C572 C 0.99205 0.97843 0.82163 0.0
C573 C 1.04135 0.96895 0.82981 0.0
C574 C 0.99239 0.0342 0.82803 0.0
C575 C 0.04206 0.08213 0.84283 0.0
H576 H 0.95402 0.94339 0.80936 0.0
H577 H 0.95475 0.04088 0.8204 0.0
S578 S 0.17771 0.07652 0.87251 0.0
N579 N 0.13783 1.00881 0.85606 0.0
N580 N 0.13859 0.11467 0.86788 0.0
C581 C 0.09031 0.07223 0.85225 0.0
C582 C 0.08994 1.01526 0.84579 0.0
C583 C 0.97709 1.01264 0.13656 0.0
C584 C 0.95795 1.00494 0.16399 0.0
C585 C 1.0287 1.00801 0.12928 0.0
C586 C 0.06186 0.99419 0.14907 0.0
H587 H 0.95326 1.02442 0.12074 0.0
H588 H 0.04415 1.01728 0.10826 0.0
S589 S 1.02781 0.96351 0.22311 0.0
N590 N 0.97412 0.97869 0.21072 0.0
N591 N 0.07053 0.96843 0.19668 0.0
C592 C 1.041 0.98201 0.17618 0.0
C593 C 0.98894 0.98759 0.18374 0.0
C594 C 0.05611 0.28951 0.18945 0.0
C595 C 0.99321 0.25525 0.1971 0.0
C596 C 0.10551 0.31565 0.20905 0.0
C597 C 0.09497 0.30892 0.23754 0.0
H598 H 0.06774 0.29461 0.16792 0.0
H599 H 0.15242 0.33881 0.20173 0.0
S600 S 0.93937 0.22639 0.26906 0.0
N601 N 0.92424 0.21859 0.23573 0.0
N602 N 1.01531 0.26746 0.27224 0.0
C603 C 1.03218 0.27691 0.24549 0.0
C604 C 0.98203 0.25034 0.2255 0.0
C605 C 0.78589 1.02714 0.59695 0.0
C606 C 0.81457 0.07875 0.57893 0.0
C607 C 0.75738 0.9638 0.58743 0.0
C608 C 0.75657 0.94791 0.55934 0.0
H609 H 0.78552 0.03563 0.61873 0.0
H610 H 0.73673 0.92679 0.60254 0.0
S611 S 0.82806 0.06471 0.50345 0.0
N612 N 0.8414 0.1084 0.53122 0.0
N613 N 0.78929 0.99098 0.51381 0.0
C614 C 0.78552 0.99909 0.54114 0.0
C615 C 0.81391 0.0636 0.55075 0.0
C616 C 0.8438 0.76818 0.9021 0.0
C617 C 0.84647 0.75974 0.87338 0.0
C618 C 0.81419 0.80025 0.91332 0.0
C619 C 0.78466 0.82564 0.8966 0.0
H620 H 0.86594 0.75074 0.91633 0.0
H621 H 0.81502 0.8056 0.93541 0.0
S622 S 0.77757 0.81744 0.81995 0.0
N623 N 0.81603 0.78043 0.82859 0.0
N624 N 0.76086 0.8395 0.84909 0.0
C625 C 0.7865 0.81703 0.8678 0.0
C626 C 0.81701 0.78468 0.85642 0.0
C627 C 0.10702 0.85728 0.24865 0.0
C628 C 0.11521 0.85326 0.22005 0.0
C629 C 0.04793 0.82854 0.26094 0.0
C630 C 0.9928 0.79499 0.24533 0.0
H631 H 0.14686 0.88445 0.26189 0.0
H632 H 0.0457 0.83493 0.28276 0.0
S633 S 0.98665 0.76259 0.17026 0.0
N634 N 0.06126 0.80563 0.17723 0.0
N635 N 0.9514 0.75502 0.19959 0.0
C636 C 1.00028 0.78817 0.21691 0.0
C637 C 0.06065 0.8162 0.20453 0.0
C638 C 0.23491 0.95767 0.5252 0.0
C639 C 0.22289 0.94327 0.5535 0.0
C640 C 0.26754 1.02054 0.51528 0.0
C641 C 0.29083 0.07322 0.53303 0.0
H642 H 0.21792 0.91986 0.51026 0.0
H643 H 0.27406 1.02777 0.49336 0.0
S644 S 0.27113 0.06303 0.60903 0.0
N645 N 0.2369 0.98881 0.59899 0.0
N646 N 0.29757 0.10521 0.58088 0.0
C647 C 0.27927 0.05944 0.56143 0.0
C648 C 0.24572 0.99544 0.57146 0.0
C649 C 0.30925 0.26854 0.92075 0.0
C650 C 0.3299 0.23927 0.90194 0.0
C651 C 0.27756 0.30115 0.91203 0.0
C652 C 0.26342 0.30554 0.88398 0.0
H653 H 0.31757 0.26627 0.94254 0.0
H654 H 0.26285 0.32209 0.92768 0.0
S655 S 0.30344 0.23402 0.82615 0.0
N656 N 0.3316 0.21578 0.85354 0.0
N657 N 0.27192 0.27529 0.83755 0.0
C658 C 0.28322 0.27587 0.86499 0.0
C659 C 0.31627 0.24344 0.87381 0.0
C660 C 0.33853 0.29011 0.15214 0.0
C661 C 0.39206 0.33744 0.16508 0.0
C662 C 0.32618 0.22769 0.15416 0.0
C663 C 0.37028 0.21375 0.16623 0.0
H664 H 0.3002 0.29818 0.14724 0.0
H665 H 0.28001 0.19056 0.149 0.0
S666 S 0.53529 0.3317 0.17932 0.0
N667 N 0.50106 0.37372 0.17211 0.0
N668 N 0.48086 0.25733 0.1766 0.0
C669 C 0.43161 0.26398 0.16872 0.0
C670 C 0.44292 0.32712 0.16602 0.0
C671 C 0.17969 0.38387 0.57681 0.0
C672 C 0.13699 0.37573 0.5555 0.0
C673 C 0.23247 0.37972 0.57148 0.0
C674 C 0.24439 0.36936 0.5447 0.0
H675 H 0.1685 0.38537 0.5981 0.0
H676 H 0.26071 0.37871 0.58852 0.0
S677 S 0.1539 0.35806 0.48143 0.0
N678 N 0.11451 0.3661 0.50657 0.0
N679 N 0.21575 0.36097 0.49616 0.0
C680 C 0.20665 0.36981 0.52285 0.0
C681 C 0.15223 0.37256 0.52836 0.0
C682 C 0.9006 0.2565 0.92387 0.0
C683 C 0.93008 0.28856 0.90003 0.0
C684 C 0.84568 0.19938 0.92201 0.0
C685 C 0.81986 0.17214 0.89624 0.0
H686 H 0.92331 0.27217 0.94376 0.0
H687 H 0.8273 0.17313 0.94075 0.0
S688 S 0.87053 0.24447 0.82815 0.0
N689 N 0.92173 0.29573 0.85008 0.0
N690 N 0.82053 0.18567 0.847 0.0
C691 C 0.84427 0.20718 0.87255 0.0
C692 C 0.89895 0.26648 0.87438 0.0
C693 C 0.66458 0.87843 0.25815 0.0
C694 C 0.7239 0.89739 0.26913 0.0
C695 C 0.6436 0.92206 0.25494 0.0
C696 C 0.68475 0.98689 0.25911 0.0
H697 H 0.63587 0.8311 0.25036 0.0
H698 H 0.59935 0.90637 0.24471 0.0
S699 S 0.82289 0.04775 0.30558 0.0
N700 N 0.80679 0.97534 0.29791 0.0
N701 N 0.76982 0.05859 0.28938 0.0
C702 C 0.73563 1.00174 0.27696 0.0
C703 C 0.75586 0.95694 0.28152 0.0
C704 C 0.81393 0.6202 0.58803 0.0
C705 C 0.77425 0.62223 0.56776 0.0
C706 C 0.86769 0.6196 0.58069 0.0
C707 C 0.88426 0.62304 0.55285 0.0
H708 H 0.80697 0.62612 0.60948 0.0
H709 H 0.89996 0.62452 0.59707 0.0
S710 S 0.78758 0.61054 0.49217 0.0
N711 N 0.74758 0.61155 0.51865 0.0
N712 N 0.85131 0.61477 0.50531 0.0
C713 C 0.84107 0.61603 0.53255 0.0
C714 C 0.78511 0.61432 0.53994 0.0
C715 C 0.2773 0.87029 0.90101 0.0
C716 C 0.30535 0.9068 0.87751 0.0
C717 C 0.21919 0.81701 0.89916 0.0
C718 C 0.189 0.79784 0.8737 0.0
H719 H 0.29636 0.88729 0.92138 0.0
H720 H 0.19556 0.7943 0.91783 0.0
S721 S 0.24915 0.86871 0.80569 0.0
N722 N 0.30348 0.91467 0.82795 0.0
N723 N 0.19501 0.81205 0.82403 0.0
C724 C 0.22042 0.82853 0.8497 0.0
C725 C 0.27882 0.88371 0.8517 0.0
loop_
_geom_bond_atom_site_label_1
_geom_bond_atom_site_label_2
_geom_bond_distance
_geom_bond_site_symmetry_2
_ccdc_geom_bond_type
Co0 N4 2.148 . S
Co0 N10 2.128 . S
Co0 N20 2.194 . S
Co0 O25 2.351 . S
Co0 O26 2.155 . S
Co0 O27 2.096 . S
C1 N4 1.301 . S
C1 N5 1.328 . S
C1 H6 0.930 . S
C2 C3 1.333 . S
C2 N4 1.317 . S
C2 H7 0.930 . S
C3 C2 1.333 . S
C3 N5 1.350 . S
C3 H29 0.931 . S
N4 Co0 2.148 . S
N4 C1 1.301 . S
N4 C2 1.317 . S
N5 C1 1.328 . S
N5 C3 1.350 . S
H6 C1 0.930 . S
H7 C2 0.930 . S
C8 O9 1.224 . S
C8 O27 1.247 . S
O9 C8 1.224 . S
N10 Co0 2.128 . S
N10 C11 1.355 . S
N10 C13 1.311 . S
C11 N10 1.355 . S
C11 C12 1.363 . S
C11 H23 0.929 . S
C12 C11 1.363 . S
C12 N14 1.375 . S
C12 H30 0.931 . S
C13 N10 1.311 . S
C13 N14 1.347 . S
C13 H24 0.929 . S
N14 C12 1.375 . S
N14 C13 1.347 . S
C15 C18 1.365 . S
C15 N20 1.328 . S
C15 H21 0.929 . S
C16 C17 1.362 . S
C16 C19 1.378 . S
C16 H31 0.929 . S
C17 C16 1.362 . S
C17 C18 1.366 . S
C18 C15 1.365 . S
C18 C17 1.366 . S
C18 H32 0.930 . S
C19 C16 1.378 . S
C19 N20 1.315 . S
C19 H22 0.930 . S
N20 Co0 2.194 . S
N20 C15 1.328 . S
N20 C19 1.315 . S
H21 C15 0.929 . S
H22 C19 0.930 . S
H23 C11 0.929 . S
H24 C13 0.929 . S
O25 Co0 2.351 . S
O25 C28 1.244 . S
O26 Co0 2.155 . S
O26 C28 1.240 . S
O27 Co0 2.096 . S
O27 C8 1.247 . S
C28 O25 1.244 . S
C28 O26 1.240 . S
H29 C3 0.931 . S
H30 C12 0.931 . S
H31 C16 0.929 . S
H32 C18 0.930 . S
Co33 N37 2.148 . S
Co33 N43 2.128 . S
Co33 N53 2.194 . S
Co33 O58 2.351 . S
Co33 O59 2.155 . S
Co33 O60 2.096 . S
C34 N37 1.301 . S
C34 N38 1.328 . S
C34 H39 0.930 . S
C35 C36 1.333 . S
C35 N37 1.317 . S
C35 H40 0.930 . S
C36 C35 1.333 . S
C36 N38 1.350 . S
C36 H62 0.931 . S
N37 Co33 2.148 . S
N37 C34 1.301 . S
N37 C35 1.317 . S
N38 C34 1.328 . S
N38 C36 1.350 . S
H39 C34 0.930 . S
H40 C35 0.930 . S
C41 O42 1.224 . S
C41 O60 1.247 . S
O42 C41 1.224 . S
N43 Co33 2.128 . S
N43 C44 1.355 . S
N43 C46 1.311 . S
C44 N43 1.355 . S
C44 C45 1.363 . S
C44 H56 0.929 1_655 S
C45 C44 1.363 . S
C45 N47 1.375 . S
C45 H63 0.931 1_655 S
C46 N43 1.311 . S
C46 N47 1.347 . S
C46 H57 0.929 . S
N47 C45 1.375 . S
N47 C46 1.347 . S
C48 C51 1.365 . S
C48 N53 1.328 1_455 S
C48 H54 0.929 . S
C49 C50 1.362 . S
C49 C52 1.378 1_455 S
C49 H64 0.929 . S
C50 C49 1.362 . S
C50 C51 1.366 . S
C51 C48 1.365 . S
C51 C50 1.366 . S
C51 H65 0.930 . S
C52 C49 1.378 1_655 S
C52 N53 1.315 . S
C52 H55 0.930 . S
N53 Co33 2.194 . S
N53 C48 1.328 1_655 S
N53 C52 1.315 . S
H54 C48 0.929 . S
H55 C52 0.930 . S
H56 C44 0.929 1_455 S
H57 C46 0.929 . S
O58 Co33 2.351 . S
O58 C61 1.244 . S
O59 Co33 2.155 . S
O59 C61 1.240 . S
O60 Co33 2.096 . S
O60 C41 1.247 . S
C61 O58 1.244 . S
C61 O59 1.240 . S
H62 C36 0.931 . S
H63 C45 0.931 1_455 S
H64 C49 0.929 . S
H65 C51 0.930 . S
Co66 N70 2.148 . S
Co66 N76 2.128 . S
Co66 N86 2.194 . S
Co66 O91 2.351 . S
Co66 O92 2.155 . S
Co66 O93 2.096 . S
C67 N70 1.301 . S
C67 N71 1.328 . S
C67 H72 0.930 . S
C68 C69 1.333 . S
C68 N70 1.317 . S
C68 H73 0.930 . S
C69 C68 1.333 . S
C69 N71 1.350 . S
C69 H95 0.931 . S
N70 Co66 2.148 . S
N70 C67 1.301 . S
N70 C68 1.317 . S
N71 C67 1.328 . S
N71 C69 1.350 . S
H72 C67 0.930 . S
H73 C68 0.930 . S
C74 O75 1.224 . S
C74 O93 1.247 . S
O75 C74 1.224 . S
N76 Co66 2.128 . S
N76 C77 1.355 . S
N76 C79 1.311 . S
C77 N76 1.355 . S
C77 C78 1.363 . S
C77 H89 0.929 1_565 S
C78 C77 1.363 . S
C78 N80 1.375 . S
C78 H96 0.931 1_565 S
C79 N76 1.311 . S
C79 N80 1.347 . S
C79 H90 0.929 . S
N80 C78 1.375 . S
N80 C79 1.347 . S
C81 C84 1.365 . S
C81 N86 1.328 1_545 S
C81 H87 0.929 . S
C82 C83 1.362 . S
C82 C85 1.378 1_545 S
C82 H97 0.929 . S
C83 C82 1.362 . S
C83 C84 1.366 . S
C84 C81 1.365 . S
C84 C83 1.366 . S
C84 H98 0.930 . S
C85 C82 1.378 1_565 S
C85 N86 1.315 . S
C85 H88 0.930 . S
N86 Co66 2.194 . S
N86 C81 1.328 1_565 S
N86 C85 1.315 . S
H87 C81 0.929 . S
H88 C85 0.930 . S
H89 C77 0.929 1_545 S
H90 C79 0.929 . S
O91 Co66 2.351 . S
O91 C94 1.244 . S
O92 Co66 2.155 . S
O92 C94 1.240 . S
O93 Co66 2.096 . S
O93 C74 1.247 . S
C94 O91 1.244 . S
C94 O92 1.240 . S
H95 C69 0.931 . S
H96 C78 0.931 1_545 S
H97 C82 0.929 . S
H98 C84 0.930 . S
Co99 N103 2.148 . S
Co99 N109 2.128 . S
Co99 N119 2.194 . S
Co99 O124 2.351 . S
Co99 O125 2.155 . S
Co99 O126 2.096 . S
C100 N103 1.301 . S
C100 N104 1.328 . S
C100 H105 0.930 . S
C101 C102 1.333 . S
C101 N103 1.317 . S
C101 H106 0.930 . S
C102 C101 1.333 . S
C102 N104 1.350 . S
C102 H128 0.931 . S
N103 Co99 2.148 . S
N103 C100 1.301 . S
N103 C101 1.317 . S
N104 C100 1.328 . S
N104 C102 1.350 . S
H105 C100 0.930 . S
H106 C101 0.930 . S
C107 O108 1.224 . S
C107 O126 1.247 . S
O108 C107 1.224 . S
N109 Co99 2.128 . S
N109 C110 1.355 . S
N109 C112 1.311 . S
C110 N109 1.355 . S
C110 C111 1.363 . S
C110 H122 0.929 . S
C111 C110 1.363 . S
C111 N113 1.375 . S
C111 H129 0.931 . S
C112 N109 1.311 . S
C112 N113 1.347 . S
C112 H123 0.929 . S
N113 C111 1.375 . S
N113 C112 1.347 . S
C114 C117 1.365 . S
C114 N119 1.328 . S
C114 H120 0.929 . S
C115 C116 1.362 . S
C115 C118 1.378 . S
C115 H130 0.929 . S
C116 C115 1.362 . S
C116 C117 1.366 . S
C117 C114 1.365 . S
C117 C116 1.366 . S
C117 H131 0.930 . S
C118 C115 1.378 . S
C118 N119 1.315 . S
C118 H121 0.930 . S
N119 Co99 2.194 . S
N119 C114 1.328 . S
N119 C118 1.315 . S
H120 C114 0.929 . S
H121 C118 0.930 . S
H122 C110 0.929 . S
H123 C112 0.929 . S
O124 Co99 2.351 . S
O124 C127 1.244 . S
O125 Co99 2.155 . S
O125 C127 1.240 . S
O126 Co99 2.096 . S
O126 C107 1.247 . S
C127 O124 1.244 . S
C127 O125 1.240 . S
H128 C102 0.931 . S
H129 C111 0.931 . S
H130 C115 0.929 . S
H131 C117 0.930 . S
Co132 N136 2.148 . S
Co132 N142 2.128 . S
Co132 N152 2.194 . S
Co132 O157 2.351 . S
Co132 O158 2.155 . S
Co132 O159 2.096 . S
C133 N136 1.301 . S
C133 N137 1.328 . S
C133 H138 0.930 . S
C134 C135 1.333 . S
C134 N136 1.317 . S
C134 H139 0.930 . S
C135 C134 1.333 . S
C135 N137 1.350 . S
C135 H161 0.931 . S
N136 Co132 2.148 . S
N136 C133 1.301 . S
N136 C134 1.317 . S
N137 C133 1.328 . S
N137 C135 1.350 . S
H138 C133 0.930 . S
H139 C134 0.930 . S
C140 O141 1.224 . S
C140 O159 1.247 . S
O141 C140 1.224 . S
N142 Co132 2.128 . S
N142 C143 1.355 . S
N142 C145 1.311 . S
C143 N142 1.355 . S
C143 C144 1.363 . S
C143 H155 0.929 1_455 S
C144 C143 1.363 . S
C144 N146 1.375 . S
C144 H162 0.931 1_455 S
C145 N142 1.311 . S
C145 N146 1.347 . S
C145 H156 0.929 . S
N146 C144 1.375 . S
N146 C145 1.347 . S
C147 C150 1.365 . S
C147 N152 1.328 1_655 S
C147 H153 0.929 . S
C148 C149 1.362 . S
C148 C151 1.378 1_655 S
C148 H163 0.929 . S
C149 C148 1.362 . S
C149 C150 1.366 . S
C150 C147 1.365 . S
C150 C149 1.366 . S
C150 H164 0.930 . S
C151 C148 1.378 1_455 S
C151 N152 1.315 . S
C151 H154 0.930 . S
N152 Co132 2.194 . S
N152 C147 1.328 1_455 S
N152 C151 1.315 . S
H153 C147 0.929 . S
H154 C151 0.930 . S
H155 C143 0.929 1_655 S
H156 C145 0.929 . S
O157 Co132 2.351 . S
O157 C160 1.244 . S
O158 Co132 2.155 . S
O158 C160 1.240 . S
O159 Co132 2.096 . S
O159 C140 1.247 . S
C160 O157 1.244 . S
C160 O158 1.240 . S
H161 C135 0.931 . S
H162 C144 0.931 1_655 S
H163 C148 0.929 . S
H164 C150 0.930 . S
Co165 N169 2.148 . S
Co165 N175 2.128 . S
Co165 N185 2.194 . S
Co165 O190 2.351 . S
Co165 O191 2.155 . S
Co165 O192 2.096 . S
C166 N169 1.301 . S
C166 N170 1.328 . S
C166 H171 0.930 . S
C167 C168 1.333 . S
C167 N169 1.317 . S
C167 H172 0.930 . S
C168 C167 1.333 . S
C168 N170 1.350 . S
C168 H194 0.931 . S
N169 Co165 2.148 . S
N169 C166 1.301 . S
N169 C167 1.317 . S
N170 C166 1.328 . S
N170 C168 1.350 . S
H171 C166 0.930 . S
H172 C167 0.930 . S
C173 O174 1.224 . S
C173 O192 1.247 . S
O174 C173 1.224 . S
N175 Co165 2.128 . S
N175 C176 1.355 . S
N175 C178 1.311 . S
C176 N175 1.355 . S
C176 C177 1.363 . S
C176 H188 0.929 1_545 S
C177 C176 1.363 . S
C177 N179 1.375 . S
C177 H195 0.931 1_545 S
C178 N175 1.311 . S
C178 N179 1.347 . S
C178 H189 0.929 . S
N179 C177 1.375 . S
N179 C178 1.347 . S
C180 C183 1.365 . S
C180 N185 1.328 1_565 S
C180 H186 0.929 . S
C181 C182 1.362 . S
C181 C184 1.378 1_565 S
C181 H196 0.929 . S
C182 C181 1.362 . S
C182 C183 1.366 . S
C183 C180 1.365 . S
C183 C182 1.366 . S
C183 H197 0.930 . S
C184 C181 1.378 1_545 S
C184 N185 1.315 . S
C184 H187 0.930 . S
N185 Co165 2.194 . S
N185 C180 1.328 1_545 S
N185 C184 1.315 . S
H186 C180 0.929 . S
H187 C184 0.930 . S
H188 C176 0.929 1_565 S
H189 C178 0.929 . S
O190 Co165 2.351 . S
O190 C193 1.244 . S
O191 Co165 2.155 . S
O191 C193 1.240 . S
O192 Co165 2.096 . S
O192 C173 1.247 . S
C193 O190 1.244 . S
C193 O191 1.240 . S
H194 C168 0.931 . S
H195 C177 0.931 1_565 S
H196 C181 0.929 . S
H197 C183 0.930 . S
Co198 N202 2.148 . S
Co198 N208 2.128 . S
Co198 N218 2.194 . S
Co198 O223 2.351 . S
Co198 O224 2.155 . S
Co198 O225 2.096 . S
C199 N202 1.301 . S
C199 N203 1.328 . S
C199 H204 0.930 . S
C200 C201 1.333 . S
C200 N202 1.317 . S
C200 H205 0.930 . S
C201 C200 1.333 . S
C201 N203 1.350 . S
C201 H227 0.931 . S
N202 Co198 2.148 . S
N202 C199 1.301 . S
N202 C200 1.317 . S
N203 C199 1.328 . S
N203 C201 1.350 . S
H204 C199 0.930 . S
H205 C200 0.930 . S
C206 O207 1.224 . S
C206 O225 1.247 . S
O207 C206 1.224 . S
N208 Co198 2.128 . S
N208 C209 1.355 . S
N208 C211 1.311 . S
C209 N208 1.355 . S
C209 C210 1.363 . S
C209 H221 0.929 . S
C210 C209 1.363 . S
C210 N212 1.375 . S
C210 H228 0.931 . S
C211 N208 1.311 . S
C211 N212 1.347 . S
C211 H222 0.929 . S
N212 C210 1.375 . S
N212 C211 1.347 . S
C213 C216 1.365 . S
C213 N218 1.328 . S
C213 H219 0.929 . S
C214 C215 1.362 . S
C214 C217 1.378 . S
C214 H229 0.929 . S
C215 C214 1.362 . S
C215 C216 1.366 . S
C216 C213 1.365 . S
C216 C215 1.366 . S
C216 H230 0.930 . S
C217 C214 1.378 . S
C217 N218 1.315 . S
C217 H220 0.930 . S
N218 Co198 2.194 . S
N218 C213 1.328 . S
N218 C217 1.315 . S
H219 C213 0.929 . S
H220 C217 0.930 . S
H221 C209 0.929 . S
H222 C211 0.929 . S
O223 Co198 2.351 . S
O223 C226 1.244 . S
O224 Co198 2.155 . S
O224 C226 1.240 . S
O225 Co198 2.096 . S
O225 C206 1.247 . S
C226 O223 1.244 . S
C226 O224 1.240 . S
H227 C201 0.931 . S
H228 C210 0.931 . S
H229 C214 0.929 . S
H230 C216 0.930 . S
Co231 N235 2.148 . S
Co231 N241 2.128 . S
Co231 N251 2.194 . S
Co231 O256 2.351 . S
Co231 O257 2.155 . S
Co231 O258 2.096 . S
C232 N235 1.301 . S
C232 N236 1.328 . S
C232 H237 0.930 . S
C233 C234 1.333 . S
C233 N235 1.317 . S
C233 H238 0.930 . S
C234 C233 1.333 . S
C234 N236 1.350 . S
C234 H260 0.931 . S
N235 Co231 2.148 . S
N235 C232 1.301 . S
N235 C233 1.317 . S
N236 C232 1.328 . S
N236 C234 1.350 . S
H237 C232 0.930 . S
H238 C233 0.930 . S
C239 O240 1.224 . S
C239 O258 1.247 . S
O240 C239 1.224 . S
N241 Co231 2.128 . S
N241 C242 1.355 . S
N241 C244 1.311 . S
C242 N241 1.355 . S
C242 C243 1.363 . S
C242 H254 0.929 1_655 S
C243 C242 1.363 . S
C243 N245 1.375 . S
C243 H261 0.931 1_655 S
C244 N241 1.311 . S
C244 N245 1.347 . S
C244 H255 0.929 . S
N245 C243 1.375 . S
N245 C244 1.347 . S
C246 C249 1.365 . S
C246 N251 1.328 1_455 S
C246 H252 0.929 . S
C247 C248 1.362 . S
C247 C250 1.378 1_455 S
C247 H262 0.929 . S
C248 C247 1.362 . S
C248 C249 1.366 . S
C249 C246 1.365 . S
C249 C248 1.366 . S
C249 H263 0.930 . S
C250 C247 1.378 1_655 S
C250 N251 1.315 . S
C250 H253 0.930 . S
N251 Co231 2.194 . S
N251 C246 1.328 1_655 S
N251 C250 1.315 . S
H252 C246 0.929 . S
H253 C250 0.930 . S
H254 C242 0.929 1_455 S
H255 C244 0.929 . S
O256 Co231 2.351 . S
O256 C259 1.244 . S
O257 Co231 2.155 . S
O257 C259 1.240 . S
O258 Co231 2.096 . S
O258 C239 1.247 . S
C259 O256 1.244 . S
C259 O257 1.240 . S
H260 C234 0.931 . S
H261 C243 0.931 1_455 S
H262 C247 0.929 . S
H263 C249 0.930 . S
Co264 N268 2.148 . S
Co264 N274 2.128 . S
Co264 N284 2.194 . S
Co264 O289 2.351 . S
Co264 O290 2.155 . S
Co264 O291 2.096 . S
C265 N268 1.301 . S
C265 N269 1.328 . S
C265 H270 0.930 . S
C266 C267 1.333 . S
C266 N268 1.317 . S
C266 H271 0.930 . S
C267 C266 1.333 . S
C267 N269 1.350 . S
C267 H293 0.931 . S
N268 Co264 2.148 . S
N268 C265 1.301 . S
N268 C266 1.317 . S
N269 C265 1.328 . S
N269 C267 1.350 . S
H270 C265 0.930 . S
H271 C266 0.930 . S
C272 O273 1.224 . S
C272 O291 1.247 . S
O273 C272 1.224 . S
N274 Co264 2.128 . S
N274 C275 1.355 . S
N274 C277 1.311 . S
C275 N274 1.355 . S
C275 C276 1.363 . S
C275 H287 0.929 1_565 S
C276 C275 1.363 . S
C276 N278 1.375 . S
C276 H294 0.931 1_565 S
C277 N274 1.311 . S
C277 N278 1.347 . S
C277 H288 0.929 . S
N278 C276 1.375 . S
N278 C277 1.347 . S
C279 C282 1.365 . S
C279 N284 1.328 1_545 S
C279 H285 0.929 . S
C280 C281 1.362 . S
C280 C283 1.378 1_545 S
C280 H295 0.929 . S
C281 C280 1.362 . S
C281 C282 1.366 . S
C282 C279 1.365 . S
C282 C281 1.366 . S
C282 H296 0.930 . S
C283 C280 1.378 1_565 S
C283 N284 1.315 . S
C283 H286 0.930 . S
N284 Co264 2.194 . S
N284 C279 1.328 1_565 S
N284 C283 1.315 . S
H285 C279 0.929 . S
H286 C283 0.930 . S
H287 C275 0.929 1_545 S
H288 C277 0.929 . S
O289 Co264 2.351 . S
O289 C292 1.244 . S
O290 Co264 2.155 . S
O290 C292 1.240 . S
O291 Co264 2.096 . S
O291 C272 1.247 . S
C292 O289 1.244 . S
C292 O290 1.240 . S
H293 C267 0.931 . S
H294 C276 0.931 1_545 S
H295 C280 0.929 . S
H296 C282 0.930 . S
Co297 N301 2.148 . S
Co297 N307 2.128 . S
Co297 N317 2.194 . S
Co297 O322 2.351 . S
Co297 O323 2.155 . S
Co297 O324 2.096 . S
C298 N301 1.301 . S
C298 N302 1.328 . S
C298 H303 0.930 . S
C299 C300 1.333 . S
C299 N301 1.317 . S
C299 H304 0.930 . S
C300 C299 1.333 . S
C300 N302 1.350 . S
C300 H326 0.931 . S
N301 Co297 2.148 . S
N301 C298 1.301 . S
N301 C299 1.317 . S
N302 C298 1.328 . S
N302 C300 1.350 . S
H303 C298 0.930 . S
H304 C299 0.930 . S
C305 O306 1.224 . S
C305 O324 1.247 . S
O306 C305 1.224 . S
N307 Co297 2.128 . S
N307 C308 1.355 . S
N307 C310 1.311 . S
C308 N307 1.355 . S
C308 C309 1.363 . S
C308 H320 0.929 . S
C309 C308 1.363 . S
C309 N311 1.375 . S
C309 H327 0.931 . S
C310 N307 1.311 . S
C310 N311 1.347 . S
C310 H321 0.929 . S
N311 C309 1.375 . S
N311 C310 1.347 . S
C312 C315 1.365 . S
C312 N317 1.328 . S
C312 H318 0.929 . S
C313 C314 1.362 . S
C313 C316 1.378 . S
C313 H328 0.929 . S
C314 C313 1.362 . S
C314 C315 1.366 . S
C315 C312 1.365 . S
C315 C314 1.366 . S
C315 H329 0.930 . S
C316 C313 1.378 . S
C316 N317 1.315 . S
C316 H319 0.930 . S
N317 Co297 2.194 . S
N317 C312 1.328 . S
N317 C316 1.315 . S
H318 C312 0.929 . S
H319 C316 0.930 . S
H320 C308 0.929 . S
H321 C310 0.929 . S
O322 Co297 2.351 . S
O322 C325 1.244 . S
O323 Co297 2.155 . S
O323 C325 1.240 . S
O324 Co297 2.096 . S
O324 C305 1.247 . S
C325 O322 1.244 . S
C325 O323 1.240 . S
H326 C300 0.931 . S
H327 C309 0.931 . S
H328 C313 0.929 . S
H329 C315 0.930 . S
Co330 N334 2.148 . S
Co330 N340 2.128 . S
Co330 N350 2.194 . S
Co330 O355 2.351 . S
Co330 O356 2.155 . S
Co330 O357 2.096 . S
C331 N334 1.301 . S
C331 N335 1.328 . S
C331 H336 0.930 . S
C332 C333 1.333 . S
C332 N334 1.317 . S
C332 H337 0.930 . S
C333 C332 1.333 . S
C333 N335 1.350 . S
C333 H359 0.931 . S
N334 Co330 2.148 . S
N334 C331 1.301 . S
N334 C332 1.317 . S
N335 C331 1.328 . S
N335 C333 1.350 . S
H336 C331 0.930 . S
H337 C332 0.930 . S
C338 O339 1.224 . S
C338 O357 1.247 . S
O339 C338 1.224 . S
N340 Co330 2.128 . S
N340 C341 1.355 . S
N340 C343 1.311 . S
C341 N340 1.355 . S
C341 C342 1.363 . S
C341 H353 0.929 1_455 S
C342 C341 1.363 . S
C342 N344 1.375 . S
C342 H360 0.931 1_455 S
C343 N340 1.311 . S
C343 N344 1.347 . S
C343 H354 0.929 . S
N344 C342 1.375 . S
N344 C343 1.347 . S
C345 C348 1.365 . S
C345 N350 1.328 1_655 S
C345 H351 0.929 . S
C346 C347 1.362 . S
C346 C349 1.378 1_655 S
C346 H361 0.929 . S
C347 C346 1.362 . S
C347 C348 1.366 . S
C348 C345 1.365 . S
C348 C347 1.366 . S
C348 H362 0.930 . S
C349 C346 1.378 1_455 S
C349 N350 1.315 . S
C349 H352 0.930 . S
N350 Co330 2.194 . S
N350 C345 1.328 1_455 S
N350 C349 1.315 . S
H351 C345 0.929 . S
H352 C349 0.930 . S
H353 C341 0.929 1_655 S
H354 C343 0.929 . S
O355 Co330 2.351 . S
O355 C358 1.244 . S
O356 Co330 2.155 . S
O356 C358 1.240 . S
O357 Co330 2.096 . S
O357 C338 1.247 . S
C358 O355 1.244 . S
C358 O356 1.240 . S
H359 C333 0.931 . S
H360 C342 0.931 1_655 S
H361 C346 0.929 . S
H362 C348 0.930 . S
Co363 N367 2.148 . S
Co363 N373 2.128 . S
Co363 N383 2.194 . S
Co363 O388 2.351 . S
Co363 O389 2.155 . S
Co363 O390 2.096 . S
C364 N367 1.301 . S
C364 N368 1.328 . S
C364 H369 0.930 . S
C365 C366 1.333 . S
C365 N367 1.317 . S
C365 H370 0.930 . S
C366 C365 1.333 . S
C366 N368 1.350 . S
C366 H392 0.931 . S
N367 Co363 2.148 . S
N367 C364 1.301 . S
N367 C365 1.317 . S
N368 C364 1.328 . S
N368 C366 1.350 . S
H369 C364 0.930 . S
H370 C365 0.930 . S
C371 O372 1.224 . S
C371 O390 1.247 . S
O372 C371 1.224 . S
N373 Co363 2.128 . S
N373 C374 1.355 . S
N373 C376 1.311 . S
C374 N373 1.355 . S
C374 C375 1.363 . S
C374 H386 0.929 1_545 S
C375 C374 1.363 . S
C375 N377 1.375 . S
C375 H393 0.931 1_545 S
C376 N373 1.311 . S
C376 N377 1.347 . S
C376 H387 0.929 . S
N377 C375 1.375 . S
N377 C376 1.347 . S
C378 C381 1.365 . S
C378 N383 1.328 1_565 S
C378 H384 0.929 . S
C379 C380 1.362 . S
C379 C382 1.378 1_565 S
C379 H394 0.929 . S
C380 C379 1.362 . S
C380 C381 1.366 . S
C381 C378 1.365 . S
C381 C380 1.366 . S
C381 H395 0.930 . S
C382 C379 1.378 1_545 S
C382 N383 1.315 . S
C382 H385 0.930 . S
N383 Co363 2.194 . S
N383 C378 1.328 1_545 S
N383 C382 1.315 . S
H384 C378 0.929 . S
H385 C382 0.930 . S
H386 C374 0.929 1_565 S
H387 C376 0.929 . S
O388 Co363 2.351 . S
O388 C391 1.244 . S
O389 Co363 2.155 . S
O389 C391 1.240 . S
O390 Co363 2.096 . S
O390 C371 1.247 . S
C391 O388 1.244 . S
C391 O389 1.240 . S
H392 C366 0.931 . S
H393 C375 0.931 1_565 S
H394 C379 0.929 . S
H395 C381 0.930 . S
C396 C397 1.369 . S
C396 C398 1.419 . S
C396 H400 0.930 . S
C397 C396 1.369 . S
C397 C406 1.429 . S
C398 C396 1.419 . S
C398 C399 1.363 . S
C398 H401 0.929 . S
C399 C398 1.363 . S
C399 C405 1.428 . S
H400 C396 0.930 . S
H401 C398 0.929 . S
S402 N403 1.613 . S
S402 N404 1.610 . S
N403 S402 1.613 . S
N403 C406 1.350 . S
N404 S402 1.610 . S
N404 C405 1.351 . S
C405 C399 1.428 . S
C405 N404 1.351 . S
C405 C406 1.434 . S
C406 C397 1.429 . S
C406 N403 1.350 . S
C406 C405 1.434 . S
C407 C408 1.369 . S
C407 C409 1.419 1_455 S
C407 H411 0.930 . S
C408 C407 1.369 . S
C408 C417 1.429 1_455 S
C409 C407 1.419 1_655 S
C409 C410 1.363 . S
C409 H412 0.930 1_655 S
C410 C409 1.363 . S
C410 C416 1.428 . S
H411 C407 0.930 . S
H412 C409 0.930 1_455 S
S413 N414 1.613 . S
S413 N415 1.610 . S
N414 S413 1.613 . S
N414 C417 1.350 . S
N415 S413 1.610 . S
N415 C416 1.351 . S
C416 C410 1.428 . S
C416 N415 1.351 . S
C416 C417 1.434 . S
C417 C408 1.429 1_655 S
C417 N414 1.350 . S
C417 C416 1.434 . S
C418 C419 1.369 . S
C418 C420 1.419 . S
C418 H422 0.930 . S
C419 C418 1.369 . S
C419 C428 1.429 1_545 S
C420 C418 1.419 . S
C420 C421 1.363 1_545 S
C420 H423 0.929 . S
C421 C420 1.363 1_565 S
C421 C427 1.428 . S
H422 C418 0.930 . S
H423 C420 0.929 . S
S424 N425 1.613 . S
S424 N426 1.610 . S
N425 S424 1.613 . S
N425 C428 1.350 . S
N426 S424 1.610 . S
N426 C427 1.351 . S
C427 C421 1.428 . S
C427 N426 1.351 . S
C427 C428 1.434 . S
C428 C419 1.429 1_565 S
C428 N425 1.350 . S
C428 C427 1.434 . S
C429 C430 1.369 . S
C429 C431 1.419 . S
C429 H433 0.930 . S
C430 C429 1.369 . S
C430 C439 1.429 . S
C431 C429 1.419 . S
C431 C432 1.363 . S
C431 H434 0.929 . S
C432 C431 1.363 . S
C432 C438 1.428 . S
H433 C429 0.930 . S
H434 C431 0.929 . S
S435 N436 1.613 . S
S435 N437 1.610 . S
N436 S435 1.613 . S
N436 C439 1.350 . S
N437 S435 1.610 . S
N437 C438 1.351 . S
C438 C432 1.428 . S
C438 N437 1.351 . S
C438 C439 1.434 . S
C439 C430 1.429 . S
C439 N436 1.350 . S
C439 C438 1.434 . S
C440 C441 1.369 1_455 S
C440 C442 1.419 . S
C440 H444 0.930 . S
C441 C440 1.369 1_655 S
C441 C450 1.429 . S
C442 C440 1.419 . S
C442 C443 1.363 . S
C442 H445 0.929 . S
C443 C442 1.363 . S
C443 C449 1.428 1_455 S
H444 C440 0.930 . S
H445 C442 0.929 . S
S446 N447 1.613 . S
S446 N448 1.610 . S
N447 S446 1.613 . S
N447 C450 1.350 . S
N448 S446 1.610 . S
N448 C449 1.351 . S
C449 C443 1.428 1_655 S
C449 N448 1.351 . S
C449 C450 1.434 . S
C450 C441 1.429 . S
C450 N447 1.350 . S
C450 C449 1.434 . S
C451 C452 1.369 . S
C451 C453 1.419 1_565 S
C451 H455 0.930 . S
C452 C451 1.369 . S
C452 C461 1.429 . S
C453 C451 1.419 1_545 S
C453 C454 1.363 . S
C453 H456 0.929 . S
C454 C453 1.363 . S
C454 C460 1.428 . S
H455 C451 0.930 . S
H456 C453 0.929 . S
S457 N458 1.602 1_545 S
S457 N459 1.610 . S
N458 S457 1.602 1_565 S
N458 C461 1.357 . S
N459 S457 1.610 . S
N459 C460 1.351 . S
C460 C454 1.428 . S
C460 N459 1.351 . S
C460 C461 1.434 1_545 S
C461 C452 1.429 . S
C461 N458 1.357 . S
C461 C460 1.434 1_565 S
C462 C463 1.369 . S
C462 C464 1.419 . S
C462 H466 0.930 . S
C463 C462 1.369 . S
C463 C472 1.429 . S
C464 C462 1.419 . S
C464 C465 1.363 . S
C464 H467 0.929 . S
C465 C464 1.363 . S
C465 C471 1.428 . S
H466 C462 0.930 . S
H467 C464 0.929 . S
S468 N469 1.613 . S
S468 N470 1.610 . S
N469 S468 1.613 . S
N469 C472 1.350 . S
N470 S468 1.610 . S
N470 C471 1.351 . S
C471 C465 1.428 . S
C471 N470 1.351 . S
C471 C472 1.434 . S
C472 C463 1.429 . S
C472 N469 1.350 . S
C472 C471 1.434 . S
C473 C474 1.369 . S
C473 C475 1.419 . S
C473 H477 0.930 . S
C474 C473 1.369 . S
C474 C483 1.429 1_655 S
C475 C473 1.419 . S
C475 C476 1.363 1_655 S
C475 H478 0.929 . S
C476 C475 1.363 1_455 S
C476 C482 1.428 . S
H477 C473 0.930 . S
H478 C475 0.929 . S
S479 N480 1.613 . S
S479 N481 1.610 . S
N480 S479 1.613 . S
N480 C483 1.350 . S
N481 S479 1.610 . S
N481 C482 1.351 . S
C482 C476 1.428 . S
C482 N481 1.351 . S
C482 C483 1.434 . S
C483 C474 1.429 1_455 S
C483 N480 1.350 . S
C483 C482 1.434 . S
C484 C485 1.369 . S
C484 C486 1.419 1_554 S
C484 H488 0.930 . S
C485 C484 1.369 . S
C485 C494 1.429 1_545 S
C486 C484 1.419 1_556 S
C486 C487 1.363 1_545 S
C486 H489 0.929 . S
C487 C486 1.363 1_565 S
C487 C493 1.428 . S
H488 C484 0.930 . S
H489 C486 0.929 . S
S490 N491 1.613 . S
S490 N492 1.610 1_554 S
N491 S490 1.613 . S
N491 C494 1.350 . S
N492 S490 1.610 1_556 S
N492 C493 1.351 . S
C493 C487 1.428 . S
C493 N492 1.351 . S
C493 C494 1.434 1_556 S
C494 C485 1.429 1_565 S
C494 N491 1.350 . S
C494 C493 1.434 1_554 S
C495 C496 1.369 . S
C495 C497 1.419 . S
C495 H499 0.930 . S
C496 C495 1.369 . S
C496 C505 1.429 . S
C497 C495 1.419 . S
C497 C498 1.363 . S
C497 H500 0.929 . S
C498 C497 1.363 . S
C498 C504 1.428 . S
H499 C495 0.930 . S
H500 C497 0.929 . S
S501 N502 1.613 . S
S501 N503 1.610 . S
N502 S501 1.613 . S
N502 C505 1.350 . S
N503 S501 1.610 . S
N503 C504 1.351 . S
C504 C498 1.428 . S
C504 N503 1.351 . S
C504 C505 1.434 . S
C505 C496 1.429 . S
C505 N502 1.350 . S
C505 C504 1.434 . S
C506 C507 1.369 . S
C506 C508 1.419 . S
C506 H510 0.930 . S
C507 C506 1.369 . S
C507 C516 1.429 1_455 S
C508 C506 1.419 . S
C508 C509 1.363 1_455 S
C508 H511 0.929 . S
C509 C508 1.363 1_655 S
C509 C515 1.428 . S
H510 C506 0.930 . S
H511 C508 0.929 . S
S512 N513 1.613 . S
S512 N514 1.610 . S
N513 S512 1.613 . S
N513 C516 1.350 . S
N514 S512 1.610 . S
N514 C515 1.351 . S
C515 C509 1.428 . S
C515 N514 1.351 . S
C515 C516 1.434 . S
C516 C507 1.429 1_655 S
C516 N513 1.350 . S
C516 C515 1.434 . S
C517 C518 1.369 1_565 S
C517 C519 1.419 1_556 S
C517 H521 0.930 . S
C518 C517 1.369 1_545 S
C518 C527 1.429 . S
C519 C517 1.419 1_554 S
C519 C520 1.363 . S
C519 H522 0.929 . S
C520 C519 1.363 . S
C520 C526 1.428 1_565 S
H521 C517 0.930 . S
H522 C519 0.929 . S
S523 N524 1.613 1_554 S
S523 N525 1.610 . S
N524 S523 1.613 1_556 S
N524 C527 1.350 . S
N525 S523 1.610 . S
N525 C526 1.351 . S
C526 C520 1.428 1_545 S
C526 N525 1.351 . S
C526 C527 1.434 1_554 S
C527 C518 1.429 . S
C527 N524 1.350 . S
C527 C526 1.434 1_556 S
C528 C529 1.369 1_655 S
C528 C530 1.419 1_545 S
C528 H532 0.930 . S
C529 C528 1.369 1_455 S
C529 C538 1.429 . S
C530 C528 1.419 1_565 S
C530 C531 1.363 . S
C530 H533 0.929 . S
C531 C530 1.363 . S
C531 C537 1.428 1_655 S
H532 C528 0.930 . S
H533 C530 0.929 . S
S534 N535 1.613 . S
S534 N536 1.610 1_545 S
N535 S534 1.613 . S
N535 C538 1.350 . S
N536 S534 1.610 1_565 S
N536 C537 1.351 . S
C537 C531 1.428 1_455 S
C537 N536 1.351 . S
C537 C538 1.434 1_565 S
C538 C529 1.429 . S
C538 N535 1.350 . S
C538 C537 1.434 1_545 S
C539 C540 1.369 . S
C539 C541 1.419 1_645 S
C539 H543 0.930 . S
C540 C539 1.369 . S
C540 C549 1.429 . S
C541 C539 1.419 1_465 S
C541 C542 1.363 . S
C541 H544 0.929 . S
C542 C541 1.363 . S
C542 C548 1.428 . S
H543 C539 0.930 . S
H544 C541 0.929 . S
S545 N546 1.613 1_565 S
S545 N547 1.610 1_655 S
N546 S545 1.613 1_545 S
N546 C549 1.350 . S
N547 S545 1.610 1_455 S
N547 C548 1.351 . S
C548 C542 1.428 . S
C548 N547 1.351 . S
C548 C549 1.434 1_465 S
C549 C540 1.429 . S
C549 N546 1.350 . S
C549 C548 1.434 1_645 S
C550 C551 1.369 . S
C550 C552 1.419 1_445 S
C550 H554 0.936 . S
C551 C550 1.369 . S
C551 C560 1.429 . S
C552 C550 1.419 1_665 S
C552 C553 1.363 . S
C552 H555 0.929 . S
C553 C552 1.363 . S
C553 C559 1.431 . S
H554 C550 0.936 . S
H555 C552 0.929 . S
S556 N557 1.613 1_655 S
S556 N558 1.610 . S
N557 S556 1.613 1_455 S
N557 C560 1.350 . S
N558 S556 1.610 . S
N558 C559 1.349 1_545 S
C559 C553 1.431 . S
C559 N558 1.349 1_565 S
C559 C560 1.433 1_665 S
C560 C551 1.429 . S
C560 N557 1.350 . S
C560 C559 1.433 1_445 S
C561 C562 1.369 1_545 S
C561 C563 1.419 1_655 S
C561 H565 0.930 . S
C562 C561 1.369 1_565 S
C562 C571 1.429 . S
C563 C561 1.419 1_455 S
C563 C564 1.363 . S
C563 H566 0.929 . S
C564 C563 1.363 . S
C564 C570 1.428 1_545 S
H565 C561 0.930 . S
H566 C563 0.929 . S
S567 N568 1.613 . S
S567 N569 1.610 1_655 S
N568 S567 1.613 . S
N568 C571 1.350 . S
N569 S567 1.610 1_455 S
N569 C570 1.351 . S
C570 C564 1.428 1_565 S
C570 N569 1.351 . S
C570 C571 1.434 1_455 S
C571 C562 1.429 . S
C571 N568 1.350 . S
C571 C570 1.434 1_655 S
C572 C573 1.369 . S
C572 C574 1.419 1_665 S
C572 H576 0.930 . S
C573 C572 1.369 . S
C573 C582 1.429 . S
C574 C572 1.419 1_445 S
C574 C575 1.363 . S
C574 H577 0.929 . S
C575 C574 1.363 . S
C575 C581 1.428 . S
H576 C572 0.930 . S
H577 C574 0.929 . S
S578 N579 1.613 1_545 S
S578 N580 1.610 1_655 S
N579 S578 1.613 1_565 S
N579 C582 1.350 . S
N580 S578 1.610 1_455 S
N580 C581 1.351 . S
C581 C575 1.428 . S
C581 N580 1.351 . S
C581 C582 1.434 1_445 S
C582 C573 1.429 . S
C582 N579 1.350 . S
C582 C581 1.434 1_665 S
C583 C584 1.369 1_455 S
C583 C585 1.428 . S
C583 H587 0.930 . S
C584 C583 1.369 1_655 S
C584 C593 1.429 1_545 S
C585 C583 1.428 . S
C585 C586 1.357 1_545 S
C585 H588 0.925 . S
C586 C585 1.357 1_565 S
C586 C592 1.428 1_455 S
H587 C583 0.930 . S
H588 C585 0.925 . S
S589 N590 1.613 . S
S589 N591 1.610 . S
N590 S589 1.613 . S
N590 C593 1.350 . S
N591 S589 1.610 . S
N591 C592 1.351 . S
C592 C586 1.428 1_655 S
C592 N591 1.351 . S
C592 C593 1.434 . S
C593 C584 1.429 1_565 S
C593 N590 1.350 . S
C593 C592 1.434 . S
C594 C595 1.369 . S
C594 C596 1.419 1_655 S
C594 H598 0.930 . S
C595 C594 1.369 . S
C595 C604 1.429 . S
C596 C594 1.419 1_455 S
C596 C597 1.363 . S
C596 H599 0.929 . S
C597 C596 1.363 . S
C597 C603 1.428 . S
H598 C594 0.930 . S
H599 C596 0.929 . S
S600 N601 1.622 . S
S600 N602 1.610 . S
N601 S600 1.622 . S
N601 C604 1.346 1_455 S
N602 S600 1.610 . S
N602 C603 1.351 . S
C603 C597 1.428 . S
C603 N602 1.351 . S
C603 C604 1.434 1_455 S
C604 C595 1.429 . S
C604 N601 1.346 1_655 S
C604 C603 1.434 1_655 S
C605 C606 1.369 1_565 S
C605 C607 1.419 . S
C605 H609 0.930 . S
C606 C605 1.369 1_545 S
C606 C615 1.429 . S
C607 C605 1.419 . S
C607 C608 1.363 . S
C607 H610 0.929 . S
C608 C607 1.363 . S
C608 C614 1.428 1_565 S
H609 C605 0.930 . S
H610 C607 0.929 . S
S611 N612 1.613 . S
S611 N613 1.610 . S
N612 S611 1.613 . S
N612 C615 1.350 . S
N613 S611 1.610 . S
N613 C614 1.351 . S
C614 C608 1.428 1_545 S
C614 N613 1.351 . S
C614 C615 1.434 . S
C615 C606 1.429 . S
C615 N612 1.350 . S
C615 C614 1.434 . S
C616 C617 1.369 . S
C616 C618 1.419 . S
C616 H620 0.930 . S
C617 C616 1.369 . S
C617 C626 1.429 . S
C618 C616 1.419 . S
C618 C619 1.363 . S
C618 H621 0.929 . S
C619 C618 1.363 . S
C619 C625 1.428 . S
H620 C616 0.930 . S
H621 C618 0.929 . S
S622 N623 1.613 . S
S622 N624 1.610 . S
N623 S622 1.613 . S
N623 C626 1.350 . S
N624 S622 1.610 . S
N624 C625 1.351 . S
C625 C619 1.428 . S
C625 N624 1.351 . S
C625 C626 1.434 . S
C626 C617 1.429 . S
C626 N623 1.350 . S
C626 C625 1.434 . S
C627 C628 1.369 . S
C627 C629 1.419 . S
C627 H631 0.930 . S
C628 C627 1.369 . S
C628 C637 1.429 1_455 S
C629 C627 1.419 . S
C629 C630 1.363 1_455 S
C629 H632 0.929 . S
C630 C629 1.363 1_655 S
C630 C636 1.428 . S
H631 C627 0.930 . S
H632 C629 0.929 . S
S633 N634 1.613 . S
S633 N635 1.610 . S
N634 S633 1.613 . S
N634 C637 1.350 . S
N635 S633 1.610 . S
N635 C636 1.351 . S
C636 C630 1.428 . S
C636 N635 1.351 . S
C636 C637 1.434 . S
C637 C628 1.429 1_655 S
C637 N634 1.350 . S
C637 C636 1.434 . S
C638 C639 1.369 . S
C638 C640 1.417 1_565 S
C638 H642 0.930 . S
C639 C638 1.369 . S
C639 C648 1.429 1_565 S
C640 C638 1.417 1_545 S
C640 C641 1.364 . S
C640 H643 0.930 1_545 S
C641 C640 1.364 . S
C641 C647 1.428 . S
H642 C638 0.930 . S
H643 C640 0.930 1_565 S
S644 N645 1.613 . S
S644 N646 1.610 . S
N645 S644 1.613 . S
N645 C648 1.350 . S
N646 S644 1.610 . S
N646 C647 1.351 . S
C647 C641 1.428 . S
C647 N646 1.351 . S
C647 C648 1.434 . S
C648 C639 1.429 1_545 S
C648 N645 1.350 . S
C648 C647 1.434 . S
C649 C650 1.369 . S
C649 C651 1.419 . S
C649 H653 0.930 . S
C650 C649 1.369 . S
C650 C659 1.429 . S
C651 C649 1.419 . S
C651 C652 1.363 . S
C651 H654 0.929 . S
C652 C651 1.363 . S
C652 C658 1.428 . S
H653 C649 0.930 . S
H654 C651 0.929 . S
S655 N656 1.613 . S
S655 N657 1.610 . S
N656 S655 1.613 . S
N656 C659 1.350 . S
N657 S655 1.610 . S
N657 C658 1.351 . S
C658 C652 1.428 . S
C658 N657 1.351 . S
C658 C659 1.434 . S
C659 C650 1.429 . S
C659 N656 1.350 . S
C659 C658 1.434 . S
C660 C661 1.369 . S
C660 C662 1.419 . S
C660 H664 0.930 . S
C661 C660 1.369 . S
C661 C670 1.429 . S
C662 C660 1.419 . S
C662 C663 1.363 . S
C662 H665 0.929 . S
C663 C662 1.363 . S
C663 C669 1.428 . S
H664 C660 0.930 . S
H665 C662 0.929 . S
S666 N667 1.613 . S
S666 N668 1.610 . S
N667 S666 1.613 . S
N667 C670 1.350 . S
N668 S666 1.610 . S
N668 C669 1.351 . S
C669 C663 1.428 . S
C669 N668 1.351 . S
C669 C670 1.434 . S
C670 C661 1.429 . S
C670 N667 1.350 . S
C670 C669 1.434 . S
C671 C672 1.369 . S
C671 C673 1.419 . S
C671 H675 0.930 . S
C672 C671 1.369 . S
C672 C681 1.429 . S
C673 C671 1.419 . S
C673 C674 1.363 . S
C673 H676 0.929 . S
C674 C673 1.363 . S
C674 C680 1.428 . S
H675 C671 0.930 . S
H676 C673 0.929 . S
S677 N678 1.613 . S
S677 N679 1.610 . S
N678 S677 1.613 . S
N678 C681 1.350 . S
N679 S677 1.610 . S
N679 C680 1.351 . S
C680 C674 1.428 . S
C680 N679 1.351 . S
C680 C681 1.434 . S
C681 C672 1.429 . S
C681 N678 1.350 . S
C681 C680 1.434 . S
C682 C683 1.369 . S
C682 C684 1.419 . S
C682 H686 0.930 . S
C683 C682 1.369 . S
C683 C692 1.429 . S
C684 C682 1.419 . S
C684 C685 1.363 . S
C684 H687 0.929 . S
C685 C684 1.363 . S
C685 C691 1.428 . S
H686 C682 0.930 . S
H687 C684 0.929 . S
S688 N689 1.613 . S
S688 N690 1.610 . S
N689 S688 1.613 . S
N689 C692 1.350 . S
N690 S688 1.610 . S
N690 C691 1.351 . S
C691 C685 1.428 . S
C691 N690 1.351 . S
C691 C692 1.434 . S
C692 C683 1.429 . S
C692 N689 1.350 . S
C692 C691 1.434 . S
C693 C694 1.369 . S
C693 C695 1.419 . S
C693 H697 0.930 . S
C694 C693 1.369 . S
C694 C703 1.429 . S
C695 C693 1.419 . S
C695 C696 1.363 . S
C695 H698 0.929 . S
C696 C695 1.363 . S
C696 C702 1.428 . S
H697 C693 0.930 . S
H698 C695 0.929 . S
S699 N700 1.613 . S
S699 N701 1.610 . S
N700 S699 1.613 . S
N700 C703 1.350 . S
N701 S699 1.610 . S
N701 C702 1.351 . S
C702 C696 1.428 . S
C702 N701 1.351 . S
C702 C703 1.434 . S
C703 C694 1.429 . S
C703 N700 1.350 . S
C703 C702 1.434 . S
C704 C705 1.369 . S
C704 C706 1.419 . S
C704 H708 0.930 . S
C705 C704 1.369 . S
C705 C714 1.429 . S
C706 C704 1.419 . S
C706 C707 1.363 . S
C706 H709 0.929 . S
C707 C706 1.363 . S
C707 C713 1.428 . S
H708 C704 0.930 . S
H709 C706 0.929 . S
S710 N711 1.613 . S
S710 N712 1.610 . S
N711 S710 1.613 . S
N711 C714 1.350 . S
N712 S710 1.610 . S
N712 C713 1.351 . S
C713 C707 1.428 . S
C713 N712 1.351 . S
C713 C714 1.434 . S
C714 C705 1.429 . S
C714 N711 1.350 . S
C714 C713 1.434 . S
C715 C716 1.369 . S
C715 C717 1.419 . S
C715 H719 0.930 . S
C716 C715 1.369 . S
C716 C725 1.429 . S
C717 C715 1.419 . S
C717 C718 1.363 . S
C717 H720 0.929 . S
C718 C717 1.363 . S
C718 C724 1.428 . S
H719 C715 0.930 . S
H720 C717 0.929 . S
S721 N722 1.613 . S
S721 N723 1.610 . S
N722 S721 1.613 . S
N722 C725 1.350 . S
N723 S721 1.610 . S
N723 C724 1.351 . S
C724 C718 1.428 . S
C724 N723 1.351 . S
C724 C725 1.434 . S
C725 C716 1.429 . S
C725 N722 1.350 . S
C725 C724 1.434 . S
C397 N104 2.044 . S
C399 N5 2.039 . S
C408 N137 2.038 . S
C410 N38 2.044 . S
C419 N170 2.038 . S
C421 N71 2.044 . S
C430 N203 2.041 . S
C432 N302 2.040 . S
C441 N236 2.045 . S
C443 N335 2.039 . S
C452 N269 2.039 . S
C454 N368 2.043 . S
C463 C325 1.840 . S
C465 C28 1.837 . S
C474 C61 1.838 . S
C476 C358 1.842 . S
C485 C391 1.838 . S
C487 C94 1.843 . S
C496 C226 1.838 . S
C498 C127 1.838 . S
C507 C160 1.837 . S
C509 C259 1.840 . S
C518 C193 1.842 . S
C520 C292 1.837 . S
C529 N14 1.116 . S
C531 N113 1.118 . S
C540 N47 1.121 . S
C542 N146 1.114 . S
C551 N179 1.120 . S
C553 N80 1.110 . S
C562 N212 1.104 . S
C564 N311 1.124 . S
C573 N245 1.122 . S
C575 N344 1.112 . S
C584 N377 1.110 . S
C586 N278 1.122 . S
C595 C371 1.899 . S
C597 C8 1.900 . S
C606 C41 1.905 . S
C608 C206 1.906 . S
C617 C239 1.908 . S
C619 C74 1.906 . S
C628 C272 1.905 . S
C630 C107 1.903 . S
C639 C140 1.905 . S
C641 C305 1.904 . S
C650 C173 1.900 . S
C652 C338 1.902 . S
C661 C17 0.396 . S
C663 C281 0.391 . S
C672 C50 0.382 . S
C674 C314 0.370 . S
C683 C347 0.367 . S
C685 C83 0.390 . S
C694 C116 0.366 . S
C696 C380 0.381 . S
C705 C215 0.373 . S
C707 C149 0.395 . S
C716 C182 0.395 . S
C718 C248 0.372 . S
