# Generated by pormake.
# Topology wjg, (4)-cn, num edge types: 1
# Building blocks:
#     Node 0, Type 0, BuildingBlock: NAHDIM_clean_sbu_0, # of connection points: 4
#     Node 1, Type 0, BuildingBlock: NAHDIM_clean_sbu_0, # of connection points: 4
#     Node 2, Type 0, BuildingBlock: NAHDIM_clean_sbu_0, # of connection points: 4
#     Node 3, Type 0, BuildingBlock: NAHDIM_clean_sbu_0, # of connection points: 4
#     Node 4, Type 0, BuildingBlock: NAHDIM_clean_sbu_0, # of connection points: 4
#     Node 5, Type 0, BuildingBlock: NAHDIM_clean_sbu_0, # of connection points: 4
#     Node 6, Type 0, BuildingBlock: NAHDIM_clean_sbu_0, # of connection points: 4
#     Node 7, Type 0, BuildingBlock: NAHDIM_clean_sbu_0, # of connection points: 4
#     Node 8, Type 0, BuildingBlock: NAHDIM_clean_sbu_0, # of connection points: 4
#     Node 9, Type 0, BuildingBlock: NAHDIM_clean_sbu_0, # of connection points: 4
#     Node 10, Type 0, BuildingBlock: NAHDIM_clean_sbu_0, # of connection points: 4
#     Node 11, Type 0, BuildingBlock: NAHDIM_clean_sbu_0, # of connection points: 4
#     Edge 12, Type (0, 0), BuildingBlock: ZUJKAS_clean_linker_0, # of connection points: 2
#     Edge 13, Type (0, 0), BuildingBlock: ZUJKAS_clean_linker_0, # of connection points: 2
#     Edge 14, Type (0, 0), BuildingBlock: ZUJKAS_clean_linker_0, # of connection points: 2
#     Edge 15, Type (0, 0), BuildingBlock: ZUJKAS_clean_linker_0, # of connection points: 2
#     Edge 16, Type (0, 0), BuildingBlock: ZUJKAS_clean_linker_0, # of connection points: 2
#     Edge 17, Type (0, 0), BuildingBlock: ZUJKAS_clean_linker_0, # of connection points: 2
#     Edge 18, Type (0, 0), BuildingBlock: ZUJKAS_clean_linker_0, # of connection points: 2
#     Edge 19, Type (0, 0), BuildingBlock: ZUJKAS_clean_linker_0, # of connection points: 2
#     Edge 20, Type (0, 0), BuildingBlock: ZUJKAS_clean_linker_0, # of connection points: 2
#     Edge 21, Type (0, 0), BuildingBlock: ZUJKAS_clean_linker_0, # of connection points: 2
#     Edge 22, Type (0, 0), BuildingBlock: ZUJKAS_clean_linker_0, # of connection points: 2
#     Edge 23, Type (0, 0), BuildingBlock: ZUJKAS_clean_linker_0, # of connection points: 2
#     Edge 24, Type (0, 0), BuildingBlock: ZUJKAS_clean_linker_0, # of connection points: 2
#     Edge 25, Type (0, 0), BuildingBlock: ZUJKAS_clean_linker_0, # of connection points: 2
#     Edge 26, Type (0, 0), BuildingBlock: ZUJKAS_clean_linker_0, # of connection points: 2
#     Edge 27, Type (0, 0), BuildingBlock: ZUJKAS_clean_linker_0, # of connection points: 2
#     Edge 28, Type (0, 0), BuildingBlock: ZUJKAS_clean_linker_0, # of connection points: 2
#     Edge 29, Type (0, 0), BuildingBlock: ZUJKAS_clean_linker_0, # of connection points: 2
#     Edge 30, Type (0, 0), BuildingBlock: ZUJKAS_clean_linker_0, # of connection points: 2
#     Edge 31, Type (0, 0), BuildingBlock: ZUJKAS_clean_linker_0, # of connection points: 2
#     Edge 32, Type (0, 0), BuildingBlock: ZUJKAS_clean_linker_0, # of connection points: 2
#     Edge 33, Type (0, 0), BuildingBlock: ZUJKAS_clean_linker_0, # of connection points: 2
#     Edge 34, Type (0, 0), BuildingBlock: ZUJKAS_clean_linker_0, # of connection points: 2
#     Edge 35, Type (0, 0), BuildingBlock: ZUJKAS_clean_linker_0, # of connection points: 2
# Relax obj value: 0.300
# Max RMSD: 0.132
# Mean RMSD: 0.129
data_MOF--net-wjg--node1-NAHDIM_clean_sbu_0--edge1-ZUJKAS_clean_linker_0
_symmetry_space_group_name_H-M    P1
_symmetry_Int_Tables_number       1
_symmetry_cell_setting            triclinic
loop_
_symmetry_equiv_pos_as_xyz
'x, y, z'
_cell_length_a     44.137484
_cell_length_b     44.080165
_cell_length_c     49.874083
_cell_angle_alpha  90.032285
_cell_angle_beta   90.047335
_cell_angle_gamma 120.04366
loop_
_atom_site_label
_atom_site_type_symbol
_atom_site_fract_x
_atom_site_fract_y
_atom_site_fract_z
_atom_type_partial_charge
C0 C 0.10311 0.37537 0.26622 0.0
O1 O 0.1294 0.37073 0.25987 0.0
O2 O 0.17898 0.4365 0.31488 0.0
Zn3 Zn 0.13682 0.38826 0.31659 0.0
O4 O 0.15331 0.35383 0.31017 0.0
C5 C 0.12725 0.40845 0.3685 0.0
O6 O 0.13587 0.43784 0.35588 0.0
O7 O 0.10004 0.38278 0.29031 0.0
C8 C 0.17557 0.35584 0.32732 0.0
O9 O 0.18547 0.37948 0.34643 0.0
C10 C 0.19205 0.45679 0.2949 0.0
O11 O 0.17737 0.4468 0.27119 0.0
O12 O 0.12082 0.38158 0.35479 0.0
C13 C 0.72287 0.12611 0.59022 0.0
O14 O 0.74535 0.15893 0.58436 0.0
O15 O 0.74205 0.19513 0.63814 0.0
Zn16 Zn 0.74817 0.15305 0.64168 0.0
O17 O 0.79919 0.16871 0.63668 0.0
C18 C 0.71684 0.14426 0.69333 0.0
O19 O 0.69926 0.15686 0.68092 0.0
O20 O 0.71889 0.11647 0.61458 0.0
C21 C 0.81946 0.18429 0.65635 0.0
O22 O 0.80621 0.1888 0.67856 0.0
C23 C 0.76513 0.22422 0.62835 0.0
O24 O 0.79381 0.22695 0.61813 0.0
O25 O 0.73601 0.13615 0.67963 0.0
C26 C 0.60026 0.72675 0.93006 0.0
O27 O 0.59508 0.75339 0.92678 0.0
O28 O 0.55643 0.74923 0.98009 0.0
Zn29 Zn 0.60023 0.74627 0.98363 0.0
O30 O 0.64127 0.7956 0.9825 0.0
C31 C 0.56821 0.70341 0.02932 0.0
O32 O 0.54109 0.68865 0.01312 0.0
O33 O 0.60325 0.71782 0.95368 0.0
C34 C 0.65718 0.81148 0.00381 0.0
O35 O 0.64763 0.79487 0.02683 0.0
C36 C 0.54914 0.76355 -0.00076 0.0
O37 O 0.57103 0.77687 0.01948 0.0
O38 O 0.59788 0.72534 0.01972 0.0
C39 C 0.87711 0.60214 0.26776 0.0
O40 O 0.84493 0.59576 0.26423 0.0
O41 O 0.81086 0.55638 0.31774 0.0
Zn42 Zn 0.85662 0.60149 0.32111 0.0
O43 O 0.8455 0.64066 0.31919 0.0
C44 C 0.86705 0.57152 0.36816 0.0
O45 O 0.85653 0.54415 0.35239 0.0
O46 O 0.88896 0.60569 0.29148 0.0
C47 C 0.84515 0.65689 0.34018 0.0
O48 O 0.85426 0.64944 0.36324 0.0
C49 C 0.78881 0.54958 0.33645 0.0
O50 O 0.79655 0.57249 0.35586 0.0
O51 O 0.87526 0.60089 0.35766 0.0
C52 C 0.26917 0.87299 0.59808 0.0
O53 O 0.24976 0.8391 0.5939 0.0
O54 O 0.23739 0.80674 0.64687 0.0
Zn55 Zn 0.23628 0.85167 0.64852 0.0
O56 O 0.18635 0.83947 0.64217 0.0
C57 C 0.27382 0.8639 0.69695 0.0
O58 O 0.29312 0.85611 0.68154 0.0
O59 O 0.26816 0.88535 0.62086 0.0
C60 C 0.16803 0.8428 0.66034 0.0
O61 O 0.18257 0.85661 0.68352 0.0
C62 C 0.22018 0.78416 0.66484 0.0
O63 O 0.20162 0.79064 0.68208 0.0
O64 O 0.25069 0.86896 0.68608 0.0
C65 C 0.37831 0.258 0.93117 0.0
O66 O 0.37077 0.22557 0.92674 0.0
O67 O 0.44734 0.24802 0.97248 0.0
Zn68 Zn 0.40068 0.2435 0.9799 0.0
O69 O 0.36401 0.19248 0.97766 0.0
C70 C 0.43062 0.27876 0.02931 0.0
O71 O 0.45889 0.29526 0.01449 0.0
O72 O 0.39143 0.27214 0.9536 0.0
C73 C 0.36427 0.17275 -0.00388 0.0
O74 O 0.38789 0.1866 0.01522 0.0
C75 C 0.45205 0.22812 0.95673 0.0
O76 O 0.42537 0.20378 0.9432 0.0
O77 O 0.4016 0.25826 0.01802 0.0
C78 C 0.58009 0.86426 0.38615 0.0
O79 O 0.56554 0.83149 0.39405 0.0
O80 O 0.5346 0.78958 0.34275 0.0
Zn81 Zn 0.58222 0.83192 0.33811 0.0
O82 O 0.61809 0.81809 0.34683 0.0
C83 C 0.55983 0.83698 0.28528 0.0
O84 O 0.53068 0.82917 0.29788 0.0
O85 O 0.58914 0.87152 0.36178 0.0
C86 C 0.64809 0.83405 0.33588 0.0
O87 O 0.65583 0.86077 0.32005 0.0
C88 C 0.52901 0.76349 0.32833 0.0
O89 O 0.55458 0.76574 0.3134 0.0
O90 O 0.58674 0.84354 0.29896 0.0
C91 C 0.70583 0.59274 0.71131 0.0
O92 O 0.73168 0.58686 0.71633 0.0
O93 O 0.72422 0.5396 0.66599 0.0
Zn94 Zn 0.72602 0.58559 0.65993 0.0
O95 O 0.77624 0.62435 0.66241 0.0
C96 C 0.6936 0.55602 0.60976 0.0
O97 O 0.67781 0.52712 0.62401 0.0
O98 O 0.6971 0.59312 0.6871 0.0
C99 C 0.7962 0.62747 0.64295 0.0
O100 O 0.78318 0.60573 0.62258 0.0
C101 C 0.74939 0.53681 0.67556 0.0
O102 O 0.77755 0.56496 0.68423 0.0
O103 O 0.71106 0.58514 0.62188 0.0
C104 C 0.11972 0.70975 0.05114 0.0
O105 O 0.15144 0.73539 0.05665 0.0
O106 O 0.19268 0.73126 0.0077 0.0
Zn107 Zn 0.14836 0.73215 0.00066 0.0
O108 O 0.16052 0.78233 0.00579 0.0
C109 C 0.14641 0.70221 0.94892 0.0
O110 O 0.16014 0.68613 0.96201 0.0
O111 O 0.11102 0.70175 0.02676 0.0
C112 C 0.15324 0.79897 0.98855 0.0
O113 O 0.13507 0.78247 0.96715 0.0
C114 C 0.21878 0.75221 -0.00646 0.0
O115 O 0.21489 0.77224 0.97599 0.0
O116 O 0.13544 0.7195 0.96205 0.0
C117 C 0.41067 0.12257 0.38819 0.0
O118 O 0.42106 0.15492 0.39566 0.0
O119 O 0.45789 0.19755 0.34669 0.0
Zn120 Zn 0.41256 0.1536 0.3388 0.0
O121 O 0.3744 0.16539 0.34379 0.0
C122 C 0.44197 0.15232 0.28768 0.0
O123 O 0.47097 0.16414 0.30165 0.0
O124 O 0.40535 0.11482 0.36345 0.0
C125 C 0.34897 0.15487 0.32744 0.0
O126 O 0.34604 0.13355 0.3079 0.0
C127 C 0.46396 0.22389 0.33243 0.0
O128 O 0.44056 0.22058 0.31458 0.0
O129 O 0.41332 0.14244 0.29995 0.0
C130 C 0.26957 0.39843 0.72041 0.0
O131 O 0.23657 0.39007 0.72188 0.0
O132 O 0.26656 0.46993 0.67464 0.0
Zn133 Zn 0.26175 0.42255 0.66981 0.0
O134 O 0.21024 0.38694 0.67017 0.0
C135 C 0.29393 0.44646 0.6183 0.0
O136 O 0.30636 0.47753 0.62933 0.0
O137 O 0.28676 0.41296 0.69925 0.0
C138 C 0.19251 0.3832 0.64907 0.0
O139 O 0.20824 0.40262 0.628 0.0
C140 C 0.24738 0.47494 0.69091 0.0
O141 O 0.22494 0.44885 0.70592 0.0
O142 O 0.27854 0.41946 0.63308 0.0
C143 C 0.86735 0.29249 0.05108 0.0
O144 O 0.83403 0.28247 0.05374 0.0
O145 O 0.79692 0.24844 0.00525 0.0
Zn146 Zn 0.8419 0.24743 0.00515 0.0
O147 O 0.83002 0.1984 0.01441 0.0
C148 C 0.85231 0.27633 0.95275 0.0
O149 O 0.84238 0.29655 0.9646 0.0
O150 O 0.87711 0.28159 0.03112 0.0
C151 C 0.84708 0.18495 0.0044 0.0
O152 O 0.8744 0.20437 0.98926 0.0
C153 C 0.77392 0.22714 0.98894 0.0
O154 O 0.78067 0.20594 0.97494 0.0
O155 O 0.8584 0.25615 0.96705 0.0
H156 H 0.22543 0.48608 0.34191 0.0
H157 H 0.28082 0.54036 0.34816 0.0
H158 H 0.28823 0.55863 0.26285 0.0
H159 H 0.23234 0.50432 0.25633 0.0
H160 H 0.34419 0.55412 0.32664 0.0
H161 H 0.30951 0.65354 0.29439 0.0
H162 H 0.27693 0.60901 0.30256 0.0
H163 H 0.29864 0.6189 0.27063 0.0
C164 C 0.2386 0.50174 0.32443 0.0
C165 C 0.22453 0.49082 0.29857 0.0
C166 C 0.27025 0.53278 0.32808 0.0
C167 C 0.28842 0.55361 0.30601 0.0
C168 C 0.27426 0.54319 0.28019 0.0
H169 H 0.5088 0.70523 0.29769 0.0
H170 H 0.45013 0.65456 0.29305 0.0
C171 C 0.24244 0.51208 0.27649 0.0
C172 C 0.32327 0.58495 0.31004 0.0
H173 H 0.36989 0.67371 0.30196 0.0
C174 C 0.34979 0.58029 0.32133 0.0
C175 C 0.3303 0.61903 0.30337 0.0
C176 C 0.3023 0.62562 0.29228 0.0
C177 C 0.38341 0.60881 0.32577 0.0
C178 C 0.39078 0.64276 0.31832 0.0
C179 C 0.36413 0.64755 0.30746 0.0
C180 C 0.42621 0.67352 0.32128 0.0
C181 C 0.41068 0.60241 0.33863 0.0
C182 C 0.432 0.70119 0.33839 0.0
C183 C 0.46555 0.7303 0.34108 0.0
C184 C 0.49375 0.73221 0.32655 0.0
C185 C 0.48773 0.70444 0.30935 0.0
C186 C 0.45424 0.67542 0.3067 0.0
H187 H 0.39862 0.57688 0.34931 0.0
H188 H 0.42818 0.60199 0.32286 0.0
H189 H 0.42695 0.6236 0.35307 0.0
H190 H 0.41058 0.70018 0.34972 0.0
H191 H 0.46932 0.75136 0.35436 0.0
H192 H 0.81084 0.29123 0.61219 0.0
H193 H 0.80679 0.34376 0.62076 0.0
H194 H 0.70706 0.28069 0.65944 0.0
H195 H 0.71092 0.22809 0.65122 0.0
H196 H 0.75441 0.36012 0.60585 0.0
H197 H 0.76716 0.35495 0.71638 0.0
H198 H 0.77786 0.32996 0.69348 0.0
H199 H 0.73296 0.31536 0.70156 0.0
C200 C 0.78792 0.28848 0.62235 0.0
C201 C 0.76132 0.25552 0.63119 0.0
C202 C 0.78568 0.31851 0.62724 0.0
C203 C 0.75694 0.31607 0.64114 0.0
C204 C 0.72977 0.28312 0.64914 0.0
H205 H 0.69731 0.47513 0.65497 0.0
H206 H 0.69879 0.42114 0.64739 0.0
C207 C 0.73195 0.25309 0.64426 0.0
C208 C 0.75556 0.34809 0.64753 0.0
H209 H 0.75402 0.39745 0.69971 0.0
C210 C 0.75435 0.36835 0.62634 0.0
C211 C 0.75596 0.35887 0.67431 0.0
C212 C 0.75887 0.33888 0.69778 0.0
C213 C 0.75296 0.39896 0.63125 0.0
C214 C 0.75233 0.40918 0.65804 0.0
C215 C 0.75413 0.38924 0.67922 0.0
C216 C 0.75041 0.4409 0.6644 0.0
C217 C 0.75272 0.42041 0.60775 0.0
C218 C 0.77841 0.46932 0.67744 0.0
C219 C 0.77762 0.5002 0.68195 0.0
C220 C 0.74869 0.50302 0.6736 0.0
C221 C 0.72006 0.4739 0.66154 0.0
C222 C 0.72092 0.44309 0.65703 0.0
H223 H 0.76145 0.41356 0.58897 0.0
H224 H 0.72569 0.41537 0.60456 0.0
H225 H 0.7699 0.44886 0.61168 0.0
H226 H 0.80129 0.46794 0.68343 0.0
H227 H 0.80004 0.5221 0.69134 0.0
H228 H 0.5218 0.78301 0.04043 0.0
H229 H 0.46501 0.78 0.04195 0.0
H230 H 0.44362 0.74021 0.96097 0.0
H231 H 0.50014 0.74258 0.95938 0.0
H232 H 0.43944 0.81311 0.01003 0.0
H233 H 0.35662 0.66873 0.00148 0.0
H234 H 0.40278 0.69013 0.00912 0.0
H235 H 0.38829 0.68798 0.97509 0.0
C236 C 0.50505 0.77365 0.02291 0.0
C237 C 0.51541 0.76295 -0.00022 0.0
C238 C 0.4726 0.7719 0.02385 0.0
C239 C 0.44993 0.75934 0.00174 0.0
C240 C 0.46043 0.74922 0.97846 0.0
H241 H 0.27714 0.78983 0.96306 0.0
H242 H 0.33316 0.79167 0.96678 0.0
C243 C 0.49282 0.75083 0.97753 0.0
C244 C 0.41563 0.75764 0.00277 0.0
H245 H 0.32781 0.70187 -0.00419 0.0
C246 C 0.41499 0.78877 0.00711 0.0
C247 C 0.38379 0.72574 -0.00059 0.0
C248 C 0.38276 0.69118 -0.00372 0.0
C249 C 0.38336 0.78903 0.00736 0.0
C250 C 0.35167 0.75742 0.00265 0.0
C251 C 0.35221 0.72612 -0.00086 0.0
C252 C 0.31774 0.75642 0.00068 0.0
C253 C 0.38417 0.8231 0.01284 0.0
C254 C 0.29019 0.73521 0.01807 0.0
C255 C 0.25795 0.73383 0.01585 0.0
C256 C 0.25277 0.75357 -0.00386 0.0
C257 C 0.28037 0.77455 0.97863 0.0
C258 C 0.31249 0.77581 0.9808 0.0
H259 H 0.40841 0.84201 0.02363 0.0
H260 H 0.38352 0.83521 -0.00649 0.0
H261 H 0.36119 0.81875 0.0249 0.0
H262 H 0.2937 0.71985 0.03342 0.0
H263 H 0.23716 0.71735 0.02958 0.0
H264 H 0.51655 0.24107 0.3689 0.0
H265 H 0.57201 0.29649 0.37232 0.0
H266 H 0.54262 0.3369 0.30453 0.0
H267 H 0.48704 0.28205 0.30124 0.0
H268 H 0.62472 0.32837 0.33484 0.0
H269 H 0.57005 0.4138 0.36027 0.0
H270 H 0.54448 0.36661 0.36204 0.0
H271 H 0.55145 0.3886 0.33034 0.0
C272 C 0.52181 0.26186 0.35484 0.0
C273 C 0.49731 0.2573 0.33493 0.0
C274 C 0.5535 0.29344 0.35681 0.0
C275 C 0.5611 0.32095 0.33896 0.0
C276 C 0.53687 0.31629 0.31889 0.0
H277 H 0.76141 0.49899 0.29758 0.0
H278 H 0.70668 0.44283 0.29941 0.0
C279 C 0.50518 0.28485 0.31698 0.0
C280 C 0.5948 0.35423 0.34075 0.0
H281 H 0.63001 0.44266 0.3469 0.0
C282 C 0.62595 0.35336 0.33769 0.0
C283 C 0.59628 0.38669 0.34484 0.0
C284 C 0.5638 0.38906 0.34983 0.0
C285 C 0.6586 0.38429 0.33786 0.0
C286 C 0.65995 0.41688 0.34063 0.0
C287 C 0.62885 0.41764 0.34445 0.0
C288 C 0.69332 0.45058 0.33961 0.0
C289 C 0.69133 0.38174 0.33532 0.0
C290 C 0.70343 0.47389 0.36132 0.0
C291 C 0.73441 0.50614 0.36021 0.0
C292 C 0.7558 0.51566 0.33731 0.0
C293 C 0.74555 0.49231 0.31554 0.0
C294 C 0.71444 0.46012 0.31662 0.0
H295 H 0.68652 0.35533 0.34105 0.0
H296 H 0.70022 0.38646 0.31415 0.0
H297 H 0.71274 0.40163 0.34803 0.0
H298 H 0.68739 0.46706 0.37919 0.0
H299 H 0.74166 0.52348 0.37737 0.0
H300 H 0.25758 0.76368 0.63354 0.0
H301 H 0.26364 0.71189 0.63925 0.0
H302 H 0.19543 0.68097 0.70804 0.0
H303 H 0.18967 0.73298 0.7028 0.0
H304 H 0.25546 0.677 0.71665 0.0
H305 H 0.1904 0.61096 0.62154 0.0
H306 H 0.22586 0.65498 0.61717 0.0
H307 H 0.18735 0.64728 0.63516 0.0
C308 C 0.24367 0.74574 0.64978 0.0
C309 C 0.2229 0.75226 0.66757 0.0
C310 C 0.24705 0.71611 0.65294 0.0
C311 C 0.2295 0.69235 0.67379 0.0
C312 C 0.20898 0.6989 0.69171 0.0
H313 H 0.21026 0.49483 0.72317 0.0
H314 H 0.20777 0.54897 0.72046 0.0
C315 C 0.20563 0.72856 0.68861 0.0
C316 C 0.23308 0.66097 0.67721 0.0
H317 H 0.21938 0.58643 0.64566 0.0
C318 C 0.24744 0.65708 0.70121 0.0
C319 C 0.22251 0.63508 0.65701 0.0
C320 C 0.20536 0.63701 0.63137 0.0
C321 C 0.2521 0.6282 0.70535 0.0
C322 C 0.24182 0.60253 0.68505 0.0
C323 C 0.2274 0.60636 0.6611 0.0
C324 C 0.24542 0.57119 0.68823 0.0
C325 C 0.26856 0.62562 0.73114 0.0
C326 C 0.26738 0.56587 0.67097 0.0
C327 C 0.26886 0.53503 0.67243 0.0
C328 C 0.2481 0.5088 0.69103 0.0
C329 C 0.22662 0.51454 0.70867 0.0
C330 C 0.22527 0.5455 0.70724 0.0
H331 H 0.28185 0.651 0.74207 0.0
H332 H 0.24789 0.60584 0.74435 0.0
H333 H 0.28787 0.61702 0.72716 0.0
H334 H 0.28299 0.5854 0.65609 0.0
H335 H 0.28564 0.53142 0.65853 0.0
H336 H 0.72158 0.18693 0.95384 0.0
H337 H 0.66804 0.18873 0.94513 0.0
H338 H 0.6982 0.2698 0.00473 0.0
H339 H 0.75212 0.26848 0.01346 0.0
H340 H 0.6149 0.1769 0.98198 0.0
H341 H 0.67584 0.31042 0.93807 0.0
H342 H 0.69915 0.2867 0.94169 0.0
H343 H 0.69314 0.30814 0.97015 0.0
C344 C 0.71688 0.20518 0.96512 0.0
C345 C 0.74111 0.22761 0.98434 0.0
C346 C 0.6863 0.20618 0.96007 0.0
C347 C 0.6795 0.22975 0.974 0.0
C348 C 0.70338 0.25192 -0.0066 0.0
H349 H 0.51052 0.27216 0.98536 0.0
H350 H 0.56576 0.27222 0.98728 0.0
C351 C 0.73402 0.25094 -0.0015 0.0
C352 C 0.64679 0.23025 0.96882 0.0
H353 H 0.61504 0.28269 0.94787 0.0
C354 C 0.61484 0.19989 0.97432 0.0
C355 C 0.64698 0.26034 0.95882 0.0
C356 C 0.68057 0.29319 0.95159 0.0
C357 C 0.58294 0.19912 0.97085 0.0
C358 C 0.5831 0.22933 0.9611 0.0
C359 C 0.61506 0.25956 0.95526 0.0
C360 C 0.55043 0.23062 0.95818 0.0
C361 C 0.54944 0.1664 0.97853 0.0
C362 C 0.52386 0.20779 0.94063 0.0
C363 C 0.49209 0.20754 0.93955 0.0
C364 C 0.48656 0.23032 0.95588 0.0
C365 C 0.51384 0.25415 0.97259 0.0
C366 C 0.54548 0.25429 0.97371 0.0
H367 H 0.55443 0.14871 0.99131 0.0
H368 H 0.53163 0.17307 0.98944 0.0
H369 H 0.53584 0.15182 0.96009 0.0
H370 H 0.52752 0.18982 0.92807 0.0
H371 H 0.47169 0.18907 0.92633 0.0
H372 H 0.16321 0.30542 0.28966 0.0
H373 H 0.18878 0.26723 0.288 0.0
H374 H 0.24612 0.31443 0.36074 0.0
H375 H 0.22119 0.35279 0.36243 0.0
H376 H 0.28694 0.31085 0.31904 0.0
H377 H 0.16637 0.1823 0.3361 0.0
H378 H 0.1644 0.20857 0.30933 0.0
H379 H 0.16861 0.22353 0.34335 0.0
C380 C 0.18113 0.30752 0.30536 0.0
C381 C 0.19018 0.33214 0.32617 0.0
C382 C 0.19553 0.28556 0.30446 0.0
C383 C 0.21898 0.28777 0.32443 0.0
C384 C 0.22797 0.31226 0.34519 0.0
H385 H 0.34822 0.19968 0.36495 0.0
H386 H 0.31473 0.23007 0.36359 0.0
C387 C 0.21368 0.33418 0.3461 0.0
C388 C 0.23551 0.26574 0.32336 0.0
H389 H 0.21879 0.18146 0.32845 0.0
C390 C 0.27205 0.28255 0.32105 0.0
C391 C 0.21592 0.22884 0.32582 0.0
C392 C 0.17667 0.20962 0.32899 0.0
C393 C 0.28964 0.2635 0.32134 0.0
C394 C 0.27019 0.2267 0.32454 0.0
C395 C 0.23356 0.20972 0.32618 0.0
C396 C 0.28771 0.20567 0.32666 0.0
C397 C 0.32892 0.28291 0.31805 0.0
C398 C 0.28237 0.18075 0.30697 0.0
C399 C 0.30131 0.16312 0.30777 0.0
C400 C 0.32581 0.17012 0.32833 0.0
C401 C 0.32979 0.1939 0.34872 0.0
C402 C 0.31081 0.21142 0.34791 0.0
H403 H 0.33862 0.30914 0.30887 0.0
H404 H 0.34139 0.28679 0.33805 0.0
H405 H 0.33741 0.26777 0.30542 0.0
H406 H 0.26445 0.17582 0.29051 0.0
H407 H 0.29755 0.14488 0.29181 0.0
H408 H 0.86801 0.21135 0.69633 0.0
H409 H 0.93161 0.23966 0.6921 0.0
H410 H 0.92115 0.21952 0.60704 0.0
H411 H 0.85729 0.19093 0.611 0.0
H412 H 0.97478 0.21053 0.66573 0.0
H413 H 0.98484 0.33038 0.61952 0.0
H414 H 0.94752 0.30042 0.63937 0.0
H415 H 0.95294 0.28836 0.60614 0.0
C416 C 0.87916 0.21269 0.67672 0.0
C417 C 0.85766 0.19911 0.65395 0.0
C418 C 0.91546 0.22875 0.6744 0.0
C419 C 0.93087 0.23177 0.64927 0.0
C420 C 0.90957 0.21749 0.62658 0.0
H421 H 0.14985 0.36144 0.6052 0.0
H422 H 0.08667 0.32134 0.60397 0.0
C423 C 0.87317 0.20116 0.6289 0.0
C424 C 0.96932 0.25139 0.6468 0.0
H425 H 0.03726 0.33031 0.62718 0.0
C426 C 0.98857 0.23663 0.65715 0.0
C427 C 0.98695 0.2853 0.63553 0.0
C428 C 0.9672 0.30234 0.62458 0.0
C429 C 0.0253 0.2551 0.65659 0.0
C430 C 0.04305 0.28953 0.64606 0.0
C431 C 0.02363 0.30394 0.63526 0.0
C432 C 0.08168 0.31166 0.64672 0.0
C433 C 0.04466 0.2374 0.66701 0.0
C434 C 0.09986 0.31957 0.67119 0.0
C435 C 0.13604 0.34227 0.67193 0.0
C436 C 0.15455 0.35793 0.64827 0.0
C437 C 0.13631 0.34988 0.62379 0.0
C438 C 0.10022 0.32693 0.62304 0.0
H439 H 0.02809 0.20839 0.66615 0.0
H440 H 0.06898 0.24539 0.65542 0.0
H441 H 0.05191 0.2449 0.68829 0.0
H442 H 0.08597 0.30888 0.68981 0.0
H443 H 0.14933 0.34819 0.69112 0.0
H444 H 0.87278 0.14622 0.98108 0.0
H445 H 0.84587 0.08231 0.98088 0.0
H446 H 0.76415 0.07372 0.03312 0.0
H447 H 0.79054 0.13742 0.03327 0.0
H448 H 0.82672 0.03154 0.02309 0.0
H449 H 0.71229 0.01659 0.96553 0.0
H450 H 0.75234 0.05806 0.96889 0.0
H451 H 0.72112 0.04174 -0.00419 0.0
C452 C 0.8493 0.13077 -0.00722 0.0
C453 C 0.83356 0.14687 0.00694 0.0
C454 C 0.834 0.09429 -0.00736 0.0
C455 C 0.80274 0.07341 0.00658 0.0
C456 C 0.78797 0.08945 0.02184 0.0
H457 H 0.69112 0.85441 0.04626 0.0
H458 H 0.7301 0.91779 0.04553 0.0
C459 C 0.80317 0.12586 0.02198 0.0
C460 C 0.78457 0.03482 0.00422 0.0
H461 H 0.70814 0.96455 0.98295 0.0
C462 C 0.80088 0.01682 0.01419 0.0
C463 C 0.75118 0.01585 -0.00788 0.0
C464 C 0.73327 0.034 0.97973 0.0
C465 C 0.78408 0.98007 0.01318 0.0
C466 C 0.74998 0.96104 0.0022 0.0
C467 C 0.7342 0.97919 -0.00851 0.0
C468 C 0.72948 0.92226 0.00235 0.0
C469 C 0.80301 0.962 0.02372 0.0
C470 C 0.71598 0.90374 0.97831 0.0
C471 C 0.69337 0.8675 0.97866 0.0
C472 C 0.68373 0.84918 0.0031 0.0
C473 C 0.69812 0.86769 0.02708 0.0
C474 C 0.72063 0.90393 0.0267 0.0
H475 H 0.83182 0.97989 0.02383 0.0
H476 H 0.79462 0.95347 0.04466 0.0
H477 H 0.79687 0.9385 0.01155 0.0
H478 H 0.72236 0.91746 0.95931 0.0
H479 H 0.68278 0.85402 0.95984 0.0
H480 H 0.63993 0.77931 0.36684 0.0
H481 H 0.67813 0.75406 0.36882 0.0
H482 H 0.74916 0.8321 0.31314 0.0
H483 H 0.71141 0.8579 0.31133 0.0
H484 H 0.69477 0.72599 0.32578 0.0
H485 H 0.81499 0.83427 0.37182 0.0
H486 H 0.7733 0.83264 0.3728 0.0
H487 H 0.79956 0.8469 0.34294 0.0
C488 C 0.66392 0.79144 0.3553 0.0
C489 C 0.67263 0.82062 0.33891 0.0
C490 C 0.68569 0.77694 0.35644 0.0
C491 C 0.71662 0.79141 0.34133 0.0
C492 C 0.72576 0.82095 0.32536 0.0
H493 H 0.82239 0.67709 0.29622 0.0
H494 H 0.79331 0.71197 0.29569 0.0
C495 C 0.70404 0.83554 0.32425 0.0
C496 C 0.73791 0.77404 0.34087 0.0
H497 H 0.8193 0.78649 0.35405 0.0
C498 C 0.72198 0.73918 0.33201 0.0
C499 C 0.77331 0.79129 0.34918 0.0
C500 C 0.79129 0.82824 0.35996 0.0
C501 C 0.74053 0.72107 0.3311 0.0
C502 C 0.77618 0.73856 0.33877 0.0
C503 C 0.79208 0.77335 0.34786 0.0
C504 C 0.79683 0.72052 0.33859 0.0
C505 C 0.72157 0.68311 0.32251 0.0
C506 C 0.80969 0.71507 0.36273 0.0
C507 C 0.82653 0.6954 0.36309 0.0
C508 C 0.83083 0.68086 0.33927 0.0
C509 C 0.81925 0.68768 0.31493 0.0
C510 C 0.80249 0.70746 0.3146 0.0
H511 H 0.69269 0.67142 0.32344 0.0
H512 H 0.7287 0.68123 0.30149 0.0
H513 H 0.72913 0.66735 0.3353 0.0
H514 H 0.80569 0.72509 0.38143 0.0
H515 H 0.83523 0.69075 0.38216 0.0
H516 H 0.12925 0.80988 0.61579 0.0
H517 H 0.06554 0.77875 0.61148 0.0
H518 H 0.05665 0.80877 0.69212 0.0
H519 H 0.12036 0.84032 0.69656 0.0
H520 H 0.02158 0.72276 0.64466 0.0
H521 H 0.98875 0.8289 0.64987 0.0
H522 H 0.03231 0.83723 0.64245 0.0
H523 H 0.0166 0.82947 0.67639 0.0
C524 C 0.11381 0.8104 0.63246 0.0
C525 C 0.12988 0.82749 0.65656 0.0
C526 C 0.07742 0.79259 0.62995 0.0
C527 C 0.05645 0.79173 0.65139 0.0
C528 C 0.0724 0.80967 0.67516 0.0
H529 H 0.83351 0.67153 0.68424 0.0
H530 H 0.89673 0.71243 0.68599 0.0
C531 C 0.10882 0.82753 0.6777 0.0
C532 C 0.01795 0.76935 0.64974 0.0
H533 H 0.94119 0.77038 0.65281 0.0
C534 C 0.00399 0.73318 0.64624 0.0
C535 C 0.99517 0.78305 0.65211 0.0
C536 C 0.00888 0.82183 0.65519 0.0
C537 C 0.96777 0.7102 0.64535 0.0
C538 C 0.94494 0.72388 0.64748 0.0
C539 C 0.95884 0.76004 0.65112 0.0
C540 C 0.90653 0.70088 0.64582 0.0
C541 C 0.95426 0.67137 0.64272 0.0
C542 C 0.89114 0.68154 0.62244 0.0
C543 C 0.85518 0.6581 0.62142 0.0
C544 C 0.8339 0.65381 0.64369 0.0
C545 C 0.84922 0.67416 0.66678 0.0
C546 C 0.88528 0.69756 0.66781 0.0
H547 H 0.97447 0.66452 0.64835 0.0
H548 H 0.93083 0.65606 0.65549 0.0
H549 H 0.94667 0.66332 0.62157 0.0
H550 H 0.90704 0.68428 0.60508 0.0
H551 H 0.84416 0.64309 0.60323 0.0
H552 H 0.35519 0.12504 0.03461 0.0
H553 H 0.31538 0.06179 0.03362 0.0
H554 H 0.27696 0.07072 0.95621 0.0
H555 H 0.31645 0.13432 0.95715 0.0
H556 H 0.22382 0.02583 -0.00771 0.0
H557 H 0.33093 0.99475 0.98636 0.0
H558 H 0.33499 0.02257 0.01407 0.0
H559 H 0.33794 0.03817 0.98032 0.0
C560 C 0.33827 0.11363 0.01736 0.0
C561 C 0.33919 0.13466 -0.00416 0.0
C562 C 0.31563 0.07746 0.01681 0.0
C563 C 0.29373 0.06158 -0.00536 0.0
C564 C 0.29384 0.08253 0.97343 0.0
H565 H 0.15012 0.844 0.95239 0.0
H566 H 0.18162 0.90803 0.95434 0.0
C567 C 0.31644 0.11881 0.97399 0.0
C568 C 0.27113 0.02304 -0.00647 0.0
H569 H 0.27383 0.94705 -0.00568 0.0
C570 C 0.23467 0.00853 -0.00741 0.0
C571 C 0.28547 0.00065 -0.00619 0.0
C572 C 0.32448 0.01476 -0.00656 0.0
C573 C 0.21207 0.97207 -0.00731 0.0
C574 C 0.22645 0.94974 -0.00659 0.0
C575 C 0.26291 0.9643 -0.00598 0.0
C576 C 0.20441 0.91111 -0.00662 0.0
C577 C 0.17305 0.95773 -0.00736 0.0
C578 C 0.20681 0.89166 0.01469 0.0
C579 C 0.18905 0.85512 0.01359 0.0
C580 C 0.1687 0.83734 0.99105 0.0
C581 C 0.16545 0.85688 0.97009 0.0
C582 C 0.18329 0.89348 0.97121 0.0
H583 H 0.16631 0.97792 -0.00138 0.0
H584 H 0.16271 0.94864 0.97212 0.0
H585 H 0.1597 0.93501 0.00642 0.0
H586 H 0.2231 0.90484 0.03193 0.0
H587 H 0.19209 0.84088 0.03008 0.0
H588 H 0.8543 0.3155 0.09828 0.0
H589 H 0.89411 0.34124 0.1364 0.0
H590 H 0.97626 0.3389 0.09129 0.0
H591 H 0.937 0.3138 0.05306 0.0
H592 H 0.9225 0.30722 0.16251 0.0
H593 H 0.02856 0.43482 0.1259 0.0
H594 H 0.9867 0.41107 0.10919 0.0
H595 H 0.02017 0.3999 0.10319 0.0
C596 C 0.88107 0.32118 0.09627 0.0
C597 C 0.89244 0.3124 0.0727 0.0
C598 C 0.90376 0.3359 0.11807 0.0
C599 C 0.93822 0.34234 0.11656 0.0
C600 C 0.95002 0.33492 0.09268 0.0
H601 H 0.10414 0.3623 0.21289 0.0
H602 H 0.06273 0.35785 0.17848 0.0
C603 C 0.92742 0.32027 0.0709 0.0
C604 C 0.96058 0.3526 0.14078 0.0
H605 H 0.04311 0.40932 0.16318 0.0
C606 C 0.9486 0.32997 0.16295 0.0
C607 C 0.99459 0.38228 0.14124 0.0
C608 C 0.00812 0.40859 0.11869 0.0
C609 C 0.97052 0.33502 0.18488 0.0
C610 C 0.00511 0.36368 0.18469 0.0
C611 C 0.01659 0.38725 0.16312 0.0
C612 C 0.0306 0.36794 0.20565 0.0
C613 C 0.95718 0.30861 0.2074 0.0
C614 C 0.02629 0.37538 0.23224 0.0
C615 C 0.04986 0.37783 0.25203 0.0
C616 C 0.07813 0.37295 0.24544 0.0
C617 C 0.08257 0.36602 0.21866 0.0
C618 C 0.05904 0.36363 0.19894 0.0
H619 H 0.93181 0.28495 0.20238 0.0
H620 H 0.97652 0.30035 0.21233 0.0
H621 H 0.95336 0.32081 0.22559 0.0
H622 H 0.00465 0.37917 0.23769 0.0
H623 H 0.04587 0.38343 0.27245 0.0
H624 H 0.72761 0.13816 0.53631 0.0
H625 H 0.69809 0.0954 0.5005 0.0
H626 H 0.64575 0.01374 0.55933 0.0
H627 H 0.67489 0.05634 0.59534 0.0
H628 H 0.70465 0.03613 0.49201 0.0
H629 H 0.56599 -0.00075 0.50855 0.0
H630 H 0.60219 0.0385 0.52257 0.0
H631 H 0.58817 0.99667 0.53793 0.0
C632 C 0.70954 0.11118 0.54167 0.0
C633 C 0.70362 0.10062 0.56866 0.0
C634 C 0.69269 0.08683 0.52118 0.0
C635 C 0.66945 0.05158 0.52732 0.0
C636 C 0.66308 0.04099 0.55422 0.0
H637 H 0.56666 0.85753 0.43992 0.0
H638 H 0.58686 0.90443 0.47322 0.0
C639 C 0.67995 0.06532 0.57475 0.0
C640 C 0.65394 0.02545 0.50554 0.0
H641 H 0.57633 0.96345 0.47838 0.0
C642 C 0.67662 0.02046 0.48882 0.0
C643 C 0.61737 0.00502 0.50162 0.0
C644 C 0.59196 0.01025 0.51845 0.0
C645 C 0.66367 0.9949 0.46864 0.0
C646 C 0.62708 0.97429 0.46482 0.0
C647 C 0.60437 0.97944 0.48138 0.0
C648 C 0.61207 0.94636 0.44432 0.0
C649 C 0.68919 0.9894 0.45215 0.0
C650 C 0.61874 0.95457 0.41701 0.0
C651 C 0.60734 0.92786 0.39793 0.0
C652 C 0.58896 0.89252 0.40588 0.0
C653 C 0.58094 0.88448 0.43316 0.0
C654 C 0.59237 0.91121 0.45221 0.0
H655 H 0.7156 0.00192 0.46148 0.0
H656 H 0.6797 0.96102 0.44946 0.0
H657 H 0.69176 0.00113 0.43201 0.0
H658 H 0.63344 0.98163 0.41055 0.0
H659 H 0.61371 0.93493 0.37705 0.0
H660 H 0.60826 0.66911 0.92978 0.0
H661 H 0.62002 0.64247 0.89103 0.0
H662 H 0.61404 0.71713 0.83873 0.0
H663 H 0.6022 0.74398 0.87726 0.0
H664 H 0.57925 0.61605 0.83819 0.0
H665 H 0.71566 0.72843 0.83087 0.0
H666 H 0.69013 0.71875 0.8612 0.0
H667 H 0.68098 0.73856 0.83328 0.0
C668 C 0.60913 0.67969 0.91002 0.0
C669 C 0.60463 0.70886 0.9066 0.0
C670 C 0.6157 0.66434 0.88794 0.0
C671 C 0.61805 0.67806 0.8622 0.0
C672 C 0.61243 0.70638 0.85855 0.0
H673 H 0.65145 0.6059 0.7083 0.0
H674 H 0.62703 0.62414 0.74491 0.0
C675 C 0.6057 0.72165 0.88058 0.0
C676 C 0.62869 0.66422 0.83942 0.0
H677 H 0.69794 0.68381 0.7985 0.0
C678 C 0.6051 0.63081 0.82936 0.0
C679 C 0.66254 0.6836 0.82828 0.0
C680 C 0.68901 0.71926 0.83896 0.0
C681 C 0.61461 0.61626 0.8082 0.0
C682 C 0.64844 0.63573 0.79704 0.0
C683 C 0.67197 0.6691 0.80714 0.0
C684 C 0.66063 0.62168 0.77539 0.0
C685 C 0.58886 0.57998 0.79824 0.0
C686 C 0.68744 0.61426 0.78057 0.0
C687 C 0.70141 0.60388 0.75982 0.0
C688 C 0.68901 0.60109 0.73345 0.0
C689 C 0.66156 0.60784 0.72841 0.0
C690 C 0.64748 0.61808 0.74927 0.0
H691 H 0.56575 0.56636 0.81162 0.0
H692 H 0.5796 0.58186 0.77795 0.0
H693 H 0.6017 0.56389 0.79657 0.0
H694 H 0.69796 0.61707 0.80064 0.0
H695 H 0.72249 0.59885 0.76439 0.0
H696 H 0.12906 0.72578 0.10435 0.0
H697 H 0.08545 0.7009 0.13997 0.0
H698 H 0.00869 0.6304 0.08321 0.0
H699 H 0.0522 0.65525 0.04719 0.0
H700 H 0.01717 0.7001 0.1356 0.0
H701 H 0.00556 0.5695 0.1513 0.0
H702 H 0.04445 0.60616 0.13733 0.0
H703 H 0.00555 0.58363 0.11739 0.0
C704 C 0.10305 0.70472 0.09941 0.0
C705 C 0.09403 0.69258 0.07291 0.0
C706 C 0.07821 0.69056 0.11981 0.0
C707 C 0.04407 0.66379 0.11414 0.0
C708 C 0.0351 0.65086 0.08791 0.0
H709 H 0.86171 0.6027 0.21479 0.0
H710 H 0.90067 0.6149 0.17644 0.0
C711 C 0.05992 0.66516 0.0674 0.0
C712 C 0.01737 0.65138 0.13542 0.0
H713 H 0.96915 0.58282 0.17753 0.0
C714 C 0.00648 0.67441 0.1447 0.0
C715 C 0.00381 0.61794 0.14718 0.0
C716 C 0.01542 0.59276 0.13801 0.0
C717 C 0.98235 0.6649 0.16569 0.0
C718 C 0.96878 0.63147 0.17751 0.0
C719 C 0.97958 0.60835 0.1682 0.0
C720 C 0.94427 0.62085 0.20026 0.0
C721 C 0.97207 0.69088 0.17551 0.0
C722 C 0.95586 0.61949 0.22615 0.0
C723 C 0.93379 0.61271 0.24813 0.0
C724 C 0.89972 0.60699 0.24446 0.0
C725 C 0.88784 0.60715 0.21831 0.0
C726 C 0.91 0.61409 0.19638 0.0
H727 H 0.98895 0.71744 0.16698 0.0
H728 H 0.94458 0.6818 0.16962 0.0
H729 H 0.9736 0.69273 0.19773 0.0
H730 H 0.98231 0.62469 0.22942 0.0
H731 H 0.94364 0.61257 0.268 0.0
H732 H 0.38826 0.05311 0.37972 0.0
H733 H 0.37067 0.00722 0.41365 0.0
H734 H 0.3971 0.08407 0.47621 0.0
H735 H 0.41526 0.13016 0.44257 0.0
H736 H 0.41836 0.03432 0.48688 0.0
H737 H 0.27878 0.97185 0.45542 0.0
H738 H 0.30923 0.97704 0.42948 0.0
H739 H 0.31132 0.0151 0.44449 0.0
C740 C 0.39061 0.06029 0.4007 0.0
C741 C 0.40277 0.0952 0.40847 0.0
C742 C 0.38045 0.03404 0.42003 0.0
C743 C 0.38208 0.04226 0.44735 0.0
C744 C 0.39556 0.07724 0.45518 0.0
H745 H 0.31092 0.94425 0.59968 0.0
H746 H 0.34182 0.9834 0.56228 0.0
C747 C 0.40582 0.10351 0.43592 0.0
C748 C 0.36809 0.01438 0.46787 0.0
H749 H 0.29197 0.9456 0.49109 0.0
C750 C 0.39079 0.01473 0.48774 0.0
C751 C 0.33209 0.98895 0.46886 0.0
C752 C 0.30629 0.98821 0.44859 0.0
C753 C 0.37831 0.99044 0.50883 0.0
C754 C 0.34219 0.96561 0.51017 0.0
C755 C 0.31969 0.96466 0.4899 0.0
C756 C 0.32658 0.94172 0.53323 0.0
C757 C 0.40382 0.99159 0.52951 0.0
C758 C 0.30755 0.90537 0.52919 0.0
C759 C 0.28965 0.88293 0.55047 0.0
C760 C 0.29024 0.89653 0.57609 0.0
C761 C 0.30999 0.93295 0.58019 0.0
C762 C 0.3279 0.95535 0.5589 0.0
H763 H 0.43099 0.0047 0.5216 0.0
H764 H 0.40345 0.00669 0.54719 0.0
H765 H 0.39658 0.96481 0.53629 0.0
H766 H 0.30604 0.89442 0.50944 0.0
H767 H 0.27471 0.855 0.54666 0.0
H768 H 0.34166 0.23244 0.88476 0.0
H769 H 0.33166 0.26498 0.84972 0.0
H770 H 0.39179 0.3609 0.89433 0.0
H771 H 0.40112 0.32827 0.92999 0.0
H772 H 0.33251 0.35531 0.8758 0.0
H773 H 0.39838 0.32776 0.79313 0.0
H774 H 0.3659 0.28789 0.8085 0.0
H775 H 0.40326 0.31897 0.82773 0.0
C776 C 0.35291 0.26048 0.88709 0.0
C777 C 0.37229 0.27783 0.91007 0.0
C778 C 0.34743 0.2791 0.86693 0.0
C779 C 0.36174 0.31548 0.86911 0.0
C780 C 0.38084 0.33287 0.89215 0.0
H781 H 0.33911 0.42064 0.72761 0.0
H782 H 0.36597 0.40676 0.7651 0.0
C783 C 0.38607 0.31419 0.9125 0.0
C784 C 0.35506 0.33482 0.84789 0.0
H785 H 0.35631 0.34486 0.78005 0.0
C786 C 0.33823 0.35354 0.8549 0.0
C787 C 0.36332 0.33326 0.82071 0.0
C788 C 0.38408 0.31621 0.81212 0.0
C789 C 0.32748 0.36889 0.83526 0.0
C790 C 0.33286 0.36449 0.8079 0.0
C791 C 0.35165 0.3477 0.80101 0.0
C792 C 0.31716 0.37487 0.7861 0.0
C793 C 0.31018 0.38934 0.84405 0.0
C794 C 0.28085 0.36126 0.78538 0.0
C795 C 0.26552 0.36933 0.76418 0.0
C796 C 0.28616 0.39066 0.74302 0.0
C797 C 0.32254 0.40411 0.74363 0.0
C798 C 0.33791 0.39628 0.76503 0.0
H799 H 0.3193 0.40085 0.86431 0.0
H800 H 0.31552 0.41078 0.82978 0.0
H801 H 0.28146 0.37142 0.84516 0.0
H802 H 0.26419 0.34378 0.80096 0.0
H803 H 0.23739 0.35831 0.76417 0.0
H804 H 0.11933 0.35403 0.39983 0.0
H805 H 0.1477 0.3587 0.4429 0.0
H806 H 0.18485 0.46965 0.44491 0.0
H807 H 0.15673 0.46539 0.40177 0.0
H808 H 0.23796 0.44988 0.44826 0.0
H809 H 0.12997 0.37768 0.5212 0.0
H810 H 0.12624 0.3555 0.49005 0.0
H811 H 0.12387 0.39499 0.49012 0.0
C812 C 0.13263 0.37926 0.40978 0.0
C813 C 0.13605 0.40941 0.39722 0.0
C814 C 0.14882 0.38185 0.43441 0.0
C815 C 0.16842 0.41453 0.44695 0.0
C816 C 0.16985 0.44422 0.43543 0.0
H817 H 0.30686 0.49756 0.58161 0.0
H818 H 0.28009 0.48875 0.53744 0.0
C819 C 0.15359 0.44166 0.41084 0.0
C820 C 0.19045 0.41838 0.47046 0.0
H821 H 0.1873 0.39493 0.53592 0.0
C822 C 0.22696 0.43798 0.46749 0.0
C823 C 0.17591 0.40239 0.49528 0.0
C824 C 0.13685 0.38164 0.49957 0.0
C825 C 0.24944 0.44202 0.48879 0.0
C826 C 0.23492 0.42655 0.5138 0.0
C827 C 0.19837 0.40659 0.51665 0.0
C828 C 0.25681 0.43231 0.53785 0.0
C829 C 0.28845 0.46239 0.48423 0.0
C830 C 0.25348 0.40359 0.55242 0.0
C831 C 0.26862 0.40852 0.57779 0.0
C832 C 0.28706 0.44226 0.58912 0.0
C833 C 0.29284 0.47123 0.57351 0.0
C834 C 0.27759 0.46625 0.54816 0.0
H835 H 0.29497 0.4628 0.46267 0.0
H836 H 0.29879 0.4899 0.49079 0.0
H837 H 0.30197 0.45118 0.49588 0.0
H838 H 0.23761 0.37719 0.54475 0.0
H839 H 0.2638 0.38564 0.58923 0.0
H840 H 0.82075 0.30007 0.91814 0.0
H841 H 0.79739 0.27641 0.87376 0.0
H842 H 0.84506 0.21173 0.87739 0.0
H843 H 0.8681 0.23477 0.92199 0.0
H844 H 0.82605 0.27156 0.82491 0.0
H845 H 0.74017 0.14046 0.86977 0.0
H846 H 0.76359 0.17966 0.88976 0.0
H847 H 0.78598 0.15831 0.8765 0.0
C848 C 0.82697 0.28141 0.90929 0.0
C849 C 0.84585 0.2689 0.92376 0.0
C850 C 0.81345 0.2678 0.88397 0.0
C851 C 0.81867 0.24161 0.87273 0.0
C852 C 0.83998 0.23126 0.8861 0.0
H853 H 0.75479 0.12483 0.7251 0.0
H854 H 0.77645 0.14627 0.77029 0.0
C855 C 0.85338 0.2447 0.91147 0.0
C856 C 0.80026 0.22381 0.84776 0.0
H857 H 0.73992 0.14406 0.8223 0.0
C858 C 0.80714 0.24374 0.82433 0.0
C859 C 0.77537 0.18752 0.84723 0.0
C860 C 0.76551 0.16523 0.87219 0.0
C861 C 0.79032 0.22814 0.80013 0.0
C862 C 0.76578 0.19183 0.79955 0.0
C863 C 0.75877 0.1719 0.82296 0.0
C864 C 0.74802 0.17415 0.77445 0.0
C865 C 0.79933 0.25042 0.77521 0.0
C866 C 0.7235 0.18133 0.76257 0.0
C867 C 0.71086 0.16895 0.73683 0.0
C868 C 0.72279 0.14942 0.72256 0.0
C869 C 0.74523 0.13998 0.73547 0.0
C870 C 0.75772 0.15225 0.76126 0.0
H871 H 0.82298 0.27659 0.77805 0.0
H872 H 0.80383 0.23712 0.75804 0.0
H873 H 0.77708 0.25432 0.76994 0.0
H874 H 0.71543 0.19787 0.77271 0.0
H875 H 0.6935 0.17659 0.72754 0.0
H876 H 0.50262 0.80532 0.2523 0.0
H877 H 0.49948 0.77852 0.20864 0.0
H878 H 0.61121 0.82099 0.20992 0.0
H879 H 0.61471 0.8477 0.25357 0.0
H880 H 0.53547 0.80543 0.15769 0.0
H881 H 0.56775 0.71233 0.20727 0.0
H882 H 0.55378 0.73845 0.2257 0.0
H883 H 0.59812 0.75775 0.214 0.0
C884 C 0.52666 0.80969 0.24302 0.0
C885 C 0.55887 0.82821 0.25658 0.0
C886 C 0.52475 0.79422 0.21814 0.0
C887 C 0.55498 0.79709 0.20652 0.0
C888 C 0.5875 0.81791 0.21894 0.0
H889 H 0.61795 0.73093 0.06855 0.0
H890 H 0.61042 0.74835 0.11341 0.0
C891 C 0.58946 0.83334 0.24378 0.0
C892 C 0.55245 0.77668 0.1823 0.0
H893 H 0.5678 0.71254 0.15956 0.0
C894 C 0.54214 0.78485 0.15806 0.0
C895 C 0.56092 0.74969 0.18308 0.0
C896 C 0.57046 0.73872 0.20894 0.0
C897 C 0.54164 0.76776 0.13418 0.0
C898 C 0.55112 0.74146 0.13484 0.0
C899 C 0.56049 0.73265 0.15923 0.0
C900 C 0.55426 0.72504 0.10999 0.0
C901 C 0.53243 0.77895 0.10825 0.0
C902 C 0.52487 0.70439 0.09396 0.0
C903 C 0.52904 0.69422 0.06833 0.0
C904 C 0.56271 0.70474 0.0584 0.0
C905 C 0.5917 0.72264 0.07554 0.0
C906 C 0.58748 0.73269 0.10115 0.0
H907 H 0.5318 0.8037 0.11054 0.0
H908 H 0.55153 0.78263 0.09231 0.0
H909 H 0.50617 0.7582 0.10148 0.0
H910 H 0.49895 0.69772 0.10073 0.0
H911 H 0.50614 0.68036 0.05567 0.0
H912 H 0.82524 0.50944 0.39392 0.0
H913 H 0.79321 0.5023 0.43559 0.0
H914 H 0.85051 0.61409 0.44794 0.0
H915 H 0.88276 0.62166 0.40636 0.0
H916 H 0.81521 0.5299 0.49264 0.0
H917 H 0.74276 0.58243 0.43613 0.0
H918 H 0.76765 0.56542 0.41975 0.0
H919 H 0.78973 0.60823 0.43468 0.0
C920 C 0.83196 0.53245 0.40592 0.0
C921 C 0.85617 0.56621 0.39659 0.0
C922 C 0.81346 0.52828 0.42966 0.0
C923 C 0.81906 0.55775 0.44435 0.0
C924 C 0.84557 0.59112 0.43653 0.0
H925 H 0.73134 0.61045 0.57542 0.0
H926 H 0.75733 0.60742 0.53307 0.0
C927 C 0.86407 0.59534 0.41286 0.0
C928 C 0.79503 0.55414 0.46624 0.0
H929 H 0.73176 0.57374 0.48284 0.0
C930 C 0.79671 0.53914 0.49053 0.0
C931 C 0.77089 0.56609 0.46314 0.0
C932 C 0.76729 0.58121 0.43697 0.0
C933 C 0.77571 0.53708 0.51236 0.0
C934 C 0.75202 0.54972 0.50945 0.0
C935 C 0.74984 0.56397 0.4849 0.0
C936 C 0.73136 0.5508 0.53236 0.0
C937 C 0.78006 0.52274 0.53866 0.0
C938 C 0.70656 0.51988 0.54506 0.0
C939 C 0.69155 0.52148 0.5693 0.0
C940 C 0.7012 0.55408 0.58114 0.0
C941 C 0.72355 0.58492 0.56698 0.0
C942 C 0.73852 0.58327 0.5428 0.0
H943 H 0.80411 0.52063 0.53902 0.0
H944 H 0.7812 0.53962 0.55562 0.0
H945 H 0.75723 0.49617 0.54188 0.0
H946 H 0.70011 0.49456 0.53692 0.0
H947 H 0.67421 0.49721 0.57955 0.0
H948 H 0.18771 0.68749 0.91681 0.0
H949 H 0.21168 0.71375 0.87313 0.0
H950 H 0.1464 0.76078 0.87218 0.0
H951 H 0.1224 0.73491 0.91585 0.0
H952 H 0.18126 0.71547 0.82079 0.0
H953 H 0.25005 0.84404 0.87311 0.0
H954 H 0.23075 0.80278 0.89076 0.0
H955 H 0.20357 0.81939 0.87848 0.0
C956 C 0.17769 0.70259 0.907 0.0
C957 C 0.15358 0.70962 0.92001 0.0
C958 C 0.19153 0.71767 0.88209 0.0
C959 C 0.18138 0.73984 0.8699 0.0
C960 C 0.15499 0.74425 0.88163 0.0
H961 H 0.23454 0.87402 0.73431 0.0
H962 H 0.21644 0.84528 0.7779 0.0
C963 C 0.14119 0.72928 0.9065 0.0
C964 C 0.2004 0.76084 0.84624 0.0
H965 H 0.25303 0.84524 0.82558 0.0
C966 C 0.19721 0.7438 0.82179 0.0
C967 C 0.22139 0.79774 0.84784 0.0
C968 C 0.227 0.81715 0.87399 0.0
C969 C 0.21337 0.76295 0.7985 0.0
C970 C 0.23367 0.79996 0.8 0.0
C971 C 0.23749 0.81688 0.8246 0.0
C972 C 0.24907 0.8216 0.77582 0.0
C973 C 0.20756 0.74362 0.77228 0.0
C974 C 0.27486 0.81934 0.76104 0.0
C975 C 0.28544 0.8359 0.73616 0.0
C976 C 0.27023 0.85484 0.72573 0.0
C977 C 0.24659 0.85945 0.7417 0.0
C978 C 0.23612 0.84296 0.76657 0.0
H979 H 0.18603 0.71596 0.77364 0.0
H980 H 0.20132 0.75682 0.75602 0.0
H981 H 0.23185 0.7436 0.7666 0.0
H982 H 0.28565 0.8035 0.76819 0.0
H983 H 0.3038 0.83192 0.72442 0.0
H984 H 0.38724 0.13169 0.25301 0.0
H985 H 0.38923 0.15576 0.20856 0.0
H986 H 0.5019 0.21574 0.21278 0.0
H987 H 0.50027 0.19154 0.25716 0.0
H988 H 0.41808 0.22869 0.20199 0.0
H989 H 0.48294 0.1766 0.13587 0.0
H990 H 0.46318 0.15648 0.16748 0.0
H991 H 0.50519 0.19579 0.16685 0.0
C992 C 0.41252 0.14924 0.2442 0.0
C993 C 0.44359 0.15991 0.25871 0.0
C994 C 0.41358 0.16306 0.21884 0.0
C995 C 0.44568 0.18756 0.20748 0.0
C996 C 0.47688 0.19654 0.2211 0.0
H997 H 0.49064 0.30659 0.0592 0.0
H998 H 0.49638 0.29004 0.1049 0.0
C999 C 0.47587 0.18265 0.24647 0.0
C1000 C 0.44614 0.20632 0.18281 0.0
H1001 H 0.4726 0.22007 0.11757 0.0
C1002 C 0.42999 0.22683 0.1835 0.0
C1003 C 0.4621 0.20414 0.15893 0.0
C1004 C 0.47913 0.18188 0.15702 0.0
C1005 C 0.42905 0.24501 0.16077 0.0
C1006 C 0.44424 0.24216 0.13668 0.0
C1007 C 0.46112 0.22231 0.13616 0.0
C1008 C 0.44067 0.25721 0.11121 0.0
C1009 C 0.41191 0.26717 0.16275 0.0
C1010 C 0.40739 0.24513 0.10005 0.0
C1011 C 0.40398 0.25458 0.07401 0.0
C1012 C 0.43386 0.27601 0.05859 0.0
C1013 C 0.4671 0.29002 0.07051 0.0
C1014 C 0.47047 0.28048 0.09658 0.0
H1015 H 0.41135 0.2752 0.18378 0.0
H1016 H 0.4257 0.29105 0.15014 0.0
H1017 H 0.38446 0.25169 0.1556 0.0
H1018 H 0.38407 0.22673 0.11086 0.0
H1019 H 0.378 0.24333 0.06543 0.0
loop_
_geom_bond_atom_site_label_1
_geom_bond_atom_site_label_2
_geom_bond_distance
_geom_bond_site_symmetry_2
_ccdc_geom_bond_type
C0 O1 1.160 . S
C0 O7 1.185 . S
O1 C0 1.160 . S
O2 Zn3 1.899 . S
O2 C10 1.284 . S
Zn3 O2 1.899 . S
Zn3 O4 2.032 . S
Zn3 O7 2.086 . S
Zn3 O12 1.977 . S
O4 Zn3 2.032 . S
O4 C8 1.278 . S
C5 O6 1.203 . S
C5 O12 1.267 . S
O6 C5 1.203 . S
O7 C0 1.185 . S
O7 Zn3 2.086 . S
C8 O4 1.278 . S
C8 O9 1.211 . S
O9 C8 1.211 . S
C10 O2 1.284 . S
C10 O11 1.273 . S
O11 C10 1.273 . S
O12 Zn3 1.977 . S
O12 C5 1.267 . S
C13 O14 1.160 . S
C13 O20 1.185 . S
O14 C13 1.160 . S
O15 Zn16 1.899 . S
O15 C23 1.284 . S
Zn16 O15 1.899 . S
Zn16 O17 2.032 . S
Zn16 O20 2.086 . S
Zn16 O25 1.977 . S
O17 Zn16 2.032 . S
O17 C21 1.278 . S
C18 O19 1.203 . S
C18 O25 1.267 . S
O19 C18 1.203 . S
O20 C13 1.185 . S
O20 Zn16 2.086 . S
C21 O17 1.278 . S
C21 O22 1.211 . S
O22 C21 1.211 . S
C23 O15 1.284 . S
C23 O24 1.273 . S
O24 C23 1.273 . S
O25 Zn16 1.977 . S
O25 C18 1.267 . S
C26 O27 1.160 . S
C26 O33 1.185 . S
O27 C26 1.160 . S
O28 Zn29 1.904 . S
O28 C36 1.284 . S
Zn29 O28 1.904 . S
Zn29 O30 2.044 . S
Zn29 O33 2.103 . S
Zn29 O38 1.947 1_556 S
O30 Zn29 2.044 . S
O30 C34 1.278 . S
C31 O32 1.203 . S
C31 O38 1.267 . S
O32 C31 1.203 . S
O33 C26 1.185 . S
O33 Zn29 2.103 . S
C34 O30 1.278 . S
C34 O35 1.211 1_556 S
O35 C34 1.211 1_554 S
C36 O28 1.284 . S
C36 O37 1.273 . S
O37 C36 1.273 . S
O38 Zn29 1.947 1_554 S
O38 C31 1.267 . S
C39 O40 1.160 . S
C39 O46 1.185 . S
O40 C39 1.160 . S
O41 Zn42 1.899 . S
O41 C49 1.284 . S
Zn42 O41 1.899 . S
Zn42 O43 2.032 . S
Zn42 O46 2.086 . S
Zn42 O51 1.977 . S
O43 Zn42 2.032 . S
O43 C47 1.278 . S
C44 O45 1.203 . S
C44 O51 1.267 . S
O45 C44 1.203 . S
O46 C39 1.185 . S
O46 Zn42 2.086 . S
C47 O43 1.278 . S
C47 O48 1.211 . S
O48 C47 1.211 . S
C49 O41 1.284 . S
C49 O50 1.273 . S
O50 C49 1.273 . S
O51 Zn42 1.977 . S
O51 C44 1.267 . S
C52 O53 1.160 . S
C52 O59 1.185 . S
O53 C52 1.160 . S
O54 Zn55 1.899 . S
O54 C62 1.284 . S
Zn55 O54 1.899 . S
Zn55 O56 2.032 . S
Zn55 O59 2.086 . S
Zn55 O64 1.977 . S
O56 Zn55 2.032 . S
O56 C60 1.278 . S
C57 O58 1.203 . S
C57 O64 1.267 . S
O58 C57 1.203 . S
O59 C52 1.185 . S
O59 Zn55 2.086 . S
C60 O56 1.278 . S
C60 O61 1.211 . S
O61 C60 1.211 . S
C62 O54 1.284 . S
C62 O63 1.273 . S
O63 C62 1.273 . S
O64 Zn55 1.977 . S
O64 C57 1.267 . S
C65 O66 1.160 . S
C65 O72 1.185 . S
O66 C65 1.160 . S
O67 Zn68 1.904 . S
O67 C75 1.284 . S
Zn68 O67 1.904 . S
Zn68 O69 2.044 . S
Zn68 O72 2.103 . S
Zn68 O77 1.947 1_556 S
O69 Zn68 2.044 . S
O69 C73 1.278 . S
C70 O71 1.203 . S
C70 O77 1.267 . S
O71 C70 1.203 . S
O72 C65 1.185 . S
O72 Zn68 2.103 . S
C73 O69 1.278 . S
C73 O74 1.211 1_556 S
O74 C73 1.211 1_554 S
C75 O67 1.284 . S
C75 O76 1.273 . S
O76 C75 1.273 . S
O77 Zn68 1.947 1_554 S
O77 C70 1.267 . S
C78 O79 1.160 . S
C78 O85 1.185 . S
O79 C78 1.160 . S
O80 Zn81 1.899 . S
O80 C88 1.284 . S
Zn81 O80 1.899 . S
Zn81 O82 2.032 . S
Zn81 O85 2.086 . S
Zn81 O90 1.977 . S
O82 Zn81 2.032 . S
O82 C86 1.278 . S
C83 O84 1.203 . S
C83 O90 1.267 . S
O84 C83 1.203 . S
O85 C78 1.185 . S
O85 Zn81 2.086 . S
C86 O82 1.278 . S
C86 O87 1.211 . S
O87 C86 1.211 . S
C88 O80 1.284 . S
C88 O89 1.273 . S
O89 C88 1.273 . S
O90 Zn81 1.977 . S
O90 C83 1.267 . S
C91 O92 1.160 . S
C91 O98 1.185 . S
O92 C91 1.160 . S
O93 Zn94 1.899 . S
O93 C101 1.284 . S
Zn94 O93 1.899 . S
Zn94 O95 2.032 . S
Zn94 O98 2.086 . S
Zn94 O103 1.977 . S
O95 Zn94 2.032 . S
O95 C99 1.278 . S
C96 O97 1.203 . S
C96 O103 1.267 . S
O97 C96 1.203 . S
O98 C91 1.185 . S
O98 Zn94 2.086 . S
C99 O95 1.278 . S
C99 O100 1.211 . S
O100 C99 1.211 . S
C101 O93 1.284 . S
C101 O102 1.273 . S
O102 C101 1.273 . S
O103 Zn94 1.977 . S
O103 C96 1.267 . S
C104 O105 1.160 . S
C104 O111 1.185 . S
O105 C104 1.160 . S
O106 Zn107 1.904 . S
O106 C114 1.284 . S
Zn107 O106 1.904 . S
Zn107 O108 2.044 . S
Zn107 O111 2.103 . S
Zn107 O116 1.947 1_554 S
O108 Zn107 2.044 . S
O108 C112 1.278 . S
C109 O110 1.203 . S
C109 O116 1.267 . S
O110 C109 1.203 . S
O111 C104 1.185 . S
O111 Zn107 2.103 . S
C112 O108 1.278 . S
C112 O113 1.211 1_554 S
O113 C112 1.211 1_556 S
C114 O106 1.284 . S
C114 O115 1.273 . S
O115 C114 1.273 . S
O116 Zn107 1.947 1_556 S
O116 C109 1.267 . S
C117 O118 1.160 . S
C117 O124 1.185 . S
O118 C117 1.160 . S
O119 Zn120 1.899 . S
O119 C127 1.284 . S
Zn120 O119 1.899 . S
Zn120 O121 2.032 . S
Zn120 O124 2.086 . S
Zn120 O129 1.977 . S
O121 Zn120 2.032 . S
O121 C125 1.278 . S
C122 O123 1.203 . S
C122 O129 1.267 . S
O123 C122 1.203 . S
O124 C117 1.185 . S
O124 Zn120 2.086 . S
C125 O121 1.278 . S
C125 O126 1.211 . S
O126 C125 1.211 . S
C127 O119 1.284 . S
C127 O128 1.273 . S
O128 C127 1.273 . S
O129 Zn120 1.977 . S
O129 C122 1.267 . S
C130 O131 1.160 . S
C130 O137 1.185 . S
O131 C130 1.160 . S
O132 Zn133 1.899 . S
O132 C140 1.284 . S
Zn133 O132 1.899 . S
Zn133 O134 2.032 . S
Zn133 O137 2.086 . S
Zn133 O142 1.977 . S
O134 Zn133 2.032 . S
O134 C138 1.278 . S
C135 O136 1.203 . S
C135 O142 1.267 . S
O136 C135 1.203 . S
O137 C130 1.185 . S
O137 Zn133 2.086 . S
C138 O134 1.278 . S
C138 O139 1.211 . S
O139 C138 1.211 . S
C140 O132 1.284 . S
C140 O141 1.273 . S
O141 C140 1.273 . S
O142 Zn133 1.977 . S
O142 C135 1.267 . S
C143 O144 1.160 . S
C143 O150 1.185 . S
O144 C143 1.160 . S
O145 Zn146 1.904 . S
O145 C153 1.284 . S
Zn146 O145 1.904 . S
Zn146 O147 2.044 . S
Zn146 O150 2.103 . S
Zn146 O155 1.947 1_554 S
O147 Zn146 2.044 . S
O147 C151 1.278 . S
C148 O149 1.203 . S
C148 O155 1.267 . S
O149 C148 1.203 . S
O150 C143 1.185 . S
O150 Zn146 2.103 . S
C151 O147 1.278 . S
C151 O152 1.211 1_554 S
O152 C151 1.211 1_556 S
C153 O145 1.284 . S
C153 O154 1.273 . S
O154 C153 1.273 . S
O155 Zn146 1.947 1_556 S
O155 C148 1.267 . S
H156 C164 0.929 . S
H157 C166 0.930 . S
H158 C168 0.930 . S
H159 C171 0.929 . S
H160 C174 0.930 . S
H161 C176 0.960 . S
H162 C176 0.960 . S
H163 C176 0.960 . S
C164 H156 0.929 . S
C164 C165 1.377 . S
C164 C166 1.384 . S
C165 C164 1.377 . S
C165 C171 1.390 . S
C166 H157 0.930 . S
C166 C164 1.384 . S
C166 C167 1.372 . S
C167 C166 1.372 . S
C167 C168 1.400 . S
C167 C172 1.490 . S
C168 H158 0.930 . S
C168 C167 1.400 . S
C168 C171 1.386 . S
H169 C185 0.930 . S
H170 C186 0.931 . S
C171 H159 0.929 . S
C171 C165 1.390 . S
C171 C168 1.386 . S
C172 C167 1.490 . S
C172 C174 1.395 . S
C172 C175 1.403 . S
H173 C179 0.930 . S
C174 H160 0.930 . S
C174 C172 1.395 . S
C174 C177 1.403 . S
C175 C172 1.403 . S
C175 C176 1.524 . S
C175 C179 1.400 . S
C176 H161 0.960 . S
C176 H162 0.960 . S
C176 H163 0.960 . S
C176 C175 1.524 . S
C177 C174 1.403 . S
C177 C178 1.392 . S
C177 C181 1.495 . S
C178 C177 1.392 . S
C178 C179 1.385 . S
C178 C180 1.478 . S
C179 H173 0.930 . S
C179 C175 1.400 . S
C179 C178 1.385 . S
C180 C178 1.478 . S
C180 C182 1.381 . S
C180 C186 1.383 . S
C181 C177 1.495 . S
C181 H187 0.959 . S
C181 H188 0.961 . S
C181 H189 0.960 . S
C182 C180 1.381 . S
C182 C183 1.394 . S
C182 H190 0.930 . S
C183 C182 1.394 . S
C183 C184 1.383 . S
C183 H191 0.929 . S
C184 C183 1.383 . S
C184 C185 1.377 . S
C185 H169 0.930 . S
C185 C184 1.377 . S
C185 C186 1.379 . S
C186 H170 0.931 . S
C186 C180 1.383 . S
C186 C185 1.379 . S
H187 C181 0.959 . S
H188 C181 0.961 . S
H189 C181 0.960 . S
H190 C182 0.930 . S
H191 C183 0.929 . S
H192 C200 0.929 . S
H193 C202 0.930 . S
H194 C204 0.930 . S
H195 C207 0.929 . S
H196 C210 0.930 . S
H197 C212 0.960 . S
H198 C212 0.960 . S
H199 C212 0.960 . S
C200 H192 0.929 . S
C200 C201 1.377 . S
C200 C202 1.384 . S
C201 C200 1.377 . S
C201 C207 1.390 . S
C202 H193 0.930 . S
C202 C200 1.384 . S
C202 C203 1.372 . S
C203 C202 1.372 . S
C203 C204 1.400 . S
C203 C208 1.490 . S
C204 H194 0.930 . S
C204 C203 1.400 . S
C204 C207 1.386 . S
H205 C221 0.930 . S
H206 C222 0.931 . S
C207 H195 0.929 . S
C207 C201 1.390 . S
C207 C204 1.386 . S
C208 C203 1.490 . S
C208 C210 1.395 . S
C208 C211 1.403 . S
H209 C215 0.930 . S
C210 H196 0.930 . S
C210 C208 1.395 . S
C210 C213 1.403 . S
C211 C208 1.403 . S
C211 C212 1.524 . S
C211 C215 1.400 . S
C212 H197 0.960 . S
C212 H198 0.960 . S
C212 H199 0.960 . S
C212 C211 1.524 . S
C213 C210 1.403 . S
C213 C214 1.392 . S
C213 C217 1.495 . S
C214 C213 1.392 . S
C214 C215 1.385 . S
C214 C216 1.478 . S
C215 H209 0.930 . S
C215 C211 1.400 . S
C215 C214 1.385 . S
C216 C214 1.478 . S
C216 C218 1.381 . S
C216 C222 1.383 . S
C217 C213 1.495 . S
C217 H223 0.959 . S
C217 H224 0.961 . S
C217 H225 0.960 . S
C218 C216 1.381 . S
C218 C219 1.394 . S
C218 H226 0.930 . S
C219 C218 1.394 . S
C219 C220 1.383 . S
C219 H227 0.929 . S
C220 C219 1.383 . S
C220 C221 1.377 . S
C221 H205 0.930 . S
C221 C220 1.377 . S
C221 C222 1.379 . S
C222 H206 0.931 . S
C222 C216 1.383 . S
C222 C221 1.379 . S
H223 C217 0.959 . S
H224 C217 0.961 . S
H225 C217 0.960 . S
H226 C218 0.930 . S
H227 C219 0.929 . S
H228 C236 0.929 . S
H229 C238 0.930 . S
H230 C240 0.930 . S
H231 C243 0.929 . S
H232 C246 0.930 . S
H233 C248 0.960 . S
H234 C248 0.932 1_554 S
H235 C248 0.960 . S
C236 H228 0.929 . S
C236 C237 1.377 1_554 S
C236 C238 1.384 . S
C237 C236 1.377 1_556 S
C237 C243 1.390 . S
C238 H229 0.930 . S
C238 C236 1.384 . S
C238 C239 1.372 1_554 S
C239 C238 1.372 1_556 S
C239 C240 1.400 . S
C239 C244 1.490 . S
C240 H230 0.930 . S
C240 C239 1.400 . S
C240 C243 1.386 . S
H241 C257 0.930 . S
H242 C258 0.931 . S
C243 H231 0.929 . S
C243 C237 1.390 . S
C243 C240 1.386 . S
C244 C239 1.490 . S
C244 C246 1.395 1_556 S
C244 C247 1.403 . S
H245 C251 0.930 . S
C246 H232 0.930 . S
C246 C244 1.395 1_554 S
C246 C249 1.403 . S
C247 C244 1.403 . S
C247 C248 1.524 . S
C247 C251 1.400 . S
C248 H233 0.960 . S
C248 H234 0.932 1_556 S
C248 H235 0.960 . S
C248 C247 1.524 . S
C249 C246 1.403 . S
C249 C250 1.392 . S
C249 C253 1.495 . S
C250 C249 1.392 . S
C250 C251 1.385 1_554 S
C250 C252 1.478 . S
C251 H245 0.930 . S
C251 C247 1.400 . S
C251 C250 1.385 1_556 S
C252 C250 1.478 . S
C252 C254 1.381 . S
C252 C258 1.383 1_554 S
C253 C249 1.495 . S
C253 H259 0.959 . S
C253 H260 0.961 . S
C253 H261 0.960 . S
C254 C252 1.381 . S
C254 C255 1.394 . S
C254 H262 0.930 . S
C255 C254 1.394 . S
C255 C256 1.383 . S
C255 H263 0.929 . S
C256 C255 1.383 . S
C256 C257 1.377 1_554 S
C257 H241 0.930 . S
C257 C256 1.377 1_556 S
C257 C258 1.379 . S
C258 H242 0.931 . S
C258 C252 1.383 1_556 S
C258 C257 1.379 . S
H259 C253 0.959 . S
H260 C253 0.961 . S
H261 C253 0.960 . S
H262 C254 0.930 . S
H263 C255 0.929 . S
H264 C272 0.929 . S
H265 C274 0.930 . S
H266 C276 0.930 . S
H267 C279 0.929 . S
H268 C282 0.930 . S
H269 C284 0.960 . S
H270 C284 0.960 . S
H271 C284 0.960 . S
C272 H264 0.929 . S
C272 C273 1.377 . S
C272 C274 1.384 . S
C273 C272 1.377 . S
C273 C279 1.390 . S
C274 H265 0.930 . S
C274 C272 1.384 . S
C274 C275 1.372 . S
C275 C274 1.372 . S
C275 C276 1.400 . S
C275 C280 1.490 . S
C276 H266 0.930 . S
C276 C275 1.400 . S
C276 C279 1.386 . S
H277 C293 0.930 . S
H278 C294 0.931 . S
C279 H267 0.929 . S
C279 C273 1.390 . S
C279 C276 1.386 . S
C280 C275 1.490 . S
C280 C282 1.395 . S
C280 C283 1.403 . S
H281 C287 0.930 . S
C282 H268 0.930 . S
C282 C280 1.395 . S
C282 C285 1.403 . S
C283 C280 1.403 . S
C283 C284 1.524 . S
C283 C287 1.400 . S
C284 H269 0.960 . S
C284 H270 0.960 . S
C284 H271 0.960 . S
C284 C283 1.524 . S
C285 C282 1.403 . S
C285 C286 1.392 . S
C285 C289 1.495 . S
C286 C285 1.392 . S
C286 C287 1.385 . S
C286 C288 1.478 . S
C287 H281 0.930 . S
C287 C283 1.400 . S
C287 C286 1.385 . S
C288 C286 1.478 . S
C288 C290 1.381 . S
C288 C294 1.383 . S
C289 C285 1.495 . S
C289 H295 0.959 . S
C289 H296 0.961 . S
C289 H297 0.960 . S
C290 C288 1.381 . S
C290 C291 1.394 . S
C290 H298 0.930 . S
C291 C290 1.394 . S
C291 C292 1.383 . S
C291 H299 0.929 . S
C292 C291 1.383 . S
C292 C293 1.377 . S
C293 H277 0.930 . S
C293 C292 1.377 . S
C293 C294 1.379 . S
C294 H278 0.931 . S
C294 C288 1.383 . S
C294 C293 1.379 . S
H295 C289 0.959 . S
H296 C289 0.961 . S
H297 C289 0.960 . S
H298 C290 0.930 . S
H299 C291 0.929 . S
H300 C308 0.929 . S
H301 C310 0.930 . S
H302 C312 0.930 . S
H303 C315 0.929 . S
H304 C318 0.930 . S
H305 C320 0.960 . S
H306 C320 0.960 . S
H307 C320 0.960 . S
C308 H300 0.929 . S
C308 C309 1.377 . S
C308 C310 1.384 . S
C309 C308 1.377 . S
C309 C315 1.390 . S
C310 H301 0.930 . S
C310 C308 1.384 . S
C310 C311 1.372 . S
C311 C310 1.372 . S
C311 C312 1.400 . S
C311 C316 1.490 . S
C312 H302 0.930 . S
C312 C311 1.400 . S
C312 C315 1.386 . S
H313 C329 0.930 . S
H314 C330 0.931 . S
C315 H303 0.929 . S
C315 C309 1.390 . S
C315 C312 1.386 . S
C316 C311 1.490 . S
C316 C318 1.395 . S
C316 C319 1.403 . S
H317 C323 0.930 . S
C318 H304 0.930 . S
C318 C316 1.395 . S
C318 C321 1.403 . S
C319 C316 1.403 . S
C319 C320 1.524 . S
C319 C323 1.400 . S
C320 H305 0.960 . S
C320 H306 0.960 . S
C320 H307 0.960 . S
C320 C319 1.524 . S
C321 C318 1.403 . S
C321 C322 1.392 . S
C321 C325 1.495 . S
C322 C321 1.392 . S
C322 C323 1.385 . S
C322 C324 1.478 . S
C323 H317 0.930 . S
C323 C319 1.400 . S
C323 C322 1.385 . S
C324 C322 1.478 . S
C324 C326 1.381 . S
C324 C330 1.383 . S
C325 C321 1.495 . S
C325 H331 0.959 . S
C325 H332 0.961 . S
C325 H333 0.960 . S
C326 C324 1.381 . S
C326 C327 1.394 . S
C326 H334 0.930 . S
C327 C326 1.394 . S
C327 C328 1.383 . S
C327 H335 0.929 . S
C328 C327 1.383 . S
C328 C329 1.377 . S
C329 H313 0.930 . S
C329 C328 1.377 . S
C329 C330 1.379 . S
C330 H314 0.931 . S
C330 C324 1.383 . S
C330 C329 1.379 . S
H331 C325 0.959 . S
H332 C325 0.961 . S
H333 C325 0.960 . S
H334 C326 0.930 . S
H335 C327 0.929 . S
H336 C344 0.929 . S
H337 C346 0.930 . S
H338 C348 0.930 . S
H339 C351 0.929 . S
H340 C354 0.930 . S
H341 C356 0.960 . S
H342 C356 0.960 . S
H343 C356 0.960 . S
C344 H336 0.929 . S
C344 C345 1.377 1_556 S
C344 C346 1.384 . S
C345 C344 1.377 1_554 S
C345 C351 1.390 . S
C346 H337 0.930 . S
C346 C344 1.384 . S
C346 C347 1.372 1_556 S
C347 C346 1.372 1_554 S
C347 C348 1.400 . S
C347 C352 1.490 1_554 S
C348 H338 0.930 . S
C348 C347 1.400 . S
C348 C351 1.386 . S
H349 C365 0.930 . S
H350 C366 0.931 . S
C351 H339 0.929 . S
C351 C345 1.390 . S
C351 C348 1.386 . S
C352 C347 1.490 1_556 S
C352 C354 1.393 . S
C352 C355 1.404 1_556 S
H353 C359 0.930 . S
C354 H340 0.930 . S
C354 C352 1.393 . S
C354 C357 1.403 . S
C355 C352 1.404 1_554 S
C355 C356 1.524 . S
C355 C359 1.400 . S
C356 H341 0.960 . S
C356 H342 0.960 . S
C356 H343 0.960 . S
C356 C355 1.524 . S
C357 C354 1.403 . S
C357 C358 1.392 . S
C357 C361 1.495 . S
C358 C357 1.392 . S
C358 C359 1.385 1_556 S
C358 C360 1.478 . S
C359 H353 0.930 . S
C359 C355 1.400 . S
C359 C358 1.385 1_554 S
C360 C358 1.478 . S
C360 C362 1.381 . S
C360 C366 1.383 1_556 S
C361 C357 1.495 . S
C361 H367 0.959 . S
C361 H368 0.961 . S
C361 H369 0.960 . S
C362 C360 1.381 . S
C362 C363 1.394 . S
C362 H370 0.930 . S
C363 C362 1.394 . S
C363 C364 1.383 . S
C363 H371 0.929 . S
C364 C363 1.383 . S
C364 C365 1.377 1_556 S
C365 H349 0.930 . S
C365 C364 1.377 1_554 S
C365 C366 1.379 . S
C366 H350 0.931 . S
C366 C360 1.383 1_554 S
C366 C365 1.379 . S
H367 C361 0.959 . S
H368 C361 0.961 . S
H369 C361 0.960 . S
H370 C362 0.930 . S
H371 C363 0.929 . S
H372 C380 0.929 . S
H373 C382 0.930 . S
H374 C384 0.930 . S
H375 C387 0.929 . S
H376 C390 0.930 . S
H377 C392 0.960 . S
H378 C392 0.960 . S
H379 C392 0.960 . S
C380 H372 0.929 . S
C380 C381 1.377 . S
C380 C382 1.384 . S
C381 C380 1.377 . S
C381 C387 1.390 . S
C382 H373 0.930 . S
C382 C380 1.384 . S
C382 C383 1.372 . S
C383 C382 1.372 . S
C383 C384 1.400 . S
C383 C388 1.490 . S
C384 H374 0.930 . S
C384 C383 1.400 . S
C384 C387 1.386 . S
H385 C401 0.930 . S
H386 C402 0.931 . S
C387 H375 0.929 . S
C387 C381 1.390 . S
C387 C384 1.386 . S
C388 C383 1.490 . S
C388 C390 1.395 . S
C388 C391 1.403 . S
H389 C395 0.930 . S
C390 H376 0.930 . S
C390 C388 1.395 . S
C390 C393 1.403 . S
C391 C388 1.403 . S
C391 C392 1.524 . S
C391 C395 1.400 . S
C392 H377 0.960 . S
C392 H378 0.960 . S
C392 H379 0.960 . S
C392 C391 1.524 . S
C393 C390 1.403 . S
C393 C394 1.392 . S
C393 C397 1.495 . S
C394 C393 1.392 . S
C394 C395 1.385 . S
C394 C396 1.478 . S
C395 H389 0.930 . S
C395 C391 1.400 . S
C395 C394 1.385 . S
C396 C394 1.478 . S
C396 C398 1.381 . S
C396 C402 1.383 . S
C397 C393 1.495 . S
C397 H403 0.959 . S
C397 H404 0.961 . S
C397 H405 0.960 . S
C398 C396 1.381 . S
C398 C399 1.394 . S
C398 H406 0.930 . S
C399 C398 1.394 . S
C399 C400 1.383 . S
C399 H407 0.929 . S
C400 C399 1.383 . S
C400 C401 1.377 . S
C401 H385 0.930 . S
C401 C400 1.377 . S
C401 C402 1.379 . S
C402 H386 0.931 . S
C402 C396 1.383 . S
C402 C401 1.379 . S
H403 C397 0.959 . S
H404 C397 0.961 . S
H405 C397 0.960 . S
H406 C398 0.930 . S
H407 C399 0.929 . S
H408 C416 0.929 . S
H409 C418 0.930 . S
H410 C420 0.930 . S
H411 C423 0.929 . S
H412 C426 0.930 . S
H413 C428 0.960 . S
H414 C428 0.960 . S
H415 C428 0.960 . S
C416 H408 0.929 . S
C416 C417 1.377 . S
C416 C418 1.384 . S
C417 C416 1.377 . S
C417 C423 1.390 . S
C418 H409 0.930 . S
C418 C416 1.384 . S
C418 C419 1.372 . S
C419 C418 1.372 . S
C419 C420 1.400 . S
C419 C424 1.490 . S
C420 H410 0.930 . S
C420 C419 1.400 . S
C420 C423 1.386 . S
H421 C437 0.930 . S
H422 C438 0.931 . S
C423 H411 0.929 . S
C423 C417 1.390 . S
C423 C420 1.386 . S
C424 C419 1.490 . S
C424 C426 1.395 . S
C424 C427 1.403 . S
H425 C431 0.930 . S
C426 H412 0.930 . S
C426 C424 1.395 . S
C426 C429 1.403 1_655 S
C427 C424 1.403 . S
C427 C428 1.524 . S
C427 C431 1.400 1_655 S
C428 H413 0.960 . S
C428 H414 0.960 . S
C428 H415 0.960 . S
C428 C427 1.524 . S
C429 C426 1.403 1_455 S
C429 C430 1.392 . S
C429 C433 1.495 . S
C430 C429 1.392 . S
C430 C431 1.385 . S
C430 C432 1.478 . S
C431 H425 0.930 . S
C431 C427 1.400 1_455 S
C431 C430 1.385 . S
C432 C430 1.478 . S
C432 C434 1.381 . S
C432 C438 1.383 . S
C433 C429 1.495 . S
C433 H439 0.959 . S
C433 H440 0.961 . S
C433 H441 0.960 . S
C434 C432 1.381 . S
C434 C435 1.394 . S
C434 H442 0.930 . S
C435 C434 1.394 . S
C435 C436 1.383 . S
C435 H443 0.929 . S
C436 C435 1.383 . S
C436 C437 1.377 . S
C437 H421 0.930 . S
C437 C436 1.377 . S
C437 C438 1.379 . S
C438 H422 0.931 . S
C438 C432 1.383 . S
C438 C437 1.379 . S
H439 C433 0.959 . S
H440 C433 0.961 . S
H441 C433 0.960 . S
H442 C434 0.930 . S
H443 C435 0.929 . S
H444 C452 0.935 . S
H445 C454 0.930 1_556 S
H446 C456 0.930 . S
H447 C459 0.929 . S
H448 C462 0.930 . S
H449 C464 0.960 . S
H450 C464 0.960 . S
H451 C464 0.960 . S
C452 H444 0.935 . S
C452 C453 1.377 . S
C452 C454 1.384 . S
C453 C452 1.377 . S
C453 C459 1.390 . S
C454 H445 0.930 1_554 S
C454 C452 1.384 . S
C454 C455 1.372 . S
C455 C454 1.372 . S
C455 C456 1.400 . S
C455 C460 1.490 . S
C456 H446 0.930 . S
C456 C455 1.400 . S
C456 C459 1.386 . S
H457 C473 0.930 . S
H458 C474 0.931 . S
C459 H447 0.929 . S
C459 C453 1.390 . S
C459 C456 1.386 . S
C460 C455 1.490 . S
C460 C462 1.395 . S
C460 C463 1.403 1_554 S
H461 C467 0.930 . S
C462 H448 0.930 . S
C462 C460 1.395 . S
C462 C465 1.403 1_545 S
C463 C460 1.403 1_556 S
C463 C464 1.524 . S
C463 C467 1.400 1_545 S
C464 H449 0.960 . S
C464 H450 0.960 . S
C464 H451 0.960 . S
C464 C463 1.524 . S
C465 C462 1.403 1_565 S
C465 C466 1.392 . S
C465 C469 1.495 . S
C466 C465 1.392 . S
C466 C467 1.385 1_554 S
C466 C468 1.477 1_554 S
C467 H461 0.930 . S
C467 C463 1.400 1_565 S
C467 C466 1.385 1_556 S
C468 C466 1.477 1_556 S
C468 C470 1.384 . S
C468 C474 1.381 1_556 S
C469 C465 1.495 . S
C469 H475 0.959 . S
C469 H476 0.961 . S
C469 H477 0.960 . S
C470 C468 1.384 . S
C470 C471 1.394 . S
C470 H478 0.930 . S
C471 C470 1.394 . S
C471 C472 1.383 . S
C471 H479 0.929 . S
C472 C471 1.383 . S
C472 C473 1.377 1_556 S
C473 H457 0.930 . S
C473 C472 1.377 1_554 S
C473 C474 1.379 . S
C474 H458 0.931 . S
C474 C468 1.381 1_554 S
C474 C473 1.379 . S
H475 C469 0.959 . S
H476 C469 0.961 . S
H477 C469 0.960 . S
H478 C470 0.930 . S
H479 C471 0.929 . S
H480 C488 0.929 . S
H481 C490 0.930 . S
H482 C492 0.930 . S
H483 C495 0.929 . S
H484 C498 0.930 . S
H485 C500 0.960 . S
H486 C500 0.960 . S
H487 C500 0.960 . S
C488 H480 0.929 . S
C488 C489 1.377 . S
C488 C490 1.384 . S
C489 C488 1.377 . S
C489 C495 1.390 . S
C490 H481 0.930 . S
C490 C488 1.384 . S
C490 C491 1.372 . S
C491 C490 1.372 . S
C491 C492 1.400 . S
C491 C496 1.490 . S
C492 H482 0.930 . S
C492 C491 1.400 . S
C492 C495 1.386 . S
H493 C509 0.930 . S
H494 C510 0.931 . S
C495 H483 0.929 . S
C495 C489 1.390 . S
C495 C492 1.386 . S
C496 C491 1.490 . S
C496 C498 1.395 . S
C496 C499 1.403 . S
H497 C503 0.930 . S
C498 H484 0.930 . S
C498 C496 1.395 . S
C498 C501 1.403 . S
C499 C496 1.403 . S
C499 C500 1.524 . S
C499 C503 1.400 . S
C500 H485 0.960 . S
C500 H486 0.960 . S
C500 H487 0.960 . S
C500 C499 1.524 . S
C501 C498 1.403 . S
C501 C502 1.392 . S
C501 C505 1.495 . S
C502 C501 1.392 . S
C502 C503 1.385 . S
C502 C504 1.478 . S
C503 H497 0.930 . S
C503 C499 1.400 . S
C503 C502 1.385 . S
C504 C502 1.478 . S
C504 C506 1.381 . S
C504 C510 1.383 . S
C505 C501 1.495 . S
C505 H511 0.959 . S
C505 H512 0.961 . S
C505 H513 0.960 . S
C506 C504 1.381 . S
C506 C507 1.394 . S
C506 H514 0.930 . S
C507 C506 1.394 . S
C507 C508 1.383 . S
C507 H515 0.929 . S
C508 C507 1.383 . S
C508 C509 1.377 . S
C509 H493 0.930 . S
C509 C508 1.377 . S
C509 C510 1.379 . S
C510 H494 0.931 . S
C510 C504 1.383 . S
C510 C509 1.379 . S
H511 C505 0.959 . S
H512 C505 0.961 . S
H513 C505 0.960 . S
H514 C506 0.930 . S
H515 C507 0.929 . S
H516 C524 0.929 . S
H517 C526 0.930 . S
H518 C528 0.930 . S
H519 C531 0.929 . S
H520 C534 0.930 . S
H521 C536 0.960 . S
H522 C536 0.960 . S
H523 C536 0.960 . S
C524 H516 0.929 . S
C524 C525 1.377 . S
C524 C526 1.384 . S
C525 C524 1.377 . S
C525 C531 1.390 . S
C526 H517 0.930 . S
C526 C524 1.384 . S
C526 C527 1.372 . S
C527 C526 1.372 . S
C527 C528 1.400 . S
C527 C532 1.490 . S
C528 H518 0.930 . S
C528 C527 1.400 . S
C528 C531 1.386 . S
H529 C545 0.930 . S
H530 C546 0.931 . S
C531 H519 0.929 . S
C531 C525 1.390 . S
C531 C528 1.386 . S
C532 C527 1.490 . S
C532 C534 1.395 . S
C532 C535 1.403 . S
H533 C539 0.930 . S
C534 H520 0.930 . S
C534 C532 1.395 . S
C534 C537 1.403 1_455 S
C535 C532 1.403 . S
C535 C536 1.524 . S
C535 C539 1.400 1_455 S
C536 H521 0.960 . S
C536 H522 0.960 . S
C536 H523 0.960 . S
C536 C535 1.524 . S
C537 C534 1.403 1_655 S
C537 C538 1.392 . S
C537 C541 1.495 . S
C538 C537 1.392 . S
C538 C539 1.385 . S
C538 C540 1.478 . S
C539 H533 0.930 . S
C539 C535 1.400 1_655 S
C539 C538 1.385 . S
C540 C538 1.478 . S
C540 C542 1.381 . S
C540 C546 1.383 . S
C541 C537 1.495 . S
C541 H547 0.959 . S
C541 H548 0.961 . S
C541 H549 0.960 . S
C542 C540 1.381 . S
C542 C543 1.394 . S
C542 H550 0.930 . S
C543 C542 1.394 . S
C543 C544 1.383 . S
C543 H551 0.929 . S
C544 C543 1.383 . S
C544 C545 1.377 . S
C545 H529 0.930 . S
C545 C544 1.377 . S
C545 C546 1.379 . S
C546 H530 0.931 . S
C546 C540 1.383 . S
C546 C545 1.379 . S
H547 C541 0.959 . S
H548 C541 0.961 . S
H549 C541 0.960 . S
H550 C542 0.930 . S
H551 C543 0.929 . S
H552 C560 0.929 . S
H553 C562 0.930 . S
H554 C564 0.930 . S
H555 C567 0.929 . S
H556 C570 0.930 . S
H557 C572 0.960 . S
H558 C572 0.960 . S
H559 C572 0.960 1_556 S
C560 H552 0.929 . S
C560 C561 1.377 1_554 S
C560 C562 1.384 . S
C561 C560 1.377 1_556 S
C561 C567 1.390 . S
C562 H553 0.930 . S
C562 C560 1.384 . S
C562 C563 1.372 1_554 S
C563 C562 1.372 1_556 S
C563 C564 1.400 . S
C563 C568 1.490 . S
C564 H554 0.930 . S
C564 C563 1.400 . S
C564 C567 1.386 . S
H565 C581 0.930 . S
H566 C582 0.931 . S
C567 H555 0.929 . S
C567 C561 1.390 . S
C567 C564 1.386 . S
C568 C563 1.490 . S
C568 C570 1.395 . S
C568 C571 1.403 1_556 S
H569 C575 0.930 . S
C570 H556 0.930 . S
C570 C568 1.395 . S
C570 C573 1.406 1_545 S
C571 C568 1.403 1_554 S
C571 C572 1.524 . S
C571 C575 1.400 1_545 S
C572 H557 0.960 . S
C572 H558 0.960 . S
C572 H559 0.960 1_554 S
C572 C571 1.524 . S
C573 C570 1.406 1_565 S
C573 C574 1.388 1_556 S
C573 C577 1.499 . S
C574 C573 1.388 1_554 S
C574 C575 1.385 . S
C574 C576 1.478 . S
C575 H569 0.930 . S
C575 C571 1.400 1_565 S
C575 C574 1.385 . S
C576 C574 1.478 . S
C576 C578 1.381 . S
C576 C582 1.383 1_554 S
C577 C573 1.499 . S
C577 H583 0.959 . S
C577 H584 0.961 . S
C577 H585 0.960 1_556 S
C578 C576 1.381 . S
C578 C579 1.394 . S
C578 H586 0.930 . S
C579 C578 1.394 . S
C579 C580 1.383 . S
C579 H587 0.929 . S
C580 C579 1.383 . S
C580 C581 1.377 1_554 S
C581 H565 0.930 . S
C581 C580 1.377 1_556 S
C581 C582 1.379 . S
C582 H566 0.931 . S
C582 C576 1.383 1_556 S
C582 C581 1.379 . S
H583 C577 0.959 . S
H584 C577 0.961 . S
H585 C577 0.960 1_554 S
H586 C578 0.930 . S
H587 C579 0.929 . S
H588 C596 0.929 . S
H589 C598 0.930 . S
H590 C600 0.930 . S
H591 C603 0.929 . S
H592 C606 0.930 . S
H593 C608 0.960 . S
H594 C608 0.960 . S
H595 C608 0.960 . S
C596 H588 0.929 . S
C596 C597 1.377 . S
C596 C598 1.384 . S
C597 C596 1.377 . S
C597 C603 1.390 . S
C598 H589 0.930 . S
C598 C596 1.384 . S
C598 C599 1.372 . S
C599 C598 1.372 . S
C599 C600 1.400 . S
C599 C604 1.490 . S
C600 H590 0.930 . S
C600 C599 1.400 . S
C600 C603 1.386 . S
H601 C617 0.930 . S
H602 C618 0.931 . S
C603 H591 0.929 . S
C603 C597 1.390 . S
C603 C600 1.386 . S
C604 C599 1.490 . S
C604 C606 1.395 . S
C604 C607 1.403 1_655 S
H605 C611 0.930 . S
C606 H592 0.930 . S
C606 C604 1.395 . S
C606 C609 1.403 . S
C607 C604 1.403 1_455 S
C607 C608 1.524 . S
C607 C611 1.400 . S
C608 H593 0.960 . S
C608 H594 0.960 . S
C608 H595 0.960 . S
C608 C607 1.524 . S
C609 C606 1.403 . S
C609 C610 1.392 1_655 S
C609 C613 1.495 . S
C610 C609 1.392 1_455 S
C610 C611 1.385 . S
C610 C612 1.478 . S
C611 H605 0.930 . S
C611 C607 1.400 . S
C611 C610 1.385 . S
C612 C610 1.478 . S
C612 C614 1.381 . S
C612 C618 1.383 . S
C613 C609 1.495 . S
C613 H619 0.959 . S
C613 H620 0.961 . S
C613 H621 0.960 . S
C614 C612 1.381 . S
C614 C615 1.394 . S
C614 H622 0.930 . S
C615 C614 1.394 . S
C615 C616 1.383 . S
C615 H623 0.929 . S
C616 C615 1.383 . S
C616 C617 1.377 . S
C617 H601 0.930 . S
C617 C616 1.377 . S
C617 C618 1.379 . S
C618 H602 0.931 . S
C618 C612 1.383 . S
C618 C617 1.379 . S
H619 C613 0.959 . S
H620 C613 0.961 . S
H621 C613 0.960 . S
H622 C614 0.930 . S
H623 C615 0.929 . S
H624 C632 0.929 . S
H625 C634 0.930 . S
H626 C636 0.930 . S
H627 C639 0.929 . S
H628 C642 0.930 . S
H629 C644 0.960 . S
H630 C644 0.960 . S
H631 C644 0.960 . S
C632 H624 0.929 . S
C632 C633 1.377 . S
C632 C634 1.384 . S
C633 C632 1.377 . S
C633 C639 1.390 . S
C634 H625 0.930 . S
C634 C632 1.384 . S
C634 C635 1.372 . S
C635 C634 1.372 . S
C635 C636 1.400 . S
C635 C640 1.490 . S
C636 H626 0.930 . S
C636 C635 1.400 . S
C636 C639 1.386 . S
H637 C653 0.930 . S
H638 C654 0.931 . S
C639 H627 0.929 . S
C639 C633 1.390 . S
C639 C636 1.386 . S
C640 C635 1.490 . S
C640 C642 1.395 . S
C640 C643 1.403 . S
H641 C647 0.930 . S
C642 H628 0.930 . S
C642 C640 1.395 . S
C642 C645 1.403 1_545 S
C643 C640 1.403 . S
C643 C644 1.524 . S
C643 C647 1.400 1_545 S
C644 H629 0.960 . S
C644 H630 0.960 . S
C644 H631 0.960 . S
C644 C643 1.524 . S
C645 C642 1.403 1_565 S
C645 C646 1.392 . S
C645 C649 1.495 . S
C646 C645 1.392 . S
C646 C647 1.385 . S
C646 C648 1.478 . S
C647 H641 0.930 . S
C647 C643 1.400 1_565 S
C647 C646 1.385 . S
C648 C646 1.478 . S
C648 C650 1.381 . S
C648 C654 1.383 . S
C649 C645 1.495 . S
C649 H655 0.959 . S
C649 H656 0.961 . S
C649 H657 0.960 . S
C650 C648 1.381 . S
C650 C651 1.394 . S
C650 H658 0.930 . S
C651 C650 1.394 . S
C651 C652 1.383 . S
C651 H659 0.929 . S
C652 C651 1.383 . S
C652 C653 1.377 . S
C653 H637 0.930 . S
C653 C652 1.377 . S
C653 C654 1.379 . S
C654 H638 0.931 . S
C654 C648 1.383 . S
C654 C653 1.379 . S
H655 C649 0.959 . S
H656 C649 0.961 . S
H657 C649 0.960 . S
H658 C650 0.930 . S
H659 C651 0.929 . S
H660 C668 0.929 . S
H661 C670 0.930 . S
H662 C672 0.930 . S
H663 C675 0.929 . S
H664 C678 0.930 . S
H665 C680 0.960 . S
H666 C680 0.960 . S
H667 C680 0.960 . S
C668 H660 0.929 . S
C668 C669 1.377 . S
C668 C670 1.384 . S
C669 C668 1.377 . S
C669 C675 1.390 . S
C670 H661 0.930 . S
C670 C668 1.384 . S
C670 C671 1.372 . S
C671 C670 1.372 . S
C671 C672 1.400 . S
C671 C676 1.490 . S
C672 H662 0.930 . S
C672 C671 1.400 . S
C672 C675 1.386 . S
H673 C689 0.930 . S
H674 C690 0.931 . S
C675 H663 0.929 . S
C675 C669 1.390 . S
C675 C672 1.386 . S
C676 C671 1.490 . S
C676 C678 1.395 . S
C676 C679 1.403 . S
H677 C683 0.930 . S
C678 H664 0.930 . S
C678 C676 1.395 . S
C678 C681 1.403 . S
C679 C676 1.403 . S
C679 C680 1.524 . S
C679 C683 1.400 . S
C680 H665 0.960 . S
C680 H666 0.960 . S
C680 H667 0.960 . S
C680 C679 1.524 . S
C681 C678 1.403 . S
C681 C682 1.392 . S
C681 C685 1.495 . S
C682 C681 1.392 . S
C682 C683 1.385 . S
C682 C684 1.478 . S
C683 H677 0.930 . S
C683 C679 1.400 . S
C683 C682 1.385 . S
C684 C682 1.478 . S
C684 C686 1.381 . S
C684 C690 1.383 . S
C685 C681 1.495 . S
C685 H691 0.959 . S
C685 H692 0.961 . S
C685 H693 0.960 . S
C686 C684 1.381 . S
C686 C687 1.394 . S
C686 H694 0.930 . S
C687 C686 1.394 . S
C687 C688 1.383 . S
C687 H695 0.929 . S
C688 C687 1.383 . S
C688 C689 1.377 . S
C689 H673 0.930 . S
C689 C688 1.377 . S
C689 C690 1.379 . S
C690 H674 0.931 . S
C690 C684 1.383 . S
C690 C689 1.379 . S
H691 C685 0.959 . S
H692 C685 0.961 . S
H693 C685 0.960 . S
H694 C686 0.930 . S
H695 C687 0.929 . S
H696 C704 0.929 . S
H697 C706 0.930 . S
H698 C708 0.930 . S
H699 C711 0.929 . S
H700 C714 0.930 . S
H701 C716 0.960 . S
H702 C716 0.960 . S
H703 C716 0.960 . S
C704 H696 0.929 . S
C704 C705 1.377 . S
C704 C706 1.384 . S
C705 C704 1.377 . S
C705 C711 1.390 . S
C706 H697 0.930 . S
C706 C704 1.384 . S
C706 C707 1.372 . S
C707 C706 1.372 . S
C707 C708 1.400 . S
C707 C712 1.490 . S
C708 H698 0.930 . S
C708 C707 1.400 . S
C708 C711 1.386 . S
H709 C725 0.930 . S
H710 C726 0.931 . S
C711 H699 0.929 . S
C711 C705 1.390 . S
C711 C708 1.386 . S
C712 C707 1.490 . S
C712 C714 1.395 . S
C712 C715 1.403 . S
H713 C719 0.930 . S
C714 H700 0.930 . S
C714 C712 1.395 . S
C714 C717 1.403 1_455 S
C715 C712 1.403 . S
C715 C716 1.524 . S
C715 C719 1.400 1_455 S
C716 H701 0.960 . S
C716 H702 0.960 . S
C716 H703 0.960 . S
C716 C715 1.524 . S
C717 C714 1.403 1_655 S
C717 C718 1.392 . S
C717 C721 1.495 . S
C718 C717 1.392 . S
C718 C719 1.385 . S
C718 C720 1.478 . S
C719 H713 0.930 . S
C719 C715 1.400 1_655 S
C719 C718 1.385 . S
C720 C718 1.478 . S
C720 C722 1.381 . S
C720 C726 1.383 . S
C721 C717 1.495 . S
C721 H727 0.959 . S
C721 H728 0.961 . S
C721 H729 0.960 . S
C722 C720 1.381 . S
C722 C723 1.394 . S
C722 H730 0.930 . S
C723 C722 1.394 . S
C723 C724 1.383 . S
C723 H731 0.929 . S
C724 C723 1.383 . S
C724 C725 1.377 . S
C725 H709 0.930 . S
C725 C724 1.377 . S
C725 C726 1.379 . S
C726 H710 0.931 . S
C726 C720 1.383 . S
C726 C725 1.379 . S
H727 C721 0.959 . S
H728 C721 0.961 . S
H729 C721 0.960 . S
H730 C722 0.930 . S
H731 C723 0.929 . S
H732 C740 0.929 . S
H733 C742 0.930 . S
H734 C744 0.930 . S
H735 C747 0.929 . S
H736 C750 0.930 . S
H737 C752 0.960 1_565 S
H738 C752 0.960 1_565 S
H739 C752 0.960 . S
C740 H732 0.929 . S
C740 C741 1.377 . S
C740 C742 1.384 . S
C741 C740 1.377 . S
C741 C747 1.390 . S
C742 H733 0.930 . S
C742 C740 1.384 . S
C742 C743 1.372 . S
C743 C742 1.372 . S
C743 C744 1.400 . S
C743 C748 1.490 . S
C744 H734 0.930 . S
C744 C743 1.400 . S
C744 C747 1.386 . S
H745 C761 0.930 . S
H746 C762 0.931 . S
C747 H735 0.929 . S
C747 C741 1.390 . S
C747 C744 1.386 . S
C748 C743 1.490 . S
C748 C750 1.395 . S
C748 C751 1.403 . S
H749 C755 0.930 . S
C750 H736 0.930 . S
C750 C748 1.395 . S
C750 C753 1.403 1_545 S
C751 C748 1.403 . S
C751 C752 1.524 . S
C751 C755 1.400 1_545 S
C752 H737 0.960 1_545 S
C752 H738 0.960 1_545 S
C752 H739 0.960 . S
C752 C751 1.524 . S
C753 C750 1.403 1_565 S
C753 C754 1.392 . S
C753 C757 1.495 . S
C754 C753 1.392 . S
C754 C755 1.385 . S
C754 C756 1.478 . S
C755 H749 0.930 . S
C755 C751 1.400 1_565 S
C755 C754 1.385 . S
C756 C754 1.478 . S
C756 C758 1.381 . S
C756 C762 1.383 . S
C757 C753 1.495 . S
C757 H763 0.959 1_565 S
C757 H764 0.961 1_565 S
C757 H765 0.960 . S
C758 C756 1.381 . S
C758 C759 1.394 . S
C758 H766 0.930 . S
C759 C758 1.394 . S
C759 C760 1.383 . S
C759 H767 0.929 . S
C760 C759 1.383 . S
C760 C761 1.377 . S
C761 H745 0.930 . S
C761 C760 1.377 . S
C761 C762 1.379 . S
C762 H746 0.931 . S
C762 C756 1.383 . S
C762 C761 1.379 . S
H763 C757 0.959 1_545 S
H764 C757 0.961 1_545 S
H765 C757 0.960 . S
H766 C758 0.930 . S
H767 C759 0.929 . S
H768 C776 0.929 . S
H769 C778 0.930 . S
H770 C780 0.930 . S
H771 C783 0.929 . S
H772 C786 0.930 . S
H773 C788 0.960 . S
H774 C788 0.960 . S
H775 C788 0.960 . S
C776 H768 0.929 . S
C776 C777 1.377 . S
C776 C778 1.384 . S
C777 C776 1.377 . S
C777 C783 1.390 . S
C778 H769 0.930 . S
C778 C776 1.384 . S
C778 C779 1.372 . S
C779 C778 1.372 . S
C779 C780 1.400 . S
C779 C784 1.490 . S
C780 H770 0.930 . S
C780 C779 1.400 . S
C780 C783 1.386 . S
H781 C797 0.930 . S
H782 C798 0.931 . S
C783 H771 0.929 . S
C783 C777 1.390 . S
C783 C780 1.386 . S
C784 C779 1.490 . S
C784 C786 1.395 . S
C784 C787 1.403 . S
H785 C791 0.930 . S
C786 H772 0.930 . S
C786 C784 1.395 . S
C786 C789 1.403 . S
C787 C784 1.403 . S
C787 C788 1.524 . S
C787 C791 1.400 . S
C788 H773 0.960 . S
C788 H774 0.960 . S
C788 H775 0.960 . S
C788 C787 1.524 . S
C789 C786 1.403 . S
C789 C790 1.392 . S
C789 C793 1.495 . S
C790 C789 1.392 . S
C790 C791 1.385 . S
C790 C792 1.478 . S
C791 H785 0.930 . S
C791 C787 1.400 . S
C791 C790 1.385 . S
C792 C790 1.478 . S
C792 C794 1.381 . S
C792 C798 1.383 . S
C793 C789 1.495 . S
C793 H799 0.959 . S
C793 H800 0.961 . S
C793 H801 0.960 . S
C794 C792 1.381 . S
C794 C795 1.394 . S
C794 H802 0.930 . S
C795 C794 1.394 . S
C795 C796 1.383 . S
C795 H803 0.929 . S
C796 C795 1.383 . S
C796 C797 1.377 . S
C797 H781 0.930 . S
C797 C796 1.377 . S
C797 C798 1.379 . S
C798 H782 0.931 . S
C798 C792 1.383 . S
C798 C797 1.379 . S
H799 C793 0.959 . S
H800 C793 0.961 . S
H801 C793 0.960 . S
H802 C794 0.930 . S
H803 C795 0.929 . S
H804 C812 0.929 . S
H805 C814 0.930 . S
H806 C816 0.930 . S
H807 C819 0.929 . S
H808 C822 0.930 . S
H809 C824 0.960 . S
H810 C824 0.960 . S
H811 C824 0.960 . S
C812 H804 0.929 . S
C812 C813 1.377 . S
C812 C814 1.384 . S
C813 C812 1.377 . S
C813 C819 1.390 . S
C814 H805 0.930 . S
C814 C812 1.384 . S
C814 C815 1.372 . S
C815 C814 1.372 . S
C815 C816 1.400 . S
C815 C820 1.490 . S
C816 H806 0.930 . S
C816 C815 1.400 . S
C816 C819 1.386 . S
H817 C833 0.930 . S
H818 C834 0.931 . S
C819 H807 0.929 . S
C819 C813 1.390 . S
C819 C816 1.386 . S
C820 C815 1.490 . S
C820 C822 1.395 . S
C820 C823 1.403 . S
H821 C827 0.930 . S
C822 H808 0.930 . S
C822 C820 1.395 . S
C822 C825 1.403 . S
C823 C820 1.403 . S
C823 C824 1.524 . S
C823 C827 1.400 . S
C824 H809 0.960 . S
C824 H810 0.960 . S
C824 H811 0.960 . S
C824 C823 1.524 . S
C825 C822 1.403 . S
C825 C826 1.392 . S
C825 C829 1.495 . S
C826 C825 1.392 . S
C826 C827 1.385 . S
C826 C828 1.478 . S
C827 H821 0.930 . S
C827 C823 1.400 . S
C827 C826 1.385 . S
C828 C826 1.478 . S
C828 C830 1.381 . S
C828 C834 1.383 . S
C829 C825 1.495 . S
C829 H835 0.959 . S
C829 H836 0.961 . S
C829 H837 0.960 . S
C830 C828 1.381 . S
C830 C831 1.394 . S
C830 H838 0.930 . S
C831 C830 1.394 . S
C831 C832 1.383 . S
C831 H839 0.929 . S
C832 C831 1.383 . S
C832 C833 1.377 . S
C833 H817 0.930 . S
C833 C832 1.377 . S
C833 C834 1.379 . S
C834 H818 0.931 . S
C834 C828 1.383 . S
C834 C833 1.379 . S
H835 C829 0.959 . S
H836 C829 0.961 . S
H837 C829 0.960 . S
H838 C830 0.930 . S
H839 C831 0.929 . S
H840 C848 0.929 . S
H841 C850 0.930 . S
H842 C852 0.930 . S
H843 C855 0.929 . S
H844 C858 0.930 . S
H845 C860 0.960 . S
H846 C860 0.960 . S
H847 C860 0.960 . S
C848 H840 0.929 . S
C848 C849 1.377 . S
C848 C850 1.384 . S
C849 C848 1.377 . S
C849 C855 1.390 . S
C850 H841 0.930 . S
C850 C848 1.384 . S
C850 C851 1.372 . S
C851 C850 1.372 . S
C851 C852 1.400 . S
C851 C856 1.490 . S
C852 H842 0.930 . S
C852 C851 1.400 . S
C852 C855 1.386 . S
H853 C869 0.930 . S
H854 C870 0.931 . S
C855 H843 0.929 . S
C855 C849 1.390 . S
C855 C852 1.386 . S
C856 C851 1.490 . S
C856 C858 1.395 . S
C856 C859 1.403 . S
H857 C863 0.930 . S
C858 H844 0.930 . S
C858 C856 1.395 . S
C858 C861 1.403 . S
C859 C856 1.403 . S
C859 C860 1.524 . S
C859 C863 1.400 . S
C860 H845 0.960 . S
C860 H846 0.960 . S
C860 H847 0.960 . S
C860 C859 1.524 . S
C861 C858 1.403 . S
C861 C862 1.392 . S
C861 C865 1.495 . S
C862 C861 1.392 . S
C862 C863 1.385 . S
C862 C864 1.478 . S
C863 H857 0.930 . S
C863 C859 1.400 . S
C863 C862 1.385 . S
C864 C862 1.478 . S
C864 C866 1.381 . S
C864 C870 1.383 . S
C865 C861 1.495 . S
C865 H871 0.959 . S
C865 H872 0.961 . S
C865 H873 0.960 . S
C866 C864 1.381 . S
C866 C867 1.394 . S
C866 H874 0.930 . S
C867 C866 1.394 . S
C867 C868 1.383 . S
C867 H875 0.929 . S
C868 C867 1.383 . S
C868 C869 1.377 . S
C869 H853 0.930 . S
C869 C868 1.377 . S
C869 C870 1.379 . S
C870 H854 0.931 . S
C870 C864 1.383 . S
C870 C869 1.379 . S
H871 C865 0.959 . S
H872 C865 0.961 . S
H873 C865 0.960 . S
H874 C866 0.930 . S
H875 C867 0.929 . S
H876 C884 0.929 . S
H877 C886 0.930 . S
H878 C888 0.930 . S
H879 C891 0.929 . S
H880 C894 0.930 . S
H881 C896 0.960 . S
H882 C896 0.960 . S
H883 C896 0.960 . S
C884 H876 0.929 . S
C884 C885 1.377 . S
C884 C886 1.384 . S
C885 C884 1.377 . S
C885 C891 1.390 . S
C886 H877 0.930 . S
C886 C884 1.384 . S
C886 C887 1.372 . S
C887 C886 1.372 . S
C887 C888 1.400 . S
C887 C892 1.490 . S
C888 H878 0.930 . S
C888 C887 1.400 . S
C888 C891 1.386 . S
H889 C905 0.930 . S
H890 C906 0.931 . S
C891 H879 0.929 . S
C891 C885 1.390 . S
C891 C888 1.386 . S
C892 C887 1.490 . S
C892 C894 1.395 . S
C892 C895 1.403 . S
H893 C899 0.930 . S
C894 H880 0.930 . S
C894 C892 1.395 . S
C894 C897 1.403 . S
C895 C892 1.403 . S
C895 C896 1.524 . S
C895 C899 1.400 . S
C896 H881 0.960 . S
C896 H882 0.960 . S
C896 H883 0.960 . S
C896 C895 1.524 . S
C897 C894 1.403 . S
C897 C898 1.392 . S
C897 C901 1.495 . S
C898 C897 1.392 . S
C898 C899 1.385 . S
C898 C900 1.478 . S
C899 H893 0.930 . S
C899 C895 1.400 . S
C899 C898 1.385 . S
C900 C898 1.478 . S
C900 C902 1.381 . S
C900 C906 1.383 . S
C901 C897 1.495 . S
C901 H907 0.959 . S
C901 H908 0.961 . S
C901 H909 0.960 . S
C902 C900 1.381 . S
C902 C903 1.394 . S
C902 H910 0.930 . S
C903 C902 1.394 . S
C903 C904 1.383 . S
C903 H911 0.929 . S
C904 C903 1.383 . S
C904 C905 1.377 . S
C905 H889 0.930 . S
C905 C904 1.377 . S
C905 C906 1.379 . S
C906 H890 0.931 . S
C906 C900 1.383 . S
C906 C905 1.379 . S
H907 C901 0.959 . S
H908 C901 0.961 . S
H909 C901 0.960 . S
H910 C902 0.930 . S
H911 C903 0.929 . S
H912 C920 0.929 . S
H913 C922 0.930 . S
H914 C924 0.930 . S
H915 C927 0.929 . S
H916 C930 0.930 . S
H917 C932 0.960 . S
H918 C932 0.960 . S
H919 C932 0.960 . S
C920 H912 0.929 . S
C920 C921 1.377 . S
C920 C922 1.384 . S
C921 C920 1.377 . S
C921 C927 1.390 . S
C922 H913 0.930 . S
C922 C920 1.384 . S
C922 C923 1.372 . S
C923 C922 1.372 . S
C923 C924 1.400 . S
C923 C928 1.490 . S
C924 H914 0.930 . S
C924 C923 1.400 . S
C924 C927 1.386 . S
H925 C941 0.930 . S
H926 C942 0.931 . S
C927 H915 0.929 . S
C927 C921 1.390 . S
C927 C924 1.386 . S
C928 C923 1.490 . S
C928 C930 1.395 . S
C928 C931 1.403 . S
H929 C935 0.930 . S
C930 H916 0.930 . S
C930 C928 1.395 . S
C930 C933 1.403 . S
C931 C928 1.403 . S
C931 C932 1.524 . S
C931 C935 1.400 . S
C932 H917 0.960 . S
C932 H918 0.960 . S
C932 H919 0.960 . S
C932 C931 1.524 . S
C933 C930 1.403 . S
C933 C934 1.392 . S
C933 C937 1.495 . S
C934 C933 1.392 . S
C934 C935 1.385 . S
C934 C936 1.478 . S
C935 H929 0.930 . S
C935 C931 1.400 . S
C935 C934 1.385 . S
C936 C934 1.478 . S
C936 C938 1.381 . S
C936 C942 1.383 . S
C937 C933 1.495 . S
C937 H943 0.959 . S
C937 H944 0.961 . S
C937 H945 0.960 . S
C938 C936 1.381 . S
C938 C939 1.394 . S
C938 H946 0.930 . S
C939 C938 1.394 . S
C939 C940 1.383 . S
C939 H947 0.929 . S
C940 C939 1.383 . S
C940 C941 1.377 . S
C941 H925 0.930 . S
C941 C940 1.377 . S
C941 C942 1.379 . S
C942 H926 0.931 . S
C942 C936 1.383 . S
C942 C941 1.379 . S
H943 C937 0.959 . S
H944 C937 0.961 . S
H945 C937 0.960 . S
H946 C938 0.930 . S
H947 C939 0.929 . S
H948 C956 0.929 . S
H949 C958 0.930 . S
H950 C960 0.930 . S
H951 C963 0.929 . S
H952 C966 0.930 . S
H953 C968 0.960 . S
H954 C968 0.960 . S
H955 C968 0.960 . S
C956 H948 0.929 . S
C956 C957 1.377 . S
C956 C958 1.384 . S
C957 C956 1.377 . S
C957 C963 1.390 . S
C958 H949 0.930 . S
C958 C956 1.384 . S
C958 C959 1.372 . S
C959 C958 1.372 . S
C959 C960 1.400 . S
C959 C964 1.490 . S
C960 H950 0.930 . S
C960 C959 1.400 . S
C960 C963 1.386 . S
H961 C977 0.930 . S
H962 C978 0.931 . S
C963 H951 0.929 . S
C963 C957 1.390 . S
C963 C960 1.386 . S
C964 C959 1.490 . S
C964 C966 1.395 . S
C964 C967 1.403 . S
H965 C971 0.930 . S
C966 H952 0.930 . S
C966 C964 1.395 . S
C966 C969 1.403 . S
C967 C964 1.403 . S
C967 C968 1.524 . S
C967 C971 1.400 . S
C968 H953 0.960 . S
C968 H954 0.960 . S
C968 H955 0.960 . S
C968 C967 1.524 . S
C969 C966 1.403 . S
C969 C970 1.392 . S
C969 C973 1.495 . S
C970 C969 1.392 . S
C970 C971 1.385 . S
C970 C972 1.478 . S
C971 H965 0.930 . S
C971 C967 1.400 . S
C971 C970 1.385 . S
C972 C970 1.478 . S
C972 C974 1.381 . S
C972 C978 1.383 . S
C973 C969 1.495 . S
C973 H979 0.959 . S
C973 H980 0.961 . S
C973 H981 0.960 . S
C974 C972 1.381 . S
C974 C975 1.394 . S
C974 H982 0.930 . S
C975 C974 1.394 . S
C975 C976 1.383 . S
C975 H983 0.929 . S
C976 C975 1.383 . S
C976 C977 1.377 . S
C977 H961 0.930 . S
C977 C976 1.377 . S
C977 C978 1.379 . S
C978 H962 0.931 . S
C978 C972 1.383 . S
C978 C977 1.379 . S
H979 C973 0.959 . S
H980 C973 0.961 . S
H981 C973 0.960 . S
H982 C974 0.930 . S
H983 C975 0.929 . S
H984 C992 0.929 . S
H985 C994 0.930 . S
H986 C996 0.930 . S
H987 C999 0.929 . S
H988 C1002 0.930 . S
H989 C1004 0.960 . S
H990 C1004 0.960 . S
H991 C1004 0.960 . S
C992 H984 0.929 . S
C992 C993 1.377 . S
C992 C994 1.384 . S
C993 C992 1.377 . S
C993 C999 1.390 . S
C994 H985 0.930 . S
C994 C992 1.384 . S
C994 C995 1.372 . S
C995 C994 1.372 . S
C995 C996 1.400 . S
C995 C1000 1.490 . S
C996 H986 0.930 . S
C996 C995 1.400 . S
C996 C999 1.386 . S
H997 C1013 0.930 . S
H998 C1014 0.931 . S
C999 H987 0.929 . S
C999 C993 1.390 . S
C999 C996 1.386 . S
C1000 C995 1.490 . S
C1000 C1002 1.395 . S
C1000 C1003 1.403 . S
H1001 C1007 0.930 . S
C1002 H988 0.930 . S
C1002 C1000 1.395 . S
C1002 C1005 1.403 . S
C1003 C1000 1.403 . S
C1003 C1004 1.524 . S
C1003 C1007 1.400 . S
C1004 H989 0.960 . S
C1004 H990 0.960 . S
C1004 H991 0.960 . S
C1004 C1003 1.524 . S
C1005 C1002 1.403 . S
C1005 C1006 1.392 . S
C1005 C1009 1.495 . S
C1006 C1005 1.392 . S
C1006 C1007 1.385 . S
C1006 C1008 1.478 . S
C1007 H1001 0.930 . S
C1007 C1003 1.400 . S
C1007 C1006 1.385 . S
C1008 C1006 1.478 . S
C1008 C1010 1.381 . S
C1008 C1014 1.383 . S
C1009 C1005 1.495 . S
C1009 H1015 0.959 . S
C1009 H1016 0.961 . S
C1009 H1017 0.960 . S
C1010 C1008 1.381 . S
C1010 C1011 1.394 . S
C1010 H1018 0.930 . S
C1011 C1010 1.394 . S
C1011 C1012 1.383 . S
C1011 H1019 0.929 . S
C1012 C1011 1.383 . S
C1012 C1013 1.377 . S
C1013 H997 0.930 . S
C1013 C1012 1.377 . S
C1013 C1014 1.379 . S
C1014 H998 0.931 . S
C1014 C1008 1.383 . S
C1014 C1013 1.379 . S
H1015 C1009 0.959 . S
H1016 C1009 0.961 . S
H1017 C1009 0.960 . S
H1018 C1010 0.930 . S
H1019 C1011 0.929 . S
C165 C10 1.280 . S
C184 C88 1.254 . S
C201 C23 1.273 . S
C220 C101 1.256 . S
C237 C36 1.253 . S
C256 C114 1.222 . S
C273 C127 1.274 . S
C292 C49 1.296 . S
C309 C62 1.279 . S
C328 C140 1.302 . S
C345 C153 1.254 . S
C364 C75 1.225 . S
C381 C8 0.633 . S
C400 C125 0.641 . S
C417 C21 0.608 . S
C436 C138 0.662 . S
C453 C151 0.598 . S
C472 C34 0.557 . S
C489 C86 0.633 . S
C508 C47 0.634 . S
C525 C60 0.631 . S
C544 C99 0.584 . S
C561 C73 0.594 . S
C580 C112 0.609 . S
C597 C143 1.878 . S
C616 C0 1.890 . S
C633 C13 1.921 . S
C652 C78 1.924 . S
C669 C26 1.884 . S
C688 C91 1.863 . S
C705 C104 1.876 . S
C724 C39 1.875 . S
C741 C117 1.928 . S
C760 C52 1.919 . S
C777 C65 1.878 . S
C796 C130 1.860 . S
C813 C5 0.651 . S
C832 C135 0.680 . S
C849 C148 0.618 . S
C868 C18 0.549 . S
C885 C83 0.624 . S
C904 C31 0.554 . S
C921 C44 0.637 . S
C940 C96 0.561 . S
C957 C109 0.630 . S
C976 C57 0.640 . S
C993 C122 0.648 . S
C1012 C70 0.660 . S
