# Generated by pormake.
# Topology afw, (4)-cn, num edge types: 1
# Building blocks:
#     Node 0, Type 0, BuildingBlock: ICAMEG_clean_sbu_1, # of connection points: 4
#     Node 1, Type 0, BuildingBlock: ICAMEG_clean_sbu_1, # of connection points: 4
#     Node 2, Type 0, BuildingBlock: ICAMEG_clean_sbu_1, # of connection points: 4
#     Node 3, Type 0, BuildingBlock: ICAMEG_clean_sbu_1, # of connection points: 4
#     Node 4, Type 0, BuildingBlock: ICAMEG_clean_sbu_1, # of connection points: 4
#     Node 5, Type 0, BuildingBlock: ICAMEG_clean_sbu_1, # of connection points: 4
#     Node 6, Type 0, BuildingBlock: ICAMEG_clean_sbu_1, # of connection points: 4
#     Node 7, Type 0, BuildingBlock: ICAMEG_clean_sbu_1, # of connection points: 4
#     Node 8, Type 0, BuildingBlock: ICAMEG_clean_sbu_1, # of connection points: 4
#     Edge 9, Type (0, 0), BuildingBlock: EZIPEK_clean_linker_0, # of connection points: 2
#     Edge 10, Type (0, 0), BuildingBlock: EZIPEK_clean_linker_0, # of connection points: 2
#     Edge 11, Type (0, 0), BuildingBlock: EZIPEK_clean_linker_0, # of connection points: 2
#     Edge 12, Type (0, 0), BuildingBlock: EZIPEK_clean_linker_0, # of connection points: 2
#     Edge 13, Type (0, 0), BuildingBlock: EZIPEK_clean_linker_0, # of connection points: 2
#     Edge 14, Type (0, 0), BuildingBlock: EZIPEK_clean_linker_0, # of connection points: 2
#     Edge 15, Type (0, 0), BuildingBlock: EZIPEK_clean_linker_0, # of connection points: 2
#     Edge 16, Type (0, 0), BuildingBlock: EZIPEK_clean_linker_0, # of connection points: 2
#     Edge 17, Type (0, 0), BuildingBlock: EZIPEK_clean_linker_0, # of connection points: 2
#     Edge 18, Type (0, 0), BuildingBlock: EZIPEK_clean_linker_0, # of connection points: 2
#     Edge 19, Type (0, 0), BuildingBlock: EZIPEK_clean_linker_0, # of connection points: 2
#     Edge 20, Type (0, 0), BuildingBlock: EZIPEK_clean_linker_0, # of connection points: 2
#     Edge 21, Type (0, 0), BuildingBlock: EZIPEK_clean_linker_0, # of connection points: 2
#     Edge 22, Type (0, 0), BuildingBlock: EZIPEK_clean_linker_0, # of connection points: 2
#     Edge 23, Type (0, 0), BuildingBlock: EZIPEK_clean_linker_0, # of connection points: 2
#     Edge 24, Type (0, 0), BuildingBlock: EZIPEK_clean_linker_0, # of connection points: 2
#     Edge 25, Type (0, 0), BuildingBlock: EZIPEK_clean_linker_0, # of connection points: 2
#     Edge 26, Type (0, 0), BuildingBlock: EZIPEK_clean_linker_0, # of connection points: 2
# Relax obj value: 0.098
# Max RMSD: 0.142
# Mean RMSD: 0.142
data_MOF--net-afw--node1-ICAMEG_clean_sbu_1--edge1-EZIPEK_clean_linker_0
_symmetry_space_group_name_H-M    P1
_symmetry_Int_Tables_number       1
_symmetry_cell_setting            triclinic
loop_
_symmetry_equiv_pos_as_xyz
'x, y, z'
_cell_length_a     34.255982
_cell_length_b     34.254405
_cell_length_c     26.468959
_cell_angle_alpha  90.120548
_cell_angle_beta   89.779968
_cell_angle_gamma 119.88009
loop_
_atom_site_label
_atom_site_type_symbol
_atom_site_fract_x
_atom_site_fract_y
_atom_site_fract_z
_atom_type_partial_charge
Co0 Co 0.9966 0.18083 0.07642 0.0
Co1 Co 0.00106 0.17866 0.94659 0.0
O2 O 0.99783 0.20627 0.01002 0.0
C3 C 0.91651 0.19436 0.0929 0.0
O4 O 0.89457 0.16896 0.05421 0.0
C5 C 0.07611 0.27329 0.92428 0.0
O6 O 0.09724 0.27498 0.9662 0.0
O7 O 0.05613 0.17726 0.97119 0.0
O8 O 0.03847 0.16004 0.05312 0.0
H9 H 0.02904 0.07541 0.83519 0.0
H10 H 0.02044 0.27636 0.06564 0.0
O11 O 0.95615 0.20276 0.10337 0.0
H12 H 0.15207 0.28101 0.14636 0.0
H13 H 0.00548 0.18738 0.26641 0.0
H14 H 0.97728 0.09132 0.11701 0.0
H15 H 0.0852 0.20839 0.12516 0.0
H16 H 0.00661 0.21653 0.1812 0.0
O17 O 0.03792 0.23934 0.91435 0.0
H18 H 0.02629 0.11004 0.91555 0.0
H19 H 0.98941 0.19525 0.83865 0.0
H20 H 0.97796 0.0615 0.2012 0.0
H21 H 0.08626 0.34975 0.08693 0.0
H22 H 0.99175 0.10948 0.27685 0.0
H23 H 0.1528 0.35238 0.12752 0.0
O24 O 0.94423 0.12084 0.05532 0.0
H25 H 0.89768 0.24256 0.92825 0.0
H26 H 0.91568 0.1104 0.89735 0.0
H27 H 0.84523 0.10791 0.87234 0.0
H28 H 0.83602 0.17448 0.88733 0.0
H29 H 0.96708 0.24308 0.95347 0.0
H30 H 0.99369 0.16293 0.75708 0.0
H31 H 0.013 0.102 0.75498 0.0
O32 O 0.96295 0.11743 0.97463 0.0
C33 C 0.06196 0.16337 0.0141 0.0
C34 C 0.01996 0.10143 0.83567 0.0
C35 C 0.00014 0.15054 0.79183 0.0
N36 N 0.0051 0.15278 0.88251 0.0
C37 C 0.01745 0.12056 0.88135 0.0
C38 C 0.99765 0.16863 0.83826 0.0
C39 C 0.01102 0.11643 0.79066 0.0
C40 C 0.04889 0.27723 0.08402 0.0
N41 N 0.04853 0.2381 0.09494 0.0
C42 C 0.08624 0.31888 0.09567 0.0
C43 C 0.12359 0.32034 0.11834 0.0
C44 C 0.12321 0.28031 0.1289 0.0
C45 C 0.08525 0.23928 0.11671 0.0
C46 C 8e-05 0.1663 0.23368 0.0
C47 C 0.98524 0.11308 0.14921 0.0
C48 C 0.00084 0.18266 0.18519 0.0
N49 N 0.99469 0.15654 0.14347 0.0
C50 C 0.98461 0.09568 0.19707 0.0
C51 C 0.99231 0.1226 0.23953 0.0
C52 C 0.94 0.09888 0.01434 0.0
C53 C 0.90154 0.21359 0.92074 0.0
C54 C 0.9121 0.13966 0.90369 0.0
C55 C 0.87207 0.13799 0.88953 0.0
C56 C 0.86691 0.17534 0.89797 0.0
N57 N 0.94636 0.17769 0.92503 0.0
C58 C 0.94109 0.21401 0.93435 0.0
Co59 Co 0.83577 0.82353 0.96021 0.0
Co60 Co 0.82525 0.8426 0.08802 0.0
O61 O 0.80588 0.80482 0.0265 0.0
C62 C 0.74507 0.80808 0.9316 0.0
O63 O 0.74375 0.82825 0.9733 0.0
C64 C 0.80741 0.75045 0.12384 0.0
O65 O 0.80163 0.73506 0.07747 0.0
O66 O 0.89056 0.86142 0.07508 0.0
O67 O 0.89505 0.84783 0.99259 0.0
H68 H 0.91921 0.98615 0.18483 0.0
H69 H 0.76362 0.72951 0.97682 0.0
O70 O 0.77706 0.80001 0.92394 0.0
H71 H 0.89691 0.71927 0.92655 0.0
H72 H 0.85448 0.80611 0.77397 0.0
H73 H 0.91987 0.90308 0.92344 0.0
H74 H 0.90101 0.79304 0.93297 0.0
H75 H 0.81682 0.78287 0.85684 0.0
O76 O 0.81814 0.79124 0.1323 0.0
H77 H 0.89406 0.93794 0.10967 0.0
H78 H 0.79666 0.82883 0.19697 0.0
H79 H 0.95887 0.92726 0.84146 0.0
H80 H 0.75755 0.65481 0.96971 0.0
H81 H 0.9261 0.87872 0.76587 0.0
H82 H 0.82469 0.64943 0.94467 0.0
O83 O 0.84001 0.88381 0.96595 0.0
H84 H 0.65749 0.73673 0.08568 0.0
H85 H 0.77803 0.89075 0.12502 0.0
H86 H 0.69898 0.87064 0.13718 0.0
H87 H 0.63793 0.79311 0.1175 0.0
H88 H 0.73688 0.75799 0.07461 0.0
H89 H 0.82124 0.87572 0.27345 0.0
H90 H 0.88292 0.95523 0.2678 0.0
O91 O 0.83246 0.89502 0.04806 0.0
C92 C 0.91265 0.86186 0.03558 0.0
C93 C 0.8925 0.95156 0.18794 0.0
C94 C 0.83758 0.88958 0.23761 0.0
N95 N 0.84426 0.88019 0.1485 0.0
C96 C 0.87811 0.92394 0.14527 0.0
C97 C 0.82404 0.86298 0.19409 0.0
C98 C 0.87211 0.93418 0.23442 0.0
C99 C 0.79253 0.72724 0.96467 0.0
N100 N 0.83224 0.76542 0.95431 0.0
C101 C 0.7891 0.68495 0.96125 0.0
C102 C 0.82682 0.68197 0.94735 0.0
C103 C 0.86735 0.72113 0.93721 0.0
C104 C 0.86947 0.76282 0.94098 0.0
C105 C 0.869 0.82764 0.80658 0.0
C106 C 0.90541 0.88161 0.89086 0.0
C107 C 0.84767 0.8148 0.8536 0.0
N108 N 0.86583 0.84178 0.89501 0.0
C109 C 0.92764 0.89556 0.84446 0.0
C110 C 0.90922 0.86834 0.80207 0.0
C111 C 0.83781 0.90751 1.00201 0.0
C112 C 0.68378 0.77058 0.09464 0.0
C113 C 0.75187 0.85677 0.11687 0.0
C114 C 0.70704 0.84565 0.12364 0.0
C115 C 0.67282 0.8022 0.1125 0.0
N116 N 0.76253 0.82548 0.09994 0.0
C117 C 0.72899 0.78294 0.08832 0.0
Co118 Co 0.18553 0.01247 0.08545 0.0
Co119 Co 0.18994 0.02881 0.95565 0.0
O120 O 0.21313 0.01865 0.01901 0.0
C121 C 0.27661 0.08986 0.11005 0.0
O122 O 0.27266 0.1143 0.07447 0.0
C123 C 0.20554 0.95118 0.93052 0.0
O124 O 0.19421 0.93536 0.97661 0.0
O125 O 0.12742 0.9777 0.97145 0.0
O126 O 0.12474 0.97593 0.05651 0.0
H127 H 0.08007 0.04833 0.84811 0.0
H128 H 0.25626 0.98758 0.07105 0.0
O129 O 0.24643 0.04893 0.11669 0.0
H130 H 0.1234 0.84987 0.13331 0.0
H131 H 0.17658 0.99266 0.2745 0.0
H132 H 0.10146 0.0082 0.12369 0.0
H133 H 0.12045 0.91966 0.12112 0.0
H134 H 0.21034 0.00081 0.19016 0.0
O135 O 0.20522 0.98688 0.91785 0.0
H136 H 0.11153 0.0391 0.92742 0.0
H137 H 0.21843 0.03795 0.84708 0.0
H138 H 0.0663 0.99944 0.20722 0.0
H139 H 0.26117 0.91886 0.08371 0.0
H140 H 0.10398 0.99183 0.28352 0.0
H141 H 0.19422 0.8492 0.11481 0.0
O142 O 0.18119 0.06805 0.07433 0.0
H143 H 0.35967 0.11284 0.96224 0.0
H144 H 0.22593 0.11889 0.90586 0.0
H145 H 0.30121 0.18325 0.88941 0.0
H146 H 0.36893 0.18067 0.91765 0.0
H147 H 0.28398 0.04884 0.97714 0.0
H148 H 0.18795 0.04702 0.76669 0.0
H149 H 0.11834 0.05253 0.76677 0.0
O150 O 0.1755 0.07226 0.99013 0.0
C151 C 0.10635 0.96336 0.01356 0.0
C152 C 0.11049 0.04619 0.84752 0.0
C153 C 0.17091 0.04525 0.80185 0.0
N154 N 0.16675 0.0379 0.89232 0.0
C155 C 0.12849 0.04093 0.89252 0.0
C156 C 0.18784 0.0398 0.84759 0.0
C157 C 0.13192 0.04841 0.80192 0.0
C158 C 0.22744 0.95777 0.08562 0.0
N159 N 0.18848 0.95796 0.09608 0.0
C160 C 0.23021 0.91879 0.09227 0.0
C161 C 0.19261 0.8797 0.1096 0.0
C162 C 0.15287 0.88004 0.11997 0.0
C163 C 0.1514 0.91969 0.11293 0.0
C164 C 0.16001 0.99631 0.2416 0.0
C165 C 0.11819 0.0049 0.15654 0.0
C166 C 0.17918 0.00135 0.19368 0.0
N167 N 0.15846 0.00595 0.15188 0.0
C168 C 0.09806 -4e-05 0.20384 0.0
C169 C 0.11923 0.99573 0.24662 0.0
C170 C 0.17531 0.08614 0.03497 0.0
C171 C 0.33046 0.11426 0.94931 0.0
C172 C 0.25501 0.11678 0.91743 0.0
C173 C 0.2977 0.15368 0.90833 0.0
C174 C 0.33565 0.15228 0.92432 0.0
N175 N 0.25001 0.07912 0.94119 0.0
C176 C 0.28724 0.07799 0.95768 0.0
Co177 Co 0.67949 0.52126 0.29198 0.0
Co178 Co 0.67522 0.51466 0.42295 0.0
O179 O 0.67607 0.54422 0.359 0.0
C180 C 0.75761 0.61542 0.27885 0.0
O181 O 0.77738 0.6126 0.31991 0.0
C182 C 0.6086 0.54804 0.4412 0.0
O183 O 0.61128 0.56107 0.39413 0.0
O184 O 0.62412 0.45569 0.39785 0.0
O185 O 0.63903 0.45835 0.31457 0.0
H186 H 0.66011 0.38784 0.53348 0.0
H187 H 0.65567 0.59343 0.29747 0.0
O188 O 0.71922 0.58366 0.26567 0.0
H189 H 0.52306 0.46277 0.22313 0.0
H190 H 0.67238 0.51992 0.10188 0.0
H191 H 0.70171 0.45305 0.25101 0.0
H192 H 0.59039 0.45811 0.24548 0.0
H193 H 0.66916 0.54669 0.18727 0.0
O194 O 0.63103 0.52969 0.45602 0.0
H195 H 0.65653 0.42268 0.45395 0.0
H196 H 0.68702 0.54297 0.5313 0.0
H197 H 0.70352 0.42402 0.16657 0.0
H198 H 0.58933 0.5998 0.27473 0.0
H199 H 0.68908 0.45767 0.09105 0.0
H200 H 0.52229 0.53406 0.23755 0.0
O201 O 0.73297 0.51546 0.31283 0.0
H202 H 0.76301 0.68338 0.44144 0.0
H203 H 0.76361 0.54171 0.47153 0.0
H204 H 0.82981 0.61385 0.49541 0.0
H205 H 0.82972 0.68539 0.48068 0.0
H206 H 0.69769 0.61065 0.418 0.0
H207 H 0.68792 0.50846 0.61223 0.0
H208 H 0.67525 0.43049 0.61369 0.0
O209 O 0.71888 0.49799 0.39513 0.0
C210 C 0.61772 0.43712 0.35416 0.0
C211 C 0.6662 0.42199 0.53326 0.0
C212 C 0.68188 0.48965 0.57745 0.0
N213 N 0.67451 0.48597 0.48692 0.0
C214 C 0.66535 0.44235 0.48793 0.0
C215 C 0.68136 0.50907 0.5313 0.0
C216 C 0.6747 0.44593 0.57827 0.0
C217 C 0.62686 0.56484 0.28073 0.0
N218 N 0.62701 0.52549 0.27282 0.0
C219 C 0.58928 0.56857 0.26818 0.0
C220 C 0.55165 0.53165 0.2474 0.0
C221 C 0.55204 0.49163 0.23938 0.0
C222 C 0.5902 0.48912 0.2524 0.0
C223 C 0.67807 0.50446 0.13454 0.0
C224 C 0.69359 0.46665 0.21885 0.0
C225 C 0.67609 0.51933 0.18315 0.0
N226 N 0.68273 0.49971 0.22477 0.0
C227 C 0.69555 0.45067 0.17085 0.0
C228 C 0.68751 0.46961 0.12847 0.0
C229 C 0.74056 0.50146 0.35455 0.0
C230 C 0.76324 0.65241 0.44867 0.0
C231 C 0.76306 0.57262 0.46539 0.0
C232 C 0.80074 0.6134 0.47888 0.0
C233 C 0.8007 0.65352 0.47056 0.0
N234 N 0.72595 0.57165 0.44494 0.0
C235 C 0.72614 0.61099 0.43572 0.0
Co236 Co 0.5086 0.1645 0.28546 0.0
Co237 Co 0.49975 0.17812 0.41513 0.0
O238 O 0.47953 0.14313 0.35175 0.0
C239 C 0.41527 0.14444 0.26215 0.0
O240 O 0.41386 0.16218 0.30567 0.0
C241 C 0.47873 0.08345 0.44334 0.0
O242 O 0.47188 0.07095 0.39592 0.0
O243 O 0.56448 0.19584 0.40088 0.0
O244 O 0.56846 0.1894 0.31661 0.0
H245 H 0.59634 0.31694 0.51806 0.0
H246 H 0.43955 0.06896 0.30083 0.0
O247 O 0.44905 0.14015 0.25077 0.0
H248 H 0.57457 0.06615 0.24138 0.0
H249 H 0.52519 0.1537 0.09744 0.0
H250 H 0.59184 0.24591 0.24986 0.0
H251 H 0.57576 0.13819 0.25248 0.0
H252 H 0.48865 0.12747 0.18043 0.0
O253 O 0.4913 0.12409 0.45549 0.0
H254 H 0.57044 0.27168 0.44074 0.0
H255 H 0.47175 0.16036 0.52421 0.0
H256 H 0.62974 0.27301 0.16775 0.0
H257 H 0.43621 0.99588 0.28881 0.0
H258 H 0.59634 0.2269 0.09067 0.0
H259 H 0.5043 0.99424 0.25921 0.0
O260 O 0.51099 0.22369 0.29502 0.0
H261 H 0.33137 0.07526 0.41365 0.0
H262 H 0.45473 0.22654 0.45778 0.0
H263 H 0.37633 0.20767 0.47262 0.0
H264 H 0.31386 0.1315 0.45059 0.0
H265 H 0.4101 0.09532 0.3997 0.0
H266 H 0.49725 0.20412 0.60281 0.0
H267 H 0.55994 0.28331 0.60019 0.0
O268 O 0.5083 0.23296 0.37872 0.0
C269 C 0.58629 0.19966 0.35997 0.0
C270 C 0.56921 0.28247 0.51986 0.0
C271 C 0.51365 0.21916 0.56735 0.0
N272 N 0.51979 0.21303 0.47748 0.0
C273 C 0.55433 0.25655 0.47595 0.0
C274 C 0.49958 0.1943 0.52261 0.0
C275 C 0.54874 0.26357 0.56586 0.0
C276 C 0.46866 0.0683 0.28628 0.0
N277 N 0.50722 0.10764 0.27599 0.0
C278 C 0.46687 0.02693 0.28028 0.0
C279 C 0.50513 0.02605 0.26387 0.0
C280 C 0.54456 0.06637 0.25389 0.0
C281 C 0.54502 0.10708 0.26028 0.0
C282 C 0.53994 0.17423 0.1307 0.0
C283 C 0.57703 0.22551 0.21663 0.0
C284 C 0.5192 0.15972 0.17781 0.0
N285 N 0.53765 0.1854 0.22006 0.0
C286 C 0.59868 0.24111 0.17015 0.0
C287 C 0.5799 0.21525 0.12693 0.0
C288 C 0.51144 0.24675 0.33331 0.0
C289 C 0.35828 0.1085 0.42366 0.0
C290 C 0.42794 0.19318 0.44844 0.0
C291 C 0.38349 0.18274 0.45681 0.0
C292 C 0.34848 0.14005 0.44437 0.0
N293 N 0.43748 0.16196 0.42861 0.0
C294 C 0.40315 0.12017 0.41581 0.0
Co295 Co 0.86301 0.36639 0.27874 0.0
Co296 Co 0.8603 0.34361 0.40733 0.0
O297 O 0.887 0.35291 0.33963 0.0
C298 C 0.86948 0.28507 0.24596 0.0
O299 O 0.85707 0.26734 0.29117 0.0
C300 C 0.95206 0.42041 0.42952 0.0
O301 O 0.9506 0.44081 0.38823 0.0
O302 O 0.85454 0.3988 0.4009 0.0
O303 O 0.85247 0.41038 0.31762 0.0
H304 H 0.74206 0.32487 0.53378 0.0
H305 H 0.95532 0.37922 0.29105 0.0
O306 O 0.87393 0.32356 0.23668 0.0
H307 H 0.97816 0.52143 0.21837 0.0
H308 H 0.85728 0.39196 0.0919 0.0
H309 H 0.78753 0.38355 0.25747 0.0
H310 H 0.90177 0.45926 0.23614 0.0
H311 H 0.88813 0.3777 0.16903 0.0
O312 O 0.92085 0.38054 0.43927 0.0
H313 H 0.7765 0.33717 0.44931 0.0
H314 H 0.88615 0.3275 0.5097 0.0
H315 H 0.75586 0.39811 0.18157 0.0
H316 H 0.03223 0.44058 0.27392 0.0
H317 H 0.7907 0.40248 0.09778 0.0
H318 H 0.04419 0.51237 0.23712 0.0
O319 O 0.79982 0.31701 0.29499 0.0
H320 H 0.93925 0.2539 0.3903 0.0
H321 H 0.79837 0.24926 0.44112 0.0
H322 H 0.80391 0.18037 0.4472 0.0
H323 H 0.87485 0.18247 0.42195 0.0
H324 H 0.93184 0.32179 0.38405 0.0
H325 H 0.85312 0.31574 0.59495 0.0
H326 H 0.7805 0.31427 0.60748 0.0
O327 O 0.79936 0.30679 0.379 0.0
C328 C 0.85109 0.42071 0.36374 0.0
C329 C 0.77379 0.32557 0.52886 0.0
C330 C 0.83617 0.3206 0.5632 0.0
N331 N 0.83371 0.33379 0.47445 0.0
C332 C 0.79348 0.33248 0.48103 0.0
C333 C 0.8549 0.32764 0.5148 0.0
C334 C 0.79539 0.31968 0.57019 0.0
C335 C 0.95993 0.41005 0.27458 0.0
N336 N 0.92365 0.41489 0.26339 0.0
C337 C 0.00374 0.44482 0.26513 0.0
C338 C 0.01043 0.48509 0.24455 0.0
C339 C 0.97342 0.49016 0.23394 0.0
C340 C 0.93012 0.45463 0.24389 0.0
C341 C 0.84167 0.39003 0.12815 0.0
C342 C 0.80293 0.38526 0.22148 0.0
C343 C 0.8588 0.38162 0.17203 0.0
N344 N 0.83945 0.37936 0.21809 0.0
C345 C 0.78484 0.39362 0.17843 0.0
C346 C 0.80438 0.39599 0.13147 0.0
C347 C 0.77984 0.2986 0.33656 0.0
C348 C 0.90833 0.25266 0.40192 0.0
C349 C 0.82942 0.25051 0.43027 0.0
C350 C 0.83234 0.21137 0.43374 0.0
C351 C 0.87214 0.21257 0.41955 0.0
N352 N 0.86523 0.28982 0.41341 0.0
C353 C 0.90415 0.29112 0.39893 0.0
Co354 Co 0.35318 0.86455 0.75711 0.0
Co355 Co 0.3363 0.85981 0.62754 0.0
O356 O 0.34592 0.88929 0.69351 0.0
C357 C 0.26861 0.86676 0.78565 0.0
O358 O 0.24558 0.83804 0.74977 0.0
C359 C 0.42344 0.93797 0.58769 0.0
O360 O 0.4476 0.92116 0.6056 0.0
O361 O 0.38447 0.84464 0.64146 0.0
O362 O 0.39737 0.84988 0.72479 0.0
H363 H 0.31102 0.73394 0.50988 0.0
H364 H 0.37037 0.95801 0.74558 0.0
O365 O 0.31052 0.88079 0.79147 0.0
H366 H 0.50601 0.97337 0.82803 0.0
H367 H 0.36399 0.85682 0.94644 0.0
H368 H 0.35908 0.78383 0.78398 0.0
H369 H 0.44281 0.89844 0.80641 0.0
H370 H 0.35873 0.89033 0.86618 0.0
O371 O 0.38122 0.91921 0.59643 0.0
H372 H 0.32098 0.77088 0.59259 0.0
H373 H 0.334 0.88769 0.52082 0.0
H374 H 0.36473 0.74944 0.86328 0.0
H375 H 0.43262 0.03357 0.76661 0.0
H376 H 0.36728 0.786 0.9453 0.0
H377 H 0.50119 0.04168 0.80814 0.0
O378 O 0.30243 0.80354 0.73978 0.0
H379 H 0.26825 0.96018 0.63146 0.0
H380 H 0.24635 0.81312 0.57625 0.0
H381 H 0.18688 0.83196 0.5602 0.0
H382 H 0.19754 0.90595 0.58801 0.0
H383 H 0.32681 0.93995 0.64676 0.0
H384 H 0.32517 0.85229 0.43742 0.0
H385 H 0.31328 0.77473 0.43155 0.0
O386 O 0.28943 0.80033 0.65683 0.0
C387 C 0.40646 0.84351 0.67972 0.0
C388 C 0.316 0.76767 0.512 0.0
C389 C 0.32413 0.83416 0.4713 0.0
N390 N 0.3279 0.83138 0.56174 0.0
C391 C 0.32139 0.7887 0.55876 0.0
C392 C 0.3294 0.85415 0.5187 0.0
C393 C 0.31738 0.79062 0.46804 0.0
C394 C 0.39993 0.96114 0.76369 0.0
N395 N 0.40282 0.9237 0.7746 0.0
C396 C 0.43516 0.00409 0.7755 0.0
C397 C 0.47361 0.00862 0.79877 0.0
C398 C 0.47633 0.97032 0.80993 0.0
C399 C 0.44042 0.92794 0.79752 0.0
C400 C 0.36307 0.84066 0.91093 0.0
C401 C 0.36065 0.80023 0.81946 0.0
C402 C 0.35994 0.8594 0.86536 0.0
N403 N 0.35911 0.83934 0.82035 0.0
C404 C 0.36365 0.78047 0.86427 0.0
C405 C 0.36495 0.80094 0.91027 0.0
C406 C 0.27952 0.78277 0.70095 0.0
C407 C 0.26301 0.92767 0.61953 0.0
C408 C 0.25106 0.84511 0.5891 0.0
C409 C 0.21735 0.85573 0.57959 0.0
C410 C 0.22337 0.89726 0.59513 0.0
N411 N 0.28958 0.87479 0.61372 0.0
C412 C 0.29598 0.91588 0.62833 0.0
Co413 Co 0.17395 0.52113 0.62612 0.0
Co414 Co 0.14937 0.50083 0.75253 0.0
O415 O 0.13661 0.48267 0.68153 0.0
C416 C 0.08325 0.50205 0.59013 0.0
O417 O 0.07753 0.51947 0.6318 0.0
C418 C 0.13982 0.40938 0.76689 0.0
O419 O 0.16847 0.41611 0.73032 0.0
O420 O 0.21184 0.51044 0.74412 0.0
O421 O 0.22917 0.54151 0.66652 0.0
H422 H 0.24609 0.58902 0.89989 0.0
H423 H 0.11274 0.4227 0.61343 0.0
O424 O 0.11884 0.49974 0.58306 0.0
H425 H 0.26208 0.45026 0.55952 0.0
H426 H 0.22041 0.56002 0.44393 0.0
H427 H 0.25224 0.6136 0.6201 0.0
H428 H 0.25172 0.51287 0.58859 0.0
H429 H 0.17394 0.51121 0.5138 0.0
O430 O 0.12626 0.4373 0.77478 0.0
H431 H 0.22894 0.56929 0.81023 0.0
H432 H 0.09743 0.46516 0.84845 0.0
H433 H 0.30009 0.66299 0.55162 0.0
H434 H 0.12122 0.35904 0.58397 0.0
H435 H 0.2842 0.63642 0.46268 0.0
H436 H 0.19648 0.37264 0.5568 0.0
O437 O 0.1687 0.57335 0.65226 0.0
H438 H 0.98256 0.41696 0.7228 0.0
H439 H 0.10834 0.5527 0.79836 0.0
H440 H 0.03176 0.54167 0.80312 0.0
H441 H 0.96804 0.4732 0.76539 0.0
H442 H 0.05997 0.42988 0.71829 0.0
H443 H 0.11311 0.48378 0.93866 0.0
H444 H 0.18781 0.54631 0.96499 0.0
O445 O 0.17224 0.56569 0.73527 0.0
C446 C 0.23972 0.53072 0.70809 0.0
C447 C 0.21322 0.56203 0.8889 0.0
C448 C 0.1386 0.50304 0.91064 0.0
N449 N 0.16171 0.51724 0.82356 0.0
C450 C 0.20326 0.55079 0.83799 0.0
C451 C 0.12986 0.49284 0.85936 0.0
C452 C 0.18054 0.53804 0.92539 0.0
C453 C 0.14519 0.42898 0.60066 0.0
N454 N 0.18122 0.47163 0.60143 0.0
C455 C 0.14998 0.39277 0.58444 0.0
C456 C 0.19222 0.4004 0.56931 0.0
C457 C 0.22901 0.44393 0.57077 0.0
C458 C 0.22288 0.47929 0.58717 0.0
C459 C 0.22765 0.57201 0.48251 0.0
C460 C 0.24525 0.60157 0.58158 0.0
C461 C 0.20131 0.5446 0.5222 0.0
N462 N 0.21047 0.55942 0.57103 0.0
C463 C 0.27238 0.62982 0.5429 0.0
C464 C 0.26345 0.61486 0.49305 0.0
C465 C 0.17416 0.58924 0.69712 0.0
C466 C 0.00998 0.44681 0.73968 0.0
C467 C 0.08107 0.52305 0.78162 0.0
C468 C 0.03761 0.51684 0.78459 0.0
C469 C 0.00187 0.47841 0.76346 0.0
N470 N 0.08877 0.49175 0.75862 0.0
C471 C 0.05387 0.45415 0.73753 0.0
Co472 Co 0.51686 0.6847 0.76121 0.0
Co473 Co 0.5127 0.67258 0.63134 0.0
O474 O 0.54009 0.67627 0.69699 0.0
C475 C 0.6125 0.76019 0.77439 0.0
O476 O 0.61091 0.78146 0.73395 0.0
C477 C 0.50589 0.59031 0.58536 0.0
O478 O 0.46187 0.57068 0.58874 0.0
O479 O 0.4527 0.62416 0.65826 0.0
O480 O 0.45408 0.64622 0.73894 0.0
H481 H 0.38716 0.64092 0.50867 0.0
H482 H 0.58177 0.65119 0.75768 0.0
O483 O 0.57946 0.72232 0.78702 0.0
H484 H 0.44877 0.53358 0.84718 0.0
H485 H 0.51528 0.69182 0.95125 0.0
H486 H 0.45187 0.71442 0.79504 0.0
H487 H 0.45027 0.60235 0.81696 0.0
H488 H 0.54015 0.67961 0.86835 0.0
O489 O 0.5305 0.62784 0.60761 0.0
H490 H 0.41966 0.64489 0.59181 0.0
H491 H 0.54633 0.6824 0.52489 0.0
H492 H 0.42547 0.7262 0.8768 0.0
H493 H 0.58216 0.5834 0.78798 0.0
H494 H 0.45715 0.71486 0.95599 0.0
H495 H 0.51519 0.5239 0.83308 0.0
O496 O 0.51441 0.73828 0.73307 0.0
H497 H 0.68084 0.75099 0.61019 0.0
H498 H 0.54425 0.76113 0.57959 0.0
H499 H 0.61826 0.82397 0.55409 0.0
H500 H 0.68721 0.81903 0.56905 0.0
H501 H 0.60626 0.68918 0.63587 0.0
H502 H 0.51486 0.67826 0.44067 0.0
H503 H 0.43479 0.65793 0.43191 0.0
O504 O 0.49584 0.71811 0.65192 0.0
C505 C 0.43326 0.62326 0.70027 0.0
C506 C 0.4225 0.65127 0.51202 0.0
C507 C 0.49409 0.6722 0.47389 0.0
N508 N 0.48623 0.66808 0.56451 0.0
C509 C 0.44154 0.65461 0.55953 0.0
C510 C 0.51192 0.67515 0.52202 0.0
C511 C 0.44915 0.6606 0.46897 0.0
C512 C 0.55295 0.62591 0.77803 0.0
N513 N 0.51657 0.63131 0.78648 0.0
C514 C 0.55316 0.58738 0.79477 0.0
C515 C 0.51554 0.55397 0.81996 0.0
C516 C 0.47827 0.55938 0.82787 0.0
C517 C 0.4793 0.59839 0.8106 0.0
C518 C 0.50062 0.69614 0.91705 0.0
C519 C 0.46475 0.70785 0.8288 0.0
C520 C 0.51439 0.68904 0.86986 0.0
N521 N 0.49577 0.69392 0.82633 0.0
C522 C 0.45015 0.71528 0.8753 0.0
C523 C 0.46806 0.7091 0.9197 0.0
C524 C 0.49944 0.74253 0.69007 0.0
C525 C 0.65101 0.75341 0.60318 0.0
C526 C 0.57408 0.75878 0.58658 0.0
C527 C 0.6159 0.79443 0.57184 0.0
C528 C 0.65457 0.79162 0.58021 0.0
N529 N 0.57077 0.72115 0.60864 0.0
C530 C 0.60863 0.71839 0.61736 0.0
C531 C 0.16896 0.15255 1.00309 0.0
C532 C 0.15938 0.11952 0.04075 0.0
C533 C 0.08814 0.11505 0.0579 0.0
C534 C 0.09636 0.14859 0.02088 0.0
N535 N 0.15315 0.2093 0.97013 0.0
N536 N 0.12428 0.0951 0.12225 0.0
C537 C 0.13935 0.17042 0.99654 0.0
C538 C 0.12387 0.10931 0.0744 0.0
N539 N 0.20741 0.16805 0.97539 0.0
N540 N 0.04584 0.086 0.07496 0.0
H541 H 0.15295 0.09637 0.13738 0.0
H542 H 0.09898 0.08898 0.14841 0.0
H543 H 0.01738 0.08344 0.05804 0.0
H544 H 0.03916 0.05998 0.10017 0.0
H545 H 0.21425 0.18774 0.94307 0.0
H546 H 0.23228 0.16048 0.98566 0.0
H547 H 0.18528 0.22822 0.95475 0.0
H548 H 0.13434 0.22542 0.96832 0.0
C549 C 0.88794 0.98105 0.96099 0.0
C550 C 0.85087 0.95559 0.99256 0.0
C551 C 0.86452 0.02658 0.03218 0.0
C552 C 0.90868 0.04889 0.01061 0.0
N553 N 0.96467 0.03893 0.96434 0.0
N554 N 0.79737 0.95501 0.05157 0.0
C555 C 0.92099 0.02379 0.97757 0.0
C556 C 0.83719 0.97878 0.0264 0.0
N557 N 0.89162 0.96518 0.91507 0.0
N558 N 0.84775 0.05062 0.05566 0.0
H559 H 0.77445 0.92175 0.04184 0.0
H560 H 0.78757 0.96789 0.08163 0.0
H561 H 0.86554 0.08545 0.05861 0.0
H562 H 0.81463 0.03651 0.06824 0.0
H563 H 0.91814 0.98434 0.89028 0.0
H564 H 0.86491 0.93635 0.89927 0.0
H565 H 0.97443 0.01986 0.9424 0.0
H566 H 0.99123 0.06699 0.9811 0.0
C567 C 0.98707 0.86389 0.02977 0.0
C568 C 0.96267 0.8872 0.03522 0.0
C569 C 0.03168 0.95913 0.01882 0.0
C570 C 0.05645 0.93614 0.01493 0.0
N571 N 0.05989 0.86793 0.02188 0.0
N572 N 0.96115 0.95677 0.0358 0.0
C573 C 0.03469 0.88878 0.02175 0.0
C574 C 0.98492 0.93474 0.03001 0.0
N575 N 0.96436 0.81787 0.03118 0.0
N576 N 0.05289 0.00451 0.01061 0.0
H577 H 0.92621 0.94023 0.03644 0.0
H578 H 0.97585 0.99122 0.04201 0.0
H579 H 0.08761 0.02434 0.00743 0.0
H580 H 0.03623 0.02241 0.0042 0.0
H581 H 0.97869 0.79824 0.02179 0.0
H582 H 0.93011 0.79898 0.03981 0.0
H583 H 0.04748 0.8345 0.03219 0.0
H584 H 0.0943 0.88494 0.01373 0.0
C585 C 0.84654 0.48956 0.33806 0.0
C586 C 0.83611 0.45438 0.37318 0.0
C587 C 0.765 0.44963 0.39153 0.0
C588 C 0.77421 0.4855 0.35767 0.0
N589 N 0.83108 0.5476 0.30856 0.0
N590 N 0.79927 0.42482 0.45295 0.0
C591 C 0.81724 0.50802 0.3335 0.0
C592 C 0.80009 0.44242 0.40667 0.0
N593 N 0.8852 0.50601 0.31048 0.0
N594 N 0.72222 0.41987 0.40644 0.0
H595 H 0.82749 0.42481 0.46757 0.0
H596 H 0.77342 0.41709 0.47894 0.0
H597 H 0.69448 0.41915 0.38973 0.0
H598 H 0.7146 0.3921 0.42923 0.0
H599 H 0.89266 0.52749 0.27969 0.0
H600 H 0.90955 0.49722 0.31902 0.0
H601 H 0.86333 0.56715 0.29375 0.0
H602 H 0.81175 0.56315 0.30662 0.0
C603 C 0.56164 0.32143 0.29412 0.0
C604 C 0.52536 0.29546 0.32662 0.0
C605 C 0.54165 0.36579 0.37014 0.0
C606 C 0.58519 0.38783 0.34725 0.0
N607 N 0.63886 0.37868 0.29552 0.0
N608 N 0.47422 0.29442 0.38936 0.0
C609 C 0.59576 0.36352 0.31119 0.0
C610 C 0.51337 0.31823 0.36305 0.0
N611 N 0.56339 0.3068 0.24677 0.0
N612 N 0.52638 0.3901 0.39603 0.0
H613 H 0.45059 0.26156 0.37899 0.0
H614 H 0.46563 0.30693 0.42078 0.0
H615 H 0.54476 0.42503 0.39921 0.0
H616 H 0.49375 0.37623 0.41017 0.0
H617 H 0.58919 0.32639 0.22138 0.0
H618 H 0.53585 0.27871 0.23095 0.0
H619 H 0.64753 0.36015 0.27121 0.0
H620 H 0.66612 0.4059 0.31258 0.0
C621 C 0.6599 0.20029 0.35313 0.0
C622 C 0.63622 0.2242 0.35954 0.0
C623 C 0.70586 0.29575 0.34418 0.0
C624 C 0.72993 0.27213 0.33908 0.0
N625 N 0.73204 0.20309 0.34427 0.0
N626 N 0.63603 0.29437 0.36295 0.0
C627 C 0.70751 0.22464 0.34512 0.0
C628 C 0.65911 0.27183 0.35548 0.0
N629 N 0.6365 0.15426 0.35342 0.0
N630 N 0.72777 0.34134 0.3375 0.0
H631 H 0.60113 0.27824 0.36503 0.0
H632 H 0.6513 0.32883 0.36948 0.0
H633 H 0.76261 0.36087 0.33575 0.0
H634 H 0.71158 0.35974 0.33131 0.0
H635 H 0.65032 0.13434 0.34329 0.0
H636 H 0.60216 0.13571 0.36177 0.0
H637 H 0.71912 0.16944 0.35395 0.0
H638 H 0.76642 0.21968 0.33601 0.0
C639 C 0.43406 0.79654 0.63614 0.0
C640 C 0.44131 0.82943 0.67245 0.0
C641 C 0.49965 0.8162 0.70994 0.0
C642 C 0.48108 0.77423 0.6838 0.0
N643 N 0.41974 0.72153 0.62919 0.0
N644 N 0.49086 0.87966 0.73575 0.0
C645 C 0.44556 0.76368 0.64846 0.0
C646 C 0.47699 0.84182 0.70742 0.0
N647 N 0.41752 0.79686 0.58947 0.0
N648 N 0.53995 0.83296 0.7342 0.0
H649 H 0.48089 0.90307 0.72695 0.0
H650 H 0.51214 0.88783 0.76678 0.0
H651 H 0.55947 0.81751 0.73264 0.0
H652 H 0.55656 0.86458 0.7511 0.0
H653 H 0.41356 0.77363 0.56153 0.0
H654 H 0.41552 0.8244 0.57612 0.0
H655 H 0.39214 0.71304 0.60585 0.0
H656 H 0.42088 0.69383 0.64268 0.0
C657 C 0.20993 0.71278 0.66725 0.0
C658 C 0.24105 0.73472 0.70693 0.0
C659 C 0.21038 0.66214 0.75064 0.0
C660 C 0.18877 0.63887 0.70492 0.0
N661 N 0.15649 0.64354 0.62571 0.0
N662 N 0.24521 0.73188 0.79773 0.0
C663 C 0.18517 0.66472 0.66487 0.0
C664 C 0.23441 0.71007 0.75218 0.0
N665 N 0.1992 0.73795 0.63661 0.0
N666 N 0.20709 0.63904 0.79367 0.0
H667 H 0.253 0.7652 0.80186 0.0
H668 H 0.23911 0.71575 0.83253 0.0
H669 H 0.23104 0.65201 0.82235 0.0
H670 H 0.17828 0.60904 0.80255 0.0
H671 H 0.17539 0.72498 0.60791 0.0
H672 H 0.20917 0.77117 0.64594 0.0
H673 H 0.15788 0.65914 0.5915 0.0
H674 H 0.13031 0.61037 0.62831 0.0
C675 C 0.31321 0.5981 0.72438 0.0
C676 C 0.28853 0.55103 0.71644 0.0
C677 C 0.35877 0.55035 0.69826 0.0
C678 C 0.38326 0.59786 0.70449 0.0
N679 N 0.38402 0.66565 0.73331 0.0
N680 N 0.28576 0.48213 0.69165 0.0
C681 C 0.36052 0.62113 0.72067 0.0
C682 C 0.31082 0.52694 0.70282 0.0
N683 N 0.29106 0.62175 0.73117 0.0
N684 N 0.38155 0.52746 0.69084 0.0
H685 H 0.25094 0.46397 0.69657 0.0
H686 H 0.29877 0.46337 0.6753 0.0
H687 H 0.41655 0.54341 0.68824 0.0
H688 H 0.36641 0.49254 0.69099 0.0
H689 H 0.30616 0.65659 0.72786 0.0
H690 H 0.25654 0.60643 0.73655 0.0
H691 H 0.37071 0.68183 0.75473 0.0
H692 H 0.41752 0.68646 0.72431 0.0
C693 C 0.1391 0.32638 0.86507 0.0
C694 C 0.0957 0.3107 0.88659 0.0
C695 C 0.0792 0.34979 0.8202 0.0
C696 C 0.12451 0.37116 0.80324 0.0
N697 N 0.20067 0.38663 0.819 0.0
N698 N 0.03102 0.32055 0.89323 0.0
C699 C 0.15549 0.36135 0.8281 0.0
C700 C 0.06763 0.32623 0.86659 0.0
N701 N 0.1642 0.30716 0.87827 0.0
N702 N 0.04688 0.35113 0.79151 0.0
H703 H 0.02507 0.30836 0.93013 0.0
H704 H 0.01102 0.33392 0.88168 0.0
H705 H 0.05362 0.36507 0.75537 0.0
H706 H 0.01277 0.33344 0.80097 0.0
H707 H 0.19395 0.31437 0.85971 0.0
H708 H 0.15329 0.28106 0.90434 0.0
H709 H 0.22451 0.38338 0.84014 0.0
H710 H 0.21484 0.4138 0.7942 0.0
C711 C 0.70033 0.83036 0.87377 0.0
C712 C 0.71173 0.7977 0.89028 0.0
C713 C 0.6714 0.75087 0.8175 0.0
C714 C 0.65283 0.77872 0.80725 0.0
N715 N 0.64573 0.84319 0.82993 0.0
N716 N 0.69891 0.72182 0.8825 0.0
C717 C 0.66631 0.81817 0.83641 0.0
C718 C 0.69489 0.75658 0.86325 0.0
N719 N 0.72329 0.87354 0.89148 0.0
N720 N 0.66693 0.7192 0.78307 0.0
H721 H 0.712 0.72304 0.91824 0.0
H722 H 0.68396 0.69 0.86591 0.0
H723 H 0.65197 0.71628 0.74791 0.0
H724 H 0.68269 0.70004 0.78698 0.0
H725 H 0.71877 0.89929 0.87702 0.0
H726 H 0.75036 0.88499 0.91626 0.0
H727 H 0.65077 0.86927 0.85424 0.0
H728 H 0.62127 0.83585 0.80251 0.0
C729 C 0.26598 0.93359 0.81849 0.0
C730 C 0.24721 0.88641 0.81817 0.0
C731 C 0.19508 0.8806 0.88577 0.0
C732 C 0.21978 0.92822 0.89223 0.0
N733 N 0.28658 0.99844 0.87038 0.0
N734 N 0.19607 0.81425 0.85513 0.0
C735 C 0.25723 0.95435 0.85988 0.0
C736 C 0.21218 0.85955 0.85271 0.0
N737 N 0.29156 0.95865 0.77864 0.0
N738 N 0.15433 0.85557 0.90904 0.0
H739 H 0.20705 0.79759 0.83097 0.0
H740 H 0.17425 0.79387 0.88345 0.0
H741 H 0.13935 0.86971 0.93119 0.0
H742 H 0.13316 0.82142 0.90183 0.0
H743 H 0.30313 0.99301 0.77513 0.0
H744 H 0.29628 0.94391 0.74636 0.0
H745 H 0.31636 0.01772 0.85025 0.0
H746 H 0.28439 0.01368 0.90324 0.0
C747 C 0.36505 0.09189 0.19454 0.0
C748 C 0.3791 0.13157 0.22365 0.0
C749 C 0.32583 0.14595 0.17653 0.0
C750 C 0.31605 0.10903 0.14427 0.0
N751 N 0.33835 0.05701 0.11311 0.0
N752 N 0.38116 0.20314 0.23139 0.0
C753 C 0.33957 0.08527 0.15027 0.0
C754 C 0.36189 0.16068 0.21166 0.0
N755 N 0.37367 0.05912 0.21049 0.0
N756 N 0.29997 0.166 0.1752 0.0
H757 H 0.40942 0.21668 0.25457 0.0
H758 H 0.37218 0.2267 0.21999 0.0
H759 H 0.27316 0.15622 0.15033 0.0
H760 H 0.30289 0.18981 0.20177 0.0
H761 H 0.36119 0.02821 0.19219 0.0
H762 H 0.38766 0.06039 0.24563 0.0
H763 H 0.35764 0.0412 0.1142 0.0
H764 H 0.32263 0.05429 0.07854 0.0
C765 C 0.8615 0.1909 0.1594 0.0
C766 C 0.89707 0.21622 0.12487 0.0
C767 C 0.91619 0.28494 0.1715 0.0
C768 C 0.87871 0.26071 0.20446 0.0
N769 N 0.80833 0.19186 0.21938 0.0
N770 N 0.94763 0.28836 0.08855 0.0
C771 C 0.8491 0.21394 0.19545 0.0
C772 C 0.92072 0.26363 0.12777 0.0
N773 N 0.84055 0.14498 0.15902 0.0
N774 N 0.94955 0.32722 0.18364 0.0
H775 H 0.95 0.27334 0.05518 0.0
H776 H 0.96304 0.32336 0.08693 0.0
H777 H 0.95035 0.34211 0.21802 0.0
H778 H 0.97928 0.34465 0.1629 0.0
H779 H 0.81803 0.125 0.18706 0.0
H780 H 0.84796 0.12706 0.13246 0.0
H781 H 0.784 0.15888 0.21072 0.0
H782 H 0.79673 0.20784 0.24371 0.0
C783 C 0.80729 0.65829 0.20545 0.0
C784 C 0.77898 0.65585 0.24604 0.0
C785 C 0.76935 0.71525 0.20733 0.0
C786 C 0.79939 0.71948 0.16745 0.0
N787 N 0.85547 0.70243 0.13603 0.0
N788 N 0.74238 0.68898 0.29235 0.0
C789 C 0.82098 0.6932 0.16877 0.0
C790 C 0.76342 0.68694 0.24926 0.0
N791 N 0.81973 0.62625 0.20085 0.0
N792 N 0.7436 0.73526 0.20356 0.0
H793 H 0.73736 0.66832 0.3235 0.0
H794 H 0.73412 0.71398 0.29907 0.0
H795 H 0.74475 0.75423 0.17256 0.0
H796 H 0.71769 0.72923 0.22865 0.0
H797 H 0.83565 0.62288 0.16889 0.0
H798 H 0.81156 0.60119 0.22785 0.0
H799 H 0.87524 0.68724 0.1383 0.0
H800 H 0.8673 0.72852 0.1097 0.0
C801 C 0.03398 0.50868 0.52347 0.0
C802 C 0.04717 0.4819 0.55145 0.0
C803 C 0.00609 0.41974 0.49264 0.0
C804 C 0.98804 0.44404 0.46812 0.0
N805 N 0.97697 0.5087 0.46984 0.0
N806 N 0.03267 0.40747 0.572 0.0
C807 C 0.99986 0.48788 0.48597 0.0
C808 C 0.02935 0.43605 0.53877 0.0
N809 N 0.05451 0.55399 0.53174 0.0
N810 N 0.00245 0.38184 0.47114 0.0
H811 H 0.04528 0.41771 0.60839 0.0
H812 H 0.01739 0.37285 0.56595 0.0
H813 H 0.98909 0.37109 0.4352 0.0
H814 H 0.01795 0.36485 0.48609 0.0
H815 H 0.04949 0.5757 0.50865 0.0
H816 H 0.07927 0.57026 0.55908 0.0
H817 H 0.98161 0.53862 0.4856 0.0
H818 H 0.95004 0.49405 0.44481 0.0
C819 C 0.53583 0.54509 0.46687 0.0
C820 C 0.58057 0.55617 0.47874 0.0
C821 C 0.56932 0.5762 0.56466 0.0
C822 C 0.52811 0.57309 0.55001 0.0
N823 N 0.47705 0.56312 0.4812 0.0
N824 N 0.64312 0.59341 0.53662 0.0
C825 C 0.51238 0.55958 0.49958 0.0
C826 C 0.59819 0.57454 0.52715 0.0
N827 N 0.51502 0.51966 0.4252 0.0
N828 N 0.58088 0.58028 0.61453 0.0
H829 H 0.66623 0.59683 0.50899 0.0
H830 H 0.65801 0.61073 0.56987 0.0
H831 H 0.55973 0.57975 0.64334 0.0
H832 H 0.60889 0.57889 0.62738 0.0
H833 H 0.48097 0.50717 0.4177 0.0
H834 H 0.53022 0.50684 0.40134 0.0
H835 H 0.46804 0.55828 0.44317 0.0
H836 H 0.4597 0.57547 0.5019 0.0
C837 C 0.46821 0.97994 0.51008 0.0
C838 C 0.44426 0.97853 0.5547 0.0
C839 C 0.4417 0.04503 0.526 0.0
C840 C 0.46911 0.04908 0.48349 0.0
N841 N 0.51828 0.0266 0.44338 0.0
N842 N 0.42024 0.0176 0.6115 0.0
C843 C 0.4855 0.01848 0.47814 0.0
C844 C 0.4351 0.01377 0.56476 0.0
N845 N 0.47218 0.94363 0.49621 0.0
N846 N 0.41885 0.06816 0.52791 0.0
H847 H 0.41623 0.99596 0.64128 0.0
H848 H 0.41681 0.04507 0.62208 0.0
H849 H 0.41944 0.08855 0.49869 0.0
H850 H 0.39509 0.06282 0.55575 0.0
H851 H 0.48508 0.94136 0.4613 0.0
H852 H 0.45872 0.91397 0.51713 0.0
H853 H 0.53424 0.0075 0.44117 0.0
H854 H 0.53297 0.05525 0.4206 0.0
loop_
_geom_bond_atom_site_label_1
_geom_bond_atom_site_label_2
_geom_bond_distance
_geom_bond_site_symmetry_2
_ccdc_geom_bond_type
Co0 O2 2.143 . S
Co0 O8 2.074 . S
Co0 O11 2.093 1_455 S
Co0 O24 2.097 1_455 S
Co0 N41 2.151 . S
Co0 N49 2.214 . S
Co1 O2 2.160 1_556 S
Co1 O7 2.058 . S
Co1 O17 2.057 . S
Co1 O32 2.037 1_455 S
Co1 N36 2.145 1_455 S
Co1 N57 2.257 1_455 S
O2 Co0 2.143 . S
O2 Co1 2.160 1_554 S
C3 O4 1.278 . S
C3 O11 1.224 . S
O4 C3 1.278 . S
C5 O6 1.245 . S
C5 O17 1.232 . S
O6 C5 1.245 . S
O7 Co1 2.058 . S
O7 C33 1.269 1_556 S
O8 Co0 2.074 . S
O8 C33 1.257 . S
H9 C34 0.930 . S
H10 C40 0.930 . S
O11 Co0 2.093 1_655 S
O11 C3 1.224 . S
H12 C44 0.929 . S
H13 C46 0.930 . S
H14 C47 0.930 . S
H15 C45 0.929 . S
H16 C48 0.928 . S
O17 Co1 2.057 . S
O17 C5 1.232 . S
H18 C37 0.929 . S
H19 C38 0.929 . S
H20 C50 0.931 . S
H21 C42 0.929 . S
H22 C51 0.930 . S
H23 C43 0.931 . S
O24 Co0 2.097 1_655 S
O24 C52 1.214 . S
H25 C53 0.929 . S
H26 C54 0.929 . S
H27 C55 0.930 . S
H28 C56 0.929 . S
H29 C58 0.930 . S
H30 C35 0.930 1_455 S
H31 C39 0.930 . S
O32 Co1 2.037 1_655 S
O32 C52 1.234 1_556 S
C33 O7 1.269 1_554 S
C33 O8 1.257 . S
C34 H9 0.930 . S
C34 C37 1.388 . S
C34 C39 1.418 . S
C35 H30 0.930 1_655 S
C35 C38 1.404 1_655 S
C35 C39 1.353 . S
N36 Co1 2.145 1_655 S
N36 C37 1.397 . S
N36 C38 1.334 1_655 S
C37 H18 0.929 . S
C37 C34 1.388 . S
C37 N36 1.397 . S
C38 H19 0.929 . S
C38 C35 1.404 1_455 S
C38 N36 1.334 1_455 S
C39 H31 0.930 . S
C39 C34 1.418 . S
C39 C35 1.353 . S
C40 H10 0.930 . S
C40 N41 1.330 . S
C40 C42 1.446 . S
N41 Co0 2.151 . S
N41 C40 1.330 . S
N41 C45 1.418 . S
C42 H21 0.929 . S
C42 C40 1.446 . S
C42 C43 1.332 . S
C43 H23 0.931 . S
C43 C42 1.332 . S
C43 C44 1.267 . S
C44 H12 0.929 . S
C44 C43 1.267 . S
C44 C45 1.251 . S
C45 H15 0.929 . S
C45 N41 1.418 . S
C45 C44 1.251 . S
C46 H13 0.930 . S
C46 C48 1.406 . S
C46 C51 1.261 . S
C47 H14 0.930 . S
C47 N49 1.325 . S
C47 C50 1.357 . S
C48 H16 0.928 . S
C48 C46 1.406 . S
C48 N49 1.261 . S
N49 Co0 2.214 . S
N49 C47 1.325 . S
N49 C48 1.261 . S
C50 H20 0.931 . S
C50 C47 1.357 . S
C50 C51 1.312 . S
C51 H22 0.930 . S
C51 C46 1.261 . S
C51 C50 1.312 . S
C52 O24 1.214 . S
C52 O32 1.234 1_554 S
C53 H25 0.929 . S
C53 C56 1.391 . S
C53 C58 1.391 . S
C54 H26 0.929 . S
C54 C55 1.390 . S
C54 N57 1.391 . S
C55 H27 0.930 . S
C55 C54 1.390 . S
C55 C56 1.392 . S
C56 H28 0.929 . S
C56 C53 1.391 . S
C56 C55 1.392 . S
N57 Co1 2.257 1_655 S
N57 C54 1.391 . S
N57 C58 1.388 . S
C58 H29 0.930 . S
C58 C53 1.391 . S
C58 N57 1.388 . S
Co59 O61 2.143 1_556 S
Co59 O67 2.074 . S
Co59 O70 2.093 . S
Co59 O83 2.097 . S
Co59 N100 2.151 . S
Co59 N108 2.214 . S
Co60 O61 2.160 . S
Co60 O66 2.058 . S
Co60 O76 2.057 . S
Co60 O91 2.037 . S
Co60 N95 2.145 . S
Co60 N116 2.257 . S
O61 Co59 2.143 1_554 S
O61 Co60 2.160 . S
C62 O63 1.278 . S
C62 O70 1.224 . S
O63 C62 1.278 . S
C64 O65 1.245 . S
C64 O76 1.232 . S
O65 C64 1.245 . S
O66 Co60 2.058 . S
O66 C92 1.269 . S
O67 Co59 2.074 . S
O67 C92 1.257 1_556 S
H68 C93 0.930 . S
H69 C99 0.930 . S
O70 Co59 2.093 . S
O70 C62 1.224 . S
H71 C103 0.929 . S
H72 C105 0.930 . S
H73 C106 0.930 . S
H74 C104 0.929 . S
H75 C107 0.928 . S
O76 Co60 2.057 . S
O76 C64 1.232 . S
H77 C96 0.929 . S
H78 C97 0.929 . S
H79 C109 0.931 . S
H80 C101 0.929 . S
H81 C110 0.930 . S
H82 C102 0.931 . S
O83 Co59 2.097 . S
O83 C111 1.214 1_556 S
H84 C112 0.929 . S
H85 C113 0.929 . S
H86 C114 0.930 . S
H87 C115 0.929 . S
H88 C117 0.930 . S
H89 C94 0.930 . S
H90 C98 0.930 . S
O91 Co60 2.037 . S
O91 C111 1.234 . S
C92 O66 1.269 . S
C92 O67 1.257 1_554 S
C93 H68 0.930 . S
C93 C96 1.388 . S
C93 C98 1.418 . S
C94 H89 0.930 . S
C94 C97 1.404 . S
C94 C98 1.353 . S
N95 Co60 2.145 . S
N95 C96 1.397 . S
N95 C97 1.334 . S
C96 H77 0.929 . S
C96 C93 1.388 . S
C96 N95 1.397 . S
C97 H78 0.929 . S
C97 C94 1.404 . S
C97 N95 1.334 . S
C98 H90 0.930 . S
C98 C93 1.418 . S
C98 C94 1.353 . S
C99 H69 0.930 . S
C99 N100 1.330 . S
C99 C101 1.446 . S
N100 Co59 2.151 . S
N100 C99 1.330 . S
N100 C104 1.418 . S
C101 H80 0.929 . S
C101 C99 1.446 . S
C101 C102 1.332 . S
C102 H82 0.931 . S
C102 C101 1.332 . S
C102 C103 1.267 . S
C103 H71 0.929 . S
C103 C102 1.267 . S
C103 C104 1.251 . S
C104 H74 0.929 . S
C104 N100 1.418 . S
C104 C103 1.251 . S
C105 H72 0.930 . S
C105 C107 1.406 . S
C105 C110 1.261 . S
C106 H73 0.930 . S
C106 N108 1.325 . S
C106 C109 1.357 . S
C107 H75 0.928 . S
C107 C105 1.406 . S
C107 N108 1.261 . S
N108 Co59 2.214 . S
N108 C106 1.325 . S
N108 C107 1.261 . S
C109 H79 0.931 . S
C109 C106 1.357 . S
C109 C110 1.312 . S
C110 H81 0.930 . S
C110 C105 1.261 . S
C110 C109 1.312 . S
C111 O83 1.214 1_554 S
C111 O91 1.234 . S
C112 H84 0.929 . S
C112 C115 1.391 . S
C112 C117 1.391 . S
C113 H85 0.929 . S
C113 C114 1.390 . S
C113 N116 1.391 . S
C114 H86 0.930 . S
C114 C113 1.390 . S
C114 C115 1.392 . S
C115 H87 0.929 . S
C115 C112 1.391 . S
C115 C114 1.392 . S
N116 Co60 2.257 . S
N116 C113 1.391 . S
N116 C117 1.388 . S
C117 H88 0.930 . S
C117 C112 1.391 . S
C117 N116 1.388 . S
Co118 O120 2.143 . S
Co118 O126 2.074 1_545 S
Co118 O129 2.093 . S
Co118 O142 2.097 . S
Co118 N159 2.151 1_545 S
Co118 N167 2.214 . S
Co119 O120 2.160 1_556 S
Co119 O125 2.058 1_545 S
Co119 O135 2.057 1_545 S
Co119 O150 2.037 . S
Co119 N154 2.145 . S
Co119 N175 2.257 . S
O120 Co118 2.143 . S
O120 Co119 2.160 1_554 S
C121 O122 1.278 . S
C121 O129 1.224 . S
O122 C121 1.278 . S
C123 O124 1.245 . S
C123 O135 1.232 . S
O124 C123 1.245 . S
O125 Co119 2.058 1_565 S
O125 C151 1.269 1_556 S
O126 Co118 2.074 1_565 S
O126 C151 1.257 . S
H127 C152 0.930 . S
H128 C158 0.930 . S
O129 Co118 2.093 . S
O129 C121 1.224 . S
H130 C162 0.929 . S
H131 C164 0.931 . S
H132 C165 0.930 . S
H133 C163 0.929 . S
H134 C166 0.928 . S
O135 Co119 2.057 1_565 S
O135 C123 1.232 . S
H136 C155 0.929 . S
H137 C156 0.929 . S
H138 C168 0.931 . S
H139 C160 0.929 . S
H140 C169 0.930 . S
H141 C161 0.931 . S
O142 Co118 2.097 . S
O142 C170 1.214 . S
H143 C171 0.929 . S
H144 C172 0.929 . S
H145 C173 0.930 . S
H146 C174 0.929 . S
H147 C176 0.930 . S
H148 C153 0.930 . S
H149 C157 0.930 . S
O150 Co119 2.037 . S
O150 C170 1.234 1_556 S
C151 O125 1.269 1_554 S
C151 O126 1.257 . S
C152 H127 0.930 . S
C152 C155 1.388 . S
C152 C157 1.418 . S
C153 H148 0.930 . S
C153 C156 1.404 . S
C153 C157 1.353 . S
N154 Co119 2.145 . S
N154 C155 1.397 . S
N154 C156 1.334 . S
C155 H136 0.929 . S
C155 C152 1.388 . S
C155 N154 1.397 . S
C156 H137 0.929 . S
C156 C153 1.404 . S
C156 N154 1.334 . S
C157 H149 0.930 . S
C157 C152 1.418 . S
C157 C153 1.353 . S
C158 H128 0.930 . S
C158 N159 1.330 . S
C158 C160 1.446 . S
N159 Co118 2.151 1_565 S
N159 C158 1.330 . S
N159 C163 1.418 . S
C160 H139 0.929 . S
C160 C158 1.446 . S
C160 C161 1.332 . S
C161 H141 0.931 . S
C161 C160 1.332 . S
C161 C162 1.267 . S
C162 H130 0.929 . S
C162 C161 1.267 . S
C162 C163 1.251 . S
C163 H133 0.929 . S
C163 N159 1.418 . S
C163 C162 1.251 . S
C164 H131 0.931 . S
C164 C166 1.406 . S
C164 C169 1.261 . S
C165 H132 0.930 . S
C165 N167 1.325 . S
C165 C168 1.357 . S
C166 H134 0.928 . S
C166 C164 1.406 . S
C166 N167 1.261 . S
N167 Co118 2.214 . S
N167 C165 1.325 . S
N167 C166 1.261 . S
C168 H138 0.931 . S
C168 C165 1.357 . S
C168 C169 1.312 . S
C169 H140 0.930 . S
C169 C164 1.261 . S
C169 C168 1.312 . S
C170 O142 1.214 . S
C170 O150 1.234 1_554 S
C171 H143 0.929 . S
C171 C174 1.391 . S
C171 C176 1.391 . S
C172 H144 0.929 . S
C172 C173 1.390 . S
C172 N175 1.391 . S
C173 H145 0.930 . S
C173 C172 1.390 . S
C173 C174 1.392 . S
C174 H146 0.929 . S
C174 C171 1.391 . S
C174 C173 1.392 . S
N175 Co119 2.257 . S
N175 C172 1.391 . S
N175 C176 1.388 . S
C176 H147 0.930 . S
C176 C171 1.391 . S
C176 N175 1.388 . S
Co177 O179 2.143 . S
Co177 O185 2.074 . S
Co177 O188 2.093 . S
Co177 O201 2.097 . S
Co177 N218 2.151 . S
Co177 N226 2.214 . S
Co178 O179 2.160 . S
Co178 O184 2.058 . S
Co178 O194 2.057 . S
Co178 O209 2.037 . S
Co178 N213 2.145 . S
Co178 N234 2.257 . S
O179 Co177 2.143 . S
O179 Co178 2.160 . S
C180 O181 1.278 . S
C180 O188 1.224 . S
O181 C180 1.278 . S
C182 O183 1.245 . S
C182 O194 1.232 . S
O183 C182 1.245 . S
O184 Co178 2.058 . S
O184 C210 1.269 . S
O185 Co177 2.074 . S
O185 C210 1.257 . S
H186 C211 0.930 . S
H187 C217 0.930 . S
O188 Co177 2.093 . S
O188 C180 1.224 . S
H189 C221 0.929 . S
H190 C223 0.930 . S
H191 C224 0.930 . S
H192 C222 0.929 . S
H193 C225 0.928 . S
O194 Co178 2.057 . S
O194 C182 1.232 . S
H195 C214 0.929 . S
H196 C215 0.929 . S
H197 C227 0.931 . S
H198 C219 0.929 . S
H199 C228 0.930 . S
H200 C220 0.931 . S
O201 Co177 2.097 . S
O201 C229 1.214 . S
H202 C230 0.929 . S
H203 C231 0.929 . S
H204 C232 0.930 . S
H205 C233 0.929 . S
H206 C235 0.930 . S
H207 C212 0.930 . S
H208 C216 0.930 . S
O209 Co178 2.037 . S
O209 C229 1.234 . S
C210 O184 1.269 . S
C210 O185 1.257 . S
C211 H186 0.930 . S
C211 C214 1.388 . S
C211 C216 1.418 . S
C212 H207 0.930 . S
C212 C215 1.404 . S
C212 C216 1.353 . S
N213 Co178 2.145 . S
N213 C214 1.397 . S
N213 C215 1.334 . S
C214 H195 0.929 . S
C214 C211 1.388 . S
C214 N213 1.397 . S
C215 H196 0.929 . S
C215 C212 1.404 . S
C215 N213 1.334 . S
C216 H208 0.930 . S
C216 C211 1.418 . S
C216 C212 1.353 . S
C217 H187 0.930 . S
C217 N218 1.330 . S
C217 C219 1.446 . S
N218 Co177 2.151 . S
N218 C217 1.330 . S
N218 C222 1.418 . S
C219 H198 0.929 . S
C219 C217 1.446 . S
C219 C220 1.332 . S
C220 H200 0.931 . S
C220 C219 1.332 . S
C220 C221 1.267 . S
C221 H189 0.929 . S
C221 C220 1.267 . S
C221 C222 1.251 . S
C222 H192 0.929 . S
C222 N218 1.418 . S
C222 C221 1.251 . S
C223 H190 0.930 . S
C223 C225 1.406 . S
C223 C228 1.261 . S
C224 H191 0.930 . S
C224 N226 1.325 . S
C224 C227 1.357 . S
C225 H193 0.928 . S
C225 C223 1.406 . S
C225 N226 1.261 . S
N226 Co177 2.214 . S
N226 C224 1.325 . S
N226 C225 1.261 . S
C227 H197 0.931 . S
C227 C224 1.357 . S
C227 C228 1.312 . S
C228 H199 0.930 . S
C228 C223 1.261 . S
C228 C227 1.312 . S
C229 O201 1.214 . S
C229 O209 1.234 . S
C230 H202 0.929 . S
C230 C233 1.391 . S
C230 C235 1.391 . S
C231 H203 0.929 . S
C231 C232 1.390 . S
C231 N234 1.391 . S
C232 H204 0.930 . S
C232 C231 1.390 . S
C232 C233 1.392 . S
C233 H205 0.929 . S
C233 C230 1.391 . S
C233 C232 1.392 . S
N234 Co178 2.257 . S
N234 C231 1.391 . S
N234 C235 1.388 . S
C235 H206 0.930 . S
C235 C230 1.391 . S
C235 N234 1.388 . S
Co236 O238 2.143 . S
Co236 O244 2.074 . S
Co236 O247 2.093 . S
Co236 O260 2.097 . S
Co236 N277 2.151 . S
Co236 N285 2.214 . S
Co237 O238 2.160 . S
Co237 O243 2.058 . S
Co237 O253 2.057 . S
Co237 O268 2.037 . S
Co237 N272 2.145 . S
Co237 N293 2.257 . S
O238 Co236 2.143 . S
O238 Co237 2.160 . S
C239 O240 1.278 . S
C239 O247 1.224 . S
O240 C239 1.278 . S
C241 O242 1.245 . S
C241 O253 1.232 . S
O242 C241 1.245 . S
O243 Co237 2.058 . S
O243 C269 1.269 . S
O244 Co236 2.074 . S
O244 C269 1.257 . S
H245 C270 0.930 . S
H246 C276 0.930 . S
O247 Co236 2.093 . S
O247 C239 1.224 . S
H248 C280 0.929 . S
H249 C282 0.930 . S
H250 C283 0.930 . S
H251 C281 0.929 . S
H252 C284 0.928 . S
O253 Co237 2.057 . S
O253 C241 1.232 . S
H254 C273 0.929 . S
H255 C274 0.929 . S
H256 C286 0.931 . S
H257 C278 0.929 . S
H258 C287 0.930 . S
H259 C279 0.931 . S
O260 Co236 2.097 . S
O260 C288 1.214 . S
H261 C289 0.929 . S
H262 C290 0.929 . S
H263 C291 0.930 . S
H264 C292 0.929 . S
H265 C294 0.930 . S
H266 C271 0.930 . S
H267 C275 0.930 . S
O268 Co237 2.037 . S
O268 C288 1.234 . S
C269 O243 1.269 . S
C269 O244 1.257 . S
C270 H245 0.930 . S
C270 C273 1.388 . S
C270 C275 1.418 . S
C271 H266 0.930 . S
C271 C274 1.404 . S
C271 C275 1.353 . S
N272 Co237 2.145 . S
N272 C273 1.397 . S
N272 C274 1.334 . S
C273 H254 0.929 . S
C273 C270 1.388 . S
C273 N272 1.397 . S
C274 H255 0.929 . S
C274 C271 1.404 . S
C274 N272 1.334 . S
C275 H267 0.930 . S
C275 C270 1.418 . S
C275 C271 1.353 . S
C276 H246 0.930 . S
C276 N277 1.330 . S
C276 C278 1.446 . S
N277 Co236 2.151 . S
N277 C276 1.330 . S
N277 C281 1.418 . S
C278 H257 0.929 . S
C278 C276 1.446 . S
C278 C279 1.332 . S
C279 H259 0.931 . S
C279 C278 1.332 . S
C279 C280 1.267 . S
C280 H248 0.929 . S
C280 C279 1.267 . S
C280 C281 1.251 . S
C281 H251 0.929 . S
C281 N277 1.418 . S
C281 C280 1.251 . S
C282 H249 0.930 . S
C282 C284 1.406 . S
C282 C287 1.261 . S
C283 H250 0.930 . S
C283 N285 1.325 . S
C283 C286 1.357 . S
C284 H252 0.928 . S
C284 C282 1.406 . S
C284 N285 1.261 . S
N285 Co236 2.214 . S
N285 C283 1.325 . S
N285 C284 1.261 . S
C286 H256 0.931 . S
C286 C283 1.357 . S
C286 C287 1.312 . S
C287 H258 0.930 . S
C287 C282 1.261 . S
C287 C286 1.312 . S
C288 O260 1.214 . S
C288 O268 1.234 . S
C289 H261 0.929 . S
C289 C292 1.391 . S
C289 C294 1.391 . S
C290 H262 0.929 . S
C290 C291 1.390 . S
C290 N293 1.391 . S
C291 H263 0.930 . S
C291 C290 1.390 . S
C291 C292 1.392 . S
C292 H264 0.929 . S
C292 C289 1.391 . S
C292 C291 1.392 . S
N293 Co237 2.257 . S
N293 C290 1.391 . S
N293 C294 1.388 . S
C294 H265 0.930 . S
C294 C289 1.391 . S
C294 N293 1.388 . S
Co295 O297 2.143 . S
Co295 O303 2.074 . S
Co295 O306 2.093 . S
Co295 O319 2.097 . S
Co295 N336 2.151 . S
Co295 N344 2.214 . S
Co296 O297 2.160 . S
Co296 O302 2.058 . S
Co296 O312 2.057 . S
Co296 O327 2.037 . S
Co296 N331 2.145 . S
Co296 N352 2.257 . S
O297 Co295 2.143 . S
O297 Co296 2.160 . S
C298 O299 1.278 . S
C298 O306 1.224 . S
O299 C298 1.278 . S
C300 O301 1.245 . S
C300 O312 1.232 . S
O301 C300 1.245 . S
O302 Co296 2.058 . S
O302 C328 1.269 . S
O303 Co295 2.074 . S
O303 C328 1.257 . S
H304 C329 0.930 . S
H305 C335 0.930 . S
O306 Co295 2.093 . S
O306 C298 1.224 . S
H307 C339 0.929 . S
H308 C341 0.930 . S
H309 C342 0.930 . S
H310 C340 0.929 . S
H311 C343 0.928 . S
O312 Co296 2.057 . S
O312 C300 1.232 . S
H313 C332 0.929 . S
H314 C333 0.929 . S
H315 C345 0.931 . S
H316 C337 0.929 1_455 S
H317 C346 0.930 . S
H318 C338 0.931 . S
O319 Co295 2.097 . S
O319 C347 1.214 . S
H320 C348 0.929 . S
H321 C349 0.929 . S
H322 C350 0.930 . S
H323 C351 0.929 . S
H324 C353 0.930 . S
H325 C330 0.930 . S
H326 C334 0.930 . S
O327 Co296 2.037 . S
O327 C347 1.234 . S
C328 O302 1.269 . S
C328 O303 1.257 . S
C329 H304 0.930 . S
C329 C332 1.388 . S
C329 C334 1.418 . S
C330 H325 0.930 . S
C330 C333 1.404 . S
C330 C334 1.353 . S
N331 Co296 2.145 . S
N331 C332 1.397 . S
N331 C333 1.334 . S
C332 H313 0.929 . S
C332 C329 1.388 . S
C332 N331 1.397 . S
C333 H314 0.929 . S
C333 C330 1.404 . S
C333 N331 1.334 . S
C334 H326 0.930 . S
C334 C329 1.418 . S
C334 C330 1.353 . S
C335 H305 0.930 . S
C335 N336 1.330 . S
C335 C337 1.446 . S
N336 Co295 2.151 . S
N336 C335 1.330 . S
N336 C340 1.418 . S
C337 H316 0.929 1_655 S
C337 C335 1.446 . S
C337 C338 1.332 . S
C338 H318 0.931 . S
C338 C337 1.332 . S
C338 C339 1.267 . S
C339 H307 0.929 . S
C339 C338 1.267 . S
C339 C340 1.251 . S
C340 H310 0.929 . S
C340 N336 1.418 . S
C340 C339 1.251 . S
C341 H308 0.930 . S
C341 C343 1.406 . S
C341 C346 1.261 . S
C342 H309 0.930 . S
C342 N344 1.325 . S
C342 C345 1.357 . S
C343 H311 0.928 . S
C343 C341 1.406 . S
C343 N344 1.261 . S
N344 Co295 2.214 . S
N344 C342 1.325 . S
N344 C343 1.261 . S
C345 H315 0.931 . S
C345 C342 1.357 . S
C345 C346 1.312 . S
C346 H317 0.930 . S
C346 C341 1.261 . S
C346 C345 1.312 . S
C347 O319 1.214 . S
C347 O327 1.234 . S
C348 H320 0.929 . S
C348 C351 1.391 . S
C348 C353 1.391 . S
C349 H321 0.929 . S
C349 C350 1.390 . S
C349 N352 1.391 . S
C350 H322 0.930 . S
C350 C349 1.390 . S
C350 C351 1.392 . S
C351 H323 0.929 . S
C351 C348 1.391 . S
C351 C350 1.392 . S
N352 Co296 2.257 . S
N352 C349 1.391 . S
N352 C353 1.388 . S
C353 H324 0.930 . S
C353 C348 1.391 . S
C353 N352 1.388 . S
Co354 O356 2.143 . S
Co354 O362 2.074 . S
Co354 O365 2.093 . S
Co354 O378 2.097 . S
Co354 N395 2.151 . S
Co354 N403 2.214 . S
Co355 O356 2.160 . S
Co355 O361 2.058 . S
Co355 O371 2.057 . S
Co355 O386 2.037 . S
Co355 N390 2.145 . S
Co355 N411 2.257 . S
O356 Co354 2.143 . S
O356 Co355 2.160 . S
C357 O358 1.278 . S
C357 O365 1.224 . S
O358 C357 1.278 . S
C359 O360 1.245 . S
C359 O371 1.232 . S
O360 C359 1.245 . S
O361 Co355 2.058 . S
O361 C387 1.269 . S
O362 Co354 2.074 . S
O362 C387 1.257 . S
H363 C388 0.930 . S
H364 C394 0.930 . S
O365 Co354 2.093 . S
O365 C357 1.224 . S
H366 C398 0.929 . S
H367 C400 0.930 . S
H368 C401 0.930 . S
H369 C399 0.929 . S
H370 C402 0.928 . S
O371 Co355 2.057 . S
O371 C359 1.232 . S
H372 C391 0.929 . S
H373 C392 0.929 . S
H374 C404 0.931 . S
H375 C396 0.929 1_545 S
H376 C405 0.930 . S
H377 C397 0.931 . S
O378 Co354 2.097 . S
O378 C406 1.214 . S
H379 C407 0.929 . S
H380 C408 0.929 . S
H381 C409 0.930 . S
H382 C410 0.929 . S
H383 C412 0.930 . S
H384 C389 0.930 . S
H385 C393 0.930 . S
O386 Co355 2.037 . S
O386 C406 1.234 . S
C387 O361 1.269 . S
C387 O362 1.257 . S
C388 H363 0.930 . S
C388 C391 1.388 . S
C388 C393 1.418 . S
C389 H384 0.930 . S
C389 C392 1.404 . S
C389 C393 1.353 . S
N390 Co355 2.145 . S
N390 C391 1.397 . S
N390 C392 1.334 . S
C391 H372 0.929 . S
C391 C388 1.388 . S
C391 N390 1.397 . S
C392 H373 0.929 . S
C392 C389 1.404 . S
C392 N390 1.334 . S
C393 H385 0.930 . S
C393 C388 1.418 . S
C393 C389 1.353 . S
C394 H364 0.930 . S
C394 N395 1.330 . S
C394 C396 1.446 . S
N395 Co354 2.151 . S
N395 C394 1.330 . S
N395 C399 1.418 . S
C396 H375 0.929 1_565 S
C396 C394 1.446 . S
C396 C397 1.332 . S
C397 H377 0.931 . S
C397 C396 1.332 . S
C397 C398 1.267 . S
C398 H366 0.929 . S
C398 C397 1.267 . S
C398 C399 1.251 . S
C399 H369 0.929 . S
C399 N395 1.418 . S
C399 C398 1.251 . S
C400 H367 0.930 . S
C400 C402 1.406 . S
C400 C405 1.261 . S
C401 H368 0.930 . S
C401 N403 1.325 . S
C401 C404 1.357 . S
C402 H370 0.928 . S
C402 C400 1.406 . S
C402 N403 1.261 . S
N403 Co354 2.214 . S
N403 C401 1.325 . S
N403 C402 1.261 . S
C404 H374 0.931 . S
C404 C401 1.357 . S
C404 C405 1.312 . S
C405 H376 0.930 . S
C405 C400 1.261 . S
C405 C404 1.312 . S
C406 O378 1.214 . S
C406 O386 1.234 . S
C407 H379 0.929 . S
C407 C410 1.391 . S
C407 C412 1.391 . S
C408 H380 0.929 . S
C408 C409 1.390 . S
C408 N411 1.391 . S
C409 H381 0.930 . S
C409 C408 1.390 . S
C409 C410 1.392 . S
C410 H382 0.929 . S
C410 C407 1.391 . S
C410 C409 1.392 . S
N411 Co355 2.257 . S
N411 C408 1.391 . S
N411 C412 1.388 . S
C412 H383 0.930 . S
C412 C407 1.391 . S
C412 N411 1.388 . S
Co413 O415 2.143 . S
Co413 O421 2.074 . S
Co413 O424 2.093 . S
Co413 O437 2.097 . S
Co413 N454 2.151 . S
Co413 N462 2.214 . S
Co414 O415 2.160 . S
Co414 O420 2.058 . S
Co414 O430 2.057 . S
Co414 O445 2.037 . S
Co414 N449 2.145 . S
Co414 N470 2.257 . S
O415 Co413 2.143 . S
O415 Co414 2.160 . S
C416 O417 1.278 . S
C416 O424 1.224 . S
O417 C416 1.278 . S
C418 O419 1.245 . S
C418 O430 1.232 . S
O419 C418 1.245 . S
O420 Co414 2.058 . S
O420 C446 1.269 . S
O421 Co413 2.074 . S
O421 C446 1.257 . S
H422 C447 0.930 . S
H423 C453 0.930 . S
O424 Co413 2.093 . S
O424 C416 1.224 . S
H425 C457 0.929 . S
H426 C459 0.930 . S
H427 C460 0.930 . S
H428 C458 0.929 . S
H429 C461 0.928 . S
O430 Co414 2.057 . S
O430 C418 1.232 . S
H431 C450 0.929 . S
H432 C451 0.929 . S
H433 C463 0.931 . S
H434 C455 0.929 . S
H435 C464 0.930 . S
H436 C456 0.931 . S
O437 Co413 2.097 . S
O437 C465 1.214 . S
H438 C466 0.929 1_655 S
H439 C467 0.929 . S
H440 C468 0.930 . S
H441 C469 0.929 1_655 S
H442 C471 0.930 . S
H443 C448 0.930 . S
H444 C452 0.930 . S
O445 Co414 2.037 . S
O445 C465 1.234 . S
C446 O420 1.269 . S
C446 O421 1.257 . S
C447 H422 0.930 . S
C447 C450 1.388 . S
C447 C452 1.418 . S
C448 H443 0.930 . S
C448 C451 1.404 . S
C448 C452 1.353 . S
N449 Co414 2.145 . S
N449 C450 1.397 . S
N449 C451 1.334 . S
C450 H431 0.929 . S
C450 C447 1.388 . S
C450 N449 1.397 . S
C451 H432 0.929 . S
C451 C448 1.404 . S
C451 N449 1.334 . S
C452 H444 0.930 . S
C452 C447 1.418 . S
C452 C448 1.353 . S
C453 H423 0.930 . S
C453 N454 1.330 . S
C453 C455 1.446 . S
N454 Co413 2.151 . S
N454 C453 1.330 . S
N454 C458 1.418 . S
C455 H434 0.929 . S
C455 C453 1.446 . S
C455 C456 1.332 . S
C456 H436 0.931 . S
C456 C455 1.332 . S
C456 C457 1.267 . S
C457 H425 0.929 . S
C457 C456 1.267 . S
C457 C458 1.251 . S
C458 H428 0.929 . S
C458 N454 1.418 . S
C458 C457 1.251 . S
C459 H426 0.930 . S
C459 C461 1.406 . S
C459 C464 1.261 . S
C460 H427 0.930 . S
C460 N462 1.325 . S
C460 C463 1.357 . S
C461 H429 0.928 . S
C461 C459 1.406 . S
C461 N462 1.261 . S
N462 Co413 2.214 . S
N462 C460 1.325 . S
N462 C461 1.261 . S
C463 H433 0.931 . S
C463 C460 1.357 . S
C463 C464 1.312 . S
C464 H435 0.930 . S
C464 C459 1.261 . S
C464 C463 1.312 . S
C465 O437 1.214 . S
C465 O445 1.234 . S
C466 H438 0.929 1_455 S
C466 C469 1.391 . S
C466 C471 1.391 . S
C467 H439 0.929 . S
C467 C468 1.390 . S
C467 N470 1.391 . S
C468 H440 0.930 . S
C468 C467 1.390 . S
C468 C469 1.392 . S
C469 H441 0.929 1_455 S
C469 C466 1.391 . S
C469 C468 1.392 . S
N470 Co414 2.257 . S
N470 C467 1.391 . S
N470 C471 1.388 . S
C471 H442 0.930 . S
C471 C466 1.391 . S
C471 N470 1.388 . S
Co472 O474 2.143 . S
Co472 O480 2.074 . S
Co472 O483 2.093 . S
Co472 O496 2.097 . S
Co472 N513 2.151 . S
Co472 N521 2.214 . S
Co473 O474 2.160 . S
Co473 O479 2.058 . S
Co473 O489 2.057 . S
Co473 O504 2.037 . S
Co473 N508 2.145 . S
Co473 N529 2.257 . S
O474 Co472 2.143 . S
O474 Co473 2.160 . S
C475 O476 1.278 . S
C475 O483 1.224 . S
O476 C475 1.278 . S
C477 O478 1.245 . S
C477 O489 1.232 . S
O478 C477 1.245 . S
O479 Co473 2.058 . S
O479 C505 1.269 . S
O480 Co472 2.074 . S
O480 C505 1.257 . S
H481 C506 0.930 . S
H482 C512 0.930 . S
O483 Co472 2.093 . S
O483 C475 1.224 . S
H484 C516 0.929 . S
H485 C518 0.930 . S
H486 C519 0.930 . S
H487 C517 0.929 . S
H488 C520 0.928 . S
O489 Co473 2.057 . S
O489 C477 1.232 . S
H490 C509 0.929 . S
H491 C510 0.929 . S
H492 C522 0.931 . S
H493 C514 0.929 . S
H494 C523 0.930 . S
H495 C515 0.931 . S
O496 Co472 2.097 . S
O496 C524 1.214 . S
H497 C525 0.929 . S
H498 C526 0.929 . S
H499 C527 0.930 . S
H500 C528 0.929 . S
H501 C530 0.930 . S
H502 C507 0.930 . S
H503 C511 0.930 . S
O504 Co473 2.037 . S
O504 C524 1.234 . S
C505 O479 1.269 . S
C505 O480 1.257 . S
C506 H481 0.930 . S
C506 C509 1.388 . S
C506 C511 1.418 . S
C507 H502 0.930 . S
C507 C510 1.404 . S
C507 C511 1.353 . S
N508 Co473 2.145 . S
N508 C509 1.397 . S
N508 C510 1.334 . S
C509 H490 0.929 . S
C509 C506 1.388 . S
C509 N508 1.397 . S
C510 H491 0.929 . S
C510 C507 1.404 . S
C510 N508 1.334 . S
C511 H503 0.930 . S
C511 C506 1.418 . S
C511 C507 1.353 . S
C512 H482 0.930 . S
C512 N513 1.330 . S
C512 C514 1.446 . S
N513 Co472 2.151 . S
N513 C512 1.330 . S
N513 C517 1.418 . S
C514 H493 0.929 . S
C514 C512 1.446 . S
C514 C515 1.332 . S
C515 H495 0.931 . S
C515 C514 1.332 . S
C515 C516 1.267 . S
C516 H484 0.929 . S
C516 C515 1.267 . S
C516 C517 1.251 . S
C517 H487 0.929 . S
C517 N513 1.418 . S
C517 C516 1.251 . S
C518 H485 0.930 . S
C518 C520 1.406 . S
C518 C523 1.261 . S
C519 H486 0.930 . S
C519 N521 1.325 . S
C519 C522 1.357 . S
C520 H488 0.928 . S
C520 C518 1.406 . S
C520 N521 1.261 . S
N521 Co472 2.214 . S
N521 C519 1.325 . S
N521 C520 1.261 . S
C522 H492 0.931 . S
C522 C519 1.357 . S
C522 C523 1.312 . S
C523 H494 0.930 . S
C523 C518 1.261 . S
C523 C522 1.312 . S
C524 O496 1.214 . S
C524 O504 1.234 . S
C525 H497 0.929 . S
C525 C528 1.391 . S
C525 C530 1.391 . S
C526 H498 0.929 . S
C526 C527 1.390 . S
C526 N529 1.391 . S
C527 H499 0.930 . S
C527 C526 1.390 . S
C527 C528 1.392 . S
C528 H500 0.929 . S
C528 C525 1.391 . S
C528 C527 1.392 . S
N529 Co473 2.257 . S
N529 C526 1.391 . S
N529 C530 1.388 . S
C530 H501 0.930 . S
C530 C525 1.391 . S
C530 N529 1.388 . S
C531 C532 1.363 1_556 S
C531 C537 1.379 . S
C531 N539 1.356 . S
C532 C531 1.363 1_554 S
C532 C538 1.363 . S
C533 C534 1.363 . S
C533 C538 1.379 . S
C533 N540 1.356 . S
C534 C533 1.363 . S
C534 C537 1.363 1_554 S
N535 C537 1.356 . S
N535 H547 0.984 . S
N535 H548 0.985 . S
N536 C538 1.356 . S
N536 H541 0.984 . S
N536 H542 0.985 . S
C537 C531 1.379 . S
C537 C534 1.363 1_556 S
C537 N535 1.356 . S
C538 C532 1.363 . S
C538 C533 1.379 . S
C538 N536 1.356 . S
N539 C531 1.356 . S
N539 H545 0.984 . S
N539 H546 0.984 . S
N540 C533 1.356 . S
N540 H543 0.984 . S
N540 H544 0.985 . S
H541 N536 0.984 . S
H542 N536 0.985 . S
H543 N540 0.984 . S
H544 N540 0.985 . S
H545 N539 0.984 . S
H546 N539 0.984 . S
H547 N535 0.984 . S
H548 N535 0.985 . S
C549 C550 1.363 1_556 S
C549 C555 1.379 1_565 S
C549 N557 1.356 . S
C550 C549 1.363 1_554 S
C550 C556 1.363 . S
C551 C552 1.363 . S
C551 C556 1.379 1_545 S
C551 N558 1.356 . S
C552 C551 1.363 . S
C552 C555 1.363 1_554 S
N553 C555 1.356 . S
N553 H565 0.984 . S
N553 H566 0.985 . S
N554 C556 1.356 . S
N554 H559 0.984 . S
N554 H560 0.985 . S
C555 C549 1.379 1_545 S
C555 C552 1.363 1_556 S
C555 N553 1.356 . S
C556 C550 1.363 . S
C556 C551 1.379 1_565 S
C556 N554 1.356 . S
N557 C549 1.356 . S
N557 H563 0.984 . S
N557 H564 0.984 . S
N558 C551 1.356 . S
N558 H561 0.984 . S
N558 H562 0.985 . S
H559 N554 0.984 . S
H560 N554 0.985 . S
H561 N558 0.984 . S
H562 N558 0.985 . S
H563 N557 0.984 . S
H564 N557 0.984 . S
H565 N553 0.984 . S
H566 N553 0.985 . S
C567 C568 1.363 1_556 S
C567 C573 1.379 1_655 S
C567 N575 1.356 . S
C568 C567 1.363 1_554 S
C568 C574 1.363 . S
C569 C570 1.363 . S
C569 C574 1.379 1_455 S
C569 N576 1.356 . S
C570 C569 1.363 . S
C570 C573 1.363 1_554 S
N571 C573 1.356 . S
N571 H583 0.984 . S
N571 H584 0.985 . S
N572 C574 1.356 . S
N572 H577 0.984 . S
N572 H578 0.985 . S
C573 C567 1.379 1_455 S
C573 C570 1.363 1_556 S
C573 N571 1.356 . S
C574 C568 1.363 . S
C574 C569 1.379 1_655 S
C574 N572 1.356 . S
N575 C567 1.356 . S
N575 H581 0.984 . S
N575 H582 0.984 . S
N576 C569 1.356 . S
N576 H579 0.984 . S
N576 H580 0.985 . S
H577 N572 0.984 . S
H578 N572 0.985 . S
H579 N576 0.984 . S
H580 N576 0.985 . S
H581 N575 0.984 . S
H582 N575 0.984 . S
H583 N571 0.984 . S
H584 N571 0.985 . S
C585 C586 1.363 . S
C585 C591 1.379 . S
C585 N593 1.356 . S
C586 C585 1.363 . S
C586 C592 1.363 . S
C587 C588 1.363 . S
C587 C592 1.379 . S
C587 N594 1.356 . S
C588 C587 1.363 . S
C588 C591 1.363 . S
N589 C591 1.356 . S
N589 H601 0.984 . S
N589 H602 0.985 . S
N590 C592 1.356 . S
N590 H595 0.984 . S
N590 H596 0.985 . S
C591 C585 1.379 . S
C591 C588 1.363 . S
C591 N589 1.356 . S
C592 C586 1.363 . S
C592 C587 1.379 . S
C592 N590 1.356 . S
N593 C585 1.356 . S
N593 H599 0.984 . S
N593 H600 0.984 . S
N594 C587 1.356 . S
N594 H597 0.984 . S
N594 H598 0.985 . S
H595 N590 0.984 . S
H596 N590 0.985 . S
H597 N594 0.984 . S
H598 N594 0.985 . S
H599 N593 0.984 . S
H600 N593 0.984 . S
H601 N589 0.984 . S
H602 N589 0.985 . S
C603 C604 1.363 . S
C603 C609 1.379 . S
C603 N611 1.356 . S
C604 C603 1.363 . S
C604 C610 1.363 . S
C605 C606 1.363 . S
C605 C610 1.379 . S
C605 N612 1.356 . S
C606 C605 1.363 . S
C606 C609 1.363 . S
N607 C609 1.356 . S
N607 H619 0.984 . S
N607 H620 0.985 . S
N608 C610 1.356 . S
N608 H613 0.984 . S
N608 H614 0.985 . S
C609 C603 1.379 . S
C609 C606 1.363 . S
C609 N607 1.356 . S
C610 C604 1.363 . S
C610 C605 1.379 . S
C610 N608 1.356 . S
N611 C603 1.356 . S
N611 H617 0.984 . S
N611 H618 0.984 . S
N612 C605 1.356 . S
N612 H615 0.984 . S
N612 H616 0.985 . S
H613 N608 0.984 . S
H614 N608 0.985 . S
H615 N612 0.984 . S
H616 N612 0.985 . S
H617 N611 0.984 . S
H618 N611 0.984 . S
H619 N607 0.984 . S
H620 N607 0.985 . S
C621 C622 1.363 . S
C621 C627 1.379 . S
C621 N629 1.356 . S
C622 C621 1.363 . S
C622 C628 1.363 . S
C623 C624 1.363 . S
C623 C628 1.379 . S
C623 N630 1.356 . S
C624 C623 1.363 . S
C624 C627 1.363 . S
N625 C627 1.356 . S
N625 H637 0.984 . S
N625 H638 0.985 . S
N626 C628 1.356 . S
N626 H631 0.984 . S
N626 H632 0.985 . S
C627 C621 1.379 . S
C627 C624 1.363 . S
C627 N625 1.356 . S
C628 C622 1.363 . S
C628 C623 1.379 . S
C628 N626 1.356 . S
N629 C621 1.356 . S
N629 H635 0.984 . S
N629 H636 0.984 . S
N630 C623 1.356 . S
N630 H633 0.984 . S
N630 H634 0.985 . S
H631 N626 0.984 . S
H632 N626 0.985 . S
H633 N630 0.984 . S
H634 N630 0.985 . S
H635 N629 0.984 . S
H636 N629 0.984 . S
H637 N625 0.984 . S
H638 N625 0.985 . S
C639 C640 1.363 . S
C639 C645 1.379 . S
C639 N647 1.356 . S
C640 C639 1.363 . S
C640 C646 1.363 . S
C641 C642 1.363 . S
C641 C646 1.379 . S
C641 N648 1.356 . S
C642 C641 1.363 . S
C642 C645 1.363 . S
N643 C645 1.356 . S
N643 H655 0.984 . S
N643 H656 0.985 . S
N644 C646 1.356 . S
N644 H649 0.984 . S
N644 H650 0.985 . S
C645 C639 1.379 . S
C645 C642 1.363 . S
C645 N643 1.356 . S
C646 C640 1.363 . S
C646 C641 1.379 . S
C646 N644 1.356 . S
N647 C639 1.356 . S
N647 H653 0.984 . S
N647 H654 0.984 . S
N648 C641 1.356 . S
N648 H651 0.984 . S
N648 H652 0.985 . S
H649 N644 0.984 . S
H650 N644 0.985 . S
H651 N648 0.984 . S
H652 N648 0.985 . S
H653 N647 0.984 . S
H654 N647 0.984 . S
H655 N643 0.984 . S
H656 N643 0.985 . S
C657 C658 1.363 . S
C657 C663 1.379 . S
C657 N665 1.356 . S
C658 C657 1.363 . S
C658 C664 1.363 . S
C659 C660 1.363 . S
C659 C664 1.379 . S
C659 N666 1.356 . S
C660 C659 1.363 . S
C660 C663 1.363 . S
N661 C663 1.356 . S
N661 H673 0.984 . S
N661 H674 0.985 . S
N662 C664 1.356 . S
N662 H667 0.984 . S
N662 H668 0.985 . S
C663 C657 1.379 . S
C663 C660 1.363 . S
C663 N661 1.356 . S
C664 C658 1.363 . S
C664 C659 1.379 . S
C664 N662 1.356 . S
N665 C657 1.356 . S
N665 H671 0.984 . S
N665 H672 0.984 . S
N666 C659 1.356 . S
N666 H669 0.984 . S
N666 H670 0.985 . S
H667 N662 0.984 . S
H668 N662 0.985 . S
H669 N666 0.984 . S
H670 N666 0.985 . S
H671 N665 0.984 . S
H672 N665 0.984 . S
H673 N661 0.984 . S
H674 N661 0.985 . S
C675 C676 1.363 . S
C675 C681 1.379 . S
C675 N683 1.356 . S
C676 C675 1.363 . S
C676 C682 1.363 . S
C677 C678 1.363 . S
C677 C682 1.379 . S
C677 N684 1.356 . S
C678 C677 1.363 . S
C678 C681 1.363 . S
N679 C681 1.356 . S
N679 H691 0.984 . S
N679 H692 0.985 . S
N680 C682 1.356 . S
N680 H685 0.984 . S
N680 H686 0.985 . S
C681 C675 1.379 . S
C681 C678 1.363 . S
C681 N679 1.356 . S
C682 C676 1.363 . S
C682 C677 1.379 . S
C682 N680 1.356 . S
N683 C675 1.356 . S
N683 H689 0.984 . S
N683 H690 0.984 . S
N684 C677 1.356 . S
N684 H687 0.984 . S
N684 H688 0.985 . S
H685 N680 0.984 . S
H686 N680 0.985 . S
H687 N684 0.984 . S
H688 N684 0.985 . S
H689 N683 0.984 . S
H690 N683 0.984 . S
H691 N679 0.984 . S
H692 N679 0.985 . S
C693 C694 1.363 . S
C693 C699 1.379 . S
C693 N701 1.356 . S
C694 C693 1.363 . S
C694 C700 1.363 . S
C695 C696 1.363 . S
C695 C700 1.379 . S
C695 N702 1.356 . S
C696 C695 1.363 . S
C696 C699 1.363 . S
N697 C699 1.356 . S
N697 H709 0.984 . S
N697 H710 0.985 . S
N698 C700 1.356 . S
N698 H703 0.984 . S
N698 H704 0.985 . S
C699 C693 1.379 . S
C699 C696 1.363 . S
C699 N697 1.356 . S
C700 C694 1.363 . S
C700 C695 1.379 . S
C700 N698 1.356 . S
N701 C693 1.356 . S
N701 H707 0.984 . S
N701 H708 0.984 . S
N702 C695 1.356 . S
N702 H705 0.984 . S
N702 H706 0.985 . S
H703 N698 0.984 . S
H704 N698 0.985 . S
H705 N702 0.984 . S
H706 N702 0.985 . S
H707 N701 0.984 . S
H708 N701 0.984 . S
H709 N697 0.984 . S
H710 N697 0.985 . S
C711 C712 1.363 . S
C711 C717 1.379 . S
C711 N719 1.356 . S
C712 C711 1.363 . S
C712 C718 1.363 . S
C713 C714 1.363 . S
C713 C718 1.379 . S
C713 N720 1.356 . S
C714 C713 1.363 . S
C714 C717 1.363 . S
N715 C717 1.356 . S
N715 H727 0.984 . S
N715 H728 0.985 . S
N716 C718 1.356 . S
N716 H721 0.984 . S
N716 H722 0.985 . S
C717 C711 1.379 . S
C717 C714 1.363 . S
C717 N715 1.356 . S
C718 C712 1.363 . S
C718 C713 1.379 . S
C718 N716 1.356 . S
N719 C711 1.356 . S
N719 H725 0.984 . S
N719 H726 0.984 . S
N720 C713 1.356 . S
N720 H723 0.984 . S
N720 H724 0.985 . S
H721 N716 0.984 . S
H722 N716 0.985 . S
H723 N720 0.984 . S
H724 N720 0.985 . S
H725 N719 0.984 . S
H726 N719 0.984 . S
H727 N715 0.984 . S
H728 N715 0.985 . S
C729 C730 1.363 . S
C729 C735 1.379 . S
C729 N737 1.356 . S
C730 C729 1.363 . S
C730 C736 1.363 . S
C731 C732 1.363 . S
C731 C736 1.379 . S
C731 N738 1.356 . S
C732 C731 1.363 . S
C732 C735 1.363 . S
N733 C735 1.356 1_545 S
N733 H745 0.984 . S
N733 H746 0.985 . S
N734 C736 1.356 . S
N734 H739 0.984 . S
N734 H740 0.985 . S
C735 C729 1.379 . S
C735 C732 1.363 . S
C735 N733 1.356 1_565 S
C736 C730 1.363 . S
C736 C731 1.379 . S
C736 N734 1.356 . S
N737 C729 1.356 . S
N737 H743 0.984 1_565 S
N737 H744 0.984 . S
N738 C731 1.356 . S
N738 H741 0.984 . S
N738 H742 0.985 . S
H739 N734 0.984 . S
H740 N734 0.985 . S
H741 N738 0.984 . S
H742 N738 0.985 . S
H743 N737 0.984 1_545 S
H744 N737 0.984 . S
H745 N733 0.984 . S
H746 N733 0.985 . S
C747 C748 1.363 . S
C747 C753 1.379 . S
C747 N755 1.356 . S
C748 C747 1.363 . S
C748 C754 1.363 . S
C749 C750 1.363 . S
C749 C754 1.379 . S
C749 N756 1.356 . S
C750 C749 1.363 . S
C750 C753 1.363 . S
N751 C753 1.356 . S
N751 H763 0.984 . S
N751 H764 0.985 . S
N752 C754 1.356 . S
N752 H757 0.984 . S
N752 H758 0.985 . S
C753 C747 1.379 . S
C753 C750 1.363 . S
C753 N751 1.356 . S
C754 C748 1.363 . S
C754 C749 1.379 . S
C754 N752 1.356 . S
N755 C747 1.356 . S
N755 H761 0.984 . S
N755 H762 0.984 . S
N756 C749 1.356 . S
N756 H759 0.984 . S
N756 H760 0.985 . S
H757 N752 0.984 . S
H758 N752 0.985 . S
H759 N756 0.984 . S
H760 N756 0.985 . S
H761 N755 0.984 . S
H762 N755 0.984 . S
H763 N751 0.984 . S
H764 N751 0.985 . S
C765 C766 1.363 . S
C765 C771 1.379 . S
C765 N773 1.356 . S
C766 C765 1.363 . S
C766 C772 1.363 . S
C767 C768 1.363 . S
C767 C772 1.379 . S
C767 N774 1.356 . S
C768 C767 1.363 . S
C768 C771 1.363 . S
N769 C771 1.356 . S
N769 H781 0.984 . S
N769 H782 0.985 . S
N770 C772 1.356 1_455 S
N770 H775 0.984 . S
N770 H776 0.985 . S
C771 C765 1.379 . S
C771 C768 1.363 . S
C771 N769 1.356 . S
C772 C766 1.363 . S
C772 C767 1.379 . S
C772 N770 1.356 1_655 S
N773 C765 1.356 . S
N773 H779 0.984 . S
N773 H780 0.984 . S
N774 C767 1.356 . S
N774 H777 0.984 . S
N774 H778 0.985 1_655 S
H775 N770 0.984 . S
H776 N770 0.985 . S
H777 N774 0.984 . S
H778 N774 0.985 1_455 S
H779 N773 0.984 . S
H780 N773 0.984 . S
H781 N769 0.984 . S
H782 N769 0.985 . S
C783 C784 1.363 . S
C783 C789 1.379 . S
C783 N791 1.356 . S
C784 C783 1.363 . S
C784 C790 1.363 . S
C785 C786 1.363 . S
C785 C790 1.379 . S
C785 N792 1.356 . S
C786 C785 1.363 . S
C786 C789 1.363 . S
N787 C789 1.356 . S
N787 H799 0.984 . S
N787 H800 0.985 . S
N788 C790 1.356 . S
N788 H793 0.984 . S
N788 H794 0.985 . S
C789 C783 1.379 . S
C789 C786 1.363 . S
C789 N787 1.356 . S
C790 C784 1.363 . S
C790 C785 1.379 . S
C790 N788 1.356 . S
N791 C783 1.356 . S
N791 H797 0.984 . S
N791 H798 0.984 . S
N792 C785 1.356 . S
N792 H795 0.984 . S
N792 H796 0.985 . S
H793 N788 0.984 . S
H794 N788 0.985 . S
H795 N792 0.984 . S
H796 N792 0.985 . S
H797 N791 0.984 . S
H798 N791 0.984 . S
H799 N787 0.984 . S
H800 N787 0.985 . S
C801 C802 1.363 . S
C801 C807 1.379 1_455 S
C801 N809 1.356 . S
C802 C801 1.363 . S
C802 C808 1.363 . S
C803 C804 1.363 1_455 S
C803 C808 1.379 . S
C803 N810 1.356 1_455 S
C804 C803 1.363 1_655 S
C804 C807 1.363 . S
N805 C807 1.356 . S
N805 H817 0.984 . S
N805 H818 0.985 . S
N806 C808 1.356 . S
N806 H811 0.984 . S
N806 H812 0.985 . S
C807 C801 1.379 1_655 S
C807 C804 1.363 . S
C807 N805 1.356 . S
C808 C802 1.363 . S
C808 C803 1.379 . S
C808 N806 1.356 . S
N809 C801 1.356 . S
N809 H815 0.984 . S
N809 H816 0.984 . S
N810 C803 1.356 1_655 S
N810 H813 0.984 . S
N810 H814 0.985 . S
H811 N806 0.984 . S
H812 N806 0.985 . S
H813 N810 0.984 . S
H814 N810 0.985 . S
H815 N809 0.984 . S
H816 N809 0.984 . S
H817 N805 0.984 . S
H818 N805 0.985 . S
C819 C820 1.363 . S
C819 C825 1.379 . S
C819 N827 1.356 . S
C820 C819 1.363 . S
C820 C826 1.363 . S
C821 C822 1.363 . S
C821 C826 1.379 . S
C821 N828 1.356 . S
C822 C821 1.363 . S
C822 C825 1.363 . S
N823 C825 1.356 . S
N823 H835 0.984 . S
N823 H836 0.985 . S
N824 C826 1.356 . S
N824 H829 0.984 . S
N824 H830 0.985 . S
C825 C819 1.379 . S
C825 C822 1.363 . S
C825 N823 1.356 . S
C826 C820 1.363 . S
C826 C821 1.379 . S
C826 N824 1.356 . S
N827 C819 1.356 . S
N827 H833 0.984 . S
N827 H834 0.984 . S
N828 C821 1.356 . S
N828 H831 0.984 . S
N828 H832 0.985 . S
H829 N824 0.984 . S
H830 N824 0.985 . S
H831 N828 0.984 . S
H832 N828 0.985 . S
H833 N827 0.984 . S
H834 N827 0.984 . S
H835 N823 0.984 . S
H836 N823 0.985 . S
C837 C838 1.363 . S
C837 C843 1.379 1_565 S
C837 N845 1.356 . S
C838 C837 1.363 . S
C838 C844 1.363 1_565 S
C839 C840 1.363 . S
C839 C844 1.379 . S
C839 N846 1.356 . S
C840 C839 1.363 . S
C840 C843 1.363 . S
N841 C843 1.356 . S
N841 H853 0.984 1_545 S
N841 H854 0.985 . S
N842 C844 1.356 . S
N842 H847 0.984 1_545 S
N842 H848 0.985 . S
C843 C837 1.379 1_545 S
C843 C840 1.363 . S
C843 N841 1.356 . S
C844 C838 1.363 1_545 S
C844 C839 1.379 . S
C844 N842 1.356 . S
N845 C837 1.356 . S
N845 H851 0.984 . S
N845 H852 0.984 . S
N846 C839 1.356 . S
N846 H849 0.984 . S
N846 H850 0.985 . S
H847 N842 0.984 1_565 S
H848 N842 0.985 . S
H849 N846 0.984 . S
H850 N846 0.985 . S
H851 N845 0.984 . S
H852 N845 0.984 . S
H853 N841 0.984 1_565 S
H854 N841 0.985 . S
C532 C170 1.321 . S
C534 C33 1.314 . S
C550 C111 1.323 . S
C552 C52 1.322 . S
C568 C92 1.315 . S
C570 C151 1.316 . S
C586 C328 1.314 . S
C588 C229 1.321 . S
C604 C288 1.320 . S
C606 C210 1.314 . S
C622 C269 1.315 . S
C624 C347 1.322 . S
C640 C387 1.314 . S
C642 C524 1.321 . S
C658 C406 1.320 . S
C660 C465 1.320 . S
C676 C446 1.313 . S
C678 C505 1.313 . S
C694 C5 1.499 . S
C696 C418 1.499 . S
C712 C62 1.490 . S
C714 C475 1.490 . S
C730 C357 1.489 . S
C732 C123 1.500 . S
C748 C239 1.489 . S
C750 C121 1.489 . S
C766 C3 1.490 . S
C768 C298 1.490 . S
C784 C180 1.490 . S
C786 C64 1.500 . S
C802 C416 1.489 . S
C804 C300 1.500 . S
C820 C182 1.499 . S
C822 C477 1.499 . S
C838 C359 1.501 . S
C840 C241 1.501 . S
