# Generated by pormake.
# Topology rob, (6)-cn, num edge types: 1
# Building blocks:
#     Node 0, Type 0, BuildingBlock: BETGAK_clean_sbu_0, # of connection points: 6
#     Node 1, Type 0, BuildingBlock: BETGAK_clean_sbu_0, # of connection points: 6
#     Node 2, Type 0, BuildingBlock: BETGAK_clean_sbu_0, # of connection points: 6
#     Node 3, Type 0, BuildingBlock: BETGAK_clean_sbu_0, # of connection points: 6
#     Edge 4, Type (0, 0), BuildingBlock: KIFKEQ_clean_linker_1, # of connection points: 2
#     Edge 5, Type (0, 0), BuildingBlock: KIFKEQ_clean_linker_1, # of connection points: 2
#     Edge 6, Type (0, 0), BuildingBlock: KIFKEQ_clean_linker_1, # of connection points: 2
#     Edge 7, Type (0, 0), BuildingBlock: KIFKEQ_clean_linker_1, # of connection points: 2
#     Edge 8, Type (0, 0), BuildingBlock: KIFKEQ_clean_linker_1, # of connection points: 2
#     Edge 9, Type (0, 0), BuildingBlock: KIFKEQ_clean_linker_1, # of connection points: 2
#     Edge 10, Type (0, 0), BuildingBlock: KIFKEQ_clean_linker_1, # of connection points: 2
#     Edge 11, Type (0, 0), BuildingBlock: KIFKEQ_clean_linker_1, # of connection points: 2
#     Edge 12, Type (0, 0), BuildingBlock: KIFKEQ_clean_linker_1, # of connection points: 2
#     Edge 13, Type (0, 0), BuildingBlock: KIFKEQ_clean_linker_1, # of connection points: 2
#     Edge 14, Type (0, 0), BuildingBlock: KIFKEQ_clean_linker_1, # of connection points: 2
#     Edge 15, Type (0, 0), BuildingBlock: KIFKEQ_clean_linker_1, # of connection points: 2
# Relax obj value: 0.159
# Max RMSD: 0.198
# Mean RMSD: 0.198
data_MOF--net-rob--node1-BETGAK_clean_sbu_0--edge1-KIFKEQ_clean_linker_1
_symmetry_space_group_name_H-M    P1
_symmetry_Int_Tables_number       1
_symmetry_cell_setting            triclinic
loop_
_symmetry_equiv_pos_as_xyz
'x, y, z'
_cell_length_a     16.745664
_cell_length_b     23.365485
_cell_length_c     37.215571
_cell_angle_alpha  89.784172
_cell_angle_beta   124.03403
_cell_angle_gamma 90.037459
loop_
_atom_site_label
_atom_site_type_symbol
_atom_site_fract_x
_atom_site_fract_y
_atom_site_fract_z
_atom_type_partial_charge
La0 La 0.18889 0.30816 1.00141 0.0
La1 La 0.36956 0.2624 0.01189 0.0
C2 C 0.05079 0.3209 0.00993 0.0
C3 C 0.04545 0.32104 0.04819 0.0
C4 C 0.12454 0.33873 0.08882 0.0
C5 C 0.12034 0.33703 0.12527 0.0
C6 C 0.0368 0.31774 0.12192 0.0
C7 C 0.95749 0.30027 0.08108 0.0
C8 C 0.96197 0.30179 0.0446 0.0
C9 C 0.30329 0.38674 1.00305 0.0
C10 C 0.37744 0.27746 0.09572 0.0
C11 C 0.50736 0.24435 1.0039 0.0
C12 C 0.51742 0.24889 0.96706 0.0
C13 C 0.56971 0.20719 0.96149 0.0
C14 C 0.57424 0.20858 0.92507 0.0
C15 C 0.52623 0.25172 0.89341 0.0
C16 C 0.47513 0.294 0.89952 0.0
C17 C 0.47079 0.29262 0.93595 0.0
C18 C 0.2541 0.18552 0.01112 0.0
C19 C 0.18281 0.29509 0.9178 0.0
O20 O 0.09776 0.36345 0.007 0.0
O21 O 0.07316 0.27183 1.00088 0.0
O22 O 0.21014 0.39115 0.98073 0.0
O23 O 0.32935 0.34162 0.02562 0.0
O24 O 0.28285 0.28448 0.0702 0.0
O25 O 0.43165 0.27485 0.08023 0.0
O26 O 0.44909 0.2043 1.00063 0.0
O27 O 0.49515 0.29232 0.01831 0.0
O28 O 0.34731 0.18163 0.03519 0.0
O29 O 0.22931 0.22949 0.98755 0.0
O30 O 0.27752 0.28849 0.94355 0.0
O31 O 0.12811 0.29702 0.93308 0.0
H32 H 0.18983 0.35389 0.09247 0.0
H33 H 0.18229 0.35149 0.15601 0.0
H34 H 0.89248 0.28454 0.07742 0.0
H35 H 0.90042 0.28756 0.01362 0.0
H36 H 0.60564 0.17289 0.98496 0.0
H37 H 0.6133 0.17497 0.92119 0.0
H38 H 0.43843 0.32828 0.87615 0.0
H39 H 0.42976 0.32533 0.93942 0.0
La40 La 0.68997 0.81063 1.00224 0.0
La41 La 0.86683 0.7609 0.01115 0.0
C42 C 0.55437 0.82809 0.01179 0.0
C43 C 0.54536 0.82396 0.04905 0.0
C44 C 0.50336 0.86926 0.05753 0.0
C45 C 0.49899 0.8679 0.094 0.0
C46 C 0.53642 0.82103 0.12285 0.0
C47 C 0.57768 0.77536 0.11396 0.0
C48 C 0.58223 0.77683 0.07752 0.0
C49 C 0.80521 0.88638 1.00148 0.0
C50 C 0.8787 0.77798 0.0956 0.0
C51 C 1.00092 0.73903 1.00128 0.0
C52 C 1.00982 0.74306 0.96402 0.0
C53 C 0.05302 0.69819 0.95583 0.0
C54 C 0.05726 0.69965 0.91932 0.0
C55 C 1.0184 0.74619 0.89017 0.0
C56 C 0.97602 0.79143 0.89881 0.0
C57 C 0.97159 0.78984 0.93526 0.0
C58 C 0.75048 0.68677 0.01253 0.0
C59 C 0.67959 0.79511 0.91776 0.0
O60 O 0.61161 0.86838 0.01438 0.0
O61 O 0.56582 0.78011 0.99702 0.0
O62 O 0.71228 0.89184 0.97982 0.0
O63 O 0.83081 0.8418 0.02463 0.0
O64 O 0.78402 0.78497 0.07059 0.0
O65 O 0.93172 0.77492 0.07953 0.0
O66 O 0.94028 0.70062 0.9979 0.0
O67 O 0.99344 0.78728 0.01695 0.0
O68 O 0.84353 0.68161 0.03569 0.0
O69 O 0.72619 0.73029 0.98856 0.0
O70 O 0.77397 0.78699 0.94297 0.0
O71 O 0.62628 0.79942 0.93365 0.0
H72 H 0.4752 0.90625 0.03625 0.0
H73 H 0.46811 0.90428 0.10004 0.0
H74 H 0.60614 0.73822 0.13504 0.0
H75 H 0.6154 0.7413 0.07189 0.0
H76 H 0.08224 0.66147 0.97737 0.0
H77 H 0.08915 0.66364 0.91348 0.0
H78 H 0.94649 0.82832 0.87751 0.0
H79 H 0.93729 0.82497 0.94062 0.0
La80 La 0.36513 0.81211 0.51124 0.0
La81 La 0.18493 0.76505 0.5007 0.0
C82 C 0.50153 0.82917 0.50219 0.0
C83 C 0.51079 0.82512 0.46498 0.0
C84 C 0.54864 0.87155 0.45513 0.0
C85 C 0.55257 0.87027 0.41855 0.0
C86 C 0.51918 0.82232 0.39112 0.0
C87 C 0.48253 0.77545 0.40138 0.0
C88 C 0.47802 0.77689 0.43783 0.0
C89 C 0.25082 0.88828 0.51191 0.0
C90 C 0.17718 0.78168 0.41717 0.0
C91 C 0.04826 0.74859 0.5096 0.0
C92 C 0.04053 0.75082 0.5473 0.0
C93 C 1.00327 0.70362 0.55672 0.0
C94 C 1.00024 0.70346 0.59355 0.0
C95 C 0.03381 0.75077 0.6216 0.0
C96 C 0.0701 0.79833 0.61186 0.0
C97 C 0.07386 0.79829 0.57522 0.0
C98 C 0.29924 0.68893 0.49992 0.0
C99 C 0.37348 0.79475 0.59513 0.0
O100 O 0.44451 0.86972 0.49947 0.0
O101 O 0.48971 0.78119 0.51707 0.0
O102 O 0.34402 0.89237 0.53513 0.0
O103 O 0.22518 0.8449 0.48798 0.0
O104 O 0.27206 0.78724 0.44276 0.0
O105 O 0.12283 0.77979 0.4326 0.0
O106 O 0.10209 0.70739 0.51036 0.0
O107 O 0.06276 0.79719 0.4964 0.0
O108 O 0.20599 0.68484 0.47666 0.0
O109 O 0.32472 0.73226 0.5239 0.0
O110 O 0.27895 0.78727 0.56964 0.0
O111 O 0.42741 0.79918 0.57955 0.0
H112 H 0.57412 0.90923 0.47549 0.0
H113 H 0.58216 0.9068 0.41182 0.0
H114 H 0.4552 0.73816 0.38065 0.0
H115 H 0.44751 0.74062 0.44433 0.0
H116 H 0.97741 0.66649 0.53578 0.0
H117 H 0.97103 0.66641 0.59994 0.0
H118 H 0.09757 0.83512 0.63311 0.0
H119 H 0.10415 0.8351 0.56916 0.0
La120 La 0.86197 0.31294 0.50947 0.0
La121 La 0.68708 0.26374 0.50227 0.0
C122 C 0.99588 0.33357 0.49915 0.0
C123 C 1.00625 0.32732 0.46249 0.0
C124 C 0.05255 0.37036 0.45435 0.0
C125 C 0.05754 0.36725 0.41811 0.0
C126 C 1.01602 0.32098 0.38916 0.0
C127 C 0.97051 0.27753 0.39774 0.0
C128 C 0.96577 0.28063 0.43406 0.0
C129 C 0.74615 0.38889 0.5095 0.0
C130 C 0.6747 0.27708 0.41734 0.0
C131 C 0.55235 0.24393 0.51213 0.0
C132 C 0.54358 0.24798 0.54936 0.0
C133 C 0.50057 0.20312 0.55778 0.0
C134 C 0.49684 0.20444 0.5944 0.0
C135 C 0.53608 0.25079 0.62338 0.0
C136 C 0.57811 0.29608 0.61448 0.0
C137 C 0.58198 0.29466 0.57791 0.0
C138 C 0.803 0.18783 0.50221 0.0
C139 C 0.87506 0.29856 0.59488 0.0
O140 O 0.93295 0.37175 0.49369 0.0
O141 O 0.98999 0.2864 0.51661 0.0
O142 O 0.83902 0.39405 0.53138 0.0
O143 O 0.72088 0.34412 0.48685 0.0
O144 O 0.76942 0.28351 0.44219 0.0
O145 O 0.6219 0.27585 0.43357 0.0
O146 O 0.61154 0.20464 0.51533 0.0
O147 O 0.56171 0.29207 0.49676 0.0
O148 O 0.71009 0.18259 0.48031 0.0
O149 O 0.82802 0.23259 0.52485 0.0
O150 O 0.78074 0.29023 0.57012 0.0
O151 O 0.92737 0.30264 0.57844 0.0
H152 H 0.08351 0.40698 0.47566 0.0
H153 H 0.09195 0.40186 0.41224 0.0
H154 H 0.93881 0.24095 0.37648 0.0
H155 H 0.92962 0.24681 0.43965 0.0
H156 H 0.47124 0.16651 0.53638 0.0
H157 H 0.46518 0.16845 0.6005 0.0
H158 H 0.60792 0.33278 0.63572 0.0
H159 H 0.61613 0.32976 0.57234 0.0
H160 H 0.78603 0.61564 0.07779 0.0
H161 H 0.5642 0.66596 0.9471 0.0
H162 H 0.67715 0.54628 0.07755 0.0
H163 H 0.45693 0.59372 0.94501 0.0
H164 H 0.25323 0.48934 0.96114 0.0
H165 H 0.35892 0.56446 0.9657 0.0
H166 H 0.60672 0.45915 0.05386 0.0
H167 H 0.50036 0.38714 0.05249 0.0
C168 C 0.71394 0.61125 0.04882 0.0
C169 C 0.68339 0.64581 0.01243 0.0
C170 C 0.65147 0.57106 0.0484 0.0
C171 C 0.55762 0.56334 0.01108 0.0
C172 C 0.52748 0.59862 0.97474 0.0
C173 C 0.58921 0.63988 0.97566 0.0
C174 C 0.33042 0.48254 0.98167 0.0
C175 C 0.36851 0.43183 1.00579 0.0
C176 C 0.39141 0.52547 0.98398 0.0
C177 C 0.49229 0.51827 0.00978 0.0
C178 C 0.52994 0.46722 0.03403 0.0
C179 C 0.46884 0.42506 0.0326 0.0
H180 H 0.2617 0.61655 0.43528 0.0
H181 H 0.48553 0.66749 0.56513 0.0
H182 H 0.36993 0.54653 0.43569 0.0
H183 H 0.59212 0.59473 0.5674 0.0
H184 H 0.79499 0.49156 0.55042 0.0
H185 H 0.68871 0.5661 0.54589 0.0
H186 H 0.44204 0.45944 0.46011 0.0
H187 H 0.54892 0.38786 0.46141 0.0
C188 C 0.33405 0.61214 0.46411 0.0
C189 C 0.36544 0.64713 0.50018 0.0
C190 C 0.39614 0.5716 0.46462 0.0
C191 C 0.49045 0.56405 0.50173 0.0
C192 C 0.52123 0.59956 0.53782 0.0
C193 C 0.45988 0.64111 0.53679 0.0
C194 C 0.71792 0.48429 0.53045 0.0
C195 C 0.68034 0.43335 0.50693 0.0
C196 C 0.65661 0.52689 0.52816 0.0
C197 C 0.55591 0.51915 0.50303 0.0
C198 C 0.51868 0.46786 0.47942 0.0
C199 C 0.5801 0.42598 0.48081 0.0
H200 H 0.06801 0.16471 0.9454 0.0
H201 H 0.29047 0.1122 0.07542 0.0
H202 H 0.96067 0.09204 0.94279 0.0
H203 H 0.18164 0.04229 0.07464 0.0
H204 H 1.00222 0.88451 0.04915 0.0
H205 H 0.10936 0.9556 0.05012 0.0
H206 H 0.86329 0.0633 0.96409 0.0
H207 H 0.7566 0.9892 0.95994 0.0
C208 C 0.09322 0.13798 0.97368 0.0
C209 C 0.18746 0.1436 0.01046 0.0
C210 C 0.03145 0.09649 0.97246 0.0
C211 C 0.06168 0.06058 0.0085 0.0
C212 C 0.15584 0.06766 0.04573 0.0
C213 C 0.21829 0.10815 0.04645 0.0
C214 C 0.97118 0.92275 0.02962 0.0
C215 C 0.871 0.93056 1.00361 0.0
C216 C 0.03278 0.96435 0.03082 0.0
C217 C 0.99584 1.01583 0.0071 0.0
C218 C 0.89516 1.02395 0.98194 0.0
C219 C 0.83363 0.98161 0.97986 0.0
H220 H 1.00013 0.18952 0.54981 0.0
H221 H 0.75462 0.08507 0.46142 0.0
H222 H 0.10728 0.11829 0.55096 0.0
H223 H 0.86122 1.01085 0.46584 0.0
H224 H 0.06436 0.90937 0.44672 0.0
H225 H 0.95759 0.98216 0.44425 0.0
H226 H 0.18023 1.03154 0.57559 0.0
H227 H 0.28861 0.96151 0.57616 0.0
C228 C 0.96913 0.15131 0.53051 0.0
C229 C 0.86897 0.14361 0.50463 0.0
C230 C 0.03072 0.10963 0.53182 0.0
C231 C 0.99376 0.0582 0.50838 0.0
C232 C 0.89312 0.05017 0.48344 0.0
C233 C 0.83162 0.09258 0.48121 0.0
C234 C 0.09008 0.93603 0.47493 0.0
C235 C 0.18466 0.93028 0.51149 0.0
C236 C 0.02863 0.97759 0.47379 0.0
C237 C 0.05944 1.01342 0.50973 0.0
C238 C 0.15395 1.00622 0.54676 0.0
C239 C 0.21614 0.96566 0.54737 0.0
H240 H 0.48896 0.30316 0.3524 0.0
H241 H 0.75639 0.23918 0.37612 0.0
H242 H 0.41759 0.30166 0.27457 0.0
H243 H 0.68467 0.23523 0.29862 0.0
H244 H 0.56532 0.29693 0.16134 0.0
H245 H 0.63539 0.29486 0.23901 0.0
H246 H 0.35992 0.24368 0.21366 0.0
H247 H 0.2896 0.24821 0.13628 0.0
C248 C 0.53191 0.28793 0.34089 0.0
C249 C 0.62835 0.2718 0.37023 0.0
C250 C 0.49106 0.28682 0.29628 0.0
C251 C 0.5455 0.26865 0.28015 0.0
C252 C 0.64119 0.25082 0.30974 0.0
C253 C 0.68226 0.25276 0.35423 0.0
C254 C 0.5201 0.28504 0.17249 0.0
C255 C 0.42201 0.27312 0.14281 0.0
C256 C 0.56022 0.28353 0.21703 0.0
C257 C 0.50334 0.26918 0.23278 0.0
C258 C 0.40556 0.25607 0.20286 0.0
C259 C 0.36529 0.25836 0.15842 0.0
H260 H 0.67398 0.78084 0.20447 0.0
H261 H 0.39189 0.8595 0.13075 0.0
H262 H 0.66902 0.78022 0.26874 0.0
H263 H 0.38818 0.85987 0.1953 0.0
H264 H 0.46705 0.90805 0.33157 0.0
H265 H 0.47166 0.90731 0.26712 0.0
H266 H 0.5795 0.73387 0.2965 0.0
H267 H 0.57622 0.73493 0.36137 0.0
C268 C 0.61047 0.79751 0.20176 0.0
C269 C 0.53327 0.82017 0.1622 0.0
C270 C 0.60782 0.79727 0.23871 0.0
C271 C 0.52827 0.82007 0.23719 0.0
C272 C 0.45113 0.84271 0.19773 0.0
C273 C 0.45342 0.84259 0.16071 0.0
C274 C 0.49234 0.86989 0.32443 0.0
C275 C 0.52148 0.82159 0.35167 0.0
C276 C 0.49412 0.86928 0.28727 0.0
C277 C 0.52591 0.82052 0.27663 0.0
C278 C 0.55538 0.77227 0.30396 0.0
C279 C 0.5527 0.77269 0.34091 0.0
H280 H 0.76003 0.76682 0.8738 0.0
H281 H 0.49657 0.83054 0.85479 0.0
H282 H 0.68635 0.7697 0.79627 0.0
H283 H 0.42318 0.83513 0.77675 0.0
H284 H 0.55779 0.82689 0.65823 0.0
H285 H 0.6307 0.83187 0.7361 0.0
H286 H 0.36409 0.77297 0.71643 0.0
H287 H 0.29066 0.76984 0.63884 0.0
C288 C 0.68659 0.78215 0.85309 0.0
C289 C 0.63406 0.79843 0.87049 0.0
C290 C 0.64445 0.78411 0.80852 0.0
C291 C 0.54884 0.80278 0.78018 0.0
C292 C 0.49655 0.81973 0.79762 0.0
C293 C 0.53863 0.81734 0.84233 0.0
C294 C 0.51483 0.81514 0.67058 0.0
C295 C 0.4186 0.79788 0.64236 0.0
C296 C 0.55664 0.81779 0.71523 0.0
C297 C 0.50331 0.80274 0.73259 0.0
C298 C 0.40685 0.78582 0.70421 0.0
C299 C 0.36492 0.78362 0.65964 0.0
H300 H 0.3908 0.21567 0.63173 0.0
H301 H 0.67774 0.28723 0.70498 0.0
H302 H 0.3896 0.21475 0.69686 0.0
H303 H 0.67454 0.28903 0.76958 0.0
H304 H 0.67833 0.22761 0.88714 0.0
H305 H 0.68003 0.22634 0.8221 0.0
H306 H 0.38076 0.27776 0.74518 0.0
H307 H 0.37785 0.27636 0.80986 0.0
C308 C 0.45366 0.23125 0.6617 0.0
C309 C 0.53437 0.2515 0.663 0.0
C310 C 0.45248 0.2314 0.69899 0.0
C311 C 0.53188 0.25195 0.73856 0.0
C312 C 0.61252 0.2723 0.73983 0.0
C313 C 0.61381 0.272 0.70258 0.0
C314 C 0.61262 0.23809 0.85629 0.0
C315 C 0.52799 0.25209 0.85382 0.0
C316 C 0.61389 0.23805 0.81902 0.0
C317 C 0.5306 0.25208 0.7783 0.0
C318 C 0.44599 0.26613 0.77586 0.0
C319 C 0.44467 0.26608 0.8131 0.0
H320 H 0.06527 0.80217 0.16024 0.0
H321 H 0.79539 0.74425 0.13718 0.0
H322 H 0.13679 0.80153 0.23809 0.0
H323 H 0.86726 0.74113 0.21474 0.0
H324 H 0.99056 0.80462 0.35168 0.0
H325 H 0.91981 0.80186 0.27398 0.0
H326 H 0.19187 0.7432 0.29919 0.0
H327 H 0.26302 0.74847 0.37663 0.0
C328 C 1.02177 0.7885 0.17191 0.0
C329 C 0.92471 0.77376 0.14275 0.0
C330 C 0.06271 0.78785 0.21652 0.0
C331 C 1.0077 0.77154 0.23283 0.0
C332 C 0.91123 0.75523 0.20344 0.0
C333 C 0.87009 0.75671 0.15893 0.0
C334 C 0.03489 0.79099 0.34049 0.0
C335 C 0.13234 0.77721 0.37013 0.0
C336 C 0.99437 0.78908 0.29595 0.0
C337 C 0.05017 0.77244 0.28018 0.0
C338 C 0.14722 0.75742 0.31005 0.0
C339 C 0.18796 0.76015 0.3545 0.0
H340 H 0.87295 0.2873 0.30693 0.0
H341 H 0.16594 0.3495 0.38236 0.0
H342 H 0.87793 0.28395 0.24273 0.0
H343 H 0.1695 0.34846 0.31783 0.0
H344 H 0.17846 0.28421 0.20456 0.0
H345 H 0.17315 0.28348 0.26866 0.0
H346 H 0.88069 0.34704 0.19185 0.0
H347 H 0.88594 0.34761 0.12768 0.0
C348 C 0.9386 0.30006 0.30989 0.0
C349 C 1.01913 0.31857 0.34992 0.0
C350 C 0.94103 0.29882 0.27291 0.0
C351 C 1.02408 0.316 0.27499 0.0
C352 C 0.1047 0.33428 0.31507 0.0
C353 C 0.10226 0.33554 0.35202 0.0
C354 C 0.11317 0.29838 0.20136 0.0
C355 C 0.03267 0.31609 0.1609 0.0
C356 C 0.11014 0.29798 0.23817 0.0
C357 C 1.02655 0.31532 0.23554 0.0
C358 C 0.94578 0.33258 0.195 0.0
C359 C 0.94878 0.33293 0.15816 0.0
H360 H 0.79318 0.27669 0.63932 0.0
H361 H 0.06186 0.32794 0.65778 0.0
H362 H 0.86789 0.27929 0.71682 0.0
H363 H 0.13663 0.33222 0.73594 0.0
H364 H 0.26292 0.26564 0.87384 0.0
H365 H 0.19013 0.27032 0.79627 0.0
H366 H 0.93012 0.34045 0.77734 0.0
H367 H 1.00243 0.33404 0.85516 0.0
C368 C 0.86808 0.28925 0.65988 0.0
C369 C 0.92156 0.30212 0.64226 0.0
C370 C 0.91088 0.29109 0.7045 0.0
C371 C 1.00828 0.30618 0.73276 0.0
C372 C 0.06171 0.31971 0.71515 0.0
C373 C 1.01884 0.31753 0.67034 0.0
C374 C 0.19043 0.28243 0.85319 0.0
C375 C 0.13829 0.29937 0.87063 0.0
C376 C 0.14881 0.28541 0.80864 0.0
C377 C 0.05419 0.30579 0.78043 0.0
C378 C 1.0026 0.32363 0.79802 0.0
C379 C 0.04403 0.32014 0.84263 0.0
H380 H 0.97505 0.83634 0.65186 0.0
H381 H 0.0882 0.6641 0.68065 0.0
H382 H 0.97219 0.83556 0.71683 0.0
H383 H 0.0842 0.66302 0.7453 0.0
H384 H 0.16366 0.70954 0.88216 0.0
H385 H 0.16697 0.71027 0.81748 0.0
H386 H 0.88355 0.78665 0.74412 0.0
H387 H 0.87898 0.7849 0.80847 0.0
C388 C 0.99954 0.79838 0.67214 0.0
C389 C 0.03176 0.75027 0.66108 0.0
C390 C 0.99713 0.79775 0.70914 0.0
C391 C 0.02788 0.74921 0.73622 0.0
C392 C 0.06071 0.70123 0.72531 0.0
C393 C 0.06218 0.70165 0.68807 0.0
C394 C 0.10149 0.72593 0.85218 0.0
C395 C 1.02108 0.74721 0.85072 0.0
C396 C 0.10355 0.72644 0.81509 0.0
C397 C 1.0256 0.74859 0.77566 0.0
C398 C 0.94536 0.77005 0.77416 0.0
C399 C 0.94294 0.76918 0.81115 0.0
loop_
_geom_bond_atom_site_label_1
_geom_bond_atom_site_label_2
_geom_bond_distance
_geom_bond_site_symmetry_2
_ccdc_geom_bond_type
La0 C2 2.928 1_556 S
La0 O20 2.521 1_556 S
La0 O21 2.628 1_556 S
La0 O22 2.554 1_556 S
La0 O23 2.757 . S
La0 O24 2.470 1_556 S
La0 O29 2.482 1_556 S
La0 O31 2.503 . S
La1 C11 2.928 1_554 S
La1 O23 2.482 1_554 S
La1 O25 2.503 . S
La1 O26 2.521 1_554 S
La1 O27 2.628 1_554 S
La1 O28 2.554 1_554 S
La1 O29 2.757 . S
La1 O30 2.470 1_554 S
C2 La0 2.928 1_554 S
C2 C3 1.503 . S
C2 O20 1.261 . S
C2 O21 1.243 . S
C3 C2 1.503 . S
C3 C4 1.394 . S
C3 C8 1.373 . S
C4 C3 1.394 . S
C4 C5 1.380 . S
C4 H32 0.930 . S
C5 C4 1.380 . S
C5 C6 1.376 . S
C5 H33 0.930 . S
C6 C5 1.376 . S
C6 C7 1.370 . S
C7 C6 1.370 . S
C7 C8 1.396 . S
C7 H34 0.929 . S
C8 C3 1.373 . S
C8 C7 1.396 . S
C8 H35 0.929 . S
C9 O22 1.240 . S
C9 O23 1.289 1_554 S
C10 O24 1.258 . S
C10 O25 1.256 . S
C11 La1 2.928 1_556 S
C11 C12 1.503 . S
C11 O26 1.261 . S
C11 O27 1.243 . S
C12 C11 1.503 . S
C12 C13 1.394 . S
C12 C17 1.373 . S
C13 C12 1.394 . S
C13 C14 1.380 . S
C13 H36 0.930 . S
C14 C13 1.380 . S
C14 C15 1.376 . S
C14 H37 0.930 . S
C15 C14 1.376 . S
C15 C16 1.370 . S
C16 C15 1.370 . S
C16 C17 1.396 . S
C16 H38 0.929 . S
C17 C12 1.373 . S
C17 C16 1.396 . S
C17 H39 0.929 . S
C18 O28 1.240 . S
C18 O29 1.289 1_556 S
C19 O30 1.258 . S
C19 O31 1.256 . S
O20 La0 2.521 1_554 S
O20 C2 1.261 . S
O21 La0 2.628 1_554 S
O21 C2 1.243 . S
O22 La0 2.554 1_554 S
O22 C9 1.240 . S
O23 La0 2.757 . S
O23 La1 2.482 1_556 S
O23 C9 1.289 1_556 S
O24 La0 2.470 1_554 S
O24 C10 1.258 . S
O25 La1 2.503 . S
O25 C10 1.256 . S
O26 La1 2.521 1_556 S
O26 C11 1.261 . S
O27 La1 2.628 1_556 S
O27 C11 1.243 . S
O28 La1 2.554 1_556 S
O28 C18 1.240 . S
O29 La0 2.482 1_554 S
O29 La1 2.757 . S
O29 C18 1.289 1_554 S
O30 La1 2.470 1_556 S
O30 C19 1.258 . S
O31 La0 2.503 . S
O31 C19 1.256 . S
H32 C4 0.930 . S
H33 C5 0.930 . S
H34 C7 0.929 . S
H35 C8 0.929 . S
H36 C13 0.930 . S
H37 C14 0.930 . S
H38 C16 0.929 . S
H39 C17 0.929 . S
La40 C42 2.928 1_556 S
La40 O60 2.521 1_556 S
La40 O61 2.628 1_556 S
La40 O62 2.554 1_556 S
La40 O63 2.757 . S
La40 O64 2.470 1_556 S
La40 O69 2.482 1_556 S
La40 O71 2.503 . S
La41 C51 2.928 1_554 S
La41 O63 2.482 1_554 S
La41 O65 2.503 . S
La41 O66 2.521 1_554 S
La41 O67 2.628 1_554 S
La41 O68 2.554 1_554 S
La41 O69 2.757 . S
La41 O70 2.470 1_554 S
C42 La40 2.928 1_554 S
C42 C43 1.503 . S
C42 O60 1.261 . S
C42 O61 1.243 . S
C43 C42 1.503 . S
C43 C44 1.394 . S
C43 C48 1.373 . S
C44 C43 1.394 . S
C44 C45 1.380 . S
C44 H72 0.930 . S
C45 C44 1.380 . S
C45 C46 1.376 . S
C45 H73 0.930 . S
C46 C45 1.376 . S
C46 C47 1.370 . S
C47 C46 1.370 . S
C47 C48 1.396 . S
C47 H74 0.929 . S
C48 C43 1.373 . S
C48 C47 1.396 . S
C48 H75 0.929 . S
C49 O62 1.240 . S
C49 O63 1.289 1_554 S
C50 O64 1.258 . S
C50 O65 1.256 . S
C51 La41 2.928 1_556 S
C51 C52 1.503 . S
C51 O66 1.261 . S
C51 O67 1.243 . S
C52 C51 1.503 . S
C52 C53 1.394 . S
C52 C57 1.373 . S
C53 C52 1.394 . S
C53 C54 1.380 . S
C53 H76 0.930 . S
C54 C53 1.380 . S
C54 C55 1.376 . S
C54 H77 0.930 . S
C55 C54 1.376 . S
C55 C56 1.370 . S
C56 C55 1.370 . S
C56 C57 1.396 . S
C56 H78 0.929 . S
C57 C52 1.373 . S
C57 C56 1.396 . S
C57 H79 0.929 . S
C58 O68 1.240 . S
C58 O69 1.289 1_556 S
C59 O70 1.258 . S
C59 O71 1.256 . S
O60 La40 2.521 1_554 S
O60 C42 1.261 . S
O61 La40 2.628 1_554 S
O61 C42 1.243 . S
O62 La40 2.554 1_554 S
O62 C49 1.240 . S
O63 La40 2.757 . S
O63 La41 2.482 1_556 S
O63 C49 1.289 1_556 S
O64 La40 2.470 1_554 S
O64 C50 1.258 . S
O65 La41 2.503 . S
O65 C50 1.256 . S
O66 La41 2.521 1_556 S
O66 C51 1.261 . S
O67 La41 2.628 1_556 S
O67 C51 1.243 . S
O68 La41 2.554 1_556 S
O68 C58 1.240 . S
O69 La40 2.482 1_554 S
O69 La41 2.757 . S
O69 C58 1.289 1_554 S
O70 La41 2.470 1_556 S
O70 C59 1.258 . S
O71 La40 2.503 . S
O71 C59 1.256 . S
H72 C44 0.930 . S
H73 C45 0.930 . S
H74 C47 0.929 . S
H75 C48 0.929 . S
H76 C53 0.930 . S
H77 C54 0.930 . S
H78 C56 0.929 . S
H79 C57 0.929 . S
La80 C82 2.928 . S
La80 O100 2.521 . S
La80 O101 2.628 . S
La80 O102 2.554 . S
La80 O103 2.757 . S
La80 O104 2.470 . S
La80 O109 2.482 . S
La80 O111 2.503 . S
La81 C91 2.928 . S
La81 O103 2.482 . S
La81 O105 2.503 . S
La81 O106 2.521 . S
La81 O107 2.628 . S
La81 O108 2.554 . S
La81 O109 2.757 . S
La81 O110 2.470 . S
C82 La80 2.928 . S
C82 C83 1.503 . S
C82 O100 1.261 . S
C82 O101 1.243 . S
C83 C82 1.503 . S
C83 C84 1.394 . S
C83 C88 1.373 . S
C84 C83 1.394 . S
C84 C85 1.380 . S
C84 H112 0.930 . S
C85 C84 1.380 . S
C85 C86 1.376 . S
C85 H113 0.930 . S
C86 C85 1.376 . S
C86 C87 1.370 . S
C87 C86 1.370 . S
C87 C88 1.396 . S
C87 H114 0.929 . S
C88 C83 1.373 . S
C88 C87 1.396 . S
C88 H115 0.929 . S
C89 O102 1.240 . S
C89 O103 1.289 . S
C90 O104 1.258 . S
C90 O105 1.256 . S
C91 La81 2.928 . S
C91 C92 1.503 . S
C91 O106 1.261 . S
C91 O107 1.243 . S
C92 C91 1.503 . S
C92 C93 1.394 . S
C92 C97 1.373 . S
C93 C92 1.394 . S
C93 C94 1.380 . S
C93 H116 0.930 . S
C94 C93 1.380 . S
C94 C95 1.376 . S
C94 H117 0.930 . S
C95 C94 1.376 . S
C95 C96 1.370 . S
C96 C95 1.370 . S
C96 C97 1.396 . S
C96 H118 0.929 . S
C97 C92 1.373 . S
C97 C96 1.396 . S
C97 H119 0.929 . S
C98 O108 1.240 . S
C98 O109 1.289 . S
C99 O110 1.258 . S
C99 O111 1.256 . S
O100 La80 2.521 . S
O100 C82 1.261 . S
O101 La80 2.628 . S
O101 C82 1.243 . S
O102 La80 2.554 . S
O102 C89 1.240 . S
O103 La80 2.757 . S
O103 La81 2.482 . S
O103 C89 1.289 . S
O104 La80 2.470 . S
O104 C90 1.258 . S
O105 La81 2.503 . S
O105 C90 1.256 . S
O106 La81 2.521 . S
O106 C91 1.261 . S
O107 La81 2.628 . S
O107 C91 1.243 . S
O108 La81 2.554 . S
O108 C98 1.240 . S
O109 La80 2.482 . S
O109 La81 2.757 . S
O109 C98 1.289 . S
O110 La81 2.470 . S
O110 C99 1.258 . S
O111 La80 2.503 . S
O111 C99 1.256 . S
H112 C84 0.930 . S
H113 C85 0.930 . S
H114 C87 0.929 . S
H115 C88 0.929 . S
H116 C93 0.930 . S
H117 C94 0.930 . S
H118 C96 0.929 . S
H119 C97 0.929 . S
La120 C122 2.928 . S
La120 O140 2.521 . S
La120 O141 2.628 . S
La120 O142 2.554 . S
La120 O143 2.757 . S
La120 O144 2.470 . S
La120 O149 2.482 . S
La120 O151 2.503 . S
La121 C131 2.928 . S
La121 O143 2.482 . S
La121 O145 2.503 . S
La121 O146 2.521 . S
La121 O147 2.628 . S
La121 O148 2.554 . S
La121 O149 2.757 . S
La121 O150 2.470 . S
C122 La120 2.928 . S
C122 C123 1.503 . S
C122 O140 1.261 . S
C122 O141 1.243 . S
C123 C122 1.503 . S
C123 C124 1.394 . S
C123 C128 1.373 . S
C124 C123 1.394 . S
C124 C125 1.380 . S
C124 H152 0.930 . S
C125 C124 1.380 . S
C125 C126 1.376 . S
C125 H153 0.930 . S
C126 C125 1.376 . S
C126 C127 1.370 . S
C127 C126 1.370 . S
C127 C128 1.396 . S
C127 H154 0.929 . S
C128 C123 1.373 . S
C128 C127 1.396 . S
C128 H155 0.929 . S
C129 O142 1.240 . S
C129 O143 1.289 . S
C130 O144 1.258 . S
C130 O145 1.256 . S
C131 La121 2.928 . S
C131 C132 1.503 . S
C131 O146 1.261 . S
C131 O147 1.243 . S
C132 C131 1.503 . S
C132 C133 1.394 . S
C132 C137 1.373 . S
C133 C132 1.394 . S
C133 C134 1.380 . S
C133 H156 0.930 . S
C134 C133 1.380 . S
C134 C135 1.376 . S
C134 H157 0.930 . S
C135 C134 1.376 . S
C135 C136 1.370 . S
C136 C135 1.370 . S
C136 C137 1.396 . S
C136 H158 0.929 . S
C137 C132 1.373 . S
C137 C136 1.396 . S
C137 H159 0.929 . S
C138 O148 1.240 . S
C138 O149 1.289 . S
C139 O150 1.258 . S
C139 O151 1.256 . S
O140 La120 2.521 . S
O140 C122 1.261 . S
O141 La120 2.628 . S
O141 C122 1.243 . S
O142 La120 2.554 . S
O142 C129 1.240 . S
O143 La120 2.757 . S
O143 La121 2.482 . S
O143 C129 1.289 . S
O144 La120 2.470 . S
O144 C130 1.258 . S
O145 La121 2.503 . S
O145 C130 1.256 . S
O146 La121 2.521 . S
O146 C131 1.261 . S
O147 La121 2.628 . S
O147 C131 1.243 . S
O148 La121 2.554 . S
O148 C138 1.240 . S
O149 La120 2.482 . S
O149 La121 2.757 . S
O149 C138 1.289 . S
O150 La121 2.470 . S
O150 C139 1.258 . S
O151 La120 2.503 . S
O151 C139 1.256 . S
H152 C124 0.930 . S
H153 C125 0.930 . S
H154 C127 0.929 . S
H155 C128 0.929 . S
H156 C133 0.930 . S
H157 C134 0.930 . S
H158 C136 0.929 . S
H159 C137 0.929 . S
H160 C168 0.950 . S
H161 C173 0.950 . S
H162 C170 0.950 . S
H163 C172 0.950 . S
H164 C174 0.950 . S
H165 C176 0.950 . S
H166 C178 0.950 . S
H167 C179 0.950 . S
C168 H160 0.950 . S
C168 C169 1.386 1_554 S
C168 C170 1.391 . S
C169 C168 1.386 1_556 S
C169 C173 1.393 . S
C170 H162 0.950 . S
C170 C168 1.391 . S
C170 C171 1.400 1_554 S
C171 C170 1.400 1_556 S
C171 C172 1.398 . S
C171 C177 1.491 1_556 S
C172 H163 0.950 . S
C172 C171 1.398 . S
C172 C173 1.391 . S
C173 H161 0.950 . S
C173 C169 1.393 . S
C173 C172 1.391 . S
C174 H164 0.950 . S
C174 C175 1.386 1_556 S
C174 C176 1.391 . S
C175 C174 1.386 1_554 S
C175 C179 1.393 . S
C176 H165 0.950 . S
C176 C174 1.391 . S
C176 C177 1.400 1_556 S
C177 C171 1.491 1_554 S
C177 C176 1.400 1_554 S
C177 C178 1.398 . S
C178 H166 0.950 . S
C178 C177 1.398 . S
C178 C179 1.391 . S
C179 H167 0.950 . S
C179 C175 1.393 . S
C179 C178 1.391 . S
H180 C188 0.950 . S
H181 C193 0.950 . S
H182 C190 0.950 . S
H183 C192 0.950 . S
H184 C194 0.950 . S
H185 C196 0.950 . S
H186 C198 0.950 . S
H187 C199 0.950 . S
C188 H180 0.950 . S
C188 C189 1.386 . S
C188 C190 1.391 . S
C189 C188 1.386 . S
C189 C193 1.393 . S
C190 H182 0.950 . S
C190 C188 1.391 . S
C190 C191 1.400 . S
C191 C190 1.400 . S
C191 C192 1.398 . S
C191 C197 1.491 . S
C192 H183 0.950 . S
C192 C191 1.398 . S
C192 C193 1.391 . S
C193 H181 0.950 . S
C193 C189 1.393 . S
C193 C192 1.391 . S
C194 H184 0.950 . S
C194 C195 1.386 . S
C194 C196 1.391 . S
C195 C194 1.386 . S
C195 C199 1.393 . S
C196 H185 0.950 . S
C196 C194 1.391 . S
C196 C197 1.400 . S
C197 C191 1.491 . S
C197 C196 1.400 . S
C197 C198 1.398 . S
C198 H186 0.950 . S
C198 C197 1.398 . S
C198 C199 1.391 . S
C199 H187 0.950 . S
C199 C195 1.393 . S
C199 C198 1.391 . S
H200 C208 0.950 . S
H201 C213 0.950 . S
H202 C210 0.950 1_655 S
H203 C212 0.950 . S
H204 C214 0.950 . S
H205 C216 0.950 1_455 S
H206 C218 0.950 . S
H207 C219 0.950 . S
C208 H200 0.950 . S
C208 C209 1.386 . S
C208 C210 1.391 . S
C209 C208 1.386 . S
C209 C213 1.393 1_556 S
C210 H202 0.950 1_455 S
C210 C208 1.391 . S
C210 C211 1.428 . S
C211 C210 1.428 . S
C211 C212 1.385 1_556 S
C211 C217 1.477 1_446 S
C212 H203 0.950 . S
C212 C211 1.385 1_554 S
C212 C213 1.391 . S
C213 H201 0.950 . S
C213 C209 1.393 1_554 S
C213 C212 1.391 . S
C214 H204 0.950 . S
C214 C215 1.386 . S
C214 C216 1.391 . S
C215 C214 1.386 . S
C215 C219 1.393 1_554 S
C216 H205 0.950 1_655 S
C216 C214 1.391 . S
C216 C217 1.400 . S
C217 C211 1.477 1_664 S
C217 C216 1.400 . S
C217 C218 1.398 1_554 S
C218 H206 0.950 . S
C218 C217 1.398 1_556 S
C218 C219 1.391 . S
C219 H207 0.950 . S
C219 C215 1.393 1_556 S
C219 C218 1.391 . S
H220 C228 0.950 . S
H221 C233 0.950 . S
H222 C230 0.950 . S
H223 C232 0.950 . S
H224 C234 0.950 . S
H225 C236 0.950 . S
H226 C238 0.950 . S
H227 C239 0.950 . S
C228 H220 0.950 . S
C228 C229 1.386 . S
C228 C230 1.391 1_655 S
C229 C228 1.386 . S
C229 C233 1.393 . S
C230 H222 0.950 . S
C230 C228 1.391 1_455 S
C230 C231 1.400 1_455 S
C231 C230 1.400 1_655 S
C231 C232 1.398 . S
C231 C237 1.491 1_645 S
C232 H223 0.950 . S
C232 C231 1.398 . S
C232 C233 1.391 . S
C233 H221 0.950 . S
C233 C229 1.393 . S
C233 C232 1.391 . S
C234 H224 0.950 . S
C234 C235 1.386 . S
C234 C236 1.391 1_455 S
C235 C234 1.386 . S
C235 C239 1.393 . S
C236 H225 0.950 . S
C236 C234 1.391 1_655 S
C236 C237 1.400 1_655 S
C237 C231 1.491 1_465 S
C237 C236 1.400 1_455 S
C237 C238 1.398 . S
C238 H226 0.950 . S
C238 C237 1.398 . S
C238 C239 1.391 . S
C239 H227 0.950 . S
C239 C235 1.393 . S
C239 C238 1.391 . S
H240 C248 0.950 . S
H241 C253 0.950 . S
H242 C250 0.950 . S
H243 C252 0.950 . S
H244 C254 0.950 . S
H245 C256 0.950 . S
H246 C258 0.950 . S
H247 C259 0.950 . S
C248 H240 0.950 . S
C248 C249 1.386 . S
C248 C250 1.391 . S
C249 C248 1.386 . S
C249 C253 1.393 . S
C250 H242 0.950 . S
C250 C248 1.391 . S
C250 C251 1.400 . S
C251 C250 1.400 . S
C251 C252 1.398 . S
C251 C257 1.491 . S
C252 H243 0.950 . S
C252 C251 1.398 . S
C252 C253 1.391 . S
C253 H241 0.950 . S
C253 C249 1.393 . S
C253 C252 1.391 . S
C254 H244 0.950 . S
C254 C255 1.386 . S
C254 C256 1.391 . S
C255 C254 1.386 . S
C255 C259 1.393 . S
C256 H245 0.950 . S
C256 C254 1.391 . S
C256 C257 1.400 . S
C257 C251 1.491 . S
C257 C256 1.400 . S
C257 C258 1.398 . S
C258 H246 0.950 . S
C258 C257 1.398 . S
C258 C259 1.391 . S
C259 H247 0.950 . S
C259 C255 1.393 . S
C259 C258 1.391 . S
H260 C268 0.950 . S
H261 C273 0.950 . S
H262 C270 0.950 . S
H263 C272 0.950 . S
H264 C274 0.950 . S
H265 C276 0.950 . S
H266 C278 0.950 . S
H267 C279 0.950 . S
C268 H260 0.950 . S
C268 C269 1.386 . S
C268 C270 1.391 . S
C269 C268 1.386 . S
C269 C273 1.393 . S
C270 H262 0.950 . S
C270 C268 1.391 . S
C270 C271 1.400 . S
C271 C270 1.400 . S
C271 C272 1.398 . S
C271 C277 1.491 . S
C272 H263 0.950 . S
C272 C271 1.398 . S
C272 C273 1.391 . S
C273 H261 0.950 . S
C273 C269 1.393 . S
C273 C272 1.391 . S
C274 H264 0.950 . S
C274 C275 1.386 . S
C274 C276 1.391 . S
C275 C274 1.386 . S
C275 C279 1.393 . S
C276 H265 0.950 . S
C276 C274 1.391 . S
C276 C277 1.400 . S
C277 C271 1.491 . S
C277 C276 1.400 . S
C277 C278 1.398 . S
C278 H266 0.950 . S
C278 C277 1.398 . S
C278 C279 1.391 . S
C279 H267 0.950 . S
C279 C275 1.393 . S
C279 C278 1.391 . S
H280 C288 0.950 . S
H281 C293 0.950 . S
H282 C290 0.950 . S
H283 C292 0.950 . S
H284 C294 0.950 . S
H285 C296 0.950 . S
H286 C298 0.950 . S
H287 C299 0.950 . S
C288 H280 0.950 . S
C288 C289 1.386 . S
C288 C290 1.391 . S
C289 C288 1.386 . S
C289 C293 1.393 . S
C290 H282 0.950 . S
C290 C288 1.391 . S
C290 C291 1.400 . S
C291 C290 1.400 . S
C291 C292 1.398 . S
C291 C297 1.491 . S
C292 H283 0.950 . S
C292 C291 1.398 . S
C292 C293 1.391 . S
C293 H281 0.950 . S
C293 C289 1.393 . S
C293 C292 1.391 . S
C294 H284 0.950 . S
C294 C295 1.386 . S
C294 C296 1.391 . S
C295 C294 1.386 . S
C295 C299 1.393 . S
C296 H285 0.950 . S
C296 C294 1.391 . S
C296 C297 1.400 . S
C297 C291 1.491 . S
C297 C296 1.400 . S
C297 C298 1.398 . S
C298 H286 0.950 . S
C298 C297 1.398 . S
C298 C299 1.391 . S
C299 H287 0.950 . S
C299 C295 1.393 . S
C299 C298 1.391 . S
H300 C308 0.950 . S
H301 C313 0.950 . S
H302 C310 0.950 . S
H303 C312 0.950 . S
H304 C314 0.950 . S
H305 C316 0.950 . S
H306 C318 0.950 . S
H307 C319 0.950 . S
C308 H300 0.950 . S
C308 C309 1.386 . S
C308 C310 1.391 . S
C309 C308 1.386 . S
C309 C313 1.393 . S
C310 H302 0.950 . S
C310 C308 1.391 . S
C310 C311 1.400 . S
C311 C310 1.400 . S
C311 C312 1.398 . S
C311 C317 1.491 . S
C312 H303 0.950 . S
C312 C311 1.398 . S
C312 C313 1.391 . S
C313 H301 0.950 . S
C313 C309 1.393 . S
C313 C312 1.391 . S
C314 H304 0.950 . S
C314 C315 1.386 . S
C314 C316 1.391 . S
C315 C314 1.386 . S
C315 C319 1.393 . S
C316 H305 0.950 . S
C316 C314 1.391 . S
C316 C317 1.400 . S
C317 C311 1.491 . S
C317 C316 1.400 . S
C317 C318 1.398 . S
C318 H306 0.950 . S
C318 C317 1.398 . S
C318 C319 1.391 . S
C319 H307 0.950 . S
C319 C315 1.393 . S
C319 C318 1.391 . S
H320 C328 0.950 . S
H321 C333 0.950 . S
H322 C330 0.950 . S
H323 C332 0.950 . S
H324 C334 0.950 . S
H325 C336 0.950 . S
H326 C338 0.950 . S
H327 C339 0.950 . S
C328 H320 0.950 . S
C328 C329 1.386 1_455 S
C328 C330 1.391 . S
C329 C328 1.386 1_655 S
C329 C333 1.393 . S
C330 H322 0.950 . S
C330 C328 1.391 . S
C330 C331 1.400 1_455 S
C331 C330 1.400 1_655 S
C331 C332 1.398 . S
C331 C337 1.491 1_655 S
C332 H323 0.950 . S
C332 C331 1.398 . S
C332 C333 1.391 . S
C333 H321 0.950 . S
C333 C329 1.393 . S
C333 C332 1.391 . S
C334 H324 0.950 . S
C334 C335 1.386 1_655 S
C334 C336 1.391 . S
C335 C334 1.386 1_455 S
C335 C339 1.393 . S
C336 H325 0.950 . S
C336 C334 1.391 . S
C336 C337 1.400 1_655 S
C337 C331 1.491 1_455 S
C337 C336 1.400 1_455 S
C337 C338 1.398 . S
C338 H326 0.950 . S
C338 C337 1.398 . S
C338 C339 1.391 . S
C339 H327 0.950 . S
C339 C335 1.393 . S
C339 C338 1.391 . S
H340 C348 0.950 . S
H341 C353 0.950 . S
H342 C350 0.950 . S
H343 C352 0.950 . S
H344 C354 0.950 . S
H345 C356 0.950 . S
H346 C358 0.950 . S
H347 C359 0.950 . S
C348 H340 0.950 . S
C348 C349 1.386 . S
C348 C350 1.391 . S
C349 C348 1.386 . S
C349 C353 1.393 1_655 S
C350 H342 0.950 . S
C350 C348 1.391 . S
C350 C351 1.400 . S
C351 C350 1.400 . S
C351 C352 1.398 1_655 S
C351 C357 1.491 1_655 S
C352 H343 0.950 . S
C352 C351 1.398 1_455 S
C352 C353 1.391 . S
C353 H341 0.950 . S
C353 C349 1.393 1_455 S
C353 C352 1.391 . S
C354 H344 0.950 . S
C354 C355 1.386 . S
C354 C356 1.391 . S
C355 C354 1.386 . S
C355 C359 1.393 1_455 S
C356 H345 0.950 . S
C356 C354 1.391 . S
C356 C357 1.400 . S
C357 C351 1.491 1_455 S
C357 C356 1.400 . S
C357 C358 1.398 1_455 S
C358 H346 0.950 . S
C358 C357 1.398 1_655 S
C358 C359 1.391 . S
C359 H347 0.950 . S
C359 C355 1.393 1_655 S
C359 C358 1.391 . S
H360 C368 0.950 . S
H361 C373 0.950 . S
H362 C370 0.950 . S
H363 C372 0.950 . S
H364 C374 0.950 . S
H365 C376 0.950 . S
H366 C378 0.950 . S
H367 C379 0.950 . S
C368 H360 0.950 . S
C368 C369 1.386 . S
C368 C370 1.391 . S
C369 C368 1.386 . S
C369 C373 1.393 1_655 S
C370 H362 0.950 . S
C370 C368 1.391 . S
C370 C371 1.400 . S
C371 C370 1.400 . S
C371 C372 1.398 1_655 S
C371 C377 1.491 1_655 S
C372 H363 0.950 . S
C372 C371 1.398 1_455 S
C372 C373 1.391 . S
C373 H361 0.950 . S
C373 C369 1.393 1_455 S
C373 C372 1.391 . S
C374 H364 0.950 . S
C374 C375 1.386 . S
C374 C376 1.391 . S
C375 C374 1.386 . S
C375 C379 1.393 1_455 S
C376 H365 0.950 . S
C376 C374 1.391 . S
C376 C377 1.400 . S
C377 C371 1.491 1_455 S
C377 C376 1.400 . S
C377 C378 1.398 1_455 S
C378 H366 0.950 . S
C378 C377 1.398 1_655 S
C378 C379 1.391 . S
C379 H367 0.950 . S
C379 C375 1.393 1_655 S
C379 C378 1.391 . S
H380 C388 0.950 . S
H381 C393 0.950 . S
H382 C390 0.950 . S
H383 C392 0.950 . S
H384 C394 0.950 . S
H385 C396 0.950 . S
H386 C398 0.950 . S
H387 C399 0.950 . S
C388 H380 0.950 . S
C388 C389 1.386 1_655 S
C388 C390 1.391 . S
C389 C388 1.386 1_455 S
C389 C393 1.393 . S
C390 H382 0.950 . S
C390 C388 1.391 . S
C390 C391 1.400 1_655 S
C391 C390 1.400 1_455 S
C391 C392 1.398 . S
C391 C397 1.491 1_455 S
C392 H383 0.950 . S
C392 C391 1.398 . S
C392 C393 1.391 . S
C393 H381 0.950 . S
C393 C389 1.393 . S
C393 C392 1.391 . S
C394 H384 0.950 . S
C394 C395 1.386 1_455 S
C394 C396 1.391 . S
C395 C394 1.386 1_655 S
C395 C399 1.393 . S
C396 H385 0.950 . S
C396 C394 1.391 . S
C396 C397 1.400 1_455 S
C397 C391 1.491 1_655 S
C397 C396 1.400 1_655 S
C397 C398 1.398 . S
C398 H386 0.950 . S
C398 C397 1.398 . S
C398 C399 1.391 . S
C399 H387 0.950 . S
C399 C395 1.393 . S
C399 C398 1.391 . S
C169 C58 1.589 . S
C175 C9 1.589 . S
C189 C98 1.587 . S
C195 C129 1.587 . S
C209 C18 1.578 . S
C215 C49 1.578 . S
C229 C138 1.579 . S
C235 C89 1.579 . S
C249 C130 1.687 . S
C255 C10 1.688 . S
C269 C46 0.993 . S
C275 C86 0.977 . S
C289 C59 1.688 . S
C295 C99 1.689 . S
C309 C135 0.997 . S
C315 C15 0.984 . S
C329 C50 1.682 . S
C335 C90 1.692 . S
C349 C126 0.997 . S
C355 C6 0.980 . S
C369 C139 1.682 . S
C375 C19 1.696 . S
C389 C95 1.001 . S
C395 C55 0.991 . S
