# Generated by pormake.
# Topology bcg, (8)-cn, num edge types: 1
# Building blocks:
#     Node 0, Type 0, BuildingBlock: TAGTUT_clean_sbu_3, # of connection points: 8
#     Node 1, Type 0, BuildingBlock: TAGTUT_clean_sbu_3, # of connection points: 8
#     Node 2, Type 0, BuildingBlock: TAGTUT_clean_sbu_3, # of connection points: 8
#     Node 3, Type 0, BuildingBlock: TAGTUT_clean_sbu_3, # of connection points: 8
#     Edge 4, Type (0, 0), BuildingBlock: EZIPEK_clean_linker_0, # of connection points: 2
#     Edge 5, Type (0, 0), BuildingBlock: EZIPEK_clean_linker_0, # of connection points: 2
#     Edge 6, Type (0, 0), BuildingBlock: EZIPEK_clean_linker_0, # of connection points: 2
#     Edge 7, Type (0, 0), BuildingBlock: EZIPEK_clean_linker_0, # of connection points: 2
#     Edge 8, Type (0, 0), BuildingBlock: EZIPEK_clean_linker_0, # of connection points: 2
#     Edge 9, Type (0, 0), BuildingBlock: EZIPEK_clean_linker_0, # of connection points: 2
#     Edge 10, Type (0, 0), BuildingBlock: EZIPEK_clean_linker_0, # of connection points: 2
#     Edge 11, Type (0, 0), BuildingBlock: EZIPEK_clean_linker_0, # of connection points: 2
#     Edge 12, Type (0, 0), BuildingBlock: EZIPEK_clean_linker_0, # of connection points: 2
#     Edge 13, Type (0, 0), BuildingBlock: EZIPEK_clean_linker_0, # of connection points: 2
#     Edge 14, Type (0, 0), BuildingBlock: EZIPEK_clean_linker_0, # of connection points: 2
#     Edge 15, Type (0, 0), BuildingBlock: EZIPEK_clean_linker_0, # of connection points: 2
#     Edge 16, Type (0, 0), BuildingBlock: EZIPEK_clean_linker_0, # of connection points: 2
#     Edge 17, Type (0, 0), BuildingBlock: EZIPEK_clean_linker_0, # of connection points: 2
#     Edge 18, Type (0, 0), BuildingBlock: EZIPEK_clean_linker_0, # of connection points: 2
#     Edge 19, Type (0, 0), BuildingBlock: EZIPEK_clean_linker_0, # of connection points: 2
# Relax obj value: 0.117
# Max RMSD: 0.252
# Mean RMSD: 0.252
data_MOF--net-bcg--node1-TAGTUT_clean_sbu_3--edge1-EZIPEK_clean_linker_0
_symmetry_space_group_name_H-M    P1
_symmetry_Int_Tables_number       1
_symmetry_cell_setting            triclinic
loop_
_symmetry_equiv_pos_as_xyz
'x, y, z'
_cell_length_a     11.210083
_cell_length_b     20.30251
_cell_length_c     26.908005
_cell_angle_alpha  92.183806
_cell_angle_beta   90.020078
_cell_angle_gamma 89.81687
loop_
_atom_site_label
_atom_site_type_symbol
_atom_site_fract_x
_atom_site_fract_y
_atom_site_fract_z
_atom_type_partial_charge
C0 C 0.52711 0.19349 -0.00912 0.0
C1 C 0.37314 0.26716 0.16743 0.0
C2 C 0.0306 0.22819 0.10768 0.0
Mg3 Mg 0.38619 0.18169 0.88499 0.0
Mg4 Mg 0.18262 0.29624 0.86082 0.0
O5 O 0.23706 0.23167 0.90239 0.0
Mg6 Mg 0.26673 0.252 0.97457 0.0
O7 O 0.30353 0.26552 0.04618 0.0
Mg8 Mg 0.30031 0.17268 0.06588 0.0
Mg9 Mg 0.22038 0.3285 0.08471 0.0
C10 C 0.99277 0.29722 0.94861 0.0
O11 O 0.3292 0.36052 0.97003 0.0
O12 O 0.29784 0.15192 0.80946 0.0
O13 O 0.2633 0.41252 0.04062 0.0
O14 O 0.46604 0.27269 0.84893 0.0
O15 O 0.16187 0.23171 0.79658 0.0
O16 O 0.33733 0.35681 0.84807 0.0
O17 O 0.21586 0.14581 -0.01204 0.0
O18 O 0.29375 0.0939 0.9215 0.0
C19 C 0.22752 0.09356 0.96019 0.0
C20 C 0.21533 0.17802 0.7835 0.0
O21 O 0.07117 0.28028 0.98036 0.0
O22 O 0.37292 0.2124 0.14173 0.0
O23 O 0.01876 0.3131 0.90403 0.0
O24 O 0.11199 0.1846 0.09971 0.0
O25 O 0.31759 0.31778 0.15247 0.0
O26 O 0.04846 0.28833 0.09765 0.0
O27 O 0.45277 0.21941 0.96195 0.0
O28 O 0.49322 0.17042 0.03229 0.0
C29 C 0.44087 0.33247 0.83929 0.0
C30 C 0.3236 0.41149 2e-05 0.0
C31 C 0.99174 0.7031 -0.00223 0.0
C32 C 0.82873 0.77688 0.17309 0.0
C33 C 0.49866 0.76046 0.10619 0.0
Mg34 Mg 0.85292 0.6876 0.89063 0.0
Mg35 Mg 0.64278 0.79652 0.86048 0.0
O36 O 0.70428 0.73885 0.90574 0.0
Mg37 Mg 0.73593 0.76404 0.97699 0.0
O38 O 0.77593 0.78026 0.04869 0.0
Mg39 Mg 0.75787 0.6882 0.06984 0.0
Mg40 Mg 0.70551 0.84852 0.08613 0.0
C41 C 0.45694 0.80488 0.94861 0.0
O42 O 0.80951 0.87018 0.96777 0.0
O43 O 0.77021 0.65223 0.81513 0.0
O44 O 0.77798 0.92583 0.04101 0.0
O45 O 0.93167 0.77836 0.85352 0.0
O46 O 0.62443 0.72514 0.79923 0.0
O47 O 0.79348 0.8574 0.84661 0.0
O48 O 0.67983 0.6614 -0.00701 0.0
O49 O 0.75387 0.60285 0.92854 0.0
C50 C 0.6901 0.60708 0.96807 0.0
C51 C 0.6846 0.67285 0.78813 0.0
O52 O 0.53737 0.79211 0.98093 0.0
O53 O 0.82447 0.7242 0.14551 0.0
O54 O 0.48217 0.82093 0.90406 0.0
O55 O 0.57073 0.71135 0.10205 0.0
O56 O 0.78592 0.83096 0.1578 0.0
O57 O 0.52541 0.81659 0.08971 0.0
O58 O 0.92049 0.72851 0.96707 0.0
O59 O 0.95304 0.6792 0.03826 0.0
C60 C 0.90076 0.83671 0.8418 0.0
C61 C 0.82666 0.92038 -0.00223 0.0
C62 C 0.48335 0.78225 0.47866 0.0
C63 C 0.32376 0.71829 0.2998 0.0
C64 C 0.99076 0.73409 0.36568 0.0
Mg65 Mg 0.34187 0.79507 0.58539 0.0
Mg66 Mg 0.13832 0.68309 0.61391 0.0
O67 O 0.19639 0.7423 0.56915 0.0
Mg68 Mg 0.22702 0.72133 0.497 0.0
O69 O 0.26619 0.70937 0.42469 0.0
Mg70 Mg 0.25017 0.80267 0.40558 0.0
Mg71 Mg 0.20251 0.64268 0.38413 0.0
C72 C 0.95033 0.67699 0.52576 0.0
O73 O 0.30044 0.61559 0.50307 0.0
O74 O 0.25867 0.82775 0.66026 0.0
O75 O 0.26532 0.56265 0.42901 0.0
O76 O 0.42615 0.70537 0.62172 0.0
O77 O 0.11457 0.75389 0.67483 0.0
O78 O 0.29344 0.62428 0.62939 0.0
O79 O 0.17312 0.82517 0.48307 0.0
O80 O 0.23706 0.87987 0.55052 0.0
C81 C 0.17552 0.87765 0.51046 0.0
C82 C 0.17276 0.80645 0.6864 0.0
O83 O 0.02928 0.69105 0.49312 0.0
O84 O 0.31319 0.77089 0.32741 0.0
O85 O 0.97696 0.66107 0.57029 0.0
O86 O 0.0611 0.78309 0.37404 0.0
O87 O 0.29671 0.66159 0.31563 0.0
O88 O 0.0224 0.67524 0.37507 0.0
O89 O 0.41003 0.75669 0.50822 0.0
O90 O 0.44676 0.80745 0.43813 0.0
C91 C 0.39928 0.64695 0.6343 0.0
C92 C 0.31468 0.56617 0.47218 0.0
C93 C 0.03113 0.30234 0.47178 0.0
C94 C 0.84167 0.21842 0.2975 0.0
C95 C 0.53027 0.25431 0.36644 0.0
Mg96 Mg 0.89636 0.31853 0.58004 0.0
Mg97 Mg 0.69057 0.20902 0.60932 0.0
O98 O 0.74368 0.27164 0.56601 0.0
Mg99 Mg 0.77237 0.24529 0.49486 0.0
O100 O 0.81066 0.22538 0.42297 0.0
Mg101 Mg 0.79945 0.31693 0.39873 0.0
Mg102 Mg 0.72093 0.16052 0.3904 0.0
C103 C 0.49664 0.20824 0.52533 0.0
O104 O 0.8257 0.13749 0.50768 0.0
O105 O 0.8164 0.35151 0.65777 0.0
O106 O 0.78128 0.08143 0.43595 0.0
O107 O 0.97765 0.22572 0.6149 0.0
O108 O 0.67972 0.27397 0.67406 0.0
O109 O 0.84145 0.14562 0.61728 0.0
O110 O 0.72504 0.34771 0.47658 0.0
O111 O 0.7955 0.40474 0.54251 0.0
C112 C 0.73183 0.40123 0.50273 0.0
C113 C 0.73648 0.32691 0.68585 0.0
O114 O 0.57483 0.2223 0.49268 0.0
O115 O 0.8612 0.27349 0.32154 0.0
O116 O 0.52434 0.18971 0.56898 0.0
O117 O 0.61022 0.29928 0.36716 0.0
O118 O 0.78928 0.1697 0.31681 0.0
O119 O 0.54733 0.20076 0.38838 0.0
O120 O 0.95968 0.27744 0.5027 0.0
O121 O 0.99319 0.32424 0.43047 0.0
C122 C 0.94827 0.16609 0.62337 0.0
C123 C 0.82677 0.08468 0.47974 0.0
C124 C 0.72388 0.18334 0.9476 0.0
C125 C 0.65197 0.21496 -0.0155 0.0
C126 C 0.79422 0.30722 -0.00884 0.0
C127 C 0.8709 0.27264 0.95779 0.0
N128 N 0.91817 0.17337 0.90902 0.0
N129 N 0.62063 0.30459 0.04478 0.0
C130 C 0.83818 0.20954 0.93716 0.0
C131 C 0.68809 0.27615 0.00744 0.0
N132 N 0.68156 0.12908 0.92167 0.0
N133 N 0.82134 0.37056 0.00588 0.0
H134 H 0.54117 0.28463 0.05728 0.0
H135 H 0.64759 0.34547 0.06624 0.0
H136 H 0.89845 0.39422 -0.00572 0.0
H137 H 0.76399 0.40127 0.0264 0.0
H138 H 0.72161 0.10941 0.88948 0.0
H139 H 0.60144 0.10623 0.93048 0.0
H140 H 0.90367 0.12477 0.89715 0.0
H141 H 0.00308 0.18996 0.90013 0.0
C142 C 0.17535 0.69826 0.94618 0.0
C143 C 0.11981 0.71993 -0.009 0.0
C144 C 0.27782 0.80302 0.005 0.0
C145 C 0.33353 0.78157 0.9599 0.0
N146 N 0.32541 0.71338 0.88363 0.0
N147 N 0.1283 0.78496 0.06812 0.0
C148 C 0.27964 0.73051 0.92941 0.0
C149 C 0.17425 0.7698 0.02203 0.0
N150 N 0.13171 0.64349 0.92118 0.0
N151 N 0.31933 0.85852 0.02959 0.0
H152 H 0.05048 0.7645 0.08165 0.0
H153 H 0.17244 0.81397 0.09497 0.0
H154 H 0.39107 0.88563 0.01661 0.0
H155 H 0.27764 0.88123 0.06023 0.0
H156 H 0.17472 0.61948 0.89135 0.0
H157 H 0.05745 0.61783 0.93348 0.0
H158 H 0.27678 0.68796 0.85611 0.0
H159 H 0.41055 0.72507 0.87174 0.0
C160 C 0.66221 0.77918 0.5343 0.0
C161 C 0.61101 0.7642 0.48693 0.0
C162 C 0.76912 0.68119 0.47103 0.0
C163 C 0.82644 0.70083 0.51591 0.0
N164 N 0.84012 0.78175 0.58467 0.0
N165 N 0.62887 0.70728 0.40636 0.0
C166 C 0.77563 0.75267 0.54662 0.0
C167 C 0.66877 0.71747 0.454 0.0
N168 N 0.60361 0.82052 0.56738 0.0
N169 N 0.80759 0.62563 0.44569 0.0
H170 H 0.55383 0.72991 0.39201 0.0
H171 H 0.67661 0.68014 0.3794 0.0
H172 H 0.87921 0.59731 0.45764 0.0
H173 H 0.76062 0.6038 0.41621 0.0
H174 H 0.62613 0.82509 0.60494 0.0
H175 H 0.52965 0.84846 0.55749 0.0
H176 H 0.8125 0.82434 0.60424 0.0
H177 H 0.92738 0.76899 0.59336 0.0
C178 C 0.20837 0.30931 0.52697 0.0
C179 C 0.15995 0.28925 0.48028 0.0
C180 C 0.32311 0.20918 0.46771 0.0
C181 C 0.37222 0.22907 0.51421 0.0
N182 N 0.35248 0.29274 0.59212 0.0
N183 N 0.18483 0.22974 0.40111 0.0
C184 C 0.31263 0.27778 0.54502 0.0
C185 C 0.22205 0.24272 0.44887 0.0
N186 N 0.15732 0.36161 0.55266 0.0
N187 N 0.36621 0.15334 0.44389 0.0
H188 H 0.11029 0.25116 0.38537 0.0
H189 H 0.23434 0.20182 0.37519 0.0
H190 H 0.43561 0.12538 0.45823 0.0
H191 H 0.32465 0.13029 0.41337 0.0
H192 H 0.19283 0.38389 0.58479 0.0
H193 H 0.084 0.38711 0.53901 0.0
H194 H 0.30177 0.31818 0.61899 0.0
H195 H 0.43433 0.27819 0.60608 0.0
C196 C 0.50027 0.54982 0.94252 0.0
C197 C 0.59751 0.55638 0.97629 0.0
C198 C 0.5029 0.47697 0.0302 0.0
C199 C 0.41239 0.46496 -0.00665 0.0
N200 N 0.32851 0.48701 0.9133 0.0
N201 N 0.6947 0.52651 0.0517 0.0
C202 C 0.41279 0.50027 0.94903 0.0
C203 C 0.59887 0.52059 0.02031 0.0
N204 N 0.48652 0.59424 0.90615 0.0
N205 N 0.49856 0.4462 0.07453 0.0
H206 H 0.76652 0.55757 0.04517 0.0
H207 H 0.70838 0.49765 0.08232 0.0
H208 H 0.44342 0.40649 0.08143 0.0
H209 H 0.54874 0.46072 0.10555 0.0
H210 H 0.41152 0.59584 0.88354 0.0
H211 H 0.54565 0.6328 0.90068 0.0
H212 H 0.33347 0.50395 0.87733 0.0
H213 H 0.25609 0.45597 0.91873 0.0
C214 C 0.6173 0.48105 0.45193 0.0
C215 C 0.63054 0.44812 0.49705 0.0
C216 C 0.43254 0.48903 0.52495 0.0
C217 C 0.42017 0.52276 0.48017 0.0
N218 N 0.51306 0.56371 0.40602 0.0
N219 N 0.53862 0.40753 0.57107 0.0
C220 C 0.51536 0.52173 0.44468 0.0
C221 C 0.53569 0.44935 0.5325 0.0
N222 N 0.70195 0.47255 0.41559 0.0
N223 N 0.34537 0.49503 0.56042 0.0
H224 H 0.60795 0.37476 0.57733 0.0
H225 H 0.46815 0.40157 0.59543 0.0
H226 H 0.26303 0.51723 0.55407 0.0
H227 H 0.35623 0.48132 0.59702 0.0
H228 H 0.69021 0.48624 0.37903 0.0
H229 H 0.78268 0.44823 0.4212 0.0
H230 H 0.58027 0.56703 0.37966 0.0
H231 H 0.44955 0.60069 0.40226 0.0
C232 C 0.06046 0.01789 0.92809 0.0
C233 C 0.14033 0.03831 0.96711 0.0
C234 C 0.0242 0.97159 0.02423 0.0
C235 C 0.93169 0.96364 -0.01215 0.0
N236 N 0.85746 0.98719 0.90655 0.0
N237 N 0.20009 0.03133 0.05262 0.0
C238 C 0.94894 0.98893 0.94014 0.0
C239 C 0.12168 0.01463 0.01541 0.0
N240 N 0.09096 0.02356 0.87935 0.0
N241 N 0.02455 0.93434 0.06556 0.0
H242 H 0.2817 0.0538 0.04583 0.0
H243 H 0.18273 0.02444 0.09009 0.0
H244 H 0.96417 0.89656 0.07136 0.0
H245 H 0.09313 0.93513 0.09165 0.0
H246 H 0.0401 0.00325 0.85027 0.0
H247 H 0.17276 0.04038 0.8672 0.0
H248 H 0.86138 0.00977 0.87247 0.0
H249 H 0.77315 0.96895 0.9148 0.0
C250 C 0.03698 0.04718 0.49173 0.0
C251 C 0.91337 0.03235 0.49167 0.0
C252 C 0.96185 0.91543 0.49626 0.0
C253 C 0.08575 0.93084 0.50211 0.0
N254 N 0.23963 0.01352 0.50945 0.0
N255 N 0.75627 0.95376 0.49905 0.0
C256 C 0.12248 -0.00253 0.50174 0.0
C257 C 0.87541 0.96679 0.49509 0.0
N258 N 0.07418 0.1074 0.47745 0.0
N259 N 0.92527 0.85175 0.49121 0.0
H260 H 0.69108 0.99057 0.49885 0.0
H261 H 0.72257 0.90759 0.50669 0.0
H262 H 0.9775 0.81188 0.50032 0.0
H263 H 0.84291 0.83882 0.47599 0.0
H264 H 0.16247 0.11629 0.46953 0.0
H265 H 0.01755 0.14557 0.46772 0.0
H266 H 0.26861 0.06168 0.51645 0.0
H267 H 0.30782 0.97866 0.5111 0.0
C268 C 0.45925 0.19825 0.28888 0.0
C269 C 0.44956 0.25327 0.32263 0.0
C270 C 0.40647 0.32385 0.25278 0.0
C271 C 0.42319 0.2684 0.21918 0.0
N272 N 0.53089 0.16574 0.20765 0.0
N273 N 0.38292 0.36387 0.33891 0.0
C274 C 0.46836 0.20909 0.23776 0.0
C275 C 0.41199 0.31466 0.30503 0.0
N276 N 0.45863 0.13542 0.30508 0.0
N277 N 0.40114 0.38595 0.23505 0.0
H278 H 0.38619 0.35651 0.37713 0.0
H279 H 0.34547 0.40873 0.32959 0.0
H280 H 0.42185 0.39576 0.19831 0.0
H281 H 0.39484 0.4286 0.25759 0.0
H282 H 0.45966 0.09427 0.28064 0.0
H283 H 0.43886 0.12454 0.34162 0.0
H284 H 0.57308 0.12411 0.22105 0.0
H285 H 0.55702 0.17719 0.17178 0.0
C286 C 0.42973 0.80475 0.18753 0.0
C287 C 0.41204 0.75843 0.14773 0.0
C288 C 0.31344 0.68657 0.20629 0.0
C289 C 0.36056 0.72622 0.24696 0.0
N290 N 0.50163 0.81198 0.27138 0.0
N291 N 0.33374 0.65408 0.1186 0.0
C292 C 0.43023 0.78208 0.23617 0.0
C293 C 0.35247 0.69878 0.15698 0.0
N294 N 0.44705 0.86994 0.17947 0.0
N295 N 0.22867 0.63979 0.2136 0.0
H296 H 0.35274 0.66493 0.0818 0.0
H297 H 0.30473 0.60608 0.12361 0.0
H298 H 0.18794 0.63234 0.24756 0.0
H299 H 0.18839 0.61291 0.18449 0.0
H300 H 0.45702 0.90481 0.20868 0.0
H301 H 0.4324 0.89003 0.1449 0.0
H302 H 0.55853 0.85069 0.26319 0.0
H303 H 0.51601 0.79241 0.30619 0.0
C304 C 0.61043 0.62734 0.65562 0.0
C305 C 0.48935 0.61237 0.66454 0.0
C306 C 0.53977 0.59423 0.75116 0.0
C307 C 0.64329 0.63209 0.74498 0.0
N308 N 0.79265 0.67399 0.69081 0.0
N309 N 0.34601 0.56278 0.71887 0.0
C310 C 0.68545 0.64375 0.69676 0.0
C311 C 0.45662 0.58839 0.71152 0.0
N312 N 0.65027 0.62841 0.60787 0.0
N313 N 0.5231 0.56383 0.79482 0.0
H314 H 0.29122 0.54692 0.68957 0.0
H315 H 0.31081 0.55515 0.754 0.0
H316 H 0.58966 0.5644 0.82196 0.0
H317 H 0.45153 0.53303 0.80171 0.0
H318 H 0.7401 0.63294 0.59897 0.0
H319 H 0.59358 0.61744 0.57784 0.0
H320 H 0.82347 0.68929 0.65666 0.0
H321 H 0.84911 0.68488 0.72087 0.0
C322 C 0.65274 0.35349 0.81922 0.0
C323 C 0.53122 0.36839 0.81001 0.0
C324 C 0.58732 0.39935 0.7262 0.0
C325 C 0.69419 0.36363 0.73096 0.0
N326 N 0.8393 0.31348 0.78312 0.0
N327 N 0.38533 0.41603 0.75506 0.0
C328 C 0.73198 0.34444 0.77829 0.0
C329 C 0.49959 0.39652 0.76411 0.0
N330 N 0.68959 0.3453 0.86685 0.0
N331 N 0.56976 0.43413 0.68454 0.0
H332 H 0.3224 0.42463 0.78293 0.0
H333 H 0.35344 0.4244 0.71949 0.0
H334 H 0.63789 0.43917 0.65853 0.0
H335 H 0.49386 0.46205 0.67808 0.0
H336 H 0.77882 0.3392 0.87634 0.0
H337 H 0.63111 0.35162 0.89692 0.0
H338 H 0.86635 0.29134 0.81558 0.0
H339 H 0.89906 0.30832 0.75344 0.0
C340 C 0.86424 0.80761 0.31498 0.0
C341 C 0.8946 0.74278 0.32802 0.0
C342 C 0.89789 0.70638 0.24187 0.0
C343 C 0.86781 0.77059 0.22631 0.0
N344 N 0.83364 0.88592 0.25032 0.0
N345 N 0.86585 0.62816 0.30524 0.0
C346 C 0.85174 0.82241 0.26359 0.0
C347 C 0.88307 0.69146 0.29188 0.0
N348 N 0.85406 0.85484 0.35222 0.0
N349 N 0.95135 0.66103 0.21033 0.0
H350 H 0.85197 0.61647 0.34212 0.0
H351 H 0.85152 0.58965 0.27914 0.0
H352 H 0.98928 0.67388 0.17666 0.0
H353 H 0.9757 0.61413 0.22129 0.0
H354 H 0.84074 0.90481 0.3471 0.0
H355 H 0.85752 0.84224 0.38942 0.0
H356 H 0.80343 0.92346 0.27453 0.0
H357 H 0.85854 0.90285 0.21584 0.0
C358 C 0.81662 0.26198 0.21224 0.0
C359 C 0.86539 0.21367 0.24342 0.0
C360 C 0.94235 0.15448 0.16957 0.0
C361 C 0.93207 0.21285 0.14294 0.0
N362 N 0.82609 0.31472 0.13303 0.0
N363 N 0.97438 0.11114 0.2507 0.0
C364 C 0.85682 0.26401 0.16224 0.0
C365 C 0.92604 0.15816 0.22174 0.0
N366 N 0.7292 0.30385 0.22979 0.0
N367 N 0.96802 0.09624 0.14491 0.0
H368 H 0.97038 0.11351 0.28943 0.0
H369 H 0.02818 0.07305 0.23627 0.0
H370 H 0.97265 0.09289 0.10611 0.0
H371 H 0.96954 0.05118 0.16224 0.0
H372 H 0.68298 0.3362 0.20761 0.0
H373 H 0.6938 0.30161 0.26551 0.0
H374 H 0.78583 0.3582 0.1463 0.0
H375 H 0.84261 0.31255 0.09494 0.0
C376 C 0.05152 0.11548 0.74187 0.0
C377 C 0.168 0.14225 0.73925 0.0
C378 C 0.15589 0.14012 0.64869 0.0
C379 C 0.03282 0.12694 0.65291 0.0
N380 N 0.88659 0.06509 0.69634 0.0
N381 N 0.34243 0.16673 0.69136 0.0
C382 C 0.98902 0.10106 0.69716 0.0
C383 C 0.22555 0.14809 0.69274 0.0
N384 N 0.99794 0.10881 0.78697 0.0
N385 N 0.2027 0.147 0.6025 0.0
H386 H 0.39408 0.17219 0.72352 0.0
H387 H 0.38859 0.17638 0.65896 0.0
H388 H 0.14906 0.1427 0.57083 0.0
H389 H 0.29319 0.15203 0.5954 0.0
H390 H 0.90851 0.09665 0.79135 0.0
H391 H 0.04215 0.11944 0.82035 0.0
H392 H 0.84907 0.04548 0.7278 0.0
H393 H 0.84711 0.04884 0.66297 0.0
C394 C 0.01792 0.88106 0.72205 0.0
C395 C 0.12762 0.84774 0.72828 0.0
C396 C 0.10852 0.86 0.81819 0.0
C397 C 0.98613 0.87334 0.81116 0.0
N398 N 0.83711 0.92452 0.7611 0.0
N399 N 0.29353 0.82023 0.78023 0.0
C400 C 0.94606 0.89499 0.76459 0.0
C401 C 0.17995 0.84375 0.77589 0.0
N402 N 0.98315 0.89759 0.67544 0.0
N403 N 0.15203 0.85932 0.86547 0.0
H404 H 0.3467 0.80885 0.74922 0.0
H405 H 0.33501 0.81208 0.814 0.0
H406 H 0.09685 0.86971 0.8961 0.0
H407 H 0.24192 0.85393 0.87397 0.0
H408 H 0.90479 0.9226 0.66751 0.0
H409 H 0.03727 0.88863 0.64431 0.0
H410 H 0.79306 0.93226 0.72782 0.0
H411 H 0.79293 0.94419 0.7924 0.0
loop_
_geom_bond_atom_site_label_1
_geom_bond_atom_site_label_2
_geom_bond_distance
_geom_bond_site_symmetry_2
_ccdc_geom_bond_type
C0 O27 1.312 1_554 S
C0 O28 1.208 . S
C1 O22 1.331 . S
C1 O25 1.244 . S
C2 O24 1.264 . S
C2 O26 1.273 . S
Mg3 O5 1.936 . S
Mg3 O12 2.081 . S
Mg3 O14 2.023 . S
Mg3 O18 2.031 . S
Mg3 O27 2.291 . S
Mg4 O5 1.963 . S
Mg4 O15 1.942 . S
Mg4 O16 1.955 . S
Mg4 O23 1.986 . S
O5 Mg3 1.936 . S
O5 Mg4 1.963 . S
O5 Mg6 1.915 1_556 S
Mg6 O5 1.915 1_554 S
Mg6 O7 1.915 . S
Mg6 O11 2.013 1_554 S
Mg6 O17 2.114 . S
Mg6 O21 2.013 . S
Mg6 O27 2.114 1_554 S
O7 Mg6 1.915 . S
O7 Mg8 1.936 . S
O7 Mg9 1.963 . S
Mg8 O7 1.936 . S
Mg8 O17 2.291 . S
Mg8 O22 2.081 . S
Mg8 O24 2.023 . S
Mg8 O28 2.031 . S
Mg9 O7 1.963 . S
Mg9 O13 1.986 . S
Mg9 O25 1.942 . S
Mg9 O26 1.955 . S
C10 O21 1.191 1_556 S
C10 O23 1.307 . S
O11 Mg6 2.013 1_556 S
O11 C30 1.191 1_556 S
O12 Mg3 2.081 . S
O12 C20 1.331 . S
O13 Mg9 1.986 . S
O13 C30 1.307 . S
O14 Mg3 2.023 . S
O14 C29 1.264 . S
O15 Mg4 1.942 . S
O15 C20 1.244 . S
O16 Mg4 1.955 . S
O16 C29 1.273 . S
O17 Mg6 2.114 . S
O17 Mg8 2.291 . S
O17 C19 1.312 1_554 S
O18 Mg3 2.031 . S
O18 C19 1.208 . S
C19 O17 1.312 1_556 S
C19 O18 1.208 . S
C20 O12 1.331 . S
C20 O15 1.244 . S
O21 Mg6 2.013 . S
O21 C10 1.191 1_554 S
O22 C1 1.331 . S
O22 Mg8 2.081 . S
O23 Mg4 1.986 . S
O23 C10 1.307 . S
O24 C2 1.264 . S
O24 Mg8 2.023 . S
O25 C1 1.244 . S
O25 Mg9 1.942 . S
O26 C2 1.273 . S
O26 Mg9 1.955 . S
O27 C0 1.312 1_556 S
O27 Mg3 2.291 . S
O27 Mg6 2.114 1_556 S
O28 C0 1.208 . S
O28 Mg8 2.031 . S
C29 O14 1.264 . S
C29 O16 1.273 . S
C30 O11 1.191 1_554 S
C30 O13 1.307 . S
C31 O58 1.312 1_554 S
C31 O59 1.208 . S
C32 O53 1.331 . S
C32 O56 1.244 . S
C33 O55 1.264 . S
C33 O57 1.273 . S
Mg34 O36 1.936 . S
Mg34 O43 2.081 . S
Mg34 O45 2.023 . S
Mg34 O49 2.031 . S
Mg34 O58 2.291 . S
Mg35 O36 1.963 . S
Mg35 O46 1.942 . S
Mg35 O47 1.955 . S
Mg35 O54 1.986 . S
O36 Mg34 1.936 . S
O36 Mg35 1.963 . S
O36 Mg37 1.915 1_556 S
Mg37 O36 1.915 1_554 S
Mg37 O38 1.915 . S
Mg37 O42 2.013 1_554 S
Mg37 O48 2.114 . S
Mg37 O52 2.013 . S
Mg37 O58 2.114 1_554 S
O38 Mg37 1.915 . S
O38 Mg39 1.936 . S
O38 Mg40 1.963 . S
Mg39 O38 1.936 . S
Mg39 O48 2.291 . S
Mg39 O53 2.081 . S
Mg39 O55 2.023 . S
Mg39 O59 2.031 . S
Mg40 O38 1.963 . S
Mg40 O44 1.986 . S
Mg40 O56 1.942 . S
Mg40 O57 1.955 . S
C41 O52 1.191 1_556 S
C41 O54 1.307 . S
O42 Mg37 2.013 1_556 S
O42 C61 1.191 1_556 S
O43 Mg34 2.081 . S
O43 C51 1.331 . S
O44 Mg40 1.986 . S
O44 C61 1.307 . S
O45 Mg34 2.023 . S
O45 C60 1.264 . S
O46 Mg35 1.942 . S
O46 C51 1.244 . S
O47 Mg35 1.955 . S
O47 C60 1.273 . S
O48 Mg37 2.114 . S
O48 Mg39 2.291 . S
O48 C50 1.312 1_554 S
O49 Mg34 2.031 . S
O49 C50 1.208 . S
C50 O48 1.312 1_556 S
C50 O49 1.208 . S
C51 O43 1.331 . S
C51 O46 1.244 . S
O52 Mg37 2.013 . S
O52 C41 1.191 1_554 S
O53 C32 1.331 . S
O53 Mg39 2.081 . S
O54 Mg35 1.986 . S
O54 C41 1.307 . S
O55 C33 1.264 . S
O55 Mg39 2.023 . S
O56 C32 1.244 . S
O56 Mg40 1.942 . S
O57 C33 1.273 . S
O57 Mg40 1.955 . S
O58 C31 1.312 1_556 S
O58 Mg34 2.291 . S
O58 Mg37 2.114 1_556 S
O59 C31 1.208 . S
O59 Mg39 2.031 . S
C60 O45 1.264 . S
C60 O47 1.273 . S
C61 O42 1.191 1_554 S
C61 O44 1.307 . S
C62 O89 1.312 . S
C62 O90 1.208 . S
C63 O84 1.331 . S
C63 O87 1.244 . S
C64 O86 1.264 . S
C64 O88 1.273 . S
Mg65 O67 1.936 . S
Mg65 O74 2.081 . S
Mg65 O76 2.023 . S
Mg65 O80 2.031 . S
Mg65 O89 2.291 . S
Mg66 O67 1.963 . S
Mg66 O77 1.942 . S
Mg66 O78 1.955 . S
Mg66 O85 1.986 . S
O67 Mg65 1.936 . S
O67 Mg66 1.963 . S
O67 Mg68 1.915 . S
Mg68 O67 1.915 . S
Mg68 O69 1.915 . S
Mg68 O73 2.013 . S
Mg68 O79 2.114 . S
Mg68 O83 2.013 . S
Mg68 O89 2.114 . S
O69 Mg68 1.915 . S
O69 Mg70 1.936 . S
O69 Mg71 1.963 . S
Mg70 O69 1.936 . S
Mg70 O79 2.291 . S
Mg70 O84 2.081 . S
Mg70 O86 2.023 . S
Mg70 O90 2.031 . S
Mg71 O69 1.963 . S
Mg71 O75 1.986 . S
Mg71 O87 1.942 . S
Mg71 O88 1.955 . S
C72 O83 1.191 . S
C72 O85 1.307 . S
O73 Mg68 2.013 . S
O73 C92 1.191 . S
O74 Mg65 2.081 . S
O74 C82 1.331 . S
O75 Mg71 1.986 . S
O75 C92 1.307 . S
O76 Mg65 2.023 . S
O76 C91 1.264 . S
O77 Mg66 1.942 . S
O77 C82 1.244 . S
O78 Mg66 1.955 . S
O78 C91 1.273 . S
O79 Mg68 2.114 . S
O79 Mg70 2.291 . S
O79 C81 1.312 . S
O80 Mg65 2.031 . S
O80 C81 1.208 . S
C81 O79 1.312 . S
C81 O80 1.208 . S
C82 O74 1.331 . S
C82 O77 1.244 . S
O83 Mg68 2.013 . S
O83 C72 1.191 . S
O84 C63 1.331 . S
O84 Mg70 2.081 . S
O85 Mg66 1.986 . S
O85 C72 1.307 . S
O86 C64 1.264 . S
O86 Mg70 2.023 . S
O87 C63 1.244 . S
O87 Mg71 1.942 . S
O88 C64 1.273 . S
O88 Mg71 1.955 . S
O89 C62 1.312 . S
O89 Mg65 2.291 . S
O89 Mg68 2.114 . S
O90 C62 1.208 . S
O90 Mg70 2.031 . S
C91 O76 1.264 . S
C91 O78 1.273 . S
C92 O73 1.191 . S
C92 O75 1.307 . S
C93 O120 1.312 . S
C93 O121 1.208 . S
C94 O115 1.331 . S
C94 O118 1.244 . S
C95 O117 1.264 . S
C95 O119 1.273 . S
Mg96 O98 1.936 . S
Mg96 O105 2.081 . S
Mg96 O107 2.023 . S
Mg96 O111 2.031 . S
Mg96 O120 2.291 . S
Mg97 O98 1.963 . S
Mg97 O108 1.942 . S
Mg97 O109 1.955 . S
Mg97 O116 1.986 . S
O98 Mg96 1.936 . S
O98 Mg97 1.963 . S
O98 Mg99 1.915 . S
Mg99 O98 1.915 . S
Mg99 O100 1.915 . S
Mg99 O104 2.013 . S
Mg99 O110 2.114 . S
Mg99 O114 2.013 . S
Mg99 O120 2.114 . S
O100 Mg99 1.915 . S
O100 Mg101 1.936 . S
O100 Mg102 1.963 . S
Mg101 O100 1.936 . S
Mg101 O110 2.291 . S
Mg101 O115 2.081 . S
Mg101 O117 2.023 . S
Mg101 O121 2.031 . S
Mg102 O100 1.963 . S
Mg102 O106 1.986 . S
Mg102 O118 1.942 . S
Mg102 O119 1.955 . S
C103 O114 1.191 . S
C103 O116 1.307 . S
O104 Mg99 2.013 . S
O104 C123 1.191 . S
O105 Mg96 2.081 . S
O105 C113 1.331 . S
O106 Mg102 1.986 . S
O106 C123 1.307 . S
O107 Mg96 2.023 . S
O107 C122 1.264 . S
O108 Mg97 1.942 . S
O108 C113 1.244 . S
O109 Mg97 1.955 . S
O109 C122 1.273 . S
O110 Mg99 2.114 . S
O110 Mg101 2.291 . S
O110 C112 1.312 . S
O111 Mg96 2.031 . S
O111 C112 1.208 . S
C112 O110 1.312 . S
C112 O111 1.208 . S
C113 O105 1.331 . S
C113 O108 1.244 . S
O114 Mg99 2.013 . S
O114 C103 1.191 . S
O115 C94 1.331 . S
O115 Mg101 2.081 . S
O116 Mg97 1.986 . S
O116 C103 1.307 . S
O117 C95 1.264 . S
O117 Mg101 2.023 . S
O118 C94 1.244 . S
O118 Mg102 1.942 . S
O119 C95 1.273 . S
O119 Mg102 1.955 . S
O120 C93 1.312 . S
O120 Mg96 2.291 . S
O120 Mg99 2.114 . S
O121 C93 1.208 . S
O121 Mg101 2.031 . S
C122 O107 1.264 . S
C122 O109 1.273 . S
C123 O104 1.191 . S
C123 O106 1.307 . S
C124 C125 1.362 1_556 S
C124 C130 1.379 . S
C124 N132 1.356 . S
C125 C124 1.362 1_554 S
C125 C131 1.364 . S
C126 C127 1.365 1_554 S
C126 C131 1.379 . S
C126 N133 1.356 . S
C127 C126 1.365 1_556 S
C127 C130 1.361 . S
N128 C130 1.356 . S
N128 H140 0.984 . S
N128 H141 0.985 . S
N129 C131 1.356 . S
N129 H134 0.984 . S
N129 H135 0.985 . S
C130 C124 1.379 . S
C130 C127 1.361 . S
C130 N128 1.356 . S
C131 C125 1.364 . S
C131 C126 1.379 . S
C131 N129 1.356 . S
N132 C124 1.356 . S
N132 H138 0.984 . S
N132 H139 0.984 . S
N133 C126 1.356 . S
N133 H136 0.984 . S
N133 H137 0.985 . S
H134 N129 0.984 . S
H135 N129 0.985 . S
H136 N133 0.984 . S
H137 N133 0.985 . S
H138 N132 0.984 . S
H139 N132 0.984 . S
H140 N128 0.984 . S
H141 N128 0.985 . S
C142 C143 1.362 1_556 S
C142 C148 1.379 . S
C142 N150 1.356 . S
C143 C142 1.362 1_554 S
C143 C149 1.364 . S
C144 C145 1.365 1_554 S
C144 C149 1.379 . S
C144 N151 1.356 . S
C145 C144 1.365 1_556 S
C145 C148 1.361 . S
N146 C148 1.356 . S
N146 H158 0.984 . S
N146 H159 0.985 . S
N147 C149 1.356 . S
N147 H152 0.984 1_455 S
N147 H153 0.985 . S
C148 C142 1.379 . S
C148 C145 1.361 . S
C148 N146 1.356 . S
C149 C143 1.364 . S
C149 C144 1.379 . S
C149 N147 1.356 . S
N150 C142 1.356 . S
N150 H156 0.984 . S
N150 H157 0.984 . S
N151 C144 1.356 . S
N151 H154 0.984 . S
N151 H155 0.985 . S
H152 N147 0.984 1_655 S
H153 N147 0.985 . S
H154 N151 0.984 . S
H155 N151 0.985 . S
H156 N150 0.984 . S
H157 N150 0.984 . S
H158 N146 0.984 . S
H159 N146 0.985 . S
C160 C161 1.363 . S
C160 C166 1.379 . S
C160 N168 1.356 . S
C161 C160 1.363 . S
C161 C167 1.363 . S
C162 C163 1.363 . S
C162 C167 1.379 . S
C162 N169 1.356 . S
C163 C162 1.363 . S
C163 C166 1.363 . S
N164 C166 1.356 . S
N164 H176 0.984 . S
N164 H177 0.985 . S
N165 C167 1.356 . S
N165 H170 0.984 . S
N165 H171 0.985 . S
C166 C160 1.379 . S
C166 C163 1.363 . S
C166 N164 1.356 . S
C167 C161 1.363 . S
C167 C162 1.379 . S
C167 N165 1.356 . S
N168 C160 1.356 . S
N168 H174 0.984 . S
N168 H175 0.984 . S
N169 C162 1.356 . S
N169 H172 0.984 . S
N169 H173 0.985 . S
H170 N165 0.984 . S
H171 N165 0.985 . S
H172 N169 0.984 . S
H173 N169 0.985 . S
H174 N168 0.984 . S
H175 N168 0.984 . S
H176 N164 0.984 . S
H177 N164 0.985 . S
C178 C179 1.363 . S
C178 C184 1.379 . S
C178 N186 1.356 . S
C179 C178 1.363 . S
C179 C185 1.363 . S
C180 C181 1.363 . S
C180 C185 1.379 . S
C180 N187 1.356 . S
C181 C180 1.363 . S
C181 C184 1.363 . S
N182 C184 1.356 . S
N182 H194 0.984 . S
N182 H195 0.985 . S
N183 C185 1.356 . S
N183 H188 0.984 1_455 S
N183 H189 0.985 . S
C184 C178 1.379 . S
C184 C181 1.363 . S
C184 N182 1.356 . S
C185 C179 1.363 . S
C185 C180 1.379 . S
C185 N183 1.356 . S
N186 C178 1.356 . S
N186 H192 0.984 . S
N186 H193 0.984 . S
N187 C180 1.356 . S
N187 H190 0.984 . S
N187 H191 0.985 . S
H188 N183 0.984 1_655 S
H189 N183 0.985 . S
H190 N187 0.984 . S
H191 N187 0.985 . S
H192 N186 0.984 . S
H193 N186 0.984 . S
H194 N182 0.984 . S
H195 N182 0.985 . S
C196 C197 1.363 1_556 S
C196 C202 1.379 . S
C196 N204 1.356 . S
C197 C196 1.363 1_554 S
C197 C203 1.363 . S
C198 C199 1.363 . S
C198 C203 1.379 . S
C198 N205 1.356 . S
C199 C198 1.363 . S
C199 C202 1.363 1_554 S
N200 C202 1.356 . S
N200 H212 0.984 . S
N200 H213 0.985 . S
N201 C203 1.356 . S
N201 H206 0.984 . S
N201 H207 0.985 . S
C202 C196 1.379 . S
C202 C199 1.363 1_556 S
C202 N200 1.356 . S
C203 C197 1.363 . S
C203 C198 1.379 . S
C203 N201 1.356 . S
N204 C196 1.356 . S
N204 H210 0.984 . S
N204 H211 0.984 . S
N205 C198 1.356 . S
N205 H208 0.984 . S
N205 H209 0.985 . S
H206 N201 0.984 . S
H207 N201 0.985 . S
H208 N205 0.984 . S
H209 N205 0.985 . S
H210 N204 0.984 . S
H211 N204 0.984 . S
H212 N200 0.984 . S
H213 N200 0.985 . S
C214 C215 1.363 . S
C214 C220 1.379 . S
C214 N222 1.356 . S
C215 C214 1.363 . S
C215 C221 1.363 . S
C216 C217 1.363 . S
C216 C221 1.379 . S
C216 N223 1.356 . S
C217 C216 1.363 . S
C217 C220 1.363 . S
N218 C220 1.356 . S
N218 H230 0.984 . S
N218 H231 0.985 . S
N219 C221 1.356 . S
N219 H224 0.984 . S
N219 H225 0.985 . S
C220 C214 1.379 . S
C220 C217 1.363 . S
C220 N218 1.356 . S
C221 C215 1.363 . S
C221 C216 1.379 . S
C221 N219 1.356 . S
N222 C214 1.356 . S
N222 H228 0.984 . S
N222 H229 0.984 . S
N223 C216 1.356 . S
N223 H226 0.984 . S
N223 H227 0.985 . S
H224 N219 0.984 . S
H225 N219 0.985 . S
H226 N223 0.984 . S
H227 N223 0.985 . S
H228 N222 0.984 . S
H229 N222 0.984 . S
H230 N218 0.984 . S
H231 N218 0.985 . S
C232 C233 1.365 1_556 S
C232 C238 1.377 1_455 S
C232 N240 1.357 . S
C233 C232 1.365 1_554 S
C233 C239 1.363 . S
C234 C235 1.363 1_455 S
C234 C239 1.379 1_565 S
C234 N241 1.356 1_455 S
C235 C234 1.363 1_655 S
C235 C238 1.363 1_564 S
N236 C238 1.356 1_565 S
N236 H248 0.984 1_565 S
N236 H249 0.985 . S
N237 C239 1.356 . S
N237 H242 0.984 . S
N237 H243 0.985 1_545 S
C238 C232 1.377 1_655 S
C238 C235 1.363 1_546 S
C238 N236 1.356 1_545 S
C239 C233 1.363 . S
C239 C234 1.379 1_545 S
C239 N237 1.356 . S
N240 C232 1.357 . S
N240 H246 0.984 1_455 S
N240 H247 0.984 . S
N241 C234 1.356 1_655 S
N241 H244 0.984 . S
N241 H245 0.985 1_655 S
H242 N237 0.984 . S
H243 N237 0.985 1_565 S
H244 N241 0.984 . S
H245 N241 0.985 1_455 S
H246 N240 0.984 1_655 S
H247 N240 0.984 . S
H248 N236 0.984 1_545 S
H249 N236 0.985 . S
C250 C251 1.363 1_455 S
C250 C256 1.379 1_545 S
C250 N258 1.356 1_455 S
C251 C250 1.363 1_655 S
C251 C257 1.363 1_545 S
C252 C253 1.363 . S
C252 C257 1.379 1_455 S
C252 N259 1.356 . S
C253 C252 1.363 . S
C253 C256 1.363 . S
N254 C256 1.356 . S
N254 H266 0.984 1_565 S
N254 H267 0.985 . S
N255 C257 1.356 1_545 S
N255 H260 0.984 . S
N255 H261 0.985 1_545 S
C256 C250 1.379 1_565 S
C256 C253 1.363 . S
C256 N254 1.356 . S
C257 C251 1.363 1_565 S
C257 C252 1.379 1_655 S
C257 N255 1.356 1_565 S
N258 C250 1.356 1_655 S
N258 H264 0.984 1_655 S
N258 H265 0.984 . S
N259 C252 1.356 . S
N259 H262 0.984 . S
N259 H263 0.985 1_455 S
H260 N255 0.984 . S
H261 N255 0.985 1_565 S
H262 N259 0.984 . S
H263 N259 0.985 1_655 S
H264 N258 0.984 1_455 S
H265 N258 0.984 . S
H266 N254 0.984 1_545 S
H267 N254 0.985 . S
C268 C269 1.363 . S
C268 C274 1.379 . S
C268 N276 1.356 . S
C269 C268 1.363 . S
C269 C275 1.363 . S
C270 C271 1.363 . S
C270 C275 1.379 . S
C270 N277 1.356 . S
C271 C270 1.363 . S
C271 C274 1.363 . S
N272 C274 1.356 . S
N272 H284 0.984 . S
N272 H285 0.985 . S
N273 C275 1.356 . S
N273 H278 0.984 . S
N273 H279 0.985 . S
C274 C268 1.379 . S
C274 C271 1.363 . S
C274 N272 1.356 . S
C275 C269 1.363 . S
C275 C270 1.379 . S
C275 N273 1.356 . S
N276 C268 1.356 . S
N276 H282 0.984 . S
N276 H283 0.984 . S
N277 C270 1.356 . S
N277 H280 0.984 . S
N277 H281 0.985 . S
H278 N273 0.984 . S
H279 N273 0.985 . S
H280 N277 0.984 . S
H281 N277 0.985 . S
H282 N276 0.984 . S
H283 N276 0.984 . S
H284 N272 0.984 . S
H285 N272 0.985 . S
C286 C287 1.363 . S
C286 C292 1.379 . S
C286 N294 1.356 . S
C287 C286 1.363 . S
C287 C293 1.363 . S
C288 C289 1.363 . S
C288 C293 1.379 . S
C288 N295 1.356 . S
C289 C288 1.363 . S
C289 C292 1.363 . S
N290 C292 1.356 . S
N290 H302 0.984 . S
N290 H303 0.985 . S
N291 C293 1.356 . S
N291 H296 0.984 . S
N291 H297 0.985 . S
C292 C286 1.379 . S
C292 C289 1.363 . S
C292 N290 1.356 . S
C293 C287 1.363 . S
C293 C288 1.379 . S
C293 N291 1.356 . S
N294 C286 1.356 . S
N294 H300 0.984 . S
N294 H301 0.984 . S
N295 C288 1.356 . S
N295 H298 0.984 . S
N295 H299 0.985 . S
H296 N291 0.984 . S
H297 N291 0.985 . S
H298 N295 0.984 . S
H299 N295 0.985 . S
H300 N294 0.984 . S
H301 N294 0.984 . S
H302 N290 0.984 . S
H303 N290 0.985 . S
C304 C305 1.363 . S
C304 C310 1.379 . S
C304 N312 1.356 . S
C305 C304 1.363 . S
C305 C311 1.363 . S
C306 C307 1.363 . S
C306 C311 1.379 . S
C306 N313 1.356 . S
C307 C306 1.363 . S
C307 C310 1.363 . S
N308 C310 1.356 . S
N308 H320 0.984 . S
N308 H321 0.985 . S
N309 C311 1.356 . S
N309 H314 0.984 . S
N309 H315 0.985 . S
C310 C304 1.379 . S
C310 C307 1.363 . S
C310 N308 1.356 . S
C311 C305 1.363 . S
C311 C306 1.379 . S
C311 N309 1.356 . S
N312 C304 1.356 . S
N312 H318 0.984 . S
N312 H319 0.984 . S
N313 C306 1.356 . S
N313 H316 0.984 . S
N313 H317 0.985 . S
H314 N309 0.984 . S
H315 N309 0.985 . S
H316 N313 0.984 . S
H317 N313 0.985 . S
H318 N312 0.984 . S
H319 N312 0.984 . S
H320 N308 0.984 . S
H321 N308 0.985 . S
C322 C323 1.363 . S
C322 C328 1.379 . S
C322 N330 1.356 . S
C323 C322 1.363 . S
C323 C329 1.363 . S
C324 C325 1.363 . S
C324 C329 1.379 . S
C324 N331 1.356 . S
C325 C324 1.363 . S
C325 C328 1.363 . S
N326 C328 1.356 . S
N326 H338 0.984 . S
N326 H339 0.985 . S
N327 C329 1.356 . S
N327 H332 0.984 . S
N327 H333 0.985 . S
C328 C322 1.379 . S
C328 C325 1.363 . S
C328 N326 1.356 . S
C329 C323 1.363 . S
C329 C324 1.379 . S
C329 N327 1.356 . S
N330 C322 1.356 . S
N330 H336 0.984 . S
N330 H337 0.984 . S
N331 C324 1.356 . S
N331 H334 0.984 . S
N331 H335 0.985 . S
H332 N327 0.984 . S
H333 N327 0.985 . S
H334 N331 0.984 . S
H335 N331 0.985 . S
H336 N330 0.984 . S
H337 N330 0.984 . S
H338 N326 0.984 . S
H339 N326 0.985 . S
C340 C341 1.363 1_655 S
C340 C346 1.379 . S
C340 N348 1.356 . S
C341 C340 1.363 1_455 S
C341 C347 1.363 . S
C342 C343 1.363 1_455 S
C342 C347 1.379 . S
C342 N349 1.356 . S
C343 C342 1.363 1_655 S
C343 C346 1.363 . S
N344 C346 1.356 . S
N344 H356 0.984 . S
N344 H357 0.985 . S
N345 C347 1.356 . S
N345 H350 0.984 . S
N345 H351 0.985 . S
C346 C340 1.379 . S
C346 C343 1.363 . S
C346 N344 1.356 . S
C347 C341 1.363 . S
C347 C342 1.379 . S
C347 N345 1.356 . S
N348 C340 1.356 . S
N348 H354 0.984 . S
N348 H355 0.984 . S
N349 C342 1.356 . S
N349 H352 0.984 . S
N349 H353 0.985 . S
H350 N345 0.984 . S
H351 N345 0.985 . S
H352 N349 0.984 . S
H353 N349 0.985 . S
H354 N348 0.984 . S
H355 N348 0.984 . S
H356 N344 0.984 . S
H357 N344 0.985 . S
C358 C359 1.363 . S
C358 C364 1.379 . S
C358 N366 1.356 . S
C359 C358 1.363 . S
C359 C365 1.363 1_655 S
C360 C361 1.363 . S
C360 C365 1.379 . S
C360 N367 1.356 . S
C361 C360 1.363 . S
C361 C364 1.363 1_455 S
N362 C364 1.356 . S
N362 H374 0.984 . S
N362 H375 0.985 . S
N363 C365 1.356 . S
N363 H368 0.984 . S
N363 H369 0.985 . S
C364 C358 1.379 . S
C364 C361 1.363 1_655 S
C364 N362 1.356 . S
C365 C359 1.363 1_455 S
C365 C360 1.379 . S
C365 N363 1.356 . S
N366 C358 1.356 . S
N366 H372 0.984 . S
N366 H373 0.984 . S
N367 C360 1.356 . S
N367 H370 0.984 . S
N367 H371 0.985 . S
H368 N363 0.984 . S
H369 N363 0.985 . S
H370 N367 0.984 . S
H371 N367 0.985 . S
H372 N366 0.984 . S
H373 N366 0.984 . S
H374 N362 0.984 . S
H375 N362 0.985 . S
C376 C377 1.363 1_655 S
C376 C382 1.379 . S
C376 N384 1.356 . S
C377 C376 1.363 1_455 S
C377 C383 1.363 . S
C378 C379 1.363 1_455 S
C378 C383 1.379 . S
C378 N385 1.356 . S
C379 C378 1.363 1_655 S
C379 C382 1.363 . S
N380 C382 1.356 . S
N380 H392 0.984 . S
N380 H393 0.985 . S
N381 C383 1.356 . S
N381 H386 0.984 . S
N381 H387 0.985 . S
C382 C376 1.379 . S
C382 C379 1.363 . S
C382 N380 1.356 . S
C383 C377 1.363 . S
C383 C378 1.379 . S
C383 N381 1.356 . S
N384 C376 1.356 . S
N384 H390 0.984 . S
N384 H391 0.984 . S
N385 C378 1.356 . S
N385 H388 0.984 . S
N385 H389 0.985 . S
H386 N381 0.984 . S
H387 N381 0.985 . S
H388 N385 0.984 . S
H389 N385 0.985 . S
H390 N384 0.984 . S
H391 N384 0.984 . S
H392 N380 0.984 . S
H393 N380 0.985 . S
C394 C395 1.363 1_655 S
C394 C400 1.379 . S
C394 N402 1.356 . S
C395 C394 1.363 1_455 S
C395 C401 1.363 . S
C396 C397 1.363 1_455 S
C396 C401 1.379 . S
C396 N403 1.356 . S
C397 C396 1.363 1_655 S
C397 C400 1.363 . S
N398 C400 1.356 . S
N398 H410 0.984 . S
N398 H411 0.985 . S
N399 C401 1.356 . S
N399 H404 0.984 . S
N399 H405 0.985 . S
C400 C394 1.379 . S
C400 C397 1.363 . S
C400 N398 1.356 . S
C401 C395 1.363 . S
C401 C396 1.379 . S
C401 N399 1.356 . S
N402 C394 1.356 . S
N402 H408 0.984 . S
N402 H409 0.984 . S
N403 C396 1.356 . S
N403 H406 0.984 . S
N403 H407 0.985 . S
H404 N399 0.984 . S
H405 N399 0.985 . S
H406 N403 0.984 . S
H407 N403 0.985 . S
H408 N402 0.984 . S
H409 N402 0.984 . S
H410 N398 0.984 . S
H411 N398 0.985 . S
C125 C0 1.788 . S
C127 C10 1.751 1_655 S
C143 C31 1.788 1_455 S
C145 C41 1.751 . S
C161 C62 1.788 . S
C163 C72 1.752 1_655 S
C179 C93 1.788 1_455 S
C181 C103 1.752 . S
C197 C50 1.607 1_554 S
C199 C30 1.599 . S
C215 C112 1.607 . S
C217 C92 1.599 . S
C233 C19 1.607 1_554 S
C235 C61 1.599 . S
C251 C123 1.599 . S
C253 C81 1.607 . S
C269 C95 1.200 . S
C271 C1 1.199 . S
C287 C33 1.200 . S
C289 C63 1.199 . S
C305 C91 1.281 . S
C307 C51 1.269 . S
C323 C29 1.281 . S
C325 C113 1.269 . S
C341 C64 1.200 . S
C343 C32 1.199 . S
C359 C94 1.199 . S
C361 C2 1.200 . S
C377 C20 1.269 . S
C379 C122 1.281 . S
C395 C82 1.269 . S
C397 C60 1.281 . S
