# Generated by pormake.
# Topology ums, (4)-cn, num edge types: 1
# Building blocks:
#     Node 0, Type 0, BuildingBlock: GALJAG_clean_sbu_0, # of connection points: 4
#     Node 1, Type 0, BuildingBlock: GALJAG_clean_sbu_0, # of connection points: 4
#     Node 2, Type 0, BuildingBlock: GALJAG_clean_sbu_0, # of connection points: 4
#     Node 3, Type 0, BuildingBlock: GALJAG_clean_sbu_0, # of connection points: 4
#     Node 4, Type 0, BuildingBlock: GALJAG_clean_sbu_0, # of connection points: 4
#     Node 5, Type 0, BuildingBlock: GALJAG_clean_sbu_0, # of connection points: 4
#     Node 6, Type 0, BuildingBlock: GALJAG_clean_sbu_0, # of connection points: 4
#     Node 7, Type 0, BuildingBlock: GALJAG_clean_sbu_0, # of connection points: 4
#     Node 8, Type 0, BuildingBlock: GALJAG_clean_sbu_0, # of connection points: 4
#     Node 9, Type 0, BuildingBlock: GALJAG_clean_sbu_0, # of connection points: 4
#     Node 10, Type 0, BuildingBlock: GALJAG_clean_sbu_0, # of connection points: 4
#     Node 11, Type 0, BuildingBlock: GALJAG_clean_sbu_0, # of connection points: 4
#     Node 12, Type 0, BuildingBlock: GALJAG_clean_sbu_0, # of connection points: 4
#     Node 13, Type 0, BuildingBlock: GALJAG_clean_sbu_0, # of connection points: 4
#     Node 14, Type 0, BuildingBlock: GALJAG_clean_sbu_0, # of connection points: 4
#     Node 15, Type 0, BuildingBlock: GALJAG_clean_sbu_0, # of connection points: 4
#     Node 16, Type 0, BuildingBlock: GALJAG_clean_sbu_0, # of connection points: 4
#     Node 17, Type 0, BuildingBlock: GALJAG_clean_sbu_0, # of connection points: 4
#     Node 18, Type 0, BuildingBlock: GALJAG_clean_sbu_0, # of connection points: 4
#     Node 19, Type 0, BuildingBlock: GALJAG_clean_sbu_0, # of connection points: 4
#     Node 20, Type 0, BuildingBlock: GALJAG_clean_sbu_0, # of connection points: 4
#     Node 21, Type 0, BuildingBlock: GALJAG_clean_sbu_0, # of connection points: 4
#     Node 22, Type 0, BuildingBlock: GALJAG_clean_sbu_0, # of connection points: 4
#     Node 23, Type 0, BuildingBlock: GALJAG_clean_sbu_0, # of connection points: 4
#     Node 24, Type 0, BuildingBlock: GALJAG_clean_sbu_0, # of connection points: 4
#     Node 25, Type 0, BuildingBlock: GALJAG_clean_sbu_0, # of connection points: 4
#     Node 26, Type 0, BuildingBlock: GALJAG_clean_sbu_0, # of connection points: 4
#     Node 27, Type 0, BuildingBlock: GALJAG_clean_sbu_0, # of connection points: 4
#     Node 28, Type 0, BuildingBlock: GALJAG_clean_sbu_0, # of connection points: 4
#     Node 29, Type 0, BuildingBlock: GALJAG_clean_sbu_0, # of connection points: 4
#     Node 30, Type 0, BuildingBlock: GALJAG_clean_sbu_0, # of connection points: 4
#     Node 31, Type 0, BuildingBlock: GALJAG_clean_sbu_0, # of connection points: 4
#     Node 32, Type 0, BuildingBlock: GALJAG_clean_sbu_0, # of connection points: 4
#     Node 33, Type 0, BuildingBlock: GALJAG_clean_sbu_0, # of connection points: 4
#     Node 34, Type 0, BuildingBlock: GALJAG_clean_sbu_0, # of connection points: 4
#     Node 35, Type 0, BuildingBlock: GALJAG_clean_sbu_0, # of connection points: 4
#     Edge 36, Type (0, 0), BuildingBlock: XIVTED_clean_linker_0, # of connection points: 2
#     Edge 37, Type (0, 0), BuildingBlock: XIVTED_clean_linker_0, # of connection points: 2
#     Edge 38, Type (0, 0), BuildingBlock: XIVTED_clean_linker_0, # of connection points: 2
#     Edge 39, Type (0, 0), BuildingBlock: XIVTED_clean_linker_0, # of connection points: 2
#     Edge 40, Type (0, 0), BuildingBlock: XIVTED_clean_linker_0, # of connection points: 2
#     Edge 41, Type (0, 0), BuildingBlock: XIVTED_clean_linker_0, # of connection points: 2
#     Edge 42, Type (0, 0), BuildingBlock: XIVTED_clean_linker_0, # of connection points: 2
#     Edge 43, Type (0, 0), BuildingBlock: XIVTED_clean_linker_0, # of connection points: 2
#     Edge 44, Type (0, 0), BuildingBlock: XIVTED_clean_linker_0, # of connection points: 2
#     Edge 45, Type (0, 0), BuildingBlock: XIVTED_clean_linker_0, # of connection points: 2
#     Edge 46, Type (0, 0), BuildingBlock: XIVTED_clean_linker_0, # of connection points: 2
#     Edge 47, Type (0, 0), BuildingBlock: XIVTED_clean_linker_0, # of connection points: 2
#     Edge 48, Type (0, 0), BuildingBlock: XIVTED_clean_linker_0, # of connection points: 2
#     Edge 49, Type (0, 0), BuildingBlock: XIVTED_clean_linker_0, # of connection points: 2
#     Edge 50, Type (0, 0), BuildingBlock: XIVTED_clean_linker_0, # of connection points: 2
#     Edge 51, Type (0, 0), BuildingBlock: XIVTED_clean_linker_0, # of connection points: 2
#     Edge 52, Type (0, 0), BuildingBlock: XIVTED_clean_linker_0, # of connection points: 2
#     Edge 53, Type (0, 0), BuildingBlock: XIVTED_clean_linker_0, # of connection points: 2
#     Edge 54, Type (0, 0), BuildingBlock: XIVTED_clean_linker_0, # of connection points: 2
#     Edge 55, Type (0, 0), BuildingBlock: XIVTED_clean_linker_0, # of connection points: 2
#     Edge 56, Type (0, 0), BuildingBlock: XIVTED_clean_linker_0, # of connection points: 2
#     Edge 57, Type (0, 0), BuildingBlock: XIVTED_clean_linker_0, # of connection points: 2
#     Edge 58, Type (0, 0), BuildingBlock: XIVTED_clean_linker_0, # of connection points: 2
#     Edge 59, Type (0, 0), BuildingBlock: XIVTED_clean_linker_0, # of connection points: 2
#     Edge 60, Type (0, 0), BuildingBlock: XIVTED_clean_linker_0, # of connection points: 2
#     Edge 61, Type (0, 0), BuildingBlock: XIVTED_clean_linker_0, # of connection points: 2
#     Edge 62, Type (0, 0), BuildingBlock: XIVTED_clean_linker_0, # of connection points: 2
#     Edge 63, Type (0, 0), BuildingBlock: XIVTED_clean_linker_0, # of connection points: 2
#     Edge 64, Type (0, 0), BuildingBlock: XIVTED_clean_linker_0, # of connection points: 2
#     Edge 65, Type (0, 0), BuildingBlock: XIVTED_clean_linker_0, # of connection points: 2
#     Edge 66, Type (0, 0), BuildingBlock: XIVTED_clean_linker_0, # of connection points: 2
#     Edge 67, Type (0, 0), BuildingBlock: XIVTED_clean_linker_0, # of connection points: 2
#     Edge 68, Type (0, 0), BuildingBlock: XIVTED_clean_linker_0, # of connection points: 2
#     Edge 69, Type (0, 0), BuildingBlock: XIVTED_clean_linker_0, # of connection points: 2
#     Edge 70, Type (0, 0), BuildingBlock: XIVTED_clean_linker_0, # of connection points: 2
#     Edge 71, Type (0, 0), BuildingBlock: XIVTED_clean_linker_0, # of connection points: 2
#     Edge 72, Type (0, 0), BuildingBlock: XIVTED_clean_linker_0, # of connection points: 2
#     Edge 73, Type (0, 0), BuildingBlock: XIVTED_clean_linker_0, # of connection points: 2
#     Edge 74, Type (0, 0), BuildingBlock: XIVTED_clean_linker_0, # of connection points: 2
#     Edge 75, Type (0, 0), BuildingBlock: XIVTED_clean_linker_0, # of connection points: 2
#     Edge 76, Type (0, 0), BuildingBlock: XIVTED_clean_linker_0, # of connection points: 2
#     Edge 77, Type (0, 0), BuildingBlock: XIVTED_clean_linker_0, # of connection points: 2
#     Edge 78, Type (0, 0), BuildingBlock: XIVTED_clean_linker_0, # of connection points: 2
#     Edge 79, Type (0, 0), BuildingBlock: XIVTED_clean_linker_0, # of connection points: 2
#     Edge 80, Type (0, 0), BuildingBlock: XIVTED_clean_linker_0, # of connection points: 2
#     Edge 81, Type (0, 0), BuildingBlock: XIVTED_clean_linker_0, # of connection points: 2
#     Edge 82, Type (0, 0), BuildingBlock: XIVTED_clean_linker_0, # of connection points: 2
#     Edge 83, Type (0, 0), BuildingBlock: XIVTED_clean_linker_0, # of connection points: 2
#     Edge 84, Type (0, 0), BuildingBlock: XIVTED_clean_linker_0, # of connection points: 2
#     Edge 85, Type (0, 0), BuildingBlock: XIVTED_clean_linker_0, # of connection points: 2
#     Edge 86, Type (0, 0), BuildingBlock: XIVTED_clean_linker_0, # of connection points: 2
#     Edge 87, Type (0, 0), BuildingBlock: XIVTED_clean_linker_0, # of connection points: 2
#     Edge 88, Type (0, 0), BuildingBlock: XIVTED_clean_linker_0, # of connection points: 2
#     Edge 89, Type (0, 0), BuildingBlock: XIVTED_clean_linker_0, # of connection points: 2
#     Edge 90, Type (0, 0), BuildingBlock: XIVTED_clean_linker_0, # of connection points: 2
#     Edge 91, Type (0, 0), BuildingBlock: XIVTED_clean_linker_0, # of connection points: 2
#     Edge 92, Type (0, 0), BuildingBlock: XIVTED_clean_linker_0, # of connection points: 2
#     Edge 93, Type (0, 0), BuildingBlock: XIVTED_clean_linker_0, # of connection points: 2
#     Edge 94, Type (0, 0), BuildingBlock: XIVTED_clean_linker_0, # of connection points: 2
#     Edge 95, Type (0, 0), BuildingBlock: XIVTED_clean_linker_0, # of connection points: 2
#     Edge 96, Type (0, 0), BuildingBlock: XIVTED_clean_linker_0, # of connection points: 2
#     Edge 97, Type (0, 0), BuildingBlock: XIVTED_clean_linker_0, # of connection points: 2
#     Edge 98, Type (0, 0), BuildingBlock: XIVTED_clean_linker_0, # of connection points: 2
#     Edge 99, Type (0, 0), BuildingBlock: XIVTED_clean_linker_0, # of connection points: 2
#     Edge 100, Type (0, 0), BuildingBlock: XIVTED_clean_linker_0, # of connection points: 2
#     Edge 101, Type (0, 0), BuildingBlock: XIVTED_clean_linker_0, # of connection points: 2
#     Edge 102, Type (0, 0), BuildingBlock: XIVTED_clean_linker_0, # of connection points: 2
#     Edge 103, Type (0, 0), BuildingBlock: XIVTED_clean_linker_0, # of connection points: 2
#     Edge 104, Type (0, 0), BuildingBlock: XIVTED_clean_linker_0, # of connection points: 2
#     Edge 105, Type (0, 0), BuildingBlock: XIVTED_clean_linker_0, # of connection points: 2
#     Edge 106, Type (0, 0), BuildingBlock: XIVTED_clean_linker_0, # of connection points: 2
#     Edge 107, Type (0, 0), BuildingBlock: XIVTED_clean_linker_0, # of connection points: 2
# Relax obj value: 0.176
# Max RMSD: 0.175
# Mean RMSD: 0.174
data_MOF--net-ums--node1-GALJAG_clean_sbu_0--edge1-XIVTED_clean_linker_0
_symmetry_space_group_name_H-M    P1
_symmetry_Int_Tables_number       1
_symmetry_cell_setting            triclinic
loop_
_symmetry_equiv_pos_as_xyz
'x, y, z'
_cell_length_a     97.160774
_cell_length_b     97.189966
_cell_length_c     26.184996
_cell_angle_alpha  89.995124
_cell_angle_beta   89.998838
_cell_angle_gamma 119.98326
loop_
_atom_site_label
_atom_site_type_symbol
_atom_site_fract_x
_atom_site_fract_y
_atom_site_fract_z
_atom_type_partial_charge
In0 In 0.17269 0.25187 0.13118 0.0
O1 O 0.17618 0.23021 0.12928 0.0
O2 O 0.19114 0.24948 0.17753 0.0
C3 C 0.15321 0.24443 0.04996 0.0
C4 C 0.15402 0.248 0.21243 0.0
C5 C 0.19597 0.28122 0.10404 0.0
O6 O 0.16341 0.24005 0.05368 0.0
O7 O 0.1526 0.25218 0.08772 0.0
O8 O 0.19031 0.27782 0.1485 0.0
O9 O 0.19018 0.26973 0.0732 0.0
C10 C 0.18717 0.23574 0.16201 0.0
O11 O 0.16423 0.26143 0.19553 0.0
O12 O 0.15275 0.23635 0.18721 0.0
In13 In 0.74837 0.91003 0.17501 0.0
O14 O 0.73842 0.89256 0.24043 0.0
O15 O 0.76346 0.90447 0.22931 0.0
C16 C 0.7201 0.90674 0.14664 0.0
C17 C 0.76514 0.94075 0.20364 0.0
C18 C 0.75523 0.89644 0.09691 0.0
O19 O 0.7226 0.9031 0.19042 0.0
O20 O 0.73193 0.91231 0.11723 0.0
O21 O 0.76339 0.91112 0.10638 0.0
O22 O 0.74398 0.88863 0.1277 0.0
C23 C 0.75169 0.89483 0.25586 0.0
O24 O 0.76748 0.93596 0.16155 0.0
O25 O 0.75436 0.93014 0.23069 0.0
In26 In 0.08672 0.83825 0.13065 0.0
O27 O 0.0629 0.81597 0.14397 0.0
O28 O 0.06324 0.83798 0.14006 0.0
C29 C 0.09716 0.85554 0.04408 0.0
C30 C 0.09524 0.85417 0.21976 0.0
C31 C 0.10039 0.82005 0.12232 0.0
O32 O 0.08326 0.84386 0.0481 0.0
O33 O 0.10553 0.85857 0.08372 0.0
O34 O 0.10578 0.83214 0.15058 0.0
O35 O 0.088 0.81705 0.09787 0.0
C36 C 0.05518 0.82319 0.14759 0.0
O37 O 0.08985 0.8394 0.21658 0.0
O38 O 0.09645 0.86105 0.1777 0.0
In39 In 0.2339 0.15031 0.38353 0.0
O40 O 0.23653 0.13166 0.33864 0.0
O41 O 0.21437 0.13103 0.33474 0.0
C42 C 0.26598 0.16615 0.38621 0.0
C43 C 0.2244 0.16899 0.33784 0.0
C44 C 0.22386 0.14205 0.48103 0.0
O45 O 0.25803 0.17258 0.37309 0.0
O46 O 0.25776 0.15161 0.39742 0.0
O47 O 0.23468 0.15573 0.4685 0.0
O48 O 0.21774 0.13255 0.44417 0.0
C49 C 0.22275 0.12524 0.31973 0.0
O50 O 0.22245 0.16594 0.38504 0.0
O51 O 0.23118 0.16273 0.31417 0.0
In52 In 0.83624 0.08595 0.33288 0.0
O53 O 0.84209 0.09547 0.25227 0.0
O54 O 0.86019 0.09403 0.29362 0.0
C55 C 0.81353 0.09346 0.35333 0.0
C56 C 0.82123 0.05482 0.30881 0.0
C57 C 0.85534 0.09885 0.41402 0.0
O58 O 0.82385 0.10026 0.31901 0.0
O59 O 0.81447 0.08267 0.37699 0.0
O60 O 0.84915 0.08428 0.40314 0.0
O61 O 0.8522 0.1069 0.38322 0.0
C62 C 0.85593 0.09743 0.2522 0.0
O63 O 0.82707 0.05976 0.35254 0.0
O64 O 0.82274 0.06546 0.27823 0.0
In65 In 0.92054 0.75847 0.363 0.0
O66 O 0.91211 0.74876 0.28348 0.0
O67 O 0.90759 0.76684 0.30991 0.0
C68 C 0.90422 0.7282 0.39647 0.0
C69 C 0.95064 0.77345 0.32809 0.0
C70 C 0.91792 0.77247 0.44808 0.0
O71 O 0.89758 0.73554 0.37931 0.0
O72 O 0.91922 0.73609 0.39662 0.0
O73 O 0.92714 0.76687 0.44536 0.0
O74 O 0.91071 0.77169 0.40719 0.0
C75 C 0.9063 0.75755 0.27416 0.0
O76 O 0.94329 0.78074 0.33849 0.0
O77 O 0.94307 0.75877 0.33752 0.0
In78 In 0.83937 0.74477 0.84739 0.0
O79 O 0.83798 0.76752 0.84707 0.0
O80 O 0.81749 0.74594 0.8249 0.0
C81 C 0.85472 0.74983 0.93679 0.0
C82 C 0.85885 0.75565 0.76595 0.0
C83 C 0.82036 0.71298 0.85297 0.0
O84 O 0.84476 0.75435 0.92913 0.0
O85 O 0.85696 0.74302 0.89939 0.0
O86 O 0.83223 0.71949 0.82362 0.0
O87 O 0.81794 0.72252 0.87888 0.0
C88 C 0.82389 0.76076 0.83059 0.0
O89 O 0.84399 0.74703 0.76194 0.0
O90 O 0.864 0.75849 0.81112 0.0
In91 In 0.23169 0.08305 0.88602 0.0
O92 O 0.23598 0.106 0.84741 0.0
O93 O 0.21515 0.08449 0.82762 0.0
C94 C 0.26349 0.09676 0.89832 0.0
C95 C 0.22086 0.05439 0.84156 0.0
C96 C 0.22017 0.08279 0.97996 0.0
O97 O 0.25719 0.09631 0.85578 0.0
O98 O 0.25379 0.09032 0.93451 0.0
O99 O 0.22475 0.07323 0.96681 0.0
O100 O 0.22105 0.09224 0.94537 0.0
C101 C 0.22362 0.09922 0.82019 0.0
O102 O 0.21212 0.05774 0.86814 0.0
O103 O 0.23519 0.06524 0.83914 0.0
In104 In 0.9181 0.15777 0.84222 0.0
O105 O 0.94123 0.15783 0.82588 0.0
O106 O 0.94124 0.17963 0.81934 0.0
C107 C 0.91215 0.13985 0.92663 0.0
C108 C 0.90595 0.14532 0.75011 0.0
C109 C 0.90321 0.17346 0.87315 0.0
O110 O 0.92318 0.15415 0.9249 0.0
O111 O 0.9047 0.13453 0.88528 0.0
O112 O 0.91814 0.17962 0.87491 0.0
O113 O 0.89591 0.15952 0.85551 0.0
C114 C 0.9489 0.17239 0.81449 0.0
O115 O 0.91001 0.1594 0.76225 0.0
O116 O 0.90785 0.13738 0.78472 0.0
In117 In 0.75296 0.83177 0.67459 0.0
O118 O 0.7472 0.83119 0.75863 0.0
O119 O 0.76318 0.85371 0.72635 0.0
C120 C 0.7225 0.81031 0.6532 0.0
C121 C 0.77045 0.81768 0.6901 0.0
C122 C 0.75912 0.85098 0.59316 0.0
O123 O 0.72655 0.81862 0.69329 0.0
O124 O 0.73383 0.81269 0.6241 0.0
O125 O 0.76637 0.8434 0.60057 0.0
O126 O 0.74944 0.84939 0.62784 0.0
C127 C 0.75591 0.84592 0.76563 0.0
O128 O 0.77641 0.83255 0.69211 0.0
O129 O 0.75596 0.81011 0.67833 0.0
In130 In 0.16315 0.9217 0.62617 0.0
O131 O 0.16066 0.94325 0.64473 0.0
O132 O 0.18392 0.94709 0.63323 0.0
C133 C 0.14334 0.90975 0.54603 0.0
C134 C 0.14821 0.90873 0.71491 0.0
C135 C 0.18401 0.91181 0.60388 0.0
O136 O 0.1536 0.92434 0.54926 0.0
O137 O 0.1429 0.90142 0.58367 0.0
O138 O 0.17851 0.91098 0.64803 0.0
O139 O 0.17929 0.91795 0.57089 0.0
C140 C 0.17537 0.95297 0.64511 0.0
O141 O 0.16313 0.9165 0.71064 0.0
O142 O 0.14069 0.90736 0.67415 0.0
In143 In 0.0871 0.24332 0.63057 0.0
O144 O 0.06537 0.21919 0.65037 0.0
O145 O 0.06175 0.23852 0.63449 0.0
C146 C 0.10113 0.23884 0.54842 0.0
C147 C 0.10037 0.24148 0.71906 0.0
C148 C 0.0932 0.27301 0.61006 0.0
O149 O 0.0864 0.23027 0.5567 0.0
O150 O 0.10867 0.24905 0.58247 0.0
O151 O 0.09659 0.2692 0.65233 0.0
O152 O 0.08665 0.26183 0.57817 0.0
C153 C 0.0557 0.22424 0.64798 0.0
O154 O 0.09368 0.24965 0.71388 0.0
O155 O 0.10056 0.23425 0.67925 0.0
In156 In 0.82485 0.58004 0.46756 0.0
O157 O 0.80648 0.58167 0.51747 0.0
O158 O 0.80505 0.55918 0.51058 0.0
C159 C 0.84051 0.61208 0.47108 0.0
C160 C 0.84374 0.56974 0.50646 0.0
C161 C 0.81616 0.57176 0.3691 0.0
O162 O 0.82593 0.60398 0.46026 0.0
O163 O 0.84708 0.60403 0.48111 0.0
O164 O 0.80712 0.56447 0.40602 0.0
O165 O 0.82962 0.58296 0.38182 0.0
C166 C 0.79951 0.56722 0.53044 0.0
O167 O 0.84095 0.5693 0.45922 0.0
O168 O 0.83716 0.57549 0.53369 0.0
In169 In 0.41587 0.24558 0.44568 0.0
O170 O 0.43847 0.26924 0.46054 0.0
O171 O 0.41619 0.26779 0.47383 0.0
C172 C 0.42664 0.24492 0.35143 0.0
C173 C 0.421 0.23309 0.5302 0.0
C174 C 0.38408 0.22809 0.43279 0.0
O175 O 0.41778 0.25066 0.36046 0.0
O176 O 0.4305 0.23995 0.39028 0.0
O177 O 0.39253 0.22192 0.4425 0.0
O178 O 0.39163 0.24304 0.42993 0.0
C179 C 0.43113 0.27612 0.4758 0.0
O180 O 0.41564 0.24251 0.53121 0.0
O181 O 0.42355 0.22959 0.48608 0.0
In182 In 0.74678 0.16992 0.48423 0.0
O183 O 0.76797 0.18235 0.53796 0.0
O184 O 0.74884 0.18683 0.5479 0.0
C185 C 0.75458 0.14786 0.4579 0.0
C186 C 0.71641 0.15411 0.51658 0.0
C187 C 0.75594 0.18851 0.40041 0.0
O188 O 0.75663 0.15347 0.50251 0.0
O189 O 0.74831 0.15311 0.42718 0.0
O190 O 0.74227 0.17643 0.40433 0.0
O191 O 0.76458 0.19147 0.43937 0.0
C192 C 0.7623 0.1895 0.5628 0.0
O193 O 0.7221 0.16708 0.49257 0.0
O194 O 0.72591 0.14897 0.52302 0.0
In195 In 0.91452 0.49962 0.66923 0.0
O196 O 0.89541 0.50659 0.67824 0.0
O197 O 0.91538 0.521 0.63125 0.0
C198 C 0.90449 0.48083 0.75228 0.0
C199 C 0.90554 0.48329 0.58075 0.0
C200 C 0.94579 0.51551 0.69218 0.0
O201 O 0.90434 0.49373 0.74997 0.0
O202 O 0.90935 0.47731 0.71239 0.0
O203 O 0.93935 0.5028 0.66678 0.0
O204 O 0.93649 0.52037 0.70567 0.0
C205 C 0.90225 0.51845 0.64893 0.0
O206 O 0.91844 0.49617 0.58598 0.0
O207 O 0.89714 0.47837 0.62058 0.0
In208 In 0.49906 0.41356 0.66742 0.0
O209 O 0.50003 0.42052 0.58413 0.0
O210 O 0.52145 0.42412 0.61811 0.0
C211 C 0.47746 0.42231 0.6896 0.0
C212 C 0.48505 0.38217 0.6473 0.0
C213 C 0.5182 0.42642 0.74906 0.0
O214 O 0.48621 0.42724 0.65051 0.0
O215 O 0.4796 0.41295 0.7175 0.0
O216 O 0.50908 0.41161 0.74453 0.0
O217 O 0.51788 0.43455 0.71205 0.0
C218 C 0.5146 0.42514 0.57856 0.0
O219 O 0.47739 0.38932 0.65391 0.0
O220 O 0.49986 0.3907 0.65305 0.0
In221 In 0.5747 0.08438 0.67452 0.0
O222 O 0.57042 0.0806 0.58904 0.0
O223 O 0.56702 0.09843 0.62409 0.0
C224 C 0.55931 0.05263 0.68871 0.0
C225 C 0.60634 0.1003 0.6597 0.0
C226 C 0.56509 0.09251 0.76014 0.0
O227 O 0.55301 0.0597 0.66702 0.0
O228 O 0.57349 0.06155 0.70281 0.0
O229 O 0.57779 0.09197 0.75856 0.0
O230 O 0.55761 0.08934 0.71857 0.0
C231 C 0.56673 0.09126 0.58361 0.0
O232 O 0.59861 0.10727 0.66907 0.0
O233 O 0.5982 0.08534 0.65958 0.0
In234 In 0.49759 0.08763 0.17763 0.0
O235 O 0.49765 0.1107 0.16058 0.0
O236 O 0.47537 0.08978 0.17087 0.0
C237 C 0.518 0.09586 0.25611 0.0
C238 C 0.5132 0.09147 0.08918 0.0
C239 C 0.47778 0.05691 0.20169 0.0
O240 O 0.50811 0.10068 0.25284 0.0
O241 O 0.51767 0.08725 0.21958 0.0
O242 O 0.48413 0.06121 0.15825 0.0
O243 O 0.48125 0.06809 0.23272 0.0
C244 C 0.48273 0.10435 0.16005 0.0
O245 O 0.49831 0.08293 0.09288 0.0
O246 O 0.52025 0.09802 0.13015 0.0
In247 In 0.89984 0.4155 0.1742 0.0
O248 O 0.90617 0.4208 0.09031 0.0
O249 O 0.8898 0.42704 0.12129 0.0
C250 C 0.93025 0.42619 0.20224 0.0
C251 C 0.88367 0.3838 0.15874 0.0
C252 C 0.89135 0.42825 0.25056 0.0
O253 O 0.92649 0.42827 0.158 0.0
O254 O 0.91871 0.41864 0.23218 0.0
O255 O 0.88623 0.41349 0.24783 0.0
O256 O 0.90016 0.43628 0.214 0.0
C257 C 0.89739 0.42672 0.08263 0.0
O258 O 0.89808 0.39135 0.17149 0.0
O259 O 0.87706 0.39212 0.15602 0.0
In260 In 0.58193 0.49328 0.16829 0.0
O261 O 0.60397 0.49099 0.15583 0.0
O262 O 0.6071 0.51418 0.15903 0.0
C263 C 0.56829 0.4737 0.24833 0.0
C264 C 0.57005 0.47836 0.07865 0.0
C265 C 0.57334 0.51495 0.19227 0.0
O266 O 0.58316 0.48258 0.24472 0.0
O267 O 0.56046 0.47442 0.21103 0.0
O268 O 0.5698 0.50764 0.15022 0.0
O269 O 0.58149 0.51157 0.2218 0.0
C270 C 0.61343 0.50573 0.15274 0.0
O271 O 0.56965 0.47098 0.11878 0.0
O272 O 0.57635 0.4932 0.08387 0.0
In273 In 0.41344 0.17072 0.95278 0.0
O274 O 0.40973 0.18857 -0.00146 0.0
O275 O 0.43013 0.18666 0.01498 0.0
C276 C 0.38166 0.15198 0.94221 0.0
C277 C 0.42627 0.15331 0.98554 0.0
C278 C 0.42375 0.18634 0.86347 0.0
O279 O 0.38809 0.15852 0.98392 0.0
O280 O 0.39126 0.15462 0.90612 0.0
O281 O 0.42045 0.1721 0.86864 0.0
O282 O 0.42214 0.19264 0.90336 0.0
C283 C 0.42211 0.19325 0.02518 0.0
O284 O 0.43368 0.16535 0.95737 0.0
O285 O 0.41213 0.14963 0.99532 0.0
In286 In 0.82747 0.24468 0.98263 0.0
O287 O 0.82617 0.26738 0.99155 0.0
O288 O 0.8482 0.26854 0.00658 0.0
C289 C 0.81474 0.24089 0.8887 0.0
C290 C 0.81112 0.23264 0.0699 0.0
C291 C 0.84374 0.22912 0.97003 0.0
O292 O 0.82953 0.248 0.89631 0.0
O293 O 0.80637 0.23611 0.92861 0.0
O294 O 0.82892 0.222 0.97735 0.0
O295 O 0.85037 0.24407 0.96976 0.0
C296 C 0.84038 0.27569 0.00608 0.0
O297 O 0.82604 0.24116 0.06844 0.0
O298 O 0.80435 0.22974 0.02693 0.0
In299 In 0.75045 0.5658 0.95426 0.0
O300 O 0.72528 0.54557 0.96918 0.0
O301 O 0.73252 0.56775 0.00526 0.0
C302 C 0.74921 0.55316 0.86154 0.0
C303 C 0.76823 0.56321 0.0292 0.0
C304 C 0.76367 0.59647 0.92625 0.0
O305 O 0.74147 0.56 0.87244 0.0
O306 O 0.75706 0.55208 0.89814 0.0
O307 O 0.75027 0.58915 0.94793 0.0
O308 O 0.77035 0.58834 0.9191 0.0
C309 C 0.72171 0.55353 -0.00113 0.0
O310 O 0.77168 0.5762 0.0083 0.0
O311 O 0.75595 0.55136 0.01167 0.0
In312 In 0.48323 0.90693 0.81309 0.0
O313 O 0.48566 0.88495 0.82613 0.0
O314 O 0.50538 0.90765 0.84322 0.0
C315 C 0.46494 0.89463 0.72962 0.0
C316 C 0.46894 0.9048 0.90314 0.0
C317 C 0.49961 0.93734 0.78103 0.0
O318 O 0.47899 0.89713 0.73155 0.0
O319 O 0.46012 0.89787 0.77008 0.0
O320 O 0.48579 0.93125 0.79939 0.0
O321 O 0.5052 0.92809 0.77877 0.0
C322 C 0.49964 0.89281 0.84325 0.0
O323 O 0.48244 0.91627 0.8919 0.0
O324 O 0.46249 0.89445 0.86866 0.0
In325 In 0.09187 0.58192 0.81363 0.0
O326 O 0.09658 0.60732 0.81446 0.0
O327 O 0.11501 0.60332 0.84022 0.0
C328 C 0.10268 0.57527 0.72766 0.0
C329 C 0.09163 0.56943 0.90575 0.0
C330 C 0.06067 0.56787 0.79062 0.0
O331 O 0.09947 0.58634 0.72971 0.0
O332 O 0.1011 0.56815 0.76933 0.0
O333 O 0.06831 0.56053 0.79044 0.0
O334 O 0.06872 0.58232 0.80298 0.0
C335 C 0.11033 0.61315 0.83318 0.0
O336 O 0.08298 0.57532 0.89537 0.0
O337 O 0.10041 0.56982 0.86966 0.0
In338 In 0.41364 0.50089 0.8173 0.0
O339 O 0.43112 0.50783 0.88244 0.0
O340 O 0.4192 0.52102 0.87391 0.0
C341 C 0.41857 0.47693 0.78936 0.0
C342 C 0.38305 0.48777 0.84704 0.0
C343 C 0.42657 0.5204 0.7367 0.0
O344 O 0.4215 0.48285 0.83351 0.0
O345 O 0.41269 0.48277 0.75937 0.0
O346 O 0.41186 0.51068 0.74002 0.0
O347 O 0.43465 0.52058 0.77466 0.0
C348 C 0.42884 0.51865 0.89948 0.0
O349 O 0.38914 0.4989 0.81492 0.0
O350 O 0.3922 0.48301 0.86271 0.0
In351 In 0.57831 0.83202 0.01511 0.0
O352 O 0.57334 0.85238 0.0076 0.0
O353 O 0.55376 0.82898 0.00017 0.0
C354 C 0.5738 0.81404 0.09848 0.0
C355 C 0.57517 0.81636 0.92708 0.0
C356 C 0.60834 0.85516 0.03393 0.0
O357 O 0.56548 0.82044 0.08984 0.0
O358 O 0.58388 0.8163 0.0644 0.0
O359 O 0.60454 0.84663 0.99435 0.0
O360 O 0.59694 0.85222 0.06353 0.0
C361 C 0.55871 0.84369 -0.00118 0.0
O362 O 0.5825 0.8313 0.93011 0.0
O363 O 0.56951 0.80921 0.96872 0.0
In364 In 0.1765 0.74714 0.05377 0.0
O365 O 0.18655 0.7682 -0.00018 0.0
O366 O 0.19795 0.75452 0.00037 0.0
C367 C 0.15801 0.75968 0.07545 0.0
C368 C 0.16233 0.71848 0.00805 0.0
C369 C 0.18599 0.74576 0.14935 0.0
O370 O 0.15264 0.74645 0.05298 0.0
O371 O 0.17255 0.76636 0.08713 0.0
O372 O 0.17166 0.738 0.13545 0.0
O373 O 0.19566 0.7538 0.11448 0.0
C374 C 0.19723 0.76603 0.98123 0.0
O375 O 0.17381 0.72284 0.03854 0.0
O376 O 0.15772 0.7284 0.00167 0.0
In377 In 0.24443 0.42316 0.03074 0.0
O378 O 0.22157 0.41352 0.98537 0.0
O379 O 0.2373 0.43846 0.98344 0.0
C380 C 0.2434 0.39488 0.02999 0.0
C381 C 0.27424 0.44105 0.99514 0.0
C382 C 0.23531 0.42642 0.12537 0.0
O383 O 0.23611 0.39849 0.99765 0.0
O384 O 0.25153 0.40568 0.06177 0.0
O385 O 0.24508 0.43832 0.09964 0.0
O386 O 0.22991 0.41333 0.10263 0.0
C387 C 0.22455 0.42677 0.96744 0.0
O388 O 0.27107 0.43984 0.04223 0.0
O389 O 0.26242 0.43343 0.96639 0.0
In390 In 0.16677 0.418 0.53108 0.0
O391 O 0.15182 0.43014 0.53906 0.0
O392 O 0.15852 0.42706 0.46467 0.0
C393 C 0.18009 0.42399 0.62494 0.0
C394 C 0.19127 0.4244 0.4685 0.0
C395 C 0.1427 0.38764 0.53357 0.0
O396 O 0.17912 0.43458 0.59985 0.0
O397 O 0.17501 0.41099 0.60187 0.0
O398 O 0.15284 0.39296 0.49813 0.0
O399 O 0.14434 0.39779 0.56662 0.0
C400 C 0.15125 0.43209 0.49163 0.0
O401 O 0.18165 0.41063 0.48454 0.0
O402 O 0.18906 0.43524 0.48623 0.0
In403 In 0.58066 0.75179 0.51593 0.0
O404 O 0.59159 0.76898 0.44989 0.0
O405 O 0.56649 0.75742 0.45817 0.0
C406 C 0.60977 0.75769 0.544 0.0
C407 C 0.56431 0.72118 0.48565 0.0
C408 C 0.57347 0.76391 0.59746 0.0
O409 O 0.60676 0.76075 0.49995 0.0
O410 O 0.59802 0.75144 0.57395 0.0
O411 O 0.56933 0.74938 0.59433 0.0
O412 O 0.58083 0.77213 0.55904 0.0
C413 C 0.57857 0.76691 0.43266 0.0
O414 O 0.57917 0.72959 0.48243 0.0
O415 O 0.55756 0.72802 0.5059 0.0
In416 In 0.23994 0.82144 0.53753 0.0
O417 O 0.21856 0.80362 0.49122 0.0
O418 O 0.23794 0.79944 0.49968 0.0
C419 C 0.23302 0.84507 0.53766 0.0
C420 C 0.26895 0.83754 0.49514 0.0
C421 C 0.23339 0.80966 0.63319 0.0
O422 O 0.22671 0.83363 0.50652 0.0
O423 O 0.24292 0.84466 0.56782 0.0
O424 O 0.24579 0.81203 0.61006 0.0
O425 O 0.22432 0.81278 0.6076 0.0
C426 C 0.22448 0.79502 0.48026 0.0
O427 O 0.26696 0.83592 0.54289 0.0
O428 O 0.25637 0.83111 0.4691 0.0
In429 In 0.07581 0.49707 0.3224 0.0
O430 O 0.07436 0.50136 0.40696 0.0
O431 O 0.09118 0.52088 0.36279 0.0
C432 C 0.04462 0.4784 0.30191 0.0
C433 C 0.09001 0.47999 0.3436 0.0
C434 C 0.08321 0.51512 0.23815 0.0
O435 O 0.04963 0.48834 0.33794 0.0
O436 O 0.05531 0.47768 0.27673 0.0
O437 O 0.0875 0.50489 0.24422 0.0
O438 O 0.07549 0.51636 0.27492 0.0
C439 C 0.0852 0.51571 0.40616 0.0
O440 O 0.09678 0.49261 0.31765 0.0
O441 O 0.07599 0.47575 0.35683 0.0
In442 In 0.49489 0.58099 0.31673 0.0
O443 O 0.49397 0.60359 0.33357 0.0
O444 O 0.51654 0.60568 0.32178 0.0
C445 C 0.47542 0.56841 0.2359 0.0
C446 C 0.48012 0.56953 0.40678 0.0
C447 C 0.51612 0.5718 0.2933 0.0
O448 O 0.48322 0.58321 0.24363 0.0
O449 O 0.47704 0.56012 0.26979 0.0
O450 O 0.50841 0.56798 0.33464 0.0
O451 O 0.51332 0.58045 0.26421 0.0
C452 C 0.50884 0.61254 0.33259 0.0
O453 O 0.49498 0.57606 0.4015 0.0
O454 O 0.47261 0.56858 0.36637 0.0
In455 In 0.40833 0.91137 0.32121 0.0
O456 O 0.38315 0.88994 0.31581 0.0
O457 O 0.38635 0.91098 0.35143 0.0
C458 C 0.42035 0.90487 0.23861 0.0
C459 C 0.41746 0.90259 0.40658 0.0
C460 C 0.42012 0.94244 0.30107 0.0
O461 O 0.40563 0.89979 0.24336 0.0
O462 O 0.4288 0.91284 0.27596 0.0
O463 O 0.42479 0.93761 0.33833 0.0
O464 O 0.40937 0.93161 0.27431 0.0
C465 C 0.37688 0.89678 0.33924 0.0
O466 O 0.41341 0.91304 0.40619 0.0
O467 O 0.41717 0.89661 0.36361 0.0
H468 H 0.21704 0.19011 0.38089 0.0
H469 H 0.1849 0.20823 0.12578 0.0
H470 H 0.21992 0.17063 0.23584 0.0
H471 H 0.20421 0.24188 0.24976 0.0
H472 H 0.19445 0.19201 0.16803 0.0
H473 H 0.2087 0.20692 0.33623 0.0
C474 C 0.21587 0.18936 0.33969 0.0
C475 C 0.21919 0.17904 0.3119 0.0
C476 C 0.19667 0.20301 0.18565 0.0
C477 C 0.20956 0.19801 0.2609 0.0
C478 C 0.19123 0.21224 0.16166 0.0
C479 C 0.19382 0.2264 0.18433 0.0
C480 C 0.2044 0.20786 0.23305 0.0
C481 C 0.20205 0.23107 0.23089 0.0
C482 C 0.21121 0.19898 0.31427 0.0
C483 C 0.21754 0.17851 0.25857 0.0
N484 N 0.2069 0.22173 0.25402 0.0
N485 N 0.21272 0.1878 0.23475 0.0
H486 H 0.81397 0.04286 0.21257 0.0
H487 H 0.76613 0.95249 0.29883 0.0
H488 H 0.81111 0.02867 0.37018 0.0
H489 H 0.78453 0.96687 0.14619 0.0
H490 H 0.78053 0.98033 0.32548 0.0
H491 H 0.80107 0.01499 0.18707 0.0
C492 C 0.8106 0.03385 0.24183 0.0
C493 C 0.81354 0.03802 0.29358 0.0
C494 C 0.78147 0.97737 0.28625 0.0
C495 C 0.79874 0.00617 0.26467 0.0
C496 C 0.77323 0.96153 0.27096 0.0
C497 C 0.77414 0.95743 0.22021 0.0
C498 C 0.79048 0.9892 0.25032 0.0
C499 C 0.78354 0.96955 0.18568 0.0
C500 C 0.80332 0.01797 0.22721 0.0
C501 C 0.80903 0.02591 0.32989 0.0
N502 N 0.79126 0.98494 0.20129 0.0
N503 N 0.80173 0.01047 0.31475 0.0
H504 H 0.96853 0.80451 0.29876 0.0
H505 H 0.0358 0.79171 0.16814 0.0
H506 H 0.9679 0.7598 0.29739 0.0
H507 H 0.03723 0.83681 0.17117 0.0
H508 H 0.01005 0.77949 0.21099 0.0
H509 H 0.99329 0.81647 0.24983 0.0
C510 C 0.97368 0.79725 0.2885 0.0
C511 C 0.96621 0.78117 0.30228 0.0
C512 C 0.01592 0.79204 0.20196 0.0
C513 C 0.99437 0.79468 0.24582 0.0
C514 C 0.03058 0.799 0.17723 0.0
C515 C 0.03867 0.8153 0.16631 0.0
C516 C 0.00934 0.80147 0.21609 0.0
C517 C 0.03139 0.82419 0.17895 0.0
C518 C 0.98776 0.80405 0.26033 0.0
C519 C 0.97331 0.77226 0.28772 0.0
N520 N 0.01717 0.81717 0.20355 0.0
N521 N 0.98699 0.77914 0.26022 0.0
H522 H 0.836 0.79298 0.82991 0.0
H523 H 0.75997 0.78599 0.6868 0.0
H524 H 0.7941 0.74862 0.79153 0.0
H525 H 0.80044 0.83084 0.73027 0.0
H526 H 0.77304 0.77228 0.72207 0.0
H527 H 0.82356 0.80729 0.79309 0.0
C528 C 0.82413 0.78626 0.81423 0.0
C529 C 0.81605 0.76961 0.81375 0.0
C530 C 0.77913 0.78513 0.72375 0.0
C531 C 0.80189 0.78582 0.77106 0.0
C532 C 0.7717 0.79296 0.70336 0.0
C533 C 0.77913 0.80956 0.70579 0.0
C534 C 0.7941 0.79394 0.74692 0.0
C535 C 0.79432 0.81801 0.72763 0.0
C536 C 0.81708 0.79442 0.79298 0.0
C537 C 0.80074 0.76147 0.79272 0.0
N538 N 0.80129 0.81009 0.74766 0.0
N539 N 0.79419 0.76966 0.77206 0.0
H540 H 0.23747 0.04427 0.78347 0.0
H541 H 0.15923 0.96705 0.68264 0.0
H542 H 0.1899 0.03107 0.83091 0.0
H543 H 0.20669 0.97565 0.65524 0.0
H544 H 0.17042 0.99225 0.72849 0.0
H545 H 0.22654 0.02049 0.72982 0.0
C546 C 0.22473 0.0363 0.78283 0.0
C547 C 0.21457 0.03957 0.81185 0.0
C548 C 0.1784 0.98869 0.71212 0.0
C549 C 0.20199 0.01253 0.75009 0.0
C550 C 0.17202 0.97436 0.68561 0.0
C551 C 0.18206 0.96923 0.66539 0.0
C552 C 0.19493 -0.00204 0.71841 0.0
C553 C 0.19854 0.97916 0.6704 0.0
C554 C 0.21851 0.02278 0.75206 0.0
C555 C 0.19816 0.02893 0.80937 0.0
N556 N 0.20447 0.99302 0.69674 0.0
N557 N 0.19238 0.01591 0.77892 0.0
H558 H 0.04033 0.19423 0.68898 0.0
H559 H 0.96641 0.20275 0.77992 0.0
H560 H 0.03364 0.23364 0.64992 0.0
H561 H 0.96774 0.15927 0.79715 0.0
H562 H 0.99189 0.21459 0.73589 0.0
H563 H 0.01413 0.1811 0.73001 0.0
C564 C 0.03326 0.2 0.6884 0.0
C565 C 0.03916 0.21506 0.66622 0.0
C566 C 0.98665 0.20246 0.74931 0.0
C567 C 0.00944 0.20031 0.71367 0.0
C568 C 0.97215 0.19573 0.7748 0.0
C569 C 0.96498 0.18002 0.79221 0.0
C570 C 0.9941 0.19344 0.74129 0.0
C571 C 0.97291 0.17145 0.78436 0.0
C572 C 0.01836 0.19256 0.71202 0.0
C573 C 0.02956 0.22206 0.66669 0.0
N574 N 0.98708 0.17828 0.75939 0.0
N575 N 0.01525 0.21468 0.69041 0.0
H576 H 0.86452 0.56312 0.45712 0.0
H577 H 0.87673 0.51886 0.69151 0.0
H578 H 0.84508 0.56232 0.60598 0.0
H579 H 0.91081 0.53898 0.56888 0.0
H580 H 0.86333 0.53274 0.65865 0.0
H581 H 0.88001 0.55206 0.49472 0.0
C582 C 0.86356 0.56064 0.49771 0.0
C583 C 0.85353 0.56359 0.52856 0.0
C584 C 0.87383 0.53422 0.63932 0.0
C585 C 0.87099 0.55085 0.57152 0.0
C586 C 0.88145 0.5263 0.65796 0.0
C587 C 0.89485 0.52778 0.63277 0.0
C588 C 0.87951 0.54338 0.59468 0.0
C589 C 0.90052 0.53755 0.58947 0.0
C590 C 0.87243 0.55442 0.51914 0.0
C591 C 0.85272 0.56023 0.58095 0.0
N592 N 0.8927 0.54484 0.57139 0.0
N593 N 0.86122 0.55388 0.60077 0.0
H594 H 0.41757 0.29277 0.51257 0.0
H595 H 0.49923 0.36528 0.61639 0.0
H596 H 0.46297 0.29545 0.4935 0.0
H597 H 0.45344 0.36186 0.63342 0.0
H598 H 0.48626 0.33926 0.57444 0.0
H599 H 0.43069 0.31803 0.55799 0.0
C600 C 0.43034 0.29876 0.5176 0.0
C601 C 0.43921 0.29205 0.49917 0.0
C602 C 0.47906 0.34417 0.5877 0.0
C603 C 0.45432 0.3209 0.5517 0.0
C604 C 0.48643 0.35895 0.61191 0.0
C605 C 0.47738 0.36572 0.62821 0.0
C606 C 0.46254 0.33616 0.57979 0.0
C607 C 0.46087 0.35709 0.62129 0.0
C608 C 0.43783 0.31315 0.54378 0.0
C609 C 0.45571 0.30027 0.50696 0.0
N610 N 0.454 0.3428 0.59737 0.0
N611 N 0.46275 0.31428 0.53278 0.0
H612 H 0.70087 0.12494 0.56179 0.0
H613 H 0.62504 0.13199 0.63969 0.0
H614 H 0.69538 0.165 0.52153 0.0
H615 H 0.62592 0.08806 0.64514 0.0
H616 H 0.6522 0.1454 0.60627 0.0
H617 H 0.67452 0.11217 0.60102 0.0
C618 C 0.69408 0.13102 0.56106 0.0
C619 C 0.70025 0.14601 0.53822 0.0
C620 C 0.64647 0.13285 0.61503 0.0
C621 C 0.67022 0.13157 0.58349 0.0
C622 C 0.63102 0.12522 0.63441 0.0
C623 C 0.62324 0.10889 0.64498 0.0
C624 C 0.65418 0.12409 0.60655 0.0
C625 C 0.6315 0.10066 0.6373 0.0
C626 C 0.67906 0.12374 0.5835 0.0
C627 C 0.691 0.15339 0.53849 0.0
N628 N 0.64652 0.10835 0.61843 0.0
N629 N 0.67644 0.14611 0.56095 0.0
H630 H 0.49604 0.13417 0.11951 0.0
H631 H 0.41269 0.12673 0.04552 0.0
H632 H 0.45078 0.0932 0.15646 0.0
H633 H 0.45768 0.16214 0.9826 0.0
H634 H 0.42639 0.11532 0.09245 0.0
H635 H 0.48213 0.14615 0.07735 0.0
C636 C 0.48317 0.1278 0.11938 0.0
C637 C 0.47454 0.11265 0.14129 0.0
C638 C 0.43325 0.12553 0.06817 0.0
C639 C 0.45857 0.12617 0.09264 0.0
C640 C 0.42543 0.132 0.04124 0.0
C641 C 0.43407 0.14535 0.01003 0.0
C642 C 0.44983 0.13256 0.06417 0.0
C643 C 0.45056 0.15179 0.00606 0.0
C644 C 0.47524 0.13458 0.09495 0.0
C645 C 0.45788 0.10489 0.13988 0.0
N646 N 0.45792 0.14538 0.03303 0.0
N647 N 0.45043 0.11171 0.11572 0.0
H648 H 0.87001 0.29496 0.0445 0.0
H649 H 0.85384 0.36555 0.11845 0.0
H650 H 0.82547 0.29319 0.01454 0.0
H651 H 0.89619 0.36426 0.15958 0.0
H652 H 0.84293 0.33906 0.0806 0.0
H653 H 0.8799 0.3208 0.08492 0.0
C654 C 0.86235 0.30009 0.04605 0.0
C655 C 0.84691 0.29195 0.02612 0.0
C656 C 0.85456 0.34454 0.09828 0.0
C657 C 0.85808 0.32147 0.07289 0.0
C658 C 0.86074 0.3596 0.12012 0.0
C659 C 0.87595 0.3671 0.14201 0.0
C660 C 0.86371 0.33701 0.09823 0.0
C661 C 0.88443 0.35892 0.14298 0.0
C662 C 0.86797 0.31481 0.06943 0.0
C663 C 0.83747 0.29911 0.02936 0.0
N664 N 0.87823 0.34437 0.12109 0.0
N665 N 0.84321 0.31348 0.05243 0.0
H666 H 0.62861 0.48982 0.12284 0.0
H667 H 0.71027 0.56894 0.05708 0.0
H668 H 0.63633 0.53704 0.14799 0.0
H669 H 0.69808 0.52247 0.00082 0.0
H670 H 0.68457 0.55723 0.10055 0.0
H671 H 0.65562 0.5014 0.08906 0.0
C672 C 0.63607 0.50262 0.12181 0.0
C673 C 0.63023 0.5125 0.13791 0.0
C674 C 0.68753 0.5496 0.07873 0.0
C675 C 0.66104 0.52581 0.0991 0.0
C676 C 0.70218 0.55627 0.05391 0.0
C677 C 0.70624 0.54666 0.02508 0.0
C678 C 0.67693 0.53319 0.07498 0.0
C679 C 0.69536 0.53031 0.02238 0.0
C680 C 0.65144 0.50922 0.10228 0.0
C681 C 0.64036 0.52901 0.13571 0.0
N682 N 0.6812 0.52409 0.04705 0.0
N683 N 0.65527 0.53515 0.11642 0.0
H684 H 0.52938 0.90774 0.88364 0.0
H685 H 0.52798 0.82767 0.96448 0.0
H686 H 0.48941 0.86107 0.85453 0.0
H687 H 0.56693 0.87484 0.99475 0.0
H688 H 0.51303 0.83937 0.92724 0.0
H689 H 0.543 0.8956 0.92573 0.0
C690 C 0.52351 0.8949 0.88584 0.0
C691 C 0.50827 0.88538 0.86547 0.0
C692 C 0.52479 0.84714 0.9424 0.0
C693 C 0.52375 0.87136 0.91409 0.0
C694 C 0.53329 0.84048 0.96389 0.0
C695 C 0.54872 0.85033 0.98246 0.0
C696 C 0.53184 0.86374 0.93952 0.0
C697 C 0.55508 0.86682 0.98066 0.0
C698 C 0.53127 0.88797 0.91012 0.0
C699 C 0.50119 0.86882 0.8696 0.0
N700 N 0.54665 0.873 0.95927 0.0
N701 N 0.509 0.86231 0.89352 0.0
H702 H 0.10258 0.63642 0.82286 0.0
H703 H 0.17135 0.69602 0.01149 0.0
H704 H 0.13846 0.62743 0.88513 0.0
H705 H 0.13748 0.70649 0.94097 0.0
H706 H 0.1599 0.67114 0.96361 0.0
H707 H 0.11595 0.6627 0.86245 0.0
C708 C 0.11339 0.64007 0.84436 0.0
C709 C 0.11939 0.62973 0.851 0.0
C710 C 0.15499 0.67888 0.9585 0.0
C711 C 0.13462 0.65965 0.89694 0.0
C712 C 0.16147 0.69305 0.986 0.0
C713 C 0.15529 0.70326 0.98033 0.0
C714 C 0.14219 0.67489 0.92524 0.0
C715 C 0.14255 0.6989 0.9466 0.0
C716 C 0.12098 0.65504 0.8671 0.0
C717 C 0.13342 0.63503 0.87917 0.0
N718 N 0.13639 0.68501 0.9204 0.0
N719 N 0.14049 0.64959 0.9015 0.0
H720 H 0.30196 0.45113 0.04741 0.0
H721 H 0.35869 0.4909 0.80733 0.0
H722 H 0.28349 0.45063 0.89711 0.0
H723 H 0.37091 0.47061 0.9339 0.0
H724 H 0.33212 0.48078 0.84447 0.0
H725 H 0.32879 0.46344 0.01127 0.0
C726 C 0.30359 0.45378 0.00694 0.0
C727 C 0.29055 0.44979 0.97505 0.0
C728 C 0.34066 0.47857 0.86392 0.0
C729 C 0.32104 0.46385 0.93374 0.0
C730 C 0.35576 0.48431 0.84284 0.0
C731 C 0.3669 0.48147 0.8675 0.0
C732 C 0.33689 0.47025 0.91039 0.0
C733 C 0.36259 0.47293 0.91349 0.0
C734 C 0.31885 0.4607 0.98635 0.0
C735 C 0.29327 0.45344 0.92286 0.0
N736 N 0.34794 0.4677 0.93365 0.0
N737 N 0.30825 0.46029 0.90374 0.0
H738 H 0.08045 0.45762 0.41837 0.0
H739 H 0.15423 0.4438 0.39529 0.0
H740 H 0.11852 0.4838 0.31116 0.0
H741 H 0.1283 0.43655 0.53588 0.0
H742 H 0.13897 0.45496 0.35676 0.0
H743 H 0.09539 0.44579 0.45414 0.0
C744 C 0.09188 0.46074 0.40197 0.0
C745 C 0.0983 0.47171 0.36181 0.0
C746 C 0.13667 0.45097 0.39606 0.0
C747 C 0.11539 0.45825 0.40255 0.0
C748 C 0.14532 0.44458 0.41803 0.0
C749 C 0.1425 0.4393 0.46884 0.0
C750 C 0.12493 0.45177 0.42485 0.0
C751 C 0.13087 0.44058 0.49667 0.0
C752 C 0.10043 0.45408 0.42267 0.0
C753 C 0.11319 0.4754 0.34219 0.0
N754 N 0.1224 0.44659 0.47415 0.0
N755 N 0.12124 0.46864 0.36272 0.0
H756 H 0.54047 0.63408 0.32996 0.0
H757 H 0.53207 0.70107 0.48141 0.0
H758 H 0.49523 0.62898 0.37237 0.0
H759 H 0.57679 0.70486 0.43924 0.0
H760 H 0.51811 0.675 0.43984 0.0
H761 H 0.55379 0.66077 0.36598 0.0
C762 C 0.53333 0.63866 0.34642 0.0
C763 C 0.51674 0.62932 0.34842 0.0
C764 C 0.53098 0.68155 0.43978 0.0
C765 C 0.5319 0.65978 0.39043 0.0
C766 C 0.53893 0.69637 0.46369 0.0
C767 C 0.55559 0.70508 0.46384 0.0
C768 C 0.53978 0.67547 0.41592 0.0
C769 C 0.56393 0.69852 0.44011 0.0
C770 C 0.54094 0.65388 0.36719 0.0
C771 C 0.50806 0.63583 0.3701 0.0
N772 N 0.55593 0.68413 0.4171 0.0
N773 N 0.51576 0.65065 0.39065 0.0
H774 H 0.35249 0.86795 0.3074 0.0
H775 H 0.29669 0.85964 0.53932 0.0
H776 H 0.36368 0.90656 0.41163 0.0
H777 H 0.27695 0.83542 0.39687 0.0
H778 H 0.32274 0.87455 0.49813 0.0
H779 H 0.32559 0.85346 0.34391 0.0
C780 C 0.34923 0.87341 0.33758 0.0
C781 C 0.36025 0.88844 0.35657 0.0
C782 C 0.31267 0.86598 0.47596 0.0
C783 C 0.32992 0.87191 0.39893 0.0
C784 C 0.29788 0.85744 0.49945 0.0
C785 C 0.28473 0.84636 0.47131 0.0
C786 C 0.31434 0.86316 0.42437 0.0
C787 C 0.28684 0.84395 0.41972 0.0
C788 C 0.33395 0.86517 0.3583 0.0
C789 C 0.35551 0.89501 0.39577 0.0
N790 N 0.30143 0.85221 0.39788 0.0
N791 N 0.34074 0.88661 0.41612 0.0
H792 H 0.11707 0.22621 0.73972 0.0
H793 H 0.1313 0.25363 0.03278 0.0
H794 H 0.09937 0.25448 0.81011 0.0
H795 H 0.15358 0.22975 0.96099 0.0
H796 H 0.11743 0.25165 0.9531 0.0
H797 H 0.12874 0.22527 0.8218 0.0
C798 C 0.11562 0.23218 0.77246 0.0
C799 C 0.10732 0.2405 0.76812 0.0
C800 C 0.12528 0.24676 0.95474 0.0
C801 C 0.12053 0.23942 0.8619 0.0
C802 C 0.13317 0.24784 0.00032 0.0
C803 C 0.14366 0.24192 0.0034 0.0
C804 C 0.1279 0.23971 0.91179 0.0
C805 C 0.14561 0.23451 0.96017 0.0
C806 C 0.12226 0.23164 0.81924 0.0
C807 C 0.10574 0.248 0.81169 0.0
N808 N 0.13786 0.23369 0.916 0.0
N809 N 0.1123 0.24729 0.85667 0.0
H810 H 0.77568 0.91124 0.01723 0.0
H811 H 0.74137 0.8311 0.85407 0.0
H812 H 0.74005 0.86506 0.07159 0.0
H813 H 0.77346 0.87743 0.79178 0.0
H814 H 0.74289 0.84327 0.93673 0.0
H815 H 0.7773 0.89898 0.93734 0.0
C816 C 0.76834 0.8985 0.01258 0.0
C817 C 0.75766 0.88914 0.05092 0.0
C818 C 0.74965 0.85081 0.90511 0.0
C819 C 0.75937 0.87509 0.95979 0.0
C820 C 0.74878 0.84386 0.85785 0.0
C821 C 0.75723 0.85329 0.81596 0.0
C822 C 0.75903 0.86735 0.91067 0.0
C823 C 0.7667 0.86975 0.82311 0.0
C824 C 0.76922 0.89153 0.96693 0.0
C825 C 0.7484 0.87272 0.04293 0.0
N826 N 0.7673 0.87628 0.8696 0.0
N827 N 0.74942 0.86624 -0.00181 0.0
H828 H 0.08206 0.85114 0.95187 0.0
H829 H 0.16209 0.91264 0.80806 0.0
H830 H 0.12708 0.88004 0.02711 0.0
H831 H 0.11641 0.88905 0.73321 0.0
H832 H 0.14914 0.90069 0.88874 0.0
H833 H 0.09399 0.86491 0.87145 0.0
C834 C 0.09441 0.86046 0.95152 0.0
C835 C 0.10363 0.86442 0.99609 0.0
C836 C 0.1419 0.89815 0.8548 0.0
C837 C 0.11734 0.88008 0.90453 0.0
C838 C 0.1493 0.90494 0.80866 0.0
C839 C 0.14031 0.90177 0.76391 0.0
C840 C 0.12536 0.88799 0.85626 0.0
C841 C 0.12378 0.89177 0.76691 0.0
C842 C 0.10121 0.86829 0.90567 0.0
C843 C 0.11955 0.87657 0.99362 0.0
N844 N 0.11682 0.88515 0.81234 0.0
N845 N 0.12591 0.88389 0.94858 0.0
H846 H 0.24068 0.13059 0.79301 0.0
H847 H 0.20103 0.11328 0.51824 0.0
H848 H 0.19939 0.08619 0.75108 0.0
H849 H 0.23833 0.15949 0.56626 0.0
H850 H 0.19791 0.10414 0.60668 0.0
H851 H 0.23777 0.14248 0.7144 0.0
C852 C 0.23084 0.12343 0.76768 0.0
C853 C 0.2204 0.10733 0.77816 0.0
C854 C 0.20662 0.11635 0.59805 0.0
C855 C 0.21711 0.12076 0.68789 0.0
C856 C 0.20839 0.12157 0.54755 0.0
C857 C 0.22009 0.13709 0.53487 0.0
C858 C 0.21676 0.12669 0.63598 0.0
C859 C 0.22925 0.14737 0.57434 0.0
C860 C 0.22918 0.13021 0.72276 0.0
C861 C 0.20781 0.09861 0.7442 0.0
N862 N 0.22756 0.14192 0.62301 0.0
N863 N 0.20666 0.10537 0.7002 0.0
H864 H 0.86232 0.08381 0.48954 0.0
H865 H 0.90184 0.16062 0.66951 0.0
H866 H 0.86925 0.12965 0.44558 0.0
H867 H 0.89563 0.11518 0.71498 0.0
H868 H 0.89098 0.14963 0.58569 0.0
H869 H 0.87578 0.09527 0.57054 0.0
C870 C 0.8668 0.09632 0.49677 0.0
C871 C 0.86462 0.10579 0.46098 0.0
C872 C 0.89202 0.14205 0.61388 0.0
C873 C 0.87988 0.11893 0.55346 0.0
C874 C 0.89819 0.14832 0.66179 0.0
C875 C 0.89956 0.13876 0.69925 0.0
C876 C 0.88712 0.12608 0.60333 0.0
C877 C 0.89472 0.12292 0.68716 0.0
C878 C 0.87444 0.10284 0.54302 0.0
C879 C 0.87064 0.12191 0.47221 0.0
N880 N 0.88866 0.11705 0.64022 0.0
N881 N 0.87792 0.12794 0.51757 0.0
H882 H 0.85041 0.75845 0.66934 0.0
H883 H 0.92955 0.77254 0.54343 0.0
H884 H 0.89096 0.76742 0.76101 0.0
H885 H 0.89563 0.78117 0.46425 0.0
H886 H 0.917 0.77251 0.62452 0.0
H887 H 0.86748 0.76779 0.59413 0.0
C888 C 0.86295 0.76245 0.67357 0.0
C889 C 0.86929 0.762 0.72113 0.0
C890 C 0.91255 0.77477 0.58948 0.0
C891 C 0.88889 0.77264 0.63535 0.0
C892 C 0.91973 0.77483 0.54323 0.0
C893 C 0.91341 0.77656 0.49708 0.0
C894 C 0.89886 0.7762 0.58919 0.0
C895 C 0.90073 0.77956 0.49893 0.0
C896 C 0.87272 0.7679 0.63075 0.0
C897 C 0.88564 0.7675 0.72478 0.0
N898 N 0.89366 0.77896 0.54418 0.0
N899 N 0.89487 0.77237 0.68218 0.0
H900 H 0.87484 0.73911 0.96199 0.0
H901 H 0.89086 0.77353 0.24649 0.0
H902 H 0.85303 0.76486 0.0233 0.0
H903 H 0.90456 0.74036 0.19005 0.0
H904 H 0.87847 0.77231 0.16374 0.0
H905 H 0.8876 0.74145 0.04402 0.0
C906 C 0.87278 0.74532 0.99276 0.0
C907 C 0.86284 0.75178 0.98597 0.0
C908 C 0.88418 0.7653 0.16959 0.0
C909 C 0.8774 0.75448 0.08015 0.0
C910 C 0.89126 0.766 0.21668 0.0
C911 C 0.89872 0.75702 0.22499 0.0
C912 C 0.88471 0.75563 0.13067 0.0
C913 C 0.89891 0.74746 0.18525 0.0
C914 C 0.88004 0.74661 0.03966 0.0
C915 C 0.86059 0.75969 0.0271 0.0
N916 N 0.89203 0.74705 0.1398 0.0
N917 N 0.86783 0.76083 0.07261 0.0
H918 H 0.22628 0.07084 0.06589 0.0
H919 H 0.198 0.11662 0.25389 0.0
H920 H 0.20485 0.09805 0.01487 0.0
H921 H 0.23658 0.10815 0.28822 0.0
H922 H 0.19347 0.10201 0.17368 0.0
H923 H 0.22314 0.07691 0.15454 0.0
C924 C 0.22061 0.07781 0.0734 0.0
C925 C 0.21598 0.08413 0.03312 0.0
C926 C 0.20272 0.10311 0.1993 0.0
C927 C 0.21229 0.09098 0.134 0.0
C928 C 0.20526 0.11135 0.24516 0.0
C929 C 0.21782 0.11375 0.27732 0.0
C930 C 0.21269 0.0971 0.18596 0.0
C931 C 0.22688 0.1067 0.26415 0.0
C932 C 0.21889 0.0813 0.12389 0.0
C933 C 0.20873 0.0931 0.04489 0.0
N934 N 0.22423 0.09879 0.21917 0.0
N935 N 0.20719 0.09635 0.09433 0.0
H936 H 0.88845 0.11214 0.24488 0.0
H937 H 0.88638 0.1105 0.94037 0.0
H938 H 0.84573 0.09357 0.15443 0.0
H939 H 0.92496 0.14892 0.02255 0.0
H940 H 0.87399 0.09829 0.0216 0.0
H941 H 0.90427 0.12055 0.16556 0.0
C942 C 0.88244 0.10976 0.20837 0.0
C943 C 0.86582 0.10234 0.20591 0.0
C944 C 0.8853 0.10927 0.02178 0.0
C945 C 0.88363 0.1114 0.11612 0.0
C946 C 0.89243 0.1162 0.97551 0.0
C947 C 0.90658 0.13088 0.97481 0.0
C948 C 0.89243 0.11699 0.06765 0.0
C949 C 0.91394 0.13768 0.02153 0.0
C950 C 0.89143 0.11453 0.16342 0.0
C951 C 0.85853 0.09945 0.15791 0.0
N952 N 0.90668 0.13075 0.06631 0.0
N953 N 0.86748 0.10393 0.1149 0.0
H954 H 0.72877 0.87872 0.32665 0.0
H955 H 0.77993 0.85768 0.5133 0.0
H956 H 0.7782 0.89526 0.2948 0.0
H957 H 0.74033 0.86277 0.5628 0.0
H958 H 0.77891 0.86864 0.42958 0.0
H959 H 0.73172 0.86902 0.40937 0.0
C960 C 0.74023 0.88019 0.33691 0.0
C961 C 0.75328 0.88784 0.30393 0.0
C962 C 0.77058 0.86748 0.4591 0.0
C963 C 0.75674 0.87679 0.39874 0.0
C964 C 0.77117 0.86127 0.50676 0.0
C965 C 0.76018 0.8593 0.54493 0.0
C966 C 0.75874 0.87141 0.44958 0.0
C967 C 0.74904 0.86409 0.53452 0.0
C968 C 0.74193 0.87476 0.38431 0.0
C969 C 0.76786 0.88945 0.31928 0.0
N970 N 0.74849 0.86974 0.48768 0.0
N971 N 0.76921 0.88392 0.36571 0.0
H972 H 0.09048 0.84126 0.31475 0.0
H973 H 0.14431 0.92421 0.45507 0.0
H974 H 0.11099 0.88633 0.23656 0.0
H975 H 0.12063 0.87885 0.53177 0.0
H976 H 0.13055 0.91109 0.37589 0.0
H977 H 0.09987 0.85525 0.39567 0.0
C978 C 0.09692 0.85413 0.31469 0.0
C979 C 0.10009 0.86266 0.26892 0.0
C980 C 0.12824 0.90405 0.41021 0.0
C981 C 0.11098 0.87881 0.3615 0.0
C982 C 0.13605 0.91154 0.4554 0.0
C983 C 0.1337 0.90257 0.49985 0.0
C984 C 0.11809 0.8875 0.40964 0.0
C985 C 0.12288 0.8862 0.49826 0.0
C986 C 0.10226 0.86213 0.36094 0.0
C987 C 0.10837 0.87932 0.27106 0.0
N988 N 0.1156 0.87919 0.4538 0.0
N989 N 0.11367 0.88687 0.31663 0.0
H990 H 0.0885 0.21716 0.47003 0.0
H991 H 0.1593 0.27107 0.28115 0.0
H992 H 0.13104 0.25981 0.5166 0.0
H993 H 0.12913 0.22089 0.25318 0.0
H994 H 0.14633 0.26791 0.36346 0.0
H995 H 0.10095 0.21871 0.38676 0.0
C996 C 0.10049 0.22674 0.46292 0.0
C997 C 0.10876 0.23839 0.50018 0.0
C998 C 0.14252 0.25758 0.33933 0.0
C999 C 0.12281 0.24039 0.40529 0.0
C1000 C 0.14984 0.25939 0.29217 0.0
C1001 C 0.14529 0.24621 0.26038 0.0
C1002 C 0.13041 0.24251 0.3547 0.0
C1003 C 0.13299 0.23134 0.27671 0.0
C1004 C 0.10754 0.22761 0.41552 0.0
C1005 C 0.12423 0.25057 0.48905 0.0
N1006 N 0.12591 0.22988 0.32284 0.0
N1007 N 0.13068 0.25133 0.44248 0.0
H1008 H 0.83209 0.5887 0.28472 0.0
H1009 H 0.75943 0.53827 0.09483 0.0
H1010 H 0.78837 0.54735 0.33141 0.0
H1011 H 0.79691 0.58621 0.06513 0.0
H1012 H 0.77264 0.53849 0.17483 0.0
H1013 H 0.822 0.58487 0.19732 0.0
C1014 C 0.82044 0.57869 0.27643 0.0
C1015 C 0.81096 0.56841 0.31538 0.0
C1016 C 0.77805 0.54888 0.15046 0.0
C1017 C 0.79936 0.56399 0.21561 0.0
C1018 C 0.77056 0.54874 0.10477 0.0
C1019 C 0.77703 0.56231 0.0737 0.0
C1020 C 0.79214 0.56264 0.16477 0.0
C1021 C 0.79146 0.57556 0.08828 0.0
C1022 C 0.81468 0.57654 0.22659 0.0
C1023 C 0.79599 0.55562 0.30252 0.0
N1024 N 0.79849 0.57543 0.13294 0.0
N1025 N 0.7906 0.55382 0.2537 0.0
H1026 H 0.44576 0.20192 0.09556 0.0
H1027 H 0.41635 0.25116 0.26211 0.0
H1028 H 0.40803 0.2106 0.05054 0.0
H1029 H 0.445 0.23232 0.32164 0.0
H1030 H 0.41848 0.24216 0.17687 0.0
H1031 H 0.45056 0.2186 0.17089 0.0
C1032 C 0.43862 0.20751 0.10121 0.0
C1033 C 0.42632 0.20472 0.06726 0.0
C1034 C 0.42448 0.2402 0.20847 0.0
C1035 C 0.43176 0.22378 0.15308 0.0
C1036 C 0.42333 0.24538 0.25708 0.0
C1037 C 0.43031 0.24224 0.29904 0.0
C1038 C 0.43269 0.23185 0.20188 0.0
C1039 C 0.43929 0.23481 0.29035 0.0
C1040 C 0.44136 0.217 0.14421 0.0
C1041 C 0.4175 0.2123 0.07615 0.0
N1042 N 0.44007 0.22969 0.24274 0.0
N1043 N 0.42031 0.2214 0.11849 0.0
H1044 H 0.82316 0.24057 0.16594 0.0
H1045 H 0.74165 0.18172 0.30625 0.0
H1046 H 0.7792 0.21236 0.08432 0.0
H1047 H 0.78486 0.21467 0.38431 0.0
H1048 H 0.75439 0.19362 0.2246 0.0
H1049 H 0.80877 0.23167 0.24633 0.0
C1050 C 0.81046 0.23246 0.16498 0.0
C1051 C 0.80237 0.2271 0.11847 0.0
C1052 C 0.76099 0.19837 0.25967 0.0
C1053 C 0.78575 0.21685 0.21052 0.0
C1054 C 0.75371 0.19163 0.30625 0.0
C1055 C 0.76227 0.19714 0.35199 0.0
C1056 C 0.77694 0.21061 0.25905 0.0
C1057 C 0.77786 0.20998 0.3499 0.0
C1058 C 0.80222 0.22743 0.21093 0.0
C1059 C 0.78588 0.2167 0.11945 0.0
N1060 N 0.78474 0.21616 0.30419 0.0
N1061 N 0.7781 0.21183 0.16485 0.0
H1062 H 0.89308 0.48529 0.84272 0.0
H1063 H 0.90888 0.42315 0.99182 0.0
H1064 H 0.90729 0.45466 0.76879 0.0
H1065 H 0.88379 0.44476 0.0596 0.0
H1066 H 0.90843 0.43479 0.90973 0.0
H1067 H 0.88936 0.47069 0.92257 0.0
C1068 C 0.89526 0.4754 0.84319 0.0
C1069 C 0.9006 0.47123 0.79925 0.0
C1070 C 0.90291 0.43691 0.94242 0.0
C1071 C 0.89654 0.45463 0.89026 0.0
C1072 C 0.90322 0.43031 0.98932 0.0
C1073 C 0.89644 0.43308 0.03252 0.0
C1074 C 0.89594 0.44652 0.93878 0.0
C1075 C 0.88918 0.44237 0.02714 0.0
C1076 C 0.89313 0.46707 0.88871 0.0
C1077 C 0.90322 0.4583 0.80185 0.0
N1078 N 0.88925 0.4489 0.98114 0.0
N1079 N 0.90131 0.45057 0.84672 0.0
H1080 H 0.55459 0.44644 0.0585 0.0
H1081 H 0.53856 0.45789 0.76586 0.0
H1082 H 0.57071 0.49198 0.98695 0.0
H1083 H 0.51923 0.41196 0.83784 0.0
H1084 H 0.55236 0.47041 0.84498 0.0
H1085 H 0.54328 0.43343 0.97674 0.0
C1086 C 0.55579 0.45369 0.02554 0.0
C1087 C 0.56352 0.4703 0.02949 0.0
C1088 C 0.54518 0.45759 0.84351 0.0
C1089 C 0.55068 0.45554 0.93601 0.0
C1090 C 0.53732 0.45042 0.79826 0.0
C1091 C 0.52767 0.43387 0.7954 0.0
C1092 C 0.54336 0.44814 0.88639 0.0
C1093 C 0.52653 0.42478 0.83851 0.0
C1094 C 0.54934 0.44627 0.97892 0.0
C1095 C 0.56478 0.47914 0.98564 0.0
N1096 N 0.53421 0.43205 0.8824 0.0
N1097 N 0.55839 0.47165 0.9408 0.0
H1098 H 0.53683 0.09153 0.77237 0.0
H1099 H 0.54522 0.1048 0.07442 0.0
H1100 H 0.57849 0.09939 0.85566 0.0
H1101 H 0.50047 0.08284 0.99395 0.0
H1102 H 0.55892 0.10728 0.99336 0.0
H1103 H 0.52481 0.09312 0.85226 0.0
C1104 C 0.54352 0.09376 0.80746 0.0
C1105 C 0.55862 0.0952 0.80755 0.0
C1106 C 0.54611 0.10197 0.99355 0.0
C1107 C 0.5449 0.09696 0.89909 0.0
C1108 C 0.5383 0.10058 0.03965 0.0
C1109 C 0.5217 0.09352 0.04075 0.0
C1110 C 0.53723 0.09643 0.94836 0.0
C1111 C 0.51328 0.08826 0.99476 0.0
C1112 C 0.53662 0.09459 0.85306 0.0
C1113 C 0.56677 0.09813 0.85407 0.0
N1114 N 0.52115 0.08983 0.95039 0.0
N1115 N 0.55976 0.09884 0.89817 0.0
H1116 H 0.54048 0.0873 0.26853 0.0
H1117 H 0.55446 0.11066 0.56427 0.0
H1118 H 0.51856 0.11064 0.34602 0.0
H1119 H 0.5682 0.07968 0.49029 0.0
H1120 H 0.54501 0.11473 0.48198 0.0
H1121 H 0.55478 0.08875 0.34661 0.0
C1122 C 0.53881 0.09289 0.30191 0.0
C1123 C 0.52818 0.09869 0.30108 0.0
C1124 C 0.5502 0.10714 0.48377 0.0
C1125 C 0.54441 0.10025 0.39075 0.0
C1126 C 0.55559 0.10482 0.53062 0.0
C1127 C 0.56196 0.09469 0.53403 0.0
C1128 C 0.55129 0.09934 0.44015 0.0
C1129 C 0.56323 0.08746 0.48938 0.0
C1130 C 0.54695 0.09367 0.34651 0.0
C1131 C 0.52657 0.10593 0.34524 0.0
N1132 N 0.55788 0.08988 0.44432 0.0
N1133 N 0.5345 0.10638 0.38858 0.0
H1134 H 0.90136 0.45962 0.26332 0.0
H1135 H 0.88203 0.45261 0.56221 0.0
H1136 H 0.87683 0.41453 0.34141 0.0
H1137 H 0.91809 0.49491 0.48734 0.0
H1138 H 0.8753 0.43881 0.47945 0.0
H1139 H 0.9022 0.47301 0.34289 0.0
C1140 C 0.89592 0.45251 0.29709 0.0
C1141 C 0.88921 0.43596 0.29599 0.0
C1142 C 0.8846 0.45113 0.48128 0.0
C1143 C 0.89029 0.45124 0.38736 0.0
C1144 C 0.88844 0.459 0.52833 0.0
C1145 C 0.90074 0.47485 0.53152 0.0
C1146 C 0.89299 0.45931 0.43731 0.0
C1147 C 0.90865 0.48263 0.48662 0.0
C1148 C 0.89648 0.46018 0.34256 0.0
C1149 C 0.88222 0.42733 0.34078 0.0
N1150 N 0.90464 0.47478 0.44142 0.0
N1151 N 0.8831 0.4351 0.38497 0.0
H1152 H 0.54629 0.43771 0.5579 0.0
H1153 H 0.53657 0.45439 0.26442 0.0
H1154 H 0.50162 0.42608 0.48733 0.0
H1155 H 0.58215 0.47187 0.33733 0.0
H1156 H 0.52353 0.44122 0.34381 0.0
H1157 H 0.55962 0.44792 0.47573 0.0
C1158 C 0.5393 0.43728 0.52509 0.0
C1159 C 0.52286 0.43114 0.5294 0.0
C1160 C 0.53639 0.44785 0.34246 0.0
C1161 C 0.53796 0.44268 0.43551 0.0
C1162 C 0.54384 0.45532 0.29706 0.0
C1163 C 0.56046 0.46431 0.29444 0.0
C1164 C 0.54561 0.44938 0.38568 0.0
C1165 C 0.5693 0.46509 0.33783 0.0
C1166 C 0.5469 0.4431 0.47826 0.0
C1167 C 0.51434 0.43081 0.48574 0.0
N1168 N 0.56175 0.4578 0.38186 0.0
N1169 N 0.52199 0.43651 0.44067 0.0
H1170 H 0.42662 0.2082 0.54134 0.0
H1171 H 0.43222 0.2171 0.84546 0.0
H1172 H 0.42263 0.24409 0.62637 0.0
H1173 H 0.42359 0.17422 0.76866 0.0
H1174 H 0.43448 0.22955 0.76281 0.0
H1175 H 0.43059 0.19772 0.62211 0.0
C1176 C 0.42669 0.21392 0.57694 0.0
C1177 C 0.42413 0.2269 0.57743 0.0
C1178 C 0.43222 0.21746 0.76393 0.0
C1179 C 0.42883 0.2152 0.66915 0.0
C1180 C 0.43099 0.21036 0.81111 0.0
C1181 C 0.42749 0.19454 0.81381 0.0
C1182 C 0.42989 0.20866 0.71904 0.0
C1183 C 0.42617 0.18642 0.76813 0.0
C1184 C 0.42894 0.20795 0.62285 0.0
C1185 C 0.42438 0.23394 0.62437 0.0
N1186 N 0.4272 0.19352 0.72242 0.0
N1187 N 0.42665 0.22798 0.66829 0.0
H1188 H 0.75014 0.20116 0.63361 0.0
H1189 H 0.83004 0.24386 0.79846 0.0
H1190 H 0.7931 0.20107 0.59233 0.0
H1191 H 0.78359 0.2286 0.86181 0.0
H1192 H 0.81777 0.23375 0.71501 0.0
H1193 H 0.76348 0.21657 0.71016 0.0
C1194 C 0.76242 0.20451 0.64044 0.0
C1195 C 0.77051 0.19973 0.60697 0.0
C1196 C 0.8103 0.23278 0.7471 0.0
C1197 C 0.7858 0.2174 0.69391 0.0
C1198 C 0.81728 0.23861 0.79461 0.0
C1199 C 0.80777 0.23692 0.8371 0.0
C1200 C 0.79373 0.22535 0.74205 0.0
C1201 C 0.79132 0.23002 0.83005 0.0
C1202 C 0.77 0.21326 0.6841 0.0
C1203 C 0.78641 0.20441 0.61748 0.0
N1204 N 0.78479 0.2244 0.7834 0.0
N1205 N 0.79354 0.21297 0.66014 0.0
H1206 H 0.76357 0.53675 0.82832 0.0
H1207 H 0.78705 0.53846 0.5784 0.0
H1208 H 0.73986 0.56148 0.77425 0.0
H1209 H 0.7841 0.5813 0.57399 0.0
H1210 H 0.77014 0.52997 0.65443 0.0
H1211 H 0.77182 0.53582 0.74098 0.0
C1212 C 0.75972 0.54158 0.7978 0.0
C1213 C 0.75115 0.54932 0.80851 0.0
C1214 C 0.77316 0.54119 0.63672 0.0
C1215 C 0.76053 0.54833 0.70847 0.0
C1216 C 0.78267 0.54598 0.59306 0.0
C1217 C 0.78722 0.56075 0.57057 0.0
C1218 C 0.76819 0.55128 0.65783 0.0
C1219 C 0.78108 0.56994 0.59071 0.0
C1220 C 0.76435 0.54096 0.7478 0.0
C1221 C 0.74652 0.55544 0.76763 0.0
N1222 N 0.77197 0.56511 0.63351 0.0
N1223 N 0.7516 0.55515 0.71953 0.0
H1224 H 0.41033 0.90652 0.50358 0.0
H1225 H 0.47347 0.88992 0.63405 0.0
H1226 H 0.43529 0.88806 0.41686 0.0
H1227 H 0.43529 0.89034 0.71696 0.0
H1228 H 0.4597 0.8883 0.55381 0.0
H1229 H 0.4195 0.90036 0.58231 0.0
C1230 C 0.41771 0.90109 0.50123 0.0
C1231 C 0.4222 0.89791 0.45387 0.0
C1232 C 0.45422 0.88844 0.58968 0.0
C1233 C 0.43286 0.89094 0.54372 0.0
C1234 C 0.46205 0.88935 0.63541 0.0
C1235 C 0.45561 0.89052 0.68206 0.0
C1236 C 0.44001 0.88891 0.59093 0.0
C1237 C 0.44078 0.88968 0.68178 0.0
C1238 C 0.42286 0.89748 0.54615 0.0
C1239 C 0.43164 0.89073 0.45282 0.0
N1240 N 0.43361 0.88919 0.63687 0.0
N1241 N 0.43689 0.88769 0.49723 0.0
H1242 H 0.10539 0.58749 0.63134 0.0
H1243 H 0.08115 0.50532 0.50413 0.0
H1244 H 0.10546 0.54903 0.71356 0.0
H1245 H 0.10152 0.54818 0.41384 0.0
H1246 H 0.08935 0.52141 0.5816 0.0
H1247 H 0.10415 0.57402 0.5508 0.0
C1248 C 0.10548 0.5764 0.63239 0.0
C1249 C 0.10532 0.56925 0.67912 0.0
C1250 C 0.09217 0.52733 0.54487 0.0
C1251 C 0.10359 0.55373 0.5877 0.0
C1252 C 0.08738 0.51815 0.5007 0.0
C1253 C 0.09058 0.52547 0.45271 0.0
C1254 C 0.09992 0.54395 0.54108 0.0
C1255 C 0.09882 0.54212 0.45029 0.0
C1256 C 0.10475 0.56872 0.5865 0.0
C1257 C 0.10545 0.55489 0.6784 0.0
N1258 N 0.10303 0.55085 0.49402 0.0
N1259 N 0.10429 0.54746 0.63344 0.0
H1260 H 0.41195 0.52091 0.64798 0.0
H1261 H 0.49412 0.57186 0.49903 0.0
H1262 H 0.45806 0.54081 0.71912 0.0
H1263 H 0.44824 0.55382 0.42769 0.0
H1264 H 0.48098 0.56163 0.58095 0.0
H1265 H 0.42483 0.53417 0.56813 0.0
C1266 C 0.42477 0.52821 0.64692 0.0
C1267 C 0.43397 0.5297 0.69008 0.0
C1268 C 0.47376 0.55994 0.54747 0.0
C1269 C 0.44878 0.54476 0.5989 0.0
C1270 C 0.48126 0.56575 0.50065 0.0
C1271 C 0.47224 0.56359 0.45651 0.0
C1272 C 0.4571 0.55184 0.55019 0.0
C1273 C 0.45563 0.55567 0.46083 0.0
C1274 C 0.43212 0.53574 0.60132 0.0
C1275 C 0.45053 0.5393 0.68667 0.0
N1276 N 0.44858 0.55001 0.50686 0.0
N1277 N 0.4574 0.54637 0.64176 0.0
H1278 H 0.5518 0.8052 0.17559 0.0
H1279 H 0.6024 0.78377 0.36511 0.0
H1280 H 0.5943 0.80462 0.13136 0.0
H1281 H 0.55257 0.76673 0.39098 0.0
H1282 H 0.60052 0.79469 0.28331 0.0
H1283 H 0.55243 0.79358 0.25836 0.0
C1284 C 0.56117 0.80251 0.18316 0.0
C1285 C 0.57302 0.80586 0.14669 0.0
C1286 C 0.58999 0.78856 0.30684 0.0
C1287 C 0.57396 0.79293 0.24096 0.0
C1288 C 0.59107 0.78241 0.35367 0.0
C1289 C 0.5776 0.7743 0.3847 0.0
C1290 C 0.57537 0.78675 0.29109 0.0
C1291 C 0.56322 0.77287 0.36799 0.0
C1292 C 0.56152 0.79591 0.23026 0.0
C1293 C 0.58491 0.8022 0.15833 0.0
N1294 N 0.56247 0.77908 0.3222 0.0
N1295 N 0.58515 0.79607 0.20459 0.0
H1296 H 0.23901 0.78162 0.42743 0.0
H1297 H 0.16669 0.73701 0.23292 0.0
H1298 H 0.19403 0.77998 0.44412 0.0
H1299 H 0.21594 0.75828 0.18881 0.0
H1300 H 0.17498 0.74444 0.32169 0.0
H1301 H 0.2287 0.76474 0.35154 0.0
C1302 C 0.22684 0.77738 0.41588 0.0
C1303 C 0.2174 0.78235 0.44153 0.0
C1304 C 0.18393 0.74718 0.29265 0.0
C1305 C 0.20561 0.76308 0.3553 0.0
C1306 C 0.17923 0.7429 0.24209 0.0
C1307 C 0.19069 0.74726 0.20348 0.0
C1308 C 0.20017 0.75568 0.30461 0.0
C1309 C 0.20676 0.75487 0.21743 0.0
C1310 C 0.22102 0.76783 0.37252 0.0
C1311 C 0.20173 0.77654 0.42498 0.0
N1312 N 0.21105 0.75898 0.26692 0.0
N1313 N 0.19635 0.7673 0.38255 0.0
H1314 H 0.22028 0.40192 0.19146 0.0
H1315 H 0.20852 0.45138 0.41112 0.0
H1316 H 0.24084 0.45277 0.18131 0.0
H1317 H 0.19849 0.40306 0.42777 0.0
H1318 H 0.22185 0.45315 0.32972 0.0
H1319 H 0.21297 0.40279 0.27953 0.0
C1320 C 0.22323 0.41331 0.20783 0.0
C1321 C 0.23104 0.42728 0.1789 0.0
C1322 C 0.21697 0.44228 0.3517 0.0
C1323 C 0.22268 0.4284 0.28031 0.0
C1324 C 0.20945 0.44128 0.39824 0.0
C1325 C 0.20223 0.42698 0.42586 0.0
C1326 C 0.21715 0.42884 0.33279 0.0
C1327 C 0.20373 0.41426 0.40745 0.0
C1328 C 0.21915 0.41382 0.25837 0.0
C1329 C 0.23474 0.44172 0.20233 0.0
N1330 N 0.21083 0.41542 0.36181 0.0
N1331 N 0.23037 0.4419 0.25169 0.0
H1332 H 0.19653 0.40333 0.92947 0.0
H1333 H 0.19724 0.45158 0.68065 0.0
H1334 H 0.23151 0.45275 0.90795 0.0
H1335 H 0.17509 0.40057 0.69103 0.0
H1336 H 0.20614 0.45358 0.76997 0.0
H1337 H 0.18402 0.40375 0.84929 0.0
C1338 C 0.20142 0.41436 0.90827 0.0
C1339 C 0.2152 0.42797 0.92499 0.0
C1340 C 0.19926 0.44199 0.75252 0.0
C1341 C 0.20109 0.42847 0.83264 0.0
C1342 C 0.19422 0.44085 0.70173 0.0
C1343 C 0.18559 0.4259 0.67837 0.0
C1344 C 0.19534 0.42807 0.77997 0.0
C1345 C 0.1819 0.41235 0.7073 0.0
C1346 C 0.19433 0.41457 0.86232 0.0
C1347 C 0.22095 0.44197 0.89616 0.0
N1348 N 0.18676 0.41376 0.75645 0.0
N1349 N 0.21398 0.44183 0.85089 0.0
H1350 H 0.56132 0.7843 0.91076 0.0
H1351 H 0.58129 0.79472 0.6118 0.0
H1352 H 0.58487 0.82944 0.83271 0.0
H1353 H 0.56095 0.74955 0.68929 0.0
H1354 H 0.58025 0.80717 0.69142 0.0
H1355 H 0.55898 0.77091 0.82923 0.0
C1356 C 0.56596 0.79138 0.87644 0.0
C1357 C 0.57338 0.80799 0.87843 0.0
C1358 C 0.57591 0.79451 0.69106 0.0
C1359 C 0.57069 0.79281 0.7853 0.0
C1360 C 0.57646 0.78739 0.64553 0.0
C1361 C 0.57128 0.7711 0.64407 0.0
C1362 C 0.57019 0.7853 0.73558 0.0
C1363 C 0.5651 0.76216 0.68886 0.0
C1364 C 0.56461 0.78374 0.82998 0.0
C1365 C 0.57914 0.81661 0.83292 0.0
N1366 N 0.56483 0.7694 0.73297 0.0
N1367 N 0.5777 0.80892 0.78827 0.0
H1368 H 0.21751 0.7607 0.92209 0.0
H1369 H 0.21234 0.81179 0.69563 0.0
H1370 H 0.19763 0.7915 0.93724 0.0
H1371 H 0.2467 0.796 0.69275 0.0
H1372 H 0.20637 0.80334 0.78414 0.0
H1373 H 0.22863 0.77294 0.83888 0.0
C1374 C 0.21575 0.77023 0.90838 0.0
C1375 C 0.20647 0.77497 0.93618 0.0
C1376 C 0.21529 0.80178 0.76442 0.0
C1377 C 0.21887 0.78874 0.84136 0.0
C1378 C 0.21862 0.80649 0.71371 0.0
C1379 C 0.22996 0.80448 0.68683 0.0
C1380 C 0.22316 0.79474 0.78846 0.0
C1381 C 0.23784 0.7977 0.71228 0.0
C1382 C 0.22206 0.77716 0.86095 0.0
C1383 C 0.20454 0.78734 0.91679 0.0
N1384 N 0.23417 0.79289 0.76174 0.0
N1385 N 0.2105 0.79364 0.87033 0.0
H1386 H 0.07539 0.56923 0.99094 0.0
H1387 H 0.09969 0.51498 0.15346 0.0
H1388 H 0.10723 0.5538 0.93472 0.0
H1389 H 0.07327 0.53607 0.21474 0.0
H1390 H 0.10282 0.52915 0.07308 0.0
H1391 H 0.07452 0.55707 0.07334 0.0
C1392 C 0.08222 0.5633 0.99602 0.0
C1393 C 0.09135 0.56246 0.956 0.0
C1394 C 0.09643 0.53074 0.10425 0.0
C1395 C 0.09039 0.54848 0.05009 0.0
C1396 C 0.09465 0.52267 0.15008 0.0
C1397 C 0.08617 0.52433 0.19067 0.0
C1398 C 0.08958 0.54044 0.09899 0.0
C1399 C 0.07987 0.53444 0.18435 0.0
C1400 C 0.08175 0.55638 0.04309 0.0
C1401 C 0.10002 0.55468 0.96464 0.0
N1402 N 0.08163 0.54203 0.13928 0.0
N1403 N 0.09927 0.54791 0.01073 0.0
H1404 H 0.44466 0.51095 0.96862 0.0
H1405 H 0.46857 0.58301 0.158 0.0
H1406 H 0.42896 0.54473 0.9409 0.0
H1407 H 0.46263 0.53778 0.20496 0.0
H1408 H 0.45666 0.57126 0.07493 0.0
H1409 H 0.45485 0.52315 0.05155 0.0
C1410 C 0.44346 0.52103 0.97986 0.0
C1411 C 0.43594 0.52684 0.94794 0.0
C1412 C 0.45785 0.56393 0.10378 0.0
C1413 C 0.44756 0.54083 0.04296 0.0
C1414 C 0.4646 0.57059 0.15105 0.0
C1415 C 0.46662 0.56135 0.18824 0.0
C1416 C 0.45342 0.54806 0.09367 0.0
C1417 C 0.46132 0.54534 0.17739 0.0
C1418 C 0.44917 0.5279 0.02737 0.0
C1419 C 0.43468 0.5399 0.96454 0.0
N1420 N 0.45514 0.53927 0.1309 0.0
N1421 N 0.4405 0.54654 0.01103 0.0
H1422 H 0.43845 0.88368 0.93236 0.0
H1423 H 0.45177 0.91718 0.21764 0.0
H1424 H 0.48246 0.92298 0.98747 0.0
H1425 H 0.40512 0.88814 0.15246 0.0
H1426 H 0.46359 0.91597 0.13685 0.0
H1427 H 0.42637 0.88208 0.01602 0.0
C1428 C 0.44556 0.89194 0.9621 0.0
C1429 C 0.46143 0.90353 0.95307 0.0
C1430 C 0.45076 0.9098 0.14025 0.0
C1431 C 0.44781 0.90167 0.04846 0.0
C1432 C 0.444 0.91042 0.18641 0.0
C1433 C 0.42744 0.90284 0.19154 0.0
C1434 C 0.4409 0.90147 0.09893 0.0
C1435 C 0.41795 0.89421 0.14992 0.0
C1436 C 0.43867 0.89102 0.00969 0.0
C1437 C 0.47015 0.91392 0.99279 0.0
N1438 N 0.42483 0.89381 0.10515 0.0
N1439 N 0.46322 0.91273 0.03879 0.0
H1440 H 0.25343 0.38295 0.1066 0.0
H1441 H 0.20288 0.29339 0.00724 0.0
H1442 H 0.22769 0.36994 0.96405 0.0
H1443 H 0.21428 0.30649 0.1655 0.0
H1444 H 0.21828 0.32156 0.98368 0.0
H1445 H 0.24555 0.35508 0.12055 0.0
C1446 C 0.24636 0.37427 0.07778 0.0
C1447 C 0.241 0.37869 0.03444 0.0
C1448 C 0.21759 0.31821 0.02345 0.0
C1449 C 0.23196 0.34687 0.05022 0.0
C1450 C 0.20889 0.30217 0.03689 0.0
C1451 C 0.20719 0.29768 0.08843 0.0
C1452 C 0.22476 0.32975 0.06184 0.0
C1453 C 0.21517 0.3095 0.12537 0.0
C1454 C 0.24183 0.35838 0.08588 0.0
C1455 C 0.23192 0.36698 -0.00175 0.0
N1456 N 0.22354 0.32501 0.11138 0.0
N1457 N 0.22755 0.35155 0.00717 0.0
H1458 H 0.69411 0.89881 0.20593 0.0
H1459 H 0.63453 0.86576 0.97298 0.0
H1460 H 0.70994 0.90658 0.04921 0.0
H1461 H 0.62001 0.87038 0.12474 0.0
H1462 H 0.66232 0.88194 -0.00101 0.0
H1463 H 0.66701 0.88967 0.17668 0.0
C1464 C 0.69189 0.89877 0.16537 0.0
C1465 C 0.70421 0.90329 0.12987 0.0
C1466 C 0.65305 0.87962 0.0264 0.0
C1467 C 0.67325 0.89265 0.09608 0.0
C1468 C 0.6372 0.87036 0.0116 0.0
C1469 C 0.62499 0.86661 0.04695 0.0
C1470 C 0.65668 0.88493 0.07712 0.0
C1471 C 0.62908 0.87293 0.09638 0.0
C1472 C 0.67644 0.89358 0.14868 0.0
C1473 C 0.70074 0.90311 0.0778 0.0
N1474 N 0.6446 0.8816 0.11024 0.0
N1475 N 0.68552 0.89763 0.06239 0.0
H1476 H 0.12791 0.75047 0.04145 0.0
H1477 H 0.12709 0.82469 0.1712 0.0
H1478 H 0.16627 0.78618 0.13191 0.0
H1479 H 0.09133 0.79338 0.06415 0.0
H1480 H 0.1403 0.80909 0.16284 0.0
H1481 H 0.11299 0.7644 0.05496 0.0
C1482 C 0.13313 0.76117 0.06444 0.0
C1483 C 0.14836 0.76723 0.08546 0.0
C1484 C 0.12955 0.80559 0.14117 0.0
C1485 C 0.13144 0.78318 0.10099 0.0
C1486 C 0.122 0.8145 0.14595 0.0
C1487 C 0.10814 0.81036 0.11812 0.0
C1488 C 0.12322 0.79241 0.10832 0.0
C1489 C 0.10203 0.797 0.08615 0.0
C1490 C 0.12465 0.76913 0.07198 0.0
C1491 C 0.1546 0.78114 0.11481 0.0
N1492 N 0.10964 0.78849 0.082 0.0
N1493 N 0.14613 0.78864 0.12163 0.0
H1494 H 0.28583 0.19764 0.36715 0.0
H1495 H 0.36496 0.19586 0.44051 0.0
H1496 H 0.28587 0.15509 0.4141 0.0
H1497 H 0.36382 0.23874 0.40684 0.0
H1498 H 0.33621 0.18044 0.42702 0.0
H1499 H 0.31467 0.21261 0.37694 0.0
C1500 C 0.29193 0.19143 0.37934 0.0
C1501 C 0.28346 0.17511 0.38995 0.0
C1502 C 0.34225 0.19322 0.42258 0.0
C1503 C 0.31647 0.19218 0.40142 0.0
C1504 C 0.35865 0.20202 0.43027 0.0
C1505 C 0.36675 0.21859 0.42489 0.0
C1506 C 0.33392 0.20106 0.40926 0.0
C1507 C 0.35802 0.22598 0.41151 0.0
C1508 C 0.30839 0.19999 0.38503 0.0
C1509 C 0.29196 0.16767 0.4056 0.0
N1510 N 0.34208 0.21716 0.40414 0.0
N1511 N 0.30801 0.17628 0.41095 0.0
H1512 H 0.75697 0.13924 0.36072 0.0
H1513 H 0.79626 0.08724 0.4413 0.0
H1514 H 0.7652 0.13199 0.51784 0.0
H1515 H 0.80493 0.11147 0.29665 0.0
H1516 H 0.77936 0.09822 0.46645 0.0
H1517 H 0.76899 0.12354 0.33355 0.0
C1518 C 0.76112 0.13417 0.38953 0.0
C1519 C 0.76023 0.13701 0.4416 0.0
C1520 C 0.78486 0.10099 0.42906 0.0
C1521 C 0.77391 0.11904 0.41076 0.0
C1522 C 0.79442 0.09469 0.41461 0.0
C1523 C 0.80206 0.09857 0.367 0.0
C1524 C 0.78276 0.11101 0.39528 0.0
C1525 C 0.79934 0.1083 0.33386 0.0
C1526 C 0.76803 0.12528 0.37396 0.0
C1527 C 0.76579 0.13016 0.4773 0.0
N1528 N 0.78992 0.1142 0.34866 0.0
N1529 N 0.77245 0.12151 0.4612 0.0
H1530 H 0.91553 0.70934 0.43328 0.0
H1531 H 0.82907 0.63206 0.44991 0.0
H1532 H 0.87201 0.70924 0.39945 0.0
H1533 H 0.87235 0.63189 0.48548 0.0
H1534 H 0.84452 0.66081 0.4377 0.0
H1535 H 0.89989 0.68139 0.45843 0.0
C1536 C 0.90268 0.70345 0.43136 0.0
C1537 C 0.89504 0.71156 0.41392 0.0
C1538 C 0.85064 0.65452 0.44852 0.0
C1539 C 0.87709 0.67965 0.44254 0.0
C1540 C 0.84182 0.63811 0.45557 0.0
C1541 C 0.84946 0.62959 0.46837 0.0
C1542 C 0.86725 0.66246 0.45406 0.0
C1543 C 0.866 0.63801 0.4754 0.0
C1544 C 0.89376 0.68751 0.44575 0.0
C1545 C 0.87838 0.7034 0.41238 0.0
N1546 N 0.87436 0.65397 0.46778 0.0
N1547 N 0.86997 0.68788 0.42625 0.0
H1548 H 0.79332 0.69625 0.90958 0.0
H1549 H 0.79067 0.61352 0.87027 0.0
H1550 H 0.82534 0.69021 0.81015 0.0
H1551 H 0.75371 0.61769 0.94761 0.0
H1552 H 0.80351 0.64164 0.84788 0.0
H1553 H 0.77849 0.66753 0.92375 0.0
C1554 C 0.79716 0.68885 0.89046 0.0
C1555 C 0.81061 0.6956 0.85883 0.0
C1556 C 0.79255 0.6364 0.86952 0.0
C1557 C 0.79381 0.6628 0.87516 0.0
C1558 C 0.78524 0.62036 0.88244 0.0
C1559 C 0.77116 0.61331 0.91105 0.0
C1560 C 0.78581 0.64551 0.88573 0.0
C1561 C 0.76458 0.62269 0.92559 0.0
C1562 C 0.78869 0.67247 0.89853 0.0
C1563 C 0.81505 0.68549 0.83491 0.0
N1564 N 0.77203 0.63836 0.91305 0.0
N1565 N 0.80674 0.66961 0.84388 0.0
H1566 H 0.36508 0.14015 0.85345 0.0
H1567 H 0.27978 0.10174 0.98776 0.0
H1568 H 0.35869 0.14279 0.01552 0.0
H1569 H 0.28664 0.10869 0.82497 0.0
H1570 H 0.30856 0.11434 -0.00116 0.0
H1571 H 0.33621 0.12604 0.8425 0.0
C1572 C 0.35759 0.13766 0.88678 0.0
C1573 C 0.36426 0.14267 0.93547 0.0
C1574 C 0.30377 0.11311 0.9607 0.0
C1575 C 0.33126 0.12657 0.92322 0.0
C1576 C 0.28735 0.1059 0.95434 0.0
C1577 C 0.28084 0.10422 0.90538 0.0
C1578 C 0.31375 0.11857 0.91774 0.0
C1579 C 0.29119 0.1098 0.8634 0.0
C1580 C 0.34112 0.12967 0.88047 0.0
C1581 C 0.35402 0.13917 0.9773 0.0
N1582 N 0.30714 0.11672 0.87054 0.0
N1583 N 0.33802 0.13133 0.97022 0.0
H1584 H 0.91616 0.20433 0.90486 0.0
H1585 H 0.83166 0.19714 0.95955 0.0
H1586 H 0.87123 0.16151 0.88068 0.0
H1587 H 0.87578 0.2418 0.95774 0.0
H1588 H 0.84627 0.18344 0.93875 0.0
H1589 H 0.90185 0.21788 0.932 0.0
C1590 C 0.90329 0.19779 0.90536 0.0
C1591 C 0.89485 0.18181 0.89032 0.0
C1592 C 0.85277 0.19623 0.94303 0.0
C1593 C 0.87843 0.19717 0.92146 0.0
C1594 C 0.84444 0.20405 0.95505 0.0
C1595 C 0.85253 0.22063 0.96019 0.0
C1596 C 0.86932 0.20505 0.93631 0.0
C1597 C 0.86909 0.229 0.95395 0.0
C1598 C 0.89513 0.20552 0.92079 0.0
C1599 C 0.87819 0.17386 0.89176 0.0
N1600 N 0.87695 0.22112 0.94226 0.0
N1601 N 0.87053 0.18162 0.90705 0.0
H1602 H 0.69646 0.80031 0.71431 0.0
H1603 H 0.63577 0.76694 0.48346 0.0
H1604 H 0.71045 0.79589 0.56153 0.0
H1605 H 0.62069 0.75876 0.64094 0.0
H1606 H 0.66317 0.77702 0.51127 0.0
H1607 H 0.66859 0.78457 0.68883 0.0
C1608 C 0.69364 0.79589 0.67552 0.0
C1609 C 0.70574 0.7995 0.63981 0.0
C1610 C 0.65385 0.77284 0.53974 0.0
C1611 C 0.67395 0.78166 0.61029 0.0
C1612 C 0.63823 0.76713 0.52389 0.0
C1613 C 0.62601 0.76215 0.56003 0.0
C1614 C 0.6573 0.77381 0.59214 0.0
C1615 C 0.6298 0.76254 0.61189 0.0
C1616 C 0.67775 0.78688 0.66104 0.0
C1617 C 0.70147 0.79342 0.59017 0.0
N1618 N 0.64516 0.76849 0.62647 0.0
N1619 N 0.6859 0.78496 0.57666 0.0
H1620 H 0.20101 0.90437 0.66963 0.0
H1621 H 0.21418 0.85049 0.47239 0.0
H1622 H 0.18955 0.90325 0.50996 0.0
H1623 H 0.24096 0.86727 0.61236 0.0
H1624 H 0.20449 0.86921 0.48498 0.0
H1625 H 0.21528 0.89026 0.64972 0.0
C1626 C 0.20165 0.90129 0.63029 0.0
C1627 C 0.19408 0.90491 0.59138 0.0
C1628 C 0.21264 0.86892 0.51254 0.0
C1629 C 0.21012 0.88856 0.56843 0.0
C1630 C 0.21813 0.85823 0.50546 0.0
C1631 C 0.22829 0.85728 0.54158 0.0
C1632 C 0.21715 0.87849 0.55647 0.0
C1633 C 0.2331 0.86758 0.58367 0.0
C1634 C 0.20982 0.89327 0.61892 0.0
C1635 C 0.19528 0.90068 0.54102 0.0
N1636 N 0.22732 0.87762 0.5903 0.0
N1637 N 0.20296 0.8925 0.53103 0.0
H1638 H 0.13506 0.36379 0.4645 0.0
H1639 H 0.10134 0.29742 0.67678 0.0
H1640 H 0.12504 0.3726 0.61778 0.0
H1641 H 0.09436 0.28589 0.5163 0.0
H1642 H 0.11007 0.3251 0.6558 0.0
H1643 H 0.11989 0.33521 0.48145 0.0
C1644 C 0.12943 0.35969 0.50141 0.0
C1645 C 0.13139 0.37054 0.53995 0.0
C1646 C 0.10644 0.31649 0.6252 0.0
C1647 C 0.11435 0.33798 0.55987 0.0
C1648 C 0.10154 0.30072 0.63714 0.0
C1649 C 0.09725 0.28943 0.59816 0.0
C1650 C 0.10734 0.32103 0.57384 0.0
C1651 C 0.09762 0.29427 0.54746 0.0
C1652 C 0.12079 0.34339 0.51106 0.0
C1653 C 0.12386 0.36462 0.58706 0.0
N1654 N 0.10281 0.30979 0.53665 0.0
N1655 N 0.11588 0.34873 0.596 0.0
H1656 H 0.04199 0.53787 0.75393 0.0
H1657 H 0.96296 0.54401 0.74145 0.0
H1658 H 0.04086 0.58029 0.79509 0.0
H1659 H 0.96719 0.50568 0.67474 0.0
H1660 H 0.99105 0.55702 0.76575 0.0
H1661 H 0.01405 0.5253 0.72948 0.0
C1662 C 0.03584 0.54453 0.75792 0.0
C1663 C 0.04373 0.56014 0.77654 0.0
C1664 C 0.98583 0.54579 0.74566 0.0
C1665 C 0.01174 0.54583 0.74864 0.0
C1666 C 0.96982 0.53836 0.73184 0.0
C1667 C 0.96277 0.52376 0.70605 0.0
C1668 C 0.99479 0.53849 0.73392 0.0
C1669 C 0.97216 0.51695 0.69453 0.0
C1670 C 0.0199 0.53736 0.74381 0.0
C1671 C 0.0352 0.56823 0.78083 0.0
N1672 N 0.98767 0.52434 0.70869 0.0
N1673 N 0.01963 0.56096 0.76707 0.0
H1674 H 0.4209 0.46825 0.69185 0.0
H1675 H 0.46107 0.41747 0.77879 0.0
H1676 H 0.42753 0.45983 0.84936 0.0
H1677 H 0.46784 0.43901 0.62997 0.0
H1678 H 0.44363 0.42794 0.80175 0.0
H1679 H 0.43278 0.4523 0.66534 0.0
C1680 C 0.4246 0.46281 0.72082 0.0
C1681 C 0.42339 0.46546 0.77284 0.0
C1682 C 0.44884 0.43026 0.76395 0.0
C1683 C 0.43697 0.44732 0.74289 0.0
C1684 C 0.45877 0.42428 0.75081 0.0
C1685 C 0.46602 0.42754 0.70261 0.0
C1686 C 0.44606 0.43942 0.72846 0.0
C1687 C 0.4626 0.43637 0.66772 0.0
C1688 C 0.43145 0.45381 0.70568 0.0
C1689 C 0.42838 0.45818 0.80884 0.0
N1690 N 0.45289 0.44206 0.6814 0.0
N1691 N 0.43505 0.44951 0.79318 0.0
H1692 H 0.53126 0.95485 0.75826 0.0
H1693 H 0.52755 0.03216 0.67735 0.0
H1694 H 0.48842 0.95776 0.76575 0.0
H1695 H 0.57112 0.0339 0.72228 0.0
H1696 H 0.51297 0.00377 0.69707 0.0
H1697 H 0.54605 0.98286 0.73276 0.0
C1698 C 0.52497 0.96137 0.75431 0.0
C1699 C 0.50862 0.95404 0.76428 0.0
C1700 C 0.52572 0.01037 0.70252 0.0
C1701 C 0.52538 0.98592 0.73487 0.0
C1702 C 0.53405 0.02654 0.6911 0.0
C1703 C 0.55055 0.03538 0.6984 0.0
C1704 C 0.53397 0.00294 0.7208 0.0
C1705 C 0.55839 0.02751 0.71635 0.0
C1706 C 0.53341 0.97734 0.73995 0.0
C1707 C 0.50103 0.963 0.75867 0.0
N1708 N 0.55003 0.01171 0.72688 0.0
N1709 N 0.50947 0.97848 0.74418 0.0
H1710 H 0.46405 0.03118 0.13832 0.0
H1711 H 0.43888 0.96793 0.36148 0.0
H1712 H 0.46886 0.04445 0.29734 0.0
H1713 H 0.41759 0.95547 0.21172 0.0
H1714 H 0.45172 0.99604 0.33787 0.0
H1715 H 0.44863 0.00318 0.1633 0.0
C1716 C 0.46178 0.02818 0.17846 0.0
C1717 C 0.46773 0.04009 0.21587 0.0
C1718 C 0.44413 0.98715 0.31036 0.0
C1719 C 0.45033 0.00821 0.24464 0.0
C1720 C 0.43686 0.97113 0.32372 0.0
C1721 C 0.4272 0.95941 0.28843 0.0
C1722 C 0.44195 0.99142 0.26106 0.0
C1723 C 0.42493 0.96417 0.24006 0.0
C1724 C 0.45296 0.01224 0.19265 0.0
C1725 C 0.46445 0.03561 0.26733 0.0
N1726 N 0.43239 0.97982 0.22757 0.0
N1727 N 0.45609 0.01999 0.28027 0.0
H1728 H 0.03162 0.46218 0.21351 0.0
H1729 H 0.94177 0.42968 0.2993 0.0
H1730 H 0.01911 0.47341 0.35958 0.0
H1731 H 0.95647 0.43695 0.14142 0.0
H1732 H 0.96962 0.44115 0.32507 0.0
H1733 H 0.00347 0.44819 0.18963 0.0
C1734 C 0.02292 0.46156 0.24071 0.0
C1735 C 0.02765 0.469 0.28849 0.0
C1736 C 0.96672 0.44018 0.28482 0.0
C1737 C 0.99556 0.453 0.26158 0.0
C1738 C 0.95086 0.4336 0.27009 0.0
C1739 C 0.94688 0.43246 0.21818 0.0
C1740 C 0.9786 0.4454 0.24731 0.0
C1741 C 0.95908 0.43772 0.18186 0.0
C1742 C 0.00691 0.45366 0.22697 0.0
C1743 C 0.01593 0.46789 0.32226 0.0
N1744 N 0.97442 0.44394 0.19711 0.0
N1745 N 0.0004 0.46001 0.30819 0.0
H1746 H 0.57358 0.52668 0.28722 0.0
H1747 H 0.52889 0.57298 0.19942 0.0
H1748 H 0.55956 0.52752 0.1314 0.0
H1749 H 0.52762 0.55694 0.35393 0.0
H1750 H 0.54492 0.56107 0.17445 0.0
H1751 H 0.56153 0.54256 0.31257 0.0
C1752 C 0.56813 0.53037 0.25827 0.0
C1753 C 0.56746 0.52572 0.2072 0.0
C1754 C 0.54121 0.56026 0.21386 0.0
C1755 C 0.55374 0.54386 0.23587 0.0
C1756 C 0.53213 0.56709 0.22819 0.0
C1757 C 0.52686 0.56583 0.27874 0.0
C1758 C 0.54519 0.55228 0.25051 0.0
C1759 C 0.53137 0.55807 0.31448 0.0
C1760 C 0.5612 0.53935 0.2728 0.0
C1761 C 0.56023 0.53078 0.17123 0.0
N1762 N 0.54027 0.55156 0.29966 0.0
N1763 N 0.55362 0.53957 0.18628 0.0
loop_
_geom_bond_atom_site_label_1
_geom_bond_atom_site_label_2
_geom_bond_distance
_geom_bond_site_symmetry_2
_ccdc_geom_bond_type
In0 O1 2.294 . S
In0 O2 2.326 . S
In0 O6 2.266 . S
In0 O7 2.326 . S
In0 O8 2.266 . S
In0 O9 2.326 . S
In0 O11 2.294 . S
In0 O12 2.326 . S
O1 In0 2.294 . S
O1 C10 1.240 . S
O2 In0 2.326 . S
O2 C10 1.252 . S
C3 O6 1.252 . S
C3 O7 1.260 . S
C4 O11 1.240 . S
C4 O12 1.252 . S
C5 O8 1.252 . S
C5 O9 1.260 . S
O6 In0 2.266 . S
O6 C3 1.252 . S
O7 In0 2.326 . S
O7 C3 1.260 . S
O8 In0 2.266 . S
O8 C5 1.252 . S
O9 In0 2.326 . S
O9 C5 1.260 . S
C10 O1 1.240 . S
C10 O2 1.252 . S
O11 In0 2.294 . S
O11 C4 1.240 . S
O12 In0 2.326 . S
O12 C4 1.252 . S
In13 O14 2.294 . S
In13 O15 2.326 . S
In13 O19 2.266 . S
In13 O20 2.326 . S
In13 O21 2.266 . S
In13 O22 2.326 . S
In13 O24 2.294 . S
In13 O25 2.326 . S
O14 In13 2.294 . S
O14 C23 1.240 . S
O15 In13 2.326 . S
O15 C23 1.252 . S
C16 O19 1.252 . S
C16 O20 1.260 . S
C17 O24 1.240 . S
C17 O25 1.252 . S
C18 O21 1.252 . S
C18 O22 1.260 . S
O19 In13 2.266 . S
O19 C16 1.252 . S
O20 In13 2.326 . S
O20 C16 1.260 . S
O21 In13 2.266 . S
O21 C18 1.252 . S
O22 In13 2.326 . S
O22 C18 1.260 . S
C23 O14 1.240 . S
C23 O15 1.252 . S
O24 In13 2.294 . S
O24 C17 1.240 . S
O25 In13 2.326 . S
O25 C17 1.252 . S
In26 O27 2.294 . S
In26 O28 2.326 . S
In26 O32 2.266 . S
In26 O33 2.326 . S
In26 O34 2.266 . S
In26 O35 2.326 . S
In26 O37 2.294 . S
In26 O38 2.326 . S
O27 In26 2.294 . S
O27 C36 1.240 . S
O28 In26 2.326 . S
O28 C36 1.252 . S
C29 O32 1.252 . S
C29 O33 1.260 . S
C30 O37 1.240 . S
C30 O38 1.252 . S
C31 O34 1.252 . S
C31 O35 1.260 . S
O32 In26 2.266 . S
O32 C29 1.252 . S
O33 In26 2.326 . S
O33 C29 1.260 . S
O34 In26 2.266 . S
O34 C31 1.252 . S
O35 In26 2.326 . S
O35 C31 1.260 . S
C36 O27 1.240 . S
C36 O28 1.252 . S
O37 In26 2.294 . S
O37 C30 1.240 . S
O38 In26 2.326 . S
O38 C30 1.252 . S
In39 O40 2.294 . S
In39 O41 2.326 . S
In39 O45 2.266 . S
In39 O46 2.326 . S
In39 O47 2.266 . S
In39 O48 2.326 . S
In39 O50 2.294 . S
In39 O51 2.326 . S
O40 In39 2.294 . S
O40 C49 1.240 . S
O41 In39 2.326 . S
O41 C49 1.252 . S
C42 O45 1.252 . S
C42 O46 1.260 . S
C43 O50 1.240 . S
C43 O51 1.252 . S
C44 O47 1.252 . S
C44 O48 1.260 . S
O45 In39 2.266 . S
O45 C42 1.252 . S
O46 In39 2.326 . S
O46 C42 1.260 . S
O47 In39 2.266 . S
O47 C44 1.252 . S
O48 In39 2.326 . S
O48 C44 1.260 . S
C49 O40 1.240 . S
C49 O41 1.252 . S
O50 In39 2.294 . S
O50 C43 1.240 . S
O51 In39 2.326 . S
O51 C43 1.252 . S
In52 O53 2.294 . S
In52 O54 2.326 . S
In52 O58 2.266 . S
In52 O59 2.326 . S
In52 O60 2.266 . S
In52 O61 2.326 . S
In52 O63 2.294 . S
In52 O64 2.326 . S
O53 In52 2.294 . S
O53 C62 1.240 . S
O54 In52 2.326 . S
O54 C62 1.252 . S
C55 O58 1.252 . S
C55 O59 1.260 . S
C56 O63 1.240 . S
C56 O64 1.252 . S
C57 O60 1.252 . S
C57 O61 1.260 . S
O58 In52 2.266 . S
O58 C55 1.252 . S
O59 In52 2.326 . S
O59 C55 1.260 . S
O60 In52 2.266 . S
O60 C57 1.252 . S
O61 In52 2.326 . S
O61 C57 1.260 . S
C62 O53 1.240 . S
C62 O54 1.252 . S
O63 In52 2.294 . S
O63 C56 1.240 . S
O64 In52 2.326 . S
O64 C56 1.252 . S
In65 O66 2.294 . S
In65 O67 2.326 . S
In65 O71 2.266 . S
In65 O72 2.326 . S
In65 O73 2.266 . S
In65 O74 2.326 . S
In65 O76 2.294 . S
In65 O77 2.326 . S
O66 In65 2.294 . S
O66 C75 1.240 . S
O67 In65 2.326 . S
O67 C75 1.252 . S
C68 O71 1.252 . S
C68 O72 1.260 . S
C69 O76 1.240 . S
C69 O77 1.252 . S
C70 O73 1.252 . S
C70 O74 1.260 . S
O71 In65 2.266 . S
O71 C68 1.252 . S
O72 In65 2.326 . S
O72 C68 1.260 . S
O73 In65 2.266 . S
O73 C70 1.252 . S
O74 In65 2.326 . S
O74 C70 1.260 . S
C75 O66 1.240 . S
C75 O67 1.252 . S
O76 In65 2.294 . S
O76 C69 1.240 . S
O77 In65 2.326 . S
O77 C69 1.252 . S
In78 O79 2.294 . S
In78 O80 2.326 . S
In78 O84 2.266 . S
In78 O85 2.326 . S
In78 O86 2.266 . S
In78 O87 2.326 . S
In78 O89 2.294 . S
In78 O90 2.326 . S
O79 In78 2.294 . S
O79 C88 1.240 . S
O80 In78 2.326 . S
O80 C88 1.252 . S
C81 O84 1.252 . S
C81 O85 1.260 . S
C82 O89 1.240 . S
C82 O90 1.252 . S
C83 O86 1.252 . S
C83 O87 1.260 . S
O84 In78 2.266 . S
O84 C81 1.252 . S
O85 In78 2.326 . S
O85 C81 1.260 . S
O86 In78 2.266 . S
O86 C83 1.252 . S
O87 In78 2.326 . S
O87 C83 1.260 . S
C88 O79 1.240 . S
C88 O80 1.252 . S
O89 In78 2.294 . S
O89 C82 1.240 . S
O90 In78 2.326 . S
O90 C82 1.252 . S
In91 O92 2.294 . S
In91 O93 2.326 . S
In91 O97 2.266 . S
In91 O98 2.326 . S
In91 O99 2.266 . S
In91 O100 2.326 . S
In91 O102 2.294 . S
In91 O103 2.326 . S
O92 In91 2.294 . S
O92 C101 1.240 . S
O93 In91 2.326 . S
O93 C101 1.252 . S
C94 O97 1.252 . S
C94 O98 1.260 . S
C95 O102 1.240 . S
C95 O103 1.252 . S
C96 O99 1.252 . S
C96 O100 1.260 . S
O97 In91 2.266 . S
O97 C94 1.252 . S
O98 In91 2.326 . S
O98 C94 1.260 . S
O99 In91 2.266 . S
O99 C96 1.252 . S
O100 In91 2.326 . S
O100 C96 1.260 . S
C101 O92 1.240 . S
C101 O93 1.252 . S
O102 In91 2.294 . S
O102 C95 1.240 . S
O103 In91 2.326 . S
O103 C95 1.252 . S
In104 O105 2.294 . S
In104 O106 2.326 . S
In104 O110 2.266 . S
In104 O111 2.326 . S
In104 O112 2.266 . S
In104 O113 2.326 . S
In104 O115 2.294 . S
In104 O116 2.326 . S
O105 In104 2.294 . S
O105 C114 1.240 . S
O106 In104 2.326 . S
O106 C114 1.252 . S
C107 O110 1.252 . S
C107 O111 1.260 . S
C108 O115 1.240 . S
C108 O116 1.252 . S
C109 O112 1.252 . S
C109 O113 1.260 . S
O110 In104 2.266 . S
O110 C107 1.252 . S
O111 In104 2.326 . S
O111 C107 1.260 . S
O112 In104 2.266 . S
O112 C109 1.252 . S
O113 In104 2.326 . S
O113 C109 1.260 . S
C114 O105 1.240 . S
C114 O106 1.252 . S
O115 In104 2.294 . S
O115 C108 1.240 . S
O116 In104 2.326 . S
O116 C108 1.252 . S
In117 O118 2.294 . S
In117 O119 2.326 . S
In117 O123 2.266 . S
In117 O124 2.326 . S
In117 O125 2.266 . S
In117 O126 2.326 . S
In117 O128 2.294 . S
In117 O129 2.326 . S
O118 In117 2.294 . S
O118 C127 1.240 . S
O119 In117 2.326 . S
O119 C127 1.252 . S
C120 O123 1.252 . S
C120 O124 1.260 . S
C121 O128 1.240 . S
C121 O129 1.252 . S
C122 O125 1.252 . S
C122 O126 1.260 . S
O123 In117 2.266 . S
O123 C120 1.252 . S
O124 In117 2.326 . S
O124 C120 1.260 . S
O125 In117 2.266 . S
O125 C122 1.252 . S
O126 In117 2.326 . S
O126 C122 1.260 . S
C127 O118 1.240 . S
C127 O119 1.252 . S
O128 In117 2.294 . S
O128 C121 1.240 . S
O129 In117 2.326 . S
O129 C121 1.252 . S
In130 O131 2.294 . S
In130 O132 2.326 . S
In130 O136 2.266 . S
In130 O137 2.326 . S
In130 O138 2.266 . S
In130 O139 2.326 . S
In130 O141 2.294 . S
In130 O142 2.326 . S
O131 In130 2.294 . S
O131 C140 1.240 . S
O132 In130 2.326 . S
O132 C140 1.252 . S
C133 O136 1.252 . S
C133 O137 1.260 . S
C134 O141 1.240 . S
C134 O142 1.252 . S
C135 O138 1.252 . S
C135 O139 1.260 . S
O136 In130 2.266 . S
O136 C133 1.252 . S
O137 In130 2.326 . S
O137 C133 1.260 . S
O138 In130 2.266 . S
O138 C135 1.252 . S
O139 In130 2.326 . S
O139 C135 1.260 . S
C140 O131 1.240 . S
C140 O132 1.252 . S
O141 In130 2.294 . S
O141 C134 1.240 . S
O142 In130 2.326 . S
O142 C134 1.252 . S
In143 O144 2.294 . S
In143 O145 2.326 . S
In143 O149 2.266 . S
In143 O150 2.326 . S
In143 O151 2.266 . S
In143 O152 2.326 . S
In143 O154 2.294 . S
In143 O155 2.326 . S
O144 In143 2.294 . S
O144 C153 1.240 . S
O145 In143 2.326 . S
O145 C153 1.252 . S
C146 O149 1.252 . S
C146 O150 1.260 . S
C147 O154 1.240 . S
C147 O155 1.252 . S
C148 O151 1.252 . S
C148 O152 1.260 . S
O149 In143 2.266 . S
O149 C146 1.252 . S
O150 In143 2.326 . S
O150 C146 1.260 . S
O151 In143 2.266 . S
O151 C148 1.252 . S
O152 In143 2.326 . S
O152 C148 1.260 . S
C153 O144 1.240 . S
C153 O145 1.252 . S
O154 In143 2.294 . S
O154 C147 1.240 . S
O155 In143 2.326 . S
O155 C147 1.252 . S
In156 O157 2.294 . S
In156 O158 2.326 . S
In156 O162 2.266 . S
In156 O163 2.326 . S
In156 O164 2.266 . S
In156 O165 2.326 . S
In156 O167 2.294 . S
In156 O168 2.326 . S
O157 In156 2.294 . S
O157 C166 1.240 . S
O158 In156 2.326 . S
O158 C166 1.252 . S
C159 O162 1.252 . S
C159 O163 1.260 . S
C160 O167 1.240 . S
C160 O168 1.252 . S
C161 O164 1.252 . S
C161 O165 1.260 . S
O162 In156 2.266 . S
O162 C159 1.252 . S
O163 In156 2.326 . S
O163 C159 1.260 . S
O164 In156 2.266 . S
O164 C161 1.252 . S
O165 In156 2.326 . S
O165 C161 1.260 . S
C166 O157 1.240 . S
C166 O158 1.252 . S
O167 In156 2.294 . S
O167 C160 1.240 . S
O168 In156 2.326 . S
O168 C160 1.252 . S
In169 O170 2.294 . S
In169 O171 2.326 . S
In169 O175 2.266 . S
In169 O176 2.326 . S
In169 O177 2.266 . S
In169 O178 2.326 . S
In169 O180 2.294 . S
In169 O181 2.326 . S
O170 In169 2.294 . S
O170 C179 1.240 . S
O171 In169 2.326 . S
O171 C179 1.252 . S
C172 O175 1.252 . S
C172 O176 1.260 . S
C173 O180 1.240 . S
C173 O181 1.252 . S
C174 O177 1.252 . S
C174 O178 1.260 . S
O175 In169 2.266 . S
O175 C172 1.252 . S
O176 In169 2.326 . S
O176 C172 1.260 . S
O177 In169 2.266 . S
O177 C174 1.252 . S
O178 In169 2.326 . S
O178 C174 1.260 . S
C179 O170 1.240 . S
C179 O171 1.252 . S
O180 In169 2.294 . S
O180 C173 1.240 . S
O181 In169 2.326 . S
O181 C173 1.252 . S
In182 O183 2.294 . S
In182 O184 2.326 . S
In182 O188 2.266 . S
In182 O189 2.326 . S
In182 O190 2.266 . S
In182 O191 2.326 . S
In182 O193 2.294 . S
In182 O194 2.326 . S
O183 In182 2.294 . S
O183 C192 1.240 . S
O184 In182 2.326 . S
O184 C192 1.252 . S
C185 O188 1.252 . S
C185 O189 1.260 . S
C186 O193 1.240 . S
C186 O194 1.252 . S
C187 O190 1.252 . S
C187 O191 1.260 . S
O188 In182 2.266 . S
O188 C185 1.252 . S
O189 In182 2.326 . S
O189 C185 1.260 . S
O190 In182 2.266 . S
O190 C187 1.252 . S
O191 In182 2.326 . S
O191 C187 1.260 . S
C192 O183 1.240 . S
C192 O184 1.252 . S
O193 In182 2.294 . S
O193 C186 1.240 . S
O194 In182 2.326 . S
O194 C186 1.252 . S
In195 O196 2.294 . S
In195 O197 2.326 . S
In195 O201 2.266 . S
In195 O202 2.326 . S
In195 O203 2.266 . S
In195 O204 2.326 . S
In195 O206 2.294 . S
In195 O207 2.326 . S
O196 In195 2.294 . S
O196 C205 1.240 . S
O197 In195 2.326 . S
O197 C205 1.252 . S
C198 O201 1.252 . S
C198 O202 1.260 . S
C199 O206 1.240 . S
C199 O207 1.252 . S
C200 O203 1.252 . S
C200 O204 1.260 . S
O201 In195 2.266 . S
O201 C198 1.252 . S
O202 In195 2.326 . S
O202 C198 1.260 . S
O203 In195 2.266 . S
O203 C200 1.252 . S
O204 In195 2.326 . S
O204 C200 1.260 . S
C205 O196 1.240 . S
C205 O197 1.252 . S
O206 In195 2.294 . S
O206 C199 1.240 . S
O207 In195 2.326 . S
O207 C199 1.252 . S
In208 O209 2.294 . S
In208 O210 2.326 . S
In208 O214 2.266 . S
In208 O215 2.326 . S
In208 O216 2.266 . S
In208 O217 2.326 . S
In208 O219 2.294 . S
In208 O220 2.326 . S
O209 In208 2.294 . S
O209 C218 1.240 . S
O210 In208 2.326 . S
O210 C218 1.252 . S
C211 O214 1.252 . S
C211 O215 1.260 . S
C212 O219 1.240 . S
C212 O220 1.252 . S
C213 O216 1.252 . S
C213 O217 1.260 . S
O214 In208 2.266 . S
O214 C211 1.252 . S
O215 In208 2.326 . S
O215 C211 1.260 . S
O216 In208 2.266 . S
O216 C213 1.252 . S
O217 In208 2.326 . S
O217 C213 1.260 . S
C218 O209 1.240 . S
C218 O210 1.252 . S
O219 In208 2.294 . S
O219 C212 1.240 . S
O220 In208 2.326 . S
O220 C212 1.252 . S
In221 O222 2.294 . S
In221 O223 2.326 . S
In221 O227 2.266 . S
In221 O228 2.326 . S
In221 O229 2.266 . S
In221 O230 2.326 . S
In221 O232 2.294 . S
In221 O233 2.326 . S
O222 In221 2.294 . S
O222 C231 1.240 . S
O223 In221 2.326 . S
O223 C231 1.252 . S
C224 O227 1.252 . S
C224 O228 1.260 . S
C225 O232 1.240 . S
C225 O233 1.252 . S
C226 O229 1.252 . S
C226 O230 1.260 . S
O227 In221 2.266 . S
O227 C224 1.252 . S
O228 In221 2.326 . S
O228 C224 1.260 . S
O229 In221 2.266 . S
O229 C226 1.252 . S
O230 In221 2.326 . S
O230 C226 1.260 . S
C231 O222 1.240 . S
C231 O223 1.252 . S
O232 In221 2.294 . S
O232 C225 1.240 . S
O233 In221 2.326 . S
O233 C225 1.252 . S
In234 O235 2.294 . S
In234 O236 2.326 . S
In234 O240 2.266 . S
In234 O241 2.326 . S
In234 O242 2.266 . S
In234 O243 2.326 . S
In234 O245 2.294 . S
In234 O246 2.326 . S
O235 In234 2.294 . S
O235 C244 1.240 . S
O236 In234 2.326 . S
O236 C244 1.252 . S
C237 O240 1.252 . S
C237 O241 1.260 . S
C238 O245 1.240 . S
C238 O246 1.252 . S
C239 O242 1.252 . S
C239 O243 1.260 . S
O240 In234 2.266 . S
O240 C237 1.252 . S
O241 In234 2.326 . S
O241 C237 1.260 . S
O242 In234 2.266 . S
O242 C239 1.252 . S
O243 In234 2.326 . S
O243 C239 1.260 . S
C244 O235 1.240 . S
C244 O236 1.252 . S
O245 In234 2.294 . S
O245 C238 1.240 . S
O246 In234 2.326 . S
O246 C238 1.252 . S
In247 O248 2.294 . S
In247 O249 2.326 . S
In247 O253 2.266 . S
In247 O254 2.326 . S
In247 O255 2.266 . S
In247 O256 2.326 . S
In247 O258 2.294 . S
In247 O259 2.326 . S
O248 In247 2.294 . S
O248 C257 1.240 . S
O249 In247 2.326 . S
O249 C257 1.252 . S
C250 O253 1.252 . S
C250 O254 1.260 . S
C251 O258 1.240 . S
C251 O259 1.252 . S
C252 O255 1.252 . S
C252 O256 1.260 . S
O253 In247 2.266 . S
O253 C250 1.252 . S
O254 In247 2.326 . S
O254 C250 1.260 . S
O255 In247 2.266 . S
O255 C252 1.252 . S
O256 In247 2.326 . S
O256 C252 1.260 . S
C257 O248 1.240 . S
C257 O249 1.252 . S
O258 In247 2.294 . S
O258 C251 1.240 . S
O259 In247 2.326 . S
O259 C251 1.252 . S
In260 O261 2.294 . S
In260 O262 2.326 . S
In260 O266 2.266 . S
In260 O267 2.326 . S
In260 O268 2.266 . S
In260 O269 2.326 . S
In260 O271 2.294 . S
In260 O272 2.326 . S
O261 In260 2.294 . S
O261 C270 1.240 . S
O262 In260 2.326 . S
O262 C270 1.252 . S
C263 O266 1.252 . S
C263 O267 1.260 . S
C264 O271 1.240 . S
C264 O272 1.252 . S
C265 O268 1.252 . S
C265 O269 1.260 . S
O266 In260 2.266 . S
O266 C263 1.252 . S
O267 In260 2.326 . S
O267 C263 1.260 . S
O268 In260 2.266 . S
O268 C265 1.252 . S
O269 In260 2.326 . S
O269 C265 1.260 . S
C270 O261 1.240 . S
C270 O262 1.252 . S
O271 In260 2.294 . S
O271 C264 1.240 . S
O272 In260 2.326 . S
O272 C264 1.252 . S
In273 O274 2.297 . S
In273 O275 2.328 . S
In273 O279 2.266 1_554 S
In273 O280 2.323 1_554 S
In273 O281 2.263 1_554 S
In273 O282 2.324 1_554 S
In273 O284 2.294 . S
In273 O285 2.329 . S
O274 In273 2.297 . S
O274 C283 1.240 . S
O275 In273 2.328 . S
O275 C283 1.252 . S
C276 O279 1.252 . S
C276 O280 1.260 . S
C277 O284 1.240 . S
C277 O285 1.252 . S
C278 O281 1.252 . S
C278 O282 1.260 . S
O279 In273 2.266 1_556 S
O279 C276 1.252 . S
O280 In273 2.323 1_556 S
O280 C276 1.260 . S
O281 In273 2.263 1_556 S
O281 C278 1.252 . S
O282 In273 2.324 1_556 S
O282 C278 1.260 . S
C283 O274 1.240 . S
C283 O275 1.252 . S
O284 In273 2.294 . S
O284 C277 1.240 . S
O285 In273 2.329 . S
O285 C277 1.252 . S
In286 O287 2.294 . S
In286 O288 2.329 . S
In286 O292 2.263 1_554 S
In286 O293 2.324 1_554 S
In286 O294 2.266 1_554 S
In286 O295 2.323 1_554 S
In286 O297 2.297 . S
In286 O298 2.328 . S
O287 In286 2.294 . S
O287 C296 1.240 . S
O288 In286 2.329 . S
O288 C296 1.252 . S
C289 O292 1.252 . S
C289 O293 1.260 . S
C290 O297 1.240 . S
C290 O298 1.252 . S
C291 O294 1.252 . S
C291 O295 1.260 . S
O292 In286 2.263 1_556 S
O292 C289 1.252 . S
O293 In286 2.324 1_556 S
O293 C289 1.260 . S
O294 In286 2.266 1_556 S
O294 C291 1.252 . S
O295 In286 2.323 1_556 S
O295 C291 1.260 . S
C296 O287 1.240 . S
C296 O288 1.252 . S
O297 In286 2.297 . S
O297 C290 1.240 . S
O298 In286 2.328 . S
O298 C290 1.252 . S
In299 O300 2.294 . S
In299 O301 2.329 . S
In299 O305 2.263 1_554 S
In299 O306 2.324 1_554 S
In299 O307 2.266 1_554 S
In299 O308 2.323 1_554 S
In299 O310 2.297 . S
In299 O311 2.328 . S
O300 In299 2.294 . S
O300 C309 1.240 . S
O301 In299 2.329 . S
O301 C309 1.252 . S
C302 O305 1.252 . S
C302 O306 1.260 . S
C303 O310 1.240 . S
C303 O311 1.252 . S
C304 O307 1.252 . S
C304 O308 1.260 . S
O305 In299 2.263 1_556 S
O305 C302 1.252 . S
O306 In299 2.324 1_556 S
O306 C302 1.260 . S
O307 In299 2.266 1_556 S
O307 C304 1.252 . S
O308 In299 2.323 1_556 S
O308 C304 1.260 . S
C309 O300 1.240 . S
C309 O301 1.252 . S
O310 In299 2.297 . S
O310 C303 1.240 . S
O311 In299 2.328 . S
O311 C303 1.252 . S
In312 O313 2.294 . S
In312 O314 2.326 . S
In312 O318 2.266 . S
In312 O319 2.326 . S
In312 O320 2.266 . S
In312 O321 2.326 . S
In312 O323 2.294 . S
In312 O324 2.326 . S
O313 In312 2.294 . S
O313 C322 1.240 . S
O314 In312 2.326 . S
O314 C322 1.252 . S
C315 O318 1.252 . S
C315 O319 1.260 . S
C316 O323 1.240 . S
C316 O324 1.252 . S
C317 O320 1.252 . S
C317 O321 1.260 . S
O318 In312 2.266 . S
O318 C315 1.252 . S
O319 In312 2.326 . S
O319 C315 1.260 . S
O320 In312 2.266 . S
O320 C317 1.252 . S
O321 In312 2.326 . S
O321 C317 1.260 . S
C322 O313 1.240 . S
C322 O314 1.252 . S
O323 In312 2.294 . S
O323 C316 1.240 . S
O324 In312 2.326 . S
O324 C316 1.252 . S
In325 O326 2.294 . S
In325 O327 2.326 . S
In325 O331 2.266 . S
In325 O332 2.326 . S
In325 O333 2.266 . S
In325 O334 2.326 . S
In325 O336 2.294 . S
In325 O337 2.326 . S
O326 In325 2.294 . S
O326 C335 1.240 . S
O327 In325 2.326 . S
O327 C335 1.252 . S
C328 O331 1.252 . S
C328 O332 1.260 . S
C329 O336 1.240 . S
C329 O337 1.252 . S
C330 O333 1.252 . S
C330 O334 1.260 . S
O331 In325 2.266 . S
O331 C328 1.252 . S
O332 In325 2.326 . S
O332 C328 1.260 . S
O333 In325 2.266 . S
O333 C330 1.252 . S
O334 In325 2.326 . S
O334 C330 1.260 . S
C335 O326 1.240 . S
C335 O327 1.252 . S
O336 In325 2.294 . S
O336 C329 1.240 . S
O337 In325 2.326 . S
O337 C329 1.252 . S
In338 O339 2.294 . S
In338 O340 2.326 . S
In338 O344 2.266 . S
In338 O345 2.326 . S
In338 O346 2.266 . S
In338 O347 2.326 . S
In338 O349 2.294 . S
In338 O350 2.326 . S
O339 In338 2.294 . S
O339 C348 1.240 . S
O340 In338 2.326 . S
O340 C348 1.252 . S
C341 O344 1.252 . S
C341 O345 1.260 . S
C342 O349 1.240 . S
C342 O350 1.252 . S
C343 O346 1.252 . S
C343 O347 1.260 . S
O344 In338 2.266 . S
O344 C341 1.252 . S
O345 In338 2.326 . S
O345 C341 1.260 . S
O346 In338 2.266 . S
O346 C343 1.252 . S
O347 In338 2.326 . S
O347 C343 1.260 . S
C348 O339 1.240 . S
C348 O340 1.252 . S
O349 In338 2.294 . S
O349 C342 1.240 . S
O350 In338 2.326 . S
O350 C342 1.252 . S
In351 O352 2.294 . S
In351 O353 2.329 . S
In351 O357 2.263 1_556 S
In351 O358 2.324 1_556 S
In351 O359 2.266 1_556 S
In351 O360 2.323 1_556 S
In351 O362 2.297 . S
In351 O363 2.328 . S
O352 In351 2.294 . S
O352 C361 1.240 . S
O353 In351 2.329 . S
O353 C361 1.252 . S
C354 O357 1.252 . S
C354 O358 1.260 . S
C355 O362 1.240 . S
C355 O363 1.252 . S
C356 O359 1.252 . S
C356 O360 1.260 . S
O357 In351 2.263 1_554 S
O357 C354 1.252 . S
O358 In351 2.324 1_554 S
O358 C354 1.260 . S
O359 In351 2.266 1_554 S
O359 C356 1.252 . S
O360 In351 2.323 1_554 S
O360 C356 1.260 . S
C361 O352 1.240 . S
C361 O353 1.252 . S
O362 In351 2.297 . S
O362 C355 1.240 . S
O363 In351 2.328 . S
O363 C355 1.252 . S
In364 O365 2.297 . S
In364 O366 2.328 . S
In364 O370 2.266 1_556 S
In364 O371 2.323 1_556 S
In364 O372 2.263 1_556 S
In364 O373 2.324 1_556 S
In364 O375 2.294 . S
In364 O376 2.329 . S
O365 In364 2.297 . S
O365 C374 1.240 . S
O366 In364 2.328 . S
O366 C374 1.252 . S
C367 O370 1.252 . S
C367 O371 1.260 . S
C368 O375 1.240 . S
C368 O376 1.252 . S
C369 O372 1.252 . S
C369 O373 1.260 . S
O370 In364 2.266 1_554 S
O370 C367 1.252 . S
O371 In364 2.323 1_554 S
O371 C367 1.260 . S
O372 In364 2.263 1_554 S
O372 C369 1.252 . S
O373 In364 2.324 1_554 S
O373 C369 1.260 . S
C374 O365 1.240 . S
C374 O366 1.252 . S
O375 In364 2.294 . S
O375 C368 1.240 . S
O376 In364 2.329 . S
O376 C368 1.252 . S
In377 O378 2.297 . S
In377 O379 2.328 . S
In377 O383 2.266 1_556 S
In377 O384 2.323 1_556 S
In377 O385 2.263 1_556 S
In377 O386 2.324 1_556 S
In377 O388 2.294 . S
In377 O389 2.329 . S
O378 In377 2.297 . S
O378 C387 1.240 . S
O379 In377 2.328 . S
O379 C387 1.252 . S
C380 O383 1.252 . S
C380 O384 1.260 . S
C381 O388 1.240 . S
C381 O389 1.252 . S
C382 O385 1.252 . S
C382 O386 1.260 . S
O383 In377 2.266 1_554 S
O383 C380 1.252 . S
O384 In377 2.323 1_554 S
O384 C380 1.260 . S
O385 In377 2.263 1_554 S
O385 C382 1.252 . S
O386 In377 2.324 1_554 S
O386 C382 1.260 . S
C387 O378 1.240 . S
C387 O379 1.252 . S
O388 In377 2.294 . S
O388 C381 1.240 . S
O389 In377 2.329 . S
O389 C381 1.252 . S
In390 O391 2.294 . S
In390 O392 2.326 . S
In390 O396 2.266 . S
In390 O397 2.326 . S
In390 O398 2.266 . S
In390 O399 2.326 . S
In390 O401 2.294 . S
In390 O402 2.326 . S
O391 In390 2.294 . S
O391 C400 1.240 . S
O392 In390 2.326 . S
O392 C400 1.252 . S
C393 O396 1.252 . S
C393 O397 1.260 . S
C394 O401 1.240 . S
C394 O402 1.252 . S
C395 O398 1.252 . S
C395 O399 1.260 . S
O396 In390 2.266 . S
O396 C393 1.252 . S
O397 In390 2.326 . S
O397 C393 1.260 . S
O398 In390 2.266 . S
O398 C395 1.252 . S
O399 In390 2.326 . S
O399 C395 1.260 . S
C400 O391 1.240 . S
C400 O392 1.252 . S
O401 In390 2.294 . S
O401 C394 1.240 . S
O402 In390 2.326 . S
O402 C394 1.252 . S
In403 O404 2.294 . S
In403 O405 2.326 . S
In403 O409 2.266 . S
In403 O410 2.326 . S
In403 O411 2.266 . S
In403 O412 2.326 . S
In403 O414 2.294 . S
In403 O415 2.326 . S
O404 In403 2.294 . S
O404 C413 1.240 . S
O405 In403 2.326 . S
O405 C413 1.252 . S
C406 O409 1.252 . S
C406 O410 1.260 . S
C407 O414 1.240 . S
C407 O415 1.252 . S
C408 O411 1.252 . S
C408 O412 1.260 . S
O409 In403 2.266 . S
O409 C406 1.252 . S
O410 In403 2.326 . S
O410 C406 1.260 . S
O411 In403 2.266 . S
O411 C408 1.252 . S
O412 In403 2.326 . S
O412 C408 1.260 . S
C413 O404 1.240 . S
C413 O405 1.252 . S
O414 In403 2.294 . S
O414 C407 1.240 . S
O415 In403 2.326 . S
O415 C407 1.252 . S
In416 O417 2.294 . S
In416 O418 2.326 . S
In416 O422 2.266 . S
In416 O423 2.326 . S
In416 O424 2.266 . S
In416 O425 2.326 . S
In416 O427 2.294 . S
In416 O428 2.326 . S
O417 In416 2.294 . S
O417 C426 1.240 . S
O418 In416 2.326 . S
O418 C426 1.252 . S
C419 O422 1.252 . S
C419 O423 1.260 . S
C420 O427 1.240 . S
C420 O428 1.252 . S
C421 O424 1.252 . S
C421 O425 1.260 . S
O422 In416 2.266 . S
O422 C419 1.252 . S
O423 In416 2.326 . S
O423 C419 1.260 . S
O424 In416 2.266 . S
O424 C421 1.252 . S
O425 In416 2.326 . S
O425 C421 1.260 . S
C426 O417 1.240 . S
C426 O418 1.252 . S
O427 In416 2.294 . S
O427 C420 1.240 . S
O428 In416 2.326 . S
O428 C420 1.252 . S
In429 O430 2.294 . S
In429 O431 2.326 . S
In429 O435 2.266 . S
In429 O436 2.326 . S
In429 O437 2.266 . S
In429 O438 2.326 . S
In429 O440 2.294 . S
In429 O441 2.326 . S
O430 In429 2.294 . S
O430 C439 1.240 . S
O431 In429 2.326 . S
O431 C439 1.252 . S
C432 O435 1.252 . S
C432 O436 1.260 . S
C433 O440 1.240 . S
C433 O441 1.252 . S
C434 O437 1.252 . S
C434 O438 1.260 . S
O435 In429 2.266 . S
O435 C432 1.252 . S
O436 In429 2.326 . S
O436 C432 1.260 . S
O437 In429 2.266 . S
O437 C434 1.252 . S
O438 In429 2.326 . S
O438 C434 1.260 . S
C439 O430 1.240 . S
C439 O431 1.252 . S
O440 In429 2.294 . S
O440 C433 1.240 . S
O441 In429 2.326 . S
O441 C433 1.252 . S
In442 O443 2.294 . S
In442 O444 2.326 . S
In442 O448 2.266 . S
In442 O449 2.326 . S
In442 O450 2.266 . S
In442 O451 2.326 . S
In442 O453 2.294 . S
In442 O454 2.326 . S
O443 In442 2.294 . S
O443 C452 1.240 . S
O444 In442 2.326 . S
O444 C452 1.252 . S
C445 O448 1.252 . S
C445 O449 1.260 . S
C446 O453 1.240 . S
C446 O454 1.252 . S
C447 O450 1.252 . S
C447 O451 1.260 . S
O448 In442 2.266 . S
O448 C445 1.252 . S
O449 In442 2.326 . S
O449 C445 1.260 . S
O450 In442 2.266 . S
O450 C447 1.252 . S
O451 In442 2.326 . S
O451 C447 1.260 . S
C452 O443 1.240 . S
C452 O444 1.252 . S
O453 In442 2.294 . S
O453 C446 1.240 . S
O454 In442 2.326 . S
O454 C446 1.252 . S
In455 O456 2.294 . S
In455 O457 2.326 . S
In455 O461 2.266 . S
In455 O462 2.326 . S
In455 O463 2.266 . S
In455 O464 2.326 . S
In455 O466 2.294 . S
In455 O467 2.326 . S
O456 In455 2.294 . S
O456 C465 1.240 . S
O457 In455 2.326 . S
O457 C465 1.252 . S
C458 O461 1.252 . S
C458 O462 1.260 . S
C459 O466 1.240 . S
C459 O467 1.252 . S
C460 O463 1.252 . S
C460 O464 1.260 . S
O461 In455 2.266 . S
O461 C458 1.252 . S
O462 In455 2.326 . S
O462 C458 1.260 . S
O463 In455 2.266 . S
O463 C460 1.252 . S
O464 In455 2.326 . S
O464 C460 1.260 . S
C465 O456 1.240 . S
C465 O457 1.252 . S
O466 In455 2.294 . S
O466 C459 1.240 . S
O467 In455 2.326 . S
O467 C459 1.252 . S
H468 C474 0.930 . S
H469 C478 0.930 . S
H470 C483 0.929 . S
H471 C481 0.929 . S
H472 C476 0.929 . S
H473 C482 0.929 . S
C474 H468 0.930 . S
C474 C475 1.367 . S
C474 C482 1.378 . S
C475 C474 1.367 . S
C475 C483 1.433 . S
C476 H472 0.929 . S
C476 C478 1.378 . S
C476 C480 1.350 . S
C477 C480 1.463 . S
C477 C482 1.350 . S
C477 N485 1.427 . S
C478 H469 0.930 . S
C478 C476 1.378 . S
C478 C479 1.367 . S
C479 C478 1.367 . S
C479 C481 1.433 . S
C480 C476 1.350 . S
C480 C477 1.463 . S
C480 N484 1.427 . S
C481 H471 0.929 . S
C481 C479 1.433 . S
C481 N484 1.384 . S
C482 H473 0.929 . S
C482 C474 1.378 . S
C482 C477 1.350 . S
C483 H470 0.929 . S
C483 C475 1.433 . S
C483 N485 1.384 . S
N484 C480 1.427 . S
N484 C481 1.384 . S
N485 C477 1.427 . S
N485 C483 1.384 . S
H486 C492 0.930 . S
H487 C496 0.930 . S
H488 C501 0.929 . S
H489 C499 0.929 . S
H490 C494 0.929 . S
H491 C500 0.929 . S
C492 H486 0.930 . S
C492 C493 1.367 . S
C492 C500 1.378 . S
C493 C492 1.367 . S
C493 C501 1.433 . S
C494 H490 0.929 . S
C494 C496 1.378 . S
C494 C498 1.350 . S
C495 C498 1.463 1_545 S
C495 C500 1.350 . S
C495 N503 1.427 . S
C496 H487 0.930 . S
C496 C494 1.378 . S
C496 C497 1.367 . S
C497 C496 1.367 . S
C497 C499 1.433 . S
C498 C494 1.350 . S
C498 C495 1.463 1_565 S
C498 N502 1.427 . S
C499 H489 0.929 . S
C499 C497 1.433 . S
C499 N502 1.384 . S
C500 H491 0.929 . S
C500 C492 1.378 . S
C500 C495 1.350 . S
C501 H488 0.929 . S
C501 C493 1.433 . S
C501 N503 1.384 . S
N502 C498 1.427 . S
N502 C499 1.384 . S
N503 C495 1.427 . S
N503 C501 1.384 . S
H504 C510 0.930 . S
H505 C514 0.930 . S
H506 C519 0.929 . S
H507 C517 0.929 . S
H508 C512 0.929 . S
H509 C518 0.929 . S
C510 H504 0.930 . S
C510 C511 1.367 . S
C510 C518 1.378 . S
C511 C510 1.367 . S
C511 C519 1.433 . S
C512 H508 0.929 . S
C512 C514 1.378 . S
C512 C516 1.350 . S
C513 C516 1.463 1_655 S
C513 C518 1.350 . S
C513 N521 1.427 . S
C514 H505 0.930 . S
C514 C512 1.378 . S
C514 C515 1.367 . S
C515 C514 1.367 . S
C515 C517 1.433 . S
C516 C512 1.350 . S
C516 C513 1.463 1_455 S
C516 N520 1.427 . S
C517 H507 0.929 . S
C517 C515 1.433 . S
C517 N520 1.384 . S
C518 H509 0.929 . S
C518 C510 1.378 . S
C518 C513 1.350 . S
C519 H506 0.929 . S
C519 C511 1.433 . S
C519 N521 1.384 . S
N520 C516 1.427 . S
N520 C517 1.384 . S
N521 C513 1.427 . S
N521 C519 1.384 . S
H522 C528 0.930 . S
H523 C532 0.930 . S
H524 C537 0.929 . S
H525 C535 0.929 . S
H526 C530 0.929 . S
H527 C536 0.929 . S
C528 H522 0.930 . S
C528 C529 1.367 . S
C528 C536 1.378 . S
C529 C528 1.367 . S
C529 C537 1.433 . S
C530 H526 0.929 . S
C530 C532 1.378 . S
C530 C534 1.350 . S
C531 C534 1.463 . S
C531 C536 1.350 . S
C531 N539 1.427 . S
C532 H523 0.930 . S
C532 C530 1.378 . S
C532 C533 1.367 . S
C533 C532 1.367 . S
C533 C535 1.433 . S
C534 C530 1.350 . S
C534 C531 1.463 . S
C534 N538 1.427 . S
C535 H525 0.929 . S
C535 C533 1.433 . S
C535 N538 1.384 . S
C536 H527 0.929 . S
C536 C528 1.378 . S
C536 C531 1.350 . S
C537 H524 0.929 . S
C537 C529 1.433 . S
C537 N539 1.384 . S
N538 C534 1.427 . S
N538 C535 1.384 . S
N539 C531 1.427 . S
N539 C537 1.384 . S
H540 C546 0.930 . S
H541 C550 0.930 . S
H542 C555 0.929 . S
H543 C553 0.929 . S
H544 C548 0.929 . S
H545 C554 0.929 . S
C546 H540 0.930 . S
C546 C547 1.367 . S
C546 C554 1.378 . S
C547 C546 1.367 . S
C547 C555 1.433 . S
C548 H544 0.929 . S
C548 C550 1.378 . S
C548 C552 1.350 . S
C549 C552 1.463 1_545 S
C549 C554 1.350 . S
C549 N557 1.427 . S
C550 H541 0.930 . S
C550 C548 1.378 . S
C550 C551 1.367 . S
C551 C550 1.367 . S
C551 C553 1.433 . S
C552 C548 1.350 . S
C552 C549 1.463 1_565 S
C552 N556 1.427 . S
C553 H543 0.929 . S
C553 C551 1.433 . S
C553 N556 1.384 . S
C554 H545 0.929 . S
C554 C546 1.378 . S
C554 C549 1.350 . S
C555 H542 0.929 . S
C555 C547 1.433 . S
C555 N557 1.384 . S
N556 C552 1.427 . S
N556 C553 1.384 . S
N557 C549 1.427 . S
N557 C555 1.384 . S
H558 C564 0.930 . S
H559 C568 0.930 . S
H560 C573 0.929 . S
H561 C571 0.929 . S
H562 C566 0.929 . S
H563 C572 0.929 . S
C564 H558 0.930 . S
C564 C565 1.367 . S
C564 C572 1.378 . S
C565 C564 1.367 . S
C565 C573 1.433 . S
C566 H562 0.929 . S
C566 C568 1.378 . S
C566 C570 1.350 . S
C567 C570 1.463 1_455 S
C567 C572 1.350 . S
C567 N575 1.427 . S
C568 H559 0.930 . S
C568 C566 1.378 . S
C568 C569 1.367 . S
C569 C568 1.367 . S
C569 C571 1.433 . S
C570 C566 1.350 . S
C570 C567 1.463 1_655 S
C570 N574 1.427 . S
C571 H561 0.929 . S
C571 C569 1.433 . S
C571 N574 1.384 . S
C572 H563 0.929 . S
C572 C564 1.378 . S
C572 C567 1.350 . S
C573 H560 0.929 . S
C573 C565 1.433 . S
C573 N575 1.384 . S
N574 C570 1.427 . S
N574 C571 1.384 . S
N575 C567 1.427 . S
N575 C573 1.384 . S
H576 C582 0.930 . S
H577 C586 0.930 . S
H578 C591 0.929 . S
H579 C589 0.929 . S
H580 C584 0.929 . S
H581 C590 0.929 . S
C582 H576 0.930 . S
C582 C583 1.367 . S
C582 C590 1.378 . S
C583 C582 1.367 . S
C583 C591 1.433 . S
C584 H580 0.929 . S
C584 C586 1.378 . S
C584 C588 1.350 . S
C585 C588 1.463 . S
C585 C590 1.350 . S
C585 N593 1.427 . S
C586 H577 0.930 . S
C586 C584 1.378 . S
C586 C587 1.367 . S
C587 C586 1.367 . S
C587 C589 1.433 . S
C588 C584 1.350 . S
C588 C585 1.463 . S
C588 N592 1.427 . S
C589 H579 0.929 . S
C589 C587 1.433 . S
C589 N592 1.384 . S
C590 H581 0.929 . S
C590 C582 1.378 . S
C590 C585 1.350 . S
C591 H578 0.929 . S
C591 C583 1.433 . S
C591 N593 1.384 . S
N592 C588 1.427 . S
N592 C589 1.384 . S
N593 C585 1.427 . S
N593 C591 1.384 . S
H594 C600 0.930 . S
H595 C604 0.930 . S
H596 C609 0.929 . S
H597 C607 0.929 . S
H598 C602 0.929 . S
H599 C608 0.929 . S
C600 H594 0.930 . S
C600 C601 1.367 . S
C600 C608 1.378 . S
C601 C600 1.367 . S
C601 C609 1.433 . S
C602 H598 0.929 . S
C602 C604 1.378 . S
C602 C606 1.350 . S
C603 C606 1.463 . S
C603 C608 1.350 . S
C603 N611 1.427 . S
C604 H595 0.930 . S
C604 C602 1.378 . S
C604 C605 1.367 . S
C605 C604 1.367 . S
C605 C607 1.433 . S
C606 C602 1.350 . S
C606 C603 1.463 . S
C606 N610 1.427 . S
C607 H597 0.929 . S
C607 C605 1.433 . S
C607 N610 1.384 . S
C608 H599 0.929 . S
C608 C600 1.378 . S
C608 C603 1.350 . S
C609 H596 0.929 . S
C609 C601 1.433 . S
C609 N611 1.384 . S
N610 C606 1.427 . S
N610 C607 1.384 . S
N611 C603 1.427 . S
N611 C609 1.384 . S
H612 C618 0.930 . S
H613 C622 0.930 . S
H614 C627 0.929 . S
H615 C625 0.929 . S
H616 C620 0.929 . S
H617 C626 0.929 . S
C618 H612 0.930 . S
C618 C619 1.367 . S
C618 C626 1.378 . S
C619 C618 1.367 . S
C619 C627 1.433 . S
C620 H616 0.929 . S
C620 C622 1.378 . S
C620 C624 1.350 . S
C621 C624 1.463 . S
C621 C626 1.350 . S
C621 N629 1.427 . S
C622 H613 0.930 . S
C622 C620 1.378 . S
C622 C623 1.367 . S
C623 C622 1.367 . S
C623 C625 1.433 . S
C624 C620 1.350 . S
C624 C621 1.463 . S
C624 N628 1.427 . S
C625 H615 0.929 . S
C625 C623 1.433 . S
C625 N628 1.384 . S
C626 H617 0.929 . S
C626 C618 1.378 . S
C626 C621 1.350 . S
C627 H614 0.929 . S
C627 C619 1.433 . S
C627 N629 1.384 . S
N628 C624 1.427 . S
N628 C625 1.384 . S
N629 C621 1.427 . S
N629 C627 1.384 . S
H630 C636 0.930 . S
H631 C640 0.930 . S
H632 C645 0.929 . S
H633 C643 0.929 . S
H634 C638 0.929 . S
H635 C644 0.929 . S
C636 H630 0.930 . S
C636 C637 1.367 . S
C636 C644 1.378 . S
C637 C636 1.367 . S
C637 C645 1.433 . S
C638 H634 0.929 . S
C638 C640 1.378 . S
C638 C642 1.350 . S
C639 C642 1.463 . S
C639 C644 1.350 . S
C639 N647 1.427 . S
C640 H631 0.930 . S
C640 C638 1.378 . S
C640 C641 1.367 . S
C641 C640 1.367 . S
C641 C643 1.433 . S
C642 C638 1.350 . S
C642 C639 1.463 . S
C642 N646 1.427 . S
C643 H633 0.929 . S
C643 C641 1.433 . S
C643 N646 1.384 . S
C644 H635 0.929 . S
C644 C636 1.378 . S
C644 C639 1.350 . S
C645 H632 0.929 . S
C645 C637 1.433 . S
C645 N647 1.384 . S
N646 C642 1.427 . S
N646 C643 1.384 . S
N647 C639 1.427 . S
N647 C645 1.384 . S
H648 C654 0.930 . S
H649 C658 0.930 . S
H650 C663 0.929 1_556 S
H651 C661 0.929 . S
H652 C656 0.929 . S
H653 C662 0.929 . S
C654 H648 0.930 . S
C654 C655 1.367 . S
C654 C662 1.378 . S
C655 C654 1.367 . S
C655 C663 1.433 . S
C656 H652 0.929 . S
C656 C658 1.378 . S
C656 C660 1.350 . S
C657 C660 1.463 . S
C657 C662 1.350 . S
C657 N665 1.427 . S
C658 H649 0.930 . S
C658 C656 1.378 . S
C658 C659 1.367 . S
C659 C658 1.367 . S
C659 C661 1.433 . S
C660 C656 1.350 . S
C660 C657 1.463 . S
C660 N664 1.427 . S
C661 H651 0.929 . S
C661 C659 1.433 . S
C661 N664 1.384 . S
C662 H653 0.929 . S
C662 C654 1.378 . S
C662 C657 1.350 . S
C663 H650 0.929 1_554 S
C663 C655 1.433 . S
C663 N665 1.384 . S
N664 C660 1.427 . S
N664 C661 1.384 . S
N665 C657 1.427 . S
N665 C663 1.384 . S
H666 C672 0.930 . S
H667 C676 0.930 . S
H668 C681 0.929 . S
H669 C679 0.929 . S
H670 C674 0.929 . S
H671 C680 0.929 . S
C672 H666 0.930 . S
C672 C673 1.367 . S
C672 C680 1.378 . S
C673 C672 1.367 . S
C673 C681 1.433 . S
C674 H670 0.929 . S
C674 C676 1.378 . S
C674 C678 1.350 . S
C675 C678 1.463 . S
C675 C680 1.350 . S
C675 N683 1.427 . S
C676 H667 0.930 . S
C676 C674 1.378 . S
C676 C677 1.367 . S
C677 C676 1.367 . S
C677 C679 1.433 . S
C678 C674 1.350 . S
C678 C675 1.463 . S
C678 N682 1.427 . S
C679 H669 0.929 . S
C679 C677 1.433 . S
C679 N682 1.384 . S
C680 H671 0.929 . S
C680 C672 1.378 . S
C680 C675 1.350 . S
C681 H668 0.929 . S
C681 C673 1.433 . S
C681 N683 1.384 . S
N682 C678 1.427 . S
N682 C679 1.384 . S
N683 C675 1.427 . S
N683 C681 1.384 . S
H684 C690 0.930 . S
H685 C694 0.930 . S
H686 C699 0.929 . S
H687 C697 0.929 1_554 S
H688 C692 0.929 . S
H689 C698 0.929 . S
C690 H684 0.930 . S
C690 C691 1.367 . S
C690 C698 1.378 . S
C691 C690 1.367 . S
C691 C699 1.433 . S
C692 H688 0.929 . S
C692 C694 1.378 . S
C692 C696 1.350 . S
C693 C696 1.463 . S
C693 C698 1.350 . S
C693 N701 1.427 . S
C694 H685 0.930 . S
C694 C692 1.378 . S
C694 C695 1.367 . S
C695 C694 1.367 . S
C695 C697 1.433 . S
C696 C692 1.350 . S
C696 C693 1.463 . S
C696 N700 1.427 . S
C697 H687 0.929 1_556 S
C697 C695 1.433 . S
C697 N700 1.384 . S
C698 H689 0.929 . S
C698 C690 1.378 . S
C698 C693 1.350 . S
C699 H686 0.929 . S
C699 C691 1.433 . S
C699 N701 1.384 . S
N700 C696 1.427 . S
N700 C697 1.384 . S
N701 C693 1.427 . S
N701 C699 1.384 . S
H702 C708 0.930 . S
H703 C712 0.930 1_554 S
H704 C717 0.929 . S
H705 C715 0.929 . S
H706 C710 0.929 . S
H707 C716 0.929 . S
C708 H702 0.930 . S
C708 C709 1.367 . S
C708 C716 1.378 . S
C709 C708 1.367 . S
C709 C717 1.433 . S
C710 H706 0.929 . S
C710 C712 1.378 . S
C710 C714 1.350 . S
C711 C714 1.463 . S
C711 C716 1.350 . S
C711 N719 1.427 . S
C712 H703 0.930 1_556 S
C712 C710 1.378 . S
C712 C713 1.367 . S
C713 C712 1.367 . S
C713 C715 1.433 . S
C714 C710 1.350 . S
C714 C711 1.463 . S
C714 N718 1.427 . S
C715 H705 0.929 . S
C715 C713 1.433 . S
C715 N718 1.384 . S
C716 H707 0.929 . S
C716 C708 1.378 . S
C716 C711 1.350 . S
C717 H704 0.929 . S
C717 C709 1.433 . S
C717 N719 1.384 . S
N718 C714 1.427 . S
N718 C715 1.384 . S
N719 C711 1.427 . S
N719 C717 1.384 . S
H720 C726 0.930 1_554 S
H721 C730 0.930 . S
H722 C735 0.929 . S
H723 C733 0.929 . S
H724 C728 0.929 . S
H725 C734 0.929 . S
C726 H720 0.930 1_556 S
C726 C727 1.367 . S
C726 C734 1.378 . S
C727 C726 1.367 . S
C727 C735 1.433 . S
C728 H724 0.929 . S
C728 C730 1.378 . S
C728 C732 1.350 . S
C729 C732 1.463 . S
C729 C734 1.350 . S
C729 N737 1.427 . S
C730 H721 0.930 . S
C730 C728 1.378 . S
C730 C731 1.367 . S
C731 C730 1.367 . S
C731 C733 1.433 . S
C732 C728 1.350 . S
C732 C729 1.463 . S
C732 N736 1.427 . S
C733 H723 0.929 . S
C733 C731 1.433 . S
C733 N736 1.384 . S
C734 H725 0.929 . S
C734 C726 1.378 . S
C734 C729 1.350 . S
C735 H722 0.929 . S
C735 C727 1.433 . S
C735 N737 1.384 . S
N736 C732 1.427 . S
N736 C733 1.384 . S
N737 C729 1.427 . S
N737 C735 1.384 . S
H738 C744 0.930 . S
H739 C748 0.930 . S
H740 C753 0.929 . S
H741 C751 0.929 . S
H742 C746 0.929 . S
H743 C752 0.929 . S
C744 H738 0.930 . S
C744 C745 1.367 . S
C744 C752 1.378 . S
C745 C744 1.367 . S
C745 C753 1.433 . S
C746 H742 0.929 . S
C746 C748 1.378 . S
C746 C750 1.350 . S
C747 C750 1.463 . S
C747 C752 1.350 . S
C747 N755 1.427 . S
C748 H739 0.930 . S
C748 C746 1.378 . S
C748 C749 1.367 . S
C749 C748 1.367 . S
C749 C751 1.433 . S
C750 C746 1.350 . S
C750 C747 1.463 . S
C750 N754 1.427 . S
C751 H741 0.929 . S
C751 C749 1.433 . S
C751 N754 1.384 . S
C752 H743 0.929 . S
C752 C744 1.378 . S
C752 C747 1.350 . S
C753 H740 0.929 . S
C753 C745 1.433 . S
C753 N755 1.384 . S
N754 C750 1.427 . S
N754 C751 1.384 . S
N755 C747 1.427 . S
N755 C753 1.384 . S
H756 C762 0.930 . S
H757 C766 0.930 . S
H758 C771 0.929 . S
H759 C769 0.929 . S
H760 C764 0.929 . S
H761 C770 0.929 . S
C762 H756 0.930 . S
C762 C763 1.367 . S
C762 C770 1.378 . S
C763 C762 1.367 . S
C763 C771 1.433 . S
C764 H760 0.929 . S
C764 C766 1.378 . S
C764 C768 1.350 . S
C765 C768 1.463 . S
C765 C770 1.350 . S
C765 N773 1.427 . S
C766 H757 0.930 . S
C766 C764 1.378 . S
C766 C767 1.367 . S
C767 C766 1.367 . S
C767 C769 1.433 . S
C768 C764 1.350 . S
C768 C765 1.463 . S
C768 N772 1.427 . S
C769 H759 0.929 . S
C769 C767 1.433 . S
C769 N772 1.384 . S
C770 H761 0.929 . S
C770 C762 1.378 . S
C770 C765 1.350 . S
C771 H758 0.929 . S
C771 C763 1.433 . S
C771 N773 1.384 . S
N772 C768 1.427 . S
N772 C769 1.384 . S
N773 C765 1.427 . S
N773 C771 1.384 . S
H774 C780 0.930 . S
H775 C784 0.930 . S
H776 C789 0.929 . S
H777 C787 0.929 . S
H778 C782 0.929 . S
H779 C788 0.929 . S
C780 H774 0.930 . S
C780 C781 1.367 . S
C780 C788 1.378 . S
C781 C780 1.367 . S
C781 C789 1.433 . S
C782 H778 0.929 . S
C782 C784 1.378 . S
C782 C786 1.350 . S
C783 C786 1.463 . S
C783 C788 1.350 . S
C783 N791 1.427 . S
C784 H775 0.930 . S
C784 C782 1.378 . S
C784 C785 1.367 . S
C785 C784 1.367 . S
C785 C787 1.433 . S
C786 C782 1.350 . S
C786 C783 1.463 . S
C786 N790 1.427 . S
C787 H777 0.929 . S
C787 C785 1.433 . S
C787 N790 1.384 . S
C788 H779 0.929 . S
C788 C780 1.378 . S
C788 C783 1.350 . S
C789 H776 0.929 . S
C789 C781 1.433 . S
C789 N791 1.384 . S
N790 C786 1.427 . S
N790 C787 1.384 . S
N791 C783 1.427 . S
N791 C789 1.384 . S
H792 C798 0.930 . S
H793 C802 0.930 . S
H794 C807 0.929 . S
H795 C805 0.929 . S
H796 C800 0.929 . S
H797 C806 0.929 . S
C798 H792 0.930 . S
C798 C799 1.367 . S
C798 C806 1.378 . S
C799 C798 1.367 . S
C799 C807 1.433 . S
C800 H796 0.929 . S
C800 C802 1.378 1_556 S
C800 C804 1.350 . S
C801 C804 1.463 . S
C801 C806 1.350 . S
C801 N809 1.427 . S
C802 H793 0.930 . S
C802 C800 1.378 1_554 S
C802 C803 1.367 . S
C803 C802 1.367 . S
C803 C805 1.433 1_554 S
C804 C800 1.350 . S
C804 C801 1.463 . S
C804 N808 1.427 . S
C805 H795 0.929 . S
C805 C803 1.433 1_556 S
C805 N808 1.384 . S
C806 H797 0.929 . S
C806 C798 1.378 . S
C806 C801 1.350 . S
C807 H794 0.929 . S
C807 C799 1.433 . S
C807 N809 1.384 . S
N808 C804 1.427 . S
N808 C805 1.384 . S
N809 C801 1.427 . S
N809 C807 1.384 . S
H810 C816 0.930 . S
H811 C820 0.930 . S
H812 C825 0.929 . S
H813 C823 0.929 . S
H814 C818 0.929 . S
H815 C824 0.929 . S
C816 H810 0.930 . S
C816 C817 1.367 . S
C816 C824 1.378 1_554 S
C817 C816 1.367 . S
C817 C825 1.433 . S
C818 H814 0.929 . S
C818 C820 1.378 . S
C818 C822 1.350 . S
C819 C822 1.463 . S
C819 C824 1.350 . S
C819 N827 1.427 . S
C820 H811 0.930 . S
C820 C818 1.378 . S
C820 C821 1.367 . S
C821 C820 1.367 . S
C821 C823 1.433 . S
C822 C818 1.350 . S
C822 C819 1.463 . S
C822 N826 1.427 . S
C823 H813 0.929 . S
C823 C821 1.433 . S
C823 N826 1.384 . S
C824 H815 0.929 . S
C824 C816 1.378 1_556 S
C824 C819 1.350 . S
C825 H812 0.929 . S
C825 C817 1.433 . S
C825 N827 1.384 1_554 S
N826 C822 1.427 . S
N826 C823 1.384 . S
N827 C819 1.427 . S
N827 C825 1.384 1_556 S
H828 C834 0.930 . S
H829 C838 0.930 . S
H830 C843 0.929 . S
H831 C841 0.929 . S
H832 C836 0.929 . S
H833 C842 0.929 . S
C834 H828 0.930 . S
C834 C835 1.367 1_556 S
C834 C842 1.378 . S
C835 C834 1.367 1_554 S
C835 C843 1.433 . S
C836 H832 0.929 . S
C836 C838 1.378 . S
C836 C840 1.350 . S
C837 C840 1.463 . S
C837 C842 1.350 . S
C837 N845 1.427 . S
C838 H829 0.930 . S
C838 C836 1.378 . S
C838 C839 1.367 . S
C839 C838 1.367 . S
C839 C841 1.433 . S
C840 C836 1.350 . S
C840 C837 1.463 . S
C840 N844 1.427 . S
C841 H831 0.929 . S
C841 C839 1.433 . S
C841 N844 1.384 . S
C842 H833 0.929 . S
C842 C834 1.378 . S
C842 C837 1.350 . S
C843 H830 0.929 . S
C843 C835 1.433 . S
C843 N845 1.384 1_554 S
N844 C840 1.427 . S
N844 C841 1.384 . S
N845 C837 1.427 . S
N845 C843 1.384 1_556 S
H846 C852 0.930 . S
H847 C856 0.930 . S
H848 C861 0.929 . S
H849 C859 0.929 . S
H850 C854 0.929 . S
H851 C860 0.929 . S
C852 H846 0.930 . S
C852 C853 1.367 . S
C852 C860 1.378 . S
C853 C852 1.367 . S
C853 C861 1.433 . S
C854 H850 0.929 . S
C854 C856 1.378 . S
C854 C858 1.350 . S
C855 C858 1.463 . S
C855 C860 1.350 . S
C855 N863 1.427 . S
C856 H847 0.930 . S
C856 C854 1.378 . S
C856 C857 1.367 . S
C857 C856 1.367 . S
C857 C859 1.433 . S
C858 C854 1.350 . S
C858 C855 1.463 . S
C858 N862 1.427 . S
C859 H849 0.929 . S
C859 C857 1.433 . S
C859 N862 1.384 . S
C860 H851 0.929 . S
C860 C852 1.378 . S
C860 C855 1.350 . S
C861 H848 0.929 . S
C861 C853 1.433 . S
C861 N863 1.384 . S
N862 C858 1.427 . S
N862 C859 1.384 . S
N863 C855 1.427 . S
N863 C861 1.384 . S
H864 C870 0.930 . S
H865 C874 0.930 . S
H866 C879 0.929 . S
H867 C877 0.929 . S
H868 C872 0.929 . S
H869 C878 0.929 . S
C870 H864 0.930 . S
C870 C871 1.367 . S
C870 C878 1.378 . S
C871 C870 1.367 . S
C871 C879 1.433 . S
C872 H868 0.929 . S
C872 C874 1.378 . S
C872 C876 1.350 . S
C873 C876 1.463 . S
C873 C878 1.350 . S
C873 N881 1.427 . S
C874 H865 0.930 . S
C874 C872 1.378 . S
C874 C875 1.367 . S
C875 C874 1.367 . S
C875 C877 1.433 . S
C876 C872 1.350 . S
C876 C873 1.463 . S
C876 N880 1.427 . S
C877 H867 0.929 . S
C877 C875 1.433 . S
C877 N880 1.384 . S
C878 H869 0.929 . S
C878 C870 1.378 . S
C878 C873 1.350 . S
C879 H866 0.929 . S
C879 C871 1.433 . S
C879 N881 1.384 . S
N880 C876 1.427 . S
N880 C877 1.384 . S
N881 C873 1.427 . S
N881 C879 1.384 . S
H882 C888 0.930 . S
H883 C892 0.930 . S
H884 C897 0.929 . S
H885 C895 0.929 . S
H886 C890 0.929 . S
H887 C896 0.929 . S
C888 H882 0.930 . S
C888 C889 1.367 . S
C888 C896 1.378 . S
C889 C888 1.367 . S
C889 C897 1.433 . S
C890 H886 0.929 . S
C890 C892 1.378 . S
C890 C894 1.350 . S
C891 C894 1.463 . S
C891 C896 1.350 . S
C891 N899 1.427 . S
C892 H883 0.930 . S
C892 C890 1.378 . S
C892 C893 1.367 . S
C893 C892 1.367 . S
C893 C895 1.433 . S
C894 C890 1.350 . S
C894 C891 1.463 . S
C894 N898 1.427 . S
C895 H885 0.929 . S
C895 C893 1.433 . S
C895 N898 1.384 . S
C896 H887 0.929 . S
C896 C888 1.378 . S
C896 C891 1.350 . S
C897 H884 0.929 . S
C897 C889 1.433 . S
C897 N899 1.384 . S
N898 C894 1.427 . S
N898 C895 1.384 . S
N899 C891 1.427 . S
N899 C897 1.384 . S
H900 C906 0.930 . S
H901 C910 0.930 . S
H902 C915 0.929 . S
H903 C913 0.929 . S
H904 C908 0.929 . S
H905 C914 0.929 . S
C906 H900 0.930 . S
C906 C907 1.367 . S
C906 C914 1.378 1_556 S
C907 C906 1.367 . S
C907 C915 1.433 . S
C908 H904 0.929 . S
C908 C910 1.378 . S
C908 C912 1.350 . S
C909 C912 1.463 . S
C909 C914 1.350 . S
C909 N917 1.427 . S
C910 H901 0.930 . S
C910 C908 1.378 . S
C910 C911 1.367 . S
C911 C910 1.367 . S
C911 C913 1.433 . S
C912 C908 1.350 . S
C912 C909 1.463 . S
C912 N916 1.427 . S
C913 H903 0.929 . S
C913 C911 1.433 . S
C913 N916 1.384 . S
C914 H905 0.929 . S
C914 C906 1.378 1_554 S
C914 C909 1.350 . S
C915 H902 0.929 . S
C915 C907 1.433 . S
C915 N917 1.384 1_556 S
N916 C912 1.427 . S
N916 C913 1.384 . S
N917 C909 1.427 . S
N917 C915 1.384 1_554 S
H918 C924 0.930 . S
H919 C928 0.930 . S
H920 C933 0.929 . S
H921 C931 0.929 . S
H922 C926 0.929 . S
H923 C932 0.929 . S
C924 H918 0.930 . S
C924 C925 1.367 1_554 S
C924 C932 1.378 . S
C925 C924 1.367 1_556 S
C925 C933 1.433 . S
C926 H922 0.929 . S
C926 C928 1.378 . S
C926 C930 1.350 . S
C927 C930 1.463 . S
C927 C932 1.350 . S
C927 N935 1.427 . S
C928 H919 0.930 . S
C928 C926 1.378 . S
C928 C929 1.367 . S
C929 C928 1.367 . S
C929 C931 1.433 . S
C930 C926 1.350 . S
C930 C927 1.463 . S
C930 N934 1.427 . S
C931 H921 0.929 . S
C931 C929 1.433 . S
C931 N934 1.384 . S
C932 H923 0.929 . S
C932 C924 1.378 . S
C932 C927 1.350 . S
C933 H920 0.929 . S
C933 C925 1.433 . S
C933 N935 1.384 1_556 S
N934 C930 1.427 . S
N934 C931 1.384 . S
N935 C927 1.427 . S
N935 C933 1.384 1_554 S
H936 C942 0.930 . S
H937 C946 0.930 . S
H938 C951 0.929 . S
H939 C949 0.934 . S
H940 C944 0.929 . S
H941 C950 0.929 . S
C942 H936 0.930 . S
C942 C943 1.367 . S
C942 C950 1.378 . S
C943 C942 1.367 . S
C943 C951 1.433 . S
C944 H940 0.929 . S
C944 C946 1.378 1_554 S
C944 C948 1.350 . S
C945 C948 1.463 . S
C945 C950 1.350 . S
C945 N953 1.427 . S
C946 H937 0.930 . S
C946 C944 1.378 1_556 S
C946 C947 1.367 . S
C947 C946 1.367 . S
C947 C949 1.442 . S
C948 C944 1.350 . S
C948 C945 1.463 . S
C948 N952 1.427 . S
C949 H939 0.934 . S
C949 C947 1.442 . S
C949 N952 1.371 1_556 S
C950 H941 0.929 . S
C950 C942 1.378 . S
C950 C945 1.350 . S
C951 H938 0.929 . S
C951 C943 1.433 . S
C951 N953 1.384 . S
N952 C948 1.427 . S
N952 C949 1.371 1_554 S
N953 C945 1.427 . S
N953 C951 1.384 . S
H954 C960 0.930 . S
H955 C964 0.930 . S
H956 C969 0.929 . S
H957 C967 0.929 . S
H958 C962 0.929 . S
H959 C968 0.929 . S
C960 H954 0.930 . S
C960 C961 1.367 . S
C960 C968 1.378 . S
C961 C960 1.367 . S
C961 C969 1.433 . S
C962 H958 0.929 . S
C962 C964 1.378 . S
C962 C966 1.350 . S
C963 C966 1.463 . S
C963 C968 1.350 . S
C963 N971 1.427 . S
C964 H955 0.930 . S
C964 C962 1.378 . S
C964 C965 1.367 . S
C965 C964 1.367 . S
C965 C967 1.433 . S
C966 C962 1.350 . S
C966 C963 1.463 . S
C966 N970 1.427 . S
C967 H957 0.929 . S
C967 C965 1.433 . S
C967 N970 1.384 . S
C968 H959 0.929 . S
C968 C960 1.378 . S
C968 C963 1.350 . S
C969 H956 0.929 . S
C969 C961 1.433 . S
C969 N971 1.384 . S
N970 C966 1.427 . S
N970 C967 1.384 . S
N971 C963 1.427 . S
N971 C969 1.384 . S
H972 C978 0.930 . S
H973 C982 0.930 . S
H974 C987 0.929 . S
H975 C985 0.929 . S
H976 C980 0.929 . S
H977 C986 0.929 . S
C978 H972 0.930 . S
C978 C979 1.367 . S
C978 C986 1.378 . S
C979 C978 1.367 . S
C979 C987 1.433 . S
C980 H976 0.929 . S
C980 C982 1.378 . S
C980 C984 1.350 . S
C981 C984 1.463 . S
C981 C986 1.350 . S
C981 N989 1.427 . S
C982 H973 0.930 . S
C982 C980 1.378 . S
C982 C983 1.367 . S
C983 C982 1.367 . S
C983 C985 1.433 . S
C984 C980 1.350 . S
C984 C981 1.463 . S
C984 N988 1.427 . S
C985 H975 0.929 . S
C985 C983 1.433 . S
C985 N988 1.384 . S
C986 H977 0.929 . S
C986 C978 1.378 . S
C986 C981 1.350 . S
C987 H974 0.929 . S
C987 C979 1.433 . S
C987 N989 1.384 . S
N988 C984 1.427 . S
N988 C985 1.384 . S
N989 C981 1.427 . S
N989 C987 1.384 . S
H990 C996 0.930 . S
H991 C1000 0.930 . S
H992 C1005 0.929 . S
H993 C1003 0.929 . S
H994 C998 0.929 . S
H995 C1004 0.929 . S
C996 H990 0.930 . S
C996 C997 1.367 . S
C996 C1004 1.378 . S
C997 C996 1.367 . S
C997 C1005 1.433 . S
C998 H994 0.929 . S
C998 C1000 1.378 . S
C998 C1002 1.350 . S
C999 C1002 1.463 . S
C999 C1004 1.350 . S
C999 N1007 1.427 . S
C1000 H991 0.930 . S
C1000 C998 1.378 . S
C1000 C1001 1.367 . S
C1001 C1000 1.367 . S
C1001 C1003 1.433 . S
C1002 C998 1.350 . S
C1002 C999 1.463 . S
C1002 N1006 1.427 . S
C1003 H993 0.929 . S
C1003 C1001 1.433 . S
C1003 N1006 1.384 . S
C1004 H995 0.929 . S
C1004 C996 1.378 . S
C1004 C999 1.350 . S
C1005 H992 0.929 . S
C1005 C997 1.433 . S
C1005 N1007 1.384 . S
N1006 C1002 1.427 . S
N1006 C1003 1.384 . S
N1007 C999 1.427 . S
N1007 C1005 1.384 . S
H1008 C1014 0.930 . S
H1009 C1018 0.930 . S
H1010 C1023 0.929 . S
H1011 C1021 0.929 . S
H1012 C1016 0.929 . S
H1013 C1022 0.929 . S
C1014 H1008 0.930 . S
C1014 C1015 1.367 . S
C1014 C1022 1.378 . S
C1015 C1014 1.367 . S
C1015 C1023 1.433 . S
C1016 H1012 0.929 . S
C1016 C1018 1.378 . S
C1016 C1020 1.350 . S
C1017 C1020 1.463 . S
C1017 C1022 1.350 . S
C1017 N1025 1.427 . S
C1018 H1009 0.930 . S
C1018 C1016 1.378 . S
C1018 C1019 1.367 . S
C1019 C1018 1.367 . S
C1019 C1021 1.433 . S
C1020 C1016 1.350 . S
C1020 C1017 1.463 . S
C1020 N1024 1.427 . S
C1021 H1011 0.929 . S
C1021 C1019 1.433 . S
C1021 N1024 1.384 . S
C1022 H1013 0.929 . S
C1022 C1014 1.378 . S
C1022 C1017 1.350 . S
C1023 H1010 0.929 . S
C1023 C1015 1.433 . S
C1023 N1025 1.384 . S
N1024 C1020 1.427 . S
N1024 C1021 1.384 . S
N1025 C1017 1.427 . S
N1025 C1023 1.384 . S
H1026 C1032 0.930 . S
H1027 C1036 0.930 . S
H1028 C1041 0.929 . S
H1029 C1039 0.929 . S
H1030 C1034 0.929 . S
H1031 C1040 0.929 . S
C1032 H1026 0.930 . S
C1032 C1033 1.367 . S
C1032 C1040 1.378 . S
C1033 C1032 1.367 . S
C1033 C1041 1.433 . S
C1034 H1030 0.929 . S
C1034 C1036 1.378 . S
C1034 C1038 1.350 . S
C1035 C1038 1.463 . S
C1035 C1040 1.350 . S
C1035 N1043 1.427 . S
C1036 H1027 0.930 . S
C1036 C1034 1.378 . S
C1036 C1037 1.367 . S
C1037 C1036 1.367 . S
C1037 C1039 1.433 . S
C1038 C1034 1.350 . S
C1038 C1035 1.463 . S
C1038 N1042 1.427 . S
C1039 H1029 0.929 . S
C1039 C1037 1.433 . S
C1039 N1042 1.384 . S
C1040 H1031 0.929 . S
C1040 C1032 1.378 . S
C1040 C1035 1.350 . S
C1041 H1028 0.929 . S
C1041 C1033 1.433 . S
C1041 N1043 1.384 . S
N1042 C1038 1.427 . S
N1042 C1039 1.384 . S
N1043 C1035 1.427 . S
N1043 C1041 1.384 . S
H1044 C1050 0.930 . S
H1045 C1054 0.930 . S
H1046 C1059 0.929 . S
H1047 C1057 0.929 . S
H1048 C1052 0.929 . S
H1049 C1058 0.929 . S
C1050 H1044 0.930 . S
C1050 C1051 1.367 . S
C1050 C1058 1.378 . S
C1051 C1050 1.367 . S
C1051 C1059 1.433 . S
C1052 H1048 0.929 . S
C1052 C1054 1.378 . S
C1052 C1056 1.350 . S
C1053 C1056 1.463 . S
C1053 C1058 1.350 . S
C1053 N1061 1.427 . S
C1054 H1045 0.930 . S
C1054 C1052 1.378 . S
C1054 C1055 1.367 . S
C1055 C1054 1.367 . S
C1055 C1057 1.433 . S
C1056 C1052 1.350 . S
C1056 C1053 1.463 . S
C1056 N1060 1.427 . S
C1057 H1047 0.929 . S
C1057 C1055 1.433 . S
C1057 N1060 1.384 . S
C1058 H1049 0.929 . S
C1058 C1050 1.378 . S
C1058 C1053 1.350 . S
C1059 H1046 0.929 . S
C1059 C1051 1.433 . S
C1059 N1061 1.384 . S
N1060 C1056 1.427 . S
N1060 C1057 1.384 . S
N1061 C1053 1.427 . S
N1061 C1059 1.384 . S
H1062 C1068 0.930 . S
H1063 C1072 0.930 . S
H1064 C1077 0.929 . S
H1065 C1075 0.929 . S
H1066 C1070 0.929 . S
H1067 C1076 0.929 . S
C1068 H1062 0.930 . S
C1068 C1069 1.367 . S
C1068 C1076 1.378 . S
C1069 C1068 1.367 . S
C1069 C1077 1.433 . S
C1070 H1066 0.929 . S
C1070 C1072 1.378 1_556 S
C1070 C1074 1.350 . S
C1071 C1074 1.463 . S
C1071 C1076 1.350 . S
C1071 N1079 1.427 . S
C1072 H1063 0.930 . S
C1072 C1070 1.378 1_554 S
C1072 C1073 1.367 . S
C1073 C1072 1.367 . S
C1073 C1075 1.433 . S
C1074 C1070 1.350 . S
C1074 C1071 1.463 . S
C1074 N1078 1.427 . S
C1075 H1065 0.929 . S
C1075 C1073 1.433 . S
C1075 N1078 1.384 1_554 S
C1076 H1067 0.929 . S
C1076 C1068 1.378 . S
C1076 C1071 1.350 . S
C1077 H1064 0.929 . S
C1077 C1069 1.433 . S
C1077 N1079 1.384 . S
N1078 C1074 1.427 . S
N1078 C1075 1.384 1_556 S
N1079 C1071 1.427 . S
N1079 C1077 1.384 . S
H1080 C1086 0.930 . S
H1081 C1090 0.930 . S
H1082 C1095 0.929 . S
H1083 C1093 0.929 . S
H1084 C1088 0.929 . S
H1085 C1094 0.929 . S
C1086 H1080 0.930 . S
C1086 C1087 1.367 . S
C1086 C1094 1.378 1_554 S
C1087 C1086 1.367 . S
C1087 C1095 1.433 1_554 S
C1088 H1084 0.929 . S
C1088 C1090 1.378 . S
C1088 C1092 1.350 . S
C1089 C1092 1.463 . S
C1089 C1094 1.350 . S
C1089 N1097 1.427 . S
C1090 H1081 0.930 . S
C1090 C1088 1.378 . S
C1090 C1091 1.367 . S
C1091 C1090 1.367 . S
C1091 C1093 1.433 . S
C1092 C1088 1.350 . S
C1092 C1089 1.463 . S
C1092 N1096 1.427 . S
C1093 H1083 0.929 . S
C1093 C1091 1.433 . S
C1093 N1096 1.384 . S
C1094 H1085 0.929 . S
C1094 C1086 1.378 1_556 S
C1094 C1089 1.350 . S
C1095 H1082 0.929 . S
C1095 C1087 1.433 1_556 S
C1095 N1097 1.384 . S
N1096 C1092 1.427 . S
N1096 C1093 1.384 . S
N1097 C1089 1.427 . S
N1097 C1095 1.384 . S
H1098 C1104 0.930 . S
H1099 C1108 0.930 . S
H1100 C1113 0.929 . S
H1101 C1111 0.929 . S
H1102 C1106 0.929 . S
H1103 C1112 0.929 . S
C1104 H1098 0.930 . S
C1104 C1105 1.367 . S
C1104 C1112 1.378 . S
C1105 C1104 1.367 . S
C1105 C1113 1.433 . S
C1106 H1102 0.929 . S
C1106 C1108 1.378 1_556 S
C1106 C1110 1.350 . S
C1107 C1110 1.463 . S
C1107 C1112 1.350 . S
C1107 N1115 1.427 . S
C1108 H1099 0.930 . S
C1108 C1106 1.378 1_554 S
C1108 C1109 1.367 . S
C1109 C1108 1.367 . S
C1109 C1111 1.433 1_554 S
C1110 C1106 1.350 . S
C1110 C1107 1.463 . S
C1110 N1114 1.427 . S
C1111 H1101 0.929 . S
C1111 C1109 1.433 1_556 S
C1111 N1114 1.384 . S
C1112 H1103 0.929 . S
C1112 C1104 1.378 . S
C1112 C1107 1.350 . S
C1113 H1100 0.929 . S
C1113 C1105 1.433 . S
C1113 N1115 1.384 . S
N1114 C1110 1.427 . S
N1114 C1111 1.384 . S
N1115 C1107 1.427 . S
N1115 C1113 1.384 . S
H1116 C1122 0.930 . S
H1117 C1126 0.930 . S
H1118 C1131 0.929 . S
H1119 C1129 0.929 . S
H1120 C1124 0.929 . S
H1121 C1130 0.929 . S
C1122 H1116 0.930 . S
C1122 C1123 1.367 . S
C1122 C1130 1.378 . S
C1123 C1122 1.367 . S
C1123 C1131 1.433 . S
C1124 H1120 0.929 . S
C1124 C1126 1.378 . S
C1124 C1128 1.350 . S
C1125 C1128 1.463 . S
C1125 C1130 1.350 . S
C1125 N1133 1.427 . S
C1126 H1117 0.930 . S
C1126 C1124 1.378 . S
C1126 C1127 1.367 . S
C1127 C1126 1.367 . S
C1127 C1129 1.433 . S
C1128 C1124 1.350 . S
C1128 C1125 1.463 . S
C1128 N1132 1.427 . S
C1129 H1119 0.929 . S
C1129 C1127 1.433 . S
C1129 N1132 1.384 . S
C1130 H1121 0.929 . S
C1130 C1122 1.378 . S
C1130 C1125 1.350 . S
C1131 H1118 0.929 . S
C1131 C1123 1.433 . S
C1131 N1133 1.384 . S
N1132 C1128 1.427 . S
N1132 C1129 1.384 . S
N1133 C1125 1.427 . S
N1133 C1131 1.384 . S
H1134 C1140 0.930 . S
H1135 C1144 0.930 . S
H1136 C1149 0.929 . S
H1137 C1147 0.929 . S
H1138 C1142 0.929 . S
H1139 C1148 0.929 . S
C1140 H1134 0.930 . S
C1140 C1141 1.367 . S
C1140 C1148 1.378 . S
C1141 C1140 1.367 . S
C1141 C1149 1.433 . S
C1142 H1138 0.929 . S
C1142 C1144 1.378 . S
C1142 C1146 1.350 . S
C1143 C1146 1.463 . S
C1143 C1148 1.350 . S
C1143 N1151 1.427 . S
C1144 H1135 0.930 . S
C1144 C1142 1.378 . S
C1144 C1145 1.367 . S
C1145 C1144 1.367 . S
C1145 C1147 1.433 . S
C1146 C1142 1.350 . S
C1146 C1143 1.463 . S
C1146 N1150 1.427 . S
C1147 H1137 0.929 . S
C1147 C1145 1.433 . S
C1147 N1150 1.384 . S
C1148 H1139 0.929 . S
C1148 C1140 1.378 . S
C1148 C1143 1.350 . S
C1149 H1136 0.929 . S
C1149 C1141 1.433 . S
C1149 N1151 1.384 . S
N1150 C1146 1.427 . S
N1150 C1147 1.384 . S
N1151 C1143 1.427 . S
N1151 C1149 1.384 . S
H1152 C1158 0.930 . S
H1153 C1162 0.930 . S
H1154 C1167 0.929 . S
H1155 C1165 0.929 . S
H1156 C1160 0.929 . S
H1157 C1166 0.929 . S
C1158 H1152 0.930 . S
C1158 C1159 1.367 . S
C1158 C1166 1.378 . S
C1159 C1158 1.367 . S
C1159 C1167 1.433 . S
C1160 H1156 0.929 . S
C1160 C1162 1.378 . S
C1160 C1164 1.350 . S
C1161 C1164 1.463 . S
C1161 C1166 1.350 . S
C1161 N1169 1.427 . S
C1162 H1153 0.930 . S
C1162 C1160 1.378 . S
C1162 C1163 1.367 . S
C1163 C1162 1.367 . S
C1163 C1165 1.433 . S
C1164 C1160 1.350 . S
C1164 C1161 1.463 . S
C1164 N1168 1.427 . S
C1165 H1155 0.929 . S
C1165 C1163 1.433 . S
C1165 N1168 1.384 . S
C1166 H1157 0.929 . S
C1166 C1158 1.378 . S
C1166 C1161 1.350 . S
C1167 H1154 0.929 . S
C1167 C1159 1.433 . S
C1167 N1169 1.384 . S
N1168 C1164 1.427 . S
N1168 C1165 1.384 . S
N1169 C1161 1.427 . S
N1169 C1167 1.384 . S
H1170 C1176 0.930 . S
H1171 C1180 0.930 . S
H1172 C1185 0.929 . S
H1173 C1183 0.929 . S
H1174 C1178 0.929 . S
H1175 C1184 0.929 . S
C1176 H1170 0.930 . S
C1176 C1177 1.367 . S
C1176 C1184 1.378 . S
C1177 C1176 1.367 . S
C1177 C1185 1.433 . S
C1178 H1174 0.929 . S
C1178 C1180 1.378 . S
C1178 C1182 1.350 . S
C1179 C1182 1.463 . S
C1179 C1184 1.350 . S
C1179 N1187 1.427 . S
C1180 H1171 0.930 . S
C1180 C1178 1.378 . S
C1180 C1181 1.367 . S
C1181 C1180 1.367 . S
C1181 C1183 1.433 . S
C1182 C1178 1.350 . S
C1182 C1179 1.463 . S
C1182 N1186 1.427 . S
C1183 H1173 0.929 . S
C1183 C1181 1.433 . S
C1183 N1186 1.384 . S
C1184 H1175 0.929 . S
C1184 C1176 1.378 . S
C1184 C1179 1.350 . S
C1185 H1172 0.929 . S
C1185 C1177 1.433 . S
C1185 N1187 1.384 . S
N1186 C1182 1.427 . S
N1186 C1183 1.384 . S
N1187 C1179 1.427 . S
N1187 C1185 1.384 . S
H1188 C1194 0.930 . S
H1189 C1198 0.930 . S
H1190 C1203 0.929 . S
H1191 C1201 0.929 . S
H1192 C1196 0.929 . S
H1193 C1202 0.929 . S
C1194 H1188 0.930 . S
C1194 C1195 1.367 . S
C1194 C1202 1.378 . S
C1195 C1194 1.367 . S
C1195 C1203 1.433 . S
C1196 H1192 0.929 . S
C1196 C1198 1.378 . S
C1196 C1200 1.350 . S
C1197 C1200 1.463 . S
C1197 C1202 1.350 . S
C1197 N1205 1.427 . S
C1198 H1189 0.930 . S
C1198 C1196 1.378 . S
C1198 C1199 1.367 . S
C1199 C1198 1.367 . S
C1199 C1201 1.433 . S
C1200 C1196 1.350 . S
C1200 C1197 1.463 . S
C1200 N1204 1.427 . S
C1201 H1191 0.929 . S
C1201 C1199 1.433 . S
C1201 N1204 1.384 . S
C1202 H1193 0.929 . S
C1202 C1194 1.378 . S
C1202 C1197 1.350 . S
C1203 H1190 0.929 . S
C1203 C1195 1.433 . S
C1203 N1205 1.384 . S
N1204 C1200 1.427 . S
N1204 C1201 1.384 . S
N1205 C1197 1.427 . S
N1205 C1203 1.384 . S
H1206 C1212 0.930 . S
H1207 C1216 0.930 . S
H1208 C1221 0.929 . S
H1209 C1219 0.929 . S
H1210 C1214 0.929 . S
H1211 C1220 0.929 . S
C1212 H1206 0.930 . S
C1212 C1213 1.367 . S
C1212 C1220 1.378 . S
C1213 C1212 1.367 . S
C1213 C1221 1.433 . S
C1214 H1210 0.929 . S
C1214 C1216 1.378 . S
C1214 C1218 1.350 . S
C1215 C1218 1.463 . S
C1215 C1220 1.350 . S
C1215 N1223 1.427 . S
C1216 H1207 0.930 . S
C1216 C1214 1.378 . S
C1216 C1217 1.367 . S
C1217 C1216 1.367 . S
C1217 C1219 1.433 . S
C1218 C1214 1.350 . S
C1218 C1215 1.463 . S
C1218 N1222 1.427 . S
C1219 H1209 0.929 . S
C1219 C1217 1.433 . S
C1219 N1222 1.384 . S
C1220 H1211 0.929 . S
C1220 C1212 1.378 . S
C1220 C1215 1.350 . S
C1221 H1208 0.929 . S
C1221 C1213 1.433 . S
C1221 N1223 1.384 . S
N1222 C1218 1.427 . S
N1222 C1219 1.384 . S
N1223 C1215 1.427 . S
N1223 C1221 1.384 . S
H1224 C1230 0.930 . S
H1225 C1234 0.930 . S
H1226 C1239 0.929 . S
H1227 C1237 0.929 . S
H1228 C1232 0.929 . S
H1229 C1238 0.929 . S
C1230 H1224 0.930 . S
C1230 C1231 1.367 . S
C1230 C1238 1.378 . S
C1231 C1230 1.367 . S
C1231 C1239 1.433 . S
C1232 H1228 0.929 . S
C1232 C1234 1.378 . S
C1232 C1236 1.350 . S
C1233 C1236 1.463 . S
C1233 C1238 1.350 . S
C1233 N1241 1.427 . S
C1234 H1225 0.930 . S
C1234 C1232 1.378 . S
C1234 C1235 1.367 . S
C1235 C1234 1.367 . S
C1235 C1237 1.433 . S
C1236 C1232 1.350 . S
C1236 C1233 1.463 . S
C1236 N1240 1.427 . S
C1237 H1227 0.929 . S
C1237 C1235 1.433 . S
C1237 N1240 1.384 . S
C1238 H1229 0.929 . S
C1238 C1230 1.378 . S
C1238 C1233 1.350 . S
C1239 H1226 0.929 . S
C1239 C1231 1.433 . S
C1239 N1241 1.384 . S
N1240 C1236 1.427 . S
N1240 C1237 1.384 . S
N1241 C1233 1.427 . S
N1241 C1239 1.384 . S
H1242 C1248 0.930 . S
H1243 C1252 0.930 . S
H1244 C1257 0.929 . S
H1245 C1255 0.929 . S
H1246 C1250 0.929 . S
H1247 C1256 0.929 . S
C1248 H1242 0.930 . S
C1248 C1249 1.367 . S
C1248 C1256 1.378 . S
C1249 C1248 1.367 . S
C1249 C1257 1.433 . S
C1250 H1246 0.929 . S
C1250 C1252 1.378 . S
C1250 C1254 1.350 . S
C1251 C1254 1.463 . S
C1251 C1256 1.350 . S
C1251 N1259 1.427 . S
C1252 H1243 0.930 . S
C1252 C1250 1.378 . S
C1252 C1253 1.367 . S
C1253 C1252 1.367 . S
C1253 C1255 1.433 . S
C1254 C1250 1.350 . S
C1254 C1251 1.463 . S
C1254 N1258 1.427 . S
C1255 H1245 0.929 . S
C1255 C1253 1.433 . S
C1255 N1258 1.384 . S
C1256 H1247 0.929 . S
C1256 C1248 1.378 . S
C1256 C1251 1.350 . S
C1257 H1244 0.929 . S
C1257 C1249 1.433 . S
C1257 N1259 1.384 . S
N1258 C1254 1.427 . S
N1258 C1255 1.384 . S
N1259 C1251 1.427 . S
N1259 C1257 1.384 . S
H1260 C1266 0.930 . S
H1261 C1270 0.930 . S
H1262 C1275 0.929 . S
H1263 C1273 0.929 . S
H1264 C1268 0.929 . S
H1265 C1274 0.929 . S
C1266 H1260 0.930 . S
C1266 C1267 1.367 . S
C1266 C1274 1.378 . S
C1267 C1266 1.367 . S
C1267 C1275 1.433 . S
C1268 H1264 0.929 . S
C1268 C1270 1.378 . S
C1268 C1272 1.350 . S
C1269 C1272 1.463 . S
C1269 C1274 1.350 . S
C1269 N1277 1.427 . S
C1270 H1261 0.930 . S
C1270 C1268 1.378 . S
C1270 C1271 1.367 . S
C1271 C1270 1.367 . S
C1271 C1273 1.433 . S
C1272 C1268 1.350 . S
C1272 C1269 1.463 . S
C1272 N1276 1.427 . S
C1273 H1263 0.929 . S
C1273 C1271 1.433 . S
C1273 N1276 1.384 . S
C1274 H1265 0.929 . S
C1274 C1266 1.378 . S
C1274 C1269 1.350 . S
C1275 H1262 0.929 . S
C1275 C1267 1.433 . S
C1275 N1277 1.384 . S
N1276 C1272 1.427 . S
N1276 C1273 1.384 . S
N1277 C1269 1.427 . S
N1277 C1275 1.384 . S
H1278 C1284 0.930 . S
H1279 C1288 0.930 . S
H1280 C1293 0.929 . S
H1281 C1291 0.929 . S
H1282 C1286 0.929 . S
H1283 C1292 0.929 . S
C1284 H1278 0.930 . S
C1284 C1285 1.367 . S
C1284 C1292 1.378 . S
C1285 C1284 1.367 . S
C1285 C1293 1.433 . S
C1286 H1282 0.929 . S
C1286 C1288 1.378 . S
C1286 C1290 1.350 . S
C1287 C1290 1.463 . S
C1287 C1292 1.350 . S
C1287 N1295 1.427 . S
C1288 H1279 0.930 . S
C1288 C1286 1.378 . S
C1288 C1289 1.367 . S
C1289 C1288 1.367 . S
C1289 C1291 1.433 . S
C1290 C1286 1.350 . S
C1290 C1287 1.463 . S
C1290 N1294 1.427 . S
C1291 H1281 0.929 . S
C1291 C1289 1.433 . S
C1291 N1294 1.384 . S
C1292 H1283 0.929 . S
C1292 C1284 1.378 . S
C1292 C1287 1.350 . S
C1293 H1280 0.929 . S
C1293 C1285 1.433 . S
C1293 N1295 1.384 . S
N1294 C1290 1.427 . S
N1294 C1291 1.384 . S
N1295 C1287 1.427 . S
N1295 C1293 1.384 . S
H1296 C1302 0.930 . S
H1297 C1306 0.930 . S
H1298 C1311 0.929 . S
H1299 C1309 0.929 . S
H1300 C1304 0.929 . S
H1301 C1310 0.929 . S
C1302 H1296 0.930 . S
C1302 C1303 1.367 . S
C1302 C1310 1.378 . S
C1303 C1302 1.367 . S
C1303 C1311 1.433 . S
C1304 H1300 0.929 . S
C1304 C1306 1.378 . S
C1304 C1308 1.350 . S
C1305 C1308 1.463 . S
C1305 C1310 1.350 . S
C1305 N1313 1.427 . S
C1306 H1297 0.930 . S
C1306 C1304 1.378 . S
C1306 C1307 1.367 . S
C1307 C1306 1.367 . S
C1307 C1309 1.433 . S
C1308 C1304 1.350 . S
C1308 C1305 1.463 . S
C1308 N1312 1.427 . S
C1309 H1299 0.929 . S
C1309 C1307 1.433 . S
C1309 N1312 1.384 . S
C1310 H1301 0.929 . S
C1310 C1302 1.378 . S
C1310 C1305 1.350 . S
C1311 H1298 0.929 . S
C1311 C1303 1.433 . S
C1311 N1313 1.384 . S
N1312 C1308 1.427 . S
N1312 C1309 1.384 . S
N1313 C1305 1.427 . S
N1313 C1311 1.384 . S
H1314 C1320 0.930 . S
H1315 C1324 0.930 . S
H1316 C1329 0.929 . S
H1317 C1327 0.929 . S
H1318 C1322 0.929 . S
H1319 C1328 0.929 . S
C1320 H1314 0.930 . S
C1320 C1321 1.367 . S
C1320 C1328 1.378 . S
C1321 C1320 1.367 . S
C1321 C1329 1.433 . S
C1322 H1318 0.929 . S
C1322 C1324 1.378 . S
C1322 C1326 1.350 . S
C1323 C1326 1.463 . S
C1323 C1328 1.350 . S
C1323 N1331 1.427 . S
C1324 H1315 0.930 . S
C1324 C1322 1.378 . S
C1324 C1325 1.367 . S
C1325 C1324 1.367 . S
C1325 C1327 1.433 . S
C1326 C1322 1.350 . S
C1326 C1323 1.463 . S
C1326 N1330 1.427 . S
C1327 H1317 0.929 . S
C1327 C1325 1.433 . S
C1327 N1330 1.384 . S
C1328 H1319 0.929 . S
C1328 C1320 1.378 . S
C1328 C1323 1.350 . S
C1329 H1316 0.929 . S
C1329 C1321 1.433 . S
C1329 N1331 1.384 . S
N1330 C1326 1.427 . S
N1330 C1327 1.384 . S
N1331 C1323 1.427 . S
N1331 C1329 1.384 . S
H1332 C1338 0.930 . S
H1333 C1342 0.930 . S
H1334 C1347 0.929 . S
H1335 C1345 0.929 . S
H1336 C1340 0.929 . S
H1337 C1346 0.929 . S
C1338 H1332 0.930 . S
C1338 C1339 1.367 . S
C1338 C1346 1.378 . S
C1339 C1338 1.367 . S
C1339 C1347 1.433 . S
C1340 H1336 0.929 . S
C1340 C1342 1.378 . S
C1340 C1344 1.350 . S
C1341 C1344 1.463 . S
C1341 C1346 1.350 . S
C1341 N1349 1.427 . S
C1342 H1333 0.930 . S
C1342 C1340 1.378 . S
C1342 C1343 1.367 . S
C1343 C1342 1.367 . S
C1343 C1345 1.433 . S
C1344 C1340 1.350 . S
C1344 C1341 1.463 . S
C1344 N1348 1.427 . S
C1345 H1335 0.929 . S
C1345 C1343 1.433 . S
C1345 N1348 1.384 . S
C1346 H1337 0.929 . S
C1346 C1338 1.378 . S
C1346 C1341 1.350 . S
C1347 H1334 0.929 . S
C1347 C1339 1.433 . S
C1347 N1349 1.384 . S
N1348 C1344 1.427 . S
N1348 C1345 1.384 . S
N1349 C1341 1.427 . S
N1349 C1347 1.384 . S
H1350 C1356 0.930 . S
H1351 C1360 0.930 . S
H1352 C1365 0.929 . S
H1353 C1363 0.929 . S
H1354 C1358 0.929 . S
H1355 C1364 0.929 . S
C1356 H1350 0.930 . S
C1356 C1357 1.367 . S
C1356 C1364 1.378 . S
C1357 C1356 1.367 . S
C1357 C1365 1.433 . S
C1358 H1354 0.929 . S
C1358 C1360 1.378 . S
C1358 C1362 1.350 . S
C1359 C1362 1.463 . S
C1359 C1364 1.350 . S
C1359 N1367 1.427 . S
C1360 H1351 0.930 . S
C1360 C1358 1.378 . S
C1360 C1361 1.367 . S
C1361 C1360 1.367 . S
C1361 C1363 1.433 . S
C1362 C1358 1.350 . S
C1362 C1359 1.463 . S
C1362 N1366 1.427 . S
C1363 H1353 0.929 . S
C1363 C1361 1.433 . S
C1363 N1366 1.384 . S
C1364 H1355 0.929 . S
C1364 C1356 1.378 . S
C1364 C1359 1.350 . S
C1365 H1352 0.929 . S
C1365 C1357 1.433 . S
C1365 N1367 1.384 . S
N1366 C1362 1.427 . S
N1366 C1363 1.384 . S
N1367 C1359 1.427 . S
N1367 C1365 1.384 . S
H1368 C1374 0.930 . S
H1369 C1378 0.930 . S
H1370 C1383 0.929 . S
H1371 C1381 0.929 . S
H1372 C1376 0.929 . S
H1373 C1382 0.929 . S
C1374 H1368 0.930 . S
C1374 C1375 1.367 . S
C1374 C1382 1.378 . S
C1375 C1374 1.367 . S
C1375 C1383 1.433 . S
C1376 H1372 0.929 . S
C1376 C1378 1.378 . S
C1376 C1380 1.350 . S
C1377 C1380 1.463 . S
C1377 C1382 1.350 . S
C1377 N1385 1.427 . S
C1378 H1369 0.930 . S
C1378 C1376 1.378 . S
C1378 C1379 1.367 . S
C1379 C1378 1.367 . S
C1379 C1381 1.433 . S
C1380 C1376 1.350 . S
C1380 C1377 1.463 . S
C1380 N1384 1.427 . S
C1381 H1371 0.929 . S
C1381 C1379 1.433 . S
C1381 N1384 1.384 . S
C1382 H1373 0.929 . S
C1382 C1374 1.378 . S
C1382 C1377 1.350 . S
C1383 H1370 0.929 . S
C1383 C1375 1.433 . S
C1383 N1385 1.384 . S
N1384 C1380 1.427 . S
N1384 C1381 1.384 . S
N1385 C1377 1.427 . S
N1385 C1383 1.384 . S
H1386 C1392 0.930 . S
H1387 C1396 0.930 . S
H1388 C1401 0.929 . S
H1389 C1399 0.929 . S
H1390 C1394 0.929 . S
H1391 C1400 0.929 . S
C1392 H1386 0.930 . S
C1392 C1393 1.367 1_554 S
C1392 C1400 1.378 . S
C1393 C1392 1.367 1_556 S
C1393 C1401 1.433 . S
C1394 H1390 0.929 . S
C1394 C1396 1.378 . S
C1394 C1398 1.350 . S
C1395 C1398 1.463 . S
C1395 C1400 1.350 . S
C1395 N1403 1.427 . S
C1396 H1387 0.930 . S
C1396 C1394 1.378 . S
C1396 C1397 1.367 . S
C1397 C1396 1.367 . S
C1397 C1399 1.433 . S
C1398 C1394 1.350 . S
C1398 C1395 1.463 . S
C1398 N1402 1.427 . S
C1399 H1389 0.929 . S
C1399 C1397 1.433 . S
C1399 N1402 1.384 . S
C1400 H1391 0.929 . S
C1400 C1392 1.378 . S
C1400 C1395 1.350 . S
C1401 H1388 0.929 . S
C1401 C1393 1.433 . S
C1401 N1403 1.384 1_556 S
N1402 C1398 1.427 . S
N1402 C1399 1.384 . S
N1403 C1395 1.427 . S
N1403 C1401 1.384 1_554 S
H1404 C1410 0.930 . S
H1405 C1414 0.930 . S
H1406 C1419 0.929 . S
H1407 C1417 0.929 . S
H1408 C1412 0.929 . S
H1409 C1418 0.929 . S
C1410 H1404 0.930 . S
C1410 C1411 1.367 . S
C1410 C1418 1.378 1_556 S
C1411 C1410 1.367 . S
C1411 C1419 1.433 . S
C1412 H1408 0.929 . S
C1412 C1414 1.378 . S
C1412 C1416 1.350 . S
C1413 C1416 1.463 . S
C1413 C1418 1.350 . S
C1413 N1421 1.427 . S
C1414 H1405 0.930 . S
C1414 C1412 1.378 . S
C1414 C1415 1.367 . S
C1415 C1414 1.367 . S
C1415 C1417 1.433 . S
C1416 C1412 1.350 . S
C1416 C1413 1.463 . S
C1416 N1420 1.427 . S
C1417 H1407 0.929 . S
C1417 C1415 1.433 . S
C1417 N1420 1.384 . S
C1418 H1409 0.929 . S
C1418 C1410 1.378 1_554 S
C1418 C1413 1.350 . S
C1419 H1406 0.929 . S
C1419 C1411 1.433 . S
C1419 N1421 1.384 1_556 S
N1420 C1416 1.427 . S
N1420 C1417 1.384 . S
N1421 C1413 1.427 . S
N1421 C1419 1.384 1_554 S
H1422 C1428 0.930 . S
H1423 C1432 0.930 . S
H1424 C1437 0.929 . S
H1425 C1435 0.929 . S
H1426 C1430 0.929 . S
H1427 C1436 0.929 . S
C1428 H1422 0.930 . S
C1428 C1429 1.367 . S
C1428 C1436 1.378 1_556 S
C1429 C1428 1.367 . S
C1429 C1437 1.433 1_556 S
C1430 H1426 0.929 . S
C1430 C1432 1.378 . S
C1430 C1434 1.350 . S
C1431 C1434 1.463 . S
C1431 C1436 1.350 . S
C1431 N1439 1.427 . S
C1432 H1423 0.930 . S
C1432 C1430 1.378 . S
C1432 C1433 1.367 . S
C1433 C1432 1.367 . S
C1433 C1435 1.433 . S
C1434 C1430 1.350 . S
C1434 C1431 1.463 . S
C1434 N1438 1.427 . S
C1435 H1425 0.929 . S
C1435 C1433 1.433 . S
C1435 N1438 1.384 . S
C1436 H1427 0.929 . S
C1436 C1428 1.378 1_554 S
C1436 C1431 1.350 . S
C1437 H1424 0.929 . S
C1437 C1429 1.433 1_554 S
C1437 N1439 1.384 . S
N1438 C1434 1.427 . S
N1438 C1435 1.384 . S
N1439 C1431 1.427 . S
N1439 C1437 1.384 . S
H1440 C1446 0.930 . S
H1441 C1450 0.930 . S
H1442 C1455 0.929 1_556 S
H1443 C1453 0.929 . S
H1444 C1448 0.929 . S
H1445 C1454 0.929 . S
C1446 H1440 0.930 . S
C1446 C1447 1.367 . S
C1446 C1454 1.378 . S
C1447 C1446 1.367 . S
C1447 C1455 1.433 . S
C1448 H1444 0.929 . S
C1448 C1450 1.378 . S
C1448 C1452 1.350 . S
C1449 C1452 1.463 . S
C1449 C1454 1.350 . S
C1449 N1457 1.427 . S
C1450 H1441 0.930 . S
C1450 C1448 1.378 . S
C1450 C1451 1.367 . S
C1451 C1450 1.367 . S
C1451 C1453 1.433 . S
C1452 C1448 1.350 . S
C1452 C1449 1.463 . S
C1452 N1456 1.427 . S
C1453 H1443 0.929 . S
C1453 C1451 1.433 . S
C1453 N1456 1.384 . S
C1454 H1445 0.929 . S
C1454 C1446 1.378 . S
C1454 C1449 1.350 . S
C1455 H1442 0.929 1_554 S
C1455 C1447 1.433 . S
C1455 N1457 1.384 . S
N1456 C1452 1.427 . S
N1456 C1453 1.384 . S
N1457 C1449 1.427 . S
N1457 C1455 1.384 . S
H1458 C1464 0.930 . S
H1459 C1468 0.930 1_556 S
H1460 C1473 0.929 . S
H1461 C1471 0.929 . S
H1462 C1466 0.929 . S
H1463 C1472 0.929 . S
C1464 H1458 0.930 . S
C1464 C1465 1.367 . S
C1464 C1472 1.378 . S
C1465 C1464 1.367 . S
C1465 C1473 1.433 . S
C1466 H1462 0.929 . S
C1466 C1468 1.378 . S
C1466 C1470 1.350 . S
C1467 C1470 1.463 . S
C1467 C1472 1.350 . S
C1467 N1475 1.427 . S
C1468 H1459 0.930 1_554 S
C1468 C1466 1.378 . S
C1468 C1469 1.367 . S
C1469 C1468 1.367 . S
C1469 C1471 1.433 . S
C1470 C1466 1.350 . S
C1470 C1467 1.463 . S
C1470 N1474 1.427 . S
C1471 H1461 0.929 . S
C1471 C1469 1.433 . S
C1471 N1474 1.384 . S
C1472 H1463 0.929 . S
C1472 C1464 1.378 . S
C1472 C1467 1.350 . S
C1473 H1460 0.929 . S
C1473 C1465 1.433 . S
C1473 N1475 1.384 . S
N1474 C1470 1.427 . S
N1474 C1471 1.384 . S
N1475 C1467 1.427 . S
N1475 C1473 1.384 . S
H1476 C1482 0.930 1_556 S
H1477 C1486 0.930 . S
H1478 C1491 0.929 . S
H1479 C1489 0.929 . S
H1480 C1484 0.929 . S
H1481 C1490 0.928 . S
C1482 H1476 0.930 1_554 S
C1482 C1483 1.367 . S
C1482 C1490 1.378 . S
C1483 C1482 1.367 . S
C1483 C1491 1.433 . S
C1484 H1480 0.929 . S
C1484 C1486 1.378 . S
C1484 C1488 1.350 . S
C1485 C1488 1.463 . S
C1485 C1490 1.350 . S
C1485 N1493 1.427 . S
C1486 H1477 0.930 . S
C1486 C1484 1.378 . S
C1486 C1487 1.367 . S
C1487 C1486 1.367 . S
C1487 C1489 1.433 . S
C1488 C1484 1.350 . S
C1488 C1485 1.463 . S
C1488 N1492 1.427 . S
C1489 H1479 0.929 . S
C1489 C1487 1.433 . S
C1489 N1492 1.384 . S
C1490 H1481 0.928 . S
C1490 C1482 1.378 . S
C1490 C1485 1.350 . S
C1491 H1478 0.929 . S
C1491 C1483 1.433 . S
C1491 N1493 1.384 . S
N1492 C1488 1.427 . S
N1492 C1489 1.384 . S
N1493 C1485 1.427 . S
N1493 C1491 1.384 . S
H1494 C1500 0.930 . S
H1495 C1504 0.930 . S
H1496 C1509 0.929 . S
H1497 C1507 0.929 . S
H1498 C1502 0.929 . S
H1499 C1508 0.929 . S
C1500 H1494 0.930 . S
C1500 C1501 1.367 . S
C1500 C1508 1.378 . S
C1501 C1500 1.367 . S
C1501 C1509 1.433 . S
C1502 H1498 0.929 . S
C1502 C1504 1.378 . S
C1502 C1506 1.350 . S
C1503 C1506 1.463 . S
C1503 C1508 1.350 . S
C1503 N1511 1.427 . S
C1504 H1495 0.930 . S
C1504 C1502 1.378 . S
C1504 C1505 1.367 . S
C1505 C1504 1.367 . S
C1505 C1507 1.433 . S
C1506 C1502 1.350 . S
C1506 C1503 1.463 . S
C1506 N1510 1.427 . S
C1507 H1497 0.929 . S
C1507 C1505 1.433 . S
C1507 N1510 1.384 . S
C1508 H1499 0.929 . S
C1508 C1500 1.378 . S
C1508 C1503 1.350 . S
C1509 H1496 0.929 . S
C1509 C1501 1.433 . S
C1509 N1511 1.384 . S
N1510 C1506 1.427 . S
N1510 C1507 1.384 . S
N1511 C1503 1.427 . S
N1511 C1509 1.384 . S
H1512 C1518 0.930 . S
H1513 C1522 0.930 . S
H1514 C1527 0.929 . S
H1515 C1525 0.929 . S
H1516 C1520 0.929 . S
H1517 C1526 0.929 . S
C1518 H1512 0.930 . S
C1518 C1519 1.367 . S
C1518 C1526 1.378 . S
C1519 C1518 1.367 . S
C1519 C1527 1.433 . S
C1520 H1516 0.929 . S
C1520 C1522 1.378 . S
C1520 C1524 1.350 . S
C1521 C1524 1.463 . S
C1521 C1526 1.350 . S
C1521 N1529 1.427 . S
C1522 H1513 0.930 . S
C1522 C1520 1.378 . S
C1522 C1523 1.367 . S
C1523 C1522 1.367 . S
C1523 C1525 1.433 . S
C1524 C1520 1.350 . S
C1524 C1521 1.463 . S
C1524 N1528 1.427 . S
C1525 H1515 0.929 . S
C1525 C1523 1.433 . S
C1525 N1528 1.384 . S
C1526 H1517 0.929 . S
C1526 C1518 1.378 . S
C1526 C1521 1.350 . S
C1527 H1514 0.929 . S
C1527 C1519 1.433 . S
C1527 N1529 1.384 . S
N1528 C1524 1.427 . S
N1528 C1525 1.384 . S
N1529 C1521 1.427 . S
N1529 C1527 1.384 . S
H1530 C1536 0.930 . S
H1531 C1540 0.930 . S
H1532 C1545 0.929 . S
H1533 C1543 0.929 . S
H1534 C1538 0.929 . S
H1535 C1544 0.929 . S
C1536 H1530 0.930 . S
C1536 C1537 1.367 . S
C1536 C1544 1.378 . S
C1537 C1536 1.367 . S
C1537 C1545 1.433 . S
C1538 H1534 0.929 . S
C1538 C1540 1.378 . S
C1538 C1542 1.350 . S
C1539 C1542 1.463 . S
C1539 C1544 1.350 . S
C1539 N1547 1.427 . S
C1540 H1531 0.930 . S
C1540 C1538 1.378 . S
C1540 C1541 1.367 . S
C1541 C1540 1.367 . S
C1541 C1543 1.433 . S
C1542 C1538 1.350 . S
C1542 C1539 1.463 . S
C1542 N1546 1.427 . S
C1543 H1533 0.929 . S
C1543 C1541 1.433 . S
C1543 N1546 1.384 . S
C1544 H1535 0.929 . S
C1544 C1536 1.378 . S
C1544 C1539 1.350 . S
C1545 H1532 0.929 . S
C1545 C1537 1.433 . S
C1545 N1547 1.384 . S
N1546 C1542 1.427 . S
N1546 C1543 1.384 . S
N1547 C1539 1.427 . S
N1547 C1545 1.384 . S
H1548 C1554 0.930 . S
H1549 C1558 0.930 . S
H1550 C1563 0.929 . S
H1551 C1561 0.929 1_554 S
H1552 C1556 0.929 . S
H1553 C1562 0.929 . S
C1554 H1548 0.930 . S
C1554 C1555 1.367 . S
C1554 C1562 1.378 . S
C1555 C1554 1.367 . S
C1555 C1563 1.433 . S
C1556 H1552 0.929 . S
C1556 C1558 1.378 . S
C1556 C1560 1.350 . S
C1557 C1560 1.463 . S
C1557 C1562 1.350 . S
C1557 N1565 1.427 . S
C1558 H1549 0.930 . S
C1558 C1556 1.378 . S
C1558 C1559 1.367 . S
C1559 C1558 1.367 . S
C1559 C1561 1.433 . S
C1560 C1556 1.350 . S
C1560 C1557 1.463 . S
C1560 N1564 1.427 . S
C1561 H1551 0.929 1_556 S
C1561 C1559 1.433 . S
C1561 N1564 1.384 . S
C1562 H1553 0.929 . S
C1562 C1554 1.378 . S
C1562 C1557 1.350 . S
C1563 H1550 0.929 . S
C1563 C1555 1.433 . S
C1563 N1565 1.384 . S
N1564 C1560 1.427 . S
N1564 C1561 1.384 . S
N1565 C1557 1.427 . S
N1565 C1563 1.384 . S
H1566 C1572 0.930 . S
H1567 C1576 0.930 . S
H1568 C1581 0.929 1_554 S
H1569 C1579 0.929 . S
H1570 C1574 0.929 . S
H1571 C1580 0.929 . S
C1572 H1566 0.930 . S
C1572 C1573 1.367 . S
C1572 C1580 1.378 . S
C1573 C1572 1.367 . S
C1573 C1581 1.433 . S
C1574 H1570 0.929 . S
C1574 C1576 1.378 . S
C1574 C1578 1.350 . S
C1575 C1578 1.463 . S
C1575 C1580 1.350 . S
C1575 N1583 1.427 . S
C1576 H1567 0.930 . S
C1576 C1574 1.378 . S
C1576 C1577 1.367 . S
C1577 C1576 1.367 . S
C1577 C1579 1.433 . S
C1578 C1574 1.350 . S
C1578 C1575 1.463 . S
C1578 N1582 1.427 . S
C1579 H1569 0.929 . S
C1579 C1577 1.433 . S
C1579 N1582 1.384 . S
C1580 H1571 0.929 . S
C1580 C1572 1.378 . S
C1580 C1575 1.350 . S
C1581 H1568 0.929 1_556 S
C1581 C1573 1.433 . S
C1581 N1583 1.384 . S
N1582 C1578 1.427 . S
N1582 C1579 1.384 . S
N1583 C1575 1.427 . S
N1583 C1581 1.384 . S
H1584 C1590 0.930 . S
H1585 C1594 0.930 . S
H1586 C1599 0.929 . S
H1587 C1597 0.929 . S
H1588 C1592 0.929 . S
H1589 C1598 0.929 . S
C1590 H1584 0.930 . S
C1590 C1591 1.367 . S
C1590 C1598 1.378 . S
C1591 C1590 1.367 . S
C1591 C1599 1.433 . S
C1592 H1588 0.929 . S
C1592 C1594 1.378 . S
C1592 C1596 1.350 . S
C1593 C1596 1.463 . S
C1593 C1598 1.350 . S
C1593 N1601 1.427 . S
C1594 H1585 0.930 . S
C1594 C1592 1.378 . S
C1594 C1595 1.367 . S
C1595 C1594 1.367 . S
C1595 C1597 1.433 . S
C1596 C1592 1.350 . S
C1596 C1593 1.463 . S
C1596 N1600 1.427 . S
C1597 H1587 0.929 . S
C1597 C1595 1.433 . S
C1597 N1600 1.384 . S
C1598 H1589 0.929 . S
C1598 C1590 1.378 . S
C1598 C1593 1.350 . S
C1599 H1586 0.929 . S
C1599 C1591 1.433 . S
C1599 N1601 1.384 . S
N1600 C1596 1.427 . S
N1600 C1597 1.384 . S
N1601 C1593 1.427 . S
N1601 C1599 1.384 . S
H1602 C1608 0.930 . S
H1603 C1612 0.930 . S
H1604 C1617 0.929 . S
H1605 C1615 0.929 . S
H1606 C1610 0.929 . S
H1607 C1616 0.929 . S
C1608 H1602 0.930 . S
C1608 C1609 1.367 . S
C1608 C1616 1.378 . S
C1609 C1608 1.367 . S
C1609 C1617 1.433 . S
C1610 H1606 0.929 . S
C1610 C1612 1.378 . S
C1610 C1614 1.350 . S
C1611 C1614 1.463 . S
C1611 C1616 1.350 . S
C1611 N1619 1.427 . S
C1612 H1603 0.930 . S
C1612 C1610 1.378 . S
C1612 C1613 1.367 . S
C1613 C1612 1.367 . S
C1613 C1615 1.433 . S
C1614 C1610 1.350 . S
C1614 C1611 1.463 . S
C1614 N1618 1.427 . S
C1615 H1605 0.929 . S
C1615 C1613 1.433 . S
C1615 N1618 1.384 . S
C1616 H1607 0.929 . S
C1616 C1608 1.378 . S
C1616 C1611 1.350 . S
C1617 H1604 0.929 . S
C1617 C1609 1.433 . S
C1617 N1619 1.384 . S
N1618 C1614 1.427 . S
N1618 C1615 1.384 . S
N1619 C1611 1.427 . S
N1619 C1617 1.384 . S
H1620 C1626 0.930 . S
H1621 C1630 0.930 . S
H1622 C1635 0.929 . S
H1623 C1633 0.929 . S
H1624 C1628 0.929 . S
H1625 C1634 0.929 . S
C1626 H1620 0.930 . S
C1626 C1627 1.367 . S
C1626 C1634 1.378 . S
C1627 C1626 1.367 . S
C1627 C1635 1.433 . S
C1628 H1624 0.929 . S
C1628 C1630 1.378 . S
C1628 C1632 1.350 . S
C1629 C1632 1.463 . S
C1629 C1634 1.350 . S
C1629 N1637 1.427 . S
C1630 H1621 0.930 . S
C1630 C1628 1.378 . S
C1630 C1631 1.367 . S
C1631 C1630 1.367 . S
C1631 C1633 1.433 . S
C1632 C1628 1.350 . S
C1632 C1629 1.463 . S
C1632 N1636 1.427 . S
C1633 H1623 0.929 . S
C1633 C1631 1.433 . S
C1633 N1636 1.384 . S
C1634 H1625 0.929 . S
C1634 C1626 1.378 . S
C1634 C1629 1.350 . S
C1635 H1622 0.929 . S
C1635 C1627 1.433 . S
C1635 N1637 1.384 . S
N1636 C1632 1.427 . S
N1636 C1633 1.384 . S
N1637 C1629 1.427 . S
N1637 C1635 1.384 . S
H1638 C1644 0.930 . S
H1639 C1648 0.930 . S
H1640 C1653 0.929 . S
H1641 C1651 0.929 . S
H1642 C1646 0.929 . S
H1643 C1652 0.929 . S
C1644 H1638 0.930 . S
C1644 C1645 1.367 . S
C1644 C1652 1.378 . S
C1645 C1644 1.367 . S
C1645 C1653 1.433 . S
C1646 H1642 0.929 . S
C1646 C1648 1.378 . S
C1646 C1650 1.350 . S
C1647 C1650 1.463 . S
C1647 C1652 1.350 . S
C1647 N1655 1.427 . S
C1648 H1639 0.930 . S
C1648 C1646 1.378 . S
C1648 C1649 1.367 . S
C1649 C1648 1.367 . S
C1649 C1651 1.433 . S
C1650 C1646 1.350 . S
C1650 C1647 1.463 . S
C1650 N1654 1.427 . S
C1651 H1641 0.929 . S
C1651 C1649 1.433 . S
C1651 N1654 1.384 . S
C1652 H1643 0.929 . S
C1652 C1644 1.378 . S
C1652 C1647 1.350 . S
C1653 H1640 0.929 . S
C1653 C1645 1.433 . S
C1653 N1655 1.384 . S
N1654 C1650 1.427 . S
N1654 C1651 1.384 . S
N1655 C1647 1.427 . S
N1655 C1653 1.384 . S
H1656 C1662 0.930 . S
H1657 C1666 0.930 . S
H1658 C1671 0.929 . S
H1659 C1669 0.929 . S
H1660 C1664 0.929 . S
H1661 C1670 0.929 . S
C1662 H1656 0.930 . S
C1662 C1663 1.367 . S
C1662 C1670 1.378 . S
C1663 C1662 1.367 . S
C1663 C1671 1.433 . S
C1664 H1660 0.929 . S
C1664 C1666 1.378 . S
C1664 C1668 1.350 . S
C1665 C1668 1.463 1_455 S
C1665 C1670 1.350 . S
C1665 N1673 1.427 . S
C1666 H1657 0.930 . S
C1666 C1664 1.378 . S
C1666 C1667 1.367 . S
C1667 C1666 1.367 . S
C1667 C1669 1.433 . S
C1668 C1664 1.350 . S
C1668 C1665 1.463 1_655 S
C1668 N1672 1.427 . S
C1669 H1659 0.929 . S
C1669 C1667 1.433 . S
C1669 N1672 1.384 . S
C1670 H1661 0.929 . S
C1670 C1662 1.378 . S
C1670 C1665 1.350 . S
C1671 H1658 0.929 . S
C1671 C1663 1.433 . S
C1671 N1673 1.384 . S
N1672 C1668 1.427 . S
N1672 C1669 1.384 . S
N1673 C1665 1.427 . S
N1673 C1671 1.384 . S
H1674 C1680 0.930 . S
H1675 C1684 0.930 . S
H1676 C1689 0.929 . S
H1677 C1687 0.929 . S
H1678 C1682 0.929 . S
H1679 C1688 0.929 . S
C1680 H1674 0.930 . S
C1680 C1681 1.367 . S
C1680 C1688 1.378 . S
C1681 C1680 1.367 . S
C1681 C1689 1.433 . S
C1682 H1678 0.929 . S
C1682 C1684 1.378 . S
C1682 C1686 1.350 . S
C1683 C1686 1.463 . S
C1683 C1688 1.350 . S
C1683 N1691 1.427 . S
C1684 H1675 0.930 . S
C1684 C1682 1.378 . S
C1684 C1685 1.367 . S
C1685 C1684 1.367 . S
C1685 C1687 1.433 . S
C1686 C1682 1.350 . S
C1686 C1683 1.463 . S
C1686 N1690 1.427 . S
C1687 H1677 0.929 . S
C1687 C1685 1.433 . S
C1687 N1690 1.384 . S
C1688 H1679 0.929 . S
C1688 C1680 1.378 . S
C1688 C1683 1.350 . S
C1689 H1676 0.929 . S
C1689 C1681 1.433 . S
C1689 N1691 1.384 . S
N1690 C1686 1.427 . S
N1690 C1687 1.384 . S
N1691 C1683 1.427 . S
N1691 C1689 1.384 . S
H1692 C1698 0.930 . S
H1693 C1702 0.930 . S
H1694 C1707 0.929 . S
H1695 C1705 0.929 . S
H1696 C1700 0.929 . S
H1697 C1706 0.929 . S
C1698 H1692 0.930 . S
C1698 C1699 1.367 . S
C1698 C1706 1.378 . S
C1699 C1698 1.367 . S
C1699 C1707 1.433 . S
C1700 H1696 0.929 . S
C1700 C1702 1.378 . S
C1700 C1704 1.350 . S
C1701 C1704 1.463 1_565 S
C1701 C1706 1.350 . S
C1701 N1709 1.427 . S
C1702 H1693 0.930 . S
C1702 C1700 1.378 . S
C1702 C1703 1.367 . S
C1703 C1702 1.367 . S
C1703 C1705 1.433 . S
C1704 C1700 1.350 . S
C1704 C1701 1.463 1_545 S
C1704 N1708 1.427 . S
C1705 H1695 0.929 . S
C1705 C1703 1.433 . S
C1705 N1708 1.384 . S
C1706 H1697 0.929 . S
C1706 C1698 1.378 . S
C1706 C1701 1.350 . S
C1707 H1694 0.929 . S
C1707 C1699 1.433 . S
C1707 N1709 1.384 . S
N1708 C1704 1.427 . S
N1708 C1705 1.384 . S
N1709 C1701 1.427 . S
N1709 C1707 1.384 . S
H1710 C1716 0.930 . S
H1711 C1720 0.930 . S
H1712 C1725 0.929 . S
H1713 C1723 0.929 . S
H1714 C1718 0.929 . S
H1715 C1724 0.929 . S
C1716 H1710 0.930 . S
C1716 C1717 1.367 . S
C1716 C1724 1.378 . S
C1717 C1716 1.367 . S
C1717 C1725 1.433 . S
C1718 H1714 0.929 . S
C1718 C1720 1.378 . S
C1718 C1722 1.350 . S
C1719 C1722 1.463 1_545 S
C1719 C1724 1.350 . S
C1719 N1727 1.427 . S
C1720 H1711 0.930 . S
C1720 C1718 1.378 . S
C1720 C1721 1.367 . S
C1721 C1720 1.367 . S
C1721 C1723 1.433 . S
C1722 C1718 1.350 . S
C1722 C1719 1.463 1_565 S
C1722 N1726 1.427 . S
C1723 H1713 0.929 . S
C1723 C1721 1.433 . S
C1723 N1726 1.384 . S
C1724 H1715 0.929 . S
C1724 C1716 1.378 . S
C1724 C1719 1.350 . S
C1725 H1712 0.929 . S
C1725 C1717 1.433 . S
C1725 N1727 1.384 . S
N1726 C1722 1.427 . S
N1726 C1723 1.384 . S
N1727 C1719 1.427 . S
N1727 C1725 1.384 . S
H1728 C1734 0.930 . S
H1729 C1738 0.930 . S
H1730 C1743 0.929 . S
H1731 C1741 0.929 . S
H1732 C1736 0.929 . S
H1733 C1742 0.929 . S
C1734 H1728 0.930 . S
C1734 C1735 1.367 . S
C1734 C1742 1.378 . S
C1735 C1734 1.367 . S
C1735 C1743 1.433 . S
C1736 H1732 0.929 . S
C1736 C1738 1.378 . S
C1736 C1740 1.350 . S
C1737 C1740 1.463 1_455 S
C1737 C1742 1.350 . S
C1737 N1745 1.427 . S
C1738 H1729 0.930 . S
C1738 C1736 1.378 . S
C1738 C1739 1.367 . S
C1739 C1738 1.367 . S
C1739 C1741 1.433 . S
C1740 C1736 1.350 . S
C1740 C1737 1.463 1_655 S
C1740 N1744 1.427 . S
C1741 H1731 0.929 . S
C1741 C1739 1.433 . S
C1741 N1744 1.384 . S
C1742 H1733 0.929 . S
C1742 C1734 1.378 . S
C1742 C1737 1.350 . S
C1743 H1730 0.929 . S
C1743 C1735 1.433 . S
C1743 N1745 1.384 . S
N1744 C1740 1.427 . S
N1744 C1741 1.384 . S
N1745 C1737 1.427 . S
N1745 C1743 1.384 . S
H1746 C1752 0.930 . S
H1747 C1756 0.930 . S
H1748 C1761 0.929 . S
H1749 C1759 0.929 . S
H1750 C1754 0.929 . S
H1751 C1760 0.929 . S
C1752 H1746 0.930 . S
C1752 C1753 1.367 . S
C1752 C1760 1.378 . S
C1753 C1752 1.367 . S
C1753 C1761 1.433 . S
C1754 H1750 0.929 . S
C1754 C1756 1.378 . S
C1754 C1758 1.350 . S
C1755 C1758 1.463 . S
C1755 C1760 1.350 . S
C1755 N1763 1.427 . S
C1756 H1747 0.930 . S
C1756 C1754 1.378 . S
C1756 C1757 1.367 . S
C1757 C1756 1.367 . S
C1757 C1759 1.433 . S
C1758 C1754 1.350 . S
C1758 C1755 1.463 . S
C1758 N1762 1.427 . S
C1759 H1749 0.929 . S
C1759 C1757 1.433 . S
C1759 N1762 1.384 . S
C1760 H1751 0.929 . S
C1760 C1752 1.378 . S
C1760 C1755 1.350 . S
C1761 H1748 0.929 . S
C1761 C1753 1.433 . S
C1761 N1763 1.384 . S
N1762 C1758 1.427 . S
N1762 C1759 1.384 . S
N1763 C1755 1.427 . S
N1763 C1761 1.384 . S
C475 C43 1.179 . S
C479 C10 1.179 . S
C493 C56 1.180 . S
C497 C17 1.181 . S
C511 C69 1.178 . S
C515 C36 1.179 . S
C529 C88 1.179 . S
C533 C121 1.180 . S
C547 C95 1.181 . S
C551 C140 1.179 . S
C565 C153 1.178 . S
C569 C114 1.181 . S
C583 C160 1.178 . S
C587 C205 1.179 . S
C601 C179 1.179 . S
C605 C212 1.180 . S
C619 C186 1.181 . S
C623 C225 1.179 . S
C637 C244 1.179 . S
C641 C277 1.180 . S
C655 C296 1.180 . S
C659 C251 1.178 . S
C673 C270 1.178 . S
C677 C309 1.180 . S
C691 C322 1.181 . S
C695 C361 1.179 . S
C709 C335 1.178 . S
C713 C368 1.176 . S
C727 C381 1.178 . S
C731 C342 1.177 . S
C745 C433 1.181 . S
C749 C400 1.180 . S
C763 C452 1.180 . S
C767 C407 1.179 . S
C781 C465 1.177 . S
C785 C420 1.179 . S
C799 C147 1.654 . S
C803 C3 1.676 . S
C817 C18 1.676 . S
C821 C127 1.647 . S
C835 C29 1.674 . S
C839 C134 1.650 . S
C853 C101 1.653 . S
C857 C44 1.679 . S
C871 C57 1.678 . S
C875 C108 1.648 . S
C889 C82 1.649 . S
C893 C70 1.678 . S
C907 C81 1.674 . S
C911 C75 1.656 . S
C925 C96 1.674 . S
C929 C49 1.652 . S
C943 C62 1.656 . S
C947 C107 1.675 . S
C961 C23 1.650 . S
C965 C122 1.676 . S
C979 C30 1.649 . S
C983 C133 1.678 . S
C997 C146 1.677 . S
C1001 C4 1.649 . S
C1015 C161 1.669 . S
C1019 C303 1.649 . S
C1033 C283 1.647 . S
C1037 C172 1.667 . S
C1051 C290 1.642 . S
C1055 C187 1.670 . S
C1069 C198 1.677 . S
C1073 C257 1.647 . S
C1087 C264 1.652 . S
C1091 C213 1.678 . S
C1105 C226 1.677 . S
C1109 C238 1.655 . S
C1123 C237 1.675 . S
C1127 C231 1.655 . S
C1141 C252 1.674 . S
C1145 C199 1.656 . S
C1159 C218 1.656 . S
C1163 C263 1.674 . S
C1177 C173 1.659 . S
C1181 C278 1.683 . S
C1195 C192 1.659 . S
C1199 C289 1.680 . S
C1213 C302 1.679 . S
C1217 C166 1.663 . S
C1231 C459 1.648 . S
C1235 C315 1.676 . S
C1249 C328 1.676 . S
C1253 C439 1.647 . S
C1267 C343 1.675 . S
C1271 C446 1.648 . S
C1285 C354 1.682 . S
C1289 C413 1.654 . S
C1303 C426 1.658 . S
C1307 C369 1.680 . S
C1321 C382 1.679 . S
C1325 C394 1.663 . S
C1339 C387 1.644 . S
C1343 C393 1.671 . S
C1357 C355 1.652 . S
C1361 C408 1.667 . S
C1375 C374 1.652 . S
C1379 C421 1.668 . S
C1393 C329 1.649 . S
C1397 C434 1.676 . S
C1411 C348 1.647 . S
C1415 C445 1.677 . S
C1429 C316 1.654 . S
C1433 C458 1.678 . S
C1447 C380 1.461 . S
C1451 C5 1.464 . S
C1465 C16 1.459 . S
C1469 C356 1.457 . S
C1483 C367 1.458 . S
C1487 C31 1.457 . S
C1501 C42 1.458 . S
C1505 C174 1.458 . S
C1519 C185 1.464 . S
C1523 C55 1.462 . S
C1537 C68 1.463 . S
C1541 C159 1.456 . S
C1555 C83 1.463 . S
C1559 C304 1.462 . S
C1573 C276 1.462 . S
C1577 C94 1.464 . S
C1591 C109 1.461 . S
C1595 C291 1.456 . S
C1609 C120 1.458 . S
C1613 C406 1.458 . S
C1627 C135 1.458 . S
C1631 C419 1.457 . S
C1645 C395 1.459 . S
C1649 C148 1.457 . S
C1663 C330 1.457 . S
C1667 C200 1.464 . S
C1681 C341 1.464 . S
C1685 C211 1.461 . S
C1699 C317 1.463 . S
C1703 C224 1.457 . S
C1717 C239 1.457 . S
C1721 C460 1.460 . S
C1735 C432 1.461 . S
C1739 C250 1.465 . S
C1753 C265 1.461 . S
C1757 C447 1.464 . S
