# Generated by pormake.
# Topology uku, (4)-cn, num edge types: 1
# Building blocks:
#     Node 0, Type 0, BuildingBlock: ICAMEG_clean_sbu_1, # of connection points: 4
#     Node 1, Type 0, BuildingBlock: ICAMEG_clean_sbu_1, # of connection points: 4
#     Node 2, Type 0, BuildingBlock: ICAMEG_clean_sbu_1, # of connection points: 4
#     Node 3, Type 0, BuildingBlock: ICAMEG_clean_sbu_1, # of connection points: 4
#     Node 4, Type 0, BuildingBlock: ICAMEG_clean_sbu_1, # of connection points: 4
#     Node 5, Type 0, BuildingBlock: ICAMEG_clean_sbu_1, # of connection points: 4
#     Node 6, Type 0, BuildingBlock: ICAMEG_clean_sbu_1, # of connection points: 4
#     Node 7, Type 0, BuildingBlock: ICAMEG_clean_sbu_1, # of connection points: 4
#     Node 8, Type 0, BuildingBlock: ICAMEG_clean_sbu_1, # of connection points: 4
#     Node 9, Type 0, BuildingBlock: ICAMEG_clean_sbu_1, # of connection points: 4
#     Node 10, Type 0, BuildingBlock: ICAMEG_clean_sbu_1, # of connection points: 4
#     Node 11, Type 0, BuildingBlock: ICAMEG_clean_sbu_1, # of connection points: 4
#     Edge 12, Type (0, 0), BuildingBlock: OJICUG_clean_linker_0, # of connection points: 2
#     Edge 13, Type (0, 0), BuildingBlock: OJICUG_clean_linker_0, # of connection points: 2
#     Edge 14, Type (0, 0), BuildingBlock: OJICUG_clean_linker_0, # of connection points: 2
#     Edge 15, Type (0, 0), BuildingBlock: OJICUG_clean_linker_0, # of connection points: 2
#     Edge 16, Type (0, 0), BuildingBlock: OJICUG_clean_linker_0, # of connection points: 2
#     Edge 17, Type (0, 0), BuildingBlock: OJICUG_clean_linker_0, # of connection points: 2
#     Edge 18, Type (0, 0), BuildingBlock: OJICUG_clean_linker_0, # of connection points: 2
#     Edge 19, Type (0, 0), BuildingBlock: OJICUG_clean_linker_0, # of connection points: 2
#     Edge 20, Type (0, 0), BuildingBlock: OJICUG_clean_linker_0, # of connection points: 2
#     Edge 21, Type (0, 0), BuildingBlock: OJICUG_clean_linker_0, # of connection points: 2
#     Edge 22, Type (0, 0), BuildingBlock: OJICUG_clean_linker_0, # of connection points: 2
#     Edge 23, Type (0, 0), BuildingBlock: OJICUG_clean_linker_0, # of connection points: 2
#     Edge 24, Type (0, 0), BuildingBlock: OJICUG_clean_linker_0, # of connection points: 2
#     Edge 25, Type (0, 0), BuildingBlock: OJICUG_clean_linker_0, # of connection points: 2
#     Edge 26, Type (0, 0), BuildingBlock: OJICUG_clean_linker_0, # of connection points: 2
#     Edge 27, Type (0, 0), BuildingBlock: OJICUG_clean_linker_0, # of connection points: 2
#     Edge 28, Type (0, 0), BuildingBlock: OJICUG_clean_linker_0, # of connection points: 2
#     Edge 29, Type (0, 0), BuildingBlock: OJICUG_clean_linker_0, # of connection points: 2
#     Edge 30, Type (0, 0), BuildingBlock: OJICUG_clean_linker_0, # of connection points: 2
#     Edge 31, Type (0, 0), BuildingBlock: OJICUG_clean_linker_0, # of connection points: 2
#     Edge 32, Type (0, 0), BuildingBlock: OJICUG_clean_linker_0, # of connection points: 2
#     Edge 33, Type (0, 0), BuildingBlock: OJICUG_clean_linker_0, # of connection points: 2
#     Edge 34, Type (0, 0), BuildingBlock: OJICUG_clean_linker_0, # of connection points: 2
#     Edge 35, Type (0, 0), BuildingBlock: OJICUG_clean_linker_0, # of connection points: 2
# Relax obj value: 0.345
# Max RMSD: 0.222
# Mean RMSD: 0.222
data_MOF--net-uku--node1-ICAMEG_clean_sbu_1--edge1-OJICUG_clean_linker_0
_symmetry_space_group_name_H-M    P1
_symmetry_Int_Tables_number       1
_symmetry_cell_setting            triclinic
loop_
_symmetry_equiv_pos_as_xyz
'x, y, z'
_cell_length_a     32.160574
_cell_length_b     32.164738
_cell_length_c     32.164115
_cell_angle_alpha  90.00752
_cell_angle_beta   89.985742
_cell_angle_gamma 90.016983
loop_
_atom_site_label
_atom_site_type_symbol
_atom_site_fract_x
_atom_site_fract_y
_atom_site_fract_z
_atom_type_partial_charge
Co0 Co 0.07312 0.14961 0.67778 0.0
Co1 Co 0.13015 0.20827 0.60856 0.0
O2 O 0.08346 0.17104 0.62192 0.0
C3 C 0.04945 0.07747 0.62037 0.0
O4 O 0.0632 0.09587 0.58666 0.0
C5 C 0.05526 0.24969 0.57496 0.0
O6 O 0.03882 0.24617 0.61216 0.0
O7 O 0.11559 0.24721 0.65517 0.0
O8 O 0.09171 0.20274 0.70309 0.0
H9 H 0.25574 0.29597 0.63955 0.0
H10 H 0.00667 0.14998 0.61317 0.0
O11 O 0.05314 0.09471 0.65588 0.0
H12 H 0.94777 0.22666 0.73193 0.0
H13 H 0.99413 0.07265 0.78933 0.0
H14 H 0.12088 0.15246 0.75652 0.0
H15 H 0.01833 0.1972 0.73582 0.0
H16 H 0.0053 0.10077 0.71888 0.0
O17 O 0.09296 0.23913 0.56908 0.0
H18 H 0.1975 0.24912 0.65662 0.0
H19 H 0.16053 0.2468 0.52987 0.0
H20 H 0.11073 0.12534 0.82747 0.0
H21 H 0.93583 0.1782 0.60817 0.0
H22 H 0.047 0.08507 0.84427 0.0
H23 H 0.90586 0.21707 0.66778 0.0
O24 O 0.13119 0.12794 0.68023 0.0
H25 H 0.1023 0.12028 0.48226 0.0
H26 H 0.20914 0.16791 0.58138 0.0
H27 H 0.22875 0.11984 0.525 0.0
H28 H 0.17517 0.09581 0.47483 0.0
H29 H 0.08387 0.16777 0.53947 0.0
H30 H 0.21822 0.29388 0.51146 0.0
H31 H 0.2664 0.31866 0.5665 0.0
O32 O 0.16812 0.17725 0.64708 0.0
C33 C 0.10463 0.23851 0.69236 0.0
C34 C 0.23499 0.28534 0.61528 0.0
C35 C 0.21389 0.28421 0.5434 0.0
N36 N 0.1757 0.24515 0.59427 0.0
C37 C 0.20199 0.25875 0.62475 0.0
C38 C 0.1812 0.25766 0.55403 0.0
C39 C 0.24094 0.29808 0.57429 0.0
C40 C 0.99379 0.16608 0.63958 0.0
N41 N 0.0167 0.17136 0.67499 0.0
C42 C 0.95365 0.18233 0.63642 0.0
C43 C 0.93691 0.20425 0.66981 0.0
C44 C 0.96042 0.20968 0.70577 0.0
C45 C 1.00048 0.19305 0.70776 0.0
C46 C 0.02205 0.09013 0.78239 0.0
C47 C 0.09298 0.13509 0.76357 0.0
C48 C 0.02864 0.10595 0.74249 0.0
N49 N 0.06373 0.12821 0.73351 0.0
C50 C 0.08744 0.11976 0.80382 0.0
C51 C 0.0517 0.09714 0.81321 0.0
C52 C 0.1657 0.14512 0.67031 0.0
C53 C 0.12594 0.13055 0.5039 0.0
C54 C 0.18553 0.1573 0.55995 0.0
C55 C 0.19688 0.13022 0.52795 0.0
C56 C 0.16682 0.11679 0.49978 0.0
N57 N 0.14536 0.17065 0.56382 0.0
C58 C 0.11573 0.1576 0.5363 0.0
Co59 Co 0.92755 0.85379 0.6752 0.0
Co60 Co 0.87132 0.79428 0.60606 0.0
O61 O 0.91745 0.83224 0.61937 0.0
C62 C 0.95105 0.92626 0.61795 0.0
O63 O 0.93991 0.9071 0.58371 0.0
C64 C 0.94684 0.75404 0.57227 0.0
O65 O 0.96318 0.7576 0.60951 0.0
O66 O 0.88659 0.7555 0.65256 0.0
O67 O 0.91019 0.8002 0.70045 0.0
H68 H 0.74732 0.70429 0.63696 0.0
H69 H 0.99375 0.85367 0.61007 0.0
O70 O 0.94616 0.90915 0.65337 0.0
H71 H 0.05479 0.78028 0.72973 0.0
H72 H 0.00455 0.93331 0.78634 0.0
H73 H 0.88024 0.84952 0.75416 0.0
H74 H 0.98365 0.80826 0.73353 0.0
H75 H 0.99401 0.90478 0.71596 0.0
O76 O 0.90902 0.76419 0.5664 0.0
H77 H 0.80466 0.75222 0.65407 0.0
H78 H 0.84161 0.75537 0.52731 0.0
H79 H 0.88981 0.87707 0.82502 0.0
H80 H 0.06512 0.82693 0.60515 0.0
H81 H 0.95232 0.91932 0.84152 0.0
H82 H 0.0962 0.78972 0.66522 0.0
O83 O 0.86912 0.87429 0.67785 0.0
H84 H 0.8975 0.88342 0.48022 0.0
H85 H 0.79158 0.83321 0.5791 0.0
H86 H 0.77105 0.88118 0.52297 0.0
H87 H 0.82417 0.9065 0.47294 0.0
H88 H 0.91682 0.83594 0.53713 0.0
H89 H 0.78482 0.70723 0.50886 0.0
H90 H 0.73711 0.68147 0.56388 0.0
O91 O 0.83281 0.82452 0.64475 0.0
C92 C 0.89772 0.76427 0.68969 0.0
C93 C 0.76787 0.71534 0.61269 0.0
C94 C 0.78895 0.71694 0.54081 0.0
N95 N 0.82641 0.75665 0.59173 0.0
C96 C 0.80036 0.74254 0.62219 0.0
C97 C 0.82114 0.74409 0.55147 0.0
C98 C 0.76218 0.70252 0.57169 0.0
C99 C 0.00707 0.83836 0.63669 0.0
N100 N 0.98444 0.83321 0.67231 0.0
C101 C 0.04753 0.8229 0.63357 0.0
C102 C 0.0649 0.80191 0.66721 0.0
C103 C 0.04167 0.79656 0.70338 0.0
C104 C 1.00127 0.81237 0.70531 0.0
C105 C 0.9772 0.91491 0.77955 0.0
C106 C 0.90765 0.8677 0.7611 0.0
C107 C 0.97097 0.89881 0.7397 0.0
N108 N 0.93658 0.8754 0.73092 0.0
C109 C 0.91285 0.88329 0.80129 0.0
C110 C 0.9479 0.90704 0.8105 0.0
C111 C 0.83483 0.85664 0.66804 0.0
C112 C 0.87405 0.87257 0.50181 0.0
C113 C 0.81497 0.84436 0.5577 0.0
C114 C 0.80311 0.87139 0.52585 0.0
C115 C 0.83292 0.88555 0.49776 0.0
N116 N 0.85539 0.83176 0.56148 0.0
C117 C 0.88477 0.84554 0.53404 0.0
Co118 Co 0.07499 0.85449 0.32702 0.0
Co119 Co 0.12969 0.7929 0.39534 0.0
O120 O 0.08412 0.83164 0.38248 0.0
C121 C 0.05102 0.92574 0.38564 0.0
O122 O 0.06164 0.90581 0.4196 0.0
C123 C 0.0534 0.75328 0.42817 0.0
O124 O 0.03721 0.75768 0.39096 0.0
O125 O 0.11409 0.75524 0.34804 0.0
O126 O 0.09251 0.80145 0.3007 0.0
H127 H 0.25242 0.7017 0.36318 0.0
H128 H 0.0076 0.85347 0.3909 0.0
O129 O 0.05628 0.90938 0.34991 0.0
H130 H 0.94843 0.7826 0.26876 0.0
H131 H 0.99996 0.93681 0.21663 0.0
H132 H 0.12351 0.85194 0.2487 0.0
H133 H 0.01981 0.8102 0.26685 0.0
H134 H 0.00934 0.9066 0.28647 0.0
O135 O 0.09141 0.76258 0.43425 0.0
H136 H 0.19594 0.75084 0.3468 0.0
H137 H 0.15851 0.75209 0.47345 0.0
H138 H 0.11504 0.88105 0.17834 0.0
H139 H 0.93597 0.82709 0.39395 0.0
H140 H 0.05297 0.92392 0.16192 0.0
H141 H 0.90583 0.79115 0.33261 0.0
O142 O 0.13354 0.87477 0.32583 0.0
H143 H 0.10405 0.87993 0.52275 0.0
H144 H 0.20984 0.83014 0.42355 0.0
H145 H 0.23074 0.87664 0.48079 0.0
H146 H 0.17769 0.90174 0.53099 0.0
H147 H 0.08438 0.83393 0.46475 0.0
H148 H 0.21445 0.70272 0.49117 0.0
H149 H 0.26196 0.67729 0.43583 0.0
O150 O 0.16887 0.82341 0.35745 0.0
C151 C 0.104 0.76504 0.31089 0.0
C152 C 0.23196 0.71259 0.38758 0.0
C153 C 0.21061 0.71313 0.4594 0.0
N154 N 0.17401 0.7544 0.40914 0.0
C155 C 0.19996 0.74048 0.37851 0.0
C156 C 0.17891 0.74098 0.44916 0.0
C157 C 0.23727 0.69889 0.42834 0.0
C158 C 0.99469 0.83872 0.36375 0.0
N159 N 0.01797 0.83409 0.32848 0.0
C160 C 0.95408 0.82346 0.3658 0.0
C161 C 0.93724 0.80319 0.33145 0.0
C162 C 0.96114 0.79834 0.29565 0.0
C163 C 1.00166 0.81393 0.29479 0.0
C164 C 0.02715 0.91818 0.2234 0.0
C165 C 0.09627 0.87036 0.24179 0.0
C166 C 0.03273 0.90114 0.26295 0.0
N167 N 0.06692 0.87745 0.27171 0.0
C168 C 0.09171 0.88685 0.20188 0.0
C169 C 0.05689 0.91092 0.19271 0.0
C170 C 0.1675 0.85636 0.33529 0.0
C171 C 0.12747 0.86919 0.5011 0.0
C172 C 0.18648 0.84122 0.44501 0.0
C173 C 0.19855 0.86741 0.47749 0.0
C174 C 0.16877 0.88144 0.50568 0.0
N175 N 0.1459 0.8293 0.44072 0.0
C176 C 0.11654 0.84299 0.46823 0.0
Co177 Co 0.93054 0.15005 0.32777 0.0
Co178 Co 0.87415 0.2093 0.39699 0.0
O179 O 0.92044 0.17158 0.38363 0.0
C180 C 0.95349 0.07748 0.38499 0.0
O181 O 0.94003 0.09581 0.41885 0.0
C182 C 0.94951 0.25 0.43049 0.0
O183 O 0.9659 0.24626 0.39329 0.0
O184 O 0.88906 0.24807 0.35034 0.0
O185 O 0.91258 0.20337 0.30247 0.0
H186 H 0.74953 0.29833 0.3661 0.0
H187 H 0.99693 0.1497 0.39241 0.0
O188 O 0.94989 0.09495 0.34959 0.0
H189 H 0.05691 0.22558 0.27367 0.0
H190 H 0.00865 0.07244 0.21604 0.0
H191 H 0.88264 0.15322 0.24915 0.0
H192 H 0.98599 0.19695 0.26972 0.0
H193 H 0.99793 0.10076 0.28649 0.0
O194 O 0.91171 0.23981 0.43641 0.0
H195 H 0.80717 0.25078 0.349 0.0
H196 H 0.84431 0.24822 0.47569 0.0
H197 H 0.89234 0.1259 0.17821 0.0
H198 H 0.06811 0.17707 0.39747 0.0
H199 H 0.9557 0.08514 0.16126 0.0
H200 H 0.09863 0.21553 0.33787 0.0
O201 O 0.87225 0.12899 0.32536 0.0
H202 H 0.90123 0.12104 0.52323 0.0
H203 H 0.79475 0.16982 0.42432 0.0
H204 H 0.77469 0.122 0.48075 0.0
H205 H 0.82809 0.0974 0.53081 0.0
H206 H 0.92009 0.1683 0.46598 0.0
H207 H 0.78723 0.296 0.49413 0.0
H208 H 0.73927 0.32127 0.43914 0.0
O209 O 0.83578 0.17862 0.35853 0.0
C210 C 0.90001 0.23926 0.31318 0.0
C211 C 0.77018 0.2875 0.39035 0.0
C212 C 0.79139 0.28623 0.4622 0.0
N213 N 0.82902 0.24666 0.41132 0.0
C214 C 0.80285 0.26051 0.38087 0.0
C215 C 0.82373 0.25929 0.45155 0.0
C216 C 0.76447 0.30038 0.43133 0.0
C217 C 0.01003 0.16564 0.36601 0.0
N218 N 0.98722 0.17118 0.33058 0.0
C219 C 0.05037 0.18141 0.3692 0.0
C220 C 0.06742 0.20309 0.33582 0.0
C221 C 0.04401 0.20879 0.29983 0.0
C222 C 0.00374 0.19264 0.29782 0.0
C223 C 0.98089 0.09013 0.22305 0.0
C224 C 0.91038 0.13563 0.24203 0.0
C225 C 0.97455 0.10606 0.26295 0.0
N226 N 0.93966 0.12858 0.27202 0.0
C227 C 0.91566 0.12019 0.20179 0.0
C228 C 0.9512 0.09729 0.19232 0.0
C229 C 0.8379 0.14645 0.33533 0.0
C230 C 0.87766 0.13156 0.50164 0.0
C231 C 0.81827 0.15896 0.44571 0.0
C232 C 0.80667 0.13203 0.47774 0.0
C233 C 0.83663 0.11828 0.50585 0.0
N234 N 0.85858 0.17187 0.44176 0.0
C235 C 0.88812 0.15849 0.46921 0.0
Co236 Co 0.67699 0.0747 0.15016 0.0
Co237 Co 0.6083 0.13085 0.21023 0.0
O238 O 0.62131 0.08473 0.17218 0.0
C239 C 0.61906 0.05119 0.07828 0.0
O240 O 0.5851 0.06297 0.09757 0.0
C241 C 0.57493 0.05533 0.25076 0.0
O242 O 0.61215 0.03903 0.24685 0.0
O243 O 0.65515 0.1156 0.24858 0.0
O244 O 0.70273 0.09237 0.20339 0.0
H245 H 0.64008 0.25484 0.29987 0.0
H246 H 0.61218 0.00825 0.15066 0.0
O247 O 0.65467 0.05577 0.0951 0.0
H248 H 0.73218 0.94808 0.22425 0.0
H249 H 0.78767 0.99734 0.07037 0.0
H250 H 0.75588 0.12224 0.15338 0.0
H251 H 0.73564 0.01912 0.19592 0.0
H252 H 0.71748 0.00798 0.09936 0.0
O253 O 0.56895 0.09316 0.24072 0.0
H254 H 0.65674 0.19746 0.25184 0.0
H255 H 0.52991 0.16061 0.24983 0.0
H256 H 0.82658 0.11258 0.1254 0.0
H257 H 0.60759 0.93698 0.17774 0.0
H258 H 0.84286 0.04978 0.08352 0.0
H259 H 0.66784 0.90635 0.21505 0.0
O260 O 0.6793 0.13308 0.12941 0.0
H261 H 0.48152 0.10458 0.12246 0.0
H262 H 0.58094 0.21054 0.17147 0.0
H263 H 0.52429 0.23103 0.1241 0.0
H264 H 0.47398 0.17789 0.09939 0.0
H265 H 0.53897 0.08531 0.1693 0.0
H266 H 0.51192 0.21744 0.29809 0.0
H267 H 0.5672 0.26512 0.32332 0.0
O268 O 0.64671 0.16934 0.17955 0.0
C269 C 0.69226 0.10471 0.23945 0.0
C270 C 0.6157 0.23431 0.28905 0.0
C271 C 0.54378 0.21328 0.28809 0.0
N272 N 0.59432 0.17577 0.24796 0.0
C273 C 0.62493 0.20179 0.26179 0.0
C274 C 0.55418 0.18107 0.26087 0.0
C275 C 0.57481 0.24004 0.30222 0.0
C276 C 0.63887 0.99511 0.16601 0.0
N277 N 0.6744 0.01791 0.17102 0.0
C278 C 0.63594 0.95471 0.18166 0.0
C279 C 0.66969 0.93759 0.2027 0.0
C280 C 0.70576 0.96101 0.20791 0.0
C281 C 0.7075 1.00134 0.19191 0.0
C282 C 0.78097 0.02483 0.08858 0.0
C283 C 0.76273 0.09472 0.13535 0.0
C284 C 0.74121 0.03112 0.10493 0.0
N285 N 0.73253 0.06568 0.1281 0.0
C286 C 0.80282 0.08947 0.11952 0.0
C287 C 0.81193 0.05425 0.09599 0.0
C288 C 0.66964 0.16735 0.14717 0.0
C289 C 0.50323 0.12804 0.13303 0.0
C290 C 0.55944 0.18714 0.16056 0.0
C291 C 0.52729 0.19897 0.13388 0.0
C292 C 0.49904 0.16916 0.12007 0.0
N293 N 0.56336 0.14673 0.17316 0.0
C294 C 0.53577 0.11734 0.15971 0.0
Co295 Co 0.328 0.93062 0.15159 0.0
Co296 Co 0.39741 0.87377 0.21019 0.0
O297 O 0.3839 0.92036 0.1729 0.0
C298 C 0.38505 0.9537 0.07892 0.0
O299 O 0.41884 0.93969 0.09694 0.0
C300 C 0.43076 0.94896 0.25135 0.0
O301 O 0.3935 0.96523 0.2478 0.0
O302 O 0.35072 0.88808 0.24916 0.0
O303 O 0.30282 0.91229 0.20486 0.0
H304 H 0.3671 0.74805 0.29789 0.0
H305 H 0.3927 0.99692 0.15137 0.0
O306 O 0.34971 0.95035 0.09656 0.0
H307 H 0.2743 0.05654 0.22807 0.0
H308 H 0.21612 0.00927 0.07483 0.0
H309 H 0.24938 0.88266 0.15455 0.0
H310 H 0.27013 0.98585 0.19896 0.0
H311 H 0.28662 0.99839 0.10295 0.0
O312 O 0.43675 0.91121 0.24099 0.0
H313 H 0.34973 0.80609 0.25096 0.0
H314 H 0.47625 0.84395 0.2488 0.0
H315 H 0.17843 0.89248 0.12734 0.0
H316 H 0.39798 0.06792 0.17919 0.0
H317 H 0.16138 0.95616 0.08716 0.0
H318 H 0.33855 0.09824 0.21808 0.0
O319 O 0.3255 0.87248 0.13015 0.0
H320 H 0.52359 0.90216 0.12213 0.0
H321 H 0.42493 0.79489 0.16986 0.0
H322 H 0.48142 0.7755 0.12181 0.0
H323 H 0.53135 0.82929 0.09774 0.0
H324 H 0.46628 0.92036 0.16959 0.0
H325 H 0.49496 0.78647 0.29596 0.0
H326 H 0.4402 0.73794 0.32072 0.0
O327 O 0.35904 0.83556 0.17919 0.0
C328 C 0.31356 0.89921 0.24056 0.0
C329 C 0.39126 0.76895 0.28729 0.0
C330 C 0.46301 0.79056 0.28625 0.0
N331 N 0.41194 0.82834 0.24709 0.0
C332 C 0.38162 0.80185 0.26065 0.0
C333 C 0.4522 0.82313 0.25965 0.0
C334 C 0.43227 0.76332 0.3001 0.0
C335 C 0.36638 0.00995 0.16752 0.0
N336 N 0.33093 0.98715 0.17306 0.0
C337 C 0.36969 0.05018 0.18353 0.0
C338 C 0.33641 0.06712 0.20545 0.0
C339 C 0.30039 0.04373 0.21111 0.0
C340 C 0.29825 0.00357 0.19471 0.0
C341 C 0.22316 0.98138 0.09228 0.0
C342 C 0.24224 0.91052 0.13718 0.0
C343 C 0.26309 0.97495 0.1081 0.0
N344 N 0.2722 0.93989 0.13032 0.0
C345 C 0.20198 0.91588 0.12183 0.0
C346 C 0.19245 0.95159 0.09924 0.0
C347 C 0.33564 0.83797 0.14718 0.0
C348 C 0.50206 0.87842 0.13243 0.0
C349 C 0.44626 0.81859 0.15924 0.0
C350 C 0.47832 0.80737 0.13217 0.0
C351 C 0.50636 0.83755 0.11872 0.0
N352 N 0.44222 0.85875 0.17256 0.0
C353 C 0.4696 0.8885 0.15947 0.0
Co354 Co 0.67583 0.92943 0.85432 0.0
Co355 Co 0.60641 0.87233 0.79595 0.0
O356 O 0.61988 0.91894 0.83323 0.0
C357 C 0.61888 0.95292 0.92697 0.0
O358 O 0.58486 0.93994 0.90859 0.0
C359 C 0.57263 0.94724 0.75475 0.0
O360 O 0.60988 0.96362 0.75805 0.0
O361 O 0.65281 0.88701 0.75678 0.0
O362 O 0.70084 0.91131 0.80091 0.0
H363 H 0.63704 0.74701 0.70779 0.0
H364 H 0.61076 0.9955 0.85443 0.0
O365 O 0.65425 0.94891 0.90951 0.0
H366 H 0.72902 0.05555 0.77784 0.0
H367 H 0.78746 0.00839 0.9312 0.0
H368 H 0.75481 0.88213 0.85059 0.0
H369 H 0.73341 0.98487 0.80691 0.0
H370 H 0.71689 0.99708 0.90343 0.0
O371 O 0.56674 0.90957 0.7654 0.0
H372 H 0.65431 0.80514 0.75468 0.0
H373 H 0.52753 0.842 0.75777 0.0
H374 H 0.82587 0.89242 0.87739 0.0
H375 H 0.60526 0.06643 0.8266 0.0
H376 H 0.84259 0.95592 0.91804 0.0
H377 H 0.66462 0.09699 0.78778 0.0
O378 O 0.67873 0.87127 0.87566 0.0
H379 H 0.48064 0.89988 0.88482 0.0
H380 H 0.57949 0.79322 0.83625 0.0
H381 H 0.52342 0.77345 0.88464 0.0
H382 H 0.47339 0.82694 0.90914 0.0
H383 H 0.53753 0.91845 0.83699 0.0
H384 H 0.50892 0.78442 0.71065 0.0
H385 H 0.56386 0.73635 0.68545 0.0
O386 O 0.64513 0.83433 0.82667 0.0
C387 C 0.68997 0.89829 0.76522 0.0
C388 C 0.6128 0.7677 0.7186 0.0
C389 C 0.54091 0.78874 0.72016 0.0
N390 N 0.59196 0.82687 0.75904 0.0
C391 C 0.62238 0.80064 0.74522 0.0
C392 C 0.55166 0.82137 0.74673 0.0
C393 C 0.57175 0.76177 0.70605 0.0
C394 C 0.63707 0.00863 0.83837 0.0
N395 N 0.67263 0.98598 0.83291 0.0
C396 C 0.63363 0.04883 0.82233 0.0
C397 C 0.66687 0.0659 0.80044 0.0
C398 C 0.70297 0.04265 0.79481 0.0
C399 C 0.70524 0.00251 0.81123 0.0
C400 C 0.78056 0.98059 0.91353 0.0
C401 C 0.76183 0.90993 0.86813 0.0
C402 C 0.74059 0.97392 0.89789 0.0
N403 N 0.73166 0.93897 0.8754 0.0
C404 C 0.80214 0.91555 0.88327 0.0
C405 C 0.81149 0.95116 0.90611 0.0
C406 C 0.66869 0.83676 0.85856 0.0
C407 C 0.50222 0.87627 0.87435 0.0
C408 C 0.55812 0.81678 0.84706 0.0
C409 C 0.52629 0.80535 0.87432 0.0
C410 C 0.4982 0.83536 0.88801 0.0
N411 N 0.56188 0.85699 0.83378 0.0
C412 C 0.53444 0.88657 0.8471 0.0
Co413 Co 0.32744 0.07461 0.85568 0.0
Co414 Co 0.39573 0.12962 0.7942 0.0
O415 O 0.38291 0.08399 0.83289 0.0
C416 C 0.38604 0.05096 0.92702 0.0
O417 O 0.42003 0.06143 0.90702 0.0
C418 C 0.42852 0.05352 0.75433 0.0
O419 O 0.39132 0.03731 0.75876 0.0
O420 O 0.34848 0.11399 0.75653 0.0
O421 O 0.30116 0.09191 0.80256 0.0
H422 H 0.36343 0.25241 0.70317 0.0
H423 H 0.39167 0.00754 0.85478 0.0
O424 O 0.35032 0.05615 0.91064 0.0
H425 H 0.26987 0.94771 0.78387 0.0
H426 H 0.21735 0.99921 0.93816 0.0
H427 H 0.24882 0.1226 0.85281 0.0
H428 H 0.26761 0.01911 0.81138 0.0
H429 H 0.28719 0.00894 0.90802 0.0
O430 O 0.43466 0.09147 0.76381 0.0
H431 H 0.3471 0.19578 0.75218 0.0
H432 H 0.47384 0.15868 0.75348 0.0
H433 H 0.17845 0.1138 0.88186 0.0
H434 H 0.39507 0.93592 0.82849 0.0
H435 H 0.16233 0.05178 0.92496 0.0
H436 H 0.3339 0.90544 0.79254 0.0
O437 O 0.32589 0.13317 0.87588 0.0
H438 H 0.52319 0.10401 0.88113 0.0
H439 H 0.42384 0.20973 0.83161 0.0
H440 H 0.48106 0.23062 0.87814 0.0
H441 H 0.53134 0.17761 0.9031 0.0
H442 H 0.4652 0.08435 0.83511 0.0
H443 H 0.49151 0.21476 0.70424 0.0
H444 H 0.43611 0.26218 0.67885 0.0
O445 O 0.35779 0.16866 0.82477 0.0
C446 C 0.31137 0.10358 0.7662 0.0
C447 C 0.38787 0.232 0.71405 0.0
C448 C 0.45973 0.21082 0.71461 0.0
N449 N 0.40949 0.17402 0.75578 0.0
C450 C 0.37882 0.19991 0.74187 0.0
C451 C 0.44952 0.17904 0.74239 0.0
C452 C 0.42864 0.23744 0.7004 0.0
C453 C 0.36459 0.99449 0.84004 0.0
N454 N 0.32921 0.01758 0.83536 0.0
C455 C 0.36684 0.95388 0.82482 0.0
C456 C 0.33258 0.93685 0.80454 0.0
C457 C 0.29668 0.96056 0.79963 0.0
C458 C 0.29561 1.00109 0.81518 0.0
C459 C 0.22398 0.02636 0.91941 0.0
C460 C 0.24204 0.09539 0.87132 0.0
C461 C 0.26354 0.03213 0.90241 0.0
N462 N 0.27212 0.06627 0.87857 0.0
C463 C 0.20213 0.09064 0.88778 0.0
C464 C 0.19312 0.05585 0.91198 0.0
C465 C 0.33542 0.16717 0.85756 0.0
C466 C 0.5015 0.12742 0.87044 0.0
C467 C 0.44534 0.18639 0.84263 0.0
C468 C 0.4778 0.19845 0.86883 0.0
C469 C 0.50603 0.1687 0.88279 0.0
N470 N 0.44109 0.14583 0.83063 0.0
C471 C 0.46865 0.1165 0.84423 0.0
Co472 Co 0.15092 0.67779 0.07231 0.0
Co473 Co 0.20995 0.60874 0.12903 0.0
O474 O 0.17256 0.62199 0.08246 0.0
C475 C 0.07875 0.62028 0.04889 0.0
O476 O 0.09691 0.58666 0.06313 0.0
C477 C 0.25126 0.57529 0.05396 0.0
O478 O 0.24753 0.61246 0.03751 0.0
O479 O 0.24869 0.65553 0.11446 0.0
O480 O 0.2039 0.7033 0.09098 0.0
H481 H 0.29782 0.64003 0.25437 0.0
H482 H 0.15116 0.61347 0.00565 0.0
O483 O 0.09613 0.65575 0.05224 0.0
H484 H 0.2281 0.73229 0.94714 0.0
H485 H 0.07396 0.78938 0.99346 0.0
H486 H 0.1532 0.75634 0.12044 0.0
H487 H 0.19862 0.73601 0.01771 0.0
H488 H 0.10234 0.71901 0.00442 0.0
O489 O 0.2409 0.56942 0.09172 0.0
H490 H 0.2507 0.65691 0.19633 0.0
H491 H 0.24891 0.53019 0.15919 0.0
H492 H 0.12581 0.82721 0.11051 0.0
H493 H 0.17939 0.60865 0.93478 0.0
H494 H 0.08582 0.84412 0.04666 0.0
H495 H 0.21839 0.66829 0.90501 0.0
O496 O 0.12922 0.67996 0.13038 0.0
H497 H 0.12241 0.48211 0.10116 0.0
H498 H 0.16992 0.5812 0.20808 0.0
H499 H 0.12217 0.52455 0.22772 0.0
H500 H 0.09822 0.47439 0.1741 0.0
H501 H 0.16957 0.53959 0.08272 0.0
H502 H 0.29628 0.51198 0.21668 0.0
H503 H 0.32094 0.56709 0.26484 0.0
O504 O 0.17879 0.64706 0.16716 0.0
C505 C 0.23977 0.69272 0.10372 0.0
C506 C 0.28725 0.61572 0.23364 0.0
C507 C 0.28643 0.54387 0.21244 0.0
N508 N 0.24698 0.59457 0.17446 0.0
C509 C 0.2605 0.62508 0.20075 0.0
C510 C 0.25972 0.55439 0.17986 0.0
C511 C 0.30023 0.5748 0.23947 0.0
C512 C 0.16734 0.63989 0.99285 0.0
N513 N 0.1727 0.67521 0.01588 0.0
C514 C 0.18359 0.63683 0.95269 0.0
C515 C 0.20557 0.67024 0.93607 0.0
C516 C 0.21107 0.70612 0.9597 0.0
C517 C 0.19444 0.708 0.99978 0.0
C518 C 0.0913 0.78238 0.02143 0.0
C519 C 0.13593 0.76343 0.0925 0.0
C520 C 0.10726 0.74252 0.02791 0.0
N521 N 0.12933 0.73347 0.06308 0.0
C522 C 0.12046 0.80364 0.08708 0.0
C523 C 0.09799 0.81309 0.05127 0.0
C524 C 0.14648 0.67005 0.16484 0.0
C525 C 0.13265 0.50374 0.12483 0.0
C526 C 0.15934 0.55978 0.18446 0.0
C527 C 0.13244 0.52762 0.19582 0.0
C528 C 0.11906 0.49946 0.16574 0.0
N529 N 0.17255 0.56381 0.14426 0.0
C530 C 0.15952 0.5363 0.11461 0.0
Co531 Co 0.15103 0.32807 0.9299 0.0
Co532 Co 0.21043 0.39691 0.87317 0.0
O533 O 0.17272 0.38382 0.91958 0.0
C534 C 0.07884 0.38561 0.95351 0.0
O535 O 0.09775 0.41962 0.94126 0.0
C536 C 0.25127 0.43065 0.94835 0.0
O537 O 0.24759 0.39349 0.96483 0.0
O538 O 0.24911 0.35026 0.88822 0.0
O539 O 0.20433 0.30257 0.91203 0.0
H540 H 0.29938 0.36537 0.7486 0.0
H541 H 0.15152 0.39309 0.99608 0.0
O542 O 0.09594 0.35012 0.94911 0.0
H543 H 0.22589 0.27366 0.05643 0.0
H544 H 0.07231 0.21708 0.00798 0.0
H545 H 0.15427 0.24916 0.88244 0.0
H546 H 0.19724 0.26979 0.98555 0.0
H547 H 0.10099 0.28737 0.99711 0.0
O548 O 0.24101 0.43646 0.91056 0.0
H549 H 0.25173 0.34859 0.80628 0.0
H550 H 0.24955 0.47542 0.84306 0.0
H551 H 0.12657 0.1784 0.8923 0.0
H552 H 0.1789 0.39808 0.06722 0.0
H553 H 0.08523 0.16195 0.95544 0.0
H554 H 0.21661 0.33812 0.09793 0.0
O555 O 0.12998 0.32549 0.87165 0.0
H556 H 0.12228 0.52333 0.89982 0.0
H557 H 0.17103 0.42397 0.79369 0.0
H558 H 0.1233 0.48039 0.77343 0.0
H559 H 0.09872 0.53068 0.82665 0.0
H560 H 0.16948 0.46611 0.91888 0.0
H561 H 0.29742 0.49353 0.78593 0.0
H562 H 0.32255 0.4383 0.73814 0.0
O563 O 0.17968 0.35832 0.83497 0.0
C564 C 0.24023 0.31316 0.89934 0.0
C565 C 0.2886 0.38972 0.76918 0.0
C566 C 0.28755 0.46163 0.79018 0.0
N567 N 0.2478 0.41099 0.82796 0.0
C568 C 0.26156 0.38042 0.80187 0.0
C569 C 0.26055 0.45117 0.82255 0.0
C570 C 0.30162 0.43064 0.76335 0.0
C571 C 0.16708 0.36653 0.00926 0.0
N572 N 0.17216 0.33094 0.98658 0.0
C573 C 0.18288 0.36968 0.04958 0.0
C574 C 0.20414 0.3361 0.06674 0.0
C575 C 0.2094 0.29997 0.04346 0.0
C576 C 0.19324 0.298 0.0032 0.0
C577 C 0.09029 0.22386 0.98035 0.0
C578 C 0.13646 0.24226 0.9101 0.0
C579 C 0.10645 0.26366 0.97393 0.0
N580 N 0.12932 0.27243 0.93918 0.0
C581 C 0.1208 0.20212 0.91547 0.0
C582 C 0.09757 0.19293 0.95087 0.0
C583 C 0.14745 0.3352 0.83724 0.0
C584 C 0.1328 0.50164 0.87633 0.0
C585 C 0.16019 0.44547 0.81714 0.0
C586 C 0.1333 0.47748 0.80542 0.0
C587 C 0.11956 0.50572 0.83528 0.0
N588 N 0.17306 0.44166 0.85746 0.0
C589 C 0.15968 0.46922 0.8869 0.0
Co590 Co 0.85516 0.67602 0.92804 0.0
Co591 Co 0.79402 0.60745 0.87303 0.0
O592 O 0.83276 0.62041 0.91857 0.0
C593 C 0.92702 0.61794 0.95139 0.0
O594 O 0.90724 0.5838 0.94102 0.0
C595 C 0.75454 0.57418 0.94915 0.0
O596 O 0.7587 0.61139 0.9654 0.0
O597 O 0.75602 0.65436 0.88891 0.0
O598 O 0.80179 0.70194 0.91098 0.0
H599 H 0.70234 0.6394 0.75063 0.0
H600 H 0.85485 0.61156 0.9949 0.0
O601 O 0.91035 0.65352 0.94625 0.0
H602 H 0.7833 0.73267 0.05533 0.0
H603 H 0.93702 0.78651 0.0035 0.0
H604 H 0.85153 0.75475 0.88028 0.0
H605 H 0.81063 0.73537 0.98388 0.0
H606 H 0.90742 0.71646 0.99365 0.0
O607 O 0.76404 0.56817 0.91119 0.0
H608 H 0.75141 0.65594 0.80714 0.0
H609 H 0.75379 0.52913 0.84389 0.0
H610 H 0.88004 0.82532 0.88921 0.0
H611 H 0.82874 0.60773 0.06656 0.0
H612 H 0.9232 0.84159 0.95114 0.0
H613 H 0.79247 0.66854 0.09735 0.0
O614 O 0.87517 0.67789 0.86942 0.0
H615 H 0.8821 0.48066 0.89796 0.0
H616 H 0.83136 0.57988 0.7927 0.0
H617 H 0.8783 0.52313 0.77148 0.0
H618 H 0.90389 0.47292 0.82427 0.0
H619 H 0.83564 0.53818 0.91795 0.0
H620 H 0.70449 0.51125 0.78793 0.0
H621 H 0.67853 0.56659 0.74074 0.0
O622 O 0.82417 0.64574 0.83399 0.0
C623 C 0.76547 0.6915 0.89939 0.0
C624 C 0.71347 0.615 0.77094 0.0
C625 C 0.71463 0.54309 0.79192 0.0
N626 N 0.75555 0.59353 0.82872 0.0
C627 C 0.74133 0.62416 0.80296 0.0
C628 C 0.74245 0.55342 0.82363 0.0
C629 C 0.7001 0.57415 0.76544 0.0
C630 C 0.83997 0.6385 0.00808 0.0
N631 N 0.83502 0.67393 0.98513 0.0
C632 C 0.82486 0.636 0.04872 0.0
C633 C 0.80439 0.67005 0.06592 0.0
C634 C 0.79921 0.70601 0.04235 0.0
C635 C 0.81466 0.70732 1.00178 0.0
C636 C 0.91824 0.77982 0.97639 0.0
C637 C 0.87008 0.7616 0.90745 0.0
C638 C 0.90154 0.74015 0.97055 0.0
N639 N 0.87766 0.73148 0.93646 0.0
C640 C 0.88622 0.80162 0.91228 0.0
C641 C 0.91046 0.81071 0.94702 0.0
C642 C 0.85682 0.66834 0.83544 0.0
C643 C 0.87115 0.50232 0.87466 0.0
C644 C 0.84264 0.55841 0.81595 0.0
C645 C 0.86908 0.52621 0.8037 0.0
C646 C 0.88339 0.49802 0.83332 0.0
N647 N 0.83074 0.56243 0.85656 0.0
C648 C 0.84469 0.53491 0.88576 0.0
Co649 Co 0.85523 0.32779 0.07521 0.0
Co650 Co 0.79536 0.39676 0.13119 0.0
O651 O 0.83335 0.38354 0.08506 0.0
C652 C 0.92733 0.38546 0.05158 0.0
O653 O 0.90829 0.41944 0.06369 0.0
C654 C 0.75493 0.43011 0.05563 0.0
O655 O 0.75872 0.39288 0.03934 0.0
O656 O 0.75684 0.34998 0.11607 0.0
O657 O 0.80194 0.30222 0.09306 0.0
H658 H 0.70565 0.36556 0.25529 0.0
H659 H 0.85493 0.39229 0.00855 0.0
O660 O 0.91033 0.34992 0.05605 0.0
H661 H 0.78084 0.27231 0.94884 0.0
H662 H 0.93448 0.21655 0.99809 0.0
H663 H 0.852 0.24918 0.12315 0.0
H664 H 0.80922 0.26903 0.01985 0.0
H665 H 0.90563 0.28683 0.00845 0.0
O666 O 0.76498 0.4361 0.09346 0.0
H667 H 0.75362 0.34863 0.19794 0.0
H668 H 0.75602 0.47533 0.1608 0.0
H669 H 0.87982 0.1784 0.11376 0.0
H670 H 0.82778 0.3967 0.93728 0.0
H671 H 0.92144 0.16169 0.05089 0.0
H672 H 0.79022 0.33646 0.90688 0.0
O673 O 0.87606 0.32571 0.13355 0.0
H674 H 0.88355 0.52321 0.10459 0.0
H675 H 0.83425 0.42422 0.2108 0.0
H676 H 0.88183 0.48078 0.23113 0.0
H677 H 0.90669 0.53088 0.17787 0.0
H678 H 0.8365 0.46586 0.08547 0.0
H679 H 0.70782 0.4936 0.2176 0.0
H680 H 0.68241 0.43851 0.26541 0.0
O681 O 0.82592 0.35839 0.16974 0.0
C682 C 0.76589 0.3128 0.10535 0.0
C683 C 0.71654 0.38985 0.2347 0.0
C684 C 0.71772 0.4617 0.21351 0.0
N685 N 0.75769 0.41096 0.17611 0.0
C686 C 0.74377 0.38046 0.20221 0.0
C687 C 0.7449 0.45114 0.18132 0.0
C688 C 0.7035 0.43078 0.24034 0.0
C689 C 0.83943 0.36561 0.99551 0.0
N690 N 0.8343 0.33019 0.01844 0.0
C691 C 0.82376 0.36844 0.95511 0.0
C692 C 0.80258 0.3347 0.93813 0.0
C693 C 0.79726 0.29873 0.96167 0.0
C694 C 0.81329 0.29709 1.00199 0.0
C695 C 0.91639 0.22344 0.02562 0.0
C696 C 0.86993 0.24215 0.0956 0.0
C697 C 0.90014 0.26325 0.03176 0.0
N698 N 0.87713 0.27216 0.06637 0.0
C699 C 0.88566 0.20201 0.0905 0.0
C700 C 0.90905 0.19267 0.05524 0.0
C701 C 0.8583 0.33547 0.1678 0.0
C702 C 0.87291 0.5016 0.1281 0.0
C703 C 0.84522 0.44563 0.18734 0.0
C704 C 0.87202 0.47773 0.19909 0.0
C705 C 0.88592 0.50586 0.16921 0.0
N706 N 0.83258 0.44164 0.14696 0.0
C707 C 0.84611 0.46911 0.1175 0.0
C708 C 0.95927 0.25943 0.50737 0.0
C709 C 0.97648 0.25793 0.46714 0.0
H710 H 0.97056 0.25859 0.57298 0.0
C711 C 0.01996 0.25908 0.46289 0.0
H712 H 0.92589 0.25869 0.51184 0.0
C713 C 0.04561 0.25894 0.49804 0.0
C714 C 0.02839 0.25778 0.53829 0.0
H715 H 0.03431 0.25797 0.43244 0.0
H716 H 0.07898 0.25782 0.49358 0.0
C717 C 0.98493 0.25943 0.54253 0.0
C718 C 0.04312 0.74392 0.50501 0.0
C719 C 0.02614 0.74565 0.4647 0.0
H720 H 0.03151 0.74469 0.57057 0.0
C721 C 0.98266 0.74498 0.46026 0.0
H722 H 0.07648 0.74432 0.50964 0.0
C723 C 0.95683 0.74525 0.4953 0.0
C724 C 0.97385 0.7461 0.53563 0.0
H725 H 0.96848 0.74631 0.42975 0.0
H726 H 0.9235 0.74669 0.49069 0.0
C727 C 0.01729 0.74409 0.54005 0.0
C728 C 0.46299 0.0195 0.26056 0.0
C729 C 0.46738 0.97604 0.25916 0.0
H730 H 0.49347 0.07865 0.2594 0.0
C731 C 0.50769 0.959 0.26029 0.0
H732 H 0.43248 0.03373 0.25973 0.0
C733 C 0.54276 0.9848 0.26019 0.0
C734 C 0.53836 0.02826 0.25882 0.0
H735 H 0.51228 0.92565 0.25933 0.0
H736 H 0.57326 0.97057 0.25908 0.0
C737 C 0.49806 0.0453 0.26032 0.0
C738 C 0.49566 0.95708 0.74604 0.0
C739 C 0.53598 0.97416 0.74671 0.0
H740 H 0.4301 0.96863 0.74737 0.0
C741 C 0.54037 0.01758 0.74455 0.0
H742 H 0.49108 0.92374 0.74758 0.0
C743 C 0.50531 0.04336 0.74448 0.0
C744 C 0.46502 0.02632 0.74647 0.0
H745 H 0.57088 0.03184 0.74499 0.0
H746 H 0.50991 0.07672 0.74481 0.0
C747 C 0.4606 0.98285 0.74586 0.0
C748 C 0.26058 0.50759 0.95797 0.0
C749 C 0.25926 0.46737 0.97523 0.0
H750 H 0.25967 0.57321 0.9692 0.0
C751 C 0.26069 0.46319 0.0187 0.0
H752 H 0.25963 0.512 0.9246 0.0
C753 C 0.26063 0.49838 0.04432 0.0
C754 C 0.25928 0.5386 0.02707 0.0
H755 H 0.25972 0.43276 0.03309 0.0
H756 H 0.25971 0.49396 0.07769 0.0
C757 C 0.26066 0.54278 0.98359 0.0
C758 C 0.74534 0.4973 0.95931 0.0
C759 C 0.74683 0.53762 0.97632 0.0
H760 H 0.7462 0.43174 0.9709 0.0
C761 C 0.74576 0.54206 0.01978 0.0
H762 H 0.74604 0.49267 0.92595 0.0
C763 C 0.7459 0.50702 0.04559 0.0
C764 C 0.74701 0.46669 0.02857 0.0
H765 H 0.74687 0.57257 0.03398 0.0
H766 H 0.74703 0.51164 0.07894 0.0
C767 C 0.74537 0.46226 0.98512 0.0
C768 C 0.20286 0.09934 0.72117 0.0
C769 C 0.20468 0.12949 0.68971 0.0
H770 H 0.23482 0.06747 0.76943 0.0
C771 C 0.24367 0.14707 0.67978 0.0
H772 H 0.17362 0.08491 0.72967 0.0
C773 C 0.27939 0.13653 0.70254 0.0
C774 C 0.27675 0.10855 0.73597 0.0
H775 H 0.24637 0.17026 0.65551 0.0
H776 H 0.30842 0.15205 0.69546 0.0
C777 C 0.23826 0.08921 0.74404 0.0
C778 C 0.76211 0.91362 0.74079 0.0
C779 C 0.72401 0.89297 0.73436 0.0
H780 H 0.8263 0.91898 0.725 0.0
C781 C 0.72149 0.86348 0.70222 0.0
H782 H 0.76546 0.93654 0.76513 0.0
C783 C 0.75707 0.8529 0.67917 0.0
C784 C 0.79576 0.87189 0.68759 0.0
H785 H 0.69276 0.8469 0.69644 0.0
H786 H 0.75457 0.82863 0.65596 0.0
C787 C 0.79733 0.90341 0.7177 0.0
C788 C 0.24153 0.91479 0.26504 0.0
C789 C 0.27934 0.89356 0.27116 0.0
H790 H 0.17725 0.92032 0.2804 0.0
C791 C 0.28126 0.86313 0.30244 0.0
H792 H 0.23863 0.93843 0.24137 0.0
C793 C 0.24535 0.85219 0.32481 0.0
C794 C 0.20694 0.87179 0.3166 0.0
H795 H 0.30976 0.84609 0.30796 0.0
H796 H 0.24738 0.8272 0.34729 0.0
C797 C 0.20598 0.90424 0.28748 0.0
C798 C 0.72424 0.13872 0.3026 0.0
C799 C 0.72667 0.10986 0.2699 0.0
H800 H 0.75751 0.17315 0.349 0.0
C801 C 0.76491 0.08977 0.26258 0.0
H802 H 0.69541 0.15484 0.30909 0.0
C803 C 0.80033 0.1 0.28538 0.0
C804 C 0.79878 0.13097 0.31606 0.0
H805 H 0.76819 0.06734 0.23778 0.0
H806 H 0.82938 0.08493 0.27743 0.0
C807 C 0.75999 0.14933 0.32533 0.0
C808 C 0.71955 0.20489 0.10066 0.0
C809 C 0.689 0.20646 0.13176 0.0
H810 H 0.76715 0.23693 0.06789 0.0
C811 C 0.67996 0.24523 0.15026 0.0
H812 H 0.72734 0.17585 0.08548 0.0
C813 C 0.70276 0.28094 0.13962 0.0
C814 C 0.73534 0.27847 0.1106 0.0
H815 H 0.65639 0.24773 0.1742 0.0
H816 H 0.69645 0.30977 0.15583 0.0
C817 C 0.74244 0.24025 0.09042 0.0
C818 C 0.26299 0.76553 0.08969 0.0
C819 C 0.2702 0.72709 0.10943 0.0
H820 H 0.27792 0.83001 0.08547 0.0
C821 C 0.30277 0.72439 0.13842 0.0
H822 H 0.23828 0.76906 0.06721 0.0
C823 C 0.3255 0.76004 0.14943 0.0
C824 C 0.31635 0.79899 0.13137 0.0
H825 H 0.30915 0.6954 0.1543 0.0
H826 H 0.34908 0.75733 0.17331 0.0
C827 C 0.28579 0.80083 0.10032 0.0
C828 C 0.70153 0.72321 0.86668 0.0
C829 C 0.73499 0.72594 0.89462 0.0
H830 H 0.65426 0.75611 0.83314 0.0
C831 C 0.74287 0.76439 0.91409 0.0
H832 H 0.69459 0.69421 0.85106 0.0
C833 C 0.7198 0.7997 0.90412 0.0
C834 C 0.68831 0.79782 0.874 0.0
H835 H 0.76827 0.76789 0.93581 0.0
H836 H 0.72816 0.82892 0.91864 0.0
C837 C 0.67855 0.75885 0.8563 0.0
C838 C 0.32519 0.24502 0.8536 0.0
C839 C 0.31653 0.20654 0.87287 0.0
H840 H 0.3086 0.30946 0.84747 0.0
C841 C 0.28678 0.20546 0.90476 0.0
H842 H 0.34816 0.24714 0.82906 0.0
C843 C 0.26418 0.24098 0.91503 0.0
C844 C 0.27079 0.27887 0.89408 0.0
H845 H 0.27933 0.17667 0.92056 0.0
H846 H 0.24003 0.23803 0.9382 0.0
C847 C 0.30268 0.2809 0.86427 0.0
C848 C 0.08991 0.74305 0.23769 0.0
C849 C 0.1092 0.73493 0.27617 0.0
H850 H 0.08588 0.72898 0.17297 0.0
C851 C 0.1374 0.70167 0.2787 0.0
H852 H 0.06803 0.76831 0.23432 0.0
C853 C 0.14821 0.67917 0.24287 0.0
C854 C 0.13067 0.68918 0.2039 0.0
H855 H 0.15289 0.69456 0.30772 0.0
H856 H 0.17156 0.65506 0.24548 0.0
C857 C 0.10029 0.72043 0.20218 0.0
C858 C 0.09011 0.26236 0.76486 0.0
C859 C 0.11024 0.26915 0.72655 0.0
H860 H 0.08541 0.27781 0.82919 0.0
C861 C 0.13949 0.3015 0.72385 0.0
H862 H 0.06741 0.23783 0.76837 0.0
C863 C 0.15035 0.32443 0.75941 0.0
C864 C 0.13186 0.31571 0.79827 0.0
H865 H 0.15568 0.30756 0.69495 0.0
H866 H 0.17442 0.34783 0.75673 0.0
C867 C 0.10057 0.28536 0.80008 0.0
C868 C 0.85247 0.67891 0.75765 0.0
C869 C 0.87191 0.68743 0.79608 0.0
H870 H 0.846 0.69579 0.69332 0.0
C871 C 0.90378 0.7172 0.79712 0.0
H872 H 0.82794 0.65593 0.75556 0.0
C873 C 0.91387 0.73996 0.76164 0.0
C874 C 0.89273 0.7335 0.72383 0.0
H875 H 0.91972 0.72453 0.82587 0.0
H876 H 0.93705 0.7641 0.76457 0.0
C877 C 0.86294 0.7016 0.72182 0.0
C878 C 0.91526 0.26309 0.24084 0.0
C879 C 0.89478 0.26992 0.27896 0.0
H880 H 0.92046 0.27836 0.17651 0.0
C881 C 0.86549 0.30223 0.28136 0.0
H882 H 0.938 0.23859 0.23757 0.0
C883 C 0.85488 0.32503 0.24565 0.0
C884 C 0.87367 0.31622 0.20696 0.0
H885 H 0.84905 0.30832 0.3101 0.0
H886 H 0.83073 0.34837 0.24807 0.0
C887 C 0.90505 0.28596 0.20549 0.0
C888 C 0.01419 0.01952 0.57995 0.0
C889 C 0.02488 0.0384 0.61801 0.0
H890 H 0.98207 0.96912 0.54969 0.0
C891 C 0.00996 0.02066 0.65503 0.0
H892 H 0.02493 0.03253 0.55081 0.0
C893 C 0.98497 0.98546 0.65434 0.0
C894 C 0.97457 0.966 0.61665 0.0
H895 H 0.01744 0.03393 0.68502 0.0
H896 H 0.97415 0.97334 0.68382 0.0
C897 C 0.98931 0.98347 0.57928 0.0
C898 C 0.99263 0.02082 0.34977 0.0
C899 C 0.97773 0.03819 0.38697 0.0
H900 H 0.02832 0.97382 0.32044 0.0
C901 C 0.98819 0.01875 0.42481 0.0
H902 H 0.98529 0.03447 0.31993 0.0
C903 C 0.01284 0.98254 0.42505 0.0
C904 C 0.02763 0.96552 0.38748 0.0
H905 H 0.97744 0.03144 0.45409 0.0
H906 H 0.01991 0.96775 0.45446 0.0
C907 C 0.01745 0.98555 0.35005 0.0
C908 C 0.57938 0.98895 0.98509 0.0
C909 C 0.61715 0.97714 0.96629 0.0
H910 H 0.54999 0.02202 0.03538 0.0
C911 C 0.65457 0.99076 0.98423 0.0
H912 H 0.54995 0.97921 0.97193 0.0
C913 C 0.65456 0.01573 0.01943 0.0
C914 C 0.61715 0.02739 0.03872 0.0
H915 H 0.68436 0.98233 0.97105 0.0
H916 H 0.68433 0.02561 0.03162 0.0
C917 C 0.57939 0.0138 0.02116 0.0
C918 C 0.35002 0.99362 0.0227 0.0
C919 C 0.38712 0.97807 0.03971 0.0
H920 H 0.32089 0.02967 0.97584 0.0
C921 C 0.42496 0.98788 0.01992 0.0
H922 H 0.32018 0.98683 0.03665 0.0
C923 C 0.42531 0.01247 0.98367 0.0
C924 C 0.38785 0.02781 0.96694 0.0
H925 H 0.45416 0.97662 0.03234 0.0
H926 H 0.45471 0.01899 0.96858 0.0
C927 C 0.35042 0.01835 0.98735 0.0
C928 C 0.9839 0.57918 0.99006 0.0
C929 C 0.967 0.61646 0.97447 0.0
H930 H 0.03262 0.55081 0.02621 0.0
C931 C 0.98724 0.65404 0.98368 0.0
H932 H 0.96894 0.54968 0.98373 0.0
C933 C 0.02255 0.65477 0.00845 0.0
C934 C 0.03968 0.61787 0.02433 0.0
H935 H 0.97559 0.68343 0.97214 0.0
H936 H 0.03635 0.68471 0.01507 0.0
C937 C 0.0201 0.57986 0.01471 0.0
C938 C 0.0211 0.42515 0.99014 0.0
C939 C 0.03937 0.38739 0.97749 0.0
H940 H 0.97122 0.45453 0.02384 0.0
C941 C 0.02078 0.34995 0.99015 0.0
H942 H 0.03477 0.45459 0.98114 0.0
C943 C 0.98554 0.34992 0.01508 0.0
C944 C 0.96682 0.38732 0.02764 0.0
H945 H 0.03351 0.32018 0.98105 0.0
H946 H 0.9729 0.32012 0.02426 0.0
C947 C 0.98498 0.42512 0.01492 0.0
loop_
_geom_bond_atom_site_label_1
_geom_bond_atom_site_label_2
_geom_bond_distance
_geom_bond_site_symmetry_2
_ccdc_geom_bond_type
Co0 O2 2.143 . S
Co0 O8 2.074 . S
Co0 O11 2.093 . S
Co0 O24 2.097 . S
Co0 N41 2.151 . S
Co0 N49 2.214 . S
Co1 O2 2.160 . S
Co1 O7 2.058 . S
Co1 O17 2.057 . S
Co1 O32 2.037 . S
Co1 N36 2.145 . S
Co1 N57 2.257 . S
O2 Co0 2.143 . S
O2 Co1 2.160 . S
C3 O4 1.278 . S
C3 O11 1.224 . S
O4 C3 1.278 . S
C5 O6 1.245 . S
C5 O17 1.232 . S
O6 C5 1.245 . S
O7 Co1 2.058 . S
O7 C33 1.269 . S
O8 Co0 2.074 . S
O8 C33 1.257 . S
H9 C34 0.930 . S
H10 C40 0.930 . S
O11 Co0 2.093 . S
O11 C3 1.224 . S
H12 C44 0.929 . S
H13 C46 0.930 . S
H14 C47 0.930 . S
H15 C45 0.929 1_455 S
H16 C48 0.928 . S
O17 Co1 2.057 . S
O17 C5 1.232 . S
H18 C37 0.929 . S
H19 C38 0.929 . S
H20 C50 0.931 . S
H21 C42 0.929 . S
H22 C51 0.930 . S
H23 C43 0.931 . S
O24 Co0 2.097 . S
O24 C52 1.214 . S
H25 C53 0.929 . S
H26 C54 0.929 . S
H27 C55 0.930 . S
H28 C56 0.929 . S
H29 C58 0.930 . S
H30 C35 0.930 . S
H31 C39 0.930 . S
O32 Co1 2.037 . S
O32 C52 1.234 . S
C33 O7 1.269 . S
C33 O8 1.257 . S
C34 H9 0.930 . S
C34 C37 1.388 . S
C34 C39 1.418 . S
C35 H30 0.930 . S
C35 C38 1.404 . S
C35 C39 1.353 . S
N36 Co1 2.145 . S
N36 C37 1.397 . S
N36 C38 1.334 . S
C37 H18 0.929 . S
C37 C34 1.388 . S
C37 N36 1.397 . S
C38 H19 0.929 . S
C38 C35 1.404 . S
C38 N36 1.334 . S
C39 H31 0.930 . S
C39 C34 1.418 . S
C39 C35 1.353 . S
C40 H10 0.930 . S
C40 N41 1.330 1_655 S
C40 C42 1.446 . S
N41 Co0 2.151 . S
N41 C40 1.330 1_455 S
N41 C45 1.418 1_455 S
C42 H21 0.929 . S
C42 C40 1.446 . S
C42 C43 1.332 . S
C43 H23 0.931 . S
C43 C42 1.332 . S
C43 C44 1.267 . S
C44 H12 0.929 . S
C44 C43 1.267 . S
C44 C45 1.251 . S
C45 H15 0.929 1_655 S
C45 N41 1.418 1_655 S
C45 C44 1.251 . S
C46 H13 0.930 . S
C46 C48 1.406 . S
C46 C51 1.261 . S
C47 H14 0.930 . S
C47 N49 1.325 . S
C47 C50 1.357 . S
C48 H16 0.928 . S
C48 C46 1.406 . S
C48 N49 1.261 . S
N49 Co0 2.214 . S
N49 C47 1.325 . S
N49 C48 1.261 . S
C50 H20 0.931 . S
C50 C47 1.357 . S
C50 C51 1.312 . S
C51 H22 0.930 . S
C51 C46 1.261 . S
C51 C50 1.312 . S
C52 O24 1.214 . S
C52 O32 1.234 . S
C53 H25 0.929 . S
C53 C56 1.391 . S
C53 C58 1.391 . S
C54 H26 0.929 . S
C54 C55 1.390 . S
C54 N57 1.391 . S
C55 H27 0.930 . S
C55 C54 1.390 . S
C55 C56 1.392 . S
C56 H28 0.929 . S
C56 C53 1.391 . S
C56 C55 1.392 . S
N57 Co1 2.257 . S
N57 C54 1.391 . S
N57 C58 1.388 . S
C58 H29 0.930 . S
C58 C53 1.391 . S
C58 N57 1.388 . S
Co59 O61 2.143 . S
Co59 O67 2.074 . S
Co59 O70 2.093 . S
Co59 O83 2.097 . S
Co59 N100 2.151 . S
Co59 N108 2.214 . S
Co60 O61 2.160 . S
Co60 O66 2.058 . S
Co60 O76 2.057 . S
Co60 O91 2.037 . S
Co60 N95 2.145 . S
Co60 N116 2.257 . S
O61 Co59 2.143 . S
O61 Co60 2.160 . S
C62 O63 1.278 . S
C62 O70 1.224 . S
O63 C62 1.278 . S
C64 O65 1.245 . S
C64 O76 1.232 . S
O65 C64 1.245 . S
O66 Co60 2.058 . S
O66 C92 1.269 . S
O67 Co59 2.074 . S
O67 C92 1.257 . S
H68 C93 0.930 . S
H69 C99 0.930 . S
O70 Co59 2.093 . S
O70 C62 1.224 . S
H71 C103 0.929 . S
H72 C105 0.930 . S
H73 C106 0.930 . S
H74 C104 0.929 1_655 S
H75 C107 0.928 . S
O76 Co60 2.057 . S
O76 C64 1.232 . S
H77 C96 0.929 . S
H78 C97 0.929 . S
H79 C109 0.931 . S
H80 C101 0.929 . S
H81 C110 0.930 . S
H82 C102 0.931 . S
O83 Co59 2.097 . S
O83 C111 1.214 . S
H84 C112 0.929 . S
H85 C113 0.929 . S
H86 C114 0.930 . S
H87 C115 0.929 . S
H88 C117 0.930 . S
H89 C94 0.930 . S
H90 C98 0.930 . S
O91 Co60 2.037 . S
O91 C111 1.234 . S
C92 O66 1.269 . S
C92 O67 1.257 . S
C93 H68 0.930 . S
C93 C96 1.388 . S
C93 C98 1.418 . S
C94 H89 0.930 . S
C94 C97 1.404 . S
C94 C98 1.353 . S
N95 Co60 2.145 . S
N95 C96 1.397 . S
N95 C97 1.334 . S
C96 H77 0.929 . S
C96 C93 1.388 . S
C96 N95 1.397 . S
C97 H78 0.929 . S
C97 C94 1.404 . S
C97 N95 1.334 . S
C98 H90 0.930 . S
C98 C93 1.418 . S
C98 C94 1.353 . S
C99 H69 0.930 . S
C99 N100 1.330 1_455 S
C99 C101 1.446 . S
N100 Co59 2.151 . S
N100 C99 1.330 1_655 S
N100 C104 1.418 1_655 S
C101 H80 0.929 . S
C101 C99 1.446 . S
C101 C102 1.332 . S
C102 H82 0.931 . S
C102 C101 1.332 . S
C102 C103 1.267 . S
C103 H71 0.929 . S
C103 C102 1.267 . S
C103 C104 1.251 . S
C104 H74 0.929 1_455 S
C104 N100 1.418 1_455 S
C104 C103 1.251 . S
C105 H72 0.930 . S
C105 C107 1.406 . S
C105 C110 1.261 . S
C106 H73 0.930 . S
C106 N108 1.325 . S
C106 C109 1.357 . S
C107 H75 0.928 . S
C107 C105 1.406 . S
C107 N108 1.261 . S
N108 Co59 2.214 . S
N108 C106 1.325 . S
N108 C107 1.261 . S
C109 H79 0.931 . S
C109 C106 1.357 . S
C109 C110 1.312 . S
C110 H81 0.930 . S
C110 C105 1.261 . S
C110 C109 1.312 . S
C111 O83 1.214 . S
C111 O91 1.234 . S
C112 H84 0.929 . S
C112 C115 1.391 . S
C112 C117 1.391 . S
C113 H85 0.929 . S
C113 C114 1.390 . S
C113 N116 1.391 . S
C114 H86 0.930 . S
C114 C113 1.390 . S
C114 C115 1.392 . S
C115 H87 0.929 . S
C115 C112 1.391 . S
C115 C114 1.392 . S
N116 Co60 2.257 . S
N116 C113 1.391 . S
N116 C117 1.388 . S
C117 H88 0.930 . S
C117 C112 1.391 . S
C117 N116 1.388 . S
Co118 O120 2.143 . S
Co118 O126 2.074 . S
Co118 O129 2.093 . S
Co118 O142 2.097 . S
Co118 N159 2.151 . S
Co118 N167 2.214 . S
Co119 O120 2.160 . S
Co119 O125 2.058 . S
Co119 O135 2.057 . S
Co119 O150 2.037 . S
Co119 N154 2.145 . S
Co119 N175 2.257 . S
O120 Co118 2.143 . S
O120 Co119 2.160 . S
C121 O122 1.278 . S
C121 O129 1.224 . S
O122 C121 1.278 . S
C123 O124 1.245 . S
C123 O135 1.232 . S
O124 C123 1.245 . S
O125 Co119 2.058 . S
O125 C151 1.269 . S
O126 Co118 2.074 . S
O126 C151 1.257 . S
H127 C152 0.930 . S
H128 C158 0.930 . S
O129 Co118 2.093 . S
O129 C121 1.224 . S
H130 C162 0.929 . S
H131 C164 0.930 . S
H132 C165 0.930 . S
H133 C163 0.929 1_455 S
H134 C166 0.928 . S
O135 Co119 2.057 . S
O135 C123 1.232 . S
H136 C155 0.929 . S
H137 C156 0.929 . S
H138 C168 0.931 . S
H139 C160 0.929 . S
H140 C169 0.930 . S
H141 C161 0.931 . S
O142 Co118 2.097 . S
O142 C170 1.214 . S
H143 C171 0.929 . S
H144 C172 0.929 . S
H145 C173 0.930 . S
H146 C174 0.929 . S
H147 C176 0.930 . S
H148 C153 0.930 . S
H149 C157 0.930 . S
O150 Co119 2.037 . S
O150 C170 1.234 . S
C151 O125 1.269 . S
C151 O126 1.257 . S
C152 H127 0.930 . S
C152 C155 1.388 . S
C152 C157 1.418 . S
C153 H148 0.930 . S
C153 C156 1.404 . S
C153 C157 1.353 . S
N154 Co119 2.145 . S
N154 C155 1.397 . S
N154 C156 1.334 . S
C155 H136 0.929 . S
C155 C152 1.388 . S
C155 N154 1.397 . S
C156 H137 0.929 . S
C156 C153 1.404 . S
C156 N154 1.334 . S
C157 H149 0.930 . S
C157 C152 1.418 . S
C157 C153 1.353 . S
C158 H128 0.930 . S
C158 N159 1.330 1_655 S
C158 C160 1.446 . S
N159 Co118 2.151 . S
N159 C158 1.330 1_455 S
N159 C163 1.418 1_455 S
C160 H139 0.929 . S
C160 C158 1.446 . S
C160 C161 1.332 . S
C161 H141 0.931 . S
C161 C160 1.332 . S
C161 C162 1.267 . S
C162 H130 0.929 . S
C162 C161 1.267 . S
C162 C163 1.251 . S
C163 H133 0.929 1_655 S
C163 N159 1.418 1_655 S
C163 C162 1.251 . S
C164 H131 0.930 . S
C164 C166 1.406 . S
C164 C169 1.261 . S
C165 H132 0.930 . S
C165 N167 1.325 . S
C165 C168 1.357 . S
C166 H134 0.928 . S
C166 C164 1.406 . S
C166 N167 1.261 . S
N167 Co118 2.214 . S
N167 C165 1.325 . S
N167 C166 1.261 . S
C168 H138 0.931 . S
C168 C165 1.357 . S
C168 C169 1.312 . S
C169 H140 0.930 . S
C169 C164 1.261 . S
C169 C168 1.312 . S
C170 O142 1.214 . S
C170 O150 1.234 . S
C171 H143 0.929 . S
C171 C174 1.391 . S
C171 C176 1.391 . S
C172 H144 0.929 . S
C172 C173 1.390 . S
C172 N175 1.391 . S
C173 H145 0.930 . S
C173 C172 1.390 . S
C173 C174 1.392 . S
C174 H146 0.929 . S
C174 C171 1.391 . S
C174 C173 1.392 . S
N175 Co119 2.257 . S
N175 C172 1.391 . S
N175 C176 1.388 . S
C176 H147 0.930 . S
C176 C171 1.391 . S
C176 N175 1.388 . S
Co177 O179 2.143 . S
Co177 O185 2.074 . S
Co177 O188 2.093 . S
Co177 O201 2.097 . S
Co177 N218 2.151 . S
Co177 N226 2.214 . S
Co178 O179 2.160 . S
Co178 O184 2.058 . S
Co178 O194 2.057 . S
Co178 O209 2.037 . S
Co178 N213 2.145 . S
Co178 N234 2.257 . S
O179 Co177 2.143 . S
O179 Co178 2.160 . S
C180 O181 1.278 . S
C180 O188 1.224 . S
O181 C180 1.278 . S
C182 O183 1.245 . S
C182 O194 1.232 . S
O183 C182 1.245 . S
O184 Co178 2.058 . S
O184 C210 1.269 . S
O185 Co177 2.074 . S
O185 C210 1.257 . S
H186 C211 0.930 . S
H187 C217 0.930 . S
O188 Co177 2.093 . S
O188 C180 1.224 . S
H189 C221 0.929 . S
H190 C223 0.930 . S
H191 C224 0.930 . S
H192 C222 0.929 1_655 S
H193 C225 0.928 . S
O194 Co178 2.057 . S
O194 C182 1.232 . S
H195 C214 0.929 . S
H196 C215 0.929 . S
H197 C227 0.931 . S
H198 C219 0.929 . S
H199 C228 0.930 . S
H200 C220 0.931 . S
O201 Co177 2.097 . S
O201 C229 1.214 . S
H202 C230 0.929 . S
H203 C231 0.929 . S
H204 C232 0.930 . S
H205 C233 0.929 . S
H206 C235 0.930 . S
H207 C212 0.930 . S
H208 C216 0.930 . S
O209 Co178 2.037 . S
O209 C229 1.234 . S
C210 O184 1.269 . S
C210 O185 1.257 . S
C211 H186 0.930 . S
C211 C214 1.388 . S
C211 C216 1.418 . S
C212 H207 0.930 . S
C212 C215 1.404 . S
C212 C216 1.353 . S
N213 Co178 2.145 . S
N213 C214 1.397 . S
N213 C215 1.334 . S
C214 H195 0.929 . S
C214 C211 1.388 . S
C214 N213 1.397 . S
C215 H196 0.929 . S
C215 C212 1.404 . S
C215 N213 1.334 . S
C216 H208 0.930 . S
C216 C211 1.418 . S
C216 C212 1.353 . S
C217 H187 0.930 . S
C217 N218 1.330 1_455 S
C217 C219 1.446 . S
N218 Co177 2.151 . S
N218 C217 1.330 1_655 S
N218 C222 1.418 1_655 S
C219 H198 0.929 . S
C219 C217 1.446 . S
C219 C220 1.332 . S
C220 H200 0.931 . S
C220 C219 1.332 . S
C220 C221 1.267 . S
C221 H189 0.929 . S
C221 C220 1.267 . S
C221 C222 1.251 . S
C222 H192 0.929 1_455 S
C222 N218 1.418 1_455 S
C222 C221 1.251 . S
C223 H190 0.930 . S
C223 C225 1.406 . S
C223 C228 1.261 . S
C224 H191 0.930 . S
C224 N226 1.325 . S
C224 C227 1.357 . S
C225 H193 0.928 . S
C225 C223 1.406 . S
C225 N226 1.261 . S
N226 Co177 2.214 . S
N226 C224 1.325 . S
N226 C225 1.261 . S
C227 H197 0.931 . S
C227 C224 1.357 . S
C227 C228 1.312 . S
C228 H199 0.930 . S
C228 C223 1.261 . S
C228 C227 1.312 . S
C229 O201 1.214 . S
C229 O209 1.234 . S
C230 H202 0.929 . S
C230 C233 1.391 . S
C230 C235 1.391 . S
C231 H203 0.929 . S
C231 C232 1.390 . S
C231 N234 1.391 . S
C232 H204 0.930 . S
C232 C231 1.390 . S
C232 C233 1.392 . S
C233 H205 0.929 . S
C233 C230 1.391 . S
C233 C232 1.392 . S
N234 Co178 2.257 . S
N234 C231 1.391 . S
N234 C235 1.388 . S
C235 H206 0.930 . S
C235 C230 1.391 . S
C235 N234 1.388 . S
Co236 O238 2.143 . S
Co236 O244 2.074 . S
Co236 O247 2.093 . S
Co236 O260 2.097 . S
Co236 N277 2.151 . S
Co236 N285 2.214 . S
Co237 O238 2.160 . S
Co237 O243 2.058 . S
Co237 O253 2.057 . S
Co237 O268 2.037 . S
Co237 N272 2.145 . S
Co237 N293 2.257 . S
O238 Co236 2.143 . S
O238 Co237 2.160 . S
C239 O240 1.278 . S
C239 O247 1.224 . S
O240 C239 1.278 . S
C241 O242 1.245 . S
C241 O253 1.232 . S
O242 C241 1.245 . S
O243 Co237 2.058 . S
O243 C269 1.269 . S
O244 Co236 2.074 . S
O244 C269 1.257 . S
H245 C270 0.930 . S
H246 C276 0.930 . S
O247 Co236 2.093 . S
O247 C239 1.224 . S
H248 C280 0.929 . S
H249 C282 0.930 . S
H250 C283 0.930 . S
H251 C281 0.929 1_545 S
H252 C284 0.928 . S
O253 Co237 2.057 . S
O253 C241 1.232 . S
H254 C273 0.929 . S
H255 C274 0.929 . S
H256 C286 0.931 . S
H257 C278 0.929 . S
H258 C287 0.930 . S
H259 C279 0.931 . S
O260 Co236 2.097 . S
O260 C288 1.214 . S
H261 C289 0.929 . S
H262 C290 0.929 . S
H263 C291 0.930 . S
H264 C292 0.929 . S
H265 C294 0.930 . S
H266 C271 0.930 . S
H267 C275 0.930 . S
O268 Co237 2.037 . S
O268 C288 1.234 . S
C269 O243 1.269 . S
C269 O244 1.257 . S
C270 H245 0.930 . S
C270 C273 1.388 . S
C270 C275 1.418 . S
C271 H266 0.930 . S
C271 C274 1.404 . S
C271 C275 1.353 . S
N272 Co237 2.145 . S
N272 C273 1.397 . S
N272 C274 1.334 . S
C273 H254 0.929 . S
C273 C270 1.388 . S
C273 N272 1.397 . S
C274 H255 0.929 . S
C274 C271 1.404 . S
C274 N272 1.334 . S
C275 H267 0.930 . S
C275 C270 1.418 . S
C275 C271 1.353 . S
C276 H246 0.930 . S
C276 N277 1.330 1_565 S
C276 C278 1.446 . S
N277 Co236 2.151 . S
N277 C276 1.330 1_545 S
N277 C281 1.418 1_545 S
C278 H257 0.929 . S
C278 C276 1.446 . S
C278 C279 1.332 . S
C279 H259 0.931 . S
C279 C278 1.332 . S
C279 C280 1.267 . S
C280 H248 0.929 . S
C280 C279 1.267 . S
C280 C281 1.251 . S
C281 H251 0.929 1_565 S
C281 N277 1.418 1_565 S
C281 C280 1.251 . S
C282 H249 0.930 . S
C282 C284 1.406 . S
C282 C287 1.261 . S
C283 H250 0.930 . S
C283 N285 1.325 . S
C283 C286 1.357 . S
C284 H252 0.928 . S
C284 C282 1.406 . S
C284 N285 1.261 . S
N285 Co236 2.214 . S
N285 C283 1.325 . S
N285 C284 1.261 . S
C286 H256 0.931 . S
C286 C283 1.357 . S
C286 C287 1.312 . S
C287 H258 0.930 . S
C287 C282 1.261 . S
C287 C286 1.312 . S
C288 O260 1.214 . S
C288 O268 1.234 . S
C289 H261 0.929 . S
C289 C292 1.391 . S
C289 C294 1.391 . S
C290 H262 0.929 . S
C290 C291 1.390 . S
C290 N293 1.391 . S
C291 H263 0.930 . S
C291 C290 1.390 . S
C291 C292 1.392 . S
C292 H264 0.929 . S
C292 C289 1.391 . S
C292 C291 1.392 . S
N293 Co237 2.257 . S
N293 C290 1.391 . S
N293 C294 1.388 . S
C294 H265 0.930 . S
C294 C289 1.391 . S
C294 N293 1.388 . S
Co295 O297 2.143 . S
Co295 O303 2.074 . S
Co295 O306 2.093 . S
Co295 O319 2.097 . S
Co295 N336 2.151 . S
Co295 N344 2.214 . S
Co296 O297 2.160 . S
Co296 O302 2.058 . S
Co296 O312 2.057 . S
Co296 O327 2.037 . S
Co296 N331 2.145 . S
Co296 N352 2.257 . S
O297 Co295 2.143 . S
O297 Co296 2.160 . S
C298 O299 1.278 . S
C298 O306 1.224 . S
O299 C298 1.278 . S
C300 O301 1.245 . S
C300 O312 1.232 . S
O301 C300 1.245 . S
O302 Co296 2.058 . S
O302 C328 1.269 . S
O303 Co295 2.074 . S
O303 C328 1.257 . S
H304 C329 0.930 . S
H305 C335 0.930 . S
O306 Co295 2.093 . S
O306 C298 1.224 . S
H307 C339 0.929 . S
H308 C341 0.930 . S
H309 C342 0.930 . S
H310 C340 0.929 1_565 S
H311 C343 0.928 . S
O312 Co296 2.057 . S
O312 C300 1.232 . S
H313 C332 0.929 . S
H314 C333 0.929 . S
H315 C345 0.931 . S
H316 C337 0.929 . S
H317 C346 0.930 . S
H318 C338 0.931 . S
O319 Co295 2.097 . S
O319 C347 1.214 . S
H320 C348 0.929 . S
H321 C349 0.929 . S
H322 C350 0.930 . S
H323 C351 0.929 . S
H324 C353 0.930 . S
H325 C330 0.930 . S
H326 C334 0.930 . S
O327 Co296 2.037 . S
O327 C347 1.234 . S
C328 O302 1.269 . S
C328 O303 1.257 . S
C329 H304 0.930 . S
C329 C332 1.388 . S
C329 C334 1.418 . S
C330 H325 0.930 . S
C330 C333 1.404 . S
C330 C334 1.353 . S
N331 Co296 2.145 . S
N331 C332 1.397 . S
N331 C333 1.334 . S
C332 H313 0.929 . S
C332 C329 1.388 . S
C332 N331 1.397 . S
C333 H314 0.929 . S
C333 C330 1.404 . S
C333 N331 1.334 . S
C334 H326 0.930 . S
C334 C329 1.418 . S
C334 C330 1.353 . S
C335 H305 0.930 . S
C335 N336 1.330 1_545 S
C335 C337 1.446 . S
N336 Co295 2.151 . S
N336 C335 1.330 1_565 S
N336 C340 1.418 1_565 S
C337 H316 0.929 . S
C337 C335 1.446 . S
C337 C338 1.332 . S
C338 H318 0.931 . S
C338 C337 1.332 . S
C338 C339 1.267 . S
C339 H307 0.929 . S
C339 C338 1.267 . S
C339 C340 1.251 . S
C340 H310 0.929 1_545 S
C340 N336 1.418 1_545 S
C340 C339 1.251 . S
C341 H308 0.930 . S
C341 C343 1.406 . S
C341 C346 1.261 . S
C342 H309 0.930 . S
C342 N344 1.325 . S
C342 C345 1.357 . S
C343 H311 0.928 . S
C343 C341 1.406 . S
C343 N344 1.261 . S
N344 Co295 2.214 . S
N344 C342 1.325 . S
N344 C343 1.261 . S
C345 H315 0.931 . S
C345 C342 1.357 . S
C345 C346 1.312 . S
C346 H317 0.930 . S
C346 C341 1.261 . S
C346 C345 1.312 . S
C347 O319 1.214 . S
C347 O327 1.234 . S
C348 H320 0.929 . S
C348 C351 1.391 . S
C348 C353 1.391 . S
C349 H321 0.929 . S
C349 C350 1.390 . S
C349 N352 1.391 . S
C350 H322 0.930 . S
C350 C349 1.390 . S
C350 C351 1.392 . S
C351 H323 0.929 . S
C351 C348 1.391 . S
C351 C350 1.392 . S
N352 Co296 2.257 . S
N352 C349 1.391 . S
N352 C353 1.388 . S
C353 H324 0.930 . S
C353 C348 1.391 . S
C353 N352 1.388 . S
Co354 O356 2.143 . S
Co354 O362 2.074 . S
Co354 O365 2.093 . S
Co354 O378 2.097 . S
Co354 N395 2.151 . S
Co354 N403 2.214 . S
Co355 O356 2.160 . S
Co355 O361 2.058 . S
Co355 O371 2.057 . S
Co355 O386 2.037 . S
Co355 N390 2.145 . S
Co355 N411 2.257 . S
O356 Co354 2.143 . S
O356 Co355 2.160 . S
C357 O358 1.278 . S
C357 O365 1.224 . S
O358 C357 1.278 . S
C359 O360 1.245 . S
C359 O371 1.232 . S
O360 C359 1.245 . S
O361 Co355 2.058 . S
O361 C387 1.269 . S
O362 Co354 2.074 . S
O362 C387 1.257 . S
H363 C388 0.930 . S
H364 C394 0.930 . S
O365 Co354 2.093 . S
O365 C357 1.224 . S
H366 C398 0.929 . S
H367 C400 0.930 . S
H368 C401 0.930 . S
H369 C399 0.929 1_565 S
H370 C402 0.928 . S
O371 Co355 2.057 . S
O371 C359 1.232 . S
H372 C391 0.929 . S
H373 C392 0.929 . S
H374 C404 0.931 . S
H375 C396 0.929 . S
H376 C405 0.930 . S
H377 C397 0.931 . S
O378 Co354 2.097 . S
O378 C406 1.214 . S
H379 C407 0.929 . S
H380 C408 0.929 . S
H381 C409 0.930 . S
H382 C410 0.929 . S
H383 C412 0.930 . S
H384 C389 0.930 . S
H385 C393 0.930 . S
O386 Co355 2.037 . S
O386 C406 1.234 . S
C387 O361 1.269 . S
C387 O362 1.257 . S
C388 H363 0.930 . S
C388 C391 1.388 . S
C388 C393 1.418 . S
C389 H384 0.930 . S
C389 C392 1.404 . S
C389 C393 1.353 . S
N390 Co355 2.145 . S
N390 C391 1.397 . S
N390 C392 1.334 . S
C391 H372 0.929 . S
C391 C388 1.388 . S
C391 N390 1.397 . S
C392 H373 0.929 . S
C392 C389 1.404 . S
C392 N390 1.334 . S
C393 H385 0.930 . S
C393 C388 1.418 . S
C393 C389 1.353 . S
C394 H364 0.930 . S
C394 N395 1.330 1_545 S
C394 C396 1.446 . S
N395 Co354 2.151 . S
N395 C394 1.330 1_565 S
N395 C399 1.418 1_565 S
C396 H375 0.929 . S
C396 C394 1.446 . S
C396 C397 1.332 . S
C397 H377 0.931 . S
C397 C396 1.332 . S
C397 C398 1.267 . S
C398 H366 0.929 . S
C398 C397 1.267 . S
C398 C399 1.251 . S
C399 H369 0.929 1_545 S
C399 N395 1.418 1_545 S
C399 C398 1.251 . S
C400 H367 0.930 . S
C400 C402 1.406 . S
C400 C405 1.261 . S
C401 H368 0.930 . S
C401 N403 1.325 . S
C401 C404 1.357 . S
C402 H370 0.928 . S
C402 C400 1.406 . S
C402 N403 1.261 . S
N403 Co354 2.214 . S
N403 C401 1.325 . S
N403 C402 1.261 . S
C404 H374 0.931 . S
C404 C401 1.357 . S
C404 C405 1.312 . S
C405 H376 0.930 . S
C405 C400 1.261 . S
C405 C404 1.312 . S
C406 O378 1.214 . S
C406 O386 1.234 . S
C407 H379 0.929 . S
C407 C410 1.391 . S
C407 C412 1.391 . S
C408 H380 0.929 . S
C408 C409 1.390 . S
C408 N411 1.391 . S
C409 H381 0.930 . S
C409 C408 1.390 . S
C409 C410 1.392 . S
C410 H382 0.929 . S
C410 C407 1.391 . S
C410 C409 1.392 . S
N411 Co355 2.257 . S
N411 C408 1.391 . S
N411 C412 1.388 . S
C412 H383 0.930 . S
C412 C407 1.391 . S
C412 N411 1.388 . S
Co413 O415 2.143 . S
Co413 O421 2.074 . S
Co413 O424 2.093 . S
Co413 O437 2.097 . S
Co413 N454 2.151 . S
Co413 N462 2.214 . S
Co414 O415 2.160 . S
Co414 O420 2.058 . S
Co414 O430 2.057 . S
Co414 O445 2.037 . S
Co414 N449 2.145 . S
Co414 N470 2.257 . S
O415 Co413 2.143 . S
O415 Co414 2.160 . S
C416 O417 1.278 . S
C416 O424 1.224 . S
O417 C416 1.278 . S
C418 O419 1.245 . S
C418 O430 1.232 . S
O419 C418 1.245 . S
O420 Co414 2.058 . S
O420 C446 1.269 . S
O421 Co413 2.074 . S
O421 C446 1.257 . S
H422 C447 0.930 . S
H423 C453 0.930 . S
O424 Co413 2.093 . S
O424 C416 1.224 . S
H425 C457 0.929 . S
H426 C459 0.930 . S
H427 C460 0.930 . S
H428 C458 0.929 1_545 S
H429 C461 0.928 . S
O430 Co414 2.057 . S
O430 C418 1.232 . S
H431 C450 0.929 . S
H432 C451 0.929 . S
H433 C463 0.931 . S
H434 C455 0.929 . S
H435 C464 0.930 . S
H436 C456 0.931 . S
O437 Co413 2.097 . S
O437 C465 1.214 . S
H438 C466 0.929 . S
H439 C467 0.929 . S
H440 C468 0.930 . S
H441 C469 0.929 . S
H442 C471 0.930 . S
H443 C448 0.930 . S
H444 C452 0.930 . S
O445 Co414 2.037 . S
O445 C465 1.234 . S
C446 O420 1.269 . S
C446 O421 1.257 . S
C447 H422 0.930 . S
C447 C450 1.388 . S
C447 C452 1.418 . S
C448 H443 0.930 . S
C448 C451 1.404 . S
C448 C452 1.353 . S
N449 Co414 2.145 . S
N449 C450 1.397 . S
N449 C451 1.334 . S
C450 H431 0.929 . S
C450 C447 1.388 . S
C450 N449 1.397 . S
C451 H432 0.929 . S
C451 C448 1.404 . S
C451 N449 1.334 . S
C452 H444 0.930 . S
C452 C447 1.418 . S
C452 C448 1.353 . S
C453 H423 0.930 . S
C453 N454 1.330 1_565 S
C453 C455 1.446 . S
N454 Co413 2.151 . S
N454 C453 1.330 1_545 S
N454 C458 1.418 1_545 S
C455 H434 0.929 . S
C455 C453 1.446 . S
C455 C456 1.332 . S
C456 H436 0.931 . S
C456 C455 1.332 . S
C456 C457 1.267 . S
C457 H425 0.929 . S
C457 C456 1.267 . S
C457 C458 1.251 . S
C458 H428 0.929 1_565 S
C458 N454 1.418 1_565 S
C458 C457 1.251 . S
C459 H426 0.930 . S
C459 C461 1.406 . S
C459 C464 1.261 . S
C460 H427 0.930 . S
C460 N462 1.325 . S
C460 C463 1.357 . S
C461 H429 0.928 . S
C461 C459 1.406 . S
C461 N462 1.261 . S
N462 Co413 2.214 . S
N462 C460 1.325 . S
N462 C461 1.261 . S
C463 H433 0.931 . S
C463 C460 1.357 . S
C463 C464 1.312 . S
C464 H435 0.930 . S
C464 C459 1.261 . S
C464 C463 1.312 . S
C465 O437 1.214 . S
C465 O445 1.234 . S
C466 H438 0.929 . S
C466 C469 1.391 . S
C466 C471 1.391 . S
C467 H439 0.929 . S
C467 C468 1.390 . S
C467 N470 1.391 . S
C468 H440 0.930 . S
C468 C467 1.390 . S
C468 C469 1.392 . S
C469 H441 0.929 . S
C469 C466 1.391 . S
C469 C468 1.392 . S
N470 Co414 2.257 . S
N470 C467 1.391 . S
N470 C471 1.388 . S
C471 H442 0.930 . S
C471 C466 1.391 . S
C471 N470 1.388 . S
Co472 O474 2.143 . S
Co472 O480 2.074 . S
Co472 O483 2.093 . S
Co472 O496 2.097 . S
Co472 N513 2.151 . S
Co472 N521 2.214 . S
Co473 O474 2.160 . S
Co473 O479 2.058 . S
Co473 O489 2.057 . S
Co473 O504 2.037 . S
Co473 N508 2.145 . S
Co473 N529 2.257 . S
O474 Co472 2.143 . S
O474 Co473 2.160 . S
C475 O476 1.278 . S
C475 O483 1.224 . S
O476 C475 1.278 . S
C477 O478 1.245 . S
C477 O489 1.232 . S
O478 C477 1.245 . S
O479 Co473 2.058 . S
O479 C505 1.269 . S
O480 Co472 2.074 . S
O480 C505 1.257 . S
H481 C506 0.930 . S
H482 C512 0.930 . S
O483 Co472 2.093 . S
O483 C475 1.224 . S
H484 C516 0.929 . S
H485 C518 0.930 . S
H486 C519 0.930 . S
H487 C517 0.929 1_554 S
H488 C520 0.928 . S
O489 Co473 2.057 . S
O489 C477 1.232 . S
H490 C509 0.929 . S
H491 C510 0.929 . S
H492 C522 0.931 . S
H493 C514 0.929 . S
H494 C523 0.930 . S
H495 C515 0.931 . S
O496 Co472 2.097 . S
O496 C524 1.214 . S
H497 C525 0.929 . S
H498 C526 0.929 . S
H499 C527 0.930 . S
H500 C528 0.929 . S
H501 C530 0.930 . S
H502 C507 0.930 . S
H503 C511 0.930 . S
O504 Co473 2.037 . S
O504 C524 1.234 . S
C505 O479 1.269 . S
C505 O480 1.257 . S
C506 H481 0.930 . S
C506 C509 1.388 . S
C506 C511 1.418 . S
C507 H502 0.930 . S
C507 C510 1.404 . S
C507 C511 1.353 . S
N508 Co473 2.145 . S
N508 C509 1.397 . S
N508 C510 1.334 . S
C509 H490 0.929 . S
C509 C506 1.388 . S
C509 N508 1.397 . S
C510 H491 0.929 . S
C510 C507 1.404 . S
C510 N508 1.334 . S
C511 H503 0.930 . S
C511 C506 1.418 . S
C511 C507 1.353 . S
C512 H482 0.930 . S
C512 N513 1.330 1_556 S
C512 C514 1.446 . S
N513 Co472 2.151 . S
N513 C512 1.330 1_554 S
N513 C517 1.418 1_554 S
C514 H493 0.929 . S
C514 C512 1.446 . S
C514 C515 1.332 . S
C515 H495 0.931 . S
C515 C514 1.332 . S
C515 C516 1.267 . S
C516 H484 0.929 . S
C516 C515 1.267 . S
C516 C517 1.251 . S
C517 H487 0.929 1_556 S
C517 N513 1.418 1_556 S
C517 C516 1.251 . S
C518 H485 0.930 . S
C518 C520 1.406 . S
C518 C523 1.261 . S
C519 H486 0.930 . S
C519 N521 1.325 . S
C519 C522 1.357 . S
C520 H488 0.928 . S
C520 C518 1.406 . S
C520 N521 1.261 . S
N521 Co472 2.214 . S
N521 C519 1.325 . S
N521 C520 1.261 . S
C522 H492 0.931 . S
C522 C519 1.357 . S
C522 C523 1.312 . S
C523 H494 0.930 . S
C523 C518 1.261 . S
C523 C522 1.312 . S
C524 O496 1.214 . S
C524 O504 1.234 . S
C525 H497 0.929 . S
C525 C528 1.391 . S
C525 C530 1.391 . S
C526 H498 0.929 . S
C526 C527 1.390 . S
C526 N529 1.391 . S
C527 H499 0.930 . S
C527 C526 1.390 . S
C527 C528 1.392 . S
C528 H500 0.929 . S
C528 C525 1.391 . S
C528 C527 1.392 . S
N529 Co473 2.257 . S
N529 C526 1.391 . S
N529 C530 1.388 . S
C530 H501 0.930 . S
C530 C525 1.391 . S
C530 N529 1.388 . S
Co531 O533 2.143 . S
Co531 O539 2.074 . S
Co531 O542 2.093 . S
Co531 O555 2.097 . S
Co531 N572 2.151 . S
Co531 N580 2.214 . S
Co532 O533 2.160 . S
Co532 O538 2.058 . S
Co532 O548 2.057 . S
Co532 O563 2.037 . S
Co532 N567 2.145 . S
Co532 N588 2.257 . S
O533 Co531 2.143 . S
O533 Co532 2.160 . S
C534 O535 1.278 . S
C534 O542 1.224 . S
O535 C534 1.278 . S
C536 O537 1.245 . S
C536 O548 1.232 . S
O537 C536 1.245 . S
O538 Co532 2.058 . S
O538 C564 1.269 . S
O539 Co531 2.074 . S
O539 C564 1.257 . S
H540 C565 0.930 . S
H541 C571 0.930 . S
O542 Co531 2.093 . S
O542 C534 1.224 . S
H543 C575 0.929 . S
H544 C577 0.930 . S
H545 C578 0.930 . S
H546 C576 0.929 1_556 S
H547 C579 0.928 . S
O548 Co532 2.057 . S
O548 C536 1.232 . S
H549 C568 0.929 . S
H550 C569 0.929 . S
H551 C581 0.931 . S
H552 C573 0.929 . S
H553 C582 0.930 . S
H554 C574 0.931 . S
O555 Co531 2.097 . S
O555 C583 1.214 . S
H556 C584 0.929 . S
H557 C585 0.929 . S
H558 C586 0.930 . S
H559 C587 0.929 . S
H560 C589 0.930 . S
H561 C566 0.930 . S
H562 C570 0.930 . S
O563 Co532 2.037 . S
O563 C583 1.234 . S
C564 O538 1.269 . S
C564 O539 1.257 . S
C565 H540 0.930 . S
C565 C568 1.388 . S
C565 C570 1.418 . S
C566 H561 0.930 . S
C566 C569 1.404 . S
C566 C570 1.353 . S
N567 Co532 2.145 . S
N567 C568 1.397 . S
N567 C569 1.334 . S
C568 H549 0.929 . S
C568 C565 1.388 . S
C568 N567 1.397 . S
C569 H550 0.929 . S
C569 C566 1.404 . S
C569 N567 1.334 . S
C570 H562 0.930 . S
C570 C565 1.418 . S
C570 C566 1.353 . S
C571 H541 0.930 . S
C571 N572 1.330 1_554 S
C571 C573 1.446 . S
N572 Co531 2.151 . S
N572 C571 1.330 1_556 S
N572 C576 1.418 1_556 S
C573 H552 0.929 . S
C573 C571 1.446 . S
C573 C574 1.332 . S
C574 H554 0.931 . S
C574 C573 1.332 . S
C574 C575 1.267 . S
C575 H543 0.929 . S
C575 C574 1.267 . S
C575 C576 1.251 . S
C576 H546 0.929 1_554 S
C576 N572 1.418 1_554 S
C576 C575 1.251 . S
C577 H544 0.930 . S
C577 C579 1.406 . S
C577 C582 1.261 . S
C578 H545 0.930 . S
C578 N580 1.325 . S
C578 C581 1.357 . S
C579 H547 0.928 . S
C579 C577 1.406 . S
C579 N580 1.261 . S
N580 Co531 2.214 . S
N580 C578 1.325 . S
N580 C579 1.261 . S
C581 H551 0.931 . S
C581 C578 1.357 . S
C581 C582 1.312 . S
C582 H553 0.930 . S
C582 C577 1.261 . S
C582 C581 1.312 . S
C583 O555 1.214 . S
C583 O563 1.234 . S
C584 H556 0.929 . S
C584 C587 1.391 . S
C584 C589 1.391 . S
C585 H557 0.929 . S
C585 C586 1.390 . S
C585 N588 1.391 . S
C586 H558 0.930 . S
C586 C585 1.390 . S
C586 C587 1.392 . S
C587 H559 0.929 . S
C587 C584 1.391 . S
C587 C586 1.392 . S
N588 Co532 2.257 . S
N588 C585 1.391 . S
N588 C589 1.388 . S
C589 H560 0.930 . S
C589 C584 1.391 . S
C589 N588 1.388 . S
Co590 O592 2.143 . S
Co590 O598 2.074 . S
Co590 O601 2.093 . S
Co590 O614 2.097 . S
Co590 N631 2.151 . S
Co590 N639 2.214 . S
Co591 O592 2.160 . S
Co591 O597 2.058 . S
Co591 O607 2.057 . S
Co591 O622 2.037 . S
Co591 N626 2.145 . S
Co591 N647 2.257 . S
O592 Co590 2.143 . S
O592 Co591 2.160 . S
C593 O594 1.278 . S
C593 O601 1.224 . S
O594 C593 1.278 . S
C595 O596 1.245 . S
C595 O607 1.232 . S
O596 C595 1.245 . S
O597 Co591 2.058 . S
O597 C623 1.269 . S
O598 Co590 2.074 . S
O598 C623 1.257 . S
H599 C624 0.930 . S
H600 C630 0.930 . S
O601 Co590 2.093 . S
O601 C593 1.224 . S
H602 C634 0.929 . S
H603 C636 0.930 . S
H604 C637 0.930 . S
H605 C635 0.929 1_556 S
H606 C638 0.928 . S
O607 Co591 2.057 . S
O607 C595 1.232 . S
H608 C627 0.929 . S
H609 C628 0.929 . S
H610 C640 0.931 . S
H611 C632 0.929 . S
H612 C641 0.930 . S
H613 C633 0.931 . S
O614 Co590 2.097 . S
O614 C642 1.214 . S
H615 C643 0.929 . S
H616 C644 0.929 . S
H617 C645 0.930 . S
H618 C646 0.929 . S
H619 C648 0.930 . S
H620 C625 0.930 . S
H621 C629 0.930 . S
O622 Co591 2.037 . S
O622 C642 1.234 . S
C623 O597 1.269 . S
C623 O598 1.257 . S
C624 H599 0.930 . S
C624 C627 1.388 . S
C624 C629 1.418 . S
C625 H620 0.930 . S
C625 C628 1.404 . S
C625 C629 1.353 . S
N626 Co591 2.145 . S
N626 C627 1.397 . S
N626 C628 1.334 . S
C627 H608 0.929 . S
C627 C624 1.388 . S
C627 N626 1.397 . S
C628 H609 0.929 . S
C628 C625 1.404 . S
C628 N626 1.334 . S
C629 H621 0.930 . S
C629 C624 1.418 . S
C629 C625 1.353 . S
C630 H600 0.930 . S
C630 N631 1.330 1_554 S
C630 C632 1.446 . S
N631 Co590 2.151 . S
N631 C630 1.330 1_556 S
N631 C635 1.418 1_556 S
C632 H611 0.929 . S
C632 C630 1.446 . S
C632 C633 1.332 . S
C633 H613 0.931 . S
C633 C632 1.332 . S
C633 C634 1.267 . S
C634 H602 0.929 . S
C634 C633 1.267 . S
C634 C635 1.251 . S
C635 H605 0.929 1_554 S
C635 N631 1.418 1_554 S
C635 C634 1.251 . S
C636 H603 0.930 . S
C636 C638 1.406 . S
C636 C641 1.261 . S
C637 H604 0.930 . S
C637 N639 1.325 . S
C637 C640 1.357 . S
C638 H606 0.928 . S
C638 C636 1.406 . S
C638 N639 1.261 . S
N639 Co590 2.214 . S
N639 C637 1.325 . S
N639 C638 1.261 . S
C640 H610 0.931 . S
C640 C637 1.357 . S
C640 C641 1.312 . S
C641 H612 0.930 . S
C641 C636 1.261 . S
C641 C640 1.312 . S
C642 O614 1.214 . S
C642 O622 1.234 . S
C643 H615 0.929 . S
C643 C646 1.391 . S
C643 C648 1.391 . S
C644 H616 0.929 . S
C644 C645 1.390 . S
C644 N647 1.391 . S
C645 H617 0.930 . S
C645 C644 1.390 . S
C645 C646 1.392 . S
C646 H618 0.929 . S
C646 C643 1.391 . S
C646 C645 1.392 . S
N647 Co591 2.257 . S
N647 C644 1.391 . S
N647 C648 1.388 . S
C648 H619 0.930 . S
C648 C643 1.391 . S
C648 N647 1.388 . S
Co649 O651 2.143 . S
Co649 O657 2.074 . S
Co649 O660 2.093 . S
Co649 O673 2.097 . S
Co649 N690 2.151 . S
Co649 N698 2.214 . S
Co650 O651 2.160 . S
Co650 O656 2.058 . S
Co650 O666 2.057 . S
Co650 O681 2.037 . S
Co650 N685 2.145 . S
Co650 N706 2.257 . S
O651 Co649 2.143 . S
O651 Co650 2.160 . S
C652 O653 1.278 . S
C652 O660 1.224 . S
O653 C652 1.278 . S
C654 O655 1.245 . S
C654 O666 1.232 . S
O655 C654 1.245 . S
O656 Co650 2.058 . S
O656 C682 1.269 . S
O657 Co649 2.074 . S
O657 C682 1.257 . S
H658 C683 0.930 . S
H659 C689 0.930 . S
O660 Co649 2.093 . S
O660 C652 1.224 . S
H661 C693 0.929 . S
H662 C695 0.930 . S
H663 C696 0.930 . S
H664 C694 0.929 1_554 S
H665 C697 0.928 . S
O666 Co650 2.057 . S
O666 C654 1.232 . S
H667 C686 0.929 . S
H668 C687 0.929 . S
H669 C699 0.931 . S
H670 C691 0.929 . S
H671 C700 0.930 . S
H672 C692 0.931 . S
O673 Co649 2.097 . S
O673 C701 1.214 . S
H674 C702 0.929 . S
H675 C703 0.929 . S
H676 C704 0.930 . S
H677 C705 0.929 . S
H678 C707 0.930 . S
H679 C684 0.930 . S
H680 C688 0.930 . S
O681 Co650 2.037 . S
O681 C701 1.234 . S
C682 O656 1.269 . S
C682 O657 1.257 . S
C683 H658 0.930 . S
C683 C686 1.388 . S
C683 C688 1.418 . S
C684 H679 0.930 . S
C684 C687 1.404 . S
C684 C688 1.353 . S
N685 Co650 2.145 . S
N685 C686 1.397 . S
N685 C687 1.334 . S
C686 H667 0.929 . S
C686 C683 1.388 . S
C686 N685 1.397 . S
C687 H668 0.929 . S
C687 C684 1.404 . S
C687 N685 1.334 . S
C688 H680 0.930 . S
C688 C683 1.418 . S
C688 C684 1.353 . S
C689 H659 0.930 . S
C689 N690 1.330 1_556 S
C689 C691 1.446 . S
N690 Co649 2.151 . S
N690 C689 1.330 1_554 S
N690 C694 1.418 1_554 S
C691 H670 0.929 . S
C691 C689 1.446 . S
C691 C692 1.332 . S
C692 H672 0.931 . S
C692 C691 1.332 . S
C692 C693 1.267 . S
C693 H661 0.929 . S
C693 C692 1.267 . S
C693 C694 1.251 . S
C694 H664 0.929 1_556 S
C694 N690 1.418 1_556 S
C694 C693 1.251 . S
C695 H662 0.930 . S
C695 C697 1.406 . S
C695 C700 1.261 . S
C696 H663 0.930 . S
C696 N698 1.325 . S
C696 C699 1.357 . S
C697 H665 0.928 . S
C697 C695 1.406 . S
C697 N698 1.261 . S
N698 Co649 2.214 . S
N698 C696 1.325 . S
N698 C697 1.261 . S
C699 H669 0.931 . S
C699 C696 1.357 . S
C699 C700 1.312 . S
C700 H671 0.930 . S
C700 C695 1.261 . S
C700 C699 1.312 . S
C701 O673 1.214 . S
C701 O681 1.234 . S
C702 H674 0.929 . S
C702 C705 1.391 . S
C702 C707 1.391 . S
C703 H675 0.929 . S
C703 C704 1.390 . S
C703 N706 1.391 . S
C704 H676 0.930 . S
C704 C703 1.390 . S
C704 C705 1.392 . S
C705 H677 0.929 . S
C705 C702 1.391 . S
C705 C704 1.392 . S
N706 Co650 2.257 . S
N706 C703 1.391 . S
N706 C707 1.388 . S
C707 H678 0.930 . S
C707 C702 1.391 . S
C707 N706 1.388 . S
C708 C709 1.387 . S
C708 H712 0.950 . S
C708 C717 1.390 1_655 S
C709 C708 1.387 . S
C709 C711 1.387 . S
H710 C717 0.950 . S
C711 C709 1.387 . S
C711 C713 1.390 1_655 S
C711 H715 0.950 . S
H712 C708 0.950 . S
C713 C711 1.390 1_455 S
C713 C714 1.387 . S
C713 H716 0.950 . S
C714 C713 1.387 . S
C714 C717 1.387 . S
H715 C711 0.950 . S
H716 C713 0.950 . S
C717 C708 1.390 1_455 S
C717 H710 0.950 . S
C717 C714 1.387 . S
C718 C719 1.387 . S
C718 H722 0.950 . S
C718 C727 1.390 1_455 S
C719 C718 1.387 . S
C719 C721 1.387 . S
H720 C727 0.950 . S
C721 C719 1.387 . S
C721 C723 1.390 1_455 S
C721 H725 0.950 . S
H722 C718 0.950 . S
C723 C721 1.390 1_655 S
C723 C724 1.387 . S
C723 H726 0.950 . S
C724 C723 1.387 . S
C724 C727 1.387 . S
H725 C721 0.950 . S
H726 C723 0.950 . S
C727 C718 1.390 1_655 S
C727 H720 0.950 . S
C727 C724 1.387 . S
C728 C729 1.387 . S
C728 H732 0.950 . S
C728 C737 1.390 1_565 S
C729 C728 1.387 . S
C729 C731 1.387 . S
H730 C737 0.950 . S
C731 C729 1.387 . S
C731 C733 1.390 1_565 S
C731 H735 0.950 . S
H732 C728 0.950 . S
C733 C731 1.390 1_545 S
C733 C734 1.387 . S
C733 H736 0.950 . S
C734 C733 1.387 . S
C734 C737 1.387 . S
H735 C731 0.950 . S
H736 C733 0.950 . S
C737 C728 1.390 1_545 S
C737 H730 0.950 . S
C737 C734 1.387 . S
C738 C739 1.387 . S
C738 H742 0.950 . S
C738 C747 1.390 1_565 S
C739 C738 1.387 . S
C739 C741 1.387 . S
H740 C747 0.950 . S
C741 C739 1.387 . S
C741 C743 1.390 1_565 S
C741 H745 0.950 . S
H742 C738 0.950 . S
C743 C741 1.390 1_545 S
C743 C744 1.387 . S
C743 H746 0.950 . S
C744 C743 1.387 . S
C744 C747 1.387 . S
H745 C741 0.950 . S
H746 C743 0.950 . S
C747 C738 1.390 1_545 S
C747 H740 0.950 . S
C747 C744 1.387 . S
C748 C749 1.387 . S
C748 H752 0.950 . S
C748 C757 1.390 1_556 S
C749 C748 1.387 . S
C749 C751 1.387 . S
H750 C757 0.950 . S
C751 C749 1.387 . S
C751 C753 1.390 1_556 S
C751 H755 0.950 . S
H752 C748 0.950 . S
C753 C751 1.390 1_554 S
C753 C754 1.387 . S
C753 H756 0.950 . S
C754 C753 1.387 . S
C754 C757 1.387 . S
H755 C751 0.950 . S
H756 C753 0.950 . S
C757 C748 1.390 1_554 S
C757 H750 0.950 . S
C757 C754 1.387 . S
C758 C759 1.387 . S
C758 H762 0.950 . S
C758 C767 1.390 1_556 S
C759 C758 1.387 . S
C759 C761 1.387 . S
H760 C767 0.950 . S
C761 C759 1.387 . S
C761 C763 1.390 1_556 S
C761 H765 0.950 . S
H762 C758 0.950 . S
C763 C761 1.390 1_554 S
C763 C764 1.387 . S
C763 H766 0.950 . S
C764 C763 1.387 . S
C764 C767 1.387 . S
H765 C761 0.950 . S
H766 C763 0.950 . S
C767 C758 1.390 1_554 S
C767 H760 0.950 . S
C767 C764 1.387 . S
C768 C769 1.387 . S
C768 H772 0.950 . S
C768 C777 1.390 . S
C769 C768 1.387 . S
C769 C771 1.387 . S
H770 C777 0.950 . S
C771 C769 1.387 . S
C771 C773 1.390 . S
C771 H775 0.950 . S
H772 C768 0.950 . S
C773 C771 1.390 . S
C773 C774 1.387 . S
C773 H776 0.950 . S
C774 C773 1.387 . S
C774 C777 1.387 . S
H775 C771 0.950 . S
H776 C773 0.950 . S
C777 C768 1.390 . S
C777 H770 0.950 . S
C777 C774 1.387 . S
C778 C779 1.387 . S
C778 H782 0.950 . S
C778 C787 1.390 . S
C779 C778 1.387 . S
C779 C781 1.387 . S
H780 C787 0.950 . S
C781 C779 1.387 . S
C781 C783 1.390 . S
C781 H785 0.950 . S
H782 C778 0.950 . S
C783 C781 1.390 . S
C783 C784 1.387 . S
C783 H786 0.950 . S
C784 C783 1.387 . S
C784 C787 1.387 . S
H785 C781 0.950 . S
H786 C783 0.950 . S
C787 C778 1.390 . S
C787 H780 0.950 . S
C787 C784 1.387 . S
C788 C789 1.387 . S
C788 H792 0.950 . S
C788 C797 1.390 . S
C789 C788 1.387 . S
C789 C791 1.387 . S
H790 C797 0.950 . S
C791 C789 1.387 . S
C791 C793 1.390 . S
C791 H795 0.950 . S
H792 C788 0.950 . S
C793 C791 1.390 . S
C793 C794 1.387 . S
C793 H796 0.950 . S
C794 C793 1.387 . S
C794 C797 1.387 . S
H795 C791 0.950 . S
H796 C793 0.950 . S
C797 C788 1.390 . S
C797 H790 0.950 . S
C797 C794 1.387 . S
C798 C799 1.387 . S
C798 H802 0.950 . S
C798 C807 1.390 . S
C799 C798 1.387 . S
C799 C801 1.387 . S
H800 C807 0.950 . S
C801 C799 1.387 . S
C801 C803 1.390 . S
C801 H805 0.950 . S
H802 C798 0.950 . S
C803 C801 1.390 . S
C803 C804 1.387 . S
C803 H806 0.950 . S
C804 C803 1.387 . S
C804 C807 1.387 . S
H805 C801 0.950 . S
H806 C803 0.950 . S
C807 C798 1.390 . S
C807 H800 0.950 . S
C807 C804 1.387 . S
C808 C809 1.387 . S
C808 H812 0.950 . S
C808 C817 1.390 . S
C809 C808 1.387 . S
C809 C811 1.387 . S
H810 C817 0.950 . S
C811 C809 1.387 . S
C811 C813 1.390 . S
C811 H815 0.950 . S
H812 C808 0.950 . S
C813 C811 1.390 . S
C813 C814 1.387 . S
C813 H816 0.950 . S
C814 C813 1.387 . S
C814 C817 1.387 . S
H815 C811 0.950 . S
H816 C813 0.950 . S
C817 C808 1.390 . S
C817 H810 0.950 . S
C817 C814 1.387 . S
C818 C819 1.387 . S
C818 H822 0.950 . S
C818 C827 1.390 . S
C819 C818 1.387 . S
C819 C821 1.387 . S
H820 C827 0.950 . S
C821 C819 1.387 . S
C821 C823 1.390 . S
C821 H825 0.950 . S
H822 C818 0.950 . S
C823 C821 1.390 . S
C823 C824 1.387 . S
C823 H826 0.950 . S
C824 C823 1.387 . S
C824 C827 1.387 . S
H825 C821 0.950 . S
H826 C823 0.950 . S
C827 C818 1.390 . S
C827 H820 0.950 . S
C827 C824 1.387 . S
C828 C829 1.387 . S
C828 H832 0.950 . S
C828 C837 1.390 . S
C829 C828 1.387 . S
C829 C831 1.387 . S
H830 C837 0.950 . S
C831 C829 1.387 . S
C831 C833 1.390 . S
C831 H835 0.950 . S
H832 C828 0.950 . S
C833 C831 1.390 . S
C833 C834 1.387 . S
C833 H836 0.950 . S
C834 C833 1.387 . S
C834 C837 1.387 . S
H835 C831 0.950 . S
H836 C833 0.950 . S
C837 C828 1.390 . S
C837 H830 0.950 . S
C837 C834 1.387 . S
C838 C839 1.387 . S
C838 H842 0.950 . S
C838 C847 1.390 . S
C839 C838 1.387 . S
C839 C841 1.387 . S
H840 C847 0.950 . S
C841 C839 1.387 . S
C841 C843 1.390 . S
C841 H845 0.950 . S
H842 C838 0.950 . S
C843 C841 1.390 . S
C843 C844 1.387 . S
C843 H846 0.950 . S
C844 C843 1.387 . S
C844 C847 1.387 . S
H845 C841 0.950 . S
H846 C843 0.950 . S
C847 C838 1.390 . S
C847 H840 0.950 . S
C847 C844 1.387 . S
C848 C849 1.387 . S
C848 H852 0.950 . S
C848 C857 1.390 . S
C849 C848 1.387 . S
C849 C851 1.387 . S
H850 C857 0.950 . S
C851 C849 1.387 . S
C851 C853 1.390 . S
C851 H855 0.950 . S
H852 C848 0.950 . S
C853 C851 1.390 . S
C853 C854 1.387 . S
C853 H856 0.950 . S
C854 C853 1.387 . S
C854 C857 1.387 . S
H855 C851 0.950 . S
H856 C853 0.950 . S
C857 C848 1.390 . S
C857 H850 0.950 . S
C857 C854 1.387 . S
C858 C859 1.387 . S
C858 H862 0.950 . S
C858 C867 1.390 . S
C859 C858 1.387 . S
C859 C861 1.387 . S
H860 C867 0.950 . S
C861 C859 1.387 . S
C861 C863 1.390 . S
C861 H865 0.950 . S
H862 C858 0.950 . S
C863 C861 1.390 . S
C863 C864 1.387 . S
C863 H866 0.950 . S
C864 C863 1.387 . S
C864 C867 1.387 . S
H865 C861 0.950 . S
H866 C863 0.950 . S
C867 C858 1.390 . S
C867 H860 0.950 . S
C867 C864 1.387 . S
C868 C869 1.387 . S
C868 H872 0.950 . S
C868 C877 1.390 . S
C869 C868 1.387 . S
C869 C871 1.387 . S
H870 C877 0.950 . S
C871 C869 1.387 . S
C871 C873 1.390 . S
C871 H875 0.950 . S
H872 C868 0.950 . S
C873 C871 1.390 . S
C873 C874 1.387 . S
C873 H876 0.950 . S
C874 C873 1.387 . S
C874 C877 1.387 . S
H875 C871 0.950 . S
H876 C873 0.950 . S
C877 C868 1.390 . S
C877 H870 0.950 . S
C877 C874 1.387 . S
C878 C879 1.387 . S
C878 H882 0.950 . S
C878 C887 1.390 . S
C879 C878 1.387 . S
C879 C881 1.387 . S
H880 C887 0.950 . S
C881 C879 1.387 . S
C881 C883 1.390 . S
C881 H885 0.950 . S
H882 C878 0.950 . S
C883 C881 1.390 . S
C883 C884 1.387 . S
C883 H886 0.950 . S
C884 C883 1.387 . S
C884 C887 1.387 . S
H885 C881 0.950 . S
H886 C883 0.950 . S
C887 C878 1.390 . S
C887 H880 0.950 . S
C887 C884 1.387 . S
C888 C889 1.387 . S
C888 H892 0.950 . S
C888 C897 1.390 1_445 S
C889 C888 1.387 . S
C889 C891 1.387 . S
H890 C897 0.950 . S
C891 C889 1.387 . S
C891 C893 1.390 1_445 S
C891 H895 0.950 . S
H892 C888 0.950 . S
C893 C891 1.390 1_665 S
C893 C894 1.387 . S
C893 H896 0.950 . S
C894 C893 1.387 . S
C894 C897 1.387 . S
H895 C891 0.950 . S
H896 C893 0.950 . S
C897 C888 1.390 1_665 S
C897 H890 0.950 . S
C897 C894 1.387 . S
C898 C899 1.387 . S
C898 H902 0.950 . S
C898 C907 1.390 1_645 S
C899 C898 1.387 . S
C899 C901 1.387 . S
H900 C907 0.950 . S
C901 C899 1.387 . S
C901 C903 1.390 1_645 S
C901 H905 0.950 . S
H902 C898 0.950 . S
C903 C901 1.390 1_465 S
C903 C904 1.387 . S
C903 H906 0.950 . S
C904 C903 1.387 . S
C904 C907 1.387 . S
H905 C901 0.950 . S
H906 C903 0.950 . S
C907 C898 1.390 1_465 S
C907 H900 0.950 . S
C907 C904 1.387 . S
C908 C909 1.387 . S
C908 H912 0.950 . S
C908 C917 1.390 1_566 S
C909 C908 1.387 . S
C909 C911 1.387 . S
H910 C917 0.950 . S
C911 C909 1.387 . S
C911 C913 1.390 1_566 S
C911 H915 0.950 . S
H912 C908 0.950 . S
C913 C911 1.390 1_544 S
C913 C914 1.387 . S
C913 H916 0.950 . S
C914 C913 1.387 . S
C914 C917 1.387 . S
H915 C911 0.950 . S
H916 C913 0.950 . S
C917 C908 1.390 1_544 S
C917 H910 0.950 . S
C917 C914 1.387 . S
C918 C919 1.387 . S
C918 H922 0.950 . S
C918 C927 1.390 1_564 S
C919 C918 1.387 . S
C919 C921 1.387 . S
H920 C927 0.950 . S
C921 C919 1.387 . S
C921 C923 1.390 1_564 S
C921 H925 0.950 . S
H922 C918 0.950 . S
C923 C921 1.390 1_546 S
C923 C924 1.387 . S
C923 H926 0.950 . S
C924 C923 1.387 . S
C924 C927 1.387 . S
H925 C921 0.950 . S
H926 C923 0.950 . S
C927 C918 1.390 1_546 S
C927 H920 0.950 . S
C927 C924 1.387 . S
C928 C929 1.387 . S
C928 H932 0.950 . S
C928 C937 1.390 1_656 S
C929 C928 1.387 . S
C929 C931 1.387 . S
H930 C937 0.950 . S
C931 C929 1.387 . S
C931 C933 1.390 1_656 S
C931 H935 0.950 . S
H932 C928 0.950 . S
C933 C931 1.390 1_454 S
C933 C934 1.387 . S
C933 H936 0.950 . S
C934 C933 1.387 . S
C934 C937 1.387 . S
H935 C931 0.950 . S
H936 C933 0.950 . S
C937 C928 1.390 1_454 S
C937 H930 0.950 . S
C937 C934 1.387 . S
C938 C939 1.387 . S
C938 H942 0.950 . S
C938 C947 1.390 1_456 S
C939 C938 1.387 . S
C939 C941 1.387 . S
H940 C947 0.950 . S
C941 C939 1.387 . S
C941 C943 1.390 1_456 S
C941 H945 0.950 . S
H942 C938 0.950 . S
C943 C941 1.390 1_654 S
C943 C944 1.387 . S
C943 H946 0.950 . S
C944 C943 1.387 . S
C944 C947 1.387 . S
H945 C941 0.950 . S
H946 C943 0.950 . S
C947 C938 1.390 1_654 S
C947 H940 0.950 . S
C947 C944 1.387 . S
C709 C182 1.226 . S
C714 C5 1.226 . S
C719 C123 1.224 . S
C724 C64 1.224 . S
C729 C300 1.226 . S
C734 C241 1.226 . S
C739 C359 1.226 . S
C744 C418 1.226 . S
C749 C536 1.226 . S
C754 C477 1.226 . S
C759 C595 1.224 . S
C764 C654 1.224 . S
C769 C52 1.358 . S
C774 C446 1.282 . S
C779 C387 1.280 . S
C784 C111 1.357 . S
C789 C328 1.280 . S
C794 C170 1.357 . S
C799 C269 1.280 . S
C804 C229 1.358 . S
C809 C288 1.358 . S
C814 C682 1.283 . S
C819 C505 1.283 . S
C824 C347 1.358 . S
C829 C623 1.279 . S
C834 C406 1.357 . S
C839 C465 1.357 . S
C844 C564 1.278 . S
C849 C151 1.282 . S
C854 C524 1.359 . S
C859 C33 1.280 . S
C864 C583 1.357 . S
C869 C642 1.358 . S
C874 C92 1.279 . S
C879 C210 1.281 . S
C884 C701 1.358 . S
C889 C3 1.325 . S
C894 C62 1.325 . S
C899 C180 1.325 . S
C904 C121 1.325 . S
C909 C357 1.325 . S
C914 C239 1.325 . S
C919 C298 1.325 . S
C924 C416 1.325 . S
C929 C593 1.325 . S
C934 C475 1.325 . S
C939 C534 1.325 . S
C944 C652 1.325 . S
