# Generated by pormake.
# Topology bcu-i, (5)-cn, num edge types: 1
# Building blocks:
#     Node 0, Type 0, BuildingBlock: XOMCOT_clean_sbu_0, # of connection points: 5
#     Node 1, Type 0, BuildingBlock: XOMCOT_clean_sbu_0, # of connection points: 5
#     Node 2, Type 0, BuildingBlock: XOMCOT_clean_sbu_0, # of connection points: 5
#     Node 3, Type 0, BuildingBlock: XOMCOT_clean_sbu_0, # of connection points: 5
#     Node 4, Type 0, BuildingBlock: XOMCOT_clean_sbu_0, # of connection points: 5
#     Node 5, Type 0, BuildingBlock: XOMCOT_clean_sbu_0, # of connection points: 5
#     Node 6, Type 0, BuildingBlock: XOMCOT_clean_sbu_0, # of connection points: 5
#     Node 7, Type 0, BuildingBlock: XOMCOT_clean_sbu_0, # of connection points: 5
#     Node 8, Type 0, BuildingBlock: XOMCOT_clean_sbu_0, # of connection points: 5
#     Node 9, Type 0, BuildingBlock: XOMCOT_clean_sbu_0, # of connection points: 5
#     Node 10, Type 0, BuildingBlock: XOMCOT_clean_sbu_0, # of connection points: 5
#     Node 11, Type 0, BuildingBlock: XOMCOT_clean_sbu_0, # of connection points: 5
#     Node 12, Type 0, BuildingBlock: XOMCOT_clean_sbu_0, # of connection points: 5
#     Node 13, Type 0, BuildingBlock: XOMCOT_clean_sbu_0, # of connection points: 5
#     Node 14, Type 0, BuildingBlock: XOMCOT_clean_sbu_0, # of connection points: 5
#     Node 15, Type 0, BuildingBlock: XOMCOT_clean_sbu_0, # of connection points: 5
#     Edge 16, Type (0, 0), BuildingBlock: KIFKEQ_clean_linker_1, # of connection points: 2
#     Edge 17, Type (0, 0), BuildingBlock: KIFKEQ_clean_linker_1, # of connection points: 2
#     Edge 18, Type (0, 0), BuildingBlock: KIFKEQ_clean_linker_1, # of connection points: 2
#     Edge 19, Type (0, 0), BuildingBlock: KIFKEQ_clean_linker_1, # of connection points: 2
#     Edge 20, Type (0, 0), BuildingBlock: KIFKEQ_clean_linker_1, # of connection points: 2
#     Edge 21, Type (0, 0), BuildingBlock: KIFKEQ_clean_linker_1, # of connection points: 2
#     Edge 22, Type (0, 0), BuildingBlock: KIFKEQ_clean_linker_1, # of connection points: 2
#     Edge 23, Type (0, 0), BuildingBlock: KIFKEQ_clean_linker_1, # of connection points: 2
#     Edge 24, Type (0, 0), BuildingBlock: KIFKEQ_clean_linker_1, # of connection points: 2
#     Edge 25, Type (0, 0), BuildingBlock: KIFKEQ_clean_linker_1, # of connection points: 2
#     Edge 26, Type (0, 0), BuildingBlock: KIFKEQ_clean_linker_1, # of connection points: 2
#     Edge 27, Type (0, 0), BuildingBlock: KIFKEQ_clean_linker_1, # of connection points: 2
#     Edge 28, Type (0, 0), BuildingBlock: KIFKEQ_clean_linker_1, # of connection points: 2
#     Edge 29, Type (0, 0), BuildingBlock: KIFKEQ_clean_linker_1, # of connection points: 2
#     Edge 30, Type (0, 0), BuildingBlock: KIFKEQ_clean_linker_1, # of connection points: 2
#     Edge 31, Type (0, 0), BuildingBlock: KIFKEQ_clean_linker_1, # of connection points: 2
#     Edge 32, Type (0, 0), BuildingBlock: KIFKEQ_clean_linker_1, # of connection points: 2
#     Edge 33, Type (0, 0), BuildingBlock: KIFKEQ_clean_linker_1, # of connection points: 2
#     Edge 34, Type (0, 0), BuildingBlock: KIFKEQ_clean_linker_1, # of connection points: 2
#     Edge 35, Type (0, 0), BuildingBlock: KIFKEQ_clean_linker_1, # of connection points: 2
#     Edge 36, Type (0, 0), BuildingBlock: KIFKEQ_clean_linker_1, # of connection points: 2
#     Edge 37, Type (0, 0), BuildingBlock: KIFKEQ_clean_linker_1, # of connection points: 2
#     Edge 38, Type (0, 0), BuildingBlock: KIFKEQ_clean_linker_1, # of connection points: 2
#     Edge 39, Type (0, 0), BuildingBlock: KIFKEQ_clean_linker_1, # of connection points: 2
#     Edge 40, Type (0, 0), BuildingBlock: KIFKEQ_clean_linker_1, # of connection points: 2
#     Edge 41, Type (0, 0), BuildingBlock: KIFKEQ_clean_linker_1, # of connection points: 2
#     Edge 42, Type (0, 0), BuildingBlock: KIFKEQ_clean_linker_1, # of connection points: 2
#     Edge 43, Type (0, 0), BuildingBlock: KIFKEQ_clean_linker_1, # of connection points: 2
#     Edge 44, Type (0, 0), BuildingBlock: KIFKEQ_clean_linker_1, # of connection points: 2
#     Edge 45, Type (0, 0), BuildingBlock: KIFKEQ_clean_linker_1, # of connection points: 2
#     Edge 46, Type (0, 0), BuildingBlock: KIFKEQ_clean_linker_1, # of connection points: 2
#     Edge 47, Type (0, 0), BuildingBlock: KIFKEQ_clean_linker_1, # of connection points: 2
#     Edge 48, Type (0, 0), BuildingBlock: KIFKEQ_clean_linker_1, # of connection points: 2
#     Edge 49, Type (0, 0), BuildingBlock: KIFKEQ_clean_linker_1, # of connection points: 2
#     Edge 50, Type (0, 0), BuildingBlock: KIFKEQ_clean_linker_1, # of connection points: 2
#     Edge 51, Type (0, 0), BuildingBlock: KIFKEQ_clean_linker_1, # of connection points: 2
#     Edge 52, Type (0, 0), BuildingBlock: KIFKEQ_clean_linker_1, # of connection points: 2
#     Edge 53, Type (0, 0), BuildingBlock: KIFKEQ_clean_linker_1, # of connection points: 2
#     Edge 54, Type (0, 0), BuildingBlock: KIFKEQ_clean_linker_1, # of connection points: 2
#     Edge 55, Type (0, 0), BuildingBlock: KIFKEQ_clean_linker_1, # of connection points: 2
# Relax obj value: 0.521
# Max RMSD: 0.248
# Mean RMSD: 0.248
data_MOF--net-bcu-i--node1-XOMCOT_clean_sbu_0--edge1-KIFKEQ_clean_linker_1
_symmetry_space_group_name_H-M    P1
_symmetry_Int_Tables_number       1
_symmetry_cell_setting            triclinic
loop_
_symmetry_equiv_pos_as_xyz
'x, y, z'
_cell_length_a     45.416625
_cell_length_b     45.380022
_cell_length_c     52.081144
_cell_angle_alpha  89.991583
_cell_angle_beta   90.025061
_cell_angle_gamma 89.948863
loop_
_atom_site_label
_atom_site_type_symbol
_atom_site_fract_x
_atom_site_fract_y
_atom_site_fract_z
_atom_type_partial_charge
Co0 Co 0.22896 0.07836 0.3898 0.0
C1 C 0.17102 0.10851 0.38503 0.0
C2 C 0.18065 0.08167 0.35223 0.0
C3 C 0.15481 0.09678 0.34761 0.0
N4 N 0.19093 0.08924 0.37565 0.0
N5 N 0.14893 0.11343 0.36837 0.0
H6 H 0.173 0.12002 0.40307 0.0
H7 H 0.19181 0.06711 0.33897 0.0
C8 C 0.2366 0.01345 0.3764 0.0
O9 O 0.26438 0.01353 0.38333 0.0
N10 N 0.26704 0.06809 0.40394 0.0
C11 C 0.29381 0.07913 0.39789 0.0
C12 C 0.3141 0.06941 0.41577 0.0
C13 C 0.27128 0.05268 0.42568 0.0
N14 N 0.29958 0.05317 0.43325 0.0
C15 C 0.24253 0.11973 0.35168 0.0
C16 C 0.27608 0.08401 0.32014 0.0
C17 C 0.27169 0.11361 0.31353 0.0
C18 C 0.25461 0.13147 0.32953 0.0
C19 C 0.26316 0.07294 0.3425 0.0
N20 N 0.24687 0.09092 0.35801 0.0
H21 H 0.22943 0.13384 0.36386 0.0
H22 H 0.26703 0.05031 0.34751 0.0
H23 H 0.29822 0.09438 0.38243 0.0
H24 H 0.25388 0.04163 0.4361 0.0
O25 O 0.23167 0.11505 0.40835 0.0
O26 O 0.21137 0.07413 0.4234 0.0
O27 O 0.22131 0.03711 0.3768 0.0
C28 C 0.21856 0.10157 0.42718 0.0
H29 H 0.14162 0.09595 0.33031 0.0
H30 H 0.33725 0.075 0.41663 0.0
H31 H 0.28931 0.06965 0.30818 0.0
H32 H 0.25109 0.15458 0.32524 0.0
Co33 Co 0.91734 0.26006 0.39334 0.0
C34 C 0.8922 0.2 0.38339 0.0
C35 C 0.92875 0.21054 0.35906 0.0
C36 C 0.91852 0.1832 0.35237 0.0
N37 N 0.91249 0.22108 0.37865 0.0
N38 N 0.89542 0.17658 0.36757 0.0
H39 H 0.87485 0.20203 0.39744 0.0
H40 H 0.94627 0.22237 0.34961 0.0
C41 C 0.97865 0.24474 0.4049 0.0
O42 O 0.96975 0.24094 0.42864 0.0
N43 N 0.92257 0.29917 0.40735 0.0
C44 C 0.9019 0.32033 0.41011 0.0
C45 C 0.91369 0.34317 0.42432 0.0
C46 C 0.94665 0.30972 0.41918 0.0
N47 N 0.94192 0.33639 0.42967 0.0
C48 C 0.88836 0.27036 0.34626 0.0
C49 C 0.93083 0.30684 0.32516 0.0
C50 C 0.90557 0.30001 0.3109 0.0
C51 C 0.88416 0.28159 0.32174 0.0
C52 C 0.93429 0.29487 0.34967 0.0
N53 N 0.91322 0.27681 0.35969 0.0
H54 H 0.8717 0.25629 0.35456 0.0
H55 H 0.95371 0.30028 0.36069 0.0
H56 H 0.8794 0.31863 0.4035 0.0
H57 H 0.96672 0.29745 0.4219 0.0
O58 O 0.8764 0.26071 0.4041 0.0
O59 O 0.91368 0.24446 0.42758 0.0
O60 O 0.96096 0.25504 0.38809 0.0
C61 C 0.88568 0.24966 0.42569 0.0
H62 H 0.92744 0.16941 0.33732 0.0
H63 H 0.9021 0.36241 0.4313 0.0
H64 H 0.94769 0.32118 0.31743 0.0
H65 H 0.86401 0.27638 0.31157 0.0
Co66 Co 0.79945 0.91653 0.37162 0.0
C67 C 0.85335 0.88467 0.35506 0.0
C68 C 0.85053 0.9274 0.3377 0.0
C69 C 0.87557 0.91363 0.32879 0.0
N70 N 0.8368 0.90942 0.35451 0.0
N71 N 0.87706 0.88676 0.33963 0.0
H72 H 0.84822 0.8653 0.36628 0.0
H73 H 0.84256 0.94865 0.33151 0.0
C74 C 0.78884 0.98323 0.36728 0.0
O75 O 0.76073 0.98126 0.37278 0.0
N76 N 0.76211 0.92262 0.38858 0.0
C77 C 0.73614 0.90956 0.38318 0.0
C78 C 0.71521 0.91975 0.40017 0.0
C79 C 0.75703 0.93932 0.40945 0.0
N80 N 0.72844 0.93875 0.41632 0.0
C81 C 0.78207 0.88134 0.32948 0.0
C82 C 0.7463 0.92231 0.30553 0.0
C83 C 0.74785 0.89368 0.2957 0.0
C84 C 0.76641 0.87318 0.30764 0.0
C85 C 0.7625 0.9296 0.32733 0.0
N86 N 0.77962 0.90906 0.33935 0.0
H87 H 0.79571 0.8651 0.33888 0.0
H88 H 0.76028 0.95145 0.33468 0.0
H89 H 0.73249 0.89401 0.36778 0.0
H90 H 0.77364 0.95281 0.41862 0.0
O91 O 0.79935 0.87701 0.38566 0.0
O92 O 0.81897 0.91626 0.40441 0.0
O93 O 0.80477 0.96016 0.36441 0.0
C94 C 0.8133 0.8882 0.40523 0.0
H95 H 0.89097 0.92228 0.31484 0.0
H96 H 0.69194 0.91463 0.40002 0.0
H97 H 0.73243 0.93884 0.29662 0.0
H98 H 0.76803 0.85072 0.30073 0.0
Co99 Co 0.10108 0.74202 0.36699 0.0
C100 C 0.13087 0.80001 0.35933 0.0
C101 C 0.11953 0.77941 0.32365 0.0
C102 C 0.13304 0.80593 0.31843 0.0
N103 N 0.11845 0.77551 0.34932 0.0
N104 N 0.13998 0.81882 0.34093 0.0
H105 H 0.1334 0.80427 0.3796 0.0
H106 H 0.11084 0.76414 0.30963 0.0
C107 C 0.03821 0.73882 0.34654 0.0
O108 O 0.03358 0.7126 0.35632 0.0
N109 N 0.08441 0.70854 0.38477 0.0
C110 C 0.09615 0.68125 0.3865 0.0
C111 C 0.08041 0.66521 0.40424 0.0
C112 C 0.06244 0.70903 0.40212 0.0
N113 N 0.05912 0.68273 0.41373 0.0
C114 C 0.14626 0.71431 0.33821 0.0
C115 C 0.11019 0.67794 0.30951 0.0
C116 C 0.14077 0.67573 0.30664 0.0
C117 C 0.15892 0.69433 0.32116 0.0
C118 C 0.09847 0.69833 0.32662 0.0
N119 N 0.11644 0.71605 0.3408 0.0
H120 H 0.16037 0.72848 0.34946 0.0
H121 H 0.07505 0.69898 0.32893 0.0
H122 H 0.11557 0.67379 0.3764 0.0
H123 H 0.04952 0.72844 0.40653 0.0
O124 O 0.13345 0.74034 0.39114 0.0
O125 O 0.0924 0.76645 0.39609 0.0
O126 O 0.06371 0.75072 0.34723 0.0
C127 C 0.11762 0.75789 0.40532 0.0
H128 H 0.13682 0.81532 0.29961 0.0
H129 H 0.08453 0.64266 0.41002 0.0
H130 H 0.09539 0.66372 0.29892 0.0
H131 H 0.18265 0.69373 0.31916 0.0
Co132 Co 0.20792 0.88084 0.59863 0.0
C133 C 0.15482 0.85084 0.61927 0.0
C134 C 0.16477 0.89012 0.64029 0.0
C135 C 0.13953 0.87782 0.65032 0.0
N136 N 0.17413 0.87338 0.62055 0.0
N137 N 0.13319 0.85311 0.63698 0.0
H138 H 0.15661 0.83295 0.60576 0.0
H139 H 0.17538 0.91 0.64695 0.0
C140 C 0.19379 0.94301 0.59033 0.0
O141 O 0.18908 0.93516 0.56642 0.0
N142 N 0.24253 0.88756 0.57738 0.0
C143 C 0.26082 0.8663 0.5686 0.0
C144 C 0.28427 0.87916 0.5563 0.0
C145 C 0.25579 0.91312 0.57091 0.0
N146 N 0.28111 0.90856 0.55795 0.0
C147 C 0.23622 0.84757 0.63715 0.0
C148 C 0.27718 0.89027 0.65009 0.0
C149 C 0.2811 0.86135 0.65876 0.0
C150 C 0.25982 0.84007 0.65288 0.0
C151 C 0.2534 0.89677 0.63416 0.0
N152 N 0.23396 0.87524 0.62727 0.0
H153 H 0.2206 0.83075 0.63168 0.0
H154 H 0.25185 0.91859 0.62603 0.0
H155 H 0.25786 0.84289 0.57131 0.0
H156 H 0.24747 0.93472 0.5755 0.0
O157 O 0.20658 0.84074 0.58554 0.0
O158 O 0.18302 0.87894 0.56875 0.0
O159 O 0.20348 0.92413 0.60644 0.0
C160 C 0.18961 0.85118 0.5676 0.0
H161 H 0.12663 0.8869 0.66588 0.0
H162 H 0.30235 0.86782 0.54703 0.0
H163 H 0.2932 0.90724 0.6544 0.0
H164 H 0.26189 0.81764 0.65979 0.0
Co165 Co 0.10539 0.23241 0.60773 0.0
C166 C 0.12347 0.16962 0.61438 0.0
C167 C 0.11106 0.18948 0.65007 0.0
C168 C 0.11951 0.16076 0.65475 0.0
N169 N 0.1139 0.19518 0.62475 0.0
N170 N 0.12715 0.14839 0.63221 0.0
H171 H 0.12798 0.1663 0.59425 0.0
H172 H 0.10331 0.20508 0.66424 0.0
C173 C 0.04097 0.24506 0.62119 0.0
O174 O 0.04245 0.27285 0.61435 0.0
N175 N 0.09758 0.26958 0.59079 0.0
C176 C 0.11273 0.29497 0.59359 0.0
C177 C 0.10081 0.31593 0.57756 0.0
C178 C 0.07763 0.27505 0.57225 0.0
N179 N 0.07851 0.30341 0.56447 0.0
C180 C 0.14933 0.25195 0.64227 0.0
C181 C 0.11463 0.29093 0.66962 0.0
C182 C 0.14517 0.29132 0.67317 0.0
C183 C 0.16252 0.27089 0.65987 0.0
C184 C 0.10236 0.2717 0.65175 0.0
N185 N 0.11981 0.25336 0.63761 0.0
H186 H 0.16304 0.23685 0.63158 0.0
H187 H 0.07912 0.27291 0.64862 0.0
H188 H 0.13121 0.29818 0.60637 0.0
H189 H 0.06224 0.25878 0.56513 0.0
O190 O 0.14169 0.23007 0.58843 0.0
O191 O 0.09867 0.21212 0.57578 0.0
O192 O 0.06393 0.22871 0.62154 0.0
C193 C 0.12649 0.21626 0.571 0.0
H194 H 0.11953 0.1497 0.67316 0.0
H195 H 0.10751 0.33875 0.5761 0.0
H196 H 0.10045 0.30632 0.67963 0.0
H197 H 0.18615 0.26998 0.66264 0.0
Co198 Co 0.77336 0.10434 0.59274 0.0
C199 C 0.82982 0.13382 0.60722 0.0
C200 C 0.82127 0.095 0.62945 0.0
C201 C 0.8473 0.10712 0.63772 0.0
N202 N 0.81037 0.11158 0.61019 0.0
N203 N 0.85268 0.13158 0.62377 0.0
H204 H 0.82712 0.15165 0.5937 0.0
H205 H 0.81085 0.07554 0.63723 0.0
C206 C 0.79467 0.04438 0.58277 0.0
O207 O 0.805 0.05491 0.56111 0.0
N208 N 0.73628 0.09677 0.57596 0.0
C209 C 0.71283 0.11495 0.57431 0.0
C210 C 0.69142 0.10146 0.55959 0.0
C211 C 0.72879 0.07252 0.56271 0.0
N212 N 0.70155 0.07468 0.55272 0.0
C213 C 0.75459 0.13262 0.63822 0.0
C214 C 0.71778 0.08785 0.65484 0.0
C215 C 0.71826 0.11465 0.66811 0.0
C216 C 0.73732 0.13702 0.65992 0.0
C217 C 0.73528 0.08444 0.63307 0.0
N218 N 0.75303 0.10684 0.62496 0.0
H219 H 0.76872 0.15019 0.63156 0.0
H220 H 0.73362 0.06428 0.62213 0.0
H221 H 0.71166 0.13672 0.58269 0.0
H222 H 0.74337 0.05415 0.55923 0.0
O223 O 0.77083 0.1453 0.58216 0.0
O224 O 0.79169 0.10953 0.55968 0.0
O225 O 0.78011 0.06094 0.59792 0.0
C226 C 0.78423 0.13707 0.5613 0.0
H227 H 0.86127 0.09831 0.6527 0.0
H228 H 0.67045 0.11075 0.55389 0.0
H229 H 0.70312 0.07022 0.66058 0.0
H230 H 0.7385 0.15789 0.66996 0.0
Co231 Co 0.88699 0.75641 0.60094 0.0
C232 C 0.86668 0.81848 0.607 0.0
C233 C 0.87514 0.7978 0.64325 0.0
C234 C 0.86539 0.82612 0.64773 0.0
N235 N 0.87563 0.79291 0.61768 0.0
N236 N 0.86029 0.83898 0.62485 0.0
H237 H 0.86444 0.82229 0.58663 0.0
H238 H 0.88135 0.78181 0.65768 0.0
C239 C 0.9464 0.74092 0.62529 0.0
O240 O 0.94633 0.71391 0.6163 0.0
N241 N 0.89792 0.72008 0.5841 0.0
C242 C 0.8809 0.69597 0.58092 0.0
C243 C 0.89457 0.67714 0.56394 0.0
C244 C 0.92113 0.71602 0.56843 0.0
N245 N 0.91994 0.68979 0.5564 0.0
C246 C 0.83589 0.74045 0.62856 0.0
C247 C 0.86006 0.69369 0.65523 0.0
C248 C 0.82969 0.69896 0.65713 0.0
C249 C 0.81779 0.72318 0.64399 0.0
C250 C 0.87748 0.71196 0.64007 0.0
N251 N 0.86522 0.73455 0.62651 0.0
H252 H 0.82628 0.75842 0.61779 0.0
H253 H 0.90039 0.70676 0.63821 0.0
H254 H 0.85935 0.69289 0.58931 0.0
H255 H 0.93801 0.73245 0.56517 0.0
O256 O 0.85612 0.76071 0.57569 0.0
O257 O 0.90154 0.77813 0.57177 0.0
O258 O 0.92416 0.75788 0.62231 0.0
C259 C 0.87548 0.77458 0.56179 0.0
H260 H 0.86271 0.83659 0.66625 0.0
H261 H 0.88616 0.65627 0.55707 0.0
H262 H 0.87029 0.67503 0.66464 0.0
H263 H 0.79466 0.72873 0.64538 0.0
Co264 Co 0.71283 0.58282 0.88229 0.0
C265 C 0.6565 0.61326 0.87558 0.0
C266 C 0.64981 0.56738 0.88386 0.0
C267 C 0.62275 0.58099 0.88231 0.0
N268 N 0.67085 0.58771 0.87958 0.0
N269 N 0.62712 0.60982 0.87731 0.0
H270 H 0.66735 0.6341 0.87211 0.0
H271 H 0.65376 0.54458 0.88875 0.0
C272 C 0.7226 0.52049 0.86369 0.0
O273 O 0.74516 0.52876 0.84964 0.0
N274 N 0.75503 0.57793 0.88553 0.0
C275 C 0.77672 0.59795 0.88211 0.0
C276 C 0.80255 0.58685 0.89218 0.0
C277 C 0.76794 0.55536 0.89793 0.0
N278 N 0.79687 0.55993 0.90178 0.0
C279 C 0.72777 0.61729 0.83851 0.0
C280 C 0.70596 0.57897 0.80184 0.0
C281 C 0.72026 0.60469 0.79411 0.0
C282 C 0.73047 0.62441 0.81268 0.0
C283 C 0.70302 0.5731 0.82801 0.0
N284 N 0.71579 0.59111 0.8459 0.0
H285 H 0.73509 0.63308 0.85254 0.0
H286 H 0.69033 0.55415 0.83374 0.0
H287 H 0.77385 0.62007 0.87504 0.0
H288 H 0.75584 0.53715 0.90622 0.0
O289 O 0.71594 0.62241 0.89576 0.0
O290 O 0.70924 0.58208 0.91905 0.0
O291 O 0.70789 0.53931 0.87661 0.0
C292 C 0.71145 0.61064 0.91819 0.0
H293 H 0.6016 0.5708 0.88587 0.0
H294 H 0.82328 0.59842 0.89396 0.0
H295 H 0.69711 0.56371 0.78783 0.0
H296 H 0.74119 0.64481 0.80724 0.0
Co297 Co 0.39607 0.75867 0.88478 0.0
C298 C 0.36498 0.70017 0.88257 0.0
C299 C 0.40341 0.70232 0.85872 0.0
C300 C 0.39133 0.67479 0.85635 0.0
N301 N 0.38705 0.71831 0.8752 0.0
N302 N 0.36711 0.67338 0.87129 0.0
H303 H 0.3476 0.7063 0.89566 0.0
H304 H 0.42298 0.71012 0.84905 0.0
C305 C 0.46379 0.75779 0.88798 0.0
O306 O 0.46719 0.78637 0.89043 0.0
N307 N 0.40532 0.79885 0.8942 0.0
C308 C 0.4014 0.82406 0.88078 0.0
C309 C 0.41221 0.84731 0.89509 0.0
C310 C 0.41694 0.80723 0.91677 0.0
N311 N 0.42147 0.83646 0.91771 0.0
C312 C 0.37204 0.76361 0.83505 0.0
C313 C 0.42097 0.78735 0.81105 0.0
C314 C 0.39529 0.78252 0.79683 0.0
C315 C 0.37071 0.77024 0.80905 0.0
C316 C 0.42148 0.78001 0.83706 0.0
N317 N 0.39707 0.76865 0.84874 0.0
H318 H 0.35287 0.75444 0.84437 0.0
H319 H 0.44111 0.78459 0.84782 0.0
H320 H 0.39192 0.82556 0.86179 0.0
H321 H 0.42368 0.79203 0.93169 0.0
O322 O 0.35507 0.76682 0.89208 0.0
O323 O 0.38796 0.74993 0.92006 0.0
O324 O 0.43846 0.74627 0.88485 0.0
C325 C 0.36115 0.75846 0.91544 0.0
H326 H 0.4002 0.65701 0.84488 0.0
H327 H 0.41377 0.87013 0.8892 0.0
H328 H 0.44026 0.79707 0.80225 0.0
H329 H 0.35023 0.76674 0.79883 0.0
Co330 Co 0.27031 0.41453 0.89521 0.0
C331 C 0.32903 0.38583 0.88984 0.0
C332 C 0.32712 0.42742 0.87047 0.0
C333 C 0.35395 0.41455 0.86536 0.0
N334 N 0.3115 0.40951 0.88599 0.0
N335 N 0.35504 0.38834 0.87753 0.0
H336 H 0.32243 0.36627 0.90009 0.0
H337 H 0.31903 0.4477 0.86219 0.0
C338 C 0.26162 0.48168 0.89765 0.0
O339 O 0.23322 0.47983 0.90181 0.0
N340 N 0.22905 0.41861 0.90412 0.0
C341 C 0.20531 0.41014 0.89034 0.0
C342 C 0.1802 0.4169 0.90397 0.0
C343 C 0.21809 0.42859 0.92652 0.0
N344 N 0.1884 0.4284 0.9267 0.0
C345 C 0.26773 0.3878 0.84638 0.0
C346 C 0.23788 0.43239 0.82113 0.0
C347 C 0.24393 0.40604 0.80814 0.0
C348 C 0.25965 0.38386 0.82089 0.0
C349 C 0.24663 0.43553 0.84667 0.0
N350 N 0.26067 0.41304 0.8591 0.0
H351 H 0.27905 0.37016 0.85622 0.0
H352 H 0.2406 0.45536 0.85667 0.0
H353 H 0.20595 0.39999 0.87158 0.0
H354 H 0.23155 0.4378 0.94169 0.0
O355 O 0.26698 0.37315 0.90345 0.0
O356 O 0.27976 0.40843 0.93083 0.0
O357 O 0.27721 0.45857 0.89397 0.0
C358 C 0.27477 0.38061 0.92662 0.0
H359 H 0.37098 0.42351 0.85313 0.0
H360 H 0.1577 0.41423 0.8975 0.0
H361 H 0.22571 0.44999 0.81191 0.0
H362 H 0.26434 0.36294 0.81174 0.0
Co363 Co 0.58911 0.24778 0.89249 0.0
C364 C 0.62261 0.30244 0.87943 0.0
C365 C 0.59043 0.29134 0.85092 0.0
C366 C 0.60484 0.31646 0.84319 0.0
N367 N 0.60139 0.28264 0.87376 0.0
N368 N 0.62505 0.32343 0.86116 0.0
H369 H 0.63643 0.30142 0.89626 0.0
H370 H 0.57321 0.28009 0.84046 0.0
C371 C 0.52243 0.24457 0.88148 0.0
O372 O 0.51917 0.21747 0.88978 0.0
N373 N 0.57753 0.21268 0.91081 0.0
C374 C 0.58995 0.18573 0.90893 0.0
C375 C 0.57635 0.16704 0.92604 0.0
C376 C 0.55751 0.21039 0.92972 0.0
N377 N 0.55574 0.1826 0.93873 0.0
C378 C 0.62744 0.22434 0.85505 0.0
C379 C 0.58673 0.18933 0.82994 0.0
C380 C 0.61618 0.18876 0.82209 0.0
C381 C 0.63665 0.20666 0.83477 0.0
C382 C 0.57848 0.20725 0.85044 0.0
N383 N 0.59878 0.22434 0.86273 0.0
H384 H 0.64338 0.23806 0.86475 0.0
H385 H 0.55602 0.20661 0.85669 0.0
H386 H 0.60777 0.18001 0.89609 0.0
H387 H 0.54415 0.2286 0.93644 0.0
O388 O 0.62645 0.24611 0.91049 0.0
O389 O 0.58673 0.27016 0.92373 0.0
O390 O 0.54784 0.25655 0.88013 0.0
C391 C 0.614 0.26275 0.92778 0.0
H392 H 0.60032 0.3289 0.8259 0.0
H393 H 0.58083 0.1438 0.92864 0.0
H394 H 0.57035 0.17566 0.82064 0.0
H395 H 0.65952 0.20727 0.8289 0.0
Co396 Co 0.73634 0.40758 0.09505 0.0
C397 C 0.67794 0.37991 0.10608 0.0
C398 C 0.6953 0.40352 0.13836 0.0
C399 C 0.66878 0.39127 0.14536 0.0
N400 N 0.70121 0.39619 0.11378 0.0
N401 N 0.65794 0.37655 0.12499 0.0
H402 H 0.67552 0.3703 0.08724 0.0
H403 H 0.70935 0.41689 0.15041 0.0
C404 C 0.74007 0.47444 0.10417 0.0
O405 O 0.76772 0.47662 0.09712 0.0
N406 N 0.77167 0.41841 0.07674 0.0
C407 C 0.79842 0.40566 0.07905 0.0
C408 C 0.81718 0.41795 0.06128 0.0
C409 C 0.77422 0.43747 0.05708 0.0
N410 N 0.80192 0.43813 0.0478 0.0
C411 C 0.76182 0.37035 0.13253 0.0
C412 C 0.79595 0.41244 0.15675 0.0
C413 C 0.79966 0.38275 0.16315 0.0
C414 C 0.78186 0.36161 0.15127 0.0
C415 C 0.77585 0.4202 0.1377 0.0
N416 N 0.75969 0.39918 0.12535 0.0
H417 H 0.74854 0.3538 0.12316 0.0
H418 H 0.7744 0.44292 0.13249 0.0
H419 H 0.80387 0.38827 0.09242 0.0
H420 H 0.75617 0.45064 0.04976 0.0
O421 O 0.73845 0.36937 0.07857 0.0
O422 O 0.71456 0.40823 0.06332 0.0
O423 O 0.72725 0.44943 0.1057 0.0
C424 C 0.72235 0.38082 0.06044 0.0
H425 H 0.65807 0.39341 0.16383 0.0
H426 H 0.84022 0.41267 0.05859 0.0
H427 H 0.80927 0.42939 0.16566 0.0
H428 H 0.78364 0.33849 0.15622 0.0
Co429 Co 0.58955 0.73807 0.09428 0.0
C430 C 0.61642 0.67884 0.10363 0.0
C431 C 0.59092 0.69417 0.1356 0.0
C432 C 0.60374 0.66771 0.14222 0.0
N433 N 0.59903 0.70128 0.11146 0.0
N434 N 0.61962 0.65818 0.12203 0.0
H435 H 0.62745 0.67777 0.0853 0.0
H436 H 0.57721 0.70769 0.14783 0.0
C437 C 0.52418 0.74802 0.10625 0.0
O438 O 0.5248 0.77613 0.10039 0.0
N439 N 0.5807 0.77492 0.07734 0.0
C440 C 0.59452 0.80099 0.08048 0.0
C441 C 0.58178 0.82145 0.0644 0.0
C442 C 0.56085 0.77947 0.05857 0.0
N443 N 0.56038 0.80789 0.05095 0.0
C444 C 0.63137 0.75628 0.13062 0.0
C445 C 0.59658 0.79586 0.15728 0.0
C446 C 0.62687 0.79473 0.16218 0.0
C447 C 0.64414 0.77401 0.14922 0.0
C448 C 0.58464 0.7777 0.13829 0.0
N449 N 0.60228 0.75901 0.12465 0.0
H450 H 0.64512 0.74089 0.12031 0.0
H451 H 0.56168 0.77985 0.13394 0.0
H452 H 0.6125 0.805 0.09363 0.0
H453 H 0.54641 0.76247 0.05126 0.0
O454 O 0.62651 0.73765 0.07593 0.0
O455 O 0.58489 0.71756 0.06214 0.0
O456 O 0.54778 0.73262 0.10687 0.0
C457 C 0.6126 0.72321 0.05809 0.0
H458 H 0.60161 0.65636 0.16041 0.0
H459 H 0.58721 0.84463 0.06326 0.0
H460 H 0.58258 0.81151 0.16717 0.0
H461 H 0.66751 0.77197 0.15305 0.0
Co462 Co 0.25785 0.6032 0.06734 0.0
C463 C 0.31685 0.63054 0.07673 0.0
C464 C 0.31441 0.58569 0.08954 0.0
C465 C 0.3412 0.59696 0.09672 0.0
N466 N 0.29909 0.60661 0.07686 0.0
N467 N 0.34266 0.62519 0.08883 0.0
H468 H 0.31055 0.65189 0.06932 0.0
H469 H 0.30618 0.5641 0.09452 0.0
C470 C 0.27886 0.54664 0.04704 0.0
O471 O 0.29197 0.56203 0.02903 0.0
N472 N 0.21691 0.59935 0.0584 0.0
C473 C 0.1931 0.60873 0.07158 0.0
C474 C 0.16817 0.59747 0.05998 0.0
C475 C 0.20635 0.5834 0.03876 0.0
N476 N 0.17677 0.58198 0.03925 0.0
C477 C 0.25563 0.62031 0.11965 0.0
C478 C 0.22702 0.57046 0.13745 0.0
C479 C 0.23384 0.59313 0.15472 0.0
C480 C 0.24863 0.61816 0.14558 0.0
C481 C 0.23431 0.57356 0.11162 0.0
N482 N 0.24828 0.59832 0.1031 0.0
H483 H 0.2666 0.63986 0.11267 0.0
H484 H 0.22784 0.55644 0.09838 0.0
H485 H 0.19386 0.62151 0.0891 0.0
H486 H 0.22011 0.5715 0.02532 0.0
O487 O 0.25423 0.64556 0.06429 0.0
O488 O 0.26628 0.615 0.03271 0.0
O489 O 0.26302 0.55966 0.06372 0.0
C490 C 0.26098 0.64178 0.04021 0.0
H491 H 0.35803 0.5854 0.10746 0.0
H492 H 0.14571 0.59949 0.0667 0.0
H493 H 0.21557 0.55081 0.14371 0.0
H494 H 0.25369 0.63654 0.15808 0.0
Co495 Co 0.40033 0.27239 0.10109 0.0
C496 C 0.37362 0.33189 0.09359 0.0
C497 C 0.40444 0.33099 0.12476 0.0
C498 C 0.39328 0.35911 0.12263 0.0
N499 N 0.39216 0.31391 0.10649 0.0
N500 N 0.37399 0.35957 0.10295 0.0
H501 H 0.3596 0.32508 0.07798 0.0
H502 H 0.42042 0.3235 0.13873 0.0
C503 C 0.46663 0.26708 0.11265 0.0
O504 O 0.46646 0.23821 0.11395 0.0
N505 N 0.40801 0.23103 0.09568 0.0
C506 C 0.39284 0.20782 0.10514 0.0
C507 C 0.40319 0.18234 0.09376 0.0
C508 C 0.42644 0.2196 0.07816 0.0
N509 N 0.4245 0.19009 0.0772 0.0
C510 C 0.36257 0.2712 0.14384 0.0
C511 C 0.39781 0.23664 0.17496 0.0
C512 C 0.36793 0.2399 0.18087 0.0
C513 C 0.35067 0.25886 0.16593 0.0
C514 C 0.40885 0.24947 0.15265 0.0
N515 N 0.39073 0.26491 0.13664 0.0
H516 H 0.34844 0.28396 0.13136 0.0
H517 H 0.43106 0.24454 0.14737 0.0
H518 H 0.37492 0.20936 0.11874 0.0
H519 H 0.44087 0.23266 0.06614 0.0
O520 O 0.36176 0.26626 0.08667 0.0
O521 O 0.40149 0.27861 0.06439 0.0
O522 O 0.44294 0.28172 0.10887 0.0
C523 C 0.37348 0.27237 0.06452 0.0
H524 H 0.39922 0.37782 0.13442 0.0
H525 H 0.39555 0.16008 0.0971 0.0
H526 H 0.41186 0.2222 0.18611 0.0
H527 H 0.32762 0.26246 0.1703 0.0
H528 H 0.1778 0.00213 0.37192 0.0
H529 H 0.26332 0.96135 0.36363 0.0
H530 H 0.15425 0.95513 0.36208 0.0
H531 H 0.23958 0.91439 0.35352 0.0
H532 H 0.18197 0.84404 0.31141 0.0
H533 H 0.20563 0.89196 0.31834 0.0
H534 H 0.15227 0.90536 0.38592 0.0
H535 H 0.12878 0.85758 0.37903 0.0
C536 C 0.19159 0.98323 0.36776 0.0
C537 C 0.22245 0.98545 0.36866 0.0
C538 C 0.17807 0.95631 0.36226 0.0
C539 C 0.19511 0.93116 0.35715 0.0
C540 C 0.22595 0.93351 0.35726 0.0
C541 C 0.2395 0.96035 0.36316 0.0
C542 C 0.17525 0.85736 0.32762 0.0
C543 C 0.15361 0.84712 0.34471 0.0
C544 C 0.18888 0.88461 0.33168 0.0
C545 C 0.18071 0.90233 0.35262 0.0
C546 C 0.15883 0.89223 0.36951 0.0
C547 C 0.14557 0.86481 0.3657 0.0
H548 H 0.11776 0.12136 0.41145 0.0
H549 H 0.12731 0.15194 0.33358 0.0
H550 H 0.07912 0.15741 0.41887 0.0
H551 H 0.08959 0.1895 0.34112 0.0
H552 H 0.99673 0.22761 0.35706 0.0
H553 H 0.03932 0.1973 0.3471 0.0
H554 H 0.06999 0.20704 0.42531 0.0
H555 H 0.02614 0.23539 0.43559 0.0
C556 C 0.11161 0.13611 0.396 0.0
C557 C 0.12526 0.13393 0.37197 0.0
C558 C 0.08974 0.15706 0.40027 0.0
C559 C 0.08143 0.17685 0.38073 0.0
C560 C 0.09514 0.17451 0.35655 0.0
C561 C 0.11669 0.15305 0.35216 0.0
C562 C 0.0127 0.22349 0.37204 0.0
C563 C 0.00768 0.23311 0.39728 0.0
C564 C 0.03733 0.20623 0.36629 0.0
C565 C 0.05779 0.1989 0.38558 0.0
C566 C 0.05412 0.21115 0.4102 0.0
C567 C 0.02916 0.22774 0.41606 0.0
H568 H 0.76514 0.03644 0.38077 0.0
H569 H 0.84406 0.99656 0.34993 0.0
H570 H 0.78927 0.08456 0.38018 0.0
H571 H 0.86788 0.04453 0.34924 0.0
H572 H 0.88936 0.13921 0.3272 0.0
H573 H 0.86207 0.09326 0.32615 0.0
H574 H 0.83282 0.10805 0.40393 0.0
H575 H 0.86082 0.1539 0.40539 0.0
C576 C 0.78747 0.03794 0.37358 0.0
C577 C 0.80261 0.01264 0.36522 0.0
C578 C 0.8013 0.06544 0.37344 0.0
C579 C 0.83038 0.06821 0.36464 0.0
C580 C 0.84531 0.04305 0.35586 0.0
C581 C 0.83165 0.01555 0.35629 0.0
C582 C 0.87742 0.1327 0.34423 0.0
C583 C 0.87772 0.15022 0.36652 0.0
C584 C 0.86164 0.10638 0.34353 0.0
C585 C 0.8455 0.09706 0.36499 0.0
C586 C 0.84492 0.11489 0.38703 0.0
C587 C 0.86097 0.14117 0.38783 0.0
H588 H 0.93548 0.89537 0.33536 0.0
H589 H 0.86839 0.82831 0.33458 0.0
H590 H 0.97348 0.85764 0.33215 0.0
H591 H 0.90604 0.79033 0.32985 0.0
H592 H 0.98085 0.73171 0.36013 0.0
H593 H 0.94107 0.7667 0.35452 0.0
H594 H 0.99803 0.82191 0.30851 0.0
H595 H 0.03845 0.78745 0.31553 0.0
C596 C 0.92895 0.87249 0.33393 0.0
C597 C 0.89918 0.86463 0.33551 0.0
C598 C 0.95066 0.85078 0.33189 0.0
C599 C 0.94299 0.82072 0.33084 0.0
C600 C 0.91294 0.8131 0.33124 0.0
C601 C 0.89132 0.8348 0.33385 0.0
C602 C 0.98473 0.75102 0.34837 0.0
C603 C 0.01284 0.75696 0.33846 0.0
C604 C 0.9618 0.77116 0.34505 0.0
C605 C 0.96627 0.7975 0.3313 0.0
C606 C 0.99392 0.80233 0.31982 0.0
C607 C 0.01704 0.78243 0.32359 0.0
H608 H 0.16073 0.11459 0.6636 0.0
H609 H 0.11602 0.11506 0.59052 0.0
H610 H 0.1798 0.06521 0.65453 0.0
H611 H 0.1341 0.06574 0.58167 0.0
H612 H 0.19192 0.99107 0.55938 0.0
H613 H 0.17777 0.04101 0.57067 0.0
H614 H 0.16704 0.0144 0.64984 0.0
H615 H 0.18264 0.96449 0.63856 0.0
C616 C 0.15472 0.10395 0.64575 0.0
C617 C 0.13713 0.11873 0.62766 0.0
C618 C 0.1656 0.07568 0.64053 0.0
C619 C 0.15884 0.06155 0.61721 0.0
C620 C 0.14054 0.07618 0.5995 0.0
C621 C 0.13001 0.10445 0.60459 0.0
C622 C 0.18679 0.99593 0.57925 0.0
C623 C 0.18805 0.9738 0.59804 0.0
C624 C 0.17843 0.02455 0.58572 0.0
C625 C 0.17059 0.03169 0.61109 0.0
C626 C 0.17301 0.00978 0.63013 0.0
C627 C 0.18185 0.98113 0.62368 0.0
H628 H 0.88901 0.13809 0.66488 0.0
H629 H 0.87388 0.16906 0.58744 0.0
H630 H 0.93334 0.16805 0.66735 0.0
H631 H 0.91787 0.19943 0.59026 0.0
H632 H 0.98658 0.26796 0.61077 0.0
H633 H 0.9392 0.24281 0.6138 0.0
H634 H 0.98247 0.16627 0.64559 0.0
H635 H 0.02979 0.19133 0.64271 0.0
C636 C 0.89504 0.1512 0.64836 0.0
C637 C 0.87787 0.15083 0.62585 0.0
C638 C 0.9204 0.16849 0.64987 0.0
C639 C 0.92906 0.18603 0.629 0.0
C640 C 0.91151 0.18641 0.60679 0.0
C641 C 0.88625 0.16895 0.60519 0.0
C642 C 0.98593 0.24598 0.61885 0.0
C643 C 0.01196 0.23159 0.6264 0.0
C644 C 0.95883 0.23152 0.62038 0.0
C645 C 0.9572 0.20253 0.62975 0.0
C646 C 0.98302 0.18869 0.63845 0.0
C647 C 0.01014 0.20301 0.6367 0.0
H648 H 0.82007 0.86985 0.65208 0.0
H649 H 0.87807 0.87466 0.58671 0.0
H650 H 0.80116 0.91906 0.64217 0.0
H651 H 0.86043 0.92406 0.5773 0.0
H652 H 0.80589 0.99917 0.55013 0.0
H653 H 0.81962 0.94893 0.56095 0.0
H654 H 0.81222 0.96988 0.64173 0.0
H655 H 0.79683 0.01984 0.63065 0.0
C656 C 0.829 0.88168 0.63581 0.0
C657 C 0.85031 0.8685 0.62003 0.0
C658 C 0.81826 0.90985 0.63011 0.0
C659 C 0.82899 0.92551 0.60874 0.0
C660 C 0.85095 0.91243 0.59345 0.0
C661 C 0.86126 0.88419 0.5989 0.0
C662 C 0.80696 0.99293 0.57019 0.0
C663 C 0.80059 0.01342 0.58956 0.0
C664 C 0.81507 0.96418 0.57644 0.0
C665 C 0.81765 0.95539 0.60226 0.0
C666 C 0.8103 0.97573 0.62165 0.0
C667 C 0.8016 0.00441 0.61534 0.0
H668 H 0.95473 0.79515 0.64717 0.0
H669 H 0.00118 0.71588 0.62514 0.0
H670 H 0.00164 0.81982 0.65468 0.0
H671 H 0.04798 0.74062 0.63281 0.0
H672 H 0.11347 0.81167 0.6031 0.0
H673 H 0.06994 0.7816 0.60663 0.0
H674 H 0.04972 0.82113 0.67986 0.0
H675 H 0.09419 0.85106 0.67695 0.0
C676 C 0.97489 0.78275 0.64451 0.0
C677 C 0.9742 0.75367 0.63514 0.0
C678 C 0.00176 0.79688 0.64895 0.0
C679 C 0.02842 0.78225 0.64397 0.0
C680 C 0.02772 0.75253 0.63644 0.0
C681 C 0.00088 0.73833 0.63218 0.0
C682 C 0.10044 0.81376 0.62034 0.0
C683 C 0.10778 0.8341 0.63975 0.0
C684 C 0.07529 0.79633 0.62232 0.0
C685 C 0.05652 0.79888 0.64358 0.0
C686 C 0.0638 0.81881 0.6632 0.0
C687 C 0.08927 0.83607 0.66141 0.0
H688 H 0.68379 0.49554 0.89677 0.0
H689 H 0.73902 0.4753 0.83152 0.0
H690 H 0.66435 0.44587 0.89616 0.0
H691 H 0.71969 0.42487 0.83122 0.0
H692 H 0.64412 0.35519 0.82022 0.0
H693 H 0.67184 0.40114 0.8213 0.0
H694 H 0.67789 0.39486 0.90389 0.0
H695 H 0.64917 0.34976 0.90297 0.0
C696 C 0.69199 0.48038 0.88237 0.0
C697 C 0.71278 0.48945 0.86403 0.0
C698 C 0.68102 0.45176 0.8822 0.0
C699 C 0.69053 0.43139 0.86369 0.0
C700 C 0.71181 0.44018 0.84561 0.0
C701 C 0.72297 0.46896 0.84586 0.0
C702 C 0.65133 0.3636 0.83861 0.0
C703 C 0.64401 0.34891 0.86152 0.0
C704 C 0.66759 0.38973 0.83918 0.0
C705 C 0.67686 0.40173 0.86269 0.0
C706 C 0.67071 0.38636 0.88549 0.0
C707 C 0.65444 0.3603 0.88492 0.0
H708 H 0.52176 0.77123 0.87798 0.0
H709 H 0.4636 0.69909 0.89686 0.0
H710 H 0.56276 0.73635 0.87388 0.0
H711 H 0.50422 0.66478 0.89365 0.0
H712 H 0.57188 0.60563 0.85904 0.0
H713 H 0.53355 0.64319 0.86088 0.0
H714 H 0.5944 0.70297 0.89777 0.0
H715 H 0.63289 0.66547 0.8952 0.0
C716 C 0.51784 0.74805 0.88154 0.0
C717 C 0.48945 0.73785 0.88743 0.0
C718 C 0.54126 0.72809 0.87923 0.0
C719 C 0.53663 0.6977 0.88299 0.0
C720 C 0.50841 0.68787 0.88984 0.0
C721 C 0.48513 0.70762 0.89187 0.0
C722 C 0.57699 0.62685 0.86741 0.0
C723 C 0.60521 0.63264 0.87703 0.0
C724 C 0.55509 0.64835 0.86858 0.0
C725 C 0.56081 0.67599 0.87979 0.0
C726 C 0.58934 0.68205 0.8888 0.0
C727 C 0.61137 0.66059 0.88735 0.0
H728 H 0.31878 0.49362 0.88532 0.0
H729 H 0.23666 0.53626 0.90502 0.0
H730 H 0.34168 0.54142 0.87928 0.0
H731 H 0.26009 0.58447 0.89924 0.0
H732 H 0.3315 0.66111 0.91212 0.0
H733 H 0.30368 0.61564 0.91932 0.0
H734 H 0.33303 0.58239 0.84606 0.0
H735 H 0.35996 0.62771 0.83843 0.0
C736 C 0.30553 0.51313 0.88833 0.0
C737 C 0.2757 0.51101 0.89524 0.0
C738 C 0.31872 0.54055 0.88487 0.0
C739 C 0.30255 0.56658 0.88852 0.0
C740 C 0.27301 0.56468 0.89629 0.0
C741 C 0.25962 0.5371 0.89947 0.0
C742 C 0.33162 0.64435 0.89735 0.0
C743 C 0.34849 0.64794 0.87487 0.0
C744 C 0.31573 0.61831 0.90153 0.0
C745 C 0.31665 0.59539 0.88341 0.0
C746 C 0.33246 0.59949 0.86057 0.0
C747 C 0.34802 0.62546 0.85628 0.0
H748 H 0.39438 0.38031 0.83893 0.0
H749 H 0.36773 0.3463 0.91282 0.0
H750 H 0.43318 0.34331 0.83667 0.0
H751 H 0.40652 0.30933 0.91057 0.0
H752 H 0.52121 0.29979 0.86073 0.0
H753 H 0.47951 0.33316 0.85804 0.0
H754 H 0.42242 0.26506 0.88762 0.0
H755 H 0.46444 0.23163 0.89085 0.0
C756 C 0.3969 0.3651 0.85477 0.0
C757 C 0.378 0.36641 0.87612 0.0
C758 C 0.41909 0.3438 0.85343 0.0
C759 C 0.42293 0.32332 0.87341 0.0
C760 C 0.40384 0.32442 0.89463 0.0
C761 C 0.38164 0.34571 0.89596 0.0
C762 C 0.49972 0.29171 0.86634 0.0
C763 C 0.49623 0.26305 0.87617 0.0
C764 C 0.47575 0.31086 0.86468 0.0
C765 C 0.44766 0.30186 0.8728 0.0
C766 C 0.44388 0.27279 0.88158 0.0
C767 C 0.46791 0.25355 0.8832 0.0
H768 H 0.62523 0.62234 0.08112 0.0
H769 H 0.65365 0.63483 0.15941 0.0
H770 H 0.65499 0.57734 0.07836 0.0
H771 H 0.68402 0.5901 0.15645 0.0
H772 H 0.76035 0.52936 0.11709 0.0
H773 H 0.73106 0.57439 0.12286 0.0
H774 H 0.65166 0.52542 0.10741 0.0
H775 H 0.68053 0.48037 0.10234 0.0
C776 C 0.63799 0.61549 0.09764 0.0
C777 C 0.63713 0.63186 0.1205 0.0
C778 C 0.65486 0.58981 0.09611 0.0
C779 C 0.67168 0.58047 0.11721 0.0
C780 C 0.67123 0.59702 0.13996 0.0
C781 C 0.65379 0.62237 0.14169 0.0
C782 C 0.73663 0.52819 0.1152 0.0
C783 C 0.72273 0.50137 0.10929 0.0
C784 C 0.71995 0.55386 0.11855 0.0
C785 C 0.68925 0.55318 0.11545 0.0
C786 C 0.67535 0.52639 0.10979 0.0
C787 C 0.69188 0.50066 0.10702 0.0
H788 H 0.46904 0.76994 0.09633 0.0
H789 H 0.51451 0.69115 0.12106 0.0
H790 H 0.42288 0.74244 0.09454 0.0
H791 H 0.46872 0.66371 0.11871 0.0
H792 H 0.35949 0.67176 0.05969 0.0
H793 H 0.40171 0.70406 0.06715 0.0
H794 H 0.42078 0.6575 0.13761 0.0
H795 H 0.37896 0.62525 0.12999 0.0
C796 C 0.46914 0.7469 0.10177 0.0
C797 C 0.49551 0.73274 0.10879 0.0
C798 C 0.44273 0.73108 0.10047 0.0
C799 C 0.44212 0.70083 0.1063 0.0
C800 C 0.46828 0.68704 0.11435 0.0
C801 C 0.49463 0.70279 0.1156 0.0
C802 C 0.37253 0.66871 0.07689 0.0
C803 C 0.36618 0.64565 0.09401 0.0
C804 C 0.39666 0.68726 0.08124 0.0
C805 C 0.41481 0.68318 0.10288 0.0
C806 C 0.40767 0.66085 0.12048 0.0
C807 C 0.38371 0.6423 0.11608 0.0
H808 H 0.31778 0.51298 0.01953 0.0
H809 H 0.25897 0.50993 0.08475 0.0
H810 H 0.33792 0.46511 0.03178 0.0
H811 H 0.27898 0.46213 0.09677 0.0
H812 H 0.35514 0.40647 0.13041 0.0
H813 H 0.32818 0.44913 0.11443 0.0
H814 H 0.32744 0.41136 0.0383 0.0
H815 H 0.35508 0.36892 0.05419 0.0
C816 C 0.30871 0.50186 0.03614 0.0
C817 C 0.28711 0.5155 0.05139 0.0
C818 C 0.32021 0.47441 0.04311 0.0
C819 C 0.31035 0.46017 0.06547 0.0
C820 C 0.28739 0.4729 0.07972 0.0
C821 C 0.27583 0.50023 0.07272 0.0
C822 C 0.34933 0.40731 0.11027 0.0
C823 C 0.35735 0.38437 0.09359 0.0
C824 C 0.33356 0.43155 0.10116 0.0
C825 C 0.32557 0.43348 0.07513 0.0
C826 C 0.33339 0.41049 0.05843 0.0
C827 C 0.34901 0.3861 0.0676 0.0
H828 H 0.51892 0.24638 0.13164 0.0
H829 H 0.47782 0.32427 0.09989 0.0
H830 H 0.56556 0.27304 0.13514 0.0
H831 H 0.52448 0.35061 0.10316 0.0
H832 H 0.62206 0.3719 0.08384 0.0
H833 H 0.57546 0.34507 0.08142 0.0
H834 H 0.58537 0.31842 0.16053 0.0
H835 H 0.63202 0.34535 0.16295 0.0
C836 C 0.51982 0.26914 0.12544 0.0
C837 C 0.4947 0.2832 0.11547 0.0
C838 C 0.54645 0.28439 0.12754 0.0
C839 C 0.54855 0.3138 0.11933 0.0
C840 C 0.52346 0.32787 0.10943 0.0
C841 C 0.49675 0.31281 0.1077 0.0
C842 C 0.61433 0.36019 0.10064 0.0
C843 C 0.63059 0.36069 0.12359 0.0
C844 C 0.58762 0.34505 0.09932 0.0
C845 C 0.57689 0.32975 0.1208 0.0
C846 C 0.59327 0.32995 0.14367 0.0
C847 C 0.61977 0.3455 0.14512 0.0
H848 H 0.18306 0.08182 0.46573 0.0
H849 H 0.23141 0.15832 0.44006 0.0
H850 H 0.16182 0.11078 0.50061 0.0
H851 H 0.20998 0.18729 0.47485 0.0
H852 H 0.1843 0.21962 0.55674 0.0
H853 H 0.20883 0.19143 0.52292 0.0
H854 H 0.1256 0.15233 0.50182 0.0
H855 H 0.10113 0.18028 0.53557 0.0
C856 C 0.18943 0.1047 0.46773 0.0
C857 C 0.20876 0.11786 0.45013 0.0
C858 C 0.17709 0.12132 0.48754 0.0
C859 C 0.18399 0.15136 0.4902 0.0
C860 C 0.20434 0.16417 0.47328 0.0
C861 C 0.21655 0.14759 0.45336 0.0
C862 C 0.17122 0.20526 0.54467 0.0
C863 C 0.14082 0.20211 0.5488 0.0
C864 C 0.18526 0.18913 0.52536 0.0
C865 C 0.16916 0.16943 0.51001 0.0
C866 C 0.13864 0.16695 0.5137 0.0
C867 C 0.12459 0.18318 0.53285 0.0
H868 H 0.89777 0.24552 0.4765 0.0
H869 H 0.82842 0.23262 0.42088 0.0
H870 H 0.86704 0.22313 0.50969 0.0
H871 H 0.79791 0.20944 0.45407 0.0
H872 H 0.79473 0.19595 0.56629 0.0
H873 H 0.81452 0.22918 0.53335 0.0
H874 H 0.8116 0.15852 0.47794 0.0
H875 H 0.79263 0.1252 0.51087 0.0
C876 C 0.87573 0.23837 0.47154 0.0
C877 C 0.86543 0.2406 0.44621 0.0
C878 C 0.85814 0.22575 0.49052 0.0
C879 C 0.83022 0.21462 0.48432 0.0
C880 C 0.81938 0.21798 0.45923 0.0
C881 C 0.83675 0.23126 0.44034 0.0
C882 C 0.79785 0.18776 0.54694 0.0
C883 C 0.79241 0.15807 0.54105 0.0
C884 C 0.80915 0.20669 0.5282 0.0
C885 C 0.81437 0.19633 0.50321 0.0
C886 C 0.80741 0.16706 0.49703 0.0
C887 C 0.7968 0.148 0.51587 0.0
H888 H 0.82299 0.77087 0.5364 0.0
H889 H 0.90997 0.80892 0.53123 0.0
H890 H 0.80859 0.79683 0.49727 0.0
H891 H 0.89565 0.8346 0.49203 0.0
H892 H 0.84589 0.90561 0.44631 0.0
H893 H 0.86175 0.87596 0.48273 0.0
H894 H 0.81865 0.79983 0.45014 0.0
H895 H 0.80249 0.82967 0.4136 0.0
C896 C 0.83912 0.7845 0.52675 0.0
C897 C 0.86754 0.78804 0.53695 0.0
C898 C 0.83092 0.79924 0.50429 0.0
C899 C 0.85094 0.8179 0.49172 0.0
C900 C 0.87963 0.82069 0.50153 0.0
C901 C 0.88787 0.80586 0.52389 0.0
C902 C 0.83981 0.88254 0.44686 0.0
C903 C 0.82291 0.86996 0.42713 0.0
C904 C 0.84909 0.86551 0.46764 0.0
C905 C 0.84156 0.83555 0.46921 0.0
C906 C 0.82461 0.82293 0.44949 0.0
C907 C 0.81545 0.83996 0.42857 0.0
H908 H 0.15572 0.73149 0.4388 0.0
H909 H 0.10319 0.80968 0.42739 0.0
H910 H 0.17162 0.75018 0.48062 0.0
H911 H 0.1203 0.82932 0.46795 0.0
H912 H 0.13427 0.85163 0.549 0.0
H913 H 0.11567 0.82533 0.51168 0.0
H914 H 0.20124 0.78491 0.5012 0.0
H915 H 0.21885 0.80972 0.53991 0.0
C916 C 0.14786 0.7528 0.4452 0.0
C917 C 0.12813 0.76911 0.43011 0.0
C918 C 0.15702 0.7636 0.46907 0.0
C919 C 0.14705 0.79119 0.47793 0.0
C920 C 0.12774 0.80759 0.46233 0.0
C921 C 0.1181 0.7965 0.43889 0.0
C922 C 0.14883 0.8367 0.53885 0.0
C923 C 0.17792 0.83271 0.54698 0.0
C924 C 0.13836 0.82184 0.51732 0.0
C925 C 0.15714 0.8035 0.50291 0.0
C926 C 0.18603 0.79863 0.51183 0.0
C927 C 0.19622 0.81289 0.53391 0.0
H928 H 0.69243 0.59158 0.96479 0.0
H929 H 0.71243 0.67076 0.92205 0.0
H930 H 0.67016 0.6213 -0.00143 0.0
H931 H 0.69035 0.70051 0.95628 0.0
H932 H 0.66783 0.73669 0.04093 0.0
H933 H 0.69599 0.71079 0.00764 0.0
H934 H 0.6216 0.65394 -0.00646 0.0
H935 H 0.59335 0.67989 0.0263 0.0
C936 C 0.69272 0.61535 0.96287 0.0
C937 C 0.70394 0.62885 0.94067 0.0
C938 C 0.6798 0.63229 0.98212 0.0
C939 C 0.67824 0.66303 0.97971 0.0
C940 C 0.69132 0.67678 0.95846 0.0
C941 C 0.70395 0.65977 0.93896 0.0
C942 C 0.65742 0.71893 0.03044 0.0
C943 C 0.62845 0.71024 0.03617 0.0
C944 C 0.67351 0.70418 0.01148 0.0
C945 C 0.66099 0.68024 -0.00158 0.0
C946 C 0.63179 0.67213 0.00366 0.0
C947 C 0.61558 0.68714 0.02223 0.0
H948 H 0.36866 0.75784 0.96697 0.0
H949 H 0.30243 0.74924 0.90795 0.0
H950 H 0.33459 0.73782 -0.00154 0.0
H951 H 0.26813 0.72897 0.9396 0.0
H952 H 0.27067 0.69956 0.0522 0.0
H953 H 0.28634 0.73845 0.02257 0.0
H954 H 0.27589 0.67842 0.95883 0.0
H955 H 0.2604 0.63985 0.98825 0.0
C956 C 0.34643 0.75257 0.96096 0.0
C957 C 0.33825 0.75454 0.93505 0.0
C958 C 0.32683 0.74134 0.97903 0.0
C959 C 0.29884 0.73154 0.97138 0.0
C960 C 0.28968 0.73621 0.94591 0.0
C961 C 0.30922 0.74788 0.92786 0.0
C962 C 0.27096 0.69504 0.03178 0.0
C963 C 0.26484 0.66667 0.02247 0.0
C964 C 0.27989 0.71724 0.01487 0.0
C965 C 0.28237 0.71142 0.98845 0.0
C966 C 0.27383 0.6837 0.97904 0.0
C967 C 0.2653 0.66149 -0.00408 0.0
H968 H 0.27573 0.38822 0.9783 0.0
H969 H 0.29042 0.32332 0.91898 0.0
H970 H 0.29524 0.354 0.01033 0.0
H971 H 0.31082 0.2894 0.95105 0.0
H972 H 0.31389 0.27777 0.06343 0.0
H973 H 0.28434 0.29845 0.02866 0.0
H974 H 0.36102 0.3004 0.97983 0.0
H975 H 0.39097 0.28036 0.01482 0.0
C976 C 0.28261 0.36644 0.97223 0.0
C977 C 0.28169 0.35838 0.94625 0.0
C978 C 0.29364 0.34688 -0.00949 0.0
C979 C 0.30444 0.3192 0.983 0.0
C980 C 0.30249 0.31064 0.95718 0.0
C981 C 0.29076 0.32997 0.93896 0.0
C982 C 0.32433 0.28179 0.04506 0.0
C983 C 0.35481 0.27778 0.04187 0.0
C984 C 0.30739 0.29368 0.02526 0.0
C985 C 0.32054 0.30103 0.00178 0.0
C986 C 0.35044 0.29466 -0.00221 0.0
C987 C 0.36755 0.28331 0.01779 0.0
H988 H 0.5934 0.2999 0.9645 0.0
H989 H 0.67277 0.2565 0.93864 0.0
H990 H 0.62183 0.32739 -0.004 0.0
H991 H 0.70135 0.28428 0.97037 0.0
H992 H 0.73239 0.32238 0.05058 0.0
H993 H 0.70721 0.29148 0.01889 0.0
H994 H 0.65937 0.36757 -0.00839 0.0
H995 H 0.68428 0.39832 0.02313 0.0
C996 C 0.61689 0.29598 0.96573 0.0
C997 C 0.63088 0.27616 0.94899 0.0
C998 C 0.63319 0.3119 0.98364 0.0
C999 C 0.66384 0.3083 0.98532 0.0
C1000 C 0.67773 0.28747 0.96945 0.0
C1001 C 0.66139 0.27159 0.95133 0.0
C1002 C 0.71677 0.33253 0.03757 0.0
C1003 C 0.71016 0.36273 0.03943 0.0
C1004 C 0.70241 0.31485 0.01945 0.0
C1005 C 0.68106 0.32708 0.00308 0.0
C1006 C 0.67534 0.35747 0.00433 0.0
C1007 C 0.68978 0.37511 0.02226 0.0
H1008 H 0.24553 0.14772 0.27744 0.0
H1009 H 0.3292 0.10972 0.29894 0.0
H1010 H 0.26967 0.17689 0.24445 0.0
H1011 H 0.35348 0.13837 0.26519 0.0
H1012 H 0.38708 0.22599 0.22928 0.0
H1013 H 0.36434 0.19133 0.25932 0.0
H1014 H 0.29556 0.1737 0.20403 0.0
H1015 H 0.31794 0.20842 0.17438 0.0
C1016 C 0.26906 0.14525 0.2747 0.0
C1017 C 0.28561 0.12675 0.29075 0.0
C1018 C 0.28286 0.16179 0.25575 0.0
C1019 C 0.31349 0.16007 0.25244 0.0
C1020 C 0.32989 0.14041 0.26764 0.0
C1021 C 0.316 0.12377 0.28665 0.0
C1022 C 0.36706 0.21472 0.2237 0.0
C1023 C 0.35391 0.22027 0.1998 0.0
C1024 C 0.35422 0.19472 0.24072 0.0
C1025 C 0.32818 0.17987 0.23397 0.0
C1026 C 0.31535 0.18518 0.2099 0.0
C1027 C 0.32805 0.20521 0.19302 0.0
H1028 H 0.81019 0.40638 0.21031 0.0
H1029 H 0.84015 0.33905 0.15788 0.0
H1030 H 0.84432 0.38831 0.24281 0.0
H1031 H 0.87494 0.32132 0.19012 0.0
H1032 H 0.88628 0.27197 0.26803 0.0
H1033 H 0.86724 0.29466 0.22922 0.0
H1034 H 0.89449 0.38023 0.25694 0.0
H1035 H 0.91254 0.35741 0.29644 0.0
C1036 C 0.82457 0.3881 0.20561 0.0
C1037 C 0.82226 0.37372 0.18187 0.0
C1038 C 0.8443 0.37788 0.22411 0.0
C1039 C 0.86223 0.35326 0.21906 0.0
C1040 C 0.86106 0.34001 0.1947 0.0
C1041 C 0.84113 0.35006 0.17632 0.0
C1042 C 0.8886 0.29557 0.26562 0.0
C1043 C 0.9003 0.31303 0.28536 0.0
C1044 C 0.878 0.30857 0.24326 0.0
C1045 C 0.87903 0.33931 0.24016 0.0
C1046 C 0.89298 0.35653 0.25902 0.0
C1047 C 0.90356 0.34347 0.28148 0.0
H1048 H 0.76406 0.86127 0.2541 0.0
H1049 H 0.68956 0.9055 0.28842 0.0
H1050 H 0.73229 0.84216 0.22035 0.0
H1051 H 0.65778 0.88701 0.25413 0.0
H1052 H 0.61073 0.80819 0.21132 0.0
H1053 H 0.63885 0.83746 0.24226 0.0
H1054 H 0.70277 0.85769 0.18339 0.0
H1055 H 0.67495 0.82817 0.15276 0.0
C1056 C 0.74093 0.86714 0.25421 0.0
C1057 C 0.72921 0.8847 0.27387 0.0
C1058 C 0.7228 0.85649 0.23478 0.0
C1059 C 0.69257 0.86317 0.23464 0.0
C1060 C 0.68097 0.88141 0.2539 0.0
C1061 C 0.69918 0.89218 0.27333 0.0
C1062 C 0.6305 0.81939 0.205 0.0
C1063 C 0.64109 0.81557 0.17994 0.0
C1064 C 0.64652 0.83618 0.22261 0.0
C1065 C 0.6732 0.84946 0.21525 0.0
C1066 C 0.68262 0.84717 0.18968 0.0
C1067 C 0.66674 0.83033 0.1722 0.0
H1068 H 0.12075 0.664 0.25853 0.0
H1069 H 0.1897 0.64086 0.31213 0.0
H1070 H 0.1436 0.63349 0.22605 0.0
H1071 H 0.21292 0.61019 0.27921 0.0
H1072 H 0.26184 0.6116 0.19838 0.0
H1073 H 0.23854 0.62323 0.23921 0.0
H1074 H 0.15745 0.58401 0.21251 0.0
H1075 H 0.1802 0.57383 0.17124 0.0
C1076 C 0.14042 0.6518 0.26358 0.0
C1077 C 0.15353 0.65498 0.28782 0.0
C1078 C 0.15348 0.63415 0.24497 0.0
C1079 C 0.17999 0.61931 0.25014 0.0
C1080 C 0.19257 0.62152 0.2747 0.0
C1081 C 0.17941 0.63919 0.29342 0.0
C1082 C 0.23919 0.60501 0.20141 0.0
C1083 C 0.22262 0.59259 0.18137 0.0
C1084 C 0.22595 0.6113 0.22493 0.0
C1085 C 0.19599 0.60508 0.22878 0.0
C1086 C 0.18044 0.58957 0.20981 0.0
C1087 C 0.19359 0.58349 0.18624 0.0
H1088 H 0.37244 0.75253 0.75634 0.0
H1089 H 0.41132 0.83589 0.77739 0.0
H1090 H 0.35415 0.77406 0.71681 0.0
H1091 H 0.39398 0.8574 0.73716 0.0
H1092 H 0.30406 0.88848 0.70079 0.0
H1093 H 0.34343 0.87028 0.72829 0.0
H1094 H 0.3581 0.79771 0.67598 0.0
H1095 H 0.31796 0.81561 0.64894 0.0
C1096 C 0.37794 0.77522 0.75199 0.0
C1097 C 0.39256 0.79278 0.77009 0.0
C1098 C 0.36774 0.78755 0.7292 0.0
C1099 C 0.37209 0.81767 0.72412 0.0
C1100 C 0.38979 0.83429 0.74086 0.0
C1101 C 0.39995 0.82192 0.76375 0.0
C1102 C 0.31616 0.869 0.69498 0.0
C1103 C 0.30765 0.85297 0.67324 0.0
C1104 C 0.33893 0.8587 0.71054 0.0
C1105 C 0.35371 0.83234 0.70443 0.0
C1106 C 0.34675 0.81776 0.68142 0.0
C1107 C 0.32376 0.82789 0.66605 0.0
H1108 H 0.27015 0.37945 0.76708 0.0
H1109 H 0.18791 0.41759 0.79233 0.0
H1110 H 0.24509 0.357 0.73073 0.0
H1111 H 0.16303 0.39616 0.75534 0.0
H1112 H 0.12738 0.30869 0.72079 0.0
H1113 H 0.15096 0.34442 0.74889 0.0
H1114 H 0.21724 0.36069 0.69105 0.0
H1115 H 0.19368 0.32462 0.66299 0.0
C1116 C 0.24688 0.38375 0.76439 0.0
C1117 C 0.23086 0.39973 0.78276 0.0
C1118 C 0.23255 0.3711 0.74346 0.0
C1119 C 0.20197 0.37435 0.74051 0.0
C1120 C 0.18652 0.39281 0.75747 0.0
C1121 C 0.20085 0.40538 0.77846 0.0
C1122 C 0.14676 0.32018 0.71399 0.0
C1123 C 0.15893 0.31366 0.6899 0.0
C1124 C 0.16015 0.34082 0.72996 0.0
C1125 C 0.1859 0.35545 0.72211 0.0
C1126 C 0.19758 0.34955 0.69769 0.0
C1127 C 0.18422 0.3288 0.68174 0.0
H1128 H 0.58914 0.18288 0.77566 0.0
H1129 H 0.66452 0.15343 0.81933 0.0
H1130 H 0.60866 0.15832 0.73755 0.0
H1131 H 0.68435 0.1295 0.78116 0.0
H1132 H 0.70836 0.07937 0.70969 0.0
H1133 H 0.67778 0.09079 0.7472 0.0
H1134 H 0.65265 0.17347 0.71226 0.0
H1135 H 0.68271 0.1619 0.67493 0.0
C1136 C 0.60954 0.17062 0.77722 0.0
C1137 C 0.62561 0.17038 0.80024 0.0
C1138 C 0.62075 0.15672 0.75543 0.0
C1139 C 0.6481 0.14229 0.75642 0.0
C1140 C 0.66312 0.14031 0.77991 0.0
C1141 C 0.65198 0.15429 0.80165 0.0
C1142 C 0.69585 0.09971 0.70998 0.0
C1143 C 0.6981 0.12 0.68974 0.0
C1144 C 0.67848 0.10625 0.73136 0.0
C1145 C 0.6629 0.13297 0.73256 0.0
C1146 C 0.66413 0.15254 0.71171 0.0
C1147 C 0.68162 0.14613 0.69052 0.0
H1148 H 0.70203 0.65094 0.76519 0.0
H1149 H 0.75512 0.57209 0.76326 0.0
H1150 H 0.72526 0.66797 0.72547 0.0
H1151 H 0.77892 0.58944 0.72385 0.0
H1152 H 0.84355 0.67057 0.70195 0.0
H1153 H 0.81175 0.64002 0.72825 0.0
H1154 H 0.74005 0.65357 0.67522 0.0
H1155 H 0.77234 0.68274 0.64762 0.0
C1156 C 0.7178 0.63679 0.75561 0.0
C1157 C 0.72699 0.61037 0.76704 0.0
C1158 C 0.731 0.64644 0.73296 0.0
C1159 C 0.75389 0.62999 0.72192 0.0
C1160 C 0.76122 0.60233 0.73213 0.0
C1161 C 0.7476 0.59242 0.7545 0.0
C1162 C 0.82135 0.66639 0.69531 0.0
C1163 C 0.81057 0.67933 0.67265 0.0
C1164 C 0.80317 0.64887 0.71043 0.0
C1165 C 0.77369 0.64436 0.70349 0.0
C1166 C 0.76282 0.65673 0.68075 0.0
C1167 C 0.78123 0.67375 0.66525 0.0
H1168 H 0.27594 0.05806 0.47994 0.0
H1169 H 0.34753 0.01847 0.43811 0.0
H1170 H 0.28529 0.02575 0.51605 0.0
H1171 H 0.35771 0.98586 0.47471 0.0
H1172 H 0.30886 0.90386 0.51242 0.0
H1173 H 0.32743 0.94441 0.4868 0.0
H1174 H 0.31262 0.00403 0.55026 0.0
H1175 H 0.29313 0.9632 0.57564 0.0
C1176 C 0.29443 0.04299 0.479 0.0
C1177 C 0.31065 0.0401 0.4563 0.0
C1178 C 0.30008 0.02463 0.49978 0.0
C1179 C 0.32201 0.00281 0.49815 0.0
C1180 C 0.34039 0.00217 0.47637 0.0
C1181 C 0.33475 0.02083 0.45553 0.0
C1182 C 0.31052 0.92542 0.52118 0.0
C1183 C 0.29875 0.93066 0.54566 0.0
C1184 C 0.3214 0.94873 0.50656 0.0
C1185 C 0.32089 0.97764 0.51629 0.0
C1186 C 0.3126 0.98212 0.54201 0.0
C1187 C 0.30134 0.95885 0.55649 0.0
H1188 H 0.92658 0.35513 0.47692 0.0
H1189 H 8e-05 0.3447 0.42544 0.0
H1190 H 0.96051 0.35823 0.51331 0.0
H1191 H 0.03406 0.34744 0.46156 0.0
H1192 H 0.09044 0.34806 0.53163 0.0
H1193 H 0.05643 0.37021 0.50056 0.0
H1194 H 0.98706 0.31321 0.528 0.0
H1195 H 0.02076 0.29163 0.55903 0.0
C1196 C 0.95006 0.35501 0.4733 0.0
C1197 C 0.96087 0.34926 0.44858 0.0
C1198 C 0.96945 0.35646 0.49409 0.0
C1199 C -0.00015 0.35235 0.4903 0.0
C1200 C 0.01078 0.35068 0.46512 0.0
C1201 C 0.99139 0.34906 0.44443 0.0
C1202 C 0.06777 0.34073 0.53122 0.0
C1203 C 0.05831 0.31779 0.54734 0.0
C1204 C 0.04835 0.35339 0.51352 0.0
C1205 C 0.01907 0.34356 0.51195 0.0
C1206 C 0.00934 0.32164 0.52901 0.0
C1207 C 0.02877 0.30884 0.54644 0.0
H1208 H 0.73899 0.99648 0.42176 0.0
H1209 H 0.68617 0.92494 0.45076 0.0
H1210 H 0.71859 0.02927 0.45412 0.0
H1211 H 0.66571 0.9579 0.48384 0.0
H1212 H 0.70025 0.01588 0.55712 0.0
H1213 H 0.69493 0.98132 0.52153 0.0
H1214 H 0.67132 0.05334 0.47134 0.0
H1215 H 0.67662 0.08786 0.5072 0.0
C1216 C 0.72274 0.98794 0.435 0.0
C1217 C 0.71443 0.95821 0.43419 0.0
C1218 C 0.71069 0.00677 0.45325 0.0
C1219 C 0.69038 0.99614 0.47132 0.0
C1220 C 0.68119 0.9666 0.46996 0.0
C1221 C 0.69289 0.94782 0.45124 0.0
C1222 C 0.69269 0.02401 0.53871 0.0
C1223 C 0.68926 0.05438 0.53463 0.0
C1224 C 0.68947 0.00429 0.5184 0.0
C1225 C 0.68314 0.0148 0.49367 0.0
C1226 C 0.67639 0.0448 0.49026 0.0
C1227 C 0.67927 0.06449 0.51072 0.0
H1228 H 0.9788 0.69492 0.55741 0.0
H1229 H 0.90635 0.66226 0.51205 0.0
H1230 H 0.01262 0.68494 0.52196 0.0
H1231 H 0.94016 0.65237 0.47639 0.0
H1232 H 0.0025 0.69954 0.41487 0.0
H1233 H 0.96783 0.69267 0.45022 0.0
H1234 H 0.03375 0.64373 0.49218 0.0
H1235 H 0.06842 0.65048 0.45652 0.0
C1236 C 0.97032 0.68508 0.53997 0.0
C1237 C 0.94009 0.67959 0.53722 0.0
C1238 C 0.98962 0.67913 0.51984 0.0
C1239 C 0.97887 0.66798 0.49652 0.0
C1240 C 0.94886 0.66101 0.49423 0.0
C1241 C 0.92962 0.66653 0.51457 0.0
C1242 C 0.00933 0.68697 0.43152 0.0
C1243 C 0.03804 0.67575 0.43323 0.0
C1244 C 0.98949 0.68276 0.45156 0.0
C1245 C 0.99821 0.66763 0.47381 0.0
C1246 C 0.0266 0.65542 0.47515 0.0
C1247 C 0.04631 0.6592 0.45483 0.0
H1248 H 0.80321 0.50133 0.90143 0.0
H1249 H 0.82863 0.58022 0.94174 0.0
H1250 H 0.81763 0.47158 0.93836 0.0
H1251 H 0.84305 0.55056 0.97895 0.0
H1252 H 0.78818 0.49503 0.04076 0.0
H1253 H 0.80169 0.52578 0.00429 0.0
H1254 H 0.8538 0.45449 0.97326 0.0
H1255 H 0.84022 0.42369 0.01018 0.0
C1256 C 0.81322 0.51206 0.91783 0.0
C1257 C 0.81452 0.54289 0.91905 0.0
C1258 C 0.82158 0.49511 0.93891 0.0
C1259 C 0.83099 0.50889 0.96161 0.0
C1260 C 0.83565 0.53951 0.96168 0.0
C1261 C 0.82759 0.55643 0.9404 0.0
C1262 C 0.80289 0.48618 0.02633 0.0
C1263 C 0.81281 0.45699 0.0279 0.0
C1264 C 0.81103 0.50385 0.00569 0.0
C1265 C 0.82894 0.49251 0.98604 0.0
C1266 C 0.84011 0.46374 0.98826 0.0
C1267 C 0.83232 0.44618 0.00924 0.0
H1268 H 0.40471 0.84852 0.96567 0.0
H1269 H 0.47759 0.8531 0.91314 0.0
H1270 H 0.43852 0.85316 0.00198 0.0
H1271 H 0.51185 0.85641 0.94916 0.0
H1272 H 0.56903 0.85465 0.01943 0.0
H1273 H 0.53338 0.87556 -0.01092 0.0
H1274 H 0.46881 0.81183 0.01424 0.0
H1275 H 0.50381 0.79188 0.04468 0.0
C1276 C 0.42792 0.852 0.96202 0.0
C1277 C 0.4388 0.85055 0.93693 0.0
C1278 C 0.44731 0.85426 0.98267 0.0
C1279 C 0.4779 0.85426 0.97843 0.0
C1280 C 0.48845 0.85651 0.95311 0.0
C1281 C 0.46892 0.85472 0.93246 0.0
C1282 C 0.54702 0.84557 0.01866 0.0
C1283 C 0.53931 0.82132 0.03403 0.0
C1284 C 0.52667 0.85748 0.00133 0.0
C1285 C 0.49822 0.8455 -0.00065 0.0
C1286 C 0.49031 0.82202 0.01555 0.0
C1287 C 0.51059 0.81012 0.03267 0.0
H1288 H 0.17169 0.58336 0.98826 0.0
H1289 H 0.14567 0.53545 0.05584 0.0
H1290 H 0.15794 0.54159 0.96142 0.0
H1291 H 0.13221 0.49298 0.02912 0.0
H1292 H 0.19401 0.4279 0.978 0.0
H1293 H 0.17402 0.46476 0.00722 0.0
H1294 H 0.12283 0.50181 0.94517 0.0
H1295 H 0.1429 0.46462 0.91599 0.0
C1296 C 0.16161 0.56428 -0.00288 0.0
C1297 C 0.15969 0.56232 0.02387 0.0
C1298 C 0.15362 0.54039 0.98185 0.0
C1299 C 0.14424 0.51392 -0.00675 0.0
C1300 C 0.13938 0.51313 0.0199 0.0
C1301 C 0.14692 0.53735 0.03514 0.0
C1302 C 0.17757 0.4432 0.97095 0.0
C1303 C 0.17031 0.44384 0.94481 0.0
C1304 C 0.16588 0.46414 0.98767 0.0
C1305 C 0.14708 0.48633 0.97836 0.0
C1306 C 0.13733 0.48496 0.95278 0.0
C1307 C 0.14875 0.46369 0.93613 0.0
H1308 H 0.56574 0.14278 0.9763 0.0
H1309 H 0.49882 0.19785 0.94229 0.0
H1310 H 0.53155 0.12937 0.0109 0.0
H1311 H 0.46481 0.18463 0.97647 0.0
H1312 H 0.40506 0.16052 0.03601 0.0
H1313 H 0.43637 0.14495 6e-05 0.0
H1314 H 0.51366 0.16526 0.0451 0.0
H1315 H 0.48221 0.18083 0.08056 0.0
C1316 C 0.54351 0.1514 0.97597 0.0
C1317 C 0.53494 0.17176 0.9571 0.0
C1318 C 0.52401 0.1437 -0.00439 0.0
C1319 C 0.49555 0.15587 -0.00372 0.0
C1320 C 0.48643 0.17453 0.97627 0.0
C1321 C 0.50601 0.18253 0.95696 0.0
C1322 C 0.42874 0.16009 0.03846 0.0
C1323 C 0.44154 0.17178 0.06068 0.0
C1324 C 0.44661 0.1514 0.01799 0.0
C1325 C 0.47739 0.15426 0.01975 0.0
C1326 C 0.49006 0.16256 0.04326 0.0
C1327 C 0.47218 0.17154 0.06351 0.0
loop_
_geom_bond_atom_site_label_1
_geom_bond_atom_site_label_2
_geom_bond_distance
_geom_bond_site_symmetry_2
_ccdc_geom_bond_type
Co0 N4 2.148 . S
Co0 N10 2.128 . S
Co0 N20 2.194 . S
Co0 O25 2.351 . S
Co0 O26 2.155 . S
Co0 O27 2.096 . S
C1 N4 1.301 . S
C1 N5 1.328 . S
C1 H6 0.930 . S
C2 C3 1.333 . S
C2 N4 1.317 . S
C2 H7 0.930 . S
C3 C2 1.333 . S
C3 N5 1.350 . S
C3 H29 0.931 . S
N4 Co0 2.148 . S
N4 C1 1.301 . S
N4 C2 1.317 . S
N5 C1 1.328 . S
N5 C3 1.350 . S
H6 C1 0.930 . S
H7 C2 0.930 . S
C8 O9 1.224 . S
C8 O27 1.247 . S
O9 C8 1.224 . S
N10 Co0 2.128 . S
N10 C11 1.355 . S
N10 C13 1.311 . S
C11 N10 1.355 . S
C11 C12 1.363 . S
C11 H23 0.929 . S
C12 C11 1.363 . S
C12 N14 1.375 . S
C12 H30 0.931 . S
C13 N10 1.311 . S
C13 N14 1.347 . S
C13 H24 0.929 . S
N14 C12 1.375 . S
N14 C13 1.347 . S
C15 C18 1.365 . S
C15 N20 1.328 . S
C15 H21 0.929 . S
C16 C17 1.362 . S
C16 C19 1.378 . S
C16 H31 0.929 . S
C17 C16 1.362 . S
C17 C18 1.366 . S
C18 C15 1.365 . S
C18 C17 1.366 . S
C18 H32 0.930 . S
C19 C16 1.378 . S
C19 N20 1.315 . S
C19 H22 0.930 . S
N20 Co0 2.194 . S
N20 C15 1.328 . S
N20 C19 1.315 . S
H21 C15 0.929 . S
H22 C19 0.930 . S
H23 C11 0.929 . S
H24 C13 0.929 . S
O25 Co0 2.351 . S
O25 C28 1.244 . S
O26 Co0 2.155 . S
O26 C28 1.240 . S
O27 Co0 2.096 . S
O27 C8 1.247 . S
C28 O25 1.244 . S
C28 O26 1.240 . S
H29 C3 0.931 . S
H30 C12 0.931 . S
H31 C16 0.929 . S
H32 C18 0.930 . S
Co33 N37 2.148 . S
Co33 N43 2.128 . S
Co33 N53 2.194 . S
Co33 O58 2.351 . S
Co33 O59 2.155 . S
Co33 O60 2.096 . S
C34 N37 1.301 . S
C34 N38 1.328 . S
C34 H39 0.930 . S
C35 C36 1.333 . S
C35 N37 1.317 . S
C35 H40 0.930 . S
C36 C35 1.333 . S
C36 N38 1.350 . S
C36 H62 0.931 . S
N37 Co33 2.148 . S
N37 C34 1.301 . S
N37 C35 1.317 . S
N38 C34 1.328 . S
N38 C36 1.350 . S
H39 C34 0.930 . S
H40 C35 0.930 . S
C41 O42 1.224 . S
C41 O60 1.247 . S
O42 C41 1.224 . S
N43 Co33 2.128 . S
N43 C44 1.355 . S
N43 C46 1.311 . S
C44 N43 1.355 . S
C44 C45 1.363 . S
C44 H56 0.929 . S
C45 C44 1.363 . S
C45 N47 1.375 . S
C45 H63 0.931 . S
C46 N43 1.311 . S
C46 N47 1.347 . S
C46 H57 0.929 . S
N47 C45 1.375 . S
N47 C46 1.347 . S
C48 C51 1.365 . S
C48 N53 1.328 . S
C48 H54 0.929 . S
C49 C50 1.362 . S
C49 C52 1.378 . S
C49 H64 0.929 . S
C50 C49 1.362 . S
C50 C51 1.366 . S
C51 C48 1.365 . S
C51 C50 1.366 . S
C51 H65 0.930 . S
C52 C49 1.378 . S
C52 N53 1.315 . S
C52 H55 0.930 . S
N53 Co33 2.194 . S
N53 C48 1.328 . S
N53 C52 1.315 . S
H54 C48 0.929 . S
H55 C52 0.930 . S
H56 C44 0.929 . S
H57 C46 0.929 . S
O58 Co33 2.351 . S
O58 C61 1.244 . S
O59 Co33 2.155 . S
O59 C61 1.240 . S
O60 Co33 2.096 . S
O60 C41 1.247 . S
C61 O58 1.244 . S
C61 O59 1.240 . S
H62 C36 0.931 . S
H63 C45 0.931 . S
H64 C49 0.929 . S
H65 C51 0.930 . S
Co66 N70 2.148 . S
Co66 N76 2.128 . S
Co66 N86 2.194 . S
Co66 O91 2.351 . S
Co66 O92 2.155 . S
Co66 O93 2.096 . S
C67 N70 1.301 . S
C67 N71 1.328 . S
C67 H72 0.930 . S
C68 C69 1.333 . S
C68 N70 1.317 . S
C68 H73 0.930 . S
C69 C68 1.333 . S
C69 N71 1.350 . S
C69 H95 0.931 . S
N70 Co66 2.148 . S
N70 C67 1.301 . S
N70 C68 1.317 . S
N71 C67 1.328 . S
N71 C69 1.350 . S
H72 C67 0.930 . S
H73 C68 0.930 . S
C74 O75 1.224 . S
C74 O93 1.247 . S
O75 C74 1.224 . S
N76 Co66 2.128 . S
N76 C77 1.355 . S
N76 C79 1.311 . S
C77 N76 1.355 . S
C77 C78 1.363 . S
C77 H89 0.929 . S
C78 C77 1.363 . S
C78 N80 1.375 . S
C78 H96 0.931 . S
C79 N76 1.311 . S
C79 N80 1.347 . S
C79 H90 0.929 . S
N80 C78 1.375 . S
N80 C79 1.347 . S
C81 C84 1.365 . S
C81 N86 1.328 . S
C81 H87 0.929 . S
C82 C83 1.362 . S
C82 C85 1.378 . S
C82 H97 0.929 . S
C83 C82 1.362 . S
C83 C84 1.366 . S
C84 C81 1.365 . S
C84 C83 1.366 . S
C84 H98 0.930 . S
C85 C82 1.378 . S
C85 N86 1.315 . S
C85 H88 0.930 . S
N86 Co66 2.194 . S
N86 C81 1.328 . S
N86 C85 1.315 . S
H87 C81 0.929 . S
H88 C85 0.930 . S
H89 C77 0.929 . S
H90 C79 0.929 . S
O91 Co66 2.351 . S
O91 C94 1.244 . S
O92 Co66 2.155 . S
O92 C94 1.240 . S
O93 Co66 2.096 . S
O93 C74 1.247 . S
C94 O91 1.244 . S
C94 O92 1.240 . S
H95 C69 0.931 . S
H96 C78 0.931 . S
H97 C82 0.929 . S
H98 C84 0.930 . S
Co99 N103 2.148 . S
Co99 N109 2.128 . S
Co99 N119 2.194 . S
Co99 O124 2.351 . S
Co99 O125 2.155 . S
Co99 O126 2.096 . S
C100 N103 1.301 . S
C100 N104 1.328 . S
C100 H105 0.930 . S
C101 C102 1.333 . S
C101 N103 1.317 . S
C101 H106 0.930 . S
C102 C101 1.333 . S
C102 N104 1.350 . S
C102 H128 0.931 . S
N103 Co99 2.148 . S
N103 C100 1.301 . S
N103 C101 1.317 . S
N104 C100 1.328 . S
N104 C102 1.350 . S
H105 C100 0.930 . S
H106 C101 0.930 . S
C107 O108 1.224 . S
C107 O126 1.247 . S
O108 C107 1.224 . S
N109 Co99 2.128 . S
N109 C110 1.355 . S
N109 C112 1.311 . S
C110 N109 1.355 . S
C110 C111 1.363 . S
C110 H122 0.929 . S
C111 C110 1.363 . S
C111 N113 1.375 . S
C111 H129 0.931 . S
C112 N109 1.311 . S
C112 N113 1.347 . S
C112 H123 0.929 . S
N113 C111 1.375 . S
N113 C112 1.347 . S
C114 C117 1.365 . S
C114 N119 1.328 . S
C114 H120 0.929 . S
C115 C116 1.362 . S
C115 C118 1.378 . S
C115 H130 0.929 . S
C116 C115 1.362 . S
C116 C117 1.366 . S
C117 C114 1.365 . S
C117 C116 1.366 . S
C117 H131 0.930 . S
C118 C115 1.378 . S
C118 N119 1.315 . S
C118 H121 0.930 . S
N119 Co99 2.194 . S
N119 C114 1.328 . S
N119 C118 1.315 . S
H120 C114 0.929 . S
H121 C118 0.930 . S
H122 C110 0.929 . S
H123 C112 0.929 . S
O124 Co99 2.351 . S
O124 C127 1.244 . S
O125 Co99 2.155 . S
O125 C127 1.240 . S
O126 Co99 2.096 . S
O126 C107 1.247 . S
C127 O124 1.244 . S
C127 O125 1.240 . S
H128 C102 0.931 . S
H129 C111 0.931 . S
H130 C115 0.929 . S
H131 C117 0.930 . S
Co132 N136 2.148 . S
Co132 N142 2.128 . S
Co132 N152 2.194 . S
Co132 O157 2.351 . S
Co132 O158 2.155 . S
Co132 O159 2.096 . S
C133 N136 1.301 . S
C133 N137 1.328 . S
C133 H138 0.930 . S
C134 C135 1.333 . S
C134 N136 1.317 . S
C134 H139 0.930 . S
C135 C134 1.333 . S
C135 N137 1.350 . S
C135 H161 0.931 . S
N136 Co132 2.148 . S
N136 C133 1.301 . S
N136 C134 1.317 . S
N137 C133 1.328 . S
N137 C135 1.350 . S
H138 C133 0.930 . S
H139 C134 0.930 . S
C140 O141 1.224 . S
C140 O159 1.247 . S
O141 C140 1.224 . S
N142 Co132 2.128 . S
N142 C143 1.355 . S
N142 C145 1.311 . S
C143 N142 1.355 . S
C143 C144 1.363 . S
C143 H155 0.929 . S
C144 C143 1.363 . S
C144 N146 1.375 . S
C144 H162 0.931 . S
C145 N142 1.311 . S
C145 N146 1.347 . S
C145 H156 0.929 . S
N146 C144 1.375 . S
N146 C145 1.347 . S
C147 C150 1.365 . S
C147 N152 1.328 . S
C147 H153 0.929 . S
C148 C149 1.362 . S
C148 C151 1.378 . S
C148 H163 0.929 . S
C149 C148 1.362 . S
C149 C150 1.366 . S
C150 C147 1.365 . S
C150 C149 1.366 . S
C150 H164 0.930 . S
C151 C148 1.378 . S
C151 N152 1.315 . S
C151 H154 0.930 . S
N152 Co132 2.194 . S
N152 C147 1.328 . S
N152 C151 1.315 . S
H153 C147 0.929 . S
H154 C151 0.930 . S
H155 C143 0.929 . S
H156 C145 0.929 . S
O157 Co132 2.351 . S
O157 C160 1.244 . S
O158 Co132 2.155 . S
O158 C160 1.240 . S
O159 Co132 2.096 . S
O159 C140 1.247 . S
C160 O157 1.244 . S
C160 O158 1.240 . S
H161 C135 0.931 . S
H162 C144 0.931 . S
H163 C148 0.929 . S
H164 C150 0.930 . S
Co165 N169 2.148 . S
Co165 N175 2.128 . S
Co165 N185 2.194 . S
Co165 O190 2.351 . S
Co165 O191 2.155 . S
Co165 O192 2.096 . S
C166 N169 1.301 . S
C166 N170 1.328 . S
C166 H171 0.930 . S
C167 C168 1.333 . S
C167 N169 1.317 . S
C167 H172 0.930 . S
C168 C167 1.333 . S
C168 N170 1.350 . S
C168 H194 0.931 . S
N169 Co165 2.148 . S
N169 C166 1.301 . S
N169 C167 1.317 . S
N170 C166 1.328 . S
N170 C168 1.350 . S
H171 C166 0.930 . S
H172 C167 0.930 . S
C173 O174 1.224 . S
C173 O192 1.247 . S
O174 C173 1.224 . S
N175 Co165 2.128 . S
N175 C176 1.355 . S
N175 C178 1.311 . S
C176 N175 1.355 . S
C176 C177 1.363 . S
C176 H188 0.929 . S
C177 C176 1.363 . S
C177 N179 1.375 . S
C177 H195 0.931 . S
C178 N175 1.311 . S
C178 N179 1.347 . S
C178 H189 0.929 . S
N179 C177 1.375 . S
N179 C178 1.347 . S
C180 C183 1.365 . S
C180 N185 1.328 . S
C180 H186 0.929 . S
C181 C182 1.362 . S
C181 C184 1.378 . S
C181 H196 0.929 . S
C182 C181 1.362 . S
C182 C183 1.366 . S
C183 C180 1.365 . S
C183 C182 1.366 . S
C183 H197 0.930 . S
C184 C181 1.378 . S
C184 N185 1.315 . S
C184 H187 0.930 . S
N185 Co165 2.194 . S
N185 C180 1.328 . S
N185 C184 1.315 . S
H186 C180 0.929 . S
H187 C184 0.930 . S
H188 C176 0.929 . S
H189 C178 0.929 . S
O190 Co165 2.351 . S
O190 C193 1.244 . S
O191 Co165 2.155 . S
O191 C193 1.240 . S
O192 Co165 2.096 . S
O192 C173 1.247 . S
C193 O190 1.244 . S
C193 O191 1.240 . S
H194 C168 0.931 . S
H195 C177 0.931 . S
H196 C181 0.929 . S
H197 C183 0.930 . S
Co198 N202 2.148 . S
Co198 N208 2.128 . S
Co198 N218 2.194 . S
Co198 O223 2.351 . S
Co198 O224 2.155 . S
Co198 O225 2.096 . S
C199 N202 1.301 . S
C199 N203 1.328 . S
C199 H204 0.930 . S
C200 C201 1.333 . S
C200 N202 1.317 . S
C200 H205 0.930 . S
C201 C200 1.333 . S
C201 N203 1.350 . S
C201 H227 0.931 . S
N202 Co198 2.148 . S
N202 C199 1.301 . S
N202 C200 1.317 . S
N203 C199 1.328 . S
N203 C201 1.350 . S
H204 C199 0.930 . S
H205 C200 0.930 . S
C206 O207 1.224 . S
C206 O225 1.247 . S
O207 C206 1.224 . S
N208 Co198 2.128 . S
N208 C209 1.355 . S
N208 C211 1.311 . S
C209 N208 1.355 . S
C209 C210 1.363 . S
C209 H221 0.929 . S
C210 C209 1.363 . S
C210 N212 1.375 . S
C210 H228 0.931 . S
C211 N208 1.311 . S
C211 N212 1.347 . S
C211 H222 0.929 . S
N212 C210 1.375 . S
N212 C211 1.347 . S
C213 C216 1.365 . S
C213 N218 1.328 . S
C213 H219 0.929 . S
C214 C215 1.362 . S
C214 C217 1.378 . S
C214 H229 0.929 . S
C215 C214 1.362 . S
C215 C216 1.366 . S
C216 C213 1.365 . S
C216 C215 1.366 . S
C216 H230 0.930 . S
C217 C214 1.378 . S
C217 N218 1.315 . S
C217 H220 0.930 . S
N218 Co198 2.194 . S
N218 C213 1.328 . S
N218 C217 1.315 . S
H219 C213 0.929 . S
H220 C217 0.930 . S
H221 C209 0.929 . S
H222 C211 0.929 . S
O223 Co198 2.351 . S
O223 C226 1.244 . S
O224 Co198 2.155 . S
O224 C226 1.240 . S
O225 Co198 2.096 . S
O225 C206 1.247 . S
C226 O223 1.244 . S
C226 O224 1.240 . S
H227 C201 0.931 . S
H228 C210 0.931 . S
H229 C214 0.929 . S
H230 C216 0.930 . S
Co231 N235 2.148 . S
Co231 N241 2.128 . S
Co231 N251 2.194 . S
Co231 O256 2.351 . S
Co231 O257 2.155 . S
Co231 O258 2.096 . S
C232 N235 1.301 . S
C232 N236 1.328 . S
C232 H237 0.930 . S
C233 C234 1.333 . S
C233 N235 1.317 . S
C233 H238 0.930 . S
C234 C233 1.333 . S
C234 N236 1.350 . S
C234 H260 0.931 . S
N235 Co231 2.148 . S
N235 C232 1.301 . S
N235 C233 1.317 . S
N236 C232 1.328 . S
N236 C234 1.350 . S
H237 C232 0.930 . S
H238 C233 0.930 . S
C239 O240 1.224 . S
C239 O258 1.247 . S
O240 C239 1.224 . S
N241 Co231 2.128 . S
N241 C242 1.355 . S
N241 C244 1.311 . S
C242 N241 1.355 . S
C242 C243 1.363 . S
C242 H254 0.929 . S
C243 C242 1.363 . S
C243 N245 1.375 . S
C243 H261 0.931 . S
C244 N241 1.311 . S
C244 N245 1.347 . S
C244 H255 0.929 . S
N245 C243 1.375 . S
N245 C244 1.347 . S
C246 C249 1.365 . S
C246 N251 1.328 . S
C246 H252 0.929 . S
C247 C248 1.362 . S
C247 C250 1.378 . S
C247 H262 0.929 . S
C248 C247 1.362 . S
C248 C249 1.366 . S
C249 C246 1.365 . S
C249 C248 1.366 . S
C249 H263 0.930 . S
C250 C247 1.378 . S
C250 N251 1.315 . S
C250 H253 0.930 . S
N251 Co231 2.194 . S
N251 C246 1.328 . S
N251 C250 1.315 . S
H252 C246 0.929 . S
H253 C250 0.930 . S
H254 C242 0.929 . S
H255 C244 0.929 . S
O256 Co231 2.351 . S
O256 C259 1.244 . S
O257 Co231 2.155 . S
O257 C259 1.240 . S
O258 Co231 2.096 . S
O258 C239 1.247 . S
C259 O256 1.244 . S
C259 O257 1.240 . S
H260 C234 0.931 . S
H261 C243 0.931 . S
H262 C247 0.929 . S
H263 C249 0.930 . S
Co264 N268 2.148 . S
Co264 N274 2.128 . S
Co264 N284 2.194 . S
Co264 O289 2.351 . S
Co264 O290 2.155 . S
Co264 O291 2.096 . S
C265 N268 1.301 . S
C265 N269 1.328 . S
C265 H270 0.930 . S
C266 C267 1.333 . S
C266 N268 1.317 . S
C266 H271 0.930 . S
C267 C266 1.333 . S
C267 N269 1.350 . S
C267 H293 0.931 . S
N268 Co264 2.148 . S
N268 C265 1.301 . S
N268 C266 1.317 . S
N269 C265 1.328 . S
N269 C267 1.350 . S
H270 C265 0.930 . S
H271 C266 0.930 . S
C272 O273 1.224 . S
C272 O291 1.247 . S
O273 C272 1.224 . S
N274 Co264 2.128 . S
N274 C275 1.355 . S
N274 C277 1.311 . S
C275 N274 1.355 . S
C275 C276 1.363 . S
C275 H287 0.929 . S
C276 C275 1.363 . S
C276 N278 1.375 . S
C276 H294 0.931 . S
C277 N274 1.311 . S
C277 N278 1.347 . S
C277 H288 0.929 . S
N278 C276 1.375 . S
N278 C277 1.347 . S
C279 C282 1.365 . S
C279 N284 1.328 . S
C279 H285 0.929 . S
C280 C281 1.362 . S
C280 C283 1.378 . S
C280 H295 0.929 . S
C281 C280 1.362 . S
C281 C282 1.366 . S
C282 C279 1.365 . S
C282 C281 1.366 . S
C282 H296 0.930 . S
C283 C280 1.378 . S
C283 N284 1.315 . S
C283 H286 0.930 . S
N284 Co264 2.194 . S
N284 C279 1.328 . S
N284 C283 1.315 . S
H285 C279 0.929 . S
H286 C283 0.930 . S
H287 C275 0.929 . S
H288 C277 0.929 . S
O289 Co264 2.351 . S
O289 C292 1.244 . S
O290 Co264 2.155 . S
O290 C292 1.240 . S
O291 Co264 2.096 . S
O291 C272 1.247 . S
C292 O289 1.244 . S
C292 O290 1.240 . S
H293 C267 0.931 . S
H294 C276 0.931 . S
H295 C280 0.929 . S
H296 C282 0.930 . S
Co297 N301 2.148 . S
Co297 N307 2.128 . S
Co297 N317 2.194 . S
Co297 O322 2.351 . S
Co297 O323 2.155 . S
Co297 O324 2.096 . S
C298 N301 1.301 . S
C298 N302 1.328 . S
C298 H303 0.930 . S
C299 C300 1.333 . S
C299 N301 1.317 . S
C299 H304 0.930 . S
C300 C299 1.333 . S
C300 N302 1.350 . S
C300 H326 0.931 . S
N301 Co297 2.148 . S
N301 C298 1.301 . S
N301 C299 1.317 . S
N302 C298 1.328 . S
N302 C300 1.350 . S
H303 C298 0.930 . S
H304 C299 0.930 . S
C305 O306 1.224 . S
C305 O324 1.247 . S
O306 C305 1.224 . S
N307 Co297 2.128 . S
N307 C308 1.355 . S
N307 C310 1.311 . S
C308 N307 1.355 . S
C308 C309 1.363 . S
C308 H320 0.929 . S
C309 C308 1.363 . S
C309 N311 1.375 . S
C309 H327 0.931 . S
C310 N307 1.311 . S
C310 N311 1.347 . S
C310 H321 0.929 . S
N311 C309 1.375 . S
N311 C310 1.347 . S
C312 C315 1.365 . S
C312 N317 1.328 . S
C312 H318 0.929 . S
C313 C314 1.362 . S
C313 C316 1.378 . S
C313 H328 0.929 . S
C314 C313 1.362 . S
C314 C315 1.366 . S
C315 C312 1.365 . S
C315 C314 1.366 . S
C315 H329 0.930 . S
C316 C313 1.378 . S
C316 N317 1.315 . S
C316 H319 0.930 . S
N317 Co297 2.194 . S
N317 C312 1.328 . S
N317 C316 1.315 . S
H318 C312 0.929 . S
H319 C316 0.930 . S
H320 C308 0.929 . S
H321 C310 0.929 . S
O322 Co297 2.351 . S
O322 C325 1.244 . S
O323 Co297 2.155 . S
O323 C325 1.240 . S
O324 Co297 2.096 . S
O324 C305 1.247 . S
C325 O322 1.244 . S
C325 O323 1.240 . S
H326 C300 0.931 . S
H327 C309 0.931 . S
H328 C313 0.929 . S
H329 C315 0.930 . S
Co330 N334 2.148 . S
Co330 N340 2.128 . S
Co330 N350 2.194 . S
Co330 O355 2.351 . S
Co330 O356 2.155 . S
Co330 O357 2.096 . S
C331 N334 1.301 . S
C331 N335 1.328 . S
C331 H336 0.930 . S
C332 C333 1.333 . S
C332 N334 1.317 . S
C332 H337 0.930 . S
C333 C332 1.333 . S
C333 N335 1.350 . S
C333 H359 0.931 . S
N334 Co330 2.148 . S
N334 C331 1.301 . S
N334 C332 1.317 . S
N335 C331 1.328 . S
N335 C333 1.350 . S
H336 C331 0.930 . S
H337 C332 0.930 . S
C338 O339 1.224 . S
C338 O357 1.247 . S
O339 C338 1.224 . S
N340 Co330 2.128 . S
N340 C341 1.355 . S
N340 C343 1.311 . S
C341 N340 1.355 . S
C341 C342 1.363 . S
C341 H353 0.929 . S
C342 C341 1.363 . S
C342 N344 1.375 . S
C342 H360 0.931 . S
C343 N340 1.311 . S
C343 N344 1.347 . S
C343 H354 0.929 . S
N344 C342 1.375 . S
N344 C343 1.347 . S
C345 C348 1.365 . S
C345 N350 1.328 . S
C345 H351 0.929 . S
C346 C347 1.362 . S
C346 C349 1.378 . S
C346 H361 0.929 . S
C347 C346 1.362 . S
C347 C348 1.366 . S
C348 C345 1.365 . S
C348 C347 1.366 . S
C348 H362 0.930 . S
C349 C346 1.378 . S
C349 N350 1.315 . S
C349 H352 0.930 . S
N350 Co330 2.194 . S
N350 C345 1.328 . S
N350 C349 1.315 . S
H351 C345 0.929 . S
H352 C349 0.930 . S
H353 C341 0.929 . S
H354 C343 0.929 . S
O355 Co330 2.351 . S
O355 C358 1.244 . S
O356 Co330 2.155 . S
O356 C358 1.240 . S
O357 Co330 2.096 . S
O357 C338 1.247 . S
C358 O355 1.244 . S
C358 O356 1.240 . S
H359 C333 0.931 . S
H360 C342 0.931 . S
H361 C346 0.929 . S
H362 C348 0.930 . S
Co363 N367 2.148 . S
Co363 N373 2.128 . S
Co363 N383 2.194 . S
Co363 O388 2.351 . S
Co363 O389 2.155 . S
Co363 O390 2.096 . S
C364 N367 1.301 . S
C364 N368 1.328 . S
C364 H369 0.930 . S
C365 C366 1.333 . S
C365 N367 1.317 . S
C365 H370 0.930 . S
C366 C365 1.333 . S
C366 N368 1.350 . S
C366 H392 0.931 . S
N367 Co363 2.148 . S
N367 C364 1.301 . S
N367 C365 1.317 . S
N368 C364 1.328 . S
N368 C366 1.350 . S
H369 C364 0.930 . S
H370 C365 0.930 . S
C371 O372 1.224 . S
C371 O390 1.247 . S
O372 C371 1.224 . S
N373 Co363 2.128 . S
N373 C374 1.355 . S
N373 C376 1.311 . S
C374 N373 1.355 . S
C374 C375 1.363 . S
C374 H386 0.929 . S
C375 C374 1.363 . S
C375 N377 1.375 . S
C375 H393 0.931 . S
C376 N373 1.311 . S
C376 N377 1.347 . S
C376 H387 0.929 . S
N377 C375 1.375 . S
N377 C376 1.347 . S
C378 C381 1.365 . S
C378 N383 1.328 . S
C378 H384 0.929 . S
C379 C380 1.362 . S
C379 C382 1.378 . S
C379 H394 0.929 . S
C380 C379 1.362 . S
C380 C381 1.366 . S
C381 C378 1.365 . S
C381 C380 1.366 . S
C381 H395 0.930 . S
C382 C379 1.378 . S
C382 N383 1.315 . S
C382 H385 0.930 . S
N383 Co363 2.194 . S
N383 C378 1.328 . S
N383 C382 1.315 . S
H384 C378 0.929 . S
H385 C382 0.930 . S
H386 C374 0.929 . S
H387 C376 0.929 . S
O388 Co363 2.351 . S
O388 C391 1.244 . S
O389 Co363 2.155 . S
O389 C391 1.240 . S
O390 Co363 2.096 . S
O390 C371 1.247 . S
C391 O388 1.244 . S
C391 O389 1.240 . S
H392 C366 0.931 . S
H393 C375 0.931 . S
H394 C379 0.929 . S
H395 C381 0.930 . S
Co396 N400 2.148 . S
Co396 N406 2.128 . S
Co396 N416 2.194 . S
Co396 O421 2.351 . S
Co396 O422 2.155 . S
Co396 O423 2.096 . S
C397 N400 1.301 . S
C397 N401 1.328 . S
C397 H402 0.930 . S
C398 C399 1.333 . S
C398 N400 1.317 . S
C398 H403 0.930 . S
C399 C398 1.333 . S
C399 N401 1.350 . S
C399 H425 0.931 . S
N400 Co396 2.148 . S
N400 C397 1.301 . S
N400 C398 1.317 . S
N401 C397 1.328 . S
N401 C399 1.350 . S
H402 C397 0.930 . S
H403 C398 0.930 . S
C404 O405 1.224 . S
C404 O423 1.247 . S
O405 C404 1.224 . S
N406 Co396 2.128 . S
N406 C407 1.355 . S
N406 C409 1.311 . S
C407 N406 1.355 . S
C407 C408 1.363 . S
C407 H419 0.929 . S
C408 C407 1.363 . S
C408 N410 1.375 . S
C408 H426 0.931 . S
C409 N406 1.311 . S
C409 N410 1.347 . S
C409 H420 0.929 . S
N410 C408 1.375 . S
N410 C409 1.347 . S
C411 C414 1.365 . S
C411 N416 1.328 . S
C411 H417 0.929 . S
C412 C413 1.362 . S
C412 C415 1.378 . S
C412 H427 0.929 . S
C413 C412 1.362 . S
C413 C414 1.366 . S
C414 C411 1.365 . S
C414 C413 1.366 . S
C414 H428 0.930 . S
C415 C412 1.378 . S
C415 N416 1.315 . S
C415 H418 0.930 . S
N416 Co396 2.194 . S
N416 C411 1.328 . S
N416 C415 1.315 . S
H417 C411 0.929 . S
H418 C415 0.930 . S
H419 C407 0.929 . S
H420 C409 0.929 . S
O421 Co396 2.351 . S
O421 C424 1.244 . S
O422 Co396 2.155 . S
O422 C424 1.240 . S
O423 Co396 2.096 . S
O423 C404 1.247 . S
C424 O421 1.244 . S
C424 O422 1.240 . S
H425 C399 0.931 . S
H426 C408 0.931 . S
H427 C412 0.929 . S
H428 C414 0.930 . S
Co429 N433 2.148 . S
Co429 N439 2.128 . S
Co429 N449 2.194 . S
Co429 O454 2.351 . S
Co429 O455 2.155 . S
Co429 O456 2.096 . S
C430 N433 1.301 . S
C430 N434 1.328 . S
C430 H435 0.930 . S
C431 C432 1.333 . S
C431 N433 1.317 . S
C431 H436 0.930 . S
C432 C431 1.333 . S
C432 N434 1.350 . S
C432 H458 0.931 . S
N433 Co429 2.148 . S
N433 C430 1.301 . S
N433 C431 1.317 . S
N434 C430 1.328 . S
N434 C432 1.350 . S
H435 C430 0.930 . S
H436 C431 0.930 . S
C437 O438 1.224 . S
C437 O456 1.247 . S
O438 C437 1.224 . S
N439 Co429 2.128 . S
N439 C440 1.355 . S
N439 C442 1.311 . S
C440 N439 1.355 . S
C440 C441 1.363 . S
C440 H452 0.929 . S
C441 C440 1.363 . S
C441 N443 1.375 . S
C441 H459 0.931 . S
C442 N439 1.311 . S
C442 N443 1.347 . S
C442 H453 0.929 . S
N443 C441 1.375 . S
N443 C442 1.347 . S
C444 C447 1.365 . S
C444 N449 1.328 . S
C444 H450 0.929 . S
C445 C446 1.362 . S
C445 C448 1.378 . S
C445 H460 0.929 . S
C446 C445 1.362 . S
C446 C447 1.366 . S
C447 C444 1.365 . S
C447 C446 1.366 . S
C447 H461 0.930 . S
C448 C445 1.378 . S
C448 N449 1.315 . S
C448 H451 0.930 . S
N449 Co429 2.194 . S
N449 C444 1.328 . S
N449 C448 1.315 . S
H450 C444 0.929 . S
H451 C448 0.930 . S
H452 C440 0.929 . S
H453 C442 0.929 . S
O454 Co429 2.351 . S
O454 C457 1.244 . S
O455 Co429 2.155 . S
O455 C457 1.240 . S
O456 Co429 2.096 . S
O456 C437 1.247 . S
C457 O454 1.244 . S
C457 O455 1.240 . S
H458 C432 0.931 . S
H459 C441 0.931 . S
H460 C445 0.929 . S
H461 C447 0.930 . S
Co462 N466 2.148 . S
Co462 N472 2.128 . S
Co462 N482 2.194 . S
Co462 O487 2.351 . S
Co462 O488 2.155 . S
Co462 O489 2.096 . S
C463 N466 1.301 . S
C463 N467 1.328 . S
C463 H468 0.930 . S
C464 C465 1.333 . S
C464 N466 1.317 . S
C464 H469 0.930 . S
C465 C464 1.333 . S
C465 N467 1.350 . S
C465 H491 0.931 . S
N466 Co462 2.148 . S
N466 C463 1.301 . S
N466 C464 1.317 . S
N467 C463 1.328 . S
N467 C465 1.350 . S
H468 C463 0.930 . S
H469 C464 0.930 . S
C470 O471 1.224 . S
C470 O489 1.247 . S
O471 C470 1.224 . S
N472 Co462 2.128 . S
N472 C473 1.355 . S
N472 C475 1.311 . S
C473 N472 1.355 . S
C473 C474 1.363 . S
C473 H485 0.929 . S
C474 C473 1.363 . S
C474 N476 1.375 . S
C474 H492 0.931 . S
C475 N472 1.311 . S
C475 N476 1.347 . S
C475 H486 0.929 . S
N476 C474 1.375 . S
N476 C475 1.347 . S
C477 C480 1.365 . S
C477 N482 1.328 . S
C477 H483 0.929 . S
C478 C479 1.362 . S
C478 C481 1.378 . S
C478 H493 0.929 . S
C479 C478 1.362 . S
C479 C480 1.366 . S
C480 C477 1.365 . S
C480 C479 1.366 . S
C480 H494 0.930 . S
C481 C478 1.378 . S
C481 N482 1.315 . S
C481 H484 0.930 . S
N482 Co462 2.194 . S
N482 C477 1.328 . S
N482 C481 1.315 . S
H483 C477 0.929 . S
H484 C481 0.930 . S
H485 C473 0.929 . S
H486 C475 0.929 . S
O487 Co462 2.351 . S
O487 C490 1.244 . S
O488 Co462 2.155 . S
O488 C490 1.240 . S
O489 Co462 2.096 . S
O489 C470 1.247 . S
C490 O487 1.244 . S
C490 O488 1.240 . S
H491 C465 0.931 . S
H492 C474 0.931 . S
H493 C478 0.929 . S
H494 C480 0.930 . S
Co495 N499 2.148 . S
Co495 N505 2.128 . S
Co495 N515 2.194 . S
Co495 O520 2.351 . S
Co495 O521 2.155 . S
Co495 O522 2.096 . S
C496 N499 1.301 . S
C496 N500 1.328 . S
C496 H501 0.930 . S
C497 C498 1.333 . S
C497 N499 1.317 . S
C497 H502 0.930 . S
C498 C497 1.333 . S
C498 N500 1.350 . S
C498 H524 0.931 . S
N499 Co495 2.148 . S
N499 C496 1.301 . S
N499 C497 1.317 . S
N500 C496 1.328 . S
N500 C498 1.350 . S
H501 C496 0.930 . S
H502 C497 0.930 . S
C503 O504 1.224 . S
C503 O522 1.247 . S
O504 C503 1.224 . S
N505 Co495 2.128 . S
N505 C506 1.355 . S
N505 C508 1.311 . S
C506 N505 1.355 . S
C506 C507 1.363 . S
C506 H518 0.929 . S
C507 C506 1.363 . S
C507 N509 1.375 . S
C507 H525 0.931 . S
C508 N505 1.311 . S
C508 N509 1.347 . S
C508 H519 0.929 . S
N509 C507 1.375 . S
N509 C508 1.347 . S
C510 C513 1.365 . S
C510 N515 1.328 . S
C510 H516 0.929 . S
C511 C512 1.362 . S
C511 C514 1.378 . S
C511 H526 0.929 . S
C512 C511 1.362 . S
C512 C513 1.366 . S
C513 C510 1.365 . S
C513 C512 1.366 . S
C513 H527 0.930 . S
C514 C511 1.378 . S
C514 N515 1.315 . S
C514 H517 0.930 . S
N515 Co495 2.194 . S
N515 C510 1.328 . S
N515 C514 1.315 . S
H516 C510 0.929 . S
H517 C514 0.930 . S
H518 C506 0.929 . S
H519 C508 0.929 . S
O520 Co495 2.351 . S
O520 C523 1.244 . S
O521 Co495 2.155 . S
O521 C523 1.240 . S
O522 Co495 2.096 . S
O522 C503 1.247 . S
C523 O520 1.244 . S
C523 O521 1.240 . S
H524 C498 0.931 . S
H525 C507 0.931 . S
H526 C511 0.929 . S
H527 C513 0.930 . S
H528 C536 0.945 1_545 S
H529 C541 0.950 . S
H530 C538 0.950 . S
H531 C540 0.950 . S
H532 C542 0.950 . S
H533 C544 0.950 . S
H534 C546 0.950 . S
H535 C547 0.950 . S
C536 H528 0.945 1_565 S
C536 C537 1.383 1_565 S
C536 C538 1.399 . S
C537 C536 1.383 1_545 S
C537 C541 1.393 1_545 S
C538 H530 0.950 . S
C538 C536 1.399 . S
C538 C539 1.400 . S
C539 C538 1.400 . S
C539 C540 1.398 . S
C539 C545 1.491 . S
C540 H531 0.950 . S
C540 C539 1.398 . S
C540 C541 1.391 . S
C541 H529 0.950 . S
C541 C537 1.393 1_565 S
C541 C540 1.391 . S
C542 H532 0.950 . S
C542 C543 1.386 . S
C542 C544 1.391 . S
C543 C542 1.386 . S
C543 C547 1.393 . S
C544 H533 0.950 . S
C544 C542 1.391 . S
C544 C545 1.400 . S
C545 C539 1.491 . S
C545 C544 1.400 . S
C545 C546 1.398 . S
C546 H534 0.950 . S
C546 C545 1.398 . S
C546 C547 1.391 . S
C547 H535 0.950 . S
C547 C543 1.393 . S
C547 C546 1.391 . S
H548 C556 0.950 . S
H549 C561 0.950 . S
H550 C558 0.950 . S
H551 C560 0.950 . S
H552 C562 0.949 1_655 S
H553 C564 0.950 . S
H554 C566 0.950 . S
H555 C567 0.950 . S
C556 H548 0.950 . S
C556 C557 1.386 . S
C556 C558 1.391 . S
C557 C556 1.386 . S
C557 C561 1.393 . S
C558 H550 0.950 . S
C558 C556 1.391 . S
C558 C559 1.400 . S
C559 C558 1.400 . S
C559 C560 1.398 . S
C559 C565 1.491 . S
C560 H551 0.950 . S
C560 C559 1.398 . S
C560 C561 1.391 . S
C561 H549 0.950 . S
C561 C557 1.393 . S
C561 C560 1.391 . S
C562 H552 0.949 1_455 S
C562 C563 1.385 1_455 S
C562 C564 1.392 . S
C563 C562 1.385 1_655 S
C563 C567 1.393 1_655 S
C564 H553 0.950 . S
C564 C562 1.392 . S
C564 C565 1.400 . S
C565 C559 1.491 . S
C565 C564 1.400 . S
C565 C566 1.398 . S
C566 H554 0.950 . S
C566 C565 1.398 . S
C566 C567 1.391 . S
C567 H555 0.950 . S
C567 C563 1.393 1_455 S
C567 C566 1.391 . S
H568 C576 0.950 . S
H569 C581 0.950 . S
H570 C578 0.950 . S
H571 C580 0.950 . S
H572 C582 0.950 . S
H573 C584 0.950 . S
H574 C586 0.950 . S
H575 C587 0.950 . S
C576 H568 0.950 . S
C576 C577 1.386 1_545 S
C576 C578 1.391 . S
C577 C576 1.386 1_565 S
C577 C581 1.393 . S
C578 H570 0.950 . S
C578 C576 1.391 . S
C578 C579 1.400 . S
C579 C578 1.400 . S
C579 C580 1.398 . S
C579 C585 1.491 . S
C580 H571 0.950 . S
C580 C579 1.398 . S
C580 C581 1.391 1_545 S
C581 H569 0.950 . S
C581 C577 1.393 . S
C581 C580 1.391 1_565 S
C582 H572 0.950 . S
C582 C583 1.386 . S
C582 C584 1.391 . S
C583 C582 1.386 . S
C583 C587 1.393 . S
C584 H573 0.950 . S
C584 C582 1.391 . S
C584 C585 1.400 . S
C585 C579 1.491 . S
C585 C584 1.400 . S
C585 C586 1.398 . S
C586 H574 0.950 . S
C586 C585 1.398 . S
C586 C587 1.391 . S
C587 H575 0.950 . S
C587 C583 1.393 . S
C587 C586 1.391 . S
H588 C596 0.950 . S
H589 C601 0.950 . S
H590 C598 0.950 . S
H591 C600 0.950 . S
H592 C602 0.950 . S
H593 C604 0.950 . S
H594 C606 0.950 . S
H595 C607 0.950 . S
C596 H588 0.950 . S
C596 C597 1.386 . S
C596 C598 1.391 . S
C597 C596 1.386 . S
C597 C601 1.393 . S
C598 H590 0.950 . S
C598 C596 1.391 . S
C598 C599 1.400 . S
C599 C598 1.400 . S
C599 C600 1.398 . S
C599 C605 1.491 . S
C600 H591 0.950 . S
C600 C599 1.398 . S
C600 C601 1.391 . S
C601 H589 0.950 . S
C601 C597 1.393 . S
C601 C600 1.391 . S
C602 H592 0.950 . S
C602 C603 1.386 1_655 S
C602 C604 1.391 . S
C603 C602 1.386 1_455 S
C603 C607 1.393 . S
C604 H593 0.950 . S
C604 C602 1.391 . S
C604 C605 1.400 . S
C605 C599 1.491 . S
C605 C604 1.400 . S
C605 C606 1.398 . S
C606 H594 0.950 . S
C606 C605 1.398 . S
C606 C607 1.391 1_655 S
C607 H595 0.950 . S
C607 C603 1.393 . S
C607 C606 1.391 1_455 S
H608 C616 0.950 . S
H609 C621 0.950 . S
H610 C618 0.950 . S
H611 C620 0.950 . S
H612 C622 0.950 . S
H613 C624 0.950 . S
H614 C626 0.950 . S
H615 C627 0.950 . S
C616 H608 0.950 . S
C616 C617 1.386 . S
C616 C618 1.391 . S
C617 C616 1.386 . S
C617 C621 1.393 . S
C618 H610 0.950 . S
C618 C616 1.391 . S
C618 C619 1.400 . S
C619 C618 1.400 . S
C619 C620 1.398 . S
C619 C625 1.491 . S
C620 H611 0.950 . S
C620 C619 1.398 . S
C620 C621 1.391 . S
C621 H609 0.950 . S
C621 C617 1.393 . S
C621 C620 1.391 . S
C622 H612 0.950 . S
C622 C623 1.386 1_545 S
C622 C624 1.391 . S
C623 C622 1.386 1_565 S
C623 C627 1.393 . S
C624 H613 0.950 . S
C624 C622 1.391 . S
C624 C625 1.400 . S
C625 C619 1.491 . S
C625 C624 1.400 . S
C625 C626 1.398 . S
C626 H614 0.950 . S
C626 C625 1.398 . S
C626 C627 1.391 1_545 S
C627 H615 0.950 . S
C627 C623 1.393 . S
C627 C626 1.391 1_565 S
H628 C636 0.950 . S
H629 C641 0.950 . S
H630 C638 0.950 . S
H631 C640 0.950 . S
H632 C642 0.950 . S
H633 C644 0.950 . S
H634 C646 0.950 . S
H635 C647 0.950 . S
C636 H628 0.950 . S
C636 C637 1.386 . S
C636 C638 1.391 . S
C637 C636 1.386 . S
C637 C641 1.393 . S
C638 H630 0.950 . S
C638 C636 1.391 . S
C638 C639 1.400 . S
C639 C638 1.400 . S
C639 C640 1.398 . S
C639 C645 1.491 . S
C640 H631 0.950 . S
C640 C639 1.398 . S
C640 C641 1.391 . S
C641 H629 0.950 . S
C641 C637 1.393 . S
C641 C640 1.391 . S
C642 H632 0.950 . S
C642 C643 1.386 1_655 S
C642 C644 1.391 . S
C643 C642 1.386 1_455 S
C643 C647 1.393 . S
C644 H633 0.950 . S
C644 C642 1.391 . S
C644 C645 1.400 . S
C645 C639 1.491 . S
C645 C644 1.400 . S
C645 C646 1.398 . S
C646 H634 0.950 . S
C646 C645 1.398 . S
C646 C647 1.391 1_655 S
C647 H635 0.950 . S
C647 C643 1.393 . S
C647 C646 1.391 1_455 S
H648 C656 0.950 . S
H649 C661 0.950 . S
H650 C658 0.950 . S
H651 C660 0.950 . S
H652 C662 0.950 . S
H653 C664 0.950 . S
H654 C666 0.950 . S
H655 C667 0.950 . S
C656 H648 0.950 . S
C656 C657 1.386 . S
C656 C658 1.391 . S
C657 C656 1.386 . S
C657 C661 1.393 . S
C658 H650 0.950 . S
C658 C656 1.391 . S
C658 C659 1.400 . S
C659 C658 1.400 . S
C659 C660 1.398 . S
C659 C665 1.491 . S
C660 H651 0.950 . S
C660 C659 1.398 . S
C660 C661 1.391 . S
C661 H649 0.950 . S
C661 C657 1.393 . S
C661 C660 1.391 . S
C662 H652 0.950 . S
C662 C663 1.386 1_565 S
C662 C664 1.391 . S
C663 C662 1.386 1_545 S
C663 C667 1.393 . S
C664 H653 0.950 . S
C664 C662 1.391 . S
C664 C665 1.400 . S
C665 C659 1.491 . S
C665 C664 1.400 . S
C665 C666 1.398 . S
C666 H654 0.950 . S
C666 C665 1.398 . S
C666 C667 1.391 1_565 S
C667 H655 0.950 . S
C667 C663 1.393 . S
C667 C666 1.391 1_545 S
H668 C676 0.950 . S
H669 C681 0.950 . S
H670 C678 0.950 . S
H671 C680 0.950 . S
H672 C682 0.950 . S
H673 C684 0.950 . S
H674 C686 0.950 . S
H675 C687 0.950 . S
C676 H668 0.950 . S
C676 C677 1.386 . S
C676 C678 1.391 1_655 S
C677 C676 1.386 . S
C677 C681 1.393 1_655 S
C678 H670 0.950 . S
C678 C676 1.391 1_455 S
C678 C679 1.400 . S
C679 C678 1.400 . S
C679 C680 1.398 . S
C679 C685 1.491 . S
C680 H671 0.950 . S
C680 C679 1.398 . S
C680 C681 1.391 . S
C681 H669 0.950 . S
C681 C677 1.393 1_455 S
C681 C680 1.391 . S
C682 H672 0.950 . S
C682 C683 1.386 . S
C682 C684 1.391 . S
C683 C682 1.386 . S
C683 C687 1.393 . S
C684 H673 0.950 . S
C684 C682 1.391 . S
C684 C685 1.400 . S
C685 C679 1.491 . S
C685 C684 1.400 . S
C685 C686 1.398 . S
C686 H674 0.950 . S
C686 C685 1.398 . S
C686 C687 1.391 . S
C687 H675 0.950 . S
C687 C683 1.393 . S
C687 C686 1.391 . S
H688 C696 0.950 . S
H689 C701 0.950 . S
H690 C698 0.950 . S
H691 C700 0.950 . S
H692 C702 0.950 . S
H693 C704 0.950 . S
H694 C706 0.950 . S
H695 C707 0.950 . S
C696 H688 0.950 . S
C696 C697 1.386 . S
C696 C698 1.391 . S
C697 C696 1.386 . S
C697 C701 1.393 . S
C698 H690 0.950 . S
C698 C696 1.391 . S
C698 C699 1.400 . S
C699 C698 1.400 . S
C699 C700 1.398 . S
C699 C705 1.491 . S
C700 H691 0.950 . S
C700 C699 1.398 . S
C700 C701 1.391 . S
C701 H689 0.950 . S
C701 C697 1.393 . S
C701 C700 1.391 . S
C702 H692 0.950 . S
C702 C703 1.386 . S
C702 C704 1.391 . S
C703 C702 1.386 . S
C703 C707 1.393 . S
C704 H693 0.950 . S
C704 C702 1.391 . S
C704 C705 1.400 . S
C705 C699 1.491 . S
C705 C704 1.400 . S
C705 C706 1.398 . S
C706 H694 0.950 . S
C706 C705 1.398 . S
C706 C707 1.391 . S
C707 H695 0.950 . S
C707 C703 1.393 . S
C707 C706 1.391 . S
H708 C716 0.950 . S
H709 C721 0.950 . S
H710 C718 0.950 . S
H711 C720 0.950 . S
H712 C722 0.950 . S
H713 C724 0.950 . S
H714 C726 0.950 . S
H715 C727 0.950 . S
C716 H708 0.950 . S
C716 C717 1.386 . S
C716 C718 1.391 . S
C717 C716 1.386 . S
C717 C721 1.393 . S
C718 H710 0.950 . S
C718 C716 1.391 . S
C718 C719 1.400 . S
C719 C718 1.400 . S
C719 C720 1.398 . S
C719 C725 1.491 . S
C720 H711 0.950 . S
C720 C719 1.398 . S
C720 C721 1.391 . S
C721 H709 0.950 . S
C721 C717 1.393 . S
C721 C720 1.391 . S
C722 H712 0.950 . S
C722 C723 1.386 . S
C722 C724 1.391 . S
C723 C722 1.386 . S
C723 C727 1.393 . S
C724 H713 0.950 . S
C724 C722 1.391 . S
C724 C725 1.400 . S
C725 C719 1.491 . S
C725 C724 1.400 . S
C725 C726 1.398 . S
C726 H714 0.950 . S
C726 C725 1.398 . S
C726 C727 1.391 . S
C727 H715 0.950 . S
C727 C723 1.393 . S
C727 C726 1.391 . S
H728 C736 0.950 . S
H729 C741 0.950 . S
H730 C738 0.950 . S
H731 C740 0.950 . S
H732 C742 0.950 . S
H733 C744 0.950 . S
H734 C746 0.950 . S
H735 C747 0.950 . S
C736 H728 0.950 . S
C736 C737 1.386 . S
C736 C738 1.391 . S
C737 C736 1.386 . S
C737 C741 1.393 . S
C738 H730 0.950 . S
C738 C736 1.391 . S
C738 C739 1.400 . S
C739 C738 1.400 . S
C739 C740 1.398 . S
C739 C745 1.491 . S
C740 H731 0.950 . S
C740 C739 1.398 . S
C740 C741 1.391 . S
C741 H729 0.950 . S
C741 C737 1.393 . S
C741 C740 1.391 . S
C742 H732 0.950 . S
C742 C743 1.386 . S
C742 C744 1.391 . S
C743 C742 1.386 . S
C743 C747 1.393 . S
C744 H733 0.950 . S
C744 C742 1.391 . S
C744 C745 1.400 . S
C745 C739 1.491 . S
C745 C744 1.400 . S
C745 C746 1.398 . S
C746 H734 0.950 . S
C746 C745 1.398 . S
C746 C747 1.391 . S
C747 H735 0.950 . S
C747 C743 1.393 . S
C747 C746 1.391 . S
H748 C756 0.950 . S
H749 C761 0.950 . S
H750 C758 0.950 . S
H751 C760 0.950 . S
H752 C762 0.950 . S
H753 C764 0.950 . S
H754 C766 0.950 . S
H755 C767 0.950 . S
C756 H748 0.950 . S
C756 C757 1.386 . S
C756 C758 1.391 . S
C757 C756 1.386 . S
C757 C761 1.393 . S
C758 H750 0.950 . S
C758 C756 1.391 . S
C758 C759 1.400 . S
C759 C758 1.400 . S
C759 C760 1.398 . S
C759 C765 1.491 . S
C760 H751 0.950 . S
C760 C759 1.398 . S
C760 C761 1.391 . S
C761 H749 0.950 . S
C761 C757 1.393 . S
C761 C760 1.391 . S
C762 H752 0.950 . S
C762 C763 1.386 . S
C762 C764 1.391 . S
C763 C762 1.386 . S
C763 C767 1.393 . S
C764 H753 0.950 . S
C764 C762 1.391 . S
C764 C765 1.400 . S
C765 C759 1.491 . S
C765 C764 1.400 . S
C765 C766 1.398 . S
C766 H754 0.950 . S
C766 C765 1.398 . S
C766 C767 1.391 . S
C767 H755 0.950 . S
C767 C763 1.393 . S
C767 C766 1.391 . S
H768 C776 0.950 . S
H769 C781 0.950 . S
H770 C778 0.950 . S
H771 C780 0.950 . S
H772 C782 0.950 . S
H773 C784 0.950 . S
H774 C786 0.950 . S
H775 C787 0.950 . S
C776 H768 0.950 . S
C776 C777 1.386 . S
C776 C778 1.391 . S
C777 C776 1.386 . S
C777 C781 1.393 . S
C778 H770 0.950 . S
C778 C776 1.391 . S
C778 C779 1.400 . S
C779 C778 1.400 . S
C779 C780 1.398 . S
C779 C785 1.491 . S
C780 H771 0.950 . S
C780 C779 1.398 . S
C780 C781 1.391 . S
C781 H769 0.950 . S
C781 C777 1.393 . S
C781 C780 1.391 . S
C782 H772 0.950 . S
C782 C783 1.386 . S
C782 C784 1.391 . S
C783 C782 1.386 . S
C783 C787 1.393 . S
C784 H773 0.950 . S
C784 C782 1.391 . S
C784 C785 1.400 . S
C785 C779 1.491 . S
C785 C784 1.400 . S
C785 C786 1.398 . S
C786 H774 0.950 . S
C786 C785 1.398 . S
C786 C787 1.391 . S
C787 H775 0.950 . S
C787 C783 1.393 . S
C787 C786 1.391 . S
H788 C796 0.950 . S
H789 C801 0.950 . S
H790 C798 0.950 . S
H791 C800 0.950 . S
H792 C802 0.950 . S
H793 C804 0.950 . S
H794 C806 0.950 . S
H795 C807 0.950 . S
C796 H788 0.950 . S
C796 C797 1.386 . S
C796 C798 1.391 . S
C797 C796 1.386 . S
C797 C801 1.393 . S
C798 H790 0.950 . S
C798 C796 1.391 . S
C798 C799 1.400 . S
C799 C798 1.400 . S
C799 C800 1.398 . S
C799 C805 1.491 . S
C800 H791 0.950 . S
C800 C799 1.398 . S
C800 C801 1.391 . S
C801 H789 0.950 . S
C801 C797 1.393 . S
C801 C800 1.391 . S
C802 H792 0.950 . S
C802 C803 1.386 . S
C802 C804 1.391 . S
C803 C802 1.386 . S
C803 C807 1.393 . S
C804 H793 0.950 . S
C804 C802 1.391 . S
C804 C805 1.400 . S
C805 C799 1.491 . S
C805 C804 1.400 . S
C805 C806 1.398 . S
C806 H794 0.950 . S
C806 C805 1.398 . S
C806 C807 1.391 . S
C807 H795 0.950 . S
C807 C803 1.393 . S
C807 C806 1.391 . S
H808 C816 0.950 . S
H809 C821 0.950 . S
H810 C818 0.950 . S
H811 C820 0.950 . S
H812 C822 0.950 . S
H813 C824 0.950 . S
H814 C826 0.950 . S
H815 C827 0.950 . S
C816 H808 0.950 . S
C816 C817 1.386 . S
C816 C818 1.391 . S
C817 C816 1.386 . S
C817 C821 1.393 . S
C818 H810 0.950 . S
C818 C816 1.391 . S
C818 C819 1.400 . S
C819 C818 1.400 . S
C819 C820 1.398 . S
C819 C825 1.491 . S
C820 H811 0.950 . S
C820 C819 1.398 . S
C820 C821 1.391 . S
C821 H809 0.950 . S
C821 C817 1.393 . S
C821 C820 1.391 . S
C822 H812 0.950 . S
C822 C823 1.386 . S
C822 C824 1.391 . S
C823 C822 1.386 . S
C823 C827 1.393 . S
C824 H813 0.950 . S
C824 C822 1.391 . S
C824 C825 1.400 . S
C825 C819 1.491 . S
C825 C824 1.400 . S
C825 C826 1.398 . S
C826 H814 0.950 . S
C826 C825 1.398 . S
C826 C827 1.391 . S
C827 H815 0.950 . S
C827 C823 1.393 . S
C827 C826 1.391 . S
H828 C836 0.950 . S
H829 C841 0.950 . S
H830 C838 0.950 . S
H831 C840 0.950 . S
H832 C842 0.950 . S
H833 C844 0.950 . S
H834 C846 0.950 . S
H835 C847 0.950 . S
C836 H828 0.950 . S
C836 C837 1.386 . S
C836 C838 1.391 . S
C837 C836 1.386 . S
C837 C841 1.393 . S
C838 H830 0.950 . S
C838 C836 1.391 . S
C838 C839 1.400 . S
C839 C838 1.400 . S
C839 C840 1.398 . S
C839 C845 1.491 . S
C840 H831 0.950 . S
C840 C839 1.398 . S
C840 C841 1.391 . S
C841 H829 0.950 . S
C841 C837 1.393 . S
C841 C840 1.391 . S
C842 H832 0.950 . S
C842 C843 1.386 . S
C842 C844 1.391 . S
C843 C842 1.386 . S
C843 C847 1.393 . S
C844 H833 0.950 . S
C844 C842 1.391 . S
C844 C845 1.400 . S
C845 C839 1.491 . S
C845 C844 1.400 . S
C845 C846 1.398 . S
C846 H834 0.950 . S
C846 C845 1.398 . S
C846 C847 1.391 . S
C847 H835 0.950 . S
C847 C843 1.393 . S
C847 C846 1.391 . S
H848 C856 0.950 . S
H849 C861 0.950 . S
H850 C858 0.950 . S
H851 C860 0.950 . S
H852 C862 0.950 . S
H853 C864 0.950 . S
H854 C866 0.950 . S
H855 C867 0.950 . S
C856 H848 0.950 . S
C856 C857 1.386 . S
C856 C858 1.391 . S
C857 C856 1.386 . S
C857 C861 1.393 . S
C858 H850 0.950 . S
C858 C856 1.391 . S
C858 C859 1.400 . S
C859 C858 1.400 . S
C859 C860 1.398 . S
C859 C865 1.491 . S
C860 H851 0.950 . S
C860 C859 1.398 . S
C860 C861 1.391 . S
C861 H849 0.950 . S
C861 C857 1.393 . S
C861 C860 1.391 . S
C862 H852 0.950 . S
C862 C863 1.386 . S
C862 C864 1.391 . S
C863 C862 1.386 . S
C863 C867 1.393 . S
C864 H853 0.950 . S
C864 C862 1.391 . S
C864 C865 1.400 . S
C865 C859 1.491 . S
C865 C864 1.400 . S
C865 C866 1.398 . S
C866 H854 0.950 . S
C866 C865 1.398 . S
C866 C867 1.391 . S
C867 H855 0.950 . S
C867 C863 1.393 . S
C867 C866 1.391 . S
H868 C876 0.950 . S
H869 C881 0.950 . S
H870 C878 0.950 . S
H871 C880 0.950 . S
H872 C882 0.950 . S
H873 C884 0.950 . S
H874 C886 0.950 . S
H875 C887 0.950 . S
C876 H868 0.950 . S
C876 C877 1.386 . S
C876 C878 1.391 . S
C877 C876 1.386 . S
C877 C881 1.393 . S
C878 H870 0.950 . S
C878 C876 1.391 . S
C878 C879 1.400 . S
C879 C878 1.400 . S
C879 C880 1.398 . S
C879 C885 1.491 . S
C880 H871 0.950 . S
C880 C879 1.398 . S
C880 C881 1.391 . S
C881 H869 0.950 . S
C881 C877 1.393 . S
C881 C880 1.391 . S
C882 H872 0.950 . S
C882 C883 1.386 . S
C882 C884 1.391 . S
C883 C882 1.386 . S
C883 C887 1.393 . S
C884 H873 0.950 . S
C884 C882 1.391 . S
C884 C885 1.400 . S
C885 C879 1.491 . S
C885 C884 1.400 . S
C885 C886 1.398 . S
C886 H874 0.950 . S
C886 C885 1.398 . S
C886 C887 1.391 . S
C887 H875 0.950 . S
C887 C883 1.393 . S
C887 C886 1.391 . S
H888 C896 0.950 . S
H889 C901 0.950 . S
H890 C898 0.950 . S
H891 C900 0.950 . S
H892 C902 0.950 . S
H893 C904 0.950 . S
H894 C906 0.950 . S
H895 C907 0.950 . S
C896 H888 0.950 . S
C896 C897 1.386 . S
C896 C898 1.391 . S
C897 C896 1.386 . S
C897 C901 1.393 . S
C898 H890 0.950 . S
C898 C896 1.391 . S
C898 C899 1.400 . S
C899 C898 1.400 . S
C899 C900 1.398 . S
C899 C905 1.491 . S
C900 H891 0.950 . S
C900 C899 1.398 . S
C900 C901 1.391 . S
C901 H889 0.950 . S
C901 C897 1.393 . S
C901 C900 1.391 . S
C902 H892 0.950 . S
C902 C903 1.386 . S
C902 C904 1.391 . S
C903 C902 1.386 . S
C903 C907 1.393 . S
C904 H893 0.950 . S
C904 C902 1.391 . S
C904 C905 1.400 . S
C905 C899 1.491 . S
C905 C904 1.400 . S
C905 C906 1.398 . S
C906 H894 0.950 . S
C906 C905 1.398 . S
C906 C907 1.391 . S
C907 H895 0.950 . S
C907 C903 1.393 . S
C907 C906 1.391 . S
H908 C916 0.950 . S
H909 C921 0.950 . S
H910 C918 0.950 . S
H911 C920 0.950 . S
H912 C922 0.950 . S
H913 C924 0.950 . S
H914 C926 0.950 . S
H915 C927 0.950 . S
C916 H908 0.950 . S
C916 C917 1.386 . S
C916 C918 1.391 . S
C917 C916 1.386 . S
C917 C921 1.393 . S
C918 H910 0.950 . S
C918 C916 1.391 . S
C918 C919 1.400 . S
C919 C918 1.400 . S
C919 C920 1.398 . S
C919 C925 1.491 . S
C920 H911 0.950 . S
C920 C919 1.398 . S
C920 C921 1.391 . S
C921 H909 0.950 . S
C921 C917 1.393 . S
C921 C920 1.391 . S
C922 H912 0.950 . S
C922 C923 1.386 . S
C922 C924 1.391 . S
C923 C922 1.386 . S
C923 C927 1.393 . S
C924 H913 0.950 . S
C924 C922 1.391 . S
C924 C925 1.400 . S
C925 C919 1.491 . S
C925 C924 1.400 . S
C925 C926 1.398 . S
C926 H914 0.950 . S
C926 C925 1.398 . S
C926 C927 1.391 . S
C927 H915 0.950 . S
C927 C923 1.393 . S
C927 C926 1.391 . S
H928 C936 0.950 . S
H929 C941 0.950 . S
H930 C938 0.950 . S
H931 C940 0.950 1_554 S
H932 C942 0.950 . S
H933 C944 0.950 . S
H934 C946 0.950 1_556 S
H935 C947 0.950 . S
C936 H928 0.950 . S
C936 C937 1.386 . S
C936 C938 1.391 . S
C937 C936 1.386 . S
C937 C941 1.393 . S
C938 H930 0.950 . S
C938 C936 1.391 . S
C938 C939 1.400 . S
C939 C938 1.400 . S
C939 C940 1.398 . S
C939 C945 1.491 1_556 S
C940 H931 0.950 1_556 S
C940 C939 1.398 . S
C940 C941 1.391 . S
C941 H929 0.950 . S
C941 C937 1.393 . S
C941 C940 1.391 . S
C942 H932 0.950 . S
C942 C943 1.386 . S
C942 C944 1.391 . S
C943 C942 1.386 . S
C943 C947 1.393 . S
C944 H933 0.950 . S
C944 C942 1.391 . S
C944 C945 1.400 . S
C945 C939 1.491 1_554 S
C945 C944 1.400 . S
C945 C946 1.398 . S
C946 H934 0.950 1_554 S
C946 C945 1.398 . S
C946 C947 1.391 . S
C947 H935 0.950 . S
C947 C943 1.393 . S
C947 C946 1.391 . S
H948 C956 0.950 . S
H949 C961 0.950 . S
H950 C958 0.950 . S
H951 C960 0.950 . S
H952 C962 0.950 . S
H953 C964 0.950 . S
H954 C966 0.950 . S
H955 C967 0.950 . S
C956 H948 0.950 . S
C956 C957 1.386 . S
C956 C958 1.391 . S
C957 C956 1.386 . S
C957 C961 1.393 . S
C958 H950 0.950 . S
C958 C956 1.391 . S
C958 C959 1.400 . S
C959 C958 1.400 . S
C959 C960 1.398 . S
C959 C965 1.491 1_556 S
C960 H951 0.950 . S
C960 C959 1.398 . S
C960 C961 1.391 . S
C961 H949 0.950 . S
C961 C957 1.393 . S
C961 C960 1.391 . S
C962 H952 0.950 . S
C962 C963 1.386 . S
C962 C964 1.391 . S
C963 C962 1.386 . S
C963 C967 1.393 . S
C964 H953 0.950 . S
C964 C962 1.391 . S
C964 C965 1.400 . S
C965 C959 1.491 1_554 S
C965 C964 1.400 . S
C965 C966 1.398 . S
C966 H954 0.950 . S
C966 C965 1.398 . S
C966 C967 1.391 . S
C967 H955 0.950 . S
C967 C963 1.393 . S
C967 C966 1.391 . S
H968 C976 0.950 . S
H969 C981 0.950 . S
H970 C978 0.950 . S
H971 C980 0.950 . S
H972 C982 0.950 . S
H973 C984 0.950 . S
H974 C986 0.950 . S
H975 C987 0.950 . S
C976 H968 0.950 . S
C976 C977 1.386 . S
C976 C978 1.391 . S
C977 C976 1.386 . S
C977 C981 1.393 . S
C978 H970 0.950 . S
C978 C976 1.391 . S
C978 C979 1.400 . S
C979 C978 1.400 . S
C979 C980 1.398 . S
C979 C985 1.491 1_556 S
C980 H971 0.950 . S
C980 C979 1.398 . S
C980 C981 1.391 . S
C981 H969 0.950 . S
C981 C977 1.393 . S
C981 C980 1.391 . S
C982 H972 0.950 . S
C982 C983 1.386 . S
C982 C984 1.391 . S
C983 C982 1.386 . S
C983 C987 1.393 . S
C984 H973 0.950 . S
C984 C982 1.391 . S
C984 C985 1.400 . S
C985 C979 1.491 1_554 S
C985 C984 1.400 . S
C985 C986 1.398 . S
C986 H974 0.950 . S
C986 C985 1.398 . S
C986 C987 1.391 . S
C987 H975 0.950 . S
C987 C983 1.393 . S
C987 C986 1.391 . S
H988 C996 0.950 . S
H989 C1001 0.950 . S
H990 C998 0.950 . S
H991 C1000 0.950 1_554 S
H992 C1002 0.950 . S
H993 C1004 0.950 . S
H994 C1006 0.950 1_556 S
H995 C1007 0.950 . S
C996 H988 0.950 . S
C996 C997 1.386 . S
C996 C998 1.391 . S
C997 C996 1.386 . S
C997 C1001 1.393 . S
C998 H990 0.950 . S
C998 C996 1.391 . S
C998 C999 1.400 . S
C999 C998 1.400 . S
C999 C1000 1.398 . S
C999 C1005 1.491 1_556 S
C1000 H991 0.950 1_556 S
C1000 C999 1.398 . S
C1000 C1001 1.391 . S
C1001 H989 0.950 . S
C1001 C997 1.393 . S
C1001 C1000 1.391 . S
C1002 H992 0.950 . S
C1002 C1003 1.386 . S
C1002 C1004 1.391 . S
C1003 C1002 1.386 . S
C1003 C1007 1.393 . S
C1004 H993 0.950 . S
C1004 C1002 1.391 . S
C1004 C1005 1.400 . S
C1005 C999 1.491 1_554 S
C1005 C1004 1.400 . S
C1005 C1006 1.398 . S
C1006 H994 0.950 1_554 S
C1006 C1005 1.398 . S
C1006 C1007 1.391 . S
C1007 H995 0.950 . S
C1007 C1003 1.393 . S
C1007 C1006 1.391 . S
H1008 C1016 0.950 . S
H1009 C1021 0.950 . S
H1010 C1018 0.950 . S
H1011 C1020 0.950 . S
H1012 C1022 0.950 . S
H1013 C1024 0.950 . S
H1014 C1026 0.950 . S
H1015 C1027 0.950 . S
C1016 H1008 0.950 . S
C1016 C1017 1.386 . S
C1016 C1018 1.391 . S
C1017 C1016 1.386 . S
C1017 C1021 1.393 . S
C1018 H1010 0.950 . S
C1018 C1016 1.391 . S
C1018 C1019 1.400 . S
C1019 C1018 1.400 . S
C1019 C1020 1.398 . S
C1019 C1025 1.491 . S
C1020 H1011 0.950 . S
C1020 C1019 1.398 . S
C1020 C1021 1.391 . S
C1021 H1009 0.950 . S
C1021 C1017 1.393 . S
C1021 C1020 1.391 . S
C1022 H1012 0.950 . S
C1022 C1023 1.386 . S
C1022 C1024 1.391 . S
C1023 C1022 1.386 . S
C1023 C1027 1.393 . S
C1024 H1013 0.950 . S
C1024 C1022 1.391 . S
C1024 C1025 1.400 . S
C1025 C1019 1.491 . S
C1025 C1024 1.400 . S
C1025 C1026 1.398 . S
C1026 H1014 0.950 . S
C1026 C1025 1.398 . S
C1026 C1027 1.391 . S
C1027 H1015 0.950 . S
C1027 C1023 1.393 . S
C1027 C1026 1.391 . S
H1028 C1036 0.950 . S
H1029 C1041 0.950 . S
H1030 C1038 0.950 . S
H1031 C1040 0.950 . S
H1032 C1042 0.950 . S
H1033 C1044 0.950 . S
H1034 C1046 0.950 . S
H1035 C1047 0.950 . S
C1036 H1028 0.950 . S
C1036 C1037 1.386 . S
C1036 C1038 1.391 . S
C1037 C1036 1.386 . S
C1037 C1041 1.393 . S
C1038 H1030 0.950 . S
C1038 C1036 1.391 . S
C1038 C1039 1.400 . S
C1039 C1038 1.400 . S
C1039 C1040 1.398 . S
C1039 C1045 1.491 . S
C1040 H1031 0.950 . S
C1040 C1039 1.398 . S
C1040 C1041 1.391 . S
C1041 H1029 0.950 . S
C1041 C1037 1.393 . S
C1041 C1040 1.391 . S
C1042 H1032 0.950 . S
C1042 C1043 1.386 . S
C1042 C1044 1.391 . S
C1043 C1042 1.386 . S
C1043 C1047 1.393 . S
C1044 H1033 0.950 . S
C1044 C1042 1.391 . S
C1044 C1045 1.400 . S
C1045 C1039 1.491 . S
C1045 C1044 1.400 . S
C1045 C1046 1.398 . S
C1046 H1034 0.950 . S
C1046 C1045 1.398 . S
C1046 C1047 1.391 . S
C1047 H1035 0.950 . S
C1047 C1043 1.393 . S
C1047 C1046 1.391 . S
H1048 C1056 0.950 . S
H1049 C1061 0.950 . S
H1050 C1058 0.950 . S
H1051 C1060 0.950 . S
H1052 C1062 0.950 . S
H1053 C1064 0.950 . S
H1054 C1066 0.950 . S
H1055 C1067 0.950 . S
C1056 H1048 0.950 . S
C1056 C1057 1.386 . S
C1056 C1058 1.391 . S
C1057 C1056 1.386 . S
C1057 C1061 1.393 . S
C1058 H1050 0.950 . S
C1058 C1056 1.391 . S
C1058 C1059 1.400 . S
C1059 C1058 1.400 . S
C1059 C1060 1.398 . S
C1059 C1065 1.491 . S
C1060 H1051 0.950 . S
C1060 C1059 1.398 . S
C1060 C1061 1.391 . S
C1061 H1049 0.950 . S
C1061 C1057 1.393 . S
C1061 C1060 1.391 . S
C1062 H1052 0.950 . S
C1062 C1063 1.386 . S
C1062 C1064 1.391 . S
C1063 C1062 1.386 . S
C1063 C1067 1.393 . S
C1064 H1053 0.950 . S
C1064 C1062 1.391 . S
C1064 C1065 1.400 . S
C1065 C1059 1.491 . S
C1065 C1064 1.400 . S
C1065 C1066 1.398 . S
C1066 H1054 0.950 . S
C1066 C1065 1.398 . S
C1066 C1067 1.391 . S
C1067 H1055 0.950 . S
C1067 C1063 1.393 . S
C1067 C1066 1.391 . S
H1068 C1076 0.950 . S
H1069 C1081 0.950 . S
H1070 C1078 0.950 . S
H1071 C1080 0.950 . S
H1072 C1082 0.950 . S
H1073 C1084 0.950 . S
H1074 C1086 0.950 . S
H1075 C1087 0.950 . S
C1076 H1068 0.950 . S
C1076 C1077 1.386 . S
C1076 C1078 1.391 . S
C1077 C1076 1.386 . S
C1077 C1081 1.393 . S
C1078 H1070 0.950 . S
C1078 C1076 1.391 . S
C1078 C1079 1.400 . S
C1079 C1078 1.400 . S
C1079 C1080 1.398 . S
C1079 C1085 1.491 . S
C1080 H1071 0.950 . S
C1080 C1079 1.398 . S
C1080 C1081 1.391 . S
C1081 H1069 0.950 . S
C1081 C1077 1.393 . S
C1081 C1080 1.391 . S
C1082 H1072 0.950 . S
C1082 C1083 1.386 . S
C1082 C1084 1.391 . S
C1083 C1082 1.386 . S
C1083 C1087 1.393 . S
C1084 H1073 0.950 . S
C1084 C1082 1.391 . S
C1084 C1085 1.400 . S
C1085 C1079 1.491 . S
C1085 C1084 1.400 . S
C1085 C1086 1.398 . S
C1086 H1074 0.950 . S
C1086 C1085 1.398 . S
C1086 C1087 1.391 . S
C1087 H1075 0.950 . S
C1087 C1083 1.393 . S
C1087 C1086 1.391 . S
H1088 C1096 0.950 . S
H1089 C1101 0.950 . S
H1090 C1098 0.950 . S
H1091 C1100 0.950 . S
H1092 C1102 0.950 . S
H1093 C1104 0.950 . S
H1094 C1106 0.950 . S
H1095 C1107 0.950 . S
C1096 H1088 0.950 . S
C1096 C1097 1.386 . S
C1096 C1098 1.391 . S
C1097 C1096 1.386 . S
C1097 C1101 1.393 . S
C1098 H1090 0.950 . S
C1098 C1096 1.391 . S
C1098 C1099 1.400 . S
C1099 C1098 1.400 . S
C1099 C1100 1.398 . S
C1099 C1105 1.491 . S
C1100 H1091 0.950 . S
C1100 C1099 1.398 . S
C1100 C1101 1.391 . S
C1101 H1089 0.950 . S
C1101 C1097 1.393 . S
C1101 C1100 1.391 . S
C1102 H1092 0.950 . S
C1102 C1103 1.386 . S
C1102 C1104 1.391 . S
C1103 C1102 1.386 . S
C1103 C1107 1.393 . S
C1104 H1093 0.950 . S
C1104 C1102 1.391 . S
C1104 C1105 1.400 . S
C1105 C1099 1.491 . S
C1105 C1104 1.400 . S
C1105 C1106 1.398 . S
C1106 H1094 0.950 . S
C1106 C1105 1.398 . S
C1106 C1107 1.391 . S
C1107 H1095 0.950 . S
C1107 C1103 1.393 . S
C1107 C1106 1.391 . S
H1108 C1116 0.950 . S
H1109 C1121 0.950 . S
H1110 C1118 0.950 . S
H1111 C1120 0.950 . S
H1112 C1122 0.950 . S
H1113 C1124 0.950 . S
H1114 C1126 0.950 . S
H1115 C1127 0.950 . S
C1116 H1108 0.950 . S
C1116 C1117 1.386 . S
C1116 C1118 1.391 . S
C1117 C1116 1.386 . S
C1117 C1121 1.393 . S
C1118 H1110 0.950 . S
C1118 C1116 1.391 . S
C1118 C1119 1.400 . S
C1119 C1118 1.400 . S
C1119 C1120 1.398 . S
C1119 C1125 1.491 . S
C1120 H1111 0.950 . S
C1120 C1119 1.398 . S
C1120 C1121 1.391 . S
C1121 H1109 0.950 . S
C1121 C1117 1.393 . S
C1121 C1120 1.391 . S
C1122 H1112 0.950 . S
C1122 C1123 1.386 . S
C1122 C1124 1.391 . S
C1123 C1122 1.386 . S
C1123 C1127 1.393 . S
C1124 H1113 0.950 . S
C1124 C1122 1.391 . S
C1124 C1125 1.400 . S
C1125 C1119 1.491 . S
C1125 C1124 1.400 . S
C1125 C1126 1.398 . S
C1126 H1114 0.950 . S
C1126 C1125 1.398 . S
C1126 C1127 1.391 . S
C1127 H1115 0.950 . S
C1127 C1123 1.393 . S
C1127 C1126 1.391 . S
H1128 C1136 0.950 . S
H1129 C1141 0.950 . S
H1130 C1138 0.950 . S
H1131 C1140 0.950 . S
H1132 C1142 0.950 . S
H1133 C1144 0.950 . S
H1134 C1146 0.950 . S
H1135 C1147 0.950 . S
C1136 H1128 0.950 . S
C1136 C1137 1.386 . S
C1136 C1138 1.391 . S
C1137 C1136 1.386 . S
C1137 C1141 1.393 . S
C1138 H1130 0.950 . S
C1138 C1136 1.391 . S
C1138 C1139 1.400 . S
C1139 C1138 1.400 . S
C1139 C1140 1.398 . S
C1139 C1145 1.491 . S
C1140 H1131 0.950 . S
C1140 C1139 1.398 . S
C1140 C1141 1.391 . S
C1141 H1129 0.950 . S
C1141 C1137 1.393 . S
C1141 C1140 1.391 . S
C1142 H1132 0.950 . S
C1142 C1143 1.386 . S
C1142 C1144 1.391 . S
C1143 C1142 1.386 . S
C1143 C1147 1.393 . S
C1144 H1133 0.950 . S
C1144 C1142 1.391 . S
C1144 C1145 1.400 . S
C1145 C1139 1.491 . S
C1145 C1144 1.400 . S
C1145 C1146 1.398 . S
C1146 H1134 0.950 . S
C1146 C1145 1.398 . S
C1146 C1147 1.391 . S
C1147 H1135 0.950 . S
C1147 C1143 1.393 . S
C1147 C1146 1.391 . S
H1148 C1156 0.950 . S
H1149 C1161 0.950 . S
H1150 C1158 0.950 . S
H1151 C1160 0.950 . S
H1152 C1162 0.950 . S
H1153 C1164 0.950 . S
H1154 C1166 0.950 . S
H1155 C1167 0.950 . S
C1156 H1148 0.950 . S
C1156 C1157 1.386 . S
C1156 C1158 1.391 . S
C1157 C1156 1.386 . S
C1157 C1161 1.393 . S
C1158 H1150 0.950 . S
C1158 C1156 1.391 . S
C1158 C1159 1.400 . S
C1159 C1158 1.400 . S
C1159 C1160 1.398 . S
C1159 C1165 1.491 . S
C1160 H1151 0.950 . S
C1160 C1159 1.398 . S
C1160 C1161 1.391 . S
C1161 H1149 0.950 . S
C1161 C1157 1.393 . S
C1161 C1160 1.391 . S
C1162 H1152 0.950 . S
C1162 C1163 1.386 . S
C1162 C1164 1.391 . S
C1163 C1162 1.386 . S
C1163 C1167 1.393 . S
C1164 H1153 0.950 . S
C1164 C1162 1.391 . S
C1164 C1165 1.400 . S
C1165 C1159 1.491 . S
C1165 C1164 1.400 . S
C1165 C1166 1.398 . S
C1166 H1154 0.950 . S
C1166 C1165 1.398 . S
C1166 C1167 1.391 . S
C1167 H1155 0.950 . S
C1167 C1163 1.393 . S
C1167 C1166 1.391 . S
H1168 C1176 0.950 . S
H1169 C1181 0.950 . S
H1170 C1178 0.950 . S
H1171 C1180 0.950 1_565 S
H1172 C1182 0.950 . S
H1173 C1184 0.950 . S
H1174 C1186 0.950 1_545 S
H1175 C1187 0.950 . S
C1176 H1168 0.950 . S
C1176 C1177 1.386 . S
C1176 C1178 1.391 . S
C1177 C1176 1.386 . S
C1177 C1181 1.393 . S
C1178 H1170 0.950 . S
C1178 C1176 1.391 . S
C1178 C1179 1.400 . S
C1179 C1178 1.400 . S
C1179 C1180 1.398 . S
C1179 C1185 1.491 1_545 S
C1180 H1171 0.950 1_545 S
C1180 C1179 1.398 . S
C1180 C1181 1.391 . S
C1181 H1169 0.950 . S
C1181 C1177 1.393 . S
C1181 C1180 1.391 . S
C1182 H1172 0.950 . S
C1182 C1183 1.386 . S
C1182 C1184 1.391 . S
C1183 C1182 1.386 . S
C1183 C1187 1.393 . S
C1184 H1173 0.950 . S
C1184 C1182 1.391 . S
C1184 C1185 1.400 . S
C1185 C1179 1.491 1_565 S
C1185 C1184 1.400 . S
C1185 C1186 1.398 . S
C1186 H1174 0.950 1_565 S
C1186 C1185 1.398 . S
C1186 C1187 1.391 . S
C1187 H1175 0.950 . S
C1187 C1183 1.393 . S
C1187 C1186 1.391 . S
H1188 C1196 0.950 . S
H1189 C1201 0.950 . S
H1190 C1198 0.950 . S
H1191 C1200 0.950 . S
H1192 C1202 0.950 . S
H1193 C1204 0.950 . S
H1194 C1206 0.950 . S
H1195 C1207 0.950 . S
C1196 H1188 0.950 . S
C1196 C1197 1.386 . S
C1196 C1198 1.391 . S
C1197 C1196 1.386 . S
C1197 C1201 1.393 . S
C1198 H1190 0.950 . S
C1198 C1196 1.391 . S
C1198 C1199 1.400 . S
C1199 C1198 1.400 . S
C1199 C1200 1.398 1_655 S
C1199 C1205 1.491 1_655 S
C1200 H1191 0.950 . S
C1200 C1199 1.398 1_455 S
C1200 C1201 1.391 1_455 S
C1201 H1189 0.950 . S
C1201 C1197 1.393 . S
C1201 C1200 1.391 1_655 S
C1202 H1192 0.950 . S
C1202 C1203 1.386 . S
C1202 C1204 1.391 . S
C1203 C1202 1.386 . S
C1203 C1207 1.393 . S
C1204 H1193 0.950 . S
C1204 C1202 1.391 . S
C1204 C1205 1.400 . S
C1205 C1199 1.491 1_455 S
C1205 C1204 1.400 . S
C1205 C1206 1.398 1_455 S
C1206 H1194 0.950 . S
C1206 C1205 1.398 1_655 S
C1206 C1207 1.391 1_655 S
C1207 H1195 0.950 . S
C1207 C1203 1.393 . S
C1207 C1206 1.391 1_455 S
H1208 C1216 0.950 . S
H1209 C1221 0.950 . S
H1210 C1218 0.950 . S
H1211 C1220 0.950 . S
H1212 C1222 0.950 . S
H1213 C1224 0.950 . S
H1214 C1226 0.950 . S
H1215 C1227 0.950 . S
C1216 H1208 0.950 . S
C1216 C1217 1.386 . S
C1216 C1218 1.391 1_565 S
C1217 C1216 1.386 . S
C1217 C1221 1.393 . S
C1218 H1210 0.950 . S
C1218 C1216 1.391 1_545 S
C1218 C1219 1.400 1_545 S
C1219 C1218 1.400 1_565 S
C1219 C1220 1.398 . S
C1219 C1225 1.491 1_565 S
C1220 H1211 0.950 . S
C1220 C1219 1.398 . S
C1220 C1221 1.391 . S
C1221 H1209 0.950 . S
C1221 C1217 1.393 . S
C1221 C1220 1.391 . S
C1222 H1212 0.950 . S
C1222 C1223 1.386 . S
C1222 C1224 1.391 1_545 S
C1223 C1222 1.386 . S
C1223 C1227 1.393 . S
C1224 H1213 0.950 . S
C1224 C1222 1.391 1_565 S
C1224 C1225 1.400 1_565 S
C1225 C1219 1.491 1_545 S
C1225 C1224 1.400 1_545 S
C1225 C1226 1.398 . S
C1226 H1214 0.950 . S
C1226 C1225 1.398 . S
C1226 C1227 1.391 . S
C1227 H1215 0.950 . S
C1227 C1223 1.393 . S
C1227 C1226 1.391 . S
H1228 C1236 0.950 . S
H1229 C1241 0.950 . S
H1230 C1238 0.982 . S
H1231 C1240 0.950 . S
H1232 C1242 0.950 . S
H1233 C1244 0.982 . S
H1234 C1246 0.950 . S
H1235 C1247 0.950 . S
C1236 H1228 0.950 . S
C1236 C1237 1.386 . S
C1236 C1238 1.371 1_655 S
C1237 C1236 1.386 . S
C1237 C1241 1.393 . S
C1238 H1230 0.982 . S
C1238 C1236 1.371 1_455 S
C1238 C1239 1.389 1_455 S
C1239 C1238 1.389 1_655 S
C1239 C1240 1.398 . S
C1239 C1245 1.491 1_655 S
C1240 H1231 0.950 . S
C1240 C1239 1.398 . S
C1240 C1241 1.391 . S
C1241 H1229 0.950 . S
C1241 C1237 1.393 . S
C1241 C1240 1.391 . S
C1242 H1232 0.950 . S
C1242 C1243 1.386 . S
C1242 C1244 1.372 1_455 S
C1243 C1242 1.386 . S
C1243 C1247 1.393 . S
C1244 H1233 0.982 . S
C1244 C1242 1.372 1_655 S
C1244 C1245 1.389 1_655 S
C1245 C1239 1.491 1_455 S
C1245 C1244 1.389 1_455 S
C1245 C1246 1.398 . S
C1246 H1234 0.950 . S
C1246 C1245 1.398 . S
C1246 C1247 1.391 . S
C1247 H1235 0.950 . S
C1247 C1243 1.393 . S
C1247 C1246 1.391 . S
H1248 C1256 0.950 . S
H1249 C1261 0.950 . S
H1250 C1258 0.950 . S
H1251 C1260 0.950 1_554 S
H1252 C1262 0.950 . S
H1253 C1264 0.950 . S
H1254 C1266 0.950 1_556 S
H1255 C1267 0.950 . S
C1256 H1248 0.950 . S
C1256 C1257 1.386 . S
C1256 C1258 1.391 . S
C1257 C1256 1.386 . S
C1257 C1261 1.393 . S
C1258 H1250 0.950 . S
C1258 C1256 1.391 . S
C1258 C1259 1.400 . S
C1259 C1258 1.400 . S
C1259 C1260 1.398 . S
C1259 C1265 1.491 1_556 S
C1260 H1251 0.950 1_556 S
C1260 C1259 1.398 . S
C1260 C1261 1.391 . S
C1261 H1249 0.950 . S
C1261 C1257 1.393 . S
C1261 C1260 1.391 . S
C1262 H1252 0.950 . S
C1262 C1263 1.386 . S
C1262 C1264 1.391 . S
C1263 C1262 1.386 . S
C1263 C1267 1.393 . S
C1264 H1253 0.950 . S
C1264 C1262 1.391 . S
C1264 C1265 1.400 . S
C1265 C1259 1.491 1_554 S
C1265 C1264 1.400 . S
C1265 C1266 1.398 . S
C1266 H1254 0.950 1_554 S
C1266 C1265 1.398 . S
C1266 C1267 1.391 . S
C1267 H1255 0.950 . S
C1267 C1263 1.393 . S
C1267 C1266 1.391 . S
H1268 C1276 0.950 . S
H1269 C1281 0.950 . S
H1270 C1278 0.950 1_554 S
H1271 C1280 0.950 . S
H1272 C1282 0.950 . S
H1273 C1284 0.950 1_556 S
H1274 C1286 0.950 . S
H1275 C1287 0.950 . S
C1276 H1268 0.950 . S
C1276 C1277 1.386 . S
C1276 C1278 1.391 . S
C1277 C1276 1.386 . S
C1277 C1281 1.393 . S
C1278 H1270 0.950 1_556 S
C1278 C1276 1.391 . S
C1278 C1279 1.400 . S
C1279 C1278 1.400 . S
C1279 C1280 1.398 . S
C1279 C1285 1.491 1_556 S
C1280 H1271 0.950 . S
C1280 C1279 1.398 . S
C1280 C1281 1.391 . S
C1281 H1269 0.950 . S
C1281 C1277 1.393 . S
C1281 C1280 1.391 . S
C1282 H1272 0.950 . S
C1282 C1283 1.386 . S
C1282 C1284 1.391 . S
C1283 C1282 1.386 . S
C1283 C1287 1.393 . S
C1284 H1273 0.950 1_554 S
C1284 C1282 1.391 . S
C1284 C1285 1.400 . S
C1285 C1279 1.491 1_554 S
C1285 C1284 1.400 . S
C1285 C1286 1.398 . S
C1286 H1274 0.950 . S
C1286 C1285 1.398 . S
C1286 C1287 1.391 . S
C1287 H1275 0.950 . S
C1287 C1283 1.393 . S
C1287 C1286 1.391 . S
H1288 C1296 0.950 . S
H1289 C1301 0.950 . S
H1290 C1298 0.950 1_556 S
H1291 C1300 0.950 . S
H1292 C1302 0.950 . S
H1293 C1304 0.950 1_554 S
H1294 C1306 0.950 . S
H1295 C1307 0.950 . S
C1296 H1288 0.950 . S
C1296 C1297 1.386 . S
C1296 C1298 1.391 . S
C1297 C1296 1.386 . S
C1297 C1301 1.393 . S
C1298 H1290 0.950 1_554 S
C1298 C1296 1.391 . S
C1298 C1299 1.400 . S
C1299 C1298 1.400 . S
C1299 C1300 1.398 . S
C1299 C1305 1.491 1_554 S
C1300 H1291 0.950 . S
C1300 C1299 1.398 . S
C1300 C1301 1.391 . S
C1301 H1289 0.950 . S
C1301 C1297 1.393 . S
C1301 C1300 1.391 . S
C1302 H1292 0.950 . S
C1302 C1303 1.386 . S
C1302 C1304 1.391 . S
C1303 C1302 1.386 . S
C1303 C1307 1.393 . S
C1304 H1293 0.950 1_556 S
C1304 C1302 1.391 . S
C1304 C1305 1.400 . S
C1305 C1299 1.491 1_556 S
C1305 C1304 1.400 . S
C1305 C1306 1.398 . S
C1306 H1294 0.950 . S
C1306 C1305 1.398 . S
C1306 C1307 1.391 . S
C1307 H1295 0.950 . S
C1307 C1303 1.393 . S
C1307 C1306 1.391 . S
H1308 C1316 0.950 . S
H1309 C1321 0.950 . S
H1310 C1318 0.950 1_554 S
H1311 C1320 0.950 . S
H1312 C1322 0.950 . S
H1313 C1324 0.950 1_556 S
H1314 C1326 0.950 . S
H1315 C1327 0.950 . S
C1316 H1308 0.950 . S
C1316 C1317 1.386 . S
C1316 C1318 1.391 . S
C1317 C1316 1.386 . S
C1317 C1321 1.393 . S
C1318 H1310 0.950 1_556 S
C1318 C1316 1.391 . S
C1318 C1319 1.400 . S
C1319 C1318 1.400 . S
C1319 C1320 1.398 . S
C1319 C1325 1.491 1_556 S
C1320 H1311 0.950 . S
C1320 C1319 1.398 . S
C1320 C1321 1.391 . S
C1321 H1309 0.950 . S
C1321 C1317 1.393 . S
C1321 C1320 1.391 . S
C1322 H1312 0.950 . S
C1322 C1323 1.386 . S
C1322 C1324 1.391 . S
C1323 C1322 1.386 . S
C1323 C1327 1.393 . S
C1324 H1313 0.950 1_554 S
C1324 C1322 1.391 . S
C1324 C1325 1.400 . S
C1325 C1319 1.491 1_554 S
C1325 C1324 1.400 . S
C1325 C1326 1.398 . S
C1326 H1314 0.950 . S
C1326 C1325 1.398 . S
C1326 C1327 1.391 . S
C1327 H1315 0.950 . S
C1327 C1323 1.393 . S
C1327 C1326 1.391 . S
C537 C8 2.022 . S
C543 N104 1.854 . S
C557 N5 1.872 . S
C563 C41 2.026 . S
C577 C74 2.027 . S
C583 N38 1.872 . S
C597 N71 1.851 . S
C603 C107 2.021 . S
C617 N170 1.842 . S
C623 C140 2.019 . S
C637 N203 1.844 . S
C643 C173 2.020 . S
C657 N236 1.843 . S
C663 C206 2.020 . S
C677 C239 2.019 . S
C683 N137 1.842 . S
C697 C272 2.021 . S
C703 N368 1.852 . S
C717 C305 2.027 . S
C723 N269 1.871 . S
C737 C338 2.020 . S
C743 N302 1.842 . S
C757 N335 1.851 . S
C763 C371 2.022 . S
C777 N434 1.858 . S
C783 C404 2.023 . S
C797 C437 2.025 . S
C803 N467 1.862 . S
C817 C470 2.025 . S
C823 N500 1.865 . S
C837 C503 2.022 . S
C843 N401 1.850 . S
C857 C28 0.618 . S
C863 C193 0.603 . S
C877 C61 0.617 . S
C883 C226 0.603 . S
C897 C259 0.585 . S
C903 C94 0.610 . S
C917 C127 0.599 . S
C923 C160 0.592 . S
C937 C292 0.599 . S
C943 C457 0.620 . S
C957 C325 0.606 . S
C963 C490 0.615 . S
C977 C358 0.615 . S
C983 C523 0.606 . S
C997 C391 0.597 . S
C1003 C424 0.621 . S
C1017 C17 0.996 . S
C1023 C512 1.004 . S
C1037 C413 0.974 . S
C1043 C50 0.996 . S
C1057 C83 0.984 . S
C1063 C446 1.002 . S
C1077 C116 0.963 . S
C1083 C479 0.972 . S
C1097 C314 0.984 . S
C1103 C149 1.002 . S
C1117 C347 1.002 . S
C1123 C182 1.000 . S
C1137 C380 0.985 . S
C1143 C215 1.002 . S
C1157 C281 1.002 . S
C1163 C248 1.001 . S
C1177 N14 0.820 . S
C1183 N146 0.849 . S
C1197 N47 0.836 . S
C1203 N179 0.873 . S
C1217 N80 0.868 . S
C1223 N212 0.829 . S
C1237 N245 0.872 . S
C1243 N113 0.835 . S
C1257 N278 0.874 . S
C1263 N410 0.838 . S
C1277 N311 0.848 . S
C1283 N443 0.877 . S
C1297 N476 0.850 . S
C1303 N344 0.877 . S
C1317 N377 0.845 . S
C1323 N509 0.877 . S
