# Generated by pormake.
# Topology wlg, (5)-cn, num edge types: 1
# Building blocks:
#     Node 0, Type 0, BuildingBlock: XOMCOT_clean_sbu_0, # of connection points: 5
#     Node 1, Type 0, BuildingBlock: XOMCOT_clean_sbu_0, # of connection points: 5
#     Node 2, Type 0, BuildingBlock: XOMCOT_clean_sbu_0, # of connection points: 5
#     Node 3, Type 0, BuildingBlock: XOMCOT_clean_sbu_0, # of connection points: 5
#     Node 4, Type 0, BuildingBlock: XOMCOT_clean_sbu_0, # of connection points: 5
#     Node 5, Type 0, BuildingBlock: XOMCOT_clean_sbu_0, # of connection points: 5
#     Node 6, Type 0, BuildingBlock: XOMCOT_clean_sbu_0, # of connection points: 5
#     Node 7, Type 0, BuildingBlock: XOMCOT_clean_sbu_0, # of connection points: 5
#     Node 8, Type 0, BuildingBlock: XOMCOT_clean_sbu_0, # of connection points: 5
#     Node 9, Type 0, BuildingBlock: XOMCOT_clean_sbu_0, # of connection points: 5
#     Node 10, Type 0, BuildingBlock: XOMCOT_clean_sbu_0, # of connection points: 5
#     Node 11, Type 0, BuildingBlock: XOMCOT_clean_sbu_0, # of connection points: 5
#     Node 12, Type 0, BuildingBlock: XOMCOT_clean_sbu_0, # of connection points: 5
#     Node 13, Type 0, BuildingBlock: XOMCOT_clean_sbu_0, # of connection points: 5
#     Node 14, Type 0, BuildingBlock: XOMCOT_clean_sbu_0, # of connection points: 5
#     Node 15, Type 0, BuildingBlock: XOMCOT_clean_sbu_0, # of connection points: 5
#     Node 16, Type 0, BuildingBlock: XOMCOT_clean_sbu_0, # of connection points: 5
#     Node 17, Type 0, BuildingBlock: XOMCOT_clean_sbu_0, # of connection points: 5
#     Node 18, Type 0, BuildingBlock: XOMCOT_clean_sbu_0, # of connection points: 5
#     Node 19, Type 0, BuildingBlock: XOMCOT_clean_sbu_0, # of connection points: 5
#     Node 20, Type 0, BuildingBlock: XOMCOT_clean_sbu_0, # of connection points: 5
#     Node 21, Type 0, BuildingBlock: XOMCOT_clean_sbu_0, # of connection points: 5
#     Node 22, Type 0, BuildingBlock: XOMCOT_clean_sbu_0, # of connection points: 5
#     Node 23, Type 0, BuildingBlock: XOMCOT_clean_sbu_0, # of connection points: 5
#     Node 24, Type 0, BuildingBlock: XOMCOT_clean_sbu_0, # of connection points: 5
#     Node 25, Type 0, BuildingBlock: XOMCOT_clean_sbu_0, # of connection points: 5
#     Node 26, Type 0, BuildingBlock: XOMCOT_clean_sbu_0, # of connection points: 5
#     Node 27, Type 0, BuildingBlock: XOMCOT_clean_sbu_0, # of connection points: 5
#     Node 28, Type 0, BuildingBlock: XOMCOT_clean_sbu_0, # of connection points: 5
#     Node 29, Type 0, BuildingBlock: XOMCOT_clean_sbu_0, # of connection points: 5
#     Node 30, Type 0, BuildingBlock: XOMCOT_clean_sbu_0, # of connection points: 5
#     Node 31, Type 0, BuildingBlock: XOMCOT_clean_sbu_0, # of connection points: 5
#     Node 32, Type 0, BuildingBlock: XOMCOT_clean_sbu_0, # of connection points: 5
#     Node 33, Type 0, BuildingBlock: XOMCOT_clean_sbu_0, # of connection points: 5
#     Node 34, Type 0, BuildingBlock: XOMCOT_clean_sbu_0, # of connection points: 5
#     Node 35, Type 0, BuildingBlock: XOMCOT_clean_sbu_0, # of connection points: 5
#     Edge 36, Type (0, 0), BuildingBlock: UVAHIK_clean_linker_0, # of connection points: 2
#     Edge 37, Type (0, 0), BuildingBlock: UVAHIK_clean_linker_0, # of connection points: 2
#     Edge 38, Type (0, 0), BuildingBlock: UVAHIK_clean_linker_0, # of connection points: 2
#     Edge 39, Type (0, 0), BuildingBlock: UVAHIK_clean_linker_0, # of connection points: 2
#     Edge 40, Type (0, 0), BuildingBlock: UVAHIK_clean_linker_0, # of connection points: 2
#     Edge 41, Type (0, 0), BuildingBlock: UVAHIK_clean_linker_0, # of connection points: 2
#     Edge 42, Type (0, 0), BuildingBlock: UVAHIK_clean_linker_0, # of connection points: 2
#     Edge 43, Type (0, 0), BuildingBlock: UVAHIK_clean_linker_0, # of connection points: 2
#     Edge 44, Type (0, 0), BuildingBlock: UVAHIK_clean_linker_0, # of connection points: 2
#     Edge 45, Type (0, 0), BuildingBlock: UVAHIK_clean_linker_0, # of connection points: 2
#     Edge 46, Type (0, 0), BuildingBlock: UVAHIK_clean_linker_0, # of connection points: 2
#     Edge 47, Type (0, 0), BuildingBlock: UVAHIK_clean_linker_0, # of connection points: 2
#     Edge 48, Type (0, 0), BuildingBlock: UVAHIK_clean_linker_0, # of connection points: 2
#     Edge 49, Type (0, 0), BuildingBlock: UVAHIK_clean_linker_0, # of connection points: 2
#     Edge 50, Type (0, 0), BuildingBlock: UVAHIK_clean_linker_0, # of connection points: 2
#     Edge 51, Type (0, 0), BuildingBlock: UVAHIK_clean_linker_0, # of connection points: 2
#     Edge 52, Type (0, 0), BuildingBlock: UVAHIK_clean_linker_0, # of connection points: 2
#     Edge 53, Type (0, 0), BuildingBlock: UVAHIK_clean_linker_0, # of connection points: 2
#     Edge 54, Type (0, 0), BuildingBlock: UVAHIK_clean_linker_0, # of connection points: 2
#     Edge 55, Type (0, 0), BuildingBlock: UVAHIK_clean_linker_0, # of connection points: 2
#     Edge 56, Type (0, 0), BuildingBlock: UVAHIK_clean_linker_0, # of connection points: 2
#     Edge 57, Type (0, 0), BuildingBlock: UVAHIK_clean_linker_0, # of connection points: 2
#     Edge 58, Type (0, 0), BuildingBlock: UVAHIK_clean_linker_0, # of connection points: 2
#     Edge 59, Type (0, 0), BuildingBlock: UVAHIK_clean_linker_0, # of connection points: 2
#     Edge 60, Type (0, 0), BuildingBlock: UVAHIK_clean_linker_0, # of connection points: 2
#     Edge 61, Type (0, 0), BuildingBlock: UVAHIK_clean_linker_0, # of connection points: 2
#     Edge 62, Type (0, 0), BuildingBlock: UVAHIK_clean_linker_0, # of connection points: 2
#     Edge 63, Type (0, 0), BuildingBlock: UVAHIK_clean_linker_0, # of connection points: 2
#     Edge 64, Type (0, 0), BuildingBlock: UVAHIK_clean_linker_0, # of connection points: 2
#     Edge 65, Type (0, 0), BuildingBlock: UVAHIK_clean_linker_0, # of connection points: 2
#     Edge 66, Type (0, 0), BuildingBlock: UVAHIK_clean_linker_0, # of connection points: 2
#     Edge 67, Type (0, 0), BuildingBlock: UVAHIK_clean_linker_0, # of connection points: 2
#     Edge 68, Type (0, 0), BuildingBlock: UVAHIK_clean_linker_0, # of connection points: 2
#     Edge 69, Type (0, 0), BuildingBlock: UVAHIK_clean_linker_0, # of connection points: 2
#     Edge 70, Type (0, 0), BuildingBlock: UVAHIK_clean_linker_0, # of connection points: 2
#     Edge 71, Type (0, 0), BuildingBlock: UVAHIK_clean_linker_0, # of connection points: 2
#     Edge 72, Type (0, 0), BuildingBlock: UVAHIK_clean_linker_0, # of connection points: 2
#     Edge 73, Type (0, 0), BuildingBlock: UVAHIK_clean_linker_0, # of connection points: 2
#     Edge 74, Type (0, 0), BuildingBlock: UVAHIK_clean_linker_0, # of connection points: 2
#     Edge 75, Type (0, 0), BuildingBlock: UVAHIK_clean_linker_0, # of connection points: 2
#     Edge 76, Type (0, 0), BuildingBlock: UVAHIK_clean_linker_0, # of connection points: 2
#     Edge 77, Type (0, 0), BuildingBlock: UVAHIK_clean_linker_0, # of connection points: 2
#     Edge 78, Type (0, 0), BuildingBlock: UVAHIK_clean_linker_0, # of connection points: 2
#     Edge 79, Type (0, 0), BuildingBlock: UVAHIK_clean_linker_0, # of connection points: 2
#     Edge 80, Type (0, 0), BuildingBlock: UVAHIK_clean_linker_0, # of connection points: 2
#     Edge 81, Type (0, 0), BuildingBlock: UVAHIK_clean_linker_0, # of connection points: 2
#     Edge 82, Type (0, 0), BuildingBlock: UVAHIK_clean_linker_0, # of connection points: 2
#     Edge 83, Type (0, 0), BuildingBlock: UVAHIK_clean_linker_0, # of connection points: 2
#     Edge 84, Type (0, 0), BuildingBlock: UVAHIK_clean_linker_0, # of connection points: 2
#     Edge 85, Type (0, 0), BuildingBlock: UVAHIK_clean_linker_0, # of connection points: 2
#     Edge 86, Type (0, 0), BuildingBlock: UVAHIK_clean_linker_0, # of connection points: 2
#     Edge 87, Type (0, 0), BuildingBlock: UVAHIK_clean_linker_0, # of connection points: 2
#     Edge 88, Type (0, 0), BuildingBlock: UVAHIK_clean_linker_0, # of connection points: 2
#     Edge 89, Type (0, 0), BuildingBlock: UVAHIK_clean_linker_0, # of connection points: 2
#     Edge 90, Type (0, 0), BuildingBlock: UVAHIK_clean_linker_0, # of connection points: 2
#     Edge 91, Type (0, 0), BuildingBlock: UVAHIK_clean_linker_0, # of connection points: 2
#     Edge 92, Type (0, 0), BuildingBlock: UVAHIK_clean_linker_0, # of connection points: 2
#     Edge 93, Type (0, 0), BuildingBlock: UVAHIK_clean_linker_0, # of connection points: 2
#     Edge 94, Type (0, 0), BuildingBlock: UVAHIK_clean_linker_0, # of connection points: 2
#     Edge 95, Type (0, 0), BuildingBlock: UVAHIK_clean_linker_0, # of connection points: 2
#     Edge 96, Type (0, 0), BuildingBlock: UVAHIK_clean_linker_0, # of connection points: 2
#     Edge 97, Type (0, 0), BuildingBlock: UVAHIK_clean_linker_0, # of connection points: 2
#     Edge 98, Type (0, 0), BuildingBlock: UVAHIK_clean_linker_0, # of connection points: 2
#     Edge 99, Type (0, 0), BuildingBlock: UVAHIK_clean_linker_0, # of connection points: 2
#     Edge 100, Type (0, 0), BuildingBlock: UVAHIK_clean_linker_0, # of connection points: 2
#     Edge 101, Type (0, 0), BuildingBlock: UVAHIK_clean_linker_0, # of connection points: 2
#     Edge 102, Type (0, 0), BuildingBlock: UVAHIK_clean_linker_0, # of connection points: 2
#     Edge 103, Type (0, 0), BuildingBlock: UVAHIK_clean_linker_0, # of connection points: 2
#     Edge 104, Type (0, 0), BuildingBlock: UVAHIK_clean_linker_0, # of connection points: 2
#     Edge 105, Type (0, 0), BuildingBlock: UVAHIK_clean_linker_0, # of connection points: 2
#     Edge 106, Type (0, 0), BuildingBlock: UVAHIK_clean_linker_0, # of connection points: 2
#     Edge 107, Type (0, 0), BuildingBlock: UVAHIK_clean_linker_0, # of connection points: 2
#     Edge 108, Type (0, 0), BuildingBlock: UVAHIK_clean_linker_0, # of connection points: 2
#     Edge 109, Type (0, 0), BuildingBlock: UVAHIK_clean_linker_0, # of connection points: 2
#     Edge 110, Type (0, 0), BuildingBlock: UVAHIK_clean_linker_0, # of connection points: 2
#     Edge 111, Type (0, 0), BuildingBlock: UVAHIK_clean_linker_0, # of connection points: 2
#     Edge 112, Type (0, 0), BuildingBlock: UVAHIK_clean_linker_0, # of connection points: 2
#     Edge 113, Type (0, 0), BuildingBlock: UVAHIK_clean_linker_0, # of connection points: 2
#     Edge 114, Type (0, 0), BuildingBlock: UVAHIK_clean_linker_0, # of connection points: 2
#     Edge 115, Type (0, 0), BuildingBlock: UVAHIK_clean_linker_0, # of connection points: 2
#     Edge 116, Type (0, 0), BuildingBlock: UVAHIK_clean_linker_0, # of connection points: 2
#     Edge 117, Type (0, 0), BuildingBlock: UVAHIK_clean_linker_0, # of connection points: 2
#     Edge 118, Type (0, 0), BuildingBlock: UVAHIK_clean_linker_0, # of connection points: 2
#     Edge 119, Type (0, 0), BuildingBlock: UVAHIK_clean_linker_0, # of connection points: 2
#     Edge 120, Type (0, 0), BuildingBlock: UVAHIK_clean_linker_0, # of connection points: 2
#     Edge 121, Type (0, 0), BuildingBlock: UVAHIK_clean_linker_0, # of connection points: 2
#     Edge 122, Type (0, 0), BuildingBlock: UVAHIK_clean_linker_0, # of connection points: 2
#     Edge 123, Type (0, 0), BuildingBlock: UVAHIK_clean_linker_0, # of connection points: 2
#     Edge 124, Type (0, 0), BuildingBlock: UVAHIK_clean_linker_0, # of connection points: 2
#     Edge 125, Type (0, 0), BuildingBlock: UVAHIK_clean_linker_0, # of connection points: 2
# Relax obj value: 0.153
# Max RMSD: 0.137
# Mean RMSD: 0.132
data_MOF--net-wlg--node1-XOMCOT_clean_sbu_0--edge1-UVAHIK_clean_linker_0
_symmetry_space_group_name_H-M    P1
_symmetry_Int_Tables_number       1
_symmetry_cell_setting            triclinic
loop_
_symmetry_equiv_pos_as_xyz
'x, y, z'
_cell_length_a     67.552305
_cell_length_b     67.610783
_cell_length_c     96.770832
_cell_angle_alpha  90.129345
_cell_angle_beta   89.969243
_cell_angle_gamma 119.97004
loop_
_atom_site_label
_atom_site_type_symbol
_atom_site_fract_x
_atom_site_fract_y
_atom_site_fract_z
_atom_type_partial_charge
Co0 Co 0.99166 0.16375 0.14952 0.0
C1 C 0.947 0.1631 0.15333 0.0
C2 C 0.95259 0.15527 0.13268 0.0
C3 C 0.93248 0.15557 0.13288 0.0
N4 N 0.96177 0.15988 0.14547 0.0
N5 N 0.92896 0.16059 0.14581 0.0
H6 H 0.94969 0.16795 0.16411 0.0
H7 H 0.96033 0.15255 0.12364 0.0
C8 C 0.99422 0.12937 0.12945 0.0
O9 O 0.01659 0.13932 0.12899 0.0
N10 N 0.02167 0.16783 0.15329 0.0
C11 C 0.04163 0.18769 0.15283 0.0
C12 C 0.05923 0.18323 0.15458 0.0
C13 C 0.02734 0.15171 0.15609 0.0
N14 N 0.05025 0.16055 0.1564 0.0
C15 C 1.00323 0.20749 0.13956 0.0
C16 C 0.026 0.2077 0.11581 0.0
C17 C 0.02549 0.2276 0.11945 0.0
C18 C 0.01367 0.22711 0.13148 0.0
C19 C 0.01544 0.18838 0.12432 0.0
N20 N 0.00457 0.1886 0.13617 0.0
H21 H 0.99433 0.20763 0.1488 0.0
H22 H 0.01649 0.1736 0.12145 0.0
H23 H 0.04338 0.20421 0.15081 0.0
H24 H 0.01499 0.13366 0.15669 0.0
O25 O 0.99458 0.18129 0.16604 0.0
O26 O 0.97967 0.14373 0.16529 0.0
O27 O 0.98425 0.13884 0.13549 0.0
C28 C 0.98537 0.16194 0.17263 0.0
H29 H 0.92133 0.15244 0.12412 0.0
H30 H 0.07727 0.19565 0.15404 0.0
H31 H 0.03457 0.20704 0.10651 0.0
H32 H 0.01296 0.24198 0.13493 0.0
Co33 Co 0.84307 0.82897 0.16303 0.0
C34 C 0.83304 0.78065 0.16673 0.0
C35 C 0.86275 0.80507 0.17787 0.0
C36 C 0.85988 0.78378 0.18012 0.0
N37 N 0.84577 0.80323 0.16964 0.0
N38 N 0.84126 0.76845 0.17312 0.0
H39 H 0.8183 0.77316 0.16001 0.0
H40 H 0.87678 0.82085 0.18176 0.0
C41 C 0.87615 0.84841 0.13898 0.0
O42 O 0.8645 0.85688 0.13309 0.0
N43 N 0.84109 0.85514 0.15667 0.0
C44 C 0.82366 0.85552 0.1501 0.0
C45 C 0.83076 0.87757 0.146 0.0
C46 C 0.85822 0.87709 0.15691 0.0
N47 N 0.85251 0.89102 0.15023 0.0
C48 C 0.79649 0.79803 0.1562 0.0
C49 C 0.80181 0.79393 0.12825 0.0
C50 C 0.77963 0.784 0.13371 0.0
C51 C 0.77722 0.78571 0.14795 0.0
C52 C 0.82079 0.80598 0.13693 0.0
N53 N 0.818 0.80877 0.15067 0.0
H54 H 0.79385 0.79933 0.16705 0.0
H55 H 0.83747 0.81311 0.13242 0.0
H56 H 0.80717 0.84085 0.14793 0.0
H57 H 0.87512 0.88245 0.16092 0.0
O58 O 0.82541 0.8272 0.17926 0.0
O59 O 0.86302 0.84759 0.17786 0.0
O60 O 0.86813 0.83514 0.14941 0.0
C61 C 0.84475 0.84053 0.18533 0.0
H62 H 0.8712 0.77997 0.186 0.0
H63 H 0.8209 0.88319 0.14007 0.0
H64 H 0.80448 0.79253 0.11733 0.0
H65 H 0.76049 0.77839 0.15267 0.0
Co66 Co 0.17836 0.00565 0.16817 0.0
C67 C 0.22272 0.04875 0.17041 0.0
C68 C 0.20717 0.0379 0.19033 0.0
C69 C 0.22743 0.05799 0.19189 0.0
N70 N 0.20419 0.0319 0.17685 0.0
N71 N 0.23732 0.06483 0.17938 0.0
H72 H 0.22543 0.04915 0.15937 0.0
H73 H 0.19545 0.02882 0.19862 0.0
C74 C 0.16023 0.02622 0.14703 0.0
O75 O 0.14978 0.00747 0.13961 0.0
N76 N 0.15265 0.97938 0.15969 0.0
C77 C 0.15263 0.96105 0.15416 0.0
C78 C 0.13068 0.94534 0.15025 0.0
C79 C 0.13058 0.9742 0.15956 0.0
N80 N 0.11691 0.95375 0.15355 0.0
C81 C 0.21391 0.99704 0.16052 0.0
C82 C 0.20963 0.99831 0.13221 0.0
C83 C 0.22333 0.9899 0.13757 0.0
C84 C 0.22598 0.99013 0.15195 0.0
C85 C 0.1978 0.00505 0.14119 0.0
N86 N 0.19925 0.00341 0.15517 0.0
H87 H 0.21551 0.99621 0.17158 0.0
H88 H 0.1868 0.01055 0.13679 0.0
H89 H 0.16746 0.95902 0.15315 0.0
H90 H 0.1247 0.98527 0.16367 0.0
O91 O 0.17839 0.98558 0.18243 0.0
O92 O 0.15869 0.0037 0.18323 0.0
O93 O 0.17397 0.02821 0.15674 0.0
C94 C 0.1642 0.98984 0.18912 0.0
H95 H 0.234 0.06711 0.20152 0.0
H96 H 0.12531 0.92914 0.1452 0.0
H97 H 0.20752 0.99907 0.12117 0.0
H98 H 0.2363 0.98383 0.15666 0.0
Co99 Co 0.15946 0.99111 0.3595 0.0
C100 C 0.16759 0.95149 0.35822 0.0
C101 C 0.1332 0.94221 0.3637 0.0
C102 C 0.13466 0.92276 0.36324 0.0
N103 N 0.15383 0.96026 0.36078 0.0
N104 N 0.1562 0.92852 0.3598 0.0
H105 H 0.18528 0.96155 0.35507 0.0
H106 H 0.11781 0.94297 0.36549 0.0
C107 C 0.13063 0.99361 0.38336 0.0
O108 O 0.14347 0.01569 0.38538 0.0
N109 N 0.16383 0.02169 0.35807 0.0
C110 C 0.1832 0.0422 0.35792 0.0
C111 C 0.17746 0.05908 0.35706 0.0
C112 C 0.14674 0.02645 0.35686 0.0
N113 N 0.1545 0.04912 0.35655 0.0
C114 C 0.20673 0.01205 0.36653 0.0
C115 C 0.20227 0.00609 0.3948 0.0
C116 C 0.22428 0.01842 0.38909 0.0
C117 C 0.22626 0.02092 0.37474 0.0
C118 C 0.18297 0.99765 0.38616 0.0
N119 N 0.18536 1.00147 0.37221 0.0
H120 H 0.20902 0.01449 0.35553 0.0
H121 H 0.16629 0.98803 0.39077 0.0
H122 H 0.20035 0.04506 0.35851 0.0
H123 H 0.12886 0.01344 0.35659 0.0
O124 O 0.17536 0.99517 0.34219 0.0
O125 O 0.13818 0.98178 0.34417 0.0
O126 O 0.13625 0.98313 0.37463 0.0
C127 C 0.15563 0.98718 0.33618 0.0
H128 H 0.12063 0.90552 0.36466 0.0
H129 H 0.18927 0.07729 0.3573 0.0
H130 H 0.19999 0.00338 0.40585 0.0
H131 H 0.24289 0.02974 0.36983 0.0
Co132 Co 0.99596 0.17414 0.34184 0.0
C133 C 0.04366 0.21252 0.34008 0.0
C134 C 0.02548 0.20921 0.32126 0.0
C135 C 0.04758 0.22663 0.3197 0.0
N136 N 0.02299 0.20006 0.33398 0.0
N137 N 0.05899 0.22866 0.3315 0.0
H138 H 0.0475 0.20972 0.3505 0.0
H139 H 0.01232 0.20399 0.31351 0.0
C140 C 0.01442 0.15317 0.36271 0.0
O141 O 0.99512 0.14258 0.36957 0.0
N142 N 0.96885 0.1483 0.34942 0.0
C143 C 0.95078 0.14841 0.35528 0.0
C144 C 0.93493 0.12639 0.35896 0.0
C145 C 0.9633 0.12616 0.34906 0.0
N146 N 0.943 0.11252 0.3552 0.0
C147 C 0.9908 0.21131 0.35088 0.0
C148 C 0.98984 0.20386 0.37898 0.0
C149 C 0.98446 0.22017 0.37416 0.0
C150 C 0.98572 0.22432 0.35992 0.0
C151 C 0.99507 0.19137 0.36957 0.0
N152 N 0.99462 0.19453 0.35567 0.0
H153 H 0.99076 0.21413 0.33989 0.0
H154 H 0.99847 0.17866 0.37359 0.0
H155 H 0.94926 0.16343 0.35687 0.0
H156 H 0.97431 0.12029 0.34483 0.0
O157 O 0.97674 0.17645 0.32783 0.0
O158 O 0.99376 0.15581 0.32592 0.0
O159 O 0.01723 0.16724 0.35303 0.0
C160 C 0.98074 0.16274 0.32039 0.0
H161 H 0.05463 0.23732 0.31067 0.0
H162 H 0.91908 0.12111 0.36443 0.0
H163 H 0.98953 0.2004 0.38992 0.0
H164 H 0.98169 0.23673 0.3557 0.0
Co165 Co 0.82922 0.84062 0.35561 0.0
C166 C 0.78129 0.82656 0.34649 0.0
C167 C 0.80571 0.86192 0.34296 0.0
C168 C 0.78501 0.85761 0.33786 0.0
N169 N 0.80356 0.8425 0.34824 0.0
N170 N 0.76974 0.83548 0.34009 0.0
H171 H 0.77366 0.80892 0.3496 0.0
H172 H 0.8214 0.8782 0.3428 0.0
C173 C 0.84697 0.87477 0.37929 0.0
O174 O 0.85673 0.86463 0.38552 0.0
N175 N 0.85567 0.8398 0.36276 0.0
C176 C 0.85644 0.8233 0.37016 0.0
C177 C 0.87863 0.83122 0.37443 0.0
C178 C 0.87751 0.85718 0.36226 0.0
N179 N 0.89177 0.85254 0.36951 0.0
C180 C 0.79917 0.79391 0.3624 0.0
C181 C 0.79288 0.79923 0.39005 0.0
C182 C 0.78408 0.77704 0.38473 0.0
C183 C 0.7868 0.77466 0.3706 0.0
C184 C 0.80512 0.81823 0.3814 0.0
N185 N 0.80883 0.81545 0.36781 0.0
H186 H 0.80122 0.79124 0.35164 0.0
H187 H 0.81185 0.83495 0.38585 0.0
H188 H 0.84196 0.80692 0.37275 0.0
H189 H 0.88258 0.87355 0.35758 0.0
O190 O 0.82888 0.82313 0.33961 0.0
O191 O 0.84796 0.86077 0.34094 0.0
O192 O 0.8337 0.86547 0.36897 0.0
C193 C 0.84183 0.84254 0.33356 0.0
H194 H 0.78128 0.86987 0.3331 0.0
H195 H 0.88456 0.82217 0.38089 0.0
H196 H 0.79103 0.80196 0.40089 0.0
H197 H 0.77964 0.75795 0.36585 0.0
Co198 Co 0.01692 0.84468 0.85554 0.0
C199 C 0.06218 0.84637 0.85494 0.0
C200 C 0.05377 0.854 0.87489 0.0
C201 C 0.07424 0.85443 0.8759 0.0
N202 N 0.04614 0.84901 0.86176 0.0
N203 N 0.07954 0.8496 0.86339 0.0
H204 H 0.06101 0.84161 0.84418 0.0
H205 H 0.0449 0.85678 0.8833 0.0
C206 C 0.00593 0.87337 0.87497 0.0
O207 O 0.98389 0.85869 0.87502 0.0
N208 N 0.98758 0.84029 0.84944 0.0
C209 C 0.96759 0.82046 0.84877 0.0
C210 C 0.95037 0.82517 0.84613 0.0
C211 C 0.98236 0.85668 0.84645 0.0
N212 N 0.95959 0.84799 0.84496 0.0
C213 C 0.99801 0.79779 0.86264 0.0
C214 C 0.98525 0.79964 0.88949 0.0
C215 C 0.98057 0.77845 0.88405 0.0
C216 C 0.98723 0.77785 0.87043 0.0
C217 C 0.99612 0.81936 0.88128 0.0
N218 N 1.0019 0.81823 0.86787 0.0
H219 H 1.00289 0.79649 0.85224 0.0
H220 H 1.00017 0.83536 0.88596 0.0
H221 H 0.96534 0.80375 0.85072 0.0
H222 H 0.99471 0.87475 0.84682 0.0
O223 O 0.01827 0.82951 0.8388 0.0
O224 O 0.03162 0.86662 0.84083 0.0
O225 O 0.02003 0.86797 0.86982 0.0
C226 C 0.02804 0.8495 0.833 0.0
H227 H 0.08449 0.85814 0.88516 0.0
H228 H 0.93229 0.81279 0.84581 0.0
H229 H 0.98093 0.80109 0.90009 0.0
H230 H 0.98384 0.76196 0.86564 0.0
Co231 Co 0.17619 0.17208 0.83251 0.0
C232 C 0.17569 0.21581 0.83041 0.0
C233 C 0.20921 0.22012 0.8277 0.0
C234 C 0.21096 0.24123 0.82721 0.0
N235 N 0.18719 0.20423 0.82983 0.0
N236 N 0.18994 0.23853 0.82892 0.0
H237 H 0.15753 0.20795 0.83234 0.0
H238 H 0.22313 0.21661 0.82688 0.0
C239 C 0.1437 0.15958 0.85661 0.0
O240 O 0.15399 0.15002 0.86295 0.0
N241 N 0.1652 0.13948 0.83486 0.0
C242 C 0.17697 0.12857 0.8322 0.0
C243 C 0.16296 0.10553 0.83419 0.0
C244 C 0.14376 0.12251 0.83782 0.0
N245 N 0.14216 0.10178 0.83785 0.0
C246 C 0.21715 0.17768 0.84504 0.0
C247 C 0.21642 0.20115 0.86824 0.0
C248 C 0.23529 0.19806 0.86617 0.0
C249 C 0.23538 0.18609 0.85434 0.0
C250 C 0.19855 0.19255 0.85859 0.0
N251 N 0.19868 0.18035 0.84733 0.0
H252 H 0.21877 0.17034 0.83555 0.0
H253 H 0.18517 0.19668 0.85992 0.0
H254 H 0.19431 0.13642 0.82853 0.0
H255 H 0.12934 0.12499 0.83953 0.0
O256 O 0.19455 0.1727 0.81693 0.0
O257 O 0.15868 0.16514 0.81568 0.0
O258 O 0.15164 0.17014 0.84522 0.0
C259 C 0.17673 0.16759 0.80932 0.0
H260 H 0.22654 0.2574 0.82581 0.0
H261 H 0.16774 0.09252 0.83312 0.0
H262 H 0.21561 0.21053 0.8771 0.0
H263 H 0.24995 0.18416 0.85185 0.0
Co264 Co 0.83736 0.00903 0.83742 0.0
C265 C 0.79471 0.96438 0.83428 0.0
C266 C 0.80181 0.98442 0.81589 0.0
C267 C 0.78155 0.96443 0.81408 0.0
N268 N 0.81025 0.98447 0.82855 0.0
N269 N 0.777 0.95183 0.82564 0.0
H270 H 0.79595 0.95941 0.84472 0.0
H271 H 0.80928 0.99804 0.80843 0.0
C272 C 0.85397 0.98577 0.85749 0.0
O273 O 0.86535 0.0042 0.86508 0.0
N274 N 0.86429 0.03381 0.84608 0.0
C275 C 0.8655 0.05171 0.85301 0.0
C276 C 0.88784 0.06621 0.85678 0.0
C277 C 0.8861 0.03822 0.8452 0.0
N278 N 0.90078 0.05767 0.85193 0.0
C279 C 0.80294 0.01849 0.84579 0.0
C280 C 0.80757 0.01689 0.87406 0.0
C281 C 0.7941 0.02563 0.86883 0.0
C282 C 0.79116 0.02547 0.8545 0.0
C283 C 0.8191 0.00995 0.8649 0.0
N284 N 0.8175 0.01184 0.85094 0.0
H285 H 0.8011 0.01939 0.83476 0.0
H286 H 0.83011 0.00432 0.86913 0.0
H287 H 0.85127 0.05441 0.85497 0.0
H288 H 0.89097 0.02708 0.84004 0.0
O289 O 0.83861 0.0308 0.82401 0.0
O290 O 0.85576 0.01033 0.82178 0.0
O291 O 0.84039 0.98486 0.84798 0.0
C292 C 0.85129 0.0254 0.81658 0.0
H293 H 0.77097 0.9596 0.80491 0.0
H294 H 0.89413 0.08213 0.86236 0.0
H295 H 0.81017 0.01653 0.88507 0.0
H296 H 0.78037 0.03137 0.84999 0.0
Co297 Co 0.83889 0.00702 0.64663 0.0
C298 C 0.83246 0.04701 0.65246 0.0
C299 C 0.84475 0.04749 0.63195 0.0
C300 C 0.84173 0.06599 0.63347 0.0
N301 N 0.839 0.03552 0.64384 0.0
N302 N 0.83399 0.06568 0.64635 0.0
H303 H 0.8262 0.04167 0.66285 0.0
H304 H 0.8505 0.04303 0.62265 0.0
C305 C 0.8719 0.00734 0.62491 0.0
O306 O 0.86023 0.98519 0.62278 0.0
N307 N 0.83877 0.97851 0.6494 0.0
C308 C 0.82045 0.95733 0.65027 0.0
C309 C 0.82787 0.94194 0.65223 0.0
C310 C 0.85706 0.97572 0.65132 0.0
N311 N 0.85089 0.95349 0.65274 0.0
C312 C 0.79172 0.9823 0.6392 0.0
C313 C 0.79656 0.98387 0.61084 0.0
C314 C 0.77447 0.97288 0.6165 0.0
C315 C 0.7723 0.97224 0.63088 0.0
C316 C 0.81573 0.99346 0.61961 0.0
N317 N 0.8132 0.99237 0.63367 0.0
H318 H 0.78925 0.98173 0.65022 0.0
H319 H 0.83242 1.00214 0.61496 0.0
H320 H 0.80285 0.9531 0.64947 0.0
H321 H 0.87455 0.98966 0.65133 0.0
O322 O 0.82224 1.00182 0.66384 0.0
O323 O 0.85992 0.02016 0.6619 0.0
O324 O 0.86353 0.01719 0.63216 0.0
C325 C 0.84212 0.01261 0.66983 0.0
H326 H 0.84514 0.07879 0.6257 0.0
H327 H 0.81715 0.92356 0.65274 0.0
H328 H 0.799 0.98496 0.59975 0.0
H329 H 0.75561 0.96439 0.63571 0.0
Co330 Co 0.01217 0.83027 0.66646 0.0
C331 C 0.96797 0.78767 0.67104 0.0
C332 C 0.98369 0.80324 0.69032 0.0
C333 C 0.96341 0.7838 0.69303 0.0
N334 N 0.98679 0.80572 0.67649 0.0
N335 N 0.95351 0.77391 0.68095 0.0
H336 H 0.96502 0.78463 0.66005 0.0
H337 H 0.99492 0.81472 0.69813 0.0
C338 C 0.99009 0.84823 0.64621 0.0
O339 O 0.00788 0.85711 0.63796 0.0
N340 N 0.03762 0.85479 0.65669 0.0
C341 C 0.05416 0.85369 0.64951 0.0
C342 C 0.06894 0.87502 0.64425 0.0
C343 C 0.04315 0.87692 0.65623 0.0
N344 N 0.06178 0.88949 0.64835 0.0
C345 C 0.018 0.79318 0.65782 0.0
C346 C 0.01107 0.79538 0.62988 0.0
C347 C 0.01984 0.78157 0.63437 0.0
C348 C 0.02243 0.77987 0.64861 0.0
C349 C 0.00662 0.8082 0.63945 0.0
N350 N 0.01121 0.80793 0.65317 0.0
H351 H 0.02104 0.79237 0.6687 0.0
H352 H 1.00036 0.81885 0.6356 0.0
H353 H 0.0553 0.83845 0.648 0.0
H354 H 0.03313 0.88344 0.6611 0.0
O355 O 0.03387 0.83004 0.6795 0.0
O356 O 0.01741 0.85117 0.6815 0.0
O357 O 0.98878 0.83543 0.65633 0.0
C358 C 0.03146 0.84515 0.68654 0.0
H359 H 0.95626 0.77774 0.70319 0.0
H360 H 0.08331 0.87934 0.6375 0.0
H361 H 0.00822 0.79672 0.61899 0.0
H362 H 0.02902 0.76932 0.65257 0.0
Co363 Co 0.1806 0.1588 0.6372 0.0
C364 C 0.22373 0.16105 0.64779 0.0
C365 C 0.21969 0.15758 0.62575 0.0
C366 C 0.24019 0.15931 0.62912 0.0
N367 N 0.20934 0.15881 0.63737 0.0
N368 N 0.24272 0.16147 0.64294 0.0
H369 H 0.2209 0.16307 0.65857 0.0
H370 H 0.21297 0.15601 0.61541 0.0
C371 C 0.15185 0.12309 0.61541 0.0
O372 O 0.13931 0.13239 0.61253 0.0
N373 N 0.15179 0.15866 0.63681 0.0
C374 C 0.14845 0.17597 0.63308 0.0
C375 C 0.1253 0.16791 0.63229 0.0
C376 C 0.13065 0.14064 0.63898 0.0
N377 N 0.11416 0.14565 0.63583 0.0
C378 C 0.21132 0.20393 0.62859 0.0
C379 C 0.19768 0.20082 0.60141 0.0
C380 C 0.215 0.22199 0.60643 0.0
C381 C 0.22179 0.22322 0.62022 0.0
C382 C 0.18754 0.18179 0.6102 0.0
N383 N 0.1941 0.1836 0.62372 0.0
H384 H 0.21719 0.20543 0.6391 0.0
H385 H 0.17453 0.16588 0.60603 0.0
H386 H 0.1618 0.19303 0.6305 0.0
H387 H 0.12741 0.12367 0.64145 0.0
O388 O 0.18858 0.17712 0.65382 0.0
O389 O 0.17025 0.13934 0.65337 0.0
O390 O 0.16959 0.13338 0.62307 0.0
C391 C 0.17877 0.15804 0.66065 0.0
H392 H 0.25244 0.15916 0.62197 0.0
H393 H 0.11728 0.17746 0.62885 0.0
H394 H 0.19212 0.19889 0.59075 0.0
H395 H 0.23487 0.23912 0.6247 0.0
Co396 Co 0.66362 0.50565 0.49346 0.0
C397 C 0.6188 0.50386 0.49548 0.0
C398 C 0.637 0.51435 0.51469 0.0
C399 C 0.61721 0.51513 0.51602 0.0
N400 N 0.63811 0.50718 0.50181 0.0
N401 N 0.6058 0.50867 0.50395 0.0
H402 H 0.61483 0.49901 0.48473 0.0
H403 H 0.64986 0.51954 0.5226 0.0
C404 C 0.64312 0.46903 0.47125 0.0
O405 O 0.6627 0.47693 0.46478 0.0
N406 N 0.68953 0.50472 0.48535 0.0
C407 C 0.70774 0.52222 0.47918 0.0
C408 C 0.72301 0.51531 0.47553 0.0
C409 C 0.69451 0.48765 0.48589 0.0
N410 N 0.71467 0.49353 0.47967 0.0
C411 C 0.67486 0.55107 0.48711 0.0
C412 C 0.67183 0.5471 0.45867 0.0
C413 C 0.67969 0.56871 0.46466 0.0
C414 C 0.6807 0.57039 0.47911 0.0
C415 C 0.66598 0.5281 0.46709 0.0
N416 N 0.66815 0.53036 0.48112 0.0
H417 H 0.67621 0.55286 0.49821 0.0
H418 H 0.66039 0.5119 0.4622 0.0
H419 H 0.71014 0.53911 0.47765 0.0
H420 H 0.6833 0.47111 0.4904 0.0
O421 O 0.68353 0.5235 0.50853 0.0
O422 O 0.66252 0.48579 0.50809 0.0
O423 O 0.64075 0.48048 0.481 0.0
C424 C 0.67677 0.50411 0.5148 0.0
H425 H 0.61177 0.52031 0.52519 0.0
H426 H 0.7393 0.52575 0.4705 0.0
H427 H 0.67039 0.54489 0.44756 0.0
H428 H 0.68675 0.58666 0.48424 0.0
Co429 Co 0.5039 0.16671 0.49204 0.0
C430 C 0.49874 0.12008 0.49636 0.0
C431 C 0.5334 0.14767 0.49509 0.0
C432 C 0.5338 0.12799 0.49762 0.0
N433 N 0.51155 0.14288 0.49427 0.0
N434 N 0.5121 0.11064 0.49848 0.0
H435 H 0.48028 0.11073 0.49674 0.0
H436 H 0.54816 0.16457 0.49422 0.0
C437 C 0.53422 0.19534 0.46808 0.0
O438 O 0.52087 0.20342 0.46449 0.0
N439 N 0.49758 0.19155 0.49005 0.0
C440 C 0.4778 0.19093 0.48701 0.0
C441 C 0.48205 0.21308 0.4858 0.0
C442 C 0.51331 0.21391 0.49109 0.0
N443 N 0.50447 0.22745 0.48819 0.0
C444 C 0.45798 0.13283 0.48579 0.0
C445 C 0.45988 0.13708 0.45739 0.0
C446 C 0.43856 0.12354 0.46372 0.0
C447 C 0.43798 0.121 0.47808 0.0
C448 C 0.47966 0.14883 0.46556 0.0
N449 N 0.47844 0.14731 0.47967 0.0
H450 H 0.45664 0.13075 0.49684 0.0
H451 H 0.49563 0.1594 0.46041 0.0
H452 H 0.46155 0.17561 0.48535 0.0
H453 H 0.5312 0.22013 0.4932 0.0
O454 O 0.48765 0.15869 0.50946 0.0
O455 O 0.52459 0.18303 0.50716 0.0
O456 O 0.52766 0.17925 0.47692 0.0
C457 C 0.5071 0.17236 0.5153 0.0
H458 H 0.54898 0.12654 0.49873 0.0
H459 H 0.46985 0.21818 0.48271 0.0
H460 H 0.46116 0.1393 0.44629 0.0
H461 H 0.42202 0.11022 0.48339 0.0
Co462 Co 0.84135 0.34206 0.49158 0.0
C463 C 0.8851 0.38629 0.49521 0.0
C464 C 0.88551 0.3579 0.50482 0.0
C465 C 0.90659 0.37688 0.50651 0.0
N466 N 0.87195 0.36371 0.49779 0.0
N467 N 0.90645 0.39472 0.50041 0.0
H468 H 0.87951 0.39617 0.4893 0.0
H469 H 0.88064 0.34086 0.50823 0.0
C470 C 0.82888 0.36315 0.46836 0.0
O471 O 0.81958 0.34392 0.46135 0.0
N472 N 0.81069 0.31964 0.48553 0.0
C473 C 0.80417 0.29918 0.47963 0.0
C474 C 0.78167 0.28931 0.47579 0.0
C475 C 0.79164 0.32153 0.48562 0.0
N476 N 0.77385 0.30339 0.47945 0.0
C477 C 0.85809 0.31305 0.48201 0.0
C478 C 0.87587 0.33443 0.4571 0.0
C479 C 0.87804 0.31547 0.46068 0.0
C480 C 0.86914 0.30498 0.47344 0.0
C481 C 0.8648 0.34211 0.46608 0.0
N482 N 0.8553 0.33094 0.47817 0.0
H483 H 0.85157 0.30464 0.49178 0.0
H484 H 0.86451 0.35736 0.4633 0.0
H485 H 0.81482 0.29176 0.47791 0.0
H486 H 0.79113 0.33632 0.48944 0.0
O487 O 0.83786 0.32279 0.5074 0.0
O488 O 0.82881 0.34999 0.50709 0.0
O489 O 0.84143 0.36575 0.47886 0.0
C490 C 0.83055 0.33461 0.51411 0.0
H491 H 0.92098 0.37743 0.51178 0.0
H492 H 0.77177 0.27301 0.47063 0.0
H493 H 0.88266 0.34336 0.44745 0.0
H494 H 0.87101 0.29081 0.47696 0.0
Co495 Co 0.84602 0.33276 0.68367 0.0
C496 C 0.83918 0.2858 0.68001 0.0
C497 C 0.85924 0.30826 0.66364 0.0
C498 C 0.85617 0.28698 0.66096 0.0
N499 N 0.8483 0.30758 0.67549 0.0
N500 N 0.84357 0.27291 0.67122 0.0
H501 H 0.82925 0.27929 0.68936 0.0
H502 H 0.86886 0.32311 0.65723 0.0
C503 C 0.81071 0.31222 0.70667 0.0
O504 O 0.81775 0.33196 0.71281 0.0
N505 N 0.8444 0.35842 0.69149 0.0
C506 C 0.86202 0.37743 0.69695 0.0
C507 C 0.85476 0.39254 0.70023 0.0
C508 C 0.82682 0.36265 0.69107 0.0
N509 N 0.83258 0.38326 0.69663 0.0
C510 C 0.89274 0.34769 0.68928 0.0
C511 C 0.8898 0.34358 0.71771 0.0
C512 C 0.91143 0.35325 0.71148 0.0
C513 C 0.91262 0.35484 0.69703 0.0
C514 C 0.87027 0.33666 0.70956 0.0
N515 N 0.87195 0.33923 0.69553 0.0
H516 H 0.89416 0.3494 0.67818 0.0
H517 H 0.85405 0.32992 0.71466 0.0
H518 H 0.87925 0.38056 0.69813 0.0
H519 H 0.81011 0.35071 0.68699 0.0
O520 O 0.86202 0.35203 0.66795 0.0
O521 O 0.82458 0.32939 0.66947 0.0
O522 O 0.82234 0.31021 0.6969 0.0
C523 C 0.84202 0.34348 0.6621 0.0
H524 H 0.86284 0.28222 0.65218 0.0
H525 H 0.86532 0.40942 0.70456 0.0
H526 H 0.88803 0.34206 0.72884 0.0
H527 H 0.92883 0.3617 0.6917 0.0
Co528 Co 0.67782 0.51026 0.68271 0.0
C529 C 0.72071 0.55523 0.67973 0.0
C530 C 0.7114 0.53659 0.66064 0.0
C531 C 0.73089 0.55707 0.6585 0.0
N532 N 0.7046 0.53541 0.67391 0.0
N533 N 0.73672 0.56883 0.67044 0.0
H534 H 0.72068 0.55971 0.69047 0.0
H535 H 0.70333 0.52351 0.65288 0.0
C536 C 0.69657 0.49178 0.70463 0.0
O537 O 0.67743 0.48232 0.7117 0.0
N538 N 0.65109 0.48506 0.69117 0.0
C539 C 0.63367 0.48555 0.69765 0.0
C540 C 0.61798 0.46371 0.70174 0.0
C541 C 0.64531 0.46284 0.69094 0.0
N542 N 0.62543 0.44946 0.69761 0.0
C543 C 0.66959 0.54637 0.68967 0.0
C544 C 0.67315 0.54504 0.71804 0.0
C545 C 0.66489 0.55864 0.71237 0.0
C546 C 0.66388 0.55971 0.69795 0.0
C547 C 0.67868 0.53186 0.70934 0.0
N548 N 0.676 0.53195 0.69535 0.0
H549 H 0.66821 0.54717 0.67859 0.0
H550 H 0.68425 0.52111 0.71402 0.0
H551 H 0.63233 0.50066 0.69932 0.0
H552 H 0.65576 0.45671 0.68621 0.0
O553 O 0.65836 0.51053 0.6681 0.0
O554 O 0.6756 0.49001 0.66789 0.0
O555 O 0.69967 0.50542 0.69465 0.0
C556 C 0.66253 0.49616 0.66158 0.0
H557 H 0.7404 0.56266 0.64892 0.0
H558 H 0.60253 0.45883 0.70756 0.0
H559 H 0.67438 0.54377 0.72913 0.0
H560 H 0.65829 0.57048 0.69306 0.0
Co561 Co 0.5103 0.17465 0.687 0.0
C562 C 0.46402 0.1712 0.68242 0.0
C563 C 0.49312 0.20424 0.67864 0.0
C564 C 0.47384 0.20535 0.67598 0.0
N565 N 0.4872 0.18292 0.68269 0.0
N566 N 0.45551 0.18462 0.67827 0.0
H567 H 0.45349 0.15339 0.68498 0.0
H568 H 0.51049 0.21825 0.67783 0.0
C569 C 0.51353 0.20746 0.70876 0.0
O570 O 0.49121 0.19568 0.71015 0.0
N571 N 0.53426 0.1679 0.69103 0.0
C572 C 0.53286 0.1475 0.69293 0.0
C573 C 0.55447 0.15118 0.69584 0.0
C574 C 0.55651 0.18358 0.69261 0.0
N575 N 0.56927 0.17388 0.69557 0.0
C576 C 0.47354 0.13125 0.69498 0.0
C577 C 0.48544 0.13339 0.72249 0.0
C578 C 0.46857 0.11253 0.71698 0.0
C579 C 0.46235 0.11173 0.70314 0.0
C580 C 0.49657 0.15256 0.71388 0.0
N581 N 0.49062 0.15133 0.70025 0.0
H582 H 0.46926 0.12978 0.68415 0.0
H583 H 0.51099 0.1678 0.71798 0.0
H584 H 0.51731 0.13116 0.69226 0.0
H585 H 0.56316 0.20179 0.69175 0.0
O586 O 0.5022 0.15585 0.67054 0.0
O587 O 0.52773 0.19273 0.67134 0.0
O588 O 0.5237 0.19985 0.70116 0.0
C589 C 0.51666 0.17423 0.664 0.0
H590 H 0.47335 0.22044 0.67279 0.0
H591 H 0.559 0.13817 0.69776 0.0
H592 H 0.49099 0.13449 0.73311 0.0
H593 H 0.44948 0.09586 0.69851 0.0
Co594 Co 0.66537 0.16529 0.18273 0.0
C595 C 0.70968 0.16584 0.17726 0.0
C596 C 0.7065 0.17557 0.19791 0.0
C597 C 0.72651 0.17515 0.19705 0.0
N598 N 0.69584 0.16979 0.18556 0.0
N599 N 0.7285 0.16892 0.18413 0.0
H600 H 0.70572 0.15991 0.16669 0.0
H601 H 0.69976 0.17898 0.20718 0.0
C602 C 0.6649 0.20077 0.20291 0.0
O603 O 0.6426 0.19106 0.2039 0.0
N604 N 0.63504 0.16109 0.18012 0.0
C605 C 0.6149 0.14155 0.18122 0.0
C606 C 0.59753 0.14647 0.17972 0.0
C607 C 0.62968 0.17736 0.17717 0.0
N608 N 0.60686 0.16909 0.17739 0.0
C609 C 0.65873 0.12431 0.19478 0.0
C610 C 0.63322 0.12288 0.21747 0.0
C611 C 0.63788 0.10506 0.2154 0.0
C612 C 0.65098 0.10606 0.20395 0.0
C613 C 0.64185 0.14124 0.20818 0.0
N614 N 0.6543 0.14169 0.19693 0.0
H615 H 0.66827 0.12442 0.18579 0.0
H616 H 0.63782 0.15452 0.20984 0.0
H617 H 0.61294 0.12499 0.18343 0.0
H618 H 0.64235 0.19522 0.17602 0.0
O619 O 0.66033 0.14607 0.16672 0.0
O620 O 0.67518 0.18365 0.16619 0.0
O621 O 0.67431 0.19136 0.19619 0.0
C622 C 0.66834 0.16467 0.15941 0.0
H623 H 0.73856 0.17889 0.20538 0.0
H624 H 0.57946 0.13439 0.18068 0.0
H625 H 0.62303 0.12262 0.22619 0.0
H626 H 0.65469 0.09249 0.20187 0.0
Co627 Co 0.8397 0.50151 0.17308 0.0
C628 C 0.83566 0.54282 0.16885 0.0
C629 C 0.85285 0.53762 0.1518 0.0
C630 C 0.85087 0.5565 0.1491 0.0
N631 N 0.84303 0.52878 0.16412 0.0
N632 N 0.84003 0.55972 0.15981 0.0
H633 H 0.82706 0.54068 0.17863 0.0
H634 H 0.86108 0.53108 0.14512 0.0
C635 C 0.80176 0.48752 0.19443 0.0
O636 O 0.80917 0.4765 0.20204 0.0
N637 N 0.83649 0.47428 0.18178 0.0
C638 C 0.85256 0.472 0.18867 0.0
C639 C 0.84317 0.44968 0.19299 0.0
C640 C 0.81784 0.45321 0.18158 0.0
N641 N 0.82127 0.43796 0.18864 0.0
C642 C 0.88509 0.53392 0.18056 0.0
C643 C 0.87923 0.53547 0.20869 0.0
C644 C 0.90142 0.54793 0.20321 0.0
C645 C 0.90404 0.54719 0.18889 0.0
C646 C 0.86059 0.52234 0.19992 0.0
N647 N 0.86375 0.52121 0.18605 0.0
H648 H 0.88773 0.53362 0.16958 0.0
H649 H 0.84392 0.51302 0.20443 0.0
H650 H 0.86987 0.48555 0.19051 0.0
H651 H 0.8019 0.44931 0.17666 0.0
O652 O 0.85855 0.49841 0.15911 0.0
O653 O 0.82103 0.4832 0.15779 0.0
O654 O 0.81369 0.50006 0.18435 0.0
C655 C 0.83985 0.48649 0.15205 0.0
H656 H 0.85724 0.56726 0.14005 0.0
H657 H 0.85165 0.4428 0.19918 0.0
H658 H 0.87624 0.53584 0.21965 0.0
H659 H 0.92074 0.55627 0.1841 0.0
Co660 Co 0.49659 0.34101 0.16721 0.0
C661 C 0.45614 0.29483 0.16375 0.0
C662 C 0.46025 0.31591 0.14625 0.0
C663 C 0.44091 0.29509 0.14434 0.0
N664 N 0.47 0.31579 0.1584 0.0
N665 N 0.43827 0.28174 0.15532 0.0
H666 H 0.45891 0.2894 0.1737 0.0
H667 H 0.46612 0.33025 0.13933 0.0
C668 C 0.51415 0.3189 0.18764 0.0
O669 O 0.52581 0.33774 0.19483 0.0
N670 N 0.523 0.36649 0.17585 0.0
C671 C 0.52334 0.38391 0.18285 0.0
C672 C 0.54551 0.39921 0.18655 0.0
C673 C 0.54513 0.37192 0.17493 0.0
N674 N 0.55923 0.39162 0.18164 0.0
C675 C 0.46132 0.34956 0.17558 0.0
C676 C 0.4632 0.34386 0.20371 0.0
C677 C 0.44859 0.35146 0.19872 0.0
C678 C 0.44757 0.3539 0.18439 0.0
C679 C 0.47673 0.33968 0.19448 0.0
N680 N 0.4761 0.34309 0.18062 0.0
H681 H 0.46048 0.35197 0.16462 0.0
H682 H 0.48805 0.33434 0.19862 0.0
H683 H 0.50861 0.38574 0.18492 0.0
H684 H 0.55065 0.36129 0.16976 0.0
O685 O 0.49723 0.36214 0.15344 0.0
O686 O 0.51542 0.34258 0.15176 0.0
O687 O 0.50048 0.3176 0.17807 0.0
C688 C 0.51037 0.35703 0.14625 0.0
H689 H 0.42927 0.29053 0.13569 0.0
H690 H 0.5511 0.41498 0.19217 0.0
H691 H 0.46433 0.34134 0.21466 0.0
H692 H 0.43681 0.35991 0.17998 0.0
Co693 Co 0.50946 0.34534 0.97622 0.0
C694 C 0.50647 0.38775 0.98011 0.0
C695 C 0.51324 0.38277 0.95912 0.0
C696 C 0.51247 0.40265 0.95985 0.0
N697 N 0.5095 0.37335 0.9718 0.0
N698 N 0.50825 0.40581 0.97304 0.0
H699 H 0.50295 0.38516 0.99105 0.0
H700 H 0.51666 0.37592 0.94991 0.0
C701 C 0.53943 0.34097 0.95446 0.0
O702 O 0.52619 0.31871 0.95361 0.0
N703 N 0.50985 0.31751 0.98052 0.0
C704 C 0.4924 0.29585 0.98037 0.0
C705 C 0.50111 0.2814 0.98181 0.0
C706 C 0.52877 0.31593 0.98266 0.0
N707 N 0.52412 0.294 0.983 0.0
C708 C 0.46185 0.31999 0.96977 0.0
C709 C 0.46521 0.31621 0.94158 0.0
C710 C 0.44337 0.30656 0.94754 0.0
C711 C 0.44198 0.30879 0.96185 0.0
C712 C 0.48476 0.32746 0.94991 0.0
N713 N 0.48302 0.32888 0.96392 0.0
H714 H 0.45995 0.32136 0.98072 0.0
H715 H 0.50108 0.33541 0.94484 0.0
H716 H 0.47469 0.29065 0.9786 0.0
H717 H 0.54573 0.33071 0.98283 0.0
O718 O 0.49367 0.34245 0.9935 0.0
O719 O 0.53121 0.36055 0.99102 0.0
O720 O 0.53314 0.35305 0.96132 0.0
C721 C 0.51375 0.35379 0.99918 0.0
H722 H 0.51545 0.41423 0.95137 0.0
H723 H 0.49118 0.26301 0.98105 0.0
H724 H 0.46726 0.3151 0.93056 0.0
H725 H 0.42564 0.30229 0.96695 0.0
Co726 Co 0.66859 0.16426 0.9869 0.0
C727 C 0.62758 0.11787 0.99211 0.0
C728 C 0.63081 0.12891 0.97104 0.0
C729 C 0.61195 0.10765 0.97202 0.0
N730 N 0.64086 0.13539 0.98356 0.0
N731 N 0.60989 0.10069 0.98521 0.0
H732 H 0.63067 0.11751 0.00304 0.0
H733 H 0.63646 0.13903 0.96175 0.0
C734 C 0.66646 0.1962 0.96539 0.0
O735 O 0.68855 0.20679 0.96299 0.0
N736 N 0.69614 0.19339 0.98991 0.0
C737 C 0.718 0.19846 0.98856 0.0
C738 C 0.73177 0.22183 0.98865 0.0
C739 C 0.69705 0.21367 0.9915 0.0
N740 N 0.71857 0.23153 0.99018 0.0
C741 C 0.6947 0.14384 0.9783 0.0
C742 C 0.69182 0.14754 0.95008 0.0
C743 C 0.70217 0.13547 0.95519 0.0
C744 C 0.70392 0.13418 0.96952 0.0
C745 C 0.68286 0.15716 0.95928 0.0
N746 N 0.68411 0.15508 0.97328 0.0
H747 H 0.6961 0.14201 0.98924 0.0
H748 H 0.67404 0.16519 0.95493 0.0
H749 H 0.72363 0.18631 0.98672 0.0
H750 H 0.68188 0.21513 0.99231 0.0
O751 O 0.67516 0.15252 0.0035 0.0
O752 O 0.65514 0.1702 0.00298 0.0
O753 O 0.65707 0.17852 0.9731 0.0
C754 C 0.66415 0.16059 0.01029 0.0
H755 H 0.60017 0.09829 0.96373 0.0
H756 H 0.74992 0.23076 0.98658 0.0
H757 H 0.68984 0.1488 0.93907 0.0
H758 H 0.71223 0.12555 0.97402 0.0
Co759 Co 0.83961 0.49484 0.98178 0.0
C760 C 0.88723 0.50308 0.98561 0.0
C761 C 0.87528 0.49441 0.96474 0.0
C762 C 0.89685 0.49738 0.96544 0.0
N763 N 0.86914 0.49804 0.97735 0.0
N764 N 0.90437 0.50278 0.97854 0.0
H765 H 0.88793 0.50675 0.99653 0.0
H766 H 0.86469 0.48929 0.95562 0.0
C767 C 0.80838 0.46433 0.9588 0.0
O768 O 0.79823 0.47648 0.95735 0.0
N769 N 0.80985 0.49114 0.9861 0.0
C770 C 0.80439 0.50741 0.98867 0.0
C771 C 0.78097 0.49736 0.98924 0.0
C772 C 0.78973 0.47132 0.98598 0.0
N773 N 0.77167 0.47466 0.98716 0.0
C774 C 0.85546 0.54187 0.97605 0.0
C775 C 0.85474 0.53963 0.94757 0.0
C776 C 0.86299 0.56096 0.95397 0.0
C777 C 0.86308 0.56183 0.9684 0.0
C778 C 0.84687 0.5199 0.95564 0.0
N779 N 0.84715 0.52106 0.96978 0.0
H780 H 0.85653 0.54341 0.98714 0.0
H781 H 0.84138 0.50401 0.95035 0.0
H782 H 0.81631 0.52544 0.9896 0.0
H783 H 0.78836 0.45497 0.98389 0.0
O784 O 0.85107 0.51075 0.99919 0.0
O785 O 0.83509 0.47341 0.99636 0.0
O786 O 0.82583 0.47125 0.96663 0.0
C787 C 0.84409 0.49082 0.00471 0.0
H788 H 0.90592 0.49482 0.95703 0.0
H789 H 0.77162 0.50638 0.99046 0.0
H790 H 0.85454 0.53821 0.93641 0.0
H791 H 0.86975 0.57797 0.9738 0.0
Co792 Co 0.3405 0.83934 0.82534 0.0
C793 C 0.29815 0.84158 0.83263 0.0
C794 C 0.29832 0.8301 0.81195 0.0
C795 C 0.27912 0.8318 0.81357 0.0
N796 N 0.31033 0.8361 0.82385 0.0
N797 N 0.279 0.83913 0.8265 0.0
H798 H 0.30354 0.84814 0.84298 0.0
H799 H 0.3036 0.82568 0.80244 0.0
C800 C 0.338 0.80322 0.80466 0.0
O801 O 0.36013 0.81301 0.80266 0.0
N802 N 0.37071 0.84271 0.82651 0.0
C803 C 0.3907 0.86205 0.82434 0.0
C804 C 0.40809 0.85706 0.8248 0.0
C805 C 0.37633 0.82644 0.82896 0.0
N806 N 0.39903 0.83459 0.82747 0.0
C807 C 0.35083 0.88248 0.81502 0.0
C808 C 0.36617 0.87988 0.78902 0.0
C809 C 0.36683 0.90025 0.79299 0.0
C810 C 0.35893 0.9012 0.80624 0.0
C811 C 0.35808 0.86145 0.79827 0.0
N812 N 0.35079 0.86302 0.81118 0.0
H813 H 0.34467 0.88375 0.82509 0.0
H814 H 0.35794 0.84622 0.795 0.0
H815 H 0.3925 0.87854 0.82214 0.0
H816 H 0.36383 0.80865 0.83064 0.0
O817 O 0.34785 0.85869 0.84152 0.0
O818 O 0.33167 0.82106 0.842 0.0
O819 O 0.32938 0.8129 0.81189 0.0
C820 C 0.3397 0.84014 0.84883 0.0
H821 H 0.26633 0.82824 0.80572 0.0
H822 H 0.42598 0.86898 0.82289 0.0
H823 H 0.37176 0.8781 0.77884 0.0
H824 H 0.35938 0.91649 0.81003 0.0
Co825 Co 0.17354 0.49958 0.82787 0.0
C826 C 0.17222 0.45494 0.82959 0.0
C827 C 0.17601 0.46993 0.84967 0.0
C828 C 0.17664 0.45009 0.85107 0.0
N829 N 0.17318 0.47312 0.83619 0.0
N830 N 0.1743 0.44068 0.83849 0.0
H831 H 0.17084 0.4526 0.81849 0.0
H832 H 0.17815 0.4813 0.85808 0.0
C833 C 0.21329 0.51896 0.80753 0.0
O834 O 0.20473 0.52928 0.80026 0.0
N835 N 0.17416 0.52616 0.81986 0.0
C836 C 0.1575 0.52731 0.81288 0.0
C837 C 0.1653 0.54976 0.80928 0.0
C838 C 0.19144 0.54796 0.82087 0.0
N839 N 0.18675 0.56265 0.81418 0.0
C840 C 0.13035 0.46421 0.81876 0.0
C841 C 0.13822 0.46826 0.79064 0.0
C842 C 0.11597 0.45339 0.79541 0.0
C843 C 0.11237 0.45113 0.80972 0.0
C844 C 0.15583 0.48105 0.80009 0.0
N845 N 0.15161 0.47952 0.81397 0.0
H846 H 0.12699 0.46239 0.82973 0.0
H847 H 0.17251 0.4924 0.79609 0.0
H848 H 0.1409 0.51289 0.81046 0.0
H849 H 0.20744 0.55283 0.82604 0.0
O850 O 0.15191 0.49841 0.84144 0.0
O851 O 0.18949 0.51799 0.84387 0.0
O852 O 0.20166 0.50496 0.81715 0.0
C853 C 0.16942 0.51187 0.84902 0.0
H854 H 0.17884 0.44316 0.86065 0.0
H855 H 0.15615 0.556 0.80317 0.0
H856 H 0.14198 0.47021 0.77969 0.0
H857 H 0.09557 0.43999 0.81398 0.0
Co858 Co 0.52011 0.6714 0.8333 0.0
C859 C 0.56259 0.71639 0.83572 0.0
C860 C 0.55605 0.69711 0.8544 0.0
C861 C 0.57627 0.71722 0.85589 0.0
N862 N 0.54729 0.69649 0.84175 0.0
N863 N 0.58049 0.72934 0.84415 0.0
H864 H 0.56105 0.72092 0.82521 0.0
H865 H 0.54883 0.68381 0.86206 0.0
C866 C 0.50157 0.69357 0.8137 0.0
O867 O 0.49004 0.67491 0.80632 0.0
N868 N 0.49318 0.64602 0.82507 0.0
C869 C 0.49211 0.62756 0.81896 0.0
C870 C 0.4696 0.61193 0.81615 0.0
C871 C 0.47122 0.64105 0.82626 0.0
N872 N 0.45655 0.62052 0.82067 0.0
C873 C 0.55475 0.66255 0.824 0.0
C874 C 0.55056 0.66686 0.79594 0.0
C875 C 0.56536 0.65923 0.80053 0.0
C876 C 0.56761 0.65755 0.81482 0.0
C877 C 0.53795 0.6717 0.80553 0.0
N878 N 0.5397 0.66894 0.81936 0.0
H879 H 0.55646 0.66066 0.83494 0.0
H880 H 0.52646 0.67703 0.80169 0.0
H881 H 0.50658 0.62524 0.81701 0.0
H882 H 0.46608 0.65214 0.83124 0.0
O883 O 0.51994 0.65017 0.84682 0.0
O884 O 0.50209 0.66996 0.84917 0.0
O885 O 0.51591 0.69501 0.82285 0.0
C886 C 0.5071 0.65526 0.85434 0.0
H887 H 0.58707 0.72247 0.86497 0.0
H888 H 0.46331 0.59552 0.81116 0.0
H889 H 0.54854 0.66887 0.78502 0.0
H890 H 0.57857 0.65158 0.81895 0.0
Co891 Co 0.50688 0.66478 0.02502 0.0
C892 C 0.511 0.62341 0.01886 0.0
C893 C 0.5038 0.62603 0.04016 0.0
C894 C 0.50531 0.60668 0.03854 0.0
N895 N 0.50733 0.6366 0.02786 0.0
N896 N 0.50983 0.60501 0.02516 0.0
H897 H 0.51464 0.62715 0.008 0.0
H898 H 0.50017 0.63184 0.04973 0.0
C899 C 0.47311 0.6635 0.04641 0.0
O900 O 0.48419 0.68569 0.04841 0.0
N901 N 0.50621 0.69288 0.02237 0.0
C902 C 0.52357 0.71446 0.0238 0.0
C903 C 0.51501 0.72909 0.02283 0.0
C904 C 0.48751 0.69476 0.02 0.0
N905 N 0.49222 0.7167 0.02065 0.0
C906 C 0.55381 0.68847 0.03282 0.0
C907 C 0.54851 0.68958 0.06104 0.0
C908 C 0.57065 0.69887 0.0556 0.0
C909 C 0.57306 0.69822 0.04128 0.0
C910 C 0.52954 0.68007 0.05213 0.0
N911 N 0.5323 0.67967 0.03814 0.0
H912 H 0.55649 0.68798 0.02189 0.0
H913 H 0.51284 0.67251 0.05669 0.0
H914 H 0.54108 0.71935 0.02605 0.0
H915 H 0.47058 0.68015 0.01876 0.0
O916 O 0.52405 0.67066 0.00799 0.0
O917 O 0.48635 0.65154 0.00941 0.0
O918 O 0.48204 0.65393 0.03939 0.0
C919 C 0.50448 0.65971 0.0017 0.0
H920 H 0.50273 0.59449 0.04656 0.0
H921 H 0.52471 0.74733 0.02455 0.0
H922 H 0.54583 0.68959 0.07207 0.0
H923 H 0.58973 0.70466 0.0366 0.0
Co924 Co 0.34046 0.84223 0.02171 0.0
C925 C 0.38116 0.88853 0.01569 0.0
C926 C 0.37674 0.87952 0.03717 0.0
C927 C 0.39555 0.90073 0.03589 0.0
N928 N 0.36746 0.87181 0.02459 0.0
N929 N 0.39836 0.90645 0.02243 0.0
H930 H 0.37876 0.88775 0.00462 0.0
H931 H 0.37062 0.87017 0.04672 0.0
C932 C 0.34627 0.81105 0.04216 0.0
O933 O 0.32432 0.79865 0.0448 0.0
N934 N 0.3135 0.81253 0.01917 0.0
C935 C 0.29159 0.80698 0.02105 0.0
C936 C 0.27816 0.7836 0.0206 0.0
C937 C 0.31296 0.79255 0.01691 0.0
N938 N 0.29163 0.7744 0.01828 0.0
C939 C 0.31517 0.86299 0.03123 0.0
C940 C 0.31512 0.85481 0.05915 0.0
C941 C 0.30519 0.86754 0.05455 0.0
C942 C 0.30516 0.87137 0.04036 0.0
C943 C 0.32473 0.84636 0.04958 0.0
N944 N 0.32482 0.85056 0.03574 0.0
H945 H 0.31535 0.86697 0.02045 0.0
H946 H 0.33291 0.83744 0.05355 0.0
H947 H 0.28578 0.81885 0.02341 0.0
H948 H 0.32823 0.79141 0.01548 0.0
O949 O 0.33197 0.85273 0.00529 0.0
O950 O 0.35376 0.83696 0.00531 0.0
O951 O 0.3541 0.82947 0.03515 0.0
C952 C 0.34344 0.84545 0.99823 0.0
H953 H 0.40682 0.91088 0.0442 0.0
H954 H 0.2601 0.77421 0.02295 0.0
H955 H 0.31564 0.85156 0.07006 0.0
H956 H 0.29811 0.88149 0.03633 0.0
Co957 Co 0.17023 0.50871 0.0197 0.0
C958 C 0.12328 0.50222 0.01563 0.0
C959 C 0.13582 0.5122 0.03629 0.0
C960 C 0.11448 0.50978 0.03554 0.0
N961 N 0.14145 0.50741 0.02385 0.0
N962 N 0.10659 0.50354 0.02257 0.0
H963 H 0.12214 0.49757 0.00484 0.0
H964 H 0.14655 0.51754 0.04536 0.0
C965 C 0.20256 0.53992 0.0421 0.0
O966 O 0.21273 0.5278 0.04354 0.0
N967 N 0.19928 0.51054 0.01573 0.0
C968 C 0.20419 0.49356 0.01502 0.0
C969 C 0.22749 0.50299 0.0141 0.0
C970 C 0.21961 0.52999 0.01454 0.0
N971 N 0.23733 0.52599 0.01405 0.0
C972 C 0.152 0.4617 0.02651 0.0
C973 C 0.15398 0.46578 0.05493 0.0
C974 C 0.1449 0.44404 0.049 0.0
C975 C 0.14409 0.44218 0.03461 0.0
C976 C 0.16227 0.48506 0.04641 0.0
N977 N 0.16142 0.48297 0.03232 0.0
H978 H 0.15064 0.45951 0.01546 0.0
H979 H 0.16865 0.5014 0.05133 0.0
H980 H 0.19205 0.47558 0.01571 0.0
H981 H 0.2213 0.54674 0.01501 0.0
O982 O 0.15795 0.492 0.0026 0.0
O983 O 0.17588 0.52962 0.00459 0.0
O984 O 0.18503 0.53299 0.03434 0.0
C985 C 0.16589 0.51175 0.99665 0.0
H986 H 0.10574 0.51312 0.04382 0.0
H987 H 0.23639 0.49342 0.01438 0.0
H988 H 0.15463 0.46785 0.06606 0.0
H989 H 0.1368 0.42564 0.02962 0.0
Co990 Co 0.33245 0.49966 0.50355 0.0
C991 C 0.37594 0.49946 0.49905 0.0
C992 C 0.35402 0.48636 0.48136 0.0
C993 C 0.37329 0.485 0.47887 0.0
N994 N 0.35562 0.49559 0.49399 0.0
N995 N 0.38708 0.49315 0.48999 0.0
H996 H 0.3821 0.50596 0.50932 0.0
H997 H 0.33968 0.48031 0.4744 0.0
C998 C 0.35774 0.53605 0.52544 0.0
O999 O 0.33908 0.53012 0.53258 0.0
N1000 N 0.30885 0.50316 0.51289 0.0
C1001 C 0.29067 0.48672 0.51972 0.0
C1002 C 0.27689 0.49521 0.52385 0.0
C1003 C 0.30536 0.52122 0.51254 0.0
N1004 N 0.28613 0.51693 0.51939 0.0
C1005 C 0.31752 0.45338 0.50937 0.0
C1006 C 0.32378 0.45674 0.53768 0.0
C1007 C 0.31272 0.43502 0.5315 0.0
C1008 C 0.31019 0.4336 0.51712 0.0
C1009 C 0.33079 0.47626 0.52949 0.0
N1010 N 0.32695 0.47431 0.51556 0.0
H1011 H 0.31507 0.45177 0.49832 0.0
H1012 H 0.33846 0.49265 0.53449 0.0
H1013 H 0.28711 0.46943 0.52127 0.0
H1014 H 0.31683 0.53723 0.50753 0.0
O1015 O 0.31036 0.48281 0.48922 0.0
O1016 O 0.334 0.52018 0.48919 0.0
O1017 O 0.35767 0.52372 0.51539 0.0
C1018 C 0.31812 0.50226 0.48287 0.0
H1019 H 0.37681 0.47842 0.46955 0.0
H1020 H 0.26085 0.48579 0.52932 0.0
H1021 H 0.32619 0.45857 0.54877 0.0
H1022 H 0.30228 0.41724 0.51188 0.0
Co1023 Co 0.49551 0.83356 0.51324 0.0
C1024 C 0.49582 0.87818 0.51031 0.0
C1025 C 0.46244 0.84872 0.51243 0.0
C1026 C 0.45994 0.86741 0.51051 0.0
N1027 N 0.48485 0.85533 0.51236 0.0
N1028 N 0.48085 0.88592 0.50913 0.0
H1029 H 0.51411 0.88882 0.50923 0.0
H1030 H 0.4487 0.83127 0.51347 0.0
C1031 C 0.46537 0.80032 0.53591 0.0
O1032 O 0.47799 0.79077 0.53766 0.0
N1033 N 0.50505 0.81083 0.51385 0.0
C1034 C 0.52535 0.81328 0.51768 0.0
C1035 C 0.52352 0.79203 0.51787 0.0
C1036 C 0.49155 0.78834 0.51119 0.0
N1037 N 0.50216 0.77635 0.51392 0.0
C1038 C 0.53941 0.87051 0.52063 0.0
C1039 C 0.53911 0.8596 0.54814 0.0
C1040 C 0.55969 0.87634 0.54222 0.0
C1041 C 0.55938 0.88225 0.52841 0.0
C1042 C 0.51938 0.84812 0.53994 0.0
N1043 N 0.51988 0.85306 0.52619 0.0
H1044 H 0.54016 0.87488 0.50987 0.0
H1045 H 0.50424 0.83464 0.54462 0.0
H1046 H 0.54029 0.82916 0.52058 0.0
H1047 H 0.47365 0.78069 0.5085 0.0
O1048 O 0.51196 0.84504 0.49607 0.0
O1049 O 0.47584 0.81763 0.49765 0.0
O1050 O 0.47193 0.81779 0.52819 0.0
C1051 C 0.49316 0.83068 0.48983 0.0
H1052 H 0.44391 0.86739 0.51013 0.0
H1053 H 0.5367 0.78835 0.52106 0.0
H1054 H 0.53854 0.85455 0.55881 0.0
H1055 H 0.57472 0.89543 0.52347 0.0
Co1056 Co 0.16421 0.6751 0.50669 0.0
C1057 C 0.12129 0.63017 0.50307 0.0
C1058 C 0.12067 0.65745 0.49214 0.0
C1059 C 0.0998 0.63813 0.49062 0.0
N1060 N 0.13428 0.65256 0.49988 0.0
N1061 N 0.10008 0.62101 0.49755 0.0
H1062 H 0.12677 0.62101 0.50975 0.0
H1063 H 0.12517 0.67413 0.48823 0.0
C1064 C 0.17777 0.65309 0.52896 0.0
O1065 O 0.18614 0.67165 0.53659 0.0
N1066 N 0.19405 0.69831 0.5133 0.0
C1067 C 0.19966 0.71907 0.51833 0.0
C1068 C 0.2223 0.7303 0.52201 0.0
C1069 C 0.21368 0.69752 0.5136 0.0
N1070 N 0.23114 0.71675 0.51912 0.0
C1071 C 0.1443 0.70039 0.51786 0.0
C1072 C 0.1285 0.67696 0.54241 0.0
C1073 C 0.12496 0.6954 0.5398 0.0
C1074 C 0.13272 0.70682 0.52715 0.0
C1075 C 0.13996 0.67086 0.53269 0.0
N1076 N 0.14866 0.68319 0.52083 0.0
H1077 H 0.14995 0.70956 0.50824 0.0
H1078 H 0.14126 0.65593 0.53475 0.0
H1079 H 0.18831 0.72585 0.51938 0.0
H1080 H 0.21498 0.68301 0.51009 0.0
O1081 O 0.16665 0.69564 0.49186 0.0
O1082 O 0.1784 0.67049 0.49063 0.0
O1083 O 0.16583 0.65108 0.51824 0.0
C1084 C 0.17574 0.68607 0.48453 0.0
H1085 H 0.08538 0.63688 0.48499 0.0
H1086 H 0.23134 0.74698 0.52682 0.0
H1087 H 0.12258 0.66727 0.55189 0.0
H1088 H 0.12965 0.72053 0.52429 0.0
Co1089 Co 0.17431 0.67776 0.31291 0.0
C1090 C 0.17194 0.72054 0.31633 0.0
C1091 C 0.20506 0.72661 0.31016 0.0
C1092 C 0.20613 0.74726 0.3116 0.0
N1093 N 0.18361 0.70982 0.31289 0.0
N1094 N 0.18538 0.7435 0.31548 0.0
H1095 H 0.15424 0.71185 0.31954 0.0
H1096 H 0.21929 0.72412 0.30776 0.0
C1097 C 0.20307 0.67359 0.28962 0.0
O1098 O 0.18934 0.6517 0.28746 0.0
N1099 N 0.16601 0.64585 0.31301 0.0
C1100 C 0.14626 0.62743 0.30901 0.0
C1101 C 0.14964 0.60898 0.30804 0.0
C1102 C 0.18076 0.63812 0.31498 0.0
N1103 N 0.17142 0.61583 0.31164 0.0
C1104 C 0.12901 0.66687 0.30553 0.0
C1105 C 0.13197 0.66257 0.27735 0.0
C1106 C 0.11057 0.65622 0.28315 0.0
C1107 C 0.10947 0.65914 0.2974 0.0
C1108 C 0.15124 0.67023 0.28591 0.0
N1109 N 0.14946 0.67143 0.29994 0.0
H1110 H 0.12725 0.66836 0.31648 0.0
H1111 H 0.16725 0.67471 0.2811 0.0
H1112 H 0.13085 0.62748 0.30613 0.0
H1113 H 0.19873 0.64921 0.31723 0.0
O1114 O 0.15811 0.67356 0.33013 0.0
O1115 O 0.1945 0.68331 0.32853 0.0
O1116 O 0.19777 0.68487 0.29797 0.0
C1117 C 0.17718 0.67905 0.33637 0.0
H1118 H 0.2213 0.76386 0.31048 0.0
H1119 H 0.13741 0.59216 0.30423 0.0
H1120 H 0.13371 0.6609 0.26634 0.0
H1121 H 0.09349 0.65514 0.30231 0.0
Co1122 Co 0.32338 0.49132 0.31385 0.0
C1123 C 0.28477 0.44513 0.32228 0.0
C1124 C 0.277 0.47221 0.32386 0.0
C1125 C 0.25866 0.45259 0.32874 0.0
N1126 N 0.29346 0.46769 0.31987 0.0
N1127 N 0.26355 0.43564 0.32774 0.0
H1128 H 0.2937 0.43586 0.32049 0.0
H1129 H 0.27844 0.48887 0.32347 0.0
C1130 C 0.31206 0.51618 0.2916 0.0
O1131 O 0.3332 0.52877 0.28735 0.0
N1132 N 0.35332 0.51569 0.30816 0.0
C1133 C 0.37056 0.51391 0.3024 0.0
C1134 C 0.38884 0.53549 0.30032 0.0
C1135 C 0.36173 0.53833 0.30995 0.0
N1136 N 0.38322 0.55084 0.305 0.0
C1137 C 0.33324 0.45606 0.30693 0.0
C1138 C 0.33101 0.45866 0.27854 0.0
C1139 C 0.33945 0.44519 0.28417 0.0
C1140 C 0.33981 0.44349 0.29858 0.0
C1141 C 0.32452 0.47102 0.2873 0.0
N1142 N 0.32619 0.47006 0.30134 0.0
H1143 H 0.33467 0.45509 0.31797 0.0
H1144 H 0.31934 0.48217 0.28265 0.0
H1145 H 0.37018 0.49816 0.2999 0.0
H1146 H 0.35189 0.54551 0.31423 0.0
O1147 O 0.3369 0.48688 0.33037 0.0
O1148 O 0.32316 0.51042 0.32865 0.0
O1149 O 0.30656 0.49966 0.29996 0.0
C1150 C 0.33217 0.50128 0.33634 0.0
H1151 H 0.24282 0.45081 0.33265 0.0
H1152 H 0.40508 0.5395 0.29579 0.0
H1153 H 0.33051 0.46057 0.26745 0.0
H1154 H 0.34573 0.43296 0.30343 0.0
Co1155 Co 0.50332 0.83065 0.32046 0.0
C1156 C 0.54349 0.82406 0.32394 0.0
C1157 C 0.54013 0.84231 0.34109 0.0
C1158 C 0.55827 0.83903 0.3436 0.0
N1159 N 0.53056 0.83268 0.32883 0.0
N1160 N 0.56033 0.82751 0.33285 0.0
H1161 H 0.54057 0.81521 0.31418 0.0
H1162 H 0.5346 0.8513 0.34788 0.0
C1163 C 0.48782 0.79318 0.2984 0.0
O1164 O 0.47584 0.8003 0.29152 0.0
N1165 N 0.4761 0.82871 0.31248 0.0
C1166 C 0.47403 0.84569 0.30669 0.0
C1167 C 0.45175 0.8371 0.30248 0.0
C1168 C 0.45484 0.81034 0.31233 0.0
N1169 N 0.43974 0.81478 0.3059 0.0
C1170 C 0.53798 0.87536 0.31324 0.0
C1171 C 0.53158 0.87184 0.28496 0.0
C1172 C 0.54623 0.89333 0.29077 0.0
C1173 C 0.54994 0.89479 0.30505 0.0
C1174 C 0.5203 0.85267 0.29352 0.0
N1175 N 0.52284 0.85474 0.30755 0.0
H1176 H 0.54014 0.87713 0.32431 0.0
H1177 H 0.50872 0.83665 0.28882 0.0
H1178 H 0.48775 0.86311 0.30551 0.0
H1179 H 0.45074 0.79388 0.31649 0.0
O1180 O 0.50174 0.8496 0.33493 0.0
O1181 O 0.48523 0.81189 0.3357 0.0
O1182 O 0.50069 0.8048 0.30847 0.0
C1183 C 0.48954 0.83078 0.34182 0.0
H1184 H 0.56935 0.84498 0.35256 0.0
H1185 H 0.44512 0.84646 0.29695 0.0
H1186 H 0.52845 0.86997 0.27393 0.0
H1187 H 0.56106 0.91107 0.30997 0.0
C1188 C 0.05381 0.12679 0.16235 0.0
C1189 C 0.06244 0.14808 0.15582 0.0
C1190 C 0.06521 0.11433 0.16117 0.0
C1191 C 0.10493 0.10694 0.13859 0.0
H1192 H 0.11597 0.07974 0.17076 0.0
C1193 C 0.13647 0.04111 0.13613 0.0
C1194 C 0.1529 0.04354 0.14595 0.0
C1195 C 0.12665 0.05509 0.13667 0.0
C1196 C 0.11312 0.08735 0.16169 0.0
H1197 H 0.08965 0.17271 0.14272 0.0
H1198 H 0.10945 0.15107 0.14069 0.0
H1199 H 0.09578 0.10112 0.17337 0.0
H1200 H 0.17267 0.06345 0.16363 0.0
H1201 H 0.15551 0.08769 0.16454 0.0
H1202 H 0.12218 0.09306 0.1269 0.0
C1203 C 0.09393 0.14404 0.14677 0.0
C1204 C 0.10136 0.09938 0.16317 0.0
C1205 C 0.08271 0.15658 0.14808 0.0
C1206 C 0.16005 0.06102 0.1559 0.0
C1207 C 0.15008 0.07481 0.15652 0.0
C1208 C 0.11644 0.09466 0.13708 0.0
C1209 C 0.08529 0.12274 0.15325 0.0
C1210 C 0.09724 0.10942 0.15165 0.0
C1211 C 0.1329 0.07166 0.14712 0.0
C1212 C 0.12079 0.08485 0.14863 0.0
H1213 H 0.03825 0.11982 0.16838 0.0
H1214 H 0.05809 0.0979 0.16622 0.0
H1215 H 0.10185 0.11433 0.1295 0.0
H1216 H 0.1305 0.02782 0.12835 0.0
H1217 H 0.11343 0.05223 0.12929 0.0
C1218 C 0.86614 0.92298 0.13371 0.0
C1219 C 0.86749 0.91462 0.14676 0.0
C1220 C 0.88092 0.94582 0.13023 0.0
C1221 C 0.91266 1.00202 0.14548 0.0
H1222 H 0.94795 0.02042 0.11152 0.0
C1223 C 0.95602 0.09425 0.12694 0.0
C1224 C 0.97997 0.10477 0.12603 0.0
C1225 C 0.94252 0.07053 0.12743 0.0
C1226 C 0.93816 0.01545 0.12101 0.0
H1227 H 0.88531 0.92345 0.16635 0.0
H1228 H 0.9108 0.96369 0.16043 0.0
H1229 H 0.92419 0.97961 0.11706 0.0
H1230 H 0.00825 0.09842 0.12354 0.0
H1231 H 0.98437 0.05672 0.12405 0.0
H1232 H 0.92613 0.03767 0.14935 0.0
C1233 C 0.89844 0.95246 0.15287 0.0
C1234 C 0.92456 0.99221 0.12416 0.0
C1235 C 0.88395 0.92951 0.15624 0.0
C1236 C 0.98988 0.09091 0.12425 0.0
C1237 C 0.97625 0.06705 0.12458 0.0
C1238 C 0.92583 0.02514 0.14221 0.0
C1239 C 0.89706 0.96082 0.13983 0.0
C1240 C 0.91175 0.98532 0.13645 0.0
C1241 C 0.95258 0.05675 0.12679 0.0
C1242 C 0.93867 0.03209 0.12996 0.0
H1243 H 0.85382 0.91177 0.12614 0.0
H1244 H 0.87944 0.95188 0.12015 0.0
H1245 H 0.90284 0.99717 0.15497 0.0
H1246 H 0.94774 0.10434 0.12817 0.0
H1247 H 0.92426 0.06296 0.12893 0.0
C1248 C 0.08342 0.9571 0.1469 0.0
C1249 C 0.0929 0.94349 0.15055 0.0
C1250 C 0.06029 0.94705 0.14339 0.0
C1251 C 0.00981 0.8911 0.13336 0.0
H1252 H 0.97579 0.92051 0.14487 0.0
C1253 C 0.91161 0.84553 0.1394 0.0
C1254 C 0.90038 0.85732 0.13529 0.0
C1255 C 0.93539 0.85594 0.13853 0.0
C1256 C 0.98514 0.91226 0.1414 0.0
H1257 H 0.08559 0.90881 0.15371 0.0
H1258 H 0.04511 0.89124 0.14811 0.0
H1259 H 0.01663 0.93907 0.14946 0.0
H1260 H 0.90514 0.88883 0.1264 0.0
H1261 H 0.94676 0.90709 0.12503 0.0
H1262 H 0.97787 0.86377 0.1259 0.0
C1263 C 0.05558 0.90963 0.14747 0.0
C1264 C 0.0086 0.92291 0.14401 0.0
C1265 C 0.07876 0.91967 0.15079 0.0
C1266 C 0.91328 0.87924 0.12956 0.0
C1267 C 0.93711 0.88978 0.12889 0.0
C1268 C 0.98627 0.88032 0.13092 0.0
C1269 C 0.04602 0.92316 0.14364 0.0
C1270 C 0.02124 0.91237 0.14017 0.0
C1271 C 0.94842 0.87846 0.13372 0.0
C1272 C 0.97368 0.8907 0.13503 0.0
H1273 H 0.09403 0.97549 0.14641 0.0
H1274 H 0.05371 0.95805 0.14028 0.0
H1275 H 0.019 0.88266 0.12996 0.0
H1276 H 0.90212 0.82863 0.14388 0.0
H1277 H 0.94365 0.84685 0.14239 0.0
C1278 C 0.14954 0.0824 0.35182 0.0
C1279 C 0.14105 0.06029 0.35715 0.0
C1280 C 0.13675 0.09347 0.35286 0.0
C1281 C 0.0776 0.08199 0.35946 0.0
H1282 H 0.10787 0.14717 0.36647 0.0
C1283 C 0.02641 0.12648 0.37246 0.0
C1284 C 0.03173 0.14602 0.36463 0.0
C1285 C 0.04094 0.11734 0.37244 0.0
C1286 C 0.09921 0.12898 0.36445 0.0
H1287 H 0.1126 0.03268 0.36796 0.0
H1288 H 0.09058 0.05197 0.37004 0.0
H1289 H 0.13057 0.12831 0.36429 0.0
H1290 H 0.05727 0.17205 0.3513 0.0
H1291 H 0.08277 0.15615 0.35142 0.0
H1292 H 0.04625 0.08262 0.3598 0.0
C1293 C 0.10683 0.06063 0.36471 0.0
C1294 C 0.11221 0.11816 0.36313 0.0
C1295 C 0.11949 0.04952 0.36354 0.0
C1296 C 0.05261 0.15696 0.35743 0.0
C1297 C 0.06726 0.14789 0.35751 0.0
C1298 C 0.06464 0.09275 0.36091 0.0
C1299 C 0.11524 0.08276 0.35938 0.0
C1300 C 0.10156 0.09449 0.36063 0.0
C1301 C 0.06124 0.1276 0.3647 0.0
C1302 C 0.07527 0.11635 0.36344 0.0
H1303 H 0.16598 0.09106 0.34672 0.0
H1304 H 0.14364 0.11033 0.34842 0.0
H1305 H 0.06878 0.06387 0.35724 0.0
H1306 H 0.0105 0.1176 0.37814 0.0
H1307 H 0.03603 0.10189 0.37826 0.0
C1308 C 0.90959 0.07424 0.35904 0.0
C1309 C 0.93337 0.08878 0.35868 0.0
C1310 C 0.90023 0.05143 0.36304 0.0
C1311 C 0.91546 0.00596 0.36799 0.0
H1312 H 0.8578 0.97594 0.38772 0.0
C1313 C 0.87693 0.91356 0.3872 0.0
C1314 C 0.85476 0.89907 0.38213 0.0
C1315 C 0.88641 0.93728 0.38673 0.0
C1316 C 0.87394 0.98415 0.38225 0.0
H1317 H 0.96601 0.09101 0.36251 0.0
H1318 H 0.94982 0.05149 0.36983 0.0
H1319 H 0.87495 0.01626 0.38173 0.0
H1320 H 0.82455 0.89797 0.3736 0.0
H1321 H 0.84092 0.93933 0.37311 0.0
H1322 H 0.91447 0.97382 0.36865 0.0
C1323 C 0.93828 0.05737 0.36662 0.0
C1324 C 0.88371 0.00721 0.37869 0.0
C1325 C 0.94762 0.08007 0.36243 0.0
C1326 C 0.84167 0.90871 0.37759 0.0
C1327 C 0.85103 0.93239 0.37732 0.0
C1328 C 0.90586 0.98303 0.37172 0.0
C1329 C 0.91444 0.04269 0.36699 0.0
C1330 C 0.90447 0.01837 0.37134 0.0
C1331 C 0.87378 0.94692 0.38139 0.0
C1332 C 0.88488 0.97181 0.37874 0.0
H1333 H 0.89825 0.08051 0.35612 0.0
H1334 H 0.88183 0.04061 0.36288 0.0
H1335 H 0.93121 0.01373 0.36213 0.0
H1336 H 0.88752 0.90668 0.39065 0.0
H1337 H 0.90394 0.94812 0.39004 0.0
C1338 C 0.92993 0.88359 0.36257 0.0
C1339 C 0.91548 0.86806 0.37258 0.0
C1340 C 0.95302 0.8985 0.36551 0.0
C1341 C 0.99436 0.92745 0.39331 0.0
H1342 H 0.03835 0.92621 0.36809 0.0
C1343 C 0.09374 0.99161 0.3901 0.0
C1344 C 0.10689 0.98089 0.38861 0.0
C1345 C 0.0698 0.97849 0.39065 0.0
C1346 C 0.02624 0.92673 0.37522 0.0
H1347 H 0.91361 0.85655 0.39366 0.0
H1348 H 0.95397 0.88289 0.39887 0.0
H1349 H 0.99753 0.90267 0.36328 0.0
H1350 H 0.10556 0.94818 0.38838 0.0
H1351 H 0.06401 0.92547 0.38918 0.0
H1352 H 0.02336 0.95191 0.40513 0.0
C1353 C 0.94744 0.88334 0.38873 0.0
C1354 C 1.00293 0.91339 0.37242 0.0
C1355 C 0.92445 0.86812 0.3857 0.0
C1356 C 0.09586 0.95693 0.38922 0.0
C1357 C 0.07209 0.94391 0.38966 0.0
C1358 C 0.01782 0.94122 0.39598 0.0
C1359 C 0.962 0.89849 0.37861 0.0
C1360 C 0.98673 0.91345 0.38148 0.0
C1361 C 0.05881 0.95455 0.38972 0.0
C1362 C 0.03393 0.94072 0.38703 0.0
H1363 H 0.92343 0.88387 0.35239 0.0
H1364 H 0.96388 0.91006 0.35754 0.0
H1365 H 0.98217 0.92784 0.40043 0.0
H1366 H 0.10176 0.01003 0.38968 0.0
H1367 H 0.05988 0.98707 0.39076 0.0
C1368 C 0.87574 0.96843 0.86806 0.0
C1369 C 0.86028 0.96766 0.85805 0.0
C1370 C 0.88483 0.95385 0.86712 0.0
C1371 C 0.89902 0.92352 0.84115 0.0
H1372 H 0.9067 0.89213 0.87237 0.0
C1373 C 0.95712 0.88268 0.84005 0.0
C1374 C 0.94749 0.86054 0.84555 0.0
C1375 C 0.94591 0.8953 0.84147 0.0
C1376 C 0.90462 0.90076 0.86355 0.0
H1377 H 0.84137 0.95003 0.83958 0.0
H1378 H 0.85733 0.92476 0.83796 0.0
H1379 H 0.88695 0.91387 0.87552 0.0
H1380 H 0.91867 0.83455 0.85708 0.0
H1381 H 0.89922 0.85647 0.85949 0.0
H1382 H 0.91686 0.91059 0.82921 0.0
C1383 C 0.86255 0.9368 0.84646 0.0
C1384 C 0.89343 0.91329 0.86537 0.0
C1385 C 0.85326 0.95117 0.84748 0.0
C1386 C 0.9264 0.85134 0.85248 0.0
C1387 C 0.91537 0.86403 0.85403 0.0
C1388 C 0.91048 0.91125 0.83937 0.0
C1389 C 0.87884 0.93835 0.85608 0.0
C1390 C 0.8904 0.92472 0.85418 0.0
C1391 C 0.92502 0.88617 0.8486 0.0
C1392 C 0.91332 0.89965 0.85053 0.0
H1393 H 0.88154 0.9809 0.87634 0.0
H1394 H 0.89737 0.95546 0.87469 0.0
H1395 H 0.89719 0.93238 0.83236 0.0
H1396 H 0.97335 0.89023 0.8347 0.0
H1397 H 0.95383 0.9124 0.83725 0.0
C1398 C 1.00088 0.90732 0.87224 0.0
C1399 C 0.01427 0.89802 0.87681 0.0
C1400 C 0.01082 0.93087 0.8701 0.0
C1401 C 0.04317 0.97494 0.85446 0.0
H1402 H 0.08713 0.02278 0.87845 0.0
C1403 C 0.11863 0.06 0.8352 0.0
C1404 C 0.12299 0.08021 0.84193 0.0
C1405 C 0.10166 0.03878 0.84007 0.0
C1406 C 0.07468 0.00965 0.8717 0.0
H1407 H 0.04798 0.90615 0.88376 0.0
H1408 H 0.0651 0.94732 0.88055 0.0
H1409 H 0.06394 0.98385 0.88736 0.0
H1410 H 0.11286 0.09414 0.85887 0.0
H1411 H 0.0834 0.05683 0.86765 0.0
H1412 H 0.0548 1.00042 0.83859 0.0
C1413 C 0.04703 0.93644 0.87847 0.0
C1414 C 0.06151 0.98739 0.87678 0.0
C1415 C 0.03723 0.91288 0.88033 0.0
C1416 C 0.10965 0.07881 0.85344 0.0
C1417 C 0.09297 0.05751 0.8585 0.0
C1418 C 0.05663 0.99707 0.84932 0.0
C1419 C 0.03418 0.94557 0.87279 0.0
C1420 C 0.04587 0.96974 0.86815 0.0
C1421 C 0.08899 0.03728 0.85193 0.0
C1422 C 0.07278 0.01456 0.85782 0.0
H1423 H 0.98322 0.89629 0.86926 0.0
H1424 H 1.00051 0.93748 0.86576 0.0
H1425 H 0.03145 0.96164 0.84752 0.0
H1426 H 0.12863 0.06065 0.82629 0.0
H1427 H 0.09908 0.02346 0.83486 0.0
C1428 C 0.10662 0.13404 0.86872 0.0
C1429 C 0.11988 0.15305 0.86026 0.0
C1430 C 0.08286 0.12459 0.86942 0.0
C1431 C 0.03612 0.12038 0.84784 0.0
H1432 H 0.99851 0.09354 0.88029 0.0
C1433 C 0.93814 0.0633 0.84399 0.0
C1434 C 0.92512 0.06739 0.85371 0.0
C1435 C 0.96183 0.07337 0.84555 0.0
C1436 C 0.0088 0.10105 0.87114 0.0
H1437 H 0.11886 0.17837 0.84701 0.0
H1438 H 0.07768 0.16227 0.84849 0.0
H1439 H 0.04017 0.11352 0.88242 0.0
H1440 H 0.92679 0.08465 0.87296 0.0
H1441 H 0.96806 0.10243 0.87557 0.0
H1442 H 0.00492 0.10818 0.83657 0.0
C1443 C 0.08548 0.15418 0.85422 0.0
C1444 C 0.03265 0.11235 0.87235 0.0
C1445 C 0.10914 0.16354 0.85348 0.0
C1446 C 0.93632 0.08141 0.86517 0.0
C1447 C 0.95997 0.09138 0.86676 0.0
C1448 C 0.01235 0.10902 0.84662 0.0
C1449 C 0.07196 0.13409 0.86175 0.0
C1450 C 0.04659 0.12227 0.86071 0.0
C1451 C 0.97305 0.08767 0.85691 0.0
C1452 C 0.99837 0.09925 0.85825 0.0
H1453 H 0.11435 0.12556 0.8741 0.0
H1454 H 0.07295 0.10912 0.87533 0.0
H1455 H 0.04633 0.12748 0.83861 0.0
H1456 H 0.93011 0.05269 0.83502 0.0
H1457 H 0.97139 0.06995 0.83785 0.0
C1458 C 0.9775 0.87456 0.63664 0.0
C1459 C 0.97301 0.85584 0.64505 0.0
C1460 C 0.96332 0.88412 0.63706 0.0
C1461 C 0.92153 0.88817 0.66006 0.0
H1462 H 0.91092 0.91572 0.62789 0.0
C1463 C 0.85846 0.92275 0.65973 0.0
C1464 C 0.86552 0.94363 0.65299 0.0
C1465 C 0.87161 0.91208 0.65897 0.0
C1466 C 0.91393 0.90829 0.637 0.0
H1467 H 0.94935 0.83174 0.65998 0.0
H1468 H 0.9242 0.84796 0.6604 0.0
H1469 H 0.93221 0.89553 0.62545 0.0
H1470 H 0.8921 0.9698 0.6403 0.0
H1471 H 0.91513 0.95118 0.63898 0.0
H1472 H 0.90294 0.90073 0.67154 0.0
C1473 C 0.93907 0.85569 0.65375 0.0
C1474 C 0.92614 0.8967 0.63561 0.0
C1475 C 0.95337 0.84623 0.65341 0.0
C1476 C 0.8863 0.95385 0.64571 0.0
C1477 C 0.89935 0.94304 0.64482 0.0
C1478 C 0.90916 0.8996 0.66142 0.0
C1479 C 0.94415 0.8751 0.64582 0.0
C1480 C 0.93022 0.88656 0.64714 0.0
C1481 C 0.89203 0.92192 0.65133 0.0
C1482 C 0.90531 0.90989 0.64992 0.0
H1483 H 0.99256 0.88255 0.63015 0.0
H1484 H 0.968 0.89919 0.63092 0.0
H1485 H 0.92469 0.88103 0.66923 0.0
H1486 H 0.84262 0.91456 0.66549 0.0
H1487 H 0.86544 0.89577 0.66404 0.0
C1488 C 0.09366 0.92673 0.64076 0.0
C1489 C 0.07035 0.91257 0.64369 0.0
C1490 C 0.1018 0.94882 0.63568 0.0
C1491 C 0.08605 0.99402 0.63265 0.0
H1492 H 0.13599 0.0199 0.60633 0.0
C1493 C 0.11904 0.0839 0.61087 0.0
C1494 C 0.14264 0.09844 0.6128 0.0
C1495 C 0.10943 0.06023 0.61198 0.0
C1496 C 0.12201 0.01286 0.61366 0.0
H1497 H 0.03717 0.91024 0.64327 0.0
H1498 H 0.05118 0.94851 0.63421 0.0
H1499 H 0.12065 0.98055 0.61409 0.0
H1500 H 0.17489 0.09948 0.61617 0.0
H1501 H 0.15815 0.05821 0.6179 0.0
H1502 H 0.08746 0.02633 0.63223 0.0
C1503 C 0.06338 0.94289 0.63617 0.0
C1504 C 0.11331 0.99037 0.61819 0.0
C1505 C 0.05531 0.92092 0.64139 0.0
C1506 C 0.15664 0.08873 0.61466 0.0
C1507 C 0.14705 0.06507 0.61563 0.0
C1508 C 0.09459 0.01638 0.62801 0.0
C1509 C 0.08674 0.95717 0.63325 0.0
C1510 C 0.09539 0.98075 0.6279 0.0
C1511 C 0.12325 0.05064 0.61488 0.0
C1512 C 0.11284 0.02614 0.61859 0.0
H1513 H 0.10563 0.92077 0.64252 0.0
H1514 H 0.11995 0.95942 0.63382 0.0
H1515 H 0.07254 0.98742 0.64029 0.0
H1516 H 0.10775 0.0908 0.60947 0.0
H1517 H 0.09106 0.04948 0.61116 0.0
C1518 C 0.90907 0.00977 0.61787 0.0
C1519 C 0.8968 0.02062 0.6219 0.0
C1520 C 0.93308 0.02179 0.61798 0.0
C1521 C 0.97951 0.06678 0.63723 0.0
H1522 H 0.02002 0.07518 0.60662 0.0
C1523 C 0.07821 0.11145 0.64311 0.0
C1524 C 0.09015 0.1297 0.63393 0.0
C1525 C 0.05482 0.09614 0.64121 0.0
C1526 C 0.00886 0.07281 0.61527 0.0
H1527 H 0.90032 0.0531 0.62823 0.0
H1528 H 0.94185 0.07364 0.62862 0.0
H1529 H 0.9784 0.05217 0.60339 0.0
H1530 H 0.08724 0.14562 0.61522 0.0
H1531 H 0.04657 0.11875 0.61179 0.0
H1532 H 0.00977 0.08737 0.64913 0.0
C1533 C 0.93293 0.05587 0.62548 0.0
C1534 C 0.98514 0.05961 0.61343 0.0
C1535 C 0.9091 0.04405 0.62518 0.0
C1536 C 0.0784 0.13195 0.6226 0.0
C1537 C 0.05519 0.11642 0.62054 0.0
C1538 C 1.00316 0.07955 0.63915 0.0
C1539 C 0.94514 0.04473 0.62227 0.0
C1540 C 0.97026 0.05688 0.62433 0.0
C1541 C 0.04309 0.09849 0.62989 0.0
C1542 C 0.01809 0.08306 0.62813 0.0
H1543 H 0.90019 0.99175 0.61534 0.0
H1544 H 0.94218 0.01286 0.61542 0.0
H1545 H 0.96837 0.06481 0.64581 0.0
H1546 H 0.08691 0.10932 0.65189 0.0
H1547 H 0.0459 0.08243 0.64856 0.0
C1548 C 0.74017 0.48403 0.46641 0.0
C1549 C 0.72527 0.47972 0.47761 0.0
C1550 C 0.75116 0.47134 0.46458 0.0
C1551 C 0.76967 0.43627 0.48369 0.0
H1552 H 0.77772 0.41784 0.44709 0.0
C1553 C 0.82906 0.39926 0.47466 0.0
C1554 C 0.82033 0.37941 0.46648 0.0
C1555 C 0.81815 0.41221 0.47506 0.0
C1556 C 0.77556 0.42278 0.45739 0.0
H1557 H 0.71007 0.45835 0.49558 0.0
H1558 H 0.72916 0.43601 0.49234 0.0
H1559 H 0.75595 0.43754 0.44995 0.0
H1560 H 0.79388 0.35839 0.45173 0.0
H1561 H 0.77497 0.38109 0.45236 0.0
H1562 H 0.78901 0.42129 0.49117 0.0
C1563 C 0.73247 0.44942 0.48503 0.0
C1564 C 0.76322 0.43424 0.45902 0.0
C1565 C 0.72135 0.46207 0.48682 0.0
C1566 C 0.8012 0.37364 0.45808 0.0
C1567 C 0.7903 0.38665 0.45846 0.0
C1568 C 0.78209 0.42493 0.48206 0.0
C1569 C 0.74762 0.45399 0.47391 0.0
C1570 C 0.76015 0.44116 0.4722 0.0
C1571 C 0.79826 0.40572 0.46727 0.0
C1572 C 0.78526 0.41809 0.46888 0.0
H1573 H 0.74335 0.49724 0.45899 0.0
H1574 H 0.76283 0.47548 0.45597 0.0
H1575 H 0.76785 0.44154 0.49397 0.0
H1576 H 0.84381 0.4043 0.48124 0.0
H1577 H 0.82504 0.42708 0.48172 0.0
C1578 C 0.60399 0.43581 0.47609 0.0
C1579 C 0.62519 0.44479 0.4693 0.0
C1580 C 0.58901 0.41218 0.47658 0.0
C1581 C 0.59185 0.36001 0.47736 0.0
H1582 H 0.52625 0.32806 0.47182 0.0
C1583 C 0.53933 0.26216 0.48049 0.0
C1584 C 0.51707 0.25178 0.48589 0.0
C1585 C 0.55144 0.28556 0.47781 0.0
C1586 C 0.54451 0.33673 0.47362 0.0
H1587 H 0.64651 0.43596 0.45695 0.0
H1588 H 0.62047 0.39488 0.45793 0.0
H1589 H 0.54865 0.36919 0.46764 0.0
H1590 H 0.49011 0.25785 0.49281 0.0
H1591 H 0.51157 0.29903 0.48866 0.0
H1592 H 0.58796 0.32814 0.48385 0.0
C1593 C 0.61554 0.40612 0.46293 0.0
C1594 C 0.55732 0.36028 0.47113 0.0
C1595 C 0.63037 0.4297 0.46228 0.0
C1596 C 0.5072 0.2654 0.48859 0.0
C1597 C 0.51949 0.28898 0.48612 0.0
C1598 C 0.57907 0.33664 0.48005 0.0
C1599 C 0.59505 0.39709 0.47044 0.0
C1600 C 0.58116 0.3721 0.47285 0.0
C1601 C 0.54182 0.29941 0.48069 0.0
C1602 C 0.55522 0.32456 0.47811 0.0
H1603 H 0.59943 0.44694 0.48158 0.0
H1604 H 0.57332 0.40568 0.48245 0.0
H1605 H 0.61014 0.36877 0.47908 0.0
H1606 H 0.54724 0.25208 0.47803 0.0
H1607 H 0.56829 0.2927 0.47329 0.0
C1608 C 0.74065 0.28963 0.46398 0.0
C1609 C 0.75135 0.29966 0.47657 0.0
C1610 C 0.71774 0.28295 0.46174 0.0
C1611 C 0.6653 0.26149 0.48119 0.0
H1612 H 0.63908 0.26524 0.44628 0.0
C1613 C 0.57255 0.19833 0.46784 0.0
C1614 C 0.55883 0.20783 0.46443 0.0
C1615 C 0.59631 0.21177 0.4679 0.0
C1616 C 0.6462 0.2642 0.4561 0.0
H1617 H 0.74694 0.31169 0.49642 0.0
H1618 H 0.70647 0.2996 0.49263 0.0
H1619 H 0.68067 0.28715 0.44966 0.0
H1620 H 0.55946 0.23842 0.45704 0.0
H1621 H 0.60126 0.26189 0.4569 0.0
H1622 H 0.63104 0.23804 0.48751 0.0
C1623 C 0.71592 0.29698 0.48448 0.0
C1624 C 0.66994 0.27667 0.45803 0.0
C1625 C 0.73904 0.304 0.48664 0.0
C1626 C 0.56951 0.23059 0.45979 0.0
C1627 C 0.59343 0.24406 0.45976 0.0
C1628 C 0.64169 0.24883 0.4792 0.0
C1629 C 0.70491 0.2859 0.47212 0.0
C1630 C 0.67974 0.27519 0.47055 0.0
C1631 C 0.60696 0.23498 0.46439 0.0
C1632 C 0.63193 0.24974 0.46656 0.0
H1633 H 0.7499 0.28636 0.456 0.0
H1634 H 0.70976 0.27434 0.45216 0.0
H1635 H 0.67231 0.25977 0.49088 0.0
H1636 H 0.56494 0.18076 0.47119 0.0
H1637 H 0.60637 0.2042 0.47119 0.0
C1638 C 0.79903 0.38705 0.6901 0.0
C1639 C 0.81847 0.39361 0.69837 0.0
C1640 C 0.786 0.39782 0.69157 0.0
C1641 C 0.75483 0.41529 0.70249 0.0
H1642 H 0.78698 0.48116 0.70681 0.0
C1643 C 0.70704 0.46406 0.71467 0.0
C1644 C 0.713 0.48348 0.70655 0.0
C1645 C 0.72057 0.45375 0.7146 0.0
C1646 C 0.77775 0.46278 0.70558 0.0
H1647 H 0.83868 0.41604 0.71513 0.0
H1648 H 0.81623 0.43483 0.71754 0.0
H1649 H 0.80864 0.46132 0.7043 0.0
H1650 H 0.73856 0.50793 0.69254 0.0
H1651 H 0.76224 0.49007 0.69254 0.0
H1652 H 0.72394 0.41679 0.70358 0.0
C1653 C 0.8113 0.42167 0.70973 0.0
C1654 C 0.79015 0.45137 0.70425 0.0
C1655 C 0.82422 0.41088 0.70832 0.0
C1656 C 0.73346 0.49302 0.69893 0.0
C1657 C 0.74707 0.48279 0.69895 0.0
C1658 C 0.74243 0.42668 0.70391 0.0
C1659 C 0.79214 0.41544 0.70131 0.0
C1660 C 0.77885 0.42749 0.70267 0.0
C1661 C 0.74048 0.4627 0.7065 0.0
C1662 C 0.75374 0.45057 0.70545 0.0
H1663 H 0.79416 0.37397 0.68227 0.0
H1664 H 0.77141 0.39273 0.68484 0.0
H1665 H 0.74561 0.39688 0.70139 0.0
H1666 H 0.69139 0.45618 0.72064 0.0
H1667 H 0.71522 0.43851 0.72072 0.0
C1668 C 0.6284 0.41471 0.70091 0.0
C1669 C 0.61504 0.42533 0.70044 0.0
C1670 C 0.61841 0.39141 0.70378 0.0
C1671 C 0.56708 0.34247 0.71909 0.0
H1672 H 0.58478 0.3064 0.69655 0.0
C1673 C 0.51465 0.24377 0.71561 0.0
C1674 C 0.52631 0.23181 0.71291 0.0
C1675 C 0.52658 0.26764 0.71638 0.0
C1676 C 0.57992 0.31622 0.70315 0.0
H1677 H 0.5806 0.41957 0.70261 0.0
H1678 H 0.56319 0.37893 0.70762 0.0
H1679 H 0.60328 0.3474 0.69304 0.0
H1680 H 0.5598 0.2354 0.71011 0.0
H1681 H 0.58062 0.2769 0.71188 0.0
H1682 H 0.54352 0.31117 0.7291 0.0
C1683 C 0.58147 0.38874 0.70593 0.0
C1684 C 0.59051 0.33978 0.70109 0.0
C1685 C 0.59145 0.41205 0.70303 0.0
C1686 C 0.55029 0.24411 0.71208 0.0
C1687 C 0.56221 0.26793 0.71295 0.0
C1688 C 0.55653 0.31886 0.72119 0.0
C1689 C 0.59482 0.37812 0.70629 0.0
C1690 C 0.5841 0.35318 0.70894 0.0
C1691 C 0.55043 0.28006 0.71457 0.0
C1692 C 0.56269 0.3054 0.71316 0.0
H1693 H 0.64668 0.42445 0.69928 0.0
H1694 H 0.62924 0.38384 0.70418 0.0
H1695 H 0.56198 0.35236 0.72544 0.0
H1696 H 0.49618 0.23485 0.71622 0.0
H1697 H 0.5169 0.27636 0.71757 0.0
C1698 C 0.60346 0.17686 0.70702 0.0
C1699 C 0.59365 0.1855 0.69774 0.0
C1700 C 0.62713 0.18844 0.70923 0.0
C1701 C 0.68131 0.22852 0.69259 0.0
H1702 H 0.70686 0.24227 0.72959 0.0
C1703 C 0.77812 0.27331 0.70093 0.0
C1704 C 0.7871 0.29316 0.70913 0.0
C1705 C 0.75473 0.25749 0.70101 0.0
C1706 C 0.69995 0.23847 0.71921 0.0
H1707 H 0.60099 0.2128 0.68334 0.0
H1708 H 0.64223 0.23285 0.68706 0.0
H1709 H 0.66527 0.22014 0.72644 0.0
H1710 H 0.77863 0.31092 0.72466 0.0
H1711 H 0.73777 0.28313 0.72487 0.0
H1712 H 0.71576 0.24699 0.68529 0.0
C1713 C 0.63164 0.2172 0.69269 0.0
C1714 C 0.67619 0.22571 0.7174 0.0
C1715 C 0.60801 0.20583 0.69064 0.0
C1716 C 0.77233 0.29587 0.7182 0.0
C1717 C 0.74889 0.27992 0.71834 0.0
C1718 C 0.70498 0.24097 0.69438 0.0
C1719 C 0.64147 0.20867 0.70202 0.0
C1720 C 0.66664 0.2209 0.70406 0.0
C1721 C 0.73974 0.26101 0.70936 0.0
C1722 C 0.71459 0.2463 0.70769 0.0
H1723 H 0.59279 0.16133 0.71272 0.0
H1724 H 0.63426 0.18142 0.71644 0.0
H1725 H 0.67445 0.22492 0.68218 0.0
H1726 H 0.78891 0.27052 0.69386 0.0
H1727 H 0.74823 0.24287 0.69415 0.0
C1728 C 0.53687 0.30244 0.19801 0.0
C1729 C 0.51952 0.30019 0.189 0.0
C1730 C 0.54463 0.28673 0.1976 0.0
C1731 C 0.56903 0.26224 0.18714 0.0
H1732 H 0.52941 0.19763 0.18004 0.0
C1733 C 0.60544 0.2041 0.17167 0.0
C1734 C 0.59537 0.18229 0.17769 0.0
C1735 C 0.59528 0.21769 0.17302 0.0
C1736 C 0.54073 0.2156 0.18211 0.0
H1737 H 0.49588 0.27882 0.17303 0.0
H1738 H 0.5095 0.25165 0.17227 0.0
H1739 H 0.51278 0.22198 0.18378 0.0
H1740 H 0.5665 0.15775 0.18984 0.0
H1741 H 0.54889 0.18133 0.19219 0.0
H1742 H 0.59695 0.25584 0.18573 0.0
C1743 C 0.51706 0.26547 0.17971 0.0
C1744 C 0.53119 0.22962 0.18414 0.0
C1745 C 0.50928 0.28114 0.18013 0.0
C1746 C 0.5746 0.17425 0.18484 0.0
C1747 C 0.56447 0.18784 0.18622 0.0
C1748 C 0.57856 0.24824 0.18513 0.0
C1749 C 0.53525 0.26839 0.18818 0.0
C1750 C 0.54522 0.25315 0.18664 0.0
C1751 C 0.5748 0.20985 0.18047 0.0
C1752 C 0.56456 0.22474 0.18253 0.0
H1753 H 0.5451 0.31683 0.20502 0.0
H1754 H 0.55832 0.28925 0.2045 0.0
H1755 H 0.58042 0.28032 0.18883 0.0
H1756 H 0.62125 0.21074 0.16594 0.0
H1757 H 0.60351 0.23437 0.16823 0.0
C1758 C 0.78131 0.40765 0.1929 0.0
C1759 C 0.80464 0.41457 0.19178 0.0
C1760 C 0.76528 0.38511 0.19634 0.0
C1761 C 0.76032 0.33239 0.21169 0.0
H1762 H 0.70239 0.30233 0.19225 0.0
C1763 C 0.70341 0.23466 0.20746 0.0
C1764 C 0.67954 0.22502 0.20695 0.0
C1765 C 0.71772 0.2583 0.2083 0.0
C1766 C 0.71829 0.31057 0.19798 0.0
H1767 H 0.82933 0.40312 0.19324 0.0
H1768 H 0.80143 0.36378 0.19903 0.0
H1769 H 0.72924 0.3425 0.18788 0.0
H1770 H 0.65196 0.23266 0.20782 0.0
H1771 H 0.67701 0.274 0.20939 0.0
H1772 H 0.74957 0.3002 0.22148 0.0
C1773 C 0.79552 0.37586 0.19755 0.0
C1774 C 0.73374 0.33363 0.19545 0.0
C1775 C 0.81154 0.39841 0.19417 0.0
C1776 C 0.67026 0.2395 0.20823 0.0
C1777 C 0.68462 0.26321 0.20898 0.0
C1778 C 0.74489 0.3093 0.21419 0.0
C1779 C 0.77218 0.36891 0.19872 0.0
C1780 C 0.75511 0.34477 0.20211 0.0
C1781 C 0.70852 0.27291 0.20859 0.0
C1782 C 0.72383 0.29802 0.20721 0.0
H1783 H 0.77546 0.41976 0.1914 0.0
H1784 H 0.74751 0.38048 0.19734 0.0
H1785 H 0.77641 0.34052 0.21723 0.0
H1786 H 0.71112 0.224 0.20652 0.0
H1787 H 0.73603 0.26515 0.20791 0.0
C1788 C 0.76895 0.49274 0.18722 0.0
C1789 C 0.77765 0.48208 0.19579 0.0
C1790 C 0.74546 0.48478 0.18667 0.0
C1791 C 0.69542 0.45356 0.17964 0.0
H1792 H 0.65546 0.43046 0.21149 0.0
C1793 C 0.59718 0.39803 0.17421 0.0
C1794 C 0.58368 0.40222 0.18352 0.0
C1795 C 0.62087 0.40849 0.17605 0.0
C1796 C 0.66638 0.43699 0.20249 0.0
H1797 H 0.76844 0.45539 0.21104 0.0
H1798 H 0.72759 0.44153 0.21003 0.0
H1799 H 0.69675 0.44899 0.21466 0.0
H1800 H 0.58469 0.42041 0.20225 0.0
H1801 H 0.62586 0.43891 0.20527 0.0
H1802 H 0.6651 0.44181 0.16748 0.0
C1803 C 0.73891 0.45613 0.20379 0.0
C1804 C 0.69006 0.44743 0.2043 0.0
C1805 C 0.76241 0.46411 0.20436 0.0
C1806 C 0.5945 0.417 0.19475 0.0
C1807 C 0.61814 0.42741 0.1966 0.0
C1808 C 0.67175 0.4431 0.17783 0.0
C1809 C 0.73007 0.46597 0.19466 0.0
C1810 C 0.70489 0.45579 0.19289 0.0
C1811 C 0.63166 0.42334 0.18726 0.0
C1812 C 0.6569 0.4346 0.18922 0.0
H1813 H 0.78018 0.5067 0.18052 0.0
H1814 H 0.7393 0.49308 0.17973 0.0
H1815 H 0.70627 0.45948 0.17058 0.0
H1816 H 0.58951 0.3869 0.1654 0.0
H1817 H 0.63071 0.40475 0.16874 0.0
C1818 C 0.53265 0.26226 0.98213 0.0
C1819 C 0.54024 0.28581 0.98175 0.0
C1820 C 0.54746 0.25406 0.97898 0.0
C1821 C 0.60826 0.2703 0.97589 0.0
H1822 H 0.58385 0.2166 0.95242 0.0
C1823 C 0.6634 0.23076 0.95956 0.0
C1824 C 0.65279 0.20712 0.96192 0.0
C1825 C 0.65053 0.24184 0.95971 0.0
C1826 C 0.59093 0.23157 0.95901 0.0
H1827 H 0.57046 0.31919 0.97878 0.0
H1828 H 0.59598 0.30484 0.97325 0.0
H1829 H 0.56002 0.233 0.95839 0.0
H1830 H 0.62015 0.17631 0.96503 0.0
H1831 H 0.59784 0.19542 0.96513 0.0
H1832 H 0.63904 0.26855 0.97674 0.0
C1833 C 0.5784 0.29272 0.97585 0.0
C1834 C 0.57723 0.24093 0.96248 0.0
C1835 C 0.56358 0.30095 0.97901 0.0
C1836 C 0.62888 0.19456 0.96325 0.0
C1837 C 0.61605 0.20555 0.96327 0.0
C1838 C 0.62198 0.2609 0.97244 0.0
C1839 C 0.57037 0.26914 0.97546 0.0
C1840 C 0.58556 0.26014 0.97118 0.0
C1841 C 0.62678 0.22941 0.96198 0.0
C1842 C 0.61332 0.24115 0.96416 0.0
H1843 H 0.51514 0.24993 0.98461 0.0
H1844 H 0.54088 0.23581 0.9792 0.0
H1845 H 0.61518 0.28505 0.98266 0.0
H1846 H 0.68177 0.24092 0.95846 0.0
H1847 H 0.65928 0.26021 0.95848 0.0
C1848 C 0.74853 0.27177 0.98586 0.0
C1849 C 0.72529 0.25514 0.9873 0.0
C1850 C 0.75501 0.29358 0.98093 0.0
C1851 C 0.73659 0.33577 0.97626 0.0
H1852 H 0.78291 0.35911 0.94761 0.0
C1853 C 0.77222 0.42705 0.95532 0.0
C1854 C 0.79622 0.43975 0.95524 0.0
C1855 C 0.76085 0.40319 0.9564 0.0
C1856 C 0.77001 0.35292 0.95563 0.0
H1857 H 0.69077 0.24974 0.98561 0.0
H1858 H 0.70223 0.28776 0.97723 0.0
H1859 H 0.76885 0.32071 0.95658 0.0
H1860 H 0.82703 0.43736 0.9548 0.0
H1861 H 0.80745 0.39611 0.95655 0.0
H1862 H 0.7384 0.36829 0.97574 0.0
C1863 C 0.71536 0.2836 0.97972 0.0
C1864 C 0.76199 0.33092 0.96078 0.0
C1865 C 0.70882 0.26167 0.98456 0.0
C1866 C 0.80851 0.42804 0.95486 0.0
C1867 C 0.79721 0.4043 0.95585 0.0
C1868 C 0.74478 0.35791 0.9712 0.0
C1869 C 0.73849 0.29957 0.97749 0.0
C1870 C 0.74557 0.32228 0.97136 0.0
C1871 C 0.77329 0.39161 0.95724 0.0
C1872 C 0.762 0.36696 0.96103 0.0
H1873 H 0.76188 0.26793 0.98823 0.0
H1874 H 0.77304 0.30576 0.97969 0.0
H1875 H 0.72394 0.32957 0.98443 0.0
H1876 H 0.76227 0.43559 0.95568 0.0
H1877 H 0.74239 0.39393 0.9572 0.0
C1878 C 0.74009 0.43497 0.983 0.0
C1879 C 0.74828 0.45866 0.98331 0.0
C1880 C 0.71847 0.41983 0.97753 0.0
C1881 C 0.6745 0.41919 0.95424 0.0
H1882 H 0.63287 0.36233 0.97247 0.0
C1883 C 0.5772 0.37564 0.95019 0.0
C1884 C 0.56394 0.35174 0.95087 0.0
C1885 C 0.60099 0.38649 0.95082 0.0
C1886 C 0.64446 0.37791 0.96707 0.0
H1887 H 0.73936 0.48462 0.97841 0.0
H1888 H 0.7018 0.4584 0.96948 0.0
H1889 H 0.67182 0.38551 0.98118 0.0
H1890 H 0.56529 0.32037 0.95138 0.0
H1891 H 0.607 0.33942 0.95272 0.0
H1892 H 0.64688 0.41206 0.94049 0.0
C1893 C 0.71232 0.45154 0.97311 0.0
C1894 C 0.66677 0.39123 0.9721 0.0
C1895 C 0.73385 0.46662 0.97851 0.0
C1896 C 0.57504 0.33883 0.95091 0.0
C1897 C 0.59891 0.34972 0.95179 0.0
C1898 C 0.65222 0.40594 0.94927 0.0
C1899 C 0.70451 0.42803 0.97229 0.0
C1900 C 0.68181 0.41238 0.966 0.0
C1901 C 0.61206 0.37369 0.95227 0.0
C1902 C 0.63675 0.38549 0.95586 0.0
H1903 H 0.75051 0.42809 0.98672 0.0
H1904 H 0.71296 0.4018 0.97708 0.0
H1905 H 0.68584 0.43509 0.94907 0.0
H1906 H 0.56915 0.38605 0.95009 0.0
H1907 H 0.61059 0.40497 0.9512 0.0
C1908 C 0.42964 0.82883 0.81767 0.0
C1909 C 0.41057 0.8215 0.8264 0.0
C1910 C 0.44026 0.81576 0.81603 0.0
C1911 C 0.44836 0.77134 0.83253 0.0
H1912 H 0.46507 0.76248 0.79561 0.0
C1913 C 0.50325 0.72898 0.82323 0.0
C1914 C 0.49496 0.7115 0.81322 0.0
C1915 C 0.49411 0.74349 0.82434 0.0
C1916 C 0.46049 0.76476 0.80598 0.0
H1917 H 0.38793 0.7947 0.84037 0.0
H1918 H 0.40662 0.77182 0.83757 0.0
H1919 H 0.44602 0.78481 0.79887 0.0
H1920 H 0.47136 0.69647 0.79606 0.0
H1921 H 0.45571 0.72201 0.79789 0.0
H1922 H 0.46271 0.75119 0.83963 0.0
C1923 C 0.41333 0.78779 0.83201 0.0
C1924 C 0.44971 0.77768 0.80786 0.0
C1925 C 0.40253 0.8008 0.83356 0.0
C1926 C 0.47819 0.70973 0.80388 0.0
C1927 C 0.4692 0.72439 0.80492 0.0
C1928 C 0.45935 0.75861 0.83066 0.0
C1929 C 0.43222 0.79505 0.82314 0.0
C1930 C 0.44349 0.7811 0.82116 0.0
C1931 C 0.47664 0.74105 0.81539 0.0
C1932 C 0.46552 0.75514 0.81736 0.0
H1933 H 0.43611 0.84446 0.81181 0.0
H1934 H 0.45488 0.82195 0.80922 0.0
H1935 H 0.44394 0.77378 0.84291 0.0
H1936 H 0.51615 0.7309 0.8306 0.0
H1937 H 0.50048 0.7564 0.83237 0.0
C1938 C 0.29902 0.76918 0.80136 0.0
C1939 C 0.32292 0.77891 0.80082 0.0
C1940 C 0.28467 0.74553 0.80041 0.0
C1941 C 0.28511 0.69294 0.80846 0.0
H1942 H 0.22636 0.66312 0.78992 0.0
C1943 C 0.22584 0.59509 0.81061 0.0
C1944 C 0.20219 0.58662 0.81172 0.0
C1945 C 0.24083 0.61822 0.80795 0.0
C1946 C 0.2426 0.67119 0.79529 0.0
H1947 H 0.35038 0.77144 0.79809 0.0
H1948 H 0.32528 0.73011 0.7964 0.0
H1949 H 0.25211 0.70402 0.78678 0.0
H1950 H 0.17579 0.59584 0.81099 0.0
H1951 H 0.20193 0.63632 0.80668 0.0
H1952 H 0.27547 0.66045 0.81734 0.0
C1953 C 0.3177 0.74083 0.79768 0.0
C1954 C 0.25741 0.69463 0.79342 0.0
C1955 C 0.33207 0.76453 0.7985 0.0
C1956 C 0.19389 0.60182 0.81008 0.0
C1957 C 0.20891 0.62502 0.80754 0.0
C1958 C 0.27026 0.66958 0.81042 0.0
C1959 C 0.29387 0.73102 0.799 0.0
C1960 C 0.27878 0.70581 0.80005 0.0
C1961 C 0.23261 0.63356 0.80643 0.0
C1962 C 0.24871 0.65837 0.80395 0.0
H1963 H 0.29139 0.77976 0.80312 0.0
H1964 H 0.26642 0.73855 0.80153 0.0
H1965 H 0.30127 0.7011 0.81393 0.0
H1966 H 0.23275 0.58375 0.81151 0.0
H1967 H 0.25886 0.62399 0.80689 0.0
C1968 C 0.24739 0.51452 0.81257 0.0
C1969 C 0.238 0.52674 0.8063 0.0
C1970 C 0.27113 0.52375 0.81316 0.0
C1971 C 0.32328 0.57859 0.81527 0.0
H1972 H 0.35498 0.54636 0.80479 0.0
C1973 C 0.42189 0.62313 0.81643 0.0
C1974 C 0.4321 0.60997 0.81949 0.0
C1975 C 0.39823 0.6127 0.81451 0.0
C1976 C 0.34643 0.55552 0.80801 0.0
H1977 H 0.24623 0.55796 0.79539 0.0
H1978 H 0.28751 0.57409 0.79665 0.0
H1979 H 0.31366 0.52801 0.80171 0.0
H1980 H 0.4256 0.57575 0.82339 0.0
H1981 H 0.38429 0.55756 0.8207 0.0
H1982 H 0.35557 0.60573 0.82209 0.0
C1983 C 0.2765 0.55736 0.80103 0.0
C1984 C 0.32274 0.545 0.80614 0.0
C1985 C 0.25283 0.54799 0.80022 0.0
C1986 C 0.41816 0.58624 0.82088 0.0
C1987 C 0.39447 0.57584 0.81922 0.0
C1988 C 0.34686 0.58895 0.81739 0.0
C1989 C 0.28589 0.54553 0.80772 0.0
C1990 C 0.31098 0.5565 0.80967 0.0
C1991 C 0.38413 0.58886 0.81586 0.0
C1992 C 0.35885 0.57764 0.81373 0.0
H1993 H 0.23643 0.49814 0.81738 0.0
H1994 H 0.27795 0.5143 0.8184 0.0
H1995 H 0.31455 0.5877 0.81827 0.0
H1996 H 0.43231 0.64143 0.81511 0.0
H1997 H 0.39112 0.62335 0.81167 0.0
C1998 C 0.35257 0.77795 0.04654 0.0
C1999 C 0.36157 0.80145 0.04426 0.0
C2000 C 0.36642 0.76806 0.04502 0.0
C2001 C 0.41819 0.77886 0.02606 0.0
H2002 H 0.41516 0.72966 0.04812 0.0
C2003 C 0.48359 0.74829 0.02012 0.0
C2004 C 0.47615 0.72492 0.02166 0.0
C2005 C 0.46883 0.75676 0.02271 0.0
C2006 C 0.41598 0.74319 0.04174 0.0
H2007 H 0.39271 0.83332 0.04003 0.0
H2008 H 0.41681 0.81625 0.03776 0.0
H2009 H 0.39148 0.74633 0.0543 0.0
H2010 H 0.44659 0.69201 0.02647 0.0
H2011 H 0.42088 0.70673 0.03082 0.0
H2012 H 0.4425 0.77574 0.01346 0.0
C2013 C 0.39891 0.80528 0.04022 0.0
C2014 C 0.40246 0.75279 0.04532 0.0
C2015 C 0.38511 0.81511 0.04166 0.0
C2016 C 0.45314 0.71011 0.02526 0.0
C2017 C 0.43837 0.7186 0.0279 0.0
C2018 C 0.43162 0.76926 0.02247 0.0
C2019 C 0.38956 0.78153 0.0413 0.0
C2020 C 0.40361 0.77093 0.0376 0.0
C2021 C 0.44613 0.74209 0.02686 0.0
C2022 C 0.43088 0.75145 0.03033 0.0
H2023 H 0.33454 0.76693 0.04861 0.0
H2024 H 0.35867 0.74971 0.04597 0.0
H2025 H 0.41907 0.7924 0.01966 0.0
H2026 H 0.50099 0.76023 0.01711 0.0
H2027 H 0.47548 0.77497 0.02185 0.0
C2028 C 0.20154 0.57565 0.04647 0.0
C2029 C 0.21405 0.56416 0.04643 0.0
C2030 C 0.21272 0.59943 0.04648 0.0
C2031 C 0.26659 0.64757 0.03426 0.0
H2032 H 0.23991 0.68255 0.04868 0.0
C2033 C 0.30188 0.74462 0.02364 0.0
C2034 C 0.28528 0.75076 0.02046 0.0
C2035 C 0.29541 0.72241 0.0279 0.0
C2036 C 0.24752 0.67298 0.04455 0.0
H2037 H 0.24804 0.56858 0.04783 0.0
H2038 H 0.26771 0.61035 0.0479 0.0
H2039 H 0.22549 0.64346 0.05648 0.0
H2040 H 0.24879 0.73733 0.01806 0.0
H2041 H 0.23765 0.69892 0.02561 0.0
H2042 H 0.28849 0.67721 0.02223 0.0
C2043 C 0.24921 0.60089 0.04765 0.0
C2044 C 0.23931 0.6506 0.04904 0.0
C2045 C 0.23794 0.57696 0.04777 0.0
C2046 C 0.26211 0.73363 0.02083 0.0
C2047 C 0.25567 0.71154 0.02517 0.0
C2048 C 0.27497 0.67009 0.02986 0.0
C2049 C 0.23672 0.61237 0.04645 0.0
C2050 C 0.24824 0.63735 0.04364 0.0
C2051 C 0.27221 0.70584 0.02909 0.0
C2052 C 0.26504 0.68278 0.03466 0.0
H2053 H 0.18309 0.56627 0.04554 0.0
H2054 H 0.20247 0.60758 0.04548 0.0
H2055 H 0.27372 0.63781 0.02975 0.0
H2056 H 0.31989 0.75706 0.02343 0.0
H2057 H 0.30856 0.71847 0.03078 0.0
C2058 C 0.43487 0.66065 0.04975 0.0
C2059 C 0.44811 0.64995 0.04873 0.0
C2060 C 0.41121 0.64813 0.04746 0.0
C2061 C 0.37197 0.59918 0.02675 0.0
H2062 H 0.3228 0.60092 0.04632 0.0
C2063 C 0.27787 0.53552 0.01472 0.0
C2064 C 0.26137 0.5423 0.01612 0.0
C2065 C 0.30055 0.5501 0.01857 0.0
C2066 C 0.33639 0.60054 0.0406 0.0
H2067 H 0.44653 0.61725 0.0464 0.0
H2068 H 0.40547 0.59555 0.04266 0.0
H2069 H 0.36204 0.62319 0.05498 0.0
H2070 H 0.25679 0.57091 0.02181 0.0
H2071 H 0.29631 0.59633 0.02823 0.0
H2072 H 0.3468 0.57704 0.01224 0.0
C2073 C 0.4134 0.61368 0.04475 0.0
C2074 C 0.35881 0.61319 0.04563 0.0
C2075 C 0.43691 0.62612 0.04701 0.0
C2076 C 0.26866 0.56471 0.02073 0.0
C2077 C 0.29143 0.57936 0.02455 0.0
C2078 C 0.34973 0.58679 0.02166 0.0
C2079 C 0.40051 0.62474 0.04423 0.0
C2080 C 0.37673 0.61224 0.03889 0.0
C2081 C 0.30759 0.57208 0.02377 0.0
C2082 C 0.33154 0.58693 0.02864 0.0
H2083 H 0.44296 0.67895 0.05117 0.0
H2084 H 0.40163 0.65705 0.04722 0.0
H2085 H 0.38555 0.5986 0.02113 0.0
H2086 H 0.2733 0.51872 0.01094 0.0
H2087 H 0.31242 0.54378 0.01788 0.0
C2088 C 0.20522 0.64235 0.53928 0.0
C2089 C 0.18619 0.63674 0.53082 0.0
C2090 C 0.21585 0.62908 0.53902 0.0
C2091 C 0.22304 0.5895 0.5159 0.0
H2092 H 0.24886 0.57731 0.54833 0.0
C2093 C 0.28097 0.54915 0.51181 0.0
C2094 C 0.27675 0.53184 0.52136 0.0
C2095 C 0.27073 0.56265 0.51342 0.0
C2096 C 0.24167 0.58048 0.53917 0.0
H2097 H 0.16264 0.61196 0.51605 0.0
H2098 H 0.18084 0.58864 0.51583 0.0
H2099 H 0.22794 0.59793 0.55076 0.0
H2100 H 0.25919 0.5159 0.54043 0.0
H2101 H 0.24115 0.53906 0.54312 0.0
H2102 H 0.23639 0.57173 0.50433 0.0
C2103 C 0.18791 0.60361 0.52242 0.0
C2104 C 0.22983 0.59248 0.54056 0.0
C2105 C 0.17732 0.61687 0.52266 0.0
C2106 C 0.26255 0.52881 0.53275 0.0
C2107 C 0.2524 0.54231 0.53439 0.0
C2108 C 0.23492 0.57757 0.51451 0.0
C2109 C 0.20768 0.60987 0.53031 0.0
C2110 C 0.22024 0.59703 0.52895 0.0
C2111 C 0.25615 0.55926 0.52468 0.0
C2112 C 0.2443 0.5728 0.52613 0.0
H2113 H 0.21266 0.65764 0.54559 0.0
H2114 H 0.2311 0.63451 0.54517 0.0
H2115 H 0.21622 0.59301 0.5067 0.0
H2116 H 0.29172 0.55191 0.50289 0.0
H2117 H 0.27421 0.57574 0.50583 0.0
C2118 C 0.37682 0.57515 0.53615 0.0
C2119 C 0.37783 0.55928 0.52718 0.0
C2120 C 0.39367 0.59824 0.53572 0.0
C2121 C 0.43371 0.64002 0.51091 0.0
H2122 H 0.45531 0.68062 0.54259 0.0
C2123 C 0.4727 0.73771 0.50635 0.0
C2124 C 0.49154 0.75181 0.51475 0.0
C2125 C 0.46119 0.71397 0.50793 0.0
C2126 C 0.44963 0.66949 0.53364 0.0
H2127 H 0.39841 0.55506 0.51147 0.0
H2128 H 0.42779 0.59523 0.51082 0.0
H2129 H 0.43193 0.63943 0.54612 0.0
H2130 H 0.51314 0.7519 0.53136 0.0
H2131 H 0.49317 0.71049 0.53404 0.0
H2132 H 0.45115 0.67003 0.49842 0.0
C2133 C 0.41372 0.58989 0.518 0.0
C2134 C 0.43607 0.64591 0.53567 0.0
C2135 C 0.39693 0.5668 0.51845 0.0
C2136 C 0.49888 0.74156 0.5246 0.0
C2137 C 0.48726 0.71783 0.52625 0.0
C2138 C 0.44711 0.66357 0.50889 0.0
C2139 C 0.4119 0.606 0.52629 0.0
C2140 C 0.42778 0.6309 0.52432 0.0
C2141 C 0.46815 0.70377 0.51803 0.0
C2142 C 0.45504 0.67862 0.52021 0.0
H2143 H 0.36238 0.57 0.543 0.0
H2144 H 0.39169 0.6102 0.54222 0.0
H2145 H 0.42739 0.629 0.50192 0.0
H2146 H 0.46672 0.74505 0.49862 0.0
H2147 H 0.44642 0.70366 0.5015 0.0
C2148 C 0.25887 0.704 0.52489 0.0
C2149 C 0.25403 0.72164 0.52233 0.0
C2150 C 0.28081 0.7091 0.5291 0.0
C2151 C 0.33268 0.75495 0.54571 0.0
H2152 H 0.36532 0.72917 0.52694 0.0
C2153 C 0.42992 0.8012 0.54175 0.0
C2154 C 0.44142 0.78876 0.54075 0.0
C2155 C 0.40619 0.78997 0.54297 0.0
C2156 C 0.35631 0.73615 0.53255 0.0
H2157 H 0.26885 0.75843 0.5215 0.0
H2158 H 0.30667 0.7672 0.52893 0.0
H2159 H 0.325 0.71477 0.52169 0.0
H2160 H 0.43719 0.75481 0.54119 0.0
H2161 H 0.39553 0.73508 0.54344 0.0
H2162 H 0.36399 0.77675 0.55629 0.0
C2163 C 0.29346 0.74945 0.52799 0.0
C2164 C 0.33322 0.72794 0.52948 0.0
C2165 C 0.27174 0.7444 0.5237 0.0
C2166 C 0.42882 0.76487 0.54202 0.0
C2167 C 0.40494 0.75356 0.54314 0.0
C2168 C 0.35565 0.76306 0.54882 0.0
C2169 C 0.2982 0.73191 0.53092 0.0
C2170 C 0.32143 0.73784 0.53568 0.0
C2171 C 0.39332 0.76598 0.54317 0.0
C2172 C 0.36798 0.75434 0.54192 0.0
H2173 H 0.24561 0.68629 0.52405 0.0
H2174 H 0.28401 0.69523 0.53125 0.0
H2175 H 0.32387 0.76257 0.55087 0.0
H2176 H 0.43917 0.81964 0.54082 0.0
H2177 H 0.39787 0.80012 0.54284 0.0
C2178 C 0.30178 0.54548 0.28392 0.0
C2179 C 0.29505 0.52362 0.28916 0.0
C2180 C 0.28694 0.55434 0.28464 0.0
C2181 C 0.24176 0.55032 0.30692 0.0
H2182 H 0.23012 0.58337 0.27836 0.0
C2183 C 0.20195 0.60744 0.31779 0.0
C2184 C 0.18375 0.60389 0.30915 0.0
C2185 C 0.21491 0.59701 0.31484 0.0
C2186 C 0.2332 0.57412 0.28641 0.0
H2187 H 0.26667 0.4932 0.2981 0.0
H2188 H 0.24113 0.50877 0.29946 0.0
H2189 H 0.25347 0.5658 0.27309 0.0
H2190 H 0.16515 0.58701 0.29051 0.0
H2191 H 0.18791 0.56896 0.28529 0.0
H2192 H 0.2219 0.55893 0.32031 0.0
C2193 C 0.25794 0.51915 0.29499 0.0
C2194 C 0.24663 0.5642 0.28341 0.0
C2195 C 0.2726 0.51022 0.29415 0.0
C2196 C 0.1788 0.58973 0.29749 0.0
C2197 C 0.192 0.57963 0.2944 0.0
C2198 C 0.2287 0.56055 0.30998 0.0
C2199 C 0.26522 0.54156 0.29069 0.0
C2200 C 0.2509 0.55207 0.29363 0.0
C2201 C 0.2102 0.58319 0.30304 0.0
C2202 C 0.22421 0.57248 0.29975 0.0
H2203 H 0.31893 0.55627 0.28003 0.0
H2204 H 0.29297 0.57168 0.28122 0.0
H2205 H 0.24501 0.54131 0.31505 0.0
H2206 H 0.20615 0.61833 0.3268 0.0
H2207 H 0.22892 0.60013 0.32163 0.0
C2208 C 0.49375 0.76047 0.30461 0.0
C2209 C 0.48309 0.76946 0.29626 0.0
C2210 C 0.48619 0.73708 0.3045 0.0
C2211 C 0.44993 0.68274 0.28557 0.0
H2212 H 0.44077 0.65585 0.32204 0.0
C2213 C 0.41338 0.58582 0.29369 0.0
C2214 C 0.39673 0.57541 0.30407 0.0
C2215 C 0.42591 0.60959 0.29246 0.0
C2216 C 0.44315 0.66307 0.31178 0.0
H2217 H 0.45707 0.76099 0.28059 0.0
H2218 H 0.44391 0.72029 0.28043 0.0
H2219 H 0.45977 0.6972 0.31967 0.0
H2220 H 0.38062 0.582 0.32148 0.0
H2221 H 0.40223 0.62343 0.31923 0.0
H2222 H 0.43262 0.64852 0.27772 0.0
C2223 C 0.45816 0.73131 0.28704 0.0
C2224 C 0.45432 0.68681 0.3104 0.0
C2225 C 0.46571 0.75471 0.28715 0.0
C2226 C 0.39313 0.5894 0.31329 0.0
C2227 C 0.40572 0.61319 0.31209 0.0
C2228 C 0.43881 0.65897 0.28694 0.0
C2229 C 0.46783 0.72212 0.29602 0.0
C2230 C 0.45764 0.69694 0.29729 0.0
C2231 C 0.42217 0.62357 0.30161 0.0
C2232 C 0.43504 0.64885 0.30008 0.0
H2233 H 0.50728 0.77132 0.3117 0.0
H2234 H 0.49431 0.73061 0.31135 0.0
H2235 H 0.45235 0.68999 0.27532 0.0
H2236 H 0.41645 0.57561 0.28631 0.0
H2237 H 0.43859 0.61703 0.28436 0.0
C2238 C 0.23862 0.70893 0.28284 0.0
C2239 C 0.22678 0.68511 0.28443 0.0
C2240 C 0.26236 0.72096 0.2816 0.0
C2241 C 0.31316 0.74338 0.27633 0.0
H2242 H 0.34208 0.72515 0.30421 0.0
C2243 C 0.40075 0.80635 0.2997 0.0
C2244 C 0.41634 0.79875 0.30225 0.0
C2245 C 0.37838 0.79105 0.29554 0.0
C2246 C 0.33437 0.7303 0.29622 0.0
H2247 H 0.23025 0.65496 0.28491 0.0
H2248 H 0.27192 0.67599 0.28255 0.0
H2249 H 0.30167 0.70043 0.29902 0.0
H2250 H 0.42051 0.76892 0.30228 0.0
H2251 H 0.38136 0.74218 0.29522 0.0
H2252 H 0.34572 0.77364 0.2739 0.0
C2253 C 0.26282 0.6854 0.28244 0.0
C2254 C 0.3112 0.71607 0.29319 0.0
C2255 C 0.23895 0.67332 0.28361 0.0
C2256 C 0.40889 0.77536 0.30066 0.0
C2257 C 0.38646 0.76002 0.29653 0.0
C2258 C 0.3363 0.75763 0.27939 0.0
C2259 C 0.27485 0.70943 0.28196 0.0
C2260 C 0.30017 0.7227 0.28345 0.0
C2261 C 0.37099 0.76771 0.29385 0.0
C2262 C 0.34704 0.75151 0.28961 0.0
H2263 H 0.22963 0.71844 0.28337 0.0
H2264 H 0.27099 0.73943 0.28133 0.0
H2265 H 0.30529 0.74883 0.26862 0.0
H2266 H 0.40575 0.82414 0.30101 0.0
H2267 H 0.36676 0.79747 0.29384 0.0
C2268 C 0.97721 0.14239 0.29807 0.0
C2269 C 0.9742 0.15847 0.30563 0.0
C2270 C 0.97453 0.1409 0.2837 0.0
C2271 C 0.98242 0.17722 0.25439 0.0
H2272 H 0.9496 0.12111 0.23335 0.0
C2273 C 0.98116 0.17862 0.19479 0.0
C2274 C 0.98149 0.16066 0.1877 0.0
C2275 C 0.97775 0.17747 0.2091 0.0
C2276 C 0.95914 0.13694 0.23904 0.0
H2277 H 0.96508 0.18493 0.30414 0.0
H2278 H 0.9608 0.18258 0.27902 0.0
H2279 H 0.94758 0.11994 0.25856 0.0
H2280 H 0.9786 0.12745 0.18997 0.0
H2281 H 0.9737 0.12582 0.21494 0.0
H2282 H 0.99498 0.19423 0.23512 0.0
C2283 C 0.96516 0.1711 0.28423 0.0
C2284 C 0.9578 0.13623 0.25348 0.0
C2285 C 0.96746 0.17232 0.29861 0.0
C2286 C 0.97828 0.1415 0.19517 0.0
C2287 C 0.97528 0.14051 0.2095 0.0
C2288 C 0.98409 0.17791 0.23999 0.0
C2289 C 0.96915 0.15572 0.27661 0.0
C2290 C 0.96947 0.15637 0.26129 0.0
C2291 C 0.97502 0.15851 0.2167 0.0
C2292 C 0.97254 0.15778 0.23207 0.0
H2293 H 0.98241 0.13149 0.3032 0.0
H2294 H 0.97778 0.12896 0.27807 0.0
H2295 H 0.99189 0.19298 0.26017 0.0
H2296 H 0.98335 0.1935 0.18927 0.0
H2297 H 0.97716 0.19146 0.21416 0.0
C2298 C 0.84073 0.82399 0.31097 0.0
C2299 C 0.84688 0.84389 0.31863 0.0
C2300 C 0.84267 0.82487 0.29657 0.0
C2301 C 0.86772 0.86464 0.26673 0.0
H2302 H 0.8175 0.8151 0.24693 0.0
C2303 C 0.86717 0.85446 0.20725 0.0
C2304 C 0.84609 0.84505 0.20034 0.0
C2305 C 0.86814 0.85589 0.22168 0.0
C2306 C 0.83153 0.82924 0.25227 0.0
H2307 H 0.86066 0.88047 0.31728 0.0
H2308 H 0.86362 0.88199 0.29219 0.0
H2309 H 0.81836 0.81428 0.27198 0.0
H2310 H 0.80962 0.83083 0.20305 0.0
H2311 H 0.81133 0.83396 0.22817 0.0
H2312 H 0.88044 0.87996 0.24698 0.0
C2313 C 0.85764 0.86571 0.29726 0.0
C2314 C 0.83224 0.82856 0.26667 0.0
C2315 C 0.85588 0.86484 0.31166 0.0
C2316 C 0.82611 0.83805 0.20809 0.0
C2317 C 0.82709 0.83965 0.2225 0.0
C2318 C 0.86693 0.86539 0.2523 0.0
C2319 C 0.8506 0.84566 0.2895 0.0
C2320 C 0.85035 0.84623 0.27411 0.0
C2321 C 0.84805 0.84807 0.22951 0.0
C2322 C 0.8488 0.84769 0.24489 0.0
H2323 H 0.83385 0.8076 0.31606 0.0
H2324 H 0.83758 0.80917 0.29097 0.0
H2325 H 0.88203 0.87846 0.27209 0.0
H2326 H 0.88286 0.85988 0.20156 0.0
H2327 H 0.88455 0.86227 0.22669 0.0
C2328 C 0.1705 0.97578 0.21161 0.0
C2329 C 0.15755 0.9824 0.20354 0.0
C2330 C 0.16671 0.97247 0.22583 0.0
C2331 C 0.14213 0.98961 0.25465 0.0
H2332 H 0.15596 0.94932 0.27575 0.0
C2333 C 0.13349 0.98106 0.31429 0.0
C2334 C 0.15319 0.984 0.32106 0.0
C2335 C 0.13147 0.97838 0.29993 0.0
C2336 C 0.15203 0.96063 0.26996 0.0
H2337 H 0.12944 0.98921 0.20379 0.0
H2338 H 0.12206 0.98242 0.22848 0.0
H2339 H 0.15565 0.9476 0.25055 0.0
H2340 H 0.18595 0.98595 0.31819 0.0
H2341 H 0.18221 0.98087 0.29314 0.0
H2342 H 0.13834 0.00243 0.27415 0.0
C2343 C 0.13576 0.98062 0.22398 0.0
C2344 C 0.15195 0.95975 0.25552 0.0
C2345 C 0.13981 0.98429 0.20979 0.0
C2346 C 0.17062 0.98382 0.31324 0.0
C2347 C 0.16842 0.98075 0.29893 0.0
C2348 C 0.14186 0.99022 0.26908 0.0
C2349 C 0.14963 0.97537 0.23228 0.0
C2350 C 0.14743 0.97455 0.24765 0.0
C2351 C 0.1489 0.97816 0.29212 0.0
C2352 C 0.14722 0.97604 0.27687 0.0
H2353 H 0.18442 0.97437 0.20708 0.0
H2354 H 0.17797 0.96874 0.23183 0.0
H2355 H 0.139 1.0016 0.24902 0.0
H2356 H 0.11979 0.98113 0.32008 0.0
H2357 H 0.11622 0.97635 0.29492 0.0
C2358 C 0.04564 0.83741 0.70857 0.0
C2359 C 0.04036 0.85165 0.70076 0.0
C2360 C 0.04917 0.84065 0.72283 0.0
C2361 C 0.03411 0.86658 0.75191 0.0
H2362 H 0.06994 0.84721 0.77329 0.0
C2363 C 0.0392 0.87289 0.81141 0.0
C2364 C 0.03412 0.85253 0.81818 0.0
C2365 C 0.04337 0.8752 0.79719 0.0
C2366 C 0.05986 0.85268 0.76743 0.0
H2367 H 0.03656 0.8816 0.70149 0.0
H2368 H 0.04392 0.88806 0.72621 0.0
H2369 H 0.07263 0.84832 0.74809 0.0
H2370 H 0.03023 0.81893 0.81548 0.0
H2371 H 0.03784 0.8231 0.79062 0.0
H2372 H 0.0215 0.87105 0.77128 0.0
C2373 C 0.04437 0.87375 0.7215 0.0
C2374 C 0.06131 0.85324 0.75298 0.0
C2375 C 0.04042 0.87024 0.70729 0.0
C2376 C 0.03403 0.8348 0.81053 0.0
C2377 C 0.03852 0.83723 0.79633 0.0
C2378 C 0.03294 0.86633 0.76632 0.0
C2379 C 0.04787 0.85846 0.72958 0.0
C2380 C 0.04818 0.85988 0.745 0.0
C2381 C 0.04286 0.85731 0.78948 0.0
C2382 C 0.04554 0.85908 0.77423 0.0
H2383 H 0.04551 0.82281 0.70384 0.0
H2384 H 0.0516 0.82836 0.72864 0.0
H2385 H 0.02329 0.87127 0.74621 0.0
H2386 H 0.03938 0.88685 0.81704 0.0
H2387 H 0.04681 0.89092 0.79218 0.0
C2388 C 0.15758 0.15987 0.78624 0.0
C2389 C 0.17698 0.16492 0.79416 0.0
C2390 C 0.15787 0.15783 0.77188 0.0
C2391 C 0.19746 0.17497 0.74229 0.0
H2392 H 0.14392 0.12928 0.72268 0.0
C2393 C 0.18788 0.17842 0.68335 0.0
C2394 C 0.17825 0.1578 0.67592 0.0
C2395 C 0.18787 0.1784 0.69778 0.0
C2396 C 0.15909 0.142 0.728 0.0
H2397 H 0.21181 0.17146 0.79325 0.0
H2398 H 0.21227 0.16768 0.76817 0.0
H2399 H 0.14381 0.13025 0.74788 0.0
H2400 H 0.16102 0.12095 0.6778 0.0
H2401 H 0.16116 0.1209 0.70306 0.0
H2402 H 0.21285 0.18656 0.72244 0.0
C2403 C 0.19691 0.1656 0.77305 0.0
C2404 C 0.15894 0.14272 0.74244 0.0
C2405 C 0.19661 0.16765 0.78743 0.0
C2406 C 0.16851 0.13712 0.68324 0.0
C2407 C 0.1685 0.13709 0.69771 0.0
C2408 C 0.19761 0.17426 0.72786 0.0
C2409 C 0.17757 0.16076 0.76509 0.0
C2410 C 0.17806 0.15933 0.74976 0.0
C2411 C 0.17826 0.15775 0.70515 0.0
C2412 C 0.17836 0.15789 0.72052 0.0
H2413 H 0.14218 0.15772 0.79112 0.0
H2414 H 0.14278 0.15441 0.76607 0.0
H2415 H 0.2124 0.18812 0.74758 0.0
H2416 H 0.19546 0.19465 0.67801 0.0
H2417 H 0.19519 0.1946 0.70317 0.0
C2418 C 0.84434 0.04148 0.79517 0.0
C2419 C 0.85645 0.03248 0.80199 0.0
C2420 C 0.84519 0.04345 0.78079 0.0
C2421 C 0.87579 0.04595 0.74931 0.0
H2422 H 0.81579 0.00764 0.7333 0.0
C2423 C 0.86442 0.0206 0.69167 0.0
C2424 C 0.84451 0.0168 0.68484 0.0
C2425 C 0.86682 0.02463 0.7059 0.0
C2426 C 0.83264 0.01885 0.73748 0.0
H2427 H 0.88047 0.02036 0.79928 0.0
H2428 H 0.88251 0.02454 0.7741 0.0
H2429 H 0.81972 0.0133 0.75817 0.0
H2430 H 0.81174 0.01486 0.68735 0.0
H2431 H 0.81627 0.02301 0.71204 0.0
H2432 H 0.88879 0.05208 0.72868 0.0
C2433 C 0.87211 0.0297 0.7799 0.0
C2434 C 0.83486 0.02197 0.75178 0.0
C2435 C 0.87092 0.0273 0.79428 0.0
C2436 C 0.82715 0.01744 0.69243 0.0
C2437 C 0.82975 0.022 0.70661 0.0
C2438 C 0.87355 0.04326 0.73495 0.0
C2439 C 0.85858 0.03696 0.77303 0.0
C2440 C 0.85645 0.03533 0.75782 0.0
C2441 C 0.84955 0.02547 0.71359 0.0
C2442 C 0.85195 0.02941 0.72884 0.0
H2443 H 0.83301 0.0456 0.80082 0.0
H2444 H 0.83472 0.04922 0.77568 0.0
H2445 H 0.89261 0.05639 0.75378 0.0
H2446 H 0.87802 0.02006 0.68604 0.0
H2447 H 0.88209 0.02669 0.71087 0.0
C2448 C 0.68742 0.52231 0.53814 0.0
C2449 C 0.68082 0.50303 0.52972 0.0
C2450 C 0.68568 0.52009 0.55251 0.0
C2451 C 0.68336 0.48719 0.58236 0.0
H2452 H 0.63933 0.5025 0.59719 0.0
C2453 C 0.66022 0.47435 0.64017 0.0
C2454 C 0.65758 0.49146 0.64668 0.0
C2455 C 0.6607 0.47323 0.62574 0.0
C2456 C 0.65192 0.49844 0.59333 0.0
H2457 H 0.66927 0.46679 0.52975 0.0
H2458 H 0.66721 0.4632 0.55497 0.0
H2459 H 0.64842 0.50752 0.57263 0.0
H2460 H 0.65236 0.52019 0.64325 0.0
H2461 H 0.654 0.51886 0.61828 0.0
H2462 H 0.68787 0.47914 0.60303 0.0
C2463 C 0.67319 0.47984 0.55038 0.0
C2464 C 0.65703 0.50125 0.57924 0.0
C2465 C 0.67442 0.48193 0.53598 0.0
C2466 C 0.65414 0.50662 0.63853 0.0
C2467 C 0.65508 0.50581 0.62413 0.0
C2468 C 0.67866 0.48484 0.59654 0.0
C2469 C 0.67793 0.49872 0.55871 0.0
C2470 C 0.67286 0.49577 0.57366 0.0
C2471 C 0.65903 0.4895 0.61751 0.0
C2472 C 0.66293 0.49054 0.60226 0.0
H2473 H 0.69236 0.53878 0.53362 0.0
H2474 H 0.68959 0.53491 0.55877 0.0
H2475 H 0.69562 0.48283 0.57825 0.0
H2476 H 0.66284 0.46239 0.64622 0.0
H2477 H 0.66307 0.45999 0.62108 0.0
C2478 C 0.52862 0.19523 0.64157 0.0
C2479 C 0.51894 0.1745 0.64881 0.0
C2480 C 0.52874 0.19542 0.62713 0.0
C2481 C 0.49939 0.15749 0.59714 0.0
H2482 H 0.54747 0.20736 0.57642 0.0
C2483 C 0.48987 0.1668 0.53882 0.0
C2484 C 0.50936 0.17462 0.53048 0.0
C2485 C 0.4918 0.16763 0.55321 0.0
C2486 C 0.53399 0.19314 0.582 0.0
H2487 H 0.50272 0.13777 0.64667 0.0
H2488 H 0.50379 0.13805 0.6215 0.0
H2489 H 0.55059 0.20634 0.6014 0.0
H2490 H 0.54617 0.1896 0.53061 0.0
H2491 H 0.54954 0.19036 0.5557 0.0
H2492 H 0.48327 0.14373 0.57774 0.0
C2493 C 0.51059 0.15419 0.6269 0.0
C2494 C 0.53563 0.19272 0.5964 0.0
C2495 C 0.51015 0.154 0.64135 0.0
C2496 C 0.53086 0.1836 0.53679 0.0
C2497 C 0.53278 0.18412 0.5512 0.0
C2498 C 0.4979 0.15774 0.58275 0.0
C2499 C 0.51947 0.17487 0.61958 0.0
C2500 C 0.51828 0.17496 0.60418 0.0
C2501 C 0.51324 0.17596 0.55962 0.0
C2502 C 0.51508 0.17566 0.57497 0.0
H2503 H 0.53535 0.21131 0.64706 0.0
H2504 H 0.53543 0.21167 0.62191 0.0
H2505 H 0.48547 0.14369 0.60273 0.0
H2506 H 0.47308 0.15995 0.53423 0.0
H2507 H 0.47642 0.16171 0.5593 0.0
C2508 C 0.81787 0.33334 0.64086 0.0
C2509 C 0.8394 0.3462 0.64715 0.0
C2510 C 0.8157 0.33263 0.62649 0.0
C2511 C 0.84356 0.36176 0.59421 0.0
H2512 H 0.80892 0.30134 0.57792 0.0
C2513 C 0.83138 0.31803 0.53718 0.0
C2514 C 0.82736 0.33309 0.52928 0.0
C2515 C 0.83128 0.31896 0.55165 0.0
C2516 C 0.81867 0.31829 0.58233 0.0
H2517 H 0.8754 0.36932 0.6433 0.0
H2518 H 0.87152 0.36842 0.61812 0.0
H2519 H 0.81218 0.30557 0.60307 0.0
H2520 H 0.8192 0.36031 0.53037 0.0
H2521 H 0.81911 0.36191 0.55551 0.0
H2522 H 0.8501 0.37448 0.57347 0.0
C2523 C 0.85635 0.35879 0.62436 0.0
C2524 C 0.82038 0.32075 0.59671 0.0
C2525 C 0.85857 0.35933 0.63877 0.0
C2526 C 0.82242 0.34848 0.53613 0.0
C2527 C 0.82254 0.34955 0.55054 0.0
C2528 C 0.84161 0.35932 0.57984 0.0
C2529 C 0.83498 0.34494 0.61807 0.0
C2530 C 0.83288 0.3425 0.6028 0.0
C2531 C 0.82738 0.33511 0.55846 0.0
C2532 C 0.82918 0.33756 0.57374 0.0
H2533 H 0.80274 0.32304 0.64701 0.0
H2534 H 0.79897 0.32211 0.62194 0.0
H2535 H 0.85324 0.37872 0.59861 0.0
H2536 H 0.83532 0.30605 0.5322 0.0
H2537 H 0.83513 0.30765 0.5575 0.0
C2538 C 0.66687 0.1452 0.13703 0.0
C2539 C 0.66876 0.1642 0.14413 0.0
C2540 C 0.66649 0.14455 0.12256 0.0
C2541 C 0.67851 0.18189 0.09147 0.0
H2542 H 0.64186 0.12392 0.07279 0.0
C2543 C 0.65774 0.17444 0.03296 0.0
C2544 C 0.6627 0.15955 0.02555 0.0
C2545 C 0.65804 0.1746 0.04743 0.0
C2546 C 0.65223 0.1402 0.07789 0.0
H2547 H 0.6715 0.19732 0.14168 0.0
H2548 H 0.66992 0.19588 0.11658 0.0
H2549 H 0.64344 0.12519 0.09798 0.0
H2550 H 0.67117 0.13269 0.02743 0.0
H2551 H 0.67107 0.13256 0.05273 0.0
H2552 H 0.6866 0.19687 0.07128 0.0
C2553 C 0.66951 0.18173 0.12204 0.0
C2554 C 0.65331 0.14097 0.09234 0.0
C2555 C 0.67029 0.18254 0.13649 0.0
C2556 C 0.66732 0.14438 0.03288 0.0
C2557 C 0.66719 0.14424 0.04734 0.0
C2558 C 0.67709 0.18115 0.07704 0.0
C2559 C 0.66759 0.16273 0.11483 0.0
C2560 C 0.66652 0.16183 0.09937 0.0
C2561 C 0.66287 0.15958 0.05476 0.0
C2562 C 0.66399 0.1603 0.0701 0.0
H2563 H 0.6658 0.13087 0.14266 0.0
H2564 H 0.66549 0.12981 0.11746 0.0
H2565 H 0.68929 0.19822 0.09639 0.0
H2566 H 0.6542 0.18638 0.02759 0.0
H2567 H 0.6545 0.18649 0.0529 0.0
C2568 C 0.86127 0.48546 0.1312 0.0
C2569 C 0.84046 0.48035 0.13743 0.0
C2570 C 0.86259 0.4832 0.1169 0.0
C2571 C 0.82752 0.45965 0.08493 0.0
H2572 H 0.87964 0.51065 0.06746 0.0
C2573 C 0.83849 0.46643 0.02547 0.0
C2574 C 0.8459 0.4881 0.01974 0.0
C2575 C 0.83919 0.46378 0.03977 0.0
C2576 C 0.86493 0.49632 0.07215 0.0
H2577 H 0.80448 0.46779 0.13366 0.0
H2578 H 0.80679 0.46417 0.10876 0.0
H2579 H 0.87764 0.50803 0.09252 0.0
H2580 H 0.86012 0.52403 0.0245 0.0
H2581 H 0.86103 0.51942 0.04939 0.0
H2582 H 0.81433 0.44854 0.06453 0.0
C2583 C 0.82209 0.46965 0.11488 0.0
C2584 C 0.86393 0.49462 0.08656 0.0
C2585 C 0.82076 0.4718 0.12918 0.0
C2586 C 0.85436 0.50711 0.02858 0.0
C2587 C 0.85501 0.50447 0.04286 0.0
C2588 C 0.82849 0.46139 0.07051 0.0
C2589 C 0.84314 0.4759 0.10851 0.0
C2590 C 0.84507 0.47644 0.09315 0.0
C2591 C 0.84729 0.48275 0.04866 0.0
C2592 C 0.84705 0.47994 0.06394 0.0
H2593 H 0.87675 0.49199 0.13729 0.0
H2594 H 0.87898 0.48773 0.11239 0.0
H2595 H 0.81287 0.44528 0.08964 0.0
H2596 H 0.83195 0.45145 0.01891 0.0
H2597 H 0.8334 0.44686 0.04385 0.0
C2598 C 0.53715 0.36407 0.02079 0.0
C2599 C 0.51658 0.35877 0.01415 0.0
C2600 C 0.53944 0.36762 0.03508 0.0
C2601 C 0.51784 0.38379 0.06509 0.0
H2602 H 0.53386 0.34496 0.08598 0.0
C2603 C 0.5031 0.37091 0.12396 0.0
C2604 C 0.51642 0.36439 0.13175 0.0
C2605 C 0.50611 0.37385 0.10966 0.0
C2606 C 0.52992 0.35641 0.08038 0.0
H2607 H 0.48258 0.35378 0.01712 0.0
H2608 H 0.48681 0.36055 0.0421 0.0
H2609 H 0.53368 0.34358 0.06088 0.0
H2610 H 0.54455 0.35766 0.13094 0.0
H2611 H 0.55078 0.36409 0.10617 0.0
H2612 H 0.51446 0.39701 0.08449 0.0
C2613 C 0.50104 0.36174 0.03625 0.0
C2614 C 0.52967 0.35545 0.06596 0.0
C2615 C 0.49859 0.35773 0.02199 0.0
C2616 C 0.53386 0.36244 0.12515 0.0
C2617 C 0.53723 0.36588 0.1109 0.0
C2618 C 0.51852 0.38512 0.07953 0.0
C2619 C 0.52138 0.3664 0.04295 0.0
C2620 C 0.52327 0.36884 0.05818 0.0
C2621 C 0.52286 0.37082 0.10285 0.0
C2622 C 0.52419 0.37114 0.08742 0.0
H2623 H 0.55128 0.36494 0.01499 0.0
H2624 H 0.5553 0.37125 0.04002 0.0
H2625 H 0.51305 0.39446 0.05929 0.0
H2626 H 0.48943 0.37241 0.12877 0.0
H2627 H 0.49448 0.37737 0.10391 0.0
C2628 C 0.32909 0.82059 0.87188 0.0
C2629 C 0.3398 0.84083 0.86414 0.0
C2630 C 0.32952 0.82133 0.88635 0.0
C2631 C 0.34008 0.86052 0.91609 0.0
H2632 H 0.34605 0.81448 0.93647 0.0
C2633 C 0.3303 0.85258 0.97553 0.0
C2634 C 0.34414 0.84623 0.98293 0.0
C2635 C 0.33009 0.85228 0.96107 0.0
C2636 C 0.34462 0.82764 0.93096 0.0
H2637 H 0.35943 0.87776 0.86551 0.0
H2638 H 0.36064 0.87909 0.89065 0.0
H2639 H 0.34533 0.81337 0.91134 0.0
H2640 H 0.36897 0.83501 0.98094 0.0
H2641 H 0.36907 0.83502 0.95573 0.0
H2642 H 0.3401 0.87521 0.93569 0.0
C2643 C 0.35147 0.86259 0.88562 0.0
C2644 C 0.34386 0.8268 0.91651 0.0
C2645 C 0.35091 0.86184 0.87117 0.0
C2646 C 0.35804 0.83991 0.97554 0.0
C2647 C 0.35795 0.83975 0.96107 0.0
C2648 C 0.34097 0.86143 0.93054 0.0
C2649 C 0.34079 0.84236 0.89343 0.0
C2650 C 0.34154 0.8432 0.90886 0.0
C2651 C 0.34383 0.84577 0.95363 0.0
C2652 C 0.34321 0.84498 0.93819 0.0
H2653 H 0.32029 0.80413 0.86677 0.0
H2654 H 0.32078 0.8054 0.89198 0.0
H2655 H 0.338 0.8733 0.9106 0.0
H2656 H 0.31928 0.85741 0.98091 0.0
H2657 H 0.31873 0.8567 0.95575 0.0
C2658 C 0.18546 0.53256 0.87138 0.0
C2659 C 0.16664 0.51651 0.86363 0.0
C2660 C 0.18359 0.53429 0.88569 0.0
C2661 C 0.1544 0.49831 0.91472 0.0
H2662 H 0.17355 0.55389 0.93568 0.0
C2663 C 0.14691 0.49542 0.97401 0.0
C2664 C 0.1639 0.51374 0.98159 0.0
C2665 C 0.14561 0.49691 0.95966 0.0
C2666 C 0.16843 0.53823 0.93003 0.0
H2667 H 0.13088 0.49033 0.86468 0.0
H2668 H 0.12783 0.49304 0.88969 0.0
H2669 H 0.17473 0.55524 0.91044 0.0
H2670 H 0.19282 0.54804 0.9802 0.0
H2671 H 0.1914 0.55033 0.95514 0.0
H2672 H 0.14925 0.48133 0.93404 0.0
C2673 C 0.14393 0.50436 0.88467 0.0
C2674 C 0.16897 0.53904 0.91557 0.0
C2675 C 0.14567 0.50293 0.87036 0.0
C2676 C 0.17944 0.5337 0.97459 0.0
C2677 C 0.17848 0.53503 0.9602 0.0
C2678 C 0.15431 0.49755 0.92914 0.0
C2679 C 0.16299 0.5197 0.8925 0.0
C2680 C 0.16189 0.51907 0.9078 0.0
C2681 C 0.16165 0.51658 0.95249 0.0
C2682 C 0.16129 0.51748 0.93705 0.0
H2683 H 0.20183 0.54323 0.86647 0.0
H2684 H 0.19855 0.54619 0.89152 0.0
H2685 H 0.1492 0.48272 0.90895 0.0
H2686 H 0.13454 0.47992 0.97918 0.0
H2687 H 0.132 0.48255 0.95422 0.0
C2688 C 0.48333 0.65164 0.9793 0.0
C2689 C 0.50301 0.65593 0.98663 0.0
C2690 C 0.48223 0.64855 0.96495 0.0
C2691 C 0.51988 0.65847 0.93437 0.0
H2692 H 0.46211 0.62035 0.91579 0.0
C2693 C 0.51479 0.64027 0.87604 0.0
C2694 C 0.50181 0.64797 0.86891 0.0
C2695 C 0.51303 0.6377 0.8904 0.0
C2696 C 0.47833 0.63098 0.92089 0.0
H2697 H 0.53659 0.65948 0.98488 0.0
H2698 H 0.53433 0.65297 0.96007 0.0
H2699 H 0.46326 0.62283 0.94101 0.0
H2700 H 0.47559 0.65733 0.87102 0.0
H2701 H 0.47201 0.6521 0.8961 0.0
H2702 H 0.53492 0.66611 0.91421 0.0
C2703 C 0.52005 0.65293 0.96517 0.0
C2704 C 0.47903 0.63261 0.93533 0.0
C2705 C 0.52133 0.65653 0.97944 0.0
C2706 C 0.48584 0.65142 0.87626 0.0
C2707 C 0.48375 0.6484 0.89059 0.0
C2708 C 0.51923 0.65645 0.92 0.0
C2709 C 0.50061 0.64919 0.95766 0.0
C2710 C 0.49981 0.64658 0.94229 0.0
C2711 C 0.49788 0.64227 0.89782 0.0
C2712 C 0.49845 0.64286 0.91312 0.0
H2713 H 0.46899 0.65118 0.98461 0.0
H2714 H 0.46712 0.64614 0.9596 0.0
H2715 H 0.53613 0.66986 0.93921 0.0
H2716 H 0.52731 0.63756 0.87066 0.0
H2717 H 0.52401 0.63283 0.89576 0.0
C2718 C 0.32122 0.52444 0.46154 0.0
C2719 C 0.31291 0.50329 0.46816 0.0
C2720 C 0.32086 0.52563 0.44712 0.0
C2721 C 0.29995 0.48949 0.41504 0.0
H2722 H 0.35479 0.53965 0.39915 0.0
C2723 C 0.332 0.48726 0.36016 0.0
C2724 C 0.33363 0.50459 0.35144 0.0
C2725 C 0.32929 0.48846 0.3744 0.0
C2726 C 0.33936 0.52564 0.40348 0.0
H2727 H 0.29631 0.46671 0.46495 0.0
H2728 H 0.29645 0.46873 0.43997 0.0
H2729 H 0.34817 0.539 0.42396 0.0
H2730 H 0.33489 0.53724 0.35074 0.0
H2731 H 0.33113 0.53975 0.3758 0.0
H2732 H 0.29198 0.47564 0.39452 0.0
C2733 C 0.30282 0.48447 0.44576 0.0
C2734 C 0.33537 0.52532 0.41768 0.0
C2735 C 0.30279 0.48327 0.46016 0.0
C2736 C 0.33374 0.5237 0.35726 0.0
C2737 C 0.33155 0.52513 0.37155 0.0
C2738 C 0.30421 0.4896 0.40091 0.0
C2739 C 0.31255 0.50572 0.43901 0.0
C2740 C 0.31569 0.50711 0.4237 0.0
C2741 C 0.32869 0.50722 0.38016 0.0
C2742 C 0.32404 0.50756 0.39505 0.0
H2743 H 0.32894 0.54016 0.46746 0.0
H2744 H 0.32784 0.54226 0.44235 0.0
H2745 H 0.28436 0.47545 0.41917 0.0
H2746 H 0.33163 0.47224 0.35592 0.0
H2747 H 0.32726 0.47454 0.3809 0.0
C2748 C 0.50732 0.8487 0.4668 0.0
C2749 C 0.49133 0.8301 0.47462 0.0
C2750 C 0.5053 0.84875 0.45244 0.0
C2751 C 0.46422 0.81961 0.42347 0.0
H2752 H 0.51961 0.84955 0.40156 0.0
C2753 C 0.47064 0.81074 0.36381 0.0
C2754 C 0.48439 0.83118 0.35663 0.0
C2755 C 0.46904 0.81078 0.37823 0.0
C2756 C 0.504 0.8413 0.40757 0.0
H2757 H 0.4608 0.79681 0.4736 0.0
H2758 H 0.45778 0.79633 0.44844 0.0
H2759 H 0.52233 0.84839 0.42656 0.0
H2760 H 0.50628 0.86782 0.35885 0.0
H2761 H 0.50376 0.86777 0.38402 0.0
H2762 H 0.44606 0.81176 0.40418 0.0
C2763 C 0.47153 0.81126 0.45339 0.0
C2764 C 0.50551 0.8407 0.42192 0.0
C2765 C 0.47335 0.81141 0.4678 0.0
C2766 C 0.49553 0.85179 0.36408 0.0
C2767 C 0.49422 0.85177 0.37848 0.0
C2768 C 0.46274 0.81987 0.40904 0.0
C2769 C 0.48746 0.82998 0.4455 0.0
C2770 C 0.48566 0.83003 0.43012 0.0
C2771 C 0.48143 0.83121 0.38571 0.0
C2772 C 0.48263 0.83091 0.40098 0.0
H2773 H 0.52119 0.86349 0.47179 0.0
H2774 H 0.5176 0.86372 0.44684 0.0
H2775 H 0.44854 0.81151 0.42939 0.0
H2776 H 0.46185 0.7946 0.35835 0.0
H2777 H 0.4591 0.7947 0.38358 0.0
C2778 C 0.19765 0.68179 0.35855 0.0
C2779 C 0.1792 0.68137 0.35158 0.0
C2780 C 0.19949 0.68422 0.37295 0.0
C2781 C 0.18268 0.70651 0.40247 0.0
H2782 H 0.1899 0.66246 0.4242 0.0
C2783 C 0.16881 0.69878 0.46167 0.0
C2784 C 0.18061 0.69067 0.46964 0.0
C2785 C 0.17094 0.69989 0.44726 0.0
C2786 C 0.18839 0.67527 0.41835 0.0
H2787 H 0.14845 0.68354 0.35415 0.0
H2788 H 0.15193 0.68823 0.37923 0.0
H2789 H 0.18958 0.66014 0.39909 0.0
H2790 H 0.20492 0.67867 0.46892 0.0
H2791 H 0.2096 0.6817 0.44393 0.0
H2792 H 0.18191 0.72197 0.42161 0.0
C2793 C 0.16486 0.68653 0.37358 0.0
C2794 C 0.18808 0.6738 0.40393 0.0
C2795 C 0.16279 0.68367 0.35925 0.0
C2796 C 0.19547 0.68482 0.46301 0.0
C2797 C 0.19794 0.68633 0.44865 0.0
C2798 C 0.18338 0.70823 0.4169 0.0
C2799 C 0.18317 0.68676 0.38059 0.0
C2800 C 0.18492 0.68921 0.39585 0.0
C2801 C 0.18523 0.69327 0.44051 0.0
C2802 C 0.18596 0.69245 0.42507 0.0
H2803 H 0.21055 0.68006 0.3529 0.0
H2804 H 0.21381 0.68441 0.3781 0.0
H2805 H 0.18047 0.71877 0.39646 0.0
H2806 H 0.15706 0.70319 0.46651 0.0
H2807 H 0.16061 0.70504 0.44142 0.0
C2808 C 0.14186 0.40668 0.05515 0.0
C2809 C 0.13533 0.42311 0.05756 0.0
C2810 C 0.13129 0.38591 0.06224 0.0
C2811 C 0.09248 0.35567 0.09207 0.0
H2812 H 0.08232 0.30167 0.07197 0.0
C2813 C 0.02901 0.26405 0.11017 0.0
C2814 C 0.03775 0.24904 0.11117 0.0
C2815 C 0.04145 0.28514 0.10358 0.0
C2816 C 0.08518 0.31663 0.07773 0.0
H2817 H 0.11285 0.43089 0.06935 0.0
H2818 H 0.09375 0.39439 0.08141 0.0
H2819 H 0.10319 0.33899 0.06099 0.0
H2820 H 0.06636 0.2445 0.10551 0.0
H2821 H 0.08758 0.28101 0.09352 0.0
H2822 H 0.07356 0.33295 0.10859 0.0
C2823 C 0.10749 0.39765 0.07436 0.0
C2824 C 0.09729 0.33811 0.07149 0.0
C2825 C 0.11837 0.4186 0.06743 0.0
C2826 C 0.05888 0.25538 0.10484 0.0
C2827 C 0.07115 0.27637 0.09803 0.0
C2828 C 0.08003 0.33416 0.0982 0.0
C2829 C 0.1136 0.38086 0.07175 0.0
C2830 C 0.10113 0.35798 0.07856 0.0
C2831 C 0.06274 0.29162 0.09758 0.0
C2832 C 0.07623 0.31443 0.09108 0.0
H2833 H 0.15504 0.40984 0.04765 0.0
H2834 H 0.13696 0.37378 0.06018 0.0
H2835 H 0.09542 0.3705 0.098 0.0
H2836 H 0.01256 0.2596 0.11455 0.0
H2837 H 0.03438 0.29641 0.10316 0.0
C2838 C 0.61148 0.72822 0.06059 0.0
C2839 C 0.59128 0.70845 0.06461 0.0
C2840 C 0.63163 0.736 0.06817 0.0
C2841 C 0.65463 0.73175 0.10206 0.0
H2842 H 0.71063 0.75204 0.08129 0.0
C2843 C 0.73919 0.7531 0.12905 0.0
C2844 C 0.75899 0.77299 0.1247 0.0
C2845 C 0.71891 0.74429 0.12145 0.0
C2846 C 0.6952 0.74664 0.08726 0.0
H2847 H 0.57636 0.68174 0.08003 0.0
H2848 H 0.61158 0.69538 0.09334 0.0
H2849 H 0.6747 0.73919 0.06904 0.0
H2850 H 0.77311 0.79883 0.10873 0.0
H2851 H 0.73776 0.78347 0.09545 0.0
H2852 H 0.67515 0.73932 0.12028 0.0
C2853 C 0.61176 0.70494 0.08433 0.0
C2854 C 0.67458 0.73929 0.08023 0.0
C2855 C 0.59154 0.69714 0.07672 0.0
C2856 C 0.75826 0.78333 0.11228 0.0
C2857 C 0.73794 0.77454 0.10468 0.0
C2858 C 0.67527 0.73913 0.10909 0.0
C2859 C 0.63216 0.72424 0.07999 0.0
C2860 C 0.65404 0.73185 0.08754 0.0
C2861 C 0.71789 0.75514 0.10931 0.0
C2862 C 0.69584 0.74673 0.10178 0.0
H2863 H 0.61177 0.7376 0.05145 0.0
H2864 H 0.64686 0.75122 0.06471 0.0
H2865 H 0.6392 0.7264 0.10802 0.0
H2866 H 0.73927 0.7445 0.13845 0.0
H2867 H 0.70396 0.72904 0.12516 0.0
C2868 C 0.22085 0.96573 0.11708 0.0
C2869 C 0.23336 0.97937 0.1284 0.0
C2870 C 0.22923 0.95415 0.10918 0.0
C2871 C 0.26852 0.93115 0.11107 0.0
H2872 H 0.26166 0.92714 0.07123 0.0
C2873 C 0.3082 0.88985 0.0761 0.0
C2874 C 0.29583 0.87788 0.06431 0.0
C2875 C 0.30063 0.90188 0.08431 0.0
C2876 C 0.26344 0.92779 0.08237 0.0
H2877 H 0.26502 0.99208 0.13987 0.0
H2878 H 0.27952 0.97173 0.12613 0.0
H2879 H 0.24904 0.94958 0.08437 0.0
H2880 H 0.26515 0.86805 0.05237 0.0
H2881 H 0.25173 0.88854 0.06678 0.0
H2882 H 0.28272 0.90916 0.10908 0.0
C2883 C 0.26305 0.96978 0.12352 0.0
C2884 C 0.25626 0.94075 0.0899 0.0
C2885 C 0.25473 0.98148 0.13139 0.0
C2886 C 0.27526 0.87741 0.06126 0.0
C2887 C 0.26764 0.88929 0.06949 0.0
C2888 C 0.27563 0.91808 0.10353 0.0
C2889 C 0.2503 0.95579 0.1124 0.0
C2890 C 0.25862 0.94254 0.10435 0.0
C2891 C 0.28045 0.9021 0.08096 0.0
C2892 C 0.27308 0.91612 0.08908 0.0
H2893 H 0.20415 0.96329 0.1146 0.0
H2894 H 0.21881 0.9433 0.1008 0.0
H2895 H 0.27032 0.93191 0.12221 0.0
H2896 H 0.32424 0.89074 0.07864 0.0
H2897 H 0.31106 0.91168 0.09299 0.0
C2898 C 0.26246 0.05176 0.39524 0.0
C2899 C 0.24529 0.02911 0.39779 0.0
C2900 C 0.28296 0.06169 0.40266 0.0
C2901 C 0.3211 0.04789 0.42222 0.0
H2902 H 0.34728 0.11006 0.43567 0.0
C2903 C 0.41428 0.10089 0.44335 0.0
C2904 C 0.41679 0.11291 0.45571 0.0
C2905 C 0.39331 0.09031 0.43628 0.0
C2906 C 0.3402 0.09266 0.43202 0.0
H2907 H 0.23611 0.99919 0.41024 0.0
H2908 H 0.27218 0.01657 0.42325 0.0
H2909 H 0.31028 0.09196 0.42405 0.0
H2910 H 0.39944 0.1238 0.47008 0.0
H2911 H 0.36313 0.10556 0.45776 0.0
H2912 H 0.35116 0.04869 0.4302 0.0
C2913 C 0.26969 0.02658 0.41544 0.0
C2914 C 0.31904 0.08233 0.42528 0.0
C2915 C 0.24898 0.0167 0.40811 0.0
C2916 C 0.39802 0.11446 0.46067 0.0
C2917 C 0.37724 0.10416 0.45355 0.0
C2918 C 0.34244 0.05833 0.42884 0.0
C2919 C 0.28696 0.04919 0.41276 0.0
C2920 C 0.3092 0.05982 0.4203 0.0
C2921 C 0.37455 0.09185 0.4413 0.0
C2922 C 0.3522 0.08083 0.43386 0.0
H2923 H 0.26008 0.06182 0.38742 0.0
H2924 H 0.29592 0.07906 0.40025 0.0
H2925 H 0.31409 0.0306 0.41839 0.0
H2926 H 0.42839 0.09933 0.4393 0.0
H2927 H 0.39183 0.0811 0.4268 0.0
C2928 C 0.90897 0.3219 0.4435 0.0
C2929 C 0.8898 0.30683 0.4514 0.0
C2930 C 0.92032 0.31367 0.4352 0.0
C2931 C 0.93009 0.26497 0.43172 0.0
H2932 H 0.94671 0.28521 0.39388 0.0
C2933 C 0.9598 0.21885 0.39396 0.0
C2934 C 0.97606 0.2316 0.38379 0.0
C2935 C 0.95061 0.22904 0.40244 0.0
C2936 C 0.94258 0.27963 0.4045 0.0
H2937 H 0.86719 0.27105 0.45627 0.0
H2938 H 0.88728 0.25691 0.44212 0.0
H2939 H 0.92824 0.30124 0.40806 0.0
H2940 H 0.99586 0.26528 0.37481 0.0
H2941 H 0.98029 0.28327 0.38982 0.0
H2942 H 0.94462 0.24361 0.42833 0.0
C2943 C 0.89366 0.27512 0.44247 0.0
C2944 C 0.93189 0.28879 0.41261 0.0
C2945 C 0.88218 0.28329 0.45062 0.0
C2946 C 0.98321 0.25493 0.38246 0.0
C2947 C 0.97418 0.26521 0.39104 0.0
C2948 C 0.94098 0.25599 0.42368 0.0
C2949 C 0.91294 0.2902 0.43472 0.0
C2950 C 0.92527 0.28134 0.42625 0.0
C2951 C 0.95757 0.25236 0.40108 0.0
C2952 C 0.94713 0.26295 0.40989 0.0
H2953 H 0.91558 0.34014 0.44394 0.0
H2954 H 0.93523 0.32573 0.42942 0.0
H2955 H 0.92556 0.25916 0.44228 0.0
H2956 H 0.95358 0.20075 0.39509 0.0
H2957 H 0.93756 0.21841 0.40981 0.0
C2958 C 0.7577 0.75435 0.40439 0.0
C2959 C 0.77274 0.75635 0.3937 0.0
C2960 C 0.74643 0.73428 0.41225 0.0
C2961 C 0.72866 0.67286 0.41065 0.0
H2962 H 0.72349 0.6743 0.45047 0.0
C2963 C 0.70127 0.59278 0.4442 0.0
C2964 C 0.6878 0.58957 0.45598 0.0
C2965 C 0.7102 0.613 0.43656 0.0
C2966 C 0.72446 0.67354 0.43933 0.0
H2967 H 0.78858 0.73913 0.3835 0.0
H2968 H 0.7689 0.70436 0.39702 0.0
H2969 H 0.74179 0.71004 0.43751 0.0
H2970 H 0.67257 0.60493 0.46866 0.0
H2971 H 0.68794 0.64008 0.45526 0.0
H2972 H 0.71138 0.63647 0.41238 0.0
C2973 C 0.76537 0.71803 0.39914 0.0
C2974 C 0.73499 0.69407 0.43191 0.0
C2975 C 0.77665 0.73803 0.39136 0.0
C2976 C 0.68313 0.60695 0.45976 0.0
C2977 C 0.69201 0.62715 0.45208 0.0
C2978 C 0.71806 0.65238 0.41804 0.0
C2979 C 0.74991 0.71575 0.40957 0.0
C2980 C 0.7375 0.69399 0.41749 0.0
C2981 C 0.70583 0.63055 0.44044 0.0
C2982 C 0.71606 0.65241 0.43251 0.0
H2983 H 0.75419 0.76805 0.40644 0.0
H2984 H 0.73456 0.73304 0.42019 0.0
H2985 H 0.7299 0.67214 0.39951 0.0
H2986 H 0.70554 0.57996 0.44112 0.0
H2987 H 0.72107 0.6151 0.42781 0.0
C2988 C 0.95047 0.75251 0.90113 0.0
C2989 C 0.9688 0.75697 0.89231 0.0
C2990 C 0.93836 0.73149 0.90796 0.0
C2991 C 0.92452 0.6716 0.90499 0.0
H2992 H 0.90828 0.66726 0.94372 0.0
C2993 C 0.88835 0.58676 0.93516 0.0
C2994 C 0.87259 0.58243 0.94582 0.0
C2995 C 0.89903 0.60786 0.92839 0.0
C2996 C 0.9123 0.66807 0.93283 0.0
H2997 H 0.98949 0.74312 0.88442 0.0
H2998 H 0.96821 0.70654 0.8961 0.0
H2999 H 0.92903 0.70466 0.93277 0.0
H3000 H 0.85491 0.59646 0.95734 0.0
H3001 H 0.87295 0.63298 0.94529 0.0
H3002 H 0.9076 0.63512 0.90491 0.0
C3003 C 0.96294 0.71913 0.89755 0.0
C3004 C 0.9243 0.68957 0.92658 0.0
C3005 C 0.97513 0.74014 0.89084 0.0
C3006 C 0.8672 0.5994 0.94926 0.0
C3007 C 0.87768 0.62041 0.9424 0.0
C3008 C 0.91234 0.65011 0.91119 0.0
C3009 C 0.94422 0.71442 0.90604 0.0
C3010 C 0.93075 0.69159 0.91263 0.0
C3011 C 0.89403 0.6251 0.93201 0.0
C3012 C 0.90622 0.64801 0.92524 0.0
H3013 H 0.94498 0.76496 0.90243 0.0
H3014 H 0.92395 0.72833 0.9144 0.0
H3015 H 0.92891 0.67256 0.89415 0.0
H3016 H 0.89309 0.57414 0.93241 0.0
H3017 H 0.91175 0.61087 0.92061 0.0
C3018 C 0.26794 0.19718 0.87819 0.0
C3019 C 0.25545 0.20835 0.87567 0.0
C3020 C 0.28783 0.20749 0.88621 0.0
C3021 C 0.3323 0.26426 0.89955 0.0
H3022 H 0.34859 0.22739 0.92224 0.0
C3023 C 0.42108 0.3025 0.92572 0.0
C3024 C 0.42212 0.29465 0.939 0.0
C3025 C 0.4008 0.29178 0.91802 0.0
C3026 C 0.34426 0.23805 0.91608 0.0
H3027 H 0.25415 0.23921 0.87997 0.0
H3028 H 0.28814 0.25669 0.89445 0.0
H3029 H 0.31261 0.20932 0.90974 0.0
H3030 H 0.40256 0.26879 0.95436 0.0
H3031 H 0.36721 0.25082 0.94127 0.0
H3032 H 0.36357 0.29311 0.90633 0.0
C3033 C 0.28289 0.24014 0.88991 0.0
C3034 C 0.32368 0.22758 0.90872 0.0
C3035 C 0.26309 0.2299 0.88177 0.0
C3036 C 0.4024 0.27561 0.94428 0.0
C3037 C 0.38211 0.26504 0.93664 0.0
C3038 C 0.3528 0.27476 0.90702 0.0
C3039 C 0.29572 0.22921 0.89211 0.0
C3040 C 0.31742 0.24051 0.90029 0.0
C3041 C 0.38096 0.27299 0.92341 0.0
C3042 C 0.35913 0.2618 0.91537 0.0
H3043 H 0.26248 0.18044 0.87387 0.0
H3044 H 0.29728 0.19858 0.8875 0.0
H3045 H 0.32831 0.2748 0.89304 0.0
H3046 H 0.43579 0.31723 0.92134 0.0
H3047 H 0.40075 0.29822 0.90779 0.0
C3048 C 0.72181 0.13364 0.9334 0.0
C3049 C 0.71049 0.1236 0.94583 0.0
C3050 C 0.7303 0.12265 0.92499 0.0
C3051 C 0.74825 0.07916 0.92628 0.0
H3052 H 0.74198 0.07828 0.88645 0.0
C3053 C 0.77388 0.02635 0.89064 0.0
C3054 C 0.78432 0.03631 0.878 0.0
C3055 C 0.76448 0.03655 0.899 0.0
C3056 C 0.74413 0.07858 0.89755 0.0
H3057 H 0.69833 0.09357 0.9588 0.0
H3058 H 0.71324 0.07464 0.94424 0.0
H3059 H 0.72651 0.09721 0.90063 0.0
H3060 H 0.79393 0.06534 0.86455 0.0
H3061 H 0.77786 0.08313 0.87907 0.0
H3062 H 0.76608 0.06073 0.92322 0.0
C3063 C 0.71599 0.09121 0.94112 0.0
C3064 C 0.73523 0.08944 0.90568 0.0
C3065 C 0.70746 0.10211 0.94948 0.0
C3066 C 0.78552 0.05689 0.87406 0.0
C3067 C 0.77625 0.06711 0.88239 0.0
C3068 C 0.75724 0.06837 0.91815 0.0
C3069 C 0.72768 0.10139 0.92883 0.0
C3070 C 0.7372 0.08989 0.92014 0.0
C3071 C 0.76544 0.05703 0.89493 0.0
C3072 C 0.75537 0.06799 0.90367 0.0
H3073 H 0.72461 0.15023 0.93032 0.0
H3074 H 0.73939 0.13105 0.91563 0.0
H3075 H 0.75033 0.07945 0.93739 0.0
H3076 H 0.77259 0.01045 0.89395 0.0
H3077 H 0.7561 0.02818 0.90853 0.0
C3078 C 0.60138 0.88875 0.54355 0.0
C3079 C 0.58171 0.8866 0.54996 0.0
C3080 C 0.62222 0.89834 0.55059 0.0
C3081 C 0.64755 0.91283 0.5859 0.0
H3082 H 0.7038 0.9486 0.56545 0.0
C3083 C 0.73515 0.94081 0.6109 0.0
C3084 C 0.75357 0.96252 0.60771 0.0
C3085 C 0.71461 0.93175 0.60356 0.0
C3086 C 0.68831 0.93888 0.57139 0.0
H3087 H 0.56858 0.89286 0.56888 0.0
H3088 H 0.60512 0.91014 0.58115 0.0
H3089 H 0.66728 0.93354 0.55368 0.0
H3090 H 0.76498 0.99162 0.59414 0.0
H3091 H 0.72897 0.97607 0.58144 0.0
H3092 H 0.66853 0.91887 0.60373 0.0
C3093 C 0.60436 0.90401 0.57071 0.0
C3094 C 0.66726 0.92991 0.56457 0.0
C3095 C 0.58339 0.89417 0.56367 0.0
C3096 C 0.75117 0.97475 0.59674 0.0
C3097 C 0.73048 0.96578 0.58946 0.0
C3098 C 0.66859 0.92196 0.59275 0.0
C3099 C 0.62412 0.90627 0.56425 0.0
C3100 C 0.64655 0.91657 0.57169 0.0
C3101 C 0.71177 0.94425 0.59289 0.0
C3102 C 0.68931 0.93495 0.58558 0.0
H3103 H 0.60059 0.88266 0.53309 0.0
H3104 H 0.63678 0.89919 0.54534 0.0
H3105 H 0.63209 0.90251 0.59175 0.0
H3106 H 0.73659 0.93085 0.61918 0.0
H3107 H 0.70092 0.91489 0.60629 0.0
C3108 C 0.04136 0.78299 0.61293 0.0
C3109 C 0.0279 0.7705 0.62424 0.0
C3110 C 0.05027 0.77336 0.60381 0.0
C3111 C 0.06308 0.72583 0.60074 0.0
H3112 H 0.0722 0.74413 0.56226 0.0
C3113 C 0.09525 0.68667 0.55841 0.0
C3114 C 0.1131 0.70266 0.54999 0.0
C3115 C 0.08387 0.69365 0.56762 0.0
C3116 C 0.06982 0.73892 0.573 0.0
H3117 H 0.01285 0.73786 0.63467 0.0
H3118 H 0.02776 0.72069 0.61849 0.0
H3119 H 0.05322 0.75798 0.57764 0.0
H3120 H 0.13337 0.73883 0.54523 0.0
H3121 H 0.11304 0.7507 0.56086 0.0
H3122 H 0.07939 0.70636 0.59585 0.0
C3123 C 0.03197 0.73819 0.61684 0.0
C3124 C 0.05904 0.74695 0.58187 0.0
C3125 C 0.02328 0.74797 0.6261 0.0
C3126 C 0.11936 0.72584 0.5512 0.0
C3127 C 0.10778 0.73273 0.56023 0.0
C3128 C 0.07359 0.71752 0.59178 0.0
C3129 C 0.04575 0.75081 0.6056 0.0
C3130 C 0.05584 0.74087 0.59595 0.0
C3131 C 0.08984 0.71673 0.56849 0.0
C3132 C 0.0774 0.72428 0.57787 0.0
H3133 H 0.04563 0.80055 0.61137 0.0
H3134 H 0.06121 0.78391 0.59553 0.0
H3135 H 0.06126 0.72094 0.61151 0.0
H3136 H 0.08966 0.66865 0.55769 0.0
H3137 H 0.07002 0.68092 0.57382 0.0
C3138 C 0.21266 0.24742 0.58821 0.0
C3139 C 0.22577 0.24287 0.5976 0.0
C3140 C 0.22251 0.26794 0.58079 0.0
C3141 C 0.27006 0.32725 0.58248 0.0
H3142 H 0.25755 0.32888 0.54355 0.0
C3143 C 0.31568 0.41077 0.55026 0.0
C3144 C 0.30295 0.41373 0.53982 0.0
C3145 C 0.30664 0.39001 0.5574 0.0
C3146 C 0.261 0.32883 0.55447 0.0
H3147 H 0.25994 0.25601 0.60594 0.0
H3148 H 0.27689 0.29181 0.59322 0.0
H3149 H 0.24093 0.29233 0.55547 0.0
H3150 H 0.27036 0.39771 0.52918 0.0
H3151 H 0.25439 0.36193 0.54179 0.0
H3152 H 0.28975 0.36373 0.5816 0.0
C3153 C 0.2589 0.27965 0.59176 0.0
C3154 C 0.2515 0.30782 0.56128 0.0
C3155 C 0.24914 0.2591 0.59907 0.0
C3156 C 0.28076 0.39579 0.53699 0.0
C3157 C 0.27165 0.3752 0.54419 0.0
C3158 C 0.2794 0.34831 0.5757 0.0
C3159 C 0.24567 0.28444 0.58266 0.0
C3160 C 0.2559 0.30677 0.57536 0.0
C3161 C 0.28455 0.37184 0.55436 0.0
C3162 C 0.27495 0.34941 0.5616 0.0
H3163 H 0.19459 0.23548 0.58691 0.0
H3164 H 0.21182 0.27119 0.57392 0.0
H3165 H 0.27356 0.32704 0.59338 0.0
H3166 H 0.33287 0.42426 0.55261 0.0
H3167 H 0.31719 0.38804 0.56506 0.0
C3168 C 0.09448 0.45205 0.77379 0.0
C3169 C 0.09634 0.44111 0.78567 0.0
C3170 C 0.07504 0.44134 0.76536 0.0
C3171 C 0.01402 0.39705 0.76655 0.0
H3172 H 0.01788 0.40212 0.72663 0.0
C3173 C 0.93377 0.3505 0.73157 0.0
C3174 C 0.93272 0.36231 0.71991 0.0
C3175 C 0.95388 0.35916 0.73939 0.0
C3176 C 0.01645 0.40074 0.73777 0.0
H3177 H 0.07951 0.40974 0.79754 0.0
H3178 H 0.04564 0.3912 0.7829 0.0
H3179 H 0.05283 0.41881 0.74036 0.0
H3180 H 0.95192 0.39286 0.70758 0.0
H3181 H 0.98674 0.40801 0.72122 0.0
H3182 H 0.97768 0.37932 0.76401 0.0
C3183 C 0.05906 0.40824 0.78024 0.0
C3184 C 0.03653 0.41029 0.74565 0.0
C3185 C 0.07852 0.4189 0.78864 0.0
C3186 C 0.95223 0.38306 0.71633 0.0
C3187 C 0.97226 0.39175 0.72417 0.0
C3188 C 0.99393 0.38758 0.75868 0.0
C3189 C 0.05692 0.41944 0.7686 0.0
C3190 C 0.03558 0.40866 0.76014 0.0
C3191 C 0.97342 0.37992 0.7358 0.0
C3192 C 0.99485 0.38939 0.74418 0.0
H3193 H 0.10767 0.46926 0.77127 0.0
H3194 H 0.07388 0.45058 0.75656 0.0
H3195 H 0.01262 0.39576 0.7777 0.0
H3196 H 0.91915 0.33435 0.73453 0.0
H3197 H 0.95418 0.34939 0.74816 0.0
C3198 C 0.63602 0.57067 0.71776 0.0
C3199 C 0.65624 0.57072 0.72132 0.0
C3200 C 0.62751 0.58165 0.7261 0.0
C3201 C 0.63091 0.6042 0.76165 0.0
H3202 H 0.60107 0.6343 0.74461 0.0
C3203 C 0.59966 0.65591 0.79361 0.0
C3204 C 0.57761 0.65205 0.7906 0.0
C3205 C 0.61034 0.64747 0.78492 0.0
C3206 C 0.6092 0.62583 0.74954 0.0
H3207 H 0.68342 0.58258 0.73648 0.0
H3208 H 0.66876 0.60207 0.75097 0.0
H3209 H 0.61789 0.61702 0.73011 0.0
H3210 H 0.54977 0.63647 0.77582 0.0
H3211 H 0.56855 0.62211 0.76059 0.0
H3212 H 0.62227 0.61315 0.78109 0.0
C3213 C 0.65925 0.59318 0.74181 0.0
C3214 C 0.61883 0.61585 0.74122 0.0
C3215 C 0.66771 0.58204 0.73349 0.0
C3216 C 0.56686 0.64011 0.77841 0.0
C3217 C 0.57761 0.63179 0.76967 0.0
C3218 C 0.6214 0.61431 0.76997 0.0
C3219 C 0.639 0.59314 0.73823 0.0
C3220 C 0.62964 0.60468 0.74714 0.0
C3221 C 0.59936 0.63508 0.77292 0.0
C3222 C 0.61026 0.6251 0.76403 0.0
H3223 H 0.62645 0.56171 0.70863 0.0
H3224 H 0.61162 0.58073 0.72313 0.0
H3225 H 0.63875 0.59548 0.76663 0.0
H3226 H 0.60871 0.66541 0.80274 0.0
H3227 H 0.62726 0.65068 0.78761 0.0
C3228 C 0.36717 0.93561 0.78433 0.0
C3229 C 0.37609 0.92069 0.78374 0.0
C3230 C 0.37723 0.95601 0.77687 0.0
C3231 C 0.411 0.98506 0.74666 0.0
H3232 H 0.43031 0.04085 0.76748 0.0
C3233 C 0.46206 0.07318 0.72048 0.0
C3234 C 0.45894 0.09113 0.72508 0.0
C3235 C 0.45249 0.05255 0.7277 0.0
C3236 C 0.4247 0.0255 0.7614 0.0
H3237 H 0.4022 0.91547 0.77416 0.0
H3238 H 0.41907 0.9507 0.76062 0.0
H3239 H 0.41181 0.0042 0.77934 0.0
H3240 H 0.44342 0.10175 0.74078 0.0
H3241 H 0.42567 0.06537 0.75313 0.0
H3242 H 0.42282 0.00593 0.72862 0.0
C3243 C 0.40447 0.94657 0.76714 0.0
C3244 C 0.41424 0.00448 0.76826 0.0
C3245 C 0.39467 0.9263 0.77484 0.0
C3246 C 0.44616 0.08816 0.7371 0.0
C3247 C 0.43613 0.0673 0.7442 0.0
C3248 C 0.42103 0.00603 0.73973 0.0
C3249 C 0.39613 0.96183 0.76833 0.0
C3250 C 0.40735 0.98407 0.76097 0.0
C3251 C 0.43908 0.04911 0.73958 0.0
C3252 C 0.42816 0.02664 0.74699 0.0
H3253 H 0.35246 0.93168 0.79068 0.0
H3254 H 0.37021 0.96728 0.77777 0.0
H3255 H 0.40563 0.96954 0.74078 0.0
H3256 H 0.47207 0.07518 0.7113 0.0
H3257 H 0.4558 0.03938 0.72396 0.0
C3258 C 0.60497 0.07194 0.22721 0.0
C3259 C 0.62856 0.08496 0.22469 0.0
C3260 C 0.59595 0.05151 0.23467 0.0
C3261 C 0.60981 0.02016 0.26004 0.0
H3262 H 0.56149 0.96564 0.24267 0.0
C3263 C 0.57945 0.93094 0.2834 0.0
C3264 C 0.55622 0.9144 0.28225 0.0
C3265 C 0.58839 0.95158 0.27619 0.0
C3266 C 0.57469 0.98067 0.24784 0.0
H3267 H 0.66131 0.08736 0.2284 0.0
H3268 H 0.64563 0.05202 0.24182 0.0
H3269 H 0.57613 0.00249 0.23133 0.0
H3270 H 0.5241 0.90652 0.27274 0.0
H3271 H 0.53933 0.94269 0.26056 0.0
H3272 H 0.60805 0.99873 0.27675 0.0
C3273 C 0.6341 0.05746 0.2379 0.0
C3274 C 0.58313 1.00181 0.24128 0.0
C3275 C 0.64305 0.07762 0.23021 0.0
C3276 C 0.54216 0.91882 0.27364 0.0
C3277 C 0.55098 0.93961 0.26663 0.0
C3278 C 0.6011 0.9991 0.26674 0.0
C3279 C 0.61042 0.04398 0.23999 0.0
C3280 C 0.60086 0.02174 0.24727 0.0
C3281 C 0.57422 0.95641 0.26786 0.0
C3282 C 0.58349 0.97897 0.2607 0.0
H3283 H 0.59343 0.07713 0.22297 0.0
H3284 H 0.57765 0.0415 0.23621 0.0
H3285 H 0.62338 0.0353 0.26494 0.0
H3286 H 0.5907 0.92791 0.28992 0.0
H3287 H 0.60645 0.96373 0.27719 0.0
C3288 C 0.94051 0.58183 0.20771 0.0
C3289 C 0.92191 0.56105 0.21224 0.0
C3290 C 0.9606 0.59309 0.21551 0.0
C3291 C 0.98451 0.59741 0.25051 0.0
H3292 H 0.04201 0.6201 0.23104 0.0
C3293 C 0.06921 0.627 0.27973 0.0
C3294 C 0.08927 0.64587 0.27468 0.0
C3295 C 0.04895 0.61736 0.27209 0.0
C3296 C 0.02617 0.6142 0.23665 0.0
H3297 H 0.90989 0.53622 0.22883 0.0
H3298 H 0.94482 0.55606 0.24254 0.0
H3299 H 0.00625 0.60247 0.2181 0.0
H3300 H 0.10371 0.66932 0.2575 0.0
H3301 H 0.0682 0.65271 0.24417 0.0
H3302 H 0.00434 0.60923 0.26905 0.0
C3303 C 0.94378 0.56364 0.23292 0.0
C3304 C 0.00562 0.60403 0.22922 0.0
C3305 C 0.9237 0.55229 0.22507 0.0
C3306 C 0.0886 0.6547 0.26165 0.0
C3307 C 0.06822 0.64512 0.25401 0.0
C3308 C 0.00505 0.6077 0.25794 0.0
C3309 C 0.96263 0.584 0.22813 0.0
C3310 C 0.98451 0.59538 0.23606 0.0
C3311 C 0.04806 0.62636 0.25916 0.0
C3312 C 0.02619 0.61609 0.25114 0.0
H3313 H 0.93964 0.5894 0.19804 0.0
H3314 H 0.9746 0.60896 0.21164 0.0
H3315 H 0.9686 0.59124 0.25609 0.0
H3316 H 0.06922 0.61946 0.2896 0.0
H3317 H 0.03401 0.60262 0.27627 0.0
C3318 C 0.44488 0.36937 0.22077 0.0
C3319 C 0.43527 0.35783 0.20828 0.0
C3320 C 0.43314 0.37702 0.22916 0.0
C3321 C 0.38853 0.39332 0.22754 0.0
H3322 H 0.38929 0.38945 0.26747 0.0
C3323 C 0.33854 0.42298 0.26288 0.0
C3324 C 0.34919 0.4341 0.27527 0.0
C3325 C 0.34789 0.41249 0.25472 0.0
C3326 C 0.3891 0.39092 0.25633 0.0
H3327 H 0.40514 0.34443 0.19523 0.0
H3328 H 0.38485 0.35795 0.20979 0.0
H3329 H 0.40764 0.37314 0.25349 0.0
H3330 H 0.37854 0.44359 0.28849 0.0
H3331 H 0.39486 0.42566 0.2743 0.0
H3332 H 0.37037 0.41147 0.23037 0.0
C3333 C 0.40165 0.36139 0.21297 0.0
C3334 C 0.39961 0.38151 0.24832 0.0
C3335 C 0.41332 0.35364 0.20462 0.0
C3336 C 0.36956 0.43473 0.27918 0.0
C3337 C 0.37893 0.42438 0.27103 0.0
C3338 C 0.37812 0.40286 0.23556 0.0
C3339 C 0.41151 0.37341 0.22527 0.0
C3340 C 0.39959 0.3827 0.23382 0.0
C3341 C 0.3682 0.41299 0.25871 0.0
C3342 C 0.37841 0.40196 0.25009 0.0
H3343 H 0.46185 0.37323 0.22385 0.0
H3344 H 0.44136 0.38642 0.23849 0.0
H3345 H 0.38844 0.39482 0.2164 0.0
H3346 H 0.32277 0.42206 0.2596 0.0
H3347 H 0.339 0.4037 0.24538 0.0
C3348 C 0.9011 0.15732 0.16363 0.0
C3349 C 0.90998 0.16319 0.15018 0.0
C3350 C 0.88138 0.15799 0.16732 0.0
C3351 C 0.84465 0.18181 0.15666 0.0
H3352 H 0.79788 0.13096 0.17745 0.0
C3353 C 0.7549 0.17084 0.1657 0.0
C3354 C 0.74672 0.16544 0.1793 0.0
C3355 C 0.7742 0.16964 0.16163 0.0
C3356 C 0.81083 0.14537 0.17172 0.0
H3357 H 0.90586 0.17558 0.13035 0.0
H3358 H 0.87153 0.17645 0.13668 0.0
H3359 H 0.83377 0.13216 0.1722 0.0
H3360 H 0.75146 0.15324 0.19903 0.0
H3361 H 0.78501 0.15137 0.19205 0.0
H3362 H 0.82172 0.19504 0.15621 0.0
C3363 C 0.87967 0.17132 0.1444 0.0
C3364 C 0.83145 0.14611 0.16876 0.0
C3365 C 0.89924 0.17056 0.14071 0.0
C3366 C 0.75758 0.15788 0.18854 0.0
C3367 C 0.77669 0.15656 0.18449 0.0
C3368 C 0.82402 0.18107 0.15961 0.0
C3369 C 0.87028 0.16475 0.15768 0.0
C3370 C 0.84864 0.16435 0.16122 0.0
C3371 C 0.78549 0.16277 0.17106 0.0
C3372 C 0.80689 0.16288 0.16721 0.0
H3373 H 0.90898 0.15153 0.17112 0.0
H3374 H 0.87474 0.15311 0.17771 0.0
H3375 H 0.85762 0.19626 0.15096 0.0
H3376 H 0.74688 0.17675 0.15839 0.0
H3377 H 0.78041 0.17428 0.15115 0.0
C3378 C 0.82929 0.58627 0.14935 0.0
C3379 C 0.83447 0.57761 0.16113 0.0
C3380 C 0.82518 0.6045 0.15043 0.0
C3381 C 0.81333 0.63912 0.17567 0.0
H3382 H 0.84074 0.68551 0.14729 0.0
C3383 C 0.83612 0.73274 0.18314 0.0
C3384 C 0.83348 0.74443 0.17195 0.0
C3385 C 0.83151 0.7103 0.18162 0.0
C3386 C 0.83261 0.67255 0.15517 0.0
H3387 H 0.83897 0.58096 0.18332 0.0
H3388 H 0.83237 0.61324 0.18523 0.0
H3389 H 0.84216 0.65043 0.14511 0.0
H3390 H 0.82299 0.74149 0.15056 0.0
H3391 H 0.81495 0.7021 0.14783 0.0
H3392 H 0.80466 0.66187 0.18597 0.0
C3393 C 0.83098 0.60564 0.17516 0.0
C3394 C 0.83341 0.65237 0.15393 0.0
C3395 C 0.83485 0.58719 0.17409 0.0
C3396 C 0.82508 0.73285 0.15936 0.0
C3397 C 0.82068 0.7104 0.15778 0.0
C3398 C 0.8127 0.65941 0.17695 0.0
C3399 C 0.82639 0.61474 0.1633 0.0
C3400 C 0.82405 0.63549 0.16425 0.0
C3401 C 0.82432 0.69907 0.16883 0.0
C3402 C 0.8226 0.67648 0.1668 0.0
H3403 H 0.82842 0.57891 0.13927 0.0
H3404 H 0.82116 0.61066 0.14112 0.0
H3405 H 0.80558 0.62635 0.18368 0.0
H3406 H 0.84233 0.7412 0.193 0.0
H3407 H 0.83464 0.70213 0.1903 0.0
C3408 C 0.40596 0.24542 0.14659 0.0
C3409 C 0.41958 0.25881 0.15768 0.0
C3410 C 0.38714 0.22374 0.14886 0.0
C3411 C 0.34711 0.18817 0.17647 0.0
H3412 H 0.32977 0.13936 0.14975 0.0
C3413 C 0.27498 0.0963 0.18701 0.0
C3414 C 0.25873 0.08535 0.17646 0.0
C3415 C 0.29513 0.1168 0.18452 0.0
C3416 C 0.33432 0.15289 0.15724 0.0
H3417 H 0.42411 0.25929 0.17991 0.0
H3418 H 0.39185 0.22124 0.18379 0.0
H3419 H 0.36442 0.17605 0.14607 0.0
H3420 H 0.25147 0.08739 0.15483 0.0
H3421 H 0.28693 0.1231 0.15045 0.0
H3422 H 0.31714 0.16486 0.1877 0.0
C3423 C 0.39542 0.22778 0.17334 0.0
C3424 C 0.35417 0.17395 0.15514 0.0
C3425 C 0.41419 0.24958 0.17108 0.0
C3426 C 0.26358 0.09517 0.16319 0.0
C3427 C 0.2839 0.11567 0.16068 0.0
C3428 C 0.32742 0.16706 0.17862 0.0
C3429 C 0.38148 0.21467 0.16227 0.0
C3430 C 0.36078 0.19193 0.1647 0.0
C3431 C 0.29973 0.12686 0.17138 0.0
C3432 C 0.32076 0.14921 0.16902 0.0
H3433 H 0.4097 0.25165 0.1361 0.0
H3434 H 0.37673 0.21433 0.14008 0.0
H3435 H 0.35133 0.20168 0.18392 0.0
H3436 H 0.27223 0.08905 0.19726 0.0
H3437 H 0.30719 0.12478 0.19291 0.0
C3438 C 0.1778 0.91522 0.34564 0.0
C3439 C 0.16374 0.91243 0.35702 0.0
C3440 C 0.18139 0.89738 0.34151 0.0
C3441 C 0.1526 0.83471 0.3434 0.0
H3442 H 0.21006 0.8424 0.32996 0.0
C3443 C 0.16587 0.75838 0.33027 0.0
C3444 C 0.18009 0.76102 0.31902 0.0
C3445 C 0.16348 0.77678 0.3348 0.0
C3446 C 0.1938 0.84 0.33352 0.0
H3447 H 0.14406 0.88976 0.37367 0.0
H3448 H 0.1505 0.85882 0.36662 0.0
H3449 H 0.20833 0.87548 0.33854 0.0
H3450 H 0.2017 0.7843 0.30312 0.0
H3451 H 0.19722 0.81617 0.31078 0.0
H3452 H 0.13798 0.79932 0.33829 0.0
C3453 C 0.15823 0.87443 0.36063 0.0
C3454 C 0.19286 0.85896 0.33847 0.0
C3455 C 0.15464 0.89216 0.36472 0.0
C3456 C 0.19094 0.78196 0.31197 0.0
C3457 C 0.18848 0.80023 0.31642 0.0
C3458 C 0.15351 0.81577 0.33842 0.0
C3459 C 0.171 0.87652 0.34873 0.0
C3460 C 0.17226 0.85651 0.3435 0.0
C3461 C 0.17518 0.79807 0.32809 0.0
C3462 C 0.17412 0.81818 0.3334 0.0
H3463 H 0.18486 0.93062 0.33949 0.0
H3464 H 0.19132 0.89948 0.33227 0.0
H3465 H 0.13635 0.83232 0.34698 0.0
H3466 H 0.15749 0.74249 0.33595 0.0
H3467 H 0.15319 0.77456 0.34387 0.0
C3468 C 0.24422 0.39453 0.3223 0.0
C3469 C 0.24846 0.41227 0.3315 0.0
C3470 C 0.22644 0.3723 0.32489 0.0
C3471 C 0.17193 0.34336 0.34434 0.0
H3472 H 0.16951 0.28856 0.33009 0.0
C3473 C 0.08936 0.25596 0.34713 0.0
C3474 C 0.08252 0.24521 0.33419 0.0
C3475 C 0.11165 0.27411 0.34909 0.0
C3476 C 0.17001 0.30373 0.33419 0.0
H3477 H 0.23908 0.42065 0.35109 0.0
H3478 H 0.20887 0.38178 0.35604 0.0
H3479 H 0.20561 0.32475 0.32962 0.0
H3480 H 0.0939 0.24383 0.31348 0.0
H3481 H 0.13278 0.27533 0.31687 0.0
H3482 H 0.13631 0.3224 0.34874 0.0
C3483 C 0.21843 0.38498 0.34652 0.0
C3484 C 0.19065 0.3245 0.33385 0.0
C3485 C 0.23584 0.4072 0.34378 0.0
C3486 C 0.09869 0.25203 0.3235 0.0
C3487 C 0.12099 0.2699 0.32549 0.0
C3488 C 0.15144 0.32259 0.34483 0.0
C3489 C 0.21286 0.36738 0.33686 0.0
C3490 C 0.19177 0.34471 0.33864 0.0
C3491 C 0.12756 0.28153 0.33819 0.0
C3492 C 0.15011 0.30266 0.33948 0.0
H3493 H 0.25368 0.39817 0.31272 0.0
H3494 H 0.22261 0.35931 0.31713 0.0
H3495 H 0.17186 0.35852 0.34787 0.0
H3496 H 0.07719 0.25105 0.35552 0.0
H3497 H 0.1163 0.28271 0.359 0.0
C3498 C 0.72937 0.81415 0.34719 0.0
C3499 C 0.74586 0.82475 0.33683 0.0
C3500 C 0.70667 0.80843 0.34477 0.0
C3501 C 0.6749 0.82709 0.32214 0.0
H3502 H 0.62222 0.78014 0.34159 0.0
C3503 C 0.58688 0.82105 0.31846 0.0
C3504 C 0.5773 0.82069 0.33141 0.0
C3505 C 0.60509 0.81678 0.31741 0.0
C3506 C 0.63679 0.79327 0.33605 0.0
H3507 H 0.75159 0.83595 0.31559 0.0
H3508 H 0.71186 0.82489 0.31102 0.0
H3509 H 0.65854 0.78046 0.34261 0.0
H3510 H 0.57817 0.81409 0.35323 0.0
H3511 H 0.60986 0.80663 0.35142 0.0
H3512 H 0.65327 0.84008 0.31574 0.0
C3513 C 0.71637 0.82179 0.3212 0.0
C3514 C 0.65763 0.79354 0.33668 0.0
C3515 C 0.73906 0.8279 0.32372 0.0
C3516 C 0.58546 0.81481 0.34315 0.0
C3517 C 0.60343 0.81028 0.34209 0.0
C3518 C 0.65406 0.82667 0.32139 0.0
C3519 C 0.70006 0.81294 0.33187 0.0
C3520 C 0.67712 0.81076 0.32996 0.0
C3521 C 0.61381 0.81173 0.32926 0.0
C3522 C 0.6349 0.81007 0.32858 0.0
H3523 H 0.7344 0.81183 0.35741 0.0
H3524 H 0.69472 0.80181 0.35329 0.0
H3525 H 0.68953 0.84095 0.31706 0.0
H3526 H 0.58094 0.82558 0.30926 0.0
H3527 H 0.61268 0.81789 0.30738 0.0
C3528 C 0.25149 0.85246 0.82305 0.0
C3529 C 0.2621 0.84412 0.83192 0.0
C3530 C 0.23317 0.85478 0.82758 0.0
C3531 C 0.18689 0.83164 0.85321 0.0
H3532 H 0.17758 0.88054 0.84004 0.0
C3533 C 0.11033 0.84195 0.87021 0.0
C3534 C 0.09962 0.8482 0.86004 0.0
C3535 C 0.13051 0.8418 0.8673 0.0
C3536 C 0.17983 0.86665 0.84369 0.0
H3537 H 0.2625 0.83263 0.8527 0.0
H3538 H 0.23035 0.83691 0.86081 0.0
H3539 H 0.21332 0.88133 0.83495 0.0
H3540 H 0.10157 0.85884 0.83875 0.0
H3541 H 0.13681 0.85839 0.83359 0.0
H3542 H 0.15331 0.81693 0.86189 0.0
C3543 C 0.23611 0.84136 0.85023 0.0
C3544 C 0.20035 0.86713 0.84082 0.0
C3545 C 0.25463 0.83912 0.84567 0.0
C3546 C 0.10934 0.85385 0.84678 0.0
C3547 C 0.12965 0.85383 0.84388 0.0
C3548 C 0.16638 0.8312 0.85612 0.0
C3549 C 0.22493 0.84887 0.84114 0.0
C3550 C 0.20404 0.84949 0.84538 0.0
C3551 C 0.14056 0.84797 0.85415 0.0
C3552 C 0.1625 0.84858 0.85126 0.0
H3553 H 0.25709 0.85678 0.81244 0.0
H3554 H 0.22492 0.86041 0.82024 0.0
H3555 H 0.18899 0.81759 0.8567 0.0
H3556 H 0.10313 0.83719 0.88047 0.0
H3557 H 0.13851 0.83731 0.87547 0.0
C3558 C 0.19987 0.27706 0.83669 0.0
C3559 C 0.18465 0.25664 0.82992 0.0
C3560 C 0.19559 0.29519 0.83726 0.0
C3561 C 0.16851 0.32231 0.81924 0.0
H3562 H 0.17547 0.35291 0.85433 0.0
C3563 C 0.15992 0.40392 0.82601 0.0
C3564 C 0.17496 0.42012 0.83558 0.0
C3565 C 0.15889 0.38273 0.82462 0.0
C3566 C 0.1737 0.34475 0.8444 0.0
H3567 H 0.15296 0.2391 0.81845 0.0
H3568 H 0.14558 0.2713 0.81919 0.0
H3569 H 0.177 0.31773 0.85352 0.0
H3570 H 0.20179 0.42763 0.85041 0.0
H3571 H 0.20057 0.39132 0.84775 0.0
H3572 H 0.16611 0.34991 0.81003 0.0
C3573 C 0.16076 0.27306 0.82413 0.0
C3574 C 0.17441 0.32449 0.84398 0.0
C3575 C 0.16487 0.25464 0.82379 0.0
C3576 C 0.18971 0.41526 0.84317 0.0
C3577 C 0.18886 0.39435 0.8417 0.0
C3578 C 0.16804 0.34283 0.81963 0.0
C3579 C 0.1761 0.29349 0.8309 0.0
C3580 C 0.17233 0.31331 0.83138 0.0
C3581 C 0.17302 0.37751 0.83271 0.0
C3582 C 0.17122 0.3546 0.83219 0.0
H3583 H 0.21514 0.27898 0.8416 0.0
H3584 H 0.20778 0.31078 0.84247 0.0
H3585 H 0.16696 0.31405 0.80937 0.0
H3586 H 0.14833 0.40727 0.82008 0.0
H3587 H 0.14649 0.37018 0.81758 0.0
C3588 C 0.75781 0.914 0.83713 0.0
C3589 C 0.757 0.92985 0.82811 0.0
C3590 C 0.73861 0.89227 0.83888 0.0
C3591 C 0.68435 0.85105 0.82162 0.0
H3592 H 0.66823 0.82261 0.85771 0.0
C3593 C 0.59932 0.76689 0.83231 0.0
C3594 C 0.6004 0.75123 0.84137 0.0
C3595 C 0.61841 0.78865 0.8304 0.0
C3596 C 0.67262 0.8302 0.84752 0.0
H3597 H 0.73498 0.93559 0.81439 0.0
H3598 H 0.70171 0.89797 0.81746 0.0
H3599 H 0.70154 0.86058 0.85529 0.0
H3600 H 0.62281 0.74578 0.8549 0.0
H3601 H 0.65589 0.78343 0.85156 0.0
H3602 H 0.65541 0.82064 0.81386 0.0
C3603 C 0.71728 0.90203 0.82292 0.0
C3604 C 0.69176 0.85198 0.84614 0.0
C3605 C 0.73641 0.92366 0.82117 0.0
C3606 C 0.62117 0.75759 0.84812 0.0
C3607 C 0.64018 0.77922 0.84621 0.0
C3608 C 0.66521 0.82925 0.823 0.0
C3609 C 0.71818 0.88596 0.83168 0.0
C3610 C 0.69788 0.86269 0.83317 0.0
C3611 C 0.63899 0.79517 0.83748 0.0
C3612 C 0.65914 0.81852 0.83597 0.0
H3613 H 0.77343 0.91815 0.84254 0.0
H3614 H 0.73997 0.88024 0.84562 0.0
H3615 H 0.68876 0.85863 0.81143 0.0
H3616 H 0.58354 0.76258 0.82703 0.0
H3617 H 0.61686 0.80057 0.82366 0.0
C3618 C 0.83209 0.08794 0.6662 0.0
C3619 C 0.8286 0.08212 0.6521 0.0
C3620 C 0.82881 0.10549 0.67138 0.0
C3621 C 0.80288 0.14131 0.66257 0.0
H3622 H 0.85266 0.1881 0.68418 0.0
C3623 C 0.82925 0.23557 0.66002 0.0
C3624 C 0.83603 0.24894 0.67207 0.0
C3625 C 0.82383 0.21281 0.66038 0.0
C3626 C 0.83837 0.17498 0.67841 0.0
H3627 H 0.81769 0.08918 0.63259 0.0
H3628 H 0.81228 0.11973 0.64147 0.0
H3629 H 0.85127 0.15184 0.67975 0.0
H3630 H 0.84197 0.24895 0.69403 0.0
H3631 H 0.83288 0.20886 0.69468 0.0
H3632 H 0.79069 0.16494 0.6606 0.0
C3633 C 0.81745 0.11083 0.6486 0.0
C3634 C 0.83755 0.15418 0.67587 0.0
C3635 C 0.82085 0.09349 0.64345 0.0
C3636 C 0.83667 0.2389 0.68463 0.0
C3637 C 0.83161 0.21609 0.68497 0.0
C3638 C 0.80377 0.16209 0.66504 0.0
C3639 C 0.82171 0.11732 0.66258 0.0
C3640 C 0.82025 0.13744 0.66749 0.0
C3641 C 0.82534 0.2029 0.6728 0.0
C3642 C 0.82196 0.17945 0.67257 0.0
H3643 H 0.83813 0.07952 0.6731 0.0
H3644 H 0.8321 0.10999 0.68222 0.0
H3645 H 0.78903 0.12857 0.65635 0.0
H3646 H 0.82845 0.24289 0.65024 0.0
H3647 H 0.81932 0.2032 0.65081 0.0
C3648 C 0.91825 0.74938 0.66752 0.0
C3649 C 0.9318 0.75321 0.67934 0.0
C3650 C 0.89656 0.72987 0.66652 0.0
C3651 C 0.85042 0.68622 0.68824 0.0
H3652 H 0.83017 0.6513 0.65424 0.0
C3653 C 0.76918 0.59657 0.68477 0.0
C3654 C 0.75648 0.59105 0.67247 0.0
C3655 C 0.78992 0.61718 0.68591 0.0
C3656 C 0.8354 0.66103 0.66377 0.0
H3657 H 0.93357 0.73887 0.69903 0.0
H3658 H 0.89595 0.70514 0.69731 0.0
H3659 H 0.86773 0.68553 0.65522 0.0
H3660 H 0.75457 0.60334 0.65215 0.0
H3661 H 0.79031 0.63933 0.6542 0.0
H3662 H 0.81809 0.66175 0.69679 0.0
C3663 C 0.9018 0.71742 0.68896 0.0
C3664 C 0.85696 0.68065 0.66432 0.0
C3665 C 0.92341 0.7368 0.68993 0.0
C3666 C 0.76428 0.60697 0.66164 0.0
C3667 C 0.78481 0.62755 0.6628 0.0
C3668 C 0.8288 0.66665 0.68768 0.0
C3669 C 0.888 0.71383 0.67732 0.0
C3670 C 0.86478 0.6934 0.67657 0.0
C3671 C 0.7982 0.6327 0.67481 0.0
C3672 C 0.82104 0.65377 0.67544 0.0
H3673 H 0.9241 0.76174 0.65922 0.0
H3674 H 0.88627 0.72763 0.65744 0.0
H3675 H 0.85583 0.69588 0.69779 0.0
H3676 H 0.76362 0.58452 0.69323 0.0
H3677 H 0.79985 0.62054 0.69529 0.0
C3678 C 0.41458 0.16313 0.68517 0.0
C3679 C 0.43204 0.17893 0.6765 0.0
C3680 C 0.3924 0.15996 0.6843 0.0
C3681 C 0.36347 0.19111 0.67302 0.0
H3682 H 0.30827 0.13223 0.66961 0.0
C3683 C 0.28435 0.17955 0.64509 0.0
C3684 C 0.26253 0.16483 0.65044 0.0
C3685 C 0.30373 0.18126 0.65132 0.0
C3686 C 0.32348 0.14878 0.67085 0.0
H3687 H 0.43947 0.20235 0.65946 0.0
H3688 H 0.40125 0.19695 0.65799 0.0
H3689 H 0.34484 0.1341 0.67453 0.0
H3690 H 0.24374 0.1406 0.66661 0.0
H3691 H 0.27799 0.14326 0.67754 0.0
H3692 H 0.34251 0.20585 0.66883 0.0
C3693 C 0.40468 0.18747 0.66571 0.0
C3694 C 0.34439 0.14984 0.67363 0.0
C3695 C 0.4266 0.19055 0.66654 0.0
C3696 C 0.26045 0.15219 0.6624 0.0
C3697 C 0.27995 0.15359 0.66854 0.0
C3698 C 0.34271 0.19006 0.67025 0.0
C3699 C 0.38745 0.17261 0.67479 0.0
C3700 C 0.36471 0.17104 0.67422 0.0
C3701 C 0.30178 0.16805 0.66297 0.0
C3702 C 0.32263 0.16891 0.66863 0.0
H3703 H 0.41829 0.15396 0.69296 0.0
H3704 H 0.37938 0.14827 0.69137 0.0
H3705 H 0.37877 0.20772 0.67374 0.0
H3706 H 0.28634 0.1895 0.6359 0.0
H3707 H 0.32024 0.19236 0.64668 0.0
C3708 C 0.41355 0.47895 0.4845 0.0
C3709 C 0.40883 0.49422 0.4917 0.0
C3710 C 0.43492 0.48055 0.48551 0.0
C3711 C 0.49511 0.52104 0.49435 0.0
H3712 H 0.50006 0.46636 0.49619 0.0
C3713 C 0.57934 0.52337 0.50771 0.0
C3714 C 0.58465 0.50819 0.50093 0.0
C3715 C 0.55825 0.52202 0.50572 0.0
C3716 C 0.49899 0.48179 0.49547 0.0
H3717 H 0.42289 0.52296 0.50583 0.0
H3718 H 0.46023 0.52557 0.50781 0.0
H3719 H 0.46242 0.46301 0.49524 0.0
H3720 H 0.57218 0.48008 0.48641 0.0
H3721 H 0.53514 0.47777 0.48279 0.0
H3722 H 0.53168 0.53982 0.49467 0.0
C3723 C 0.4474 0.51252 0.5012 0.0
C3724 C 0.4774 0.47988 0.49497 0.0
C3725 C 0.42593 0.51087 0.5002 0.0
C3726 C 0.56858 0.49202 0.49175 0.0
C3727 C 0.54732 0.49058 0.48979 0.0
C3728 C 0.51669 0.52295 0.49485 0.0
C3729 C 0.4522 0.49745 0.49378 0.0
C3730 C 0.47518 0.49949 0.49446 0.0
C3731 C 0.54184 0.50545 0.49687 0.0
C3732 C 0.51891 0.50335 0.4955 0.0
H3733 H 0.40071 0.46567 0.47803 0.0
H3734 H 0.43804 0.46878 0.47956 0.0
H3735 H 0.49407 0.53648 0.49369 0.0
H3736 H 0.59147 0.53627 0.51468 0.0
H3737 H 0.55458 0.53362 0.51143 0.0
C3738 C 0.48676 0.06915 0.49448 0.0
C3739 C 0.50556 0.0872 0.50117 0.0
C3740 C 0.4827 0.04673 0.49567 0.0
C3741 C 0.4986 0.01017 0.51635 0.0
H3742 H 0.4843 0.97451 0.48265 0.0
C3743 C 0.50421 0.92763 0.51302 0.0
C3744 C 0.48542 0.90887 0.5068 0.0
C3745 C 0.50682 0.94951 0.51205 0.0
C3746 C 0.48815 0.98419 0.49217 0.0
H3747 H 0.53386 0.09578 0.51508 0.0
H3748 H 0.52707 0.05712 0.51703 0.0
H3749 H 0.48635 0.01157 0.4823 0.0
H3750 H 0.45545 0.89847 0.49404 0.0
H3751 H 0.45996 0.93642 0.49235 0.0
H3752 H 0.50065 0.98289 0.52616 0.0
C3753 C 0.51538 0.06 0.51086 0.0
C3754 C 0.48917 0.00538 0.492 0.0
C3755 C 0.51943 0.08226 0.50964 0.0
C3756 C 0.46994 0.91257 0.49909 0.0
C3757 C 0.47263 0.93436 0.49802 0.0
C3758 C 0.49767 0.98904 0.5165 0.0
C3759 C 0.49726 0.04198 0.50368 0.0
C3760 C 0.49453 0.0187 0.50407 0.0
C3761 C 0.49085 0.95304 0.50471 0.0
C3762 C 0.49252 0.97583 0.50441 0.0
H3763 H 0.47586 0.07251 0.48786 0.0
H3764 H 0.46839 0.03318 0.49015 0.0
H3765 H 0.50243 0.0198 0.52589 0.0
H3766 H 0.51632 0.92523 0.51906 0.0
H3767 H 0.52121 0.96363 0.51718 0.0
C3768 C 0.92256 0.43657 0.49852 0.0
C3769 C 0.92569 0.41756 0.49933 0.0
C3770 C 0.94147 0.45873 0.49831 0.0
C3771 C 1.00396 0.49088 0.49169 0.0
H3772 H 1.00249 0.53762 0.51421 0.0
C3773 C 0.08431 0.5794 0.50051 0.0
C3774 C 0.08099 0.59822 0.49918 0.0
C3775 C 0.06552 0.55719 0.50108 0.0
C3776 C 1.00311 0.5248 0.50779 0.0
H3777 H 0.95116 0.40696 0.49993 0.0
H3778 H 0.98384 0.44531 0.49987 0.0
H3779 H 0.969 0.49946 0.51326 0.0
H3780 H 0.05538 0.60858 0.49811 0.0
H3781 H 0.02283 0.5701 0.49891 0.0
H3782 H 0.03808 0.51622 0.48623 0.0
C3783 C 0.96689 0.44323 0.49933 0.0
C3784 C 0.98388 0.50296 0.5072 0.0
C3785 C 0.94809 0.42119 0.49956 0.0
C3786 C 0.05854 0.59443 0.49889 0.0
C3787 C 0.03984 0.57236 0.49952 0.0
C3788 C 0.0232 0.51271 0.49229 0.0
C3789 C 0.96386 0.4623 0.49883 0.0
C3790 C 0.98406 0.48574 0.49914 0.0
C3791 C 0.04307 0.55344 0.50045 0.0
C3792 C 0.02299 0.52994 0.50032 0.0
H3793 H 0.90555 0.43434 0.49837 0.0
H3794 H 0.93855 0.47307 0.49775 0.0
H3795 H 0.00458 0.47811 0.48523 0.0
H3796 H 0.1014 0.5818 0.50073 0.0
H3797 H 0.06855 0.54296 0.50195 0.0
C3798 C 0.50063 0.43763 0.96979 0.0
C3799 C 0.50721 0.42519 0.9784 0.0
C3800 C 0.50099 0.45728 0.97463 0.0
C3801 C 0.52791 0.50218 0.00114 0.0
H3802 H 0.47953 0.51488 0.99182 0.0
C3803 C 0.51926 0.57425 0.02708 0.0
C3804 C 0.51194 0.58668 0.01904 0.0
C3805 C 0.51964 0.55534 0.0216 0.0
C3806 C 0.49335 0.51176 0.99434 0.0
H3807 H 0.51898 0.42349 0.99897 0.0
H3808 H 0.51928 0.45764 0.00752 0.0
H3809 H 0.47733 0.47964 0.98373 0.0
H3810 H 0.49983 0.58931 0.99877 0.0
H3811 H 0.50083 0.55639 0.98907 0.0
H3812 H 0.54393 0.53426 0.01176 0.0
C3813 C 0.5141 0.4523 0.99694 0.0
C3814 C 0.49205 0.49152 0.98974 0.0
C3815 C 0.51367 0.43258 0.9921 0.0
C3816 C 0.50566 0.58016 0.00521 0.0
C3817 C 0.50599 0.56115 0.99972 0.0
C3818 C 0.52923 0.52242 0.00572 0.0
C3819 C 0.50797 0.46499 0.98821 0.0
C3820 C 0.50926 0.48645 0.99314 0.0
C3821 C 0.51273 0.54837 0.00791 0.0
C3822 C 0.51191 0.5274 0.00244 0.0
H3823 H 0.49528 0.43225 0.95925 0.0
H3824 H 0.4963 0.46673 0.96762 0.0
H3825 H 0.54167 0.49899 0.00371 0.0
H3826 H 0.52454 0.57901 0.0377 0.0
H3827 H 0.52475 0.5458 0.02825 0.0
C3828 C 0.58165 0.06006 0.98227 0.0
C3829 C 0.59124 0.07984 0.9905 0.0
C3830 C 0.56119 0.04082 0.98606 0.0
C3831 C 0.50903 0.02558 0.00534 0.0
H3832 H 0.49635 0.96345 1.00002 0.0
C3833 C 0.42672 0.9472 0.02461 0.0
C3834 C 0.41724 0.9269 0.01688 0.0
C3835 C 0.44724 0.96617 0.02064 0.0
C3836 C 0.49951 0.9807 0.00134 0.0
H3837 H 0.58764 0.09472 0.00947 0.0
H3838 H 0.55167 0.06084 0.01625 0.0
H3839 H 0.53484 0.99525 0.99599 0.0
H3840 H 0.4211 0.91087 0.9985 0.0
H3841 H 0.45706 0.94435 0.99131 0.0
H3842 H 0.47371 0.0111 0.0106 0.0
C3843 C 0.55996 0.06036 0.00677 0.0
C3844 C 0.52161 0.99891 0.99913 0.0
C3845 C 0.58063 0.07961 0.00301 0.0
C3846 C 0.42803 0.92635 0.0046 0.0
C3847 C 0.44872 0.9454 1.00062 0.0
C3848 C 0.48693 0.00739 0.0075 0.0
C3849 C 0.54976 0.04097 0.99814 0.0
C3850 C 0.52662 0.02155 0.00115 0.0
C3851 C 0.45881 0.96533 0.00879 0.0
C3852 C 0.48192 0.98473 0.00558 0.0
H3853 H 0.58964 0.05979 0.97262 0.0
H3854 H 0.55376 0.02624 0.97915 0.0
H3855 H 0.51223 0.04285 0.00669 0.0
H3856 H 0.41858 0.94814 0.03404 0.0
H3857 H 0.45454 0.98113 0.02724 0.0
C3858 C 0.08372 0.50697 0.00375 0.0
C3859 C 0.08537 0.50069 0.01734 0.0
C3860 C 0.06387 0.50669 0.9993 0.0
C3861 C 1.00275 0.48391 0.00774 0.0
H3862 H 0.01065 0.53709 0.98784 0.0
C3863 C 0.92703 0.49871 0.99727 0.0
C3864 C 0.92555 0.5055 0.98378 0.0
C3865 C 0.94686 0.49892 0.00169 0.0
C3866 C 0.00814 0.52204 0.99329 0.0
H3867 H 0.06712 0.48794 0.03664 0.0
H3868 H 0.03266 0.48761 0.02896 0.0
H3869 H 0.04407 0.53418 0.99406 0.0
H3870 H 0.94413 0.51906 0.96465 0.0
H3871 H 0.97846 0.51914 0.97224 0.0
H3872 H 0.96682 0.47174 0.00695 0.0
C3873 C 0.04662 0.49278 0.02172 0.0
C3874 C 0.02728 0.52033 0.9968 0.0
C3875 C 0.06644 0.49316 0.02617 0.0
C3876 C 0.94463 0.51342 0.97503 0.0
C3877 C 0.96441 0.51368 0.97944 0.0
C3878 C 0.9836 0.48561 0.00421 0.0
C3879 C 0.04525 0.49994 0.00833 0.0
C3880 C 0.02481 0.50126 0.00408 0.0
C3881 C 0.96562 0.50604 0.99273 0.0
C3882 C 0.98606 0.50469 0.99695 0.0
H3883 H 0.09807 0.51294 0.99674 0.0
H3884 H 0.0632 0.51203 0.98885 0.0
H3885 H 1.00027 0.46889 0.01322 0.0
H3886 H 0.91258 0.49242 0.00421 0.0
H3887 H 0.94739 0.49324 0.01207 0.0
loop_
_geom_bond_atom_site_label_1
_geom_bond_atom_site_label_2
_geom_bond_distance
_geom_bond_site_symmetry_2
_ccdc_geom_bond_type
Co0 N4 2.148 . S
Co0 N10 2.128 1_655 S
Co0 N20 2.194 1_655 S
Co0 O25 2.351 1_655 S
Co0 O26 2.155 . S
Co0 O27 2.096 . S
C1 N4 1.301 . S
C1 N5 1.328 . S
C1 H6 0.930 . S
C2 C3 1.333 . S
C2 N4 1.317 . S
C2 H7 0.930 . S
C3 C2 1.333 . S
C3 N5 1.350 . S
C3 H29 0.931 . S
N4 Co0 2.148 . S
N4 C1 1.301 . S
N4 C2 1.317 . S
N5 C1 1.328 . S
N5 C3 1.350 . S
H6 C1 0.930 . S
H7 C2 0.930 . S
C8 O9 1.224 . S
C8 O27 1.247 . S
O9 C8 1.224 . S
N10 Co0 2.128 1_455 S
N10 C11 1.355 . S
N10 C13 1.311 . S
C11 N10 1.355 . S
C11 C12 1.363 . S
C11 H23 0.929 . S
C12 C11 1.363 . S
C12 N14 1.375 . S
C12 H30 0.931 . S
C13 N10 1.311 . S
C13 N14 1.347 . S
C13 H24 0.929 . S
N14 C12 1.375 . S
N14 C13 1.347 . S
C15 C18 1.365 . S
C15 N20 1.328 . S
C15 H21 0.929 . S
C16 C17 1.362 . S
C16 C19 1.378 . S
C16 H31 0.929 . S
C17 C16 1.362 . S
C17 C18 1.366 . S
C18 C15 1.365 . S
C18 C17 1.366 . S
C18 H32 0.930 . S
C19 C16 1.378 . S
C19 N20 1.315 . S
C19 H22 0.931 . S
N20 Co0 2.194 1_455 S
N20 C15 1.328 . S
N20 C19 1.315 . S
H21 C15 0.929 . S
H22 C19 0.931 . S
H23 C11 0.929 . S
H24 C13 0.929 . S
O25 Co0 2.351 1_455 S
O25 C28 1.244 . S
O26 Co0 2.155 . S
O26 C28 1.240 1_655 S
O27 Co0 2.096 . S
O27 C8 1.247 . S
C28 O25 1.244 . S
C28 O26 1.240 1_455 S
H29 C3 0.931 . S
H30 C12 0.931 . S
H31 C16 0.929 . S
H32 C18 0.930 . S
Co33 N37 2.148 . S
Co33 N43 2.128 . S
Co33 N53 2.194 . S
Co33 O58 2.351 . S
Co33 O59 2.155 . S
Co33 O60 2.096 . S
C34 N37 1.301 . S
C34 N38 1.328 . S
C34 H39 0.930 . S
C35 C36 1.333 . S
C35 N37 1.317 . S
C35 H40 0.930 . S
C36 C35 1.333 . S
C36 N38 1.350 . S
C36 H62 0.931 . S
N37 Co33 2.148 . S
N37 C34 1.301 . S
N37 C35 1.317 . S
N38 C34 1.328 . S
N38 C36 1.350 . S
H39 C34 0.930 . S
H40 C35 0.930 . S
C41 O42 1.224 . S
C41 O60 1.247 . S
O42 C41 1.224 . S
N43 Co33 2.128 . S
N43 C44 1.355 . S
N43 C46 1.311 . S
C44 N43 1.355 . S
C44 C45 1.363 . S
C44 H56 0.929 . S
C45 C44 1.363 . S
C45 N47 1.375 . S
C45 H63 0.931 . S
C46 N43 1.311 . S
C46 N47 1.347 . S
C46 H57 0.929 . S
N47 C45 1.375 . S
N47 C46 1.347 . S
C48 C51 1.365 . S
C48 N53 1.328 . S
C48 H54 0.929 . S
C49 C50 1.362 . S
C49 C52 1.378 . S
C49 H64 0.929 . S
C50 C49 1.362 . S
C50 C51 1.366 . S
C51 C48 1.365 . S
C51 C50 1.366 . S
C51 H65 0.930 . S
C52 C49 1.378 . S
C52 N53 1.315 . S
C52 H55 0.930 . S
N53 Co33 2.194 . S
N53 C48 1.328 . S
N53 C52 1.315 . S
H54 C48 0.929 . S
H55 C52 0.930 . S
H56 C44 0.929 . S
H57 C46 0.929 . S
O58 Co33 2.351 . S
O58 C61 1.244 . S
O59 Co33 2.155 . S
O59 C61 1.240 . S
O60 Co33 2.096 . S
O60 C41 1.247 . S
C61 O58 1.244 . S
C61 O59 1.240 . S
H62 C36 0.931 . S
H63 C45 0.931 . S
H64 C49 0.929 . S
H65 C51 0.930 . S
Co66 N70 2.148 . S
Co66 N76 2.128 1_545 S
Co66 N86 2.194 1_545 S
Co66 O91 2.351 1_545 S
Co66 O92 2.155 . S
Co66 O93 2.096 . S
C67 N70 1.301 . S
C67 N71 1.328 . S
C67 H72 0.930 . S
C68 C69 1.333 . S
C68 N70 1.317 . S
C68 H73 0.930 . S
C69 C68 1.333 . S
C69 N71 1.350 . S
C69 H95 0.931 . S
N70 Co66 2.148 . S
N70 C67 1.301 . S
N70 C68 1.317 . S
N71 C67 1.328 . S
N71 C69 1.350 . S
H72 C67 0.930 . S
H73 C68 0.930 . S
C74 O75 1.224 . S
C74 O93 1.247 . S
O75 C74 1.224 . S
N76 Co66 2.128 1_565 S
N76 C77 1.355 . S
N76 C79 1.311 . S
C77 N76 1.355 . S
C77 C78 1.363 . S
C77 H89 0.929 . S
C78 C77 1.363 . S
C78 N80 1.375 . S
C78 H96 0.931 . S
C79 N76 1.311 . S
C79 N80 1.347 . S
C79 H90 0.929 . S
N80 C78 1.375 . S
N80 C79 1.347 . S
C81 C84 1.365 . S
C81 N86 1.328 . S
C81 H87 0.929 . S
C82 C83 1.362 . S
C82 C85 1.378 . S
C82 H97 0.929 . S
C83 C82 1.362 . S
C83 C84 1.366 . S
C84 C81 1.365 . S
C84 C83 1.366 . S
C84 H98 0.930 . S
C85 C82 1.378 . S
C85 N86 1.315 . S
C85 H88 0.956 . S
N86 Co66 2.194 1_565 S
N86 C81 1.328 . S
N86 C85 1.315 . S
H87 C81 0.929 . S
H88 C85 0.956 . S
H89 C77 0.929 . S
H90 C79 0.929 . S
O91 Co66 2.351 1_565 S
O91 C94 1.244 . S
O92 Co66 2.155 . S
O92 C94 1.240 1_545 S
O93 Co66 2.096 . S
O93 C74 1.247 . S
C94 O91 1.244 . S
C94 O92 1.240 1_565 S
H95 C69 0.931 . S
H96 C78 0.931 . S
H97 C82 0.929 . S
H98 C84 0.930 . S
Co99 N103 2.148 . S
Co99 N109 2.128 1_565 S
Co99 N119 2.194 1_565 S
Co99 O124 2.351 1_565 S
Co99 O125 2.155 . S
Co99 O126 2.096 . S
C100 N103 1.301 . S
C100 N104 1.328 . S
C100 H105 0.930 . S
C101 C102 1.333 . S
C101 N103 1.317 . S
C101 H106 0.930 . S
C102 C101 1.333 . S
C102 N104 1.350 . S
C102 H128 0.931 . S
N103 Co99 2.148 . S
N103 C100 1.301 . S
N103 C101 1.317 . S
N104 C100 1.328 . S
N104 C102 1.350 . S
H105 C100 0.930 . S
H106 C101 0.930 . S
C107 O108 1.224 . S
C107 O126 1.247 . S
O108 C107 1.224 . S
N109 Co99 2.128 1_545 S
N109 C110 1.355 . S
N109 C112 1.311 . S
C110 N109 1.355 . S
C110 C111 1.363 . S
C110 H122 0.929 . S
C111 C110 1.363 . S
C111 N113 1.375 . S
C111 H129 0.931 . S
C112 N109 1.311 . S
C112 N113 1.347 . S
C112 H123 0.929 . S
N113 C111 1.375 . S
N113 C112 1.347 . S
C114 C117 1.365 . S
C114 N119 1.328 . S
C114 H120 0.929 . S
C115 C116 1.362 . S
C115 C118 1.378 . S
C115 H130 0.929 . S
C116 C115 1.362 . S
C116 C117 1.366 . S
C117 C114 1.365 . S
C117 C116 1.366 . S
C117 H131 0.930 . S
C118 C115 1.378 . S
C118 N119 1.315 . S
C118 H121 0.931 . S
N119 Co99 2.194 1_545 S
N119 C114 1.328 . S
N119 C118 1.315 . S
H120 C114 0.929 . S
H121 C118 0.931 . S
H122 C110 0.929 . S
H123 C112 0.929 . S
O124 Co99 2.351 1_545 S
O124 C127 1.244 . S
O125 Co99 2.155 . S
O125 C127 1.240 1_565 S
O126 Co99 2.096 . S
O126 C107 1.247 . S
C127 O124 1.244 . S
C127 O125 1.240 1_545 S
H128 C102 0.931 . S
H129 C111 0.931 . S
H130 C115 0.929 . S
H131 C117 0.930 . S
Co132 N136 2.148 . S
Co132 N142 2.128 1_455 S
Co132 N152 2.194 1_455 S
Co132 O157 2.351 1_455 S
Co132 O158 2.155 . S
Co132 O159 2.096 . S
C133 N136 1.301 . S
C133 N137 1.328 . S
C133 H138 0.930 . S
C134 C135 1.333 . S
C134 N136 1.317 . S
C134 H139 0.930 . S
C135 C134 1.333 . S
C135 N137 1.350 . S
C135 H161 0.931 . S
N136 Co132 2.148 . S
N136 C133 1.301 . S
N136 C134 1.317 . S
N137 C133 1.328 . S
N137 C135 1.350 . S
H138 C133 0.930 . S
H139 C134 0.930 . S
C140 O141 1.224 . S
C140 O159 1.247 . S
O141 C140 1.224 . S
N142 Co132 2.128 1_655 S
N142 C143 1.355 . S
N142 C145 1.311 . S
C143 N142 1.355 . S
C143 C144 1.363 . S
C143 H155 0.929 . S
C144 C143 1.363 . S
C144 N146 1.375 . S
C144 H162 0.931 . S
C145 N142 1.311 . S
C145 N146 1.347 . S
C145 H156 0.929 . S
N146 C144 1.375 . S
N146 C145 1.347 . S
C147 C150 1.365 . S
C147 N152 1.328 . S
C147 H153 0.929 . S
C148 C149 1.362 . S
C148 C151 1.378 . S
C148 H163 0.929 . S
C149 C148 1.362 . S
C149 C150 1.366 . S
C150 C147 1.365 . S
C150 C149 1.366 . S
C150 H164 0.930 . S
C151 C148 1.378 . S
C151 N152 1.315 . S
C151 H154 0.956 . S
N152 Co132 2.194 1_655 S
N152 C147 1.328 . S
N152 C151 1.315 . S
H153 C147 0.929 . S
H154 C151 0.956 . S
H155 C143 0.929 . S
H156 C145 0.929 . S
O157 Co132 2.351 1_655 S
O157 C160 1.244 . S
O158 Co132 2.155 . S
O158 C160 1.240 1_455 S
O159 Co132 2.096 . S
O159 C140 1.247 . S
C160 O157 1.244 . S
C160 O158 1.240 1_655 S
H161 C135 0.931 . S
H162 C144 0.931 . S
H163 C148 0.929 . S
H164 C150 0.930 . S
Co165 N169 2.148 . S
Co165 N175 2.128 . S
Co165 N185 2.194 . S
Co165 O190 2.351 . S
Co165 O191 2.155 . S
Co165 O192 2.096 . S
C166 N169 1.301 . S
C166 N170 1.328 . S
C166 H171 0.930 . S
C167 C168 1.333 . S
C167 N169 1.317 . S
C167 H172 0.930 . S
C168 C167 1.333 . S
C168 N170 1.350 . S
C168 H194 0.931 . S
N169 Co165 2.148 . S
N169 C166 1.301 . S
N169 C167 1.317 . S
N170 C166 1.328 . S
N170 C168 1.350 . S
H171 C166 0.930 . S
H172 C167 0.930 . S
C173 O174 1.224 . S
C173 O192 1.247 . S
O174 C173 1.224 . S
N175 Co165 2.128 . S
N175 C176 1.355 . S
N175 C178 1.311 . S
C176 N175 1.355 . S
C176 C177 1.363 . S
C176 H188 0.929 . S
C177 C176 1.363 . S
C177 N179 1.375 . S
C177 H195 0.931 . S
C178 N175 1.311 . S
C178 N179 1.347 . S
C178 H189 0.929 . S
N179 C177 1.375 . S
N179 C178 1.347 . S
C180 C183 1.365 . S
C180 N185 1.328 . S
C180 H186 0.929 . S
C181 C182 1.362 . S
C181 C184 1.378 . S
C181 H196 0.929 . S
C182 C181 1.362 . S
C182 C183 1.366 . S
C183 C180 1.365 . S
C183 C182 1.366 . S
C183 H197 0.930 . S
C184 C181 1.378 . S
C184 N185 1.315 . S
C184 H187 0.930 . S
N185 Co165 2.194 . S
N185 C180 1.328 . S
N185 C184 1.315 . S
H186 C180 0.929 . S
H187 C184 0.930 . S
H188 C176 0.929 . S
H189 C178 0.929 . S
O190 Co165 2.351 . S
O190 C193 1.244 . S
O191 Co165 2.155 . S
O191 C193 1.240 . S
O192 Co165 2.096 . S
O192 C173 1.247 . S
C193 O190 1.244 . S
C193 O191 1.240 . S
H194 C168 0.931 . S
H195 C177 0.931 . S
H196 C181 0.929 . S
H197 C183 0.930 . S
Co198 N202 2.148 . S
Co198 N208 2.128 1_455 S
Co198 N218 2.194 1_455 S
Co198 O223 2.351 1_455 S
Co198 O224 2.155 . S
Co198 O225 2.096 . S
C199 N202 1.301 . S
C199 N203 1.328 . S
C199 H204 0.930 . S
C200 C201 1.333 . S
C200 N202 1.317 . S
C200 H205 0.930 . S
C201 C200 1.333 . S
C201 N203 1.350 . S
C201 H227 0.931 . S
N202 Co198 2.148 . S
N202 C199 1.301 . S
N202 C200 1.317 . S
N203 C199 1.328 . S
N203 C201 1.350 . S
H204 C199 0.930 . S
H205 C200 0.930 . S
C206 O207 1.224 . S
C206 O225 1.247 . S
O207 C206 1.224 . S
N208 Co198 2.128 1_655 S
N208 C209 1.355 . S
N208 C211 1.311 . S
C209 N208 1.355 . S
C209 C210 1.363 . S
C209 H221 0.929 . S
C210 C209 1.363 . S
C210 N212 1.375 . S
C210 H228 0.931 . S
C211 N208 1.311 . S
C211 N212 1.347 . S
C211 H222 0.929 . S
N212 C210 1.375 . S
N212 C211 1.347 . S
C213 C216 1.365 . S
C213 N218 1.328 . S
C213 H219 0.929 . S
C214 C215 1.362 . S
C214 C217 1.378 . S
C214 H229 0.929 . S
C215 C214 1.362 . S
C215 C216 1.366 . S
C216 C213 1.365 . S
C216 C215 1.366 . S
C216 H230 0.930 . S
C217 C214 1.378 . S
C217 N218 1.315 . S
C217 H220 0.931 . S
N218 Co198 2.194 1_655 S
N218 C213 1.328 . S
N218 C217 1.315 . S
H219 C213 0.929 . S
H220 C217 0.931 . S
H221 C209 0.929 . S
H222 C211 0.929 . S
O223 Co198 2.351 1_655 S
O223 C226 1.244 . S
O224 Co198 2.155 . S
O224 C226 1.240 1_455 S
O225 Co198 2.096 . S
O225 C206 1.247 . S
C226 O223 1.244 . S
C226 O224 1.240 1_655 S
H227 C201 0.931 . S
H228 C210 0.931 . S
H229 C214 0.929 . S
H230 C216 0.930 . S
Co231 N235 2.148 . S
Co231 N241 2.128 . S
Co231 N251 2.194 . S
Co231 O256 2.351 . S
Co231 O257 2.155 . S
Co231 O258 2.096 . S
C232 N235 1.301 . S
C232 N236 1.328 . S
C232 H237 0.930 . S
C233 C234 1.333 . S
C233 N235 1.317 . S
C233 H238 0.930 . S
C234 C233 1.333 . S
C234 N236 1.350 . S
C234 H260 0.931 . S
N235 Co231 2.148 . S
N235 C232 1.301 . S
N235 C233 1.317 . S
N236 C232 1.328 . S
N236 C234 1.350 . S
H237 C232 0.930 . S
H238 C233 0.930 . S
C239 O240 1.224 . S
C239 O258 1.247 . S
O240 C239 1.224 . S
N241 Co231 2.128 . S
N241 C242 1.355 . S
N241 C244 1.311 . S
C242 N241 1.355 . S
C242 C243 1.363 . S
C242 H254 0.929 . S
C243 C242 1.363 . S
C243 N245 1.375 . S
C243 H261 0.931 . S
C244 N241 1.311 . S
C244 N245 1.347 . S
C244 H255 0.929 . S
N245 C243 1.375 . S
N245 C244 1.347 . S
C246 C249 1.365 . S
C246 N251 1.328 . S
C246 H252 0.929 . S
C247 C248 1.362 . S
C247 C250 1.378 . S
C247 H262 0.929 . S
C248 C247 1.362 . S
C248 C249 1.366 . S
C249 C246 1.365 . S
C249 C248 1.366 . S
C249 H263 0.930 . S
C250 C247 1.378 . S
C250 N251 1.315 . S
C250 H253 0.930 . S
N251 Co231 2.194 . S
N251 C246 1.328 . S
N251 C250 1.315 . S
H252 C246 0.929 . S
H253 C250 0.930 . S
H254 C242 0.929 . S
H255 C244 0.929 . S
O256 Co231 2.351 . S
O256 C259 1.244 . S
O257 Co231 2.155 . S
O257 C259 1.240 . S
O258 Co231 2.096 . S
O258 C239 1.247 . S
C259 O256 1.244 . S
C259 O257 1.240 . S
H260 C234 0.931 . S
H261 C243 0.931 . S
H262 C247 0.929 . S
H263 C249 0.930 . S
Co264 N268 2.148 . S
Co264 N274 2.128 1_565 S
Co264 N284 2.194 1_565 S
Co264 O289 2.351 1_565 S
Co264 O290 2.155 . S
Co264 O291 2.096 . S
C265 N268 1.301 . S
C265 N269 1.328 . S
C265 H270 0.930 . S
C266 C267 1.333 . S
C266 N268 1.317 . S
C266 H271 0.930 . S
C267 C266 1.333 . S
C267 N269 1.350 . S
C267 H293 0.931 . S
N268 Co264 2.148 . S
N268 C265 1.301 . S
N268 C266 1.317 . S
N269 C265 1.328 . S
N269 C267 1.350 . S
H270 C265 0.930 . S
H271 C266 0.930 . S
C272 O273 1.224 . S
C272 O291 1.247 . S
O273 C272 1.224 . S
N274 Co264 2.128 1_545 S
N274 C275 1.355 . S
N274 C277 1.311 . S
C275 N274 1.355 . S
C275 C276 1.363 . S
C275 H287 0.929 . S
C276 C275 1.363 . S
C276 N278 1.375 . S
C276 H294 0.931 . S
C277 N274 1.311 . S
C277 N278 1.347 . S
C277 H288 0.929 . S
N278 C276 1.375 . S
N278 C277 1.347 . S
C279 C282 1.365 . S
C279 N284 1.328 . S
C279 H285 0.929 . S
C280 C281 1.362 . S
C280 C283 1.378 . S
C280 H295 0.929 . S
C281 C280 1.362 . S
C281 C282 1.366 . S
C282 C279 1.365 . S
C282 C281 1.366 . S
C282 H296 0.930 . S
C283 C280 1.378 . S
C283 N284 1.315 . S
C283 H286 0.956 . S
N284 Co264 2.194 1_545 S
N284 C279 1.328 . S
N284 C283 1.315 . S
H285 C279 0.929 . S
H286 C283 0.956 . S
H287 C275 0.929 . S
H288 C277 0.929 . S
O289 Co264 2.351 1_545 S
O289 C292 1.244 . S
O290 Co264 2.155 . S
O290 C292 1.240 1_565 S
O291 Co264 2.096 . S
O291 C272 1.247 . S
C292 O289 1.244 . S
C292 O290 1.240 1_545 S
H293 C267 0.931 . S
H294 C276 0.931 . S
H295 C280 0.929 . S
H296 C282 0.930 . S
Co297 N301 2.148 . S
Co297 N307 2.128 1_545 S
Co297 N317 2.194 1_545 S
Co297 O322 2.351 1_545 S
Co297 O323 2.155 . S
Co297 O324 2.096 . S
C298 N301 1.301 . S
C298 N302 1.328 . S
C298 H303 0.930 . S
C299 C300 1.333 . S
C299 N301 1.317 . S
C299 H304 0.930 . S
C300 C299 1.333 . S
C300 N302 1.350 . S
C300 H326 0.931 . S
N301 Co297 2.148 . S
N301 C298 1.301 . S
N301 C299 1.317 . S
N302 C298 1.328 . S
N302 C300 1.350 . S
H303 C298 0.930 . S
H304 C299 0.930 . S
C305 O306 1.224 . S
C305 O324 1.247 . S
O306 C305 1.224 . S
N307 Co297 2.128 1_565 S
N307 C308 1.355 . S
N307 C310 1.311 . S
C308 N307 1.355 . S
C308 C309 1.363 . S
C308 H320 0.929 . S
C309 C308 1.363 . S
C309 N311 1.375 . S
C309 H327 0.931 . S
C310 N307 1.311 . S
C310 N311 1.347 . S
C310 H321 0.929 . S
N311 C309 1.375 . S
N311 C310 1.347 . S
C312 C315 1.365 . S
C312 N317 1.328 . S
C312 H318 0.929 . S
C313 C314 1.362 . S
C313 C316 1.378 . S
C313 H328 0.929 . S
C314 C313 1.362 . S
C314 C315 1.366 . S
C315 C312 1.365 . S
C315 C314 1.366 . S
C315 H329 0.930 . S
C316 C313 1.378 . S
C316 N317 1.315 . S
C316 H319 0.931 . S
N317 Co297 2.194 1_565 S
N317 C312 1.328 . S
N317 C316 1.315 . S
H318 C312 0.929 . S
H319 C316 0.931 . S
H320 C308 0.929 . S
H321 C310 0.929 . S
O322 Co297 2.351 1_565 S
O322 C325 1.244 . S
O323 Co297 2.155 . S
O323 C325 1.240 1_545 S
O324 Co297 2.096 . S
O324 C305 1.247 . S
C325 O322 1.244 . S
C325 O323 1.240 1_565 S
H326 C300 0.931 . S
H327 C309 0.931 . S
H328 C313 0.929 . S
H329 C315 0.930 . S
Co330 N334 2.148 . S
Co330 N340 2.128 1_655 S
Co330 N350 2.194 1_655 S
Co330 O355 2.351 1_655 S
Co330 O356 2.155 . S
Co330 O357 2.096 . S
C331 N334 1.301 . S
C331 N335 1.328 . S
C331 H336 0.930 . S
C332 C333 1.333 . S
C332 N334 1.317 . S
C332 H337 0.930 . S
C333 C332 1.333 . S
C333 N335 1.350 . S
C333 H359 0.931 . S
N334 Co330 2.148 . S
N334 C331 1.301 . S
N334 C332 1.317 . S
N335 C331 1.328 . S
N335 C333 1.350 . S
H336 C331 0.930 . S
H337 C332 0.930 . S
C338 O339 1.224 . S
C338 O357 1.247 . S
O339 C338 1.224 . S
N340 Co330 2.128 1_455 S
N340 C341 1.355 . S
N340 C343 1.311 . S
C341 N340 1.355 . S
C341 C342 1.363 . S
C341 H353 0.929 . S
C342 C341 1.363 . S
C342 N344 1.375 . S
C342 H360 0.931 . S
C343 N340 1.311 . S
C343 N344 1.347 . S
C343 H354 0.929 . S
N344 C342 1.375 . S
N344 C343 1.347 . S
C345 C348 1.365 . S
C345 N350 1.328 . S
C345 H351 0.929 . S
C346 C347 1.362 . S
C346 C349 1.378 . S
C346 H361 0.929 . S
C347 C346 1.362 . S
C347 C348 1.366 . S
C348 C345 1.365 . S
C348 C347 1.366 . S
C348 H362 0.930 . S
C349 C346 1.378 . S
C349 N350 1.315 . S
C349 H352 0.956 . S
N350 Co330 2.194 1_455 S
N350 C345 1.328 . S
N350 C349 1.315 . S
H351 C345 0.929 . S
H352 C349 0.956 . S
H353 C341 0.929 . S
H354 C343 0.929 . S
O355 Co330 2.351 1_455 S
O355 C358 1.244 . S
O356 Co330 2.155 . S
O356 C358 1.240 1_655 S
O357 Co330 2.096 . S
O357 C338 1.247 . S
C358 O355 1.244 . S
C358 O356 1.240 1_455 S
H359 C333 0.931 . S
H360 C342 0.931 . S
H361 C346 0.929 . S
H362 C348 0.930 . S
Co363 N367 2.148 . S
Co363 N373 2.128 . S
Co363 N383 2.194 . S
Co363 O388 2.351 . S
Co363 O389 2.155 . S
Co363 O390 2.096 . S
C364 N367 1.301 . S
C364 N368 1.328 . S
C364 H369 0.930 . S
C365 C366 1.333 . S
C365 N367 1.317 . S
C365 H370 0.930 . S
C366 C365 1.333 . S
C366 N368 1.350 . S
C366 H392 0.931 . S
N367 Co363 2.148 . S
N367 C364 1.301 . S
N367 C365 1.317 . S
N368 C364 1.328 . S
N368 C366 1.350 . S
H369 C364 0.930 . S
H370 C365 0.930 . S
C371 O372 1.224 . S
C371 O390 1.247 . S
O372 C371 1.224 . S
N373 Co363 2.128 . S
N373 C374 1.355 . S
N373 C376 1.311 . S
C374 N373 1.355 . S
C374 C375 1.363 . S
C374 H386 0.929 . S
C375 C374 1.363 . S
C375 N377 1.375 . S
C375 H393 0.931 . S
C376 N373 1.311 . S
C376 N377 1.347 . S
C376 H387 0.929 . S
N377 C375 1.375 . S
N377 C376 1.347 . S
C378 C381 1.365 . S
C378 N383 1.328 . S
C378 H384 0.929 . S
C379 C380 1.362 . S
C379 C382 1.378 . S
C379 H394 0.929 . S
C380 C379 1.362 . S
C380 C381 1.366 . S
C381 C378 1.365 . S
C381 C380 1.366 . S
C381 H395 0.930 . S
C382 C379 1.378 . S
C382 N383 1.315 . S
C382 H385 0.930 . S
N383 Co363 2.194 . S
N383 C378 1.328 . S
N383 C382 1.315 . S
H384 C378 0.929 . S
H385 C382 0.930 . S
H386 C374 0.929 . S
H387 C376 0.929 . S
O388 Co363 2.351 . S
O388 C391 1.244 . S
O389 Co363 2.155 . S
O389 C391 1.240 . S
O390 Co363 2.096 . S
O390 C371 1.247 . S
C391 O388 1.244 . S
C391 O389 1.240 . S
H392 C366 0.931 . S
H393 C375 0.931 . S
H394 C379 0.929 . S
H395 C381 0.930 . S
Co396 N400 2.148 . S
Co396 N406 2.128 . S
Co396 N416 2.194 . S
Co396 O421 2.351 . S
Co396 O422 2.155 . S
Co396 O423 2.096 . S
C397 N400 1.301 . S
C397 N401 1.328 . S
C397 H402 0.930 . S
C398 C399 1.333 . S
C398 N400 1.317 . S
C398 H403 0.930 . S
C399 C398 1.333 . S
C399 N401 1.350 . S
C399 H425 0.931 . S
N400 Co396 2.148 . S
N400 C397 1.301 . S
N400 C398 1.317 . S
N401 C397 1.328 . S
N401 C399 1.350 . S
H402 C397 0.930 . S
H403 C398 0.930 . S
C404 O405 1.224 . S
C404 O423 1.247 . S
O405 C404 1.224 . S
N406 Co396 2.128 . S
N406 C407 1.355 . S
N406 C409 1.311 . S
C407 N406 1.355 . S
C407 C408 1.363 . S
C407 H419 0.929 . S
C408 C407 1.363 . S
C408 N410 1.375 . S
C408 H426 0.931 . S
C409 N406 1.311 . S
C409 N410 1.347 . S
C409 H420 0.929 . S
N410 C408 1.375 . S
N410 C409 1.347 . S
C411 C414 1.365 . S
C411 N416 1.328 . S
C411 H417 0.929 . S
C412 C413 1.362 . S
C412 C415 1.378 . S
C412 H427 0.929 . S
C413 C412 1.362 . S
C413 C414 1.366 . S
C414 C411 1.365 . S
C414 C413 1.366 . S
C414 H428 0.930 . S
C415 C412 1.378 . S
C415 N416 1.315 . S
C415 H418 0.930 . S
N416 Co396 2.194 . S
N416 C411 1.328 . S
N416 C415 1.315 . S
H417 C411 0.929 . S
H418 C415 0.930 . S
H419 C407 0.929 . S
H420 C409 0.929 . S
O421 Co396 2.351 . S
O421 C424 1.244 . S
O422 Co396 2.155 . S
O422 C424 1.240 . S
O423 Co396 2.096 . S
O423 C404 1.247 . S
C424 O421 1.244 . S
C424 O422 1.240 . S
H425 C399 0.931 . S
H426 C408 0.931 . S
H427 C412 0.929 . S
H428 C414 0.930 . S
Co429 N433 2.148 . S
Co429 N439 2.128 . S
Co429 N449 2.194 . S
Co429 O454 2.351 . S
Co429 O455 2.155 . S
Co429 O456 2.096 . S
C430 N433 1.301 . S
C430 N434 1.328 . S
C430 H435 0.930 . S
C431 C432 1.333 . S
C431 N433 1.317 . S
C431 H436 0.930 . S
C432 C431 1.333 . S
C432 N434 1.350 . S
C432 H458 0.931 . S
N433 Co429 2.148 . S
N433 C430 1.301 . S
N433 C431 1.317 . S
N434 C430 1.328 . S
N434 C432 1.350 . S
H435 C430 0.930 . S
H436 C431 0.930 . S
C437 O438 1.224 . S
C437 O456 1.247 . S
O438 C437 1.224 . S
N439 Co429 2.128 . S
N439 C440 1.355 . S
N439 C442 1.311 . S
C440 N439 1.355 . S
C440 C441 1.363 . S
C440 H452 0.929 . S
C441 C440 1.363 . S
C441 N443 1.375 . S
C441 H459 0.931 . S
C442 N439 1.311 . S
C442 N443 1.347 . S
C442 H453 0.929 . S
N443 C441 1.375 . S
N443 C442 1.347 . S
C444 C447 1.365 . S
C444 N449 1.328 . S
C444 H450 0.929 . S
C445 C446 1.362 . S
C445 C448 1.378 . S
C445 H460 0.929 . S
C446 C445 1.362 . S
C446 C447 1.366 . S
C447 C444 1.365 . S
C447 C446 1.366 . S
C447 H461 0.930 . S
C448 C445 1.378 . S
C448 N449 1.315 . S
C448 H451 0.930 . S
N449 Co429 2.194 . S
N449 C444 1.328 . S
N449 C448 1.315 . S
H450 C444 0.929 . S
H451 C448 0.930 . S
H452 C440 0.929 . S
H453 C442 0.929 . S
O454 Co429 2.351 . S
O454 C457 1.244 . S
O455 Co429 2.155 . S
O455 C457 1.240 . S
O456 Co429 2.096 . S
O456 C437 1.247 . S
C457 O454 1.244 . S
C457 O455 1.240 . S
H458 C432 0.931 . S
H459 C441 0.931 . S
H460 C445 0.929 . S
H461 C447 0.930 . S
Co462 N466 2.148 . S
Co462 N472 2.128 . S
Co462 N482 2.194 . S
Co462 O487 2.351 . S
Co462 O488 2.155 . S
Co462 O489 2.096 . S
C463 N466 1.301 . S
C463 N467 1.328 . S
C463 H468 0.930 . S
C464 C465 1.333 . S
C464 N466 1.317 . S
C464 H469 0.930 . S
C465 C464 1.333 . S
C465 N467 1.350 . S
C465 H491 0.931 . S
N466 Co462 2.148 . S
N466 C463 1.301 . S
N466 C464 1.317 . S
N467 C463 1.328 . S
N467 C465 1.350 . S
H468 C463 0.930 . S
H469 C464 0.930 . S
C470 O471 1.224 . S
C470 O489 1.247 . S
O471 C470 1.224 . S
N472 Co462 2.128 . S
N472 C473 1.355 . S
N472 C475 1.311 . S
C473 N472 1.355 . S
C473 C474 1.363 . S
C473 H485 0.929 . S
C474 C473 1.363 . S
C474 N476 1.375 . S
C474 H492 0.931 . S
C475 N472 1.311 . S
C475 N476 1.347 . S
C475 H486 0.929 . S
N476 C474 1.375 . S
N476 C475 1.347 . S
C477 C480 1.365 . S
C477 N482 1.328 . S
C477 H483 0.929 . S
C478 C479 1.362 . S
C478 C481 1.378 . S
C478 H493 0.929 . S
C479 C478 1.362 . S
C479 C480 1.366 . S
C480 C477 1.365 . S
C480 C479 1.366 . S
C480 H494 0.930 . S
C481 C478 1.378 . S
C481 N482 1.315 . S
C481 H484 0.930 . S
N482 Co462 2.194 . S
N482 C477 1.328 . S
N482 C481 1.315 . S
H483 C477 0.929 . S
H484 C481 0.930 . S
H485 C473 0.929 . S
H486 C475 0.929 . S
O487 Co462 2.351 . S
O487 C490 1.244 . S
O488 Co462 2.155 . S
O488 C490 1.240 . S
O489 Co462 2.096 . S
O489 C470 1.247 . S
C490 O487 1.244 . S
C490 O488 1.240 . S
H491 C465 0.931 . S
H492 C474 0.931 . S
H493 C478 0.929 . S
H494 C480 0.930 . S
Co495 N499 2.148 . S
Co495 N505 2.128 . S
Co495 N515 2.194 . S
Co495 O520 2.351 . S
Co495 O521 2.155 . S
Co495 O522 2.096 . S
C496 N499 1.301 . S
C496 N500 1.328 . S
C496 H501 0.930 . S
C497 C498 1.333 . S
C497 N499 1.317 . S
C497 H502 0.930 . S
C498 C497 1.333 . S
C498 N500 1.350 . S
C498 H524 0.931 . S
N499 Co495 2.148 . S
N499 C496 1.301 . S
N499 C497 1.317 . S
N500 C496 1.328 . S
N500 C498 1.350 . S
H501 C496 0.930 . S
H502 C497 0.930 . S
C503 O504 1.224 . S
C503 O522 1.247 . S
O504 C503 1.224 . S
N505 Co495 2.128 . S
N505 C506 1.355 . S
N505 C508 1.311 . S
C506 N505 1.355 . S
C506 C507 1.363 . S
C506 H518 0.929 . S
C507 C506 1.363 . S
C507 N509 1.375 . S
C507 H525 0.931 . S
C508 N505 1.311 . S
C508 N509 1.347 . S
C508 H519 0.929 . S
N509 C507 1.375 . S
N509 C508 1.347 . S
C510 C513 1.365 . S
C510 N515 1.328 . S
C510 H516 0.929 . S
C511 C512 1.362 . S
C511 C514 1.378 . S
C511 H526 0.929 . S
C512 C511 1.362 . S
C512 C513 1.366 . S
C513 C510 1.365 . S
C513 C512 1.366 . S
C513 H527 0.930 . S
C514 C511 1.378 . S
C514 N515 1.315 . S
C514 H517 0.930 . S
N515 Co495 2.194 . S
N515 C510 1.328 . S
N515 C514 1.315 . S
H516 C510 0.929 . S
H517 C514 0.930 . S
H518 C506 0.929 . S
H519 C508 0.929 . S
O520 Co495 2.351 . S
O520 C523 1.244 . S
O521 Co495 2.155 . S
O521 C523 1.240 . S
O522 Co495 2.096 . S
O522 C503 1.247 . S
C523 O520 1.244 . S
C523 O521 1.240 . S
H524 C498 0.931 . S
H525 C507 0.931 . S
H526 C511 0.929 . S
H527 C513 0.930 . S
Co528 N532 2.148 . S
Co528 N538 2.128 . S
Co528 N548 2.194 . S
Co528 O553 2.351 . S
Co528 O554 2.155 . S
Co528 O555 2.096 . S
C529 N532 1.301 . S
C529 N533 1.328 . S
C529 H534 0.930 . S
C530 C531 1.333 . S
C530 N532 1.317 . S
C530 H535 0.930 . S
C531 C530 1.333 . S
C531 N533 1.350 . S
C531 H557 0.931 . S
N532 Co528 2.148 . S
N532 C529 1.301 . S
N532 C530 1.317 . S
N533 C529 1.328 . S
N533 C531 1.350 . S
H534 C529 0.930 . S
H535 C530 0.930 . S
C536 O537 1.224 . S
C536 O555 1.247 . S
O537 C536 1.224 . S
N538 Co528 2.128 . S
N538 C539 1.355 . S
N538 C541 1.311 . S
C539 N538 1.355 . S
C539 C540 1.363 . S
C539 H551 0.929 . S
C540 C539 1.363 . S
C540 N542 1.375 . S
C540 H558 0.931 . S
C541 N538 1.311 . S
C541 N542 1.347 . S
C541 H552 0.929 . S
N542 C540 1.375 . S
N542 C541 1.347 . S
C543 C546 1.365 . S
C543 N548 1.328 . S
C543 H549 0.929 . S
C544 C545 1.362 . S
C544 C547 1.378 . S
C544 H559 0.929 . S
C545 C544 1.362 . S
C545 C546 1.366 . S
C546 C543 1.365 . S
C546 C545 1.366 . S
C546 H560 0.930 . S
C547 C544 1.378 . S
C547 N548 1.315 . S
C547 H550 0.930 . S
N548 Co528 2.194 . S
N548 C543 1.328 . S
N548 C547 1.315 . S
H549 C543 0.929 . S
H550 C547 0.930 . S
H551 C539 0.929 . S
H552 C541 0.929 . S
O553 Co528 2.351 . S
O553 C556 1.244 . S
O554 Co528 2.155 . S
O554 C556 1.240 . S
O555 Co528 2.096 . S
O555 C536 1.247 . S
C556 O553 1.244 . S
C556 O554 1.240 . S
H557 C531 0.931 . S
H558 C540 0.931 . S
H559 C544 0.929 . S
H560 C546 0.930 . S
Co561 N565 2.148 . S
Co561 N571 2.128 . S
Co561 N581 2.194 . S
Co561 O586 2.351 . S
Co561 O587 2.155 . S
Co561 O588 2.096 . S
C562 N565 1.301 . S
C562 N566 1.328 . S
C562 H567 0.930 . S
C563 C564 1.333 . S
C563 N565 1.317 . S
C563 H568 0.930 . S
C564 C563 1.333 . S
C564 N566 1.350 . S
C564 H590 0.931 . S
N565 Co561 2.148 . S
N565 C562 1.301 . S
N565 C563 1.317 . S
N566 C562 1.328 . S
N566 C564 1.350 . S
H567 C562 0.930 . S
H568 C563 0.930 . S
C569 O570 1.224 . S
C569 O588 1.247 . S
O570 C569 1.224 . S
N571 Co561 2.128 . S
N571 C572 1.355 . S
N571 C574 1.311 . S
C572 N571 1.355 . S
C572 C573 1.363 . S
C572 H584 0.929 . S
C573 C572 1.363 . S
C573 N575 1.375 . S
C573 H591 0.931 . S
C574 N571 1.311 . S
C574 N575 1.347 . S
C574 H585 0.929 . S
N575 C573 1.375 . S
N575 C574 1.347 . S
C576 C579 1.365 . S
C576 N581 1.328 . S
C576 H582 0.929 . S
C577 C578 1.362 . S
C577 C580 1.378 . S
C577 H592 0.929 . S
C578 C577 1.362 . S
C578 C579 1.366 . S
C579 C576 1.365 . S
C579 C578 1.366 . S
C579 H593 0.930 . S
C580 C577 1.378 . S
C580 N581 1.315 . S
C580 H583 0.930 . S
N581 Co561 2.194 . S
N581 C576 1.328 . S
N581 C580 1.315 . S
H582 C576 0.929 . S
H583 C580 0.930 . S
H584 C572 0.929 . S
H585 C574 0.929 . S
O586 Co561 2.351 . S
O586 C589 1.244 . S
O587 Co561 2.155 . S
O587 C589 1.240 . S
O588 Co561 2.096 . S
O588 C569 1.247 . S
C589 O586 1.244 . S
C589 O587 1.240 . S
H590 C564 0.931 . S
H591 C573 0.931 . S
H592 C577 0.929 . S
H593 C579 0.930 . S
Co594 N598 2.148 . S
Co594 N604 2.128 . S
Co594 N614 2.194 . S
Co594 O619 2.351 . S
Co594 O620 2.155 . S
Co594 O621 2.096 . S
C595 N598 1.301 . S
C595 N599 1.328 . S
C595 H600 0.930 . S
C596 C597 1.333 . S
C596 N598 1.317 . S
C596 H601 0.930 . S
C597 C596 1.333 . S
C597 N599 1.350 . S
C597 H623 0.931 . S
N598 Co594 2.148 . S
N598 C595 1.301 . S
N598 C596 1.317 . S
N599 C595 1.328 . S
N599 C597 1.350 . S
H600 C595 0.930 . S
H601 C596 0.930 . S
C602 O603 1.224 . S
C602 O621 1.247 . S
O603 C602 1.224 . S
N604 Co594 2.128 . S
N604 C605 1.355 . S
N604 C607 1.311 . S
C605 N604 1.355 . S
C605 C606 1.363 . S
C605 H617 0.929 . S
C606 C605 1.363 . S
C606 N608 1.375 . S
C606 H624 0.931 . S
C607 N604 1.311 . S
C607 N608 1.347 . S
C607 H618 0.929 . S
N608 C606 1.375 . S
N608 C607 1.347 . S
C609 C612 1.365 . S
C609 N614 1.328 . S
C609 H615 0.929 . S
C610 C611 1.362 . S
C610 C613 1.378 . S
C610 H625 0.929 . S
C611 C610 1.362 . S
C611 C612 1.366 . S
C612 C609 1.365 . S
C612 C611 1.366 . S
C612 H626 0.930 . S
C613 C610 1.378 . S
C613 N614 1.315 . S
C613 H616 0.930 . S
N614 Co594 2.194 . S
N614 C609 1.328 . S
N614 C613 1.315 . S
H615 C609 0.929 . S
H616 C613 0.930 . S
H617 C605 0.929 . S
H618 C607 0.929 . S
O619 Co594 2.351 . S
O619 C622 1.244 . S
O620 Co594 2.155 . S
O620 C622 1.240 . S
O621 Co594 2.096 . S
O621 C602 1.247 . S
C622 O619 1.244 . S
C622 O620 1.240 . S
H623 C597 0.931 . S
H624 C606 0.931 . S
H625 C610 0.929 . S
H626 C612 0.930 . S
Co627 N631 2.148 . S
Co627 N637 2.128 . S
Co627 N647 2.194 . S
Co627 O652 2.351 . S
Co627 O653 2.155 . S
Co627 O654 2.096 . S
C628 N631 1.301 . S
C628 N632 1.328 . S
C628 H633 0.930 . S
C629 C630 1.333 . S
C629 N631 1.317 . S
C629 H634 0.930 . S
C630 C629 1.333 . S
C630 N632 1.350 . S
C630 H656 0.931 . S
N631 Co627 2.148 . S
N631 C628 1.301 . S
N631 C629 1.317 . S
N632 C628 1.328 . S
N632 C630 1.350 . S
H633 C628 0.930 . S
H634 C629 0.930 . S
C635 O636 1.224 . S
C635 O654 1.247 . S
O636 C635 1.224 . S
N637 Co627 2.128 . S
N637 C638 1.355 . S
N637 C640 1.311 . S
C638 N637 1.355 . S
C638 C639 1.363 . S
C638 H650 0.929 . S
C639 C638 1.363 . S
C639 N641 1.375 . S
C639 H657 0.931 . S
C640 N637 1.311 . S
C640 N641 1.347 . S
C640 H651 0.929 . S
N641 C639 1.375 . S
N641 C640 1.347 . S
C642 C645 1.365 . S
C642 N647 1.328 . S
C642 H648 0.929 . S
C643 C644 1.362 . S
C643 C646 1.378 . S
C643 H658 0.929 . S
C644 C643 1.362 . S
C644 C645 1.366 . S
C645 C642 1.365 . S
C645 C644 1.366 . S
C645 H659 0.930 . S
C646 C643 1.378 . S
C646 N647 1.315 . S
C646 H649 0.930 . S
N647 Co627 2.194 . S
N647 C642 1.328 . S
N647 C646 1.315 . S
H648 C642 0.929 . S
H649 C646 0.930 . S
H650 C638 0.929 . S
H651 C640 0.929 . S
O652 Co627 2.351 . S
O652 C655 1.244 . S
O653 Co627 2.155 . S
O653 C655 1.240 . S
O654 Co627 2.096 . S
O654 C635 1.247 . S
C655 O652 1.244 . S
C655 O653 1.240 . S
H656 C630 0.931 . S
H657 C639 0.931 . S
H658 C643 0.929 . S
H659 C645 0.930 . S
Co660 N664 2.148 . S
Co660 N670 2.128 . S
Co660 N680 2.194 . S
Co660 O685 2.351 . S
Co660 O686 2.155 . S
Co660 O687 2.096 . S
C661 N664 1.301 . S
C661 N665 1.328 . S
C661 H666 0.930 . S
C662 C663 1.333 . S
C662 N664 1.317 . S
C662 H667 0.930 . S
C663 C662 1.333 . S
C663 N665 1.350 . S
C663 H689 0.931 . S
N664 Co660 2.148 . S
N664 C661 1.301 . S
N664 C662 1.317 . S
N665 C661 1.328 . S
N665 C663 1.350 . S
H666 C661 0.930 . S
H667 C662 0.930 . S
C668 O669 1.224 . S
C668 O687 1.247 . S
O669 C668 1.224 . S
N670 Co660 2.128 . S
N670 C671 1.355 . S
N670 C673 1.311 . S
C671 N670 1.355 . S
C671 C672 1.363 . S
C671 H683 0.929 . S
C672 C671 1.363 . S
C672 N674 1.375 . S
C672 H690 0.931 . S
C673 N670 1.311 . S
C673 N674 1.347 . S
C673 H684 0.929 . S
N674 C672 1.375 . S
N674 C673 1.347 . S
C675 C678 1.365 . S
C675 N680 1.328 . S
C675 H681 0.929 . S
C676 C677 1.362 . S
C676 C679 1.378 . S
C676 H691 0.929 . S
C677 C676 1.362 . S
C677 C678 1.366 . S
C678 C675 1.365 . S
C678 C677 1.366 . S
C678 H692 0.930 . S
C679 C676 1.378 . S
C679 N680 1.315 . S
C679 H682 0.930 . S
N680 Co660 2.194 . S
N680 C675 1.328 . S
N680 C679 1.315 . S
H681 C675 0.929 . S
H682 C679 0.930 . S
H683 C671 0.929 . S
H684 C673 0.929 . S
O685 Co660 2.351 . S
O685 C688 1.244 . S
O686 Co660 2.155 . S
O686 C688 1.240 . S
O687 Co660 2.096 . S
O687 C668 1.247 . S
C688 O685 1.244 . S
C688 O686 1.240 . S
H689 C663 0.931 . S
H690 C672 0.931 . S
H691 C676 0.929 . S
H692 C678 0.930 . S
Co693 N697 2.148 . S
Co693 N703 2.128 . S
Co693 N713 2.194 . S
Co693 O718 2.404 . S
Co693 O719 2.155 1_556 S
Co693 O720 2.096 . S
C694 N697 1.301 . S
C694 N698 1.328 . S
C694 H699 0.930 . S
C695 C696 1.333 . S
C695 N697 1.317 . S
C695 H700 0.930 . S
C696 C695 1.333 . S
C696 N698 1.350 . S
C696 H722 0.931 . S
N697 Co693 2.148 . S
N697 C694 1.301 . S
N697 C695 1.317 . S
N698 C694 1.328 . S
N698 C696 1.350 . S
H699 C694 0.930 . S
H700 C695 0.930 . S
C701 O702 1.224 . S
C701 O720 1.247 . S
O702 C701 1.224 . S
N703 Co693 2.128 . S
N703 C704 1.355 . S
N703 C706 1.311 . S
C704 N703 1.355 . S
C704 C705 1.363 . S
C704 H716 0.929 . S
C705 C704 1.363 . S
C705 N707 1.375 . S
C705 H723 0.931 . S
C706 N703 1.311 . S
C706 N707 1.347 . S
C706 H717 0.929 . S
N707 C705 1.375 . S
N707 C706 1.347 . S
C708 C711 1.365 . S
C708 N713 1.328 . S
C708 H714 0.929 . S
C709 C710 1.362 . S
C709 C712 1.378 . S
C709 H724 0.929 . S
C710 C709 1.362 . S
C710 C711 1.366 . S
C711 C708 1.365 . S
C711 C710 1.366 . S
C711 H725 0.930 . S
C712 C709 1.378 . S
C712 N713 1.315 . S
C712 H715 0.930 . S
N713 Co693 2.194 . S
N713 C708 1.328 . S
N713 C712 1.315 . S
H714 C708 0.929 . S
H715 C712 0.930 . S
H716 C704 0.929 . S
H717 C706 0.929 . S
O718 Co693 2.404 . S
O718 C721 1.190 1_556 S
O719 Co693 2.155 1_554 S
O719 C721 1.240 . S
O720 Co693 2.096 . S
O720 C701 1.247 . S
C721 O718 1.190 1_554 S
C721 O719 1.240 . S
H722 C696 0.931 . S
H723 C705 0.931 . S
H724 C709 0.929 . S
H725 C711 0.930 . S
Co726 N730 2.148 . S
Co726 N736 2.128 . S
Co726 N746 2.194 . S
Co726 O751 2.351 . S
Co726 O752 2.155 1_556 S
Co726 O753 2.096 . S
C727 N730 1.301 . S
C727 N731 1.328 . S
C727 H732 0.930 . S
C728 C729 1.333 . S
C728 N730 1.317 . S
C728 H733 0.930 . S
C729 C728 1.333 . S
C729 N731 1.350 . S
C729 H755 0.931 . S
N730 Co726 2.148 . S
N730 C727 1.301 . S
N730 C728 1.317 . S
N731 C727 1.328 . S
N731 C729 1.350 . S
H732 C727 0.930 . S
H733 C728 0.930 . S
C734 O735 1.224 . S
C734 O753 1.247 . S
O735 C734 1.224 . S
N736 Co726 2.128 . S
N736 C737 1.355 . S
N736 C739 1.311 . S
C737 N736 1.355 . S
C737 C738 1.363 . S
C737 H749 0.929 . S
C738 C737 1.363 . S
C738 N740 1.375 . S
C738 H756 0.931 . S
C739 N736 1.311 . S
C739 N740 1.347 . S
C739 H750 0.929 . S
N740 C738 1.375 . S
N740 C739 1.347 . S
C741 C744 1.365 . S
C741 N746 1.328 . S
C741 H747 0.929 . S
C742 C743 1.362 . S
C742 C745 1.378 . S
C742 H757 0.929 . S
C743 C742 1.362 . S
C743 C744 1.366 . S
C744 C741 1.365 . S
C744 C743 1.366 . S
C744 H758 0.930 . S
C745 C742 1.378 . S
C745 N746 1.315 . S
C745 H748 0.930 . S
N746 Co726 2.194 . S
N746 C741 1.328 . S
N746 C745 1.315 . S
H747 C741 0.929 . S
H748 C745 0.930 . S
H749 C737 0.929 . S
H750 C739 0.929 . S
O751 Co726 2.351 . S
O751 C754 1.244 1_556 S
O752 Co726 2.155 1_554 S
O752 C754 1.240 . S
O753 Co726 2.096 . S
O753 C734 1.247 . S
C754 O751 1.244 1_554 S
C754 O752 1.240 . S
H755 C729 0.931 . S
H756 C738 0.931 . S
H757 C742 0.929 . S
H758 C744 0.930 . S
Co759 N763 2.148 . S
Co759 N769 2.128 . S
Co759 N779 2.194 . S
Co759 O784 2.376 . S
Co759 O785 2.155 1_556 S
Co759 O786 2.096 . S
C760 N763 1.301 . S
C760 N764 1.328 . S
C760 H765 0.930 . S
C761 C762 1.333 . S
C761 N763 1.317 . S
C761 H766 0.930 . S
C762 C761 1.333 . S
C762 N764 1.350 . S
C762 H788 0.931 . S
N763 Co759 2.148 . S
N763 C760 1.301 . S
N763 C761 1.317 . S
N764 C760 1.328 . S
N764 C762 1.350 . S
H765 C760 0.930 . S
H766 C761 0.930 . S
C767 O768 1.224 . S
C767 O786 1.247 . S
O768 C767 1.224 . S
N769 Co759 2.128 . S
N769 C770 1.355 . S
N769 C772 1.311 . S
C770 N769 1.355 . S
C770 C771 1.363 . S
C770 H782 0.929 . S
C771 C770 1.363 . S
C771 N773 1.375 . S
C771 H789 0.931 . S
C772 N769 1.311 . S
C772 N773 1.347 . S
C772 H783 0.929 . S
N773 C771 1.375 . S
N773 C772 1.347 . S
C774 C777 1.365 . S
C774 N779 1.328 . S
C774 H780 0.929 . S
C775 C776 1.362 . S
C775 C778 1.378 . S
C775 H790 0.929 . S
C776 C775 1.362 . S
C776 C777 1.366 . S
C777 C774 1.365 . S
C777 C776 1.366 . S
C777 H791 0.930 . S
C778 C775 1.378 . S
C778 N779 1.315 . S
C778 H781 0.930 . S
N779 Co759 2.194 . S
N779 C774 1.328 . S
N779 C778 1.315 . S
H780 C774 0.929 . S
H781 C778 0.930 . S
H782 C770 0.929 . S
H783 C772 0.929 . S
O784 Co759 2.376 . S
O784 C787 1.219 1_556 S
O785 Co759 2.155 1_554 S
O785 C787 1.240 . S
O786 Co759 2.096 . S
O786 C767 1.247 . S
C787 O784 1.219 1_554 S
C787 O785 1.240 . S
H788 C762 0.931 . S
H789 C771 0.931 . S
H790 C775 0.929 . S
H791 C777 0.930 . S
Co792 N796 2.148 . S
Co792 N802 2.128 . S
Co792 N812 2.194 . S
Co792 O817 2.351 . S
Co792 O818 2.155 . S
Co792 O819 2.096 . S
C793 N796 1.301 . S
C793 N797 1.328 . S
C793 H798 0.930 . S
C794 C795 1.333 . S
C794 N796 1.317 . S
C794 H799 0.930 . S
C795 C794 1.333 . S
C795 N797 1.350 . S
C795 H821 0.931 . S
N796 Co792 2.148 . S
N796 C793 1.301 . S
N796 C794 1.317 . S
N797 C793 1.328 . S
N797 C795 1.350 . S
H798 C793 0.930 . S
H799 C794 0.930 . S
C800 O801 1.224 . S
C800 O819 1.247 . S
O801 C800 1.224 . S
N802 Co792 2.128 . S
N802 C803 1.355 . S
N802 C805 1.311 . S
C803 N802 1.355 . S
C803 C804 1.363 . S
C803 H815 0.929 . S
C804 C803 1.363 . S
C804 N806 1.375 . S
C804 H822 0.931 . S
C805 N802 1.311 . S
C805 N806 1.347 . S
C805 H816 0.929 . S
N806 C804 1.375 . S
N806 C805 1.347 . S
C807 C810 1.365 . S
C807 N812 1.328 . S
C807 H813 0.929 . S
C808 C809 1.362 . S
C808 C811 1.378 . S
C808 H823 0.929 . S
C809 C808 1.362 . S
C809 C810 1.366 . S
C810 C807 1.365 . S
C810 C809 1.366 . S
C810 H824 0.930 . S
C811 C808 1.378 . S
C811 N812 1.315 . S
C811 H814 0.930 . S
N812 Co792 2.194 . S
N812 C807 1.328 . S
N812 C811 1.315 . S
H813 C807 0.929 . S
H814 C811 0.930 . S
H815 C803 0.929 . S
H816 C805 0.929 . S
O817 Co792 2.351 . S
O817 C820 1.244 . S
O818 Co792 2.155 . S
O818 C820 1.240 . S
O819 Co792 2.096 . S
O819 C800 1.247 . S
C820 O817 1.244 . S
C820 O818 1.240 . S
H821 C795 0.931 . S
H822 C804 0.931 . S
H823 C808 0.929 . S
H824 C810 0.930 . S
Co825 N829 2.148 . S
Co825 N835 2.128 . S
Co825 N845 2.194 . S
Co825 O850 2.351 . S
Co825 O851 2.155 . S
Co825 O852 2.096 . S
C826 N829 1.301 . S
C826 N830 1.328 . S
C826 H831 0.930 . S
C827 C828 1.333 . S
C827 N829 1.317 . S
C827 H832 0.930 . S
C828 C827 1.333 . S
C828 N830 1.350 . S
C828 H854 0.931 . S
N829 Co825 2.148 . S
N829 C826 1.301 . S
N829 C827 1.317 . S
N830 C826 1.328 . S
N830 C828 1.350 . S
H831 C826 0.930 . S
H832 C827 0.930 . S
C833 O834 1.224 . S
C833 O852 1.247 . S
O834 C833 1.224 . S
N835 Co825 2.128 . S
N835 C836 1.355 . S
N835 C838 1.311 . S
C836 N835 1.355 . S
C836 C837 1.363 . S
C836 H848 0.929 . S
C837 C836 1.363 . S
C837 N839 1.375 . S
C837 H855 0.931 . S
C838 N835 1.311 . S
C838 N839 1.347 . S
C838 H849 0.929 . S
N839 C837 1.375 . S
N839 C838 1.347 . S
C840 C843 1.365 . S
C840 N845 1.328 . S
C840 H846 0.929 . S
C841 C842 1.362 . S
C841 C844 1.378 . S
C841 H856 0.929 . S
C842 C841 1.362 . S
C842 C843 1.366 . S
C843 C840 1.365 . S
C843 C842 1.366 . S
C843 H857 0.930 . S
C844 C841 1.378 . S
C844 N845 1.315 . S
C844 H847 0.930 . S
N845 Co825 2.194 . S
N845 C840 1.328 . S
N845 C844 1.315 . S
H846 C840 0.929 . S
H847 C844 0.930 . S
H848 C836 0.929 . S
H849 C838 0.929 . S
O850 Co825 2.351 . S
O850 C853 1.244 . S
O851 Co825 2.155 . S
O851 C853 1.240 . S
O852 Co825 2.096 . S
O852 C833 1.247 . S
C853 O850 1.244 . S
C853 O851 1.240 . S
H854 C828 0.931 . S
H855 C837 0.931 . S
H856 C841 0.929 . S
H857 C843 0.930 . S
Co858 N862 2.148 . S
Co858 N868 2.128 . S
Co858 N878 2.194 . S
Co858 O883 2.351 . S
Co858 O884 2.155 . S
Co858 O885 2.096 . S
C859 N862 1.301 . S
C859 N863 1.328 . S
C859 H864 0.930 . S
C860 C861 1.333 . S
C860 N862 1.317 . S
C860 H865 0.930 . S
C861 C860 1.333 . S
C861 N863 1.350 . S
C861 H887 0.931 . S
N862 Co858 2.148 . S
N862 C859 1.301 . S
N862 C860 1.317 . S
N863 C859 1.328 . S
N863 C861 1.350 . S
H864 C859 0.930 . S
H865 C860 0.930 . S
C866 O867 1.224 . S
C866 O885 1.247 . S
O867 C866 1.224 . S
N868 Co858 2.128 . S
N868 C869 1.355 . S
N868 C871 1.311 . S
C869 N868 1.355 . S
C869 C870 1.363 . S
C869 H881 0.929 . S
C870 C869 1.363 . S
C870 N872 1.375 . S
C870 H888 0.931 . S
C871 N868 1.311 . S
C871 N872 1.347 . S
C871 H882 0.929 . S
N872 C870 1.375 . S
N872 C871 1.347 . S
C873 C876 1.365 . S
C873 N878 1.328 . S
C873 H879 0.929 . S
C874 C875 1.362 . S
C874 C877 1.378 . S
C874 H889 0.929 . S
C875 C874 1.362 . S
C875 C876 1.366 . S
C876 C873 1.365 . S
C876 C875 1.366 . S
C876 H890 0.930 . S
C877 C874 1.378 . S
C877 N878 1.315 . S
C877 H880 0.930 . S
N878 Co858 2.194 . S
N878 C873 1.328 . S
N878 C877 1.315 . S
H879 C873 0.929 . S
H880 C877 0.930 . S
H881 C869 0.929 . S
H882 C871 0.929 . S
O883 Co858 2.351 . S
O883 C886 1.244 . S
O884 Co858 2.155 . S
O884 C886 1.240 . S
O885 Co858 2.096 . S
O885 C866 1.247 . S
C886 O883 1.244 . S
C886 O884 1.240 . S
H887 C861 0.931 . S
H888 C870 0.931 . S
H889 C874 0.929 . S
H890 C876 0.930 . S
Co891 N895 2.148 . S
Co891 N901 2.128 . S
Co891 N911 2.194 . S
Co891 O916 2.404 . S
Co891 O917 2.155 1_554 S
Co891 O918 2.096 . S
C892 N895 1.301 . S
C892 N896 1.328 . S
C892 H897 0.930 . S
C893 C894 1.333 . S
C893 N895 1.317 . S
C893 H898 0.930 . S
C894 C893 1.333 . S
C894 N896 1.350 . S
C894 H920 0.931 . S
N895 Co891 2.148 . S
N895 C892 1.301 . S
N895 C893 1.317 . S
N896 C892 1.328 . S
N896 C894 1.350 . S
H897 C892 0.930 . S
H898 C893 0.930 . S
C899 O900 1.224 . S
C899 O918 1.247 . S
O900 C899 1.224 . S
N901 Co891 2.128 . S
N901 C902 1.355 . S
N901 C904 1.311 . S
C902 N901 1.355 . S
C902 C903 1.363 . S
C902 H914 0.929 . S
C903 C902 1.363 . S
C903 N905 1.375 . S
C903 H921 0.931 . S
C904 N901 1.311 . S
C904 N905 1.347 . S
C904 H915 0.929 . S
N905 C903 1.375 . S
N905 C904 1.347 . S
C906 C909 1.365 . S
C906 N911 1.328 . S
C906 H912 0.929 . S
C907 C908 1.362 . S
C907 C910 1.378 . S
C907 H922 0.929 . S
C908 C907 1.362 . S
C908 C909 1.366 . S
C909 C906 1.365 . S
C909 C908 1.366 . S
C909 H923 0.930 . S
C910 C907 1.378 . S
C910 N911 1.315 . S
C910 H913 0.930 . S
N911 Co891 2.194 . S
N911 C906 1.328 . S
N911 C910 1.315 . S
H912 C906 0.929 . S
H913 C910 0.930 . S
H914 C902 0.929 . S
H915 C904 0.929 . S
O916 Co891 2.404 . S
O916 C919 1.190 1_554 S
O917 Co891 2.155 1_556 S
O917 C919 1.240 . S
O918 Co891 2.096 . S
O918 C899 1.247 . S
C919 O916 1.190 1_556 S
C919 O917 1.240 . S
H920 C894 0.931 . S
H921 C903 0.931 . S
H922 C907 0.929 . S
H923 C909 0.930 . S
Co924 N928 2.148 . S
Co924 N934 2.128 . S
Co924 N944 2.194 . S
Co924 O949 2.351 . S
Co924 O950 2.155 1_554 S
Co924 O951 2.096 . S
C925 N928 1.301 . S
C925 N929 1.328 . S
C925 H930 0.930 . S
C926 C927 1.333 . S
C926 N928 1.317 . S
C926 H931 0.930 . S
C927 C926 1.333 . S
C927 N929 1.350 . S
C927 H953 0.931 . S
N928 Co924 2.148 . S
N928 C925 1.301 . S
N928 C926 1.317 . S
N929 C925 1.328 . S
N929 C927 1.350 . S
H930 C925 0.930 . S
H931 C926 0.930 . S
C932 O933 1.224 . S
C932 O951 1.247 . S
O933 C932 1.224 . S
N934 Co924 2.128 . S
N934 C935 1.355 . S
N934 C937 1.311 . S
C935 N934 1.355 . S
C935 C936 1.363 . S
C935 H947 0.929 . S
C936 C935 1.363 . S
C936 N938 1.375 . S
C936 H954 0.931 . S
C937 N934 1.311 . S
C937 N938 1.347 . S
C937 H948 0.929 . S
N938 C936 1.375 . S
N938 C937 1.347 . S
C939 C942 1.365 . S
C939 N944 1.328 . S
C939 H945 0.929 . S
C940 C941 1.362 . S
C940 C943 1.378 . S
C940 H955 0.929 . S
C941 C940 1.362 . S
C941 C942 1.366 . S
C942 C939 1.365 . S
C942 C941 1.366 . S
C942 H956 0.930 . S
C943 C940 1.378 . S
C943 N944 1.315 . S
C943 H946 0.930 . S
N944 Co924 2.194 . S
N944 C939 1.328 . S
N944 C943 1.315 . S
H945 C939 0.929 . S
H946 C943 0.930 . S
H947 C935 0.929 . S
H948 C937 0.929 . S
O949 Co924 2.351 . S
O949 C952 1.244 1_554 S
O950 Co924 2.155 1_556 S
O950 C952 1.240 . S
O951 Co924 2.096 . S
O951 C932 1.247 . S
C952 O949 1.244 1_556 S
C952 O950 1.240 . S
H953 C927 0.931 . S
H954 C936 0.931 . S
H955 C940 0.929 . S
H956 C942 0.930 . S
Co957 N961 2.148 . S
Co957 N967 2.128 . S
Co957 N977 2.194 . S
Co957 O982 2.376 . S
Co957 O983 2.155 1_554 S
Co957 O984 2.096 . S
C958 N961 1.301 . S
C958 N962 1.328 . S
C958 H963 0.930 . S
C959 C960 1.333 . S
C959 N961 1.317 . S
C959 H964 0.930 . S
C960 C959 1.333 . S
C960 N962 1.350 . S
C960 H986 0.931 . S
N961 Co957 2.148 . S
N961 C958 1.301 . S
N961 C959 1.317 . S
N962 C958 1.328 . S
N962 C960 1.350 . S
H963 C958 0.930 . S
H964 C959 0.930 . S
C965 O966 1.224 . S
C965 O984 1.247 . S
O966 C965 1.224 . S
N967 Co957 2.128 . S
N967 C968 1.355 . S
N967 C970 1.311 . S
C968 N967 1.355 . S
C968 C969 1.363 . S
C968 H980 0.929 . S
C969 C968 1.363 . S
C969 N971 1.375 . S
C969 H987 0.931 . S
C970 N967 1.311 . S
C970 N971 1.347 . S
C970 H981 0.929 . S
N971 C969 1.375 . S
N971 C970 1.347 . S
C972 C975 1.365 . S
C972 N977 1.328 . S
C972 H978 0.929 . S
C973 C974 1.362 . S
C973 C976 1.378 . S
C973 H988 0.929 . S
C974 C973 1.362 . S
C974 C975 1.366 . S
C975 C972 1.365 . S
C975 C974 1.366 . S
C975 H989 0.930 . S
C976 C973 1.378 . S
C976 N977 1.315 . S
C976 H979 0.930 . S
N977 Co957 2.194 . S
N977 C972 1.328 . S
N977 C976 1.315 . S
H978 C972 0.929 . S
H979 C976 0.930 . S
H980 C968 0.929 . S
H981 C970 0.929 . S
O982 Co957 2.376 . S
O982 C985 1.219 1_554 S
O983 Co957 2.155 1_556 S
O983 C985 1.240 . S
O984 Co957 2.096 . S
O984 C965 1.247 . S
C985 O982 1.219 1_556 S
C985 O983 1.240 . S
H986 C960 0.931 . S
H987 C969 0.931 . S
H988 C973 0.929 . S
H989 C975 0.930 . S
Co990 N994 2.148 . S
Co990 N1000 2.128 . S
Co990 N1010 2.194 . S
Co990 O1015 2.351 . S
Co990 O1016 2.155 . S
Co990 O1017 2.096 . S
C991 N994 1.301 . S
C991 N995 1.328 . S
C991 H996 0.930 . S
C992 C993 1.333 . S
C992 N994 1.317 . S
C992 H997 0.930 . S
C993 C992 1.333 . S
C993 N995 1.350 . S
C993 H1019 0.931 . S
N994 Co990 2.148 . S
N994 C991 1.301 . S
N994 C992 1.317 . S
N995 C991 1.328 . S
N995 C993 1.350 . S
H996 C991 0.930 . S
H997 C992 0.930 . S
C998 O999 1.224 . S
C998 O1017 1.247 . S
O999 C998 1.224 . S
N1000 Co990 2.128 . S
N1000 C1001 1.355 . S
N1000 C1003 1.311 . S
C1001 N1000 1.355 . S
C1001 C1002 1.363 . S
C1001 H1013 0.929 . S
C1002 C1001 1.363 . S
C1002 N1004 1.375 . S
C1002 H1020 0.931 . S
C1003 N1000 1.311 . S
C1003 N1004 1.347 . S
C1003 H1014 0.929 . S
N1004 C1002 1.375 . S
N1004 C1003 1.347 . S
C1005 C1008 1.365 . S
C1005 N1010 1.328 . S
C1005 H1011 0.929 . S
C1006 C1007 1.362 . S
C1006 C1009 1.378 . S
C1006 H1021 0.929 . S
C1007 C1006 1.362 . S
C1007 C1008 1.366 . S
C1008 C1005 1.365 . S
C1008 C1007 1.366 . S
C1008 H1022 0.930 . S
C1009 C1006 1.378 . S
C1009 N1010 1.315 . S
C1009 H1012 0.930 . S
N1010 Co990 2.194 . S
N1010 C1005 1.328 . S
N1010 C1009 1.315 . S
H1011 C1005 0.929 . S
H1012 C1009 0.930 . S
H1013 C1001 0.929 . S
H1014 C1003 0.929 . S
O1015 Co990 2.351 . S
O1015 C1018 1.244 . S
O1016 Co990 2.155 . S
O1016 C1018 1.240 . S
O1017 Co990 2.096 . S
O1017 C998 1.247 . S
C1018 O1015 1.244 . S
C1018 O1016 1.240 . S
H1019 C993 0.931 . S
H1020 C1002 0.931 . S
H1021 C1006 0.929 . S
H1022 C1008 0.930 . S
Co1023 N1027 2.148 . S
Co1023 N1033 2.128 . S
Co1023 N1043 2.194 . S
Co1023 O1048 2.351 . S
Co1023 O1049 2.155 . S
Co1023 O1050 2.096 . S
C1024 N1027 1.301 . S
C1024 N1028 1.328 . S
C1024 H1029 0.930 . S
C1025 C1026 1.333 . S
C1025 N1027 1.317 . S
C1025 H1030 0.930 . S
C1026 C1025 1.333 . S
C1026 N1028 1.350 . S
C1026 H1052 0.931 . S
N1027 Co1023 2.148 . S
N1027 C1024 1.301 . S
N1027 C1025 1.317 . S
N1028 C1024 1.328 . S
N1028 C1026 1.350 . S
H1029 C1024 0.930 . S
H1030 C1025 0.930 . S
C1031 O1032 1.224 . S
C1031 O1050 1.247 . S
O1032 C1031 1.224 . S
N1033 Co1023 2.128 . S
N1033 C1034 1.355 . S
N1033 C1036 1.311 . S
C1034 N1033 1.355 . S
C1034 C1035 1.363 . S
C1034 H1046 0.929 . S
C1035 C1034 1.363 . S
C1035 N1037 1.375 . S
C1035 H1053 0.931 . S
C1036 N1033 1.311 . S
C1036 N1037 1.347 . S
C1036 H1047 0.929 . S
N1037 C1035 1.375 . S
N1037 C1036 1.347 . S
C1038 C1041 1.365 . S
C1038 N1043 1.328 . S
C1038 H1044 0.929 . S
C1039 C1040 1.362 . S
C1039 C1042 1.378 . S
C1039 H1054 0.929 . S
C1040 C1039 1.362 . S
C1040 C1041 1.366 . S
C1041 C1038 1.365 . S
C1041 C1040 1.366 . S
C1041 H1055 0.930 . S
C1042 C1039 1.378 . S
C1042 N1043 1.315 . S
C1042 H1045 0.930 . S
N1043 Co1023 2.194 . S
N1043 C1038 1.328 . S
N1043 C1042 1.315 . S
H1044 C1038 0.929 . S
H1045 C1042 0.930 . S
H1046 C1034 0.929 . S
H1047 C1036 0.929 . S
O1048 Co1023 2.351 . S
O1048 C1051 1.244 . S
O1049 Co1023 2.155 . S
O1049 C1051 1.240 . S
O1050 Co1023 2.096 . S
O1050 C1031 1.247 . S
C1051 O1048 1.244 . S
C1051 O1049 1.240 . S
H1052 C1026 0.931 . S
H1053 C1035 0.931 . S
H1054 C1039 0.929 . S
H1055 C1041 0.930 . S
Co1056 N1060 2.148 . S
Co1056 N1066 2.128 . S
Co1056 N1076 2.194 . S
Co1056 O1081 2.351 . S
Co1056 O1082 2.155 . S
Co1056 O1083 2.096 . S
C1057 N1060 1.301 . S
C1057 N1061 1.328 . S
C1057 H1062 0.930 . S
C1058 C1059 1.333 . S
C1058 N1060 1.317 . S
C1058 H1063 0.930 . S
C1059 C1058 1.333 . S
C1059 N1061 1.350 . S
C1059 H1085 0.931 . S
N1060 Co1056 2.148 . S
N1060 C1057 1.301 . S
N1060 C1058 1.317 . S
N1061 C1057 1.328 . S
N1061 C1059 1.350 . S
H1062 C1057 0.930 . S
H1063 C1058 0.930 . S
C1064 O1065 1.224 . S
C1064 O1083 1.247 . S
O1065 C1064 1.224 . S
N1066 Co1056 2.128 . S
N1066 C1067 1.355 . S
N1066 C1069 1.311 . S
C1067 N1066 1.355 . S
C1067 C1068 1.363 . S
C1067 H1079 0.929 . S
C1068 C1067 1.363 . S
C1068 N1070 1.375 . S
C1068 H1086 0.931 . S
C1069 N1066 1.311 . S
C1069 N1070 1.347 . S
C1069 H1080 0.929 . S
N1070 C1068 1.375 . S
N1070 C1069 1.347 . S
C1071 C1074 1.365 . S
C1071 N1076 1.328 . S
C1071 H1077 0.929 . S
C1072 C1073 1.362 . S
C1072 C1075 1.378 . S
C1072 H1087 0.929 . S
C1073 C1072 1.362 . S
C1073 C1074 1.366 . S
C1074 C1071 1.365 . S
C1074 C1073 1.366 . S
C1074 H1088 0.930 . S
C1075 C1072 1.378 . S
C1075 N1076 1.315 . S
C1075 H1078 0.930 . S
N1076 Co1056 2.194 . S
N1076 C1071 1.328 . S
N1076 C1075 1.315 . S
H1077 C1071 0.929 . S
H1078 C1075 0.930 . S
H1079 C1067 0.929 . S
H1080 C1069 0.929 . S
O1081 Co1056 2.351 . S
O1081 C1084 1.244 . S
O1082 Co1056 2.155 . S
O1082 C1084 1.240 . S
O1083 Co1056 2.096 . S
O1083 C1064 1.247 . S
C1084 O1081 1.244 . S
C1084 O1082 1.240 . S
H1085 C1059 0.931 . S
H1086 C1068 0.931 . S
H1087 C1072 0.929 . S
H1088 C1074 0.930 . S
Co1089 N1093 2.148 . S
Co1089 N1099 2.128 . S
Co1089 N1109 2.194 . S
Co1089 O1114 2.351 . S
Co1089 O1115 2.155 . S
Co1089 O1116 2.096 . S
C1090 N1093 1.301 . S
C1090 N1094 1.328 . S
C1090 H1095 0.930 . S
C1091 C1092 1.333 . S
C1091 N1093 1.317 . S
C1091 H1096 0.930 . S
C1092 C1091 1.333 . S
C1092 N1094 1.350 . S
C1092 H1118 0.931 . S
N1093 Co1089 2.148 . S
N1093 C1090 1.301 . S
N1093 C1091 1.317 . S
N1094 C1090 1.328 . S
N1094 C1092 1.350 . S
H1095 C1090 0.930 . S
H1096 C1091 0.930 . S
C1097 O1098 1.224 . S
C1097 O1116 1.247 . S
O1098 C1097 1.224 . S
N1099 Co1089 2.128 . S
N1099 C1100 1.355 . S
N1099 C1102 1.311 . S
C1100 N1099 1.355 . S
C1100 C1101 1.363 . S
C1100 H1112 0.929 . S
C1101 C1100 1.363 . S
C1101 N1103 1.375 . S
C1101 H1119 0.931 . S
C1102 N1099 1.311 . S
C1102 N1103 1.347 . S
C1102 H1113 0.929 . S
N1103 C1101 1.375 . S
N1103 C1102 1.347 . S
C1104 C1107 1.365 . S
C1104 N1109 1.328 . S
C1104 H1110 0.929 . S
C1105 C1106 1.362 . S
C1105 C1108 1.378 . S
C1105 H1120 0.929 . S
C1106 C1105 1.362 . S
C1106 C1107 1.366 . S
C1107 C1104 1.365 . S
C1107 C1106 1.366 . S
C1107 H1121 0.930 . S
C1108 C1105 1.378 . S
C1108 N1109 1.315 . S
C1108 H1111 0.930 . S
N1109 Co1089 2.194 . S
N1109 C1104 1.328 . S
N1109 C1108 1.315 . S
H1110 C1104 0.929 . S
H1111 C1108 0.930 . S
H1112 C1100 0.929 . S
H1113 C1102 0.929 . S
O1114 Co1089 2.351 . S
O1114 C1117 1.244 . S
O1115 Co1089 2.155 . S
O1115 C1117 1.240 . S
O1116 Co1089 2.096 . S
O1116 C1097 1.247 . S
C1117 O1114 1.244 . S
C1117 O1115 1.240 . S
H1118 C1092 0.931 . S
H1119 C1101 0.931 . S
H1120 C1105 0.929 . S
H1121 C1107 0.930 . S
Co1122 N1126 2.148 . S
Co1122 N1132 2.128 . S
Co1122 N1142 2.194 . S
Co1122 O1147 2.351 . S
Co1122 O1148 2.155 . S
Co1122 O1149 2.096 . S
C1123 N1126 1.301 . S
C1123 N1127 1.328 . S
C1123 H1128 0.930 . S
C1124 C1125 1.333 . S
C1124 N1126 1.317 . S
C1124 H1129 0.930 . S
C1125 C1124 1.333 . S
C1125 N1127 1.350 . S
C1125 H1151 0.931 . S
N1126 Co1122 2.148 . S
N1126 C1123 1.301 . S
N1126 C1124 1.317 . S
N1127 C1123 1.328 . S
N1127 C1125 1.350 . S
H1128 C1123 0.930 . S
H1129 C1124 0.930 . S
C1130 O1131 1.224 . S
C1130 O1149 1.247 . S
O1131 C1130 1.224 . S
N1132 Co1122 2.128 . S
N1132 C1133 1.355 . S
N1132 C1135 1.311 . S
C1133 N1132 1.355 . S
C1133 C1134 1.363 . S
C1133 H1145 0.929 . S
C1134 C1133 1.363 . S
C1134 N1136 1.375 . S
C1134 H1152 0.931 . S
C1135 N1132 1.311 . S
C1135 N1136 1.347 . S
C1135 H1146 0.929 . S
N1136 C1134 1.375 . S
N1136 C1135 1.347 . S
C1137 C1140 1.365 . S
C1137 N1142 1.328 . S
C1137 H1143 0.929 . S
C1138 C1139 1.362 . S
C1138 C1141 1.378 . S
C1138 H1153 0.929 . S
C1139 C1138 1.362 . S
C1139 C1140 1.366 . S
C1140 C1137 1.365 . S
C1140 C1139 1.366 . S
C1140 H1154 0.930 . S
C1141 C1138 1.378 . S
C1141 N1142 1.315 . S
C1141 H1144 0.930 . S
N1142 Co1122 2.194 . S
N1142 C1137 1.328 . S
N1142 C1141 1.315 . S
H1143 C1137 0.929 . S
H1144 C1141 0.930 . S
H1145 C1133 0.929 . S
H1146 C1135 0.929 . S
O1147 Co1122 2.351 . S
O1147 C1150 1.244 . S
O1148 Co1122 2.155 . S
O1148 C1150 1.240 . S
O1149 Co1122 2.096 . S
O1149 C1130 1.247 . S
C1150 O1147 1.244 . S
C1150 O1148 1.240 . S
H1151 C1125 0.931 . S
H1152 C1134 0.931 . S
H1153 C1138 0.929 . S
H1154 C1140 0.930 . S
Co1155 N1159 2.148 . S
Co1155 N1165 2.128 . S
Co1155 N1175 2.194 . S
Co1155 O1180 2.351 . S
Co1155 O1181 2.155 . S
Co1155 O1182 2.096 . S
C1156 N1159 1.301 . S
C1156 N1160 1.328 . S
C1156 H1161 0.930 . S
C1157 C1158 1.333 . S
C1157 N1159 1.317 . S
C1157 H1162 0.930 . S
C1158 C1157 1.333 . S
C1158 N1160 1.350 . S
C1158 H1184 0.931 . S
N1159 Co1155 2.148 . S
N1159 C1156 1.301 . S
N1159 C1157 1.317 . S
N1160 C1156 1.328 . S
N1160 C1158 1.350 . S
H1161 C1156 0.930 . S
H1162 C1157 0.930 . S
C1163 O1164 1.224 . S
C1163 O1182 1.247 . S
O1164 C1163 1.224 . S
N1165 Co1155 2.128 . S
N1165 C1166 1.355 . S
N1165 C1168 1.311 . S
C1166 N1165 1.355 . S
C1166 C1167 1.363 . S
C1166 H1178 0.929 . S
C1167 C1166 1.363 . S
C1167 N1169 1.375 . S
C1167 H1185 0.931 . S
C1168 N1165 1.311 . S
C1168 N1169 1.347 . S
C1168 H1179 0.929 . S
N1169 C1167 1.375 . S
N1169 C1168 1.347 . S
C1170 C1173 1.365 . S
C1170 N1175 1.328 . S
C1170 H1176 0.929 . S
C1171 C1172 1.362 . S
C1171 C1174 1.378 . S
C1171 H1186 0.929 . S
C1172 C1171 1.362 . S
C1172 C1173 1.366 . S
C1173 C1170 1.365 . S
C1173 C1172 1.366 . S
C1173 H1187 0.930 . S
C1174 C1171 1.378 . S
C1174 N1175 1.315 . S
C1174 H1177 0.930 . S
N1175 Co1155 2.194 . S
N1175 C1170 1.328 . S
N1175 C1174 1.315 . S
H1176 C1170 0.929 . S
H1177 C1174 0.930 . S
H1178 C1166 0.929 . S
H1179 C1168 0.929 . S
O1180 Co1155 2.351 . S
O1180 C1183 1.244 . S
O1181 Co1155 2.155 . S
O1181 C1183 1.240 . S
O1182 Co1155 2.096 . S
O1182 C1163 1.247 . S
C1183 O1180 1.244 . S
C1183 O1181 1.240 . S
H1184 C1158 0.931 . S
H1185 C1167 0.931 . S
H1186 C1171 0.929 . S
H1187 C1173 0.930 . S
C1188 C1189 1.349 . S
C1188 C1190 1.327 . S
C1188 H1213 0.950 . S
C1189 C1188 1.349 . S
C1189 C1205 1.349 . S
C1190 C1188 1.327 . S
C1190 C1209 1.429 . S
C1190 H1214 0.950 . S
C1191 C1208 1.574 . S
C1191 C1210 1.368 . S
C1191 H1215 0.949 . S
H1192 C1196 0.949 . S
C1193 C1194 1.349 . S
C1193 C1195 1.327 . S
C1193 H1216 0.950 . S
C1194 C1193 1.349 . S
C1194 C1206 1.349 . S
C1195 C1193 1.327 . S
C1195 C1211 1.429 . S
C1195 H1217 0.950 . S
C1196 H1192 0.949 . S
C1196 C1204 1.574 . S
C1196 C1212 1.368 . S
H1197 C1205 0.950 . S
H1198 C1203 0.950 . S
H1199 C1204 0.949 . S
H1200 C1206 0.950 . S
H1201 C1207 0.950 . S
H1202 C1208 0.949 . S
C1203 H1198 0.950 . S
C1203 C1205 1.327 . S
C1203 C1209 1.429 . S
C1204 C1196 1.574 . S
C1204 H1199 0.949 . S
C1204 C1210 1.368 . S
C1205 C1189 1.349 . S
C1205 H1197 0.950 . S
C1205 C1203 1.327 . S
C1206 C1194 1.349 . S
C1206 H1200 0.950 . S
C1206 C1207 1.327 . S
C1207 H1201 0.950 . S
C1207 C1206 1.327 . S
C1207 C1211 1.429 . S
C1208 C1191 1.574 . S
C1208 H1202 0.949 . S
C1208 C1212 1.368 . S
C1209 C1190 1.429 . S
C1209 C1203 1.429 . S
C1209 C1210 1.523 . S
C1210 C1191 1.368 . S
C1210 C1204 1.368 . S
C1210 C1209 1.523 . S
C1211 C1195 1.429 . S
C1211 C1207 1.429 . S
C1211 C1212 1.523 . S
C1212 C1196 1.368 . S
C1212 C1208 1.368 . S
C1212 C1211 1.523 . S
H1213 C1188 0.950 . S
H1214 C1190 0.950 . S
H1215 C1191 0.949 . S
H1216 C1193 0.950 . S
H1217 C1195 0.950 . S
C1218 C1219 1.349 . S
C1218 C1220 1.327 . S
C1218 H1243 0.950 . S
C1219 C1218 1.349 . S
C1219 C1235 1.349 . S
C1220 C1218 1.327 . S
C1220 C1239 1.429 . S
C1220 H1244 0.950 . S
C1221 C1238 1.574 1_565 S
C1221 C1240 1.368 . S
C1221 H1245 0.949 . S
H1222 C1226 0.949 . S
C1223 C1224 1.349 . S
C1223 C1225 1.327 . S
C1223 H1246 0.950 . S
C1224 C1223 1.349 . S
C1224 C1236 1.349 . S
C1225 C1223 1.327 . S
C1225 C1241 1.429 . S
C1225 H1247 0.950 . S
C1226 H1222 0.949 . S
C1226 C1234 1.574 1_545 S
C1226 C1242 1.368 . S
H1227 C1235 0.950 . S
H1228 C1233 0.950 . S
H1229 C1234 0.949 . S
H1230 C1236 0.950 . S
H1231 C1237 0.950 . S
H1232 C1238 0.949 . S
C1233 H1228 0.950 . S
C1233 C1235 1.327 . S
C1233 C1239 1.429 . S
C1234 C1226 1.574 1_565 S
C1234 H1229 0.949 . S
C1234 C1240 1.368 . S
C1235 C1219 1.349 . S
C1235 H1227 0.950 . S
C1235 C1233 1.327 . S
C1236 C1224 1.349 . S
C1236 H1230 0.950 . S
C1236 C1237 1.327 . S
C1237 H1231 0.950 . S
C1237 C1236 1.327 . S
C1237 C1241 1.429 . S
C1238 C1221 1.574 1_545 S
C1238 H1232 0.949 . S
C1238 C1242 1.368 . S
C1239 C1220 1.429 . S
C1239 C1233 1.429 . S
C1239 C1240 1.523 . S
C1240 C1221 1.368 . S
C1240 C1234 1.368 . S
C1240 C1239 1.523 . S
C1241 C1225 1.429 . S
C1241 C1237 1.429 . S
C1241 C1242 1.523 . S
C1242 C1226 1.368 . S
C1242 C1238 1.368 . S
C1242 C1241 1.523 . S
H1243 C1218 0.950 . S
H1244 C1220 0.950 . S
H1245 C1221 0.949 . S
H1246 C1223 0.950 . S
H1247 C1225 0.950 . S
C1248 C1249 1.349 . S
C1248 C1250 1.327 . S
C1248 H1273 0.950 . S
C1249 C1248 1.349 . S
C1249 C1265 1.349 . S
C1250 C1248 1.327 . S
C1250 C1269 1.429 . S
C1250 H1274 0.950 . S
C1251 C1268 1.574 1_455 S
C1251 C1270 1.368 . S
C1251 H1275 0.949 . S
H1252 C1256 0.949 . S
C1253 C1254 1.349 . S
C1253 C1255 1.327 . S
C1253 H1276 0.950 . S
C1254 C1253 1.349 . S
C1254 C1266 1.349 . S
C1255 C1253 1.327 . S
C1255 C1271 1.429 . S
C1255 H1277 0.950 . S
C1256 H1252 0.949 . S
C1256 C1264 1.574 1_655 S
C1256 C1272 1.368 . S
H1257 C1265 0.950 . S
H1258 C1263 0.950 . S
H1259 C1264 0.949 . S
H1260 C1266 0.950 . S
H1261 C1267 0.950 . S
H1262 C1268 0.949 . S
C1263 H1258 0.950 . S
C1263 C1265 1.327 . S
C1263 C1269 1.429 . S
C1264 C1256 1.574 1_455 S
C1264 H1259 0.949 . S
C1264 C1270 1.368 . S
C1265 C1249 1.349 . S
C1265 H1257 0.950 . S
C1265 C1263 1.327 . S
C1266 C1254 1.349 . S
C1266 H1260 0.950 . S
C1266 C1267 1.327 . S
C1267 H1261 0.950 . S
C1267 C1266 1.327 . S
C1267 C1271 1.429 . S
C1268 C1251 1.574 1_655 S
C1268 H1262 0.949 . S
C1268 C1272 1.368 . S
C1269 C1250 1.429 . S
C1269 C1263 1.429 . S
C1269 C1270 1.523 . S
C1270 C1251 1.368 . S
C1270 C1264 1.368 . S
C1270 C1269 1.523 . S
C1271 C1255 1.429 . S
C1271 C1267 1.429 . S
C1271 C1272 1.523 . S
C1272 C1256 1.368 . S
C1272 C1268 1.368 . S
C1272 C1271 1.523 . S
H1273 C1248 0.950 . S
H1274 C1250 0.950 . S
H1275 C1251 0.949 . S
H1276 C1253 0.950 . S
H1277 C1255 0.950 . S
C1278 C1279 1.349 . S
C1278 C1280 1.327 . S
C1278 H1303 0.950 . S
C1279 C1278 1.349 . S
C1279 C1295 1.349 . S
C1280 C1278 1.327 . S
C1280 C1299 1.429 . S
C1280 H1304 0.950 . S
C1281 C1298 1.574 . S
C1281 C1300 1.368 . S
C1281 H1305 0.949 . S
H1282 C1286 0.949 . S
C1283 C1284 1.349 . S
C1283 C1285 1.327 . S
C1283 H1306 0.950 . S
C1284 C1283 1.349 . S
C1284 C1296 1.349 . S
C1285 C1283 1.327 . S
C1285 C1301 1.429 . S
C1285 H1307 0.950 . S
C1286 H1282 0.949 . S
C1286 C1294 1.574 . S
C1286 C1302 1.368 . S
H1287 C1295 0.950 . S
H1288 C1293 0.950 . S
H1289 C1294 0.949 . S
H1290 C1296 0.950 . S
H1291 C1297 0.950 . S
H1292 C1298 0.949 . S
C1293 H1288 0.950 . S
C1293 C1295 1.327 . S
C1293 C1299 1.429 . S
C1294 C1286 1.574 . S
C1294 H1289 0.949 . S
C1294 C1300 1.368 . S
C1295 C1279 1.349 . S
C1295 H1287 0.950 . S
C1295 C1293 1.327 . S
C1296 C1284 1.349 . S
C1296 H1290 0.950 . S
C1296 C1297 1.327 . S
C1297 H1291 0.950 . S
C1297 C1296 1.327 . S
C1297 C1301 1.429 . S
C1298 C1281 1.574 . S
C1298 H1292 0.949 . S
C1298 C1302 1.368 . S
C1299 C1280 1.429 . S
C1299 C1293 1.429 . S
C1299 C1300 1.523 . S
C1300 C1281 1.368 . S
C1300 C1294 1.368 . S
C1300 C1299 1.523 . S
C1301 C1285 1.429 . S
C1301 C1297 1.429 . S
C1301 C1302 1.523 . S
C1302 C1286 1.368 . S
C1302 C1298 1.368 . S
C1302 C1301 1.523 . S
H1303 C1278 0.950 . S
H1304 C1280 0.950 . S
H1305 C1281 0.949 . S
H1306 C1283 0.950 . S
H1307 C1285 0.950 . S
C1308 C1309 1.349 . S
C1308 C1310 1.327 . S
C1308 H1333 0.950 . S
C1309 C1308 1.349 . S
C1309 C1325 1.349 . S
C1310 C1308 1.327 . S
C1310 C1329 1.429 . S
C1310 H1334 0.950 . S
C1311 C1328 1.574 1_545 S
C1311 C1330 1.368 . S
C1311 H1335 0.949 . S
H1312 C1316 0.949 . S
C1313 C1314 1.349 . S
C1313 C1315 1.327 . S
C1313 H1336 0.950 . S
C1314 C1313 1.349 . S
C1314 C1326 1.349 . S
C1315 C1313 1.327 . S
C1315 C1331 1.429 . S
C1315 H1337 0.950 . S
C1316 H1312 0.949 . S
C1316 C1324 1.574 1_565 S
C1316 C1332 1.368 . S
H1317 C1325 0.950 . S
H1318 C1323 0.950 . S
H1319 C1324 0.949 . S
H1320 C1326 0.950 . S
H1321 C1327 0.950 . S
H1322 C1328 0.949 . S
C1323 H1318 0.950 . S
C1323 C1325 1.327 . S
C1323 C1329 1.429 . S
C1324 C1316 1.574 1_545 S
C1324 H1319 0.949 . S
C1324 C1330 1.368 . S
C1325 C1309 1.349 . S
C1325 H1317 0.950 . S
C1325 C1323 1.327 . S
C1326 C1314 1.349 . S
C1326 H1320 0.950 . S
C1326 C1327 1.327 . S
C1327 H1321 0.950 . S
C1327 C1326 1.327 . S
C1327 C1331 1.429 . S
C1328 C1311 1.574 1_565 S
C1328 H1322 0.949 . S
C1328 C1332 1.368 . S
C1329 C1310 1.429 . S
C1329 C1323 1.429 . S
C1329 C1330 1.523 . S
C1330 C1311 1.368 . S
C1330 C1324 1.368 . S
C1330 C1329 1.523 . S
C1331 C1315 1.429 . S
C1331 C1327 1.429 . S
C1331 C1332 1.523 . S
C1332 C1316 1.368 . S
C1332 C1328 1.368 . S
C1332 C1331 1.523 . S
H1333 C1308 0.950 . S
H1334 C1310 0.950 . S
H1335 C1311 0.949 . S
H1336 C1313 0.950 . S
H1337 C1315 0.950 . S
C1338 C1339 1.349 . S
C1338 C1340 1.327 . S
C1338 H1363 0.950 . S
C1339 C1338 1.349 . S
C1339 C1355 1.349 . S
C1340 C1338 1.327 . S
C1340 C1359 1.429 . S
C1340 H1364 0.950 . S
C1341 C1358 1.574 1_655 S
C1341 C1360 1.368 . S
C1341 H1365 0.949 . S
H1342 C1346 0.949 . S
C1343 C1344 1.349 . S
C1343 C1345 1.327 . S
C1343 H1366 0.950 . S
C1344 C1343 1.349 . S
C1344 C1356 1.349 . S
C1345 C1343 1.327 . S
C1345 C1361 1.429 . S
C1345 H1367 0.950 . S
C1346 H1342 0.949 . S
C1346 C1354 1.574 1_455 S
C1346 C1362 1.368 . S
H1347 C1355 0.950 . S
H1348 C1353 0.950 . S
H1349 C1354 0.949 . S
H1350 C1356 0.950 . S
H1351 C1357 0.950 . S
H1352 C1358 0.949 . S
C1353 H1348 0.950 . S
C1353 C1355 1.327 . S
C1353 C1359 1.429 . S
C1354 C1346 1.574 1_655 S
C1354 H1349 0.949 . S
C1354 C1360 1.368 . S
C1355 C1339 1.349 . S
C1355 H1347 0.950 . S
C1355 C1353 1.327 . S
C1356 C1344 1.349 . S
C1356 H1350 0.950 . S
C1356 C1357 1.327 . S
C1357 H1351 0.950 . S
C1357 C1356 1.327 . S
C1357 C1361 1.429 . S
C1358 C1341 1.574 1_455 S
C1358 H1352 0.949 . S
C1358 C1362 1.368 . S
C1359 C1340 1.429 . S
C1359 C1353 1.429 . S
C1359 C1360 1.523 . S
C1360 C1341 1.368 . S
C1360 C1354 1.368 . S
C1360 C1359 1.523 . S
C1361 C1345 1.429 . S
C1361 C1357 1.429 . S
C1361 C1362 1.523 . S
C1362 C1346 1.368 . S
C1362 C1358 1.368 . S
C1362 C1361 1.523 . S
H1363 C1338 0.950 . S
H1364 C1340 0.950 . S
H1365 C1341 0.949 . S
H1366 C1343 0.950 . S
H1367 C1345 0.950 . S
C1368 C1369 1.349 . S
C1368 C1370 1.327 . S
C1368 H1393 0.950 . S
C1369 C1368 1.349 . S
C1369 C1385 1.349 . S
C1370 C1368 1.327 . S
C1370 C1389 1.429 . S
C1370 H1394 0.950 . S
C1371 C1388 1.574 . S
C1371 C1390 1.368 . S
C1371 H1395 0.949 . S
H1372 C1376 0.949 . S
C1373 C1374 1.349 . S
C1373 C1375 1.327 . S
C1373 H1396 0.950 . S
C1374 C1373 1.349 . S
C1374 C1386 1.349 . S
C1375 C1373 1.327 . S
C1375 C1391 1.429 . S
C1375 H1397 0.950 . S
C1376 H1372 0.949 . S
C1376 C1384 1.574 . S
C1376 C1392 1.368 . S
H1377 C1385 0.950 . S
H1378 C1383 0.950 . S
H1379 C1384 0.949 . S
H1380 C1386 0.950 . S
H1381 C1387 0.950 . S
H1382 C1388 0.949 . S
C1383 H1378 0.950 . S
C1383 C1385 1.327 . S
C1383 C1389 1.429 . S
C1384 C1376 1.574 . S
C1384 H1379 0.949 . S
C1384 C1390 1.368 . S
C1385 C1369 1.349 . S
C1385 H1377 0.950 . S
C1385 C1383 1.327 . S
C1386 C1374 1.349 . S
C1386 H1380 0.950 . S
C1386 C1387 1.327 . S
C1387 H1381 0.950 . S
C1387 C1386 1.327 . S
C1387 C1391 1.429 . S
C1388 C1371 1.574 . S
C1388 H1382 0.949 . S
C1388 C1392 1.368 . S
C1389 C1370 1.429 . S
C1389 C1383 1.429 . S
C1389 C1390 1.523 . S
C1390 C1371 1.368 . S
C1390 C1384 1.368 . S
C1390 C1389 1.523 . S
C1391 C1375 1.429 . S
C1391 C1387 1.429 . S
C1391 C1392 1.523 . S
C1392 C1376 1.368 . S
C1392 C1388 1.368 . S
C1392 C1391 1.523 . S
H1393 C1368 0.950 . S
H1394 C1370 0.950 . S
H1395 C1371 0.949 . S
H1396 C1373 0.950 . S
H1397 C1375 0.950 . S
C1398 C1399 1.349 . S
C1398 C1400 1.327 . S
C1398 H1423 0.950 . S
C1399 C1398 1.349 . S
C1399 C1415 1.349 . S
C1400 C1398 1.327 . S
C1400 C1419 1.429 . S
C1400 H1424 0.950 . S
C1401 C1418 1.574 1_565 S
C1401 C1420 1.368 . S
C1401 H1425 0.949 . S
H1402 C1406 0.949 . S
C1403 C1404 1.349 . S
C1403 C1405 1.327 . S
C1403 H1426 0.950 . S
C1404 C1403 1.349 . S
C1404 C1416 1.349 . S
C1405 C1403 1.327 . S
C1405 C1421 1.429 . S
C1405 H1427 0.950 . S
C1406 H1402 0.949 . S
C1406 C1414 1.574 1_545 S
C1406 C1422 1.368 . S
H1407 C1415 0.950 . S
H1408 C1413 0.950 . S
H1409 C1414 0.949 . S
H1410 C1416 0.950 . S
H1411 C1417 0.950 . S
H1412 C1418 0.949 . S
C1413 H1408 0.950 . S
C1413 C1415 1.327 . S
C1413 C1419 1.429 . S
C1414 C1406 1.574 1_565 S
C1414 H1409 0.949 . S
C1414 C1420 1.368 . S
C1415 C1399 1.349 . S
C1415 H1407 0.950 . S
C1415 C1413 1.327 . S
C1416 C1404 1.349 . S
C1416 H1410 0.950 . S
C1416 C1417 1.327 . S
C1417 H1411 0.950 . S
C1417 C1416 1.327 . S
C1417 C1421 1.429 . S
C1418 C1401 1.574 1_545 S
C1418 H1412 0.949 . S
C1418 C1422 1.368 . S
C1419 C1400 1.429 . S
C1419 C1413 1.429 . S
C1419 C1420 1.523 . S
C1420 C1401 1.368 . S
C1420 C1414 1.368 . S
C1420 C1419 1.523 . S
C1421 C1405 1.429 . S
C1421 C1417 1.429 . S
C1421 C1422 1.523 . S
C1422 C1406 1.368 . S
C1422 C1418 1.368 . S
C1422 C1421 1.523 . S
H1423 C1398 0.950 . S
H1424 C1400 0.950 . S
H1425 C1401 0.949 . S
H1426 C1403 0.950 . S
H1427 C1405 0.950 . S
C1428 C1429 1.349 . S
C1428 C1430 1.327 . S
C1428 H1453 0.950 . S
C1429 C1428 1.349 . S
C1429 C1445 1.349 . S
C1430 C1428 1.327 . S
C1430 C1449 1.429 . S
C1430 H1454 0.950 . S
C1431 C1448 1.574 1_455 S
C1431 C1450 1.368 . S
C1431 H1455 0.949 . S
H1432 C1436 0.949 . S
C1433 C1434 1.349 . S
C1433 C1435 1.327 . S
C1433 H1456 0.950 . S
C1434 C1433 1.349 . S
C1434 C1446 1.349 . S
C1435 C1433 1.327 . S
C1435 C1451 1.429 . S
C1435 H1457 0.950 . S
C1436 H1432 0.949 . S
C1436 C1444 1.574 1_655 S
C1436 C1452 1.368 . S
H1437 C1445 0.950 . S
H1438 C1443 0.950 . S
H1439 C1444 0.949 . S
H1440 C1446 0.950 . S
H1441 C1447 0.950 . S
H1442 C1448 0.949 . S
C1443 H1438 0.950 . S
C1443 C1445 1.327 . S
C1443 C1449 1.429 . S
C1444 C1436 1.574 1_455 S
C1444 H1439 0.949 . S
C1444 C1450 1.368 . S
C1445 C1429 1.349 . S
C1445 H1437 0.950 . S
C1445 C1443 1.327 . S
C1446 C1434 1.349 . S
C1446 H1440 0.950 . S
C1446 C1447 1.327 . S
C1447 H1441 0.950 . S
C1447 C1446 1.327 . S
C1447 C1451 1.429 . S
C1448 C1431 1.574 1_655 S
C1448 H1442 0.949 . S
C1448 C1452 1.368 . S
C1449 C1430 1.429 . S
C1449 C1443 1.429 . S
C1449 C1450 1.523 . S
C1450 C1431 1.368 . S
C1450 C1444 1.368 . S
C1450 C1449 1.523 . S
C1451 C1435 1.429 . S
C1451 C1447 1.429 . S
C1451 C1452 1.523 . S
C1452 C1436 1.368 . S
C1452 C1448 1.368 . S
C1452 C1451 1.523 . S
H1453 C1428 0.950 . S
H1454 C1430 0.950 . S
H1455 C1431 0.949 . S
H1456 C1433 0.950 . S
H1457 C1435 0.950 . S
C1458 C1459 1.349 . S
C1458 C1460 1.327 . S
C1458 H1483 0.950 . S
C1459 C1458 1.349 . S
C1459 C1475 1.349 . S
C1460 C1458 1.327 . S
C1460 C1479 1.429 . S
C1460 H1484 0.950 . S
C1461 C1478 1.574 . S
C1461 C1480 1.368 . S
C1461 H1485 0.949 . S
H1462 C1466 0.949 . S
C1463 C1464 1.349 . S
C1463 C1465 1.327 . S
C1463 H1486 0.950 . S
C1464 C1463 1.349 . S
C1464 C1476 1.349 . S
C1465 C1463 1.327 . S
C1465 C1481 1.429 . S
C1465 H1487 0.950 . S
C1466 H1462 0.949 . S
C1466 C1474 1.574 . S
C1466 C1482 1.368 . S
H1467 C1475 0.950 . S
H1468 C1473 0.950 . S
H1469 C1474 0.949 . S
H1470 C1476 0.950 . S
H1471 C1477 0.950 . S
H1472 C1478 0.949 . S
C1473 H1468 0.950 . S
C1473 C1475 1.327 . S
C1473 C1479 1.429 . S
C1474 C1466 1.574 . S
C1474 H1469 0.949 . S
C1474 C1480 1.368 . S
C1475 C1459 1.349 . S
C1475 H1467 0.950 . S
C1475 C1473 1.327 . S
C1476 C1464 1.349 . S
C1476 H1470 0.950 . S
C1476 C1477 1.327 . S
C1477 H1471 0.950 . S
C1477 C1476 1.327 . S
C1477 C1481 1.429 . S
C1478 C1461 1.574 . S
C1478 H1472 0.949 . S
C1478 C1482 1.368 . S
C1479 C1460 1.429 . S
C1479 C1473 1.429 . S
C1479 C1480 1.523 . S
C1480 C1461 1.368 . S
C1480 C1474 1.368 . S
C1480 C1479 1.523 . S
C1481 C1465 1.429 . S
C1481 C1477 1.429 . S
C1481 C1482 1.523 . S
C1482 C1466 1.368 . S
C1482 C1478 1.368 . S
C1482 C1481 1.523 . S
H1483 C1458 0.950 . S
H1484 C1460 0.950 . S
H1485 C1461 0.949 . S
H1486 C1463 0.950 . S
H1487 C1465 0.950 . S
C1488 C1489 1.349 . S
C1488 C1490 1.327 . S
C1488 H1513 0.950 . S
C1489 C1488 1.349 . S
C1489 C1505 1.349 . S
C1490 C1488 1.327 . S
C1490 C1509 1.429 . S
C1490 H1514 0.950 . S
C1491 C1508 1.574 1_565 S
C1491 C1510 1.368 . S
C1491 H1515 0.949 . S
H1492 C1496 0.949 . S
C1493 C1494 1.349 . S
C1493 C1495 1.327 . S
C1493 H1516 0.950 . S
C1494 C1493 1.349 . S
C1494 C1506 1.349 . S
C1495 C1493 1.327 . S
C1495 C1511 1.429 . S
C1495 H1517 0.950 . S
C1496 H1492 0.949 . S
C1496 C1504 1.574 1_545 S
C1496 C1512 1.368 . S
H1497 C1505 0.950 . S
H1498 C1503 0.950 . S
H1499 C1504 0.949 . S
H1500 C1506 0.950 . S
H1501 C1507 0.950 . S
H1502 C1508 0.949 . S
C1503 H1498 0.950 . S
C1503 C1505 1.327 . S
C1503 C1509 1.429 . S
C1504 C1496 1.574 1_565 S
C1504 H1499 0.949 . S
C1504 C1510 1.368 . S
C1505 C1489 1.349 . S
C1505 H1497 0.950 . S
C1505 C1503 1.327 . S
C1506 C1494 1.349 . S
C1506 H1500 0.950 . S
C1506 C1507 1.327 . S
C1507 H1501 0.950 . S
C1507 C1506 1.327 . S
C1507 C1511 1.429 . S
C1508 C1491 1.574 1_545 S
C1508 H1502 0.949 . S
C1508 C1512 1.368 . S
C1509 C1490 1.429 . S
C1509 C1503 1.429 . S
C1509 C1510 1.523 . S
C1510 C1491 1.368 . S
C1510 C1504 1.368 . S
C1510 C1509 1.523 . S
C1511 C1495 1.429 . S
C1511 C1507 1.429 . S
C1511 C1512 1.523 . S
C1512 C1496 1.368 . S
C1512 C1508 1.368 . S
C1512 C1511 1.523 . S
H1513 C1488 0.950 . S
H1514 C1490 0.950 . S
H1515 C1491 0.949 . S
H1516 C1493 0.950 . S
H1517 C1495 0.950 . S
C1518 C1519 1.349 . S
C1518 C1520 1.327 . S
C1518 H1543 0.950 . S
C1519 C1518 1.349 . S
C1519 C1535 1.349 . S
C1520 C1518 1.327 . S
C1520 C1539 1.429 . S
C1520 H1544 0.950 . S
C1521 C1538 1.574 1_655 S
C1521 C1540 1.368 . S
C1521 H1545 0.949 . S
H1522 C1526 0.949 . S
C1523 C1524 1.349 . S
C1523 C1525 1.327 . S
C1523 H1546 0.950 . S
C1524 C1523 1.349 . S
C1524 C1536 1.349 . S
C1525 C1523 1.327 . S
C1525 C1541 1.429 . S
C1525 H1547 0.950 . S
C1526 H1522 0.949 . S
C1526 C1534 1.574 1_455 S
C1526 C1542 1.368 . S
H1527 C1535 0.950 . S
H1528 C1533 0.950 . S
H1529 C1534 0.949 . S
H1530 C1536 0.950 . S
H1531 C1537 0.950 . S
H1532 C1538 0.949 . S
C1533 H1528 0.950 . S
C1533 C1535 1.327 . S
C1533 C1539 1.429 . S
C1534 C1526 1.574 1_655 S
C1534 H1529 0.949 . S
C1534 C1540 1.368 . S
C1535 C1519 1.349 . S
C1535 H1527 0.950 . S
C1535 C1533 1.327 . S
C1536 C1524 1.349 . S
C1536 H1530 0.950 . S
C1536 C1537 1.327 . S
C1537 H1531 0.950 . S
C1537 C1536 1.327 . S
C1537 C1541 1.429 . S
C1538 C1521 1.574 1_455 S
C1538 H1532 0.949 . S
C1538 C1542 1.368 . S
C1539 C1520 1.429 . S
C1539 C1533 1.429 . S
C1539 C1540 1.523 . S
C1540 C1521 1.368 . S
C1540 C1534 1.368 . S
C1540 C1539 1.523 . S
C1541 C1525 1.429 . S
C1541 C1537 1.429 . S
C1541 C1542 1.523 . S
C1542 C1526 1.368 . S
C1542 C1538 1.368 . S
C1542 C1541 1.523 . S
H1543 C1518 0.950 . S
H1544 C1520 0.950 . S
H1545 C1521 0.949 . S
H1546 C1523 0.950 . S
H1547 C1525 0.950 . S
C1548 C1549 1.349 . S
C1548 C1550 1.327 . S
C1548 H1573 0.950 . S
C1549 C1548 1.349 . S
C1549 C1565 1.349 . S
C1550 C1548 1.327 . S
C1550 C1569 1.429 . S
C1550 H1574 0.950 . S
C1551 C1568 1.574 . S
C1551 C1570 1.368 . S
C1551 H1575 0.949 . S
H1552 C1556 0.949 . S
C1553 C1554 1.349 . S
C1553 C1555 1.327 . S
C1553 H1576 0.950 . S
C1554 C1553 1.349 . S
C1554 C1566 1.349 . S
C1555 C1553 1.327 . S
C1555 C1571 1.429 . S
C1555 H1577 0.950 . S
C1556 H1552 0.949 . S
C1556 C1564 1.574 . S
C1556 C1572 1.368 . S
H1557 C1565 0.950 . S
H1558 C1563 0.950 . S
H1559 C1564 0.949 . S
H1560 C1566 0.950 . S
H1561 C1567 0.950 . S
H1562 C1568 0.949 . S
C1563 H1558 0.950 . S
C1563 C1565 1.327 . S
C1563 C1569 1.429 . S
C1564 C1556 1.574 . S
C1564 H1559 0.949 . S
C1564 C1570 1.368 . S
C1565 C1549 1.349 . S
C1565 H1557 0.950 . S
C1565 C1563 1.327 . S
C1566 C1554 1.349 . S
C1566 H1560 0.950 . S
C1566 C1567 1.327 . S
C1567 H1561 0.950 . S
C1567 C1566 1.327 . S
C1567 C1571 1.429 . S
C1568 C1551 1.574 . S
C1568 H1562 0.949 . S
C1568 C1572 1.368 . S
C1569 C1550 1.429 . S
C1569 C1563 1.429 . S
C1569 C1570 1.523 . S
C1570 C1551 1.368 . S
C1570 C1564 1.368 . S
C1570 C1569 1.523 . S
C1571 C1555 1.429 . S
C1571 C1567 1.429 . S
C1571 C1572 1.523 . S
C1572 C1556 1.368 . S
C1572 C1568 1.368 . S
C1572 C1571 1.523 . S
H1573 C1548 0.950 . S
H1574 C1550 0.950 . S
H1575 C1551 0.949 . S
H1576 C1553 0.950 . S
H1577 C1555 0.950 . S
C1578 C1579 1.349 . S
C1578 C1580 1.327 . S
C1578 H1603 0.950 . S
C1579 C1578 1.349 . S
C1579 C1595 1.349 . S
C1580 C1578 1.327 . S
C1580 C1599 1.429 . S
C1580 H1604 0.950 . S
C1581 C1598 1.574 . S
C1581 C1600 1.368 . S
C1581 H1605 0.949 . S
H1582 C1586 0.949 . S
C1583 C1584 1.349 . S
C1583 C1585 1.327 . S
C1583 H1606 0.950 . S
C1584 C1583 1.349 . S
C1584 C1596 1.349 . S
C1585 C1583 1.327 . S
C1585 C1601 1.429 . S
C1585 H1607 0.950 . S
C1586 H1582 0.949 . S
C1586 C1594 1.574 . S
C1586 C1602 1.368 . S
H1587 C1595 0.950 . S
H1588 C1593 0.950 . S
H1589 C1594 0.949 . S
H1590 C1596 0.950 . S
H1591 C1597 0.950 . S
H1592 C1598 0.949 . S
C1593 H1588 0.950 . S
C1593 C1595 1.327 . S
C1593 C1599 1.429 . S
C1594 C1586 1.574 . S
C1594 H1589 0.949 . S
C1594 C1600 1.368 . S
C1595 C1579 1.349 . S
C1595 H1587 0.950 . S
C1595 C1593 1.327 . S
C1596 C1584 1.349 . S
C1596 H1590 0.950 . S
C1596 C1597 1.327 . S
C1597 H1591 0.950 . S
C1597 C1596 1.327 . S
C1597 C1601 1.429 . S
C1598 C1581 1.574 . S
C1598 H1592 0.949 . S
C1598 C1602 1.368 . S
C1599 C1580 1.429 . S
C1599 C1593 1.429 . S
C1599 C1600 1.523 . S
C1600 C1581 1.368 . S
C1600 C1594 1.368 . S
C1600 C1599 1.523 . S
C1601 C1585 1.429 . S
C1601 C1597 1.429 . S
C1601 C1602 1.523 . S
C1602 C1586 1.368 . S
C1602 C1598 1.368 . S
C1602 C1601 1.523 . S
H1603 C1578 0.950 . S
H1604 C1580 0.950 . S
H1605 C1581 0.949 . S
H1606 C1583 0.950 . S
H1607 C1585 0.950 . S
C1608 C1609 1.349 . S
C1608 C1610 1.327 . S
C1608 H1633 0.950 . S
C1609 C1608 1.349 . S
C1609 C1625 1.349 . S
C1610 C1608 1.327 . S
C1610 C1629 1.429 . S
C1610 H1634 0.950 . S
C1611 C1628 1.574 . S
C1611 C1630 1.368 . S
C1611 H1635 0.949 . S
H1612 C1616 0.949 . S
C1613 C1614 1.349 . S
C1613 C1615 1.327 . S
C1613 H1636 0.950 . S
C1614 C1613 1.349 . S
C1614 C1626 1.349 . S
C1615 C1613 1.327 . S
C1615 C1631 1.429 . S
C1615 H1637 0.950 . S
C1616 H1612 0.949 . S
C1616 C1624 1.574 . S
C1616 C1632 1.368 . S
H1617 C1625 0.950 . S
H1618 C1623 0.950 . S
H1619 C1624 0.949 . S
H1620 C1626 0.950 . S
H1621 C1627 0.950 . S
H1622 C1628 0.949 . S
C1623 H1618 0.950 . S
C1623 C1625 1.327 . S
C1623 C1629 1.429 . S
C1624 C1616 1.574 . S
C1624 H1619 0.949 . S
C1624 C1630 1.368 . S
C1625 C1609 1.349 . S
C1625 H1617 0.950 . S
C1625 C1623 1.327 . S
C1626 C1614 1.349 . S
C1626 H1620 0.950 . S
C1626 C1627 1.327 . S
C1627 H1621 0.950 . S
C1627 C1626 1.327 . S
C1627 C1631 1.429 . S
C1628 C1611 1.574 . S
C1628 H1622 0.949 . S
C1628 C1632 1.368 . S
C1629 C1610 1.429 . S
C1629 C1623 1.429 . S
C1629 C1630 1.523 . S
C1630 C1611 1.368 . S
C1630 C1624 1.368 . S
C1630 C1629 1.523 . S
C1631 C1615 1.429 . S
C1631 C1627 1.429 . S
C1631 C1632 1.523 . S
C1632 C1616 1.368 . S
C1632 C1628 1.368 . S
C1632 C1631 1.523 . S
H1633 C1608 0.950 . S
H1634 C1610 0.950 . S
H1635 C1611 0.949 . S
H1636 C1613 0.950 . S
H1637 C1615 0.950 . S
C1638 C1639 1.349 . S
C1638 C1640 1.327 . S
C1638 H1663 0.950 . S
C1639 C1638 1.349 . S
C1639 C1655 1.349 . S
C1640 C1638 1.327 . S
C1640 C1659 1.429 . S
C1640 H1664 0.950 . S
C1641 C1658 1.574 . S
C1641 C1660 1.368 . S
C1641 H1665 0.949 . S
H1642 C1646 0.949 . S
C1643 C1644 1.349 . S
C1643 C1645 1.327 . S
C1643 H1666 0.950 . S
C1644 C1643 1.349 . S
C1644 C1656 1.349 . S
C1645 C1643 1.327 . S
C1645 C1661 1.429 . S
C1645 H1667 0.950 . S
C1646 H1642 0.949 . S
C1646 C1654 1.574 . S
C1646 C1662 1.368 . S
H1647 C1655 0.950 . S
H1648 C1653 0.950 . S
H1649 C1654 0.949 . S
H1650 C1656 0.950 . S
H1651 C1657 0.950 . S
H1652 C1658 0.949 . S
C1653 H1648 0.950 . S
C1653 C1655 1.327 . S
C1653 C1659 1.429 . S
C1654 C1646 1.574 . S
C1654 H1649 0.949 . S
C1654 C1660 1.368 . S
C1655 C1639 1.349 . S
C1655 H1647 0.950 . S
C1655 C1653 1.327 . S
C1656 C1644 1.349 . S
C1656 H1650 0.950 . S
C1656 C1657 1.327 . S
C1657 H1651 0.950 . S
C1657 C1656 1.327 . S
C1657 C1661 1.429 . S
C1658 C1641 1.574 . S
C1658 H1652 0.949 . S
C1658 C1662 1.368 . S
C1659 C1640 1.429 . S
C1659 C1653 1.429 . S
C1659 C1660 1.523 . S
C1660 C1641 1.368 . S
C1660 C1654 1.368 . S
C1660 C1659 1.523 . S
C1661 C1645 1.429 . S
C1661 C1657 1.429 . S
C1661 C1662 1.523 . S
C1662 C1646 1.368 . S
C1662 C1658 1.368 . S
C1662 C1661 1.523 . S
H1663 C1638 0.950 . S
H1664 C1640 0.950 . S
H1665 C1641 0.949 . S
H1666 C1643 0.950 . S
H1667 C1645 0.950 . S
C1668 C1669 1.349 . S
C1668 C1670 1.327 . S
C1668 H1693 0.950 . S
C1669 C1668 1.349 . S
C1669 C1685 1.349 . S
C1670 C1668 1.327 . S
C1670 C1689 1.429 . S
C1670 H1694 0.950 . S
C1671 C1688 1.574 . S
C1671 C1690 1.368 . S
C1671 H1695 0.949 . S
H1672 C1676 0.949 . S
C1673 C1674 1.349 . S
C1673 C1675 1.327 . S
C1673 H1696 0.950 . S
C1674 C1673 1.349 . S
C1674 C1686 1.349 . S
C1675 C1673 1.327 . S
C1675 C1691 1.429 . S
C1675 H1697 0.950 . S
C1676 H1672 0.949 . S
C1676 C1684 1.574 . S
C1676 C1692 1.368 . S
H1677 C1685 0.950 . S
H1678 C1683 0.950 . S
H1679 C1684 0.949 . S
H1680 C1686 0.950 . S
H1681 C1687 0.950 . S
H1682 C1688 0.949 . S
C1683 H1678 0.950 . S
C1683 C1685 1.327 . S
C1683 C1689 1.429 . S
C1684 C1676 1.574 . S
C1684 H1679 0.949 . S
C1684 C1690 1.368 . S
C1685 C1669 1.349 . S
C1685 H1677 0.950 . S
C1685 C1683 1.327 . S
C1686 C1674 1.349 . S
C1686 H1680 0.950 . S
C1686 C1687 1.327 . S
C1687 H1681 0.950 . S
C1687 C1686 1.327 . S
C1687 C1691 1.429 . S
C1688 C1671 1.574 . S
C1688 H1682 0.949 . S
C1688 C1692 1.368 . S
C1689 C1670 1.429 . S
C1689 C1683 1.429 . S
C1689 C1690 1.523 . S
C1690 C1671 1.368 . S
C1690 C1684 1.368 . S
C1690 C1689 1.523 . S
C1691 C1675 1.429 . S
C1691 C1687 1.429 . S
C1691 C1692 1.523 . S
C1692 C1676 1.368 . S
C1692 C1688 1.368 . S
C1692 C1691 1.523 . S
H1693 C1668 0.950 . S
H1694 C1670 0.950 . S
H1695 C1671 0.949 . S
H1696 C1673 0.950 . S
H1697 C1675 0.950 . S
C1698 C1699 1.349 . S
C1698 C1700 1.327 . S
C1698 H1723 0.950 . S
C1699 C1698 1.349 . S
C1699 C1715 1.349 . S
C1700 C1698 1.327 . S
C1700 C1719 1.429 . S
C1700 H1724 0.950 . S
C1701 C1718 1.574 . S
C1701 C1720 1.368 . S
C1701 H1725 0.949 . S
H1702 C1706 0.949 . S
C1703 C1704 1.349 . S
C1703 C1705 1.327 . S
C1703 H1726 0.950 . S
C1704 C1703 1.349 . S
C1704 C1716 1.349 . S
C1705 C1703 1.327 . S
C1705 C1721 1.429 . S
C1705 H1727 0.950 . S
C1706 H1702 0.949 . S
C1706 C1714 1.574 . S
C1706 C1722 1.368 . S
H1707 C1715 0.950 . S
H1708 C1713 0.950 . S
H1709 C1714 0.949 . S
H1710 C1716 0.950 . S
H1711 C1717 0.950 . S
H1712 C1718 0.949 . S
C1713 H1708 0.950 . S
C1713 C1715 1.327 . S
C1713 C1719 1.429 . S
C1714 C1706 1.574 . S
C1714 H1709 0.949 . S
C1714 C1720 1.368 . S
C1715 C1699 1.349 . S
C1715 H1707 0.950 . S
C1715 C1713 1.327 . S
C1716 C1704 1.349 . S
C1716 H1710 0.950 . S
C1716 C1717 1.327 . S
C1717 H1711 0.950 . S
C1717 C1716 1.327 . S
C1717 C1721 1.429 . S
C1718 C1701 1.574 . S
C1718 H1712 0.949 . S
C1718 C1722 1.368 . S
C1719 C1700 1.429 . S
C1719 C1713 1.429 . S
C1719 C1720 1.523 . S
C1720 C1701 1.368 . S
C1720 C1714 1.368 . S
C1720 C1719 1.523 . S
C1721 C1705 1.429 . S
C1721 C1717 1.429 . S
C1721 C1722 1.523 . S
C1722 C1706 1.368 . S
C1722 C1718 1.368 . S
C1722 C1721 1.523 . S
H1723 C1698 0.950 . S
H1724 C1700 0.950 . S
H1725 C1701 0.949 . S
H1726 C1703 0.950 . S
H1727 C1705 0.950 . S
C1728 C1729 1.349 . S
C1728 C1730 1.327 . S
C1728 H1753 0.950 . S
C1729 C1728 1.349 . S
C1729 C1745 1.349 . S
C1730 C1728 1.327 . S
C1730 C1749 1.429 . S
C1730 H1754 0.950 . S
C1731 C1748 1.574 . S
C1731 C1750 1.368 . S
C1731 H1755 0.949 . S
H1732 C1736 0.949 . S
C1733 C1734 1.349 . S
C1733 C1735 1.327 . S
C1733 H1756 0.950 . S
C1734 C1733 1.349 . S
C1734 C1746 1.349 . S
C1735 C1733 1.327 . S
C1735 C1751 1.429 . S
C1735 H1757 0.950 . S
C1736 H1732 0.949 . S
C1736 C1744 1.574 . S
C1736 C1752 1.368 . S
H1737 C1745 0.950 . S
H1738 C1743 0.950 . S
H1739 C1744 0.949 . S
H1740 C1746 0.950 . S
H1741 C1747 0.950 . S
H1742 C1748 0.949 . S
C1743 H1738 0.950 . S
C1743 C1745 1.327 . S
C1743 C1749 1.429 . S
C1744 C1736 1.574 . S
C1744 H1739 0.949 . S
C1744 C1750 1.368 . S
C1745 C1729 1.349 . S
C1745 H1737 0.950 . S
C1745 C1743 1.327 . S
C1746 C1734 1.349 . S
C1746 H1740 0.950 . S
C1746 C1747 1.327 . S
C1747 H1741 0.950 . S
C1747 C1746 1.327 . S
C1747 C1751 1.429 . S
C1748 C1731 1.574 . S
C1748 H1742 0.949 . S
C1748 C1752 1.368 . S
C1749 C1730 1.429 . S
C1749 C1743 1.429 . S
C1749 C1750 1.523 . S
C1750 C1731 1.368 . S
C1750 C1744 1.368 . S
C1750 C1749 1.523 . S
C1751 C1735 1.429 . S
C1751 C1747 1.429 . S
C1751 C1752 1.523 . S
C1752 C1736 1.368 . S
C1752 C1748 1.368 . S
C1752 C1751 1.523 . S
H1753 C1728 0.950 . S
H1754 C1730 0.950 . S
H1755 C1731 0.949 . S
H1756 C1733 0.950 . S
H1757 C1735 0.950 . S
C1758 C1759 1.349 . S
C1758 C1760 1.327 . S
C1758 H1783 0.950 . S
C1759 C1758 1.349 . S
C1759 C1775 1.349 . S
C1760 C1758 1.327 . S
C1760 C1779 1.429 . S
C1760 H1784 0.950 . S
C1761 C1778 1.574 . S
C1761 C1780 1.368 . S
C1761 H1785 0.949 . S
H1762 C1766 0.949 . S
C1763 C1764 1.349 . S
C1763 C1765 1.327 . S
C1763 H1786 0.950 . S
C1764 C1763 1.349 . S
C1764 C1776 1.349 . S
C1765 C1763 1.327 . S
C1765 C1781 1.429 . S
C1765 H1787 0.950 . S
C1766 H1762 0.949 . S
C1766 C1774 1.574 . S
C1766 C1782 1.368 . S
H1767 C1775 0.950 . S
H1768 C1773 0.950 . S
H1769 C1774 0.949 . S
H1770 C1776 0.950 . S
H1771 C1777 0.950 . S
H1772 C1778 0.949 . S
C1773 H1768 0.950 . S
C1773 C1775 1.327 . S
C1773 C1779 1.429 . S
C1774 C1766 1.574 . S
C1774 H1769 0.949 . S
C1774 C1780 1.368 . S
C1775 C1759 1.349 . S
C1775 H1767 0.950 . S
C1775 C1773 1.327 . S
C1776 C1764 1.349 . S
C1776 H1770 0.950 . S
C1776 C1777 1.327 . S
C1777 H1771 0.950 . S
C1777 C1776 1.327 . S
C1777 C1781 1.429 . S
C1778 C1761 1.574 . S
C1778 H1772 0.949 . S
C1778 C1782 1.368 . S
C1779 C1760 1.429 . S
C1779 C1773 1.429 . S
C1779 C1780 1.523 . S
C1780 C1761 1.368 . S
C1780 C1774 1.368 . S
C1780 C1779 1.523 . S
C1781 C1765 1.429 . S
C1781 C1777 1.429 . S
C1781 C1782 1.523 . S
C1782 C1766 1.368 . S
C1782 C1778 1.368 . S
C1782 C1781 1.523 . S
H1783 C1758 0.950 . S
H1784 C1760 0.950 . S
H1785 C1761 0.949 . S
H1786 C1763 0.950 . S
H1787 C1765 0.950 . S
C1788 C1789 1.349 . S
C1788 C1790 1.327 . S
C1788 H1813 0.950 . S
C1789 C1788 1.349 . S
C1789 C1805 1.349 . S
C1790 C1788 1.327 . S
C1790 C1809 1.429 . S
C1790 H1814 0.950 . S
C1791 C1808 1.574 . S
C1791 C1810 1.368 . S
C1791 H1815 0.949 . S
H1792 C1796 0.949 . S
C1793 C1794 1.349 . S
C1793 C1795 1.327 . S
C1793 H1816 0.950 . S
C1794 C1793 1.349 . S
C1794 C1806 1.349 . S
C1795 C1793 1.327 . S
C1795 C1811 1.429 . S
C1795 H1817 0.950 . S
C1796 H1792 0.949 . S
C1796 C1804 1.574 . S
C1796 C1812 1.368 . S
H1797 C1805 0.950 . S
H1798 C1803 0.950 . S
H1799 C1804 0.949 . S
H1800 C1806 0.950 . S
H1801 C1807 0.950 . S
H1802 C1808 0.949 . S
C1803 H1798 0.950 . S
C1803 C1805 1.327 . S
C1803 C1809 1.429 . S
C1804 C1796 1.574 . S
C1804 H1799 0.949 . S
C1804 C1810 1.368 . S
C1805 C1789 1.349 . S
C1805 H1797 0.950 . S
C1805 C1803 1.327 . S
C1806 C1794 1.349 . S
C1806 H1800 0.950 . S
C1806 C1807 1.327 . S
C1807 H1801 0.950 . S
C1807 C1806 1.327 . S
C1807 C1811 1.429 . S
C1808 C1791 1.574 . S
C1808 H1802 0.949 . S
C1808 C1812 1.368 . S
C1809 C1790 1.429 . S
C1809 C1803 1.429 . S
C1809 C1810 1.523 . S
C1810 C1791 1.368 . S
C1810 C1804 1.368 . S
C1810 C1809 1.523 . S
C1811 C1795 1.429 . S
C1811 C1807 1.429 . S
C1811 C1812 1.523 . S
C1812 C1796 1.368 . S
C1812 C1808 1.368 . S
C1812 C1811 1.523 . S
H1813 C1788 0.950 . S
H1814 C1790 0.950 . S
H1815 C1791 0.949 . S
H1816 C1793 0.950 . S
H1817 C1795 0.950 . S
C1818 C1819 1.349 . S
C1818 C1820 1.327 . S
C1818 H1843 0.950 . S
C1819 C1818 1.349 . S
C1819 C1835 1.349 . S
C1820 C1818 1.327 . S
C1820 C1839 1.429 . S
C1820 H1844 0.950 . S
C1821 C1838 1.574 . S
C1821 C1840 1.368 . S
C1821 H1845 0.949 . S
H1822 C1826 0.949 . S
C1823 C1824 1.349 . S
C1823 C1825 1.327 . S
C1823 H1846 0.950 . S
C1824 C1823 1.349 . S
C1824 C1836 1.349 . S
C1825 C1823 1.327 . S
C1825 C1841 1.429 . S
C1825 H1847 0.950 . S
C1826 H1822 0.949 . S
C1826 C1834 1.574 . S
C1826 C1842 1.368 . S
H1827 C1835 0.950 . S
H1828 C1833 0.950 . S
H1829 C1834 0.949 . S
H1830 C1836 0.950 . S
H1831 C1837 0.950 . S
H1832 C1838 0.949 . S
C1833 H1828 0.950 . S
C1833 C1835 1.327 . S
C1833 C1839 1.429 . S
C1834 C1826 1.574 . S
C1834 H1829 0.949 . S
C1834 C1840 1.368 . S
C1835 C1819 1.349 . S
C1835 H1827 0.950 . S
C1835 C1833 1.327 . S
C1836 C1824 1.349 . S
C1836 H1830 0.950 . S
C1836 C1837 1.327 . S
C1837 H1831 0.950 . S
C1837 C1836 1.327 . S
C1837 C1841 1.429 . S
C1838 C1821 1.574 . S
C1838 H1832 0.949 . S
C1838 C1842 1.368 . S
C1839 C1820 1.429 . S
C1839 C1833 1.429 . S
C1839 C1840 1.523 . S
C1840 C1821 1.368 . S
C1840 C1834 1.368 . S
C1840 C1839 1.523 . S
C1841 C1825 1.429 . S
C1841 C1837 1.429 . S
C1841 C1842 1.523 . S
C1842 C1826 1.368 . S
C1842 C1838 1.368 . S
C1842 C1841 1.523 . S
H1843 C1818 0.950 . S
H1844 C1820 0.950 . S
H1845 C1821 0.949 . S
H1846 C1823 0.950 . S
H1847 C1825 0.950 . S
C1848 C1849 1.349 . S
C1848 C1850 1.327 . S
C1848 H1873 0.950 . S
C1849 C1848 1.349 . S
C1849 C1865 1.349 . S
C1850 C1848 1.327 . S
C1850 C1869 1.429 . S
C1850 H1874 0.950 . S
C1851 C1868 1.574 . S
C1851 C1870 1.368 . S
C1851 H1875 0.949 . S
H1852 C1856 0.949 . S
C1853 C1854 1.349 . S
C1853 C1855 1.327 . S
C1853 H1876 0.950 . S
C1854 C1853 1.349 . S
C1854 C1866 1.349 . S
C1855 C1853 1.327 . S
C1855 C1871 1.429 . S
C1855 H1877 0.950 . S
C1856 H1852 0.949 . S
C1856 C1864 1.574 . S
C1856 C1872 1.368 . S
H1857 C1865 0.950 . S
H1858 C1863 0.950 . S
H1859 C1864 0.949 . S
H1860 C1866 0.950 . S
H1861 C1867 0.950 . S
H1862 C1868 0.949 . S
C1863 H1858 0.950 . S
C1863 C1865 1.327 . S
C1863 C1869 1.429 . S
C1864 C1856 1.574 . S
C1864 H1859 0.949 . S
C1864 C1870 1.368 . S
C1865 C1849 1.349 . S
C1865 H1857 0.950 . S
C1865 C1863 1.327 . S
C1866 C1854 1.349 . S
C1866 H1860 0.950 . S
C1866 C1867 1.327 . S
C1867 H1861 0.950 . S
C1867 C1866 1.327 . S
C1867 C1871 1.429 . S
C1868 C1851 1.574 . S
C1868 H1862 0.949 . S
C1868 C1872 1.368 . S
C1869 C1850 1.429 . S
C1869 C1863 1.429 . S
C1869 C1870 1.523 . S
C1870 C1851 1.368 . S
C1870 C1864 1.368 . S
C1870 C1869 1.523 . S
C1871 C1855 1.429 . S
C1871 C1867 1.429 . S
C1871 C1872 1.523 . S
C1872 C1856 1.368 . S
C1872 C1868 1.368 . S
C1872 C1871 1.523 . S
H1873 C1848 0.950 . S
H1874 C1850 0.950 . S
H1875 C1851 0.949 . S
H1876 C1853 0.950 . S
H1877 C1855 0.950 . S
C1878 C1879 1.349 . S
C1878 C1880 1.327 . S
C1878 H1903 0.950 . S
C1879 C1878 1.349 . S
C1879 C1895 1.349 . S
C1880 C1878 1.327 . S
C1880 C1899 1.429 . S
C1880 H1904 0.950 . S
C1881 C1898 1.574 . S
C1881 C1900 1.368 . S
C1881 H1905 0.949 . S
H1882 C1886 0.949 . S
C1883 C1884 1.349 . S
C1883 C1885 1.327 . S
C1883 H1906 0.950 . S
C1884 C1883 1.349 . S
C1884 C1896 1.349 . S
C1885 C1883 1.327 . S
C1885 C1901 1.429 . S
C1885 H1907 0.950 . S
C1886 H1882 0.949 . S
C1886 C1894 1.574 . S
C1886 C1902 1.368 . S
H1887 C1895 0.950 . S
H1888 C1893 0.950 . S
H1889 C1894 0.949 . S
H1890 C1896 0.950 . S
H1891 C1897 0.950 . S
H1892 C1898 0.949 . S
C1893 H1888 0.950 . S
C1893 C1895 1.327 . S
C1893 C1899 1.429 . S
C1894 C1886 1.574 . S
C1894 H1889 0.949 . S
C1894 C1900 1.368 . S
C1895 C1879 1.349 . S
C1895 H1887 0.950 . S
C1895 C1893 1.327 . S
C1896 C1884 1.349 . S
C1896 H1890 0.950 . S
C1896 C1897 1.327 . S
C1897 H1891 0.950 . S
C1897 C1896 1.327 . S
C1897 C1901 1.429 . S
C1898 C1881 1.574 . S
C1898 H1892 0.949 . S
C1898 C1902 1.368 . S
C1899 C1880 1.429 . S
C1899 C1893 1.429 . S
C1899 C1900 1.523 . S
C1900 C1881 1.368 . S
C1900 C1894 1.368 . S
C1900 C1899 1.523 . S
C1901 C1885 1.429 . S
C1901 C1897 1.429 . S
C1901 C1902 1.523 . S
C1902 C1886 1.368 . S
C1902 C1898 1.368 . S
C1902 C1901 1.523 . S
H1903 C1878 0.950 . S
H1904 C1880 0.950 . S
H1905 C1881 0.949 . S
H1906 C1883 0.950 . S
H1907 C1885 0.950 . S
C1908 C1909 1.349 . S
C1908 C1910 1.327 . S
C1908 H1933 0.950 . S
C1909 C1908 1.349 . S
C1909 C1925 1.349 . S
C1910 C1908 1.327 . S
C1910 C1929 1.429 . S
C1910 H1934 0.950 . S
C1911 C1928 1.574 . S
C1911 C1930 1.368 . S
C1911 H1935 0.949 . S
H1912 C1916 0.949 . S
C1913 C1914 1.349 . S
C1913 C1915 1.327 . S
C1913 H1936 0.950 . S
C1914 C1913 1.349 . S
C1914 C1926 1.349 . S
C1915 C1913 1.327 . S
C1915 C1931 1.429 . S
C1915 H1937 0.950 . S
C1916 H1912 0.949 . S
C1916 C1924 1.574 . S
C1916 C1932 1.368 . S
H1917 C1925 0.950 . S
H1918 C1923 0.950 . S
H1919 C1924 0.949 . S
H1920 C1926 0.950 . S
H1921 C1927 0.950 . S
H1922 C1928 0.949 . S
C1923 H1918 0.950 . S
C1923 C1925 1.327 . S
C1923 C1929 1.429 . S
C1924 C1916 1.574 . S
C1924 H1919 0.949 . S
C1924 C1930 1.368 . S
C1925 C1909 1.349 . S
C1925 H1917 0.950 . S
C1925 C1923 1.327 . S
C1926 C1914 1.349 . S
C1926 H1920 0.950 . S
C1926 C1927 1.327 . S
C1927 H1921 0.950 . S
C1927 C1926 1.327 . S
C1927 C1931 1.429 . S
C1928 C1911 1.574 . S
C1928 H1922 0.949 . S
C1928 C1932 1.368 . S
C1929 C1910 1.429 . S
C1929 C1923 1.429 . S
C1929 C1930 1.523 . S
C1930 C1911 1.368 . S
C1930 C1924 1.368 . S
C1930 C1929 1.523 . S
C1931 C1915 1.429 . S
C1931 C1927 1.429 . S
C1931 C1932 1.523 . S
C1932 C1916 1.368 . S
C1932 C1928 1.368 . S
C1932 C1931 1.523 . S
H1933 C1908 0.950 . S
H1934 C1910 0.950 . S
H1935 C1911 0.949 . S
H1936 C1913 0.950 . S
H1937 C1915 0.950 . S
C1938 C1939 1.349 . S
C1938 C1940 1.327 . S
C1938 H1963 0.950 . S
C1939 C1938 1.349 . S
C1939 C1955 1.349 . S
C1940 C1938 1.327 . S
C1940 C1959 1.429 . S
C1940 H1964 0.950 . S
C1941 C1958 1.574 . S
C1941 C1960 1.368 . S
C1941 H1965 0.949 . S
H1942 C1946 0.949 . S
C1943 C1944 1.349 . S
C1943 C1945 1.327 . S
C1943 H1966 0.950 . S
C1944 C1943 1.349 . S
C1944 C1956 1.349 . S
C1945 C1943 1.327 . S
C1945 C1961 1.429 . S
C1945 H1967 0.950 . S
C1946 H1942 0.949 . S
C1946 C1954 1.574 . S
C1946 C1962 1.368 . S
H1947 C1955 0.950 . S
H1948 C1953 0.950 . S
H1949 C1954 0.949 . S
H1950 C1956 0.950 . S
H1951 C1957 0.950 . S
H1952 C1958 0.949 . S
C1953 H1948 0.950 . S
C1953 C1955 1.327 . S
C1953 C1959 1.429 . S
C1954 C1946 1.574 . S
C1954 H1949 0.949 . S
C1954 C1960 1.368 . S
C1955 C1939 1.349 . S
C1955 H1947 0.950 . S
C1955 C1953 1.327 . S
C1956 C1944 1.349 . S
C1956 H1950 0.950 . S
C1956 C1957 1.327 . S
C1957 H1951 0.950 . S
C1957 C1956 1.327 . S
C1957 C1961 1.429 . S
C1958 C1941 1.574 . S
C1958 H1952 0.949 . S
C1958 C1962 1.368 . S
C1959 C1940 1.429 . S
C1959 C1953 1.429 . S
C1959 C1960 1.523 . S
C1960 C1941 1.368 . S
C1960 C1954 1.368 . S
C1960 C1959 1.523 . S
C1961 C1945 1.429 . S
C1961 C1957 1.429 . S
C1961 C1962 1.523 . S
C1962 C1946 1.368 . S
C1962 C1958 1.368 . S
C1962 C1961 1.523 . S
H1963 C1938 0.950 . S
H1964 C1940 0.950 . S
H1965 C1941 0.949 . S
H1966 C1943 0.950 . S
H1967 C1945 0.950 . S
C1968 C1969 1.349 . S
C1968 C1970 1.327 . S
C1968 H1993 0.950 . S
C1969 C1968 1.349 . S
C1969 C1985 1.349 . S
C1970 C1968 1.327 . S
C1970 C1989 1.429 . S
C1970 H1994 0.950 . S
C1971 C1988 1.574 . S
C1971 C1990 1.368 . S
C1971 H1995 0.949 . S
H1972 C1976 0.949 . S
C1973 C1974 1.349 . S
C1973 C1975 1.327 . S
C1973 H1996 0.950 . S
C1974 C1973 1.349 . S
C1974 C1986 1.349 . S
C1975 C1973 1.327 . S
C1975 C1991 1.429 . S
C1975 H1997 0.950 . S
C1976 H1972 0.949 . S
C1976 C1984 1.574 . S
C1976 C1992 1.368 . S
H1977 C1985 0.950 . S
H1978 C1983 0.950 . S
H1979 C1984 0.949 . S
H1980 C1986 0.950 . S
H1981 C1987 0.950 . S
H1982 C1988 0.949 . S
C1983 H1978 0.950 . S
C1983 C1985 1.327 . S
C1983 C1989 1.429 . S
C1984 C1976 1.574 . S
C1984 H1979 0.949 . S
C1984 C1990 1.368 . S
C1985 C1969 1.349 . S
C1985 H1977 0.950 . S
C1985 C1983 1.327 . S
C1986 C1974 1.349 . S
C1986 H1980 0.950 . S
C1986 C1987 1.327 . S
C1987 H1981 0.950 . S
C1987 C1986 1.327 . S
C1987 C1991 1.429 . S
C1988 C1971 1.574 . S
C1988 H1982 0.949 . S
C1988 C1992 1.368 . S
C1989 C1970 1.429 . S
C1989 C1983 1.429 . S
C1989 C1990 1.523 . S
C1990 C1971 1.368 . S
C1990 C1984 1.368 . S
C1990 C1989 1.523 . S
C1991 C1975 1.429 . S
C1991 C1987 1.429 . S
C1991 C1992 1.523 . S
C1992 C1976 1.368 . S
C1992 C1988 1.368 . S
C1992 C1991 1.523 . S
H1993 C1968 0.950 . S
H1994 C1970 0.950 . S
H1995 C1971 0.949 . S
H1996 C1973 0.950 . S
H1997 C1975 0.950 . S
C1998 C1999 1.349 . S
C1998 C2000 1.327 . S
C1998 H2023 0.950 . S
C1999 C1998 1.349 . S
C1999 C2015 1.349 . S
C2000 C1998 1.327 . S
C2000 C2019 1.429 . S
C2000 H2024 0.950 . S
C2001 C2018 1.574 . S
C2001 C2020 1.368 . S
C2001 H2025 0.949 . S
H2002 C2006 0.949 . S
C2003 C2004 1.349 . S
C2003 C2005 1.327 . S
C2003 H2026 0.950 . S
C2004 C2003 1.349 . S
C2004 C2016 1.349 . S
C2005 C2003 1.327 . S
C2005 C2021 1.429 . S
C2005 H2027 0.950 . S
C2006 H2002 0.949 . S
C2006 C2014 1.574 . S
C2006 C2022 1.368 . S
H2007 C2015 0.950 . S
H2008 C2013 0.950 . S
H2009 C2014 0.949 . S
H2010 C2016 0.950 . S
H2011 C2017 0.950 . S
H2012 C2018 0.949 . S
C2013 H2008 0.950 . S
C2013 C2015 1.327 . S
C2013 C2019 1.429 . S
C2014 C2006 1.574 . S
C2014 H2009 0.949 . S
C2014 C2020 1.368 . S
C2015 C1999 1.349 . S
C2015 H2007 0.950 . S
C2015 C2013 1.327 . S
C2016 C2004 1.349 . S
C2016 H2010 0.950 . S
C2016 C2017 1.327 . S
C2017 H2011 0.950 . S
C2017 C2016 1.327 . S
C2017 C2021 1.429 . S
C2018 C2001 1.574 . S
C2018 H2012 0.949 . S
C2018 C2022 1.368 . S
C2019 C2000 1.429 . S
C2019 C2013 1.429 . S
C2019 C2020 1.523 . S
C2020 C2001 1.368 . S
C2020 C2014 1.368 . S
C2020 C2019 1.523 . S
C2021 C2005 1.429 . S
C2021 C2017 1.429 . S
C2021 C2022 1.523 . S
C2022 C2006 1.368 . S
C2022 C2018 1.368 . S
C2022 C2021 1.523 . S
H2023 C1998 0.950 . S
H2024 C2000 0.950 . S
H2025 C2001 0.949 . S
H2026 C2003 0.950 . S
H2027 C2005 0.950 . S
C2028 C2029 1.349 . S
C2028 C2030 1.327 . S
C2028 H2053 0.950 . S
C2029 C2028 1.349 . S
C2029 C2045 1.349 . S
C2030 C2028 1.327 . S
C2030 C2049 1.429 . S
C2030 H2054 0.950 . S
C2031 C2048 1.574 . S
C2031 C2050 1.368 . S
C2031 H2055 0.949 . S
H2032 C2036 0.949 . S
C2033 C2034 1.349 . S
C2033 C2035 1.327 . S
C2033 H2056 0.950 . S
C2034 C2033 1.349 . S
C2034 C2046 1.349 . S
C2035 C2033 1.327 . S
C2035 C2051 1.429 . S
C2035 H2057 0.950 . S
C2036 H2032 0.949 . S
C2036 C2044 1.574 . S
C2036 C2052 1.368 . S
H2037 C2045 0.950 . S
H2038 C2043 0.950 . S
H2039 C2044 0.949 . S
H2040 C2046 0.950 . S
H2041 C2047 0.950 . S
H2042 C2048 0.949 . S
C2043 H2038 0.950 . S
C2043 C2045 1.327 . S
C2043 C2049 1.429 . S
C2044 C2036 1.574 . S
C2044 H2039 0.949 . S
C2044 C2050 1.368 . S
C2045 C2029 1.349 . S
C2045 H2037 0.950 . S
C2045 C2043 1.327 . S
C2046 C2034 1.349 . S
C2046 H2040 0.950 . S
C2046 C2047 1.327 . S
C2047 H2041 0.950 . S
C2047 C2046 1.327 . S
C2047 C2051 1.429 . S
C2048 C2031 1.574 . S
C2048 H2042 0.949 . S
C2048 C2052 1.368 . S
C2049 C2030 1.429 . S
C2049 C2043 1.429 . S
C2049 C2050 1.523 . S
C2050 C2031 1.368 . S
C2050 C2044 1.368 . S
C2050 C2049 1.523 . S
C2051 C2035 1.429 . S
C2051 C2047 1.429 . S
C2051 C2052 1.523 . S
C2052 C2036 1.368 . S
C2052 C2048 1.368 . S
C2052 C2051 1.523 . S
H2053 C2028 0.950 . S
H2054 C2030 0.950 . S
H2055 C2031 0.949 . S
H2056 C2033 0.950 . S
H2057 C2035 0.950 . S
C2058 C2059 1.349 . S
C2058 C2060 1.327 . S
C2058 H2083 0.950 . S
C2059 C2058 1.349 . S
C2059 C2075 1.349 . S
C2060 C2058 1.327 . S
C2060 C2079 1.429 . S
C2060 H2084 0.950 . S
C2061 C2078 1.574 . S
C2061 C2080 1.368 . S
C2061 H2085 0.949 . S
H2062 C2066 0.949 . S
C2063 C2064 1.349 . S
C2063 C2065 1.327 . S
C2063 H2086 0.950 . S
C2064 C2063 1.349 . S
C2064 C2076 1.349 . S
C2065 C2063 1.327 . S
C2065 C2081 1.429 . S
C2065 H2087 0.950 . S
C2066 H2062 0.949 . S
C2066 C2074 1.574 . S
C2066 C2082 1.368 . S
H2067 C2075 0.950 . S
H2068 C2073 0.950 . S
H2069 C2074 0.949 . S
H2070 C2076 0.950 . S
H2071 C2077 0.950 . S
H2072 C2078 0.949 . S
C2073 H2068 0.950 . S
C2073 C2075 1.327 . S
C2073 C2079 1.429 . S
C2074 C2066 1.574 . S
C2074 H2069 0.949 . S
C2074 C2080 1.368 . S
C2075 C2059 1.349 . S
C2075 H2067 0.950 . S
C2075 C2073 1.327 . S
C2076 C2064 1.349 . S
C2076 H2070 0.950 . S
C2076 C2077 1.327 . S
C2077 H2071 0.950 . S
C2077 C2076 1.327 . S
C2077 C2081 1.429 . S
C2078 C2061 1.574 . S
C2078 H2072 0.949 . S
C2078 C2082 1.368 . S
C2079 C2060 1.429 . S
C2079 C2073 1.429 . S
C2079 C2080 1.523 . S
C2080 C2061 1.368 . S
C2080 C2074 1.368 . S
C2080 C2079 1.523 . S
C2081 C2065 1.429 . S
C2081 C2077 1.429 . S
C2081 C2082 1.523 . S
C2082 C2066 1.368 . S
C2082 C2078 1.368 . S
C2082 C2081 1.523 . S
H2083 C2058 0.950 . S
H2084 C2060 0.950 . S
H2085 C2061 0.949 . S
H2086 C2063 0.950 . S
H2087 C2065 0.950 . S
C2088 C2089 1.349 . S
C2088 C2090 1.327 . S
C2088 H2113 0.950 . S
C2089 C2088 1.349 . S
C2089 C2105 1.349 . S
C2090 C2088 1.327 . S
C2090 C2109 1.429 . S
C2090 H2114 0.950 . S
C2091 C2108 1.574 . S
C2091 C2110 1.368 . S
C2091 H2115 0.949 . S
H2092 C2096 0.949 . S
C2093 C2094 1.349 . S
C2093 C2095 1.327 . S
C2093 H2116 0.950 . S
C2094 C2093 1.349 . S
C2094 C2106 1.349 . S
C2095 C2093 1.327 . S
C2095 C2111 1.429 . S
C2095 H2117 0.950 . S
C2096 H2092 0.949 . S
C2096 C2104 1.574 . S
C2096 C2112 1.368 . S
H2097 C2105 0.950 . S
H2098 C2103 0.950 . S
H2099 C2104 0.949 . S
H2100 C2106 0.950 . S
H2101 C2107 0.950 . S
H2102 C2108 0.949 . S
C2103 H2098 0.950 . S
C2103 C2105 1.327 . S
C2103 C2109 1.429 . S
C2104 C2096 1.574 . S
C2104 H2099 0.949 . S
C2104 C2110 1.368 . S
C2105 C2089 1.349 . S
C2105 H2097 0.950 . S
C2105 C2103 1.327 . S
C2106 C2094 1.349 . S
C2106 H2100 0.950 . S
C2106 C2107 1.327 . S
C2107 H2101 0.950 . S
C2107 C2106 1.327 . S
C2107 C2111 1.429 . S
C2108 C2091 1.574 . S
C2108 H2102 0.949 . S
C2108 C2112 1.368 . S
C2109 C2090 1.429 . S
C2109 C2103 1.429 . S
C2109 C2110 1.523 . S
C2110 C2091 1.368 . S
C2110 C2104 1.368 . S
C2110 C2109 1.523 . S
C2111 C2095 1.429 . S
C2111 C2107 1.429 . S
C2111 C2112 1.523 . S
C2112 C2096 1.368 . S
C2112 C2108 1.368 . S
C2112 C2111 1.523 . S
H2113 C2088 0.950 . S
H2114 C2090 0.950 . S
H2115 C2091 0.949 . S
H2116 C2093 0.950 . S
H2117 C2095 0.950 . S
C2118 C2119 1.349 . S
C2118 C2120 1.327 . S
C2118 H2143 0.950 . S
C2119 C2118 1.349 . S
C2119 C2135 1.349 . S
C2120 C2118 1.327 . S
C2120 C2139 1.429 . S
C2120 H2144 0.950 . S
C2121 C2138 1.574 . S
C2121 C2140 1.368 . S
C2121 H2145 0.949 . S
H2122 C2126 0.949 . S
C2123 C2124 1.349 . S
C2123 C2125 1.327 . S
C2123 H2146 0.950 . S
C2124 C2123 1.349 . S
C2124 C2136 1.349 . S
C2125 C2123 1.327 . S
C2125 C2141 1.429 . S
C2125 H2147 0.950 . S
C2126 H2122 0.949 . S
C2126 C2134 1.574 . S
C2126 C2142 1.368 . S
H2127 C2135 0.950 . S
H2128 C2133 0.950 . S
H2129 C2134 0.949 . S
H2130 C2136 0.950 . S
H2131 C2137 0.950 . S
H2132 C2138 0.949 . S
C2133 H2128 0.950 . S
C2133 C2135 1.327 . S
C2133 C2139 1.429 . S
C2134 C2126 1.574 . S
C2134 H2129 0.949 . S
C2134 C2140 1.368 . S
C2135 C2119 1.349 . S
C2135 H2127 0.950 . S
C2135 C2133 1.327 . S
C2136 C2124 1.349 . S
C2136 H2130 0.950 . S
C2136 C2137 1.327 . S
C2137 H2131 0.950 . S
C2137 C2136 1.327 . S
C2137 C2141 1.429 . S
C2138 C2121 1.574 . S
C2138 H2132 0.949 . S
C2138 C2142 1.368 . S
C2139 C2120 1.429 . S
C2139 C2133 1.429 . S
C2139 C2140 1.523 . S
C2140 C2121 1.368 . S
C2140 C2134 1.368 . S
C2140 C2139 1.523 . S
C2141 C2125 1.429 . S
C2141 C2137 1.429 . S
C2141 C2142 1.523 . S
C2142 C2126 1.368 . S
C2142 C2138 1.368 . S
C2142 C2141 1.523 . S
H2143 C2118 0.950 . S
H2144 C2120 0.950 . S
H2145 C2121 0.949 . S
H2146 C2123 0.950 . S
H2147 C2125 0.950 . S
C2148 C2149 1.349 . S
C2148 C2150 1.327 . S
C2148 H2173 0.950 . S
C2149 C2148 1.349 . S
C2149 C2165 1.349 . S
C2150 C2148 1.327 . S
C2150 C2169 1.429 . S
C2150 H2174 0.950 . S
C2151 C2168 1.574 . S
C2151 C2170 1.368 . S
C2151 H2175 0.949 . S
H2152 C2156 0.949 . S
C2153 C2154 1.349 . S
C2153 C2155 1.327 . S
C2153 H2176 0.950 . S
C2154 C2153 1.349 . S
C2154 C2166 1.349 . S
C2155 C2153 1.327 . S
C2155 C2171 1.429 . S
C2155 H2177 0.950 . S
C2156 H2152 0.949 . S
C2156 C2164 1.574 . S
C2156 C2172 1.368 . S
H2157 C2165 0.950 . S
H2158 C2163 0.950 . S
H2159 C2164 0.949 . S
H2160 C2166 0.950 . S
H2161 C2167 0.950 . S
H2162 C2168 0.949 . S
C2163 H2158 0.950 . S
C2163 C2165 1.327 . S
C2163 C2169 1.429 . S
C2164 C2156 1.574 . S
C2164 H2159 0.949 . S
C2164 C2170 1.368 . S
C2165 C2149 1.349 . S
C2165 H2157 0.950 . S
C2165 C2163 1.327 . S
C2166 C2154 1.349 . S
C2166 H2160 0.950 . S
C2166 C2167 1.327 . S
C2167 H2161 0.950 . S
C2167 C2166 1.327 . S
C2167 C2171 1.429 . S
C2168 C2151 1.574 . S
C2168 H2162 0.949 . S
C2168 C2172 1.368 . S
C2169 C2150 1.429 . S
C2169 C2163 1.429 . S
C2169 C2170 1.523 . S
C2170 C2151 1.368 . S
C2170 C2164 1.368 . S
C2170 C2169 1.523 . S
C2171 C2155 1.429 . S
C2171 C2167 1.429 . S
C2171 C2172 1.523 . S
C2172 C2156 1.368 . S
C2172 C2168 1.368 . S
C2172 C2171 1.523 . S
H2173 C2148 0.950 . S
H2174 C2150 0.950 . S
H2175 C2151 0.949 . S
H2176 C2153 0.950 . S
H2177 C2155 0.950 . S
C2178 C2179 1.349 . S
C2178 C2180 1.327 . S
C2178 H2203 0.950 . S
C2179 C2178 1.349 . S
C2179 C2195 1.349 . S
C2180 C2178 1.327 . S
C2180 C2199 1.429 . S
C2180 H2204 0.950 . S
C2181 C2198 1.574 . S
C2181 C2200 1.368 . S
C2181 H2205 0.949 . S
H2182 C2186 0.949 . S
C2183 C2184 1.349 . S
C2183 C2185 1.327 . S
C2183 H2206 0.950 . S
C2184 C2183 1.349 . S
C2184 C2196 1.349 . S
C2185 C2183 1.327 . S
C2185 C2201 1.429 . S
C2185 H2207 0.950 . S
C2186 H2182 0.949 . S
C2186 C2194 1.574 . S
C2186 C2202 1.368 . S
H2187 C2195 0.950 . S
H2188 C2193 0.950 . S
H2189 C2194 0.949 . S
H2190 C2196 0.950 . S
H2191 C2197 0.950 . S
H2192 C2198 0.949 . S
C2193 H2188 0.950 . S
C2193 C2195 1.327 . S
C2193 C2199 1.429 . S
C2194 C2186 1.574 . S
C2194 H2189 0.949 . S
C2194 C2200 1.368 . S
C2195 C2179 1.349 . S
C2195 H2187 0.950 . S
C2195 C2193 1.327 . S
C2196 C2184 1.349 . S
C2196 H2190 0.950 . S
C2196 C2197 1.327 . S
C2197 H2191 0.950 . S
C2197 C2196 1.327 . S
C2197 C2201 1.429 . S
C2198 C2181 1.574 . S
C2198 H2192 0.949 . S
C2198 C2202 1.368 . S
C2199 C2180 1.429 . S
C2199 C2193 1.429 . S
C2199 C2200 1.523 . S
C2200 C2181 1.368 . S
C2200 C2194 1.368 . S
C2200 C2199 1.523 . S
C2201 C2185 1.429 . S
C2201 C2197 1.429 . S
C2201 C2202 1.523 . S
C2202 C2186 1.368 . S
C2202 C2198 1.368 . S
C2202 C2201 1.523 . S
H2203 C2178 0.950 . S
H2204 C2180 0.950 . S
H2205 C2181 0.949 . S
H2206 C2183 0.950 . S
H2207 C2185 0.950 . S
C2208 C2209 1.349 . S
C2208 C2210 1.327 . S
C2208 H2233 0.950 . S
C2209 C2208 1.349 . S
C2209 C2225 1.349 . S
C2210 C2208 1.327 . S
C2210 C2229 1.429 . S
C2210 H2234 0.950 . S
C2211 C2228 1.574 . S
C2211 C2230 1.368 . S
C2211 H2235 0.949 . S
H2212 C2216 0.949 . S
C2213 C2214 1.349 . S
C2213 C2215 1.327 . S
C2213 H2236 0.950 . S
C2214 C2213 1.349 . S
C2214 C2226 1.349 . S
C2215 C2213 1.327 . S
C2215 C2231 1.429 . S
C2215 H2237 0.950 . S
C2216 H2212 0.949 . S
C2216 C2224 1.574 . S
C2216 C2232 1.368 . S
H2217 C2225 0.950 . S
H2218 C2223 0.950 . S
H2219 C2224 0.949 . S
H2220 C2226 0.950 . S
H2221 C2227 0.950 . S
H2222 C2228 0.949 . S
C2223 H2218 0.950 . S
C2223 C2225 1.327 . S
C2223 C2229 1.429 . S
C2224 C2216 1.574 . S
C2224 H2219 0.949 . S
C2224 C2230 1.368 . S
C2225 C2209 1.349 . S
C2225 H2217 0.950 . S
C2225 C2223 1.327 . S
C2226 C2214 1.349 . S
C2226 H2220 0.950 . S
C2226 C2227 1.327 . S
C2227 H2221 0.950 . S
C2227 C2226 1.327 . S
C2227 C2231 1.429 . S
C2228 C2211 1.574 . S
C2228 H2222 0.949 . S
C2228 C2232 1.368 . S
C2229 C2210 1.429 . S
C2229 C2223 1.429 . S
C2229 C2230 1.523 . S
C2230 C2211 1.368 . S
C2230 C2224 1.368 . S
C2230 C2229 1.523 . S
C2231 C2215 1.429 . S
C2231 C2227 1.429 . S
C2231 C2232 1.523 . S
C2232 C2216 1.368 . S
C2232 C2228 1.368 . S
C2232 C2231 1.523 . S
H2233 C2208 0.950 . S
H2234 C2210 0.950 . S
H2235 C2211 0.949 . S
H2236 C2213 0.950 . S
H2237 C2215 0.950 . S
C2238 C2239 1.349 . S
C2238 C2240 1.327 . S
C2238 H2263 0.950 . S
C2239 C2238 1.349 . S
C2239 C2255 1.349 . S
C2240 C2238 1.327 . S
C2240 C2259 1.429 . S
C2240 H2264 0.950 . S
C2241 C2258 1.574 . S
C2241 C2260 1.368 . S
C2241 H2265 0.949 . S
H2242 C2246 0.949 . S
C2243 C2244 1.349 . S
C2243 C2245 1.327 . S
C2243 H2266 0.950 . S
C2244 C2243 1.349 . S
C2244 C2256 1.349 . S
C2245 C2243 1.327 . S
C2245 C2261 1.429 . S
C2245 H2267 0.950 . S
C2246 H2242 0.949 . S
C2246 C2254 1.574 . S
C2246 C2262 1.368 . S
H2247 C2255 0.950 . S
H2248 C2253 0.950 . S
H2249 C2254 0.949 . S
H2250 C2256 0.950 . S
H2251 C2257 0.950 . S
H2252 C2258 0.949 . S
C2253 H2248 0.950 . S
C2253 C2255 1.327 . S
C2253 C2259 1.429 . S
C2254 C2246 1.574 . S
C2254 H2249 0.949 . S
C2254 C2260 1.368 . S
C2255 C2239 1.349 . S
C2255 H2247 0.950 . S
C2255 C2253 1.327 . S
C2256 C2244 1.349 . S
C2256 H2250 0.950 . S
C2256 C2257 1.327 . S
C2257 H2251 0.950 . S
C2257 C2256 1.327 . S
C2257 C2261 1.429 . S
C2258 C2241 1.574 . S
C2258 H2252 0.949 . S
C2258 C2262 1.368 . S
C2259 C2240 1.429 . S
C2259 C2253 1.429 . S
C2259 C2260 1.523 . S
C2260 C2241 1.368 . S
C2260 C2254 1.368 . S
C2260 C2259 1.523 . S
C2261 C2245 1.429 . S
C2261 C2257 1.429 . S
C2261 C2262 1.523 . S
C2262 C2246 1.368 . S
C2262 C2258 1.368 . S
C2262 C2261 1.523 . S
H2263 C2238 0.950 . S
H2264 C2240 0.950 . S
H2265 C2241 0.949 . S
H2266 C2243 0.950 . S
H2267 C2245 0.950 . S
C2268 C2269 1.349 . S
C2268 C2270 1.327 . S
C2268 H2293 0.950 . S
C2269 C2268 1.349 . S
C2269 C2285 1.349 1_655 S
C2270 C2268 1.327 . S
C2270 C2289 1.429 . S
C2270 H2294 0.950 . S
C2271 C2288 1.574 . S
C2271 C2290 1.368 1_455 S
C2271 H2295 0.949 . S
H2272 C2276 0.949 . S
C2273 C2274 1.349 . S
C2273 C2275 1.327 . S
C2273 H2296 0.950 . S
C2274 C2273 1.349 . S
C2274 C2286 1.349 1_455 S
C2275 C2273 1.327 . S
C2275 C2291 1.429 . S
C2275 H2297 0.950 . S
C2276 H2272 0.949 . S
C2276 C2284 1.574 . S
C2276 C2292 1.347 1_655 S
H2277 C2285 0.950 . S
H2278 C2283 0.950 . S
H2279 C2284 0.949 . S
H2280 C2286 0.950 . S
H2281 C2287 0.950 . S
H2282 C2288 0.949 . S
C2283 H2278 0.950 . S
C2283 C2285 1.327 . S
C2283 C2289 1.429 1_455 S
C2284 C2276 1.574 . S
C2284 H2279 0.949 . S
C2284 C2290 1.368 . S
C2285 C2269 1.349 1_455 S
C2285 H2277 0.950 . S
C2285 C2283 1.327 . S
C2286 C2274 1.349 1_655 S
C2286 H2280 0.950 . S
C2286 C2287 1.327 . S
C2287 H2281 0.950 . S
C2287 C2286 1.327 . S
C2287 C2291 1.429 1_655 S
C2288 C2271 1.574 . S
C2288 H2282 0.949 . S
C2288 C2292 1.389 . S
C2289 C2270 1.429 . S
C2289 C2283 1.429 1_655 S
C2289 C2290 1.523 . S
C2290 C2271 1.368 1_655 S
C2290 C2284 1.368 . S
C2290 C2289 1.523 . S
C2291 C2275 1.429 . S
C2291 C2287 1.429 1_455 S
C2291 C2292 1.525 . S
C2292 C2276 1.347 1_455 S
C2292 C2288 1.389 . S
C2292 C2291 1.525 . S
H2293 C2268 0.950 . S
H2294 C2270 0.950 . S
H2295 C2271 0.949 . S
H2296 C2273 0.950 . S
H2297 C2275 0.950 . S
C2298 C2299 1.349 . S
C2298 C2300 1.327 . S
C2298 H2323 0.950 . S
C2299 C2298 1.349 . S
C2299 C2315 1.349 . S
C2300 C2298 1.327 . S
C2300 C2319 1.429 . S
C2300 H2324 0.950 . S
C2301 C2318 1.574 . S
C2301 C2320 1.368 . S
C2301 H2325 0.949 . S
H2302 C2306 0.949 . S
C2303 C2304 1.349 . S
C2303 C2305 1.327 . S
C2303 H2326 0.950 . S
C2304 C2303 1.349 . S
C2304 C2316 1.349 . S
C2305 C2303 1.327 . S
C2305 C2321 1.429 . S
C2305 H2327 0.950 . S
C2306 H2302 0.949 . S
C2306 C2314 1.574 . S
C2306 C2322 1.368 . S
H2307 C2315 0.950 . S
H2308 C2313 0.950 . S
H2309 C2314 0.949 . S
H2310 C2316 0.950 . S
H2311 C2317 0.950 . S
H2312 C2318 0.949 . S
C2313 H2308 0.950 . S
C2313 C2315 1.327 . S
C2313 C2319 1.429 . S
C2314 C2306 1.574 . S
C2314 H2309 0.949 . S
C2314 C2320 1.368 . S
C2315 C2299 1.349 . S
C2315 H2307 0.950 . S
C2315 C2313 1.327 . S
C2316 C2304 1.349 . S
C2316 H2310 0.950 . S
C2316 C2317 1.327 . S
C2317 H2311 0.950 . S
C2317 C2316 1.327 . S
C2317 C2321 1.429 . S
C2318 C2301 1.574 . S
C2318 H2312 0.949 . S
C2318 C2322 1.368 . S
C2319 C2300 1.429 . S
C2319 C2313 1.429 . S
C2319 C2320 1.523 . S
C2320 C2301 1.368 . S
C2320 C2314 1.368 . S
C2320 C2319 1.523 . S
C2321 C2305 1.429 . S
C2321 C2317 1.429 . S
C2321 C2322 1.523 . S
C2322 C2306 1.368 . S
C2322 C2318 1.368 . S
C2322 C2321 1.523 . S
H2323 C2298 0.950 . S
H2324 C2300 0.950 . S
H2325 C2301 0.949 . S
H2326 C2303 0.950 . S
H2327 C2305 0.950 . S
C2328 C2329 1.349 . S
C2328 C2330 1.327 . S
C2328 H2353 0.950 . S
C2329 C2328 1.349 . S
C2329 C2345 1.349 1_565 S
C2330 C2328 1.327 . S
C2330 C2349 1.429 . S
C2330 H2354 0.950 . S
C2331 C2348 1.574 . S
C2331 C2350 1.368 1_545 S
C2331 H2355 0.949 . S
H2332 C2336 0.949 . S
C2333 C2334 1.349 . S
C2333 C2335 1.327 . S
C2333 H2356 0.950 . S
C2334 C2333 1.349 . S
C2334 C2346 1.349 1_545 S
C2335 C2333 1.327 . S
C2335 C2351 1.429 . S
C2335 H2357 0.950 . S
C2336 H2332 0.949 . S
C2336 C2344 1.574 . S
C2336 C2352 1.332 1_565 S
H2337 C2345 0.950 . S
H2338 C2343 0.950 . S
H2339 C2344 0.949 . S
H2340 C2346 0.950 . S
H2341 C2347 0.950 . S
H2342 C2348 0.949 . S
C2343 H2338 0.950 . S
C2343 C2345 1.327 . S
C2343 C2349 1.429 1_545 S
C2344 C2336 1.574 . S
C2344 H2339 0.949 . S
C2344 C2350 1.368 . S
C2345 C2329 1.349 1_545 S
C2345 H2337 0.950 . S
C2345 C2343 1.327 . S
C2346 C2334 1.349 1_565 S
C2346 H2340 0.950 . S
C2346 C2347 1.327 . S
C2347 H2341 0.950 . S
C2347 C2346 1.327 . S
C2347 C2351 1.429 1_565 S
C2348 C2331 1.574 . S
C2348 H2342 0.949 . S
C2348 C2352 1.404 . S
C2349 C2330 1.429 . S
C2349 C2343 1.429 1_565 S
C2349 C2350 1.523 . S
C2350 C2331 1.368 1_565 S
C2350 C2344 1.368 . S
C2350 C2349 1.523 . S
C2351 C2335 1.429 . S
C2351 C2347 1.429 1_545 S
C2351 C2352 1.525 . S
C2352 C2336 1.332 1_545 S
C2352 C2348 1.404 . S
C2352 C2351 1.525 . S
H2353 C2328 0.950 . S
H2354 C2330 0.950 . S
H2355 C2331 0.949 . S
H2356 C2333 0.950 . S
H2357 C2335 0.950 . S
C2358 C2359 1.349 . S
C2358 C2360 1.327 . S
C2358 H2383 0.950 . S
C2359 C2358 1.349 . S
C2359 C2375 1.349 . S
C2360 C2358 1.327 . S
C2360 C2379 1.429 . S
C2360 H2384 0.950 . S
C2361 C2378 1.574 . S
C2361 C2380 1.368 1_655 S
C2361 H2385 0.949 . S
H2362 C2366 0.949 . S
C2363 C2364 1.349 . S
C2363 C2365 1.327 . S
C2363 H2386 0.950 . S
C2364 C2363 1.349 . S
C2364 C2376 1.349 . S
C2365 C2363 1.327 . S
C2365 C2381 1.429 . S
C2365 H2387 0.950 . S
C2366 H2362 0.949 . S
C2366 C2374 1.574 . S
C2366 C2382 1.347 1_455 S
H2367 C2375 0.963 . S
H2368 C2373 0.932 1_655 S
H2369 C2374 0.949 . S
H2370 C2376 0.952 . S
H2371 C2377 0.944 1_455 S
H2372 C2378 0.949 . S
C2373 H2368 0.932 1_455 S
C2373 C2375 1.329 . S
C2373 C2379 1.445 . S
C2374 C2366 1.574 . S
C2374 H2369 0.949 . S
C2374 C2380 1.368 . S
C2375 C2359 1.349 . S
C2375 H2367 0.963 . S
C2375 C2373 1.329 . S
C2376 C2364 1.349 . S
C2376 H2370 0.952 . S
C2376 C2377 1.328 . S
C2377 H2371 0.944 1_655 S
C2377 C2376 1.328 . S
C2377 C2381 1.433 . S
C2378 C2361 1.574 . S
C2378 H2372 0.949 . S
C2378 C2382 1.389 . S
C2379 C2360 1.429 . S
C2379 C2373 1.445 . S
C2379 C2380 1.523 . S
C2380 C2361 1.368 1_455 S
C2380 C2374 1.368 . S
C2380 C2379 1.523 . S
C2381 C2365 1.429 . S
C2381 C2377 1.433 . S
C2381 C2382 1.525 . S
C2382 C2366 1.347 1_655 S
C2382 C2378 1.389 . S
C2382 C2381 1.525 . S
H2383 C2358 0.950 . S
H2384 C2360 0.950 . S
H2385 C2361 0.949 . S
H2386 C2363 0.950 . S
H2387 C2365 0.950 . S
C2388 C2389 1.349 . S
C2388 C2390 1.327 . S
C2388 H2413 0.950 . S
C2389 C2388 1.349 . S
C2389 C2405 1.349 . S
C2390 C2388 1.327 . S
C2390 C2409 1.429 . S
C2390 H2414 0.950 . S
C2391 C2408 1.574 . S
C2391 C2410 1.368 . S
C2391 H2415 0.949 . S
H2392 C2396 0.949 . S
C2393 C2394 1.349 . S
C2393 C2395 1.327 . S
C2393 H2416 0.950 . S
C2394 C2393 1.349 . S
C2394 C2406 1.349 . S
C2395 C2393 1.327 . S
C2395 C2411 1.429 . S
C2395 H2417 0.950 . S
C2396 H2392 0.949 . S
C2396 C2404 1.574 . S
C2396 C2412 1.368 . S
H2397 C2405 0.950 . S
H2398 C2403 0.950 . S
H2399 C2404 0.949 . S
H2400 C2406 0.950 . S
H2401 C2407 0.950 . S
H2402 C2408 0.949 . S
C2403 H2398 0.950 . S
C2403 C2405 1.327 . S
C2403 C2409 1.429 . S
C2404 C2396 1.574 . S
C2404 H2399 0.949 . S
C2404 C2410 1.368 . S
C2405 C2389 1.349 . S
C2405 H2397 0.950 . S
C2405 C2403 1.327 . S
C2406 C2394 1.349 . S
C2406 H2400 0.950 . S
C2406 C2407 1.327 . S
C2407 H2401 0.950 . S
C2407 C2406 1.327 . S
C2407 C2411 1.429 . S
C2408 C2391 1.574 . S
C2408 H2402 0.949 . S
C2408 C2412 1.368 . S
C2409 C2390 1.429 . S
C2409 C2403 1.429 . S
C2409 C2410 1.523 . S
C2410 C2391 1.368 . S
C2410 C2404 1.368 . S
C2410 C2409 1.523 . S
C2411 C2395 1.429 . S
C2411 C2407 1.429 . S
C2411 C2412 1.523 . S
C2412 C2396 1.368 . S
C2412 C2408 1.368 . S
C2412 C2411 1.523 . S
H2413 C2388 0.950 . S
H2414 C2390 0.950 . S
H2415 C2391 0.949 . S
H2416 C2393 0.950 . S
H2417 C2395 0.950 . S
C2418 C2419 1.349 1_565 S
C2418 C2420 1.327 . S
C2418 H2443 0.950 . S
C2419 C2418 1.349 1_545 S
C2419 C2435 1.349 . S
C2420 C2418 1.327 . S
C2420 C2439 1.429 1_565 S
C2420 H2444 0.950 . S
C2421 C2438 1.574 . S
C2421 C2440 1.368 . S
C2421 H2445 0.949 . S
H2422 C2426 0.949 . S
C2423 C2424 1.349 1_545 S
C2423 C2425 1.327 . S
C2423 H2446 0.950 . S
C2424 C2423 1.349 1_565 S
C2424 C2436 1.349 . S
C2425 C2423 1.327 . S
C2425 C2441 1.429 1_545 S
C2425 H2447 0.950 . S
C2426 H2422 0.949 . S
C2426 C2434 1.574 . S
C2426 C2442 1.383 . S
H2427 C2435 0.950 . S
H2428 C2433 0.950 . S
H2429 C2434 0.949 . S
H2430 C2436 0.950 . S
H2431 C2437 0.950 . S
H2432 C2438 0.949 . S
C2433 H2428 0.950 . S
C2433 C2435 1.327 . S
C2433 C2439 1.429 . S
C2434 C2426 1.574 . S
C2434 H2429 0.949 . S
C2434 C2440 1.368 1_565 S
C2435 C2419 1.349 . S
C2435 H2427 0.950 . S
C2435 C2433 1.327 . S
C2436 C2424 1.349 . S
C2436 H2430 0.950 . S
C2436 C2437 1.327 . S
C2437 H2431 0.950 . S
C2437 C2436 1.327 . S
C2437 C2441 1.429 . S
C2438 C2421 1.574 . S
C2438 H2432 0.949 . S
C2438 C2442 1.353 1_545 S
C2439 C2420 1.429 1_545 S
C2439 C2433 1.429 . S
C2439 C2440 1.523 . S
C2440 C2421 1.368 . S
C2440 C2434 1.368 1_545 S
C2440 C2439 1.523 . S
C2441 C2425 1.429 1_565 S
C2441 C2437 1.429 . S
C2441 C2442 1.525 . S
C2442 C2426 1.383 . S
C2442 C2438 1.353 1_565 S
C2442 C2441 1.525 . S
H2443 C2418 0.950 . S
H2444 C2420 0.950 . S
H2445 C2421 0.949 . S
H2446 C2423 0.950 . S
H2447 C2425 0.950 . S
C2448 C2449 1.349 . S
C2448 C2450 1.327 . S
C2448 H2473 0.950 . S
C2449 C2448 1.349 . S
C2449 C2465 1.349 . S
C2450 C2448 1.327 . S
C2450 C2469 1.429 . S
C2450 H2474 0.950 . S
C2451 C2468 1.574 . S
C2451 C2470 1.368 . S
C2451 H2475 0.949 . S
H2452 C2456 0.949 . S
C2453 C2454 1.349 . S
C2453 C2455 1.327 . S
C2453 H2476 0.950 . S
C2454 C2453 1.349 . S
C2454 C2466 1.349 . S
C2455 C2453 1.327 . S
C2455 C2471 1.429 . S
C2455 H2477 0.950 . S
C2456 H2452 0.949 . S
C2456 C2464 1.574 . S
C2456 C2472 1.368 . S
H2457 C2465 0.950 . S
H2458 C2463 0.950 . S
H2459 C2464 0.949 . S
H2460 C2466 0.950 . S
H2461 C2467 0.950 . S
H2462 C2468 0.949 . S
C2463 H2458 0.950 . S
C2463 C2465 1.327 . S
C2463 C2469 1.429 . S
C2464 C2456 1.574 . S
C2464 H2459 0.949 . S
C2464 C2470 1.368 . S
C2465 C2449 1.349 . S
C2465 H2457 0.950 . S
C2465 C2463 1.327 . S
C2466 C2454 1.349 . S
C2466 H2460 0.950 . S
C2466 C2467 1.327 . S
C2467 H2461 0.950 . S
C2467 C2466 1.327 . S
C2467 C2471 1.429 . S
C2468 C2451 1.574 . S
C2468 H2462 0.949 . S
C2468 C2472 1.368 . S
C2469 C2450 1.429 . S
C2469 C2463 1.429 . S
C2469 C2470 1.523 . S
C2470 C2451 1.368 . S
C2470 C2464 1.368 . S
C2470 C2469 1.523 . S
C2471 C2455 1.429 . S
C2471 C2467 1.429 . S
C2471 C2472 1.523 . S
C2472 C2456 1.368 . S
C2472 C2468 1.368 . S
C2472 C2471 1.523 . S
H2473 C2448 0.950 . S
H2474 C2450 0.950 . S
H2475 C2451 0.949 . S
H2476 C2453 0.950 . S
H2477 C2455 0.950 . S
C2478 C2479 1.349 . S
C2478 C2480 1.327 . S
C2478 H2503 0.950 . S
C2479 C2478 1.349 . S
C2479 C2495 1.349 . S
C2480 C2478 1.327 . S
C2480 C2499 1.429 . S
C2480 H2504 0.950 . S
C2481 C2498 1.574 . S
C2481 C2500 1.368 . S
C2481 H2505 0.949 . S
H2482 C2486 0.949 . S
C2483 C2484 1.349 . S
C2483 C2485 1.327 . S
C2483 H2506 0.950 . S
C2484 C2483 1.349 . S
C2484 C2496 1.349 . S
C2485 C2483 1.327 . S
C2485 C2501 1.429 . S
C2485 H2507 0.950 . S
C2486 H2482 0.949 . S
C2486 C2494 1.574 . S
C2486 C2502 1.368 . S
H2487 C2495 0.950 . S
H2488 C2493 0.950 . S
H2489 C2494 0.949 . S
H2490 C2496 0.950 . S
H2491 C2497 0.950 . S
H2492 C2498 0.949 . S
C2493 H2488 0.950 . S
C2493 C2495 1.327 . S
C2493 C2499 1.429 . S
C2494 C2486 1.574 . S
C2494 H2489 0.949 . S
C2494 C2500 1.368 . S
C2495 C2479 1.349 . S
C2495 H2487 0.950 . S
C2495 C2493 1.327 . S
C2496 C2484 1.349 . S
C2496 H2490 0.950 . S
C2496 C2497 1.327 . S
C2497 H2491 0.950 . S
C2497 C2496 1.327 . S
C2497 C2501 1.429 . S
C2498 C2481 1.574 . S
C2498 H2492 0.949 . S
C2498 C2502 1.368 . S
C2499 C2480 1.429 . S
C2499 C2493 1.429 . S
C2499 C2500 1.523 . S
C2500 C2481 1.368 . S
C2500 C2494 1.368 . S
C2500 C2499 1.523 . S
C2501 C2485 1.429 . S
C2501 C2497 1.429 . S
C2501 C2502 1.523 . S
C2502 C2486 1.368 . S
C2502 C2498 1.368 . S
C2502 C2501 1.523 . S
H2503 C2478 0.950 . S
H2504 C2480 0.950 . S
H2505 C2481 0.949 . S
H2506 C2483 0.950 . S
H2507 C2485 0.950 . S
C2508 C2509 1.349 . S
C2508 C2510 1.327 . S
C2508 H2533 0.950 . S
C2509 C2508 1.349 . S
C2509 C2525 1.349 . S
C2510 C2508 1.327 . S
C2510 C2529 1.429 . S
C2510 H2534 0.950 . S
C2511 C2528 1.574 . S
C2511 C2530 1.368 . S
C2511 H2535 0.949 . S
H2512 C2516 0.949 . S
C2513 C2514 1.349 . S
C2513 C2515 1.327 . S
C2513 H2536 0.950 . S
C2514 C2513 1.349 . S
C2514 C2526 1.349 . S
C2515 C2513 1.327 . S
C2515 C2531 1.429 . S
C2515 H2537 0.950 . S
C2516 H2512 0.949 . S
C2516 C2524 1.574 . S
C2516 C2532 1.368 . S
H2517 C2525 0.950 . S
H2518 C2523 0.950 . S
H2519 C2524 0.949 . S
H2520 C2526 0.950 . S
H2521 C2527 0.950 . S
H2522 C2528 0.949 . S
C2523 H2518 0.950 . S
C2523 C2525 1.327 . S
C2523 C2529 1.429 . S
C2524 C2516 1.574 . S
C2524 H2519 0.949 . S
C2524 C2530 1.368 . S
C2525 C2509 1.349 . S
C2525 H2517 0.950 . S
C2525 C2523 1.327 . S
C2526 C2514 1.349 . S
C2526 H2520 0.950 . S
C2526 C2527 1.327 . S
C2527 H2521 0.950 . S
C2527 C2526 1.327 . S
C2527 C2531 1.429 . S
C2528 C2511 1.574 . S
C2528 H2522 0.949 . S
C2528 C2532 1.368 . S
C2529 C2510 1.429 . S
C2529 C2523 1.429 . S
C2529 C2530 1.523 . S
C2530 C2511 1.368 . S
C2530 C2524 1.368 . S
C2530 C2529 1.523 . S
C2531 C2515 1.429 . S
C2531 C2527 1.429 . S
C2531 C2532 1.523 . S
C2532 C2516 1.368 . S
C2532 C2528 1.368 . S
C2532 C2531 1.523 . S
H2533 C2508 0.950 . S
H2534 C2510 0.950 . S
H2535 C2511 0.949 . S
H2536 C2513 0.950 . S
H2537 C2515 0.950 . S
C2538 C2539 1.349 . S
C2538 C2540 1.327 . S
C2538 H2563 0.950 . S
C2539 C2538 1.349 . S
C2539 C2555 1.349 . S
C2540 C2538 1.327 . S
C2540 C2559 1.429 . S
C2540 H2564 0.950 . S
C2541 C2558 1.574 . S
C2541 C2560 1.368 . S
C2541 H2565 0.949 . S
H2542 C2546 0.949 . S
C2543 C2544 1.349 . S
C2543 C2545 1.327 . S
C2543 H2566 0.950 . S
C2544 C2543 1.349 . S
C2544 C2556 1.349 . S
C2545 C2543 1.327 . S
C2545 C2561 1.429 . S
C2545 H2567 0.950 . S
C2546 H2542 0.949 . S
C2546 C2554 1.574 . S
C2546 C2562 1.368 . S
H2547 C2555 0.950 . S
H2548 C2553 0.950 . S
H2549 C2554 0.949 . S
H2550 C2556 0.950 . S
H2551 C2557 0.950 . S
H2552 C2558 0.949 . S
C2553 H2548 0.950 . S
C2553 C2555 1.327 . S
C2553 C2559 1.429 . S
C2554 C2546 1.574 . S
C2554 H2549 0.949 . S
C2554 C2560 1.368 . S
C2555 C2539 1.349 . S
C2555 H2547 0.950 . S
C2555 C2553 1.327 . S
C2556 C2544 1.349 . S
C2556 H2550 0.950 . S
C2556 C2557 1.327 . S
C2557 H2551 0.950 . S
C2557 C2556 1.327 . S
C2557 C2561 1.429 . S
C2558 C2541 1.574 . S
C2558 H2552 0.949 . S
C2558 C2562 1.368 . S
C2559 C2540 1.429 . S
C2559 C2553 1.429 . S
C2559 C2560 1.523 . S
C2560 C2541 1.368 . S
C2560 C2554 1.368 . S
C2560 C2559 1.523 . S
C2561 C2545 1.429 . S
C2561 C2557 1.429 . S
C2561 C2562 1.523 . S
C2562 C2546 1.368 . S
C2562 C2558 1.368 . S
C2562 C2561 1.523 . S
H2563 C2538 0.950 . S
H2564 C2540 0.950 . S
H2565 C2541 0.949 . S
H2566 C2543 0.950 . S
H2567 C2545 0.950 . S
C2568 C2569 1.349 . S
C2568 C2570 1.327 . S
C2568 H2593 0.950 . S
C2569 C2568 1.349 . S
C2569 C2585 1.349 . S
C2570 C2568 1.327 . S
C2570 C2589 1.429 . S
C2570 H2594 0.950 . S
C2571 C2588 1.574 . S
C2571 C2590 1.368 . S
C2571 H2595 0.949 . S
H2572 C2576 0.949 . S
C2573 C2574 1.349 . S
C2573 C2575 1.327 . S
C2573 H2596 0.950 . S
C2574 C2573 1.349 . S
C2574 C2586 1.349 . S
C2575 C2573 1.327 . S
C2575 C2591 1.429 . S
C2575 H2597 0.950 . S
C2576 H2572 0.949 . S
C2576 C2584 1.574 . S
C2576 C2592 1.368 . S
H2577 C2585 0.950 . S
H2578 C2583 0.950 . S
H2579 C2584 0.949 . S
H2580 C2586 0.950 . S
H2581 C2587 0.950 . S
H2582 C2588 0.949 . S
C2583 H2578 0.950 . S
C2583 C2585 1.327 . S
C2583 C2589 1.429 . S
C2584 C2576 1.574 . S
C2584 H2579 0.949 . S
C2584 C2590 1.368 . S
C2585 C2569 1.349 . S
C2585 H2577 0.950 . S
C2585 C2583 1.327 . S
C2586 C2574 1.349 . S
C2586 H2580 0.950 . S
C2586 C2587 1.327 . S
C2587 H2581 0.950 . S
C2587 C2586 1.327 . S
C2587 C2591 1.429 . S
C2588 C2571 1.574 . S
C2588 H2582 0.949 . S
C2588 C2592 1.368 . S
C2589 C2570 1.429 . S
C2589 C2583 1.429 . S
C2589 C2590 1.523 . S
C2590 C2571 1.368 . S
C2590 C2584 1.368 . S
C2590 C2589 1.523 . S
C2591 C2575 1.429 . S
C2591 C2587 1.429 . S
C2591 C2592 1.523 . S
C2592 C2576 1.368 . S
C2592 C2588 1.368 . S
C2592 C2591 1.523 . S
H2593 C2568 0.950 . S
H2594 C2570 0.950 . S
H2595 C2571 0.949 . S
H2596 C2573 0.950 . S
H2597 C2575 0.950 . S
C2598 C2599 1.349 . S
C2598 C2600 1.327 . S
C2598 H2623 0.950 . S
C2599 C2598 1.349 . S
C2599 C2615 1.349 . S
C2600 C2598 1.327 . S
C2600 C2619 1.429 . S
C2600 H2624 0.950 . S
C2601 C2618 1.574 . S
C2601 C2620 1.368 . S
C2601 H2625 0.949 . S
H2602 C2606 0.949 . S
C2603 C2604 1.349 . S
C2603 C2605 1.327 . S
C2603 H2626 0.950 . S
C2604 C2603 1.349 . S
C2604 C2616 1.349 . S
C2605 C2603 1.327 . S
C2605 C2621 1.429 . S
C2605 H2627 0.950 . S
C2606 H2602 0.949 . S
C2606 C2614 1.574 . S
C2606 C2622 1.368 . S
H2607 C2615 0.950 . S
H2608 C2613 0.950 . S
H2609 C2614 0.949 . S
H2610 C2616 0.950 . S
H2611 C2617 0.950 . S
H2612 C2618 0.949 . S
C2613 H2608 0.950 . S
C2613 C2615 1.327 . S
C2613 C2619 1.429 . S
C2614 C2606 1.574 . S
C2614 H2609 0.949 . S
C2614 C2620 1.368 . S
C2615 C2599 1.349 . S
C2615 H2607 0.950 . S
C2615 C2613 1.327 . S
C2616 C2604 1.349 . S
C2616 H2610 0.950 . S
C2616 C2617 1.327 . S
C2617 H2611 0.950 . S
C2617 C2616 1.327 . S
C2617 C2621 1.429 . S
C2618 C2601 1.574 . S
C2618 H2612 0.949 . S
C2618 C2622 1.368 . S
C2619 C2600 1.429 . S
C2619 C2613 1.429 . S
C2619 C2620 1.523 . S
C2620 C2601 1.368 . S
C2620 C2614 1.368 . S
C2620 C2619 1.523 . S
C2621 C2605 1.429 . S
C2621 C2617 1.429 . S
C2621 C2622 1.523 . S
C2622 C2606 1.368 . S
C2622 C2618 1.368 . S
C2622 C2621 1.523 . S
H2623 C2598 0.950 . S
H2624 C2600 0.950 . S
H2625 C2601 0.949 . S
H2626 C2603 0.950 . S
H2627 C2605 0.950 . S
C2628 C2629 1.349 . S
C2628 C2630 1.327 . S
C2628 H2653 0.950 . S
C2629 C2628 1.349 . S
C2629 C2645 1.349 . S
C2630 C2628 1.327 . S
C2630 C2649 1.429 . S
C2630 H2654 0.950 . S
C2631 C2648 1.574 . S
C2631 C2650 1.368 . S
C2631 H2655 0.949 . S
H2632 C2636 0.949 . S
C2633 C2634 1.349 . S
C2633 C2635 1.327 . S
C2633 H2656 0.950 . S
C2634 C2633 1.349 . S
C2634 C2646 1.349 . S
C2635 C2633 1.327 . S
C2635 C2651 1.429 . S
C2635 H2657 0.950 . S
C2636 H2632 0.949 . S
C2636 C2644 1.574 . S
C2636 C2652 1.368 . S
H2637 C2645 0.950 . S
H2638 C2643 0.950 . S
H2639 C2644 0.949 . S
H2640 C2646 0.950 . S
H2641 C2647 0.950 . S
H2642 C2648 0.949 . S
C2643 H2638 0.950 . S
C2643 C2645 1.327 . S
C2643 C2649 1.429 . S
C2644 C2636 1.574 . S
C2644 H2639 0.949 . S
C2644 C2650 1.368 . S
C2645 C2629 1.349 . S
C2645 H2637 0.950 . S
C2645 C2643 1.327 . S
C2646 C2634 1.349 . S
C2646 H2640 0.950 . S
C2646 C2647 1.327 . S
C2647 H2641 0.950 . S
C2647 C2646 1.327 . S
C2647 C2651 1.429 . S
C2648 C2631 1.574 . S
C2648 H2642 0.949 . S
C2648 C2652 1.368 . S
C2649 C2630 1.429 . S
C2649 C2643 1.429 . S
C2649 C2650 1.523 . S
C2650 C2631 1.368 . S
C2650 C2644 1.368 . S
C2650 C2649 1.523 . S
C2651 C2635 1.429 . S
C2651 C2647 1.429 . S
C2651 C2652 1.523 . S
C2652 C2636 1.368 . S
C2652 C2648 1.368 . S
C2652 C2651 1.523 . S
H2653 C2628 0.950 . S
H2654 C2630 0.950 . S
H2655 C2631 0.949 . S
H2656 C2633 0.950 . S
H2657 C2635 0.950 . S
C2658 C2659 1.349 . S
C2658 C2660 1.327 . S
C2658 H2683 0.950 . S
C2659 C2658 1.349 . S
C2659 C2675 1.349 . S
C2660 C2658 1.327 . S
C2660 C2679 1.429 . S
C2660 H2684 0.950 . S
C2661 C2678 1.574 . S
C2661 C2680 1.368 . S
C2661 H2685 0.949 . S
H2662 C2666 0.949 . S
C2663 C2664 1.349 . S
C2663 C2665 1.327 . S
C2663 H2686 0.950 . S
C2664 C2663 1.349 . S
C2664 C2676 1.349 . S
C2665 C2663 1.327 . S
C2665 C2681 1.429 . S
C2665 H2687 0.950 . S
C2666 H2662 0.949 . S
C2666 C2674 1.574 . S
C2666 C2682 1.368 . S
H2667 C2675 0.950 . S
H2668 C2673 0.950 . S
H2669 C2674 0.949 . S
H2670 C2676 0.950 . S
H2671 C2677 0.950 . S
H2672 C2678 0.949 . S
C2673 H2668 0.950 . S
C2673 C2675 1.327 . S
C2673 C2679 1.429 . S
C2674 C2666 1.574 . S
C2674 H2669 0.949 . S
C2674 C2680 1.368 . S
C2675 C2659 1.349 . S
C2675 H2667 0.950 . S
C2675 C2673 1.327 . S
C2676 C2664 1.349 . S
C2676 H2670 0.950 . S
C2676 C2677 1.327 . S
C2677 H2671 0.950 . S
C2677 C2676 1.327 . S
C2677 C2681 1.429 . S
C2678 C2661 1.574 . S
C2678 H2672 0.949 . S
C2678 C2682 1.368 . S
C2679 C2660 1.429 . S
C2679 C2673 1.429 . S
C2679 C2680 1.523 . S
C2680 C2661 1.368 . S
C2680 C2674 1.368 . S
C2680 C2679 1.523 . S
C2681 C2665 1.429 . S
C2681 C2677 1.429 . S
C2681 C2682 1.523 . S
C2682 C2666 1.368 . S
C2682 C2678 1.368 . S
C2682 C2681 1.523 . S
H2683 C2658 0.950 . S
H2684 C2660 0.950 . S
H2685 C2661 0.949 . S
H2686 C2663 0.950 . S
H2687 C2665 0.950 . S
C2688 C2689 1.349 . S
C2688 C2690 1.327 . S
C2688 H2713 0.950 . S
C2689 C2688 1.349 . S
C2689 C2705 1.349 . S
C2690 C2688 1.327 . S
C2690 C2709 1.429 . S
C2690 H2714 0.950 . S
C2691 C2708 1.574 . S
C2691 C2710 1.368 . S
C2691 H2715 0.949 . S
H2692 C2696 0.949 . S
C2693 C2694 1.349 . S
C2693 C2695 1.327 . S
C2693 H2716 0.950 . S
C2694 C2693 1.349 . S
C2694 C2706 1.349 . S
C2695 C2693 1.327 . S
C2695 C2711 1.429 . S
C2695 H2717 0.950 . S
C2696 H2692 0.949 . S
C2696 C2704 1.574 . S
C2696 C2712 1.368 . S
H2697 C2705 0.950 . S
H2698 C2703 0.950 . S
H2699 C2704 0.949 . S
H2700 C2706 0.950 . S
H2701 C2707 0.950 . S
H2702 C2708 0.949 . S
C2703 H2698 0.950 . S
C2703 C2705 1.327 . S
C2703 C2709 1.429 . S
C2704 C2696 1.574 . S
C2704 H2699 0.949 . S
C2704 C2710 1.368 . S
C2705 C2689 1.349 . S
C2705 H2697 0.950 . S
C2705 C2703 1.327 . S
C2706 C2694 1.349 . S
C2706 H2700 0.950 . S
C2706 C2707 1.327 . S
C2707 H2701 0.950 . S
C2707 C2706 1.327 . S
C2707 C2711 1.429 . S
C2708 C2691 1.574 . S
C2708 H2702 0.949 . S
C2708 C2712 1.368 . S
C2709 C2690 1.429 . S
C2709 C2703 1.429 . S
C2709 C2710 1.523 . S
C2710 C2691 1.368 . S
C2710 C2704 1.368 . S
C2710 C2709 1.523 . S
C2711 C2695 1.429 . S
C2711 C2707 1.429 . S
C2711 C2712 1.523 . S
C2712 C2696 1.368 . S
C2712 C2708 1.368 . S
C2712 C2711 1.523 . S
H2713 C2688 0.950 . S
H2714 C2690 0.950 . S
H2715 C2691 0.949 . S
H2716 C2693 0.950 . S
H2717 C2695 0.950 . S
C2718 C2719 1.349 . S
C2718 C2720 1.327 . S
C2718 H2743 0.950 . S
C2719 C2718 1.349 . S
C2719 C2735 1.349 . S
C2720 C2718 1.327 . S
C2720 C2739 1.429 . S
C2720 H2744 0.950 . S
C2721 C2738 1.574 . S
C2721 C2740 1.368 . S
C2721 H2745 0.949 . S
H2722 C2726 0.949 . S
C2723 C2724 1.349 . S
C2723 C2725 1.327 . S
C2723 H2746 0.950 . S
C2724 C2723 1.349 . S
C2724 C2736 1.349 . S
C2725 C2723 1.327 . S
C2725 C2741 1.429 . S
C2725 H2747 0.950 . S
C2726 H2722 0.949 . S
C2726 C2734 1.574 . S
C2726 C2742 1.368 . S
H2727 C2735 0.950 . S
H2728 C2733 0.950 . S
H2729 C2734 0.949 . S
H2730 C2736 0.950 . S
H2731 C2737 0.950 . S
H2732 C2738 0.949 . S
C2733 H2728 0.950 . S
C2733 C2735 1.327 . S
C2733 C2739 1.429 . S
C2734 C2726 1.574 . S
C2734 H2729 0.949 . S
C2734 C2740 1.368 . S
C2735 C2719 1.349 . S
C2735 H2727 0.950 . S
C2735 C2733 1.327 . S
C2736 C2724 1.349 . S
C2736 H2730 0.950 . S
C2736 C2737 1.327 . S
C2737 H2731 0.950 . S
C2737 C2736 1.327 . S
C2737 C2741 1.429 . S
C2738 C2721 1.574 . S
C2738 H2732 0.949 . S
C2738 C2742 1.368 . S
C2739 C2720 1.429 . S
C2739 C2733 1.429 . S
C2739 C2740 1.523 . S
C2740 C2721 1.368 . S
C2740 C2734 1.368 . S
C2740 C2739 1.523 . S
C2741 C2725 1.429 . S
C2741 C2737 1.429 . S
C2741 C2742 1.523 . S
C2742 C2726 1.368 . S
C2742 C2738 1.368 . S
C2742 C2741 1.523 . S
H2743 C2718 0.950 . S
H2744 C2720 0.950 . S
H2745 C2721 0.949 . S
H2746 C2723 0.950 . S
H2747 C2725 0.950 . S
C2748 C2749 1.349 . S
C2748 C2750 1.327 . S
C2748 H2773 0.950 . S
C2749 C2748 1.349 . S
C2749 C2765 1.349 . S
C2750 C2748 1.327 . S
C2750 C2769 1.429 . S
C2750 H2774 0.950 . S
C2751 C2768 1.574 . S
C2751 C2770 1.368 . S
C2751 H2775 0.949 . S
H2752 C2756 0.949 . S
C2753 C2754 1.349 . S
C2753 C2755 1.327 . S
C2753 H2776 0.950 . S
C2754 C2753 1.349 . S
C2754 C2766 1.349 . S
C2755 C2753 1.327 . S
C2755 C2771 1.429 . S
C2755 H2777 0.950 . S
C2756 H2752 0.949 . S
C2756 C2764 1.574 . S
C2756 C2772 1.368 . S
H2757 C2765 0.950 . S
H2758 C2763 0.950 . S
H2759 C2764 0.949 . S
H2760 C2766 0.950 . S
H2761 C2767 0.950 . S
H2762 C2768 0.949 . S
C2763 H2758 0.950 . S
C2763 C2765 1.327 . S
C2763 C2769 1.429 . S
C2764 C2756 1.574 . S
C2764 H2759 0.949 . S
C2764 C2770 1.368 . S
C2765 C2749 1.349 . S
C2765 H2757 0.950 . S
C2765 C2763 1.327 . S
C2766 C2754 1.349 . S
C2766 H2760 0.950 . S
C2766 C2767 1.327 . S
C2767 H2761 0.950 . S
C2767 C2766 1.327 . S
C2767 C2771 1.429 . S
C2768 C2751 1.574 . S
C2768 H2762 0.949 . S
C2768 C2772 1.368 . S
C2769 C2750 1.429 . S
C2769 C2763 1.429 . S
C2769 C2770 1.523 . S
C2770 C2751 1.368 . S
C2770 C2764 1.368 . S
C2770 C2769 1.523 . S
C2771 C2755 1.429 . S
C2771 C2767 1.429 . S
C2771 C2772 1.523 . S
C2772 C2756 1.368 . S
C2772 C2768 1.368 . S
C2772 C2771 1.523 . S
H2773 C2748 0.950 . S
H2774 C2750 0.950 . S
H2775 C2751 0.949 . S
H2776 C2753 0.950 . S
H2777 C2755 0.950 . S
C2778 C2779 1.349 . S
C2778 C2780 1.327 . S
C2778 H2803 0.950 . S
C2779 C2778 1.349 . S
C2779 C2795 1.349 . S
C2780 C2778 1.327 . S
C2780 C2799 1.429 . S
C2780 H2804 0.950 . S
C2781 C2798 1.574 . S
C2781 C2800 1.368 . S
C2781 H2805 0.949 . S
H2782 C2786 0.949 . S
C2783 C2784 1.349 . S
C2783 C2785 1.327 . S
C2783 H2806 0.950 . S
C2784 C2783 1.349 . S
C2784 C2796 1.349 . S
C2785 C2783 1.327 . S
C2785 C2801 1.429 . S
C2785 H2807 0.950 . S
C2786 H2782 0.949 . S
C2786 C2794 1.574 . S
C2786 C2802 1.368 . S
H2787 C2795 0.950 . S
H2788 C2793 0.950 . S
H2789 C2794 0.949 . S
H2790 C2796 0.950 . S
H2791 C2797 0.950 . S
H2792 C2798 0.949 . S
C2793 H2788 0.950 . S
C2793 C2795 1.327 . S
C2793 C2799 1.429 . S
C2794 C2786 1.574 . S
C2794 H2789 0.949 . S
C2794 C2800 1.368 . S
C2795 C2779 1.349 . S
C2795 H2787 0.950 . S
C2795 C2793 1.327 . S
C2796 C2784 1.349 . S
C2796 H2790 0.950 . S
C2796 C2797 1.327 . S
C2797 H2791 0.950 . S
C2797 C2796 1.327 . S
C2797 C2801 1.429 . S
C2798 C2781 1.574 . S
C2798 H2792 0.949 . S
C2798 C2802 1.368 . S
C2799 C2780 1.429 . S
C2799 C2793 1.429 . S
C2799 C2800 1.523 . S
C2800 C2781 1.368 . S
C2800 C2794 1.368 . S
C2800 C2799 1.523 . S
C2801 C2785 1.429 . S
C2801 C2797 1.429 . S
C2801 C2802 1.523 . S
C2802 C2786 1.368 . S
C2802 C2798 1.368 . S
C2802 C2801 1.523 . S
H2803 C2778 0.950 . S
H2804 C2780 0.950 . S
H2805 C2781 0.949 . S
H2806 C2783 0.950 . S
H2807 C2785 0.950 . S
C2808 C2809 1.349 . S
C2808 C2810 1.327 . S
C2808 H2833 0.950 . S
C2809 C2808 1.349 . S
C2809 C2825 1.349 . S
C2810 C2808 1.327 . S
C2810 C2829 1.429 . S
C2810 H2834 0.950 . S
C2811 C2828 1.574 . S
C2811 C2830 1.368 . S
C2811 H2835 0.949 . S
H2812 C2816 0.949 . S
C2813 C2814 1.349 . S
C2813 C2815 1.327 . S
C2813 H2836 0.950 . S
C2814 C2813 1.349 . S
C2814 C2826 1.349 . S
C2815 C2813 1.327 . S
C2815 C2831 1.429 . S
C2815 H2837 0.950 . S
C2816 H2812 0.949 . S
C2816 C2824 1.574 . S
C2816 C2832 1.368 . S
H2817 C2825 0.950 . S
H2818 C2823 0.950 . S
H2819 C2824 0.949 . S
H2820 C2826 0.950 . S
H2821 C2827 0.950 . S
H2822 C2828 0.949 . S
C2823 H2818 0.950 . S
C2823 C2825 1.327 . S
C2823 C2829 1.429 . S
C2824 C2816 1.574 . S
C2824 H2819 0.949 . S
C2824 C2830 1.368 . S
C2825 C2809 1.349 . S
C2825 H2817 0.950 . S
C2825 C2823 1.327 . S
C2826 C2814 1.349 . S
C2826 H2820 0.950 . S
C2826 C2827 1.327 . S
C2827 H2821 0.950 . S
C2827 C2826 1.327 . S
C2827 C2831 1.429 . S
C2828 C2811 1.574 . S
C2828 H2822 0.949 . S
C2828 C2832 1.368 . S
C2829 C2810 1.429 . S
C2829 C2823 1.429 . S
C2829 C2830 1.523 . S
C2830 C2811 1.368 . S
C2830 C2824 1.368 . S
C2830 C2829 1.523 . S
C2831 C2815 1.429 . S
C2831 C2827 1.429 . S
C2831 C2832 1.523 . S
C2832 C2816 1.368 . S
C2832 C2828 1.368 . S
C2832 C2831 1.523 . S
H2833 C2808 0.950 . S
H2834 C2810 0.950 . S
H2835 C2811 0.949 . S
H2836 C2813 0.950 . S
H2837 C2815 0.950 . S
C2838 C2839 1.349 . S
C2838 C2840 1.327 . S
C2838 H2863 0.950 . S
C2839 C2838 1.349 . S
C2839 C2855 1.349 . S
C2840 C2838 1.327 . S
C2840 C2859 1.429 . S
C2840 H2864 0.950 . S
C2841 C2858 1.574 . S
C2841 C2860 1.368 . S
C2841 H2865 0.949 . S
H2842 C2846 0.949 . S
C2843 C2844 1.349 . S
C2843 C2845 1.327 . S
C2843 H2866 0.950 . S
C2844 C2843 1.349 . S
C2844 C2856 1.349 . S
C2845 C2843 1.327 . S
C2845 C2861 1.429 . S
C2845 H2867 0.950 . S
C2846 H2842 0.949 . S
C2846 C2854 1.574 . S
C2846 C2862 1.368 . S
H2847 C2855 0.950 . S
H2848 C2853 0.950 . S
H2849 C2854 0.949 . S
H2850 C2856 0.950 . S
H2851 C2857 0.950 . S
H2852 C2858 0.949 . S
C2853 H2848 0.950 . S
C2853 C2855 1.327 . S
C2853 C2859 1.429 . S
C2854 C2846 1.574 . S
C2854 H2849 0.949 . S
C2854 C2860 1.368 . S
C2855 C2839 1.349 . S
C2855 H2847 0.950 . S
C2855 C2853 1.327 . S
C2856 C2844 1.349 . S
C2856 H2850 0.950 . S
C2856 C2857 1.327 . S
C2857 H2851 0.950 . S
C2857 C2856 1.327 . S
C2857 C2861 1.429 . S
C2858 C2841 1.574 . S
C2858 H2852 0.949 . S
C2858 C2862 1.368 . S
C2859 C2840 1.429 . S
C2859 C2853 1.429 . S
C2859 C2860 1.523 . S
C2860 C2841 1.368 . S
C2860 C2854 1.368 . S
C2860 C2859 1.523 . S
C2861 C2845 1.429 . S
C2861 C2857 1.429 . S
C2861 C2862 1.523 . S
C2862 C2846 1.368 . S
C2862 C2858 1.368 . S
C2862 C2861 1.523 . S
H2863 C2838 0.950 . S
H2864 C2840 0.950 . S
H2865 C2841 0.949 . S
H2866 C2843 0.950 . S
H2867 C2845 0.950 . S
C2868 C2869 1.349 . S
C2868 C2870 1.327 . S
C2868 H2893 0.950 . S
C2869 C2868 1.349 . S
C2869 C2885 1.349 . S
C2870 C2868 1.327 . S
C2870 C2889 1.429 . S
C2870 H2894 0.950 . S
C2871 C2888 1.574 . S
C2871 C2890 1.368 . S
C2871 H2895 0.949 . S
H2872 C2876 0.949 . S
C2873 C2874 1.349 . S
C2873 C2875 1.327 . S
C2873 H2896 0.950 . S
C2874 C2873 1.349 . S
C2874 C2886 1.349 . S
C2875 C2873 1.327 . S
C2875 C2891 1.429 . S
C2875 H2897 0.950 . S
C2876 H2872 0.949 . S
C2876 C2884 1.574 . S
C2876 C2892 1.368 . S
H2877 C2885 0.950 . S
H2878 C2883 0.950 . S
H2879 C2884 0.949 . S
H2880 C2886 0.950 . S
H2881 C2887 0.950 . S
H2882 C2888 0.949 . S
C2883 H2878 0.950 . S
C2883 C2885 1.327 . S
C2883 C2889 1.429 . S
C2884 C2876 1.574 . S
C2884 H2879 0.949 . S
C2884 C2890 1.368 . S
C2885 C2869 1.349 . S
C2885 H2877 0.950 . S
C2885 C2883 1.327 . S
C2886 C2874 1.349 . S
C2886 H2880 0.950 . S
C2886 C2887 1.327 . S
C2887 H2881 0.950 . S
C2887 C2886 1.327 . S
C2887 C2891 1.429 . S
C2888 C2871 1.574 . S
C2888 H2882 0.949 . S
C2888 C2892 1.368 . S
C2889 C2870 1.429 . S
C2889 C2883 1.429 . S
C2889 C2890 1.523 . S
C2890 C2871 1.368 . S
C2890 C2884 1.368 . S
C2890 C2889 1.523 . S
C2891 C2875 1.429 . S
C2891 C2887 1.429 . S
C2891 C2892 1.523 . S
C2892 C2876 1.368 . S
C2892 C2888 1.368 . S
C2892 C2891 1.523 . S
H2893 C2868 0.950 . S
H2894 C2870 0.950 . S
H2895 C2871 0.949 . S
H2896 C2873 0.950 . S
H2897 C2875 0.950 . S
C2898 C2899 1.349 . S
C2898 C2900 1.327 . S
C2898 H2923 0.950 . S
C2899 C2898 1.349 . S
C2899 C2915 1.349 . S
C2900 C2898 1.327 . S
C2900 C2919 1.429 . S
C2900 H2924 0.950 . S
C2901 C2918 1.574 . S
C2901 C2920 1.368 . S
C2901 H2925 0.949 . S
H2902 C2906 0.949 . S
C2903 C2904 1.349 . S
C2903 C2905 1.327 . S
C2903 H2926 0.950 . S
C2904 C2903 1.349 . S
C2904 C2916 1.349 . S
C2905 C2903 1.327 . S
C2905 C2921 1.429 . S
C2905 H2927 0.950 . S
C2906 H2902 0.949 . S
C2906 C2914 1.574 . S
C2906 C2922 1.368 . S
H2907 C2915 0.950 . S
H2908 C2913 0.950 . S
H2909 C2914 0.949 . S
H2910 C2916 0.950 . S
H2911 C2917 0.950 . S
H2912 C2918 0.949 . S
C2913 H2908 0.950 . S
C2913 C2915 1.327 . S
C2913 C2919 1.429 . S
C2914 C2906 1.574 . S
C2914 H2909 0.949 . S
C2914 C2920 1.368 . S
C2915 C2899 1.349 . S
C2915 H2907 0.950 . S
C2915 C2913 1.327 . S
C2916 C2904 1.349 . S
C2916 H2910 0.950 . S
C2916 C2917 1.327 . S
C2917 H2911 0.950 . S
C2917 C2916 1.327 . S
C2917 C2921 1.429 . S
C2918 C2901 1.574 . S
C2918 H2912 0.949 . S
C2918 C2922 1.368 . S
C2919 C2900 1.429 . S
C2919 C2913 1.429 . S
C2919 C2920 1.523 . S
C2920 C2901 1.368 . S
C2920 C2914 1.368 . S
C2920 C2919 1.523 . S
C2921 C2905 1.429 . S
C2921 C2917 1.429 . S
C2921 C2922 1.523 . S
C2922 C2906 1.368 . S
C2922 C2918 1.368 . S
C2922 C2921 1.523 . S
H2923 C2898 0.950 . S
H2924 C2900 0.950 . S
H2925 C2901 0.949 . S
H2926 C2903 0.950 . S
H2927 C2905 0.950 . S
C2928 C2929 1.349 . S
C2928 C2930 1.327 . S
C2928 H2953 0.950 . S
C2929 C2928 1.349 . S
C2929 C2945 1.349 . S
C2930 C2928 1.327 . S
C2930 C2949 1.429 . S
C2930 H2954 0.950 . S
C2931 C2948 1.574 . S
C2931 C2950 1.368 . S
C2931 H2955 0.949 . S
H2932 C2936 0.949 . S
C2933 C2934 1.349 . S
C2933 C2935 1.327 . S
C2933 H2956 0.950 . S
C2934 C2933 1.349 . S
C2934 C2946 1.349 . S
C2935 C2933 1.327 . S
C2935 C2951 1.429 . S
C2935 H2957 0.950 . S
C2936 H2932 0.949 . S
C2936 C2944 1.574 . S
C2936 C2952 1.368 . S
H2937 C2945 0.950 . S
H2938 C2943 0.950 . S
H2939 C2944 0.949 . S
H2940 C2946 0.950 . S
H2941 C2947 0.950 . S
H2942 C2948 0.949 . S
C2943 H2938 0.950 . S
C2943 C2945 1.327 . S
C2943 C2949 1.429 . S
C2944 C2936 1.574 . S
C2944 H2939 0.949 . S
C2944 C2950 1.368 . S
C2945 C2929 1.349 . S
C2945 H2937 0.950 . S
C2945 C2943 1.327 . S
C2946 C2934 1.349 . S
C2946 H2940 0.950 . S
C2946 C2947 1.327 . S
C2947 H2941 0.950 . S
C2947 C2946 1.327 . S
C2947 C2951 1.429 . S
C2948 C2931 1.574 . S
C2948 H2942 0.949 . S
C2948 C2952 1.368 . S
C2949 C2930 1.429 . S
C2949 C2943 1.429 . S
C2949 C2950 1.523 . S
C2950 C2931 1.368 . S
C2950 C2944 1.368 . S
C2950 C2949 1.523 . S
C2951 C2935 1.429 . S
C2951 C2947 1.429 . S
C2951 C2952 1.523 . S
C2952 C2936 1.368 . S
C2952 C2948 1.368 . S
C2952 C2951 1.523 . S
H2953 C2928 0.950 . S
H2954 C2930 0.950 . S
H2955 C2931 0.949 . S
H2956 C2933 0.950 . S
H2957 C2935 0.950 . S
C2958 C2959 1.349 . S
C2958 C2960 1.327 . S
C2958 H2983 0.950 . S
C2959 C2958 1.349 . S
C2959 C2975 1.349 . S
C2960 C2958 1.327 . S
C2960 C2979 1.429 . S
C2960 H2984 0.950 . S
C2961 C2978 1.574 . S
C2961 C2980 1.368 . S
C2961 H2985 0.949 . S
H2962 C2966 0.949 . S
C2963 C2964 1.349 . S
C2963 C2965 1.327 . S
C2963 H2986 0.950 . S
C2964 C2963 1.349 . S
C2964 C2976 1.349 . S
C2965 C2963 1.327 . S
C2965 C2981 1.429 . S
C2965 H2987 0.950 . S
C2966 H2962 0.949 . S
C2966 C2974 1.574 . S
C2966 C2982 1.368 . S
H2967 C2975 0.950 . S
H2968 C2973 0.950 . S
H2969 C2974 0.949 . S
H2970 C2976 0.950 . S
H2971 C2977 0.950 . S
H2972 C2978 0.949 . S
C2973 H2968 0.950 . S
C2973 C2975 1.327 . S
C2973 C2979 1.429 . S
C2974 C2966 1.574 . S
C2974 H2969 0.949 . S
C2974 C2980 1.368 . S
C2975 C2959 1.349 . S
C2975 H2967 0.950 . S
C2975 C2973 1.327 . S
C2976 C2964 1.349 . S
C2976 H2970 0.950 . S
C2976 C2977 1.327 . S
C2977 H2971 0.950 . S
C2977 C2976 1.327 . S
C2977 C2981 1.429 . S
C2978 C2961 1.574 . S
C2978 H2972 0.949 . S
C2978 C2982 1.368 . S
C2979 C2960 1.429 . S
C2979 C2973 1.429 . S
C2979 C2980 1.523 . S
C2980 C2961 1.368 . S
C2980 C2974 1.368 . S
C2980 C2979 1.523 . S
C2981 C2965 1.429 . S
C2981 C2977 1.429 . S
C2981 C2982 1.523 . S
C2982 C2966 1.368 . S
C2982 C2978 1.368 . S
C2982 C2981 1.523 . S
H2983 C2958 0.950 . S
H2984 C2960 0.950 . S
H2985 C2961 0.949 . S
H2986 C2963 0.950 . S
H2987 C2965 0.950 . S
C2988 C2989 1.349 . S
C2988 C2990 1.327 . S
C2988 H3013 0.950 . S
C2989 C2988 1.349 . S
C2989 C3005 1.349 . S
C2990 C2988 1.327 . S
C2990 C3009 1.429 . S
C2990 H3014 0.950 . S
C2991 C3008 1.574 . S
C2991 C3010 1.368 . S
C2991 H3015 0.949 . S
H2992 C2996 0.949 . S
C2993 C2994 1.349 . S
C2993 C2995 1.327 . S
C2993 H3016 0.950 . S
C2994 C2993 1.349 . S
C2994 C3006 1.349 . S
C2995 C2993 1.327 . S
C2995 C3011 1.429 . S
C2995 H3017 0.950 . S
C2996 H2992 0.949 . S
C2996 C3004 1.574 . S
C2996 C3012 1.368 . S
H2997 C3005 0.950 . S
H2998 C3003 0.950 . S
H2999 C3004 0.949 . S
H3000 C3006 0.950 . S
H3001 C3007 0.950 . S
H3002 C3008 0.949 . S
C3003 H2998 0.950 . S
C3003 C3005 1.327 . S
C3003 C3009 1.429 . S
C3004 C2996 1.574 . S
C3004 H2999 0.949 . S
C3004 C3010 1.368 . S
C3005 C2989 1.349 . S
C3005 H2997 0.950 . S
C3005 C3003 1.327 . S
C3006 C2994 1.349 . S
C3006 H3000 0.950 . S
C3006 C3007 1.327 . S
C3007 H3001 0.950 . S
C3007 C3006 1.327 . S
C3007 C3011 1.429 . S
C3008 C2991 1.574 . S
C3008 H3002 0.949 . S
C3008 C3012 1.368 . S
C3009 C2990 1.429 . S
C3009 C3003 1.429 . S
C3009 C3010 1.523 . S
C3010 C2991 1.368 . S
C3010 C3004 1.368 . S
C3010 C3009 1.523 . S
C3011 C2995 1.429 . S
C3011 C3007 1.429 . S
C3011 C3012 1.523 . S
C3012 C2996 1.368 . S
C3012 C3008 1.368 . S
C3012 C3011 1.523 . S
H3013 C2988 0.950 . S
H3014 C2990 0.950 . S
H3015 C2991 0.949 . S
H3016 C2993 0.950 . S
H3017 C2995 0.950 . S
C3018 C3019 1.349 . S
C3018 C3020 1.327 . S
C3018 H3043 0.950 . S
C3019 C3018 1.349 . S
C3019 C3035 1.349 . S
C3020 C3018 1.327 . S
C3020 C3039 1.429 . S
C3020 H3044 0.950 . S
C3021 C3038 1.574 . S
C3021 C3040 1.368 . S
C3021 H3045 0.949 . S
H3022 C3026 0.949 . S
C3023 C3024 1.349 . S
C3023 C3025 1.327 . S
C3023 H3046 0.950 . S
C3024 C3023 1.349 . S
C3024 C3036 1.349 . S
C3025 C3023 1.327 . S
C3025 C3041 1.429 . S
C3025 H3047 0.950 . S
C3026 H3022 0.949 . S
C3026 C3034 1.574 . S
C3026 C3042 1.368 . S
H3027 C3035 0.950 . S
H3028 C3033 0.950 . S
H3029 C3034 0.949 . S
H3030 C3036 0.950 . S
H3031 C3037 0.950 . S
H3032 C3038 0.949 . S
C3033 H3028 0.950 . S
C3033 C3035 1.327 . S
C3033 C3039 1.429 . S
C3034 C3026 1.574 . S
C3034 H3029 0.949 . S
C3034 C3040 1.368 . S
C3035 C3019 1.349 . S
C3035 H3027 0.950 . S
C3035 C3033 1.327 . S
C3036 C3024 1.349 . S
C3036 H3030 0.950 . S
C3036 C3037 1.327 . S
C3037 H3031 0.950 . S
C3037 C3036 1.327 . S
C3037 C3041 1.429 . S
C3038 C3021 1.574 . S
C3038 H3032 0.949 . S
C3038 C3042 1.368 . S
C3039 C3020 1.429 . S
C3039 C3033 1.429 . S
C3039 C3040 1.523 . S
C3040 C3021 1.368 . S
C3040 C3034 1.368 . S
C3040 C3039 1.523 . S
C3041 C3025 1.429 . S
C3041 C3037 1.429 . S
C3041 C3042 1.523 . S
C3042 C3026 1.368 . S
C3042 C3038 1.368 . S
C3042 C3041 1.523 . S
H3043 C3018 0.950 . S
H3044 C3020 0.950 . S
H3045 C3021 0.949 . S
H3046 C3023 0.950 . S
H3047 C3025 0.950 . S
C3048 C3049 1.349 . S
C3048 C3050 1.327 . S
C3048 H3073 0.950 . S
C3049 C3048 1.349 . S
C3049 C3065 1.349 . S
C3050 C3048 1.327 . S
C3050 C3069 1.429 . S
C3050 H3074 0.950 . S
C3051 C3068 1.574 . S
C3051 C3070 1.368 . S
C3051 H3075 0.949 . S
H3052 C3056 0.949 . S
C3053 C3054 1.349 . S
C3053 C3055 1.327 . S
C3053 H3076 0.950 . S
C3054 C3053 1.349 . S
C3054 C3066 1.349 . S
C3055 C3053 1.327 . S
C3055 C3071 1.429 . S
C3055 H3077 0.950 . S
C3056 H3052 0.949 . S
C3056 C3064 1.574 . S
C3056 C3072 1.368 . S
H3057 C3065 0.950 . S
H3058 C3063 0.950 . S
H3059 C3064 0.949 . S
H3060 C3066 0.950 . S
H3061 C3067 0.950 . S
H3062 C3068 0.949 . S
C3063 H3058 0.950 . S
C3063 C3065 1.327 . S
C3063 C3069 1.429 . S
C3064 C3056 1.574 . S
C3064 H3059 0.949 . S
C3064 C3070 1.368 . S
C3065 C3049 1.349 . S
C3065 H3057 0.950 . S
C3065 C3063 1.327 . S
C3066 C3054 1.349 . S
C3066 H3060 0.950 . S
C3066 C3067 1.327 . S
C3067 H3061 0.950 . S
C3067 C3066 1.327 . S
C3067 C3071 1.429 . S
C3068 C3051 1.574 . S
C3068 H3062 0.949 . S
C3068 C3072 1.368 . S
C3069 C3050 1.429 . S
C3069 C3063 1.429 . S
C3069 C3070 1.523 . S
C3070 C3051 1.368 . S
C3070 C3064 1.368 . S
C3070 C3069 1.523 . S
C3071 C3055 1.429 . S
C3071 C3067 1.429 . S
C3071 C3072 1.523 . S
C3072 C3056 1.368 . S
C3072 C3068 1.368 . S
C3072 C3071 1.523 . S
H3073 C3048 0.950 . S
H3074 C3050 0.950 . S
H3075 C3051 0.949 . S
H3076 C3053 0.950 . S
H3077 C3055 0.950 . S
C3078 C3079 1.349 . S
C3078 C3080 1.327 . S
C3078 H3103 0.950 . S
C3079 C3078 1.349 . S
C3079 C3095 1.349 . S
C3080 C3078 1.327 . S
C3080 C3099 1.429 . S
C3080 H3104 0.950 . S
C3081 C3098 1.574 . S
C3081 C3100 1.368 . S
C3081 H3105 0.949 . S
H3082 C3086 0.949 . S
C3083 C3084 1.349 . S
C3083 C3085 1.327 . S
C3083 H3106 0.950 . S
C3084 C3083 1.349 . S
C3084 C3096 1.349 . S
C3085 C3083 1.327 . S
C3085 C3101 1.429 . S
C3085 H3107 0.950 . S
C3086 H3082 0.949 . S
C3086 C3094 1.574 . S
C3086 C3102 1.368 . S
H3087 C3095 0.950 . S
H3088 C3093 0.950 . S
H3089 C3094 0.949 . S
H3090 C3096 0.950 . S
H3091 C3097 0.950 . S
H3092 C3098 0.949 . S
C3093 H3088 0.950 . S
C3093 C3095 1.327 . S
C3093 C3099 1.429 . S
C3094 C3086 1.574 . S
C3094 H3089 0.949 . S
C3094 C3100 1.368 . S
C3095 C3079 1.349 . S
C3095 H3087 0.950 . S
C3095 C3093 1.327 . S
C3096 C3084 1.349 . S
C3096 H3090 0.950 . S
C3096 C3097 1.327 . S
C3097 H3091 0.950 . S
C3097 C3096 1.327 . S
C3097 C3101 1.429 . S
C3098 C3081 1.574 . S
C3098 H3092 0.949 . S
C3098 C3102 1.368 . S
C3099 C3080 1.429 . S
C3099 C3093 1.429 . S
C3099 C3100 1.523 . S
C3100 C3081 1.368 . S
C3100 C3094 1.368 . S
C3100 C3099 1.523 . S
C3101 C3085 1.429 . S
C3101 C3097 1.429 . S
C3101 C3102 1.523 . S
C3102 C3086 1.368 . S
C3102 C3098 1.368 . S
C3102 C3101 1.523 . S
H3103 C3078 0.950 . S
H3104 C3080 0.950 . S
H3105 C3081 0.949 . S
H3106 C3083 0.950 . S
H3107 C3085 0.950 . S
C3108 C3109 1.349 . S
C3108 C3110 1.327 . S
C3108 H3133 0.950 . S
C3109 C3108 1.349 . S
C3109 C3125 1.349 . S
C3110 C3108 1.327 . S
C3110 C3129 1.429 . S
C3110 H3134 0.950 . S
C3111 C3128 1.574 . S
C3111 C3130 1.368 . S
C3111 H3135 0.949 . S
H3112 C3116 0.949 . S
C3113 C3114 1.349 . S
C3113 C3115 1.327 . S
C3113 H3136 0.950 . S
C3114 C3113 1.349 . S
C3114 C3126 1.349 . S
C3115 C3113 1.327 . S
C3115 C3131 1.429 . S
C3115 H3137 0.950 . S
C3116 H3112 0.949 . S
C3116 C3124 1.574 . S
C3116 C3132 1.368 . S
H3117 C3125 0.950 . S
H3118 C3123 0.950 . S
H3119 C3124 0.949 . S
H3120 C3126 0.950 . S
H3121 C3127 0.950 . S
H3122 C3128 0.949 . S
C3123 H3118 0.950 . S
C3123 C3125 1.327 . S
C3123 C3129 1.429 . S
C3124 C3116 1.574 . S
C3124 H3119 0.949 . S
C3124 C3130 1.368 . S
C3125 C3109 1.349 . S
C3125 H3117 0.950 . S
C3125 C3123 1.327 . S
C3126 C3114 1.349 . S
C3126 H3120 0.950 . S
C3126 C3127 1.327 . S
C3127 H3121 0.950 . S
C3127 C3126 1.327 . S
C3127 C3131 1.429 . S
C3128 C3111 1.574 . S
C3128 H3122 0.949 . S
C3128 C3132 1.368 . S
C3129 C3110 1.429 . S
C3129 C3123 1.429 . S
C3129 C3130 1.523 . S
C3130 C3111 1.368 . S
C3130 C3124 1.368 . S
C3130 C3129 1.523 . S
C3131 C3115 1.429 . S
C3131 C3127 1.429 . S
C3131 C3132 1.523 . S
C3132 C3116 1.368 . S
C3132 C3128 1.368 . S
C3132 C3131 1.523 . S
H3133 C3108 0.950 . S
H3134 C3110 0.950 . S
H3135 C3111 0.949 . S
H3136 C3113 0.950 . S
H3137 C3115 0.950 . S
C3138 C3139 1.349 . S
C3138 C3140 1.327 . S
C3138 H3163 0.950 . S
C3139 C3138 1.349 . S
C3139 C3155 1.349 . S
C3140 C3138 1.327 . S
C3140 C3159 1.429 . S
C3140 H3164 0.950 . S
C3141 C3158 1.574 . S
C3141 C3160 1.368 . S
C3141 H3165 0.949 . S
H3142 C3146 0.949 . S
C3143 C3144 1.349 . S
C3143 C3145 1.327 . S
C3143 H3166 0.950 . S
C3144 C3143 1.349 . S
C3144 C3156 1.349 . S
C3145 C3143 1.327 . S
C3145 C3161 1.429 . S
C3145 H3167 0.950 . S
C3146 H3142 0.949 . S
C3146 C3154 1.574 . S
C3146 C3162 1.368 . S
H3147 C3155 0.950 . S
H3148 C3153 0.950 . S
H3149 C3154 0.949 . S
H3150 C3156 0.950 . S
H3151 C3157 0.950 . S
H3152 C3158 0.949 . S
C3153 H3148 0.950 . S
C3153 C3155 1.327 . S
C3153 C3159 1.429 . S
C3154 C3146 1.574 . S
C3154 H3149 0.949 . S
C3154 C3160 1.368 . S
C3155 C3139 1.349 . S
C3155 H3147 0.950 . S
C3155 C3153 1.327 . S
C3156 C3144 1.349 . S
C3156 H3150 0.950 . S
C3156 C3157 1.327 . S
C3157 H3151 0.950 . S
C3157 C3156 1.327 . S
C3157 C3161 1.429 . S
C3158 C3141 1.574 . S
C3158 H3152 0.949 . S
C3158 C3162 1.368 . S
C3159 C3140 1.429 . S
C3159 C3153 1.429 . S
C3159 C3160 1.523 . S
C3160 C3141 1.368 . S
C3160 C3154 1.368 . S
C3160 C3159 1.523 . S
C3161 C3145 1.429 . S
C3161 C3157 1.429 . S
C3161 C3162 1.523 . S
C3162 C3146 1.368 . S
C3162 C3158 1.368 . S
C3162 C3161 1.523 . S
H3163 C3138 0.950 . S
H3164 C3140 0.950 . S
H3165 C3141 0.949 . S
H3166 C3143 0.950 . S
H3167 C3145 0.950 . S
C3168 C3169 1.349 . S
C3168 C3170 1.327 . S
C3168 H3193 0.950 . S
C3169 C3168 1.349 . S
C3169 C3185 1.349 . S
C3170 C3168 1.327 . S
C3170 C3189 1.429 . S
C3170 H3194 0.950 . S
C3171 C3188 1.574 1_455 S
C3171 C3190 1.368 . S
C3171 H3195 0.949 . S
H3172 C3176 0.949 . S
C3173 C3174 1.349 . S
C3173 C3175 1.327 . S
C3173 H3196 0.950 . S
C3174 C3173 1.349 . S
C3174 C3186 1.349 . S
C3175 C3173 1.327 . S
C3175 C3191 1.429 . S
C3175 H3197 0.950 . S
C3176 H3172 0.949 . S
C3176 C3184 1.574 1_655 S
C3176 C3192 1.368 . S
H3177 C3185 0.950 . S
H3178 C3183 0.950 . S
H3179 C3184 0.949 . S
H3180 C3186 0.950 . S
H3181 C3187 0.950 . S
H3182 C3188 0.949 . S
C3183 H3178 0.950 . S
C3183 C3185 1.327 . S
C3183 C3189 1.429 . S
C3184 C3176 1.574 1_455 S
C3184 H3179 0.949 . S
C3184 C3190 1.368 . S
C3185 C3169 1.349 . S
C3185 H3177 0.950 . S
C3185 C3183 1.327 . S
C3186 C3174 1.349 . S
C3186 H3180 0.950 . S
C3186 C3187 1.327 . S
C3187 H3181 0.950 . S
C3187 C3186 1.327 . S
C3187 C3191 1.429 . S
C3188 C3171 1.574 1_655 S
C3188 H3182 0.949 . S
C3188 C3192 1.368 . S
C3189 C3170 1.429 . S
C3189 C3183 1.429 . S
C3189 C3190 1.523 . S
C3190 C3171 1.368 . S
C3190 C3184 1.368 . S
C3190 C3189 1.523 . S
C3191 C3175 1.429 . S
C3191 C3187 1.429 . S
C3191 C3192 1.523 . S
C3192 C3176 1.368 . S
C3192 C3188 1.368 . S
C3192 C3191 1.523 . S
H3193 C3168 0.950 . S
H3194 C3170 0.950 . S
H3195 C3171 0.949 . S
H3196 C3173 0.950 . S
H3197 C3175 0.950 . S
C3198 C3199 1.349 . S
C3198 C3200 1.327 . S
C3198 H3223 0.950 . S
C3199 C3198 1.349 . S
C3199 C3215 1.349 . S
C3200 C3198 1.327 . S
C3200 C3219 1.429 . S
C3200 H3224 0.950 . S
C3201 C3218 1.574 . S
C3201 C3220 1.368 . S
C3201 H3225 0.949 . S
H3202 C3206 0.949 . S
C3203 C3204 1.349 . S
C3203 C3205 1.327 . S
C3203 H3226 0.950 . S
C3204 C3203 1.349 . S
C3204 C3216 1.349 . S
C3205 C3203 1.327 . S
C3205 C3221 1.429 . S
C3205 H3227 0.950 . S
C3206 H3202 0.949 . S
C3206 C3214 1.574 . S
C3206 C3222 1.368 . S
H3207 C3215 0.950 . S
H3208 C3213 0.950 . S
H3209 C3214 0.949 . S
H3210 C3216 0.950 . S
H3211 C3217 0.950 . S
H3212 C3218 0.949 . S
C3213 H3208 0.950 . S
C3213 C3215 1.327 . S
C3213 C3219 1.429 . S
C3214 C3206 1.574 . S
C3214 H3209 0.949 . S
C3214 C3220 1.368 . S
C3215 C3199 1.349 . S
C3215 H3207 0.950 . S
C3215 C3213 1.327 . S
C3216 C3204 1.349 . S
C3216 H3210 0.950 . S
C3216 C3217 1.327 . S
C3217 H3211 0.950 . S
C3217 C3216 1.327 . S
C3217 C3221 1.429 . S
C3218 C3201 1.574 . S
C3218 H3212 0.949 . S
C3218 C3222 1.368 . S
C3219 C3200 1.429 . S
C3219 C3213 1.429 . S
C3219 C3220 1.523 . S
C3220 C3201 1.368 . S
C3220 C3214 1.368 . S
C3220 C3219 1.523 . S
C3221 C3205 1.429 . S
C3221 C3217 1.429 . S
C3221 C3222 1.523 . S
C3222 C3206 1.368 . S
C3222 C3218 1.368 . S
C3222 C3221 1.523 . S
H3223 C3198 0.950 . S
H3224 C3200 0.950 . S
H3225 C3201 0.949 . S
H3226 C3203 0.950 . S
H3227 C3205 0.950 . S
C3228 C3229 1.349 . S
C3228 C3230 1.327 . S
C3228 H3253 0.950 . S
C3229 C3228 1.349 . S
C3229 C3245 1.349 . S
C3230 C3228 1.327 . S
C3230 C3249 1.429 . S
C3230 H3254 0.950 . S
C3231 C3248 1.574 1_565 S
C3231 C3250 1.368 . S
C3231 H3255 0.949 . S
H3232 C3236 0.949 . S
C3233 C3234 1.349 . S
C3233 C3235 1.327 . S
C3233 H3256 0.950 . S
C3234 C3233 1.349 . S
C3234 C3246 1.349 . S
C3235 C3233 1.327 . S
C3235 C3251 1.429 . S
C3235 H3257 0.950 . S
C3236 H3232 0.949 . S
C3236 C3244 1.574 1_545 S
C3236 C3252 1.368 . S
H3237 C3245 0.950 . S
H3238 C3243 0.950 . S
H3239 C3244 0.949 . S
H3240 C3246 0.950 . S
H3241 C3247 0.950 . S
H3242 C3248 0.949 . S
C3243 H3238 0.950 . S
C3243 C3245 1.327 . S
C3243 C3249 1.429 . S
C3244 C3236 1.574 1_565 S
C3244 H3239 0.949 . S
C3244 C3250 1.368 . S
C3245 C3229 1.349 . S
C3245 H3237 0.950 . S
C3245 C3243 1.327 . S
C3246 C3234 1.349 . S
C3246 H3240 0.950 . S
C3246 C3247 1.327 . S
C3247 H3241 0.950 . S
C3247 C3246 1.327 . S
C3247 C3251 1.429 . S
C3248 C3231 1.574 1_545 S
C3248 H3242 0.949 . S
C3248 C3252 1.368 . S
C3249 C3230 1.429 . S
C3249 C3243 1.429 . S
C3249 C3250 1.523 . S
C3250 C3231 1.368 . S
C3250 C3244 1.368 . S
C3250 C3249 1.523 . S
C3251 C3235 1.429 . S
C3251 C3247 1.429 . S
C3251 C3252 1.523 . S
C3252 C3236 1.368 . S
C3252 C3248 1.368 . S
C3252 C3251 1.523 . S
H3253 C3228 0.950 . S
H3254 C3230 0.950 . S
H3255 C3231 0.949 . S
H3256 C3233 0.950 . S
H3257 C3235 0.950 . S
C3258 C3259 1.349 . S
C3258 C3260 1.327 . S
C3258 H3283 0.950 . S
C3259 C3258 1.349 . S
C3259 C3275 1.349 . S
C3260 C3258 1.327 . S
C3260 C3279 1.429 . S
C3260 H3284 0.950 . S
C3261 C3278 1.574 1_545 S
C3261 C3280 1.368 . S
C3261 H3285 0.949 . S
H3262 C3266 0.949 . S
C3263 C3264 1.349 . S
C3263 C3265 1.327 . S
C3263 H3286 0.950 . S
C3264 C3263 1.349 . S
C3264 C3276 1.349 . S
C3265 C3263 1.327 . S
C3265 C3281 1.429 . S
C3265 H3287 0.950 . S
C3266 H3262 0.949 . S
C3266 C3274 1.574 1_565 S
C3266 C3282 1.368 . S
H3267 C3275 0.950 . S
H3268 C3273 0.950 . S
H3269 C3274 0.949 . S
H3270 C3276 0.950 . S
H3271 C3277 0.950 . S
H3272 C3278 0.949 . S
C3273 H3268 0.950 . S
C3273 C3275 1.327 . S
C3273 C3279 1.429 . S
C3274 C3266 1.574 1_545 S
C3274 H3269 0.949 . S
C3274 C3280 1.368 . S
C3275 C3259 1.349 . S
C3275 H3267 0.950 . S
C3275 C3273 1.327 . S
C3276 C3264 1.349 . S
C3276 H3270 0.950 . S
C3276 C3277 1.327 . S
C3277 H3271 0.950 . S
C3277 C3276 1.327 . S
C3277 C3281 1.429 . S
C3278 C3261 1.574 1_565 S
C3278 H3272 0.949 . S
C3278 C3282 1.368 . S
C3279 C3260 1.429 . S
C3279 C3273 1.429 . S
C3279 C3280 1.523 . S
C3280 C3261 1.368 . S
C3280 C3274 1.368 . S
C3280 C3279 1.523 . S
C3281 C3265 1.429 . S
C3281 C3277 1.429 . S
C3281 C3282 1.523 . S
C3282 C3266 1.368 . S
C3282 C3278 1.368 . S
C3282 C3281 1.523 . S
H3283 C3258 0.950 . S
H3284 C3260 0.950 . S
H3285 C3261 0.949 . S
H3286 C3263 0.950 . S
H3287 C3265 0.950 . S
C3288 C3289 1.349 . S
C3288 C3290 1.327 . S
C3288 H3313 0.950 . S
C3289 C3288 1.349 . S
C3289 C3305 1.349 . S
C3290 C3288 1.327 . S
C3290 C3309 1.429 . S
C3290 H3314 0.950 . S
C3291 C3308 1.574 1_655 S
C3291 C3310 1.368 . S
C3291 H3315 0.949 . S
H3292 C3296 0.949 . S
C3293 C3294 1.349 . S
C3293 C3295 1.327 . S
C3293 H3316 0.950 . S
C3294 C3293 1.349 . S
C3294 C3306 1.349 . S
C3295 C3293 1.327 . S
C3295 C3311 1.429 . S
C3295 H3317 0.950 . S
C3296 H3292 0.949 . S
C3296 C3304 1.574 1_455 S
C3296 C3312 1.368 . S
H3297 C3305 0.950 . S
H3298 C3303 0.950 . S
H3299 C3304 0.949 . S
H3300 C3306 0.950 . S
H3301 C3307 0.950 . S
H3302 C3308 0.949 . S
C3303 H3298 0.950 . S
C3303 C3305 1.327 . S
C3303 C3309 1.429 . S
C3304 C3296 1.574 1_655 S
C3304 H3299 0.949 . S
C3304 C3310 1.368 . S
C3305 C3289 1.349 . S
C3305 H3297 0.950 . S
C3305 C3303 1.327 . S
C3306 C3294 1.349 . S
C3306 H3300 0.950 . S
C3306 C3307 1.327 . S
C3307 H3301 0.950 . S
C3307 C3306 1.327 . S
C3307 C3311 1.429 . S
C3308 C3291 1.574 1_455 S
C3308 H3302 0.949 . S
C3308 C3312 1.368 . S
C3309 C3290 1.429 . S
C3309 C3303 1.429 . S
C3309 C3310 1.523 . S
C3310 C3291 1.368 . S
C3310 C3304 1.368 . S
C3310 C3309 1.523 . S
C3311 C3295 1.429 . S
C3311 C3307 1.429 . S
C3311 C3312 1.523 . S
C3312 C3296 1.368 . S
C3312 C3308 1.368 . S
C3312 C3311 1.523 . S
H3313 C3288 0.950 . S
H3314 C3290 0.950 . S
H3315 C3291 0.949 . S
H3316 C3293 0.950 . S
H3317 C3295 0.950 . S
C3318 C3319 1.349 . S
C3318 C3320 1.327 . S
C3318 H3343 0.950 . S
C3319 C3318 1.349 . S
C3319 C3335 1.349 . S
C3320 C3318 1.327 . S
C3320 C3339 1.429 . S
C3320 H3344 0.950 . S
C3321 C3338 1.574 . S
C3321 C3340 1.368 . S
C3321 H3345 0.949 . S
H3322 C3326 0.949 . S
C3323 C3324 1.349 . S
C3323 C3325 1.327 . S
C3323 H3346 0.950 . S
C3324 C3323 1.349 . S
C3324 C3336 1.349 . S
C3325 C3323 1.327 . S
C3325 C3341 1.429 . S
C3325 H3347 0.950 . S
C3326 H3322 0.949 . S
C3326 C3334 1.574 . S
C3326 C3342 1.368 . S
H3327 C3335 0.950 . S
H3328 C3333 0.950 . S
H3329 C3334 0.949 . S
H3330 C3336 0.950 . S
H3331 C3337 0.950 . S
H3332 C3338 0.949 . S
C3333 H3328 0.950 . S
C3333 C3335 1.327 . S
C3333 C3339 1.429 . S
C3334 C3326 1.574 . S
C3334 H3329 0.949 . S
C3334 C3340 1.368 . S
C3335 C3319 1.349 . S
C3335 H3327 0.950 . S
C3335 C3333 1.327 . S
C3336 C3324 1.349 . S
C3336 H3330 0.950 . S
C3336 C3337 1.327 . S
C3337 H3331 0.950 . S
C3337 C3336 1.327 . S
C3337 C3341 1.429 . S
C3338 C3321 1.574 . S
C3338 H3332 0.949 . S
C3338 C3342 1.368 . S
C3339 C3320 1.429 . S
C3339 C3333 1.429 . S
C3339 C3340 1.523 . S
C3340 C3321 1.368 . S
C3340 C3334 1.368 . S
C3340 C3339 1.523 . S
C3341 C3325 1.429 . S
C3341 C3337 1.429 . S
C3341 C3342 1.523 . S
C3342 C3326 1.368 . S
C3342 C3338 1.368 . S
C3342 C3341 1.523 . S
H3343 C3318 0.950 . S
H3344 C3320 0.950 . S
H3345 C3321 0.949 . S
H3346 C3323 0.950 . S
H3347 C3325 0.950 . S
C3348 C3349 1.349 . S
C3348 C3350 1.327 . S
C3348 H3373 0.950 . S
C3349 C3348 1.349 . S
C3349 C3365 1.349 . S
C3350 C3348 1.327 . S
C3350 C3369 1.429 . S
C3350 H3374 0.950 . S
C3351 C3368 1.574 . S
C3351 C3370 1.368 . S
C3351 H3375 0.949 . S
H3352 C3356 0.949 . S
C3353 C3354 1.349 . S
C3353 C3355 1.327 . S
C3353 H3376 0.950 . S
C3354 C3353 1.349 . S
C3354 C3366 1.349 . S
C3355 C3353 1.327 . S
C3355 C3371 1.429 . S
C3355 H3377 0.950 . S
C3356 H3352 0.949 . S
C3356 C3364 1.574 . S
C3356 C3372 1.368 . S
H3357 C3365 0.950 . S
H3358 C3363 0.950 . S
H3359 C3364 0.949 . S
H3360 C3366 0.950 . S
H3361 C3367 0.950 . S
H3362 C3368 0.949 . S
C3363 H3358 0.950 . S
C3363 C3365 1.327 . S
C3363 C3369 1.429 . S
C3364 C3356 1.574 . S
C3364 H3359 0.949 . S
C3364 C3370 1.368 . S
C3365 C3349 1.349 . S
C3365 H3357 0.950 . S
C3365 C3363 1.327 . S
C3366 C3354 1.349 . S
C3366 H3360 0.950 . S
C3366 C3367 1.327 . S
C3367 H3361 0.950 . S
C3367 C3366 1.327 . S
C3367 C3371 1.429 . S
C3368 C3351 1.574 . S
C3368 H3362 0.949 . S
C3368 C3372 1.368 . S
C3369 C3350 1.429 . S
C3369 C3363 1.429 . S
C3369 C3370 1.523 . S
C3370 C3351 1.368 . S
C3370 C3364 1.368 . S
C3370 C3369 1.523 . S
C3371 C3355 1.429 . S
C3371 C3367 1.429 . S
C3371 C3372 1.523 . S
C3372 C3356 1.368 . S
C3372 C3368 1.368 . S
C3372 C3371 1.523 . S
H3373 C3348 0.950 . S
H3374 C3350 0.950 . S
H3375 C3351 0.949 . S
H3376 C3353 0.950 . S
H3377 C3355 0.950 . S
C3378 C3379 1.349 . S
C3378 C3380 1.327 . S
C3378 H3403 0.950 . S
C3379 C3378 1.349 . S
C3379 C3395 1.349 . S
C3380 C3378 1.327 . S
C3380 C3399 1.429 . S
C3380 H3404 0.950 . S
C3381 C3398 1.574 . S
C3381 C3400 1.368 . S
C3381 H3405 0.949 . S
H3382 C3386 0.949 . S
C3383 C3384 1.349 . S
C3383 C3385 1.327 . S
C3383 H3406 0.950 . S
C3384 C3383 1.349 . S
C3384 C3396 1.349 . S
C3385 C3383 1.327 . S
C3385 C3401 1.429 . S
C3385 H3407 0.950 . S
C3386 H3382 0.949 . S
C3386 C3394 1.574 . S
C3386 C3402 1.368 . S
H3387 C3395 0.950 . S
H3388 C3393 0.950 . S
H3389 C3394 0.949 . S
H3390 C3396 0.950 . S
H3391 C3397 0.950 . S
H3392 C3398 0.949 . S
C3393 H3388 0.950 . S
C3393 C3395 1.327 . S
C3393 C3399 1.429 . S
C3394 C3386 1.574 . S
C3394 H3389 0.949 . S
C3394 C3400 1.368 . S
C3395 C3379 1.349 . S
C3395 H3387 0.950 . S
C3395 C3393 1.327 . S
C3396 C3384 1.349 . S
C3396 H3390 0.950 . S
C3396 C3397 1.327 . S
C3397 H3391 0.950 . S
C3397 C3396 1.327 . S
C3397 C3401 1.429 . S
C3398 C3381 1.574 . S
C3398 H3392 0.949 . S
C3398 C3402 1.368 . S
C3399 C3380 1.429 . S
C3399 C3393 1.429 . S
C3399 C3400 1.523 . S
C3400 C3381 1.368 . S
C3400 C3394 1.368 . S
C3400 C3399 1.523 . S
C3401 C3385 1.429 . S
C3401 C3397 1.429 . S
C3401 C3402 1.523 . S
C3402 C3386 1.368 . S
C3402 C3398 1.368 . S
C3402 C3401 1.523 . S
H3403 C3378 0.950 . S
H3404 C3380 0.950 . S
H3405 C3381 0.949 . S
H3406 C3383 0.950 . S
H3407 C3385 0.950 . S
C3408 C3409 1.349 . S
C3408 C3410 1.327 . S
C3408 H3433 0.950 . S
C3409 C3408 1.349 . S
C3409 C3425 1.349 . S
C3410 C3408 1.327 . S
C3410 C3429 1.429 . S
C3410 H3434 0.950 . S
C3411 C3428 1.574 . S
C3411 C3430 1.368 . S
C3411 H3435 0.949 . S
H3412 C3416 0.949 . S
C3413 C3414 1.349 . S
C3413 C3415 1.327 . S
C3413 H3436 0.950 . S
C3414 C3413 1.349 . S
C3414 C3426 1.349 . S
C3415 C3413 1.327 . S
C3415 C3431 1.429 . S
C3415 H3437 0.950 . S
C3416 H3412 0.949 . S
C3416 C3424 1.574 . S
C3416 C3432 1.368 . S
H3417 C3425 0.950 . S
H3418 C3423 0.950 . S
H3419 C3424 0.949 . S
H3420 C3426 0.950 . S
H3421 C3427 0.950 . S
H3422 C3428 0.949 . S
C3423 H3418 0.950 . S
C3423 C3425 1.327 . S
C3423 C3429 1.429 . S
C3424 C3416 1.574 . S
C3424 H3419 0.949 . S
C3424 C3430 1.368 . S
C3425 C3409 1.349 . S
C3425 H3417 0.950 . S
C3425 C3423 1.327 . S
C3426 C3414 1.349 . S
C3426 H3420 0.950 . S
C3426 C3427 1.327 . S
C3427 H3421 0.950 . S
C3427 C3426 1.327 . S
C3427 C3431 1.429 . S
C3428 C3411 1.574 . S
C3428 H3422 0.949 . S
C3428 C3432 1.368 . S
C3429 C3410 1.429 . S
C3429 C3423 1.429 . S
C3429 C3430 1.523 . S
C3430 C3411 1.368 . S
C3430 C3424 1.368 . S
C3430 C3429 1.523 . S
C3431 C3415 1.429 . S
C3431 C3427 1.429 . S
C3431 C3432 1.523 . S
C3432 C3416 1.368 . S
C3432 C3428 1.368 . S
C3432 C3431 1.523 . S
H3433 C3408 0.950 . S
H3434 C3410 0.950 . S
H3435 C3411 0.949 . S
H3436 C3413 0.950 . S
H3437 C3415 0.950 . S
C3438 C3439 1.349 . S
C3438 C3440 1.327 . S
C3438 H3463 0.950 . S
C3439 C3438 1.349 . S
C3439 C3455 1.349 . S
C3440 C3438 1.327 . S
C3440 C3459 1.429 . S
C3440 H3464 0.950 . S
C3441 C3458 1.574 . S
C3441 C3460 1.368 . S
C3441 H3465 0.949 . S
H3442 C3446 0.949 . S
C3443 C3444 1.349 . S
C3443 C3445 1.327 . S
C3443 H3466 0.950 . S
C3444 C3443 1.349 . S
C3444 C3456 1.349 . S
C3445 C3443 1.327 . S
C3445 C3461 1.429 . S
C3445 H3467 0.950 . S
C3446 H3442 0.949 . S
C3446 C3454 1.574 . S
C3446 C3462 1.368 . S
H3447 C3455 0.950 . S
H3448 C3453 0.950 . S
H3449 C3454 0.949 . S
H3450 C3456 0.950 . S
H3451 C3457 0.950 . S
H3452 C3458 0.949 . S
C3453 H3448 0.950 . S
C3453 C3455 1.327 . S
C3453 C3459 1.429 . S
C3454 C3446 1.574 . S
C3454 H3449 0.949 . S
C3454 C3460 1.368 . S
C3455 C3439 1.349 . S
C3455 H3447 0.950 . S
C3455 C3453 1.327 . S
C3456 C3444 1.349 . S
C3456 H3450 0.950 . S
C3456 C3457 1.327 . S
C3457 H3451 0.950 . S
C3457 C3456 1.327 . S
C3457 C3461 1.429 . S
C3458 C3441 1.574 . S
C3458 H3452 0.949 . S
C3458 C3462 1.368 . S
C3459 C3440 1.429 . S
C3459 C3453 1.429 . S
C3459 C3460 1.523 . S
C3460 C3441 1.368 . S
C3460 C3454 1.368 . S
C3460 C3459 1.523 . S
C3461 C3445 1.429 . S
C3461 C3457 1.429 . S
C3461 C3462 1.523 . S
C3462 C3446 1.368 . S
C3462 C3458 1.368 . S
C3462 C3461 1.523 . S
H3463 C3438 0.950 . S
H3464 C3440 0.950 . S
H3465 C3441 0.949 . S
H3466 C3443 0.950 . S
H3467 C3445 0.950 . S
C3468 C3469 1.349 . S
C3468 C3470 1.327 . S
C3468 H3493 0.950 . S
C3469 C3468 1.349 . S
C3469 C3485 1.349 . S
C3470 C3468 1.327 . S
C3470 C3489 1.429 . S
C3470 H3494 0.950 . S
C3471 C3488 1.574 . S
C3471 C3490 1.368 . S
C3471 H3495 0.949 . S
H3472 C3476 0.949 . S
C3473 C3474 1.349 . S
C3473 C3475 1.327 . S
C3473 H3496 0.950 . S
C3474 C3473 1.349 . S
C3474 C3486 1.349 . S
C3475 C3473 1.327 . S
C3475 C3491 1.429 . S
C3475 H3497 0.950 . S
C3476 H3472 0.949 . S
C3476 C3484 1.574 . S
C3476 C3492 1.368 . S
H3477 C3485 0.950 . S
H3478 C3483 0.950 . S
H3479 C3484 0.949 . S
H3480 C3486 0.950 . S
H3481 C3487 0.950 . S
H3482 C3488 0.949 . S
C3483 H3478 0.950 . S
C3483 C3485 1.327 . S
C3483 C3489 1.429 . S
C3484 C3476 1.574 . S
C3484 H3479 0.949 . S
C3484 C3490 1.368 . S
C3485 C3469 1.349 . S
C3485 H3477 0.950 . S
C3485 C3483 1.327 . S
C3486 C3474 1.349 . S
C3486 H3480 0.950 . S
C3486 C3487 1.327 . S
C3487 H3481 0.950 . S
C3487 C3486 1.327 . S
C3487 C3491 1.429 . S
C3488 C3471 1.574 . S
C3488 H3482 0.949 . S
C3488 C3492 1.368 . S
C3489 C3470 1.429 . S
C3489 C3483 1.429 . S
C3489 C3490 1.523 . S
C3490 C3471 1.368 . S
C3490 C3484 1.368 . S
C3490 C3489 1.523 . S
C3491 C3475 1.429 . S
C3491 C3487 1.429 . S
C3491 C3492 1.523 . S
C3492 C3476 1.368 . S
C3492 C3488 1.368 . S
C3492 C3491 1.523 . S
H3493 C3468 0.950 . S
H3494 C3470 0.950 . S
H3495 C3471 0.949 . S
H3496 C3473 0.950 . S
H3497 C3475 0.950 . S
C3498 C3499 1.349 . S
C3498 C3500 1.327 . S
C3498 H3523 0.950 . S
C3499 C3498 1.349 . S
C3499 C3515 1.349 . S
C3500 C3498 1.327 . S
C3500 C3519 1.429 . S
C3500 H3524 0.950 . S
C3501 C3518 1.574 . S
C3501 C3520 1.368 . S
C3501 H3525 0.949 . S
H3502 C3506 0.949 . S
C3503 C3504 1.349 . S
C3503 C3505 1.327 . S
C3503 H3526 0.950 . S
C3504 C3503 1.349 . S
C3504 C3516 1.349 . S
C3505 C3503 1.327 . S
C3505 C3521 1.429 . S
C3505 H3527 0.950 . S
C3506 H3502 0.949 . S
C3506 C3514 1.574 . S
C3506 C3522 1.368 . S
H3507 C3515 0.950 . S
H3508 C3513 0.950 . S
H3509 C3514 0.949 . S
H3510 C3516 0.950 . S
H3511 C3517 0.950 . S
H3512 C3518 0.949 . S
C3513 H3508 0.950 . S
C3513 C3515 1.327 . S
C3513 C3519 1.429 . S
C3514 C3506 1.574 . S
C3514 H3509 0.949 . S
C3514 C3520 1.368 . S
C3515 C3499 1.349 . S
C3515 H3507 0.950 . S
C3515 C3513 1.327 . S
C3516 C3504 1.349 . S
C3516 H3510 0.950 . S
C3516 C3517 1.327 . S
C3517 H3511 0.950 . S
C3517 C3516 1.327 . S
C3517 C3521 1.429 . S
C3518 C3501 1.574 . S
C3518 H3512 0.949 . S
C3518 C3522 1.368 . S
C3519 C3500 1.429 . S
C3519 C3513 1.429 . S
C3519 C3520 1.523 . S
C3520 C3501 1.368 . S
C3520 C3514 1.368 . S
C3520 C3519 1.523 . S
C3521 C3505 1.429 . S
C3521 C3517 1.429 . S
C3521 C3522 1.523 . S
C3522 C3506 1.368 . S
C3522 C3518 1.368 . S
C3522 C3521 1.523 . S
H3523 C3498 0.950 . S
H3524 C3500 0.950 . S
H3525 C3501 0.949 . S
H3526 C3503 0.950 . S
H3527 C3505 0.950 . S
C3528 C3529 1.349 . S
C3528 C3530 1.327 . S
C3528 H3553 0.950 . S
C3529 C3528 1.349 . S
C3529 C3545 1.349 . S
C3530 C3528 1.327 . S
C3530 C3549 1.429 . S
C3530 H3554 0.950 . S
C3531 C3548 1.574 . S
C3531 C3550 1.368 . S
C3531 H3555 0.949 . S
H3532 C3536 0.949 . S
C3533 C3534 1.349 . S
C3533 C3535 1.327 . S
C3533 H3556 0.950 . S
C3534 C3533 1.349 . S
C3534 C3546 1.349 . S
C3535 C3533 1.327 . S
C3535 C3551 1.429 . S
C3535 H3557 0.950 . S
C3536 H3532 0.949 . S
C3536 C3544 1.574 . S
C3536 C3552 1.368 . S
H3537 C3545 0.950 . S
H3538 C3543 0.950 . S
H3539 C3544 0.949 . S
H3540 C3546 0.950 . S
H3541 C3547 0.950 . S
H3542 C3548 0.949 . S
C3543 H3538 0.950 . S
C3543 C3545 1.327 . S
C3543 C3549 1.429 . S
C3544 C3536 1.574 . S
C3544 H3539 0.949 . S
C3544 C3550 1.368 . S
C3545 C3529 1.349 . S
C3545 H3537 0.950 . S
C3545 C3543 1.327 . S
C3546 C3534 1.349 . S
C3546 H3540 0.950 . S
C3546 C3547 1.327 . S
C3547 H3541 0.950 . S
C3547 C3546 1.327 . S
C3547 C3551 1.429 . S
C3548 C3531 1.574 . S
C3548 H3542 0.949 . S
C3548 C3552 1.368 . S
C3549 C3530 1.429 . S
C3549 C3543 1.429 . S
C3549 C3550 1.523 . S
C3550 C3531 1.368 . S
C3550 C3544 1.368 . S
C3550 C3549 1.523 . S
C3551 C3535 1.429 . S
C3551 C3547 1.429 . S
C3551 C3552 1.523 . S
C3552 C3536 1.368 . S
C3552 C3548 1.368 . S
C3552 C3551 1.523 . S
H3553 C3528 0.950 . S
H3554 C3530 0.950 . S
H3555 C3531 0.949 . S
H3556 C3533 0.950 . S
H3557 C3535 0.950 . S
C3558 C3559 1.349 . S
C3558 C3560 1.327 . S
C3558 H3583 0.950 . S
C3559 C3558 1.349 . S
C3559 C3575 1.349 . S
C3560 C3558 1.327 . S
C3560 C3579 1.429 . S
C3560 H3584 0.950 . S
C3561 C3578 1.574 . S
C3561 C3580 1.368 . S
C3561 H3585 0.949 . S
H3562 C3566 0.949 . S
C3563 C3564 1.349 . S
C3563 C3565 1.327 . S
C3563 H3586 0.950 . S
C3564 C3563 1.349 . S
C3564 C3576 1.349 . S
C3565 C3563 1.327 . S
C3565 C3581 1.429 . S
C3565 H3587 0.950 . S
C3566 H3562 0.949 . S
C3566 C3574 1.574 . S
C3566 C3582 1.368 . S
H3567 C3575 0.950 . S
H3568 C3573 0.950 . S
H3569 C3574 0.949 . S
H3570 C3576 0.950 . S
H3571 C3577 0.950 . S
H3572 C3578 0.949 . S
C3573 H3568 0.950 . S
C3573 C3575 1.327 . S
C3573 C3579 1.429 . S
C3574 C3566 1.574 . S
C3574 H3569 0.949 . S
C3574 C3580 1.368 . S
C3575 C3559 1.349 . S
C3575 H3567 0.950 . S
C3575 C3573 1.327 . S
C3576 C3564 1.349 . S
C3576 H3570 0.950 . S
C3576 C3577 1.327 . S
C3577 H3571 0.950 . S
C3577 C3576 1.327 . S
C3577 C3581 1.429 . S
C3578 C3561 1.574 . S
C3578 H3572 0.949 . S
C3578 C3582 1.368 . S
C3579 C3560 1.429 . S
C3579 C3573 1.429 . S
C3579 C3580 1.523 . S
C3580 C3561 1.368 . S
C3580 C3574 1.368 . S
C3580 C3579 1.523 . S
C3581 C3565 1.429 . S
C3581 C3577 1.429 . S
C3581 C3582 1.523 . S
C3582 C3566 1.368 . S
C3582 C3578 1.368 . S
C3582 C3581 1.523 . S
H3583 C3558 0.950 . S
H3584 C3560 0.950 . S
H3585 C3561 0.949 . S
H3586 C3563 0.950 . S
H3587 C3565 0.950 . S
C3588 C3589 1.349 . S
C3588 C3590 1.327 . S
C3588 H3613 0.950 . S
C3589 C3588 1.349 . S
C3589 C3605 1.349 . S
C3590 C3588 1.327 . S
C3590 C3609 1.429 . S
C3590 H3614 0.950 . S
C3591 C3608 1.574 . S
C3591 C3610 1.368 . S
C3591 H3615 0.949 . S
H3592 C3596 0.949 . S
C3593 C3594 1.349 . S
C3593 C3595 1.327 . S
C3593 H3616 0.950 . S
C3594 C3593 1.349 . S
C3594 C3606 1.349 . S
C3595 C3593 1.327 . S
C3595 C3611 1.429 . S
C3595 H3617 0.950 . S
C3596 H3592 0.949 . S
C3596 C3604 1.574 . S
C3596 C3612 1.368 . S
H3597 C3605 0.950 . S
H3598 C3603 0.950 . S
H3599 C3604 0.949 . S
H3600 C3606 0.950 . S
H3601 C3607 0.950 . S
H3602 C3608 0.949 . S
C3603 H3598 0.950 . S
C3603 C3605 1.327 . S
C3603 C3609 1.429 . S
C3604 C3596 1.574 . S
C3604 H3599 0.949 . S
C3604 C3610 1.368 . S
C3605 C3589 1.349 . S
C3605 H3597 0.950 . S
C3605 C3603 1.327 . S
C3606 C3594 1.349 . S
C3606 H3600 0.950 . S
C3606 C3607 1.327 . S
C3607 H3601 0.950 . S
C3607 C3606 1.327 . S
C3607 C3611 1.429 . S
C3608 C3591 1.574 . S
C3608 H3602 0.949 . S
C3608 C3612 1.368 . S
C3609 C3590 1.429 . S
C3609 C3603 1.429 . S
C3609 C3610 1.523 . S
C3610 C3591 1.368 . S
C3610 C3604 1.368 . S
C3610 C3609 1.523 . S
C3611 C3595 1.429 . S
C3611 C3607 1.429 . S
C3611 C3612 1.523 . S
C3612 C3596 1.368 . S
C3612 C3608 1.368 . S
C3612 C3611 1.523 . S
H3613 C3588 0.950 . S
H3614 C3590 0.950 . S
H3615 C3591 0.949 . S
H3616 C3593 0.950 . S
H3617 C3595 0.950 . S
C3618 C3619 1.349 . S
C3618 C3620 1.327 . S
C3618 H3643 0.950 . S
C3619 C3618 1.349 . S
C3619 C3635 1.349 . S
C3620 C3618 1.327 . S
C3620 C3639 1.429 . S
C3620 H3644 0.950 . S
C3621 C3638 1.574 . S
C3621 C3640 1.368 . S
C3621 H3645 0.949 . S
H3622 C3626 0.949 . S
C3623 C3624 1.349 . S
C3623 C3625 1.327 . S
C3623 H3646 0.950 . S
C3624 C3623 1.349 . S
C3624 C3636 1.349 . S
C3625 C3623 1.327 . S
C3625 C3641 1.429 . S
C3625 H3647 0.950 . S
C3626 H3622 0.949 . S
C3626 C3634 1.574 . S
C3626 C3642 1.368 . S
H3627 C3635 0.950 . S
H3628 C3633 0.950 . S
H3629 C3634 0.949 . S
H3630 C3636 0.950 . S
H3631 C3637 0.950 . S
H3632 C3638 0.949 . S
C3633 H3628 0.950 . S
C3633 C3635 1.327 . S
C3633 C3639 1.429 . S
C3634 C3626 1.574 . S
C3634 H3629 0.949 . S
C3634 C3640 1.368 . S
C3635 C3619 1.349 . S
C3635 H3627 0.950 . S
C3635 C3633 1.327 . S
C3636 C3624 1.349 . S
C3636 H3630 0.950 . S
C3636 C3637 1.327 . S
C3637 H3631 0.950 . S
C3637 C3636 1.327 . S
C3637 C3641 1.429 . S
C3638 C3621 1.574 . S
C3638 H3632 0.949 . S
C3638 C3642 1.368 . S
C3639 C3620 1.429 . S
C3639 C3633 1.429 . S
C3639 C3640 1.523 . S
C3640 C3621 1.368 . S
C3640 C3634 1.368 . S
C3640 C3639 1.523 . S
C3641 C3625 1.429 . S
C3641 C3637 1.429 . S
C3641 C3642 1.523 . S
C3642 C3626 1.368 . S
C3642 C3638 1.368 . S
C3642 C3641 1.523 . S
H3643 C3618 0.950 . S
H3644 C3620 0.950 . S
H3645 C3621 0.949 . S
H3646 C3623 0.950 . S
H3647 C3625 0.950 . S
C3648 C3649 1.349 . S
C3648 C3650 1.327 . S
C3648 H3673 0.950 . S
C3649 C3648 1.349 . S
C3649 C3665 1.349 . S
C3650 C3648 1.327 . S
C3650 C3669 1.429 . S
C3650 H3674 0.950 . S
C3651 C3668 1.574 . S
C3651 C3670 1.368 . S
C3651 H3675 0.949 . S
H3652 C3656 0.949 . S
C3653 C3654 1.349 . S
C3653 C3655 1.327 . S
C3653 H3676 0.950 . S
C3654 C3653 1.349 . S
C3654 C3666 1.349 . S
C3655 C3653 1.327 . S
C3655 C3671 1.429 . S
C3655 H3677 0.950 . S
C3656 H3652 0.949 . S
C3656 C3664 1.574 . S
C3656 C3672 1.368 . S
H3657 C3665 0.950 . S
H3658 C3663 0.950 . S
H3659 C3664 0.949 . S
H3660 C3666 0.950 . S
H3661 C3667 0.950 . S
H3662 C3668 0.949 . S
C3663 H3658 0.950 . S
C3663 C3665 1.327 . S
C3663 C3669 1.429 . S
C3664 C3656 1.574 . S
C3664 H3659 0.949 . S
C3664 C3670 1.368 . S
C3665 C3649 1.349 . S
C3665 H3657 0.950 . S
C3665 C3663 1.327 . S
C3666 C3654 1.349 . S
C3666 H3660 0.950 . S
C3666 C3667 1.327 . S
C3667 H3661 0.950 . S
C3667 C3666 1.327 . S
C3667 C3671 1.429 . S
C3668 C3651 1.574 . S
C3668 H3662 0.949 . S
C3668 C3672 1.368 . S
C3669 C3650 1.429 . S
C3669 C3663 1.429 . S
C3669 C3670 1.523 . S
C3670 C3651 1.368 . S
C3670 C3664 1.368 . S
C3670 C3669 1.523 . S
C3671 C3655 1.429 . S
C3671 C3667 1.429 . S
C3671 C3672 1.523 . S
C3672 C3656 1.368 . S
C3672 C3668 1.368 . S
C3672 C3671 1.523 . S
H3673 C3648 0.950 . S
H3674 C3650 0.950 . S
H3675 C3651 0.949 . S
H3676 C3653 0.950 . S
H3677 C3655 0.950 . S
C3678 C3679 1.349 . S
C3678 C3680 1.327 . S
C3678 H3703 0.950 . S
C3679 C3678 1.349 . S
C3679 C3695 1.349 . S
C3680 C3678 1.327 . S
C3680 C3699 1.429 . S
C3680 H3704 0.950 . S
C3681 C3698 1.574 . S
C3681 C3700 1.368 . S
C3681 H3705 0.949 . S
H3682 C3686 0.949 . S
C3683 C3684 1.349 . S
C3683 C3685 1.327 . S
C3683 H3706 0.950 . S
C3684 C3683 1.349 . S
C3684 C3696 1.349 . S
C3685 C3683 1.327 . S
C3685 C3701 1.429 . S
C3685 H3707 0.950 . S
C3686 H3682 0.949 . S
C3686 C3694 1.574 . S
C3686 C3702 1.368 . S
H3687 C3695 0.950 . S
H3688 C3693 0.950 . S
H3689 C3694 0.949 . S
H3690 C3696 0.950 . S
H3691 C3697 0.950 . S
H3692 C3698 0.949 . S
C3693 H3688 0.950 . S
C3693 C3695 1.327 . S
C3693 C3699 1.429 . S
C3694 C3686 1.574 . S
C3694 H3689 0.949 . S
C3694 C3700 1.368 . S
C3695 C3679 1.349 . S
C3695 H3687 0.950 . S
C3695 C3693 1.327 . S
C3696 C3684 1.349 . S
C3696 H3690 0.950 . S
C3696 C3697 1.327 . S
C3697 H3691 0.950 . S
C3697 C3696 1.327 . S
C3697 C3701 1.429 . S
C3698 C3681 1.574 . S
C3698 H3692 0.949 . S
C3698 C3702 1.368 . S
C3699 C3680 1.429 . S
C3699 C3693 1.429 . S
C3699 C3700 1.523 . S
C3700 C3681 1.368 . S
C3700 C3694 1.368 . S
C3700 C3699 1.523 . S
C3701 C3685 1.429 . S
C3701 C3697 1.429 . S
C3701 C3702 1.523 . S
C3702 C3686 1.368 . S
C3702 C3698 1.368 . S
C3702 C3701 1.523 . S
H3703 C3678 0.950 . S
H3704 C3680 0.950 . S
H3705 C3681 0.949 . S
H3706 C3683 0.950 . S
H3707 C3685 0.950 . S
C3708 C3709 1.349 . S
C3708 C3710 1.327 . S
C3708 H3733 0.950 . S
C3709 C3708 1.349 . S
C3709 C3725 1.349 . S
C3710 C3708 1.327 . S
C3710 C3729 1.429 . S
C3710 H3734 0.950 . S
C3711 C3728 1.574 . S
C3711 C3730 1.368 . S
C3711 H3735 0.949 . S
H3712 C3716 0.949 . S
C3713 C3714 1.349 . S
C3713 C3715 1.327 . S
C3713 H3736 0.950 . S
C3714 C3713 1.349 . S
C3714 C3726 1.349 . S
C3715 C3713 1.327 . S
C3715 C3731 1.429 . S
C3715 H3737 0.950 . S
C3716 H3712 0.949 . S
C3716 C3724 1.574 . S
C3716 C3732 1.368 . S
H3717 C3725 0.950 . S
H3718 C3723 0.950 . S
H3719 C3724 0.949 . S
H3720 C3726 0.950 . S
H3721 C3727 0.950 . S
H3722 C3728 0.949 . S
C3723 H3718 0.950 . S
C3723 C3725 1.327 . S
C3723 C3729 1.429 . S
C3724 C3716 1.574 . S
C3724 H3719 0.949 . S
C3724 C3730 1.368 . S
C3725 C3709 1.349 . S
C3725 H3717 0.950 . S
C3725 C3723 1.327 . S
C3726 C3714 1.349 . S
C3726 H3720 0.950 . S
C3726 C3727 1.327 . S
C3727 H3721 0.950 . S
C3727 C3726 1.327 . S
C3727 C3731 1.429 . S
C3728 C3711 1.574 . S
C3728 H3722 0.949 . S
C3728 C3732 1.368 . S
C3729 C3710 1.429 . S
C3729 C3723 1.429 . S
C3729 C3730 1.523 . S
C3730 C3711 1.368 . S
C3730 C3724 1.368 . S
C3730 C3729 1.523 . S
C3731 C3715 1.429 . S
C3731 C3727 1.429 . S
C3731 C3732 1.523 . S
C3732 C3716 1.368 . S
C3732 C3728 1.368 . S
C3732 C3731 1.523 . S
H3733 C3708 0.950 . S
H3734 C3710 0.950 . S
H3735 C3711 0.949 . S
H3736 C3713 0.950 . S
H3737 C3715 0.950 . S
C3738 C3739 1.349 . S
C3738 C3740 1.327 . S
C3738 H3763 0.950 . S
C3739 C3738 1.349 . S
C3739 C3755 1.349 . S
C3740 C3738 1.327 . S
C3740 C3759 1.429 . S
C3740 H3764 0.950 . S
C3741 C3758 1.574 1_545 S
C3741 C3760 1.368 . S
C3741 H3765 0.949 . S
H3742 C3746 0.949 . S
C3743 C3744 1.349 . S
C3743 C3745 1.327 . S
C3743 H3766 0.950 . S
C3744 C3743 1.349 . S
C3744 C3756 1.349 . S
C3745 C3743 1.327 . S
C3745 C3761 1.429 . S
C3745 H3767 0.950 . S
C3746 H3742 0.949 . S
C3746 C3754 1.574 1_565 S
C3746 C3762 1.368 . S
H3747 C3755 0.950 . S
H3748 C3753 0.950 . S
H3749 C3754 0.949 . S
H3750 C3756 0.950 . S
H3751 C3757 0.950 . S
H3752 C3758 0.949 . S
C3753 H3748 0.950 . S
C3753 C3755 1.327 . S
C3753 C3759 1.429 . S
C3754 C3746 1.574 1_545 S
C3754 H3749 0.949 . S
C3754 C3760 1.368 . S
C3755 C3739 1.349 . S
C3755 H3747 0.950 . S
C3755 C3753 1.327 . S
C3756 C3744 1.349 . S
C3756 H3750 0.950 . S
C3756 C3757 1.327 . S
C3757 H3751 0.950 . S
C3757 C3756 1.327 . S
C3757 C3761 1.429 . S
C3758 C3741 1.574 1_565 S
C3758 H3752 0.949 . S
C3758 C3762 1.368 . S
C3759 C3740 1.429 . S
C3759 C3753 1.429 . S
C3759 C3760 1.523 . S
C3760 C3741 1.368 . S
C3760 C3754 1.368 . S
C3760 C3759 1.523 . S
C3761 C3745 1.429 . S
C3761 C3757 1.429 . S
C3761 C3762 1.523 . S
C3762 C3746 1.368 . S
C3762 C3758 1.368 . S
C3762 C3761 1.523 . S
H3763 C3738 0.950 . S
H3764 C3740 0.950 . S
H3765 C3741 0.949 . S
H3766 C3743 0.950 . S
H3767 C3745 0.950 . S
C3768 C3769 1.349 . S
C3768 C3770 1.327 . S
C3768 H3793 0.950 . S
C3769 C3768 1.349 . S
C3769 C3785 1.349 . S
C3770 C3768 1.327 . S
C3770 C3789 1.429 . S
C3770 H3794 0.950 . S
C3771 C3788 1.574 1_655 S
C3771 C3790 1.368 . S
C3771 H3795 0.949 . S
H3772 C3776 0.949 . S
C3773 C3774 1.349 . S
C3773 C3775 1.327 . S
C3773 H3796 0.950 . S
C3774 C3773 1.349 . S
C3774 C3786 1.349 . S
C3775 C3773 1.327 . S
C3775 C3791 1.429 . S
C3775 H3797 0.950 . S
C3776 H3772 0.949 . S
C3776 C3784 1.574 1_455 S
C3776 C3792 1.368 . S
H3777 C3785 0.950 . S
H3778 C3783 0.950 . S
H3779 C3784 0.949 . S
H3780 C3786 0.950 . S
H3781 C3787 0.950 . S
H3782 C3788 0.949 . S
C3783 H3778 0.950 . S
C3783 C3785 1.327 . S
C3783 C3789 1.429 . S
C3784 C3776 1.574 1_655 S
C3784 H3779 0.949 . S
C3784 C3790 1.368 . S
C3785 C3769 1.349 . S
C3785 H3777 0.950 . S
C3785 C3783 1.327 . S
C3786 C3774 1.349 . S
C3786 H3780 0.950 . S
C3786 C3787 1.327 . S
C3787 H3781 0.950 . S
C3787 C3786 1.327 . S
C3787 C3791 1.429 . S
C3788 C3771 1.574 1_455 S
C3788 H3782 0.949 . S
C3788 C3792 1.368 . S
C3789 C3770 1.429 . S
C3789 C3783 1.429 . S
C3789 C3790 1.523 . S
C3790 C3771 1.368 . S
C3790 C3784 1.368 . S
C3790 C3789 1.523 . S
C3791 C3775 1.429 . S
C3791 C3787 1.429 . S
C3791 C3792 1.523 . S
C3792 C3776 1.368 . S
C3792 C3788 1.368 . S
C3792 C3791 1.523 . S
H3793 C3768 0.950 . S
H3794 C3770 0.950 . S
H3795 C3771 0.949 . S
H3796 C3773 0.950 . S
H3797 C3775 0.950 . S
C3798 C3799 1.349 . S
C3798 C3800 1.327 . S
C3798 H3823 0.950 . S
C3799 C3798 1.349 . S
C3799 C3815 1.349 . S
C3800 C3798 1.327 . S
C3800 C3819 1.429 . S
C3800 H3824 0.950 . S
C3801 C3818 1.574 . S
C3801 C3820 1.368 1_554 S
C3801 H3825 0.949 . S
H3802 C3806 0.949 . S
C3803 C3804 1.349 . S
C3803 C3805 1.327 . S
C3803 H3826 0.950 . S
C3804 C3803 1.349 . S
C3804 C3816 1.349 . S
C3805 C3803 1.327 . S
C3805 C3821 1.429 . S
C3805 H3827 0.950 . S
C3806 H3802 0.949 . S
C3806 C3814 1.574 . S
C3806 C3822 1.368 1_556 S
H3807 C3815 0.950 1_554 S
H3808 C3813 0.950 . S
H3809 C3814 0.949 . S
H3810 C3816 0.950 1_556 S
H3811 C3817 0.950 . S
H3812 C3818 0.949 . S
C3813 H3808 0.950 . S
C3813 C3815 1.327 1_554 S
C3813 C3819 1.429 1_554 S
C3814 C3806 1.574 . S
C3814 H3809 0.949 . S
C3814 C3820 1.368 . S
C3815 C3799 1.349 . S
C3815 H3807 0.950 1_556 S
C3815 C3813 1.327 1_556 S
C3816 C3804 1.349 . S
C3816 H3810 0.950 1_554 S
C3816 C3817 1.327 1_554 S
C3817 H3811 0.950 . S
C3817 C3816 1.327 1_556 S
C3817 C3821 1.429 1_556 S
C3818 C3801 1.574 . S
C3818 H3812 0.949 . S
C3818 C3822 1.368 . S
C3819 C3800 1.429 . S
C3819 C3813 1.429 1_556 S
C3819 C3820 1.523 . S
C3820 C3801 1.368 1_556 S
C3820 C3814 1.368 . S
C3820 C3819 1.523 . S
C3821 C3805 1.429 . S
C3821 C3817 1.429 1_554 S
C3821 C3822 1.523 . S
C3822 C3806 1.368 1_554 S
C3822 C3818 1.368 . S
C3822 C3821 1.523 . S
H3823 C3798 0.950 . S
H3824 C3800 0.950 . S
H3825 C3801 0.949 . S
H3826 C3803 0.950 . S
H3827 C3805 0.950 . S
C3828 C3829 1.349 . S
C3828 C3830 1.327 . S
C3828 H3853 0.950 . S
C3829 C3828 1.349 . S
C3829 C3845 1.349 . S
C3830 C3828 1.327 . S
C3830 C3849 1.429 . S
C3830 H3854 0.950 . S
C3831 C3848 1.574 1_556 S
C3831 C3850 1.368 . S
C3831 H3855 0.949 . S
H3832 C3836 0.949 . S
C3833 C3834 1.349 . S
C3833 C3835 1.327 . S
C3833 H3856 0.950 . S
C3834 C3833 1.349 . S
C3834 C3846 1.349 . S
C3835 C3833 1.327 . S
C3835 C3851 1.429 . S
C3835 H3857 0.950 . S
C3836 H3832 0.949 . S
C3836 C3844 1.574 1_554 S
C3836 C3852 1.368 . S
H3837 C3845 0.950 . S
H3838 C3843 0.950 . S
H3839 C3844 0.949 . S
H3840 C3846 0.950 . S
H3841 C3847 0.950 . S
H3842 C3848 0.949 . S
C3843 H3838 0.950 . S
C3843 C3845 1.327 . S
C3843 C3849 1.429 . S
C3844 C3836 1.574 1_556 S
C3844 H3839 0.949 . S
C3844 C3850 1.368 1_565 S
C3845 C3829 1.349 . S
C3845 H3837 0.950 . S
C3845 C3843 1.327 . S
C3846 C3834 1.349 . S
C3846 H3840 0.950 . S
C3846 C3847 1.327 . S
C3847 H3841 0.950 . S
C3847 C3846 1.327 . S
C3847 C3851 1.429 . S
C3848 C3831 1.574 1_554 S
C3848 H3842 0.949 . S
C3848 C3852 1.368 1_545 S
C3849 C3830 1.429 . S
C3849 C3843 1.429 . S
C3849 C3850 1.523 . S
C3850 C3831 1.368 . S
C3850 C3844 1.368 1_545 S
C3850 C3849 1.523 . S
C3851 C3835 1.429 . S
C3851 C3847 1.429 . S
C3851 C3852 1.523 . S
C3852 C3836 1.368 . S
C3852 C3848 1.368 1_565 S
C3852 C3851 1.523 . S
H3853 C3828 0.950 . S
H3854 C3830 0.950 . S
H3855 C3831 0.949 . S
H3856 C3833 0.950 . S
H3857 C3835 0.950 . S
C3858 C3859 1.349 . S
C3858 C3860 1.327 1_554 S
C3858 H3883 0.950 1_554 S
C3859 C3858 1.349 . S
C3859 C3875 1.349 . S
C3860 C3858 1.327 1_556 S
C3860 C3879 1.429 1_556 S
C3860 H3884 0.950 . S
C3861 C3878 1.625 . S
C3861 C3880 1.339 1_655 S
C3861 H3885 0.931 . S
H3862 C3866 0.931 . S
C3863 C3864 1.349 . S
C3863 C3865 1.327 1_556 S
C3863 H3886 0.950 1_556 S
C3864 C3863 1.349 . S
C3864 C3876 1.349 . S
C3865 C3863 1.327 1_554 S
C3865 C3881 1.429 1_554 S
C3865 H3887 0.950 . S
C3866 H3862 0.931 . S
C3866 C3874 1.625 . S
C3866 C3882 1.339 1_455 S
H3867 C3875 0.950 . S
H3868 C3873 0.950 . S
H3869 C3874 0.949 . S
H3870 C3876 0.950 . S
H3871 C3877 0.950 . S
H3872 C3878 0.949 . S
C3873 H3868 0.950 . S
C3873 C3875 1.327 . S
C3873 C3879 1.429 . S
C3874 C3866 1.625 . S
C3874 H3869 0.949 . S
C3874 C3880 1.368 1_556 S
C3875 C3859 1.349 . S
C3875 H3867 0.950 . S
C3875 C3873 1.327 . S
C3876 C3864 1.349 . S
C3876 H3870 0.950 . S
C3876 C3877 1.327 . S
C3877 H3871 0.950 . S
C3877 C3876 1.327 . S
C3877 C3881 1.429 . S
C3878 C3861 1.625 . S
C3878 H3872 0.949 . S
C3878 C3882 1.368 1_554 S
C3879 C3860 1.429 1_554 S
C3879 C3873 1.429 . S
C3879 C3880 1.523 . S
C3880 C3861 1.339 1_455 S
C3880 C3874 1.368 1_554 S
C3880 C3879 1.523 . S
C3881 C3865 1.429 1_556 S
C3881 C3877 1.429 . S
C3881 C3882 1.523 . S
C3882 C3866 1.339 1_655 S
C3882 C3878 1.368 1_556 S
C3882 C3881 1.523 . S
H3883 C3858 0.950 1_556 S
H3884 C3860 0.950 . S
H3885 C3861 0.931 . S
H3886 C3863 0.950 1_554 S
H3887 C3865 0.950 . S
C1189 N14 1.099 . S
C1194 C74 1.087 . S
C1219 N47 1.155 . S
C1224 C8 1.143 . S
C1249 N80 0.995 . S
C1254 C41 0.985 . S
C1279 N113 1.099 . S
C1284 C140 1.087 . S
C1309 N146 0.995 . S
C1314 C173 0.985 . S
C1339 N179 1.155 . S
C1344 C107 1.143 . S
C1369 C272 1.087 . S
C1374 N212 1.099 . S
C1399 C206 1.142 . S
C1404 N245 1.156 . S
C1429 C239 0.984 . S
C1434 N278 0.995 . S
C1459 C338 1.087 . S
C1464 N311 1.099 . S
C1489 N344 0.995 . S
C1494 C371 0.985 . S
C1519 C305 1.142 . S
C1524 N377 1.156 . S
C1549 N410 1.037 . S
C1554 C470 1.027 . S
C1579 C404 1.057 . S
C1584 N443 1.068 . S
C1609 N476 1.041 . S
C1614 C437 1.032 . S
C1639 N509 1.099 . S
C1644 C536 1.087 . S
C1669 N542 1.085 . S
C1674 C569 1.073 . S
C1699 N575 1.052 . S
C1704 C503 1.043 . S
C1729 C668 1.087 . S
C1734 N608 1.099 . S
C1759 N641 1.052 . S
C1764 C602 1.043 . S
C1789 C635 1.073 . S
C1794 N674 1.085 . S
C1819 N707 1.037 . S
C1824 C734 1.027 . S
C1849 N740 1.041 . S
C1854 C767 1.032 . S
C1879 N773 1.068 . S
C1884 C701 1.057 . S
C1909 N806 1.099 . S
C1914 C866 1.087 . S
C1939 C800 1.043 . S
C1944 N839 1.052 . S
C1969 C833 1.073 . S
C1974 N872 1.085 . S
C1999 C932 1.027 . S
C2004 N905 1.037 . S
C2029 C965 1.032 . S
C2034 N938 1.041 . S
C2059 C899 1.057 . S
C2064 N971 1.068 . S
C2089 C1064 1.027 . S
C2094 N1004 1.037 . S
C2119 C998 1.057 . S
C2124 N1037 1.068 . S
C2149 N1070 1.041 . S
C2154 C1031 1.032 . S
C2179 C1130 1.087 . S
C2184 N1103 1.099 . S
C2209 C1163 1.073 . S
C2214 N1136 1.085 . S
C2239 C1097 1.043 . S
C2244 N1169 1.052 . S
C2269 C160 1.659 . S
C2274 C28 1.662 . S
C2299 C193 1.747 . S
C2304 C61 1.747 . S
C2329 C94 1.659 . S
C2334 C127 1.661 . S
C2359 C358 1.659 . S
C2364 C226 1.662 . S
C2389 C259 1.747 . S
C2394 C391 1.747 . S
C2419 C292 1.659 . S
C2424 C325 1.661 . S
C2449 C424 1.756 . S
C2454 C556 1.757 . S
C2479 C589 1.756 . S
C2484 C457 1.755 . S
C2509 C523 1.751 . S
C2514 C490 1.752 . S
C2539 C622 1.751 . S
C2544 C754 1.752 . S
C2569 C655 1.756 . S
C2574 C787 1.755 . S
C2599 C721 1.756 . S
C2604 C688 1.757 . S
C2629 C820 1.751 . S
C2634 C952 1.752 . S
C2659 C853 1.756 . S
C2664 C985 1.755 . S
C2689 C919 1.756 . S
C2694 C886 1.757 . S
C2719 C1018 1.756 . S
C2724 C1150 1.757 . S
C2749 C1051 1.755 . S
C2754 C1183 1.756 . S
C2779 C1117 1.751 . S
C2784 C1084 1.752 . S
C2809 C974 1.555 . S
C2814 C17 1.550 . S
C2839 C908 1.605 . S
C2844 C50 1.604 . S
C2869 C83 1.499 . S
C2874 C941 1.495 . S
C2899 C116 1.550 . S
C2904 C446 1.555 . S
C2929 C479 1.500 . S
C2934 C149 1.494 . S
C2959 C182 1.604 . S
C2964 C413 1.605 . S
C2989 C215 1.550 . S
C2994 C776 1.555 . S
C3019 C248 1.604 . S
C3024 C710 1.605 . S
C3049 C743 1.500 . S
C3054 C281 1.494 . S
C3079 C1040 1.555 . S
C3084 C314 1.550 . S
C3109 C347 1.499 . S
C3114 C1073 1.495 . S
C3139 C380 1.604 . S
C3144 C1007 1.605 . S
C3169 C842 1.646 . S
C3174 C512 1.648 . S
C3199 C545 1.684 . S
C3204 C875 1.684 . S
C3229 C809 1.648 . S
C3234 C578 1.646 . S
C3259 C611 1.648 . S
C3264 C1172 1.646 . S
C3289 C644 1.646 . S
C3294 C1106 1.648 . S
C3319 C677 1.684 . S
C3324 C1139 1.684 . S
C3349 N5 1.216 . S
C3354 N599 1.224 . S
C3379 N632 1.040 . S
C3384 N38 1.037 . S
C3409 N665 1.148 . S
C3414 N71 1.148 . S
C3439 N104 1.216 . S
C3444 N1094 1.224 . S
C3469 N1127 1.148 . S
C3474 N137 1.148 . S
C3499 N170 1.037 . S
C3504 N1160 1.040 . S
C3529 N797 1.218 . S
C3534 N203 1.222 . S
C3559 N236 1.037 . S
C3564 N830 1.040 . S
C3589 N269 1.146 . S
C3594 N863 1.150 . S
C3619 N302 1.216 . S
C3624 N500 1.224 . S
C3649 N335 1.146 . S
C3654 N533 1.150 . S
C3679 N566 1.040 . S
C3684 N368 1.037 . S
C3709 N995 1.073 . S
C3714 N401 1.073 . S
C3739 N434 1.152 . S
C3744 N1028 1.152 . S
C3769 N467 1.075 . S
C3774 N1061 1.075 . S
C3799 N698 1.073 . S
C3804 N896 1.073 . S
C3829 N731 1.075 . S
C3834 N929 1.075 . S
C3859 N962 1.152 . S
C3864 N764 1.152 . S
