# Generated by pormake.
# Topology hcp, (12)-cn, num edge types: 1
# Building blocks:
#     Node 0, Type 0, BuildingBlock: BOTCEU_clean_sbu_0, # of connection points: 12
#     Node 1, Type 0, BuildingBlock: BOTCEU_clean_sbu_0, # of connection points: 12
#     Edge 2, Type (0, 0), BuildingBlock: ZUJKAS_clean_linker_0, # of connection points: 2
#     Edge 3, Type (0, 0), BuildingBlock: ZUJKAS_clean_linker_0, # of connection points: 2
#     Edge 4, Type (0, 0), BuildingBlock: ZUJKAS_clean_linker_0, # of connection points: 2
#     Edge 5, Type (0, 0), BuildingBlock: ZUJKAS_clean_linker_0, # of connection points: 2
#     Edge 6, Type (0, 0), BuildingBlock: ZUJKAS_clean_linker_0, # of connection points: 2
#     Edge 7, Type (0, 0), BuildingBlock: ZUJKAS_clean_linker_0, # of connection points: 2
#     Edge 8, Type (0, 0), BuildingBlock: ZUJKAS_clean_linker_0, # of connection points: 2
#     Edge 9, Type (0, 0), BuildingBlock: ZUJKAS_clean_linker_0, # of connection points: 2
#     Edge 10, Type (0, 0), BuildingBlock: ZUJKAS_clean_linker_0, # of connection points: 2
#     Edge 11, Type (0, 0), BuildingBlock: ZUJKAS_clean_linker_0, # of connection points: 2
#     Edge 12, Type (0, 0), BuildingBlock: ZUJKAS_clean_linker_0, # of connection points: 2
#     Edge 13, Type (0, 0), BuildingBlock: ZUJKAS_clean_linker_0, # of connection points: 2
# Relax obj value: 0.156
# Max RMSD: 0.245
# Mean RMSD: 0.245
data_MOF--net-hcp--node1-BOTCEU_clean_sbu_0--edge1-ZUJKAS_clean_linker_0
_symmetry_space_group_name_H-M    P1
_symmetry_Int_Tables_number       1
_symmetry_cell_setting            triclinic
loop_
_symmetry_equiv_pos_as_xyz
'x, y, z'
_cell_length_a     31.061599
_cell_length_b     26.264598
_cell_length_c     50.547319
_cell_angle_alpha  97.404307
_cell_angle_beta   88.300604
_cell_angle_gamma 123.43633
loop_
_atom_site_label
_atom_site_type_symbol
_atom_site_fract_x
_atom_site_fract_y
_atom_site_fract_z
_atom_type_partial_charge
C0 C 0.40457 0.11191 0.27634 0.0
C1 C 0.40627 0.06754 0.28781 0.0
C2 C 0.43298 0.09765 0.31244 0.0
N3 N 0.42842 0.16414 0.29352 0.0
N4 N 0.44556 0.156 0.31504 0.0
C5 C 0.37475 0.10262 0.25146 0.0
H6 H 0.38632 0.1475 0.24548 0.0
H7 H 0.33287 0.07603 0.25514 0.0
H8 H 0.38135 0.07602 0.2349 0.0
C9 C 0.44484 0.07061 0.33315 0.0
H10 H 0.46119 0.04479 0.32358 0.0
H11 H 0.40888 0.03747 0.34239 0.0
H12 H 0.47243 0.10704 0.34895 0.0
C13 C 0.83661 0.39856 0.13539 0.0
C14 C 0.77705 0.4054 0.11652 0.0
C15 C 0.82323 0.40942 0.11158 0.0
N16 N 0.80037 0.38929 0.15296 0.0
N17 N 0.76513 0.39397 0.14179 0.0
H18 H 0.88016 0.35766 0.13272 0.0
H19 H 0.91848 0.43989 0.13363 0.0
H20 H 0.89057 0.40562 0.16385 0.0
C21 C 0.88442 0.40099 0.14193 0.0
H22 H 0.74485 0.38784 0.07675 0.0
H23 H 0.75719 0.45702 0.09647 0.0
H24 H 0.70281 0.38354 0.10344 0.0
C25 C 0.74325 0.40822 0.09711 0.0
C26 C 0.40478 0.26731 0.34747 0.0
C27 C 0.52898 0.27386 0.26661 0.0
C28 C 0.691 0.16492 0.32442 0.0
N29 N 0.71701 0.22381 0.31953 0.0
N30 N 0.73152 0.22627 0.29474 0.0
C31 C 0.68678 0.12797 0.30092 0.0
C32 C 0.7132 0.16895 0.28249 0.0
H33 H 0.67208 0.17808 0.36508 0.0
H34 H 0.70949 0.14515 0.36049 0.0
H35 H 0.64184 0.09835 0.35038 0.0
C36 C 0.67739 0.14545 0.35165 0.0
H37 H 0.74737 0.196 0.24488 0.0
H38 H 0.69497 0.11598 0.24361 0.0
H39 H 0.75673 0.14182 0.25829 0.0
C40 C 0.72904 0.15519 0.25569 0.0
C41 C 0.3571 0.26751 0.24641 0.0
C42 C 0.33246 0.20703 0.27792 0.0
N43 N 0.39832 0.27222 0.25702 0.0
N44 N 0.3839 0.23697 0.27613 0.0
C45 C 0.31381 0.22583 0.25922 0.0
H46 H 0.32465 0.27233 0.2105 0.0
H47 H 0.36063 0.34335 0.23287 0.0
H48 H 0.39494 0.31634 0.21316 0.0
C49 C 0.35942 0.30151 0.22425 0.0
C50 C 0.30243 0.16278 0.29738 0.0
H51 H 0.27489 0.11641 0.2864 0.0
H52 H 0.27974 0.17751 0.30944 0.0
H53 H 0.32857 0.15973 0.3106 0.0
C54 C 0.85912 0.38325 0.33434 0.0
C55 C 0.67699 0.3265 0.32127 0.0
C56 C 0.63994 0.25543 0.13504 0.0
N57 N 0.64996 0.30561 0.1515 0.0
C58 C 0.58792 0.22131 0.12676 0.0
N59 N 0.60732 0.30458 0.15451 0.0
C60 C 0.56864 0.25442 0.13951 0.0
H61 H 0.71464 0.2693 0.13798 0.0
H62 H 0.69308 0.26718 0.10487 0.0
H63 H 0.66562 0.19684 0.1191 0.0
C64 C 0.68072 0.24649 0.12371 0.0
H65 H 0.50627 0.26302 0.15217 0.0
C66 C 0.51671 0.24318 0.1345 0.0
H67 H 0.51803 0.26616 0.11727 0.0
H68 H 0.48702 0.19311 0.12976 0.0
C69 C 0.7324 0.29266 0.41807 0.0
C70 C 0.78419 0.283 0.39018 0.0
N71 N 0.72162 0.29737 0.39325 0.0
N72 N 0.75294 0.29184 0.37673 0.0
C73 C 0.77313 0.28449 0.41699 0.0
H74 H 0.68879 0.25697 0.45214 0.0
C75 C 0.70681 0.29947 0.44251 0.0
H76 H 0.67675 0.30745 0.43739 0.0
H77 H 0.73617 0.33815 0.45707 0.0
H78 H 0.82966 0.24394 0.38869 0.0
H79 H 0.86166 0.31928 0.37855 0.0
C80 C 0.82426 0.27416 0.3777 0.0
H81 H 0.81271 0.25391 0.35648 0.0
C82 C 0.71045 0.48958 0.15361 0.0
C83 C 0.69778 0.34285 0.21484 0.0
C84 C 0.91124 0.4701 0.24048 0.0
N85 N 0.86419 0.42517 0.22993 0.0
C86 C 0.93062 0.51884 0.22562 0.0
C87 C 0.89191 0.49947 0.20614 0.0
N88 N 0.85231 0.44257 0.20965 0.0
C89 C 0.93941 0.46242 0.26149 0.0
H90 H 0.91156 0.42749 0.27397 0.0
H91 H 0.96317 0.44651 0.25165 0.0
H92 H 0.9655 0.50656 0.27439 0.0
C93 C 0.89396 0.53285 0.18381 0.0
H94 H 0.85434 0.51533 0.1762 0.0
H95 H 0.9152 0.58308 0.19068 0.0
H96 H 0.91499 0.52548 0.16726 0.0
C97 C 0.43413 0.15663 0.3919 0.0
C98 C 0.45976 0.16165 0.41556 0.0
C99 C 0.50974 0.21149 0.41394 0.0
N100 N 0.46807 0.20214 0.37768 0.0
N101 N 0.51305 0.23336 0.39101 0.0
H102 H 0.35272 0.11012 0.39518 0.0
H103 H 0.37415 0.06078 0.38357 0.0
H104 H 0.37286 0.10923 0.36124 0.0
C105 C 0.38038 0.10618 0.38212 0.0
C106 C 0.5559 0.2299 0.43108 0.0
H107 H 0.58925 0.27572 0.42752 0.0
H108 H 0.54715 0.2311 0.45251 0.0
H109 H 0.56619 0.19555 0.42621 0.0
C110 C 0.78785 0.26377 0.18327 0.0
C111 C 0.77196 0.39062 0.27181 0.0
C112 C 0.54338 0.4805 0.22949 0.0
C113 C 0.52498 0.49636 0.25232 0.0
C114 C 0.49689 0.44261 0.26424 0.0
N115 N 0.52675 0.42108 0.22824 0.0
N116 N 0.49888 0.39811 0.24889 0.0
C117 C 0.57572 0.52072 0.20908 0.0
H118 H 0.5972 0.50258 0.19827 0.0
H119 H 0.55017 0.52122 0.19438 0.0
H120 H 0.6031 0.56868 0.21869 0.0
C121 C 0.46538 0.4326 0.28829 0.0
H122 H 0.44753 0.38506 0.29309 0.0
H123 H 0.49019 0.46626 0.30559 0.0
H124 H 0.43472 0.44063 0.28446 0.0
C125 C 0.86141 0.2642 0.27753 0.0
C126 C 0.89079 0.26467 0.25613 0.0
C127 C 0.8834 0.29463 0.23774 0.0
N128 N 0.83828 0.29233 0.27173 0.0
N129 N 0.85094 0.30983 0.2479 0.0
C130 C 0.8515 0.23241 0.30165 0.0
H131 H 0.88366 0.26265 0.31682 0.0
H132 H 0.8496 0.18883 0.29641 0.0
H133 H 0.81503 0.22274 0.31042 0.0
C134 C 0.90795 0.31043 0.21157 0.0
H135 H 0.94873 0.32439 0.21324 0.0
H136 H 0.88706 0.26929 0.19625 0.0
H137 H 0.90609 0.34801 0.20506 0.0
C138 C 0.43774 0.2424 0.19479 0.0
C139 C 0.63391 0.41867 0.2263 0.0
C140 C 0.60493 0.38932 0.40671 0.0
N141 N 0.61621 0.35431 0.39056 0.0
N142 N 0.66319 0.36916 0.39616 0.0
C143 C 0.64658 0.4286 0.42459 0.0
C144 C 0.68315 0.41433 0.41736 0.0
H145 H 0.52783 0.3483 0.39003 0.0
H146 H 0.5328 0.34912 0.42563 0.0
H147 H 0.55282 0.41917 0.41267 0.0
C148 C 0.55142 0.37572 0.40872 0.0
H149 H 0.75516 0.42143 0.42149 0.0
H150 H 0.7565 0.49026 0.43408 0.0
H151 H 0.72581 0.42634 0.45259 0.0
C152 C 0.73327 0.43921 0.43209 0.0
C153 C 0.56799 0.40558 0.12987 0.0
N154 N 0.57014 0.38998 0.15374 0.0
N155 N 0.53126 0.38323 0.16775 0.0
C156 C 0.52601 0.41084 0.12877 0.0
C157 C 0.50328 0.39589 0.15327 0.0
C158 C 0.60374 0.41195 0.10815 0.0
H159 H 0.63413 0.46139 0.10794 0.0
H160 H 0.58233 0.39343 0.08841 0.0
H161 H 0.62239 0.38734 0.11161 0.0
C162 C 0.45834 0.39773 0.16323 0.0
H163 H 0.46102 0.43892 0.15772 0.0
H164 H 0.42219 0.3563 0.15361 0.0
H165 H 0.45672 0.39809 0.1852 0.0
C166 C 0.59355 0.19081 0.34962 0.0
C167 C 0.56518 0.33598 0.33038 0.0
Cu168 Cu 0.43593 0.23923 0.2945 0.0
Cu169 Cu 0.47249 0.22191 0.3424 0.0
Cu170 Cu 0.7475 0.29921 0.34132 0.0
Cu171 Cu 0.78848 0.3017 0.28807 0.0
Cu172 Cu 0.71047 0.38045 0.16283 0.0
Cu173 Cu 0.61597 0.37799 0.16958 0.0
Cu174 Cu 0.81895 0.34415 0.23485 0.0
Cu175 Cu 0.79411 0.3803 0.18907 0.0
Cu176 Cu 0.53183 0.36755 0.20285 0.0
Cu177 Cu 0.46694 0.31355 0.24855 0.0
Cu178 Cu 0.57087 0.27767 0.37255 0.0
Cu179 Cu 0.67637 0.31199 0.37766 0.0
H180 H 0.423 0.30236 0.3654 0.0
H181 H 0.37718 0.22147 0.35376 0.0
H182 H 0.38407 0.2797 0.33492 0.0
H183 H 0.52986 0.24604 0.28106 0.0
H184 H 0.56844 0.31478 0.26528 0.0
H185 H 0.51478 0.24539 0.24676 0.0
H186 H 0.88398 0.42452 0.32422 0.0
H187 H 0.87453 0.35371 0.33197 0.0
H188 H 0.85873 0.39811 0.35585 0.0
H189 H 0.68399 0.30219 0.30384 0.0
H190 H 0.68826 0.3727 0.31719 0.0
H191 H 0.6355 0.29867 0.32509 0.0
H192 H 0.68689 0.50951 0.15708 0.0
H193 H 0.71121 0.47732 0.13192 0.0
H194 H 0.75039 0.52397 0.16194 0.0
H195 H 0.70711 0.31037 0.2203 0.0
H196 H 0.6585 0.31609 0.20509 0.0
H197 H 0.69846 0.37181 0.23296 0.0
H198 H 0.75361 0.23595 0.16914 0.0
H199 H 0.82327 0.28817 0.17196 0.0
H200 H 0.79007 0.23277 0.19531 0.0
H201 H 0.78791 0.42312 0.25681 0.0
H202 H 0.73159 0.37626 0.27493 0.0
H203 H 0.79542 0.41414 0.29082 0.0
H204 H 0.44711 0.20869 0.18637 0.0
H205 H 0.40153 0.21819 0.20552 0.0
H206 H 0.43234 0.26324 0.1785 0.0
H207 H 0.62647 0.45485 0.23308 0.0
H208 H 0.63203 0.39516 0.24338 0.0
H209 H 0.67303 0.44072 0.21837 0.0
H210 H 0.62572 0.20357 0.33624 0.0
H211 H 0.58248 0.14872 0.35828 0.0
H212 H 0.56013 0.18192 0.33771 0.0
H213 H 0.58756 0.3735 0.34697 0.0
H214 H 0.59087 0.34233 0.31372 0.0
H215 H 0.53332 0.33925 0.32375 0.0
O216 O 0.44225 0.26576 0.33316 0.0
O217 O 0.4966 0.2923 0.2749 0.0
O218 O 0.80989 0.35103 0.32317 0.0
O219 O 0.70512 0.33246 0.34313 0.0
O220 O 0.68936 0.43808 0.16608 0.0
O221 O 0.73298 0.37979 0.19769 0.0
O222 O 0.78313 0.30578 0.19986 0.0
O223 O 0.77337 0.34 0.26286 0.0
O224 O 0.47717 0.28767 0.2122 0.0
O225 O 0.59786 0.37677 0.20661 0.0
O226 O 0.6077 0.23829 0.3697 0.0
O227 O 0.54601 0.27984 0.33886 0.0
C228 C 0.09391 0.54879 0.75683 0.0
C229 C 0.07518 0.49856 0.77069 0.0
C230 C 0.11193 0.51883 0.79145 0.0
N231 N 0.13879 0.59525 0.76909 0.0
N232 N 0.14956 0.57767 0.7897 0.0
C233 C 0.06514 0.55674 0.7362 0.0
H234 H 0.09229 0.59463 0.72488 0.0
H235 H 0.03864 0.56803 0.74631 0.0
H236 H 0.04182 0.51438 0.72188 0.0
C237 C 0.10948 0.48478 0.81361 0.0
H238 H 0.14907 0.50225 0.82125 0.0
H239 H 0.08828 0.43461 0.80662 0.0
H240 H 0.08877 0.49232 0.83028 0.0
C241 C 0.57195 0.87836 0.62892 0.0
C242 C 0.50318 0.82139 0.60147 0.0
C243 C 0.55218 0.87477 0.60353 0.0
N244 N 0.5356 0.82934 0.64076 0.0
N245 N 0.49477 0.79672 0.62406 0.0
H246 H 0.65426 0.93322 0.63022 0.0
H247 H 0.62556 0.97428 0.64235 0.0
H248 H 0.62665 0.92252 0.66273 0.0
C249 C 0.62245 0.93005 0.64211 0.0
H250 H 0.42596 0.75646 0.58414 0.0
H251 H 0.47413 0.79902 0.56074 0.0
H252 H 0.45079 0.83668 0.58296 0.0
C253 C 0.46085 0.80189 0.58116 0.0
C254 C 0.20386 0.7559 0.81914 0.0
C255 C 0.24802 0.65513 0.73646 0.0
C256 C 0.43674 0.52407 0.78246 0.0
N257 N 0.45661 0.58473 0.78713 0.0
N258 N 0.48444 0.61143 0.76707 0.0
C259 C 0.45252 0.5114 0.75763 0.0
C260 C 0.4831 0.56887 0.74859 0.0
H261 H 0.41318 0.50455 0.82241 0.0
H262 H 0.41232 0.44325 0.801 0.0
H263 H 0.36331 0.45879 0.79671 0.0
C264 C 0.40484 0.48014 0.80182 0.0
H265 H 0.51358 0.62623 0.7173 0.0
H266 H 0.48442 0.54457 0.70634 0.0
H267 H 0.54665 0.59044 0.72412 0.0
C268 C 0.50805 0.5832 0.72243 0.0
C269 C 0.12398 0.73953 0.72069 0.0
C270 C 0.10458 0.71256 0.76119 0.0
N271 N 0.15225 0.71877 0.72789 0.0
N272 N 0.14164 0.70422 0.75228 0.0
C273 C 0.09267 0.73609 0.74155 0.0
H274 H 0.08993 0.75098 0.68745 0.0
H275 H 0.15402 0.81499 0.69838 0.0
H276 H 0.1456 0.7465 0.67989 0.0
C277 C 0.1284 0.76398 0.69494 0.0
C278 C 0.08284 0.70044 0.78816 0.0
H279 H 0.04008 0.67115 0.78631 0.0
H280 H 0.09442 0.74471 0.80041 0.0
H281 H 0.09692 0.67685 0.79826 0.0
C282 C 0.54471 0.75916 0.82497 0.0
C283 C 0.3513 0.5859 0.78799 0.0
C284 C 0.41002 0.63234 0.61182 0.0
N285 N 0.39496 0.66913 0.62213 0.0
C286 C 0.36728 0.578 0.59972 0.0
N287 N 0.34491 0.64229 0.618 0.0
C288 C 0.32623 0.58578 0.60402 0.0
H289 H 0.48974 0.69309 0.62581 0.0
H290 H 0.47905 0.66287 0.59073 0.0
H291 H 0.46909 0.61411 0.61525 0.0
C292 C 0.46528 0.65188 0.61101 0.0
H293 H 0.24701 0.55778 0.60213 0.0
C294 C 0.27106 0.54001 0.59507 0.0
H295 H 0.2677 0.52935 0.57298 0.0
H296 H 0.25717 0.49642 0.6032 0.0
C297 C 0.4037 0.59062 0.88494 0.0
C298 C 0.4714 0.60231 0.86395 0.0
N299 N 0.40441 0.60737 0.86093 0.0
N300 N 0.44497 0.61508 0.84835 0.0
C301 C 0.44567 0.58579 0.88764 0.0
H302 H 0.33428 0.53553 0.90478 0.0
C303 C 0.36626 0.58468 0.9056 0.0
H304 H 0.34987 0.61153 0.9017 0.0
H305 H 0.38544 0.60091 0.92589 0.0
H306 H 0.51584 0.56206 0.86167 0.0
H307 H 0.55292 0.64471 0.86641 0.0
C308 C 0.51827 0.60286 0.85584 0.0
H309 H 0.52252 0.6036 0.83398 0.0
C310 C 0.3992 0.83199 0.64571 0.0
C311 C 0.42288 0.69792 0.6856 0.0
C312 C 0.56974 0.89512 0.74748 0.0
N313 N 0.55068 0.84841 0.72763 0.0
C314 C 0.57889 0.94702 0.73724 0.0
C315 C 0.55972 0.92491 0.71054 0.0
N316 N 0.54401 0.86538 0.70556 0.0
C317 C 0.5798 0.88931 0.77541 0.0
H318 H 0.54652 0.8459 0.78135 0.0
H319 H 0.61391 0.88613 0.77612 0.0
H320 H 0.58628 0.92892 0.78975 0.0
C321 C 0.5588 0.96026 0.68988 0.0
H322 H 0.54042 0.92988 0.67078 0.0
H323 H 0.53598 0.97983 0.69679 0.0
H324 H 0.59866 0.99889 0.68683 0.0
C325 C 0.14284 0.61342 0.86342 0.0
C326 C 0.14935 0.59882 0.88797 0.0
C327 C 0.1965 0.60393 0.88673 0.0
N328 N 0.18386 0.62597 0.84894 0.0
N329 N 0.21551 0.61962 0.86275 0.0
H330 H 0.09791 0.65185 0.86171 0.0
H331 H 0.06061 0.56928 0.85904 0.0
H332 H 0.09639 0.60766 0.83094 0.0
C333 C 0.09661 0.61 0.85301 0.0
C334 C 0.22417 0.59714 0.90831 0.0
H335 H 0.21789 0.61504 0.92815 0.0
H336 H 0.20866 0.54766 0.90821 0.0
H337 H 0.26613 0.62193 0.9049 0.0
C338 C 0.57651 0.74251 0.67334 0.0
C339 C 0.44944 0.73276 0.75449 0.0
C340 C 0.29072 0.84306 0.66833 0.0
C341 C 0.29489 0.88455 0.69011 0.0
C342 C 0.2708 0.8482 0.7105 0.0
N343 N 0.26748 0.7869 0.67619 0.0
N344 N 0.25446 0.78982 0.70106 0.0
C345 C 0.30397 0.85507 0.64013 0.0
H346 H 0.30713 0.81839 0.62878 0.0
H347 H 0.27252 0.85479 0.63013 0.0
H348 H 0.34049 0.90072 0.63967 0.0
C349 C 0.25855 0.86721 0.7374 0.0
H350 H 0.22901 0.82676 0.74673 0.0
H351 H 0.29381 0.89232 0.75084 0.0
H352 H 0.24528 0.89826 0.73571 0.0
C353 C 0.62516 0.74297 0.76981 0.0
C354 C 0.66746 0.78572 0.7567 0.0
C355 C 0.64757 0.80696 0.73998 0.0
N356 N 0.58338 0.73991 0.76112 0.0
N357 N 0.5965 0.77727 0.74303 0.0
C358 C 0.62391 0.70467 0.7897 0.0
H359 H 0.66079 0.72994 0.80191 0.0
H360 H 0.61841 0.6618 0.77888 0.0
H361 H 0.59091 0.69126 0.80274 0.0
C362 C 0.6757 0.85148 0.72035 0.0
H363 H 0.70497 0.89735 0.73117 0.0
H364 H 0.69623 0.83597 0.70678 0.0
H365 H 0.64859 0.85604 0.70867 0.0
C366 C 0.15898 0.59449 0.6776 0.0
C367 C 0.32662 0.7146 0.68795 0.0
C368 C 0.34404 0.75195 0.87922 0.0
N369 N 0.33421 0.70292 0.862 0.0
N370 N 0.37521 0.70021 0.86073 0.0
C371 C 0.39421 0.7813 0.89001 0.0
C372 C 0.4126 0.74667 0.87779 0.0
H373 H 0.2731 0.74543 0.87235 0.0
H374 H 0.28605 0.74057 0.90617 0.0
H375 H 0.32091 0.81382 0.89396 0.0
C376 C 0.30374 0.76388 0.88834 0.0
H377 H 0.47394 0.73429 0.86735 0.0
H378 H 0.49293 0.80247 0.89094 0.0
H379 H 0.45634 0.72718 0.90146 0.0
C380 C 0.46209 0.75336 0.88467 0.0
C381 C 0.25242 0.66605 0.58414 0.0
N382 N 0.27172 0.69161 0.60927 0.0
N383 N 0.23718 0.69685 0.62298 0.0
C384 C 0.20241 0.65255 0.58222 0.0
C385 C 0.19476 0.67406 0.60732 0.0
C386 C 0.27905 0.64973 0.56293 0.0
H387 H 0.28472 0.67529 0.54591 0.0
H388 H 0.25448 0.60007 0.55512 0.0
H389 H 0.31723 0.66215 0.57055 0.0
C390 C 0.14418 0.65928 0.61792 0.0
H391 H 0.12321 0.66755 0.60345 0.0
H392 H 0.12002 0.60984 0.62057 0.0
H393 H 0.15032 0.68766 0.63744 0.0
C394 C 0.26275 0.51843 0.85639 0.0
C395 C 0.30545 0.69111 0.79794 0.0
Cu396 Cu 0.17906 0.67814 0.76671 0.0
Cu397 Cu 0.20039 0.64049 0.8138 0.0
Cu398 Cu 0.44986 0.63545 0.81367 0.0
Cu399 Cu 0.51492 0.69587 0.76967 0.0
Cu400 Cu 0.4321 0.7487 0.63798 0.0
Cu401 Cu 0.32346 0.69666 0.62966 0.0
Cu402 Cu 0.54326 0.77338 0.72527 0.0
Cu403 Cu 0.52174 0.80535 0.67576 0.0
Cu404 Cu 0.24485 0.7079 0.65981 0.0
Cu405 Cu 0.20525 0.71498 0.71228 0.0
Cu406 Cu 0.27446 0.6336 0.84602 0.0
Cu407 Cu 0.36377 0.62604 0.84428 0.0
H408 H 0.23951 0.78718 0.83207 0.0
H409 H 0.1705 0.73147 0.83179 0.0
H410 H 0.19756 0.78332 0.80671 0.0
H411 H 0.22985 0.61979 0.75019 0.0
H412 H 0.29045 0.68273 0.74024 0.0
H413 H 0.23812 0.63172 0.71567 0.0
H414 H 0.58116 0.78453 0.81453 0.0
H415 H 0.54912 0.7349 0.84001 0.0
H416 H 0.53613 0.79255 0.83494 0.0
H417 H 0.34445 0.54047 0.78998 0.0
H418 H 0.36726 0.59919 0.76831 0.0
H419 H 0.31408 0.58222 0.78955 0.0
H420 H 0.36984 0.82401 0.66045 0.0
H421 H 0.40044 0.86059 0.631 0.0
H422 H 0.43754 0.85653 0.65646 0.0
H423 H 0.38877 0.66155 0.67272 0.0
H424 H 0.40941 0.70495 0.70526 0.0
H425 H 0.44888 0.68208 0.68756 0.0
H426 H 0.55589 0.70408 0.65681 0.0
H427 H 0.60656 0.78485 0.66516 0.0
H428 H 0.59481 0.72997 0.68742 0.0
H429 H 0.45538 0.77206 0.74522 0.0
H430 H 0.40912 0.6928 0.75016 0.0
H431 H 0.45649 0.74634 0.77639 0.0
H432 H 0.15157 0.58066 0.6979 0.0
H433 H 0.12167 0.57218 0.66608 0.0
H434 H 0.1832 0.57969 0.66739 0.0
H435 H 0.31297 0.73837 0.70185 0.0
H436 H 0.32475 0.67749 0.69719 0.0
H437 H 0.36663 0.7493 0.68355 0.0
H438 H 0.28016 0.49123 0.85198 0.0
H439 H 0.26498 0.53184 0.87821 0.0
H440 H 0.22172 0.49011 0.84895 0.0
H441 H 0.29448 0.72063 0.79062 0.0
H442 H 0.33951 0.72032 0.81204 0.0
H443 H 0.31584 0.66946 0.78095 0.0
O444 O 0.20929 0.71403 0.80289 0.0
O445 O 0.23039 0.69306 0.74071 0.0
O446 O 0.50516 0.71719 0.80684 0.0
O447 O 0.3856 0.62893 0.80801 0.0
O448 O 0.3883 0.77688 0.63262 0.0
O449 O 0.44749 0.75192 0.67463 0.0
O450 O 0.54202 0.75252 0.68641 0.0
O451 O 0.48302 0.71732 0.7446 0.0
O452 O 0.18424 0.65718 0.67931 0.0
O453 O 0.29603 0.68961 0.66497 0.0
O454 O 0.28901 0.57003 0.84387 0.0
O455 O 0.265 0.64633 0.81053 0.0
H456 H 0.4139 0.8968 0.89671 0.0
H457 H 0.44696 0.97132 0.93769 0.0
H458 H 0.45709 0.84306 0.97815 0.0
H459 H 0.42353 0.76847 0.93744 0.0
H460 H 0.40134 0.95069 0.98864 0.0
H461 H 0.60138 0.00522 0.99285 0.0
H462 H 0.56001 0.96951 0.96277 0.0
H463 H 0.55108 0.92458 0.98886 0.0
C464 C 0.42346 0.8849 0.91438 0.0
C465 C 0.4168 0.82749 0.91401 0.0
C466 C 0.44233 0.9273 0.93766 0.0
C467 C 0.45506 0.91286 0.96075 0.0
C468 C 0.4485 0.85549 0.96035 0.0
H469 H 0.57228 0.10784 0.12108 0.0
H470 H 0.53681 0.02999 0.08119 0.0
C471 C 0.42954 0.8131 0.93712 0.0
C472 C 0.47329 0.9568 0.98563 0.0
H473 H 0.57613 0.04462 0.03053 0.0
C474 C 0.4396 0.97149 0.99779 0.0
C475 C 0.52308 0.98332 0.9975 0.0
C476 C 0.56125 0.97039 0.98477 0.0
C477 C 0.45423 0.01167 0.02179 0.0
C478 C 0.5042 0.03862 0.03357 0.0
C479 C 0.53778 0.02366 0.02146 0.0
C480 C 0.52307 0.08398 0.05803 0.0
C481 C 0.41578 0.02406 0.03456 0.0
C482 C 0.52727 0.13997 0.05807 0.0
C483 C 0.54733 0.18408 0.08071 0.0
C484 C 0.56374 0.17295 0.10358 0.0
C485 C 0.5596 0.11703 0.10361 0.0
C486 C 0.53942 0.07279 0.08094 0.0
H487 H 0.3755 0.98731 0.02736 0.0
H488 H 0.41863 0.02783 0.05666 0.0
H489 H 0.42396 0.06824 0.02932 0.0
H490 H 0.51615 0.15015 0.04037 0.0
H491 H 0.55144 0.22761 0.08007 0.0
H492 H 0.38554 0.4936 0.61144 0.0
H493 H 0.43286 0.45925 0.58321 0.0
H494 H 0.41389 0.53588 0.51755 0.0
H495 H 0.36657 0.57031 0.5458 0.0
H496 H 0.41166 0.39995 0.51358 0.0
H497 H 0.58006 0.63013 0.55681 0.0
H498 H 0.52584 0.58533 0.57676 0.0
H499 H 0.51846 0.61899 0.55006 0.0
C500 C 0.38873 0.49969 0.59051 0.0
C501 C 0.37174 0.53369 0.58064 0.0
C502 C 0.41639 0.48084 0.57452 0.0
C503 C 0.42727 0.49559 0.54841 0.0
C504 C 0.40572 0.5239 0.53764 0.0
H505 H 0.6486 0.53372 0.43381 0.0
H506 H 0.59929 0.55261 0.46778 0.0
C507 C 0.37802 0.54274 0.55365 0.0
C508 C 0.46713 0.49006 0.53396 0.0
H509 H 0.59719 0.57005 0.52531 0.0
C510 C 0.45225 0.43678 0.51625 0.0
C511 C 0.51998 0.5385 0.53743 0.0
C512 C 0.53754 0.5967 0.55626 0.0
C513 C 0.48897 0.431 0.50159 0.0
C514 C 0.542 0.47949 0.50508 0.0
C515 C 0.55674 0.5327 0.5229 0.0
C516 C 0.58187 0.47721 0.48885 0.0
C517 C 0.47054 0.37397 0.48176 0.0
C518 C 0.59179 0.43158 0.49062 0.0
C519 C 0.62091 0.42161 0.4715 0.0
C520 C 0.64046 0.45712 0.45035 0.0
C521 C 0.6351 0.50681 0.45029 0.0
C522 C 0.60619 0.51695 0.46946 0.0
H523 H 0.42799 0.34644 0.47784 0.0
H524 H 0.48942 0.38643 0.46252 0.0
H525 H 0.48099 0.3445 0.48972 0.0
H526 H 0.57404 0.40095 0.50566 0.0
H527 H 0.62332 0.38201 0.47158 0.0
H528 H 0.86872 0.35517 0.08465 0.0
H529 H 0.92236 0.38766 0.04586 0.0
H530 H 0.89861 0.53442 0.04471 0.0
H531 H 0.84666 0.50353 0.08399 0.0
H532 H 0.89752 0.39829 0.99455 0.0
H533 H 0.05613 0.6243 0.04606 0.0
H534 H 0.00742 0.56411 0.06396 0.0
H535 H 0.99312 0.61138 0.04846 0.0
C536 C 0.87539 0.3947 0.07626 0.0
C537 C 0.85369 0.42696 0.08739 0.0
C538 C 0.9057 0.41294 0.054 0.0
C539 C 0.91511 0.46402 0.04263 0.0
C540 C 0.89259 0.49552 0.05342 0.0
H541 H 0.09912 0.65071 0.91101 0.0
H542 H 0.03944 0.61645 0.94747 0.0
C543 C 0.86233 0.4773 0.07565 0.0
C544 C 0.94838 0.48427 0.01945 0.0
H545 H 0.0604 0.60518 0.99928 0.0
C546 C 0.9332 0.44345 0.99558 0.0
C547 C -0.00514 0.54329 0.02083 0.0
C548 C 0.01423 0.5882 0.04625 0.0
C549 C 0.96295 0.46032 0.97295 0.0
C550 C 0.00957 0.51921 0.97438 0.0
C551 C 0.02457 0.56015 0.9982 0.0
C552 C 0.04415 0.53866 0.95167 0.0
C553 C 0.94379 0.41533 0.94756 0.0
C554 C 0.06681 0.50657 0.94205 0.0
C555 C 0.10062 0.52591 0.92122 0.0
C556 C 0.11274 0.57799 0.90973 0.0
C557 C 0.09 0.61004 0.91931 0.0
C558 C 0.05619 0.59073 0.94021 0.0
H559 H 0.90162 0.38016 0.94744 0.0
H560 H 0.95191 0.43945 0.92975 0.0
H561 H 0.96393 0.39098 0.94587 0.0
H562 H 0.05878 0.46688 0.95085 0.0
H563 H 0.11693 0.49975 0.91396 0.0
H564 H 0.57752 0.87636 0.55178 0.0
H565 H 0.563 0.92863 0.5198 0.0
H566 H 0.53545 0.02935 0.58469 0.0
H567 H 0.55034 0.97723 0.61666 0.0
H568 H 0.46668 0.91134 0.51512 0.0
H569 H 0.61904 0.16083 0.53559 0.0
H570 H 0.62585 0.10281 0.54667 0.0
H571 H 0.58732 0.12609 0.56463 0.0
C572 C 0.57135 0.91228 0.55929 0.0
C573 C 0.56633 0.92379 0.58676 0.0
C574 C 0.56212 0.94139 0.54096 0.0
C575 C 0.54798 0.98299 0.54971 0.0
C576 C 0.5471 0.99831 0.57736 0.0
H577 H 0.44145 0.17023 0.46815 0.0
H578 H 0.45644 0.12064 0.50136 0.0
C579 C 0.5563 0.96907 0.59572 0.0
C580 C 0.52818 0.00417 0.52997 0.0
H581 H 0.54727 0.13206 0.50736 0.0
C582 C 0.48452 0.95964 0.51333 0.0
C583 C 0.55091 0.06713 0.52775 0.0
C584 C 0.59864 0.11707 0.54443 0.0
C585 C 0.46274 0.97623 0.49486 0.0
C586 C 0.4857 0.0392 0.49246 0.0
C587 C 0.5293 0.08376 0.50918 0.0
C588 C 0.46639 0.06021 0.47232 0.0
C589 C 0.41458 0.92605 0.47853 0.0
C590 C 0.46442 0.04093 0.44481 0.0
C591 C 0.45458 0.06835 0.42582 0.0
C592 C 0.44693 0.11593 0.43392 0.0
C593 C 0.44548 0.13227 0.46136 0.0
C594 C 0.45506 0.10472 0.48035 0.0
H595 H 0.39303 0.8837 0.48837 0.0
H596 H 0.38844 0.94129 0.47517 0.0
H597 H 0.42562 0.9139 0.45881 0.0
H598 H 0.47411 0.00783 0.43794 0.0
H599 H 0.45794 0.05657 0.40485 0.0
H600 H 0.43327 0.35529 0.10093 0.0
H601 H 0.41686 0.38525 0.06008 0.0
H602 H 0.57353 0.54473 0.06646 0.0
H603 H 0.58948 0.5157 0.10733 0.0
H604 H 0.50059 0.56849 0.05142 0.0
H605 H 0.47786 0.36375 0.98909 0.0
H606 H 0.43553 0.34739 0.01631 0.0
H607 H 0.50395 0.38768 0.02314 0.0
C608 C 0.46367 0.39732 0.09382 0.0
C609 C 0.51276 0.43286 0.10692 0.0
C610 C 0.45453 0.41404 0.07041 0.0
C611 C 0.4944 0.46648 0.05996 0.0
C612 C 0.54243 0.50381 0.07402 0.0
H613 H 0.537 0.64198 0.91699 0.0
H614 H 0.55136 0.61272 0.95858 0.0
C615 C 0.55154 0.48708 0.09727 0.0
C616 C 0.48732 0.48157 0.03384 0.0
H617 H 0.46651 0.42978 0.96697 0.0
C618 C 0.49311 0.53821 0.03294 0.0
C619 C 0.47805 0.44216 0.00977 0.0
C620 C 0.4739 0.38205 0.00944 0.0
C621 C 0.48898 0.55607 0.00861 0.0
C622 C 0.47976 0.51667 0.98455 0.0
C623 C 0.47388 0.46 0.98546 0.0
C624 C 0.47343 0.53208 0.95836 0.0
C625 C 0.49336 0.6163 0.00891 0.0
C626 C 0.42575 0.49497 0.94395 0.0
C627 C 0.41778 0.51128 0.92027 0.0
C628 C 0.45739 0.56481 0.91049 0.0
C629 C 0.50599 0.60037 0.92413 0.0
C630 C 0.51396 0.5841 0.94797 0.0
H631 H 0.48919 0.63453 0.02923 0.0
H632 H 0.53189 0.6509 1.00216 0.0
H633 H 0.46357 0.61088 0.99508 0.0
H634 H 0.39415 0.45437 0.95147 0.0
H635 H 0.38018 0.48268 0.90986 0.0
H636 H 0.75552 0.2292 0.46236 0.0
H637 H 0.81988 0.2604 0.49905 0.0
H638 H 0.93573 0.40743 0.45739 0.0
H639 H 0.87253 0.37771 0.42168 0.0
H640 H 0.96319 0.32603 0.47873 0.0
H641 H 0.88561 0.43218 0.55073 0.0
H642 H 0.84431 0.35471 0.53377 0.0
H643 H 0.86852 0.41887 0.51557 0.0
C644 C 0.7949 0.26788 0.46123 0.0
C645 C 0.80974 0.30036 0.43912 0.0
C646 C 0.83138 0.2854 0.48198 0.0
C647 C 0.88245 0.33551 0.48053 0.0
C648 C 0.89669 0.36786 0.45851 0.0
H649 H 0.13681 0.65317 0.54819 0.0
H650 H 0.05605 0.56261 0.52687 0.0
C651 C 0.86067 0.3507 0.4381 0.0
C652 C 0.92206 0.35874 0.5021 0.0
H653 H 0.97478 0.47351 0.55465 0.0
C654 C 0.96547 0.35664 0.49604 0.0
C655 C 0.92436 0.39845 0.52446 0.0
C656 C 0.87831 0.4015 0.53175 0.0
C657 C 0.01316 0.39883 0.50982 0.0
C658 C 0.01665 0.4429 0.53045 0.0
C659 C 0.97185 0.44015 0.53847 0.0
C660 C 0.06689 0.49647 0.54179 0.0
C661 C 0.06019 0.39969 0.50056 0.0
C662 C 0.0998 0.48883 0.55662 0.0
C663 C 0.14609 0.54023 0.56819 0.0
C664 C 0.15984 0.5998 0.56521 0.0
C665 C 0.12735 0.60749 0.55007 0.0
C666 C 0.08119 0.55602 0.53827 0.0
H667 H 0.05199 0.36853 0.48162 0.0
H668 H 0.0921 0.44706 0.49757 0.0
H669 H 0.07373 0.3846 0.51605 0.0
H670 H 0.08892 0.44338 0.56 0.0
H671 H 0.16977 0.53353 0.58069 0.0
H672 H 0.61649 0.03841 0.26311 0.0
H673 H 0.58437 0.92855 0.25689 0.0
H674 H 0.6801 0.95876 0.3249 0.0
H675 H 0.71347 0.06875 0.33064 0.0
H676 H 0.65161 0.87957 0.2504 0.0
H677 H 0.52861 0.81125 0.33816 0.0
H678 H 0.54677 0.87913 0.32335 0.0
H679 H 0.59305 0.87927 0.3438 0.0
C680 C 0.63078 0.02151 0.27661 0.0
C681 C 0.66702 0.06174 0.29748 0.0
C682 C 0.61222 0.9589 0.27316 0.0
C683 C 0.62932 0.93559 0.2907 0.0
C684 C 0.6657 0.97576 0.3115 0.0
H685 H 0.56824 0.57248 0.29924 0.0
H686 H 0.5917 0.67915 0.30951 0.0
C687 C 0.68453 0.03843 0.31483 0.0
C688 C 0.61084 0.86971 0.28651 0.0
H689 H 0.53749 0.73523 0.3132 0.0
C690 C 0.62649 0.84785 0.26403 0.0
C691 C 0.57862 0.82892 0.30455 0.0
C692 C 0.56035 0.8504 0.32878 0.0
C693 C 0.61115 0.78615 0.2592 0.0
C694 C 0.57796 0.74481 0.27693 0.0
C695 C 0.56264 0.76688 0.29956 0.0
C696 C 0.55894 0.67859 0.27217 0.0
C697 C 0.63173 0.76626 0.23548 0.0
C698 C 0.53095 0.6423 0.24832 0.0
C699 C 0.5179 0.58189 0.24245 0.0
C700 C 0.53178 0.55641 0.26053 0.0
C701 C 0.55686 0.59121 0.28513 0.0
C702 C 0.57043 0.65205 0.29091 0.0
H703 H 0.66756 0.80605 0.22873 0.0
H704 H 0.64011 0.73234 0.24022 0.0
H705 H 0.6024 0.74437 0.21859 0.0
H706 H 0.52043 0.66127 0.23391 0.0
H707 H 0.49801 0.55547 0.22348 0.0
H708 H 0.99073 0.66811 0.75053 0.0
H709 H 0.93197 0.70296 0.75537 0.0
H710 H 0.05592 0.88477 0.74096 0.0
H711 H 0.11514 0.84992 0.73635 0.0
H712 H 0.94567 0.80443 0.79321 0.0
H713 H 0.93548 0.83361 0.68662 0.0
H714 H 0.95808 0.78818 0.69646 0.0
H715 H -0.00185 0.87056 0.70325 0.0
C716 C 0.00542 0.71558 0.74864 0.0
C717 C 0.05718 0.75662 0.74331 0.0
C718 C 0.97195 0.73535 0.75128 0.0
C719 C 0.98979 0.79632 0.74848 0.0
C720 C 0.04151 0.83741 0.74293 0.0
H721 H 0.75993 0.8973 0.76327 0.0
H722 H 0.84673 0.91572 0.76274 0.0
C723 C 0.07507 0.81753 0.74025 0.0
C724 C 0.95344 0.81579 0.75152 0.0
H725 H 0.87741 0.84055 0.7152 0.0
C726 C 0.93154 0.81385 0.77634 0.0
C727 C 0.93545 0.8282 0.72943 0.0
C728 C 0.95765 0.83012 0.70234 0.0
C729 C 0.88966 0.82006 0.77922 0.0
C730 C 0.86946 0.8282 0.75671 0.0
C731 C 0.89354 0.83456 0.73237 0.0
C732 C 0.81837 0.81897 0.75694 0.0
C733 C 0.86501 0.81395 0.80578 0.0
C734 C 0.7745 0.75868 0.75363 0.0
C735 C 0.72547 0.74817 0.75362 0.0
C736 C 0.71965 0.79784 0.75708 0.0
C737 C 0.76365 0.85836 0.76031 0.0
C738 C 0.81298 0.86893 0.76017 0.0
H739 H 0.89046 0.81895 0.82228 0.0
H740 H 0.8555 0.84908 0.81042 0.0
H741 H 0.82836 0.76786 0.80478 0.0
H742 H 0.77831 0.71974 0.75089 0.0
H743 H 0.69214 0.70116 0.75045 0.0
H744 H 0.33075 0.98434 0.31617 0.0
H745 H 0.26219 0.87872 0.29973 0.0
H746 H 0.33254 0.8956 0.2237 0.0
H747 H 0.40256 0.00177 0.24054 0.0
H748 H 0.23139 0.86403 0.22058 0.0
H749 H 0.2443 0.71204 0.28128 0.0
H750 H 0.25042 0.77703 0.30172 0.0
H751 H 0.29858 0.78898 0.27803 0.0
C752 C 0.33308 0.9646 0.29645 0.0
C753 C 0.37211 0.00067 0.27968 0.0
C754 C 0.29372 0.90427 0.287 0.0
C755 C 0.29267 0.8791 0.26062 0.0
C756 C 0.33302 0.9141 0.2442 0.0
H757 H 9e-05 0.55141 0.18673 0.0
H758 H 0.09175 0.63631 0.19093 0.0
C759 C 0.37274 0.97453 0.25376 0.0
C760 C 0.24539 0.82046 0.24943 0.0
H761 H 0.15843 0.6752 0.26373 0.0
C762 C 0.21591 0.82204 0.22942 0.0
C763 C 0.22547 0.76599 0.26105 0.0
C764 C 0.25665 0.76066 0.28153 0.0
C765 C 0.1652 0.7721 0.22228 0.0
C766 C 0.14404 0.71934 0.23534 0.0
C767 C 0.17476 0.71615 0.25399 0.0
C768 C 0.08873 0.66958 0.23195 0.0
C769 C 0.13345 0.77761 0.20221 0.0
C770 C 0.05701 0.66075 0.25356 0.0
C771 C 0.00498 0.61283 0.25115 0.0
C772 C 0.98406 0.57295 0.22714 0.0
C773 C 0.01545 0.5824 0.2053 0.0
C774 C 0.06765 0.63047 0.20771 0.0
H775 H 0.15361 0.8247 0.19646 0.0
H776 H 0.12522 0.74473 0.18391 0.0
H777 H 0.09587 0.76563 0.21041 0.0
H778 H 0.07268 0.6908 0.27237 0.0
H779 H 0.98118 0.60642 0.26813 0.0
H780 H 0.35957 0.40109 0.75593 0.0
H781 H 0.34029 0.29944 0.7395 0.0
H782 H 0.49162 0.38132 0.70749 0.0
H783 H 0.51383 0.48292 0.72773 0.0
H784 H 0.32841 0.23859 0.69636 0.0
H785 H 0.49895 0.26656 0.74517 0.0
H786 H 0.4843 0.32427 0.75134 0.0
H787 H 0.51704 0.32014 0.72184 0.0
C788 C 0.38949 0.39756 0.74624 0.0
C789 C 0.43892 0.45026 0.74411 0.0
C790 C 0.37801 0.33916 0.73627 0.0
C791 C 0.41498 0.33192 0.72287 0.0
C792 C 0.46308 0.38498 0.71876 0.0
H793 H 0.28695 0.94685 0.65243 0.0
H794 H 0.32251 0.05652 0.65594 0.0
C795 C 0.47536 0.44345 0.72981 0.0
C796 C 0.40261 0.26869 0.71375 0.0
H797 H 0.44574 0.17456 0.71626 0.0
C798 C 0.35402 0.22459 0.70093 0.0
C799 C 0.43576 0.24988 0.71971 0.0
C800 C 0.48662 0.29253 0.7355 0.0
C801 C 0.33652 0.16218 0.69523 0.0
C802 C 0.37017 0.14368 0.70056 0.0
C803 C 0.41981 0.18838 0.71209 0.0
C804 C 0.35352 0.07786 0.69664 0.0
C805 C 0.28102 0.11679 0.68518 0.0
C806 C 0.36264 0.05355 0.71737 0.0
C807 C 0.34552 0.99156 0.71461 0.0
C808 C 0.31709 0.95155 0.69149 0.0
C809 C 0.30911 0.97606 0.67044 0.0
C810 C 0.3283 0.03885 0.67273 0.0
H811 H 0.25692 0.13561 0.69025 0.0
H812 H 0.27939 0.1068 0.66309 0.0
H813 H 0.26358 0.073 0.69375 0.0
H814 H 0.38249 0.08234 0.73597 0.0
H815 H 0.35442 0.97505 0.73076 0.0
H816 H 0.22506 0.11079 0.24983 0.0
H817 H 0.13705 0.08554 0.24233 0.0
H818 H 0.19653 0.27935 0.25154 0.0
H819 H 0.28364 0.3045 0.25955 0.0
H820 H 0.08158 0.12191 0.277 0.0
H821 H 0.11016 0.2099 0.18015 0.0
H822 H 0.15233 0.19096 0.19342 0.0
H823 H 0.1614 0.26448 0.20421 0.0
C824 C 0.21901 0.14775 0.25048 0.0
C825 C 0.2608 0.20953 0.25513 0.0
C826 C 0.16904 0.13333 0.24594 0.0
C827 C 0.16075 0.18065 0.24577 0.0
C828 C 0.20249 0.24225 0.25084 0.0
H829 H 0.96142 0.28049 0.29206 0.0
H830 H 0.01538 0.23922 0.28689 0.0
C831 C 0.25212 0.25658 0.25544 0.0
C832 C 0.10851 0.16716 0.24178 0.0
H833 H 0.04563 0.21292 0.20755 0.0
C834 C 0.07285 0.14011 0.2614 0.0
C835 C 0.09673 0.18945 0.22102 0.0
C836 C 0.132 0.2147 0.19834 0.0
C837 C 0.02805 0.14083 0.26237 0.0
C838 C 0.01969 0.17036 0.24355 0.0
C839 C 0.05254 0.19127 0.22228 0.0
C840 C 0.98232 0.18834 0.24766 0.0
C841 C 0.99141 0.11253 0.28423 0.0
C842 C 0.94665 0.17454 0.22709 0.0
C843 C 0.91625 0.19879 0.22994 0.0
C844 C 0.92139 0.23729 0.25332 0.0
C845 C 0.95636 0.25017 0.27403 0.0
C846 C 0.98684 0.2262 0.27115 0.0
H847 H 0.99133 0.07287 0.28975 0.0
H848 H 0.00434 0.14727 0.30231 0.0
H849 H 0.95136 0.09667 0.27817 0.0
H850 H 0.94303 0.14594 0.2087 0.0
H851 H 0.88882 0.18751 0.21389 0.0
H852 H 0.00565 0.45476 0.8094 0.0
H853 H 0.9162 0.36607 0.8041 0.0
H854 H 0.93429 0.33584 0.71962 0.0
H855 H 0.02544 0.41928 0.72561 0.0
H856 H 0.8352 0.34202 0.778 0.0
H857 H 0.87831 0.16978 0.73667 0.0
H858 H 0.92848 0.24726 0.7499 0.0
H859 H 0.90185 0.22996 0.71624 0.0
C860 C 0.99096 0.4277 0.78992 0.0
C861 C 0.02235 0.4432 0.76793 0.0
C862 C 0.93961 0.37793 0.78679 0.0
C863 C 0.91871 0.34382 0.76151 0.0
C864 C 0.94989 0.36038 0.73943 0.0
H865 H 0.58686 0.05552 0.73122 0.0
H866 H 0.6666 0.15856 0.73727 0.0
C867 C 0.00168 0.4086 0.74277 0.0
C868 C 0.8647 0.29007 0.75844 0.0
H869 H 0.79092 0.13742 0.73486 0.0
C870 C 0.8254 0.29702 0.76879 0.0
C871 C 0.85214 0.23152 0.74641 0.0
C872 C 0.89251 0.21903 0.73695 0.0
C873 C 0.77399 0.2464 0.76818 0.0
C874 C 0.76165 0.18819 0.75594 0.0
C875 C 0.80059 0.18216 0.74443 0.0
C876 C 0.71028 0.13086 0.75678 0.0
C877 C 0.73399 0.25521 0.78145 0.0
C878 C 0.70801 0.08169 0.76618 0.0
C879 C 0.66433 0.0227 0.76091 0.0
C880 C 0.62021 0.01149 0.74757 0.0
C881 C 0.62044 0.06201 0.74086 0.0
C882 C 0.66569 0.1213 0.74486 0.0
H883 H 0.75202 0.29899 0.79535 0.0
H884 H 0.71035 0.25668 0.76591 0.0
H885 H 0.70778 0.21646 0.79273 0.0
H886 H 0.74188 0.08804 0.77558 0.0
H887 H 0.66751 0.98589 0.76549 0.0
loop_
_geom_bond_atom_site_label_1
_geom_bond_atom_site_label_2
_geom_bond_distance
_geom_bond_site_symmetry_2
_ccdc_geom_bond_type
C0 C1 1.388 . S
C0 N3 1.338 . S
C0 C5 1.503 . S
C1 C0 1.388 . S
C1 C2 1.396 . S
C2 C1 1.396 . S
C2 N4 1.348 . S
C2 C9 1.504 . S
N3 C0 1.338 . S
N3 N4 1.361 . S
N3 Cu168 1.924 . S
N4 C2 1.348 . S
N4 N3 1.361 . S
N4 Cu169 1.964 . S
C5 C0 1.503 . S
C5 H6 0.979 . S
C5 H7 0.979 . S
C5 H8 0.979 . S
H6 C5 0.979 . S
H7 C5 0.979 . S
H8 C5 0.979 . S
C9 C2 1.504 . S
C9 H10 0.981 . S
C9 H11 0.980 . S
C9 H12 0.979 . S
H10 C9 0.981 . S
H11 C9 0.980 . S
H12 C9 0.979 . S
C13 C15 1.402 . S
C13 N16 1.356 . S
C13 C21 1.481 . S
C14 C15 1.400 . S
C14 N17 1.325 . S
C14 C25 1.503 . S
C15 C13 1.402 . S
C15 C14 1.400 . S
N16 C13 1.356 . S
N16 N17 1.365 . S
N16 Cu175 1.941 . S
N17 C14 1.325 . S
N17 N16 1.365 . S
N17 Cu172 1.924 . S
H18 C21 0.980 . S
H19 C21 0.980 . S
H20 C21 0.980 . S
C21 C13 1.481 . S
C21 H18 0.980 . S
C21 H19 0.980 . S
C21 H20 0.980 . S
H22 C25 0.978 . S
H23 C25 0.978 . S
H24 C25 0.983 . S
C25 C14 1.503 . S
C25 H22 0.978 . S
C25 H23 0.978 . S
C25 H24 0.983 . S
C26 H180 0.979 . S
C26 H181 0.981 . S
C26 H182 0.981 . S
C26 O216 1.438 . S
C27 H183 0.980 . S
C27 H184 0.979 . S
C27 H185 0.980 . S
C27 O217 1.533 . S
C28 N29 1.338 . S
C28 C31 1.388 . S
C28 C36 1.503 . S
N29 C28 1.338 . S
N29 N30 1.361 . S
N29 Cu170 1.924 . S
N30 N29 1.361 . S
N30 C32 1.348 . S
N30 Cu171 1.964 . S
C31 C28 1.388 . S
C31 C32 1.396 . S
C32 N30 1.348 . S
C32 C31 1.396 . S
C32 C40 1.504 . S
H33 C36 0.979 . S
H34 C36 0.979 . S
H35 C36 0.979 . S
C36 C28 1.503 . S
C36 H33 0.979 . S
C36 H34 0.979 . S
C36 H35 0.979 . S
H37 C40 0.981 . S
H38 C40 0.980 . S
H39 C40 0.979 . S
C40 C32 1.504 . S
C40 H37 0.981 . S
C40 H38 0.980 . S
C40 H39 0.979 . S
C41 N43 1.356 . S
C41 C45 1.402 . S
C41 C49 1.481 . S
C42 N44 1.325 . S
C42 C45 1.400 . S
C42 C50 1.503 . S
N43 C41 1.356 . S
N43 N44 1.365 . S
N43 Cu177 1.941 . S
N44 C42 1.325 . S
N44 N43 1.365 . S
N44 Cu168 1.924 . S
C45 C41 1.402 . S
C45 C42 1.400 . S
H46 C49 0.980 . S
H47 C49 0.980 . S
H48 C49 0.980 . S
C49 C41 1.481 . S
C49 H46 0.980 . S
C49 H47 0.980 . S
C49 H48 0.980 . S
C50 C42 1.503 . S
C50 H51 0.978 . S
C50 H52 0.978 . S
C50 H53 0.983 . S
H51 C50 0.978 . S
H52 C50 0.978 . S
H53 C50 0.983 . S
C54 H186 0.979 . S
C54 H187 0.981 . S
C54 H188 0.981 . S
C54 O218 1.438 . S
C55 H189 0.980 . S
C55 H190 0.979 . S
C55 H191 0.980 . S
C55 O219 1.533 . S
C56 N57 1.338 . S
C56 C58 1.388 . S
C56 C64 1.503 . S
N57 C56 1.338 . S
N57 N59 1.361 . S
N57 Cu172 1.924 . S
C58 C56 1.388 . S
C58 C60 1.396 . S
N59 N57 1.361 . S
N59 C60 1.348 . S
N59 Cu173 1.964 . S
C60 C58 1.396 . S
C60 N59 1.348 . S
C60 C66 1.504 . S
H61 C64 0.979 . S
H62 C64 0.979 . S
H63 C64 0.979 . S
C64 C56 1.503 . S
C64 H61 0.979 . S
C64 H62 0.979 . S
C64 H63 0.979 . S
H65 C66 0.981 . S
C66 C60 1.504 . S
C66 H65 0.981 . S
C66 H67 0.979 . S
C66 H68 0.980 . S
H67 C66 0.979 . S
H68 C66 0.980 . S
C69 N71 1.356 . S
C69 C73 1.402 . S
C69 C75 1.481 . S
C70 N72 1.325 . S
C70 C73 1.400 . S
C70 C80 1.503 . S
N71 C69 1.356 . S
N71 N72 1.365 . S
N71 Cu179 1.941 . S
N72 C70 1.325 . S
N72 N71 1.365 . S
N72 Cu170 1.924 . S
C73 C69 1.402 . S
C73 C70 1.400 . S
H74 C75 0.980 . S
C75 C69 1.481 . S
C75 H74 0.980 . S
C75 H76 0.980 . S
C75 H77 0.980 . S
H76 C75 0.980 . S
H77 C75 0.980 . S
H78 C80 0.978 . S
H79 C80 0.978 . S
C80 C70 1.503 . S
C80 H78 0.978 . S
C80 H79 0.978 . S
C80 H81 0.983 . S
H81 C80 0.983 . S
C82 H192 0.979 . S
C82 H193 0.981 . S
C82 H194 0.981 . S
C82 O220 1.438 . S
C83 H195 0.980 . S
C83 H196 0.979 . S
C83 H197 0.980 . S
C83 O221 1.533 . S
C84 N85 1.338 . S
C84 C86 1.388 . S
C84 C89 1.503 . S
N85 C84 1.338 . S
N85 N88 1.361 . S
N85 Cu174 1.924 . S
C86 C84 1.388 . S
C86 C87 1.396 . S
C87 C86 1.396 . S
C87 N88 1.348 . S
C87 C93 1.504 . S
N88 N85 1.361 . S
N88 C87 1.348 . S
N88 Cu175 1.964 . S
C89 C84 1.503 . S
C89 H90 0.979 . S
C89 H91 0.979 . S
C89 H92 0.979 . S
H90 C89 0.979 . S
H91 C89 0.979 . S
H92 C89 0.979 . S
C93 C87 1.504 . S
C93 H94 0.981 . S
C93 H95 0.980 . S
C93 H96 0.979 . S
H94 C93 0.981 . S
H95 C93 0.980 . S
H96 C93 0.979 . S
C97 C98 1.402 . S
C97 N100 1.356 . S
C97 C105 1.481 . S
C98 C97 1.402 . S
C98 C99 1.400 . S
C99 C98 1.400 . S
C99 N101 1.325 . S
C99 C106 1.503 . S
N100 C97 1.356 . S
N100 N101 1.365 . S
N100 Cu169 1.941 . S
N101 C99 1.325 . S
N101 N100 1.365 . S
N101 Cu178 1.924 . S
H102 C105 0.980 . S
H103 C105 0.980 . S
H104 C105 0.980 . S
C105 C97 1.481 . S
C105 H102 0.980 . S
C105 H103 0.980 . S
C105 H104 0.980 . S
C106 C99 1.503 . S
C106 H107 0.978 . S
C106 H108 0.978 . S
C106 H109 0.983 . S
H107 C106 0.978 . S
H108 C106 0.978 . S
H109 C106 0.983 . S
C110 H198 0.979 . S
C110 H199 0.981 . S
C110 H200 0.981 . S
C110 O222 1.438 . S
C111 H201 0.980 . S
C111 H202 0.979 . S
C111 H203 0.980 . S
C111 O223 1.533 . S
C112 C113 1.388 . S
C112 N115 1.338 . S
C112 C117 1.503 . S
C113 C112 1.388 . S
C113 C114 1.396 . S
C114 C113 1.396 . S
C114 N116 1.348 . S
C114 C121 1.504 . S
N115 C112 1.338 . S
N115 N116 1.361 . S
N115 Cu176 1.924 . S
N116 C114 1.348 . S
N116 N115 1.361 . S
N116 Cu177 1.964 . S
C117 C112 1.503 . S
C117 H118 0.979 . S
C117 H119 0.979 . S
C117 H120 0.979 . S
H118 C117 0.979 . S
H119 C117 0.979 . S
H120 C117 0.979 . S
C121 C114 1.504 . S
C121 H122 0.981 . S
C121 H123 0.980 . S
C121 H124 0.979 . S
H122 C121 0.981 . S
H123 C121 0.980 . S
H124 C121 0.979 . S
C125 C126 1.402 . S
C125 N128 1.356 . S
C125 C130 1.481 . S
C126 C125 1.402 . S
C126 C127 1.400 . S
C127 C126 1.400 . S
C127 N129 1.325 . S
C127 C134 1.503 . S
N128 C125 1.356 . S
N128 N129 1.365 . S
N128 Cu171 1.941 . S
N129 C127 1.325 . S
N129 N128 1.365 . S
N129 Cu174 1.924 . S
C130 C125 1.481 . S
C130 H131 0.980 . S
C130 H132 0.980 . S
C130 H133 0.980 . S
H131 C130 0.980 . S
H132 C130 0.980 . S
H133 C130 0.980 . S
C134 C127 1.503 . S
C134 H135 0.978 1_655 S
C134 H136 0.978 . S
C134 H137 0.983 . S
H135 C134 0.978 1_455 S
H136 C134 0.978 . S
H137 C134 0.983 . S
C138 H204 0.979 . S
C138 H205 0.981 . S
C138 H206 0.981 . S
C138 O224 1.438 . S
C139 H207 0.980 . S
C139 H208 0.979 . S
C139 H209 0.980 . S
C139 O225 1.533 . S
C140 N141 1.338 . S
C140 C143 1.388 . S
C140 C148 1.503 . S
N141 C140 1.338 . S
N141 N142 1.361 . S
N141 Cu178 1.924 . S
N142 N141 1.361 . S
N142 C144 1.348 . S
N142 Cu179 1.964 . S
C143 C140 1.388 . S
C143 C144 1.396 . S
C144 N142 1.348 . S
C144 C143 1.396 . S
C144 C152 1.504 . S
H145 C148 0.979 . S
H146 C148 0.979 . S
H147 C148 0.979 . S
C148 C140 1.503 . S
C148 H145 0.979 . S
C148 H146 0.979 . S
C148 H147 0.979 . S
H149 C152 0.981 . S
H150 C152 0.980 . S
H151 C152 0.979 . S
C152 C144 1.504 . S
C152 H149 0.981 . S
C152 H150 0.980 . S
C152 H151 0.979 . S
C153 N154 1.356 . S
C153 C156 1.402 . S
C153 C158 1.481 . S
N154 C153 1.356 . S
N154 N155 1.365 . S
N154 Cu173 1.941 . S
N155 N154 1.365 . S
N155 C157 1.325 . S
N155 Cu176 1.924 . S
C156 C153 1.402 . S
C156 C157 1.400 . S
C157 N155 1.325 . S
C157 C156 1.400 . S
C157 C162 1.503 . S
C158 C153 1.481 . S
C158 H159 0.980 . S
C158 H160 0.980 . S
C158 H161 0.980 . S
H159 C158 0.980 . S
H160 C158 0.980 . S
H161 C158 0.980 . S
C162 C157 1.503 . S
C162 H163 0.978 . S
C162 H164 0.978 . S
C162 H165 0.983 . S
H163 C162 0.978 . S
H164 C162 0.978 . S
H165 C162 0.983 . S
C166 H210 0.979 . S
C166 H211 0.981 . S
C166 H212 0.981 . S
C166 O226 1.438 . S
C167 H213 0.980 . S
C167 H214 0.979 . S
C167 H215 0.980 . S
C167 O227 1.533 . S
Cu168 N3 1.924 . S
Cu168 N44 1.924 . S
Cu168 O216 1.923 . S
Cu168 O217 1.930 . S
Cu169 N4 1.964 . S
Cu169 N100 1.941 . S
Cu169 O216 1.905 . S
Cu169 O227 1.920 . S
Cu170 N29 1.924 . S
Cu170 N72 1.924 . S
Cu170 O218 1.923 . S
Cu170 O219 1.930 . S
Cu171 N30 1.964 . S
Cu171 N128 1.941 . S
Cu171 O218 1.905 . S
Cu171 O223 1.920 . S
Cu172 N17 1.924 . S
Cu172 N57 1.924 . S
Cu172 O220 1.923 . S
Cu172 O221 1.930 . S
Cu173 N59 1.964 . S
Cu173 N154 1.941 . S
Cu173 O220 1.905 . S
Cu173 O225 1.920 . S
Cu174 N85 1.924 . S
Cu174 N129 1.924 . S
Cu174 O222 1.923 . S
Cu174 O223 1.930 . S
Cu175 N16 1.941 . S
Cu175 N88 1.964 . S
Cu175 O221 1.920 . S
Cu175 O222 1.905 . S
Cu176 N115 1.924 . S
Cu176 N155 1.924 . S
Cu176 O224 1.923 . S
Cu176 O225 1.930 . S
Cu177 N43 1.941 . S
Cu177 N116 1.964 . S
Cu177 O217 1.920 . S
Cu177 O224 1.905 . S
Cu178 N101 1.924 . S
Cu178 N141 1.924 . S
Cu178 O226 1.923 . S
Cu178 O227 1.930 . S
Cu179 N71 1.941 . S
Cu179 N142 1.964 . S
Cu179 O219 1.920 . S
Cu179 O226 1.905 . S
H180 C26 0.979 . S
H181 C26 0.981 . S
H182 C26 0.981 . S
H183 C27 0.980 . S
H184 C27 0.979 . S
H185 C27 0.980 . S
H186 C54 0.979 . S
H187 C54 0.981 . S
H188 C54 0.981 . S
H189 C55 0.980 . S
H190 C55 0.979 . S
H191 C55 0.980 . S
H192 C82 0.979 . S
H193 C82 0.981 . S
H194 C82 0.981 . S
H195 C83 0.980 . S
H196 C83 0.979 . S
H197 C83 0.980 . S
H198 C110 0.979 . S
H199 C110 0.981 . S
H200 C110 0.981 . S
H201 C111 0.980 . S
H202 C111 0.979 . S
H203 C111 0.980 . S
H204 C138 0.979 . S
H205 C138 0.981 . S
H206 C138 0.981 . S
H207 C139 0.980 . S
H208 C139 0.979 . S
H209 C139 0.980 . S
H210 C166 0.979 . S
H211 C166 0.981 . S
H212 C166 0.981 . S
H213 C167 0.980 . S
H214 C167 0.979 . S
H215 C167 0.980 . S
O216 C26 1.438 . S
O216 Cu168 1.923 . S
O216 Cu169 1.905 . S
O217 C27 1.533 . S
O217 Cu168 1.930 . S
O217 Cu177 1.920 . S
O218 C54 1.438 . S
O218 Cu170 1.923 . S
O218 Cu171 1.905 . S
O219 C55 1.533 . S
O219 Cu170 1.930 . S
O219 Cu179 1.920 . S
O220 C82 1.438 . S
O220 Cu172 1.923 . S
O220 Cu173 1.905 . S
O221 C83 1.533 . S
O221 Cu172 1.930 . S
O221 Cu175 1.920 . S
O222 C110 1.438 . S
O222 Cu174 1.923 . S
O222 Cu175 1.905 . S
O223 C111 1.533 . S
O223 Cu171 1.920 . S
O223 Cu174 1.930 . S
O224 C138 1.438 . S
O224 Cu176 1.923 . S
O224 Cu177 1.905 . S
O225 C139 1.533 . S
O225 Cu173 1.920 . S
O225 Cu176 1.930 . S
O226 C166 1.438 . S
O226 Cu178 1.923 . S
O226 Cu179 1.905 . S
O227 C167 1.533 . S
O227 Cu169 1.920 . S
O227 Cu178 1.930 . S
C228 C229 1.388 . S
C228 N231 1.338 . S
C228 C233 1.503 . S
C229 C228 1.388 . S
C229 C230 1.396 . S
C230 C229 1.396 . S
C230 N232 1.348 . S
C230 C237 1.504 . S
N231 C228 1.338 . S
N231 N232 1.361 . S
N231 Cu396 1.924 . S
N232 C230 1.348 . S
N232 N231 1.361 . S
N232 Cu397 1.964 . S
C233 C228 1.503 . S
C233 H234 0.979 . S
C233 H235 0.979 . S
C233 H236 0.979 . S
H234 C233 0.979 . S
H235 C233 0.979 . S
H236 C233 0.979 . S
C237 C230 1.504 . S
C237 H238 0.981 . S
C237 H239 0.980 . S
C237 H240 0.979 . S
H238 C237 0.981 . S
H239 C237 0.980 . S
H240 C237 0.979 . S
C241 C243 1.402 . S
C241 N244 1.356 . S
C241 C249 1.481 . S
C242 C243 1.400 . S
C242 N245 1.325 . S
C242 C253 1.503 . S
C243 C241 1.402 . S
C243 C242 1.400 . S
N244 C241 1.356 . S
N244 N245 1.365 . S
N244 Cu403 1.941 . S
N245 C242 1.325 . S
N245 N244 1.365 . S
N245 Cu400 1.924 . S
H246 C249 0.980 . S
H247 C249 0.980 . S
H248 C249 0.980 . S
C249 C241 1.481 . S
C249 H246 0.980 . S
C249 H247 0.980 . S
C249 H248 0.980 . S
H250 C253 0.978 . S
H251 C253 0.978 . S
H252 C253 0.983 . S
C253 C242 1.503 . S
C253 H250 0.978 . S
C253 H251 0.978 . S
C253 H252 0.983 . S
C254 H408 0.979 . S
C254 H409 0.981 . S
C254 H410 0.981 . S
C254 O444 1.438 . S
C255 H411 0.980 . S
C255 H412 0.979 . S
C255 H413 0.980 . S
C255 O445 1.533 . S
C256 N257 1.338 . S
C256 C259 1.388 . S
C256 C264 1.503 . S
N257 C256 1.338 . S
N257 N258 1.361 . S
N257 Cu398 1.924 . S
N258 N257 1.361 . S
N258 C260 1.348 . S
N258 Cu399 1.964 . S
C259 C256 1.388 . S
C259 C260 1.396 . S
C260 N258 1.348 . S
C260 C259 1.396 . S
C260 C268 1.504 . S
H261 C264 0.979 . S
H262 C264 0.979 . S
H263 C264 0.979 . S
C264 C256 1.503 . S
C264 H261 0.979 . S
C264 H262 0.979 . S
C264 H263 0.979 . S
H265 C268 0.981 . S
H266 C268 0.980 . S
H267 C268 0.979 . S
C268 C260 1.504 . S
C268 H265 0.981 . S
C268 H266 0.980 . S
C268 H267 0.979 . S
C269 N271 1.356 . S
C269 C273 1.402 . S
C269 C277 1.481 . S
C270 N272 1.325 . S
C270 C273 1.400 . S
C270 C278 1.503 . S
N271 C269 1.356 . S
N271 N272 1.365 . S
N271 Cu405 1.941 . S
N272 C270 1.325 . S
N272 N271 1.365 . S
N272 Cu396 1.924 . S
C273 C269 1.402 . S
C273 C270 1.400 . S
H274 C277 0.980 . S
H275 C277 0.980 . S
H276 C277 0.980 . S
C277 C269 1.481 . S
C277 H274 0.980 . S
C277 H275 0.980 . S
C277 H276 0.980 . S
C278 C270 1.503 . S
C278 H279 0.978 1_455 S
C278 H280 0.978 . S
C278 H281 0.983 . S
H279 C278 0.978 1_655 S
H280 C278 0.978 . S
H281 C278 0.983 . S
C282 H414 0.979 . S
C282 H415 0.981 . S
C282 H416 0.981 . S
C282 O446 1.438 . S
C283 H417 0.980 . S
C283 H418 0.979 . S
C283 H419 0.980 . S
C283 O447 1.533 . S
C284 N285 1.338 . S
C284 C286 1.388 . S
C284 C292 1.503 . S
N285 C284 1.338 . S
N285 N287 1.361 . S
N285 Cu400 1.924 . S
C286 C284 1.388 . S
C286 C288 1.396 . S
N287 N285 1.361 . S
N287 C288 1.348 . S
N287 Cu401 1.964 . S
C288 C286 1.396 . S
C288 N287 1.348 . S
C288 C294 1.504 . S
H289 C292 0.979 . S
H290 C292 0.979 . S
H291 C292 0.979 . S
C292 C284 1.503 . S
C292 H289 0.979 . S
C292 H290 0.979 . S
C292 H291 0.979 . S
H293 C294 0.981 . S
C294 C288 1.504 . S
C294 H293 0.981 . S
C294 H295 0.979 . S
C294 H296 0.980 . S
H295 C294 0.979 . S
H296 C294 0.980 . S
C297 N299 1.356 . S
C297 C301 1.402 . S
C297 C303 1.481 . S
C298 N300 1.325 . S
C298 C301 1.400 . S
C298 C308 1.503 . S
N299 C297 1.356 . S
N299 N300 1.365 . S
N299 Cu407 1.941 . S
N300 C298 1.325 . S
N300 N299 1.365 . S
N300 Cu398 1.924 . S
C301 C297 1.402 . S
C301 C298 1.400 . S
H302 C303 0.980 . S
C303 C297 1.481 . S
C303 H302 0.980 . S
C303 H304 0.980 . S
C303 H305 0.980 . S
H304 C303 0.980 . S
H305 C303 0.980 . S
H306 C308 0.978 . S
H307 C308 0.978 . S
C308 C298 1.503 . S
C308 H306 0.978 . S
C308 H307 0.978 . S
C308 H309 0.983 . S
H309 C308 0.983 . S
C310 H420 0.979 . S
C310 H421 0.981 . S
C310 H422 0.981 . S
C310 O448 1.438 . S
C311 H423 0.980 . S
C311 H424 0.979 . S
C311 H425 0.980 . S
C311 O449 1.533 . S
C312 N313 1.338 . S
C312 C314 1.388 . S
C312 C317 1.503 . S
N313 C312 1.338 . S
N313 N316 1.361 . S
N313 Cu402 1.924 . S
C314 C312 1.388 . S
C314 C315 1.396 . S
C315 C314 1.396 . S
C315 N316 1.348 . S
C315 C321 1.504 . S
N316 N313 1.361 . S
N316 C315 1.348 . S
N316 Cu403 1.964 . S
C317 C312 1.503 . S
C317 H318 0.979 . S
C317 H319 0.979 . S
C317 H320 0.979 . S
H318 C317 0.979 . S
H319 C317 0.979 . S
H320 C317 0.979 . S
C321 C315 1.504 . S
C321 H322 0.981 . S
C321 H323 0.980 . S
C321 H324 0.979 . S
H322 C321 0.981 . S
H323 C321 0.980 . S
H324 C321 0.979 . S
C325 C326 1.402 . S
C325 N328 1.356 . S
C325 C333 1.481 . S
C326 C325 1.402 . S
C326 C327 1.400 . S
C327 C326 1.400 . S
C327 N329 1.325 . S
C327 C334 1.503 . S
N328 C325 1.356 . S
N328 N329 1.365 . S
N328 Cu397 1.941 . S
N329 C327 1.325 . S
N329 N328 1.365 . S
N329 Cu406 1.924 . S
H330 C333 0.980 . S
H331 C333 0.980 . S
H332 C333 0.980 . S
C333 C325 1.481 . S
C333 H330 0.980 . S
C333 H331 0.980 . S
C333 H332 0.980 . S
C334 C327 1.503 . S
C334 H335 0.978 . S
C334 H336 0.978 . S
C334 H337 0.983 . S
H335 C334 0.978 . S
H336 C334 0.978 . S
H337 C334 0.983 . S
C338 H426 0.979 . S
C338 H427 0.981 . S
C338 H428 0.981 . S
C338 O450 1.438 . S
C339 H429 0.980 . S
C339 H430 0.979 . S
C339 H431 0.980 . S
C339 O451 1.533 . S
C340 C341 1.388 . S
C340 N343 1.338 . S
C340 C345 1.503 . S
C341 C340 1.388 . S
C341 C342 1.396 . S
C342 C341 1.396 . S
C342 N344 1.348 . S
C342 C349 1.504 . S
N343 C340 1.338 . S
N343 N344 1.361 . S
N343 Cu404 1.924 . S
N344 C342 1.348 . S
N344 N343 1.361 . S
N344 Cu405 1.964 . S
C345 C340 1.503 . S
C345 H346 0.979 . S
C345 H347 0.979 . S
C345 H348 0.979 . S
H346 C345 0.979 . S
H347 C345 0.979 . S
H348 C345 0.979 . S
C349 C342 1.504 . S
C349 H350 0.981 . S
C349 H351 0.980 . S
C349 H352 0.979 . S
H350 C349 0.981 . S
H351 C349 0.980 . S
H352 C349 0.979 . S
C353 C354 1.402 . S
C353 N356 1.356 . S
C353 C358 1.481 . S
C354 C353 1.402 . S
C354 C355 1.400 . S
C355 C354 1.400 . S
C355 N357 1.325 . S
C355 C362 1.503 . S
N356 C353 1.356 . S
N356 N357 1.365 . S
N356 Cu399 1.941 . S
N357 C355 1.325 . S
N357 N356 1.365 . S
N357 Cu402 1.924 . S
C358 C353 1.481 . S
C358 H359 0.980 . S
C358 H360 0.980 . S
C358 H361 0.980 . S
H359 C358 0.980 . S
H360 C358 0.980 . S
H361 C358 0.980 . S
C362 C355 1.503 . S
C362 H363 0.978 . S
C362 H364 0.978 . S
C362 H365 0.983 . S
H363 C362 0.978 . S
H364 C362 0.978 . S
H365 C362 0.983 . S
C366 H432 0.979 . S
C366 H433 0.981 . S
C366 H434 0.981 . S
C366 O452 1.438 . S
C367 H435 0.980 . S
C367 H436 0.979 . S
C367 H437 0.980 . S
C367 O453 1.533 . S
C368 N369 1.338 . S
C368 C371 1.388 . S
C368 C376 1.503 . S
N369 C368 1.338 . S
N369 N370 1.361 . S
N369 Cu406 1.924 . S
N370 N369 1.361 . S
N370 C372 1.348 . S
N370 Cu407 1.964 . S
C371 C368 1.388 . S
C371 C372 1.396 . S
C372 N370 1.348 . S
C372 C371 1.396 . S
C372 C380 1.504 . S
H373 C376 0.979 . S
H374 C376 0.979 . S
H375 C376 0.979 . S
C376 C368 1.503 . S
C376 H373 0.979 . S
C376 H374 0.979 . S
C376 H375 0.979 . S
H377 C380 0.981 . S
H378 C380 0.980 . S
H379 C380 0.979 . S
C380 C372 1.504 . S
C380 H377 0.981 . S
C380 H378 0.980 . S
C380 H379 0.979 . S
C381 N382 1.356 . S
C381 C384 1.402 . S
C381 C386 1.481 . S
N382 C381 1.356 . S
N382 N383 1.365 . S
N382 Cu401 1.941 . S
N383 N382 1.365 . S
N383 C385 1.325 . S
N383 Cu404 1.924 . S
C384 C381 1.402 . S
C384 C385 1.400 . S
C385 N383 1.325 . S
C385 C384 1.400 . S
C385 C390 1.503 . S
C386 C381 1.481 . S
C386 H387 0.980 . S
C386 H388 0.980 . S
C386 H389 0.980 . S
H387 C386 0.980 . S
H388 C386 0.980 . S
H389 C386 0.980 . S
C390 C385 1.503 . S
C390 H391 0.978 . S
C390 H392 0.978 . S
C390 H393 0.983 . S
H391 C390 0.978 . S
H392 C390 0.978 . S
H393 C390 0.983 . S
C394 H438 0.979 . S
C394 H439 0.981 . S
C394 H440 0.981 . S
C394 O454 1.438 . S
C395 H441 0.980 . S
C395 H442 0.979 . S
C395 H443 0.980 . S
C395 O455 1.533 . S
Cu396 N231 1.924 . S
Cu396 N272 1.924 . S
Cu396 O444 1.923 . S
Cu396 O445 1.930 . S
Cu397 N232 1.964 . S
Cu397 N328 1.941 . S
Cu397 O444 1.905 . S
Cu397 O455 1.920 . S
Cu398 N257 1.924 . S
Cu398 N300 1.924 . S
Cu398 O446 1.923 . S
Cu398 O447 1.930 . S
Cu399 N258 1.964 . S
Cu399 N356 1.941 . S
Cu399 O446 1.905 . S
Cu399 O451 1.920 . S
Cu400 N245 1.924 . S
Cu400 N285 1.924 . S
Cu400 O448 1.923 . S
Cu400 O449 1.930 . S
Cu401 N287 1.964 . S
Cu401 N382 1.941 . S
Cu401 O448 1.905 . S
Cu401 O453 1.920 . S
Cu402 N313 1.924 . S
Cu402 N357 1.924 . S
Cu402 O450 1.923 . S
Cu402 O451 1.930 . S
Cu403 N244 1.941 . S
Cu403 N316 1.964 . S
Cu403 O449 1.920 . S
Cu403 O450 1.905 . S
Cu404 N343 1.924 . S
Cu404 N383 1.924 . S
Cu404 O452 1.923 . S
Cu404 O453 1.930 . S
Cu405 N271 1.941 . S
Cu405 N344 1.964 . S
Cu405 O445 1.920 . S
Cu405 O452 1.905 . S
Cu406 N329 1.924 . S
Cu406 N369 1.924 . S
Cu406 O454 1.923 . S
Cu406 O455 1.930 . S
Cu407 N299 1.941 . S
Cu407 N370 1.964 . S
Cu407 O447 1.920 . S
Cu407 O454 1.905 . S
H408 C254 0.979 . S
H409 C254 0.981 . S
H410 C254 0.981 . S
H411 C255 0.980 . S
H412 C255 0.979 . S
H413 C255 0.980 . S
H414 C282 0.979 . S
H415 C282 0.981 . S
H416 C282 0.981 . S
H417 C283 0.980 . S
H418 C283 0.979 . S
H419 C283 0.980 . S
H420 C310 0.979 . S
H421 C310 0.981 . S
H422 C310 0.981 . S
H423 C311 0.980 . S
H424 C311 0.979 . S
H425 C311 0.980 . S
H426 C338 0.979 . S
H427 C338 0.981 . S
H428 C338 0.981 . S
H429 C339 0.980 . S
H430 C339 0.979 . S
H431 C339 0.980 . S
H432 C366 0.979 . S
H433 C366 0.981 . S
H434 C366 0.981 . S
H435 C367 0.980 . S
H436 C367 0.979 . S
H437 C367 0.980 . S
H438 C394 0.979 . S
H439 C394 0.981 . S
H440 C394 0.981 . S
H441 C395 0.980 . S
H442 C395 0.979 . S
H443 C395 0.980 . S
O444 C254 1.438 . S
O444 Cu396 1.923 . S
O444 Cu397 1.905 . S
O445 C255 1.533 . S
O445 Cu396 1.930 . S
O445 Cu405 1.920 . S
O446 C282 1.438 . S
O446 Cu398 1.923 . S
O446 Cu399 1.905 . S
O447 C283 1.533 . S
O447 Cu398 1.930 . S
O447 Cu407 1.920 . S
O448 C310 1.438 . S
O448 Cu400 1.923 . S
O448 Cu401 1.905 . S
O449 C311 1.533 . S
O449 Cu400 1.930 . S
O449 Cu403 1.920 . S
O450 C338 1.438 . S
O450 Cu402 1.923 . S
O450 Cu403 1.905 . S
O451 C339 1.533 . S
O451 Cu399 1.920 . S
O451 Cu402 1.930 . S
O452 C366 1.438 . S
O452 Cu404 1.923 . S
O452 Cu405 1.905 . S
O453 C367 1.533 . S
O453 Cu401 1.920 . S
O453 Cu404 1.930 . S
O454 C394 1.438 . S
O454 Cu406 1.923 . S
O454 Cu407 1.905 . S
O455 C395 1.533 . S
O455 Cu397 1.920 . S
O455 Cu406 1.930 . S
H456 C464 0.929 . S
H457 C466 0.930 . S
H458 C468 0.930 . S
H459 C471 0.929 . S
H460 C474 0.930 . S
H461 C476 0.960 . S
H462 C476 0.960 . S
H463 C476 0.960 1_565 S
C464 H456 0.929 . S
C464 C465 1.377 . S
C464 C466 1.384 . S
C465 C464 1.377 . S
C465 C471 1.390 . S
C466 H457 0.930 . S
C466 C464 1.384 . S
C466 C467 1.372 . S
C467 C466 1.372 . S
C467 C468 1.400 . S
C467 C472 1.490 . S
C468 H458 0.930 . S
C468 C467 1.400 . S
C468 C471 1.386 . S
H469 C485 0.930 . S
H470 C486 0.931 . S
C471 H459 0.929 . S
C471 C465 1.390 . S
C471 C468 1.386 . S
C472 C467 1.490 . S
C472 C474 1.395 . S
C472 C475 1.403 1_565 S
H473 C479 0.930 . S
C474 H460 0.930 . S
C474 C472 1.395 . S
C474 C477 1.403 1_556 S
C475 C472 1.403 1_545 S
C475 C476 1.524 . S
C475 C479 1.400 1_556 S
C476 H461 0.960 . S
C476 H462 0.960 . S
C476 H463 0.960 1_545 S
C476 C475 1.524 . S
C477 C474 1.403 1_554 S
C477 C478 1.392 1_565 S
C477 C481 1.495 . S
C478 C477 1.392 1_545 S
C478 C479 1.385 . S
C478 C480 1.478 . S
C479 H473 0.930 . S
C479 C475 1.400 1_554 S
C479 C478 1.385 . S
C480 C478 1.478 . S
C480 C482 1.381 . S
C480 C486 1.383 . S
C481 C477 1.495 . S
C481 H487 0.959 . S
C481 H488 0.961 . S
C481 H489 0.960 1_565 S
C482 C480 1.381 . S
C482 C483 1.394 . S
C482 H490 0.930 . S
C483 C482 1.394 . S
C483 C484 1.383 . S
C483 H491 0.929 . S
C484 C483 1.383 . S
C484 C485 1.377 . S
C485 H469 0.930 . S
C485 C484 1.377 . S
C485 C486 1.379 . S
C486 H470 0.931 . S
C486 C480 1.383 . S
C486 C485 1.379 . S
H487 C481 0.959 . S
H488 C481 0.961 . S
H489 C481 0.960 1_545 S
H490 C482 0.930 . S
H491 C483 0.929 . S
H492 C500 0.929 . S
H493 C502 0.930 . S
H494 C504 0.930 . S
H495 C507 0.929 . S
H496 C510 0.930 . S
H497 C512 0.960 . S
H498 C512 0.960 . S
H499 C512 0.960 . S
C500 H492 0.929 . S
C500 C501 1.377 . S
C500 C502 1.384 . S
C501 C500 1.377 . S
C501 C507 1.390 . S
C502 H493 0.930 . S
C502 C500 1.384 . S
C502 C503 1.372 . S
C503 C502 1.372 . S
C503 C504 1.400 . S
C503 C508 1.490 . S
C504 H494 0.930 . S
C504 C503 1.400 . S
C504 C507 1.386 . S
H505 C521 0.930 . S
H506 C522 0.931 . S
C507 H495 0.929 . S
C507 C501 1.390 . S
C507 C504 1.386 . S
C508 C503 1.490 . S
C508 C510 1.395 . S
C508 C511 1.403 . S
H509 C515 0.930 . S
C510 H496 0.930 . S
C510 C508 1.395 . S
C510 C513 1.403 . S
C511 C508 1.403 . S
C511 C512 1.524 . S
C511 C515 1.400 . S
C512 H497 0.960 . S
C512 H498 0.960 . S
C512 H499 0.960 . S
C512 C511 1.524 . S
C513 C510 1.403 . S
C513 C514 1.392 . S
C513 C517 1.495 . S
C514 C513 1.392 . S
C514 C515 1.385 . S
C514 C516 1.478 . S
C515 H509 0.930 . S
C515 C511 1.400 . S
C515 C514 1.385 . S
C516 C514 1.478 . S
C516 C518 1.381 . S
C516 C522 1.383 . S
C517 C513 1.495 . S
C517 H523 0.959 . S
C517 H524 0.961 . S
C517 H525 0.960 . S
C518 C516 1.381 . S
C518 C519 1.394 . S
C518 H526 0.930 . S
C519 C518 1.394 . S
C519 C520 1.383 . S
C519 H527 0.929 . S
C520 C519 1.383 . S
C520 C521 1.377 . S
C521 H505 0.930 . S
C521 C520 1.377 . S
C521 C522 1.379 . S
C522 H506 0.931 . S
C522 C516 1.383 . S
C522 C521 1.379 . S
H523 C517 0.959 . S
H524 C517 0.961 . S
H525 C517 0.960 . S
H526 C518 0.930 . S
H527 C519 0.929 . S
H528 C536 0.929 . S
H529 C538 0.930 . S
H530 C540 0.930 . S
H531 C543 0.929 . S
H532 C546 0.930 . S
H533 C548 0.960 . S
H534 C548 0.960 . S
H535 C548 0.960 . S
C536 H528 0.929 . S
C536 C537 1.377 . S
C536 C538 1.384 . S
C537 C536 1.377 . S
C537 C543 1.390 . S
C538 H529 0.930 . S
C538 C536 1.384 . S
C538 C539 1.372 . S
C539 C538 1.372 . S
C539 C540 1.400 . S
C539 C544 1.490 . S
C540 H530 0.930 . S
C540 C539 1.400 . S
C540 C543 1.386 . S
H541 C557 0.930 . S
H542 C558 0.931 . S
C543 H531 0.929 . S
C543 C537 1.390 . S
C543 C540 1.386 . S
C544 C539 1.490 . S
C544 C546 1.395 . S
C544 C547 1.403 1_655 S
H545 C551 0.930 . S
C546 H532 0.930 . S
C546 C544 1.395 . S
C546 C549 1.403 1_554 S
C547 C544 1.403 1_455 S
C547 C548 1.524 . S
C547 C551 1.400 1_554 S
C548 H533 0.960 . S
C548 H534 0.960 . S
C548 H535 0.960 . S
C548 C547 1.524 . S
C549 C546 1.403 1_556 S
C549 C550 1.392 1_655 S
C549 C553 1.495 . S
C550 C549 1.392 1_455 S
C550 C551 1.385 . S
C550 C552 1.478 . S
C551 H545 0.930 . S
C551 C547 1.400 1_556 S
C551 C550 1.385 . S
C552 C550 1.478 . S
C552 C554 1.381 . S
C552 C558 1.383 . S
C553 C549 1.495 . S
C553 H559 0.959 . S
C553 H560 0.961 . S
C553 H561 0.960 . S
C554 C552 1.381 . S
C554 C555 1.394 . S
C554 H562 0.930 . S
C555 C554 1.394 . S
C555 C556 1.383 . S
C555 H563 0.929 . S
C556 C555 1.383 . S
C556 C557 1.377 . S
C557 H541 0.930 . S
C557 C556 1.377 . S
C557 C558 1.379 . S
C558 H542 0.931 . S
C558 C552 1.383 . S
C558 C557 1.379 . S
H559 C553 0.959 . S
H560 C553 0.961 . S
H561 C553 0.960 . S
H562 C554 0.930 . S
H563 C555 0.929 . S
H564 C572 0.929 . S
H565 C574 0.930 1_545 S
H566 C576 0.930 . S
H567 C579 0.929 . S
H568 C582 0.930 . S
H569 C584 0.960 . S
H570 C584 0.960 . S
H571 C584 0.960 1_565 S
C572 H564 0.929 . S
C572 C573 1.377 . S
C572 C574 1.384 . S
C573 C572 1.377 . S
C573 C579 1.390 . S
C574 H565 0.930 1_565 S
C574 C572 1.384 . S
C574 C575 1.372 . S
C575 C574 1.372 . S
C575 C576 1.400 . S
C575 C580 1.490 . S
C576 H566 0.930 . S
C576 C575 1.400 . S
C576 C579 1.386 . S
H577 C593 0.930 . S
H578 C594 0.931 1_565 S
C579 H567 0.929 . S
C579 C573 1.390 . S
C579 C576 1.386 . S
C580 C575 1.490 . S
C580 C582 1.395 . S
C580 C583 1.403 1_565 S
H581 C587 0.930 . S
C582 H568 0.930 . S
C582 C580 1.395 . S
C582 C585 1.403 . S
C583 C580 1.403 1_545 S
C583 C584 1.524 . S
C583 C587 1.400 . S
C584 H569 0.960 . S
C584 H570 0.960 . S
C584 H571 0.960 1_545 S
C584 C583 1.524 . S
C585 C582 1.403 . S
C585 C586 1.392 1_565 S
C585 C589 1.495 . S
C586 C585 1.392 1_545 S
C586 C587 1.385 . S
C586 C588 1.478 . S
C587 H581 0.930 . S
C587 C583 1.400 . S
C587 C586 1.385 . S
C588 C586 1.478 . S
C588 C590 1.381 . S
C588 C594 1.383 . S
C589 C585 1.495 . S
C589 H595 0.959 . S
C589 H596 0.961 . S
C589 H597 0.960 1_565 S
C590 C588 1.381 . S
C590 C591 1.394 . S
C590 H598 0.930 . S
C591 C590 1.394 . S
C591 C592 1.383 . S
C591 H599 0.929 . S
C592 C591 1.383 . S
C592 C593 1.377 . S
C593 H577 0.930 . S
C593 C592 1.377 . S
C593 C594 1.379 . S
C594 H578 0.931 1_545 S
C594 C588 1.383 . S
C594 C593 1.379 . S
H595 C589 0.959 . S
H596 C589 0.961 . S
H597 C589 0.960 1_545 S
H598 C590 0.930 . S
H599 C591 0.929 . S
H600 C608 0.929 . S
H601 C610 0.930 . S
H602 C612 0.930 . S
H603 C615 0.929 . S
H604 C618 0.930 . S
H605 C620 0.960 . S
H606 C620 0.960 . S
H607 C620 0.960 . S
C608 H600 0.929 . S
C608 C609 1.377 . S
C608 C610 1.384 . S
C609 C608 1.377 . S
C609 C615 1.390 . S
C610 H601 0.930 . S
C610 C608 1.384 . S
C610 C611 1.372 . S
C611 C610 1.372 . S
C611 C612 1.400 . S
C611 C616 1.490 . S
C612 H602 0.930 . S
C612 C611 1.400 . S
C612 C615 1.386 . S
H613 C629 0.930 . S
H614 C630 0.931 . S
C615 H603 0.929 . S
C615 C609 1.390 . S
C615 C612 1.386 . S
C616 C611 1.490 . S
C616 C618 1.395 . S
C616 C619 1.403 1_554 S
H617 C623 0.930 . S
C618 H604 0.930 . S
C618 C616 1.395 . S
C618 C621 1.403 . S
C619 C616 1.403 1_556 S
C619 C620 1.524 . S
C619 C623 1.400 . S
C620 H605 0.960 . S
C620 H606 0.960 . S
C620 H607 0.960 . S
C620 C619 1.524 . S
C621 C618 1.403 . S
C621 C622 1.392 1_554 S
C621 C625 1.495 . S
C622 C621 1.392 1_556 S
C622 C623 1.385 . S
C622 C624 1.478 . S
C623 H617 0.930 . S
C623 C619 1.400 . S
C623 C622 1.385 . S
C624 C622 1.478 . S
C624 C626 1.381 . S
C624 C630 1.383 . S
C625 C621 1.495 . S
C625 H631 0.959 . S
C625 H632 0.961 . S
C625 H633 0.960 . S
C626 C624 1.381 . S
C626 C627 1.394 . S
C626 H634 0.930 . S
C627 C626 1.394 . S
C627 C628 1.383 . S
C627 H635 0.929 . S
C628 C627 1.383 . S
C628 C629 1.377 . S
C629 H613 0.930 . S
C629 C628 1.377 . S
C629 C630 1.379 . S
C630 H614 0.931 . S
C630 C624 1.383 . S
C630 C629 1.379 . S
H631 C625 0.959 . S
H632 C625 0.961 . S
H633 C625 0.960 . S
H634 C626 0.930 . S
H635 C627 0.929 . S
H636 C644 0.929 . S
H637 C646 0.930 . S
H638 C648 0.930 . S
H639 C651 0.929 . S
H640 C654 0.930 . S
H641 C656 0.960 . S
H642 C656 0.960 . S
H643 C656 0.960 . S
C644 H636 0.929 . S
C644 C645 1.377 . S
C644 C646 1.384 . S
C645 C644 1.377 . S
C645 C651 1.390 . S
C646 H637 0.930 . S
C646 C644 1.384 . S
C646 C647 1.372 . S
C647 C646 1.372 . S
C647 C648 1.400 . S
C647 C652 1.490 . S
C648 H638 0.930 . S
C648 C647 1.400 . S
C648 C651 1.386 . S
H649 C665 0.930 . S
H650 C666 0.931 . S
C651 H639 0.929 . S
C651 C645 1.390 . S
C651 C648 1.386 . S
C652 C647 1.490 . S
C652 C654 1.395 . S
C652 C655 1.403 . S
H653 C659 0.930 . S
C654 H640 0.930 . S
C654 C652 1.395 . S
C654 C657 1.403 1_655 S
C655 C652 1.403 . S
C655 C656 1.524 . S
C655 C659 1.400 1_655 S
C656 H641 0.960 . S
C656 H642 0.960 . S
C656 H643 0.960 . S
C656 C655 1.524 . S
C657 C654 1.403 1_455 S
C657 C658 1.392 . S
C657 C661 1.495 . S
C658 C657 1.392 . S
C658 C659 1.385 . S
C658 C660 1.478 . S
C659 H653 0.930 . S
C659 C655 1.400 1_455 S
C659 C658 1.385 . S
C660 C658 1.478 . S
C660 C662 1.381 . S
C660 C666 1.383 . S
C661 C657 1.495 . S
C661 H667 0.959 . S
C661 H668 0.961 . S
C661 H669 0.960 . S
C662 C660 1.381 . S
C662 C663 1.394 . S
C662 H670 0.930 . S
C663 C662 1.394 . S
C663 C664 1.383 . S
C663 H671 0.929 . S
C664 C663 1.383 . S
C664 C665 1.377 . S
C665 H649 0.930 . S
C665 C664 1.377 . S
C665 C666 1.379 . S
C666 H650 0.931 . S
C666 C660 1.383 . S
C666 C665 1.379 . S
H667 C661 0.959 . S
H668 C661 0.961 . S
H669 C661 0.960 . S
H670 C662 0.930 . S
H671 C663 0.929 . S
H672 C680 0.929 . S
H673 C682 0.930 . S
H674 C684 0.930 . S
H675 C687 0.929 . S
H676 C690 0.930 . S
H677 C692 0.960 . S
H678 C692 0.960 . S
H679 C692 0.960 . S
C680 H672 0.929 . S
C680 C681 1.377 . S
C680 C682 1.384 1_545 S
C681 C680 1.377 . S
C681 C687 1.390 . S
C682 H673 0.930 . S
C682 C680 1.384 1_565 S
C682 C683 1.372 . S
C683 C682 1.372 . S
C683 C684 1.400 . S
C683 C688 1.490 . S
C684 H674 0.930 . S
C684 C683 1.400 . S
C684 C687 1.386 1_565 S
H685 C701 0.930 . S
H686 C702 0.931 . S
C687 H675 0.929 . S
C687 C681 1.390 . S
C687 C684 1.386 1_545 S
C688 C683 1.490 . S
C688 C690 1.395 . S
C688 C691 1.403 . S
H689 C695 0.930 . S
C690 H676 0.930 . S
C690 C688 1.395 . S
C690 C693 1.403 . S
C691 C688 1.403 . S
C691 C692 1.524 . S
C691 C695 1.400 . S
C692 H677 0.960 . S
C692 H678 0.960 . S
C692 H679 0.960 . S
C692 C691 1.524 . S
C693 C690 1.403 . S
C693 C694 1.392 . S
C693 C697 1.495 . S
C694 C693 1.392 . S
C694 C695 1.385 . S
C694 C696 1.478 . S
C695 H689 0.930 . S
C695 C691 1.400 . S
C695 C694 1.385 . S
C696 C694 1.478 . S
C696 C698 1.381 . S
C696 C702 1.383 . S
C697 C693 1.495 . S
C697 H703 0.959 . S
C697 H704 0.961 . S
C697 H705 0.960 . S
C698 C696 1.381 . S
C698 C699 1.394 . S
C698 H706 0.930 . S
C699 C698 1.394 . S
C699 C700 1.383 . S
C699 H707 0.929 . S
C700 C699 1.383 . S
C700 C701 1.377 . S
C701 H685 0.930 . S
C701 C700 1.377 . S
C701 C702 1.379 . S
C702 H686 0.931 . S
C702 C696 1.383 . S
C702 C701 1.379 . S
H703 C697 0.959 . S
H704 C697 0.961 . S
H705 C697 0.960 . S
H706 C698 0.930 . S
H707 C699 0.929 . S
H708 C716 0.929 . S
H709 C718 0.930 . S
H710 C720 0.930 . S
H711 C723 0.929 . S
H712 C726 0.930 . S
H713 C728 0.960 . S
H714 C728 0.960 . S
H715 C728 0.960 . S
C716 H708 0.929 . S
C716 C717 1.377 1_655 S
C716 C718 1.384 . S
C717 C716 1.377 1_455 S
C717 C723 1.390 . S
C718 H709 0.930 . S
C718 C716 1.384 . S
C718 C719 1.372 . S
C719 C718 1.372 . S
C719 C720 1.400 . S
C719 C724 1.490 . S
C720 H710 0.930 . S
C720 C719 1.400 . S
C720 C723 1.386 1_655 S
H721 C737 0.930 . S
H722 C738 0.931 . S
C723 H711 0.929 . S
C723 C717 1.390 . S
C723 C720 1.386 1_455 S
C724 C719 1.490 . S
C724 C726 1.395 . S
C724 C727 1.403 . S
H725 C731 0.930 . S
C726 H712 0.930 . S
C726 C724 1.395 . S
C726 C729 1.403 . S
C727 C724 1.403 . S
C727 C728 1.524 . S
C727 C731 1.400 . S
C728 H713 0.960 . S
C728 H714 0.960 . S
C728 H715 0.960 . S
C728 C727 1.524 . S
C729 C726 1.403 . S
C729 C730 1.392 . S
C729 C733 1.495 . S
C730 C729 1.392 . S
C730 C731 1.385 . S
C730 C732 1.478 . S
C731 H725 0.930 . S
C731 C727 1.400 . S
C731 C730 1.385 . S
C732 C730 1.478 . S
C732 C734 1.381 . S
C732 C738 1.383 . S
C733 C729 1.495 . S
C733 H739 0.959 . S
C733 H740 0.961 . S
C733 H741 0.960 . S
C734 C732 1.381 . S
C734 C735 1.394 . S
C734 H742 0.930 . S
C735 C734 1.394 . S
C735 C736 1.383 . S
C735 H743 0.929 . S
C736 C735 1.383 . S
C736 C737 1.377 . S
C737 H721 0.930 . S
C737 C736 1.377 . S
C737 C738 1.379 . S
C738 H722 0.931 . S
C738 C732 1.383 . S
C738 C737 1.379 . S
H739 C733 0.959 . S
H740 C733 0.961 . S
H741 C733 0.960 . S
H742 C734 0.930 . S
H743 C735 0.929 . S
H744 C752 0.929 . S
H745 C754 0.930 . S
H746 C756 0.930 . S
H747 C759 0.929 . S
H748 C762 0.930 . S
H749 C764 0.960 . S
H750 C764 0.960 . S
H751 C764 0.960 . S
C752 H744 0.929 . S
C752 C753 1.377 . S
C752 C754 1.384 1_545 S
C753 C752 1.377 . S
C753 C759 1.390 1_545 S
C754 H745 0.930 . S
C754 C752 1.384 1_565 S
C754 C755 1.372 . S
C755 C754 1.372 . S
C755 C756 1.400 . S
C755 C760 1.490 . S
C756 H746 0.930 . S
C756 C755 1.400 . S
C756 C759 1.386 . S
H757 C773 0.930 . S
H758 C774 0.931 . S
C759 H747 0.929 . S
C759 C753 1.390 1_565 S
C759 C756 1.386 . S
C760 C755 1.490 . S
C760 C762 1.395 . S
C760 C763 1.403 . S
H761 C767 0.930 . S
C762 H748 0.930 . S
C762 C760 1.395 . S
C762 C765 1.403 . S
C763 C760 1.403 . S
C763 C764 1.524 . S
C763 C767 1.400 . S
C764 H749 0.960 . S
C764 H750 0.960 . S
C764 H751 0.960 . S
C764 C763 1.524 . S
C765 C762 1.403 . S
C765 C766 1.392 . S
C765 C769 1.495 . S
C766 C765 1.392 . S
C766 C767 1.385 . S
C766 C768 1.478 . S
C767 H761 0.930 . S
C767 C763 1.400 . S
C767 C766 1.385 . S
C768 C766 1.478 . S
C768 C770 1.381 . S
C768 C774 1.383 . S
C769 C765 1.495 . S
C769 H775 0.959 . S
C769 H776 0.961 . S
C769 H777 0.960 . S
C770 C768 1.381 . S
C770 C771 1.394 1_455 S
C770 H778 0.930 . S
C771 C770 1.394 1_655 S
C771 C772 1.383 . S
C771 H779 0.929 . S
C772 C771 1.383 . S
C772 C773 1.377 . S
C773 H757 0.930 . S
C773 C772 1.377 . S
C773 C774 1.379 1_655 S
C774 H758 0.931 . S
C774 C768 1.383 . S
C774 C773 1.379 1_455 S
H775 C769 0.959 . S
H776 C769 0.961 . S
H777 C769 0.960 . S
H778 C770 0.930 . S
H779 C771 0.929 . S
H780 C788 0.929 . S
H781 C790 0.930 . S
H782 C792 0.930 . S
H783 C795 0.929 . S
H784 C798 0.930 . S
H785 C800 0.960 . S
H786 C800 0.960 . S
H787 C800 0.960 . S
C788 H780 0.929 . S
C788 C789 1.377 . S
C788 C790 1.384 . S
C789 C788 1.377 . S
C789 C795 1.390 . S
C790 H781 0.930 . S
C790 C788 1.384 . S
C790 C791 1.372 . S
C791 C790 1.372 . S
C791 C792 1.400 . S
C791 C796 1.490 . S
C792 H782 0.930 . S
C792 C791 1.400 . S
C792 C795 1.386 . S
H793 C809 0.930 . S
H794 C810 0.931 . S
C795 H783 0.929 . S
C795 C789 1.390 . S
C795 C792 1.386 . S
C796 C791 1.490 . S
C796 C798 1.395 . S
C796 C799 1.403 . S
H797 C803 0.930 . S
C798 H784 0.930 . S
C798 C796 1.395 . S
C798 C801 1.403 . S
C799 C796 1.403 . S
C799 C800 1.524 . S
C799 C803 1.400 . S
C800 H785 0.960 . S
C800 H786 0.960 . S
C800 H787 0.960 . S
C800 C799 1.524 . S
C801 C798 1.403 . S
C801 C802 1.392 . S
C801 C805 1.495 . S
C802 C801 1.392 . S
C802 C803 1.385 . S
C802 C804 1.478 . S
C803 H797 0.930 . S
C803 C799 1.400 . S
C803 C802 1.385 . S
C804 C802 1.478 . S
C804 C806 1.381 . S
C804 C810 1.383 . S
C805 C801 1.495 . S
C805 H811 0.959 . S
C805 H812 0.961 . S
C805 H813 0.960 . S
C806 C804 1.381 . S
C806 C807 1.394 1_545 S
C806 H814 0.930 . S
C807 C806 1.394 1_565 S
C807 C808 1.383 . S
C807 H815 0.929 . S
C808 C807 1.383 . S
C808 C809 1.377 . S
C809 H793 0.930 . S
C809 C808 1.377 . S
C809 C810 1.379 1_565 S
C810 H794 0.931 . S
C810 C804 1.383 . S
C810 C809 1.379 1_545 S
H811 C805 0.959 . S
H812 C805 0.961 . S
H813 C805 0.960 . S
H814 C806 0.930 . S
H815 C807 0.929 . S
H816 C824 0.929 . S
H817 C826 0.930 . S
H818 C828 0.930 . S
H819 C831 0.929 . S
H820 C834 0.930 . S
H821 C836 0.960 . S
H822 C836 0.960 . S
H823 C836 0.960 . S
C824 H816 0.929 . S
C824 C825 1.377 . S
C824 C826 1.384 . S
C825 C824 1.377 . S
C825 C831 1.390 . S
C826 H817 0.930 . S
C826 C824 1.384 . S
C826 C827 1.372 . S
C827 C826 1.372 . S
C827 C828 1.400 . S
C827 C832 1.490 . S
C828 H818 0.930 . S
C828 C827 1.400 . S
C828 C831 1.386 . S
H829 C845 0.930 . S
H830 C846 0.931 . S
C831 H819 0.929 . S
C831 C825 1.390 . S
C831 C828 1.386 . S
C832 C827 1.490 . S
C832 C834 1.395 . S
C832 C835 1.403 . S
H833 C839 0.930 . S
C834 H820 0.930 . S
C834 C832 1.395 . S
C834 C837 1.403 . S
C835 C832 1.403 . S
C835 C836 1.524 . S
C835 C839 1.400 . S
C836 H821 0.960 . S
C836 H822 0.960 . S
C836 H823 0.960 . S
C836 C835 1.524 . S
C837 C834 1.403 . S
C837 C838 1.392 . S
C837 C841 1.495 . S
C838 C837 1.392 . S
C838 C839 1.385 . S
C838 C840 1.478 . S
C839 H833 0.930 . S
C839 C835 1.400 . S
C839 C838 1.385 . S
C840 C838 1.478 . S
C840 C842 1.381 . S
C840 C846 1.383 . S
C841 C837 1.495 . S
C841 H847 0.959 . S
C841 H848 0.961 . S
C841 H849 0.960 . S
C842 C840 1.381 . S
C842 C843 1.394 1_455 S
C842 H850 0.930 . S
C843 C842 1.394 1_655 S
C843 C844 1.383 . S
C843 H851 0.929 . S
C844 C843 1.383 . S
C844 C845 1.377 1_655 S
C845 H829 0.930 . S
C845 C844 1.377 1_455 S
C845 C846 1.379 . S
C846 H830 0.931 . S
C846 C840 1.383 . S
C846 C845 1.379 . S
H847 C841 0.959 . S
H848 C841 0.961 . S
H849 C841 0.960 . S
H850 C842 0.930 . S
H851 C843 0.929 . S
H852 C860 0.929 . S
H853 C862 0.930 . S
H854 C864 0.930 . S
H855 C867 0.929 . S
H856 C870 0.930 . S
H857 C872 0.960 . S
H858 C872 0.960 . S
H859 C872 0.960 . S
C860 H852 0.929 . S
C860 C861 1.377 . S
C860 C862 1.384 1_455 S
C861 C860 1.377 . S
C861 C867 1.390 . S
C862 H853 0.930 . S
C862 C860 1.384 1_655 S
C862 C863 1.372 . S
C863 C862 1.372 . S
C863 C864 1.400 . S
C863 C868 1.490 . S
C864 H854 0.930 . S
C864 C863 1.400 . S
C864 C867 1.386 1_655 S
H865 C881 0.930 . S
H866 C882 0.931 . S
C867 H855 0.929 . S
C867 C861 1.390 . S
C867 C864 1.386 1_455 S
C868 C863 1.490 . S
C868 C870 1.395 . S
C868 C871 1.403 . S
H869 C875 0.930 . S
C870 H856 0.930 . S
C870 C868 1.395 . S
C870 C873 1.403 . S
C871 C868 1.403 . S
C871 C872 1.524 . S
C871 C875 1.400 . S
C872 H857 0.960 . S
C872 H858 0.960 . S
C872 H859 0.960 . S
C872 C871 1.524 . S
C873 C870 1.403 . S
C873 C874 1.392 . S
C873 C877 1.495 . S
C874 C873 1.392 . S
C874 C875 1.385 . S
C874 C876 1.478 . S
C875 H869 0.930 . S
C875 C871 1.400 . S
C875 C874 1.385 . S
C876 C874 1.478 . S
C876 C878 1.381 . S
C876 C882 1.383 . S
C877 C873 1.495 . S
C877 H883 0.959 . S
C877 H884 0.961 . S
C877 H885 0.960 . S
C878 C876 1.381 . S
C878 C879 1.394 1_545 S
C878 H886 0.930 . S
C879 C878 1.394 1_565 S
C879 C880 1.383 . S
C879 H887 0.929 . S
C880 C879 1.383 . S
C880 C881 1.377 1_565 S
C881 H865 0.930 . S
C881 C880 1.377 1_545 S
C881 C882 1.379 . S
C882 H866 0.931 . S
C882 C876 1.383 . S
C882 C881 1.379 . S
H883 C877 0.959 . S
H884 C877 0.961 . S
H885 C877 0.960 . S
H886 C878 0.930 . S
H887 C879 0.929 . S
C465 C371 1.622 . S
C484 C58 1.629 . S
C501 C286 3.588 . S
C520 C143 3.564 . S
C537 C15 1.630 . S
C556 C326 1.653 . S
C573 C243 2.844 . S
C592 C98 2.829 . S
C609 C156 1.649 . S
C628 C301 1.675 . S
C645 C73 0.805 . S
C664 C384 0.796 . S
C681 C31 1.281 . S
C700 C113 1.271 . S
C717 C273 0.700 . S
C736 C354 0.669 . S
C753 C1 1.370 . S
C772 C86 1.411 . S
C789 C259 1.267 . S
C808 C341 1.252 . S
C825 C45 0.701 . S
C844 C126 0.654 . S
C861 C229 1.379 . S
C880 C314 1.396 . S
