# Generated by pormake.
# Topology fng, (5)-cn, num edge types: 1
# Building blocks:
#     Node 0, Type 0, BuildingBlock: XOMCOT_clean_sbu_1, # of connection points: 5
#     Node 1, Type 0, BuildingBlock: XOMCOT_clean_sbu_1, # of connection points: 5
#     Node 2, Type 0, BuildingBlock: XOMCOT_clean_sbu_1, # of connection points: 5
#     Node 3, Type 0, BuildingBlock: XOMCOT_clean_sbu_1, # of connection points: 5
#     Node 4, Type 0, BuildingBlock: XOMCOT_clean_sbu_1, # of connection points: 5
#     Node 5, Type 0, BuildingBlock: XOMCOT_clean_sbu_1, # of connection points: 5
#     Node 6, Type 0, BuildingBlock: XOMCOT_clean_sbu_1, # of connection points: 5
#     Node 7, Type 0, BuildingBlock: XOMCOT_clean_sbu_1, # of connection points: 5
#     Node 8, Type 0, BuildingBlock: XOMCOT_clean_sbu_1, # of connection points: 5
#     Node 9, Type 0, BuildingBlock: XOMCOT_clean_sbu_1, # of connection points: 5
#     Node 10, Type 0, BuildingBlock: XOMCOT_clean_sbu_1, # of connection points: 5
#     Node 11, Type 0, BuildingBlock: XOMCOT_clean_sbu_1, # of connection points: 5
#     Node 12, Type 0, BuildingBlock: XOMCOT_clean_sbu_1, # of connection points: 5
#     Node 13, Type 0, BuildingBlock: XOMCOT_clean_sbu_1, # of connection points: 5
#     Node 14, Type 0, BuildingBlock: XOMCOT_clean_sbu_1, # of connection points: 5
#     Node 15, Type 0, BuildingBlock: XOMCOT_clean_sbu_1, # of connection points: 5
#     Node 16, Type 0, BuildingBlock: XOMCOT_clean_sbu_1, # of connection points: 5
#     Node 17, Type 0, BuildingBlock: XOMCOT_clean_sbu_1, # of connection points: 5
#     Edge 18, Type (0, 0), BuildingBlock: CIFDUS_clean_linker_0, # of connection points: 2
#     Edge 19, Type (0, 0), BuildingBlock: CIFDUS_clean_linker_0, # of connection points: 2
#     Edge 20, Type (0, 0), BuildingBlock: CIFDUS_clean_linker_0, # of connection points: 2
#     Edge 21, Type (0, 0), BuildingBlock: CIFDUS_clean_linker_0, # of connection points: 2
#     Edge 22, Type (0, 0), BuildingBlock: CIFDUS_clean_linker_0, # of connection points: 2
#     Edge 23, Type (0, 0), BuildingBlock: CIFDUS_clean_linker_0, # of connection points: 2
#     Edge 24, Type (0, 0), BuildingBlock: CIFDUS_clean_linker_0, # of connection points: 2
#     Edge 25, Type (0, 0), BuildingBlock: CIFDUS_clean_linker_0, # of connection points: 2
#     Edge 26, Type (0, 0), BuildingBlock: CIFDUS_clean_linker_0, # of connection points: 2
#     Edge 27, Type (0, 0), BuildingBlock: CIFDUS_clean_linker_0, # of connection points: 2
#     Edge 28, Type (0, 0), BuildingBlock: CIFDUS_clean_linker_0, # of connection points: 2
#     Edge 29, Type (0, 0), BuildingBlock: CIFDUS_clean_linker_0, # of connection points: 2
#     Edge 30, Type (0, 0), BuildingBlock: CIFDUS_clean_linker_0, # of connection points: 2
#     Edge 31, Type (0, 0), BuildingBlock: CIFDUS_clean_linker_0, # of connection points: 2
#     Edge 32, Type (0, 0), BuildingBlock: CIFDUS_clean_linker_0, # of connection points: 2
#     Edge 33, Type (0, 0), BuildingBlock: CIFDUS_clean_linker_0, # of connection points: 2
#     Edge 34, Type (0, 0), BuildingBlock: CIFDUS_clean_linker_0, # of connection points: 2
#     Edge 35, Type (0, 0), BuildingBlock: CIFDUS_clean_linker_0, # of connection points: 2
#     Edge 36, Type (0, 0), BuildingBlock: CIFDUS_clean_linker_0, # of connection points: 2
#     Edge 37, Type (0, 0), BuildingBlock: CIFDUS_clean_linker_0, # of connection points: 2
#     Edge 38, Type (0, 0), BuildingBlock: CIFDUS_clean_linker_0, # of connection points: 2
#     Edge 39, Type (0, 0), BuildingBlock: CIFDUS_clean_linker_0, # of connection points: 2
#     Edge 40, Type (0, 0), BuildingBlock: CIFDUS_clean_linker_0, # of connection points: 2
#     Edge 41, Type (0, 0), BuildingBlock: CIFDUS_clean_linker_0, # of connection points: 2
#     Edge 42, Type (0, 0), BuildingBlock: CIFDUS_clean_linker_0, # of connection points: 2
#     Edge 43, Type (0, 0), BuildingBlock: CIFDUS_clean_linker_0, # of connection points: 2
#     Edge 44, Type (0, 0), BuildingBlock: CIFDUS_clean_linker_0, # of connection points: 2
#     Edge 45, Type (0, 0), BuildingBlock: CIFDUS_clean_linker_0, # of connection points: 2
#     Edge 46, Type (0, 0), BuildingBlock: CIFDUS_clean_linker_0, # of connection points: 2
#     Edge 47, Type (0, 0), BuildingBlock: CIFDUS_clean_linker_0, # of connection points: 2
#     Edge 48, Type (0, 0), BuildingBlock: CIFDUS_clean_linker_0, # of connection points: 2
#     Edge 49, Type (0, 0), BuildingBlock: CIFDUS_clean_linker_0, # of connection points: 2
#     Edge 50, Type (0, 0), BuildingBlock: CIFDUS_clean_linker_0, # of connection points: 2
#     Edge 51, Type (0, 0), BuildingBlock: CIFDUS_clean_linker_0, # of connection points: 2
#     Edge 52, Type (0, 0), BuildingBlock: CIFDUS_clean_linker_0, # of connection points: 2
#     Edge 53, Type (0, 0), BuildingBlock: CIFDUS_clean_linker_0, # of connection points: 2
#     Edge 54, Type (0, 0), BuildingBlock: CIFDUS_clean_linker_0, # of connection points: 2
#     Edge 55, Type (0, 0), BuildingBlock: CIFDUS_clean_linker_0, # of connection points: 2
#     Edge 56, Type (0, 0), BuildingBlock: CIFDUS_clean_linker_0, # of connection points: 2
#     Edge 57, Type (0, 0), BuildingBlock: CIFDUS_clean_linker_0, # of connection points: 2
#     Edge 58, Type (0, 0), BuildingBlock: CIFDUS_clean_linker_0, # of connection points: 2
#     Edge 59, Type (0, 0), BuildingBlock: CIFDUS_clean_linker_0, # of connection points: 2
#     Edge 60, Type (0, 0), BuildingBlock: CIFDUS_clean_linker_0, # of connection points: 2
#     Edge 61, Type (0, 0), BuildingBlock: CIFDUS_clean_linker_0, # of connection points: 2
#     Edge 62, Type (0, 0), BuildingBlock: CIFDUS_clean_linker_0, # of connection points: 2
# Relax obj value: 0.127
# Max RMSD: 0.146
# Mean RMSD: 0.146
data_MOF--net-fng--node1-XOMCOT_clean_sbu_1--edge1-CIFDUS_clean_linker_0
_symmetry_space_group_name_H-M    P1
_symmetry_Int_Tables_number       1
_symmetry_cell_setting            triclinic
loop_
_symmetry_equiv_pos_as_xyz
'x, y, z'
_cell_length_a     70.610292
_cell_length_b     70.621374
_cell_length_c     15.363178
_cell_angle_alpha  89.979084
_cell_angle_beta   90.092926
_cell_angle_gamma 119.82047
loop_
_atom_site_label
_atom_site_type_symbol
_atom_site_fract_x
_atom_site_fract_y
_atom_site_fract_z
_atom_type_partial_charge
C0 C 0.15881 0.28797 1.00071 0.0
C1 C 0.15718 0.28829 0.91134 0.0
N2 N 0.15287 0.26867 0.88136 0.0
N3 N 0.15596 0.26836 0.02559 0.0
C4 C 0.1524 0.25709 0.95107 0.0
H5 H 0.16151 0.30112 0.04392 0.0
Co6 Co 0.15477 0.25662 0.13439 0.0
C7 C 0.18507 0.23956 0.11447 0.0
O8 O 0.1942 0.24842 0.18931 0.0
N9 N 0.1532 0.24455 0.24291 0.0
C10 C 0.14887 0.22267 0.35455 0.0
C11 C 0.14769 0.22392 0.26531 0.0
C12 C 0.15735 0.25533 0.3188 0.0
N13 N 0.15523 0.24262 0.38711 0.0
O14 O 0.18307 0.28158 0.16281 0.0
H15 H 0.14331 0.21069 0.21987 0.0
H16 H 0.16139 0.27212 0.32513 0.0
O17 O 0.16896 0.24127 0.08638 0.0
C18 C 0.1823 0.29793 0.19409 0.0
O19 O 0.1632 0.29652 0.20534 0.0
N20 N 0.12661 0.23371 0.10813 0.0
C21 C 0.08367 0.20745 0.05081 0.0
C22 C 0.0991 0.20052 0.04146 0.0
C23 C 0.12062 0.21396 0.07065 0.0
C24 C 0.11153 0.24 0.12255 0.0
C25 C 0.09003 0.22717 0.09446 0.0
H26 H 0.13256 0.20893 0.05931 0.0
H27 H 0.11657 0.25565 0.15262 0.0
H28 H 0.1495 0.24057 0.94742 0.0
H29 H 0.15855 0.3016 0.87177 0.0
H30 H 0.14561 0.20842 0.39231 0.0
H31 H 0.09488 0.18541 0.00819 0.0
H32 H 0.0786 0.23297 0.10485 0.0
C33 C 0.75425 0.86842 0.04754 0.0
C34 C 0.75159 0.86425 0.95945 0.0
N35 N 0.76104 0.88348 0.91669 0.0
N36 N 0.76531 0.89015 0.06047 0.0
C37 C 0.769 0.89889 0.97975 0.0
H38 H 0.74919 0.85641 0.09895 0.0
Co39 Co 0.7752 0.90339 0.16842 0.0
C40 C 0.81062 0.94805 0.12367 0.0
O41 O 0.82328 0.94548 0.1796 0.0
N42 N 0.78445 0.9166 0.28006 0.0
C43 C 0.79043 0.93964 0.38984 0.0
C44 C 0.78752 0.93652 0.30166 0.0
C45 C 0.78445 0.90754 0.35803 0.0
N46 N 0.78834 0.92133 0.42533 0.0
O47 O 0.74918 0.90562 0.1804 0.0
H48 H 0.78615 0.94765 0.25726 0.0
H49 H 0.78018 0.89073 0.36685 0.0
O50 O 0.79095 0.93255 0.11247 0.0
C51 C 0.73556 0.89143 0.23318 0.0
O52 O 0.74076 0.87809 0.27215 0.0
N53 N 0.79929 0.89852 0.15672 0.0
C54 C 0.82447 0.87869 0.11997 0.0
C55 C 0.8261 0.89583 0.06821 0.0
C56 C 0.81317 0.9053 0.08685 0.0
C57 C 0.79778 0.88208 0.20799 0.0
C58 C 0.81055 0.8724 0.19241 0.0
H59 H 0.81311 0.91674 0.04047 0.0
H60 H 0.78513 0.87483 0.25626 0.0
H61 H 0.77781 0.91624 0.96727 0.0
H62 H 0.74409 0.84828 0.92946 0.0
H63 H 0.79225 0.95363 0.42584 0.0
H64 H 0.83601 0.90082 0.00993 0.0
H65 H 0.80852 0.85918 0.23423 0.0
C66 C 0.15812 0.89767 0.02584 0.0
C67 C 0.16126 0.89673 0.93789 0.0
N68 N 0.14259 0.8807 0.90343 0.0
N69 N 0.13752 0.88244 0.04637 0.0
C70 C 0.12861 0.87212 0.97072 0.0
H71 H 0.16961 0.90967 0.07088 0.0
Co72 Co 0.12428 0.88095 0.1526 0.0
C73 C 0.07774 0.86359 0.10084 0.0
O74 O 0.07758 0.87949 0.14472 0.0
N75 N 0.11169 0.87925 0.26249 0.0
C76 C 0.09229 0.86394 0.38234 0.0
C77 C 0.09229 0.86332 0.29314 0.0
C78 C 0.12336 0.88881 0.33535 0.0
N79 N 0.11198 0.87983 0.40886 0.0
O80 O 0.12689 0.85602 0.18631 0.0
H81 H 0.07976 0.85024 0.25514 0.0
H82 H 0.14072 0.90017 0.33519 0.0
O83 O 0.09507 0.86204 0.10015 0.0
C84 C 0.14528 0.8637 0.22488 0.0
O85 O 0.15852 0.88492 0.22286 0.0
N86 N 0.12415 0.90703 0.12232 0.0
C87 C 0.13622 0.94925 0.06391 0.0
C88 C 0.12189 0.93078 0.0151 0.0
C89 C 0.1163 0.90988 0.04477 0.0
C90 C 0.13769 0.92483 0.17119 0.0
C91 C 0.14367 0.94594 0.14402 0.0
H92 H 0.10688 0.89619 1.00215 0.0
H93 H 0.14556 0.92302 0.22795 0.0
H94 H 0.11165 0.85984 0.96322 0.0
H95 H 0.17574 0.90769 0.90153 0.0
H96 H 0.0794 0.85243 0.42433 0.0
H97 H 0.11582 0.93247 0.95249 0.0
H98 H 0.15537 0.95961 0.18265 0.0
C99 C 0.28919 0.14803 1.00367 0.0
C100 C 0.29261 0.14907 0.09227 0.0
N101 N 0.2759 0.14967 0.13181 0.0
N102 N 0.27053 0.14822 0.98703 0.0
C103 C 0.26276 0.14907 0.06659 0.0
H104 H 0.29956 0.14685 0.95496 0.0
Co105 Co 0.25771 0.14646 0.87819 0.0
C106 C 0.24358 0.1793 0.89605 0.0
O107 O 0.25162 0.18736 0.81907 0.0
N108 N 0.2446 0.14426 0.76884 0.0
C109 C 0.22061 0.13956 0.66506 0.0
C110 C 0.22427 0.14074 0.75342 0.0
C111 C 0.25274 0.1447 0.68867 0.0
N112 N 0.23859 0.14208 0.62414 0.0
O113 O 0.28333 0.17328 0.8431 0.0
H114 H 0.21277 0.13913 0.8033 0.0
H115 H 0.26852 0.1463 0.67738 0.0
O116 O 0.24474 0.163 0.92539 0.0
C117 C 0.29798 0.17089 0.80455 0.0
O118 O 0.29481 0.15112 0.79222 0.0
N119 N 0.23381 0.11962 0.91066 0.0
C120 C 0.2029 0.07701 0.95803 0.0
C121 C 0.20048 0.09481 0.98366 0.0
C122 C 0.21612 0.11606 0.95905 0.0
C123 C 0.23623 0.10258 0.88399 0.0
C124 C 0.22099 0.08117 0.90669 0.0
H125 H 0.21411 0.12952 0.98039 0.0
H126 H 0.25043 0.10575 0.84625 0.0
H127 H 0.2477 0.14922 0.07671 0.0
H128 H 0.30608 0.14885 0.12504 0.0
H129 H 0.20585 0.1372 0.63371 0.0
H130 H 0.1867 0.09237 0.02275 0.0
H131 H 0.22379 0.06808 0.88653 0.0
C132 C 0.89942 0.14149 0.94864 0.0
C133 C 0.90001 0.14561 0.03652 0.0
N134 N 0.88984 0.12637 0.07885 0.0
N135 N 0.88884 0.11975 0.93526 0.0
C136 C 0.88295 0.11098 0.0158 0.0
H137 H 0.90724 0.15357 0.89805 0.0
Co138 Co 0.88734 0.10662 0.82753 0.0
C139 C 0.87895 0.06262 0.88034 0.0
O140 O 0.89544 0.0656 0.83126 0.0
N141 N 0.88527 0.09384 0.71645 0.0
C142 C 0.87115 0.07074 0.60472 0.0
C143 C 0.87084 0.07305 0.69311 0.0
C144 C 0.89307 0.10411 0.63908 0.0
N145 N 0.88505 0.0903 0.57051 0.0
O146 O 0.85938 0.10417 0.80477 0.0
H147 H 0.85919 0.06057 0.73577 0.0
H148 H 0.90328 0.12158 0.63229 0.0
O149 O 0.8734 0.07736 0.88391 0.0
C150 C 0.86235 0.12146 0.76638 0.0
O151 O 0.88241 0.1372 0.75227 0.0
N152 N 0.91614 0.11148 0.84825 0.0
C153 C 0.96043 0.12868 0.89151 0.0
C154 C 0.94392 0.11346 0.94574 0.0
C155 C 0.92198 0.10539 0.92386 0.0
C156 C 0.93205 0.12616 0.79458 0.0
C157 C 0.9542 0.13471 0.8142 0.0
H158 H 0.90981 0.09512 0.97065 0.0
H159 H 0.92777 0.13259 0.73919 0.0
H160 H 0.8746 0.09363 0.02858 0.0
H161 H 0.90842 0.16152 0.06708 0.0
H162 H 0.86062 0.05616 0.56776 0.0
H163 H 0.94784 0.1088 0.00744 0.0
H164 H 0.96632 0.14658 0.77058 0.0
C165 C 0.88551 0.74101 0.96819 0.0
C166 C 0.88314 0.73775 0.05671 0.0
N167 N 0.8997 0.75508 0.0966 0.0
N168 N 0.90365 0.76022 0.95157 0.0
C169 C 0.91183 0.76847 0.03131 0.0
H170 H 0.8742 0.73027 0.91977 0.0
Co171 Co 0.9136 0.77379 0.84293 0.0
C172 C 0.96094 0.78959 0.87506 0.0
O173 O 0.96159 0.77709 0.81321 0.0
N174 N 0.92344 0.78755 0.73453 0.0
C175 C 0.94261 0.81105 0.62978 0.0
C176 C 0.94076 0.80741 0.71817 0.0
C177 C 0.91486 0.77962 0.65504 0.0
N178 N 0.92632 0.7935 0.58981 0.0
O179 O 0.91782 0.74999 0.80377 0.0
H180 H 0.95158 0.81853 0.76713 0.0
H181 H 0.90036 0.764 0.64506 0.0
O182 O 0.94318 0.78962 0.89037 0.0
C183 C 0.90104 0.73421 0.76819 0.0
O184 O 0.88301 0.73522 0.76266 0.0
N185 N 0.90752 0.79572 0.87781 0.0
C186 C 0.89165 0.82296 0.9339 0.0
C187 C 0.91393 0.82951 0.94148 0.0
C188 C 0.92158 0.81565 0.91286 0.0
C189 C 0.88602 0.78935 0.86763 0.0
C190 C 0.87774 0.80267 0.89504 0.0
H191 H 0.93869 0.82096 0.91993 0.0
H192 H 0.87514 0.77358 0.83914 0.0
H193 H 0.92627 0.78418 0.04137 0.0
H194 H 0.86977 0.72401 0.08911 0.0
H195 H 0.95533 0.82536 0.5976 0.0
H196 H 0.92531 0.84497 0.97116 0.0
H197 H 0.86055 0.79704 0.88576 0.0
C198 C 0.81099 0.60547 0.36229 0.0
C199 C 0.81128 0.60963 0.27447 0.0
N200 N 0.8224 0.60133 0.23353 0.0
N201 N 0.82194 0.59467 0.37712 0.0
C202 C 0.82906 0.59278 0.29743 0.0
H203 H 0.80216 0.60888 0.4115 0.0
Co204 Co 0.82225 0.58188 0.48454 0.0
C205 C 0.83015 0.54668 0.41552 0.0
O206 O 0.81172 0.53168 0.44999 0.0
N207 N 0.82321 0.57002 0.59521 0.0
C208 C 0.83318 0.55649 0.70606 0.0
C209 C 0.83317 0.55857 0.61738 0.0
C210 C 0.81816 0.57546 0.67331 0.0
N211 N 0.82377 0.56713 0.74176 0.0
O212 O 0.85027 0.60678 0.5125 0.0
H213 H 0.84167 0.55341 0.57401 0.0
H214 H 0.81112 0.58593 0.67984 0.0
O215 O 0.8365 0.56694 0.42757 0.0
C216 C 0.84762 0.62156 0.54872 0.0
O217 O 0.82771 0.61837 0.55581 0.0
N218 N 0.7933 0.55835 0.46018 0.0
C219 C 0.74857 0.53156 0.42088 0.0
C220 C 0.76473 0.53586 0.3584 0.0
C221 C 0.78686 0.54912 0.37931 0.0
C222 C 0.77781 0.55405 0.52193 0.0
C223 C 0.75561 0.54032 0.50462 0.0
H224 H 0.79871 0.55249 0.32887 0.0
H225 H 0.78231 0.56208 0.58412 0.0
H226 H 0.8378 0.58408 0.2854 0.0
H227 H 0.80266 0.6168 0.24265 0.0
H228 H 0.84089 0.5489 0.74168 0.0
H229 H 0.76049 0.52994 0.29231 0.0
H230 H 0.7441 0.5373 0.55647 0.0
C231 C 0.42395 0.20901 0.39535 0.0
C232 C 0.42 0.20615 0.30704 0.0
N233 N 0.43251 0.22547 0.26749 0.0
N234 N 0.43872 0.23007 0.41159 0.0
C235 C 0.44354 0.23967 0.3322 0.0
H236 H 0.41699 0.19635 0.44421 0.0
Co237 Co 0.45081 0.24191 0.52067 0.0
C238 C 0.46638 0.28859 0.4802 0.0
O239 O 0.45315 0.28938 0.53826 0.0
N240 N 0.46292 0.25367 0.63025 0.0
C241 C 0.48568 0.27425 0.7346 0.0
C242 C 0.48259 0.27129 0.64623 0.0
C243 C 0.45457 0.24599 0.71016 0.0
N244 N 0.46803 0.25826 0.77529 0.0
O245 O 0.42585 0.2452 0.54595 0.0
H246 H 0.49419 0.28124 0.59687 0.0
H247 H 0.43919 0.23126 0.72039 0.0
O248 O 0.46681 0.27089 0.46901 0.0
C249 C 0.41075 0.2281 0.58221 0.0
O250 O 0.41387 0.2115 0.59623 0.0
N251 N 0.47383 0.23653 0.49841 0.0
C252 C 0.50023 0.21845 0.4596 0.0
C253 C 0.50082 0.23513 0.40762 0.0
C254 C 0.48751 0.24403 0.42836 0.0
C255 C 0.47382 0.22114 0.55181 0.0
C256 C 0.48714 0.2122 0.5346 0.0
H257 H 0.48727 0.25592 0.38501 0.0
H258 H 0.46265 0.21503 0.60617 0.0
H259 H 0.45527 0.25668 0.32119 0.0
H260 H 0.40949 0.19088 0.27418 0.0
H261 H 0.49996 0.28727 0.76583 0.0
H262 H 0.51045 0.2404 0.34864 0.0
H263 H 0.48645 0.19982 0.57814 0.0
C264 C 0.82745 0.225 0.37866 0.0
C265 C 0.8304 0.22359 0.29079 0.0
N266 N 0.81129 0.20821 0.25662 0.0
N267 N 0.80654 0.21076 0.39927 0.0
C268 C 0.79725 0.20049 0.32399 0.0
H269 H 0.83937 0.23659 0.42367 0.0
Co270 Co 0.79361 0.20969 0.50558 0.0
C271 C 0.74781 0.19557 0.44917 0.0
O272 O 0.74842 0.21211 0.49094 0.0
N273 N 0.7813 0.20825 0.61547 0.0
C274 C 0.76124 0.19456 0.73521 0.0
C275 C 0.76108 0.19419 0.64577 0.0
C276 C 0.79346 0.21637 0.68833 0.0
N277 N 0.7817 0.20847 0.76168 0.0
O278 O 0.79378 0.1832 0.53537 0.0
H279 H 0.7475 0.18254 0.60716 0.0
H280 H 0.81108 0.22605 0.688 0.0
O281 O 0.76436 0.19273 0.45211 0.0
C282 C 0.81163 0.18799 0.57392 0.0
O283 O 0.82684 0.20863 0.57854 0.0
N284 N 0.79557 0.23709 0.47871 0.0
C285 C 0.80885 0.28046 0.43116 0.0
C286 C 0.79561 0.26296 0.37566 0.0
C287 C 0.78927 0.24147 0.40035 0.0
C288 C 0.80817 0.25395 0.53348 0.0
C289 C 0.81449 0.2755 0.51215 0.0
H290 H 0.78034 0.22851 0.35401 0.0
H291 H 0.81473 0.25113 0.59199 0.0
H292 H 0.78008 0.18884 0.31681 0.0
H293 H 0.84514 0.23378 0.25433 0.0
H294 H 0.74768 0.18431 0.77732 0.0
H295 H 0.79115 0.26584 0.3116 0.0
H296 H 0.8245 0.28825 0.55798 0.0
C297 C 0.95501 0.49502 0.30779 0.0
C298 C 0.95795 0.49912 0.39576 0.0
N299 N 0.93843 0.49337 0.43192 0.0
N300 N 0.93377 0.48688 0.28796 0.0
C301 C 0.92406 0.48604 0.36489 0.0
H302 H 0.96747 0.49706 0.26185 0.0
Co303 Co 0.92115 0.47651 0.17886 0.0
C304 C 0.88393 0.4856 0.16559 0.0
O305 O 0.87461 0.47084 0.10428 0.0
N306 N 0.90871 0.46566 0.06644 0.0
C307 C 0.89217 0.44313 0.95491 0.0
C308 C 0.89629 0.44449 0.04262 0.0
C309 C 0.9119 0.47679 0.99058 0.0
N310 N 0.90211 0.46343 0.92185 0.0
O311 O 0.94323 0.50365 0.12719 0.0
H312 H 0.89095 0.43056 0.08488 0.0
H313 H 0.92151 0.49436 0.98524 0.0
O314 O 0.90195 0.48901 0.1993 0.0
C315 C 0.95765 0.50155 0.0849 0.0
O316 O 0.95539 0.48201 0.07688 0.0
N317 N 0.90166 0.44948 0.23095 0.0
C318 C 0.87954 0.40732 0.30152 0.0
C319 C 0.86918 0.41988 0.29384 0.0
C320 C 0.88061 0.44107 0.259 0.0
C321 C 0.91198 0.43762 0.23924 0.0
C322 C 0.90127 0.41659 0.27369 0.0
H323 H 0.87245 0.45048 0.25547 0.0
H324 H 0.92866 0.44452 0.21716 0.0
H325 H 0.90668 0.47967 0.37177 0.0
H326 H 0.97313 0.50485 0.4309 0.0
H327 H 0.88347 0.42821 0.91756 0.0
H328 H 0.85254 0.41352 0.31581 0.0
H329 H 0.90992 0.40753 0.27716 0.0
C330 C 0.57508 0.48533 0.30572 0.0
C331 C 0.57764 0.48987 0.39363 0.0
N332 N 0.5646 0.47133 0.43748 0.0
N333 N 0.56062 0.464 0.29393 0.0
C334 C 0.55422 0.45601 0.37534 0.0
H335 H 0.58403 0.49658 0.25374 0.0
Co336 Co 0.55526 0.44951 0.18676 0.0
C337 C 0.54054 0.40382 0.24531 0.0
O338 O 0.55499 0.40293 0.19419 0.0
N339 N 0.54937 0.43536 0.07594 0.0
C340 C 0.53014 0.41263 0.96847 0.0
C341 C 0.5327 0.41523 0.0568 0.0
C342 C 0.55611 0.44488 0.9965 0.0
N343 N 0.5446 0.43143 0.92992 0.0
O344 O 0.52873 0.45074 0.17442 0.0
H345 H 0.52136 0.40366 0.10294 0.0
H346 H 0.5677 0.46202 0.98781 0.0
O347 O 0.539 0.42114 0.2468 0.0
C348 C 0.52995 0.46525 0.12169 0.0
O349 O 0.54866 0.47825 0.08379 0.0
N350 N 0.58251 0.45013 0.1987 0.0
C351 C 0.62626 0.46315 0.23438 0.0
C352 C 0.60982 0.45027 0.2936 0.0
C353 C 0.58809 0.44388 0.27456 0.0
C354 C 0.59839 0.46228 0.13954 0.0
C355 C 0.62031 0.46862 0.15533 0.0
H356 H 0.57606 0.43526 0.32425 0.0
H357 H 0.59454 0.46869 0.08289 0.0
H358 H 0.54341 0.43894 0.38941 0.0
H359 H 0.58875 0.50547 0.42288 0.0
H360 H 0.51756 0.3983 0.93586 0.0
H361 H 0.61386 0.44603 0.35598 0.0
H362 H 0.63268 0.47904 0.10899 0.0
C363 C 0.55983 0.08012 0.30543 0.0
C364 C 0.55802 0.07996 0.39487 0.0
N365 N 0.57219 0.10009 0.42406 0.0
N366 N 0.57526 0.10024 0.27933 0.0
C367 C 0.5825 0.11183 0.3535 0.0
H368 H 0.55025 0.0664 0.26319 0.0
Co369 Co 0.58558 0.11277 0.17052 0.0
C370 C 0.63156 0.12421 0.21478 0.0
O371 O 0.63064 0.10838 0.16684 0.0
N372 N 0.5962 0.12569 0.0637 0.0
C373 C 0.61703 0.14462 0.95194 0.0
C374 C 0.61561 0.14306 0.04145 0.0
C375 C 0.58594 0.11754 0.98776 0.0
N376 N 0.59836 0.12834 0.91924 0.0
O377 O 0.58687 0.08707 0.1323 0.0
H378 H 0.62834 0.15334 0.08675 0.0
H379 H 0.5699 0.10348 0.98198 0.0
O380 O 0.61512 0.12711 0.21844 0.0
C381 C 0.56821 0.07347 0.10041 0.0
O382 O 0.55242 0.07817 0.10624 0.0
N383 N 0.58156 0.13617 0.2017 0.0
C384 C 0.56738 0.16458 0.25876 0.0
C385 C 0.58976 0.17117 0.2581 0.0
C386 C 0.59658 0.1567 0.22844 0.0
C387 C 0.56003 0.13003 0.19721 0.0
C388 C 0.55259 0.14392 0.22512 0.0
H389 H 0.61374 0.16179 0.22944 0.0
H390 H 0.54845 0.11387 0.17392 0.0
H391 H 0.59528 0.12873 0.35611 0.0
H392 H 0.54693 0.06632 0.43499 0.0
H393 H 0.63108 0.15587 0.91403 0.0
H394 H 0.60179 0.18702 0.28275 0.0
H395 H 0.53529 0.13833 0.2213 0.0
C396 C 0.47375 0.93616 0.72169 0.0
C397 C 0.47606 0.94098 0.63423 0.0
N398 N 0.49041 0.93556 0.6011 0.0
N399 N 0.48647 0.92764 0.74329 0.0
C400 C 0.49675 0.92793 0.669 0.0
H401 H 0.46261 0.93761 0.76576 0.0
Co402 Co 0.48634 0.91534 0.85031 0.0
C403 C 0.49483 0.8801 0.78884 0.0
O404 O 0.47649 0.8651 0.8239 0.0
N405 N 0.48682 0.90425 0.96001 0.0
C406 C 0.49696 0.89412 0.08056 0.0
C407 C 0.49693 0.89363 0.991 0.0
C408 C 0.48144 0.91147 0.03189 0.0
N409 N 0.48716 0.90536 0.10574 0.0
O410 O 0.51432 0.94038 0.87791 0.0
H411 H 0.50545 0.88746 0.95258 0.0
H412 H 0.47471 0.9223 0.02985 0.0
O413 O 0.50079 0.90032 0.79782 0.0
C414 C 0.51229 0.95651 0.90275 0.0
O415 O 0.49276 0.95446 0.90276 0.0
N416 N 0.4575 0.89153 0.82505 0.0
C417 C 0.41307 0.86404 0.78234 0.0
C418 C 0.42964 0.86867 0.7213 0.0
C419 C 0.45163 0.88229 0.74395 0.0
C420 C 0.44158 0.8868 0.88538 0.0
C421 C 0.41957 0.87275 0.86639 0.0
H422 H 0.46387 0.88614 0.69453 0.0
H423 H 0.44549 0.89469 0.9478 0.0
H424 H 0.50734 0.92102 0.66297 0.0
H425 H 0.4671 0.94702 0.59733 0.0
H426 H 0.50442 0.88756 0.12363 0.0
H427 H 0.42578 0.86276 0.65506 0.0
H428 H 0.40772 0.86944 0.91718 0.0
C429 C 0.08058 0.54223 0.6748 0.0
C430 C 0.07724 0.53952 0.58631 0.0
N431 N 0.09359 0.55692 0.54617 0.0
N432 N 0.09883 0.56141 0.69083 0.0
C433 C 0.10649 0.56986 0.61101 0.0
H434 H 0.07048 0.53069 0.72388 0.0
Co435 Co 0.11127 0.57281 0.79973 0.0
C436 C 0.12542 0.61952 0.76094 0.0
O437 O 0.11221 0.6201 0.81963 0.0
N438 N 0.12392 0.58416 0.90894 0.0
C439 C 0.14644 0.60492 0.01392 0.0
C440 C 0.14296 0.60258 0.92552 0.0
C441 C 0.11634 0.57547 0.98851 0.0
N442 N 0.12963 0.58785 0.05368 0.0
O443 O 0.08594 0.57528 0.82987 0.0
H444 H 0.1538 0.61368 0.87672 0.0
H445 H 0.10161 0.5601 0.99881 0.0
O446 O 0.12607 0.60196 0.7492 0.0
C447 C 0.07112 0.55834 0.86818 0.0
O448 O 0.07445 0.5419 0.88262 0.0
N449 N 0.13459 0.56831 0.77219 0.0
C450 C 0.16396 0.55461 0.72251 0.0
C451 C 0.16963 0.57666 0.71578 0.0
C452 C 0.15469 0.58322 0.74107 0.0
C453 C 0.12914 0.54705 0.78228 0.0
C454 C 0.14352 0.53984 0.75783 0.0
H455 H 0.15929 0.60016 0.7343 0.0
H456 H 0.11322 0.5355 0.80769 0.0
H457 H 0.12129 0.58523 0.60048 0.0
H458 H 0.06406 0.52553 0.55409 0.0
H459 H 0.1602 0.61833 0.04624 0.0
H460 H 0.18521 0.58865 0.68889 0.0
H461 H 0.13857 0.52277 0.76613 0.0
C462 C 0.48703 0.55965 0.75376 0.0
C463 C 0.49111 0.56076 0.66561 0.0
N464 N 0.47186 0.55005 0.62322 0.0
N465 N 0.46532 0.54829 0.76709 0.0
C466 C 0.45655 0.5424 0.68649 0.0
H467 H 0.49904 0.56741 0.80477 0.0
Co468 Co 0.4517 0.54514 0.87462 0.0
C469 C 0.40711 0.5351 0.81904 0.0
O470 O 0.40868 0.55082 0.86971 0.0
N471 N 0.43807 0.54137 0.9857 0.0
C472 C 0.4145 0.52532 0.09473 0.0
C473 C 0.41749 0.5258 0.00637 0.0
C474 C 0.44751 0.54929 0.06447 0.0
N475 N 0.43345 0.54001 0.1314 0.0
O476 O 0.45029 0.51745 0.89038 0.0
H477 H 0.40571 0.51408 0.96158 0.0
H478 H 0.46469 0.56051 0.07385 0.0
O479 O 0.42283 0.53097 0.81635 0.0
C480 C 0.46536 0.51951 0.94217 0.0
O481 O 0.47875 0.53886 0.97456 0.0
N482 N 0.45578 0.57372 0.86018 0.0
C483 C 0.47523 0.61855 0.8235 0.0
C484 C 0.45934 0.60297 0.76773 0.0
C485 C 0.45001 0.58066 0.78669 0.0
C486 C 0.47082 0.58875 0.91563 0.0
C487 C 0.48023 0.61109 0.89997 0.0
H488 H 0.43952 0.56909 0.73834 0.0
H489 H 0.47729 0.58362 0.96807 0.0
H490 H 0.4392 0.53322 0.67395 0.0
H491 H 0.50698 0.56967 0.63516 0.0
H492 H 0.39999 0.51385 0.12981 0.0
H493 H 0.45532 0.60781 0.7067 0.0
H494 H 0.49239 0.62237 0.94521 0.0
C495 C 0.61468 0.82366 0.64193 0.0
C496 C 0.61812 0.82754 0.7299 0.0
N497 N 0.5994 0.82427 0.76668 0.0
N498 N 0.59394 0.81811 0.62278 0.0
C499 C 0.58502 0.81864 0.70002 0.0
H500 H 0.62635 0.82406 0.5954 0.0
Co501 Co 0.5808 0.80902 0.5139 0.0
C502 C 0.54681 0.82279 0.50277 0.0
O503 O 0.53742 0.8099 0.4359 0.0
N504 N 0.56777 0.79931 0.40121 0.0
C505 C 0.54901 0.77783 0.2897 0.0
C506 C 0.55293 0.77867 0.37746 0.0
C507 C 0.57249 0.81065 0.32518 0.0
N508 N 0.56145 0.79791 0.25653 0.0
O509 O 0.60433 0.83547 0.46374 0.0
H510 H 0.54557 0.76465 0.41982 0.0
H511 H 0.58398 0.82791 0.31956 0.0
O512 O 0.56381 0.82382 0.53729 0.0
C513 C 0.61803 0.8328 0.41872 0.0
O514 O 0.61434 0.81289 0.40485 0.0
N515 N 0.55958 0.78259 0.56517 0.0
C516 C 0.53296 0.74082 0.63434 0.0
C517 C 0.52594 0.75628 0.63258 0.0
C518 C 0.53953 0.77713 0.59817 0.0
C519 C 0.56692 0.76805 0.56879 0.0
C520 C 0.55387 0.74709 0.6022 0.0
H521 H 0.53381 0.78867 0.59932 0.0
H522 H 0.58294 0.77268 0.54343 0.0
H523 H 0.56815 0.81446 0.70738 0.0
H524 H 0.63296 0.83138 0.76455 0.0
H525 H 0.5386 0.76327 0.25246 0.0
H526 H 0.51016 0.7524 0.65852 0.0
H527 H 0.56002 0.73577 0.60107 0.0
C528 C 0.23955 0.81748 0.63192 0.0
C529 C 0.23819 0.82073 0.71946 0.0
N530 N 0.22203 0.80207 0.75346 0.0
N531 N 0.22443 0.79686 0.61112 0.0
C532 C 0.21375 0.78804 0.68607 0.0
H533 H 0.25163 0.82897 0.58724 0.0
Co534 Co 0.22277 0.78373 0.50445 0.0
C535 C 0.20661 0.73748 0.55995 0.0
O536 O 0.223 0.73732 0.52026 0.0
N537 N 0.22087 0.77153 0.3947 0.0
C538 C 0.20746 0.75204 0.27348 0.0
C539 C 0.20707 0.7514 0.36285 0.0
C540 C 0.22879 0.78415 0.3231 0.0
N541 N 0.22109 0.77272 0.2488 0.0
O542 O 0.19679 0.78482 0.47527 0.0
H543 H 0.19561 0.73749 0.40028 0.0
H544 H 0.23838 0.80179 0.32556 0.0
O545 O 0.20477 0.75461 0.55685 0.0
C546 C 0.2003 0.80361 0.45209 0.0
O547 O 0.22031 0.82019 0.4555 0.0
N548 N 0.24955 0.78432 0.5315 0.0
C549 C 0.29207 0.79588 0.58337 0.0
C550 C 0.27433 0.78387 0.63881 0.0
C551 C 0.25319 0.77811 0.61148 0.0
C552 C 0.26677 0.79577 0.47662 0.0
C553 C 0.28804 0.8013 0.50049 0.0
H554 H 0.23995 0.76981 0.65711 0.0
H555 H 0.26453 0.80209 0.41619 0.0
H556 H 0.20138 0.77111 0.69296 0.0
H557 H 0.24893 0.83532 0.75583 0.0
H558 H 0.19747 0.73862 0.2302 0.0
H559 H 0.27687 0.77963 0.70387 0.0
H560 H 0.30141 0.81105 0.4567 0.0
C561 C 0.2203 0.42392 0.60416 0.0
C562 C 0.21634 0.42047 0.69222 0.0
N563 N 0.2356 0.43074 0.73467 0.0
N564 N 0.24195 0.43628 0.59093 0.0
C565 C 0.25085 0.4399 0.67153 0.0
H566 H 0.20813 0.41861 0.5532 0.0
Co567 Co 0.25489 0.44796 0.48339 0.0
C568 C 0.29733 0.48573 0.53646 0.0
O569 O 0.29323 0.49797 0.48402 0.0
N570 N 0.26782 0.45892 0.37217 0.0
C571 C 0.29156 0.46858 0.26239 0.0
C572 C 0.28888 0.46592 0.35077 0.0
C573 C 0.25787 0.4563 0.29374 0.0
N574 N 0.272 0.46238 0.22639 0.0
O575 O 0.25941 0.42352 0.46479 0.0
H576 H 0.30138 0.46729 0.39509 0.0
H577 H 0.24042 0.44866 0.285 0.0
O578 O 0.28379 0.46519 0.54129 0.0
C579 C 0.24386 0.40995 0.41627 0.0
O580 O 0.22872 0.41454 0.39227 0.0
N581 N 0.24768 0.47039 0.50009 0.0
C582 C 0.22572 0.49345 0.53779 0.0
C583 C 0.24194 0.49452 0.59381 0.0
C584 C 0.25247 0.48265 0.57452 0.0
C585 C 0.23215 0.46948 0.44468 0.0
C586 C 0.22139 0.48119 0.46109 0.0
H587 H 0.26338 0.48225 0.6228 0.0
H588 H 0.22658 0.45823 0.39106 0.0
H589 H 0.26815 0.4497 0.68418 0.0
H590 H 0.20043 0.41201 0.72265 0.0
H591 H 0.30642 0.47306 0.22677 0.0
H592 H 0.24544 0.50321 0.65509 0.0
H593 H 0.20893 0.47969 0.41592 0.0
H594 H 0.13102 0.22017 0.52391 0.0
H595 H 0.18711 0.28081 0.44796 0.0
H596 H 0.19058 0.29518 0.59516 0.0
H597 H 0.17718 0.29054 0.74525 0.0
H598 H 0.12195 0.22952 0.8235 0.0
H599 H 0.11834 0.21508 0.67578 0.0
C600 C 0.14414 0.23636 0.54046 0.0
C601 C 0.15865 0.24958 0.47589 0.0
C602 C 0.14595 0.24446 0.62503 0.0
C603 C 0.17556 0.27061 0.497 0.0
C604 C 0.17755 0.27879 0.58086 0.0
C605 C 0.16424 0.27423 0.72903 0.0
C606 C 0.14973 0.26111 0.79359 0.0
C607 C 0.16264 0.26597 0.64503 0.0
C608 C 0.13323 0.2398 0.77369 0.0
C609 C 0.13123 0.23156 0.68976 0.0
H610 H 0.75961 0.88417 0.50655 0.0
H611 H 0.81414 0.94861 0.55012 0.0
H612 H 0.8108 0.94248 0.70751 0.0
H613 H 0.79194 0.91914 0.83211 0.0
H614 H 0.73601 0.85529 0.78977 0.0
H615 H 0.74052 0.86068 0.63268 0.0
C616 C 0.77093 0.89669 0.55067 0.0
C617 C 0.78721 0.91677 0.5171 0.0
C618 C 0.76859 0.89319 0.64119 0.0
C619 C 0.8015 0.93306 0.57482 0.0
C620 C 0.79957 0.92956 0.66462 0.0
C621 C 0.78052 0.90646 0.78898 0.0
C622 C 0.76358 0.88684 0.82354 0.0
C623 C 0.78301 0.90978 0.69858 0.0
C624 C 0.74933 0.87047 0.76559 0.0
C625 C 0.75184 0.87357 0.67549 0.0
H626 H 0.15735 0.91014 0.77329 0.0
H627 H 0.11436 0.84207 0.83052 0.0
H628 H 0.10112 0.83563 0.68034 0.0
H629 H 0.10078 0.84967 0.53506 0.0
H630 H 0.14318 0.91783 0.47761 0.0
H631 H 0.158 0.92394 0.62564 0.0
C632 C 0.14542 0.89383 0.7524 0.0
C633 C 0.13684 0.87658 0.8128 0.0
C634 C 0.13768 0.89034 0.66636 0.0
C635 C 0.12107 0.8556 0.7852 0.0
C636 C 0.1135 0.85193 0.69951 0.0
C637 C 0.11307 0.86591 0.55514 0.0
C638 C 0.12064 0.88336 0.49594 0.0
C639 C 0.12142 0.86926 0.64004 0.0
C640 C 0.13709 0.90417 0.52221 0.0
C641 C 0.14552 0.90766 0.60672 0.0
H642 H 0.27721 0.15991 0.53841 0.0
H643 H 0.20744 0.12359 0.49874 0.0
H644 H 0.21286 0.1233 0.34233 0.0
H645 H 0.23736 0.13268 0.21634 0.0
H646 H 0.30705 0.16812 0.25617 0.0
H647 H 0.30169 0.16898 0.4129 0.0
C648 C 0.26315 0.1517 0.496 0.0
C649 C 0.24192 0.1418 0.53124 0.0
C650 C 0.26637 0.15135 0.40576 0.0
C651 C 0.22397 0.13162 0.47414 0.0
C652 C 0.22705 0.13132 0.38436 0.0
C653 C 0.25137 0.14076 0.25917 0.0
C654 C 0.27259 0.15033 0.2243 0.0
C655 C 0.24816 0.14112 0.34941 0.0
C656 C 0.29056 0.16042 0.28119 0.0
C657 C 0.2875 0.161 0.37086 0.0
H658 H 0.88825 0.12578 0.48927 0.0
H659 H 0.88778 0.06529 0.4454 0.0
H660 H 0.88907 0.07101 0.28819 0.0
H661 H 0.88955 0.09272 0.16323 0.0
H662 H 0.88921 0.15292 0.2048 0.0
H663 H 0.88922 0.14797 0.36247 0.0
C664 C 0.8888 0.11409 0.44513 0.0
C665 C 0.88799 0.09516 0.47875 0.0
C666 C 0.88921 0.11734 0.35442 0.0
C667 C 0.8883 0.07992 0.42084 0.0
C668 C 0.88901 0.08317 0.33104 0.0
C669 C 0.88919 0.10463 0.20657 0.0
C670 C 0.88919 0.12308 0.17193 0.0
C671 C 0.88918 0.10167 0.29703 0.0
C672 C 0.8893 0.13862 0.22958 0.0
C673 C 0.88928 0.13578 0.31982 0.0
H674 H 0.92058 0.79395 0.18065 0.0
H675 H 0.88625 0.72433 0.22293 0.0
H676 H 0.89079 0.73009 0.37978 0.0
H677 H 0.90471 0.75479 0.50499 0.0
H678 H 0.93952 0.82442 0.46348 0.0
H679 H 0.93475 0.81872 0.30664 0.0
C680 C 0.91428 0.78003 0.22395 0.0
C681 C 0.90303 0.75872 0.18944 0.0
C682 C 0.91702 0.78344 0.31453 0.0
C683 C 0.8947 0.74091 0.24725 0.0
C684 C 0.89737 0.74418 0.33718 0.0
C685 C 0.9112 0.76876 0.46209 0.0
C686 C 0.92264 0.79002 0.49691 0.0
C687 C 0.90845 0.76537 0.37161 0.0
C688 C 0.93094 0.80786 0.43917 0.0
C689 C 0.92814 0.80462 0.34916 0.0
H690 H 0.82138 0.56721 0.1506 0.0
H691 H 0.82478 0.62908 0.10666 0.0
H692 H 0.82459 0.62376 0.9489 0.0
H693 H 0.82368 0.60138 0.82299 0.0
H694 H 0.81985 0.53933 0.87001 0.0
H695 H 0.81998 0.54485 0.02638 0.0
C696 C 0.8224 0.57969 0.10663 0.0
C697 C 0.82334 0.59864 0.14058 0.0
C698 C 0.82206 0.5764 0.0162 0.0
C699 C 0.82404 0.61435 0.08228 0.0
C700 C 0.82392 0.61129 0.99205 0.0
C701 C 0.82272 0.58902 0.86734 0.0
C702 C 0.82206 0.57007 0.83415 0.0
C703 C 0.82286 0.59232 0.95809 0.0
C704 C 0.8208 0.55424 0.89325 0.0
C705 C 0.82081 0.55735 0.98296 0.0
H706 H 0.46971 0.25279 0.1841 0.0
H707 H 0.40146 0.20714 0.14284 0.0
H708 H 0.40621 0.21356 0.98554 0.0
H709 H 0.42989 0.23213 0.86026 0.0
H710 H 0.49872 0.27631 0.90324 0.0
H711 H 0.49343 0.27081 0.05898 0.0
C712 C 0.45583 0.24443 0.14073 0.0
C713 C 0.43523 0.22961 0.17509 0.0
C714 C 0.45877 0.24797 0.05052 0.0
C715 C 0.41749 0.21854 0.11786 0.0
C716 C 0.42021 0.22226 0.02802 0.0
C717 C 0.44385 0.24045 0.90309 0.0
C718 C 0.46471 0.25473 0.86842 0.0
C719 C 0.44083 0.23687 0.9935 0.0
C720 C 0.48239 0.26549 0.92659 0.0
C721 C 0.47944 0.26225 0.01633 0.0
H722 H 0.76789 0.17853 0.88963 0.0
H723 H 0.8151 0.24523 0.82841 0.0
H724 H 0.82993 0.25068 0.97615 0.0
H725 H 0.8281 0.23692 0.12448 0.0
H726 H 0.78072 0.17024 0.18569 0.0
H727 H 0.7672 0.16428 0.03599 0.0
C728 C 0.78128 0.1943 0.90896 0.0
C729 C 0.79023 0.21156 0.84878 0.0
C730 C 0.7897 0.19726 0.9937 0.0
C731 C 0.80797 0.23174 0.87386 0.0
C732 C 0.81642 0.23485 0.95819 0.0
C733 C 0.81514 0.22097 0.10462 0.0
C734 C 0.8054 0.20405 0.16609 0.0
C735 C 0.80731 0.21776 0.0188 0.0
C736 C 0.78833 0.18356 0.13964 0.0
C737 C 0.7806 0.18015 0.05419 0.0
H738 H 0.9368 0.49633 0.84055 0.0
H739 H 0.87197 0.44241 0.79663 0.0
H740 H 0.87691 0.44789 0.63952 0.0
H741 H 0.90079 0.46589 0.5145 0.0
H742 H 0.96593 0.5195 0.55781 0.0
H743 H 0.95979 0.51624 0.71483 0.0
C744 C 0.92364 0.48607 0.79666 0.0
C745 C 0.90412 0.46886 0.8304 0.0
C746 C 0.92675 0.48908 0.70606 0.0
C747 C 0.88726 0.45558 0.77235 0.0
C748 C 0.89007 0.45871 0.68246 0.0
C749 C 0.91351 0.47715 0.55798 0.0
C750 C 0.93387 0.49281 0.52396 0.0
C751 C 0.90993 0.47508 0.64845 0.0
C752 C 0.95023 0.50706 0.58198 0.0
C753 C 0.9467 0.50527 0.67193 0.0
H754 H 0.57808 0.46385 0.83922 0.0
H755 H 0.51148 0.41145 0.81287 0.0
H756 H 0.51188 0.41936 0.65932 0.0
H757 H 0.53089 0.44082 0.53066 0.0
H758 H 0.59715 0.49369 0.55458 0.0
H759 H 0.59682 0.48636 0.71014 0.0
C760 C 0.5636 0.45426 0.80017 0.0
C761 C 0.54494 0.4368 0.83854 0.0
C762 C 0.56375 0.45909 0.71088 0.0
C763 C 0.52636 0.42458 0.78596 0.0
C764 C 0.52644 0.42922 0.69762 0.0
C765 C 0.5453 0.45071 0.56975 0.0
C766 C 0.564 0.46775 0.53046 0.0
C767 C 0.54506 0.44632 0.65919 0.0
C768 C 0.5824 0.48062 0.58283 0.0
C769 C 0.58229 0.47632 0.67194 0.0
H770 H 0.57267 0.0783 0.56555 0.0
H771 H 0.58103 0.13993 0.47763 0.0
H772 H 0.59102 0.15486 0.6247 0.0
H773 H 0.59765 0.15031 0.77908 0.0
H774 H 0.58989 0.08897 0.8657 0.0
H775 H 0.57935 0.07378 0.71894 0.0
C776 C 0.57641 0.09487 0.57927 0.0
C777 C 0.57618 0.10803 0.51168 0.0
C778 C 0.58237 0.10337 0.66346 0.0
C779 C 0.58134 0.12962 0.52916 0.0
C780 C 0.58704 0.13815 0.61296 0.0
C781 C 0.59381 0.13374 0.76479 0.0
C782 C 0.59416 0.12054 0.83179 0.0
C783 C 0.58781 0.12524 0.68048 0.0
C784 C 0.58917 0.09906 0.81425 0.0
C785 C 0.58326 0.09047 0.73074 0.0
H786 H 0.46325 0.92868 0.46633 0.0
H787 H 0.5264 0.93712 0.53249 0.0
H788 H 0.53103 0.92825 0.38323 0.0
H789 H 0.5163 0.91646 0.23556 0.0
H790 H 0.45353 0.90876 0.16937 0.0
H791 H 0.44963 0.91928 0.31709 0.0
C792 C 0.47824 0.92907 0.44787 0.0
C793 C 0.4944 0.93343 0.51074 0.0
C794 C 0.48074 0.92389 0.36218 0.0
C795 C 0.51359 0.93352 0.48562 0.0
C796 C 0.51625 0.92846 0.40033 0.0
C797 C 0.50174 0.91698 0.25393 0.0
C798 C 0.48509 0.91163 0.1925 0.0
C799 C 0.49974 0.9232 0.33855 0.0
C800 C 0.46652 0.91283 0.21599 0.0
C801 C 0.46429 0.91881 0.30024 0.0
H802 H 0.13186 0.58003 0.46097 0.0
H803 H 0.06221 0.54227 0.4219 0.0
H804 H 0.06721 0.54823 0.26509 0.0
H805 H 0.09133 0.56461 0.13898 0.0
H806 H 0.16102 0.6021 0.17818 0.0
H807 H 0.15599 0.59618 0.33477 0.0
C808 C 0.11776 0.57326 0.41832 0.0
C809 C 0.09668 0.5607 0.4535 0.0
C810 C 0.12075 0.57677 0.32801 0.0
C811 C 0.07863 0.55177 0.39675 0.0
C812 C 0.08147 0.55526 0.30697 0.0
C813 C 0.10545 0.57129 0.18151 0.0
C814 C 0.12654 0.58383 0.14629 0.0
C815 C 0.10245 0.56771 0.2718 0.0
C816 C 0.14459 0.59264 0.20311 0.0
C817 C 0.14173 0.58916 0.29287 0.0
H818 H 0.43599 0.54508 0.53896 0.0
H819 H 0.4998 0.55269 0.49629 0.0
H820 H 0.49409 0.55145 0.33897 0.0
H821 H 0.47047 0.54725 0.21291 0.0
H822 H 0.40635 0.53851 0.25736 0.0
H823 H 0.41256 0.54085 0.41451 0.0
C824 C 0.44859 0.54619 0.49565 0.0
C825 C 0.46828 0.54887 0.53008 0.0
C826 C 0.44513 0.5453 0.40524 0.0
C827 C 0.48455 0.5508 0.47203 0.0
C828 C 0.48127 0.55001 0.38188 0.0
C829 C 0.45801 0.54617 0.25707 0.0
C830 C 0.43799 0.5428 0.22355 0.0
C831 C 0.46161 0.54726 0.34765 0.0
C832 C 0.42183 0.54099 0.28168 0.0
C833 C 0.42538 0.54235 0.37147 0.0
H834 H 0.59851 0.82719 0.17551 0.0
H835 H 0.53064 0.78051 0.13125 0.0
H836 H 0.53607 0.78564 0.97418 0.0
H837 H 0.56072 0.801 0.84938 0.0
H838 H 0.62875 0.8475 0.89283 0.0
H839 H 0.62268 0.84483 0.04986 0.0
C840 C 0.58484 0.8185 0.13153 0.0
C841 C 0.56422 0.80337 0.16512 0.0
C842 C 0.58817 0.82129 0.04097 0.0
C843 C 0.54672 0.79203 0.10703 0.0
C844 C 0.54981 0.79497 0.01719 0.0
C845 C 0.57415 0.81089 0.89285 0.0
C846 C 0.59522 0.8243 0.85885 0.0
C847 C 0.57057 0.80919 0.9833 0.0
C848 C 0.61245 0.83676 0.91693 0.0
C849 C 0.60897 0.83532 0.0069 0.0
H850 H 0.19128 0.75938 0.1205 0.0
H851 H 0.25802 0.80613 0.18383 0.0
H852 H 0.26389 0.82084 0.03584 0.0
H853 H 0.25053 0.81881 0.88679 0.0
H854 H 0.18366 0.77212 0.82379 0.0
H855 H 0.17729 0.75883 0.97365 0.0
C856 C 0.20713 0.77268 0.10158 0.0
C857 C 0.22431 0.78149 0.16226 0.0
C858 C 0.21031 0.78103 0.01679 0.0
C859 C 0.24461 0.79911 0.13787 0.0
C860 C 0.24795 0.80748 0.05343 0.0
C861 C 0.23444 0.80607 0.90616 0.0
C862 C 0.21761 0.7964 0.84405 0.0
C863 C 0.23096 0.79843 0.99217 0.0
C864 C 0.19694 0.77964 0.87016 0.0
C865 C 0.19329 0.77205 0.95576 0.0
H866 H 0.26903 0.46435 0.81898 0.0
H867 H 0.20961 0.40337 0.86128 0.0
H868 H 0.21488 0.4083 0.01874 0.0
H869 H 0.23701 0.42966 0.14508 0.0
H870 H 0.29689 0.48993 0.10073 0.0
H871 H 0.29094 0.48548 0.94353 0.0
C872 C 0.25734 0.45196 0.8623 0.0
C873 C 0.239 0.43343 0.82779 0.0
C874 C 0.26054 0.45484 0.95271 0.0
C875 C 0.22379 0.41786 0.88571 0.0
C876 C 0.22683 0.42064 0.9759 0.0
C877 C 0.24854 0.44193 0.10087 0.0
C878 C 0.26732 0.46018 0.13437 0.0
C879 C 0.24515 0.43908 0.01025 0.0
C880 C 0.28238 0.47574 0.07631 0.0
C881 C 0.27898 0.4732 0.98653 0.0
H882 H 0.24181 0.39707 0.251 0.0
H883 H 0.23892 0.37581 0.51569 0.0
H884 H 0.22243 0.33778 0.46645 0.0
H885 H 0.20228 0.31059 0.35066 0.0
H886 H 0.2045 0.33223 0.08715 0.0
H887 H 0.2282 0.37015 0.13221 0.0
C888 C 0.23839 0.38414 0.29732 0.0
C889 C 0.24162 0.38909 0.38663 0.0
C890 C 0.22855 0.3624 0.2685 0.0
C891 C 0.23688 0.37233 0.44655 0.0
C892 C 0.22719 0.35059 0.41838 0.0
C893 C 0.2088 0.32356 0.30286 0.0
C894 C 0.20197 0.31872 0.21565 0.0
C895 C 0.22203 0.34537 0.32994 0.0
C896 C 0.20994 0.33563 0.15424 0.0
C897 C 0.22327 0.35731 0.18025 0.0
H898 H 0.71754 0.8978 0.37709 0.0
H899 H 0.70311 0.87371 0.11403 0.0
H900 H 0.66392 0.8551 0.14555 0.0
H901 H 0.63461 0.8404 0.25596 0.0
H902 H 0.64874 0.8656 0.51757 0.0
H903 H 0.68718 0.8894 0.47893 0.0
C904 C 0.70571 0.88924 0.32589 0.0
C905 C 0.71305 0.88722 0.2432 0.0
C906 C 0.68323 0.87851 0.34486 0.0
C907 C 0.69774 0.87577 0.17757 0.0
C908 C 0.67536 0.86491 0.196 0.0
C909 C 0.646 0.8517 0.30346 0.0
C910 C 0.63899 0.85129 0.38944 0.0
C911 C 0.66801 0.86538 0.28046 0.0
C912 C 0.6538 0.86584 0.45084 0.0
C913 C 0.6758 0.87928 0.4289 0.0
H914 H 0.19093 0.83449 0.49869 0.0
H915 H 0.17225 0.78148 0.3184 0.0
H916 H 0.15064 0.79375 0.23433 0.0
H917 H 0.14158 0.82312 0.20173 0.0
H918 H 0.16113 0.87577 0.38579 0.0
H919 H 0.17734 0.85992 0.47951 0.0
C920 C 0.1816 0.82529 0.44234 0.0
C921 C 0.18308 0.80718 0.4146 0.0
C922 C 0.16951 0.83256 0.39444 0.0
C923 C 0.17106 0.79536 0.34142 0.0
C924 C 0.15892 0.80253 0.29292 0.0
C925 C 0.14892 0.83073 0.26335 0.0
C926 C 0.15053 0.85079 0.28611 0.0
C927 C 0.15863 0.8216 0.31713 0.0
C928 C 0.16007 0.86053 0.36613 0.0
C929 C 0.16937 0.8515 0.41989 0.0
H930 H 0.39744 0.23101 0.74324 0.0
H931 H 0.37631 0.21746 0.47627 0.0
H932 H 0.33812 0.20091 0.5222 0.0
H933 H 0.31102 0.18431 0.64026 0.0
H934 H 0.33209 0.19757 0.90735 0.0
H935 H 0.37003 0.22056 0.86029 0.0
C936 C 0.38445 0.2253 0.6952 0.0
C937 C 0.38953 0.22568 0.60656 0.0
C938 C 0.36256 0.21546 0.72248 0.0
C939 C 0.37269 0.21773 0.54464 0.0
C940 C 0.35088 0.20801 0.57106 0.0
C941 C 0.32387 0.19298 0.68778 0.0
C942 C 0.31893 0.18952 0.77694 0.0
C943 C 0.34561 0.20594 0.66 0.0
C944 C 0.33561 0.20038 0.83841 0.0
C945 C 0.35729 0.21331 0.81144 0.0
H946 H 0.84789 0.14659 0.83678 0.0
H947 H 0.83882 0.10491 0.61805 0.0
H948 H 0.81871 0.11979 0.54015 0.0
H949 H 0.80945 0.14945 0.52571 0.0
H950 H 0.82059 0.19198 0.7444 0.0
H951 H 0.83359 0.17186 0.83145 0.0
C952 C 0.84065 0.14014 0.77359 0.0
C953 C 0.84437 0.12442 0.73372 0.0
C954 C 0.82976 0.14927 0.72858 0.0
C955 C 0.83559 0.11661 0.65074 0.0
C956 C 0.82438 0.12537 0.60578 0.0
C957 C 0.81409 0.15378 0.59322 0.0
C958 C 0.8142 0.17221 0.62865 0.0
C959 C 0.82215 0.14238 0.64262 0.0
C960 C 0.82051 0.17791 0.7158 0.0
C961 C 0.82801 0.16645 0.76556 0.0
H962 H 0.88836 0.69371 0.82901 0.0
H963 H 0.91347 0.73433 0.60206 0.0
H964 H 0.90189 0.70205 0.5102 0.0
H965 H 0.87818 0.66198 0.4927 0.0
H966 H 0.85393 0.62159 0.72089 0.0
H967 H 0.87198 0.65376 0.81451 0.0
C968 C 0.89217 0.69547 0.76007 0.0
C969 C 0.90176 0.71628 0.722 0.0
C970 C 0.88534 0.67676 0.70787 0.0
C971 C 0.9062 0.71842 0.63244 0.0
C972 C 0.89942 0.69994 0.57993 0.0
C973 C 0.87777 0.66023 0.56293 0.0
C974 C 0.86488 0.63949 0.60016 0.0
C975 C 0.88807 0.67895 0.61641 0.0
C976 C 0.86395 0.63741 0.69114 0.0
C977 C 0.87411 0.65583 0.74463 0.0
H978 H 0.97116 0.50836 0.91845 0.0
H979 H 0.98958 0.53547 0.17591 0.0
H980 H 0.02725 0.55922 0.12691 0.0
H981 H 0.05592 0.56683 0.01669 0.0
H982 H 0.03685 0.5399 0.75907 0.0
H983 H 0.99837 0.522 0.80078 0.0
C984 C 0.98324 0.52016 0.96269 0.0
C985 C 0.97769 0.52031 0.05036 0.0
C986 C 1.00478 0.53365 0.93391 0.0
C987 C 0.99348 0.53533 0.10782 0.0
C988 C 1.01506 0.54873 0.07994 0.0
C989 C 0.04323 0.55788 0.96888 0.0
C990 C 0.04907 0.55486 0.88464 0.0
C991 C 0.02109 0.54734 0.99398 0.0
C992 C 0.03263 0.54272 0.82368 0.0
C993 C 1.01065 0.53228 0.84789 0.0
H994 H 0.46856 0.50499 0.10029 0.0
H995 H 0.47372 0.49552 0.82632 0.0
H996 H 0.49243 0.47493 0.85896 0.0
H997 H 0.51273 0.46542 0.96526 0.0
H998 H 0.50644 0.47373 0.23943 0.0
H999 H 0.48242 0.48872 0.20762 0.0
C1000 C 0.47308 0.49768 0.04805 0.0
C1001 C 0.46981 0.50165 0.96111 0.0
C1002 C 0.48388 0.48599 0.06753 0.0
C1003 C 0.47584 0.49236 0.89363 0.0
C1004 C 0.48677 0.48085 0.91236 0.0
C1005 C 0.50551 0.46992 0.01791 0.0
C1006 C 0.51132 0.46866 0.10447 0.0
C1007 C 0.49168 0.47839 0.99893 0.0
C1008 C 0.502 0.47446 0.17247 0.0
C1009 C 0.48844 0.48318 0.15417 0.0
H1010 H 0.57265 0.03739 0.13495 0.0
H1011 H 0.5533 0.06779 0.93723 0.0
H1012 H 0.5382 0.0351 0.84932 0.0
H1013 H 0.5242 0.99602 0.84028 0.0
H1014 H 0.54026 0.96332 0.03858 0.0
H1015 H 0.56284 0.99829 0.11396 0.0
C1016 C 0.56581 0.03699 0.07128 0.0
C1017 C 0.56449 0.05523 0.04211 0.0
C1018 C 0.55607 0.01744 0.02179 0.0
C1019 C 0.55499 0.05426 0.96058 0.0
C1020 C 0.54607 0.0354 0.91037 0.0
C1021 C 0.5333 0.99672 0.8984 0.0
C1022 C 0.53077 0.97731 0.93365 0.0
C1023 C 0.54565 0.01664 0.94196 0.0
C1024 C 0.54232 0.97822 0.00956 0.0
C1025 C 0.55499 0.99818 0.05317 0.0
H1026 H 0.20675 0.21916 0.17182 0.0
H1027 H 0.18318 0.23448 0.93811 0.0
H1028 H 0.19947 0.21752 0.8496 0.0
H1029 H 0.2212 0.19899 0.83838 0.0
H1030 H 0.24244 0.18139 0.07274 0.0
H1031 H 0.2263 0.19848 0.16112 0.0
C1032 C 0.20516 0.21874 0.10151 0.0
C1033 C 0.19393 0.22821 0.06157 0.0
C1034 C 0.2142 0.20857 0.05112 0.0
C1035 C 0.19171 0.22727 0.97048 0.0
C1036 C 0.2011 0.21765 0.91978 0.0
C1037 C 0.22228 0.19893 0.9088 0.0
C1038 C 0.23313 0.18909 0.94897 0.0
C1039 C 0.21251 0.20838 0.95933 0.0
C1040 C 0.23411 0.1888 0.04029 0.0
C1041 C 0.22495 0.19864 0.09087 0.0
H1042 H 0.85271 0.98047 0.11566 0.0
H1043 H 0.78835 0.96267 0.02188 0.0
H1044 H 0.8034 0.99744 0.9434 0.0
H1045 H 0.83544 0.03282 0.89806 0.0
H1046 H 0.89961 0.04854 0.98616 0.0
H1047 H 0.88407 0.01493 0.07123 0.0
C1048 C 0.84189 0.98416 0.07839 0.0
C1049 C 0.8194 0.96895 0.07499 0.0
C1050 C 0.85067 1.00396 0.0327 0.0
C1051 C 0.80573 0.97404 0.0256 0.0
C1052 C 0.81433 0.99396 0.98086 0.0
C1053 C 0.84587 0.0289 0.93691 0.0
C1054 C 0.8686 0.04312 0.93664 0.0
C1055 C 0.83683 1.00906 0.98366 0.0
C1056 C 0.88207 0.0378 0.98569 0.0
C1057 C 0.87321 0.01857 0.03411 0.0
H1058 H 1.00152 0.79356 0.86305 0.0
H1059 H 0.96542 0.81826 1.00379 0.0
H1060 H 0.99812 0.84305 0.08466 0.0
H1061 H 0.03704 0.85824 0.11485 0.0
H1062 H 0.07325 0.83282 0.98033 0.0
H1063 H 0.04049 0.80781 0.89836 0.0
C1064 C 1.00078 0.80435 0.91141 0.0
C1065 C 0.98096 0.80417 0.92596 0.0
C1066 C 0.01971 0.81849 0.95909 0.0
C1067 C 0.98038 0.81816 0.98979 0.0
C1068 C 0.99912 0.83235 0.03657 0.0
C1069 C 0.03784 0.84724 0.06764 0.0
C1070 C 0.05772 0.84762 0.05337 0.0
C1071 C 1.01889 0.83275 0.02146 0.0
C1072 C 0.05826 0.83302 0.99255 0.0
C1073 C 0.03949 0.81869 0.94553 0.0
H1074 H 0.85304 0.8097 0.01743 0.0
H1075 H 0.91025 0.86768 0.92609 0.0
H1076 H 0.89511 0.89014 0.97811 0.0
H1077 H 0.86502 0.89322 0.04671 0.0
H1078 H 0.80727 0.8345 0.13016 0.0
H1079 H 0.82325 0.81265 0.08408 0.0
C1080 C 0.86217 0.82723 0.00792 0.0
C1081 C 0.88274 0.83688 0.96717 0.0
C1082 C 0.85327 0.84003 0.03703 0.0
C1083 C 0.89447 0.85973 0.95774 0.0
C1084 C 0.88575 0.87261 0.98706 0.0
C1085 C 0.8559 0.87565 0.05464 0.0
C1086 C 0.83501 0.8657 0.09322 0.0
C1087 C 0.86508 0.86293 0.0264 0.0
C1088 C 0.82357 0.84284 0.1031 0.0
C1089 C 0.83261 0.8302 0.07584 0.0
H1090 H 0.18643 0.03922 0.86434 0.0
H1091 H 0.18469 0.06378 0.11958 0.0
H1092 H 0.16222 0.0265 0.17287 0.0
H1093 H 0.14534 0.98685 0.14993 0.0
H1094 H 0.1487 0.96251 0.89602 0.0
H1095 H 0.16794 0.99964 0.83947 0.0
C1096 C 0.18112 0.03643 0.93164 0.0
C1097 C 0.18742 0.05435 0.98789 0.0
C1098 C 0.16844 0.01492 0.96226 0.0
C1099 C 0.17999 0.05038 0.07449 0.0
C1100 C 0.16724 0.02902 0.10526 0.0
C1101 C 0.1502 0.98964 0.08211 0.0
C1102 C 0.14554 0.97177 0.02762 0.0
C1103 C 0.16172 1.01116 0.05017 0.0
C1104 C 0.15171 0.97579 0.93949 0.0
C1105 C 0.16295 0.99709 0.90713 0.0
H1106 H 0.99081 0.17175 0.87772 0.0
H1107 H 0.98251 0.11045 0.97078 0.0
H1108 H 0.02002 0.12908 0.02604 0.0
H1109 H 0.05496 0.16324 0.0527 0.0
H1110 H 0.06256 0.22419 0.9582 0.0
H1111 H 0.02575 0.20523 0.89824 0.0
C1112 C 0.99728 0.16235 0.90861 0.0
C1113 C 0.98379 0.13968 0.91964 0.0
C1114 C 1.01879 0.17317 0.94066 0.0
C1115 C 0.99242 0.12793 0.96185 0.0
C1116 C 1.01391 0.13857 0.99332 0.0
C1117 C 0.0486 0.17231 0.01829 0.0
C1118 C 0.06147 0.19518 0.01108 0.0
C1119 C 0.02722 0.16125 0.9839 0.0
C1120 C 0.05291 0.20667 0.96642 0.0
C1121 C 0.03186 0.19582 0.93159 0.0
H1122 H 0.89952 0.52459 0.25293 0.0
H1123 H 0.84003 0.46802 0.16715 0.0
H1124 H 0.81847 0.4821 0.23534 0.0
H1125 H 0.81612 0.50978 0.32249 0.0
H1126 H 0.87487 0.56778 0.40182 0.0
H1127 H 0.89706 0.55407 0.33253 0.0
C1128 C 0.88185 0.51544 0.24909 0.0
C1129 C 0.87144 0.49522 0.20517 0.0
C1130 C 0.86939 0.5239 0.28719 0.0
C1131 C 0.84852 0.48365 0.20003 0.0
C1132 C 0.83612 0.49165 0.23929 0.0
C1133 C 0.8338 0.51946 0.32439 0.0
C1134 C 0.84385 0.53964 0.3679 0.0
C1135 C 0.84634 0.51165 0.2834 0.0
C1136 C 0.86676 0.55219 0.3686 0.0
C1137 C 0.87942 0.54429 0.32934 0.0
H1138 H 0.53614 0.36336 0.23978 0.0
H1139 H 0.51056 0.40038 0.36693 0.0
H1140 H 0.48545 0.36815 0.45091 0.0
H1141 H 0.47062 0.32928 0.48798 0.0
H1142 H 0.49614 0.29254 0.35777 0.0
H1143 H 0.52124 0.32476 0.27544 0.0
C1144 C 0.52512 0.36445 0.28594 0.0
C1145 C 0.52533 0.38435 0.29699 0.0
C1146 C 0.51061 0.34583 0.33353 0.0
C1147 C 0.51081 0.38533 0.35697 0.0
C1148 C 0.49641 0.36687 0.40507 0.0
C1149 C 0.48166 0.3283 0.4416 0.0
C1150 C 0.48144 0.30839 0.42961 0.0
C1151 C 0.49614 0.347 0.39383 0.0
C1152 C 0.49589 0.30753 0.3689 0.0
C1153 C 0.51031 0.32601 0.32155 0.0
H1154 H 0.70884 0.19466 0.44537 0.0
H1155 H 0.74144 0.16144 0.34382 0.0
H1156 H 0.70861 0.13661 0.26202 0.0
H1157 H 0.67051 0.12438 0.21846 0.0
H1158 H 0.63798 0.15722 0.32512 0.0
H1159 H 0.67083 0.18201 0.40524 0.0
C1160 C 0.70884 0.18201 0.4054 0.0
C1161 C 0.72773 0.18009 0.40061 0.0
C1162 C 0.68984 0.16766 0.35907 0.0
C1163 C 0.72724 0.16343 0.3487 0.0
C1164 C 0.70842 0.14918 0.30182 0.0
C1165 C 0.67058 0.13695 0.2592 0.0
C1166 C 0.65173 0.13899 0.26452 0.0
C1167 C 0.6896 0.15115 0.30633 0.0
C1168 C 0.65221 0.15534 0.31836 0.0
C1169 C 0.67103 0.16954 0.36473 0.0
H1170 H 0.53112 0.15147 0.35716 0.0
H1171 H 0.58498 0.20921 0.24587 0.0
H1172 H 0.56969 0.23129 0.30163 0.0
H1173 H 0.53997 0.23379 0.37718 0.0
H1174 H 0.48511 0.17479 0.47725 0.0
H1175 H 0.50187 0.15378 0.43043 0.0
C1176 C 0.53947 0.16886 0.34406 0.0
C1177 C 0.55904 0.17855 0.29619 0.0
C1178 C 0.53039 0.18131 0.37459 0.0
C1179 C 0.56993 0.20126 0.28266 0.0
C1180 C 0.5611 0.21389 0.31408 0.0
C1181 C 0.53163 0.21634 0.38851 0.0
C1182 C 0.51134 0.20609 0.43204 0.0
C1183 C 0.54116 0.20403 0.3593 0.0
C1184 C 0.50096 0.1834 0.44638 0.0
C1185 C 0.51043 0.17123 0.41872 0.0
H1186 H 0.84935 0.31481 0.46653 0.0
H1187 H 0.78972 0.29876 0.33007 0.0
H1188 H 0.80586 0.33656 0.28009 0.0
H1189 H 0.8375 0.37421 0.27227 0.0
H1190 H 0.89615 0.38969 0.41518 0.0
H1191 H 0.87954 0.35223 0.46691 0.0
C1192 C 0.83957 0.31952 0.42746 0.0
C1193 C 0.81819 0.30374 0.40279 0.0
C1194 C 0.84883 0.34131 0.39987 0.0
C1195 C 0.80625 0.31035 0.34962 0.0
C1196 C 0.81545 0.33205 0.32137 0.0
C1197 C 0.84651 0.36945 0.31571 0.0
C1198 C 0.8682 0.3848 0.33878 0.0
C1199 C 0.8368 0.34769 0.34571 0.0
C1200 C 0.87964 0.37822 0.39479 0.0
C1201 C 0.87012 0.35676 0.42478 0.0
H1202 H 0.7271 0.49928 0.29685 0.0
H1203 H 0.71561 0.5369 0.49058 0.0
H1204 H 0.67716 0.51794 0.45448 0.0
H1205 H 0.64654 0.49171 0.36464 0.0
H1206 H 0.65804 0.45719 0.15938 0.0
H1207 H 0.6967 0.4743 0.20154 0.0
C1208 C 0.71637 0.50362 0.33084 0.0
C1209 C 0.72468 0.51946 0.39785 0.0
C1210 C 0.69411 0.49326 0.30712 0.0
C1211 C 0.71002 0.52438 0.44104 0.0
C1212 C 0.68787 0.51371 0.41961 0.0
C1213 C 0.65755 0.48788 0.32962 0.0
C1214 C 0.64954 0.47309 0.25977 0.0
C1215 C 0.67975 0.49821 0.35269 0.0
C1216 C 0.66392 0.46848 0.21366 0.0
C1217 C 0.68597 0.47826 0.23781 0.0
H1218 H 0.56305 0.86011 0.60168 0.0
H1219 H 0.50303 0.80532 0.50921 0.0
H1220 H 0.48191 0.81803 0.59022 0.0
H1221 H 0.48014 0.84417 0.68924 0.0
H1222 H 0.53942 0.90088 0.77364 0.0
H1223 H 0.56115 0.88816 0.69388 0.0
C1224 C 0.54537 0.85108 0.59914 0.0
C1225 C 0.53466 0.83179 0.54944 0.0
C1226 C 0.53317 0.85881 0.64456 0.0
C1227 C 0.51172 0.8203 0.54624 0.0
C1228 C 0.49958 0.8275 0.59292 0.0
C1229 C 0.49783 0.85373 0.69021 0.0
C1230 C 0.50819 0.87325 0.73803 0.0
C1231 C 0.51009 0.84663 0.64255 0.0
C1232 C 0.5311 0.88574 0.73734 0.0
C1233 C 0.5435 0.87844 0.69194 0.0
H1234 H 0.19967 0.69624 0.54169 0.0
H1235 H 0.17498 0.73329 0.67466 0.0
H1236 H 0.14762 0.70022 0.74797 0.0
H1237 H 0.13102 0.66068 0.77627 0.0
H1238 H 0.15478 0.62369 0.63607 0.0
H1239 H 0.18199 0.65672 0.56386 0.0
C1240 C 0.18835 0.69714 0.58683 0.0
C1241 C 0.18962 0.71735 0.60331 0.0
C1242 C 0.1724 0.67798 0.62763 0.0
C1243 C 0.17454 0.71805 0.66106 0.0
C1244 C 0.15884 0.6991 0.70302 0.0
C1245 C 0.14208 0.65981 0.72969 0.0
C1246 C 0.14097 0.63964 0.71307 0.0
C1247 C 0.15765 0.67895 0.68707 0.0
C1248 C 0.15538 0.63891 0.6517 0.0
C1249 C 0.17098 0.65785 0.60993 0.0
H1250 H 0.32547 0.47137 0.58597 0.0
H1251 H 0.31232 0.52445 0.61662 0.0
H1252 H 0.34457 0.54395 0.70841 0.0
H1253 H 0.37697 0.54659 0.77699 0.0
H1254 H 0.39243 0.49527 0.73994 0.0
H1255 H 0.35908 0.47455 0.65337 0.0
C1256 C 0.32967 0.48713 0.61343 0.0
C1257 C 0.31653 0.49646 0.59481 0.0
C1258 C 0.34874 0.49865 0.66445 0.0
C1259 C 0.32225 0.517 0.62971 0.0
C1260 C 0.34068 0.52817 0.68227 0.0
C1261 C 0.37305 0.53082 0.75037 0.0
C1262 C 0.38713 0.52245 0.7655 0.0
C1263 C 0.35413 0.51926 0.69951 0.0
C1264 C 0.38188 0.50211 0.72932 0.0
C1265 C 0.36277 0.49024 0.67996 0.0
H1266 H 0.15305 0.51744 0.63239 0.0
H1267 H 0.20853 0.57435 0.741 0.0
H1268 H 0.23269 0.56098 0.69119 0.0
H1269 H 0.2379 0.53254 0.61929 0.0
H1270 H 0.18169 0.47519 0.51637 0.0
H1271 H 0.15813 0.48936 0.56135 0.0
C1272 C 0.1704 0.52686 0.64602 0.0
C1273 C 0.17888 0.54681 0.69107 0.0
C1274 C 0.18415 0.51903 0.61779 0.0
C1275 C 0.20153 0.55901 0.70605 0.0
C1276 C 0.21536 0.55131 0.67795 0.0
C1277 C 0.2205 0.52312 0.60687 0.0
C1278 C 0.21173 0.50288 0.56348 0.0
C1279 C 0.20683 0.53126 0.63411 0.0
C1280 C 0.18909 0.49102 0.54761 0.0
C1281 C 0.1755 0.49902 0.57411 0.0
H1282 H 0.46163 0.64419 0.73937 0.0
H1283 H 0.51897 0.6458 0.84706 0.0
H1284 H 0.54123 0.68364 0.80319 0.0
H1285 H 0.545 0.71614 0.73112 0.0
H1286 H 0.48858 0.71459 0.61481 0.0
H1287 H 0.46555 0.67714 0.66569 0.0
C1288 C 0.47899 0.65279 0.75309 0.0
C1289 C 0.48841 0.64203 0.79775 0.0
C1290 C 0.49198 0.67467 0.7261 0.0
C1291 C 0.511 0.65363 0.81508 0.0
C1292 C 0.52389 0.67531 0.78919 0.0
C1293 C 0.5277 0.70761 0.71609 0.0
C1294 C 0.51866 0.71827 0.66863 0.0
C1295 C 0.5146 0.68596 0.74425 0.0
C1296 C 0.49605 0.70698 0.6519 0.0
C1297 C 0.48285 0.68545 0.68047 0.0
H1298 H 0.31128 0.82373 0.71723 0.0
H1299 H 0.32399 0.78891 0.51695 0.0
H1300 H 0.36231 0.80587 0.56341 0.0
H1301 H 0.39233 0.83139 0.65919 0.0
H1302 H 0.3797 0.8693 0.8475 0.0
H1303 H 0.34139 0.85002 0.80901 0.0
C1304 C 0.32243 0.81969 0.68461 0.0
C1305 C 0.31486 0.80491 0.6147 0.0
C1306 C 0.34451 0.83004 0.70978 0.0
C1307 C 0.3295 0.80014 0.57143 0.0
C1308 C 0.35138 0.80988 0.59789 0.0
C1309 C 0.38134 0.83566 0.69157 0.0
C1310 C 0.38929 0.85172 0.7577 0.0
C1311 C 0.35916 0.82506 0.66655 0.0
C1312 C 0.37437 0.85662 0.79871 0.0
C1313 C 0.3523 0.84575 0.77595 0.0
loop_
_geom_bond_atom_site_label_1
_geom_bond_atom_site_label_2
_geom_bond_distance
_geom_bond_site_symmetry_2
_ccdc_geom_bond_type
C0 C1 1.351 . S
C0 N3 1.368 . S
C0 H5 0.931 . S
C1 C0 1.351 . S
C1 N2 1.373 . S
C1 H29 0.930 . S
N2 C1 1.373 . S
N2 C4 1.340 . S
N3 C0 1.368 . S
N3 C4 1.321 . S
N3 Co6 2.135 1_556 S
C4 N2 1.340 . S
C4 N3 1.321 . S
C4 H28 0.930 . S
H5 C0 0.931 . S
Co6 N3 2.135 1_554 S
Co6 N9 2.121 . S
Co6 O14 2.055 . S
Co6 O17 2.039 . S
Co6 N20 2.140 . S
C7 O8 1.227 . S
C7 O17 1.265 . S
O8 C7 1.227 . S
N9 Co6 2.121 . S
N9 C11 1.375 . S
N9 C12 1.313 . S
C10 C11 1.338 . S
C10 N13 1.377 . S
C10 H30 0.930 . S
C11 N9 1.375 . S
C11 C10 1.338 . S
C11 H15 0.931 . S
C12 N9 1.313 . S
C12 N13 1.344 . S
C12 H16 0.930 . S
N13 C10 1.377 . S
N13 C12 1.344 . S
O14 Co6 2.055 . S
O14 C18 1.253 . S
H15 C11 0.931 . S
H16 C12 0.930 . S
O17 Co6 2.039 . S
O17 C7 1.265 . S
C18 O14 1.253 . S
C18 O19 1.227 . S
O19 C18 1.227 . S
N20 Co6 2.140 . S
N20 C23 1.346 . S
N20 C24 1.345 . S
C21 C22 1.387 . S
C21 C25 1.391 . S
C22 C21 1.387 . S
C22 C23 1.369 . S
C22 H31 0.929 1_554 S
C23 N20 1.346 . S
C23 C22 1.369 . S
C23 H26 0.928 1_554 S
C24 N20 1.345 . S
C24 C25 1.371 . S
C24 H27 0.931 . S
C25 C21 1.391 . S
C25 C24 1.371 . S
C25 H32 0.930 . S
H26 C23 0.928 1_556 S
H27 C24 0.931 . S
H28 C4 0.930 . S
H29 C1 0.930 . S
H30 C10 0.930 . S
H31 C22 0.929 1_556 S
H32 C25 0.930 . S
C33 C34 1.351 . S
C33 N36 1.368 . S
C33 H38 0.931 . S
C34 C33 1.351 . S
C34 N35 1.373 . S
C34 H62 0.930 . S
N35 C34 1.373 . S
N35 C37 1.340 . S
N36 C33 1.368 . S
N36 C37 1.321 . S
N36 Co39 2.135 1_556 S
C37 N35 1.340 . S
C37 N36 1.321 . S
C37 H61 0.930 . S
H38 C33 0.931 . S
Co39 N36 2.135 1_554 S
Co39 N42 2.121 . S
Co39 O47 2.055 . S
Co39 O50 2.039 . S
Co39 N53 2.140 . S
C40 O41 1.227 . S
C40 O50 1.265 . S
O41 C40 1.227 . S
N42 Co39 2.121 . S
N42 C44 1.375 . S
N42 C45 1.313 . S
C43 C44 1.338 . S
C43 N46 1.377 . S
C43 H63 0.930 . S
C44 N42 1.375 . S
C44 C43 1.338 . S
C44 H48 0.931 . S
C45 N42 1.313 . S
C45 N46 1.344 . S
C45 H49 0.930 . S
N46 C43 1.377 . S
N46 C45 1.344 . S
O47 Co39 2.055 . S
O47 C51 1.253 . S
H48 C44 0.931 . S
H49 C45 0.930 . S
O50 Co39 2.039 . S
O50 C40 1.265 . S
C51 O47 1.253 . S
C51 O52 1.227 . S
O52 C51 1.227 . S
N53 Co39 2.140 . S
N53 C56 1.346 . S
N53 C57 1.345 . S
C54 C55 1.387 . S
C54 C58 1.391 . S
C55 C54 1.387 . S
C55 C56 1.369 . S
C55 H64 0.929 1_554 S
C56 N53 1.346 . S
C56 C55 1.369 . S
C56 H59 0.928 1_554 S
C57 N53 1.345 . S
C57 C58 1.371 . S
C57 H60 0.931 . S
C58 C54 1.391 . S
C58 C57 1.371 . S
C58 H65 0.930 . S
H59 C56 0.928 1_556 S
H60 C57 0.931 . S
H61 C37 0.930 . S
H62 C34 0.930 . S
H63 C43 0.930 . S
H64 C55 0.929 1_556 S
H65 C58 0.930 . S
C66 C67 1.351 . S
C66 N69 1.368 . S
C66 H71 0.931 . S
C67 C66 1.351 . S
C67 N68 1.373 . S
C67 H95 0.930 . S
N68 C67 1.373 . S
N68 C70 1.340 . S
N69 C66 1.368 . S
N69 C70 1.321 . S
N69 Co72 2.135 1_556 S
C70 N68 1.340 . S
C70 N69 1.321 . S
C70 H94 0.930 . S
H71 C66 0.931 . S
Co72 N69 2.135 1_554 S
Co72 N75 2.121 . S
Co72 O80 2.055 . S
Co72 O83 2.039 . S
Co72 N86 2.140 . S
C73 O74 1.227 . S
C73 O83 1.265 . S
O74 C73 1.227 . S
N75 Co72 2.121 . S
N75 C77 1.375 . S
N75 C78 1.313 . S
C76 C77 1.338 . S
C76 N79 1.377 . S
C76 H96 0.930 . S
C77 N75 1.375 . S
C77 C76 1.338 . S
C77 H81 0.931 . S
C78 N75 1.313 . S
C78 N79 1.344 . S
C78 H82 0.930 . S
N79 C76 1.377 . S
N79 C78 1.344 . S
O80 Co72 2.055 . S
O80 C84 1.253 . S
H81 C77 0.931 . S
H82 C78 0.930 . S
O83 Co72 2.039 . S
O83 C73 1.265 . S
C84 O80 1.253 . S
C84 O85 1.227 . S
O85 C84 1.227 . S
N86 Co72 2.140 . S
N86 C89 1.346 . S
N86 C90 1.345 . S
C87 C88 1.387 . S
C87 C91 1.391 . S
C88 C87 1.387 . S
C88 C89 1.369 . S
C88 H97 0.929 1_554 S
C89 N86 1.346 . S
C89 C88 1.369 . S
C89 H92 0.928 1_554 S
C90 N86 1.345 . S
C90 C91 1.371 . S
C90 H93 0.931 . S
C91 C87 1.391 . S
C91 C90 1.371 . S
C91 H98 0.930 . S
H92 C89 0.928 1_556 S
H93 C90 0.931 . S
H94 C70 0.930 . S
H95 C67 0.930 . S
H96 C76 0.930 . S
H97 C88 0.929 1_556 S
H98 C91 0.930 . S
C99 C100 1.351 . S
C99 N102 1.368 . S
C99 H104 0.931 . S
C100 C99 1.351 . S
C100 N101 1.373 . S
C100 H128 0.930 . S
N101 C100 1.373 . S
N101 C103 1.340 . S
N102 C99 1.368 . S
N102 C103 1.321 . S
N102 Co105 2.135 1_554 S
C103 N101 1.340 . S
C103 N102 1.321 . S
C103 H127 0.930 . S
H104 C99 0.931 . S
Co105 N102 2.135 1_556 S
Co105 N108 2.121 . S
Co105 O113 2.055 . S
Co105 O116 2.039 . S
Co105 N119 2.140 . S
C106 O107 1.227 . S
C106 O116 1.265 . S
O107 C106 1.227 . S
N108 Co105 2.121 . S
N108 C110 1.375 . S
N108 C111 1.313 . S
C109 C110 1.338 . S
C109 N112 1.377 . S
C109 H129 0.930 . S
C110 N108 1.375 . S
C110 C109 1.338 . S
C110 H114 0.931 . S
C111 N108 1.313 . S
C111 N112 1.344 . S
C111 H115 0.930 . S
N112 C109 1.377 . S
N112 C111 1.344 . S
O113 Co105 2.055 . S
O113 C117 1.253 . S
H114 C110 0.931 . S
H115 C111 0.930 . S
O116 Co105 2.039 . S
O116 C106 1.265 . S
C117 O113 1.253 . S
C117 O118 1.227 . S
O118 C117 1.227 . S
N119 Co105 2.140 . S
N119 C122 1.346 . S
N119 C123 1.345 . S
C120 C121 1.387 . S
C120 C124 1.391 . S
C121 C120 1.387 . S
C121 C122 1.369 . S
C121 H130 0.929 1_556 S
C122 N119 1.346 . S
C122 C121 1.369 . S
C122 H125 0.928 1_556 S
C123 N119 1.345 . S
C123 C124 1.371 . S
C123 H126 0.931 . S
C124 C120 1.391 . S
C124 C123 1.371 . S
C124 H131 0.930 . S
H125 C122 0.928 1_554 S
H126 C123 0.931 . S
H127 C103 0.930 . S
H128 C100 0.930 . S
H129 C109 0.930 . S
H130 C121 0.929 1_554 S
H131 C124 0.930 . S
C132 C133 1.351 . S
C132 N135 1.368 . S
C132 H137 0.931 . S
C133 C132 1.351 . S
C133 N134 1.373 . S
C133 H161 0.930 . S
N134 C133 1.373 . S
N134 C136 1.340 . S
N135 C132 1.368 . S
N135 C136 1.321 . S
N135 Co138 2.135 1_554 S
C136 N134 1.340 . S
C136 N135 1.321 . S
C136 H160 0.930 . S
H137 C132 0.931 . S
Co138 N135 2.135 1_556 S
Co138 N141 2.121 . S
Co138 O146 2.055 . S
Co138 O149 2.039 . S
Co138 N152 2.140 . S
C139 O140 1.227 . S
C139 O149 1.265 . S
O140 C139 1.227 . S
N141 Co138 2.121 . S
N141 C143 1.375 . S
N141 C144 1.313 . S
C142 C143 1.338 . S
C142 N145 1.377 . S
C142 H162 0.930 . S
C143 N141 1.375 . S
C143 C142 1.338 . S
C143 H147 0.931 . S
C144 N141 1.313 . S
C144 N145 1.344 . S
C144 H148 0.930 . S
N145 C142 1.377 . S
N145 C144 1.344 . S
O146 Co138 2.055 . S
O146 C150 1.253 . S
H147 C143 0.931 . S
H148 C144 0.930 . S
O149 Co138 2.039 . S
O149 C139 1.265 . S
C150 O146 1.253 . S
C150 O151 1.227 . S
O151 C150 1.227 . S
N152 Co138 2.140 . S
N152 C155 1.346 . S
N152 C156 1.345 . S
C153 C154 1.387 . S
C153 C157 1.391 . S
C154 C153 1.387 . S
C154 C155 1.369 . S
C154 H163 0.929 1_556 S
C155 N152 1.346 . S
C155 C154 1.369 . S
C155 H158 0.928 1_556 S
C156 N152 1.345 . S
C156 C157 1.371 . S
C156 H159 0.931 . S
C157 C153 1.391 . S
C157 C156 1.371 . S
C157 H164 0.930 . S
H158 C155 0.928 1_554 S
H159 C156 0.931 . S
H160 C136 0.930 . S
H161 C133 0.930 . S
H162 C142 0.930 . S
H163 C154 0.929 1_554 S
H164 C157 0.930 . S
C165 C166 1.351 . S
C165 N168 1.368 . S
C165 H170 0.931 . S
C166 C165 1.351 . S
C166 N167 1.373 . S
C166 H194 0.930 . S
N167 C166 1.373 . S
N167 C169 1.340 . S
N168 C165 1.368 . S
N168 C169 1.321 . S
N168 Co171 2.135 1_554 S
C169 N167 1.340 . S
C169 N168 1.321 . S
C169 H193 0.930 . S
H170 C165 0.931 . S
Co171 N168 2.135 1_556 S
Co171 N174 2.121 . S
Co171 O179 2.055 . S
Co171 O182 2.039 . S
Co171 N185 2.140 . S
C172 O173 1.227 . S
C172 O182 1.265 . S
O173 C172 1.227 . S
N174 Co171 2.121 . S
N174 C176 1.375 . S
N174 C177 1.313 . S
C175 C176 1.338 . S
C175 N178 1.377 . S
C175 H195 0.930 . S
C176 N174 1.375 . S
C176 C175 1.338 . S
C176 H180 0.931 . S
C177 N174 1.313 . S
C177 N178 1.344 . S
C177 H181 0.930 . S
N178 C175 1.377 . S
N178 C177 1.344 . S
O179 Co171 2.055 . S
O179 C183 1.253 . S
H180 C176 0.931 . S
H181 C177 0.930 . S
O182 Co171 2.039 . S
O182 C172 1.265 . S
C183 O179 1.253 . S
C183 O184 1.227 . S
O184 C183 1.227 . S
N185 Co171 2.140 . S
N185 C188 1.346 . S
N185 C189 1.345 . S
C186 C187 1.387 . S
C186 C190 1.391 . S
C187 C186 1.387 . S
C187 C188 1.369 . S
C187 H196 0.929 1_556 S
C188 N185 1.346 . S
C188 C187 1.369 . S
C188 H191 0.928 1_556 S
C189 N185 1.345 . S
C189 C190 1.371 . S
C189 H192 0.931 . S
C190 C186 1.391 . S
C190 C189 1.371 . S
C190 H197 0.930 . S
H191 C188 0.928 1_554 S
H192 C189 0.931 . S
H193 C169 0.930 . S
H194 C166 0.930 . S
H195 C175 0.930 . S
H196 C187 0.929 1_554 S
H197 C190 0.930 . S
C198 C199 1.351 . S
C198 N201 1.368 . S
C198 H203 0.931 . S
C199 C198 1.351 . S
C199 N200 1.373 . S
C199 H227 0.930 . S
N200 C199 1.373 . S
N200 C202 1.340 . S
N201 C198 1.368 . S
N201 C202 1.321 . S
N201 Co204 2.135 . S
C202 N200 1.340 . S
C202 N201 1.321 . S
C202 H226 0.930 . S
H203 C198 0.931 . S
Co204 N201 2.135 . S
Co204 N207 2.121 . S
Co204 O212 2.055 . S
Co204 O215 2.039 . S
Co204 N218 2.140 . S
C205 O206 1.227 . S
C205 O215 1.265 . S
O206 C205 1.227 . S
N207 Co204 2.121 . S
N207 C209 1.375 . S
N207 C210 1.313 . S
C208 C209 1.338 . S
C208 N211 1.377 . S
C208 H228 0.930 . S
C209 N207 1.375 . S
C209 C208 1.338 . S
C209 H213 0.931 . S
C210 N207 1.313 . S
C210 N211 1.344 . S
C210 H214 0.930 . S
N211 C208 1.377 . S
N211 C210 1.344 . S
O212 Co204 2.055 . S
O212 C216 1.253 . S
H213 C209 0.931 . S
H214 C210 0.930 . S
O215 Co204 2.039 . S
O215 C205 1.265 . S
C216 O212 1.253 . S
C216 O217 1.227 . S
O217 C216 1.227 . S
N218 Co204 2.140 . S
N218 C221 1.346 . S
N218 C222 1.345 . S
C219 C220 1.387 . S
C219 C223 1.391 . S
C220 C219 1.387 . S
C220 C221 1.369 . S
C220 H229 0.929 . S
C221 N218 1.346 . S
C221 C220 1.369 . S
C221 H224 0.928 . S
C222 N218 1.345 . S
C222 C223 1.371 . S
C222 H225 0.931 . S
C223 C219 1.391 . S
C223 C222 1.371 . S
C223 H230 0.930 . S
H224 C221 0.928 . S
H225 C222 0.931 . S
H226 C202 0.930 . S
H227 C199 0.930 . S
H228 C208 0.930 . S
H229 C220 0.929 . S
H230 C223 0.930 . S
C231 C232 1.351 . S
C231 N234 1.368 . S
C231 H236 0.931 . S
C232 C231 1.351 . S
C232 N233 1.373 . S
C232 H260 0.930 . S
N233 C232 1.373 . S
N233 C235 1.340 . S
N234 C231 1.368 . S
N234 C235 1.321 . S
N234 Co237 2.135 . S
C235 N233 1.340 . S
C235 N234 1.321 . S
C235 H259 0.930 . S
H236 C231 0.931 . S
Co237 N234 2.135 . S
Co237 N240 2.121 . S
Co237 O245 2.055 . S
Co237 O248 2.039 . S
Co237 N251 2.140 . S
C238 O239 1.227 . S
C238 O248 1.265 . S
O239 C238 1.227 . S
N240 Co237 2.121 . S
N240 C242 1.375 . S
N240 C243 1.313 . S
C241 C242 1.338 . S
C241 N244 1.377 . S
C241 H261 0.930 . S
C242 N240 1.375 . S
C242 C241 1.338 . S
C242 H246 0.931 . S
C243 N240 1.313 . S
C243 N244 1.344 . S
C243 H247 0.930 . S
N244 C241 1.377 . S
N244 C243 1.344 . S
O245 Co237 2.055 . S
O245 C249 1.253 . S
H246 C242 0.931 . S
H247 C243 0.930 . S
O248 Co237 2.039 . S
O248 C238 1.265 . S
C249 O245 1.253 . S
C249 O250 1.227 . S
O250 C249 1.227 . S
N251 Co237 2.140 . S
N251 C254 1.346 . S
N251 C255 1.345 . S
C252 C253 1.387 . S
C252 C256 1.391 . S
C253 C252 1.387 . S
C253 C254 1.369 . S
C253 H262 0.929 . S
C254 N251 1.346 . S
C254 C253 1.369 . S
C254 H257 0.928 . S
C255 N251 1.345 . S
C255 C256 1.371 . S
C255 H258 0.931 . S
C256 C252 1.391 . S
C256 C255 1.371 . S
C256 H263 0.930 . S
H257 C254 0.928 . S
H258 C255 0.931 . S
H259 C235 0.930 . S
H260 C232 0.930 . S
H261 C241 0.930 . S
H262 C253 0.929 . S
H263 C256 0.930 . S
C264 C265 1.351 . S
C264 N267 1.368 . S
C264 H269 0.931 . S
C265 C264 1.351 . S
C265 N266 1.373 . S
C265 H293 0.930 . S
N266 C265 1.373 . S
N266 C268 1.340 . S
N267 C264 1.368 . S
N267 C268 1.321 . S
N267 Co270 2.135 . S
C268 N266 1.340 . S
C268 N267 1.321 . S
C268 H292 0.930 . S
H269 C264 0.931 . S
Co270 N267 2.135 . S
Co270 N273 2.121 . S
Co270 O278 2.055 . S
Co270 O281 2.039 . S
Co270 N284 2.140 . S
C271 O272 1.227 . S
C271 O281 1.265 . S
O272 C271 1.227 . S
N273 Co270 2.121 . S
N273 C275 1.375 . S
N273 C276 1.313 . S
C274 C275 1.338 . S
C274 N277 1.377 . S
C274 H294 0.930 . S
C275 N273 1.375 . S
C275 C274 1.338 . S
C275 H279 0.931 . S
C276 N273 1.313 . S
C276 N277 1.344 . S
C276 H280 0.930 . S
N277 C274 1.377 . S
N277 C276 1.344 . S
O278 Co270 2.055 . S
O278 C282 1.253 . S
H279 C275 0.931 . S
H280 C276 0.930 . S
O281 Co270 2.039 . S
O281 C271 1.265 . S
C282 O278 1.253 . S
C282 O283 1.227 . S
O283 C282 1.227 . S
N284 Co270 2.140 . S
N284 C287 1.346 . S
N284 C288 1.345 . S
C285 C286 1.387 . S
C285 C289 1.391 . S
C286 C285 1.387 . S
C286 C287 1.369 . S
C286 H295 0.929 . S
C287 N284 1.346 . S
C287 C286 1.369 . S
C287 H290 0.928 . S
C288 N284 1.345 . S
C288 C289 1.371 . S
C288 H291 0.931 . S
C289 C285 1.391 . S
C289 C288 1.371 . S
C289 H296 0.930 . S
H290 C287 0.928 . S
H291 C288 0.931 . S
H292 C268 0.930 . S
H293 C265 0.930 . S
H294 C274 0.930 . S
H295 C286 0.929 . S
H296 C289 0.930 . S
C297 C298 1.351 . S
C297 N300 1.368 . S
C297 H302 0.931 . S
C298 C297 1.351 . S
C298 N299 1.373 . S
C298 H326 0.930 . S
N299 C298 1.373 . S
N299 C301 1.340 . S
N300 C297 1.368 . S
N300 C301 1.321 . S
N300 Co303 2.135 . S
C301 N299 1.340 . S
C301 N300 1.321 . S
C301 H325 0.930 . S
H302 C297 0.931 . S
Co303 N300 2.135 . S
Co303 N306 2.121 . S
Co303 O311 2.055 . S
Co303 O314 2.039 . S
Co303 N317 2.140 . S
C304 O305 1.227 . S
C304 O314 1.265 . S
O305 C304 1.227 . S
N306 Co303 2.121 . S
N306 C308 1.375 . S
N306 C309 1.313 . S
C307 C308 1.338 1_556 S
C307 N310 1.377 . S
C307 H327 0.930 . S
C308 N306 1.375 . S
C308 C307 1.338 1_554 S
C308 H312 0.931 . S
C309 N306 1.313 . S
C309 N310 1.344 1_554 S
C309 H313 0.930 . S
N310 C307 1.377 . S
N310 C309 1.344 1_556 S
O311 Co303 2.055 . S
O311 C315 1.253 . S
H312 C308 0.931 . S
H313 C309 0.930 . S
O314 Co303 2.039 . S
O314 C304 1.265 . S
C315 O311 1.253 . S
C315 O316 1.227 . S
O316 C315 1.227 . S
N317 Co303 2.140 . S
N317 C320 1.346 . S
N317 C321 1.345 . S
C318 C319 1.387 . S
C318 C322 1.391 . S
C319 C318 1.387 . S
C319 C320 1.369 . S
C319 H328 0.929 . S
C320 N317 1.346 . S
C320 C319 1.369 . S
C320 H323 0.928 . S
C321 N317 1.345 . S
C321 C322 1.371 . S
C321 H324 0.931 . S
C322 C318 1.391 . S
C322 C321 1.371 . S
C322 H329 0.930 . S
H323 C320 0.928 . S
H324 C321 0.931 . S
H325 C301 0.930 . S
H326 C298 0.930 . S
H327 C307 0.930 . S
H328 C319 0.929 . S
H329 C322 0.930 . S
C330 C331 1.351 . S
C330 N333 1.368 . S
C330 H335 0.931 . S
C331 C330 1.351 . S
C331 N332 1.373 . S
C331 H359 0.930 . S
N332 C331 1.373 . S
N332 C334 1.340 . S
N333 C330 1.368 . S
N333 C334 1.321 . S
N333 Co336 2.135 . S
C334 N332 1.340 . S
C334 N333 1.321 . S
C334 H358 0.930 . S
H335 C330 0.931 . S
Co336 N333 2.135 . S
Co336 N339 2.121 . S
Co336 O344 2.055 . S
Co336 O347 2.039 . S
Co336 N350 2.140 . S
C337 O338 1.227 . S
C337 O347 1.265 . S
O338 C337 1.227 . S
N339 Co336 2.121 . S
N339 C341 1.375 . S
N339 C342 1.313 . S
C340 C341 1.338 1_556 S
C340 N343 1.377 . S
C340 H360 0.930 . S
C341 N339 1.375 . S
C341 C340 1.338 1_554 S
C341 H345 0.931 . S
C342 N339 1.313 . S
C342 N343 1.344 1_554 S
C342 H346 0.930 . S
N343 C340 1.377 . S
N343 C342 1.344 1_556 S
O344 Co336 2.055 . S
O344 C348 1.253 . S
H345 C341 0.931 . S
H346 C342 0.930 . S
O347 Co336 2.039 . S
O347 C337 1.265 . S
C348 O344 1.253 . S
C348 O349 1.227 . S
O349 C348 1.227 . S
N350 Co336 2.140 . S
N350 C353 1.346 . S
N350 C354 1.345 . S
C351 C352 1.387 . S
C351 C355 1.391 . S
C352 C351 1.387 . S
C352 C353 1.369 . S
C352 H361 0.929 . S
C353 N350 1.346 . S
C353 C352 1.369 . S
C353 H356 0.928 . S
C354 N350 1.345 . S
C354 C355 1.371 . S
C354 H357 0.931 . S
C355 C351 1.391 . S
C355 C354 1.371 . S
C355 H362 0.930 . S
H356 C353 0.928 . S
H357 C354 0.931 . S
H358 C334 0.930 . S
H359 C331 0.930 . S
H360 C340 0.930 . S
H361 C352 0.929 . S
H362 C355 0.930 . S
C363 C364 1.351 . S
C363 N366 1.368 . S
C363 H368 0.931 . S
C364 C363 1.351 . S
C364 N365 1.373 . S
C364 H392 0.930 . S
N365 C364 1.373 . S
N365 C367 1.340 . S
N366 C363 1.368 . S
N366 C367 1.321 . S
N366 Co369 2.135 . S
C367 N365 1.340 . S
C367 N366 1.321 . S
C367 H391 0.930 . S
H368 C363 0.931 . S
Co369 N366 2.135 . S
Co369 N372 2.121 . S
Co369 O377 2.055 . S
Co369 O380 2.039 . S
Co369 N383 2.140 . S
C370 O371 1.227 . S
C370 O380 1.265 . S
O371 C370 1.227 . S
N372 Co369 2.121 . S
N372 C374 1.375 . S
N372 C375 1.313 . S
C373 C374 1.338 1_556 S
C373 N376 1.377 . S
C373 H393 0.930 . S
C374 N372 1.375 . S
C374 C373 1.338 1_554 S
C374 H378 0.931 . S
C375 N372 1.313 . S
C375 N376 1.344 1_554 S
C375 H379 0.930 . S
N376 C373 1.377 . S
N376 C375 1.344 1_556 S
O377 Co369 2.055 . S
O377 C381 1.253 . S
H378 C374 0.931 . S
H379 C375 0.930 . S
O380 Co369 2.039 . S
O380 C370 1.265 . S
C381 O377 1.253 . S
C381 O382 1.227 . S
O382 C381 1.227 . S
N383 Co369 2.140 . S
N383 C386 1.346 . S
N383 C387 1.345 . S
C384 C385 1.387 . S
C384 C388 1.391 . S
C385 C384 1.387 . S
C385 C386 1.369 . S
C385 H394 0.929 . S
C386 N383 1.346 . S
C386 C385 1.369 . S
C386 H389 0.928 . S
C387 N383 1.345 . S
C387 C388 1.371 . S
C387 H390 0.931 . S
C388 C384 1.391 . S
C388 C387 1.371 . S
C388 H395 0.930 . S
H389 C386 0.928 . S
H390 C387 0.931 . S
H391 C367 0.930 . S
H392 C364 0.930 . S
H393 C373 0.930 . S
H394 C385 0.929 . S
H395 C388 0.930 . S
C396 C397 1.351 . S
C396 N399 1.368 . S
C396 H401 0.931 . S
C397 C396 1.351 . S
C397 N398 1.373 . S
C397 H425 0.930 . S
N398 C397 1.373 . S
N398 C400 1.340 . S
N399 C396 1.368 . S
N399 C400 1.321 . S
N399 Co402 2.135 . S
C400 N398 1.340 . S
C400 N399 1.321 . S
C400 H424 0.930 . S
H401 C396 0.931 . S
Co402 N399 2.135 . S
Co402 N405 2.121 . S
Co402 O410 2.055 . S
Co402 O413 2.039 . S
Co402 N416 2.140 . S
C403 O404 1.227 . S
C403 O413 1.265 . S
O404 C403 1.227 . S
N405 Co402 2.121 . S
N405 C407 1.375 . S
N405 C408 1.313 . S
C406 C407 1.338 1_554 S
C406 N409 1.377 . S
C406 H426 0.930 . S
C407 N405 1.375 . S
C407 C406 1.338 1_556 S
C407 H411 0.931 . S
C408 N405 1.313 . S
C408 N409 1.344 1_556 S
C408 H412 0.930 . S
N409 C406 1.377 . S
N409 C408 1.344 1_554 S
O410 Co402 2.055 . S
O410 C414 1.253 . S
H411 C407 0.931 . S
H412 C408 0.930 . S
O413 Co402 2.039 . S
O413 C403 1.265 . S
C414 O410 1.253 . S
C414 O415 1.227 . S
O415 C414 1.227 . S
N416 Co402 2.140 . S
N416 C419 1.346 . S
N416 C420 1.345 . S
C417 C418 1.387 . S
C417 C421 1.391 . S
C418 C417 1.387 . S
C418 C419 1.369 . S
C418 H427 0.929 . S
C419 N416 1.346 . S
C419 C418 1.369 . S
C419 H422 0.928 . S
C420 N416 1.345 . S
C420 C421 1.371 . S
C420 H423 0.931 . S
C421 C417 1.391 . S
C421 C420 1.371 . S
C421 H428 0.930 . S
H422 C419 0.928 . S
H423 C420 0.931 . S
H424 C400 0.930 . S
H425 C397 0.930 . S
H426 C406 0.930 . S
H427 C418 0.929 . S
H428 C421 0.930 . S
C429 C430 1.351 . S
C429 N432 1.368 . S
C429 H434 0.931 . S
C430 C429 1.351 . S
C430 N431 1.373 . S
C430 H458 0.930 . S
N431 C430 1.373 . S
N431 C433 1.340 . S
N432 C429 1.368 . S
N432 C433 1.321 . S
N432 Co435 2.135 . S
C433 N431 1.340 . S
C433 N432 1.321 . S
C433 H457 0.930 . S
H434 C429 0.931 . S
Co435 N432 2.135 . S
Co435 N438 2.121 . S
Co435 O443 2.055 . S
Co435 O446 2.039 . S
Co435 N449 2.140 . S
C436 O437 1.227 . S
C436 O446 1.265 . S
O437 C436 1.227 . S
N438 Co435 2.121 . S
N438 C440 1.375 . S
N438 C441 1.313 . S
C439 C440 1.338 1_554 S
C439 N442 1.377 . S
C439 H459 0.930 . S
C440 N438 1.375 . S
C440 C439 1.338 1_556 S
C440 H444 0.931 . S
C441 N438 1.313 . S
C441 N442 1.344 1_556 S
C441 H445 0.930 . S
N442 C439 1.377 . S
N442 C441 1.344 1_554 S
O443 Co435 2.055 . S
O443 C447 1.253 . S
H444 C440 0.931 . S
H445 C441 0.930 . S
O446 Co435 2.039 . S
O446 C436 1.265 . S
C447 O443 1.253 . S
C447 O448 1.227 . S
O448 C447 1.227 . S
N449 Co435 2.140 . S
N449 C452 1.346 . S
N449 C453 1.345 . S
C450 C451 1.387 . S
C450 C454 1.391 . S
C451 C450 1.387 . S
C451 C452 1.369 . S
C451 H460 0.929 . S
C452 N449 1.346 . S
C452 C451 1.369 . S
C452 H455 0.928 . S
C453 N449 1.345 . S
C453 C454 1.371 . S
C453 H456 0.931 . S
C454 C450 1.391 . S
C454 C453 1.371 . S
C454 H461 0.930 . S
H455 C452 0.928 . S
H456 C453 0.931 . S
H457 C433 0.930 . S
H458 C430 0.930 . S
H459 C439 0.930 . S
H460 C451 0.929 . S
H461 C454 0.930 . S
C462 C463 1.351 . S
C462 N465 1.368 . S
C462 H467 0.931 . S
C463 C462 1.351 . S
C463 N464 1.373 . S
C463 H491 0.930 . S
N464 C463 1.373 . S
N464 C466 1.340 . S
N465 C462 1.368 . S
N465 C466 1.321 . S
N465 Co468 2.135 . S
C466 N464 1.340 . S
C466 N465 1.321 . S
C466 H490 0.930 . S
H467 C462 0.931 . S
Co468 N465 2.135 . S
Co468 N471 2.121 . S
Co468 O476 2.055 . S
Co468 O479 2.039 . S
Co468 N482 2.140 . S
C469 O470 1.227 . S
C469 O479 1.265 . S
O470 C469 1.227 . S
N471 Co468 2.121 . S
N471 C473 1.375 . S
N471 C474 1.313 . S
C472 C473 1.338 1_554 S
C472 N475 1.377 . S
C472 H492 0.930 . S
C473 N471 1.375 . S
C473 C472 1.338 1_556 S
C473 H477 0.931 . S
C474 N471 1.313 . S
C474 N475 1.344 1_556 S
C474 H478 0.930 . S
N475 C472 1.377 . S
N475 C474 1.344 1_554 S
O476 Co468 2.055 . S
O476 C480 1.253 . S
H477 C473 0.931 . S
H478 C474 0.930 . S
O479 Co468 2.039 . S
O479 C469 1.265 . S
C480 O476 1.253 . S
C480 O481 1.227 . S
O481 C480 1.227 . S
N482 Co468 2.140 . S
N482 C485 1.346 . S
N482 C486 1.345 . S
C483 C484 1.387 . S
C483 C487 1.391 . S
C484 C483 1.387 . S
C484 C485 1.369 . S
C484 H493 0.929 . S
C485 N482 1.346 . S
C485 C484 1.369 . S
C485 H488 0.928 . S
C486 N482 1.345 . S
C486 C487 1.371 . S
C486 H489 0.931 . S
C487 C483 1.391 . S
C487 C486 1.371 . S
C487 H494 0.930 . S
H488 C485 0.928 . S
H489 C486 0.931 . S
H490 C466 0.930 . S
H491 C463 0.930 . S
H492 C472 0.930 . S
H493 C484 0.929 . S
H494 C487 0.930 . S
C495 C496 1.351 . S
C495 N498 1.368 . S
C495 H500 0.931 . S
C496 C495 1.351 . S
C496 N497 1.373 . S
C496 H524 0.930 . S
N497 C496 1.373 . S
N497 C499 1.340 . S
N498 C495 1.368 . S
N498 C499 1.321 . S
N498 Co501 2.135 . S
C499 N497 1.340 . S
C499 N498 1.321 . S
C499 H523 0.930 . S
H500 C495 0.931 . S
Co501 N498 2.135 . S
Co501 N504 2.121 . S
Co501 O509 2.055 . S
Co501 O512 2.039 . S
Co501 N515 2.140 . S
C502 O503 1.227 . S
C502 O512 1.265 . S
O503 C502 1.227 . S
N504 Co501 2.121 . S
N504 C506 1.375 . S
N504 C507 1.313 . S
C505 C506 1.338 . S
C505 N508 1.377 . S
C505 H525 0.930 . S
C506 N504 1.375 . S
C506 C505 1.338 . S
C506 H510 0.931 . S
C507 N504 1.313 . S
C507 N508 1.344 . S
C507 H511 0.930 . S
N508 C505 1.377 . S
N508 C507 1.344 . S
O509 Co501 2.055 . S
O509 C513 1.253 . S
H510 C506 0.931 . S
H511 C507 0.930 . S
O512 Co501 2.039 . S
O512 C502 1.265 . S
C513 O509 1.253 . S
C513 O514 1.227 . S
O514 C513 1.227 . S
N515 Co501 2.140 . S
N515 C518 1.346 . S
N515 C519 1.345 . S
C516 C517 1.387 . S
C516 C520 1.391 . S
C517 C516 1.387 . S
C517 C518 1.369 . S
C517 H526 0.929 . S
C518 N515 1.346 . S
C518 C517 1.369 . S
C518 H521 0.928 . S
C519 N515 1.345 . S
C519 C520 1.371 . S
C519 H522 0.931 . S
C520 C516 1.391 . S
C520 C519 1.371 . S
C520 H527 0.930 . S
H521 C518 0.928 . S
H522 C519 0.931 . S
H523 C499 0.930 . S
H524 C496 0.930 . S
H525 C505 0.930 . S
H526 C517 0.929 . S
H527 C520 0.930 . S
C528 C529 1.351 . S
C528 N531 1.368 . S
C528 H533 0.931 . S
C529 C528 1.351 . S
C529 N530 1.373 . S
C529 H557 0.930 . S
N530 C529 1.373 . S
N530 C532 1.340 . S
N531 C528 1.368 . S
N531 C532 1.321 . S
N531 Co534 2.135 . S
C532 N530 1.340 . S
C532 N531 1.321 . S
C532 H556 0.930 . S
H533 C528 0.931 . S
Co534 N531 2.135 . S
Co534 N537 2.121 . S
Co534 O542 2.055 . S
Co534 O545 2.039 . S
Co534 N548 2.140 . S
C535 O536 1.227 . S
C535 O545 1.265 . S
O536 C535 1.227 . S
N537 Co534 2.121 . S
N537 C539 1.375 . S
N537 C540 1.313 . S
C538 C539 1.338 . S
C538 N541 1.377 . S
C538 H558 0.930 . S
C539 N537 1.375 . S
C539 C538 1.338 . S
C539 H543 0.931 . S
C540 N537 1.313 . S
C540 N541 1.344 . S
C540 H544 0.930 . S
N541 C538 1.377 . S
N541 C540 1.344 . S
O542 Co534 2.055 . S
O542 C546 1.253 . S
H543 C539 0.931 . S
H544 C540 0.930 . S
O545 Co534 2.039 . S
O545 C535 1.265 . S
C546 O542 1.253 . S
C546 O547 1.227 . S
O547 C546 1.227 . S
N548 Co534 2.140 . S
N548 C551 1.346 . S
N548 C552 1.345 . S
C549 C550 1.387 . S
C549 C553 1.391 . S
C550 C549 1.387 . S
C550 C551 1.369 . S
C550 H559 0.929 . S
C551 N548 1.346 . S
C551 C550 1.369 . S
C551 H554 0.928 . S
C552 N548 1.345 . S
C552 C553 1.371 . S
C552 H555 0.931 . S
C553 C549 1.391 . S
C553 C552 1.371 . S
C553 H560 0.930 . S
H554 C551 0.928 . S
H555 C552 0.931 . S
H556 C532 0.930 . S
H557 C529 0.930 . S
H558 C538 0.930 . S
H559 C550 0.929 . S
H560 C553 0.930 . S
C561 C562 1.351 . S
C561 N564 1.368 . S
C561 H566 0.931 . S
C562 C561 1.351 . S
C562 N563 1.373 . S
C562 H590 0.930 . S
N563 C562 1.373 . S
N563 C565 1.340 . S
N564 C561 1.368 . S
N564 C565 1.321 . S
N564 Co567 2.135 . S
C565 N563 1.340 . S
C565 N564 1.321 . S
C565 H589 0.930 . S
H566 C561 0.931 . S
Co567 N564 2.135 . S
Co567 N570 2.121 . S
Co567 O575 2.055 . S
Co567 O578 2.039 . S
Co567 N581 2.140 . S
C568 O569 1.227 . S
C568 O578 1.265 . S
O569 C568 1.227 . S
N570 Co567 2.121 . S
N570 C572 1.375 . S
N570 C573 1.313 . S
C571 C572 1.338 . S
C571 N574 1.377 . S
C571 H591 0.930 . S
C572 N570 1.375 . S
C572 C571 1.338 . S
C572 H576 0.931 . S
C573 N570 1.313 . S
C573 N574 1.344 . S
C573 H577 0.930 . S
N574 C571 1.377 . S
N574 C573 1.344 . S
O575 Co567 2.055 . S
O575 C579 1.253 . S
H576 C572 0.931 . S
H577 C573 0.930 . S
O578 Co567 2.039 . S
O578 C568 1.265 . S
C579 O575 1.253 . S
C579 O580 1.227 . S
O580 C579 1.227 . S
N581 Co567 2.140 . S
N581 C584 1.346 . S
N581 C585 1.345 . S
C582 C583 1.387 . S
C582 C586 1.391 . S
C583 C582 1.387 . S
C583 C584 1.369 . S
C583 H592 0.929 . S
C584 N581 1.346 . S
C584 C583 1.369 . S
C584 H587 0.928 . S
C585 N581 1.345 . S
C585 C586 1.371 . S
C585 H588 0.931 . S
C586 C582 1.391 . S
C586 C585 1.371 . S
C586 H593 0.930 . S
H587 C584 0.928 . S
H588 C585 0.931 . S
H589 C565 0.930 . S
H590 C562 0.930 . S
H591 C571 0.930 . S
H592 C583 0.929 . S
H593 C586 0.930 . S
H594 C600 0.930 . S
H595 C603 0.930 . S
H596 C604 0.930 . S
H597 C605 0.930 . S
H598 C608 0.930 . S
H599 C609 0.930 . S
C600 H594 0.930 . S
C600 C601 1.355 . S
C600 C602 1.415 . S
C601 C600 1.355 . S
C601 C603 1.419 . S
C602 C600 1.415 . S
C602 C607 1.425 . S
C602 C609 1.409 . S
C603 H595 0.930 . S
C603 C601 1.419 . S
C603 C604 1.362 . S
C604 H596 0.930 . S
C604 C603 1.362 . S
C604 C607 1.409 . S
C605 H597 0.930 . S
C605 C606 1.355 . S
C605 C607 1.415 . S
C606 C605 1.355 . S
C606 C608 1.419 . S
C607 C602 1.425 . S
C607 C604 1.409 . S
C607 C605 1.415 . S
C608 H598 0.930 . S
C608 C606 1.419 . S
C608 C609 1.362 . S
C609 H599 0.930 . S
C609 C602 1.409 . S
C609 C608 1.362 . S
H610 C616 0.930 . S
H611 C619 0.930 . S
H612 C620 0.930 . S
H613 C621 0.930 . S
H614 C624 0.930 . S
H615 C625 0.930 . S
C616 H610 0.930 . S
C616 C617 1.355 . S
C616 C618 1.415 . S
C617 C616 1.355 . S
C617 C619 1.419 . S
C618 C616 1.415 . S
C618 C623 1.425 . S
C618 C625 1.409 . S
C619 H611 0.930 . S
C619 C617 1.419 . S
C619 C620 1.362 . S
C620 H612 0.930 . S
C620 C619 1.362 . S
C620 C623 1.409 . S
C621 H613 0.930 . S
C621 C622 1.355 . S
C621 C623 1.415 . S
C622 C621 1.355 . S
C622 C624 1.419 . S
C623 C618 1.425 . S
C623 C620 1.409 . S
C623 C621 1.415 . S
C624 H614 0.930 . S
C624 C622 1.419 . S
C624 C625 1.362 . S
C625 H615 0.930 . S
C625 C618 1.409 . S
C625 C624 1.362 . S
H626 C632 0.930 . S
H627 C635 0.930 . S
H628 C636 0.930 . S
H629 C637 0.930 . S
H630 C640 0.930 . S
H631 C641 0.930 . S
C632 H626 0.930 . S
C632 C633 1.355 . S
C632 C634 1.415 . S
C633 C632 1.355 . S
C633 C635 1.419 . S
C634 C632 1.415 . S
C634 C639 1.425 . S
C634 C641 1.409 . S
C635 H627 0.930 . S
C635 C633 1.419 . S
C635 C636 1.362 . S
C636 H628 0.930 . S
C636 C635 1.362 . S
C636 C639 1.409 . S
C637 H629 0.930 . S
C637 C638 1.355 . S
C637 C639 1.415 . S
C638 C637 1.355 . S
C638 C640 1.419 . S
C639 C634 1.425 . S
C639 C636 1.409 . S
C639 C637 1.415 . S
C640 H630 0.930 . S
C640 C638 1.419 . S
C640 C641 1.362 . S
C641 H631 0.930 . S
C641 C634 1.409 . S
C641 C640 1.362 . S
H642 C648 0.930 . S
H643 C651 0.930 . S
H644 C652 0.930 . S
H645 C653 0.930 . S
H646 C656 0.930 . S
H647 C657 0.930 . S
C648 H642 0.930 . S
C648 C649 1.355 . S
C648 C650 1.415 . S
C649 C648 1.355 . S
C649 C651 1.419 . S
C650 C648 1.415 . S
C650 C655 1.425 . S
C650 C657 1.409 . S
C651 H643 0.930 . S
C651 C649 1.419 . S
C651 C652 1.362 . S
C652 H644 0.930 . S
C652 C651 1.362 . S
C652 C655 1.409 . S
C653 H645 0.930 . S
C653 C654 1.355 . S
C653 C655 1.415 . S
C654 C653 1.355 . S
C654 C656 1.419 . S
C655 C650 1.425 . S
C655 C652 1.409 . S
C655 C653 1.415 . S
C656 H646 0.930 . S
C656 C654 1.419 . S
C656 C657 1.362 . S
C657 H647 0.930 . S
C657 C650 1.409 . S
C657 C656 1.362 . S
H658 C664 0.930 . S
H659 C667 0.930 . S
H660 C668 0.930 . S
H661 C669 0.930 . S
H662 C672 0.930 . S
H663 C673 0.930 . S
C664 H658 0.930 . S
C664 C665 1.355 . S
C664 C666 1.415 . S
C665 C664 1.355 . S
C665 C667 1.419 . S
C666 C664 1.415 . S
C666 C671 1.425 . S
C666 C673 1.409 . S
C667 H659 0.930 . S
C667 C665 1.419 . S
C667 C668 1.362 . S
C668 H660 0.930 . S
C668 C667 1.362 . S
C668 C671 1.409 . S
C669 H661 0.930 . S
C669 C670 1.355 . S
C669 C671 1.415 . S
C670 C669 1.355 . S
C670 C672 1.419 . S
C671 C666 1.425 . S
C671 C668 1.409 . S
C671 C669 1.415 . S
C672 H662 0.930 . S
C672 C670 1.419 . S
C672 C673 1.362 . S
C673 H663 0.930 . S
C673 C666 1.409 . S
C673 C672 1.362 . S
H674 C680 0.930 . S
H675 C683 0.930 . S
H676 C684 0.930 . S
H677 C685 0.930 . S
H678 C688 0.930 . S
H679 C689 0.930 . S
C680 H674 0.930 . S
C680 C681 1.355 . S
C680 C682 1.415 . S
C681 C680 1.355 . S
C681 C683 1.419 . S
C682 C680 1.415 . S
C682 C687 1.425 . S
C682 C689 1.409 . S
C683 H675 0.930 . S
C683 C681 1.419 . S
C683 C684 1.362 . S
C684 H676 0.930 . S
C684 C683 1.362 . S
C684 C687 1.409 . S
C685 H677 0.930 . S
C685 C686 1.355 . S
C685 C687 1.415 . S
C686 C685 1.355 . S
C686 C688 1.419 . S
C687 C682 1.425 . S
C687 C684 1.409 . S
C687 C685 1.415 . S
C688 H678 0.930 . S
C688 C686 1.419 . S
C688 C689 1.362 . S
C689 H679 0.930 . S
C689 C682 1.409 . S
C689 C688 1.362 . S
H690 C696 0.930 . S
H691 C699 0.930 . S
H692 C700 0.930 . S
H693 C701 0.930 . S
H694 C704 0.930 . S
H695 C705 0.930 . S
C696 H690 0.930 . S
C696 C697 1.355 . S
C696 C698 1.415 1_554 S
C697 C696 1.355 . S
C697 C699 1.419 . S
C698 C696 1.415 1_556 S
C698 C703 1.425 . S
C698 C705 1.409 . S
C699 H691 0.930 . S
C699 C697 1.419 . S
C699 C700 1.362 1_554 S
C700 H692 0.930 . S
C700 C699 1.362 1_556 S
C700 C703 1.409 . S
C701 H693 0.930 . S
C701 C702 1.355 . S
C701 C703 1.415 . S
C702 C701 1.355 . S
C702 C704 1.419 . S
C703 C698 1.425 . S
C703 C700 1.409 . S
C703 C701 1.415 . S
C704 H694 0.930 . S
C704 C702 1.419 . S
C704 C705 1.362 . S
C705 H695 0.930 . S
C705 C698 1.409 . S
C705 C704 1.362 . S
H706 C712 0.930 . S
H707 C715 0.930 . S
H708 C716 0.930 . S
H709 C717 0.930 . S
H710 C720 0.930 . S
H711 C721 0.930 . S
C712 H706 0.930 . S
C712 C713 1.355 . S
C712 C714 1.415 1_554 S
C713 C712 1.355 . S
C713 C715 1.419 . S
C714 C712 1.415 1_556 S
C714 C719 1.425 . S
C714 C721 1.409 . S
C715 H707 0.930 . S
C715 C713 1.419 . S
C715 C716 1.362 1_554 S
C716 H708 0.930 . S
C716 C715 1.362 1_556 S
C716 C719 1.409 . S
C717 H709 0.930 . S
C717 C718 1.355 . S
C717 C719 1.415 . S
C718 C717 1.355 . S
C718 C720 1.419 . S
C719 C714 1.425 . S
C719 C716 1.409 . S
C719 C717 1.415 . S
C720 H710 0.930 . S
C720 C718 1.419 . S
C720 C721 1.362 . S
C721 H711 0.930 . S
C721 C714 1.409 . S
C721 C720 1.362 . S
H722 C728 0.930 . S
H723 C731 0.930 . S
H724 C732 0.930 . S
H725 C733 0.930 . S
H726 C736 0.930 . S
H727 C737 0.930 . S
C728 H722 0.930 . S
C728 C729 1.355 . S
C728 C730 1.415 . S
C729 C728 1.355 . S
C729 C731 1.419 . S
C730 C728 1.415 . S
C730 C735 1.425 . S
C730 C737 1.409 1_556 S
C731 H723 0.930 . S
C731 C729 1.419 . S
C731 C732 1.362 . S
C732 H724 0.930 . S
C732 C731 1.362 . S
C732 C735 1.409 . S
C733 H725 0.930 . S
C733 C734 1.355 . S
C733 C735 1.415 1_554 S
C734 C733 1.355 . S
C734 C736 1.419 . S
C735 C730 1.425 . S
C735 C732 1.409 . S
C735 C733 1.415 1_556 S
C736 H726 0.930 . S
C736 C734 1.419 . S
C736 C737 1.362 . S
C737 H727 0.930 . S
C737 C730 1.409 1_554 S
C737 C736 1.362 . S
H738 C744 0.930 . S
H739 C747 0.930 . S
H740 C748 0.930 . S
H741 C749 0.930 . S
H742 C752 0.930 . S
H743 C753 0.930 . S
C744 H738 0.930 . S
C744 C745 1.355 . S
C744 C746 1.415 . S
C745 C744 1.355 . S
C745 C747 1.419 . S
C746 C744 1.415 . S
C746 C751 1.425 . S
C746 C753 1.409 . S
C747 H739 0.930 . S
C747 C745 1.419 . S
C747 C748 1.362 . S
C748 H740 0.930 . S
C748 C747 1.362 . S
C748 C751 1.409 . S
C749 H741 0.930 . S
C749 C750 1.355 . S
C749 C751 1.415 . S
C750 C749 1.355 . S
C750 C752 1.419 . S
C751 C746 1.425 . S
C751 C748 1.409 . S
C751 C749 1.415 . S
C752 H742 0.930 . S
C752 C750 1.419 . S
C752 C753 1.362 . S
C753 H743 0.930 . S
C753 C746 1.409 . S
C753 C752 1.362 . S
H754 C760 0.930 . S
H755 C763 0.930 . S
H756 C764 0.930 . S
H757 C765 0.930 . S
H758 C768 0.930 . S
H759 C769 0.930 . S
C760 H754 0.930 . S
C760 C761 1.355 . S
C760 C762 1.415 . S
C761 C760 1.355 . S
C761 C763 1.419 . S
C762 C760 1.415 . S
C762 C767 1.425 . S
C762 C769 1.409 . S
C763 H755 0.930 . S
C763 C761 1.419 . S
C763 C764 1.362 . S
C764 H756 0.930 . S
C764 C763 1.362 . S
C764 C767 1.409 . S
C765 H757 0.930 . S
C765 C766 1.355 . S
C765 C767 1.415 . S
C766 C765 1.355 . S
C766 C768 1.419 . S
C767 C762 1.425 . S
C767 C764 1.409 . S
C767 C765 1.415 . S
C768 H758 0.930 . S
C768 C766 1.419 . S
C768 C769 1.362 . S
C769 H759 0.930 . S
C769 C762 1.409 . S
C769 C768 1.362 . S
H770 C776 0.930 . S
H771 C779 0.930 . S
H772 C780 0.930 . S
H773 C781 0.930 . S
H774 C784 0.930 . S
H775 C785 0.930 . S
C776 H770 0.930 . S
C776 C777 1.355 . S
C776 C778 1.415 . S
C777 C776 1.355 . S
C777 C779 1.419 . S
C778 C776 1.415 . S
C778 C783 1.425 . S
C778 C785 1.409 . S
C779 H771 0.930 . S
C779 C777 1.419 . S
C779 C780 1.362 . S
C780 H772 0.930 . S
C780 C779 1.362 . S
C780 C783 1.409 . S
C781 H773 0.930 . S
C781 C782 1.355 . S
C781 C783 1.415 . S
C782 C781 1.355 . S
C782 C784 1.419 . S
C783 C778 1.425 . S
C783 C780 1.409 . S
C783 C781 1.415 . S
C784 H774 0.930 . S
C784 C782 1.419 . S
C784 C785 1.362 . S
C785 H775 0.930 . S
C785 C778 1.409 . S
C785 C784 1.362 . S
H786 C792 0.930 . S
H787 C795 0.930 . S
H788 C796 0.930 . S
H789 C797 0.930 . S
H790 C800 0.930 . S
H791 C801 0.930 . S
C792 H786 0.930 . S
C792 C793 1.355 . S
C792 C794 1.415 . S
C793 C792 1.355 . S
C793 C795 1.419 . S
C794 C792 1.415 . S
C794 C799 1.425 . S
C794 C801 1.409 . S
C795 H787 0.930 . S
C795 C793 1.419 . S
C795 C796 1.362 . S
C796 H788 0.930 . S
C796 C795 1.362 . S
C796 C799 1.409 . S
C797 H789 0.930 . S
C797 C798 1.355 . S
C797 C799 1.415 . S
C798 C797 1.355 . S
C798 C800 1.419 . S
C799 C794 1.425 . S
C799 C796 1.409 . S
C799 C797 1.415 . S
C800 H790 0.930 . S
C800 C798 1.419 . S
C800 C801 1.362 . S
C801 H791 0.930 . S
C801 C794 1.409 . S
C801 C800 1.362 . S
H802 C808 0.930 . S
H803 C811 0.930 . S
H804 C812 0.930 . S
H805 C813 0.930 . S
H806 C816 0.930 . S
H807 C817 0.930 . S
C808 H802 0.930 . S
C808 C809 1.355 . S
C808 C810 1.415 . S
C809 C808 1.355 . S
C809 C811 1.419 . S
C810 C808 1.415 . S
C810 C815 1.425 . S
C810 C817 1.409 . S
C811 H803 0.930 . S
C811 C809 1.419 . S
C811 C812 1.362 . S
C812 H804 0.930 . S
C812 C811 1.362 . S
C812 C815 1.409 . S
C813 H805 0.930 . S
C813 C814 1.355 . S
C813 C815 1.415 . S
C814 C813 1.355 . S
C814 C816 1.419 . S
C815 C810 1.425 . S
C815 C812 1.409 . S
C815 C813 1.415 . S
C816 H806 0.930 . S
C816 C814 1.419 . S
C816 C817 1.362 . S
C817 H807 0.930 . S
C817 C810 1.409 . S
C817 C816 1.362 . S
H818 C824 0.930 . S
H819 C827 0.930 . S
H820 C828 0.930 . S
H821 C829 0.930 . S
H822 C832 0.930 . S
H823 C833 0.930 . S
C824 H818 0.930 . S
C824 C825 1.355 . S
C824 C826 1.415 . S
C825 C824 1.355 . S
C825 C827 1.419 . S
C826 C824 1.415 . S
C826 C831 1.425 . S
C826 C833 1.409 . S
C827 H819 0.930 . S
C827 C825 1.419 . S
C827 C828 1.362 . S
C828 H820 0.930 . S
C828 C827 1.362 . S
C828 C831 1.409 . S
C829 H821 0.930 . S
C829 C830 1.355 . S
C829 C831 1.415 . S
C830 C829 1.355 . S
C830 C832 1.419 . S
C831 C826 1.425 . S
C831 C828 1.409 . S
C831 C829 1.415 . S
C832 H822 0.930 . S
C832 C830 1.419 . S
C832 C833 1.362 . S
C833 H823 0.930 . S
C833 C826 1.409 . S
C833 C832 1.362 . S
H834 C840 0.930 . S
H835 C843 0.930 . S
H836 C844 0.930 . S
H837 C845 0.930 . S
H838 C848 0.930 . S
H839 C849 0.930 . S
C840 H834 0.930 . S
C840 C841 1.355 . S
C840 C842 1.415 . S
C841 C840 1.355 . S
C841 C843 1.419 . S
C842 C840 1.415 . S
C842 C847 1.425 . S
C842 C849 1.409 . S
C843 H835 0.930 . S
C843 C841 1.419 . S
C843 C844 1.362 . S
C844 H836 0.930 . S
C844 C843 1.362 . S
C844 C847 1.409 . S
C845 H837 0.930 . S
C845 C846 1.355 . S
C845 C847 1.415 1_556 S
C846 C845 1.355 . S
C846 C848 1.419 . S
C847 C842 1.425 . S
C847 C844 1.409 . S
C847 C845 1.415 1_554 S
C848 H838 0.930 . S
C848 C846 1.419 . S
C848 C849 1.362 1_556 S
C849 H839 0.930 . S
C849 C842 1.409 . S
C849 C848 1.362 1_554 S
H850 C856 0.930 . S
H851 C859 0.930 . S
H852 C860 0.930 . S
H853 C861 0.930 . S
H854 C864 0.930 . S
H855 C865 0.930 . S
C856 H850 0.930 . S
C856 C857 1.355 . S
C856 C858 1.415 . S
C857 C856 1.355 . S
C857 C859 1.419 . S
C858 C856 1.415 . S
C858 C863 1.425 . S
C858 C865 1.409 1_554 S
C859 H851 0.930 . S
C859 C857 1.419 . S
C859 C860 1.362 . S
C860 H852 0.930 . S
C860 C859 1.362 . S
C860 C863 1.409 . S
C861 H853 0.930 . S
C861 C862 1.355 . S
C861 C863 1.415 1_556 S
C862 C861 1.355 . S
C862 C864 1.419 . S
C863 C858 1.425 . S
C863 C860 1.409 . S
C863 C861 1.415 1_554 S
C864 H854 0.930 . S
C864 C862 1.419 . S
C864 C865 1.362 . S
C865 H855 0.930 . S
C865 C858 1.409 1_556 S
C865 C864 1.362 . S
H866 C872 0.930 . S
H867 C875 0.930 . S
H868 C876 0.930 . S
H869 C877 0.930 . S
H870 C880 0.930 . S
H871 C881 0.930 . S
C872 H866 0.930 . S
C872 C873 1.355 . S
C872 C874 1.415 1_556 S
C873 C872 1.355 . S
C873 C875 1.419 . S
C874 C872 1.415 1_554 S
C874 C879 1.425 . S
C874 C881 1.409 . S
C875 H867 0.930 . S
C875 C873 1.419 . S
C875 C876 1.362 1_556 S
C876 H868 0.930 . S
C876 C875 1.362 1_554 S
C876 C879 1.409 . S
C877 H869 0.930 . S
C877 C878 1.355 . S
C877 C879 1.415 . S
C878 C877 1.355 . S
C878 C880 1.419 . S
C879 C874 1.425 . S
C879 C876 1.409 . S
C879 C877 1.415 . S
C880 H870 0.930 . S
C880 C878 1.419 . S
C880 C881 1.362 . S
C881 H871 0.930 . S
C881 C874 1.409 . S
C881 C880 1.362 . S
H882 C888 0.930 . S
H883 C891 0.930 . S
H884 C892 0.930 . S
H885 C893 0.930 . S
H886 C896 0.930 . S
H887 C897 0.930 . S
C888 H882 0.930 . S
C888 C889 1.355 . S
C888 C890 1.415 . S
C889 C888 1.355 . S
C889 C891 1.419 . S
C890 C888 1.415 . S
C890 C895 1.425 . S
C890 C897 1.409 . S
C891 H883 0.930 . S
C891 C889 1.419 . S
C891 C892 1.362 . S
C892 H884 0.930 . S
C892 C891 1.362 . S
C892 C895 1.409 . S
C893 H885 0.930 . S
C893 C894 1.355 . S
C893 C895 1.415 . S
C894 C893 1.355 . S
C894 C896 1.419 . S
C895 C890 1.425 . S
C895 C892 1.409 . S
C895 C893 1.415 . S
C896 H886 0.930 . S
C896 C894 1.419 . S
C896 C897 1.362 . S
C897 H887 0.930 . S
C897 C890 1.409 . S
C897 C896 1.362 . S
H898 C904 0.930 . S
H899 C907 0.930 . S
H900 C908 0.930 . S
H901 C909 0.930 . S
H902 C912 0.930 . S
H903 C913 0.930 . S
C904 H898 0.930 . S
C904 C905 1.355 . S
C904 C906 1.415 . S
C905 C904 1.355 . S
C905 C907 1.419 . S
C906 C904 1.415 . S
C906 C911 1.425 . S
C906 C913 1.409 . S
C907 H899 0.930 . S
C907 C905 1.419 . S
C907 C908 1.362 . S
C908 H900 0.930 . S
C908 C907 1.362 . S
C908 C911 1.409 . S
C909 H901 0.930 . S
C909 C910 1.355 . S
C909 C911 1.415 . S
C910 C909 1.355 . S
C910 C912 1.419 . S
C911 C906 1.425 . S
C911 C908 1.409 . S
C911 C909 1.415 . S
C912 H902 0.930 . S
C912 C910 1.419 . S
C912 C913 1.362 . S
C913 H903 0.930 . S
C913 C906 1.409 . S
C913 C912 1.362 . S
H914 C920 0.930 . S
H915 C923 0.930 . S
H916 C924 0.930 . S
H917 C925 0.930 . S
H918 C928 0.930 . S
H919 C929 0.930 . S
C920 H914 0.930 . S
C920 C921 1.355 . S
C920 C922 1.415 . S
C921 C920 1.355 . S
C921 C923 1.419 . S
C922 C920 1.415 . S
C922 C927 1.425 . S
C922 C929 1.409 . S
C923 H915 0.930 . S
C923 C921 1.419 . S
C923 C924 1.362 . S
C924 H916 0.930 . S
C924 C923 1.362 . S
C924 C927 1.409 . S
C925 H917 0.930 . S
C925 C926 1.355 . S
C925 C927 1.415 . S
C926 C925 1.355 . S
C926 C928 1.419 . S
C927 C922 1.425 . S
C927 C924 1.409 . S
C927 C925 1.415 . S
C928 H918 0.930 . S
C928 C926 1.419 . S
C928 C929 1.362 . S
C929 H919 0.930 . S
C929 C922 1.409 . S
C929 C928 1.362 . S
H930 C936 0.930 . S
H931 C939 0.930 . S
H932 C940 0.930 . S
H933 C941 0.930 . S
H934 C944 0.930 . S
H935 C945 0.930 . S
C936 H930 0.930 . S
C936 C937 1.355 . S
C936 C938 1.415 . S
C937 C936 1.355 . S
C937 C939 1.419 . S
C938 C936 1.415 . S
C938 C943 1.425 . S
C938 C945 1.409 . S
C939 H931 0.930 . S
C939 C937 1.419 . S
C939 C940 1.362 . S
C940 H932 0.930 . S
C940 C939 1.362 . S
C940 C943 1.409 . S
C941 H933 0.930 . S
C941 C942 1.355 . S
C941 C943 1.415 . S
C942 C941 1.355 . S
C942 C944 1.419 . S
C943 C938 1.425 . S
C943 C940 1.409 . S
C943 C941 1.415 . S
C944 H934 0.930 . S
C944 C942 1.419 . S
C944 C945 1.362 . S
C945 H935 0.930 . S
C945 C938 1.409 . S
C945 C944 1.362 . S
H946 C952 0.930 . S
H947 C955 0.930 . S
H948 C956 0.930 . S
H949 C957 0.930 . S
H950 C960 0.930 . S
H951 C961 0.930 . S
C952 H946 0.930 . S
C952 C953 1.355 . S
C952 C954 1.415 . S
C953 C952 1.355 . S
C953 C955 1.419 . S
C954 C952 1.415 . S
C954 C959 1.425 . S
C954 C961 1.409 . S
C955 H947 0.930 . S
C955 C953 1.419 . S
C955 C956 1.362 . S
C956 H948 0.930 . S
C956 C955 1.362 . S
C956 C959 1.409 . S
C957 H949 0.930 . S
C957 C958 1.355 . S
C957 C959 1.415 . S
C958 C957 1.355 . S
C958 C960 1.419 . S
C959 C954 1.425 . S
C959 C956 1.409 . S
C959 C957 1.415 . S
C960 H950 0.930 . S
C960 C958 1.419 . S
C960 C961 1.362 . S
C961 H951 0.930 . S
C961 C954 1.409 . S
C961 C960 1.362 . S
H962 C968 0.930 . S
H963 C971 0.930 . S
H964 C972 0.930 . S
H965 C973 0.930 . S
H966 C976 0.930 . S
H967 C977 0.930 . S
C968 H962 0.930 . S
C968 C969 1.355 . S
C968 C970 1.415 . S
C969 C968 1.355 . S
C969 C971 1.419 . S
C970 C968 1.415 . S
C970 C975 1.425 . S
C970 C977 1.409 . S
C971 H963 0.930 . S
C971 C969 1.419 . S
C971 C972 1.362 . S
C972 H964 0.930 . S
C972 C971 1.362 . S
C972 C975 1.409 . S
C973 H965 0.930 . S
C973 C974 1.355 . S
C973 C975 1.415 . S
C974 C973 1.355 . S
C974 C976 1.419 . S
C975 C970 1.425 . S
C975 C972 1.409 . S
C975 C973 1.415 . S
C976 H966 0.930 . S
C976 C974 1.419 . S
C976 C977 1.362 . S
C977 H967 0.930 . S
C977 C970 1.409 . S
C977 C976 1.362 . S
H978 C984 0.930 . S
H979 C987 0.930 . S
H980 C988 0.930 . S
H981 C989 0.930 . S
H982 C992 0.930 . S
H983 C993 0.930 . S
C984 H978 0.930 . S
C984 C985 1.355 . S
C984 C986 1.415 1_554 S
C985 C984 1.355 . S
C985 C987 1.419 . S
C986 C984 1.415 1_556 S
C986 C991 1.425 1_656 S
C986 C993 1.409 . S
C987 H979 0.930 . S
C987 C985 1.419 . S
C987 C988 1.362 1_655 S
C988 H980 0.930 . S
C988 C987 1.362 1_455 S
C988 C991 1.409 . S
C989 H981 0.930 . S
C989 C990 1.355 . S
C989 C991 1.415 1_556 S
C990 C989 1.355 . S
C990 C992 1.419 . S
C991 C986 1.425 1_454 S
C991 C988 1.409 . S
C991 C989 1.415 1_554 S
C992 H982 0.930 . S
C992 C990 1.419 . S
C992 C993 1.362 1_455 S
C993 H983 0.930 . S
C993 C986 1.409 . S
C993 C992 1.362 1_655 S
H994 C1000 0.930 . S
H995 C1003 0.930 . S
H996 C1004 0.930 . S
H997 C1005 0.930 . S
H998 C1008 0.930 . S
H999 C1009 0.930 . S
C1000 H994 0.930 . S
C1000 C1001 1.355 . S
C1000 C1002 1.414 1_556 S
C1001 C1000 1.355 . S
C1001 C1003 1.419 . S
C1002 C1000 1.414 1_554 S
C1002 C1007 1.425 1_554 S
C1002 C1009 1.410 . S
C1003 H995 0.930 . S
C1003 C1001 1.419 . S
C1003 C1004 1.362 . S
C1004 H996 0.930 . S
C1004 C1003 1.362 . S
C1004 C1007 1.410 . S
C1005 H997 0.930 . S
C1005 C1006 1.355 . S
C1005 C1007 1.414 1_554 S
C1006 C1005 1.355 . S
C1006 C1008 1.419 . S
C1007 C1002 1.425 1_556 S
C1007 C1004 1.410 . S
C1007 C1005 1.414 1_556 S
C1008 H998 0.930 . S
C1008 C1006 1.419 . S
C1008 C1009 1.362 . S
C1009 H999 0.930 . S
C1009 C1002 1.410 . S
C1009 C1008 1.362 . S
H1010 C1016 0.930 . S
H1011 C1019 0.930 . S
H1012 C1020 0.930 . S
H1013 C1021 0.930 . S
H1014 C1024 0.930 . S
H1015 C1025 0.930 . S
C1016 H1010 0.930 . S
C1016 C1017 1.355 . S
C1016 C1018 1.415 1_545 S
C1017 C1016 1.355 . S
C1017 C1019 1.419 . S
C1018 C1016 1.415 1_565 S
C1018 C1023 1.425 1_564 S
C1018 C1025 1.409 . S
C1019 H1011 0.930 . S
C1019 C1017 1.419 . S
C1019 C1020 1.362 1_554 S
C1020 H1012 0.930 . S
C1020 C1019 1.362 1_556 S
C1020 C1023 1.409 . S
C1021 H1013 0.930 . S
C1021 C1022 1.355 . S
C1021 C1023 1.415 1_565 S
C1022 C1021 1.355 . S
C1022 C1024 1.419 . S
C1023 C1018 1.425 1_546 S
C1023 C1020 1.409 . S
C1023 C1021 1.415 1_545 S
C1024 H1014 0.930 . S
C1024 C1022 1.419 . S
C1024 C1025 1.362 1_556 S
C1025 H1015 0.930 . S
C1025 C1018 1.409 . S
C1025 C1024 1.362 1_554 S
H1026 C1032 0.930 . S
H1027 C1035 0.930 . S
H1028 C1036 0.930 . S
H1029 C1037 0.930 . S
H1030 C1040 0.930 . S
H1031 C1041 0.930 . S
C1032 H1026 0.930 . S
C1032 C1033 1.355 . S
C1032 C1034 1.415 . S
C1033 C1032 1.355 . S
C1033 C1035 1.419 1_554 S
C1034 C1032 1.415 . S
C1034 C1039 1.425 1_554 S
C1034 C1041 1.409 . S
C1035 H1027 0.930 . S
C1035 C1033 1.419 1_556 S
C1035 C1036 1.362 . S
C1036 H1028 0.930 . S
C1036 C1035 1.362 . S
C1036 C1039 1.409 . S
C1037 H1029 0.930 . S
C1037 C1038 1.355 . S
C1037 C1039 1.415 . S
C1038 C1037 1.355 . S
C1038 C1040 1.419 1_556 S
C1039 C1034 1.425 1_556 S
C1039 C1036 1.409 . S
C1039 C1037 1.415 . S
C1040 H1030 0.930 . S
C1040 C1038 1.419 1_554 S
C1040 C1041 1.362 . S
C1041 H1031 0.930 . S
C1041 C1034 1.409 . S
C1041 C1040 1.362 . S
H1042 C1048 0.930 . S
H1043 C1051 0.930 . S
H1044 C1052 0.930 . S
H1045 C1053 0.930 . S
H1046 C1056 0.930 . S
H1047 C1057 0.930 . S
C1048 H1042 0.930 . S
C1048 C1049 1.355 . S
C1048 C1050 1.415 . S
C1049 C1048 1.355 . S
C1049 C1051 1.419 . S
C1050 C1048 1.415 . S
C1050 C1055 1.425 1_564 S
C1050 C1057 1.409 1_565 S
C1051 H1043 0.930 . S
C1051 C1049 1.419 . S
C1051 C1052 1.362 1_554 S
C1052 H1044 0.930 . S
C1052 C1051 1.362 1_556 S
C1052 C1055 1.409 1_565 S
C1053 H1045 0.930 . S
C1053 C1054 1.355 . S
C1053 C1055 1.415 . S
C1054 C1053 1.355 . S
C1054 C1056 1.419 . S
C1055 C1050 1.425 1_546 S
C1055 C1052 1.409 1_545 S
C1055 C1053 1.415 . S
C1056 H1046 0.930 . S
C1056 C1054 1.419 . S
C1056 C1057 1.362 1_556 S
C1057 H1047 0.930 . S
C1057 C1050 1.409 1_545 S
C1057 C1056 1.362 1_554 S
H1058 C1064 0.930 . S
H1059 C1067 0.930 . S
H1060 C1068 0.930 1_455 S
H1061 C1069 0.930 . S
H1062 C1072 0.930 . S
H1063 C1073 0.930 1_655 S
C1064 H1058 0.930 . S
C1064 C1065 1.355 1_554 S
C1064 C1066 1.415 . S
C1065 C1064 1.355 1_556 S
C1065 C1067 1.419 . S
C1066 C1064 1.415 . S
C1066 C1071 1.425 1_654 S
C1066 C1073 1.409 1_655 S
C1067 H1059 0.930 . S
C1067 C1065 1.419 . S
C1067 C1068 1.362 . S
C1068 H1060 0.930 1_655 S
C1068 C1067 1.362 . S
C1068 C1071 1.409 1_655 S
C1069 H1061 0.930 . S
C1069 C1070 1.355 1_556 S
C1069 C1071 1.415 . S
C1070 C1069 1.355 1_554 S
C1070 C1072 1.419 . S
C1071 C1066 1.425 1_456 S
C1071 C1068 1.409 1_455 S
C1071 C1069 1.415 . S
C1072 H1062 0.930 . S
C1072 C1070 1.419 . S
C1072 C1073 1.362 . S
C1073 H1063 0.930 1_455 S
C1073 C1066 1.409 1_455 S
C1073 C1072 1.362 . S
H1074 C1080 0.930 . S
H1075 C1083 0.930 . S
H1076 C1084 0.930 . S
H1077 C1085 0.930 . S
H1078 C1088 0.930 . S
H1079 C1089 0.930 . S
C1080 H1074 0.930 . S
C1080 C1081 1.355 . S
C1080 C1082 1.415 1_556 S
C1081 C1080 1.355 . S
C1081 C1083 1.419 . S
C1082 C1080 1.415 1_554 S
C1082 C1087 1.425 1_554 S
C1082 C1089 1.409 . S
C1083 H1075 0.930 . S
C1083 C1081 1.419 . S
C1083 C1084 1.362 . S
C1084 H1076 0.930 . S
C1084 C1083 1.362 . S
C1084 C1087 1.409 . S
C1085 H1077 0.930 . S
C1085 C1086 1.355 . S
C1085 C1087 1.415 1_554 S
C1086 C1085 1.355 . S
C1086 C1088 1.419 . S
C1087 C1082 1.425 1_556 S
C1087 C1084 1.409 . S
C1087 C1085 1.415 1_556 S
C1088 H1078 0.930 . S
C1088 C1086 1.419 . S
C1088 C1089 1.362 . S
C1089 H1079 0.930 . S
C1089 C1082 1.409 . S
C1089 C1088 1.362 . S
H1090 C1096 0.930 . S
H1091 C1099 0.930 . S
H1092 C1100 0.930 . S
H1093 C1101 0.930 . S
H1094 C1104 0.930 . S
H1095 C1105 0.930 . S
C1096 H1090 0.930 . S
C1096 C1097 1.355 . S
C1096 C1098 1.418 . S
C1097 C1096 1.355 . S
C1097 C1099 1.419 1_556 S
C1098 C1096 1.418 . S
C1098 C1103 1.427 1_546 S
C1098 C1105 1.405 1_545 S
C1099 H1091 0.930 . S
C1099 C1097 1.419 1_554 S
C1099 C1100 1.362 . S
C1100 H1092 0.930 . S
C1100 C1099 1.362 . S
C1100 C1103 1.405 1_545 S
C1101 H1093 0.930 . S
C1101 C1102 1.355 . S
C1101 C1103 1.418 . S
C1102 C1101 1.355 . S
C1102 C1104 1.419 1_554 S
C1103 C1098 1.427 1_564 S
C1103 C1100 1.405 1_565 S
C1103 C1101 1.418 . S
C1104 H1094 0.930 . S
C1104 C1102 1.419 1_556 S
C1104 C1105 1.362 . S
C1105 H1095 0.930 . S
C1105 C1098 1.405 1_565 S
C1105 C1104 1.362 . S
H1106 C1112 0.930 1_554 S
H1107 C1115 0.930 . S
H1108 C1116 0.901 1_455 S
H1109 C1117 0.930 1_556 S
H1110 C1120 0.930 . S
H1111 C1121 0.901 1_655 S
C1112 H1106 0.930 1_556 S
C1112 C1113 1.355 . S
C1112 C1114 1.415 1_556 S
C1113 C1112 1.355 . S
C1113 C1115 1.419 . S
C1114 C1112 1.415 1_554 S
C1114 C1119 1.425 1_654 S
C1114 C1121 1.409 1_655 S
C1115 H1107 0.930 . S
C1115 C1113 1.419 . S
C1115 C1116 1.362 . S
C1116 H1108 0.901 1_655 S
C1116 C1115 1.362 . S
C1116 C1119 1.409 1_655 S
C1117 H1109 0.930 1_554 S
C1117 C1118 1.355 . S
C1117 C1119 1.415 1_554 S
C1118 C1117 1.355 . S
C1118 C1120 1.419 . S
C1119 C1114 1.425 1_456 S
C1119 C1116 1.409 1_455 S
C1119 C1117 1.415 1_556 S
C1120 H1110 0.930 . S
C1120 C1118 1.419 . S
C1120 C1121 1.362 . S
C1121 H1111 0.901 1_455 S
C1121 C1114 1.409 1_455 S
C1121 C1120 1.362 . S
H1122 C1128 0.930 . S
H1123 C1131 0.930 . S
H1124 C1132 0.930 . S
H1125 C1133 0.930 . S
H1126 C1136 0.930 . S
H1127 C1137 0.930 . S
C1128 H1122 0.930 . S
C1128 C1129 1.355 . S
C1128 C1130 1.415 . S
C1129 C1128 1.355 . S
C1129 C1131 1.419 . S
C1130 C1128 1.415 . S
C1130 C1135 1.425 . S
C1130 C1137 1.409 . S
C1131 H1123 0.930 . S
C1131 C1129 1.419 . S
C1131 C1132 1.362 . S
C1132 H1124 0.930 . S
C1132 C1131 1.362 . S
C1132 C1135 1.409 . S
C1133 H1125 0.930 . S
C1133 C1134 1.355 . S
C1133 C1135 1.415 . S
C1134 C1133 1.355 . S
C1134 C1136 1.419 . S
C1135 C1130 1.425 . S
C1135 C1132 1.409 . S
C1135 C1133 1.415 . S
C1136 H1126 0.930 . S
C1136 C1134 1.419 . S
C1136 C1137 1.362 . S
C1137 H1127 0.930 . S
C1137 C1130 1.409 . S
C1137 C1136 1.362 . S
H1138 C1144 0.930 . S
H1139 C1147 0.930 . S
H1140 C1148 0.930 . S
H1141 C1149 0.930 . S
H1142 C1152 0.930 . S
H1143 C1153 0.930 . S
C1144 H1138 0.930 . S
C1144 C1145 1.355 . S
C1144 C1146 1.415 . S
C1145 C1144 1.355 . S
C1145 C1147 1.419 . S
C1146 C1144 1.415 . S
C1146 C1151 1.425 . S
C1146 C1153 1.409 . S
C1147 H1139 0.930 . S
C1147 C1145 1.419 . S
C1147 C1148 1.362 . S
C1148 H1140 0.930 . S
C1148 C1147 1.362 . S
C1148 C1151 1.409 . S
C1149 H1141 0.930 . S
C1149 C1150 1.355 . S
C1149 C1151 1.415 . S
C1150 C1149 1.355 . S
C1150 C1152 1.419 . S
C1151 C1146 1.425 . S
C1151 C1148 1.409 . S
C1151 C1149 1.415 . S
C1152 H1142 0.930 . S
C1152 C1150 1.419 . S
C1152 C1153 1.362 . S
C1153 H1143 0.930 . S
C1153 C1146 1.409 . S
C1153 C1152 1.362 . S
H1154 C1160 0.930 . S
H1155 C1163 0.930 . S
H1156 C1164 0.930 . S
H1157 C1165 0.930 . S
H1158 C1168 0.930 . S
H1159 C1169 0.930 . S
C1160 H1154 0.930 . S
C1160 C1161 1.355 . S
C1160 C1162 1.415 . S
C1161 C1160 1.355 . S
C1161 C1163 1.419 . S
C1162 C1160 1.415 . S
C1162 C1167 1.425 . S
C1162 C1169 1.409 . S
C1163 H1155 0.930 . S
C1163 C1161 1.419 . S
C1163 C1164 1.362 . S
C1164 H1156 0.930 . S
C1164 C1163 1.362 . S
C1164 C1167 1.409 . S
C1165 H1157 0.930 . S
C1165 C1166 1.355 . S
C1165 C1167 1.415 . S
C1166 C1165 1.355 . S
C1166 C1168 1.419 . S
C1167 C1162 1.425 . S
C1167 C1164 1.409 . S
C1167 C1165 1.415 . S
C1168 H1158 0.930 . S
C1168 C1166 1.419 . S
C1168 C1169 1.362 . S
C1169 H1159 0.930 . S
C1169 C1162 1.409 . S
C1169 C1168 1.362 . S
H1170 C1176 0.930 . S
H1171 C1179 0.930 . S
H1172 C1180 0.930 . S
H1173 C1181 0.930 . S
H1174 C1184 0.930 . S
H1175 C1185 0.930 . S
C1176 H1170 0.930 . S
C1176 C1177 1.355 . S
C1176 C1178 1.415 . S
C1177 C1176 1.355 . S
C1177 C1179 1.419 . S
C1178 C1176 1.415 . S
C1178 C1183 1.425 . S
C1178 C1185 1.409 . S
C1179 H1171 0.930 . S
C1179 C1177 1.419 . S
C1179 C1180 1.362 . S
C1180 H1172 0.930 . S
C1180 C1179 1.362 . S
C1180 C1183 1.409 . S
C1181 H1173 0.930 . S
C1181 C1182 1.355 . S
C1181 C1183 1.415 . S
C1182 C1181 1.355 . S
C1182 C1184 1.419 . S
C1183 C1178 1.425 . S
C1183 C1180 1.409 . S
C1183 C1181 1.415 . S
C1184 H1174 0.930 . S
C1184 C1182 1.419 . S
C1184 C1185 1.362 . S
C1185 H1175 0.930 . S
C1185 C1178 1.409 . S
C1185 C1184 1.362 . S
H1186 C1192 0.930 . S
H1187 C1195 0.930 . S
H1188 C1196 0.930 . S
H1189 C1197 0.930 . S
H1190 C1200 0.930 . S
H1191 C1201 0.930 . S
C1192 H1186 0.930 . S
C1192 C1193 1.355 . S
C1192 C1194 1.415 . S
C1193 C1192 1.355 . S
C1193 C1195 1.419 . S
C1194 C1192 1.415 . S
C1194 C1199 1.425 . S
C1194 C1201 1.409 . S
C1195 H1187 0.930 . S
C1195 C1193 1.419 . S
C1195 C1196 1.362 . S
C1196 H1188 0.930 . S
C1196 C1195 1.362 . S
C1196 C1199 1.409 . S
C1197 H1189 0.930 . S
C1197 C1198 1.355 . S
C1197 C1199 1.415 . S
C1198 C1197 1.355 . S
C1198 C1200 1.419 . S
C1199 C1194 1.425 . S
C1199 C1196 1.409 . S
C1199 C1197 1.415 . S
C1200 H1190 0.930 . S
C1200 C1198 1.419 . S
C1200 C1201 1.362 . S
C1201 H1191 0.930 . S
C1201 C1194 1.409 . S
C1201 C1200 1.362 . S
H1202 C1208 0.930 . S
H1203 C1211 0.930 . S
H1204 C1212 0.930 . S
H1205 C1213 0.930 . S
H1206 C1216 0.930 . S
H1207 C1217 0.930 . S
C1208 H1202 0.930 . S
C1208 C1209 1.355 . S
C1208 C1210 1.415 . S
C1209 C1208 1.355 . S
C1209 C1211 1.419 . S
C1210 C1208 1.415 . S
C1210 C1215 1.425 . S
C1210 C1217 1.409 . S
C1211 H1203 0.930 . S
C1211 C1209 1.419 . S
C1211 C1212 1.362 . S
C1212 H1204 0.930 . S
C1212 C1211 1.362 . S
C1212 C1215 1.409 . S
C1213 H1205 0.930 . S
C1213 C1214 1.355 . S
C1213 C1215 1.415 . S
C1214 C1213 1.355 . S
C1214 C1216 1.419 . S
C1215 C1210 1.425 . S
C1215 C1212 1.409 . S
C1215 C1213 1.415 . S
C1216 H1206 0.930 . S
C1216 C1214 1.419 . S
C1216 C1217 1.362 . S
C1217 H1207 0.930 . S
C1217 C1210 1.409 . S
C1217 C1216 1.362 . S
H1218 C1224 0.930 . S
H1219 C1227 0.930 . S
H1220 C1228 0.930 . S
H1221 C1229 0.930 . S
H1222 C1232 0.930 . S
H1223 C1233 0.930 . S
C1224 H1218 0.930 . S
C1224 C1225 1.355 . S
C1224 C1226 1.415 . S
C1225 C1224 1.355 . S
C1225 C1227 1.419 . S
C1226 C1224 1.415 . S
C1226 C1231 1.425 . S
C1226 C1233 1.409 . S
C1227 H1219 0.930 . S
C1227 C1225 1.419 . S
C1227 C1228 1.362 . S
C1228 H1220 0.930 . S
C1228 C1227 1.362 . S
C1228 C1231 1.409 . S
C1229 H1221 0.930 . S
C1229 C1230 1.355 . S
C1229 C1231 1.415 . S
C1230 C1229 1.355 . S
C1230 C1232 1.419 . S
C1231 C1226 1.425 . S
C1231 C1228 1.409 . S
C1231 C1229 1.415 . S
C1232 H1222 0.930 . S
C1232 C1230 1.419 . S
C1232 C1233 1.362 . S
C1233 H1223 0.930 . S
C1233 C1226 1.409 . S
C1233 C1232 1.362 . S
H1234 C1240 0.930 . S
H1235 C1243 0.930 . S
H1236 C1244 0.930 . S
H1237 C1245 0.930 . S
H1238 C1248 0.930 . S
H1239 C1249 0.930 . S
C1240 H1234 0.930 . S
C1240 C1241 1.355 . S
C1240 C1242 1.415 . S
C1241 C1240 1.355 . S
C1241 C1243 1.419 . S
C1242 C1240 1.415 . S
C1242 C1247 1.425 . S
C1242 C1249 1.409 . S
C1243 H1235 0.930 . S
C1243 C1241 1.419 . S
C1243 C1244 1.362 . S
C1244 H1236 0.930 . S
C1244 C1243 1.362 . S
C1244 C1247 1.409 . S
C1245 H1237 0.930 . S
C1245 C1246 1.355 . S
C1245 C1247 1.415 . S
C1246 C1245 1.355 . S
C1246 C1248 1.419 . S
C1247 C1242 1.425 . S
C1247 C1244 1.409 . S
C1247 C1245 1.415 . S
C1248 H1238 0.930 . S
C1248 C1246 1.419 . S
C1248 C1249 1.362 . S
C1249 H1239 0.930 . S
C1249 C1242 1.409 . S
C1249 C1248 1.362 . S
H1250 C1256 0.930 . S
H1251 C1259 0.930 . S
H1252 C1260 0.930 . S
H1253 C1261 0.930 . S
H1254 C1264 0.930 . S
H1255 C1265 0.930 . S
C1256 H1250 0.930 . S
C1256 C1257 1.355 . S
C1256 C1258 1.415 . S
C1257 C1256 1.355 . S
C1257 C1259 1.419 . S
C1258 C1256 1.415 . S
C1258 C1263 1.425 . S
C1258 C1265 1.409 . S
C1259 H1251 0.930 . S
C1259 C1257 1.419 . S
C1259 C1260 1.362 . S
C1260 H1252 0.930 . S
C1260 C1259 1.362 . S
C1260 C1263 1.409 . S
C1261 H1253 0.930 . S
C1261 C1262 1.355 . S
C1261 C1263 1.415 . S
C1262 C1261 1.355 . S
C1262 C1264 1.419 . S
C1263 C1258 1.425 . S
C1263 C1260 1.409 . S
C1263 C1261 1.415 . S
C1264 H1254 0.930 . S
C1264 C1262 1.419 . S
C1264 C1265 1.362 . S
C1265 H1255 0.930 . S
C1265 C1258 1.409 . S
C1265 C1264 1.362 . S
H1266 C1272 0.930 . S
H1267 C1275 0.930 . S
H1268 C1276 0.930 . S
H1269 C1277 0.930 . S
H1270 C1280 0.930 . S
H1271 C1281 0.930 . S
C1272 H1266 0.930 . S
C1272 C1273 1.355 . S
C1272 C1274 1.415 . S
C1273 C1272 1.355 . S
C1273 C1275 1.419 . S
C1274 C1272 1.415 . S
C1274 C1279 1.425 . S
C1274 C1281 1.409 . S
C1275 H1267 0.930 . S
C1275 C1273 1.419 . S
C1275 C1276 1.362 . S
C1276 H1268 0.930 . S
C1276 C1275 1.362 . S
C1276 C1279 1.409 . S
C1277 H1269 0.930 . S
C1277 C1278 1.355 . S
C1277 C1279 1.415 . S
C1278 C1277 1.355 . S
C1278 C1280 1.419 . S
C1279 C1274 1.425 . S
C1279 C1276 1.409 . S
C1279 C1277 1.415 . S
C1280 H1270 0.930 . S
C1280 C1278 1.419 . S
C1280 C1281 1.362 . S
C1281 H1271 0.930 . S
C1281 C1274 1.409 . S
C1281 C1280 1.362 . S
H1282 C1288 0.930 . S
H1283 C1291 0.930 . S
H1284 C1292 0.930 . S
H1285 C1293 0.930 . S
H1286 C1296 0.930 . S
H1287 C1297 0.930 . S
C1288 H1282 0.930 . S
C1288 C1289 1.355 . S
C1288 C1290 1.415 . S
C1289 C1288 1.355 . S
C1289 C1291 1.419 . S
C1290 C1288 1.415 . S
C1290 C1295 1.425 . S
C1290 C1297 1.409 . S
C1291 H1283 0.930 . S
C1291 C1289 1.419 . S
C1291 C1292 1.362 . S
C1292 H1284 0.930 . S
C1292 C1291 1.362 . S
C1292 C1295 1.409 . S
C1293 H1285 0.930 . S
C1293 C1294 1.355 . S
C1293 C1295 1.415 . S
C1294 C1293 1.355 . S
C1294 C1296 1.419 . S
C1295 C1290 1.425 . S
C1295 C1292 1.409 . S
C1295 C1293 1.415 . S
C1296 H1286 0.930 . S
C1296 C1294 1.419 . S
C1296 C1297 1.362 . S
C1297 H1287 0.930 . S
C1297 C1290 1.409 . S
C1297 C1296 1.362 . S
H1298 C1304 0.930 . S
H1299 C1307 0.930 . S
H1300 C1308 0.930 . S
H1301 C1309 0.930 . S
H1302 C1312 0.930 . S
H1303 C1313 0.930 . S
C1304 H1298 0.930 . S
C1304 C1305 1.355 . S
C1304 C1306 1.415 . S
C1305 C1304 1.355 . S
C1305 C1307 1.419 . S
C1306 C1304 1.415 . S
C1306 C1311 1.425 . S
C1306 C1313 1.409 . S
C1307 H1299 0.930 . S
C1307 C1305 1.419 . S
C1307 C1308 1.362 . S
C1308 H1300 0.930 . S
C1308 C1307 1.362 . S
C1308 C1311 1.409 . S
C1309 H1301 0.930 . S
C1309 C1310 1.355 . S
C1309 C1311 1.415 . S
C1310 C1309 1.355 . S
C1310 C1312 1.419 . S
C1311 C1306 1.425 . S
C1311 C1308 1.409 . S
C1311 C1309 1.415 . S
C1312 H1302 0.930 . S
C1312 C1310 1.419 . S
C1312 C1313 1.362 . S
C1313 H1303 0.930 . S
C1313 C1306 1.409 . S
C1313 C1312 1.362 . S
C601 N13 1.141 . S
C606 N2 1.142 . S
C617 N46 1.143 . S
C622 N35 1.141 . S
C633 N68 1.158 . S
C638 N79 1.157 . S
C649 N112 1.135 . S
C654 N101 1.134 . S
C665 N145 1.150 . S
C670 N134 1.149 . S
C681 N167 1.165 . S
C686 N178 1.165 . S
C697 N200 1.161 . S
C702 N211 1.162 . S
C713 N233 1.150 . S
C718 N244 1.152 . S
C729 N277 1.154 . S
C734 N266 1.155 . S
C745 N310 1.136 . S
C750 N299 1.135 . S
C761 N343 1.134 . S
C766 N332 1.134 . S
C777 N365 1.135 . S
C782 N376 1.135 . S
C793 N398 1.167 . S
C798 N409 1.167 . S
C809 N431 1.145 . S
C814 N442 1.147 . S
C825 N464 1.162 . S
C830 N475 1.163 . S
C841 N508 1.133 . S
C846 N497 1.133 . S
C857 N541 1.162 . S
C862 N530 1.163 . S
C873 N563 1.134 . S
C878 N574 1.135 . S
C889 C579 1.628 . S
C894 C18 1.628 . S
C905 C51 1.624 . S
C910 C513 1.623 . S
C921 C546 1.579 . S
C926 C84 1.579 . S
C937 C249 1.630 . S
C942 C117 1.630 . S
C953 C150 1.605 . S
C958 C282 1.605 . S
C969 C183 1.592 . S
C974 C216 1.591 . S
C985 C315 1.611 . S
C990 C447 1.611 . S
C1001 C480 1.602 . S
C1006 C348 1.602 . S
C1017 C381 1.576 . S
C1022 C414 1.576 . S
C1033 C7 1.479 . S
C1038 C106 1.481 . S
C1049 C40 1.503 . S
C1054 C139 1.499 . S
C1065 C172 1.517 . S
C1070 C73 1.515 . S
C1081 C186 1.549 . S
C1086 C54 1.547 . S
C1097 C120 1.530 . S
C1102 C87 1.528 . S
C1113 C153 1.552 . S
C1118 C21 1.551 . S
C1129 C304 1.505 . S
C1134 C205 1.509 . S
C1145 C337 1.486 . S
C1150 C238 1.489 . S
C1161 C271 1.485 . S
C1166 C370 1.489 . S
C1177 C384 1.541 . S
C1182 C252 1.538 . S
C1193 C285 1.555 . S
C1198 C318 1.554 . S
C1209 C219 1.540 . S
C1214 C351 1.542 . S
C1225 C502 1.492 . S
C1230 C403 1.497 . S
C1241 C535 1.501 . S
C1246 C436 1.505 . S
C1257 C568 1.479 . S
C1262 C469 1.479 . S
C1273 C450 1.553 . S
C1278 C582 1.552 . S
C1289 C483 1.542 . S
C1294 C516 1.544 . S
C1305 C549 1.555 . S
C1310 C417 1.554 . S
