# Generated by pormake.
# Topology uou, (4)-cn, num edge types: 1
# Building blocks:
#     Node 0, Type 0, BuildingBlock: UXUYUI_clean_sbu_0, # of connection points: 4
#     Node 1, Type 0, BuildingBlock: UXUYUI_clean_sbu_0, # of connection points: 4
#     Node 2, Type 0, BuildingBlock: UXUYUI_clean_sbu_0, # of connection points: 4
#     Node 3, Type 0, BuildingBlock: UXUYUI_clean_sbu_0, # of connection points: 4
#     Node 4, Type 0, BuildingBlock: UXUYUI_clean_sbu_0, # of connection points: 4
#     Node 5, Type 0, BuildingBlock: UXUYUI_clean_sbu_0, # of connection points: 4
#     Node 6, Type 0, BuildingBlock: UXUYUI_clean_sbu_0, # of connection points: 4
#     Node 7, Type 0, BuildingBlock: UXUYUI_clean_sbu_0, # of connection points: 4
#     Node 8, Type 0, BuildingBlock: UXUYUI_clean_sbu_0, # of connection points: 4
#     Node 9, Type 0, BuildingBlock: UXUYUI_clean_sbu_0, # of connection points: 4
#     Node 10, Type 0, BuildingBlock: UXUYUI_clean_sbu_0, # of connection points: 4
#     Node 11, Type 0, BuildingBlock: UXUYUI_clean_sbu_0, # of connection points: 4
#     Node 12, Type 0, BuildingBlock: UXUYUI_clean_sbu_0, # of connection points: 4
#     Node 13, Type 0, BuildingBlock: UXUYUI_clean_sbu_0, # of connection points: 4
#     Node 14, Type 0, BuildingBlock: UXUYUI_clean_sbu_0, # of connection points: 4
#     Node 15, Type 0, BuildingBlock: UXUYUI_clean_sbu_0, # of connection points: 4
#     Edge 16, Type (0, 0), BuildingBlock: XIVTED_clean_linker_0, # of connection points: 2
#     Edge 17, Type (0, 0), BuildingBlock: XIVTED_clean_linker_0, # of connection points: 2
#     Edge 18, Type (0, 0), BuildingBlock: XIVTED_clean_linker_0, # of connection points: 2
#     Edge 19, Type (0, 0), BuildingBlock: XIVTED_clean_linker_0, # of connection points: 2
#     Edge 20, Type (0, 0), BuildingBlock: XIVTED_clean_linker_0, # of connection points: 2
#     Edge 21, Type (0, 0), BuildingBlock: XIVTED_clean_linker_0, # of connection points: 2
#     Edge 22, Type (0, 0), BuildingBlock: XIVTED_clean_linker_0, # of connection points: 2
#     Edge 23, Type (0, 0), BuildingBlock: XIVTED_clean_linker_0, # of connection points: 2
#     Edge 24, Type (0, 0), BuildingBlock: XIVTED_clean_linker_0, # of connection points: 2
#     Edge 25, Type (0, 0), BuildingBlock: XIVTED_clean_linker_0, # of connection points: 2
#     Edge 26, Type (0, 0), BuildingBlock: XIVTED_clean_linker_0, # of connection points: 2
#     Edge 27, Type (0, 0), BuildingBlock: XIVTED_clean_linker_0, # of connection points: 2
#     Edge 28, Type (0, 0), BuildingBlock: XIVTED_clean_linker_0, # of connection points: 2
#     Edge 29, Type (0, 0), BuildingBlock: XIVTED_clean_linker_0, # of connection points: 2
#     Edge 30, Type (0, 0), BuildingBlock: XIVTED_clean_linker_0, # of connection points: 2
#     Edge 31, Type (0, 0), BuildingBlock: XIVTED_clean_linker_0, # of connection points: 2
#     Edge 32, Type (0, 0), BuildingBlock: XIVTED_clean_linker_0, # of connection points: 2
#     Edge 33, Type (0, 0), BuildingBlock: XIVTED_clean_linker_0, # of connection points: 2
#     Edge 34, Type (0, 0), BuildingBlock: XIVTED_clean_linker_0, # of connection points: 2
#     Edge 35, Type (0, 0), BuildingBlock: XIVTED_clean_linker_0, # of connection points: 2
#     Edge 36, Type (0, 0), BuildingBlock: XIVTED_clean_linker_0, # of connection points: 2
#     Edge 37, Type (0, 0), BuildingBlock: XIVTED_clean_linker_0, # of connection points: 2
#     Edge 38, Type (0, 0), BuildingBlock: XIVTED_clean_linker_0, # of connection points: 2
#     Edge 39, Type (0, 0), BuildingBlock: XIVTED_clean_linker_0, # of connection points: 2
#     Edge 40, Type (0, 0), BuildingBlock: XIVTED_clean_linker_0, # of connection points: 2
#     Edge 41, Type (0, 0), BuildingBlock: XIVTED_clean_linker_0, # of connection points: 2
#     Edge 42, Type (0, 0), BuildingBlock: XIVTED_clean_linker_0, # of connection points: 2
#     Edge 43, Type (0, 0), BuildingBlock: XIVTED_clean_linker_0, # of connection points: 2
#     Edge 44, Type (0, 0), BuildingBlock: XIVTED_clean_linker_0, # of connection points: 2
#     Edge 45, Type (0, 0), BuildingBlock: XIVTED_clean_linker_0, # of connection points: 2
#     Edge 46, Type (0, 0), BuildingBlock: XIVTED_clean_linker_0, # of connection points: 2
#     Edge 47, Type (0, 0), BuildingBlock: XIVTED_clean_linker_0, # of connection points: 2
# Relax obj value: 0.194
# Max RMSD: 0.198
# Mean RMSD: 0.197
data_MOF--net-uou--node1-UXUYUI_clean_sbu_0--edge1-XIVTED_clean_linker_0
_symmetry_space_group_name_H-M    P1
_symmetry_Int_Tables_number       1
_symmetry_cell_setting            triclinic
loop_
_symmetry_equiv_pos_as_xyz
'x, y, z'
_cell_length_a     57.309661
_cell_length_b     55.456985
_cell_length_c     78.284394
_cell_angle_alpha  89.973074
_cell_angle_beta   89.985263
_cell_angle_gamma 89.996082
loop_
_atom_site_label
_atom_site_type_symbol
_atom_site_fract_x
_atom_site_fract_y
_atom_site_fract_z
_atom_type_partial_charge
Li0 Li 0.05624 0.05683 0.11129 0.0
Li1 Li 0.09258 0.06265 0.12712 0.0
Li2 Li 0.05709 0.05017 0.14108 0.0
Li3 Li 0.06045 0.09127 0.12951 0.0
C4 C 0.07322 0.00871 0.12789 0.0
N5 N 0.06963 0.96087 0.13753 0.0
C6 C 0.0933 0.9952 0.13125 0.0
C7 C 0.05135 0.9977 0.12911 0.0
C8 C 0.09112 0.97109 0.13618 0.0
C9 C 0.04987 0.97356 0.1341 0.0
C10 C 0.0916 0.08191 0.09409 0.0
C11 C 0.11075 0.10016 0.06988 0.0
N12 N 0.11665 0.07788 0.06405 0.0
C13 C 0.09787 0.05917 0.08785 0.0
C14 C 0.09807 0.10256 0.08503 0.0
C15 C 0.11052 0.05752 0.07264 0.0
C16 C 0.03782 0.06509 0.07878 0.0
N17 N 0.04363 0.04732 0.08996 0.0
C18 C 0.03383 0.01706 0.06953 0.0
C19 C 0.04181 0.02365 0.0857 0.0
C20 C 0.02776 0.03504 0.05769 0.0
C21 C 0.02966 0.05933 0.06252 0.0
H22 H 0.03993 0.08377 0.08243 0.0
H23 H 0.04691 0.00991 0.09471 0.0
C24 C 0.13219 0.04361 0.14163 0.0
N25 N 0.12539 0.05789 0.12844 0.0
C26 C 0.15522 0.03572 0.14283 0.0
C27 C 0.16431 0.05897 0.11757 0.0
C28 C 0.14106 0.06644 0.11688 0.0
C29 C 0.17147 0.04283 0.13039 0.0
H30 H 0.11938 0.03743 0.15079 0.0
H31 H 0.13555 0.07852 0.10687 0.0
C32 C 0.01324 0.06895 0.11925 0.0
N33 N 0.97289 0.06876 0.0999 0.0
C34 C 0.00655 0.08955 0.1102 0.0
C35 C -0.00081 0.04837 0.11866 0.0
C36 C 0.98615 0.08908 0.10045 0.0
C37 C 0.97892 0.04859 0.10874 0.0
C38 C 0.09378 0.09295 0.15505 0.0
C39 C 0.09747 0.09374 0.17268 0.0
C40 C 0.10528 0.10938 0.14443 0.0
C41 C 0.11261 0.11103 0.17942 0.0
C42 C 0.12028 0.12639 0.15166 0.0
N43 N 0.1236 0.12686 0.16886 0.0
C44 C 0.06254 0.01987 0.16932 0.0
C45 C 0.02359 0.03259 0.16447 0.0
C46 C 0.05591 0.00794 0.18423 0.0
N47 N 0.04645 0.03203 0.15993 0.0
C48 C 0.0162 0.02105 0.17936 0.0
C49 C 0.03255 0.00892 0.18965 0.0
H50 H 0.08065 0.01995 0.16542 0.0
H51 H 0.01128 0.04275 0.15687 0.0
C52 C 0.05206 0.13846 0.11843 0.0
N53 N 0.05187 0.12396 0.13241 0.0
C54 C 0.04322 0.16185 0.11941 0.0
C55 C 0.03515 0.15531 0.14938 0.0
C56 C 0.04396 0.13191 0.14778 0.0
C57 C 0.03426 0.17039 0.13497 0.0
H58 H 0.05824 0.13151 0.10635 0.0
H59 H 0.04388 0.11984 0.15864 0.0
O60 O 0.07501 0.03245 0.12322 0.0
O61 O 0.07891 0.08412 0.10883 0.0
O62 O 0.03341 0.06896 0.12864 0.0
O63 O 0.07902 0.07605 0.14833 0.0
H64 H 0.11041 0.00311 0.12989 0.0
H65 H 0.03568 0.00775 0.12637 0.0
H66 H 0.10652 0.96048 0.13888 0.0
H67 H 0.03302 0.96493 0.13525 0.0
H68 H 0.11589 0.116 0.06275 0.0
H69 H 0.09312 0.04293 0.09463 0.0
H70 H 0.0934 0.1203 0.08966 0.0
H71 H 0.11548 0.04006 0.06768 0.0
H72 H 0.03245 0.99812 0.06633 0.0
H73 H 0.0255 0.07372 0.05368 0.0
H74 H 0.15992 0.02325 0.15291 0.0
H75 H 0.17644 0.06538 0.10798 0.0
H76 H 0.01712 0.10565 0.11051 0.0
H77 H 0.00378 0.03239 0.12579 0.0
H78 H 0.9809 0.10484 0.09327 0.0
H79 H 0.96796 0.03273 0.10811 0.0
H80 H 0.08871 0.0811 0.18106 0.0
H81 H 0.10272 0.10904 0.13075 0.0
H82 H 0.11562 0.11187 0.19305 0.0
H83 H 0.12929 0.13921 0.1436 0.0
H84 H 0.06905 0.99863 0.19167 0.0
H85 H -0.00188 0.0227 0.18319 0.0
H86 H 0.04309 0.17301 0.10805 0.0
H87 H 0.02826 0.16118 0.16158 0.0
Li88 Li 0.4392 0.91417 0.12726 0.0
Li89 Li 0.44426 0.95471 0.1389 0.0
Li90 Li 0.40752 0.94282 0.12566 0.0
Li91 Li 0.44246 0.94945 0.10866 0.0
C92 C 0.41908 0.91139 0.15794 0.0
N93 N 0.41461 0.87365 0.18077 0.0
C94 C 0.43259 0.91086 0.1728 0.0
C95 C 0.40322 0.8928 0.15474 0.0
C96 C 0.43008 0.89162 0.18418 0.0
C97 C 0.40125 0.87385 0.16641 0.0
C98 C 0.48543 0.93614 0.11444 0.0
C99 C 0.51539 0.95743 0.09889 0.0
N100 N 0.52323 0.9361 0.09252 0.0
C101 C 0.49383 0.91444 0.10777 0.0
C102 C 0.49635 0.95782 0.11004 0.0
C103 C 0.51295 0.9148 0.0967 0.0
C104 C 0.44308 0.86562 0.11685 0.0
N105 N 0.44816 0.88133 0.12961 0.0
C106 C 0.46971 0.85103 0.14452 0.0
C107 C 0.46134 0.87459 0.14322 0.0
C108 C 0.46522 0.83439 0.13136 0.0
C109 C 0.45155 0.84202 0.11741 0.0
H110 H 0.43312 0.87166 0.10593 0.0
H111 H 0.46581 0.88767 0.15291 0.0
C112 C 0.44376 0.97593 0.17127 0.0
N113 N 0.45726 0.97242 0.15724 0.0
C114 C 0.4531 0.98678 0.1858 0.0
C115 C 0.48964 0.9916 0.17073 0.0
C116 C 0.47966 0.98035 0.15657 0.0
C117 C 0.47654 0.99429 0.18581 0.0
H118 H 0.42596 0.96944 0.17138 0.0
H119 H 0.48995 0.97741 0.14521 0.0
C120 C 0.40108 0.91716 0.0976 0.0
N121 N 0.36116 0.90806 0.0789 0.0
C122 C 0.39576 0.93126 0.08332 0.0
C123 C 0.38624 0.89828 0.10227 0.0
C124 C 0.37546 0.92641 0.07406 0.0
C125 C 0.3661 0.89401 0.09268 0.0
C126 C 0.42472 0.99485 0.13039 0.0
C127 C 0.40601 0.00064 0.14109 0.0
C128 C 0.44338 0.01092 0.12876 0.0
C129 C 0.40628 0.02247 0.14998 0.0
C130 C 0.44301 0.03256 0.13789 0.0
N131 N 0.42462 0.03784 0.14822 0.0
C132 C 0.36052 0.94049 0.1381 0.0
C133 C 0.36738 0.9639 0.11325 0.0
C134 C 0.33721 0.94792 0.13848 0.0
N135 N 0.375 0.94867 0.12564 0.0
C136 C 0.34428 0.97166 0.11308 0.0
C137 C 0.32893 0.96392 0.12593 0.0
H138 H 0.36719 0.92887 0.14805 0.0
H139 H 0.37952 0.97071 0.10384 0.0
C140 C 0.45999 0.94332 0.07547 0.0
N141 N 0.4527 0.96005 0.08696 0.0
C142 C 0.4668 0.95037 0.05911 0.0
C143 C 0.45821 0.99171 0.06671 0.0
C144 C 0.45157 0.98384 0.08292 0.0
C145 C 0.4659 0.97486 0.05455 0.0
H146 H 0.46035 0.92447 0.07901 0.0
H147 H 0.44515 0.99665 0.09218 0.0
O148 O 0.42141 0.92997 0.14657 0.0
O149 O 0.46649 0.93621 0.12509 0.0
O150 O 0.42066 0.92186 0.107 0.0
O151 O 0.42509 0.97326 0.12193 0.0
H152 H 0.4451 0.92498 0.17543 0.0
H153 H 0.39264 0.89293 0.14331 0.0
H154 H 0.4405 0.89091 0.19569 0.0
H155 H 0.38911 0.85929 0.16405 0.0
H156 H 0.52387 0.97408 0.09526 0.0
H157 H 0.48563 0.89749 0.11101 0.0
H158 H 0.48989 0.97482 0.11487 0.0
H159 H 0.51959 0.89814 0.09141 0.0
H160 H 0.4798 0.84611 0.15566 0.0
H161 H 0.44803 0.83022 0.10671 0.0
H162 H 0.44237 0.98809 0.19714 0.0
H163 H 0.50763 0.99749 0.17001 0.0
H164 H 0.40701 0.94599 0.07954 0.0
H165 H 0.39021 0.88706 0.11319 0.0
H166 H 0.37104 0.93727 0.06305 0.0
H167 H 0.3544 0.87953 0.0962 0.0
H168 H 0.39157 0.98831 0.1427 0.0
H169 H 0.45819 0.00657 0.12076 0.0
H170 H 0.39196 0.02714 0.15835 0.0
H171 H 0.45739 0.0451 0.13682 0.0
H172 H 0.3259 0.9415 0.14859 0.0
H173 H 0.3388 0.98439 0.10339 0.0
H174 H 0.47281 0.93683 0.05017 0.0
H175 H 0.45684 0.01069 0.06363 0.0
Li176 Li 0.58718 0.94409 0.37057 0.0
Li177 Li 0.5498 0.95023 0.3848 0.0
Li178 Li 0.55588 0.91581 0.36594 0.0
Li179 Li 0.55286 0.95704 0.35473 0.0
C180 C 0.58984 0.91767 0.39817 0.0
N181 N 0.6276 0.90822 0.41905 0.0
C182 C 0.59257 0.93024 0.41351 0.0
C183 C 0.60619 0.90018 0.3935 0.0
C184 C 0.61181 0.92521 0.42388 0.0
C185 C 0.6252 0.89571 0.40421 0.0
C186 C 0.57049 0.99727 0.36719 0.0
C187 C 0.55205 0.03511 0.36022 0.0
N188 N 0.57254 0.04321 0.35358 0.0
C189 C 0.5914 0.006 0.36037 0.0
C190 C 0.55068 0.01197 0.3672 0.0
C191 C 0.59207 0.02926 0.35353 0.0
C192 C 0.63389 0.94214 0.35932 0.0
N193 N 0.61969 0.94921 0.37228 0.0
C194 C 0.65101 0.97005 0.38588 0.0
C195 C 0.62776 0.96268 0.38551 0.0
C196 C 0.66594 0.96376 0.37236 0.0
C197 C 0.65725 0.94922 0.35912 0.0
H198 H 0.62686 0.93187 0.34879 0.0
H199 H 0.61585 0.96866 0.39535 0.0
C200 C 0.52665 0.94202 0.41571 0.0
N201 N 0.5361 0.95953 0.40573 0.0
C202 C 0.51803 0.94763 0.43188 0.0
C203 C 0.52937 0.98915 0.42727 0.0
C204 C 0.53756 0.98277 0.41111 0.0
C205 C 0.51961 0.97141 0.4379 0.0
H206 H 0.52636 0.92357 0.41125 0.0
H207 H 0.54561 0.99621 0.40303 0.0
C208 C 0.57806 0.91486 0.33616 0.0
N209 N 0.58141 0.87965 0.31132 0.0
C210 C 0.56536 0.91699 0.32099 0.0
C211 C 0.59258 0.89491 0.33865 0.0
C212 C 0.56728 0.89899 0.30859 0.0
C213 C 0.59398 0.87727 0.32596 0.0
C214 C 0.5077 0.93822 0.37449 0.0
C215 C 0.49832 0.91681 0.38093 0.0
C216 C 0.49568 0.95991 0.37676 0.0
C217 C 0.47712 0.91751 0.38974 0.0
C218 C 0.47455 0.95986 0.38566 0.0
N219 N 0.46579 0.93884 0.39192 0.0
C220 C 0.55203 0.86731 0.37554 0.0
C221 C 0.53567 0.876 0.34845 0.0
C222 C 0.54454 0.84344 0.37448 0.0
N223 N 0.54749 0.883 0.36265 0.0
C224 C 0.52822 0.85215 0.34669 0.0
C225 C 0.53238 0.83548 0.35991 0.0
H226 H 0.56089 0.87353 0.38691 0.0
H227 H 0.53169 0.88902 0.3386 0.0
C228 C 0.56094 0.98457 0.32564 0.0
N229 N 0.54364 0.97544 0.33558 0.0
C230 C 0.55566 0.99556 0.31012 0.0
C231 C 0.51476 0.98785 0.31547 0.0
C232 C 0.52085 0.97725 0.33103 0.0
C233 C 0.53237 0.9966 0.30457 0.0
H234 H 0.57895 0.98238 0.32944 0.0
H235 H 0.50751 0.96941 0.33907 0.0
O236 O 0.57134 0.92257 0.38771 0.0
O237 O 0.56939 0.97443 0.37376 0.0
O238 O 0.57633 0.9322 0.3485 0.0
O239 O 0.5286 0.93798 0.36607 0.0
H240 H 0.58012 0.94389 0.4173 0.0
H241 H 0.60428 0.89028 0.38168 0.0
H242 H 0.61422 0.93488 0.43575 0.0
H243 H 0.63806 0.88231 0.40071 0.0
H244 H 0.53682 0.04662 0.36006 0.0
H245 H 0.60689 0.99487 0.36017 0.0
H246 H 0.53436 0.00549 0.37241 0.0
H247 H 0.6081 0.03621 0.34813 0.0
H248 H 0.65691 0.98157 0.39618 0.0
H249 H 0.66824 0.94388 0.34852 0.0
H250 H 0.51097 0.93338 0.4398 0.0
H251 H 0.53079 0.00771 0.43145 0.0
H252 H 0.55399 0.93226 0.31885 0.0
H253 H 0.60252 0.89299 0.35032 0.0
H254 H 0.55749 0.90035 0.29682 0.0
H255 H 0.60505 0.86167 0.32776 0.0
H256 H 0.50738 0.89986 0.37929 0.0
H257 H 0.50267 0.97661 0.3718 0.0
H258 H 0.46971 0.9011 0.39488 0.0
H259 H 0.46512 0.97653 0.38761 0.0
H260 H 0.54767 0.8316 0.38523 0.0
H261 H 0.51916 0.84694 0.33514 0.0
H262 H 0.56977 0.0023 0.30225 0.0
H263 H 0.49662 0.98787 0.31161 0.0
Li264 Li 0.94014 0.05617 0.38224 0.0
Li265 Li 0.90366 0.0598 0.36606 0.0
Li266 Li 0.93996 0.04913 0.35268 0.0
Li267 Li 0.93584 0.09078 0.36371 0.0
C268 C 0.92528 0.00789 0.36369 0.0
N269 N 0.93139 0.96282 0.34922 0.0
C270 C 0.91099 0.00034 0.35025 0.0
C271 C 0.94255 0.99234 0.36987 0.0
C272 C 0.91439 0.97756 0.34307 0.0
C273 C 0.94539 0.96968 0.36237 0.0
C274 C 0.91327 0.08585 0.40074 0.0
C275 C 0.91724 0.11028 0.42606 0.0
N276 N 0.90876 0.09179 0.43564 0.0
C277 C 0.90432 0.0672 0.41082 0.0
C278 C 0.91959 0.10765 0.40839 0.0
C279 C 0.90229 0.0705 0.42845 0.0
C280 C 0.96628 0.06411 0.4123 0.0
N281 N 0.95267 0.04789 0.40393 0.0
C282 C 0.95343 0.02121 0.42781 0.0
C283 C 0.94618 0.02675 0.41129 0.0
C284 C 0.9673 0.0377 0.43688 0.0
C285 C 0.97392 0.05932 0.42887 0.0
H286 H 0.97071 0.08103 0.40623 0.0
H287 H 0.93475 0.01455 0.40454 0.0
C288 C 0.86128 0.04538 0.35115 0.0
N289 N 0.87086 0.05452 0.36565 0.0
C290 C 0.83805 0.03784 0.35102 0.0
C291 C 0.83447 0.05115 0.38029 0.0
C292 C 0.85779 0.0583 0.37987 0.0
C293 C 0.82451 0.04004 0.36591 0.0
H294 H 0.8719 0.04325 0.33984 0.0
H295 H 0.86551 0.06638 0.39103 0.0
C296 C 0.98497 0.06575 0.37099 0.0
N297 N 0.03011 0.05998 0.38279 0.0
C298 C 0.00066 0.08505 0.37051 0.0
C299 C 0.9924 0.04344 0.37724 0.0
C300 C 0.02336 0.0818 0.37659 0.0
C301 C 0.01522 0.04089 0.38323 0.0
C302 C 0.90208 0.09077 0.33803 0.0
C303 C 0.90058 0.09355 0.32031 0.0
C304 C 0.88791 0.10482 0.34866 0.0
C305 C 0.88499 0.11037 0.31352 0.0
C306 C 0.87253 0.12142 0.34135 0.0
N307 N 0.8714 0.12383 0.32409 0.0
C308 C 0.94057 0.03182 0.31928 0.0
C309 C 0.97265 0.0183 0.33579 0.0
C310 C 0.94942 0.02044 0.3048 0.0
N311 N 0.95249 0.03103 0.33425 0.0
C312 C 0.98211 0.0065 0.32164 0.0
C313 C 0.97074 0.00797 0.30577 0.0
H314 H 0.92438 0.04176 0.31851 0.0
H315 H 0.98159 0.01758 0.34789 0.0
C316 C 0.95859 0.13155 0.37465 0.0
N317 N 0.94486 0.12372 0.36166 0.0
C318 C 0.9676 0.15488 0.37455 0.0
C319 C 0.94778 0.16206 0.3478 0.0
C320 C 0.93944 0.13837 0.34829 0.0
C321 C 0.9622 0.17061 0.36103 0.0
H322 H 0.96301 0.11936 0.38494 0.0
H323 H 0.92888 0.13173 0.3379 0.0
O324 O 0.92251 0.03042 0.3706 0.0
O325 O 0.91596 0.08274 0.38349 0.0
O326 O 0.96257 0.06875 0.36522 0.0
O327 O 0.9172 0.0742 0.3448 0.0
H328 H 0.89769 0.01208 0.3452 0.0
H329 H 0.95374 0.99763 0.3803 0.0
H330 H 0.90357 0.97163 0.33256 0.0
H331 H 0.95876 0.95754 0.36699 0.0
H332 H 0.92215 0.12703 0.43215 0.0
H333 H 0.89947 0.05014 0.40513 0.0
H334 H 0.92611 0.12246 0.4008 0.0
H335 H 0.89567 0.0561 0.43641 0.0
H336 H 0.9481 0.00425 0.43345 0.0
H337 H 0.98431 0.07267 0.4355 0.0
H338 H 0.83114 0.02943 0.33961 0.0
H339 H 0.82448 0.05388 0.39187 0.0
H340 H 0.99548 0.1023 0.36532 0.0
H341 H 0.98058 0.02832 0.37769 0.0
H342 H 0.03564 0.0966 0.37631 0.0
H343 H 0.02109 0.02375 0.38824 0.0
H344 H 0.91143 0.0829 0.31189 0.0
H345 H 0.88872 0.10301 0.36238 0.0
H346 H 0.8837 0.11272 0.29983 0.0
H347 H 0.86149 0.1324 0.34942 0.0
H348 H 0.94016 0.02236 0.29283 0.0
H349 H -0.00162 0.99678 0.32305 0.0
H350 H 0.97911 0.16025 0.38483 0.0
H351 H 0.9429 0.1735 0.33718 0.0
Li352 Li 0.93435 0.90961 0.88016 0.0
Li353 Li 0.94249 0.94776 0.89306 0.0
Li354 Li 0.90611 0.94155 0.8789 0.0
Li355 Li 0.94137 0.94456 0.86272 0.0
C356 C 0.90061 0.90949 0.90551 0.0
N357 N 0.86621 0.87899 0.91755 0.0
C358 C 0.89532 0.90885 0.92293 0.0
C359 C 0.88841 0.8946 0.89421 0.0
C360 C 0.87787 0.89331 0.92877 0.0
C361 C 0.87107 0.87931 0.90055 0.0
C362 C 0.98059 0.9177 0.88787 0.0
C363 C 0.02008 0.90328 0.89082 0.0
N364 N 0.01502 0.89532 0.90684 0.0
C365 C 0.97577 0.90938 0.90437 0.0
C366 C 0.00291 0.91463 0.88104 0.0
C367 C 0.99341 0.89812 0.91375 0.0
C368 C 0.9491 0.86663 0.86612 0.0
N369 N 0.94079 0.8761 0.88091 0.0
C370 C 0.94789 0.83909 0.89564 0.0
C371 C 0.93985 0.86288 0.89552 0.0
C372 C 0.95718 0.82898 0.88063 0.0
C373 C 0.95741 0.84301 0.86567 0.0
H374 H 0.95006 0.87781 0.8548 0.0
H375 H 0.93362 0.871 0.90721 0.0
C376 C 0.94119 0.96821 0.92518 0.0
N377 N 0.95595 0.96331 0.91207 0.0
C378 C 0.94965 0.97842 0.9402 0.0
C379 C 0.98832 0.97878 0.92778 0.0
C380 C 0.97907 0.96864 0.91294 0.0
C381 C 0.97355 0.98356 0.94171 0.0
H382 H 0.92288 0.96376 0.92403 0.0
H383 H 0.99037 0.96468 0.90225 0.0
C384 C 0.90419 0.92463 0.84527 0.0
N385 N 0.88021 0.93357 0.81532 0.0
C386 C 0.89612 0.94786 0.84163 0.0
C387 C 0.9001 0.90597 0.83367 0.0
C388 C 0.88402 0.95201 0.82642 0.0
C389 C 0.88793 0.91084 0.8186 0.0
C390 C 0.93935 0.99096 0.87566 0.0
C391 C 0.92795 0.01317 0.87682 0.0
C392 C 0.96353 0.99032 0.87331 0.0
C393 C 0.94094 0.03442 0.87562 0.0
C394 C 0.9759 0.01196 0.87219 0.0
N395 N 0.96445 0.03338 0.87336 0.0
C396 C 0.86975 0.97007 0.88986 0.0
C397 C 0.85692 0.93803 0.87215 0.0
C398 C 0.84702 0.97872 0.89141 0.0
N399 N 0.87425 0.95025 0.88024 0.0
C400 C 0.8339 0.94616 0.87325 0.0
C401 C 0.82873 0.9669 0.88288 0.0
H402 H 0.88392 0.97921 0.89629 0.0
H403 H 0.86099 0.92218 0.86468 0.0
C404 C 0.97039 0.93726 0.83539 0.0
N405 N 0.95463 0.9533 0.84155 0.0
C406 C 0.97896 0.93968 0.81885 0.0
C407 C 0.95544 0.9756 0.81545 0.0
C408 C 0.94741 0.97256 0.83218 0.0
C409 C 0.97095 0.95862 0.80846 0.0
H410 H 0.97562 0.92205 0.84315 0.0
H411 H 0.93469 0.98492 0.8374 0.0
O412 O 0.91761 0.92478 0.89971 0.0
O413 O 0.96362 0.92862 0.8783 0.0
O414 O 0.91633 0.92005 0.85997 0.0
O415 O 0.92671 0.97009 0.87687 0.0
H416 H 0.90462 0.92026 0.93185 0.0
H417 H 0.89224 0.89472 0.8807 0.0
H418 H 0.8736 0.89263 0.94222 0.0
H419 H 0.8615 0.8677 0.89195 0.0
H420 H 0.03744 0.90078 0.88568 0.0
H421 H 0.95864 0.91158 0.90992 0.0
H422 H 0.00692 0.92096 0.86828 0.0
H423 H 0.98992 0.89159 0.92652 0.0
H424 H 0.94714 0.82889 0.90742 0.0
H425 H 0.96478 0.8362 0.85389 0.0
H426 H 0.93772 0.98155 0.9507 0.0
H427 H 0.0068 0.98274 0.92838 0.0
H428 H 0.89916 0.96257 0.8504 0.0
H429 H 0.90631 0.8879 0.8363 0.0
H430 H 0.87768 0.9699 0.82344 0.0
H431 H 0.88464 0.89657 0.8095 0.0
H432 H 0.90923 0.01396 0.87863 0.0
H433 H 0.9727 0.97336 0.87234 0.0
H434 H 0.93234 0.05174 0.8765 0.0
H435 H 0.99462 0.01172 0.87038 0.0
H436 H 0.84383 0.99446 0.89925 0.0
H437 H 0.82042 0.93659 0.86633 0.0
H438 H 0.99123 0.92644 0.81408 0.0
H439 H 0.9487 0.99034 0.80784 0.0
Li440 Li 0.55979 0.08827 0.86913 0.0
Li441 Li 0.55043 0.05138 0.88634 0.0
Li442 Li 0.58814 0.05602 0.87344 0.0
Li443 Li 0.55534 0.04656 0.85617 0.0
C444 C 0.59168 0.08202 0.9012 0.0
N445 N 0.63022 0.09022 0.92152 0.0
C446 C 0.59643 0.06676 0.91497 0.0
C447 C 0.6064 0.10152 0.8978 0.0
C448 C 0.61604 0.07119 0.92509 0.0
C449 C 0.62583 0.10535 0.90822 0.0
C450 C 0.51001 0.06754 0.87532 0.0
C451 C 0.47464 0.04764 0.88429 0.0
N452 N 0.46699 0.06867 0.89125 0.0
C453 C 0.50172 0.089 0.88245 0.0
C454 C 0.4963 0.04672 0.87613 0.0
C455 C 0.47995 0.08919 0.89048 0.0
C456 C 0.54718 0.13049 0.85121 0.0
N457 N 0.55333 0.12154 0.86672 0.0
C458 C 0.54613 0.15957 0.87998 0.0
C459 C 0.55317 0.13552 0.88096 0.0
C460 C 0.53922 0.16933 0.86418 0.0
C461 C 0.54014 0.15451 0.84962 0.0
H462 H 0.54733 0.11882 0.84014 0.0
H463 H 0.55775 0.12774 0.89317 0.0
C464 C 0.53416 0.0179 0.91089 0.0
N465 N 0.53496 0.04158 0.90651 0.0
C466 C 0.52451 0.01091 0.92648 0.0
C467 C 0.51669 0.05285 0.93272 0.0
C468 C 0.52652 0.05901 0.91702 0.0
C469 C 0.51585 0.02852 0.93771 0.0
H470 H 0.54167 0.00449 0.90254 0.0
H471 H 0.5279 0.07775 0.91334 0.0
C472 C 0.59928 0.07759 0.84319 0.0
N473 N 0.63993 0.08914 0.82605 0.0
C474 C 0.61279 0.05944 0.83573 0.0
C475 C 0.60641 0.10163 0.8419 0.0
C476 C 0.63331 0.06564 0.82715 0.0
C477 C 0.62702 0.1071 0.83318 0.0
C478 C 0.56763 0.00418 0.86747 0.0
C479 C 0.58743 0.99363 0.86017 0.0
C480 C 0.54641 0.99177 0.86717 0.0
C481 C 0.58563 0.97084 0.85267 0.0
C482 C 0.54531 0.96905 0.85951 0.0
N483 N 0.56478 0.95914 0.85249 0.0
C484 C 0.62431 0.02831 0.88649 0.0
C485 C 0.63838 0.06361 0.87296 0.0
C486 C 0.647 0.02023 0.88931 0.0
N487 N 0.62039 0.04917 0.87784 0.0
C488 C 0.66142 0.05613 0.87536 0.0
C489 C 0.66594 0.03383 0.88326 0.0
H490 H 0.60973 0.01766 0.89094 0.0
H491 H 0.63496 0.08075 0.86694 0.0
C492 C 0.52172 0.03396 0.83157 0.0
N493 N 0.54439 0.03078 0.8361 0.0
C494 C 0.51335 0.0244 0.81627 0.0
C495 C 0.55163 0.00781 0.81083 0.0
C496 C 0.5593 0.01794 0.82612 0.0
C497 C 0.52847 0.01139 0.80553 0.0
H498 H 0.51031 0.04461 0.83955 0.0
H499 H 0.57729 0.01588 0.82984 0.0
O500 O 0.57295 0.0776 0.89089 0.0
O501 O 0.53148 0.06688 0.86768 0.0
O502 O 0.57901 0.07198 0.85149 0.0
O503 O 0.56899 0.02654 0.87483 0.0
H504 H 0.58521 0.05152 0.91769 0.0
H505 H 0.60301 0.11337 0.88708 0.0
H506 H 0.62003 0.05946 0.93574 0.0
H507 H 0.63747 0.12028 0.90569 0.0
H508 H 0.46392 0.03163 0.88509 0.0
H509 H 0.51203 0.10529 0.88191 0.0
H510 H 0.50236 0.03002 0.87057 0.0
H511 H 0.47338 0.10564 0.89613 0.0
H512 H 0.54532 0.1701 0.89161 0.0
H513 H 0.53528 0.1613 0.83715 0.0
H514 H 0.52465 0.99201 0.92996 0.0
H515 H 0.51008 0.06699 0.94094 0.0
H516 H 0.60777 0.04074 0.83686 0.0
H517 H 0.59622 0.11591 0.84763 0.0
H518 H 0.64402 0.05176 0.82143 0.0
H519 H 0.63277 0.12562 0.8321 0.0
H520 H 0.60392 0.00306 0.85997 0.0
H521 H 0.5309 -0.00036 0.87268 0.0
H522 H 0.60078 0.96254 0.8469 0.0
H523 H 0.52897 0.9593 0.85914 0.0
H524 H 0.64962 0.00336 0.896 0.0
H525 H 0.67544 0.06734 0.87058 0.0
H526 H 0.4955 0.0281 0.81259 0.0
H527 H 0.56386 0.99771 0.80309 0.0
Li528 Li 0.40368 0.05613 0.62211 0.0
Li529 Li 0.4407 0.0474 0.6376 0.0
Li530 Li 0.43339 0.08672 0.62194 0.0
Li531 Li 0.43928 0.05025 0.60649 0.0
C532 C 0.39721 0.0751 0.65199 0.0
N533 N 0.35655 0.0777 0.6709 0.0
C534 C 0.39107 0.05629 0.66301 0.0
C535 C 0.3827 0.09527 0.65065 0.0
C536 C 0.37044 0.05794 0.67245 0.0
C537 C 0.36222 0.09623 0.6603 0.0
C538 C 0.42061 0.00716 0.61134 0.0
C539 C 0.43314 0.96812 0.60133 0.0
N540 N 0.41613 0.9686 0.58922 0.0
C541 C 0.40324 0.00726 0.59879 0.0
C542 C 0.43569 0.98744 0.61262 0.0
C543 C 0.40125 0.98759 0.58775 0.0
C544 C 0.35491 0.06048 0.61416 0.0
N545 N 0.37147 0.04795 0.62285 0.0
C546 C 0.34332 0.01888 0.63188 0.0
C547 C 0.36613 0.02754 0.63162 0.0
C548 C 0.32584 0.03124 0.62288 0.0
C549 C 0.3318 0.05247 0.61408 0.0
H550 H 0.35969 0.07628 0.60691 0.0
H551 H 0.37974 0.01774 0.63821 0.0
C552 C 0.44998 0.04608 0.67222 0.0
N553 N 0.45386 0.03372 0.65752 0.0
C554 C 0.45782 0.03696 0.68775 0.0
C555 C 0.47478 0.00316 0.67268 0.0
C556 C 0.46617 0.01275 0.6574 0.0
C557 C 0.47025 0.01519 0.68809 0.0
H558 H 0.44062 0.06299 0.6719 0.0
H559 H 0.46937 0.00355 0.64547 0.0
C560 C 0.41081 0.09598 0.59393 0.0
N561 N 0.40343 0.13966 0.57776 0.0
C562 C 0.42297 0.10165 0.57896 0.0
C563 C 0.39487 0.11255 0.60063 0.0
C564 C 0.41898 0.12381 0.57098 0.0
C565 C 0.39141 0.13453 0.59229 0.0
C566 C 0.48327 0.06347 0.61527 0.0
C567 C 0.48833 0.07416 0.59952 0.0
C568 C 0.50051 0.05026 0.62375 0.0
C569 C 0.51053 0.07129 0.59245 0.0
C570 C 0.52252 0.04784 0.61627 0.0
N571 N 0.52703 0.0583 0.6009 0.0
C572 C 0.43609 0.13301 0.63762 0.0
C573 C 0.45339 0.13032 0.61022 0.0
C574 C 0.44328 0.15701 0.63917 0.0
N575 N 0.44116 0.12023 0.62326 0.0
C576 C 0.46078 0.1542 0.61117 0.0
C577 C 0.45587 0.16787 0.62582 0.0
H578 H 0.42691 0.12442 0.64804 0.0
H579 H 0.45782 0.11974 0.59916 0.0
C580 C 0.43747 0.03857 0.57194 0.0
N581 N 0.45092 0.03571 0.58609 0.0
C582 C 0.44446 0.02887 0.55636 0.0
C583 C 0.47864 0.01253 0.57027 0.0
C584 C 0.4708 0.02232 0.58567 0.0
C585 C 0.46547 0.01598 0.55535 0.0
H586 H 0.42122 0.04838 0.57277 0.0
H587 H 0.48063 0.01931 0.59726 0.0
O588 O 0.4171 0.07355 0.64234 0.0
O589 O 0.42327 0.02659 0.62194 0.0
O590 O 0.41461 0.07446 0.60206 0.0
O591 O 0.46166 0.06604 0.62247 0.0
H592 H 0.40187 0.04035 0.66402 0.0
H593 H 0.38716 0.11003 0.64225 0.0
H594 H 0.36541 0.04343 0.68093 0.0
H595 H 0.35081 0.11171 0.65935 0.0
H596 H 0.44475 0.95278 0.60214 0.0
H597 H 0.3917 0.02255 0.59736 0.0
H598 H 0.44936 0.98712 0.62212 0.0
H599 H 0.38798 0.98751 0.57792 0.0
H600 H 0.33946 0.0026 0.63898 0.0
H601 H 0.31892 0.06233 0.60676 0.0
H602 H 0.45448 0.04702 0.69936 0.0
H603 H 0.48455 0.98644 0.67251 0.0
H604 H 0.4357 0.08934 0.57371 0.0
H605 H 0.38547 0.10861 0.61225 0.0
H606 H 0.42838 0.12847 0.55946 0.0
H607 H 0.37921 0.14755 0.59741 0.0
H608 H 0.47507 0.08396 0.59259 0.0
H609 H 0.49694 0.04201 0.636 0.0
H610 H 0.51461 0.07926 0.58019 0.0
H611 H 0.53601 0.03763 0.62268 0.0
H612 H 0.43913 0.16691 0.6507 0.0
H613 H 0.47088 0.16163 0.60072 0.0
H614 H 0.43378 0.03189 0.54515 0.0
H615 H 0.49472 0.00227 0.57004 0.0
Li616 Li 0.04979 0.94393 0.63156 0.0
Li617 Li 0.08567 0.93957 0.61617 0.0
Li618 Li 0.05028 0.9478 0.60121 0.0
Li619 Li 0.05612 0.90906 0.61394 0.0
C620 C 0.0546 0.99049 0.61913 0.0
N621 N 0.03158 0.03417 0.62128 0.0
C622 C 0.0671 0.01207 0.61815 0.0
C623 C 0.03038 0.99112 0.62125 0.0
C624 C 0.05515 0.03398 0.61926 0.0
C625 C 0.01907 0.01338 0.6223 0.0
C626 C 0.08544 0.92208 0.64963 0.0
C627 C 0.10053 0.90698 0.67633 0.0
N628 N 0.10888 0.92933 0.68005 0.0
C629 C 0.09417 0.9449 0.65372 0.0
C630 C 0.08864 0.90296 0.66102 0.0
C631 C 0.10597 0.9482 0.66915 0.0
C632 C 0.01865 0.93819 0.65795 0.0
N633 N 0.03586 0.95307 0.65244 0.0
C634 C 0.03476 0.97523 0.67858 0.0
C635 C 0.04369 0.97172 0.66215 0.0
C636 C 0.01765 0.95942 0.68491 0.0
C637 C 0.00911 0.94116 0.67415 0.0
H638 H 0.01292 0.92346 0.64993 0.0
H639 H 0.05749 0.98323 0.65743 0.0
C640 C 0.12346 0.96784 0.60787 0.0
N641 N 0.11788 0.94706 0.61607 0.0
C642 C 0.14632 0.97633 0.60802 0.0
C643 C 0.15748 0.94145 0.62469 0.0
C644 C 0.13432 0.9336 0.62418 0.0
C645 C 0.16363 0.96329 0.61674 0.0
H646 H 0.10998 0.97801 0.6014 0.0
H647 H 0.12937 0.91709 0.63059 0.0
C648 C 0.01064 0.91952 0.60511 0.0
N649 N 0.97614 0.89954 0.58492 0.0
C650 C 0.01575 0.91194 0.58849 0.0
C651 C 0.98798 0.91697 0.61144 0.0
C652 C -0.00192 0.90188 0.57849 0.0
C653 C 0.97078 0.90682 0.60104 0.0
C654 C 0.09089 0.90757 0.58945 0.0
C655 C 0.09692 0.90675 0.57216 0.0
C656 C 0.10175 0.89189 0.60097 0.0
C657 C 0.11377 0.89028 0.56667 0.0
C658 C 0.11853 0.87569 0.59498 0.0
N659 N 0.12414 0.87522 0.5781 0.0
C660 C 0.05316 0.96803 0.5689 0.0
C661 C 0.01572 0.97214 0.58148 0.0
C662 C 0.04546 0.97923 0.554 0.0
N663 N 0.03824 0.96452 0.58214 0.0
C664 C 0.00728 0.98351 0.56683 0.0
C665 C 0.02217 0.98695 0.55276 0.0
H666 H 0.07098 0.96175 0.56986 0.0
H667 H 0.00423 0.96912 0.59222 0.0
C668 C 0.04269 0.86552 0.62803 0.0
N669 N 0.04879 0.87574 0.61291 0.0
C670 C 0.03453 0.84186 0.62855 0.0
C671 C 0.03942 0.83949 0.59792 0.0
C672 C 0.04763 0.86323 0.598 0.0
C673 C 0.03238 0.82862 0.61333 0.0
H674 H 0.04363 0.87603 0.63964 0.0
H675 H 0.05235 0.8719 0.58612 0.0
O676 O 0.0662 0.96897 0.61804 0.0
O677 O 0.07368 0.91831 0.63466 0.0
O678 O 0.02759 0.92942 0.61524 0.0
O679 O 0.07439 0.92367 0.59489 0.0
H680 H 0.08587 0.0119 0.61656 0.0
H681 H 0.02037 0.97466 0.6221 0.0
H682 H 0.06462 0.05082 0.6185 0.0
H683 H 0.00034 0.01413 0.62392 0.0
H684 H 0.10312 0.89233 0.68526 0.0
H685 H 0.0919 0.95994 0.64509 0.0
H686 H 0.08198 0.88518 0.65805 0.0
H687 H 0.11281 0.96576 0.67246 0.0
H688 H 0.04198 0.98941 0.68648 0.0
H689 H 0.99561 0.92886 0.67838 0.0
H690 H 0.15038 0.99299 0.60144 0.0
H691 H 0.17024 0.93091 0.63164 0.0
H692 H 0.03313 0.91379 0.58331 0.0
H693 H 0.98372 0.9228 0.62426 0.0
H694 H 0.0018 0.89593 0.56562 0.0
H695 H 0.95316 0.90474 0.60578 0.0
H696 H 0.08863 0.91872 0.56308 0.0
H697 H 0.09731 0.8921 0.61437 0.0
H698 H 0.11861 0.88946 0.55333 0.0
H699 H 0.12707 0.86347 0.60375 0.0
H700 H 0.05746 0.98117 0.5434 0.0
H701 H 0.98928 0.98945 0.5665 0.0
H702 H 0.02971 0.83412 0.64076 0.0
H703 H 0.03782 0.8301 0.58585 0.0
Li704 Li 0.55821 0.5882 0.12413 0.0
Li705 Li 0.55174 0.54763 0.13544 0.0
Li706 Li 0.58814 0.55783 0.12102 0.0
Li707 Li 0.55173 0.55379 0.10529 0.0
C708 C 0.57993 0.58913 0.15405 0.0
N709 N 0.58699 0.62621 0.17704 0.0
C710 C 0.56715 0.58996 0.16925 0.0
C711 C 0.59637 0.6071 0.15058 0.0
C712 C 0.57097 0.60887 0.18071 0.0
C713 C 0.59965 0.62572 0.16235 0.0
C714 C 0.5099 0.56934 0.11305 0.0
C715 C 0.47764 0.55033 0.09854 0.0
N716 N 0.47033 0.5723 0.09298 0.0
C717 C 0.50202 0.59174 0.10723 0.0
C718 C 0.49755 0.54846 0.10874 0.0
C719 C 0.48199 0.59286 0.09709 0.0
C720 C 0.55601 0.63684 0.11394 0.0
N721 N 0.55106 0.62143 0.12696 0.0
C722 C 0.53115 0.65256 0.14222 0.0
C723 C 0.53881 0.62874 0.1409 0.0
C724 C 0.53549 0.66866 0.12877 0.0
C725 C 0.54819 0.66067 0.11454 0.0
H726 H 0.56523 0.63037 0.1028 0.0
H727 H 0.53423 0.61587 0.15071 0.0
C728 C 0.55289 0.52566 0.16763 0.0
N729 N 0.53894 0.53003 0.15396 0.0
C730 C 0.54378 0.51477 0.18223 0.0
C731 C 0.50652 0.51156 0.16793 0.0
C732 C 0.51628 0.5229 0.15371 0.0
C733 C 0.52012 0.50802 0.18267 0.0
H734 H 0.5709 0.53149 0.1674 0.0
H735 H 0.50563 0.52648 0.14264 0.0
C736 C 0.59401 0.5837 0.09298 0.0
N737 N 0.63293 0.59066 0.07274 0.0
C738 C 0.59726 0.56979 0.07828 0.0
C739 C 0.61043 0.6013 0.09729 0.0
C740 C 0.61708 0.57355 0.06824 0.0
C741 C 0.63003 0.6045 0.08692 0.0
C742 C 0.56861 0.50675 0.12572 0.0
C743 C 0.58773 0.49974 0.13564 0.0
C744 C 0.54909 0.49171 0.12466 0.0
C745 C 0.587 0.47774 0.14433 0.0
C746 C 0.54903 0.46987 0.13356 0.0
N747 N 0.56782 0.4634 0.14313 0.0
C748 C 0.63535 0.55747 0.13248 0.0
C749 C 0.62742 0.53581 0.10703 0.0
C750 C 0.65843 0.54937 0.1324 0.0
N751 N 0.62042 0.55049 0.11995 0.0
C752 C 0.65034 0.52745 0.10637 0.0
C753 C 0.66609 0.53393 0.11931 0.0
H754 H 0.62918 0.56864 0.14284 0.0
H755 H 0.61494 0.52993 0.09756 0.0
C756 C 0.53184 0.56258 0.07323 0.0
N757 N 0.53893 0.54482 0.084 0.0
C758 C 0.52228 0.55678 0.05738 0.0
C759 C 0.52786 0.51454 0.06397 0.0
C760 C 0.53733 0.52117 0.07968 0.0
C761 C 0.52017 0.53247 0.0526 0.0
H762 H 0.53357 0.58125 0.07701 0.0
H763 H 0.54357 0.50749 0.08837 0.0
O764 O 0.57634 0.57087 0.1426 0.0
O765 O 0.52969 0.56784 0.12278 0.0
O766 O 0.57492 0.58004 0.10313 0.0
O767 O 0.56873 0.52853 0.11749 0.0
H768 H 0.5542 0.57636 0.17209 0.0
H769 H 0.60638 0.60674 0.13888 0.0
H770 H 0.56113 0.6098 0.19248 0.0
H771 H 0.61224 0.63979 0.15979 0.0
H772 H 0.46807 0.5343 0.09497 0.0
H773 H 0.51129 0.6081 0.11041 0.0
H774 H 0.50359 0.53093 0.11286 0.0
H775 H 0.47574 0.61007 0.09246 0.0
H776 H 0.52104 0.65806 0.15324 0.0
H777 H 0.5517 0.67264 0.10391 0.0
H778 H 0.55493 0.51281 0.1933 0.0
H779 H 0.48836 0.50624 0.1675 0.0
H780 H 0.58477 0.55603 0.07478 0.0
H781 H 0.60807 0.61235 0.10854 0.0
H782 H 0.6199 0.56281 0.05689 0.0
H783 H 0.64293 0.61798 0.09015 0.0
H784 H 0.60286 0.51125 0.1368 0.0
H785 H 0.53397 0.49702 0.1173 0.0
H786 H 0.60163 0.47213 0.15209 0.0
H787 H 0.53398 0.45812 0.13294 0.0
H788 H 0.67006 0.55483 0.14259 0.0
H789 H 0.6554 0.51523 0.09623 0.0
H790 H 0.51641 0.57113 0.04904 0.0
H791 H 0.52696 0.49561 0.06064 0.0
Li792 Li 0.93898 0.41644 0.13261 0.0
Li793 Li 0.9406 0.45554 0.14426 0.0
Li794 Li 0.90515 0.44255 0.1278 0.0
Li795 Li 0.94384 0.4504 0.11392 0.0
C796 C 0.91024 0.40984 0.1585 0.0
N797 N 0.89624 0.36885 0.17578 0.0
C798 C 0.92469 0.39956 0.17091 0.0
C799 C 0.88859 0.39934 0.15496 0.0
C800 C 0.91733 0.37881 0.17947 0.0
C801 C 0.88184 0.37862 0.16383 0.0
C802 C 0.98395 0.44637 0.14142 0.0
C803 C 0.01601 0.47349 0.14696 0.0
N804 N 0.01969 0.46244 0.16224 0.0
C805 C 0.98813 0.43525 0.15716 0.0
C806 C -0.00199 0.46566 0.13627 0.0
C807 C 0.00624 0.44365 0.16751 0.0
C808 C 0.9718 0.37923 0.13645 0.0
N809 N 0.94849 0.38341 0.13525 0.0
C810 C 0.94067 0.34105 0.13643 0.0
C811 C 0.93292 0.36487 0.13512 0.0
C812 C 0.96466 0.33631 0.13793 0.0
C813 C 0.98029 0.35577 0.13796 0.0
H814 H 0.98394 0.39408 0.13591 0.0
H815 H 0.91451 0.36852 0.13377 0.0
C816 C 0.96203 0.49464 0.16287 0.0
N817 N 0.94875 0.47434 0.16377 0.0
C818 C 0.96857 0.5067 0.17781 0.0
C819 C 0.94642 0.47758 0.1941 0.0
C820 C 0.94058 0.466 0.17895 0.0
C821 C 0.96085 0.49803 0.19369 0.0
H822 H 0.96797 0.5012 0.15064 0.0
H823 H 0.92977 0.45009 0.17933 0.0
C824 C 0.92365 0.40236 0.10182 0.0
N825 N 0.92795 0.35928 0.08444 0.0
C826 C 0.94502 0.39588 0.09455 0.0
C827 C 0.90442 0.38706 0.10016 0.0
C828 C 0.94686 0.37398 0.08584 0.0
C829 C 0.90696 0.36532 0.09134 0.0
C830 C 0.92326 0.4933 0.11633 0.0
C831 C 0.90301 0.50006 0.10761 0.0
C832 C 0.94365 0.50683 0.11431 0.0
C833 C 0.90356 0.52017 0.09686 0.0
C834 C 0.94351 0.52679 0.10342 0.0
N835 N 0.92364 0.53299 0.095 0.0
C836 C 0.86258 0.45798 0.13984 0.0
C837 C 0.86054 0.44277 0.11156 0.0
C838 C 0.8392 0.46478 0.13927 0.0
N839 N 0.87272 0.44738 0.12609 0.0
C840 C 0.83703 0.44931 0.11043 0.0
C841 C 0.82614 0.46074 0.12436 0.0
H842 H 0.87292 0.46174 0.15109 0.0
H843 H 0.86925 0.43464 0.10074 0.0
C844 C 0.97985 0.45839 0.08964 0.0
N845 N 0.95657 0.46018 0.09266 0.0
C846 C 0.98886 0.46409 0.07357 0.0
C847 C 0.94965 0.47272 0.06393 0.0
C848 C 0.94144 0.46689 0.08018 0.0
C849 C 0.97366 0.47127 0.06044 0.0
H850 H 0.99136 0.45186 0.09954 0.0
H851 H 0.92292 0.46734 0.08278 0.0
O852 O 0.91717 0.43013 0.14992 0.0
O853 O 0.96599 0.43863 0.13127 0.0
O854 O 0.92166 0.42343 0.11073 0.0
O855 O 0.92314 0.47348 0.12673 0.0
H856 H 0.94147 0.40744 0.17385 0.0
H857 H 0.87721 0.40692 0.14535 0.0
H858 H 0.9284 0.3706 0.18904 0.0
H859 H 0.86519 0.37025 0.16116 0.0
H860 H 0.02692 0.48848 0.14317 0.0
H861 H 0.97737 0.42042 0.16142 0.0
H862 H 0.99484 0.47484 0.12432 0.0
H863 H 0.00956 0.43528 0.17975 0.0
H864 H 0.92805 0.32651 0.13631 0.0
H865 H -0.00105 0.35286 0.13869 0.0
H866 H 0.97962 0.5225 0.17697 0.0
H867 H 0.94035 0.47007 0.20608 0.0
H868 H 0.9601 0.40749 0.09583 0.0
H869 H 0.8878 0.3918 0.10582 0.0
H870 H 0.96332 0.36864 0.08025 0.0
H871 H 0.89227 0.35322 0.09003 0.0
H872 H 0.88706 0.48983 0.10905 0.0
H873 H 0.95952 0.50171 0.12083 0.0
H874 H 0.88805 0.52556 0.08999 0.0
H875 H 0.95921 0.53731 0.10163 0.0
H876 H 0.83171 0.47393 0.15019 0.0
H877 H 0.82756 0.4457 0.09873 0.0
H878 H 0.00741 0.4622 0.07131 0.0
H879 H 0.93734 0.47824 0.05419 0.0
Li880 Li 0.05518 0.45044 0.38399 0.0
Li881 Li 0.09157 0.44571 0.36739 0.0
Li882 Li 0.056 0.45828 0.35433 0.0
Li883 Li 0.05882 0.41617 0.36434 0.0
C884 C 0.07416 0.49782 0.36519 0.0
N885 N 0.07407 0.54246 0.34951 0.0
C886 C 0.09126 0.50355 0.35312 0.0
C887 C 0.05708 0.51482 0.36935 0.0
C888 C 0.09089 0.52621 0.34532 0.0
C889 C 0.05732 0.53729 0.36127 0.0
C890 C 0.08904 0.41459 0.39838 0.0
C891 C 0.10665 0.38136 0.41353 0.0
N892 N 0.11156 0.39635 0.4268 0.0
C893 C 0.09418 0.42963 0.41219 0.0
C894 C 0.09523 0.39022 0.39907 0.0
C895 C 0.10561 0.42008 0.42643 0.0
C896 C 0.0328 0.43951 0.41475 0.0
N897 N 0.04357 0.45755 0.40605 0.0
C898 C 0.03943 0.48422 0.42975 0.0
C899 C 0.04709 0.47959 0.41315 0.0
C900 C 0.02808 0.46597 0.43903 0.0
C901 C 0.02469 0.4434 0.43131 0.0
H902 H 0.03072 0.42201 0.40884 0.0
H903 H 0.05613 0.49342 0.40603 0.0
C904 C 0.13719 0.45093 0.3533 0.0
N905 N 0.1244 0.45118 0.36794 0.0
C906 C 0.16046 0.45837 0.35344 0.0
C907 C 0.15702 0.46619 0.38369 0.0
C908 C 0.13384 0.45858 0.38297 0.0
C909 C 0.17054 0.46652 0.36873 0.0
H910 H 0.12911 0.44608 0.34133 0.0
H911 H 0.12312 0.45959 0.39426 0.0
C912 C 0.01154 0.44092 0.37495 0.0
N913 N 0.96997 0.44461 0.39268 0.0
C914 C -0.00191 0.42037 0.3781 0.0
C915 C 0.00366 0.4634 0.38062 0.0
C916 C 0.97716 0.4226 0.38713 0.0
C917 C 0.98267 0.46488 0.38963 0.0
C918 C 0.09201 0.4154 0.33874 0.0
C919 C 0.09325 0.41306 0.32099 0.0
C920 C 0.10519 0.40005 0.34912 0.0
C921 C 0.1077 0.3954 0.31391 0.0
C922 C 0.11942 0.38262 0.34155 0.0
N923 N 0.12037 0.38067 0.32425 0.0
C924 C 0.05704 0.47743 0.32145 0.0
C925 C 0.02412 0.49001 0.33744 0.0
C926 C 0.04872 0.48927 0.30698 0.0
N927 N 0.04445 0.47754 0.33614 0.0
C928 C 0.01524 0.50235 0.32332 0.0
C929 C 0.02726 0.50153 0.30766 0.0
H930 H 0.07327 0.46752 0.32085 0.0
H931 H 0.01454 0.48998 0.34931 0.0
C932 C 0.04234 0.37253 0.37639 0.0
N933 N 0.04991 0.38344 0.36189 0.0
C934 C 0.03383 0.34901 0.3759 0.0
C935 C 0.0418 0.348 0.34558 0.0
C936 C 0.0498 0.37177 0.34663 0.0
C937 C 0.03341 0.33633 0.36034 0.0
H938 H 0.04232 0.38244 0.38829 0.0
H939 H 0.05562 0.38096 0.33522 0.0
O940 O 0.07388 0.47548 0.37261 0.0
O941 O 0.07743 0.42341 0.38443 0.0
O942 O 0.03222 0.43903 0.3663 0.0
O943 O 0.07771 0.43249 0.3458 0.0
H944 H 0.10447 0.49055 0.34963 0.0
H945 H 0.04365 0.51068 0.3786 0.0
H946 H 0.10394 0.53084 0.33588 0.0
H947 H 0.04414 0.55058 0.3643 0.0
H948 H 0.11157 0.36255 0.41422 0.0
H949 H 0.08951 0.44852 0.41192 0.0
H950 H 0.09126 0.37826 0.38855 0.0
H951 H 0.10974 0.43155 0.43719 0.0
H952 H 0.04227 0.50191 0.43524 0.0
H953 H 0.01631 0.42877 0.43812 0.0
H954 H 0.17007 0.45883 0.34153 0.0
H955 H 0.16411 0.47225 0.39577 0.0
H956 H 0.00367 0.40289 0.37357 0.0
H957 H 0.01392 0.47945 0.37845 0.0
H958 H 0.96663 0.40682 0.3897 0.0
H959 H 0.97653 0.48212 0.39426 0.0
H960 H 0.08308 0.4247 0.31276 0.0
H961 H 0.10459 0.40163 0.36284 0.0
H962 H 0.10881 0.39338 0.30019 0.0
H963 H 0.12973 0.37066 0.34944 0.0
H964 H 0.0585 0.48777 0.29519 0.0
H965 H -0.00115 0.51189 0.32455 0.0
H966 H 0.02708 0.34116 0.38756 0.0
H967 H 0.04215 0.33896 0.33334 0.0
Li968 Li 0.44552 0.55119 0.38263 0.0
Li969 Li 0.40995 0.55918 0.36628 0.0
Li970 Li 0.44611 0.54759 0.3515 0.0
Li971 Li 0.44278 0.58661 0.36468 0.0
C972 C 0.42193 0.50565 0.371 0.0
N973 N 0.40956 0.45818 0.37689 0.0
C974 C 0.40216 0.50021 0.38074 0.0
C975 C 0.4353 0.4869 0.36416 0.0
C976 C 0.39623 0.47612 0.3836 0.0
C977 C 0.4288 0.46304 0.36731 0.0
C978 C 0.40983 0.59796 0.38931 0.0
C979 C 0.38119 0.62791 0.38158 0.0
N980 N 0.38235 0.63717 0.39764 0.0
C981 C 0.41075 0.60777 0.40573 0.0
C982 C 0.39495 0.60809 0.37712 0.0
C983 C 0.39672 0.62759 0.4097 0.0
C984 C 0.4762 0.55055 0.41036 0.0
N985 N 0.45705 0.53956 0.40372 0.0
C986 C 0.45402 0.51388 0.42809 0.0
C987 C 0.44585 0.52162 0.41223 0.0
C988 C 0.47377 0.52488 0.43529 0.0
C989 C 0.48496 0.54341 0.4262 0.0
H990 H 0.48455 0.56502 0.40339 0.0
H991 H 0.43035 0.51362 0.4069 0.0
C992 C 0.36827 0.54538 0.35106 0.0
N993 N 0.37745 0.55366 0.36593 0.0
C994 C 0.34517 0.53754 0.35045 0.0
C995 C 0.34125 0.54758 0.38039 0.0
C996 C 0.36445 0.55525 0.3804 0.0
C997 C 0.33148 0.53811 0.36535 0.0
H998 H 0.3792 0.54411 0.33982 0.0
H999 H 0.3724 0.56142 0.39214 0.0
C1000 C 0.48981 0.55095 0.36702 0.0
N1001 N 0.53088 0.52487 0.36791 0.0
C1002 C 0.51105 0.56221 0.36335 0.0
C1003 C 0.48948 0.52645 0.37117 0.0
C1004 C 0.53162 0.5487 0.36386 0.0
C1005 C 0.51041 0.51357 0.37156 0.0
C1006 C 0.43047 0.58417 0.33031 0.0
C1007 C 0.45394 0.58964 0.32736 0.0
C1008 C 0.41392 0.58897 0.31766 0.0
C1009 C 0.46046 0.59984 0.31175 0.0
C1010 C 0.42113 0.5992 0.30223 0.0
N1011 N 0.44406 0.60437 0.29961 0.0
C1012 C 0.44036 0.51611 0.32426 0.0
C1013 C 0.47838 0.53282 0.32581 0.0
C1014 C 0.44576 0.50469 0.30889 0.0
N1015 N 0.45653 0.53001 0.33225 0.0
C1016 C 0.48457 0.52167 0.31051 0.0
C1017 C 0.46799 0.50778 0.30168 0.0
H1018 H 0.42301 0.51452 0.3296 0.0
H1019 H 0.4907 0.54455 0.33209 0.0
C1020 C 0.47408 0.6241 0.3695 0.0
N1021 N 0.45252 0.61925 0.36322 0.0
C1022 C 0.48306 0.64742 0.36878 0.0
C1023 C 0.44723 0.66057 0.35543 0.0
C1024 C 0.43909 0.63682 0.35614 0.0
C1025 C 0.46955 0.66618 0.36181 0.0
H1026 H 0.48437 0.60974 0.37503 0.0
H1027 H 0.42208 0.63242 0.35106 0.0
O1028 O 0.4278 0.52916 0.36778 0.0
O1029 O 0.42361 0.57865 0.38527 0.0
O1030 O 0.46954 0.56398 0.36642 0.0
O1031 O 0.42359 0.57398 0.34541 0.0
H1032 H 0.39169 0.51442 0.38624 0.0
H1033 H 0.45054 0.49068 0.35645 0.0
H1034 H 0.38104 0.47168 0.39119 0.0
H1035 H 0.43902 0.44837 0.36211 0.0
H1036 H 0.36962 0.63594 0.37227 0.0
H1037 H 0.42223 0.60014 0.4153 0.0
H1038 H 0.39407 0.60084 0.36432 0.0
H1039 H 0.39725 0.63538 0.42236 0.0
H1040 H 0.44461 0.49985 0.43482 0.0
H1041 H 0.50033 0.55225 0.43124 0.0
H1042 H 0.33824 0.5307 0.33853 0.0
H1043 H 0.33145 0.54803 0.39221 0.0
H1044 H 0.51162 0.58114 0.36002 0.0
H1045 H 0.47328 0.5175 0.37419 0.0
H1046 H 0.54818 0.55717 0.361 0.0
H1047 H 0.51039 0.4946 0.37478 0.0
H1048 H 0.46703 0.58605 0.33696 0.0
H1049 H 0.39568 0.5848 0.31976 0.0
H1050 H 0.47856 0.60414 0.30929 0.0
H1051 H 0.4085 0.60301 0.29232 0.0
H1052 H 0.4325 0.49412 0.30248 0.0
H1053 H 0.50172 0.525 0.3052 0.0
H1054 H 0.50055 0.65056 0.3735 0.0
H1055 H 0.43599 0.67436 0.35013 0.0
Li1056 Li 0.44002 0.44874 0.88502 0.0
Li1057 Li 0.43751 0.41269 0.86832 0.0
Li1058 Li 0.44049 0.45149 0.85455 0.0
Li1059 Li 0.40523 0.44033 0.86903 0.0
C1060 C 0.48215 0.42549 0.87808 0.0
N1061 N 0.51873 0.4046 0.89569 0.0
C1062 C 0.4783 0.41475 0.894 0.0
C1063 C 0.50461 0.42564 0.87115 0.0
C1064 C 0.49701 0.40428 0.90269 0.0
C1065 C 0.52288 0.41497 0.88024 0.0
C1066 C 0.40309 0.40313 0.89229 0.0
C1067 C 0.37772 0.37068 0.88358 0.0
N1068 N 0.37292 0.36591 0.90025 0.0
C1069 C 0.39791 0.39791 0.90933 0.0
C1070 C 0.39293 0.38941 0.87928 0.0
C1071 C 0.38262 0.37902 0.9131 0.0
C1072 C 0.43466 0.46299 0.91866 0.0
N1073 N 0.45038 0.46257 0.90569 0.0
C1074 C 0.47936 0.48089 0.9233 0.0
C1075 C 0.47233 0.47145 0.90761 0.0
C1076 C 0.46361 0.48117 0.93706 0.0
C1077 C 0.44093 0.47225 0.93455 0.0
H1078 H 0.41727 0.45597 0.91664 0.0
H1079 H 0.48446 0.47091 0.89704 0.0
C1080 C 0.45406 0.37144 0.85134 0.0
N1081 N 0.44748 0.38003 0.86687 0.0
C1082 C 0.46355 0.34832 0.84987 0.0
C1083 C 0.45911 0.34332 0.88038 0.0
C1084 C 0.44954 0.36642 0.88124 0.0
C1085 C 0.4665 0.3341 0.86457 0.0
H1086 H 0.45245 0.3828 0.84017 0.0
H1087 H 0.44429 0.37369 0.89345 0.0
C1088 C 0.43115 0.49406 0.87205 0.0
N1089 N 0.44928 0.54002 0.87508 0.0
C1090 C 0.41634 0.51364 0.87498 0.0
C1091 C 0.45519 0.49786 0.87063 0.0
C1092 C 0.42584 0.53674 0.87648 0.0
C1093 C 0.46402 0.52123 0.87221 0.0
C1094 C 0.40709 0.43006 0.83399 0.0
C1095 C 0.396 0.4524 0.83232 0.0
C1096 C 0.40604 0.41346 0.8206 0.0
C1097 C 0.38403 0.45774 0.81724 0.0
C1098 C 0.39389 0.41947 0.80572 0.0
N1099 N 0.38324 0.44131 0.80436 0.0
C1100 C 0.47191 0.45755 0.82781 0.0
C1101 C 0.44241 0.48754 0.82866 0.0
C1102 C 0.48086 0.46723 0.81274 0.0
N1103 N 0.45288 0.46761 0.83528 0.0
C1104 C 0.45064 0.49768 0.8135 0.0
C1105 C 0.46991 0.48728 0.80524 0.0
H1106 H 0.47969 0.44158 0.83332 0.0
H1107 H 0.42731 0.4952 0.8349 0.0
C1108 C 0.3658 0.46248 0.88101 0.0
N1109 N 0.37252 0.44498 0.86993 0.0
C1110 C 0.34254 0.46959 0.88187 0.0
C1111 C 0.33332 0.43999 0.86021 0.0
C1112 C 0.35685 0.43333 0.85985 0.0
C1113 C 0.326 0.45858 0.87119 0.0
H1114 H 0.37873 0.47136 0.88887 0.0
H1115 H 0.36268 0.41934 0.85122 0.0
O1116 O 0.46415 0.43583 0.86922 0.0
O1117 O 0.4181 0.42157 0.88852 0.0
O1118 O 0.42198 0.47137 0.87059 0.0
O1119 O 0.41911 0.42438 0.84855 0.0
H1120 H 0.46108 0.41449 0.89962 0.0
H1121 H 0.5079 0.43391 0.85885 0.0
H1122 H 0.49426 0.39589 0.91501 0.0
H1123 H 0.54036 0.41495 0.87501 0.0
H1124 H 0.36975 0.35992 0.87364 0.0
H1125 H 0.40567 0.40834 0.91955 0.0
H1126 H 0.39674 0.39305 0.86602 0.0
H1127 H 0.37847 0.37478 0.92625 0.0
H1128 H 0.49708 0.48736 0.92475 0.0
H1129 H 0.42815 0.47246 0.94475 0.0
H1130 H 0.46922 0.34196 0.83746 0.0
H1131 H 0.46084 0.33283 0.89199 0.0
H1132 H 0.39768 0.511 0.87606 0.0
H1133 H 0.46695 0.48298 0.86831 0.0
H1134 H 0.41458 0.55206 0.87875 0.0
H1135 H 0.48258 0.52442 0.87115 0.0
H1136 H 0.39657 0.46548 0.84253 0.0
H1137 H 0.41455 0.39609 0.82169 0.0
H1138 H 0.37538 0.47495 0.81578 0.0
H1139 H 0.39295 0.40679 0.79525 0.0
H1140 H 0.49552 0.45845 0.80662 0.0
H1141 H 0.4418 0.51319 0.80813 0.0
H1142 H 0.33773 0.48417 0.89037 0.0
H1143 H 0.32105 0.43089 0.8519 0.0
Li1144 Li 0.0549 0.54742 0.89128 0.0
Li1145 Li 0.05863 0.58615 0.8768 0.0
Li1146 Li 0.05046 0.54927 0.86077 0.0
Li1147 Li 0.08861 0.55635 0.87345 0.0
C1148 C 0.00914 0.56423 0.87154 0.0
N1149 N 0.9657 0.56231 0.85629 0.0
C1150 C -0.00104 0.58519 0.86497 0.0
C1151 C 0.99715 0.54233 0.87045 0.0
C1152 C 0.97699 0.58383 0.8573 0.0
C1153 C 0.97524 0.54172 0.86266 0.0
C1154 C 0.08224 0.59165 0.90521 0.0
C1155 C 0.09927 0.63056 0.91099 0.0
N1156 N 0.08684 0.63184 0.92577 0.0
C1157 C 0.0697 0.59329 0.92048 0.0
C1158 C 0.09723 0.61036 0.90044 0.0
C1159 C 0.07226 0.61378 0.93069 0.0
C1160 C 0.06194 0.52629 0.92341 0.0
N1161 N 0.04528 0.53265 0.91191 0.0
C1162 C 0.01506 0.52119 0.93125 0.0
C1163 C 0.0222 0.53019 0.91545 0.0
C1164 C 0.03185 0.51479 0.94352 0.0
C1165 C 0.05559 0.51716 0.93935 0.0
H1166 H 0.08016 0.52885 0.92031 0.0
H1167 H 0.00934 0.53587 0.90621 0.0
C1168 C 0.05688 0.63513 0.86613 0.0
N1169 N 0.05062 0.61924 0.87852 0.0
C1170 C 0.04873 0.65887 0.86666 0.0
C1171 C 0.02833 0.64945 0.89287 0.0
C1172 C 0.03667 0.62589 0.89174 0.0
C1173 C 0.03408 0.66619 0.88009 0.0
H1174 H 0.06765 0.62921 0.8556 0.0
H1175 H 0.03142 0.61264 0.90113 0.0
C1176 C 0.07061 0.50511 0.88218 0.0
N1177 N 0.0721 0.46258 0.90053 0.0
C1178 C 0.09097 0.49846 0.89081 0.0
C1179 C 0.05107 0.49007 0.88279 0.0
C1180 C 0.09137 0.47689 0.90003 0.0
C1181 C 0.05215 0.46867 0.89217 0.0
C1182 C 0.09064 0.5779 0.8439 0.0
C1183 C 0.0921 0.56255 0.82978 0.0
C1184 C 0.10797 0.5952 0.84661 0.0
C1185 C 0.11105 0.56467 0.81865 0.0
C1186 C 0.12666 0.59672 0.83519 0.0
N1187 N 0.1278 0.58155 0.82157 0.0
C1188 C 0.02392 0.55305 0.831 0.0
C1189 C 0.0382 0.51362 0.83636 0.0
C1190 C 0.01424 0.54562 0.81556 0.0
N1191 N 0.03548 0.53705 0.84105 0.0
C1192 C 0.0292 0.5055 0.82081 0.0
C1193 C 0.01712 0.52166 0.81022 0.0
H1194 H 0.02283 0.57177 0.83475 0.0
H1195 H 0.048 0.50146 0.84443 0.0
C1196 C 0.13714 0.55914 0.88094 0.0
N1197 N 0.12068 0.54926 0.87061 0.0
C1198 C 0.16023 0.55117 0.88006 0.0
C1199 C 0.14897 0.52346 0.85768 0.0
C1200 C 0.12615 0.53193 0.85901 0.0
C1201 C 0.16629 0.53278 0.86852 0.0
H1202 H 0.1322 0.5726 0.89023 0.0
H1203 H 0.11253 0.52404 0.85125 0.0
O1204 O 0.03075 0.56512 0.87893 0.0
O1205 O 0.07971 0.57192 0.89489 0.0
O1206 O 0.06971 0.52638 0.87337 0.0
O1207 O 0.07249 0.5758 0.85514 0.0
H1208 H 0.00799 0.60228 0.86563 0.0
H1209 H 0.00481 0.52593 0.8754 0.0
H1210 H 0.96896 0.59988 0.85209 0.0
H1211 H 0.96584 0.52487 0.86163 0.0
H1212 H 0.1107 0.64524 0.90741 0.0
H1213 H 0.05792 0.57906 0.92432 0.0
H1214 H 0.10699 0.60941 0.88864 0.0
H1215 H 0.06258 0.61535 0.9425 0.0
H1216 H 0.99658 0.52007 0.93402 0.0
H1217 H 0.06912 0.51225 0.94835 0.0
H1218 H 0.05361 0.67128 0.85659 0.0
H1219 H 0.01675 0.65424 0.90327 0.0
H1220 H 0.10621 0.50996 0.8906 0.0
H1221 H 0.03518 0.49497 0.87618 0.0
H1222 H 0.10696 0.47157 0.90685 0.0
H1223 H 0.03711 0.45691 0.89282 0.0
H1224 H 0.07889 0.54901 0.82752 0.0
H1225 H 0.1071 0.6072 0.85748 0.0
H1226 H 0.11248 0.55284 0.80772 0.0
H1227 H 0.14026 0.60994 0.83718 0.0
H1228 H 0.00548 0.55871 0.80754 0.0
H1229 H 0.03188 0.48693 0.81698 0.0
H1230 H 0.17309 0.55899 0.88855 0.0
H1231 H 0.15276 0.50901 0.8488 0.0
Li1232 Li 0.90629 0.55211 0.62002 0.0
Li1233 Li 0.94365 0.54372 0.63611 0.0
Li1234 Li 0.93832 0.58182 0.618 0.0
Li1235 Li 0.94115 0.54279 0.60562 0.0
C1236 C 0.90924 0.58077 0.65222 0.0
N1237 N 0.88578 0.60013 0.67987 0.0
C1238 C 0.90517 0.56679 0.66678 0.0
C1239 C 0.90163 0.60472 0.65183 0.0
C1240 C 0.8932 0.57686 0.68059 0.0
C1241 C 0.88973 0.61415 0.66591 0.0
C1242 C 0.92733 0.50003 0.61477 0.0
C1243 C 0.94897 0.46305 0.61149 0.0
N1244 N 0.93415 0.4562 0.59881 0.0
C1245 C 0.91221 0.49258 0.6018 0.0
C1246 C 0.9458 0.48515 0.61973 0.0
C1247 C 0.916 0.47037 0.59385 0.0
C1248 C 0.86271 0.54205 0.60546 0.0
N1249 N 0.87365 0.54605 0.6206 0.0
C1250 C 0.83912 0.53567 0.63602 0.0
C1251 C 0.86237 0.54314 0.63572 0.0
C1252 C 0.82749 0.53081 0.6206 0.0
C1253 C 0.8395 0.53445 0.60516 0.0
H1254 H 0.87229 0.54392 0.59363 0.0
H1255 H 0.87157 0.54581 0.64757 0.0
C1256 C 0.97469 0.54248 0.66386 0.0
N1257 N 0.956 0.53144 0.65662 0.0
C1258 C 0.98245 0.5353 0.67998 0.0
C1259 C 0.95183 0.50527 0.68064 0.0
C1260 C 0.94486 0.51282 0.66442 0.0
C1261 C 0.97061 0.51685 0.68871 0.0
H1262 H 0.98305 0.55736 0.65735 0.0
H1263 H 0.92996 0.50451 0.65832 0.0
C1264 C 0.90383 0.586 0.5936 0.0
N1265 N 0.87409 0.62186 0.58229 0.0
C1266 C 0.90364 0.59265 0.57637 0.0
C1267 C 0.88885 0.59755 0.60504 0.0
C1268 C 0.8885 0.61084 0.57091 0.0
C1269 C 0.87394 0.61563 0.5991 0.0
C1270 C 0.9854 0.55875 0.61073 0.0
C1271 C 0.98705 0.57104 0.59519 0.0
C1272 C 0.00456 0.5458 0.61687 0.0
C1273 C 0.00786 0.56995 0.58592 0.0
C1274 C 0.02508 0.54518 0.60724 0.0
N1275 N 0.02628 0.55715 0.59209 0.0
C1276 C 0.95347 0.62608 0.63151 0.0
C1277 C 0.94919 0.62584 0.6014 0.0
C1278 C 0.96178 0.64974 0.63107 0.0
N1279 N 0.94734 0.61471 0.61681 0.0
C1280 C 0.95755 0.64944 0.60034 0.0
C1281 C 0.9641 0.66165 0.61531 0.0
H1282 H 0.9523 0.61658 0.64355 0.0
H1283 H 0.94465 0.61625 0.58986 0.0
C1284 C 0.94011 0.52963 0.57135 0.0
N1285 N 0.9526 0.52639 0.58592 0.0
C1286 C 0.94769 0.51953 0.55605 0.0
C1287 C 0.98059 0.50233 0.57106 0.0
C1288 C 0.97222 0.51259 0.58615 0.0
C1289 C 0.96838 0.506 0.55573 0.0
H1290 H 0.92436 0.54032 0.5716 0.0
H1291 H 0.98151 0.50976 0.59798 0.0
O1292 O 0.92137 0.57133 0.6387 0.0
O1293 O 0.92422 0.52192 0.62245 0.0
O1294 O 0.91882 0.56839 0.59909 0.0
O1295 O 0.96513 0.55937 0.6199 0.0
H1296 H 0.91089 0.54826 0.66735 0.0
H1297 H 0.90493 0.61601 0.64082 0.0
H1298 H 0.8898 0.56617 0.69188 0.0
H1299 H 0.8837 0.63263 0.66574 0.0
H1300 H 0.96327 0.4514 0.61511 0.0
H1301 H 0.89788 0.50395 0.59779 0.0
H1302 H 0.95771 0.49075 0.62969 0.0
H1303 H 0.90455 0.46443 0.58371 0.0
H1304 H 0.8305 0.53336 0.64822 0.0
H1305 H 0.83141 0.53054 0.59297 0.0
H1306 H 0.99682 0.54486 0.68589 0.0
H1307 H 0.94235 0.49091 0.68695 0.0
H1308 H 0.91522 0.584 0.56733 0.0
H1309 H 0.88853 0.59248 0.61833 0.0
H1310 H 0.88824 0.61621 0.55763 0.0
H1311 H 0.86224 0.62467 0.60784 0.0
H1312 H 0.97229 0.58095 0.59021 0.0
H1313 H 0.00351 0.53618 0.62889 0.0
H1314 H 0.00934 0.57921 0.57381 0.0
H1315 H 0.04003 0.53515 0.61178 0.0
H1316 H 0.96696 0.65837 0.64289 0.0
H1317 H 0.95893 0.658 0.58795 0.0
H1318 H 0.93784 0.52291 0.54448 0.0
H1319 H 0.99645 0.49172 0.57137 0.0
Li1320 Li 0.55075 0.45211 0.63685 0.0
Li1321 Li 0.58548 0.44232 0.62186 0.0
Li1322 Li 0.55154 0.44703 0.60555 0.0
Li1323 Li 0.5577 0.41026 0.62412 0.0
C1324 C 0.55519 0.49374 0.61844 0.0
N1325 N 0.53137 0.537 0.61633 0.0
C1326 C 0.56706 0.51557 0.62052 0.0
C1327 C 0.53118 0.49397 0.61535 0.0
C1328 C 0.55472 0.53724 0.6194 0.0
C1329 C 0.51945 0.51599 0.61429 0.0
C1330 C 0.59231 0.42574 0.65385 0.0
C1331 C 0.62171 0.40294 0.66882 0.0
N1332 N 0.63041 0.4238 0.67538 0.0
C1333 C 0.60139 0.44694 0.66084 0.0
C1334 C 0.6024 0.40354 0.65793 0.0
C1335 C 0.62074 0.44558 0.67165 0.0
C1336 C 0.51859 0.45703 0.66338 0.0
N1337 N 0.5371 0.46781 0.6557 0.0
C1338 C 0.53806 0.49853 0.67706 0.0
C1339 C 0.54679 0.48828 0.66208 0.0
C1340 C 0.51917 0.48755 0.68543 0.0
C1341 C 0.50915 0.46677 0.67826 0.0
H1342 H 0.51165 0.44043 0.65823 0.0
H1343 H 0.56176 0.49623 0.65584 0.0
C1344 C 0.62323 0.47201 0.6149 0.0
N1345 N 0.61814 0.44972 0.62107 0.0
C1346 C 0.64626 0.47986 0.61391 0.0
C1347 C 0.65869 0.44142 0.62524 0.0
C1348 C 0.63532 0.43429 0.62601 0.0
C1349 C 0.66438 0.46456 0.61921 0.0
H1350 H 0.60935 0.48374 0.61069 0.0
H1351 H 0.63096 0.41641 0.63045 0.0
C1352 C 0.50723 0.42649 0.61879 0.0
N1353 N 0.46139 0.41441 0.61182 0.0
C1354 C 0.50202 0.40515 0.61008 0.0
C1355 C 0.48905 0.44159 0.62405 0.0
C1356 C 0.47876 0.39939 0.60665 0.0
C1357 C 0.46602 0.43521 0.62037 0.0
C1358 C 0.59508 0.41597 0.59543 0.0
C1359 C 0.60347 0.43176 0.58294 0.0
C1360 C 0.60832 0.39585 0.60009 0.0
C1361 C 0.62514 0.42725 0.5754 0.0
C1362 C 0.62987 0.39193 0.59222 0.0
N1363 N 0.63777 0.4076 0.58016 0.0
C1364 C 0.55041 0.47662 0.57657 0.0
C1365 C 0.52187 0.44571 0.57637 0.0
C1366 C 0.54326 0.4845 0.56048 0.0
N1367 N 0.53962 0.45761 0.58418 0.0
C1368 C 0.51411 0.45299 0.5603 0.0
C1369 C 0.52494 0.47255 0.5521 0.0
H1370 H 0.56488 0.4854 0.58288 0.0
H1371 H 0.51395 0.43033 0.58243 0.0
C1372 C 0.53808 0.37038 0.64091 0.0
N1373 N 0.54981 0.37737 0.62666 0.0
C1374 C 0.52867 0.34718 0.64198 0.0
C1375 C 0.54426 0.33872 0.6139 0.0
C1376 C 0.55336 0.36204 0.61338 0.0
C1377 C 0.53126 0.33121 0.62818 0.0
H1378 H 0.53519 0.38318 0.65112 0.0
H1379 H 0.56233 0.36828 0.60206 0.0
O1380 O 0.56711 0.4724 0.61976 0.0
O1381 O 0.57346 0.42666 0.64321 0.0
O1382 O 0.5299 0.43215 0.62265 0.0
O1383 O 0.57415 0.42036 0.60319 0.0
H1384 H 0.58561 0.51579 0.62311 0.0
H1385 H 0.52171 0.47737 0.61362 0.0
H1386 H 0.5637 0.55424 0.621 0.0
H1387 H 0.50088 0.51638 0.61185 0.0
H1388 H 0.62979 0.38591 0.67204 0.0
H1389 H 0.59377 0.46425 0.65776 0.0
H1390 H 0.59547 0.38699 0.65264 0.0
H1391 H 0.62809 0.46184 0.67705 0.0
H1392 H 0.54627 0.51453 0.68223 0.0
H1393 H 0.4949 0.45747 0.68452 0.0
H1394 H 0.64976 0.49792 0.60932 0.0
H1395 H 0.67214 0.42888 0.62918 0.0
H1396 H 0.51577 0.39335 0.60573 0.0
H1397 H 0.49264 0.45807 0.63096 0.0
H1398 H 0.47453 0.383 0.59983 0.0
H1399 H 0.45181 0.44676 0.62435 0.0
H1400 H 0.59348 0.44746 0.57925 0.0
H1401 H 0.60219 0.38361 0.60988 0.0
H1402 H 0.63192 0.4394 0.5658 0.0
H1403 H 0.64037 0.37652 0.59577 0.0
H1404 H 0.55238 0.49938 0.5545 0.0
H1405 H 0.49982 0.44337 0.55436 0.0
H1406 H 0.51856 0.34224 0.65313 0.0
H1407 H 0.5469 0.3269 0.60307 0.0
H1408 H 0.29856 0.97122 0.09944 0.0
H1409 H 0.20065 0.03368 0.1575 0.0
H1410 H 0.3047 0.97937 0.15408 0.0
H1411 H 0.19607 0.02698 0.10266 0.0
H1412 H 0.23848 0.01329 0.1567 0.0
H1413 H 0.26043 0.99074 0.10058 0.0
C1414 C 0.29185 0.97708 0.11169 0.0
C1415 C 0.30488 0.97374 0.12667 0.0
C1416 C 0.22922 0.01636 0.14484 0.0
C1417 C 0.26118 0.9961 0.12809 0.0
C1418 C 0.20761 0.02796 0.14529 0.0
C1419 C 0.19518 0.0321 0.13012 0.0
C1420 C 0.23843 0.00875 0.12911 0.0
C1421 C 0.20517 0.02452 0.11465 0.0
C1422 C 0.27006 0.98819 0.11234 0.0
C1423 C 0.29516 0.98136 0.14223 0.0
N1424 N 0.22615 0.01316 0.11456 0.0
N1425 N 0.27394 0.99229 0.14253 0.0
H1426 H 0.69796 0.96785 0.3982 0.0
H1427 H 0.79058 0.03983 0.34106 0.0
H1428 H 0.68812 0.983 0.34461 0.0
H1429 H 0.80424 0.01602 0.39263 0.0
H1430 H 0.75229 0.02054 0.34244 0.0
H1431 H 0.73643 0.98683 0.39675 0.0
C1432 C 0.70394 0.97513 0.38613 0.0
C1433 C 0.68987 0.9738 0.3715 0.0
C1434 C 0.76367 0.01959 0.35346 0.0
C1435 C 0.73378 0.99559 0.36973 0.0
C1436 C 0.78556 0.03055 0.35266 0.0
C1437 C 0.80068 0.0296 0.36675 0.0
C1438 C 0.7568 0.00762 0.36846 0.0
C1439 C 0.79306 0.01759 0.38154 0.0
C1440 C 0.7259 0.9859 0.38529 0.0
C1441 C 0.69853 0.98334 0.35614 0.0
N1442 N 0.77168 0.00707 0.382 0.0
N1443 N 0.71989 0.99392 0.35568 0.0
H1444 H 0.78769 0.94144 0.88497 0.0
H1445 H 0.7066 0.05866 0.88976 0.0
H1446 H 0.81452 0.01417 0.88295 0.0
H1447 H 0.68047 0.98709 0.87939 0.0
H1448 H 0.74625 0.04242 0.89034 0.0
H1449 H 0.7481 0.95765 0.8859 0.0
C1450 C 0.7853 0.9608 0.88465 0.0
C1451 C 0.80453 0.97643 0.88383 0.0
C1452 C 0.7318 0.03029 0.88799 0.0
C1453 C 0.75922 0.99511 0.88517 0.0
C1454 C 0.70916 0.03956 0.88759 0.0
C1455 C 0.6901 0.02426 0.88451 0.0
C1456 C 0.73542 0.00552 0.88537 0.0
C1457 C 0.69452 -0.00044 0.88208 0.0
C1458 C 0.76267 0.97004 0.88528 0.0
C1459 C 0.80029 0.0014 0.88381 0.0
N1460 N 0.71669 0.99099 0.88255 0.0
N1461 N 0.77811 0.00995 0.88446 0.0
H1462 H 0.20491 0.93835 0.61431 0.0
H1463 H 0.28458 0.05611 0.62508 0.0
H1464 H 0.17735 0.01002 0.62184 0.0
H1465 H 0.31226 0.98422 0.61907 0.0
H1466 H 0.24509 0.03957 0.62367 0.0
H1467 H 0.24443 0.95475 0.61613 0.0
C1468 C 0.20716 0.95751 0.61642 0.0
C1469 C 0.18777 0.97284 0.61785 0.0
C1470 C 0.2598 0.02741 0.62269 0.0
C1471 C 0.23294 0.99178 0.6198 0.0
C1472 C 0.28234 0.03686 0.6234 0.0
C1473 C 0.30175 0.02153 0.62223 0.0
C1474 C 0.25662 0.00244 0.62072 0.0
C1475 C 0.29782 0.99668 0.62028 0.0
C1476 C 0.22972 0.96689 0.61738 0.0
C1477 C 0.19176 0.99757 0.62038 0.0
N1478 N 0.27572 0.98792 0.61957 0.0
N1479 N 0.21387 0.00626 0.62126 0.0
H1480 H 0.79223 0.45958 0.14907 0.0
H1481 H 0.69653 0.5281 0.09258 0.0
H1482 H 0.80441 0.48227 0.09706 0.0
H1483 H 0.68961 0.51547 0.14674 0.0
H1484 H 0.735 0.50895 0.09331 0.0
H1485 H 0.75331 0.4773 0.14774 0.0
C1486 C 0.78673 0.46828 0.13736 0.0
C1487 C 0.80171 0.46956 0.1232 0.0
C1488 C 0.72509 0.51044 0.10504 0.0
C1489 C 0.75703 0.48977 0.12154 0.0
C1490 C 0.70312 0.52131 0.10462 0.0
C1491 C 0.68989 0.52346 0.11964 0.0
C1492 C 0.73381 0.50148 0.12056 0.0
C1493 C 0.69934 0.51451 0.13491 0.0
C1494 C 0.76447 0.47835 0.1366 0.0
C1495 C 0.79341 0.48063 0.10824 0.0
N1496 N 0.72068 0.50385 0.13497 0.0
N1497 N 0.77166 0.49039 0.10783 0.0
H1498 H 0.3164 0.49689 0.34956 0.0
H1499 H 0.18607 0.50669 0.38557 0.0
H1500 H 0.29229 0.55521 0.38154 0.0
H1501 H 0.20942 0.44991 0.35195 0.0
H1502 H 0.22515 0.52411 0.38486 0.0
H1503 H 0.27743 0.47928 0.35044 0.0
C1504 C 0.30285 0.50615 0.35663 0.0
C1505 C 0.30763 0.52766 0.36543 0.0
C1506 C 0.22176 0.50782 0.37766 0.0
C1507 C 0.26299 0.5073 0.36674 0.0
C1508 C 0.19949 0.49773 0.37817 0.0
C1509 C 0.19447 0.47673 0.36885 0.0
C1510 C 0.23921 0.49686 0.36776 0.0
C1511 C 0.21244 0.46623 0.35921 0.0
C1512 C 0.28063 0.49596 0.35724 0.0
C1513 C 0.28947 0.5385 0.3747 0.0
N1514 N 0.23401 0.4764 0.35891 0.0
N1515 N 0.26796 0.52821 0.37511 0.0
H1516 H 0.19275 0.51876 0.84099 0.0
H1517 H 0.29866 0.47098 0.8985 0.0
H1518 H 0.19388 0.52227 0.89607 0.0
H1519 H 0.29789 0.46674 0.84346 0.0
H1520 H 0.25983 0.48903 0.8978 0.0
H1521 H 0.231 0.49924 0.84154 0.0
C1522 C 0.20104 0.51543 0.8532 0.0
C1523 C 0.19009 0.52222 0.86851 0.0
C1524 C 0.26809 0.48407 0.88587 0.0
C1525 C 0.23389 0.49992 0.86923 0.0
C1526 C 0.29028 0.4738 0.88626 0.0
C1527 C 0.30158 0.46744 0.87101 0.0
C1528 C 0.25708 0.48811 0.8701 0.0
C1529 C 0.28974 0.47116 0.85553 0.0
C1530 C 0.22289 0.50433 0.8535 0.0
C1531 C 0.20179 0.51771 0.88394 0.0
N1532 N 0.26818 0.48138 0.85547 0.0
N1533 N 0.223 0.50681 0.8839 0.0
H1534 H 0.68575 0.49161 0.59439 0.0
H1535 H 0.80864 0.49751 0.64255 0.0
H1536 H 0.69899 0.45698 0.64283 0.0
H1537 H 0.79149 0.54108 0.59858 0.0
H1538 H 0.76933 0.48069 0.64203 0.0
H1539 H 0.72538 0.50767 0.59468 0.0
C1540 C 0.69697 0.48741 0.60511 0.0
C1541 C 0.68894 0.47305 0.61868 0.0
C1542 C 0.77415 0.49396 0.63251 0.0
C1543 C 0.73448 0.49123 0.61899 0.0
C1544 C 0.79656 0.50374 0.63288 0.0
C1545 C 0.80341 0.52087 0.62063 0.0
C1546 C 0.75844 0.50123 0.61976 0.0
C1547 C 0.78711 0.52776 0.60816 0.0
C1548 C 0.71963 0.49653 0.60524 0.0
C1549 C 0.70447 0.46778 0.63204 0.0
N1550 N 0.7654 0.51792 0.60805 0.0
N1551 N 0.72647 0.47693 0.63188 0.0
H1552 H 0.01711 0.00943 0.29739 0.0
H1553 H 0.99197 0.9859 0.19907 0.0
H1554 H 0.95028 0.98623 0.27792 0.0
H1555 H 0.05743 0.01164 0.21939 0.0
H1556 H 0.97866 0.97781 0.2282 0.0
H1557 H 0.03438 0.00141 0.26962 0.0
C1558 C 0.00612 0.00212 0.28741 0.0
C1559 C 0.98207 0.99893 0.28996 0.0
C1560 C 0.99609 0.98484 0.22624 0.0
C1561 C 0.00172 0.99034 0.25786 0.0
C1562 C 0.00366 0.98957 0.20962 0.0
C1563 C 0.02571 -0.00016 0.20677 0.0
C1564 C 0.01064 0.99055 0.2401 0.0
C1565 C 0.04031 0.00369 0.22091 0.0
C1566 C 0.016 0.99773 0.27145 0.0
C1567 C 0.96876 0.98961 0.27641 0.0
N1568 N 0.03239 0.99936 0.23695 0.0
N1569 N 0.97869 0.98601 0.26086 0.0
H1570 H 0.52099 0.98476 0.19676 0.0
H1571 H 0.49438 0.02218 0.29272 0.0
H1572 H 0.45786 0.02155 0.21196 0.0
H1573 H 0.55743 0.98696 0.27567 0.0
H1574 H 0.48306 0.02806 0.26285 0.0
H1575 H 0.53724 0.99223 0.22483 0.0
C1576 C 0.51066 0.99489 0.20584 0.0
C1577 C 0.48782 0.00224 0.20196 0.0
C1578 C 0.49955 0.01941 0.26569 0.0
C1579 C 0.5062 0.01016 0.23457 0.0
C1580 C 0.50597 0.01594 0.28273 0.0
C1581 C 0.52678 0.00384 0.28676 0.0
C1582 C 0.514 0.01059 0.25261 0.0
C1583 C 0.54132 0.99656 0.27327 0.0
C1584 C 0.51993 0.99896 0.22201 0.0
C1585 C 0.47529 0.01497 0.21449 0.0
N1586 N 0.53452 -0.0002 0.25685 0.0
N1587 N 0.48451 0.01821 0.23033 0.0
H1588 H 0.00884 -0.0004 0.70468 0.0
H1589 H 0.97406 0.92079 0.78641 0.0
H1590 H 0.00961 0.92178 0.70654 0.0
H1591 H 0.98201 0.99815 0.78864 0.0
H1592 H 0.98499 0.92164 0.75647 0.0
H1593 H 0.99717 0.00029 0.73485 0.0
C1594 C 0.00655 0.9827 0.7114 0.0
C1595 C 0.01 0.96059 0.703 0.0
C1596 C 0.98445 0.93848 0.76346 0.0
C1597 C 0.99658 0.96127 0.73736 0.0
C1598 C 0.97836 0.93798 0.78064 0.0
C1599 C 0.97746 0.9594 0.79014 0.0
C1600 C 0.98962 0.96057 0.75557 0.0
C1601 C 0.98247 0.98121 0.78178 0.0
C1602 C -0.00017 0.98311 0.72858 0.0
C1603 C 0.00665 0.93924 0.71232 0.0
N1604 N 0.98842 0.98125 0.76494 0.0
N1605 N 0.00014 0.94014 0.72893 0.0
H1606 H 0.51473 0.0017 0.69627 0.0
H1607 H 0.4855 0.99384 0.79596 0.0
H1608 H 0.44548 0.00805 0.71732 0.0
H1609 H 0.55354 0.0113 0.77564 0.0
H1610 H 0.47146 0.9874 0.76683 0.0
H1611 H 0.52978 0.9932 0.72501 0.0
C1612 C 0.50267 0.00075 0.7069 0.0
C1613 C 0.47894 0.00588 0.70457 0.0
C1614 C 0.48955 0.9923 0.76882 0.0
C1615 C 0.49588 0.99631 0.73726 0.0
C1616 C 0.49756 0.99611 0.78543 0.0
C1617 C 0.52064 0.00358 0.7883 0.0
C1618 C 0.50474 0.99585 0.75499 0.0
C1619 C 0.53563 0.00552 0.77414 0.0
C1620 C 0.51124 0.99605 0.72327 0.0
C1621 C 0.46397 0.00454 0.71871 0.0
N1622 N 0.52734 0.00196 0.75809 0.0
N1623 N 0.47272 9e-05 0.7345 0.0
H1624 H 0.47608 0.51782 0.19455 0.0
H1625 H 0.50811 0.48652 0.28978 0.0
H1626 H 0.53929 0.47994 0.20821 0.0
H1627 H 0.43973 0.50986 0.27367 0.0
H1628 H 0.51845 0.47935 0.25989 0.0
H1629 H 0.46073 0.51 0.22286 0.0
C1630 C 0.48661 0.50736 0.20332 0.0
C1631 C 0.50925 0.49986 0.19894 0.0
C1632 C 0.50103 0.48559 0.26292 0.0
C1633 C 0.49189 0.49154 0.23182 0.0
C1634 C 0.49517 0.48978 0.27997 0.0
C1635 C 0.47314 0.4991 0.28419 0.0
C1636 C 0.48485 0.49109 0.25002 0.0
C1637 C 0.4569 0.50264 0.27102 0.0
C1638 C 0.47783 0.50306 0.21962 0.0
C1639 C 0.52203 0.48671 0.21112 0.0
N1640 N 0.46321 0.49901 0.25451 0.0
N1641 N 0.51335 0.48334 0.2271 0.0
H1642 H 0.04869 0.52318 0.28006 0.0
H1643 H 0.93516 0.50777 0.22232 0.0
H1644 H 0.98103 0.50099 0.29866 0.0
H1645 H 0.00508 0.51244 0.20213 0.0
H1646 H 0.95028 0.5173 0.2507 0.0
H1647 H 0.03137 0.53077 0.25202 0.0
C1648 C 0.03017 0.52018 0.27835 0.0
C1649 C 0.01644 0.51091 0.29172 0.0
C1650 C 0.96227 0.51664 0.24001 0.0
C1651 C 0.99651 0.51993 0.25973 0.0
C1652 C 0.95366 0.51117 0.22383 0.0
C1653 C 0.96897 0.50881 0.20995 0.0
C1654 C 0.98638 0.51964 0.24234 0.0
C1655 C 0.99269 0.51396 0.21252 0.0
C1656 C 0.02029 0.52465 0.26236 0.0
C1657 C 0.99239 0.50812 0.28885 0.0
N1658 N 0.00075 0.51873 0.22849 0.0
N1659 N 0.98329 0.51229 0.27312 0.0
H1660 H 0.47439 0.49349 0.69687 0.0
H1661 H 0.51439 0.49499 0.79369 0.0
H1662 H 0.54619 0.50044 0.71265 0.0
H1663 H 0.44235 0.49828 0.77789 0.0
H1664 H 0.52635 0.50243 0.76418 0.0
H1665 H 0.46208 0.50072 0.72632 0.0
C1666 C 0.48753 0.49688 0.70652 0.0
C1667 C 0.51133 0.49607 0.70239 0.0
C1668 C 0.50792 0.50193 0.7672 0.0
C1669 C 0.49747 0.50413 0.7361 0.0
C1670 C 0.50111 0.4976 0.78402 0.0
C1671 C 0.47737 0.49573 0.78817 0.0
C1672 C 0.49086 0.50404 0.7544 0.0
C1673 C 0.46085 0.49961 0.77523 0.0
C1674 C 0.48052 0.50108 0.72331 0.0
C1675 C 0.52765 0.50093 0.71529 0.0
N1676 N 0.4679 0.50319 0.75887 0.0
N1677 N 0.52043 0.50436 0.73163 0.0
H1678 H 0.04207 0.49903 0.78523 0.0
H1679 H 0.94077 0.51198 0.71563 0.0
H1680 H 0.97402 0.52837 0.7962 0.0
H1681 H 0.01391 0.50957 0.70266 0.0
H1682 H 0.95103 0.50757 0.74581 0.0
H1683 H 0.03001 0.49246 0.75552 0.0
C1684 C 0.02444 0.50361 0.78144 0.0
C1685 C 0.00902 0.51438 0.79307 0.0
C1686 C 0.9648 0.50772 0.73633 0.0
C1687 C 0.9952 0.50702 0.7593 0.0
C1688 C 0.95897 0.51006 0.71912 0.0
C1689 C 0.97656 0.51128 0.70668 0.0
C1690 C 0.98836 0.50638 0.7411 0.0
C1691 C -0.00013 0.50899 0.71191 0.0
C1692 C 0.01765 0.50003 0.76451 0.0
C1693 C 0.98646 0.52023 0.78753 0.0
N1694 N 0.00512 0.50674 0.72876 0.0
N1695 N 0.98024 0.51656 0.771 0.0
H1696 H 0.00346 0.19036 0.11244 0.0
H1697 H -0.00172 0.31818 0.15919 0.0
H1698 H 0.03949 0.2051 0.15968 0.0
H1699 H 0.95151 0.29754 0.11857 0.0
H1700 H 0.01456 0.27738 0.15915 0.0
H1701 H 0.9854 0.2302 0.11388 0.0
C1702 C 0.00766 0.20206 0.12308 0.0
C1703 C 0.02313 0.19449 0.1359 0.0
C1704 C 0.00063 0.28172 0.15033 0.0
C1705 C 0.00237 0.24007 0.13771 0.0
C1706 C 0.99141 0.30502 0.15029 0.0
C1707 C 0.97357 0.31125 0.13883 0.0
C1708 C 0.99213 0.2646 0.13868 0.0
C1709 C 0.96512 0.29344 0.12771 0.0
C1710 C 0.9972 0.22472 0.12397 0.0
C1711 C 0.0276 0.2102 0.14956 0.0
N1712 N 0.9746 0.27098 0.12782 0.0
N1713 N 0.01738 0.23233 0.15005 0.0
H1714 H 0.50711 0.81979 0.14538 0.0
H1715 H 0.50681 0.68917 0.10522 0.0
H1716 H 0.4471 0.79213 0.11823 0.0
H1717 H 0.54111 0.70343 0.15317 0.0
H1718 H 0.4891 0.72945 0.10633 0.0
H1719 H 0.52385 0.77938 0.14542 0.0
C1720 C 0.49724 0.80532 0.13959 0.0
C1721 C 0.47548 0.80964 0.13182 0.0
C1722 C 0.50051 0.72373 0.11659 0.0
C1723 C 0.49521 0.76342 0.1313 0.0
C1724 C 0.51071 0.70092 0.1159 0.0
C1725 C 0.52543 0.69316 0.1291 0.0
C1726 C 0.5055 0.73902 0.13039 0.0
C1727 C 0.52981 0.70885 0.14277 0.0
C1728 C 0.50698 0.78226 0.13952 0.0
C1729 C 0.46406 0.79 0.12409 0.0
N1730 N 0.52003 0.7312 0.143 0.0
N1731 N 0.47416 0.76783 0.1239 0.0
H1732 H 0.49832 0.68862 0.38503 0.0
H1733 H 0.49197 0.81903 0.34468 0.0
H1734 H 0.46179 0.70153 0.33758 0.0
H1735 H 0.55218 0.79408 0.37287 0.0
H1736 H 0.477 0.77779 0.34433 0.0
H1737 H 0.51433 0.72922 0.38353 0.0
C1738 C 0.49376 0.69981 0.3742 0.0
C1739 C 0.47877 0.69132 0.36131 0.0
C1740 C 0.49354 0.78144 0.35051 0.0
C1741 C 0.49662 0.73829 0.3599 0.0
C1742 C 0.50223 0.80497 0.35064 0.0
C1743 C 0.52344 0.81027 0.35889 0.0
C1744 C 0.50586 0.76314 0.35895 0.0
C1745 C 0.53554 0.79115 0.3667 0.0
C1746 C 0.50286 0.72308 0.37344 0.0
C1747 C 0.473 0.70722 0.34794 0.0
N1748 N 0.52648 0.76853 0.36667 0.0
N1749 N 0.48184 0.72997 0.34762 0.0
H1750 H 0.00883 0.31486 0.3341 0.0
H1751 H 0.97085 0.20077 0.38818 0.0
H1752 H 0.03553 0.30068 0.38476 0.0
H1753 H 0.97586 0.19765 0.33313 0.0
H1754 H 0.98897 0.24048 0.38756 0.0
H1755 H 0.99167 0.27451 0.33376 0.0
C1756 C 0.01134 0.3033 0.34509 0.0
C1757 C 0.02365 0.31143 0.35953 0.0
C1758 C 0.9861 0.23104 0.37563 0.0
C1759 C 0.00333 0.2655 0.35933 0.0
C1760 C 0.97584 0.20827 0.37595 0.0
C1761 C 0.97198 0.19552 0.36069 0.0
C1762 C 0.9922 0.24147 0.35995 0.0
C1763 C 0.97819 0.20676 0.34522 0.0
C1764 C 0.00136 0.28032 0.3449 0.0
C1765 C 0.02578 0.29561 0.3735 0.0
N1766 N 0.98795 0.22913 0.34524 0.0
N1767 N 0.01556 0.27353 0.3731 0.0
H1768 H 0.02966 0.69686 0.90733 0.0
H1769 H 0.95525 0.79447 0.85548 0.0
H1770 H 0.0146 0.69104 0.85349 0.0
H1771 H 0.98326 0.80751 0.90585 0.0
H1772 H 0.97454 0.75522 0.85522 0.0
H1773 H 0.01048 0.7363 0.90773 0.0
C1774 C 0.02234 0.70392 0.89559 0.0
C1775 C 0.02375 0.69069 0.88035 0.0
C1776 C 0.97644 0.76668 0.86634 0.0
C1777 C 0.00171 0.73569 0.88071 0.0
C1778 C 0.96547 0.78914 0.86648 0.0
C1779 C 0.96764 0.80443 0.88069 0.0
C1780 C 0.98959 0.75931 0.88054 0.0
C1781 C 0.98078 0.79626 0.89471 0.0
C1782 C 0.01147 0.72644 0.89581 0.0
C1783 C 0.01414 0.70076 0.86547 0.0
N1784 N 0.99126 0.77429 0.89427 0.0
N1785 N 0.00343 0.7226 0.86605 0.0
H1786 H 0.4591 0.29825 0.84104 0.0
H1787 H 0.55444 0.20947 0.88152 0.0
H1788 H 0.49992 0.31545 0.88571 0.0
H1789 H 0.50314 0.18656 0.84452 0.0
H1790 H 0.53748 0.24985 0.88102 0.0
H1791 H 0.478 0.25865 0.83988 0.0
C1792 C 0.47211 0.29372 0.85055 0.0
C1793 C 0.47785 0.31009 0.86355 0.0
C1794 C 0.52999 0.23599 0.87298 0.0
C1795 C 0.49952 0.2649 0.86231 0.0
C1796 C 0.53961 0.21288 0.87329 0.0
C1797 C 0.53015 0.19445 0.86312 0.0
C1798 C 0.51081 0.24084 0.86236 0.0
C1799 C 0.51123 0.20018 0.85244 0.0
C1800 C 0.4828 0.2711 0.84993 0.0
C1801 C 0.49471 0.30324 0.87562 0.0
N1802 N 0.50215 0.22283 0.85238 0.0
N1803 N 0.50497 0.2812 0.87469 0.0
H1804 H 0.47567 0.18997 0.65368 0.0
H1805 H 0.50793 0.30985 0.60178 0.0
H1806 H 0.45647 0.20285 0.60115 0.0
H1807 H 0.52683 0.2987 0.65457 0.0
H1808 H 0.48816 0.27098 0.60175 0.0
H1809 H 0.49292 0.23032 0.65488 0.0
C1810 C 0.47482 0.20138 0.64246 0.0
C1811 C 0.46473 0.19295 0.62725 0.0
C1812 C 0.49661 0.27698 0.61336 0.0
C1813 C 0.48472 0.23898 0.62847 0.0
C1814 C 0.5081 0.29912 0.61334 0.0
C1815 C 0.51929 0.30746 0.62815 0.0
C1816 C 0.49626 0.26294 0.62829 0.0
C1817 C 0.51837 0.29301 0.64288 0.0
C1818 C 0.48483 0.22435 0.64312 0.0
C1819 C 0.4644 0.20843 0.61306 0.0
N1820 N 0.50713 0.2714 0.64256 0.0
N1821 N 0.47433 0.23061 0.614 0.0
H1822 H 0.99578 0.81219 0.63264 0.0
H1823 H 0.99602 0.67955 0.59252 0.0
H1824 H 0.04506 0.78898 0.59429 0.0
H1825 H 0.95461 0.70005 0.63622 0.0
H1826 H 0.01243 0.72024 0.59165 0.0
H1827 H 0.97908 0.7718 0.63301 0.0
C1828 C 0.00325 0.79856 0.62439 0.0
C1829 C 0.02203 0.80402 0.61352 0.0
C1830 C -0.00025 0.71584 0.60142 0.0
C1831 C 0.00259 0.75768 0.61366 0.0
C1832 C 0.99025 0.69267 0.60186 0.0
C1833 C 0.9739 0.68639 0.61446 0.0
C1834 C 0.99275 0.73294 0.61361 0.0
C1835 C 0.96734 0.70402 0.62639 0.0
C1836 C 0.99358 0.7755 0.62454 0.0
C1837 C 0.0305 0.7857 0.60279 0.0
N1838 N 0.97675 0.72648 0.62565 0.0
N1839 N 0.02073 0.76336 0.60314 0.0
H1840 H 0.01347 0.96958 0.95808 0.0
H1841 H 0.99197 0.05465 0.03914 0.0
H1842 H 0.95513 0.01841 0.96252 0.0
H1843 H 0.04618 0.00075 0.03653 0.0
H1844 H 0.97979 0.04371 0.01024 0.0
H1845 H 0.02754 0.98319 0.98589 0.0
C1846 C 0.00377 0.98338 0.96482 0.0
C1847 C 0.98306 0.99284 0.95801 0.0
C1848 C 0.99435 0.03428 0.01599 0.0
C1849 C -0.00112 0.00824 0.98994 0.0
C1850 C 0.00136 0.04058 0.03245 0.0
C1851 C 0.02005 0.02851 0.04026 0.0
C1852 C 0.00619 0.01585 0.00725 0.0
C1853 C 0.03146 0.01026 0.03108 0.0
C1854 C 0.01171 0.991 0.98076 0.0
C1855 C 0.97101 0.01042 0.96742 0.0
N1856 N 0.02435 0.00449 0.01506 0.0
N1857 N 0.97907 0.01752 0.98293 0.0
H1858 H 0.52355 0.05153 0.96812 0.0
H1859 H 0.45587 0.953 0.02403 0.0
H1860 H 0.48867 0.98968 0.94648 0.0
H1861 H 0.49106 0.01484 0.0454 0.0
H1862 H 0.46713 0.96642 0.99547 0.0
H1863 H 0.5106 0.03905 0.99644 0.0
C1864 C 0.51294 0.03546 0.96929 0.0
C1865 C 0.50717 0.02164 0.95488 0.0
C1866 C 0.47237 0.97707 0.0064 0.0
C1867 C 0.4926 0.007 0.98736 0.0
C1868 C 0.46608 0.96933 0.02272 0.0
C1869 C 0.47259 0.98279 0.03714 0.0
C1870 C 0.48529 0.99841 0.00447 0.0
C1871 C 0.48545 0.00404 0.03465 0.0
C1872 C 0.5057 0.02823 0.9855 0.0
C1873 C 0.49376 0.00072 0.95725 0.0
N1874 N 0.49141 0.01116 0.01864 0.0
N1875 N 0.48696 0.99401 0.97319 0.0
H1876 H 0.44045 0.99225 0.5308 0.0
H1877 H 0.54254 0.99874 0.46157 0.0
H1878 H 0.50931 0.01953 0.54188 0.0
H1879 H 0.47949 0.95755 0.45416 0.0
H1880 H 0.52991 0.00815 0.49064 0.0
H1881 H 0.45383 0.98049 0.50233 0.0
C1882 C 0.45842 0.99567 0.52723 0.0
C1883 C 0.4738 0.00694 0.53865 0.0
C1884 C 0.51886 0.997 0.48268 0.0
C1885 C 0.48918 0.99366 0.50614 0.0
C1886 C 0.52596 0.99181 0.46605 0.0
C1887 C 0.51197 0.97744 0.45545 0.0
C1888 C 0.49751 0.98794 0.4887 0.0
C1889 C 0.49084 0.96858 0.46197 0.0
C1890 C 0.46606 0.98889 0.51102 0.0
C1891 C 0.49695 0.01072 0.53349 0.0
N1892 N 0.48418 0.97407 0.47816 0.0
N1893 N 0.50389 0.00427 0.51754 0.0
H1894 H 0.0443 0.01846 0.53106 0.0
H1895 H 0.94105 0.01749 0.46234 0.0
H1896 H 0.97982 0.97921 0.53752 0.0
H1897 H 0.00966 0.04624 0.45208 0.0
H1898 H 0.95353 0.00735 0.49125 0.0
H1899 H 0.03038 0.03288 0.50338 0.0
C1900 C 0.02721 0.01289 0.52668 0.0
C1901 C 0.01328 0.99746 0.5366 0.0
C1902 C 0.96585 0.01592 0.48269 0.0
C1903 C 0.99717 0.01409 0.50502 0.0
C1904 C 0.95878 0.02159 0.46614 0.0
C1905 C 0.97443 0.03247 0.4547 0.0
C1906 C 0.98872 0.02122 0.48788 0.0
C1907 C 0.99699 0.03795 0.46049 0.0
C1908 C 0.01924 0.02121 0.51091 0.0
C1909 C 0.99108 0.99126 0.53042 0.0
N1910 N 0.0035 0.03215 0.47667 0.0
N1911 N 0.98377 -0.0005 0.515 0.0
H1912 H 0.48981 0.49584 0.04524 0.0
H1913 H 0.49044 0.52076 0.94451 0.0
H1914 H 0.52827 0.55388 0.02161 0.0
H1915 H 0.45361 0.46175 0.96834 0.0
H1916 H 0.50331 0.53421 0.97271 0.0
H1917 H 0.47508 0.48412 0.0172 0.0
C1918 C 0.49519 0.50608 0.03414 0.0
C1919 C 0.51038 0.52579 0.03575 0.0
C1920 C 0.49235 0.51837 0.97177 0.0
C1921 C 0.49346 0.5126 0.00362 0.0
C1922 C 0.4851 0.51062 0.95568 0.0
C1923 C 0.47096 0.49008 0.95407 0.0
C1924 C 0.48546 0.50545 0.98636 0.0
C1925 C 0.46426 0.47784 0.96899 0.0
C1926 C 0.48669 0.49947 0.01814 0.0
C1927 C 0.51644 0.53869 0.02097 0.0
N1928 N 0.47164 0.48567 0.98449 0.0
N1929 N 0.50803 0.53181 0.0055 0.0
H1930 H 0.95491 0.458 0.02968 0.0
H1931 H 0.05141 0.52691 0.97429 0.0
H1932 H 0.01301 0.49652 0.0517 0.0
H1933 H 0.99562 0.48486 0.95228 0.0
H1934 H 0.03816 0.51522 0.00272 0.0
H1935 H 0.96973 0.46743 0.00121 0.0
C1936 C 0.97073 0.46856 0.02852 0.0
C1937 C 0.98268 0.47661 0.0431 0.0
C1938 C 0.02887 0.50845 0.99168 0.0
C1939 C -0.00012 0.48726 0.01052 0.0
C1940 C 0.03653 0.51499 0.97541 0.0
C1941 C 0.02461 0.50686 0.96084 0.0
C1942 C 0.00908 0.49374 0.99343 0.0
C1943 C 0.00515 0.49182 0.96314 0.0
C1944 C 0.97927 0.47379 0.01226 0.0
C1945 C 0.00334 0.48981 0.04082 0.0
N1946 N -0.00203 0.4858 0.97912 0.0
N1947 N 0.01124 0.4948 0.02484 0.0
H1948 H 0.94445 0.48354 0.53001 0.0
H1949 H 0.05159 0.48856 0.46486 0.0
H1950 H 0.01325 0.50815 0.54403 0.0
H1951 H 0.98637 0.45321 0.45345 0.0
H1952 H 0.03775 0.49616 0.4939 0.0
H1953 H 0.95944 0.47212 0.5019 0.0
C1954 C 0.96275 0.48642 0.52717 0.0
C1955 C 0.97763 0.49689 0.53931 0.0
C1956 C 0.0265 0.48665 0.48507 0.0
C1957 C 0.99487 0.48398 0.50721 0.0
C1958 C 0.03432 0.48247 0.46847 0.0
C1959 C 0.02005 0.47035 0.45673 0.0
C1960 C 0.00415 0.47882 0.48993 0.0
C1961 C -0.00202 0.46249 0.46214 0.0
C1962 C 0.97131 0.47984 0.51117 0.0
C1963 C 0.00123 0.49996 0.53508 0.0
N1964 N 0.99064 0.46699 0.47833 0.0
N1965 N 0.00909 0.49373 0.51932 0.0
H1966 H 0.51306 0.44368 0.5251 0.0
H1967 H 0.48903 0.55375 0.46137 0.0
H1968 H 0.52021 0.51846 0.5395 0.0
H1969 H 0.47767 0.47912 0.44813 0.0
H1970 H 0.50205 0.54114 0.4897 0.0
H1971 H 0.501 0.45632 0.49659 0.0
C1972 C 0.51193 0.46277 0.52231 0.0
C1973 C 0.51757 0.48004 0.53474 0.0
C1974 C 0.49673 0.52751 0.48059 0.0
C1975 C 0.5041 0.49464 0.50202 0.0
C1976 C 0.48945 0.53469 0.46438 0.0
C1977 C 0.48225 0.51745 0.45237 0.0
C1978 C 0.49686 0.50291 0.48483 0.0
C1979 C 0.4828 0.49303 0.45706 0.0
C1980 C 0.50519 0.46998 0.50598 0.0
C1981 C 0.51626 0.50452 0.53027 0.0
N1982 N 0.48998 0.48649 0.47292 0.0
N1983 N 0.50964 0.51109 0.51428 0.0
loop_
_geom_bond_atom_site_label_1
_geom_bond_atom_site_label_2
_geom_bond_distance
_geom_bond_site_symmetry_2
_ccdc_geom_bond_type
Li0 N17 1.990 . S
Li0 O60 1.956 . S
Li0 O61 1.970 . S
Li0 O62 1.961 . S
Li1 N25 1.990 . S
Li1 O60 1.970 . S
Li1 O61 1.956 . S
Li1 O63 1.961 . S
Li2 N47 1.990 . S
Li2 O60 1.961 . S
Li2 O62 1.956 . S
Li2 O63 1.970 . S
Li3 N53 1.990 . S
Li3 O61 1.961 . S
Li3 O62 1.970 . S
Li3 O63 1.956 . S
C4 C6 1.348 . S
C4 C7 1.356 . S
C4 O60 1.325 1_565 S
N5 C8 1.314 . S
N5 C9 1.279 . S
C6 C4 1.348 . S
C6 C8 1.353 . S
C6 H64 0.929 . S
C7 C4 1.356 . S
C7 C9 1.358 . S
C7 H65 0.930 . S
C8 N5 1.314 . S
C8 C6 1.353 . S
C8 H66 0.930 . S
C9 N5 1.279 . S
C9 C7 1.358 . S
C9 H67 0.930 . S
C10 C13 1.348 . S
C10 C14 1.356 . S
C10 O61 1.325 . S
C11 N12 1.279 . S
C11 C14 1.358 . S
C11 H68 0.930 . S
N12 C11 1.279 . S
N12 C15 1.314 . S
C13 C10 1.348 . S
C13 C15 1.353 . S
C13 H69 0.929 . S
C14 C10 1.356 . S
C14 C11 1.358 . S
C14 H70 0.930 . S
C15 N12 1.314 . S
C15 C13 1.353 . S
C15 H71 0.930 . S
C16 N17 1.314 . S
C16 C21 1.353 . S
C16 H22 0.930 . S
N17 Li0 1.990 . S
N17 C16 1.314 . S
N17 C19 1.239 1_545 S
C18 C19 1.379 . S
C18 C20 1.380 . S
C18 H72 0.930 . S
C19 N17 1.239 1_565 S
C19 C18 1.379 . S
C19 H23 0.953 . S
C20 C18 1.380 . S
C20 C21 1.303 1_565 S
C21 C16 1.353 . S
C21 C20 1.303 1_545 S
C21 H73 0.929 1_455 S
H22 C16 0.930 . S
H23 C19 0.953 . S
C24 N25 1.314 . S
C24 C26 1.353 . S
C24 H30 0.930 . S
N25 Li1 1.990 . S
N25 C24 1.314 . S
N25 C28 1.279 . S
C26 C24 1.353 . S
C26 C29 1.348 . S
C26 H74 0.929 . S
C27 C28 1.358 . S
C27 C29 1.356 . S
C27 H75 0.930 . S
C28 N25 1.279 . S
C28 C27 1.358 . S
C28 H31 0.930 . S
C29 C26 1.348 . S
C29 C27 1.356 . S
H30 C24 0.930 . S
H31 C28 0.930 . S
C32 C34 1.348 1_455 S
C32 C35 1.356 1_455 S
C32 O62 1.325 . S
N33 C36 1.314 . S
N33 C37 1.279 . S
C34 C32 1.348 1_655 S
C34 C36 1.353 . S
C34 H76 0.929 1_655 S
C35 C32 1.356 1_655 S
C35 C37 1.358 . S
C35 H77 0.930 . S
C36 N33 1.314 . S
C36 C34 1.353 . S
C36 H78 0.930 . S
C37 N33 1.279 . S
C37 C35 1.358 . S
C37 H79 0.930 . S
C38 C39 1.348 . S
C38 C40 1.356 . S
C38 O63 1.325 . S
C39 C38 1.348 . S
C39 C41 1.353 . S
C39 H80 0.929 . S
C40 C38 1.356 . S
C40 C42 1.358 . S
C40 H81 0.930 . S
C41 C39 1.353 . S
C41 N43 1.314 . S
C41 H82 0.930 . S
C42 C40 1.358 . S
C42 N43 1.279 . S
C42 H83 0.930 . S
N43 C41 1.314 . S
N43 C42 1.279 . S
C44 C46 1.353 . S
C44 N47 1.314 . S
C44 H50 0.930 . S
C45 N47 1.279 . S
C45 C48 1.360 . S
C45 H51 0.930 . S
C46 C44 1.353 . S
C46 C49 1.348 . S
C46 H84 0.929 1_545 S
N47 Li2 1.990 . S
N47 C44 1.314 . S
N47 C45 1.279 . S
C48 C45 1.360 . S
C48 C49 1.358 . S
C48 H85 0.926 1_455 S
C49 C46 1.348 . S
C49 C48 1.358 . S
H50 C44 0.930 . S
H51 C45 0.930 . S
C52 N53 1.314 . S
C52 C54 1.353 . S
C52 H58 0.930 . S
N53 Li3 1.990 . S
N53 C52 1.314 . S
N53 C56 1.279 . S
C54 C52 1.353 . S
C54 C57 1.348 . S
C54 H86 0.929 . S
C55 C56 1.358 . S
C55 C57 1.356 . S
C55 H87 0.930 . S
C56 N53 1.279 . S
C56 C55 1.358 . S
C56 H59 0.930 . S
C57 C54 1.348 . S
C57 C55 1.356 . S
H58 C52 0.930 . S
H59 C56 0.930 . S
O60 Li0 1.956 . S
O60 Li1 1.970 . S
O60 Li2 1.961 . S
O60 C4 1.325 1_545 S
O61 Li0 1.970 . S
O61 Li1 1.956 . S
O61 Li3 1.961 . S
O61 C10 1.325 . S
O62 Li0 1.961 . S
O62 Li2 1.956 . S
O62 Li3 1.970 . S
O62 C32 1.325 . S
O63 Li1 1.961 . S
O63 Li2 1.970 . S
O63 Li3 1.956 . S
O63 C38 1.325 . S
H64 C6 0.929 . S
H65 C7 0.930 . S
H66 C8 0.930 . S
H67 C9 0.930 . S
H68 C11 0.930 . S
H69 C13 0.929 . S
H70 C14 0.930 . S
H71 C15 0.930 . S
H72 C18 0.930 . S
H73 C21 0.929 1_655 S
H74 C26 0.929 . S
H75 C27 0.930 . S
H76 C34 0.929 1_455 S
H77 C35 0.930 . S
H78 C36 0.930 . S
H79 C37 0.930 . S
H80 C39 0.929 . S
H81 C40 0.930 . S
H82 C41 0.930 . S
H83 C42 0.930 . S
H84 C46 0.929 1_565 S
H85 C48 0.926 1_655 S
H86 C54 0.929 . S
H87 C55 0.930 . S
Li88 N105 1.990 . S
Li88 O148 1.956 . S
Li88 O149 1.970 . S
Li88 O150 1.961 . S
Li89 N113 1.990 . S
Li89 O148 1.970 . S
Li89 O149 1.956 . S
Li89 O151 1.961 . S
Li90 N135 1.990 . S
Li90 O148 1.961 . S
Li90 O150 1.956 . S
Li90 O151 1.970 . S
Li91 N141 1.990 . S
Li91 O149 1.961 . S
Li91 O150 1.970 . S
Li91 O151 1.956 . S
C92 C94 1.348 . S
C92 C95 1.356 . S
C92 O148 1.325 . S
N93 C96 1.314 . S
N93 C97 1.279 . S
C94 C92 1.348 . S
C94 C96 1.353 . S
C94 H152 0.929 . S
C95 C92 1.356 . S
C95 C97 1.358 . S
C95 H153 0.930 . S
C96 N93 1.314 . S
C96 C94 1.353 . S
C96 H154 0.930 . S
C97 N93 1.279 . S
C97 C95 1.358 . S
C97 H155 0.930 . S
C98 C101 1.348 . S
C98 C102 1.356 . S
C98 O149 1.325 . S
C99 N100 1.279 . S
C99 C102 1.358 . S
C99 H156 0.930 . S
N100 C99 1.279 . S
N100 C103 1.314 . S
C101 C98 1.348 . S
C101 C103 1.353 . S
C101 H157 0.929 . S
C102 C98 1.356 . S
C102 C99 1.358 . S
C102 H158 0.930 . S
C103 N100 1.314 . S
C103 C101 1.353 . S
C103 H159 0.930 . S
C104 N105 1.314 . S
C104 C109 1.353 . S
C104 H110 0.930 . S
N105 Li88 1.990 . S
N105 C104 1.314 . S
N105 C107 1.279 . S
C106 C107 1.358 . S
C106 C108 1.356 . S
C106 H160 0.930 . S
C107 N105 1.279 . S
C107 C106 1.358 . S
C107 H111 0.930 . S
C108 C106 1.356 . S
C108 C109 1.348 . S
C109 C104 1.353 . S
C109 C108 1.348 . S
C109 H161 0.929 . S
H110 C104 0.930 . S
H111 C107 0.930 . S
C112 N113 1.314 . S
C112 C114 1.353 . S
C112 H118 0.930 . S
N113 Li89 1.990 . S
N113 C112 1.314 . S
N113 C116 1.279 . S
C114 C112 1.353 . S
C114 C117 1.348 . S
C114 H162 0.929 1_565 S
C115 C116 1.358 . S
C115 C117 1.356 . S
C115 H163 0.930 . S
C116 N113 1.279 . S
C116 C115 1.358 . S
C116 H119 0.930 . S
C117 C114 1.348 . S
C117 C115 1.356 . S
H118 C112 0.930 . S
H119 C116 0.930 . S
C120 C122 1.348 . S
C120 C123 1.356 . S
C120 O150 1.325 . S
N121 C124 1.314 . S
N121 C125 1.279 . S
C122 C120 1.348 . S
C122 C124 1.353 . S
C122 H164 0.929 . S
C123 C120 1.356 . S
C123 C125 1.358 . S
C123 H165 0.930 . S
C124 N121 1.314 . S
C124 C122 1.353 . S
C124 H166 0.930 . S
C125 N121 1.279 . S
C125 C123 1.358 . S
C125 H167 0.930 . S
C126 C127 1.348 . S
C126 C128 1.356 . S
C126 O151 1.325 1_545 S
C127 C126 1.348 . S
C127 C129 1.353 . S
C127 H168 0.929 . S
C128 C126 1.356 . S
C128 C130 1.358 . S
C128 H169 0.930 . S
C129 C127 1.353 . S
C129 N131 1.314 . S
C129 H170 0.930 . S
C130 C128 1.358 . S
C130 N131 1.279 . S
C130 H171 0.930 . S
N131 C129 1.314 . S
N131 C130 1.279 . S
C132 C134 1.353 . S
C132 N135 1.314 . S
C132 H138 0.930 . S
C133 N135 1.279 . S
C133 C136 1.358 . S
C133 H139 0.930 . S
C134 C132 1.353 . S
C134 C137 1.348 . S
C134 H172 0.929 . S
N135 Li90 1.990 . S
N135 C132 1.314 . S
N135 C133 1.279 . S
C136 C133 1.358 . S
C136 C137 1.356 . S
C136 H173 0.930 . S
C137 C134 1.348 . S
C137 C136 1.356 . S
H138 C132 0.930 . S
H139 C133 0.930 . S
C140 N141 1.314 . S
C140 C142 1.353 . S
C140 H146 0.930 . S
N141 Li91 1.990 . S
N141 C140 1.314 . S
N141 C144 1.239 1_565 S
C142 C140 1.353 . S
C142 C145 1.303 1_565 S
C142 H174 0.929 . S
C143 C144 1.379 . S
C143 C145 1.380 . S
C143 H175 0.930 . S
C144 N141 1.239 1_545 S
C144 C143 1.379 . S
C144 H147 0.953 . S
C145 C142 1.303 1_545 S
C145 C143 1.380 . S
H146 C140 0.930 . S
H147 C144 0.953 . S
O148 Li88 1.956 . S
O148 Li89 1.970 . S
O148 Li90 1.961 . S
O148 C92 1.325 . S
O149 Li88 1.970 . S
O149 Li89 1.956 . S
O149 Li91 1.961 . S
O149 C98 1.325 . S
O150 Li88 1.961 . S
O150 Li90 1.956 . S
O150 Li91 1.970 . S
O150 C120 1.325 . S
O151 Li89 1.961 . S
O151 Li90 1.970 . S
O151 Li91 1.956 . S
O151 C126 1.325 1_565 S
H152 C94 0.929 . S
H153 C95 0.930 . S
H154 C96 0.930 . S
H155 C97 0.930 . S
H156 C99 0.930 . S
H157 C101 0.929 . S
H158 C102 0.930 . S
H159 C103 0.930 . S
H160 C106 0.930 . S
H161 C109 0.929 . S
H162 C114 0.929 1_545 S
H163 C115 0.930 . S
H164 C122 0.929 . S
H165 C123 0.930 . S
H166 C124 0.930 . S
H167 C125 0.930 . S
H168 C127 0.929 . S
H169 C128 0.930 . S
H170 C129 0.930 . S
H171 C130 0.930 . S
H172 C134 0.929 . S
H173 C136 0.930 . S
H174 C142 0.929 . S
H175 C143 0.930 . S
Li176 N193 1.990 . S
Li176 O236 1.956 . S
Li176 O237 1.970 . S
Li176 O238 1.961 . S
Li177 N201 1.990 . S
Li177 O236 1.970 . S
Li177 O237 1.956 . S
Li177 O239 1.961 . S
Li178 N223 1.990 . S
Li178 O236 1.961 . S
Li178 O238 1.956 . S
Li178 O239 1.970 . S
Li179 N229 1.990 . S
Li179 O237 1.961 . S
Li179 O238 1.970 . S
Li179 O239 1.956 . S
C180 C182 1.348 . S
C180 C183 1.356 . S
C180 O236 1.325 . S
N181 C184 1.314 . S
N181 C185 1.279 . S
C182 C180 1.348 . S
C182 C184 1.353 . S
C182 H240 0.929 . S
C183 C180 1.356 . S
C183 C185 1.358 . S
C183 H241 0.930 . S
C184 N181 1.314 . S
C184 C182 1.353 . S
C184 H242 0.930 . S
C185 N181 1.279 . S
C185 C183 1.358 . S
C185 H243 0.930 . S
C186 C189 1.348 . S
C186 C190 1.356 . S
C186 O237 1.325 1_545 S
C187 N188 1.279 . S
C187 C190 1.358 . S
C187 H244 0.930 . S
N188 C187 1.279 . S
N188 C191 1.314 . S
C189 C186 1.348 . S
C189 C191 1.353 . S
C189 H245 0.929 . S
C190 C186 1.356 . S
C190 C187 1.358 . S
C190 H246 0.930 . S
C191 N188 1.314 . S
C191 C189 1.353 . S
C191 H247 0.930 . S
C192 N193 1.314 . S
C192 C197 1.353 . S
C192 H198 0.930 . S
N193 Li176 1.990 . S
N193 C192 1.314 . S
N193 C195 1.279 . S
C194 C195 1.358 . S
C194 C196 1.356 . S
C194 H248 0.930 . S
C195 N193 1.279 . S
C195 C194 1.358 . S
C195 H199 0.930 . S
C196 C194 1.356 . S
C196 C197 1.348 . S
C197 C192 1.353 . S
C197 C196 1.348 . S
C197 H249 0.929 . S
H198 C192 0.930 . S
H199 C195 0.930 . S
C200 N201 1.314 . S
C200 C202 1.353 . S
C200 H206 0.930 . S
N201 Li177 1.990 . S
N201 C200 1.314 . S
N201 C204 1.239 1_565 S
C202 C200 1.353 . S
C202 C205 1.303 1_565 S
C202 H250 0.929 . S
C203 C204 1.379 . S
C203 C205 1.380 . S
C203 H251 0.930 . S
C204 N201 1.239 1_545 S
C204 C203 1.379 . S
C204 H207 0.953 . S
C205 C202 1.303 1_545 S
C205 C203 1.380 . S
H206 C200 0.930 . S
H207 C204 0.953 . S
C208 C210 1.348 . S
C208 C211 1.356 . S
C208 O238 1.325 . S
N209 C212 1.314 . S
N209 C213 1.279 . S
C210 C208 1.348 . S
C210 C212 1.353 . S
C210 H252 0.929 . S
C211 C208 1.356 . S
C211 C213 1.358 . S
C211 H253 0.930 . S
C212 N209 1.314 . S
C212 C210 1.353 . S
C212 H254 0.930 . S
C213 N209 1.279 . S
C213 C211 1.358 . S
C213 H255 0.930 . S
C214 C215 1.348 . S
C214 C216 1.356 . S
C214 O239 1.325 . S
C215 C214 1.348 . S
C215 C217 1.353 . S
C215 H256 0.929 . S
C216 C214 1.356 . S
C216 C218 1.358 . S
C216 H257 0.930 . S
C217 C215 1.353 . S
C217 N219 1.314 . S
C217 H258 0.930 . S
C218 C216 1.358 . S
C218 N219 1.279 . S
C218 H259 0.930 . S
N219 C217 1.314 . S
N219 C218 1.279 . S
C220 C222 1.353 . S
C220 N223 1.314 . S
C220 H226 0.930 . S
C221 N223 1.279 . S
C221 C224 1.358 . S
C221 H227 0.930 . S
C222 C220 1.353 . S
C222 C225 1.348 . S
C222 H260 0.929 . S
N223 Li178 1.990 . S
N223 C220 1.314 . S
N223 C221 1.279 . S
C224 C221 1.358 . S
C224 C225 1.356 . S
C224 H261 0.930 . S
C225 C222 1.348 . S
C225 C224 1.356 . S
H226 C220 0.930 . S
H227 C221 0.930 . S
C228 N229 1.314 . S
C228 C230 1.353 . S
C228 H234 0.930 . S
N229 Li179 1.990 . S
N229 C228 1.314 . S
N229 C232 1.279 . S
C230 C228 1.353 . S
C230 C233 1.348 . S
C230 H262 0.929 1_565 S
C231 C232 1.358 . S
C231 C233 1.356 . S
C231 H263 0.930 . S
C232 N229 1.279 . S
C232 C231 1.358 . S
C232 H235 0.930 . S
C233 C230 1.348 . S
C233 C231 1.356 . S
H234 C228 0.930 . S
H235 C232 0.930 . S
O236 Li176 1.956 . S
O236 Li177 1.970 . S
O236 Li178 1.961 . S
O236 C180 1.325 . S
O237 Li176 1.970 . S
O237 Li177 1.956 . S
O237 Li179 1.961 . S
O237 C186 1.325 1_565 S
O238 Li176 1.961 . S
O238 Li178 1.956 . S
O238 Li179 1.970 . S
O238 C208 1.325 . S
O239 Li177 1.961 . S
O239 Li178 1.970 . S
O239 Li179 1.956 . S
O239 C214 1.325 . S
H240 C182 0.929 . S
H241 C183 0.930 . S
H242 C184 0.930 . S
H243 C185 0.930 . S
H244 C187 0.930 . S
H245 C189 0.929 . S
H246 C190 0.930 . S
H247 C191 0.930 . S
H248 C194 0.930 . S
H249 C197 0.929 . S
H250 C202 0.929 . S
H251 C203 0.930 . S
H252 C210 0.929 . S
H253 C211 0.930 . S
H254 C212 0.930 . S
H255 C213 0.930 . S
H256 C215 0.929 . S
H257 C216 0.930 . S
H258 C217 0.930 . S
H259 C218 0.930 . S
H260 C222 0.929 . S
H261 C224 0.930 . S
H262 C230 0.929 1_545 S
H263 C231 0.930 . S
Li264 N281 1.990 . S
Li264 O324 1.956 . S
Li264 O325 1.970 . S
Li264 O326 1.961 . S
Li265 N289 1.990 . S
Li265 O324 1.970 . S
Li265 O325 1.956 . S
Li265 O327 1.961 . S
Li266 N311 1.990 . S
Li266 O324 1.961 . S
Li266 O326 1.956 . S
Li266 O327 1.970 . S
Li267 N317 1.990 . S
Li267 O325 1.961 . S
Li267 O326 1.970 . S
Li267 O327 1.956 . S
C268 C270 1.348 . S
C268 C271 1.356 . S
C268 O324 1.325 1_565 S
N269 C272 1.314 . S
N269 C273 1.279 . S
C270 C268 1.348 . S
C270 C272 1.353 . S
C270 H328 0.929 . S
C271 C268 1.356 . S
C271 C273 1.358 . S
C271 H329 0.930 . S
C272 N269 1.314 . S
C272 C270 1.353 . S
C272 H330 0.930 . S
C273 N269 1.279 . S
C273 C271 1.358 . S
C273 H331 0.930 . S
C274 C277 1.348 . S
C274 C278 1.356 . S
C274 O325 1.325 . S
C275 N276 1.279 . S
C275 C278 1.358 . S
C275 H332 0.930 . S
N276 C275 1.279 . S
N276 C279 1.314 . S
C277 C274 1.348 . S
C277 C279 1.353 . S
C277 H333 0.929 . S
C278 C274 1.356 . S
C278 C275 1.358 . S
C278 H334 0.930 . S
C279 N276 1.314 . S
C279 C277 1.353 . S
C279 H335 0.930 . S
C280 N281 1.314 . S
C280 C285 1.353 . S
C280 H286 0.930 . S
N281 Li264 1.990 . S
N281 C280 1.314 . S
N281 C283 1.239 1_545 S
C282 C283 1.379 . S
C282 C284 1.380 . S
C282 H336 0.930 . S
C283 N281 1.239 1_565 S
C283 C282 1.379 . S
C283 H287 0.953 . S
C284 C282 1.380 . S
C284 C285 1.303 1_565 S
C285 C280 1.353 . S
C285 C284 1.303 1_545 S
C285 H337 0.929 1_655 S
H286 C280 0.930 . S
H287 C283 0.953 . S
C288 N289 1.314 . S
C288 C290 1.353 . S
C288 H294 0.930 . S
N289 Li265 1.990 . S
N289 C288 1.314 . S
N289 C292 1.279 . S
C290 C288 1.353 . S
C290 C293 1.348 . S
C290 H338 0.929 . S
C291 C292 1.358 . S
C291 C293 1.356 . S
C291 H339 0.930 . S
C292 N289 1.279 . S
C292 C291 1.358 . S
C292 H295 0.930 . S
C293 C290 1.348 . S
C293 C291 1.356 . S
H294 C288 0.930 . S
H295 C292 0.930 . S
C296 C298 1.348 1_655 S
C296 C299 1.356 1_655 S
C296 O326 1.325 . S
N297 C300 1.314 . S
N297 C301 1.279 . S
C298 C296 1.348 1_455 S
C298 C300 1.353 . S
C298 H340 0.929 1_455 S
C299 C296 1.356 1_455 S
C299 C301 1.358 . S
C299 H341 0.930 . S
C300 N297 1.314 . S
C300 C298 1.353 . S
C300 H342 0.930 . S
C301 N297 1.279 . S
C301 C299 1.358 . S
C301 H343 0.930 . S
C302 C303 1.348 . S
C302 C304 1.356 . S
C302 O327 1.325 . S
C303 C302 1.348 . S
C303 C305 1.353 . S
C303 H344 0.929 . S
C304 C302 1.356 . S
C304 C306 1.358 . S
C304 H345 0.930 . S
C305 C303 1.353 . S
C305 N307 1.314 . S
C305 H346 0.930 . S
C306 C304 1.358 . S
C306 N307 1.279 . S
C306 H347 0.930 . S
N307 C305 1.314 . S
N307 C306 1.279 . S
C308 C310 1.353 . S
C308 N311 1.314 . S
C308 H314 0.930 . S
C309 N311 1.279 . S
C309 C312 1.360 . S
C309 H315 0.930 . S
C310 C308 1.353 . S
C310 C313 1.348 . S
C310 H348 0.929 1_545 S
N311 Li266 1.990 . S
N311 C308 1.314 . S
N311 C309 1.279 . S
C312 C309 1.360 . S
C312 C313 1.358 . S
C312 H349 0.926 1_655 S
C313 C310 1.348 . S
C313 C312 1.358 . S
H314 C308 0.930 . S
H315 C309 0.930 . S
C316 N317 1.314 . S
C316 C318 1.353 . S
C316 H322 0.930 . S
N317 Li267 1.990 . S
N317 C316 1.314 . S
N317 C320 1.279 . S
C318 C316 1.353 . S
C318 C321 1.348 . S
C318 H350 0.929 . S
C319 C320 1.358 . S
C319 C321 1.356 . S
C319 H351 0.930 . S
C320 N317 1.279 . S
C320 C319 1.358 . S
C320 H323 0.930 . S
C321 C318 1.348 . S
C321 C319 1.356 . S
H322 C316 0.930 . S
H323 C320 0.930 . S
O324 Li264 1.956 . S
O324 Li265 1.970 . S
O324 Li266 1.961 . S
O324 C268 1.325 1_545 S
O325 Li264 1.970 . S
O325 Li265 1.956 . S
O325 Li267 1.961 . S
O325 C274 1.325 . S
O326 Li264 1.961 . S
O326 Li266 1.956 . S
O326 Li267 1.970 . S
O326 C296 1.325 . S
O327 Li265 1.961 . S
O327 Li266 1.970 . S
O327 Li267 1.956 . S
O327 C302 1.325 . S
H328 C270 0.929 . S
H329 C271 0.930 . S
H330 C272 0.930 . S
H331 C273 0.930 . S
H332 C275 0.930 . S
H333 C277 0.929 . S
H334 C278 0.930 . S
H335 C279 0.930 . S
H336 C282 0.930 . S
H337 C285 0.929 1_455 S
H338 C290 0.929 . S
H339 C291 0.930 . S
H340 C298 0.929 1_655 S
H341 C299 0.930 . S
H342 C300 0.930 . S
H343 C301 0.930 . S
H344 C303 0.929 . S
H345 C304 0.930 . S
H346 C305 0.930 . S
H347 C306 0.930 . S
H348 C310 0.929 1_565 S
H349 C312 0.926 1_455 S
H350 C318 0.929 . S
H351 C319 0.930 . S
Li352 N369 1.990 . S
Li352 O412 1.956 . S
Li352 O413 1.970 . S
Li352 O414 1.961 . S
Li353 N377 1.990 . S
Li353 O412 1.970 . S
Li353 O413 1.956 . S
Li353 O415 1.961 . S
Li354 N399 1.990 . S
Li354 O412 1.961 . S
Li354 O414 1.956 . S
Li354 O415 1.970 . S
Li355 N405 1.990 . S
Li355 O413 1.961 . S
Li355 O414 1.970 . S
Li355 O415 1.956 . S
C356 C358 1.348 . S
C356 C359 1.356 . S
C356 O412 1.325 . S
N357 C360 1.314 . S
N357 C361 1.279 . S
C358 C356 1.348 . S
C358 C360 1.353 . S
C358 H416 0.929 . S
C359 C356 1.356 . S
C359 C361 1.358 . S
C359 H417 0.930 . S
C360 N357 1.314 . S
C360 C358 1.353 . S
C360 H418 0.930 . S
C361 N357 1.279 . S
C361 C359 1.358 . S
C361 H419 0.930 . S
C362 C365 1.348 1_655 S
C362 C366 1.356 1_655 S
C362 O413 1.325 . S
C363 N364 1.279 . S
C363 C366 1.358 . S
C363 H420 0.930 . S
N364 C363 1.279 . S
N364 C367 1.314 . S
C365 C362 1.348 1_455 S
C365 C367 1.353 . S
C365 H421 0.929 1_455 S
C366 C362 1.356 1_455 S
C366 C363 1.358 . S
C366 H422 0.930 . S
C367 N364 1.314 . S
C367 C365 1.353 . S
C367 H423 0.930 . S
C368 N369 1.314 . S
C368 C373 1.353 . S
C368 H374 0.930 . S
N369 Li352 1.990 . S
N369 C368 1.314 . S
N369 C371 1.279 . S
C370 C371 1.358 . S
C370 C372 1.356 . S
C370 H424 0.930 . S
C371 N369 1.279 . S
C371 C370 1.358 . S
C371 H375 0.930 . S
C372 C370 1.356 . S
C372 C373 1.348 . S
C373 C368 1.353 . S
C373 C372 1.348 . S
C373 H425 0.929 . S
H374 C368 0.930 . S
H375 C371 0.930 . S
C376 N377 1.314 . S
C376 C378 1.353 1_565 S
C376 H382 0.935 . S
N377 Li353 1.990 . S
N377 C376 1.314 . S
N377 C380 1.279 . S
C378 C376 1.353 1_545 S
C378 C381 1.359 . S
C378 H426 0.929 . S
C379 C380 1.358 1_455 S
C379 C381 1.328 1_465 S
C379 H427 0.930 . S
C380 N377 1.279 . S
C380 C379 1.358 1_655 S
C380 H383 0.914 1_655 S
C381 C378 1.359 . S
C381 C379 1.328 1_645 S
H382 C376 0.935 . S
H383 C380 0.914 1_455 S
C384 C386 1.348 . S
C384 C387 1.356 . S
C384 O414 1.325 . S
N385 C388 1.314 . S
N385 C389 1.279 . S
C386 C384 1.348 . S
C386 C388 1.353 . S
C386 H428 0.929 . S
C387 C384 1.356 . S
C387 C389 1.358 . S
C387 H429 0.930 . S
C388 N385 1.314 . S
C388 C386 1.353 . S
C388 H430 0.930 . S
C389 N385 1.279 . S
C389 C387 1.358 . S
C389 H431 0.930 . S
C390 C391 1.348 . S
C390 C392 1.356 . S
C390 O415 1.325 1_545 S
C391 C390 1.348 . S
C391 C393 1.353 . S
C391 H432 0.929 . S
C392 C390 1.356 . S
C392 C394 1.358 . S
C392 H433 0.930 . S
C393 C391 1.353 . S
C393 N395 1.314 . S
C393 H434 0.930 . S
C394 C392 1.358 . S
C394 N395 1.279 . S
C394 H435 0.930 . S
N395 C393 1.314 . S
N395 C394 1.279 . S
C396 C398 1.353 . S
C396 N399 1.314 . S
C396 H402 0.930 . S
C397 N399 1.279 . S
C397 C400 1.358 . S
C397 H403 0.930 . S
C398 C396 1.353 . S
C398 C401 1.348 . S
C398 H436 0.929 . S
N399 Li354 1.990 . S
N399 C396 1.314 . S
N399 C397 1.279 . S
C400 C397 1.358 . S
C400 C401 1.356 . S
C400 H437 0.930 . S
C401 C398 1.348 . S
C401 C400 1.356 . S
H402 C396 0.930 . S
H403 C397 0.930 . S
C404 N405 1.314 . S
C404 C406 1.353 . S
C404 H410 0.930 . S
N405 Li355 1.990 . S
N405 C404 1.314 . S
N405 C408 1.279 . S
C406 C404 1.353 . S
C406 C409 1.348 . S
C406 H438 0.929 1_655 S
C407 C408 1.358 . S
C407 C409 1.356 . S
C407 H439 0.930 1_565 S
C408 N405 1.279 . S
C408 C407 1.358 . S
C408 H411 0.945 . S
C409 C406 1.348 . S
C409 C407 1.356 . S
H410 C404 0.930 . S
H411 C408 0.945 . S
O412 Li352 1.956 . S
O412 Li353 1.970 . S
O412 Li354 1.961 . S
O412 C356 1.325 . S
O413 Li352 1.970 . S
O413 Li353 1.956 . S
O413 Li355 1.961 . S
O413 C362 1.325 . S
O414 Li352 1.961 . S
O414 Li354 1.956 . S
O414 Li355 1.970 . S
O414 C384 1.325 . S
O415 Li353 1.961 . S
O415 Li354 1.970 . S
O415 Li355 1.956 . S
O415 C390 1.325 1_565 S
H416 C358 0.929 . S
H417 C359 0.930 . S
H418 C360 0.930 . S
H419 C361 0.930 . S
H420 C363 0.930 . S
H421 C365 0.929 1_655 S
H422 C366 0.930 . S
H423 C367 0.930 . S
H424 C370 0.930 . S
H425 C373 0.929 . S
H426 C378 0.929 . S
H427 C379 0.930 . S
H428 C386 0.929 . S
H429 C387 0.930 . S
H430 C388 0.930 . S
H431 C389 0.930 . S
H432 C391 0.929 . S
H433 C392 0.930 . S
H434 C393 0.930 . S
H435 C394 0.930 . S
H436 C398 0.929 . S
H437 C400 0.930 . S
H438 C406 0.929 1_455 S
H439 C407 0.930 1_545 S
Li440 N457 1.990 . S
Li440 O500 1.956 . S
Li440 O501 1.970 . S
Li440 O502 1.961 . S
Li441 N465 1.990 . S
Li441 O500 1.970 . S
Li441 O501 1.956 . S
Li441 O503 1.961 . S
Li442 N487 1.990 . S
Li442 O500 1.961 . S
Li442 O502 1.956 . S
Li442 O503 1.970 . S
Li443 N493 1.990 . S
Li443 O501 1.961 . S
Li443 O502 1.970 . S
Li443 O503 1.956 . S
C444 C446 1.348 . S
C444 C447 1.356 . S
C444 O500 1.325 . S
N445 C448 1.314 . S
N445 C449 1.279 . S
C446 C444 1.348 . S
C446 C448 1.353 . S
C446 H504 0.929 . S
C447 C444 1.356 . S
C447 C449 1.358 . S
C447 H505 0.930 . S
C448 N445 1.314 . S
C448 C446 1.353 . S
C448 H506 0.930 . S
C449 N445 1.279 . S
C449 C447 1.358 . S
C449 H507 0.930 . S
C450 C453 1.348 . S
C450 C454 1.356 . S
C450 O501 1.325 . S
C451 N452 1.279 . S
C451 C454 1.358 . S
C451 H508 0.930 . S
N452 C451 1.279 . S
N452 C455 1.314 . S
C453 C450 1.348 . S
C453 C455 1.353 . S
C453 H509 0.929 . S
C454 C450 1.356 . S
C454 C451 1.358 . S
C454 H510 0.930 . S
C455 N452 1.314 . S
C455 C453 1.353 . S
C455 H511 0.930 . S
C456 N457 1.314 . S
C456 C461 1.353 . S
C456 H462 0.930 . S
N457 Li440 1.990 . S
N457 C456 1.314 . S
N457 C459 1.279 . S
C458 C459 1.358 . S
C458 C460 1.356 . S
C458 H512 0.930 . S
C459 N457 1.279 . S
C459 C458 1.358 . S
C459 H463 0.930 . S
C460 C458 1.356 . S
C460 C461 1.348 . S
C461 C456 1.353 . S
C461 C460 1.348 . S
C461 H513 0.929 . S
H462 C456 0.930 . S
H463 C459 0.930 . S
C464 N465 1.314 . S
C464 C466 1.353 1_545 S
C464 H470 0.935 . S
N465 Li441 1.990 . S
N465 C464 1.314 . S
N465 C468 1.279 . S
C466 C464 1.353 1_565 S
C466 C469 1.359 . S
C466 H514 0.929 . S
C467 C468 1.358 . S
C467 C469 1.328 1_545 S
C467 H515 0.930 . S
C468 N465 1.279 . S
C468 C467 1.358 . S
C468 H471 0.930 . S
C469 C466 1.359 . S
C469 C467 1.328 1_565 S
H470 C464 0.935 . S
H471 C468 0.930 . S
C472 C474 1.348 . S
C472 C475 1.356 . S
C472 O502 1.325 . S
N473 C476 1.314 . S
N473 C477 1.279 . S
C474 C472 1.348 . S
C474 C476 1.353 . S
C474 H516 0.929 . S
C475 C472 1.356 . S
C475 C477 1.358 . S
C475 H517 0.930 . S
C476 N473 1.314 . S
C476 C474 1.353 . S
C476 H518 0.930 . S
C477 N473 1.279 . S
C477 C475 1.358 . S
C477 H519 0.930 . S
C478 C479 1.348 . S
C478 C480 1.356 . S
C478 O503 1.325 1_565 S
C479 C478 1.348 . S
C479 C481 1.353 . S
C479 H520 0.929 . S
C480 C478 1.356 . S
C480 C482 1.358 . S
C480 H521 0.930 . S
C481 C479 1.353 . S
C481 N483 1.314 . S
C481 H522 0.930 . S
C482 C480 1.358 . S
C482 N483 1.279 . S
C482 H523 0.930 . S
N483 C481 1.314 . S
N483 C482 1.279 . S
C484 C486 1.353 . S
C484 N487 1.314 . S
C484 H490 0.930 . S
C485 N487 1.279 . S
C485 C488 1.358 . S
C485 H491 0.930 . S
C486 C484 1.353 . S
C486 C489 1.348 . S
C486 H524 0.929 . S
N487 Li442 1.990 . S
N487 C484 1.314 . S
N487 C485 1.279 . S
C488 C485 1.358 . S
C488 C489 1.356 . S
C488 H525 0.930 . S
C489 C486 1.348 . S
C489 C488 1.356 . S
H490 C484 0.930 . S
H491 C485 0.930 . S
C492 N493 1.314 . S
C492 C494 1.353 . S
C492 H498 0.930 . S
N493 Li443 1.990 . S
N493 C492 1.314 . S
N493 C496 1.279 . S
C494 C492 1.353 . S
C494 C497 1.348 . S
C494 H526 0.929 . S
C495 C496 1.358 . S
C495 C497 1.356 . S
C495 H527 0.930 1_545 S
C496 N493 1.279 . S
C496 C495 1.358 . S
C496 H499 0.945 . S
C497 C494 1.348 . S
C497 C495 1.356 . S
H498 C492 0.930 . S
H499 C496 0.945 . S
O500 Li440 1.956 . S
O500 Li441 1.970 . S
O500 Li442 1.961 . S
O500 C444 1.325 . S
O501 Li440 1.970 . S
O501 Li441 1.956 . S
O501 Li443 1.961 . S
O501 C450 1.325 . S
O502 Li440 1.961 . S
O502 Li442 1.956 . S
O502 Li443 1.970 . S
O502 C472 1.325 . S
O503 Li441 1.961 . S
O503 Li442 1.970 . S
O503 Li443 1.956 . S
O503 C478 1.325 1_545 S
H504 C446 0.929 . S
H505 C447 0.930 . S
H506 C448 0.930 . S
H507 C449 0.930 . S
H508 C451 0.930 . S
H509 C453 0.929 . S
H510 C454 0.930 . S
H511 C455 0.930 . S
H512 C458 0.930 . S
H513 C461 0.929 . S
H514 C466 0.929 . S
H515 C467 0.930 . S
H516 C474 0.929 . S
H517 C475 0.930 . S
H518 C476 0.930 . S
H519 C477 0.930 . S
H520 C479 0.929 . S
H521 C480 0.930 . S
H522 C481 0.930 . S
H523 C482 0.930 . S
H524 C486 0.929 . S
H525 C488 0.930 . S
H526 C494 0.929 . S
H527 C495 0.930 1_565 S
Li528 N545 1.990 . S
Li528 O588 1.956 . S
Li528 O589 1.970 . S
Li528 O590 1.961 . S
Li529 N553 1.990 . S
Li529 O588 1.970 . S
Li529 O589 1.956 . S
Li529 O591 1.961 . S
Li530 N575 1.990 . S
Li530 O588 1.961 . S
Li530 O590 1.956 . S
Li530 O591 1.970 . S
Li531 N581 1.990 . S
Li531 O589 1.961 . S
Li531 O590 1.970 . S
Li531 O591 1.956 . S
C532 C534 1.348 . S
C532 C535 1.356 . S
C532 O588 1.325 . S
N533 C536 1.314 . S
N533 C537 1.279 . S
C534 C532 1.348 . S
C534 C536 1.353 . S
C534 H592 0.929 . S
C535 C532 1.356 . S
C535 C537 1.358 . S
C535 H593 0.930 . S
C536 N533 1.314 . S
C536 C534 1.353 . S
C536 H594 0.930 . S
C537 N533 1.279 . S
C537 C535 1.358 . S
C537 H595 0.930 . S
C538 C541 1.348 . S
C538 C542 1.356 . S
C538 O589 1.325 1_565 S
C539 N540 1.279 . S
C539 C542 1.358 . S
C539 H596 0.930 . S
N540 C539 1.279 . S
N540 C543 1.314 . S
C541 C538 1.348 . S
C541 C543 1.353 . S
C541 H597 0.929 . S
C542 C538 1.356 . S
C542 C539 1.358 . S
C542 H598 0.930 . S
C543 N540 1.314 . S
C543 C541 1.353 . S
C543 H599 0.930 . S
C544 N545 1.314 . S
C544 C549 1.353 . S
C544 H550 0.930 . S
N545 Li528 1.990 . S
N545 C544 1.314 . S
N545 C547 1.279 . S
C546 C547 1.358 . S
C546 C548 1.356 . S
C546 H600 0.930 . S
C547 N545 1.279 . S
C547 C546 1.358 . S
C547 H551 0.930 . S
C548 C546 1.356 . S
C548 C549 1.348 . S
C549 C544 1.353 . S
C549 C548 1.348 . S
C549 H601 0.929 . S
H550 C544 0.930 . S
H551 C547 0.930 . S
C552 N553 1.314 . S
C552 C554 1.353 . S
C552 H558 0.930 . S
N553 Li529 1.990 . S
N553 C552 1.314 . S
N553 C556 1.279 . S
C554 C552 1.353 . S
C554 C557 1.348 . S
C554 H602 0.929 . S
C555 C556 1.358 . S
C555 C557 1.356 . S
C555 H603 0.930 1_545 S
C556 N553 1.279 . S
C556 C555 1.358 . S
C556 H559 0.945 . S
C557 C554 1.348 . S
C557 C555 1.356 . S
H558 C552 0.930 . S
H559 C556 0.945 . S
C560 C562 1.348 . S
C560 C563 1.356 . S
C560 O590 1.325 . S
N561 C564 1.314 . S
N561 C565 1.279 . S
C562 C560 1.348 . S
C562 C564 1.353 . S
C562 H604 0.929 . S
C563 C560 1.356 . S
C563 C565 1.358 . S
C563 H605 0.930 . S
C564 N561 1.314 . S
C564 C562 1.353 . S
C564 H606 0.930 . S
C565 N561 1.279 . S
C565 C563 1.358 . S
C565 H607 0.930 . S
C566 C567 1.348 . S
C566 C568 1.356 . S
C566 O591 1.325 . S
C567 C566 1.348 . S
C567 C569 1.353 . S
C567 H608 0.929 . S
C568 C566 1.356 . S
C568 C570 1.358 . S
C568 H609 0.930 . S
C569 C567 1.353 . S
C569 N571 1.314 . S
C569 H610 0.930 . S
C570 C568 1.358 . S
C570 N571 1.279 . S
C570 H611 0.930 . S
N571 C569 1.314 . S
N571 C570 1.279 . S
C572 C574 1.353 . S
C572 N575 1.314 . S
C572 H578 0.930 . S
C573 N575 1.279 . S
C573 C576 1.358 . S
C573 H579 0.930 . S
C574 C572 1.353 . S
C574 C577 1.348 . S
C574 H612 0.929 . S
N575 Li530 1.990 . S
N575 C572 1.314 . S
N575 C573 1.279 . S
C576 C573 1.358 . S
C576 C577 1.356 . S
C576 H613 0.930 . S
C577 C574 1.348 . S
C577 C576 1.356 . S
H578 C572 0.930 . S
H579 C573 0.930 . S
C580 N581 1.314 . S
C580 C582 1.353 1_545 S
C580 H586 0.935 . S
N581 Li531 1.990 . S
N581 C580 1.314 . S
N581 C584 1.279 . S
C582 C580 1.353 1_565 S
C582 C585 1.359 . S
C582 H614 0.929 . S
C583 C584 1.358 . S
C583 C585 1.328 1_545 S
C583 H615 0.930 . S
C584 N581 1.279 . S
C584 C583 1.358 . S
C584 H587 0.930 . S
C585 C582 1.359 . S
C585 C583 1.328 1_565 S
H586 C580 0.935 . S
H587 C584 0.930 . S
O588 Li528 1.956 . S
O588 Li529 1.970 . S
O588 Li530 1.961 . S
O588 C532 1.325 . S
O589 Li528 1.970 . S
O589 Li529 1.956 . S
O589 Li531 1.961 . S
O589 C538 1.325 1_545 S
O590 Li528 1.961 . S
O590 Li530 1.956 . S
O590 Li531 1.970 . S
O590 C560 1.325 . S
O591 Li529 1.961 . S
O591 Li530 1.970 . S
O591 Li531 1.956 . S
O591 C566 1.325 . S
H592 C534 0.929 . S
H593 C535 0.930 . S
H594 C536 0.930 . S
H595 C537 0.930 . S
H596 C539 0.930 . S
H597 C541 0.929 . S
H598 C542 0.930 . S
H599 C543 0.930 . S
H600 C546 0.930 . S
H601 C549 0.929 . S
H602 C554 0.929 . S
H603 C555 0.930 1_565 S
H604 C562 0.929 . S
H605 C563 0.930 . S
H606 C564 0.930 . S
H607 C565 0.930 . S
H608 C567 0.929 . S
H609 C568 0.930 . S
H610 C569 0.930 . S
H611 C570 0.930 . S
H612 C574 0.929 . S
H613 C576 0.930 . S
H614 C582 0.929 . S
H615 C583 0.930 . S
Li616 N633 1.990 . S
Li616 O676 1.956 . S
Li616 O677 1.970 . S
Li616 O678 1.961 . S
Li617 N641 1.990 . S
Li617 O676 1.970 . S
Li617 O677 1.956 . S
Li617 O679 1.961 . S
Li618 N663 1.990 . S
Li618 O676 1.961 . S
Li618 O678 1.956 . S
Li618 O679 1.970 . S
Li619 N669 1.990 . S
Li619 O677 1.961 . S
Li619 O678 1.970 . S
Li619 O679 1.956 . S
C620 C622 1.348 . S
C620 C623 1.356 . S
C620 O676 1.325 1_545 S
N621 C624 1.314 . S
N621 C625 1.279 . S
C622 C620 1.348 . S
C622 C624 1.353 . S
C622 H680 0.929 . S
C623 C620 1.356 . S
C623 C625 1.358 . S
C623 H681 0.930 . S
C624 N621 1.314 . S
C624 C622 1.353 . S
C624 H682 0.930 . S
C625 N621 1.279 . S
C625 C623 1.358 . S
C625 H683 0.930 . S
C626 C629 1.348 . S
C626 C630 1.356 . S
C626 O677 1.325 . S
C627 N628 1.279 . S
C627 C630 1.358 . S
C627 H684 0.930 . S
N628 C627 1.279 . S
N628 C631 1.314 . S
C629 C626 1.348 . S
C629 C631 1.353 . S
C629 H685 0.929 . S
C630 C626 1.356 . S
C630 C627 1.358 . S
C630 H686 0.930 . S
C631 N628 1.314 . S
C631 C629 1.353 . S
C631 H687 0.930 . S
C632 N633 1.314 . S
C632 C637 1.353 . S
C632 H638 0.930 . S
N633 Li616 1.990 . S
N633 C632 1.314 . S
N633 C635 1.279 . S
C634 C635 1.358 . S
C634 C636 1.356 . S
C634 H688 0.930 1_565 S
C635 N633 1.279 . S
C635 C634 1.358 . S
C635 H639 0.945 . S
C636 C634 1.356 . S
C636 C637 1.348 . S
C637 C632 1.353 . S
C637 C636 1.348 . S
C637 H689 0.929 1_455 S
H638 C632 0.930 . S
H639 C635 0.945 . S
C640 N641 1.314 . S
C640 C642 1.353 . S
C640 H646 0.930 . S
N641 Li617 1.990 . S
N641 C640 1.314 . S
N641 C644 1.279 . S
C642 C640 1.353 . S
C642 C645 1.348 . S
C642 H690 0.929 . S
C643 C644 1.358 . S
C643 C645 1.356 . S
C643 H691 0.930 . S
C644 N641 1.279 . S
C644 C643 1.358 . S
C644 H647 0.930 . S
C645 C642 1.348 . S
C645 C643 1.356 . S
H646 C640 0.930 . S
H647 C644 0.930 . S
C648 C650 1.348 1_455 S
C648 C651 1.356 1_455 S
C648 O678 1.325 . S
N649 C652 1.314 . S
N649 C653 1.279 . S
C650 C648 1.348 1_655 S
C650 C652 1.353 . S
C650 H692 0.929 1_655 S
C651 C648 1.356 1_655 S
C651 C653 1.358 . S
C651 H693 0.930 . S
C652 N649 1.314 . S
C652 C650 1.353 . S
C652 H694 0.930 . S
C653 N649 1.279 . S
C653 C651 1.358 . S
C653 H695 0.930 . S
C654 C655 1.348 . S
C654 C656 1.356 . S
C654 O679 1.325 . S
C655 C654 1.348 . S
C655 C657 1.353 . S
C655 H696 0.929 . S
C656 C654 1.356 . S
C656 C658 1.358 . S
C656 H697 0.930 . S
C657 C655 1.353 . S
C657 N659 1.314 . S
C657 H698 0.930 . S
C658 C656 1.358 . S
C658 N659 1.279 . S
C658 H699 0.930 . S
N659 C657 1.314 . S
N659 C658 1.279 . S
C660 C662 1.353 1_565 S
C660 N663 1.314 . S
C660 H666 0.935 . S
C661 N663 1.279 . S
C661 C664 1.358 1_455 S
C661 H667 0.914 1_455 S
C662 C660 1.353 1_545 S
C662 C665 1.359 . S
C662 H700 0.929 . S
N663 Li618 1.990 . S
N663 C660 1.314 . S
N663 C661 1.279 . S
C664 C661 1.358 1_655 S
C664 C665 1.328 1_665 S
C664 H701 0.930 . S
C665 C662 1.359 . S
C665 C664 1.328 1_445 S
H666 C660 0.935 . S
H667 C661 0.914 1_655 S
C668 N669 1.314 . S
C668 C670 1.353 . S
C668 H674 0.930 . S
N669 Li619 1.990 . S
N669 C668 1.314 . S
N669 C672 1.279 . S
C670 C668 1.353 . S
C670 C673 1.348 . S
C670 H702 0.929 . S
C671 C672 1.358 . S
C671 C673 1.356 . S
C671 H703 0.930 . S
C672 N669 1.279 . S
C672 C671 1.358 . S
C672 H675 0.930 . S
C673 C670 1.348 . S
C673 C671 1.356 . S
H674 C668 0.930 . S
H675 C672 0.930 . S
O676 Li616 1.956 . S
O676 Li617 1.970 . S
O676 Li618 1.961 . S
O676 C620 1.325 1_565 S
O677 Li616 1.970 . S
O677 Li617 1.956 . S
O677 Li619 1.961 . S
O677 C626 1.325 . S
O678 Li616 1.961 . S
O678 Li618 1.956 . S
O678 Li619 1.970 . S
O678 C648 1.325 . S
O679 Li617 1.961 . S
O679 Li618 1.970 . S
O679 Li619 1.956 . S
O679 C654 1.325 . S
H680 C622 0.929 . S
H681 C623 0.930 . S
H682 C624 0.930 . S
H683 C625 0.930 . S
H684 C627 0.930 . S
H685 C629 0.929 . S
H686 C630 0.930 . S
H687 C631 0.930 . S
H688 C634 0.930 1_545 S
H689 C637 0.929 1_655 S
H690 C642 0.929 . S
H691 C643 0.930 . S
H692 C650 0.929 1_455 S
H693 C651 0.930 . S
H694 C652 0.930 . S
H695 C653 0.930 . S
H696 C655 0.929 . S
H697 C656 0.930 . S
H698 C657 0.930 . S
H699 C658 0.930 . S
H700 C662 0.929 . S
H701 C664 0.930 . S
H702 C670 0.929 . S
H703 C671 0.930 . S
Li704 N721 1.990 . S
Li704 O764 1.956 . S
Li704 O765 1.970 . S
Li704 O766 1.961 . S
Li705 N729 1.990 . S
Li705 O764 1.970 . S
Li705 O765 1.956 . S
Li705 O767 1.961 . S
Li706 N751 1.990 . S
Li706 O764 1.961 . S
Li706 O766 1.956 . S
Li706 O767 1.970 . S
Li707 N757 1.990 . S
Li707 O765 1.961 . S
Li707 O766 1.970 . S
Li707 O767 1.956 . S
C708 C710 1.348 . S
C708 C711 1.356 . S
C708 O764 1.325 . S
N709 C712 1.314 . S
N709 C713 1.279 . S
C710 C708 1.348 . S
C710 C712 1.353 . S
C710 H768 0.929 . S
C711 C708 1.356 . S
C711 C713 1.358 . S
C711 H769 0.930 . S
C712 N709 1.314 . S
C712 C710 1.353 . S
C712 H770 0.930 . S
C713 N709 1.279 . S
C713 C711 1.358 . S
C713 H771 0.930 . S
C714 C717 1.348 . S
C714 C718 1.356 . S
C714 O765 1.325 . S
C715 N716 1.279 . S
C715 C718 1.358 . S
C715 H772 0.930 . S
N716 C715 1.279 . S
N716 C719 1.314 . S
C717 C714 1.348 . S
C717 C719 1.353 . S
C717 H773 0.929 . S
C718 C714 1.356 . S
C718 C715 1.358 . S
C718 H774 0.930 . S
C719 N716 1.314 . S
C719 C717 1.353 . S
C719 H775 0.930 . S
C720 N721 1.314 . S
C720 C725 1.353 . S
C720 H726 0.930 . S
N721 Li704 1.990 . S
N721 C720 1.314 . S
N721 C723 1.279 . S
C722 C723 1.358 . S
C722 C724 1.356 . S
C722 H776 0.930 . S
C723 N721 1.279 . S
C723 C722 1.358 . S
C723 H727 0.930 . S
C724 C722 1.356 . S
C724 C725 1.348 . S
C725 C720 1.353 . S
C725 C724 1.348 . S
C725 H777 0.929 . S
H726 C720 0.930 . S
H727 C723 0.930 . S
C728 N729 1.314 . S
C728 C730 1.353 . S
C728 H734 0.930 . S
N729 Li705 1.990 . S
N729 C728 1.314 . S
N729 C732 1.279 . S
C730 C728 1.353 . S
C730 C733 1.348 . S
C730 H778 0.929 . S
C731 C732 1.358 . S
C731 C733 1.356 . S
C731 H779 0.930 . S
C732 N729 1.279 . S
C732 C731 1.358 . S
C732 H735 0.930 . S
C733 C730 1.348 . S
C733 C731 1.356 . S
H734 C728 0.930 . S
H735 C732 0.930 . S
C736 C738 1.348 . S
C736 C739 1.356 . S
C736 O766 1.325 . S
N737 C740 1.314 . S
N737 C741 1.279 . S
C738 C736 1.348 . S
C738 C740 1.353 . S
C738 H780 0.929 . S
C739 C736 1.356 . S
C739 C741 1.358 . S
C739 H781 0.930 . S
C740 N737 1.314 . S
C740 C738 1.353 . S
C740 H782 0.930 . S
C741 N737 1.279 . S
C741 C739 1.358 . S
C741 H783 0.930 . S
C742 C743 1.348 . S
C742 C744 1.356 . S
C742 O767 1.325 . S
C743 C742 1.348 . S
C743 C745 1.353 . S
C743 H784 0.929 . S
C744 C742 1.356 . S
C744 C746 1.358 . S
C744 H785 0.930 . S
C745 C743 1.353 . S
C745 N747 1.314 . S
C745 H786 0.930 . S
C746 C744 1.358 . S
C746 N747 1.279 . S
C746 H787 0.930 . S
N747 C745 1.314 . S
N747 C746 1.279 . S
C748 C750 1.353 . S
C748 N751 1.314 . S
C748 H754 0.930 . S
C749 N751 1.279 . S
C749 C752 1.358 . S
C749 H755 0.930 . S
C750 C748 1.353 . S
C750 C753 1.348 . S
C750 H788 0.929 . S
N751 Li706 1.990 . S
N751 C748 1.314 . S
N751 C749 1.279 . S
C752 C749 1.358 . S
C752 C753 1.356 . S
C752 H789 0.930 . S
C753 C750 1.348 . S
C753 C752 1.356 . S
H754 C748 0.930 . S
H755 C749 0.930 . S
C756 N757 1.314 . S
C756 C758 1.353 . S
C756 H762 0.930 . S
N757 Li707 1.990 . S
N757 C756 1.314 . S
N757 C760 1.279 . S
C758 C756 1.353 . S
C758 C761 1.348 . S
C758 H790 0.929 . S
C759 C760 1.358 . S
C759 C761 1.356 . S
C759 H791 0.930 . S
C760 N757 1.279 . S
C760 C759 1.358 . S
C760 H763 0.930 . S
C761 C758 1.348 . S
C761 C759 1.356 . S
H762 C756 0.930 . S
H763 C760 0.930 . S
O764 Li704 1.956 . S
O764 Li705 1.970 . S
O764 Li706 1.961 . S
O764 C708 1.325 . S
O765 Li704 1.970 . S
O765 Li705 1.956 . S
O765 Li707 1.961 . S
O765 C714 1.325 . S
O766 Li704 1.961 . S
O766 Li706 1.956 . S
O766 Li707 1.970 . S
O766 C736 1.325 . S
O767 Li705 1.961 . S
O767 Li706 1.970 . S
O767 Li707 1.956 . S
O767 C742 1.325 . S
H768 C710 0.929 . S
H769 C711 0.930 . S
H770 C712 0.930 . S
H771 C713 0.930 . S
H772 C715 0.930 . S
H773 C717 0.929 . S
H774 C718 0.930 . S
H775 C719 0.930 . S
H776 C722 0.930 . S
H777 C725 0.929 . S
H778 C730 0.929 . S
H779 C731 0.930 . S
H780 C738 0.929 . S
H781 C739 0.930 . S
H782 C740 0.930 . S
H783 C741 0.930 . S
H784 C743 0.929 . S
H785 C744 0.930 . S
H786 C745 0.930 . S
H787 C746 0.930 . S
H788 C750 0.929 . S
H789 C752 0.930 . S
H790 C758 0.929 . S
H791 C759 0.930 . S
Li792 N809 1.990 . S
Li792 O852 1.956 . S
Li792 O853 1.970 . S
Li792 O854 1.961 . S
Li793 N817 1.990 . S
Li793 O852 1.970 . S
Li793 O853 1.956 . S
Li793 O855 1.961 . S
Li794 N839 1.990 . S
Li794 O852 1.961 . S
Li794 O854 1.956 . S
Li794 O855 1.970 . S
Li795 N845 1.990 . S
Li795 O853 1.961 . S
Li795 O854 1.970 . S
Li795 O855 1.956 . S
C796 C798 1.348 . S
C796 C799 1.356 . S
C796 O852 1.325 . S
N797 C800 1.314 . S
N797 C801 1.279 . S
C798 C796 1.348 . S
C798 C800 1.353 . S
C798 H856 0.929 . S
C799 C796 1.356 . S
C799 C801 1.358 . S
C799 H857 0.930 . S
C800 N797 1.314 . S
C800 C798 1.353 . S
C800 H858 0.930 . S
C801 N797 1.279 . S
C801 C799 1.358 . S
C801 H859 0.930 . S
C802 C805 1.348 1_655 S
C802 C806 1.356 1_655 S
C802 O853 1.325 . S
C803 N804 1.279 . S
C803 C806 1.358 . S
C803 H860 0.930 . S
N804 C803 1.279 . S
N804 C807 1.314 . S
C805 C802 1.348 1_455 S
C805 C807 1.353 . S
C805 H861 0.929 1_455 S
C806 C802 1.356 1_455 S
C806 C803 1.358 . S
C806 H862 0.930 . S
C807 N804 1.314 . S
C807 C805 1.353 . S
C807 H863 0.930 . S
C808 N809 1.314 . S
C808 C813 1.353 . S
C808 H814 0.930 . S
N809 Li792 1.990 . S
N809 C808 1.314 . S
N809 C811 1.279 . S
C810 C811 1.358 . S
C810 C812 1.356 . S
C810 H864 0.930 . S
C811 N809 1.279 . S
C811 C810 1.358 . S
C811 H815 0.930 . S
C812 C810 1.356 . S
C812 C813 1.348 . S
C813 C808 1.353 . S
C813 C812 1.348 . S
C813 H865 0.929 . S
H814 C808 0.930 . S
H815 C811 0.930 . S
C816 N817 1.314 . S
C816 C818 1.353 . S
C816 H822 0.930 . S
N817 Li793 1.990 . S
N817 C816 1.314 . S
N817 C820 1.279 . S
C818 C816 1.353 . S
C818 C821 1.348 . S
C818 H866 0.929 . S
C819 C820 1.360 . S
C819 C821 1.358 . S
C819 H867 0.926 1_655 S
C820 N817 1.279 . S
C820 C819 1.360 . S
C820 H823 0.930 . S
C821 C818 1.348 . S
C821 C819 1.358 . S
H822 C816 0.930 . S
H823 C820 0.930 . S
C824 C826 1.348 . S
C824 C827 1.356 . S
C824 O854 1.325 . S
N825 C828 1.314 . S
N825 C829 1.279 . S
C826 C824 1.348 . S
C826 C828 1.353 . S
C826 H868 0.929 . S
C827 C824 1.356 . S
C827 C829 1.358 . S
C827 H869 0.930 . S
C828 N825 1.314 . S
C828 C826 1.353 . S
C828 H870 0.930 . S
C829 N825 1.279 . S
C829 C827 1.358 . S
C829 H871 0.930 . S
C830 C831 1.348 . S
C830 C832 1.356 . S
C830 O855 1.325 . S
C831 C830 1.348 . S
C831 C833 1.353 . S
C831 H872 0.929 . S
C832 C830 1.356 . S
C832 C834 1.358 . S
C832 H873 0.930 . S
C833 C831 1.353 . S
C833 N835 1.314 . S
C833 H874 0.930 . S
C834 C832 1.358 . S
C834 N835 1.279 . S
C834 H875 0.930 . S
N835 C833 1.314 . S
N835 C834 1.279 . S
C836 C838 1.353 . S
C836 N839 1.314 . S
C836 H842 0.930 . S
C837 N839 1.279 . S
C837 C840 1.358 . S
C837 H843 0.930 . S
C838 C836 1.353 . S
C838 C841 1.348 . S
C838 H876 0.929 . S
N839 Li794 1.990 . S
N839 C836 1.314 . S
N839 C837 1.279 . S
C840 C837 1.358 . S
C840 C841 1.356 . S
C840 H877 0.930 . S
C841 C838 1.348 . S
C841 C840 1.356 . S
H842 C836 0.930 . S
H843 C837 0.930 . S
C844 N845 1.314 . S
C844 C846 1.353 . S
C844 H850 0.930 . S
N845 Li795 1.990 . S
N845 C844 1.314 . S
N845 C848 1.279 . S
C846 C844 1.353 . S
C846 C849 1.348 . S
C846 H878 0.929 1_655 S
C847 C848 1.358 . S
C847 C849 1.356 . S
C847 H879 0.930 . S
C848 N845 1.279 . S
C848 C847 1.358 . S
C848 H851 0.930 . S
C849 C846 1.348 . S
C849 C847 1.356 . S
H850 C844 0.930 . S
H851 C848 0.930 . S
O852 Li792 1.956 . S
O852 Li793 1.970 . S
O852 Li794 1.961 . S
O852 C796 1.325 . S
O853 Li792 1.970 . S
O853 Li793 1.956 . S
O853 Li795 1.961 . S
O853 C802 1.325 . S
O854 Li792 1.961 . S
O854 Li794 1.956 . S
O854 Li795 1.970 . S
O854 C824 1.325 . S
O855 Li793 1.961 . S
O855 Li794 1.970 . S
O855 Li795 1.956 . S
O855 C830 1.325 . S
H856 C798 0.929 . S
H857 C799 0.930 . S
H858 C800 0.930 . S
H859 C801 0.930 . S
H860 C803 0.930 . S
H861 C805 0.929 1_655 S
H862 C806 0.930 . S
H863 C807 0.930 . S
H864 C810 0.930 . S
H865 C813 0.929 . S
H866 C818 0.929 . S
H867 C819 0.926 1_455 S
H868 C826 0.929 . S
H869 C827 0.930 . S
H870 C828 0.930 . S
H871 C829 0.930 . S
H872 C831 0.929 . S
H873 C832 0.930 . S
H874 C833 0.930 . S
H875 C834 0.930 . S
H876 C838 0.929 . S
H877 C840 0.930 . S
H878 C846 0.929 1_455 S
H879 C847 0.930 . S
Li880 N897 1.990 . S
Li880 O940 1.956 . S
Li880 O941 1.970 . S
Li880 O942 1.961 . S
Li881 N905 1.990 . S
Li881 O940 1.970 . S
Li881 O941 1.956 . S
Li881 O943 1.961 . S
Li882 N927 1.990 . S
Li882 O940 1.961 . S
Li882 O942 1.956 . S
Li882 O943 1.970 . S
Li883 N933 1.990 . S
Li883 O941 1.961 . S
Li883 O942 1.970 . S
Li883 O943 1.956 . S
C884 C886 1.348 . S
C884 C887 1.356 . S
C884 O940 1.325 . S
N885 C888 1.314 . S
N885 C889 1.279 . S
C886 C884 1.348 . S
C886 C888 1.353 . S
C886 H944 0.929 . S
C887 C884 1.356 . S
C887 C889 1.358 . S
C887 H945 0.930 . S
C888 N885 1.314 . S
C888 C886 1.353 . S
C888 H946 0.930 . S
C889 N885 1.279 . S
C889 C887 1.358 . S
C889 H947 0.930 . S
C890 C893 1.348 . S
C890 C894 1.356 . S
C890 O941 1.325 . S
C891 N892 1.279 . S
C891 C894 1.358 . S
C891 H948 0.930 . S
N892 C891 1.279 . S
N892 C895 1.314 . S
C893 C890 1.348 . S
C893 C895 1.353 . S
C893 H949 0.929 . S
C894 C890 1.356 . S
C894 C891 1.358 . S
C894 H950 0.930 . S
C895 N892 1.314 . S
C895 C893 1.353 . S
C895 H951 0.930 . S
C896 N897 1.314 . S
C896 C901 1.353 . S
C896 H902 0.930 . S
N897 Li880 1.990 . S
N897 C896 1.314 . S
N897 C899 1.279 . S
C898 C899 1.358 . S
C898 C900 1.356 . S
C898 H952 0.930 . S
C899 N897 1.279 . S
C899 C898 1.358 . S
C899 H903 0.930 . S
C900 C898 1.356 . S
C900 C901 1.348 . S
C901 C896 1.353 . S
C901 C900 1.348 . S
C901 H953 0.929 1_455 S
H902 C896 0.930 . S
H903 C899 0.930 . S
C904 N905 1.314 . S
C904 C906 1.353 . S
C904 H910 0.930 . S
N905 Li881 1.990 . S
N905 C904 1.314 . S
N905 C908 1.279 . S
C906 C904 1.353 . S
C906 C909 1.348 . S
C906 H954 0.929 . S
C907 C908 1.358 . S
C907 C909 1.356 . S
C907 H955 0.930 . S
C908 N905 1.279 . S
C908 C907 1.358 . S
C908 H911 0.930 . S
C909 C906 1.348 . S
C909 C907 1.356 . S
H910 C904 0.930 . S
H911 C908 0.930 . S
C912 C914 1.348 1_455 S
C912 C915 1.356 1_455 S
C912 O942 1.325 . S
N913 C916 1.314 . S
N913 C917 1.279 . S
C914 C912 1.348 1_655 S
C914 C916 1.353 . S
C914 H956 0.929 1_655 S
C915 C912 1.356 1_655 S
C915 C917 1.358 . S
C915 H957 0.930 . S
C916 N913 1.314 . S
C916 C914 1.353 . S
C916 H958 0.930 . S
C917 N913 1.279 . S
C917 C915 1.358 . S
C917 H959 0.930 . S
C918 C919 1.348 . S
C918 C920 1.356 . S
C918 O943 1.325 . S
C919 C918 1.348 . S
C919 C921 1.353 . S
C919 H960 0.929 . S
C920 C918 1.356 . S
C920 C922 1.358 . S
C920 H961 0.930 . S
C921 C919 1.353 . S
C921 N923 1.314 . S
C921 H962 0.930 . S
C922 C920 1.358 . S
C922 N923 1.279 . S
C922 H963 0.930 . S
N923 C921 1.314 . S
N923 C922 1.279 . S
C924 C926 1.353 . S
C924 N927 1.314 . S
C924 H930 0.930 . S
C925 N927 1.279 . S
C925 C928 1.360 . S
C925 H931 0.930 . S
C926 C924 1.353 . S
C926 C929 1.348 . S
C926 H964 0.929 . S
N927 Li882 1.990 . S
N927 C924 1.314 . S
N927 C925 1.279 . S
C928 C925 1.360 . S
C928 C929 1.358 . S
C928 H965 0.926 1_455 S
C929 C926 1.348 . S
C929 C928 1.358 . S
H930 C924 0.930 . S
H931 C925 0.930 . S
C932 N933 1.314 . S
C932 C934 1.353 . S
C932 H938 0.930 . S
N933 Li883 1.990 . S
N933 C932 1.314 . S
N933 C936 1.279 . S
C934 C932 1.353 . S
C934 C937 1.348 . S
C934 H966 0.929 . S
C935 C936 1.358 . S
C935 C937 1.356 . S
C935 H967 0.930 . S
C936 N933 1.279 . S
C936 C935 1.358 . S
C936 H939 0.930 . S
C937 C934 1.348 . S
C937 C935 1.356 . S
H938 C932 0.930 . S
H939 C936 0.930 . S
O940 Li880 1.956 . S
O940 Li881 1.970 . S
O940 Li882 1.961 . S
O940 C884 1.325 . S
O941 Li880 1.970 . S
O941 Li881 1.956 . S
O941 Li883 1.961 . S
O941 C890 1.325 . S
O942 Li880 1.961 . S
O942 Li882 1.956 . S
O942 Li883 1.970 . S
O942 C912 1.325 . S
O943 Li881 1.961 . S
O943 Li882 1.970 . S
O943 Li883 1.956 . S
O943 C918 1.325 . S
H944 C886 0.929 . S
H945 C887 0.930 . S
H946 C888 0.930 . S
H947 C889 0.930 . S
H948 C891 0.930 . S
H949 C893 0.929 . S
H950 C894 0.930 . S
H951 C895 0.930 . S
H952 C898 0.930 . S
H953 C901 0.929 1_655 S
H954 C906 0.929 . S
H955 C907 0.930 . S
H956 C914 0.929 1_455 S
H957 C915 0.930 . S
H958 C916 0.930 . S
H959 C917 0.930 . S
H960 C919 0.929 . S
H961 C920 0.930 . S
H962 C921 0.930 . S
H963 C922 0.930 . S
H964 C926 0.929 . S
H965 C928 0.926 1_655 S
H966 C934 0.929 . S
H967 C935 0.930 . S
Li968 N985 1.990 . S
Li968 O1028 1.956 . S
Li968 O1029 1.970 . S
Li968 O1030 1.961 . S
Li969 N993 1.990 . S
Li969 O1028 1.970 . S
Li969 O1029 1.956 . S
Li969 O1031 1.961 . S
Li970 N1015 1.990 . S
Li970 O1028 1.961 . S
Li970 O1030 1.956 . S
Li970 O1031 1.970 . S
Li971 N1021 1.990 . S
Li971 O1029 1.961 . S
Li971 O1030 1.970 . S
Li971 O1031 1.956 . S
C972 C974 1.348 . S
C972 C975 1.356 . S
C972 O1028 1.325 . S
N973 C976 1.314 . S
N973 C977 1.279 . S
C974 C972 1.348 . S
C974 C976 1.353 . S
C974 H1032 0.929 . S
C975 C972 1.356 . S
C975 C977 1.358 . S
C975 H1033 0.930 . S
C976 N973 1.314 . S
C976 C974 1.353 . S
C976 H1034 0.930 . S
C977 N973 1.279 . S
C977 C975 1.358 . S
C977 H1035 0.930 . S
C978 C981 1.348 . S
C978 C982 1.356 . S
C978 O1029 1.325 . S
C979 N980 1.279 . S
C979 C982 1.358 . S
C979 H1036 0.930 . S
N980 C979 1.279 . S
N980 C983 1.314 . S
C981 C978 1.348 . S
C981 C983 1.353 . S
C981 H1037 0.929 . S
C982 C978 1.356 . S
C982 C979 1.358 . S
C982 H1038 0.930 . S
C983 N980 1.314 . S
C983 C981 1.353 . S
C983 H1039 0.930 . S
C984 N985 1.314 . S
C984 C989 1.353 . S
C984 H990 0.930 . S
N985 Li968 1.990 . S
N985 C984 1.314 . S
N985 C987 1.279 . S
C986 C987 1.358 . S
C986 C988 1.356 . S
C986 H1040 0.930 . S
C987 N985 1.279 . S
C987 C986 1.358 . S
C987 H991 0.930 . S
C988 C986 1.356 . S
C988 C989 1.348 . S
C989 C984 1.353 . S
C989 C988 1.348 . S
C989 H1041 0.929 . S
H990 C984 0.930 . S
H991 C987 0.930 . S
C992 N993 1.314 . S
C992 C994 1.353 . S
C992 H998 0.930 . S
N993 Li969 1.990 . S
N993 C992 1.314 . S
N993 C996 1.279 . S
C994 C992 1.353 . S
C994 C997 1.348 . S
C994 H1042 0.929 . S
C995 C996 1.358 . S
C995 C997 1.356 . S
C995 H1043 0.930 . S
C996 N993 1.279 . S
C996 C995 1.358 . S
C996 H999 0.930 . S
C997 C994 1.348 . S
C997 C995 1.356 . S
H998 C992 0.930 . S
H999 C996 0.930 . S
C1000 C1002 1.348 . S
C1000 C1003 1.356 . S
C1000 O1030 1.325 . S
N1001 C1004 1.314 . S
N1001 C1005 1.279 . S
C1002 C1000 1.348 . S
C1002 C1004 1.353 . S
C1002 H1044 0.929 . S
C1003 C1000 1.356 . S
C1003 C1005 1.358 . S
C1003 H1045 0.930 . S
C1004 N1001 1.314 . S
C1004 C1002 1.353 . S
C1004 H1046 0.930 . S
C1005 N1001 1.279 . S
C1005 C1003 1.358 . S
C1005 H1047 0.930 . S
C1006 C1007 1.348 . S
C1006 C1008 1.356 . S
C1006 O1031 1.325 . S
C1007 C1006 1.348 . S
C1007 C1009 1.353 . S
C1007 H1048 0.929 . S
C1008 C1006 1.356 . S
C1008 C1010 1.358 . S
C1008 H1049 0.930 . S
C1009 C1007 1.353 . S
C1009 N1011 1.314 . S
C1009 H1050 0.930 . S
C1010 C1008 1.358 . S
C1010 N1011 1.279 . S
C1010 H1051 0.930 . S
N1011 C1009 1.314 . S
N1011 C1010 1.279 . S
C1012 C1014 1.353 . S
C1012 N1015 1.314 . S
C1012 H1018 0.930 . S
C1013 N1015 1.279 . S
C1013 C1016 1.358 . S
C1013 H1019 0.930 . S
C1014 C1012 1.353 . S
C1014 C1017 1.348 . S
C1014 H1052 0.929 . S
N1015 Li970 1.990 . S
N1015 C1012 1.314 . S
N1015 C1013 1.279 . S
C1016 C1013 1.358 . S
C1016 C1017 1.356 . S
C1016 H1053 0.930 . S
C1017 C1014 1.348 . S
C1017 C1016 1.356 . S
H1018 C1012 0.930 . S
H1019 C1013 0.930 . S
C1020 N1021 1.314 . S
C1020 C1022 1.353 . S
C1020 H1026 0.930 . S
N1021 Li971 1.990 . S
N1021 C1020 1.314 . S
N1021 C1024 1.279 . S
C1022 C1020 1.353 . S
C1022 C1025 1.348 . S
C1022 H1054 0.929 . S
C1023 C1024 1.358 . S
C1023 C1025 1.356 . S
C1023 H1055 0.930 . S
C1024 N1021 1.279 . S
C1024 C1023 1.358 . S
C1024 H1027 0.930 . S
C1025 C1022 1.348 . S
C1025 C1023 1.356 . S
H1026 C1020 0.930 . S
H1027 C1024 0.930 . S
O1028 Li968 1.956 . S
O1028 Li969 1.970 . S
O1028 Li970 1.961 . S
O1028 C972 1.325 . S
O1029 Li968 1.970 . S
O1029 Li969 1.956 . S
O1029 Li971 1.961 . S
O1029 C978 1.325 . S
O1030 Li968 1.961 . S
O1030 Li970 1.956 . S
O1030 Li971 1.970 . S
O1030 C1000 1.325 . S
O1031 Li969 1.961 . S
O1031 Li970 1.970 . S
O1031 Li971 1.956 . S
O1031 C1006 1.325 . S
H1032 C974 0.929 . S
H1033 C975 0.930 . S
H1034 C976 0.930 . S
H1035 C977 0.930 . S
H1036 C979 0.930 . S
H1037 C981 0.929 . S
H1038 C982 0.930 . S
H1039 C983 0.930 . S
H1040 C986 0.930 . S
H1041 C989 0.929 . S
H1042 C994 0.929 . S
H1043 C995 0.930 . S
H1044 C1002 0.929 . S
H1045 C1003 0.930 . S
H1046 C1004 0.930 . S
H1047 C1005 0.930 . S
H1048 C1007 0.929 . S
H1049 C1008 0.930 . S
H1050 C1009 0.930 . S
H1051 C1010 0.930 . S
H1052 C1014 0.929 . S
H1053 C1016 0.930 . S
H1054 C1022 0.929 . S
H1055 C1023 0.930 . S
Li1056 N1073 1.990 . S
Li1056 O1116 1.956 . S
Li1056 O1117 1.970 . S
Li1056 O1118 1.961 . S
Li1057 N1081 1.990 . S
Li1057 O1116 1.970 . S
Li1057 O1117 1.956 . S
Li1057 O1119 1.961 . S
Li1058 N1103 1.990 . S
Li1058 O1116 1.961 . S
Li1058 O1118 1.956 . S
Li1058 O1119 1.970 . S
Li1059 N1109 1.990 . S
Li1059 O1117 1.961 . S
Li1059 O1118 1.970 . S
Li1059 O1119 1.956 . S
C1060 C1062 1.348 . S
C1060 C1063 1.356 . S
C1060 O1116 1.325 . S
N1061 C1064 1.314 . S
N1061 C1065 1.279 . S
C1062 C1060 1.348 . S
C1062 C1064 1.353 . S
C1062 H1120 0.929 . S
C1063 C1060 1.356 . S
C1063 C1065 1.358 . S
C1063 H1121 0.930 . S
C1064 N1061 1.314 . S
C1064 C1062 1.353 . S
C1064 H1122 0.930 . S
C1065 N1061 1.279 . S
C1065 C1063 1.358 . S
C1065 H1123 0.930 . S
C1066 C1069 1.348 . S
C1066 C1070 1.356 . S
C1066 O1117 1.325 . S
C1067 N1068 1.279 . S
C1067 C1070 1.358 . S
C1067 H1124 0.930 . S
N1068 C1067 1.279 . S
N1068 C1071 1.314 . S
C1069 C1066 1.348 . S
C1069 C1071 1.353 . S
C1069 H1125 0.929 . S
C1070 C1066 1.356 . S
C1070 C1067 1.358 . S
C1070 H1126 0.930 . S
C1071 N1068 1.314 . S
C1071 C1069 1.353 . S
C1071 H1127 0.930 . S
C1072 N1073 1.314 . S
C1072 C1077 1.353 . S
C1072 H1078 0.930 . S
N1073 Li1056 1.990 . S
N1073 C1072 1.314 . S
N1073 C1075 1.279 . S
C1074 C1075 1.358 . S
C1074 C1076 1.356 . S
C1074 H1128 0.930 . S
C1075 N1073 1.279 . S
C1075 C1074 1.358 . S
C1075 H1079 0.930 . S
C1076 C1074 1.356 . S
C1076 C1077 1.348 . S
C1077 C1072 1.353 . S
C1077 C1076 1.348 . S
C1077 H1129 0.929 . S
H1078 C1072 0.930 . S
H1079 C1075 0.930 . S
C1080 N1081 1.314 . S
C1080 C1082 1.353 . S
C1080 H1086 0.930 . S
N1081 Li1057 1.990 . S
N1081 C1080 1.314 . S
N1081 C1084 1.279 . S
C1082 C1080 1.353 . S
C1082 C1085 1.348 . S
C1082 H1130 0.929 . S
C1083 C1084 1.358 . S
C1083 C1085 1.356 . S
C1083 H1131 0.930 . S
C1084 N1081 1.279 . S
C1084 C1083 1.358 . S
C1084 H1087 0.930 . S
C1085 C1082 1.348 . S
C1085 C1083 1.356 . S
H1086 C1080 0.930 . S
H1087 C1084 0.930 . S
C1088 C1090 1.348 . S
C1088 C1091 1.356 . S
C1088 O1118 1.325 . S
N1089 C1092 1.314 . S
N1089 C1093 1.279 . S
C1090 C1088 1.348 . S
C1090 C1092 1.353 . S
C1090 H1132 0.929 . S
C1091 C1088 1.356 . S
C1091 C1093 1.358 . S
C1091 H1133 0.930 . S
C1092 N1089 1.314 . S
C1092 C1090 1.353 . S
C1092 H1134 0.930 . S
C1093 N1089 1.279 . S
C1093 C1091 1.358 . S
C1093 H1135 0.930 . S
C1094 C1095 1.348 . S
C1094 C1096 1.356 . S
C1094 O1119 1.325 . S
C1095 C1094 1.348 . S
C1095 C1097 1.353 . S
C1095 H1136 0.929 . S
C1096 C1094 1.356 . S
C1096 C1098 1.358 . S
C1096 H1137 0.930 . S
C1097 C1095 1.353 . S
C1097 N1099 1.314 . S
C1097 H1138 0.930 . S
C1098 C1096 1.358 . S
C1098 N1099 1.279 . S
C1098 H1139 0.930 . S
N1099 C1097 1.314 . S
N1099 C1098 1.279 . S
C1100 C1102 1.353 . S
C1100 N1103 1.314 . S
C1100 H1106 0.930 . S
C1101 N1103 1.279 . S
C1101 C1104 1.358 . S
C1101 H1107 0.930 . S
C1102 C1100 1.353 . S
C1102 C1105 1.348 . S
C1102 H1140 0.929 . S
N1103 Li1058 1.990 . S
N1103 C1100 1.314 . S
N1103 C1101 1.279 . S
C1104 C1101 1.358 . S
C1104 C1105 1.356 . S
C1104 H1141 0.930 . S
C1105 C1102 1.348 . S
C1105 C1104 1.356 . S
H1106 C1100 0.930 . S
H1107 C1101 0.930 . S
C1108 N1109 1.314 . S
C1108 C1110 1.353 . S
C1108 H1114 0.930 . S
N1109 Li1059 1.990 . S
N1109 C1108 1.314 . S
N1109 C1112 1.279 . S
C1110 C1108 1.353 . S
C1110 C1113 1.348 . S
C1110 H1142 0.929 . S
C1111 C1112 1.358 . S
C1111 C1113 1.356 . S
C1111 H1143 0.930 . S
C1112 N1109 1.279 . S
C1112 C1111 1.358 . S
C1112 H1115 0.930 . S
C1113 C1110 1.348 . S
C1113 C1111 1.356 . S
H1114 C1108 0.930 . S
H1115 C1112 0.930 . S
O1116 Li1056 1.956 . S
O1116 Li1057 1.970 . S
O1116 Li1058 1.961 . S
O1116 C1060 1.325 . S
O1117 Li1056 1.970 . S
O1117 Li1057 1.956 . S
O1117 Li1059 1.961 . S
O1117 C1066 1.325 . S
O1118 Li1056 1.961 . S
O1118 Li1058 1.956 . S
O1118 Li1059 1.970 . S
O1118 C1088 1.325 . S
O1119 Li1057 1.961 . S
O1119 Li1058 1.970 . S
O1119 Li1059 1.956 . S
O1119 C1094 1.325 . S
H1120 C1062 0.929 . S
H1121 C1063 0.930 . S
H1122 C1064 0.930 . S
H1123 C1065 0.930 . S
H1124 C1067 0.930 . S
H1125 C1069 0.929 . S
H1126 C1070 0.930 . S
H1127 C1071 0.930 . S
H1128 C1074 0.930 . S
H1129 C1077 0.929 . S
H1130 C1082 0.929 . S
H1131 C1083 0.930 . S
H1132 C1090 0.929 . S
H1133 C1091 0.930 . S
H1134 C1092 0.930 . S
H1135 C1093 0.930 . S
H1136 C1095 0.929 . S
H1137 C1096 0.930 . S
H1138 C1097 0.930 . S
H1139 C1098 0.930 . S
H1140 C1102 0.929 . S
H1141 C1104 0.930 . S
H1142 C1110 0.929 . S
H1143 C1111 0.930 . S
Li1144 N1161 1.990 . S
Li1144 O1204 1.956 . S
Li1144 O1205 1.970 . S
Li1144 O1206 1.961 . S
Li1145 N1169 1.990 . S
Li1145 O1204 1.970 . S
Li1145 O1205 1.956 . S
Li1145 O1207 1.961 . S
Li1146 N1191 1.990 . S
Li1146 O1204 1.961 . S
Li1146 O1206 1.956 . S
Li1146 O1207 1.970 . S
Li1147 N1197 1.990 . S
Li1147 O1205 1.961 . S
Li1147 O1206 1.970 . S
Li1147 O1207 1.956 . S
C1148 C1150 1.348 1_455 S
C1148 C1151 1.356 1_455 S
C1148 O1204 1.325 . S
N1149 C1152 1.314 . S
N1149 C1153 1.279 . S
C1150 C1148 1.348 1_655 S
C1150 C1152 1.353 . S
C1150 H1208 0.929 1_655 S
C1151 C1148 1.356 1_655 S
C1151 C1153 1.358 . S
C1151 H1209 0.930 . S
C1152 N1149 1.314 . S
C1152 C1150 1.353 . S
C1152 H1210 0.930 . S
C1153 N1149 1.279 . S
C1153 C1151 1.358 . S
C1153 H1211 0.930 . S
C1154 C1157 1.348 . S
C1154 C1158 1.356 . S
C1154 O1205 1.325 . S
C1155 N1156 1.279 . S
C1155 C1158 1.358 . S
C1155 H1212 0.930 . S
N1156 C1155 1.279 . S
N1156 C1159 1.314 . S
C1157 C1154 1.348 . S
C1157 C1159 1.353 . S
C1157 H1213 0.929 . S
C1158 C1154 1.356 . S
C1158 C1155 1.358 . S
C1158 H1214 0.930 . S
C1159 N1156 1.314 . S
C1159 C1157 1.353 . S
C1159 H1215 0.930 . S
C1160 N1161 1.314 . S
C1160 C1165 1.353 . S
C1160 H1166 0.930 . S
N1161 Li1144 1.990 . S
N1161 C1160 1.314 . S
N1161 C1163 1.279 . S
C1162 C1163 1.358 1_655 S
C1162 C1164 1.356 1_655 S
C1162 H1216 0.930 . S
C1163 N1161 1.279 . S
C1163 C1162 1.358 1_455 S
C1163 H1167 0.914 1_455 S
C1164 C1162 1.356 1_455 S
C1164 C1165 1.348 . S
C1165 C1160 1.353 . S
C1165 C1164 1.348 . S
C1165 H1217 0.929 . S
H1166 C1160 0.930 . S
H1167 C1163 0.914 1_655 S
C1168 N1169 1.314 . S
C1168 C1170 1.353 . S
C1168 H1174 0.930 . S
N1169 Li1145 1.990 . S
N1169 C1168 1.314 . S
N1169 C1172 1.279 . S
C1170 C1168 1.353 . S
C1170 C1173 1.348 . S
C1170 H1218 0.929 . S
C1171 C1172 1.358 . S
C1171 C1173 1.356 . S
C1171 H1219 0.930 . S
C1172 N1169 1.279 . S
C1172 C1171 1.358 . S
C1172 H1175 0.930 . S
C1173 C1170 1.348 . S
C1173 C1171 1.356 . S
H1174 C1168 0.930 . S
H1175 C1172 0.930 . S
C1176 C1178 1.348 . S
C1176 C1179 1.356 . S
C1176 O1206 1.325 . S
N1177 C1180 1.314 . S
N1177 C1181 1.279 . S
C1178 C1176 1.348 . S
C1178 C1180 1.353 . S
C1178 H1220 0.929 . S
C1179 C1176 1.356 . S
C1179 C1181 1.358 . S
C1179 H1221 0.930 . S
C1180 N1177 1.314 . S
C1180 C1178 1.353 . S
C1180 H1222 0.930 . S
C1181 N1177 1.279 . S
C1181 C1179 1.358 . S
C1181 H1223 0.930 . S
C1182 C1183 1.348 . S
C1182 C1184 1.356 . S
C1182 O1207 1.325 . S
C1183 C1182 1.348 . S
C1183 C1185 1.353 . S
C1183 H1224 0.929 . S
C1184 C1182 1.356 . S
C1184 C1186 1.358 . S
C1184 H1225 0.930 . S
C1185 C1183 1.353 . S
C1185 N1187 1.314 . S
C1185 H1226 0.930 . S
C1186 C1184 1.358 . S
C1186 N1187 1.279 . S
C1186 H1227 0.930 . S
N1187 C1185 1.314 . S
N1187 C1186 1.279 . S
C1188 C1190 1.353 . S
C1188 N1191 1.314 . S
C1188 H1194 0.930 . S
C1189 N1191 1.279 . S
C1189 C1192 1.358 . S
C1189 H1195 0.930 . S
C1190 C1188 1.353 . S
C1190 C1193 1.348 . S
C1190 H1228 0.929 1_455 S
N1191 Li1146 1.990 . S
N1191 C1188 1.314 . S
N1191 C1189 1.279 . S
C1192 C1189 1.358 . S
C1192 C1193 1.356 . S
C1192 H1229 0.930 . S
C1193 C1190 1.348 . S
C1193 C1192 1.356 . S
H1194 C1188 0.930 . S
H1195 C1189 0.930 . S
C1196 N1197 1.314 . S
C1196 C1198 1.353 . S
C1196 H1202 0.930 . S
N1197 Li1147 1.990 . S
N1197 C1196 1.314 . S
N1197 C1200 1.279 . S
C1198 C1196 1.353 . S
C1198 C1201 1.348 . S
C1198 H1230 0.929 . S
C1199 C1200 1.358 . S
C1199 C1201 1.356 . S
C1199 H1231 0.930 . S
C1200 N1197 1.279 . S
C1200 C1199 1.358 . S
C1200 H1203 0.930 . S
C1201 C1198 1.348 . S
C1201 C1199 1.356 . S
H1202 C1196 0.930 . S
H1203 C1200 0.930 . S
O1204 Li1144 1.956 . S
O1204 Li1145 1.970 . S
O1204 Li1146 1.961 . S
O1204 C1148 1.325 . S
O1205 Li1144 1.970 . S
O1205 Li1145 1.956 . S
O1205 Li1147 1.961 . S
O1205 C1154 1.325 . S
O1206 Li1144 1.961 . S
O1206 Li1146 1.956 . S
O1206 Li1147 1.970 . S
O1206 C1176 1.325 . S
O1207 Li1145 1.961 . S
O1207 Li1146 1.970 . S
O1207 Li1147 1.956 . S
O1207 C1182 1.325 . S
H1208 C1150 0.929 1_455 S
H1209 C1151 0.930 . S
H1210 C1152 0.930 . S
H1211 C1153 0.930 . S
H1212 C1155 0.930 . S
H1213 C1157 0.929 . S
H1214 C1158 0.930 . S
H1215 C1159 0.930 . S
H1216 C1162 0.930 . S
H1217 C1165 0.929 . S
H1218 C1170 0.929 . S
H1219 C1171 0.930 . S
H1220 C1178 0.929 . S
H1221 C1179 0.930 . S
H1222 C1180 0.930 . S
H1223 C1181 0.930 . S
H1224 C1183 0.929 . S
H1225 C1184 0.930 . S
H1226 C1185 0.930 . S
H1227 C1186 0.930 . S
H1228 C1190 0.929 1_655 S
H1229 C1192 0.930 . S
H1230 C1198 0.929 . S
H1231 C1199 0.930 . S
Li1232 N1249 1.990 . S
Li1232 O1292 1.956 . S
Li1232 O1293 1.970 . S
Li1232 O1294 1.961 . S
Li1233 N1257 1.990 . S
Li1233 O1292 1.970 . S
Li1233 O1293 1.956 . S
Li1233 O1295 1.961 . S
Li1234 N1279 1.990 . S
Li1234 O1292 1.961 . S
Li1234 O1294 1.956 . S
Li1234 O1295 1.970 . S
Li1235 N1285 1.990 . S
Li1235 O1293 1.961 . S
Li1235 O1294 1.970 . S
Li1235 O1295 1.956 . S
C1236 C1238 1.348 . S
C1236 C1239 1.356 . S
C1236 O1292 1.325 . S
N1237 C1240 1.314 . S
N1237 C1241 1.279 . S
C1238 C1236 1.348 . S
C1238 C1240 1.353 . S
C1238 H1296 0.929 . S
C1239 C1236 1.356 . S
C1239 C1241 1.358 . S
C1239 H1297 0.930 . S
C1240 N1237 1.314 . S
C1240 C1238 1.353 . S
C1240 H1298 0.930 . S
C1241 N1237 1.279 . S
C1241 C1239 1.358 . S
C1241 H1299 0.930 . S
C1242 C1245 1.348 . S
C1242 C1246 1.356 . S
C1242 O1293 1.325 . S
C1243 N1244 1.279 . S
C1243 C1246 1.358 . S
C1243 H1300 0.930 . S
N1244 C1243 1.279 . S
N1244 C1247 1.314 . S
C1245 C1242 1.348 . S
C1245 C1247 1.353 . S
C1245 H1301 0.929 . S
C1246 C1242 1.356 . S
C1246 C1243 1.358 . S
C1246 H1302 0.930 . S
C1247 N1244 1.314 . S
C1247 C1245 1.353 . S
C1247 H1303 0.930 . S
C1248 N1249 1.314 . S
C1248 C1253 1.353 . S
C1248 H1254 0.930 . S
N1249 Li1232 1.990 . S
N1249 C1248 1.314 . S
N1249 C1251 1.279 . S
C1250 C1251 1.358 . S
C1250 C1252 1.356 . S
C1250 H1304 0.930 . S
C1251 N1249 1.279 . S
C1251 C1250 1.358 . S
C1251 H1255 0.930 . S
C1252 C1250 1.356 . S
C1252 C1253 1.348 . S
C1253 C1248 1.353 . S
C1253 C1252 1.348 . S
C1253 H1305 0.929 . S
H1254 C1248 0.930 . S
H1255 C1251 0.930 . S
C1256 N1257 1.314 . S
C1256 C1258 1.353 . S
C1256 H1262 0.930 . S
N1257 Li1233 1.990 . S
N1257 C1256 1.314 . S
N1257 C1260 1.279 . S
C1258 C1256 1.353 . S
C1258 C1261 1.348 . S
C1258 H1306 0.929 1_655 S
C1259 C1260 1.358 . S
C1259 C1261 1.356 . S
C1259 H1307 0.930 . S
C1260 N1257 1.279 . S
C1260 C1259 1.358 . S
C1260 H1263 0.930 . S
C1261 C1258 1.348 . S
C1261 C1259 1.356 . S
H1262 C1256 0.930 . S
H1263 C1260 0.930 . S
C1264 C1266 1.348 . S
C1264 C1267 1.356 . S
C1264 O1294 1.325 . S
N1265 C1268 1.314 . S
N1265 C1269 1.279 . S
C1266 C1264 1.348 . S
C1266 C1268 1.353 . S
C1266 H1308 0.929 . S
C1267 C1264 1.356 . S
C1267 C1269 1.358 . S
C1267 H1309 0.930 . S
C1268 N1265 1.314 . S
C1268 C1266 1.353 . S
C1268 H1310 0.930 . S
C1269 N1265 1.279 . S
C1269 C1267 1.358 . S
C1269 H1311 0.930 . S
C1270 C1271 1.348 1_655 S
C1270 C1272 1.356 1_655 S
C1270 O1295 1.325 . S
C1271 C1270 1.348 1_455 S
C1271 C1273 1.353 . S
C1271 H1312 0.929 1_455 S
C1272 C1270 1.356 1_455 S
C1272 C1274 1.358 . S
C1272 H1313 0.930 . S
C1273 C1271 1.353 . S
C1273 N1275 1.314 . S
C1273 H1314 0.930 . S
C1274 C1272 1.358 . S
C1274 N1275 1.279 . S
C1274 H1315 0.930 . S
N1275 C1273 1.314 . S
N1275 C1274 1.279 . S
C1276 C1278 1.353 . S
C1276 N1279 1.314 . S
C1276 H1282 0.930 . S
C1277 N1279 1.279 . S
C1277 C1280 1.358 . S
C1277 H1283 0.930 . S
C1278 C1276 1.353 . S
C1278 C1281 1.348 . S
C1278 H1316 0.929 . S
N1279 Li1234 1.990 . S
N1279 C1276 1.314 . S
N1279 C1277 1.279 . S
C1280 C1277 1.358 . S
C1280 C1281 1.356 . S
C1280 H1317 0.930 . S
C1281 C1278 1.348 . S
C1281 C1280 1.356 . S
H1282 C1276 0.930 . S
H1283 C1277 0.930 . S
C1284 N1285 1.314 . S
C1284 C1286 1.353 . S
C1284 H1290 0.930 . S
N1285 Li1235 1.990 . S
N1285 C1284 1.314 . S
N1285 C1288 1.279 . S
C1286 C1284 1.353 . S
C1286 C1289 1.348 . S
C1286 H1318 0.929 . S
C1287 C1288 1.358 1_455 S
C1287 C1289 1.356 1_455 S
C1287 H1319 0.930 . S
C1288 N1285 1.279 . S
C1288 C1287 1.358 1_655 S
C1288 H1291 0.914 1_655 S
C1289 C1286 1.348 . S
C1289 C1287 1.356 1_655 S
H1290 C1284 0.930 . S
H1291 C1288 0.914 1_455 S
O1292 Li1232 1.956 . S
O1292 Li1233 1.970 . S
O1292 Li1234 1.961 . S
O1292 C1236 1.325 . S
O1293 Li1232 1.970 . S
O1293 Li1233 1.956 . S
O1293 Li1235 1.961 . S
O1293 C1242 1.325 . S
O1294 Li1232 1.961 . S
O1294 Li1234 1.956 . S
O1294 Li1235 1.970 . S
O1294 C1264 1.325 . S
O1295 Li1233 1.961 . S
O1295 Li1234 1.970 . S
O1295 Li1235 1.956 . S
O1295 C1270 1.325 . S
H1296 C1238 0.929 . S
H1297 C1239 0.930 . S
H1298 C1240 0.930 . S
H1299 C1241 0.930 . S
H1300 C1243 0.930 . S
H1301 C1245 0.929 . S
H1302 C1246 0.930 . S
H1303 C1247 0.930 . S
H1304 C1250 0.930 . S
H1305 C1253 0.929 . S
H1306 C1258 0.929 1_455 S
H1307 C1259 0.930 . S
H1308 C1266 0.929 . S
H1309 C1267 0.930 . S
H1310 C1268 0.930 . S
H1311 C1269 0.930 . S
H1312 C1271 0.929 1_655 S
H1313 C1272 0.930 . S
H1314 C1273 0.930 . S
H1315 C1274 0.930 . S
H1316 C1278 0.929 . S
H1317 C1280 0.930 . S
H1318 C1286 0.929 . S
H1319 C1287 0.930 . S
Li1320 N1337 1.990 . S
Li1320 O1380 1.956 . S
Li1320 O1381 1.970 . S
Li1320 O1382 1.961 . S
Li1321 N1345 1.990 . S
Li1321 O1380 1.970 . S
Li1321 O1381 1.956 . S
Li1321 O1383 1.961 . S
Li1322 N1367 1.990 . S
Li1322 O1380 1.961 . S
Li1322 O1382 1.956 . S
Li1322 O1383 1.970 . S
Li1323 N1373 1.990 . S
Li1323 O1381 1.961 . S
Li1323 O1382 1.970 . S
Li1323 O1383 1.956 . S
C1324 C1326 1.348 . S
C1324 C1327 1.356 . S
C1324 O1380 1.325 . S
N1325 C1328 1.314 . S
N1325 C1329 1.279 . S
C1326 C1324 1.348 . S
C1326 C1328 1.353 . S
C1326 H1384 0.929 . S
C1327 C1324 1.356 . S
C1327 C1329 1.358 . S
C1327 H1385 0.930 . S
C1328 N1325 1.314 . S
C1328 C1326 1.353 . S
C1328 H1386 0.930 . S
C1329 N1325 1.279 . S
C1329 C1327 1.358 . S
C1329 H1387 0.930 . S
C1330 C1333 1.348 . S
C1330 C1334 1.356 . S
C1330 O1381 1.325 . S
C1331 N1332 1.279 . S
C1331 C1334 1.358 . S
C1331 H1388 0.930 . S
N1332 C1331 1.279 . S
N1332 C1335 1.314 . S
C1333 C1330 1.348 . S
C1333 C1335 1.353 . S
C1333 H1389 0.929 . S
C1334 C1330 1.356 . S
C1334 C1331 1.358 . S
C1334 H1390 0.930 . S
C1335 N1332 1.314 . S
C1335 C1333 1.353 . S
C1335 H1391 0.930 . S
C1336 N1337 1.314 . S
C1336 C1341 1.353 . S
C1336 H1342 0.930 . S
N1337 Li1320 1.990 . S
N1337 C1336 1.314 . S
N1337 C1339 1.279 . S
C1338 C1339 1.358 . S
C1338 C1340 1.356 . S
C1338 H1392 0.930 . S
C1339 N1337 1.279 . S
C1339 C1338 1.358 . S
C1339 H1343 0.930 . S
C1340 C1338 1.356 . S
C1340 C1341 1.348 . S
C1341 C1336 1.353 . S
C1341 C1340 1.348 . S
C1341 H1393 0.929 . S
H1342 C1336 0.930 . S
H1343 C1339 0.930 . S
C1344 N1345 1.314 . S
C1344 C1346 1.353 . S
C1344 H1350 0.930 . S
N1345 Li1321 1.990 . S
N1345 C1344 1.314 . S
N1345 C1348 1.279 . S
C1346 C1344 1.353 . S
C1346 C1349 1.348 . S
C1346 H1394 0.929 . S
C1347 C1348 1.358 . S
C1347 C1349 1.356 . S
C1347 H1395 0.930 . S
C1348 N1345 1.279 . S
C1348 C1347 1.358 . S
C1348 H1351 0.930 . S
C1349 C1346 1.348 . S
C1349 C1347 1.356 . S
H1350 C1344 0.930 . S
H1351 C1348 0.930 . S
C1352 C1354 1.348 . S
C1352 C1355 1.356 . S
C1352 O1382 1.325 . S
N1353 C1356 1.314 . S
N1353 C1357 1.279 . S
C1354 C1352 1.348 . S
C1354 C1356 1.353 . S
C1354 H1396 0.929 . S
C1355 C1352 1.356 . S
C1355 C1357 1.358 . S
C1355 H1397 0.930 . S
C1356 N1353 1.314 . S
C1356 C1354 1.353 . S
C1356 H1398 0.930 . S
C1357 N1353 1.279 . S
C1357 C1355 1.358 . S
C1357 H1399 0.930 . S
C1358 C1359 1.348 . S
C1358 C1360 1.356 . S
C1358 O1383 1.325 . S
C1359 C1358 1.348 . S
C1359 C1361 1.353 . S
C1359 H1400 0.929 . S
C1360 C1358 1.356 . S
C1360 C1362 1.358 . S
C1360 H1401 0.930 . S
C1361 C1359 1.353 . S
C1361 N1363 1.314 . S
C1361 H1402 0.930 . S
C1362 C1360 1.358 . S
C1362 N1363 1.279 . S
C1362 H1403 0.930 . S
N1363 C1361 1.314 . S
N1363 C1362 1.279 . S
C1364 C1366 1.353 . S
C1364 N1367 1.314 . S
C1364 H1370 0.930 . S
C1365 N1367 1.279 . S
C1365 C1368 1.358 . S
C1365 H1371 0.930 . S
C1366 C1364 1.353 . S
C1366 C1369 1.348 . S
C1366 H1404 0.929 . S
N1367 Li1322 1.990 . S
N1367 C1364 1.314 . S
N1367 C1365 1.279 . S
C1368 C1365 1.358 . S
C1368 C1369 1.356 . S
C1368 H1405 0.930 . S
C1369 C1366 1.348 . S
C1369 C1368 1.356 . S
H1370 C1364 0.930 . S
H1371 C1365 0.930 . S
C1372 N1373 1.314 . S
C1372 C1374 1.353 . S
C1372 H1378 0.930 . S
N1373 Li1323 1.990 . S
N1373 C1372 1.314 . S
N1373 C1376 1.279 . S
C1374 C1372 1.353 . S
C1374 C1377 1.348 . S
C1374 H1406 0.929 . S
C1375 C1376 1.358 . S
C1375 C1377 1.356 . S
C1375 H1407 0.930 . S
C1376 N1373 1.279 . S
C1376 C1375 1.358 . S
C1376 H1379 0.930 . S
C1377 C1374 1.348 . S
C1377 C1375 1.356 . S
H1378 C1372 0.930 . S
H1379 C1376 0.930 . S
O1380 Li1320 1.956 . S
O1380 Li1321 1.970 . S
O1380 Li1322 1.961 . S
O1380 C1324 1.325 . S
O1381 Li1320 1.970 . S
O1381 Li1321 1.956 . S
O1381 Li1323 1.961 . S
O1381 C1330 1.325 . S
O1382 Li1320 1.961 . S
O1382 Li1322 1.956 . S
O1382 Li1323 1.970 . S
O1382 C1352 1.325 . S
O1383 Li1321 1.961 . S
O1383 Li1322 1.970 . S
O1383 Li1323 1.956 . S
O1383 C1358 1.325 . S
H1384 C1326 0.929 . S
H1385 C1327 0.930 . S
H1386 C1328 0.930 . S
H1387 C1329 0.930 . S
H1388 C1331 0.930 . S
H1389 C1333 0.929 . S
H1390 C1334 0.930 . S
H1391 C1335 0.930 . S
H1392 C1338 0.930 . S
H1393 C1341 0.929 . S
H1394 C1346 0.929 . S
H1395 C1347 0.930 . S
H1396 C1354 0.929 . S
H1397 C1355 0.930 . S
H1398 C1356 0.930 . S
H1399 C1357 0.930 . S
H1400 C1359 0.929 . S
H1401 C1360 0.930 . S
H1402 C1361 0.930 . S
H1403 C1362 0.930 . S
H1404 C1366 0.929 . S
H1405 C1368 0.930 . S
H1406 C1374 0.929 . S
H1407 C1375 0.930 . S
H1408 C1414 0.930 . S
H1409 C1418 0.930 . S
H1410 C1423 0.929 . S
H1411 C1421 0.929 . S
H1412 C1416 0.929 . S
H1413 C1422 0.929 . S
C1414 H1408 0.930 . S
C1414 C1415 1.367 . S
C1414 C1422 1.378 . S
C1415 C1414 1.367 . S
C1415 C1423 1.433 . S
C1416 H1412 0.929 . S
C1416 C1418 1.378 . S
C1416 C1420 1.350 . S
C1417 C1420 1.463 1_565 S
C1417 C1422 1.350 . S
C1417 N1425 1.427 . S
C1418 H1409 0.930 . S
C1418 C1416 1.378 . S
C1418 C1419 1.367 . S
C1419 C1418 1.367 . S
C1419 C1421 1.433 . S
C1420 C1416 1.350 . S
C1420 C1417 1.463 1_545 S
C1420 N1424 1.427 . S
C1421 H1411 0.929 . S
C1421 C1419 1.433 . S
C1421 N1424 1.384 . S
C1422 H1413 0.929 . S
C1422 C1414 1.378 . S
C1422 C1417 1.350 . S
C1423 H1410 0.929 . S
C1423 C1415 1.433 . S
C1423 N1425 1.384 . S
N1424 C1420 1.427 . S
N1424 C1421 1.384 . S
N1425 C1417 1.427 . S
N1425 C1423 1.384 . S
H1426 C1432 0.930 . S
H1427 C1436 0.930 . S
H1428 C1441 0.929 . S
H1429 C1439 0.929 . S
H1430 C1434 0.929 . S
H1431 C1440 0.929 . S
C1432 H1426 0.930 . S
C1432 C1433 1.367 . S
C1432 C1440 1.378 . S
C1433 C1432 1.367 . S
C1433 C1441 1.433 . S
C1434 H1430 0.929 . S
C1434 C1436 1.378 . S
C1434 C1438 1.350 . S
C1435 C1438 1.463 1_565 S
C1435 C1440 1.350 . S
C1435 N1443 1.417 1_565 S
C1436 H1427 0.930 . S
C1436 C1434 1.378 . S
C1436 C1437 1.367 . S
C1437 C1436 1.367 . S
C1437 C1439 1.433 . S
C1438 C1434 1.350 . S
C1438 C1435 1.463 1_545 S
C1438 N1442 1.417 1_545 S
C1439 H1429 0.929 . S
C1439 C1437 1.433 . S
C1439 N1442 1.367 1_545 S
C1440 H1431 0.929 . S
C1440 C1432 1.378 . S
C1440 C1435 1.350 . S
C1441 H1428 0.929 . S
C1441 C1433 1.433 . S
C1441 N1443 1.367 1_565 S
N1442 C1438 1.417 1_565 S
N1442 C1439 1.367 1_565 S
N1443 C1435 1.417 1_545 S
N1443 C1441 1.367 1_545 S
H1444 C1450 0.930 . S
H1445 C1454 0.930 . S
H1446 C1459 0.929 . S
H1447 C1457 0.929 . S
H1448 C1452 0.929 . S
H1449 C1458 0.929 . S
C1450 H1444 0.930 . S
C1450 C1451 1.367 . S
C1450 C1458 1.378 . S
C1451 C1450 1.367 . S
C1451 C1459 1.433 1_565 S
C1452 H1448 0.929 . S
C1452 C1454 1.378 . S
C1452 C1456 1.350 . S
C1453 C1456 1.463 1_565 S
C1453 C1458 1.350 . S
C1453 N1461 1.427 1_565 S
C1454 H1445 0.930 . S
C1454 C1452 1.378 . S
C1454 C1455 1.367 . S
C1455 C1454 1.367 . S
C1455 C1457 1.433 1_545 S
C1456 C1452 1.350 . S
C1456 C1453 1.463 1_545 S
C1456 N1460 1.427 1_545 S
C1457 H1447 0.929 . S
C1457 C1455 1.433 1_565 S
C1457 N1460 1.384 . S
C1458 H1449 0.929 . S
C1458 C1450 1.378 . S
C1458 C1453 1.350 . S
C1459 H1446 0.929 . S
C1459 C1451 1.433 1_545 S
C1459 N1461 1.384 . S
N1460 C1456 1.427 1_565 S
N1460 C1457 1.384 . S
N1461 C1453 1.427 1_545 S
N1461 C1459 1.384 . S
H1462 C1468 0.930 . S
H1463 C1472 0.930 . S
H1464 C1477 0.929 . S
H1465 C1475 0.929 . S
H1466 C1470 0.929 . S
H1467 C1476 0.929 . S
C1468 H1462 0.930 . S
C1468 C1469 1.367 . S
C1468 C1476 1.378 . S
C1469 C1468 1.367 . S
C1469 C1477 1.433 . S
C1470 H1466 0.929 . S
C1470 C1472 1.378 . S
C1470 C1474 1.350 . S
C1471 C1474 1.463 1_565 S
C1471 C1476 1.350 . S
C1471 N1479 1.427 1_565 S
C1472 H1463 0.930 . S
C1472 C1470 1.378 . S
C1472 C1473 1.367 . S
C1473 C1472 1.367 . S
C1473 C1475 1.433 . S
C1474 C1470 1.350 . S
C1474 C1471 1.463 1_545 S
C1474 N1478 1.427 1_545 S
C1475 H1465 0.929 . S
C1475 C1473 1.433 . S
C1475 N1478 1.384 1_545 S
C1476 H1467 0.929 . S
C1476 C1468 1.378 . S
C1476 C1471 1.350 . S
C1477 H1464 0.929 . S
C1477 C1469 1.433 . S
C1477 N1479 1.384 1_565 S
N1478 C1474 1.427 1_565 S
N1478 C1475 1.384 1_565 S
N1479 C1471 1.427 1_545 S
N1479 C1477 1.384 1_545 S
H1480 C1486 0.930 . S
H1481 C1490 0.930 . S
H1482 C1495 0.929 . S
H1483 C1493 0.929 . S
H1484 C1488 0.929 . S
H1485 C1494 0.929 . S
C1486 H1480 0.930 . S
C1486 C1487 1.367 . S
C1486 C1494 1.378 . S
C1487 C1486 1.367 . S
C1487 C1495 1.433 . S
C1488 H1484 0.929 . S
C1488 C1490 1.378 . S
C1488 C1492 1.350 . S
C1489 C1492 1.463 . S
C1489 C1494 1.350 . S
C1489 N1497 1.427 . S
C1490 H1481 0.930 . S
C1490 C1488 1.378 . S
C1490 C1491 1.367 . S
C1491 C1490 1.367 . S
C1491 C1493 1.433 . S
C1492 C1488 1.350 . S
C1492 C1489 1.463 . S
C1492 N1496 1.427 . S
C1493 H1483 0.929 . S
C1493 C1491 1.433 . S
C1493 N1496 1.384 . S
C1494 H1485 0.929 . S
C1494 C1486 1.378 . S
C1494 C1489 1.350 . S
C1495 H1482 0.929 . S
C1495 C1487 1.433 . S
C1495 N1497 1.384 . S
N1496 C1492 1.427 . S
N1496 C1493 1.384 . S
N1497 C1489 1.427 . S
N1497 C1495 1.384 . S
H1498 C1504 0.930 . S
H1499 C1508 0.930 . S
H1500 C1513 0.929 . S
H1501 C1511 0.929 . S
H1502 C1506 0.929 . S
H1503 C1512 0.929 . S
C1504 H1498 0.930 . S
C1504 C1505 1.367 . S
C1504 C1512 1.378 . S
C1505 C1504 1.367 . S
C1505 C1513 1.433 . S
C1506 H1502 0.929 . S
C1506 C1508 1.378 . S
C1506 C1510 1.350 . S
C1507 C1510 1.463 . S
C1507 C1512 1.350 . S
C1507 N1515 1.427 . S
C1508 H1499 0.930 . S
C1508 C1506 1.378 . S
C1508 C1509 1.367 . S
C1509 C1508 1.367 . S
C1509 C1511 1.433 . S
C1510 C1506 1.350 . S
C1510 C1507 1.463 . S
C1510 N1514 1.427 . S
C1511 H1501 0.929 . S
C1511 C1509 1.433 . S
C1511 N1514 1.384 . S
C1512 H1503 0.929 . S
C1512 C1504 1.378 . S
C1512 C1507 1.350 . S
C1513 H1500 0.929 . S
C1513 C1505 1.433 . S
C1513 N1515 1.384 . S
N1514 C1510 1.427 . S
N1514 C1511 1.384 . S
N1515 C1507 1.427 . S
N1515 C1513 1.384 . S
H1516 C1522 0.930 . S
H1517 C1526 0.930 . S
H1518 C1531 0.929 . S
H1519 C1529 0.929 . S
H1520 C1524 0.929 . S
H1521 C1530 0.929 . S
C1522 H1516 0.930 . S
C1522 C1523 1.367 . S
C1522 C1530 1.378 . S
C1523 C1522 1.367 . S
C1523 C1531 1.433 . S
C1524 H1520 0.929 . S
C1524 C1526 1.378 . S
C1524 C1528 1.350 . S
C1525 C1528 1.463 . S
C1525 C1530 1.350 . S
C1525 N1533 1.427 . S
C1526 H1517 0.930 . S
C1526 C1524 1.378 . S
C1526 C1527 1.367 . S
C1527 C1526 1.367 . S
C1527 C1529 1.433 . S
C1528 C1524 1.350 . S
C1528 C1525 1.463 . S
C1528 N1532 1.427 . S
C1529 H1519 0.929 . S
C1529 C1527 1.433 . S
C1529 N1532 1.384 . S
C1530 H1521 0.929 . S
C1530 C1522 1.378 . S
C1530 C1525 1.350 . S
C1531 H1518 0.929 . S
C1531 C1523 1.433 . S
C1531 N1533 1.384 . S
N1532 C1528 1.427 . S
N1532 C1529 1.384 . S
N1533 C1525 1.427 . S
N1533 C1531 1.384 . S
H1534 C1540 0.930 . S
H1535 C1544 0.930 . S
H1536 C1549 0.929 . S
H1537 C1547 0.929 . S
H1538 C1542 0.929 . S
H1539 C1548 0.929 . S
C1540 H1534 0.930 . S
C1540 C1541 1.367 . S
C1540 C1548 1.378 . S
C1541 C1540 1.367 . S
C1541 C1549 1.433 . S
C1542 H1538 0.929 . S
C1542 C1544 1.378 . S
C1542 C1546 1.350 . S
C1543 C1546 1.463 . S
C1543 C1548 1.350 . S
C1543 N1551 1.427 . S
C1544 H1535 0.930 . S
C1544 C1542 1.378 . S
C1544 C1545 1.367 . S
C1545 C1544 1.367 . S
C1545 C1547 1.433 . S
C1546 C1542 1.350 . S
C1546 C1543 1.463 . S
C1546 N1550 1.427 . S
C1547 H1537 0.929 . S
C1547 C1545 1.433 . S
C1547 N1550 1.384 . S
C1548 H1539 0.929 . S
C1548 C1540 1.378 . S
C1548 C1543 1.350 . S
C1549 H1536 0.929 . S
C1549 C1541 1.433 . S
C1549 N1551 1.384 . S
N1550 C1546 1.427 . S
N1550 C1547 1.384 . S
N1551 C1543 1.427 . S
N1551 C1549 1.384 . S
H1552 C1558 0.930 . S
H1553 C1562 0.930 . S
H1554 C1567 0.929 . S
H1555 C1565 0.929 . S
H1556 C1560 0.929 . S
H1557 C1566 0.929 . S
C1558 H1552 0.930 . S
C1558 C1559 1.367 1_455 S
C1558 C1566 1.378 . S
C1559 C1558 1.367 1_655 S
C1559 C1567 1.433 1_545 S
C1560 H1556 0.929 . S
C1560 C1562 1.378 . S
C1560 C1564 1.329 1_665 S
C1561 C1564 1.458 1_655 S
C1561 C1566 1.329 1_655 S
C1561 N1569 1.455 1_545 S
C1562 H1553 0.930 . S
C1562 C1560 1.378 . S
C1562 C1563 1.367 1_665 S
C1563 C1562 1.367 1_445 S
C1563 C1565 1.433 . S
C1564 C1560 1.329 1_445 S
C1564 C1561 1.458 1_455 S
C1564 N1568 1.455 . S
C1565 H1555 0.929 . S
C1565 C1563 1.433 . S
C1565 N1568 1.384 . S
C1566 H1557 0.929 . S
C1566 C1558 1.378 . S
C1566 C1561 1.329 1_455 S
C1567 H1554 0.929 . S
C1567 C1559 1.433 1_565 S
C1567 N1569 1.384 . S
N1568 C1564 1.455 . S
N1568 C1565 1.384 . S
N1569 C1561 1.455 1_565 S
N1569 C1567 1.384 . S
H1570 C1576 0.930 . S
H1571 C1580 0.930 . S
H1572 C1585 0.929 . S
H1573 C1583 0.929 . S
H1574 C1578 0.929 . S
H1575 C1584 0.929 . S
C1576 H1570 0.930 . S
C1576 C1577 1.367 . S
C1576 C1584 1.378 . S
C1577 C1576 1.367 . S
C1577 C1585 1.433 1_565 S
C1578 H1574 0.929 . S
C1578 C1580 1.378 . S
C1578 C1582 1.350 1_545 S
C1579 C1582 1.463 . S
C1579 C1584 1.350 . S
C1579 N1587 1.427 1_565 S
C1580 H1571 0.930 . S
C1580 C1578 1.378 . S
C1580 C1581 1.367 1_545 S
C1581 C1580 1.367 1_565 S
C1581 C1583 1.433 . S
C1582 C1578 1.350 1_565 S
C1582 C1579 1.463 . S
C1582 N1586 1.427 . S
C1583 H1573 0.929 . S
C1583 C1581 1.433 . S
C1583 N1586 1.384 . S
C1584 H1575 0.929 . S
C1584 C1576 1.378 . S
C1584 C1579 1.350 . S
C1585 H1572 0.929 . S
C1585 C1577 1.433 1_545 S
C1585 N1587 1.384 . S
N1586 C1582 1.427 . S
N1586 C1583 1.384 . S
N1587 C1579 1.427 1_545 S
N1587 C1585 1.384 . S
H1588 C1594 0.930 . S
H1589 C1598 0.930 . S
H1590 C1603 0.929 . S
H1591 C1601 0.929 . S
H1592 C1596 0.929 . S
H1593 C1602 0.929 . S
C1594 H1588 0.930 . S
C1594 C1595 1.367 1_545 S
C1594 C1602 1.378 . S
C1595 C1594 1.367 1_565 S
C1595 C1603 1.433 1_455 S
C1596 H1592 0.929 . S
C1596 C1598 1.378 . S
C1596 C1600 1.350 . S
C1597 C1600 1.463 1_455 S
C1597 C1602 1.350 1_565 S
C1597 N1605 1.427 1_455 S
C1598 H1589 0.930 . S
C1598 C1596 1.378 . S
C1598 C1599 1.367 . S
C1599 C1598 1.367 . S
C1599 C1601 1.433 1_665 S
C1600 C1596 1.350 . S
C1600 C1597 1.463 1_655 S
C1600 N1604 1.427 1_665 S
C1601 H1591 0.929 . S
C1601 C1599 1.433 1_445 S
C1601 N1604 1.384 . S
C1602 H1593 0.929 . S
C1602 C1594 1.378 . S
C1602 C1597 1.350 1_545 S
C1603 H1590 0.929 . S
C1603 C1595 1.433 1_655 S
C1603 N1605 1.384 . S
N1604 C1600 1.427 1_445 S
N1604 C1601 1.384 . S
N1605 C1597 1.427 1_655 S
N1605 C1603 1.384 . S
H1606 C1612 0.930 . S
H1607 C1616 0.930 . S
H1608 C1621 0.929 . S
H1609 C1619 0.929 . S
H1610 C1614 0.929 . S
H1611 C1620 0.929 . S
C1612 H1606 0.930 . S
C1612 C1613 1.367 1_565 S
C1612 C1620 1.378 . S
C1613 C1612 1.367 1_545 S
C1613 C1621 1.433 . S
C1614 H1610 0.929 . S
C1614 C1616 1.378 . S
C1614 C1618 1.350 . S
C1615 C1618 1.463 . S
C1615 C1620 1.350 1_545 S
C1615 N1623 1.427 . S
C1616 H1607 0.930 . S
C1616 C1614 1.378 . S
C1616 C1617 1.367 . S
C1617 C1616 1.367 . S
C1617 C1619 1.433 1_545 S
C1618 C1614 1.350 . S
C1618 C1615 1.463 . S
C1618 N1622 1.427 1_545 S
C1619 H1609 0.929 . S
C1619 C1617 1.433 1_565 S
C1619 N1622 1.384 . S
C1620 H1611 0.929 . S
C1620 C1612 1.378 . S
C1620 C1615 1.350 1_565 S
C1621 H1608 0.929 . S
C1621 C1613 1.433 . S
C1621 N1623 1.384 . S
N1622 C1618 1.427 1_565 S
N1622 C1619 1.384 . S
N1623 C1615 1.427 . S
N1623 C1621 1.384 . S
H1624 C1630 0.930 . S
H1625 C1634 0.930 . S
H1626 C1639 0.929 . S
H1627 C1637 0.929 . S
H1628 C1632 0.929 . S
H1629 C1638 0.929 . S
C1630 H1624 0.930 . S
C1630 C1631 1.367 . S
C1630 C1638 1.378 . S
C1631 C1630 1.367 . S
C1631 C1639 1.433 . S
C1632 H1628 0.929 . S
C1632 C1634 1.378 . S
C1632 C1636 1.350 . S
C1633 C1636 1.463 . S
C1633 C1638 1.350 . S
C1633 N1641 1.427 . S
C1634 H1625 0.930 . S
C1634 C1632 1.378 . S
C1634 C1635 1.367 . S
C1635 C1634 1.367 . S
C1635 C1637 1.433 . S
C1636 C1632 1.350 . S
C1636 C1633 1.463 . S
C1636 N1640 1.427 . S
C1637 H1627 0.929 . S
C1637 C1635 1.433 . S
C1637 N1640 1.384 . S
C1638 H1629 0.929 . S
C1638 C1630 1.378 . S
C1638 C1633 1.350 . S
C1639 H1626 0.929 . S
C1639 C1631 1.433 . S
C1639 N1641 1.384 . S
N1640 C1636 1.427 . S
N1640 C1637 1.384 . S
N1641 C1633 1.427 . S
N1641 C1639 1.384 . S
H1642 C1648 0.930 . S
H1643 C1652 0.930 . S
H1644 C1657 0.929 1_655 S
H1645 C1655 0.929 1_455 S
H1646 C1650 0.929 . S
H1647 C1656 0.929 . S
C1648 H1642 0.930 . S
C1648 C1649 1.367 . S
C1648 C1656 1.378 . S
C1649 C1648 1.367 . S
C1649 C1657 1.433 . S
C1650 H1646 0.929 . S
C1650 C1652 1.378 . S
C1650 C1654 1.350 . S
C1651 C1654 1.463 1_455 S
C1651 C1656 1.350 . S
C1651 N1659 1.427 1_455 S
C1652 H1643 0.930 . S
C1652 C1650 1.378 . S
C1652 C1653 1.367 . S
C1653 C1652 1.367 . S
C1653 C1655 1.433 . S
C1654 C1650 1.350 . S
C1654 C1651 1.463 1_655 S
C1654 N1658 1.427 1_655 S
C1655 H1645 0.929 1_655 S
C1655 C1653 1.433 . S
C1655 N1658 1.384 1_655 S
C1656 H1647 0.929 . S
C1656 C1648 1.378 . S
C1656 C1651 1.350 . S
C1657 H1644 0.929 1_455 S
C1657 C1649 1.433 . S
C1657 N1659 1.384 1_455 S
N1658 C1654 1.427 1_455 S
N1658 C1655 1.384 1_455 S
N1659 C1651 1.427 1_655 S
N1659 C1657 1.384 1_655 S
H1660 C1666 0.930 . S
H1661 C1670 0.930 . S
H1662 C1675 0.929 . S
H1663 C1673 0.929 . S
H1664 C1668 0.929 . S
H1665 C1674 0.929 . S
C1666 H1660 0.930 . S
C1666 C1667 1.367 . S
C1666 C1674 1.378 . S
C1667 C1666 1.367 . S
C1667 C1675 1.433 . S
C1668 H1664 0.929 . S
C1668 C1670 1.378 . S
C1668 C1672 1.350 . S
C1669 C1672 1.463 . S
C1669 C1674 1.350 . S
C1669 N1677 1.427 . S
C1670 H1661 0.930 . S
C1670 C1668 1.378 . S
C1670 C1671 1.367 . S
C1671 C1670 1.367 . S
C1671 C1673 1.433 . S
C1672 C1668 1.350 . S
C1672 C1669 1.463 . S
C1672 N1676 1.427 . S
C1673 H1663 0.929 . S
C1673 C1671 1.433 . S
C1673 N1676 1.384 . S
C1674 H1665 0.929 . S
C1674 C1666 1.378 . S
C1674 C1669 1.350 . S
C1675 H1662 0.929 . S
C1675 C1667 1.433 . S
C1675 N1677 1.384 . S
N1676 C1672 1.427 . S
N1676 C1673 1.384 . S
N1677 C1669 1.427 . S
N1677 C1675 1.384 . S
H1678 C1684 0.930 . S
H1679 C1688 0.930 . S
H1680 C1693 0.929 . S
H1681 C1691 0.929 . S
H1682 C1686 0.929 . S
H1683 C1692 0.929 . S
C1684 H1678 0.930 . S
C1684 C1685 1.367 . S
C1684 C1692 1.378 . S
C1685 C1684 1.367 . S
C1685 C1693 1.433 1_455 S
C1686 H1682 0.929 . S
C1686 C1688 1.378 . S
C1686 C1690 1.350 . S
C1687 C1690 1.463 1_455 S
C1687 C1692 1.350 . S
C1687 N1695 1.427 1_455 S
C1688 H1679 0.930 . S
C1688 C1686 1.378 . S
C1688 C1689 1.367 . S
C1689 C1688 1.367 . S
C1689 C1691 1.433 1_655 S
C1690 C1686 1.350 . S
C1690 C1687 1.463 1_655 S
C1690 N1694 1.427 1_655 S
C1691 H1681 0.929 . S
C1691 C1689 1.433 1_455 S
C1691 N1694 1.384 . S
C1692 H1683 0.929 . S
C1692 C1684 1.378 . S
C1692 C1687 1.350 . S
C1693 H1680 0.929 . S
C1693 C1685 1.433 1_655 S
C1693 N1695 1.384 . S
N1694 C1690 1.427 1_455 S
N1694 C1691 1.384 . S
N1695 C1687 1.427 1_655 S
N1695 C1693 1.384 . S
H1696 C1702 0.930 1_655 S
H1697 C1706 0.930 1_455 S
H1698 C1711 0.929 . S
H1699 C1709 0.929 . S
H1700 C1704 0.929 . S
H1701 C1710 0.929 . S
C1702 H1696 0.930 1_455 S
C1702 C1703 1.367 . S
C1702 C1710 1.378 1_455 S
C1703 C1702 1.367 . S
C1703 C1711 1.433 . S
C1704 H1700 0.929 . S
C1704 C1706 1.378 1_455 S
C1704 C1708 1.350 1_455 S
C1705 C1708 1.463 1_455 S
C1705 C1710 1.350 1_455 S
C1705 N1713 1.427 . S
C1706 H1697 0.930 1_655 S
C1706 C1704 1.378 1_655 S
C1706 C1707 1.367 . S
C1707 C1706 1.367 . S
C1707 C1709 1.433 . S
C1708 C1704 1.350 1_655 S
C1708 C1705 1.463 1_655 S
C1708 N1712 1.427 . S
C1709 H1699 0.929 . S
C1709 C1707 1.433 . S
C1709 N1712 1.384 . S
C1710 H1701 0.929 . S
C1710 C1702 1.378 1_655 S
C1710 C1705 1.350 1_655 S
C1711 H1698 0.929 . S
C1711 C1703 1.433 . S
C1711 N1713 1.384 . S
N1712 C1708 1.427 . S
N1712 C1709 1.384 . S
N1713 C1705 1.427 . S
N1713 C1711 1.384 . S
H1714 C1720 0.930 . S
H1715 C1724 0.930 . S
H1716 C1729 0.929 . S
H1717 C1727 0.929 . S
H1718 C1722 0.929 . S
H1719 C1728 0.929 . S
C1720 H1714 0.930 . S
C1720 C1721 1.367 . S
C1720 C1728 1.378 . S
C1721 C1720 1.367 . S
C1721 C1729 1.433 . S
C1722 H1718 0.929 . S
C1722 C1724 1.378 . S
C1722 C1726 1.350 . S
C1723 C1726 1.463 . S
C1723 C1728 1.350 . S
C1723 N1731 1.427 . S
C1724 H1715 0.930 . S
C1724 C1722 1.378 . S
C1724 C1725 1.367 . S
C1725 C1724 1.367 . S
C1725 C1727 1.433 . S
C1726 C1722 1.350 . S
C1726 C1723 1.463 . S
C1726 N1730 1.427 . S
C1727 H1717 0.929 . S
C1727 C1725 1.433 . S
C1727 N1730 1.384 . S
C1728 H1719 0.929 . S
C1728 C1720 1.378 . S
C1728 C1723 1.350 . S
C1729 H1716 0.929 . S
C1729 C1721 1.433 . S
C1729 N1731 1.384 . S
N1730 C1726 1.427 . S
N1730 C1727 1.384 . S
N1731 C1723 1.427 . S
N1731 C1729 1.384 . S
H1732 C1738 0.930 . S
H1733 C1742 0.930 . S
H1734 C1747 0.929 . S
H1735 C1745 0.929 . S
H1736 C1740 0.929 . S
H1737 C1746 0.929 . S
C1738 H1732 0.930 . S
C1738 C1739 1.367 . S
C1738 C1746 1.378 . S
C1739 C1738 1.367 . S
C1739 C1747 1.433 . S
C1740 H1736 0.929 . S
C1740 C1742 1.378 . S
C1740 C1744 1.350 . S
C1741 C1744 1.463 . S
C1741 C1746 1.350 . S
C1741 N1749 1.427 . S
C1742 H1733 0.930 . S
C1742 C1740 1.378 . S
C1742 C1743 1.367 . S
C1743 C1742 1.367 . S
C1743 C1745 1.433 . S
C1744 C1740 1.350 . S
C1744 C1741 1.463 . S
C1744 N1748 1.427 . S
C1745 H1735 0.929 . S
C1745 C1743 1.433 . S
C1745 N1748 1.384 . S
C1746 H1737 0.929 . S
C1746 C1738 1.378 . S
C1746 C1741 1.350 . S
C1747 H1734 0.929 . S
C1747 C1739 1.433 . S
C1747 N1749 1.384 . S
N1748 C1744 1.427 . S
N1748 C1745 1.384 . S
N1749 C1741 1.427 . S
N1749 C1747 1.384 . S
H1750 C1756 0.930 . S
H1751 C1760 0.930 . S
H1752 C1765 0.929 . S
H1753 C1763 0.929 . S
H1754 C1758 0.929 . S
H1755 C1764 0.929 . S
C1756 H1750 0.930 . S
C1756 C1757 1.367 . S
C1756 C1764 1.378 . S
C1757 C1756 1.367 . S
C1757 C1765 1.433 . S
C1758 H1754 0.929 . S
C1758 C1760 1.378 . S
C1758 C1762 1.350 . S
C1759 C1762 1.463 1_455 S
C1759 C1764 1.350 . S
C1759 N1767 1.427 . S
C1760 H1751 0.930 . S
C1760 C1758 1.378 . S
C1760 C1761 1.367 . S
C1761 C1760 1.367 . S
C1761 C1763 1.433 . S
C1762 C1758 1.350 . S
C1762 C1759 1.463 1_655 S
C1762 N1766 1.427 . S
C1763 H1753 0.929 . S
C1763 C1761 1.433 . S
C1763 N1766 1.384 . S
C1764 H1755 0.929 . S
C1764 C1756 1.378 . S
C1764 C1759 1.350 . S
C1765 H1752 0.929 . S
C1765 C1757 1.433 . S
C1765 N1767 1.384 . S
N1766 C1762 1.427 . S
N1766 C1763 1.384 . S
N1767 C1759 1.427 . S
N1767 C1765 1.384 . S
H1768 C1774 0.930 . S
H1769 C1778 0.930 . S
H1770 C1783 0.929 . S
H1771 C1781 0.929 . S
H1772 C1776 0.929 . S
H1773 C1782 0.929 . S
C1774 H1768 0.930 . S
C1774 C1775 1.367 . S
C1774 C1782 1.378 . S
C1775 C1774 1.367 . S
C1775 C1783 1.433 . S
C1776 H1772 0.929 . S
C1776 C1778 1.378 . S
C1776 C1780 1.350 . S
C1777 C1780 1.463 1_455 S
C1777 C1782 1.350 . S
C1777 N1785 1.427 . S
C1778 H1769 0.930 . S
C1778 C1776 1.378 . S
C1778 C1779 1.367 . S
C1779 C1778 1.367 . S
C1779 C1781 1.433 . S
C1780 C1776 1.350 . S
C1780 C1777 1.463 1_655 S
C1780 N1784 1.427 . S
C1781 H1771 0.929 . S
C1781 C1779 1.433 . S
C1781 N1784 1.384 . S
C1782 H1773 0.929 . S
C1782 C1774 1.378 . S
C1782 C1777 1.350 . S
C1783 H1770 0.929 . S
C1783 C1775 1.433 . S
C1783 N1785 1.384 . S
N1784 C1780 1.427 . S
N1784 C1781 1.384 . S
N1785 C1777 1.427 . S
N1785 C1783 1.384 . S
H1786 C1792 0.930 . S
H1787 C1796 0.930 . S
H1788 C1801 0.929 . S
H1789 C1799 0.929 . S
H1790 C1794 0.929 . S
H1791 C1800 0.929 . S
C1792 H1786 0.930 . S
C1792 C1793 1.367 . S
C1792 C1800 1.378 . S
C1793 C1792 1.367 . S
C1793 C1801 1.433 . S
C1794 H1790 0.929 . S
C1794 C1796 1.378 . S
C1794 C1798 1.350 . S
C1795 C1798 1.463 . S
C1795 C1800 1.350 . S
C1795 N1803 1.427 . S
C1796 H1787 0.930 . S
C1796 C1794 1.378 . S
C1796 C1797 1.367 . S
C1797 C1796 1.367 . S
C1797 C1799 1.433 . S
C1798 C1794 1.350 . S
C1798 C1795 1.463 . S
C1798 N1802 1.427 . S
C1799 H1789 0.929 . S
C1799 C1797 1.433 . S
C1799 N1802 1.384 . S
C1800 H1791 0.929 . S
C1800 C1792 1.378 . S
C1800 C1795 1.350 . S
C1801 H1788 0.929 . S
C1801 C1793 1.433 . S
C1801 N1803 1.384 . S
N1802 C1798 1.427 . S
N1802 C1799 1.384 . S
N1803 C1795 1.427 . S
N1803 C1801 1.384 . S
H1804 C1810 0.930 . S
H1805 C1814 0.930 . S
H1806 C1819 0.929 . S
H1807 C1817 0.929 . S
H1808 C1812 0.929 . S
H1809 C1818 0.929 . S
C1810 H1804 0.930 . S
C1810 C1811 1.367 . S
C1810 C1818 1.378 . S
C1811 C1810 1.367 . S
C1811 C1819 1.433 . S
C1812 H1808 0.929 . S
C1812 C1814 1.378 . S
C1812 C1816 1.350 . S
C1813 C1816 1.463 . S
C1813 C1818 1.350 . S
C1813 N1821 1.427 . S
C1814 H1805 0.930 . S
C1814 C1812 1.378 . S
C1814 C1815 1.367 . S
C1815 C1814 1.367 . S
C1815 C1817 1.433 . S
C1816 C1812 1.350 . S
C1816 C1813 1.463 . S
C1816 N1820 1.427 . S
C1817 H1807 0.929 . S
C1817 C1815 1.433 . S
C1817 N1820 1.384 . S
C1818 H1809 0.929 . S
C1818 C1810 1.378 . S
C1818 C1813 1.350 . S
C1819 H1806 0.929 . S
C1819 C1811 1.433 . S
C1819 N1821 1.384 . S
N1820 C1816 1.427 . S
N1820 C1817 1.384 . S
N1821 C1813 1.427 . S
N1821 C1819 1.384 . S
H1822 C1828 0.920 1_655 S
H1823 C1832 0.920 1_455 S
H1824 C1837 0.929 . S
H1825 C1835 0.929 . S
H1826 C1830 0.929 . S
H1827 C1836 0.929 . S
C1828 H1822 0.920 1_455 S
C1828 C1829 1.367 . S
C1828 C1836 1.378 1_455 S
C1829 C1828 1.367 . S
C1829 C1837 1.433 . S
C1830 H1826 0.929 . S
C1830 C1832 1.378 1_455 S
C1830 C1834 1.350 1_455 S
C1831 C1834 1.463 1_455 S
C1831 C1836 1.350 1_455 S
C1831 N1839 1.427 . S
C1832 H1823 0.920 1_655 S
C1832 C1830 1.378 1_655 S
C1832 C1833 1.367 . S
C1833 C1832 1.367 . S
C1833 C1835 1.433 . S
C1834 C1830 1.350 1_655 S
C1834 C1831 1.463 1_655 S
C1834 N1838 1.427 . S
C1835 H1825 0.929 . S
C1835 C1833 1.433 . S
C1835 N1838 1.384 . S
C1836 H1827 0.929 . S
C1836 C1828 1.378 1_655 S
C1836 C1831 1.350 1_655 S
C1837 H1824 0.929 . S
C1837 C1829 1.433 . S
C1837 N1839 1.384 . S
N1838 C1834 1.427 . S
N1838 C1835 1.384 . S
N1839 C1831 1.427 . S
N1839 C1837 1.384 . S
H1840 C1846 0.930 . S
H1841 C1850 0.930 . S
H1842 C1855 0.929 . S
H1843 C1853 0.929 . S
H1844 C1848 0.929 . S
H1845 C1854 0.929 . S
C1846 H1840 0.930 . S
C1846 C1847 1.367 1_465 S
C1846 C1854 1.378 . S
C1847 C1846 1.367 1_645 S
C1847 C1855 1.433 . S
C1848 H1844 0.929 . S
C1848 C1850 1.378 . S
C1848 C1852 1.329 1_545 S
C1849 C1852 1.460 1_546 S
C1849 C1854 1.320 1_645 S
C1849 N1857 1.462 . S
C1850 H1841 0.930 . S
C1850 C1848 1.378 . S
C1850 C1851 1.367 1_645 S
C1851 C1850 1.367 1_465 S
C1851 C1853 1.433 . S
C1852 C1848 1.329 1_565 S
C1852 C1849 1.460 1_564 S
C1852 N1856 1.452 1_655 S
C1853 H1843 0.929 . S
C1853 C1851 1.433 . S
C1853 N1856 1.384 . S
C1854 H1845 0.929 . S
C1854 C1846 1.378 . S
C1854 C1849 1.320 1_465 S
C1855 H1842 0.929 . S
C1855 C1847 1.433 . S
C1855 N1857 1.384 . S
N1856 C1852 1.452 1_455 S
N1856 C1853 1.384 . S
N1857 C1849 1.462 . S
N1857 C1855 1.384 . S
H1858 C1864 0.930 . S
H1859 C1868 0.930 . S
H1860 C1873 0.929 . S
H1861 C1871 0.929 . S
H1862 C1866 0.929 . S
H1863 C1872 0.929 . S
C1864 H1858 0.930 . S
C1864 C1865 1.367 1_545 S
C1864 C1872 1.378 . S
C1865 C1864 1.367 1_565 S
C1865 C1873 1.433 . S
C1866 H1862 0.929 . S
C1866 C1868 1.378 . S
C1866 C1870 1.332 1_565 S
C1867 C1870 1.461 1_566 S
C1867 C1872 1.326 1_565 S
C1867 N1875 1.455 . S
C1868 H1859 0.930 . S
C1868 C1866 1.378 . S
C1868 C1869 1.367 1_565 S
C1869 C1868 1.367 1_545 S
C1869 C1871 1.433 . S
C1870 C1866 1.332 1_545 S
C1870 C1867 1.461 1_544 S
C1870 N1874 1.448 . S
C1871 H1861 0.929 . S
C1871 C1869 1.433 . S
C1871 N1874 1.384 . S
C1872 H1863 0.929 . S
C1872 C1864 1.378 . S
C1872 C1867 1.326 1_545 S
C1873 H1860 0.929 . S
C1873 C1865 1.433 . S
C1873 N1875 1.384 . S
N1874 C1870 1.448 . S
N1874 C1871 1.384 . S
N1875 C1867 1.455 . S
N1875 C1873 1.384 . S
H1876 C1882 0.930 . S
H1877 C1886 0.930 . S
H1878 C1891 0.929 . S
H1879 C1889 0.929 . S
H1880 C1884 0.929 . S
H1881 C1890 0.929 . S
C1882 H1876 0.930 . S
C1882 C1883 1.367 . S
C1882 C1890 1.378 . S
C1883 C1882 1.367 . S
C1883 C1891 1.433 1_565 S
C1884 H1880 0.929 . S
C1884 C1886 1.378 . S
C1884 C1888 1.350 . S
C1885 C1888 1.463 1_565 S
C1885 C1890 1.350 . S
C1885 N1893 1.427 1_565 S
C1886 H1877 0.930 . S
C1886 C1884 1.378 . S
C1886 C1887 1.367 . S
C1887 C1886 1.367 . S
C1887 C1889 1.433 1_545 S
C1888 C1884 1.350 . S
C1888 C1885 1.463 1_545 S
C1888 N1892 1.427 1_545 S
C1889 H1879 0.929 . S
C1889 C1887 1.433 1_565 S
C1889 N1892 1.384 . S
C1890 H1881 0.929 . S
C1890 C1882 1.378 . S
C1890 C1885 1.350 . S
C1891 H1878 0.929 . S
C1891 C1883 1.433 1_545 S
C1891 N1893 1.384 . S
N1892 C1888 1.427 1_565 S
N1892 C1889 1.384 . S
N1893 C1885 1.427 1_545 S
N1893 C1891 1.384 . S
H1894 C1900 0.930 . S
H1895 C1904 0.930 . S
H1896 C1909 0.929 . S
H1897 C1907 0.929 . S
H1898 C1902 0.929 . S
H1899 C1908 0.929 . S
C1900 H1894 0.930 . S
C1900 C1901 1.367 . S
C1900 C1908 1.378 . S
C1901 C1900 1.367 . S
C1901 C1909 1.433 1_445 S
C1902 H1898 0.929 . S
C1902 C1904 1.378 . S
C1902 C1906 1.372 . S
C1903 C1906 1.460 1_445 S
C1903 C1908 1.350 . S
C1903 N1911 1.427 1_445 S
C1904 H1895 0.930 . S
C1904 C1902 1.378 . S
C1904 C1905 1.367 . S
C1905 C1904 1.367 . S
C1905 C1907 1.433 1_665 S
C1906 C1902 1.372 . S
C1906 C1903 1.460 1_665 S
C1906 N1910 1.408 1_665 S
C1907 H1897 0.929 . S
C1907 C1905 1.433 1_445 S
C1907 N1910 1.384 . S
C1908 H1899 0.929 . S
C1908 C1900 1.378 . S
C1908 C1903 1.350 . S
C1909 H1896 0.929 . S
C1909 C1901 1.433 1_665 S
C1909 N1911 1.384 . S
N1910 C1906 1.408 1_445 S
N1910 C1907 1.384 . S
N1911 C1903 1.427 1_665 S
N1911 C1909 1.384 . S
H1912 C1918 0.930 . S
H1913 C1922 0.930 . S
H1914 C1927 0.929 . S
H1915 C1925 0.929 . S
H1916 C1920 0.929 . S
H1917 C1926 0.929 . S
C1918 H1912 0.930 . S
C1918 C1919 1.367 . S
C1918 C1926 1.378 . S
C1919 C1918 1.367 . S
C1919 C1927 1.433 . S
C1920 H1916 0.929 . S
C1920 C1922 1.378 . S
C1920 C1924 1.350 . S
C1921 C1924 1.463 1_554 S
C1921 C1926 1.350 . S
C1921 N1929 1.427 . S
C1922 H1913 0.930 . S
C1922 C1920 1.378 . S
C1922 C1923 1.367 . S
C1923 C1922 1.367 . S
C1923 C1925 1.433 . S
C1924 C1920 1.350 . S
C1924 C1921 1.463 1_556 S
C1924 N1928 1.427 . S
C1925 H1915 0.929 . S
C1925 C1923 1.433 . S
C1925 N1928 1.384 . S
C1926 H1917 0.929 . S
C1926 C1918 1.378 . S
C1926 C1921 1.350 . S
C1927 H1914 0.929 . S
C1927 C1919 1.433 . S
C1927 N1929 1.384 . S
N1928 C1924 1.427 . S
N1928 C1925 1.384 . S
N1929 C1921 1.427 . S
N1929 C1927 1.384 . S
H1930 C1936 0.930 . S
H1931 C1940 0.930 . S
H1932 C1945 0.929 . S
H1933 C1943 0.929 . S
H1934 C1938 0.929 . S
H1935 C1944 0.929 . S
C1936 H1930 0.930 . S
C1936 C1937 1.367 . S
C1936 C1944 1.378 . S
C1937 C1936 1.367 . S
C1937 C1945 1.433 1_655 S
C1938 H1934 0.929 . S
C1938 C1940 1.378 . S
C1938 C1942 1.350 . S
C1939 C1942 1.459 1_654 S
C1939 C1944 1.382 . S
C1939 N1947 1.398 1_655 S
C1940 H1931 0.930 . S
C1940 C1938 1.378 . S
C1940 C1941 1.367 . S
C1941 C1940 1.367 . S
C1941 C1943 1.433 1_455 S
C1942 C1938 1.350 . S
C1942 C1939 1.459 1_456 S
C1942 N1946 1.427 1_455 S
C1943 H1933 0.929 . S
C1943 C1941 1.433 1_655 S
C1943 N1946 1.384 . S
C1944 H1935 0.929 . S
C1944 C1936 1.378 . S
C1944 C1939 1.382 . S
C1945 H1932 0.929 . S
C1945 C1937 1.433 1_455 S
C1945 N1947 1.384 . S
N1946 C1942 1.427 1_655 S
N1946 C1943 1.384 . S
N1947 C1939 1.398 1_455 S
N1947 C1945 1.384 . S
H1948 C1954 0.930 . S
H1949 C1958 0.930 . S
H1950 C1963 0.929 . S
H1951 C1961 0.929 . S
H1952 C1956 0.929 . S
H1953 C1962 0.929 . S
C1954 H1948 0.930 . S
C1954 C1955 1.367 . S
C1954 C1962 1.378 . S
C1955 C1954 1.367 . S
C1955 C1963 1.433 1_655 S
C1956 H1952 0.929 . S
C1956 C1958 1.378 . S
C1956 C1960 1.383 . S
C1957 C1960 1.459 1_655 S
C1957 C1962 1.350 . S
C1957 N1965 1.427 1_655 S
C1958 H1949 0.930 . S
C1958 C1956 1.378 . S
C1958 C1959 1.367 . S
C1959 C1958 1.367 . S
C1959 C1961 1.433 1_455 S
C1960 C1956 1.383 . S
C1960 C1957 1.459 1_455 S
C1960 N1964 1.397 1_455 S
C1961 H1951 0.929 . S
C1961 C1959 1.433 1_655 S
C1961 N1964 1.384 . S
C1962 H1953 0.929 . S
C1962 C1954 1.378 . S
C1962 C1957 1.350 . S
C1963 H1950 0.929 . S
C1963 C1955 1.433 1_455 S
C1963 N1965 1.384 . S
N1964 C1960 1.397 1_655 S
N1964 C1961 1.384 . S
N1965 C1957 1.427 1_455 S
N1965 C1963 1.384 . S
H1966 C1972 0.930 . S
H1967 C1976 0.930 . S
H1968 C1981 0.929 . S
H1969 C1979 0.929 . S
H1970 C1974 0.929 . S
H1971 C1980 0.929 . S
C1972 H1966 0.930 . S
C1972 C1973 1.367 . S
C1972 C1980 1.378 . S
C1973 C1972 1.367 . S
C1973 C1981 1.433 . S
C1974 H1970 0.929 . S
C1974 C1976 1.378 . S
C1974 C1978 1.350 . S
C1975 C1978 1.463 . S
C1975 C1980 1.350 . S
C1975 N1983 1.427 . S
C1976 H1967 0.930 . S
C1976 C1974 1.378 . S
C1976 C1977 1.367 . S
C1977 C1976 1.367 . S
C1977 C1979 1.433 . S
C1978 C1974 1.350 . S
C1978 C1975 1.463 . S
C1978 N1982 1.427 . S
C1979 H1969 0.929 . S
C1979 C1977 1.433 . S
C1979 N1982 1.384 . S
C1980 H1971 0.929 . S
C1980 C1972 1.378 . S
C1980 C1975 1.350 . S
C1981 H1968 0.929 . S
C1981 C1973 1.433 . S
C1981 N1983 1.384 . S
N1982 C1978 1.427 . S
N1982 C1979 1.384 . S
N1983 C1975 1.427 . S
N1983 C1981 1.384 . S
C1415 C137 1.515 . S
C1419 C29 1.516 . S
C1433 C196 1.516 . S
C1437 C293 1.516 . S
C1451 C401 1.510 . S
C1455 C489 1.510 . S
C1469 C645 1.509 . S
C1473 C548 1.509 . S
C1487 C841 1.516 . S
C1491 C753 1.515 . S
C1505 C997 1.515 . S
C1509 C909 1.514 . S
C1523 C1201 1.510 . S
C1527 C1113 1.510 . S
C1541 C1349 1.508 . S
C1545 C1252 1.508 . S
C1559 C313 1.122 . S
C1563 C49 1.131 . S
C1577 C117 1.123 . S
C1581 C233 1.131 . S
C1595 C636 1.126 . S
C1599 C409 1.116 . S
C1613 C557 1.131 . S
C1617 C497 1.123 . S
C1631 C733 1.122 . S
C1635 C1017 1.131 . S
C1649 C929 1.128 . S
C1653 C821 1.117 . S
C1667 C1340 1.127 . S
C1671 C1105 1.129 . S
C1685 C1193 1.122 . S
C1689 C1261 1.115 . S
C1703 C57 1.695 . S
C1707 C812 1.695 . S
C1721 C108 1.695 . S
C1725 C724 1.697 . S
C1739 C1025 1.701 . S
C1743 C225 1.698 . S
C1757 C937 1.699 . S
C1761 C321 1.702 . S
C1775 C1173 1.704 . S
C1779 C372 1.703 . S
C1793 C1085 1.704 . S
C1797 C460 1.705 . S
C1811 C577 1.698 . S
C1815 C1377 1.699 . S
C1829 C673 1.696 . S
C1833 C1281 1.697 . S
C1847 C381 1.167 . S
C1851 C20 1.170 . S
C1865 C469 1.161 . S
C1869 C145 1.164 . S
C1883 C585 1.177 . S
C1887 C205 1.179 . S
C1901 C665 1.176 . S
C1905 C284 1.178 . S
C1919 C761 1.173 . S
C1923 C1076 1.172 . S
C1937 C849 1.150 . S
C1941 C1164 1.148 . S
C1955 C1289 1.161 . S
C1959 C900 1.162 . S
C1973 C1369 1.153 . S
C1977 C988 1.155 . S
