# Generated by pormake.
# Topology wjd, (6)-cn, num edge types: 1
# Building blocks:
#     Node 0, Type 0, BuildingBlock: PAMTUU_clean_sbu_0, # of connection points: 6
#     Node 1, Type 0, BuildingBlock: PAMTUU_clean_sbu_0, # of connection points: 6
#     Node 2, Type 0, BuildingBlock: PAMTUU_clean_sbu_0, # of connection points: 6
#     Node 3, Type 0, BuildingBlock: PAMTUU_clean_sbu_0, # of connection points: 6
#     Node 4, Type 0, BuildingBlock: PAMTUU_clean_sbu_0, # of connection points: 6
#     Node 5, Type 0, BuildingBlock: PAMTUU_clean_sbu_0, # of connection points: 6
#     Node 6, Type 0, BuildingBlock: PAMTUU_clean_sbu_0, # of connection points: 6
#     Node 7, Type 0, BuildingBlock: PAMTUU_clean_sbu_0, # of connection points: 6
#     Node 8, Type 0, BuildingBlock: PAMTUU_clean_sbu_0, # of connection points: 6
#     Node 9, Type 0, BuildingBlock: PAMTUU_clean_sbu_0, # of connection points: 6
#     Node 10, Type 0, BuildingBlock: PAMTUU_clean_sbu_0, # of connection points: 6
#     Node 11, Type 0, BuildingBlock: PAMTUU_clean_sbu_0, # of connection points: 6
#     Edge 12, Type (0, 0), BuildingBlock: TEMPAE_clean_linker_10, # of connection points: 2
#     Edge 13, Type (0, 0), BuildingBlock: TEMPAE_clean_linker_10, # of connection points: 2
#     Edge 14, Type (0, 0), BuildingBlock: TEMPAE_clean_linker_10, # of connection points: 2
#     Edge 15, Type (0, 0), BuildingBlock: TEMPAE_clean_linker_10, # of connection points: 2
#     Edge 16, Type (0, 0), BuildingBlock: TEMPAE_clean_linker_10, # of connection points: 2
#     Edge 17, Type (0, 0), BuildingBlock: TEMPAE_clean_linker_10, # of connection points: 2
#     Edge 18, Type (0, 0), BuildingBlock: TEMPAE_clean_linker_10, # of connection points: 2
#     Edge 19, Type (0, 0), BuildingBlock: TEMPAE_clean_linker_10, # of connection points: 2
#     Edge 20, Type (0, 0), BuildingBlock: TEMPAE_clean_linker_10, # of connection points: 2
#     Edge 21, Type (0, 0), BuildingBlock: TEMPAE_clean_linker_10, # of connection points: 2
#     Edge 22, Type (0, 0), BuildingBlock: TEMPAE_clean_linker_10, # of connection points: 2
#     Edge 23, Type (0, 0), BuildingBlock: TEMPAE_clean_linker_10, # of connection points: 2
#     Edge 24, Type (0, 0), BuildingBlock: TEMPAE_clean_linker_10, # of connection points: 2
#     Edge 25, Type (0, 0), BuildingBlock: TEMPAE_clean_linker_10, # of connection points: 2
#     Edge 26, Type (0, 0), BuildingBlock: TEMPAE_clean_linker_10, # of connection points: 2
#     Edge 27, Type (0, 0), BuildingBlock: TEMPAE_clean_linker_10, # of connection points: 2
#     Edge 28, Type (0, 0), BuildingBlock: TEMPAE_clean_linker_10, # of connection points: 2
#     Edge 29, Type (0, 0), BuildingBlock: TEMPAE_clean_linker_10, # of connection points: 2
#     Edge 30, Type (0, 0), BuildingBlock: TEMPAE_clean_linker_10, # of connection points: 2
#     Edge 31, Type (0, 0), BuildingBlock: TEMPAE_clean_linker_10, # of connection points: 2
#     Edge 32, Type (0, 0), BuildingBlock: TEMPAE_clean_linker_10, # of connection points: 2
#     Edge 33, Type (0, 0), BuildingBlock: TEMPAE_clean_linker_10, # of connection points: 2
#     Edge 34, Type (0, 0), BuildingBlock: TEMPAE_clean_linker_10, # of connection points: 2
#     Edge 35, Type (0, 0), BuildingBlock: TEMPAE_clean_linker_10, # of connection points: 2
#     Edge 36, Type (0, 0), BuildingBlock: TEMPAE_clean_linker_10, # of connection points: 2
#     Edge 37, Type (0, 0), BuildingBlock: TEMPAE_clean_linker_10, # of connection points: 2
#     Edge 38, Type (0, 0), BuildingBlock: TEMPAE_clean_linker_10, # of connection points: 2
#     Edge 39, Type (0, 0), BuildingBlock: TEMPAE_clean_linker_10, # of connection points: 2
#     Edge 40, Type (0, 0), BuildingBlock: TEMPAE_clean_linker_10, # of connection points: 2
#     Edge 41, Type (0, 0), BuildingBlock: TEMPAE_clean_linker_10, # of connection points: 2
#     Edge 42, Type (0, 0), BuildingBlock: TEMPAE_clean_linker_10, # of connection points: 2
#     Edge 43, Type (0, 0), BuildingBlock: TEMPAE_clean_linker_10, # of connection points: 2
#     Edge 44, Type (0, 0), BuildingBlock: TEMPAE_clean_linker_10, # of connection points: 2
#     Edge 45, Type (0, 0), BuildingBlock: TEMPAE_clean_linker_10, # of connection points: 2
#     Edge 46, Type (0, 0), BuildingBlock: TEMPAE_clean_linker_10, # of connection points: 2
#     Edge 47, Type (0, 0), BuildingBlock: TEMPAE_clean_linker_10, # of connection points: 2
# Relax obj value: 0.088
# Max RMSD: 0.211
# Mean RMSD: 0.211
data_MOF--net-wjd--node1-PAMTUU_clean_sbu_0--edge1-TEMPAE_clean_linker_10
_symmetry_space_group_name_H-M    P1
_symmetry_Int_Tables_number       1
_symmetry_cell_setting            triclinic
loop_
_symmetry_equiv_pos_as_xyz
'x, y, z'
_cell_length_a     40.166146
_cell_length_b     40.242895
_cell_length_c     54.449821
_cell_angle_alpha  90.145253
_cell_angle_beta   90.008256
_cell_angle_gamma 120.01008
loop_
_atom_site_label
_atom_site_type_symbol
_atom_site_fract_x
_atom_site_fract_y
_atom_site_fract_z
_atom_type_partial_charge
Tb0 Tb 0.33618 0.10123 0.13792 0.0
Tb1 Tb 0.38682 0.1866 0.11244 0.0
C2 C 0.38093 0.17326 0.17034 0.0
C3 C 0.24973 1.00865 0.1511 0.0
C4 C 0.16942 0.96186 0.14377 0.0
C5 C 0.18419 0.97965 0.1666 0.0
C6 C 0.22386 1.00264 0.17024 0.0
C7 C 0.23506 0.99055 0.12834 0.0
C8 C 0.19542 0.96741 0.12475 0.0
C9 C 0.29148 0.0353 0.15475 0.0
O10 O 0.30341 0.13101 0.141 0.0
O11 O 0.32681 0.16936 0.10718 0.0
O12 O 0.37212 0.1428 0.08338 0.0
O13 O 0.3164 0.09649 0.10072 0.0
O14 O 0.39388 0.24135 0.10634 0.0
O15 O 0.43327 0.22545 0.09062 0.0
O16 O 0.42807 0.17344 0.12852 0.0
O17 O 0.39206 0.10764 0.12758 0.0
O18 O 0.37265 0.13771 0.16683 0.0
O19 O 0.38284 0.19564 0.15205 0.0
C20 C 0.30065 0.15305 0.12431 0.0
O21 O 0.31386 0.04163 0.13584 0.0
O22 O 0.30064 0.06696 0.16658 0.0
C23 C 0.33963 0.10967 0.08198 0.0
C24 C 0.45802 0.29127 0.10093 0.0
C25 C 0.51969 0.3655 0.11245 0.0
C26 C 0.4899 0.36067 0.09657 0.0
C27 C 0.45953 0.32403 0.09088 0.0
C28 C 0.48719 0.29574 0.11716 0.0
C29 C 0.51776 0.33251 0.12284 0.0
C30 C 0.42568 0.25307 0.09411 0.0
C31 C 0.42565 0.1397 0.12824 0.0
H32 H 0.16507 0.97633 0.1816 0.0
H33 H 0.2343 1.01626 0.18795 0.0
H34 H 0.2541 0.99443 0.11316 0.0
H35 H 0.18517 0.95356 0.10708 0.0
H36 H 0.48994 0.38529 0.08856 0.0
H37 H 0.43715 0.32126 0.0785 0.0
H38 H 0.48652 0.27084 0.12526 0.0
H39 H 0.54029 0.33502 0.13496 0.0
Tb40 Tb 0.84173 0.66442 0.40416 0.0
Tb41 Tb 0.8048 0.71376 0.3795 0.0
C42 C 0.81417 0.71257 0.43536 0.0
C43 C 0.8757 0.59342 0.41365 0.0
C44 C 0.88875 0.53276 0.40019 0.0
C45 C 0.89086 0.54402 0.42493 0.0
C46 C 0.88448 0.574 0.43153 0.0
C47 C 0.87289 0.58204 0.38895 0.0
C48 C 0.87933 0.55198 0.38229 0.0
C49 C 0.8712 0.6263 0.42112 0.0
O50 O 0.78513 0.62232 0.39123 0.0
O51 O 0.75583 0.65892 0.39177 0.0
O52 O 0.79975 0.67351 0.35153 0.0
O53 O 0.84992 0.66562 0.36413 0.0
O54 O 0.76869 0.73738 0.38281 0.0
O55 O 0.80369 0.74765 0.35058 0.0
O56 O 0.86709 0.74603 0.37422 0.0
O57 O 0.88498 0.72446 0.40768 0.0
O58 O 0.81531 0.68039 0.43416 0.0
O59 O 0.82266 0.7349 0.41626 0.0
C60 C 0.75399 0.62519 0.3921 0.0
O61 O 0.88983 0.65744 0.40813 0.0
O62 O 0.83654 0.61912 0.42631 0.0
C63 C 0.82591 0.66394 0.34697 0.0
C64 C 0.79807 0.79933 0.36581 0.0
C65 C 0.82845 0.87922 0.37167 0.0
C66 C 0.79477 0.85698 0.3578 0.0
C67 C 0.77973 0.8174 0.35492 0.0
C68 C 0.83174 0.82131 0.37957 0.0
C69 C 0.84677 0.86085 0.3825 0.0
C70 C 0.78224 0.75768 0.36288 0.0
C71 C 0.89333 0.74968 0.39015 0.0
H72 H 0.89719 0.52944 0.4393 0.0
H73 H 0.88669 0.58224 0.45069 0.0
H74 H 0.86619 0.59669 0.37481 0.0
H75 H 0.87763 0.54428 0.36307 0.0
H76 H 0.77962 0.87006 0.3495 0.0
H77 H 0.75369 0.80089 0.34428 0.0
H78 H 0.84642 0.80785 0.38805 0.0
H79 H 0.87293 0.8771 0.39306 0.0
Tb80 Tb 0.95305 0.24845 0.1383 0.0
Tb81 Tb 0.86562 0.20668 0.11445 0.0
C82 C 0.87911 0.22555 0.17123 0.0
C83 C 0.04993 0.26291 0.14977 0.0
C84 C 0.10359 0.23791 0.14236 0.0
C85 C 0.10436 0.25756 0.164 0.0
C86 C 0.0778 0.26994 0.16764 0.0
C87 C 0.04903 0.2435 0.1281 0.0
C88 C 0.07571 0.23127 0.12438 0.0
C89 C 1.02038 0.27351 0.15465 0.0
O90 O 0.93746 0.19016 0.12708 0.0
O91 O 0.87314 0.16361 0.13307 0.0
O92 O 0.90574 0.2084 0.08604 0.0
O93 O 0.95836 0.26298 0.09988 0.0
O94 O 0.81091 0.15757 0.11138 0.0
O95 O 0.8262 0.20712 0.08905 0.0
O96 O 0.88701 0.26792 0.11319 0.0
O97 O 0.9368 0.29263 0.14139 0.0
O98 O 0.91422 0.23125 0.16926 0.0
O99 O 0.8568 0.21993 0.15206 0.0
C100 C 0.90361 0.16001 0.13125 0.0
O101 O 1.012 0.28929 0.13662 0.0
O102 O 0.98954 0.24718 0.16545 0.0
C103 C 0.94023 0.23826 0.08236 0.0
C104 C 0.7603 0.16977 0.10139 0.0
C105 C 0.68557 0.15903 0.10899 0.0
C106 C 0.69556 0.13262 0.11831 0.0
C107 C 0.73235 0.13782 0.11447 0.0
C108 C 0.75043 0.19636 0.0922 0.0
C109 C 0.71357 0.19109 0.09599 0.0
C110 C 0.79848 0.17371 0.09608 0.0
C111 C 0.91158 0.29583 0.12753 0.0
H112 H 0.12495 0.26262 0.17843 0.0
H113 H 0.07859 0.28441 0.18462 0.0
H114 H 1.02743 0.23744 0.11416 0.0
H115 H 0.07451 0.21668 0.10738 0.0
H116 H 0.67463 0.10736 0.12811 0.0
H117 H 0.73871 0.11643 0.12147 0.0
H118 H 0.77104 0.2211 0.08185 0.0
H119 H 0.70704 0.21224 0.08878 0.0
Tb120 Tb 0.3794 0.18727 0.408 0.0
Tb121 Tb 0.334 0.10263 0.38137 0.0
C122 C 0.32965 0.11035 0.43724 0.0
C123 C 0.4491 0.29204 0.4214 0.0
C124 C 0.51209 0.36721 0.41361 0.0
C125 C 0.515 0.34204 0.43025 0.0
C126 C 0.4839 0.30505 0.43416 0.0
C127 C 0.44624 0.31702 0.40458 0.0
C128 C 0.47734 0.35405 0.4007 0.0
C129 C 0.41544 0.25371 0.42702 0.0
O130 O 0.42375 0.17613 0.39501 0.0
O131 O 0.38915 0.11028 0.39479 0.0
O132 O 0.37464 0.14012 0.35429 0.0
O133 O 0.37992 0.19657 0.36814 0.0
O134 O 0.3123 0.04316 0.38417 0.0
O135 O 0.30319 0.06774 0.35144 0.0
O136 O 0.30045 0.13108 0.37516 0.0
O137 O 0.31866 0.16905 0.40946 0.0
O138 O 0.36249 0.14315 0.43681 0.0
O139 O 0.30909 0.09705 0.41727 0.0
C140 C 0.42231 0.14284 0.39544 0.0
O141 O 0.3851 0.24162 0.41312 0.0
O142 O 0.42216 0.226 0.43233 0.0
C143 C 0.38321 0.17573 0.35059 0.0
C144 C 0.25195 1.0084 0.36488 0.0
C145 C 0.17256 0.95455 0.36916 0.0
C146 C 0.19924 0.94243 0.36403 0.0
C147 C 0.23852 0.96911 0.36189 0.0
C148 C 0.22556 0.02071 0.37005 0.0
C149 C 0.18628 0.99411 0.37205 0.0
C150 C 0.29349 0.03622 0.36351 0.0
C151 C 0.29487 0.15251 0.39104 0.0
H152 H 0.54144 0.35087 0.44027 0.0
H153 H 0.48698 0.28671 0.4474 0.0
H154 H 0.41976 0.30826 0.39463 0.0
H155 H 0.4738 0.3727 0.38797 0.0
H156 H 0.1899 0.91223 0.36211 0.0
H157 H 0.25847 0.95902 0.35816 0.0
H158 H 0.23534 0.05094 0.37262 0.0
H159 H 0.16666 1.00461 0.37571 0.0
Tb160 Tb 0.80711 0.71629 0.13252 0.0
Tb161 Tb 0.84643 0.66781 0.11004 0.0
C162 C 0.84289 0.67953 0.16648 0.0
C163 C 0.80345 0.8035 0.14726 0.0
C164 C 0.83852 0.88443 0.14687 0.0
C165 C 0.80787 0.86222 0.16297 0.0
C166 C 0.79048 0.82209 0.16313 0.0
C167 C 0.8347 0.82568 0.13168 0.0
C168 C 0.85208 0.86565 0.13151 0.0
C169 C 0.78369 0.76116 0.14618 0.0
O170 O 0.8634 0.7584 0.11791 0.0
O171 O 0.89319 0.72287 0.12129 0.0
O172 O 0.83866 0.70075 0.08062 0.0
O173 O 0.78358 0.6935 0.09676 0.0
O174 O 0.89411 0.6598 0.10828 0.0
O175 O 0.84485 0.62717 0.0849 0.0
O176 O 0.78598 0.62589 0.11445 0.0
O177 O 0.76331 0.65651 0.13993 0.0
O178 O 0.84061 0.71026 0.16154 0.0
O179 O 0.83844 0.65463 0.14925 0.0
C180 C 0.89478 0.75599 0.11924 0.0
O181 O 0.77883 0.7467 0.12417 0.0
O182 O 0.79565 0.74435 0.16136 0.0
C183 C 0.80626 0.70099 0.07798 0.0
C184 C 0.88122 0.59805 0.09718 0.0
C185 C 0.89085 0.5345 0.10747 0.0
C186 C 0.91914 0.56638 0.09453 0.0
C187 C 0.91431 0.59771 0.08943 0.0
C188 C 0.85291 0.56656 0.11028 0.0
C189 C 0.85764 0.535 0.11533 0.0
C190 C 0.87808 0.63233 0.09215 0.0
C191 C 0.75932 0.62542 0.1288 0.0
H192 H 0.79649 0.87576 0.17486 0.0
H193 H 0.7664 0.80555 0.17527 0.0
H194 H 0.84522 0.81208 0.11919 0.0
H195 H 0.87591 0.88184 0.11914 0.0
H196 H 0.94536 0.5674 0.08858 0.0
H197 H 0.93669 0.62196 0.07956 0.0
H198 H 0.82726 0.56642 0.11661 0.0
H199 H 0.83509 0.51081 0.12511 0.0
Tb200 Tb 0.86047 0.20733 0.4059 0.0
Tb201 Tb 0.94138 0.23889 0.37488 0.0
C202 C 0.94099 0.24339 0.4323 0.0
C203 C 0.75864 0.17707 0.42439 0.0
C204 C 0.68382 0.16558 0.41673 0.0
C205 C 0.69255 0.1514 0.43792 0.0
C206 C 0.72952 0.15711 0.44167 0.0
C207 C 0.75033 0.19141 0.4032 0.0
C208 C 0.71326 0.18573 0.39941 0.0
C209 C 0.79683 0.18108 0.42842 0.0
O210 O 0.88707 0.26914 0.4039 0.0
O211 O 0.92479 0.28281 0.3694 0.0
O212 O 0.89405 0.20678 0.34977 0.0
O213 O 0.84716 0.21494 0.368 0.0
O214 O 1.00007 0.27861 0.36948 0.0
O215 O 0.97036 0.22918 0.34608 0.0
O216 O 0.92946 0.18534 0.39237 0.0
O217 O 0.86427 0.15832 0.39307 0.0
O218 O 0.90473 0.21554 0.43308 0.0
O219 O 0.95677 0.26106 0.41174 0.0
C220 C 0.90632 0.29207 0.38566 0.0
O221 O 0.80574 0.16092 0.414 0.0
O222 O 0.82578 0.21565 0.43141 0.0
C223 C 0.86172 0.20729 0.34861 0.0
C224 C 0.03375 0.24738 0.35688 0.0
C225 C 0.08905 0.22427 0.36386 0.0
C226 C 0.08762 0.24165 0.34175 0.0
C227 C 0.06022 0.25305 0.33831 0.0
C228 C 0.03503 0.23016 0.37899 0.0
C229 C 0.06244 0.21882 0.38248 0.0
C230 C 1.00367 0.25753 0.35267 0.0
C231 C 0.895 0.15488 0.39314 0.0
H232 H 0.67061 0.13529 0.45147 0.0
H233 H 0.73528 0.14552 0.45803 0.0
H234 H 0.77242 0.2068 0.38958 0.0
H235 H 0.70777 0.19745 0.38303 0.0
H236 H 0.10723 0.24581 0.32689 0.0
H237 H 0.05939 0.26588 0.32102 0.0
H238 H 1.01466 0.22529 0.39352 0.0
H239 H 0.06295 0.20604 0.39985 0.0
Tb240 Tb 0.1965 0.37805 0.60977 0.0
Tb241 Tb 0.11047 0.32571 0.63374 0.0
C242 C 0.12125 0.3415 0.57891 0.0
C243 C 0.30043 0.44943 0.5968 0.0
C244 C 0.37416 0.51121 0.60876 0.0
C245 C 0.36969 0.48369 0.59107 0.0
C246 C 0.33325 0.45322 0.58517 0.0
C247 C 0.3045 0.4765 0.61462 0.0
C248 C 0.34107 0.50719 0.62051 0.0
C249 C 0.26275 0.41599 0.59078 0.0
O250 O 0.17552 0.41774 0.61568 0.0
O251 O 0.12297 0.38439 0.64138 0.0
O252 O 0.15189 0.33624 0.6626 0.0
O253 O 0.20363 0.3924 0.64892 0.0
O254 O 0.05131 0.29384 0.62663 0.0
O255 O 0.07306 0.29482 0.66286 0.0
O256 O 0.12775 0.28641 0.61808 0.0
O257 O 0.19235 0.32537 0.62253 0.0
O258 O 0.15532 0.34444 0.58045 0.0
O259 O 0.10619 0.34736 0.59845 0.0
C260 C 0.14872 0.41626 0.63035 0.0
O261 O 0.25188 0.38617 0.60474 0.0
O262 O 0.23446 0.42215 0.5861 0.0
C263 C 0.18465 0.36794 0.66665 0.0
C264 C 1.02132 0.23607 0.64846 0.0
C265 C 0.97623 0.15522 0.64552 0.0
C266 C 0.96541 0.17628 0.66106 0.0
C267 C 0.9878 0.21636 0.66251 0.0
C268 C 0.03266 0.21512 0.63341 0.0
C269 C 1.01052 0.17516 0.63204 0.0
C270 C 0.04329 0.27838 0.64834 0.0
C271 C 0.16242 0.29107 0.62016 0.0
H272 H 0.39446 0.48539 0.58196 0.0
H273 H 0.33071 0.43232 0.5716 0.0
H274 H 0.27947 0.47384 0.62398 0.0
H275 H 0.34336 0.52801 0.63404 0.0
H276 H 0.93893 0.16195 0.67146 0.0
H277 H 0.97843 0.23202 0.67412 0.0
H278 H 0.05814 0.22976 0.62218 0.0
H279 H 1.02003 0.15994 0.62014 0.0
Tb280 Tb 0.25133 0.93302 0.88486 0.0
Tb281 Tb 0.21555 0.847 0.90885 0.0
C282 C 0.22052 0.85924 0.85204 0.0
C283 C 0.25344 0.02307 0.86822 0.0
C284 C 0.22021 0.07065 0.86864 0.0
C285 C 0.2511 0.07858 0.85286 0.0
C286 C 0.26758 0.05501 0.8527 0.0
C287 C 0.22189 1.01442 0.88344 0.0
C288 C 0.20543 0.03791 0.88364 0.0
C289 C 0.2728 1.00013 0.86954 0.0
O290 O 0.1943 0.91694 0.89932 0.0
O291 O 0.16792 0.85229 0.89515 0.0
O292 O 0.22278 0.88816 0.93808 0.0
O293 O 0.2758 0.93752 0.92085 0.0
O294 O 0.16741 0.79204 0.91326 0.0
O295 O 0.22013 0.80808 0.93251 0.0
O296 O 0.27685 0.86865 0.9058 0.0
O297 O 0.29703 0.91908 0.87846 0.0
O298 O 0.22078 0.8916 0.85591 0.0
O299 O 0.22542 0.84036 0.87008 0.0
C300 C 0.16398 0.88253 0.89711 0.0
O301 O 0.27902 0.99221 0.89162 0.0
O302 O 0.25966 0.97018 0.85522 0.0
C303 C 0.2544 0.92174 0.94009 0.0
C304 C 0.18042 0.74227 0.92156 0.0
C305 C 0.16745 0.66792 0.91036 0.0
C306 C 0.14227 0.67293 0.92589 0.0
C307 C 0.14875 0.70965 0.93142 0.0
C308 C 0.20555 0.73767 0.90584 0.0
C309 C 0.19917 0.70082 0.90033 0.0
C310 C 0.18554 0.78039 0.92743 0.0
C311 C 0.30292 0.89428 0.89097 0.0
H312 H 0.26344 0.10376 0.84125 0.0
H313 H 0.29197 0.06226 0.84088 0.0
H314 H 0.21055 0.99 0.89564 0.0
H315 H 0.18138 0.03067 0.89576 0.0
H316 H 0.1172 0.64841 0.9336 0.0
H317 H 0.12877 0.71256 0.94337 0.0
H318 H 0.23005 0.7625 0.89787 0.0
H319 H 0.21939 0.69816 0.88851 0.0
Tb320 Tb 0.67703 0.83383 0.61069 0.0
Tb321 Tb 0.72532 0.79453 0.63405 0.0
C322 C 0.71102 0.79374 0.579 0.0
C323 C 0.60787 0.8695 0.59802 0.0
C324 C 0.54684 0.8831 0.6093 0.0
C325 C 0.56832 0.89754 0.58758 0.0
C326 C 0.59847 0.89083 0.58205 0.0
C327 C 0.58626 0.8544 0.61954 0.0
C328 C 0.55592 0.86105 0.6251 0.0
C329 C 0.64181 0.86569 0.59256 0.0
O330 O 0.63519 0.77343 0.61483 0.0
O331 O 0.66536 0.7507 0.64063 0.0
O332 O 0.71487 0.82434 0.66372 0.0
O333 O 0.66089 0.82416 0.64937 0.0
O334 O 0.75353 0.76363 0.62673 0.0
O335 O 0.75471 0.78531 0.66302 0.0
O336 O 0.76754 0.85104 0.62005 0.0
O337 O 0.73112 0.87969 0.62432 0.0
O338 O 0.71038 0.82595 0.58144 0.0
O339 O 0.70401 0.77145 0.59791 0.0
C340 C 0.63453 0.74685 0.62924 0.0
O341 O 0.67006 0.88198 0.60817 0.0
O342 O 0.63578 0.83199 0.58585 0.0
C343 C 0.68379 0.82674 0.66748 0.0
C344 C 0.81092 0.78591 0.64907 0.0
C345 C 0.89093 0.81312 0.64764 0.0
C346 C 0.86676 0.78302 0.6635 0.0
C347 C 0.82713 0.76952 0.66415 0.0
C348 C 0.83505 0.8166 0.63369 0.0
C349 C 0.87461 0.83004 0.63296 0.0
C350 C 0.76882 0.76966 0.64851 0.0
C351 C 0.76468 0.88201 0.62243 0.0
H352 H 0.56175 0.91398 0.57475 0.0
H353 H 0.61485 0.9028 0.56538 0.0
H354 H 0.59325 0.83807 0.63221 0.0
H355 H 0.54017 0.84966 0.64203 0.0
H356 H 0.87829 0.76911 0.67487 0.0
H357 H 0.80902 0.74574 0.67608 0.0
H358 H 0.82318 0.82971 0.62187 0.0
H359 H 0.89242 0.85359 0.6208 0.0
Tb360 Tb 0.10275 0.3177 0.87841 0.0
Tb361 Tb 0.18996 0.36576 0.90343 0.0
C362 C 0.17699 0.37004 0.84603 0.0
C363 C 1.00751 0.23118 0.86607 0.0
C364 C 0.95274 0.15228 0.87204 0.0
C365 C 0.98721 0.16372 0.85926 0.0
C366 C 1.01429 0.20264 0.85635 0.0
C367 C 0.97318 0.21977 0.87899 0.0
C368 C 0.94619 0.18079 0.88204 0.0
C369 C 0.03561 0.27264 0.86263 0.0
O370 O 0.12111 0.27712 0.88939 0.0
O371 O 0.18532 0.3167 0.88398 0.0
O372 O 0.14954 0.32815 0.93208 0.0
O373 O 0.09741 0.32885 0.91635 0.0
O374 O 0.24276 0.36903 0.91196 0.0
O375 O 0.23073 0.41262 0.92429 0.0
O376 O 0.16599 0.40357 0.90415 0.0
O377 O 0.11696 0.37759 0.87536 0.0
O378 O 0.1412 0.34189 0.84756 0.0
O379 O 0.19978 0.38539 0.86523 0.0
C380 C 0.15548 0.28212 0.88518 0.0
O381 O 0.04289 0.29489 0.88169 0.0
O382 O 0.06689 0.28125 0.85054 0.0
C383 C 0.11381 0.32102 0.93431 0.0
C384 C 0.29563 0.4324 0.91506 0.0
C385 C 0.37077 0.4915 0.90247 0.0
C386 C 0.36427 0.4693 0.92379 0.0
C387 C 0.32718 0.44015 0.92997 0.0
C388 C 0.30182 0.45404 0.8936 0.0
C389 C 0.33899 0.48332 0.88739 0.0
C390 C 0.25663 0.40235 0.92257 0.0
C391 C 0.14174 0.4064 0.88923 0.0
H392 H 0.99339 0.14251 0.85162 0.0
H393 H 0.04049 0.21026 0.8464 0.0
H394 H 0.9671 0.24105 0.88663 0.0
H395 H 0.91978 0.17297 0.8918 0.0
H396 H 0.38776 0.47503 0.93608 0.0
H397 H 0.32305 0.42391 0.94665 0.0
H398 H 0.27789 0.44848 0.88176 0.0
H399 H 0.34285 0.49948 0.87072 0.0
Tb400 Tb 0.22779 0.85798 0.61512 0.0
Tb401 Tb 0.25722 0.943 0.64157 0.0
C402 C 0.24913 0.93326 0.584 0.0
C403 C 0.19216 0.75262 0.60504 0.0
C404 C 0.16817 0.67504 0.61666 0.0
C405 C 0.15095 0.68416 0.59723 0.0
C406 C 0.16295 0.72246 0.59144 0.0
C407 C 0.20819 0.74367 0.62517 0.0
C408 C 0.19645 0.70541 0.63084 0.0
C409 C 0.20788 0.7928 0.59664 0.0
O410 O 0.28868 0.89551 0.6086 0.0
O411 O 0.30545 0.93206 0.64344 0.0
O412 O 0.24355 0.90414 0.67193 0.0
O413 O 0.23745 0.84932 0.65365 0.0
O414 O 0.29473 1.00272 0.64358 0.0
O415 O 0.24649 0.97418 0.66818 0.0
O416 O 0.19779 0.91931 0.62955 0.0
O417 O 0.17828 0.85566 0.63286 0.0
O418 O 0.22825 0.89537 0.58531 0.0
O419 O 0.26728 0.9549 0.60295 0.0
C420 C 0.31402 0.91543 0.62562 0.0
O421 O 0.24268 0.81739 0.60379 0.0
O422 O 0.18536 0.80749 0.59748 0.0
C423 C 0.2403 0.8701 0.67314 0.0
C424 C 0.26046 0.03444 0.65363 0.0
C425 C 0.23164 0.08439 0.64398 0.0
C426 C 0.25912 0.09289 0.66263 0.0
C427 C 0.27332 0.06809 0.66742 0.0
C428 C 0.23352 0.02604 0.63476 0.0
C429 C 0.21927 0.05079 0.62996 0.0
C430 C 0.27335 1.00708 0.65985 0.0
C431 C 0.17039 0.88357 0.63245 0.0
H432 H 0.12857 0.66169 0.58617 0.0
H433 H 0.15007 0.72854 0.57587 0.0
H434 H 0.23076 0.76625 0.63607 0.0
H435 H 0.21078 0.69981 0.64576 0.0
H436 H 0.26979 0.11882 0.6735 0.0
H437 H 0.29402 0.07499 0.68208 0.0
H438 H 0.22301 0.99997 0.62404 0.0
H439 H 0.19793 0.04313 0.61563 0.0
Tb440 Tb 0.71869 0.7869 0.87483 0.0
Tb441 Tb 0.66384 0.81464 0.90356 0.0
C442 C 0.66188 0.80526 0.84509 0.0
C443 C 0.80894 0.78695 0.86195 0.0
C444 C 0.8881 0.81596 0.8715 0.0
C445 C 0.86901 0.78867 0.85275 0.0
C446 C 0.82989 0.77442 0.84801 0.0
C447 C 0.82756 0.81373 0.88091 0.0
C448 C 0.86673 0.82811 0.88563 0.0
C449 C 0.7683 0.77343 0.85597 0.0
O450 O 0.75375 0.84536 0.88884 0.0
O451 O 0.70944 0.86446 0.88537 0.0
O452 O 0.70307 0.81315 0.93161 0.0
O453 O 0.7146 0.76924 0.91231 0.0
O454 O 0.65698 0.85554 0.92392 0.0
O455 O 0.60854 0.7999 0.91545 0.0
O456 O 0.63818 0.75285 0.90683 0.0
O457 O 0.65963 0.73858 0.87155 0.0
O458 O 0.6912 0.7994 0.84526 0.0
O459 O 0.6458 0.80947 0.86507 0.0
C460 C 0.74535 0.8727 0.88594 0.0
O461 O 0.74291 0.75115 0.87206 0.0
O462 O 0.76116 0.79983 0.84819 0.0
C463 C 0.71633 0.78894 0.93185 0.0
C464 C 0.59596 0.85095 0.91818 0.0
C465 C 0.54331 0.87586 0.90585 0.0
C466 C 0.54842 0.86837 0.93042 0.0
C467 C 0.57441 0.85609 0.93647 0.0
C468 C 0.59184 0.85921 0.89368 0.0
C469 C 0.5658 0.87158 0.88758 0.0
C470 C 0.61967 0.83367 0.92482 0.0
C471 C 0.63362 0.72883 0.88902 0.0
H472 H 0.88426 0.77809 0.84178 0.0
H473 H 0.81604 0.75378 0.83331 0.0
H474 H 0.81191 0.8239 0.89184 0.0
H475 H 0.88042 0.84929 0.90004 0.0
H476 H 0.53125 0.87057 0.94498 0.0
H477 H 0.57682 0.84947 0.95544 0.0
H478 H 0.60809 0.85524 0.87924 0.0
H479 H 0.56301 0.87741 0.86852 0.0
C480 C 0.16981 0.24651 0.14641 0.0
C481 C 0.13142 0.224 0.13879 0.0
C482 C 0.19616 0.23348 0.14368 0.0
C483 C 0.18404 0.19717 0.13284 0.0
C484 C 0.14547 0.1744 0.12489 0.0
C485 C 0.11961 0.188 0.12805 0.0
C486 C 0.23703 0.25862 0.15244 0.0
C487 C 0.13149 0.13561 0.11314 0.0
C488 C 0.26324 0.18197 0.10669 0.0
C489 C 0.26873 0.16156 0.12562 0.0
C490 C 0.23503 0.19275 0.10849 0.0
C491 C 0.21191 0.1832 0.12982 0.0
C492 C 0.21664 0.16179 0.14872 0.0
C493 C 0.24486 0.15109 0.14636 0.0
C494 C 0.2306 0.21517 0.08779 0.0
C495 C 0.19269 0.15121 0.17181 0.0
H496 H 0.17943 0.27459 0.15436 0.0
H497 H 0.08992 0.1701 0.12243 0.0
H498 H 0.24435 0.24303 0.16623 0.0
H499 H 0.25721 0.26563 0.13684 0.0
H500 H 0.24175 0.28586 0.16079 0.0
H501 H 0.10079 0.12172 0.10757 0.0
H502 H 0.14903 0.13857 0.09668 0.0
H503 H 0.13501 0.11639 0.12613 0.0
H504 H 0.28136 0.19002 0.09053 0.0
H505 H 0.24889 0.1354 0.16111 0.0
H506 H 0.23811 0.2442 0.0944 0.0
H507 H 0.20025 0.20078 0.08151 0.0
H508 H 0.2492 0.21833 0.07185 0.0
H509 H 0.19868 0.17767 0.18185 0.0
H510 H 0.19863 0.13297 0.18427 0.0
H511 H 0.16165 0.13567 0.1671 0.0
C512 C 0.10854 0.93084 0.3899 0.0
C513 C 0.13072 0.92604 0.37179 0.0
C514 C 0.06934 0.90382 0.3929 0.0
C515 C 0.05181 0.87092 0.3776 0.0
C516 C 0.07386 0.86605 0.35914 0.0
C517 C 0.11291 0.89368 0.3564 0.0
C518 C 0.04683 0.91017 0.41275 0.0
C519 C 0.05631 0.83132 0.34248 0.0
C520 C 0.96326 0.78123 0.40092 0.0
C521 C 0.93353 0.78178 0.38771 0.0
C522 C 1.00174 0.81018 0.39793 0.0
C523 C 1.01083 0.84078 0.38151 0.0
C524 C 0.9809 0.842 0.36851 0.0
C525 C 0.94264 0.8124 0.37166 0.0
C526 C 0.03276 0.80762 0.41204 0.0
C527 C 0.98935 0.87437 0.35106 0.0
H528 H 0.12201 0.95538 0.40214 0.0
H529 H 0.12951 0.88996 0.34207 0.0
H530 H 1.02078 0.90891 0.4048 0.0
H531 H 0.03699 0.88701 0.42662 0.0
H532 H 0.06408 0.93823 0.4222 0.0
H533 H 0.07713 0.83211 0.32874 0.0
H534 H 0.04568 0.80485 0.35358 0.0
H535 H 0.03122 0.82934 0.33261 0.0
H536 H 0.95662 0.75766 0.41329 0.0
H537 H 0.91987 0.81322 0.36148 0.0
H538 H 0.04963 0.83394 0.42322 0.0
H539 H 0.05298 0.80567 0.39903 0.0
H540 H 1.02087 0.78234 0.42441 0.0
H541 H 1.00557 0.90235 0.3607 0.0
H542 H 0.96275 0.87201 0.34314 0.0
H543 H 1.00772 0.87449 0.33581 0.0
C544 C 0.86139 0.08912 0.1352 0.0
C545 C 0.89866 0.12102 0.13373 0.0
C546 C 0.85523 0.05182 0.13765 0.0
C547 C 0.8871 0.04594 0.13881 0.0
C548 C 0.92489 0.07791 0.13741 0.0
C549 C 0.93025 0.11514 0.1348 0.0
C550 C 0.81443 1.01862 0.13885 0.0
C551 C 0.95957 0.07277 0.1387 0.0
C552 C 0.86187 0.9493 0.1662 0.0
C553 C 0.85485 0.92673 0.14505 0.0
C554 C 0.87463 0.98875 0.16449 0.0
C555 C 0.88017 1.00602 0.14107 0.0
C556 C 0.87453 0.98368 0.11969 0.0
C557 C 0.862 0.9444 0.12194 0.0
C558 C 0.8806 1.0116 0.18773 0.0
C559 C 0.87971 1.00077 0.09436 0.0
H560 H 0.83669 0.09316 0.1343 0.0
H561 H 0.95912 0.13958 0.13374 0.0
H562 H 0.80917 0.99824 0.12358 0.0
H563 H 0.80989 1.0027 0.15628 0.0
H564 H 0.79282 0.02808 0.13767 0.0
H565 H 0.98701 0.10053 0.13769 0.0
H566 H 0.95912 0.0582 0.15607 0.0
H567 H 0.95873 0.05411 0.12339 0.0
H568 H 0.85697 0.936 0.18412 0.0
H569 H 0.85627 0.92715 0.10548 0.0
H570 H 0.85806 0.01976 0.18918 0.0
H571 H 0.90881 0.03854 0.18729 0.0
H572 H 0.87932 0.99517 0.20442 0.0
H573 H 0.85695 1.00816 0.0909 0.0
H574 H 0.8781 0.98071 0.07974 0.0
H575 H 0.9078 0.0277 0.09299 0.0
C576 C 0.23893 0.14626 0.36654 0.0
C577 C 0.26224 0.15966 0.38758 0.0
C578 C 0.2096 0.15504 0.36236 0.0
C579 C 0.20322 0.1776 0.37969 0.0
C580 C 0.22602 0.1904 0.40124 0.0
C581 C 0.25523 0.18137 0.40489 0.0
C582 C 0.18599 0.14088 0.33913 0.0
C583 C 0.22002 0.21426 0.42027 0.0
C584 C 0.15596 0.23467 0.35907 0.0
C585 C 0.1181 0.21186 0.3675 0.0
C586 C 0.18371 0.22358 0.3626 0.0
C587 C 0.17355 0.18888 0.375 0.0
C588 C 0.13537 0.16556 0.38341 0.0
C589 C 0.10813 0.17726 0.37952 0.0
C590 C 0.22409 0.24928 0.35332 0.0
C591 C 0.12334 0.12837 0.3967 0.0
H592 H 0.24403 0.12948 0.35304 0.0
H593 H 0.27291 0.19178 0.42126 0.0
H594 H 0.15493 0.12434 0.34367 0.0
H595 H 0.1906 0.16571 0.3278 0.0
H596 H 0.19349 0.12241 0.32797 0.0
H597 H 0.23914 0.22072 0.43647 0.0
H598 H 0.22561 0.24176 0.41202 0.0
H599 H 0.18972 0.19905 0.42662 0.0
H600 H 0.16417 0.26167 0.35006 0.0
H601 H 0.07885 0.15907 0.38576 0.0
H602 H 0.23255 0.23296 0.34082 0.0
H603 H 0.24458 0.25945 0.36896 0.0
H604 H 0.22707 0.27467 0.34334 0.0
H605 H 0.12893 0.10906 0.38502 0.0
H606 H 0.09241 0.1132 0.40176 0.0
H607 H 0.14066 0.13408 0.41369 0.0
C608 C 0.1101 0.93741 0.11748 0.0
C609 C 0.12717 0.93696 0.13991 0.0
C610 C 0.07087 0.91201 0.11297 0.0
C611 C 0.04805 0.88557 0.13135 0.0
C612 C 0.06465 0.8862 0.15442 0.0
C613 C 0.10397 0.91173 0.15838 0.0
C614 C 0.05427 0.91232 0.08815 0.0
C615 C 0.04133 0.85854 0.17454 0.0
C616 C 0.93861 0.82647 0.12734 0.0
C617 C 0.93331 0.79092 0.1195 0.0
C618 C 0.97585 0.85819 0.13052 0.0
C619 C 1.00832 0.85415 0.12558 0.0
C620 C 1.00293 0.81881 0.1165 0.0
C621 C 0.9656 0.78772 0.11365 0.0
C622 C 0.98039 0.89541 0.14019 0.0
C623 C 0.03665 0.81328 0.1107 0.0
H624 H 0.12756 0.95734 0.10327 0.0
H625 H 0.11682 0.91085 0.17569 0.0
H626 H 0.04736 0.88567 0.078 0.0
H627 H 1.02706 0.91283 0.09028 0.0
H628 H 0.0745 0.93732 0.07689 0.0
H629 H 0.05735 0.86533 0.19219 0.0
H630 H 1.01422 0.85894 0.17755 0.0
H631 H 0.03342 0.82893 0.169 0.0
H632 H 0.9138 0.82909 0.132 0.0
H633 H 0.96175 0.76046 0.10728 0.0
H634 H 1.00152 0.91993 0.129 0.0
H635 H 0.99166 0.90017 0.15925 0.0
H636 H 0.95271 0.89538 0.14027 0.0
H637 H 0.05668 0.83589 0.09792 0.0
H638 H 1.02755 0.7848 0.10231 0.0
H639 H 0.05285 0.81592 0.1278 0.0
C640 C 0.84442 0.94405 0.35554 0.0
C641 C 0.84393 0.92124 0.37515 0.0
C642 C 0.85676 0.98317 0.35888 0.0
C643 C 0.86888 1.00005 0.38244 0.0
C644 C 0.86975 0.97754 0.40212 0.0
C645 C 0.85727 0.93846 0.39825 0.0
C646 C 0.85552 1.00613 0.33737 0.0
C647 C 0.88233 0.99433 0.42752 0.0
C648 C 0.92042 0.10947 0.38672 0.0
C649 C 0.88981 0.11562 0.39235 0.0
C650 C 0.91436 0.072 0.38393 0.0
C651 C 0.87688 0.04002 0.38692 0.0
C652 C 0.84623 0.04616 0.39335 0.0
C653 C 0.85305 0.08373 0.39596 0.0
C654 C 0.94782 0.06666 0.37714 0.0
C655 C 0.80587 1.01298 0.39688 0.0
H656 H 0.83486 0.9312 0.33754 0.0
H657 H 0.85673 0.92106 0.41357 0.0
H658 H 0.83365 1.01476 0.34077 0.0
H659 H 0.88366 0.03281 0.33523 0.0
H660 H 0.8483 0.98967 0.31988 0.0
H661 H 0.885 0.97421 0.44022 0.0
H662 H 0.91038 0.0214 0.4267 0.0
H663 H 0.86109 1.00142 0.43528 0.0
H664 H 0.9489 0.1339 0.38386 0.0
H665 H 0.82921 0.08804 0.40051 0.0
H666 H 0.94303 0.05355 0.3586 0.0
H667 H 0.95004 0.04671 0.39017 0.0
H668 H 0.97554 0.09422 0.3771 0.0
H669 H 0.79515 0.99678 0.37941 0.0
H670 H 0.78555 0.02256 0.40285 0.0
H671 H 0.80576 0.99284 0.4108 0.0
C672 C 0.2103 0.11914 0.61525 0.0
C673 C 0.21594 0.11048 0.63933 0.0
C674 C 0.19751 0.14532 0.6107 0.0
C675 C 0.19032 0.16346 0.63067 0.0
C676 C 0.19461 0.1538 0.65501 0.0
C677 C 0.20728 0.12744 0.65902 0.0
C678 C 0.19327 0.15478 0.58448 0.0
C679 C 0.18725 0.17243 0.67684 0.0
C680 C 0.20633 0.26397 0.62224 0.0
C681 C 0.16864 0.25762 0.62109 0.0
C682 C 0.21358 0.23353 0.62483 0.0
C683 C 0.18242 0.19547 0.62627 0.0
C684 C 0.14425 0.18858 0.62447 0.0
C685 C 0.1378 0.21976 0.62189 0.0
C686 C 0.25474 0.24227 0.62664 0.0
C687 C 0.11026 0.14839 0.6258 0.0
H688 H 0.21711 0.1064 0.59989 0.0
H689 H 0.21071 0.12032 0.67769 0.0
H690 H 0.16503 0.15298 0.5818 0.0
H691 H 0.21584 0.18468 0.58034 0.0
H692 H 0.19585 0.13528 0.57113 0.0
H693 H 0.18893 0.15962 0.69452 0.0
H694 H 0.20878 0.20352 0.67719 0.0
H695 H 0.15846 0.16973 0.67534 0.0
H696 H 0.23049 0.293 0.62149 0.0
H697 H 0.10864 0.21446 0.62095 0.0
H698 H 0.26052 0.22603 0.61242 0.0
H699 H 0.25969 0.23302 0.6448 0.0
H700 H 0.27574 0.27332 0.62436 0.0
H701 H 0.11316 0.12981 0.61189 0.0
H702 H 0.08253 0.14763 0.62278 0.0
H703 H 0.10946 0.1359 0.64409 0.0
C704 C 0.09275 0.83943 0.89445 0.0
C705 C 0.12443 0.87688 0.89558 0.0
C706 C 0.05517 0.83263 0.8915 0.0
C707 C 0.04867 0.864 0.88965 0.0
C708 C 0.08031 0.90195 0.89134 0.0
C709 C 0.11784 0.90796 0.89427 0.0
C710 C 1.02243 0.79169 0.88981 0.0
C711 C 0.07458 0.93618 0.88959 0.0
C712 C 0.95564 0.8396 0.85661 0.0
C713 C 0.93002 0.83148 0.87624 0.0
C714 C 0.99469 0.85192 0.86073 0.0
C715 C 1.00875 0.85649 0.88509 0.0
C716 C 0.98346 0.84989 0.90498 0.0
C717 C 0.94445 0.83739 0.90033 0.0
C718 C 1.02057 0.8586 0.83896 0.0
C719 C 0.99721 0.85445 0.93123 0.0
H720 H 0.09726 0.81508 0.89557 0.0
H721 H 0.142 0.93696 0.89514 0.0
H722 H 1.00049 0.78637 0.90399 0.0
H723 H 1.00817 0.78667 0.87164 0.0
H724 H 0.03217 0.77048 0.89226 0.0
H725 H 0.10183 0.96374 0.89232 0.0
H726 H 0.06266 0.93662 0.87129 0.0
H727 H 0.05343 0.93399 0.90352 0.0
H728 H 0.94509 0.83599 0.83792 0.0
H729 H 0.92499 0.831 0.91566 0.0
H730 H 0.02982 0.83682 0.83884 0.0
H731 H 0.04689 0.88719 0.84035 0.0
H732 H 1.00608 0.8568 0.82122 0.0
H733 H 1.00423 0.83174 0.93563 0.0
H734 H 0.97525 0.85241 0.94448 0.0
H735 H 1.02388 0.88251 0.93379 0.0
C736 C 0.83619 0.92537 0.62788 0.0
C737 C 0.79949 0.92063 0.62415 0.0
C738 C 0.86847 0.96219 0.63124 0.0
C739 C 0.86383 0.99488 0.63078 0.0
C740 C 0.82699 0.9902 0.62647 0.0
C741 C 0.79543 0.95329 0.62322 0.0
C742 C 0.90733 0.96607 0.63571 0.0
C743 C 0.8207 0.02422 0.62566 0.0
C744 C 0.93125 0.08944 0.66232 0.0
C745 C 0.95074 0.11301 0.64225 0.0
C746 C 0.90449 0.05027 0.65904 0.0
C747 C 0.89698 0.03422 0.6351 0.0
C748 C 0.91791 0.05739 0.61494 0.0
C749 C 0.94441 0.09646 0.61874 0.0
C750 C 0.88287 0.02653 0.68105 0.0
C751 C 0.91074 0.04148 0.58912 0.0
H752 H 0.83959 0.90033 0.6287 0.0
H753 H 0.7673 0.95009 0.62016 0.0
H754 H 0.92844 0.98605 0.62217 0.0
H755 H 0.91795 0.9785 0.65421 0.0
H756 H 0.90644 0.93806 0.63448 0.0
H757 H 0.79034 1.0157 0.62166 0.0
H758 H 0.82889 0.03957 0.64354 0.0
H759 H 0.83926 0.04478 0.61139 0.0
H760 H 0.93645 0.10178 0.6806 0.0
H761 H 0.95895 0.11442 0.60304 0.0
H762 H 0.88351 0.99929 0.68134 0.0
H763 H 0.85229 0.01894 0.67981 0.0
H764 H 0.8949 0.04203 0.69863 0.0
H765 H 0.91072 1.01392 0.58858 0.0
H766 H 0.93264 0.06171 0.57599 0.0
H767 H 0.882 0.0356 0.58285 0.0
C768 C 0.19891 0.25455 0.88126 0.0
C769 C 0.16141 0.24869 0.88225 0.0
C770 C 0.20562 0.2237 0.87864 0.0
C771 C 0.1741 0.18585 0.87677 0.0
C772 C 0.13611 0.17963 0.87755 0.0
C773 C 0.1302 0.21112 0.88038 0.0
C774 C 0.24659 0.23169 0.87806 0.0
C775 C 0.10176 0.13974 0.87546 0.0
C776 C 0.19934 0.11412 0.84932 0.0
C777 C 0.20492 0.09758 0.87045 0.0
C778 C 0.18752 0.14158 0.85104 0.0
C779 C 0.1814 0.15304 0.87444 0.0
C780 C 0.18578 0.13553 0.89578 0.0
C781 C 0.19742 0.10804 0.89353 0.0
C782 C 0.18283 0.15927 0.82782 0.0
C783 C 0.17986 0.14708 0.9211 0.0
H784 H 0.22328 0.28338 0.88275 0.0
H785 H 0.10113 0.2063 0.88101 0.0
H786 H 0.25143 0.21639 0.89334 0.0
H787 H 0.25198 0.22076 0.86066 0.0
H788 H 0.2679 0.26278 0.87967 0.0
H789 H 0.07414 0.13982 0.87559 0.0
H790 H 0.10351 0.12587 0.85825 0.0
H791 H 0.10173 0.12184 0.89094 0.0
H792 H 0.20454 0.10581 0.83141 0.0
H793 H 0.20205 0.09577 0.90998 0.0
H794 H 0.2053 0.19002 0.82707 0.0
H795 H 0.15454 0.15787 0.8277 0.0
H796 H 0.18516 0.1448 0.81104 0.0
H797 H 0.2023 0.17724 0.92485 0.0
H798 H 0.18128 0.12858 0.93569 0.0
H799 H 0.15159 0.14564 0.9222 0.0
C800 C 0.12075 0.90386 0.63688 0.0
C801 C 0.12977 0.87444 0.63493 0.0
C802 C 0.08243 0.89549 0.63931 0.0
C803 C 0.05229 0.85676 0.63966 0.0
C804 C 0.06121 0.82696 0.63768 0.0
C805 C 0.09975 0.83614 0.63542 0.0
C806 C 0.07422 0.92811 0.6415 0.0
C807 C 0.02997 0.7853 0.63781 0.0
C808 C 0.95462 0.83029 0.66688 0.0
C809 C 0.9327 0.82583 0.64575 0.0
C810 C 0.9937 0.84105 0.66521 0.0
C811 C 1.01134 0.84725 0.64184 0.0
C812 C 0.98947 0.84317 0.62047 0.0
C813 C 0.95053 0.83262 0.62269 0.0
C814 C 1.01604 0.84541 0.68845 0.0
C815 C 1.00701 0.84919 0.59519 0.0
H816 H 0.14367 0.93355 0.63661 0.0
H817 H 0.10629 0.81315 0.6339 0.0
H818 H 0.0554 0.92679 0.62617 0.0
H819 H 0.05855 0.92542 0.65884 0.0
H820 H 0.10087 0.95663 0.64125 0.0
H821 H 0.04164 0.76553 0.63608 0.0
H822 H 1.01324 0.77864 0.6551 0.0
H823 H 1.00967 0.77961 0.62243 0.0
H824 H 0.94122 0.82555 0.68478 0.0
H825 H 0.93374 0.82875 0.60624 0.0
H826 H 0.04183 0.87448 0.68931 0.0
H827 H 1.0263 0.82443 0.68847 0.0
H828 H 0.99855 0.8409 0.70523 0.0
H829 H 0.03272 0.87823 0.59389 0.0
H830 H 0.98647 0.846 0.58045 0.0
H831 H 1.01669 0.82813 0.59187 0.0
C832 C 0.91374 0.08598 0.85426 0.0
C833 C 0.92345 0.1108 0.87451 0.0
C834 C 0.88557 0.047 0.85609 0.0
C835 C 0.86673 0.03225 0.87878 0.0
C836 C 0.87678 0.05702 0.8994 0.0
C837 C 0.90485 0.09598 0.89699 0.0
C838 C 0.87547 0.02173 0.83359 0.0
C839 C 0.85769 0.0424 0.92399 0.0
C840 C 0.76789 0.94216 0.87808 0.0
C841 C 0.77656 0.91342 0.88412 0.0
C842 C 0.79692 0.9808 0.87623 0.0
C843 C 0.83568 0.99121 0.88073 0.0
C844 C 0.84466 0.96238 0.8869 0.0
C845 C 0.81505 0.92385 0.8884 0.0
C846 C 0.7861 1.01051 0.86936 0.0
C847 C 0.88556 0.97227 0.892 0.0
H848 H 0.92764 0.09728 0.83675 0.0
H849 H 0.91251 0.11485 0.9128 0.0
H850 H 0.87933 0.99679 0.83741 0.0
H851 H 0.84478 1.01024 0.82879 0.0
H852 H 0.89335 0.03736 0.81746 0.0
H853 H 0.86963 0.065 0.93841 0.0
H854 H 0.82637 0.03149 0.92237 0.0
H855 H 0.86129 1.01805 0.92997 0.0
H856 H 0.73831 0.93446 0.8746 0.0
H857 H 0.82209 0.90192 0.89311 0.0
H858 H 0.80147 0.02562 0.85239 0.0
H859 H 0.79504 0.03241 0.88411 0.0
H860 H 0.7547 0.99773 0.86624 0.0
H861 H 0.90376 0.98622 0.87569 0.0
H862 H 0.88776 0.94659 0.89673 0.0
H863 H 0.89751 0.9931 0.90741 0.0
C864 C 0.3802 0.21377 0.3151 0.0
C865 C 0.39369 0.19073 0.32529 0.0
C866 C 0.38242 0.22048 0.2896 0.0
C867 C 0.39891 0.20413 0.27416 0.0
C868 C 0.41598 0.18417 0.28483 0.0
C869 C 0.41282 0.17741 0.3102 0.0
C870 C 0.36399 0.24202 0.27904 0.0
C871 C 0.4345 0.1668 0.26922 0.0
C872 C 0.35557 0.16042 0.21259 0.0
C873 C 0.38349 0.1857 0.19613 0.0
C874 C 0.35907 0.1677 0.23787 0.0
C875 C 0.39181 0.20089 0.2471 0.0
C876 C 0.41916 0.22774 0.23043 0.0
C877 C 0.41453 0.21992 0.20497 0.0
C878 C 0.32876 0.13851 0.25478 0.0
C879 C 0.45441 0.26341 0.2395 0.0
H880 H 0.36535 0.22409 0.32672 0.0
H881 H 0.42377 0.16003 0.31809 0.0
H882 H 0.38162 0.26117 0.26392 0.0
H883 H 0.33546 0.2212 0.27128 0.0
H884 H 0.35977 0.25943 0.29326 0.0
H885 H 0.45148 0.1575 0.28043 0.0
H886 H 0.41184 0.14139 0.2593 0.0
H887 H 0.45366 0.18762 0.25527 0.0
H888 H 0.33129 0.13415 0.20567 0.0
H889 H 0.43616 0.23943 0.19219 0.0
H890 H 0.31898 0.15284 0.26801 0.0
H891 H 0.34114 0.12388 0.26554 0.0
H892 H 0.30332 0.11635 0.24456 0.0
H893 H 0.44696 0.27722 0.25452 0.0
H894 H 0.46883 0.28455 0.22454 0.0
H895 H 0.47515 0.25548 0.24706 0.0
C896 C 0.86466 0.65913 0.31223 0.0
C897 C 0.82982 0.65446 0.32118 0.0
C898 C 0.87039 0.65746 0.28682 0.0
C899 C 0.84062 0.65107 0.27015 0.0
C900 C 0.80438 0.64302 0.27935 0.0
C901 C 0.79946 0.64476 0.30469 0.0
C902 C 0.90916 0.66536 0.27779 0.0
C903 C 0.77167 0.63578 0.26235 0.0
C904 C 0.86063 0.70292 0.20951 0.0
C905 C 0.8487 0.6728 0.19252 0.0
C906 C 0.86066 0.69657 0.23478 0.0
C907 C 0.84861 0.65909 0.24343 0.0
C908 C 0.83932 0.62906 0.22632 0.0
C909 C 0.83939 0.63625 0.20099 0.0
C910 C 0.871 0.72957 0.25226 0.0
C911 C 0.82704 0.58889 0.23477 0.0
H912 H 0.88819 0.66635 0.32487 0.0
H913 H 0.77215 0.64032 0.31149 0.0
H914 H 0.90602 0.64621 0.26218 0.0
H915 H 0.92573 0.69537 0.27115 0.0
H916 H 0.92601 0.66157 0.2926 0.0
H917 H 0.74423 0.62586 0.2724 0.0
H918 H 0.77881 0.66268 0.25254 0.0
H919 H 0.7673 0.61396 0.24831 0.0
H920 H 0.86859 0.73145 0.20315 0.0
H921 H 0.83037 0.61284 0.18798 0.0
H922 H 0.89238 0.73162 0.26596 0.0
H923 H 0.84496 0.72453 0.26246 0.0
H924 H 0.88297 0.7575 0.24259 0.0
H925 H 0.84512 0.58936 0.25033 0.0
H926 H 0.82867 0.57111 0.21969 0.0
H927 H 0.79688 0.57493 0.24132 0.0
C928 C 0.82647 0.2028 0.20306 0.0
C929 C 0.86529 0.2254 0.19652 0.0
C930 C 0.81518 0.19829 0.22795 0.0
C931 C 0.84342 0.21684 0.24652 0.0
C932 C 0.8821 0.24198 0.23969 0.0
C933 C 0.89245 0.24588 0.21489 0.0
C934 C 0.77355 0.17185 0.23437 0.0
C935 C 0.9133 0.26276 0.25869 0.0
C936 C 0.8333 0.22757 0.31489 0.0
C937 C 0.84424 0.2019 0.32399 0.0
C938 C 0.82845 0.23006 0.28943 0.0
C939 C 0.83474 0.20633 0.27298 0.0
C940 C 0.84126 0.17738 0.28254 0.0
C941 C 0.84613 0.17569 0.30789 0.0
C942 C 0.82054 0.26067 0.28008 0.0
C943 C 0.84764 0.15102 0.26587 0.0
H944 H 0.80528 0.18706 0.18893 0.0
H945 H 0.9224 0.2641 0.20993 0.0
H946 H 0.76946 0.14346 0.23973 0.0
H947 H 0.76474 0.18318 0.25015 0.0
H948 H 0.75435 0.16753 0.21852 0.0
H949 H 0.94125 0.28364 0.25028 0.0
H950 H 0.90489 0.27838 0.27181 0.0
H951 H 0.91746 0.24164 0.26935 0.0
H952 H 0.83189 0.24793 0.32731 0.0
H953 H 0.85424 0.15556 0.31498 0.0
H954 H 0.80136 0.25042 0.26378 0.0
H955 H 0.84801 0.2861 0.27443 0.0
H956 H 0.80723 0.26988 0.29447 0.0
H957 H 0.82571 0.13936 0.25108 0.0
H958 H 0.84664 0.12666 0.27608 0.0
H959 H 0.87627 0.16746 0.25703 0.0
C960 C 0.1878 0.34523 0.70851 0.0
C961 C 0.19874 0.37601 0.69233 0.0
C962 C 0.19391 0.35122 0.73385 0.0
C963 C 0.21115 0.38901 0.74342 0.0
C964 C 0.2252 0.42048 0.727 0.0
C965 C 0.2189 0.41361 0.70154 0.0
C966 C 0.17887 0.31673 0.75052 0.0
C967 C 0.24416 0.46121 0.73637 0.0
C968 C 0.16518 0.38613 0.80433 0.0
C969 C 0.19085 0.38436 0.82098 0.0
C970 C 0.17323 0.3912 0.77917 0.0
C971 C 0.20778 0.39425 0.77028 0.0
C972 C 0.23538 0.39584 0.78725 0.0
C973 C 0.22661 0.39095 0.81255 0.0
C974 C 0.14308 0.38984 0.76194 0.0
C975 C 0.27278 0.39963 0.7786 0.0
H976 H 0.17281 0.31611 0.70143 0.0
H977 H 0.22751 0.43754 0.6891 0.0
H978 H 0.20082 0.32083 0.76441 0.0
H979 H 0.15322 0.3132 0.76052 0.0
H980 H 0.17053 0.28984 0.74017 0.0
H981 H 0.2608 0.48218 0.72172 0.0
H982 H 0.22176 0.46744 0.74308 0.0
H983 H 0.26363 0.46542 0.752 0.0
H984 H 0.13772 0.3816 0.8109 0.0
H985 H 0.24651 0.38963 0.82542 0.0
H986 H 0.12967 0.36241 0.75152 0.0
H987 H 0.15631 0.41353 0.74842 0.0
H988 H 0.12004 0.39192 0.77188 0.0
H989 H 0.26749 0.37139 0.77178 0.0
H990 H 0.29427 0.40906 0.79369 0.0
H991 H 0.28502 0.42032 0.76322 0.0
C992 C 0.23534 0.82653 0.81781 0.0
C993 C 0.2165 0.84576 0.82628 0.0
C994 C 0.23789 0.82095 0.79244 0.0
C995 C 0.22102 0.83474 0.77534 0.0
C996 C 0.19913 0.85106 0.78408 0.0
C997 C 0.19733 0.85651 0.80936 0.0
C998 C 0.26109 0.80301 0.78397 0.0
C999 C 0.18016 0.86574 0.76665 0.0
C1000 C 0.26671 0.88185 0.71526 0.0
C1001 C 0.24052 0.85599 0.69811 0.0
C1002 C 0.26267 0.87351 0.74039 0.0
C1003 C 0.23123 0.83855 0.74872 0.0
C1004 C 0.20656 0.81085 0.73128 0.0
C1005 C 0.21158 0.81988 0.70603 0.0
C1006 C 0.2901 0.90377 0.75815 0.0
C1007 C 0.17303 0.77306 0.73932 0.0
H1008 H 0.25018 0.81811 0.83082 0.0
H1009 H 0.18218 0.87083 0.81584 0.0
H1010 H 0.2472 0.78375 0.76801 0.0
H1011 H 0.28994 0.82594 0.77802 0.0
H1012 H 0.26496 0.78645 0.79888 0.0
H1013 H 0.16055 0.87341 0.77631 0.0
H1014 H 0.20256 0.89169 0.75712 0.0
H1015 H 0.1635 0.8439 0.75241 0.0
H1016 H 0.28934 0.90967 0.70907 0.0
H1017 H 0.19122 0.79991 0.69277 0.0
H1018 H 0.30015 0.89083 0.77218 0.0
H1019 H 0.27502 0.91667 0.76791 0.0
H1020 H 0.31559 0.92709 0.74871 0.0
H1021 H 0.18108 0.76105 0.75506 0.0
H1022 H 0.16219 0.75174 0.72411 0.0
H1023 H 0.14926 0.77762 0.74543 0.0
C1024 C 0.70235 0.8422 0.71145 0.0
C1025 C 0.67399 0.83048 0.69322 0.0
C1026 C 0.69315 0.84063 0.73638 0.0
C1027 C 0.65448 0.82688 0.74342 0.0
C1028 C 0.62608 0.81754 0.72508 0.0
C1029 C 0.63618 0.81945 0.70012 0.0
C1030 C 0.72456 0.85131 0.75523 0.0
C1031 C 0.58467 0.80326 0.73176 0.0
C1032 C 0.6392 0.77688 0.80411 0.0
C1033 C 0.64715 0.80667 0.82061 0.0
C1034 C 0.6372 0.78172 0.7788 0.0
C1035 C 0.64387 0.81752 0.76977 0.0
C1036 C 0.64787 0.84629 0.78659 0.0
C1037 C 0.6495 0.84051 0.81198 0.0
C1038 C 0.63229 0.74998 0.76168 0.0
C1039 C 0.65431 0.88454 0.77777 0.0
H1040 H 0.73178 0.85142 0.70628 0.0
H1041 H 0.61409 0.81049 0.68613 0.0
H1042 H 0.72432 0.87168 0.76888 0.0
H1043 H 0.71947 0.82523 0.7653 0.0
H1044 H 0.75357 0.86459 0.74676 0.0
H1045 H 0.5682 0.80541 0.71605 0.0
H1046 H 0.57095 0.7727 0.73729 0.0
H1047 H 0.58257 0.81961 0.74755 0.0
H1048 H 0.63739 0.7507 0.81091 0.0
H1049 H 0.65597 0.86366 0.82478 0.0
H1050 H 0.66036 0.75798 0.75307 0.0
H1051 H 0.61177 0.74573 0.74674 0.0
H1052 H 0.62186 0.72233 0.77147 0.0
H1053 H 0.68483 0.90274 0.77228 0.0
H1054 H 0.64795 0.89986 0.79239 0.0
H1055 H 0.63623 0.88099 0.76147 0.0
C1056 C 0.30459 0.96568 0.96957 0.0
C1057 C 0.26558 0.94464 0.96308 0.0
C1058 C 0.31745 0.99257 0.98886 0.0
C1059 C 0.29085 0.99967 1.00156 0.0
C1060 C 0.25125 0.97816 0.99523 0.0
C1061 C 0.23901 0.95052 0.97626 0.0
C1062 C 0.35964 1.01369 0.99546 0.0
C1063 C 0.22201 0.98526 1.00797 0.0
C1064 C 0.31656 0.04426 0.06541 0.0
C1065 C 0.33016 0.08326 0.06072 0.0
C1066 C 0.30422 1.01706 0.04639 0.0
C1067 C 0.30445 0.02879 0.02189 0.0
C1068 C 0.31833 0.06826 0.01694 0.0
C1069 C 0.33157 0.0952 0.03642 0.0
C1070 C 0.29091 0.97571 0.05259 0.0
C1071 C 0.31835 0.08185 0.99115 0.0
H1072 H 0.32525 0.9614 0.95925 0.0
H1073 H 0.20899 0.93498 0.97088 0.0
H1074 H 0.37199 0.04488 0.99228 0.0
H1075 H 0.36335 1.00984 0.01525 0.0
H1076 H 0.37629 1.00361 0.98455 0.0
H1077 H 0.19246 0.96657 1.00076 0.0
H1078 H 0.22202 0.98016 0.02798 0.0
H1079 H 0.22981 1.01569 1.00559 0.0
H1080 H 0.31569 0.03494 0.08419 0.0
H1081 H 0.34164 0.12522 0.03277 0.0
H1082 H 0.30805 0.96575 0.04216 0.0
H1083 H 0.26042 0.95722 0.0471 0.0
H1084 H 0.29356 0.9715 0.0725 0.0
H1085 H 0.33654 0.07518 0.97913 0.0
H1086 H 0.32916 0.1132 0.99037 0.0
H1087 H 0.28874 0.0664 0.98352 0.0
C1088 C 0.80897 0.72024 0.4811 0.0
C1089 C 0.79829 0.72251 0.45696 0.0
C1090 C 0.79546 0.73291 0.50098 0.0
C1091 C 0.76978 0.74693 0.49657 0.0
C1092 C 0.75819 0.74811 0.47221 0.0
C1093 C 0.77298 0.73646 0.4528 0.0
C1094 C 0.80917 0.73197 0.52662 0.0
C1095 C 0.72994 0.76148 0.4666 0.0
C1096 C 0.70592 0.74453 0.54911 0.0
C1097 C 0.72352 0.78325 0.55609 0.0
C1098 C 0.72037 0.73246 0.52966 0.0
C1099 C 0.75414 0.75958 0.51731 0.0
C1100 C 0.77196 0.79886 0.5242 0.0
C1101 C 0.75612 0.81032 0.54331 0.0
C1102 C 0.69958 0.69059 0.52243 0.0
C1103 C 0.80838 0.8286 0.51186 0.0
H1104 H 0.82875 0.70978 0.48435 0.0
H1105 H 0.76433 0.73792 0.43415 0.0
H1106 H 0.82301 0.76116 0.53481 0.0
H1107 H 0.78436 0.71308 0.53844 0.0
H1108 H 0.83003 0.72148 0.52694 0.0
H1109 H 0.72299 0.75958 0.44672 0.0
H1110 H 0.70286 0.74389 0.47692 0.0
H1111 H 0.74181 0.79167 0.47264 0.0
H1112 H 0.68084 0.7235 0.5591 0.0
H1113 H 0.7703 0.84012 0.54906 0.0
H1114 H 0.71867 0.67836 0.52515 0.0
H1115 H 0.6919 0.68753 0.50265 0.0
H1116 H 0.67291 0.67342 0.53326 0.0
H1117 H 0.83102 0.82066 0.51379 0.0
H1118 H 0.81925 0.85774 0.51972 0.0
H1119 H 0.80327 0.82958 0.49192 0.0
C1120 C 0.10473 0.30566 0.97996 0.0
C1121 C 0.08948 0.30244 0.95634 0.0
C1122 C 0.08021 0.29129 1.00063 0.0
C1123 C 0.03966 0.27321 0.99753 0.0
C1124 C 1.02434 0.2681 0.97356 0.0
C1125 C 0.04927 0.28262 0.95342 0.0
C1126 C 0.09771 0.29685 0.02587 0.0
C1127 C 0.98151 0.24905 0.96915 0.0
C1128 C 0.96829 0.21674 0.04887 0.0
C1129 C 0.96113 0.2447 0.05885 0.0
C1130 C 0.99445 0.22569 0.02927 0.0
C1131 C 1.01324 0.26322 0.01917 0.0
C1132 C 1.0051 0.29109 0.02888 0.0
C1133 C 0.97967 0.28164 0.04876 0.0
C1134 C 1.00277 0.19533 0.01979 0.0
C1135 C 1.02345 0.33111 0.01836 0.0
H1136 H 0.13566 0.32067 0.98239 0.0
H1137 H 0.03699 0.2791 0.93522 0.0
H1138 H 0.09342 0.31821 0.03621 0.0
H1139 H 0.08323 0.26958 0.03632 0.0
H1140 H 0.12902 0.30712 0.02509 0.0
H1141 H 0.97407 0.24434 0.94931 0.0
H1142 H 0.96629 0.22099 0.97865 0.0
H1143 H 0.97052 0.2673 0.97685 0.0
H1144 H 0.95487 0.18849 0.05714 0.0
H1145 H 0.97457 0.30344 0.05671 0.0
H1146 H 0.0338 0.20519 0.02209 0.0
H1147 H 0.99632 0.19057 0.99986 0.0
H1148 H 0.98579 0.16756 0.02949 0.0
H1149 H 0.05519 0.3452 0.01983 0.0
H1150 H 1.01387 0.34932 0.02788 0.0
H1151 H 1.01624 0.32968 0.99857 0.0
C1152 C 0.27738 0.0563 0.46105 0.0
C1153 C 0.31599 0.08577 0.45958 0.0
C1154 C 0.26413 0.02981 0.48047 0.0
C1155 C 0.2901 0.03235 0.49895 0.0
C1156 C 0.32904 0.06231 0.49779 0.0
C1157 C 0.34147 0.0888 0.47822 0.0
C1158 C 0.22227 0.99897 0.48114 0.0
C1159 C 0.35774 0.06599 0.51704 0.0
C1160 C 0.25228 0.98854 0.56185 0.0
C1161 C 0.25342 0.95425 0.56078 0.0
C1162 C 0.26311 1.01353 0.54172 0.0
C1163 C 0.27615 1.00452 0.51992 0.0
C1164 C 0.27617 0.96925 0.5184 0.0
C1165 C 0.26452 0.94434 0.53884 0.0
C1166 C 0.2617 0.05021 0.54413 0.0
C1167 C 0.29002 0.95862 0.49556 0.0
H1168 H 0.25735 0.05366 0.44679 0.0
H1169 H 0.37138 0.11111 0.47712 0.0
H1170 H 0.21971 0.97021 0.48082 0.0
H1171 H 0.20894 1.00112 0.49848 0.0
H1172 H 0.20571 1.00097 0.46544 0.0
H1173 H 0.38706 0.09031 0.51332 0.0
H1174 H 0.34847 0.07029 0.53539 0.0
H1175 H 0.35901 0.0391 0.51785 0.0
H1176 H 0.24378 0.99635 0.57883 0.0
H1177 H 0.2661 0.91824 0.53809 0.0
H1178 H 0.24471 0.05255 0.52885 0.0
H1179 H 0.29119 0.07528 0.54288 0.0
H1180 H 0.24883 0.05194 0.56182 0.0
H1181 H 0.27378 0.95934 0.47929 0.0
H1182 H 0.28689 0.92965 0.49687 0.0
H1183 H 0.32076 0.97995 0.49242 0.0
C1184 C 0.82392 0.74942 0.04445 0.0
C1185 C 0.79679 0.71496 0.05545 0.0
C1186 C 0.81309 0.76601 0.02554 0.0
C1187 C 0.77449 0.74708 0.01705 0.0
C1188 C 0.74728 0.71183 0.02788 0.0
C1189 C 0.75864 0.69661 0.04719 0.0
C1190 C 0.84275 0.80403 0.0149 0.0
C1191 C 0.7062 0.68993 0.01892 0.0
C1192 C 0.73102 0.79471 0.97764 0.0
C1193 C 0.73368 0.782 0.9541 0.0
C1194 C 0.74568 0.78504 0.99835 0.0
C1195 C 0.76303 0.76195 0.99541 0.0
C1196 C 0.76694 0.75036 0.9716 0.0
C1197 C 0.75262 0.76072 0.9514 0.0
C1198 C 0.74172 0.79862 0.02345 0.0
C1199 C 0.78484 0.7255 0.96745 0.0
H1200 H 0.85319 0.76421 0.05133 0.0
H1201 H 0.73755 0.6702 0.05594 0.0
H1202 H 0.84695 0.80063 0.99511 0.0
H1203 H 0.83252 0.82498 0.01629 0.0
H1204 H 0.87095 0.81607 0.02438 0.0
H1205 H 0.68856 0.66307 0.02941 0.0
H1206 H 0.69271 0.70809 0.02045 0.0
H1207 H 0.70557 0.68244 0.99923 0.0
H1208 H 0.71684 0.81141 0.97995 0.0
H1209 H 0.75575 0.75127 0.93333 0.0
H1210 H 0.76969 0.81197 0.03328 0.0
H1211 H 0.72091 0.77375 0.03452 0.0
H1212 H 0.73157 0.81969 0.02245 0.0
H1213 H 0.81403 0.73914 0.97563 0.0
H1214 H 0.78709 0.72018 0.94765 0.0
H1215 H 0.76729 0.69742 0.97666 0.0
C1216 C 0.10205 0.30562 0.53852 0.0
C1217 C 0.09709 0.32797 0.55635 0.0
C1218 C 0.07603 0.28941 0.51871 0.0
C1219 C 0.04461 0.29609 0.51656 0.0
C1220 C 0.03998 0.31916 0.53433 0.0
C1221 C 0.06605 0.33459 0.55395 0.0
C1222 C 0.08192 0.26489 0.50019 0.0
C1223 C 1.00751 0.32778 0.53258 0.0
C1224 C 1.00103 0.29131 0.45378 0.0
C1225 C 0.96613 0.25622 0.45453 0.0
C1226 C 1.02683 0.30409 0.47359 0.0
C1227 C 1.01796 0.2813 0.49494 0.0
C1228 C 0.98283 0.2458 0.49596 0.0
C1229 C 0.9572 0.23373 0.47579 0.0
C1230 C 0.06351 0.34238 0.47172 0.0
C1231 C 0.97238 0.2206 0.51838 0.0
H1232 H 0.1256 0.29992 0.5404 0.0
H1233 H 0.06195 0.35188 0.5676 0.0
H1234 H 0.05577 0.2361 0.4991 0.0
H1235 H 0.08656 0.27796 0.48169 0.0
H1236 H 0.10691 0.26135 0.50483 0.0
H1237 H 1.00748 0.34566 0.54815 0.0
H1238 H 1.00983 0.34312 0.5152 0.0
H1239 H 0.97947 0.30065 0.53225 0.0
H1240 H 1.00834 0.30921 0.43758 0.0
H1241 H 0.93056 0.20651 0.47651 0.0
H1242 H 0.08878 0.33868 0.47469 0.0
H1243 H 0.0641 0.36204 0.48626 0.0
H1244 H 0.0666 0.35626 0.4536 0.0
H1245 H 0.99549 0.21398 0.5225 0.0
H1246 H 0.94484 0.19322 0.51601 0.0
H1247 H 0.96983 0.23601 0.53455 0.0
C1248 C 0.62703 0.15975 0.09318 0.0
C1249 C 0.64596 0.15289 0.11249 0.0
C1250 C 0.59003 0.15473 0.09627 0.0
C1251 C 0.57133 0.14264 0.11928 0.0
C1252 C 0.58998 0.13504 0.13874 0.0
C1253 C 0.62698 0.14021 0.13511 0.0
C1254 C 0.5712 0.16304 0.075 0.0
C1255 C 0.57124 0.12238 0.1636 0.0
C1256 C 0.49708 0.17233 0.13326 0.0
C1257 C 0.46224 0.13874 0.12796 0.0
C1258 C 0.53251 0.17358 0.13112 0.0
C1259 C 0.53345 0.14047 0.12336 0.0
C1260 C 0.49839 0.1061 0.11861 0.0
C1261 C 0.46317 0.10559 0.12105 0.0
C1262 C 0.56907 0.21076 0.13657 0.0
C1263 C 0.49815 0.07021 0.11026 0.0
H1264 H 0.64111 0.1689 0.07551 0.0
H1265 H 0.64144 0.13515 0.15022 0.0
H1266 H 0.54246 0.13783 0.07126 0.0
H1267 H 0.5668 0.18741 0.07974 0.0
H1268 H 0.58866 0.17032 0.05796 0.0
H1269 H 0.58845 0.1154 0.17636 0.0
H1270 H 0.56751 0.14548 0.17195 0.0
H1271 H 0.54221 0.09677 0.16166 0.0
H1272 H 0.49682 0.19809 0.1388 0.0
H1273 H 0.43648 0.07956 0.11683 0.0
H1274 H 0.58666 0.22146 0.11966 0.0
H1275 H 0.5865 0.20596 0.15041 0.0
H1276 H 0.56335 0.2334 0.14355 0.0
H1277 H 0.51247 0.07527 0.09213 0.0
H1278 H 0.46854 0.04529 0.10863 0.0
H1279 H 0.51465 0.06285 0.12333 0.0
C1280 C 0.71509 0.55341 0.39196 0.0
C1281 C 0.71624 0.58886 0.39353 0.0
C1282 C 0.68055 0.51853 0.39457 0.0
C1283 C 0.64589 0.51869 0.39886 0.0
C1284 C 0.64653 0.55424 0.39998 0.0
C1285 C 0.68169 0.58892 0.39731 0.0
C1286 C 0.68135 0.48142 0.3932 0.0
C1287 C 0.61017 0.55562 0.40443 0.0
C1288 C 0.55442 0.42341 0.38639 0.0
C1289 C 0.54506 0.40703 0.40993 0.0
C1290 C 0.58622 0.46032 0.38263 0.0
C1291 C 0.60945 0.48148 0.40285 0.0
C1292 C 0.59959 0.46555 0.42672 0.0
C1293 C 0.56759 0.42867 0.42996 0.0
C1294 C 0.59569 0.47613 0.35688 0.0
C1295 C 0.62351 0.48703 0.4488 0.0
H1296 H 0.74142 0.55275 0.38894 0.0
H1297 H 0.68217 0.61603 0.39858 0.0
H1298 H 0.67157 0.4659 0.4109 0.0
H1299 H 0.66126 0.46251 0.37877 0.0
H1300 H 0.7105 0.48615 0.38911 0.0
H1301 H 0.61511 0.58535 0.40374 0.0
H1302 H 0.58813 0.53793 0.39052 0.0
H1303 H 0.59821 0.54326 0.4227 0.0
H1304 H 0.53751 0.40694 0.37073 0.0
H1305 H 0.56025 0.41672 0.44828 0.0
H1306 H 0.62326 0.47856 0.351 0.0
H1307 H 0.59948 0.50538 0.35633 0.0
H1308 H 0.57303 0.45768 0.34346 0.0
H1309 H 0.65275 0.49087 0.44703 0.0
H1310 H 0.6107 0.4718 0.46628 0.0
H1311 H 0.62679 0.51606 0.44978 0.0
C1312 C 0.87692 0.33137 0.11843 0.0
C1313 C 0.90986 0.33187 0.12761 0.0
C1314 C 0.8747 0.36496 0.11695 0.0
C1315 C 0.90629 0.40027 0.12469 0.0
C1316 C 0.93934 0.401 0.13455 0.0
C1317 C 0.94068 0.3667 0.13602 0.0
C1318 C 0.83873 0.36272 0.10655 0.0
C1319 C 0.97367 0.43814 0.14289 0.0
C1320 C 0.91194 0.48793 0.0944 0.0
C1321 C 0.89601 0.50086 0.11241 0.0
C1322 C 0.91675 0.45616 0.09855 0.0
C1323 C 0.90506 0.43643 0.1212 0.0
C1324 C 0.88944 0.44956 0.13961 0.0
C1325 C 0.88514 0.48161 0.13502 0.0
C1326 C 0.93337 0.44305 0.07836 0.0
C1327 C 0.87648 0.42923 0.16397 0.0
H1328 H 0.85266 0.30456 0.11219 0.0
H1329 H 0.9662 0.36736 0.14314 0.0
H1330 H 0.82704 0.37546 0.11964 0.0
H1331 H 0.84573 0.37955 0.08932 0.0
H1332 H 0.81598 0.33275 0.1025 0.0
H1333 H 0.99623 0.43363 0.15141 0.0
H1334 H 0.98635 0.45764 0.12697 0.0
H1335 H 0.96466 0.45285 0.15636 0.0
H1336 H 0.91992 0.50216 0.07675 0.0
H1337 H 0.87336 0.49167 0.1492 0.0
H1338 H 0.91122 0.41428 0.07169 0.0
H1339 H 0.95776 0.44032 0.08552 0.0
H1340 H 0.94362 0.46309 0.06253 0.0
H1341 H 0.85219 0.39966 0.16103 0.0
H1342 H 0.86706 0.44431 0.17689 0.0
H1343 H 0.90012 0.42672 0.17264 0.0
C1344 C 0.49423 0.17769 0.39372 0.0
C1345 C 0.45946 0.14298 0.39666 0.0
C1346 C 0.52992 0.17956 0.39609 0.0
C1347 C 0.53126 0.14591 0.40163 0.0
C1348 C 0.49636 0.11055 0.40413 0.0
C1349 C 0.46086 0.10947 0.40157 0.0
C1350 C 0.56628 0.21784 0.39314 0.0
C1351 C 0.49655 0.07404 0.41006 0.0
C1352 C 0.62696 0.15021 0.38951 0.0
C1353 C 0.64421 0.15938 0.41286 0.0
C1354 C 0.58983 0.14468 0.3857 0.0
C1355 C 0.56931 0.1484 0.40568 0.0
C1356 C 0.58632 0.1571 0.42934 0.0
C1357 C 0.62345 0.16254 0.43262 0.0
C1358 C 0.57281 0.13546 0.36018 0.0
C1359 C 0.56565 0.1616 0.45113 0.0
H1360 H 0.4937 0.2038 0.38974 0.0
H1361 H 0.43427 0.08254 0.4039 0.0
H1362 H 0.58281 0.22601 0.41059 0.0
H1363 H 0.58486 0.2158 0.37884 0.0
H1364 H 0.56035 0.24108 0.38798 0.0
H1365 H 0.46713 0.04861 0.41027 0.0
H1366 H 0.51412 0.06908 0.39642 0.0
H1367 H 0.50995 0.07675 0.42832 0.0
H1368 H 0.6424 0.14711 0.37419 0.0
H1369 H 0.63659 0.1701 0.45067 0.0
H1370 H 0.56821 0.15894 0.3536 0.0
H1371 H 0.54431 0.10886 0.36047 0.0
H1372 H 0.59157 0.13165 0.34685 0.0
H1373 H 0.56126 0.18642 0.44819 0.0
H1374 H 0.58181 0.1662 0.46855 0.0
H1375 H 0.53681 0.13575 0.45311 0.0
C1376 C 0.56937 0.41517 0.14105 0.0
C1377 C 0.55301 0.40473 0.11749 0.0
C1378 C 0.60139 0.45173 0.14566 0.0
C1379 C 0.6176 0.47859 0.12627 0.0
C1380 C 0.60074 0.46849 0.1026 0.0
C1381 C 0.56886 0.43181 0.0985 0.0
C1382 C 0.61843 0.46129 0.17116 0.0
C1383 C 0.61715 0.49604 0.08133 0.0
C1384 C 0.68799 0.58542 0.13709 0.0
C1385 C 0.7232 0.58785 0.13135 0.0
C1386 C 0.65336 0.54983 0.13639 0.0
C1387 C 0.65405 0.51595 0.13 0.0
C1388 C 0.68977 0.51815 0.1254 0.0
C1389 C 0.72371 0.55391 0.12609 0.0
C1390 C 0.6159 0.54872 0.14147 0.0
C1391 C 0.69211 0.4829 0.11874 0.0
H1392 H 0.5571 0.39475 0.15594 0.0
H1393 H 0.55694 0.42401 0.08015 0.0
H1394 H 0.64786 0.46535 0.17084 0.0
H1395 H 0.62098 0.48866 0.17758 0.0
H1396 H 0.60095 0.43842 0.18461 0.0
H1397 H 0.59921 0.48489 0.0645 0.0
H1398 H 0.61973 0.524 0.08626 0.0
H1399 H 0.64648 0.50149 0.07707 0.0
H1400 H 0.68729 0.61144 0.14113 0.0
H1401 H 0.75079 0.5553 0.12198 0.0
H1402 H 0.59874 0.52607 0.15509 0.0
H1403 H 0.59868 0.5414 0.12432 0.0
H1404 H 0.62039 0.57663 0.14845 0.0
H1405 H 0.67687 0.46009 0.13262 0.0
H1406 H 0.72226 0.48904 0.11737 0.0
H1407 H 0.6777 0.4714 0.10081 0.0
C1408 C 0.87301 0.47306 0.37589 0.0
C1409 C 0.89602 0.50084 0.3934 0.0
C1410 C 0.87734 0.44099 0.37115 0.0
C1411 C 0.90525 0.43638 0.38428 0.0
C1412 C 0.92988 0.46534 0.40099 0.0
C1413 C 0.92504 0.49714 0.40529 0.0
C1414 C 0.85053 0.41093 0.35312 0.0
C1415 C 0.96003 0.46174 0.41541 0.0
C1416 C 0.88239 0.33532 0.40017 0.0
C1417 C 0.90609 0.329 0.38409 0.0
C1418 C 0.88157 0.36972 0.40002 0.0
C1419 C 0.90501 0.39906 0.38334 0.0
C1420 C 0.92859 0.39287 0.36668 0.0
C1421 C 0.92885 0.35786 0.36723 0.0
C1422 C 0.85585 0.37479 0.41809 0.0
C1423 C 0.95387 0.4234 0.34855 0.0
H1424 H 0.85041 0.47543 0.36663 0.0
H1425 H 0.94364 0.51885 0.4184 0.0
H1426 H 0.86675 0.40232 0.34065 0.0
H1427 H 0.82953 0.38493 0.36326 0.0
H1428 H 0.83436 0.42117 0.34189 0.0
H1429 H 0.97963 0.4885 0.42557 0.0
H1430 H 0.94577 0.43803 0.42887 0.0
H1431 H 0.97741 0.4545 0.40303 0.0
H1432 H 0.86427 0.31329 0.41317 0.0
H1433 H 0.94713 0.35332 0.35466 0.0
H1434 H 0.83577 0.38143 0.40816 0.0
H1435 H 0.8735 0.39934 0.43049 0.0
H1436 H 0.8387 0.34883 0.42949 0.0
H1437 H 0.9364 0.43208 0.33737 0.0
H1438 H 0.96908 0.41358 0.33603 0.0
H1439 H 0.97557 0.44931 0.35854 0.0
C1440 C 0.15824 0.62108 0.64505 0.0
C1441 C 0.15862 0.63443 0.62114 0.0
C1442 C 0.153 0.58421 0.64918 0.0
C1443 C 0.14769 0.55978 0.62898 0.0
C1444 C 0.14629 0.57237 0.60492 0.0
C1445 C 0.15196 0.60944 0.6013 0.0
C1446 C 0.15477 0.57205 0.67512 0.0
C1447 C 0.14057 0.54731 0.58282 0.0
C1448 C 0.18245 0.48769 0.63134 0.0
C1449 C 0.14801 0.45258 0.63357 0.0
C1450 C 0.18276 0.5227 0.63096 0.0
C1451 C 0.14767 0.52287 0.63255 0.0
C1452 C 0.11285 0.48764 0.63584 0.0
C1453 C 0.11345 0.45286 0.63649 0.0
C1454 C 0.22066 0.55945 0.62784 0.0
C1455 C 0.07481 0.48651 0.63749 0.0
H1456 H 0.1626 0.63969 0.6606 0.0
H1457 H 0.1527 0.61934 0.58271 0.0
H1458 H 0.12974 0.54327 0.67888 0.0
H1459 H 0.18104 0.56984 0.67744 0.0
H1460 H 0.15535 0.59266 0.68896 0.0
H1461 H 0.13631 0.5596 0.56565 0.0
H1462 H 0.16609 0.54381 0.58046 0.0
H1463 H 0.1153 0.51829 0.58555 0.0
H1464 H 0.20936 0.48776 0.62936 0.0
H1465 H 0.08673 0.42584 0.63807 0.0
H1466 H 0.22415 0.58048 0.64226 0.0
H1467 H 0.22118 0.57249 0.60982 0.0
H1468 H 0.2456 0.55468 0.62876 0.0
H1469 H 0.07634 0.50761 0.65124 0.0
H1470 H 0.05095 0.45758 0.64251 0.0
H1471 H 0.06803 0.49462 0.61949 0.0
C1472 C 0.34429 0.86606 0.90135 0.0
C1473 C 0.34034 0.89484 0.88937 0.0
C1474 C 0.37928 0.86624 0.90159 0.0
C1475 C 0.41162 0.89583 0.88943 0.0
C1476 C 0.40785 0.92455 0.87674 0.0
C1477 C 0.37226 0.92377 0.87687 0.0
C1478 C 0.38172 0.83494 0.91535 0.0
C1479 C 0.44155 0.95638 0.86336 0.0
C1480 C 0.50571 0.90926 0.9151 0.0
C1481 C 0.51306 0.88585 0.89945 0.0
C1482 C 0.47417 0.91477 0.91116 0.0
C1483 C 0.44931 0.8967 0.89093 0.0
C1484 C 0.45797 0.87509 0.87417 0.0
C1485 C 0.48956 0.8698 0.87866 0.0
C1486 C 0.46617 0.93806 0.92953 0.0
C1487 C 0.43249 0.85552 0.85227 0.0
H1488 H 0.31996 0.84324 0.91091 0.0
H1489 H 0.36964 0.94608 0.86751 0.0
H1490 H 0.39143 0.81968 0.90285 0.0
H1491 H 0.40324 0.84774 0.93035 0.0
H1492 H 0.35374 0.81358 0.92349 0.0
H1493 H 0.43346 0.97516 0.85313 0.0
H1494 H 0.46457 0.97426 0.87669 0.0
H1495 H 0.45379 0.9442 0.85025 0.0
H1496 H 0.52409 0.92257 0.9309 0.0
H1497 H 0.49463 0.85147 0.86647 0.0
H1498 H 0.43996 0.91872 0.94016 0.0
H1499 H 0.46059 0.95911 0.91998 0.0
H1500 H 0.49036 0.95371 0.94262 0.0
H1501 H 0.405 0.83078 0.85859 0.0
H1502 H 0.44609 0.84483 0.83907 0.0
H1503 H 0.42546 0.87544 0.84254 0.0
C1504 C 0.56303 0.71261 0.62854 0.0
C1505 C 0.59691 0.71111 0.63183 0.0
C1506 C 0.52699 0.67911 0.62755 0.0
C1507 C 0.52459 0.64294 0.6297 0.0
C1508 C 0.55847 0.6412 0.63427 0.0
C1509 C 0.59432 0.67541 0.63543 0.0
C1510 C 0.49168 0.68245 0.62297 0.0
C1511 C 0.5571 0.6032 0.63666 0.0
C1512 C 0.42392 0.55723 0.63874 0.0
C1513 C 0.41319 0.54412 0.61451 0.0
C1514 C 0.46052 0.58858 0.64415 0.0
C1515 C 0.48708 0.60732 0.62489 0.0
C1516 C 0.47666 0.59381 0.60048 0.0
C1517 C 0.43993 0.56258 0.5956 0.0
C1518 C 0.47049 0.60216 0.6704 0.0
C1519 C 0.50397 0.61304 0.57934 0.0
H1520 H 0.56475 0.74017 0.62612 0.0
H1521 H 0.6204 0.67408 0.63794 0.0
H1522 H 0.47982 0.67079 0.60451 0.0
H1523 H 0.46902 0.6653 0.63661 0.0
H1524 H 0.498 0.71264 0.62391 0.0
H1525 H 0.58504 0.60668 0.64284 0.0
H1526 H 0.53442 0.58441 0.64984 0.0
H1527 H 0.54966 0.58831 0.61862 0.0
H1528 H 0.40373 0.54286 0.65354 0.0
H1529 H 0.43183 0.55315 0.57678 0.0
H1530 H 0.47486 0.63155 0.67216 0.0
H1531 H 0.49785 0.60365 0.67577 0.0
H1532 H 0.44765 0.58309 0.68345 0.0
H1533 H 0.50954 0.64281 0.57723 0.0
H1534 H 0.49248 0.59754 0.5617 0.0
H1535 H 0.53198 0.61485 0.58312 0.0
C1536 C 0.14801 0.60079 0.92372 0.0
C1537 C 0.16079 0.62854 0.90507 0.0
C1538 C 0.14214 0.56382 0.9193 0.0
C1539 C 0.14948 0.55415 0.89567 0.0
C1540 C 0.16177 0.58172 0.87663 0.0
C1541 C 0.16724 0.61851 0.88153 0.0
C1542 C 0.12922 0.53546 0.9402 0.0
C1543 C 0.17008 0.57267 0.85121 0.0
C1544 C 0.17787 0.47725 0.89538 0.0
C1545 C 0.14348 0.44416 0.88863 0.0
C1546 C 0.18043 0.51323 0.89685 0.0
C1547 C 0.14767 0.51649 0.89168 0.0
C1548 C 0.11308 0.48346 0.88414 0.0
C1549 C 0.11145 0.44765 0.88252 0.0
C1550 C 0.21807 0.54763 0.90462 0.0
C1551 C 0.07747 0.48572 0.8786 0.0
H1552 H 0.14346 0.60825 0.94206 0.0
H1553 H 0.17653 0.63944 0.86688 0.0
H1554 H 0.10375 0.50793 0.93461 0.0
H1555 H 0.15244 0.52927 0.94495 0.0
H1556 H 0.12183 0.5463 0.95691 0.0
H1557 H 0.17685 0.59621 0.838 0.0
H1558 H 0.19487 0.56772 0.85196 0.0
H1559 H 0.14508 0.54592 0.84418 0.0
H1560 H 0.20302 0.47501 0.89974 0.0
H1561 H 0.08482 0.42225 0.87729 0.0
H1562 H 0.21439 0.55864 0.92252 0.0
H1563 H 0.2271 0.5711 0.89106 0.0
H1564 H 0.24148 0.54071 0.90652 0.0
H1565 H 0.06746 0.49328 0.89559 0.0
H1566 H 0.05371 0.45819 0.87134 0.0
H1567 H 0.08404 0.50869 0.86502 0.0
C1568 C 0.36241 0.90513 0.6032 0.0
C1569 C 0.35183 0.91698 0.62467 0.0
C1570 C 0.39558 0.9019 0.60232 0.0
C1571 C 0.4191 0.91067 0.62344 0.0
C1572 C 0.40934 0.92379 0.64499 0.0
C1573 C 0.37583 0.92686 0.64535 0.0
C1574 C 0.40491 0.88811 0.57886 0.0
C1575 C 0.43368 0.9335 0.66787 0.0
C1576 C 0.4799 0.8622 0.62452 0.0
C1577 C 0.51513 0.89111 0.61518 0.0
C1578 C 0.44896 0.86872 0.62837 0.0
C1579 C 0.45323 0.90505 0.62279 0.0
C1580 C 0.48918 0.93479 0.61431 0.0
C1581 C 0.5196 0.92748 0.61061 0.0
C1582 C 0.41114 0.83615 0.6374 0.0
C1583 C 0.49511 0.97397 0.60823 0.0
H1584 H 0.34428 0.89762 0.58703 0.0
H1585 H 0.3678 0.93578 0.66206 0.0
H1586 H 0.43433 0.90921 0.57263 0.0
H1587 H 0.40432 0.86064 0.58223 0.0
H1588 H 0.38435 0.8836 0.56383 0.0
H1589 H 0.42361 0.94549 0.68262 0.0
H1590 H 0.43297 0.90731 0.67492 0.0
H1591 H 0.46409 0.95458 0.66358 0.0
H1592 H 0.47601 0.83396 0.62798 0.0
H1593 H 0.54691 0.95028 0.60388 0.0
H1594 H 0.38924 0.82719 0.62264 0.0
H1595 H 0.40063 0.84566 0.65327 0.0
H1596 H 0.41342 0.81083 0.643 0.0
H1597 H 0.47726 0.97179 0.59209 0.0
H1598 H 0.52562 0.99495 0.60398 0.0
H1599 H 0.48572 0.98518 0.62377 0.0
C1600 C 0.57522 0.67833 0.9106 0.0
C1601 C 0.59781 0.69052 0.88923 0.0
C1602 C 0.53932 0.64449 0.911 0.0
C1603 C 0.52516 0.62186 0.88946 0.0
C1604 C 0.54821 0.63328 0.86796 0.0
C1605 C 0.58431 0.66745 0.8681 0.0
C1606 C 0.51606 0.63349 0.93441 0.0
C1607 C 0.53425 0.60999 0.84463 0.0
C1608 C 0.44285 0.52001 0.90075 0.0
C1609 C 0.41033 0.52376 0.89663 0.0
C1610 C 0.48034 0.55111 0.89734 0.0
C1611 C 0.48573 0.58706 0.88961 0.0
C1612 C 0.45305 0.59064 0.88447 0.0
C1613 C 0.41588 0.55906 0.88803 0.0
C1614 C 0.51423 0.54586 0.90296 0.0
C1615 C 0.45732 0.62838 0.87627 0.0
H1616 H 0.58533 0.69566 0.92713 0.0
H1617 H 0.60135 0.67667 0.85146 0.0
H1618 H 0.48872 0.6334 0.9313 0.0
H1619 H 0.50854 0.60406 0.93998 0.0
H1620 H 0.53168 0.65346 0.94981 0.0
H1621 H 0.55642 0.62127 0.82997 0.0
H1622 H 0.52578 0.57965 0.84827 0.0
H1623 H 0.50832 0.61018 0.8378 0.0
H1624 H 0.43902 0.49275 0.90695 0.0
H1625 H 0.39114 0.56255 0.88498 0.0
H1626 H 0.52953 0.563 0.91944 0.0
H1627 H 0.53497 0.55649 0.88751 0.0
H1628 H 0.5054 0.51537 0.90647 0.0
H1629 H 0.46968 0.6496 0.89145 0.0
H1630 H 0.4294 0.62562 0.87079 0.0
H1631 H 0.47746 0.64004 0.86054 0.0
loop_
_geom_bond_atom_site_label_1
_geom_bond_atom_site_label_2
_geom_bond_distance
_geom_bond_site_symmetry_2
_ccdc_geom_bond_type
Tb0 C9 2.764 . S
Tb0 O10 2.325 . S
Tb0 O13 2.303 . S
Tb0 O17 2.322 . S
Tb0 O18 2.349 . S
Tb0 O21 2.415 . S
Tb0 O22 2.399 . S
Tb1 O11 2.322 . S
Tb1 O12 2.349 . S
Tb1 O14 2.415 . S
Tb1 O15 2.399 . S
Tb1 O16 2.325 . S
Tb1 O19 2.303 . S
Tb1 C30 2.764 . S
C2 O18 1.261 . S
C2 O19 1.257 . S
C3 C6 1.358 . S
C3 C7 1.332 . S
C3 C9 1.504 1_565 S
C4 C5 1.373 . S
C4 C8 1.308 . S
C5 C4 1.373 . S
C5 C6 1.429 . S
C5 H32 0.932 . S
C6 C3 1.358 . S
C6 C5 1.429 . S
C6 H33 0.930 . S
C7 C3 1.332 . S
C7 C8 1.394 . S
C7 H34 0.932 . S
C8 C4 1.308 . S
C8 C7 1.394 . S
C8 H35 0.929 . S
C9 Tb0 2.764 . S
C9 C3 1.504 1_545 S
C9 O21 1.239 . S
C9 O22 1.263 . S
O10 Tb0 2.325 . S
O10 C20 1.236 . S
O11 Tb1 2.322 . S
O11 C20 1.257 . S
O12 Tb1 2.349 . S
O12 C23 1.261 . S
O13 Tb0 2.303 . S
O13 C23 1.257 . S
O14 Tb1 2.415 . S
O14 C30 1.239 . S
O15 Tb1 2.399 . S
O15 C30 1.263 . S
O16 Tb1 2.325 . S
O16 C31 1.236 . S
O17 Tb0 2.322 . S
O17 C31 1.257 . S
O18 Tb0 2.349 . S
O18 C2 1.261 . S
O19 Tb1 2.303 . S
O19 C2 1.257 . S
C20 O10 1.236 . S
C20 O11 1.257 . S
O21 Tb0 2.415 . S
O21 C9 1.239 . S
O22 Tb0 2.399 . S
O22 C9 1.263 . S
C23 O12 1.261 . S
C23 O13 1.257 . S
C24 C27 1.358 . S
C24 C28 1.332 . S
C24 C30 1.504 . S
C25 C26 1.373 . S
C25 C29 1.308 . S
C26 C25 1.373 . S
C26 C27 1.429 . S
C26 H36 0.932 . S
C27 C24 1.358 . S
C27 C26 1.429 . S
C27 H37 0.930 . S
C28 C24 1.332 . S
C28 C29 1.394 . S
C28 H38 0.932 . S
C29 C25 1.308 . S
C29 C28 1.394 . S
C29 H39 0.929 . S
C30 Tb1 2.764 . S
C30 O14 1.239 . S
C30 O15 1.263 . S
C30 C24 1.504 . S
C31 O16 1.236 . S
C31 O17 1.257 . S
H32 C5 0.932 . S
H33 C6 0.930 . S
H34 C7 0.932 . S
H35 C8 0.929 . S
H36 C26 0.932 . S
H37 C27 0.930 . S
H38 C28 0.932 . S
H39 C29 0.929 . S
Tb40 C49 2.764 . S
Tb40 O50 2.325 . S
Tb40 O53 2.303 . S
Tb40 O57 2.322 . S
Tb40 O58 2.349 . S
Tb40 O61 2.415 . S
Tb40 O62 2.399 . S
Tb41 O51 2.322 . S
Tb41 O52 2.349 . S
Tb41 O54 2.415 . S
Tb41 O55 2.399 . S
Tb41 O56 2.325 . S
Tb41 O59 2.303 . S
Tb41 C70 2.764 . S
C42 O58 1.261 . S
C42 O59 1.257 . S
C43 C46 1.358 . S
C43 C47 1.332 . S
C43 C49 1.504 . S
C44 C45 1.373 . S
C44 C48 1.308 . S
C45 C44 1.373 . S
C45 C46 1.429 . S
C45 H72 0.932 . S
C46 C43 1.358 . S
C46 C45 1.429 . S
C46 H73 0.930 . S
C47 C43 1.332 . S
C47 C48 1.394 . S
C47 H74 0.932 . S
C48 C44 1.308 . S
C48 C47 1.394 . S
C48 H75 0.929 . S
C49 Tb40 2.764 . S
C49 C43 1.504 . S
C49 O61 1.239 . S
C49 O62 1.263 . S
O50 Tb40 2.325 . S
O50 C60 1.236 . S
O51 Tb41 2.322 . S
O51 C60 1.257 . S
O52 Tb41 2.349 . S
O52 C63 1.261 . S
O53 Tb40 2.303 . S
O53 C63 1.257 . S
O54 Tb41 2.415 . S
O54 C70 1.239 . S
O55 Tb41 2.399 . S
O55 C70 1.263 . S
O56 Tb41 2.325 . S
O56 C71 1.236 . S
O57 Tb40 2.322 . S
O57 C71 1.257 . S
O58 Tb40 2.349 . S
O58 C42 1.261 . S
O59 Tb41 2.303 . S
O59 C42 1.257 . S
C60 O50 1.236 . S
C60 O51 1.257 . S
O61 Tb40 2.415 . S
O61 C49 1.239 . S
O62 Tb40 2.399 . S
O62 C49 1.263 . S
C63 O52 1.261 . S
C63 O53 1.257 . S
C64 C67 1.358 . S
C64 C68 1.332 . S
C64 C70 1.504 . S
C65 C66 1.373 . S
C65 C69 1.308 . S
C66 C65 1.373 . S
C66 C67 1.429 . S
C66 H76 0.932 . S
C67 C64 1.358 . S
C67 C66 1.429 . S
C67 H77 0.930 . S
C68 C64 1.332 . S
C68 C69 1.394 . S
C68 H78 0.932 . S
C69 C65 1.308 . S
C69 C68 1.394 . S
C69 H79 0.929 . S
C70 Tb41 2.764 . S
C70 O54 1.239 . S
C70 O55 1.263 . S
C70 C64 1.504 . S
C71 O56 1.236 . S
C71 O57 1.257 . S
H72 C45 0.932 . S
H73 C46 0.930 . S
H74 C47 0.932 . S
H75 C48 0.929 . S
H76 C66 0.932 . S
H77 C67 0.930 . S
H78 C68 0.932 . S
H79 C69 0.929 . S
Tb80 C89 2.764 . S
Tb80 O90 2.325 . S
Tb80 O93 2.303 . S
Tb80 O97 2.322 . S
Tb80 O98 2.349 . S
Tb80 O101 2.415 . S
Tb80 O102 2.399 . S
Tb81 O91 2.322 . S
Tb81 O92 2.349 . S
Tb81 O94 2.415 . S
Tb81 O95 2.399 . S
Tb81 O96 2.325 . S
Tb81 O99 2.303 . S
Tb81 C110 2.764 . S
C82 O98 1.261 . S
C82 O99 1.257 . S
C83 C86 1.358 . S
C83 C87 1.332 . S
C83 C89 1.504 1_455 S
C84 C85 1.373 . S
C84 C88 1.308 . S
C85 C84 1.373 . S
C85 C86 1.429 . S
C85 H112 0.932 . S
C86 C83 1.358 . S
C86 C85 1.429 . S
C86 H113 0.930 . S
C87 C83 1.332 . S
C87 C88 1.394 . S
C87 H114 0.932 . S
C88 C84 1.308 . S
C88 C87 1.394 . S
C88 H115 0.929 . S
C89 Tb80 2.764 . S
C89 C83 1.504 1_655 S
C89 O101 1.239 . S
C89 O102 1.263 . S
O90 Tb80 2.325 . S
O90 C100 1.236 . S
O91 Tb81 2.322 . S
O91 C100 1.257 . S
O92 Tb81 2.349 . S
O92 C103 1.261 . S
O93 Tb80 2.303 . S
O93 C103 1.257 . S
O94 Tb81 2.415 . S
O94 C110 1.239 . S
O95 Tb81 2.399 . S
O95 C110 1.263 . S
O96 Tb81 2.325 . S
O96 C111 1.236 . S
O97 Tb80 2.322 . S
O97 C111 1.257 . S
O98 Tb80 2.349 . S
O98 C82 1.261 . S
O99 Tb81 2.303 . S
O99 C82 1.257 . S
C100 O90 1.236 . S
C100 O91 1.257 . S
O101 Tb80 2.415 . S
O101 C89 1.239 . S
O102 Tb80 2.399 . S
O102 C89 1.263 . S
C103 O92 1.261 . S
C103 O93 1.257 . S
C104 C107 1.358 . S
C104 C108 1.332 . S
C104 C110 1.504 . S
C105 C106 1.373 . S
C105 C109 1.308 . S
C106 C105 1.373 . S
C106 C107 1.429 . S
C106 H116 0.932 . S
C107 C104 1.358 . S
C107 C106 1.429 . S
C107 H117 0.930 . S
C108 C104 1.332 . S
C108 C109 1.394 . S
C108 H118 0.932 . S
C109 C105 1.308 . S
C109 C108 1.394 . S
C109 H119 0.929 . S
C110 Tb81 2.764 . S
C110 O94 1.239 . S
C110 O95 1.263 . S
C110 C104 1.504 . S
C111 O96 1.236 . S
C111 O97 1.257 . S
H112 C85 0.932 . S
H113 C86 0.930 . S
H114 C87 0.932 . S
H115 C88 0.929 . S
H116 C106 0.932 . S
H117 C107 0.930 . S
H118 C108 0.932 . S
H119 C109 0.929 . S
Tb120 C129 2.764 . S
Tb120 O130 2.325 . S
Tb120 O133 2.303 . S
Tb120 O137 2.322 . S
Tb120 O138 2.349 . S
Tb120 O141 2.415 . S
Tb120 O142 2.399 . S
Tb121 O131 2.322 . S
Tb121 O132 2.349 . S
Tb121 O134 2.415 . S
Tb121 O135 2.399 . S
Tb121 O136 2.325 . S
Tb121 O139 2.303 . S
Tb121 C150 2.764 . S
C122 O138 1.261 . S
C122 O139 1.257 . S
C123 C126 1.358 . S
C123 C127 1.332 . S
C123 C129 1.504 . S
C124 C125 1.373 . S
C124 C128 1.308 . S
C125 C124 1.373 . S
C125 C126 1.429 . S
C125 H152 0.932 . S
C126 C123 1.358 . S
C126 C125 1.429 . S
C126 H153 0.930 . S
C127 C123 1.332 . S
C127 C128 1.394 . S
C127 H154 0.932 . S
C128 C124 1.308 . S
C128 C127 1.394 . S
C128 H155 0.929 . S
C129 Tb120 2.764 . S
C129 C123 1.504 . S
C129 O141 1.239 . S
C129 O142 1.263 . S
O130 Tb120 2.325 . S
O130 C140 1.236 . S
O131 Tb121 2.322 . S
O131 C140 1.257 . S
O132 Tb121 2.349 . S
O132 C143 1.261 . S
O133 Tb120 2.303 . S
O133 C143 1.257 . S
O134 Tb121 2.415 . S
O134 C150 1.239 . S
O135 Tb121 2.399 . S
O135 C150 1.263 . S
O136 Tb121 2.325 . S
O136 C151 1.236 . S
O137 Tb120 2.322 . S
O137 C151 1.257 . S
O138 Tb120 2.349 . S
O138 C122 1.261 . S
O139 Tb121 2.303 . S
O139 C122 1.257 . S
C140 O130 1.236 . S
C140 O131 1.257 . S
O141 Tb120 2.415 . S
O141 C129 1.239 . S
O142 Tb120 2.399 . S
O142 C129 1.263 . S
C143 O132 1.261 . S
C143 O133 1.257 . S
C144 C147 1.358 . S
C144 C148 1.332 . S
C144 C150 1.504 1_565 S
C145 C146 1.373 . S
C145 C149 1.308 . S
C146 C145 1.373 . S
C146 C147 1.429 . S
C146 H156 0.932 . S
C147 C144 1.358 . S
C147 C146 1.429 . S
C147 H157 0.930 . S
C148 C144 1.332 . S
C148 C149 1.394 . S
C148 H158 0.932 . S
C149 C145 1.308 . S
C149 C148 1.394 . S
C149 H159 0.929 . S
C150 Tb121 2.764 . S
C150 O134 1.239 . S
C150 O135 1.263 . S
C150 C144 1.504 1_545 S
C151 O136 1.236 . S
C151 O137 1.257 . S
H152 C125 0.932 . S
H153 C126 0.930 . S
H154 C127 0.932 . S
H155 C128 0.929 . S
H156 C146 0.932 . S
H157 C147 0.930 . S
H158 C148 0.932 . S
H159 C149 0.929 . S
Tb160 C169 2.764 . S
Tb160 O170 2.325 . S
Tb160 O173 2.303 . S
Tb160 O177 2.322 . S
Tb160 O178 2.349 . S
Tb160 O181 2.415 . S
Tb160 O182 2.399 . S
Tb161 O171 2.322 . S
Tb161 O172 2.349 . S
Tb161 O174 2.415 . S
Tb161 O175 2.399 . S
Tb161 O176 2.325 . S
Tb161 O179 2.303 . S
Tb161 C190 2.764 . S
C162 O178 1.261 . S
C162 O179 1.257 . S
C163 C166 1.358 . S
C163 C167 1.332 . S
C163 C169 1.504 . S
C164 C165 1.373 . S
C164 C168 1.308 . S
C165 C164 1.373 . S
C165 C166 1.429 . S
C165 H192 0.932 . S
C166 C163 1.358 . S
C166 C165 1.429 . S
C166 H193 0.930 . S
C167 C163 1.332 . S
C167 C168 1.394 . S
C167 H194 0.932 . S
C168 C164 1.308 . S
C168 C167 1.394 . S
C168 H195 0.929 . S
C169 Tb160 2.764 . S
C169 C163 1.504 . S
C169 O181 1.239 . S
C169 O182 1.263 . S
O170 Tb160 2.325 . S
O170 C180 1.236 . S
O171 Tb161 2.322 . S
O171 C180 1.257 . S
O172 Tb161 2.349 . S
O172 C183 1.261 . S
O173 Tb160 2.303 . S
O173 C183 1.257 . S
O174 Tb161 2.415 . S
O174 C190 1.239 . S
O175 Tb161 2.399 . S
O175 C190 1.263 . S
O176 Tb161 2.325 . S
O176 C191 1.236 . S
O177 Tb160 2.322 . S
O177 C191 1.257 . S
O178 Tb160 2.349 . S
O178 C162 1.261 . S
O179 Tb161 2.303 . S
O179 C162 1.257 . S
C180 O170 1.236 . S
C180 O171 1.257 . S
O181 Tb160 2.415 . S
O181 C169 1.239 . S
O182 Tb160 2.399 . S
O182 C169 1.263 . S
C183 O172 1.261 . S
C183 O173 1.257 . S
C184 C187 1.358 . S
C184 C188 1.332 . S
C184 C190 1.504 . S
C185 C186 1.373 . S
C185 C189 1.308 . S
C186 C185 1.373 . S
C186 C187 1.429 . S
C186 H196 0.932 . S
C187 C184 1.358 . S
C187 C186 1.429 . S
C187 H197 0.930 . S
C188 C184 1.332 . S
C188 C189 1.394 . S
C188 H198 0.932 . S
C189 C185 1.308 . S
C189 C188 1.394 . S
C189 H199 0.929 . S
C190 Tb161 2.764 . S
C190 O174 1.239 . S
C190 O175 1.263 . S
C190 C184 1.504 . S
C191 O176 1.236 . S
C191 O177 1.257 . S
H192 C165 0.932 . S
H193 C166 0.930 . S
H194 C167 0.932 . S
H195 C168 0.929 . S
H196 C186 0.932 . S
H197 C187 0.930 . S
H198 C188 0.932 . S
H199 C189 0.929 . S
Tb200 C209 2.764 . S
Tb200 O210 2.325 . S
Tb200 O213 2.303 . S
Tb200 O217 2.322 . S
Tb200 O218 2.349 . S
Tb200 O221 2.415 . S
Tb200 O222 2.399 . S
Tb201 O211 2.322 . S
Tb201 O212 2.349 . S
Tb201 O214 2.415 . S
Tb201 O215 2.399 . S
Tb201 O216 2.325 . S
Tb201 O219 2.303 . S
Tb201 C230 2.764 . S
C202 O218 1.261 . S
C202 O219 1.257 . S
C203 C206 1.358 . S
C203 C207 1.332 . S
C203 C209 1.504 . S
C204 C205 1.373 . S
C204 C208 1.308 . S
C205 C204 1.373 . S
C205 C206 1.429 . S
C205 H232 0.932 . S
C206 C203 1.358 . S
C206 C205 1.429 . S
C206 H233 0.930 . S
C207 C203 1.332 . S
C207 C208 1.394 . S
C207 H234 0.932 . S
C208 C204 1.308 . S
C208 C207 1.394 . S
C208 H235 0.929 . S
C209 Tb200 2.764 . S
C209 C203 1.504 . S
C209 O221 1.239 . S
C209 O222 1.263 . S
O210 Tb200 2.325 . S
O210 C220 1.236 . S
O211 Tb201 2.322 . S
O211 C220 1.257 . S
O212 Tb201 2.349 . S
O212 C223 1.261 . S
O213 Tb200 2.303 . S
O213 C223 1.257 . S
O214 Tb201 2.415 . S
O214 C230 1.239 . S
O215 Tb201 2.399 . S
O215 C230 1.263 . S
O216 Tb201 2.325 . S
O216 C231 1.236 . S
O217 Tb200 2.322 . S
O217 C231 1.257 . S
O218 Tb200 2.349 . S
O218 C202 1.261 . S
O219 Tb201 2.303 . S
O219 C202 1.257 . S
C220 O210 1.236 . S
C220 O211 1.257 . S
O221 Tb200 2.415 . S
O221 C209 1.239 . S
O222 Tb200 2.399 . S
O222 C209 1.263 . S
C223 O212 1.261 . S
C223 O213 1.257 . S
C224 C227 1.358 . S
C224 C228 1.332 . S
C224 C230 1.504 1_455 S
C225 C226 1.373 . S
C225 C229 1.308 . S
C226 C225 1.373 . S
C226 C227 1.429 . S
C226 H236 0.932 . S
C227 C224 1.358 . S
C227 C226 1.429 . S
C227 H237 0.930 . S
C228 C224 1.332 . S
C228 C229 1.394 . S
C228 H238 0.932 . S
C229 C225 1.308 . S
C229 C228 1.394 . S
C229 H239 0.929 . S
C230 Tb201 2.764 . S
C230 O214 1.239 . S
C230 O215 1.263 . S
C230 C224 1.504 1_655 S
C231 O216 1.236 . S
C231 O217 1.257 . S
H232 C205 0.932 . S
H233 C206 0.930 . S
H234 C207 0.932 . S
H235 C208 0.929 . S
H236 C226 0.932 . S
H237 C227 0.930 . S
H238 C228 0.932 . S
H239 C229 0.929 . S
Tb240 C249 2.764 . S
Tb240 O250 2.325 . S
Tb240 O253 2.303 . S
Tb240 O257 2.322 . S
Tb240 O258 2.349 . S
Tb240 O261 2.415 . S
Tb240 O262 2.399 . S
Tb241 O251 2.322 . S
Tb241 O252 2.349 . S
Tb241 O254 2.415 . S
Tb241 O255 2.399 . S
Tb241 O256 2.325 . S
Tb241 O259 2.303 . S
Tb241 C270 2.764 . S
C242 O258 1.261 . S
C242 O259 1.257 . S
C243 C246 1.358 . S
C243 C247 1.332 . S
C243 C249 1.504 . S
C244 C245 1.373 . S
C244 C248 1.308 . S
C245 C244 1.373 . S
C245 C246 1.429 . S
C245 H272 0.932 . S
C246 C243 1.358 . S
C246 C245 1.429 . S
C246 H273 0.930 . S
C247 C243 1.332 . S
C247 C248 1.394 . S
C247 H274 0.932 . S
C248 C244 1.308 . S
C248 C247 1.394 . S
C248 H275 0.929 . S
C249 Tb240 2.764 . S
C249 C243 1.504 . S
C249 O261 1.239 . S
C249 O262 1.263 . S
O250 Tb240 2.325 . S
O250 C260 1.236 . S
O251 Tb241 2.322 . S
O251 C260 1.257 . S
O252 Tb241 2.349 . S
O252 C263 1.261 . S
O253 Tb240 2.303 . S
O253 C263 1.257 . S
O254 Tb241 2.415 . S
O254 C270 1.239 . S
O255 Tb241 2.399 . S
O255 C270 1.263 . S
O256 Tb241 2.325 . S
O256 C271 1.236 . S
O257 Tb240 2.322 . S
O257 C271 1.257 . S
O258 Tb240 2.349 . S
O258 C242 1.261 . S
O259 Tb241 2.303 . S
O259 C242 1.257 . S
C260 O250 1.236 . S
C260 O251 1.257 . S
O261 Tb240 2.415 . S
O261 C249 1.239 . S
O262 Tb240 2.399 . S
O262 C249 1.263 . S
C263 O252 1.261 . S
C263 O253 1.257 . S
C264 C267 1.358 . S
C264 C268 1.332 . S
C264 C270 1.504 1_655 S
C265 C266 1.373 . S
C265 C269 1.308 . S
C266 C265 1.373 . S
C266 C267 1.429 . S
C266 H276 0.932 . S
C267 C264 1.358 . S
C267 C266 1.429 . S
C267 H277 0.930 . S
C268 C264 1.332 . S
C268 C269 1.394 . S
C268 H278 0.932 . S
C269 C265 1.308 . S
C269 C268 1.394 . S
C269 H279 0.929 . S
C270 Tb241 2.764 . S
C270 O254 1.239 . S
C270 O255 1.263 . S
C270 C264 1.504 1_455 S
C271 O256 1.236 . S
C271 O257 1.257 . S
H272 C245 0.932 . S
H273 C246 0.930 . S
H274 C247 0.932 . S
H275 C248 0.929 . S
H276 C266 0.932 . S
H277 C267 0.930 . S
H278 C268 0.932 . S
H279 C269 0.929 . S
Tb280 C289 2.764 . S
Tb280 O290 2.325 . S
Tb280 O293 2.303 . S
Tb280 O297 2.322 . S
Tb280 O298 2.349 . S
Tb280 O301 2.415 . S
Tb280 O302 2.399 . S
Tb281 O291 2.322 . S
Tb281 O292 2.349 . S
Tb281 O294 2.415 . S
Tb281 O295 2.399 . S
Tb281 O296 2.325 . S
Tb281 O299 2.303 . S
Tb281 C310 2.764 . S
C282 O298 1.261 . S
C282 O299 1.257 . S
C283 C286 1.358 . S
C283 C287 1.332 . S
C283 C289 1.504 1_545 S
C284 C285 1.373 . S
C284 C288 1.308 . S
C285 C284 1.373 . S
C285 C286 1.429 . S
C285 H312 0.932 . S
C286 C283 1.358 . S
C286 C285 1.429 . S
C286 H313 0.930 . S
C287 C283 1.332 . S
C287 C288 1.394 . S
C287 H314 0.932 . S
C288 C284 1.308 . S
C288 C287 1.394 . S
C288 H315 0.929 . S
C289 Tb280 2.764 . S
C289 C283 1.504 1_565 S
C289 O301 1.239 . S
C289 O302 1.263 . S
O290 Tb280 2.325 . S
O290 C300 1.236 . S
O291 Tb281 2.322 . S
O291 C300 1.257 . S
O292 Tb281 2.349 . S
O292 C303 1.261 . S
O293 Tb280 2.303 . S
O293 C303 1.257 . S
O294 Tb281 2.415 . S
O294 C310 1.239 . S
O295 Tb281 2.399 . S
O295 C310 1.263 . S
O296 Tb281 2.325 . S
O296 C311 1.236 . S
O297 Tb280 2.322 . S
O297 C311 1.257 . S
O298 Tb280 2.349 . S
O298 C282 1.261 . S
O299 Tb281 2.303 . S
O299 C282 1.257 . S
C300 O290 1.236 . S
C300 O291 1.257 . S
O301 Tb280 2.415 . S
O301 C289 1.239 . S
O302 Tb280 2.399 . S
O302 C289 1.263 . S
C303 O292 1.261 . S
C303 O293 1.257 . S
C304 C307 1.358 . S
C304 C308 1.332 . S
C304 C310 1.504 . S
C305 C306 1.373 . S
C305 C309 1.308 . S
C306 C305 1.373 . S
C306 C307 1.429 . S
C306 H316 0.932 . S
C307 C304 1.358 . S
C307 C306 1.429 . S
C307 H317 0.930 . S
C308 C304 1.332 . S
C308 C309 1.394 . S
C308 H318 0.932 . S
C309 C305 1.308 . S
C309 C308 1.394 . S
C309 H319 0.929 . S
C310 Tb281 2.764 . S
C310 O294 1.239 . S
C310 O295 1.263 . S
C310 C304 1.504 . S
C311 O296 1.236 . S
C311 O297 1.257 . S
H312 C285 0.932 . S
H313 C286 0.930 . S
H314 C287 0.932 . S
H315 C288 0.929 . S
H316 C306 0.932 . S
H317 C307 0.930 . S
H318 C308 0.932 . S
H319 C309 0.929 . S
Tb320 C329 2.764 . S
Tb320 O330 2.325 . S
Tb320 O333 2.303 . S
Tb320 O337 2.322 . S
Tb320 O338 2.349 . S
Tb320 O341 2.415 . S
Tb320 O342 2.399 . S
Tb321 O331 2.322 . S
Tb321 O332 2.349 . S
Tb321 O334 2.415 . S
Tb321 O335 2.399 . S
Tb321 O336 2.325 . S
Tb321 O339 2.303 . S
Tb321 C350 2.764 . S
C322 O338 1.261 . S
C322 O339 1.257 . S
C323 C326 1.358 . S
C323 C327 1.332 . S
C323 C329 1.504 . S
C324 C325 1.373 . S
C324 C328 1.308 . S
C325 C324 1.373 . S
C325 C326 1.429 . S
C325 H352 0.932 . S
C326 C323 1.358 . S
C326 C325 1.429 . S
C326 H353 0.930 . S
C327 C323 1.332 . S
C327 C328 1.394 . S
C327 H354 0.932 . S
C328 C324 1.308 . S
C328 C327 1.394 . S
C328 H355 0.929 . S
C329 Tb320 2.764 . S
C329 C323 1.504 . S
C329 O341 1.239 . S
C329 O342 1.263 . S
O330 Tb320 2.325 . S
O330 C340 1.236 . S
O331 Tb321 2.322 . S
O331 C340 1.257 . S
O332 Tb321 2.349 . S
O332 C343 1.261 . S
O333 Tb320 2.303 . S
O333 C343 1.257 . S
O334 Tb321 2.415 . S
O334 C350 1.239 . S
O335 Tb321 2.399 . S
O335 C350 1.263 . S
O336 Tb321 2.325 . S
O336 C351 1.236 . S
O337 Tb320 2.322 . S
O337 C351 1.257 . S
O338 Tb320 2.349 . S
O338 C322 1.261 . S
O339 Tb321 2.303 . S
O339 C322 1.257 . S
C340 O330 1.236 . S
C340 O331 1.257 . S
O341 Tb320 2.415 . S
O341 C329 1.239 . S
O342 Tb320 2.399 . S
O342 C329 1.263 . S
C343 O332 1.261 . S
C343 O333 1.257 . S
C344 C347 1.358 . S
C344 C348 1.332 . S
C344 C350 1.504 . S
C345 C346 1.373 . S
C345 C349 1.308 . S
C346 C345 1.373 . S
C346 C347 1.429 . S
C346 H356 0.932 . S
C347 C344 1.358 . S
C347 C346 1.429 . S
C347 H357 0.930 . S
C348 C344 1.332 . S
C348 C349 1.394 . S
C348 H358 0.932 . S
C349 C345 1.308 . S
C349 C348 1.394 . S
C349 H359 0.929 . S
C350 Tb321 2.764 . S
C350 O334 1.239 . S
C350 O335 1.263 . S
C350 C344 1.504 . S
C351 O336 1.236 . S
C351 O337 1.257 . S
H352 C325 0.932 . S
H353 C326 0.930 . S
H354 C327 0.932 . S
H355 C328 0.929 . S
H356 C346 0.932 . S
H357 C347 0.930 . S
H358 C348 0.932 . S
H359 C349 0.929 . S
Tb360 C369 2.764 . S
Tb360 O370 2.325 . S
Tb360 O373 2.303 . S
Tb360 O377 2.322 . S
Tb360 O378 2.349 . S
Tb360 O381 2.415 . S
Tb360 O382 2.399 . S
Tb361 O371 2.322 . S
Tb361 O372 2.349 . S
Tb361 O374 2.415 . S
Tb361 O375 2.399 . S
Tb361 O376 2.325 . S
Tb361 O379 2.303 . S
Tb361 C390 2.764 . S
C362 O378 1.261 . S
C362 O379 1.257 . S
C363 C366 1.358 . S
C363 C367 1.332 . S
C363 C369 1.504 1_655 S
C364 C365 1.373 . S
C364 C368 1.308 . S
C365 C364 1.373 . S
C365 C366 1.429 . S
C365 H392 0.932 . S
C366 C363 1.358 . S
C366 C365 1.429 . S
C366 H393 0.930 . S
C367 C363 1.332 . S
C367 C368 1.394 . S
C367 H394 0.932 . S
C368 C364 1.308 . S
C368 C367 1.394 . S
C368 H395 0.929 . S
C369 Tb360 2.764 . S
C369 C363 1.504 1_455 S
C369 O381 1.239 . S
C369 O382 1.263 . S
O370 Tb360 2.325 . S
O370 C380 1.236 . S
O371 Tb361 2.322 . S
O371 C380 1.257 . S
O372 Tb361 2.349 . S
O372 C383 1.261 . S
O373 Tb360 2.303 . S
O373 C383 1.257 . S
O374 Tb361 2.415 . S
O374 C390 1.239 . S
O375 Tb361 2.399 . S
O375 C390 1.263 . S
O376 Tb361 2.325 . S
O376 C391 1.236 . S
O377 Tb360 2.322 . S
O377 C391 1.257 . S
O378 Tb360 2.349 . S
O378 C362 1.261 . S
O379 Tb361 2.303 . S
O379 C362 1.257 . S
C380 O370 1.236 . S
C380 O371 1.257 . S
O381 Tb360 2.415 . S
O381 C369 1.239 . S
O382 Tb360 2.399 . S
O382 C369 1.263 . S
C383 O372 1.261 . S
C383 O373 1.257 . S
C384 C387 1.358 . S
C384 C388 1.332 . S
C384 C390 1.504 . S
C385 C386 1.373 . S
C385 C389 1.308 . S
C386 C385 1.373 . S
C386 C387 1.429 . S
C386 H396 0.932 . S
C387 C384 1.358 . S
C387 C386 1.429 . S
C387 H397 0.930 . S
C388 C384 1.332 . S
C388 C389 1.394 . S
C388 H398 0.932 . S
C389 C385 1.308 . S
C389 C388 1.394 . S
C389 H399 0.929 . S
C390 Tb361 2.764 . S
C390 O374 1.239 . S
C390 O375 1.263 . S
C390 C384 1.504 . S
C391 O376 1.236 . S
C391 O377 1.257 . S
H392 C365 0.932 . S
H393 C366 0.930 . S
H394 C367 0.932 . S
H395 C368 0.929 . S
H396 C386 0.932 . S
H397 C387 0.930 . S
H398 C388 0.932 . S
H399 C389 0.929 . S
Tb400 C409 2.764 . S
Tb400 O410 2.325 . S
Tb400 O413 2.303 . S
Tb400 O417 2.322 . S
Tb400 O418 2.349 . S
Tb400 O421 2.415 . S
Tb400 O422 2.399 . S
Tb401 O411 2.322 . S
Tb401 O412 2.349 . S
Tb401 O414 2.415 . S
Tb401 O415 2.399 . S
Tb401 O416 2.325 . S
Tb401 O419 2.303 . S
Tb401 C430 2.764 . S
C402 O418 1.261 . S
C402 O419 1.257 . S
C403 C406 1.358 . S
C403 C407 1.332 . S
C403 C409 1.504 . S
C404 C405 1.373 . S
C404 C408 1.308 . S
C405 C404 1.373 . S
C405 C406 1.429 . S
C405 H432 0.932 . S
C406 C403 1.358 . S
C406 C405 1.429 . S
C406 H433 0.930 . S
C407 C403 1.332 . S
C407 C408 1.394 . S
C407 H434 0.932 . S
C408 C404 1.308 . S
C408 C407 1.394 . S
C408 H435 0.929 . S
C409 Tb400 2.764 . S
C409 C403 1.504 . S
C409 O421 1.239 . S
C409 O422 1.263 . S
O410 Tb400 2.325 . S
O410 C420 1.236 . S
O411 Tb401 2.322 . S
O411 C420 1.257 . S
O412 Tb401 2.349 . S
O412 C423 1.261 . S
O413 Tb400 2.303 . S
O413 C423 1.257 . S
O414 Tb401 2.415 . S
O414 C430 1.239 . S
O415 Tb401 2.399 . S
O415 C430 1.263 . S
O416 Tb401 2.325 . S
O416 C431 1.236 . S
O417 Tb400 2.322 . S
O417 C431 1.257 . S
O418 Tb400 2.349 . S
O418 C402 1.261 . S
O419 Tb401 2.303 . S
O419 C402 1.257 . S
C420 O410 1.236 . S
C420 O411 1.257 . S
O421 Tb400 2.415 . S
O421 C409 1.239 . S
O422 Tb400 2.399 . S
O422 C409 1.263 . S
C423 O412 1.261 . S
C423 O413 1.257 . S
C424 C427 1.358 . S
C424 C428 1.332 . S
C424 C430 1.504 1_545 S
C425 C426 1.373 . S
C425 C429 1.308 . S
C426 C425 1.373 . S
C426 C427 1.429 . S
C426 H436 0.932 . S
C427 C424 1.358 . S
C427 C426 1.429 . S
C427 H437 0.930 . S
C428 C424 1.332 . S
C428 C429 1.394 . S
C428 H438 0.932 . S
C429 C425 1.308 . S
C429 C428 1.394 . S
C429 H439 0.929 . S
C430 Tb401 2.764 . S
C430 O414 1.239 . S
C430 O415 1.263 . S
C430 C424 1.504 1_565 S
C431 O416 1.236 . S
C431 O417 1.257 . S
H432 C405 0.932 . S
H433 C406 0.930 . S
H434 C407 0.932 . S
H435 C408 0.929 . S
H436 C426 0.932 . S
H437 C427 0.930 . S
H438 C428 0.932 . S
H439 C429 0.929 . S
Tb440 C449 2.764 . S
Tb440 O450 2.325 . S
Tb440 O453 2.303 . S
Tb440 O457 2.322 . S
Tb440 O458 2.349 . S
Tb440 O461 2.415 . S
Tb440 O462 2.399 . S
Tb441 O451 2.322 . S
Tb441 O452 2.349 . S
Tb441 O454 2.415 . S
Tb441 O455 2.399 . S
Tb441 O456 2.325 . S
Tb441 O459 2.303 . S
Tb441 C470 2.764 . S
C442 O458 1.261 . S
C442 O459 1.257 . S
C443 C446 1.358 . S
C443 C447 1.332 . S
C443 C449 1.504 . S
C444 C445 1.373 . S
C444 C448 1.308 . S
C445 C444 1.373 . S
C445 C446 1.429 . S
C445 H472 0.932 . S
C446 C443 1.358 . S
C446 C445 1.429 . S
C446 H473 0.930 . S
C447 C443 1.332 . S
C447 C448 1.394 . S
C447 H474 0.932 . S
C448 C444 1.308 . S
C448 C447 1.394 . S
C448 H475 0.929 . S
C449 Tb440 2.764 . S
C449 C443 1.504 . S
C449 O461 1.239 . S
C449 O462 1.263 . S
O450 Tb440 2.325 . S
O450 C460 1.236 . S
O451 Tb441 2.322 . S
O451 C460 1.257 . S
O452 Tb441 2.349 . S
O452 C463 1.261 . S
O453 Tb440 2.303 . S
O453 C463 1.257 . S
O454 Tb441 2.415 . S
O454 C470 1.239 . S
O455 Tb441 2.399 . S
O455 C470 1.263 . S
O456 Tb441 2.325 . S
O456 C471 1.236 . S
O457 Tb440 2.322 . S
O457 C471 1.257 . S
O458 Tb440 2.349 . S
O458 C442 1.261 . S
O459 Tb441 2.303 . S
O459 C442 1.257 . S
C460 O450 1.236 . S
C460 O451 1.257 . S
O461 Tb440 2.415 . S
O461 C449 1.239 . S
O462 Tb440 2.399 . S
O462 C449 1.263 . S
C463 O452 1.261 . S
C463 O453 1.257 . S
C464 C467 1.358 . S
C464 C468 1.332 . S
C464 C470 1.504 . S
C465 C466 1.373 . S
C465 C469 1.308 . S
C466 C465 1.373 . S
C466 C467 1.429 . S
C466 H476 0.932 . S
C467 C464 1.358 . S
C467 C466 1.429 . S
C467 H477 0.930 . S
C468 C464 1.332 . S
C468 C469 1.394 . S
C468 H478 0.932 . S
C469 C465 1.308 . S
C469 C468 1.394 . S
C469 H479 0.929 . S
C470 Tb441 2.764 . S
C470 O454 1.239 . S
C470 O455 1.263 . S
C470 C464 1.504 . S
C471 O456 1.236 . S
C471 O457 1.257 . S
H472 C445 0.932 . S
H473 C446 0.930 . S
H474 C447 0.932 . S
H475 C448 0.929 . S
H476 C466 0.932 . S
H477 C467 0.930 . S
H478 C468 0.932 . S
H479 C469 0.929 . S
C480 C481 1.391 . S
C480 C482 1.394 . S
C480 H496 0.931 . S
C481 C480 1.391 . S
C481 C485 1.376 . S
C482 C480 1.394 . S
C482 C483 1.369 . S
C482 C486 1.531 . S
C483 C482 1.369 . S
C483 C484 1.410 . S
C483 C491 1.503 . S
C484 C483 1.410 . S
C484 C485 1.392 . S
C484 C487 1.511 . S
C485 C481 1.376 . S
C485 C484 1.392 . S
C485 H497 0.929 . S
C486 C482 1.531 . S
C486 H498 0.960 . S
C486 H499 0.962 . S
C486 H500 0.960 . S
C487 C484 1.511 . S
C487 H501 0.961 . S
C487 H502 0.961 . S
C487 H503 0.961 . S
C488 C489 1.370 . S
C488 C490 1.363 . S
C488 H504 0.931 . S
C489 C488 1.370 . S
C489 C493 1.408 . S
C490 C488 1.363 . S
C490 C491 1.370 . S
C490 C494 1.524 . S
C491 C483 1.503 . S
C491 C490 1.370 . S
C491 C492 1.403 . S
C492 C491 1.403 . S
C492 C493 1.404 . S
C492 C495 1.539 . S
C493 C489 1.408 . S
C493 C492 1.404 . S
C493 H505 0.930 . S
C494 C490 1.524 . S
C494 H506 0.956 . S
C494 H507 0.961 . S
C494 H508 0.961 . S
C495 C492 1.539 . S
C495 H509 0.958 . S
C495 H510 0.961 . S
C495 H511 0.960 . S
H496 C480 0.931 . S
H497 C485 0.929 . S
H498 C486 0.960 . S
H499 C486 0.962 . S
H500 C486 0.960 . S
H501 C487 0.961 . S
H502 C487 0.961 . S
H503 C487 0.961 . S
H504 C488 0.931 . S
H505 C493 0.930 . S
H506 C494 0.956 . S
H507 C494 0.961 . S
H508 C494 0.961 . S
H509 C495 0.958 . S
H510 C495 0.961 . S
H511 C495 0.960 . S
C512 C513 1.391 . S
C512 C514 1.394 . S
C512 H528 0.931 . S
C513 C512 1.391 . S
C513 C517 1.376 . S
C514 C512 1.394 . S
C514 C515 1.369 . S
C514 C518 1.531 . S
C515 C514 1.369 . S
C515 C516 1.410 . S
C515 C523 1.503 1_455 S
C516 C515 1.410 . S
C516 C517 1.392 . S
C516 C519 1.511 1_455 S
C517 C513 1.376 . S
C517 C516 1.392 . S
C517 H529 0.929 . S
C518 C514 1.531 . S
C518 H530 0.960 . S
C518 H531 0.962 . S
C518 H532 0.960 . S
C519 C516 1.511 1_655 S
C519 H533 0.961 1_655 S
C519 H534 0.961 . S
C519 H535 0.961 . S
C520 C521 1.370 . S
C520 C522 1.363 . S
C520 H536 0.931 . S
C521 C520 1.370 . S
C521 C525 1.408 . S
C522 C520 1.363 . S
C522 C523 1.370 . S
C522 C526 1.524 . S
C523 C515 1.503 1_655 S
C523 C522 1.370 . S
C523 C524 1.403 . S
C524 C523 1.403 . S
C524 C525 1.404 . S
C524 C527 1.539 . S
C525 C521 1.408 . S
C525 C524 1.404 . S
C525 H537 0.930 . S
C526 C522 1.524 . S
C526 H538 0.956 1_655 S
C526 H539 0.961 1_655 S
C526 H540 0.961 . S
C527 C524 1.539 . S
C527 H541 0.958 . S
C527 H542 0.961 . S
C527 H543 0.960 . S
H528 C512 0.931 . S
H529 C517 0.929 . S
H530 C518 0.960 . S
H531 C518 0.962 . S
H532 C518 0.960 . S
H533 C519 0.961 1_455 S
H534 C519 0.961 . S
H535 C519 0.961 . S
H536 C520 0.931 . S
H537 C525 0.930 . S
H538 C526 0.956 1_455 S
H539 C526 0.961 1_455 S
H540 C526 0.961 . S
H541 C527 0.958 . S
H542 C527 0.961 . S
H543 C527 0.960 . S
C544 C545 1.391 . S
C544 C546 1.394 . S
C544 H560 0.931 . S
C545 C544 1.391 . S
C545 C549 1.376 . S
C546 C544 1.394 . S
C546 C547 1.369 . S
C546 C550 1.521 1_545 S
C547 C546 1.369 . S
C547 C548 1.410 . S
C547 C555 1.503 1_545 S
C548 C547 1.410 . S
C548 C549 1.392 . S
C548 C551 1.511 . S
C549 C545 1.376 . S
C549 C548 1.392 . S
C549 H561 0.929 . S
C550 C546 1.521 1_565 S
C550 H562 0.988 . S
C550 H563 0.961 . S
C550 H564 0.943 1_565 S
C551 C548 1.511 . S
C551 H565 0.961 . S
C551 H566 0.961 . S
C551 H567 0.961 . S
C552 C553 1.370 . S
C552 C554 1.363 . S
C552 H568 0.931 . S
C553 C552 1.370 . S
C553 C557 1.408 . S
C554 C552 1.363 . S
C554 C555 1.370 . S
C554 C558 1.524 . S
C555 C547 1.503 1_565 S
C555 C554 1.370 . S
C555 C556 1.403 . S
C556 C555 1.403 . S
C556 C557 1.404 . S
C556 C559 1.539 . S
C557 C553 1.408 . S
C557 C556 1.404 . S
C557 H569 0.930 . S
C558 C554 1.524 . S
C558 H570 0.956 . S
C558 H571 0.961 1_565 S
C558 H572 0.961 . S
C559 C556 1.539 . S
C559 H573 0.958 . S
C559 H574 0.961 . S
C559 H575 0.960 1_565 S
H560 C544 0.931 . S
H561 C549 0.929 . S
H562 C550 0.988 . S
H563 C550 0.961 . S
H564 C550 0.943 1_545 S
H565 C551 0.961 . S
H566 C551 0.961 . S
H567 C551 0.961 . S
H568 C552 0.931 . S
H569 C557 0.930 . S
H570 C558 0.956 . S
H571 C558 0.961 1_545 S
H572 C558 0.961 . S
H573 C559 0.958 . S
H574 C559 0.961 . S
H575 C559 0.960 1_545 S
C576 C577 1.391 . S
C576 C578 1.394 . S
C576 H592 0.931 . S
C577 C576 1.391 . S
C577 C581 1.376 . S
C578 C576 1.394 . S
C578 C579 1.369 . S
C578 C582 1.531 . S
C579 C578 1.369 . S
C579 C580 1.410 . S
C579 C587 1.503 . S
C580 C579 1.410 . S
C580 C581 1.392 . S
C580 C583 1.511 . S
C581 C577 1.376 . S
C581 C580 1.392 . S
C581 H593 0.929 . S
C582 C578 1.531 . S
C582 H594 0.960 . S
C582 H595 0.962 . S
C582 H596 0.960 . S
C583 C580 1.511 . S
C583 H597 0.961 . S
C583 H598 0.961 . S
C583 H599 0.961 . S
C584 C585 1.370 . S
C584 C586 1.363 . S
C584 H600 0.931 . S
C585 C584 1.370 . S
C585 C589 1.408 . S
C586 C584 1.363 . S
C586 C587 1.370 . S
C586 C590 1.524 . S
C587 C579 1.503 . S
C587 C586 1.370 . S
C587 C588 1.403 . S
C588 C587 1.403 . S
C588 C589 1.404 . S
C588 C591 1.539 . S
C589 C585 1.408 . S
C589 C588 1.404 . S
C589 H601 0.930 . S
C590 C586 1.524 . S
C590 H602 0.956 . S
C590 H603 0.961 . S
C590 H604 0.961 . S
C591 C588 1.539 . S
C591 H605 0.958 . S
C591 H606 0.961 . S
C591 H607 0.960 . S
H592 C576 0.931 . S
H593 C581 0.929 . S
H594 C582 0.960 . S
H595 C582 0.962 . S
H596 C582 0.960 . S
H597 C583 0.961 . S
H598 C583 0.961 . S
H599 C583 0.961 . S
H600 C584 0.931 . S
H601 C589 0.930 . S
H602 C590 0.956 . S
H603 C590 0.961 . S
H604 C590 0.961 . S
H605 C591 0.958 . S
H606 C591 0.961 . S
H607 C591 0.960 . S
C608 C609 1.391 . S
C608 C610 1.394 . S
C608 H624 0.931 . S
C609 C608 1.391 . S
C609 C613 1.376 . S
C610 C608 1.394 . S
C610 C611 1.369 . S
C610 C614 1.543 . S
C611 C610 1.369 . S
C611 C612 1.410 . S
C611 C619 1.503 1_455 S
C612 C611 1.410 . S
C612 C613 1.392 . S
C612 C615 1.511 . S
C613 C609 1.376 . S
C613 C612 1.392 . S
C613 H625 0.929 . S
C614 C610 1.543 . S
C614 H626 0.955 1_455 S
C614 H627 0.954 1_455 S
C614 H628 0.961 . S
C615 C612 1.511 . S
C615 H629 0.961 . S
C615 H630 0.961 . S
C615 H631 0.961 . S
C616 C617 1.370 . S
C616 C618 1.363 . S
C616 H632 0.931 . S
C617 C616 1.370 . S
C617 C621 1.408 . S
C618 C616 1.363 . S
C618 C619 1.370 . S
C618 C622 1.524 . S
C619 C611 1.503 1_655 S
C619 C618 1.370 . S
C619 C620 1.403 . S
C620 C619 1.403 . S
C620 C621 1.404 . S
C620 C623 1.539 . S
C621 C617 1.408 . S
C621 C620 1.404 . S
C621 H633 0.930 . S
C622 C618 1.524 . S
C622 H634 0.956 . S
C622 H635 0.961 . S
C622 H636 0.961 . S
C623 C620 1.539 . S
C623 H637 0.958 . S
C623 H638 0.961 . S
C623 H639 0.960 1_655 S
H624 C608 0.931 . S
H625 C613 0.929 . S
H626 C614 0.955 1_655 S
H627 C614 0.954 1_655 S
H628 C614 0.961 . S
H629 C615 0.961 . S
H630 C615 0.961 . S
H631 C615 0.961 . S
H632 C616 0.931 . S
H633 C621 0.930 . S
H634 C622 0.956 . S
H635 C622 0.961 . S
H636 C622 0.961 . S
H637 C623 0.958 . S
H638 C623 0.961 . S
H639 C623 0.960 1_455 S
C640 C641 1.391 . S
C640 C642 1.394 . S
C640 H656 0.931 . S
C641 C640 1.391 . S
C641 C645 1.376 . S
C642 C640 1.394 . S
C642 C643 1.369 . S
C642 C646 1.531 1_565 S
C643 C642 1.369 . S
C643 C644 1.410 . S
C643 C651 1.503 1_565 S
C644 C643 1.410 . S
C644 C645 1.392 . S
C644 C647 1.511 . S
C645 C641 1.376 . S
C645 C644 1.392 . S
C645 H657 0.929 . S
C646 C642 1.531 1_545 S
C646 H658 0.960 . S
C646 H659 0.962 . S
C646 H660 0.960 1_545 S
C647 C644 1.511 . S
C647 H661 0.961 . S
C647 H662 0.961 . S
C647 H663 0.961 . S
C648 C649 1.370 . S
C648 C650 1.363 . S
C648 H664 0.931 . S
C649 C648 1.370 . S
C649 C653 1.408 . S
C650 C648 1.363 . S
C650 C651 1.370 . S
C650 C654 1.524 . S
C651 C643 1.503 1_545 S
C651 C650 1.370 . S
C651 C652 1.403 . S
C652 C651 1.403 . S
C652 C653 1.404 . S
C652 C655 1.539 . S
C653 C649 1.408 . S
C653 C652 1.404 . S
C653 H665 0.930 . S
C654 C650 1.524 . S
C654 H666 0.956 . S
C654 H667 0.961 1_545 S
C654 H668 0.961 . S
C655 C652 1.539 . S
C655 H669 0.958 . S
C655 H670 0.961 . S
C655 H671 0.960 1_545 S
H656 C640 0.931 . S
H657 C645 0.929 . S
H658 C646 0.960 . S
H659 C646 0.962 . S
H660 C646 0.960 1_565 S
H661 C647 0.961 . S
H662 C647 0.961 . S
H663 C647 0.961 . S
H664 C648 0.931 . S
H665 C653 0.930 . S
H666 C654 0.956 . S
H667 C654 0.961 1_565 S
H668 C654 0.961 . S
H669 C655 0.958 . S
H670 C655 0.961 . S
H671 C655 0.960 1_565 S
C672 C673 1.391 . S
C672 C674 1.394 . S
C672 H688 0.931 . S
C673 C672 1.391 . S
C673 C677 1.376 . S
C674 C672 1.394 . S
C674 C675 1.369 . S
C674 C678 1.531 . S
C675 C674 1.369 . S
C675 C676 1.410 . S
C675 C683 1.503 . S
C676 C675 1.410 . S
C676 C677 1.392 . S
C676 C679 1.511 . S
C677 C673 1.376 . S
C677 C676 1.392 . S
C677 H689 0.929 . S
C678 C674 1.531 . S
C678 H690 0.960 . S
C678 H691 0.962 . S
C678 H692 0.960 . S
C679 C676 1.511 . S
C679 H693 0.961 . S
C679 H694 0.961 . S
C679 H695 0.961 . S
C680 C681 1.370 . S
C680 C682 1.363 . S
C680 H696 0.931 . S
C681 C680 1.370 . S
C681 C685 1.408 . S
C682 C680 1.363 . S
C682 C683 1.370 . S
C682 C686 1.524 . S
C683 C675 1.503 . S
C683 C682 1.370 . S
C683 C684 1.403 . S
C684 C683 1.403 . S
C684 C685 1.404 . S
C684 C687 1.539 . S
C685 C681 1.408 . S
C685 C684 1.404 . S
C685 H697 0.930 . S
C686 C682 1.524 . S
C686 H698 0.956 . S
C686 H699 0.961 . S
C686 H700 0.961 . S
C687 C684 1.539 . S
C687 H701 0.958 . S
C687 H702 0.961 . S
C687 H703 0.960 . S
H688 C672 0.931 . S
H689 C677 0.929 . S
H690 C678 0.960 . S
H691 C678 0.962 . S
H692 C678 0.960 . S
H693 C679 0.961 . S
H694 C679 0.961 . S
H695 C679 0.961 . S
H696 C680 0.931 . S
H697 C685 0.930 . S
H698 C686 0.956 . S
H699 C686 0.961 . S
H700 C686 0.961 . S
H701 C687 0.958 . S
H702 C687 0.961 . S
H703 C687 0.960 . S
C704 C705 1.391 . S
C704 C706 1.394 . S
C704 H720 0.931 . S
C705 C704 1.391 . S
C705 C709 1.376 . S
C706 C704 1.394 . S
C706 C707 1.369 . S
C706 C710 1.531 . S
C707 C706 1.369 . S
C707 C708 1.410 . S
C707 C715 1.503 1_455 S
C708 C707 1.410 . S
C708 C709 1.392 . S
C708 C711 1.511 . S
C709 C705 1.376 . S
C709 C708 1.392 . S
C709 H721 0.929 . S
C710 C706 1.531 . S
C710 H722 0.960 1_455 S
C710 H723 0.962 1_455 S
C710 H724 0.960 . S
C711 C708 1.511 . S
C711 H725 0.961 . S
C711 H726 0.961 . S
C711 H727 0.961 . S
C712 C713 1.370 . S
C712 C714 1.363 . S
C712 H728 0.931 . S
C713 C712 1.370 . S
C713 C717 1.408 . S
C714 C712 1.363 . S
C714 C715 1.370 . S
C714 C718 1.516 1_655 S
C715 C707 1.503 1_655 S
C715 C714 1.370 . S
C715 C716 1.403 . S
C716 C715 1.403 . S
C716 C717 1.404 . S
C716 C719 1.539 . S
C717 C713 1.408 . S
C717 C716 1.404 . S
C717 H729 0.930 . S
C718 C714 1.516 1_455 S
C718 H730 0.966 . S
C718 H731 0.967 . S
C718 H732 0.953 1_455 S
C719 C716 1.539 . S
C719 H733 0.958 . S
C719 H734 0.961 . S
C719 H735 0.960 . S
H720 C704 0.931 . S
H721 C709 0.929 . S
H722 C710 0.960 1_655 S
H723 C710 0.962 1_655 S
H724 C710 0.960 . S
H725 C711 0.961 . S
H726 C711 0.961 . S
H727 C711 0.961 . S
H728 C712 0.931 . S
H729 C717 0.930 . S
H730 C718 0.966 . S
H731 C718 0.967 . S
H732 C718 0.953 1_655 S
H733 C719 0.958 . S
H734 C719 0.961 . S
H735 C719 0.960 . S
C736 C737 1.391 . S
C736 C738 1.394 . S
C736 H752 0.931 . S
C737 C736 1.391 . S
C737 C741 1.376 . S
C738 C736 1.394 . S
C738 C739 1.369 . S
C738 C742 1.531 . S
C739 C738 1.369 . S
C739 C740 1.410 . S
C739 C747 1.503 1_565 S
C740 C739 1.410 . S
C740 C741 1.392 . S
C740 C743 1.511 . S
C741 C737 1.376 . S
C741 C740 1.392 . S
C741 H753 0.929 . S
C742 C738 1.531 . S
C742 H754 0.959 . S
C742 H755 0.962 . S
C742 H756 0.960 . S
C743 C740 1.511 . S
C743 H757 0.961 . S
C743 H758 0.961 1_565 S
C743 H759 0.952 1_565 S
C744 C745 1.370 . S
C744 C746 1.363 . S
C744 H760 0.931 . S
C745 C744 1.370 . S
C745 C749 1.408 . S
C746 C744 1.363 . S
C746 C747 1.370 . S
C746 C750 1.524 1_545 S
C747 C739 1.503 1_545 S
C747 C746 1.370 . S
C747 C748 1.403 . S
C748 C747 1.403 . S
C748 C749 1.404 . S
C748 C751 1.539 . S
C749 C745 1.408 . S
C749 C748 1.404 . S
C749 H761 0.930 . S
C750 C746 1.524 1_565 S
C750 H762 0.956 . S
C750 H763 0.961 . S
C750 H764 0.961 1_565 S
C751 C748 1.539 . S
C751 H765 0.958 . S
C751 H766 0.961 . S
C751 H767 0.960 . S
H752 C736 0.931 . S
H753 C741 0.929 . S
H754 C742 0.959 . S
H755 C742 0.962 . S
H756 C742 0.960 . S
H757 C743 0.961 . S
H758 C743 0.961 1_545 S
H759 C743 0.952 1_545 S
H760 C744 0.931 . S
H761 C749 0.930 . S
H762 C750 0.956 . S
H763 C750 0.961 . S
H764 C750 0.961 1_545 S
H765 C751 0.958 . S
H766 C751 0.961 . S
H767 C751 0.960 . S
C768 C769 1.391 . S
C768 C770 1.394 . S
C768 H784 0.931 . S
C769 C768 1.391 . S
C769 C773 1.376 . S
C770 C768 1.394 . S
C770 C771 1.369 . S
C770 C774 1.531 . S
C771 C770 1.369 . S
C771 C772 1.410 . S
C771 C779 1.503 . S
C772 C771 1.410 . S
C772 C773 1.392 . S
C772 C775 1.511 . S
C773 C769 1.376 . S
C773 C772 1.392 . S
C773 H785 0.929 . S
C774 C770 1.531 . S
C774 H786 0.960 . S
C774 H787 0.962 . S
C774 H788 0.960 . S
C775 C772 1.511 . S
C775 H789 0.961 . S
C775 H790 0.961 . S
C775 H791 0.961 . S
C776 C777 1.370 . S
C776 C778 1.363 . S
C776 H792 0.931 . S
C777 C776 1.370 . S
C777 C781 1.408 . S
C778 C776 1.363 . S
C778 C779 1.370 . S
C778 C782 1.524 . S
C779 C771 1.503 . S
C779 C778 1.370 . S
C779 C780 1.403 . S
C780 C779 1.403 . S
C780 C781 1.404 . S
C780 C783 1.539 . S
C781 C777 1.408 . S
C781 C780 1.404 . S
C781 H793 0.930 . S
C782 C778 1.524 . S
C782 H794 0.956 . S
C782 H795 0.961 . S
C782 H796 0.961 . S
C783 C780 1.539 . S
C783 H797 0.958 . S
C783 H798 0.961 . S
C783 H799 0.960 . S
H784 C768 0.931 . S
H785 C773 0.929 . S
H786 C774 0.960 . S
H787 C774 0.962 . S
H788 C774 0.960 . S
H789 C775 0.961 . S
H790 C775 0.961 . S
H791 C775 0.961 . S
H792 C776 0.931 . S
H793 C781 0.930 . S
H794 C782 0.956 . S
H795 C782 0.961 . S
H796 C782 0.961 . S
H797 C783 0.958 . S
H798 C783 0.961 . S
H799 C783 0.960 . S
C800 C801 1.391 . S
C800 C802 1.394 . S
C800 H816 0.931 . S
C801 C800 1.391 . S
C801 C805 1.376 . S
C802 C800 1.394 . S
C802 C803 1.369 . S
C802 C806 1.531 . S
C803 C802 1.369 . S
C803 C804 1.410 . S
C803 C811 1.503 1_455 S
C804 C803 1.410 . S
C804 C805 1.392 . S
C804 C807 1.511 . S
C805 C801 1.376 . S
C805 C804 1.392 . S
C805 H817 0.929 . S
C806 C802 1.531 . S
C806 H818 0.960 . S
C806 H819 0.962 . S
C806 H820 0.960 . S
C807 C804 1.511 . S
C807 H821 0.961 . S
C807 H822 0.961 1_455 S
C807 H823 0.961 1_455 S
C808 C809 1.370 . S
C808 C810 1.363 . S
C808 H824 0.931 . S
C809 C808 1.370 . S
C809 C813 1.408 . S
C810 C808 1.363 . S
C810 C811 1.370 . S
C810 C814 1.524 1_655 S
C811 C803 1.503 1_655 S
C811 C810 1.370 . S
C811 C812 1.403 . S
C812 C811 1.403 . S
C812 C813 1.404 . S
C812 C815 1.539 . S
C813 C809 1.408 . S
C813 C812 1.404 . S
C813 H825 0.930 . S
C814 C810 1.524 1_455 S
C814 H826 0.956 . S
C814 H827 0.961 . S
C814 H828 0.961 1_455 S
C815 C812 1.539 . S
C815 H829 0.958 . S
C815 H830 0.961 . S
C815 H831 0.960 . S
H816 C800 0.931 . S
H817 C805 0.929 . S
H818 C806 0.960 . S
H819 C806 0.962 . S
H820 C806 0.960 . S
H821 C807 0.961 . S
H822 C807 0.961 1_655 S
H823 C807 0.961 1_655 S
H824 C808 0.931 . S
H825 C813 0.930 . S
H826 C814 0.956 . S
H827 C814 0.961 . S
H828 C814 0.961 1_655 S
H829 C815 0.958 . S
H830 C815 0.961 . S
H831 C815 0.960 . S
C832 C833 1.391 . S
C832 C834 1.394 . S
C832 H848 0.931 . S
C833 C832 1.391 . S
C833 C837 1.376 . S
C834 C832 1.394 . S
C834 C835 1.369 . S
C834 C838 1.531 . S
C835 C834 1.369 . S
C835 C836 1.410 . S
C835 C843 1.503 1_545 S
C836 C835 1.410 . S
C836 C837 1.392 . S
C836 C839 1.511 . S
C837 C833 1.376 . S
C837 C836 1.392 . S
C837 H849 0.929 . S
C838 C834 1.531 . S
C838 H850 0.960 1_545 S
C838 H851 0.962 . S
C838 H852 0.960 . S
C839 C836 1.511 . S
C839 H853 0.961 . S
C839 H854 0.961 1_545 S
C839 H855 0.961 1_545 S
C840 C841 1.370 . S
C840 C842 1.363 . S
C840 H856 0.931 . S
C841 C840 1.370 . S
C841 C845 1.408 . S
C842 C840 1.363 . S
C842 C843 1.370 . S
C842 C846 1.524 1_565 S
C843 C835 1.503 1_565 S
C843 C842 1.370 . S
C843 C844 1.403 . S
C844 C843 1.403 . S
C844 C845 1.404 . S
C844 C847 1.539 . S
C845 C841 1.408 . S
C845 C844 1.404 . S
C845 H857 0.930 . S
C846 C842 1.524 1_545 S
C846 H858 0.956 . S
C846 H859 0.961 . S
C846 H860 0.961 1_545 S
C847 C844 1.539 . S
C847 H861 0.958 . S
C847 H862 0.961 . S
C847 H863 0.960 . S
H848 C832 0.931 . S
H849 C837 0.929 . S
H850 C838 0.960 1_565 S
H851 C838 0.962 . S
H852 C838 0.960 . S
H853 C839 0.961 . S
H854 C839 0.961 1_565 S
H855 C839 0.961 1_565 S
H856 C840 0.931 . S
H857 C845 0.930 . S
H858 C846 0.956 . S
H859 C846 0.961 . S
H860 C846 0.961 1_565 S
H861 C847 0.958 . S
H862 C847 0.961 . S
H863 C847 0.960 . S
C864 C865 1.391 . S
C864 C866 1.394 . S
C864 H880 0.931 . S
C865 C864 1.391 . S
C865 C869 1.376 . S
C866 C864 1.394 . S
C866 C867 1.369 . S
C866 C870 1.531 . S
C867 C866 1.369 . S
C867 C868 1.410 . S
C867 C875 1.503 . S
C868 C867 1.410 . S
C868 C869 1.392 . S
C868 C871 1.511 . S
C869 C865 1.376 . S
C869 C868 1.392 . S
C869 H881 0.929 . S
C870 C866 1.531 . S
C870 H882 0.960 . S
C870 H883 0.962 . S
C870 H884 0.960 . S
C871 C868 1.511 . S
C871 H885 0.961 . S
C871 H886 0.961 . S
C871 H887 0.961 . S
C872 C873 1.370 . S
C872 C874 1.363 . S
C872 H888 0.931 . S
C873 C872 1.370 . S
C873 C877 1.408 . S
C874 C872 1.363 . S
C874 C875 1.370 . S
C874 C878 1.524 . S
C875 C867 1.503 . S
C875 C874 1.370 . S
C875 C876 1.403 . S
C876 C875 1.403 . S
C876 C877 1.404 . S
C876 C879 1.539 . S
C877 C873 1.408 . S
C877 C876 1.404 . S
C877 H889 0.930 . S
C878 C874 1.524 . S
C878 H890 0.956 . S
C878 H891 0.961 . S
C878 H892 0.961 . S
C879 C876 1.539 . S
C879 H893 0.958 . S
C879 H894 0.961 . S
C879 H895 0.960 . S
H880 C864 0.931 . S
H881 C869 0.929 . S
H882 C870 0.960 . S
H883 C870 0.962 . S
H884 C870 0.960 . S
H885 C871 0.961 . S
H886 C871 0.961 . S
H887 C871 0.961 . S
H888 C872 0.931 . S
H889 C877 0.930 . S
H890 C878 0.956 . S
H891 C878 0.961 . S
H892 C878 0.961 . S
H893 C879 0.958 . S
H894 C879 0.961 . S
H895 C879 0.960 . S
C896 C897 1.391 . S
C896 C898 1.394 . S
C896 H912 0.931 . S
C897 C896 1.391 . S
C897 C901 1.376 . S
C898 C896 1.394 . S
C898 C899 1.369 . S
C898 C902 1.531 . S
C899 C898 1.369 . S
C899 C900 1.410 . S
C899 C907 1.503 . S
C900 C899 1.410 . S
C900 C901 1.392 . S
C900 C903 1.511 . S
C901 C897 1.376 . S
C901 C900 1.392 . S
C901 H913 0.929 . S
C902 C898 1.531 . S
C902 H914 0.960 . S
C902 H915 0.962 . S
C902 H916 0.960 . S
C903 C900 1.511 . S
C903 H917 0.961 . S
C903 H918 0.961 . S
C903 H919 0.961 . S
C904 C905 1.370 . S
C904 C906 1.363 . S
C904 H920 0.931 . S
C905 C904 1.370 . S
C905 C909 1.408 . S
C906 C904 1.363 . S
C906 C907 1.370 . S
C906 C910 1.524 . S
C907 C899 1.503 . S
C907 C906 1.370 . S
C907 C908 1.403 . S
C908 C907 1.403 . S
C908 C909 1.404 . S
C908 C911 1.539 . S
C909 C905 1.408 . S
C909 C908 1.404 . S
C909 H921 0.930 . S
C910 C906 1.524 . S
C910 H922 0.956 . S
C910 H923 0.961 . S
C910 H924 0.961 . S
C911 C908 1.539 . S
C911 H925 0.958 . S
C911 H926 0.961 . S
C911 H927 0.960 . S
H912 C896 0.931 . S
H913 C901 0.929 . S
H914 C902 0.960 . S
H915 C902 0.962 . S
H916 C902 0.960 . S
H917 C903 0.961 . S
H918 C903 0.961 . S
H919 C903 0.961 . S
H920 C904 0.931 . S
H921 C909 0.930 . S
H922 C910 0.956 . S
H923 C910 0.961 . S
H924 C910 0.961 . S
H925 C911 0.958 . S
H926 C911 0.961 . S
H927 C911 0.960 . S
C928 C929 1.391 . S
C928 C930 1.394 . S
C928 H944 0.931 . S
C929 C928 1.391 . S
C929 C933 1.376 . S
C930 C928 1.394 . S
C930 C931 1.369 . S
C930 C934 1.531 . S
C931 C930 1.369 . S
C931 C932 1.410 . S
C931 C939 1.503 . S
C932 C931 1.410 . S
C932 C933 1.392 . S
C932 C935 1.511 . S
C933 C929 1.376 . S
C933 C932 1.392 . S
C933 H945 0.929 . S
C934 C930 1.531 . S
C934 H946 0.960 . S
C934 H947 0.962 . S
C934 H948 0.960 . S
C935 C932 1.511 . S
C935 H949 0.961 . S
C935 H950 0.961 . S
C935 H951 0.961 . S
C936 C937 1.370 . S
C936 C938 1.363 . S
C936 H952 0.931 . S
C937 C936 1.370 . S
C937 C941 1.408 . S
C938 C936 1.363 . S
C938 C939 1.370 . S
C938 C942 1.524 . S
C939 C931 1.503 . S
C939 C938 1.370 . S
C939 C940 1.403 . S
C940 C939 1.403 . S
C940 C941 1.404 . S
C940 C943 1.539 . S
C941 C937 1.408 . S
C941 C940 1.404 . S
C941 H953 0.930 . S
C942 C938 1.524 . S
C942 H954 0.956 . S
C942 H955 0.961 . S
C942 H956 0.961 . S
C943 C940 1.539 . S
C943 H957 0.958 . S
C943 H958 0.961 . S
C943 H959 0.960 . S
H944 C928 0.931 . S
H945 C933 0.929 . S
H946 C934 0.960 . S
H947 C934 0.962 . S
H948 C934 0.960 . S
H949 C935 0.961 . S
H950 C935 0.961 . S
H951 C935 0.961 . S
H952 C936 0.931 . S
H953 C941 0.930 . S
H954 C942 0.956 . S
H955 C942 0.961 . S
H956 C942 0.961 . S
H957 C943 0.958 . S
H958 C943 0.961 . S
H959 C943 0.960 . S
C960 C961 1.391 . S
C960 C962 1.394 . S
C960 H976 0.931 . S
C961 C960 1.391 . S
C961 C965 1.376 . S
C962 C960 1.394 . S
C962 C963 1.369 . S
C962 C966 1.531 . S
C963 C962 1.369 . S
C963 C964 1.410 . S
C963 C971 1.503 . S
C964 C963 1.410 . S
C964 C965 1.392 . S
C964 C967 1.511 . S
C965 C961 1.376 . S
C965 C964 1.392 . S
C965 H977 0.929 . S
C966 C962 1.531 . S
C966 H978 0.960 . S
C966 H979 0.962 . S
C966 H980 0.960 . S
C967 C964 1.511 . S
C967 H981 0.961 . S
C967 H982 0.961 . S
C967 H983 0.961 . S
C968 C969 1.370 . S
C968 C970 1.363 . S
C968 H984 0.931 . S
C969 C968 1.370 . S
C969 C973 1.408 . S
C970 C968 1.363 . S
C970 C971 1.370 . S
C970 C974 1.524 . S
C971 C963 1.503 . S
C971 C970 1.370 . S
C971 C972 1.403 . S
C972 C971 1.403 . S
C972 C973 1.404 . S
C972 C975 1.539 . S
C973 C969 1.408 . S
C973 C972 1.404 . S
C973 H985 0.930 . S
C974 C970 1.524 . S
C974 H986 0.956 . S
C974 H987 0.961 . S
C974 H988 0.961 . S
C975 C972 1.539 . S
C975 H989 0.958 . S
C975 H990 0.961 . S
C975 H991 0.960 . S
H976 C960 0.931 . S
H977 C965 0.929 . S
H978 C966 0.960 . S
H979 C966 0.962 . S
H980 C966 0.960 . S
H981 C967 0.961 . S
H982 C967 0.961 . S
H983 C967 0.961 . S
H984 C968 0.931 . S
H985 C973 0.930 . S
H986 C974 0.956 . S
H987 C974 0.961 . S
H988 C974 0.961 . S
H989 C975 0.958 . S
H990 C975 0.961 . S
H991 C975 0.960 . S
C992 C993 1.391 . S
C992 C994 1.394 . S
C992 H1008 0.931 . S
C993 C992 1.391 . S
C993 C997 1.376 . S
C994 C992 1.394 . S
C994 C995 1.369 . S
C994 C998 1.531 . S
C995 C994 1.369 . S
C995 C996 1.410 . S
C995 C1003 1.503 . S
C996 C995 1.410 . S
C996 C997 1.392 . S
C996 C999 1.511 . S
C997 C993 1.376 . S
C997 C996 1.392 . S
C997 H1009 0.929 . S
C998 C994 1.531 . S
C998 H1010 0.960 . S
C998 H1011 0.962 . S
C998 H1012 0.960 . S
C999 C996 1.511 . S
C999 H1013 0.961 . S
C999 H1014 0.961 . S
C999 H1015 0.961 . S
C1000 C1001 1.370 . S
C1000 C1002 1.363 . S
C1000 H1016 0.931 . S
C1001 C1000 1.370 . S
C1001 C1005 1.408 . S
C1002 C1000 1.363 . S
C1002 C1003 1.370 . S
C1002 C1006 1.524 . S
C1003 C995 1.503 . S
C1003 C1002 1.370 . S
C1003 C1004 1.403 . S
C1004 C1003 1.403 . S
C1004 C1005 1.404 . S
C1004 C1007 1.539 . S
C1005 C1001 1.408 . S
C1005 C1004 1.404 . S
C1005 H1017 0.930 . S
C1006 C1002 1.524 . S
C1006 H1018 0.956 . S
C1006 H1019 0.961 . S
C1006 H1020 0.961 . S
C1007 C1004 1.539 . S
C1007 H1021 0.958 . S
C1007 H1022 0.961 . S
C1007 H1023 0.960 . S
H1008 C992 0.931 . S
H1009 C997 0.929 . S
H1010 C998 0.960 . S
H1011 C998 0.962 . S
H1012 C998 0.960 . S
H1013 C999 0.961 . S
H1014 C999 0.961 . S
H1015 C999 0.961 . S
H1016 C1000 0.931 . S
H1017 C1005 0.930 . S
H1018 C1006 0.956 . S
H1019 C1006 0.961 . S
H1020 C1006 0.961 . S
H1021 C1007 0.958 . S
H1022 C1007 0.961 . S
H1023 C1007 0.960 . S
C1024 C1025 1.391 . S
C1024 C1026 1.394 . S
C1024 H1040 0.931 . S
C1025 C1024 1.391 . S
C1025 C1029 1.376 . S
C1026 C1024 1.394 . S
C1026 C1027 1.369 . S
C1026 C1030 1.531 . S
C1027 C1026 1.369 . S
C1027 C1028 1.410 . S
C1027 C1035 1.503 . S
C1028 C1027 1.410 . S
C1028 C1029 1.392 . S
C1028 C1031 1.511 . S
C1029 C1025 1.376 . S
C1029 C1028 1.392 . S
C1029 H1041 0.929 . S
C1030 C1026 1.531 . S
C1030 H1042 0.960 . S
C1030 H1043 0.962 . S
C1030 H1044 0.960 . S
C1031 C1028 1.511 . S
C1031 H1045 0.961 . S
C1031 H1046 0.961 . S
C1031 H1047 0.961 . S
C1032 C1033 1.370 . S
C1032 C1034 1.363 . S
C1032 H1048 0.931 . S
C1033 C1032 1.370 . S
C1033 C1037 1.408 . S
C1034 C1032 1.363 . S
C1034 C1035 1.370 . S
C1034 C1038 1.524 . S
C1035 C1027 1.503 . S
C1035 C1034 1.370 . S
C1035 C1036 1.403 . S
C1036 C1035 1.403 . S
C1036 C1037 1.404 . S
C1036 C1039 1.539 . S
C1037 C1033 1.408 . S
C1037 C1036 1.404 . S
C1037 H1049 0.930 . S
C1038 C1034 1.524 . S
C1038 H1050 0.956 . S
C1038 H1051 0.961 . S
C1038 H1052 0.961 . S
C1039 C1036 1.539 . S
C1039 H1053 0.958 . S
C1039 H1054 0.961 . S
C1039 H1055 0.960 . S
H1040 C1024 0.931 . S
H1041 C1029 0.929 . S
H1042 C1030 0.960 . S
H1043 C1030 0.962 . S
H1044 C1030 0.960 . S
H1045 C1031 0.961 . S
H1046 C1031 0.961 . S
H1047 C1031 0.961 . S
H1048 C1032 0.931 . S
H1049 C1037 0.930 . S
H1050 C1038 0.956 . S
H1051 C1038 0.961 . S
H1052 C1038 0.961 . S
H1053 C1039 0.958 . S
H1054 C1039 0.961 . S
H1055 C1039 0.960 . S
C1056 C1057 1.391 . S
C1056 C1058 1.394 . S
C1056 H1072 0.931 . S
C1057 C1056 1.391 . S
C1057 C1061 1.376 . S
C1058 C1056 1.394 . S
C1058 C1059 1.369 . S
C1058 C1062 1.531 1_565 S
C1059 C1058 1.369 . S
C1059 C1060 1.410 . S
C1059 C1067 1.503 1_566 S
C1060 C1059 1.410 . S
C1060 C1061 1.392 . S
C1060 C1063 1.511 1_556 S
C1061 C1057 1.376 . S
C1061 C1060 1.392 . S
C1061 H1073 0.929 . S
C1062 C1058 1.531 1_545 S
C1062 H1074 0.960 . S
C1062 H1075 0.962 . S
C1062 H1076 0.960 . S
C1063 C1060 1.511 1_554 S
C1063 H1077 0.961 . S
C1063 H1078 0.961 . S
C1063 H1079 0.950 1_554 S
C1064 C1065 1.370 . S
C1064 C1066 1.363 . S
C1064 H1080 0.931 . S
C1065 C1064 1.370 . S
C1065 C1069 1.408 . S
C1066 C1064 1.363 . S
C1066 C1067 1.370 . S
C1066 C1070 1.524 1_545 S
C1067 C1059 1.503 1_544 S
C1067 C1066 1.370 . S
C1067 C1068 1.403 1_554 S
C1068 C1067 1.403 1_556 S
C1068 C1069 1.404 1_556 S
C1068 C1071 1.539 . S
C1069 C1065 1.408 . S
C1069 C1068 1.404 1_554 S
C1069 H1081 0.930 . S
C1070 C1066 1.524 1_565 S
C1070 H1082 0.956 . S
C1070 H1083 0.961 . S
C1070 H1084 0.961 . S
C1071 C1068 1.539 . S
C1071 H1085 0.958 . S
C1071 H1086 0.961 . S
C1071 H1087 0.960 . S
H1072 C1056 0.931 . S
H1073 C1061 0.929 . S
H1074 C1062 0.960 . S
H1075 C1062 0.962 . S
H1076 C1062 0.960 . S
H1077 C1063 0.961 . S
H1078 C1063 0.961 . S
H1079 C1063 0.950 1_556 S
H1080 C1064 0.931 . S
H1081 C1069 0.930 . S
H1082 C1070 0.956 . S
H1083 C1070 0.961 . S
H1084 C1070 0.961 . S
H1085 C1071 0.958 . S
H1086 C1071 0.961 . S
H1087 C1071 0.960 . S
C1088 C1089 1.391 . S
C1088 C1090 1.394 . S
C1088 H1104 0.931 . S
C1089 C1088 1.391 . S
C1089 C1093 1.376 . S
C1090 C1088 1.394 . S
C1090 C1091 1.369 . S
C1090 C1094 1.531 . S
C1091 C1090 1.369 . S
C1091 C1092 1.410 . S
C1091 C1099 1.503 . S
C1092 C1091 1.410 . S
C1092 C1093 1.392 . S
C1092 C1095 1.511 . S
C1093 C1089 1.376 . S
C1093 C1092 1.392 . S
C1093 H1105 0.929 . S
C1094 C1090 1.531 . S
C1094 H1106 0.960 . S
C1094 H1107 0.962 . S
C1094 H1108 0.960 . S
C1095 C1092 1.511 . S
C1095 H1109 0.961 . S
C1095 H1110 0.961 . S
C1095 H1111 0.961 . S
C1096 C1097 1.370 . S
C1096 C1098 1.363 . S
C1096 H1112 0.931 . S
C1097 C1096 1.370 . S
C1097 C1101 1.408 . S
C1098 C1096 1.363 . S
C1098 C1099 1.370 . S
C1098 C1102 1.524 . S
C1099 C1091 1.503 . S
C1099 C1098 1.370 . S
C1099 C1100 1.403 . S
C1100 C1099 1.403 . S
C1100 C1101 1.404 . S
C1100 C1103 1.539 . S
C1101 C1097 1.408 . S
C1101 C1100 1.404 . S
C1101 H1113 0.930 . S
C1102 C1098 1.524 . S
C1102 H1114 0.956 . S
C1102 H1115 0.961 . S
C1102 H1116 0.961 . S
C1103 C1100 1.539 . S
C1103 H1117 0.958 . S
C1103 H1118 0.961 . S
C1103 H1119 0.960 . S
H1104 C1088 0.931 . S
H1105 C1093 0.929 . S
H1106 C1094 0.960 . S
H1107 C1094 0.962 . S
H1108 C1094 0.960 . S
H1109 C1095 0.961 . S
H1110 C1095 0.961 . S
H1111 C1095 0.961 . S
H1112 C1096 0.931 . S
H1113 C1101 0.930 . S
H1114 C1102 0.956 . S
H1115 C1102 0.961 . S
H1116 C1102 0.961 . S
H1117 C1103 0.958 . S
H1118 C1103 0.961 . S
H1119 C1103 0.960 . S
C1120 C1121 1.391 . S
C1120 C1122 1.394 . S
C1120 H1136 0.931 . S
C1121 C1120 1.391 . S
C1121 C1125 1.376 . S
C1122 C1120 1.394 . S
C1122 C1123 1.369 . S
C1122 C1126 1.531 1_556 S
C1123 C1122 1.369 . S
C1123 C1124 1.410 . S
C1123 C1131 1.503 1_456 S
C1124 C1123 1.410 . S
C1124 C1125 1.392 . S
C1124 C1127 1.511 1_455 S
C1125 C1121 1.376 . S
C1125 C1124 1.392 . S
C1125 H1137 0.929 . S
C1126 C1122 1.531 1_554 S
C1126 H1138 0.960 . S
C1126 H1139 0.962 . S
C1126 H1140 0.960 . S
C1127 C1124 1.511 1_655 S
C1127 H1141 0.961 . S
C1127 H1142 0.961 . S
C1127 H1143 0.961 . S
C1128 C1129 1.370 . S
C1128 C1130 1.363 . S
C1128 H1144 0.931 . S
C1129 C1128 1.370 . S
C1129 C1133 1.408 . S
C1130 C1128 1.363 . S
C1130 C1131 1.370 . S
C1130 C1134 1.524 1_655 S
C1131 C1123 1.503 1_654 S
C1131 C1130 1.370 . S
C1131 C1132 1.403 . S
C1132 C1131 1.403 . S
C1132 C1133 1.404 . S
C1132 C1135 1.539 1_554 S
C1133 C1129 1.408 . S
C1133 C1132 1.404 . S
C1133 H1145 0.930 . S
C1134 C1130 1.524 1_455 S
C1134 H1146 0.956 . S
C1134 H1147 0.961 . S
C1134 H1148 0.961 1_455 S
C1135 C1132 1.539 1_556 S
C1135 H1149 0.958 . S
C1135 H1150 0.961 . S
C1135 H1151 0.960 . S
H1136 C1120 0.931 . S
H1137 C1125 0.929 . S
H1138 C1126 0.960 . S
H1139 C1126 0.962 . S
H1140 C1126 0.960 . S
H1141 C1127 0.961 . S
H1142 C1127 0.961 . S
H1143 C1127 0.961 . S
H1144 C1128 0.931 . S
H1145 C1133 0.930 . S
H1146 C1134 0.956 . S
H1147 C1134 0.961 . S
H1148 C1134 0.961 1_655 S
H1149 C1135 0.958 . S
H1150 C1135 0.961 . S
H1151 C1135 0.960 . S
C1152 C1153 1.391 . S
C1152 C1154 1.394 . S
C1152 H1168 0.931 . S
C1153 C1152 1.391 . S
C1153 C1157 1.376 . S
C1154 C1152 1.394 . S
C1154 C1155 1.369 . S
C1154 C1158 1.531 1_545 S
C1155 C1154 1.369 . S
C1155 C1156 1.410 . S
C1155 C1163 1.503 1_545 S
C1156 C1155 1.410 . S
C1156 C1157 1.392 . S
C1156 C1159 1.511 . S
C1157 C1153 1.376 . S
C1157 C1156 1.392 . S
C1157 H1169 0.929 . S
C1158 C1154 1.531 1_565 S
C1158 H1170 0.960 . S
C1158 H1171 0.962 . S
C1158 H1172 0.960 . S
C1159 C1156 1.511 . S
C1159 H1173 0.961 . S
C1159 H1174 0.961 . S
C1159 H1175 0.961 . S
C1160 C1161 1.370 . S
C1160 C1162 1.363 . S
C1160 H1176 0.931 . S
C1161 C1160 1.370 . S
C1161 C1165 1.408 . S
C1162 C1160 1.363 . S
C1162 C1163 1.370 . S
C1162 C1166 1.524 1_565 S
C1163 C1155 1.503 1_565 S
C1163 C1162 1.370 . S
C1163 C1164 1.403 . S
C1164 C1163 1.403 . S
C1164 C1165 1.404 . S
C1164 C1167 1.539 . S
C1165 C1161 1.408 . S
C1165 C1164 1.404 . S
C1165 H1177 0.930 . S
C1166 C1162 1.524 1_545 S
C1166 H1178 0.956 . S
C1166 H1179 0.961 . S
C1166 H1180 0.961 . S
C1167 C1164 1.539 . S
C1167 H1181 0.958 . S
C1167 H1182 0.961 . S
C1167 H1183 0.960 . S
H1168 C1152 0.931 . S
H1169 C1157 0.929 . S
H1170 C1158 0.960 . S
H1171 C1158 0.962 . S
H1172 C1158 0.960 . S
H1173 C1159 0.961 . S
H1174 C1159 0.961 . S
H1175 C1159 0.961 . S
H1176 C1160 0.931 . S
H1177 C1165 0.930 . S
H1178 C1166 0.956 . S
H1179 C1166 0.961 . S
H1180 C1166 0.961 . S
H1181 C1167 0.958 . S
H1182 C1167 0.961 . S
H1183 C1167 0.960 . S
C1184 C1185 1.391 . S
C1184 C1186 1.394 . S
C1184 H1200 0.931 . S
C1185 C1184 1.391 . S
C1185 C1189 1.376 . S
C1186 C1184 1.394 . S
C1186 C1187 1.369 . S
C1186 C1190 1.531 . S
C1187 C1186 1.369 . S
C1187 C1188 1.410 . S
C1187 C1195 1.503 1_554 S
C1188 C1187 1.410 . S
C1188 C1189 1.392 . S
C1188 C1191 1.511 1_554 S
C1189 C1185 1.376 . S
C1189 C1188 1.392 . S
C1189 H1201 0.929 . S
C1190 C1186 1.531 . S
C1190 H1202 0.960 1_554 S
C1190 H1203 0.962 . S
C1190 H1204 0.960 . S
C1191 C1188 1.511 1_556 S
C1191 H1205 0.961 1_556 S
C1191 H1206 0.961 . S
C1191 H1207 0.961 . S
C1192 C1193 1.370 . S
C1192 C1194 1.358 1_556 S
C1192 H1208 0.931 . S
C1193 C1192 1.370 . S
C1193 C1197 1.408 . S
C1194 C1192 1.358 1_554 S
C1194 C1195 1.366 1_554 S
C1194 C1198 1.533 . S
C1195 C1187 1.503 1_556 S
C1195 C1194 1.366 1_556 S
C1195 C1196 1.403 . S
C1196 C1195 1.403 . S
C1196 C1197 1.404 . S
C1196 C1199 1.539 . S
C1197 C1193 1.408 . S
C1197 C1196 1.404 . S
C1197 H1209 0.930 . S
C1198 C1194 1.533 . S
C1198 H1210 0.956 . S
C1198 H1211 0.961 . S
C1198 H1212 0.961 . S
C1199 C1196 1.539 . S
C1199 H1213 0.958 . S
C1199 H1214 0.961 . S
C1199 H1215 0.960 . S
H1200 C1184 0.931 . S
H1201 C1189 0.929 . S
H1202 C1190 0.960 1_556 S
H1203 C1190 0.962 . S
H1204 C1190 0.960 . S
H1205 C1191 0.961 1_554 S
H1206 C1191 0.961 . S
H1207 C1191 0.961 . S
H1208 C1192 0.931 . S
H1209 C1197 0.930 . S
H1210 C1198 0.956 . S
H1211 C1198 0.961 . S
H1212 C1198 0.961 . S
H1213 C1199 0.958 . S
H1214 C1199 0.961 . S
H1215 C1199 0.960 . S
C1216 C1217 1.391 . S
C1216 C1218 1.394 . S
C1216 H1232 0.931 . S
C1217 C1216 1.391 . S
C1217 C1221 1.376 . S
C1218 C1216 1.394 . S
C1218 C1219 1.369 . S
C1218 C1222 1.531 . S
C1219 C1218 1.369 . S
C1219 C1220 1.410 . S
C1219 C1227 1.503 1_455 S
C1220 C1219 1.410 . S
C1220 C1221 1.392 . S
C1220 C1223 1.511 . S
C1221 C1217 1.376 . S
C1221 C1220 1.392 . S
C1221 H1233 0.929 . S
C1222 C1218 1.531 . S
C1222 H1234 0.960 1_455 S
C1222 H1235 0.962 . S
C1222 H1236 0.960 . S
C1223 C1220 1.511 . S
C1223 H1237 0.961 . S
C1223 H1238 0.961 . S
C1223 H1239 0.937 1_455 S
C1224 C1225 1.370 . S
C1224 C1226 1.363 . S
C1224 H1240 0.931 . S
C1225 C1224 1.370 . S
C1225 C1229 1.408 . S
C1226 C1224 1.363 . S
C1226 C1227 1.370 . S
C1226 C1230 1.524 1_655 S
C1227 C1219 1.503 1_655 S
C1227 C1226 1.370 . S
C1227 C1228 1.403 . S
C1228 C1227 1.403 . S
C1228 C1229 1.404 . S
C1228 C1231 1.539 . S
C1229 C1225 1.408 . S
C1229 C1228 1.404 . S
C1229 H1241 0.930 . S
C1230 C1226 1.524 1_455 S
C1230 H1242 0.956 . S
C1230 H1243 0.961 . S
C1230 H1244 0.961 . S
C1231 C1228 1.539 . S
C1231 H1245 0.958 . S
C1231 H1246 0.961 . S
C1231 H1247 0.960 . S
H1232 C1216 0.931 . S
H1233 C1221 0.929 . S
H1234 C1222 0.960 1_655 S
H1235 C1222 0.962 . S
H1236 C1222 0.960 . S
H1237 C1223 0.961 . S
H1238 C1223 0.961 . S
H1239 C1223 0.937 1_655 S
H1240 C1224 0.931 . S
H1241 C1229 0.930 . S
H1242 C1230 0.956 . S
H1243 C1230 0.961 . S
H1244 C1230 0.961 . S
H1245 C1231 0.958 . S
H1246 C1231 0.961 . S
H1247 C1231 0.960 . S
C1248 C1249 1.391 . S
C1248 C1250 1.394 . S
C1248 H1264 0.931 . S
C1249 C1248 1.391 . S
C1249 C1253 1.376 . S
C1250 C1248 1.394 . S
C1250 C1251 1.369 . S
C1250 C1254 1.531 . S
C1251 C1250 1.369 . S
C1251 C1252 1.410 . S
C1251 C1259 1.503 . S
C1252 C1251 1.410 . S
C1252 C1253 1.392 . S
C1252 C1255 1.511 . S
C1253 C1249 1.376 . S
C1253 C1252 1.392 . S
C1253 H1265 0.929 . S
C1254 C1250 1.531 . S
C1254 H1266 0.960 . S
C1254 H1267 0.962 . S
C1254 H1268 0.960 . S
C1255 C1252 1.511 . S
C1255 H1269 0.961 . S
C1255 H1270 0.961 . S
C1255 H1271 0.961 . S
C1256 C1257 1.370 . S
C1256 C1258 1.363 . S
C1256 H1272 0.931 . S
C1257 C1256 1.370 . S
C1257 C1261 1.408 . S
C1258 C1256 1.363 . S
C1258 C1259 1.370 . S
C1258 C1262 1.524 . S
C1259 C1251 1.503 . S
C1259 C1258 1.370 . S
C1259 C1260 1.403 . S
C1260 C1259 1.403 . S
C1260 C1261 1.404 . S
C1260 C1263 1.539 . S
C1261 C1257 1.408 . S
C1261 C1260 1.404 . S
C1261 H1273 0.930 . S
C1262 C1258 1.524 . S
C1262 H1274 0.956 . S
C1262 H1275 0.961 . S
C1262 H1276 0.961 . S
C1263 C1260 1.539 . S
C1263 H1277 0.958 . S
C1263 H1278 0.961 . S
C1263 H1279 0.960 . S
H1264 C1248 0.931 . S
H1265 C1253 0.929 . S
H1266 C1254 0.960 . S
H1267 C1254 0.962 . S
H1268 C1254 0.960 . S
H1269 C1255 0.961 . S
H1270 C1255 0.961 . S
H1271 C1255 0.961 . S
H1272 C1256 0.931 . S
H1273 C1261 0.930 . S
H1274 C1262 0.956 . S
H1275 C1262 0.961 . S
H1276 C1262 0.961 . S
H1277 C1263 0.958 . S
H1278 C1263 0.961 . S
H1279 C1263 0.960 . S
C1280 C1281 1.391 . S
C1280 C1282 1.394 . S
C1280 H1296 0.931 . S
C1281 C1280 1.391 . S
C1281 C1285 1.376 . S
C1282 C1280 1.394 . S
C1282 C1283 1.369 . S
C1282 C1286 1.531 . S
C1283 C1282 1.369 . S
C1283 C1284 1.410 . S
C1283 C1291 1.503 . S
C1284 C1283 1.410 . S
C1284 C1285 1.392 . S
C1284 C1287 1.511 . S
C1285 C1281 1.376 . S
C1285 C1284 1.392 . S
C1285 H1297 0.929 . S
C1286 C1282 1.531 . S
C1286 H1298 0.960 . S
C1286 H1299 0.962 . S
C1286 H1300 0.960 . S
C1287 C1284 1.511 . S
C1287 H1301 0.961 . S
C1287 H1302 0.961 . S
C1287 H1303 0.961 . S
C1288 C1289 1.370 . S
C1288 C1290 1.363 . S
C1288 H1304 0.931 . S
C1289 C1288 1.370 . S
C1289 C1293 1.408 . S
C1290 C1288 1.363 . S
C1290 C1291 1.370 . S
C1290 C1294 1.524 . S
C1291 C1283 1.503 . S
C1291 C1290 1.370 . S
C1291 C1292 1.403 . S
C1292 C1291 1.403 . S
C1292 C1293 1.404 . S
C1292 C1295 1.539 . S
C1293 C1289 1.408 . S
C1293 C1292 1.404 . S
C1293 H1305 0.930 . S
C1294 C1290 1.524 . S
C1294 H1306 0.956 . S
C1294 H1307 0.961 . S
C1294 H1308 0.961 . S
C1295 C1292 1.539 . S
C1295 H1309 0.958 . S
C1295 H1310 0.961 . S
C1295 H1311 0.960 . S
H1296 C1280 0.931 . S
H1297 C1285 0.929 . S
H1298 C1286 0.960 . S
H1299 C1286 0.962 . S
H1300 C1286 0.960 . S
H1301 C1287 0.961 . S
H1302 C1287 0.961 . S
H1303 C1287 0.961 . S
H1304 C1288 0.931 . S
H1305 C1293 0.930 . S
H1306 C1294 0.956 . S
H1307 C1294 0.961 . S
H1308 C1294 0.961 . S
H1309 C1295 0.958 . S
H1310 C1295 0.961 . S
H1311 C1295 0.960 . S
C1312 C1313 1.391 . S
C1312 C1314 1.394 . S
C1312 H1328 0.931 . S
C1313 C1312 1.391 . S
C1313 C1317 1.376 . S
C1314 C1312 1.394 . S
C1314 C1315 1.369 . S
C1314 C1318 1.531 . S
C1315 C1314 1.369 . S
C1315 C1316 1.410 . S
C1315 C1323 1.503 . S
C1316 C1315 1.410 . S
C1316 C1317 1.392 . S
C1316 C1319 1.511 . S
C1317 C1313 1.376 . S
C1317 C1316 1.392 . S
C1317 H1329 0.929 . S
C1318 C1314 1.531 . S
C1318 H1330 0.960 . S
C1318 H1331 0.962 . S
C1318 H1332 0.960 . S
C1319 C1316 1.511 . S
C1319 H1333 0.961 . S
C1319 H1334 0.961 . S
C1319 H1335 0.961 . S
C1320 C1321 1.370 . S
C1320 C1322 1.363 . S
C1320 H1336 0.931 . S
C1321 C1320 1.370 . S
C1321 C1325 1.408 . S
C1322 C1320 1.363 . S
C1322 C1323 1.370 . S
C1322 C1326 1.524 . S
C1323 C1315 1.503 . S
C1323 C1322 1.370 . S
C1323 C1324 1.403 . S
C1324 C1323 1.403 . S
C1324 C1325 1.404 . S
C1324 C1327 1.539 . S
C1325 C1321 1.408 . S
C1325 C1324 1.404 . S
C1325 H1337 0.930 . S
C1326 C1322 1.524 . S
C1326 H1338 0.956 . S
C1326 H1339 0.961 . S
C1326 H1340 0.961 . S
C1327 C1324 1.539 . S
C1327 H1341 0.958 . S
C1327 H1342 0.961 . S
C1327 H1343 0.960 . S
H1328 C1312 0.931 . S
H1329 C1317 0.929 . S
H1330 C1318 0.960 . S
H1331 C1318 0.962 . S
H1332 C1318 0.960 . S
H1333 C1319 0.961 . S
H1334 C1319 0.961 . S
H1335 C1319 0.961 . S
H1336 C1320 0.931 . S
H1337 C1325 0.930 . S
H1338 C1326 0.956 . S
H1339 C1326 0.961 . S
H1340 C1326 0.961 . S
H1341 C1327 0.958 . S
H1342 C1327 0.961 . S
H1343 C1327 0.960 . S
C1344 C1345 1.391 . S
C1344 C1346 1.394 . S
C1344 H1360 0.931 . S
C1345 C1344 1.391 . S
C1345 C1349 1.376 . S
C1346 C1344 1.394 . S
C1346 C1347 1.369 . S
C1346 C1350 1.531 . S
C1347 C1346 1.369 . S
C1347 C1348 1.410 . S
C1347 C1355 1.503 . S
C1348 C1347 1.410 . S
C1348 C1349 1.392 . S
C1348 C1351 1.511 . S
C1349 C1345 1.376 . S
C1349 C1348 1.392 . S
C1349 H1361 0.929 . S
C1350 C1346 1.531 . S
C1350 H1362 0.960 . S
C1350 H1363 0.962 . S
C1350 H1364 0.960 . S
C1351 C1348 1.511 . S
C1351 H1365 0.961 . S
C1351 H1366 0.961 . S
C1351 H1367 0.961 . S
C1352 C1353 1.370 . S
C1352 C1354 1.363 . S
C1352 H1368 0.931 . S
C1353 C1352 1.370 . S
C1353 C1357 1.408 . S
C1354 C1352 1.363 . S
C1354 C1355 1.370 . S
C1354 C1358 1.524 . S
C1355 C1347 1.503 . S
C1355 C1354 1.370 . S
C1355 C1356 1.403 . S
C1356 C1355 1.403 . S
C1356 C1357 1.404 . S
C1356 C1359 1.539 . S
C1357 C1353 1.408 . S
C1357 C1356 1.404 . S
C1357 H1369 0.930 . S
C1358 C1354 1.524 . S
C1358 H1370 0.956 . S
C1358 H1371 0.961 . S
C1358 H1372 0.961 . S
C1359 C1356 1.539 . S
C1359 H1373 0.958 . S
C1359 H1374 0.961 . S
C1359 H1375 0.960 . S
H1360 C1344 0.931 . S
H1361 C1349 0.929 . S
H1362 C1350 0.960 . S
H1363 C1350 0.962 . S
H1364 C1350 0.960 . S
H1365 C1351 0.961 . S
H1366 C1351 0.961 . S
H1367 C1351 0.961 . S
H1368 C1352 0.931 . S
H1369 C1357 0.930 . S
H1370 C1358 0.956 . S
H1371 C1358 0.961 . S
H1372 C1358 0.961 . S
H1373 C1359 0.958 . S
H1374 C1359 0.961 . S
H1375 C1359 0.960 . S
C1376 C1377 1.391 . S
C1376 C1378 1.394 . S
C1376 H1392 0.931 . S
C1377 C1376 1.391 . S
C1377 C1381 1.376 . S
C1378 C1376 1.394 . S
C1378 C1379 1.369 . S
C1378 C1382 1.531 . S
C1379 C1378 1.369 . S
C1379 C1380 1.410 . S
C1379 C1387 1.503 . S
C1380 C1379 1.410 . S
C1380 C1381 1.392 . S
C1380 C1383 1.511 . S
C1381 C1377 1.376 . S
C1381 C1380 1.392 . S
C1381 H1393 0.929 . S
C1382 C1378 1.531 . S
C1382 H1394 0.960 . S
C1382 H1395 0.962 . S
C1382 H1396 0.960 . S
C1383 C1380 1.511 . S
C1383 H1397 0.961 . S
C1383 H1398 0.961 . S
C1383 H1399 0.961 . S
C1384 C1385 1.370 . S
C1384 C1386 1.363 . S
C1384 H1400 0.931 . S
C1385 C1384 1.370 . S
C1385 C1389 1.408 . S
C1386 C1384 1.363 . S
C1386 C1387 1.370 . S
C1386 C1390 1.524 . S
C1387 C1379 1.503 . S
C1387 C1386 1.370 . S
C1387 C1388 1.403 . S
C1388 C1387 1.403 . S
C1388 C1389 1.404 . S
C1388 C1391 1.539 . S
C1389 C1385 1.408 . S
C1389 C1388 1.404 . S
C1389 H1401 0.930 . S
C1390 C1386 1.524 . S
C1390 H1402 0.956 . S
C1390 H1403 0.961 . S
C1390 H1404 0.961 . S
C1391 C1388 1.539 . S
C1391 H1405 0.958 . S
C1391 H1406 0.961 . S
C1391 H1407 0.960 . S
H1392 C1376 0.931 . S
H1393 C1381 0.929 . S
H1394 C1382 0.960 . S
H1395 C1382 0.962 . S
H1396 C1382 0.960 . S
H1397 C1383 0.961 . S
H1398 C1383 0.961 . S
H1399 C1383 0.961 . S
H1400 C1384 0.931 . S
H1401 C1389 0.930 . S
H1402 C1390 0.956 . S
H1403 C1390 0.961 . S
H1404 C1390 0.961 . S
H1405 C1391 0.958 . S
H1406 C1391 0.961 . S
H1407 C1391 0.960 . S
C1408 C1409 1.391 . S
C1408 C1410 1.394 . S
C1408 H1424 0.931 . S
C1409 C1408 1.391 . S
C1409 C1413 1.376 . S
C1410 C1408 1.394 . S
C1410 C1411 1.369 . S
C1410 C1414 1.531 . S
C1411 C1410 1.369 . S
C1411 C1412 1.410 . S
C1411 C1419 1.503 . S
C1412 C1411 1.410 . S
C1412 C1413 1.392 . S
C1412 C1415 1.511 . S
C1413 C1409 1.376 . S
C1413 C1412 1.392 . S
C1413 H1425 0.929 . S
C1414 C1410 1.531 . S
C1414 H1426 0.960 . S
C1414 H1427 0.962 . S
C1414 H1428 0.960 . S
C1415 C1412 1.511 . S
C1415 H1429 0.961 . S
C1415 H1430 0.961 . S
C1415 H1431 0.961 . S
C1416 C1417 1.370 . S
C1416 C1418 1.363 . S
C1416 H1432 0.931 . S
C1417 C1416 1.370 . S
C1417 C1421 1.408 . S
C1418 C1416 1.363 . S
C1418 C1419 1.370 . S
C1418 C1422 1.524 . S
C1419 C1411 1.503 . S
C1419 C1418 1.370 . S
C1419 C1420 1.403 . S
C1420 C1419 1.403 . S
C1420 C1421 1.404 . S
C1420 C1423 1.539 . S
C1421 C1417 1.408 . S
C1421 C1420 1.404 . S
C1421 H1433 0.930 . S
C1422 C1418 1.524 . S
C1422 H1434 0.956 . S
C1422 H1435 0.961 . S
C1422 H1436 0.961 . S
C1423 C1420 1.539 . S
C1423 H1437 0.958 . S
C1423 H1438 0.961 . S
C1423 H1439 0.960 . S
H1424 C1408 0.931 . S
H1425 C1413 0.929 . S
H1426 C1414 0.960 . S
H1427 C1414 0.962 . S
H1428 C1414 0.960 . S
H1429 C1415 0.961 . S
H1430 C1415 0.961 . S
H1431 C1415 0.961 . S
H1432 C1416 0.931 . S
H1433 C1421 0.930 . S
H1434 C1422 0.956 . S
H1435 C1422 0.961 . S
H1436 C1422 0.961 . S
H1437 C1423 0.958 . S
H1438 C1423 0.961 . S
H1439 C1423 0.960 . S
C1440 C1441 1.391 . S
C1440 C1442 1.394 . S
C1440 H1456 0.931 . S
C1441 C1440 1.391 . S
C1441 C1445 1.376 . S
C1442 C1440 1.394 . S
C1442 C1443 1.369 . S
C1442 C1446 1.531 . S
C1443 C1442 1.369 . S
C1443 C1444 1.410 . S
C1443 C1451 1.503 . S
C1444 C1443 1.410 . S
C1444 C1445 1.392 . S
C1444 C1447 1.511 . S
C1445 C1441 1.376 . S
C1445 C1444 1.392 . S
C1445 H1457 0.929 . S
C1446 C1442 1.531 . S
C1446 H1458 0.960 . S
C1446 H1459 0.962 . S
C1446 H1460 0.960 . S
C1447 C1444 1.511 . S
C1447 H1461 0.961 . S
C1447 H1462 0.961 . S
C1447 H1463 0.961 . S
C1448 C1449 1.370 . S
C1448 C1450 1.363 . S
C1448 H1464 0.931 . S
C1449 C1448 1.370 . S
C1449 C1453 1.408 . S
C1450 C1448 1.363 . S
C1450 C1451 1.370 . S
C1450 C1454 1.524 . S
C1451 C1443 1.503 . S
C1451 C1450 1.370 . S
C1451 C1452 1.403 . S
C1452 C1451 1.403 . S
C1452 C1453 1.404 . S
C1452 C1455 1.539 . S
C1453 C1449 1.408 . S
C1453 C1452 1.404 . S
C1453 H1465 0.930 . S
C1454 C1450 1.524 . S
C1454 H1466 0.956 . S
C1454 H1467 0.961 . S
C1454 H1468 0.961 . S
C1455 C1452 1.539 . S
C1455 H1469 0.958 . S
C1455 H1470 0.961 . S
C1455 H1471 0.960 . S
H1456 C1440 0.931 . S
H1457 C1445 0.929 . S
H1458 C1446 0.960 . S
H1459 C1446 0.962 . S
H1460 C1446 0.960 . S
H1461 C1447 0.961 . S
H1462 C1447 0.961 . S
H1463 C1447 0.961 . S
H1464 C1448 0.931 . S
H1465 C1453 0.930 . S
H1466 C1454 0.956 . S
H1467 C1454 0.961 . S
H1468 C1454 0.961 . S
H1469 C1455 0.958 . S
H1470 C1455 0.961 . S
H1471 C1455 0.960 . S
C1472 C1473 1.391 . S
C1472 C1474 1.394 . S
C1472 H1488 0.931 . S
C1473 C1472 1.391 . S
C1473 C1477 1.376 . S
C1474 C1472 1.394 . S
C1474 C1475 1.369 . S
C1474 C1478 1.531 . S
C1475 C1474 1.369 . S
C1475 C1476 1.410 . S
C1475 C1483 1.503 . S
C1476 C1475 1.410 . S
C1476 C1477 1.392 . S
C1476 C1479 1.511 . S
C1477 C1473 1.376 . S
C1477 C1476 1.392 . S
C1477 H1489 0.929 . S
C1478 C1474 1.531 . S
C1478 H1490 0.960 . S
C1478 H1491 0.962 . S
C1478 H1492 0.960 . S
C1479 C1476 1.511 . S
C1479 H1493 0.961 . S
C1479 H1494 0.961 . S
C1479 H1495 0.961 . S
C1480 C1481 1.370 . S
C1480 C1482 1.363 . S
C1480 H1496 0.931 . S
C1481 C1480 1.370 . S
C1481 C1485 1.408 . S
C1482 C1480 1.363 . S
C1482 C1483 1.370 . S
C1482 C1486 1.524 . S
C1483 C1475 1.503 . S
C1483 C1482 1.370 . S
C1483 C1484 1.403 . S
C1484 C1483 1.403 . S
C1484 C1485 1.404 . S
C1484 C1487 1.539 . S
C1485 C1481 1.408 . S
C1485 C1484 1.404 . S
C1485 H1497 0.930 . S
C1486 C1482 1.524 . S
C1486 H1498 0.956 . S
C1486 H1499 0.961 . S
C1486 H1500 0.961 . S
C1487 C1484 1.539 . S
C1487 H1501 0.958 . S
C1487 H1502 0.961 . S
C1487 H1503 0.960 . S
H1488 C1472 0.931 . S
H1489 C1477 0.929 . S
H1490 C1478 0.960 . S
H1491 C1478 0.962 . S
H1492 C1478 0.960 . S
H1493 C1479 0.961 . S
H1494 C1479 0.961 . S
H1495 C1479 0.961 . S
H1496 C1480 0.931 . S
H1497 C1485 0.930 . S
H1498 C1486 0.956 . S
H1499 C1486 0.961 . S
H1500 C1486 0.961 . S
H1501 C1487 0.958 . S
H1502 C1487 0.961 . S
H1503 C1487 0.960 . S
C1504 C1505 1.391 . S
C1504 C1506 1.394 . S
C1504 H1520 0.931 . S
C1505 C1504 1.391 . S
C1505 C1509 1.376 . S
C1506 C1504 1.394 . S
C1506 C1507 1.369 . S
C1506 C1510 1.531 . S
C1507 C1506 1.369 . S
C1507 C1508 1.410 . S
C1507 C1515 1.503 . S
C1508 C1507 1.410 . S
C1508 C1509 1.392 . S
C1508 C1511 1.511 . S
C1509 C1505 1.376 . S
C1509 C1508 1.392 . S
C1509 H1521 0.929 . S
C1510 C1506 1.531 . S
C1510 H1522 0.960 . S
C1510 H1523 0.962 . S
C1510 H1524 0.960 . S
C1511 C1508 1.511 . S
C1511 H1525 0.961 . S
C1511 H1526 0.961 . S
C1511 H1527 0.961 . S
C1512 C1513 1.370 . S
C1512 C1514 1.363 . S
C1512 H1528 0.931 . S
C1513 C1512 1.370 . S
C1513 C1517 1.408 . S
C1514 C1512 1.363 . S
C1514 C1515 1.370 . S
C1514 C1518 1.524 . S
C1515 C1507 1.503 . S
C1515 C1514 1.370 . S
C1515 C1516 1.403 . S
C1516 C1515 1.403 . S
C1516 C1517 1.404 . S
C1516 C1519 1.539 . S
C1517 C1513 1.408 . S
C1517 C1516 1.404 . S
C1517 H1529 0.930 . S
C1518 C1514 1.524 . S
C1518 H1530 0.956 . S
C1518 H1531 0.961 . S
C1518 H1532 0.961 . S
C1519 C1516 1.539 . S
C1519 H1533 0.958 . S
C1519 H1534 0.961 . S
C1519 H1535 0.960 . S
H1520 C1504 0.931 . S
H1521 C1509 0.929 . S
H1522 C1510 0.960 . S
H1523 C1510 0.962 . S
H1524 C1510 0.960 . S
H1525 C1511 0.961 . S
H1526 C1511 0.961 . S
H1527 C1511 0.961 . S
H1528 C1512 0.931 . S
H1529 C1517 0.930 . S
H1530 C1518 0.956 . S
H1531 C1518 0.961 . S
H1532 C1518 0.961 . S
H1533 C1519 0.958 . S
H1534 C1519 0.961 . S
H1535 C1519 0.960 . S
C1536 C1537 1.391 . S
C1536 C1538 1.394 . S
C1536 H1552 0.931 . S
C1537 C1536 1.391 . S
C1537 C1541 1.376 . S
C1538 C1536 1.394 . S
C1538 C1539 1.369 . S
C1538 C1542 1.531 . S
C1539 C1538 1.369 . S
C1539 C1540 1.410 . S
C1539 C1547 1.503 . S
C1540 C1539 1.410 . S
C1540 C1541 1.392 . S
C1540 C1543 1.511 . S
C1541 C1537 1.376 . S
C1541 C1540 1.392 . S
C1541 H1553 0.929 . S
C1542 C1538 1.531 . S
C1542 H1554 0.960 . S
C1542 H1555 0.962 . S
C1542 H1556 0.960 . S
C1543 C1540 1.511 . S
C1543 H1557 0.961 . S
C1543 H1558 0.961 . S
C1543 H1559 0.961 . S
C1544 C1545 1.370 . S
C1544 C1546 1.363 . S
C1544 H1560 0.931 . S
C1545 C1544 1.370 . S
C1545 C1549 1.408 . S
C1546 C1544 1.363 . S
C1546 C1547 1.370 . S
C1546 C1550 1.524 . S
C1547 C1539 1.503 . S
C1547 C1546 1.370 . S
C1547 C1548 1.403 . S
C1548 C1547 1.403 . S
C1548 C1549 1.404 . S
C1548 C1551 1.539 . S
C1549 C1545 1.408 . S
C1549 C1548 1.404 . S
C1549 H1561 0.930 . S
C1550 C1546 1.524 . S
C1550 H1562 0.956 . S
C1550 H1563 0.961 . S
C1550 H1564 0.961 . S
C1551 C1548 1.539 . S
C1551 H1565 0.958 . S
C1551 H1566 0.961 . S
C1551 H1567 0.960 . S
H1552 C1536 0.931 . S
H1553 C1541 0.929 . S
H1554 C1542 0.960 . S
H1555 C1542 0.962 . S
H1556 C1542 0.960 . S
H1557 C1543 0.961 . S
H1558 C1543 0.961 . S
H1559 C1543 0.961 . S
H1560 C1544 0.931 . S
H1561 C1549 0.930 . S
H1562 C1550 0.956 . S
H1563 C1550 0.961 . S
H1564 C1550 0.961 . S
H1565 C1551 0.958 . S
H1566 C1551 0.961 . S
H1567 C1551 0.960 . S
C1568 C1569 1.391 . S
C1568 C1570 1.394 . S
C1568 H1584 0.931 . S
C1569 C1568 1.391 . S
C1569 C1573 1.376 . S
C1570 C1568 1.394 . S
C1570 C1571 1.369 . S
C1570 C1574 1.531 . S
C1571 C1570 1.369 . S
C1571 C1572 1.410 . S
C1571 C1579 1.503 . S
C1572 C1571 1.410 . S
C1572 C1573 1.392 . S
C1572 C1575 1.511 . S
C1573 C1569 1.376 . S
C1573 C1572 1.392 . S
C1573 H1585 0.929 . S
C1574 C1570 1.531 . S
C1574 H1586 0.960 . S
C1574 H1587 0.962 . S
C1574 H1588 0.960 . S
C1575 C1572 1.511 . S
C1575 H1589 0.961 . S
C1575 H1590 0.961 . S
C1575 H1591 0.961 . S
C1576 C1577 1.370 . S
C1576 C1578 1.363 . S
C1576 H1592 0.931 . S
C1577 C1576 1.370 . S
C1577 C1581 1.408 . S
C1578 C1576 1.363 . S
C1578 C1579 1.370 . S
C1578 C1582 1.524 . S
C1579 C1571 1.503 . S
C1579 C1578 1.370 . S
C1579 C1580 1.403 . S
C1580 C1579 1.403 . S
C1580 C1581 1.404 . S
C1580 C1583 1.539 . S
C1581 C1577 1.408 . S
C1581 C1580 1.404 . S
C1581 H1593 0.930 . S
C1582 C1578 1.524 . S
C1582 H1594 0.956 . S
C1582 H1595 0.961 . S
C1582 H1596 0.961 . S
C1583 C1580 1.539 . S
C1583 H1597 0.958 . S
C1583 H1598 0.961 . S
C1583 H1599 0.960 . S
H1584 C1568 0.931 . S
H1585 C1573 0.929 . S
H1586 C1574 0.960 . S
H1587 C1574 0.962 . S
H1588 C1574 0.960 . S
H1589 C1575 0.961 . S
H1590 C1575 0.961 . S
H1591 C1575 0.961 . S
H1592 C1576 0.931 . S
H1593 C1581 0.930 . S
H1594 C1582 0.956 . S
H1595 C1582 0.961 . S
H1596 C1582 0.961 . S
H1597 C1583 0.958 . S
H1598 C1583 0.961 . S
H1599 C1583 0.960 . S
C1600 C1601 1.391 . S
C1600 C1602 1.394 . S
C1600 H1616 0.931 . S
C1601 C1600 1.391 . S
C1601 C1605 1.376 . S
C1602 C1600 1.394 . S
C1602 C1603 1.369 . S
C1602 C1606 1.531 . S
C1603 C1602 1.369 . S
C1603 C1604 1.410 . S
C1603 C1611 1.503 . S
C1604 C1603 1.410 . S
C1604 C1605 1.392 . S
C1604 C1607 1.511 . S
C1605 C1601 1.376 . S
C1605 C1604 1.392 . S
C1605 H1617 0.929 . S
C1606 C1602 1.531 . S
C1606 H1618 0.960 . S
C1606 H1619 0.962 . S
C1606 H1620 0.960 . S
C1607 C1604 1.511 . S
C1607 H1621 0.961 . S
C1607 H1622 0.961 . S
C1607 H1623 0.961 . S
C1608 C1609 1.370 . S
C1608 C1610 1.363 . S
C1608 H1624 0.931 . S
C1609 C1608 1.370 . S
C1609 C1613 1.408 . S
C1610 C1608 1.363 . S
C1610 C1611 1.370 . S
C1610 C1614 1.524 . S
C1611 C1603 1.503 . S
C1611 C1610 1.370 . S
C1611 C1612 1.403 . S
C1612 C1611 1.403 . S
C1612 C1613 1.404 . S
C1612 C1615 1.539 . S
C1613 C1609 1.408 . S
C1613 C1612 1.404 . S
C1613 H1625 0.930 . S
C1614 C1610 1.524 . S
C1614 H1626 0.956 . S
C1614 H1627 0.961 . S
C1614 H1628 0.961 . S
C1615 C1612 1.539 . S
C1615 H1629 0.958 . S
C1615 H1630 0.961 . S
C1615 H1631 0.960 . S
H1616 C1600 0.931 . S
H1617 C1605 0.929 . S
H1618 C1606 0.960 . S
H1619 C1606 0.962 . S
H1620 C1606 0.960 . S
H1621 C1607 0.961 . S
H1622 C1607 0.961 . S
H1623 C1607 0.961 . S
H1624 C1608 0.931 . S
H1625 C1613 0.930 . S
H1626 C1614 0.956 . S
H1627 C1614 0.961 . S
H1628 C1614 0.961 . S
H1629 C1615 0.958 . S
H1630 C1615 0.961 . S
H1631 C1615 0.960 . S
C481 C84 1.223 . S
C489 C20 1.204 . S
C513 C145 1.185 . S
C521 C71 1.220 . S
C545 C100 1.234 . S
C553 C164 1.205 . S
C577 C151 1.223 . S
C585 C225 1.207 . S
C609 C4 1.199 . S
C617 C180 1.214 . S
C641 C65 1.239 . S
C649 C231 1.195 . S
C673 C425 1.190 . S
C681 C271 1.221 . S
C705 C300 1.225 . S
C713 C444 1.208 . S
C737 C351 1.208 . S
C745 C265 1.218 . S
C769 C380 1.200 . S
C777 C284 1.217 . S
C801 C431 1.212 . S
C809 C345 1.216 . S
C833 C364 1.205 . S
C841 C460 1.213 . S
C865 C143 1.768 . S
C873 C2 1.754 . S
C897 C63 1.769 . S
C905 C162 1.754 . S
C929 C82 1.729 . S
C937 C223 1.736 . S
C961 C263 1.765 . S
C969 C362 1.754 . S
C993 C282 1.761 . S
C1001 C423 1.750 . S
C1025 C343 1.770 . S
C1033 C442 1.755 . S
C1057 C303 2.317 . S
C1065 C23 2.333 . S
C1089 C42 2.326 . S
C1097 C322 2.332 . S
C1121 C383 2.313 . S
C1129 C103 2.329 . S
C1153 C122 2.312 . S
C1161 C402 2.328 . S
C1185 C183 2.334 . S
C1193 C463 2.324 . S
C1217 C242 2.312 . S
C1225 C202 2.331 . S
C1249 C105 1.570 . S
C1257 C31 1.548 . S
C1281 C60 1.540 . S
C1289 C124 1.562 . S
C1313 C111 1.568 . S
C1321 C185 1.554 . S
C1345 C140 1.531 . S
C1353 C204 1.568 . S
C1377 C25 1.560 . S
C1385 C191 1.552 . S
C1409 C44 1.540 . S
C1417 C220 1.561 . S
C1441 C404 1.556 . S
C1449 C260 1.552 . S
C1473 C311 1.557 . S
C1481 C465 1.558 . S
C1505 C340 1.530 . S
C1513 C244 1.567 . S
C1537 C305 1.561 . S
C1545 C391 1.552 . S
C1569 C420 1.536 . S
C1577 C324 1.564 . S
C1601 C471 1.542 . S
C1609 C385 1.563 . S
