# Generated by pormake.
# Topology ung, (4)-cn, num edge types: 1
# Building blocks:
#     Node 0, Type 0, BuildingBlock: GALJAG_clean_sbu_0, # of connection points: 4
#     Node 1, Type 0, BuildingBlock: GALJAG_clean_sbu_0, # of connection points: 4
#     Node 2, Type 0, BuildingBlock: GALJAG_clean_sbu_0, # of connection points: 4
#     Node 3, Type 0, BuildingBlock: GALJAG_clean_sbu_0, # of connection points: 4
#     Node 4, Type 0, BuildingBlock: GALJAG_clean_sbu_0, # of connection points: 4
#     Node 5, Type 0, BuildingBlock: GALJAG_clean_sbu_0, # of connection points: 4
#     Node 6, Type 0, BuildingBlock: GALJAG_clean_sbu_0, # of connection points: 4
#     Node 7, Type 0, BuildingBlock: GALJAG_clean_sbu_0, # of connection points: 4
#     Node 8, Type 0, BuildingBlock: GALJAG_clean_sbu_0, # of connection points: 4
#     Node 9, Type 0, BuildingBlock: GALJAG_clean_sbu_0, # of connection points: 4
#     Node 10, Type 0, BuildingBlock: GALJAG_clean_sbu_0, # of connection points: 4
#     Node 11, Type 0, BuildingBlock: GALJAG_clean_sbu_0, # of connection points: 4
#     Node 12, Type 0, BuildingBlock: GALJAG_clean_sbu_0, # of connection points: 4
#     Node 13, Type 0, BuildingBlock: GALJAG_clean_sbu_0, # of connection points: 4
#     Node 14, Type 0, BuildingBlock: GALJAG_clean_sbu_0, # of connection points: 4
#     Node 15, Type 0, BuildingBlock: GALJAG_clean_sbu_0, # of connection points: 4
#     Node 16, Type 0, BuildingBlock: GALJAG_clean_sbu_0, # of connection points: 4
#     Node 17, Type 0, BuildingBlock: GALJAG_clean_sbu_0, # of connection points: 4
#     Edge 18, Type (0, 0), BuildingBlock: KIFKEQ_clean_linker_1, # of connection points: 2
#     Edge 19, Type (0, 0), BuildingBlock: KIFKEQ_clean_linker_1, # of connection points: 2
#     Edge 20, Type (0, 0), BuildingBlock: KIFKEQ_clean_linker_1, # of connection points: 2
#     Edge 21, Type (0, 0), BuildingBlock: KIFKEQ_clean_linker_1, # of connection points: 2
#     Edge 22, Type (0, 0), BuildingBlock: KIFKEQ_clean_linker_1, # of connection points: 2
#     Edge 23, Type (0, 0), BuildingBlock: KIFKEQ_clean_linker_1, # of connection points: 2
#     Edge 24, Type (0, 0), BuildingBlock: KIFKEQ_clean_linker_1, # of connection points: 2
#     Edge 25, Type (0, 0), BuildingBlock: KIFKEQ_clean_linker_1, # of connection points: 2
#     Edge 26, Type (0, 0), BuildingBlock: KIFKEQ_clean_linker_1, # of connection points: 2
#     Edge 27, Type (0, 0), BuildingBlock: KIFKEQ_clean_linker_1, # of connection points: 2
#     Edge 28, Type (0, 0), BuildingBlock: KIFKEQ_clean_linker_1, # of connection points: 2
#     Edge 29, Type (0, 0), BuildingBlock: KIFKEQ_clean_linker_1, # of connection points: 2
#     Edge 30, Type (0, 0), BuildingBlock: KIFKEQ_clean_linker_1, # of connection points: 2
#     Edge 31, Type (0, 0), BuildingBlock: KIFKEQ_clean_linker_1, # of connection points: 2
#     Edge 32, Type (0, 0), BuildingBlock: KIFKEQ_clean_linker_1, # of connection points: 2
#     Edge 33, Type (0, 0), BuildingBlock: KIFKEQ_clean_linker_1, # of connection points: 2
#     Edge 34, Type (0, 0), BuildingBlock: KIFKEQ_clean_linker_1, # of connection points: 2
#     Edge 35, Type (0, 0), BuildingBlock: KIFKEQ_clean_linker_1, # of connection points: 2
#     Edge 36, Type (0, 0), BuildingBlock: KIFKEQ_clean_linker_1, # of connection points: 2
#     Edge 37, Type (0, 0), BuildingBlock: KIFKEQ_clean_linker_1, # of connection points: 2
#     Edge 38, Type (0, 0), BuildingBlock: KIFKEQ_clean_linker_1, # of connection points: 2
#     Edge 39, Type (0, 0), BuildingBlock: KIFKEQ_clean_linker_1, # of connection points: 2
#     Edge 40, Type (0, 0), BuildingBlock: KIFKEQ_clean_linker_1, # of connection points: 2
#     Edge 41, Type (0, 0), BuildingBlock: KIFKEQ_clean_linker_1, # of connection points: 2
#     Edge 42, Type (0, 0), BuildingBlock: KIFKEQ_clean_linker_1, # of connection points: 2
#     Edge 43, Type (0, 0), BuildingBlock: KIFKEQ_clean_linker_1, # of connection points: 2
#     Edge 44, Type (0, 0), BuildingBlock: KIFKEQ_clean_linker_1, # of connection points: 2
#     Edge 45, Type (0, 0), BuildingBlock: KIFKEQ_clean_linker_1, # of connection points: 2
#     Edge 46, Type (0, 0), BuildingBlock: KIFKEQ_clean_linker_1, # of connection points: 2
#     Edge 47, Type (0, 0), BuildingBlock: KIFKEQ_clean_linker_1, # of connection points: 2
#     Edge 48, Type (0, 0), BuildingBlock: KIFKEQ_clean_linker_1, # of connection points: 2
#     Edge 49, Type (0, 0), BuildingBlock: KIFKEQ_clean_linker_1, # of connection points: 2
#     Edge 50, Type (0, 0), BuildingBlock: KIFKEQ_clean_linker_1, # of connection points: 2
#     Edge 51, Type (0, 0), BuildingBlock: KIFKEQ_clean_linker_1, # of connection points: 2
#     Edge 52, Type (0, 0), BuildingBlock: KIFKEQ_clean_linker_1, # of connection points: 2
#     Edge 53, Type (0, 0), BuildingBlock: KIFKEQ_clean_linker_1, # of connection points: 2
# Relax obj value: 0.030
# Max RMSD: 0.132
# Mean RMSD: 0.132
data_MOF--net-ung--node1-GALJAG_clean_sbu_0--edge1-KIFKEQ_clean_linker_1
_symmetry_space_group_name_H-M    P1
_symmetry_Int_Tables_number       1
_symmetry_cell_setting            triclinic
loop_
_symmetry_equiv_pos_as_xyz
'x, y, z'
_cell_length_a     80.313911
_cell_length_b     80.363581
_cell_length_c     20.734994
_cell_angle_alpha  89.951776
_cell_angle_beta   89.905433
_cell_angle_gamma 119.99481
loop_
_atom_site_label
_atom_site_type_symbol
_atom_site_fract_x
_atom_site_fract_y
_atom_site_fract_z
_atom_type_partial_charge
In0 In 0.07966 0.6543 0.24337 0.0
O1 O 0.09693 0.647 0.17267 0.0
O2 O 0.06679 0.6274 0.18483 0.0
C3 C 0.10057 0.6881 0.30165 0.0
C4 C 0.07595 0.63241 0.34525 0.0
C5 C 0.05984 0.6653 0.16889 0.0
O6 O 0.10837 0.68126 0.26513 0.0
O7 O 0.08252 0.67795 0.30768 0.0
O8 O 0.05224 0.6547 0.21805 0.0
O9 O 0.07719 0.67009 0.15819 0.0
C10 C 0.0823 0.63114 0.15718 0.0
O11 O 0.06141 0.63224 0.32059 0.0
O12 O 0.09188 0.64374 0.3191 0.0
In13 In 0.51356 0.51483 0.24112 0.0
O14 O 0.52225 0.538 0.16358 0.0
O15 O 0.54243 0.52952 0.19343 0.0
C16 C 0.47918 0.50511 0.2916 0.0
C17 C 0.53427 0.53488 0.34228 0.0
C18 C 0.50518 0.48217 0.18005 0.0
O19 O 0.48527 0.51536 0.24107 0.0
O20 O 0.4902 0.49963 0.31448 0.0
O21 O 0.51309 0.4862 0.23502 0.0
O22 O 0.5015 0.4945 0.15692 0.0
C23 C 0.53904 0.54032 0.15835 0.0
O24 O 0.53375 0.51949 0.32479 0.0
O25 O 0.52414 0.5397 0.30931 0.0
In26 In 0.64909 0.07959 0.25121 0.0
O27 O 0.62759 0.06671 0.16915 0.0
O28 O 0.6385 0.09622 0.19461 0.0
C29 C 0.65642 0.05432 0.3095 0.0
C30 C 0.6268 0.08031 0.34498 0.0
C31 C 0.68292 0.10031 0.19153 0.0
O32 O 0.64674 0.05011 0.25774 0.0
O33 O 0.66231 0.0711 0.33057 0.0
O34 O 0.67829 0.10713 0.23908 0.0
O35 O 0.6706 0.08337 0.17573 0.0
C36 C 0.62748 0.08225 0.15906 0.0
O37 O 0.64382 0.09421 0.33676 0.0
O38 O 0.6215 0.06638 0.30647 0.0
In39 In 0.07884 0.51338 0.74193 0.0
O40 O 0.09227 0.53502 0.65999 0.0
O41 O 0.06367 0.52661 0.69112 0.0
C42 C 0.1035 0.5037 0.79241 0.0
C43 C 0.08035 0.53592 0.83855 0.0
C44 C 0.05398 0.48034 0.68467 0.0
O45 O 0.10735 0.51328 0.74044 0.0
O46 O 0.08733 0.49892 0.817 0.0
O47 O 0.05015 0.48512 0.73855 0.0
O48 O 0.07024 0.49203 0.66129 0.0
C49 C 0.07752 0.53683 0.65371 0.0
O50 O 0.06566 0.51947 0.82978 0.0
O51 O 0.09401 0.54057 0.79918 0.0
In52 In 0.65684 0.65144 0.74191 0.0
O53 O 0.65202 0.63157 0.82727 0.0
O54 O 0.63493 0.64502 0.81998 0.0
C55 C 0.68747 0.65493 0.67785 0.0
C56 C 0.6293 0.6276 0.66108 0.0
C57 C 0.67071 0.68791 0.77927 0.0
O58 O 0.6834 0.64806 0.73441 0.0
O59 O 0.67609 0.65989 0.65445 0.0
O60 O 0.65574 0.67935 0.74489 0.0
O61 O 0.67853 0.67813 0.79352 0.0
C62 C 0.63854 0.63359 0.85044 0.0
O63 O 0.63497 0.64542 0.6619 0.0
O64 O 0.63762 0.62219 0.70031 0.0
In65 In 0.51104 0.08512 0.75411 0.0
O66 O 0.53422 0.1027 0.82848 0.0
O67 O 0.52224 0.07214 0.82448 0.0
C68 C 0.49943 0.10483 0.68145 0.0
C69 C 0.5333 0.08207 0.66506 0.0
C70 C 0.47838 0.06527 0.82052 0.0
O71 O 0.5107 0.11264 0.72885 0.0
O72 O 0.49421 0.08735 0.67199 0.0
O73 O 0.483 0.05741 0.77622 0.0
O74 O 0.49012 0.08292 0.8298 0.0
C75 C 0.53405 0.08787 0.85064 0.0
O76 O 0.51763 0.06751 0.68291 0.0
O77 O 0.53725 0.09776 0.69168 0.0
In78 In 0.74908 0.98556 0.57399 0.0
O79 O 0.73343 0.96347 0.65366 0.0
O80 O 0.76357 0.97466 0.64023 0.0
C81 C 0.72349 0.99344 0.52018 0.0
C82 C 0.75083 0.96281 0.48349 0.0
C83 C 0.77353 0.02004 0.62406 0.0
O84 O 0.72034 0.985 0.57419 0.0
O85 O 0.7395 -0.00198 0.49465 0.0
O86 O 0.77707 0.01459 0.57104 0.0
O87 O 0.75769 0.00833 0.64993 0.0
C88 C 0.74854 0.96345 0.67119 0.0
O89 O 0.76554 0.97853 0.49917 0.0
O90 O 0.73551 0.95903 0.51245 0.0
In91 In 0.1767 0.8483 0.57996 0.0
O92 O 0.17897 0.867 0.49358 0.0
O93 O 0.19618 0.85367 0.49468 0.0
C94 C 0.14719 0.8464 0.64696 0.0
C95 C 0.20576 0.87296 0.65467 0.0
C96 C 0.1631 0.81127 0.54955 0.0
O97 O 0.15024 0.85168 0.5885 0.0
O98 O 0.15905 0.84217 0.67106 0.0
O99 O 0.17994 0.82162 0.57114 0.0
O100 O 0.15327 0.81948 0.5448 0.0
C101 C 0.19179 0.86477 0.466 0.0
O102 O 0.19907 0.855 0.65912 0.0
O103 O 0.19771 0.87808 0.61343 0.0
In104 In 0.31819 0.41531 0.56255 0.0
O105 O 0.29742 0.40114 0.47879 0.0
O106 O 0.3045 0.42946 0.50851 0.0
C107 C 0.32821 0.39143 0.61769 0.0
C108 C 0.29483 0.41417 0.65618 0.0
C109 C 0.35139 0.4406 0.50616 0.0
O110 O 0.31872 0.38703 0.56553 0.0
O111 O 0.3327 0.40773 0.64019 0.0
O112 O 0.34607 0.44437 0.55911 0.0
O113 O 0.34015 0.42417 0.48331 0.0
C114 C 0.29501 0.41548 0.47096 0.0
O115 O 0.31123 0.42891 0.64716 0.0
O116 O 0.29064 0.40022 0.61877 0.0
In117 In 0.75141 0.84576 0.07443 0.0
O118 O 0.76646 0.86817 -0.00431 0.0
O119 O 0.73766 0.86026 0.02361 0.0
C120 C 0.77237 0.83286 0.13252 0.0
C121 C 0.75121 0.86688 0.17276 0.0
C122 C 0.73007 0.81486 0.00217 0.0
O123 O 0.77989 0.84652 0.09187 0.0
O124 O 0.75458 0.82597 0.14259 0.0
O125 O 0.72321 0.81824 0.05255 0.0
O126 O 0.74742 0.82702 0.98957 0.0
C127 C 0.75208 0.87057 0.98835 0.0
O128 O 0.73632 0.85099 0.15884 0.0
O129 O 0.76586 0.87142 0.13824 0.0
In130 In 0.31342 0.9883 0.07965 0.0
O131 O 0.30556 0.96551 0.15803 0.0
O132 O 0.28374 0.97058 0.12003 0.0
C133 C 0.35002 0.00334 0.04158 0.0
C134 C 0.29674 0.96893 0.97211 0.0
C135 C 0.31687 0.01896 0.1423 0.0
O136 O 0.34247 0.98924 0.08041 0.0
O137 O 0.33917 0.00961 0.02355 0.0
O138 O 0.30999 0.01476 0.08584 0.0
O139 O 0.32177 0.00761 0.16657 0.0
C140 C 0.28801 0.96106 0.15825 0.0
O141 O 0.29502 0.98306 0.99027 0.0
O142 O 0.30722 0.96513 0.00735 0.0
In143 In 0.17678 0.41539 0.06298 0.0
O144 O 0.18293 0.39839 0.98757 0.0
O145 O 0.20246 0.42854 -0.00244 0.0
C146 C 0.14317 0.3922 0.12146 0.0
C147 C 0.20047 0.417 0.15617 0.0
C148 C 0.16762 0.43961 0.00554 0.0
O149 O 0.14779 0.38745 0.06898 0.0
O150 O 0.15532 0.40853 0.14287 0.0
O151 O 0.17709 0.44398 0.0577 0.0
O152 O 0.1627 0.42311 0.9838 0.0
C153 C 0.1984 0.41306 0.96931 0.0
O154 O 0.20001 0.43187 0.13837 0.0
O155 O 0.18887 0.40166 0.12765 0.0
In156 In 0.41508 0.32034 0.9119 0.0
O157 O 0.39922 0.29987 -0.00496 0.0
O158 O 0.42921 0.30989 0.98158 0.0
C159 C 0.39082 0.32834 0.84842 0.0
C160 C 0.41594 0.29519 0.83006 0.0
C161 C 0.43929 0.35483 0.96202 0.0
O162 O 0.38676 0.32053 0.90366 0.0
O163 O 0.40699 0.33212 0.8263 0.0
O164 O 0.4438 0.34869 0.91245 0.0
O165 O 0.42268 0.34378 0.98427 0.0
C166 C 0.41407 0.29947 0.01355 0.0
O167 O 0.43017 0.3121 0.83522 0.0
O168 O 0.40156 0.29151 0.8647 0.0
In169 In 0.84651 0.17648 0.91827 0.0
O170 O 0.86771 0.18166 -0.00062 0.0
O171 O 0.85428 0.19886 -0.00509 0.0
C172 C 0.84074 0.14586 0.84943 0.0
C173 C 0.87014 0.20387 0.83654 0.0
C174 C 0.81108 0.16232 0.96705 0.0
O175 O 0.84847 0.14931 0.90472 0.0
O176 O 0.83614 0.15788 0.82956 0.0
O177 O 0.81811 0.17655 0.92871 0.0
O178 O 0.82183 0.15542 0.9792 0.0
C179 C 0.86609 0.19532 0.02313 0.0
O180 O 0.85254 0.19912 0.84083 0.0
O181 O 0.87535 0.19467 0.87264 0.0
In182 In 0.98876 0.75858 0.91497 0.0
O183 O 0.97912 0.76924 0.00157 0.0
O184 O 0.96318 0.73951 0.97622 0.0
C185 C 0.02121 0.78669 0.86326 0.0
C186 C 0.96529 0.75883 0.82475 0.0
C187 C 0.0024 0.73586 0.95256 0.0
O188 O 0.01606 0.78812 0.91992 0.0
O189 O 0.01003 0.77128 0.83416 0.0
O190 O 0.98932 0.73043 0.91032 0.0
O191 O 0.00839 0.75252 0.97482 0.0
C192 C 0.96475 0.75276 0.01275 0.0
O193 O 0.96953 0.7456 0.82731 0.0
O194 O 0.97294 0.77167 0.86745 0.0
In195 In 0.40837 0.17675 0.41468 0.0
O196 O 0.39404 0.1825 0.49998 0.0
O197 O 0.42451 0.19946 0.48966 0.0
C198 C 0.38066 0.14553 0.35549 0.0
C199 C 0.4114 0.20356 0.3313 0.0
C200 C 0.43084 0.16271 0.45269 0.0
O201 O 0.37862 0.14989 0.41249 0.0
O202 O 0.39652 0.15697 0.32901 0.0
O203 O 0.43718 0.17723 0.41592 0.0
O204 O 0.41343 0.15547 0.46887 0.0
C205 C 0.40972 0.19617 0.52113 0.0
O206 O 0.42374 0.1981 0.33254 0.0
O207 O 0.39781 0.19535 0.3713 0.0
In208 In 0.9843 0.31947 0.41559 0.0
O209 O 0.97921 0.299 0.49915 0.0
O210 O 0.95896 0.30848 0.48225 0.0
C211 C 0.01732 0.32885 0.35458 0.0
C212 C 0.95966 0.29425 0.33087 0.0
C213 C 0.9933 0.35346 0.46697 0.0
O214 O 0.01332 0.32062 0.40917 0.0
O215 O 0.0048 0.33237 0.33205 0.0
O216 O 0.98308 0.34735 0.41654 0.0
O217 O -0.00084 0.34268 0.48931 0.0
C218 C 0.96366 0.29833 0.51569 0.0
O219 O 0.96159 0.31084 0.33693 0.0
O220 O 0.97039 0.29087 0.36641 0.0
In221 In 0.84471 0.7448 0.40802 0.0
O222 O 0.85188 0.72531 0.34875 0.0
O223 O 0.85521 0.75066 0.30456 0.0
C224 C 0.81363 0.71468 0.46125 0.0
C225 C 0.87448 0.75671 0.49016 0.0
C226 C 0.83496 0.77133 0.37576 0.0
O227 O 0.81591 0.71679 0.40088 0.0
O228 O 0.82719 0.72747 0.49407 0.0
O229 O 0.85208 0.77476 0.37291 0.0
O230 O 0.82301 0.75486 0.39651 0.0
C231 C 0.85748 0.73628 0.30017 0.0
O232 O 0.86157 0.76111 0.49834 0.0
O233 O 0.87242 0.74682 0.44079 0.0
H234 H 0.10732 0.57357 0.85021 0.0
H235 H 0.05586 0.52856 0.94016 0.0
H236 H 0.1084 0.59653 0.92854 0.0
H237 H 0.05736 0.55141 0.02073 0.0
H238 H 0.05188 0.60102 0.10036 0.0
H239 H 0.05205 0.57779 0.02621 0.0
H240 H 0.11407 0.60657 0.03783 0.0
H241 H 0.11387 0.63043 0.1105 0.0
C242 C 0.09638 0.56853 0.88742 0.0
C243 C 0.08142 0.54931 0.88896 0.0
C244 C 0.09708 0.58169 0.93265 0.0
C245 C 0.08295 0.57587 0.98088 0.0
C246 C 0.06828 0.55646 0.98345 0.0
C247 C 0.06745 0.54334 0.93763 0.0
C248 C 0.06557 0.60242 0.08698 0.0
C249 C 0.08288 0.61753 0.11103 0.0
C250 C 0.06565 0.58897 0.04493 0.0
C251 C 0.08305 0.59016 0.02647 0.0
C252 C 0.10042 0.60534 0.05053 0.0
C253 C 0.10034 0.61898 0.0922 0.0
H254 H 0.63655 0.6016 0.90362 0.0
H255 H 0.61236 0.63891 0.91673 0.0
H256 H 0.61266 0.57957 0.98038 0.0
H257 H 0.58887 0.61726 -0.00485 0.0
H258 H 0.53524 0.56241 0.0653 0.0
H259 H 0.56052 0.58609 -0.00477 0.0
H260 H 0.60214 0.57523 0.08957 0.0
H261 H 0.57687 0.55121 0.15745 0.0
C262 C 0.6264 0.6053 0.9241 0.0
C263 C 0.62623 0.62188 0.90412 0.0
C264 C 0.61271 0.5927 0.96813 0.0
C265 C 0.59871 0.59656 0.99343 0.0
C266 C 0.59917 0.61364 0.97551 0.0
C267 C 0.61274 0.62614 0.93111 0.0
C268 C 0.5498 0.56512 0.07082 0.0
C269 C 0.55407 0.5549 0.11634 0.0
C270 C 0.56431 0.57877 0.03113 0.0
C271 C 0.58337 0.58254 0.03677 0.0
C272 C 0.58759 0.57245 0.08314 0.0
C273 C 0.5731 0.55874 0.12223 0.0
H274 H 0.62133 0.11233 0.14349 0.0
H275 H 0.60467 0.05595 0.06894 0.0
H276 H 0.59862 0.11449 0.07139 0.0
H277 H 0.58242 0.05838 -0.00516 0.0
H278 H 0.5295 0.05831 0.92523 0.0
H279 H 0.55245 0.05764 -0.00031 0.0
H280 H 0.59196 0.11774 0.96096 0.0
H281 H 0.56846 0.1185 0.88779 0.0
C282 C 0.61297 0.10048 0.11102 0.0
C283 C 0.61467 0.08391 0.11197 0.0
C284 C 0.60002 0.10178 0.06946 0.0
C285 C 0.5886 0.08657 0.02764 0.0
C286 C 0.59071 0.07019 0.02745 0.0
C287 C 0.60355 0.06883 0.06947 0.0
C288 C 0.54302 0.07143 0.93314 0.0
C289 C 0.54729 0.08845 0.90068 0.0
C290 C 0.55626 0.071 0.97531 0.0
C291 C 0.5742 0.08753 0.9854 0.0
C292 C 0.57823 0.10477 0.95448 0.0
C293 C 0.56481 0.10524 0.91265 0.0
H294 H 0.58871 0.05476 0.35649 0.0
H295 H 0.63488 0.10559 0.44456 0.0
H296 H 0.56615 0.05481 0.43437 0.0
H297 H 0.61235 0.10525 0.52465 0.0
H298 H 0.56353 0.11212 0.60624 0.0
H299 H 0.58632 0.11136 0.53099 0.0
H300 H 0.55654 0.04936 0.54445 0.0
H301 H 0.5332 0.05016 0.61832 0.0
C302 C 0.59408 0.06584 0.39309 0.0
C303 C 0.61355 0.08024 0.39438 0.0
C304 C 0.58115 0.06578 0.43808 0.0
C305 C 0.5874 0.08001 0.48585 0.0
C306 C 0.60699 0.09424 0.48782 0.0
C307 C 0.61993 0.09441 0.44226 0.0
C308 C 0.5618 0.0983 0.59297 0.0
C309 C 0.54657 0.08117 0.61794 0.0
C310 C 0.575 0.09789 0.55028 0.0
C311 C 0.57339 0.08032 0.532 0.0
C312 C 0.55808 0.06314 0.55695 0.0
C313 C 0.54473 0.06356 0.59931 0.0
H314 H 0.10504 0.63641 0.42118 0.0
H315 H 0.04449 0.59893 0.38516 0.0
H316 H 0.10482 0.61324 0.49699 0.0
H317 H 0.04433 0.57529 0.46002 0.0
H318 H 0.04879 0.5452 0.64229 0.0
H319 H 0.04765 0.56879 0.57156 0.0
H320 H 0.10269 0.58242 0.49062 0.0
H321 H 0.10408 0.55919 0.563 0.0
C322 C 0.09163 0.62322 0.42986 0.0
C323 C 0.07479 0.61938 0.39717 0.0
C324 C 0.09155 0.60986 0.47281 0.0
C325 C 0.07466 0.59226 0.48361 0.0
C326 C 0.05758 0.58875 0.4529 0.0
C327 C 0.05763 0.60226 0.41014 0.0
C328 C 0.06063 0.5532 0.60923 0.0
C329 C 0.07658 0.55043 0.60823 0.0
C330 C 0.05992 0.56665 0.5685 0.0
C331 C 0.07511 0.57756 0.52574 0.0
C332 C 0.09091 0.5745 0.52394 0.0
C333 C 0.09167 0.56111 0.56498 0.0
H334 H 0.61184 0.58875 0.66562 0.0
H335 H 0.61287 0.63541 0.55861 0.0
H336 H 0.58768 0.56567 0.59271 0.0
H337 H 0.58905 0.61227 0.48397 0.0
H338 H 0.53386 0.56539 0.39659 0.0
H339 H 0.55587 0.58749 0.47681 0.0
H340 H 0.5853 0.55483 0.48373 0.0
H341 H 0.56283 0.53236 0.40481 0.0
C342 C 0.60692 0.59407 0.62626 0.0
C343 C 0.61425 0.61387 0.61753 0.0
C344 C 0.59316 0.58084 0.58428 0.0
C345 C 0.58652 0.58712 0.53231 0.0
C346 C 0.5937 0.60695 0.52405 0.0
C347 C 0.6074 0.62022 0.56648 0.0
C348 C 0.54493 0.56284 0.41574 0.0
C349 C 0.54668 0.54719 0.39451 0.0
C350 C 0.55763 0.57559 0.4613 0.0
C351 C 0.57244 0.57303 0.48625 0.0
C352 C 0.57391 0.55709 0.46599 0.0
C353 C 0.56109 0.54424 0.4207 0.0
H354 H 0.77877 0.90395 0.18999 0.0
H355 H 0.72424 0.85996 0.26608 0.0
H356 H 0.7788 0.92704 0.26496 0.0
H357 H 0.72466 0.88295 0.34416 0.0
H358 H 0.72057 0.93376 0.42153 0.0
H359 H 0.72084 0.91015 0.34894 0.0
H360 H 0.78243 0.93667 0.37275 0.0
H361 H 0.78215 0.96089 0.44287 0.0
C362 C 0.76691 0.89913 0.22366 0.0
C363 C 0.75146 0.88016 0.22218 0.0
C364 C 0.76699 0.91237 0.26705 0.0
C365 C 0.75175 0.90692 0.31081 0.0
C366 C 0.73648 0.88776 0.31036 0.0
C367 C 0.73627 0.87452 0.26608 0.0
C368 C 0.73418 0.93459 0.41078 0.0
C369 C 0.75137 0.94919 0.43735 0.0
C370 C 0.73431 0.92093 0.36976 0.0
C371 C 0.75163 0.92137 0.35518 0.0
C372 C 0.76885 0.93604 0.38202 0.0
C373 C 0.76874 0.94991 0.42228 0.0
H374 H 0.21782 0.86031 0.39536 0.0
H375 H 0.19157 0.89571 0.41265 0.0
H376 H 0.24038 0.88254 0.31593 0.0
H377 H 0.21444 0.91822 0.33433 0.0
H378 H 0.24963 0.94788 0.15663 0.0
H379 H 0.22483 0.92284 0.22332 0.0
H380 H 0.26801 0.91481 0.31953 0.0
H381 H 0.29288 0.93964 0.25124 0.0
C382 C 0.21672 0.87273 0.38149 0.0
C383 C 0.203 0.87636 0.4103 0.0
C384 C 0.22976 0.88555 0.33651 0.0
C385 C 0.2294 0.90228 0.31959 0.0
C386 C 0.21503 0.90539 0.34603 0.0
C387 C 0.20191 0.89251 0.39088 0.0
C388 C 0.25385 0.94075 0.19194 0.0
C389 C 0.27321 0.94576 0.19901 0.0
C390 C 0.23962 0.92644 0.23029 0.0
C391 C 0.24443 0.91686 0.27678 0.0
C392 C 0.26381 0.92175 0.28346 0.0
C393 C 0.27807 0.93605 0.2448 0.0
H394 H 0.2836 0.44195 0.46199 0.0
H395 H 0.27616 0.39006 0.37325 0.0
H396 H 0.26066 0.44251 0.38718 0.0
H397 H 0.25367 0.391 0.29618 0.0
H398 H 0.19897 0.38635 0.21647 0.0
H399 H 0.22199 0.38617 0.29198 0.0
H400 H 0.2562 0.44807 0.27787 0.0
H401 H 0.23261 0.44822 0.204 0.0
C402 C 0.2772 0.43076 0.42589 0.0
C403 C 0.28162 0.41592 0.42344 0.0
C404 C 0.26413 0.43116 0.38269 0.0
C405 C 0.25531 0.41683 0.33557 0.0
C406 C 0.25996 0.4021 0.33258 0.0
C407 C 0.27292 0.4016 0.37637 0.0
C408 C 0.21136 0.39993 0.22985 0.0
C409 C 0.21403 0.41731 0.20452 0.0
C410 C 0.22466 0.39981 0.27266 0.0
C411 C 0.24106 0.41707 0.29059 0.0
C412 C 0.24361 0.43452 0.26567 0.0
C413 C 0.23015 0.43463 0.22328 0.0
H414 H 0.2272 0.44328 0.90621 0.0
H415 H 0.1994 0.38157 0.92441 0.0
H416 H 0.25045 0.44309 0.83165 0.0
H417 H 0.22324 0.38136 0.85145 0.0
H418 H 0.25723 0.38682 0.66763 0.0
H419 H 0.23354 0.38612 0.74227 0.0
H420 H 0.27746 0.43865 0.82983 0.0
H421 H 0.30103 0.43972 0.75294 0.0
C422 C 0.2261 0.42965 0.89426 0.0
C423 C 0.21151 0.41242 0.92097 0.0
C424 C 0.23956 0.42956 0.85202 0.0
C425 C 0.23889 0.41225 0.83609 0.0
C426 C 0.22407 0.39494 0.86218 0.0
C427 C 0.21043 0.39502 0.904 0.0
C428 C 0.26185 0.39818 0.70302 0.0
C429 C 0.28095 0.41339 0.70439 0.0
C430 C 0.24827 0.39771 0.7461 0.0
C431 C 0.25354 0.41235 0.79198 0.0
C432 C 0.27281 0.42733 0.79427 0.0
C433 C 0.28636 0.42791 0.75061 0.0
H434 H 0.72616 0.88274 0.98414 0.0
H435 H 0.77756 0.89006 0.89104 0.0
H436 H 0.7254 0.90589 0.91063 0.0
H437 H 0.77642 0.91276 0.81528 0.0
H438 H 0.77984 0.96628 0.7309 0.0
H439 H 0.78089 0.94432 0.80932 0.0
H440 H 0.71893 0.90937 0.80137 0.0
H441 H 0.71791 0.93189 0.72462 0.0
C442 C 0.73723 0.88921 0.94748 0.0
C443 C 0.75192 0.8846 0.94311 0.0
C444 C 0.73672 0.9024 0.90508 0.0
C445 C 0.75078 0.91113 0.85684 0.0
C446 C 0.76551 0.90651 0.85251 0.0
C447 C 0.76613 0.89343 0.89555 0.0
C448 C 0.76644 0.95398 0.74637 0.0
C449 C 0.74878 0.95074 0.72178 0.0
C450 C 0.76705 0.9413 0.79086 0.0
C451 C 0.75003 0.92497 0.81121 0.0
C452 C 0.73231 0.92193 0.78731 0.0
C453 C 0.73169 0.93477 0.74325 0.0
H454 H 0.29938 0.93887 0.92401 0.0
H455 H 0.26953 0.97064 0.89842 0.0
H456 H 0.27914 0.91598 0.84206 0.0
H457 H 0.24899 0.94752 0.81741 0.0
H458 H 0.22496 0.91161 0.63935 0.0
H459 H 0.24904 0.93569 0.71008 0.0
H460 H 0.24553 0.89072 0.83381 0.0
H461 H 0.22165 0.8665 0.76173 0.0
C462 C 0.28858 0.94105 0.90042 0.0
C463 C 0.28596 0.95649 0.91761 0.0
C464 C 0.27692 0.92785 0.85389 0.0
C465 C 0.26239 0.92986 0.82368 0.0
C466 C 0.26021 0.9457 0.83937 0.0
C467 C 0.27192 0.95892 0.88585 0.0
C468 C 0.22944 0.90684 0.68142 0.0
C469 C 0.22135 0.8872 0.69547 0.0
C470 C 0.24316 0.92066 0.72204 0.0
C471 C 0.24904 0.91512 0.77779 0.0
C472 C 0.2414 0.89543 0.79082 0.0
C473 C 0.22769 0.88156 0.74984 0.0
H474 H 0.39029 0.25706 0.83249 0.0
H475 H 0.44146 0.29972 0.73433 0.0
H476 H 0.38934 0.23214 0.76399 0.0
H477 H 0.44014 0.27475 0.66355 0.0
H478 H 0.37997 0.19774 0.57843 0.0
H479 H 0.3821 0.2216 0.65538 0.0
H480 H 0.44391 0.24695 0.66054 0.0
H481 H 0.44177 0.22346 0.58185 0.0
C482 C 0.40129 0.26113 0.79584 0.0
C483 C 0.41589 0.28035 0.78832 0.0
C484 C 0.40069 0.24683 0.75638 0.0
C485 C 0.41456 0.25144 0.70795 0.0
C486 C 0.42935 0.27068 0.70095 0.0
C487 C 0.43007 0.285 0.74107 0.0
C488 C 0.39397 0.20825 0.59673 0.0
C489 C 0.4107 0.20881 0.57411 0.0
C490 C 0.39521 0.22192 0.64092 0.0
C491 C 0.41321 0.23629 0.66381 0.0
C492 C 0.42988 0.23633 0.64291 0.0
C493 C 0.42863 0.22276 0.59833 0.0
H494 H 0.90893 0.22062 0.83906 0.0
H495 H 0.86249 0.221 0.73554 0.0
H496 H 0.9321 0.24456 0.76551 0.0
H497 H 0.88571 0.24458 0.65995 0.0
H498 H 0.93326 0.2991 0.56983 0.0
H499 H 0.91093 0.27727 0.65035 0.0
H500 H 0.94278 0.247 0.65699 0.0
H501 H 0.96552 0.26934 0.57795 0.0
C502 C 0.90367 0.2258 0.80027 0.0
C503 C 0.88391 0.21891 0.79273 0.0
C504 C 0.91696 0.23944 0.75787 0.0
C505 C 0.91079 0.24638 0.70648 0.0
C506 C 0.89098 0.23969 0.6995 0.0
C507 C 0.87766 0.22613 0.74249 0.0
C508 C 0.93557 0.28787 0.58897 0.0
C509 C 0.9511 0.28588 0.56771 0.0
C510 C 0.92268 0.27527 0.6347 0.0
C511 C 0.92495 0.26029 0.6598 0.0
C512 C 0.94073 0.25853 0.63928 0.0
C513 C 0.95374 0.27127 0.59388 0.0
H514 H 0.94782 0.73401 0.72494 0.0
H515 H 0.95399 0.78545 0.81353 0.0
H516 H 0.92683 0.73561 0.64324 0.0
H517 H 0.93331 0.78725 0.73125 0.0
H518 H 0.87684 0.76838 0.61535 0.0
H519 H 0.89955 0.7699 0.69688 0.0
H520 H 0.92912 0.75576 0.55166 0.0
H521 H 0.90628 0.75384 0.47098 0.0
C522 C 0.94473 0.74567 0.72678 0.0
C523 C 0.95253 0.75959 0.77541 0.0
C524 C 0.93284 0.74669 0.67982 0.0
C525 C 0.92854 0.76165 0.68068 0.0
C526 C 0.93626 0.77549 0.72965 0.0
C527 C 0.94816 0.77449 0.77653 0.0
C528 C 0.88841 0.76594 0.60087 0.0
C529 C 0.88973 0.76082 0.53719 0.0
C530 C 0.90139 0.76679 0.64742 0.0
C531 C 0.9159 0.76262 0.63075 0.0
C532 C 0.9178 0.75858 0.56622 0.0
C533 C 0.90482 0.75764 0.51996 0.0
H534 H 0.87151 0.71161 0.29448 0.0
H535 H 0.87182 0.75884 0.19362 0.0
H536 H 0.89779 0.71494 0.22617 0.0
H537 H 0.89788 0.76198 0.12486 0.0
H538 H 0.96 0.77938 0.0797 0.0
H539 H 0.93232 0.77346 0.14574 0.0
H540 H 0.90712 0.7124 0.11486 0.0
H541 H 0.93483 0.71827 0.0498 0.0
C542 C 0.87682 0.72233 0.25654 0.0
C543 C 0.86972 0.73506 0.24961 0.0
C544 C 0.89193 0.7243 0.21764 0.0
C545 C 0.90015 0.73901 0.17121 0.0
C546 C 0.89214 0.75084 0.16143 0.0
C547 C 0.87706 0.74888 0.20021 0.0
C548 C 0.94868 0.7647 0.08791 0.0
C549 C 0.94952 0.74931 0.05955 0.0
C550 C 0.93274 0.76132 0.12498 0.0
C551 C 0.91743 0.74248 0.13454 0.0
C552 C 0.91869 0.72705 0.10836 0.0
C553 C 0.93456 0.73044 0.0711 0.0
H554 H 0.4359 0.22038 0.22926 0.0
H555 H 0.38919 0.22017 0.33356 0.0
H556 H 0.43654 0.24422 0.15447 0.0
H557 H 0.3902 0.24432 0.26055 0.0
H558 H 0.38273 0.27034 0.07359 0.0
H559 H 0.38244 0.24739 0.1514 0.0
H560 H 0.44458 0.2773 0.14847 0.0
H561 H 0.44479 0.2998 0.06936 0.0
C562 C 0.4259 0.22555 0.23644 0.0
C563 C 0.41246 0.21838 0.28691 0.0
C564 C 0.42631 0.23927 0.19393 0.0
C565 C 0.41337 0.24614 0.20149 0.0
C566 C 0.40012 0.2391 0.25265 0.0
C567 C 0.39963 0.22533 0.29472 0.0
C568 C 0.3963 0.27208 0.09013 0.0
C569 C 0.41376 0.28678 0.06539 0.0
C570 C 0.39616 0.25898 0.13477 0.0
C571 C 0.41351 0.26044 0.15583 0.0
C572 C 0.43097 0.27553 0.13231 0.0
C573 C 0.43109 0.28852 0.08742 0.0
H574 H 0.93725 0.29809 0.23949 0.0
H575 H 0.95021 0.25682 0.32491 0.0
H576 H 0.91398 0.27312 0.16819 0.0
H577 H 0.92659 0.23181 0.25568 0.0
H578 H 0.89906 0.19796 0.07009 0.0
H579 H 0.92159 0.22184 0.14565 0.0
H580 H 0.88313 0.24444 0.16979 0.0
H581 H 0.86101 0.22102 0.09273 0.0
C582 C 0.93504 0.28368 0.24319 0.0
C583 C 0.94557 0.27941 0.28742 0.0
C584 C 0.92162 0.26933 0.20279 0.0
C585 C 0.9184 0.25043 0.20634 0.0
C586 C 0.92892 0.24624 0.25095 0.0
C587 C 0.9424 0.26058 0.29085 0.0
C588 C 0.89534 0.20787 0.09232 0.0
C589 C 0.87837 0.20772 0.07546 0.0
C590 C 0.90823 0.22155 0.13562 0.0
C591 C 0.90426 0.2352 0.16323 0.0
C592 C 0.88684 0.23444 0.14827 0.0
C593 C 0.87408 0.2209 0.10463 0.0
H594 H 0.13765 0.70518 0.34563 0.0
H595 H 0.08766 0.7119 0.33703 0.0
H596 H 0.15387 0.73375 0.41408 0.0
H597 H 0.10398 0.74085 0.40124 0.0
H598 H 0.127 0.78135 0.56157 0.0
H599 H 0.11306 0.75068 0.50594 0.0
H600 H 0.16848 0.76738 0.42067 0.0
H601 H 0.18259 0.79755 0.48079 0.0
C602 C 0.13031 0.713 0.35752 0.0
C603 C 0.11141 0.70635 0.33667 0.0
C604 C 0.13956 0.72936 0.39665 0.0
C605 C 0.13014 0.73948 0.41452 0.0
C606 C 0.1115 0.73311 0.39084 0.0
C607 C 0.10218 0.71663 0.35321 0.0
C608 C 0.13624 0.77819 0.53211 0.0
C609 C 0.15578 0.7917 0.52511 0.0
C610 C 0.12824 0.76074 0.49941 0.0
C611 C 0.13949 0.75671 0.45699 0.0
C612 C 0.15936 0.7699 0.45289 0.0
C613 C 0.16747 0.78719 0.48726 0.0
H614 H 0.46922 0.49355 0.41506 0.0
H615 H 0.4476 0.50471 0.23944 0.0
H616 H 0.43808 0.48192 0.4664 0.0
H617 H 0.41608 0.49279 0.29113 0.0
H618 H 0.36072 0.43909 0.38149 0.0
H619 H 0.39167 0.45877 0.32872 0.0
H620 H 0.41406 0.4919 0.50311 0.0
H621 H 0.38286 0.47217 0.55616 0.0
C622 C 0.45782 0.49369 0.38764 0.0
C623 C 0.46072 0.49983 0.32307 0.0
C624 C 0.44005 0.48721 0.4173 0.0
C625 C 0.4247 0.48648 0.38278 0.0
C626 C 0.42772 0.49319 0.31871 0.0
C627 C 0.44569 0.50001 0.28923 0.0
C628 C 0.37216 0.45075 0.40833 0.0
C629 C 0.3695 0.45398 0.47315 0.0
C630 C 0.38981 0.46213 0.37787 0.0
C631 C 0.40524 0.47682 0.41186 0.0
C632 C 0.40237 0.48059 0.47595 0.0
C633 C 0.38457 0.46935 0.50623 0.0
H634 H 0.69239 0.99348 0.57424 0.0
H635 H 0.72382 0.00384 0.39552 0.0
H636 H 0.6718 0.00423 0.52366 0.0
H637 H 0.70329 0.01442 0.34522 0.0
H638 H 0.65634 0.02271 0.25989 0.0
H639 H 0.66889 0.00379 0.31178 0.0
H640 H 0.68031 0.0376 0.48495 0.0
H641 H 0.66798 0.05646 0.43332 0.0
C642 C 0.69469 -0.00223 0.524 0.0
C643 C 0.70981 -0.00194 0.48897 0.0
C644 C 0.68295 0.00392 0.49514 0.0
C645 C 0.68597 0.01013 0.43055 0.0
C646 C 0.70049 0.00949 0.39481 0.0
C647 C 0.71236 0.00362 0.42382 0.0
C648 C 0.66122 0.02581 0.30939 0.0
C649 C 0.66141 0.04114 0.34242 0.0
C650 C 0.66843 0.01505 0.33896 0.0
C651 C 0.6756 0.01928 0.40229 0.0
C652 C 0.67471 0.03389 0.43637 0.0
C653 C 0.6678 0.04479 0.40659 0.0
H654 H 0.7117 0.13793 0.20658 0.0
H655 H 0.69568 0.08645 0.09648 0.0
H656 H 0.74265 0.15431 0.14895 0.0
H657 H 0.72624 0.10267 0.03989 0.0
H658 H 0.79135 0.12823 0.0288 0.0
H659 H 0.76028 0.1147 0.082 0.0
H660 H 0.75636 0.16457 0.0287 0.0
H661 H 0.78779 0.17828 0.97444 0.0
C662 C 0.71474 0.13018 0.17005 0.0
C663 C 0.70136 0.11087 0.15646 0.0
C664 C 0.73233 0.13956 0.13689 0.0
C665 C 0.7368 0.12967 0.09037 0.0
C666 C 0.72322 0.11055 0.076 0.0
C667 C 0.70571 0.10129 0.10847 0.0
C668 C 0.78389 0.13634 0.02814 0.0
C669 C 0.79193 0.15427 -0.00282 0.0
C670 C 0.76608 0.12856 0.05853 0.0
C671 C 0.75594 0.13858 0.05924 0.0
C672 C 0.76399 0.15663 0.02896 0.0
C673 C 0.78183 0.16437 -0.00239 0.0
H674 H 0.03684 0.74809 0.00912 0.0
H675 H 0.98543 0.69658 0.94932 0.0
H676 H 0.04951 0.72869 0.05413 0.0
H677 H -0.00187 0.67698 -0.00414 0.0
H678 H 0.02246 0.65735 0.17836 0.0
H679 H 0.00744 0.67255 0.11723 0.0
H680 H 0.05979 0.70508 0.00786 0.0
H681 H 0.07473 0.68997 0.06798 0.0
C682 C 0.0283 0.73259 0.00537 0.0
C683 C 0.01018 0.7238 0.97576 0.0
C684 C 0.03558 0.72151 0.03088 0.0
C685 C 0.02479 0.70139 0.02824 0.0
C686 C 0.00666 0.6925 -0.00154 0.0
C687 C -0.00051 0.70367 0.97164 0.0
C688 C 0.03062 0.66753 0.1406 0.0
C689 C 0.04982 0.67266 0.12845 0.0
C690 C 0.022 0.67611 0.10547 0.0
C691 C 0.03256 0.69003 0.0583 0.0
C692 C 0.05144 0.69448 0.04437 0.0
C693 C 0.05995 0.68583 0.07886 0.0
H694 H 0.4367 0.36509 0.08409 0.0
H695 H 0.47103 0.38618 0.91089 0.0
H696 H 0.45639 0.39607 0.13565 0.0
H697 H 0.49079 0.41755 0.96281 0.0
H698 H 0.49487 0.47398 0.05431 0.0
H699 H 0.48242 0.44308 0.00017 0.0
H700 H 0.4906 0.41854 0.17427 0.0
H701 H 0.50321 0.44958 0.22861 0.0
C702 C 0.44857 0.37635 0.0572 0.0
C703 C 0.45227 0.37332 0.99333 0.0
C704 C 0.45996 0.39402 0.08698 0.0
C705 C 0.47514 0.40916 0.05329 0.0
C706 C 0.47914 0.40607 0.98975 0.0
C707 C 0.46789 0.38819 0.96016 0.0
C708 C 0.49427 0.46206 0.08077 0.0
C709 C 0.49979 0.46408 0.14587 0.0
C710 C 0.48731 0.44444 0.04957 0.0
C711 C 0.4855 0.42845 0.08313 0.0
C712 C 0.49177 0.43066 0.14747 0.0
C713 C 0.49899 0.44839 0.17848 0.0
H714 H 0.00524 0.36345 0.58997 0.0
H715 H 0.99214 0.38445 0.4166 0.0
H716 H 0.01577 0.39419 0.64226 0.0
H717 H 0.00294 0.41556 0.46926 0.0
H718 H 0.0554 0.47188 0.55902 0.0
H719 H 0.03659 0.44098 0.50569 0.0
H720 H 0.00439 0.41687 0.68132 0.0
H721 H 0.02326 0.44802 0.73496 0.0
C722 C 0.00445 0.37462 0.56323 0.0
C723 C -0.00192 0.37168 0.49901 0.0
C724 C 0.01029 0.39215 0.59346 0.0
C725 C 0.01012 0.40723 0.55986 0.0
C726 C 0.00321 0.40414 0.49614 0.0
C727 C -0.00295 0.3864 0.46609 0.0
C728 C 0.0441 0.46007 0.58602 0.0
C729 C 0.04092 0.46224 0.65134 0.0
C730 C 0.03322 0.44244 0.55526 0.0
C731 C 0.01908 0.42655 0.58943 0.0
C732 C 0.01529 0.42891 0.65403 0.0
C733 C 0.02603 0.44669 0.68464 0.0
H734 H 0.71642 0.64907 0.72047 0.0
H735 H 0.69768 0.66822 0.55548 0.0
H736 H 0.74675 0.65811 0.66535 0.0
H737 H 0.72792 0.67759 0.50131 0.0
H738 H 0.78063 0.68807 0.40159 0.0
H739 H 0.7492 0.66818 0.45186 0.0
H740 H 0.77441 0.68903 0.63944 0.0
H741 H 0.80575 0.70842 0.58946 0.0
C742 C 0.71868 0.65497 0.67221 0.0
C743 C 0.70481 0.65815 0.64257 0.0
C744 C 0.73605 0.66019 0.64071 0.0
C745 C 0.7398 0.66865 0.57903 0.0
C746 C 0.72544 0.67087 0.54833 0.0
C747 C 0.70816 0.66567 0.57973 0.0
C748 C 0.7795 0.68801 0.45362 0.0
C749 C 0.79555 0.7 0.49153 0.0
C750 C 0.7615 0.67671 0.48243 0.0
C751 C 0.75924 0.67724 0.54958 0.0
C752 C 0.77563 0.68815 0.58769 0.0
C753 C 0.79359 0.69939 0.55894 0.0
H754 H 0.4181 0.12734 0.50283 0.0
H755 H 0.4702 0.1805 0.46005 0.0
H756 H 0.43687 0.11464 0.55222 0.0
H757 H 0.48919 0.16768 0.51047 0.0
H758 H 0.50685 0.14204 0.69138 0.0
H759 H 0.49216 0.15715 0.62801 0.0
H760 H 0.46114 0.10525 0.51608 0.0
H761 H 0.4756 0.09022 0.57879 0.0
C762 C 0.43361 0.13626 0.50357 0.0
C763 C 0.44271 0.15489 0.47758 0.0
C764 C 0.44436 0.12895 0.53162 0.0
C765 C 0.46447 0.14017 0.53501 0.0
C766 C 0.47368 0.15879 0.50859 0.0
C767 C 0.46287 0.16604 0.47944 0.0
C768 C 0.49706 0.13399 0.65275 0.0
C769 C 0.49217 0.11488 0.64061 0.0
C770 C 0.48877 0.14266 0.6163 0.0
C771 C 0.47542 0.13228 0.56759 0.0
C772 C 0.47122 0.11349 0.55386 0.0
C773 C 0.47952 0.1049 0.58985 0.0
H774 H 0.37074 0.03798 0.98439 0.0
H775 H 0.37378 0.98783 0.04122 0.0
H776 H 0.40243 0.0518 0.93576 0.0
H777 H 0.40589 0.00185 0.99167 0.0
H778 H 0.45026 0.02724 0.81358 0.0
H779 H 0.41989 0.01127 0.87422 0.0
H780 H 0.43629 0.06425 0.9749 0.0
H781 H 0.46631 0.08013 0.91482 0.0
C782 C 0.37827 0.02996 0.98685 0.0
C783 C 0.36983 0.01185 0.01667 0.0
C784 C 0.39646 0.03792 0.95919 0.0
C785 C 0.40662 0.02791 0.96014 0.0
C786 C 0.39828 0.0098 0.99017 0.0
C787 C 0.38005 0.00188 0.01883 0.0
C788 C 0.44738 0.03537 0.84904 0.0
C789 C 0.46053 0.05497 0.85888 0.0
C790 C 0.43012 0.02622 0.88399 0.0
C791 C 0.42574 0.0366 0.92885 0.0
C792 C 0.43921 0.05599 0.94008 0.0
C793 C 0.4564 0.06506 0.9056 0.0
H794 H 0.13361 0.50174 0.73774 0.0
H795 H 0.10274 0.49317 0.91676 0.0
H796 H 0.15297 0.48947 0.7885 0.0
H797 H 0.12205 0.48119 0.96717 0.0
H798 H 0.15491 0.43651 0.88256 0.0
H799 H 0.14314 0.45571 0.82964 0.0
H800 H 0.15623 0.49088 0.00012 0.0
H801 H 0.1682 0.47165 0.05327 0.0
C802 C 0.13119 0.49752 0.78804 0.0
C803 C 0.11659 0.49821 0.82319 0.0
C804 C 0.1422 0.49049 0.81699 0.0
C805 C 0.139 0.48442 0.88176 0.0
C806 C 0.12498 0.48597 0.91745 0.0
C807 C 0.11382 0.49267 0.88837 0.0
C808 C 0.15551 0.44849 0.9085 0.0
C809 C 0.16226 0.45248 0.97227 0.0
C810 C 0.14894 0.45958 0.87794 0.0
C811 C 0.14877 0.47475 0.91081 0.0
C812 C 0.15615 0.47919 0.97384 0.0
C813 C 0.16299 0.46823 0.00418 0.0
H814 H 0.70679 0.71171 0.82152 0.0
H815 H 0.65193 0.70834 0.79291 0.0
H816 H 0.71949 0.74339 0.86924 0.0
H817 H 0.66472 0.74031 0.84189 0.0
H818 H 0.6935 0.78449 0.02083 0.0
H819 H 0.67764 0.75447 0.95883 0.0
H820 H 0.72659 0.77658 0.83082 0.0
H821 H 0.74235 0.80632 0.89198 0.0
C822 C 0.69749 0.71783 0.82507 0.0
C823 C 0.67841 0.70763 0.80349 0.0
C824 C 0.70478 0.73599 0.85215 0.0
C825 C 0.69308 0.74427 0.85904 0.0
C826 C 0.67398 0.73417 0.83716 0.0
C827 C 0.66674 0.71601 0.80887 0.0
C828 C 0.70069 0.78299 0.97887 0.0
C829 C 0.71926 0.79761 0.96181 0.0
C830 C 0.69159 0.76591 0.94329 0.0
C831 C 0.70102 0.76322 0.89054 0.0
C832 C 0.71913 0.77823 0.87175 0.0
C833 C 0.72813 0.79524 0.90687 0.0
H834 H 0.80412 0.05187 0.57004 0.0
H835 H 0.77287 0.02973 0.74856 0.0
H836 H 0.82464 0.08299 0.62233 0.0
H837 H 0.79327 0.06049 0.80039 0.0
H838 H 0.84043 0.11347 0.89155 0.0
H839 H 0.82769 0.0829 0.83415 0.0
H840 H 0.81727 0.10831 0.66659 0.0
H841 H 0.82993 0.13875 0.72374 0.0
C842 C 0.8018 0.0536 0.62047 0.0
C843 C 0.78683 0.03849 0.65513 0.0
C844 C 0.81349 0.07135 0.6503 0.0
C845 C 0.81059 0.07409 0.71547 0.0
C846 C 0.79603 0.05873 0.75042 0.0
C847 C 0.78422 0.04117 0.7205 0.0
C848 C 0.83577 0.1126 0.84206 0.0
C849 C 0.83593 0.12837 0.81234 0.0
C850 C 0.82844 0.09512 0.80933 0.0
C851 C 0.82139 0.09324 0.74612 0.0
C852 C 0.82273 0.10939 0.71506 0.0
C853 C 0.82984 0.12677 0.74799 0.0
H854 H 0.13824 0.83554 0.77242 0.0
H855 H 0.11775 0.85118 0.60331 0.0
H856 H 0.10806 0.82632 0.8275 0.0
H857 H 0.08757 0.84222 0.65899 0.0
H858 H 0.03019 0.79041 0.73645 0.0
H859 H 0.06153 0.81011 0.68733 0.0
H860 H 0.08509 0.83523 0.87289 0.0
H861 H 0.0534 0.81515 0.92254 0.0
C862 C 0.12743 0.83739 0.7475 0.0
C863 C 0.1302 0.84376 0.68319 0.0
C864 C 0.11019 0.83227 0.77932 0.0
C865 C 0.09536 0.83339 0.74742 0.0
C866 C 0.09865 0.84098 0.68451 0.0
C867 C 0.11593 0.84613 0.65268 0.0
C868 C 0.04197 0.80039 0.76665 0.0
C869 C 0.03946 0.8011 0.8334 0.0
C870 C 0.05992 0.81183 0.73836 0.0
C871 C 0.07583 0.82418 0.77625 0.0
C872 C 0.0731 0.82571 0.84261 0.0
C873 C 0.05499 0.81433 0.87095 0.0
H874 H 0.32971 0.36045 0.56894 0.0
H875 H 0.33944 0.39398 0.74194 0.0
H876 H 0.34169 0.34145 0.6241 0.0
H877 H 0.35117 0.37507 0.79665 0.0
H878 H 0.35944 0.3296 0.89365 0.0
H879 H 0.34079 0.34149 0.83638 0.0
H880 H 0.37508 0.35051 0.66541 0.0
H881 H 0.39369 0.33873 0.7224 0.0
C882 C 0.33416 0.36357 0.61885 0.0
C883 C 0.33382 0.37876 0.65103 0.0
C884 C 0.34103 0.35276 0.65029 0.0
C885 C 0.3473 0.35678 0.71468 0.0
C886 C 0.34621 0.37149 0.74735 0.0
C887 C 0.33966 0.38242 0.71577 0.0
C888 C 0.36278 0.33387 0.84359 0.0
C889 C 0.37813 0.33346 0.81267 0.0
C890 C 0.35215 0.34069 0.8109 0.0
C891 C 0.35654 0.34696 0.74653 0.0
C892 C 0.37126 0.3456 0.71475 0.0
C893 C 0.38201 0.33902 0.7476 0.0
H894 H 0.02495 0.33909 0.22862 0.0
H895 H 0.05043 0.33151 0.4014 0.0
H896 H 0.05549 0.3513 0.17201 0.0
H897 H 0.08118 0.34391 0.34447 0.0
H898 H 0.13473 0.39594 0.24532 0.0
H899 H 0.10421 0.37735 0.30161 0.0
H900 H 0.07985 0.34211 0.13248 0.0
H901 H 0.11064 0.36075 0.07582 0.0
C902 C 0.03705 0.33985 0.25429 0.0
C903 C 0.0354 0.33452 0.31958 0.0
C904 C 0.05448 0.34669 0.22167 0.0
C905 C 0.07069 0.34857 0.25387 0.0
C906 C 0.0689 0.34268 0.31866 0.0
C907 C 0.05134 0.33556 0.35113 0.0
C908 C 0.12293 0.3841 0.22027 0.0
C909 C 0.12498 0.37987 0.15602 0.0
C910 C 0.10551 0.37336 0.25275 0.0
C911 C 0.08969 0.35828 0.22145 0.0
C912 C 0.09184 0.35372 0.15761 0.0
C913 C 0.10942 0.36433 0.12529 0.0
H914 H 0.80357 0.77351 0.41023 0.0
H915 H 0.85218 0.79803 0.28054 0.0
H916 H 0.79022 0.7909 0.3549 0.0
H917 H 0.83832 0.81465 0.22228 0.0
H918 H 0.8114 0.85023 0.15087 0.0
H919 H 0.82853 0.83823 0.21662 0.0
H920 H 0.77465 0.78636 0.25584 0.0
H921 H 0.75774 0.79867 0.19329 0.0
C922 C 0.81146 0.78279 0.37011 0.0
C923 C 0.82878 0.78435 0.34925 0.0
C924 C 0.80374 0.79261 0.33789 0.0
C925 C 0.81291 0.80378 0.28291 0.0
C926 C 0.83087 0.80623 0.26444 0.0
C927 C 0.83882 0.7967 0.29771 0.0
C928 C 0.80334 0.83627 0.17363 0.0
C929 C 0.78326 0.82544 0.16749 0.0
C930 C 0.81311 0.82938 0.21121 0.0
C931 C 0.80295 0.81146 0.24263 0.0
C932 C 0.78292 0.80048 0.23438 0.0
C933 C 0.77321 0.80745 0.19783 0.0
H934 H 0.31545 0.04977 0.09264 0.0
H935 H 0.32673 0.02803 0.26791 0.0
H936 H 0.32625 0.08079 0.14506 0.0
H937 H 0.33756 0.0589 0.3199 0.0
H938 H 0.34966 0.11434 0.40955 0.0
H939 H 0.32912 0.08314 0.3586 0.0
H940 H 0.35934 0.10542 0.17846 0.0
H941 H 0.37969 0.13643 0.22901 0.0
C942 C 0.31987 0.0515 0.14266 0.0
C943 C 0.32049 0.03661 0.17601 0.0
C944 C 0.3261 0.06924 0.17255 0.0
C945 C 0.33285 0.07228 0.23643 0.0
C946 C 0.33227 0.05695 0.27088 0.0
C947 C 0.32622 0.03932 0.2409 0.0
C948 C 0.35161 0.11263 0.35876 0.0
C949 C 0.36639 0.12769 0.32337 0.0
C950 C 0.33992 0.09479 0.32971 0.0
C951 C 0.3427 0.09183 0.26466 0.0
C952 C 0.35671 0.1073 0.22844 0.0
C953 C 0.36848 0.12502 0.25757 0.0
loop_
_geom_bond_atom_site_label_1
_geom_bond_atom_site_label_2
_geom_bond_distance
_geom_bond_site_symmetry_2
_ccdc_geom_bond_type
In0 O1 2.294 . S
In0 O2 2.326 . S
In0 O6 2.266 . S
In0 O7 2.326 . S
In0 O8 2.266 . S
In0 O9 2.326 . S
In0 O11 2.294 . S
In0 O12 2.326 . S
O1 In0 2.294 . S
O1 C10 1.240 . S
O2 In0 2.326 . S
O2 C10 1.252 . S
C3 O6 1.252 . S
C3 O7 1.260 . S
C4 O11 1.240 . S
C4 O12 1.252 . S
C5 O8 1.252 . S
C5 O9 1.260 . S
O6 In0 2.266 . S
O6 C3 1.252 . S
O7 In0 2.326 . S
O7 C3 1.260 . S
O8 In0 2.266 . S
O8 C5 1.252 . S
O9 In0 2.326 . S
O9 C5 1.260 . S
C10 O1 1.240 . S
C10 O2 1.252 . S
O11 In0 2.294 . S
O11 C4 1.240 . S
O12 In0 2.326 . S
O12 C4 1.252 . S
In13 O14 2.294 . S
In13 O15 2.326 . S
In13 O19 2.266 . S
In13 O20 2.326 . S
In13 O21 2.266 . S
In13 O22 2.326 . S
In13 O24 2.294 . S
In13 O25 2.326 . S
O14 In13 2.294 . S
O14 C23 1.240 . S
O15 In13 2.326 . S
O15 C23 1.252 . S
C16 O19 1.252 . S
C16 O20 1.260 . S
C17 O24 1.240 . S
C17 O25 1.252 . S
C18 O21 1.252 . S
C18 O22 1.260 . S
O19 In13 2.266 . S
O19 C16 1.252 . S
O20 In13 2.326 . S
O20 C16 1.260 . S
O21 In13 2.266 . S
O21 C18 1.252 . S
O22 In13 2.326 . S
O22 C18 1.260 . S
C23 O14 1.240 . S
C23 O15 1.252 . S
O24 In13 2.294 . S
O24 C17 1.240 . S
O25 In13 2.326 . S
O25 C17 1.252 . S
In26 O27 2.294 . S
In26 O28 2.326 . S
In26 O32 2.266 . S
In26 O33 2.326 . S
In26 O34 2.266 . S
In26 O35 2.326 . S
In26 O37 2.294 . S
In26 O38 2.326 . S
O27 In26 2.294 . S
O27 C36 1.240 . S
O28 In26 2.326 . S
O28 C36 1.252 . S
C29 O32 1.252 . S
C29 O33 1.260 . S
C30 O37 1.240 . S
C30 O38 1.252 . S
C31 O34 1.252 . S
C31 O35 1.260 . S
O32 In26 2.266 . S
O32 C29 1.252 . S
O33 In26 2.326 . S
O33 C29 1.260 . S
O34 In26 2.266 . S
O34 C31 1.252 . S
O35 In26 2.326 . S
O35 C31 1.260 . S
C36 O27 1.240 . S
C36 O28 1.252 . S
O37 In26 2.294 . S
O37 C30 1.240 . S
O38 In26 2.326 . S
O38 C30 1.252 . S
In39 O40 2.294 . S
In39 O41 2.326 . S
In39 O45 2.266 . S
In39 O46 2.326 . S
In39 O47 2.266 . S
In39 O48 2.326 . S
In39 O50 2.294 . S
In39 O51 2.326 . S
O40 In39 2.294 . S
O40 C49 1.240 . S
O41 In39 2.326 . S
O41 C49 1.252 . S
C42 O45 1.252 . S
C42 O46 1.260 . S
C43 O50 1.240 . S
C43 O51 1.252 . S
C44 O47 1.252 . S
C44 O48 1.260 . S
O45 In39 2.266 . S
O45 C42 1.252 . S
O46 In39 2.326 . S
O46 C42 1.260 . S
O47 In39 2.266 . S
O47 C44 1.252 . S
O48 In39 2.326 . S
O48 C44 1.260 . S
C49 O40 1.240 . S
C49 O41 1.252 . S
O50 In39 2.294 . S
O50 C43 1.240 . S
O51 In39 2.326 . S
O51 C43 1.252 . S
In52 O53 2.294 . S
In52 O54 2.326 . S
In52 O58 2.266 . S
In52 O59 2.326 . S
In52 O60 2.266 . S
In52 O61 2.326 . S
In52 O63 2.294 . S
In52 O64 2.326 . S
O53 In52 2.294 . S
O53 C62 1.240 . S
O54 In52 2.326 . S
O54 C62 1.252 . S
C55 O58 1.252 . S
C55 O59 1.260 . S
C56 O63 1.240 . S
C56 O64 1.252 . S
C57 O60 1.252 . S
C57 O61 1.260 . S
O58 In52 2.266 . S
O58 C55 1.252 . S
O59 In52 2.326 . S
O59 C55 1.260 . S
O60 In52 2.266 . S
O60 C57 1.252 . S
O61 In52 2.326 . S
O61 C57 1.260 . S
C62 O53 1.240 . S
C62 O54 1.252 . S
O63 In52 2.294 . S
O63 C56 1.240 . S
O64 In52 2.326 . S
O64 C56 1.252 . S
In65 O66 2.294 . S
In65 O67 2.326 . S
In65 O71 2.266 . S
In65 O72 2.326 . S
In65 O73 2.266 . S
In65 O74 2.326 . S
In65 O76 2.294 . S
In65 O77 2.326 . S
O66 In65 2.294 . S
O66 C75 1.240 . S
O67 In65 2.326 . S
O67 C75 1.252 . S
C68 O71 1.252 . S
C68 O72 1.260 . S
C69 O76 1.240 . S
C69 O77 1.252 . S
C70 O73 1.252 . S
C70 O74 1.260 . S
O71 In65 2.266 . S
O71 C68 1.252 . S
O72 In65 2.326 . S
O72 C68 1.260 . S
O73 In65 2.266 . S
O73 C70 1.252 . S
O74 In65 2.326 . S
O74 C70 1.260 . S
C75 O66 1.240 . S
C75 O67 1.252 . S
O76 In65 2.294 . S
O76 C69 1.240 . S
O77 In65 2.326 . S
O77 C69 1.252 . S
In78 O79 2.294 . S
In78 O80 2.326 . S
In78 O84 2.266 . S
In78 O85 2.326 1_565 S
In78 O86 2.266 1_565 S
In78 O87 2.326 1_565 S
In78 O89 2.294 . S
In78 O90 2.326 . S
O79 In78 2.294 . S
O79 C88 1.240 . S
O80 In78 2.326 . S
O80 C88 1.252 . S
C81 O84 1.252 1_545 S
C81 O85 1.260 . S
C82 O89 1.240 . S
C82 O90 1.252 . S
C83 O86 1.252 . S
C83 O87 1.260 . S
O84 In78 2.266 . S
O84 C81 1.252 1_565 S
O85 In78 2.326 1_545 S
O85 C81 1.260 . S
O86 In78 2.266 1_545 S
O86 C83 1.252 . S
O87 In78 2.326 1_545 S
O87 C83 1.260 . S
C88 O79 1.240 . S
C88 O80 1.252 . S
O89 In78 2.294 . S
O89 C82 1.240 . S
O90 In78 2.326 . S
O90 C82 1.252 . S
In91 O92 2.294 . S
In91 O93 2.326 . S
In91 O97 2.266 . S
In91 O98 2.326 . S
In91 O99 2.266 . S
In91 O100 2.326 . S
In91 O102 2.294 . S
In91 O103 2.326 . S
O92 In91 2.294 . S
O92 C101 1.240 . S
O93 In91 2.326 . S
O93 C101 1.252 . S
C94 O97 1.252 . S
C94 O98 1.260 . S
C95 O102 1.240 . S
C95 O103 1.252 . S
C96 O99 1.252 . S
C96 O100 1.260 . S
O97 In91 2.266 . S
O97 C94 1.252 . S
O98 In91 2.326 . S
O98 C94 1.260 . S
O99 In91 2.266 . S
O99 C96 1.252 . S
O100 In91 2.326 . S
O100 C96 1.260 . S
C101 O92 1.240 . S
C101 O93 1.252 . S
O102 In91 2.294 . S
O102 C95 1.240 . S
O103 In91 2.326 . S
O103 C95 1.252 . S
In104 O105 2.294 . S
In104 O106 2.326 . S
In104 O110 2.266 . S
In104 O111 2.326 . S
In104 O112 2.266 . S
In104 O113 2.326 . S
In104 O115 2.294 . S
In104 O116 2.326 . S
O105 In104 2.294 . S
O105 C114 1.240 . S
O106 In104 2.326 . S
O106 C114 1.252 . S
C107 O110 1.252 . S
C107 O111 1.260 . S
C108 O115 1.240 . S
C108 O116 1.252 . S
C109 O112 1.252 . S
C109 O113 1.260 . S
O110 In104 2.266 . S
O110 C107 1.252 . S
O111 In104 2.326 . S
O111 C107 1.260 . S
O112 In104 2.266 . S
O112 C109 1.252 . S
O113 In104 2.326 . S
O113 C109 1.260 . S
C114 O105 1.240 . S
C114 O106 1.252 . S
O115 In104 2.294 . S
O115 C108 1.240 . S
O116 In104 2.326 . S
O116 C108 1.252 . S
In117 O118 2.294 . S
In117 O119 2.326 . S
In117 O123 2.266 . S
In117 O124 2.326 . S
In117 O125 2.266 . S
In117 O126 2.326 . S
In117 O128 2.294 . S
In117 O129 2.326 . S
O118 In117 2.294 . S
O118 C127 1.240 1_554 S
O119 In117 2.326 . S
O119 C127 1.252 1_554 S
C120 O123 1.252 . S
C120 O124 1.260 . S
C121 O128 1.240 . S
C121 O129 1.252 . S
C122 O125 1.252 . S
C122 O126 1.260 . S
O123 In117 2.266 . S
O123 C120 1.252 . S
O124 In117 2.326 . S
O124 C120 1.260 . S
O125 In117 2.266 . S
O125 C122 1.252 . S
O126 In117 2.326 . S
O126 C122 1.260 . S
C127 O118 1.240 1_556 S
C127 O119 1.252 1_556 S
O128 In117 2.294 . S
O128 C121 1.240 . S
O129 In117 2.326 . S
O129 C121 1.252 . S
In130 O131 2.294 . S
In130 O132 2.326 . S
In130 O136 2.266 . S
In130 O137 2.326 1_565 S
In130 O138 2.266 1_565 S
In130 O139 2.326 1_565 S
In130 O141 2.294 . S
In130 O142 2.326 . S
O131 In130 2.294 . S
O131 C140 1.240 . S
O132 In130 2.326 . S
O132 C140 1.252 . S
C133 O136 1.252 1_545 S
C133 O137 1.260 . S
C134 O141 1.240 1_556 S
C134 O142 1.252 1_556 S
C135 O138 1.252 . S
C135 O139 1.260 . S
O136 In130 2.266 . S
O136 C133 1.252 1_565 S
O137 In130 2.326 1_545 S
O137 C133 1.260 . S
O138 In130 2.266 1_545 S
O138 C135 1.252 . S
O139 In130 2.326 1_545 S
O139 C135 1.260 . S
C140 O131 1.240 . S
C140 O132 1.252 . S
O141 In130 2.294 . S
O141 C134 1.240 1_554 S
O142 In130 2.326 . S
O142 C134 1.252 1_554 S
In143 O144 2.294 . S
In143 O145 2.326 . S
In143 O149 2.266 . S
In143 O150 2.326 . S
In143 O151 2.266 . S
In143 O152 2.326 . S
In143 O154 2.294 . S
In143 O155 2.326 . S
O144 In143 2.294 . S
O144 C153 1.240 1_554 S
O145 In143 2.326 . S
O145 C153 1.252 1_554 S
C146 O149 1.252 . S
C146 O150 1.260 . S
C147 O154 1.240 . S
C147 O155 1.252 . S
C148 O151 1.252 . S
C148 O152 1.260 . S
O149 In143 2.266 . S
O149 C146 1.252 . S
O150 In143 2.326 . S
O150 C146 1.260 . S
O151 In143 2.266 . S
O151 C148 1.252 . S
O152 In143 2.326 . S
O152 C148 1.260 . S
C153 O144 1.240 1_556 S
C153 O145 1.252 1_556 S
O154 In143 2.294 . S
O154 C147 1.240 . S
O155 In143 2.326 . S
O155 C147 1.252 . S
In156 O157 2.294 . S
In156 O158 2.326 . S
In156 O162 2.266 . S
In156 O163 2.326 . S
In156 O164 2.266 . S
In156 O165 2.326 . S
In156 O167 2.294 . S
In156 O168 2.326 . S
O157 In156 2.294 . S
O157 C166 1.240 1_556 S
O158 In156 2.326 . S
O158 C166 1.252 1_556 S
C159 O162 1.252 . S
C159 O163 1.260 . S
C160 O167 1.240 . S
C160 O168 1.252 . S
C161 O164 1.252 . S
C161 O165 1.260 . S
O162 In156 2.266 . S
O162 C159 1.252 . S
O163 In156 2.326 . S
O163 C159 1.260 . S
O164 In156 2.266 . S
O164 C161 1.252 . S
O165 In156 2.326 . S
O165 C161 1.260 . S
C166 O157 1.240 1_554 S
C166 O158 1.252 1_554 S
O167 In156 2.294 . S
O167 C160 1.240 . S
O168 In156 2.326 . S
O168 C160 1.252 . S
In169 O170 2.294 . S
In169 O171 2.326 . S
In169 O175 2.266 . S
In169 O176 2.326 . S
In169 O177 2.266 . S
In169 O178 2.326 . S
In169 O180 2.294 . S
In169 O181 2.326 . S
O170 In169 2.294 . S
O170 C179 1.240 1_556 S
O171 In169 2.326 . S
O171 C179 1.252 1_556 S
C172 O175 1.252 . S
C172 O176 1.260 . S
C173 O180 1.240 . S
C173 O181 1.252 . S
C174 O177 1.252 . S
C174 O178 1.260 . S
O175 In169 2.266 . S
O175 C172 1.252 . S
O176 In169 2.326 . S
O176 C172 1.260 . S
O177 In169 2.266 . S
O177 C174 1.252 . S
O178 In169 2.326 . S
O178 C174 1.260 . S
C179 O170 1.240 1_554 S
C179 O171 1.252 1_554 S
O180 In169 2.294 . S
O180 C173 1.240 . S
O181 In169 2.326 . S
O181 C173 1.252 . S
In182 O183 2.294 . S
In182 O184 2.326 . S
In182 O188 2.266 1_655 S
In182 O189 2.326 1_655 S
In182 O190 2.266 . S
In182 O191 2.326 1_655 S
In182 O193 2.294 . S
In182 O194 2.326 . S
O183 In182 2.294 . S
O183 C192 1.240 1_556 S
O184 In182 2.326 . S
O184 C192 1.252 1_556 S
C185 O188 1.252 . S
C185 O189 1.260 . S
C186 O193 1.240 . S
C186 O194 1.252 . S
C187 O190 1.252 1_455 S
C187 O191 1.260 . S
O188 In182 2.266 1_455 S
O188 C185 1.252 . S
O189 In182 2.326 1_455 S
O189 C185 1.260 . S
O190 In182 2.266 . S
O190 C187 1.252 1_655 S
O191 In182 2.326 1_455 S
O191 C187 1.260 . S
C192 O183 1.240 1_554 S
C192 O184 1.252 1_554 S
O193 In182 2.294 . S
O193 C186 1.240 . S
O194 In182 2.326 . S
O194 C186 1.252 . S
In195 O196 2.294 . S
In195 O197 2.326 . S
In195 O201 2.266 . S
In195 O202 2.326 . S
In195 O203 2.266 . S
In195 O204 2.326 . S
In195 O206 2.294 . S
In195 O207 2.326 . S
O196 In195 2.294 . S
O196 C205 1.240 . S
O197 In195 2.326 . S
O197 C205 1.252 . S
C198 O201 1.252 . S
C198 O202 1.260 . S
C199 O206 1.240 . S
C199 O207 1.252 . S
C200 O203 1.252 . S
C200 O204 1.260 . S
O201 In195 2.266 . S
O201 C198 1.252 . S
O202 In195 2.326 . S
O202 C198 1.260 . S
O203 In195 2.266 . S
O203 C200 1.252 . S
O204 In195 2.326 . S
O204 C200 1.260 . S
C205 O196 1.240 . S
C205 O197 1.252 . S
O206 In195 2.294 . S
O206 C199 1.240 . S
O207 In195 2.326 . S
O207 C199 1.252 . S
In208 O209 2.294 . S
In208 O210 2.326 . S
In208 O214 2.266 1_655 S
In208 O215 2.326 1_655 S
In208 O216 2.266 . S
In208 O217 2.326 1_655 S
In208 O219 2.294 . S
In208 O220 2.326 . S
O209 In208 2.294 . S
O209 C218 1.240 . S
O210 In208 2.326 . S
O210 C218 1.252 . S
C211 O214 1.252 . S
C211 O215 1.260 . S
C212 O219 1.240 . S
C212 O220 1.252 . S
C213 O216 1.252 1_455 S
C213 O217 1.260 . S
O214 In208 2.266 1_455 S
O214 C211 1.252 . S
O215 In208 2.326 1_455 S
O215 C211 1.260 . S
O216 In208 2.266 . S
O216 C213 1.252 1_655 S
O217 In208 2.326 1_455 S
O217 C213 1.260 . S
C218 O209 1.240 . S
C218 O210 1.252 . S
O219 In208 2.294 . S
O219 C212 1.240 . S
O220 In208 2.326 . S
O220 C212 1.252 . S
In221 O222 2.294 . S
In221 O223 2.326 . S
In221 O227 2.266 . S
In221 O228 2.326 . S
In221 O229 2.266 . S
In221 O230 2.326 . S
In221 O232 2.294 . S
In221 O233 2.326 . S
O222 In221 2.294 . S
O222 C231 1.240 . S
O223 In221 2.326 . S
O223 C231 1.252 . S
C224 O227 1.252 . S
C224 O228 1.260 . S
C225 O232 1.240 . S
C225 O233 1.252 . S
C226 O229 1.252 . S
C226 O230 1.260 . S
O227 In221 2.266 . S
O227 C224 1.252 . S
O228 In221 2.326 . S
O228 C224 1.260 . S
O229 In221 2.266 . S
O229 C226 1.252 . S
O230 In221 2.326 . S
O230 C226 1.260 . S
C231 O222 1.240 . S
C231 O223 1.252 . S
O232 In221 2.294 . S
O232 C225 1.240 . S
O233 In221 2.326 . S
O233 C225 1.252 . S
H234 C242 0.950 . S
H235 C247 0.950 . S
H236 C244 0.950 . S
H237 C246 0.950 1_554 S
H238 C248 0.950 . S
H239 C250 0.950 . S
H240 C252 0.950 1_556 S
H241 C253 0.950 . S
C242 H234 0.950 . S
C242 C243 1.386 . S
C242 C244 1.391 . S
C243 C242 1.386 . S
C243 C247 1.393 . S
C244 H236 0.950 . S
C244 C242 1.391 . S
C244 C245 1.400 . S
C245 C244 1.400 . S
C245 C246 1.398 . S
C245 C251 1.491 1_556 S
C246 H237 0.950 1_556 S
C246 C245 1.398 . S
C246 C247 1.391 . S
C247 H235 0.950 . S
C247 C243 1.393 . S
C247 C246 1.391 . S
C248 H238 0.950 . S
C248 C249 1.386 . S
C248 C250 1.391 . S
C249 C248 1.386 . S
C249 C253 1.393 . S
C250 H239 0.950 . S
C250 C248 1.391 . S
C250 C251 1.400 . S
C251 C245 1.491 1_554 S
C251 C250 1.400 . S
C251 C252 1.398 . S
C252 H240 0.950 1_554 S
C252 C251 1.398 . S
C252 C253 1.391 . S
C253 H241 0.950 . S
C253 C249 1.393 . S
C253 C252 1.391 . S
H254 C262 0.950 . S
H255 C267 0.950 . S
H256 C264 0.950 1_554 S
H257 C266 0.950 . S
H258 C268 0.950 . S
H259 C270 0.950 1_556 S
H260 C272 0.950 . S
H261 C273 0.950 . S
C262 H254 0.950 . S
C262 C263 1.386 . S
C262 C264 1.391 . S
C263 C262 1.386 . S
C263 C267 1.393 . S
C264 H256 0.950 1_556 S
C264 C262 1.391 . S
C264 C265 1.400 . S
C265 C264 1.400 . S
C265 C266 1.398 . S
C265 C271 1.491 1_556 S
C266 H257 0.950 . S
C266 C265 1.398 . S
C266 C267 1.391 . S
C267 H255 0.950 . S
C267 C263 1.393 . S
C267 C266 1.391 . S
C268 H258 0.950 . S
C268 C269 1.386 . S
C268 C270 1.391 . S
C269 C268 1.386 . S
C269 C273 1.393 . S
C270 H259 0.950 1_554 S
C270 C268 1.391 . S
C270 C271 1.400 . S
C271 C265 1.491 1_554 S
C271 C270 1.400 . S
C271 C272 1.398 . S
C272 H260 0.950 . S
C272 C271 1.398 . S
C272 C273 1.391 . S
C273 H261 0.950 . S
C273 C269 1.393 . S
C273 C272 1.391 . S
H274 C282 0.950 . S
H275 C287 0.950 . S
H276 C284 0.950 1_556 S
H277 C286 0.950 . S
H278 C288 0.950 . S
H279 C290 0.950 1_554 S
H280 C292 0.950 . S
H281 C293 0.950 . S
C282 H274 0.950 . S
C282 C283 1.386 . S
C282 C284 1.391 . S
C283 C282 1.386 . S
C283 C287 1.393 . S
C284 H276 0.950 1_554 S
C284 C282 1.391 . S
C284 C285 1.400 . S
C285 C284 1.400 . S
C285 C286 1.398 . S
C285 C291 1.491 1_554 S
C286 H277 0.950 . S
C286 C285 1.398 . S
C286 C287 1.391 . S
C287 H275 0.950 . S
C287 C283 1.393 . S
C287 C286 1.391 . S
C288 H278 0.950 . S
C288 C289 1.386 . S
C288 C290 1.391 . S
C289 C288 1.386 . S
C289 C293 1.393 . S
C290 H279 0.950 1_556 S
C290 C288 1.391 . S
C290 C291 1.400 . S
C291 C285 1.491 1_556 S
C291 C290 1.400 . S
C291 C292 1.398 . S
C292 H280 0.950 . S
C292 C291 1.398 . S
C292 C293 1.391 . S
C293 H281 0.950 . S
C293 C289 1.393 . S
C293 C292 1.391 . S
H294 C302 0.950 . S
H295 C307 0.950 . S
H296 C304 0.950 . S
H297 C306 0.950 . S
H298 C308 0.950 . S
H299 C310 0.950 . S
H300 C312 0.950 . S
H301 C313 0.950 . S
C302 H294 0.950 . S
C302 C303 1.386 . S
C302 C304 1.391 . S
C303 C302 1.386 . S
C303 C307 1.393 . S
C304 H296 0.950 . S
C304 C302 1.391 . S
C304 C305 1.400 . S
C305 C304 1.400 . S
C305 C306 1.398 . S
C305 C311 1.491 . S
C306 H297 0.950 . S
C306 C305 1.398 . S
C306 C307 1.391 . S
C307 H295 0.950 . S
C307 C303 1.393 . S
C307 C306 1.391 . S
C308 H298 0.950 . S
C308 C309 1.386 . S
C308 C310 1.391 . S
C309 C308 1.386 . S
C309 C313 1.393 . S
C310 H299 0.950 . S
C310 C308 1.391 . S
C310 C311 1.400 . S
C311 C305 1.491 . S
C311 C310 1.400 . S
C311 C312 1.398 . S
C312 H300 0.950 . S
C312 C311 1.398 . S
C312 C313 1.391 . S
C313 H301 0.950 . S
C313 C309 1.393 . S
C313 C312 1.391 . S
H314 C322 0.950 . S
H315 C327 0.950 . S
H316 C324 0.950 . S
H317 C326 0.950 . S
H318 C328 0.950 . S
H319 C330 0.950 . S
H320 C332 0.950 . S
H321 C333 0.950 . S
C322 H314 0.950 . S
C322 C323 1.386 . S
C322 C324 1.391 . S
C323 C322 1.386 . S
C323 C327 1.393 . S
C324 H316 0.950 . S
C324 C322 1.391 . S
C324 C325 1.400 . S
C325 C324 1.400 . S
C325 C326 1.398 . S
C325 C331 1.491 . S
C326 H317 0.950 . S
C326 C325 1.398 . S
C326 C327 1.391 . S
C327 H315 0.950 . S
C327 C323 1.393 . S
C327 C326 1.391 . S
C328 H318 0.950 . S
C328 C329 1.386 . S
C328 C330 1.391 . S
C329 C328 1.386 . S
C329 C333 1.393 . S
C330 H319 0.950 . S
C330 C328 1.391 . S
C330 C331 1.400 . S
C331 C325 1.491 . S
C331 C330 1.400 . S
C331 C332 1.398 . S
C332 H320 0.950 . S
C332 C331 1.398 . S
C332 C333 1.391 . S
C333 H321 0.950 . S
C333 C329 1.393 . S
C333 C332 1.391 . S
H334 C342 0.950 . S
H335 C347 0.950 . S
H336 C344 0.950 . S
H337 C346 0.950 . S
H338 C348 0.950 . S
H339 C350 0.950 . S
H340 C352 0.950 . S
H341 C353 0.950 . S
C342 H334 0.950 . S
C342 C343 1.386 . S
C342 C344 1.391 . S
C343 C342 1.386 . S
C343 C347 1.393 . S
C344 H336 0.950 . S
C344 C342 1.391 . S
C344 C345 1.400 . S
C345 C344 1.400 . S
C345 C346 1.398 . S
C345 C351 1.491 . S
C346 H337 0.950 . S
C346 C345 1.398 . S
C346 C347 1.391 . S
C347 H335 0.950 . S
C347 C343 1.393 . S
C347 C346 1.391 . S
C348 H338 0.950 . S
C348 C349 1.386 . S
C348 C350 1.391 . S
C349 C348 1.386 . S
C349 C353 1.393 . S
C350 H339 0.950 . S
C350 C348 1.391 . S
C350 C351 1.400 . S
C351 C345 1.491 . S
C351 C350 1.400 . S
C351 C352 1.398 . S
C352 H340 0.950 . S
C352 C351 1.398 . S
C352 C353 1.391 . S
C353 H341 0.950 . S
C353 C349 1.393 . S
C353 C352 1.391 . S
H354 C362 0.950 . S
H355 C367 0.950 . S
H356 C364 0.950 . S
H357 C366 0.950 . S
H358 C368 0.950 . S
H359 C370 0.950 . S
H360 C372 0.950 . S
H361 C373 0.950 . S
C362 H354 0.950 . S
C362 C363 1.386 . S
C362 C364 1.391 . S
C363 C362 1.386 . S
C363 C367 1.393 . S
C364 H356 0.950 . S
C364 C362 1.391 . S
C364 C365 1.400 . S
C365 C364 1.400 . S
C365 C366 1.398 . S
C365 C371 1.491 . S
C366 H357 0.950 . S
C366 C365 1.398 . S
C366 C367 1.391 . S
C367 H355 0.950 . S
C367 C363 1.393 . S
C367 C366 1.391 . S
C368 H358 0.950 . S
C368 C369 1.386 . S
C368 C370 1.391 . S
C369 C368 1.386 . S
C369 C373 1.393 . S
C370 H359 0.950 . S
C370 C368 1.391 . S
C370 C371 1.400 . S
C371 C365 1.491 . S
C371 C370 1.400 . S
C371 C372 1.398 . S
C372 H360 0.950 . S
C372 C371 1.398 . S
C372 C373 1.391 . S
C373 H361 0.950 . S
C373 C369 1.393 . S
C373 C372 1.391 . S
H374 C382 0.950 . S
H375 C387 0.950 . S
H376 C384 0.950 . S
H377 C386 0.950 . S
H378 C388 0.950 . S
H379 C390 0.950 . S
H380 C392 0.950 . S
H381 C393 0.950 . S
C382 H374 0.950 . S
C382 C383 1.386 . S
C382 C384 1.391 . S
C383 C382 1.386 . S
C383 C387 1.393 . S
C384 H376 0.950 . S
C384 C382 1.391 . S
C384 C385 1.400 . S
C385 C384 1.400 . S
C385 C386 1.398 . S
C385 C391 1.491 . S
C386 H377 0.950 . S
C386 C385 1.398 . S
C386 C387 1.391 . S
C387 H375 0.950 . S
C387 C383 1.393 . S
C387 C386 1.391 . S
C388 H378 0.950 . S
C388 C389 1.386 . S
C388 C390 1.391 . S
C389 C388 1.386 . S
C389 C393 1.393 . S
C390 H379 0.950 . S
C390 C388 1.391 . S
C390 C391 1.400 . S
C391 C385 1.491 . S
C391 C390 1.400 . S
C391 C392 1.398 . S
C392 H380 0.950 . S
C392 C391 1.398 . S
C392 C393 1.391 . S
C393 H381 0.950 . S
C393 C389 1.393 . S
C393 C392 1.391 . S
H394 C402 0.950 . S
H395 C407 0.950 . S
H396 C404 0.950 . S
H397 C406 0.950 . S
H398 C408 0.950 . S
H399 C410 0.950 . S
H400 C412 0.950 . S
H401 C413 0.950 . S
C402 H394 0.950 . S
C402 C403 1.386 . S
C402 C404 1.391 . S
C403 C402 1.386 . S
C403 C407 1.393 . S
C404 H396 0.950 . S
C404 C402 1.391 . S
C404 C405 1.400 . S
C405 C404 1.400 . S
C405 C406 1.398 . S
C405 C411 1.491 . S
C406 H397 0.950 . S
C406 C405 1.398 . S
C406 C407 1.391 . S
C407 H395 0.950 . S
C407 C403 1.393 . S
C407 C406 1.391 . S
C408 H398 0.950 . S
C408 C409 1.386 . S
C408 C410 1.391 . S
C409 C408 1.386 . S
C409 C413 1.393 . S
C410 H399 0.950 . S
C410 C408 1.391 . S
C410 C411 1.400 . S
C411 C405 1.491 . S
C411 C410 1.400 . S
C411 C412 1.398 . S
C412 H400 0.950 . S
C412 C411 1.398 . S
C412 C413 1.391 . S
C413 H401 0.950 . S
C413 C409 1.393 . S
C413 C412 1.391 . S
H414 C422 0.950 . S
H415 C427 0.950 . S
H416 C424 0.950 . S
H417 C426 0.950 . S
H418 C428 0.950 . S
H419 C430 0.950 . S
H420 C432 0.950 . S
H421 C433 0.950 . S
C422 H414 0.950 . S
C422 C423 1.386 . S
C422 C424 1.391 . S
C423 C422 1.386 . S
C423 C427 1.393 . S
C424 H416 0.950 . S
C424 C422 1.391 . S
C424 C425 1.400 . S
C425 C424 1.400 . S
C425 C426 1.398 . S
C425 C431 1.491 . S
C426 H417 0.950 . S
C426 C425 1.398 . S
C426 C427 1.391 . S
C427 H415 0.950 . S
C427 C423 1.393 . S
C427 C426 1.391 . S
C428 H418 0.950 . S
C428 C429 1.386 . S
C428 C430 1.391 . S
C429 C428 1.386 . S
C429 C433 1.393 . S
C430 H419 0.950 . S
C430 C428 1.391 . S
C430 C431 1.400 . S
C431 C425 1.491 . S
C431 C430 1.400 . S
C431 C432 1.398 . S
C432 H420 0.950 . S
C432 C431 1.398 . S
C432 C433 1.391 . S
C433 H421 0.950 . S
C433 C429 1.393 . S
C433 C432 1.391 . S
H434 C442 0.950 . S
H435 C447 0.950 . S
H436 C444 0.950 . S
H437 C446 0.950 . S
H438 C448 0.950 . S
H439 C450 0.950 . S
H440 C452 0.950 . S
H441 C453 0.950 . S
C442 H434 0.950 . S
C442 C443 1.386 . S
C442 C444 1.391 . S
C443 C442 1.386 . S
C443 C447 1.393 . S
C444 H436 0.950 . S
C444 C442 1.391 . S
C444 C445 1.400 . S
C445 C444 1.400 . S
C445 C446 1.398 . S
C445 C451 1.491 . S
C446 H437 0.950 . S
C446 C445 1.398 . S
C446 C447 1.391 . S
C447 H435 0.950 . S
C447 C443 1.393 . S
C447 C446 1.391 . S
C448 H438 0.950 . S
C448 C449 1.386 . S
C448 C450 1.391 . S
C449 C448 1.386 . S
C449 C453 1.393 . S
C450 H439 0.950 . S
C450 C448 1.391 . S
C450 C451 1.400 . S
C451 C445 1.491 . S
C451 C450 1.400 . S
C451 C452 1.398 . S
C452 H440 0.950 . S
C452 C451 1.398 . S
C452 C453 1.391 . S
C453 H441 0.950 . S
C453 C449 1.393 . S
C453 C452 1.391 . S
H454 C462 0.950 . S
H455 C467 0.950 . S
H456 C464 0.950 . S
H457 C466 0.950 . S
H458 C468 0.950 . S
H459 C470 0.950 . S
H460 C472 0.950 . S
H461 C473 0.950 . S
C462 H454 0.950 . S
C462 C463 1.386 . S
C462 C464 1.391 . S
C463 C462 1.386 . S
C463 C467 1.393 . S
C464 H456 0.950 . S
C464 C462 1.391 . S
C464 C465 1.400 . S
C465 C464 1.400 . S
C465 C466 1.398 . S
C465 C471 1.491 . S
C466 H457 0.950 . S
C466 C465 1.398 . S
C466 C467 1.391 . S
C467 H455 0.950 . S
C467 C463 1.393 . S
C467 C466 1.391 . S
C468 H458 0.950 . S
C468 C469 1.386 . S
C468 C470 1.391 . S
C469 C468 1.386 . S
C469 C473 1.393 . S
C470 H459 0.950 . S
C470 C468 1.391 . S
C470 C471 1.400 . S
C471 C465 1.491 . S
C471 C470 1.400 . S
C471 C472 1.398 . S
C472 H460 0.950 . S
C472 C471 1.398 . S
C472 C473 1.391 . S
C473 H461 0.950 . S
C473 C469 1.393 . S
C473 C472 1.391 . S
H474 C482 0.950 . S
H475 C487 0.950 . S
H476 C484 0.950 . S
H477 C486 0.950 . S
H478 C488 0.950 . S
H479 C490 0.950 . S
H480 C492 0.950 . S
H481 C493 0.950 . S
C482 H474 0.950 . S
C482 C483 1.386 . S
C482 C484 1.391 . S
C483 C482 1.386 . S
C483 C487 1.393 . S
C484 H476 0.950 . S
C484 C482 1.391 . S
C484 C485 1.400 . S
C485 C484 1.400 . S
C485 C486 1.398 . S
C485 C491 1.491 . S
C486 H477 0.950 . S
C486 C485 1.398 . S
C486 C487 1.391 . S
C487 H475 0.950 . S
C487 C483 1.393 . S
C487 C486 1.391 . S
C488 H478 0.950 . S
C488 C489 1.386 . S
C488 C490 1.391 . S
C489 C488 1.386 . S
C489 C493 1.393 . S
C490 H479 0.950 . S
C490 C488 1.391 . S
C490 C491 1.400 . S
C491 C485 1.491 . S
C491 C490 1.400 . S
C491 C492 1.398 . S
C492 H480 0.950 . S
C492 C491 1.398 . S
C492 C493 1.391 . S
C493 H481 0.950 . S
C493 C489 1.393 . S
C493 C492 1.391 . S
H494 C502 0.950 . S
H495 C507 0.950 . S
H496 C504 0.950 . S
H497 C506 0.950 . S
H498 C508 0.950 . S
H499 C510 0.950 . S
H500 C512 0.950 . S
H501 C513 0.950 . S
C502 H494 0.950 . S
C502 C503 1.386 . S
C502 C504 1.391 . S
C503 C502 1.386 . S
C503 C507 1.393 . S
C504 H496 0.950 . S
C504 C502 1.391 . S
C504 C505 1.400 . S
C505 C504 1.400 . S
C505 C506 1.398 . S
C505 C511 1.491 . S
C506 H497 0.950 . S
C506 C505 1.398 . S
C506 C507 1.391 . S
C507 H495 0.950 . S
C507 C503 1.393 . S
C507 C506 1.391 . S
C508 H498 0.950 . S
C508 C509 1.386 . S
C508 C510 1.391 . S
C509 C508 1.386 . S
C509 C513 1.393 . S
C510 H499 0.950 . S
C510 C508 1.391 . S
C510 C511 1.400 . S
C511 C505 1.491 . S
C511 C510 1.400 . S
C511 C512 1.398 . S
C512 H500 0.950 . S
C512 C511 1.398 . S
C512 C513 1.391 . S
C513 H501 0.950 . S
C513 C509 1.393 . S
C513 C512 1.391 . S
H514 C522 0.950 . S
H515 C527 0.950 . S
H516 C524 0.950 . S
H517 C526 0.950 . S
H518 C528 0.950 . S
H519 C530 0.950 . S
H520 C532 0.950 . S
H521 C533 0.950 . S
C522 H514 0.950 . S
C522 C523 1.386 . S
C522 C524 1.391 . S
C523 C522 1.386 . S
C523 C527 1.393 . S
C524 H516 0.950 . S
C524 C522 1.391 . S
C524 C525 1.400 . S
C525 C524 1.400 . S
C525 C526 1.398 . S
C525 C531 1.491 . S
C526 H517 0.950 . S
C526 C525 1.398 . S
C526 C527 1.391 . S
C527 H515 0.950 . S
C527 C523 1.393 . S
C527 C526 1.391 . S
C528 H518 0.950 . S
C528 C529 1.386 . S
C528 C530 1.391 . S
C529 C528 1.386 . S
C529 C533 1.393 . S
C530 H519 0.950 . S
C530 C528 1.391 . S
C530 C531 1.400 . S
C531 C525 1.491 . S
C531 C530 1.400 . S
C531 C532 1.398 . S
C532 H520 0.950 . S
C532 C531 1.398 . S
C532 C533 1.391 . S
C533 H521 0.950 . S
C533 C529 1.393 . S
C533 C532 1.391 . S
H534 C542 0.950 . S
H535 C547 0.950 . S
H536 C544 0.950 . S
H537 C546 0.950 . S
H538 C548 0.950 1_556 S
H539 C550 0.950 . S
H540 C552 0.950 . S
H541 C553 0.950 . S
C542 H534 0.950 . S
C542 C543 1.386 . S
C542 C544 1.391 . S
C543 C542 1.386 . S
C543 C547 1.393 . S
C544 H536 0.950 . S
C544 C542 1.391 . S
C544 C545 1.400 . S
C545 C544 1.400 . S
C545 C546 1.398 . S
C545 C551 1.491 . S
C546 H537 0.950 . S
C546 C545 1.398 . S
C546 C547 1.391 . S
C547 H535 0.950 . S
C547 C543 1.393 . S
C547 C546 1.391 . S
C548 H538 0.950 1_554 S
C548 C549 1.386 . S
C548 C550 1.391 . S
C549 C548 1.386 . S
C549 C553 1.393 . S
C550 H539 0.950 . S
C550 C548 1.391 . S
C550 C551 1.400 . S
C551 C545 1.491 . S
C551 C550 1.400 . S
C551 C552 1.398 . S
C552 H540 0.950 . S
C552 C551 1.398 . S
C552 C553 1.391 . S
C553 H541 0.950 . S
C553 C549 1.393 . S
C553 C552 1.391 . S
H554 C562 0.950 . S
H555 C567 0.950 . S
H556 C564 0.950 . S
H557 C566 0.950 . S
H558 C568 0.950 1_556 S
H559 C570 0.950 . S
H560 C572 0.950 . S
H561 C573 0.950 . S
C562 H554 0.950 . S
C562 C563 1.386 . S
C562 C564 1.391 . S
C563 C562 1.386 . S
C563 C567 1.393 . S
C564 H556 0.950 . S
C564 C562 1.391 . S
C564 C565 1.400 . S
C565 C564 1.400 . S
C565 C566 1.398 . S
C565 C571 1.491 . S
C566 H557 0.950 . S
C566 C565 1.398 . S
C566 C567 1.391 . S
C567 H555 0.950 . S
C567 C563 1.393 . S
C567 C566 1.391 . S
C568 H558 0.950 1_554 S
C568 C569 1.386 . S
C568 C570 1.391 . S
C569 C568 1.386 . S
C569 C573 1.393 . S
C570 H559 0.950 . S
C570 C568 1.391 . S
C570 C571 1.400 . S
C571 C565 1.491 . S
C571 C570 1.400 . S
C571 C572 1.398 . S
C572 H560 0.950 . S
C572 C571 1.398 . S
C572 C573 1.391 . S
C573 H561 0.950 . S
C573 C569 1.393 . S
C573 C572 1.391 . S
H574 C582 0.950 . S
H575 C587 0.950 . S
H576 C584 0.950 . S
H577 C586 0.950 . S
H578 C588 0.950 . S
H579 C590 0.950 . S
H580 C592 0.950 . S
H581 C593 0.950 . S
C582 H574 0.950 . S
C582 C583 1.386 . S
C582 C584 1.391 . S
C583 C582 1.386 . S
C583 C587 1.393 . S
C584 H576 0.950 . S
C584 C582 1.391 . S
C584 C585 1.400 . S
C585 C584 1.400 . S
C585 C586 1.398 . S
C585 C591 1.491 . S
C586 H577 0.950 . S
C586 C585 1.398 . S
C586 C587 1.391 . S
C587 H575 0.950 . S
C587 C583 1.393 . S
C587 C586 1.391 . S
C588 H578 0.950 . S
C588 C589 1.386 . S
C588 C590 1.391 . S
C589 C588 1.386 . S
C589 C593 1.393 . S
C590 H579 0.950 . S
C590 C588 1.391 . S
C590 C591 1.400 . S
C591 C585 1.491 . S
C591 C590 1.400 . S
C591 C592 1.398 . S
C592 H580 0.950 . S
C592 C591 1.398 . S
C592 C593 1.391 . S
C593 H581 0.950 . S
C593 C589 1.393 . S
C593 C592 1.391 . S
H594 C602 0.950 . S
H595 C607 0.950 . S
H596 C604 0.950 . S
H597 C606 0.950 . S
H598 C608 0.950 . S
H599 C610 0.950 . S
H600 C612 0.950 . S
H601 C613 0.950 . S
C602 H594 0.950 . S
C602 C603 1.386 . S
C602 C604 1.391 . S
C603 C602 1.386 . S
C603 C607 1.393 . S
C604 H596 0.950 . S
C604 C602 1.391 . S
C604 C605 1.400 . S
C605 C604 1.400 . S
C605 C606 1.398 . S
C605 C611 1.491 . S
C606 H597 0.950 . S
C606 C605 1.398 . S
C606 C607 1.391 . S
C607 H595 0.950 . S
C607 C603 1.393 . S
C607 C606 1.391 . S
C608 H598 0.950 . S
C608 C609 1.386 . S
C608 C610 1.391 . S
C609 C608 1.386 . S
C609 C613 1.393 . S
C610 H599 0.950 . S
C610 C608 1.391 . S
C610 C611 1.400 . S
C611 C605 1.491 . S
C611 C610 1.400 . S
C611 C612 1.398 . S
C612 H600 0.950 . S
C612 C611 1.398 . S
C612 C613 1.391 . S
C613 H601 0.950 . S
C613 C609 1.393 . S
C613 C612 1.391 . S
H614 C622 0.950 . S
H615 C627 0.950 . S
H616 C624 0.950 . S
H617 C626 0.950 . S
H618 C628 0.950 . S
H619 C630 0.950 . S
H620 C632 0.950 . S
H621 C633 0.950 . S
C622 H614 0.950 . S
C622 C623 1.386 . S
C622 C624 1.391 . S
C623 C622 1.386 . S
C623 C627 1.393 . S
C624 H616 0.950 . S
C624 C622 1.391 . S
C624 C625 1.400 . S
C625 C624 1.400 . S
C625 C626 1.398 . S
C625 C631 1.491 . S
C626 H617 0.950 . S
C626 C625 1.398 . S
C626 C627 1.391 . S
C627 H615 0.950 . S
C627 C623 1.393 . S
C627 C626 1.391 . S
C628 H618 0.950 . S
C628 C629 1.386 . S
C628 C630 1.391 . S
C629 C628 1.386 . S
C629 C633 1.393 . S
C630 H619 0.950 . S
C630 C628 1.391 . S
C630 C631 1.400 . S
C631 C625 1.491 . S
C631 C630 1.400 . S
C631 C632 1.398 . S
C632 H620 0.950 . S
C632 C631 1.398 . S
C632 C633 1.391 . S
C633 H621 0.950 . S
C633 C629 1.393 . S
C633 C632 1.391 . S
H634 C642 0.950 . S
H635 C647 0.950 . S
H636 C644 0.950 . S
H637 C646 0.950 . S
H638 C648 0.950 . S
H639 C650 0.950 . S
H640 C652 0.950 . S
H641 C653 0.950 . S
C642 H634 0.950 . S
C642 C643 1.386 . S
C642 C644 1.391 . S
C643 C642 1.386 . S
C643 C647 1.393 . S
C644 H636 0.950 . S
C644 C642 1.391 . S
C644 C645 1.400 . S
C645 C644 1.400 . S
C645 C646 1.398 . S
C645 C651 1.491 . S
C646 H637 0.950 . S
C646 C645 1.398 . S
C646 C647 1.391 . S
C647 H635 0.950 . S
C647 C643 1.393 . S
C647 C646 1.391 . S
C648 H638 0.950 . S
C648 C649 1.386 . S
C648 C650 1.391 . S
C649 C648 1.386 . S
C649 C653 1.393 . S
C650 H639 0.950 . S
C650 C648 1.391 . S
C650 C651 1.400 . S
C651 C645 1.491 . S
C651 C650 1.400 . S
C651 C652 1.398 . S
C652 H640 0.950 . S
C652 C651 1.398 . S
C652 C653 1.391 . S
C653 H641 0.950 . S
C653 C649 1.393 . S
C653 C652 1.391 . S
H654 C662 0.950 . S
H655 C667 0.950 . S
H656 C664 0.950 . S
H657 C666 0.950 . S
H658 C668 0.950 1_556 S
H659 C670 0.950 . S
H660 C672 0.950 . S
H661 C673 0.950 . S
C662 H654 0.950 . S
C662 C663 1.386 . S
C662 C664 1.391 . S
C663 C662 1.386 . S
C663 C667 1.393 . S
C664 H656 0.950 . S
C664 C662 1.391 . S
C664 C665 1.400 . S
C665 C664 1.400 . S
C665 C666 1.398 . S
C665 C671 1.491 . S
C666 H657 0.950 . S
C666 C665 1.398 . S
C666 C667 1.391 . S
C667 H655 0.950 . S
C667 C663 1.393 . S
C667 C666 1.391 . S
C668 H658 0.950 1_554 S
C668 C669 1.386 1_554 S
C668 C670 1.391 . S
C669 C668 1.386 1_556 S
C669 C673 1.393 1_556 S
C670 H659 0.950 . S
C670 C668 1.391 . S
C670 C671 1.400 . S
C671 C665 1.491 . S
C671 C670 1.400 . S
C671 C672 1.398 . S
C672 H660 0.950 . S
C672 C671 1.398 . S
C672 C673 1.391 . S
C673 H661 0.950 . S
C673 C669 1.393 1_554 S
C673 C672 1.391 . S
H674 C682 0.950 1_556 S
H675 C687 0.985 . S
H676 C684 0.950 . S
H677 C686 0.954 . S
H678 C688 0.950 . S
H679 C690 0.950 . S
H680 C692 0.950 . S
H681 C693 0.950 . S
C682 H674 0.950 1_554 S
C682 C683 1.386 1_554 S
C682 C684 1.391 . S
C683 C682 1.386 1_556 S
C683 C687 1.389 1_456 S
C684 H676 0.950 . S
C684 C682 1.391 . S
C684 C685 1.400 . S
C685 C684 1.400 . S
C685 C686 1.398 . S
C685 C691 1.491 . S
C686 H677 0.954 . S
C686 C685 1.398 . S
C686 C687 1.361 1_455 S
C687 H675 0.985 . S
C687 C683 1.389 1_654 S
C687 C686 1.361 1_655 S
C688 H678 0.950 . S
C688 C689 1.386 . S
C688 C690 1.391 . S
C689 C688 1.386 . S
C689 C693 1.393 . S
C690 H679 0.950 . S
C690 C688 1.391 . S
C690 C691 1.400 . S
C691 C685 1.491 . S
C691 C690 1.400 . S
C691 C692 1.398 . S
C692 H680 0.950 . S
C692 C691 1.398 . S
C692 C693 1.391 . S
C693 H681 0.950 . S
C693 C689 1.393 . S
C693 C692 1.391 . S
H694 C702 0.950 . S
H695 C707 0.950 . S
H696 C704 0.950 . S
H697 C706 0.950 1_556 S
H698 C708 0.950 . S
H699 C710 0.950 . S
H700 C712 0.950 . S
H701 C713 0.950 . S
C702 H694 0.950 . S
C702 C703 1.386 1_554 S
C702 C704 1.391 . S
C703 C702 1.386 1_556 S
C703 C707 1.393 . S
C704 H696 0.950 . S
C704 C702 1.391 . S
C704 C705 1.400 . S
C705 C704 1.400 . S
C705 C706 1.398 . S
C705 C711 1.491 . S
C706 H697 0.950 1_554 S
C706 C705 1.398 . S
C706 C707 1.391 1_554 S
C707 H695 0.950 . S
C707 C703 1.393 . S
C707 C706 1.391 1_556 S
C708 H698 0.950 . S
C708 C709 1.386 . S
C708 C710 1.391 . S
C709 C708 1.386 . S
C709 C713 1.393 . S
C710 H699 0.950 . S
C710 C708 1.391 . S
C710 C711 1.400 . S
C711 C705 1.491 . S
C711 C710 1.400 . S
C711 C712 1.398 . S
C712 H700 0.950 . S
C712 C711 1.398 . S
C712 C713 1.391 . S
C713 H701 0.950 . S
C713 C709 1.393 . S
C713 C712 1.391 . S
H714 C722 0.950 . S
H715 C727 0.950 . S
H716 C724 0.950 . S
H717 C726 0.950 . S
H718 C728 0.950 . S
H719 C730 0.950 . S
H720 C732 0.950 . S
H721 C733 0.950 . S
C722 H714 0.950 . S
C722 C723 1.386 . S
C722 C724 1.391 . S
C723 C722 1.386 . S
C723 C727 1.393 . S
C724 H716 0.950 . S
C724 C722 1.391 . S
C724 C725 1.400 . S
C725 C724 1.400 . S
C725 C726 1.398 . S
C725 C731 1.491 . S
C726 H717 0.950 . S
C726 C725 1.398 . S
C726 C727 1.391 . S
C727 H715 0.950 . S
C727 C723 1.393 . S
C727 C726 1.391 . S
C728 H718 0.950 . S
C728 C729 1.386 . S
C728 C730 1.391 . S
C729 C728 1.386 . S
C729 C733 1.393 . S
C730 H719 0.950 . S
C730 C728 1.391 . S
C730 C731 1.400 . S
C731 C725 1.491 . S
C731 C730 1.400 . S
C731 C732 1.398 . S
C732 H720 0.950 . S
C732 C731 1.398 . S
C732 C733 1.391 . S
C733 H721 0.950 . S
C733 C729 1.393 . S
C733 C732 1.391 . S
H734 C742 0.950 . S
H735 C747 0.950 . S
H736 C744 0.950 . S
H737 C746 0.950 . S
H738 C748 0.950 . S
H739 C750 0.950 . S
H740 C752 0.950 . S
H741 C753 0.950 . S
C742 H734 0.950 . S
C742 C743 1.386 . S
C742 C744 1.391 . S
C743 C742 1.386 . S
C743 C747 1.393 . S
C744 H736 0.950 . S
C744 C742 1.391 . S
C744 C745 1.400 . S
C745 C744 1.400 . S
C745 C746 1.398 . S
C745 C751 1.491 . S
C746 H737 0.950 . S
C746 C745 1.398 . S
C746 C747 1.391 . S
C747 H735 0.950 . S
C747 C743 1.393 . S
C747 C746 1.391 . S
C748 H738 0.950 . S
C748 C749 1.386 . S
C748 C750 1.391 . S
C749 C748 1.386 . S
C749 C753 1.393 . S
C750 H739 0.950 . S
C750 C748 1.391 . S
C750 C751 1.400 . S
C751 C745 1.491 . S
C751 C750 1.400 . S
C751 C752 1.398 . S
C752 H740 0.950 . S
C752 C751 1.398 . S
C752 C753 1.391 . S
C753 H741 0.950 . S
C753 C749 1.393 . S
C753 C752 1.391 . S
H754 C762 0.950 . S
H755 C767 0.950 . S
H756 C764 0.950 . S
H757 C766 0.950 . S
H758 C768 0.950 . S
H759 C770 0.950 . S
H760 C772 0.950 . S
H761 C773 0.950 . S
C762 H754 0.950 . S
C762 C763 1.386 . S
C762 C764 1.391 . S
C763 C762 1.386 . S
C763 C767 1.393 . S
C764 H756 0.950 . S
C764 C762 1.391 . S
C764 C765 1.400 . S
C765 C764 1.400 . S
C765 C766 1.398 . S
C765 C771 1.491 . S
C766 H757 0.950 . S
C766 C765 1.398 . S
C766 C767 1.391 . S
C767 H755 0.950 . S
C767 C763 1.393 . S
C767 C766 1.391 . S
C768 H758 0.950 . S
C768 C769 1.386 . S
C768 C770 1.391 . S
C769 C768 1.386 . S
C769 C773 1.393 . S
C770 H759 0.950 . S
C770 C768 1.391 . S
C770 C771 1.400 . S
C771 C765 1.491 . S
C771 C770 1.400 . S
C771 C772 1.398 . S
C772 H760 0.950 . S
C772 C771 1.398 . S
C772 C773 1.391 . S
C773 H761 0.950 . S
C773 C769 1.393 . S
C773 C772 1.391 . S
H774 C782 0.950 . S
H775 C787 0.950 1_564 S
H776 C784 0.950 . S
H777 C786 0.950 . S
H778 C788 0.950 . S
H779 C790 0.950 . S
H780 C792 0.950 . S
H781 C793 0.950 . S
C782 H774 0.950 . S
C782 C783 1.386 1_556 S
C782 C784 1.391 . S
C783 C782 1.386 1_554 S
C783 C787 1.393 1_554 S
C784 H776 0.950 . S
C784 C782 1.391 . S
C784 C785 1.400 . S
C785 C784 1.400 . S
C785 C786 1.398 . S
C785 C791 1.491 . S
C786 H777 0.950 . S
C786 C785 1.398 . S
C786 C787 1.391 . S
C787 H775 0.950 1_546 S
C787 C783 1.393 1_556 S
C787 C786 1.391 . S
C788 H778 0.950 . S
C788 C789 1.386 . S
C788 C790 1.391 . S
C789 C788 1.386 . S
C789 C793 1.393 . S
C790 H779 0.950 . S
C790 C788 1.391 . S
C790 C791 1.400 . S
C791 C785 1.491 . S
C791 C790 1.400 . S
C791 C792 1.398 . S
C792 H780 0.950 . S
C792 C791 1.398 . S
C792 C793 1.391 . S
C793 H781 0.950 . S
C793 C789 1.393 . S
C793 C792 1.391 . S
H794 C802 0.950 . S
H795 C807 0.950 . S
H796 C804 0.950 . S
H797 C806 0.950 . S
H798 C808 0.950 1_554 S
H799 C810 0.950 . S
H800 C812 0.950 . S
H801 C813 0.950 . S
C802 H794 0.950 . S
C802 C803 1.386 . S
C802 C804 1.391 . S
C803 C802 1.386 . S
C803 C807 1.393 . S
C804 H796 0.950 . S
C804 C802 1.391 . S
C804 C805 1.400 . S
C805 C804 1.400 . S
C805 C806 1.398 . S
C805 C811 1.491 . S
C806 H797 0.950 . S
C806 C805 1.398 . S
C806 C807 1.391 . S
C807 H795 0.950 . S
C807 C803 1.393 . S
C807 C806 1.391 . S
C808 H798 0.950 1_556 S
C808 C809 1.386 1_556 S
C808 C810 1.391 . S
C809 C808 1.386 1_554 S
C809 C813 1.393 1_554 S
C810 H799 0.950 . S
C810 C808 1.391 . S
C810 C811 1.400 . S
C811 C805 1.491 . S
C811 C810 1.400 . S
C811 C812 1.398 . S
C812 H800 0.950 . S
C812 C811 1.398 . S
C812 C813 1.391 . S
C813 H801 0.950 . S
C813 C809 1.393 1_556 S
C813 C812 1.391 . S
H814 C822 0.950 . S
H815 C827 0.950 . S
H816 C824 0.950 . S
H817 C826 0.950 . S
H818 C828 0.950 . S
H819 C830 0.950 . S
H820 C832 0.950 . S
H821 C833 0.950 . S
C822 H814 0.950 . S
C822 C823 1.386 . S
C822 C824 1.391 . S
C823 C822 1.386 . S
C823 C827 1.393 . S
C824 H816 0.950 . S
C824 C822 1.391 . S
C824 C825 1.400 . S
C825 C824 1.400 . S
C825 C826 1.398 . S
C825 C831 1.491 . S
C826 H817 0.950 . S
C826 C825 1.398 . S
C826 C827 1.391 . S
C827 H815 0.950 . S
C827 C823 1.393 . S
C827 C826 1.391 . S
C828 H818 0.950 . S
C828 C829 1.386 . S
C828 C830 1.391 1_554 S
C829 C828 1.386 . S
C829 C833 1.393 1_554 S
C830 H819 0.950 . S
C830 C828 1.391 1_556 S
C830 C831 1.400 . S
C831 C825 1.491 . S
C831 C830 1.400 . S
C831 C832 1.398 . S
C832 H820 0.950 . S
C832 C831 1.398 . S
C832 C833 1.391 . S
C833 H821 0.950 . S
C833 C829 1.393 1_556 S
C833 C832 1.391 . S
H834 C842 0.950 . S
H835 C847 0.950 . S
H836 C844 0.950 . S
H837 C846 0.950 . S
H838 C848 0.950 . S
H839 C850 0.950 . S
H840 C852 0.950 . S
H841 C853 0.950 . S
C842 H834 0.950 . S
C842 C843 1.386 . S
C842 C844 1.391 . S
C843 C842 1.386 . S
C843 C847 1.393 . S
C844 H836 0.950 . S
C844 C842 1.391 . S
C844 C845 1.400 . S
C845 C844 1.400 . S
C845 C846 1.398 . S
C845 C851 1.491 . S
C846 H837 0.950 . S
C846 C845 1.398 . S
C846 C847 1.391 . S
C847 H835 0.950 . S
C847 C843 1.393 . S
C847 C846 1.391 . S
C848 H838 0.950 . S
C848 C849 1.386 . S
C848 C850 1.391 . S
C849 C848 1.386 . S
C849 C853 1.393 . S
C850 H839 0.950 . S
C850 C848 1.391 . S
C850 C851 1.400 . S
C851 C845 1.491 . S
C851 C850 1.400 . S
C851 C852 1.398 . S
C852 H840 0.950 . S
C852 C851 1.398 . S
C852 C853 1.391 . S
C853 H841 0.950 . S
C853 C849 1.393 . S
C853 C852 1.391 . S
H854 C862 0.950 . S
H855 C867 0.950 . S
H856 C864 0.950 . S
H857 C866 0.950 . S
H858 C868 0.950 . S
H859 C870 0.950 . S
H860 C872 0.950 . S
H861 C873 0.950 . S
C862 H854 0.950 . S
C862 C863 1.386 . S
C862 C864 1.391 . S
C863 C862 1.386 . S
C863 C867 1.393 . S
C864 H856 0.950 . S
C864 C862 1.391 . S
C864 C865 1.400 . S
C865 C864 1.400 . S
C865 C866 1.398 . S
C865 C871 1.491 . S
C866 H857 0.950 . S
C866 C865 1.398 . S
C866 C867 1.391 . S
C867 H855 0.950 . S
C867 C863 1.393 . S
C867 C866 1.391 . S
C868 H858 0.950 . S
C868 C869 1.386 . S
C868 C870 1.391 . S
C869 C868 1.386 . S
C869 C873 1.393 . S
C870 H859 0.950 . S
C870 C868 1.391 . S
C870 C871 1.400 . S
C871 C865 1.491 . S
C871 C870 1.400 . S
C871 C872 1.398 . S
C872 H860 0.950 . S
C872 C871 1.398 . S
C872 C873 1.391 . S
C873 H861 0.950 . S
C873 C869 1.393 . S
C873 C872 1.391 . S
H874 C882 0.950 . S
H875 C887 0.950 . S
H876 C884 0.950 . S
H877 C886 0.950 . S
H878 C888 0.950 . S
H879 C890 0.950 . S
H880 C892 0.950 . S
H881 C893 0.950 . S
C882 H874 0.950 . S
C882 C883 1.386 . S
C882 C884 1.391 . S
C883 C882 1.386 . S
C883 C887 1.393 . S
C884 H876 0.950 . S
C884 C882 1.391 . S
C884 C885 1.400 . S
C885 C884 1.400 . S
C885 C886 1.398 . S
C885 C891 1.491 . S
C886 H877 0.950 . S
C886 C885 1.398 . S
C886 C887 1.391 . S
C887 H875 0.950 . S
C887 C883 1.393 . S
C887 C886 1.391 . S
C888 H878 0.950 . S
C888 C889 1.386 . S
C888 C890 1.391 . S
C889 C888 1.386 . S
C889 C893 1.393 . S
C890 H879 0.950 . S
C890 C888 1.391 . S
C890 C891 1.400 . S
C891 C885 1.491 . S
C891 C890 1.400 . S
C891 C892 1.398 . S
C892 H880 0.950 . S
C892 C891 1.398 . S
C892 C893 1.391 . S
C893 H881 0.950 . S
C893 C889 1.393 . S
C893 C892 1.391 . S
H894 C902 0.950 . S
H895 C907 0.950 . S
H896 C904 0.950 . S
H897 C906 0.950 . S
H898 C908 0.950 . S
H899 C910 0.950 . S
H900 C912 0.950 . S
H901 C913 0.950 . S
C902 H894 0.950 . S
C902 C903 1.386 . S
C902 C904 1.391 . S
C903 C902 1.386 . S
C903 C907 1.393 . S
C904 H896 0.950 . S
C904 C902 1.391 . S
C904 C905 1.400 . S
C905 C904 1.400 . S
C905 C906 1.398 . S
C905 C911 1.491 . S
C906 H897 0.950 . S
C906 C905 1.398 . S
C906 C907 1.391 . S
C907 H895 0.950 . S
C907 C903 1.393 . S
C907 C906 1.391 . S
C908 H898 0.950 . S
C908 C909 1.386 . S
C908 C910 1.391 . S
C909 C908 1.386 . S
C909 C913 1.393 . S
C910 H899 0.950 . S
C910 C908 1.391 . S
C910 C911 1.400 . S
C911 C905 1.491 . S
C911 C910 1.400 . S
C911 C912 1.398 . S
C912 H900 0.950 . S
C912 C911 1.398 . S
C912 C913 1.391 . S
C913 H901 0.950 . S
C913 C909 1.393 . S
C913 C912 1.391 . S
H914 C922 0.950 . S
H915 C927 0.950 . S
H916 C924 0.950 . S
H917 C926 0.950 . S
H918 C928 0.950 . S
H919 C930 0.950 . S
H920 C932 0.950 . S
H921 C933 0.950 . S
C922 H914 0.950 . S
C922 C923 1.386 . S
C922 C924 1.391 . S
C923 C922 1.386 . S
C923 C927 1.393 . S
C924 H916 0.950 . S
C924 C922 1.391 . S
C924 C925 1.400 . S
C925 C924 1.400 . S
C925 C926 1.398 . S
C925 C931 1.491 . S
C926 H917 0.950 . S
C926 C925 1.398 . S
C926 C927 1.391 . S
C927 H915 0.950 . S
C927 C923 1.393 . S
C927 C926 1.391 . S
C928 H918 0.950 . S
C928 C929 1.386 . S
C928 C930 1.391 . S
C929 C928 1.386 . S
C929 C933 1.393 . S
C930 H919 0.950 . S
C930 C928 1.391 . S
C930 C931 1.400 . S
C931 C925 1.491 . S
C931 C930 1.400 . S
C931 C932 1.398 . S
C932 H920 0.950 . S
C932 C931 1.398 . S
C932 C933 1.391 . S
C933 H921 0.950 . S
C933 C929 1.393 . S
C933 C932 1.391 . S
H934 C942 0.950 . S
H935 C947 0.950 . S
H936 C944 0.950 . S
H937 C946 0.950 . S
H938 C948 0.950 . S
H939 C950 0.950 . S
H940 C952 0.950 . S
H941 C953 0.950 . S
C942 H934 0.950 . S
C942 C943 1.386 . S
C942 C944 1.391 . S
C943 C942 1.386 . S
C943 C947 1.393 . S
C944 H936 0.950 . S
C944 C942 1.391 . S
C944 C945 1.400 . S
C945 C944 1.400 . S
C945 C946 1.398 . S
C945 C951 1.491 . S
C946 H937 0.950 . S
C946 C945 1.398 . S
C946 C947 1.391 . S
C947 H935 0.950 . S
C947 C943 1.393 . S
C947 C946 1.391 . S
C948 H938 0.950 . S
C948 C949 1.386 . S
C948 C950 1.391 . S
C949 C948 1.386 . S
C949 C953 1.393 . S
C950 H939 0.950 . S
C950 C948 1.391 . S
C950 C951 1.400 . S
C951 C945 1.491 . S
C951 C950 1.400 . S
C951 C952 1.398 . S
C952 H940 0.950 . S
C952 C951 1.398 . S
C952 C953 1.391 . S
C953 H941 0.950 . S
C953 C949 1.393 . S
C953 C952 1.391 . S
C243 C43 1.362 . S
C249 C10 1.362 . S
C263 C62 1.354 . S
C269 C23 1.354 . S
C283 C36 1.365 . S
C289 C75 1.365 . S
C303 C30 1.366 . S
C309 C69 1.366 . S
C323 C4 1.364 . S
C329 C49 1.364 . S
C343 C56 1.365 . S
C349 C17 1.365 . S
C363 C121 1.353 . S
C369 C82 1.353 . S
C383 C101 1.366 . S
C389 C140 1.366 . S
C403 C114 1.365 . S
C409 C147 1.365 . S
C423 C153 1.354 . S
C429 C108 1.354 . S
C443 C127 1.361 . S
C449 C88 1.361 . S
C463 C134 1.362 . S
C469 C95 1.362 . S
C483 C160 1.353 . S
C489 C205 1.353 . S
C503 C173 1.363 . S
C509 C218 1.363 . S
C523 C186 1.365 . S
C529 C225 1.365 . S
C543 C231 1.365 . S
C549 C192 1.365 . S
C563 C199 1.365 . S
C569 C166 1.365 . S
C583 C212 1.362 . S
C589 C179 1.362 . S
C603 C3 1.335 . S
C609 C96 1.342 . S
C623 C16 1.342 . S
C629 C109 1.335 . S
C643 C81 1.333 . S
C649 C29 1.342 . S
C663 C31 1.338 . S
C669 C174 1.341 . S
C683 C187 1.332 . S
C689 C5 1.333 . S
C703 C161 1.341 . S
C709 C18 1.335 . S
C723 C213 1.334 . S
C729 C44 1.342 . S
C743 C55 1.340 . S
C749 C224 1.331 . S
C763 C200 1.339 . S
C769 C68 1.339 . S
C783 C133 1.339 . S
C789 C70 1.340 . S
C803 C42 1.333 . S
C809 C148 1.333 . S
C823 C57 1.341 . S
C829 C122 1.337 . S
C843 C83 1.332 . S
C849 C172 1.341 . S
C863 C94 1.341 . S
C869 C185 1.332 . S
C883 C107 1.331 . S
C889 C159 1.338 . S
C903 C211 1.335 . S
C909 C146 1.342 . S
C923 C226 1.342 . S
C929 C120 1.335 . S
C943 C135 1.338 . S
C949 C198 1.330 . S
