# Generated by pormake.
# Topology som, (6)-cn, num edge types: 1
# Building blocks:
#     Node 0, Type 0, BuildingBlock: HISSIN_clean_sbu_0, # of connection points: 6
#     Node 1, Type 0, BuildingBlock: HISSIN_clean_sbu_0, # of connection points: 6
#     Node 2, Type 0, BuildingBlock: HISSIN_clean_sbu_0, # of connection points: 6
#     Node 3, Type 0, BuildingBlock: HISSIN_clean_sbu_0, # of connection points: 6
#     Node 4, Type 0, BuildingBlock: HISSIN_clean_sbu_0, # of connection points: 6
#     Node 5, Type 0, BuildingBlock: HISSIN_clean_sbu_0, # of connection points: 6
#     Node 6, Type 0, BuildingBlock: HISSIN_clean_sbu_0, # of connection points: 6
#     Node 7, Type 0, BuildingBlock: HISSIN_clean_sbu_0, # of connection points: 6
#     Node 8, Type 0, BuildingBlock: HISSIN_clean_sbu_0, # of connection points: 6
#     Node 9, Type 0, BuildingBlock: HISSIN_clean_sbu_0, # of connection points: 6
#     Node 10, Type 0, BuildingBlock: HISSIN_clean_sbu_0, # of connection points: 6
#     Node 11, Type 0, BuildingBlock: HISSIN_clean_sbu_0, # of connection points: 6
#     Node 12, Type 0, BuildingBlock: HISSIN_clean_sbu_0, # of connection points: 6
#     Node 13, Type 0, BuildingBlock: HISSIN_clean_sbu_0, # of connection points: 6
#     Node 14, Type 0, BuildingBlock: HISSIN_clean_sbu_0, # of connection points: 6
#     Node 15, Type 0, BuildingBlock: HISSIN_clean_sbu_0, # of connection points: 6
#     Node 16, Type 0, BuildingBlock: HISSIN_clean_sbu_0, # of connection points: 6
#     Node 17, Type 0, BuildingBlock: HISSIN_clean_sbu_0, # of connection points: 6
#     Node 18, Type 0, BuildingBlock: HISSIN_clean_sbu_0, # of connection points: 6
#     Node 19, Type 0, BuildingBlock: HISSIN_clean_sbu_0, # of connection points: 6
#     Node 20, Type 0, BuildingBlock: HISSIN_clean_sbu_0, # of connection points: 6
#     Node 21, Type 0, BuildingBlock: HISSIN_clean_sbu_0, # of connection points: 6
#     Node 22, Type 0, BuildingBlock: HISSIN_clean_sbu_0, # of connection points: 6
#     Node 23, Type 0, BuildingBlock: HISSIN_clean_sbu_0, # of connection points: 6
#     Node 24, Type 0, BuildingBlock: HISSIN_clean_sbu_0, # of connection points: 6
#     Node 25, Type 0, BuildingBlock: HISSIN_clean_sbu_0, # of connection points: 6
#     Node 26, Type 0, BuildingBlock: HISSIN_clean_sbu_0, # of connection points: 6
#     Node 27, Type 0, BuildingBlock: HISSIN_clean_sbu_0, # of connection points: 6
#     Node 28, Type 0, BuildingBlock: HISSIN_clean_sbu_0, # of connection points: 6
#     Node 29, Type 0, BuildingBlock: HISSIN_clean_sbu_0, # of connection points: 6
#     Node 30, Type 0, BuildingBlock: HISSIN_clean_sbu_0, # of connection points: 6
#     Node 31, Type 0, BuildingBlock: HISSIN_clean_sbu_0, # of connection points: 6
#     Edge 32, Type (0, 0), BuildingBlock: OJICUG_clean_linker_0, # of connection points: 2
#     Edge 33, Type (0, 0), BuildingBlock: OJICUG_clean_linker_0, # of connection points: 2
#     Edge 34, Type (0, 0), BuildingBlock: OJICUG_clean_linker_0, # of connection points: 2
#     Edge 35, Type (0, 0), BuildingBlock: OJICUG_clean_linker_0, # of connection points: 2
#     Edge 36, Type (0, 0), BuildingBlock: OJICUG_clean_linker_0, # of connection points: 2
#     Edge 37, Type (0, 0), BuildingBlock: OJICUG_clean_linker_0, # of connection points: 2
#     Edge 38, Type (0, 0), BuildingBlock: OJICUG_clean_linker_0, # of connection points: 2
#     Edge 39, Type (0, 0), BuildingBlock: OJICUG_clean_linker_0, # of connection points: 2
#     Edge 40, Type (0, 0), BuildingBlock: OJICUG_clean_linker_0, # of connection points: 2
#     Edge 41, Type (0, 0), BuildingBlock: OJICUG_clean_linker_0, # of connection points: 2
#     Edge 42, Type (0, 0), BuildingBlock: OJICUG_clean_linker_0, # of connection points: 2
#     Edge 43, Type (0, 0), BuildingBlock: OJICUG_clean_linker_0, # of connection points: 2
#     Edge 44, Type (0, 0), BuildingBlock: OJICUG_clean_linker_0, # of connection points: 2
#     Edge 45, Type (0, 0), BuildingBlock: OJICUG_clean_linker_0, # of connection points: 2
#     Edge 46, Type (0, 0), BuildingBlock: OJICUG_clean_linker_0, # of connection points: 2
#     Edge 47, Type (0, 0), BuildingBlock: OJICUG_clean_linker_0, # of connection points: 2
#     Edge 48, Type (0, 0), BuildingBlock: OJICUG_clean_linker_0, # of connection points: 2
#     Edge 49, Type (0, 0), BuildingBlock: OJICUG_clean_linker_0, # of connection points: 2
#     Edge 50, Type (0, 0), BuildingBlock: OJICUG_clean_linker_0, # of connection points: 2
#     Edge 51, Type (0, 0), BuildingBlock: OJICUG_clean_linker_0, # of connection points: 2
#     Edge 52, Type (0, 0), BuildingBlock: OJICUG_clean_linker_0, # of connection points: 2
#     Edge 53, Type (0, 0), BuildingBlock: OJICUG_clean_linker_0, # of connection points: 2
#     Edge 54, Type (0, 0), BuildingBlock: OJICUG_clean_linker_0, # of connection points: 2
#     Edge 55, Type (0, 0), BuildingBlock: OJICUG_clean_linker_0, # of connection points: 2
#     Edge 56, Type (0, 0), BuildingBlock: OJICUG_clean_linker_0, # of connection points: 2
#     Edge 57, Type (0, 0), BuildingBlock: OJICUG_clean_linker_0, # of connection points: 2
#     Edge 58, Type (0, 0), BuildingBlock: OJICUG_clean_linker_0, # of connection points: 2
#     Edge 59, Type (0, 0), BuildingBlock: OJICUG_clean_linker_0, # of connection points: 2
#     Edge 60, Type (0, 0), BuildingBlock: OJICUG_clean_linker_0, # of connection points: 2
#     Edge 61, Type (0, 0), BuildingBlock: OJICUG_clean_linker_0, # of connection points: 2
#     Edge 62, Type (0, 0), BuildingBlock: OJICUG_clean_linker_0, # of connection points: 2
#     Edge 63, Type (0, 0), BuildingBlock: OJICUG_clean_linker_0, # of connection points: 2
#     Edge 64, Type (0, 0), BuildingBlock: OJICUG_clean_linker_0, # of connection points: 2
#     Edge 65, Type (0, 0), BuildingBlock: OJICUG_clean_linker_0, # of connection points: 2
#     Edge 66, Type (0, 0), BuildingBlock: OJICUG_clean_linker_0, # of connection points: 2
#     Edge 67, Type (0, 0), BuildingBlock: OJICUG_clean_linker_0, # of connection points: 2
#     Edge 68, Type (0, 0), BuildingBlock: OJICUG_clean_linker_0, # of connection points: 2
#     Edge 69, Type (0, 0), BuildingBlock: OJICUG_clean_linker_0, # of connection points: 2
#     Edge 70, Type (0, 0), BuildingBlock: OJICUG_clean_linker_0, # of connection points: 2
#     Edge 71, Type (0, 0), BuildingBlock: OJICUG_clean_linker_0, # of connection points: 2
#     Edge 72, Type (0, 0), BuildingBlock: OJICUG_clean_linker_0, # of connection points: 2
#     Edge 73, Type (0, 0), BuildingBlock: OJICUG_clean_linker_0, # of connection points: 2
#     Edge 74, Type (0, 0), BuildingBlock: OJICUG_clean_linker_0, # of connection points: 2
#     Edge 75, Type (0, 0), BuildingBlock: OJICUG_clean_linker_0, # of connection points: 2
#     Edge 76, Type (0, 0), BuildingBlock: OJICUG_clean_linker_0, # of connection points: 2
#     Edge 77, Type (0, 0), BuildingBlock: OJICUG_clean_linker_0, # of connection points: 2
#     Edge 78, Type (0, 0), BuildingBlock: OJICUG_clean_linker_0, # of connection points: 2
#     Edge 79, Type (0, 0), BuildingBlock: OJICUG_clean_linker_0, # of connection points: 2
#     Edge 80, Type (0, 0), BuildingBlock: OJICUG_clean_linker_0, # of connection points: 2
#     Edge 81, Type (0, 0), BuildingBlock: OJICUG_clean_linker_0, # of connection points: 2
#     Edge 82, Type (0, 0), BuildingBlock: OJICUG_clean_linker_0, # of connection points: 2
#     Edge 83, Type (0, 0), BuildingBlock: OJICUG_clean_linker_0, # of connection points: 2
#     Edge 84, Type (0, 0), BuildingBlock: OJICUG_clean_linker_0, # of connection points: 2
#     Edge 85, Type (0, 0), BuildingBlock: OJICUG_clean_linker_0, # of connection points: 2
#     Edge 86, Type (0, 0), BuildingBlock: OJICUG_clean_linker_0, # of connection points: 2
#     Edge 87, Type (0, 0), BuildingBlock: OJICUG_clean_linker_0, # of connection points: 2
#     Edge 88, Type (0, 0), BuildingBlock: OJICUG_clean_linker_0, # of connection points: 2
#     Edge 89, Type (0, 0), BuildingBlock: OJICUG_clean_linker_0, # of connection points: 2
#     Edge 90, Type (0, 0), BuildingBlock: OJICUG_clean_linker_0, # of connection points: 2
#     Edge 91, Type (0, 0), BuildingBlock: OJICUG_clean_linker_0, # of connection points: 2
#     Edge 92, Type (0, 0), BuildingBlock: OJICUG_clean_linker_0, # of connection points: 2
#     Edge 93, Type (0, 0), BuildingBlock: OJICUG_clean_linker_0, # of connection points: 2
#     Edge 94, Type (0, 0), BuildingBlock: OJICUG_clean_linker_0, # of connection points: 2
#     Edge 95, Type (0, 0), BuildingBlock: OJICUG_clean_linker_0, # of connection points: 2
#     Edge 96, Type (0, 0), BuildingBlock: OJICUG_clean_linker_0, # of connection points: 2
#     Edge 97, Type (0, 0), BuildingBlock: OJICUG_clean_linker_0, # of connection points: 2
#     Edge 98, Type (0, 0), BuildingBlock: OJICUG_clean_linker_0, # of connection points: 2
#     Edge 99, Type (0, 0), BuildingBlock: OJICUG_clean_linker_0, # of connection points: 2
#     Edge 100, Type (0, 0), BuildingBlock: OJICUG_clean_linker_0, # of connection points: 2
#     Edge 101, Type (0, 0), BuildingBlock: OJICUG_clean_linker_0, # of connection points: 2
#     Edge 102, Type (0, 0), BuildingBlock: OJICUG_clean_linker_0, # of connection points: 2
#     Edge 103, Type (0, 0), BuildingBlock: OJICUG_clean_linker_0, # of connection points: 2
#     Edge 104, Type (0, 0), BuildingBlock: OJICUG_clean_linker_0, # of connection points: 2
#     Edge 105, Type (0, 0), BuildingBlock: OJICUG_clean_linker_0, # of connection points: 2
#     Edge 106, Type (0, 0), BuildingBlock: OJICUG_clean_linker_0, # of connection points: 2
#     Edge 107, Type (0, 0), BuildingBlock: OJICUG_clean_linker_0, # of connection points: 2
#     Edge 108, Type (0, 0), BuildingBlock: OJICUG_clean_linker_0, # of connection points: 2
#     Edge 109, Type (0, 0), BuildingBlock: OJICUG_clean_linker_0, # of connection points: 2
#     Edge 110, Type (0, 0), BuildingBlock: OJICUG_clean_linker_0, # of connection points: 2
#     Edge 111, Type (0, 0), BuildingBlock: OJICUG_clean_linker_0, # of connection points: 2
#     Edge 112, Type (0, 0), BuildingBlock: OJICUG_clean_linker_0, # of connection points: 2
#     Edge 113, Type (0, 0), BuildingBlock: OJICUG_clean_linker_0, # of connection points: 2
#     Edge 114, Type (0, 0), BuildingBlock: OJICUG_clean_linker_0, # of connection points: 2
#     Edge 115, Type (0, 0), BuildingBlock: OJICUG_clean_linker_0, # of connection points: 2
#     Edge 116, Type (0, 0), BuildingBlock: OJICUG_clean_linker_0, # of connection points: 2
#     Edge 117, Type (0, 0), BuildingBlock: OJICUG_clean_linker_0, # of connection points: 2
#     Edge 118, Type (0, 0), BuildingBlock: OJICUG_clean_linker_0, # of connection points: 2
#     Edge 119, Type (0, 0), BuildingBlock: OJICUG_clean_linker_0, # of connection points: 2
#     Edge 120, Type (0, 0), BuildingBlock: OJICUG_clean_linker_0, # of connection points: 2
#     Edge 121, Type (0, 0), BuildingBlock: OJICUG_clean_linker_0, # of connection points: 2
#     Edge 122, Type (0, 0), BuildingBlock: OJICUG_clean_linker_0, # of connection points: 2
#     Edge 123, Type (0, 0), BuildingBlock: OJICUG_clean_linker_0, # of connection points: 2
#     Edge 124, Type (0, 0), BuildingBlock: OJICUG_clean_linker_0, # of connection points: 2
#     Edge 125, Type (0, 0), BuildingBlock: OJICUG_clean_linker_0, # of connection points: 2
#     Edge 126, Type (0, 0), BuildingBlock: OJICUG_clean_linker_0, # of connection points: 2
#     Edge 127, Type (0, 0), BuildingBlock: OJICUG_clean_linker_0, # of connection points: 2
# Relax obj value: 0.053
# Max RMSD: 0.129
# Mean RMSD: 0.129
data_MOF--net-som--node1-HISSIN_clean_sbu_0--edge1-OJICUG_clean_linker_0
_symmetry_space_group_name_H-M    P1
_symmetry_Int_Tables_number       1
_symmetry_cell_setting            triclinic
loop_
_symmetry_equiv_pos_as_xyz
'x, y, z'
_cell_length_a     21.423222
_cell_length_b     39.471948
_cell_length_c     83.078731
_cell_angle_alpha  89.936066
_cell_angle_beta   89.977736
_cell_angle_gamma 90.000153
loop_
_atom_site_label
_atom_site_type_symbol
_atom_site_fract_x
_atom_site_fract_y
_atom_site_fract_z
_atom_type_partial_charge
Eu0 Eu 0.98141 0.50417 0.07312 0.0
Eu1 Eu 0.11636 0.46464 0.06767 0.0
C2 C 0.03986 0.49032 0.03769 0.0
C3 C 0.80646 0.52203 0.07551 0.0
C4 C 0.79141 0.49226 0.06716 0.0
C5 C 0.69594 0.53337 0.07921 0.0
C6 C 0.72895 0.48287 0.065 0.0
C7 C 0.75841 0.54255 0.08148 0.0
C8 C 0.68045 0.50334 0.071 0.0
C9 C 0.87197 0.53165 0.07823 0.0
O10 O 0.13971 0.52017 0.07216 0.0
O11 O 0.0455 0.54568 0.06629 0.0
C12 C 0.1055 0.54729 0.06904 0.0
O13 O 0.04377 0.51008 0.09529 0.0
O14 O 0.19089 0.43948 0.05407 0.0
O15 O 0.19734 0.44394 0.08 0.0
O16 O 0.0759 0.45673 0.09209 0.0
C17 C 0.07247 0.48347 0.10119 0.0
O18 O 0.96122 0.44902 0.07567 0.0
O19 O 0.04203 0.42595 0.06112 0.0
O20 O 0.09539 0.48957 0.04424 0.0
O21 O 0.90212 0.51389 0.08897 0.0
O22 O 0.90545 0.53721 0.06537 0.0
O23 O 0.98872 0.48929 0.04661 0.0
C24 C 0.29162 0.44649 0.0655 0.0
C25 C 0.30984 0.47879 0.07077 0.0
C26 C 0.40016 0.43331 0.05967 0.0
C27 C 0.37284 0.48808 0.07075 0.0
C28 C 0.33709 0.42397 0.05981 0.0
C29 C 0.41903 0.46536 0.06534 0.0
C30 C 0.22606 0.43546 0.06676 0.0
C31 C 0.98521 0.42424 0.06723 0.0
H32 H 0.82802 0.47634 0.06232 0.0
H33 H 0.65976 0.54949 0.08413 0.0
H34 H 0.71859 0.4598 0.05848 0.0
H35 H 0.76921 0.5656 0.08798 0.0
H36 H 0.27547 0.49658 0.07525 0.0
H37 H 0.4341 0.41534 0.05517 0.0
H38 H 0.38538 0.51275 0.07542 0.0
H39 H 0.32393 0.39893 0.05568 0.0
Eu40 Eu 0.33792 0.72372 0.07138 0.0
Eu41 Eu 0.20309 0.76342 0.06593 0.0
C42 C 0.2796 0.73777 0.03596 0.0
C43 C 0.51272 0.7054 0.07363 0.0
C44 C 0.52785 0.73518 0.06526 0.0
C45 C 0.62325 0.69389 0.07724 0.0
C46 C 0.59034 0.7445 0.06306 0.0
C47 C 0.56074 0.68478 0.07955 0.0
C48 C 0.63882 0.72396 0.06904 0.0
C49 C 0.44716 0.69592 0.07643 0.0
O50 O 0.17999 0.70805 0.07098 0.0
O51 O 0.27345 0.68238 0.06462 0.0
C52 C 0.21376 0.68083 0.06778 0.0
O53 O 0.276 0.71876 0.09374 0.0
O54 O 0.12856 0.78857 0.05231 0.0
O55 O 0.12172 0.78372 0.07823 0.0
O56 O 0.24435 0.77212 0.09017 0.0
C57 C 0.24796 0.74571 0.0995 0.0
O58 O 0.35909 0.77875 0.07368 0.0
O59 O 0.27731 0.8025 0.05966 0.0
O60 O 0.22405 0.7385 0.04251 0.0
O61 O 0.41728 0.71378 0.08717 0.0
O62 O 0.41345 0.6904 0.06362 0.0
O63 O 0.33069 0.73882 0.04488 0.0
C64 C 1.02765 0.78114 0.06364 0.0
C65 C 1.00952 0.74879 0.06889 0.0
C66 C 0.91911 0.79418 0.05774 0.0
C67 C 0.94655 0.73941 0.06883 0.0
C68 C 0.98213 0.80361 0.05791 0.0
C69 C 0.90031 0.76208 0.0634 0.0
C70 C 0.09314 0.79231 0.06498 0.0
C71 C 0.33442 0.80393 0.06561 0.0
H72 H 0.49128 0.75118 0.06045 0.0
H73 H 0.6594 0.67772 0.08214 0.0
H74 H 0.60074 0.7676 0.05653 0.0
H75 H 0.54989 0.66172 0.08606 0.0
H76 H 0.04392 0.73103 0.0734 0.0
H77 H 0.88514 0.81212 0.05321 0.0
H78 H 0.93407 0.71469 0.0735 0.0
H79 H 0.99522 0.82869 0.05379 0.0
Eu80 Eu 0.98139 0.72748 0.18094 0.0
Eu81 Eu 0.11629 0.76732 0.18616 0.0
C82 C 0.04006 0.7421 0.21626 0.0
C83 C 0.80632 0.70967 0.17893 0.0
C84 C 0.79153 0.74011 0.18676 0.0
C85 C 0.69565 0.69796 0.17581 0.0
C86 C 0.72914 0.74967 0.18891 0.0
C87 C 0.75805 0.68863 0.17352 0.0
C88 C 0.68043 0.72869 0.18345 0.0
C89 C 0.87178 0.69988 0.17619 0.0
O90 O 0.13988 0.7117 0.18195 0.0
O91 O 0.04569 0.68615 0.18784 0.0
C92 C 0.10571 0.68458 0.18511 0.0
O93 O 0.04366 0.72112 0.15875 0.0
O94 O 0.19035 0.79324 0.1996 0.0
O95 O 0.1976 0.78743 0.17374 0.0
O96 O 0.07585 0.77455 0.1617 0.0
C97 C 0.07239 0.74762 0.15273 0.0
O98 O 0.96135 0.78248 0.17783 0.0
O99 O 0.04149 0.80609 0.19239 0.0
O100 O 0.09558 0.74276 0.20969 0.0
O101 O 0.90182 0.71721 0.16527 0.0
O102 O 0.90548 0.69475 0.18904 0.0
O103 O 0.98892 0.74307 0.20735 0.0
C104 C 0.29149 0.78582 0.18842 0.0
C105 C 0.30968 0.75296 0.18399 0.0
C106 C 0.40015 0.79973 0.1937 0.0
C107 C 0.37273 0.74373 0.18415 0.0
C108 C 0.33704 0.809 0.19343 0.0
C109 C 0.41901 0.76708 0.18885 0.0
C110 C 0.22588 0.79667 0.18693 0.0
C111 C 0.98486 0.80754 0.18616 0.0
H112 H 0.82831 0.75641 0.1912 0.0
H113 H 0.65928 0.68142 0.17132 0.0
H114 H 0.71899 0.77329 0.195 0.0
H115 H 0.76862 0.66504 0.16744 0.0
H116 H 0.27525 0.73466 0.18004 0.0
H117 H 0.43413 0.81824 0.19765 0.0
H118 H 0.38522 0.71856 0.18011 0.0
H119 H 0.32391 0.83448 0.1969 0.0
Eu120 Eu 0.33691 0.50778 0.1826 0.0
Eu121 Eu 0.20137 0.46824 0.18746 0.0
C122 C 0.27694 0.49312 0.21788 0.0
C123 C 0.51139 0.52585 0.17993 0.0
C124 C 0.52719 0.49196 0.18293 0.0
C125 C 0.62119 0.54098 0.18138 0.0
C126 C 0.58957 0.48255 0.18507 0.0
C127 C 0.55869 0.55033 0.17924 0.0
C128 C 0.63745 0.50693 0.18424 0.0
C129 C 0.44587 0.53576 0.17745 0.0
O130 O 0.1795 0.52387 0.1827 0.0
O131 O 0.27271 0.54903 0.18967 0.0
C132 C 0.21327 0.55087 0.18627 0.0
O133 O 0.27568 0.51245 0.16012 0.0
O134 O 0.12716 0.44138 0.2004 0.0
O135 O 0.1191 0.45041 0.17474 0.0
O136 O 0.24517 0.459 0.16358 0.0
C137 C 0.24878 0.48533 0.15422 0.0
O138 O 0.36015 0.45278 0.18141 0.0
O139 O 0.27386 0.42818 0.19334 0.0
O140 O 0.22154 0.4918 0.21126 0.0
O141 O 0.41518 0.51852 0.16663 0.0
O142 O 0.41292 0.54082 0.19044 0.0
O143 O 0.32841 0.49289 0.20908 0.0
C144 C 1.02583 0.4498 0.18959 0.0
C145 C 1.00852 0.48398 0.18832 0.0
C146 C 0.91644 0.43425 0.19169 0.0
C147 C 0.94544 0.4932 0.18849 0.0
C148 C 0.97951 0.42507 0.19148 0.0
C149 C 0.89852 0.46838 0.18993 0.0
C150 C 0.09138 0.43941 0.18771 0.0
C151 C 0.33241 0.42711 0.18841 0.0
H152 H 0.4912 0.47277 0.18353 0.0
H153 H 0.65685 0.56034 0.18047 0.0
H154 H 0.60024 0.45621 0.18747 0.0
H155 H 0.54733 0.57663 0.17692 0.0
H156 H 0.04372 0.50342 0.18676 0.0
H157 H 0.88169 0.41453 0.19309 0.0
H158 H 0.93345 0.51965 0.18693 0.0
H159 H 0.99205 0.39855 0.19247 0.0
Eu160 Eu 0.95297 0.51343 0.93758 0.0
Eu161 Eu 0.0885 0.47385 0.93266 0.0
C162 C 1.00049 0.49685 0.90428 0.0
C163 C 0.77738 0.53136 0.93969 0.0
C164 C 0.76008 0.49748 0.93721 0.0
C165 C 0.66808 0.54624 0.94298 0.0
C166 C 0.69708 0.48812 0.93734 0.0
C167 C 0.7311 0.55557 0.94278 0.0
C168 C 0.65015 0.51248 0.94001 0.0
C169 C 0.84284 0.54211 0.93798 0.0
O170 O 0.11193 0.52886 0.9317 0.0
O171 O 1.02552 0.55334 0.94362 0.0
C172 C 0.08419 0.55441 0.93878 0.0
O173 O 0.9732 0.48937 0.96129 0.0
O174 O 0.16703 0.46347 0.91671 0.0
O175 O 0.16406 0.44036 0.94036 0.0
O176 O 0.08007 0.48847 0.95915 0.0
C177 C 1.02857 0.48812 0.96793 0.0
O178 O 0.93107 0.45796 0.93249 0.0
O179 O 1.02394 0.43262 0.93961 0.0
O180 O 1.02749 0.46968 0.91013 0.0
O181 O 0.87845 0.53963 0.95069 0.0
O182 O 0.87094 0.53189 0.92493 0.0
O183 O 0.99663 0.52304 0.91369 0.0
C184 C 0.26286 0.45532 0.93005 0.0
C185 C 0.2784 0.48845 0.93459 0.0
C186 C 0.373 0.44064 0.93002 0.0
C187 C 0.34084 0.49774 0.93675 0.0
C188 C 0.31045 0.43142 0.92784 0.0
C189 C 0.389 0.47398 0.93441 0.0
C190 C 0.19729 0.4457 0.92744 0.0
C191 C 0.96464 0.43087 0.93604 0.0
H192 H 0.79521 0.47843 0.93473 0.0
H193 H 0.63339 0.56556 0.94535 0.0
H194 H 0.68513 0.462 0.93483 0.0
H195 H 0.7436 0.58185 0.94473 0.0
H196 H 0.24214 0.50712 0.93639 0.0
H197 H 0.40888 0.42182 0.92793 0.0
H198 H 0.35134 0.52349 0.94033 0.0
H199 H 0.29928 0.40572 0.92431 0.0
Eu200 Eu 0.86822 0.21456 0.9351 0.0
Eu201 Eu 0.73325 0.25404 0.92949 0.0
C202 C 0.8249 0.23357 0.90152 0.0
C203 C 0.04352 0.19652 0.93736 0.0
C204 C 0.06171 0.22884 0.93208 0.0
C205 C 0.15207 0.18333 0.94315 0.0
C206 C 0.12471 0.23812 0.93206 0.0
C207 C 0.08901 0.17399 0.94305 0.0
C208 C 0.17092 0.21539 0.93745 0.0
C209 C 0.97798 0.18546 0.9361 0.0
O210 O 0.71318 0.19889 0.92693 0.0
O211 O 0.79396 0.17566 0.94146 0.0
C212 C 0.73725 0.17399 0.9353 0.0
O213 O 0.84645 0.23909 0.95856 0.0
O214 O 0.65413 0.26366 0.91357 0.0
O215 O 0.65725 0.28717 0.9371 0.0
O216 O 0.73982 0.23906 0.956 0.0
C217 C 0.79071 0.23998 0.965 0.0
O218 O 0.89161 0.27015 0.93074 0.0
O219 O 0.79711 0.29552 0.93644 0.0
O220 O 0.79606 0.26013 0.9074 0.0
O221 O 0.94269 0.18948 0.94877 0.0
O222 O 0.94937 0.19392 0.92284 0.0
O223 O 0.82834 0.20679 0.91062 0.0
C224 C 0.55837 0.27189 0.92698 0.0
C225 C 0.54331 0.2421 0.93535 0.0
C226 C 0.44785 0.28331 0.92334 0.0
C227 C 0.48084 0.23275 0.93755 0.0
C228 C 0.51033 0.29246 0.92103 0.0
C229 C 0.43235 0.25327 0.93157 0.0
C230 C 0.62389 0.28151 0.92425 0.0
C231 C 0.85721 0.2972 0.93383 0.0
H232 H 1.02732 0.24663 0.9276 0.0
H233 H 0.18603 0.16535 0.94765 0.0
H234 H 0.13723 0.2628 0.92737 0.0
H235 H 0.07586 0.14895 0.9472 0.0
H236 H 0.57991 0.22615 0.94018 0.0
H237 H 0.41167 0.29946 0.91843 0.0
H238 H 0.47047 0.20967 0.94409 0.0
H239 H 0.52114 0.31552 0.91451 0.0
Eu240 Eu 0.95332 0.21895 0.8151 0.0
Eu241 Eu 0.08883 0.25856 0.82 0.0
C242 C 1.0008 0.23567 0.84838 0.0
C243 C 0.77786 0.20021 0.81295 0.0
C244 C 0.76056 0.23444 0.81388 0.0
C245 C 0.66841 0.18455 0.8113 0.0
C246 C 0.69746 0.24364 0.81376 0.0
C247 C 0.7315 0.1754 0.81145 0.0
C248 C 0.65051 0.21875 0.81271 0.0
C249 C 0.84348 0.18992 0.81477 0.0
O250 O 0.11203 0.20355 0.82115 0.0
O251 O 1.02607 0.17917 0.80901 0.0
C252 C 0.08457 0.17805 0.81397 0.0
O253 O 0.97336 0.24307 0.79139 0.0
O254 O 0.167 0.26927 0.83598 0.0
O255 O 0.165 0.29153 0.81213 0.0
O256 O 0.08023 0.24392 0.79352 0.0
C257 C 1.02874 0.24433 0.78474 0.0
O258 O 0.93126 0.27444 0.82009 0.0
O259 O 1.02432 0.29987 0.81314 0.0
O260 O 1.02777 0.26284 0.84252 0.0
O261 O 0.87924 0.19227 0.80208 0.0
O262 O 0.87113 0.20071 0.82777 0.0
O263 O 0.99706 0.20945 0.83898 0.0
C264 C 0.26338 0.27644 0.82269 0.0
C265 C 0.2793 0.24238 0.82022 0.0
C266 C 0.37307 0.29162 0.82077 0.0
C267 C 0.34167 0.23293 0.8181 0.0
C268 C 0.31058 0.30101 0.82288 0.0
C269 C 0.38945 0.25742 0.81842 0.0
C270 C 0.19785 0.28644 0.82514 0.0
C271 C 0.9649 0.30156 0.81662 0.0
H272 H 0.7958 0.25395 0.81514 0.0
H273 H 0.63363 0.16477 0.8102 0.0
H274 H 0.68548 0.27015 0.81504 0.0
H275 H 0.74403 0.14884 0.81073 0.0
H276 H 0.24342 0.2231 0.82003 0.0
H277 H 0.40864 0.31108 0.82128 0.0
H278 H 0.35239 0.20645 0.81611 0.0
H279 H 0.29914 0.32745 0.82479 0.0
Eu280 Eu 0.86803 0.51778 0.8175 0.0
Eu281 Eu 0.73308 0.47828 0.82318 0.0
C282 C 0.82481 0.49887 0.85111 0.0
C283 C 0.04338 0.53567 0.81523 0.0
C284 C 0.06154 0.50353 0.82075 0.0
C285 C 0.15193 0.54858 0.80927 0.0
C286 C 0.12452 0.4942 0.8208 0.0
C287 C 0.08888 0.55797 0.80933 0.0
C288 C 0.17075 0.51671 0.8152 0.0
C289 C 0.97785 0.54681 0.81643 0.0
O290 O 0.71284 0.53344 0.8256 0.0
O291 O 0.79381 0.55668 0.81112 0.0
C292 C 0.73699 0.55832 0.81723 0.0
O293 O 0.84613 0.49325 0.79404 0.0
O294 O 0.65396 0.46877 0.83913 0.0
O295 O 0.65718 0.44501 0.81565 0.0
O296 O 0.7395 0.49316 0.79665 0.0
C297 C 0.79036 0.4923 0.78762 0.0
O298 O 0.89142 0.46221 0.82189 0.0
O299 O 0.79698 0.43681 0.81619 0.0
O300 O 0.79594 0.4723 0.84525 0.0
O301 O 0.94265 0.54265 0.80377 0.0
O302 O 0.9491 0.53858 0.82971 0.0
O303 O 0.82825 0.52563 0.84199 0.0
C304 C 0.55823 0.46033 0.82575 0.0
C305 C 0.5431 0.48979 0.81713 0.0
C306 C 0.44773 0.44913 0.82962 0.0
C307 C 0.48062 0.49911 0.81492 0.0
C308 C 0.51023 0.44004 0.83194 0.0
C309 C 0.43217 0.47887 0.82115 0.0
C310 C 0.62377 0.45079 0.8285 0.0
C311 C 0.85708 0.43515 0.8188 0.0
H312 H 1.02714 0.4859 0.82539 0.0
H313 H 0.18589 0.56638 0.8046 0.0
H314 H 0.13702 0.46967 0.82567 0.0
H315 H 0.07577 0.58288 0.805 0.0
H316 H 0.57967 0.50552 0.81212 0.0
H317 H 0.41158 0.4332 0.83471 0.0
H318 H 0.47021 0.52194 0.8082 0.0
H319 H 0.52108 0.41722 0.83864 0.0
Eu320 Eu 0.98077 0.00362 0.57249 0.0
Eu321 Eu 0.11569 0.96393 0.56709 0.0
C322 C 0.03881 0.98923 0.53707 0.0
C323 C 0.80585 0.02151 0.57494 0.0
C324 C 0.79075 -0.00834 0.56666 0.0
C325 C 0.69535 0.03287 0.57867 0.0
C326 C 0.72827 0.98225 0.56454 0.0
C327 C 0.75784 0.04207 0.58089 0.0
C328 C 0.6798 0.00277 0.57053 0.0
C329 C 0.87139 0.03118 0.5776 0.0
O330 O 0.13918 0.01952 0.57136 0.0
O331 O 0.04492 0.045 0.56549 0.0
C332 C 0.10498 0.04661 0.56818 0.0
O333 O 0.04339 0.00987 0.59459 0.0
O334 O 0.19032 0.93867 0.55357 0.0
O335 O 0.19655 0.9433 0.57949 0.0
O336 O 0.07524 0.95646 0.59154 0.0
C337 C 0.07211 0.98333 0.60056 0.0
O338 O 0.96053 0.9485 0.57522 0.0
O339 O 0.04131 0.9251 0.56076 0.0
O340 O 0.09444 0.98838 0.54356 0.0
O341 O 0.90163 0.01355 0.58837 0.0
O342 O 0.90477 0.03659 0.56471 0.0
O343 O 0.98776 0.98842 0.54602 0.0
C344 C 0.29097 0.94578 0.56505 0.0
C345 C 0.30912 0.9781 0.57029 0.0
C346 C 0.39956 0.93261 0.55928 0.0
C347 C 0.37212 0.98741 0.5703 0.0
C348 C 0.3365 0.92325 0.55939 0.0
C349 C 0.41837 0.96469 0.56493 0.0
C350 C 0.22539 0.93474 0.56628 0.0
C351 C 0.98451 0.92354 0.56689 0.0
H352 H 0.82733 0.97571 0.56183 0.0
H353 H 0.65919 0.04902 0.58358 0.0
H354 H 0.71788 0.95912 0.55807 0.0
H355 H 0.76867 0.06518 0.58734 0.0
H356 H 0.2747 -0.0041 0.57475 0.0
H357 H 0.43355 0.91463 0.5548 0.0
H358 H 0.3846 0.0121 0.57495 0.0
H359 H 0.32339 0.8982 0.55528 0.0
Eu360 Eu 0.33697 0.22319 0.56999 0.0
Eu361 Eu 0.20149 0.26283 0.56505 0.0
C362 C 0.27699 0.23751 0.5347 0.0
C363 C 0.51151 0.20531 0.57271 0.0
C364 C 0.52739 0.23935 0.57012 0.0
C365 C 0.62123 0.19016 0.57088 0.0
C366 C 0.58976 0.24881 0.56799 0.0
C367 C 0.55874 0.18076 0.573 0.0
C368 C 0.63758 0.22434 0.56841 0.0
C369 C 0.44599 0.19531 0.57517 0.0
O370 O 0.17941 0.20729 0.57 0.0
O371 O 0.27255 0.18189 0.56313 0.0
C372 C 0.21308 0.18019 0.56654 0.0
O373 O 0.27583 0.21891 0.59251 0.0
O374 O 0.1274 0.28963 0.55206 0.0
O375 O 0.11926 0.2809 0.57774 0.0
O376 O 0.24534 0.27233 0.5889 0.0
C377 C 0.24902 0.24613 0.59834 0.0
O378 O 0.36022 0.27818 0.57111 0.0
O379 O 0.27419 0.30271 0.55903 0.0
O380 O 0.22158 0.23891 0.54133 0.0
O381 O 0.41513 0.21248 0.58599 0.0
O382 O 0.41314 0.19021 0.56217 0.0
O383 O 0.32845 0.23783 0.5435 0.0
C384 C 1.02601 0.28153 0.56291 0.0
C385 C 1.00868 0.24731 0.56389 0.0
C386 C 0.91657 0.2972 0.5612 0.0
C387 C 0.94558 0.23811 0.56377 0.0
C388 C 0.97966 0.30635 0.56136 0.0
C389 C 0.89865 0.263 0.56267 0.0
C390 C 0.09162 0.29182 0.56475 0.0
C391 C 0.3327 0.30377 0.56399 0.0
H392 H 0.49148 0.25861 0.56984 0.0
H393 H 0.65683 0.17072 0.57147 0.0
H394 H 0.60046 0.27527 0.56591 0.0
H395 H 0.54734 0.15435 0.575 0.0
H396 H 0.04391 0.22779 0.56519 0.0
H397 H 0.8818 0.31698 0.56007 0.0
H398 H 0.9336 0.2116 0.56509 0.0
H399 H 0.9922 0.3329 0.56061 0.0
Eu400 Eu 0.98202 0.22829 0.67958 0.0
Eu401 Eu 0.11697 0.26793 0.68502 0.0
C402 C 0.04036 0.24219 0.71499 0.0
C403 C 0.80702 0.21052 0.67723 0.0
C404 C 0.79199 0.24025 0.68563 0.0
C405 C 0.6965 0.19934 0.67345 0.0
C406 C 0.72953 0.24968 0.68777 0.0
C407 C 0.75896 0.19011 0.6712 0.0
C408 C 0.68102 0.22932 0.6817 0.0
C409 C 0.87253 0.20084 0.67453 0.0
O410 O 0.14056 0.21244 0.68055 0.0
O411 O 0.04632 0.18681 0.68634 0.0
C412 C 0.10637 0.18528 0.68362 0.0
O413 O 0.04438 0.22226 0.65742 0.0
O414 O 0.19141 0.29302 0.69867 0.0
O415 O 0.19783 0.28889 0.67273 0.0
O416 O 0.07685 0.27559 0.66055 0.0
C417 C 0.07329 0.24878 0.6515 0.0
O418 O 0.96209 0.28343 0.67689 0.0
O419 O 0.0424 0.30649 0.69159 0.0
O420 O 0.09591 0.24292 0.70844 0.0
O421 O 0.90273 0.21851 0.66375 0.0
O422 O 0.90598 0.19535 0.68739 0.0
O423 O 0.98925 0.24324 0.70608 0.0
C424 C 0.29216 0.28625 0.6872 0.0
C425 C 0.31041 0.254 0.68188 0.0
C426 C 0.40068 0.29941 0.69304 0.0
C427 C 0.37342 0.24472 0.68188 0.0
C428 C 0.3376 0.30874 0.69292 0.0
C429 C 0.41959 0.2674 0.68733 0.0
C430 C 0.22655 0.29724 0.68599 0.0
C431 C 0.98571 0.30816 0.68542 0.0
H432 H 0.8286 0.25608 0.69052 0.0
H433 H 0.66031 0.18331 0.66848 0.0
H434 H 0.71919 0.27272 0.69433 0.0
H435 H 0.76974 0.16711 0.66466 0.0
H436 H 0.27607 0.23623 0.67737 0.0
H437 H 0.4346 0.31736 0.69758 0.0
H438 H 0.38599 0.22008 0.67717 0.0
H439 H 0.32441 0.33374 0.69709 0.0
Eu440 Eu 0.33862 0.00884 0.68141 0.0
Eu441 Eu 0.20334 0.96929 0.68661 0.0
C442 C 0.27969 -0.00535 0.71678 0.0
C443 C 0.51297 0.02793 0.67897 0.0
C444 C 0.5284 -0.00202 0.68715 0.0
C445 C 0.62335 0.04003 0.67553 0.0
C446 C 0.59095 0.98889 0.68936 0.0
C447 C 0.56074 0.04895 0.67323 0.0
C448 C 0.63921 0.00977 0.68353 0.0
C449 C 0.44732 0.03704 0.67612 0.0
O450 O 0.18109 0.02467 0.68142 0.0
O451 O 0.27409 0.05007 0.68834 0.0
C452 C 0.21467 0.05178 0.68489 0.0
O453 O 0.27718 0.01312 0.65896 0.0
O454 O 0.12829 0.94399 0.69998 0.0
O455 O 0.12184 0.94987 0.67409 0.0
O456 O 0.24649 0.95975 0.66267 0.0
C457 C 0.24998 0.98593 0.65321 0.0
O458 O 0.36153 0.95379 0.68023 0.0
O459 O 0.27621 0.92955 0.69275 0.0
O460 O 0.2242 -0.00646 0.71021 0.0
O461 O 0.41777 0.01863 0.66553 0.0
O462 O 0.41355 0.04282 0.6889 0.0
O463 O 0.33099 -0.00587 0.70792 0.0
C464 C 1.02768 0.95228 0.68866 0.0
C465 C 1.0098 0.9847 0.68344 0.0
C466 C 0.91915 0.93952 0.69467 0.0
C467 C 0.94692 -0.00576 0.68355 0.0
C468 C 0.98206 0.92993 0.69444 0.0
C469 C 0.90058 0.97164 0.689 0.0
C470 C 0.09299 0.94092 0.68726 0.0
C471 C 0.33445 0.92832 0.68757 0.0
H472 H 0.49197 0.98167 0.69178 0.0
H473 H 0.65933 0.05648 0.67074 0.0
H474 H 0.60156 0.96564 0.69573 0.0
H475 H 0.54963 0.07215 0.66686 0.0
H476 H 0.0443 0.00237 0.6789 0.0
H477 H 0.88506 0.92166 0.69922 0.0
H478 H 0.93456 0.01898 0.6789 0.0
H479 H 0.99498 0.90483 0.69856 0.0
Eu480 Eu 0.95069 0.01252 0.43699 0.0
Eu481 Eu 0.08618 0.97296 0.432 0.0
C482 C 0.998 -0.00418 0.40367 0.0
C483 C 0.77519 0.03125 0.4392 0.0
C484 C 0.75783 -0.00297 0.43831 0.0
C485 C 0.66577 0.04699 0.44084 0.0
C486 C 0.69471 0.98787 0.43844 0.0
C487 C 0.72887 0.0561 0.44068 0.0
C488 C 0.64781 0.01279 0.43946 0.0
C489 C 0.84082 0.04151 0.43734 0.0
O490 O 0.10934 0.02796 0.43084 0.0
O491 O 1.02341 0.05237 0.443 0.0
C492 C 0.0819 0.05347 0.43801 0.0
O493 O 0.97097 0.98862 0.46073 0.0
O494 O 0.16437 0.96237 0.41599 0.0
O495 O 0.16238 0.93996 0.4398 0.0
O496 O 0.07782 0.98761 0.45849 0.0
C497 C 1.02643 0.98728 0.46732 0.0
O498 O 0.92865 0.95694 0.43217 0.0
O499 O 1.02196 0.93163 0.43898 0.0
O500 O 1.02491 0.96863 0.40953 0.0
O501 O 0.87664 0.03927 0.45001 0.0
O502 O 0.8684 0.03061 0.42434 0.0
O503 O 0.99421 0.02203 0.41307 0.0
C504 C 0.26075 0.95517 0.42927 0.0
C505 C 0.27663 0.98924 0.43174 0.0
C506 C 0.37041 0.93999 0.43127 0.0
C507 C 0.33898 -0.00131 0.4339 0.0
C508 C 0.30794 0.9306 0.42911 0.0
C509 C 0.38676 0.9742 0.43362 0.0
C510 C 0.19524 0.94516 0.4268 0.0
C511 C 0.96245 0.92988 0.43565 0.0
H512 H 0.79303 0.97749 0.43707 0.0
H513 H 0.63102 0.06679 0.44191 0.0
H514 H 0.68269 0.96135 0.43719 0.0
H515 H 0.74145 0.08266 0.44136 0.0
H516 H 0.24075 0.00852 0.43191 0.0
H517 H 0.40599 0.92053 0.43078 0.0
H518 H 0.34968 0.02517 0.43589 0.0
H519 H 0.29653 0.90416 0.42721 0.0
Eu520 Eu 0.86556 0.71353 0.43599 0.0
Eu521 Eu 0.73061 0.75311 0.43052 0.0
C522 C 0.822 0.73273 0.40247 0.0
C523 C 0.04083 0.69542 0.43817 0.0
C524 C 0.05903 0.72775 0.4329 0.0
C525 C 0.14937 0.68224 0.44399 0.0
C526 C 0.12203 0.73705 0.43291 0.0
C527 C 0.08631 0.67289 0.44387 0.0
C528 C 0.16822 0.71431 0.43831 0.0
C529 C 0.97527 0.68438 0.43692 0.0
O530 O 0.71041 0.69798 0.42791 0.0
O531 O 0.79124 0.67468 0.44239 0.0
C532 C 0.73446 0.67305 0.43626 0.0
O533 O 0.84425 0.73816 0.45946 0.0
O534 O 0.65143 0.76294 0.41466 0.0
O535 O 0.65463 0.78613 0.43826 0.0
O536 O 0.73759 0.73804 0.45702 0.0
C537 C 0.78862 0.73897 0.46597 0.0
O538 O 0.88896 0.7691 0.43155 0.0
O539 O 0.7947 0.79455 0.43742 0.0
O540 O 0.79318 0.75926 0.40839 0.0
O541 O 0.94006 0.68835 0.4496 0.0
O542 O 0.94659 0.6929 0.42368 0.0
O543 O 0.82536 0.70589 0.41154 0.0
C544 C 0.5557 0.77101 0.4281 0.0
C545 C 0.54061 0.74115 0.43642 0.0
C546 C 0.44519 0.78242 0.42444 0.0
C547 C 0.47814 0.73177 0.43858 0.0
C548 C 0.50767 0.7916 0.42216 0.0
C549 C 0.42966 0.75231 0.43261 0.0
C550 C 0.62122 0.78064 0.42539 0.0
C551 C 0.85472 0.79619 0.43467 0.0
H552 H 1.02465 0.74555 0.42842 0.0
H553 H 0.18331 0.66426 0.4485 0.0
H554 H 0.13456 0.76174 0.42823 0.0
H555 H 0.07316 0.64784 0.448 0.0
H556 H 0.5772 0.72517 0.44124 0.0
H557 H 0.40903 0.79859 0.41954 0.0
H558 H 0.46776 0.70864 0.44508 0.0
H559 H 0.5185 0.81471 0.41569 0.0
Eu560 Eu 0.95221 0.7188 0.31633 0.0
Eu561 Eu 0.08767 0.75834 0.32135 0.0
C562 C 0.99928 0.73536 0.34964 0.0
C563 C 0.77655 0.70149 0.31433 0.0
C564 C 0.7591 0.7348 0.31816 0.0
C565 C 0.66755 0.68757 0.3097 0.0
C566 C 0.69617 0.74427 0.31804 0.0
C567 C 0.7305 0.67809 0.30992 0.0
C568 C 0.64942 0.72067 0.314 0.0
C569 C 0.84189 0.69038 0.31591 0.0
O570 O 0.11099 0.70328 0.32229 0.0
O571 O 1.02472 0.67885 0.3103 0.0
C572 C 0.08329 0.67772 0.31521 0.0
O573 O 0.9729 0.74272 0.29261 0.0
O574 O 0.16641 0.76832 0.33729 0.0
O575 O 0.16285 0.79222 0.31383 0.0
O576 O 0.07976 0.7438 0.29484 0.0
C577 C 1.02837 0.74409 0.28602 0.0
O578 O 0.93019 0.77429 0.32129 0.0
O579 O 1.02331 0.79956 0.31431 0.0
O580 O 1.02622 0.76258 0.34382 0.0
O581 O 0.87736 0.69295 0.30318 0.0
O582 O 0.87039 0.70011 0.32899 0.0
O583 O 0.99582 0.70918 0.3402 0.0
C584 C 0.26194 0.77733 0.32394 0.0
C585 C 0.27741 0.74568 0.31742 0.0
C586 C 0.37228 0.79094 0.32584 0.0
C587 C 0.33993 0.73651 0.31527 0.0
C588 C 0.30966 0.79997 0.32807 0.0
C589 C 0.38818 0.759 0.31952 0.0
C590 C 0.19629 0.78658 0.32668 0.0
C591 C 0.96387 0.80134 0.31772 0.0
H592 H 0.79399 0.75325 0.32165 0.0
H593 H 0.63307 0.66888 0.30626 0.0
H594 H 0.68413 0.76982 0.32161 0.0
H595 H 0.74311 0.65227 0.30691 0.0
H596 H 0.241 0.72807 0.31407 0.0
H597 H 0.40826 0.8087 0.32939 0.0
H598 H 0.35049 0.71192 0.31019 0.0
H599 H 0.29852 0.82451 0.33314 0.0
Eu600 Eu 0.86639 0.01753 0.31664 0.0
Eu601 Eu 0.7315 0.97796 0.32233 0.0
C602 C 0.8233 -0.00157 0.3503 0.0
C603 C 0.04164 0.03575 0.31433 0.0
C604 C 0.0598 0.00356 0.31979 0.0
C605 C 0.15028 0.04884 0.30854 0.0
C606 C 0.12281 -0.00572 0.31988 0.0
C607 C 0.0872 0.05817 0.30857 0.0
C608 C 0.16908 0.01689 0.31439 0.0
C609 C 0.97604 0.04678 0.31545 0.0
O610 O 0.71171 0.0331 0.32502 0.0
O611 O 0.79179 0.05618 0.3102 0.0
C612 C 0.73524 0.05787 0.31646 0.0
O613 O 0.8447 -0.00739 0.29326 0.0
O614 O 0.6523 0.96832 0.33824 0.0
O615 O 0.65543 0.94492 0.31469 0.0
O616 O 0.7381 -0.00711 0.29581 0.0
C617 C 0.78899 -0.00818 0.28681 0.0
O618 O 0.88998 0.96207 0.32126 0.0
O619 O 0.79572 0.93647 0.31554 0.0
O620 O 0.79412 0.97195 0.34445 0.0
O621 O 0.94093 0.04219 0.3028 0.0
O622 O 0.94728 0.03881 0.32877 0.0
O623 O 0.82704 0.02522 0.3412 0.0
C624 C 0.55653 0.96022 0.32484 0.0
C625 C 0.54149 0.98991 0.31638 0.0
C626 C 0.44599 0.949 0.32862 0.0
C627 C 0.47903 -0.00069 0.31421 0.0
C628 C 0.50846 0.93981 0.3309 0.0
C629 C 0.43051 0.97894 0.3203 0.0
C630 C 0.62204 0.95055 0.32755 0.0
C631 C 0.85577 0.93491 0.31826 0.0
H632 H 1.02536 0.98585 0.32433 0.0
H633 H 0.18427 0.06672 0.30397 0.0
H634 H 0.13529 0.96969 0.32469 0.0
H635 H 0.07409 0.08312 0.30429 0.0
H636 H 0.5781 0.00574 0.31147 0.0
H637 H 0.4098 0.93297 0.33362 0.0
H638 H 0.46869 0.0223 0.3076 0.0
H639 H 0.51924 0.91683 0.33748 0.0
Eu640 Eu 0.48099 0.50334 0.5729 0.0
Eu641 Eu 0.61602 0.464 0.56738 0.0
C642 C 0.53893 0.48946 0.53744 0.0
C643 C 0.30609 0.52121 0.57533 0.0
C644 C 0.29105 0.49143 0.56698 0.0
C645 C 0.19557 0.53266 0.57894 0.0
C646 C 0.22859 0.4821 0.56478 0.0
C647 C 0.25804 0.54178 0.58126 0.0
C648 C 0.18009 0.50262 0.57074 0.0
C649 C 0.37158 0.53079 0.57808 0.0
O650 O 0.63926 0.51954 0.57187 0.0
O651 O 0.54492 0.5449 0.56601 0.0
C652 C 0.60492 0.54661 0.56875 0.0
O653 O 0.54341 0.50927 0.59505 0.0
O654 O 0.6905 0.43903 0.55368 0.0
O655 O 0.69713 0.44325 0.57962 0.0
O656 O 0.57601 0.45599 0.59185 0.0
C657 C 0.57225 0.48271 0.60096 0.0
O658 O 0.46092 0.44816 0.57542 0.0
O659 O 0.54185 0.42519 0.56088 0.0
O660 O 0.59455 0.48883 0.54395 0.0
O661 O 0.4017 0.5129 0.58878 0.0
O662 O 0.40506 0.53648 0.56524 0.0
O663 O 0.48792 0.48839 0.5464 0.0
C664 C 0.79129 0.44594 0.56508 0.0
C665 C 0.8095 0.47823 0.57036 0.0
C666 C 0.89982 0.43276 0.55925 0.0
C667 C 0.8725 0.48751 0.57035 0.0
C668 C 0.83675 0.42343 0.55938 0.0
C669 C 0.91868 0.46479 0.56494 0.0
C670 C 0.72575 0.4349 0.56635 0.0
C671 C 0.48506 0.42341 0.56699 0.0
H672 H 0.32766 0.47547 0.56218 0.0
H673 H 0.15938 0.54881 0.58384 0.0
H674 H 0.21823 0.45902 0.55826 0.0
H675 H 0.26884 0.56484 0.58776 0.0
H676 H 0.77512 0.49601 0.57485 0.0
H677 H 0.93376 0.4148 0.55474 0.0
H678 H 0.88505 0.51217 0.57504 0.0
H679 H 0.82359 0.39841 0.55523 0.0
Eu680 Eu 0.83587 0.72353 0.57108 0.0
Eu681 Eu 0.70037 0.76304 0.566 0.0
C682 C 0.77618 0.73762 0.53572 0.0
C683 C 1.01042 0.70577 0.57392 0.0
C684 C 1.02632 0.73983 0.57138 0.0
C685 C 0.1201 0.69059 0.572 0.0
C686 C 0.08868 0.74927 0.56922 0.0
C687 C 0.05761 0.68121 0.57415 0.0
C688 C 0.13646 0.72478 0.56957 0.0
C689 C 0.94489 0.69577 0.57637 0.0
O690 O 0.67831 0.70747 0.57089 0.0
O691 O 0.77172 0.68217 0.56416 0.0
C692 C 0.71218 0.6804 0.56748 0.0
O693 O 0.77439 0.71912 0.59352 0.0
O694 O 0.6263 0.78971 0.55294 0.0
O695 O 0.61814 0.78126 0.57864 0.0
O696 O 0.7438 0.77251 0.58991 0.0
C697 C 0.74731 0.74628 0.59934 0.0
O698 O 0.85894 0.77856 0.57214 0.0
O699 O 0.77311 0.80285 0.55988 0.0
O700 O 0.7207 0.73904 0.54231 0.0
O701 O 0.91392 0.71302 0.58714 0.0
O702 O 0.91216 0.69053 0.56336 0.0
O703 O 0.82757 0.73799 0.54455 0.0
C704 C 0.52489 0.78179 0.56381 0.0
C705 C 0.50753 0.74758 0.56482 0.0
C706 C 0.41547 0.79752 0.56215 0.0
C707 C 0.44441 0.73842 0.56473 0.0
C708 C 0.47858 0.80663 0.56227 0.0
C709 C 0.39751 0.76333 0.56364 0.0
C710 C 0.59052 0.79206 0.56562 0.0
C711 C 0.83156 0.804 0.56487 0.0
H712 H 0.99044 0.75911 0.57115 0.0
H713 H 0.15567 0.67113 0.57254 0.0
H714 H 0.09939 0.77574 0.56717 0.0
H715 H 0.04619 0.65478 0.57611 0.0
H716 H 0.54273 0.72805 0.56611 0.0
H717 H 0.38072 0.81731 0.56103 0.0
H718 H 0.43238 0.71192 0.56607 0.0
H719 H 0.49116 0.83318 0.5615 0.0
Eu720 Eu 0.48054 0.72735 0.68061 0.0
Eu721 Eu 0.61572 0.76682 0.68578 0.0
C722 C 0.53913 0.74173 0.71596 0.0
C723 C 0.30589 0.70885 0.67824 0.0
C724 C 0.29058 0.73844 0.68671 0.0
C725 C 0.1955 0.69738 0.67444 0.0
C726 C 0.22806 0.74766 0.68888 0.0
C727 C 0.25805 0.68835 0.67217 0.0
C728 C 0.17976 0.72724 0.68275 0.0
C729 C 0.37148 0.69948 0.67548 0.0
O730 O 0.63861 0.71124 0.68134 0.0
O731 O 0.54464 0.68602 0.68768 0.0
C732 C 0.60448 0.68424 0.68472 0.0
O733 O 0.54265 0.72156 0.65837 0.0
O734 O 0.69046 0.79219 0.6992 0.0
O735 O 0.69697 0.78679 0.6733 0.0
O736 O 0.57445 0.77494 0.66148 0.0
C737 C 0.57091 0.74822 0.65238 0.0
O738 O 0.45918 0.78247 0.67848 0.0
O739 O 0.5422 0.8061 0.69205 0.0
O740 O 0.59465 0.7426 0.70938 0.0
O741 O 0.40134 0.71747 0.66477 0.0
O742 O 0.40506 0.69395 0.68832 0.0
O743 O 0.48791 0.74241 0.70708 0.0
C744 C 0.79113 0.78436 0.68784 0.0
C745 C 0.80932 0.75216 0.68242 0.0
C746 C 0.89947 0.79711 0.69406 0.0
C747 C 0.87225 0.74274 0.68254 0.0
C748 C 0.8365 0.80659 0.69382 0.0
C749 C 0.91835 0.76521 0.68821 0.0
C750 C 0.72573 0.79559 0.68648 0.0
C751 C 0.48475 0.80763 0.68636 0.0
H752 H 0.32704 0.75434 0.69162 0.0
H753 H 0.15947 0.68131 0.66941 0.0
H754 H 0.21749 0.7706 0.69549 0.0
H755 H 0.26907 0.66545 0.66557 0.0
H756 H 0.77503 0.73457 0.67774 0.0
H757 H 0.93336 0.81486 0.69878 0.0
H758 H 0.88483 0.71818 0.67774 0.0
H759 H 0.82334 0.83152 0.69809 0.0
Eu760 Eu 0.83586 0.50758 0.6825 0.0
Eu761 Eu 0.70038 0.46794 0.68764 0.0
C762 C 0.77656 0.49324 0.71788 0.0
C763 C 1.01042 0.5253 0.67968 0.0
C764 C 1.02622 0.49124 0.68224 0.0
C765 C 0.12014 0.5404 0.68161 0.0
C766 C 0.08856 0.48175 0.68442 0.0
C767 C 0.05768 0.54983 0.67944 0.0
C768 C 0.13641 0.5062 0.68406 0.0
C769 C 0.94491 0.53535 0.67722 0.0
O770 O 0.67822 0.52348 0.68274 0.0
O771 O 0.77155 0.54886 0.68945 0.0
C772 C 0.71202 0.55057 0.68614 0.0
O773 O 0.77438 0.51197 0.66007 0.0
O774 O 0.62631 0.44134 0.70075 0.0
O775 O 0.61814 0.44961 0.67505 0.0
O776 O 0.74356 0.45858 0.66368 0.0
C777 C 0.74724 0.48483 0.65426 0.0
O778 O 0.85892 0.4526 0.68132 0.0
O779 O 0.77325 0.4281 0.69359 0.0
O780 O 0.721 0.49179 0.71135 0.0
O781 O 0.91396 0.51814 0.66644 0.0
O782 O 0.91212 0.54059 0.69022 0.0
O783 O 0.82784 0.49294 0.70901 0.0
C784 C 0.52487 0.44914 0.68989 0.0
C785 C 0.50748 0.48335 0.68889 0.0
C786 C 0.41543 0.4334 0.69152 0.0
C787 C 0.44435 0.4925 0.68896 0.0
C788 C 0.47855 0.42429 0.69141 0.0
C789 C 0.39745 0.46758 0.69003 0.0
C790 C 0.59053 0.43889 0.68808 0.0
C791 C 0.83165 0.42707 0.68854 0.0
H792 H 0.99029 0.47198 0.68249 0.0
H793 H 0.15576 0.55983 0.68106 0.0
H794 H 0.0992 0.45528 0.68649 0.0
H795 H 0.04634 0.57626 0.67746 0.0
H796 H 0.54267 0.50288 0.68761 0.0
H797 H 0.38069 0.41359 0.69262 0.0
H798 H 0.43232 0.519 0.68763 0.0
H799 H 0.49114 0.39775 0.69217 0.0
Eu800 Eu 0.45073 0.51238 0.4374 0.0
Eu801 Eu 0.58625 0.47285 0.43239 0.0
C802 C 0.49791 0.49573 0.40409 0.0
C803 C 0.27523 0.53102 0.43958 0.0
C804 C 0.25793 0.49682 0.43848 0.0
C805 C 0.16578 0.54664 0.44135 0.0
C806 C 0.19484 0.48761 0.43857 0.0
C807 C 0.22887 0.5558 0.44123 0.0
C808 C 0.14789 0.51247 0.43976 0.0
C809 C 0.34085 0.54136 0.4378 0.0
O810 O 0.60939 0.52788 0.43128 0.0
O811 O 0.52343 0.55221 0.44346 0.0
C812 C 0.58192 0.55335 0.43847 0.0
O813 O 0.47107 0.48833 0.46111 0.0
O814 O 0.66441 0.4623 0.41636 0.0
O815 O 0.66239 0.43978 0.44015 0.0
O816 O 0.57792 0.48748 0.45888 0.0
C817 C 0.52653 0.48708 0.46771 0.0
O818 O 0.42875 0.45688 0.43241 0.0
O819 O 0.52188 0.43152 0.43932 0.0
O820 O 0.52498 0.46856 0.40991 0.0
O821 O 0.37655 0.5389 0.45048 0.0
O822 O 0.36857 0.53072 0.42477 0.0
O823 O 0.49432 0.52193 0.4135 0.0
C824 C 0.76077 0.45495 0.42961 0.0
C825 C 0.77666 0.48895 0.43227 0.0
C826 C 0.87049 0.43976 0.43139 0.0
C827 C 0.83904 0.49837 0.43441 0.0
C828 C 0.80799 0.4304 0.42925 0.0
C829 C 0.88684 0.47391 0.43393 0.0
C830 C 0.69524 0.445 0.42715 0.0
C831 C 0.46246 0.42978 0.43587 0.0
H832 H 0.29317 0.47734 0.43711 0.0
H833 H 0.131 0.56639 0.44255 0.0
H834 H 0.18286 0.46113 0.43715 0.0
H835 H 0.2414 0.58234 0.44208 0.0
H836 H 0.74077 0.50821 0.4326 0.0
H837 H 0.90608 0.42033 0.43074 0.0
H838 H 0.84975 0.5248 0.43656 0.0
H839 H 0.79657 0.40402 0.4272 0.0
Eu840 Eu 0.36585 0.21344 0.43499 0.0
Eu841 Eu 0.23088 0.25295 0.4295 0.0
C842 C 0.32213 0.23245 0.40145 0.0
C843 C 0.5411 0.1953 0.43722 0.0
C844 C 0.55935 0.22767 0.43202 0.0
C845 C 0.64961 0.18203 0.44303 0.0
C846 C 0.62236 0.23694 0.43206 0.0
C847 C 0.58654 0.1727 0.44288 0.0
C848 C 0.66852 0.21415 0.43742 0.0
C849 C 0.47555 0.18428 0.43592 0.0
O850 O 0.21076 0.19781 0.42694 0.0
O851 O 0.29154 0.17465 0.44148 0.0
C852 C 0.23476 0.17297 0.43536 0.0
O853 O 0.34461 0.23815 0.45843 0.0
O854 O 0.15162 0.26266 0.41364 0.0
O855 O 0.1549 0.286 0.43721 0.0
O856 O 0.23794 0.238 0.45602 0.0
C857 C 0.289 0.23898 0.46495 0.0
O858 O 0.38928 0.26904 0.43064 0.0
O859 O 0.29484 0.29446 0.43636 0.0
O860 O 0.29341 0.25903 0.40736 0.0
O861 O 0.44025 0.18814 0.44859 0.0
O862 O 0.44698 0.19292 0.42268 0.0
O863 O 0.32563 0.20567 0.41055 0.0
C864 C 0.05594 0.27079 0.4271 0.0
C865 C 0.04092 0.24097 0.43545 0.0
C866 C 0.94541 0.28219 0.42348 0.0
C867 C 0.97846 0.23158 0.43764 0.0
C868 C 1.00788 0.29136 0.42117 0.0
C869 C 0.92995 0.2521 0.43167 0.0
C870 C 0.12145 0.28043 0.42436 0.0
C871 C 0.35493 0.29611 0.43373 0.0
H872 H 0.525 0.24552 0.42757 0.0
H873 H 0.68353 0.164 0.44751 0.0
H874 H 0.63492 0.26167 0.42743 0.0
H875 H 0.57335 0.14762 0.44696 0.0
H876 H 0.07754 0.22501 0.44026 0.0
H877 H 0.90921 0.29834 0.41858 0.0
H878 H 0.96812 0.20846 0.44415 0.0
H879 H 1.01866 0.31446 0.41468 0.0
Eu880 Eu 0.45009 0.2178 0.31495 0.0
Eu881 Eu 0.5856 0.25746 0.31983 0.0
C882 C 0.49763 0.23456 0.34822 0.0
C883 C 0.27463 0.19901 0.31278 0.0
C884 C 0.25725 0.23322 0.31375 0.0
C885 C 0.16522 0.18329 0.31102 0.0
C886 C 0.19413 0.24238 0.3136 0.0
C887 C 0.22833 0.17418 0.3112 0.0
C888 C 0.14724 0.21748 0.31247 0.0
C889 C 0.34026 0.18875 0.31461 0.0
O890 O 0.60883 0.20248 0.32101 0.0
O891 O 0.5229 0.17801 0.30889 0.0
C892 C 0.58142 0.17696 0.31384 0.0
O893 O 0.4701 0.24189 0.29123 0.0
O894 O 0.66385 0.26818 0.33578 0.0
O895 O 0.66174 0.29042 0.31193 0.0
O896 O 0.57696 0.24273 0.29336 0.0
C897 C 0.52548 0.24313 0.28458 0.0
O898 O 0.42805 0.27329 0.31995 0.0
O899 O 0.52105 0.29873 0.31296 0.0
O900 O 0.52461 0.26172 0.34236 0.0
O901 O 0.37605 0.19106 0.30193 0.0
O902 O 0.36787 0.19958 0.32762 0.0
O903 O 0.49383 0.20833 0.33883 0.0
C904 C 0.76016 0.27528 0.32245 0.0
C905 C 0.77594 0.24123 0.31989 0.0
C906 C 0.86991 0.29035 0.32058 0.0
C907 C 0.83829 0.23174 0.31774 0.0
C908 C 0.80745 0.29979 0.32272 0.0
C909 C 0.88616 0.25616 0.31814 0.0
C910 C 0.69466 0.28532 0.32492 0.0
C911 C 0.46167 0.30042 0.31647 0.0
H912 H 0.29243 0.25274 0.31506 0.0
H913 H 0.13049 0.1635 0.30987 0.0
H914 H 0.18209 0.26888 0.31491 0.0
H915 H 0.24092 0.14763 0.31045 0.0
H916 H 0.73999 0.22199 0.31963 0.0
H917 H 0.90555 0.30977 0.32116 0.0
H918 H 0.84891 0.20527 0.31568 0.0
H919 H 0.79611 0.32621 0.3247 0.0
Eu920 Eu 0.36529 0.51671 0.31768 0.0
Eu921 Eu 0.23023 0.47723 0.32307 0.0
C922 C 0.32118 0.49778 0.35116 0.0
C923 C 0.54061 0.53459 0.31551 0.0
C924 C 0.55879 0.50223 0.32074 0.0
C925 C 0.6491 0.54772 0.3096 0.0
C926 C 0.62177 0.4929 0.32067 0.0
C927 C 0.58606 0.55711 0.30978 0.0
C928 C 0.66795 0.51563 0.31525 0.0
C929 C 0.47513 0.5457 0.31686 0.0
O930 O 0.2096 0.53236 0.32547 0.0
O931 O 0.29131 0.55572 0.31129 0.0
C932 C 0.23428 0.55735 0.31727 0.0
O933 O 0.34416 0.49228 0.29417 0.0
O934 O 0.151 0.46743 0.33894 0.0
O935 O 0.15442 0.44407 0.31538 0.0
O936 O 0.23746 0.49223 0.29656 0.0
C937 C 0.28859 0.4914 0.28764 0.0
O938 O 0.38849 0.46108 0.322 0.0
O939 O 0.29415 0.43578 0.31611 0.0
O940 O 0.29268 0.47117 0.34522 0.0
O941 O 0.43984 0.54213 0.30417 0.0
O942 O 0.44647 0.53689 0.33007 0.0
O943 O 0.32456 0.52456 0.34206 0.0
C944 C 0.0554 0.45915 0.32549 0.0
C945 C 0.04029 0.48901 0.31719 0.0
C946 C 0.94491 0.44759 0.32909 0.0
C947 C 0.97781 0.49832 0.315 0.0
C948 C 1.00741 0.43848 0.33139 0.0
C949 C 0.92936 0.47771 0.32094 0.0
C950 C 0.12093 0.44961 0.32823 0.0
C951 C 0.35417 0.43406 0.31881 0.0
H952 H 0.52443 0.48443 0.32524 0.0
H953 H 0.68304 0.56569 0.30508 0.0
H954 H 0.63431 0.46819 0.32532 0.0
H955 H 0.57292 0.58217 0.30567 0.0
H956 H 0.07687 0.50505 0.3124 0.0
H957 H 0.90876 0.43137 0.33397 0.0
H958 H 0.96741 0.52147 0.30852 0.0
H959 H 1.01826 0.41536 0.33785 0.0
Eu960 Eu 0.48185 0.00426 0.07163 0.0
Eu961 Eu 0.61745 0.96487 0.06663 0.0
C962 C 0.54151 0.98996 0.03629 0.0
C963 C 0.30719 0.02187 0.07456 0.0
C964 C 0.29108 0.98768 0.07264 0.0
C965 C 0.19772 0.03715 0.07211 0.0
C966 C 0.22873 0.97823 0.07049 0.0
C967 C 0.26021 0.04655 0.07423 0.0
C968 C 0.18115 0.00284 0.07027 0.0
C969 C 0.37274 0.03192 0.07691 0.0
O970 O 0.6397 0.02061 0.0709 0.0
O971 O 0.54565 0.04566 0.06449 0.0
C972 C 0.60544 0.04753 0.06747 0.0
O973 O 0.54368 0.00956 0.09394 0.0
O974 O 0.6914 0.93803 0.05362 0.0
O975 O 0.69966 0.94664 0.07929 0.0
O976 O 0.57497 0.95616 0.09076 0.0
C977 C 0.57128 0.98273 0.09994 0.0
O978 O 0.4593 0.94916 0.07295 0.0
O979 O 0.54471 0.92525 0.06038 0.0
O980 O 0.59699 0.98862 0.04288 0.0
O981 O 0.4039 0.01483 0.08772 0.0
O982 O 0.40529 0.03704 0.06386 0.0
O983 O 0.49011 0.9897 0.04512 0.0
C984 C 0.79283 0.94588 0.06443 0.0
C985 C 0.8102 0.98013 0.06508 0.0
C986 C 0.90226 0.93005 0.06311 0.0
C987 C 0.87333 0.98927 0.06499 0.0
C988 C 0.83915 0.92097 0.06322 0.0
C989 C 0.92021 0.96429 0.06425 0.0
C990 C 0.72719 0.93571 0.06629 0.0
C991 C 0.4864 0.92393 0.06546 0.0
H992 H 0.32678 0.96831 0.07288 0.0
H993 H 0.16231 0.05673 0.07221 0.0
H994 H 0.2179 0.95165 0.0689 0.0
H995 H 0.27179 0.07308 0.07571 0.0
H996 H 0.77499 -0.00029 0.06612 0.0
H997 H 0.93702 0.91021 0.06227 0.0
H998 H 0.88538 0.01581 0.06605 0.0
H999 H 0.82655 0.8944 0.06273 0.0
Eu1000 Eu 0.83631 0.22434 0.0701 0.0
Eu1001 Eu 0.70083 0.26399 0.06505 0.0
C1002 C 0.77706 0.23892 0.03474 0.0
C1003 C 1.01084 0.20653 0.07295 0.0
C1004 C 1.02671 0.24058 0.0704 0.0
C1005 C 0.12057 0.1914 0.0711 0.0
C1006 C 0.08908 0.25005 0.06827 0.0
C1007 C 0.05808 0.18199 0.07322 0.0
C1008 C 0.1369 0.22559 0.06866 0.0
C1009 C 0.9453 0.1965 0.07536 0.0
O1010 O 0.67865 0.20837 0.06976 0.0
O1011 O 0.7721 0.18312 0.06301 0.0
C1012 C 0.71253 0.18134 0.06629 0.0
O1013 O 0.77462 0.21957 0.09249 0.0
O1014 O 0.62672 0.29072 0.05203 0.0
O1015 O 0.61863 0.28217 0.07772 0.0
O1016 O 0.74405 0.27301 0.08903 0.0
C1017 C 0.74744 0.24663 0.09836 0.0
O1018 O 0.85933 0.27933 0.07137 0.0
O1019 O 0.77364 0.30389 0.05916 0.0
O1020 O 0.72149 0.24039 0.04128 0.0
O1021 O 0.91429 0.21364 0.08616 0.0
O1022 O 0.91262 0.19139 0.06234 0.0
O1023 O 0.82833 0.23913 0.04361 0.0
C1024 C 0.52533 0.28273 0.06291 0.0
C1025 C 0.50799 0.24851 0.06392 0.0
C1026 C 0.41588 0.29842 0.06127 0.0
C1027 C 0.44488 0.23933 0.06384 0.0
C1028 C 0.47898 0.30756 0.06138 0.0
C1029 C 0.39795 0.26423 0.06276 0.0
C1030 C 0.59096 0.29301 0.06472 0.0
C1031 C 0.83203 0.30493 0.06421 0.0
H1032 H 0.9908 0.25984 0.07014 0.0
H1033 H 0.15617 0.17195 0.07166 0.0
H1034 H 0.09977 0.27652 0.06621 0.0
H1035 H 0.04669 0.15556 0.07519 0.0
H1036 H 0.54321 0.229 0.0652 0.0
H1037 H 0.38112 0.31821 0.06015 0.0
H1038 H 0.43289 0.21283 0.06518 0.0
H1039 H 0.49154 0.33411 0.06061 0.0
Eu1040 Eu 0.47964 0.22695 0.17937 0.0
Eu1041 Eu 0.6146 0.26633 0.18487 0.0
C1042 C 0.53745 0.24087 0.21484 0.0
C1043 C 0.30479 0.2083 0.17655 0.0
C1044 C 0.28852 0.23877 0.18412 0.0
C1045 C 0.19481 0.19543 0.17302 0.0
C1046 C 0.22571 0.24779 0.18595 0.0
C1047 C 0.25762 0.18663 0.17109 0.0
C1048 C 0.17791 0.22628 0.18035 0.0
C1049 C 0.37064 0.1991 0.17408 0.0
O1050 O 0.63779 0.2108 0.18032 0.0
O1051 O 0.54361 0.18551 0.18638 0.0
C1052 C 0.60354 0.18376 0.18355 0.0
O1053 O 0.54225 0.22119 0.15723 0.0
O1054 O 0.68957 0.29094 0.19852 0.0
O1055 O 0.69537 0.28733 0.17256 0.0
O1056 O 0.57416 0.27453 0.16048 0.0
C1057 C 0.57074 0.24788 0.15134 0.0
O1058 O 0.45918 0.28215 0.17701 0.0
O1059 O 0.54054 0.30518 0.19139 0.0
O1060 O 0.59309 0.24164 0.20833 0.0
O1061 O 0.40096 0.21693 0.16339 0.0
O1062 O 0.40358 0.19387 0.18705 0.0
O1063 O 0.48643 0.2418 0.20589 0.0
C1064 C 0.78982 0.28393 0.18684 0.0
C1065 C 0.80651 0.25096 0.1822 0.0
C1066 C 0.8994 0.29692 0.19129 0.0
C1067 C 0.86926 0.24124 0.18182 0.0
C1068 C 0.83656 0.30671 0.19156 0.0
C1069 C 0.91651 0.26423 0.18617 0.0
C1070 C 0.72446 0.29532 0.1858 0.0
C1071 C 0.48365 0.30698 0.18535 0.0
H1072 H 0.32449 0.25563 0.18853 0.0
H1073 H 0.1595 0.1779 0.16884 0.0
H1074 H 0.21474 0.27188 0.19148 0.0
H1075 H 0.26937 0.16288 0.1653 0.0
H1076 H 0.77108 0.23294 0.17856 0.0
H1077 H 0.93471 0.31528 0.19461 0.0
H1078 H 0.88086 0.21576 0.17803 0.0
H1079 H 0.82458 0.3323 0.1951 0.0
Eu1080 Eu 0.8346 0.00687 0.18163 0.0
Eu1081 Eu 0.69908 0.96739 0.18689 0.0
C1082 C 0.77544 -0.00706 0.21706 0.0
C1083 C 1.00911 0.02462 0.17883 0.0
C1084 C 1.02463 -0.00915 0.18222 0.0
C1085 C 0.11903 0.03955 0.1801 0.0
C1086 C 0.08695 0.98141 0.18449 0.0
C1087 C 0.05661 0.04893 0.17784 0.0
C1088 C 0.13503 0.00563 0.18339 0.0
C1089 C 0.94364 0.03457 0.17625 0.0
O1090 O 0.67699 0.0229 0.18186 0.0
O1091 O 0.7704 0.04826 0.18851 0.0
C1092 C 0.71086 0.05 0.1852 0.0
O1093 O 0.77309 0.01111 0.1592 0.0
O1094 O 0.62502 0.94113 0.20017 0.0
O1095 O 0.61674 0.94881 0.17443 0.0
O1096 O 0.74168 0.95781 0.16287 0.0
C1097 C 0.74563 0.98402 0.15343 0.0
O1098 O 0.85767 0.95186 0.18066 0.0
O1099 O 0.7719 0.92763 0.193 0.0
O1100 O 0.71987 -0.00843 0.21052 0.0
O1101 O 0.91287 0.01701 0.16556 0.0
O1102 O 0.91069 0.04013 0.1892 0.0
O1103 O 0.8267 -0.0075 0.20818 0.0
C1104 C 0.52354 0.94881 0.18932 0.0
C1105 C 0.50604 0.98289 0.18766 0.0
C1106 C 0.41421 0.93322 0.19166 0.0
C1107 C 0.44291 -0.00797 0.18775 0.0
C1108 C 0.47734 0.92412 0.19153 0.0
C1109 C 0.3961 0.96723 0.18952 0.0
C1110 C 0.58915 0.93843 0.18753 0.0
C1111 C 0.83035 0.92649 0.188 0.0
H1112 H 0.98849 0.9718 0.18304 0.0
H1113 H 0.15485 0.05877 0.17896 0.0
H1114 H 0.09738 0.95518 0.18721 0.0
H1115 H 0.04547 0.07513 0.1752 0.0
H1116 H 0.54112 0.0023 0.18585 0.0
H1117 H 0.37957 0.91353 0.19332 0.0
H1118 H 0.4308 0.01837 0.18588 0.0
H1119 H 0.49001 0.89768 0.19282 0.0
Eu1120 Eu 0.45386 0.01326 0.93622 0.0
Eu1121 Eu 0.58936 0.97374 0.93118 0.0
C1122 C 0.50083 -0.00354 0.90293 0.0
C1123 C 0.27836 0.03193 0.93832 0.0
C1124 C 0.26104 -0.00228 0.93729 0.0
C1125 C 0.16892 0.0476 0.94 0.0
C1126 C 0.19794 0.98853 0.93737 0.0
C1127 C 0.23201 0.05674 0.93989 0.0
C1128 C 0.151 0.01342 0.93848 0.0
C1129 C 0.34398 0.04224 0.93652 0.0
O1130 O 0.61242 0.02879 0.9301 0.0
O1131 O 0.52649 0.05306 0.94232 0.0
C1132 C 0.58496 0.05423 0.93734 0.0
O1133 O 0.47431 0.98943 0.95996 0.0
O1134 O 0.66738 0.96329 0.9151 0.0
O1135 O 0.66565 0.94069 0.93887 0.0
O1136 O 0.58119 0.98824 0.9577 0.0
C1137 C 0.5298 0.98802 0.96654 0.0
O1138 O 0.43179 0.95765 0.93152 0.0
O1139 O 0.52529 0.93239 0.93822 0.0
O1140 O 0.52776 0.96927 0.90877 0.0
O1141 O 0.37966 0.03993 0.94922 0.0
O1142 O 0.37173 0.03143 0.92352 0.0
O1143 O 0.49754 0.02269 0.91232 0.0
C1144 C 0.7639 0.95594 0.92828 0.0
C1145 C 0.77983 0.98997 0.93085 0.0
C1146 C 0.87358 0.94073 0.93012 0.0
C1147 C 0.84221 -0.00062 0.93299 0.0
C1148 C 0.81108 0.93137 0.92799 0.0
C1149 C 0.88997 0.97489 0.93258 0.0
C1150 C 0.69835 0.94598 0.92586 0.0
C1151 C 0.46569 0.93062 0.93499 0.0
H1152 H 0.29627 0.97822 0.93597 0.0
H1153 H 0.13414 0.06737 0.94115 0.0
H1154 H 0.18595 0.96204 0.936 0.0
H1155 H 0.24455 0.08328 0.94068 0.0
H1156 H 0.74396 0.00925 0.93113 0.0
H1157 H 0.90914 0.92127 0.92954 0.0
H1158 H 0.85294 0.02583 0.93506 0.0
H1159 H 0.79963 0.90497 0.92601 0.0
Eu1160 Eu 0.36838 0.71432 0.9362 0.0
Eu1161 Eu 0.23351 0.75397 0.93079 0.0
C1162 C 0.32454 0.73344 0.90266 0.0
C1163 C 0.54362 0.69615 0.93836 0.0
C1164 C 0.5618 0.72846 0.93307 0.0
C1165 C 0.65218 0.68298 0.94416 0.0
C1166 C 0.62479 0.73777 0.93307 0.0
C1167 C 0.58912 0.67362 0.94405 0.0
C1168 C 0.67101 0.71505 0.93847 0.0
C1169 C 0.47805 0.68511 0.93713 0.0
O1170 O 0.21326 0.69889 0.92809 0.0
O1171 O 0.29386 0.67557 0.94264 0.0
C1172 C 0.23712 0.67397 0.93648 0.0
O1173 O 0.34746 0.73913 0.95965 0.0
O1174 O 0.15429 0.76399 0.91496 0.0
O1175 O 0.1575 0.78687 0.93863 0.0
O1176 O 0.24081 0.73884 0.95728 0.0
C1177 C 0.29191 0.73987 0.9662 0.0
O1178 O 0.39186 0.76983 0.93162 0.0
O1179 O 0.29781 0.79539 0.93758 0.0
O1180 O 0.29576 0.75999 0.90859 0.0
O1181 O 0.44288 0.68915 0.94982 0.0
O1182 O 0.44932 0.69356 0.92389 0.0
O1183 O 0.32817 0.70664 0.91175 0.0
C1184 C 0.05855 0.77188 0.92843 0.0
C1185 C 0.04343 0.74195 0.93669 0.0
C1186 C 0.94805 0.78329 0.92474 0.0
C1187 C 0.98094 0.73255 0.93881 0.0
C1188 C 1.01054 0.7925 0.9225 0.0
C1189 C 0.93248 0.75312 0.93285 0.0
C1190 C 0.12408 0.78155 0.92575 0.0
C1191 C 0.35776 0.79697 0.93474 0.0
H1192 H 0.5274 0.74626 0.92859 0.0
H1193 H 0.68615 0.66501 0.94866 0.0
H1194 H 0.63731 0.76246 0.92839 0.0
H1195 H 0.57599 0.64858 0.9482 0.0
H1196 H 0.08 0.72594 0.94149 0.0
H1197 H 0.91191 0.79949 0.91984 0.0
H1198 H 0.97054 0.70937 0.94527 0.0
H1199 H 1.02139 0.81566 0.91607 0.0
Eu1200 Eu 0.45256 0.71862 0.81613 0.0
Eu1201 Eu 0.58796 0.75823 0.82098 0.0
C1202 C 0.49982 0.73567 0.84938 0.0
C1203 C 0.2772 0.70023 0.81404 0.0
C1204 C 0.26128 0.73467 0.81331 0.0
C1205 C 0.16703 0.68562 0.81402 0.0
C1206 C 0.19855 0.74456 0.81317 0.0
C1207 C 0.22979 0.67579 0.81419 0.0
C1208 C 0.1506 0.72016 0.81374 0.0
C1209 C 0.34262 0.68966 0.81593 0.0
O1210 O 0.61107 0.70327 0.82233 0.0
O1211 O 0.52546 0.67885 0.81007 0.0
C1212 C 0.58389 0.67777 0.8151 0.0
O1213 O 0.47248 0.74246 0.79237 0.0
O1214 O 0.66616 0.76898 0.83695 0.0
O1215 O 0.66416 0.79114 0.81307 0.0
O1216 O 0.57936 0.74346 0.79451 0.0
C1217 C 0.52786 0.74378 0.78572 0.0
O1218 O 0.43046 0.77426 0.82082 0.0
O1219 O 0.5238 0.79951 0.81397 0.0
O1220 O 0.52668 0.76282 0.84346 0.0
O1221 O 0.3785 0.69166 0.80325 0.0
O1222 O 0.37027 0.70069 0.82888 0.0
O1223 O 0.49625 0.70936 0.84003 0.0
C1224 C 0.76277 0.77651 0.82369 0.0
C1225 C 0.78048 0.74233 0.82276 0.0
C1226 C 0.87125 0.79295 0.82023 0.0
C1227 C 0.8432 0.73351 0.82065 0.0
C1228 C 0.80848 0.80173 0.82234 0.0
C1229 C 0.88949 0.75871 0.81942 0.0
C1230 C 0.69697 0.78612 0.82609 0.0
C1231 C 0.46428 0.8013 0.81729 0.0
H1232 H 0.29737 0.7539 0.81322 0.0
H1233 H 0.13145 0.66618 0.81465 0.0
H1234 H 0.1876 0.77133 0.81272 0.0
H1235 H 0.24127 0.64908 0.81488 0.0
H1236 H 0.74585 0.72249 0.82383 0.0
H1237 H 0.90544 0.81303 0.8191 0.0
H1238 H 0.85553 0.70691 0.82029 0.0
H1239 H 0.79564 0.82825 0.82294 0.0
Eu1240 Eu 0.36801 0.01775 0.81657 0.0
Eu1241 Eu 0.23299 0.97823 0.82193 0.0
C1242 C 0.32386 -0.00127 0.85006 0.0
C1243 C 0.54328 0.03587 0.81437 0.0
C1244 C 0.56149 0.00342 0.81946 0.0
C1245 C 0.65181 0.0492 0.8086 0.0
C1246 C 0.62449 -0.00587 0.81939 0.0
C1247 C 0.58875 0.05854 0.80878 0.0
C1248 C 0.67068 0.017 0.8141 0.0
C1249 C 0.47774 0.04688 0.8157 0.0
O1250 O 0.21266 0.03333 0.82453 0.0
O1251 O 0.2938 0.05665 0.81015 0.0
C1252 C 0.23692 0.05828 0.81622 0.0
O1253 O 0.34707 -0.00689 0.79309 0.0
O1254 O 0.15362 0.9683 0.83773 0.0
O1255 O 0.15714 0.94522 0.81411 0.0
O1256 O 0.2404 -0.00658 0.79545 0.0
C1257 C 0.29154 -0.00757 0.78653 0.0
O1258 O 0.39123 0.96217 0.82106 0.0
O1259 O 0.2971 0.93678 0.81505 0.0
O1260 O 0.29521 0.97217 0.84412 0.0
O1261 O 0.44248 0.04313 0.80301 0.0
O1262 O 0.44913 0.03813 0.82892 0.0
O1263 O 0.32739 0.02553 0.84097 0.0
C1264 C 0.05807 0.96025 0.82422 0.0
C1265 C 0.04305 0.99022 0.816 0.0
C1266 C 0.94754 0.9487 0.82775 0.0
C1267 C 0.9806 -0.00039 0.81383 0.0
C1268 C 1.01001 0.93952 0.83004 0.0
C1269 C 0.93208 0.97895 0.81969 0.0
C1270 C 0.12357 0.95063 0.82696 0.0
C1271 C 0.35702 0.93509 0.8179 0.0
H1272 H 0.52711 0.98552 0.82385 0.0
H1273 H 0.68576 0.06729 0.80418 0.0
H1274 H 0.63703 0.96933 0.82394 0.0
H1275 H 0.5756 0.08368 0.80478 0.0
H1276 H 0.07968 0.0063 0.81127 0.0
H1277 H 0.91133 0.93243 0.83257 0.0
H1278 H 0.97026 0.02285 0.80741 0.0
H1279 H 1.02079 0.91631 0.83643 0.0
C1280 C 0.88057 0.39632 0.06717 0.0
C1281 C 0.94563 0.39401 0.06476 0.0
H1282 H 0.79309 0.36997 0.06845 0.0
C1283 C 0.97157 0.3627 0.06049 0.0
H1284 H 0.85893 0.42016 0.07034 0.0
C1285 C 0.93365 0.33395 0.05958 0.0
C1286 C 0.86913 0.33612 0.06265 0.0
H1287 H 1.02129 0.36016 0.05843 0.0
H1288 H 0.95498 0.30981 0.05677 0.0
C1289 C 0.84257 0.3677 0.06596 0.0
C1290 C 0.38425 0.89535 0.06076 0.0
C1291 C 0.44909 0.89293 0.06333 0.0
H1292 H 0.29676 0.86905 0.05924 0.0
C1293 C 0.47629 0.86098 0.06519 0.0
H1294 H 0.36241 0.91978 0.05897 0.0
C1295 C 0.43873 0.83209 0.06551 0.0
C1296 C 0.37341 0.83454 0.06367 0.0
H1297 H 0.52606 0.85844 0.06718 0.0
H1298 H 0.4609 0.80785 0.06758 0.0
C1299 C 0.34671 0.86637 0.0608 0.0
C1300 C 0.93178 0.8978 0.19334 0.0
C1301 C 0.8676 0.89542 0.18986 0.0
H1302 H 1.01953 0.87183 0.1951 0.0
C1303 C 0.84168 0.86377 0.18641 0.0
H1304 H 0.95255 0.92201 0.19626 0.0
C1305 C 0.88006 0.83527 0.18548 0.0
C1306 C 0.94486 0.83774 0.18832 0.0
H1307 H 0.7925 0.86136 0.18359 0.0
H1308 H 0.85894 0.81139 0.18217 0.0
C1309 C 0.97007 0.86914 0.19272 0.0
C1310 C 0.43366 0.39759 0.19291 0.0
C1311 C 0.3691 0.39574 0.18988 0.0
H1312 H 0.52082 0.37091 0.19406 0.0
C1313 C 0.342 0.3643 0.18656 0.0
H1314 H 0.45543 0.4216 0.19572 0.0
C1315 C 0.37949 0.33548 0.18535 0.0
C1316 C 0.44458 0.33744 0.18776 0.0
H1317 H 0.29249 0.36227 0.18409 0.0
H1318 H 0.35744 0.31176 0.18218 0.0
C1319 C 0.47107 0.36863 0.19201 0.0
C1320 C 0.09462 0.61724 0.93722 0.0
C1321 C 0.12116 0.58563 0.94049 0.0
H1322 H 0.11094 0.66981 0.93308 0.0
C1323 C 0.18555 0.58348 0.94373 0.0
H1324 H 0.04523 0.61951 0.93462 0.0
C1325 C 0.2234 0.6123 0.94302 0.0
C1326 C 0.19753 0.64366 0.93879 0.0
H1327 H 0.20685 0.55935 0.94654 0.0
H1328 H 0.27304 0.60977 0.94519 0.0
C1329 C 0.13255 0.64593 0.93622 0.0
C1330 C 0.72423 0.11211 0.94143 0.0
C1331 C 0.69795 0.14358 0.93757 0.0
H1332 H 0.70815 0.05899 0.94456 0.0
C1333 C 0.63283 0.14587 0.93528 0.0
H1334 H 0.77401 0.10958 0.94337 0.0
C1335 C 0.59509 0.1171 0.9362 0.0
C1336 C 0.62197 0.08541 0.93909 0.0
H1337 H 0.61095 0.16983 0.93243 0.0
H1338 H 0.54554 0.1194 0.93382 0.0
C1339 C 0.68657 0.08322 0.94205 0.0
C1340 C 0.09473 0.11519 0.81525 0.0
C1341 C 0.12159 0.14685 0.81227 0.0
H1342 H 0.1106 0.0625 0.81914 0.0
C1343 C 0.1862 0.14902 0.8093 0.0
H1344 H 0.04518 0.1129 0.81763 0.0
C1345 C 0.22388 0.12013 0.80999 0.0
C1346 C 0.19761 0.08869 0.81393 0.0
H1347 H 0.20777 0.17321 0.80673 0.0
H1348 H 0.27366 0.12265 0.80803 0.0
C1349 C 0.13248 0.08643 0.81623 0.0
C1350 C 0.68614 0.64915 0.81082 0.0
C1351 C 0.62128 0.64671 0.81335 0.0
H1352 H 0.77392 0.62304 0.80982 0.0
C1353 C 0.59442 0.61485 0.81584 0.0
H1354 H 0.7078 0.67352 0.80866 0.0
C1355 C 0.63234 0.58615 0.81677 0.0
C1356 C 0.69763 0.58867 0.8149 0.0
H1357 H 0.54468 0.61234 0.81789 0.0
H1358 H 0.61046 0.56203 0.81932 0.0
C1359 C 0.72399 0.62032 0.81143 0.0
C1360 C 0.97105 0.86172 0.5607 0.0
C1361 C 0.94501 0.89319 0.56465 0.0
H1362 H 0.95462 0.80867 0.55749 0.0
C1363 C 0.87992 0.89555 0.56701 0.0
H1364 H 1.02079 0.85913 0.5587 0.0
C1365 C 0.842 0.86685 0.56608 0.0
C1366 C 0.86866 0.83516 0.56309 0.0
H1367 H 0.85821 0.91951 0.56993 0.0
H1368 H 0.7925 0.86921 0.56851 0.0
C1369 C 0.93321 0.8329 0.56007 0.0
C1370 C 0.4342 0.33297 0.55941 0.0
C1371 C 0.36962 0.33503 0.56242 0.0
H1372 H 0.52166 0.35936 0.5583 0.0
C1373 C 0.34281 0.36657 0.56568 0.0
H1374 H 0.45574 0.30887 0.55665 0.0
C1375 C 0.3806 0.39528 0.56688 0.0
C1376 C 0.4457 0.39309 0.56453 0.0
H1377 H 0.29329 0.36877 0.56813 0.0
H1378 H 0.35877 0.4191 0.57001 0.0
C1379 C 0.4719 0.36181 0.56031 0.0
C1380 C 0.97141 0.36955 0.69238 0.0
C1381 C 0.94584 0.33827 0.68793 0.0
H1382 H 0.9543 0.42234 0.69626 0.0
C1383 C 0.88086 0.33585 0.6854 0.0
H1384 H 1.02105 0.37217 0.69453 0.0
C1385 C 0.8426 0.36436 0.68666 0.0
C1386 C 0.86883 0.39592 0.69014 0.0
H1387 H 0.85951 0.31202 0.68209 0.0
H1388 H 0.79323 0.36202 0.68406 0.0
C1389 C 0.93324 0.3982 0.69333 0.0
C1390 C 0.47424 0.87025 0.6904 0.0
C1391 C 0.44647 0.83841 0.68848 0.0
H1392 H 0.45998 0.92377 0.69156 0.0
C1393 C 0.38084 0.83612 0.68779 0.0
H1394 H 0.52454 0.87279 0.69102 0.0
C1395 C 0.34376 0.86521 0.68839 0.0
C1396 C 0.37177 0.89716 0.68935 0.0
H1397 H 0.358 0.81185 0.68645 0.0
H1398 H 0.29355 0.86278 0.68733 0.0
C1399 C 0.43722 0.89939 0.69066 0.0
C1400 C 0.18347 0.08248 0.44271 0.0
C1401 C 0.11894 0.08466 0.43966 0.0
H1402 H 0.27104 0.10875 0.44393 0.0
C1403 C 0.09228 0.11629 0.43648 0.0
H1404 H 0.20488 0.0583 0.44542 0.0
C1405 C 0.13019 0.14497 0.43539 0.0
C1406 C 0.19527 0.14267 0.43777 0.0
H1407 H 0.04279 0.11858 0.43402 0.0
H1408 H 0.10849 0.16886 0.43231 0.0
C1409 C 0.22131 0.11129 0.4419 0.0
C1410 C 0.72124 0.61123 0.44252 0.0
C1411 C 0.69507 0.64267 0.43855 0.0
H1412 H 0.70501 0.55816 0.4458 0.0
C1413 C 0.62997 0.64496 0.43621 0.0
H1414 H 0.77099 0.60869 0.44452 0.0
C1415 C 0.59216 0.61622 0.43718 0.0
C1416 C 0.61894 0.58455 0.44019 0.0
H1417 H 0.60817 0.6689 0.43327 0.0
H1418 H 0.54264 0.61852 0.43476 0.0
C1419 C 0.6835 0.58236 0.4432 0.0
C1420 C 0.22232 0.61943 0.31157 0.0
C1421 C 0.19539 0.58792 0.31502 0.0
H1422 H 0.20718 0.67266 0.30881 0.0
C1423 C 0.13007 0.58577 0.31694 0.0
H1424 H 0.27229 0.62188 0.30993 0.0
C1425 C 0.09272 0.61471 0.31604 0.0
C1426 C 0.12017 0.64643 0.31354 0.0
H1427 H 0.10773 0.56178 0.31947 0.0
H1428 H 0.04294 0.61248 0.3181 0.0
C1429 C 0.18505 0.64847 0.31098 0.0
C1430 C 0.63047 0.08563 0.31662 0.0
C1431 C 0.69544 0.08805 0.31406 0.0
H1432 H 0.54292 0.11184 0.31813 0.0
C1433 C 0.72107 0.11941 0.30973 0.0
H1434 H 0.60907 0.06175 0.31985 0.0
C1435 C 0.68297 0.14812 0.30892 0.0
C1436 C 0.61858 0.14583 0.31215 0.0
H1437 H 0.7707 0.12203 0.30755 0.0
H1438 H 0.70408 0.1723 0.30607 0.0
C1439 C 0.59229 0.1142 0.31552 0.0
C1440 C 0.13683 0.51634 0.12155 0.0
C1441 C 0.11509 0.48533 0.1153 0.0
H1442 H 0.19761 0.54096 0.13859 0.0
C1443 C 0.13987 0.45508 0.12153 0.0
H1444 H 0.11942 0.54011 0.11682 0.0
C1445 C 0.18489 0.45558 0.13363 0.0
C1446 C 0.2068 0.48634 0.13997 0.0
H1447 H 0.12471 0.43074 0.11697 0.0
H1448 H 0.20218 0.4316 0.13816 0.0
C1449 C 0.18244 0.51684 0.13378 0.0
C1450 C 0.18241 0.71415 0.12013 0.0
C1451 C 0.2061 0.74467 0.11378 0.0
H1452 H 0.12009 0.69087 0.13728 0.0
C1453 C 0.1836 0.77542 0.12 0.0
H1454 H 0.19803 0.69003 0.11541 0.0
C1455 C 0.13871 0.7759 0.13214 0.0
C1456 C 0.11465 0.74564 0.13854 0.0
H1457 H 0.20034 0.79942 0.11536 0.0
H1458 H 0.12313 0.80026 0.1366 0.0
C1459 C 0.13693 0.71464 0.13242 0.0
C1460 C 0.88901 0.46598 0.87151 0.0
C1461 C 0.86729 0.497 0.86525 0.0
H1462 H 0.94964 0.44132 0.8886 0.0
C1463 C 0.8919 0.52724 0.87151 0.0
H1464 H 0.87172 0.44222 0.86677 0.0
C1465 C 0.93674 0.52671 0.88366 0.0
C1466 C 0.95867 0.49594 0.89 0.0
H1467 H 0.87673 0.5516 0.86693 0.0
H1468 H 0.9539 0.55068 0.88821 0.0
C1469 C 0.93447 0.46545 0.88378 0.0
C1470 C 0.93471 0.26705 0.86888 0.0
C1471 C 0.9589 0.23657 0.86265 0.0
H1472 H 0.87192 0.29026 0.8859 0.0
C1473 C 0.93691 0.20579 0.86897 0.0
H1474 H 0.94994 0.29119 0.86407 0.0
C1475 C 0.89201 0.20525 0.88111 0.0
C1476 C 0.8674 0.23548 0.88738 0.0
H1477 H 0.95407 0.18182 0.86441 0.0
H1478 H 0.87678 0.18088 0.88567 0.0
C1479 C 0.8892 0.2665 0.88114 0.0
C1480 C 0.13714 0.01649 0.62066 0.0
C1481 C 0.11516 0.9854 0.61457 0.0
H1482 H 0.19847 0.04135 0.6375 0.0
C1483 C 0.14008 0.95524 0.62085 0.0
H1484 H 0.11961 0.0402 0.61589 0.0
C1485 C 0.18549 0.9559 0.63285 0.0
C1486 C 0.20764 0.98675 0.63904 0.0
H1487 H 0.12474 0.93083 0.6164 0.0
H1488 H 0.20288 0.93198 0.63743 0.0
C1489 C 0.18313 0.01716 0.63279 0.0
C1490 C 0.18273 0.21495 0.6189 0.0
C1491 C 0.20724 0.24535 0.61263 0.0
H1492 H 0.1197 0.19195 0.63594 0.0
C1493 C 0.18563 0.27621 0.61893 0.0
H1494 H 0.19767 0.19076 0.61411 0.0
C1495 C 0.14075 0.2769 0.63107 0.0
C1496 C 0.1158 0.24675 0.63737 0.0
H1497 H 0.20306 0.30011 0.61434 0.0
H1498 H 0.12582 0.30131 0.63561 0.0
C1499 C 0.13725 0.21565 0.63116 0.0
C1500 C 0.93502 0.02589 0.38296 0.0
C1501 C 0.95646 -0.00497 0.38934 0.0
H1502 H 0.87561 0.05098 0.36616 0.0
C1503 C 0.93204 0.96464 0.38309 0.0
H1504 H 0.95238 0.0498 0.38754 0.0
C1505 C 0.88681 0.96533 0.37076 0.0
C1506 C 0.86554 -0.00358 0.36448 0.0
H1507 H 0.94685 0.94045 0.38792 0.0
H1508 H 0.86932 0.94163 0.366 0.0
C1509 C 0.89041 0.02657 0.37076 0.0
C1510 C 0.93495 0.7053 0.37007 0.0
C1511 C 0.95702 0.73615 0.36383 0.0
H1512 H 0.87444 0.68021 0.38662 0.0
C1513 C 0.93255 0.76656 0.37007 0.0
H1514 H 0.95231 0.68138 0.36551 0.0
C1515 C 0.88672 0.76588 0.38226 0.0
C1516 C 0.86484 0.73478 0.38841 0.0
H1517 H 0.94783 0.79075 0.36533 0.0
H1518 H 0.86924 0.78958 0.38702 0.0
C1519 C 0.88971 0.70463 0.38213 0.0
C1520 C 0.63885 0.45437 0.62149 0.0
C1521 C 0.61444 0.4846 0.61514 0.0
H1522 H 0.70055 0.43096 0.6383 0.0
C1523 C 0.6362 0.51563 0.62135 0.0
H1524 H 0.62366 0.43001 0.61695 0.0
C1525 C 0.68149 0.51618 0.63366 0.0
C1526 C 0.7055 0.48571 0.63997 0.0
H1527 H 0.61907 0.53938 0.61654 0.0
H1528 H 0.69672 0.54033 0.63843 0.0
C1529 C 0.68353 0.45492 0.63368 0.0
C1530 C 0.68267 0.77612 0.61976 0.0
C1531 C 0.70514 0.74536 0.61356 0.0
H1532 H 0.62208 0.80096 0.63636 0.0
C1533 C 0.68127 0.71485 0.61987 0.0
H1534 H 0.69956 0.80011 0.61514 0.0
C1535 C 0.63566 0.71535 0.63211 0.0
C1536 C 0.61342 0.74635 0.63824 0.0
H1537 H 0.69688 0.69072 0.61516 0.0
H1538 H 0.61867 0.69157 0.63694 0.0
C1539 C 0.63765 0.77661 0.63188 0.0
C1540 C 0.38821 0.52611 0.37156 0.0
C1541 C 0.36381 0.49587 0.36526 0.0
H1542 H 0.45032 0.54957 0.38823 0.0
C1543 C 0.386 0.46485 0.37142 0.0
H1544 H 0.37269 0.55047 0.36707 0.0
C1545 C 0.4317 0.46433 0.38363 0.0
C1546 C 0.45571 0.49482 0.38989 0.0
H1547 H 0.36889 0.44109 0.36664 0.0
H1548 H 0.44724 0.44019 0.38836 0.0
C1549 C 0.43332 0.5256 0.38365 0.0
C1550 C 0.3863 0.26539 0.38105 0.0
C1551 C 0.36451 0.23436 0.38729 0.0
H1552 H 0.44695 0.29008 0.36396 0.0
C1553 C 0.38902 0.20413 0.381 0.0
H1554 H 0.3691 0.28914 0.38582 0.0
C1555 C 0.43383 0.20467 0.36883 0.0
C1556 C 0.45583 0.23545 0.36251 0.0
H1557 H 0.37379 0.17976 0.38556 0.0
H1558 H 0.45092 0.1807 0.36425 0.0
C1559 C 0.43172 0.26593 0.36876 0.0
C1560 C 0.68075 0.0156 0.13273 0.0
C1561 C 0.70395 0.98501 0.13912 0.0
H1562 H 0.61917 0.03912 0.11552 0.0
C1563 C 0.68135 0.95433 0.13285 0.0
H1564 H 0.69646 0.03968 0.13748 0.0
C1565 C 0.63689 0.95401 0.1206 0.0
C1566 C 0.61331 0.98436 0.11417 0.0
H1567 H 0.69773 0.93029 0.13753 0.0
H1568 H 0.6212 0.92973 0.11606 0.0
C1569 C 0.63566 0.01528 0.12038 0.0
C1570 C 0.68133 0.21492 0.11879 0.0
C1571 C 0.70516 0.24552 0.11255 0.0
H1572 H 0.61871 0.19141 0.13578 0.0
C1573 C 0.68256 0.27619 0.11883 0.0
H1574 H 0.69704 0.19085 0.11403 0.0
C1575 C 0.63748 0.27652 0.13092 0.0
C1576 C 0.6133 0.24617 0.13721 0.0
H1577 H 0.69942 0.30024 0.11427 0.0
H1578 H 0.62181 0.3008 0.13545 0.0
C1579 C 0.63565 0.21525 0.13101 0.0
C1580 C 0.39091 0.02697 0.87048 0.0
C1581 C 0.36647 -0.00325 0.86416 0.0
H1582 H 0.45313 0.05035 0.88714 0.0
C1583 C 0.38865 0.96571 0.87029 0.0
H1584 H 0.37539 0.05135 0.86601 0.0
C1585 C 0.43441 0.96513 0.88248 0.0
C1586 C 0.45848 -0.00441 0.88876 0.0
H1587 H 0.37152 0.94197 0.86548 0.0
H1588 H 0.44997 0.94097 0.88719 0.0
C1589 C 0.43607 0.02639 0.88255 0.0
C1590 C 0.43386 0.76703 0.86993 0.0
C1591 C 0.45803 0.73657 0.86367 0.0
H1592 H 0.37125 0.79018 0.88701 0.0
C1593 C 0.43616 0.70577 0.87001 0.0
H1594 H 0.44901 0.79118 0.86512 0.0
C1595 C 0.39139 0.70519 0.88218 0.0
C1596 C 0.36681 0.7354 0.88848 0.0
H1597 H 0.45331 0.68181 0.86544 0.0
H1598 H 0.37627 0.68081 0.88675 0.0
C1599 C 0.38849 0.76644 0.88223 0.0
C1600 C 0.22427 0.61788 0.06837 0.0
C1601 C 0.1856 0.64681 0.06838 0.0
H1602 H 0.22943 0.5637 0.06867 0.0
C1603 C 0.12079 0.64268 0.06897 0.0
H1604 H 0.27463 0.62017 0.06806 0.0
C1605 C 0.09508 0.61025 0.06925 0.0
C1606 C 0.13373 0.58132 0.06908 0.0
H1607 H 0.08991 0.66442 0.06905 0.0
H1608 H 0.04472 0.60795 0.06962 0.0
C1609 C 0.19857 0.58544 0.06878 0.0
C1610 C 0.1987 0.64633 0.18566 0.0
C1611 C 0.1339 0.65055 0.18509 0.0
H1612 H 0.27455 0.61145 0.18658 0.0
C1613 C 0.09516 0.62167 0.18465 0.0
H1614 H 0.22963 0.66804 0.18598 0.0
C1615 C 0.12069 0.58921 0.18491 0.0
C1616 C 0.18543 0.58497 0.18576 0.0
H1617 H 0.04484 0.62404 0.18406 0.0
H1618 H 0.0897 0.56753 0.18461 0.0
C1619 C 0.22423 0.61384 0.18607 0.0
C1620 C 0.95012 0.33544 0.93486 0.0
C1621 C 0.88536 0.33123 0.93399 0.0
H1622 H 1.02589 0.37028 0.9363 0.0
C1623 C 0.84664 0.36011 0.93353 0.0
H1624 H 0.98103 0.31372 0.93521 0.0
C1625 C 0.87214 0.39257 0.93409 0.0
C1626 C 0.93682 0.39678 0.93525 0.0
H1627 H 0.79637 0.35775 0.93272 0.0
H1628 H 0.84117 0.41425 0.93376 0.0
C1629 C 0.9756 0.36791 0.93556 0.0
C1630 C 0.95009 0.39698 0.81782 0.0
C1631 C 0.88531 0.40113 0.81862 0.0
H1632 H 1.02599 0.3622 0.81645 0.0
C1633 C 0.84665 0.37222 0.81901 0.0
H1634 H 0.98096 0.41872 0.81752 0.0
C1635 C 0.87226 0.33979 0.81847 0.0
C1636 C 0.93697 0.33563 0.81738 0.0
H1637 H 0.79636 0.37455 0.81977 0.0
H1638 H 0.84134 0.31808 0.81874 0.0
C1639 C 0.97568 0.36454 0.81713 0.0
C1640 C 0.09461 0.10955 0.56841 0.0
C1641 C 0.13325 0.08063 0.5681 0.0
H1642 H 0.0894 0.1637 0.56823 0.0
C1643 C 0.19807 0.08476 0.56755 0.0
H1644 H 0.04428 0.10724 0.56898 0.0
C1645 C 0.22374 0.11721 0.56701 0.0
C1646 C 0.18506 0.14613 0.56718 0.0
H1647 H 0.22893 0.06302 0.56732 0.0
H1648 H 0.27408 0.11953 0.56652 0.0
C1649 C 0.12029 0.14198 0.56803 0.0
C1650 C 0.19953 0.14718 0.68411 0.0
C1651 C 0.1347 0.15129 0.68355 0.0
H1652 H 0.27558 0.11245 0.68506 0.0
C1653 C 0.09611 0.12235 0.68312 0.0
H1654 H 0.23033 0.16894 0.68442 0.0
C1655 C 0.12184 0.08993 0.6834 0.0
C1656 C 0.18662 0.08582 0.68427 0.0
H1657 H 0.04578 0.12464 0.68253 0.0
H1658 H 0.09099 0.06819 0.68313 0.0
C1659 C 0.22524 0.11475 0.68454 0.0
C1660 C 0.9477 0.83444 0.43499 0.0
C1661 C 0.88287 0.83024 0.4346 0.0
H1662 H 1.02362 0.86928 0.43571 0.0
C1663 C 0.84414 0.85912 0.43428 0.0
H1664 H 0.97863 0.81273 0.43522 0.0
C1665 C 0.86972 0.89158 0.43448 0.0
C1666 C 0.9345 0.8958 0.43516 0.0
H1667 H 0.7938 0.85676 0.43383 0.0
H1668 H 0.83875 0.91327 0.43428 0.0
C1669 C 0.97327 0.86691 0.43534 0.0
C1670 C 0.87105 0.83956 0.31884 0.0
C1671 C 0.93584 0.83539 0.31814 0.0
H1672 H 0.79501 0.87431 0.31938 0.0
C1673 C 0.97453 0.8643 0.31783 0.0
H1674 H 0.84015 0.81784 0.31914 0.0
C1675 C 0.94885 0.89675 0.31807 0.0
C1676 C 0.88401 0.9009 0.31846 0.0
H1677 H 1.02488 0.86197 0.31745 0.0
H1678 H 0.97972 0.91849 0.31774 0.0
C1679 C 0.84536 0.87199 0.31892 0.0
C1680 C 0.69775 0.58495 0.56834 0.0
C1681 C 0.63295 0.58068 0.56878 0.0
H1682 H 0.77355 0.61986 0.56749 0.0
C1683 C 0.59411 0.60953 0.56908 0.0
H1684 H 0.72876 0.56327 0.56813 0.0
C1685 C 0.61958 0.64202 0.56879 0.0
C1686 C 0.68434 0.64629 0.56805 0.0
H1687 H 0.54378 0.60712 0.56956 0.0
H1688 H 0.58854 0.66368 0.56897 0.0
C1689 C 0.72321 0.61745 0.5679 0.0
C1690 C 0.61929 0.58886 0.68495 0.0
C1691 C 0.68408 0.58464 0.68553 0.0
H1692 H 0.54339 0.62371 0.68426 0.0
C1693 C 0.7229 0.6135 0.6855 0.0
H1694 H 0.5883 0.56717 0.68491 0.0
C1695 C 0.69737 0.64597 0.68502 0.0
C1696 C 0.63254 0.65019 0.68474 0.0
H1697 H 0.77326 0.61112 0.68578 0.0
H1698 H 0.72833 0.66767 0.68509 0.0
C1699 C 0.59374 0.62132 0.68463 0.0
C1700 C 0.36992 0.39148 0.434 0.0
C1701 C 0.43462 0.39569 0.43512 0.0
H1702 H 0.29412 0.35668 0.43269 0.0
C1703 C 0.47339 0.36681 0.43538 0.0
H1704 H 0.33896 0.41317 0.43371 0.0
C1705 C 0.44788 0.33434 0.43469 0.0
C1706 C 0.38312 0.33014 0.43388 0.0
H1707 H 0.52369 0.36917 0.43608 0.0
H1708 H 0.47879 0.31262 0.43502 0.0
C1709 C 0.3444 0.35903 0.43346 0.0
C1710 C 0.36911 0.3387 0.31837 0.0
C1711 C 0.43381 0.3345 0.31728 0.0
H1712 H 0.2933 0.3735 0.3197 0.0
C1713 C 0.4726 0.36338 0.31709 0.0
H1714 H 0.33814 0.317 0.3186 0.0
C1715 C 0.44709 0.39584 0.31783 0.0
C1716 C 0.38232 0.40003 0.31861 0.0
H1717 H 0.5229 0.36101 0.31642 0.0
H1718 H 0.47801 0.41755 0.31757 0.0
C1719 C 0.34359 0.37115 0.31895 0.0
C1720 C 0.69816 0.08592 0.06719 0.0
C1721 C 0.63335 0.08163 0.06745 0.0
H1722 H 0.77394 0.12085 0.06653 0.0
C1723 C 0.59445 0.11045 0.06758 0.0
H1724 H 0.72921 0.06426 0.06711 0.0
C1725 C 0.61988 0.14295 0.06733 0.0
C1726 C 0.68467 0.14724 0.06679 0.0
H1727 H 0.5441 0.10801 0.06792 0.0
H1728 H 0.58882 0.1646 0.06739 0.0
C1729 C 0.72359 0.11842 0.06678 0.0
C1730 C 0.6964 0.14544 0.18404 0.0
C1731 C 0.6316 0.14969 0.18359 0.0
H1732 H 0.77221 0.11055 0.18499 0.0
C1733 C 0.59277 0.12084 0.18339 0.0
H1734 H 0.7274 0.16713 0.18418 0.0
C1735 C 0.61825 0.08836 0.18378 0.0
C1736 C 0.68301 0.0841 0.18452 0.0
H1737 H 0.54244 0.12324 0.1829 0.0
H1738 H 0.58722 0.06669 0.18366 0.0
C1739 C 0.72187 0.11295 0.18457 0.0
C1740 C 0.4508 0.83518 0.93468 0.0
C1741 C 0.38595 0.831 0.9345 0.0
H1742 H 0.5268 0.87 0.93506 0.0
C1743 C 0.34725 0.8599 0.93417 0.0
H1744 H 0.48171 0.81346 0.9349 0.0
C1745 C 0.37288 0.89235 0.93418 0.0
C1746 C 0.43769 0.89654 0.93466 0.0
H1747 H 0.29688 0.85756 0.93388 0.0
H1748 H 0.34194 0.91405 0.93399 0.0
C1749 C 0.47643 0.86765 0.93484 0.0
C1750 C 0.37163 0.83968 0.81828 0.0
C1751 C 0.43641 0.8354 0.81772 0.0
H1752 H 0.29583 0.87459 0.81874 0.0
C1753 C 0.47529 0.86424 0.81755 0.0
H1754 H 0.34059 0.81802 0.81847 0.0
C1755 C 0.44984 0.89674 0.81781 0.0
C1756 C 0.38503 0.90102 0.81807 0.0
H1757 H 0.52564 0.86182 0.81727 0.0
H1758 H 0.48086 0.91842 0.81759 0.0
C1759 C 0.34617 0.87218 0.81838 0.0
C1760 C 0.56876 0.51743 0.06454 0.0
C1761 C 0.61396 0.4933 0.06891 0.0
H1762 H 0.47262 0.52748 0.05951 0.0
C1763 C 0.59494 0.45968 0.0716 0.0
H1764 H 0.58204 0.54343 0.06215 0.0
C1765 C 0.53202 0.45055 0.07026 0.0
C1766 C 0.48653 0.47476 0.06607 0.0
H1767 H 0.6285 0.44058 0.07517 0.0
H1768 H 0.51894 0.42465 0.07293 0.0
C1769 C 0.50594 0.50826 0.06307 0.0
C1770 C 0.75063 0.70992 0.06261 0.0
C1771 C 0.70535 0.73401 0.06695 0.0
H1772 H 0.84684 0.69992 0.05762 0.0
C1773 C 0.72432 0.76763 0.06962 0.0
H1774 H 0.7374 0.68391 0.06023 0.0
C1775 C 0.78723 0.7768 0.06829 0.0
C1776 C 0.83281 0.75262 0.06413 0.0
H1777 H 0.69072 0.78673 0.07317 0.0
H1778 H 0.80025 0.8027 0.07095 0.0
C1779 C 0.81346 0.71912 0.06115 0.0
C1780 C 0.59479 0.77221 0.18209 0.0
C1781 C 0.61399 0.73892 0.18551 0.0
H1782 H 0.51864 0.80701 0.18009 0.0
C1783 C 0.56901 0.71526 0.19056 0.0
H1784 H 0.62818 0.79093 0.17799 0.0
C1785 C 0.5062 0.72454 0.19197 0.0
C1786 C 0.48656 0.75767 0.18821 0.0
H1787 H 0.58245 0.68955 0.19353 0.0
H1788 H 0.47307 0.7057 0.19607 0.0
C1789 C 0.53187 0.78143 0.18335 0.0
C1790 C 0.80899 0.50772 0.19619 0.0
C1791 C 0.83126 0.47788 0.18893 0.0
H1792 H 0.73049 0.54003 0.20062 0.0
C1793 C 0.789 0.45751 0.18032 0.0
H1794 H 0.83999 0.52377 0.20309 0.0
C1795 C 0.72627 0.46682 0.17892 0.0
C1796 C 0.70407 0.49677 0.18606 0.0
H1797 H 0.80464 0.43471 0.17432 0.0
H1798 H 0.69543 0.45087 0.17191 0.0
C1799 C 0.74619 0.51705 0.19476 0.0
C1800 C 0.56166 0.4717 0.94515 0.0
C1801 C 0.58286 0.50296 0.93909 0.0
H1802 H 0.48406 0.43824 0.94863 0.0
C1803 C 0.53944 0.52476 0.93172 0.0
H1804 H 0.59352 0.45448 0.95111 0.0
C1805 C 0.47668 0.51548 0.93034 0.0
C1806 C 0.45562 0.4841 0.93626 0.0
H1807 H 0.55416 0.54875 0.92664 0.0
H1808 H 0.4449 0.53261 0.92429 0.0
C1809 C 0.49886 0.46237 0.94373 0.0
C1810 C 0.34676 0.20966 0.93106 0.0
C1811 C 0.36585 0.24326 0.9337 0.0
H1812 H 0.2707 0.17466 0.92981 0.0
C1813 C 0.32073 0.2674 0.9381 0.0
H1814 H 0.38026 0.19054 0.92747 0.0
C1815 C 0.2579 0.25825 0.93962 0.0
C1816 C 0.23842 0.22477 0.93666 0.0
H1817 H 0.33407 0.29339 0.94046 0.0
H1818 H 0.22464 0.27749 0.94319 0.0
C1819 C 0.28384 0.20055 0.93245 0.0
C1820 C 0.56071 0.2577 0.80613 0.0
C1821 C 0.58328 0.22828 0.81373 0.0
H1822 H 0.482 0.28968 0.80142 0.0
C1823 C 0.54132 0.20837 0.8227 0.0
H1824 H 0.59148 0.27339 0.79895 0.0
C1825 C 0.4786 0.2177 0.82412 0.0
C1826 C 0.45609 0.24723 0.81661 0.0
H1827 H 0.5572 0.1859 0.82897 0.0
H1828 H 0.44803 0.20212 0.83141 0.0
C1829 C 0.49791 0.26706 0.80756 0.0
C1830 C 0.28377 0.53164 0.81998 0.0
C1831 C 0.23824 0.50731 0.81602 0.0
H1832 H 0.38027 0.54176 0.82478 0.0
C1833 C 0.25761 0.47371 0.81331 0.0
H1834 H 0.27072 0.55763 0.82243 0.0
C1835 C 0.32043 0.46457 0.81485 0.0
C1836 C 0.36567 0.48883 0.819 0.0
H1837 H 0.22427 0.45437 0.80993 0.0
H1838 H 0.33369 0.43849 0.81269 0.0
C1839 C 0.34668 0.52254 0.82139 0.0
C1840 C 0.53138 0.94994 0.56988 0.0
C1841 C 0.48586 0.97412 0.56567 0.0
H1842 H 0.62788 0.94001 0.57479 0.0
C1843 C 0.50523 0.00761 0.56264 0.0
H1844 H 0.51832 0.92405 0.57257 0.0
C1845 C 0.56805 0.0168 0.5641 0.0
C1846 C 0.61329 -0.00729 0.56848 0.0
H1847 H 0.4719 0.02681 0.55907 0.0
H1848 H 0.58131 0.0428 0.56167 0.0
C1849 C 0.5943 0.9591 0.5712 0.0
C1850 C 0.74607 0.21465 0.5576 0.0
C1851 C 0.70421 0.23454 0.56659 0.0
H1852 H 0.83967 0.20828 0.54903 0.0
C1853 C 0.72667 0.26412 0.57402 0.0
H1854 H 0.73019 0.19198 0.55152 0.0
C1855 C 0.78939 0.27345 0.5726 0.0
C1856 C 0.8314 0.25348 0.5637 0.0
H1857 H 0.69606 0.27974 0.58127 0.0
H1858 H 0.80524 0.29596 0.57882 0.0
C1859 C 0.80887 0.22401 0.55616 0.0
C1860 C 0.56924 0.21526 0.6881 0.0
C1861 C 0.61453 0.23939 0.68379 0.0
H1862 H 0.47304 0.20522 0.69307 0.0
C1863 C 0.5956 0.27305 0.68116 0.0
H1864 H 0.58245 0.18923 0.69045 0.0
C1865 C 0.53268 0.2822 0.68249 0.0
C1866 C 0.48709 0.25798 0.68661 0.0
H1867 H 0.62924 0.29217 0.67765 0.0
H1868 H 0.51967 0.30813 0.67986 0.0
C1869 C 0.50642 0.22445 0.68956 0.0
C1870 C 0.81385 0.01463 0.69135 0.0
C1871 C 0.83317 0.98117 0.68826 0.0
H1872 H 0.73775 0.0498 0.69242 0.0
C1873 C 0.78767 0.95706 0.68399 0.0
H1874 H 0.84724 0.03377 0.69495 0.0
C1875 C 0.72479 0.96623 0.68269 0.0
C1876 C 0.70578 -0.00021 0.68551 0.0
H1877 H 0.80073 0.93121 0.68124 0.0
H1878 H 0.69125 0.94719 0.67905 0.0
C1879 C 0.75101 0.02384 0.68993 0.0
C1880 C 0.55786 0.97391 0.44602 0.0
C1881 C 0.58055 0.0033 0.43841 0.0
H1882 H 0.47906 0.94196 0.4507 0.0
C1883 C 0.53872 0.02321 0.42941 0.0
H1884 H 0.58853 0.95822 0.45322 0.0
C1885 C 0.47601 0.01389 0.42797 0.0
C1886 C 0.45338 0.98439 0.43547 0.0
H1887 H 0.5547 0.04565 0.42314 0.0
H1888 H 0.44554 0.02946 0.42065 0.0
C1889 C 0.49507 0.96457 0.44456 0.0
C1890 C 0.31796 0.76638 0.43909 0.0
C1891 C 0.36315 0.74227 0.4347 0.0
H1892 H 0.22181 0.77641 0.44413 0.0
C1893 C 0.34413 0.70867 0.43201 0.0
H1894 H 0.33124 0.79236 0.44149 0.0
C1895 C 0.28121 0.69954 0.43336 0.0
C1896 C 0.23572 0.72372 0.43756 0.0
H1897 H 0.37768 0.68958 0.42843 0.0
H1898 H 0.26812 0.67365 0.43069 0.0
C1899 C 0.25513 0.7572 0.44057 0.0
C1900 C 0.47467 0.7163 0.32204 0.0
C1901 C 0.45477 0.74895 0.31763 0.0
H1902 H 0.55128 0.68201 0.32465 0.0
C1903 C 0.49912 0.77203 0.31167 0.0
H1904 H 0.44189 0.69806 0.3269 0.0
C1905 C 0.56194 0.76275 0.31025 0.0
C1906 C 0.58208 0.7302 0.31485 0.0
H1907 H 0.48518 0.79723 0.30796 0.0
H1908 H 0.59465 0.78107 0.30544 0.0
C1909 C 0.53749 0.70707 0.3207 0.0
C1910 C 0.28208 0.03175 0.31928 0.0
C1911 C 0.23657 0.00748 0.31521 0.0
H1912 H 0.37856 0.04179 0.32416 0.0
C1913 C 0.25597 0.97393 0.31239 0.0
H1914 H 0.26901 0.0577 0.32182 0.0
C1915 C 0.31879 0.96477 0.31391 0.0
C1916 C 0.364 0.98896 0.31817 0.0
H1917 H 0.22265 0.95465 0.30892 0.0
H1918 H 0.33205 0.93873 0.31165 0.0
C1919 C 0.345 0.02263 0.32068 0.0
C1920 C 0.0945 0.45902 0.57129 0.0
C1921 C 0.1136 0.49263 0.56862 0.0
H1922 H 1.01842 0.42404 0.57259 0.0
C1923 C 0.06849 0.51678 0.56421 0.0
H1924 H 0.12799 0.4399 0.57489 0.0
C1925 C 1.00566 0.50764 0.56271 0.0
C1926 C 0.98618 0.47416 0.56571 0.0
H1927 H 0.08184 0.54277 0.56182 0.0
H1928 H 0.9724 0.52688 0.55913 0.0
C1929 C 1.03158 0.44993 0.56992 0.0
C1930 C 0.30761 0.7244 0.55719 0.0
C1931 C 0.33026 0.75385 0.56471 0.0
H1932 H 0.22882 0.69242 0.55258 0.0
C1933 C 0.2884 0.77382 0.57366 0.0
H1934 H 0.3383 0.70867 0.55003 0.0
C1935 C 0.22568 0.76451 0.57513 0.0
C1936 C 0.20309 0.73496 0.5677 0.0
H1937 H 0.30436 0.79631 0.57988 0.0
H1938 H 0.19518 0.78013 0.5824 0.0
C1939 C 0.24481 0.71507 0.55866 0.0
C1940 C 1.00504 0.72218 0.69038 0.0
C1941 C 0.9858 0.75576 0.68753 0.0
H1942 H 0.08107 0.68695 0.69124 0.0
C1943 C 1.03142 0.78003 0.68353 0.0
H1944 H 0.97158 0.7029 0.69378 0.0
C1945 C 0.09433 0.7709 0.68223 0.0
C1946 C 0.11322 0.73722 0.68478 0.0
H1947 H 1.01844 0.806 0.68097 0.0
H1948 H 0.12799 0.79008 0.6788 0.0
C1949 C 0.06789 0.71301 0.68896 0.0
C1950 C 0.22561 0.4664 0.67855 0.0
C1951 C 0.20301 0.49599 0.68595 0.0
H1952 H 0.30428 0.43456 0.67383 0.0
C1953 C 0.24473 0.51588 0.69498 0.0
H1954 H 0.19512 0.45076 0.67128 0.0
C1955 C 0.30751 0.50654 0.69647 0.0
C1956 C 0.33018 0.47707 0.68896 0.0
H1957 H 0.22875 0.53856 0.70104 0.0
H1958 H 0.33819 0.52229 0.70362 0.0
C1959 C 0.28832 0.45707 0.68003 0.0
C1960 C 0.99532 0.46402 0.4447 0.0
C1961 C 0.95347 0.48406 0.43577 0.0
H1962 H 0.08891 0.45749 0.45324 0.0
C1963 C 0.97595 0.51378 0.42842 0.0
H1964 H 0.97943 0.44124 0.45071 0.0
C1965 C 0.03866 0.52309 0.42987 0.0
C1966 C 0.08065 0.50296 0.43871 0.0
H1967 H 0.94535 0.52953 0.42123 0.0
H1968 H 0.05452 0.54571 0.42371 0.0
C1969 C 0.05812 0.47335 0.44615 0.0
C1970 C 0.8444 0.20847 0.43109 0.0
C1971 C 0.86346 0.24206 0.4338 0.0
H1972 H 0.76836 0.17348 0.42974 0.0
C1973 C 0.81831 0.26615 0.43822 0.0
H1974 H 0.87793 0.18939 0.42748 0.0
C1975 C 0.75549 0.25699 0.43971 0.0
C1976 C 0.73603 0.22353 0.43668 0.0
H1977 H 0.83163 0.29213 0.44064 0.0
H1978 H 0.72221 0.27619 0.44331 0.0
C1979 C 0.78148 0.19935 0.43244 0.0
C1980 C 0.05748 0.25647 0.30591 0.0
C1981 C 0.07997 0.22697 0.31346 0.0
H1982 H 0.97885 0.28853 0.30124 0.0
C1983 C 0.03791 0.20696 0.32235 0.0
H1984 H 0.08832 0.27223 0.29879 0.0
C1985 C 0.97518 0.2163 0.32375 0.0
C1986 C 0.95277 0.24593 0.31632 0.0
H1987 H 0.05372 0.18442 0.32858 0.0
H1988 H 0.94453 0.20066 0.33099 0.0
C1989 C 0.99469 0.26583 0.30733 0.0
C1990 C 0.81772 0.46362 0.31443 0.0
C1991 C 0.86285 0.48772 0.31885 0.0
H1992 H 0.7216 0.45357 0.30937 0.0
C1993 C 0.84377 0.5213 0.32157 0.0
H1994 H 0.83105 0.43765 0.31201 0.0
C1995 C 0.78086 0.53042 0.32022 0.0
C1996 C 0.73543 0.50623 0.31599 0.0
H1997 H 0.87728 0.54039 0.32518 0.0
H1998 H 0.76772 0.55628 0.32293 0.0
C1999 C 0.75488 0.47277 0.31295 0.0
C2000 C 1.0288 0.95429 0.0747 0.0
C2001 C 0.98741 0.97378 0.06536 0.0
H2002 H 0.12157 0.9484 0.08379 0.0
C2003 C 1.01048 0.00274 0.05748 0.0
H2004 H 1.01246 0.93219 0.08119 0.0
C2005 C 0.07326 0.01207 0.05897 0.0
C2006 C 0.11453 -0.00732 0.0684 0.0
H2007 H 0.98012 0.01809 0.05002 0.0
H2008 H 0.08959 0.03432 0.0526 0.0
C2009 C 0.09148 0.96362 0.0762 0.0
C2010 C 0.22606 0.26537 0.07421 0.0
C2011 C 0.20353 0.23578 0.0668 0.0
H2012 H 0.30468 0.29722 0.07895 0.0
C2013 C 0.24532 0.21589 0.05779 0.0
H2014 H 0.19551 0.281 0.08147 0.0
C2015 C 0.3081 0.22524 0.05631 0.0
C2016 C 0.3307 0.25472 0.06383 0.0
H2017 H 0.22938 0.19322 0.05172 0.0
H2018 H 0.33884 0.2095 0.04917 0.0
C2019 C 0.28877 0.2747 0.07275 0.0
C2020 C 1.02621 0.26263 0.19704 0.0
C2021 C 0.9834 0.25446 0.18483 0.0
H2022 H 0.1205 0.2595 0.20544 0.0
C2023 C 1.00501 0.23714 0.17115 0.0
H2024 H 1.01086 0.2757 0.20779 0.0
C2025 C 0.06789 0.22819 0.16969 0.0
C2026 C 0.11085 0.23607 0.18194 0.0
H2027 H 0.97344 0.23102 0.16139 0.0
H2028 H 0.08294 0.21554 0.1588 0.0
C2029 C 0.08912 0.25342 0.19565 0.0
C2030 C 0.2864 0.95576 0.18017 0.0
C2031 C 0.32878 0.97662 0.18847 0.0
H2032 H 0.19277 0.94869 0.17186 0.0
C2033 C 0.30657 0.00688 0.19534 0.0
H2034 H 0.30196 0.93259 0.17447 0.0
C2035 C 0.24379 0.01617 0.1938 0.0
C2036 C 0.20159 -0.00457 0.18538 0.0
H2037 H 0.33763 0.02332 0.20201 0.0
H2038 H 0.2282 0.03951 0.19935 0.0
C2039 C 0.22367 0.96503 0.17865 0.0
C2040 C 0.99835 0.96507 0.94343 0.0
C2041 C 0.9566 0.98503 0.93443 0.0
H2042 H 0.09185 0.9586 0.95204 0.0
C2043 C 0.97918 0.01466 0.92702 0.0
H2044 H 0.98237 0.94236 0.94949 0.0
C2045 C 0.04189 0.02396 0.92849 0.0
C2046 C 0.08377 0.00392 0.9374 0.0
H2047 H 0.94867 0.03035 0.91977 0.0
H2048 H 0.05784 0.04652 0.92229 0.0
C2049 C 0.06114 0.97439 0.9449 0.0
C2050 C 0.84695 0.70947 0.9322 0.0
C2051 C 0.86595 0.74307 0.93491 0.0
H2052 H 0.77097 0.67443 0.93085 0.0
C2053 C 0.82071 0.76715 0.93929 0.0
H2054 H 0.88053 0.69039 0.92862 0.0
C2055 C 0.75788 0.75796 0.94074 0.0
C2056 C 0.7385 0.72448 0.93773 0.0
H2057 H 0.83396 0.79314 0.9417 0.0
H2058 H 0.72453 0.77716 0.94431 0.0
C2059 C 0.78403 0.70031 0.93353 0.0
C2060 C 0.03735 0.71288 0.80628 0.0
C2061 C 0.08387 0.73067 0.81472 0.0
H2062 H 0.93999 0.70805 0.8009 0.0
C2063 C 0.06595 0.75807 0.82449 0.0
H2064 H 0.04956 0.69193 0.79848 0.0
C2065 C 1.00314 0.76727 0.82591 0.0
C2066 C 0.95654 0.74933 0.81758 0.0
H2067 H 0.10033 0.77196 0.83139 0.0
H2068 H 0.991 0.788 0.83384 0.0
C2069 C 0.97449 0.7221 0.80769 0.0
C2070 C 0.78361 0.0317 0.81914 0.0
C2071 C 0.73817 0.00759 0.81481 0.0
H2072 H 0.88003 0.04157 0.82415 0.0
C2073 C 0.75763 0.97419 0.81164 0.0
H2074 H 0.77048 0.05752 0.82195 0.0
C2075 C 0.82046 0.965 0.81309 0.0
C2076 C 0.86559 0.98901 0.81761 0.0
H2077 H 0.72436 0.95506 0.80797 0.0
H2078 H 0.83379 0.93907 0.81057 0.0
C2079 C 0.84652 0.02255 0.82046 0.0
C2080 C 0.97879 0.48851 0.01186 0.0
C2081 C 0.03633 0.49031 0.01985 0.0
H2082 H 0.93123 0.48612 0.98929 0.0
C2083 C 0.09156 0.491 0.01059 0.0
H2084 H 0.93547 0.48778 0.01857 0.0
C2085 C 0.08931 0.48989 0.99378 0.0
C2086 C 1.03179 0.48811 0.98578 0.0
H2087 H 0.1369 0.49231 0.01631 0.0
H2088 H 0.13266 0.49062 0.98708 0.0
C2089 C 0.97654 0.48743 0.99503 0.0
C2090 C 0.23065 0.73777 0.992 0.0
C2091 C 0.28825 0.73987 0.98405 0.0
H2092 H 0.18279 0.73514 0.01452 0.0
C2093 C 0.34334 0.7409 0.99334 0.0
H2094 H 0.18743 0.73677 0.98526 0.0
C2095 C 0.34087 0.73984 0.01016 0.0
C2096 C 0.28326 0.73774 0.01812 0.0
H2097 H 0.38872 0.74247 0.98765 0.0
H2098 H 0.38408 0.74084 0.01691 0.0
C2099 C 0.22818 0.73671 0.00882 0.0
C2100 C 0.08936 0.74263 0.26018 0.0
C2101 C 1.03178 0.74423 0.26817 0.0
H2102 H 0.13708 0.7404 0.23764 0.0
C2103 C 0.97658 0.74487 0.25891 0.0
H2104 H 0.13268 0.74195 0.26689 0.0
C2105 C 0.97893 0.74387 0.24209 0.0
C2106 C 0.03652 0.7422 0.2341 0.0
H2107 H 0.93122 0.74606 0.26464 0.0
H2108 H 0.93563 0.74452 0.23537 0.0
C2109 C 0.0917 0.74161 0.24336 0.0
C2110 C 0.33783 0.49173 0.24371 0.0
C2111 C 0.28025 0.49319 0.23573 0.0
H2112 H 0.38557 0.48971 0.26623 0.0
C2113 C 0.22504 0.4937 0.24499 0.0
H2114 H 0.38117 0.49114 0.23699 0.0
C2115 C 0.22738 0.49278 0.26182 0.0
C2116 C 0.28499 0.49131 0.26979 0.0
H2117 H 0.17968 0.49477 0.23926 0.0
H2118 H 0.18408 0.49337 0.26855 0.0
C2119 C 0.34018 0.49078 0.26052 0.0
C2120 C 0.72874 0.23892 0.99072 0.0
C2121 C 0.78659 0.2402 0.98284 0.0
H2122 H 0.68037 0.23725 0.0132 0.0
C2123 C 0.84151 0.24073 0.9922 0.0
H2124 H 0.68563 0.23835 0.98392 0.0
C2125 C 0.83867 0.23996 0.00901 0.0
C2126 C 0.78085 0.23869 0.0169 0.0
H2127 H 0.88707 0.24165 0.98657 0.0
H2128 H 0.88181 0.24053 0.0158 0.0
C2129 C 0.7259 0.23818 0.00755 0.0
C2130 C 0.08959 0.2426 0.7589 0.0
C2131 C 1.03203 0.24436 0.76689 0.0
H2132 H 0.1373 0.2402 0.73638 0.0
C2133 C 0.97683 0.24504 0.75764 0.0
H2134 H 0.13292 0.24187 0.76561 0.0
C2135 C 0.97917 0.24398 0.74082 0.0
C2136 C 0.03675 0.24219 0.73283 0.0
H2137 H 0.93149 0.24634 0.76338 0.0
H2138 H 0.93587 0.24471 0.7341 0.0
C2139 C 0.09193 0.24151 0.74209 0.0
C2140 C 0.72833 0.49333 0.76193 0.0
C2141 C 0.78619 0.49205 0.76979 0.0
H2142 H 0.67991 0.49498 0.73946 0.0
C2143 C 0.84109 0.49151 0.76041 0.0
H2144 H 0.68523 0.49392 0.76874 0.0
C2145 C 0.83821 0.49225 0.7436 0.0
C2146 C 0.78037 0.49352 0.73573 0.0
H2147 H 0.88666 0.49058 0.76603 0.0
H2148 H 0.88134 0.49166 0.7368 0.0
C2149 C 0.72545 0.49406 0.7451 0.0
C2150 C 0.97733 0.98766 0.51129 0.0
C2151 C 0.03501 0.98922 0.51923 0.0
H2152 H 0.92938 0.98554 0.48877 0.0
C2153 C 0.0901 0.98974 0.50992 0.0
H2154 H 0.9341 0.98706 0.51805 0.0
C2155 C 0.08758 0.98873 0.49311 0.0
C2156 C 1.02992 0.9872 0.48517 0.0
H2157 H 0.13555 -0.00912 0.51559 0.0
H2158 H 0.13084 0.98933 0.48636 0.0
C2159 C 0.9748 0.98666 0.49447 0.0
C2160 C 0.34042 0.23973 0.49207 0.0
C2161 C 0.28528 0.23911 0.48279 0.0
H2162 H 0.38128 0.2395 0.5156 0.0
C2163 C 0.22764 0.23758 0.49076 0.0
H2164 H 0.38584 0.24084 0.48637 0.0
C2165 C 0.2252 0.23671 0.50759 0.0
C2166 C 0.28037 0.23734 0.51686 0.0
H2167 H 0.18438 0.23692 0.48402 0.0
H2168 H 0.17982 0.23561 0.51331 0.0
C2169 C 0.33798 0.23883 0.50888 0.0
C2170 C 0.23038 -0.00563 0.76073 0.0
C2171 C 0.28796 -0.00749 0.76869 0.0
H2172 H 0.18263 -0.0032 0.7382 0.0
C2173 C 0.34312 -0.00822 0.75941 0.0
H2174 H 0.1871 -0.00486 0.76746 0.0
C2175 C 0.34075 -0.00713 0.7426 0.0
C2176 C 0.28317 -0.0053 0.73463 0.0
H2177 H 0.3885 0.99042 0.76512 0.0
H2178 H 0.38404 -0.00791 0.73586 0.0
C2179 C 0.228 -0.00455 0.74391 0.0
C2180 C 0.72713 0.7376 0.49176 0.0
C2181 C 0.78483 0.73909 0.48381 0.0
H2182 H 0.67917 0.73569 0.51429 0.0
C2183 C 0.8399 0.73969 0.49311 0.0
H2184 H 0.68391 0.73695 0.485 0.0
C2185 C 0.83737 0.73883 0.50992 0.0
C2186 C 0.7797 0.73738 0.51788 0.0
H2187 H 0.88536 0.74077 0.48742 0.0
H2188 H 0.88062 0.73949 0.51666 0.0
C2189 C 0.72459 0.73676 0.50858 0.0
C2190 C 0.72428 -0.00607 0.24426 0.0
C2191 C 0.77923 -0.00677 0.2349 0.0
H2192 H 0.68398 -0.00615 0.2679 0.0
C2193 C 0.83702 -0.00826 0.24279 0.0
H2194 H 0.67877 -0.00498 0.23862 0.0
C2195 C 0.83983 -0.00907 0.2596 0.0
C2196 C 0.78491 -0.00837 0.26897 0.0
H2197 H 0.88016 -0.00898 0.23599 0.0
H2198 H 0.88537 0.98983 0.26523 0.0
C2199 C 0.72709 -0.00686 0.26109 0.0
C2200 C 0.59019 0.49008 0.51029 0.0
C2201 C 0.53512 0.48939 0.5196 0.0
H2202 H 0.63092 0.48966 0.48673 0.0
C2203 C 0.47745 0.48754 0.51168 0.0
H2204 H 0.63563 0.49143 0.51597 0.0
C2205 C 0.47493 0.48641 0.49485 0.0
C2206 C 0.53002 0.4871 0.48555 0.0
H2207 H 0.43424 0.4868 0.51844 0.0
H2208 H 0.42952 0.48506 0.48916 0.0
C2209 C 0.58767 0.48892 0.49348 0.0
C2210 C 0.47584 0.74432 0.75864 0.0
C2211 C 0.5311 0.74382 0.76787 0.0
H2212 H 0.43475 0.74387 0.73511 0.0
C2213 C 0.58864 0.7423 0.75986 0.0
H2214 H 0.43051 0.74544 0.76439 0.0
C2215 C 0.59089 0.74126 0.74304 0.0
C2216 C 0.53565 0.74176 0.7338 0.0
H2217 H 0.63201 0.74173 0.76655 0.0
H2218 H 0.63625 0.74014 0.73731 0.0
C2219 C 0.47809 0.7433 0.74181 0.0
C2220 C 0.58641 0.24134 0.25877 0.0
C2221 C 0.52882 0.24311 0.26674 0.0
H2222 H 0.63424 0.23891 0.23626 0.0
C2223 C 0.47365 0.24376 0.25747 0.0
H2224 H 0.62971 0.24062 0.26549 0.0
C2225 C 0.47607 0.24267 0.24064 0.0
C2226 C 0.5337 0.24088 0.23268 0.0
H2227 H 0.42828 0.24506 0.26319 0.0
H2228 H 0.43282 0.24338 0.2339 0.0
C2229 C 0.58883 0.24021 0.24196 0.0
C2230 C 0.48045 0.98875 0.01047 0.0
C2231 C 0.53807 0.98998 0.01845 0.0
H2232 H 0.43266 0.98687 0.98794 0.0
C2233 C 0.59327 0.99019 0.00918 0.0
H2234 H 0.43712 0.98841 0.01719 0.0
C2235 C 0.59088 0.98917 0.99236 0.0
C2236 C 0.53325 0.98795 0.98438 0.0
H2237 H 0.63867 -0.00894 0.01489 0.0
H2238 H 0.6342 0.98952 0.98563 0.0
C2239 C 0.47806 0.98774 0.99365 0.0
loop_
_geom_bond_atom_site_label_1
_geom_bond_atom_site_label_2
_geom_bond_distance
_geom_bond_site_symmetry_2
_ccdc_geom_bond_type
Eu0 C9 2.828 . S
Eu0 O11 2.392 1_655 S
Eu0 O13 2.418 . S
Eu0 O18 2.373 . S
Eu0 O21 2.488 . S
Eu0 O22 2.471 . S
Eu0 O23 2.349 1_655 S
Eu1 O10 2.373 . S
Eu1 O14 2.488 . S
Eu1 O15 2.471 . S
Eu1 O16 2.349 . S
Eu1 O19 2.392 . S
Eu1 O20 2.418 . S
Eu1 C30 2.828 . S
C2 O20 1.244 . S
C2 O23 1.265 . S
C3 C4 1.379 . S
C3 C7 1.373 . S
C3 C9 1.505 . S
C4 C3 1.379 . S
C4 C6 1.369 . S
C4 H32 0.930 . S
C5 C7 1.383 . S
C5 C8 1.382 . S
C5 H33 0.930 . S
C6 C4 1.369 . S
C6 C8 1.392 . S
C6 H34 0.930 . S
C7 C3 1.373 . S
C7 C5 1.383 . S
C7 H35 0.931 . S
C8 C5 1.382 . S
C8 C6 1.392 . S
C9 Eu0 2.828 . S
C9 C3 1.505 . S
C9 O21 1.249 . S
C9 O22 1.244 . S
O10 Eu1 2.373 . S
O10 C12 1.258 . S
O11 Eu0 2.392 1_455 S
O11 C12 1.242 . S
C12 O10 1.258 . S
C12 O11 1.242 . S
O13 Eu0 2.418 . S
O13 C17 1.244 1_655 S
O14 Eu1 2.488 . S
O14 C30 1.249 . S
O15 Eu1 2.471 . S
O15 C30 1.244 . S
O16 Eu1 2.349 . S
O16 C17 1.265 . S
C17 O13 1.244 1_455 S
C17 O16 1.265 . S
O18 Eu0 2.373 . S
O18 C31 1.258 . S
O19 Eu1 2.392 . S
O19 C31 1.242 1_455 S
O20 Eu1 2.418 . S
O20 C2 1.244 . S
O21 Eu0 2.488 . S
O21 C9 1.249 . S
O22 Eu0 2.471 . S
O22 C9 1.244 . S
O23 Eu0 2.349 1_455 S
O23 C2 1.265 . S
C24 C25 1.379 . S
C24 C28 1.373 . S
C24 C30 1.505 . S
C25 C24 1.379 . S
C25 C27 1.369 . S
C25 H36 0.930 . S
C26 C28 1.383 . S
C26 C29 1.382 . S
C26 H37 0.930 . S
C27 C25 1.369 . S
C27 C29 1.392 . S
C27 H38 0.930 . S
C28 C24 1.373 . S
C28 C26 1.383 . S
C28 H39 0.931 . S
C29 C26 1.382 . S
C29 C27 1.392 . S
C30 Eu1 2.828 . S
C30 O14 1.249 . S
C30 O15 1.244 . S
C30 C24 1.505 . S
C31 O18 1.258 . S
C31 O19 1.242 1_655 S
H32 C4 0.930 . S
H33 C5 0.930 . S
H34 C6 0.930 . S
H35 C7 0.931 . S
H36 C25 0.930 . S
H37 C26 0.930 . S
H38 C27 0.930 . S
H39 C28 0.931 . S
Eu40 C49 2.828 . S
Eu40 O51 2.392 . S
Eu40 O53 2.418 . S
Eu40 O58 2.373 . S
Eu40 O61 2.488 . S
Eu40 O62 2.471 . S
Eu40 O63 2.349 . S
Eu41 O50 2.373 . S
Eu41 O54 2.488 . S
Eu41 O55 2.471 . S
Eu41 O56 2.349 . S
Eu41 O59 2.392 . S
Eu41 O60 2.418 . S
Eu41 C70 2.828 . S
C42 O60 1.244 . S
C42 O63 1.265 . S
C43 C44 1.379 . S
C43 C47 1.373 . S
C43 C49 1.505 . S
C44 C43 1.379 . S
C44 C46 1.369 . S
C44 H72 0.930 . S
C45 C47 1.383 . S
C45 C48 1.382 . S
C45 H73 0.930 . S
C46 C44 1.369 . S
C46 C48 1.392 . S
C46 H74 0.930 . S
C47 C43 1.373 . S
C47 C45 1.383 . S
C47 H75 0.931 . S
C48 C45 1.382 . S
C48 C46 1.392 . S
C49 Eu40 2.828 . S
C49 C43 1.505 . S
C49 O61 1.249 . S
C49 O62 1.244 . S
O50 Eu41 2.373 . S
O50 C52 1.258 . S
O51 Eu40 2.392 . S
O51 C52 1.242 . S
C52 O50 1.258 . S
C52 O51 1.242 . S
O53 Eu40 2.418 . S
O53 C57 1.244 . S
O54 Eu41 2.488 . S
O54 C70 1.249 . S
O55 Eu41 2.471 . S
O55 C70 1.244 . S
O56 Eu41 2.349 . S
O56 C57 1.265 . S
C57 O53 1.244 . S
C57 O56 1.265 . S
O58 Eu40 2.373 . S
O58 C71 1.258 . S
O59 Eu41 2.392 . S
O59 C71 1.242 . S
O60 Eu41 2.418 . S
O60 C42 1.244 . S
O61 Eu40 2.488 . S
O61 C49 1.249 . S
O62 Eu40 2.471 . S
O62 C49 1.244 . S
O63 Eu40 2.349 . S
O63 C42 1.265 . S
C64 C65 1.379 . S
C64 C68 1.373 . S
C64 C70 1.505 1_655 S
C65 C64 1.379 . S
C65 C67 1.369 . S
C65 H76 0.930 . S
C66 C68 1.383 . S
C66 C69 1.382 . S
C66 H77 0.930 . S
C67 C65 1.369 . S
C67 C69 1.392 . S
C67 H78 0.930 . S
C68 C64 1.373 . S
C68 C66 1.383 . S
C68 H79 0.931 . S
C69 C66 1.382 . S
C69 C67 1.392 . S
C70 Eu41 2.828 . S
C70 O54 1.249 . S
C70 O55 1.244 . S
C70 C64 1.505 1_455 S
C71 O58 1.258 . S
C71 O59 1.242 . S
H72 C44 0.930 . S
H73 C45 0.930 . S
H74 C46 0.930 . S
H75 C47 0.931 . S
H76 C65 0.930 . S
H77 C66 0.930 . S
H78 C67 0.930 . S
H79 C68 0.931 . S
Eu80 C89 2.828 . S
Eu80 O91 2.392 1_655 S
Eu80 O93 2.418 . S
Eu80 O98 2.373 . S
Eu80 O101 2.488 . S
Eu80 O102 2.471 . S
Eu80 O103 2.349 1_655 S
Eu81 O90 2.373 . S
Eu81 O94 2.488 . S
Eu81 O95 2.471 . S
Eu81 O96 2.349 . S
Eu81 O99 2.392 . S
Eu81 O100 2.418 . S
Eu81 C110 2.828 . S
C82 O100 1.244 . S
C82 O103 1.265 . S
C83 C84 1.379 . S
C83 C87 1.373 . S
C83 C89 1.505 . S
C84 C83 1.379 . S
C84 C86 1.369 . S
C84 H112 0.930 . S
C85 C87 1.383 . S
C85 C88 1.382 . S
C85 H113 0.930 . S
C86 C84 1.369 . S
C86 C88 1.392 . S
C86 H114 0.930 . S
C87 C83 1.373 . S
C87 C85 1.383 . S
C87 H115 0.931 . S
C88 C85 1.382 . S
C88 C86 1.392 . S
C89 Eu80 2.828 . S
C89 C83 1.505 . S
C89 O101 1.249 . S
C89 O102 1.244 . S
O90 Eu81 2.373 . S
O90 C92 1.258 . S
O91 Eu80 2.392 1_455 S
O91 C92 1.242 . S
C92 O90 1.258 . S
C92 O91 1.242 . S
O93 Eu80 2.418 . S
O93 C97 1.244 1_655 S
O94 Eu81 2.488 . S
O94 C110 1.249 . S
O95 Eu81 2.471 . S
O95 C110 1.244 . S
O96 Eu81 2.349 . S
O96 C97 1.265 . S
C97 O93 1.244 1_455 S
C97 O96 1.265 . S
O98 Eu80 2.373 . S
O98 C111 1.258 . S
O99 Eu81 2.392 . S
O99 C111 1.242 1_455 S
O100 Eu81 2.418 . S
O100 C82 1.244 . S
O101 Eu80 2.488 . S
O101 C89 1.249 . S
O102 Eu80 2.471 . S
O102 C89 1.244 . S
O103 Eu80 2.349 1_455 S
O103 C82 1.265 . S
C104 C105 1.379 . S
C104 C108 1.373 . S
C104 C110 1.505 . S
C105 C104 1.379 . S
C105 C107 1.369 . S
C105 H116 0.930 . S
C106 C108 1.383 . S
C106 C109 1.382 . S
C106 H117 0.930 . S
C107 C105 1.369 . S
C107 C109 1.392 . S
C107 H118 0.930 . S
C108 C104 1.373 . S
C108 C106 1.383 . S
C108 H119 0.931 . S
C109 C106 1.382 . S
C109 C107 1.392 . S
C110 Eu81 2.828 . S
C110 O94 1.249 . S
C110 O95 1.244 . S
C110 C104 1.505 . S
C111 O98 1.258 . S
C111 O99 1.242 1_655 S
H112 C84 0.930 . S
H113 C85 0.930 . S
H114 C86 0.930 . S
H115 C87 0.931 . S
H116 C105 0.930 . S
H117 C106 0.930 . S
H118 C107 0.930 . S
H119 C108 0.931 . S
Eu120 C129 2.828 . S
Eu120 O131 2.392 . S
Eu120 O133 2.418 . S
Eu120 O138 2.373 . S
Eu120 O141 2.488 . S
Eu120 O142 2.471 . S
Eu120 O143 2.349 . S
Eu121 O130 2.373 . S
Eu121 O134 2.488 . S
Eu121 O135 2.471 . S
Eu121 O136 2.349 . S
Eu121 O139 2.392 . S
Eu121 O140 2.418 . S
Eu121 C150 2.828 . S
C122 O140 1.244 . S
C122 O143 1.265 . S
C123 C124 1.379 . S
C123 C127 1.373 . S
C123 C129 1.505 . S
C124 C123 1.379 . S
C124 C126 1.369 . S
C124 H152 0.930 . S
C125 C127 1.383 . S
C125 C128 1.382 . S
C125 H153 0.930 . S
C126 C124 1.369 . S
C126 C128 1.392 . S
C126 H154 0.930 . S
C127 C123 1.373 . S
C127 C125 1.383 . S
C127 H155 0.931 . S
C128 C125 1.382 . S
C128 C126 1.392 . S
C129 Eu120 2.828 . S
C129 C123 1.505 . S
C129 O141 1.249 . S
C129 O142 1.244 . S
O130 Eu121 2.373 . S
O130 C132 1.258 . S
O131 Eu120 2.392 . S
O131 C132 1.242 . S
C132 O130 1.258 . S
C132 O131 1.242 . S
O133 Eu120 2.418 . S
O133 C137 1.244 . S
O134 Eu121 2.488 . S
O134 C150 1.249 . S
O135 Eu121 2.471 . S
O135 C150 1.244 . S
O136 Eu121 2.349 . S
O136 C137 1.265 . S
C137 O133 1.244 . S
C137 O136 1.265 . S
O138 Eu120 2.373 . S
O138 C151 1.258 . S
O139 Eu121 2.392 . S
O139 C151 1.242 . S
O140 Eu121 2.418 . S
O140 C122 1.244 . S
O141 Eu120 2.488 . S
O141 C129 1.249 . S
O142 Eu120 2.471 . S
O142 C129 1.244 . S
O143 Eu120 2.349 . S
O143 C122 1.265 . S
C144 C145 1.379 . S
C144 C148 1.373 . S
C144 C150 1.505 1_655 S
C145 C144 1.379 . S
C145 C147 1.369 . S
C145 H156 0.930 . S
C146 C148 1.383 . S
C146 C149 1.382 . S
C146 H157 0.930 . S
C147 C145 1.369 . S
C147 C149 1.392 . S
C147 H158 0.930 . S
C148 C144 1.373 . S
C148 C146 1.383 . S
C148 H159 0.931 . S
C149 C146 1.382 . S
C149 C147 1.392 . S
C150 Eu121 2.828 . S
C150 O134 1.249 . S
C150 O135 1.244 . S
C150 C144 1.505 1_455 S
C151 O138 1.258 . S
C151 O139 1.242 . S
H152 C124 0.930 . S
H153 C125 0.930 . S
H154 C126 0.930 . S
H155 C127 0.931 . S
H156 C145 0.930 . S
H157 C146 0.930 . S
H158 C147 0.930 . S
H159 C148 0.931 . S
Eu160 C169 2.828 . S
Eu160 O171 2.392 . S
Eu160 O173 2.418 . S
Eu160 O178 2.373 . S
Eu160 O181 2.488 . S
Eu160 O182 2.471 . S
Eu160 O183 2.349 . S
Eu161 O170 2.373 . S
Eu161 O174 2.488 . S
Eu161 O175 2.471 . S
Eu161 O176 2.349 1_455 S
Eu161 O179 2.392 1_455 S
Eu161 O180 2.418 . S
Eu161 C190 2.828 . S
C162 O180 1.244 1_655 S
C162 O183 1.265 . S
C163 C164 1.379 . S
C163 C167 1.373 . S
C163 C169 1.505 . S
C164 C163 1.379 . S
C164 C166 1.369 . S
C164 H192 0.930 . S
C165 C167 1.383 . S
C165 C168 1.382 . S
C165 H193 0.930 . S
C166 C164 1.369 . S
C166 C168 1.392 . S
C166 H194 0.930 . S
C167 C163 1.373 . S
C167 C165 1.383 . S
C167 H195 0.931 . S
C168 C165 1.382 . S
C168 C166 1.392 . S
C169 Eu160 2.828 . S
C169 C163 1.505 . S
C169 O181 1.249 . S
C169 O182 1.244 . S
O170 Eu161 2.373 . S
O170 C172 1.258 . S
O171 Eu160 2.392 . S
O171 C172 1.242 1_655 S
C172 O170 1.258 . S
C172 O171 1.242 1_455 S
O173 Eu160 2.418 . S
O173 C177 1.244 . S
O174 Eu161 2.488 . S
O174 C190 1.249 . S
O175 Eu161 2.471 . S
O175 C190 1.244 . S
O176 Eu161 2.349 1_655 S
O176 C177 1.265 . S
C177 O173 1.244 . S
C177 O176 1.265 . S
O178 Eu160 2.373 . S
O178 C191 1.258 . S
O179 Eu161 2.392 1_655 S
O179 C191 1.242 . S
O180 Eu161 2.418 . S
O180 C162 1.244 1_455 S
O181 Eu160 2.488 . S
O181 C169 1.249 . S
O182 Eu160 2.471 . S
O182 C169 1.244 . S
O183 Eu160 2.349 . S
O183 C162 1.265 . S
C184 C185 1.379 . S
C184 C188 1.373 . S
C184 C190 1.505 . S
C185 C184 1.379 . S
C185 C187 1.369 . S
C185 H196 0.930 . S
C186 C188 1.383 . S
C186 C189 1.382 . S
C186 H197 0.930 . S
C187 C185 1.369 . S
C187 C189 1.392 . S
C187 H198 0.930 . S
C188 C184 1.373 . S
C188 C186 1.383 . S
C188 H199 0.931 . S
C189 C186 1.382 . S
C189 C187 1.392 . S
C190 Eu161 2.828 . S
C190 O174 1.249 . S
C190 O175 1.244 . S
C190 C184 1.505 . S
C191 O178 1.258 . S
C191 O179 1.242 . S
H192 C164 0.930 . S
H193 C165 0.930 . S
H194 C166 0.930 . S
H195 C167 0.931 . S
H196 C185 0.930 . S
H197 C186 0.930 . S
H198 C187 0.930 . S
H199 C188 0.931 . S
Eu200 C209 2.828 . S
Eu200 O211 2.392 . S
Eu200 O213 2.418 . S
Eu200 O218 2.373 . S
Eu200 O221 2.488 . S
Eu200 O222 2.471 . S
Eu200 O223 2.349 . S
Eu201 O210 2.373 . S
Eu201 O214 2.488 . S
Eu201 O215 2.471 . S
Eu201 O216 2.349 . S
Eu201 O219 2.392 . S
Eu201 O220 2.418 . S
Eu201 C230 2.828 . S
C202 O220 1.244 . S
C202 O223 1.265 . S
C203 C204 1.379 . S
C203 C207 1.373 . S
C203 C209 1.505 1_455 S
C204 C203 1.379 . S
C204 C206 1.369 . S
C204 H232 0.930 . S
C205 C207 1.383 . S
C205 C208 1.382 . S
C205 H233 0.930 . S
C206 C204 1.369 . S
C206 C208 1.392 . S
C206 H234 0.930 . S
C207 C203 1.373 . S
C207 C205 1.383 . S
C207 H235 0.931 . S
C208 C205 1.382 . S
C208 C206 1.392 . S
C209 Eu200 2.828 . S
C209 C203 1.505 1_655 S
C209 O221 1.249 . S
C209 O222 1.244 . S
O210 Eu201 2.373 . S
O210 C212 1.258 . S
O211 Eu200 2.392 . S
O211 C212 1.242 . S
C212 O210 1.258 . S
C212 O211 1.242 . S
O213 Eu200 2.418 . S
O213 C217 1.244 . S
O214 Eu201 2.488 . S
O214 C230 1.249 . S
O215 Eu201 2.471 . S
O215 C230 1.244 . S
O216 Eu201 2.349 . S
O216 C217 1.265 . S
C217 O213 1.244 . S
C217 O216 1.265 . S
O218 Eu200 2.373 . S
O218 C231 1.258 . S
O219 Eu201 2.392 . S
O219 C231 1.242 . S
O220 Eu201 2.418 . S
O220 C202 1.244 . S
O221 Eu200 2.488 . S
O221 C209 1.249 . S
O222 Eu200 2.471 . S
O222 C209 1.244 . S
O223 Eu200 2.349 . S
O223 C202 1.265 . S
C224 C225 1.379 . S
C224 C228 1.373 . S
C224 C230 1.505 . S
C225 C224 1.379 . S
C225 C227 1.369 . S
C225 H236 0.930 . S
C226 C228 1.383 . S
C226 C229 1.382 . S
C226 H237 0.930 . S
C227 C225 1.369 . S
C227 C229 1.392 . S
C227 H238 0.930 . S
C228 C224 1.373 . S
C228 C226 1.383 . S
C228 H239 0.931 . S
C229 C226 1.382 . S
C229 C227 1.392 . S
C230 Eu201 2.828 . S
C230 O214 1.249 . S
C230 O215 1.244 . S
C230 C224 1.505 . S
C231 O218 1.258 . S
C231 O219 1.242 . S
H232 C204 0.930 . S
H233 C205 0.930 . S
H234 C206 0.930 . S
H235 C207 0.931 . S
H236 C225 0.930 . S
H237 C226 0.930 . S
H238 C227 0.930 . S
H239 C228 0.931 . S
Eu240 C249 2.828 . S
Eu240 O251 2.392 . S
Eu240 O253 2.418 . S
Eu240 O258 2.373 . S
Eu240 O261 2.488 . S
Eu240 O262 2.471 . S
Eu240 O263 2.349 . S
Eu241 O250 2.373 . S
Eu241 O254 2.488 . S
Eu241 O255 2.471 . S
Eu241 O256 2.349 1_455 S
Eu241 O259 2.392 1_455 S
Eu241 O260 2.418 . S
Eu241 C270 2.828 . S
C242 O260 1.244 1_655 S
C242 O263 1.265 . S
C243 C244 1.379 . S
C243 C247 1.373 . S
C243 C249 1.505 . S
C244 C243 1.379 . S
C244 C246 1.369 . S
C244 H272 0.930 . S
C245 C247 1.383 . S
C245 C248 1.382 . S
C245 H273 0.930 . S
C246 C244 1.369 . S
C246 C248 1.392 . S
C246 H274 0.930 . S
C247 C243 1.373 . S
C247 C245 1.383 . S
C247 H275 0.931 . S
C248 C245 1.382 . S
C248 C246 1.392 . S
C249 Eu240 2.828 . S
C249 C243 1.505 . S
C249 O261 1.249 . S
C249 O262 1.244 . S
O250 Eu241 2.373 . S
O250 C252 1.258 . S
O251 Eu240 2.392 . S
O251 C252 1.242 1_655 S
C252 O250 1.258 . S
C252 O251 1.242 1_455 S
O253 Eu240 2.418 . S
O253 C257 1.244 . S
O254 Eu241 2.488 . S
O254 C270 1.249 . S
O255 Eu241 2.471 . S
O255 C270 1.244 . S
O256 Eu241 2.349 1_655 S
O256 C257 1.265 . S
C257 O253 1.244 . S
C257 O256 1.265 . S
O258 Eu240 2.373 . S
O258 C271 1.258 . S
O259 Eu241 2.392 1_655 S
O259 C271 1.242 . S
O260 Eu241 2.418 . S
O260 C242 1.244 1_455 S
O261 Eu240 2.488 . S
O261 C249 1.249 . S
O262 Eu240 2.471 . S
O262 C249 1.244 . S
O263 Eu240 2.349 . S
O263 C242 1.265 . S
C264 C265 1.379 . S
C264 C268 1.373 . S
C264 C270 1.505 . S
C265 C264 1.379 . S
C265 C267 1.369 . S
C265 H276 0.930 . S
C266 C268 1.383 . S
C266 C269 1.382 . S
C266 H277 0.930 . S
C267 C265 1.369 . S
C267 C269 1.392 . S
C267 H278 0.930 . S
C268 C264 1.373 . S
C268 C266 1.383 . S
C268 H279 0.931 . S
C269 C266 1.382 . S
C269 C267 1.392 . S
C270 Eu241 2.828 . S
C270 O254 1.249 . S
C270 O255 1.244 . S
C270 C264 1.505 . S
C271 O258 1.258 . S
C271 O259 1.242 . S
H272 C244 0.930 . S
H273 C245 0.930 . S
H274 C246 0.930 . S
H275 C247 0.931 . S
H276 C265 0.930 . S
H277 C266 0.930 . S
H278 C267 0.930 . S
H279 C268 0.931 . S
Eu280 C289 2.828 . S
Eu280 O291 2.392 . S
Eu280 O293 2.418 . S
Eu280 O298 2.373 . S
Eu280 O301 2.488 . S
Eu280 O302 2.471 . S
Eu280 O303 2.349 . S
Eu281 O290 2.373 . S
Eu281 O294 2.488 . S
Eu281 O295 2.471 . S
Eu281 O296 2.349 . S
Eu281 O299 2.392 . S
Eu281 O300 2.418 . S
Eu281 C310 2.828 . S
C282 O300 1.244 . S
C282 O303 1.265 . S
C283 C284 1.379 . S
C283 C287 1.373 . S
C283 C289 1.505 1_455 S
C284 C283 1.379 . S
C284 C286 1.369 . S
C284 H312 0.930 . S
C285 C287 1.383 . S
C285 C288 1.382 . S
C285 H313 0.930 . S
C286 C284 1.369 . S
C286 C288 1.392 . S
C286 H314 0.930 . S
C287 C283 1.373 . S
C287 C285 1.383 . S
C287 H315 0.931 . S
C288 C285 1.382 . S
C288 C286 1.392 . S
C289 Eu280 2.828 . S
C289 C283 1.505 1_655 S
C289 O301 1.249 . S
C289 O302 1.244 . S
O290 Eu281 2.373 . S
O290 C292 1.258 . S
O291 Eu280 2.392 . S
O291 C292 1.242 . S
C292 O290 1.258 . S
C292 O291 1.242 . S
O293 Eu280 2.418 . S
O293 C297 1.244 . S
O294 Eu281 2.488 . S
O294 C310 1.249 . S
O295 Eu281 2.471 . S
O295 C310 1.244 . S
O296 Eu281 2.349 . S
O296 C297 1.265 . S
C297 O293 1.244 . S
C297 O296 1.265 . S
O298 Eu280 2.373 . S
O298 C311 1.258 . S
O299 Eu281 2.392 . S
O299 C311 1.242 . S
O300 Eu281 2.418 . S
O300 C282 1.244 . S
O301 Eu280 2.488 . S
O301 C289 1.249 . S
O302 Eu280 2.471 . S
O302 C289 1.244 . S
O303 Eu280 2.349 . S
O303 C282 1.265 . S
C304 C305 1.379 . S
C304 C308 1.373 . S
C304 C310 1.505 . S
C305 C304 1.379 . S
C305 C307 1.369 . S
C305 H316 0.930 . S
C306 C308 1.383 . S
C306 C309 1.382 . S
C306 H317 0.930 . S
C307 C305 1.369 . S
C307 C309 1.392 . S
C307 H318 0.930 . S
C308 C304 1.373 . S
C308 C306 1.383 . S
C308 H319 0.931 . S
C309 C306 1.382 . S
C309 C307 1.392 . S
C310 Eu281 2.828 . S
C310 O294 1.249 . S
C310 O295 1.244 . S
C310 C304 1.505 . S
C311 O298 1.258 . S
C311 O299 1.242 . S
H312 C284 0.930 . S
H313 C285 0.930 . S
H314 C286 0.930 . S
H315 C287 0.931 . S
H316 C305 0.930 . S
H317 C306 0.930 . S
H318 C307 0.930 . S
H319 C308 0.931 . S
Eu320 C329 2.828 . S
Eu320 O331 2.392 1_655 S
Eu320 O333 2.413 1_545 S
Eu320 O338 2.373 1_545 S
Eu320 O341 2.488 . S
Eu320 O342 2.471 . S
Eu320 O343 2.349 1_645 S
Eu321 O330 2.373 1_565 S
Eu321 O334 2.488 . S
Eu321 O335 2.471 . S
Eu321 O336 2.349 . S
Eu321 O339 2.392 . S
Eu321 O340 2.418 . S
Eu321 C350 2.828 . S
C322 O340 1.244 . S
C322 O343 1.265 . S
C323 C324 1.379 . S
C323 C327 1.373 1_565 S
C323 C329 1.505 1_565 S
C324 C323 1.379 . S
C324 C326 1.369 . S
C324 H352 0.930 . S
C325 C327 1.383 1_565 S
C325 C328 1.382 . S
C325 H353 0.931 . S
C326 C324 1.369 . S
C326 C328 1.392 . S
C326 H354 0.930 . S
C327 C323 1.373 1_545 S
C327 C325 1.383 1_545 S
C327 H355 0.931 . S
C328 C325 1.382 . S
C328 C326 1.392 . S
C329 Eu320 2.828 . S
C329 C323 1.505 1_545 S
C329 O341 1.249 . S
C329 O342 1.244 . S
O330 Eu321 2.373 1_545 S
O330 C332 1.258 . S
O331 Eu320 2.392 1_455 S
O331 C332 1.242 . S
C332 O330 1.258 . S
C332 O331 1.242 . S
O333 Eu320 2.413 1_565 S
O333 C337 1.252 1_655 S
O334 Eu321 2.488 . S
O334 C350 1.249 . S
O335 Eu321 2.471 . S
O335 C350 1.244 . S
O336 Eu321 2.349 . S
O336 C337 1.265 . S
C337 O333 1.252 1_455 S
C337 O336 1.265 . S
O338 Eu320 2.373 1_565 S
O338 C351 1.258 . S
O339 Eu321 2.392 . S
O339 C351 1.242 1_455 S
O340 Eu321 2.418 . S
O340 C322 1.244 . S
O341 Eu320 2.488 . S
O341 C329 1.249 . S
O342 Eu320 2.471 . S
O342 C329 1.244 . S
O343 Eu320 2.349 1_465 S
O343 C322 1.265 . S
C344 C345 1.379 . S
C344 C348 1.373 . S
C344 C350 1.505 . S
C345 C344 1.379 . S
C345 C347 1.369 1_565 S
C345 H356 0.937 . S
C346 C348 1.383 . S
C346 C349 1.382 . S
C346 H357 0.930 . S
C347 C345 1.369 1_545 S
C347 C349 1.392 1_545 S
C347 H358 0.930 . S
C348 C344 1.373 . S
C348 C346 1.383 . S
C348 H359 0.931 . S
C349 C346 1.382 . S
C349 C347 1.392 1_565 S
C350 Eu321 2.828 . S
C350 O334 1.249 . S
C350 O335 1.244 . S
C350 C344 1.505 . S
C351 O338 1.258 . S
C351 O339 1.242 1_655 S
H352 C324 0.930 . S
H353 C325 0.931 . S
H354 C326 0.930 . S
H355 C327 0.931 . S
H356 C345 0.937 . S
H357 C346 0.930 . S
H358 C347 0.930 . S
H359 C348 0.931 . S
Eu360 C369 2.828 . S
Eu360 O371 2.392 . S
Eu360 O373 2.418 . S
Eu360 O378 2.373 . S
Eu360 O381 2.488 . S
Eu360 O382 2.471 . S
Eu360 O383 2.349 . S
Eu361 O370 2.373 . S
Eu361 O374 2.488 . S
Eu361 O375 2.471 . S
Eu361 O376 2.349 . S
Eu361 O379 2.392 . S
Eu361 O380 2.418 . S
Eu361 C390 2.828 . S
C362 O380 1.244 . S
C362 O383 1.265 . S
C363 C364 1.379 . S
C363 C367 1.373 . S
C363 C369 1.505 . S
C364 C363 1.379 . S
C364 C366 1.369 . S
C364 H392 0.930 . S
C365 C367 1.383 . S
C365 C368 1.382 . S
C365 H393 0.930 . S
C366 C364 1.369 . S
C366 C368 1.392 . S
C366 H394 0.930 . S
C367 C363 1.373 . S
C367 C365 1.383 . S
C367 H395 0.931 . S
C368 C365 1.382 . S
C368 C366 1.392 . S
C369 Eu360 2.828 . S
C369 C363 1.505 . S
C369 O381 1.249 . S
C369 O382 1.244 . S
O370 Eu361 2.373 . S
O370 C372 1.258 . S
O371 Eu360 2.392 . S
O371 C372 1.242 . S
C372 O370 1.258 . S
C372 O371 1.242 . S
O373 Eu360 2.418 . S
O373 C377 1.244 . S
O374 Eu361 2.488 . S
O374 C390 1.249 . S
O375 Eu361 2.471 . S
O375 C390 1.244 . S
O376 Eu361 2.349 . S
O376 C377 1.265 . S
C377 O373 1.244 . S
C377 O376 1.265 . S
O378 Eu360 2.373 . S
O378 C391 1.258 . S
O379 Eu361 2.392 . S
O379 C391 1.242 . S
O380 Eu361 2.418 . S
O380 C362 1.244 . S
O381 Eu360 2.488 . S
O381 C369 1.249 . S
O382 Eu360 2.471 . S
O382 C369 1.244 . S
O383 Eu360 2.349 . S
O383 C362 1.265 . S
C384 C385 1.379 . S
C384 C388 1.373 . S
C384 C390 1.505 1_655 S
C385 C384 1.379 . S
C385 C387 1.369 . S
C385 H396 0.930 . S
C386 C388 1.383 . S
C386 C389 1.382 . S
C386 H397 0.930 . S
C387 C385 1.369 . S
C387 C389 1.392 . S
C387 H398 0.930 . S
C388 C384 1.373 . S
C388 C386 1.383 . S
C388 H399 0.931 . S
C389 C386 1.382 . S
C389 C387 1.392 . S
C390 Eu361 2.828 . S
C390 O374 1.249 . S
C390 O375 1.244 . S
C390 C384 1.505 1_455 S
C391 O378 1.258 . S
C391 O379 1.242 . S
H392 C364 0.930 . S
H393 C365 0.930 . S
H394 C366 0.930 . S
H395 C367 0.931 . S
H396 C385 0.930 . S
H397 C386 0.930 . S
H398 C387 0.930 . S
H399 C388 0.931 . S
Eu400 C409 2.828 . S
Eu400 O411 2.392 1_655 S
Eu400 O413 2.418 . S
Eu400 O418 2.373 . S
Eu400 O421 2.488 . S
Eu400 O422 2.471 . S
Eu400 O423 2.349 1_655 S
Eu401 O410 2.373 . S
Eu401 O414 2.488 . S
Eu401 O415 2.471 . S
Eu401 O416 2.349 . S
Eu401 O419 2.392 . S
Eu401 O420 2.418 . S
Eu401 C430 2.828 . S
C402 O420 1.244 . S
C402 O423 1.265 . S
C403 C404 1.379 . S
C403 C407 1.373 . S
C403 C409 1.505 . S
C404 C403 1.379 . S
C404 C406 1.369 . S
C404 H432 0.930 . S
C405 C407 1.383 . S
C405 C408 1.382 . S
C405 H433 0.930 . S
C406 C404 1.369 . S
C406 C408 1.392 . S
C406 H434 0.930 . S
C407 C403 1.373 . S
C407 C405 1.383 . S
C407 H435 0.931 . S
C408 C405 1.382 . S
C408 C406 1.392 . S
C409 Eu400 2.828 . S
C409 C403 1.505 . S
C409 O421 1.249 . S
C409 O422 1.244 . S
O410 Eu401 2.373 . S
O410 C412 1.258 . S
O411 Eu400 2.392 1_455 S
O411 C412 1.242 . S
C412 O410 1.258 . S
C412 O411 1.242 . S
O413 Eu400 2.418 . S
O413 C417 1.244 1_655 S
O414 Eu401 2.488 . S
O414 C430 1.249 . S
O415 Eu401 2.471 . S
O415 C430 1.244 . S
O416 Eu401 2.349 . S
O416 C417 1.265 . S
C417 O413 1.244 1_455 S
C417 O416 1.265 . S
O418 Eu400 2.373 . S
O418 C431 1.258 . S
O419 Eu401 2.392 . S
O419 C431 1.242 1_455 S
O420 Eu401 2.418 . S
O420 C402 1.244 . S
O421 Eu400 2.488 . S
O421 C409 1.249 . S
O422 Eu400 2.471 . S
O422 C409 1.244 . S
O423 Eu400 2.349 1_455 S
O423 C402 1.265 . S
C424 C425 1.379 . S
C424 C428 1.373 . S
C424 C430 1.505 . S
C425 C424 1.379 . S
C425 C427 1.369 . S
C425 H436 0.930 . S
C426 C428 1.383 . S
C426 C429 1.382 . S
C426 H437 0.930 . S
C427 C425 1.369 . S
C427 C429 1.392 . S
C427 H438 0.930 . S
C428 C424 1.373 . S
C428 C426 1.383 . S
C428 H439 0.931 . S
C429 C426 1.382 . S
C429 C427 1.392 . S
C430 Eu401 2.828 . S
C430 O414 1.249 . S
C430 O415 1.244 . S
C430 C424 1.505 . S
C431 O418 1.258 . S
C431 O419 1.242 1_655 S
H432 C404 0.930 . S
H433 C405 0.930 . S
H434 C406 0.930 . S
H435 C407 0.931 . S
H436 C425 0.930 . S
H437 C426 0.930 . S
H438 C427 0.930 . S
H439 C428 0.931 . S
Eu440 C449 2.828 . S
Eu440 O451 2.392 . S
Eu440 O453 2.413 1_545 S
Eu440 O458 2.373 1_545 S
Eu440 O461 2.488 . S
Eu440 O462 2.471 . S
Eu440 O463 2.349 1_545 S
Eu441 O450 2.373 1_565 S
Eu441 O454 2.488 . S
Eu441 O455 2.471 . S
Eu441 O456 2.349 . S
Eu441 O459 2.392 . S
Eu441 O460 2.418 . S
Eu441 C470 2.828 . S
C442 O460 1.244 . S
C442 O463 1.265 . S
C443 C444 1.379 . S
C443 C447 1.373 1_565 S
C443 C449 1.505 1_565 S
C444 C443 1.379 . S
C444 C446 1.369 . S
C444 H472 0.930 . S
C445 C447 1.383 1_565 S
C445 C448 1.382 . S
C445 H473 0.931 . S
C446 C444 1.369 . S
C446 C448 1.392 . S
C446 H474 0.930 . S
C447 C443 1.373 1_545 S
C447 C445 1.383 1_545 S
C447 H475 0.931 . S
C448 C445 1.382 . S
C448 C446 1.392 . S
C449 Eu440 2.828 . S
C449 C443 1.505 1_545 S
C449 O461 1.249 . S
C449 O462 1.244 . S
O450 Eu441 2.373 1_545 S
O450 C452 1.258 . S
O451 Eu440 2.392 . S
O451 C452 1.242 . S
C452 O450 1.258 . S
C452 O451 1.242 . S
O453 Eu440 2.413 1_565 S
O453 C457 1.252 . S
O454 Eu441 2.488 . S
O454 C470 1.249 . S
O455 Eu441 2.471 . S
O455 C470 1.244 . S
O456 Eu441 2.349 . S
O456 C457 1.265 . S
C457 O453 1.252 . S
C457 O456 1.265 . S
O458 Eu440 2.373 1_565 S
O458 C471 1.258 . S
O459 Eu441 2.392 . S
O459 C471 1.242 . S
O460 Eu441 2.418 . S
O460 C442 1.244 . S
O461 Eu440 2.488 . S
O461 C449 1.249 . S
O462 Eu440 2.471 . S
O462 C449 1.244 . S
O463 Eu440 2.349 1_565 S
O463 C442 1.265 . S
C464 C465 1.379 . S
C464 C468 1.373 . S
C464 C470 1.505 1_655 S
C465 C464 1.379 . S
C465 C467 1.369 1_565 S
C465 H476 0.937 . S
C466 C468 1.383 . S
C466 C469 1.382 . S
C466 H477 0.930 . S
C467 C465 1.369 1_545 S
C467 C469 1.392 1_545 S
C467 H478 0.930 . S
C468 C464 1.373 . S
C468 C466 1.383 . S
C468 H479 0.931 . S
C469 C466 1.382 . S
C469 C467 1.392 1_565 S
C470 Eu441 2.828 . S
C470 O454 1.249 . S
C470 O455 1.244 . S
C470 C464 1.505 1_455 S
C471 O458 1.258 . S
C471 O459 1.242 . S
H472 C444 0.930 . S
H473 C445 0.931 . S
H474 C446 0.930 . S
H475 C447 0.931 . S
H476 C465 0.937 . S
H477 C466 0.930 . S
H478 C467 0.930 . S
H479 C468 0.931 . S
Eu480 C489 2.828 . S
Eu480 O491 2.392 . S
Eu480 O493 2.418 . S
Eu480 O498 2.373 1_545 S
Eu480 O501 2.488 . S
Eu480 O502 2.471 . S
Eu480 O503 2.349 . S
Eu481 O490 2.373 1_565 S
Eu481 O494 2.488 . S
Eu481 O495 2.471 . S
Eu481 O496 2.349 1_465 S
Eu481 O499 2.392 1_455 S
Eu481 O500 2.413 1_565 S
Eu481 C510 2.828 . S
C482 O500 1.252 1_655 S
C482 O503 1.265 . S
C483 C484 1.379 . S
C483 C487 1.373 . S
C483 C489 1.505 . S
C484 C483 1.379 . S
C484 C486 1.369 1_545 S
C484 H512 0.937 . S
C485 C487 1.383 . S
C485 C488 1.382 . S
C485 H513 0.930 . S
C486 C484 1.369 1_565 S
C486 C488 1.392 1_565 S
C486 H514 0.930 . S
C487 C483 1.373 . S
C487 C485 1.383 . S
C487 H515 0.931 . S
C488 C485 1.382 . S
C488 C486 1.392 1_545 S
C489 Eu480 2.828 . S
C489 C483 1.505 . S
C489 O501 1.249 . S
C489 O502 1.244 . S
O490 Eu481 2.373 1_545 S
O490 C492 1.258 . S
O491 Eu480 2.392 . S
O491 C492 1.242 1_655 S
C492 O490 1.258 . S
C492 O491 1.242 1_455 S
O493 Eu480 2.418 . S
O493 C497 1.244 . S
O494 Eu481 2.488 . S
O494 C510 1.249 . S
O495 Eu481 2.471 . S
O495 C510 1.244 . S
O496 Eu481 2.349 1_645 S
O496 C497 1.265 . S
C497 O493 1.244 . S
C497 O496 1.265 . S
O498 Eu480 2.373 1_565 S
O498 C511 1.258 . S
O499 Eu481 2.392 1_655 S
O499 C511 1.242 . S
O500 Eu481 2.413 1_545 S
O500 C482 1.252 1_455 S
O501 Eu480 2.488 . S
O501 C489 1.249 . S
O502 Eu480 2.471 . S
O502 C489 1.244 . S
O503 Eu480 2.349 . S
O503 C482 1.265 . S
C504 C505 1.379 . S
C504 C508 1.373 1_545 S
C504 C510 1.505 1_545 S
C505 C504 1.379 . S
C505 C507 1.369 . S
C505 H516 0.930 . S
C506 C508 1.383 1_545 S
C506 C509 1.382 . S
C506 H517 0.931 . S
C507 C505 1.369 . S
C507 C509 1.392 . S
C507 H518 0.930 . S
C508 C504 1.373 1_565 S
C508 C506 1.383 1_565 S
C508 H519 0.931 . S
C509 C506 1.382 . S
C509 C507 1.392 . S
C510 Eu481 2.828 . S
C510 O494 1.249 . S
C510 O495 1.244 . S
C510 C504 1.505 1_565 S
C511 O498 1.258 . S
C511 O499 1.242 . S
H512 C484 0.937 . S
H513 C485 0.930 . S
H514 C486 0.930 . S
H515 C487 0.931 . S
H516 C505 0.930 . S
H517 C506 0.931 . S
H518 C507 0.930 . S
H519 C508 0.931 . S
Eu520 C529 2.828 . S
Eu520 O531 2.392 . S
Eu520 O533 2.418 . S
Eu520 O538 2.373 . S
Eu520 O541 2.488 . S
Eu520 O542 2.471 . S
Eu520 O543 2.349 . S
Eu521 O530 2.373 . S
Eu521 O534 2.488 . S
Eu521 O535 2.471 . S
Eu521 O536 2.349 . S
Eu521 O539 2.392 . S
Eu521 O540 2.418 . S
Eu521 C550 2.828 . S
C522 O540 1.244 . S
C522 O543 1.265 . S
C523 C524 1.379 . S
C523 C527 1.373 . S
C523 C529 1.505 1_455 S
C524 C523 1.379 . S
C524 C526 1.369 . S
C524 H552 0.930 . S
C525 C527 1.383 . S
C525 C528 1.382 . S
C525 H553 0.930 . S
C526 C524 1.369 . S
C526 C528 1.392 . S
C526 H554 0.930 . S
C527 C523 1.373 . S
C527 C525 1.383 . S
C527 H555 0.931 . S
C528 C525 1.382 . S
C528 C526 1.392 . S
C529 Eu520 2.828 . S
C529 C523 1.505 1_655 S
C529 O541 1.249 . S
C529 O542 1.244 . S
O530 Eu521 2.373 . S
O530 C532 1.258 . S
O531 Eu520 2.392 . S
O531 C532 1.242 . S
C532 O530 1.258 . S
C532 O531 1.242 . S
O533 Eu520 2.418 . S
O533 C537 1.244 . S
O534 Eu521 2.488 . S
O534 C550 1.249 . S
O535 Eu521 2.471 . S
O535 C550 1.244 . S
O536 Eu521 2.349 . S
O536 C537 1.265 . S
C537 O533 1.244 . S
C537 O536 1.265 . S
O538 Eu520 2.373 . S
O538 C551 1.258 . S
O539 Eu521 2.392 . S
O539 C551 1.242 . S
O540 Eu521 2.418 . S
O540 C522 1.244 . S
O541 Eu520 2.488 . S
O541 C529 1.249 . S
O542 Eu520 2.471 . S
O542 C529 1.244 . S
O543 Eu520 2.349 . S
O543 C522 1.265 . S
C544 C545 1.379 . S
C544 C548 1.373 . S
C544 C550 1.505 . S
C545 C544 1.379 . S
C545 C547 1.369 . S
C545 H556 0.930 . S
C546 C548 1.383 . S
C546 C549 1.382 . S
C546 H557 0.930 . S
C547 C545 1.369 . S
C547 C549 1.392 . S
C547 H558 0.930 . S
C548 C544 1.373 . S
C548 C546 1.383 . S
C548 H559 0.931 . S
C549 C546 1.382 . S
C549 C547 1.392 . S
C550 Eu521 2.828 . S
C550 O534 1.249 . S
C550 O535 1.244 . S
C550 C544 1.505 . S
C551 O538 1.258 . S
C551 O539 1.242 . S
H552 C524 0.930 . S
H553 C525 0.930 . S
H554 C526 0.930 . S
H555 C527 0.931 . S
H556 C545 0.930 . S
H557 C546 0.930 . S
H558 C547 0.930 . S
H559 C548 0.931 . S
Eu560 C569 2.828 . S
Eu560 O571 2.392 . S
Eu560 O573 2.418 . S
Eu560 O578 2.373 . S
Eu560 O581 2.488 . S
Eu560 O582 2.471 . S
Eu560 O583 2.349 . S
Eu561 O570 2.373 . S
Eu561 O574 2.488 . S
Eu561 O575 2.471 . S
Eu561 O576 2.349 1_455 S
Eu561 O579 2.392 1_455 S
Eu561 O580 2.418 . S
Eu561 C590 2.828 . S
C562 O580 1.244 1_655 S
C562 O583 1.265 . S
C563 C564 1.379 . S
C563 C567 1.373 . S
C563 C569 1.505 . S
C564 C563 1.379 . S
C564 C566 1.369 . S
C564 H592 0.930 . S
C565 C567 1.383 . S
C565 C568 1.382 . S
C565 H593 0.930 . S
C566 C564 1.369 . S
C566 C568 1.392 . S
C566 H594 0.930 . S
C567 C563 1.373 . S
C567 C565 1.383 . S
C567 H595 0.931 . S
C568 C565 1.382 . S
C568 C566 1.392 . S
C569 Eu560 2.828 . S
C569 C563 1.505 . S
C569 O581 1.249 . S
C569 O582 1.244 . S
O570 Eu561 2.373 . S
O570 C572 1.258 . S
O571 Eu560 2.392 . S
O571 C572 1.242 1_655 S
C572 O570 1.258 . S
C572 O571 1.242 1_455 S
O573 Eu560 2.418 . S
O573 C577 1.244 . S
O574 Eu561 2.488 . S
O574 C590 1.249 . S
O575 Eu561 2.471 . S
O575 C590 1.244 . S
O576 Eu561 2.349 1_655 S
O576 C577 1.265 . S
C577 O573 1.244 . S
C577 O576 1.265 . S
O578 Eu560 2.373 . S
O578 C591 1.258 . S
O579 Eu561 2.392 1_655 S
O579 C591 1.242 . S
O580 Eu561 2.418 . S
O580 C562 1.244 1_455 S
O581 Eu560 2.488 . S
O581 C569 1.249 . S
O582 Eu560 2.471 . S
O582 C569 1.244 . S
O583 Eu560 2.349 . S
O583 C562 1.265 . S
C584 C585 1.379 . S
C584 C588 1.373 . S
C584 C590 1.505 . S
C585 C584 1.379 . S
C585 C587 1.369 . S
C585 H596 0.930 . S
C586 C588 1.383 . S
C586 C589 1.382 . S
C586 H597 0.930 . S
C587 C585 1.369 . S
C587 C589 1.392 . S
C587 H598 0.930 . S
C588 C584 1.373 . S
C588 C586 1.383 . S
C588 H599 0.931 . S
C589 C586 1.382 . S
C589 C587 1.392 . S
C590 Eu561 2.828 . S
C590 O574 1.249 . S
C590 O575 1.244 . S
C590 C584 1.505 . S
C591 O578 1.258 . S
C591 O579 1.242 . S
H592 C564 0.930 . S
H593 C565 0.930 . S
H594 C566 0.930 . S
H595 C567 0.931 . S
H596 C585 0.930 . S
H597 C586 0.930 . S
H598 C587 0.930 . S
H599 C588 0.931 . S
Eu600 C609 2.828 . S
Eu600 O611 2.392 . S
Eu600 O613 2.418 . S
Eu600 O618 2.373 1_545 S
Eu600 O621 2.488 . S
Eu600 O622 2.471 . S
Eu600 O623 2.349 . S
Eu601 O610 2.373 1_565 S
Eu601 O614 2.488 . S
Eu601 O615 2.471 . S
Eu601 O616 2.349 1_565 S
Eu601 O619 2.392 . S
Eu601 O620 2.413 1_565 S
Eu601 C630 2.828 . S
C602 O620 1.252 . S
C602 O623 1.265 . S
C603 C604 1.379 . S
C603 C607 1.373 . S
C603 C609 1.505 1_455 S
C604 C603 1.379 . S
C604 C606 1.369 1_545 S
C604 H632 0.937 . S
C605 C607 1.383 . S
C605 C608 1.382 . S
C605 H633 0.930 . S
C606 C604 1.369 1_565 S
C606 C608 1.392 1_565 S
C606 H634 0.930 . S
C607 C603 1.373 . S
C607 C605 1.383 . S
C607 H635 0.931 . S
C608 C605 1.382 . S
C608 C606 1.392 1_545 S
C609 Eu600 2.828 . S
C609 C603 1.505 1_655 S
C609 O621 1.249 . S
C609 O622 1.244 . S
O610 Eu601 2.373 1_545 S
O610 C612 1.258 . S
O611 Eu600 2.392 . S
O611 C612 1.242 . S
C612 O610 1.258 . S
C612 O611 1.242 . S
O613 Eu600 2.418 . S
O613 C617 1.244 . S
O614 Eu601 2.488 . S
O614 C630 1.249 . S
O615 Eu601 2.471 . S
O615 C630 1.244 . S
O616 Eu601 2.349 1_545 S
O616 C617 1.265 . S
C617 O613 1.244 . S
C617 O616 1.265 . S
O618 Eu600 2.373 1_565 S
O618 C631 1.258 . S
O619 Eu601 2.392 . S
O619 C631 1.242 . S
O620 Eu601 2.413 1_545 S
O620 C602 1.252 . S
O621 Eu600 2.488 . S
O621 C609 1.249 . S
O622 Eu600 2.471 . S
O622 C609 1.244 . S
O623 Eu600 2.349 . S
O623 C602 1.265 . S
C624 C625 1.379 . S
C624 C628 1.373 1_545 S
C624 C630 1.505 1_545 S
C625 C624 1.379 . S
C625 C627 1.369 . S
C625 H636 0.930 . S
C626 C628 1.383 1_545 S
C626 C629 1.382 . S
C626 H637 0.931 . S
C627 C625 1.369 . S
C627 C629 1.392 . S
C627 H638 0.930 . S
C628 C624 1.373 1_565 S
C628 C626 1.383 1_565 S
C628 H639 0.931 . S
C629 C626 1.382 . S
C629 C627 1.392 . S
C630 Eu601 2.828 . S
C630 O614 1.249 . S
C630 O615 1.244 . S
C630 C624 1.505 1_565 S
C631 O618 1.258 . S
C631 O619 1.242 . S
H632 C604 0.937 . S
H633 C605 0.930 . S
H634 C606 0.930 . S
H635 C607 0.931 . S
H636 C625 0.930 . S
H637 C626 0.931 . S
H638 C627 0.930 . S
H639 C628 0.931 . S
Eu640 C649 2.828 . S
Eu640 O651 2.392 . S
Eu640 O653 2.418 . S
Eu640 O658 2.373 . S
Eu640 O661 2.488 . S
Eu640 O662 2.471 . S
Eu640 O663 2.349 . S
Eu641 O650 2.373 . S
Eu641 O654 2.488 . S
Eu641 O655 2.471 . S
Eu641 O656 2.349 . S
Eu641 O659 2.392 . S
Eu641 O660 2.418 . S
Eu641 C670 2.828 . S
C642 O660 1.244 . S
C642 O663 1.265 . S
C643 C644 1.379 . S
C643 C647 1.373 . S
C643 C649 1.505 . S
C644 C643 1.379 . S
C644 C646 1.369 . S
C644 H672 0.930 . S
C645 C647 1.383 . S
C645 C648 1.382 . S
C645 H673 0.930 . S
C646 C644 1.369 . S
C646 C648 1.392 . S
C646 H674 0.930 . S
C647 C643 1.373 . S
C647 C645 1.383 . S
C647 H675 0.931 . S
C648 C645 1.382 . S
C648 C646 1.392 . S
C649 Eu640 2.828 . S
C649 C643 1.505 . S
C649 O661 1.249 . S
C649 O662 1.244 . S
O650 Eu641 2.373 . S
O650 C652 1.258 . S
O651 Eu640 2.392 . S
O651 C652 1.242 . S
C652 O650 1.258 . S
C652 O651 1.242 . S
O653 Eu640 2.418 . S
O653 C657 1.244 . S
O654 Eu641 2.488 . S
O654 C670 1.249 . S
O655 Eu641 2.471 . S
O655 C670 1.244 . S
O656 Eu641 2.349 . S
O656 C657 1.265 . S
C657 O653 1.244 . S
C657 O656 1.265 . S
O658 Eu640 2.373 . S
O658 C671 1.258 . S
O659 Eu641 2.392 . S
O659 C671 1.242 . S
O660 Eu641 2.418 . S
O660 C642 1.244 . S
O661 Eu640 2.488 . S
O661 C649 1.249 . S
O662 Eu640 2.471 . S
O662 C649 1.244 . S
O663 Eu640 2.349 . S
O663 C642 1.265 . S
C664 C665 1.379 . S
C664 C668 1.373 . S
C664 C670 1.505 . S
C665 C664 1.379 . S
C665 C667 1.369 . S
C665 H676 0.930 . S
C666 C668 1.383 . S
C666 C669 1.382 . S
C666 H677 0.930 . S
C667 C665 1.369 . S
C667 C669 1.392 . S
C667 H678 0.930 . S
C668 C664 1.373 . S
C668 C666 1.383 . S
C668 H679 0.931 . S
C669 C666 1.382 . S
C669 C667 1.392 . S
C670 Eu641 2.828 . S
C670 O654 1.249 . S
C670 O655 1.244 . S
C670 C664 1.505 . S
C671 O658 1.258 . S
C671 O659 1.242 . S
H672 C644 0.930 . S
H673 C645 0.930 . S
H674 C646 0.930 . S
H675 C647 0.931 . S
H676 C665 0.930 . S
H677 C666 0.930 . S
H678 C667 0.930 . S
H679 C668 0.931 . S
Eu680 C689 2.828 . S
Eu680 O691 2.392 . S
Eu680 O693 2.418 . S
Eu680 O698 2.373 . S
Eu680 O701 2.488 . S
Eu680 O702 2.471 . S
Eu680 O703 2.349 . S
Eu681 O690 2.373 . S
Eu681 O694 2.488 . S
Eu681 O695 2.471 . S
Eu681 O696 2.349 . S
Eu681 O699 2.392 . S
Eu681 O700 2.418 . S
Eu681 C710 2.828 . S
C682 O700 1.244 . S
C682 O703 1.265 . S
C683 C684 1.380 . S
C683 C687 1.373 1_655 S
C683 C689 1.505 . S
C684 C683 1.380 . S
C684 C686 1.367 1_655 S
C684 H712 0.931 . S
C685 C687 1.383 . S
C685 C688 1.382 . S
C685 H713 0.930 . S
C686 C684 1.367 1_455 S
C686 C688 1.392 . S
C686 H714 0.930 . S
C687 C683 1.373 1_455 S
C687 C685 1.383 . S
C687 H715 0.931 1_455 S
C688 C685 1.382 . S
C688 C686 1.392 . S
C689 Eu680 2.828 . S
C689 C683 1.505 . S
C689 O701 1.249 . S
C689 O702 1.244 . S
O690 Eu681 2.373 . S
O690 C692 1.258 . S
O691 Eu680 2.392 . S
O691 C692 1.242 . S
C692 O690 1.258 . S
C692 O691 1.242 . S
O693 Eu680 2.418 . S
O693 C697 1.244 . S
O694 Eu681 2.488 . S
O694 C710 1.249 . S
O695 Eu681 2.471 . S
O695 C710 1.244 . S
O696 Eu681 2.349 . S
O696 C697 1.265 . S
C697 O693 1.244 . S
C697 O696 1.265 . S
O698 Eu680 2.373 . S
O698 C711 1.258 . S
O699 Eu681 2.392 . S
O699 C711 1.242 . S
O700 Eu681 2.418 . S
O700 C682 1.244 . S
O701 Eu680 2.488 . S
O701 C689 1.249 . S
O702 Eu680 2.471 . S
O702 C689 1.244 . S
O703 Eu680 2.349 . S
O703 C682 1.265 . S
C704 C705 1.379 . S
C704 C708 1.373 . S
C704 C710 1.505 . S
C705 C704 1.379 . S
C705 C707 1.369 . S
C705 H716 0.930 . S
C706 C708 1.383 . S
C706 C709 1.382 . S
C706 H717 0.930 . S
C707 C705 1.369 . S
C707 C709 1.392 . S
C707 H718 0.930 . S
C708 C704 1.373 . S
C708 C706 1.383 . S
C708 H719 0.931 . S
C709 C706 1.382 . S
C709 C707 1.392 . S
C710 Eu681 2.828 . S
C710 O694 1.249 . S
C710 O695 1.244 . S
C710 C704 1.505 . S
C711 O698 1.258 . S
C711 O699 1.242 . S
H712 C684 0.931 . S
H713 C685 0.930 . S
H714 C686 0.930 . S
H715 C687 0.931 1_655 S
H716 C705 0.930 . S
H717 C706 0.930 . S
H718 C707 0.930 . S
H719 C708 0.931 . S
Eu720 C729 2.828 . S
Eu720 O731 2.392 . S
Eu720 O733 2.418 . S
Eu720 O738 2.373 . S
Eu720 O741 2.488 . S
Eu720 O742 2.471 . S
Eu720 O743 2.349 . S
Eu721 O730 2.373 . S
Eu721 O734 2.488 . S
Eu721 O735 2.471 . S
Eu721 O736 2.349 . S
Eu721 O739 2.392 . S
Eu721 O740 2.418 . S
Eu721 C750 2.828 . S
C722 O740 1.244 . S
C722 O743 1.265 . S
C723 C724 1.379 . S
C723 C727 1.373 . S
C723 C729 1.505 . S
C724 C723 1.379 . S
C724 C726 1.369 . S
C724 H752 0.930 . S
C725 C727 1.383 . S
C725 C728 1.382 . S
C725 H753 0.930 . S
C726 C724 1.369 . S
C726 C728 1.392 . S
C726 H754 0.930 . S
C727 C723 1.373 . S
C727 C725 1.383 . S
C727 H755 0.931 . S
C728 C725 1.382 . S
C728 C726 1.392 . S
C729 Eu720 2.828 . S
C729 C723 1.505 . S
C729 O741 1.249 . S
C729 O742 1.244 . S
O730 Eu721 2.373 . S
O730 C732 1.258 . S
O731 Eu720 2.392 . S
O731 C732 1.242 . S
C732 O730 1.258 . S
C732 O731 1.242 . S
O733 Eu720 2.418 . S
O733 C737 1.244 . S
O734 Eu721 2.488 . S
O734 C750 1.249 . S
O735 Eu721 2.471 . S
O735 C750 1.244 . S
O736 Eu721 2.349 . S
O736 C737 1.265 . S
C737 O733 1.244 . S
C737 O736 1.265 . S
O738 Eu720 2.373 . S
O738 C751 1.258 . S
O739 Eu721 2.392 . S
O739 C751 1.242 . S
O740 Eu721 2.418 . S
O740 C722 1.244 . S
O741 Eu720 2.488 . S
O741 C729 1.249 . S
O742 Eu720 2.471 . S
O742 C729 1.244 . S
O743 Eu720 2.349 . S
O743 C722 1.265 . S
C744 C745 1.379 . S
C744 C748 1.373 . S
C744 C750 1.505 . S
C745 C744 1.379 . S
C745 C747 1.369 . S
C745 H756 0.930 . S
C746 C748 1.383 . S
C746 C749 1.382 . S
C746 H757 0.930 . S
C747 C745 1.369 . S
C747 C749 1.392 . S
C747 H758 0.930 . S
C748 C744 1.373 . S
C748 C746 1.383 . S
C748 H759 0.931 . S
C749 C746 1.382 . S
C749 C747 1.392 . S
C750 Eu721 2.828 . S
C750 O734 1.249 . S
C750 O735 1.244 . S
C750 C744 1.505 . S
C751 O738 1.258 . S
C751 O739 1.242 . S
H752 C724 0.930 . S
H753 C725 0.930 . S
H754 C726 0.930 . S
H755 C727 0.931 . S
H756 C745 0.930 . S
H757 C746 0.930 . S
H758 C747 0.930 . S
H759 C748 0.931 . S
Eu760 C769 2.828 . S
Eu760 O771 2.392 . S
Eu760 O773 2.418 . S
Eu760 O778 2.373 . S
Eu760 O781 2.488 . S
Eu760 O782 2.471 . S
Eu760 O783 2.349 . S
Eu761 O770 2.373 . S
Eu761 O774 2.488 . S
Eu761 O775 2.471 . S
Eu761 O776 2.349 . S
Eu761 O779 2.392 . S
Eu761 O780 2.418 . S
Eu761 C790 2.828 . S
C762 O780 1.244 . S
C762 O783 1.265 . S
C763 C764 1.380 . S
C763 C767 1.373 1_655 S
C763 C769 1.505 . S
C764 C763 1.380 . S
C764 C766 1.367 1_655 S
C764 H792 0.931 . S
C765 C767 1.383 . S
C765 C768 1.382 . S
C765 H793 0.930 . S
C766 C764 1.367 1_455 S
C766 C768 1.392 . S
C766 H794 0.930 . S
C767 C763 1.373 1_455 S
C767 C765 1.383 . S
C767 H795 0.931 1_455 S
C768 C765 1.382 . S
C768 C766 1.392 . S
C769 Eu760 2.828 . S
C769 C763 1.505 . S
C769 O781 1.249 . S
C769 O782 1.244 . S
O770 Eu761 2.373 . S
O770 C772 1.258 . S
O771 Eu760 2.392 . S
O771 C772 1.242 . S
C772 O770 1.258 . S
C772 O771 1.242 . S
O773 Eu760 2.418 . S
O773 C777 1.244 . S
O774 Eu761 2.488 . S
O774 C790 1.249 . S
O775 Eu761 2.471 . S
O775 C790 1.244 . S
O776 Eu761 2.349 . S
O776 C777 1.265 . S
C777 O773 1.244 . S
C777 O776 1.265 . S
O778 Eu760 2.373 . S
O778 C791 1.258 . S
O779 Eu761 2.392 . S
O779 C791 1.242 . S
O780 Eu761 2.418 . S
O780 C762 1.244 . S
O781 Eu760 2.488 . S
O781 C769 1.249 . S
O782 Eu760 2.471 . S
O782 C769 1.244 . S
O783 Eu760 2.349 . S
O783 C762 1.265 . S
C784 C785 1.379 . S
C784 C788 1.373 . S
C784 C790 1.505 . S
C785 C784 1.379 . S
C785 C787 1.369 . S
C785 H796 0.930 . S
C786 C788 1.383 . S
C786 C789 1.382 . S
C786 H797 0.930 . S
C787 C785 1.369 . S
C787 C789 1.392 . S
C787 H798 0.930 . S
C788 C784 1.373 . S
C788 C786 1.383 . S
C788 H799 0.931 . S
C789 C786 1.382 . S
C789 C787 1.392 . S
C790 Eu761 2.828 . S
C790 O774 1.249 . S
C790 O775 1.244 . S
C790 C784 1.505 . S
C791 O778 1.258 . S
C791 O779 1.242 . S
H792 C764 0.931 . S
H793 C765 0.930 . S
H794 C766 0.930 . S
H795 C767 0.931 1_655 S
H796 C785 0.930 . S
H797 C786 0.930 . S
H798 C787 0.930 . S
H799 C788 0.931 . S
Eu800 C809 2.828 . S
Eu800 O811 2.392 . S
Eu800 O813 2.418 . S
Eu800 O818 2.373 . S
Eu800 O821 2.488 . S
Eu800 O822 2.471 . S
Eu800 O823 2.349 . S
Eu801 O810 2.373 . S
Eu801 O814 2.488 . S
Eu801 O815 2.471 . S
Eu801 O816 2.349 . S
Eu801 O819 2.392 . S
Eu801 O820 2.418 . S
Eu801 C830 2.828 . S
C802 O820 1.244 . S
C802 O823 1.265 . S
C803 C804 1.379 . S
C803 C807 1.373 . S
C803 C809 1.505 . S
C804 C803 1.379 . S
C804 C806 1.369 . S
C804 H832 0.930 . S
C805 C807 1.383 . S
C805 C808 1.382 . S
C805 H833 0.930 . S
C806 C804 1.369 . S
C806 C808 1.392 . S
C806 H834 0.930 . S
C807 C803 1.373 . S
C807 C805 1.383 . S
C807 H835 0.931 . S
C808 C805 1.382 . S
C808 C806 1.392 . S
C809 Eu800 2.828 . S
C809 C803 1.505 . S
C809 O821 1.249 . S
C809 O822 1.244 . S
O810 Eu801 2.373 . S
O810 C812 1.258 . S
O811 Eu800 2.392 . S
O811 C812 1.242 . S
C812 O810 1.258 . S
C812 O811 1.242 . S
O813 Eu800 2.418 . S
O813 C817 1.244 . S
O814 Eu801 2.488 . S
O814 C830 1.249 . S
O815 Eu801 2.471 . S
O815 C830 1.244 . S
O816 Eu801 2.349 . S
O816 C817 1.265 . S
C817 O813 1.244 . S
C817 O816 1.265 . S
O818 Eu800 2.373 . S
O818 C831 1.258 . S
O819 Eu801 2.392 . S
O819 C831 1.242 . S
O820 Eu801 2.418 . S
O820 C802 1.244 . S
O821 Eu800 2.488 . S
O821 C809 1.249 . S
O822 Eu800 2.471 . S
O822 C809 1.244 . S
O823 Eu800 2.349 . S
O823 C802 1.265 . S
C824 C825 1.379 . S
C824 C828 1.373 . S
C824 C830 1.505 . S
C825 C824 1.379 . S
C825 C827 1.369 . S
C825 H836 0.930 . S
C826 C828 1.383 . S
C826 C829 1.382 . S
C826 H837 0.930 . S
C827 C825 1.369 . S
C827 C829 1.392 . S
C827 H838 0.930 . S
C828 C824 1.373 . S
C828 C826 1.383 . S
C828 H839 0.931 . S
C829 C826 1.382 . S
C829 C827 1.392 . S
C830 Eu801 2.828 . S
C830 O814 1.249 . S
C830 O815 1.244 . S
C830 C824 1.505 . S
C831 O818 1.258 . S
C831 O819 1.242 . S
H832 C804 0.930 . S
H833 C805 0.930 . S
H834 C806 0.930 . S
H835 C807 0.931 . S
H836 C825 0.930 . S
H837 C826 0.930 . S
H838 C827 0.930 . S
H839 C828 0.931 . S
Eu840 C849 2.828 . S
Eu840 O851 2.392 . S
Eu840 O853 2.418 . S
Eu840 O858 2.373 . S
Eu840 O861 2.488 . S
Eu840 O862 2.471 . S
Eu840 O863 2.349 . S
Eu841 O850 2.373 . S
Eu841 O854 2.488 . S
Eu841 O855 2.471 . S
Eu841 O856 2.349 . S
Eu841 O859 2.392 . S
Eu841 O860 2.418 . S
Eu841 C870 2.828 . S
C842 O860 1.244 . S
C842 O863 1.265 . S
C843 C844 1.379 . S
C843 C847 1.373 . S
C843 C849 1.505 . S
C844 C843 1.379 . S
C844 C846 1.369 . S
C844 H872 0.930 . S
C845 C847 1.383 . S
C845 C848 1.382 . S
C845 H873 0.930 . S
C846 C844 1.369 . S
C846 C848 1.392 . S
C846 H874 0.930 . S
C847 C843 1.373 . S
C847 C845 1.383 . S
C847 H875 0.931 . S
C848 C845 1.382 . S
C848 C846 1.392 . S
C849 Eu840 2.828 . S
C849 C843 1.505 . S
C849 O861 1.249 . S
C849 O862 1.244 . S
O850 Eu841 2.373 . S
O850 C852 1.258 . S
O851 Eu840 2.392 . S
O851 C852 1.242 . S
C852 O850 1.258 . S
C852 O851 1.242 . S
O853 Eu840 2.418 . S
O853 C857 1.244 . S
O854 Eu841 2.488 . S
O854 C870 1.249 . S
O855 Eu841 2.471 . S
O855 C870 1.244 . S
O856 Eu841 2.349 . S
O856 C857 1.265 . S
C857 O853 1.244 . S
C857 O856 1.265 . S
O858 Eu840 2.373 . S
O858 C871 1.258 . S
O859 Eu841 2.392 . S
O859 C871 1.242 . S
O860 Eu841 2.418 . S
O860 C842 1.244 . S
O861 Eu840 2.488 . S
O861 C849 1.249 . S
O862 Eu840 2.471 . S
O862 C849 1.244 . S
O863 Eu840 2.349 . S
O863 C842 1.265 . S
C864 C865 1.380 . S
C864 C868 1.373 1_455 S
C864 C870 1.505 . S
C865 C864 1.380 . S
C865 C867 1.367 1_455 S
C865 H876 0.931 . S
C866 C868 1.383 . S
C866 C869 1.382 . S
C866 H877 0.930 . S
C867 C865 1.367 1_655 S
C867 C869 1.392 . S
C867 H878 0.930 . S
C868 C864 1.373 1_655 S
C868 C866 1.383 . S
C868 H879 0.931 1_655 S
C869 C866 1.382 . S
C869 C867 1.392 . S
C870 Eu841 2.828 . S
C870 O854 1.249 . S
C870 O855 1.244 . S
C870 C864 1.505 . S
C871 O858 1.258 . S
C871 O859 1.242 . S
H872 C844 0.930 . S
H873 C845 0.930 . S
H874 C846 0.930 . S
H875 C847 0.931 . S
H876 C865 0.931 . S
H877 C866 0.930 . S
H878 C867 0.930 . S
H879 C868 0.931 1_455 S
Eu880 C889 2.828 . S
Eu880 O891 2.392 . S
Eu880 O893 2.418 . S
Eu880 O898 2.373 . S
Eu880 O901 2.488 . S
Eu880 O902 2.471 . S
Eu880 O903 2.349 . S
Eu881 O890 2.373 . S
Eu881 O894 2.488 . S
Eu881 O895 2.471 . S
Eu881 O896 2.349 . S
Eu881 O899 2.392 . S
Eu881 O900 2.418 . S
Eu881 C910 2.828 . S
C882 O900 1.244 . S
C882 O903 1.265 . S
C883 C884 1.379 . S
C883 C887 1.373 . S
C883 C889 1.505 . S
C884 C883 1.379 . S
C884 C886 1.369 . S
C884 H912 0.930 . S
C885 C887 1.383 . S
C885 C888 1.382 . S
C885 H913 0.930 . S
C886 C884 1.369 . S
C886 C888 1.392 . S
C886 H914 0.930 . S
C887 C883 1.373 . S
C887 C885 1.383 . S
C887 H915 0.931 . S
C888 C885 1.382 . S
C888 C886 1.392 . S
C889 Eu880 2.828 . S
C889 C883 1.505 . S
C889 O901 1.249 . S
C889 O902 1.244 . S
O890 Eu881 2.373 . S
O890 C892 1.258 . S
O891 Eu880 2.392 . S
O891 C892 1.242 . S
C892 O890 1.258 . S
C892 O891 1.242 . S
O893 Eu880 2.418 . S
O893 C897 1.244 . S
O894 Eu881 2.488 . S
O894 C910 1.249 . S
O895 Eu881 2.471 . S
O895 C910 1.244 . S
O896 Eu881 2.349 . S
O896 C897 1.265 . S
C897 O893 1.244 . S
C897 O896 1.265 . S
O898 Eu880 2.373 . S
O898 C911 1.258 . S
O899 Eu881 2.392 . S
O899 C911 1.242 . S
O900 Eu881 2.418 . S
O900 C882 1.244 . S
O901 Eu880 2.488 . S
O901 C889 1.249 . S
O902 Eu880 2.471 . S
O902 C889 1.244 . S
O903 Eu880 2.349 . S
O903 C882 1.265 . S
C904 C905 1.379 . S
C904 C908 1.373 . S
C904 C910 1.505 . S
C905 C904 1.379 . S
C905 C907 1.369 . S
C905 H916 0.930 . S
C906 C908 1.383 . S
C906 C909 1.382 . S
C906 H917 0.930 . S
C907 C905 1.369 . S
C907 C909 1.392 . S
C907 H918 0.930 . S
C908 C904 1.373 . S
C908 C906 1.383 . S
C908 H919 0.931 . S
C909 C906 1.382 . S
C909 C907 1.392 . S
C910 Eu881 2.828 . S
C910 O894 1.249 . S
C910 O895 1.244 . S
C910 C904 1.505 . S
C911 O898 1.258 . S
C911 O899 1.242 . S
H912 C884 0.930 . S
H913 C885 0.930 . S
H914 C886 0.930 . S
H915 C887 0.931 . S
H916 C905 0.930 . S
H917 C906 0.930 . S
H918 C907 0.930 . S
H919 C908 0.931 . S
Eu920 C929 2.828 . S
Eu920 O931 2.392 . S
Eu920 O933 2.418 . S
Eu920 O938 2.373 . S
Eu920 O941 2.488 . S
Eu920 O942 2.471 . S
Eu920 O943 2.349 . S
Eu921 O930 2.373 . S
Eu921 O934 2.488 . S
Eu921 O935 2.471 . S
Eu921 O936 2.349 . S
Eu921 O939 2.392 . S
Eu921 O940 2.418 . S
Eu921 C950 2.828 . S
C922 O940 1.244 . S
C922 O943 1.265 . S
C923 C924 1.379 . S
C923 C927 1.373 . S
C923 C929 1.505 . S
C924 C923 1.379 . S
C924 C926 1.369 . S
C924 H952 0.930 . S
C925 C927 1.383 . S
C925 C928 1.382 . S
C925 H953 0.930 . S
C926 C924 1.369 . S
C926 C928 1.392 . S
C926 H954 0.930 . S
C927 C923 1.373 . S
C927 C925 1.383 . S
C927 H955 0.931 . S
C928 C925 1.382 . S
C928 C926 1.392 . S
C929 Eu920 2.828 . S
C929 C923 1.505 . S
C929 O941 1.249 . S
C929 O942 1.244 . S
O930 Eu921 2.373 . S
O930 C932 1.258 . S
O931 Eu920 2.392 . S
O931 C932 1.242 . S
C932 O930 1.258 . S
C932 O931 1.242 . S
O933 Eu920 2.418 . S
O933 C937 1.244 . S
O934 Eu921 2.488 . S
O934 C950 1.249 . S
O935 Eu921 2.471 . S
O935 C950 1.244 . S
O936 Eu921 2.349 . S
O936 C937 1.265 . S
C937 O933 1.244 . S
C937 O936 1.265 . S
O938 Eu920 2.373 . S
O938 C951 1.258 . S
O939 Eu921 2.392 . S
O939 C951 1.242 . S
O940 Eu921 2.418 . S
O940 C922 1.244 . S
O941 Eu920 2.488 . S
O941 C929 1.249 . S
O942 Eu920 2.471 . S
O942 C929 1.244 . S
O943 Eu920 2.349 . S
O943 C922 1.265 . S
C944 C945 1.380 . S
C944 C948 1.373 1_455 S
C944 C950 1.505 . S
C945 C944 1.380 . S
C945 C947 1.367 1_455 S
C945 H956 0.931 . S
C946 C948 1.383 . S
C946 C949 1.382 . S
C946 H957 0.930 . S
C947 C945 1.367 1_655 S
C947 C949 1.392 . S
C947 H958 0.930 . S
C948 C944 1.373 1_655 S
C948 C946 1.383 . S
C948 H959 0.931 1_655 S
C949 C946 1.382 . S
C949 C947 1.392 . S
C950 Eu921 2.828 . S
C950 O934 1.249 . S
C950 O935 1.244 . S
C950 C944 1.505 . S
C951 O938 1.258 . S
C951 O939 1.242 . S
H952 C924 0.930 . S
H953 C925 0.930 . S
H954 C926 0.930 . S
H955 C927 0.931 . S
H956 C945 0.931 . S
H957 C946 0.930 . S
H958 C947 0.930 . S
H959 C948 0.931 1_455 S
Eu960 C969 2.828 . S
Eu960 O971 2.392 . S
Eu960 O973 2.413 1_545 S
Eu960 O978 2.373 1_545 S
Eu960 O981 2.488 . S
Eu960 O982 2.471 . S
Eu960 O983 2.349 1_545 S
Eu961 O970 2.373 1_565 S
Eu961 O974 2.488 . S
Eu961 O975 2.471 . S
Eu961 O976 2.349 . S
Eu961 O979 2.392 . S
Eu961 O980 2.418 . S
Eu961 C990 2.828 . S
C962 O980 1.244 . S
C962 O983 1.265 . S
C963 C964 1.379 . S
C963 C967 1.373 1_565 S
C963 C969 1.505 1_565 S
C964 C963 1.379 . S
C964 C966 1.369 . S
C964 H992 0.930 . S
C965 C967 1.383 1_565 S
C965 C968 1.382 . S
C965 H993 0.931 . S
C966 C964 1.369 . S
C966 C968 1.392 . S
C966 H994 0.930 . S
C967 C963 1.373 1_545 S
C967 C965 1.383 1_545 S
C967 H995 0.931 . S
C968 C965 1.382 . S
C968 C966 1.392 . S
C969 Eu960 2.828 . S
C969 C963 1.505 1_545 S
C969 O981 1.249 . S
C969 O982 1.244 . S
O970 Eu961 2.373 1_545 S
O970 C972 1.258 . S
O971 Eu960 2.392 . S
O971 C972 1.242 . S
C972 O970 1.258 . S
C972 O971 1.242 . S
O973 Eu960 2.413 1_565 S
O973 C977 1.252 . S
O974 Eu961 2.488 . S
O974 C990 1.249 . S
O975 Eu961 2.471 . S
O975 C990 1.244 . S
O976 Eu961 2.349 . S
O976 C977 1.265 . S
C977 O973 1.252 . S
C977 O976 1.265 . S
O978 Eu960 2.373 1_565 S
O978 C991 1.258 . S
O979 Eu961 2.392 . S
O979 C991 1.242 . S
O980 Eu961 2.418 . S
O980 C962 1.244 . S
O981 Eu960 2.488 . S
O981 C969 1.249 . S
O982 Eu960 2.471 . S
O982 C969 1.244 . S
O983 Eu960 2.349 1_565 S
O983 C962 1.265 . S
C984 C985 1.379 . S
C984 C988 1.373 . S
C984 C990 1.505 . S
C985 C984 1.379 . S
C985 C987 1.369 1_565 S
C985 H996 0.937 . S
C986 C988 1.383 . S
C986 C989 1.382 . S
C986 H997 0.930 . S
C987 C985 1.369 1_545 S
C987 C989 1.392 1_545 S
C987 H998 0.930 . S
C988 C984 1.373 . S
C988 C986 1.383 . S
C988 H999 0.931 . S
C989 C986 1.382 . S
C989 C987 1.392 1_565 S
C990 Eu961 2.828 . S
C990 O974 1.249 . S
C990 O975 1.244 . S
C990 C984 1.505 . S
C991 O978 1.258 . S
C991 O979 1.242 . S
H992 C964 0.930 . S
H993 C965 0.931 . S
H994 C966 0.930 . S
H995 C967 0.931 . S
H996 C985 0.937 . S
H997 C986 0.930 . S
H998 C987 0.930 . S
H999 C988 0.931 . S
Eu1000 C1009 2.828 . S
Eu1000 O1011 2.392 . S
Eu1000 O1013 2.418 . S
Eu1000 O1018 2.373 . S
Eu1000 O1021 2.488 . S
Eu1000 O1022 2.471 . S
Eu1000 O1023 2.349 . S
Eu1001 O1010 2.373 . S
Eu1001 O1014 2.488 . S
Eu1001 O1015 2.471 . S
Eu1001 O1016 2.349 . S
Eu1001 O1019 2.392 . S
Eu1001 O1020 2.418 . S
Eu1001 C1030 2.828 . S
C1002 O1020 1.244 . S
C1002 O1023 1.265 . S
C1003 C1004 1.380 . S
C1003 C1007 1.373 1_655 S
C1003 C1009 1.505 . S
C1004 C1003 1.380 . S
C1004 C1006 1.367 1_655 S
C1004 H1032 0.931 . S
C1005 C1007 1.383 . S
C1005 C1008 1.382 . S
C1005 H1033 0.930 . S
C1006 C1004 1.367 1_455 S
C1006 C1008 1.392 . S
C1006 H1034 0.930 . S
C1007 C1003 1.373 1_455 S
C1007 C1005 1.383 . S
C1007 H1035 0.931 1_455 S
C1008 C1005 1.382 . S
C1008 C1006 1.392 . S
C1009 Eu1000 2.828 . S
C1009 C1003 1.505 . S
C1009 O1021 1.249 . S
C1009 O1022 1.244 . S
O1010 Eu1001 2.373 . S
O1010 C1012 1.258 . S
O1011 Eu1000 2.392 . S
O1011 C1012 1.242 . S
C1012 O1010 1.258 . S
C1012 O1011 1.242 . S
O1013 Eu1000 2.418 . S
O1013 C1017 1.244 . S
O1014 Eu1001 2.488 . S
O1014 C1030 1.249 . S
O1015 Eu1001 2.471 . S
O1015 C1030 1.244 . S
O1016 Eu1001 2.349 . S
O1016 C1017 1.265 . S
C1017 O1013 1.244 . S
C1017 O1016 1.265 . S
O1018 Eu1000 2.373 . S
O1018 C1031 1.258 . S
O1019 Eu1001 2.392 . S
O1019 C1031 1.242 . S
O1020 Eu1001 2.418 . S
O1020 C1002 1.244 . S
O1021 Eu1000 2.488 . S
O1021 C1009 1.249 . S
O1022 Eu1000 2.471 . S
O1022 C1009 1.244 . S
O1023 Eu1000 2.349 . S
O1023 C1002 1.265 . S
C1024 C1025 1.379 . S
C1024 C1028 1.373 . S
C1024 C1030 1.505 . S
C1025 C1024 1.379 . S
C1025 C1027 1.369 . S
C1025 H1036 0.930 . S
C1026 C1028 1.383 . S
C1026 C1029 1.382 . S
C1026 H1037 0.930 . S
C1027 C1025 1.369 . S
C1027 C1029 1.392 . S
C1027 H1038 0.930 . S
C1028 C1024 1.373 . S
C1028 C1026 1.383 . S
C1028 H1039 0.931 . S
C1029 C1026 1.382 . S
C1029 C1027 1.392 . S
C1030 Eu1001 2.828 . S
C1030 O1014 1.249 . S
C1030 O1015 1.244 . S
C1030 C1024 1.505 . S
C1031 O1018 1.258 . S
C1031 O1019 1.242 . S
H1032 C1004 0.931 . S
H1033 C1005 0.930 . S
H1034 C1006 0.930 . S
H1035 C1007 0.931 1_655 S
H1036 C1025 0.930 . S
H1037 C1026 0.930 . S
H1038 C1027 0.930 . S
H1039 C1028 0.931 . S
Eu1040 C1049 2.828 . S
Eu1040 O1051 2.392 . S
Eu1040 O1053 2.418 . S
Eu1040 O1058 2.373 . S
Eu1040 O1061 2.488 . S
Eu1040 O1062 2.471 . S
Eu1040 O1063 2.349 . S
Eu1041 O1050 2.373 . S
Eu1041 O1054 2.488 . S
Eu1041 O1055 2.471 . S
Eu1041 O1056 2.349 . S
Eu1041 O1059 2.392 . S
Eu1041 O1060 2.418 . S
Eu1041 C1070 2.828 . S
C1042 O1060 1.244 . S
C1042 O1063 1.265 . S
C1043 C1044 1.379 . S
C1043 C1047 1.373 . S
C1043 C1049 1.505 . S
C1044 C1043 1.379 . S
C1044 C1046 1.369 . S
C1044 H1072 0.930 . S
C1045 C1047 1.383 . S
C1045 C1048 1.382 . S
C1045 H1073 0.930 . S
C1046 C1044 1.369 . S
C1046 C1048 1.392 . S
C1046 H1074 0.930 . S
C1047 C1043 1.373 . S
C1047 C1045 1.383 . S
C1047 H1075 0.931 . S
C1048 C1045 1.382 . S
C1048 C1046 1.392 . S
C1049 Eu1040 2.828 . S
C1049 C1043 1.505 . S
C1049 O1061 1.249 . S
C1049 O1062 1.244 . S
O1050 Eu1041 2.373 . S
O1050 C1052 1.258 . S
O1051 Eu1040 2.392 . S
O1051 C1052 1.242 . S
C1052 O1050 1.258 . S
C1052 O1051 1.242 . S
O1053 Eu1040 2.418 . S
O1053 C1057 1.244 . S
O1054 Eu1041 2.488 . S
O1054 C1070 1.249 . S
O1055 Eu1041 2.471 . S
O1055 C1070 1.244 . S
O1056 Eu1041 2.349 . S
O1056 C1057 1.265 . S
C1057 O1053 1.244 . S
C1057 O1056 1.265 . S
O1058 Eu1040 2.373 . S
O1058 C1071 1.258 . S
O1059 Eu1041 2.392 . S
O1059 C1071 1.242 . S
O1060 Eu1041 2.418 . S
O1060 C1042 1.244 . S
O1061 Eu1040 2.488 . S
O1061 C1049 1.249 . S
O1062 Eu1040 2.471 . S
O1062 C1049 1.244 . S
O1063 Eu1040 2.349 . S
O1063 C1042 1.265 . S
C1064 C1065 1.379 . S
C1064 C1068 1.373 . S
C1064 C1070 1.505 . S
C1065 C1064 1.379 . S
C1065 C1067 1.369 . S
C1065 H1076 0.930 . S
C1066 C1068 1.383 . S
C1066 C1069 1.382 . S
C1066 H1077 0.930 . S
C1067 C1065 1.369 . S
C1067 C1069 1.392 . S
C1067 H1078 0.930 . S
C1068 C1064 1.373 . S
C1068 C1066 1.383 . S
C1068 H1079 0.931 . S
C1069 C1066 1.382 . S
C1069 C1067 1.392 . S
C1070 Eu1041 2.828 . S
C1070 O1054 1.249 . S
C1070 O1055 1.244 . S
C1070 C1064 1.505 . S
C1071 O1058 1.258 . S
C1071 O1059 1.242 . S
H1072 C1044 0.930 . S
H1073 C1045 0.930 . S
H1074 C1046 0.930 . S
H1075 C1047 0.931 . S
H1076 C1065 0.930 . S
H1077 C1066 0.930 . S
H1078 C1067 0.930 . S
H1079 C1068 0.931 . S
Eu1080 C1089 2.828 . S
Eu1080 O1091 2.392 . S
Eu1080 O1093 2.413 1_545 S
Eu1080 O1098 2.373 1_545 S
Eu1080 O1101 2.488 . S
Eu1080 O1102 2.471 . S
Eu1080 O1103 2.349 1_545 S
Eu1081 O1090 2.373 1_565 S
Eu1081 O1094 2.488 . S
Eu1081 O1095 2.471 . S
Eu1081 O1096 2.349 . S
Eu1081 O1099 2.392 . S
Eu1081 O1100 2.418 . S
Eu1081 C1110 2.828 . S
C1082 O1100 1.244 . S
C1082 O1103 1.265 . S
C1083 C1084 1.380 . S
C1083 C1087 1.373 1_665 S
C1083 C1089 1.505 1_565 S
C1084 C1083 1.380 . S
C1084 C1086 1.367 1_655 S
C1084 H1112 0.931 . S
C1085 C1087 1.383 1_565 S
C1085 C1088 1.382 . S
C1085 H1113 0.931 . S
C1086 C1084 1.367 1_455 S
C1086 C1088 1.392 . S
C1086 H1114 0.930 . S
C1087 C1083 1.373 1_445 S
C1087 C1085 1.383 1_545 S
C1087 H1115 0.931 1_455 S
C1088 C1085 1.382 . S
C1088 C1086 1.392 . S
C1089 Eu1080 2.828 . S
C1089 C1083 1.505 1_545 S
C1089 O1101 1.249 . S
C1089 O1102 1.244 . S
O1090 Eu1081 2.373 1_545 S
O1090 C1092 1.258 . S
O1091 Eu1080 2.392 . S
O1091 C1092 1.242 . S
C1092 O1090 1.258 . S
C1092 O1091 1.242 . S
O1093 Eu1080 2.413 1_565 S
O1093 C1097 1.252 . S
O1094 Eu1081 2.488 . S
O1094 C1110 1.249 . S
O1095 Eu1081 2.471 . S
O1095 C1110 1.244 . S
O1096 Eu1081 2.349 . S
O1096 C1097 1.265 . S
C1097 O1093 1.252 . S
C1097 O1096 1.265 . S
O1098 Eu1080 2.373 1_565 S
O1098 C1111 1.258 . S
O1099 Eu1081 2.392 . S
O1099 C1111 1.242 . S
O1100 Eu1081 2.418 . S
O1100 C1082 1.244 . S
O1101 Eu1080 2.488 . S
O1101 C1089 1.249 . S
O1102 Eu1080 2.471 . S
O1102 C1089 1.244 . S
O1103 Eu1080 2.349 1_565 S
O1103 C1082 1.265 . S
C1104 C1105 1.379 . S
C1104 C1108 1.373 . S
C1104 C1110 1.505 . S
C1105 C1104 1.379 . S
C1105 C1107 1.369 1_565 S
C1105 H1116 0.937 . S
C1106 C1108 1.383 . S
C1106 C1109 1.382 . S
C1106 H1117 0.930 . S
C1107 C1105 1.369 1_545 S
C1107 C1109 1.392 1_545 S
C1107 H1118 0.930 . S
C1108 C1104 1.373 . S
C1108 C1106 1.383 . S
C1108 H1119 0.931 . S
C1109 C1106 1.382 . S
C1109 C1107 1.392 1_565 S
C1110 Eu1081 2.828 . S
C1110 O1094 1.249 . S
C1110 O1095 1.244 . S
C1110 C1104 1.505 . S
C1111 O1098 1.258 . S
C1111 O1099 1.242 . S
H1112 C1084 0.931 . S
H1113 C1085 0.931 . S
H1114 C1086 0.930 . S
H1115 C1087 0.931 1_655 S
H1116 C1105 0.937 . S
H1117 C1106 0.930 . S
H1118 C1107 0.930 . S
H1119 C1108 0.931 . S
Eu1120 C1129 2.828 . S
Eu1120 O1131 2.392 . S
Eu1120 O1133 2.418 . S
Eu1120 O1138 2.373 1_545 S
Eu1120 O1141 2.488 . S
Eu1120 O1142 2.471 . S
Eu1120 O1143 2.349 . S
Eu1121 O1130 2.373 1_565 S
Eu1121 O1134 2.488 . S
Eu1121 O1135 2.471 . S
Eu1121 O1136 2.349 1_565 S
Eu1121 O1139 2.392 . S
Eu1121 O1140 2.413 1_565 S
Eu1121 C1150 2.828 . S
C1122 O1140 1.252 . S
C1122 O1143 1.265 . S
C1123 C1124 1.379 . S
C1123 C1127 1.373 . S
C1123 C1129 1.505 . S
C1124 C1123 1.379 . S
C1124 C1126 1.369 1_545 S
C1124 H1152 0.937 . S
C1125 C1127 1.383 . S
C1125 C1128 1.382 . S
C1125 H1153 0.930 . S
C1126 C1124 1.369 1_565 S
C1126 C1128 1.392 1_565 S
C1126 H1154 0.930 . S
C1127 C1123 1.373 . S
C1127 C1125 1.383 . S
C1127 H1155 0.931 . S
C1128 C1125 1.382 . S
C1128 C1126 1.392 1_545 S
C1129 Eu1120 2.828 . S
C1129 C1123 1.505 . S
C1129 O1141 1.249 . S
C1129 O1142 1.244 . S
O1130 Eu1121 2.373 1_545 S
O1130 C1132 1.258 . S
O1131 Eu1120 2.392 . S
O1131 C1132 1.242 . S
C1132 O1130 1.258 . S
C1132 O1131 1.242 . S
O1133 Eu1120 2.418 . S
O1133 C1137 1.244 . S
O1134 Eu1121 2.488 . S
O1134 C1150 1.249 . S
O1135 Eu1121 2.471 . S
O1135 C1150 1.244 . S
O1136 Eu1121 2.349 1_545 S
O1136 C1137 1.265 . S
C1137 O1133 1.244 . S
C1137 O1136 1.265 . S
O1138 Eu1120 2.373 1_565 S
O1138 C1151 1.258 . S
O1139 Eu1121 2.392 . S
O1139 C1151 1.242 . S
O1140 Eu1121 2.413 1_545 S
O1140 C1122 1.252 . S
O1141 Eu1120 2.488 . S
O1141 C1129 1.249 . S
O1142 Eu1120 2.471 . S
O1142 C1129 1.244 . S
O1143 Eu1120 2.349 . S
O1143 C1122 1.265 . S
C1144 C1145 1.379 . S
C1144 C1148 1.373 1_545 S
C1144 C1150 1.505 1_545 S
C1145 C1144 1.379 . S
C1145 C1147 1.369 . S
C1145 H1156 0.930 . S
C1146 C1148 1.383 1_545 S
C1146 C1149 1.382 . S
C1146 H1157 0.931 . S
C1147 C1145 1.369 . S
C1147 C1149 1.392 . S
C1147 H1158 0.930 . S
C1148 C1144 1.373 1_565 S
C1148 C1146 1.383 1_565 S
C1148 H1159 0.931 . S
C1149 C1146 1.382 . S
C1149 C1147 1.392 . S
C1150 Eu1121 2.828 . S
C1150 O1134 1.249 . S
C1150 O1135 1.244 . S
C1150 C1144 1.505 1_565 S
C1151 O1138 1.258 . S
C1151 O1139 1.242 . S
H1152 C1124 0.937 . S
H1153 C1125 0.930 . S
H1154 C1126 0.930 . S
H1155 C1127 0.931 . S
H1156 C1145 0.930 . S
H1157 C1146 0.931 . S
H1158 C1147 0.930 . S
H1159 C1148 0.931 . S
Eu1160 C1169 2.828 . S
Eu1160 O1171 2.392 . S
Eu1160 O1173 2.418 . S
Eu1160 O1178 2.373 . S
Eu1160 O1181 2.488 . S
Eu1160 O1182 2.471 . S
Eu1160 O1183 2.349 . S
Eu1161 O1170 2.373 . S
Eu1161 O1174 2.488 . S
Eu1161 O1175 2.471 . S
Eu1161 O1176 2.349 . S
Eu1161 O1179 2.392 . S
Eu1161 O1180 2.418 . S
Eu1161 C1190 2.828 . S
C1162 O1180 1.244 . S
C1162 O1183 1.265 . S
C1163 C1164 1.379 . S
C1163 C1167 1.373 . S
C1163 C1169 1.505 . S
C1164 C1163 1.379 . S
C1164 C1166 1.369 . S
C1164 H1192 0.930 . S
C1165 C1167 1.383 . S
C1165 C1168 1.382 . S
C1165 H1193 0.930 . S
C1166 C1164 1.369 . S
C1166 C1168 1.392 . S
C1166 H1194 0.930 . S
C1167 C1163 1.373 . S
C1167 C1165 1.383 . S
C1167 H1195 0.931 . S
C1168 C1165 1.382 . S
C1168 C1166 1.392 . S
C1169 Eu1160 2.828 . S
C1169 C1163 1.505 . S
C1169 O1181 1.249 . S
C1169 O1182 1.244 . S
O1170 Eu1161 2.373 . S
O1170 C1172 1.258 . S
O1171 Eu1160 2.392 . S
O1171 C1172 1.242 . S
C1172 O1170 1.258 . S
C1172 O1171 1.242 . S
O1173 Eu1160 2.418 . S
O1173 C1177 1.244 . S
O1174 Eu1161 2.488 . S
O1174 C1190 1.249 . S
O1175 Eu1161 2.471 . S
O1175 C1190 1.244 . S
O1176 Eu1161 2.349 . S
O1176 C1177 1.265 . S
C1177 O1173 1.244 . S
C1177 O1176 1.265 . S
O1178 Eu1160 2.373 . S
O1178 C1191 1.258 . S
O1179 Eu1161 2.392 . S
O1179 C1191 1.242 . S
O1180 Eu1161 2.418 . S
O1180 C1162 1.244 . S
O1181 Eu1160 2.488 . S
O1181 C1169 1.249 . S
O1182 Eu1160 2.471 . S
O1182 C1169 1.244 . S
O1183 Eu1160 2.349 . S
O1183 C1162 1.265 . S
C1184 C1185 1.380 . S
C1184 C1188 1.373 1_455 S
C1184 C1190 1.505 . S
C1185 C1184 1.380 . S
C1185 C1187 1.367 1_455 S
C1185 H1196 0.931 . S
C1186 C1188 1.383 . S
C1186 C1189 1.382 . S
C1186 H1197 0.930 . S
C1187 C1185 1.367 1_655 S
C1187 C1189 1.392 . S
C1187 H1198 0.930 . S
C1188 C1184 1.373 1_655 S
C1188 C1186 1.383 . S
C1188 H1199 0.931 1_655 S
C1189 C1186 1.382 . S
C1189 C1187 1.392 . S
C1190 Eu1161 2.828 . S
C1190 O1174 1.249 . S
C1190 O1175 1.244 . S
C1190 C1184 1.505 . S
C1191 O1178 1.258 . S
C1191 O1179 1.242 . S
H1192 C1164 0.930 . S
H1193 C1165 0.930 . S
H1194 C1166 0.930 . S
H1195 C1167 0.931 . S
H1196 C1185 0.931 . S
H1197 C1186 0.930 . S
H1198 C1187 0.930 . S
H1199 C1188 0.931 1_455 S
Eu1200 C1209 2.828 . S
Eu1200 O1211 2.392 . S
Eu1200 O1213 2.418 . S
Eu1200 O1218 2.373 . S
Eu1200 O1221 2.488 . S
Eu1200 O1222 2.471 . S
Eu1200 O1223 2.349 . S
Eu1201 O1210 2.373 . S
Eu1201 O1214 2.488 . S
Eu1201 O1215 2.471 . S
Eu1201 O1216 2.349 . S
Eu1201 O1219 2.392 . S
Eu1201 O1220 2.418 . S
Eu1201 C1230 2.828 . S
C1202 O1220 1.244 . S
C1202 O1223 1.265 . S
C1203 C1204 1.379 . S
C1203 C1207 1.373 . S
C1203 C1209 1.505 . S
C1204 C1203 1.379 . S
C1204 C1206 1.369 . S
C1204 H1232 0.930 . S
C1205 C1207 1.383 . S
C1205 C1208 1.382 . S
C1205 H1233 0.930 . S
C1206 C1204 1.369 . S
C1206 C1208 1.392 . S
C1206 H1234 0.930 . S
C1207 C1203 1.373 . S
C1207 C1205 1.383 . S
C1207 H1235 0.931 . S
C1208 C1205 1.382 . S
C1208 C1206 1.392 . S
C1209 Eu1200 2.828 . S
C1209 C1203 1.505 . S
C1209 O1221 1.249 . S
C1209 O1222 1.244 . S
O1210 Eu1201 2.373 . S
O1210 C1212 1.258 . S
O1211 Eu1200 2.392 . S
O1211 C1212 1.242 . S
C1212 O1210 1.258 . S
C1212 O1211 1.242 . S
O1213 Eu1200 2.418 . S
O1213 C1217 1.244 . S
O1214 Eu1201 2.488 . S
O1214 C1230 1.249 . S
O1215 Eu1201 2.471 . S
O1215 C1230 1.244 . S
O1216 Eu1201 2.349 . S
O1216 C1217 1.265 . S
C1217 O1213 1.244 . S
C1217 O1216 1.265 . S
O1218 Eu1200 2.373 . S
O1218 C1231 1.258 . S
O1219 Eu1201 2.392 . S
O1219 C1231 1.242 . S
O1220 Eu1201 2.418 . S
O1220 C1202 1.244 . S
O1221 Eu1200 2.488 . S
O1221 C1209 1.249 . S
O1222 Eu1200 2.471 . S
O1222 C1209 1.244 . S
O1223 Eu1200 2.349 . S
O1223 C1202 1.265 . S
C1224 C1225 1.379 . S
C1224 C1228 1.373 . S
C1224 C1230 1.505 . S
C1225 C1224 1.379 . S
C1225 C1227 1.369 . S
C1225 H1236 0.930 . S
C1226 C1228 1.383 . S
C1226 C1229 1.382 . S
C1226 H1237 0.930 . S
C1227 C1225 1.369 . S
C1227 C1229 1.392 . S
C1227 H1238 0.930 . S
C1228 C1224 1.373 . S
C1228 C1226 1.383 . S
C1228 H1239 0.931 . S
C1229 C1226 1.382 . S
C1229 C1227 1.392 . S
C1230 Eu1201 2.828 . S
C1230 O1214 1.249 . S
C1230 O1215 1.244 . S
C1230 C1224 1.505 . S
C1231 O1218 1.258 . S
C1231 O1219 1.242 . S
H1232 C1204 0.930 . S
H1233 C1205 0.930 . S
H1234 C1206 0.930 . S
H1235 C1207 0.931 . S
H1236 C1225 0.930 . S
H1237 C1226 0.930 . S
H1238 C1227 0.930 . S
H1239 C1228 0.931 . S
Eu1240 C1249 2.828 . S
Eu1240 O1251 2.392 . S
Eu1240 O1253 2.418 . S
Eu1240 O1258 2.373 1_545 S
Eu1240 O1261 2.488 . S
Eu1240 O1262 2.471 . S
Eu1240 O1263 2.349 . S
Eu1241 O1250 2.373 1_565 S
Eu1241 O1254 2.488 . S
Eu1241 O1255 2.471 . S
Eu1241 O1256 2.349 1_565 S
Eu1241 O1259 2.392 . S
Eu1241 O1260 2.413 1_565 S
Eu1241 C1270 2.828 . S
C1242 O1260 1.252 . S
C1242 O1263 1.265 . S
C1243 C1244 1.379 . S
C1243 C1247 1.373 . S
C1243 C1249 1.505 . S
C1244 C1243 1.379 . S
C1244 C1246 1.369 1_545 S
C1244 H1272 0.937 . S
C1245 C1247 1.383 . S
C1245 C1248 1.382 . S
C1245 H1273 0.930 . S
C1246 C1244 1.369 1_565 S
C1246 C1248 1.392 1_565 S
C1246 H1274 0.930 . S
C1247 C1243 1.373 . S
C1247 C1245 1.383 . S
C1247 H1275 0.931 . S
C1248 C1245 1.382 . S
C1248 C1246 1.392 1_545 S
C1249 Eu1240 2.828 . S
C1249 C1243 1.505 . S
C1249 O1261 1.249 . S
C1249 O1262 1.244 . S
O1250 Eu1241 2.373 1_545 S
O1250 C1252 1.258 . S
O1251 Eu1240 2.392 . S
O1251 C1252 1.242 . S
C1252 O1250 1.258 . S
C1252 O1251 1.242 . S
O1253 Eu1240 2.418 . S
O1253 C1257 1.244 . S
O1254 Eu1241 2.488 . S
O1254 C1270 1.249 . S
O1255 Eu1241 2.471 . S
O1255 C1270 1.244 . S
O1256 Eu1241 2.349 1_545 S
O1256 C1257 1.265 . S
C1257 O1253 1.244 . S
C1257 O1256 1.265 . S
O1258 Eu1240 2.373 1_565 S
O1258 C1271 1.258 . S
O1259 Eu1241 2.392 . S
O1259 C1271 1.242 . S
O1260 Eu1241 2.413 1_545 S
O1260 C1242 1.252 . S
O1261 Eu1240 2.488 . S
O1261 C1249 1.249 . S
O1262 Eu1240 2.471 . S
O1262 C1249 1.244 . S
O1263 Eu1240 2.349 . S
O1263 C1242 1.265 . S
C1264 C1265 1.380 . S
C1264 C1268 1.373 1_445 S
C1264 C1270 1.505 1_545 S
C1265 C1264 1.380 . S
C1265 C1267 1.367 1_455 S
C1265 H1276 0.931 . S
C1266 C1268 1.383 1_545 S
C1266 C1269 1.382 . S
C1266 H1277 0.931 . S
C1267 C1265 1.367 1_655 S
C1267 C1269 1.392 . S
C1267 H1278 0.930 . S
C1268 C1264 1.373 1_665 S
C1268 C1266 1.383 1_565 S
C1268 H1279 0.931 1_655 S
C1269 C1266 1.382 . S
C1269 C1267 1.392 . S
C1270 Eu1241 2.828 . S
C1270 O1254 1.249 . S
C1270 O1255 1.244 . S
C1270 C1264 1.505 1_565 S
C1271 O1258 1.258 . S
C1271 O1259 1.242 . S
H1272 C1244 0.937 . S
H1273 C1245 0.930 . S
H1274 C1246 0.930 . S
H1275 C1247 0.931 . S
H1276 C1265 0.931 . S
H1277 C1266 0.931 . S
H1278 C1267 0.930 . S
H1279 C1268 0.931 1_455 S
C1280 C1281 1.387 . S
C1280 H1284 0.950 . S
C1280 C1289 1.390 . S
C1281 C1280 1.387 . S
C1281 C1283 1.387 . S
H1282 C1289 0.950 . S
C1283 C1281 1.387 . S
C1283 C1285 1.390 . S
C1283 H1287 0.950 . S
H1284 C1280 0.950 . S
C1285 C1283 1.390 . S
C1285 C1286 1.387 . S
C1285 H1288 0.950 . S
C1286 C1285 1.387 . S
C1286 C1289 1.387 . S
H1287 C1283 0.950 . S
H1288 C1285 0.950 . S
C1289 C1280 1.390 . S
C1289 H1282 0.950 . S
C1289 C1286 1.387 . S
C1290 C1291 1.387 . S
C1290 H1294 0.950 . S
C1290 C1299 1.390 . S
C1291 C1290 1.387 . S
C1291 C1293 1.387 . S
H1292 C1299 0.950 . S
C1293 C1291 1.387 . S
C1293 C1295 1.390 . S
C1293 H1297 0.950 . S
H1294 C1290 0.950 . S
C1295 C1293 1.390 . S
C1295 C1296 1.387 . S
C1295 H1298 0.950 . S
C1296 C1295 1.387 . S
C1296 C1299 1.387 . S
H1297 C1293 0.950 . S
H1298 C1295 0.950 . S
C1299 C1290 1.390 . S
C1299 H1292 0.950 . S
C1299 C1296 1.387 . S
C1300 C1301 1.387 . S
C1300 H1304 0.950 . S
C1300 C1309 1.390 . S
C1301 C1300 1.387 . S
C1301 C1303 1.387 . S
H1302 C1309 0.950 . S
C1303 C1301 1.387 . S
C1303 C1305 1.390 . S
C1303 H1307 0.950 . S
H1304 C1300 0.950 . S
C1305 C1303 1.390 . S
C1305 C1306 1.387 . S
C1305 H1308 0.950 . S
C1306 C1305 1.387 . S
C1306 C1309 1.387 . S
H1307 C1303 0.950 . S
H1308 C1305 0.950 . S
C1309 C1300 1.390 . S
C1309 H1302 0.950 . S
C1309 C1306 1.387 . S
C1310 C1311 1.387 . S
C1310 H1314 0.950 . S
C1310 C1319 1.390 . S
C1311 C1310 1.387 . S
C1311 C1313 1.387 . S
H1312 C1319 0.950 . S
C1313 C1311 1.387 . S
C1313 C1315 1.390 . S
C1313 H1317 0.950 . S
H1314 C1310 0.950 . S
C1315 C1313 1.390 . S
C1315 C1316 1.387 . S
C1315 H1318 0.950 . S
C1316 C1315 1.387 . S
C1316 C1319 1.387 . S
H1317 C1313 0.950 . S
H1318 C1315 0.950 . S
C1319 C1310 1.390 . S
C1319 H1312 0.950 . S
C1319 C1316 1.387 . S
C1320 C1321 1.387 . S
C1320 H1324 0.950 . S
C1320 C1329 1.390 . S
C1321 C1320 1.387 . S
C1321 C1323 1.387 . S
H1322 C1329 0.950 . S
C1323 C1321 1.387 . S
C1323 C1325 1.390 . S
C1323 H1327 0.950 . S
H1324 C1320 0.950 . S
C1325 C1323 1.390 . S
C1325 C1326 1.387 . S
C1325 H1328 0.950 . S
C1326 C1325 1.387 . S
C1326 C1329 1.387 . S
H1327 C1323 0.950 . S
H1328 C1325 0.950 . S
C1329 C1320 1.390 . S
C1329 H1322 0.950 . S
C1329 C1326 1.387 . S
C1330 C1331 1.387 . S
C1330 H1334 0.950 . S
C1330 C1339 1.390 . S
C1331 C1330 1.387 . S
C1331 C1333 1.387 . S
H1332 C1339 0.950 . S
C1333 C1331 1.387 . S
C1333 C1335 1.390 . S
C1333 H1337 0.950 . S
H1334 C1330 0.950 . S
C1335 C1333 1.390 . S
C1335 C1336 1.387 . S
C1335 H1338 0.950 . S
C1336 C1335 1.387 . S
C1336 C1339 1.387 . S
H1337 C1333 0.950 . S
H1338 C1335 0.950 . S
C1339 C1330 1.390 . S
C1339 H1332 0.950 . S
C1339 C1336 1.387 . S
C1340 C1341 1.387 . S
C1340 H1344 0.950 . S
C1340 C1349 1.390 . S
C1341 C1340 1.387 . S
C1341 C1343 1.387 . S
H1342 C1349 0.950 . S
C1343 C1341 1.387 . S
C1343 C1345 1.390 . S
C1343 H1347 0.950 . S
H1344 C1340 0.950 . S
C1345 C1343 1.390 . S
C1345 C1346 1.387 . S
C1345 H1348 0.950 . S
C1346 C1345 1.387 . S
C1346 C1349 1.387 . S
H1347 C1343 0.950 . S
H1348 C1345 0.950 . S
C1349 C1340 1.390 . S
C1349 H1342 0.950 . S
C1349 C1346 1.387 . S
C1350 C1351 1.387 . S
C1350 H1354 0.950 . S
C1350 C1359 1.390 . S
C1351 C1350 1.387 . S
C1351 C1353 1.387 . S
H1352 C1359 0.950 . S
C1353 C1351 1.387 . S
C1353 C1355 1.390 . S
C1353 H1357 0.950 . S
H1354 C1350 0.950 . S
C1355 C1353 1.390 . S
C1355 C1356 1.387 . S
C1355 H1358 0.950 . S
C1356 C1355 1.387 . S
C1356 C1359 1.387 . S
H1357 C1353 0.950 . S
H1358 C1355 0.950 . S
C1359 C1350 1.390 . S
C1359 H1352 0.950 . S
C1359 C1356 1.387 . S
C1360 C1361 1.387 . S
C1360 H1364 0.950 . S
C1360 C1369 1.390 . S
C1361 C1360 1.387 . S
C1361 C1363 1.387 . S
H1362 C1369 0.950 . S
C1363 C1361 1.387 . S
C1363 C1365 1.390 . S
C1363 H1367 0.950 . S
H1364 C1360 0.950 . S
C1365 C1363 1.390 . S
C1365 C1366 1.387 . S
C1365 H1368 0.950 . S
C1366 C1365 1.387 . S
C1366 C1369 1.387 . S
H1367 C1363 0.950 . S
H1368 C1365 0.950 . S
C1369 C1360 1.390 . S
C1369 H1362 0.950 . S
C1369 C1366 1.387 . S
C1370 C1371 1.387 . S
C1370 H1374 0.950 . S
C1370 C1379 1.390 . S
C1371 C1370 1.387 . S
C1371 C1373 1.387 . S
H1372 C1379 0.950 . S
C1373 C1371 1.387 . S
C1373 C1375 1.390 . S
C1373 H1377 0.950 . S
H1374 C1370 0.950 . S
C1375 C1373 1.390 . S
C1375 C1376 1.387 . S
C1375 H1378 0.950 . S
C1376 C1375 1.387 . S
C1376 C1379 1.387 . S
H1377 C1373 0.950 . S
H1378 C1375 0.950 . S
C1379 C1370 1.390 . S
C1379 H1372 0.950 . S
C1379 C1376 1.387 . S
C1380 C1381 1.387 . S
C1380 H1384 0.950 . S
C1380 C1389 1.390 . S
C1381 C1380 1.387 . S
C1381 C1383 1.387 . S
H1382 C1389 0.950 . S
C1383 C1381 1.387 . S
C1383 C1385 1.390 . S
C1383 H1387 0.950 . S
H1384 C1380 0.950 . S
C1385 C1383 1.390 . S
C1385 C1386 1.387 . S
C1385 H1388 0.950 . S
C1386 C1385 1.387 . S
C1386 C1389 1.387 . S
H1387 C1383 0.950 . S
H1388 C1385 0.950 . S
C1389 C1380 1.390 . S
C1389 H1382 0.950 . S
C1389 C1386 1.387 . S
C1390 C1391 1.387 . S
C1390 H1394 0.950 . S
C1390 C1399 1.390 . S
C1391 C1390 1.387 . S
C1391 C1393 1.387 . S
H1392 C1399 0.950 . S
C1393 C1391 1.387 . S
C1393 C1395 1.390 . S
C1393 H1397 0.950 . S
H1394 C1390 0.950 . S
C1395 C1393 1.390 . S
C1395 C1396 1.387 . S
C1395 H1398 0.950 . S
C1396 C1395 1.387 . S
C1396 C1399 1.387 . S
H1397 C1393 0.950 . S
H1398 C1395 0.950 . S
C1399 C1390 1.390 . S
C1399 H1392 0.950 . S
C1399 C1396 1.387 . S
C1400 C1401 1.387 . S
C1400 H1404 0.950 . S
C1400 C1409 1.390 . S
C1401 C1400 1.387 . S
C1401 C1403 1.387 . S
H1402 C1409 0.950 . S
C1403 C1401 1.387 . S
C1403 C1405 1.390 . S
C1403 H1407 0.950 . S
H1404 C1400 0.950 . S
C1405 C1403 1.390 . S
C1405 C1406 1.387 . S
C1405 H1408 0.950 . S
C1406 C1405 1.387 . S
C1406 C1409 1.387 . S
H1407 C1403 0.950 . S
H1408 C1405 0.950 . S
C1409 C1400 1.390 . S
C1409 H1402 0.950 . S
C1409 C1406 1.387 . S
C1410 C1411 1.387 . S
C1410 H1414 0.950 . S
C1410 C1419 1.390 . S
C1411 C1410 1.387 . S
C1411 C1413 1.387 . S
H1412 C1419 0.950 . S
C1413 C1411 1.387 . S
C1413 C1415 1.390 . S
C1413 H1417 0.950 . S
H1414 C1410 0.950 . S
C1415 C1413 1.390 . S
C1415 C1416 1.387 . S
C1415 H1418 0.950 . S
C1416 C1415 1.387 . S
C1416 C1419 1.387 . S
H1417 C1413 0.950 . S
H1418 C1415 0.950 . S
C1419 C1410 1.390 . S
C1419 H1412 0.950 . S
C1419 C1416 1.387 . S
C1420 C1421 1.387 . S
C1420 H1424 0.950 . S
C1420 C1429 1.390 . S
C1421 C1420 1.387 . S
C1421 C1423 1.387 . S
H1422 C1429 0.950 . S
C1423 C1421 1.387 . S
C1423 C1425 1.390 . S
C1423 H1427 0.950 . S
H1424 C1420 0.950 . S
C1425 C1423 1.390 . S
C1425 C1426 1.387 . S
C1425 H1428 0.950 . S
C1426 C1425 1.387 . S
C1426 C1429 1.387 . S
H1427 C1423 0.950 . S
H1428 C1425 0.950 . S
C1429 C1420 1.390 . S
C1429 H1422 0.950 . S
C1429 C1426 1.387 . S
C1430 C1431 1.387 . S
C1430 H1434 0.950 . S
C1430 C1439 1.390 . S
C1431 C1430 1.387 . S
C1431 C1433 1.387 . S
H1432 C1439 0.950 . S
C1433 C1431 1.387 . S
C1433 C1435 1.390 . S
C1433 H1437 0.950 . S
H1434 C1430 0.950 . S
C1435 C1433 1.390 . S
C1435 C1436 1.387 . S
C1435 H1438 0.950 . S
C1436 C1435 1.387 . S
C1436 C1439 1.387 . S
H1437 C1433 0.950 . S
H1438 C1435 0.950 . S
C1439 C1430 1.390 . S
C1439 H1432 0.950 . S
C1439 C1436 1.387 . S
C1440 C1441 1.387 . S
C1440 H1444 0.950 . S
C1440 C1449 1.390 . S
C1441 C1440 1.387 . S
C1441 C1443 1.387 . S
H1442 C1449 0.950 . S
C1443 C1441 1.387 . S
C1443 C1445 1.390 . S
C1443 H1447 0.950 . S
H1444 C1440 0.950 . S
C1445 C1443 1.390 . S
C1445 C1446 1.387 . S
C1445 H1448 0.950 . S
C1446 C1445 1.387 . S
C1446 C1449 1.387 . S
H1447 C1443 0.950 . S
H1448 C1445 0.950 . S
C1449 C1440 1.390 . S
C1449 H1442 0.950 . S
C1449 C1446 1.387 . S
C1450 C1451 1.387 . S
C1450 H1454 0.950 . S
C1450 C1459 1.390 . S
C1451 C1450 1.387 . S
C1451 C1453 1.387 . S
H1452 C1459 0.950 . S
C1453 C1451 1.387 . S
C1453 C1455 1.390 . S
C1453 H1457 0.950 . S
H1454 C1450 0.950 . S
C1455 C1453 1.390 . S
C1455 C1456 1.387 . S
C1455 H1458 0.950 . S
C1456 C1455 1.387 . S
C1456 C1459 1.387 . S
H1457 C1453 0.950 . S
H1458 C1455 0.950 . S
C1459 C1450 1.390 . S
C1459 H1452 0.950 . S
C1459 C1456 1.387 . S
C1460 C1461 1.387 . S
C1460 H1464 0.950 . S
C1460 C1469 1.390 . S
C1461 C1460 1.387 . S
C1461 C1463 1.387 . S
H1462 C1469 0.950 . S
C1463 C1461 1.387 . S
C1463 C1465 1.390 . S
C1463 H1467 0.950 . S
H1464 C1460 0.950 . S
C1465 C1463 1.390 . S
C1465 C1466 1.387 . S
C1465 H1468 0.950 . S
C1466 C1465 1.387 . S
C1466 C1469 1.387 . S
H1467 C1463 0.950 . S
H1468 C1465 0.950 . S
C1469 C1460 1.390 . S
C1469 H1462 0.950 . S
C1469 C1466 1.387 . S
C1470 C1471 1.387 . S
C1470 H1474 0.950 . S
C1470 C1479 1.390 . S
C1471 C1470 1.387 . S
C1471 C1473 1.387 . S
H1472 C1479 0.950 . S
C1473 C1471 1.387 . S
C1473 C1475 1.390 . S
C1473 H1477 0.950 . S
H1474 C1470 0.950 . S
C1475 C1473 1.390 . S
C1475 C1476 1.387 . S
C1475 H1478 0.950 . S
C1476 C1475 1.387 . S
C1476 C1479 1.387 . S
H1477 C1473 0.950 . S
H1478 C1475 0.950 . S
C1479 C1470 1.390 . S
C1479 H1472 0.950 . S
C1479 C1476 1.387 . S
C1480 C1481 1.387 1_545 S
C1480 H1484 0.950 . S
C1480 C1489 1.390 . S
C1481 C1480 1.387 1_565 S
C1481 C1483 1.387 . S
H1482 C1489 0.950 . S
C1483 C1481 1.387 . S
C1483 C1485 1.390 . S
C1483 H1487 0.950 . S
H1484 C1480 0.950 . S
C1485 C1483 1.390 . S
C1485 C1486 1.387 . S
C1485 H1488 0.950 . S
C1486 C1485 1.387 . S
C1486 C1489 1.387 1_565 S
H1487 C1483 0.950 . S
H1488 C1485 0.950 . S
C1489 C1480 1.390 . S
C1489 H1482 0.950 . S
C1489 C1486 1.387 1_545 S
C1490 C1491 1.387 . S
C1490 H1494 0.950 . S
C1490 C1499 1.390 . S
C1491 C1490 1.387 . S
C1491 C1493 1.387 . S
H1492 C1499 0.950 . S
C1493 C1491 1.387 . S
C1493 C1495 1.390 . S
C1493 H1497 0.950 . S
H1494 C1490 0.950 . S
C1495 C1493 1.390 . S
C1495 C1496 1.387 . S
C1495 H1498 0.950 . S
C1496 C1495 1.387 . S
C1496 C1499 1.387 . S
H1497 C1493 0.950 . S
H1498 C1495 0.950 . S
C1499 C1490 1.390 . S
C1499 H1492 0.950 . S
C1499 C1496 1.387 . S
C1500 C1501 1.387 . S
C1500 H1504 0.950 . S
C1500 C1509 1.390 . S
C1501 C1500 1.387 . S
C1501 C1503 1.387 1_545 S
H1502 C1509 0.950 . S
C1503 C1501 1.387 1_565 S
C1503 C1505 1.390 . S
C1503 H1507 0.950 . S
H1504 C1500 0.950 . S
C1505 C1503 1.390 . S
C1505 C1506 1.387 1_565 S
C1505 H1508 0.950 . S
C1506 C1505 1.387 1_545 S
C1506 C1509 1.387 . S
H1507 C1503 0.950 . S
H1508 C1505 0.950 . S
C1509 C1500 1.390 . S
C1509 H1502 0.950 . S
C1509 C1506 1.387 . S
C1510 C1511 1.387 . S
C1510 H1514 0.950 . S
C1510 C1519 1.390 . S
C1511 C1510 1.387 . S
C1511 C1513 1.387 . S
H1512 C1519 0.950 . S
C1513 C1511 1.387 . S
C1513 C1515 1.390 . S
C1513 H1517 0.950 . S
H1514 C1510 0.950 . S
C1515 C1513 1.390 . S
C1515 C1516 1.387 . S
C1515 H1518 0.950 . S
C1516 C1515 1.387 . S
C1516 C1519 1.387 . S
H1517 C1513 0.950 . S
H1518 C1515 0.950 . S
C1519 C1510 1.390 . S
C1519 H1512 0.950 . S
C1519 C1516 1.387 . S
C1520 C1521 1.387 . S
C1520 H1524 0.950 . S
C1520 C1529 1.390 . S
C1521 C1520 1.387 . S
C1521 C1523 1.387 . S
H1522 C1529 0.950 . S
C1523 C1521 1.387 . S
C1523 C1525 1.390 . S
C1523 H1527 0.950 . S
H1524 C1520 0.950 . S
C1525 C1523 1.390 . S
C1525 C1526 1.387 . S
C1525 H1528 0.950 . S
C1526 C1525 1.387 . S
C1526 C1529 1.387 . S
H1527 C1523 0.950 . S
H1528 C1525 0.950 . S
C1529 C1520 1.390 . S
C1529 H1522 0.950 . S
C1529 C1526 1.387 . S
C1530 C1531 1.387 . S
C1530 H1534 0.950 . S
C1530 C1539 1.390 . S
C1531 C1530 1.387 . S
C1531 C1533 1.387 . S
H1532 C1539 0.950 . S
C1533 C1531 1.387 . S
C1533 C1535 1.390 . S
C1533 H1537 0.950 . S
H1534 C1530 0.950 . S
C1535 C1533 1.390 . S
C1535 C1536 1.387 . S
C1535 H1538 0.950 . S
C1536 C1535 1.387 . S
C1536 C1539 1.387 . S
H1537 C1533 0.950 . S
H1538 C1535 0.950 . S
C1539 C1530 1.390 . S
C1539 H1532 0.950 . S
C1539 C1536 1.387 . S
C1540 C1541 1.387 . S
C1540 H1544 0.950 . S
C1540 C1549 1.390 . S
C1541 C1540 1.387 . S
C1541 C1543 1.387 . S
H1542 C1549 0.950 . S
C1543 C1541 1.387 . S
C1543 C1545 1.390 . S
C1543 H1547 0.950 . S
H1544 C1540 0.950 . S
C1545 C1543 1.390 . S
C1545 C1546 1.387 . S
C1545 H1548 0.950 . S
C1546 C1545 1.387 . S
C1546 C1549 1.387 . S
H1547 C1543 0.950 . S
H1548 C1545 0.950 . S
C1549 C1540 1.390 . S
C1549 H1542 0.950 . S
C1549 C1546 1.387 . S
C1550 C1551 1.387 . S
C1550 H1554 0.950 . S
C1550 C1559 1.390 . S
C1551 C1550 1.387 . S
C1551 C1553 1.387 . S
H1552 C1559 0.950 . S
C1553 C1551 1.387 . S
C1553 C1555 1.390 . S
C1553 H1557 0.950 . S
H1554 C1550 0.950 . S
C1555 C1553 1.390 . S
C1555 C1556 1.387 . S
C1555 H1558 0.950 . S
C1556 C1555 1.387 . S
C1556 C1559 1.387 . S
H1557 C1553 0.950 . S
H1558 C1555 0.950 . S
C1559 C1550 1.390 . S
C1559 H1552 0.950 . S
C1559 C1556 1.387 . S
C1560 C1561 1.387 1_545 S
C1560 H1564 0.950 . S
C1560 C1569 1.390 . S
C1561 C1560 1.387 1_565 S
C1561 C1563 1.387 . S
H1562 C1569 0.950 . S
C1563 C1561 1.387 . S
C1563 C1565 1.390 . S
C1563 H1567 0.950 . S
H1564 C1560 0.950 . S
C1565 C1563 1.390 . S
C1565 C1566 1.387 . S
C1565 H1568 0.950 . S
C1566 C1565 1.387 . S
C1566 C1569 1.387 1_565 S
H1567 C1563 0.950 . S
H1568 C1565 0.950 . S
C1569 C1560 1.390 . S
C1569 H1562 0.950 . S
C1569 C1566 1.387 1_545 S
C1570 C1571 1.387 . S
C1570 H1574 0.950 . S
C1570 C1579 1.390 . S
C1571 C1570 1.387 . S
C1571 C1573 1.387 . S
H1572 C1579 0.950 . S
C1573 C1571 1.387 . S
C1573 C1575 1.390 . S
C1573 H1577 0.950 . S
H1574 C1570 0.950 . S
C1575 C1573 1.390 . S
C1575 C1576 1.387 . S
C1575 H1578 0.950 . S
C1576 C1575 1.387 . S
C1576 C1579 1.387 . S
H1577 C1573 0.950 . S
H1578 C1575 0.950 . S
C1579 C1570 1.390 . S
C1579 H1572 0.950 . S
C1579 C1576 1.387 . S
C1580 C1581 1.387 . S
C1580 H1584 0.950 . S
C1580 C1589 1.390 . S
C1581 C1580 1.387 . S
C1581 C1583 1.387 1_545 S
H1582 C1589 0.950 . S
C1583 C1581 1.387 1_565 S
C1583 C1585 1.390 . S
C1583 H1587 0.950 . S
H1584 C1580 0.950 . S
C1585 C1583 1.390 . S
C1585 C1586 1.387 1_565 S
C1585 H1588 0.950 . S
C1586 C1585 1.387 1_545 S
C1586 C1589 1.387 . S
H1587 C1583 0.950 . S
H1588 C1585 0.950 . S
C1589 C1580 1.390 . S
C1589 H1582 0.950 . S
C1589 C1586 1.387 . S
C1590 C1591 1.387 . S
C1590 H1594 0.950 . S
C1590 C1599 1.390 . S
C1591 C1590 1.387 . S
C1591 C1593 1.387 . S
H1592 C1599 0.950 . S
C1593 C1591 1.387 . S
C1593 C1595 1.390 . S
C1593 H1597 0.950 . S
H1594 C1590 0.950 . S
C1595 C1593 1.390 . S
C1595 C1596 1.387 . S
C1595 H1598 0.950 . S
C1596 C1595 1.387 . S
C1596 C1599 1.387 . S
H1597 C1593 0.950 . S
H1598 C1595 0.950 . S
C1599 C1590 1.390 . S
C1599 H1592 0.950 . S
C1599 C1596 1.387 . S
C1600 C1601 1.387 . S
C1600 H1604 0.950 . S
C1600 C1609 1.390 . S
C1601 C1600 1.387 . S
C1601 C1603 1.387 . S
H1602 C1609 0.950 . S
C1603 C1601 1.387 . S
C1603 C1605 1.390 . S
C1603 H1607 0.950 . S
H1604 C1600 0.950 . S
C1605 C1603 1.390 . S
C1605 C1606 1.387 . S
C1605 H1608 0.950 . S
C1606 C1605 1.387 . S
C1606 C1609 1.387 . S
H1607 C1603 0.950 . S
H1608 C1605 0.950 . S
C1609 C1600 1.390 . S
C1609 H1602 0.950 . S
C1609 C1606 1.387 . S
C1610 C1611 1.387 . S
C1610 H1614 0.950 . S
C1610 C1619 1.390 . S
C1611 C1610 1.387 . S
C1611 C1613 1.387 . S
H1612 C1619 0.950 . S
C1613 C1611 1.387 . S
C1613 C1615 1.390 . S
C1613 H1617 0.950 . S
H1614 C1610 0.950 . S
C1615 C1613 1.390 . S
C1615 C1616 1.387 . S
C1615 H1618 0.950 . S
C1616 C1615 1.387 . S
C1616 C1619 1.387 . S
H1617 C1613 0.950 . S
H1618 C1615 0.950 . S
C1619 C1610 1.390 . S
C1619 H1612 0.950 . S
C1619 C1616 1.387 . S
C1620 C1621 1.387 . S
C1620 H1624 0.950 . S
C1620 C1629 1.390 . S
C1621 C1620 1.387 . S
C1621 C1623 1.387 . S
H1622 C1629 0.950 . S
C1623 C1621 1.387 . S
C1623 C1625 1.390 . S
C1623 H1627 0.950 . S
H1624 C1620 0.950 . S
C1625 C1623 1.390 . S
C1625 C1626 1.387 . S
C1625 H1628 0.950 . S
C1626 C1625 1.387 . S
C1626 C1629 1.387 . S
H1627 C1623 0.950 . S
H1628 C1625 0.950 . S
C1629 C1620 1.390 . S
C1629 H1622 0.950 . S
C1629 C1626 1.387 . S
C1630 C1631 1.387 . S
C1630 H1634 0.950 . S
C1630 C1639 1.390 . S
C1631 C1630 1.387 . S
C1631 C1633 1.387 . S
H1632 C1639 0.950 . S
C1633 C1631 1.387 . S
C1633 C1635 1.390 . S
C1633 H1637 0.950 . S
H1634 C1630 0.950 . S
C1635 C1633 1.390 . S
C1635 C1636 1.387 . S
C1635 H1638 0.950 . S
C1636 C1635 1.387 . S
C1636 C1639 1.387 . S
H1637 C1633 0.950 . S
H1638 C1635 0.950 . S
C1639 C1630 1.390 . S
C1639 H1632 0.950 . S
C1639 C1636 1.387 . S
C1640 C1641 1.387 . S
C1640 H1644 0.950 . S
C1640 C1649 1.390 . S
C1641 C1640 1.387 . S
C1641 C1643 1.387 . S
H1642 C1649 0.950 . S
C1643 C1641 1.387 . S
C1643 C1645 1.390 . S
C1643 H1647 0.950 . S
H1644 C1640 0.950 . S
C1645 C1643 1.390 . S
C1645 C1646 1.387 . S
C1645 H1648 0.950 . S
C1646 C1645 1.387 . S
C1646 C1649 1.387 . S
H1647 C1643 0.950 . S
H1648 C1645 0.950 . S
C1649 C1640 1.390 . S
C1649 H1642 0.950 . S
C1649 C1646 1.387 . S
C1650 C1651 1.387 . S
C1650 H1654 0.950 . S
C1650 C1659 1.390 . S
C1651 C1650 1.387 . S
C1651 C1653 1.387 . S
H1652 C1659 0.950 . S
C1653 C1651 1.387 . S
C1653 C1655 1.390 . S
C1653 H1657 0.950 . S
H1654 C1650 0.950 . S
C1655 C1653 1.390 . S
C1655 C1656 1.387 . S
C1655 H1658 0.950 . S
C1656 C1655 1.387 . S
C1656 C1659 1.387 . S
H1657 C1653 0.950 . S
H1658 C1655 0.950 . S
C1659 C1650 1.390 . S
C1659 H1652 0.950 . S
C1659 C1656 1.387 . S
C1660 C1661 1.387 . S
C1660 H1664 0.950 . S
C1660 C1669 1.390 . S
C1661 C1660 1.387 . S
C1661 C1663 1.387 . S
H1662 C1669 0.950 . S
C1663 C1661 1.387 . S
C1663 C1665 1.390 . S
C1663 H1667 0.950 . S
H1664 C1660 0.950 . S
C1665 C1663 1.390 . S
C1665 C1666 1.387 . S
C1665 H1668 0.950 . S
C1666 C1665 1.387 . S
C1666 C1669 1.387 . S
H1667 C1663 0.950 . S
H1668 C1665 0.950 . S
C1669 C1660 1.390 . S
C1669 H1662 0.950 . S
C1669 C1666 1.387 . S
C1670 C1671 1.387 . S
C1670 H1674 0.950 . S
C1670 C1679 1.390 . S
C1671 C1670 1.387 . S
C1671 C1673 1.387 . S
H1672 C1679 0.950 . S
C1673 C1671 1.387 . S
C1673 C1675 1.390 . S
C1673 H1677 0.950 . S
H1674 C1670 0.950 . S
C1675 C1673 1.390 . S
C1675 C1676 1.387 . S
C1675 H1678 0.950 . S
C1676 C1675 1.387 . S
C1676 C1679 1.387 . S
H1677 C1673 0.950 . S
H1678 C1675 0.950 . S
C1679 C1670 1.390 . S
C1679 H1672 0.950 . S
C1679 C1676 1.387 . S
C1680 C1681 1.387 . S
C1680 H1684 0.950 . S
C1680 C1689 1.390 . S
C1681 C1680 1.387 . S
C1681 C1683 1.387 . S
H1682 C1689 0.950 . S
C1683 C1681 1.387 . S
C1683 C1685 1.390 . S
C1683 H1687 0.950 . S
H1684 C1680 0.950 . S
C1685 C1683 1.390 . S
C1685 C1686 1.387 . S
C1685 H1688 0.950 . S
C1686 C1685 1.387 . S
C1686 C1689 1.387 . S
H1687 C1683 0.950 . S
H1688 C1685 0.950 . S
C1689 C1680 1.390 . S
C1689 H1682 0.950 . S
C1689 C1686 1.387 . S
C1690 C1691 1.387 . S
C1690 H1694 0.950 . S
C1690 C1699 1.390 . S
C1691 C1690 1.387 . S
C1691 C1693 1.387 . S
H1692 C1699 0.950 . S
C1693 C1691 1.387 . S
C1693 C1695 1.390 . S
C1693 H1697 0.950 . S
H1694 C1690 0.950 . S
C1695 C1693 1.390 . S
C1695 C1696 1.387 . S
C1695 H1698 0.950 . S
C1696 C1695 1.387 . S
C1696 C1699 1.387 . S
H1697 C1693 0.950 . S
H1698 C1695 0.950 . S
C1699 C1690 1.390 . S
C1699 H1692 0.950 . S
C1699 C1696 1.387 . S
C1700 C1701 1.387 . S
C1700 H1704 0.950 . S
C1700 C1709 1.390 . S
C1701 C1700 1.387 . S
C1701 C1703 1.387 . S
H1702 C1709 0.950 . S
C1703 C1701 1.387 . S
C1703 C1705 1.390 . S
C1703 H1707 0.950 . S
H1704 C1700 0.950 . S
C1705 C1703 1.390 . S
C1705 C1706 1.387 . S
C1705 H1708 0.950 . S
C1706 C1705 1.387 . S
C1706 C1709 1.387 . S
H1707 C1703 0.950 . S
H1708 C1705 0.950 . S
C1709 C1700 1.390 . S
C1709 H1702 0.950 . S
C1709 C1706 1.387 . S
C1710 C1711 1.387 . S
C1710 H1714 0.950 . S
C1710 C1719 1.390 . S
C1711 C1710 1.387 . S
C1711 C1713 1.387 . S
H1712 C1719 0.950 . S
C1713 C1711 1.387 . S
C1713 C1715 1.390 . S
C1713 H1717 0.950 . S
H1714 C1710 0.950 . S
C1715 C1713 1.390 . S
C1715 C1716 1.387 . S
C1715 H1718 0.950 . S
C1716 C1715 1.387 . S
C1716 C1719 1.387 . S
H1717 C1713 0.950 . S
H1718 C1715 0.950 . S
C1719 C1710 1.390 . S
C1719 H1712 0.950 . S
C1719 C1716 1.387 . S
C1720 C1721 1.387 . S
C1720 H1724 0.950 . S
C1720 C1729 1.390 . S
C1721 C1720 1.387 . S
C1721 C1723 1.387 . S
H1722 C1729 0.950 . S
C1723 C1721 1.387 . S
C1723 C1725 1.390 . S
C1723 H1727 0.950 . S
H1724 C1720 0.950 . S
C1725 C1723 1.390 . S
C1725 C1726 1.387 . S
C1725 H1728 0.950 . S
C1726 C1725 1.387 . S
C1726 C1729 1.387 . S
H1727 C1723 0.950 . S
H1728 C1725 0.950 . S
C1729 C1720 1.390 . S
C1729 H1722 0.950 . S
C1729 C1726 1.387 . S
C1730 C1731 1.387 . S
C1730 H1734 0.950 . S
C1730 C1739 1.390 . S
C1731 C1730 1.387 . S
C1731 C1733 1.387 . S
H1732 C1739 0.950 . S
C1733 C1731 1.387 . S
C1733 C1735 1.390 . S
C1733 H1737 0.950 . S
H1734 C1730 0.950 . S
C1735 C1733 1.390 . S
C1735 C1736 1.387 . S
C1735 H1738 0.950 . S
C1736 C1735 1.387 . S
C1736 C1739 1.387 . S
H1737 C1733 0.950 . S
H1738 C1735 0.950 . S
C1739 C1730 1.390 . S
C1739 H1732 0.950 . S
C1739 C1736 1.387 . S
C1740 C1741 1.387 . S
C1740 H1744 0.950 . S
C1740 C1749 1.390 . S
C1741 C1740 1.387 . S
C1741 C1743 1.387 . S
H1742 C1749 0.950 . S
C1743 C1741 1.387 . S
C1743 C1745 1.390 . S
C1743 H1747 0.950 . S
H1744 C1740 0.950 . S
C1745 C1743 1.390 . S
C1745 C1746 1.387 . S
C1745 H1748 0.950 . S
C1746 C1745 1.387 . S
C1746 C1749 1.387 . S
H1747 C1743 0.950 . S
H1748 C1745 0.950 . S
C1749 C1740 1.390 . S
C1749 H1742 0.950 . S
C1749 C1746 1.387 . S
C1750 C1751 1.387 . S
C1750 H1754 0.950 . S
C1750 C1759 1.390 . S
C1751 C1750 1.387 . S
C1751 C1753 1.387 . S
H1752 C1759 0.950 . S
C1753 C1751 1.387 . S
C1753 C1755 1.390 . S
C1753 H1757 0.950 . S
H1754 C1750 0.950 . S
C1755 C1753 1.390 . S
C1755 C1756 1.387 . S
C1755 H1758 0.950 . S
C1756 C1755 1.387 . S
C1756 C1759 1.387 . S
H1757 C1753 0.950 . S
H1758 C1755 0.950 . S
C1759 C1750 1.390 . S
C1759 H1752 0.950 . S
C1759 C1756 1.387 . S
C1760 C1761 1.387 . S
C1760 H1764 0.950 . S
C1760 C1769 1.390 . S
C1761 C1760 1.387 . S
C1761 C1763 1.387 . S
H1762 C1769 0.950 . S
C1763 C1761 1.387 . S
C1763 C1765 1.390 . S
C1763 H1767 0.950 . S
H1764 C1760 0.950 . S
C1765 C1763 1.390 . S
C1765 C1766 1.387 . S
C1765 H1768 0.950 . S
C1766 C1765 1.387 . S
C1766 C1769 1.387 . S
H1767 C1763 0.950 . S
H1768 C1765 0.950 . S
C1769 C1760 1.390 . S
C1769 H1762 0.950 . S
C1769 C1766 1.387 . S
C1770 C1771 1.387 . S
C1770 H1774 0.950 . S
C1770 C1779 1.390 . S
C1771 C1770 1.387 . S
C1771 C1773 1.387 . S
H1772 C1779 0.950 . S
C1773 C1771 1.387 . S
C1773 C1775 1.390 . S
C1773 H1777 0.950 . S
H1774 C1770 0.950 . S
C1775 C1773 1.390 . S
C1775 C1776 1.387 . S
C1775 H1778 0.950 . S
C1776 C1775 1.387 . S
C1776 C1779 1.387 . S
H1777 C1773 0.950 . S
H1778 C1775 0.950 . S
C1779 C1770 1.390 . S
C1779 H1772 0.950 . S
C1779 C1776 1.387 . S
C1780 C1781 1.387 . S
C1780 H1784 0.950 . S
C1780 C1789 1.390 . S
C1781 C1780 1.387 . S
C1781 C1783 1.387 . S
H1782 C1789 0.950 . S
C1783 C1781 1.387 . S
C1783 C1785 1.390 . S
C1783 H1787 0.950 . S
H1784 C1780 0.950 . S
C1785 C1783 1.390 . S
C1785 C1786 1.387 . S
C1785 H1788 0.950 . S
C1786 C1785 1.387 . S
C1786 C1789 1.387 . S
H1787 C1783 0.950 . S
H1788 C1785 0.950 . S
C1789 C1780 1.390 . S
C1789 H1782 0.950 . S
C1789 C1786 1.387 . S
C1790 C1791 1.387 . S
C1790 H1794 0.950 . S
C1790 C1799 1.390 . S
C1791 C1790 1.387 . S
C1791 C1793 1.387 . S
H1792 C1799 0.950 . S
C1793 C1791 1.387 . S
C1793 C1795 1.390 . S
C1793 H1797 0.950 . S
H1794 C1790 0.950 . S
C1795 C1793 1.390 . S
C1795 C1796 1.387 . S
C1795 H1798 0.950 . S
C1796 C1795 1.387 . S
C1796 C1799 1.387 . S
H1797 C1793 0.950 . S
H1798 C1795 0.950 . S
C1799 C1790 1.390 . S
C1799 H1792 0.950 . S
C1799 C1796 1.387 . S
C1800 C1801 1.387 . S
C1800 H1804 0.950 . S
C1800 C1809 1.390 . S
C1801 C1800 1.387 . S
C1801 C1803 1.387 . S
H1802 C1809 0.950 . S
C1803 C1801 1.387 . S
C1803 C1805 1.390 . S
C1803 H1807 0.950 . S
H1804 C1800 0.950 . S
C1805 C1803 1.390 . S
C1805 C1806 1.387 . S
C1805 H1808 0.950 . S
C1806 C1805 1.387 . S
C1806 C1809 1.387 . S
H1807 C1803 0.950 . S
H1808 C1805 0.950 . S
C1809 C1800 1.390 . S
C1809 H1802 0.950 . S
C1809 C1806 1.387 . S
C1810 C1811 1.387 . S
C1810 H1814 0.950 . S
C1810 C1819 1.390 . S
C1811 C1810 1.387 . S
C1811 C1813 1.387 . S
H1812 C1819 0.950 . S
C1813 C1811 1.387 . S
C1813 C1815 1.390 . S
C1813 H1817 0.950 . S
H1814 C1810 0.950 . S
C1815 C1813 1.390 . S
C1815 C1816 1.387 . S
C1815 H1818 0.950 . S
C1816 C1815 1.387 . S
C1816 C1819 1.387 . S
H1817 C1813 0.950 . S
H1818 C1815 0.950 . S
C1819 C1810 1.390 . S
C1819 H1812 0.950 . S
C1819 C1816 1.387 . S
C1820 C1821 1.387 . S
C1820 H1824 0.950 . S
C1820 C1829 1.390 . S
C1821 C1820 1.387 . S
C1821 C1823 1.387 . S
H1822 C1829 0.950 . S
C1823 C1821 1.387 . S
C1823 C1825 1.390 . S
C1823 H1827 0.950 . S
H1824 C1820 0.950 . S
C1825 C1823 1.390 . S
C1825 C1826 1.387 . S
C1825 H1828 0.950 . S
C1826 C1825 1.387 . S
C1826 C1829 1.387 . S
H1827 C1823 0.950 . S
H1828 C1825 0.950 . S
C1829 C1820 1.390 . S
C1829 H1822 0.950 . S
C1829 C1826 1.387 . S
C1830 C1831 1.387 . S
C1830 H1834 0.950 . S
C1830 C1839 1.390 . S
C1831 C1830 1.387 . S
C1831 C1833 1.387 . S
H1832 C1839 0.950 . S
C1833 C1831 1.387 . S
C1833 C1835 1.390 . S
C1833 H1837 0.950 . S
H1834 C1830 0.950 . S
C1835 C1833 1.390 . S
C1835 C1836 1.387 . S
C1835 H1838 0.950 . S
C1836 C1835 1.387 . S
C1836 C1839 1.387 . S
H1837 C1833 0.950 . S
H1838 C1835 0.950 . S
C1839 C1830 1.390 . S
C1839 H1832 0.950 . S
C1839 C1836 1.387 . S
C1840 C1841 1.387 . S
C1840 H1844 0.950 . S
C1840 C1849 1.390 . S
C1841 C1840 1.387 . S
C1841 C1843 1.387 1_565 S
H1842 C1849 0.950 . S
C1843 C1841 1.387 1_545 S
C1843 C1845 1.390 . S
C1843 H1847 0.950 . S
H1844 C1840 0.950 . S
C1845 C1843 1.390 . S
C1845 C1846 1.387 1_545 S
C1845 H1848 0.950 . S
C1846 C1845 1.387 1_565 S
C1846 C1849 1.387 . S
H1847 C1843 0.950 . S
H1848 C1845 0.950 . S
C1849 C1840 1.390 . S
C1849 H1842 0.950 . S
C1849 C1846 1.387 . S
C1850 C1851 1.387 . S
C1850 H1854 0.950 . S
C1850 C1859 1.390 . S
C1851 C1850 1.387 . S
C1851 C1853 1.387 . S
H1852 C1859 0.950 . S
C1853 C1851 1.387 . S
C1853 C1855 1.390 . S
C1853 H1857 0.950 . S
H1854 C1850 0.950 . S
C1855 C1853 1.390 . S
C1855 C1856 1.387 . S
C1855 H1858 0.950 . S
C1856 C1855 1.387 . S
C1856 C1859 1.387 . S
H1857 C1853 0.950 . S
H1858 C1855 0.950 . S
C1859 C1850 1.390 . S
C1859 H1852 0.950 . S
C1859 C1856 1.387 . S
C1860 C1861 1.387 . S
C1860 H1864 0.950 . S
C1860 C1869 1.390 . S
C1861 C1860 1.387 . S
C1861 C1863 1.387 . S
H1862 C1869 0.950 . S
C1863 C1861 1.387 . S
C1863 C1865 1.390 . S
C1863 H1867 0.950 . S
H1864 C1860 0.950 . S
C1865 C1863 1.390 . S
C1865 C1866 1.387 . S
C1865 H1868 0.950 . S
C1866 C1865 1.387 . S
C1866 C1869 1.387 . S
H1867 C1863 0.950 . S
H1868 C1865 0.950 . S
C1869 C1860 1.390 . S
C1869 H1862 0.950 . S
C1869 C1866 1.387 . S
C1870 C1871 1.387 1_545 S
C1870 H1874 0.950 . S
C1870 C1879 1.390 . S
C1871 C1870 1.387 1_565 S
C1871 C1873 1.387 . S
H1872 C1879 0.950 . S
C1873 C1871 1.387 . S
C1873 C1875 1.390 . S
C1873 H1877 0.950 . S
H1874 C1870 0.950 . S
C1875 C1873 1.390 . S
C1875 C1876 1.387 . S
C1875 H1878 0.950 . S
C1876 C1875 1.387 . S
C1876 C1879 1.387 1_565 S
H1877 C1873 0.950 . S
H1878 C1875 0.950 . S
C1879 C1870 1.390 . S
C1879 H1872 0.950 . S
C1879 C1876 1.387 1_545 S
C1880 C1881 1.387 1_565 S
C1880 H1884 0.950 . S
C1880 C1889 1.390 . S
C1881 C1880 1.387 1_545 S
C1881 C1883 1.387 . S
H1882 C1889 0.950 . S
C1883 C1881 1.387 . S
C1883 C1885 1.390 . S
C1883 H1887 0.950 . S
H1884 C1880 0.950 . S
C1885 C1883 1.390 . S
C1885 C1886 1.387 . S
C1885 H1888 0.950 . S
C1886 C1885 1.387 . S
C1886 C1889 1.387 1_545 S
H1887 C1883 0.950 . S
H1888 C1885 0.950 . S
C1889 C1880 1.390 . S
C1889 H1882 0.950 . S
C1889 C1886 1.387 1_565 S
C1890 C1891 1.387 . S
C1890 H1894 0.950 . S
C1890 C1899 1.390 . S
C1891 C1890 1.387 . S
C1891 C1893 1.387 . S
H1892 C1899 0.950 . S
C1893 C1891 1.387 . S
C1893 C1895 1.390 . S
C1893 H1897 0.950 . S
H1894 C1890 0.950 . S
C1895 C1893 1.390 . S
C1895 C1896 1.387 . S
C1895 H1898 0.950 . S
C1896 C1895 1.387 . S
C1896 C1899 1.387 . S
H1897 C1893 0.950 . S
H1898 C1895 0.950 . S
C1899 C1890 1.390 . S
C1899 H1892 0.950 . S
C1899 C1896 1.387 . S
C1900 C1901 1.387 . S
C1900 H1904 0.950 . S
C1900 C1909 1.390 . S
C1901 C1900 1.387 . S
C1901 C1903 1.387 . S
H1902 C1909 0.950 . S
C1903 C1901 1.387 . S
C1903 C1905 1.390 . S
C1903 H1907 0.950 . S
H1904 C1900 0.950 . S
C1905 C1903 1.390 . S
C1905 C1906 1.387 . S
C1905 H1908 0.950 . S
C1906 C1905 1.387 . S
C1906 C1909 1.387 . S
H1907 C1903 0.950 . S
H1908 C1905 0.950 . S
C1909 C1900 1.390 . S
C1909 H1902 0.950 . S
C1909 C1906 1.387 . S
C1910 C1911 1.387 . S
C1910 H1914 0.950 . S
C1910 C1919 1.390 . S
C1911 C1910 1.387 . S
C1911 C1913 1.387 1_545 S
H1912 C1919 0.950 . S
C1913 C1911 1.387 1_565 S
C1913 C1915 1.390 . S
C1913 H1917 0.950 . S
H1914 C1910 0.950 . S
C1915 C1913 1.390 . S
C1915 C1916 1.387 1_565 S
C1915 H1918 0.950 . S
C1916 C1915 1.387 1_545 S
C1916 C1919 1.387 . S
H1917 C1913 0.950 . S
H1918 C1915 0.950 . S
C1919 C1910 1.390 . S
C1919 H1912 0.950 . S
C1919 C1916 1.387 . S
C1920 C1921 1.387 . S
C1920 H1924 0.950 . S
C1920 C1929 1.390 1_455 S
C1921 C1920 1.387 . S
C1921 C1923 1.387 . S
H1922 C1929 0.950 . S
C1923 C1921 1.387 . S
C1923 C1925 1.390 . S
C1923 H1927 0.950 . S
H1924 C1920 0.950 . S
C1925 C1923 1.390 . S
C1925 C1926 1.387 1_455 S
C1925 H1928 0.950 1_455 S
C1926 C1925 1.387 1_655 S
C1926 C1929 1.387 . S
H1927 C1923 0.950 . S
H1928 C1925 0.950 1_655 S
C1929 C1920 1.390 1_655 S
C1929 H1922 0.950 . S
C1929 C1926 1.387 . S
C1930 C1931 1.387 . S
C1930 H1934 0.950 . S
C1930 C1939 1.390 . S
C1931 C1930 1.387 . S
C1931 C1933 1.387 . S
H1932 C1939 0.950 . S
C1933 C1931 1.387 . S
C1933 C1935 1.390 . S
C1933 H1937 0.950 . S
H1934 C1930 0.950 . S
C1935 C1933 1.390 . S
C1935 C1936 1.387 . S
C1935 H1938 0.950 . S
C1936 C1935 1.387 . S
C1936 C1939 1.387 . S
H1937 C1933 0.950 . S
H1938 C1935 0.950 . S
C1939 C1930 1.390 . S
C1939 H1932 0.950 . S
C1939 C1936 1.387 . S
C1940 C1941 1.387 1_455 S
C1940 H1944 0.950 1_455 S
C1940 C1949 1.390 . S
C1941 C1940 1.387 1_655 S
C1941 C1943 1.387 1_655 S
H1942 C1949 0.950 . S
C1943 C1941 1.387 1_455 S
C1943 C1945 1.390 . S
C1943 H1947 0.950 1_455 S
H1944 C1940 0.950 1_655 S
C1945 C1943 1.390 . S
C1945 C1946 1.387 . S
C1945 H1948 0.950 . S
C1946 C1945 1.387 . S
C1946 C1949 1.387 . S
H1947 C1943 0.950 1_655 S
H1948 C1945 0.950 . S
C1949 C1940 1.390 . S
C1949 H1942 0.950 . S
C1949 C1946 1.387 . S
C1950 C1951 1.387 . S
C1950 H1954 0.950 . S
C1950 C1959 1.390 . S
C1951 C1950 1.387 . S
C1951 C1953 1.387 . S
H1952 C1959 0.950 . S
C1953 C1951 1.387 . S
C1953 C1955 1.390 . S
C1953 H1957 0.950 . S
H1954 C1950 0.950 . S
C1955 C1953 1.390 . S
C1955 C1956 1.387 . S
C1955 H1958 0.950 . S
C1956 C1955 1.387 . S
C1956 C1959 1.387 . S
H1957 C1953 0.950 . S
H1958 C1955 0.950 . S
C1959 C1950 1.390 . S
C1959 H1952 0.950 . S
C1959 C1956 1.387 . S
C1960 C1961 1.387 . S
C1960 H1964 0.950 . S
C1960 C1969 1.390 . S
C1961 C1960 1.387 . S
C1961 C1963 1.387 . S
H1962 C1969 0.950 1_455 S
C1963 C1961 1.387 . S
C1963 C1965 1.390 . S
C1963 H1967 0.950 . S
H1964 C1960 0.950 . S
C1965 C1963 1.390 . S
C1965 C1966 1.387 1_655 S
C1965 H1968 0.950 1_655 S
C1966 C1965 1.387 1_455 S
C1966 C1969 1.387 1_455 S
H1967 C1963 0.950 . S
H1968 C1965 0.950 1_455 S
C1969 C1960 1.390 . S
C1969 H1962 0.950 1_655 S
C1969 C1966 1.387 1_655 S
C1970 C1971 1.387 . S
C1970 H1974 0.950 . S
C1970 C1979 1.390 . S
C1971 C1970 1.387 . S
C1971 C1973 1.387 . S
H1972 C1979 0.950 . S
C1973 C1971 1.387 . S
C1973 C1975 1.390 . S
C1973 H1977 0.950 . S
H1974 C1970 0.950 . S
C1975 C1973 1.390 . S
C1975 C1976 1.387 . S
C1975 H1978 0.950 . S
C1976 C1975 1.387 . S
C1976 C1979 1.387 . S
H1977 C1973 0.950 . S
H1978 C1975 0.950 . S
C1979 C1970 1.390 . S
C1979 H1972 0.950 . S
C1979 C1976 1.387 . S
C1980 C1981 1.387 1_655 S
C1980 H1984 0.950 1_655 S
C1980 C1989 1.390 . S
C1981 C1980 1.387 1_455 S
C1981 C1983 1.387 . S
H1982 C1989 0.950 . S
C1983 C1981 1.387 . S
C1983 C1985 1.390 1_455 S
C1983 H1987 0.950 . S
H1984 C1980 0.950 1_455 S
C1985 C1983 1.390 1_655 S
C1985 C1986 1.387 . S
C1985 H1988 0.950 . S
C1986 C1985 1.387 . S
C1986 C1989 1.387 . S
H1987 C1983 0.950 . S
H1988 C1985 0.950 . S
C1989 C1980 1.390 . S
C1989 H1982 0.950 . S
C1989 C1986 1.387 . S
C1990 C1991 1.387 . S
C1990 H1994 0.950 . S
C1990 C1999 1.390 . S
C1991 C1990 1.387 . S
C1991 C1993 1.387 . S
H1992 C1999 0.950 . S
C1993 C1991 1.387 . S
C1993 C1995 1.390 . S
C1993 H1997 0.950 . S
H1994 C1990 0.950 . S
C1995 C1993 1.390 . S
C1995 C1996 1.387 . S
C1995 H1998 0.950 . S
C1996 C1995 1.387 . S
C1996 C1999 1.387 . S
H1997 C1993 0.950 . S
H1998 C1995 0.950 . S
C1999 C1990 1.390 . S
C1999 H1992 0.950 . S
C1999 C1996 1.387 . S
C2000 C2001 1.387 1_455 S
C2000 H2004 0.950 1_455 S
C2000 C2009 1.390 . S
C2001 C2000 1.387 1_655 S
C2001 C2003 1.387 1_665 S
H2002 C2009 0.950 . S
C2003 C2001 1.387 1_445 S
C2003 C2005 1.390 . S
C2003 H2007 0.950 1_455 S
H2004 C2000 0.950 1_655 S
C2005 C2003 1.390 . S
C2005 C2006 1.387 1_545 S
C2005 H2008 0.950 . S
C2006 C2005 1.387 1_565 S
C2006 C2009 1.387 . S
H2007 C2003 0.950 1_655 S
H2008 C2005 0.950 . S
C2009 C2000 1.390 . S
C2009 H2002 0.950 . S
C2009 C2006 1.387 . S
C2010 C2011 1.387 . S
C2010 H2014 0.950 . S
C2010 C2019 1.390 . S
C2011 C2010 1.387 . S
C2011 C2013 1.387 . S
H2012 C2019 0.950 . S
C2013 C2011 1.387 . S
C2013 C2015 1.390 . S
C2013 H2017 0.950 . S
H2014 C2010 0.950 . S
C2015 C2013 1.390 . S
C2015 C2016 1.387 . S
C2015 H2018 0.950 . S
C2016 C2015 1.387 . S
C2016 C2019 1.387 . S
H2017 C2013 0.950 . S
H2018 C2015 0.950 . S
C2019 C2010 1.390 . S
C2019 H2012 0.950 . S
C2019 C2016 1.387 . S
C2020 C2021 1.387 1_455 S
C2020 H2024 0.952 . S
C2020 C2029 1.390 . S
C2021 C2020 1.387 1_655 S
C2021 C2023 1.387 . S
H2022 C2029 0.950 . S
C2023 C2021 1.387 . S
C2023 C2025 1.390 1_655 S
C2023 H2027 0.950 . S
H2024 C2020 0.952 . S
C2025 C2023 1.390 1_455 S
C2025 C2026 1.387 . S
C2025 H2028 0.950 . S
C2026 C2025 1.387 . S
C2026 C2029 1.387 . S
H2027 C2023 0.950 . S
H2028 C2025 0.950 . S
C2029 C2020 1.390 . S
C2029 H2022 0.950 . S
C2029 C2026 1.387 . S
C2030 C2031 1.387 . S
C2030 H2034 0.950 . S
C2030 C2039 1.390 . S
C2031 C2030 1.387 . S
C2031 C2033 1.387 1_565 S
H2032 C2039 0.950 . S
C2033 C2031 1.387 1_545 S
C2033 C2035 1.390 . S
C2033 H2037 0.950 . S
H2034 C2030 0.950 . S
C2035 C2033 1.390 . S
C2035 C2036 1.387 1_545 S
C2035 H2038 0.950 . S
C2036 C2035 1.387 1_565 S
C2036 C2039 1.387 . S
H2037 C2033 0.950 . S
H2038 C2035 0.950 . S
C2039 C2030 1.390 . S
C2039 H2032 0.950 . S
C2039 C2036 1.387 . S
C2040 C2041 1.387 1_565 S
C2040 H2044 0.950 . S
C2040 C2049 1.392 1_655 S
C2041 C2040 1.387 1_545 S
C2041 C2043 1.387 . S
H2042 C2049 0.949 . S
C2043 C2041 1.387 . S
C2043 C2045 1.390 . S
C2043 H2047 0.950 . S
H2044 C2040 0.950 . S
C2045 C2043 1.390 . S
C2045 C2046 1.387 1_655 S
C2045 H2048 0.950 1_655 S
C2046 C2045 1.387 1_455 S
C2046 C2049 1.387 1_545 S
H2047 C2043 0.950 . S
H2048 C2045 0.950 1_455 S
C2049 C2040 1.392 1_455 S
C2049 H2042 0.949 . S
C2049 C2046 1.387 1_565 S
C2050 C2051 1.387 . S
C2050 H2054 0.950 . S
C2050 C2059 1.390 . S
C2051 C2050 1.387 . S
C2051 C2053 1.387 . S
H2052 C2059 0.950 . S
C2053 C2051 1.387 . S
C2053 C2055 1.390 . S
C2053 H2057 0.950 . S
H2054 C2050 0.950 . S
C2055 C2053 1.390 . S
C2055 C2056 1.387 . S
C2055 H2058 0.950 . S
C2056 C2055 1.387 . S
C2056 C2059 1.387 . S
H2057 C2053 0.950 . S
H2058 C2055 0.950 . S
C2059 C2050 1.390 . S
C2059 H2052 0.950 . S
C2059 C2056 1.387 . S
C2060 C2061 1.387 1_655 S
C2060 H2064 0.950 . S
C2060 C2069 1.390 . S
C2061 C2060 1.387 1_455 S
C2061 C2063 1.387 . S
H2062 C2069 0.950 . S
C2063 C2061 1.387 . S
C2063 C2065 1.390 1_455 S
C2063 H2067 0.950 . S
H2064 C2060 0.950 . S
C2065 C2063 1.390 1_655 S
C2065 C2066 1.387 . S
C2065 H2068 0.950 . S
C2066 C2065 1.387 . S
C2066 C2069 1.387 . S
H2067 C2063 0.950 . S
H2068 C2065 0.950 . S
C2069 C2060 1.390 . S
C2069 H2062 0.950 . S
C2069 C2066 1.387 . S
C2070 C2071 1.387 . S
C2070 H2074 0.950 . S
C2070 C2079 1.390 . S
C2071 C2070 1.387 . S
C2071 C2073 1.387 1_545 S
H2072 C2079 0.950 . S
C2073 C2071 1.387 1_565 S
C2073 C2075 1.390 . S
C2073 H2077 0.950 . S
H2074 C2070 0.950 . S
C2075 C2073 1.390 . S
C2075 C2076 1.387 1_565 S
C2075 H2078 0.950 . S
C2076 C2075 1.387 1_545 S
C2076 C2079 1.387 . S
H2077 C2073 0.950 . S
H2078 C2075 0.950 . S
C2079 C2070 1.390 . S
C2079 H2072 0.950 . S
C2079 C2076 1.387 . S
C2080 C2081 1.387 1_655 S
C2080 H2084 0.950 . S
C2080 C2089 1.390 1_554 S
C2081 C2080 1.387 1_455 S
C2081 C2083 1.387 . S
H2082 C2089 0.950 . S
C2083 C2081 1.387 . S
C2083 C2085 1.390 1_554 S
C2083 H2087 0.950 . S
H2084 C2080 0.950 . S
C2085 C2083 1.390 1_556 S
C2085 C2086 1.387 1_455 S
C2085 H2088 0.950 . S
C2086 C2085 1.387 1_655 S
C2086 C2089 1.387 . S
H2087 C2083 0.950 . S
H2088 C2085 0.950 . S
C2089 C2080 1.390 1_556 S
C2089 H2082 0.950 . S
C2089 C2086 1.387 . S
C2090 C2091 1.387 . S
C2090 H2094 0.950 . S
C2090 C2099 1.390 1_556 S
C2091 C2090 1.387 . S
C2091 C2093 1.387 . S
H2092 C2099 0.950 . S
C2093 C2091 1.387 . S
C2093 C2095 1.390 1_556 S
C2093 H2097 0.950 . S
H2094 C2090 0.950 . S
C2095 C2093 1.390 1_554 S
C2095 C2096 1.387 . S
C2095 H2098 0.950 . S
C2096 C2095 1.387 . S
C2096 C2099 1.387 . S
H2097 C2093 0.950 . S
H2098 C2095 0.950 . S
C2099 C2090 1.390 1_554 S
C2099 H2092 0.950 . S
C2099 C2096 1.387 . S
C2100 C2101 1.387 1_455 S
C2100 H2104 0.950 . S
C2100 C2109 1.390 . S
C2101 C2100 1.387 1_655 S
C2101 C2103 1.387 . S
H2102 C2109 0.950 . S
C2103 C2101 1.387 . S
C2103 C2105 1.390 . S
C2103 H2107 0.950 . S
H2104 C2100 0.950 . S
C2105 C2103 1.390 . S
C2105 C2106 1.387 1_655 S
C2105 H2108 0.950 . S
C2106 C2105 1.387 1_455 S
C2106 C2109 1.387 . S
H2107 C2103 0.950 . S
H2108 C2105 0.950 . S
C2109 C2100 1.390 . S
C2109 H2102 0.950 . S
C2109 C2106 1.387 . S
C2110 C2111 1.387 . S
C2110 H2114 0.950 . S
C2110 C2119 1.390 . S
C2111 C2110 1.387 . S
C2111 C2113 1.387 . S
H2112 C2119 0.950 . S
C2113 C2111 1.387 . S
C2113 C2115 1.390 . S
C2113 H2117 0.950 . S
H2114 C2110 0.950 . S
C2115 C2113 1.390 . S
C2115 C2116 1.387 . S
C2115 H2118 0.950 . S
C2116 C2115 1.387 . S
C2116 C2119 1.387 . S
H2117 C2113 0.950 . S
H2118 C2115 0.950 . S
C2119 C2110 1.390 . S
C2119 H2112 0.950 . S
C2119 C2116 1.387 . S
C2120 C2121 1.387 . S
C2120 H2124 0.950 . S
C2120 C2129 1.390 1_556 S
C2121 C2120 1.387 . S
C2121 C2123 1.387 . S
H2122 C2129 0.950 . S
C2123 C2121 1.387 . S
C2123 C2125 1.390 1_556 S
C2123 H2127 0.950 . S
H2124 C2120 0.950 . S
C2125 C2123 1.390 1_554 S
C2125 C2126 1.387 . S
C2125 H2128 0.950 . S
C2126 C2125 1.387 . S
C2126 C2129 1.387 . S
H2127 C2123 0.950 . S
H2128 C2125 0.950 . S
C2129 C2120 1.390 1_554 S
C2129 H2122 0.950 . S
C2129 C2126 1.387 . S
C2130 C2131 1.387 1_455 S
C2130 H2134 0.950 . S
C2130 C2139 1.390 . S
C2131 C2130 1.387 1_655 S
C2131 C2133 1.387 . S
H2132 C2139 0.950 . S
C2133 C2131 1.387 . S
C2133 C2135 1.390 . S
C2133 H2137 0.950 . S
H2134 C2130 0.950 . S
C2135 C2133 1.390 . S
C2135 C2136 1.387 1_655 S
C2135 H2138 0.950 . S
C2136 C2135 1.387 1_455 S
C2136 C2139 1.387 . S
H2137 C2133 0.950 . S
H2138 C2135 0.950 . S
C2139 C2130 1.390 . S
C2139 H2132 0.950 . S
C2139 C2136 1.387 . S
C2140 C2141 1.387 . S
C2140 H2144 0.950 . S
C2140 C2149 1.390 . S
C2141 C2140 1.387 . S
C2141 C2143 1.387 . S
H2142 C2149 0.950 . S
C2143 C2141 1.387 . S
C2143 C2145 1.390 . S
C2143 H2147 0.950 . S
H2144 C2140 0.950 . S
C2145 C2143 1.390 . S
C2145 C2146 1.387 . S
C2145 H2148 0.950 . S
C2146 C2145 1.387 . S
C2146 C2149 1.387 . S
H2147 C2143 0.950 . S
H2148 C2145 0.950 . S
C2149 C2140 1.390 . S
C2149 H2142 0.950 . S
C2149 C2146 1.387 . S
C2150 C2151 1.387 1_655 S
C2150 H2154 0.950 . S
C2150 C2159 1.390 . S
C2151 C2150 1.387 1_455 S
C2151 C2153 1.387 1_565 S
H2152 C2159 0.950 . S
C2153 C2151 1.387 1_545 S
C2153 C2155 1.390 . S
C2153 H2157 0.950 . S
H2154 C2150 0.950 . S
C2155 C2153 1.390 . S
C2155 C2156 1.387 1_455 S
C2155 H2158 0.950 . S
C2156 C2155 1.387 1_655 S
C2156 C2159 1.387 1_545 S
H2157 C2153 0.950 . S
H2158 C2155 0.950 . S
C2159 C2150 1.390 . S
C2159 H2152 0.950 . S
C2159 C2156 1.387 1_565 S
C2160 C2161 1.387 . S
C2160 H2164 0.950 . S
C2160 C2169 1.390 . S
C2161 C2160 1.387 . S
C2161 C2163 1.387 . S
H2162 C2169 0.950 . S
C2163 C2161 1.387 . S
C2163 C2165 1.390 . S
C2163 H2167 0.950 . S
H2164 C2160 0.950 . S
C2165 C2163 1.390 . S
C2165 C2166 1.387 . S
C2165 H2168 0.950 . S
C2166 C2165 1.387 . S
C2166 C2169 1.387 . S
H2167 C2163 0.950 . S
H2168 C2165 0.950 . S
C2169 C2160 1.390 . S
C2169 H2162 0.950 . S
C2169 C2166 1.387 . S
C2170 C2171 1.387 1_565 S
C2170 H2174 0.950 . S
C2170 C2179 1.390 . S
C2171 C2170 1.387 1_545 S
C2171 C2173 1.387 . S
H2172 C2179 0.950 . S
C2173 C2171 1.387 . S
C2173 C2175 1.390 . S
C2173 H2177 0.950 . S
H2174 C2170 0.950 . S
C2175 C2173 1.390 . S
C2175 C2176 1.387 1_545 S
C2175 H2178 0.950 . S
C2176 C2175 1.387 1_565 S
C2176 C2179 1.387 . S
H2177 C2173 0.950 . S
H2178 C2175 0.950 . S
C2179 C2170 1.390 . S
C2179 H2172 0.950 . S
C2179 C2176 1.387 . S
C2180 C2181 1.387 . S
C2180 H2184 0.950 . S
C2180 C2189 1.390 . S
C2181 C2180 1.387 . S
C2181 C2183 1.387 . S
H2182 C2189 0.950 . S
C2183 C2181 1.387 . S
C2183 C2185 1.390 . S
C2183 H2187 0.950 . S
H2184 C2180 0.950 . S
C2185 C2183 1.390 . S
C2185 C2186 1.387 . S
C2185 H2188 0.950 . S
C2186 C2185 1.387 . S
C2186 C2189 1.387 . S
H2187 C2183 0.950 . S
H2188 C2185 0.950 . S
C2189 C2180 1.390 . S
C2189 H2182 0.950 . S
C2189 C2186 1.387 . S
C2190 C2191 1.387 . S
C2190 H2194 0.950 . S
C2190 C2199 1.390 . S
C2191 C2190 1.387 . S
C2191 C2193 1.387 1_565 S
H2192 C2199 0.950 . S
C2193 C2191 1.387 1_545 S
C2193 C2195 1.390 . S
C2193 H2197 0.950 . S
H2194 C2190 0.950 . S
C2195 C2193 1.390 . S
C2195 C2196 1.387 . S
C2195 H2198 0.950 . S
C2196 C2195 1.387 . S
C2196 C2199 1.387 1_545 S
H2197 C2193 0.950 . S
H2198 C2195 0.950 . S
C2199 C2190 1.390 . S
C2199 H2192 0.950 . S
C2199 C2196 1.387 1_565 S
C2200 C2201 1.387 . S
C2200 H2204 0.950 . S
C2200 C2209 1.390 . S
C2201 C2200 1.387 . S
C2201 C2203 1.387 . S
H2202 C2209 0.950 . S
C2203 C2201 1.387 . S
C2203 C2205 1.390 . S
C2203 H2207 0.950 . S
H2204 C2200 0.950 . S
C2205 C2203 1.390 . S
C2205 C2206 1.387 . S
C2205 H2208 0.950 . S
C2206 C2205 1.387 . S
C2206 C2209 1.387 . S
H2207 C2203 0.950 . S
H2208 C2205 0.950 . S
C2209 C2200 1.390 . S
C2209 H2202 0.950 . S
C2209 C2206 1.387 . S
C2210 C2211 1.387 . S
C2210 H2214 0.950 . S
C2210 C2219 1.390 . S
C2211 C2210 1.387 . S
C2211 C2213 1.387 . S
H2212 C2219 0.950 . S
C2213 C2211 1.387 . S
C2213 C2215 1.390 . S
C2213 H2217 0.950 . S
H2214 C2210 0.950 . S
C2215 C2213 1.390 . S
C2215 C2216 1.387 . S
C2215 H2218 0.950 . S
C2216 C2215 1.387 . S
C2216 C2219 1.387 . S
H2217 C2213 0.950 . S
H2218 C2215 0.950 . S
C2219 C2210 1.390 . S
C2219 H2212 0.950 . S
C2219 C2216 1.387 . S
C2220 C2221 1.387 . S
C2220 H2224 0.950 . S
C2220 C2229 1.390 . S
C2221 C2220 1.387 . S
C2221 C2223 1.387 . S
H2222 C2229 0.950 . S
C2223 C2221 1.387 . S
C2223 C2225 1.390 . S
C2223 H2227 0.950 . S
H2224 C2220 0.950 . S
C2225 C2223 1.390 . S
C2225 C2226 1.387 . S
C2225 H2228 0.950 . S
C2226 C2225 1.387 . S
C2226 C2229 1.387 . S
H2227 C2223 0.950 . S
H2228 C2225 0.950 . S
C2229 C2220 1.390 . S
C2229 H2222 0.950 . S
C2229 C2226 1.387 . S
C2230 C2231 1.387 1_545 S
C2230 H2234 0.950 . S
C2230 C2239 1.390 1_554 S
C2231 C2230 1.387 1_565 S
C2231 C2233 1.387 . S
H2232 C2239 0.950 . S
C2233 C2231 1.387 . S
C2233 C2235 1.390 1_554 S
C2233 H2237 0.950 . S
H2234 C2230 0.950 . S
C2235 C2233 1.390 1_556 S
C2235 C2236 1.387 1_565 S
C2235 H2238 0.950 . S
C2236 C2235 1.387 1_545 S
C2236 C2239 1.387 . S
H2237 C2233 0.950 . S
H2238 C2235 0.950 . S
C2239 C2230 1.390 1_556 S
C2239 H2232 0.950 . S
C2239 C2236 1.387 . S
C1281 C31 1.595 . S
C1286 C1031 1.595 . S
C1291 C991 1.594 . S
C1296 C71 1.594 . S
C1301 C1111 1.594 . S
C1306 C111 1.594 . S
C1311 C151 1.594 . S
C1316 C1071 1.594 . S
C1321 C172 1.594 . S
C1326 C1172 1.594 . S
C1331 C212 1.595 . S
C1336 C1132 1.595 . S
C1341 C252 1.594 . S
C1346 C1252 1.594 . S
C1351 C1212 1.595 . S
C1356 C292 1.595 . S
C1361 C351 1.594 . S
C1366 C711 1.594 . S
C1371 C391 1.594 . S
C1376 C671 1.594 . S
C1381 C431 1.594 . S
C1386 C791 1.594 . S
C1391 C751 1.595 . S
C1396 C471 1.595 . S
C1401 C492 1.595 . S
C1406 C852 1.595 . S
C1411 C532 1.595 . S
C1416 C812 1.595 . S
C1421 C932 1.595 . S
C1426 C572 1.595 . S
C1431 C612 1.594 . S
C1436 C892 1.594 . S
C1441 C17 1.698 . S
C1446 C137 1.698 . S
C1451 C57 1.698 . S
C1456 C97 1.698 . S
C1461 C282 1.698 . S
C1466 C162 1.698 . S
C1471 C242 1.698 . S
C1476 C202 1.698 . S
C1481 C337 1.698 . S
C1486 C457 1.698 . S
C1491 C377 1.698 . S
C1496 C417 1.698 . S
C1501 C482 1.698 . S
C1506 C602 1.698 . S
C1511 C562 1.698 . S
C1516 C522 1.698 . S
C1521 C657 1.698 . S
C1526 C777 1.698 . S
C1531 C697 1.698 . S
C1536 C737 1.698 . S
C1541 C922 1.698 . S
C1546 C802 1.698 . S
C1551 C842 1.698 . S
C1556 C882 1.698 . S
C1561 C1097 1.698 . S
C1566 C977 1.698 . S
C1571 C1017 1.698 . S
C1576 C1057 1.698 . S
C1581 C1242 1.698 . S
C1586 C1122 1.698 . S
C1591 C1202 1.698 . S
C1596 C1162 1.698 . S
C1601 C52 1.650 . S
C1606 C12 1.650 . S
C1611 C92 1.652 . S
C1616 C132 1.652 . S
C1621 C231 1.650 . S
C1626 C191 1.650 . S
C1631 C311 1.650 . S
C1636 C271 1.650 . S
C1641 C332 1.652 . S
C1646 C372 1.652 . S
C1651 C412 1.650 . S
C1656 C452 1.650 . S
C1661 C551 1.650 . S
C1666 C511 1.650 . S
C1671 C591 1.652 . S
C1676 C631 1.652 . S
C1681 C652 1.652 . S
C1686 C692 1.652 . S
C1691 C772 1.652 . S
C1696 C732 1.652 . S
C1701 C831 1.652 . S
C1706 C871 1.652 . S
C1711 C911 1.652 . S
C1716 C951 1.652 . S
C1721 C972 1.650 . S
C1726 C1012 1.650 . S
C1731 C1052 1.650 . S
C1736 C1092 1.650 . S
C1741 C1191 1.650 . S
C1746 C1151 1.650 . S
C1751 C1231 1.650 . S
C1756 C1271 1.650 . S
C1761 C8 1.512 . S
C1766 C29 1.512 . S
C1771 C48 1.512 . S
C1776 C69 1.512 . S
C1781 C88 1.510 . S
C1786 C109 1.510 . S
C1791 C149 1.512 . S
C1796 C128 1.512 . S
C1801 C168 1.510 . S
C1806 C189 1.510 . S
C1811 C229 1.512 . S
C1816 C208 1.512 . S
C1821 C248 1.510 . S
C1826 C269 1.510 . S
C1831 C288 1.512 . S
C1836 C309 1.512 . S
C1841 C349 1.510 . S
C1846 C328 1.510 . S
C1851 C368 1.512 . S
C1856 C389 1.512 . S
C1861 C408 1.512 . S
C1866 C429 1.512 . S
C1871 C469 1.512 . S
C1876 C448 1.512 . S
C1881 C488 1.510 . S
C1886 C509 1.510 . S
C1891 C549 1.510 . S
C1896 C528 1.510 . S
C1901 C589 1.512 . S
C1906 C568 1.512 . S
C1911 C608 1.512 . S
C1916 C629 1.512 . S
C1921 C648 1.510 . S
C1926 C669 1.510 . S
C1931 C709 1.512 . S
C1936 C688 1.512 . S
C1941 C749 1.512 . S
C1946 C728 1.512 . S
C1951 C768 1.510 . S
C1956 C789 1.510 . S
C1961 C829 1.510 . S
C1966 C808 1.510 . S
C1971 C869 1.512 . S
C1976 C848 1.512 . S
C1981 C888 1.510 . S
C1986 C909 1.510 . S
C1991 C949 1.510 . S
C1996 C928 1.510 . S
C2001 C989 1.510 . S
C2006 C968 1.510 . S
C2011 C1008 1.510 . S
C2016 C1029 1.510 . S
C2021 C1069 1.510 . S
C2026 C1048 1.510 . S
C2031 C1109 1.510 . S
C2036 C1088 1.510 . S
C2041 C1149 1.510 . S
C2046 C1128 1.510 . S
C2051 C1189 1.512 . S
C2056 C1168 1.512 . S
C2061 C1208 1.512 . S
C2066 C1229 1.512 . S
C2071 C1248 1.512 . S
C2076 C1269 1.512 . S
C2081 C2 1.483 . S
C2086 C177 1.483 . S
C2091 C1177 1.484 . S
C2096 C42 1.484 . S
C2101 C577 1.484 . S
C2106 C82 1.484 . S
C2111 C122 1.483 . S
C2116 C937 1.483 . S
C2121 C217 1.483 . S
C2126 C1002 1.483 . S
C2131 C257 1.486 . S
C2136 C402 1.486 . S
C2141 C297 1.483 . S
C2146 C762 1.483 . S
C2151 C322 1.483 . S
C2156 C497 1.483 . S
C2161 C857 1.486 . S
C2166 C362 1.486 . S
C2171 C1257 1.485 . S
C2176 C442 1.485 . S
C2181 C537 1.486 . S
C2186 C682 1.486 . S
C2191 C1082 1.483 . S
C2196 C617 1.483 . S
C2201 C642 1.485 . S
C2206 C817 1.485 . S
C2211 C1217 1.486 . S
C2216 C722 1.486 . S
C2221 C897 1.485 . S
C2226 C1042 1.485 . S
C2231 C962 1.485 . S
C2236 C1137 1.485 . S
