# Generated by pormake.
# Topology vmh, (6)-cn, num edge types: 1
# Building blocks:
#     Node 0, Type 0, BuildingBlock: OJICUG_clean_sbu_0, # of connection points: 6
#     Node 1, Type 0, BuildingBlock: OJICUG_clean_sbu_0, # of connection points: 6
#     Node 2, Type 0, BuildingBlock: OJICUG_clean_sbu_0, # of connection points: 6
#     Node 3, Type 0, BuildingBlock: OJICUG_clean_sbu_0, # of connection points: 6
#     Node 4, Type 0, BuildingBlock: OJICUG_clean_sbu_0, # of connection points: 6
#     Node 5, Type 0, BuildingBlock: OJICUG_clean_sbu_0, # of connection points: 6
#     Node 6, Type 0, BuildingBlock: OJICUG_clean_sbu_0, # of connection points: 6
#     Node 7, Type 0, BuildingBlock: OJICUG_clean_sbu_0, # of connection points: 6
#     Edge 8, Type (0, 0), BuildingBlock: ZUJKAS_clean_linker_0, # of connection points: 2
#     Edge 9, Type (0, 0), BuildingBlock: ZUJKAS_clean_linker_0, # of connection points: 2
#     Edge 10, Type (0, 0), BuildingBlock: ZUJKAS_clean_linker_0, # of connection points: 2
#     Edge 11, Type (0, 0), BuildingBlock: ZUJKAS_clean_linker_0, # of connection points: 2
#     Edge 12, Type (0, 0), BuildingBlock: ZUJKAS_clean_linker_0, # of connection points: 2
#     Edge 13, Type (0, 0), BuildingBlock: ZUJKAS_clean_linker_0, # of connection points: 2
#     Edge 14, Type (0, 0), BuildingBlock: ZUJKAS_clean_linker_0, # of connection points: 2
#     Edge 15, Type (0, 0), BuildingBlock: ZUJKAS_clean_linker_0, # of connection points: 2
#     Edge 16, Type (0, 0), BuildingBlock: ZUJKAS_clean_linker_0, # of connection points: 2
#     Edge 17, Type (0, 0), BuildingBlock: ZUJKAS_clean_linker_0, # of connection points: 2
#     Edge 18, Type (0, 0), BuildingBlock: ZUJKAS_clean_linker_0, # of connection points: 2
#     Edge 19, Type (0, 0), BuildingBlock: ZUJKAS_clean_linker_0, # of connection points: 2
#     Edge 20, Type (0, 0), BuildingBlock: ZUJKAS_clean_linker_0, # of connection points: 2
#     Edge 21, Type (0, 0), BuildingBlock: ZUJKAS_clean_linker_0, # of connection points: 2
#     Edge 22, Type (0, 0), BuildingBlock: ZUJKAS_clean_linker_0, # of connection points: 2
#     Edge 23, Type (0, 0), BuildingBlock: ZUJKAS_clean_linker_0, # of connection points: 2
#     Edge 24, Type (0, 0), BuildingBlock: ZUJKAS_clean_linker_0, # of connection points: 2
#     Edge 25, Type (0, 0), BuildingBlock: ZUJKAS_clean_linker_0, # of connection points: 2
#     Edge 26, Type (0, 0), BuildingBlock: ZUJKAS_clean_linker_0, # of connection points: 2
#     Edge 27, Type (0, 0), BuildingBlock: ZUJKAS_clean_linker_0, # of connection points: 2
#     Edge 28, Type (0, 0), BuildingBlock: ZUJKAS_clean_linker_0, # of connection points: 2
#     Edge 29, Type (0, 0), BuildingBlock: ZUJKAS_clean_linker_0, # of connection points: 2
#     Edge 30, Type (0, 0), BuildingBlock: ZUJKAS_clean_linker_0, # of connection points: 2
#     Edge 31, Type (0, 0), BuildingBlock: ZUJKAS_clean_linker_0, # of connection points: 2
# Relax obj value: 0.243
# Max RMSD: 0.270
# Mean RMSD: 0.270
data_MOF--net-vmh--node1-OJICUG_clean_sbu_0--edge1-ZUJKAS_clean_linker_0
_symmetry_space_group_name_H-M    P1
_symmetry_Int_Tables_number       1
_symmetry_cell_setting            triclinic
loop_
_symmetry_equiv_pos_as_xyz
'x, y, z'
_cell_length_a     36.40685
_cell_length_b     55.485058
_cell_length_c     38.041515
_cell_angle_alpha  89.965383
_cell_angle_beta   98.758519
_cell_angle_gamma 90.020579
loop_
_atom_site_label
_atom_site_type_symbol
_atom_site_fract_x
_atom_site_fract_y
_atom_site_fract_z
_atom_type_partial_charge
Sc0 Sc 0.23924 0.07885 0.10885 0.0
Sc1 Sc 0.25779 0.02869 0.05667 0.0
Sc2 Sc 0.30646 0.08299 0.05183 0.0
O3 O 0.26764 0.0635 0.07241 0.0
C4 C 0.2453 0.12299 0.05574 0.0
C5 C 0.17577 0.04874 0.05949 0.0
C6 C 0.26737 0.05457 0.98375 0.0
C7 C 0.25194 0.0251 0.13867 0.0
C8 C 0.32315 0.09675 0.13411 0.0
C9 C 0.34551 0.03169 0.06164 0.0
O10 O 0.23168 0.11337 0.08129 0.0
O11 O 0.19911 0.034 0.05014 0.0
O12 O 0.28658 0.07193 -0.00161 0.0
O13 O 0.24379 0.04718 0.14135 0.0
O14 O 0.33127 0.09628 0.10285 0.0
O15 O 0.31576 0.0196 0.06075 0.0
O16 O 0.29129 0.09054 0.14126 0.0
O17 O 0.25866 0.01552 0.11003 0.0
O18 O 0.34605 0.05446 0.05914 0.0
O19 O 0.18513 0.06664 0.08022 0.0
O20 O 0.27129 0.11351 0.04192 0.0
O21 O 0.25506 0.0377 0.00134 0.0
Sc22 Sc 0.76298 0.08079 0.37973 0.0
Sc23 Sc 0.7489 0.02948 0.43088 0.0
Sc24 Sc 0.69976 0.08281 0.44033 0.0
O25 O 0.73748 0.06437 0.4171 0.0
C26 C 0.7586 0.12368 0.43553 0.0
C27 C 0.82924 0.04996 0.42155 0.0
C28 C 0.74432 0.05336 0.50554 0.0
C29 C 0.74832 0.02738 0.34848 0.0
C30 C 0.67858 0.09802 0.3589 0.0
C31 C 0.66163 0.03176 0.43129 0.0
O32 O 0.76921 0.11535 0.40751 0.0
O33 O 0.80698 0.03395 0.42948 0.0
O34 O 0.72127 0.06935 0.49235 0.0
O35 O 0.75906 0.0491 0.34684 0.0
O36 O 0.6732 0.09834 0.39111 0.0
O37 O 0.69201 0.02022 0.43368 0.0
O38 O 0.70919 0.09112 0.34966 0.0
O39 O 0.74062 0.01765 0.37667 0.0
O40 O 0.65993 0.05456 0.43111 0.0
O41 O 0.81842 0.06988 0.40638 0.0
O42 O 0.7357 0.11282 0.45185 0.0
O43 O 0.7587 0.03818 0.4866 0.0
Sc44 Sc 0.76443 0.90751 0.87848 0.0
Sc45 Sc 0.74861 0.95797 0.9296 0.0
Sc46 Sc 0.69598 0.90594 0.93351 0.0
O47 O 0.73665 0.92379 0.91398 0.0
C48 C 0.68108 0.89117 0.8519 0.0
C49 C 0.75585 0.9617 0.8489 0.0
C50 C 0.66002 0.95687 0.92297 0.0
C51 C 0.82933 0.93568 0.92662 0.0
C52 C 0.75411 0.86478 0.93339 0.0
C53 C 0.73561 0.93458 0.00147 0.0
O54 O 0.71164 0.89957 0.84442 0.0
O55 O 0.74386 0.97057 0.87578 0.0
O56 O 0.65717 0.93424 0.91877 0.0
O57 O 0.81866 0.91634 0.9097 0.0
O58 O 0.73207 0.87659 0.94961 0.0
O59 O 0.75519 0.94792 0.98456 0.0
O60 O 0.76513 0.87242 0.90507 0.0
O61 O 0.80715 0.95237 0.93238 0.0
O62 O 0.71051 0.92057 0.98627 0.0
O63 O 0.76694 0.94 0.84781 0.0
O64 O 0.67491 0.88884 0.88369 0.0
O65 O 0.69117 0.96759 0.92998 0.0
Sc66 Sc 0.2384 0.91042 0.61134 0.0
Sc67 Sc 0.25448 0.96031 0.56019 0.0
Sc68 Sc 0.30229 0.90711 0.55272 0.0
O69 O 0.26463 0.9259 0.57453 0.0
C70 C 0.32105 0.89245 0.63382 0.0
C71 C 0.25307 0.96423 0.64101 0.0
C72 C 0.34206 0.95634 0.56162 0.0
C73 C 0.17358 0.94082 0.56942 0.0
C74 C 0.24343 0.86745 0.55556 0.0
C75 C 0.26041 0.93719 0.48706 0.0
O76 O 0.29228 0.90231 0.64302 0.0
O77 O 0.26631 0.97217 0.61422 0.0
O78 O 0.34351 0.93387 0.56764 0.0
O79 O 0.18382 0.91995 0.58161 0.0
O80 O 0.26289 0.87949 0.53688 0.0
O81 O 0.24149 0.95008 0.50531 0.0
O82 O 0.23594 0.87499 0.58541 0.0
O83 O 0.19649 0.95733 0.56452 0.0
O84 O 0.28654 0.9234 0.50101 0.0
O85 O 0.2383 0.94343 0.64163 0.0
O86 O 0.32376 0.8884 0.60142 0.0
O87 O 0.31152 0.96771 0.55407 0.0
Sc88 Sc 0.74398 0.57858 0.10525 0.0
Sc89 Sc 0.75462 0.52744 0.0516 0.0
Sc90 Sc 0.80717 0.57949 0.0439 0.0
O91 O 0.76836 0.56185 0.06692 0.0
C92 C 0.75135 0.62224 0.0516 0.0
C93 C 0.67573 0.55094 0.05839 0.0
C94 C 0.76208 0.55247 0.97748 0.0
C95 C 0.75205 0.52439 0.13446 0.0
C96 C 0.83053 0.59277 0.12609 0.0
C97 C 0.84148 0.5267 0.0523 0.0
O98 O 0.73824 0.61322 0.07786 0.0
O99 O 0.69689 0.5353 0.04769 0.0
O100 O 0.78279 0.56945 0.99117 0.0
O101 O 0.74634 0.5468 0.13772 0.0
O102 O 0.83605 0.59121 0.09403 0.0
O103 O 0.81109 0.51577 0.05343 0.0
O104 O 0.79867 0.58868 0.13528 0.0
O105 O 0.75704 0.51481 0.10527 0.0
O106 O 0.84376 0.54933 0.04875 0.0
O107 O 0.68772 0.56844 0.07902 0.0
O108 O 0.77531 0.61161 0.03635 0.0
O109 O 0.75015 0.53591 -0.00411 0.0
Sc110 Sc 0.26533 0.5823 0.38515 0.0
Sc111 Sc 0.25575 0.53039 0.43781 0.0
Sc112 Sc 0.20345 0.58239 0.44753 0.0
O113 O 0.24176 0.56504 0.42352 0.0
C114 C 0.25935 0.62523 0.44018 0.0
C115 C 0.33425 0.55409 0.43071 0.0
C116 C 0.24883 0.55441 0.51279 0.0
C117 C 0.25604 0.52868 0.35448 0.0
C118 C 0.17879 0.59689 0.36605 0.0
C119 C 0.16901 0.52964 0.43739 0.0
O120 O 0.27236 0.61643 0.41373 0.0
O121 O 0.31339 0.53852 0.44207 0.0
O122 O 0.22863 0.57181 0.49974 0.0
O123 O 0.26055 0.55122 0.35144 0.0
O124 O 0.17353 0.59468 0.3981 0.0
O125 O 0.19916 0.51865 0.43535 0.0
O126 O 0.21052 0.5931 0.35645 0.0
O127 O 0.25374 0.51837 0.38384 0.0
O128 O 0.1671 0.55215 0.44235 0.0
O129 O 0.32189 0.57143 0.40987 0.0
O130 O 0.23528 0.61454 0.45525 0.0
O131 O 0.26003 0.53795 0.49378 0.0
Sc132 Sc 0.26617 0.40707 0.8833 0.0
Sc133 Sc 0.25052 0.45754 0.93439 0.0
Sc134 Sc 0.20067 0.40468 0.94073 0.0
O135 O 0.23956 0.42315 0.91969 0.0
C136 C 0.18292 0.39029 0.85946 0.0
C137 C 0.2572 0.46119 0.85372 0.0
C138 C 0.16214 0.45474 0.92761 0.0
C139 C 0.33136 0.43555 0.93049 0.0
C140 C 0.25872 0.36436 0.93908 0.0
C141 C 0.23964 0.43479 0.00736 0.0
O142 O 0.21233 0.39956 0.85061 0.0
O143 O 0.24484 0.46987 0.88048 0.0
O144 O 0.16051 0.43196 0.92519 0.0
O145 O 0.32074 0.41607 0.9138 0.0
O146 O 0.23897 0.37658 0.95723 0.0
O147 O 0.25823 0.44822 0.98963 0.0
O148 O 0.26706 0.37176 0.90947 0.0
O149 O 0.30912 0.45218 0.9365 0.0
O150 O 0.21493 0.42024 0.99296 0.0
O151 O 0.2686 0.43957 0.85265 0.0
O152 O 0.17982 0.38634 0.89178 0.0
O153 O 0.19261 0.4663 0.93454 0.0
Sc154 Sc 0.74397 0.41008 0.60491 0.0
Sc155 Sc 0.75915 0.46106 0.5528 0.0
Sc156 Sc 0.81009 0.40807 0.54677 0.0
O157 O 0.77082 0.42641 0.56811 0.0
C158 C 0.82891 0.39409 0.62914 0.0
C159 C 0.75192 0.46421 0.63442 0.0
C160 C 0.84686 0.45987 0.55839 0.0
C161 C 0.67853 0.43857 0.5559 0.0
C162 C 0.75213 0.36649 0.55116 0.0
C163 C 0.7694 0.43655 0.47929 0.0
O164 O 0.79735 0.4002 0.63731 0.0
O165 O 0.76028 0.47362 0.60628 0.0
O166 O 0.84842 0.43715 0.55559 0.0
O167 O 0.6891 0.42044 0.57586 0.0
O168 O 0.77592 0.37722 0.5358 0.0
O169 O 0.756 0.45271 0.49727 0.0
O170 O 0.73968 0.3752 0.578 0.0
O171 O 0.70077 0.45429 0.54706 0.0
O172 O 0.78992 0.41966 0.49357 0.0
O173 O 0.74433 0.44199 0.63687 0.0
O174 O 0.83545 0.39429 0.59729 0.0
O175 O 0.81658 0.47146 0.55661 0.0
H176 H 0.29425 0.08469 0.93657 0.0
H177 H 0.28742 0.08034 0.87199 0.0
H178 H 0.21871 0.01755 0.87765 0.0
H179 H 0.22493 0.0218 0.94199 0.0
H180 H 0.31199 0.04029 0.83998 0.0
H181 H 0.16224 0.05403 0.79331 0.0
H182 H 0.18477 0.0642 0.83639 0.0
H183 H 0.16989 0.03334 0.82993 0.0
C184 C 0.27713 0.07019 0.92405 0.0
C185 C 0.26036 0.05345 0.9445 0.0
C186 C 0.27321 0.06781 0.88715 0.0
C187 C 0.25215 0.04886 0.87011 0.0
C188 C 0.23437 0.03264 0.89027 0.0
H189 H 0.22565 0.95415 0.70222 0.0
H190 H 0.22591 0.98003 0.75388 0.0
C191 C 0.2383 0.03495 0.92711 0.0
C192 C 0.2524 0.04398 0.83206 0.0
H193 H 0.19499 0.02875 0.75605 0.0
C194 C 0.28656 0.0384 0.82122 0.0
C195 C 0.21916 0.04171 0.80776 0.0
C196 C 0.18199 0.0489 0.81736 0.0
C197 C 0.28804 0.02854 0.78758 0.0
C198 C 0.2545 0.0245 0.76434 0.0
C199 C 0.22061 0.03176 0.77418 0.0
C200 C 0.25359 0.00977 0.73207 0.0
C201 C 0.32508 0.02085 0.77812 0.0
C202 C 0.26908 0.01807 0.70277 0.0
C203 C 0.26916 0.00325 0.6731 0.0
C204 C 0.25367 0.97996 0.6724 0.0
C205 C 0.23793 0.97191 0.70184 0.0
C206 C 0.23786 0.98671 0.73134 0.0
H207 H 0.34806 0.02303 0.80072 0.0
H208 H 0.32395 0.00169 0.76959 0.0
H209 H 0.3316 0.03189 0.75554 0.0
H210 H 0.28111 0.03593 0.70291 0.0
H211 H 0.28132 0.01005 0.65079 0.0
H212 H 0.73183 0.00845 0.83824 0.0
H213 H 0.73454 0.03356 0.78569 0.0
H214 H 0.78646 0.9753 0.73663 0.0
H215 H 0.78422 0.95017 0.78872 0.0
H216 H 0.82007 0.02305 0.73243 0.0
H217 H 0.66673 0.02037 0.68851 0.0
H218 H 0.6835 0.02978 0.73336 0.0
H219 H 0.68991 -0.00083 0.72044 0.0
C220 C 0.7439 0.00099 0.8163 0.0
C221 C 0.75755 0.97721 0.81759 0.0
C222 C 0.74541 0.01537 0.78638 0.0
C223 C 0.76055 0.00616 0.75742 0.0
C224 C 0.77477 0.98268 0.75887 0.0
H225 H 0.7876 0.01969 0.54492 0.0
H226 H 0.79531 0.01405 0.60916 0.0
C227 C 0.77323 0.96831 0.78861 0.0
C228 C 0.76036 0.02031 0.72464 0.0
H229 H 0.70325 0.0373 0.64937 0.0
C230 C 0.79454 0.0266 0.71444 0.0
C231 C 0.72695 0.02497 0.70153 0.0
C232 C 0.68959 0.01817 0.71121 0.0
C233 C 0.79627 0.0365 0.68083 0.0
C234 C 0.763 0.03968 0.65683 0.0
C235 C 0.72871 0.03477 0.6679 0.0
C236 C 0.76301 0.04543 0.61895 0.0
C237 C 0.83369 0.04289 0.67104 0.0
C238 C 0.74227 0.06493 0.6032 0.0
C239 C 0.73744 0.06808 0.56641 0.0
C240 C 0.75307 0.05163 0.5447 0.0
C241 C 0.77515 0.03268 0.56079 0.0
C242 C 0.7799 0.02955 0.59758 0.0
H243 H 0.85399 0.0473 0.69504 0.0
H244 H 0.84466 0.02719 0.65785 0.0
H245 H 0.83165 0.05844 0.65246 0.0
H246 H 0.72882 0.07726 0.61928 0.0
H247 H 0.72045 0.08297 0.55495 0.0
H248 H 0.71974 0.04182 0.28222 0.0
H249 H 0.7188 0.01941 0.2269 0.0
H250 H 0.77124 0.95887 0.28592 0.0
H251 H 0.77014 0.98089 0.34167 0.0
H252 H 0.77715 0.00593 0.20071 0.0
H253 H 0.69341 0.92454 0.21908 0.0
H254 H 0.69537 0.95021 0.24838 0.0
H255 H 0.73266 0.92861 0.25327 0.0
C256 C 0.73043 0.02356 0.28333 0.0
C257 C 0.74501 0.01297 0.31591 0.0
C258 C 0.72993 0.01079 0.25182 0.0
C259 C 0.74477 0.98741 0.25227 0.0
C260 C 0.75883 0.97663 0.28497 0.0
H261 H 0.80023 0.94107 0.04677 0.0
H262 H 0.80708 0.94914 0.11075 0.0
C263 C 0.75842 0.98923 0.31671 0.0
C264 C 0.74798 0.97546 0.21815 0.0
H265 H 0.7228 0.92566 0.16763 0.0
C266 C 0.76524 0.98837 0.19347 0.0
C267 C 0.73249 0.95253 0.20887 0.0
C268 C 0.71214 0.93824 0.23365 0.0
C269 C 0.766 0.97958 0.15917 0.0
C270 C 0.75081 0.95655 0.14988 0.0
C271 C 0.73474 0.94319 0.17499 0.0
C272 C 0.74808 0.94721 0.11319 0.0
C273 C 0.7812 -0.00425 0.1328 0.0
C274 C 0.71302 0.94166 0.09406 0.0
C275 C 0.70926 0.93626 0.05792 0.0
C276 C 0.74042 0.93678 0.04031 0.0
C277 C 0.77576 0.94101 0.0598 0.0
C278 C 0.77964 0.94572 0.09619 0.0
H279 H 0.78244 0.01489 0.14147 0.0
H280 H 0.80989 0.99003 0.13033 0.0
H281 H 0.76392 -0.00528 0.10615 0.0
H282 H 0.68831 0.94261 0.10669 0.0
H283 H 0.68173 0.93302 0.04337 0.0
H284 H 0.28259 0.03741 0.20514 0.0
H285 H 0.27919 0.01534 0.26 0.0
H286 H 0.2187 0.95816 0.19965 0.0
H287 H 0.22387 0.97984 0.14425 0.0
H288 H 0.21687 0.00578 0.28419 0.0
H289 H 0.29092 0.91982 0.26817 0.0
H290 H 0.29361 0.94537 0.23932 0.0
H291 H 0.25313 0.92637 0.23336 0.0
C292 C 0.26923 0.0199 0.2036 0.0
C293 C 0.25346 0.01023 0.17073 0.0
C294 C 0.26721 0.00734 0.23488 0.0
C295 C 0.24871 0.98509 0.23394 0.0
C296 C 0.23373 0.97505 0.20096 0.0
H297 H 0.19451 0.94591 0.44422 0.0
H298 H 0.18498 0.95285 0.37982 0.0
C299 C 0.23655 0.98744 0.16942 0.0
C300 C 0.24308 0.97375 0.26792 0.0
H301 H 0.26389 0.92425 0.32035 0.0
C302 C 0.22701 0.9879 0.29209 0.0
C303 C 0.25613 0.95038 0.27795 0.0
C304 C 0.2747 0.93463 0.25351 0.0
C305 C 0.22575 0.98003 0.32682 0.0
C306 C 0.23923 0.95675 0.33713 0.0
C307 C 0.25342 0.94203 0.3123 0.0
C308 C 0.24306 0.94864 0.37459 0.0
C309 C 0.21226 -0.00255 0.35258 0.0
C310 C 0.27836 0.94237 0.3925 0.0
C311 C 0.28359 0.93768 0.4289 0.0
C312 C 0.25373 0.93959 0.44812 0.0
C313 C 0.21808 0.94478 0.43 0.0
C314 C 0.21266 0.94883 0.39332 0.0
H315 H 0.21165 0.01632 0.34268 0.0
H316 H 0.18355 0.99256 0.35627 0.0
H317 H 0.23026 -0.00314 0.37889 0.0
H318 H 0.30222 0.94206 0.37861 0.0
H319 H 0.31137 0.93367 0.44227 0.0
H320 H 0.72375 0.45255 0.69461 0.0
H321 H 0.71936 0.47811 0.74572 0.0
H322 H 0.76984 0.53681 0.69609 0.0
H323 H 0.77451 0.51127 0.64438 0.0
H324 H 0.80254 0.52561 0.76728 0.0
H325 H 0.65004 0.53599 0.75554 0.0
H326 H 0.6639 0.50529 0.75049 0.0
H327 H 0.67296 0.52753 0.71844 0.0
C328 C 0.73384 0.47091 0.69434 0.0
C329 C 0.74956 0.47985 0.6654 0.0
C330 C 0.73089 0.48557 0.72343 0.0
C331 C 0.74353 0.50944 0.7242 0.0
C332 C 0.75945 0.5185 0.69559 0.0
H333 H 0.77777 0.58598 0.92897 0.0
H334 H 0.7698 0.58161 0.86432 0.0
C335 C 0.7622 0.50385 0.66622 0.0
C336 C 0.74286 0.52389 0.75655 0.0
H337 H 0.6849 0.54053 0.81464 0.0
C338 C 0.77688 0.52955 0.77737 0.0
C339 C 0.70924 0.52898 0.76932 0.0
C340 C 0.67194 0.52435 0.7471 0.0
C341 C 0.77829 0.53823 0.81212 0.0
C342 C 0.74467 0.54171 0.82584 0.0
C343 C 0.71057 0.53772 0.80401 0.0
C344 C 0.74462 0.54629 0.86399 0.0
C345 C 0.81574 0.54183 0.83473 0.0
C346 C 0.73149 0.52833 0.88485 0.0
C347 C 0.73576 0.53076 0.9217 0.0
C348 C 0.75337 0.55122 0.9383 0.0
C349 C 0.76459 0.56982 0.91706 0.0
C350 C 0.76012 0.56739 0.88015 0.0
H351 H 0.83885 0.53478 0.82171 0.0
H352 H 0.82054 0.56136 0.83971 0.0
H353 H 0.81663 0.53274 0.86087 0.0
H354 H 0.71935 0.51192 0.87272 0.0
H355 H 0.72655 0.51618 0.93718 0.0
H356 H 0.285 0.51772 0.55174 0.0
H357 H 0.29188 0.51216 0.61599 0.0
H358 H 0.24014 0.58109 0.62694 0.0
H359 H 0.23258 0.5868 0.56254 0.0
H360 H 0.32517 0.54043 0.67595 0.0
H361 H 0.17123 0.53179 0.66594 0.0
H362 H 0.19435 0.53081 0.62726 0.0
H363 H 0.18895 0.55899 0.64904 0.0
C364 C 0.27547 0.53187 0.56775 0.0
C365 C 0.25759 0.55249 0.55191 0.0
C366 C 0.27957 0.52869 0.60448 0.0
C367 C 0.26596 0.54605 0.62594 0.0
C368 C 0.25025 0.56734 0.61061 0.0
H369 H 0.2312 0.50742 0.84257 0.0
H370 H 0.23612 0.53333 0.79133 0.0
C371 C 0.246 0.57053 0.57383 0.0
C372 C 0.26543 0.54061 0.66376 0.0
H373 H 0.20696 0.52236 0.72057 0.0
C374 C 0.29936 0.5369 0.686 0.0
C375 C 0.23162 0.53618 0.67669 0.0
C376 C 0.19439 0.53947 0.65357 0.0
C377 C 0.30039 0.52766 0.7204 0.0
C378 C 0.26665 0.52169 0.73239 0.0
C379 C 0.23272 0.52695 0.7111 0.0
C380 C 0.2659 0.50704 0.76459 0.0
C381 C 0.33755 0.52361 0.74318 0.0
C382 C 0.28045 0.48363 0.76599 0.0
C383 C 0.27745 0.46875 0.79488 0.0
C384 C 0.25968 0.477 0.82293 0.0
C385 C 0.24509 0.50053 0.82143 0.0
C386 C 0.24799 0.5154 0.79233 0.0
H387 H 0.35899 0.53601 0.73559 0.0
H388 H 0.33576 0.52617 0.77182 0.0
H389 H 0.34683 0.50487 0.73932 0.0
H390 H 0.29349 0.47666 0.74433 0.0
H391 H 0.28902 0.45076 0.79511 0.0
H392 H 0.223 0.54121 0.28858 0.0
H393 H 0.22252 0.51867 0.23351 0.0
H394 H 0.28483 0.46135 0.29185 0.0
H395 H 0.28364 0.48346 0.34752 0.0
H396 H 0.2814 0.50807 0.20517 0.0
H397 H 0.20815 0.42308 0.22843 0.0
H398 H 0.20819 0.44897 0.2571 0.0
H399 H 0.24791 0.42933 0.26122 0.0
C400 C 0.23609 0.52363 0.28968 0.0
C401 C 0.25345 0.51403 0.32209 0.0
C402 C 0.23581 0.51077 0.25827 0.0
C403 C 0.25349 0.48827 0.25857 0.0
C404 C 0.27031 0.47841 0.29108 0.0
H405 H 0.30471 0.44386 0.05074 0.0
H406 H 0.31303 0.45234 0.11463 0.0
C407 C 0.26983 0.49108 0.32277 0.0
C408 C 0.2565 0.47641 0.22433 0.0
H409 H 0.23419 0.42563 0.17515 0.0
C410 C 0.2711 0.49002 0.19861 0.0
C411 C 0.24307 0.45287 0.21594 0.0
C412 C 0.22564 0.43776 0.24198 0.0
C413 C 0.27119 0.48125 0.16419 0.0
C414 C 0.25802 0.45762 0.15575 0.0
C415 C 0.24459 0.44363 0.18185 0.0
C416 C 0.25476 0.44814 0.11909 0.0
C417 C 0.28347 0.49798 0.13684 0.0
C418 C 0.21979 0.44122 0.10112 0.0
C419 C 0.21524 0.43565 0.06498 0.0
C420 C 0.24548 0.43733 0.04623 0.0
C421 C 0.28086 0.44291 0.06461 0.0
C422 C 0.28559 0.44784 0.10097 0.0
H423 H 0.28319 0.51715 0.14525 0.0
H424 H 0.31235 0.49346 0.13325 0.0
H425 H 0.26528 0.49619 0.11076 0.0
H426 H 0.19566 0.44123 0.11465 0.0
H427 H 0.1877 0.43131 0.05134 0.0
H428 H 0.73451 0.53729 0.19904 0.0
H429 H 0.73383 0.5118 0.25104 0.0
H430 H 0.76816 0.45079 0.19392 0.0
H431 H 0.769 0.47619 0.14125 0.0
H432 H 0.69173 0.46416 0.253 0.0
H433 H 0.84602 0.45991 0.28953 0.0
H434 H 0.82403 0.48392 0.26194 0.0
H435 H 0.82482 0.454 0.24437 0.0
C436 C 0.74198 0.51848 0.19735 0.0
C437 C 0.75198 0.50882 0.16598 0.0
C438 C 0.74137 0.50394 0.22706 0.0
C439 C 0.75093 0.47954 0.2261 0.0
C440 C 0.76077 0.46966 0.19497 0.0
H441 H 0.79253 0.40537 0.43127 0.0
H442 H 0.78387 0.40947 0.36658 0.0
C443 C 0.76124 0.4842 0.16502 0.0
C444 C 0.75146 0.46498 0.25849 0.0
H445 H 0.81016 0.44696 0.33213 0.0
C446 C 0.71755 0.45985 0.27008 0.0
C447 C 0.78524 0.45925 0.2803 0.0
C448 C 0.82225 0.46452 0.26868 0.0
C449 C 0.71658 0.45039 0.30406 0.0
C450 C 0.75039 0.44659 0.32708 0.0
C451 C 0.78428 0.45003 0.31443 0.0
C452 C 0.75146 0.44219 0.36549 0.0
C453 C 0.6794 0.44533 0.3154 0.0
C454 C 0.73598 0.45923 0.38619 0.0
C455 C 0.74088 0.45701 0.4231 0.0
C456 C 0.76174 0.43784 0.44004 0.0
C457 C 0.77642 0.42043 0.41911 0.0
C458 C 0.77143 0.42266 0.38214 0.0
H459 H 0.65826 0.44062 0.29216 0.0
H460 H 0.68123 0.43039 0.33503 0.0
H461 H 0.66961 0.46176 0.32778 0.0
H462 H 0.72131 0.4748 0.37392 0.0
H463 H 0.7292 0.47074 0.43834 0.0
H464 H 0.41564 0.04838 0.08238 0.0
H465 H 0.4712 0.03399 0.06025 0.0
H466 H 0.41014 0.97265 0.01253 0.0
H467 H 0.35422 0.98695 0.03441 0.0
H468 H 0.51247 0.98753 0.05945 0.0
H469 H 0.4352 0.01787 0.92921 0.0
H470 H 0.42143 0.02629 0.97114 0.0
H471 H 0.412 -0.00352 0.9538 0.0
C472 C 0.41437 0.03139 0.06822 0.0
C473 C 0.38051 0.01903 0.05937 0.0
C474 C 0.44609 0.02322 0.05565 0.0
C475 C 0.44419 0.00268 0.03414 0.0
C476 C 0.41169 0.98875 0.02879 0.0
H477 H 0.58849 0.94275 0.90093 0.0
H478 H 0.53424 0.95731 0.92498 0.0
C479 C 0.37992 -0.00315 0.04151 0.0
C480 C 0.47419 -0.00197 0.01327 0.0
H481 H 0.49526 0.00204 0.92909 0.0
C482 C 0.50885 0.99063 0.03097 0.0
C483 C 0.46909 0.00248 0.97622 0.0
C484 C 0.43255 0.01139 0.95635 0.0
C485 C 0.53867 0.987 0.0123 0.0
C486 C 0.53359 0.99148 0.97523 0.0
C487 C 0.49892 -0.00108 0.95756 0.0
C488 C 0.56346 0.98677 0.95417 0.0
C489 C 0.57507 0.97785 0.03218 0.0
C490 C 0.59684 -0.00026 0.9606 0.0
C491 C 0.62796 0.99148 0.94692 0.0
C492 C 0.62584 0.97013 0.92683 0.0
C493 C 0.5911 0.959 0.9169 0.0
C494 C 0.56008 0.96727 0.93058 0.0
H495 H 0.57202 0.97077 0.05892 0.0
H496 H 0.58658 0.96334 0.01696 0.0
H497 H 0.59549 0.99284 0.03577 0.0
H498 H 0.5995 0.01518 0.97822 0.0
H499 H 0.65425 0.00059 0.95476 0.0
H500 H 0.41248 0.94065 0.58456 0.0
H501 H 0.46851 0.95435 0.56293 0.0
H502 H 0.40708 0.01278 0.50682 0.0
H503 H 0.35052 -0.00102 0.52784 0.0
H504 H 0.43993 0.98069 0.4636 0.0
H505 H 0.54119 0.01088 0.5793 0.0
H506 H 0.51995 0.98231 0.58561 0.0
H507 H 0.49186 0.00908 0.58053 0.0
C508 C 0.41107 0.95684 0.56847 0.0
C509 C 0.37699 0.96848 0.5573 0.0
C510 C 0.44318 0.96472 0.55634 0.0
C511 C 0.4417 0.98447 0.53326 0.0
C512 C 0.40853 -0.00255 0.52465 0.0
H513 H 0.59097 0.04686 0.40894 0.0
H514 H 0.53514 0.03097 0.42868 0.0
C515 C 0.37634 0.9896 0.5368 0.0
C516 C 0.47302 0.98917 0.51405 0.0
H517 H 0.56511 0.00299 0.5256 0.0
C518 C 0.46728 0.98576 0.47705 0.0
C519 C 0.50858 -0.00465 0.53192 0.0
C520 C 0.5158 -0.00017 0.57149 0.0
C521 C 0.49647 0.98831 0.45731 0.0
C522 C 0.53198 -0.00542 0.47517 0.0
C523 C 0.53778 -0.00217 0.51219 0.0
C524 C 0.56289 0.00022 0.45589 0.0
C525 C 0.48926 0.98412 0.41768 0.0
C526 C 0.59648 0.98757 0.46357 0.0
C527 C 0.62849 -0.00339 0.45236 0.0
C528 C 0.62717 0.01861 0.43391 0.0
C529 C 0.59276 0.02998 0.42348 0.0
C530 C 0.56081 0.02086 0.4345 0.0
H531 H 0.46383 0.97314 0.40969 0.0
H532 H 0.48522 0.00175 0.40385 0.0
H533 H 0.51321 0.97494 0.40855 0.0
H534 H 0.59839 0.97161 0.48019 0.0
H535 H 0.65467 0.9875 0.46075 0.0
H536 H 0.84626 0.48272 0.02172 0.0
H537 H 0.90197 0.46635 0.00159 0.0
H538 H 0.96763 0.5236 0.05627 0.0
H539 H 0.91234 0.53996 0.07643 0.0
H540 H 0.93615 0.49837 0.95781 0.0
H541 H 0.03709 0.46486 0.07131 0.0
H542 H 0.98783 0.467 0.07286 0.0
H543 H 0.01673 0.49339 0.07953 0.0
C544 C 0.87289 0.49113 0.03073 0.0
C545 C 0.87516 0.51272 0.05015 0.0
C546 C 0.90455 0.48185 0.01911 0.0
C547 C 0.93866 0.49386 0.02745 0.0
C548 C 0.94158 0.51396 0.04996 0.0
H549 H 0.1517 0.49746 0.96011 0.0
H550 H 0.09346 0.51053 0.97852 0.0
C551 C 0.90999 0.52334 0.06128 0.0
C552 C 0.96929 0.48853 0.00766 0.0
H553 H 0.06159 0.47555 0.01854 0.0
C554 C 0.96352 0.49303 0.9709 0.0
C555 C 0.00483 0.48197 0.02509 0.0
C556 C 0.01201 0.47631 0.06434 0.0
C557 C 0.99289 0.49178 0.95115 0.0
C558 C 0.02858 0.48564 0.96873 0.0
C559 C 0.03417 0.4807 0.00536 0.0
C560 C 0.06034 0.4825 0.94956 0.0
C561 C 0.98577 0.4976 0.91195 0.0
C562 C 0.06019 0.46339 0.92554 0.0
C563 C 0.09327 0.45595 0.9149 0.0
C564 C 0.12689 0.4674 0.92854 0.0
C565 C 0.12622 0.48827 0.9493 0.0
C566 C 0.09306 0.49568 0.95998 0.0
H567 H 0.9598 0.50817 0.90469 0.0
H568 H 0.0093 0.50791 0.90392 0.0
H569 H 0.98281 0.48056 0.89654 0.0
H570 H 0.03522 0.4529 0.9175 0.0
H571 H 0.093 0.43998 0.89848 0.0
H572 H 0.16261 0.48604 0.46858 0.0
H573 H 0.10581 0.47075 0.48803 0.0
H574 H 0.04276 0.5279 0.43019 0.0
H575 H 0.09909 0.5431 0.41067 0.0
H576 H 0.07255 0.50385 0.53 0.0
H577 H 0.97079 0.4708 0.41685 0.0
H578 H 0.02011 0.47227 0.4153 0.0
H579 H 0.99197 0.49896 0.4081 0.0
C580 C 0.13629 0.49456 0.45866 0.0
C581 C 0.135 0.51585 0.43859 0.0
C582 C 0.10402 0.48593 0.46991 0.0
C583 C 0.07034 0.4983 0.46057 0.0
C584 C 0.06843 0.51796 0.43728 0.0
H585 H 0.8565 0.50338 0.528 0.0
H586 H 0.91474 0.51733 0.5102 0.0
C587 C 0.10061 0.52669 0.4263 0.0
C588 C 0.03926 0.49399 0.48023 0.0
H589 H 0.94648 0.48247 0.46926 0.0
C590 C 0.04503 0.49885 0.51689 0.0
C591 C 0.00349 0.48796 0.46276 0.0
C592 C 0.99621 0.48199 0.42363 0.0
C593 C 0.01555 0.49824 0.53655 0.0
C594 C 0.97973 0.49243 0.519 0.0
C595 C 0.97403 0.48737 0.48241 0.0
C596 C 0.94815 0.48909 0.53833 0.0
C597 C 0.02276 0.5042 0.57569 0.0
C598 C 0.94847 0.46955 0.56166 0.0
C599 C 0.91542 0.46158 0.57178 0.0
C600 C 0.88176 0.47302 0.55848 0.0
C601 C 0.88216 0.49431 0.53861 0.0
C602 C 0.91529 0.5022 0.5283 0.0
H603 H 0.04886 0.51467 0.58281 0.0
H604 H 0.99936 0.51466 0.58364 0.0
H605 H 0.02554 0.48721 0.59126 0.0
H606 H 0.97353 0.45908 0.56934 0.0
H607 H 0.91574 0.44522 0.58741 0.0
H608 H 0.14798 0.03759 0.99168 0.0
H609 H 0.08838 0.01862 0.96989 0.0
H610 H 0.0558 0.02638 0.07365 0.0
H611 H 0.11565 0.04595 0.09544 0.0
H612 H 0.06646 0.97598 -0.00545 0.0
H613 H 0.96115 0.04604 0.00916 0.0
H614 H 0.00982 0.05303 0.01081 0.0
H615 H 0.9933 0.04032 0.04897 0.0
C616 C 0.12761 0.036 0.00957 0.0
C617 C 0.13634 0.04351 0.04519 0.0
C618 C 0.09362 0.02493 -0.00286 0.0
C619 C 0.06741 0.02096 0.02 0.0
C620 C 0.07522 0.02956 0.05523 0.0
H621 H 0.85606 0.94554 -0.00503 0.0
H622 H 0.91586 0.96391 0.01813 0.0
C623 C 0.10935 0.04088 0.06769 0.0
C624 C 0.03366 0.00611 0.00743 0.0
H625 H 0.93866 0.00665 -0.00544 0.0
C626 C 0.0385 0.98274 -0.00554 0.0
C627 C 0.99711 0.0148 0.00731 0.0
C628 C 0.98986 0.03999 0.01949 0.0
C629 C 0.00802 0.96781 0.98185 0.0
C630 C 0.97147 0.97653 0.98164 0.0
C631 C 0.96662 -0.00013 -0.00529 0.0
C632 C 0.93772 0.96184 0.96845 0.0
C633 C 0.01527 0.94264 0.96962 0.0
C634 C 0.93037 0.95359 0.93301 0.0
C635 C 0.89618 0.9426 0.91982 0.0
C636 C 0.86875 0.93989 0.94179 0.0
C637 C 0.87695 0.94705 0.9776 0.0
C638 C 0.911 0.9578 0.99077 0.0
H639 H 0.04385 0.9365 0.98029 0.0
H640 H 0.99506 0.92962 0.97791 0.0
H641 H 0.0123 0.94241 0.94016 0.0
H642 H 0.95015 0.95685 0.91499 0.0
H643 H 0.89018 0.93791 0.89189 0.0
H644 H 0.86199 0.01133 0.39728 0.0
H645 H 0.92126 0.99323 0.42273 0.0
H646 H 0.94488 0.05454 0.49213 0.0
H647 H 0.88485 0.07267 0.46669 0.0
H648 H 0.99515 0.00596 0.43091 0.0
H649 H 0.9468 -0.0016 0.56211 0.0
H650 H 0.9161 0.00666 0.52212 0.0
H651 H 0.94749 0.02853 0.54494 0.0
C652 C 0.8804 0.02132 0.41718 0.0
C653 C 0.86905 0.04352 0.42974 0.0
C654 C 0.91417 0.01087 0.4319 0.0
C655 C 0.93726 0.0222 0.45994 0.0
C656 C 0.9272 0.04521 0.47099 0.0
H657 H 0.14094 0.98015 0.592 0.0
H658 H 0.08167 -0.002 0.56612 0.0
C659 C 0.89325 0.05578 0.45605 0.0
C660 C 0.97042 0.00904 0.4786 0.0
H661 H 0.00752 0.98453 0.55878 0.0
C662 C 0.99784 0.00127 0.45887 0.0
C663 C 0.97378 0.00262 0.51502 0.0
C664 C 0.94437 0.00925 0.53731 0.0
C665 C 0.02883 0.98781 0.47465 0.0
C666 C 0.03224 0.98146 0.51109 0.0
C667 C 0.00479 0.98919 0.53081 0.0
C668 C 0.06557 0.96854 0.52985 0.0
C669 C 0.0582 0.98108 0.45239 0.0
C670 C 0.0756 0.94537 0.51943 0.0
C671 C 0.10956 0.93491 0.53464 0.0
C672 C 0.13388 0.94752 0.56046 0.0
C673 C 0.12257 0.96994 0.57235 0.0
C674 C 0.08876 0.98024 0.55742 0.0
H675 H 0.05547 0.99162 0.42728 0.0
H676 H 0.08647 0.98403 0.4674 0.0
H677 H 0.05543 0.96169 0.44536 0.0
H678 H 0.05783 0.93577 0.49863 0.0
H679 H 0.11785 0.91782 0.52459 0.0
H680 H 0.35985 0.44411 -0.00113 0.0
H681 H 0.41884 0.46394 0.02093 0.0
H682 H 0.45011 0.45973 0.91625 0.0
H683 H 0.39058 0.43983 0.894 0.0
H684 H 0.49464 0.45359 0.0224 0.0
H685 H 0.45032 0.5327 0.9368 0.0
H686 H 0.41875 0.50878 0.94419 0.0
H687 H 0.45131 0.50453 0.91367 0.0
C688 C 0.37991 0.44662 0.98085 0.0
C689 C 0.37088 0.44011 0.94483 0.0
C690 C 0.41351 0.45816 0.99343 0.0
C691 C 0.43867 0.46384 0.97016 0.0
C692 C 0.43086 0.45591 0.93461 0.0
H693 H 0.64315 0.54443 0.99062 0.0
H694 H 0.58336 0.52516 0.97061 0.0
C695 C 0.39717 0.44415 0.92201 0.0
C696 C 0.47156 0.47936 0.98289 0.0
H697 H 0.50993 0.5346 0.97132 0.0
C698 C 0.49799 0.47131 0.01125 0.0
C699 C 0.47576 0.50264 0.96865 0.0
C700 C 0.44743 0.51286 0.93936 0.0
C701 C 0.52892 0.48553 0.02507 0.0
C702 C 0.53319 0.50881 0.01078 0.0
C703 C 0.5066 0.5169 0.98254 0.0
C704 C 0.56658 0.52412 0.02275 0.0
C705 C 0.55739 0.47515 0.0541 0.0
C706 C 0.57638 0.53137 0.05847 0.0
C707 C 0.61068 0.54274 0.06998 0.0
C708 C 0.63557 0.54711 0.04586 0.0
C709 C 0.62434 0.54154 0.00974 0.0
C710 C 0.59023 0.53033 -0.0017 0.0
H711 H 0.55453 0.45529 0.05637 0.0
H712 H 0.58603 0.47927 0.04921 0.0
H713 H 0.55361 0.48326 0.07996 0.0
H714 H 0.55825 0.52729 0.07776 0.0
H715 H 0.61887 0.54642 0.09804 0.0
H716 H 0.62059 0.44436 0.59359 0.0
H717 H 0.56077 0.46393 0.57151 0.0
H718 H 0.5891 0.46494 0.46553 0.0
H719 H 0.64839 0.44554 0.48743 0.0
H720 H 0.5569 0.51011 0.53961 0.0
H721 H 0.48044 0.44369 0.44719 0.0
H722 H 0.51897 0.4353 0.48067 0.0
H723 H 0.5273 0.44889 0.43969 0.0
C724 C 0.6132 0.44778 0.56536 0.0
C725 C 0.63879 0.44297 0.5421 0.0
C726 C 0.57927 0.45927 0.55281 0.0
C727 C 0.57019 0.46583 0.51674 0.0
C728 C 0.59494 0.45973 0.49326 0.0
H729 H 0.38973 0.54731 0.39019 0.0
H730 H 0.45039 0.52834 0.41073 0.0
C731 C 0.62883 0.44852 0.5058 0.0
C732 C 0.53704 0.48116 0.50409 0.0
H733 H 0.45778 0.48398 0.44302 0.0
C734 C 0.53506 0.5043 0.5187 0.0
C735 C 0.5088 0.47383 0.47636 0.0
C736 C 0.50869 0.44899 0.46023 0.0
C737 C 0.50601 0.52034 0.50612 0.0
C738 C 0.47757 0.51296 0.47856 0.0
C739 C 0.47964 0.48983 0.46387 0.0
C740 C 0.44403 0.52811 0.46642 0.0
C741 C 0.50655 0.54526 0.52203 0.0
C742 C 0.4207 0.53503 0.49082 0.0
C743 C 0.38645 0.54602 0.47915 0.0
C744 C 0.37452 0.55042 0.44278 0.0
C745 C 0.39864 0.54481 0.41844 0.0
C746 C 0.43305 0.53363 0.43016 0.0
H747 H 0.53523 0.55084 0.53336 0.0
H748 H 0.49476 0.55882 0.50196 0.0
H749 H 0.48966 0.54527 0.54397 0.0
H750 H 0.42786 0.53056 0.51873 0.0
H751 H 0.36805 0.5496 0.49841 0.0
H752 H 0.37364 0.13306 0.13668 0.0
H753 H 0.43319 0.1361 0.17605 0.0
H754 H 0.40535 0.07325 0.23342 0.0
H755 H 0.34469 0.07109 0.19519 0.0
H756 H 0.4438 0.10204 0.27797 0.0
H757 H 0.51872 0.09515 0.16262 0.0
H758 H 0.48972 0.12137 0.15925 0.0
H759 H 0.46904 0.09179 0.15836 0.0
C760 C 0.37982 0.12033 0.15838 0.0
C761 C 0.3544 0.10194 0.16299 0.0
C762 C 0.41422 0.12179 0.1805 0.0
C763 C 0.42471 0.10433 0.20694 0.0
C764 C 0.39833 0.08682 0.21302 0.0
H765 H 0.65703 0.07439 0.29593 0.0
H766 H 0.59571 0.07602 0.25891 0.0
C767 C 0.36344 0.0857 0.19136 0.0
C768 C 0.46335 0.10396 0.22742 0.0
H769 H 0.55538 0.10567 0.21786 0.0
C770 C 0.46815 0.10275 0.26474 0.0
C771 C 0.49549 0.10416 0.21041 0.0
C772 C 0.49303 0.1029 0.17047 0.0
C773 C 0.50375 0.10224 0.28537 0.0
C774 C 0.53584 0.10409 0.26843 0.0
C775 C 0.53105 0.10478 0.23109 0.0
C776 C 0.57449 0.10469 0.28889 0.0
C777 C 0.50639 0.0989 0.32506 0.0
C778 C 0.58403 0.12099 0.3171 0.0
C779 C 0.61887 0.11981 0.33855 0.0
C780 C 0.6456 0.10288 0.33162 0.0
C781 C 0.63724 0.08785 0.30171 0.0
C782 C 0.60199 0.08866 0.28069 0.0
H783 H 0.48124 0.08983 0.33204 0.0
H784 H 0.53111 0.08804 0.33602 0.0
H785 H 0.50849 0.1168 0.33818 0.0
H786 H 0.56415 0.13424 0.32325 0.0
H787 H 0.62451 0.13168 0.36134 0.0
H788 H 0.62909 0.85578 0.8502 0.0
H789 H 0.56917 0.85327 0.8115 0.0
H790 H 0.59792 0.91557 0.75344 0.0
H791 H 0.65875 0.91735 0.79122 0.0
H792 H 0.51521 0.8834 0.80695 0.0
H793 H 0.55255 0.87592 0.67183 0.0
H794 H 0.58647 0.87238 0.71127 0.0
H795 H 0.5729 0.90202 0.69477 0.0
C796 C 0.62314 0.86844 0.82839 0.0
C797 C 0.64896 0.88654 0.82348 0.0
C798 C 0.58863 0.86715 0.80642 0.0
C799 C 0.57864 0.88413 0.77919 0.0
C800 C 0.60496 0.9018 0.7735 0.0
H801 H 0.34537 0.91751 0.69516 0.0
H802 H 0.40691 0.91535 0.73146 0.0
C803 C 0.63991 0.90281 0.79513 0.0
C804 C 0.53985 0.88427 0.75891 0.0
H805 H 0.48947 0.88585 0.67532 0.0
C806 C 0.5097 0.88374 0.77812 0.0
C807 C 0.53219 0.88452 0.72125 0.0
C808 C 0.56274 0.88349 0.69858 0.0
C809 C 0.47253 0.8835 0.76099 0.0
C810 C 0.46486 0.88468 0.72336 0.0
C811 C 0.495 0.88512 0.70413 0.0
C812 C 0.42603 0.88503 0.70321 0.0
C813 C 0.44201 0.88129 0.78355 0.0
C814 C 0.4158 0.86891 0.6749 0.0
C815 C 0.38082 0.87042 0.65375 0.0
C816 C 0.3548 0.88793 0.66051 0.0
C817 C 0.36435 0.90345 0.68971 0.0
C818 C 0.3997 0.90221 0.71053 0.0
H819 H 0.45228 0.87277 0.80964 0.0
H820 H 0.43171 0.89954 0.78887 0.0
H821 H 0.41836 0.87047 0.77 0.0
H822 H 0.43529 0.85544 0.66855 0.0
H823 H 0.37453 0.85828 0.63134 0.0
H824 H 0.9007 0.60252 0.11319 0.0
H825 H 0.95764 0.60552 0.15485 0.0
H826 H 0.89597 0.59794 0.24242 0.0
H827 H 0.83799 0.59373 0.20017 0.0
H828 H 0.98446 0.6355 0.20396 0.0
H829 H 0.97211 0.54672 0.26841 0.0
H830 H 0.94094 0.55591 0.22927 0.0
H831 H 0.9344 0.56682 0.27244 0.0
C832 C 0.89876 0.6015 0.14128 0.0
C833 C 0.86427 0.59762 0.15307 0.0
C834 C 0.93174 0.6033 0.16524 0.0
C835 C 0.93166 0.60148 0.20197 0.0
C836 C 0.89716 0.5987 0.21419 0.0
H837 H 0.11116 0.6124 0.37933 0.0
H838 H 0.05281 0.61434 0.3387 0.0
C839 C 0.86384 0.5966 0.19 0.0
C840 C 0.96798 0.60232 0.22667 0.0
H841 H 0.02359 0.57095 0.29184 0.0
C842 C 0.99291 0.6213 0.22309 0.0
C843 C 0.97955 0.58375 0.25157 0.0
C844 C 0.95556 0.56203 0.2555 0.0
C845 C 0.02857 0.62225 0.24359 0.0
C846 C 0.03981 0.60385 0.26857 0.0
C847 C 0.01497 0.58501 0.27253 0.0
C848 C 0.07655 0.60439 0.29212 0.0
C849 C 0.05399 0.64306 0.23882 0.0
C850 C 0.10981 0.59858 0.27937 0.0
C851 C 0.14373 0.59731 0.30279 0.0
C852 C 0.14494 0.60186 0.33938 0.0
C853 C 0.11162 0.60864 0.35147 0.0
C854 C 0.07799 0.60973 0.32825 0.0
H855 H 0.03998 0.65708 0.22069 0.0
H856 H 0.06432 0.65142 0.26498 0.0
H857 H 0.0785 0.63631 0.22766 0.0
H858 H 0.10933 0.5943 0.25153 0.0
H859 H 0.16859 0.59184 0.2925 0.0
H860 H 0.89033 0.36799 0.62116 0.0
H861 H 0.94874 0.36514 0.66148 0.0
H862 H 0.90154 0.40537 0.7406 0.0
H863 H 0.84251 0.40881 0.69955 0.0
H864 H 0.96977 0.42309 0.73108 0.0
H865 H 0.98088 0.32431 0.74796 0.0
H866 H 0.9733 0.3328 0.70195 0.0
H867 H 0.93804 0.33889 0.72922 0.0
C868 C 0.89191 0.37588 0.64739 0.0
C869 C 0.8614 0.38856 0.65704 0.0
C870 C 0.92552 0.37412 0.67059 0.0
C871 C 0.92975 0.38477 0.7044 0.0
C872 C 0.89904 0.39686 0.71472 0.0
H873 H 0.12214 0.36313 0.86736 0.0
H874 H 0.06203 0.3621 0.8293 0.0
C875 C 0.86512 0.39861 0.69138 0.0
C876 C 0.96693 0.3844 0.72764 0.0
H877 H 0.0372 0.34672 0.76368 0.0
C878 C 0.98436 0.40637 0.73845 0.0
C879 C 0.98615 0.36263 0.7376 0.0
C880 C 0.96848 0.33833 0.72889 0.0
C881 C 0.02048 0.40718 0.75816 0.0
C882 C 0.04031 0.38543 0.76677 0.0
C883 C 0.02253 0.36346 0.75661 0.0
C884 C 0.07844 0.38494 0.7883 0.0
C885 C 0.0367 0.43135 0.77022 0.0
C886 C 0.10864 0.39738 0.77757 0.0
C887 C 0.14351 0.39801 0.79949 0.0
C888 C 0.14897 0.38611 0.83259 0.0
C889 C 0.11917 0.37263 0.8422 0.0
C890 C 0.08454 0.37203 0.8204 0.0
H891 H 0.01484 0.44539 0.76956 0.0
H892 H 0.05225 0.4303 0.79766 0.0
H893 H 0.05627 0.43718 0.75219 0.0
H894 H 0.1051 0.407 0.75251 0.0
H895 H 0.16563 0.40864 0.79121 0.0
H896 H 0.23096 0.16224 0.09491 0.0
H897 H 0.22985 0.20438 0.07469 0.0
H898 H 0.23537 0.1804 0.9678 0.0
H899 H 0.23646 0.13859 0.98773 0.0
H900 H 0.29152 0.22213 0.04406 0.0
H901 H 0.159 0.23537 0.95271 0.0
H902 H 0.16547 0.21158 0.98552 0.0
H903 H 0.18362 0.20843 0.94439 0.0
C904 C 0.23036 0.16602 0.06688 0.0
C905 C 0.23374 0.14726 0.04283 0.0
C906 C 0.23006 0.19003 0.05543 0.0
C907 C 0.23243 0.19545 0.01974 0.0
C908 C 0.23297 0.17663 -0.0047 0.0
H909 H 0.26703 0.32439 0.89869 0.0
H910 H 0.26576 0.28229 0.91845 0.0
C911 C 0.23365 0.15276 0.00674 0.0
C912 C 0.2394 0.22041 0.00872 0.0
H913 H 0.20653 0.2645 0.94968 0.0
C914 C 0.27277 0.23154 0.02369 0.0
C915 C 0.21523 0.23237 0.98169 0.0
C916 C 0.17866 0.22144 0.96531 0.0
C917 C 0.28289 0.25423 0.012 0.0
C918 C 0.25865 0.26626 0.98506 0.0
C919 C 0.22526 0.25512 0.97008 0.0
C920 C 0.26587 0.29116 0.97387 0.0
C921 C 0.31975 0.26492 0.0281 0.0
C922 C 0.26752 0.30996 -0.00136 0.0
C923 C 0.2684 0.33385 0.9875 0.0
C924 C 0.26741 0.33945 0.9513 0.0
C925 C 0.26821 0.3206 0.92678 0.0
C926 C 0.26714 0.29659 0.93798 0.0
H927 H 0.33958 0.25076 0.03966 0.0
H928 H 0.3325 0.27523 0.00804 0.0
H929 H 0.31536 0.27741 0.04985 0.0
H930 H 0.26598 0.30623 0.02633 0.0
H931 H 0.26778 0.348 0.00702 0.0
H932 H 0.76886 0.13931 0.50371 0.0
H933 H 0.76896 0.18111 0.52372 0.0
H934 H 0.76993 0.20553 0.41624 0.0
H935 H 0.7702 0.16348 0.39594 0.0
H936 H 0.81492 0.23356 0.47227 0.0
H937 H 0.66997 0.21888 0.49691 0.0
H938 H 0.70342 0.19776 0.51853 0.0
H939 H 0.6933 0.19838 0.47081 0.0
C940 C 0.7701 0.15358 0.48446 0.0
C941 C 0.76916 0.1482 0.44821 0.0
C942 C 0.76987 0.17742 0.4959 0.0
C943 C 0.76836 0.1963 0.47128 0.0
C944 C 0.7707 0.1911 0.43554 0.0
H945 H 0.74382 0.35056 0.48326 0.0
H946 H 0.7444 0.30869 0.46366 0.0
C947 C 0.77117 0.16713 0.42403 0.0
C948 C 0.76159 0.22119 0.48256 0.0
H949 H 0.69759 0.25636 0.51538 0.0
C950 C 0.78926 0.23861 0.48155 0.0
C951 C 0.72803 0.22762 0.49471 0.0
C952 C 0.69679 0.20977 0.49508 0.0
C953 C 0.78452 0.26229 0.493 0.0
C954 C 0.75091 0.26873 0.50508 0.0
C955 C 0.72327 0.25131 0.50614 0.0
C956 C 0.74399 0.29368 0.51607 0.0
C957 C 0.81581 0.28011 0.49269 0.0
C958 C 0.74081 0.299 0.5516 0.0
C959 C 0.73989 0.32302 0.56284 0.0
C960 C 0.74227 0.34185 0.53861 0.0
C961 C 0.74226 0.33634 0.50254 0.0
C962 C 0.7429 0.31247 0.49134 0.0
H963 H 0.84269 0.27094 0.49136 0.0
H964 H 0.80948 0.29191 0.46898 0.0
H965 H 0.819 0.2917 0.51675 0.0
H966 H 0.74122 0.28465 0.57097 0.0
H967 H 0.74016 0.32679 0.59082 0.0
H968 H 0.75901 0.84913 0.00144 0.0
H969 H 0.7598 0.8075 0.02186 0.0
H970 H 0.76963 0.78285 0.91619 0.0
H971 H 0.76843 0.8248 0.8953 0.0
H972 H 0.70909 0.76309 0.94477 0.0
H973 H 0.83922 0.75527 0.04102 0.0
H974 H 0.81164 0.78107 0.04838 0.0
H975 H 0.83172 0.77896 0.00813 0.0
C976 C 0.76231 0.83489 0.98269 0.0
C977 C 0.76352 0.8402 0.94672 0.0
C978 C 0.76293 0.8111 -0.00552 0.0
C979 C 0.76494 0.79211 0.9706 0.0
C980 C 0.76821 0.79732 0.93504 0.0
H981 H 0.74623 0.63879 0.98419 0.0
H982 H 0.74435 0.68069 0.96492 0.0
C983 C 0.76783 0.82125 0.92321 0.0
C984 C 0.75949 0.76705 0.98212 0.0
H985 H 0.79397 0.72446 0.04308 0.0
C986 C 0.72781 0.75454 0.96605 0.0
C987 C 0.78363 0.75613 0.01027 0.0
C988 C 0.81864 0.76845 0.02777 0.0
C989 C 0.7194 0.73146 0.97763 0.0
C990 C 0.7436 0.72051 0.00569 0.0
C991 C 0.77521 0.73305 0.02186 0.0
C992 C 0.73863 0.69524 0.01656 0.0
C993 C 0.68444 0.71911 0.96007 0.0
C994 C 0.73537 0.68946 0.05194 0.0
C995 C 0.7363 0.66536 0.06309 0.0
C996 C 0.74119 0.64685 0.03905 0.0
C997 C 0.74242 0.65271 0.00328 0.0
C998 C 0.7412 0.67665 0.99217 0.0
H999 H 0.66369 0.73231 0.94716 0.0
H1000 H 0.69144 0.70674 0.93917 0.0
H1001 H 0.67156 0.70835 0.97959 0.0
H1002 H 0.73356 0.70363 0.07119 0.0
H1003 H 0.73572 0.66134 0.09087 0.0
H1004 H 0.26619 0.64148 0.50787 0.0
H1005 H 0.26517 0.68342 0.52695 0.0
H1006 H 0.27151 0.70694 0.41997 0.0
H1007 H 0.2724 0.6647 0.40054 0.0
H1008 H 0.31134 0.725 0.5219 0.0
H1009 H 0.17004 0.73291 0.44289 0.0
H1010 H 0.19263 0.70422 0.4528 0.0
H1011 H 0.20644 0.72331 0.41899 0.0
C1012 C 0.26838 0.65559 0.48858 0.0
C1013 C 0.26907 0.6499 0.45267 0.0
C1014 C 0.26773 0.67952 0.49952 0.0
C1015 C 0.26743 0.69819 0.47471 0.0
C1016 C 0.27115 0.69267 0.43937 0.0
H1017 H 0.23322 0.85065 0.48782 0.0
H1018 H 0.2357 0.80872 0.46924 0.0
C1019 C 0.2721 0.66861 0.42839 0.0
C1020 C 0.26002 0.72309 0.48557 0.0
H1021 H 0.19397 0.76728 0.47486 0.0
C1022 C 0.28576 0.73432 0.51161 0.0
C1023 C 0.22636 0.73497 0.47233 0.0
C1024 C 0.19704 0.72325 0.44541 0.0
C1025 C 0.27908 0.75741 0.5243 0.0
C1026 C 0.24534 0.76927 0.51117 0.0
C1027 C 0.21961 0.75802 0.48511 0.0
C1028 C 0.23762 0.79411 0.52221 0.0
C1029 C 0.30862 0.76915 0.55098 0.0
C1030 C 0.23568 0.79971 0.55791 0.0
C1031 C 0.23412 0.82378 0.56868 0.0
C1032 C 0.23454 0.84247 0.54381 0.0
C1033 C 0.23322 0.83662 0.50765 0.0
C1034 C 0.23469 0.81267 0.49697 0.0
H1035 H 0.33589 0.75992 0.55241 0.0
H1036 H 0.31219 0.78839 0.5442 0.0
H1037 H 0.3001 0.76834 0.57774 0.0
H1038 H 0.23708 0.78554 0.57766 0.0
H1039 H 0.23524 0.82775 0.5967 0.0
loop_
_geom_bond_atom_site_label_1
_geom_bond_atom_site_label_2
_geom_bond_distance
_geom_bond_site_symmetry_2
_ccdc_geom_bond_type
Sc0 O3 2.025 . S
Sc0 O10 2.105 . S
Sc0 O13 2.105 . S
Sc0 O16 2.105 . S
Sc0 O19 2.105 . S
Sc1 O3 2.025 . S
Sc1 O11 2.105 . S
Sc1 O15 2.105 . S
Sc1 O17 2.105 . S
Sc1 O21 2.105 1_554 S
Sc2 O3 2.025 . S
Sc2 O12 2.105 1_554 S
Sc2 O14 2.105 . S
Sc2 O18 2.105 . S
Sc2 O20 2.105 . S
O3 Sc0 2.025 . S
O3 Sc1 2.025 . S
O3 Sc2 2.025 . S
C4 O10 1.268 . S
C4 O20 1.268 . S
C5 O11 1.268 . S
C5 O19 1.268 . S
C6 O12 1.268 . S
C6 O21 1.268 . S
C7 O13 1.268 . S
C7 O17 1.268 . S
C8 O14 1.268 . S
C8 O16 1.268 . S
C9 O15 1.268 . S
C9 O18 1.268 . S
O10 Sc0 2.105 . S
O10 C4 1.268 . S
O11 Sc1 2.105 . S
O11 C5 1.268 . S
O12 Sc2 2.105 1_556 S
O12 C6 1.268 . S
O13 Sc0 2.105 . S
O13 C7 1.268 . S
O14 Sc2 2.105 . S
O14 C8 1.268 . S
O15 Sc1 2.105 . S
O15 C9 1.268 . S
O16 Sc0 2.105 . S
O16 C8 1.268 . S
O17 Sc1 2.105 . S
O17 C7 1.268 . S
O18 Sc2 2.105 . S
O18 C9 1.268 . S
O19 Sc0 2.105 . S
O19 C5 1.268 . S
O20 Sc2 2.105 . S
O20 C4 1.268 . S
O21 Sc1 2.105 1_556 S
O21 C6 1.268 . S
Sc22 O25 2.025 . S
Sc22 O32 2.105 . S
Sc22 O35 2.105 . S
Sc22 O38 2.105 . S
Sc22 O41 2.105 . S
Sc23 O25 2.025 . S
Sc23 O33 2.105 . S
Sc23 O37 2.105 . S
Sc23 O39 2.105 . S
Sc23 O43 2.105 . S
Sc24 O25 2.025 . S
Sc24 O34 2.105 . S
Sc24 O36 2.105 . S
Sc24 O40 2.105 . S
Sc24 O42 2.105 . S
O25 Sc22 2.025 . S
O25 Sc23 2.025 . S
O25 Sc24 2.025 . S
C26 O32 1.268 . S
C26 O42 1.268 . S
C27 O33 1.268 . S
C27 O41 1.268 . S
C28 O34 1.268 . S
C28 O43 1.268 . S
C29 O35 1.268 . S
C29 O39 1.268 . S
C30 O36 1.268 . S
C30 O38 1.268 . S
C31 O37 1.268 . S
C31 O40 1.268 . S
O32 Sc22 2.105 . S
O32 C26 1.268 . S
O33 Sc23 2.105 . S
O33 C27 1.268 . S
O34 Sc24 2.105 . S
O34 C28 1.268 . S
O35 Sc22 2.105 . S
O35 C29 1.268 . S
O36 Sc24 2.105 . S
O36 C30 1.268 . S
O37 Sc23 2.105 . S
O37 C31 1.268 . S
O38 Sc22 2.105 . S
O38 C30 1.268 . S
O39 Sc23 2.105 . S
O39 C29 1.268 . S
O40 Sc24 2.105 . S
O40 C31 1.268 . S
O41 Sc22 2.105 . S
O41 C27 1.268 . S
O42 Sc24 2.105 . S
O42 C26 1.268 . S
O43 Sc23 2.105 . S
O43 C28 1.268 . S
Sc44 O47 2.025 . S
Sc44 O54 2.105 . S
Sc44 O57 2.105 . S
Sc44 O60 2.105 . S
Sc44 O63 2.105 . S
Sc45 O47 2.025 . S
Sc45 O55 2.105 . S
Sc45 O59 2.105 1_556 S
Sc45 O61 2.105 . S
Sc45 O65 2.105 . S
Sc46 O47 2.025 . S
Sc46 O56 2.105 . S
Sc46 O58 2.105 . S
Sc46 O62 2.105 1_556 S
Sc46 O64 2.105 . S
O47 Sc44 2.025 . S
O47 Sc45 2.025 . S
O47 Sc46 2.025 . S
C48 O54 1.268 . S
C48 O64 1.268 . S
C49 O55 1.268 . S
C49 O63 1.268 . S
C50 O56 1.268 . S
C50 O65 1.268 . S
C51 O57 1.268 . S
C51 O61 1.268 . S
C52 O58 1.268 . S
C52 O60 1.268 . S
C53 O59 1.268 . S
C53 O62 1.268 . S
O54 Sc44 2.105 . S
O54 C48 1.268 . S
O55 Sc45 2.105 . S
O55 C49 1.268 . S
O56 Sc46 2.105 . S
O56 C50 1.268 . S
O57 Sc44 2.105 . S
O57 C51 1.268 . S
O58 Sc46 2.105 . S
O58 C52 1.268 . S
O59 Sc45 2.105 1_554 S
O59 C53 1.268 . S
O60 Sc44 2.105 . S
O60 C52 1.268 . S
O61 Sc45 2.105 . S
O61 C51 1.268 . S
O62 Sc46 2.105 1_554 S
O62 C53 1.268 . S
O63 Sc44 2.105 . S
O63 C49 1.268 . S
O64 Sc46 2.105 . S
O64 C48 1.268 . S
O65 Sc45 2.105 . S
O65 C50 1.268 . S
Sc66 O69 2.025 . S
Sc66 O76 2.105 . S
Sc66 O79 2.105 . S
Sc66 O82 2.105 . S
Sc66 O85 2.105 . S
Sc67 O69 2.025 . S
Sc67 O77 2.105 . S
Sc67 O81 2.105 . S
Sc67 O83 2.105 . S
Sc67 O87 2.105 . S
Sc68 O69 2.025 . S
Sc68 O78 2.105 . S
Sc68 O80 2.105 . S
Sc68 O84 2.105 . S
Sc68 O86 2.105 . S
O69 Sc66 2.025 . S
O69 Sc67 2.025 . S
O69 Sc68 2.025 . S
C70 O76 1.268 . S
C70 O86 1.268 . S
C71 O77 1.268 . S
C71 O85 1.268 . S
C72 O78 1.268 . S
C72 O87 1.268 . S
C73 O79 1.268 . S
C73 O83 1.268 . S
C74 O80 1.268 . S
C74 O82 1.268 . S
C75 O81 1.268 . S
C75 O84 1.268 . S
O76 Sc66 2.105 . S
O76 C70 1.268 . S
O77 Sc67 2.105 . S
O77 C71 1.268 . S
O78 Sc68 2.105 . S
O78 C72 1.268 . S
O79 Sc66 2.105 . S
O79 C73 1.268 . S
O80 Sc68 2.105 . S
O80 C74 1.268 . S
O81 Sc67 2.105 . S
O81 C75 1.268 . S
O82 Sc66 2.105 . S
O82 C74 1.268 . S
O83 Sc67 2.105 . S
O83 C73 1.268 . S
O84 Sc68 2.105 . S
O84 C75 1.268 . S
O85 Sc66 2.105 . S
O85 C71 1.268 . S
O86 Sc68 2.105 . S
O86 C70 1.268 . S
O87 Sc67 2.105 . S
O87 C72 1.268 . S
Sc88 O91 2.025 . S
Sc88 O98 2.105 . S
Sc88 O101 2.105 . S
Sc88 O104 2.105 . S
Sc88 O107 2.105 . S
Sc89 O91 2.025 . S
Sc89 O99 2.105 . S
Sc89 O103 2.105 . S
Sc89 O105 2.105 . S
Sc89 O109 2.105 1_554 S
Sc90 O91 2.025 . S
Sc90 O100 2.105 1_554 S
Sc90 O102 2.105 . S
Sc90 O106 2.105 . S
Sc90 O108 2.105 . S
O91 Sc88 2.025 . S
O91 Sc89 2.025 . S
O91 Sc90 2.025 . S
C92 O98 1.268 . S
C92 O108 1.268 . S
C93 O99 1.268 . S
C93 O107 1.268 . S
C94 O100 1.268 . S
C94 O109 1.268 . S
C95 O101 1.268 . S
C95 O105 1.268 . S
C96 O102 1.268 . S
C96 O104 1.268 . S
C97 O103 1.268 . S
C97 O106 1.268 . S
O98 Sc88 2.105 . S
O98 C92 1.268 . S
O99 Sc89 2.105 . S
O99 C93 1.268 . S
O100 Sc90 2.105 1_556 S
O100 C94 1.268 . S
O101 Sc88 2.105 . S
O101 C95 1.268 . S
O102 Sc90 2.105 . S
O102 C96 1.268 . S
O103 Sc89 2.105 . S
O103 C97 1.268 . S
O104 Sc88 2.105 . S
O104 C96 1.268 . S
O105 Sc89 2.105 . S
O105 C95 1.268 . S
O106 Sc90 2.105 . S
O106 C97 1.268 . S
O107 Sc88 2.105 . S
O107 C93 1.268 . S
O108 Sc90 2.105 . S
O108 C92 1.268 . S
O109 Sc89 2.105 1_556 S
O109 C94 1.268 . S
Sc110 O113 2.025 . S
Sc110 O120 2.105 . S
Sc110 O123 2.105 . S
Sc110 O126 2.105 . S
Sc110 O129 2.105 . S
Sc111 O113 2.025 . S
Sc111 O121 2.105 . S
Sc111 O125 2.105 . S
Sc111 O127 2.105 . S
Sc111 O131 2.105 . S
Sc112 O113 2.025 . S
Sc112 O122 2.105 . S
Sc112 O124 2.105 . S
Sc112 O128 2.105 . S
Sc112 O130 2.105 . S
O113 Sc110 2.025 . S
O113 Sc111 2.025 . S
O113 Sc112 2.025 . S
C114 O120 1.268 . S
C114 O130 1.268 . S
C115 O121 1.268 . S
C115 O129 1.268 . S
C116 O122 1.268 . S
C116 O131 1.268 . S
C117 O123 1.268 . S
C117 O127 1.268 . S
C118 O124 1.268 . S
C118 O126 1.268 . S
C119 O125 1.268 . S
C119 O128 1.268 . S
O120 Sc110 2.105 . S
O120 C114 1.268 . S
O121 Sc111 2.105 . S
O121 C115 1.268 . S
O122 Sc112 2.105 . S
O122 C116 1.268 . S
O123 Sc110 2.105 . S
O123 C117 1.268 . S
O124 Sc112 2.105 . S
O124 C118 1.268 . S
O125 Sc111 2.105 . S
O125 C119 1.268 . S
O126 Sc110 2.105 . S
O126 C118 1.268 . S
O127 Sc111 2.105 . S
O127 C117 1.268 . S
O128 Sc112 2.105 . S
O128 C119 1.268 . S
O129 Sc110 2.105 . S
O129 C115 1.268 . S
O130 Sc112 2.105 . S
O130 C114 1.268 . S
O131 Sc111 2.105 . S
O131 C116 1.268 . S
Sc132 O135 2.025 . S
Sc132 O142 2.105 . S
Sc132 O145 2.105 . S
Sc132 O148 2.105 . S
Sc132 O151 2.105 . S
Sc133 O135 2.025 . S
Sc133 O143 2.105 . S
Sc133 O147 2.105 1_556 S
Sc133 O149 2.105 . S
Sc133 O153 2.105 . S
Sc134 O135 2.025 . S
Sc134 O144 2.105 . S
Sc134 O146 2.105 . S
Sc134 O150 2.105 1_556 S
Sc134 O152 2.105 . S
O135 Sc132 2.025 . S
O135 Sc133 2.025 . S
O135 Sc134 2.025 . S
C136 O142 1.268 . S
C136 O152 1.268 . S
C137 O143 1.268 . S
C137 O151 1.268 . S
C138 O144 1.268 . S
C138 O153 1.268 . S
C139 O145 1.268 . S
C139 O149 1.268 . S
C140 O146 1.268 . S
C140 O148 1.268 . S
C141 O147 1.268 . S
C141 O150 1.268 . S
O142 Sc132 2.105 . S
O142 C136 1.268 . S
O143 Sc133 2.105 . S
O143 C137 1.268 . S
O144 Sc134 2.105 . S
O144 C138 1.268 . S
O145 Sc132 2.105 . S
O145 C139 1.268 . S
O146 Sc134 2.105 . S
O146 C140 1.268 . S
O147 Sc133 2.105 1_554 S
O147 C141 1.268 . S
O148 Sc132 2.105 . S
O148 C140 1.268 . S
O149 Sc133 2.105 . S
O149 C139 1.268 . S
O150 Sc134 2.105 1_554 S
O150 C141 1.268 . S
O151 Sc132 2.105 . S
O151 C137 1.268 . S
O152 Sc134 2.105 . S
O152 C136 1.268 . S
O153 Sc133 2.105 . S
O153 C138 1.268 . S
Sc154 O157 2.025 . S
Sc154 O164 2.105 . S
Sc154 O167 2.105 . S
Sc154 O170 2.105 . S
Sc154 O173 2.105 . S
Sc155 O157 2.025 . S
Sc155 O165 2.105 . S
Sc155 O169 2.105 . S
Sc155 O171 2.105 . S
Sc155 O175 2.105 . S
Sc156 O157 2.025 . S
Sc156 O166 2.105 . S
Sc156 O168 2.105 . S
Sc156 O172 2.105 . S
Sc156 O174 2.105 . S
O157 Sc154 2.025 . S
O157 Sc155 2.025 . S
O157 Sc156 2.025 . S
C158 O164 1.268 . S
C158 O174 1.268 . S
C159 O165 1.268 . S
C159 O173 1.268 . S
C160 O166 1.268 . S
C160 O175 1.268 . S
C161 O167 1.268 . S
C161 O171 1.268 . S
C162 O168 1.268 . S
C162 O170 1.268 . S
C163 O169 1.268 . S
C163 O172 1.268 . S
O164 Sc154 2.105 . S
O164 C158 1.268 . S
O165 Sc155 2.105 . S
O165 C159 1.268 . S
O166 Sc156 2.105 . S
O166 C160 1.268 . S
O167 Sc154 2.105 . S
O167 C161 1.268 . S
O168 Sc156 2.105 . S
O168 C162 1.268 . S
O169 Sc155 2.105 . S
O169 C163 1.268 . S
O170 Sc154 2.105 . S
O170 C162 1.268 . S
O171 Sc155 2.105 . S
O171 C161 1.268 . S
O172 Sc156 2.105 . S
O172 C163 1.268 . S
O173 Sc154 2.105 . S
O173 C159 1.268 . S
O174 Sc156 2.105 . S
O174 C158 1.268 . S
O175 Sc155 2.105 . S
O175 C160 1.268 . S
H176 C184 0.929 . S
H177 C186 0.930 . S
H178 C188 0.930 . S
H179 C191 0.929 . S
H180 C194 0.930 . S
H181 C196 0.960 . S
H182 C196 0.960 . S
H183 C196 0.960 . S
C184 H176 0.929 . S
C184 C185 1.377 . S
C184 C186 1.384 . S
C185 C184 1.377 . S
C185 C191 1.390 . S
C186 H177 0.930 . S
C186 C184 1.384 . S
C186 C187 1.372 . S
C187 C186 1.372 . S
C187 C188 1.400 . S
C187 C192 1.490 . S
C188 H178 0.930 . S
C188 C187 1.400 . S
C188 C191 1.386 . S
H189 C205 0.930 . S
H190 C206 0.931 . S
C191 H179 0.929 . S
C191 C185 1.390 . S
C191 C188 1.386 . S
C192 C187 1.490 . S
C192 C194 1.395 . S
C192 C195 1.403 . S
H193 C199 0.930 . S
C194 H180 0.930 . S
C194 C192 1.395 . S
C194 C197 1.403 . S
C195 C192 1.403 . S
C195 C196 1.524 . S
C195 C199 1.400 . S
C196 H181 0.960 . S
C196 H182 0.960 . S
C196 H183 0.960 . S
C196 C195 1.524 . S
C197 C194 1.403 . S
C197 C198 1.392 . S
C197 C201 1.495 1_545 S
C198 C197 1.392 . S
C198 C199 1.385 . S
C198 C200 1.478 1_545 S
C199 H193 0.930 . S
C199 C195 1.400 . S
C199 C198 1.385 . S
C200 C198 1.478 1_565 S
C200 C202 1.381 1_565 S
C200 C206 1.383 . S
C201 C197 1.495 1_565 S
C201 H207 0.959 . S
C201 H208 0.961 . S
C201 H209 0.960 . S
C202 C200 1.381 1_545 S
C202 C203 1.394 1_545 S
C202 H210 0.930 . S
C203 C202 1.394 1_565 S
C203 C204 1.383 . S
C203 H211 0.929 1_565 S
C204 C203 1.383 . S
C204 C205 1.377 . S
C205 H189 0.930 . S
C205 C204 1.377 . S
C205 C206 1.379 . S
C206 H190 0.931 . S
C206 C200 1.383 . S
C206 C205 1.379 . S
H207 C201 0.959 . S
H208 C201 0.961 . S
H209 C201 0.960 . S
H210 C202 0.930 . S
H211 C203 0.929 1_545 S
H212 C220 0.929 . S
H213 C222 0.930 . S
H214 C224 0.930 . S
H215 C227 0.929 . S
H216 C230 0.930 . S
H217 C232 0.960 . S
H218 C232 0.960 . S
H219 C232 0.960 . S
C220 H212 0.929 . S
C220 C221 1.377 . S
C220 C222 1.384 . S
C221 C220 1.377 . S
C221 C227 1.390 . S
C222 H213 0.930 . S
C222 C220 1.384 . S
C222 C223 1.372 . S
C223 C222 1.372 . S
C223 C224 1.400 . S
C223 C228 1.490 1_565 S
C224 H214 0.930 . S
C224 C223 1.400 . S
C224 C227 1.386 . S
H225 C241 0.930 . S
H226 C242 0.931 . S
C227 H215 0.929 . S
C227 C221 1.390 . S
C227 C224 1.386 . S
C228 C223 1.490 1_545 S
C228 C230 1.395 . S
C228 C231 1.403 1_545 S
H229 C235 0.919 1_565 S
C230 H216 0.930 . S
C230 C228 1.395 . S
C230 C233 1.403 . S
C231 C228 1.403 1_565 S
C231 C232 1.524 . S
C231 C235 1.400 1_565 S
C232 H217 0.960 . S
C232 H218 0.960 . S
C232 H219 0.960 . S
C232 C231 1.524 . S
C233 C230 1.403 . S
C233 C234 1.392 . S
C233 C237 1.495 . S
C234 C233 1.392 . S
C234 C235 1.385 . S
C234 C236 1.478 . S
C235 H229 0.919 1_545 S
C235 C231 1.400 1_545 S
C235 C234 1.385 . S
C236 C234 1.478 . S
C236 C238 1.381 . S
C236 C242 1.383 . S
C237 C233 1.495 . S
C237 H243 0.959 . S
C237 H244 0.961 . S
C237 H245 0.960 . S
C238 C236 1.381 . S
C238 C239 1.394 . S
C238 H246 0.930 . S
C239 C238 1.394 . S
C239 C240 1.383 . S
C239 H247 0.929 . S
C240 C239 1.383 . S
C240 C241 1.377 . S
C241 H225 0.930 . S
C241 C240 1.377 . S
C241 C242 1.379 . S
C242 H226 0.931 . S
C242 C236 1.383 . S
C242 C241 1.379 . S
H243 C237 0.959 . S
H244 C237 0.961 . S
H245 C237 0.960 . S
H246 C238 0.930 . S
H247 C239 0.929 . S
H248 C256 0.929 . S
H249 C258 0.930 . S
H250 C260 0.930 . S
H251 C263 0.929 1_565 S
H252 C266 0.930 . S
H253 C268 0.960 . S
H254 C268 0.960 . S
H255 C268 0.960 . S
C256 H248 0.929 . S
C256 C257 1.377 . S
C256 C258 1.384 . S
C257 C256 1.377 . S
C257 C263 1.390 . S
C258 H249 0.930 . S
C258 C256 1.384 . S
C258 C259 1.372 . S
C259 C258 1.372 . S
C259 C260 1.400 1_545 S
C259 C264 1.490 1_545 S
C260 H250 0.930 . S
C260 C259 1.400 1_565 S
C260 C263 1.386 1_565 S
H261 C277 0.930 . S
H262 C278 0.931 . S
C263 H251 0.929 1_545 S
C263 C257 1.390 . S
C263 C260 1.386 1_545 S
C264 C259 1.490 1_565 S
C264 C266 1.395 1_565 S
C264 C267 1.403 . S
H265 C271 0.930 . S
C266 H252 0.930 . S
C266 C264 1.395 1_545 S
C266 C269 1.403 . S
C267 C264 1.403 . S
C267 C268 1.524 . S
C267 C271 1.400 . S
C268 H253 0.960 . S
C268 H254 0.960 . S
C268 H255 0.960 . S
C268 C267 1.524 . S
C269 C266 1.403 . S
C269 C270 1.392 1_545 S
C269 C273 1.495 . S
C270 C269 1.392 1_565 S
C270 C271 1.385 . S
C270 C272 1.478 . S
C271 H265 0.930 . S
C271 C267 1.400 . S
C271 C270 1.385 . S
C272 C270 1.478 . S
C272 C274 1.381 . S
C272 C278 1.383 . S
C273 C269 1.495 . S
C273 H279 0.959 . S
C273 H280 0.961 . S
C273 H281 0.960 . S
C274 C272 1.381 . S
C274 C275 1.394 . S
C274 H282 0.930 . S
C275 C274 1.394 . S
C275 C276 1.383 . S
C275 H283 0.929 . S
C276 C275 1.383 . S
C276 C277 1.377 . S
C277 H261 0.930 . S
C277 C276 1.377 . S
C277 C278 1.379 . S
C278 H262 0.931 . S
C278 C272 1.383 . S
C278 C277 1.379 . S
H279 C273 0.959 . S
H280 C273 0.961 . S
H281 C273 0.960 . S
H282 C274 0.930 . S
H283 C275 0.929 . S
H284 C292 0.929 . S
H285 C294 0.930 . S
H286 C296 0.930 . S
H287 C299 0.929 . S
H288 C302 0.930 . S
H289 C304 0.960 . S
H290 C304 0.960 . S
H291 C304 0.960 . S
C292 H284 0.929 . S
C292 C293 1.377 . S
C292 C294 1.384 . S
C293 C292 1.377 . S
C293 C299 1.390 1_545 S
C294 H285 0.930 . S
C294 C292 1.384 . S
C294 C295 1.372 . S
C295 C294 1.372 . S
C295 C296 1.400 1_545 S
C295 C300 1.490 1_545 S
C296 H286 0.930 . S
C296 C295 1.400 1_565 S
C296 C299 1.386 . S
H297 C313 0.930 . S
H298 C314 0.931 . S
C299 H287 0.929 . S
C299 C293 1.390 1_565 S
C299 C296 1.386 . S
C300 C295 1.490 1_565 S
C300 C302 1.395 1_565 S
C300 C303 1.403 . S
H301 C307 0.930 . S
C302 H288 0.930 . S
C302 C300 1.395 1_545 S
C302 C305 1.404 . S
C303 C300 1.403 . S
C303 C304 1.524 . S
C303 C307 1.400 . S
C304 H289 0.960 . S
C304 H290 0.960 . S
C304 H291 0.960 . S
C304 C303 1.524 . S
C305 C302 1.404 . S
C305 C306 1.390 1_545 S
C305 C309 1.497 . S
C306 C305 1.390 1_565 S
C306 C307 1.385 . S
C306 C308 1.478 . S
C307 H301 0.930 . S
C307 C303 1.400 . S
C307 C306 1.385 . S
C308 C306 1.478 . S
C308 C310 1.381 . S
C308 C314 1.383 . S
C309 C305 1.497 . S
C309 H315 0.959 . S
C309 H316 0.961 . S
C309 H317 0.960 . S
C310 C308 1.381 . S
C310 C311 1.394 . S
C310 H318 0.930 . S
C311 C310 1.394 . S
C311 C312 1.383 . S
C311 H319 0.929 . S
C312 C311 1.383 . S
C312 C313 1.377 . S
C313 H297 0.930 . S
C313 C312 1.377 . S
C313 C314 1.379 . S
C314 H298 0.931 . S
C314 C308 1.383 . S
C314 C313 1.379 . S
H315 C309 0.959 . S
H316 C309 0.961 . S
H317 C309 0.960 . S
H318 C310 0.930 . S
H319 C311 0.929 . S
H320 C328 0.929 . S
H321 C330 0.930 . S
H322 C332 0.930 . S
H323 C335 0.929 . S
H324 C338 0.930 . S
H325 C340 0.960 . S
H326 C340 0.960 . S
H327 C340 0.960 . S
C328 H320 0.929 . S
C328 C329 1.377 . S
C328 C330 1.384 . S
C329 C328 1.377 . S
C329 C335 1.390 . S
C330 H321 0.930 . S
C330 C328 1.384 . S
C330 C331 1.372 . S
C331 C330 1.372 . S
C331 C332 1.400 . S
C331 C336 1.490 . S
C332 H322 0.930 . S
C332 C331 1.400 . S
C332 C335 1.386 . S
H333 C349 0.930 . S
H334 C350 0.931 . S
C335 H323 0.929 . S
C335 C329 1.390 . S
C335 C332 1.386 . S
C336 C331 1.490 . S
C336 C338 1.395 . S
C336 C339 1.403 . S
H337 C343 0.930 . S
C338 H324 0.930 . S
C338 C336 1.395 . S
C338 C341 1.403 . S
C339 C336 1.403 . S
C339 C340 1.524 . S
C339 C343 1.400 . S
C340 H325 0.960 . S
C340 H326 0.960 . S
C340 H327 0.960 . S
C340 C339 1.524 . S
C341 C338 1.403 . S
C341 C342 1.392 . S
C341 C345 1.495 . S
C342 C341 1.392 . S
C342 C343 1.385 . S
C342 C344 1.478 . S
C343 H337 0.930 . S
C343 C339 1.400 . S
C343 C342 1.385 . S
C344 C342 1.478 . S
C344 C346 1.381 . S
C344 C350 1.383 . S
C345 C341 1.495 . S
C345 H351 0.959 . S
C345 H352 0.961 . S
C345 H353 0.960 . S
C346 C344 1.381 . S
C346 C347 1.394 . S
C346 H354 0.930 . S
C347 C346 1.394 . S
C347 C348 1.383 . S
C347 H355 0.929 . S
C348 C347 1.383 . S
C348 C349 1.377 . S
C349 H333 0.930 . S
C349 C348 1.377 . S
C349 C350 1.379 . S
C350 H334 0.931 . S
C350 C344 1.383 . S
C350 C349 1.379 . S
H351 C345 0.959 . S
H352 C345 0.961 . S
H353 C345 0.960 . S
H354 C346 0.930 . S
H355 C347 0.929 . S
H356 C364 0.929 . S
H357 C366 0.930 . S
H358 C368 0.930 . S
H359 C371 0.929 . S
H360 C374 0.930 . S
H361 C376 0.960 . S
H362 C376 0.960 . S
H363 C376 0.960 . S
C364 H356 0.929 . S
C364 C365 1.377 . S
C364 C366 1.384 . S
C365 C364 1.377 . S
C365 C371 1.390 . S
C366 H357 0.930 . S
C366 C364 1.384 . S
C366 C367 1.372 . S
C367 C366 1.372 . S
C367 C368 1.400 . S
C367 C372 1.490 . S
C368 H358 0.930 . S
C368 C367 1.400 . S
C368 C371 1.386 . S
H369 C385 0.930 . S
H370 C386 0.931 . S
C371 H359 0.929 . S
C371 C365 1.390 . S
C371 C368 1.386 . S
C372 C367 1.490 . S
C372 C374 1.395 . S
C372 C375 1.403 . S
H373 C379 0.930 . S
C374 H360 0.930 . S
C374 C372 1.395 . S
C374 C377 1.403 . S
C375 C372 1.403 . S
C375 C376 1.524 . S
C375 C379 1.400 . S
C376 H361 0.960 . S
C376 H362 0.960 . S
C376 H363 0.960 . S
C376 C375 1.524 . S
C377 C374 1.403 . S
C377 C378 1.392 . S
C377 C381 1.495 . S
C378 C377 1.392 . S
C378 C379 1.385 . S
C378 C380 1.478 . S
C379 H373 0.930 . S
C379 C375 1.400 . S
C379 C378 1.385 . S
C380 C378 1.478 . S
C380 C382 1.381 . S
C380 C386 1.383 . S
C381 C377 1.495 . S
C381 H387 0.959 . S
C381 H388 0.961 . S
C381 H389 0.960 . S
C382 C380 1.381 . S
C382 C383 1.394 . S
C382 H390 0.930 . S
C383 C382 1.394 . S
C383 C384 1.383 . S
C383 H391 0.929 . S
C384 C383 1.383 . S
C384 C385 1.377 . S
C385 H369 0.930 . S
C385 C384 1.377 . S
C385 C386 1.379 . S
C386 H370 0.931 . S
C386 C380 1.383 . S
C386 C385 1.379 . S
H387 C381 0.959 . S
H388 C381 0.961 . S
H389 C381 0.960 . S
H390 C382 0.930 . S
H391 C383 0.929 . S
H392 C400 0.929 . S
H393 C402 0.930 . S
H394 C404 0.930 . S
H395 C407 0.929 . S
H396 C410 0.930 . S
H397 C412 0.960 . S
H398 C412 0.960 . S
H399 C412 0.960 . S
C400 H392 0.929 . S
C400 C401 1.377 . S
C400 C402 1.384 . S
C401 C400 1.377 . S
C401 C407 1.390 . S
C402 H393 0.930 . S
C402 C400 1.384 . S
C402 C403 1.372 . S
C403 C402 1.372 . S
C403 C404 1.400 . S
C403 C408 1.490 . S
C404 H394 0.930 . S
C404 C403 1.400 . S
C404 C407 1.386 . S
H405 C421 0.930 . S
H406 C422 0.931 . S
C407 H395 0.929 . S
C407 C401 1.390 . S
C407 C404 1.386 . S
C408 C403 1.490 . S
C408 C410 1.395 . S
C408 C411 1.403 . S
H409 C415 0.930 . S
C410 H396 0.930 . S
C410 C408 1.395 . S
C410 C413 1.403 . S
C411 C408 1.403 . S
C411 C412 1.524 . S
C411 C415 1.400 . S
C412 H397 0.960 . S
C412 H398 0.960 . S
C412 H399 0.960 . S
C412 C411 1.524 . S
C413 C410 1.403 . S
C413 C414 1.392 . S
C413 C417 1.495 . S
C414 C413 1.392 . S
C414 C415 1.385 . S
C414 C416 1.478 . S
C415 H409 0.930 . S
C415 C411 1.400 . S
C415 C414 1.385 . S
C416 C414 1.478 . S
C416 C418 1.381 . S
C416 C422 1.383 . S
C417 C413 1.495 . S
C417 H423 0.959 . S
C417 H424 0.961 . S
C417 H425 0.960 . S
C418 C416 1.381 . S
C418 C419 1.394 . S
C418 H426 0.930 . S
C419 C418 1.394 . S
C419 C420 1.383 . S
C419 H427 0.929 . S
C420 C419 1.383 . S
C420 C421 1.377 . S
C421 H405 0.930 . S
C421 C420 1.377 . S
C421 C422 1.379 . S
C422 H406 0.931 . S
C422 C416 1.383 . S
C422 C421 1.379 . S
H423 C417 0.959 . S
H424 C417 0.961 . S
H425 C417 0.960 . S
H426 C418 0.930 . S
H427 C419 0.929 . S
H428 C436 0.929 . S
H429 C438 0.930 . S
H430 C440 0.930 . S
H431 C443 0.929 . S
H432 C446 0.930 . S
H433 C448 0.960 . S
H434 C448 0.960 . S
H435 C448 0.960 . S
C436 H428 0.929 . S
C436 C437 1.377 . S
C436 C438 1.384 . S
C437 C436 1.377 . S
C437 C443 1.390 . S
C438 H429 0.930 . S
C438 C436 1.384 . S
C438 C439 1.372 . S
C439 C438 1.372 . S
C439 C440 1.400 . S
C439 C444 1.490 . S
C440 H430 0.930 . S
C440 C439 1.400 . S
C440 C443 1.386 . S
H441 C457 0.930 . S
H442 C458 0.931 . S
C443 H431 0.929 . S
C443 C437 1.390 . S
C443 C440 1.386 . S
C444 C439 1.490 . S
C444 C446 1.395 . S
C444 C447 1.403 . S
H445 C451 0.930 . S
C446 H432 0.930 . S
C446 C444 1.395 . S
C446 C449 1.403 . S
C447 C444 1.403 . S
C447 C448 1.524 . S
C447 C451 1.400 . S
C448 H433 0.960 . S
C448 H434 0.960 . S
C448 H435 0.960 . S
C448 C447 1.524 . S
C449 C446 1.403 . S
C449 C450 1.392 . S
C449 C453 1.495 . S
C450 C449 1.392 . S
C450 C451 1.385 . S
C450 C452 1.478 . S
C451 H445 0.930 . S
C451 C447 1.400 . S
C451 C450 1.385 . S
C452 C450 1.478 . S
C452 C454 1.381 . S
C452 C458 1.383 . S
C453 C449 1.495 . S
C453 H459 0.959 . S
C453 H460 0.961 . S
C453 H461 0.960 . S
C454 C452 1.381 . S
C454 C455 1.394 . S
C454 H462 0.930 . S
C455 C454 1.394 . S
C455 C456 1.383 . S
C455 H463 0.929 . S
C456 C455 1.383 . S
C456 C457 1.377 . S
C457 H441 0.930 . S
C457 C456 1.377 . S
C457 C458 1.379 . S
C458 H442 0.931 . S
C458 C452 1.383 . S
C458 C457 1.379 . S
H459 C453 0.959 . S
H460 C453 0.961 . S
H461 C453 0.960 . S
H462 C454 0.930 . S
H463 C455 0.929 . S
H464 C472 0.929 . S
H465 C474 0.930 . S
H466 C476 0.930 1_556 S
H467 C479 0.929 1_556 S
H468 C482 0.930 . S
H469 C484 0.960 . S
H470 C484 0.960 . S
H471 C484 0.960 . S
C472 H464 0.929 . S
C472 C473 1.377 . S
C472 C474 1.384 . S
C473 C472 1.377 . S
C473 C479 1.390 . S
C474 H465 0.930 . S
C474 C472 1.384 . S
C474 C475 1.372 . S
C475 C474 1.372 . S
C475 C476 1.400 . S
C475 C480 1.490 . S
C476 H466 0.930 1_554 S
C476 C475 1.400 . S
C476 C479 1.386 . S
H477 C493 0.930 . S
H478 C494 0.931 . S
C479 H467 0.929 1_554 S
C479 C473 1.390 . S
C479 C476 1.386 . S
C480 C475 1.490 . S
C480 C482 1.395 1_545 S
C480 C483 1.403 1_554 S
H481 C487 0.930 . S
C482 H468 0.930 . S
C482 C480 1.395 1_565 S
C482 C485 1.403 . S
C483 C480 1.403 1_556 S
C483 C484 1.524 . S
C483 C487 1.400 . S
C484 H469 0.960 . S
C484 H470 0.960 . S
C484 H471 0.960 . S
C484 C483 1.524 . S
C485 C482 1.403 . S
C485 C486 1.392 1_554 S
C485 C489 1.495 . S
C486 C485 1.392 1_556 S
C486 C487 1.385 1_565 S
C486 C488 1.478 . S
C487 H481 0.930 . S
C487 C483 1.400 . S
C487 C486 1.385 1_545 S
C488 C486 1.478 . S
C488 C490 1.381 1_556 S
C488 C494 1.383 . S
C489 C485 1.495 . S
C489 H495 0.959 . S
C489 H496 0.961 . S
C489 H497 0.960 . S
C490 C488 1.381 1_554 S
C490 C491 1.394 1_554 S
C490 H498 0.930 . S
C491 C490 1.394 1_556 S
C491 C492 1.383 . S
C491 H499 0.929 1_556 S
C492 C491 1.383 . S
C492 C493 1.377 . S
C493 H477 0.930 . S
C493 C492 1.377 . S
C493 C494 1.379 . S
C494 H478 0.931 . S
C494 C488 1.383 . S
C494 C493 1.379 . S
H495 C489 0.959 . S
H496 C489 0.961 . S
H497 C489 0.960 . S
H498 C490 0.930 . S
H499 C491 0.929 1_554 S
H500 C508 0.929 . S
H501 C510 0.930 . S
H502 C512 0.930 1_545 S
H503 C515 0.929 1_545 S
H504 C518 0.930 . S
H505 C520 0.960 . S
H506 C520 0.960 . S
H507 C520 0.960 . S
C508 H500 0.929 . S
C508 C509 1.377 . S
C508 C510 1.384 . S
C509 C508 1.377 . S
C509 C515 1.390 . S
C510 H501 0.930 . S
C510 C508 1.384 . S
C510 C511 1.372 . S
C511 C510 1.372 . S
C511 C512 1.400 . S
C511 C516 1.490 . S
C512 H502 0.930 1_565 S
C512 C511 1.400 . S
C512 C515 1.386 . S
H513 C529 0.930 . S
H514 C530 0.931 . S
C515 H503 0.929 1_565 S
C515 C509 1.390 . S
C515 C512 1.386 . S
C516 C511 1.490 . S
C516 C518 1.389 1_565 S
C516 C519 1.403 . S
H517 C523 0.930 . S
C518 H504 0.930 . S
C518 C516 1.389 1_545 S
C518 C521 1.409 . S
C519 C516 1.403 . S
C519 C520 1.524 . S
C519 C523 1.400 . S
C520 H505 0.960 . S
C520 H506 0.960 . S
C520 H507 0.960 . S
C520 C519 1.524 . S
C521 C518 1.409 . S
C521 C522 1.392 . S
C521 C525 1.495 . S
C522 C521 1.392 . S
C522 C523 1.385 1_545 S
C522 C524 1.478 . S
C523 H517 0.930 . S
C523 C519 1.400 . S
C523 C522 1.385 1_565 S
C524 C522 1.478 . S
C524 C526 1.388 . S
C524 C530 1.383 . S
C525 C521 1.495 . S
C525 H531 0.959 . S
C525 H532 0.961 . S
C525 H533 0.960 . S
C526 C524 1.388 . S
C526 C527 1.397 . S
C526 H534 0.921 1_545 S
C527 C526 1.397 . S
C527 C528 1.383 . S
C527 H535 0.929 1_545 S
C528 C527 1.383 . S
C528 C529 1.377 . S
C529 H513 0.930 . S
C529 C528 1.377 . S
C529 C530 1.379 . S
C530 H514 0.931 . S
C530 C524 1.383 . S
C530 C529 1.379 . S
H531 C525 0.959 . S
H532 C525 0.961 . S
H533 C525 0.960 . S
H534 C526 0.921 1_565 S
H535 C527 0.929 1_565 S
H536 C544 0.929 . S
H537 C546 0.930 . S
H538 C548 0.930 . S
H539 C551 0.929 . S
H540 C554 0.930 . S
H541 C556 0.960 . S
H542 C556 0.960 1_655 S
H543 C556 0.960 1_655 S
C544 H536 0.929 . S
C544 C545 1.377 . S
C544 C546 1.384 . S
C545 C544 1.377 . S
C545 C551 1.390 . S
C546 H537 0.930 . S
C546 C544 1.384 . S
C546 C547 1.372 . S
C547 C546 1.372 . S
C547 C548 1.400 . S
C547 C552 1.490 . S
C548 H538 0.930 . S
C548 C547 1.400 . S
C548 C551 1.386 . S
H549 C565 0.930 . S
H550 C566 0.931 . S
C551 H539 0.929 . S
C551 C545 1.390 . S
C551 C548 1.386 . S
C552 C547 1.490 . S
C552 C554 1.395 1_554 S
C552 C555 1.403 . S
H553 C559 0.930 . S
C554 H540 0.930 . S
C554 C552 1.395 1_556 S
C554 C557 1.403 . S
C555 C552 1.403 . S
C555 C556 1.524 1_655 S
C555 C559 1.400 1_655 S
C556 H541 0.960 . S
C556 H542 0.960 1_455 S
C556 H543 0.960 1_455 S
C556 C555 1.524 1_455 S
C557 C554 1.403 . S
C557 C558 1.392 1_655 S
C557 C561 1.495 . S
C558 C557 1.392 1_455 S
C558 C559 1.385 1_556 S
C558 C560 1.478 . S
C559 H553 0.930 . S
C559 C555 1.400 1_455 S
C559 C558 1.385 1_554 S
C560 C558 1.478 . S
C560 C562 1.381 . S
C560 C566 1.383 . S
C561 C557 1.495 . S
C561 H567 0.959 . S
C561 H568 0.961 1_655 S
C561 H569 0.960 1_655 S
C562 C560 1.381 . S
C562 C563 1.394 . S
C562 H570 0.930 . S
C563 C562 1.394 . S
C563 C564 1.383 . S
C563 H571 0.929 . S
C564 C563 1.383 . S
C564 C565 1.377 . S
C565 H549 0.930 . S
C565 C564 1.377 . S
C565 C566 1.379 . S
C566 H550 0.931 . S
C566 C560 1.383 . S
C566 C565 1.379 . S
H567 C561 0.959 . S
H568 C561 0.961 1_455 S
H569 C561 0.960 1_455 S
H570 C562 0.930 . S
H571 C563 0.929 . S
H572 C580 0.929 . S
H573 C582 0.930 . S
H574 C584 0.930 . S
H575 C587 0.929 . S
H576 C590 0.930 . S
H577 C592 0.957 1_655 S
H578 C592 0.962 . S
H579 C592 0.961 . S
C580 H572 0.929 . S
C580 C581 1.377 . S
C580 C582 1.384 . S
C581 C580 1.377 . S
C581 C587 1.390 . S
C582 H573 0.930 . S
C582 C580 1.384 . S
C582 C583 1.372 . S
C583 C582 1.372 . S
C583 C584 1.400 . S
C583 C588 1.490 . S
C584 H574 0.930 . S
C584 C583 1.400 . S
C584 C587 1.386 . S
H585 C601 0.930 . S
H586 C602 0.931 . S
C587 H575 0.929 . S
C587 C581 1.390 . S
C587 C584 1.386 . S
C588 C583 1.490 . S
C588 C590 1.395 . S
C588 C591 1.403 . S
H589 C595 0.930 . S
C590 H576 0.930 . S
C590 C588 1.395 . S
C590 C593 1.403 . S
C591 C588 1.403 . S
C591 C592 1.523 . S
C591 C595 1.400 1_455 S
C592 H577 0.957 1_455 S
C592 H578 0.962 . S
C592 H579 0.961 . S
C592 C591 1.523 . S
C593 C590 1.403 . S
C593 C594 1.392 1_455 S
C593 C597 1.495 . S
C594 C593 1.392 1_655 S
C594 C595 1.385 . S
C594 C596 1.478 . S
C595 H589 0.930 . S
C595 C591 1.400 1_655 S
C595 C594 1.385 . S
C596 C594 1.478 . S
C596 C598 1.381 . S
C596 C602 1.383 . S
C597 C593 1.495 . S
C597 H603 0.959 . S
C597 H604 0.961 1_455 S
C597 H605 0.960 1_455 S
C598 C596 1.381 . S
C598 C599 1.394 . S
C598 H606 0.930 . S
C599 C598 1.394 . S
C599 C600 1.383 . S
C599 H607 0.929 . S
C600 C599 1.383 . S
C600 C601 1.377 . S
C601 H585 0.930 . S
C601 C600 1.377 . S
C601 C602 1.379 . S
C602 H586 0.931 . S
C602 C596 1.383 . S
C602 C601 1.379 . S
H603 C597 0.959 . S
H604 C597 0.961 1_655 S
H605 C597 0.960 1_655 S
H606 C598 0.930 . S
H607 C599 0.929 . S
H608 C616 0.929 . S
H609 C618 0.930 . S
H610 C620 0.930 . S
H611 C623 0.929 . S
H612 C626 0.930 . S
H613 C628 0.960 1_655 S
H614 C628 0.960 . S
H615 C628 0.960 . S
C616 H608 0.929 . S
C616 C617 1.377 1_556 S
C616 C618 1.384 . S
C617 C616 1.377 1_554 S
C617 C623 1.390 . S
C618 H609 0.930 . S
C618 C616 1.384 . S
C618 C619 1.372 1_556 S
C619 C618 1.372 1_554 S
C619 C620 1.400 . S
C619 C624 1.490 . S
C620 H610 0.930 . S
C620 C619 1.400 . S
C620 C623 1.386 . S
H621 C637 0.930 . S
H622 C638 0.931 . S
C623 H611 0.929 . S
C623 C617 1.390 . S
C623 C620 1.386 . S
C624 C619 1.490 . S
C624 C626 1.395 1_544 S
C624 C627 1.403 . S
H625 C631 0.930 . S
C626 H612 0.930 . S
C626 C624 1.395 1_566 S
C626 C629 1.401 1_455 S
C627 C624 1.403 . S
C627 C628 1.524 . S
C627 C631 1.400 1_455 S
C628 H613 0.960 1_455 S
C628 H614 0.960 . S
C628 H615 0.960 . S
C628 C627 1.524 . S
C629 C626 1.401 1_655 S
C629 C630 1.395 . S
C629 C633 1.495 . S
C630 C629 1.395 . S
C630 C631 1.385 1_566 S
C630 C632 1.478 . S
C631 H625 0.930 . S
C631 C627 1.400 1_655 S
C631 C630 1.385 1_544 S
C632 C630 1.478 . S
C632 C634 1.381 . S
C632 C638 1.383 1_556 S
C633 C629 1.495 . S
C633 H639 0.961 1_655 S
C633 H640 0.961 . S
C633 H641 0.959 . S
C634 C632 1.381 . S
C634 C635 1.394 . S
C634 H642 0.930 . S
C635 C634 1.394 . S
C635 C636 1.383 . S
C635 H643 0.929 . S
C636 C635 1.383 . S
C636 C637 1.377 1_556 S
C637 H621 0.930 . S
C637 C636 1.377 1_554 S
C637 C638 1.379 . S
C638 H622 0.931 . S
C638 C632 1.383 1_554 S
C638 C637 1.379 . S
H639 C633 0.961 1_455 S
H640 C633 0.961 . S
H641 C633 0.959 . S
H642 C634 0.930 . S
H643 C635 0.929 . S
H644 C652 0.929 . S
H645 C654 0.930 1_565 S
H646 C656 0.930 . S
H647 C659 0.929 . S
H648 C662 0.930 . S
H649 C664 0.960 . S
H650 C664 0.960 . S
H651 C664 0.960 . S
C652 H644 0.929 . S
C652 C653 1.377 . S
C652 C654 1.384 . S
C653 C652 1.377 . S
C653 C659 1.390 . S
C654 H645 0.930 1_545 S
C654 C652 1.384 . S
C654 C655 1.372 . S
C655 C654 1.372 . S
C655 C656 1.400 . S
C655 C660 1.490 . S
C656 H646 0.930 . S
C656 C655 1.400 . S
C656 C659 1.386 . S
H657 C673 0.930 . S
H658 C674 0.931 1_545 S
C659 H647 0.929 . S
C659 C653 1.390 . S
C659 C656 1.386 . S
C660 C655 1.490 . S
C660 C662 1.395 1_545 S
C660 C663 1.403 . S
H661 C667 0.929 . S
C662 H648 0.930 . S
C662 C660 1.395 1_565 S
C662 C665 1.403 1_655 S
C663 C660 1.403 . S
C663 C664 1.524 . S
C663 C667 1.381 1_645 S
C664 H649 0.960 . S
C664 H650 0.960 . S
C664 H651 0.960 . S
C664 C663 1.524 . S
C665 C662 1.403 1_455 S
C665 C666 1.392 . S
C665 C669 1.495 . S
C666 C665 1.392 . S
C666 C667 1.407 . S
C666 C668 1.478 . S
C667 H661 0.929 . S
C667 C663 1.381 1_465 S
C667 C666 1.407 . S
C668 C666 1.478 . S
C668 C670 1.381 . S
C668 C674 1.383 . S
C669 C665 1.495 . S
C669 H675 0.959 . S
C669 H676 0.961 . S
C669 H677 0.960 . S
C670 C668 1.381 . S
C670 C671 1.394 . S
C670 H678 0.930 . S
C671 C670 1.394 . S
C671 C672 1.383 . S
C671 H679 0.929 . S
C672 C671 1.383 . S
C672 C673 1.377 . S
C673 H657 0.930 . S
C673 C672 1.377 . S
C673 C674 1.379 . S
C674 H658 0.931 1_565 S
C674 C668 1.383 . S
C674 C673 1.379 . S
H675 C669 0.959 . S
H676 C669 0.961 . S
H677 C669 0.960 . S
H678 C670 0.930 . S
H679 C671 0.929 . S
H680 C688 0.929 . S
H681 C690 0.930 . S
H682 C692 0.930 . S
H683 C695 0.929 . S
H684 C698 0.930 . S
H685 C700 0.960 . S
H686 C700 0.960 1_554 S
H687 C700 0.960 . S
C688 H680 0.929 . S
C688 C689 1.377 1_554 S
C688 C690 1.384 . S
C689 C688 1.377 1_556 S
C689 C695 1.390 . S
C690 H681 0.930 . S
C690 C688 1.384 . S
C690 C691 1.372 1_554 S
C691 C690 1.372 1_556 S
C691 C692 1.400 . S
C691 C696 1.490 . S
C692 H682 0.930 . S
C692 C691 1.400 . S
C692 C695 1.386 . S
H693 C709 0.930 . S
H694 C710 0.931 . S
C695 H683 0.929 . S
C695 C689 1.390 . S
C695 C692 1.386 . S
C696 C691 1.490 . S
C696 C698 1.395 1_556 S
C696 C699 1.403 . S
H697 C703 0.930 . S
C698 H684 0.930 . S
C698 C696 1.395 1_554 S
C698 C701 1.403 . S
C699 C696 1.403 . S
C699 C700 1.524 . S
C699 C703 1.400 1_556 S
C700 H685 0.960 . S
C700 H686 0.960 1_556 S
C700 H687 0.960 . S
C700 C699 1.524 . S
C701 C698 1.403 . S
C701 C702 1.392 . S
C701 C705 1.495 . S
C702 C701 1.392 . S
C702 C703 1.385 . S
C702 C704 1.478 . S
C703 H697 0.930 . S
C703 C699 1.400 1_554 S
C703 C702 1.385 . S
C704 C702 1.478 . S
C704 C706 1.381 . S
C704 C710 1.383 1_554 S
C705 C701 1.495 . S
C705 H711 0.959 . S
C705 H712 0.987 . S
C705 H713 0.960 . S
C706 C704 1.381 . S
C706 C707 1.394 . S
C706 H714 0.930 . S
C707 C706 1.394 . S
C707 C708 1.383 . S
C707 H715 0.929 . S
C708 C707 1.383 . S
C708 C709 1.377 1_554 S
C709 H693 0.930 . S
C709 C708 1.377 1_556 S
C709 C710 1.379 . S
C710 H694 0.931 . S
C710 C704 1.383 1_556 S
C710 C709 1.379 . S
H711 C705 0.959 . S
H712 C705 0.987 . S
H713 C705 0.960 . S
H714 C706 0.930 . S
H715 C707 0.929 . S
H716 C724 0.929 . S
H717 C726 0.930 . S
H718 C728 0.930 . S
H719 C731 0.929 . S
H720 C734 0.930 . S
H721 C736 0.960 . S
H722 C736 0.960 . S
H723 C736 0.960 . S
C724 H716 0.929 . S
C724 C725 1.377 . S
C724 C726 1.384 . S
C725 C724 1.377 . S
C725 C731 1.390 . S
C726 H717 0.930 . S
C726 C724 1.384 . S
C726 C727 1.372 . S
C727 C726 1.372 . S
C727 C728 1.400 . S
C727 C732 1.490 . S
C728 H718 0.930 . S
C728 C727 1.400 . S
C728 C731 1.386 . S
H729 C745 0.930 . S
H730 C746 0.931 . S
C731 H719 0.929 . S
C731 C725 1.390 . S
C731 C728 1.386 . S
C732 C727 1.490 . S
C732 C734 1.395 . S
C732 C735 1.403 . S
H733 C739 0.930 . S
C734 H720 0.930 . S
C734 C732 1.395 . S
C734 C737 1.403 . S
C735 C732 1.403 . S
C735 C736 1.524 . S
C735 C739 1.400 . S
C736 H721 0.960 . S
C736 H722 0.960 . S
C736 H723 0.960 . S
C736 C735 1.524 . S
C737 C734 1.403 . S
C737 C738 1.392 . S
C737 C741 1.495 . S
C738 C737 1.392 . S
C738 C739 1.385 . S
C738 C740 1.478 . S
C739 H733 0.930 . S
C739 C735 1.400 . S
C739 C738 1.385 . S
C740 C738 1.478 . S
C740 C742 1.381 . S
C740 C746 1.383 . S
C741 C737 1.495 . S
C741 H747 0.959 . S
C741 H748 0.961 . S
C741 H749 0.960 . S
C742 C740 1.381 . S
C742 C743 1.394 . S
C742 H750 0.930 . S
C743 C742 1.394 . S
C743 C744 1.383 . S
C743 H751 0.929 . S
C744 C743 1.383 . S
C744 C745 1.377 . S
C745 H729 0.930 . S
C745 C744 1.377 . S
C745 C746 1.379 . S
C746 H730 0.931 . S
C746 C740 1.383 . S
C746 C745 1.379 . S
H747 C741 0.959 . S
H748 C741 0.961 . S
H749 C741 0.960 . S
H750 C742 0.930 . S
H751 C743 0.929 . S
H752 C760 0.929 . S
H753 C762 0.930 . S
H754 C764 0.930 . S
H755 C767 0.929 . S
H756 C770 0.930 . S
H757 C772 0.960 . S
H758 C772 0.960 . S
H759 C772 0.960 . S
C760 H752 0.929 . S
C760 C761 1.377 . S
C760 C762 1.384 . S
C761 C760 1.377 . S
C761 C767 1.390 . S
C762 H753 0.930 . S
C762 C760 1.384 . S
C762 C763 1.372 . S
C763 C762 1.372 . S
C763 C764 1.400 . S
C763 C768 1.490 . S
C764 H754 0.930 . S
C764 C763 1.400 . S
C764 C767 1.386 . S
H765 C781 0.930 . S
H766 C782 0.931 . S
C767 H755 0.929 . S
C767 C761 1.390 . S
C767 C764 1.386 . S
C768 C763 1.490 . S
C768 C770 1.395 . S
C768 C771 1.403 . S
H769 C775 0.930 . S
C770 H756 0.930 . S
C770 C768 1.395 . S
C770 C773 1.403 . S
C771 C768 1.403 . S
C771 C772 1.524 . S
C771 C775 1.400 . S
C772 H757 0.960 . S
C772 H758 0.960 . S
C772 H759 0.960 . S
C772 C771 1.524 . S
C773 C770 1.403 . S
C773 C774 1.392 . S
C773 C777 1.495 . S
C774 C773 1.392 . S
C774 C775 1.385 . S
C774 C776 1.478 . S
C775 H769 0.930 . S
C775 C771 1.400 . S
C775 C774 1.385 . S
C776 C774 1.478 . S
C776 C778 1.381 . S
C776 C782 1.383 . S
C777 C773 1.495 . S
C777 H783 0.959 . S
C777 H784 0.961 . S
C777 H785 0.960 . S
C778 C776 1.381 . S
C778 C779 1.394 . S
C778 H786 0.930 . S
C779 C778 1.394 . S
C779 C780 1.383 . S
C779 H787 0.929 . S
C780 C779 1.383 . S
C780 C781 1.377 . S
C781 H765 0.930 . S
C781 C780 1.377 . S
C781 C782 1.379 . S
C782 H766 0.931 . S
C782 C776 1.383 . S
C782 C781 1.379 . S
H783 C777 0.959 . S
H784 C777 0.961 . S
H785 C777 0.960 . S
H786 C778 0.930 . S
H787 C779 0.929 . S
H788 C796 0.929 . S
H789 C798 0.930 . S
H790 C800 0.930 . S
H791 C803 0.929 . S
H792 C806 0.930 . S
H793 C808 0.960 . S
H794 C808 0.960 . S
H795 C808 0.960 . S
C796 H788 0.929 . S
C796 C797 1.377 . S
C796 C798 1.384 . S
C797 C796 1.377 . S
C797 C803 1.390 . S
C798 H789 0.930 . S
C798 C796 1.384 . S
C798 C799 1.372 . S
C799 C798 1.372 . S
C799 C800 1.400 . S
C799 C804 1.490 . S
C800 H790 0.930 . S
C800 C799 1.400 . S
C800 C803 1.386 . S
H801 C817 0.930 . S
H802 C818 0.931 . S
C803 H791 0.929 . S
C803 C797 1.390 . S
C803 C800 1.386 . S
C804 C799 1.490 . S
C804 C806 1.395 . S
C804 C807 1.403 . S
H805 C811 0.930 . S
C806 H792 0.930 . S
C806 C804 1.395 . S
C806 C809 1.403 . S
C807 C804 1.403 . S
C807 C808 1.524 . S
C807 C811 1.400 . S
C808 H793 0.960 . S
C808 H794 0.960 . S
C808 H795 0.960 . S
C808 C807 1.524 . S
C809 C806 1.403 . S
C809 C810 1.392 . S
C809 C813 1.495 . S
C810 C809 1.392 . S
C810 C811 1.385 . S
C810 C812 1.478 . S
C811 H805 0.930 . S
C811 C807 1.400 . S
C811 C810 1.385 . S
C812 C810 1.478 . S
C812 C814 1.381 . S
C812 C818 1.383 . S
C813 C809 1.495 . S
C813 H819 0.959 . S
C813 H820 0.961 . S
C813 H821 0.960 . S
C814 C812 1.381 . S
C814 C815 1.394 . S
C814 H822 0.930 . S
C815 C814 1.394 . S
C815 C816 1.383 . S
C815 H823 0.929 . S
C816 C815 1.383 . S
C816 C817 1.377 . S
C817 H801 0.930 . S
C817 C816 1.377 . S
C817 C818 1.379 . S
C818 H802 0.931 . S
C818 C812 1.383 . S
C818 C817 1.379 . S
H819 C813 0.959 . S
H820 C813 0.961 . S
H821 C813 0.960 . S
H822 C814 0.930 . S
H823 C815 0.929 . S
H824 C832 0.929 . S
H825 C834 0.930 . S
H826 C836 0.930 . S
H827 C839 0.929 . S
H828 C842 0.930 . S
H829 C844 0.960 . S
H830 C844 0.960 . S
H831 C844 0.960 . S
C832 H824 0.929 . S
C832 C833 1.377 . S
C832 C834 1.384 . S
C833 C832 1.377 . S
C833 C839 1.390 . S
C834 H825 0.930 . S
C834 C832 1.384 . S
C834 C835 1.372 . S
C835 C834 1.372 . S
C835 C836 1.400 . S
C835 C840 1.490 . S
C836 H826 0.930 . S
C836 C835 1.400 . S
C836 C839 1.386 . S
H837 C853 0.930 . S
H838 C854 0.931 . S
C839 H827 0.929 . S
C839 C833 1.390 . S
C839 C836 1.386 . S
C840 C835 1.490 . S
C840 C842 1.395 1_655 S
C840 C843 1.403 . S
H841 C847 0.930 . S
C842 H828 0.930 . S
C842 C840 1.395 1_455 S
C842 C845 1.403 . S
C843 C840 1.403 . S
C843 C844 1.524 . S
C843 C847 1.400 1_655 S
C844 H829 0.960 . S
C844 H830 0.960 . S
C844 H831 0.960 . S
C844 C843 1.524 . S
C845 C842 1.403 . S
C845 C846 1.392 . S
C845 C849 1.495 . S
C846 C845 1.392 . S
C846 C847 1.385 . S
C846 C848 1.478 . S
C847 H841 0.930 . S
C847 C843 1.400 1_455 S
C847 C846 1.385 . S
C848 C846 1.478 . S
C848 C850 1.381 . S
C848 C854 1.383 . S
C849 C845 1.495 . S
C849 H855 0.959 . S
C849 H856 0.961 . S
C849 H857 0.960 . S
C850 C848 1.381 . S
C850 C851 1.394 . S
C850 H858 0.930 . S
C851 C850 1.394 . S
C851 C852 1.383 . S
C851 H859 0.929 . S
C852 C851 1.383 . S
C852 C853 1.377 . S
C853 H837 0.930 . S
C853 C852 1.377 . S
C853 C854 1.379 . S
C854 H838 0.931 . S
C854 C848 1.383 . S
C854 C853 1.379 . S
H855 C849 0.959 . S
H856 C849 0.961 . S
H857 C849 0.960 . S
H858 C850 0.930 . S
H859 C851 0.929 . S
H860 C868 0.929 . S
H861 C870 0.930 . S
H862 C872 0.930 . S
H863 C875 0.929 . S
H864 C878 0.930 . S
H865 C880 0.960 . S
H866 C880 0.960 . S
H867 C880 0.960 . S
C868 H860 0.929 . S
C868 C869 1.377 . S
C868 C870 1.384 . S
C869 C868 1.377 . S
C869 C875 1.390 . S
C870 H861 0.930 . S
C870 C868 1.384 . S
C870 C871 1.372 . S
C871 C870 1.372 . S
C871 C872 1.400 . S
C871 C876 1.490 . S
C872 H862 0.930 . S
C872 C871 1.400 . S
C872 C875 1.386 . S
H873 C889 0.930 . S
H874 C890 0.931 . S
C875 H863 0.929 . S
C875 C869 1.390 . S
C875 C872 1.386 . S
C876 C871 1.490 . S
C876 C878 1.395 . S
C876 C879 1.403 . S
H877 C883 0.930 . S
C878 H864 0.930 . S
C878 C876 1.395 . S
C878 C881 1.403 1_655 S
C879 C876 1.403 . S
C879 C880 1.524 . S
C879 C883 1.400 1_655 S
C880 H865 0.960 . S
C880 H866 0.960 . S
C880 H867 0.960 . S
C880 C879 1.524 . S
C881 C878 1.403 1_455 S
C881 C882 1.392 . S
C881 C885 1.495 . S
C882 C881 1.392 . S
C882 C883 1.385 . S
C882 C884 1.478 . S
C883 H877 0.930 . S
C883 C879 1.400 1_455 S
C883 C882 1.385 . S
C884 C882 1.478 . S
C884 C886 1.381 . S
C884 C890 1.383 . S
C885 C881 1.495 . S
C885 H891 0.959 . S
C885 H892 0.961 . S
C885 H893 0.960 . S
C886 C884 1.381 . S
C886 C887 1.394 . S
C886 H894 0.930 . S
C887 C886 1.394 . S
C887 C888 1.383 . S
C887 H895 0.929 . S
C888 C887 1.383 . S
C888 C889 1.377 . S
C889 H873 0.930 . S
C889 C888 1.377 . S
C889 C890 1.379 . S
C890 H874 0.931 . S
C890 C884 1.383 . S
C890 C889 1.379 . S
H891 C885 0.959 . S
H892 C885 0.961 . S
H893 C885 0.960 . S
H894 C886 0.930 . S
H895 C887 0.929 . S
H896 C904 0.929 . S
H897 C906 0.930 . S
H898 C908 0.930 . S
H899 C911 0.929 . S
H900 C914 0.930 . S
H901 C916 0.960 . S
H902 C916 0.960 1_554 S
H903 C916 0.960 . S
C904 H896 0.929 . S
C904 C905 1.377 . S
C904 C906 1.384 . S
C905 C904 1.377 . S
C905 C911 1.390 1_554 S
C906 H897 0.930 . S
C906 C904 1.384 . S
C906 C907 1.372 . S
C907 C906 1.372 . S
C907 C908 1.400 1_554 S
C907 C912 1.490 . S
C908 H898 0.930 . S
C908 C907 1.400 1_556 S
C908 C911 1.386 . S
H909 C925 0.930 . S
H910 C926 0.931 . S
C911 H899 0.929 . S
C911 C905 1.390 1_556 S
C911 C908 1.386 . S
C912 C907 1.490 . S
C912 C914 1.395 . S
C912 C915 1.399 1_554 S
H913 C919 0.930 . S
C914 H900 0.930 . S
C914 C912 1.395 . S
C914 C917 1.403 . S
C915 C912 1.399 1_556 S
C915 C916 1.523 . S
C915 C919 1.405 . S
C916 H901 0.960 . S
C916 H902 0.960 1_556 S
C916 H903 0.960 . S
C916 C915 1.523 . S
C917 C914 1.403 . S
C917 C918 1.392 1_554 S
C917 C921 1.495 . S
C918 C917 1.392 1_556 S
C918 C919 1.385 . S
C918 C920 1.478 . S
C919 H913 0.930 . S
C919 C915 1.405 . S
C919 C918 1.385 . S
C920 C918 1.478 . S
C920 C922 1.381 1_556 S
C920 C926 1.383 . S
C921 C917 1.495 . S
C921 H927 0.959 . S
C921 H928 0.961 1_554 S
C921 H929 0.960 . S
C922 C920 1.381 1_554 S
C922 C923 1.394 . S
C922 H930 0.930 . S
C923 C922 1.394 . S
C923 C924 1.383 1_554 S
C923 H931 0.929 . S
C924 C923 1.383 1_556 S
C924 C925 1.377 . S
C925 H909 0.930 . S
C925 C924 1.377 . S
C925 C926 1.379 . S
C926 H910 0.931 . S
C926 C920 1.383 . S
C926 C925 1.379 . S
H927 C921 0.959 . S
H928 C921 0.961 1_556 S
H929 C921 0.960 . S
H930 C922 0.930 . S
H931 C923 0.929 . S
H932 C940 0.929 . S
H933 C942 0.930 . S
H934 C944 0.930 . S
H935 C947 0.929 . S
H936 C950 0.930 . S
H937 C952 0.960 . S
H938 C952 0.960 . S
H939 C952 0.960 . S
C940 H932 0.929 . S
C940 C941 1.377 . S
C940 C942 1.384 . S
C941 C940 1.377 . S
C941 C947 1.390 . S
C942 H933 0.930 . S
C942 C940 1.384 . S
C942 C943 1.372 . S
C943 C942 1.372 . S
C943 C944 1.400 . S
C943 C948 1.490 . S
C944 H934 0.930 . S
C944 C943 1.400 . S
C944 C947 1.386 . S
H945 C961 0.930 . S
H946 C962 0.931 . S
C947 H935 0.929 . S
C947 C941 1.390 . S
C947 C944 1.386 . S
C948 C943 1.490 . S
C948 C950 1.395 . S
C948 C951 1.403 . S
H949 C955 0.930 . S
C950 H936 0.930 . S
C950 C948 1.395 . S
C950 C953 1.403 . S
C951 C948 1.403 . S
C951 C952 1.524 . S
C951 C955 1.400 . S
C952 H937 0.960 . S
C952 H938 0.960 . S
C952 H939 0.960 . S
C952 C951 1.524 . S
C953 C950 1.403 . S
C953 C954 1.392 . S
C953 C957 1.495 . S
C954 C953 1.392 . S
C954 C955 1.385 . S
C954 C956 1.478 . S
C955 H949 0.930 . S
C955 C951 1.400 . S
C955 C954 1.385 . S
C956 C954 1.478 . S
C956 C958 1.381 . S
C956 C962 1.383 . S
C957 C953 1.495 . S
C957 H963 0.959 . S
C957 H964 0.961 . S
C957 H965 0.960 . S
C958 C956 1.381 . S
C958 C959 1.394 . S
C958 H966 0.930 . S
C959 C958 1.394 . S
C959 C960 1.383 . S
C959 H967 0.929 . S
C960 C959 1.383 . S
C960 C961 1.377 . S
C961 H945 0.930 . S
C961 C960 1.377 . S
C961 C962 1.379 . S
C962 H946 0.931 . S
C962 C956 1.383 . S
C962 C961 1.379 . S
H963 C957 0.959 . S
H964 C957 0.961 . S
H965 C957 0.960 . S
H966 C958 0.930 . S
H967 C959 0.929 . S
H968 C976 0.929 . S
H969 C978 0.930 . S
H970 C980 0.930 . S
H971 C983 0.929 1_554 S
H972 C986 0.930 . S
H973 C988 0.960 . S
H974 C988 0.960 . S
H975 C988 0.960 . S
C976 H968 0.929 . S
C976 C977 1.377 . S
C976 C978 1.384 . S
C977 C976 1.377 . S
C977 C983 1.390 . S
C978 H969 0.930 . S
C978 C976 1.384 . S
C978 C979 1.372 . S
C979 C978 1.372 . S
C979 C980 1.400 1_556 S
C979 C984 1.490 . S
C980 H970 0.930 . S
C980 C979 1.400 1_554 S
C980 C983 1.386 1_554 S
H981 C997 0.930 . S
H982 C998 0.931 . S
C983 H971 0.929 1_556 S
C983 C977 1.390 . S
C983 C980 1.386 1_556 S
C984 C979 1.490 . S
C984 C986 1.395 . S
C984 C987 1.403 1_556 S
H985 C991 0.930 . S
C986 H972 0.930 . S
C986 C984 1.395 . S
C986 C989 1.403 . S
C987 C984 1.403 1_554 S
C987 C988 1.524 . S
C987 C991 1.400 . S
C988 H973 0.960 . S
C988 H974 0.960 . S
C988 H975 0.960 . S
C988 C987 1.524 . S
C989 C986 1.403 . S
C989 C990 1.392 . S
C989 C993 1.495 . S
C990 C989 1.392 . S
C990 C991 1.385 1_556 S
C990 C992 1.478 1_556 S
C991 H985 0.930 . S
C991 C987 1.400 . S
C991 C990 1.385 1_554 S
C992 C990 1.478 1_554 S
C992 C994 1.381 1_554 S
C992 C998 1.383 . S
C993 C989 1.495 . S
C993 H999 0.959 . S
C993 H1000 0.961 . S
C993 H1001 0.960 . S
C994 C992 1.381 1_556 S
C994 C995 1.394 1_556 S
C994 H1002 0.930 . S
C995 C994 1.394 1_554 S
C995 C996 1.383 . S
C995 H1003 0.929 1_554 S
C996 C995 1.383 . S
C996 C997 1.377 . S
C997 H981 0.930 . S
C997 C996 1.377 . S
C997 C998 1.379 . S
C998 H982 0.931 . S
C998 C992 1.383 . S
C998 C997 1.379 . S
H999 C993 0.959 . S
H1000 C993 0.961 . S
H1001 C993 0.960 . S
H1002 C994 0.930 . S
H1003 C995 0.929 1_556 S
H1004 C1012 0.929 . S
H1005 C1014 0.930 . S
H1006 C1016 0.930 . S
H1007 C1019 0.929 . S
H1008 C1022 0.930 . S
H1009 C1024 0.960 . S
H1010 C1024 0.960 . S
H1011 C1024 0.960 . S
C1012 H1004 0.929 . S
C1012 C1013 1.377 . S
C1012 C1014 1.384 . S
C1013 C1012 1.377 . S
C1013 C1019 1.390 . S
C1014 H1005 0.930 . S
C1014 C1012 1.384 . S
C1014 C1015 1.372 . S
C1015 C1014 1.372 . S
C1015 C1016 1.400 . S
C1015 C1020 1.490 . S
C1016 H1006 0.930 . S
C1016 C1015 1.400 . S
C1016 C1019 1.386 . S
H1017 C1033 0.930 . S
H1018 C1034 0.931 . S
C1019 H1007 0.929 . S
C1019 C1013 1.390 . S
C1019 C1016 1.386 . S
C1020 C1015 1.490 . S
C1020 C1022 1.395 . S
C1020 C1023 1.403 . S
H1021 C1027 0.930 . S
C1022 H1008 0.930 . S
C1022 C1020 1.395 . S
C1022 C1025 1.403 . S
C1023 C1020 1.403 . S
C1023 C1024 1.524 . S
C1023 C1027 1.400 . S
C1024 H1009 0.960 . S
C1024 H1010 0.960 . S
C1024 H1011 0.960 . S
C1024 C1023 1.524 . S
C1025 C1022 1.403 . S
C1025 C1026 1.392 . S
C1025 C1029 1.495 . S
C1026 C1025 1.392 . S
C1026 C1027 1.385 . S
C1026 C1028 1.478 . S
C1027 H1021 0.930 . S
C1027 C1023 1.400 . S
C1027 C1026 1.385 . S
C1028 C1026 1.478 . S
C1028 C1030 1.381 . S
C1028 C1034 1.383 . S
C1029 C1025 1.495 . S
C1029 H1035 0.959 . S
C1029 H1036 0.961 . S
C1029 H1037 0.960 . S
C1030 C1028 1.381 . S
C1030 C1031 1.394 . S
C1030 H1038 0.930 . S
C1031 C1030 1.394 . S
C1031 C1032 1.383 . S
C1031 H1039 0.929 . S
C1032 C1031 1.383 . S
C1032 C1033 1.377 . S
C1033 H1017 0.930 . S
C1033 C1032 1.377 . S
C1033 C1034 1.379 . S
C1034 H1018 0.931 . S
C1034 C1028 1.383 . S
C1034 C1033 1.379 . S
H1035 C1029 0.959 . S
H1036 C1029 0.961 . S
H1037 C1029 0.960 . S
H1038 C1030 0.930 . S
H1039 C1031 0.929 . S
C185 C6 1.202 . S
C204 C71 1.240 . S
C221 C49 1.235 . S
C240 C28 1.209 . S
C257 C29 1.239 . S
C276 C53 1.176 . S
C293 C7 1.238 . S
C312 C75 1.190 . S
C329 C159 1.231 . S
C348 C94 1.171 . S
C365 C116 1.191 . S
C384 C137 1.211 . S
C401 C117 1.239 . S
C420 C141 1.164 . S
C437 C95 1.238 . S
C456 C163 1.183 . S
C473 C9 0.481 . S
C492 C50 0.395 . S
C509 C72 0.474 . S
C528 C31 0.544 . S
C545 C97 0.502 . S
C564 C138 0.524 . S
C581 C119 0.500 . S
C600 C160 0.565 . S
C617 C5 2.256 . S
C636 C51 2.259 . S
C653 C27 2.250 . S
C672 C73 2.258 . S
C689 C139 2.251 . S
C708 C93 2.231 . S
C725 C161 2.253 . S
C744 C115 2.265 . S
C761 C8 1.632 . S
C780 C30 1.633 . S
C797 C48 1.634 . S
C816 C70 1.631 . S
C833 C96 1.631 . S
C852 C118 1.634 . S
C869 C158 1.633 . S
C888 C136 1.621 . S
C905 C4 1.389 . S
C924 C140 1.410 . S
C941 C26 1.391 . S
C960 C162 1.365 . S
C977 C52 1.387 . S
C996 C92 1.404 . S
C1013 C114 1.389 . S
C1032 C74 1.360 . S
