# Generated by pormake.
# Topology vmh, (6)-cn, num edge types: 1
# Building blocks:
#     Node 0, Type 0, BuildingBlock: IZENUY_clean_sbu_0, # of connection points: 6
#     Node 1, Type 0, BuildingBlock: IZENUY_clean_sbu_0, # of connection points: 6
#     Node 2, Type 0, BuildingBlock: IZENUY_clean_sbu_0, # of connection points: 6
#     Node 3, Type 0, BuildingBlock: IZENUY_clean_sbu_0, # of connection points: 6
#     Node 4, Type 0, BuildingBlock: IZENUY_clean_sbu_0, # of connection points: 6
#     Node 5, Type 0, BuildingBlock: IZENUY_clean_sbu_0, # of connection points: 6
#     Node 6, Type 0, BuildingBlock: IZENUY_clean_sbu_0, # of connection points: 6
#     Node 7, Type 0, BuildingBlock: IZENUY_clean_sbu_0, # of connection points: 6
#     Edge 8, Type (0, 0), BuildingBlock: OJICUG_clean_linker_0, # of connection points: 2
#     Edge 9, Type (0, 0), BuildingBlock: OJICUG_clean_linker_0, # of connection points: 2
#     Edge 10, Type (0, 0), BuildingBlock: OJICUG_clean_linker_0, # of connection points: 2
#     Edge 11, Type (0, 0), BuildingBlock: OJICUG_clean_linker_0, # of connection points: 2
#     Edge 12, Type (0, 0), BuildingBlock: OJICUG_clean_linker_0, # of connection points: 2
#     Edge 13, Type (0, 0), BuildingBlock: OJICUG_clean_linker_0, # of connection points: 2
#     Edge 14, Type (0, 0), BuildingBlock: OJICUG_clean_linker_0, # of connection points: 2
#     Edge 15, Type (0, 0), BuildingBlock: OJICUG_clean_linker_0, # of connection points: 2
#     Edge 16, Type (0, 0), BuildingBlock: OJICUG_clean_linker_0, # of connection points: 2
#     Edge 17, Type (0, 0), BuildingBlock: OJICUG_clean_linker_0, # of connection points: 2
#     Edge 18, Type (0, 0), BuildingBlock: OJICUG_clean_linker_0, # of connection points: 2
#     Edge 19, Type (0, 0), BuildingBlock: OJICUG_clean_linker_0, # of connection points: 2
#     Edge 20, Type (0, 0), BuildingBlock: OJICUG_clean_linker_0, # of connection points: 2
#     Edge 21, Type (0, 0), BuildingBlock: OJICUG_clean_linker_0, # of connection points: 2
#     Edge 22, Type (0, 0), BuildingBlock: OJICUG_clean_linker_0, # of connection points: 2
#     Edge 23, Type (0, 0), BuildingBlock: OJICUG_clean_linker_0, # of connection points: 2
#     Edge 24, Type (0, 0), BuildingBlock: OJICUG_clean_linker_0, # of connection points: 2
#     Edge 25, Type (0, 0), BuildingBlock: OJICUG_clean_linker_0, # of connection points: 2
#     Edge 26, Type (0, 0), BuildingBlock: OJICUG_clean_linker_0, # of connection points: 2
#     Edge 27, Type (0, 0), BuildingBlock: OJICUG_clean_linker_0, # of connection points: 2
#     Edge 28, Type (0, 0), BuildingBlock: OJICUG_clean_linker_0, # of connection points: 2
#     Edge 29, Type (0, 0), BuildingBlock: OJICUG_clean_linker_0, # of connection points: 2
#     Edge 30, Type (0, 0), BuildingBlock: OJICUG_clean_linker_0, # of connection points: 2
#     Edge 31, Type (0, 0), BuildingBlock: OJICUG_clean_linker_0, # of connection points: 2
# Relax obj value: 0.246
# Max RMSD: 0.263
# Mean RMSD: 0.263
data_MOF--net-vmh--node1-IZENUY_clean_sbu_0--edge1-OJICUG_clean_linker_0
_symmetry_space_group_name_H-M    P1
_symmetry_Int_Tables_number       1
_symmetry_cell_setting            triclinic
loop_
_symmetry_equiv_pos_as_xyz
'x, y, z'
_cell_length_a     20.906635
_cell_length_b     31.74318
_cell_length_c     21.52223
_cell_angle_alpha  90.273872
_cell_angle_beta   108.52952
_cell_angle_gamma 89.319832
loop_
_atom_site_label
_atom_site_type_symbol
_atom_site_fract_x
_atom_site_fract_y
_atom_site_fract_z
_atom_type_partial_charge
Fe0 Fe 0.25509 0.118 0.11947 0.0
Fe1 Fe 0.27423 0.03719 0.04478 0.0
O2 O 0.28914 0.09171 0.06369 0.0
Fe3 Fe 0.34183 0.11923 0.02729 0.0
O4 O 0.40452 0.12691 0.1069 0.0
O5 O 0.33505 0.14631 0.16122 0.0
O6 O 0.2863 0.07879 0.18237 0.0
C7 C 0.2785 0.03965 0.17812 0.0
C8 C 0.25416 0.18465 0.03749 0.0
O9 O 0.26798 1.02073 0.1243 0.0
C10 C 0.26684 0.07462 0.9221 0.0
O11 O 0.17176 0.0907 0.08771 0.0
O12 O 0.1845 0.04565 1.01337 0.0
O13 O 0.30749 0.17069 0.03051 0.0
O14 O 0.22013 0.16247 0.06395 0.0
C15 C 0.40593 0.0428 0.0536 0.0
O16 O 0.27491 0.04327 0.96044 0.0
O17 O 0.28246 0.11149 0.94482 0.0
C18 C 0.14793 0.06296 0.04297 0.0
O19 O 0.36437 0.02433 0.07526 0.0
O20 O 0.38845 0.07412 1.01732 0.0
C21 C 0.39486 0.14051 0.15859 0.0
Fe22 Fe 0.77542 0.11469 0.4278 0.0
Fe23 Fe 0.7611 0.03345 0.50206 0.0
O24 O 0.74304 0.08785 0.48336 0.0
Fe25 Fe 0.68924 0.11482 0.52021 0.0
O26 O 0.62558 0.12214 0.4408 0.0
O27 O 0.69395 0.14266 0.38671 0.0
O28 O 0.74623 0.07553 0.36443 0.0
C29 C 0.75599 0.0364 0.36846 0.0
C30 C 0.77273 0.1809 0.51014 0.0
O31 O 0.76771 1.01738 0.42224 0.0
C32 C 0.76761 0.07084 0.62502 0.0
O33 O 0.86009 0.08811 0.45898 0.0
O34 O 0.8503 0.0426 0.53313 0.0
O35 O 0.71997 0.16664 0.51664 0.0
O36 O 0.80817 0.15878 0.48423 0.0
C37 C 0.62956 0.03819 0.49382 0.0
O38 O 0.76076 0.03938 0.58672 0.0
O39 O 0.74975 0.10756 0.60226 0.0
C40 C 0.8857 0.06061 0.5037 0.0
O41 O 0.67166 1.0199 0.47182 0.0
O42 O 0.64606 0.06922 0.53073 0.0
C43 C 0.63444 0.13663 0.38947 0.0
Fe44 Fe 0.7653 1.00745 1.00317 0.0
Fe45 Fe 0.7822 0.92558 0.92954 0.0
O46 O 0.74805 0.95317 0.98405 0.0
Fe47 Fe 0.69305 0.9271 1.0194 0.0
O48 O 0.64901 0.97332 0.02961 0.0
O49 O 0.67584 0.022 0.97191 0.0
O50 O 0.77265 0.02335 0.92381 0.0
C51 C 0.76293 1.00416 0.87027 0.0
C52 C 0.76969 0.9701 0.12526 0.0
O53 O 0.755 0.96499 0.86621 0.0
C54 C 0.77628 0.85913 1.00965 0.0
O55 O 0.85454 0.99756 0.0353 0.0
O56 O 0.86693 0.95102 0.96272 0.0
O57 O 0.75225 0.93358 0.10201 0.0
O58 O 0.76373 1.00157 0.08738 0.0
C59 C 0.64099 0.9061 0.88838 0.0
O60 O 0.81324 0.8807 0.9856 0.0
O61 O 0.72367 0.87472 1.01583 0.0
C62 C 0.89113 0.97902 1.00693 0.0
O63 O 0.70083 0.89909 0.88651 0.0
O64 O 0.63097 0.92064 0.93938 0.0
C65 C 0.63308 1.00455 0.99301 0.0
Fe66 Fe 0.26056 0.92894 0.61769 0.0
Fe67 Fe 0.34873 0.93154 0.52725 0.0
O68 O 0.29274 0.957 0.5631 0.0
Fe69 Fe 0.27225 1.01113 0.54409 0.0
O70 O 0.26439 0.02664 0.62367 0.0
O71 O 0.28627 0.96835 0.6813 0.0
O72 O 0.34324 0.90266 0.65981 0.0
C73 C 0.40268 0.90987 0.65771 0.0
C74 C 0.14848 0.98134 0.54078 0.0
O75 O 0.41172 0.92528 0.60705 0.0
C76 C 0.269 0.97397 0.42176 0.0
O77 O 0.23135 0.88432 0.56107 0.0
O78 O 0.32121 0.87903 0.53078 0.0
O79 O 0.18369 1.00037 0.51225 0.0
O80 O 0.17461 0.95378 0.58528 0.0
C81 C 0.40422 1.00923 0.55384 0.0
O82 O 0.28859 0.93762 0.44503 0.0
O83 O 0.27364 1.00551 0.45962 0.0
C84 C 0.26887 0.86338 0.53596 0.0
O85 O 0.3895 0.97819 0.51677 0.0
O86 O 0.36086 0.02646 0.57517 0.0
C87 C 0.27596 1.00747 0.67733 0.0
Fe88 Fe 0.76513 0.61354 0.1133 0.0
Fe89 Fe 0.77734 0.53083 0.04073 0.0
O90 O 0.79915 0.58443 0.06041 0.0
Fe91 Fe 0.85754 0.60809 0.02704 0.0
O92 O 0.91766 0.615 0.10741 0.0
O93 O 0.84658 0.64027 0.15604 0.0
O94 O 0.79164 0.57459 0.17735 0.0
C95 C 0.77861 0.53594 0.17257 0.0
C96 C 0.77481 0.67787 0.03153 0.0
O97 O 0.76465 0.51702 0.11844 0.0
C98 C 0.78117 0.56588 0.9205 0.0
O99 O 0.67954 0.58842 0.08096 0.0
O100 O 0.68969 0.54442 1.00482 0.0
O101 O 0.82791 0.66137 0.02737 0.0
O102 O 0.73611 0.65737 0.05506 0.0
C103 C 0.91139 0.52868 0.0593 0.0
O104 O 0.78422 0.5347 0.95815 0.0
O105 O 0.80054 0.60188 0.94394 0.0
C106 C 0.65407 0.56115 0.03583 0.0
O107 O 0.86448 0.5132 0.07634 0.0
O108 O 0.90043 0.55976 0.02158 0.0
C109 C 0.90678 0.63261 0.15579 0.0
Fe110 Fe 0.28609 0.61909 0.42529 0.0
Fe111 Fe 0.26779 0.53662 0.49526 0.0
O112 O 0.25103 0.59121 0.47785 0.0
Fe113 Fe 0.19544 0.61782 0.51306 0.0
O114 O 0.13394 0.62437 0.43336 0.0
O115 O 0.20459 0.64712 0.38303 0.0
O116 O 0.259 0.58129 0.35988 0.0
C117 C 0.26353 0.54185 0.36112 0.0
C118 C 0.27965 0.68405 0.50827 0.0
O119 O 0.2729 0.52145 0.41377 0.0
C120 C 0.27217 0.57482 0.61827 0.0
O121 O 0.37071 0.59207 0.45767 0.0
O122 O 0.35732 0.54425 0.52702 0.0
O123 O 0.22494 0.66984 0.5096 0.0
O124 O 0.31723 0.66234 0.48424 0.0
C125 C 0.13615 0.54124 0.48672 0.0
O126 O 0.26762 0.54283 0.58086 0.0
O127 O 0.25446 0.61127 0.59486 0.0
C128 C 0.39444 0.56304 0.50044 0.0
O129 O 0.1783 0.52359 0.46437 0.0
O130 O 0.15226 0.57217 0.52369 0.0
C131 C 0.14448 0.63997 0.38367 0.0
Fe132 Fe 0.26267 0.50839 0.98884 0.0
Fe133 Fe 0.29761 0.42865 0.92416 0.0
O134 O 0.25264 0.45373 0.97103 0.0
Fe135 Fe 0.19299 0.42494 0.99553 0.0
O136 O 0.12822 0.46004 0.94942 0.0
O137 O 0.17602 0.5181 0.9906 0.0
O138 O 0.23677 0.52247 0.90133 0.0
C139 C 0.26915 0.50882 0.86426 0.0
C140 C 0.25565 0.47844 0.10569 0.0
O141 O 0.30416 0.47545 0.87852 0.0
C142 C 0.28258 0.36266 1.01065 0.0
O143 O 0.35156 0.50832 0.99421 0.0
O144 O 0.37977 0.44149 0.98578 0.0
O145 O 0.20874 0.45383 0.07429 0.0
O146 O 0.29001 0.49793 0.07627 0.0
C147 C 0.16642 0.40065 0.86508 0.0
O148 O 0.29704 0.37577 0.96088 0.0
O149 O 0.25524 0.38733 0.04059 0.0
C150 C 0.39628 0.47969 1.00285 0.0
O151 O 0.2182 0.41785 0.85822 0.0
O152 O 0.16587 0.39141 0.92199 0.0
C153 C 0.12349 0.49609 0.97007 0.0
Fe154 Fe 0.77135 0.42753 0.61452 0.0
Fe155 Fe 0.85195 0.42953 0.51748 0.0
O156 O 0.7993 0.45508 0.55678 0.0
Fe157 Fe 0.77753 0.50894 0.53792 0.0
O158 O 0.77208 0.52442 0.61846 0.0
O159 O 0.802 0.46691 0.67672 0.0
O160 O 0.85544 0.40088 0.65294 0.0
C161 C 0.91358 0.4082 0.6471 0.0
C162 C 0.65612 0.47968 0.54037 0.0
O163 O 0.91855 0.42357 0.59476 0.0
C164 C 0.76779 0.47169 0.41475 0.0
O165 O 0.73851 0.38305 0.55907 0.0
O166 O 0.82479 0.37694 0.52325 0.0
O167 O 0.68947 0.49739 0.50875 0.0
O168 O 0.68449 0.45311 0.58618 0.0
C169 C 0.90727 0.50779 0.54127 0.0
O170 O 0.78783 0.43536 0.43758 0.0
O171 O 0.77567 0.50336 0.45271 0.0
C172 C 0.77387 0.36152 0.53229 0.0
O173 O 0.89167 0.47645 0.50462 0.0
O174 O 0.86595 0.52439 0.56596 0.0
C175 C 0.78864 0.50556 0.67271 0.0
C176 C 0.28776 0.08689 0.81399 0.0
C177 C 0.25642 0.06429 0.85232 0.0
H178 H 0.31879 0.08654 0.72743 0.0
C179 C 0.22571 0.02578 0.82832 0.0
H180 H 0.31243 0.11645 0.83148 0.0
C181 C 0.23127 1.00833 0.77083 0.0
C182 C 0.26644 0.02925 0.73473 0.0
H183 H 0.20061 1.00773 0.85622 0.0
H184 H 0.20922 0.97776 0.75536 0.0
C185 C 0.29218 0.06958 0.75504 0.0
C186 C 0.8079 1.00537 0.77701 0.0
C187 C 0.77155 0.02606 0.813 0.0
H188 H 0.83812 1.00474 0.69133 0.0
C189 C 0.74336 0.06607 0.79236 0.0
H190 H 0.83177 0.97503 0.79273 0.0
C191 C 0.74657 0.08324 0.73317 0.0
C192 C 0.77903 0.06077 0.69491 0.0
H193 H 0.71574 0.08283 0.81984 0.0
H194 H 0.72007 0.11251 0.71543 0.0
C195 C 0.81214 0.02265 0.71922 0.0
C196 C 0.7402 0.97472 0.29027 0.0
C197 C 0.76655 1.01473 0.31158 0.0
H198 H 0.72066 0.92833 0.21329 0.0
C199 C 0.80357 0.03547 0.27708 0.0
H200 H 0.71224 0.9579 0.31674 0.0
C201 C 0.81023 1.01824 0.21994 0.0
C202 C 0.77887 0.98013 0.19481 0.0
H203 H 0.82618 0.06578 0.29351 0.0
H204 H 0.83668 0.03616 0.19316 0.0
C205 C 0.74579 0.95761 0.23169 0.0
C206 C 0.23058 0.03844 0.26915 0.0
C207 C 0.26876 1.01789 0.23482 0.0
H208 H 0.19791 0.03924 0.35336 0.0
C209 C 0.29752 0.9782 0.2565 0.0
H210 H 0.2062 0.06851 0.25242 0.0
C211 C 0.29309 0.96129 0.31533 0.0
C212 C 0.25892 0.98371 0.35211 0.0
H213 H 0.32646 0.96157 0.23019 0.0
H214 H 0.31999 0.93229 0.33402 0.0
C215 C 0.22522 1.02142 0.32662 0.0
C216 C 0.80411 0.56577 0.75273 0.0
C217 C 0.77862 0.52581 0.73051 0.0
H218 H 0.82488 0.61053 0.83181 0.0
C219 C 0.74478 0.50308 0.766 0.0
H220 H 0.82973 0.58396 0.72552 0.0
C221 C 0.74073 0.51833 0.82515 0.0
C222 C 0.77131 0.55647 0.85088 0.0
H223 H 0.72303 0.47266 0.74885 0.0
H224 H 0.71666 0.49903 0.85252 0.0
C225 C 0.80084 0.581 0.81307 0.0
C226 C 0.3282 0.53733 0.72168 0.0
C227 C 0.27943 0.56649 0.68743 0.0
H228 H 0.36431 0.49765 0.80478 0.0
C229 C 0.23057 0.58093 0.71531 0.0
H230 H 0.36608 0.52564 0.70109 0.0
C231 C 0.22807 0.56401 0.77482 0.0
C232 C 0.27467 0.53266 0.80697 0.0
H233 H 0.19161 0.60302 0.68894 0.0
H234 H 0.18793 0.57374 0.79365 0.0
C235 C 0.32638 0.52102 0.7809 0.0
C236 C 0.3061 0.53927 0.26584 0.0
C237 C 0.26659 0.52093 0.30026 0.0
H238 H 0.335 0.53988 0.17929 0.0
C239 C 0.22713 0.48588 0.27274 0.0
H240 H 0.33735 0.56619 0.28601 0.0
C241 C 0.22479 0.47097 0.21023 0.0
C242 C 0.26285 0.49041 0.17482 0.0
H243 H 0.19587 0.47134 0.29805 0.0
H244 H 0.19187 0.445 0.18896 0.0
C245 C 0.30478 0.52406 0.20447 0.0
C246 C 0.79219 0.47433 0.24861 0.0
C247 C 0.76723 0.51503 0.22873 0.0
H248 H 0.81155 0.4277 0.32463 0.0
C249 C 0.73131 0.5369 0.26385 0.0
H250 H 0.81911 0.45673 0.22132 0.0
C251 C 0.7249 0.51995 0.32088 0.0
C252 C 0.75576 0.48121 0.34499 0.0
H253 H 0.70979 0.56781 0.24818 0.0
H254 H 0.69975 0.53865 0.34866 0.0
C255 C 0.78701 0.45755 0.30702 0.0
C256 C 0.52582 0.04666 0.08009 0.0
C257 C 0.46714 0.02374 0.0499 0.0
H258 H 0.62415 0.06334 0.07877 0.0
C259 C 0.46144 1.00105 0.99245 0.0
H260 H 0.52958 0.06619 0.12257 0.0
C261 C 0.51316 1.002 0.96487 0.0
C262 C 0.57211 0.0246 0.9954 0.0
H263 H 0.41493 0.9852 0.96633 0.0
H264 H 0.50937 0.98245 0.92241 0.0
C265 C 0.5776 0.04756 0.05257 0.0
C266 C 0.45996 0.04907 0.49348 0.0
C267 C 0.46511 0.02877 0.55259 0.0
H268 H 0.50662 0.0609 0.42034 0.0
C269 C 0.52348 1.00534 0.58465 0.0
H270 H 0.41397 0.06565 0.4664 0.0
C271 C 0.57373 0.99974 0.55576 0.0
C272 C 0.56834 1.01974 0.49637 0.0
H273 H 0.5272 0.988 0.62899 0.0
H274 H 0.6197 0.98312 0.58282 0.0
C275 C 0.51028 0.04354 0.46465 0.0
C276 C 0.96334 0.4774 1.00856 0.0
C277 C 0.97093 0.50483 0.06135 0.0
H278 H 1.00326 0.45658 0.93392 0.0
C279 C 0.03184 0.52621 0.08843 0.0
H280 H 0.916 0.46139 0.98621 0.0
C281 C 0.08064 0.52508 0.05708 0.0
C282 C 0.06963 0.50151 0.99936 0.0
H283 H 0.03789 0.54808 0.12872 0.0
H284 H 0.12625 0.5431 0.07746 0.0
C285 C 1.01182 0.47633 0.97696 0.0
C286 C 0.07981 0.5022 0.54784 0.0
C287 C 0.0752 0.52213 0.48858 0.0
H288 H 0.0305 0.48887 0.61839 0.0
C289 C 1.01612 0.54415 0.45434 0.0
H290 H 0.12651 0.48712 0.57682 0.0
C291 C 0.96311 0.54732 0.48002 0.0
C292 C 0.9678 0.5274 0.53929 0.0
H293 H 1.01304 0.56158 0.41024 0.0
H294 H 0.91635 0.56234 0.45104 0.0
C295 C 0.02711 0.50578 0.57381 0.0
C296 C 0.04576 0.04816 0.07818 0.0
C297 C 0.07996 0.04376 0.03193 0.0
H298 H 0.96164 0.03013 0.1081 0.0
C299 C 0.05325 1.01555 0.9791 0.0
H300 H 0.06525 0.06862 0.12024 0.0
C301 C 0.9942 0.99272 0.97255 0.0
C302 C 0.95984 0.99727 1.01866 0.0
H303 H 0.07834 1.01081 0.94261 0.0
H304 H 0.97456 0.97237 0.93039 0.0
C305 C 0.98677 0.02532 0.07166 0.0
C306 C 0.98896 0.04785 0.4689 0.0
C307 C 0.95499 0.04262 0.51501 0.0
H308 H 0.07457 0.03146 0.43934 0.0
C309 C 0.98369 1.01481 0.56802 0.0
H310 H 0.96798 0.06806 0.42675 0.0
C311 C 0.04449 0.99309 0.57485 0.0
C312 C 0.07858 0.99845 0.52886 0.0
H313 H 0.95883 1.00953 0.6044 0.0
H314 H 0.0656 0.97297 0.6171 0.0
C315 C 0.04969 0.0261 0.47569 0.0
C316 C 0.48637 0.53114 0.06019 0.0
C317 C 0.46685 0.49547 1.0191 0.0
H318 H 0.55921 0.58003 0.0976 0.0
C319 C 0.50916 0.4821 0.98363 0.0
H320 H 0.45426 0.54284 0.08742 0.0
C321 C 0.5682 0.50435 0.98781 0.0
C322 C 0.58744 0.54054 0.02814 0.0
H323 H 0.495 0.45571 0.95014 0.0
H324 H 0.5989 0.49296 0.959 0.0
C325 C 0.54597 0.55309 0.06515 0.0
C326 C 0.55728 0.52412 0.47405 0.0
C327 C 0.58642 0.49775 0.52905 0.0
H328 H 0.4765 0.56615 0.42288 0.0
C329 C 0.55291 0.49501 0.576 0.0
H330 H 0.58134 0.52751 0.43661 0.0
C331 C 0.4925 0.51782 0.56805 0.0
C332 C 0.4639 0.54444 0.51325 0.0
H333 H 0.57403 0.47602 0.61955 0.0
H334 H 0.46779 0.51436 0.60496 0.0
C335 C 0.49744 0.54714 0.46646 0.0
C336 C 0.45008 0.14671 0.28141 0.0
C337 C 0.45549 0.14703 0.21791 0.0
H338 H 0.50164 0.14331 0.38485 0.0
C339 C 0.52079 0.14831 0.21195 0.0
H340 H 0.401 0.14532 0.28823 0.0
C341 C 0.5788 0.14746 0.26753 0.0
C342 C 0.57343 0.14475 0.3309 0.0
H343 H 0.52729 0.14851 0.16399 0.0
H344 H 0.62788 0.14682 0.26056 0.0
C345 C 0.50811 0.14534 0.33698 0.0
C346 C 0.58656 0.89993 0.76578 0.0
C347 C 0.58077 0.8995 0.82909 0.0
H348 H 0.53532 0.90351 0.66237 0.0
C349 C 0.51549 0.89799 0.83496 0.0
H350 H 0.63573 0.90148 0.75919 0.0
C351 C 0.45769 0.8988 0.77935 0.0
C352 C 0.46341 0.90174 0.71618 0.0
H353 H 0.50886 0.89766 0.88287 0.0
H354 H 0.40851 0.89928 0.78612 0.0
C355 C 0.52872 0.90133 0.71017 0.0
C356 C 0.03175 0.64344 0.20647 0.0
C357 C 0.9667 0.64302 0.21321 0.0
H358 H 0.13888 0.64375 0.25461 0.0
C359 C 0.96118 0.64771 0.27618 0.0
H360 H 0.03806 0.64009 0.15864 0.0
C361 C 1.01926 0.64962 0.33125 0.0
C362 C 0.08438 0.64741 0.32478 0.0
H363 H 0.9122 0.64738 0.28334 0.0
H364 H 1.01308 0.65088 0.37933 0.0
C365 C 0.08982 0.64585 0.2615 0.0
C366 C 0.04106 0.40545 0.69158 0.0
C367 C 0.97821 0.3999 0.70201 0.0
H368 H 0.14867 0.41004 0.73352 0.0
C369 C 0.97899 0.39027 0.76599 0.0
H370 H 0.04326 0.4124 0.64311 0.0
C371 C 0.04034 0.3882 0.81811 0.0
C372 C 0.1028 0.39598 0.808 0.0
H373 H 0.9321 0.38591 0.77637 0.0
H374 H 0.0384 0.38234 0.86701 0.0
C375 C 0.10209 0.40386 0.74361 0.0
C376 C 0.25723 0.24655 0.97 0.0
C377 C 0.24309 0.23026 0.02487 0.0
H378 H 0.2837 0.29999 0.92379 0.0
C379 C 0.24125 0.25803 0.07523 0.0
H380 H 0.26052 0.22568 0.93107 0.0
C381 C 0.25584 0.30091 0.07164 0.0
C382 C 0.27337 0.31671 1.01802 0.0
H383 H 0.23292 0.24617 0.11912 0.0
H384 H 0.25458 0.32157 0.11144 0.0
C385 C 0.27253 0.28899 0.96674 0.0
C386 C 0.80428 0.25162 0.47902 0.0
C387 C 0.78112 0.22677 0.52069 0.0
H388 H 0.81641 0.31393 0.44774 0.0
C389 C 0.75175 0.24674 0.56405 0.0
H390 H 0.82519 0.23723 0.44389 0.0
C391 C 0.7449 0.29056 0.56522 0.0
C392 C 0.76771 0.31542 0.52329 0.0
H393 H 0.73261 0.22824 0.59635 0.0
H394 H 0.72369 0.30493 0.60014 0.0
C395 C 0.79749 0.29545 0.48023 0.0
C396 C 0.74982 0.79361 0.05963 0.0
C397 C 0.78333 0.81287 1.01965 0.0
H398 H 0.71807 0.73624 0.09281 0.0
C399 C 0.81037 0.78714 0.98107 0.0
H400 H 0.72778 0.8126 0.08972 0.0
C401 C 0.80353 0.74329 0.98217 0.0
C402 C 0.76942 0.72414 0.02173 0.0
H403 H 0.83476 0.80086 0.94858 0.0
H404 H 0.82573 0.72417 0.95238 0.0
C405 C 0.74263 0.74988 0.06041 0.0
C406 C 0.30283 0.7563 0.47639 0.0
C407 C 0.28701 0.7297 0.52082 0.0
H408 H 0.30505 0.81969 0.44407 0.0
C409 C 0.25994 0.74748 0.56755 0.0
H410 H 0.32124 0.74347 0.43844 0.0
C411 C 0.24839 0.79087 0.56954 0.0
C412 C 0.26391 0.81747 0.52491 0.0
H413 H 0.24586 0.72742 0.6016 0.0
H414 H 0.22963 0.80367 0.60727 0.0
C415 C 0.29131 0.79969 0.4784 0.0
loop_
_geom_bond_atom_site_label_1
_geom_bond_atom_site_label_2
_geom_bond_distance
_geom_bond_site_symmetry_2
_ccdc_geom_bond_type
Fe0 O2 1.918 . S
Fe0 O5 1.997 . S
Fe0 O6 2.002 . S
Fe0 O11 1.976 . S
Fe0 O14 1.996 . S
Fe1 O2 1.918 . S
Fe1 O9 1.997 1_545 S
Fe1 O12 1.996 . S
Fe1 O16 1.976 1_554 S
Fe1 O19 2.002 1_545 S
O2 Fe0 1.918 . S
O2 Fe1 1.918 . S
O2 Fe3 1.918 . S
Fe3 O2 1.918 . S
Fe3 O4 2.002 . S
Fe3 O13 1.976 1_554 S
Fe3 O17 1.996 1_554 S
Fe3 O20 1.997 . S
O4 Fe3 2.002 . S
O4 C21 1.295 . S
O5 Fe0 1.997 . S
O5 C21 1.235 . S
O6 Fe0 2.002 . S
O6 C7 1.295 . S
C7 O6 1.295 . S
C7 O9 1.235 1_545 S
C8 O13 1.287 1_554 S
C8 O14 1.255 . S
O9 Fe1 1.997 1_565 S
O9 C7 1.235 1_565 S
C10 O16 1.287 . S
C10 O17 1.255 . S
O11 Fe0 1.976 . S
O11 C18 1.287 . S
O12 Fe1 1.996 . S
O12 C18 1.255 . S
O13 Fe3 1.976 1_556 S
O13 C8 1.287 1_556 S
O14 Fe0 1.996 . S
O14 C8 1.255 . S
C15 O19 1.295 1_545 S
C15 O20 1.235 . S
O16 Fe1 1.976 1_556 S
O16 C10 1.287 . S
O17 Fe3 1.996 1_556 S
O17 C10 1.255 . S
C18 O11 1.287 . S
C18 O12 1.255 . S
O19 Fe1 2.002 1_565 S
O19 C15 1.295 1_565 S
O20 Fe3 1.997 . S
O20 C15 1.235 . S
C21 O4 1.295 . S
C21 O5 1.235 . S
Fe22 O24 1.918 . S
Fe22 O27 1.997 . S
Fe22 O28 2.002 . S
Fe22 O33 1.976 . S
Fe22 O36 1.996 . S
Fe23 O24 1.918 . S
Fe23 O31 1.997 1_545 S
Fe23 O34 1.996 . S
Fe23 O38 1.976 . S
Fe23 O41 2.002 1_545 S
O24 Fe22 1.918 . S
O24 Fe23 1.918 . S
O24 Fe25 1.918 . S
Fe25 O24 1.918 . S
Fe25 O26 2.002 . S
Fe25 O35 1.976 . S
Fe25 O39 1.996 . S
Fe25 O42 1.997 . S
O26 Fe25 2.002 . S
O26 C43 1.295 . S
O27 Fe22 1.997 . S
O27 C43 1.235 . S
O28 Fe22 2.002 . S
O28 C29 1.295 . S
C29 O28 1.295 . S
C29 O31 1.235 1_545 S
C30 O35 1.287 . S
C30 O36 1.255 . S
O31 Fe23 1.997 1_565 S
O31 C29 1.235 1_565 S
C32 O38 1.287 . S
C32 O39 1.255 . S
O33 Fe22 1.976 . S
O33 C40 1.287 . S
O34 Fe23 1.996 . S
O34 C40 1.255 . S
O35 Fe25 1.976 . S
O35 C30 1.287 . S
O36 Fe22 1.996 . S
O36 C30 1.255 . S
C37 O41 1.295 1_545 S
C37 O42 1.235 . S
O38 Fe23 1.976 . S
O38 C32 1.287 . S
O39 Fe25 1.996 . S
O39 C32 1.255 . S
C40 O33 1.287 . S
C40 O34 1.255 . S
O41 Fe23 2.002 1_565 S
O41 C37 1.295 1_565 S
O42 Fe25 1.997 . S
O42 C37 1.235 . S
C43 O26 1.295 . S
C43 O27 1.235 . S
Fe44 O46 1.918 . S
Fe44 O49 1.997 1_565 S
Fe44 O50 2.002 1_565 S
Fe44 O55 1.976 . S
Fe44 O58 1.996 1_556 S
Fe45 O46 1.918 . S
Fe45 O53 1.997 . S
Fe45 O56 1.996 . S
Fe45 O60 1.976 . S
Fe45 O63 2.002 . S
O46 Fe44 1.918 . S
O46 Fe45 1.918 . S
O46 Fe47 1.918 . S
Fe47 O46 1.918 . S
Fe47 O48 2.002 . S
Fe47 O57 1.976 1_556 S
Fe47 O61 1.996 1_556 S
Fe47 O64 1.997 . S
O48 Fe47 2.002 . S
O48 C65 1.295 . S
O49 Fe44 1.997 1_545 S
O49 C65 1.235 1_545 S
O50 Fe44 2.002 1_545 S
O50 C51 1.295 1_545 S
C51 O50 1.295 1_565 S
C51 O53 1.235 . S
C52 O57 1.287 . S
C52 O58 1.255 . S
O53 Fe45 1.997 . S
O53 C51 1.235 . S
C54 O60 1.287 . S
C54 O61 1.255 1_556 S
O55 Fe44 1.976 . S
O55 C62 1.287 . S
O56 Fe45 1.996 . S
O56 C62 1.255 . S
O57 Fe47 1.976 1_554 S
O57 C52 1.287 . S
O58 Fe44 1.996 1_554 S
O58 C52 1.255 . S
C59 O63 1.295 . S
C59 O64 1.235 . S
O60 Fe45 1.976 . S
O60 C54 1.287 . S
O61 Fe47 1.996 1_554 S
O61 C54 1.255 1_554 S
C62 O55 1.287 . S
C62 O56 1.255 . S
O63 Fe45 2.002 . S
O63 C59 1.295 . S
O64 Fe47 1.997 . S
O64 C59 1.235 . S
C65 O48 1.295 . S
C65 O49 1.235 1_565 S
Fe66 O68 1.918 . S
Fe66 O71 1.997 . S
Fe66 O72 2.002 . S
Fe66 O77 1.976 . S
Fe66 O80 1.996 . S
Fe67 O68 1.918 . S
Fe67 O75 1.997 . S
Fe67 O78 1.996 . S
Fe67 O82 1.976 . S
Fe67 O85 2.002 . S
O68 Fe66 1.918 . S
O68 Fe67 1.918 . S
O68 Fe69 1.918 . S
Fe69 O68 1.918 . S
Fe69 O70 2.002 1_565 S
Fe69 O79 1.976 . S
Fe69 O83 1.996 . S
Fe69 O86 1.997 1_565 S
O70 Fe69 2.002 1_545 S
O70 C87 1.295 1_545 S
O71 Fe66 1.997 . S
O71 C87 1.235 . S
O72 Fe66 2.002 . S
O72 C73 1.295 . S
C73 O72 1.295 . S
C73 O75 1.235 . S
C74 O79 1.287 . S
C74 O80 1.255 . S
O75 Fe67 1.997 . S
O75 C73 1.235 . S
C76 O82 1.287 . S
C76 O83 1.255 . S
O77 Fe66 1.976 . S
O77 C84 1.287 . S
O78 Fe67 1.996 . S
O78 C84 1.255 . S
O79 Fe69 1.976 . S
O79 C74 1.287 . S
O80 Fe66 1.996 . S
O80 C74 1.255 . S
C81 O85 1.295 . S
C81 O86 1.235 1_565 S
O82 Fe67 1.976 . S
O82 C76 1.287 . S
O83 Fe69 1.996 . S
O83 C76 1.255 . S
C84 O77 1.287 . S
C84 O78 1.255 . S
O85 Fe67 2.002 . S
O85 C81 1.295 . S
O86 Fe69 1.997 1_545 S
O86 C81 1.235 1_545 S
C87 O70 1.295 1_565 S
C87 O71 1.235 . S
Fe88 O90 1.918 . S
Fe88 O93 1.997 . S
Fe88 O94 2.002 . S
Fe88 O99 1.976 . S
Fe88 O102 1.996 . S
Fe89 O90 1.918 . S
Fe89 O97 1.997 . S
Fe89 O100 1.996 . S
Fe89 O104 1.976 1_554 S
Fe89 O107 2.002 . S
O90 Fe88 1.918 . S
O90 Fe89 1.918 . S
O90 Fe91 1.918 . S
Fe91 O90 1.918 . S
Fe91 O92 2.002 . S
Fe91 O101 1.976 1_554 S
Fe91 O105 1.996 1_554 S
Fe91 O108 1.997 . S
O92 Fe91 2.002 . S
O92 C109 1.295 . S
O93 Fe88 1.997 . S
O93 C109 1.235 . S
O94 Fe88 2.002 . S
O94 C95 1.295 . S
C95 O94 1.295 . S
C95 O97 1.235 . S
C96 O101 1.287 1_554 S
C96 O102 1.255 . S
O97 Fe89 1.997 . S
O97 C95 1.235 . S
C98 O104 1.287 . S
C98 O105 1.255 . S
O99 Fe88 1.976 . S
O99 C106 1.287 . S
O100 Fe89 1.996 . S
O100 C106 1.255 . S
O101 Fe91 1.976 1_556 S
O101 C96 1.287 1_556 S
O102 Fe88 1.996 . S
O102 C96 1.255 . S
C103 O107 1.295 . S
C103 O108 1.235 . S
O104 Fe89 1.976 1_556 S
O104 C98 1.287 . S
O105 Fe91 1.996 1_556 S
O105 C98 1.255 . S
C106 O99 1.287 . S
C106 O100 1.255 . S
O107 Fe89 2.002 . S
O107 C103 1.295 . S
O108 Fe91 1.997 . S
O108 C103 1.235 . S
C109 O92 1.295 . S
C109 O93 1.235 . S
Fe110 O112 1.918 . S
Fe110 O115 1.997 . S
Fe110 O116 2.002 . S
Fe110 O121 1.976 . S
Fe110 O124 1.996 . S
Fe111 O112 1.918 . S
Fe111 O119 1.997 . S
Fe111 O122 1.996 . S
Fe111 O126 1.976 . S
Fe111 O129 2.002 . S
O112 Fe110 1.918 . S
O112 Fe111 1.918 . S
O112 Fe113 1.918 . S
Fe113 O112 1.918 . S
Fe113 O114 2.002 . S
Fe113 O123 1.976 . S
Fe113 O127 1.996 . S
Fe113 O130 1.997 . S
O114 Fe113 2.002 . S
O114 C131 1.295 . S
O115 Fe110 1.997 . S
O115 C131 1.235 . S
O116 Fe110 2.002 . S
O116 C117 1.295 . S
C117 O116 1.295 . S
C117 O119 1.235 . S
C118 O123 1.287 . S
C118 O124 1.255 . S
O119 Fe111 1.997 . S
O119 C117 1.235 . S
C120 O126 1.287 . S
C120 O127 1.255 . S
O121 Fe110 1.976 . S
O121 C128 1.287 . S
O122 Fe111 1.996 . S
O122 C128 1.255 . S
O123 Fe113 1.976 . S
O123 C118 1.287 . S
O124 Fe110 1.996 . S
O124 C118 1.255 . S
C125 O129 1.295 . S
C125 O130 1.235 . S
O126 Fe111 1.976 . S
O126 C120 1.287 . S
O127 Fe113 1.996 . S
O127 C120 1.255 . S
C128 O121 1.287 . S
C128 O122 1.255 . S
O129 Fe111 2.002 . S
O129 C125 1.295 . S
O130 Fe113 1.997 . S
O130 C125 1.235 . S
C131 O114 1.295 . S
C131 O115 1.235 . S
Fe132 O134 1.918 . S
Fe132 O137 1.997 . S
Fe132 O138 2.002 . S
Fe132 O143 1.976 . S
Fe132 O146 1.996 1_556 S
Fe133 O134 1.918 . S
Fe133 O141 1.997 . S
Fe133 O144 1.996 . S
Fe133 O148 1.976 . S
Fe133 O151 2.002 . S
O134 Fe132 1.918 . S
O134 Fe133 1.918 . S
O134 Fe135 1.918 . S
Fe135 O134 1.918 . S
Fe135 O136 2.002 . S
Fe135 O145 1.976 1_556 S
Fe135 O149 1.996 1_556 S
Fe135 O152 1.997 . S
O136 Fe135 2.002 . S
O136 C153 1.295 . S
O137 Fe132 1.997 . S
O137 C153 1.235 . S
O138 Fe132 2.002 . S
O138 C139 1.295 . S
C139 O138 1.295 . S
C139 O141 1.235 . S
C140 O145 1.287 . S
C140 O146 1.255 . S
O141 Fe133 1.997 . S
O141 C139 1.235 . S
C142 O148 1.287 . S
C142 O149 1.255 1_556 S
O143 Fe132 1.976 . S
O143 C150 1.287 . S
O144 Fe133 1.996 . S
O144 C150 1.255 . S
O145 Fe135 1.976 1_554 S
O145 C140 1.287 . S
O146 Fe132 1.996 1_554 S
O146 C140 1.255 . S
C147 O151 1.295 . S
C147 O152 1.235 . S
O148 Fe133 1.976 . S
O148 C142 1.287 . S
O149 Fe135 1.996 1_554 S
O149 C142 1.255 1_554 S
C150 O143 1.287 . S
C150 O144 1.255 . S
O151 Fe133 2.002 . S
O151 C147 1.295 . S
O152 Fe135 1.997 . S
O152 C147 1.235 . S
C153 O136 1.295 . S
C153 O137 1.235 . S
Fe154 O156 1.918 . S
Fe154 O159 1.997 . S
Fe154 O160 2.002 . S
Fe154 O165 1.976 . S
Fe154 O168 1.996 . S
Fe155 O156 1.918 . S
Fe155 O163 1.997 . S
Fe155 O166 1.996 . S
Fe155 O170 1.976 . S
Fe155 O173 2.002 . S
O156 Fe154 1.918 . S
O156 Fe155 1.918 . S
O156 Fe157 1.918 . S
Fe157 O156 1.918 . S
Fe157 O158 2.002 . S
Fe157 O167 1.976 . S
Fe157 O171 1.996 . S
Fe157 O174 1.997 . S
O158 Fe157 2.002 . S
O158 C175 1.295 . S
O159 Fe154 1.997 . S
O159 C175 1.235 . S
O160 Fe154 2.002 . S
O160 C161 1.295 . S
C161 O160 1.295 . S
C161 O163 1.235 . S
C162 O167 1.287 . S
C162 O168 1.255 . S
O163 Fe155 1.997 . S
O163 C161 1.235 . S
C164 O170 1.287 . S
C164 O171 1.255 . S
O165 Fe154 1.976 . S
O165 C172 1.287 . S
O166 Fe155 1.996 . S
O166 C172 1.255 . S
O167 Fe157 1.976 . S
O167 C162 1.287 . S
O168 Fe154 1.996 . S
O168 C162 1.255 . S
C169 O173 1.295 . S
C169 O174 1.235 . S
O170 Fe155 1.976 . S
O170 C164 1.287 . S
O171 Fe157 1.996 . S
O171 C164 1.255 . S
C172 O165 1.287 . S
C172 O166 1.255 . S
O173 Fe155 2.002 . S
O173 C169 1.295 . S
O174 Fe157 1.997 . S
O174 C169 1.235 . S
C175 O158 1.295 . S
C175 O159 1.235 . S
C176 C177 1.387 . S
C176 H180 0.950 . S
C176 C185 1.390 . S
C177 C176 1.387 . S
C177 C179 1.387 . S
H178 C185 0.950 . S
C179 C177 1.387 . S
C179 C181 1.390 . S
C179 H183 0.950 . S
H180 C176 0.950 . S
C181 C179 1.390 . S
C181 C182 1.387 . S
C181 H184 0.950 . S
C182 C181 1.387 . S
C182 C185 1.387 . S
H183 C179 0.950 . S
H184 C181 0.950 . S
C185 C176 1.390 . S
C185 H178 0.950 . S
C185 C182 1.387 . S
C186 C187 1.387 . S
C186 H190 0.950 . S
C186 C195 1.390 . S
C187 C186 1.387 . S
C187 C189 1.387 . S
H188 C195 0.950 . S
C189 C187 1.387 . S
C189 C191 1.390 . S
C189 H193 0.950 . S
H190 C186 0.950 . S
C191 C189 1.390 . S
C191 C192 1.387 . S
C191 H194 0.950 . S
C192 C191 1.387 . S
C192 C195 1.387 . S
H193 C189 0.950 . S
H194 C191 0.950 . S
C195 C186 1.390 . S
C195 H188 0.950 . S
C195 C192 1.387 . S
C196 C197 1.387 . S
C196 H200 0.950 . S
C196 C205 1.390 . S
C197 C196 1.387 . S
C197 C199 1.387 . S
H198 C205 0.950 . S
C199 C197 1.387 . S
C199 C201 1.390 . S
C199 H203 0.950 1_565 S
H200 C196 0.950 . S
C201 C199 1.390 . S
C201 C202 1.387 . S
C201 H204 0.950 . S
C202 C201 1.387 . S
C202 C205 1.387 . S
H203 C199 0.950 1_545 S
H204 C201 0.950 . S
C205 C196 1.390 . S
C205 H198 0.950 . S
C205 C202 1.387 . S
C206 C207 1.387 1_545 S
C206 H210 0.950 . S
C206 C215 1.390 1_545 S
C207 C206 1.387 1_565 S
C207 C209 1.387 . S
H208 C215 0.950 1_545 S
C209 C207 1.387 . S
C209 C211 1.390 . S
C209 H213 0.950 . S
H210 C206 0.950 . S
C211 C209 1.390 . S
C211 C212 1.387 . S
C211 H214 0.950 . S
C212 C211 1.387 . S
C212 C215 1.387 . S
H213 C209 0.950 . S
H214 C211 0.950 . S
C215 C206 1.390 1_565 S
C215 H208 0.950 1_565 S
C215 C212 1.387 . S
C216 C217 1.387 . S
C216 H220 0.950 . S
C216 C225 1.390 . S
C217 C216 1.387 . S
C217 C219 1.387 . S
H218 C225 0.950 . S
C219 C217 1.387 . S
C219 C221 1.390 . S
C219 H223 0.950 . S
H220 C216 0.950 . S
C221 C219 1.390 . S
C221 C222 1.387 . S
C221 H224 0.950 . S
C222 C221 1.387 . S
C222 C225 1.387 . S
H223 C219 0.950 . S
H224 C221 0.950 . S
C225 C216 1.390 . S
C225 H218 0.950 . S
C225 C222 1.387 . S
C226 C227 1.387 . S
C226 H230 0.950 . S
C226 C235 1.390 . S
C227 C226 1.387 . S
C227 C229 1.387 . S
H228 C235 0.950 . S
C229 C227 1.387 . S
C229 C231 1.390 . S
C229 H233 0.950 . S
H230 C226 0.950 . S
C231 C229 1.390 . S
C231 C232 1.387 . S
C231 H234 0.950 . S
C232 C231 1.387 . S
C232 C235 1.387 . S
H233 C229 0.950 . S
H234 C231 0.950 . S
C235 C226 1.390 . S
C235 H228 0.950 . S
C235 C232 1.387 . S
C236 C237 1.387 . S
C236 H240 0.950 . S
C236 C245 1.390 . S
C237 C236 1.387 . S
C237 C239 1.387 . S
H238 C245 0.950 . S
C239 C237 1.387 . S
C239 C241 1.390 . S
C239 H243 0.950 . S
H240 C236 0.950 . S
C241 C239 1.390 . S
C241 C242 1.387 . S
C241 H244 0.950 . S
C242 C241 1.387 . S
C242 C245 1.387 . S
H243 C239 0.950 . S
H244 C241 0.950 . S
C245 C236 1.390 . S
C245 H238 0.950 . S
C245 C242 1.387 . S
C246 C247 1.387 . S
C246 H250 0.950 . S
C246 C255 1.390 . S
C247 C246 1.387 . S
C247 C249 1.387 . S
H248 C255 0.950 . S
C249 C247 1.387 . S
C249 C251 1.390 . S
C249 H253 0.950 . S
H250 C246 0.950 . S
C251 C249 1.390 . S
C251 C252 1.387 . S
C251 H254 0.950 . S
C252 C251 1.387 . S
C252 C255 1.387 . S
H253 C249 0.950 . S
H254 C251 0.950 . S
C255 C246 1.390 . S
C255 H248 0.950 . S
C255 C252 1.387 . S
C256 C257 1.365 1_545 S
C256 H260 0.950 . S
C256 C265 1.390 1_554 S
C257 C256 1.365 1_565 S
C257 C259 1.410 . S
H258 C265 0.950 . S
C259 C257 1.410 . S
C259 C261 1.390 1_554 S
C259 H263 0.950 . S
H260 C256 0.950 . S
C261 C259 1.390 1_556 S
C261 C262 1.386 1_565 S
C261 H264 0.950 . S
C262 C261 1.386 1_545 S
C262 C265 1.389 . S
H263 C259 0.950 . S
H264 C261 0.950 . S
C265 C256 1.390 1_556 S
C265 H258 0.950 . S
C265 C262 1.389 . S
C266 C267 1.389 . S
C266 H270 0.950 . S
C266 C275 1.390 . S
C267 C266 1.389 . S
C267 C269 1.386 1_545 S
H268 C275 0.950 . S
C269 C267 1.386 1_565 S
C269 C271 1.390 . S
C269 H273 0.950 . S
H270 C266 0.950 . S
C271 C269 1.390 . S
C271 C272 1.410 . S
C271 H274 0.950 . S
C272 C271 1.410 . S
C272 C275 1.365 1_565 S
H273 C269 0.950 . S
H274 C271 0.950 . S
C275 C266 1.390 . S
C275 H268 0.950 . S
C275 C272 1.365 1_545 S
C276 C277 1.387 . S
C276 H280 0.950 . S
C276 C285 1.390 1_654 S
C277 C276 1.387 . S
C277 C279 1.387 . S
H278 C285 0.950 . S
C279 C277 1.387 . S
C279 C281 1.390 1_654 S
C279 H283 0.950 . S
H280 C276 0.950 . S
C281 C279 1.390 1_456 S
C281 C282 1.387 . S
C281 H284 0.950 . S
C282 C281 1.387 . S
C282 C285 1.387 . S
H283 C279 0.950 . S
H284 C281 0.950 . S
C285 C276 1.390 1_456 S
C285 H278 0.950 . S
C285 C282 1.387 . S
C286 C287 1.387 . S
C286 H290 0.950 . S
C286 C295 1.390 1_455 S
C287 C286 1.387 . S
C287 C289 1.387 . S
H288 C295 0.950 . S
C289 C287 1.387 . S
C289 C291 1.390 1_455 S
C289 H293 0.950 . S
H290 C286 0.950 . S
C291 C289 1.390 1_655 S
C291 C292 1.387 . S
C291 H294 0.950 . S
C292 C291 1.387 . S
C292 C295 1.387 . S
H293 C289 0.950 . S
H294 C291 0.950 . S
C295 C286 1.390 1_655 S
C295 H288 0.950 . S
C295 C292 1.387 . S
C296 C297 1.387 . S
C296 H300 0.950 . S
C296 C305 1.390 1_445 S
C297 C296 1.387 . S
C297 C299 1.387 1_554 S
H298 C305 0.950 . S
C299 C297 1.387 1_556 S
C299 C301 1.390 1_445 S
C299 H303 0.950 . S
H300 C296 0.950 . S
C301 C299 1.390 1_665 S
C301 C302 1.387 . S
C301 H304 0.950 . S
C302 C301 1.387 . S
C302 C305 1.387 1_556 S
H303 C299 0.950 . S
H304 C301 0.950 . S
C305 C296 1.390 1_665 S
C305 H298 0.950 . S
C305 C302 1.387 1_554 S
C306 C307 1.387 . S
C306 H310 0.950 . S
C306 C315 1.390 1_645 S
C307 C306 1.387 . S
C307 C309 1.387 . S
H308 C315 0.950 . S
C309 C307 1.387 . S
C309 C311 1.390 1_645 S
C309 H313 0.950 . S
H310 C306 0.950 . S
C311 C309 1.390 1_465 S
C311 C312 1.387 . S
C311 H314 0.950 . S
C312 C311 1.387 . S
C312 C315 1.387 . S
H313 C309 0.950 . S
H314 C311 0.950 . S
C315 C306 1.390 1_465 S
C315 H308 0.950 . S
C315 C312 1.387 . S
C316 C317 1.387 1_554 S
C316 H320 0.950 . S
C316 C325 1.390 . S
C317 C316 1.387 1_556 S
C317 C319 1.387 . S
H318 C325 0.950 . S
C319 C317 1.387 . S
C319 C321 1.390 . S
C319 H323 0.950 . S
H320 C316 0.950 . S
C321 C319 1.390 . S
C321 C322 1.387 1_556 S
C321 H324 0.950 . S
C322 C321 1.387 1_554 S
C322 C325 1.387 . S
H323 C319 0.950 . S
H324 C321 0.950 . S
C325 C316 1.390 . S
C325 H318 0.950 . S
C325 C322 1.387 . S
C326 C327 1.387 . S
C326 H330 0.950 . S
C326 C335 1.390 . S
C327 C326 1.387 . S
C327 C329 1.387 . S
H328 C335 0.950 . S
C329 C327 1.387 . S
C329 C331 1.390 . S
C329 H333 0.950 . S
H330 C326 0.950 . S
C331 C329 1.390 . S
C331 C332 1.387 . S
C331 H334 0.950 . S
C332 C331 1.387 . S
C332 C335 1.387 . S
H333 C329 0.950 . S
H334 C331 0.950 . S
C335 C326 1.390 . S
C335 H328 0.950 . S
C335 C332 1.387 . S
C336 C337 1.387 . S
C336 H340 0.950 . S
C336 C345 1.390 . S
C337 C336 1.387 . S
C337 C339 1.387 . S
H338 C345 0.950 . S
C339 C337 1.387 . S
C339 C341 1.390 . S
C339 H343 0.950 . S
H340 C336 0.950 . S
C341 C339 1.390 . S
C341 C342 1.387 . S
C341 H344 0.950 . S
C342 C341 1.387 . S
C342 C345 1.387 . S
H343 C339 0.950 . S
H344 C341 0.950 . S
C345 C336 1.390 . S
C345 H338 0.950 . S
C345 C342 1.387 . S
C346 C347 1.387 . S
C346 H350 0.950 . S
C346 C355 1.390 . S
C347 C346 1.387 . S
C347 C349 1.387 . S
H348 C355 0.950 . S
C349 C347 1.387 . S
C349 C351 1.390 . S
C349 H353 0.950 . S
H350 C346 0.950 . S
C351 C349 1.390 . S
C351 C352 1.387 . S
C351 H354 0.950 . S
C352 C351 1.387 . S
C352 C355 1.387 . S
H353 C349 0.950 . S
H354 C351 0.950 . S
C355 C346 1.390 . S
C355 H348 0.950 . S
C355 C352 1.387 . S
C356 C357 1.387 . S
C356 H360 0.950 . S
C356 C365 1.390 1_655 S
C357 C356 1.387 . S
C357 C359 1.387 . S
H358 C365 0.950 . S
C359 C357 1.387 . S
C359 C361 1.390 1_655 S
C359 H363 0.950 . S
H360 C356 0.950 . S
C361 C359 1.390 1_455 S
C361 C362 1.387 . S
C361 H364 0.950 . S
C362 C361 1.387 . S
C362 C365 1.387 . S
H363 C359 0.950 . S
H364 C361 0.950 . S
C365 C356 1.390 1_455 S
C365 H358 0.950 . S
C365 C362 1.387 . S
C366 C367 1.387 . S
C366 H370 0.950 . S
C366 C375 1.390 1_655 S
C367 C366 1.387 . S
C367 C369 1.387 . S
H368 C375 0.950 . S
C369 C367 1.387 . S
C369 C371 1.390 1_655 S
C369 H373 0.950 . S
H370 C366 0.950 . S
C371 C369 1.390 1_455 S
C371 C372 1.387 . S
C371 H374 0.950 . S
C372 C371 1.387 . S
C372 C375 1.387 . S
H373 C369 0.950 . S
H374 C371 0.950 . S
C375 C366 1.390 1_455 S
C375 H368 0.950 . S
C375 C372 1.387 . S
C376 C377 1.387 1_556 S
C376 H380 0.950 . S
C376 C385 1.390 . S
C377 C376 1.387 1_554 S
C377 C379 1.387 . S
H378 C385 0.950 . S
C379 C377 1.387 . S
C379 C381 1.390 . S
C379 H383 0.950 . S
H380 C376 0.950 . S
C381 C379 1.390 . S
C381 C382 1.387 1_554 S
C381 H384 0.950 . S
C382 C381 1.387 1_556 S
C382 C385 1.387 . S
H383 C379 0.950 . S
H384 C381 0.950 . S
C385 C376 1.390 . S
C385 H378 0.950 . S
C385 C382 1.387 . S
C386 C387 1.387 . S
C386 H390 0.950 . S
C386 C395 1.390 . S
C387 C386 1.387 . S
C387 C389 1.387 . S
H388 C395 0.950 . S
C389 C387 1.387 . S
C389 C391 1.390 . S
C389 H393 0.950 . S
H390 C386 0.950 . S
C391 C389 1.390 . S
C391 C392 1.387 . S
C391 H394 0.950 . S
C392 C391 1.387 . S
C392 C395 1.387 . S
H393 C389 0.950 . S
H394 C391 0.950 . S
C395 C386 1.390 . S
C395 H388 0.950 . S
C395 C392 1.387 . S
C396 C397 1.387 1_554 S
C396 H400 0.950 . S
C396 C405 1.390 . S
C397 C396 1.387 1_556 S
C397 C399 1.387 . S
H398 C405 0.950 . S
C399 C397 1.387 . S
C399 C401 1.390 . S
C399 H403 0.950 . S
H400 C396 0.950 . S
C401 C399 1.390 . S
C401 C402 1.387 1_556 S
C401 H404 0.950 . S
C402 C401 1.387 1_554 S
C402 C405 1.387 . S
H403 C399 0.950 . S
H404 C401 0.950 . S
C405 C396 1.390 . S
C405 H398 0.950 . S
C405 C402 1.387 . S
C406 C407 1.387 . S
C406 H410 0.950 . S
C406 C415 1.390 . S
C407 C406 1.387 . S
C407 C409 1.387 . S
H408 C415 0.950 . S
C409 C407 1.387 . S
C409 C411 1.390 . S
C409 H413 0.950 . S
H410 C406 0.950 . S
C411 C409 1.390 . S
C411 C412 1.387 . S
C411 H414 0.950 . S
C412 C411 1.387 . S
C412 C415 1.387 . S
H413 C409 0.950 . S
H414 C411 0.950 . S
C415 C406 1.390 . S
C415 H408 0.950 . S
C415 C412 1.387 . S
C177 C10 1.434 . S
C182 C87 1.450 1_545 S
C187 C51 1.451 1_545 S
C192 C32 1.433 . S
C197 C29 1.438 1_565 S
C202 C52 1.420 . S
C207 C7 1.438 1_565 S
C212 C76 1.422 . S
C217 C175 1.451 . S
C222 C98 1.434 . S
C227 C120 1.433 . S
C232 C139 1.451 . S
C237 C117 1.436 . S
C242 C140 1.423 . S
C247 C95 1.436 . S
C252 C164 1.422 . S
C257 C15 1.080 1_565 S
C262 C65 1.079 1_545 S
C267 C81 1.079 1_545 S
C272 C37 1.080 1_565 S
C277 C103 1.093 . S
C282 C153 1.083 . S
C287 C125 1.093 . S
C292 C169 1.083 . S
C297 C18 1.935 . S
C302 C62 1.951 . S
C307 C40 1.935 . S
C312 C74 1.951 . S
C317 C150 1.951 . S
C322 C106 1.935 . S
C327 C162 1.951 . S
C332 C128 1.935 . S
C337 C21 1.631 . S
C342 C43 1.631 . S
C347 C59 1.626 . S
C352 C73 1.626 . S
C357 C109 1.631 . S
C362 C131 1.631 . S
C367 C161 1.626 . S
C372 C147 1.626 . S
C377 C8 1.452 . S
C382 C142 1.450 . S
C387 C30 1.453 . S
C392 C172 1.451 . S
C397 C54 1.451 . S
C402 C96 1.453 . S
C407 C118 1.453 . S
C412 C84 1.451 . S
